# Generated by pormake.
# Topology hwx, (6,3)-cn, num edge types: 1
# Building blocks:
#     Node 0, Type 0, BuildingBlock: OJICUG_clean_sbu_0, # of connection points: 6
#     Node 1, Type 0, BuildingBlock: OJICUG_clean_sbu_0, # of connection points: 6
#     Node 2, Type 0, BuildingBlock: OJICUG_clean_sbu_0, # of connection points: 6
#     Node 3, Type 0, BuildingBlock: OJICUG_clean_sbu_0, # of connection points: 6
#     Node 4, Type 1, BuildingBlock: MIDCAF_clean_linker_0, # of connection points: 3
#     Node 5, Type 1, BuildingBlock: MIDCAF_clean_linker_0, # of connection points: 3
#     Node 6, Type 1, BuildingBlock: MIDCAF_clean_linker_0, # of connection points: 3
#     Node 7, Type 1, BuildingBlock: MIDCAF_clean_linker_0, # of connection points: 3
#     Node 8, Type 1, BuildingBlock: MIDCAF_clean_linker_0, # of connection points: 3
#     Node 9, Type 1, BuildingBlock: MIDCAF_clean_linker_0, # of connection points: 3
#     Node 10, Type 1, BuildingBlock: MIDCAF_clean_linker_0, # of connection points: 3
#     Node 11, Type 1, BuildingBlock: MIDCAF_clean_linker_0, # of connection points: 3
#     Edge 12, Type (0, 1), BuildingBlock: OJICUG_clean_linker_0, # of connection points: 2
#     Edge 13, Type (0, 1), BuildingBlock: OJICUG_clean_linker_0, # of connection points: 2
#     Edge 14, Type (0, 1), BuildingBlock: OJICUG_clean_linker_0, # of connection points: 2
#     Edge 15, Type (0, 1), BuildingBlock: OJICUG_clean_linker_0, # of connection points: 2
#     Edge 16, Type (0, 1), BuildingBlock: OJICUG_clean_linker_0, # of connection points: 2
#     Edge 17, Type (0, 1), BuildingBlock: OJICUG_clean_linker_0, # of connection points: 2
#     Edge 18, Type (0, 1), BuildingBlock: OJICUG_clean_linker_0, # of connection points: 2
#     Edge 19, Type (0, 1), BuildingBlock: OJICUG_clean_linker_0, # of connection points: 2
#     Edge 20, Type (0, 1), BuildingBlock: OJICUG_clean_linker_0, # of connection points: 2
#     Edge 21, Type (0, 1), BuildingBlock: OJICUG_clean_linker_0, # of connection points: 2
#     Edge 22, Type (0, 1), BuildingBlock: OJICUG_clean_linker_0, # of connection points: 2
#     Edge 23, Type (0, 1), BuildingBlock: OJICUG_clean_linker_0, # of connection points: 2
#     Edge 24, Type (0, 1), BuildingBlock: OJICUG_clean_linker_0, # of connection points: 2
#     Edge 25, Type (0, 1), BuildingBlock: OJICUG_clean_linker_0, # of connection points: 2
#     Edge 26, Type (0, 1), BuildingBlock: OJICUG_clean_linker_0, # of connection points: 2
#     Edge 27, Type (0, 1), BuildingBlock: OJICUG_clean_linker_0, # of connection points: 2
#     Edge 28, Type (0, 1), BuildingBlock: OJICUG_clean_linker_0, # of connection points: 2
#     Edge 29, Type (0, 1), BuildingBlock: OJICUG_clean_linker_0, # of connection points: 2
#     Edge 30, Type (0, 1), BuildingBlock: OJICUG_clean_linker_0, # of connection points: 2
#     Edge 31, Type (0, 1), BuildingBlock: OJICUG_clean_linker_0, # of connection points: 2
#     Edge 32, Type (0, 1), BuildingBlock: OJICUG_clean_linker_0, # of connection points: 2
#     Edge 33, Type (0, 1), BuildingBlock: OJICUG_clean_linker_0, # of connection points: 2
#     Edge 34, Type (0, 1), BuildingBlock: OJICUG_clean_linker_0, # of connection points: 2
#     Edge 35, Type (0, 1), BuildingBlock: OJICUG_clean_linker_0, # of connection points: 2
# Relax obj value: 0.078
# Max RMSD: 0.103
# Mean RMSD: 0.095
data_MOF--net-hwx--node1-OJICUG_clean_sbu_0--node2-MIDCAF_clean_linker_0--edge1-OJICUG_clean_linker_0
_symmetry_space_group_name_H-M    P1
_symmetry_Int_Tables_number       1
_symmetry_cell_setting            triclinic
loop_
_symmetry_equiv_pos_as_xyz
'x, y, z'
_cell_length_a     47.939754
_cell_length_b     47.902738
_cell_length_c     21.625965
_cell_angle_alpha  90.033679
_cell_angle_beta   90.112678
_cell_angle_gamma 90.047513
loop_
_atom_site_label
_atom_site_type_symbol
_atom_site_fract_x
_atom_site_fract_y
_atom_site_fract_z
_atom_type_partial_charge
Sc0 Sc 0.21355 0.22132 0.07466 0.0
Sc1 Sc 0.17695 0.17099 0.98937 0.0
Sc2 Sc 0.21979 0.21985 0.91458 0.0
O3 O 0.20339 0.20399 0.99278 0.0
C4 C 0.2087 0.27505 0.98779 0.0
C5 C 0.14954 0.21054 0.09191 0.0
C6 C 0.1571 0.2059 0.87439 0.0
C7 C 0.21209 0.15623 0.10733 0.0
C8 C 0.27142 0.22234 0.00824 0.0
C9 C 0.22295 0.15533 0.88778 0.0
O10 O 0.21338 0.26322 0.03931 0.0
O11 O 0.14989 0.18813 0.06015 0.0
O12 O 0.18148 0.2152 0.86407 0.0
O13 O 0.21517 0.18181 0.12131 0.0
O14 O 0.26021 0.22629 0.95563 0.0
O15 O 0.20092 0.14985 0.91837 0.0
O16 O 0.25738 0.21728 0.05674 0.0
O17 O 0.20089 0.1482 0.05704 0.0
O18 O 0.23378 0.17952 0.88594 0.0
O19 O 0.17049 0.2266 0.09725 0.0
O20 O 0.20722 0.26167 0.93718 0.0
O21 O 0.15094 0.19131 0.92151 0.0
Sc22 Sc 0.26489 0.72185 0.40639 0.0
Sc23 Sc 0.3111 0.67652 0.48544 0.0
Sc24 Sc 0.26628 0.72187 0.56771 0.0
O25 O 0.28081 0.70669 0.48649 0.0
C26 C 0.26943 0.77719 0.48753 0.0
C27 C 0.32969 0.71696 0.37588 0.0
C28 C 0.33164 0.71679 0.59322 0.0
C29 C 0.27023 0.65658 0.37806 0.0
C30 C 0.2104 0.71762 0.4888 0.0
C31 C 0.27173 0.65682 0.59573 0.0
O32 O 0.26709 0.76471 0.43595 0.0
O33 O 0.33483 0.69768 0.41466 0.0
O34 O 0.30744 0.72626 0.6041 0.0
O35 O 0.2605 0.68083 0.36838 0.0
O36 O 0.22338 0.71961 0.53982 0.0
O37 O 0.29071 0.65201 0.55612 0.0
O38 O 0.22257 0.71783 0.43677 0.0
O39 O 0.28898 0.65151 0.41817 0.0
O40 O 0.26129 0.68083 0.60449 0.0
O41 O 0.3056 0.72742 0.36829 0.0
O42 O 0.26976 0.76446 0.53892 0.0
O43 O 0.33654 0.69828 0.55252 0.0
Sc44 Sc 0.76846 0.76461 0.91413 0.0
Sc45 Sc 0.81348 0.81258 0.98831 0.0
Sc46 Sc 0.76581 0.77198 0.07469 0.0
O47 O 0.78267 0.78308 0.99237 0.0
C48 C 0.71197 0.77077 0.98848 0.0
C49 C 0.77514 0.82807 0.87268 0.0
C50 C 0.77057 0.8378 0.0866 0.0
C51 C 0.83389 0.76783 0.8892 0.0
C52 C 0.77235 0.7135 0.00793 0.0
C53 C 0.83008 0.77969 0.11003 0.0
O54 O 0.72527 0.76895 0.93803 0.0
O55 O 0.79319 0.83453 0.91348 0.0
O56 O 0.75883 0.81462 0.09807 0.0
O57 O 0.80974 0.75765 0.88109 0.0
O58 O 0.77117 0.72809 0.057 0.0
O59 O 0.83701 0.79368 0.06257 0.0
O60 O 0.77075 0.72384 0.95399 0.0
O61 O 0.8387 0.78835 0.92503 0.0
O62 O 0.80531 0.77173 0.12046 0.0
O63 O 0.76496 0.80371 0.86728 0.0
O64 O 0.72391 0.77127 0.04076 0.0
O65 O 0.79166 0.84024 0.05127 0.0
Sc66 Sc 0.72126 0.26823 0.59239 0.0
Sc67 Sc 0.67451 0.31347 0.51543 0.0
Sc68 Sc 0.71885 0.269 0.43133 0.0
O69 O 0.70482 0.2837 0.51324 0.0
C70 C 0.77484 0.27605 0.50605 0.0
C71 C 0.71504 0.33245 0.62541 0.0
C72 C 0.70927 0.33344 0.40007 0.0
C73 C 0.6567 0.27348 0.62614 0.0
C74 C 0.71981 0.21345 0.51226 0.0
C75 C 0.65391 0.27136 0.40899 0.0
O76 O 0.76333 0.27075 0.55774 0.0
O77 O 0.69556 0.33754 0.58691 0.0
O78 O 0.71707 0.30883 0.38745 0.0
O79 O 0.68129 0.26453 0.63517 0.0
O80 O 0.72259 0.22663 0.46187 0.0
O81 O 0.65018 0.29249 0.44402 0.0
O82 O 0.71702 0.22562 0.56389 0.0
O83 O 0.65044 0.29059 0.58328 0.0
O84 O 0.67739 0.25945 0.40252 0.0
O85 O 0.72665 0.30879 0.6306 0.0
O86 O 0.76131 0.27778 0.45559 0.0
O87 O 0.69543 0.33954 0.44825 0.0
C88 C 0.21756 0.58724 0.15348 0.0
C89 C 0.22878 0.57482 0.2068 0.0
C90 C 0.23307 0.54578 0.20762 0.0
C91 C 0.22706 0.52966 0.15517 0.0
H92 H 0.19232 0.45104 0.07935 0.0
H93 H 0.18818 0.40044 0.07831 0.0
H94 H 0.21906 0.39862 0.89064 0.0
H95 H 0.22225 0.44927 0.89087 0.0
H96 H 0.23413 0.50816 0.82003 0.0
H97 H 0.24489 0.53638 0.72849 0.0
H98 H 0.22007 0.6107 0.82732 0.0
H99 H 0.20907 0.58291 0.91737 0.0
H100 H 0.20393 0.58176 0.06045 0.0
H101 H 0.21436 0.60959 0.15093 0.0
H102 H 0.24154 0.53566 0.2483 0.0
H103 H 0.2314 0.50748 0.15615 0.0
N104 N 0.2117 0.49873 0.04139 0.0
N105 N 0.21392 0.49918 0.93271 0.0
N106 N 0.21708 0.54093 0.98836 0.0
C107 C 0.21104 0.48478 0.98652 0.0
C108 C 0.2168 0.52734 0.93347 0.0
C109 C 0.21466 0.5269 0.04239 0.0
C110 C 0.20781 0.45416 0.98536 0.0
C111 C 0.19814 0.43986 0.03779 0.0
C112 C 0.19583 0.41084 0.03724 0.0
C113 C 0.20347 0.39547 0.98453 0.0
C114 C 0.21263 0.40984 0.9317 0.0
C115 C 0.21465 0.43888 0.93201 0.0
C116 C 0.22088 0.54335 0.87596 0.0
C117 C 0.23059 0.53048 0.82165 0.0
C118 C 0.23693 0.54658 0.76951 0.0
C119 C 0.23323 0.57567 0.7708 0.0
C120 C 0.22274 0.58828 0.82455 0.0
C121 C 0.21665 0.57234 0.87643 0.0
C122 C 0.21707 0.54247 0.10101 0.0
C123 C 0.21179 0.57128 0.1013 0.0
C124 C 0.90013 0.71154 0.66634 0.0
C125 C 0.91337 0.72288 0.71867 0.0
C126 C 0.94241 0.72676 0.71787 0.0
C127 C 0.95773 0.72043 0.6647 0.0
H128 H 0.03659 0.69181 0.58758 0.0
H129 H 0.08735 0.69207 0.58574 0.0
H130 H 0.08563 0.72377 0.39861 0.0
H131 H 0.03502 0.72263 0.39962 0.0
H132 H 0.97513 0.74123 0.34125 0.0
H133 H 0.94574 0.7578 0.2565 0.0
H134 H 0.87594 0.71202 0.33222 0.0
H135 H 0.90492 0.69665 0.41798 0.0
H136 H 0.90428 0.69777 0.57297 0.0
H137 H 0.87772 0.7086 0.66524 0.0
H138 H 0.95313 0.73529 0.75778 0.0
H139 H 0.97994 0.7246 0.66452 0.0
N140 N 0.98735 0.707 0.55025 0.0
N141 N 0.98634 0.71103 0.44205 0.0
N142 N 0.94466 0.71093 0.49822 0.0
C143 C 0.00106 0.70796 0.49534 0.0
C144 C 0.95811 0.71226 0.44324 0.0
C145 C 0.9591 0.70843 0.5519 0.0
C146 C 0.03178 0.70726 0.4938 0.0
C147 C 0.04705 0.69872 0.54597 0.0
C148 C 0.07613 0.69899 0.54503 0.0
C149 C 0.0905 0.70804 0.49212 0.0
C150 C 0.0752 0.71627 0.43976 0.0
C151 C 0.04616 0.71575 0.44048 0.0
C152 C 0.94211 0.71804 0.38655 0.0
C153 C 0.95361 0.73439 0.33905 0.0
C154 C 0.93679 0.74385 0.2905 0.0
C155 C 0.90834 0.73678 0.28844 0.0
C156 C 0.89755 0.71864 0.33358 0.0
C157 C 0.91417 0.70962 0.38247 0.0
C158 C 0.94415 0.71055 0.61128 0.0
C159 C 0.91533 0.7055 0.61324 0.0
C160 C 0.77709 0.40348 0.84451 0.0
C161 C 0.75724 0.41282 0.80114 0.0
C162 C 0.74706 0.44026 0.80604 0.0
C163 C 0.75503 0.45717 0.85581 0.0
H164 H 0.76726 0.53944 0.92012 0.0
H165 H 0.76727 0.59004 0.92138 0.0
H166 H 0.79273 0.58937 0.11329 0.0
H167 H 0.79183 0.53851 0.1127 0.0
H168 H 0.75066 0.47934 0.17418 0.0
H169 H 0.73442 0.45021 0.25955 0.0
H170 H 0.77709 0.37933 0.18006 0.0
H171 H 0.79222 0.40809 0.09378 0.0
H172 H 0.79861 0.41173 0.92936 0.0
H173 H 0.78616 0.38285 0.84098 0.0
H174 H 0.73174 0.44814 0.77362 0.0
H175 H 0.74576 0.47768 0.86042 0.0
N176 N 0.77763 0.4902 0.96109 0.0
N177 N 0.77793 0.48975 0.06967 0.0
N178 N 0.7764 0.44769 0.01443 0.0
C179 C 0.77875 0.50421 0.0157 0.0
C180 C 0.77682 0.46146 0.06926 0.0
C181 C 0.77674 0.46193 0.96028 0.0
C182 C 0.77953 0.53496 0.01631 0.0
C183 C 0.77298 0.55002 0.96257 0.0
C184 C 0.77314 0.57907 0.9632 0.0
C185 C 0.78017 0.59371 0.01736 0.0
C186 C 0.7869 0.57867 0.07107 0.0
C187 C 0.78649 0.54954 0.07061 0.0
C188 C 0.77228 0.44579 0.12692 0.0
C189 C 0.75702 0.45766 0.17576 0.0
C190 C 0.74772 0.44099 0.22467 0.0
C191 C 0.75384 0.41232 0.22567 0.0
C192 C 0.77122 0.40116 0.17951 0.0
C193 C 0.78009 0.41765 0.13033 0.0
C194 C 0.77288 0.4467 0.90186 0.0
C195 C 0.78446 0.42007 0.89486 0.0
C196 C 0.07157 0.22378 0.32463 0.0
C197 C 0.06516 0.23663 0.26815 0.0
C198 C 0.04423 0.2571 0.26589 0.0
C199 C 0.03 0.26469 0.31977 0.0
H200 H 0.94605 0.26811 0.39489 0.0
H201 H 0.89572 0.27241 0.39962 0.0
H202 H 0.90165 0.29888 0.59035 0.0
H203 H 0.95213 0.29369 0.58634 0.0
H204 H 0.00903 0.23889 0.64793 0.0
H205 H 0.03943 0.22432 0.73311 0.0
H206 H 0.10745 0.27088 0.6518 0.0
H207 H 0.07754 0.28382 0.56555 0.0
H208 H 0.06362 0.22182 0.42159 0.0
H209 H 0.08792 0.20822 0.32753 0.0
H210 H 0.03916 0.26737 0.22269 0.0
H211 H 0.01406 0.28068 0.31732 0.0
N212 N -0.00371 0.26849 0.43518 0.0
N213 N -0.0021 0.27248 0.54349 0.0
N214 N 0.03795 0.25981 0.48832 0.0
C215 C 0.98333 0.27428 0.48959 0.0
C216 C 0.02533 0.26562 0.54276 0.0
C217 C 0.02358 0.26112 0.43446 0.0
C218 C 0.95311 0.28019 0.49051 0.0
C219 C 0.93673 0.27517 0.4377 0.0
C220 C 0.90781 0.27781 0.44027 0.0
C221 C 0.89466 0.28578 0.49552 0.0
C222 C 0.91114 0.29215 0.54745 0.0
C223 C 0.94008 0.28929 0.54506 0.0
C224 C 0.04121 0.26212 0.60024 0.0
C225 C 0.03036 0.24637 0.64931 0.0
C226 C 0.04777 0.23805 0.69795 0.0
C227 C 0.07609 0.2458 0.69839 0.0
C228 C 0.08604 0.26367 0.65175 0.0
C229 C 0.06889 0.27137 0.60271 0.0
C230 C 0.03718 0.25248 0.37664 0.0
C231 C 0.0579 0.2318 0.37845 0.0
C232 C 0.71721 0.90757 0.30214 0.0
C233 C 0.7302 0.92088 0.25198 0.0
C234 C 0.73701 0.94933 0.25662 0.0
C235 C 0.73185 0.96391 0.31152 0.0
H236 H 0.70271 0.04145 0.3976 0.0
H237 H 0.70205 0.09204 0.40581 0.0
H238 H 0.73183 0.08642 0.59421 0.0
H239 H 0.73168 0.03574 0.58677 0.0
H240 H 0.73498 0.97608 0.65078 0.0
H241 H 0.74552 0.94602 0.73911 0.0
H242 H 0.73094 0.87325 0.6254 0.0
H243 H 0.71993 0.90288 0.53814 0.0
H244 H 0.70332 0.91078 0.39552 0.0
H245 H 0.71205 0.88557 0.3003 0.0
H246 H 0.74696 0.96006 0.21849 0.0
H247 H 0.73821 0.98555 0.31488 0.0
N248 N 0.71778 0.99171 0.42915 0.0
N249 N 0.72101 0.98779 0.53721 0.0
N250 N 0.72131 0.94771 0.47541 0.0
C251 C 0.71846 0.00395 0.48588 0.0
C252 C 0.72236 0.95961 0.53224 0.0
C253 C 0.71907 0.96356 0.42379 0.0
C254 C 0.71737 0.03459 0.49145 0.0
C255 C 0.70908 0.05098 0.44086 0.0
C256 C 0.70881 0.07998 0.44543 0.0
C257 C 0.71709 0.09321 0.5005 0.0
C258 C 0.72503 0.07682 0.55139 0.0
C259 C 0.72506 0.04777 0.547 0.0
C260 C 0.7267 0.9419 0.58731 0.0
C261 C 0.7337 0.95367 0.64492 0.0
C262 C 0.73992 0.9365 0.69535 0.0
C263 C 0.73903 0.90733 0.68911 0.0
C264 C 0.73142 0.89566 0.63193 0.0
C265 C 0.7253 0.91272 0.58172 0.0
C266 C 0.72031 0.95003 0.36273 0.0
C267 C 0.71241 0.92196 0.35694 0.0
C268 C 0.58108 0.21305 0.84209 0.0
C269 C 0.57369 0.23368 0.7987 0.0
C270 C 0.54741 0.24654 0.80366 0.0
C271 C 0.5299 0.24038 0.85349 0.0
H272 H 0.4458 0.20962 0.91797 0.0
H273 H 0.39517 0.21007 0.9191 0.0
H274 H 0.39624 0.23237 0.11279 0.0
H275 H 0.44702 0.23114 0.11229 0.0
H276 H 0.50559 0.23785 0.18095 0.0
H277 H 0.53376 0.24714 0.27315 0.0
H278 H 0.60744 0.21998 0.17552 0.0
H279 H 0.57957 0.21045 0.08424 0.0
H280 H 0.57091 0.1927 0.9272 0.0
H281 H 0.6007 0.20198 0.83857 0.0
H282 H 0.54104 0.26257 0.77134 0.0
H283 H 0.51045 0.25168 0.85821 0.0
N284 N 0.49511 0.22007 0.95922 0.0
N285 N 0.49595 0.22099 0.0678 0.0
N286 N 0.53778 0.21993 0.01217 0.0
C287 C 0.48126 0.22031 0.01401 0.0
C288 C 0.52425 0.22074 0.06717 0.0
C289 C 0.52337 0.21968 0.9582 0.0
C290 C 0.45048 0.22045 0.01497 0.0
C291 C 0.4353 0.21464 0.96085 0.0
C292 C 0.40625 0.21503 0.96141 0.0
C293 C 0.39171 0.22146 0.01594 0.0
C294 C 0.40685 0.22705 0.07023 0.0
C295 C 0.43596 0.22647 0.0698 0.0
C296 C 0.54038 0.22355 0.12513 0.0
C297 C 0.52773 0.23345 0.17956 0.0
C298 C 0.54384 0.23895 0.2322 0.0
C299 C 0.57276 0.2343 0.23149 0.0
C300 C 0.58514 0.22345 0.17778 0.0
C301 C 0.56916 0.21818 0.12523 0.0
C302 C 0.53865 0.22171 0.89957 0.0
C303 C 0.56396 0.20749 0.89256 0.0
C304 C 0.27865 0.08996 0.65939 0.0
C305 C 0.26808 0.07709 0.71279 0.0
C306 C 0.26489 0.04792 0.71352 0.0
C307 C 0.27112 0.0321 0.66093 0.0
H308 H 0.26979 0.95209 0.58885 0.0
H309 H 0.26672 0.90146 0.58683 0.0
H310 H 0.29354 0.90129 0.39604 0.0
H311 H 0.29562 0.95202 0.39737 0.0
H312 H 0.2546 0.01214 0.33503 0.0
H313 H 0.23907 0.0415 0.24942 0.0
H314 H 0.28505 0.11103 0.3264 0.0
H315 H 0.29945 0.08206 0.41307 0.0
H316 H 0.29196 0.08504 0.56597 0.0
H317 H 0.28105 0.11242 0.65702 0.0
H318 H 0.25702 0.03743 0.75427 0.0
H319 H 0.26757 0.00978 0.66217 0.0
N320 N 0.28324 0.00116 0.54777 0.0
N321 N 0.28239 0.00112 0.43916 0.0
N322 N 0.28248 0.04341 0.49345 0.0
C323 C 0.28332 0.98687 0.49343 0.0
C324 C 0.28211 0.02941 0.43897 0.0
C325 C 0.283 0.0295 0.54803 0.0
C326 C 0.28284 0.95607 0.49321 0.0
C327 C 0.27516 0.94126 0.54655 0.0
C328 C 0.27352 0.91219 0.54546 0.0
C329 C 0.27984 0.89731 0.49122 0.0
C330 C 0.28802 0.91214 0.43822 0.0
C331 C 0.28937 0.94122 0.43911 0.0
C332 C 0.27783 0.04502 0.3811 0.0
C333 C 0.26183 0.03355 0.33284 0.0
C334 C 0.25296 0.05036 0.28376 0.0
C335 C 0.26026 0.07878 0.28192 0.0
C336 C 0.2783 0.08945 0.32754 0.0
C337 C 0.28675 0.07283 0.37694 0.0
C338 C 0.28036 0.04525 0.60653 0.0
C339 C 0.2847 0.07425 0.60692 0.0
C340 C 0.39849 0.76733 0.14759 0.0
C341 C 0.41077 0.75643 0.2014 0.0
C342 C 0.43977 0.75222 0.20299 0.0
C343 C 0.45605 0.75813 0.15095 0.0
H344 H 0.53716 0.76003 0.0807 0.0
H345 H 0.58785 0.75982 0.08029 0.0
H346 H 0.58761 0.78916 0.89125 0.0
H347 H 0.53689 0.78846 0.89089 0.0
H348 H 0.47974 0.75587 0.81648 0.0
H349 H 0.45203 0.7459 0.7238 0.0
H350 H 0.37775 0.7731 0.81928 0.0
H351 H 0.40514 0.78338 0.91063 0.0
H352 H 0.40427 0.78084 0.0547 0.0
H353 H 0.37615 0.77044 0.14452 0.0
H354 H 0.44977 0.744 0.24407 0.0
H355 H 0.47824 0.75401 0.15278 0.0
N356 N 0.48784 0.77197 0.03927 0.0
N357 N 0.48826 0.77345 0.93063 0.0
N358 N 0.4459 0.7714 0.98381 0.0
C359 C 0.50229 0.77346 0.98529 0.0
C360 C 0.46002 0.77248 0.9297 0.0
C361 C 0.45956 0.77113 0.0387 0.0
C362 C 0.53302 0.77419 0.98579 0.0
C363 C 0.54791 0.76652 0.03911 0.0
C364 C 0.57697 0.76653 0.03896 0.0
C365 C 0.59175 0.7745 0.98573 0.0
C366 C 0.57684 0.78247 0.93265 0.0
C367 C 0.54777 0.7822 0.93258 0.0
C368 C 0.44455 0.77018 0.87095 0.0
C369 C 0.45758 0.76024 0.81706 0.0
C370 C 0.44174 0.75435 0.76423 0.0
C371 C 0.41277 0.75866 0.7644 0.0
C372 C 0.40009 0.76987 0.81738 0.0
C373 C 0.41578 0.77556 0.87 0.0
C374 C 0.44347 0.76802 0.0964 0.0
C375 C 0.41462 0.77307 0.0958 0.0
C376 C 0.10763 0.19617 0.15245 0.0
C377 C 0.12449 0.21745 0.12809 0.0
H378 H 0.07528 0.18574 0.21679 0.0
C379 C 0.11886 0.24538 0.14363 0.0
H380 H 0.11156 0.17449 0.14123 0.0
C381 C 0.09784 0.25179 0.18577 0.0
C382 C 0.08248 0.23034 0.21375 0.0
H383 H 0.13142 0.26219 0.125 0.0
H384 H 0.09485 0.27333 0.19955 0.0
C385 C 0.08695 0.20256 0.19557 0.0
C386 C 0.27714 0.61015 0.64723 0.0
C387 C 0.26085 0.63375 0.6338 0.0
H388 H 0.28111 0.57303 0.70196 0.0
C389 C 0.23408 0.63602 0.65962 0.0
H390 H 0.29778 0.60783 0.62761 0.0
C391 C 0.22445 0.61605 0.70102 0.0
C392 C 0.24146 0.59351 0.71811 0.0
H393 H 0.22075 0.65364 0.64895 0.0
H394 H 0.20401 0.61879 0.72144 0.0
C395 C 0.26754 0.59019 0.68938 0.0
C396 C 0.84365 0.76837 0.21761 0.0
C397 C 0.85142 0.77156 0.15553 0.0
H398 H 0.85573 0.75581 0.30816 0.0
C399 C 0.87872 0.76485 0.13747 0.0
H400 H 0.82285 0.77381 0.23295 0.0
C401 C 0.89754 0.75379 0.18058 0.0
C402 C 0.88934 0.74961 0.24236 0.0
H403 H 0.88511 0.76703 0.08969 0.0
H404 H 0.91814 0.74774 0.16515 0.0
C405 C 0.86244 0.75778 0.26057 0.0
C406 C 0.72705 0.38211 0.65253 0.0
C407 C 0.72393 0.35403 0.66967 0.0
H408 H 0.74103 0.42285 0.68016 0.0
C409 C 0.73075 0.34582 0.73003 0.0
H410 H 0.72196 0.38885 0.60605 0.0
C411 C 0.74108 0.36505 0.7723 0.0
C412 C 0.74548 0.39299 0.75508 0.0
H413 H 0.72805 0.32436 0.74475 0.0
H414 H 0.74552 0.3579 0.81879 0.0
C415 C 0.73796 0.40147 0.6949 0.0
C416 C 0.63233 0.23371 0.34541 0.0
C417 C 0.63053 0.26058 0.3713 0.0
H418 H 0.615 0.20409 0.28219 0.0
C419 C 0.60745 0.27741 0.35674 0.0
H420 H 0.64955 0.21997 0.35662 0.0
C421 C 0.58763 0.26826 0.31362 0.0
C422 C 0.59058 0.24211 0.28474 0.0
H423 H 0.60546 0.29817 0.37611 0.0
H424 H 0.57093 0.28226 0.30039 0.0
C425 C 0.61255 0.22457 0.30275 0.0
C426 C 0.22128 0.10866 0.83501 0.0
C427 C 0.23596 0.13318 0.84992 0.0
H428 H 0.21995 0.07165 0.7795 0.0
C429 C 0.26272 0.13726 0.82498 0.0
H430 H 0.20067 0.10484 0.85361 0.0
C431 C 0.27385 0.11814 0.78319 0.0
C432 C 0.25844 0.09457 0.76512 0.0
H433 H 0.27483 0.15567 0.83637 0.0
H434 H 0.2942 0.12228 0.76351 0.0
C435 C 0.23241 0.08955 0.79284 0.0
C436 C 0.34992 0.75481 0.31129 0.0
C437 C 0.3525 0.72809 0.33742 0.0
H438 H 0.36695 0.78513 0.24967 0.0
C439 C 0.37629 0.71207 0.32431 0.0
H440 H 0.33214 0.76794 0.32168 0.0
C441 C 0.39621 0.7219 0.2824 0.0
C442 C 0.39269 0.74797 0.25354 0.0
H443 H 0.37887 0.69147 0.34412 0.0
H444 H 0.41353 0.7085 0.27023 0.0
C445 C 0.36988 0.7647 0.27013 0.0
C446 C 0.77976 0.87476 0.82086 0.0
C447 C 0.76505 0.84967 0.82945 0.0
H448 H 0.78311 0.91275 0.76908 0.0
C449 C 0.74053 0.84495 0.79527 0.0
H450 H 0.79865 0.87904 0.84674 0.0
C451 C 0.7315 0.8643 0.75171 0.0
C452 C 0.74686 0.88874 0.74089 0.0
H453 H 0.72836 0.8261 0.80163 0.0
H454 H 0.71267 0.85988 0.72566 0.0
C455 C 0.77076 0.89413 0.77676 0.0
C456 C 0.85405 0.72764 0.83195 0.0
C457 C 0.8569 0.75513 0.85386 0.0
H458 H 0.87025 0.69556 0.77354 0.0
C459 C 0.88074 0.77054 0.83782 0.0
H460 H 0.83621 0.71498 0.84467 0.0
C461 C 0.90024 0.75937 0.79658 0.0
C462 C 0.89623 0.73259 0.77129 0.0
H463 H 0.88351 0.79172 0.85429 0.0
H464 H 0.9175 0.77232 0.78169 0.0
C465 C 0.87354 0.71646 0.7913 0.0
C466 C 0.7195 0.34841 0.29317 0.0
C467 C 0.71737 0.35535 0.35599 0.0
H468 H 0.73189 0.36113 0.20305 0.0
C469 C 0.72556 0.38206 0.3758 0.0
H470 H 0.71293 0.32808 0.27653 0.0
C471 C 0.73713 0.40098 0.33354 0.0
C472 C 0.74041 0.39342 0.27104 0.0
H473 H 0.72422 0.38779 0.42416 0.0
H474 H 0.74434 0.42107 0.35012 0.0
C475 C 0.73066 0.36725 0.25119 0.0
C476 C 0.10786 0.21913 0.84857 0.0
C477 C 0.13524 0.21328 0.82954 0.0
H478 H 0.06769 0.2349 0.82232 0.0
C479 C 0.14243 0.21665 0.76722 0.0
H480 H 0.10191 0.21682 0.89659 0.0
C481 C 0.12296 0.22648 0.72486 0.0
C482 C 0.09591 0.2338 0.74398 0.0
H483 H 0.16331 0.21189 0.75121 0.0
H484 H 0.12924 0.22849 0.677 0.0
C485 C 0.08835 0.2295 0.80611 0.0
C486 C 0.23162 0.63596 0.31622 0.0
C487 C 0.25861 0.63348 0.34096 0.0
H488 H 0.20058 0.61869 0.2565 0.0
C489 C 0.27438 0.60952 0.32767 0.0
H490 H 0.21869 0.65387 0.3269 0.0
C491 C 0.26403 0.58939 0.28662 0.0
C492 C 0.23768 0.59286 0.25889 0.0
H493 H 0.29518 0.60702 0.3465 0.0
H494 H 0.27726 0.57199 0.27402 0.0
C495 C 0.22121 0.61579 0.27602 0.0
C496 C 0.35238 0.75575 0.65336 0.0
C497 C 0.35481 0.72856 0.6296 0.0
H498 H 0.36949 0.78699 0.71274 0.0
C499 C 0.37859 0.71272 0.64376 0.0
H500 H 0.33458 0.7687 0.64193 0.0
C501 C 0.39856 0.72318 0.685 0.0
C502 C 0.39506 0.74969 0.71195 0.0
H503 H 0.381 0.69177 0.62567 0.0
H504 H 0.41581 0.70991 0.69847 0.0
C505 C 0.37237 0.76626 0.69377 0.0
C506 C 0.73101 0.86279 0.13544 0.0
C507 C 0.75923 0.86256 0.11804 0.0
H508 H 0.6994 0.88225 0.18991 0.0
C509 C 0.77661 0.88467 0.13639 0.0
H510 H 0.71698 0.84631 0.12075 0.0
C511 C 0.76652 0.90522 0.17653 0.0
C512 C 0.7389 0.90395 0.19822 0.0
H513 H 0.79841 0.88501 0.12332 0.0
H514 H 0.78086 0.92083 0.19404 0.0
C515 C 0.72092 0.88336 0.17487 0.0
C516 C 0.64268 0.25497 0.7286 0.0
C517 C 0.63491 0.26379 0.66916 0.0
H518 H 0.62964 0.23956 0.816 0.0
C519 C 0.60666 0.26273 0.65189 0.0
H520 H 0.66423 0.25594 0.74369 0.0
C521 C 0.58664 0.25252 0.69329 0.0
C522 C 0.59454 0.24358 0.75284 0.0
H523 H 0.60014 0.26929 0.60617 0.0
H524 H 0.56508 0.25143 0.67846 0.0
C525 C 0.62279 0.24526 0.76998 0.0
C526 C 0.23041 0.10841 0.13259 0.0
C527 C 0.22278 0.1354 0.15164 0.0
H528 H 0.24901 0.06941 0.1585 0.0
C529 C 0.2268 0.14314 0.21363 0.0
H530 H 0.22765 0.10195 0.08496 0.0
C531 C 0.23869 0.12462 0.25547 0.0
C532 C 0.24725 0.09793 0.23636 0.0
H533 H 0.22076 0.16364 0.23001 0.0
H534 H 0.24103 0.13124 0.3031 0.0
C535 C 0.24265 0.08984 0.17462 0.0
C536 C 0.19671 0.31988 0.93403 0.0
C537 C 0.20596 0.30575 0.98715 0.0
H538 H 0.18796 0.35936 0.89196 0.0
C539 C 0.21337 0.3213 0.03981 0.0
H540 H 0.19065 0.30848 0.89286 0.0
C541 C 0.21218 0.35032 0.03902 0.0
C542 C 0.20328 0.36454 0.98578 0.0
H543 H 0.22076 0.31112 0.08145 0.0
H544 H 0.219 0.36161 0.07975 0.0
C545 C 0.19529 0.34901 0.93343 0.0
C546 C 0.16539 0.70502 0.43767 0.0
C547 C 0.17981 0.71473 0.49003 0.0
H548 H 0.12594 0.69449 0.39789 0.0
C549 C 0.16476 0.72155 0.5436 0.0
H550 H 0.17645 0.69925 0.39594 0.0
C551 C 0.13579 0.71916 0.54442 0.0
C552 C 0.12132 0.70963 0.49192 0.0
H553 H 0.1753 0.72919 0.58462 0.0
H554 H 0.12471 0.72535 0.58581 0.0
C555 C 0.13645 0.70236 0.43871 0.0
C556 C 0.76739 0.66861 0.06596 0.0
C557 C 0.77596 0.68311 0.0129 0.0
H558 H 0.76143 0.62875 0.10851 0.0
C559 C 0.7875 0.66822 0.9632 0.0
H560 H 0.75842 0.67963 0.10489 0.0
C561 C 0.78968 0.6393 0.96566 0.0
C562 C 0.78002 0.62459 0.01751 0.0
H563 H 0.79479 0.67892 0.92216 0.0
H564 H 0.79874 0.62845 0.92661 0.0
C565 C 0.76925 0.63953 0.0681 0.0
C566 C 0.82185 0.27204 0.55529 0.0
C567 C 0.80535 0.28003 0.50457 0.0
H568 H 0.86296 0.26719 0.59177 0.0
C569 C 0.81832 0.29149 0.45216 0.0
H570 H 0.81251 0.2631 0.59633 0.0
C571 C 0.84726 0.29428 0.44998 0.0
C572 C 0.86384 0.28545 0.49994 0.0
H573 H 0.80614 0.2982 0.41263 0.0
H574 H 0.85667 0.30313 0.40894 0.0
C575 C 0.85079 0.2746 0.55288 0.0
C576 C 0.71017 0.16708 0.56099 0.0
C577 C 0.71955 0.18271 0.51015 0.0
H578 H 0.70142 0.1265 0.59733 0.0
C579 C 0.72836 0.16869 0.45657 0.0
H580 H 0.70308 0.1773 0.6028 0.0
C581 C 0.72771 0.13967 0.45374 0.0
C582 C 0.718 0.12402 0.50419 0.0
H583 H 0.73595 0.18012 0.41678 0.0
H584 H 0.73509 0.1295 0.41214 0.0
C585 C 0.7093 0.138 0.55795 0.0
C586 C 0.31623 0.2121 0.06358 0.0
C587 C 0.30213 0.2232 0.01217 0.0
H588 H 0.35569 0.20232 0.10459 0.0
C589 C 0.31768 0.23451 0.96321 0.0
H590 H 0.30481 0.20312 0.10191 0.0
C591 C 0.3467 0.23432 0.96506 0.0
C592 C 0.36086 0.2226 0.01565 0.0
H593 H 0.30746 0.24352 0.92322 0.0
H594 H 0.35805 0.24343 0.92679 0.0
C595 C 0.34535 0.21172 0.06521 0.0
C596 C 0.26451 0.82372 0.43619 0.0
C597 C 0.27226 0.80785 0.48802 0.0
H598 H 0.26015 0.86444 0.39711 0.0
C599 C 0.28287 0.82153 0.54054 0.0
H600 H 0.25614 0.81377 0.39516 0.0
C601 C 0.28563 0.85049 0.54128 0.0
C602 C 0.27756 0.86645 0.48979 0.0
H603 H 0.28936 0.80984 0.58096 0.0
H604 H 0.29434 0.86034 0.58207 0.0
C605 C 0.26698 0.85274 0.4372 0.0
C606 C 0.66658 0.78195 0.03875 0.0
C607 C 0.6813 0.77239 0.98678 0.0
H608 H 0.62685 0.79083 0.07852 0.0
C609 C 0.66644 0.76415 0.93382 0.0
H610 H 0.67748 0.78879 0.08001 0.0
C611 C 0.63735 0.76493 0.93333 0.0
C612 C 0.62261 0.77426 0.98555 0.0
H613 H 0.67723 0.75657 0.89318 0.0
H614 H 0.62642 0.7577 0.89248 0.0
C615 C 0.63756 0.783 0.03802 0.0
loop_
_geom_bond_atom_site_label_1
_geom_bond_atom_site_label_2
_geom_bond_distance
_geom_bond_site_symmetry_2
_ccdc_geom_bond_type
Sc0 O3 2.032 . S
Sc0 O10 2.105 . S
Sc0 O13 2.105 . S
Sc0 O16 2.105 . S
Sc0 O19 2.105 . S
Sc1 O3 2.025 . S
Sc1 O11 2.110 . S
Sc1 O15 2.100 1_554 S
Sc1 O17 2.110 . S
Sc1 O21 2.100 1_554 S
Sc2 O3 2.019 1_556 S
Sc2 O12 2.105 . S
Sc2 O14 2.105 . S
Sc2 O18 2.105 . S
Sc2 O20 2.105 . S
O3 Sc0 2.032 . S
O3 Sc1 2.025 . S
O3 Sc2 2.019 1_554 S
C4 O10 1.271 . S
C4 O20 1.266 1_554 S
C5 O11 1.268 . S
C5 O19 1.268 . S
C6 O12 1.268 . S
C6 O21 1.268 . S
C7 O13 1.268 . S
C7 O17 1.268 . S
C8 O14 1.257 1_554 S
C8 O16 1.279 . S
C9 O15 1.268 . S
C9 O18 1.268 . S
O10 Sc0 2.105 . S
O10 C4 1.271 . S
O11 Sc1 2.110 . S
O11 C5 1.268 . S
O12 Sc2 2.105 . S
O12 C6 1.268 . S
O13 Sc0 2.105 . S
O13 C7 1.268 . S
O14 Sc2 2.105 . S
O14 C8 1.257 1_556 S
O15 Sc1 2.100 1_556 S
O15 C9 1.268 . S
O16 Sc0 2.105 . S
O16 C8 1.279 . S
O17 Sc1 2.110 . S
O17 C7 1.268 . S
O18 Sc2 2.105 . S
O18 C9 1.268 . S
O19 Sc0 2.105 . S
O19 C5 1.268 . S
O20 Sc2 2.105 . S
O20 C4 1.266 1_556 S
O21 Sc1 2.100 1_556 S
O21 C6 1.268 . S
Sc22 O25 2.025 . S
Sc22 O32 2.105 . S
Sc22 O35 2.105 . S
Sc22 O38 2.105 . S
Sc22 O41 2.105 . S
Sc23 O25 2.025 . S
Sc23 O33 2.105 . S
Sc23 O37 2.105 . S
Sc23 O39 2.105 . S
Sc23 O43 2.105 . S
Sc24 O25 2.025 . S
Sc24 O34 2.105 . S
Sc24 O36 2.105 . S
Sc24 O40 2.105 . S
Sc24 O42 2.105 . S
O25 Sc22 2.025 . S
O25 Sc23 2.025 . S
O25 Sc24 2.025 . S
C26 O32 1.268 . S
C26 O42 1.268 . S
C27 O33 1.268 . S
C27 O41 1.268 . S
C28 O34 1.268 . S
C28 O43 1.268 . S
C29 O35 1.268 . S
C29 O39 1.268 . S
C30 O36 1.268 . S
C30 O38 1.268 . S
C31 O37 1.268 . S
C31 O40 1.268 . S
O32 Sc22 2.105 . S
O32 C26 1.268 . S
O33 Sc23 2.105 . S
O33 C27 1.268 . S
O34 Sc24 2.105 . S
O34 C28 1.268 . S
O35 Sc22 2.105 . S
O35 C29 1.268 . S
O36 Sc24 2.105 . S
O36 C30 1.268 . S
O37 Sc23 2.105 . S
O37 C31 1.268 . S
O38 Sc22 2.105 . S
O38 C30 1.268 . S
O39 Sc23 2.105 . S
O39 C29 1.268 . S
O40 Sc24 2.105 . S
O40 C31 1.268 . S
O41 Sc22 2.105 . S
O41 C27 1.268 . S
O42 Sc24 2.105 . S
O42 C26 1.268 . S
O43 Sc23 2.105 . S
O43 C28 1.268 . S
Sc44 O47 2.019 1_556 S
Sc44 O54 2.105 . S
Sc44 O57 2.105 . S
Sc44 O60 2.105 . S
Sc44 O63 2.105 . S
Sc45 O47 2.025 . S
Sc45 O55 2.100 1_554 S
Sc45 O59 2.110 . S
Sc45 O61 2.100 1_554 S
Sc45 O65 2.110 . S
Sc46 O47 2.032 . S
Sc46 O56 2.105 . S
Sc46 O58 2.105 . S
Sc46 O62 2.105 . S
Sc46 O64 2.105 . S
O47 Sc44 2.019 1_554 S
O47 Sc45 2.025 . S
O47 Sc46 2.032 . S
C48 O54 1.266 1_554 S
C48 O64 1.271 . S
C49 O55 1.268 . S
C49 O63 1.268 . S
C50 O56 1.268 . S
C50 O65 1.268 . S
C51 O57 1.268 . S
C51 O61 1.268 . S
C52 O58 1.279 . S
C52 O60 1.257 1_554 S
C53 O59 1.268 . S
C53 O62 1.268 . S
O54 Sc44 2.105 . S
O54 C48 1.266 1_556 S
O55 Sc45 2.100 1_556 S
O55 C49 1.268 . S
O56 Sc46 2.105 . S
O56 C50 1.268 . S
O57 Sc44 2.105 . S
O57 C51 1.268 . S
O58 Sc46 2.105 . S
O58 C52 1.279 . S
O59 Sc45 2.110 . S
O59 C53 1.268 . S
O60 Sc44 2.105 . S
O60 C52 1.257 1_556 S
O61 Sc45 2.100 1_556 S
O61 C51 1.268 . S
O62 Sc46 2.105 . S
O62 C53 1.268 . S
O63 Sc44 2.105 . S
O63 C49 1.268 . S
O64 Sc46 2.105 . S
O64 C48 1.271 . S
O65 Sc45 2.110 . S
O65 C50 1.268 . S
Sc66 O69 2.025 . S
Sc66 O76 2.105 . S
Sc66 O79 2.105 . S
Sc66 O82 2.105 . S
Sc66 O85 2.105 . S
Sc67 O69 2.025 . S
Sc67 O77 2.105 . S
Sc67 O81 2.105 . S
Sc67 O83 2.105 . S
Sc67 O87 2.105 . S
Sc68 O69 2.025 . S
Sc68 O78 2.105 . S
Sc68 O80 2.105 . S
Sc68 O84 2.105 . S
Sc68 O86 2.105 . S
O69 Sc66 2.025 . S
O69 Sc67 2.025 . S
O69 Sc68 2.025 . S
C70 O76 1.268 . S
C70 O86 1.268 . S
C71 O77 1.268 . S
C71 O85 1.268 . S
C72 O78 1.268 . S
C72 O87 1.268 . S
C73 O79 1.268 . S
C73 O83 1.268 . S
C74 O80 1.268 . S
C74 O82 1.268 . S
C75 O81 1.268 . S
C75 O84 1.268 . S
O76 Sc66 2.105 . S
O76 C70 1.268 . S
O77 Sc67 2.105 . S
O77 C71 1.268 . S
O78 Sc68 2.105 . S
O78 C72 1.268 . S
O79 Sc66 2.105 . S
O79 C73 1.268 . S
O80 Sc68 2.105 . S
O80 C74 1.268 . S
O81 Sc67 2.105 . S
O81 C75 1.268 . S
O82 Sc66 2.105 . S
O82 C74 1.268 . S
O83 Sc67 2.105 . S
O83 C73 1.268 . S
O84 Sc68 2.105 . S
O84 C75 1.268 . S
O85 Sc66 2.105 . S
O85 C71 1.268 . S
O86 Sc68 2.105 . S
O86 C70 1.268 . S
O87 Sc67 2.105 . S
O87 C72 1.268 . S
C88 C89 1.384 . S
C88 H101 0.947 . S
C88 C123 1.382 . S
C89 C88 1.384 . S
C89 C90 1.378 . S
C90 C89 1.378 . S
C90 C91 1.378 . S
C90 H102 0.952 . S
C91 C90 1.378 . S
C91 H103 0.950 . S
C91 C122 1.383 . S
H92 C111 0.947 . S
H93 C112 0.946 . S
H94 C114 0.953 . S
H95 C115 0.945 . S
H96 C117 0.952 . S
H97 C118 0.949 . S
H98 C120 0.950 . S
H99 C121 0.948 . S
H100 C123 0.951 . S
H101 C88 0.947 . S
H102 C90 0.952 . S
H103 C91 0.950 . S
N104 C107 1.382 1_554 S
N104 C109 1.363 . S
N105 C107 1.371 . S
N105 C108 1.372 . S
N106 C108 1.361 . S
N106 C109 1.377 1_556 S
C107 N104 1.382 1_556 S
C107 N105 1.371 . S
C107 C110 1.480 . S
C108 N105 1.372 . S
C108 N106 1.361 . S
C108 C116 1.457 . S
C109 N104 1.363 . S
C109 N106 1.377 1_554 S
C109 C122 1.479 . S
C110 C107 1.480 . S
C110 C111 1.383 1_556 S
C110 C115 1.385 . S
C111 H92 0.947 . S
C111 C110 1.383 1_554 S
C111 C112 1.388 . S
C112 H93 0.946 . S
C112 C111 1.388 . S
C112 C113 1.384 1_554 S
C113 C112 1.384 1_556 S
C113 C114 1.377 . S
C114 H94 0.953 . S
C114 C113 1.377 . S
C114 C115 1.369 . S
C115 H95 0.945 . S
C115 C110 1.385 . S
C115 C114 1.369 . S
C116 C108 1.457 . S
C116 C117 1.372 . S
C116 C121 1.364 . S
C117 H96 0.952 . S
C117 C116 1.372 . S
C117 C118 1.389 . S
C118 H97 0.949 . S
C118 C117 1.389 . S
C118 C119 1.387 . S
C119 C118 1.387 . S
C119 C120 1.372 . S
C120 H98 0.950 . S
C120 C119 1.372 . S
C120 C121 1.379 . S
C121 H99 0.948 . S
C121 C116 1.364 . S
C121 C120 1.379 . S
C122 C91 1.383 . S
C122 C109 1.479 . S
C122 C123 1.398 . S
C123 C88 1.382 . S
C123 H100 0.951 . S
C123 C122 1.398 . S
C124 C125 1.384 . S
C124 H137 0.947 . S
C124 C159 1.382 . S
C125 C124 1.384 . S
C125 C126 1.378 . S
C126 C125 1.378 . S
C126 C127 1.378 . S
C126 H138 0.952 . S
C127 C126 1.378 . S
C127 H139 0.950 . S
C127 C158 1.383 . S
H128 C147 0.947 . S
H129 C148 0.946 . S
H130 C150 0.953 . S
H131 C151 0.945 . S
H132 C153 0.952 . S
H133 C154 0.949 . S
H134 C156 0.950 . S
H135 C157 0.948 . S
H136 C159 0.951 . S
H137 C124 0.947 . S
H138 C126 0.952 . S
H139 C127 0.950 . S
N140 C143 1.382 1_655 S
N140 C145 1.363 . S
N141 C143 1.371 1_655 S
N141 C144 1.372 . S
N142 C144 1.361 . S
N142 C145 1.377 . S
C143 N140 1.382 1_455 S
C143 N141 1.371 1_455 S
C143 C146 1.480 . S
C144 N141 1.372 . S
C144 N142 1.361 . S
C144 C152 1.457 . S
C145 N140 1.363 . S
C145 N142 1.377 . S
C145 C158 1.479 . S
C146 C143 1.480 . S
C146 C147 1.383 . S
C146 C151 1.385 . S
C147 H128 0.947 . S
C147 C146 1.383 . S
C147 C148 1.388 . S
C148 H129 0.946 . S
C148 C147 1.388 . S
C148 C149 1.384 . S
C149 C148 1.384 . S
C149 C150 1.377 . S
C150 H130 0.953 . S
C150 C149 1.377 . S
C150 C151 1.369 . S
C151 H131 0.945 . S
C151 C146 1.385 . S
C151 C150 1.369 . S
C152 C144 1.457 . S
C152 C153 1.372 . S
C152 C157 1.364 . S
C153 H132 0.952 . S
C153 C152 1.372 . S
C153 C154 1.389 . S
C154 H133 0.949 . S
C154 C153 1.389 . S
C154 C155 1.387 . S
C155 C154 1.387 . S
C155 C156 1.372 . S
C156 H134 0.950 . S
C156 C155 1.372 . S
C156 C157 1.379 . S
C157 H135 0.948 . S
C157 C152 1.364 . S
C157 C156 1.379 . S
C158 C127 1.383 . S
C158 C145 1.479 . S
C158 C159 1.398 . S
C159 C124 1.382 . S
C159 H136 0.951 . S
C159 C158 1.398 . S
C160 C161 1.384 . S
C160 H173 0.947 . S
C160 C195 1.382 . S
C161 C160 1.384 . S
C161 C162 1.378 . S
C162 C161 1.378 . S
C162 C163 1.378 . S
C162 H174 0.952 . S
C163 C162 1.378 . S
C163 H175 0.950 . S
C163 C194 1.383 . S
H164 C183 0.947 . S
H165 C184 0.946 . S
H166 C186 0.953 . S
H167 C187 0.945 . S
H168 C189 0.952 . S
H169 C190 0.949 . S
H170 C192 0.950 . S
H171 C193 0.948 . S
H172 C195 0.951 . S
H173 C160 0.947 . S
H174 C162 0.952 . S
H175 C163 0.950 . S
N176 C179 1.382 1_556 S
N176 C181 1.363 . S
N177 C179 1.371 . S
N177 C180 1.372 . S
N178 C180 1.361 . S
N178 C181 1.377 1_554 S
C179 N176 1.382 1_554 S
C179 N177 1.371 . S
C179 C182 1.480 . S
C180 N177 1.372 . S
C180 N178 1.361 . S
C180 C188 1.457 . S
C181 N176 1.363 . S
C181 N178 1.377 1_556 S
C181 C194 1.479 . S
C182 C179 1.480 . S
C182 C183 1.383 1_554 S
C182 C187 1.385 . S
C183 H164 0.947 . S
C183 C182 1.383 1_556 S
C183 C184 1.388 . S
C184 H165 0.946 . S
C184 C183 1.388 . S
C184 C185 1.384 1_556 S
C185 C184 1.384 1_554 S
C185 C186 1.377 . S
C186 H166 0.953 . S
C186 C185 1.377 . S
C186 C187 1.369 . S
C187 H167 0.945 . S
C187 C182 1.385 . S
C187 C186 1.369 . S
C188 C180 1.457 . S
C188 C189 1.372 . S
C188 C193 1.364 . S
C189 H168 0.952 . S
C189 C188 1.372 . S
C189 C190 1.389 . S
C190 H169 0.949 . S
C190 C189 1.389 . S
C190 C191 1.387 . S
C191 C190 1.387 . S
C191 C192 1.372 . S
C192 H170 0.950 . S
C192 C191 1.372 . S
C192 C193 1.379 . S
C193 H171 0.948 . S
C193 C188 1.364 . S
C193 C192 1.379 . S
C194 C163 1.383 . S
C194 C181 1.479 . S
C194 C195 1.398 . S
C195 C160 1.382 . S
C195 H172 0.951 . S
C195 C194 1.398 . S
C196 C197 1.384 . S
C196 H209 0.947 . S
C196 C231 1.382 . S
C197 C196 1.384 . S
C197 C198 1.378 . S
C198 C197 1.378 . S
C198 C199 1.378 . S
C198 H210 0.952 . S
C199 C198 1.378 . S
C199 H211 0.950 . S
C199 C230 1.383 . S
H200 C219 0.947 . S
H201 C220 0.946 . S
H202 C222 0.953 . S
H203 C223 0.945 . S
H204 C225 0.952 . S
H205 C226 0.949 . S
H206 C228 0.950 . S
H207 C229 0.948 . S
H208 C231 0.951 . S
H209 C196 0.947 . S
H210 C198 0.952 . S
H211 C199 0.950 . S
N212 C215 1.382 1_455 S
N212 C217 1.363 . S
N213 C215 1.371 1_455 S
N213 C216 1.372 . S
N214 C216 1.361 . S
N214 C217 1.377 . S
C215 N212 1.382 1_655 S
C215 N213 1.371 1_655 S
C215 C218 1.480 . S
C216 N213 1.372 . S
C216 N214 1.361 . S
C216 C224 1.457 . S
C217 N212 1.363 . S
C217 N214 1.377 . S
C217 C230 1.479 . S
C218 C215 1.480 . S
C218 C219 1.383 . S
C218 C223 1.385 . S
C219 H200 0.947 . S
C219 C218 1.383 . S
C219 C220 1.388 . S
C220 H201 0.946 . S
C220 C219 1.388 . S
C220 C221 1.384 . S
C221 C220 1.384 . S
C221 C222 1.377 . S
C222 H202 0.953 . S
C222 C221 1.377 . S
C222 C223 1.369 . S
C223 H203 0.945 . S
C223 C218 1.385 . S
C223 C222 1.369 . S
C224 C216 1.457 . S
C224 C225 1.372 . S
C224 C229 1.364 . S
C225 H204 0.952 . S
C225 C224 1.372 . S
C225 C226 1.389 . S
C226 H205 0.949 . S
C226 C225 1.389 . S
C226 C227 1.387 . S
C227 C226 1.387 . S
C227 C228 1.372 . S
C228 H206 0.950 . S
C228 C227 1.372 . S
C228 C229 1.379 . S
C229 H207 0.948 . S
C229 C224 1.364 . S
C229 C228 1.379 . S
C230 C199 1.383 . S
C230 C217 1.479 . S
C230 C231 1.398 . S
C231 C196 1.382 . S
C231 H208 0.951 . S
C231 C230 1.398 . S
C232 C233 1.384 . S
C232 H245 0.947 . S
C232 C267 1.382 . S
C233 C232 1.384 . S
C233 C234 1.378 . S
C234 C233 1.378 . S
C234 C235 1.378 . S
C234 H246 0.952 . S
C235 C234 1.378 . S
C235 H247 0.950 . S
C235 C266 1.383 . S
H236 C255 0.947 . S
H237 C256 0.946 . S
H238 C258 0.953 . S
H239 C259 0.945 . S
H240 C261 0.952 . S
H241 C262 0.949 . S
H242 C264 0.950 . S
H243 C265 0.948 . S
H244 C267 0.951 . S
H245 C232 0.947 . S
H246 C234 0.952 . S
H247 C235 0.950 . S
N248 C251 1.382 1_565 S
N248 C253 1.363 . S
N249 C251 1.371 1_565 S
N249 C252 1.372 . S
N250 C252 1.361 . S
N250 C253 1.377 . S
C251 N248 1.382 1_545 S
C251 N249 1.371 1_545 S
C251 C254 1.480 . S
C252 N249 1.372 . S
C252 N250 1.361 . S
C252 C260 1.457 . S
C253 N248 1.363 . S
C253 N250 1.377 . S
C253 C266 1.479 . S
C254 C251 1.480 . S
C254 C255 1.383 . S
C254 C259 1.385 . S
C255 H236 0.947 . S
C255 C254 1.383 . S
C255 C256 1.388 . S
C256 H237 0.946 . S
C256 C255 1.388 . S
C256 C257 1.384 . S
C257 C256 1.384 . S
C257 C258 1.377 . S
C258 H238 0.953 . S
C258 C257 1.377 . S
C258 C259 1.369 . S
C259 H239 0.945 . S
C259 C254 1.385 . S
C259 C258 1.369 . S
C260 C252 1.457 . S
C260 C261 1.372 . S
C260 C265 1.364 . S
C261 H240 0.952 . S
C261 C260 1.372 . S
C261 C262 1.389 . S
C262 H241 0.949 . S
C262 C261 1.389 . S
C262 C263 1.387 . S
C263 C262 1.387 . S
C263 C264 1.372 . S
C264 H242 0.950 . S
C264 C263 1.372 . S
C264 C265 1.379 . S
C265 H243 0.948 . S
C265 C260 1.364 . S
C265 C264 1.379 . S
C266 C235 1.383 . S
C266 C253 1.479 . S
C266 C267 1.398 . S
C267 C232 1.382 . S
C267 H244 0.951 . S
C267 C266 1.398 . S
C268 C269 1.384 . S
C268 H281 0.947 . S
C268 C303 1.382 . S
C269 C268 1.384 . S
C269 C270 1.378 . S
C270 C269 1.378 . S
C270 C271 1.378 . S
C270 H282 0.952 . S
C271 C270 1.378 . S
C271 H283 0.950 . S
C271 C302 1.383 . S
H272 C291 0.947 . S
H273 C292 0.946 . S
H274 C294 0.953 . S
H275 C295 0.945 . S
H276 C297 0.952 . S
H277 C298 0.949 . S
H278 C300 0.950 . S
H279 C301 0.948 . S
H280 C303 0.951 . S
H281 C268 0.947 . S
H282 C270 0.952 . S
H283 C271 0.950 . S
N284 C287 1.382 1_556 S
N284 C289 1.363 . S
N285 C287 1.371 . S
N285 C288 1.372 . S
N286 C288 1.361 . S
N286 C289 1.377 1_554 S
C287 N284 1.382 1_554 S
C287 N285 1.371 . S
C287 C290 1.480 . S
C288 N285 1.372 . S
C288 N286 1.361 . S
C288 C296 1.457 . S
C289 N284 1.363 . S
C289 N286 1.377 1_556 S
C289 C302 1.479 . S
C290 C287 1.480 . S
C290 C291 1.383 1_554 S
C290 C295 1.385 . S
C291 H272 0.947 . S
C291 C290 1.383 1_556 S
C291 C292 1.388 . S
C292 H273 0.946 . S
C292 C291 1.388 . S
C292 C293 1.384 1_556 S
C293 C292 1.384 1_554 S
C293 C294 1.377 . S
C294 H274 0.953 . S
C294 C293 1.377 . S
C294 C295 1.369 . S
C295 H275 0.945 . S
C295 C290 1.385 . S
C295 C294 1.369 . S
C296 C288 1.457 . S
C296 C297 1.372 . S
C296 C301 1.364 . S
C297 H276 0.952 . S
C297 C296 1.372 . S
C297 C298 1.389 . S
C298 H277 0.949 . S
C298 C297 1.389 . S
C298 C299 1.387 . S
C299 C298 1.387 . S
C299 C300 1.372 . S
C300 H278 0.950 . S
C300 C299 1.372 . S
C300 C301 1.379 . S
C301 H279 0.948 . S
C301 C296 1.364 . S
C301 C300 1.379 . S
C302 C271 1.383 . S
C302 C289 1.479 . S
C302 C303 1.398 . S
C303 C268 1.382 . S
C303 H280 0.951 . S
C303 C302 1.398 . S
C304 C305 1.384 . S
C304 H317 0.947 . S
C304 C339 1.382 . S
C305 C304 1.384 . S
C305 C306 1.378 . S
C306 C305 1.378 . S
C306 C307 1.378 . S
C306 H318 0.952 . S
C307 C306 1.378 . S
C307 H319 0.950 . S
C307 C338 1.383 . S
H308 C327 0.947 . S
H309 C328 0.946 . S
H310 C330 0.953 . S
H311 C331 0.945 . S
H312 C333 0.952 . S
H313 C334 0.949 . S
H314 C336 0.950 . S
H315 C337 0.948 . S
H316 C339 0.951 . S
H317 C304 0.947 . S
H318 C306 0.952 . S
H319 C307 0.950 . S
N320 C323 1.382 1_545 S
N320 C325 1.363 . S
N321 C323 1.371 1_545 S
N321 C324 1.372 . S
N322 C324 1.361 . S
N322 C325 1.377 . S
C323 N320 1.382 1_565 S
C323 N321 1.371 1_565 S
C323 C326 1.480 . S
C324 N321 1.372 . S
C324 N322 1.361 . S
C324 C332 1.457 . S
C325 N320 1.363 . S
C325 N322 1.377 . S
C325 C338 1.479 . S
C326 C323 1.480 . S
C326 C327 1.383 . S
C326 C331 1.385 . S
C327 H308 0.947 . S
C327 C326 1.383 . S
C327 C328 1.388 . S
C328 H309 0.946 . S
C328 C327 1.388 . S
C328 C329 1.384 . S
C329 C328 1.384 . S
C329 C330 1.377 . S
C330 H310 0.953 . S
C330 C329 1.377 . S
C330 C331 1.369 . S
C331 H311 0.945 . S
C331 C326 1.385 . S
C331 C330 1.369 . S
C332 C324 1.457 . S
C332 C333 1.372 . S
C332 C337 1.364 . S
C333 H312 0.952 . S
C333 C332 1.372 . S
C333 C334 1.389 . S
C334 H313 0.949 . S
C334 C333 1.389 . S
C334 C335 1.387 . S
C335 C334 1.387 . S
C335 C336 1.372 . S
C336 H314 0.950 . S
C336 C335 1.372 . S
C336 C337 1.379 . S
C337 H315 0.948 . S
C337 C332 1.364 . S
C337 C336 1.379 . S
C338 C307 1.383 . S
C338 C325 1.479 . S
C338 C339 1.398 . S
C339 C304 1.382 . S
C339 H316 0.951 . S
C339 C338 1.398 . S
C340 C341 1.384 . S
C340 H353 0.947 . S
C340 C375 1.382 . S
C341 C340 1.384 . S
C341 C342 1.378 . S
C342 C341 1.378 . S
C342 C343 1.378 . S
C342 H354 0.952 . S
C343 C342 1.378 . S
C343 H355 0.950 . S
C343 C374 1.383 . S
H344 C363 0.947 . S
H345 C364 0.946 . S
H346 C366 0.953 . S
H347 C367 0.945 . S
H348 C369 0.952 . S
H349 C370 0.949 . S
H350 C372 0.950 . S
H351 C373 0.948 . S
H352 C375 0.951 . S
H353 C340 0.947 . S
H354 C342 0.952 . S
H355 C343 0.950 . S
N356 C359 1.382 1_554 S
N356 C361 1.363 . S
N357 C359 1.371 . S
N357 C360 1.372 . S
N358 C360 1.361 . S
N358 C361 1.377 1_556 S
C359 N356 1.382 1_556 S
C359 N357 1.371 . S
C359 C362 1.480 . S
C360 N357 1.372 . S
C360 N358 1.361 . S
C360 C368 1.457 . S
C361 N356 1.363 . S
C361 N358 1.377 1_554 S
C361 C374 1.479 . S
C362 C359 1.480 . S
C362 C363 1.383 1_556 S
C362 C367 1.385 . S
C363 H344 0.947 . S
C363 C362 1.383 1_554 S
C363 C364 1.388 . S
C364 H345 0.946 . S
C364 C363 1.388 . S
C364 C365 1.384 1_554 S
C365 C364 1.384 1_556 S
C365 C366 1.377 . S
C366 H346 0.953 . S
C366 C365 1.377 . S
C366 C367 1.369 . S
C367 H347 0.945 . S
C367 C362 1.385 . S
C367 C366 1.369 . S
C368 C360 1.457 . S
C368 C369 1.372 . S
C368 C373 1.364 . S
C369 H348 0.952 . S
C369 C368 1.372 . S
C369 C370 1.389 . S
C370 H349 0.949 . S
C370 C369 1.389 . S
C370 C371 1.387 . S
C371 C370 1.387 . S
C371 C372 1.372 . S
C372 H350 0.950 . S
C372 C371 1.372 . S
C372 C373 1.379 . S
C373 H351 0.948 . S
C373 C368 1.364 . S
C373 C372 1.379 . S
C374 C343 1.383 . S
C374 C361 1.479 . S
C374 C375 1.398 . S
C375 C340 1.382 . S
C375 H352 0.951 . S
C375 C374 1.398 . S
C376 C377 1.387 . S
C376 H380 0.950 . S
C376 C385 1.390 . S
C377 C376 1.387 . S
C377 C379 1.387 . S
H378 C385 0.950 . S
C379 C377 1.387 . S
C379 C381 1.390 . S
C379 H383 0.950 . S
H380 C376 0.950 . S
C381 C379 1.390 . S
C381 C382 1.387 . S
C381 H384 0.950 . S
C382 C381 1.387 . S
C382 C385 1.387 . S
H383 C379 0.950 . S
H384 C381 0.950 . S
C385 C376 1.390 . S
C385 H378 0.950 . S
C385 C382 1.387 . S
C386 C387 1.387 . S
C386 H390 0.950 . S
C386 C395 1.390 . S
C387 C386 1.387 . S
C387 C389 1.387 . S
H388 C395 0.950 . S
C389 C387 1.387 . S
C389 C391 1.390 . S
C389 H393 0.950 . S
H390 C386 0.950 . S
C391 C389 1.390 . S
C391 C392 1.387 . S
C391 H394 0.950 . S
C392 C391 1.387 . S
C392 C395 1.387 . S
H393 C389 0.950 . S
H394 C391 0.950 . S
C395 C386 1.390 . S
C395 H388 0.950 . S
C395 C392 1.387 . S
C396 C397 1.387 . S
C396 H400 0.950 . S
C396 C405 1.390 . S
C397 C396 1.387 . S
C397 C399 1.387 . S
H398 C405 0.950 . S
C399 C397 1.387 . S
C399 C401 1.390 . S
C399 H403 0.950 . S
H400 C396 0.950 . S
C401 C399 1.390 . S
C401 C402 1.387 . S
C401 H404 0.950 . S
C402 C401 1.387 . S
C402 C405 1.387 . S
H403 C399 0.950 . S
H404 C401 0.950 . S
C405 C396 1.390 . S
C405 H398 0.950 . S
C405 C402 1.387 . S
C406 C407 1.387 . S
C406 H410 0.950 . S
C406 C415 1.390 . S
C407 C406 1.387 . S
C407 C409 1.387 . S
H408 C415 0.950 . S
C409 C407 1.387 . S
C409 C411 1.390 . S
C409 H413 0.950 . S
H410 C406 0.950 . S
C411 C409 1.390 . S
C411 C412 1.387 . S
C411 H414 0.950 . S
C412 C411 1.387 . S
C412 C415 1.387 . S
H413 C409 0.950 . S
H414 C411 0.950 . S
C415 C406 1.390 . S
C415 H408 0.950 . S
C415 C412 1.387 . S
C416 C417 1.387 . S
C416 H420 0.950 . S
C416 C425 1.390 . S
C417 C416 1.387 . S
C417 C419 1.387 . S
H418 C425 0.950 . S
C419 C417 1.387 . S
C419 C421 1.390 . S
C419 H423 0.950 . S
H420 C416 0.950 . S
C421 C419 1.390 . S
C421 C422 1.387 . S
C421 H424 0.950 . S
C422 C421 1.387 . S
C422 C425 1.387 . S
H423 C419 0.950 . S
H424 C421 0.950 . S
C425 C416 1.390 . S
C425 H418 0.950 . S
C425 C422 1.387 . S
C426 C427 1.387 . S
C426 H430 0.950 . S
C426 C435 1.390 . S
C427 C426 1.387 . S
C427 C429 1.387 . S
H428 C435 0.950 . S
C429 C427 1.387 . S
C429 C431 1.390 . S
C429 H433 0.950 . S
H430 C426 0.950 . S
C431 C429 1.390 . S
C431 C432 1.387 . S
C431 H434 0.950 . S
C432 C431 1.387 . S
C432 C435 1.387 . S
H433 C429 0.950 . S
H434 C431 0.950 . S
C435 C426 1.390 . S
C435 H428 0.950 . S
C435 C432 1.387 . S
C436 C437 1.387 . S
C436 H440 0.950 . S
C436 C445 1.390 . S
C437 C436 1.387 . S
C437 C439 1.387 . S
H438 C445 0.950 . S
C439 C437 1.387 . S
C439 C441 1.390 . S
C439 H443 0.950 . S
H440 C436 0.950 . S
C441 C439 1.390 . S
C441 C442 1.387 . S
C441 H444 0.950 . S
C442 C441 1.387 . S
C442 C445 1.387 . S
H443 C439 0.950 . S
H444 C441 0.950 . S
C445 C436 1.390 . S
C445 H438 0.950 . S
C445 C442 1.387 . S
C446 C447 1.387 . S
C446 H450 0.950 . S
C446 C455 1.390 . S
C447 C446 1.387 . S
C447 C449 1.387 . S
H448 C455 0.950 . S
C449 C447 1.387 . S
C449 C451 1.390 . S
C449 H453 0.950 . S
H450 C446 0.950 . S
C451 C449 1.390 . S
C451 C452 1.387 . S
C451 H454 0.950 . S
C452 C451 1.387 . S
C452 C455 1.387 . S
H453 C449 0.950 . S
H454 C451 0.950 . S
C455 C446 1.390 . S
C455 H448 0.950 . S
C455 C452 1.387 . S
C456 C457 1.387 . S
C456 H460 0.950 . S
C456 C465 1.390 . S
C457 C456 1.387 . S
C457 C459 1.387 . S
H458 C465 0.950 . S
C459 C457 1.387 . S
C459 C461 1.390 . S
C459 H463 0.950 . S
H460 C456 0.950 . S
C461 C459 1.390 . S
C461 C462 1.387 . S
C461 H464 0.950 . S
C462 C461 1.387 . S
C462 C465 1.387 . S
H463 C459 0.950 . S
H464 C461 0.950 . S
C465 C456 1.390 . S
C465 H458 0.950 . S
C465 C462 1.387 . S
C466 C467 1.387 . S
C466 H470 0.950 . S
C466 C475 1.390 . S
C467 C466 1.387 . S
C467 C469 1.387 . S
H468 C475 0.950 . S
C469 C467 1.387 . S
C469 C471 1.390 . S
C469 H473 0.950 . S
H470 C466 0.950 . S
C471 C469 1.390 . S
C471 C472 1.387 . S
C471 H474 0.950 . S
C472 C471 1.387 . S
C472 C475 1.387 . S
H473 C469 0.950 . S
H474 C471 0.950 . S
C475 C466 1.390 . S
C475 H468 0.950 . S
C475 C472 1.387 . S
C476 C477 1.387 . S
C476 H480 0.950 . S
C476 C485 1.390 . S
C477 C476 1.387 . S
C477 C479 1.387 . S
H478 C485 0.950 . S
C479 C477 1.387 . S
C479 C481 1.390 . S
C479 H483 0.950 . S
H480 C476 0.950 . S
C481 C479 1.390 . S
C481 C482 1.387 . S
C481 H484 0.950 . S
C482 C481 1.387 . S
C482 C485 1.387 . S
H483 C479 0.950 . S
H484 C481 0.950 . S
C485 C476 1.390 . S
C485 H478 0.950 . S
C485 C482 1.387 . S
C486 C487 1.387 . S
C486 H490 0.950 . S
C486 C495 1.390 . S
C487 C486 1.387 . S
C487 C489 1.387 . S
H488 C495 0.950 . S
C489 C487 1.387 . S
C489 C491 1.390 . S
C489 H493 0.950 . S
H490 C486 0.950 . S
C491 C489 1.390 . S
C491 C492 1.387 . S
C491 H494 0.950 . S
C492 C491 1.387 . S
C492 C495 1.387 . S
H493 C489 0.950 . S
H494 C491 0.950 . S
C495 C486 1.390 . S
C495 H488 0.950 . S
C495 C492 1.387 . S
C496 C497 1.387 . S
C496 H500 0.950 . S
C496 C505 1.390 . S
C497 C496 1.387 . S
C497 C499 1.387 . S
H498 C505 0.950 . S
C499 C497 1.387 . S
C499 C501 1.390 . S
C499 H503 0.950 . S
H500 C496 0.950 . S
C501 C499 1.390 . S
C501 C502 1.387 . S
C501 H504 0.950 . S
C502 C501 1.387 . S
C502 C505 1.387 . S
H503 C499 0.950 . S
H504 C501 0.950 . S
C505 C496 1.390 . S
C505 H498 0.950 . S
C505 C502 1.387 . S
C506 C507 1.387 . S
C506 H510 0.950 . S
C506 C515 1.390 . S
C507 C506 1.387 . S
C507 C509 1.387 . S
H508 C515 0.950 . S
C509 C507 1.387 . S
C509 C511 1.390 . S
C509 H513 0.950 . S
H510 C506 0.950 . S
C511 C509 1.390 . S
C511 C512 1.387 . S
C511 H514 0.950 . S
C512 C511 1.387 . S
C512 C515 1.387 . S
H513 C509 0.950 . S
H514 C511 0.950 . S
C515 C506 1.390 . S
C515 H508 0.950 . S
C515 C512 1.387 . S
C516 C517 1.387 . S
C516 H520 0.950 . S
C516 C525 1.390 . S
C517 C516 1.387 . S
C517 C519 1.387 . S
H518 C525 0.950 . S
C519 C517 1.387 . S
C519 C521 1.390 . S
C519 H523 0.950 . S
H520 C516 0.950 . S
C521 C519 1.390 . S
C521 C522 1.387 . S
C521 H524 0.950 . S
C522 C521 1.387 . S
C522 C525 1.387 . S
H523 C519 0.950 . S
H524 C521 0.950 . S
C525 C516 1.390 . S
C525 H518 0.950 . S
C525 C522 1.387 . S
C526 C527 1.387 . S
C526 H530 0.950 . S
C526 C535 1.390 . S
C527 C526 1.387 . S
C527 C529 1.387 . S
H528 C535 0.950 . S
C529 C527 1.387 . S
C529 C531 1.390 . S
C529 H533 0.950 . S
H530 C526 0.950 . S
C531 C529 1.390 . S
C531 C532 1.387 . S
C531 H534 0.950 . S
C532 C531 1.387 . S
C532 C535 1.387 . S
H533 C529 0.950 . S
H534 C531 0.950 . S
C535 C526 1.390 . S
C535 H528 0.950 . S
C535 C532 1.387 . S
C536 C537 1.388 1_556 S
C536 H540 0.950 . S
C536 C545 1.390 . S
C537 C536 1.388 1_554 S
C537 C539 1.387 . S
H538 C545 0.950 . S
C539 C537 1.387 . S
C539 C541 1.390 . S
C539 H543 0.950 . S
H540 C536 0.950 . S
C541 C539 1.390 . S
C541 C542 1.385 1_554 S
C541 H544 0.950 . S
C542 C541 1.385 1_556 S
C542 C545 1.390 . S
H543 C539 0.950 . S
H544 C541 0.950 . S
C545 C536 1.390 . S
C545 H538 0.950 . S
C545 C542 1.390 . S
C546 C547 1.387 . S
C546 H550 0.950 . S
C546 C555 1.390 . S
C547 C546 1.387 . S
C547 C549 1.387 . S
H548 C555 0.950 . S
C549 C547 1.387 . S
C549 C551 1.390 . S
C549 H553 0.950 . S
H550 C546 0.950 . S
C551 C549 1.390 . S
C551 C552 1.387 . S
C551 H554 0.950 . S
C552 C551 1.387 . S
C552 C555 1.387 . S
H553 C549 0.950 . S
H554 C551 0.950 . S
C555 C546 1.390 . S
C555 H548 0.950 . S
C555 C552 1.387 . S
C556 C557 1.401 . S
C556 H560 0.950 . S
C556 C565 1.390 . S
C557 C556 1.401 . S
C557 C559 1.374 1_554 S
H558 C565 0.950 . S
C559 C557 1.374 1_556 S
C559 C561 1.390 . S
C559 H563 0.950 . S
H560 C556 0.950 . S
C561 C559 1.390 . S
C561 C562 1.387 1_556 S
C561 H564 0.950 . S
C562 C561 1.387 1_554 S
C562 C565 1.387 . S
H563 C559 0.950 . S
H564 C561 0.950 . S
C565 C556 1.390 . S
C565 H558 0.950 . S
C565 C562 1.387 . S
C566 C567 1.387 . S
C566 H570 0.950 . S
C566 C575 1.390 . S
C567 C566 1.387 . S
C567 C569 1.387 . S
H568 C575 0.950 . S
C569 C567 1.387 . S
C569 C571 1.390 . S
C569 H573 0.950 . S
H570 C566 0.950 . S
C571 C569 1.390 . S
C571 C572 1.387 . S
C571 H574 0.950 . S
C572 C571 1.387 . S
C572 C575 1.387 . S
H573 C569 0.950 . S
H574 C571 0.950 . S
C575 C566 1.390 . S
C575 H568 0.950 . S
C575 C572 1.387 . S
C576 C577 1.387 . S
C576 H580 0.950 . S
C576 C585 1.390 . S
C577 C576 1.387 . S
C577 C579 1.387 . S
H578 C585 0.950 . S
C579 C577 1.387 . S
C579 C581 1.390 . S
C579 H583 0.950 . S
H580 C576 0.950 . S
C581 C579 1.390 . S
C581 C582 1.387 . S
C581 H584 0.950 . S
C582 C581 1.387 . S
C582 C585 1.387 . S
H583 C579 0.950 . S
H584 C581 0.950 . S
C585 C576 1.390 . S
C585 H578 0.950 . S
C585 C582 1.387 . S
C586 C587 1.401 . S
C586 H590 0.950 . S
C586 C595 1.390 . S
C587 C586 1.401 . S
C587 C589 1.374 1_554 S
H588 C595 0.950 . S
C589 C587 1.374 1_556 S
C589 C591 1.390 . S
C589 H593 0.950 . S
H590 C586 0.950 . S
C591 C589 1.390 . S
C591 C592 1.387 1_556 S
C591 H594 0.950 . S
C592 C591 1.387 1_554 S
C592 C595 1.387 . S
H593 C589 0.950 . S
H594 C591 0.950 . S
C595 C586 1.390 . S
C595 H588 0.950 . S
C595 C592 1.387 . S
C596 C597 1.387 . S
C596 H600 0.950 . S
C596 C605 1.390 . S
C597 C596 1.387 . S
C597 C599 1.387 . S
H598 C605 0.950 . S
C599 C597 1.387 . S
C599 C601 1.390 . S
C599 H603 0.950 . S
H600 C596 0.950 . S
C601 C599 1.390 . S
C601 C602 1.387 . S
C601 H604 0.950 . S
C602 C601 1.387 . S
C602 C605 1.387 . S
H603 C599 0.950 . S
H604 C601 0.950 . S
C605 C596 1.390 . S
C605 H598 0.950 . S
C605 C602 1.387 . S
C606 C607 1.387 . S
C606 H610 0.950 . S
C606 C615 1.390 . S
C607 C606 1.387 . S
C607 C609 1.388 1_554 S
H608 C615 0.950 . S
C609 C607 1.388 1_556 S
C609 C611 1.390 . S
C609 H613 0.950 . S
H610 C606 0.950 . S
C611 C609 1.390 . S
C611 C612 1.390 . S
C611 H614 0.950 . S
C612 C611 1.390 . S
C612 C615 1.385 1_556 S
H613 C609 0.950 . S
H614 C611 0.950 . S
C615 C606 1.390 . S
C615 H608 0.950 . S
C615 C612 1.385 1_554 S
C377 C5 1.550 . S
C382 C197 1.535 . S
C387 C31 1.554 . S
C392 C119 1.492 . S
C402 C155 1.492 . S
C397 C53 1.552 . S
C407 C71 1.547 . S
C412 C161 1.533 . S
C422 C299 1.495 . S
C417 C75 1.553 . S
C432 C305 1.535 . S
C427 C9 1.550 . S
C442 C341 1.534 . S
C437 C27 1.547 . S
C452 C263 1.490 . S
C447 C49 1.552 . S
C457 C51 1.550 . S
C462 C125 1.510 . S
C467 C72 1.554 . S
C472 C191 1.527 . S
C477 C6 1.552 . S
C482 C227 1.525 . S
C492 C89 1.507 . S
C487 C29 1.548 . S
C497 C28 1.554 . S
C502 C371 1.526 . S
C512 C233 1.510 . S
C507 C50 1.550 . S
C522 C269 1.508 . S
C517 C73 1.547 . S
C527 C7 1.552 . S
C532 C335 1.525 . S
C542 C113 1.498 . S
C537 C4 1.535 . S
C552 C149 1.498 . S
C547 C30 1.535 . S
C557 C52 1.536 . S
C562 C185 1.530 . S
C567 C70 1.536 . S
C572 C221 1.530 . S
C582 C257 1.498 . S
C577 C74 1.535 . S
C587 C8 1.535 . S
C592 C293 1.498 . S
C597 C26 1.536 . S
C602 C329 1.530 . S
C607 C48 1.535 . S
C612 C365 1.531 . S
