# Generated by pormake.
# Topology ctn, (3,4)-cn, num edge types: 1
# Building blocks:
#     Node 0, Type 0, BuildingBlock: MIDCAF_clean_linker_0, # of connection points: 3
#     Node 1, Type 0, BuildingBlock: MIDCAF_clean_linker_0, # of connection points: 3
#     Node 2, Type 0, BuildingBlock: MIDCAF_clean_linker_0, # of connection points: 3
#     Node 3, Type 0, BuildingBlock: MIDCAF_clean_linker_0, # of connection points: 3
#     Node 4, Type 0, BuildingBlock: MIDCAF_clean_linker_0, # of connection points: 3
#     Node 5, Type 0, BuildingBlock: MIDCAF_clean_linker_0, # of connection points: 3
#     Node 6, Type 0, BuildingBlock: MIDCAF_clean_linker_0, # of connection points: 3
#     Node 7, Type 0, BuildingBlock: MIDCAF_clean_linker_0, # of connection points: 3
#     Node 8, Type 0, BuildingBlock: MIDCAF_clean_linker_0, # of connection points: 3
#     Node 9, Type 0, BuildingBlock: MIDCAF_clean_linker_0, # of connection points: 3
#     Node 10, Type 0, BuildingBlock: MIDCAF_clean_linker_0, # of connection points: 3
#     Node 11, Type 0, BuildingBlock: MIDCAF_clean_linker_0, # of connection points: 3
#     Node 12, Type 0, BuildingBlock: MIDCAF_clean_linker_0, # of connection points: 3
#     Node 13, Type 0, BuildingBlock: MIDCAF_clean_linker_0, # of connection points: 3
#     Node 14, Type 0, BuildingBlock: MIDCAF_clean_linker_0, # of connection points: 3
#     Node 15, Type 0, BuildingBlock: MIDCAF_clean_linker_0, # of connection points: 3
#     Node 16, Type 1, BuildingBlock: NAHDIM_clean_sbu_0, # of connection points: 4
#     Node 17, Type 1, BuildingBlock: NAHDIM_clean_sbu_0, # of connection points: 4
#     Node 18, Type 1, BuildingBlock: NAHDIM_clean_sbu_0, # of connection points: 4
#     Node 19, Type 1, BuildingBlock: NAHDIM_clean_sbu_0, # of connection points: 4
#     Node 20, Type 1, BuildingBlock: NAHDIM_clean_sbu_0, # of connection points: 4
#     Node 21, Type 1, BuildingBlock: NAHDIM_clean_sbu_0, # of connection points: 4
#     Node 22, Type 1, BuildingBlock: NAHDIM_clean_sbu_0, # of connection points: 4
#     Node 23, Type 1, BuildingBlock: NAHDIM_clean_sbu_0, # of connection points: 4
#     Node 24, Type 1, BuildingBlock: NAHDIM_clean_sbu_0, # of connection points: 4
#     Node 25, Type 1, BuildingBlock: NAHDIM_clean_sbu_0, # of connection points: 4
#     Node 26, Type 1, BuildingBlock: NAHDIM_clean_sbu_0, # of connection points: 4
#     Node 27, Type 1, BuildingBlock: NAHDIM_clean_sbu_0, # of connection points: 4
#     Edge 28, Type (0, 1), BuildingBlock: XUDNAN_clean_linker_2, # of connection points: 2
#     Edge 29, Type (0, 1), BuildingBlock: XUDNAN_clean_linker_2, # of connection points: 2
#     Edge 30, Type (0, 1), BuildingBlock: XUDNAN_clean_linker_2, # of connection points: 2
#     Edge 31, Type (0, 1), BuildingBlock: XUDNAN_clean_linker_2, # of connection points: 2
#     Edge 32, Type (0, 1), BuildingBlock: XUDNAN_clean_linker_2, # of connection points: 2
#     Edge 33, Type (0, 1), BuildingBlock: XUDNAN_clean_linker_2, # of connection points: 2
#     Edge 34, Type (0, 1), BuildingBlock: XUDNAN_clean_linker_2, # of connection points: 2
#     Edge 35, Type (0, 1), BuildingBlock: XUDNAN_clean_linker_2, # of connection points: 2
#     Edge 36, Type (0, 1), BuildingBlock: XUDNAN_clean_linker_2, # of connection points: 2
#     Edge 37, Type (0, 1), BuildingBlock: XUDNAN_clean_linker_2, # of connection points: 2
#     Edge 38, Type (0, 1), BuildingBlock: XUDNAN_clean_linker_2, # of connection points: 2
#     Edge 39, Type (0, 1), BuildingBlock: XUDNAN_clean_linker_2, # of connection points: 2
#     Edge 40, Type (0, 1), BuildingBlock: XUDNAN_clean_linker_2, # of connection points: 2
#     Edge 41, Type (0, 1), BuildingBlock: XUDNAN_clean_linker_2, # of connection points: 2
#     Edge 42, Type (0, 1), BuildingBlock: XUDNAN_clean_linker_2, # of connection points: 2
#     Edge 43, Type (0, 1), BuildingBlock: XUDNAN_clean_linker_2, # of connection points: 2
#     Edge 44, Type (0, 1), BuildingBlock: XUDNAN_clean_linker_2, # of connection points: 2
#     Edge 45, Type (0, 1), BuildingBlock: XUDNAN_clean_linker_2, # of connection points: 2
#     Edge 46, Type (0, 1), BuildingBlock: XUDNAN_clean_linker_2, # of connection points: 2
#     Edge 47, Type (0, 1), BuildingBlock: XUDNAN_clean_linker_2, # of connection points: 2
#     Edge 48, Type (0, 1), BuildingBlock: XUDNAN_clean_linker_2, # of connection points: 2
#     Edge 49, Type (0, 1), BuildingBlock: XUDNAN_clean_linker_2, # of connection points: 2
#     Edge 50, Type (0, 1), BuildingBlock: XUDNAN_clean_linker_2, # of connection points: 2
#     Edge 51, Type (0, 1), BuildingBlock: XUDNAN_clean_linker_2, # of connection points: 2
#     Edge 52, Type (0, 1), BuildingBlock: XUDNAN_clean_linker_2, # of connection points: 2
#     Edge 53, Type (0, 1), BuildingBlock: XUDNAN_clean_linker_2, # of connection points: 2
#     Edge 54, Type (0, 1), BuildingBlock: XUDNAN_clean_linker_2, # of connection points: 2
#     Edge 55, Type (0, 1), BuildingBlock: XUDNAN_clean_linker_2, # of connection points: 2
#     Edge 56, Type (0, 1), BuildingBlock: XUDNAN_clean_linker_2, # of connection points: 2
#     Edge 57, Type (0, 1), BuildingBlock: XUDNAN_clean_linker_2, # of connection points: 2
#     Edge 58, Type (0, 1), BuildingBlock: XUDNAN_clean_linker_2, # of connection points: 2
#     Edge 59, Type (0, 1), BuildingBlock: XUDNAN_clean_linker_2, # of connection points: 2
#     Edge 60, Type (0, 1), BuildingBlock: XUDNAN_clean_linker_2, # of connection points: 2
#     Edge 61, Type (0, 1), BuildingBlock: XUDNAN_clean_linker_2, # of connection points: 2
#     Edge 62, Type (0, 1), BuildingBlock: XUDNAN_clean_linker_2, # of connection points: 2
#     Edge 63, Type (0, 1), BuildingBlock: XUDNAN_clean_linker_2, # of connection points: 2
#     Edge 64, Type (0, 1), BuildingBlock: XUDNAN_clean_linker_2, # of connection points: 2
#     Edge 65, Type (0, 1), BuildingBlock: XUDNAN_clean_linker_2, # of connection points: 2
#     Edge 66, Type (0, 1), BuildingBlock: XUDNAN_clean_linker_2, # of connection points: 2
#     Edge 67, Type (0, 1), BuildingBlock: XUDNAN_clean_linker_2, # of connection points: 2
#     Edge 68, Type (0, 1), BuildingBlock: XUDNAN_clean_linker_2, # of connection points: 2
#     Edge 69, Type (0, 1), BuildingBlock: XUDNAN_clean_linker_2, # of connection points: 2
#     Edge 70, Type (0, 1), BuildingBlock: XUDNAN_clean_linker_2, # of connection points: 2
#     Edge 71, Type (0, 1), BuildingBlock: XUDNAN_clean_linker_2, # of connection points: 2
#     Edge 72, Type (0, 1), BuildingBlock: XUDNAN_clean_linker_2, # of connection points: 2
#     Edge 73, Type (0, 1), BuildingBlock: XUDNAN_clean_linker_2, # of connection points: 2
#     Edge 74, Type (0, 1), BuildingBlock: XUDNAN_clean_linker_2, # of connection points: 2
#     Edge 75, Type (0, 1), BuildingBlock: XUDNAN_clean_linker_2, # of connection points: 2
# Relax obj value: 0.002
# Max RMSD: 0.033
# Mean RMSD: 0.016
data_MOF--net-ctn--node1-NAHDIM_clean_sbu_0--node2-MIDCAF_clean_linker_0--edge1-XUDNAN_clean_linker_2
_symmetry_space_group_name_H-M    P1
_symmetry_Int_Tables_number       1
_symmetry_cell_setting            triclinic
loop_
_symmetry_equiv_pos_as_xyz
'x, y, z'
_cell_length_a     67.051835
_cell_length_b     67.428263
_cell_length_c     66.75959
_cell_angle_alpha  91.184857
_cell_angle_beta   90.025553
_cell_angle_gamma 92.211313
loop_
_atom_site_label
_atom_site_type_symbol
_atom_site_fract_x
_atom_site_fract_y
_atom_site_fract_z
_atom_type_partial_charge
C0 C 0.98616 0.03802 0.09569 0.0
C1 C 0.9892 0.02023 0.10567 0.0
C2 C 0.00577 0.0091 0.10049 0.0
C3 C 0.01872 0.01528 0.0853 0.0
H4 H 0.06737 0.99749 0.05499 0.0
H5 H 0.09337 0.97534 0.04429 0.0
H6 H 0.10808 0.01389 0.99514 0.0
H7 H 0.08193 0.03584 0.00551 0.0
H8 H 0.05067 0.06583 0.99264 0.0
H9 H 0.04171 0.09171 0.96992 0.0
H10 H 0.00077 0.11449 0.0138 0.0
H11 H 0.00965 0.08839 0.03681 0.0
H12 H 0.99608 0.05774 0.07267 0.0
H13 H 0.97346 0.04686 0.09934 0.0
H14 H 0.00871 0.99551 0.10815 0.0
H15 H 0.03115 0.00611 0.08161 0.0
N16 N 0.04421 0.02709 0.05288 0.0
N17 N 0.05144 0.04701 0.02536 0.0
N18 N 0.02435 0.05411 0.04619 0.0
C19 C 0.05581 0.03133 0.03677 0.0
C20 C 0.03582 0.05851 0.02994 0.0
C21 C 0.02849 0.03838 0.05776 0.0
C22 C 0.0724 0.01842 0.03105 0.0
C23 C 0.07618 0.00132 0.04194 0.0
C24 C 0.09117 0.98865 0.03588 0.0
C25 C 0.10269 0.99277 0.01878 0.0
C26 C 0.09922 0.01009 0.00816 0.0
C27 C 0.08427 0.02275 0.01421 0.0
C28 C 0.03082 0.07493 0.01658 0.0
C29 C 0.03981 0.07634 0.9976 0.0
C30 C 0.0346 0.09112 0.98448 0.0
C31 C 0.02044 0.10498 0.99004 0.0
C32 C 0.01177 0.10398 0.00917 0.0
C33 C 0.0168 0.08899 0.02228 0.0
C34 C 0.01539 0.03274 0.07481 0.0
C35 C 0.99908 0.04418 0.08036 0.0
C36 C 0.24469 0.64688 0.23096 0.0
C37 C 0.23046 0.64405 0.21562 0.0
C38 C 0.22858 0.65896 0.20141 0.0
C39 C 0.24085 0.67619 0.20236 0.0
H40 H 0.24897 0.73123 0.17768 0.0
H41 H 0.24521 0.75694 0.15309 0.0
H42 H 0.29985 0.78642 0.17413 0.0
H43 H 0.30341 0.761 0.19908 0.0
H44 H 0.32065 0.74711 0.24236 0.0
H45 H 0.34971 0.74847 0.26451 0.0
H46 H 0.34152 0.68571 0.27486 0.0
H47 H 0.31245 0.68425 0.25285 0.0
H48 H 0.268 0.6656 0.24377 0.0
H49 H 0.24664 0.63558 0.24202 0.0
H50 H 0.21759 0.65731 0.18954 0.0
H51 H 0.23906 0.68728 0.19105 0.0
N52 N 0.26644 0.71174 0.205 0.0
N53 N 0.29436 0.72925 0.21854 0.0
N54 N 0.28436 0.69828 0.23126 0.0
C55 C 0.27906 0.72802 0.20514 0.0
C56 C 0.29711 0.71445 0.23165 0.0
C57 C 0.26894 0.69683 0.21804 0.0
C58 C 0.27652 0.74396 0.19042 0.0
C59 C 0.26018 0.7432 0.17715 0.0
C60 C 0.25807 0.75791 0.16293 0.0
C61 C 0.27226 0.77373 0.16156 0.0
C62 C 0.2885 0.77459 0.17492 0.0
C63 C 0.29059 0.75991 0.18919 0.0
C64 C 0.31424 0.71555 0.24574 0.0
C65 C 0.32498 0.73361 0.24941 0.0
C66 C 0.34154 0.73443 0.26219 0.0
C67 C 0.34788 0.71718 0.27133 0.0
C68 C 0.33705 0.6992 0.26787 0.0
C69 C 0.32034 0.69841 0.25532 0.0
C70 C 0.25537 0.67889 0.21749 0.0
C71 C 0.25704 0.66406 0.23186 0.0
C72 C 0.98611 0.40799 0.00307 0.0
C73 C 0.9734 0.40521 0.98644 0.0
C74 C 0.9598 0.41991 0.98219 0.0
C75 C 0.95869 0.43686 0.99448 0.0
H76 H 0.93955 0.49509 0.996 0.0
H77 H 0.91809 0.52181 0.98686 0.0
H78 H 0.91954 0.54413 0.04793 0.0
H79 H 0.94109 0.51738 0.05721 0.0
H80 H 0.97797 0.50322 0.08466 0.0
H81 H 0.99586 0.50401 0.11652 0.0
H82 H 0.01958 0.44681 0.10213 0.0
H83 H 0.00158 0.44577 0.07054 0.0
H84 H 0.99477 0.42637 0.02831 0.0
H85 H 0.99664 0.39685 0.00683 0.0
H86 H 0.94998 0.41829 0.96932 0.0
H87 H 0.94789 0.44777 0.99084 0.0
N88 N 0.9573 0.47197 0.02018 0.0
N89 N 0.96524 0.48853 0.05058 0.0
N90 N 0.97921 0.45798 0.04277 0.0
C91 C 0.95521 0.4878 0.03285 0.0
C92 C 0.97732 0.47367 0.05563 0.0
C93 C 0.96926 0.45697 0.02504 0.0
C94 C 0.94211 0.50407 0.02735 0.0
C95 C 0.93532 0.50565 0.00753 0.0
C96 C 0.92311 0.52103 0.00224 0.0
C97 C 0.91721 0.53508 0.01667 0.0
C98 C 0.92379 0.53344 0.03653 0.0
C99 C 0.93622 0.51817 0.04179 0.0
C100 C 0.98825 0.47441 0.07498 0.0
C101 C 0.98697 0.49078 0.08828 0.0
C102 C 0.9973 0.4913 0.10651 0.0
C103 C 0.00905 0.47543 0.11189 0.0
C104 C 0.01038 0.45913 0.09858 0.0
C105 C 1.00013 0.45861 0.08037 0.0
C106 C 0.97108 0.43945 0.01141 0.0
C107 C 0.98493 0.42488 0.01546 0.0
C108 C 0.73234 0.7635 0.14187 0.0
C109 C 0.71656 0.75026 0.13614 0.0
C110 C 0.69936 0.74915 0.14812 0.0
C111 C 0.69772 0.76132 0.16514 0.0
H112 H 0.66624 0.76702 0.22077 0.0
H113 H 0.63509 0.7652 0.23999 0.0
H114 H 0.64204 0.82766 0.2548 0.0
H115 H 0.67333 0.8295 0.23607 0.0
H116 H 0.72459 0.83754 0.24349 0.0
H117 H 0.74882 0.86378 0.25276 0.0
H118 H 0.77808 0.85686 0.1956 0.0
H119 H 0.75363 0.83033 0.18611 0.0
H120 H 0.74292 0.78615 0.1627 0.0
H121 H 0.74575 0.76472 0.13286 0.0
H122 H 0.68707 0.73887 0.14428 0.0
H123 H 0.68409 0.76011 0.1738 0.0
N124 N 0.69387 0.78704 0.1995 0.0
N125 N 0.70496 0.81415 0.21951 0.0
N126 N 0.72474 0.80322 0.19279 0.0
C127 C 0.69088 0.79976 0.21512 0.0
C128 C 0.72197 0.81596 0.20856 0.0
C129 C 0.71071 0.78867 0.18819 0.0
C130 C 0.67222 0.79841 0.22691 0.0
C131 C 0.66115 0.78034 0.22819 0.0
C132 C 0.64342 0.77925 0.23923 0.0
C133 C 0.63626 0.7963 0.24877 0.0
C134 C 0.64727 0.81434 0.24748 0.0
C135 C 0.66519 0.81535 0.23684 0.0
C136 C 0.73713 0.83176 0.21402 0.0
C137 C 0.73614 0.84152 0.2328 0.0
C138 C 0.75012 0.85652 0.23821 0.0
C139 C 0.76539 0.8623 0.22495 0.0
C140 C 0.76639 0.85273 0.20608 0.0
C141 C 0.75247 0.83748 0.20071 0.0
C142 C 0.7132 0.77504 0.17064 0.0
C143 C 0.73065 0.77584 0.1589 0.0
C144 C 0.03955 0.92467 0.52979 0.0
C145 C 0.01979 0.91719 0.53123 0.0
C146 C 0.00554 0.92336 0.51749 0.0
C147 C 0.01091 0.93692 0.50267 0.0
H148 H 0.00242 0.94873 0.44136 0.0
H149 H 0.98418 0.94933 0.40997 0.0
H150 H 0.01234 0.00615 0.39666 0.0
H151 H 0.03088 0.00566 0.4283 0.0
H152 H 0.07071 0.01958 0.45541 0.0
H153 H 0.09773 0.04353 0.46475 0.0
H154 H 0.10859 0.01067 0.51823 0.0
H155 H 0.08185 0.98705 0.50922 0.0
H156 H 0.06014 0.94428 0.51472 0.0
H157 H 0.05078 0.9202 0.54028 0.0
H158 H 0.99022 0.9177 0.51824 0.0
H159 H 0.99955 0.94154 0.49241 0.0
N160 N 0.02516 0.96183 0.46973 0.0
N161 N 0.04581 0.98889 0.45998 0.0
N162 N 0.05184 0.9729 0.49015 0.0
C163 C 0.02998 0.97607 0.45621 0.0
C164 C 0.05683 0.98736 0.47698 0.0
C165 C 0.03604 0.96015 0.4867 0.0
C166 C 0.01828 0.9771 0.43738 0.0
C167 C 0.00475 0.96146 0.43189 0.0
C168 C 0.99431 0.96173 0.41383 0.0
C169 C 0.99696 0.97771 0.40082 0.0
C170 C 0.00999 0.99367 0.40646 0.0
C171 C 0.02067 0.99331 0.42451 0.0
C172 C 0.07388 0.00145 0.48164 0.0
C173 C 0.07892 0.01743 0.46912 0.0
C174 C 0.09444 0.03111 0.47441 0.0
C175 C 0.10508 0.02913 0.49236 0.0
C176 C 0.1004 0.01286 0.50451 0.0
C177 C 0.08505 0.99923 0.49925 0.0
C178 C 0.03057 0.94487 0.50157 0.0
C179 C 0.04485 0.93852 0.51524 0.0
C180 C 0.23802 0.74649 0.86583 0.0
C181 C 0.22946 0.76488 0.86952 0.0
C182 C 0.21338 0.7703 0.85752 0.0
C183 C 0.20643 0.75778 0.84178 0.0
H184 H 0.16459 0.75173 0.79429 0.0
H185 H 0.13531 0.75796 0.77377 0.0
H186 H 0.14077 0.70095 0.74407 0.0
H187 H 0.16972 0.69461 0.76443 0.0
H188 H 0.20865 0.67113 0.76918 0.0
H189 H 0.22952 0.64358 0.75999 0.0
H190 H 0.26893 0.65899 0.80957 0.0
H191 H 0.24797 0.68622 0.81905 0.0
H192 H 0.23831 0.72008 0.84779 0.0
H193 H 0.25013 0.74166 0.87506 0.0
H194 H 0.20652 0.78443 0.85994 0.0
H195 H 0.19427 0.76253 0.83257 0.0
N196 N 0.19278 0.73058 0.80929 0.0
N197 N 0.19818 0.70241 0.78902 0.0
N198 N 0.21964 0.71038 0.81583 0.0
C199 C 0.18726 0.7185 0.79348 0.0
C200 C 0.21441 0.69825 0.8001 0.0
C201 C 0.20897 0.72653 0.8206 0.0
C202 C 0.16953 0.72263 0.78111 0.0
C203 C 0.15953 0.74051 0.7834 0.0
C204 C 0.14283 0.74415 0.77158 0.0
C205 C 0.13568 0.72989 0.75741 0.0
C206 C 0.14574 0.71211 0.75507 0.0
C207 C 0.16245 0.70854 0.76671 0.0
C208 C 0.22662 0.681 0.79483 0.0
C209 C 0.2217 0.6686 0.77821 0.0
C210 C 0.23372 0.65285 0.77286 0.0
C211 C 0.25092 0.64911 0.78401 0.0
C212 C 0.25565 0.66129 0.80081 0.0
C213 C 0.24366 0.67703 0.80616 0.0
C214 C 0.21541 0.7396 0.83778 0.0
C215 C 0.23113 0.73404 0.85018 0.0
C216 C 0.9885 0.61669 0.49323 0.0
C217 C 0.98197 0.61898 0.51316 0.0
C218 C 0.97141 0.60301 0.52204 0.0
C219 C 0.96738 0.58533 0.51128 0.0
H220 H 0.92783 0.53836 0.50957 0.0
H221 H 0.90119 0.51628 0.52141 0.0
H222 H 0.91171 0.47541 0.47223 0.0
H223 H 0.93841 0.49774 0.46004 0.0
H224 H 0.98058 0.50483 0.43583 0.0
H225 H 0.00325 0.49532 0.40903 0.0
H226 H 0.02788 0.5554 0.4078 0.0
H227 H 0.00519 0.56502 0.43445 0.0
H228 H 0.98996 0.5976 0.46726 0.0
H229 H 0.99638 0.62874 0.48575 0.0
H230 H 0.96652 0.60397 0.53747 0.0
H231 H 0.95931 0.57334 0.51869 0.0
N232 N 0.95534 0.55122 0.48648 0.0
N233 N 0.96315 0.52866 0.46075 0.0
N234 N 0.98131 0.55904 0.46423 0.0
C235 C 0.95166 0.53357 0.47676 0.0
C236 C 0.97802 0.54134 0.45439 0.0
C237 C 0.97006 0.56404 0.48033 0.0
C238 C 0.93539 0.51987 0.48383 0.0
C239 C 0.92456 0.5247 0.50119 0.0
C240 C 0.90931 0.51195 0.5081 0.0
C241 C 0.90442 0.49402 0.49786 0.0
C242 C 0.91506 0.48919 0.48039 0.0
C243 C 0.93043 0.50195 0.47348 0.0
C244 C 0.99107 0.53569 0.4374 0.0
C245 C 0.99072 0.51607 0.42978 0.0
C246 C 0.0038 0.51057 0.41451 0.0
C247 C 0.0174 0.52459 0.40637 0.0
C248 C 0.01746 0.54429 0.41366 0.0
C249 C 0.00451 0.54976 0.42904 0.0
C250 C 0.97407 0.583 0.49146 0.0
C251 C 0.98473 0.59886 0.48256 0.0
C252 C 0.8412 0.76676 0.74045 0.0
C253 C 0.84167 0.7795 0.72402 0.0
C254 C 0.82819 0.79491 0.72352 0.0
C255 C 0.81446 0.79748 0.73896 0.0
H256 H 0.76997 0.83381 0.75654 0.0
H257 H 0.74969 0.86317 0.75724 0.0
H258 H 0.72764 0.8475 0.81579 0.0
H259 H 0.74784 0.81832 0.81526 0.0
H260 H 0.74912 0.77128 0.82391 0.0
H261 H 0.74232 0.74636 0.84901 0.0
H262 H 0.79981 0.72169 0.83797 0.0
H263 H 0.80675 0.74673 0.81243 0.0
H264 H 0.82728 0.7591 0.76827 0.0
H265 H 0.85135 0.75469 0.7412 0.0
H266 H 0.82838 0.80516 0.71123 0.0
H267 H 0.80431 0.80953 0.73795 0.0
N268 N 0.78718 0.80343 0.77145 0.0
N269 N 0.77073 0.79229 0.80021 0.0
N270 N 0.79624 0.77369 0.7861 0.0
C271 C 0.77317 0.80605 0.78582 0.0
C272 C 0.78212 0.77608 0.80051 0.0
C273 C 0.79881 0.78734 0.77146 0.0
C274 C 0.76063 0.82371 0.78588 0.0
C275 C 0.76079 0.8366 0.76956 0.0
C276 C 0.74909 0.85335 0.76988 0.0
C277 C 0.73717 0.85765 0.7866 0.0
C278 C 0.73688 0.84469 0.8028 0.0
C279 C 0.74841 0.82789 0.80243 0.0
C280 C 0.77848 0.76099 0.81607 0.0
C281 C 0.76042 0.76064 0.82678 0.0
C282 C 0.75643 0.7463 0.84112 0.0
C283 C 0.77049 0.73207 0.84532 0.0
C284 C 0.78875 0.73256 0.835 0.0
C285 C 0.79265 0.7468 0.82034 0.0
C286 C 0.81377 0.78464 0.75532 0.0
C287 C 0.82734 0.76925 0.7559 0.0
C288 C 0.35622 0.25635 0.24909 0.0
C289 C 0.36087 0.26779 0.23227 0.0
C290 C 0.35082 0.28545 0.22948 0.0
C291 C 0.33616 0.29132 0.24309 0.0
H292 H 0.29094 0.33111 0.25195 0.0
H293 H 0.26932 0.35838 0.24516 0.0
H294 H 0.23662 0.34639 0.2996 0.0
H295 H 0.25843 0.3194 0.30666 0.0
H296 H 0.26841 0.28205 0.33258 0.0
H297 H 0.26454 0.26299 0.3632 0.0
H298 H 0.31815 0.23221 0.34889 0.0
H299 H 0.32219 0.25117 0.31854 0.0
H300 H 0.33858 0.25294 0.27544 0.0
H301 H 0.36392 0.24283 0.25183 0.0
H302 H 0.35403 0.29452 0.21659 0.0
H303 H 0.32856 0.30491 0.24042 0.0
N304 N 0.30398 0.30111 0.2707 0.0
N305 N 0.28674 0.29539 0.30079 0.0
N306 N 0.31281 0.27512 0.29127 0.0
C307 C 0.28943 0.30612 0.2839 0.0
C308 C 0.29841 0.27988 0.3046 0.0
C309 C 0.31573 0.28558 0.2743 0.0
C310 C 0.27646 0.32295 0.27984 0.0
C311 C 0.27919 0.33428 0.26253 0.0
C312 C 0.26671 0.34988 0.25857 0.0
C313 C 0.2512 0.35455 0.27181 0.0
C314 C 0.24858 0.34337 0.28921 0.0
C315 C 0.26105 0.32777 0.29318 0.0
C316 C 0.29566 0.26824 0.32309 0.0
C317 C 0.27938 0.27123 0.33596 0.0
C318 C 0.27708 0.26024 0.35345 0.0
C319 C 0.29111 0.24621 0.35849 0.0
C320 C 0.30725 0.24313 0.34555 0.0
C321 C 0.30948 0.25396 0.32807 0.0
C322 C 0.3314 0.27974 0.25985 0.0
C323 C 0.34173 0.26225 0.26272 0.0
C324 C 0.47775 0.90297 0.49778 0.0
C325 C 0.47433 0.90615 0.4773 0.0
C326 C 0.47135 0.92557 0.47101 0.0
C327 C 0.47027 0.94116 0.48491 0.0
H328 H 0.42656 0.98056 0.49395 0.0
H329 H 0.40098 0.00282 0.48422 0.0
H330 H 0.41156 0.03803 0.53824 0.0
H331 H 0.43711 0.01532 0.54838 0.0
H332 H 0.47004 0.0015 0.5782 0.0
H333 H 0.48671 0.00598 0.61026 0.0
H334 H 0.51646 0.9509 0.60069 0.0
H335 H 0.50001 0.94652 0.56812 0.0
H336 H 0.47867 0.91582 0.52755 0.0
H337 H 0.48012 0.88818 0.50309 0.0
H338 H 0.4693 0.92868 0.4553 0.0
H339 H 0.46722 0.9558 0.47955 0.0
N340 N 0.45437 0.96725 0.51498 0.0
N341 N 0.45915 0.98409 0.54563 0.0
N342 N 0.47748 0.95582 0.53802 0.0
C343 C 0.44962 0.98224 0.5277 0.0
C344 C 0.47314 0.97102 0.55091 0.0
C345 C 0.46818 0.95403 0.51992 0.0
C346 C 0.43405 0.99614 0.52195 0.0
C347 C 0.42355 0.99303 0.50384 0.0
C348 C 0.40889 0.0059 0.49815 0.0
C349 C 0.40433 0.02234 0.51034 0.0
C350 C 0.41463 0.02542 0.52857 0.0
C351 C 0.42935 0.01246 0.53432 0.0
C352 C 0.48354 0.97356 0.57052 0.0
C353 C 0.48009 0.99026 0.58283 0.0
C354 C 0.48961 0.99281 0.60134 0.0
C355 C 0.50277 0.9787 0.60817 0.0
C356 C 0.50649 0.96211 0.59581 0.0
C357 C 0.49696 0.95955 0.57718 0.0
C358 C 0.47247 0.93785 0.50547 0.0
C359 C 0.47692 0.91876 0.51177 0.0
C360 C 0.2419 0.26913 0.65533 0.0
C361 C 0.22875 0.25337 0.64945 0.0
C362 C 0.20982 0.25175 0.65842 0.0
C363 C 0.20436 0.26535 0.67336 0.0
H364 H 0.16982 0.26835 0.72492 0.0
H365 H 0.14315 0.25949 0.74822 0.0
H366 H 0.14906 0.31771 0.7762 0.0
H367 H 0.17578 0.32673 0.75287 0.0
H368 H 0.22224 0.34659 0.74989 0.0
H369 H 0.24613 0.37382 0.75799 0.0
H370 H 0.27222 0.36802 0.69916 0.0
H371 H 0.24841 0.34082 0.69097 0.0
H372 H 0.24703 0.29466 0.67435 0.0
H373 H 0.2565 0.27088 0.64849 0.0
H374 H 0.19942 0.23969 0.65422 0.0
H375 H 0.18978 0.26351 0.68021 0.0
N376 N 0.19639 0.29091 0.70789 0.0
N377 N 0.20393 0.31972 0.72719 0.0
N378 N 0.22403 0.3115 0.69975 0.0
C379 C 0.19204 0.30324 0.72353 0.0
C380 C 0.21993 0.32398 0.71531 0.0
C381 C 0.21235 0.29496 0.69591 0.0
C382 C 0.17508 0.29824 0.73705 0.0
C383 C 0.16541 0.27935 0.73593 0.0
C384 C 0.15018 0.27421 0.74936 0.0
C385 C 0.14412 0.28786 0.7641 0.0
C386 C 0.15336 0.30692 0.76492 0.0
C387 C 0.16875 0.31202 0.75161 0.0
C388 C 0.23346 0.34142 0.71981 0.0
C389 C 0.23294 0.35121 0.7386 0.0
C390 C 0.2467 0.36673 0.7433 0.0
C391 C 0.26109 0.37295 0.72924 0.0
C392 C 0.26122 0.3636 0.71025 0.0
C393 C 0.24764 0.34794 0.70562 0.0
C394 C 0.21765 0.28099 0.67947 0.0
C395 C 0.23639 0.28283 0.67008 0.0
C396 C 0.75605 0.14934 0.73753 0.0
C397 C 0.7406 0.14319 0.72429 0.0
C398 C 0.73697 0.15477 0.7075 0.0
C399 C 0.74865 0.17197 0.70392 0.0
H400 H 0.7504 0.22386 0.67011 0.0
H401 H 0.74116 0.24873 0.64588 0.0
H402 H 0.79608 0.28214 0.65861 0.0
H403 H 0.80526 0.25774 0.68268 0.0
H404 H 0.83263 0.24709 0.71546 0.0
H405 H 0.85989 0.25807 0.73732 0.0
H406 H 0.84441 0.21112 0.77817 0.0
H407 H 0.81698 0.19978 0.75604 0.0
H408 H 0.77954 0.17068 0.74447 0.0
H409 H 0.75904 0.14098 0.75081 0.0
H410 H 0.72535 0.15034 0.69687 0.0
H411 H 0.74553 0.1804 0.69073 0.0
N412 N 0.77223 0.2083 0.698 0.0
N413 N 0.79998 0.22904 0.70606 0.0
N414 N 0.79325 0.20058 0.72473 0.0
C415 C 0.78375 0.22486 0.6944 0.0
C416 C 0.80491 0.21707 0.72121 0.0
C417 C 0.77692 0.19603 0.71312 0.0
C418 C 0.77847 0.23887 0.67857 0.0
C419 C 0.76054 0.23645 0.66764 0.0
C420 C 0.75526 0.25065 0.65373 0.0
C421 C 0.76776 0.26752 0.65061 0.0
C422 C 0.78592 0.26954 0.66103 0.0
C423 C 0.79121 0.25543 0.6748 0.0
C424 C 0.82239 0.22265 0.73406 0.0
C425 C 0.83496 0.23897 0.72904 0.0
C426 C 0.8506 0.24536 0.74163 0.0
C427 C 0.85412 0.23565 0.75961 0.0
C428 C 0.84207 0.21887 0.76437 0.0
C429 C 0.82633 0.21243 0.75172 0.0
C430 C 0.76428 0.17797 0.71704 0.0
C431 C 0.76777 0.16647 0.73393 0.0
C432 C 0.49558 0.55799 0.5951 0.0
C433 C 0.49771 0.54244 0.60851 0.0
C434 C 0.51202 0.52821 0.60438 0.0
C435 C 0.5243 0.52985 0.58747 0.0
H436 H 0.57241 0.50381 0.55706 0.0
H437 H 0.59673 0.47925 0.54702 0.0
H438 H 0.61117 0.51308 0.49443 0.0
H439 H 0.58712 0.53733 0.50414 0.0
H440 H 0.57471 0.58223 0.50346 0.0
H441 H 0.57157 0.60948 0.48064 0.0
H442 H 0.51128 0.61762 0.50131 0.0
H443 H 0.51475 0.59073 0.52482 0.0
H444 H 0.50572 0.57196 0.56841 0.0
H445 H 0.48444 0.56899 0.59764 0.0
H446 H 0.51408 0.5161 0.6145 0.0
H447 H 0.5354 0.51884 0.58492 0.0
N448 N 0.55008 0.53473 0.55258 0.0
N449 N 0.56072 0.55342 0.52509 0.0
N450 N 0.5343 0.56416 0.54485 0.0
C451 C 0.56252 0.53728 0.53666 0.0
C452 C 0.54671 0.56692 0.52902 0.0
C453 C 0.53592 0.54818 0.55678 0.0
C454 C 0.57765 0.52253 0.53137 0.0
C455 C 0.5808 0.50601 0.54338 0.0
C456 C 0.59477 0.49199 0.5377 0.0
C457 C 0.60566 0.49415 0.51983 0.0
C458 C 0.60273 0.51081 0.50808 0.0
C459 C 0.58897 0.5248 0.51377 0.0
C460 C 0.54492 0.58418 0.51587 0.0
C461 C 0.56079 0.58986 0.50322 0.0
C462 C 0.55894 0.60545 0.49002 0.0
C463 C 0.54107 0.61563 0.48889 0.0
C464 C 0.52533 0.61026 0.50189 0.0
C465 C 0.52728 0.59476 0.51531 0.0
C466 C 0.52246 0.54573 0.57431 0.0
C467 C 0.50777 0.55963 0.57824 0.0
C468 C 0.53725 0.42248 0.02353 0.0
C469 C 0.51918 0.41183 0.01952 0.0
C470 C 0.50795 0.41681 0.0027 0.0
C471 C 0.51444 0.43219 0.99034 0.0
H472 H 0.49882 0.4602 0.93977 0.0
H473 H 0.47688 0.46986 0.91287 0.0
H474 H 0.51482 0.52189 0.90284 0.0
H475 H 0.53679 0.51239 0.92983 0.0
H476 H 0.58303 0.50786 0.94537 0.0
H477 H 0.6154 0.52497 0.94969 0.0
H478 H 0.61973 0.50223 0.00943 0.0
H479 H 0.58719 0.48488 0.00516 0.0
H480 H 0.55768 0.44591 0.01473 0.0
H481 H 0.54617 0.41912 0.03646 0.0
H482 H 0.49417 0.40868 0.99894 0.0
H483 H 0.50531 0.43553 0.97755 0.0
N484 N 0.52714 0.4648 0.96587 0.0
N485 N 0.55072 0.48946 0.95675 0.0
N486 N 0.55685 0.46942 0.98425 0.0
C487 C 0.53283 0.47978 0.9536 0.0
C488 C 0.56283 0.48439 0.972 0.0
C489 C 0.539 0.4595 0.98123 0.0
C490 C 0.5196 0.48552 0.93703 0.0
C491 C 0.50254 0.47372 0.93187 0.0
C492 C 0.48999 0.47917 0.91636 0.0
C493 C 0.49411 0.49664 0.90576 0.0
C494 C 0.51115 0.50845 0.91089 0.0
C495 C 0.5238 0.50292 0.92629 0.0
C496 C 0.58248 0.49494 0.97491 0.0
C497 C 0.59079 0.50648 0.95947 0.0
C498 C 0.60942 0.5162 0.96188 0.0
C499 C 0.62011 0.51483 0.97985 0.0
C500 C 0.61175 0.50357 0.99544 0.0
C501 C 0.59318 0.49358 0.99294 0.0
C502 C 0.5324 0.44302 0.9944 0.0
C503 C 0.54378 0.43791 0.01111 0.0
C504 C 0.73941 0.24878 0.36165 0.0
C505 C 0.72604 0.26392 0.36567 0.0
C506 C 0.70809 0.26402 0.35483 0.0
C507 C 0.704 0.24995 0.33966 0.0
H508 H 0.67843 0.24974 0.28472 0.0
H509 H 0.65356 0.25927 0.26061 0.0
H510 H 0.654 0.2009 0.23288 0.0
H511 H 0.67922 0.19121 0.25706 0.0
H512 H 0.72629 0.17287 0.26206 0.0
H513 H 0.7498 0.14711 0.25438 0.0
H514 H 0.77327 0.15245 0.31455 0.0
H515 H 0.74975 0.17821 0.32237 0.0
H516 H 0.74617 0.2235 0.34323 0.0
H517 H 0.75338 0.24834 0.36974 0.0
H518 H 0.69725 0.27519 0.3579 0.0
H519 H 0.69017 0.25082 0.3314 0.0
N520 N 0.69949 0.22574 0.30415 0.0
N521 N 0.70803 0.19855 0.28398 0.0
N522 N 0.7257 0.20605 0.3138 0.0
C523 C 0.69632 0.21428 0.28745 0.0
C524 C 0.72274 0.19431 0.29713 0.0
C525 C 0.71403 0.22176 0.31744 0.0
C526 C 0.68088 0.21968 0.27283 0.0
C527 C 0.67326 0.23884 0.27356 0.0
C528 C 0.65908 0.24438 0.25967 0.0
C529 C 0.65195 0.23086 0.24484 0.0
C530 C 0.65924 0.21159 0.24423 0.0
C531 C 0.67372 0.20609 0.25799 0.0
C532 C 0.73617 0.17775 0.29282 0.0
C533 C 0.73634 0.16849 0.27374 0.0
C534 C 0.74989 0.15379 0.26928 0.0
C535 C 0.76345 0.14785 0.28383 0.0
C536 C 0.76292 0.15665 0.30307 0.0
C537 C 0.7495 0.1715 0.30749 0.0
C538 C 0.71772 0.23531 0.33495 0.0
C539 C 0.73529 0.23459 0.34642 0.0
C540 C 0.49384 0.1111 0.00171 0.0
C541 C 0.48904 0.1092 0.02205 0.0
C542 C 0.4776 0.09258 0.02823 0.0
C543 C 0.47108 0.078 0.01427 0.0
H544 H 0.42253 0.03761 0.00146 0.0
H545 H 0.39194 0.01729 0.00588 0.0
H546 H 0.40188 0.98797 0.94884 0.0
H547 H 0.43215 0.00826 0.94423 0.0
H548 H 0.47017 0.01676 0.92047 0.0
H549 H 0.49214 0.00778 0.89315 0.0
H550 H 0.53484 0.05394 0.91223 0.0
H551 H 0.51267 0.06326 0.93956 0.0
H552 H 0.4919 0.09796 0.97224 0.0
H553 H 0.50274 0.1238 0.99667 0.0
H554 H 0.47373 0.09087 0.04387 0.0
H555 H 0.46238 0.06526 0.01947 0.0
N556 N 0.45363 0.05204 0.98255 0.0
N557 N 0.45986 0.03392 0.95305 0.0
N558 N 0.48179 0.06017 0.96298 0.0
C559 C 0.44822 0.03721 0.96932 0.0
C560 C 0.47668 0.04524 0.94976 0.0
C561 C 0.47034 0.06364 0.9794 0.0
C562 C 0.42982 0.02469 0.97244 0.0
C563 C 0.4182 0.02684 0.98985 0.0
C564 C 0.40073 0.01513 0.99245 0.0
C565 C 0.39444 0.00113 0.97765 0.0
C566 C 0.40615 0.99885 0.96038 0.0
C567 C 0.42361 0.01045 0.95781 0.0
C568 C 0.48966 0.04067 0.93239 0.0
C569 C 0.48417 0.02512 0.91888 0.0
C570 C 0.49684 0.01987 0.90324 0.0
C571 C 0.51534 0.02999 0.90066 0.0
C572 C 0.52063 0.04591 0.91377 0.0
C573 C 0.50794 0.05119 0.92949 0.0
C574 C 0.47633 0.07958 0.99397 0.0
C575 C 0.48773 0.0963 0.98781 0.0
C576 C 0.21357 0.90353 0.99723 0.0
O577 O 0.22271 0.89868 0.98053 0.0
O578 O 0.24429 0.86254 0.99092 0.0
Zn579 Zn 0.24656 0.8839 0.01253 0.0
O580 O 0.26807 0.90362 0.00393 0.0
C581 C 0.24959 0.85393 0.04272 0.0
O582 O 0.24169 0.84242 0.02846 0.0
O583 O 0.22089 0.89837 0.01381 0.0
C584 C 0.28223 0.91101 0.01471 0.0
O585 O 0.28372 0.90576 0.03348 0.0
C586 C 0.2602 0.85572 0.98366 0.0
O587 O 0.27747 0.8622 0.99105 0.0
O588 O 0.25298 0.87225 0.03937 0.0
C589 C 0.15891 0.46455 0.26927 0.0
O590 O 0.15766 0.47298 0.28712 0.0
O591 O 0.11728 0.49433 0.28511 0.0
Zn592 Zn 0.12926 0.49303 0.25742 0.0
O593 O 0.14407 0.5186 0.25041 0.0
C594 C 0.0985 0.49943 0.22704 0.0
O595 O 0.10402 0.51829 0.22877 0.0
O596 O 0.14833 0.4707 0.25504 0.0
C597 C 0.15124 0.51971 0.23282 0.0
O598 O 0.1485 0.50448 0.22038 0.0
C599 C 0.10512 0.50771 0.28967 0.0
O600 O 0.10126 0.52119 0.27642 0.0
O601 O 0.10702 0.4868 0.23765 0.0
C602 C 0.80975 0.62636 0.99223 0.0
O603 O 0.80638 0.63693 0.97636 0.0
O604 O 0.7679 0.64956 0.97447 0.0
Zn605 Zn 0.76836 0.63435 0.00049 0.0
O606 O 0.74911 0.61061 0.99733 0.0
C607 C 0.74347 0.66095 0.02143 0.0
O608 O 0.7327 0.65702 0.00529 0.0
O609 O 0.7959 0.62382 0.00505 0.0
C610 C 0.73519 0.60503 0.00912 0.0
O611 O 0.73261 0.6148 0.02609 0.0
C612 C 0.75354 0.64676 0.96213 0.0
O613 O 0.73883 0.63421 0.96658 0.0
O614 O 0.76005 0.65262 0.02328 0.0
C615 C 0.85635 0.03863 0.27252 0.0
O616 O 0.8525 0.02558 0.28648 0.0
O617 O 0.9041 0.00735 0.28101 0.0
Zn618 Zn 0.88463 0.00974 0.25794 0.0
O619 O 0.86502 0.98624 0.25866 0.0
C620 C 0.90223 0.99363 0.22137 0.0
O621 O 0.89415 0.9768 0.22757 0.0
O622 O 0.86962 0.0351 0.25947 0.0
C623 C 0.85235 0.98195 0.24491 0.0
O624 O 0.8513 0.99357 0.22941 0.0
C625 C 0.91203 0.99055 0.28188 0.0
O626 O 0.90697 0.97686 0.26835 0.0
O627 O 0.9001 0.00939 0.23183 0.0
C628 C 0.29066 0.10794 0.48995 0.0
O629 O 0.28306 0.11438 0.47326 0.0
O630 O 0.26809 0.15245 0.48394 0.0
Zn631 Zn 0.26143 0.13334 0.50594 0.0
O632 O 0.23452 0.11901 0.50213 0.0
C633 C 0.24797 0.16125 0.53565 0.0
O634 O 0.23334 0.16274 0.52273 0.0
O635 O 0.28335 0.11361 0.50658 0.0
C636 C 0.22613 0.11242 0.51785 0.0
O637 O 0.23537 0.11496 0.53512 0.0
C638 C 0.25661 0.15946 0.47093 0.0
O639 O 0.23756 0.15411 0.47082 0.0
O640 O 0.26176 0.14934 0.53179 0.0
C641 C 0.34959 0.54556 0.77076 0.0
O642 O 0.35304 0.53777 0.78824 0.0
O643 O 0.39648 0.52328 0.78274 0.0
Zn644 Zn 0.38113 0.52016 0.75681 0.0
O645 O 0.3679 0.49286 0.75507 0.0
C646 C 0.40789 0.51374 0.7218 0.0
O647 O 0.40341 0.49465 0.72295 0.0
O648 O 0.35978 0.54027 0.75566 0.0
C649 C 0.35529 0.48794 0.74147 0.0
O650 O 0.3516 0.50063 0.72738 0.0
C651 C 0.40625 0.50887 0.78904 0.0
O652 O 0.40584 0.49211 0.77862 0.0
O653 O 0.40017 0.52582 0.73413 0.0
C654 C 0.71838 0.40817 0.49488 0.0
O655 O 0.72572 0.40191 0.47775 0.0
O656 O 0.74898 0.36942 0.48485 0.0
Zn657 Zn 0.75104 0.38661 0.50988 0.0
O658 O 0.7763 0.40391 0.50877 0.0
C659 C 0.74288 0.35358 0.53768 0.0
O660 O 0.73241 0.34482 0.52316 0.0
O661 O 0.727 0.4038 0.51108 0.0
C662 C 0.78461 0.41002 0.525 0.0
O663 O 0.77631 0.40522 0.54214 0.0
C664 C 0.75627 0.35259 0.48128 0.0
O665 O 0.76678 0.34416 0.49511 0.0
O666 O 0.75152 0.3704 0.53486 0.0
C667 C 0.65065 0.97066 0.76949 0.0
O668 O 0.64927 0.98668 0.78087 0.0
O669 O 0.60751 0.99569 0.77531 0.0
Zn670 Zn 0.62364 0.99313 0.74984 0.0
O671 O 0.64348 0.01609 0.74695 0.0
C672 C 0.58833 0.99873 0.72739 0.0
O673 O 0.58495 0.00967 0.74343 0.0
O674 O 0.64028 0.96916 0.75352 0.0
C675 C 0.64121 0.03319 0.73984 0.0
O676 O 0.6236 0.03794 0.73325 0.0
C677 C 0.60463 0.01144 0.78553 0.0
O678 O 0.61243 0.02847 0.77954 0.0
O679 O 0.60478 0.99 0.72601 0.0
C680 C 0.99967 0.22349 0.91078 0.0
O681 O 0.00333 0.23959 0.9218 0.0
O682 O 0.97455 0.24944 0.85695 0.0
Zn683 Zn 0.99646 0.25109 0.87777 0.0
O684 O 0.99025 0.27353 0.89695 0.0
C685 C 0.02841 0.26945 0.8533 0.0
O686 O 0.01617 0.28401 0.85114 0.0
O687 O 0.99626 0.22509 0.89216 0.0
C688 C 0.00225 0.28654 0.90476 0.0
O689 O 0.02144 0.28578 0.90105 0.0
C690 C 0.96636 0.26526 0.85185 0.0
O691 O 0.97277 0.2823 0.85985 0.0
O692 O 0.02318 0.25483 0.8641 0.0
C693 C 0.50938 0.72924 0.40584 0.0
O694 O 0.49627 0.74026 0.41494 0.0
O695 O 0.48024 0.74466 0.35669 0.0
Zn696 Zn 0.5042 0.75573 0.37229 0.0
O697 O 0.49738 0.77905 0.39044 0.0
C698 C 0.52032 0.77257 0.33611 0.0
O699 O 0.50138 0.77524 0.33249 0.0
O700 O 0.51492 0.73346 0.38817 0.0
C701 C 0.48715 0.79287 0.38357 0.0
O702 O 0.48112 0.79168 0.36485 0.0
C703 C 0.46193 0.74694 0.36075 0.0
O704 O 0.45701 0.75728 0.37676 0.0
O705 O 0.52528 0.76447 0.35232 0.0
C706 C 0.99807 0.81 0.62725 0.0
O707 O 0.98585 0.8084 0.64256 0.0
O708 O 0.97295 0.76731 0.64479 0.0
Zn709 Zn 1.00047 0.76765 0.63247 0.0
O710 O 0.0016 0.74722 0.60995 0.0
C711 C 0.03402 0.77037 0.66184 0.0
O712 O 0.03747 0.78871 0.65613 0.0
O713 O 0.00687 0.79472 0.62095 0.0
C714 C 0.98971 0.7321 0.6086 0.0
O715 O 0.97585 0.72945 0.62229 0.0
C716 C 0.9574 0.77024 0.63453 0.0
O717 O 0.9592 0.77332 0.61524 0.0
O718 O 0.01985 0.75996 0.65381 0.0
C719 C 0.49479 0.29452 0.10275 0.0
O720 O 0.47792 0.28587 0.1085 0.0
O721 O 0.48613 0.26182 0.14204 0.0
Zn722 Zn 0.51111 0.26271 0.12491 0.0
O723 O 0.51134 0.23798 0.10691 0.0
C724 C 0.53689 0.25319 0.158 0.0
O725 O 0.52227 0.24033 0.16196 0.0
O726 O 0.51116 0.28714 0.10782 0.0
C727 C 0.52432 0.22482 0.10856 0.0
O728 O 0.53887 0.22761 0.12159 0.0
C729 C 0.47605 0.24569 0.14449 0.0
O730 O 0.48221 0.22926 0.13604 0.0
O731 O 0.53535 0.26439 0.14301 0.0
H732 H 0.20898 0.78742 0.89704 0.0
H733 H 0.26878 0.77302 0.87822 0.0
H734 H 0.28294 0.79422 0.90559 0.0
H735 H 0.2209 0.83898 0.91045 0.0
H736 H 0.20436 0.8391 0.93173 0.0
H737 H 0.19885 0.82281 0.91056 0.0
H738 H 0.19732 0.79266 0.93404 0.0
H739 H 0.20295 0.80884 0.95526 0.0
H740 H 0.2184 0.78811 0.94984 0.0
H741 H 0.29073 0.81646 0.93508 0.0
H742 H 0.29171 0.83933 0.96438 0.0
H743 H 0.22695 0.8399 0.96402 0.0
C744 C 0.22505 0.78889 0.89856 0.0
C745 C 0.23777 0.77841 0.88557 0.0
C746 C 0.25873 0.78061 0.88819 0.0
C747 C 0.26693 0.7927 0.90363 0.0
C748 C 0.254 0.80259 0.91632 0.0
C749 C 0.23353 0.80093 0.91393 0.0
C750 C 0.22303 0.81319 0.92973 0.0
C751 C 0.21108 0.82949 0.92003 0.0
C752 C 0.20964 0.7999 0.943 0.0
C753 C 0.24082 0.82194 0.94134 0.0
C754 C 0.25853 0.81559 0.93334 0.0
C755 C 0.27697 0.82158 0.94147 0.0
C756 C 0.27736 0.83456 0.95814 0.0
C757 C 0.25942 0.84143 0.96652 0.0
C758 C 0.24093 0.83491 0.95799 0.0
H759 H 0.02749 0.54423 0.37197 0.0
H760 H 0.03988 0.49154 0.40534 0.0
H761 H 0.06429 0.48185 0.37954 0.0
H762 H 0.03045 0.52152 0.32304 0.0
H763 H 0.04205 0.54311 0.31177 0.0
H764 H 0.0258 0.54597 0.33301 0.0
H765 H 0.05398 0.56577 0.35214 0.0
H766 H 0.07035 0.56293 0.33097 0.0
H767 H 0.07787 0.55484 0.35531 0.0
H768 H 0.08759 0.47811 0.35024 0.0
H769 H 0.10685 0.4797 0.31875 0.0
H770 H 0.07897 0.53473 0.30441 0.0
C771 C 0.03544 0.53072 0.3739 0.0
C772 C 0.0318 0.51864 0.39066 0.0
C773 C 0.04228 0.50091 0.39251 0.0
C774 C 0.05626 0.49536 0.37801 0.0
C775 C 0.05954 0.50765 0.36172 0.0
C776 C 0.04935 0.5249 0.35953 0.0
C777 C 0.05531 0.53526 0.3404 0.0
C778 C 0.03733 0.53653 0.32622 0.0
C779 C 0.06495 0.55592 0.34499 0.0
C780 C 0.07045 0.52114 0.33216 0.0
C781 C 0.07276 0.50537 0.34474 0.0
C782 C 0.0859 0.49039 0.34027 0.0
C783 C 0.0968 0.49144 0.32236 0.0
C784 C 0.09443 0.50732 0.30908 0.0
C785 C 0.08115 0.52239 0.31421 0.0
H786 H 0.79288 0.72141 0.87762 0.0
H787 H 0.73688 0.70829 0.84668 0.0
H788 H 0.72714 0.68421 0.87261 0.0
H789 H 0.8005 0.67094 0.89518 0.0
H790 H 0.81049 0.6795 0.91903 0.0
H791 H 0.81376 0.69466 0.89727 0.0
H792 H 0.79742 0.7238 0.91613 0.0
H793 H 0.79399 0.70871 0.93789 0.0
H794 H 0.77288 0.72006 0.92675 0.0
H795 H 0.72276 0.66284 0.90227 0.0
H796 H 0.72384 0.64522 0.93415 0.0
H797 H 0.78245 0.67239 0.94668 0.0
C798 C 0.77875 0.71317 0.87618 0.0
C799 C 0.76562 0.7166 0.86016 0.0
C800 C 0.74708 0.70588 0.8589 0.0
C801 C 0.74146 0.69215 0.87351 0.0
C802 C 0.75454 0.68936 0.88931 0.0
C803 C 0.77281 0.6995 0.89078 0.0
C804 C 0.78359 0.69434 0.90985 0.0
C805 C 0.80325 0.68426 0.90504 0.0
C806 C 0.78717 0.71283 0.92346 0.0
C807 C 0.76842 0.67987 0.91892 0.0
C808 C 0.75185 0.67715 0.90672 0.0
C809 C 0.73569 0.66476 0.91193 0.0
C810 C 0.73645 0.65483 0.93011 0.0
C811 C 0.75322 0.6574 0.94295 0.0
C812 C 0.76942 0.6701 0.9372 0.0
H813 H 0.97519 0.00682 0.38358 0.0
H814 H 0.99537 0.94702 0.37376 0.0
H815 H 0.97692 0.94462 0.34179 0.0
H816 H 0.92603 0.99747 0.36472 0.0
H817 H 0.92418 0.02115 0.35295 0.0
H818 H 0.94004 0.0189 0.37449 0.0
H819 H 0.97021 0.03313 0.35445 0.0
H820 H 0.95441 0.0355 0.33284 0.0
H821 H 0.97675 0.02154 0.3309 0.0
H822 H 0.95552 0.94787 0.31197 0.0
H823 H 0.93201 0.95646 0.28557 0.0
H824 H 0.92488 0.01423 0.31416 0.0
C825 C 0.97592 0.99336 0.37451 0.0
C826 C 0.98668 0.97707 0.38112 0.0
C827 C 0.98708 0.95959 0.36903 0.0
C828 C 0.97673 0.95812 0.35083 0.0
C829 C 0.96602 0.97427 0.34488 0.0
C830 C 0.96551 0.99158 0.35628 0.0
C831 C 0.95209 0.00635 0.34668 0.0
C832 C 0.93455 0.01125 0.36054 0.0
C833 C 0.96408 0.02525 0.34087 0.0
C834 C 0.94501 0.99451 0.32826 0.0
C835 C 0.95338 0.97611 0.32753 0.0
C836 C 0.94892 0.96227 0.31229 0.0
C837 C 0.93549 0.96731 0.29736 0.0
C838 C 0.92656 0.98603 0.29774 0.0
C839 C 0.9315 0.99984 0.3134 0.0
H840 H 0.20755 0.2386 0.61686 0.0
H841 H 0.2641 0.23462 0.64786 0.0
H842 H 0.27491 0.21009 0.62249 0.0
H843 H 0.20187 0.18672 0.60193 0.0
H844 H 0.19131 0.19185 0.57784 0.0
H845 H 0.18781 0.20869 0.59873 0.0
H846 H 0.20298 0.2377 0.57809 0.0
H847 H 0.20653 0.22095 0.55715 0.0
H848 H 0.22743 0.23556 0.56721 0.0
H849 H 0.27958 0.18608 0.59384 0.0
H850 H 0.27829 0.16506 0.56312 0.0
H851 H 0.21892 0.18515 0.55039 0.0
C852 C 0.22213 0.23241 0.61838 0.0
C853 C 0.235 0.23847 0.63431 0.0
C854 C 0.25409 0.23028 0.63566 0.0
C855 C 0.26031 0.21629 0.6214 0.0
C856 C 0.2473 0.21069 0.60584 0.0
C857 C 0.22864 0.21854 0.60419 0.0
C858 C 0.21779 0.21043 0.58568 0.0
C859 C 0.19856 0.19872 0.59139 0.0
C860 C 0.21344 0.22716 0.57118 0.0
C861 C 0.23328 0.19682 0.57719 0.0
C862 C 0.25014 0.1971 0.58912 0.0
C863 C 0.26646 0.18574 0.58437 0.0
C864 C 0.26557 0.17383 0.5669 0.0
C865 C 0.24853 0.17348 0.55432 0.0
C866 C 0.23219 0.18512 0.55964 0.0
H867 H 0.47866 0.50969 0.62512 0.0
H868 H 0.48895 0.57327 0.6337 0.0
H869 H 0.46752 0.57254 0.66366 0.0
H870 H 0.42746 0.50796 0.63984 0.0
H871 H 0.42864 0.48475 0.65263 0.0
H872 H 0.44528 0.48999 0.63208 0.0
H873 H 0.47569 0.48392 0.65479 0.0
H874 H 0.45914 0.47859 0.6754 0.0
H875 H 0.47861 0.49764 0.67814 0.0
H876 H 0.44454 0.56536 0.69195 0.0
H877 H 0.42148 0.55208 0.71744 0.0
H878 H 0.42604 0.49289 0.69124 0.0
C879 C 0.47657 0.52341 0.63345 0.0
C880 C 0.48539 0.54157 0.62699 0.0
C881 C 0.48211 0.55924 0.63817 0.0
C882 C 0.47006 0.55897 0.65528 0.0
C883 C 0.46142 0.5409 0.6611 0.0
C884 C 0.46453 0.52341 0.65062 0.0
C885 C 0.45313 0.50609 0.66 0.0
C886 C 0.43771 0.49665 0.64526 0.0
C887 C 0.4675 0.49065 0.66753 0.0
C888 C 0.44305 0.51664 0.67731 0.0
C889 C 0.44811 0.5367 0.67762 0.0
C890 C 0.44051 0.54967 0.69193 0.0
C891 C 0.42738 0.54194 0.70634 0.0
C892 C 0.42192 0.52142 0.7064 0.0
C893 C 0.42995 0.50863 0.69166 0.0
H894 H 0.75204 0.26346 0.61252 0.0
H895 H 0.7706 0.30743 0.65787 0.0
H896 H 0.76408 0.33418 0.63443 0.0
H897 H 0.77397 0.28753 0.5716 0.0
H898 H 0.75419 0.2812 0.55405 0.0
H899 H 0.7585 0.26537 0.57486 0.0
H900 H 0.72179 0.26851 0.58621 0.0
H901 H 0.71732 0.28427 0.56533 0.0
H902 H 0.71208 0.29279 0.59049 0.0
H903 H 0.75882 0.35587 0.60561 0.0
H904 H 0.75364 0.37159 0.57313 0.0
H905 H 0.73731 0.31402 0.5463 0.0
C906 C 0.7543 0.27874 0.61762 0.0
C907 C 0.76193 0.28339 0.63696 0.0
C908 C 0.76501 0.30354 0.64302 0.0
C909 C 0.76123 0.31884 0.62987 0.0
C910 C 0.7542 0.31377 0.61077 0.0
C911 C 0.75056 0.29426 0.60465 0.0
C912 C 0.74392 0.29297 0.58293 0.0
C913 C 0.75852 0.28106 0.57011 0.0
C914 C 0.7225 0.28411 0.58114 0.0
C915 C 0.74487 0.31477 0.57771 0.0
C916 C 0.75076 0.32647 0.59406 0.0
C917 C 0.75391 0.34692 0.59276 0.0
C918 C 0.75102 0.35569 0.57422 0.0
C919 C 0.74495 0.34404 0.55724 0.0
C920 C 0.74165 0.32333 0.5591 0.0
H921 H 0.54164 0.97178 0.61912 0.0
H922 H 0.4853 0.99161 0.64278 0.0
H923 H 0.50109 0.99824 0.67565 0.0
H924 H 0.55717 0.94724 0.66482 0.0
H925 H 0.58311 0.95454 0.66175 0.0
H926 H 0.56729 0.95074 0.64007 0.0
H927 H 0.57685 0.98628 0.62848 0.0
H928 H 0.59259 0.99024 0.65016 0.0
H929 H 0.57306 0.00711 0.64523 0.0
H930 H 0.52297 0.00445 0.70523 0.0
H931 H 0.54945 0.00838 0.73066 0.0
H932 H 0.59177 0.98338 0.68883 0.0
C933 C 0.53256 0.97723 0.6313 0.0
C934 C 0.51224 0.98136 0.62827 0.0
C935 C 0.50096 0.98869 0.64458 0.0
C936 C 0.50976 0.99239 0.66337 0.0
C937 C 0.52985 0.98852 0.66573 0.0
C938 C 0.54111 0.98094 0.65025 0.0
C939 C 0.56251 0.9784 0.65687 0.0
C940 C 0.56783 0.95642 0.65582 0.0
C941 C 0.57711 0.99128 0.64444 0.0
C942 C 0.56151 0.98597 0.6784 0.0
C943 C 0.5425 0.99173 0.68311 0.0
C944 C 0.53788 0.99984 0.7018 0.0
C945 C 0.55309 0.00208 0.71612 0.0
C946 C 0.57269 0.99615 0.71178 0.0
C947 C 0.5769 0.98791 0.69265 0.0
H948 H 0.88179 0.21497 0.78052 0.0
H949 H 0.86191 0.27444 0.77028 0.0
H950 H 0.88861 0.28829 0.7924 0.0
H951 H 0.89448 0.22302 0.83298 0.0
H952 H 0.91609 0.20795 0.83176 0.0
H953 H 0.89529 0.20259 0.81517 0.0
H954 H 0.91896 0.20525 0.7846 0.0
H955 H 0.93982 0.21071 0.80109 0.0
H956 H 0.93424 0.22756 0.78142 0.0
H957 H 0.91738 0.29585 0.81518 0.0
H958 H 0.94633 0.29667 0.83795 0.0
H959 H 0.94775 0.23235 0.83387 0.0
C960 C 0.88297 0.23088 0.78309 0.0
C961 C 0.86986 0.24364 0.77355 0.0
C962 C 0.87198 0.26441 0.77716 0.0
C963 C 0.88703 0.27242 0.78978 0.0
C964 C 0.89984 0.25948 0.79874 0.0
C965 C 0.89798 0.23917 0.79565 0.0
C966 C 0.91386 0.22865 0.80708 0.0
C967 C 0.90436 0.21473 0.82268 0.0
C968 C 0.92753 0.21738 0.79269 0.0
C969 C 0.9249 0.24625 0.81704 0.0
C970 C 0.91654 0.26388 0.812 0.0
C971 C 0.92406 0.28216 0.81928 0.0
C972 C 0.94054 0.28246 0.8322 0.0
C973 C 0.94933 0.26459 0.83771 0.0
C974 C 0.94139 0.24627 0.82992 0.0
H975 H 0.49733 0.87294 0.47381 0.0
H976 H 0.44677 0.90125 0.44742 0.0
H977 H 0.44424 0.8749 0.42146 0.0
H978 H 0.51956 0.85713 0.42827 0.0
H979 H 0.52706 0.83355 0.43734 0.0
H980 H 0.52468 0.85424 0.45455 0.0
H981 H 0.49999 0.83329 0.47608 0.0
H982 H 0.50235 0.81249 0.45897 0.0
H983 H 0.47806 0.82173 0.46453 0.0
H984 H 0.44814 0.84714 0.39727 0.0
H985 H 0.45736 0.81812 0.37679 0.0
H986 H 0.50441 0.80624 0.41913 0.0
C987 C 0.48558 0.87343 0.46272 0.0
C988 C 0.47245 0.88937 0.4625 0.0
C989 C 0.45733 0.8895 0.44765 0.0
C990 C 0.45564 0.8745 0.43291 0.0
C991 C 0.46901 0.85927 0.43329 0.0
C992 C 0.48358 0.85844 0.44787 0.0
C993 C 0.49618 0.84044 0.44449 0.0
C994 C 0.51817 0.84672 0.44095 0.0
C995 C 0.49401 0.82614 0.46206 0.0
C996 C 0.48657 0.83156 0.42558 0.0
C997 C 0.47093 0.84272 0.41945 0.0
C998 C 0.46022 0.83813 0.402 0.0
C999 C 0.46563 0.82166 0.39043 0.0
C1000 C 0.48154 0.80988 0.3964 0.0
C1001 C 0.49204 0.81485 0.41431 0.0
H1002 H 0.11188 0.30889 0.77661 0.0
H1003 H 0.14139 0.25352 0.78506 0.0
H1004 H 0.11564 0.24336 0.80963 0.0
H1005 H 0.09651 0.31637 0.82827 0.0
H1006 H 0.07281 0.32616 0.82165 0.0
H1007 H 0.09389 0.32938 0.80515 0.0
H1008 H 0.07338 0.31277 0.77602 0.0
H1009 H 0.05224 0.30953 0.79242 0.0
H1010 H 0.06196 0.2884 0.77924 0.0
H1011 H 0.08672 0.23909 0.83301 0.0
H1012 H 0.05567 0.24028 0.85268 0.0
H1013 H 0.04451 0.29827 0.82881 0.0
C1014 C 0.11299 0.29472 0.78378 0.0
C1015 C 0.12862 0.28197 0.77894 0.0
C1016 C 0.12943 0.26341 0.78841 0.0
C1017 C 0.11495 0.25758 0.80247 0.0
C1018 C 0.09972 0.27044 0.80686 0.0
C1019 C 0.09857 0.28858 0.79776 0.0
C1020 C 0.08027 0.29931 0.8047 0.0
C1021 C 0.08623 0.31897 0.81559 0.0
C1022 C 0.06613 0.30269 0.78704 0.0
C1023 C 0.07129 0.28432 0.81906 0.0
C1024 C 0.08284 0.26785 0.82018 0.0
C1025 C 0.07755 0.25192 0.83228 0.0
C1026 C 0.05988 0.25276 0.84342 0.0
C1027 C 0.04761 0.26936 0.84231 0.0
C1028 C 0.05355 0.28538 0.83004 0.0
H1029 H 0.52135 0.65076 0.49286 0.0
H1030 H 0.55522 0.61585 0.45038 0.0
H1031 H 0.55189 0.64171 0.42526 0.0
H1032 H 0.48613 0.66744 0.45681 0.0
H1033 H 0.48437 0.69174 0.46829 0.0
H1034 H 0.49017 0.67088 0.48338 0.0
H1035 H 0.52233 0.68968 0.49605 0.0
H1036 H 0.51667 0.71057 0.48094 0.0
H1037 H 0.54033 0.69899 0.47816 0.0
H1038 H 0.54482 0.671 0.40462 0.0
H1039 H 0.53321 0.70136 0.38919 0.0
H1040 H 0.5026 0.71679 0.44436 0.0
C1041 C 0.52798 0.64847 0.47826 0.0
C1042 C 0.53877 0.6313 0.47376 0.0
C1043 C 0.54731 0.62904 0.45444 0.0
C1044 C 0.54538 0.64359 0.43998 0.0
C1045 C 0.53475 0.66031 0.44495 0.0
C1046 C 0.52608 0.6628 0.46355 0.0
C1047 C 0.51497 0.68195 0.4648 0.0
C1048 C 0.49258 0.67774 0.46853 0.0
C1049 C 0.52413 0.69613 0.48094 0.0
C1050 C 0.51871 0.68975 0.44396 0.0
C1051 C 0.53027 0.67709 0.43283 0.0
C1052 C 0.53574 0.68105 0.41316 0.0
C1053 C 0.52908 0.69836 0.40454 0.0
C1054 C 0.51696 0.71147 0.41554 0.0
C1055 C 0.51182 0.70708 0.43555 0.0
H1056 H 0.8816 0.77209 0.72674 0.0
H1057 H 0.8344 0.78122 0.68378 0.0
H1058 H 0.85866 0.77873 0.65611 0.0
H1059 H 0.91926 0.80062 0.70211 0.0
H1060 H 0.93913 0.78442 0.70794 0.0
H1061 H 0.91789 0.78586 0.72432 0.0
H1062 H 0.91156 0.74778 0.72079 0.0
H1063 H 0.93284 0.74622 0.70445 0.0
H1064 H 0.90874 0.7365 0.69619 0.0
H1065 H 0.88824 0.7766 0.63324 0.0
H1066 H 0.9211 0.77485 0.61674 0.0
H1067 H 0.94898 0.76687 0.6746 0.0
C1068 C 0.87631 0.77324 0.71149 0.0
C1069 C 0.85611 0.77686 0.70741 0.0
C1070 C 0.84985 0.77864 0.68726 0.0
C1071 C 0.86349 0.77714 0.67145 0.0
C1072 C 0.88334 0.77382 0.676 0.0
C1073 C 0.88975 0.77183 0.69552 0.0
C1074 C 0.91203 0.769 0.69637 0.0
C1075 C 0.9227 0.78599 0.70839 0.0
C1076 C 0.91655 0.74866 0.70495 0.0
C1077 C 0.91717 0.76989 0.6743 0.0
C1078 C 0.9004 0.7726 0.6628 0.0
C1079 C 0.90147 0.77436 0.64207 0.0
C1080 C 0.92021 0.77338 0.63284 0.0
C1081 C 0.93762 0.77069 0.64434 0.0
C1082 C 0.93596 0.76883 0.66535 0.0
H1083 H 0.03728 0.88267 0.54133 0.0
H1084 H 0.98905 0.92088 0.55756 0.0
H1085 H 0.9794 0.89846 0.58509 0.0
H1086 H 0.00997 0.83685 0.54987 0.0
H1087 H 0.03116 0.8244 0.55949 0.0
H1088 H 0.03483 0.84395 0.54175 0.0
H1089 H 0.05897 0.86275 0.56653 0.0
H1090 H 0.05529 0.84328 0.5844 0.0
H1091 H 0.05059 0.86859 0.59154 0.0
H1092 H 0.9752 0.87214 0.61089 0.0
H1093 H 0.9747 0.84214 0.63142 0.0
H1094 H 0.02479 0.82012 0.59751 0.0
C1095 C 0.02478 0.88633 0.5508 0.0
C1096 C 0.01392 0.9035 0.54745 0.0
C1097 C 0.99746 0.90772 0.55988 0.0
C1098 C 0.99197 0.89516 0.5756 0.0
C1099 C 0.00299 0.87836 0.57854 0.0
C1100 C 0.01891 0.87379 0.56637 0.0
C1101 C 0.02762 0.85429 0.57214 0.0
C1102 C 0.02578 0.83897 0.55478 0.0
C1103 C 0.04941 0.85742 0.57907 0.0
C1104 C 0.01408 0.8486 0.58943 0.0
C1105 C 1.00015 0.86281 0.59302 0.0
C1106 C 0.98602 0.86088 0.60821 0.0
C1107 C 0.98591 0.8438 0.61984 0.0
C1108 C 0.99968 0.82875 0.61608 0.0
C1109 C 0.01406 0.83134 0.60076 0.0
H1110 H 0.12637 0.7636 0.7373 0.0
H1111 H 0.10452 0.70365 0.74957 0.0
H1112 H 0.07564 0.70808 0.72743 0.0
H1113 H 0.07722 0.78573 0.73485 0.0
H1114 H 0.08443 0.8019 0.71472 0.0
H1115 H 0.10284 0.79448 0.73246 0.0
H1116 H 0.12431 0.78102 0.70331 0.0
H1117 H 0.10594 0.7883 0.68551 0.0
H1118 H 0.11341 0.76292 0.68587 0.0
H1119 H 0.05017 0.7182 0.70297 0.0
H1120 H 0.02923 0.7335 0.67774 0.0
H1121 H 0.06722 0.78715 0.68107 0.0
C1122 C 0.11532 0.75155 0.73557 0.0
C1123 C 0.1177 0.73325 0.74512 0.0
C1124 C 0.10309 0.71771 0.74224 0.0
C1125 C 0.08659 0.72012 0.72978 0.0
C1126 C 0.08485 0.73818 0.72034 0.0
C1127 C 0.09874 0.75368 0.7231 0.0
C1128 C 0.09363 0.77129 0.71055 0.0
C1129 C 0.08927 0.78942 0.72395 0.0
C1130 C 0.11032 0.77616 0.69541 0.0
C1131 C 0.07487 0.76314 0.7001 0.0
C1132 C 0.07006 0.74405 0.70609 0.0
C1133 C 0.05369 0.73319 0.69825 0.0
C1134 C 0.04191 0.74202 0.68387 0.0
C1135 C 0.04653 0.76156 0.67739 0.0
C1136 C 0.06322 0.77224 0.68574 0.0
H1137 H 0.95821 0.63703 0.54128 0.0
H1138 H 0.01575 0.64352 0.51173 0.0
H1139 H 0.0232 0.67412 0.53162 0.0
H1140 H 0.94808 0.68907 0.54634 0.0
H1141 H 0.93716 0.68657 0.57087 0.0
H1142 H 0.93571 0.66599 0.55321 0.0
H1143 H 0.95232 0.64368 0.57907 0.0
H1144 H 0.9538 0.66416 0.59681 0.0
H1145 H 0.97605 0.65151 0.58988 0.0
H1146 H 0.02478 0.70364 0.55548 0.0
H1147 H 0.02085 0.72899 0.5823 0.0
H1148 H 0.96323 0.70185 0.59755 0.0
C1149 C 0.97245 0.64475 0.53899 0.0
C1150 C 0.98633 0.63778 0.52478 0.0
C1151 C 0.00465 0.64867 0.52218 0.0
C1152 C 0.0091 0.66603 0.53352 0.0
C1153 C 0.99515 0.6723 0.5475 0.0
C1154 C 0.97724 0.66194 0.55034 0.0
C1155 C 0.96517 0.6713 0.56694 0.0
C1156 C 0.94536 0.67867 0.55885 0.0
C1157 C 0.96164 0.6568 0.5842 0.0
C1158 C 0.97919 0.68846 0.57315 0.0
C1159 C 0.9963 0.68892 0.56162 0.0
C1160 C 0.01144 0.70343 0.5646 0.0
C1161 C 0.00906 0.71777 0.57985 0.0
C1162 C 0.99177 0.71736 0.59207 0.0
C1163 C 0.97666 0.70252 0.58854 0.0
H1164 H 0.7784 0.89455 0.20328 0.0
H1165 H 0.78535 0.86626 0.26051 0.0
H1166 H 0.80826 0.8938 0.27179 0.0
H1167 H 0.82965 0.91398 0.19909 0.0
H1168 H 0.82255 0.93682 0.18799 0.0
H1169 H 0.80726 0.9145 0.18417 0.0
H1170 H 0.77665 0.9326 0.1981 0.0
H1171 H 0.79188 0.95492 0.20211 0.0
H1172 H 0.77803 0.94425 0.22265 0.0
H1173 H 0.82985 0.92449 0.27711 0.0
H1174 H 0.84919 0.95631 0.27604 0.0
H1175 H 0.82797 0.96512 0.21551 0.0
C1176 C 0.78498 0.89405 0.21806 0.0
C1177 C 0.78012 0.87828 0.23104 0.0
C1178 C 0.78877 0.87828 0.25041 0.0
C1179 C 0.80182 0.89382 0.25692 0.0
C1180 C 0.80606 0.90928 0.2439 0.0
C1181 C 0.79797 0.90953 0.22487 0.0
C1182 C 0.80466 0.92819 0.21406 0.0
C1183 C 0.81675 0.92306 0.19521 0.0
C1184 C 0.78673 0.94073 0.20894 0.0
C1185 C 0.81774 0.93837 0.23001 0.0
C1186 C 0.81837 0.92717 0.24708 0.0
C1187 C 0.8295 0.9334 0.26383 0.0
C1188 C 0.84041 0.95152 0.26308 0.0
C1189 C 0.84008 0.96325 0.24572 0.0
C1190 C 0.82847 0.95656 0.22904 0.0
H1191 H 0.77424 0.11584 0.30573 0.0
H1192 H 0.7869 0.14655 0.25041 0.0
H1193 H 0.81245 0.12235 0.24188 0.0
H1194 H 0.82492 0.10345 0.31677 0.0
H1195 H 0.81802 0.07935 0.32637 0.0
H1196 H 0.80085 0.0992 0.32826 0.0
H1197 H 0.77386 0.07727 0.30969 0.0
H1198 H 0.79093 0.05735 0.30778 0.0
H1199 H 0.7795 0.06648 0.28551 0.0
H1200 H 0.83686 0.09519 0.23955 0.0
H1201 H 0.85739 0.06585 0.24267 0.0
H1202 H 0.82854 0.0523 0.29927 0.0
C1203 C 0.78248 0.11751 0.29188 0.0
C1204 C 0.77859 0.13306 0.27871 0.0
C1205 C 0.78949 0.13462 0.26061 0.0
C1206 C 0.80412 0.12104 0.2557 0.0
C1207 C 0.8076 0.10591 0.269 0.0
C1208 C 0.79703 0.10398 0.28667 0.0
C1209 C 0.8034 0.08609 0.29811 0.0
C1210 C 0.81233 0.09241 0.31859 0.0
C1211 C 0.78588 0.0709 0.3004 0.0
C1212 C 0.81921 0.07828 0.28412 0.0
C1213 C 0.82147 0.09002 0.26749 0.0
C1214 C 0.83521 0.08587 0.25249 0.0
C1215 C 0.84683 0.06917 0.25443 0.0
C1216 C 0.84459 0.05673 0.2712 0.0
C1217 C 0.83062 0.06147 0.28625 0.0
H1218 H 0.38063 0.98195 0.01122 0.0
H1219 H 0.36583 0.99289 0.94921 0.0
H1220 H 0.33527 0.97161 0.95227 0.0
H1221 H 0.36422 0.93114 0.01113 0.0
H1222 H 0.35421 0.93194 0.03617 0.0
H1223 H 0.37458 0.94867 0.02945 0.0
H1224 H 0.35403 0.9787 0.04069 0.0
H1225 H 0.33361 0.96205 0.04753 0.0
H1226 H 0.32957 0.98163 0.03018 0.0
H1227 H 0.307 0.94854 0.96159 0.0
H1228 H 0.28248 0.92516 0.97664 0.0
H1229 H 0.31529 0.92916 0.03281 0.0
C1230 C 0.37081 0.98007 0.99838 0.0
C1231 C 0.37564 0.98903 0.97995 0.0
C1232 C 0.36256 0.98597 0.9634 0.0
C1233 C 0.34511 0.97401 0.96502 0.0
C1234 C 0.34092 0.96522 0.9833 0.0
C1235 C 0.35332 0.96812 0.99972 0.0
C1236 C 0.34553 0.95651 0.01749 0.0
C1237 C 0.36053 0.94116 0.02393 0.0
C1238 C 0.34038 0.97056 0.03501 0.0
C1239 C 0.3269 0.94654 0.00842 0.0
C1240 C 0.32452 0.95184 0.98871 0.0
C1241 C 0.30864 0.94434 0.97705 0.0
C1242 C 0.2948 0.93103 0.98575 0.0
C1243 C 0.29692 0.92531 0.00593 0.0
C1244 C 0.3132 0.93326 0.01738 0.0
H1245 H 0.23627 0.38237 0.29797 0.0
H1246 H 0.23501 0.36323 0.23547 0.0
H1247 H 0.21188 0.38969 0.22796 0.0
H1248 H 0.18448 0.39334 0.30148 0.0
H1249 H 0.18868 0.41471 0.31782 0.0
H1250 H 0.20565 0.39466 0.31818 0.0
H1251 H 0.23523 0.41936 0.31102 0.0
H1252 H 0.21835 0.43949 0.31064 0.0
H1253 H 0.23428 0.43493 0.28943 0.0
H1254 H 0.18827 0.41761 0.22737 0.0
H1255 H 0.16604 0.44536 0.23361 0.0
H1256 H 0.18235 0.44619 0.29661 0.0
C1257 C 0.23108 0.38368 0.28271 0.0
C1258 C 0.23753 0.37074 0.26729 0.0
C1259 C 0.23053 0.37313 0.24748 0.0
C1260 C 0.21729 0.38805 0.24309 0.0
C1261 C 0.21119 0.40047 0.25865 0.0
C1262 C 0.21786 0.39848 0.27806 0.0
C1263 C 0.20886 0.41368 0.29206 0.0
C1264 C 0.19616 0.40348 0.30834 0.0
C1265 C 0.22515 0.42769 0.30133 0.0
C1266 C 0.19597 0.42445 0.2775 0.0
C1267 C 0.19756 0.4166 0.25831 0.0
C1268 C 0.18693 0.42392 0.24232 0.0
C1269 C 0.17432 0.43968 0.24604 0.0
C1270 C 0.17243 0.44799 0.26561 0.0
C1271 C 0.18348 0.44022 0.28149 0.0
H1272 H 0.1356 0.04632 0.47009 0.0
H1273 H 0.10982 0.04559 0.52972 0.0
H1274 H 0.13707 0.06819 0.54203 0.0
H1275 H 0.18589 0.04579 0.48522 0.0
H1276 H 0.19538 0.0624 0.46636 0.0
H1277 H 0.17304 0.04737 0.46161 0.0
H1278 H 0.15373 0.07889 0.45397 0.0
H1279 H 0.17607 0.09403 0.45859 0.0
H1280 H 0.15354 0.09895 0.47224 0.0
H1281 H 0.16806 0.08835 0.54866 0.0
H1282 H 0.20074 0.1063 0.54904 0.0
H1283 H 0.20663 0.09523 0.48504 0.0
C1284 C 0.13552 0.05125 0.48563 0.0
C1285 C 0.12066 0.0441 0.49899 0.0
C1286 C 0.1212 0.05066 0.51929 0.0
C1287 C 0.13654 0.06359 0.5264 0.0
C1288 C 0.15119 0.06999 0.51301 0.0
C1289 C 0.15079 0.06423 0.49302 0.0
C1290 C 0.16893 0.07273 0.48208 0.0
C1291 C 0.18155 0.05608 0.47331 0.0
C1292 C 0.16269 0.087 0.46575 0.0
C1293 C 0.17972 0.08381 0.49916 0.0
C1294 C 0.16913 0.08204 0.51682 0.0
C1295 C 0.1764 0.09007 0.53489 0.0
C1296 C 0.19503 0.10016 0.53495 0.0
C1297 C 0.2062 0.10224 0.51707 0.0
C1298 C 0.19831 0.09409 0.4989 0.0
H1299 H 0.70012 0.13623 0.71889 0.0
H1300 H 0.75397 0.1079 0.73756 0.0
H1301 H 0.73426 0.07707 0.74391 0.0
H1302 H 0.66695 0.11319 0.75444 0.0
H1303 H 0.6463 0.11029 0.73719 0.0
H1304 H 0.66455 0.13033 0.73428 0.0
H1305 H 0.67114 0.1185 0.69779 0.0
H1306 H 0.65288 0.09845 0.70056 0.0
H1307 H 0.67797 0.09324 0.69299 0.0
H1308 H 0.70899 0.04946 0.74832 0.0
H1309 H 0.67975 0.02637 0.75 0.0
H1310 H 0.64214 0.07207 0.72759 0.0
C1311 C 0.70781 0.1235 0.72416 0.0
C1312 C 0.72861 0.12457 0.72785 0.0
C1313 C 0.73802 0.1076 0.73496 0.0
C1314 C 0.72697 0.08997 0.7385 0.0
C1315 C 0.70653 0.08947 0.73477 0.0
C1316 C 0.69701 0.10573 0.72771 0.0
C1317 C 0.67486 0.10114 0.72484 0.0
C1318 C 0.66244 0.11453 0.73851 0.0
C1319 C 0.66887 0.10294 0.70273 0.0
C1320 C 0.67344 0.07975 0.7314 0.0
C1321 C 0.6919 0.07337 0.73711 0.0
C1322 C 0.69446 0.05425 0.74386 0.0
C1323 C 0.67771 0.04125 0.74477 0.0
C1324 C 0.6586 0.04736 0.7389 0.0
C1325 C 0.65651 0.06691 0.73214 0.0
H1326 H 0.37532 0.03989 0.53322 0.0
H1327 H 0.3985 0.03605 0.47259 0.0
H1328 H 0.37185 0.05718 0.46097 0.0
H1329 H 0.32373 0.03848 0.52031 0.0
H1330 H 0.31679 0.05621 0.53939 0.0
H1331 H 0.33792 0.04102 0.54323 0.0
H1332 H 0.36058 0.07253 0.54952 0.0
H1333 H 0.33948 0.08782 0.54585 0.0
H1334 H 0.3617 0.09164 0.53102 0.0
H1335 H 0.34225 0.07764 0.45558 0.0
H1336 H 0.31239 0.09777 0.457 0.0
H1337 H 0.30871 0.08947 0.52127 0.0
C1338 C 0.37495 0.04371 0.51756 0.0
C1339 C 0.38893 0.03613 0.50379 0.0
C1340 C 0.38777 0.04134 0.48336 0.0
C1341 C 0.37274 0.05343 0.47662 0.0
C1342 C 0.35904 0.06036 0.4905 0.0
C1343 C 0.36006 0.05586 0.51056 0.0
C1344 C 0.34336 0.06523 0.52228 0.0
C1345 C 0.32964 0.04928 0.53186 0.0
C1346 C 0.35179 0.0802 0.5381 0.0
C1347 C 0.33276 0.0756 0.50562 0.0
C1348 C 0.34205 0.07251 0.48742 0.0
C1349 C 0.33489 0.08026 0.46976 0.0
C1350 C 0.31786 0.09163 0.47073 0.0
C1351 C 0.3082 0.09525 0.48925 0.0
C1352 C 0.31578 0.08704 0.5069 0.0
H1353 H 0.63452 0.4765 0.54196 0.0
H1354 H 0.60911 0.47813 0.48225 0.0
H1355 H 0.63453 0.45548 0.46979 0.0
H1356 H 0.685 0.47688 0.52702 0.0
H1357 H 0.69293 0.46004 0.5458 0.0
H1358 H 0.6719 0.47526 0.55055 0.0
H1359 H 0.64975 0.44392 0.55785 0.0
H1360 H 0.67077 0.42859 0.55328 0.0
H1361 H 0.64791 0.42398 0.53945 0.0
H1362 H 0.66368 0.43465 0.46324 0.0
H1363 H 0.69429 0.4156 0.46317 0.0
H1364 H 0.70093 0.42681 0.52719 0.0
C1365 C 0.63411 0.47176 0.52637 0.0
C1366 C 0.6199 0.47912 0.51304 0.0
C1367 C 0.62001 0.47284 0.49265 0.0
C1368 C 0.63432 0.45992 0.48546 0.0
C1369 C 0.64839 0.45331 0.49885 0.0
C1370 C 0.64835 0.45885 0.5189 0.0
C1371 C 0.66565 0.4501 0.52988 0.0
C1372 C 0.6797 0.46656 0.53883 0.0
C1373 C 0.65806 0.4358 0.54607 0.0
C1374 C 0.67553 0.43905 0.51279 0.0
C1375 C 0.66526 0.44108 0.49506 0.0
C1376 C 0.67177 0.43279 0.47706 0.0
C1377 C 0.68924 0.42206 0.47717 0.0
C1378 C 0.70001 0.41967 0.49517 0.0
C1379 C 0.69297 0.42827 0.51321 0.0
H1380 H 0.74261 0.26121 0.40336 0.0
H1381 H 0.72074 0.30345 0.36115 0.0
H1382 H 0.72734 0.33063 0.38574 0.0
H1383 H 0.72219 0.28335 0.4471 0.0
H1384 H 0.74316 0.27876 0.46303 0.0
H1385 H 0.73759 0.26253 0.44184 0.0
H1386 H 0.77343 0.26883 0.42831 0.0
H1387 H 0.77914 0.28506 0.4495 0.0
H1388 H 0.78259 0.29395 0.42441 0.0
H1389 H 0.7345 0.35289 0.41501 0.0
H1390 H 0.74254 0.36935 0.44743 0.0
H1391 H 0.76081 0.31323 0.47088 0.0
C1392 C 0.73947 0.27622 0.39922 0.0
C1393 C 0.73099 0.28018 0.38039 0.0
C1394 C 0.7269 0.3 0.37561 0.0
C1395 C 0.73073 0.31557 0.38941 0.0
C1396 C 0.7388 0.31114 0.40791 0.0
C1397 C 0.74324 0.29201 0.41286 0.0
C1398 C 0.75135 0.29136 0.43405 0.0
C1399 C 0.73776 0.27823 0.44728 0.0
C1400 C 0.77291 0.28439 0.43406 0.0
C1401 C 0.75053 0.31309 0.44025 0.0
C1402 C 0.74327 0.32418 0.42488 0.0
C1403 C 0.74037 0.34442 0.42713 0.0
C1404 C 0.74493 0.35362 0.44563 0.0
C1405 C 0.75238 0.3426 0.46166 0.0
C1406 C 0.75536 0.32208 0.45883 0.0
H1407 H 0.53795 0.05327 0.87513 0.0
H1408 H 0.52406 0.99194 0.89012 0.0
H1409 H 0.54607 0.98072 0.86293 0.0
H1410 H 0.53911 0.04581 0.82224 0.0
H1411 H 0.55969 0.06325 0.8182 0.0
H1412 H 0.54337 0.06661 0.83931 0.0
H1413 H 0.57375 0.06704 0.86336 0.0
H1414 H 0.59017 0.06372 0.8423 0.0
H1415 H 0.59029 0.04659 0.86266 0.0
H1416 H 0.56848 0.97602 0.83364 0.0
H1417 H 0.59027 0.97808 0.804 0.0
H1418 H 0.59033 0.04246 0.8081 0.0
C1419 C 0.53974 0.0375 0.87284 0.0
C1420 C 0.52918 0.02347 0.88468 0.0
C1421 C 0.53174 0.00294 0.88105 0.0
C1422 C 0.54431 0.99642 0.86573 0.0
C1423 C 0.55432 0.01061 0.85421 0.0
C1424 C 0.55226 0.03071 0.85758 0.0
C1425 C 0.56439 0.04279 0.84267 0.0
C1426 C 0.55083 0.05535 0.82985 0.0
C1427 C 0.58062 0.0558 0.85339 0.0
C1428 C 0.57343 0.02631 0.83032 0.0
C1429 C 0.56744 0.00788 0.83729 0.0
C1430 C 0.57338 0.99037 0.82808 0.0
C1431 C 0.58573 0.99171 0.81122 0.0
C1432 C 0.59205 0.01043 0.80372 0.0
C1433 C 0.58587 0.02794 0.81353 0.0
H1434 H 0.25746 0.22753 0.37396 0.0
H1435 H 0.32059 0.23929 0.38533 0.0
H1436 H 0.31824 0.21913 0.41571 0.0
H1437 H 0.24163 0.22871 0.4264 0.0
H1438 H 0.22314 0.20882 0.42286 0.0
H1439 H 0.22953 0.22492 0.40243 0.0
H1440 H 0.23793 0.19432 0.38033 0.0
H1441 H 0.23165 0.17815 0.40071 0.0
H1442 H 0.25589 0.17728 0.38913 0.0
H1443 H 0.30956 0.19696 0.44391 0.0
H1444 H 0.29504 0.17409 0.46868 0.0
H1445 H 0.23728 0.1765 0.43947 0.0
C1446 C 0.2707 0.22608 0.38303 0.0
C1447 C 0.28923 0.23493 0.37728 0.0
C1448 C 0.30631 0.23245 0.38935 0.0
C1449 C 0.3051 0.22113 0.40667 0.0
C1450 C 0.2867 0.21239 0.41177 0.0
C1451 C 0.26977 0.21474 0.40038 0.0
C1452 C 0.25199 0.2032 0.40895 0.0
C1453 C 0.23561 0.21726 0.41556 0.0
C1454 C 0.2439 0.1873 0.39388 0.0
C1455 C 0.26165 0.19388 0.42682 0.0
C1456 C 0.28165 0.19947 0.42816 0.0
C1457 C 0.29388 0.19254 0.4431 0.0
C1458 C 0.28547 0.17951 0.4571 0.0
C1459 C 0.26499 0.17349 0.45607 0.0
C1460 C 0.25295 0.18087 0.44072 0.0
H1461 H 0.47765 0.47297 0.87571 0.0
H1462 H 0.48021 0.53358 0.89895 0.0
H1463 H 0.45765 0.54334 0.87185 0.0
H1464 H 0.47758 0.48512 0.8237 0.0
H1465 H 0.46064 0.46481 0.81651 0.0
H1466 H 0.47674 0.46264 0.83788 0.0
H1467 H 0.44599 0.45448 0.86017 0.0
H1468 H 0.42978 0.45664 0.83887 0.0
H1469 H 0.42581 0.47139 0.86123 0.0
H1470 H 0.43448 0.54632 0.84236 0.0
H1471 H 0.41349 0.5426 0.81199 0.0
H1472 H 0.4265 0.48006 0.80796 0.0
C1473 C 0.47334 0.48826 0.87518 0.0
C1474 C 0.48064 0.50252 0.88945 0.0
C1475 C 0.47492 0.52246 0.88807 0.0
C1476 C 0.46204 0.52811 0.87281 0.0
C1477 C 0.45509 0.51366 0.85901 0.0
C1478 C 0.4606 0.49417 0.86001 0.0
C1479 C 0.45136 0.4816 0.84313 0.0
C1480 C 0.46754 0.47304 0.8295 0.0
C1481 C 0.4374 0.46505 0.85135 0.0
C1482 C 0.43974 0.49705 0.83248 0.0
C1483 C 0.442 0.51544 0.84191 0.0
C1484 C 0.43263 0.532 0.83483 0.0
C1485 C 0.42071 0.52973 0.81759 0.0
C1486 C 0.41837 0.51106 0.80756 0.0
C1487 C 0.42801 0.49455 0.81523 0.0
H1488 H 0.74765 0.7282 0.12207 0.0
H1489 H 0.68749 0.74489 0.10779 0.0
H1490 H 0.68806 0.724 0.07706 0.0
H1491 H 0.76616 0.72723 0.07089 0.0
H1492 H 0.78116 0.70598 0.07456 0.0
H1493 H 0.77626 0.72258 0.09531 0.0
H1494 H 0.76185 0.693 0.1156 0.0
H1495 H 0.76663 0.67632 0.09489 0.0
H1496 H 0.74182 0.67749 0.10511 0.0
H1497 H 0.69481 0.70135 0.04821 0.0
H1498 H 0.70728 0.67802 0.02274 0.0
H1499 H 0.76313 0.67539 0.05542 0.0
C1500 C 0.7347 0.72758 0.11235 0.0
C1501 C 0.71748 0.73811 0.11736 0.0
C1502 C 0.70073 0.73676 0.10438 0.0
C1503 C 0.70095 0.72501 0.08685 0.0
C1504 C 0.71802 0.71466 0.08246 0.0
C1505 C 0.73461 0.71579 0.09479 0.0
C1506 C 0.75088 0.70282 0.08666 0.0
C1507 C 0.76973 0.71541 0.08155 0.0
C1508 C 0.75556 0.68643 0.10145 0.0
C1509 C 0.74079 0.69423 0.06788 0.0
C1510 C 0.72188 0.70135 0.06577 0.0
C1511 C 0.7096 0.69567 0.04967 0.0
C1512 C 0.71685 0.68239 0.03527 0.0
C1513 C 0.73619 0.67483 0.03705 0.0
C1514 C 0.74827 0.68085 0.05364 0.0
H1515 H 0.97251 0.04131 0.13676 0.0
H1516 H 0.97373 0.98246 0.1093 0.0
H1517 H 0.95098 0.96956 0.13541 0.0
H1518 H 0.97253 0.02564 0.18738 0.0
H1519 H 0.95585 0.0442 0.19631 0.0
H1520 H 0.97159 0.04909 0.17499 0.0
H1521 H 0.94052 0.05667 0.15377 0.0
H1522 H 0.92469 0.05185 0.17506 0.0
H1523 H 0.92018 0.03845 0.15175 0.0
H1524 H 0.92894 0.9628 0.16476 0.0
H1525 H 0.90901 0.96249 0.19576 0.0
H1526 H 0.92192 0.02572 0.20442 0.0
C1527 C 0.96778 0.02577 0.13613 0.0
C1528 C 0.97493 0.01286 0.12105 0.0
C1529 C 0.96863 0.99255 0.12086 0.0
C1530 C 0.95562 0.98511 0.13555 0.0
C1531 C 0.94903 0.99816 0.15033 0.0
C1532 C 0.95484 0.01806 0.15075 0.0
C1533 C 0.94598 0.02873 0.16866 0.0
C1534 C 0.96247 0.03742 0.18266 0.0
C1535 C 0.93201 0.04488 0.1619 0.0
C1536 C 0.93441 0.01169 0.17827 0.0
C1537 C 0.93631 0.99422 0.16739 0.0
C1538 C 0.92727 0.97639 0.17339 0.0
C1539 C 0.91599 0.97637 0.19105 0.0
C1540 C 0.91388 0.99407 0.20255 0.0
C1541 C 0.9232 0.01195 0.19596 0.0
H1542 H 0.26009 0.7684 0.12242 0.0
H1543 H 0.27981 0.81397 0.16569 0.0
H1544 H 0.27669 0.83944 0.13992 0.0
H1545 H 0.28471 0.78921 0.07964 0.0
H1546 H 0.26464 0.78233 0.06259 0.0
H1547 H 0.26874 0.7677 0.08437 0.0
H1548 H 0.2322 0.77242 0.09561 0.0
H1549 H 0.22798 0.78703 0.07384 0.0
H1550 H 0.22318 0.79716 0.09849 0.0
H1551 H 0.27126 0.85999 0.1093 0.0
H1552 H 0.26354 0.87401 0.07639 0.0
H1553 H 0.24658 0.81495 0.05363 0.0
C1554 C 0.26357 0.78375 0.12658 0.0
C1555 C 0.27022 0.78915 0.14612 0.0
C1556 C 0.27495 0.8094 0.15077 0.0
C1557 C 0.27312 0.824 0.13626 0.0
C1558 C 0.26652 0.81813 0.11717 0.0
C1559 C 0.26179 0.79849 0.11233 0.0
C1560 C 0.25492 0.79607 0.09078 0.0
C1561 C 0.2691 0.78306 0.07863 0.0
C1562 C 0.23328 0.78768 0.08962 0.0
C1563 C 0.25644 0.81744 0.08426 0.0
C1564 C 0.26322 0.82994 0.09966 0.0
C1565 C 0.26591 0.85034 0.09714 0.0
C1566 C 0.2615 0.85816 0.07839 0.0
C1567 C 0.25441 0.8456 0.06243 0.0
C1568 C 0.25191 0.82498 0.06551 0.0
H1569 H 0.03042 0.50675 0.12954 0.0
H1570 H 0.01265 0.44488 0.13786 0.0
H1571 H 0.03245 0.44478 0.16902 0.0
H1572 H 0.0801 0.50357 0.14626 0.0
H1573 H 0.08123 0.52751 0.15882 0.0
H1574 H 0.06476 0.52312 0.13777 0.0
H1575 H 0.03474 0.53371 0.15938 0.0
H1576 H 0.05114 0.53822 0.18051 0.0
H1577 H 0.02963 0.52153 0.18272 0.0
H1578 H 0.05551 0.45079 0.19812 0.0
H1579 H 0.08007 0.46264 0.2236 0.0
H1580 H 0.08233 0.52087 0.19689 0.0
C1581 C 0.0304 0.49329 0.13811 0.0
C1582 C 0.02002 0.4758 0.13124 0.0
C1583 C 0.02069 0.45838 0.1427 0.0
C1584 C 0.03177 0.45821 0.16048 0.0
C1585 C 0.04204 0.47561 0.16668 0.0
C1586 C 0.04139 0.49286 0.15592 0.0
C1587 C 0.05436 0.50933 0.16553 0.0
C1588 C 0.0711 0.51628 0.15124 0.0
C1589 C 0.04171 0.52672 0.17245 0.0
C1590 C 0.06261 0.49855 0.18322 0.0
C1591 C 0.05525 0.47913 0.18362 0.0
C1592 C 0.06126 0.46601 0.19808 0.0
C1593 C 0.07525 0.47288 0.21246 0.0
C1594 C 0.08307 0.4927 0.2123 0.0
C1595 C 0.07649 0.5057 0.19755 0.0
H1596 H 0.3582 0.74371 0.30171 0.0
H1597 H 0.37878 0.69208 0.2691 0.0
H1598 H 0.40978 0.69345 0.2892 0.0
H1599 H 0.40544 0.76972 0.30593 0.0
H1600 H 0.40111 0.77921 0.33093 0.0
H1601 H 0.38036 0.77391 0.31428 0.0
H1602 H 0.36405 0.75066 0.34056 0.0
H1603 H 0.38476 0.75589 0.35729 0.0
H1604 H 0.37797 0.73058 0.35019 0.0
H1605 H 0.43932 0.70168 0.31124 0.0
H1606 H 0.46473 0.71506 0.33526 0.0
H1607 H 0.42434 0.76033 0.3548 0.0
C1608 C 0.36925 0.7327 0.29884 0.0
C1609 C 0.36614 0.71778 0.28388 0.0
C1610 C 0.38082 0.70351 0.28064 0.0
C1611 C 0.39849 0.70422 0.29191 0.0
C1612 C 0.40113 0.71915 0.30651 0.0
C1613 C 0.38686 0.73303 0.31014 0.0
C1614 C 0.39341 0.74752 0.32674 0.0
C1615 C 0.39519 0.76885 0.319 0.0
C1616 C 0.3792 0.74607 0.34476 0.0
C1617 C 0.4137 0.73976 0.33169 0.0
C1618 C 0.4179 0.72346 0.31975 0.0
C1619 C 0.43612 0.71429 0.32084 0.0
C1620 C 0.45046 0.72202 0.33447 0.0
C1621 C 0.4464 0.73858 0.34699 0.0
C1622 C 0.42771 0.74743 0.34565 0.0
H1623 H 0.0063 0.38618 0.97225 0.0
H1624 H 0.94152 0.38247 0.97255 0.0
H1625 H 0.94201 0.35158 0.95211 0.0
H1626 H 0.01242 0.3684 0.92156 0.0
H1627 H 0.0342 0.3546 0.92702 0.0
H1628 H 0.02881 0.37636 0.94183 0.0
H1629 H 0.02957 0.3557 0.9741 0.0
H1630 H 0.03494 0.33386 0.95938 0.0
H1631 H 0.01368 0.33362 0.97591 0.0
H1632 H 0.94938 0.32111 0.93205 0.0
H1633 H 0.96309 0.29344 0.9125 0.0
H1634 H 0.02323 0.31679 0.9249 0.0
C1635 C 0.99223 0.37879 0.9681 0.0
C1636 C 0.97386 0.38675 0.97395 0.0
C1637 C 0.95576 0.37678 0.96802 0.0
C1638 C 0.95588 0.35916 0.95653 0.0
C1639 C 0.97422 0.35172 0.95103 0.0
C1640 C 0.99207 0.36123 0.95653 0.0
C1641 C 0.0097 0.3502 0.94835 0.0
C1642 C 0.022 0.36316 0.93382 0.0
C1643 C 0.02274 0.34291 0.96546 0.0
C1644 C 0.99895 0.333 0.93742 0.0
C1645 C 0.97849 0.33416 0.93925 0.0
C1646 C 0.96537 0.32003 0.93049 0.0
C1647 C 0.97334 0.30434 0.91943 0.0
C1648 C 0.99426 0.3029 0.91714 0.0
C1649 C 0.00719 0.31744 0.92636 0.0
H1650 H 0.62547 0.77202 0.27962 0.0
H1651 H 0.60415 0.81887 0.24263 0.0
H1652 H 0.572 0.81776 0.26086 0.0
H1653 H 0.57885 0.74405 0.28411 0.0
H1654 H 0.5828 0.73798 0.30995 0.0
H1655 H 0.60386 0.74209 0.29361 0.0
H1656 H 0.61835 0.76918 0.31822 0.0
H1657 H 0.59732 0.76517 0.33462 0.0
H1658 H 0.60326 0.78967 0.32551 0.0
H1659 H 0.54201 0.81084 0.28235 0.0
H1660 H 0.51673 0.80014 0.30718 0.0
H1661 H 0.55828 0.7592 0.3317 0.0
C1662 C 0.61394 0.78193 0.27535 0.0
C1663 C 0.6171 0.79546 0.25971 0.0
C1664 C 0.6019 0.80845 0.25462 0.0
C1665 C 0.58364 0.80788 0.26484 0.0
C1666 C 0.58097 0.79441 0.28025 0.0
C1667 C 0.59575 0.7818 0.28564 0.0
C1668 C 0.58928 0.76922 0.3032 0.0
C1669 C 0.58866 0.74702 0.29736 0.0
C1670 C 0.60286 0.77358 0.32147 0.0
C1671 C 0.56851 0.77662 0.30675 0.0
C1672 C 0.56396 0.79102 0.29322 0.0
C1673 C 0.54543 0.79968 0.29311 0.0
C1674 C 0.53117 0.79348 0.30723 0.0
C1675 C 0.53561 0.77896 0.32142 0.0
C1676 C 0.55456 0.7705 0.32118 0.0
H1677 H 0.01783 0.14517 0.99667 0.0
H1678 H 0.01025 0.09897 0.95081 0.0
H1679 H 0.00246 0.12419 0.92598 0.0
H1680 H 0.97841 0.17686 0.97891 0.0
H1681 H 0.99253 0.19954 0.98475 0.0
H1682 H 0.99611 0.17772 0.99928 0.0
H1683 H 0.03398 0.18 0.99151 0.0
H1684 H 0.03051 0.20176 0.97691 0.0
H1685 H 0.04218 0.18055 0.9658 0.0
H1686 H 0.99694 0.15426 0.90589 0.0
H1687 H 0.99461 0.18746 0.8915 0.0
H1688 H 0.00623 0.21446 0.95021 0.0
C1689 C 0.01419 0.14038 0.98148 0.0
C1690 C 0.01459 0.12014 0.97562 0.0
C1691 C 0.01013 0.11443 0.95554 0.0
C1692 C 0.00559 0.12861 0.94137 0.0
C1693 C 0.0056 0.14847 0.94753 0.0
C1694 C 0.00977 0.1544 0.96708 0.0
C1695 C 0.00975 0.1768 0.96948 0.0
C1696 C 0.99321 0.1831 0.98396 0.0
C1697 C 0.03033 0.18527 0.97633 0.0
C1698 C 0.00519 0.18252 0.94817 0.0
C1699 C 0.00267 0.16592 0.93582 0.0
C1700 C 0.99877 0.16738 0.91543 0.0
C1701 C 0.99749 0.18632 0.9074 0.0
C1702 C 1.00023 0.2036 0.91971 0.0
C1703 C 0.00401 0.20157 0.9404 0.0
H1704 H 0.39126 0.29 0.21489 0.0
H1705 H 0.36483 0.2303 0.21691 0.0
H1706 H 0.39103 0.2184 0.1942 0.0
H1707 H 0.40621 0.28782 0.16226 0.0
H1708 H 0.42919 0.30201 0.16663 0.0
H1709 H 0.40787 0.30603 0.18241 0.0
H1710 H 0.42912 0.29915 0.21376 0.0
H1711 H 0.45047 0.29502 0.19808 0.0
H1712 H 0.44186 0.27615 0.21512 0.0
H1713 H 0.42051 0.21269 0.1723 0.0
H1714 H 0.45134 0.21357 0.15219 0.0
H1715 H 0.45881 0.27699 0.16415 0.0
C1716 C 0.39084 0.27449 0.2103 0.0
C1717 C 0.37604 0.26105 0.2177 0.0
C1718 C 0.37616 0.2408 0.2116 0.0
C1719 C 0.39091 0.23392 0.19864 0.0
C1720 C 0.40544 0.24747 0.19186 0.0
C1721 C 0.40552 0.26734 0.1974 0.0
C1722 C 0.42319 0.27865 0.18836 0.0
C1723 C 0.41619 0.29457 0.17406 0.0
C1724 C 0.43697 0.28777 0.20481 0.0
C1725 C 0.43309 0.26199 0.17703 0.0
C1726 C 0.42255 0.24415 0.1792 0.0
C1727 C 0.42886 0.22658 0.1704 0.0
C1728 C 0.44643 0.22724 0.15903 0.0
C1729 C 0.45752 0.24534 0.15657 0.0
C1730 C 0.45067 0.26292 0.16571 0.0
H1731 H 0.54094 0.38295 0.03706 0.0
H1732 H 0.48084 0.40414 0.03207 0.0
H1733 H 0.46822 0.37656 0.05281 0.0
H1734 H 0.52779 0.33126 0.0346 0.0
H1735 H 0.5461 0.32442 0.05272 0.0
H1736 H 0.55059 0.34605 0.03776 0.0
H1737 H 0.5558 0.36775 0.06996 0.0
H1738 H 0.55142 0.34616 0.08503 0.0
H1739 H 0.53663 0.36768 0.08889 0.0
H1740 H 0.46191 0.34632 0.07326 0.0
H1741 H 0.46244 0.3158 0.09295 0.0
H1742 H 0.52673 0.31457 0.08549 0.0
C1743 C 0.52517 0.38194 0.04053 0.0
C1744 C 0.51187 0.39567 0.0328 0.0
C1745 C 0.49128 0.39364 0.03752 0.0
C1746 C 0.48398 0.37809 0.0494 0.0
C1747 C 0.49744 0.36472 0.05656 0.0
C1748 C 0.51761 0.36652 0.05242 0.0
C1749 C 0.52883 0.34999 0.06187 0.0
C1750 C 0.53892 0.33717 0.04577 0.0
C1751 C 0.54407 0.3584 0.07736 0.0
C1752 C 0.51179 0.33858 0.07186 0.0
C1753 C 0.49382 0.34734 0.06859 0.0
C1754 C 0.47591 0.33936 0.07601 0.0
C1755 C 0.47636 0.32199 0.08715 0.0
C1756 C 0.49462 0.31279 0.09082 0.0
C1757 C 0.51254 0.32127 0.08304 0.0
H1758 H 0.61671 0.21154 0.2339 0.0
H1759 H 0.65356 0.26444 0.22275 0.0
H1760 H 0.62819 0.27589 0.1992 0.0
H1761 H 0.59746 0.20433 0.1833 0.0
H1762 H 0.57289 0.19634 0.1915 0.0
H1763 H 0.59431 0.19198 0.20685 0.0
H1764 H 0.57792 0.2104 0.23666 0.0
H1765 H 0.5565 0.21492 0.22137 0.0
H1766 H 0.57002 0.23541 0.23354 0.0
H1767 H 0.59888 0.2816 0.17697 0.0
H1768 H 0.56726 0.2815 0.15797 0.0
H1769 H 0.54892 0.22543 0.18447 0.0
C1770 C 0.6195 0.22541 0.22629 0.0
C1771 C 0.63708 0.23711 0.23005 0.0
C1772 C 0.64012 0.25533 0.22011 0.0
C1773 C 0.62584 0.26192 0.20669 0.0
C1774 C 0.60855 0.25016 0.20348 0.0
C1775 C 0.60529 0.23232 0.21301 0.0
C1776 C 0.58516 0.22283 0.20736 0.0
C1777 C 0.58761 0.20268 0.19661 0.0
C1778 C 0.5716 0.22078 0.22583 0.0
C1779 C 0.57765 0.23813 0.19317 0.0
C1780 C 0.59142 0.25371 0.19105 0.0
C1781 C 0.58795 0.2695 0.17853 0.0
C1782 C 0.56995 0.26931 0.1678 0.0
C1783 C 0.55558 0.25352 0.1698 0.0
C1784 C 0.55952 0.2378 0.18275 0.0
H1785 H 0.48244 0.14902 0.0233 0.0
H1786 H 0.51252 0.10284 0.05426 0.0
H1787 H 0.52582 0.12773 0.07911 0.0
H1788 H 0.51993 0.18836 0.031 0.0
H1789 H 0.50211 0.20735 0.03523 0.0
H1790 H 0.49562 0.18609 0.01943 0.0
H1791 H 0.46454 0.17836 0.04139 0.0
H1792 H 0.47089 0.19962 0.05721 0.0
H1793 H 0.46759 0.17543 0.06799 0.0
H1794 H 0.5364 0.15757 0.09992 0.0
H1795 H 0.5412 0.18995 0.11744 0.0
H1796 H 0.50244 0.21661 0.0743 0.0
C1797 C 0.49191 0.14426 0.03529 0.0
C1798 C 0.49663 0.12414 0.03693 0.0
C1799 C 0.50879 0.11825 0.05289 0.0
C1800 C 0.51645 0.13226 0.06696 0.0
C1801 C 0.51155 0.15202 0.06496 0.0
C1802 C 0.49936 0.15801 0.0497 0.0
C1803 C 0.49565 0.18 0.05154 0.0
C1804 C 0.50382 0.1911 0.03321 0.0
C1805 C 0.47334 0.18355 0.05473 0.0
C1806 C 0.50771 0.18544 0.07019 0.0
C1807 C 0.51695 0.16911 0.07752 0.0
C1808 C 0.52917 0.17045 0.09439 0.0
C1809 C 0.53186 0.18893 0.10419 0.0
C1810 C 0.52215 0.20578 0.09727 0.0
C1811 C 0.50996 0.20396 0.07999 0.0
H1812 H 0.27328 0.40502 0.70701 0.0
H1813 H 0.28342 0.37625 0.76345 0.0
H1814 H 0.30946 0.40192 0.77219 0.0
H1815 H 0.32465 0.41984 0.69725 0.0
H1816 H 0.31861 0.44335 0.68689 0.0
H1817 H 0.30102 0.42252 0.6849 0.0
H1818 H 0.27397 0.44335 0.70212 0.0
H1819 H 0.29145 0.46426 0.70409 0.0
H1820 H 0.27916 0.455 0.72622 0.0
H1821 H 0.33457 0.43041 0.7746 0.0
H1822 H 0.35555 0.46107 0.77162 0.0
H1823 H 0.32859 0.47175 0.71386 0.0
C1824 C 0.28108 0.40409 0.72115 0.0
C1825 C 0.27637 0.38866 0.73457 0.0
C1826 C 0.28668 0.38806 0.75306 0.0
C1827 C 0.30157 0.40248 0.75808 0.0
C1828 C 0.3059 0.41745 0.74449 0.0
C1829 C 0.29586 0.41845 0.72648 0.0
C1830 C 0.30297 0.43643 0.71483 0.0
C1831 C 0.31237 0.43015 0.69478 0.0
C1832 C 0.28587 0.4506 0.71164 0.0
C1833 C 0.31855 0.44539 0.72913 0.0
C1834 C 0.32012 0.43411 0.74606 0.0
C1835 C 0.33347 0.43938 0.76142 0.0
C1836 C 0.34536 0.45681 0.75956 0.0
C1837 C 0.34371 0.46885 0.74252 0.0
C1838 C 0.33021 0.46289 0.72707 0.0
H1839 H 0.26979 0.62303 0.80811 0.0
H1840 H 0.26257 0.639 0.74592 0.0
H1841 H 0.28598 0.61332 0.73568 0.0
H1842 H 0.32187 0.61537 0.8056 0.0
H1843 H 0.3211 0.59467 0.82227 0.0
H1844 H 0.30284 0.61346 0.82461 0.0
H1845 H 0.27439 0.58652 0.82079 0.0
H1846 H 0.29257 0.56763 0.81847 0.0
H1847 H 0.274 0.56997 0.79922 0.0
H1848 H 0.31147 0.58719 0.73236 0.0
H1849 H 0.33674 0.56189 0.73608 0.0
H1850 H 0.32756 0.56308 0.80049 0.0
C1851 C 0.27311 0.62113 0.79233 0.0
C1852 C 0.26427 0.63301 0.77781 0.0
C1853 C 0.26889 0.62989 0.75729 0.0
C1854 C 0.28226 0.61542 0.75134 0.0
C1855 C 0.29085 0.60413 0.76606 0.0
C1856 C 0.2864 0.60675 0.78612 0.0
C1857 C 0.29803 0.59298 0.79898 0.0
C1858 C 0.31178 0.60483 0.81373 0.0
C1859 C 0.2839 0.57841 0.81001 0.0
C1860 C 0.30993 0.5824 0.78303 0.0
C1861 C 0.30552 0.58902 0.76414 0.0
C1862 C 0.31497 0.58181 0.74706 0.0
C1863 C 0.32934 0.56746 0.74935 0.0
C1864 C 0.33413 0.56046 0.76857 0.0
C1865 C 0.32418 0.56803 0.78558 0.0
H1866 H 0.87473 0.47372 0.47642 0.0
H1867 H 0.89757 0.48388 0.53677 0.0
H1868 H 0.86974 0.46312 0.55007 0.0
H1869 H 0.8233 0.47548 0.48868 0.0
H1870 H 0.81531 0.45605 0.47119 0.0
H1871 H 0.83747 0.47106 0.46619 0.0
H1872 H 0.85807 0.43942 0.46302 0.0
H1873 H 0.83594 0.42429 0.4679 0.0
H1874 H 0.85784 0.42211 0.48325 0.0
H1875 H 0.83892 0.44245 0.55703 0.0
H1876 H 0.8074 0.42238 0.55716 0.0
H1877 H 0.80464 0.42503 0.49226 0.0
C1878 C 0.87404 0.47132 0.49239 0.0
C1879 C 0.88829 0.48051 0.50557 0.0
C1880 C 0.88668 0.47723 0.52642 0.0
C1881 C 0.87099 0.46538 0.53411 0.0
C1882 C 0.85704 0.45681 0.52077 0.0
C1883 C 0.85844 0.45952 0.50035 0.0
C1884 C 0.84119 0.44894 0.48936 0.0
C1885 C 0.82857 0.46377 0.4782 0.0
C1886 C 0.84872 0.43272 0.47504 0.0
C1887 C 0.82981 0.44001 0.50683 0.0
C1888 C 0.83926 0.44473 0.52479 0.0
C1889 C 0.83143 0.43855 0.54305 0.0
C1890 C 0.81348 0.42719 0.54296 0.0
C1891 C 0.80354 0.42209 0.52473 0.0
C1892 C 0.8119 0.4286 0.50645 0.0
H1893 H 0.71323 0.87225 0.75728 0.0
H1894 H 0.73459 0.88403 0.81791 0.0
H1895 H 0.71465 0.914 0.81996 0.0
H1896 H 0.71309 0.92346 0.74208 0.0
H1897 H 0.69058 0.92009 0.72743 0.0
H1898 H 0.7067 0.89962 0.73059 0.0
H1899 H 0.67702 0.87842 0.74456 0.0
H1900 H 0.66082 0.89884 0.74151 0.0
H1901 H 0.66317 0.88771 0.76567 0.0
H1902 H 0.69284 0.94252 0.81553 0.0
H1903 H 0.66993 0.96802 0.80515 0.0
H1904 H 0.66198 0.93786 0.7474 0.0
C1905 C 0.7138 0.88124 0.77091 0.0
C1906 C 0.72541 0.87581 0.78747 0.0
C1907 C 0.72562 0.88781 0.80515 0.0
C1908 C 0.71443 0.90489 0.80641 0.0
C1909 C 0.70305 0.90974 0.7899 0.0
C1910 C 0.70259 0.89831 0.77249 0.0
C1911 C 0.68885 0.90679 0.75706 0.0
C1912 C 0.70051 0.91285 0.73817 0.0
C1913 C 0.67143 0.89206 0.75191 0.0
C1914 C 0.6817 0.9248 0.76854 0.0
C1915 C 0.69016 0.9262 0.78742 0.0
C1916 C 0.68609 0.94159 0.8008 0.0
C1917 C 0.67305 0.95602 0.79473 0.0
C1918 C 0.66412 0.95494 0.77547 0.0
C1919 C 0.66849 0.93904 0.76225 0.0
H1920 H 0.63375 0.53876 0.01116 0.0
H1921 H 0.65105 0.51439 0.95338 0.0
H1922 H 0.6834 0.5331 0.95581 0.0
H1923 H 0.65424 0.58698 0.00383 0.0
H1924 H 0.66253 0.59105 0.02932 0.0
H1925 H 0.64149 0.57439 0.02397 0.0
H1926 H 0.65894 0.54619 0.0421 0.0
H1927 H 0.68004 0.5628 0.04755 0.0
H1928 H 0.68363 0.53957 0.03445 0.0
H1929 H 0.7128 0.55574 0.96345 0.0
H1930 H 0.73729 0.58146 0.97543 0.0
H1931 H 0.70101 0.59162 0.02828 0.0
C1932 C 0.64453 0.53709 0.99923 0.0
C1933 C 0.63997 0.5251 0.9821 0.0
C1934 C 0.65425 0.52359 0.96657 0.0
C1935 C 0.67268 0.53406 0.96787 0.0
C1936 C 0.67661 0.54599 0.9848 0.0
C1937 C 0.66298 0.54758 0.00022 0.0
C1938 C 0.67048 0.56238 0.01618 0.0
C1939 C 0.65634 0.57973 0.01845 0.0
C1940 C 0.67345 0.55212 0.03626 0.0
C1941 C 0.69029 0.56908 0.00715 0.0
C1942 C 0.69359 0.55928 0.98914 0.0
C1943 C 0.71048 0.5634 0.97761 0.0
C1944 C 0.7243 0.57808 0.98456 0.0
C1945 C 0.72113 0.58856 0.00284 0.0
C1946 C 0.70397 0.58378 0.01434 0.0
H1947 H 0.21139 0.62391 0.24599 0.0
H1948 H 0.22167 0.62181 0.1818 0.0
H1949 H 0.2018 0.59027 0.17917 0.0
H1950 H 0.2152 0.5719 0.25393 0.0
H1951 H 0.19578 0.57069 0.27257 0.0
H1952 H 0.21028 0.59343 0.26934 0.0
H1953 H 0.17784 0.61225 0.26368 0.0
H1954 H 0.16323 0.58955 0.2669 0.0
H1955 H 0.16057 0.60358 0.24442 0.0
H1956 H 0.18207 0.55838 0.18365 0.0
H1957 H 0.16291 0.52866 0.19477 0.0
H1958 H 0.16505 0.55154 0.25605 0.0
C1959 C 0.20948 0.61679 0.23139 0.0
C1960 C 0.21804 0.62535 0.21408 0.0
C1961 C 0.21503 0.61567 0.19522 0.0
C1962 C 0.20386 0.5977 0.19359 0.0
C1963 C 0.19571 0.58964 0.21094 0.0
C1964 C 0.19828 0.59889 0.22947 0.0
C1965 C 0.18803 0.58699 0.24579 0.0
C1966 C 0.20323 0.58036 0.26132 0.0
C1967 C 0.17143 0.5988 0.25578 0.0
C1968 C 0.17946 0.5695 0.23356 0.0
C1969 C 0.18409 0.57133 0.21349 0.0
C1970 C 0.17825 0.55683 0.19931 0.0
C1971 C 0.16741 0.53998 0.20579 0.0
C1972 C 0.16243 0.53778 0.22627 0.0
C1973 C 0.1685 0.55284 0.24028 0.0
H1974 H 0.88362 0.54765 0.03586 0.0
H1975 H 0.92141 0.55901 0.98431 0.0
H1976 H 0.89911 0.5852 0.97374 0.0
H1977 H 0.8377 0.553 0.01095 0.0
H1978 H 0.82556 0.56483 0.03184 0.0
H1979 H 0.84529 0.54808 0.03622 0.0
H1980 H 0.86468 0.57554 0.05682 0.0
H1981 H 0.84498 0.59239 0.0525 0.0
H1982 H 0.87028 0.59923 0.04567 0.0
H1983 H 0.87212 0.60902 0.96799 0.0
H1984 H 0.84155 0.6281 0.96665 0.0
H1985 H 0.82089 0.60106 0.02176 0.0
C1986 C 0.88735 0.5559 0.02254 0.0
C1987 C 0.90426 0.55138 0.01092 0.0
C1988 C 0.90846 0.56218 0.99335 0.0
C1989 C 0.89597 0.57715 0.9873 0.0
C1990 C 0.87932 0.58111 0.99898 0.0
C1991 C 0.87495 0.5708 0.01621 0.0
C1992 C 0.85552 0.57723 0.02542 0.0
C1993 C 0.84011 0.55974 0.02614 0.0
C1994 C 0.85908 0.58666 0.04635 0.0
C1995 C 0.8495 0.59256 0.01052 0.0
C1996 C 0.86355 0.59471 0.99551 0.0
C1997 C 0.86106 0.60756 0.97972 0.0
C1998 C 0.84362 0.61834 0.9791 0.0
C1999 C 0.8288 0.61612 0.99411 0.0
C2000 C 0.83197 0.6032 0.01013 0.0
H2001 H 0.1297 0.97314 0.04142 0.0
H2002 H 0.11019 0.98091 0.98015 0.0
H2003 H 0.13584 0.95826 0.96816 0.0
H2004 H 0.18175 0.97163 0.03101 0.0
H2005 H 0.18647 0.95293 0.04914 0.0
H2006 H 0.16628 0.96943 0.05299 0.0
H2007 H 0.14144 0.93922 0.05597 0.0
H2008 H 0.16157 0.92262 0.05212 0.0
H2009 H 0.13994 0.92077 0.03604 0.0
H2010 H 0.16393 0.93546 0.96271 0.0
H2011 H 0.1929 0.91409 0.96409 0.0
H2012 H 0.19384 0.92053 0.02896 0.0
C2013 C 0.13068 0.96991 0.0255 0.0
C2014 C 0.11798 0.97888 0.01171 0.0
C2015 C 0.11994 0.97447 0.99097 0.0
C2016 C 0.13436 0.96151 0.98402 0.0
C2017 C 0.14667 0.95301 0.998 0.0
C2018 C 0.14499 0.95699 0.0183 0.0
C2019 C 0.16036 0.94617 0.0301 0.0
C2020 C 0.17455 0.96092 0.04147 0.0
C2021 C 0.15022 0.93131 0.0444 0.0
C2022 C 0.17102 0.93559 0.01323 0.0
C2023 C 0.16285 0.93971 0.99485 0.0
C2024 C 0.17042 0.93204 0.97702 0.0
C2025 C 0.18689 0.91993 0.97797 0.0
C2026 C 0.19562 0.91559 0.99663 0.0
C2027 C 0.18743 0.92345 0.01448 0.0
loop_
_geom_bond_atom_site_label_1
_geom_bond_atom_site_label_2
_geom_bond_distance
_geom_bond_site_symmetry_2
_ccdc_geom_bond_type
C0 C1 1.384 . S
C0 H13 0.947 . S
C0 C35 1.382 . S
C1 C0 1.384 . S
C1 C2 1.378 1_655 S
C2 C1 1.378 1_455 S
C2 C3 1.378 . S
C2 H14 0.952 . S
C3 C2 1.378 . S
C3 H15 0.950 . S
C3 C34 1.383 . S
H4 C23 0.947 . S
H5 C24 0.946 . S
H6 C26 0.953 . S
H7 C27 0.945 . S
H8 C29 0.944 1_556 S
H9 C30 0.949 . S
H10 C32 0.950 . S
H11 C33 0.948 . S
H12 C35 0.951 . S
H13 C0 0.947 . S
H14 C2 0.952 . S
H15 C3 0.950 . S
N16 C19 1.382 . S
N16 C21 1.363 . S
N17 C19 1.371 . S
N17 C20 1.372 . S
N18 C20 1.361 . S
N18 C21 1.377 . S
C19 N16 1.382 . S
C19 N17 1.371 . S
C19 C22 1.480 . S
C20 N17 1.372 . S
C20 N18 1.361 . S
C20 C28 1.457 . S
C21 N16 1.363 . S
C21 N18 1.377 . S
C21 C34 1.479 . S
C22 C19 1.480 . S
C22 C23 1.383 . S
C22 C27 1.385 . S
C23 H4 0.947 . S
C23 C22 1.383 . S
C23 C24 1.388 1_545 S
C24 H5 0.946 . S
C24 C23 1.388 1_565 S
C24 C25 1.384 . S
C25 C24 1.384 . S
C25 C26 1.377 1_565 S
C26 H6 0.953 . S
C26 C25 1.377 1_545 S
C26 C27 1.369 . S
C27 H7 0.945 . S
C27 C22 1.385 . S
C27 C26 1.369 . S
C28 C20 1.457 . S
C28 C29 1.372 . S
C28 C33 1.364 . S
C29 H8 0.944 1_554 S
C29 C28 1.372 . S
C29 C30 1.389 1_554 S
C30 H9 0.949 . S
C30 C29 1.389 1_556 S
C30 C31 1.387 . S
C31 C30 1.387 . S
C31 C32 1.372 1_556 S
C32 H10 0.950 . S
C32 C31 1.372 1_554 S
C32 C33 1.379 . S
C33 H11 0.948 . S
C33 C28 1.364 . S
C33 C32 1.379 . S
C34 C3 1.383 . S
C34 C21 1.479 . S
C34 C35 1.398 1_455 S
C35 C0 1.382 . S
C35 H12 0.951 . S
C35 C34 1.398 1_655 S
C36 C37 1.384 . S
C36 H49 0.947 . S
C36 C71 1.382 . S
C37 C36 1.384 . S
C37 C38 1.378 . S
C38 C37 1.378 . S
C38 C39 1.378 . S
C38 H50 0.952 . S
C39 C38 1.378 . S
C39 H51 0.950 . S
C39 C70 1.383 . S
H40 C59 0.947 . S
H41 C60 0.946 . S
H42 C62 0.953 . S
H43 C63 0.945 . S
H44 C65 0.952 . S
H45 C66 0.949 . S
H46 C68 0.950 . S
H47 C69 0.948 . S
H48 C71 0.951 . S
H49 C36 0.947 . S
H50 C38 0.952 . S
H51 C39 0.950 . S
N52 C55 1.382 . S
N52 C57 1.363 . S
N53 C55 1.371 . S
N53 C56 1.372 . S
N54 C56 1.361 . S
N54 C57 1.377 . S
C55 N52 1.382 . S
C55 N53 1.371 . S
C55 C58 1.480 . S
C56 N53 1.372 . S
C56 N54 1.361 . S
C56 C64 1.457 . S
C57 N52 1.363 . S
C57 N54 1.377 . S
C57 C70 1.479 . S
C58 C55 1.480 . S
C58 C59 1.383 . S
C58 C63 1.385 . S
C59 H40 0.947 . S
C59 C58 1.383 . S
C59 C60 1.388 . S
C60 H41 0.946 . S
C60 C59 1.388 . S
C60 C61 1.384 . S
C61 C60 1.384 . S
C61 C62 1.377 . S
C62 H42 0.953 . S
C62 C61 1.377 . S
C62 C63 1.369 . S
C63 H43 0.945 . S
C63 C58 1.385 . S
C63 C62 1.369 . S
C64 C56 1.457 . S
C64 C65 1.372 . S
C64 C69 1.364 . S
C65 H44 0.952 . S
C65 C64 1.372 . S
C65 C66 1.389 . S
C66 H45 0.949 . S
C66 C65 1.389 . S
C66 C67 1.387 . S
C67 C66 1.387 . S
C67 C68 1.372 . S
C68 H46 0.950 . S
C68 C67 1.372 . S
C68 C69 1.379 . S
C69 H47 0.948 . S
C69 C64 1.364 . S
C69 C68 1.379 . S
C70 C39 1.383 . S
C70 C57 1.479 . S
C70 C71 1.398 . S
C71 C36 1.382 . S
C71 H48 0.951 . S
C71 C70 1.398 . S
C72 C73 1.340 1_554 S
C72 H85 0.961 . S
C72 C107 1.415 . S
C73 C72 1.340 1_556 S
C73 C74 1.378 . S
C74 C73 1.378 . S
C74 C75 1.378 . S
C74 H86 0.952 . S
C75 C74 1.378 . S
C75 H87 0.950 . S
C75 C106 1.383 1_556 S
H76 C95 0.947 . S
H77 C96 0.946 . S
H78 C98 0.953 . S
H79 C99 0.945 . S
H80 C101 0.952 . S
H81 C102 0.945 1_655 S
H82 C104 0.950 . S
H83 C105 0.948 . S
H84 C107 0.951 . S
H85 C72 0.961 . S
H86 C74 0.952 . S
H87 C75 0.950 . S
N88 C91 1.382 . S
N88 C93 1.363 . S
N89 C91 1.371 . S
N89 C92 1.372 . S
N90 C92 1.361 . S
N90 C93 1.377 . S
C91 N88 1.382 . S
C91 N89 1.371 . S
C91 C94 1.480 . S
C92 N89 1.372 . S
C92 N90 1.361 . S
C92 C100 1.457 . S
C93 N88 1.363 . S
C93 N90 1.377 . S
C93 C106 1.479 . S
C94 C91 1.480 . S
C94 C95 1.383 . S
C94 C99 1.385 . S
C95 H76 0.947 . S
C95 C94 1.383 . S
C95 C96 1.388 . S
C96 H77 0.946 . S
C96 C95 1.388 . S
C96 C97 1.384 . S
C97 C96 1.384 . S
C97 C98 1.377 . S
C98 H78 0.953 . S
C98 C97 1.377 . S
C98 C99 1.369 . S
C99 H79 0.945 . S
C99 C94 1.385 . S
C99 C98 1.369 . S
C100 C92 1.457 . S
C100 C101 1.372 . S
C100 C105 1.364 1_655 S
C101 H80 0.952 . S
C101 C100 1.372 . S
C101 C102 1.380 1_655 S
C102 H81 0.945 1_455 S
C102 C101 1.380 1_455 S
C102 C103 1.398 . S
C103 C102 1.398 . S
C103 C104 1.372 . S
C104 H82 0.950 . S
C104 C103 1.372 . S
C104 C105 1.379 . S
C105 H83 0.948 . S
C105 C100 1.364 1_455 S
C105 C104 1.379 . S
C106 C75 1.383 1_554 S
C106 C93 1.479 . S
C106 C107 1.398 . S
C107 C72 1.415 . S
C107 H84 0.951 . S
C107 C106 1.398 . S
C108 C109 1.384 . S
C108 H121 0.947 . S
C108 C143 1.382 . S
C109 C108 1.384 . S
C109 C110 1.378 . S
C110 C109 1.378 . S
C110 C111 1.378 . S
C110 H122 0.952 . S
C111 C110 1.378 . S
C111 H123 0.950 . S
C111 C142 1.383 . S
H112 C131 0.947 . S
H113 C132 0.946 . S
H114 C134 0.953 . S
H115 C135 0.945 . S
H116 C137 0.952 . S
H117 C138 0.949 . S
H118 C140 0.950 . S
H119 C141 0.948 . S
H120 C143 0.951 . S
H121 C108 0.947 . S
H122 C110 0.952 . S
H123 C111 0.950 . S
N124 C127 1.382 . S
N124 C129 1.363 . S
N125 C127 1.371 . S
N125 C128 1.372 . S
N126 C128 1.361 . S
N126 C129 1.377 . S
C127 N124 1.382 . S
C127 N125 1.371 . S
C127 C130 1.480 . S
C128 N125 1.372 . S
C128 N126 1.361 . S
C128 C136 1.457 . S
C129 N124 1.363 . S
C129 N126 1.377 . S
C129 C142 1.479 . S
C130 C127 1.480 . S
C130 C131 1.383 . S
C130 C135 1.385 . S
C131 H112 0.947 . S
C131 C130 1.383 . S
C131 C132 1.388 . S
C132 H113 0.946 . S
C132 C131 1.388 . S
C132 C133 1.384 . S
C133 C132 1.384 . S
C133 C134 1.377 . S
C134 H114 0.953 . S
C134 C133 1.377 . S
C134 C135 1.369 . S
C135 H115 0.945 . S
C135 C130 1.385 . S
C135 C134 1.369 . S
C136 C128 1.457 . S
C136 C137 1.372 . S
C136 C141 1.364 . S
C137 H116 0.952 . S
C137 C136 1.372 . S
C137 C138 1.389 . S
C138 H117 0.949 . S
C138 C137 1.389 . S
C138 C139 1.387 . S
C139 C138 1.387 . S
C139 C140 1.372 . S
C140 H118 0.950 . S
C140 C139 1.372 . S
C140 C141 1.379 . S
C141 H119 0.948 . S
C141 C136 1.364 . S
C141 C140 1.379 . S
C142 C111 1.383 . S
C142 C129 1.479 . S
C142 C143 1.398 . S
C143 C108 1.382 . S
C143 H120 0.951 . S
C143 C142 1.398 . S
C144 C145 1.384 . S
C144 H157 0.947 . S
C144 C179 1.382 . S
C145 C144 1.384 . S
C145 C146 1.378 . S
C146 C145 1.378 . S
C146 C147 1.378 . S
C146 H158 0.952 . S
C147 C146 1.378 . S
C147 H159 0.950 . S
C147 C178 1.383 . S
H148 C167 0.947 . S
H149 C168 0.946 . S
H150 C170 0.953 1_545 S
H151 C171 0.938 1_545 S
H152 C173 0.952 . S
H153 C174 0.949 . S
H154 C176 0.950 . S
H155 C177 0.948 . S
H156 C179 0.951 . S
H157 C144 0.947 . S
H158 C146 0.952 . S
H159 C147 0.950 . S
N160 C163 1.382 . S
N160 C165 1.363 . S
N161 C163 1.371 . S
N161 C164 1.372 . S
N162 C164 1.361 . S
N162 C165 1.377 . S
C163 N160 1.382 . S
C163 N161 1.371 . S
C163 C166 1.480 . S
C164 N161 1.372 . S
C164 N162 1.361 . S
C164 C172 1.457 . S
C165 N160 1.363 . S
C165 N162 1.377 . S
C165 C178 1.479 . S
C166 C163 1.480 . S
C166 C167 1.383 1_455 S
C166 C171 1.385 . S
C167 H148 0.947 . S
C167 C166 1.383 1_655 S
C167 C168 1.388 . S
C168 H149 0.946 . S
C168 C167 1.388 . S
C168 C169 1.384 . S
C169 C168 1.384 . S
C169 C170 1.377 1_655 S
C170 H150 0.953 1_565 S
C170 C169 1.377 1_455 S
C170 C171 1.369 . S
C171 H151 0.938 1_565 S
C171 C166 1.385 . S
C171 C170 1.369 . S
C172 C164 1.457 . S
C172 C173 1.372 1_565 S
C172 C177 1.364 . S
C173 H152 0.952 . S
C173 C172 1.372 1_545 S
C173 C174 1.389 . S
C174 H153 0.949 . S
C174 C173 1.389 . S
C174 C175 1.387 . S
C175 C174 1.387 . S
C175 C176 1.372 . S
C176 H154 0.950 . S
C176 C175 1.372 . S
C176 C177 1.379 1_545 S
C177 H155 0.948 . S
C177 C172 1.364 . S
C177 C176 1.379 1_565 S
C178 C147 1.383 . S
C178 C165 1.479 . S
C178 C179 1.398 . S
C179 C144 1.382 . S
C179 H156 0.951 . S
C179 C178 1.398 . S
C180 C181 1.384 . S
C180 H193 0.947 . S
C180 C215 1.382 . S
C181 C180 1.384 . S
C181 C182 1.378 . S
C182 C181 1.378 . S
C182 C183 1.378 . S
C182 H194 0.952 . S
C183 C182 1.378 . S
C183 H195 0.950 . S
C183 C214 1.383 . S
H184 C203 0.947 . S
H185 C204 0.946 . S
H186 C206 0.953 . S
H187 C207 0.945 . S
H188 C209 0.952 . S
H189 C210 0.949 . S
H190 C212 0.950 . S
H191 C213 0.948 . S
H192 C215 0.951 . S
H193 C180 0.947 . S
H194 C182 0.952 . S
H195 C183 0.950 . S
N196 C199 1.382 . S
N196 C201 1.363 . S
N197 C199 1.371 . S
N197 C200 1.372 . S
N198 C200 1.361 . S
N198 C201 1.377 . S
C199 N196 1.382 . S
C199 N197 1.371 . S
C199 C202 1.480 . S
C200 N197 1.372 . S
C200 N198 1.361 . S
C200 C208 1.457 . S
C201 N196 1.363 . S
C201 N198 1.377 . S
C201 C214 1.479 . S
C202 C199 1.480 . S
C202 C203 1.383 . S
C202 C207 1.385 . S
C203 H184 0.947 . S
C203 C202 1.383 . S
C203 C204 1.388 . S
C204 H185 0.946 . S
C204 C203 1.388 . S
C204 C205 1.384 . S
C205 C204 1.384 . S
C205 C206 1.377 . S
C206 H186 0.953 . S
C206 C205 1.377 . S
C206 C207 1.369 . S
C207 H187 0.945 . S
C207 C202 1.385 . S
C207 C206 1.369 . S
C208 C200 1.457 . S
C208 C209 1.372 . S
C208 C213 1.364 . S
C209 H188 0.952 . S
C209 C208 1.372 . S
C209 C210 1.389 . S
C210 H189 0.949 . S
C210 C209 1.389 . S
C210 C211 1.387 . S
C211 C210 1.387 . S
C211 C212 1.372 . S
C212 H190 0.950 . S
C212 C211 1.372 . S
C212 C213 1.379 . S
C213 H191 0.948 . S
C213 C208 1.364 . S
C213 C212 1.379 . S
C214 C183 1.383 . S
C214 C201 1.479 . S
C214 C215 1.398 . S
C215 C180 1.382 . S
C215 H192 0.951 . S
C215 C214 1.398 . S
C216 C217 1.384 . S
C216 H229 0.919 1_655 S
C216 C251 1.382 . S
C217 C216 1.384 . S
C217 C218 1.378 . S
C218 C217 1.378 . S
C218 C219 1.378 . S
C218 H230 0.952 . S
C219 C218 1.378 . S
C219 H231 0.950 . S
C219 C250 1.383 . S
H220 C239 0.947 . S
H221 C240 0.946 . S
H222 C242 0.953 . S
H223 C243 0.945 . S
H224 C245 0.952 . S
H225 C246 0.949 . S
H226 C248 0.950 . S
H227 C249 0.948 . S
H228 C251 0.951 . S
H229 C216 0.919 1_455 S
H230 C218 0.952 . S
H231 C219 0.950 . S
N232 C235 1.382 . S
N232 C237 1.363 . S
N233 C235 1.371 . S
N233 C236 1.372 . S
N234 C236 1.361 . S
N234 C237 1.377 . S
C235 N232 1.382 . S
C235 N233 1.371 . S
C235 C238 1.480 . S
C236 N233 1.372 . S
C236 N234 1.361 . S
C236 C244 1.457 . S
C237 N232 1.363 . S
C237 N234 1.377 . S
C237 C250 1.479 . S
C238 C235 1.480 . S
C238 C239 1.383 . S
C238 C243 1.385 . S
C239 H220 0.947 . S
C239 C238 1.383 . S
C239 C240 1.388 . S
C240 H221 0.946 . S
C240 C239 1.388 . S
C240 C241 1.384 . S
C241 C240 1.384 . S
C241 C242 1.377 . S
C242 H222 0.953 . S
C242 C241 1.377 . S
C242 C243 1.369 . S
C243 H223 0.945 . S
C243 C238 1.385 . S
C243 C242 1.369 . S
C244 C236 1.457 . S
C244 C245 1.372 . S
C244 C249 1.364 1_655 S
C245 H224 0.952 . S
C245 C244 1.372 . S
C245 C246 1.389 . S
C246 H225 0.949 . S
C246 C245 1.389 . S
C246 C247 1.387 1_655 S
C247 C246 1.387 1_455 S
C247 C248 1.372 . S
C248 H226 0.950 . S
C248 C247 1.372 . S
C248 C249 1.379 . S
C249 H227 0.948 . S
C249 C244 1.364 1_455 S
C249 C248 1.379 . S
C250 C219 1.383 . S
C250 C237 1.479 . S
C250 C251 1.398 . S
C251 C216 1.382 . S
C251 H228 0.951 . S
C251 C250 1.398 . S
C252 C253 1.384 . S
C252 H265 0.947 . S
C252 C287 1.382 . S
C253 C252 1.384 . S
C253 C254 1.378 . S
C254 C253 1.378 . S
C254 C255 1.378 . S
C254 H266 0.952 . S
C255 C254 1.378 . S
C255 H267 0.950 . S
C255 C286 1.383 . S
H256 C275 0.947 . S
H257 C276 0.946 . S
H258 C278 0.953 . S
H259 C279 0.945 . S
H260 C281 0.952 . S
H261 C282 0.949 . S
H262 C284 0.950 . S
H263 C285 0.948 . S
H264 C287 0.951 . S
H265 C252 0.947 . S
H266 C254 0.952 . S
H267 C255 0.950 . S
N268 C271 1.382 . S
N268 C273 1.363 . S
N269 C271 1.371 . S
N269 C272 1.372 . S
N270 C272 1.361 . S
N270 C273 1.377 . S
C271 N268 1.382 . S
C271 N269 1.371 . S
C271 C274 1.480 . S
C272 N269 1.372 . S
C272 N270 1.361 . S
C272 C280 1.457 . S
C273 N268 1.363 . S
C273 N270 1.377 . S
C273 C286 1.479 . S
C274 C271 1.480 . S
C274 C275 1.383 . S
C274 C279 1.385 . S
C275 H256 0.947 . S
C275 C274 1.383 . S
C275 C276 1.388 . S
C276 H257 0.946 . S
C276 C275 1.388 . S
C276 C277 1.384 . S
C277 C276 1.384 . S
C277 C278 1.377 . S
C278 H258 0.953 . S
C278 C277 1.377 . S
C278 C279 1.369 . S
C279 H259 0.945 . S
C279 C274 1.385 . S
C279 C278 1.369 . S
C280 C272 1.457 . S
C280 C281 1.372 . S
C280 C285 1.364 . S
C281 H260 0.952 . S
C281 C280 1.372 . S
C281 C282 1.389 . S
C282 H261 0.949 . S
C282 C281 1.389 . S
C282 C283 1.387 . S
C283 C282 1.387 . S
C283 C284 1.372 . S
C284 H262 0.950 . S
C284 C283 1.372 . S
C284 C285 1.379 . S
C285 H263 0.948 . S
C285 C280 1.364 . S
C285 C284 1.379 . S
C286 C255 1.383 . S
C286 C273 1.479 . S
C286 C287 1.398 . S
C287 C252 1.382 . S
C287 H264 0.951 . S
C287 C286 1.398 . S
C288 C289 1.384 . S
C288 H301 0.947 . S
C288 C323 1.382 . S
C289 C288 1.384 . S
C289 C290 1.378 . S
C290 C289 1.378 . S
C290 C291 1.378 . S
C290 H302 0.952 . S
C291 C290 1.378 . S
C291 H303 0.950 . S
C291 C322 1.383 . S
H292 C311 0.947 . S
H293 C312 0.946 . S
H294 C314 0.953 . S
H295 C315 0.945 . S
H296 C317 0.952 . S
H297 C318 0.949 . S
H298 C320 0.950 . S
H299 C321 0.948 . S
H300 C323 0.951 . S
H301 C288 0.947 . S
H302 C290 0.952 . S
H303 C291 0.950 . S
N304 C307 1.382 . S
N304 C309 1.363 . S
N305 C307 1.371 . S
N305 C308 1.372 . S
N306 C308 1.361 . S
N306 C309 1.377 . S
C307 N304 1.382 . S
C307 N305 1.371 . S
C307 C310 1.480 . S
C308 N305 1.372 . S
C308 N306 1.361 . S
C308 C316 1.457 . S
C309 N304 1.363 . S
C309 N306 1.377 . S
C309 C322 1.479 . S
C310 C307 1.480 . S
C310 C311 1.383 . S
C310 C315 1.385 . S
C311 H292 0.947 . S
C311 C310 1.383 . S
C311 C312 1.388 . S
C312 H293 0.946 . S
C312 C311 1.388 . S
C312 C313 1.384 . S
C313 C312 1.384 . S
C313 C314 1.377 . S
C314 H294 0.953 . S
C314 C313 1.377 . S
C314 C315 1.369 . S
C315 H295 0.945 . S
C315 C310 1.385 . S
C315 C314 1.369 . S
C316 C308 1.457 . S
C316 C317 1.372 . S
C316 C321 1.364 . S
C317 H296 0.952 . S
C317 C316 1.372 . S
C317 C318 1.389 . S
C318 H297 0.949 . S
C318 C317 1.389 . S
C318 C319 1.387 . S
C319 C318 1.387 . S
C319 C320 1.372 . S
C320 H298 0.950 . S
C320 C319 1.372 . S
C320 C321 1.379 . S
C321 H299 0.948 . S
C321 C316 1.364 . S
C321 C320 1.379 . S
C322 C291 1.383 . S
C322 C309 1.479 . S
C322 C323 1.398 . S
C323 C288 1.382 . S
C323 H300 0.951 . S
C323 C322 1.398 . S
C324 C325 1.384 . S
C324 H337 0.947 . S
C324 C359 1.382 . S
C325 C324 1.384 . S
C325 C326 1.378 . S
C326 C325 1.378 . S
C326 C327 1.378 . S
C326 H338 0.952 . S
C327 C326 1.378 . S
C327 H339 0.950 . S
C327 C358 1.383 . S
H328 C347 0.947 . S
H329 C348 0.939 1_565 S
H330 C350 0.953 . S
H331 C351 0.945 . S
H332 C353 0.952 . S
H333 C354 0.949 1_545 S
H334 C356 0.950 . S
H335 C357 0.948 . S
H336 C359 0.951 . S
H337 C324 0.947 . S
H338 C326 0.952 . S
H339 C327 0.950 . S
N340 C343 1.382 . S
N340 C345 1.363 . S
N341 C343 1.371 . S
N341 C344 1.372 . S
N342 C344 1.361 . S
N342 C345 1.377 . S
C343 N340 1.382 . S
C343 N341 1.371 . S
C343 C346 1.480 . S
C344 N341 1.372 . S
C344 N342 1.361 . S
C344 C352 1.457 . S
C345 N340 1.363 . S
C345 N342 1.377 . S
C345 C358 1.479 . S
C346 C343 1.480 . S
C346 C347 1.383 . S
C346 C351 1.385 1_565 S
C347 H328 0.947 . S
C347 C346 1.383 . S
C347 C348 1.388 1_565 S
C348 H329 0.939 1_545 S
C348 C347 1.388 1_545 S
C348 C349 1.384 . S
C349 C348 1.384 . S
C349 C350 1.377 . S
C350 H330 0.953 . S
C350 C349 1.377 . S
C350 C351 1.369 . S
C351 H331 0.945 . S
C351 C346 1.385 1_545 S
C351 C350 1.369 . S
C352 C344 1.457 . S
C352 C353 1.372 . S
C352 C357 1.364 . S
C353 H332 0.952 . S
C353 C352 1.372 . S
C353 C354 1.389 . S
C354 H333 0.949 1_565 S
C354 C353 1.389 . S
C354 C355 1.387 . S
C355 C354 1.387 . S
C355 C356 1.372 . S
C356 H334 0.950 . S
C356 C355 1.372 . S
C356 C357 1.379 . S
C357 H335 0.948 . S
C357 C352 1.364 . S
C357 C356 1.379 . S
C358 C327 1.383 . S
C358 C345 1.479 . S
C358 C359 1.398 . S
C359 C324 1.382 . S
C359 H336 0.951 . S
C359 C358 1.398 . S
C360 C361 1.384 . S
C360 H373 0.947 . S
C360 C395 1.382 . S
C361 C360 1.384 . S
C361 C362 1.378 . S
C362 C361 1.378 . S
C362 C363 1.378 . S
C362 H374 0.952 . S
C363 C362 1.378 . S
C363 H375 0.950 . S
C363 C394 1.383 . S
H364 C383 0.947 . S
H365 C384 0.946 . S
H366 C386 0.953 . S
H367 C387 0.945 . S
H368 C389 0.952 . S
H369 C390 0.949 . S
H370 C392 0.950 . S
H371 C393 0.948 . S
H372 C395 0.951 . S
H373 C360 0.947 . S
H374 C362 0.952 . S
H375 C363 0.950 . S
N376 C379 1.382 . S
N376 C381 1.363 . S
N377 C379 1.371 . S
N377 C380 1.372 . S
N378 C380 1.361 . S
N378 C381 1.377 . S
C379 N376 1.382 . S
C379 N377 1.371 . S
C379 C382 1.480 . S
C380 N377 1.372 . S
C380 N378 1.361 . S
C380 C388 1.457 . S
C381 N376 1.363 . S
C381 N378 1.377 . S
C381 C394 1.479 . S
C382 C379 1.480 . S
C382 C383 1.383 . S
C382 C387 1.385 . S
C383 H364 0.947 . S
C383 C382 1.383 . S
C383 C384 1.388 . S
C384 H365 0.946 . S
C384 C383 1.388 . S
C384 C385 1.384 . S
C385 C384 1.384 . S
C385 C386 1.377 . S
C386 H366 0.953 . S
C386 C385 1.377 . S
C386 C387 1.369 . S
C387 H367 0.945 . S
C387 C382 1.385 . S
C387 C386 1.369 . S
C388 C380 1.457 . S
C388 C389 1.372 . S
C388 C393 1.364 . S
C389 H368 0.952 . S
C389 C388 1.372 . S
C389 C390 1.389 . S
C390 H369 0.949 . S
C390 C389 1.389 . S
C390 C391 1.387 . S
C391 C390 1.387 . S
C391 C392 1.372 . S
C392 H370 0.950 . S
C392 C391 1.372 . S
C392 C393 1.379 . S
C393 H371 0.948 . S
C393 C388 1.364 . S
C393 C392 1.379 . S
C394 C363 1.383 . S
C394 C381 1.479 . S
C394 C395 1.398 . S
C395 C360 1.382 . S
C395 H372 0.951 . S
C395 C394 1.398 . S
C396 C397 1.384 . S
C396 H409 0.947 . S
C396 C431 1.382 . S
C397 C396 1.384 . S
C397 C398 1.378 . S
C398 C397 1.378 . S
C398 C399 1.378 . S
C398 H410 0.952 . S
C399 C398 1.378 . S
C399 H411 0.950 . S
C399 C430 1.383 . S
H400 C419 0.947 . S
H401 C420 0.946 . S
H402 C422 0.953 . S
H403 C423 0.945 . S
H404 C425 0.952 . S
H405 C426 0.949 . S
H406 C428 0.950 . S
H407 C429 0.948 . S
H408 C431 0.951 . S
H409 C396 0.947 . S
H410 C398 0.952 . S
H411 C399 0.950 . S
N412 C415 1.382 . S
N412 C417 1.363 . S
N413 C415 1.371 . S
N413 C416 1.372 . S
N414 C416 1.361 . S
N414 C417 1.377 . S
C415 N412 1.382 . S
C415 N413 1.371 . S
C415 C418 1.480 . S
C416 N413 1.372 . S
C416 N414 1.361 . S
C416 C424 1.457 . S
C417 N412 1.363 . S
C417 N414 1.377 . S
C417 C430 1.479 . S
C418 C415 1.480 . S
C418 C419 1.383 . S
C418 C423 1.385 . S
C419 H400 0.947 . S
C419 C418 1.383 . S
C419 C420 1.388 . S
C420 H401 0.946 . S
C420 C419 1.388 . S
C420 C421 1.384 . S
C421 C420 1.384 . S
C421 C422 1.377 . S
C422 H402 0.953 . S
C422 C421 1.377 . S
C422 C423 1.369 . S
C423 H403 0.945 . S
C423 C418 1.385 . S
C423 C422 1.369 . S
C424 C416 1.457 . S
C424 C425 1.372 . S
C424 C429 1.364 . S
C425 H404 0.952 . S
C425 C424 1.372 . S
C425 C426 1.389 . S
C426 H405 0.949 . S
C426 C425 1.389 . S
C426 C427 1.387 . S
C427 C426 1.387 . S
C427 C428 1.372 . S
C428 H406 0.950 . S
C428 C427 1.372 . S
C428 C429 1.379 . S
C429 H407 0.948 . S
C429 C424 1.364 . S
C429 C428 1.379 . S
C430 C399 1.383 . S
C430 C417 1.479 . S
C430 C431 1.398 . S
C431 C396 1.382 . S
C431 H408 0.951 . S
C431 C430 1.398 . S
C432 C433 1.384 . S
C432 H445 0.947 . S
C432 C467 1.382 . S
C433 C432 1.384 . S
C433 C434 1.378 . S
C434 C433 1.378 . S
C434 C435 1.378 . S
C434 H446 0.952 . S
C435 C434 1.378 . S
C435 H447 0.950 . S
C435 C466 1.383 . S
H436 C455 0.947 . S
H437 C456 0.946 . S
H438 C458 0.953 . S
H439 C459 0.945 . S
H440 C461 0.952 . S
H441 C462 0.949 . S
H442 C464 0.950 . S
H443 C465 0.948 . S
H444 C467 0.951 . S
H445 C432 0.947 . S
H446 C434 0.952 . S
H447 C435 0.950 . S
N448 C451 1.382 . S
N448 C453 1.363 . S
N449 C451 1.371 . S
N449 C452 1.372 . S
N450 C452 1.361 . S
N450 C453 1.377 . S
C451 N448 1.382 . S
C451 N449 1.371 . S
C451 C454 1.480 . S
C452 N449 1.372 . S
C452 N450 1.361 . S
C452 C460 1.457 . S
C453 N448 1.363 . S
C453 N450 1.377 . S
C453 C466 1.479 . S
C454 C451 1.480 . S
C454 C455 1.383 . S
C454 C459 1.385 . S
C455 H436 0.947 . S
C455 C454 1.383 . S
C455 C456 1.388 . S
C456 H437 0.946 . S
C456 C455 1.388 . S
C456 C457 1.384 . S
C457 C456 1.384 . S
C457 C458 1.377 . S
C458 H438 0.953 . S
C458 C457 1.377 . S
C458 C459 1.369 . S
C459 H439 0.945 . S
C459 C454 1.385 . S
C459 C458 1.369 . S
C460 C452 1.457 . S
C460 C461 1.372 . S
C460 C465 1.364 . S
C461 H440 0.952 . S
C461 C460 1.372 . S
C461 C462 1.389 . S
C462 H441 0.949 . S
C462 C461 1.389 . S
C462 C463 1.387 . S
C463 C462 1.387 . S
C463 C464 1.372 . S
C464 H442 0.950 . S
C464 C463 1.372 . S
C464 C465 1.379 . S
C465 H443 0.948 . S
C465 C460 1.364 . S
C465 C464 1.379 . S
C466 C435 1.383 . S
C466 C453 1.479 . S
C466 C467 1.398 . S
C467 C432 1.382 . S
C467 H444 0.951 . S
C467 C466 1.398 . S
C468 C469 1.384 . S
C468 H481 0.947 . S
C468 C503 1.386 . S
C469 C468 1.384 . S
C469 C470 1.378 1_554 S
C470 C469 1.378 1_556 S
C470 C471 1.378 . S
C470 H482 0.952 . S
C471 C470 1.378 . S
C471 H483 0.950 . S
C471 C502 1.383 . S
H472 C491 0.947 . S
H473 C492 0.946 . S
H474 C494 0.953 . S
H475 C495 0.945 . S
H476 C497 0.952 . S
H477 C498 0.949 . S
H478 C500 0.950 . S
H479 C501 0.948 . S
H480 C503 0.952 . S
H481 C468 0.947 . S
H482 C470 0.952 . S
H483 C471 0.950 . S
N484 C487 1.382 . S
N484 C489 1.363 . S
N485 C487 1.371 . S
N485 C488 1.372 . S
N486 C488 1.361 . S
N486 C489 1.377 . S
C487 N484 1.382 . S
C487 N485 1.371 . S
C487 C490 1.480 . S
C488 N485 1.372 . S
C488 N486 1.361 . S
C488 C496 1.457 . S
C489 N484 1.363 . S
C489 N486 1.377 . S
C489 C502 1.479 . S
C490 C487 1.480 . S
C490 C491 1.383 . S
C490 C495 1.385 . S
C491 H472 0.947 . S
C491 C490 1.383 . S
C491 C492 1.388 . S
C492 H473 0.946 . S
C492 C491 1.388 . S
C492 C493 1.384 . S
C493 C492 1.384 . S
C493 C494 1.377 . S
C494 H474 0.953 . S
C494 C493 1.377 . S
C494 C495 1.369 . S
C495 H475 0.945 . S
C495 C490 1.385 . S
C495 C494 1.369 . S
C496 C488 1.457 . S
C496 C497 1.372 . S
C496 C501 1.364 . S
C497 H476 0.952 . S
C497 C496 1.372 . S
C497 C498 1.389 . S
C498 H477 0.949 . S
C498 C497 1.389 . S
C498 C499 1.387 . S
C499 C498 1.387 . S
C499 C500 1.372 . S
C500 H478 0.950 . S
C500 C499 1.372 . S
C500 C501 1.379 . S
C501 H479 0.948 . S
C501 C496 1.364 . S
C501 C500 1.379 . S
C502 C471 1.383 . S
C502 C489 1.479 . S
C502 C503 1.393 1_556 S
C503 C468 1.386 . S
C503 H480 0.952 . S
C503 C502 1.393 1_554 S
C504 C505 1.384 . S
C504 H517 0.947 . S
C504 C539 1.382 . S
C505 C504 1.384 . S
C505 C506 1.378 . S
C506 C505 1.378 . S
C506 C507 1.378 . S
C506 H518 0.952 . S
C507 C506 1.378 . S
C507 H519 0.950 . S
C507 C538 1.383 . S
H508 C527 0.947 . S
H509 C528 0.946 . S
H510 C530 0.953 . S
H511 C531 0.945 . S
H512 C533 0.952 . S
H513 C534 0.949 . S
H514 C536 0.950 . S
H515 C537 0.948 . S
H516 C539 0.951 . S
H517 C504 0.947 . S
H518 C506 0.952 . S
H519 C507 0.950 . S
N520 C523 1.382 . S
N520 C525 1.363 . S
N521 C523 1.371 . S
N521 C524 1.372 . S
N522 C524 1.361 . S
N522 C525 1.377 . S
C523 N520 1.382 . S
C523 N521 1.371 . S
C523 C526 1.480 . S
C524 N521 1.372 . S
C524 N522 1.361 . S
C524 C532 1.457 . S
C525 N520 1.363 . S
C525 N522 1.377 . S
C525 C538 1.479 . S
C526 C523 1.480 . S
C526 C527 1.383 . S
C526 C531 1.385 . S
C527 H508 0.947 . S
C527 C526 1.383 . S
C527 C528 1.388 . S
C528 H509 0.946 . S
C528 C527 1.388 . S
C528 C529 1.384 . S
C529 C528 1.384 . S
C529 C530 1.377 . S
C530 H510 0.953 . S
C530 C529 1.377 . S
C530 C531 1.369 . S
C531 H511 0.945 . S
C531 C526 1.385 . S
C531 C530 1.369 . S
C532 C524 1.457 . S
C532 C533 1.372 . S
C532 C537 1.364 . S
C533 H512 0.952 . S
C533 C532 1.372 . S
C533 C534 1.389 . S
C534 H513 0.949 . S
C534 C533 1.389 . S
C534 C535 1.387 . S
C535 C534 1.387 . S
C535 C536 1.372 . S
C536 H514 0.950 . S
C536 C535 1.372 . S
C536 C537 1.379 . S
C537 H515 0.948 . S
C537 C532 1.364 . S
C537 C536 1.379 . S
C538 C507 1.383 . S
C538 C525 1.479 . S
C538 C539 1.398 . S
C539 C504 1.382 . S
C539 H516 0.951 . S
C539 C538 1.398 . S
C540 C541 1.384 . S
C540 H553 0.947 1_554 S
C540 C575 1.382 1_554 S
C541 C540 1.384 . S
C541 C542 1.378 . S
C542 C541 1.378 . S
C542 C543 1.378 . S
C542 H554 0.952 . S
C543 C542 1.378 . S
C543 H555 0.950 . S
C543 C574 1.383 1_554 S
H544 C563 0.962 . S
H545 C564 0.946 1_554 S
H546 C566 0.953 . S
H547 C567 0.945 . S
H548 C569 0.952 . S
H549 C570 0.949 . S
H550 C572 0.950 . S
H551 C573 0.948 . S
H552 C575 0.951 . S
H553 C540 0.947 1_556 S
H554 C542 0.952 . S
H555 C543 0.950 . S
N556 C559 1.382 . S
N556 C561 1.363 . S
N557 C559 1.371 . S
N557 C560 1.372 . S
N558 C560 1.361 . S
N558 C561 1.377 . S
C559 N556 1.382 . S
C559 N557 1.371 . S
C559 C562 1.480 . S
C560 N557 1.372 . S
C560 N558 1.361 . S
C560 C568 1.457 . S
C561 N556 1.363 . S
C561 N558 1.377 . S
C561 C574 1.479 . S
C562 C559 1.480 . S
C562 C563 1.383 . S
C562 C567 1.385 1_545 S
C563 H544 0.962 . S
C563 C562 1.383 . S
C563 C564 1.388 . S
C564 H545 0.946 1_556 S
C564 C563 1.388 . S
C564 C565 1.384 1_545 S
C565 C564 1.384 1_565 S
C565 C566 1.377 . S
C566 H546 0.953 . S
C566 C565 1.377 . S
C566 C567 1.369 . S
C567 H547 0.945 . S
C567 C562 1.385 1_565 S
C567 C566 1.369 . S
C568 C560 1.457 . S
C568 C569 1.372 . S
C568 C573 1.364 . S
C569 H548 0.952 . S
C569 C568 1.372 . S
C569 C570 1.389 . S
C570 H549 0.949 . S
C570 C569 1.389 . S
C570 C571 1.387 . S
C571 C570 1.387 . S
C571 C572 1.372 . S
C572 H550 0.950 . S
C572 C571 1.372 . S
C572 C573 1.379 . S
C573 H551 0.948 . S
C573 C568 1.364 . S
C573 C572 1.379 . S
C574 C543 1.383 1_556 S
C574 C561 1.479 . S
C574 C575 1.398 . S
C575 C540 1.382 1_556 S
C575 H552 0.951 . S
C575 C574 1.398 . S
C576 O577 1.160 1_554 S
C576 O583 1.185 . S
O577 C576 1.160 1_556 S
O578 Zn579 1.899 1_556 S
O578 C586 1.284 . S
Zn579 O578 1.899 1_554 S
Zn579 O580 2.032 . S
Zn579 O583 2.086 . S
Zn579 O588 1.977 . S
O580 Zn579 2.032 . S
O580 C584 1.278 . S
C581 O582 1.203 . S
C581 O588 1.267 . S
O582 C581 1.203 . S
O583 C576 1.185 . S
O583 Zn579 2.086 . S
C584 O580 1.278 . S
C584 O585 1.211 . S
O585 C584 1.211 . S
C586 O578 1.284 . S
C586 O587 1.273 . S
O587 C586 1.273 . S
O588 Zn579 1.977 . S
O588 C581 1.267 . S
C589 O590 1.160 . S
C589 O596 1.185 . S
O590 C589 1.160 . S
O591 Zn592 1.899 . S
O591 C599 1.284 . S
Zn592 O591 1.899 . S
Zn592 O593 2.032 . S
Zn592 O596 2.086 . S
Zn592 O601 1.977 . S
O593 Zn592 2.032 . S
O593 C597 1.278 . S
C594 O595 1.203 . S
C594 O601 1.267 . S
O595 C594 1.203 . S
O596 C589 1.185 . S
O596 Zn592 2.086 . S
C597 O593 1.278 . S
C597 O598 1.211 . S
O598 C597 1.211 . S
C599 O591 1.284 . S
C599 O600 1.273 . S
O600 C599 1.273 . S
O601 Zn592 1.977 . S
O601 C594 1.267 . S
C602 O603 1.160 1_554 S
C602 O609 1.185 . S
O603 C602 1.160 1_556 S
O604 Zn605 1.899 1_556 S
O604 C612 1.284 . S
Zn605 O604 1.899 1_554 S
Zn605 O606 2.032 1_554 S
Zn605 O609 2.086 . S
Zn605 O614 1.977 . S
O606 Zn605 2.032 1_556 S
O606 C610 1.278 . S
C607 O608 1.203 . S
C607 O614 1.267 . S
O608 C607 1.203 . S
O609 C602 1.185 . S
O609 Zn605 2.086 . S
C610 O606 1.278 . S
C610 O611 1.211 1_556 S
O611 C610 1.211 1_554 S
C612 O604 1.284 . S
C612 O613 1.273 . S
O613 C612 1.273 . S
O614 Zn605 1.977 . S
O614 C607 1.267 . S
C615 O616 1.160 . S
C615 O622 1.185 . S
O616 C615 1.160 . S
O617 Zn618 1.899 . S
O617 C625 1.284 . S
Zn618 O617 1.899 . S
Zn618 O619 2.023 1_545 S
Zn618 O622 2.086 . S
Zn618 O627 1.977 . S
O619 Zn618 2.023 1_565 S
O619 C623 1.290 . S
C620 O621 1.203 . S
C620 O627 1.267 . S
O621 C620 1.203 . S
O622 C615 1.185 . S
O622 Zn618 2.086 . S
C623 O619 1.290 . S
C623 O624 1.211 . S
O624 C623 1.211 . S
C625 O617 1.284 . S
C625 O626 1.273 1_545 S
O626 C625 1.273 1_565 S
O627 Zn618 1.977 . S
O627 C620 1.267 . S
C628 O629 1.160 . S
C628 O635 1.185 . S
O629 C628 1.160 . S
O630 Zn631 1.899 . S
O630 C638 1.284 . S
Zn631 O630 1.899 . S
Zn631 O632 2.032 . S
Zn631 O635 2.086 . S
Zn631 O640 1.977 . S
O632 Zn631 2.032 . S
O632 C636 1.278 . S
C633 O634 1.203 . S
C633 O640 1.267 . S
O634 C633 1.203 . S
O635 C628 1.185 . S
O635 Zn631 2.086 . S
C636 O632 1.278 . S
C636 O637 1.211 . S
O637 C636 1.211 . S
C638 O630 1.284 . S
C638 O639 1.273 . S
O639 C638 1.273 . S
O640 Zn631 1.977 . S
O640 C633 1.267 . S
C641 O642 1.160 . S
C641 O648 1.185 . S
O642 C641 1.160 . S
O643 Zn644 1.899 . S
O643 C651 1.284 . S
Zn644 O643 1.899 . S
Zn644 O645 2.032 . S
Zn644 O648 2.086 . S
Zn644 O653 1.977 . S
O645 Zn644 2.032 . S
O645 C649 1.278 . S
C646 O647 1.203 . S
C646 O653 1.267 . S
O647 C646 1.203 . S
O648 C641 1.185 . S
O648 Zn644 2.086 . S
C649 O645 1.278 . S
C649 O650 1.211 . S
O650 C649 1.211 . S
C651 O643 1.284 . S
C651 O652 1.273 . S
O652 C651 1.273 . S
O653 Zn644 1.977 . S
O653 C646 1.267 . S
C654 O655 1.160 . S
C654 O661 1.185 . S
O655 C654 1.160 . S
O656 Zn657 1.899 . S
O656 C664 1.284 . S
Zn657 O656 1.899 . S
Zn657 O658 2.032 . S
Zn657 O661 2.086 . S
Zn657 O666 1.977 . S
O658 Zn657 2.032 . S
O658 C662 1.278 . S
C659 O660 1.203 . S
C659 O666 1.267 . S
O660 C659 1.203 . S
O661 C654 1.185 . S
O661 Zn657 2.086 . S
C662 O658 1.278 . S
C662 O663 1.211 . S
O663 C662 1.211 . S
C664 O656 1.284 . S
C664 O665 1.273 . S
O665 C664 1.273 . S
O666 Zn657 1.977 . S
O666 C659 1.267 . S
C667 O668 1.160 . S
C667 O674 1.185 . S
O668 C667 1.160 . S
O669 Zn670 1.899 . S
O669 C677 1.284 1_565 S
Zn670 O669 1.899 . S
Zn670 O671 2.032 1_565 S
Zn670 O674 2.086 . S
Zn670 O679 1.977 . S
O671 Zn670 2.032 1_545 S
O671 C675 1.278 . S
C672 O673 1.203 1_565 S
C672 O679 1.267 . S
O673 C672 1.203 1_545 S
O674 C667 1.185 . S
O674 Zn670 2.086 . S
C675 O671 1.278 . S
C675 O676 1.211 . S
O676 C675 1.211 . S
C677 O669 1.284 1_545 S
C677 O678 1.273 . S
O678 C677 1.273 . S
O679 Zn670 1.977 . S
O679 C672 1.267 . S
C680 O681 1.160 1_455 S
C680 O687 1.185 . S
O681 C680 1.160 1_655 S
O682 Zn683 1.899 1_655 S
O682 C690 1.284 . S
Zn683 O682 1.899 1_455 S
Zn683 O684 2.032 1_455 S
Zn683 O687 2.086 . S
Zn683 O692 1.977 . S
O684 Zn683 2.032 1_655 S
O684 C688 1.278 1_655 S
C685 O686 1.203 . S
C685 O692 1.267 . S
O686 C685 1.203 . S
O687 C680 1.185 . S
O687 Zn683 2.086 . S
C688 O684 1.278 1_455 S
C688 O689 1.209 . S
O689 C688 1.209 . S
C690 O682 1.284 . S
C690 O691 1.273 . S
O691 C690 1.273 . S
O692 Zn683 1.977 . S
O692 C685 1.267 . S
C693 O694 1.160 . S
C693 O700 1.185 . S
O694 C693 1.160 . S
O695 Zn696 1.899 . S
O695 C703 1.284 . S
Zn696 O695 1.899 . S
Zn696 O697 2.032 . S
Zn696 O700 2.086 . S
Zn696 O705 1.977 . S
O697 Zn696 2.032 . S
O697 C701 1.278 . S
C698 O699 1.203 . S
C698 O705 1.267 . S
O699 C698 1.203 . S
O700 C693 1.185 . S
O700 Zn696 2.086 . S
C701 O697 1.278 . S
C701 O702 1.211 . S
O702 C701 1.211 . S
C703 O695 1.284 . S
C703 O704 1.273 . S
O704 C703 1.273 . S
O705 Zn696 1.977 . S
O705 C698 1.267 . S
C706 O707 1.160 1_455 S
C706 O713 1.185 . S
O707 C706 1.160 1_655 S
O708 Zn709 1.899 1_655 S
O708 C716 1.284 . S
Zn709 O708 1.899 1_455 S
Zn709 O710 2.032 1_455 S
Zn709 O713 2.086 . S
Zn709 O718 1.977 . S
O710 Zn709 2.032 1_655 S
O710 C714 1.278 1_655 S
C711 O712 1.203 . S
C711 O718 1.267 . S
O712 C711 1.203 . S
O713 C706 1.185 . S
O713 Zn709 2.086 . S
C714 O710 1.278 1_455 S
C714 O715 1.210 . S
O715 C714 1.210 . S
C716 O708 1.284 . S
C716 O717 1.273 . S
O717 C716 1.273 . S
O718 Zn709 1.977 . S
O718 C711 1.267 . S
C719 O720 1.160 . S
C719 O726 1.185 . S
O720 C719 1.160 . S
O721 Zn722 1.899 . S
O721 C729 1.284 . S
Zn722 O721 1.899 . S
Zn722 O723 2.032 . S
Zn722 O726 2.086 . S
Zn722 O731 1.977 . S
O723 Zn722 2.032 . S
O723 C727 1.278 . S
C724 O725 1.203 . S
C724 O731 1.267 . S
O725 C724 1.203 . S
O726 C719 1.185 . S
O726 Zn722 2.086 . S
C727 O723 1.278 . S
C727 O728 1.211 . S
O728 C727 1.211 . S
C729 O721 1.284 . S
C729 O730 1.273 . S
O730 C729 1.273 . S
O731 Zn722 1.977 . S
O731 C724 1.267 . S
H732 C744 0.930 . S
H733 C746 0.930 . S
H734 C747 0.930 . S
H735 C751 0.959 . S
H736 C751 0.959 . S
H737 C751 0.961 . S
H738 C752 0.960 . S
H739 C752 0.961 . S
H740 C752 0.959 . S
H741 C755 0.929 . S
H742 C756 0.931 . S
H743 C758 0.930 . S
C744 H732 0.930 . S
C744 C745 1.399 . S
C744 C749 1.399 . S
C745 C744 1.399 . S
C745 C746 1.376 . S
C746 H733 0.930 . S
C746 C745 1.376 . S
C746 C747 1.388 . S
C747 H734 0.930 . S
C747 C746 1.388 . S
C747 C748 1.390 . S
C748 C747 1.390 . S
C748 C749 1.394 . S
C748 C754 1.465 . S
C749 C744 1.399 . S
C749 C748 1.394 . S
C749 C750 1.516 . S
C750 C749 1.516 . S
C750 C751 1.502 . S
C750 C752 1.561 . S
C750 C753 1.526 . S
C751 H735 0.959 . S
C751 H736 0.959 . S
C751 H737 0.961 . S
C751 C750 1.502 . S
C752 H738 0.960 . S
C752 H739 0.961 . S
C752 H740 0.959 . S
C752 C750 1.561 . S
C753 C750 1.526 . S
C753 C754 1.396 . S
C753 C758 1.390 . S
C754 C748 1.465 . S
C754 C753 1.396 . S
C754 C755 1.399 . S
C755 H741 0.929 . S
C755 C754 1.399 . S
C755 C756 1.385 . S
C756 H742 0.931 . S
C756 C755 1.385 . S
C756 C757 1.389 . S
C757 C756 1.389 . S
C757 C758 1.387 . S
C758 H743 0.930 . S
C758 C753 1.390 . S
C758 C757 1.387 . S
H759 C771 0.930 . S
H760 C773 0.930 . S
H761 C774 0.930 . S
H762 C778 0.959 . S
H763 C778 0.959 . S
H764 C778 0.961 . S
H765 C779 0.960 . S
H766 C779 0.961 . S
H767 C779 0.959 . S
H768 C782 0.929 . S
H769 C783 0.931 . S
H770 C785 0.930 . S
C771 H759 0.930 . S
C771 C772 1.399 . S
C771 C776 1.399 . S
C772 C771 1.399 . S
C772 C773 1.376 . S
C773 H760 0.930 . S
C773 C772 1.376 . S
C773 C774 1.388 . S
C774 H761 0.930 . S
C774 C773 1.388 . S
C774 C775 1.390 . S
C775 C774 1.390 . S
C775 C776 1.394 . S
C775 C781 1.465 . S
C776 C771 1.399 . S
C776 C775 1.394 . S
C776 C777 1.516 . S
C777 C776 1.516 . S
C777 C778 1.502 . S
C777 C779 1.561 . S
C777 C780 1.526 . S
C778 H762 0.959 . S
C778 H763 0.959 . S
C778 H764 0.961 . S
C778 C777 1.502 . S
C779 H765 0.960 . S
C779 H766 0.961 . S
C779 H767 0.959 . S
C779 C777 1.561 . S
C780 C777 1.526 . S
C780 C781 1.396 . S
C780 C785 1.390 . S
C781 C775 1.465 . S
C781 C780 1.396 . S
C781 C782 1.399 . S
C782 H768 0.929 . S
C782 C781 1.399 . S
C782 C783 1.385 . S
C783 H769 0.931 . S
C783 C782 1.385 . S
C783 C784 1.389 . S
C784 C783 1.389 . S
C784 C785 1.387 . S
C785 H770 0.930 . S
C785 C780 1.390 . S
C785 C784 1.387 . S
H786 C798 0.930 . S
H787 C800 0.930 . S
H788 C801 0.930 . S
H789 C805 0.959 . S
H790 C805 0.959 . S
H791 C805 0.961 . S
H792 C806 0.960 . S
H793 C806 0.961 . S
H794 C806 0.959 . S
H795 C809 0.929 . S
H796 C810 0.931 . S
H797 C812 0.930 . S
C798 H786 0.930 . S
C798 C799 1.399 . S
C798 C803 1.399 . S
C799 C798 1.399 . S
C799 C800 1.376 . S
C800 H787 0.930 . S
C800 C799 1.376 . S
C800 C801 1.388 . S
C801 H788 0.930 . S
C801 C800 1.388 . S
C801 C802 1.390 . S
C802 C801 1.390 . S
C802 C803 1.394 . S
C802 C808 1.465 . S
C803 C798 1.399 . S
C803 C802 1.394 . S
C803 C804 1.516 . S
C804 C803 1.516 . S
C804 C805 1.502 . S
C804 C806 1.561 . S
C804 C807 1.526 . S
C805 H789 0.959 . S
C805 H790 0.959 . S
C805 H791 0.961 . S
C805 C804 1.502 . S
C806 H792 0.960 . S
C806 H793 0.961 . S
C806 H794 0.959 . S
C806 C804 1.561 . S
C807 C804 1.526 . S
C807 C808 1.396 . S
C807 C812 1.390 . S
C808 C802 1.465 . S
C808 C807 1.396 . S
C808 C809 1.399 . S
C809 H795 0.929 . S
C809 C808 1.399 . S
C809 C810 1.385 . S
C810 H796 0.931 . S
C810 C809 1.385 . S
C810 C811 1.389 . S
C811 C810 1.389 . S
C811 C812 1.387 . S
C812 H797 0.930 . S
C812 C807 1.390 . S
C812 C811 1.387 . S
H813 C825 0.930 . S
H814 C827 0.930 . S
H815 C828 0.930 . S
H816 C832 0.959 . S
H817 C832 0.959 . S
H818 C832 0.961 . S
H819 C833 0.960 . S
H820 C833 0.961 . S
H821 C833 0.959 . S
H822 C836 0.929 . S
H823 C837 0.931 . S
H824 C839 0.930 . S
C825 H813 0.930 . S
C825 C826 1.399 1_545 S
C825 C830 1.399 . S
C826 C825 1.399 1_565 S
C826 C827 1.376 . S
C827 H814 0.930 . S
C827 C826 1.376 . S
C827 C828 1.388 . S
C828 H815 0.930 . S
C828 C827 1.388 . S
C828 C829 1.390 . S
C829 C828 1.390 . S
C829 C830 1.394 1_565 S
C829 C835 1.465 . S
C830 C825 1.399 . S
C830 C829 1.394 1_545 S
C830 C831 1.516 . S
C831 C830 1.516 . S
C831 C832 1.502 . S
C831 C833 1.561 . S
C831 C834 1.526 . S
C832 H816 0.959 . S
C832 H817 0.959 . S
C832 H818 0.961 . S
C832 C831 1.502 . S
C833 H819 0.960 . S
C833 H820 0.961 . S
C833 H821 0.959 . S
C833 C831 1.561 . S
C834 C831 1.526 . S
C834 C835 1.396 1_545 S
C834 C839 1.390 . S
C835 C829 1.465 . S
C835 C834 1.396 1_565 S
C835 C836 1.399 . S
C836 H822 0.929 . S
C836 C835 1.399 . S
C836 C837 1.385 . S
C837 H823 0.931 . S
C837 C836 1.385 . S
C837 C838 1.389 1_565 S
C838 C837 1.389 1_545 S
C838 C839 1.387 . S
C839 H824 0.930 . S
C839 C834 1.390 . S
C839 C838 1.387 . S
H840 C852 0.930 . S
H841 C854 0.930 . S
H842 C855 0.930 . S
H843 C859 0.959 . S
H844 C859 0.959 . S
H845 C859 0.961 . S
H846 C860 0.960 . S
H847 C860 0.961 . S
H848 C860 0.959 . S
H849 C863 0.929 . S
H850 C864 0.931 . S
H851 C866 0.930 . S
C852 H840 0.930 . S
C852 C853 1.399 . S
C852 C857 1.399 . S
C853 C852 1.399 . S
C853 C854 1.376 . S
C854 H841 0.930 . S
C854 C853 1.376 . S
C854 C855 1.388 . S
C855 H842 0.930 . S
C855 C854 1.388 . S
C855 C856 1.390 . S
C856 C855 1.390 . S
C856 C857 1.394 . S
C856 C862 1.465 . S
C857 C852 1.399 . S
C857 C856 1.394 . S
C857 C858 1.516 . S
C858 C857 1.516 . S
C858 C859 1.502 . S
C858 C860 1.561 . S
C858 C861 1.526 . S
C859 H843 0.959 . S
C859 H844 0.959 . S
C859 H845 0.961 . S
C859 C858 1.502 . S
C860 H846 0.960 . S
C860 H847 0.961 . S
C860 H848 0.959 . S
C860 C858 1.561 . S
C861 C858 1.526 . S
C861 C862 1.396 . S
C861 C866 1.390 . S
C862 C856 1.465 . S
C862 C861 1.396 . S
C862 C863 1.399 . S
C863 H849 0.929 . S
C863 C862 1.399 . S
C863 C864 1.385 . S
C864 H850 0.931 . S
C864 C863 1.385 . S
C864 C865 1.389 . S
C865 C864 1.389 . S
C865 C866 1.387 . S
C866 H851 0.930 . S
C866 C861 1.390 . S
C866 C865 1.387 . S
H867 C879 0.930 . S
H868 C881 0.930 . S
H869 C882 0.930 . S
H870 C886 0.959 . S
H871 C886 0.959 . S
H872 C886 0.961 . S
H873 C887 0.960 . S
H874 C887 0.961 . S
H875 C887 0.959 . S
H876 C890 0.929 . S
H877 C891 0.931 . S
H878 C893 0.930 . S
C879 H867 0.930 . S
C879 C880 1.399 . S
C879 C884 1.399 . S
C880 C879 1.399 . S
C880 C881 1.376 . S
C881 H868 0.930 . S
C881 C880 1.376 . S
C881 C882 1.388 . S
C882 H869 0.930 . S
C882 C881 1.388 . S
C882 C883 1.390 . S
C883 C882 1.390 . S
C883 C884 1.394 . S
C883 C889 1.465 . S
C884 C879 1.399 . S
C884 C883 1.394 . S
C884 C885 1.516 . S
C885 C884 1.516 . S
C885 C886 1.502 . S
C885 C887 1.561 . S
C885 C888 1.526 . S
C886 H870 0.959 . S
C886 H871 0.959 . S
C886 H872 0.961 . S
C886 C885 1.502 . S
C887 H873 0.960 . S
C887 H874 0.961 . S
C887 H875 0.959 . S
C887 C885 1.561 . S
C888 C885 1.526 . S
C888 C889 1.396 . S
C888 C893 1.390 . S
C889 C883 1.465 . S
C889 C888 1.396 . S
C889 C890 1.399 . S
C890 H876 0.929 . S
C890 C889 1.399 . S
C890 C891 1.385 . S
C891 H877 0.931 . S
C891 C890 1.385 . S
C891 C892 1.389 . S
C892 C891 1.389 . S
C892 C893 1.387 . S
C893 H878 0.930 . S
C893 C888 1.390 . S
C893 C892 1.387 . S
H894 C906 0.930 . S
H895 C908 0.930 . S
H896 C909 0.930 . S
H897 C913 0.959 . S
H898 C913 0.959 . S
H899 C913 0.961 . S
H900 C914 0.960 . S
H901 C914 0.961 . S
H902 C914 0.959 . S
H903 C917 0.929 . S
H904 C918 0.931 . S
H905 C920 0.930 . S
C906 H894 0.930 . S
C906 C907 1.399 . S
C906 C911 1.399 . S
C907 C906 1.399 . S
C907 C908 1.376 . S
C908 H895 0.930 . S
C908 C907 1.376 . S
C908 C909 1.388 . S
C909 H896 0.930 . S
C909 C908 1.388 . S
C909 C910 1.390 . S
C910 C909 1.390 . S
C910 C911 1.394 . S
C910 C916 1.465 . S
C911 C906 1.399 . S
C911 C910 1.394 . S
C911 C912 1.516 . S
C912 C911 1.516 . S
C912 C913 1.502 . S
C912 C914 1.561 . S
C912 C915 1.526 . S
C913 H897 0.959 . S
C913 H898 0.959 . S
C913 H899 0.961 . S
C913 C912 1.502 . S
C914 H900 0.960 . S
C914 H901 0.961 . S
C914 H902 0.959 . S
C914 C912 1.561 . S
C915 C912 1.526 . S
C915 C916 1.396 . S
C915 C920 1.390 . S
C916 C910 1.465 . S
C916 C915 1.396 . S
C916 C917 1.399 . S
C917 H903 0.929 . S
C917 C916 1.399 . S
C917 C918 1.385 . S
C918 H904 0.931 . S
C918 C917 1.385 . S
C918 C919 1.389 . S
C919 C918 1.389 . S
C919 C920 1.387 . S
C920 H905 0.930 . S
C920 C915 1.390 . S
C920 C919 1.387 . S
H921 C933 0.930 . S
H922 C935 0.930 . S
H923 C936 0.930 . S
H924 C940 0.959 . S
H925 C940 0.959 . S
H926 C940 0.961 . S
H927 C941 0.960 . S
H928 C941 0.961 . S
H929 C941 0.959 . S
H930 C944 0.929 . S
H931 C945 0.931 . S
H932 C947 0.930 . S
C933 H921 0.930 . S
C933 C934 1.399 . S
C933 C938 1.399 . S
C934 C933 1.399 . S
C934 C935 1.376 . S
C935 H922 0.930 . S
C935 C934 1.376 . S
C935 C936 1.388 . S
C936 H923 0.930 . S
C936 C935 1.388 . S
C936 C937 1.390 . S
C937 C936 1.390 . S
C937 C938 1.394 . S
C937 C943 1.465 . S
C938 C933 1.399 . S
C938 C937 1.394 . S
C938 C939 1.516 . S
C939 C938 1.516 . S
C939 C940 1.502 . S
C939 C941 1.561 1_565 S
C939 C942 1.526 . S
C940 H924 0.959 . S
C940 H925 0.959 . S
C940 H926 0.961 . S
C940 C939 1.502 . S
C941 H927 0.960 . S
C941 H928 0.961 . S
C941 H929 0.959 . S
C941 C939 1.561 1_545 S
C942 C939 1.526 . S
C942 C943 1.396 . S
C942 C947 1.390 . S
C943 C937 1.465 . S
C943 C942 1.396 . S
C943 C944 1.399 . S
C944 H930 0.929 . S
C944 C943 1.399 . S
C944 C945 1.385 . S
C945 H931 0.931 . S
C945 C944 1.385 . S
C945 C946 1.389 . S
C946 C945 1.389 . S
C946 C947 1.387 . S
C947 H932 0.930 . S
C947 C942 1.390 . S
C947 C946 1.387 . S
H948 C960 0.930 . S
H949 C962 0.930 . S
H950 C963 0.930 . S
H951 C967 0.959 . S
H952 C967 0.959 . S
H953 C967 0.961 . S
H954 C968 0.960 . S
H955 C968 0.961 . S
H956 C968 0.959 . S
H957 C971 0.929 . S
H958 C972 0.931 . S
H959 C974 0.930 . S
C960 H948 0.930 . S
C960 C961 1.399 . S
C960 C965 1.399 . S
C961 C960 1.399 . S
C961 C962 1.376 . S
C962 H949 0.930 . S
C962 C961 1.376 . S
C962 C963 1.388 . S
C963 H950 0.930 . S
C963 C962 1.388 . S
C963 C964 1.390 . S
C964 C963 1.390 . S
C964 C965 1.394 . S
C964 C970 1.465 . S
C965 C960 1.399 . S
C965 C964 1.394 . S
C965 C966 1.516 . S
C966 C965 1.516 . S
C966 C967 1.502 . S
C966 C968 1.561 . S
C966 C969 1.526 . S
C967 H951 0.959 . S
C967 H952 0.959 . S
C967 H953 0.961 . S
C967 C966 1.502 . S
C968 H954 0.960 . S
C968 H955 0.961 . S
C968 H956 0.959 . S
C968 C966 1.561 . S
C969 C966 1.526 . S
C969 C970 1.396 . S
C969 C974 1.390 . S
C970 C964 1.465 . S
C970 C969 1.396 . S
C970 C971 1.399 . S
C971 H957 0.929 . S
C971 C970 1.399 . S
C971 C972 1.385 . S
C972 H958 0.931 . S
C972 C971 1.385 . S
C972 C973 1.389 . S
C973 C972 1.389 . S
C973 C974 1.387 . S
C974 H959 0.930 . S
C974 C969 1.390 . S
C974 C973 1.387 . S
H975 C987 0.930 . S
H976 C989 0.930 . S
H977 C990 0.930 . S
H978 C994 0.959 . S
H979 C994 0.959 . S
H980 C994 0.961 . S
H981 C995 0.960 . S
H982 C995 0.961 . S
H983 C995 0.959 . S
H984 C998 0.929 . S
H985 C999 0.931 . S
H986 C1001 0.930 . S
C987 H975 0.930 . S
C987 C988 1.399 . S
C987 C992 1.399 . S
C988 C987 1.399 . S
C988 C989 1.376 . S
C989 H976 0.930 . S
C989 C988 1.376 . S
C989 C990 1.388 . S
C990 H977 0.930 . S
C990 C989 1.388 . S
C990 C991 1.390 . S
C991 C990 1.390 . S
C991 C992 1.394 . S
C991 C997 1.465 . S
C992 C987 1.399 . S
C992 C991 1.394 . S
C992 C993 1.516 . S
C993 C992 1.516 . S
C993 C994 1.502 . S
C993 C995 1.561 . S
C993 C996 1.526 . S
C994 H978 0.959 . S
C994 H979 0.959 . S
C994 H980 0.961 . S
C994 C993 1.502 . S
C995 H981 0.960 . S
C995 H982 0.961 . S
C995 H983 0.959 . S
C995 C993 1.561 . S
C996 C993 1.526 . S
C996 C997 1.396 . S
C996 C1001 1.390 . S
C997 C991 1.465 . S
C997 C996 1.396 . S
C997 C998 1.399 . S
C998 H984 0.929 . S
C998 C997 1.399 . S
C998 C999 1.385 . S
C999 H985 0.931 . S
C999 C998 1.385 . S
C999 C1000 1.389 . S
C1000 C999 1.389 . S
C1000 C1001 1.387 . S
C1001 H986 0.930 . S
C1001 C996 1.390 . S
C1001 C1000 1.387 . S
H1002 C1014 0.930 . S
H1003 C1016 0.930 . S
H1004 C1017 0.930 . S
H1005 C1021 0.959 . S
H1006 C1021 0.959 . S
H1007 C1021 0.961 . S
H1008 C1022 0.960 . S
H1009 C1022 0.961 . S
H1010 C1022 0.959 . S
H1011 C1025 0.929 . S
H1012 C1026 0.931 . S
H1013 C1028 0.930 . S
C1014 H1002 0.930 . S
C1014 C1015 1.399 . S
C1014 C1019 1.399 . S
C1015 C1014 1.399 . S
C1015 C1016 1.376 . S
C1016 H1003 0.930 . S
C1016 C1015 1.376 . S
C1016 C1017 1.388 . S
C1017 H1004 0.930 . S
C1017 C1016 1.388 . S
C1017 C1018 1.390 . S
C1018 C1017 1.390 . S
C1018 C1019 1.394 . S
C1018 C1024 1.465 . S
C1019 C1014 1.399 . S
C1019 C1018 1.394 . S
C1019 C1020 1.516 . S
C1020 C1019 1.516 . S
C1020 C1021 1.502 . S
C1020 C1022 1.561 . S
C1020 C1023 1.526 . S
C1021 H1005 0.959 . S
C1021 H1006 0.959 . S
C1021 H1007 0.961 . S
C1021 C1020 1.502 . S
C1022 H1008 0.960 . S
C1022 H1009 0.961 . S
C1022 H1010 0.959 . S
C1022 C1020 1.561 . S
C1023 C1020 1.526 . S
C1023 C1024 1.396 . S
C1023 C1028 1.390 . S
C1024 C1018 1.465 . S
C1024 C1023 1.396 . S
C1024 C1025 1.399 . S
C1025 H1011 0.929 . S
C1025 C1024 1.399 . S
C1025 C1026 1.385 . S
C1026 H1012 0.931 . S
C1026 C1025 1.385 . S
C1026 C1027 1.389 . S
C1027 C1026 1.389 . S
C1027 C1028 1.387 . S
C1028 H1013 0.930 . S
C1028 C1023 1.390 . S
C1028 C1027 1.387 . S
H1029 C1041 0.930 . S
H1030 C1043 0.930 . S
H1031 C1044 0.930 . S
H1032 C1048 0.959 . S
H1033 C1048 0.959 . S
H1034 C1048 0.961 . S
H1035 C1049 0.960 . S
H1036 C1049 0.961 . S
H1037 C1049 0.959 . S
H1038 C1052 0.929 . S
H1039 C1053 0.931 . S
H1040 C1055 0.930 . S
C1041 H1029 0.930 . S
C1041 C1042 1.399 . S
C1041 C1046 1.399 . S
C1042 C1041 1.399 . S
C1042 C1043 1.376 . S
C1043 H1030 0.930 . S
C1043 C1042 1.376 . S
C1043 C1044 1.388 . S
C1044 H1031 0.930 . S
C1044 C1043 1.388 . S
C1044 C1045 1.390 . S
C1045 C1044 1.390 . S
C1045 C1046 1.394 . S
C1045 C1051 1.465 . S
C1046 C1041 1.399 . S
C1046 C1045 1.394 . S
C1046 C1047 1.516 . S
C1047 C1046 1.516 . S
C1047 C1048 1.502 . S
C1047 C1049 1.561 . S
C1047 C1050 1.526 . S
C1048 H1032 0.959 . S
C1048 H1033 0.959 . S
C1048 H1034 0.961 . S
C1048 C1047 1.502 . S
C1049 H1035 0.960 . S
C1049 H1036 0.961 . S
C1049 H1037 0.959 . S
C1049 C1047 1.561 . S
C1050 C1047 1.526 . S
C1050 C1051 1.396 . S
C1050 C1055 1.390 . S
C1051 C1045 1.465 . S
C1051 C1050 1.396 . S
C1051 C1052 1.399 . S
C1052 H1038 0.929 . S
C1052 C1051 1.399 . S
C1052 C1053 1.385 . S
C1053 H1039 0.931 . S
C1053 C1052 1.385 . S
C1053 C1054 1.389 . S
C1054 C1053 1.389 . S
C1054 C1055 1.387 . S
C1055 H1040 0.930 . S
C1055 C1050 1.390 . S
C1055 C1054 1.387 . S
H1056 C1068 0.930 . S
H1057 C1070 0.930 . S
H1058 C1071 0.930 . S
H1059 C1075 0.959 . S
H1060 C1075 0.959 . S
H1061 C1075 0.961 . S
H1062 C1076 0.960 . S
H1063 C1076 0.961 . S
H1064 C1076 0.959 . S
H1065 C1079 0.929 . S
H1066 C1080 0.931 . S
H1067 C1082 0.930 . S
C1068 H1056 0.930 . S
C1068 C1069 1.399 . S
C1068 C1073 1.399 . S
C1069 C1068 1.399 . S
C1069 C1070 1.376 . S
C1070 H1057 0.930 . S
C1070 C1069 1.376 . S
C1070 C1071 1.388 . S
C1071 H1058 0.930 . S
C1071 C1070 1.388 . S
C1071 C1072 1.390 . S
C1072 C1071 1.390 . S
C1072 C1073 1.394 . S
C1072 C1078 1.465 . S
C1073 C1068 1.399 . S
C1073 C1072 1.394 . S
C1073 C1074 1.516 . S
C1074 C1073 1.516 . S
C1074 C1075 1.502 . S
C1074 C1076 1.561 . S
C1074 C1077 1.526 . S
C1075 H1059 0.959 . S
C1075 H1060 0.959 . S
C1075 H1061 0.961 . S
C1075 C1074 1.502 . S
C1076 H1062 0.960 . S
C1076 H1063 0.961 . S
C1076 H1064 0.959 . S
C1076 C1074 1.561 . S
C1077 C1074 1.526 . S
C1077 C1078 1.396 . S
C1077 C1082 1.390 . S
C1078 C1072 1.465 . S
C1078 C1077 1.396 . S
C1078 C1079 1.399 . S
C1079 H1065 0.929 . S
C1079 C1078 1.399 . S
C1079 C1080 1.385 . S
C1080 H1066 0.931 . S
C1080 C1079 1.385 . S
C1080 C1081 1.389 . S
C1081 C1080 1.389 . S
C1081 C1082 1.387 . S
C1082 H1067 0.930 . S
C1082 C1077 1.390 . S
C1082 C1081 1.387 . S
H1083 C1095 0.930 . S
H1084 C1097 0.933 . S
H1085 C1098 0.930 1_655 S
H1086 C1102 0.959 . S
H1087 C1102 0.959 . S
H1088 C1102 0.961 . S
H1089 C1103 0.960 . S
H1090 C1103 0.961 . S
H1091 C1103 0.959 . S
H1092 C1106 0.929 . S
H1093 C1107 0.931 . S
H1094 C1109 0.930 . S
C1095 H1083 0.930 . S
C1095 C1096 1.399 . S
C1095 C1100 1.399 . S
C1096 C1095 1.399 . S
C1096 C1097 1.376 . S
C1097 H1084 0.933 . S
C1097 C1096 1.376 . S
C1097 C1098 1.388 . S
C1098 H1085 0.930 1_455 S
C1098 C1097 1.388 . S
C1098 C1099 1.390 . S
C1099 C1098 1.390 . S
C1099 C1100 1.394 . S
C1099 C1105 1.465 . S
C1100 C1095 1.399 . S
C1100 C1099 1.394 . S
C1100 C1101 1.516 . S
C1101 C1100 1.516 . S
C1101 C1102 1.502 . S
C1101 C1103 1.561 . S
C1101 C1104 1.526 . S
C1102 H1086 0.959 . S
C1102 H1087 0.959 . S
C1102 H1088 0.961 . S
C1102 C1101 1.502 . S
C1103 H1089 0.960 . S
C1103 H1090 0.961 . S
C1103 H1091 0.959 . S
C1103 C1101 1.561 . S
C1104 C1101 1.526 . S
C1104 C1105 1.396 . S
C1104 C1109 1.390 . S
C1105 C1099 1.465 . S
C1105 C1104 1.396 . S
C1105 C1106 1.399 1_455 S
C1106 H1092 0.929 . S
C1106 C1105 1.399 1_655 S
C1106 C1107 1.385 . S
C1107 H1093 0.931 . S
C1107 C1106 1.385 . S
C1107 C1108 1.389 1_655 S
C1108 C1107 1.389 1_455 S
C1108 C1109 1.387 . S
C1109 H1094 0.930 . S
C1109 C1104 1.390 . S
C1109 C1108 1.387 . S
H1110 C1122 0.930 . S
H1111 C1124 0.930 . S
H1112 C1125 0.930 . S
H1113 C1129 0.959 . S
H1114 C1129 0.959 . S
H1115 C1129 0.961 . S
H1116 C1130 0.960 . S
H1117 C1130 0.961 . S
H1118 C1130 0.959 . S
H1119 C1133 0.929 . S
H1120 C1134 0.931 . S
H1121 C1136 0.930 . S
C1122 H1110 0.930 . S
C1122 C1123 1.399 . S
C1122 C1127 1.399 . S
C1123 C1122 1.399 . S
C1123 C1124 1.376 . S
C1124 H1111 0.930 . S
C1124 C1123 1.376 . S
C1124 C1125 1.388 . S
C1125 H1112 0.930 . S
C1125 C1124 1.388 . S
C1125 C1126 1.390 . S
C1126 C1125 1.390 . S
C1126 C1127 1.394 . S
C1126 C1132 1.465 . S
C1127 C1122 1.399 . S
C1127 C1126 1.394 . S
C1127 C1128 1.516 . S
C1128 C1127 1.516 . S
C1128 C1129 1.502 . S
C1128 C1130 1.561 . S
C1128 C1131 1.526 . S
C1129 H1113 0.959 . S
C1129 H1114 0.959 . S
C1129 H1115 0.961 . S
C1129 C1128 1.502 . S
C1130 H1116 0.960 . S
C1130 H1117 0.961 . S
C1130 H1118 0.959 . S
C1130 C1128 1.561 . S
C1131 C1128 1.526 . S
C1131 C1132 1.396 . S
C1131 C1136 1.390 . S
C1132 C1126 1.465 . S
C1132 C1131 1.396 . S
C1132 C1133 1.399 . S
C1133 H1119 0.929 . S
C1133 C1132 1.399 . S
C1133 C1134 1.385 . S
C1134 H1120 0.931 . S
C1134 C1133 1.385 . S
C1134 C1135 1.389 . S
C1135 C1134 1.389 . S
C1135 C1136 1.387 . S
C1136 H1121 0.930 . S
C1136 C1131 1.390 . S
C1136 C1135 1.387 . S
H1137 C1149 0.930 . S
H1138 C1151 0.933 . S
H1139 C1152 0.930 . S
H1140 C1156 0.959 . S
H1141 C1156 0.959 . S
H1142 C1156 0.961 . S
H1143 C1157 0.960 . S
H1144 C1157 0.961 . S
H1145 C1157 0.959 . S
H1146 C1160 0.929 . S
H1147 C1161 0.931 . S
H1148 C1163 0.930 . S
C1149 H1137 0.930 . S
C1149 C1150 1.399 . S
C1149 C1154 1.399 . S
C1150 C1149 1.399 . S
C1150 C1151 1.372 1_655 S
C1151 H1138 0.933 . S
C1151 C1150 1.372 1_455 S
C1151 C1152 1.390 . S
C1152 H1139 0.930 . S
C1152 C1151 1.390 . S
C1152 C1153 1.390 1_455 S
C1153 C1152 1.390 1_655 S
C1153 C1154 1.394 . S
C1153 C1159 1.465 . S
C1154 C1149 1.399 . S
C1154 C1153 1.394 . S
C1154 C1155 1.516 . S
C1155 C1154 1.516 . S
C1155 C1156 1.502 . S
C1155 C1157 1.561 . S
C1155 C1158 1.526 . S
C1156 H1140 0.959 . S
C1156 H1141 0.959 . S
C1156 H1142 0.961 . S
C1156 C1155 1.502 . S
C1157 H1143 0.960 . S
C1157 H1144 0.961 . S
C1157 H1145 0.959 . S
C1157 C1155 1.561 . S
C1158 C1155 1.526 . S
C1158 C1159 1.396 . S
C1158 C1163 1.390 . S
C1159 C1153 1.465 . S
C1159 C1158 1.396 . S
C1159 C1160 1.399 1_655 S
C1160 H1146 0.929 . S
C1160 C1159 1.399 1_455 S
C1160 C1161 1.385 . S
C1161 H1147 0.931 . S
C1161 C1160 1.385 . S
C1161 C1162 1.389 1_455 S
C1162 C1161 1.389 1_655 S
C1162 C1163 1.387 . S
C1163 H1148 0.930 . S
C1163 C1158 1.390 . S
C1163 C1162 1.387 . S
H1164 C1176 0.930 . S
H1165 C1178 0.930 . S
H1166 C1179 0.930 . S
H1167 C1183 0.959 . S
H1168 C1183 0.959 . S
H1169 C1183 0.961 . S
H1170 C1184 0.960 . S
H1171 C1184 0.961 . S
H1172 C1184 0.959 . S
H1173 C1187 0.929 . S
H1174 C1188 0.931 . S
H1175 C1190 0.930 . S
C1176 H1164 0.930 . S
C1176 C1177 1.399 . S
C1176 C1181 1.399 . S
C1177 C1176 1.399 . S
C1177 C1178 1.376 . S
C1178 H1165 0.930 . S
C1178 C1177 1.376 . S
C1178 C1179 1.388 . S
C1179 H1166 0.930 . S
C1179 C1178 1.388 . S
C1179 C1180 1.390 . S
C1180 C1179 1.390 . S
C1180 C1181 1.394 . S
C1180 C1186 1.465 . S
C1181 C1176 1.399 . S
C1181 C1180 1.394 . S
C1181 C1182 1.516 . S
C1182 C1181 1.516 . S
C1182 C1183 1.502 . S
C1182 C1184 1.561 . S
C1182 C1185 1.526 . S
C1183 H1167 0.959 . S
C1183 H1168 0.959 . S
C1183 H1169 0.961 . S
C1183 C1182 1.502 . S
C1184 H1170 0.960 . S
C1184 H1171 0.961 . S
C1184 H1172 0.959 . S
C1184 C1182 1.561 . S
C1185 C1182 1.526 . S
C1185 C1186 1.396 . S
C1185 C1190 1.390 . S
C1186 C1180 1.465 . S
C1186 C1185 1.396 . S
C1186 C1187 1.399 . S
C1187 H1173 0.929 . S
C1187 C1186 1.399 . S
C1187 C1188 1.385 . S
C1188 H1174 0.931 . S
C1188 C1187 1.385 . S
C1188 C1189 1.389 . S
C1189 C1188 1.389 . S
C1189 C1190 1.387 . S
C1190 H1175 0.930 . S
C1190 C1185 1.390 . S
C1190 C1189 1.387 . S
H1191 C1203 0.930 . S
H1192 C1205 0.930 . S
H1193 C1206 0.930 . S
H1194 C1210 0.959 . S
H1195 C1210 0.959 . S
H1196 C1210 0.961 . S
H1197 C1211 0.960 . S
H1198 C1211 0.961 . S
H1199 C1211 0.959 . S
H1200 C1214 0.929 . S
H1201 C1215 0.931 . S
H1202 C1217 0.930 . S
C1203 H1191 0.930 . S
C1203 C1204 1.399 . S
C1203 C1208 1.399 . S
C1204 C1203 1.399 . S
C1204 C1205 1.376 . S
C1205 H1192 0.930 . S
C1205 C1204 1.376 . S
C1205 C1206 1.388 . S
C1206 H1193 0.930 . S
C1206 C1205 1.388 . S
C1206 C1207 1.390 . S
C1207 C1206 1.390 . S
C1207 C1208 1.394 . S
C1207 C1213 1.465 . S
C1208 C1203 1.399 . S
C1208 C1207 1.394 . S
C1208 C1209 1.516 . S
C1209 C1208 1.516 . S
C1209 C1210 1.502 . S
C1209 C1211 1.561 . S
C1209 C1212 1.526 . S
C1210 H1194 0.959 . S
C1210 H1195 0.959 . S
C1210 H1196 0.961 . S
C1210 C1209 1.502 . S
C1211 H1197 0.960 . S
C1211 H1198 0.961 . S
C1211 H1199 0.959 . S
C1211 C1209 1.561 . S
C1212 C1209 1.526 . S
C1212 C1213 1.396 . S
C1212 C1217 1.390 . S
C1213 C1207 1.465 . S
C1213 C1212 1.396 . S
C1213 C1214 1.399 . S
C1214 H1200 0.929 . S
C1214 C1213 1.399 . S
C1214 C1215 1.385 . S
C1215 H1201 0.931 . S
C1215 C1214 1.385 . S
C1215 C1216 1.389 . S
C1216 C1215 1.389 . S
C1216 C1217 1.387 . S
C1217 H1202 0.930 . S
C1217 C1212 1.390 . S
C1217 C1216 1.387 . S
H1218 C1230 0.934 . S
H1219 C1232 0.930 . S
H1220 C1233 0.930 . S
H1221 C1237 0.959 . S
H1222 C1237 0.959 . S
H1223 C1237 0.961 . S
H1224 C1238 0.960 . S
H1225 C1238 0.961 . S
H1226 C1238 0.959 . S
H1227 C1241 0.929 . S
H1228 C1242 0.931 . S
H1229 C1244 0.930 . S
C1230 H1218 0.934 . S
C1230 C1231 1.395 1_554 S
C1230 C1235 1.398 1_554 S
C1231 C1230 1.395 1_556 S
C1231 C1232 1.376 . S
C1232 H1219 0.930 . S
C1232 C1231 1.376 . S
C1232 C1233 1.388 . S
C1233 H1220 0.930 . S
C1233 C1232 1.388 . S
C1233 C1234 1.390 . S
C1234 C1233 1.390 . S
C1234 C1235 1.432 . S
C1234 C1240 1.465 . S
C1235 C1230 1.398 1_556 S
C1235 C1234 1.432 . S
C1235 C1236 1.484 1_556 S
C1236 C1235 1.484 1_554 S
C1236 C1237 1.502 . S
C1236 C1238 1.561 . S
C1236 C1239 1.526 . S
C1237 H1221 0.959 . S
C1237 H1222 0.959 . S
C1237 H1223 0.961 . S
C1237 C1236 1.502 . S
C1238 H1224 0.960 . S
C1238 H1225 0.961 . S
C1238 H1226 0.959 . S
C1238 C1236 1.561 . S
C1239 C1236 1.526 . S
C1239 C1240 1.396 1_554 S
C1239 C1244 1.390 . S
C1240 C1234 1.465 . S
C1240 C1239 1.396 1_556 S
C1240 C1241 1.399 . S
C1241 H1227 0.929 . S
C1241 C1240 1.399 . S
C1241 C1242 1.385 . S
C1242 H1228 0.931 . S
C1242 C1241 1.385 . S
C1242 C1243 1.406 . S
C1243 C1242 1.406 . S
C1243 C1244 1.376 1_556 S
C1244 H1229 0.930 . S
C1244 C1239 1.390 . S
C1244 C1243 1.376 1_554 S
H1245 C1257 0.930 . S
H1246 C1259 0.930 . S
H1247 C1260 0.930 . S
H1248 C1264 0.959 . S
H1249 C1264 0.959 . S
H1250 C1264 0.961 . S
H1251 C1265 0.960 . S
H1252 C1265 0.961 . S
H1253 C1265 0.959 . S
H1254 C1268 0.929 . S
H1255 C1269 0.931 . S
H1256 C1271 0.930 . S
C1257 H1245 0.930 . S
C1257 C1258 1.399 . S
C1257 C1262 1.399 . S
C1258 C1257 1.399 . S
C1258 C1259 1.376 . S
C1259 H1246 0.930 . S
C1259 C1258 1.376 . S
C1259 C1260 1.388 . S
C1260 H1247 0.930 . S
C1260 C1259 1.388 . S
C1260 C1261 1.390 . S
C1261 C1260 1.390 . S
C1261 C1262 1.394 . S
C1261 C1267 1.465 . S
C1262 C1257 1.399 . S
C1262 C1261 1.394 . S
C1262 C1263 1.516 . S
C1263 C1262 1.516 . S
C1263 C1264 1.502 . S
C1263 C1265 1.561 . S
C1263 C1266 1.526 . S
C1264 H1248 0.959 . S
C1264 H1249 0.959 . S
C1264 H1250 0.961 . S
C1264 C1263 1.502 . S
C1265 H1251 0.960 . S
C1265 H1252 0.961 . S
C1265 H1253 0.959 . S
C1265 C1263 1.561 . S
C1266 C1263 1.526 . S
C1266 C1267 1.396 . S
C1266 C1271 1.390 . S
C1267 C1261 1.465 . S
C1267 C1266 1.396 . S
C1267 C1268 1.399 . S
C1268 H1254 0.929 . S
C1268 C1267 1.399 . S
C1268 C1269 1.385 . S
C1269 H1255 0.931 . S
C1269 C1268 1.385 . S
C1269 C1270 1.389 . S
C1270 C1269 1.389 . S
C1270 C1271 1.387 . S
C1271 H1256 0.930 . S
C1271 C1266 1.390 . S
C1271 C1270 1.387 . S
H1272 C1284 0.930 . S
H1273 C1286 0.930 . S
H1274 C1287 0.930 . S
H1275 C1291 0.959 . S
H1276 C1291 0.959 . S
H1277 C1291 0.961 . S
H1278 C1292 0.960 . S
H1279 C1292 0.961 . S
H1280 C1292 0.959 . S
H1281 C1295 0.929 . S
H1282 C1296 0.931 . S
H1283 C1298 0.930 . S
C1284 H1272 0.930 . S
C1284 C1285 1.399 . S
C1284 C1289 1.399 . S
C1285 C1284 1.399 . S
C1285 C1286 1.376 . S
C1286 H1273 0.930 . S
C1286 C1285 1.376 . S
C1286 C1287 1.388 . S
C1287 H1274 0.930 . S
C1287 C1286 1.388 . S
C1287 C1288 1.390 . S
C1288 C1287 1.390 . S
C1288 C1289 1.394 . S
C1288 C1294 1.465 . S
C1289 C1284 1.399 . S
C1289 C1288 1.394 . S
C1289 C1290 1.516 . S
C1290 C1289 1.516 . S
C1290 C1291 1.502 . S
C1290 C1292 1.561 . S
C1290 C1293 1.526 . S
C1291 H1275 0.959 . S
C1291 H1276 0.959 . S
C1291 H1277 0.961 . S
C1291 C1290 1.502 . S
C1292 H1278 0.960 . S
C1292 H1279 0.961 . S
C1292 H1280 0.959 . S
C1292 C1290 1.561 . S
C1293 C1290 1.526 . S
C1293 C1294 1.396 . S
C1293 C1298 1.390 . S
C1294 C1288 1.465 . S
C1294 C1293 1.396 . S
C1294 C1295 1.399 . S
C1295 H1281 0.929 . S
C1295 C1294 1.399 . S
C1295 C1296 1.385 . S
C1296 H1282 0.931 . S
C1296 C1295 1.385 . S
C1296 C1297 1.389 . S
C1297 C1296 1.389 . S
C1297 C1298 1.387 . S
C1298 H1283 0.930 . S
C1298 C1293 1.390 . S
C1298 C1297 1.387 . S
H1299 C1311 0.930 . S
H1300 C1313 0.930 . S
H1301 C1314 0.930 . S
H1302 C1318 0.959 . S
H1303 C1318 0.959 . S
H1304 C1318 0.961 . S
H1305 C1319 0.960 . S
H1306 C1319 0.961 . S
H1307 C1319 0.959 . S
H1308 C1322 0.929 . S
H1309 C1323 0.931 . S
H1310 C1325 0.930 . S
C1311 H1299 0.930 . S
C1311 C1312 1.399 . S
C1311 C1316 1.399 . S
C1312 C1311 1.399 . S
C1312 C1313 1.376 . S
C1313 H1300 0.930 . S
C1313 C1312 1.376 . S
C1313 C1314 1.388 . S
C1314 H1301 0.930 . S
C1314 C1313 1.388 . S
C1314 C1315 1.390 . S
C1315 C1314 1.390 . S
C1315 C1316 1.394 . S
C1315 C1321 1.465 . S
C1316 C1311 1.399 . S
C1316 C1315 1.394 . S
C1316 C1317 1.516 . S
C1317 C1316 1.516 . S
C1317 C1318 1.502 . S
C1317 C1319 1.561 . S
C1317 C1320 1.526 . S
C1318 H1302 0.959 . S
C1318 H1303 0.959 . S
C1318 H1304 0.961 . S
C1318 C1317 1.502 . S
C1319 H1305 0.960 . S
C1319 H1306 0.961 . S
C1319 H1307 0.959 . S
C1319 C1317 1.561 . S
C1320 C1317 1.526 . S
C1320 C1321 1.396 . S
C1320 C1325 1.390 . S
C1321 C1315 1.465 . S
C1321 C1320 1.396 . S
C1321 C1322 1.399 . S
C1322 H1308 0.929 . S
C1322 C1321 1.399 . S
C1322 C1323 1.385 . S
C1323 H1309 0.931 . S
C1323 C1322 1.385 . S
C1323 C1324 1.389 . S
C1324 C1323 1.389 . S
C1324 C1325 1.387 . S
C1325 H1310 0.930 . S
C1325 C1320 1.390 . S
C1325 C1324 1.387 . S
H1326 C1338 0.930 . S
H1327 C1340 0.930 . S
H1328 C1341 0.930 . S
H1329 C1345 0.959 . S
H1330 C1345 0.959 . S
H1331 C1345 0.961 . S
H1332 C1346 0.960 . S
H1333 C1346 0.961 . S
H1334 C1346 0.959 . S
H1335 C1349 0.929 . S
H1336 C1350 0.931 . S
H1337 C1352 0.930 . S
C1338 H1326 0.930 . S
C1338 C1339 1.399 . S
C1338 C1343 1.399 . S
C1339 C1338 1.399 . S
C1339 C1340 1.376 . S
C1340 H1327 0.930 . S
C1340 C1339 1.376 . S
C1340 C1341 1.388 . S
C1341 H1328 0.930 . S
C1341 C1340 1.388 . S
C1341 C1342 1.390 . S
C1342 C1341 1.390 . S
C1342 C1343 1.394 . S
C1342 C1348 1.465 . S
C1343 C1338 1.399 . S
C1343 C1342 1.394 . S
C1343 C1344 1.516 . S
C1344 C1343 1.516 . S
C1344 C1345 1.502 . S
C1344 C1346 1.561 . S
C1344 C1347 1.526 . S
C1345 H1329 0.959 . S
C1345 H1330 0.959 . S
C1345 H1331 0.961 . S
C1345 C1344 1.502 . S
C1346 H1332 0.960 . S
C1346 H1333 0.961 . S
C1346 H1334 0.959 . S
C1346 C1344 1.561 . S
C1347 C1344 1.526 . S
C1347 C1348 1.396 . S
C1347 C1352 1.390 . S
C1348 C1342 1.465 . S
C1348 C1347 1.396 . S
C1348 C1349 1.399 . S
C1349 H1335 0.929 . S
C1349 C1348 1.399 . S
C1349 C1350 1.385 . S
C1350 H1336 0.931 . S
C1350 C1349 1.385 . S
C1350 C1351 1.389 . S
C1351 C1350 1.389 . S
C1351 C1352 1.387 . S
C1352 H1337 0.930 . S
C1352 C1347 1.390 . S
C1352 C1351 1.387 . S
H1353 C1365 0.930 . S
H1354 C1367 0.930 . S
H1355 C1368 0.930 . S
H1356 C1372 0.959 . S
H1357 C1372 0.959 . S
H1358 C1372 0.961 . S
H1359 C1373 0.960 . S
H1360 C1373 0.961 . S
H1361 C1373 0.959 . S
H1362 C1376 0.929 . S
H1363 C1377 0.931 . S
H1364 C1379 0.930 . S
C1365 H1353 0.930 . S
C1365 C1366 1.399 . S
C1365 C1370 1.399 . S
C1366 C1365 1.399 . S
C1366 C1367 1.376 . S
C1367 H1354 0.930 . S
C1367 C1366 1.376 . S
C1367 C1368 1.388 . S
C1368 H1355 0.930 . S
C1368 C1367 1.388 . S
C1368 C1369 1.390 . S
C1369 C1368 1.390 . S
C1369 C1370 1.394 . S
C1369 C1375 1.465 . S
C1370 C1365 1.399 . S
C1370 C1369 1.394 . S
C1370 C1371 1.516 . S
C1371 C1370 1.516 . S
C1371 C1372 1.502 . S
C1371 C1373 1.561 . S
C1371 C1374 1.526 . S
C1372 H1356 0.959 . S
C1372 H1357 0.959 . S
C1372 H1358 0.961 . S
C1372 C1371 1.502 . S
C1373 H1359 0.960 . S
C1373 H1360 0.961 . S
C1373 H1361 0.959 . S
C1373 C1371 1.561 . S
C1374 C1371 1.526 . S
C1374 C1375 1.396 . S
C1374 C1379 1.390 . S
C1375 C1369 1.465 . S
C1375 C1374 1.396 . S
C1375 C1376 1.399 . S
C1376 H1362 0.929 . S
C1376 C1375 1.399 . S
C1376 C1377 1.385 . S
C1377 H1363 0.931 . S
C1377 C1376 1.385 . S
C1377 C1378 1.389 . S
C1378 C1377 1.389 . S
C1378 C1379 1.387 . S
C1379 H1364 0.930 . S
C1379 C1374 1.390 . S
C1379 C1378 1.387 . S
H1380 C1392 0.930 . S
H1381 C1394 0.930 . S
H1382 C1395 0.930 . S
H1383 C1399 0.959 . S
H1384 C1399 0.959 . S
H1385 C1399 0.961 . S
H1386 C1400 0.960 . S
H1387 C1400 0.961 . S
H1388 C1400 0.959 . S
H1389 C1403 0.929 . S
H1390 C1404 0.931 . S
H1391 C1406 0.930 . S
C1392 H1380 0.930 . S
C1392 C1393 1.399 . S
C1392 C1397 1.399 . S
C1393 C1392 1.399 . S
C1393 C1394 1.376 . S
C1394 H1381 0.930 . S
C1394 C1393 1.376 . S
C1394 C1395 1.388 . S
C1395 H1382 0.930 . S
C1395 C1394 1.388 . S
C1395 C1396 1.390 . S
C1396 C1395 1.390 . S
C1396 C1397 1.394 . S
C1396 C1402 1.465 . S
C1397 C1392 1.399 . S
C1397 C1396 1.394 . S
C1397 C1398 1.516 . S
C1398 C1397 1.516 . S
C1398 C1399 1.502 . S
C1398 C1400 1.561 . S
C1398 C1401 1.526 . S
C1399 H1383 0.959 . S
C1399 H1384 0.959 . S
C1399 H1385 0.961 . S
C1399 C1398 1.502 . S
C1400 H1386 0.960 . S
C1400 H1387 0.961 . S
C1400 H1388 0.959 . S
C1400 C1398 1.561 . S
C1401 C1398 1.526 . S
C1401 C1402 1.396 . S
C1401 C1406 1.390 . S
C1402 C1396 1.465 . S
C1402 C1401 1.396 . S
C1402 C1403 1.399 . S
C1403 H1389 0.929 . S
C1403 C1402 1.399 . S
C1403 C1404 1.385 . S
C1404 H1390 0.931 . S
C1404 C1403 1.385 . S
C1404 C1405 1.389 . S
C1405 C1404 1.389 . S
C1405 C1406 1.387 . S
C1406 H1391 0.930 . S
C1406 C1401 1.390 . S
C1406 C1405 1.387 . S
H1407 C1419 0.930 . S
H1408 C1421 0.930 1_565 S
H1409 C1422 0.930 . S
H1410 C1426 0.959 . S
H1411 C1426 0.959 . S
H1412 C1426 0.961 . S
H1413 C1427 0.960 . S
H1414 C1427 0.961 . S
H1415 C1427 0.959 . S
H1416 C1430 0.929 . S
H1417 C1431 0.931 . S
H1418 C1433 0.930 . S
C1419 H1407 0.930 . S
C1419 C1420 1.399 . S
C1419 C1424 1.399 . S
C1420 C1419 1.399 . S
C1420 C1421 1.376 . S
C1421 H1408 0.930 1_545 S
C1421 C1420 1.376 . S
C1421 C1422 1.388 1_545 S
C1422 H1409 0.930 . S
C1422 C1421 1.388 1_565 S
C1422 C1423 1.390 1_565 S
C1423 C1422 1.390 1_545 S
C1423 C1424 1.394 . S
C1423 C1429 1.465 . S
C1424 C1419 1.399 . S
C1424 C1423 1.394 . S
C1424 C1425 1.516 . S
C1425 C1424 1.516 . S
C1425 C1426 1.502 . S
C1425 C1427 1.561 . S
C1425 C1428 1.526 . S
C1426 H1410 0.959 . S
C1426 H1411 0.959 . S
C1426 H1412 0.961 . S
C1426 C1425 1.502 . S
C1427 H1413 0.960 . S
C1427 H1414 0.961 . S
C1427 H1415 0.959 . S
C1427 C1425 1.561 . S
C1428 C1425 1.526 . S
C1428 C1429 1.396 . S
C1428 C1433 1.390 . S
C1429 C1423 1.465 . S
C1429 C1428 1.396 . S
C1429 C1430 1.399 1_545 S
C1430 H1416 0.929 . S
C1430 C1429 1.399 1_565 S
C1430 C1431 1.385 . S
C1431 H1417 0.931 . S
C1431 C1430 1.385 . S
C1431 C1432 1.389 1_565 S
C1432 C1431 1.389 1_545 S
C1432 C1433 1.387 . S
C1433 H1418 0.930 . S
C1433 C1428 1.390 . S
C1433 C1432 1.387 . S
H1434 C1446 0.930 . S
H1435 C1448 0.930 . S
H1436 C1449 0.930 . S
H1437 C1453 0.959 . S
H1438 C1453 0.959 . S
H1439 C1453 0.961 . S
H1440 C1454 0.960 . S
H1441 C1454 0.961 . S
H1442 C1454 0.959 . S
H1443 C1457 0.929 . S
H1444 C1458 0.931 . S
H1445 C1460 0.930 . S
C1446 H1434 0.930 . S
C1446 C1447 1.399 . S
C1446 C1451 1.399 . S
C1447 C1446 1.399 . S
C1447 C1448 1.376 . S
C1448 H1435 0.930 . S
C1448 C1447 1.376 . S
C1448 C1449 1.388 . S
C1449 H1436 0.930 . S
C1449 C1448 1.388 . S
C1449 C1450 1.390 . S
C1450 C1449 1.390 . S
C1450 C1451 1.394 . S
C1450 C1456 1.465 . S
C1451 C1446 1.399 . S
C1451 C1450 1.394 . S
C1451 C1452 1.516 . S
C1452 C1451 1.516 . S
C1452 C1453 1.502 . S
C1452 C1454 1.561 . S
C1452 C1455 1.526 . S
C1453 H1437 0.959 . S
C1453 H1438 0.959 . S
C1453 H1439 0.961 . S
C1453 C1452 1.502 . S
C1454 H1440 0.960 . S
C1454 H1441 0.961 . S
C1454 H1442 0.959 . S
C1454 C1452 1.561 . S
C1455 C1452 1.526 . S
C1455 C1456 1.396 . S
C1455 C1460 1.390 . S
C1456 C1450 1.465 . S
C1456 C1455 1.396 . S
C1456 C1457 1.399 . S
C1457 H1443 0.929 . S
C1457 C1456 1.399 . S
C1457 C1458 1.385 . S
C1458 H1444 0.931 . S
C1458 C1457 1.385 . S
C1458 C1459 1.389 . S
C1459 C1458 1.389 . S
C1459 C1460 1.387 . S
C1460 H1445 0.930 . S
C1460 C1455 1.390 . S
C1460 C1459 1.387 . S
H1461 C1473 0.930 . S
H1462 C1475 0.930 . S
H1463 C1476 0.930 . S
H1464 C1480 0.959 . S
H1465 C1480 0.959 . S
H1466 C1480 0.961 . S
H1467 C1481 0.960 . S
H1468 C1481 0.961 . S
H1469 C1481 0.959 . S
H1470 C1484 0.929 . S
H1471 C1485 0.931 . S
H1472 C1487 0.930 . S
C1473 H1461 0.930 . S
C1473 C1474 1.399 . S
C1473 C1478 1.399 . S
C1474 C1473 1.399 . S
C1474 C1475 1.376 . S
C1475 H1462 0.930 . S
C1475 C1474 1.376 . S
C1475 C1476 1.388 . S
C1476 H1463 0.930 . S
C1476 C1475 1.388 . S
C1476 C1477 1.390 . S
C1477 C1476 1.390 . S
C1477 C1478 1.394 . S
C1477 C1483 1.465 . S
C1478 C1473 1.399 . S
C1478 C1477 1.394 . S
C1478 C1479 1.516 . S
C1479 C1478 1.516 . S
C1479 C1480 1.502 . S
C1479 C1481 1.561 . S
C1479 C1482 1.526 . S
C1480 H1464 0.959 . S
C1480 H1465 0.959 . S
C1480 H1466 0.961 . S
C1480 C1479 1.502 . S
C1481 H1467 0.960 . S
C1481 H1468 0.961 . S
C1481 H1469 0.959 . S
C1481 C1479 1.561 . S
C1482 C1479 1.526 . S
C1482 C1483 1.396 . S
C1482 C1487 1.390 . S
C1483 C1477 1.465 . S
C1483 C1482 1.396 . S
C1483 C1484 1.399 . S
C1484 H1470 0.929 . S
C1484 C1483 1.399 . S
C1484 C1485 1.385 . S
C1485 H1471 0.931 . S
C1485 C1484 1.385 . S
C1485 C1486 1.389 . S
C1486 C1485 1.389 . S
C1486 C1487 1.387 . S
C1487 H1472 0.930 . S
C1487 C1482 1.390 . S
C1487 C1486 1.387 . S
H1488 C1500 0.930 . S
H1489 C1502 0.930 . S
H1490 C1503 0.930 . S
H1491 C1507 0.959 . S
H1492 C1507 0.959 . S
H1493 C1507 0.961 . S
H1494 C1508 0.960 . S
H1495 C1508 0.961 . S
H1496 C1508 0.959 . S
H1497 C1511 0.929 . S
H1498 C1512 0.931 . S
H1499 C1514 0.930 . S
C1500 H1488 0.930 . S
C1500 C1501 1.399 . S
C1500 C1505 1.399 . S
C1501 C1500 1.399 . S
C1501 C1502 1.376 . S
C1502 H1489 0.930 . S
C1502 C1501 1.376 . S
C1502 C1503 1.388 . S
C1503 H1490 0.930 . S
C1503 C1502 1.388 . S
C1503 C1504 1.390 . S
C1504 C1503 1.390 . S
C1504 C1505 1.394 . S
C1504 C1510 1.465 . S
C1505 C1500 1.399 . S
C1505 C1504 1.394 . S
C1505 C1506 1.516 . S
C1506 C1505 1.516 . S
C1506 C1507 1.502 . S
C1506 C1508 1.561 . S
C1506 C1509 1.526 . S
C1507 H1491 0.959 . S
C1507 H1492 0.959 . S
C1507 H1493 0.961 . S
C1507 C1506 1.502 . S
C1508 H1494 0.960 . S
C1508 H1495 0.961 . S
C1508 H1496 0.959 . S
C1508 C1506 1.561 . S
C1509 C1506 1.526 . S
C1509 C1510 1.396 . S
C1509 C1514 1.390 . S
C1510 C1504 1.465 . S
C1510 C1509 1.396 . S
C1510 C1511 1.399 . S
C1511 H1497 0.929 . S
C1511 C1510 1.399 . S
C1511 C1512 1.385 . S
C1512 H1498 0.931 . S
C1512 C1511 1.385 . S
C1512 C1513 1.389 . S
C1513 C1512 1.389 . S
C1513 C1514 1.387 . S
C1514 H1499 0.930 . S
C1514 C1509 1.390 . S
C1514 C1513 1.387 . S
H1515 C1527 0.930 . S
H1516 C1529 0.930 . S
H1517 C1530 0.930 1_565 S
H1518 C1534 0.959 . S
H1519 C1534 0.959 . S
H1520 C1534 0.961 . S
H1521 C1535 0.960 . S
H1522 C1535 0.961 . S
H1523 C1535 0.959 . S
H1524 C1538 0.929 1_565 S
H1525 C1539 0.931 1_565 S
H1526 C1541 0.930 . S
C1527 H1515 0.930 . S
C1527 C1528 1.399 . S
C1527 C1532 1.399 . S
C1528 C1527 1.399 . S
C1528 C1529 1.376 . S
C1529 H1516 0.930 . S
C1529 C1528 1.376 . S
C1529 C1530 1.388 . S
C1530 H1517 0.930 1_545 S
C1530 C1529 1.388 . S
C1530 C1531 1.390 . S
C1531 C1530 1.390 . S
C1531 C1532 1.394 . S
C1531 C1537 1.465 . S
C1532 C1527 1.399 . S
C1532 C1531 1.394 . S
C1532 C1533 1.516 . S
C1533 C1532 1.516 . S
C1533 C1534 1.502 . S
C1533 C1535 1.561 . S
C1533 C1536 1.526 . S
C1534 H1518 0.959 . S
C1534 H1519 0.959 . S
C1534 H1520 0.961 . S
C1534 C1533 1.502 . S
C1535 H1521 0.960 . S
C1535 H1522 0.961 . S
C1535 H1523 0.959 . S
C1535 C1533 1.561 . S
C1536 C1533 1.526 . S
C1536 C1537 1.396 . S
C1536 C1541 1.390 . S
C1537 C1531 1.465 . S
C1537 C1536 1.396 . S
C1537 C1538 1.399 . S
C1538 H1524 0.929 1_545 S
C1538 C1537 1.399 . S
C1538 C1539 1.385 . S
C1539 H1525 0.931 1_545 S
C1539 C1538 1.385 . S
C1539 C1540 1.389 . S
C1540 C1539 1.389 . S
C1540 C1541 1.387 . S
C1541 H1526 0.930 . S
C1541 C1536 1.390 . S
C1541 C1540 1.387 . S
H1542 C1554 0.930 . S
H1543 C1556 0.930 . S
H1544 C1557 0.930 . S
H1545 C1561 0.959 . S
H1546 C1561 0.959 . S
H1547 C1561 0.961 . S
H1548 C1562 0.960 . S
H1549 C1562 0.961 . S
H1550 C1562 0.959 . S
H1551 C1565 0.929 . S
H1552 C1566 0.931 . S
H1553 C1568 0.930 . S
C1554 H1542 0.930 . S
C1554 C1555 1.399 . S
C1554 C1559 1.399 . S
C1555 C1554 1.399 . S
C1555 C1556 1.376 . S
C1556 H1543 0.930 . S
C1556 C1555 1.376 . S
C1556 C1557 1.388 . S
C1557 H1544 0.930 . S
C1557 C1556 1.388 . S
C1557 C1558 1.390 . S
C1558 C1557 1.390 . S
C1558 C1559 1.394 . S
C1558 C1564 1.465 . S
C1559 C1554 1.399 . S
C1559 C1558 1.394 . S
C1559 C1560 1.516 . S
C1560 C1559 1.516 . S
C1560 C1561 1.502 . S
C1560 C1562 1.561 . S
C1560 C1563 1.526 . S
C1561 H1545 0.959 . S
C1561 H1546 0.959 . S
C1561 H1547 0.961 . S
C1561 C1560 1.502 . S
C1562 H1548 0.960 . S
C1562 H1549 0.961 . S
C1562 H1550 0.959 . S
C1562 C1560 1.561 . S
C1563 C1560 1.526 . S
C1563 C1564 1.396 . S
C1563 C1568 1.390 . S
C1564 C1558 1.465 . S
C1564 C1563 1.396 . S
C1564 C1565 1.399 . S
C1565 H1551 0.929 . S
C1565 C1564 1.399 . S
C1565 C1566 1.385 . S
C1566 H1552 0.931 . S
C1566 C1565 1.385 . S
C1566 C1567 1.389 . S
C1567 C1566 1.389 . S
C1567 C1568 1.387 . S
C1568 H1553 0.930 . S
C1568 C1563 1.390 . S
C1568 C1567 1.387 . S
H1569 C1581 0.930 . S
H1570 C1583 0.930 . S
H1571 C1584 0.930 . S
H1572 C1588 0.959 . S
H1573 C1588 0.959 . S
H1574 C1588 0.961 . S
H1575 C1589 0.960 . S
H1576 C1589 0.961 . S
H1577 C1589 0.959 . S
H1578 C1592 0.929 . S
H1579 C1593 0.931 . S
H1580 C1595 0.930 . S
C1581 H1569 0.930 . S
C1581 C1582 1.399 . S
C1581 C1586 1.399 . S
C1582 C1581 1.399 . S
C1582 C1583 1.376 . S
C1583 H1570 0.930 . S
C1583 C1582 1.376 . S
C1583 C1584 1.388 . S
C1584 H1571 0.930 . S
C1584 C1583 1.388 . S
C1584 C1585 1.390 . S
C1585 C1584 1.390 . S
C1585 C1586 1.394 . S
C1585 C1591 1.465 . S
C1586 C1581 1.399 . S
C1586 C1585 1.394 . S
C1586 C1587 1.516 . S
C1587 C1586 1.516 . S
C1587 C1588 1.502 . S
C1587 C1589 1.561 . S
C1587 C1590 1.526 . S
C1588 H1572 0.959 . S
C1588 H1573 0.959 . S
C1588 H1574 0.961 . S
C1588 C1587 1.502 . S
C1589 H1575 0.960 . S
C1589 H1576 0.961 . S
C1589 H1577 0.959 . S
C1589 C1587 1.561 . S
C1590 C1587 1.526 . S
C1590 C1591 1.396 . S
C1590 C1595 1.390 . S
C1591 C1585 1.465 . S
C1591 C1590 1.396 . S
C1591 C1592 1.399 . S
C1592 H1578 0.929 . S
C1592 C1591 1.399 . S
C1592 C1593 1.385 . S
C1593 H1579 0.931 . S
C1593 C1592 1.385 . S
C1593 C1594 1.389 . S
C1594 C1593 1.389 . S
C1594 C1595 1.387 . S
C1595 H1580 0.930 . S
C1595 C1590 1.390 . S
C1595 C1594 1.387 . S
H1596 C1608 0.930 . S
H1597 C1610 0.930 . S
H1598 C1611 0.930 . S
H1599 C1615 0.959 . S
H1600 C1615 0.959 . S
H1601 C1615 0.961 . S
H1602 C1616 0.960 . S
H1603 C1616 0.961 . S
H1604 C1616 0.959 . S
H1605 C1619 0.929 . S
H1606 C1620 0.931 . S
H1607 C1622 0.930 . S
C1608 H1596 0.930 . S
C1608 C1609 1.399 . S
C1608 C1613 1.399 . S
C1609 C1608 1.399 . S
C1609 C1610 1.376 . S
C1610 H1597 0.930 . S
C1610 C1609 1.376 . S
C1610 C1611 1.388 . S
C1611 H1598 0.930 . S
C1611 C1610 1.388 . S
C1611 C1612 1.390 . S
C1612 C1611 1.390 . S
C1612 C1613 1.394 . S
C1612 C1618 1.465 . S
C1613 C1608 1.399 . S
C1613 C1612 1.394 . S
C1613 C1614 1.516 . S
C1614 C1613 1.516 . S
C1614 C1615 1.502 . S
C1614 C1616 1.561 . S
C1614 C1617 1.526 . S
C1615 H1599 0.959 . S
C1615 H1600 0.959 . S
C1615 H1601 0.961 . S
C1615 C1614 1.502 . S
C1616 H1602 0.960 . S
C1616 H1603 0.961 . S
C1616 H1604 0.959 . S
C1616 C1614 1.561 . S
C1617 C1614 1.526 . S
C1617 C1618 1.396 . S
C1617 C1622 1.390 . S
C1618 C1612 1.465 . S
C1618 C1617 1.396 . S
C1618 C1619 1.399 . S
C1619 H1605 0.929 . S
C1619 C1618 1.399 . S
C1619 C1620 1.385 . S
C1620 H1606 0.931 . S
C1620 C1619 1.385 . S
C1620 C1621 1.389 . S
C1621 C1620 1.389 . S
C1621 C1622 1.387 . S
C1622 H1607 0.930 . S
C1622 C1617 1.390 . S
C1622 C1621 1.387 . S
H1623 C1635 0.930 1_455 S
H1624 C1637 0.930 . S
H1625 C1638 0.930 . S
H1626 C1642 0.959 . S
H1627 C1642 0.959 . S
H1628 C1642 0.961 . S
H1629 C1643 0.960 . S
H1630 C1643 0.961 . S
H1631 C1643 0.959 . S
H1632 C1646 0.929 . S
H1633 C1647 0.931 . S
H1634 C1649 0.930 . S
C1635 H1623 0.930 1_655 S
C1635 C1636 1.399 . S
C1635 C1640 1.399 . S
C1636 C1635 1.399 . S
C1636 C1637 1.376 . S
C1637 H1624 0.930 . S
C1637 C1636 1.376 . S
C1637 C1638 1.388 . S
C1638 H1625 0.930 . S
C1638 C1637 1.388 . S
C1638 C1639 1.390 . S
C1639 C1638 1.390 . S
C1639 C1640 1.394 . S
C1639 C1645 1.465 . S
C1640 C1635 1.399 . S
C1640 C1639 1.394 . S
C1640 C1641 1.516 1_655 S
C1641 C1640 1.516 1_455 S
C1641 C1642 1.502 . S
C1641 C1643 1.561 . S
C1641 C1644 1.526 1_455 S
C1642 H1626 0.959 . S
C1642 H1627 0.959 . S
C1642 H1628 0.961 . S
C1642 C1641 1.502 . S
C1643 H1629 0.960 . S
C1643 H1630 0.961 . S
C1643 H1631 0.959 . S
C1643 C1641 1.561 . S
C1644 C1641 1.526 1_655 S
C1644 C1645 1.396 . S
C1644 C1649 1.390 1_655 S
C1645 C1639 1.465 . S
C1645 C1644 1.396 . S
C1645 C1646 1.399 . S
C1646 H1632 0.929 . S
C1646 C1645 1.399 . S
C1646 C1647 1.385 . S
C1647 H1633 0.931 . S
C1647 C1646 1.385 . S
C1647 C1648 1.389 . S
C1648 C1647 1.389 . S
C1648 C1649 1.387 1_655 S
C1649 H1634 0.930 . S
C1649 C1644 1.390 1_455 S
C1649 C1648 1.387 1_455 S
H1650 C1662 0.930 . S
H1651 C1664 0.930 . S
H1652 C1665 0.930 . S
H1653 C1669 0.959 . S
H1654 C1669 0.959 . S
H1655 C1669 0.961 . S
H1656 C1670 0.960 . S
H1657 C1670 0.961 . S
H1658 C1670 0.959 . S
H1659 C1673 0.929 . S
H1660 C1674 0.931 . S
H1661 C1676 0.930 . S
C1662 H1650 0.930 . S
C1662 C1663 1.399 . S
C1662 C1667 1.399 . S
C1663 C1662 1.399 . S
C1663 C1664 1.376 . S
C1664 H1651 0.930 . S
C1664 C1663 1.376 . S
C1664 C1665 1.388 . S
C1665 H1652 0.930 . S
C1665 C1664 1.388 . S
C1665 C1666 1.390 . S
C1666 C1665 1.390 . S
C1666 C1667 1.394 . S
C1666 C1672 1.465 . S
C1667 C1662 1.399 . S
C1667 C1666 1.394 . S
C1667 C1668 1.516 . S
C1668 C1667 1.516 . S
C1668 C1669 1.502 . S
C1668 C1670 1.561 . S
C1668 C1671 1.526 . S
C1669 H1653 0.959 . S
C1669 H1654 0.959 . S
C1669 H1655 0.961 . S
C1669 C1668 1.502 . S
C1670 H1656 0.960 . S
C1670 H1657 0.961 . S
C1670 H1658 0.959 . S
C1670 C1668 1.561 . S
C1671 C1668 1.526 . S
C1671 C1672 1.396 . S
C1671 C1676 1.390 . S
C1672 C1666 1.465 . S
C1672 C1671 1.396 . S
C1672 C1673 1.399 . S
C1673 H1659 0.929 . S
C1673 C1672 1.399 . S
C1673 C1674 1.385 . S
C1674 H1660 0.931 . S
C1674 C1673 1.385 . S
C1674 C1675 1.389 . S
C1675 C1674 1.389 . S
C1675 C1676 1.387 . S
C1676 H1661 0.930 . S
C1676 C1671 1.390 . S
C1676 C1675 1.387 . S
H1677 C1689 0.930 . S
H1678 C1691 0.930 . S
H1679 C1692 0.930 . S
H1680 C1696 0.959 . S
H1681 C1696 0.959 . S
H1682 C1696 0.961 . S
H1683 C1697 0.960 . S
H1684 C1697 0.961 . S
H1685 C1697 0.959 . S
H1686 C1700 0.929 . S
H1687 C1701 0.931 . S
H1688 C1703 0.916 1_655 S
C1689 H1677 0.930 . S
C1689 C1690 1.399 . S
C1689 C1694 1.399 . S
C1690 C1689 1.399 . S
C1690 C1691 1.376 . S
C1691 H1678 0.930 . S
C1691 C1690 1.376 . S
C1691 C1692 1.388 . S
C1692 H1679 0.930 . S
C1692 C1691 1.388 . S
C1692 C1693 1.390 . S
C1693 C1692 1.390 . S
C1693 C1694 1.394 . S
C1693 C1699 1.465 . S
C1694 C1689 1.399 . S
C1694 C1693 1.394 . S
C1694 C1695 1.516 . S
C1695 C1694 1.516 . S
C1695 C1696 1.502 1_455 S
C1695 C1697 1.561 . S
C1695 C1698 1.526 . S
C1696 H1680 0.959 . S
C1696 H1681 0.959 . S
C1696 H1682 0.961 . S
C1696 C1695 1.502 1_655 S
C1697 H1683 0.960 . S
C1697 H1684 0.961 . S
C1697 H1685 0.959 . S
C1697 C1695 1.561 . S
C1698 C1695 1.526 . S
C1698 C1699 1.396 . S
C1698 C1703 1.390 . S
C1699 C1693 1.465 . S
C1699 C1698 1.396 . S
C1699 C1700 1.399 . S
C1700 H1686 0.929 . S
C1700 C1699 1.399 . S
C1700 C1701 1.385 . S
C1701 H1687 0.931 . S
C1701 C1700 1.385 . S
C1701 C1702 1.389 . S
C1702 C1701 1.389 . S
C1702 C1703 1.387 . S
C1703 H1688 0.916 1_455 S
C1703 C1698 1.390 . S
C1703 C1702 1.387 . S
H1704 C1716 0.930 . S
H1705 C1718 0.930 . S
H1706 C1719 0.930 . S
H1707 C1723 0.959 . S
H1708 C1723 0.959 . S
H1709 C1723 0.961 . S
H1710 C1724 0.960 . S
H1711 C1724 0.961 . S
H1712 C1724 0.959 . S
H1713 C1727 0.929 . S
H1714 C1728 0.931 . S
H1715 C1730 0.930 . S
C1716 H1704 0.930 . S
C1716 C1717 1.399 . S
C1716 C1721 1.399 . S
C1717 C1716 1.399 . S
C1717 C1718 1.376 . S
C1718 H1705 0.930 . S
C1718 C1717 1.376 . S
C1718 C1719 1.388 . S
C1719 H1706 0.930 . S
C1719 C1718 1.388 . S
C1719 C1720 1.390 . S
C1720 C1719 1.390 . S
C1720 C1721 1.394 . S
C1720 C1726 1.465 . S
C1721 C1716 1.399 . S
C1721 C1720 1.394 . S
C1721 C1722 1.516 . S
C1722 C1721 1.516 . S
C1722 C1723 1.502 . S
C1722 C1724 1.561 . S
C1722 C1725 1.526 . S
C1723 H1707 0.959 . S
C1723 H1708 0.959 . S
C1723 H1709 0.961 . S
C1723 C1722 1.502 . S
C1724 H1710 0.960 . S
C1724 H1711 0.961 . S
C1724 H1712 0.959 . S
C1724 C1722 1.561 . S
C1725 C1722 1.526 . S
C1725 C1726 1.396 . S
C1725 C1730 1.390 . S
C1726 C1720 1.465 . S
C1726 C1725 1.396 . S
C1726 C1727 1.399 . S
C1727 H1713 0.929 . S
C1727 C1726 1.399 . S
C1727 C1728 1.385 . S
C1728 H1714 0.931 . S
C1728 C1727 1.385 . S
C1728 C1729 1.389 . S
C1729 C1728 1.389 . S
C1729 C1730 1.387 . S
C1730 H1715 0.930 . S
C1730 C1725 1.390 . S
C1730 C1729 1.387 . S
H1731 C1743 0.930 . S
H1732 C1745 0.930 . S
H1733 C1746 0.930 . S
H1734 C1750 0.959 . S
H1735 C1750 0.959 . S
H1736 C1750 0.961 . S
H1737 C1751 0.960 . S
H1738 C1751 0.961 . S
H1739 C1751 0.959 . S
H1740 C1754 0.929 . S
H1741 C1755 0.931 . S
H1742 C1757 0.930 . S
C1743 H1731 0.930 . S
C1743 C1744 1.399 . S
C1743 C1748 1.399 . S
C1744 C1743 1.399 . S
C1744 C1745 1.376 . S
C1745 H1732 0.930 . S
C1745 C1744 1.376 . S
C1745 C1746 1.388 . S
C1746 H1733 0.930 . S
C1746 C1745 1.388 . S
C1746 C1747 1.390 . S
C1747 C1746 1.390 . S
C1747 C1748 1.394 . S
C1747 C1753 1.465 . S
C1748 C1743 1.399 . S
C1748 C1747 1.394 . S
C1748 C1749 1.516 . S
C1749 C1748 1.516 . S
C1749 C1750 1.502 . S
C1749 C1751 1.561 . S
C1749 C1752 1.526 . S
C1750 H1734 0.959 . S
C1750 H1735 0.959 . S
C1750 H1736 0.961 . S
C1750 C1749 1.502 . S
C1751 H1737 0.960 . S
C1751 H1738 0.961 . S
C1751 H1739 0.959 . S
C1751 C1749 1.561 . S
C1752 C1749 1.526 . S
C1752 C1753 1.396 . S
C1752 C1757 1.390 . S
C1753 C1747 1.465 . S
C1753 C1752 1.396 . S
C1753 C1754 1.399 . S
C1754 H1740 0.929 . S
C1754 C1753 1.399 . S
C1754 C1755 1.385 . S
C1755 H1741 0.931 . S
C1755 C1754 1.385 . S
C1755 C1756 1.389 . S
C1756 C1755 1.389 . S
C1756 C1757 1.387 . S
C1757 H1742 0.930 . S
C1757 C1752 1.390 . S
C1757 C1756 1.387 . S
H1758 C1770 0.930 . S
H1759 C1772 0.930 . S
H1760 C1773 0.930 . S
H1761 C1777 0.959 . S
H1762 C1777 0.959 . S
H1763 C1777 0.961 . S
H1764 C1778 0.960 . S
H1765 C1778 0.961 . S
H1766 C1778 0.959 . S
H1767 C1781 0.929 . S
H1768 C1782 0.931 . S
H1769 C1784 0.930 . S
C1770 H1758 0.930 . S
C1770 C1771 1.399 . S
C1770 C1775 1.399 . S
C1771 C1770 1.399 . S
C1771 C1772 1.376 . S
C1772 H1759 0.930 . S
C1772 C1771 1.376 . S
C1772 C1773 1.388 . S
C1773 H1760 0.930 . S
C1773 C1772 1.388 . S
C1773 C1774 1.390 . S
C1774 C1773 1.390 . S
C1774 C1775 1.394 . S
C1774 C1780 1.465 . S
C1775 C1770 1.399 . S
C1775 C1774 1.394 . S
C1775 C1776 1.516 . S
C1776 C1775 1.516 . S
C1776 C1777 1.502 . S
C1776 C1778 1.561 . S
C1776 C1779 1.526 . S
C1777 H1761 0.959 . S
C1777 H1762 0.959 . S
C1777 H1763 0.961 . S
C1777 C1776 1.502 . S
C1778 H1764 0.960 . S
C1778 H1765 0.961 . S
C1778 H1766 0.959 . S
C1778 C1776 1.561 . S
C1779 C1776 1.526 . S
C1779 C1780 1.396 . S
C1779 C1784 1.390 . S
C1780 C1774 1.465 . S
C1780 C1779 1.396 . S
C1780 C1781 1.399 . S
C1781 H1767 0.929 . S
C1781 C1780 1.399 . S
C1781 C1782 1.385 . S
C1782 H1768 0.931 . S
C1782 C1781 1.385 . S
C1782 C1783 1.389 . S
C1783 C1782 1.389 . S
C1783 C1784 1.387 . S
C1784 H1769 0.930 . S
C1784 C1779 1.390 . S
C1784 C1783 1.387 . S
H1785 C1797 0.930 . S
H1786 C1799 0.930 . S
H1787 C1800 0.930 . S
H1788 C1804 0.959 . S
H1789 C1804 0.959 . S
H1790 C1804 0.961 . S
H1791 C1805 0.960 . S
H1792 C1805 0.961 . S
H1793 C1805 0.959 . S
H1794 C1808 0.929 . S
H1795 C1809 0.931 . S
H1796 C1811 0.930 . S
C1797 H1785 0.930 . S
C1797 C1798 1.399 . S
C1797 C1802 1.399 . S
C1798 C1797 1.399 . S
C1798 C1799 1.376 . S
C1799 H1786 0.930 . S
C1799 C1798 1.376 . S
C1799 C1800 1.388 . S
C1800 H1787 0.930 . S
C1800 C1799 1.388 . S
C1800 C1801 1.390 . S
C1801 C1800 1.390 . S
C1801 C1802 1.394 . S
C1801 C1807 1.465 . S
C1802 C1797 1.399 . S
C1802 C1801 1.394 . S
C1802 C1803 1.516 . S
C1803 C1802 1.516 . S
C1803 C1804 1.502 . S
C1803 C1805 1.561 . S
C1803 C1806 1.526 . S
C1804 H1788 0.959 . S
C1804 H1789 0.959 . S
C1804 H1790 0.961 . S
C1804 C1803 1.502 . S
C1805 H1791 0.960 . S
C1805 H1792 0.961 . S
C1805 H1793 0.959 . S
C1805 C1803 1.561 . S
C1806 C1803 1.526 . S
C1806 C1807 1.396 . S
C1806 C1811 1.390 . S
C1807 C1801 1.465 . S
C1807 C1806 1.396 . S
C1807 C1808 1.399 . S
C1808 H1794 0.929 . S
C1808 C1807 1.399 . S
C1808 C1809 1.385 . S
C1809 H1795 0.931 . S
C1809 C1808 1.385 . S
C1809 C1810 1.389 . S
C1810 C1809 1.389 . S
C1810 C1811 1.387 . S
C1811 H1796 0.930 . S
C1811 C1806 1.390 . S
C1811 C1810 1.387 . S
H1812 C1824 0.930 . S
H1813 C1826 0.930 . S
H1814 C1827 0.930 . S
H1815 C1831 0.959 . S
H1816 C1831 0.959 . S
H1817 C1831 0.961 . S
H1818 C1832 0.960 . S
H1819 C1832 0.961 . S
H1820 C1832 0.959 . S
H1821 C1835 0.929 . S
H1822 C1836 0.931 . S
H1823 C1838 0.930 . S
C1824 H1812 0.930 . S
C1824 C1825 1.399 . S
C1824 C1829 1.399 . S
C1825 C1824 1.399 . S
C1825 C1826 1.376 . S
C1826 H1813 0.930 . S
C1826 C1825 1.376 . S
C1826 C1827 1.388 . S
C1827 H1814 0.930 . S
C1827 C1826 1.388 . S
C1827 C1828 1.390 . S
C1828 C1827 1.390 . S
C1828 C1829 1.394 . S
C1828 C1834 1.465 . S
C1829 C1824 1.399 . S
C1829 C1828 1.394 . S
C1829 C1830 1.516 . S
C1830 C1829 1.516 . S
C1830 C1831 1.502 . S
C1830 C1832 1.561 . S
C1830 C1833 1.526 . S
C1831 H1815 0.959 . S
C1831 H1816 0.959 . S
C1831 H1817 0.961 . S
C1831 C1830 1.502 . S
C1832 H1818 0.960 . S
C1832 H1819 0.961 . S
C1832 H1820 0.959 . S
C1832 C1830 1.561 . S
C1833 C1830 1.526 . S
C1833 C1834 1.396 . S
C1833 C1838 1.390 . S
C1834 C1828 1.465 . S
C1834 C1833 1.396 . S
C1834 C1835 1.399 . S
C1835 H1821 0.929 . S
C1835 C1834 1.399 . S
C1835 C1836 1.385 . S
C1836 H1822 0.931 . S
C1836 C1835 1.385 . S
C1836 C1837 1.389 . S
C1837 C1836 1.389 . S
C1837 C1838 1.387 . S
C1838 H1823 0.930 . S
C1838 C1833 1.390 . S
C1838 C1837 1.387 . S
H1839 C1851 0.930 . S
H1840 C1853 0.930 . S
H1841 C1854 0.930 . S
H1842 C1858 0.959 . S
H1843 C1858 0.959 . S
H1844 C1858 0.961 . S
H1845 C1859 0.960 . S
H1846 C1859 0.961 . S
H1847 C1859 0.959 . S
H1848 C1862 0.929 . S
H1849 C1863 0.931 . S
H1850 C1865 0.930 . S
C1851 H1839 0.930 . S
C1851 C1852 1.399 . S
C1851 C1856 1.399 . S
C1852 C1851 1.399 . S
C1852 C1853 1.376 . S
C1853 H1840 0.930 . S
C1853 C1852 1.376 . S
C1853 C1854 1.388 . S
C1854 H1841 0.930 . S
C1854 C1853 1.388 . S
C1854 C1855 1.390 . S
C1855 C1854 1.390 . S
C1855 C1856 1.394 . S
C1855 C1861 1.465 . S
C1856 C1851 1.399 . S
C1856 C1855 1.394 . S
C1856 C1857 1.516 . S
C1857 C1856 1.516 . S
C1857 C1858 1.502 . S
C1857 C1859 1.561 . S
C1857 C1860 1.526 . S
C1858 H1842 0.959 . S
C1858 H1843 0.959 . S
C1858 H1844 0.961 . S
C1858 C1857 1.502 . S
C1859 H1845 0.960 . S
C1859 H1846 0.961 . S
C1859 H1847 0.959 . S
C1859 C1857 1.561 . S
C1860 C1857 1.526 . S
C1860 C1861 1.396 . S
C1860 C1865 1.390 . S
C1861 C1855 1.465 . S
C1861 C1860 1.396 . S
C1861 C1862 1.399 . S
C1862 H1848 0.929 . S
C1862 C1861 1.399 . S
C1862 C1863 1.385 . S
C1863 H1849 0.931 . S
C1863 C1862 1.385 . S
C1863 C1864 1.389 . S
C1864 C1863 1.389 . S
C1864 C1865 1.387 . S
C1865 H1850 0.930 . S
C1865 C1860 1.390 . S
C1865 C1864 1.387 . S
H1866 C1878 0.930 . S
H1867 C1880 0.930 . S
H1868 C1881 0.930 . S
H1869 C1885 0.959 . S
H1870 C1885 0.959 . S
H1871 C1885 0.961 . S
H1872 C1886 0.960 . S
H1873 C1886 0.961 . S
H1874 C1886 0.959 . S
H1875 C1889 0.929 . S
H1876 C1890 0.931 . S
H1877 C1892 0.930 . S
C1878 H1866 0.930 . S
C1878 C1879 1.399 . S
C1878 C1883 1.399 . S
C1879 C1878 1.399 . S
C1879 C1880 1.376 . S
C1880 H1867 0.930 . S
C1880 C1879 1.376 . S
C1880 C1881 1.388 . S
C1881 H1868 0.930 . S
C1881 C1880 1.388 . S
C1881 C1882 1.390 . S
C1882 C1881 1.390 . S
C1882 C1883 1.394 . S
C1882 C1888 1.465 . S
C1883 C1878 1.399 . S
C1883 C1882 1.394 . S
C1883 C1884 1.516 . S
C1884 C1883 1.516 . S
C1884 C1885 1.502 . S
C1884 C1886 1.561 . S
C1884 C1887 1.526 . S
C1885 H1869 0.959 . S
C1885 H1870 0.959 . S
C1885 H1871 0.961 . S
C1885 C1884 1.502 . S
C1886 H1872 0.960 . S
C1886 H1873 0.961 . S
C1886 H1874 0.959 . S
C1886 C1884 1.561 . S
C1887 C1884 1.526 . S
C1887 C1888 1.396 . S
C1887 C1892 1.390 . S
C1888 C1882 1.465 . S
C1888 C1887 1.396 . S
C1888 C1889 1.399 . S
C1889 H1875 0.929 . S
C1889 C1888 1.399 . S
C1889 C1890 1.385 . S
C1890 H1876 0.931 . S
C1890 C1889 1.385 . S
C1890 C1891 1.389 . S
C1891 C1890 1.389 . S
C1891 C1892 1.387 . S
C1892 H1877 0.930 . S
C1892 C1887 1.390 . S
C1892 C1891 1.387 . S
H1893 C1905 0.930 . S
H1894 C1907 0.930 . S
H1895 C1908 0.930 . S
H1896 C1912 0.959 . S
H1897 C1912 0.959 . S
H1898 C1912 0.961 . S
H1899 C1913 0.960 . S
H1900 C1913 0.961 . S
H1901 C1913 0.959 . S
H1902 C1916 0.929 . S
H1903 C1917 0.931 . S
H1904 C1919 0.930 . S
C1905 H1893 0.930 . S
C1905 C1906 1.399 . S
C1905 C1910 1.399 . S
C1906 C1905 1.399 . S
C1906 C1907 1.376 . S
C1907 H1894 0.930 . S
C1907 C1906 1.376 . S
C1907 C1908 1.388 . S
C1908 H1895 0.930 . S
C1908 C1907 1.388 . S
C1908 C1909 1.390 . S
C1909 C1908 1.390 . S
C1909 C1910 1.394 . S
C1909 C1915 1.465 . S
C1910 C1905 1.399 . S
C1910 C1909 1.394 . S
C1910 C1911 1.516 . S
C1911 C1910 1.516 . S
C1911 C1912 1.502 . S
C1911 C1913 1.561 . S
C1911 C1914 1.526 . S
C1912 H1896 0.959 . S
C1912 H1897 0.959 . S
C1912 H1898 0.961 . S
C1912 C1911 1.502 . S
C1913 H1899 0.960 . S
C1913 H1900 0.961 . S
C1913 H1901 0.959 . S
C1913 C1911 1.561 . S
C1914 C1911 1.526 . S
C1914 C1915 1.396 . S
C1914 C1919 1.390 . S
C1915 C1909 1.465 . S
C1915 C1914 1.396 . S
C1915 C1916 1.399 . S
C1916 H1902 0.929 . S
C1916 C1915 1.399 . S
C1916 C1917 1.385 . S
C1917 H1903 0.931 . S
C1917 C1916 1.385 . S
C1917 C1918 1.389 . S
C1918 C1917 1.389 . S
C1918 C1919 1.387 . S
C1919 H1904 0.930 . S
C1919 C1914 1.390 . S
C1919 C1918 1.387 . S
H1920 C1932 0.930 1_554 S
H1921 C1934 0.930 . S
H1922 C1935 0.930 . S
H1923 C1939 0.959 . S
H1924 C1939 0.959 . S
H1925 C1939 0.961 . S
H1926 C1940 0.960 . S
H1927 C1940 0.961 . S
H1928 C1940 0.959 . S
H1929 C1943 0.929 . S
H1930 C1944 0.931 . S
H1931 C1946 0.930 . S
C1932 H1920 0.930 1_556 S
C1932 C1933 1.399 . S
C1932 C1937 1.399 . S
C1933 C1932 1.399 . S
C1933 C1934 1.376 . S
C1934 H1921 0.930 . S
C1934 C1933 1.376 . S
C1934 C1935 1.388 . S
C1935 H1922 0.930 . S
C1935 C1934 1.388 . S
C1935 C1936 1.390 . S
C1936 C1935 1.390 . S
C1936 C1937 1.394 . S
C1936 C1942 1.465 . S
C1937 C1932 1.399 . S
C1937 C1936 1.394 . S
C1937 C1938 1.516 1_556 S
C1938 C1937 1.516 1_554 S
C1938 C1939 1.502 . S
C1938 C1940 1.561 . S
C1938 C1941 1.526 1_554 S
C1939 H1923 0.959 . S
C1939 H1924 0.959 . S
C1939 H1925 0.961 . S
C1939 C1938 1.502 . S
C1940 H1926 0.960 . S
C1940 H1927 0.961 . S
C1940 H1928 0.959 . S
C1940 C1938 1.561 . S
C1941 C1938 1.526 1_556 S
C1941 C1942 1.396 . S
C1941 C1946 1.390 1_556 S
C1942 C1936 1.465 . S
C1942 C1941 1.396 . S
C1942 C1943 1.399 . S
C1943 H1929 0.929 . S
C1943 C1942 1.399 . S
C1943 C1944 1.385 . S
C1944 H1930 0.931 . S
C1944 C1943 1.385 . S
C1944 C1945 1.389 . S
C1945 C1944 1.389 . S
C1945 C1946 1.387 1_556 S
C1946 H1931 0.930 . S
C1946 C1941 1.390 1_554 S
C1946 C1945 1.387 1_554 S
H1947 C1959 0.930 . S
H1948 C1961 0.930 . S
H1949 C1962 0.930 . S
H1950 C1966 0.959 . S
H1951 C1966 0.959 . S
H1952 C1966 0.961 . S
H1953 C1967 0.960 . S
H1954 C1967 0.961 . S
H1955 C1967 0.959 . S
H1956 C1970 0.929 . S
H1957 C1971 0.931 . S
H1958 C1973 0.930 . S
C1959 H1947 0.930 . S
C1959 C1960 1.399 . S
C1959 C1964 1.399 . S
C1960 C1959 1.399 . S
C1960 C1961 1.376 . S
C1961 H1948 0.930 . S
C1961 C1960 1.376 . S
C1961 C1962 1.388 . S
C1962 H1949 0.930 . S
C1962 C1961 1.388 . S
C1962 C1963 1.390 . S
C1963 C1962 1.390 . S
C1963 C1964 1.394 . S
C1963 C1969 1.465 . S
C1964 C1959 1.399 . S
C1964 C1963 1.394 . S
C1964 C1965 1.516 . S
C1965 C1964 1.516 . S
C1965 C1966 1.502 . S
C1965 C1967 1.561 . S
C1965 C1968 1.526 . S
C1966 H1950 0.959 . S
C1966 H1951 0.959 . S
C1966 H1952 0.961 . S
C1966 C1965 1.502 . S
C1967 H1953 0.960 . S
C1967 H1954 0.961 . S
C1967 H1955 0.959 . S
C1967 C1965 1.561 . S
C1968 C1965 1.526 . S
C1968 C1969 1.396 . S
C1968 C1973 1.390 . S
C1969 C1963 1.465 . S
C1969 C1968 1.396 . S
C1969 C1970 1.399 . S
C1970 H1956 0.929 . S
C1970 C1969 1.399 . S
C1970 C1971 1.385 . S
C1971 H1957 0.931 . S
C1971 C1970 1.385 . S
C1971 C1972 1.389 . S
C1972 C1971 1.389 . S
C1972 C1973 1.387 . S
C1973 H1958 0.930 . S
C1973 C1968 1.390 . S
C1973 C1972 1.387 . S
H1974 C1986 0.930 . S
H1975 C1988 0.901 1_556 S
H1976 C1989 0.930 . S
H1977 C1993 0.959 . S
H1978 C1993 0.959 . S
H1979 C1993 0.961 . S
H1980 C1994 0.960 . S
H1981 C1994 0.961 . S
H1982 C1994 0.959 . S
H1983 C1997 0.929 . S
H1984 C1998 0.931 . S
H1985 C2000 0.930 . S
C1986 H1974 0.930 . S
C1986 C1987 1.399 . S
C1986 C1991 1.399 . S
C1987 C1986 1.399 . S
C1987 C1988 1.423 . S
C1988 H1975 0.901 1_554 S
C1988 C1987 1.423 . S
C1988 C1989 1.373 1_554 S
C1989 H1976 0.930 . S
C1989 C1988 1.373 1_556 S
C1989 C1990 1.390 1_556 S
C1990 C1989 1.390 1_554 S
C1990 C1991 1.394 . S
C1990 C1996 1.465 . S
C1991 C1986 1.399 . S
C1991 C1990 1.394 . S
C1991 C1992 1.516 . S
C1992 C1991 1.516 . S
C1992 C1993 1.502 . S
C1992 C1994 1.561 . S
C1992 C1995 1.526 . S
C1993 H1977 0.959 . S
C1993 H1978 0.959 . S
C1993 H1979 0.961 . S
C1993 C1992 1.502 . S
C1994 H1980 0.960 . S
C1994 H1981 0.961 . S
C1994 H1982 0.959 . S
C1994 C1992 1.561 . S
C1995 C1992 1.526 . S
C1995 C1996 1.396 . S
C1995 C2000 1.390 . S
C1996 C1990 1.465 . S
C1996 C1995 1.396 . S
C1996 C1997 1.399 1_554 S
C1997 H1983 0.929 . S
C1997 C1996 1.399 1_556 S
C1997 C1998 1.385 . S
C1998 H1984 0.931 . S
C1998 C1997 1.385 . S
C1998 C1999 1.389 1_556 S
C1999 C1998 1.389 1_554 S
C1999 C2000 1.387 . S
C2000 H1985 0.930 . S
C2000 C1995 1.390 . S
C2000 C1999 1.387 . S
H2001 C2013 0.930 . S
H2002 C2015 0.930 1_556 S
H2003 C2016 0.917 1_556 S
H2004 C2020 0.959 . S
H2005 C2020 0.959 . S
H2006 C2020 0.961 . S
H2007 C2021 0.960 . S
H2008 C2021 0.961 . S
H2009 C2021 0.959 . S
H2010 C2024 0.929 . S
H2011 C2025 0.931 . S
H2012 C2027 0.930 . S
C2013 H2001 0.930 . S
C2013 C2014 1.399 . S
C2013 C2018 1.399 . S
C2014 C2013 1.399 . S
C2014 C2015 1.376 . S
C2015 H2002 0.930 1_554 S
C2015 C2014 1.376 . S
C2015 C2016 1.392 . S
C2016 H2003 0.917 1_554 S
C2016 C2015 1.392 . S
C2016 C2017 1.399 . S
C2017 C2016 1.399 . S
C2017 C2018 1.394 . S
C2017 C2023 1.465 . S
C2018 C2013 1.399 . S
C2018 C2017 1.394 . S
C2018 C2019 1.516 . S
C2019 C2018 1.516 . S
C2019 C2020 1.502 . S
C2019 C2021 1.561 . S
C2019 C2022 1.526 . S
C2020 H2004 0.959 . S
C2020 H2005 0.959 . S
C2020 H2006 0.961 . S
C2020 C2019 1.502 . S
C2021 H2007 0.960 . S
C2021 H2008 0.961 . S
C2021 H2009 0.959 . S
C2021 C2019 1.561 . S
C2022 C2019 1.526 . S
C2022 C2023 1.396 . S
C2022 C2027 1.390 . S
C2023 C2017 1.465 . S
C2023 C2022 1.396 . S
C2023 C2024 1.399 1_554 S
C2024 H2010 0.929 . S
C2024 C2023 1.399 1_556 S
C2024 C2025 1.385 . S
C2025 H2011 0.931 . S
C2025 C2024 1.385 . S
C2025 C2026 1.389 1_556 S
C2026 C2025 1.389 1_554 S
C2026 C2027 1.387 . S
C2027 H2012 0.930 . S
C2027 C2022 1.390 . S
C2027 C2026 1.387 . S
C757 C586 1.384 . S
C745 C181 1.414 . S
C784 C599 1.605 . S
C772 C247 1.600 . S
C799 C283 1.462 . S
C811 C612 1.424 . S
C838 C625 1.505 . S
C826 C169 1.508 . S
C865 C633 1.486 . S
C853 C361 1.494 . S
C892 C646 1.414 . S
C880 C433 1.411 . S
C907 C421 1.509 . S
C919 C659 1.503 . S
C946 C672 1.484 . S
C934 C355 1.524 . S
C961 C427 1.452 . S
C973 C690 1.415 . S
C1000 C701 1.513 . S
C988 C325 1.536 . S
C1015 C385 1.458 . S
C1027 C685 1.437 . S
C1054 C693 1.446 . S
C1042 C463 1.486 . S
C1069 C253 1.507 . S
C1081 C716 1.477 . S
C1096 C145 1.520 . S
C1108 C706 1.453 . S
C1123 C205 1.480 . S
C1135 C711 1.459 . S
C1150 C217 1.561 . S
C1162 C714 1.522 1_655 S
C1177 C139 1.457 . S
C1189 C623 1.455 . S
C1204 C535 1.419 . S
C1216 C615 1.423 . S
C1243 C584 1.528 1_556 S
C1231 C565 1.552 . S
C1270 C589 1.510 . S
C1258 C313 1.506 . S
C1285 C175 1.551 . S
C1297 C636 1.499 . S
C1324 C675 1.495 . S
C1312 C397 1.510 . S
C1351 C628 1.452 . S
C1339 C349 1.499 . S
C1378 C654 1.419 . S
C1366 C457 1.486 . S
C1405 C664 1.392 . S
C1393 C505 1.409 . S
C1420 C571 1.598 . S
C1432 C677 1.602 . S
C1447 C319 1.444 . S
C1459 C638 1.461 . S
C1486 C651 1.521 . S
C1474 C493 1.534 . S
C1501 C109 1.481 . S
C1513 C607 1.450 . S
C1540 C620 1.406 . S
C1528 C1 1.432 . S
C1567 C581 1.512 . S
C1555 C61 1.519 . S
C1594 C594 1.511 . S
C1582 C103 1.522 . S
C1609 C67 1.438 . S
C1621 C703 1.447 . S
C1636 C73 1.538 . S
C1648 C688 1.526 1_655 S
C1663 C133 1.442 . S
C1675 C698 1.415 . S
C1690 C31 1.483 . S
C1702 C680 1.452 . S
C1729 C729 1.480 . S
C1717 C289 1.504 . S
C1756 C719 1.454 . S
C1744 C469 1.518 . S
C1783 C724 1.453 . S
C1771 C529 1.489 . S
C1798 C541 1.548 . S
C1810 C727 1.509 . S
C1825 C391 1.456 . S
C1837 C649 1.456 . S
C1864 C641 1.423 . S
C1852 C211 1.420 . S
C1891 C662 1.501 . S
C1879 C241 1.543 . S
C1918 C667 1.463 . S
C1906 C277 1.498 . S
C1933 C499 1.532 . S
C1945 C610 1.542 . S
C1972 C597 1.472 . S
C1960 C37 1.516 . S
C1987 C97 1.498 . S
C1999 C602 1.450 . S
C2026 C576 1.425 . S
C2014 C25 1.482 . S
