# Generated by pormake.
# Topology pyr, (3,6)-cn, num edge types: 1
# Building blocks:
#     Node 0, Type 0, BuildingBlock: PAMTOO_clean_linker_0, # of connection points: 3
#     Node 1, Type 0, BuildingBlock: PAMTOO_clean_linker_0, # of connection points: 3
#     Node 2, Type 0, BuildingBlock: PAMTOO_clean_linker_0, # of connection points: 3
#     Node 3, Type 0, BuildingBlock: PAMTOO_clean_linker_0, # of connection points: 3
#     Node 4, Type 0, BuildingBlock: PAMTOO_clean_linker_0, # of connection points: 3
#     Node 5, Type 0, BuildingBlock: PAMTOO_clean_linker_0, # of connection points: 3
#     Node 6, Type 0, BuildingBlock: PAMTOO_clean_linker_0, # of connection points: 3
#     Node 7, Type 0, BuildingBlock: PAMTOO_clean_linker_0, # of connection points: 3
#     Node 8, Type 1, BuildingBlock: BETGAK_clean_sbu_0, # of connection points: 6
#     Node 9, Type 1, BuildingBlock: BETGAK_clean_sbu_0, # of connection points: 6
#     Node 10, Type 1, BuildingBlock: BETGAK_clean_sbu_0, # of connection points: 6
#     Node 11, Type 1, BuildingBlock: BETGAK_clean_sbu_0, # of connection points: 6
#     Edge 12, Type (0, 1), BuildingBlock: XIVTED_clean_linker_0, # of connection points: 2
#     Edge 13, Type (0, 1), BuildingBlock: XIVTED_clean_linker_0, # of connection points: 2
#     Edge 14, Type (0, 1), BuildingBlock: XIVTED_clean_linker_0, # of connection points: 2
#     Edge 15, Type (0, 1), BuildingBlock: XIVTED_clean_linker_0, # of connection points: 2
#     Edge 16, Type (0, 1), BuildingBlock: XIVTED_clean_linker_0, # of connection points: 2
#     Edge 17, Type (0, 1), BuildingBlock: XIVTED_clean_linker_0, # of connection points: 2
#     Edge 18, Type (0, 1), BuildingBlock: XIVTED_clean_linker_0, # of connection points: 2
#     Edge 19, Type (0, 1), BuildingBlock: XIVTED_clean_linker_0, # of connection points: 2
#     Edge 20, Type (0, 1), BuildingBlock: XIVTED_clean_linker_0, # of connection points: 2
#     Edge 21, Type (0, 1), BuildingBlock: XIVTED_clean_linker_0, # of connection points: 2
#     Edge 22, Type (0, 1), BuildingBlock: XIVTED_clean_linker_0, # of connection points: 2
#     Edge 23, Type (0, 1), BuildingBlock: XIVTED_clean_linker_0, # of connection points: 2
#     Edge 24, Type (0, 1), BuildingBlock: XIVTED_clean_linker_0, # of connection points: 2
#     Edge 25, Type (0, 1), BuildingBlock: XIVTED_clean_linker_0, # of connection points: 2
#     Edge 26, Type (0, 1), BuildingBlock: XIVTED_clean_linker_0, # of connection points: 2
#     Edge 27, Type (0, 1), BuildingBlock: XIVTED_clean_linker_0, # of connection points: 2
#     Edge 28, Type (0, 1), BuildingBlock: XIVTED_clean_linker_0, # of connection points: 2
#     Edge 29, Type (0, 1), BuildingBlock: XIVTED_clean_linker_0, # of connection points: 2
#     Edge 30, Type (0, 1), BuildingBlock: XIVTED_clean_linker_0, # of connection points: 2
#     Edge 31, Type (0, 1), BuildingBlock: XIVTED_clean_linker_0, # of connection points: 2
#     Edge 32, Type (0, 1), BuildingBlock: XIVTED_clean_linker_0, # of connection points: 2
#     Edge 33, Type (0, 1), BuildingBlock: XIVTED_clean_linker_0, # of connection points: 2
#     Edge 34, Type (0, 1), BuildingBlock: XIVTED_clean_linker_0, # of connection points: 2
#     Edge 35, Type (0, 1), BuildingBlock: XIVTED_clean_linker_0, # of connection points: 2
# Relax obj value: 0.179
# Max RMSD: 0.227
# Mean RMSD: 0.149
data_MOF--net-pyr--node1-BETGAK_clean_sbu_0--node2-PAMTOO_clean_linker_0--edge1-XIVTED_clean_linker_0
_symmetry_space_group_name_H-M    P1
_symmetry_Int_Tables_number       1
_symmetry_cell_setting            triclinic
loop_
_symmetry_equiv_pos_as_xyz
'x, y, z'
_cell_length_a     37.465153
_cell_length_b     41.398353
_cell_length_c     36.672887
_cell_angle_alpha  91.794895
_cell_angle_beta   89.401735
_cell_angle_gamma 106.06047
loop_
_atom_site_label
_atom_site_type_symbol
_atom_site_fract_x
_atom_site_fract_y
_atom_site_fract_z
_atom_type_partial_charge
H0 H 0.31943 0.33715 0.26417 0.0
H1 H 0.35638 0.24744 0.26354 0.0
H2 H 0.3908 0.31797 0.17843 0.0
H3 H 0.43241 0.25983 0.24625 0.0
C4 C 0.43201 0.26281 0.21622 0.0
O5 O 0.39662 0.2616 0.20502 0.0
H6 H 0.45115 0.28765 0.20939 0.0
C7 C 0.3359 0.32174 0.25228 0.0
C8 C 0.35495 0.33131 0.21942 0.0
C9 C 0.33555 0.29133 0.26842 0.0
C10 C 0.35669 0.27142 0.25233 0.0
C11 C 0.37732 0.28154 0.2206 0.0
C12 C 0.37614 0.31121 0.20392 0.0
H13 H 0.30503 0.92403 0.6674 0.0
H14 H 0.23825 0.85769 0.58623 0.0
H15 H 0.31319 0.82267 0.65183 0.0
H16 H 0.28961 0.82424 0.55019 0.0
C17 C 0.27933 0.80081 0.56586 0.0
O18 O 0.26403 0.80708 0.59879 0.0
H19 H 0.25729 0.78357 0.54891 0.0
C20 C 0.29688 0.8998 0.65307 0.0
C21 C 0.31261 0.87422 0.6629 0.0
C22 C 0.27011 0.89418 0.62547 0.0
C23 C 0.25927 0.8627 0.60735 0.0
C24 C 0.27499 0.83719 0.61661 0.0
C25 C 0.30146 0.84275 0.64455 0.0
H26 H 0.73913 0.33768 0.94452 0.0
H27 H 0.65987 0.32405 0.85672 0.0
H28 H 0.74878 0.41508 0.86628 0.0
H29 H 0.66861 0.41957 0.85219 0.0
C30 C 0.66367 0.40188 0.82809 0.0
O31 O 0.6901 0.38375 0.82789 0.0
H32 H 0.63572 0.38406 0.83181 0.0
C33 C 0.72938 0.34639 0.92006 0.0
C34 C 0.74875 0.37854 0.90749 0.0
C35 C 0.6973 0.32576 0.90232 0.0
C36 C 0.68389 0.33909 0.8715 0.0
C37 C 0.70199 0.37167 0.85881 0.0
C38 C 0.73434 0.39084 0.87692 0.0
H39 H 0.8852 0.74674 0.45271 0.0
H40 H 0.88235 0.66642 0.37424 0.0
H41 H 0.97251 0.75745 0.37272 0.0
H42 H 0.9493 0.72401 0.29661 0.0
C43 C 0.93907 0.69743 0.30494 0.0
O44 O 0.9458 0.69609 0.34217 0.0
H45 H 0.90858 0.68941 0.30005 0.0
C46 C 0.89759 0.73659 0.42983 0.0
C47 C 0.93113 0.75643 0.41496 0.0
C48 C 0.87935 0.70421 0.41553 0.0
C49 C 0.89531 0.69154 0.38505 0.0
C50 C 0.92892 0.71047 0.36926 0.0
C51 C 0.94641 0.74309 0.38422 0.0
H52 H 0.73443 0.85602 0.86728 0.0
H53 H 0.68037 0.79657 0.95681 0.0
H54 H 0.77172 0.77256 0.90218 0.0
H55 H 0.70518 0.71684 0.92112 0.0
C56 C 0.71702 0.72356 0.94898 0.0
O57 O 0.72462 0.75775 0.95629 0.0
H58 H 0.69595 0.71016 0.96886 0.0
C59 C 0.73066 0.83415 0.88395 0.0
C60 C 0.7554 0.81415 0.88026 0.0
C61 C 0.70385 0.82833 0.91186 0.0
C62 C 0.70024 0.80084 0.93456 0.0
C63 C 0.7246 0.78073 0.93091 0.0
C64 C 0.75226 0.78763 0.90407 0.0
H65 H 0.84973 0.17514 0.44022 0.0
H66 H 0.78866 0.24738 0.46459 0.0
H67 H 0.86582 0.23135 0.54237 0.0
H68 H 0.81032 0.25891 0.58337 0.0
C69 C 0.7947 0.25527 0.55727 0.0
O70 O 0.81946 0.26502 0.52889 0.0
H71 H 0.77913 0.22811 0.55467 0.0
C72 C 0.84338 0.19386 0.45854 0.0
C73 C 0.8609 0.2008 0.49266 0.0
C74 C 0.81691 0.21012 0.44816 0.0
C75 C 0.80946 0.23494 0.47163 0.0
C76 C 0.82784 0.2427 0.50521 0.0
C77 C 0.85352 0.22596 0.51548 0.0
H78 H 0.38483 0.76002 0.16181 0.0
H79 H 0.3772 0.68368 0.24125 0.0
H80 H 0.46564 0.77544 0.24821 0.0
H81 H 0.49064 0.71902 0.27508 0.0
C82 C 0.46345 0.70045 0.28015 0.0
O83 O 0.43561 0.71694 0.27943 0.0
H84 H 0.45891 0.68149 0.25722 0.0
C85 C 0.39555 0.75113 0.18566 0.0
C86 C 0.42787 0.7721 0.20273 0.0
C87 C 0.37655 0.7191 0.19896 0.0
C88 C 0.39129 0.70777 0.23003 0.0
C89 C 0.4234 0.72783 0.24797 0.0
C90 C 0.44119 0.76004 0.23431 0.0
H91 H 0.13235 0.34555 0.7879 0.0
H92 H 0.22348 0.436 0.77741 0.0
H93 H 0.21436 0.35342 0.70232 0.0
H94 H 0.29035 0.38791 0.7241 0.0
C95 C 0.28838 0.41417 0.7272 0.0
O96 O 0.25238 0.41486 0.71954 0.0
H97 H 0.29479 0.42255 0.75611 0.0
C98 C 0.1575 0.35965 0.77456 0.0
C99 C 0.17112 0.34475 0.74356 0.0
C100 C 0.17542 0.39339 0.78698 0.0
C101 C 0.20823 0.41085 0.76846 0.0
C102 C 0.22207 0.39657 0.73813 0.0
C103 C 0.20336 0.36394 0.72589 0.0
La104 La 0.0581 0.06423 0.54674 0.0
La105 La 0.05421 1.03248 0.61947 0.0
C106 C 0.05344 0.09899 0.49283 0.0
C107 C 0.08149 0.12497 0.47325 0.0
C108 C 0.09691 0.1158 0.44079 0.0
C109 C 0.12693 0.13831 0.42435 0.0
C110 C 0.14165 0.1707 0.43955 0.0
C111 C 0.12507 0.18076 0.47079 0.0
C112 C 0.09531 0.15795 0.48774 0.0
C113 C 0.11852 0.04755 0.56409 0.0
C114 C 0.08209 0.1112 0.61953 0.0
C115 C 0.05637 0.99625 0.67279 0.0
C116 C 0.02773 0.96768 0.68712 0.0
C117 C 0.99074 0.96206 0.67607 0.0
C118 C 0.96244 0.93784 0.6928 0.0
C119 C 0.97059 0.91833 0.72063 0.0
C120 C 1.00809 0.92275 0.73003 0.0
C121 C 0.03641 0.94742 0.71355 0.0
C122 C 0.99423 0.04942 0.59999 0.0
C123 C 0.02907 0.98543 0.54665 0.0
O124 O 0.05801 0.06884 0.4902 0.0
O125 O 0.0447 0.10639 0.52613 0.0
O126 O 0.10797 0.04953 0.53109 0.0
O127 O 0.09827 0.0587 0.58558 0.0
O128 O 0.06873 0.10828 0.58569 0.0
O129 O 0.08539 0.08412 0.63624 0.0
O130 O 0.0482 1.02493 0.67559 0.0
O131 O 0.06966 0.99153 0.64054 0.0
O132 O 1.0054 0.05044 0.63328 0.0
O133 O 1.01475 1.03718 0.58034 0.0
O134 O 0.04168 0.98794 0.58077 0.0
O135 O 0.02683 1.01278 0.52997 0.0
H136 H 0.08656 0.09076 0.4287 0.0
H137 H 0.13889 0.13029 0.39984 0.0
H138 H 0.13593 0.2058 0.48271 0.0
H139 H 0.08387 0.16585 0.5126 0.0
H140 H 0.98357 0.97744 0.65551 0.0
H141 H 0.93405 0.93568 0.68506 0.0
H142 H 1.01555 0.90772 0.75073 0.0
H143 H 0.06491 0.95128 0.72215 0.0
La144 La 0.59988 0.05805 0.07417 0.0
La145 La 0.52897 1.03409 1.02876 0.0
C146 C 0.66359 0.08345 0.10052 0.0
C147 C 0.67809 0.09905 0.13586 0.0
C148 C 0.70931 0.09197 0.15063 0.0
C149 C 0.72261 0.10525 0.18489 0.0
C150 C 0.70499 0.12602 0.20488 0.0
C151 C 0.67409 0.13362 0.18975 0.0
C152 C 0.66056 0.12004 0.15558 0.0
C153 C 0.54795 1.00582 0.10117 0.0
C154 C 0.53321 0.08535 0.09535 0.0
C155 C 0.46764 0.99812 1.0045 0.0
C156 C 0.45619 0.98203 0.96875 0.0
C157 C 0.48156 0.98688 0.93969 0.0
C158 C 0.47084 0.9712 0.90574 0.0
C159 C 0.43451 0.95045 0.90029 0.0
C160 C 0.40929 0.94547 0.92969 0.0
C161 C 0.4201 0.96115 0.96368 0.0
C162 C 0.57142 0.09221 1.00191 0.0
C163 C 0.59893 1.01243 1.00189 0.0
O164 O 0.64659 0.05126 0.10076 0.0
O165 O 0.64595 0.10005 0.08097 0.0
O166 O 0.56982 1.02993 0.12053 0.0
O167 O 0.55647 1.01164 0.06802 0.0
O168 O 0.5697 0.09196 0.0949 0.0
O169 O 0.51161 0.05966 0.07635 0.0
O170 O 0.47701 1.031 1.00566 0.0
O171 O 0.49135 0.98632 1.02189 0.0
O172 O 0.54001 0.07446 0.98845 0.0
O173 O 0.57785 0.07573 1.02842 0.0
O174 O 0.56341 1.00972 0.99625 0.0
O175 O 0.61821 1.03142 1.02864 0.0
H176 H 0.72316 0.07582 0.13581 0.0
H177 H 0.7467 0.09926 0.19579 0.0
H178 H 0.6598 0.14929 0.20474 0.0
H179 H 0.63617 0.12561 0.14483 0.0
H180 H 0.50965 1.00281 0.94326 0.0
H181 H 0.49104 0.97524 0.88382 0.0
H182 H 0.38098 0.93003 0.92624 0.0
H183 H 0.40026 0.95711 0.98594 0.0
La184 La 0.56902 0.5315 0.53132 0.0
La185 La 0.57548 0.58828 0.5807 0.0
C186 C 0.58368 0.48561 0.49244 0.0
C187 C 0.6049 0.46171 0.49984 0.0
C188 C 0.59587 0.43007 0.48211 0.0
C189 C 0.6153 0.40685 0.49026 0.0
C190 C 0.64376 0.41496 0.51655 0.0
C191 C 0.65242 0.44671 0.53435 0.0
C192 C 0.63346 0.46995 0.52579 0.0
C193 C 0.50635 0.52889 0.56733 0.0
C194 C 0.60129 0.52907 0.61282 0.0
C195 C 0.56152 0.63469 0.6194 0.0
C196 C 0.53337 0.65293 0.6159 0.0
C197 C 0.53886 0.68507 0.63196 0.0
C198 C 0.51179 0.70227 0.62851 0.0
C199 C 0.47892 0.68741 0.60898 0.0
C200 C 0.47388 0.65533 0.59259 0.0
C201 C 0.50081 0.63825 0.59606 0.0
C202 C 0.63861 0.59051 0.54583 0.0
C203 C 0.54061 0.58877 0.49994 0.0
O204 O 0.55291 0.48153 0.51104 0.0
O205 O 0.60304 0.51717 0.49199 0.0
O206 O 0.50817 0.51936 0.53347 0.0
O207 O 0.53905 0.53856 0.57976 0.0
O208 O 0.59646 0.51614 0.579 0.0
O209 O 0.59306 0.55756 0.6209 0.0
O210 O 0.58706 0.63996 0.59404 0.0
O211 O 0.54844 0.60274 0.62601 0.0
O212 O 0.63599 0.59952 0.57971 0.0
O213 O 0.60616 0.58144 0.53246 0.0
O214 O 0.5437 0.60081 0.53421 0.0
O215 O 0.55185 0.56199 0.49127 0.0
H216 H 0.57385 0.42335 0.46201 0.0
H217 H 0.60831 0.38277 0.4757 0.0
H218 H 0.67367 0.4536 0.55519 0.0
H219 H 0.64114 0.49435 0.53962 0.0
H220 H 0.56392 0.69676 0.64728 0.0
H221 H 0.5163 0.72688 0.64158 0.0
H222 H 0.4492 0.64347 0.57681 0.0
H223 H 0.49607 0.61345 0.58336 0.0
La224 La 0.06474 0.51504 0.07465 0.0
La225 La 0.06363 0.57132 1.032 0.0
C226 C 0.08223 0.46629 0.10187 0.0
C227 C 0.11741 0.45951 0.11159 0.0
C228 C 0.12282 0.42824 0.10179 0.0
C229 C 0.15675 0.42177 0.10851 0.0
C230 C 0.18606 0.44655 0.1251 0.0
C231 C 0.18046 0.47786 0.13517 0.0
C232 C 0.14641 0.48429 0.12847 0.0
C233 C 0.03023 0.55579 0.10927 0.0
C234 C 0.13583 0.58013 0.07705 0.0
C235 C 0.04666 0.61973 1.0031 0.0
C236 C 1.01178 0.62698 0.99326 0.0
C237 C 1.01234 0.65176 0.96797 0.0
C238 C 0.97972 0.66018 0.95979 0.0
C239 C 0.94595 0.6438 0.97669 0.0
C240 C 0.94536 0.61834 1.00137 0.0
C241 C 0.97804 0.61013 1.00972 0.0
C242 C 0.09711 0.52945 0.99735 0.0
C243 C 0.99217 0.50709 1.03056 0.0
O244 O 0.07215 0.4893 0.12128 0.0
O245 O 0.07744 0.46901 0.06703 0.0
O246 O 0.01997 0.52319 0.10977 0.0
O247 O 0.05953 0.56447 0.08999 0.0
O248 O 0.12282 0.54725 0.0815 0.0
O249 O 0.11558 0.59636 0.05989 0.0
O250 O 0.05504 0.59545 0.98447 0.0
O251 O 0.05228 0.61803 1.03797 0.0
O252 O 0.10805 0.56205 0.99687 0.0
O253 O 0.06795 0.52158 1.01676 0.0
O254 O 1.00537 0.53992 1.02639 0.0
O255 O 1.01248 0.49045 0.04701 0.0
H256 H 0.1008 0.40884 0.08867 0.0
H257 H 0.15982 0.39715 0.10111 0.0
H258 H 0.20251 0.49753 0.14783 0.0
H259 H 0.14289 0.50867 0.13619 0.0
H260 H 0.03812 0.66497 0.95496 0.0
H261 H 0.98096 0.67966 0.94039 0.0
H262 H 0.9199 0.60557 1.01517 0.0
H263 H 0.97705 0.59116 1.02964 0.0
H264 H 0.26596 0.29911 0.28119 0.0
H265 H 0.20837 0.15888 0.42579 0.0
H266 H 0.34657 0.25453 0.32666 0.0
H267 H 0.14908 0.23357 0.41424 0.0
H268 H 0.2597 0.19322 0.38996 0.0
H269 H 0.22311 0.27563 0.32976 0.0
C270 C 0.27514 0.28501 0.30175 0.0
C271 C 0.31026 0.27897 0.29966 0.0
C272 C 0.23576 0.20239 0.39576 0.0
C273 C 0.26027 0.25087 0.35488 0.0
C274 C 0.2065 0.18279 0.41603 0.0
C275 C 0.17454 0.19344 0.42254 0.0
C276 C 0.23257 0.23243 0.38129 0.0
C277 C 0.17334 0.2246 0.40966 0.0
C278 C 0.25039 0.2714 0.32944 0.0
C279 C 0.31966 0.25943 0.32668 0.0
N280 N 0.20174 0.24281 0.38904 0.0
N281 N 0.29462 0.2457 0.35291 0.0
H282 H 0.3733 0.92778 0.6742 0.0
H283 H 0.39036 0.88691 0.88335 0.0
H284 H 0.31096 0.83533 0.72218 0.0
H285 H 0.4512 0.97926 0.83384 0.0
H286 H 0.36698 0.86422 0.82311 0.0
H287 H 0.40905 0.94317 0.73045 0.0
C288 C 0.36757 0.91051 0.6965 0.0
C289 C 0.3389 0.88047 0.69383 0.0
C290 C 0.38576 0.88932 0.8254 0.0
C291 C 0.37926 0.89803 0.75846 0.0
C292 C 0.39891 0.90237 0.85981 0.0
C293 C 0.4225 0.93517 0.86372 0.0
C294 C 0.39613 0.90927 0.7947 0.0
C295 C 0.43327 0.9538 0.83217 0.0
C296 C 0.38792 0.91929 0.72861 0.0
C297 C 0.33285 0.85874 0.72323 0.0
N298 N 0.41974 0.9407 0.79909 0.0
N299 N 0.35249 0.86819 0.75461 0.0
H300 H 0.6759 0.47046 0.82089 0.0
H301 H 0.61138 0.46487 0.6104 0.0
H302 H 0.64627 0.37858 0.75594 0.0
H303 H 0.62125 0.54998 0.68417 0.0
H304 H 0.63014 0.43443 0.66009 0.0
H305 H 0.66325 0.501 0.7686 0.0
C306 C 0.66752 0.45669 0.79537 0.0
C307 C 0.66277 0.42168 0.79311 0.0
C308 C 0.62835 0.4598 0.66542 0.0
C309 C 0.64719 0.45702 0.73226 0.0
C310 C 0.61768 0.47738 0.63688 0.0
C311 C 0.61451 0.51038 0.64263 0.0
C312 C 0.63645 0.47515 0.70036 0.0
C313 C 0.62308 0.52475 0.67798 0.0
C314 C 0.65989 0.47423 0.76542 0.0
C315 C 0.65099 0.40552 0.7591 0.0
N316 N 0.63358 0.50725 0.70511 0.0
N317 N 0.64359 0.42315 0.73028 0.0
H318 H 0.9182 0.62784 0.29426 0.0
H319 H 0.05789 0.62453 0.12451 0.0
H320 H 0.9995 0.71621 0.25768 0.0
H321 H 0.97484 0.537 0.16065 0.0
H322 H 0.03847 0.65823 0.17356 0.0
H323 H 0.94065 0.59393 0.24765 0.0
C324 C 0.94126 0.64007 0.27693 0.0
C325 C 0.95701 0.67509 0.28042 0.0
C326 C 0.02444 0.63164 0.17081 0.0
C327 C 0.98269 0.63619 0.22576 0.0
C328 C 0.0355 0.61234 0.14259 0.0
C329 C 0.01808 0.57764 0.13806 0.0
C330 C 0.99562 0.61638 0.19509 0.0
C331 C 0.98923 0.56353 0.16276 0.0
C332 C 0.95391 0.62069 0.24995 0.0
C333 C 0.98654 0.68937 0.25646 0.0
N334 N 0.97907 0.58274 0.1899 0.0
N335 N 0.99816 0.67009 0.23031 0.0
H336 H 0.39069 0.1989 0.19342 0.0
H337 H 0.56982 0.1397 0.13731 0.0
H338 H 0.50311 0.26265 0.20024 0.0
H339 H 0.45952 0.08496 0.10168 0.0
H340 H 0.54432 0.1813 0.16765 0.0
H341 H 0.41406 0.15386 0.16598 0.0
C342 C 0.42024 0.20355 0.18872 0.0
C343 C 0.44501 0.23492 0.19801 0.0
C344 C 0.5256 0.16018 0.15329 0.0
C345 C 0.47187 0.18323 0.16791 0.0
C346 C 0.54012 0.13622 0.13599 0.0
C347 C 0.51682 0.10878 0.11657 0.0
C348 C 0.48739 0.15683 0.15145 0.0
C349 C 0.47853 0.10574 0.1162 0.0
C350 C 0.43353 0.1778 0.17324 0.0
C351 C 0.48307 0.23913 0.19262 0.0
N352 N 0.46498 0.12958 0.1333 0.0
N353 N 0.49532 0.21365 0.17788 0.0
H354 H 0.25716 0.91406 0.5578 0.0
H355 H 0.14084 1.03762 0.63265 0.0
H356 H 0.24325 0.93455 0.67237 0.0
H357 H 0.15857 1.01841 0.51854 0.0
H358 H 0.18237 1.0036 0.64828 0.0
H359 H 0.22479 0.95567 0.54311 0.0
C360 C 0.2473 0.9274 0.57984 0.0
C361 C 0.2526 0.92076 0.6163 0.0
C362 C 0.17741 1.00709 0.61983 0.0
C363 C 0.21565 0.96841 0.59984 0.0
C364 C 0.15376 1.02644 0.61096 0.0
C365 C 0.1461 1.03036 0.57433 0.0
C366 C 0.19333 0.99168 0.59178 0.0
C367 C 0.16363 1.01573 0.54716 0.0
C368 C 0.229 0.95126 0.57149 0.0
C369 C 0.23986 0.9391 0.64388 0.0
N370 N 0.18623 0.99681 0.55643 0.0
N371 N 0.22167 0.96194 0.63507 0.0
H372 H 0.77662 0.44798 0.91801 0.0
H373 H 0.95854 0.43879 1.02824 0.0
H374 H 0.80347 0.3555 0.93953 0.0
H375 H 0.94079 0.53229 0.99547 0.0
H376 H 0.89991 0.40837 0.99905 0.0
H377 H 0.83453 0.47937 0.9482 0.0
C378 C 0.79454 0.43411 0.92884 0.0
C379 C 0.7844 0.39867 0.92603 0.0
C380 C 0.90869 0.43555 0.99828 0.0
C381 C 0.85128 0.43496 0.96151 0.0
C382 C 0.94229 0.45306 1.01516 0.0
C383 C 0.95503 0.48838 1.01457 0.0
C384 C 0.88709 0.45323 0.98054 0.0
C385 C 0.93238 0.50515 0.99683 0.0
C386 C 0.82768 0.45219 0.94637 0.0
C387 C 0.80913 0.38258 0.94138 0.0
N388 N 0.89974 0.48753 0.98063 0.0
N389 N 0.84103 0.4007 0.95831 0.0
H390 H 0.86489 0.69702 0.48888 0.0
H391 H 0.64982 0.59125 0.47067 0.0
H392 H 0.81366 0.66445 0.38439 0.0
H393 H 0.70841 0.61839 0.57249 0.0
H394 H 0.70839 0.61619 0.4378 0.0
H395 H 0.80737 0.6673 0.51894 0.0
C396 C 0.8415 0.68367 0.47211 0.0
C397 C 0.8444 0.68374 0.43382 0.0
C398 C 0.70843 0.61649 0.46733 0.0
C399 C 0.77742 0.64898 0.46862 0.0
C400 C 0.67497 0.60216 0.48613 0.0
C401 C 0.67397 0.60276 0.52453 0.0
C402 C 0.74124 0.63166 0.48702 0.0
C403 C 0.70757 0.61737 0.54297 0.0
C404 C 0.8085 0.66646 0.48942 0.0
C405 C 0.81299 0.66517 0.41391 0.0
N406 N 0.73946 0.63125 0.52419 0.0
N407 N 0.78086 0.64884 0.43145 0.0
H408 H 0.35414 0.39395 0.24544 0.0
H409 H 0.22414 0.41212 0.08176 0.0
H410 H 0.33611 0.33095 0.14768 0.0
H411 H 0.22924 0.46375 0.18649 0.0
H412 H 0.27756 0.39297 0.09898 0.0
H413 H 0.32248 0.43101 0.21705 0.0
C414 C 0.34437 0.38844 0.21762 0.0
C415 C 0.34705 0.35898 0.19915 0.0
C416 C 0.26733 0.4089 0.11798 0.0
C417 C 0.31041 0.40092 0.16672 0.0
C418 C 0.23667 0.41966 0.10828 0.0
C419 C 0.22165 0.43897 0.13303 0.0
C420 C 0.28307 0.41742 0.15275 0.0
C421 C 0.23973 0.44881 0.16657 0.0
C422 C 0.32618 0.4095 0.20149 0.0
C423 C 0.3345 0.3533 0.16298 0.0
N424 N 0.26915 0.43751 0.17565 0.0
N425 N 0.31602 0.37369 0.1482 0.0
H426 H 0.6227 0.28805 0.89884 0.0
H427 H 0.64319 0.13325 1.01871 0.0
H428 H 0.7286 0.28147 0.9382 0.0
H429 H 0.54676 0.13033 0.9544 0.0
H430 H 0.67394 0.18934 0.99455 0.0
H431 H 0.5937 0.23234 0.92297 0.0
C432 C 0.64014 0.27516 0.9123 0.0
C433 C 0.67858 0.29056 0.91632 0.0
C434 C 0.64602 0.17639 0.98577 0.0
C435 C 0.64464 0.2258 0.94525 0.0
C436 C 0.62838 0.1443 0.99972 0.0
C437 C 0.59214 0.12667 0.98874 0.0
C438 C 0.62723 0.1914 0.96094 0.0
C439 C 0.57466 0.14262 0.96376 0.0
C440 C 0.62332 0.24315 0.92642 0.0
C441 C 0.69888 0.27181 0.93487 0.0
N442 N 0.59209 0.17373 0.95103 0.0
N443 N 0.68181 0.24092 0.94861 0.0
H444 H 0.96204 0.81839 0.38334 0.0
H445 H 0.01639 0.92192 0.57496 0.0
H446 H 0.94224 0.77267 0.48826 0.0
H447 H 1.01169 0.9706 0.47364 0.0
H448 H 0.99507 0.86708 0.54278 0.0
H449 H 0.98653 0.87374 0.41453 0.0
C450 C 0.96319 0.81981 0.41285 0.0
C451 C 0.9497 0.79044 0.43296 0.0
C452 C 0.9987 0.88972 0.5275 0.0
C453 C 0.97792 0.85426 0.46921 0.0
C454 C 1.01097 0.92122 0.54595 0.0
C455 C 0.01587 0.95137 0.52728 0.0
C456 C 0.99153 0.88783 0.4897 0.0
C457 C 1.00823 0.94832 0.48949 0.0
C458 C 0.97695 0.85156 0.43073 0.0
C459 C 0.9518 0.79436 0.47135 0.0
N460 N 0.99669 0.9174 0.47209 0.0
N461 N 0.96552 0.82531 0.48799 0.0
H462 H 0.35425 0.83124 0.57033 0.0
H463 H 0.40393 0.66067 0.61495 0.0
H464 H 0.27325 0.73488 0.57819 0.0
H465 H 0.48726 0.75397 0.59546 0.0
H466 H 0.3557 0.6887 0.60555 0.0
H467 H 0.40359 0.80465 0.58322 0.0
C468 C 0.34705 0.8044 0.57444 0.0
C469 C 0.30999 0.78491 0.5724 0.0
C470 C 0.38451 0.70312 0.60337 0.0
C471 C 0.3657 0.75456 0.58779 0.0
C472 C 0.41207 0.68709 0.6086 0.0
C473 C 0.44966 0.70494 0.60561 0.0
C474 C 0.39451 0.73734 0.5951 0.0
C475 C 0.45861 0.73931 0.59817 0.0
C476 C 0.37506 0.78929 0.58193 0.0
C477 C 0.30169 0.7505 0.57888 0.0
N478 N 0.43119 0.7544 0.59299 0.0
N479 N 0.32936 0.73637 0.58617 0.0
H480 H 0.82817 0.81954 0.89444 0.0
H481 H 0.90187 0.88029 0.69609 0.0
H482 H 0.7552 0.83062 0.80833 0.0
H483 H 0.9687 0.90535 0.79374 0.0
H484 H 0.8492 0.85047 0.7333 0.0
H485 H 0.88123 0.83896 0.85366 0.0
C486 C 0.82327 0.82558 0.86674 0.0
C487 C 0.78724 0.82352 0.8547 0.0
C488 C 0.87558 0.86227 0.74637 0.0
C489 C 0.84788 0.84596 0.80805 0.0
C490 C 0.90567 0.87944 0.72524 0.0
C491 C 0.93989 0.89588 0.74173 0.0
C492 C 0.87982 0.86106 0.7842 0.0
C493 C 0.9432 0.89293 0.77955 0.0
C494 C 0.85358 0.83688 0.8436 0.0
C495 C 0.78258 0.83215 0.81871 0.0
N496 N 0.91353 0.87604 0.79946 0.0
N497 N 0.81261 0.84306 0.79659 0.0
H498 H 0.79917 0.249 0.39533 0.0
H499 H 0.7225 0.09046 0.25978 0.0
H500 H 0.78594 0.14592 0.4235 0.0
H501 H 0.71706 0.19001 0.2343 0.0
H502 H 0.74596 0.11132 0.32019 0.0
H503 H 0.76829 0.22901 0.33675 0.0
C504 C 0.78948 0.22222 0.38931 0.0
C505 C 0.79571 0.19909 0.41395 0.0
C506 C 0.73955 0.12869 0.30154 0.0
C507 C 0.76077 0.17616 0.34733 0.0
C508 C 0.72639 0.1168 0.26695 0.0
C509 C 0.71817 0.13862 0.24196 0.0
C510 C 0.74489 0.16279 0.31128 0.0
C511 C 0.72304 0.17238 0.25288 0.0
C512 C 0.77201 0.21084 0.35591 0.0
C513 C 0.78259 0.16467 0.40491 0.0
N514 N 0.7364 0.18355 0.28671 0.0
N515 N 0.76604 0.15432 0.3723 0.0
H516 H 0.45335 0.63287 0.29214 0.0
H517 H 0.52597 0.65145 0.50084 0.0
H518 H 0.48307 0.72845 0.35029 0.0
H519 H 0.5195 0.56488 0.43014 0.0
H520 H 0.50349 0.67853 0.45018 0.0
H521 H 0.46927 0.6063 0.34602 0.0
C522 C 0.46245 0.64828 0.31652 0.0
C523 C 0.46633 0.68312 0.31637 0.0
C524 C 0.50687 0.65356 0.44582 0.0
C525 C 0.48565 0.65244 0.37906 0.0
C526 C 0.51966 0.63795 0.47488 0.0
C527 C 0.52496 0.60561 0.47017 0.0
C528 C 0.49865 0.63671 0.41158 0.0
C529 C 0.51618 0.58975 0.43551 0.0
C530 C 0.47196 0.63303 0.34738 0.0
C531 C 0.47904 0.70152 0.34903 0.0
N532 N 0.50356 0.60526 0.40798 0.0
N533 N 0.48828 0.6861 0.37879 0.0
H534 H 0.17848 0.46094 0.79401 0.0
H535 H 0.0733 0.45954 0.98705 0.0
H536 H 0.13697 0.36865 0.8515 0.0
H537 H 0.14522 0.54812 0.93979 0.0
H538 H 0.09036 0.42501 0.93705 0.0
H539 H 0.1602 0.49168 0.84502 0.0
C540 C 0.16587 0.44685 0.81742 0.0
C541 C 0.16048 0.4117 0.81804 0.0
C542 C 0.10247 0.45199 0.93769 0.0
C543 C 0.13782 0.44784 0.87767 0.0
C544 C 0.09273 0.47181 0.96634 0.0
C545 C 0.10777 0.50708 0.96804 0.0
C546 C 0.12708 0.46742 0.90989 0.0
C547 C 0.13277 0.52122 0.94005 0.0
C548 C 0.15509 0.46472 0.84677 0.0
C549 C 0.14211 0.39554 0.84923 0.0
N550 N 0.14128 0.50159 0.91241 0.0
N551 N 0.13162 0.41361 0.87759 0.0
H552 H 0.66116 0.85636 0.86868 0.0
H553 H 0.66817 1.00491 1.01223 0.0
H554 H 0.70591 0.86087 0.97716 0.0
H555 H 0.57049 0.96757 0.94499 0.0
H556 H 0.69274 0.96038 0.98711 0.0
H557 H 0.63585 0.90391 0.88588 0.0
C558 C 0.6653 0.86717 0.89611 0.0
C559 C 0.68516 0.85454 0.92176 0.0
C560 C 0.66611 0.96221 0.97758 0.0
C561 C 0.65785 0.90908 0.94089 0.0
C562 C 0.65208 0.98779 0.99169 0.0
C563 C 0.61687 0.98983 0.98113 0.0
C564 C 0.64517 0.93863 0.9523 0.0
C565 C 0.59761 0.96681 0.95416 0.0
C566 C 0.651 0.89417 0.90581 0.0
C567 C 0.69023 0.86952 0.95681 0.0
N568 N 0.61194 0.94194 0.94074 0.0
N569 N 0.67702 0.8962 0.96521 0.0
H570 H 0.92303 0.21925 0.53641 0.0
H571 H 0.95774 1.03949 0.53595 0.0
H572 H 0.84954 0.13313 0.48063 0.0
H573 H 0.98212 0.10643 0.63052 0.0
H574 H 0.92648 0.07723 0.50811 0.0
H575 H 0.95462 0.18167 0.56404 0.0
C576 C 0.9136 0.19257 0.52981 0.0
C577 C 0.88343 0.17939 0.5062 0.0
C578 C 0.93837 0.08345 0.53509 0.0
C579 C 0.91984 0.13671 0.53712 0.0
C580 C 0.95598 0.06197 0.55096 0.0
C581 C 0.97185 0.06986 0.58561 0.0
C582 C 0.93751 0.11328 0.55376 0.0
C583 C 0.96953 0.09938 0.60395 0.0
C584 C 0.93164 0.17125 0.54558 0.0
C585 C 0.87301 0.14465 0.49807 0.0
N586 N 0.9529 0.12037 0.58758 0.0
N587 N 0.89125 0.12452 0.51349 0.0
H588 H 0.32071 0.74052 0.16672 0.0
H589 H 0.18964 0.55626 0.11006 0.0
H590 H 0.34974 0.64934 0.18949 0.0
H591 H 0.16667 0.64887 0.08216 0.0
H592 H 0.24757 0.58899 0.13954 0.0
H593 H 0.26435 0.70697 0.13641 0.0
C594 C 0.31565 0.71347 0.16519 0.0
C595 C 0.34094 0.69816 0.18075 0.0
C596 C 0.22991 0.60218 0.12691 0.0
C597 C 0.27476 0.65889 0.14598 0.0
C598 C 0.19662 0.58342 0.11003 0.0
C599 C 0.17268 0.59955 0.09347 0.0
C600 C 0.23971 0.63761 0.12755 0.0
C601 C 0.1839 0.63502 0.09431 0.0
C602 C 0.28301 0.69419 0.14793 0.0
C603 C 0.33142 0.66265 0.17837 0.0
N604 N 0.21621 0.65263 0.11102 0.0
N605 N 0.2994 0.64441 0.16141 0.0
H606 H 0.29118 0.41332 0.65152 0.0
H607 H 0.49936 0.53624 0.64167 0.0
H608 H 0.35253 0.46336 0.74552 0.0
H609 H 0.43604 0.49258 0.54615 0.0
H610 H 0.44492 0.51169 0.67969 0.0
H611 H 0.34233 0.44377 0.61211 0.0
C612 C 0.31508 0.43119 0.6638 0.0
C613 C 0.31716 0.43612 0.70191 0.0
C614 C 0.44275 0.5076 0.6504 0.0
C615 C 0.37653 0.47059 0.65698 0.0
C616 C 0.47391 0.52174 0.62862 0.0
C617 C 0.47246 0.5165 0.59056 0.0
C618 C 0.40965 0.48779 0.6342 0.0
C619 C 0.43858 0.49732 0.57534 0.0
C620 C 0.34444 0.44843 0.64132 0.0
C621 C 0.34935 0.45903 0.71632 0.0
N622 N 0.40875 0.48355 0.59711 0.0
N623 N 0.37762 0.47519 0.694 0.0
H624 H 0.78857 0.76039 0.9703 0.0
H625 H 0.87456 0.60417 0.96546 0.0
H626 H 0.72473 0.66041 0.93643 0.0
H627 H 0.93982 0.70786 0.97371 0.0
H628 H 0.81858 0.62306 0.95783 0.0
H629 H 0.84327 0.74037 0.97498 0.0
C630 C 0.7859 0.73417 0.96368 0.0
C631 C 0.7518 0.71203 0.95251 0.0
C632 C 0.84521 0.64162 0.96109 0.0
C633 C 0.81494 0.68884 0.95842 0.0
C634 C 0.87711 0.63088 0.9656 0.0
C635 C 0.91192 0.6545 0.97017 0.0
C636 C 0.84814 0.6762 0.96161 0.0
C637 C 0.91367 0.68878 0.96983 0.0
C638 C 0.81738 0.72276 0.96637 0.0
C639 C 0.75049 0.67829 0.94488 0.0
N640 N 0.88225 0.69856 0.96585 0.0
N641 N 0.78159 0.66765 0.94804 0.0
H642 H 0.4377 0.79096 0.13043 0.0
H643 H 0.53578 0.98816 0.17298 0.0
H644 H 0.46189 0.83286 0.23946 0.0
H645 H 0.51692 0.94489 0.06417 0.0
H646 H 0.50777 0.9323 0.19767 0.0
H647 H 0.46524 0.84677 0.10613 0.0
C648 C 0.44857 0.81179 0.14948 0.0
C649 C 0.44686 0.80654 0.18742 0.0
C650 C 0.50955 0.93492 0.16838 0.0
C651 C 0.47932 0.8717 0.15907 0.0
C652 C 0.52552 0.96701 0.15416 0.0
C653 C 0.52867 0.97172 0.11623 0.0
C654 C 0.49633 0.90675 0.14471 0.0
C655 C 0.51487 0.94292 0.0935 0.0
C656 C 0.4646 0.84388 0.13538 0.0
C657 C 0.46253 0.83506 0.21013 0.0
N658 N 0.49947 0.91197 0.10799 0.0
N659 N 0.47777 0.86609 0.19572 0.0
H660 H 0.14801 0.28327 0.77829 0.0
H661 H 0.08799 0.17348 0.59099 0.0
H662 H 0.15251 0.32586 0.67214 0.0
H663 H 0.10283 0.1282 0.69192 0.0
H664 H 0.10628 0.2289 0.62188 0.0
H665 H 0.12562 0.2265 0.74944 0.0
C666 C 0.14375 0.28084 0.74906 0.0
C667 C 0.15234 0.3098 0.72783 0.0
C668 C 0.10559 0.20693 0.63741 0.0
C669 C 0.12679 0.24436 0.69425 0.0
C670 C 0.09508 0.17502 0.61967 0.0
C671 C 0.09389 0.1456 0.63854 0.0
C672 C 0.11483 0.21008 0.67478 0.0
C673 C 0.10345 0.14987 0.67591 0.0
C674 C 0.13127 0.24829 0.73249 0.0
C675 C 0.14658 0.30458 0.68985 0.0
N676 N 0.11334 0.18122 0.69266 0.0
N677 N 0.13434 0.27291 0.67453 0.0
H678 H 0.72316 0.239 0.53184 0.0
H679 H 0.718 0.42851 0.53094 0.0
H680 H 0.80827 0.32031 0.58122 0.0
H681 H 0.61781 0.3463 0.52172 0.0
H682 H 0.75232 0.38881 0.5461 0.0
H683 H 0.68422 0.27732 0.52506 0.0
C684 C 0.7332 0.26479 0.54191 0.0
C685 C 0.76852 0.27665 0.55759 0.0
C686 C 0.72277 0.37948 0.54101 0.0
C687 C 0.72507 0.3205 0.54898 0.0
C688 C 0.70308 0.40215 0.53245 0.0
C689 C 0.66486 0.39077 0.52522 0.0
C690 C 0.70431 0.34508 0.54181 0.0
C691 C 0.64732 0.35614 0.52661 0.0
C692 C 0.71114 0.28659 0.53795 0.0
C693 C 0.7809 0.31033 0.56944 0.0
N694 N 0.66726 0.33443 0.53458 0.0
N695 N 0.75928 0.33123 0.56462 0.0
loop_
_geom_bond_atom_site_label_1
_geom_bond_atom_site_label_2
_geom_bond_distance
_geom_bond_site_symmetry_2
_ccdc_geom_bond_type
H0 C7 0.929 . S
H1 C10 0.930 . S
H2 C12 0.929 . S
H3 C4 0.969 . S
C4 H3 0.969 . S
C4 O5 1.550 . S
C4 H6 0.973 . S
O5 C4 1.550 . S
O5 C11 1.412 . S
H6 C4 0.973 . S
C7 H0 0.929 . S
C7 C8 1.400 . S
C7 C9 1.364 . S
C8 C7 1.400 . S
C8 C12 1.377 . S
C9 C7 1.364 . S
C9 C10 1.374 . S
C10 H1 0.930 . S
C10 C9 1.374 . S
C10 C11 1.383 . S
C11 O5 1.412 . S
C11 C10 1.383 . S
C11 C12 1.394 . S
C12 H2 0.929 . S
C12 C8 1.377 . S
C12 C11 1.394 . S
H13 C20 0.929 . S
H14 C23 0.930 . S
H15 C25 0.929 . S
H16 C17 0.969 . S
C17 H16 0.969 . S
C17 O18 1.550 . S
C17 H19 0.973 . S
O18 C17 1.550 . S
O18 C24 1.412 . S
H19 C17 0.973 . S
C20 H13 0.929 . S
C20 C21 1.400 . S
C20 C22 1.364 . S
C21 C20 1.400 . S
C21 C25 1.377 . S
C22 C20 1.364 . S
C22 C23 1.374 . S
C23 H14 0.930 . S
C23 C22 1.374 . S
C23 C24 1.383 . S
C24 O18 1.412 . S
C24 C23 1.383 . S
C24 C25 1.394 . S
C25 H15 0.929 . S
C25 C21 1.377 . S
C25 C24 1.394 . S
H26 C33 0.929 . S
H27 C36 0.930 . S
H28 C38 0.929 . S
H29 C30 0.969 . S
C30 H29 0.969 . S
C30 O31 1.550 . S
C30 H32 0.973 . S
O31 C30 1.550 . S
O31 C37 1.412 . S
H32 C30 0.973 . S
C33 H26 0.929 . S
C33 C34 1.400 . S
C33 C35 1.364 . S
C34 C33 1.400 . S
C34 C38 1.377 . S
C35 C33 1.364 . S
C35 C36 1.374 . S
C36 H27 0.930 . S
C36 C35 1.374 . S
C36 C37 1.383 . S
C37 O31 1.412 . S
C37 C36 1.383 . S
C37 C38 1.394 . S
C38 H28 0.929 . S
C38 C34 1.377 . S
C38 C37 1.394 . S
H39 C46 0.929 . S
H40 C49 0.930 . S
H41 C51 0.929 . S
H42 C43 0.969 . S
C43 H42 0.969 . S
C43 O44 1.550 . S
C43 H45 0.973 . S
O44 C43 1.550 . S
O44 C50 1.412 . S
H45 C43 0.973 . S
C46 H39 0.929 . S
C46 C47 1.400 . S
C46 C48 1.364 . S
C47 C46 1.400 . S
C47 C51 1.377 . S
C48 C46 1.364 . S
C48 C49 1.374 . S
C49 H40 0.930 . S
C49 C48 1.374 . S
C49 C50 1.383 . S
C50 O44 1.412 . S
C50 C49 1.383 . S
C50 C51 1.394 . S
C51 H41 0.929 . S
C51 C47 1.377 . S
C51 C50 1.394 . S
H52 C59 0.929 . S
H53 C62 0.930 . S
H54 C64 0.929 . S
H55 C56 0.969 . S
C56 H55 0.969 . S
C56 O57 1.550 . S
C56 H58 0.973 . S
O57 C56 1.550 . S
O57 C63 1.412 . S
H58 C56 0.973 . S
C59 H52 0.929 . S
C59 C60 1.400 . S
C59 C61 1.364 . S
C60 C59 1.400 . S
C60 C64 1.377 . S
C61 C59 1.364 . S
C61 C62 1.374 . S
C62 H53 0.930 . S
C62 C61 1.374 . S
C62 C63 1.383 . S
C63 O57 1.412 . S
C63 C62 1.383 . S
C63 C64 1.394 . S
C64 H54 0.929 . S
C64 C60 1.377 . S
C64 C63 1.394 . S
H65 C72 0.929 . S
H66 C75 0.930 . S
H67 C77 0.929 . S
H68 C69 0.969 . S
C69 H68 0.969 . S
C69 O70 1.550 . S
C69 H71 0.973 . S
O70 C69 1.550 . S
O70 C76 1.412 . S
H71 C69 0.973 . S
C72 H65 0.929 . S
C72 C73 1.400 . S
C72 C74 1.364 . S
C73 C72 1.400 . S
C73 C77 1.377 . S
C74 C72 1.364 . S
C74 C75 1.374 . S
C75 H66 0.930 . S
C75 C74 1.374 . S
C75 C76 1.383 . S
C76 O70 1.412 . S
C76 C75 1.383 . S
C76 C77 1.394 . S
C77 H67 0.929 . S
C77 C73 1.377 . S
C77 C76 1.394 . S
H78 C85 0.929 . S
H79 C88 0.930 . S
H80 C90 0.929 . S
H81 C82 0.969 . S
C82 H81 0.969 . S
C82 O83 1.550 . S
C82 H84 0.973 . S
O83 C82 1.550 . S
O83 C89 1.412 . S
H84 C82 0.973 . S
C85 H78 0.929 . S
C85 C86 1.400 . S
C85 C87 1.364 . S
C86 C85 1.400 . S
C86 C90 1.377 . S
C87 C85 1.364 . S
C87 C88 1.374 . S
C88 H79 0.930 . S
C88 C87 1.374 . S
C88 C89 1.383 . S
C89 O83 1.412 . S
C89 C88 1.383 . S
C89 C90 1.394 . S
C90 H80 0.929 . S
C90 C86 1.377 . S
C90 C89 1.394 . S
H91 C98 0.929 . S
H92 C101 0.930 . S
H93 C103 0.929 . S
H94 C95 0.969 . S
C95 H94 0.969 . S
C95 O96 1.550 . S
C95 H97 0.973 . S
O96 C95 1.550 . S
O96 C102 1.412 . S
H97 C95 0.973 . S
C98 H91 0.929 . S
C98 C99 1.400 . S
C98 C100 1.364 . S
C99 C98 1.400 . S
C99 C103 1.377 . S
C100 C98 1.364 . S
C100 C101 1.374 . S
C101 H92 0.930 . S
C101 C100 1.374 . S
C101 C102 1.383 . S
C102 O96 1.412 . S
C102 C101 1.383 . S
C102 C103 1.394 . S
C103 H93 0.929 . S
C103 C99 1.377 . S
C103 C102 1.394 . S
La104 C106 2.928 . S
La104 O124 2.521 . S
La104 O125 2.628 . S
La104 O126 2.554 . S
La104 O127 2.757 1_545 S
La104 O128 2.470 . S
La104 O133 2.482 . S
La104 O135 2.503 1_545 S
La105 C115 2.928 1_545 S
La105 O127 2.482 1_645 S
La105 O129 2.503 1_655 S
La105 O130 2.521 1_545 S
La105 O131 2.628 1_545 S
La105 O132 2.554 . S
La105 O133 2.757 1_655 S
La105 O134 2.470 1_545 S
C106 La104 2.928 . S
C106 C107 1.503 . S
C106 O124 1.261 . S
C106 O125 1.243 . S
C107 C106 1.503 . S
C107 C108 1.394 . S
C107 C112 1.373 . S
C108 C107 1.394 . S
C108 C109 1.380 . S
C108 H136 0.930 . S
C109 C108 1.380 . S
C109 C110 1.376 . S
C109 H137 0.930 . S
C110 C109 1.376 . S
C110 C111 1.370 . S
C111 C110 1.370 . S
C111 C112 1.396 . S
C111 H138 0.929 . S
C112 C107 1.373 . S
C112 C111 1.396 . S
C112 H139 0.929 . S
C113 O126 1.240 1_565 S
C113 O127 1.289 . S
C114 O128 1.258 . S
C114 O129 1.256 . S
C115 La105 2.928 1_565 S
C115 C116 1.503 . S
C115 O130 1.261 . S
C115 O131 1.243 . S
C116 C115 1.503 . S
C116 C117 1.394 . S
C116 C121 1.373 . S
C117 C116 1.394 . S
C117 C118 1.380 . S
C117 H140 0.930 . S
C118 C117 1.380 . S
C118 C119 1.376 . S
C118 H141 0.930 . S
C119 C118 1.376 . S
C119 C120 1.370 . S
C120 C119 1.370 . S
C120 C121 1.396 . S
C120 H142 0.929 . S
C121 C116 1.373 . S
C121 C120 1.396 . S
C121 H143 0.929 . S
C122 O132 1.240 . S
C122 O133 1.289 1_655 S
C123 O134 1.258 . S
C123 O135 1.256 1_655 S
O124 La104 2.521 . S
O124 C106 1.261 . S
O125 La104 2.628 . S
O125 C106 1.243 . S
O126 La104 2.554 . S
O126 C113 1.240 1_545 S
O127 La104 2.757 1_565 S
O127 La105 2.482 1_465 S
O127 C113 1.289 . S
O128 La104 2.470 . S
O128 C114 1.258 . S
O129 La105 2.503 1_455 S
O129 C114 1.256 . S
O130 La105 2.521 1_565 S
O130 C115 1.261 . S
O131 La105 2.628 1_565 S
O131 C115 1.243 . S
O132 La105 2.554 . S
O132 C122 1.240 . S
O133 La104 2.482 . S
O133 La105 2.757 1_455 S
O133 C122 1.289 1_455 S
O134 La105 2.470 1_565 S
O134 C123 1.258 . S
O135 La104 2.503 1_565 S
O135 C123 1.256 1_455 S
H136 C108 0.930 . S
H137 C109 0.930 . S
H138 C111 0.929 . S
H139 C112 0.929 . S
H140 C117 0.930 . S
H141 C118 0.930 . S
H142 C120 0.929 . S
H143 C121 0.929 . S
La144 C146 2.928 . S
La144 O164 2.521 . S
La144 O165 2.628 . S
La144 O166 2.554 1_545 S
La144 O167 2.757 1_545 S
La144 O168 2.470 . S
La144 O173 2.485 . S
La144 O175 2.503 1_544 S
La145 C155 2.928 1_545 S
La145 O167 2.482 1_546 S
La145 O169 2.503 1_556 S
La145 O170 2.521 1_545 S
La145 O171 2.628 1_545 S
La145 O172 2.554 . S
La145 O173 2.755 1_556 S
La145 O174 2.470 1_545 S
C146 La144 2.928 . S
C146 C147 1.503 . S
C146 O164 1.261 . S
C146 O165 1.243 . S
C147 C146 1.503 . S
C147 C148 1.394 . S
C147 C152 1.373 . S
C148 C147 1.394 . S
C148 C149 1.380 . S
C148 H176 0.930 . S
C149 C148 1.380 . S
C149 C150 1.376 . S
C149 H177 0.930 . S
C150 C149 1.376 . S
C150 C151 1.370 . S
C151 C150 1.370 . S
C151 C152 1.396 . S
C151 H178 0.929 . S
C152 C147 1.373 . S
C152 C151 1.396 . S
C152 H179 0.929 . S
C153 O166 1.240 . S
C153 O167 1.289 . S
C154 O168 1.258 . S
C154 O169 1.256 . S
C155 La145 2.928 1_565 S
C155 C156 1.503 . S
C155 O170 1.261 . S
C155 O171 1.243 . S
C156 C155 1.503 . S
C156 C157 1.394 . S
C156 C161 1.373 . S
C157 C156 1.394 . S
C157 C158 1.380 . S
C157 H180 0.930 . S
C158 C157 1.380 . S
C158 C159 1.376 . S
C158 H181 0.930 . S
C159 C158 1.376 . S
C159 C160 1.370 . S
C160 C159 1.370 . S
C160 C161 1.396 . S
C160 H182 0.929 . S
C161 C156 1.373 . S
C161 C160 1.396 . S
C161 H183 0.929 . S
C162 O172 1.240 . S
C162 O173 1.286 1_556 S
C163 O174 1.258 . S
C163 O175 1.256 . S
O164 La144 2.521 . S
O164 C146 1.261 . S
O165 La144 2.628 . S
O165 C146 1.243 . S
O166 La144 2.554 1_565 S
O166 C153 1.240 . S
O167 La144 2.757 1_565 S
O167 La145 2.482 1_564 S
O167 C153 1.289 . S
O168 La144 2.470 . S
O168 C154 1.258 . S
O169 La145 2.503 1_554 S
O169 C154 1.256 . S
O170 La145 2.521 1_565 S
O170 C155 1.261 . S
O171 La145 2.628 1_565 S
O171 C155 1.243 . S
O172 La145 2.554 . S
O172 C162 1.240 . S
O173 La144 2.485 . S
O173 La145 2.755 1_554 S
O173 C162 1.286 1_554 S
O174 La145 2.470 1_565 S
O174 C163 1.258 . S
O175 La144 2.503 1_566 S
O175 C163 1.256 . S
H176 C148 0.930 . S
H177 C149 0.930 . S
H178 C151 0.929 . S
H179 C152 0.929 . S
H180 C157 0.930 . S
H181 C158 0.930 . S
H182 C160 0.929 . S
H183 C161 0.929 . S
La184 C186 2.928 . S
La184 O204 2.521 . S
La184 O205 2.628 . S
La184 O206 2.554 . S
La184 O207 2.757 . S
La184 O208 2.470 . S
La184 O213 2.482 . S
La184 O215 2.503 . S
La185 C195 2.928 . S
La185 O207 2.482 . S
La185 O209 2.503 . S
La185 O210 2.521 . S
La185 O211 2.628 . S
La185 O212 2.554 . S
La185 O213 2.757 . S
La185 O214 2.470 . S
C186 La184 2.928 . S
C186 C187 1.503 . S
C186 O204 1.261 . S
C186 O205 1.243 . S
C187 C186 1.503 . S
C187 C188 1.394 . S
C187 C192 1.373 . S
C188 C187 1.394 . S
C188 C189 1.380 . S
C188 H216 0.930 . S
C189 C188 1.380 . S
C189 C190 1.376 . S
C189 H217 0.930 . S
C190 C189 1.376 . S
C190 C191 1.370 . S
C191 C190 1.370 . S
C191 C192 1.396 . S
C191 H218 0.929 . S
C192 C187 1.373 . S
C192 C191 1.396 . S
C192 H219 0.929 . S
C193 O206 1.240 . S
C193 O207 1.289 . S
C194 O208 1.258 . S
C194 O209 1.256 . S
C195 La185 2.928 . S
C195 C196 1.503 . S
C195 O210 1.261 . S
C195 O211 1.243 . S
C196 C195 1.503 . S
C196 C197 1.394 . S
C196 C201 1.373 . S
C197 C196 1.394 . S
C197 C198 1.380 . S
C197 H220 0.930 . S
C198 C197 1.380 . S
C198 C199 1.376 . S
C198 H221 0.930 . S
C199 C198 1.376 . S
C199 C200 1.370 . S
C200 C199 1.370 . S
C200 C201 1.396 . S
C200 H222 0.929 . S
C201 C196 1.373 . S
C201 C200 1.396 . S
C201 H223 0.929 . S
C202 O212 1.240 . S
C202 O213 1.289 . S
C203 O214 1.258 . S
C203 O215 1.256 . S
O204 La184 2.521 . S
O204 C186 1.261 . S
O205 La184 2.628 . S
O205 C186 1.243 . S
O206 La184 2.554 . S
O206 C193 1.240 . S
O207 La184 2.757 . S
O207 La185 2.482 . S
O207 C193 1.289 . S
O208 La184 2.470 . S
O208 C194 1.258 . S
O209 La185 2.503 . S
O209 C194 1.256 . S
O210 La185 2.521 . S
O210 C195 1.261 . S
O211 La185 2.628 . S
O211 C195 1.243 . S
O212 La185 2.554 . S
O212 C202 1.240 . S
O213 La184 2.482 . S
O213 La185 2.757 . S
O213 C202 1.289 . S
O214 La185 2.470 . S
O214 C203 1.258 . S
O215 La184 2.503 . S
O215 C203 1.256 . S
H216 C188 0.930 . S
H217 C189 0.930 . S
H218 C191 0.929 . S
H219 C192 0.929 . S
H220 C197 0.930 . S
H221 C198 0.930 . S
H222 C200 0.929 . S
H223 C201 0.929 . S
La224 C226 2.928 . S
La224 O244 2.521 . S
La224 O245 2.628 . S
La224 O246 2.554 . S
La224 O247 2.757 . S
La224 O248 2.470 . S
La224 O253 2.482 . S
La224 O255 2.503 1_455 S
La225 C235 2.928 1_454 S
La225 O247 2.482 . S
La225 O249 2.503 . S
La225 O250 2.521 1_554 S
La225 O251 2.628 1_455 S
La225 O252 2.554 1_554 S
La225 O253 2.757 . S
La225 O254 2.470 1_454 S
C226 La224 2.928 . S
C226 C227 1.503 . S
C226 O244 1.261 . S
C226 O245 1.243 . S
C227 C226 1.503 . S
C227 C228 1.394 . S
C227 C232 1.373 . S
C228 C227 1.394 . S
C228 C229 1.380 . S
C228 H256 0.930 . S
C229 C228 1.380 . S
C229 C230 1.376 . S
C229 H257 0.930 . S
C230 C229 1.376 . S
C230 C231 1.370 . S
C231 C230 1.370 . S
C231 C232 1.396 . S
C231 H258 0.929 . S
C232 C227 1.373 . S
C232 C231 1.396 . S
C232 H259 0.929 . S
C233 O246 1.240 . S
C233 O247 1.289 . S
C234 O248 1.258 . S
C234 O249 1.256 . S
C235 La225 2.928 1_656 S
C235 C236 1.503 . S
C235 O250 1.261 1_655 S
C235 O251 1.243 1_556 S
C236 C235 1.503 . S
C236 C237 1.394 . S
C236 C241 1.373 . S
C237 C236 1.394 . S
C237 C238 1.380 . S
C237 H260 0.930 . S
C238 C237 1.380 . S
C238 C239 1.376 . S
C238 H261 0.930 . S
C239 C238 1.376 . S
C239 C240 1.370 . S
C240 C239 1.370 . S
C240 C241 1.396 . S
C240 H262 0.929 . S
C241 C236 1.373 . S
C241 C240 1.396 . S
C241 H263 0.916 1_556 S
C242 O252 1.240 . S
C242 O253 1.289 1_556 S
C243 O254 1.258 1_554 S
C243 O255 1.256 . S
O244 La224 2.521 . S
O244 C226 1.261 . S
O245 La224 2.628 . S
O245 C226 1.243 . S
O246 La224 2.554 . S
O246 C233 1.240 . S
O247 La224 2.757 . S
O247 La225 2.482 . S
O247 C233 1.289 . S
O248 La224 2.470 . S
O248 C234 1.258 . S
O249 La225 2.503 . S
O249 C234 1.256 . S
O250 La225 2.521 1_556 S
O250 C235 1.261 1_455 S
O251 La225 2.628 1_655 S
O251 C235 1.243 1_554 S
O252 La225 2.554 1_556 S
O252 C242 1.240 . S
O253 La224 2.482 . S
O253 La225 2.757 . S
O253 C242 1.289 1_554 S
O254 La225 2.470 1_656 S
O254 C243 1.258 1_556 S
O255 La224 2.503 1_655 S
O255 C243 1.256 . S
H256 C228 0.930 . S
H257 C229 0.930 . S
H258 C231 0.929 . S
H259 C232 0.929 . S
H260 C237 0.930 . S
H261 C238 0.930 . S
H262 C240 0.929 . S
H263 C241 0.916 1_554 S
H264 C270 0.930 . S
H265 C274 0.930 . S
H266 C279 0.929 . S
H267 C277 0.929 . S
H268 C272 0.929 . S
H269 C278 0.929 . S
C270 H264 0.930 . S
C270 C271 1.367 . S
C270 C278 1.378 . S
C271 C270 1.367 . S
C271 C279 1.433 . S
C272 H268 0.929 . S
C272 C274 1.378 . S
C272 C276 1.350 . S
C273 C276 1.463 . S
C273 C278 1.350 . S
C273 N281 1.427 . S
C274 H265 0.930 . S
C274 C272 1.378 . S
C274 C275 1.367 . S
C275 C274 1.367 . S
C275 C277 1.433 . S
C276 C272 1.350 . S
C276 C273 1.463 . S
C276 N280 1.427 . S
C277 H267 0.929 . S
C277 C275 1.433 . S
C277 N280 1.384 . S
C278 H269 0.929 . S
C278 C270 1.378 . S
C278 C273 1.350 . S
C279 H266 0.929 . S
C279 C271 1.433 . S
C279 N281 1.384 . S
N280 C276 1.427 . S
N280 C277 1.384 . S
N281 C273 1.427 . S
N281 C279 1.384 . S
H282 C288 0.930 . S
H283 C292 0.930 . S
H284 C297 0.929 . S
H285 C295 0.929 . S
H286 C290 0.929 . S
H287 C296 0.929 . S
C288 H282 0.930 . S
C288 C289 1.367 . S
C288 C296 1.378 . S
C289 C288 1.367 . S
C289 C297 1.433 . S
C290 H286 0.929 . S
C290 C292 1.378 . S
C290 C294 1.350 . S
C291 C294 1.463 . S
C291 C296 1.350 . S
C291 N299 1.427 . S
C292 H283 0.930 . S
C292 C290 1.378 . S
C292 C293 1.367 . S
C293 C292 1.367 . S
C293 C295 1.433 . S
C294 C290 1.350 . S
C294 C291 1.463 . S
C294 N298 1.427 . S
C295 H285 0.929 . S
C295 C293 1.433 . S
C295 N298 1.384 . S
C296 H287 0.929 . S
C296 C288 1.378 . S
C296 C291 1.350 . S
C297 H284 0.929 . S
C297 C289 1.433 . S
C297 N299 1.384 . S
N298 C294 1.427 . S
N298 C295 1.384 . S
N299 C291 1.427 . S
N299 C297 1.384 . S
H300 C306 0.930 . S
H301 C310 0.930 . S
H302 C315 0.929 . S
H303 C313 0.929 . S
H304 C308 0.929 . S
H305 C314 0.929 . S
C306 H300 0.930 . S
C306 C307 1.367 . S
C306 C314 1.378 . S
C307 C306 1.367 . S
C307 C315 1.433 . S
C308 H304 0.929 . S
C308 C310 1.378 . S
C308 C312 1.350 . S
C309 C312 1.463 . S
C309 C314 1.350 . S
C309 N317 1.427 . S
C310 H301 0.930 . S
C310 C308 1.378 . S
C310 C311 1.367 . S
C311 C310 1.367 . S
C311 C313 1.433 . S
C312 C308 1.350 . S
C312 C309 1.463 . S
C312 N316 1.427 . S
C313 H303 0.929 . S
C313 C311 1.433 . S
C313 N316 1.384 . S
C314 H305 0.929 . S
C314 C306 1.378 . S
C314 C309 1.350 . S
C315 H302 0.929 . S
C315 C307 1.433 . S
C315 N317 1.384 . S
N316 C312 1.427 . S
N316 C313 1.384 . S
N317 C309 1.427 . S
N317 C315 1.384 . S
H318 C324 0.930 . S
H319 C328 0.930 . S
H320 C333 0.929 . S
H321 C331 0.929 . S
H322 C326 0.929 . S
H323 C332 0.929 . S
C324 H318 0.930 . S
C324 C325 1.367 . S
C324 C332 1.378 . S
C325 C324 1.367 . S
C325 C333 1.433 . S
C326 H322 0.929 . S
C326 C328 1.378 . S
C326 C330 1.350 . S
C327 C330 1.463 . S
C327 C332 1.350 . S
C327 N335 1.427 . S
C328 H319 0.930 . S
C328 C326 1.378 . S
C328 C329 1.367 . S
C329 C328 1.367 . S
C329 C331 1.433 . S
C330 C326 1.350 . S
C330 C327 1.463 . S
C330 N334 1.427 . S
C331 H321 0.929 . S
C331 C329 1.433 . S
C331 N334 1.384 . S
C332 H323 0.929 . S
C332 C324 1.378 . S
C332 C327 1.350 . S
C333 H320 0.929 . S
C333 C325 1.433 . S
C333 N335 1.384 . S
N334 C330 1.427 . S
N334 C331 1.384 . S
N335 C327 1.427 . S
N335 C333 1.384 . S
H336 C342 0.930 . S
H337 C346 0.930 . S
H338 C351 0.929 . S
H339 C349 0.929 . S
H340 C344 0.929 . S
H341 C350 0.929 . S
C342 H336 0.930 . S
C342 C343 1.367 . S
C342 C350 1.378 . S
C343 C342 1.367 . S
C343 C351 1.433 . S
C344 H340 0.929 . S
C344 C346 1.378 . S
C344 C348 1.350 . S
C345 C348 1.463 . S
C345 C350 1.350 . S
C345 N353 1.427 . S
C346 H337 0.930 . S
C346 C344 1.378 . S
C346 C347 1.367 . S
C347 C346 1.367 . S
C347 C349 1.433 . S
C348 C344 1.350 . S
C348 C345 1.463 . S
C348 N352 1.427 . S
C349 H339 0.929 . S
C349 C347 1.433 . S
C349 N352 1.384 . S
C350 H341 0.929 . S
C350 C342 1.378 . S
C350 C345 1.350 . S
C351 H338 0.929 . S
C351 C343 1.433 . S
C351 N353 1.384 . S
N352 C348 1.427 . S
N352 C349 1.384 . S
N353 C345 1.427 . S
N353 C351 1.384 . S
H354 C360 0.930 . S
H355 C364 0.930 . S
H356 C369 0.929 . S
H357 C367 0.929 . S
H358 C362 0.929 . S
H359 C368 0.929 . S
C360 H354 0.930 . S
C360 C361 1.367 . S
C360 C368 1.378 . S
C361 C360 1.367 . S
C361 C369 1.433 . S
C362 H358 0.929 . S
C362 C364 1.378 . S
C362 C366 1.350 . S
C363 C366 1.463 . S
C363 C368 1.350 . S
C363 N371 1.427 . S
C364 H355 0.930 . S
C364 C362 1.378 . S
C364 C365 1.367 . S
C365 C364 1.367 . S
C365 C367 1.433 . S
C366 C362 1.350 . S
C366 C363 1.463 . S
C366 N370 1.427 . S
C367 H357 0.929 . S
C367 C365 1.433 . S
C367 N370 1.384 . S
C368 H359 0.929 . S
C368 C360 1.378 . S
C368 C363 1.350 . S
C369 H356 0.929 . S
C369 C361 1.433 . S
C369 N371 1.384 . S
N370 C366 1.427 . S
N370 C367 1.384 . S
N371 C363 1.427 . S
N371 C369 1.384 . S
H372 C378 0.930 . S
H373 C382 0.930 1_554 S
H374 C387 0.929 . S
H375 C385 0.929 . S
H376 C380 0.929 . S
H377 C386 0.929 . S
C378 H372 0.930 . S
C378 C379 1.367 . S
C378 C386 1.378 . S
C379 C378 1.367 . S
C379 C387 1.433 . S
C380 H376 0.929 . S
C380 C382 1.378 . S
C380 C384 1.350 . S
C381 C384 1.463 . S
C381 C386 1.350 . S
C381 N389 1.427 . S
C382 H373 0.930 1_556 S
C382 C380 1.378 . S
C382 C383 1.367 . S
C383 C382 1.367 . S
C383 C385 1.433 . S
C384 C380 1.350 . S
C384 C381 1.463 . S
C384 N388 1.427 . S
C385 H375 0.929 . S
C385 C383 1.433 . S
C385 N388 1.384 . S
C386 H377 0.929 . S
C386 C378 1.378 . S
C386 C381 1.350 . S
C387 H374 0.929 . S
C387 C379 1.433 . S
C387 N389 1.384 . S
N388 C384 1.427 . S
N388 C385 1.384 . S
N389 C381 1.427 . S
N389 C387 1.384 . S
H390 C396 0.930 . S
H391 C400 0.930 . S
H392 C405 0.929 . S
H393 C403 0.929 . S
H394 C398 0.929 . S
H395 C404 0.929 . S
C396 H390 0.930 . S
C396 C397 1.367 . S
C396 C404 1.378 . S
C397 C396 1.367 . S
C397 C405 1.433 . S
C398 H394 0.929 . S
C398 C400 1.378 . S
C398 C402 1.350 . S
C399 C402 1.463 . S
C399 C404 1.350 . S
C399 N407 1.427 . S
C400 H391 0.930 . S
C400 C398 1.378 . S
C400 C401 1.367 . S
C401 C400 1.367 . S
C401 C403 1.433 . S
C402 C398 1.350 . S
C402 C399 1.463 . S
C402 N406 1.427 . S
C403 H393 0.929 . S
C403 C401 1.433 . S
C403 N406 1.384 . S
C404 H395 0.929 . S
C404 C396 1.378 . S
C404 C399 1.350 . S
C405 H392 0.929 . S
C405 C397 1.433 . S
C405 N407 1.384 . S
N406 C402 1.427 . S
N406 C403 1.384 . S
N407 C399 1.427 . S
N407 C405 1.384 . S
H408 C414 0.930 . S
H409 C418 0.930 . S
H410 C423 0.929 . S
H411 C421 0.929 . S
H412 C416 0.929 . S
H413 C422 0.929 . S
C414 H408 0.930 . S
C414 C415 1.367 . S
C414 C422 1.378 . S
C415 C414 1.367 . S
C415 C423 1.433 . S
C416 H412 0.929 . S
C416 C418 1.378 . S
C416 C420 1.350 . S
C417 C420 1.463 . S
C417 C422 1.350 . S
C417 N425 1.427 . S
C418 H409 0.930 . S
C418 C416 1.378 . S
C418 C419 1.367 . S
C419 C418 1.367 . S
C419 C421 1.433 . S
C420 C416 1.350 . S
C420 C417 1.463 . S
C420 N424 1.427 . S
C421 H411 0.929 . S
C421 C419 1.433 . S
C421 N424 1.384 . S
C422 H413 0.929 . S
C422 C414 1.378 . S
C422 C417 1.350 . S
C423 H410 0.929 . S
C423 C415 1.433 . S
C423 N425 1.384 . S
N424 C420 1.427 . S
N424 C421 1.384 . S
N425 C417 1.427 . S
N425 C423 1.384 . S
H426 C432 0.930 . S
H427 C436 0.930 . S
H428 C441 0.929 . S
H429 C439 0.929 . S
H430 C434 0.929 . S
H431 C440 0.929 . S
C432 H426 0.930 . S
C432 C433 1.367 . S
C432 C440 1.378 . S
C433 C432 1.367 . S
C433 C441 1.433 . S
C434 H430 0.929 . S
C434 C436 1.378 . S
C434 C438 1.350 . S
C435 C438 1.463 . S
C435 C440 1.350 . S
C435 N443 1.427 . S
C436 H427 0.930 . S
C436 C434 1.378 . S
C436 C437 1.367 . S
C437 C436 1.367 . S
C437 C439 1.433 . S
C438 C434 1.350 . S
C438 C435 1.463 . S
C438 N442 1.427 . S
C439 H429 0.929 . S
C439 C437 1.433 . S
C439 N442 1.384 . S
C440 H431 0.929 . S
C440 C432 1.378 . S
C440 C435 1.350 . S
C441 H428 0.929 . S
C441 C433 1.433 . S
C441 N443 1.384 . S
N442 C438 1.427 . S
N442 C439 1.384 . S
N443 C435 1.427 . S
N443 C441 1.384 . S
H444 C450 0.930 . S
H445 C454 0.930 1_455 S
H446 C459 0.929 . S
H447 C457 0.929 . S
H448 C452 0.929 . S
H449 C458 0.929 . S
C450 H444 0.930 . S
C450 C451 1.367 . S
C450 C458 1.378 . S
C451 C450 1.367 . S
C451 C459 1.433 . S
C452 H448 0.929 . S
C452 C454 1.378 . S
C452 C456 1.350 . S
C453 C456 1.463 . S
C453 C458 1.350 . S
C453 N461 1.427 . S
C454 H445 0.930 1_655 S
C454 C452 1.378 . S
C454 C455 1.367 . S
C455 C454 1.367 . S
C455 C457 1.433 . S
C456 C452 1.350 . S
C456 C453 1.463 . S
C456 N460 1.427 . S
C457 H447 0.929 . S
C457 C455 1.433 . S
C457 N460 1.384 . S
C458 H449 0.929 . S
C458 C450 1.378 . S
C458 C453 1.350 . S
C459 H446 0.929 . S
C459 C451 1.433 . S
C459 N461 1.384 . S
N460 C456 1.427 . S
N460 C457 1.384 . S
N461 C453 1.427 . S
N461 C459 1.384 . S
H462 C468 0.930 . S
H463 C472 0.930 . S
H464 C477 0.929 . S
H465 C475 0.929 . S
H466 C470 0.929 . S
H467 C476 0.929 . S
C468 H462 0.930 . S
C468 C469 1.367 . S
C468 C476 1.378 . S
C469 C468 1.367 . S
C469 C477 1.433 . S
C470 H466 0.929 . S
C470 C472 1.378 . S
C470 C474 1.350 . S
C471 C474 1.463 . S
C471 C476 1.350 . S
C471 N479 1.427 . S
C472 H463 0.930 . S
C472 C470 1.378 . S
C472 C473 1.367 . S
C473 C472 1.367 . S
C473 C475 1.433 . S
C474 C470 1.350 . S
C474 C471 1.463 . S
C474 N478 1.427 . S
C475 H465 0.929 . S
C475 C473 1.433 . S
C475 N478 1.384 . S
C476 H467 0.929 . S
C476 C468 1.378 . S
C476 C471 1.350 . S
C477 H464 0.929 . S
C477 C469 1.433 . S
C477 N479 1.384 . S
N478 C474 1.427 . S
N478 C475 1.384 . S
N479 C471 1.427 . S
N479 C477 1.384 . S
H480 C486 0.930 . S
H481 C490 0.930 . S
H482 C495 0.929 . S
H483 C493 0.929 . S
H484 C488 0.929 . S
H485 C494 0.929 . S
C486 H480 0.930 . S
C486 C487 1.367 . S
C486 C494 1.378 . S
C487 C486 1.367 . S
C487 C495 1.433 . S
C488 H484 0.929 . S
C488 C490 1.378 . S
C488 C492 1.350 . S
C489 C492 1.463 . S
C489 C494 1.350 . S
C489 N497 1.427 . S
C490 H481 0.930 . S
C490 C488 1.378 . S
C490 C491 1.367 . S
C491 C490 1.367 . S
C491 C493 1.433 . S
C492 C488 1.350 . S
C492 C489 1.463 . S
C492 N496 1.427 . S
C493 H483 0.929 . S
C493 C491 1.433 . S
C493 N496 1.384 . S
C494 H485 0.929 . S
C494 C486 1.378 . S
C494 C489 1.350 . S
C495 H482 0.929 . S
C495 C487 1.433 . S
C495 N497 1.384 . S
N496 C492 1.427 . S
N496 C493 1.384 . S
N497 C489 1.427 . S
N497 C495 1.384 . S
H498 C504 0.930 . S
H499 C508 0.930 . S
H500 C513 0.929 . S
H501 C511 0.929 . S
H502 C506 0.929 . S
H503 C512 0.929 . S
C504 H498 0.930 . S
C504 C505 1.367 . S
C504 C512 1.378 . S
C505 C504 1.367 . S
C505 C513 1.433 . S
C506 H502 0.929 . S
C506 C508 1.378 . S
C506 C510 1.350 . S
C507 C510 1.463 . S
C507 C512 1.350 . S
C507 N515 1.427 . S
C508 H499 0.930 . S
C508 C506 1.378 . S
C508 C509 1.367 . S
C509 C508 1.367 . S
C509 C511 1.433 . S
C510 C506 1.350 . S
C510 C507 1.463 . S
C510 N514 1.427 . S
C511 H501 0.929 . S
C511 C509 1.433 . S
C511 N514 1.384 . S
C512 H503 0.929 . S
C512 C504 1.378 . S
C512 C507 1.350 . S
C513 H500 0.929 . S
C513 C505 1.433 . S
C513 N515 1.384 . S
N514 C510 1.427 . S
N514 C511 1.384 . S
N515 C507 1.427 . S
N515 C513 1.384 . S
H516 C522 0.930 . S
H517 C526 0.930 . S
H518 C531 0.929 . S
H519 C529 0.929 . S
H520 C524 0.929 . S
H521 C530 0.929 . S
C522 H516 0.930 . S
C522 C523 1.367 . S
C522 C530 1.378 . S
C523 C522 1.367 . S
C523 C531 1.433 . S
C524 H520 0.929 . S
C524 C526 1.378 . S
C524 C528 1.350 . S
C525 C528 1.463 . S
C525 C530 1.350 . S
C525 N533 1.427 . S
C526 H517 0.930 . S
C526 C524 1.378 . S
C526 C527 1.367 . S
C527 C526 1.367 . S
C527 C529 1.433 . S
C528 C524 1.350 . S
C528 C525 1.463 . S
C528 N532 1.427 . S
C529 H519 0.929 . S
C529 C527 1.433 . S
C529 N532 1.384 . S
C530 H521 0.929 . S
C530 C522 1.378 . S
C530 C525 1.350 . S
C531 H518 0.929 . S
C531 C523 1.433 . S
C531 N533 1.384 . S
N532 C528 1.427 . S
N532 C529 1.384 . S
N533 C525 1.427 . S
N533 C531 1.384 . S
H534 C540 0.930 . S
H535 C544 0.930 . S
H536 C549 0.929 . S
H537 C547 0.929 . S
H538 C542 0.929 . S
H539 C548 0.929 . S
C540 H534 0.930 . S
C540 C541 1.367 . S
C540 C548 1.378 . S
C541 C540 1.367 . S
C541 C549 1.433 . S
C542 H538 0.929 . S
C542 C544 1.378 . S
C542 C546 1.350 . S
C543 C546 1.463 . S
C543 C548 1.350 . S
C543 N551 1.427 . S
C544 H535 0.930 . S
C544 C542 1.378 . S
C544 C545 1.367 . S
C545 C544 1.367 . S
C545 C547 1.433 . S
C546 C542 1.350 . S
C546 C543 1.463 . S
C546 N550 1.427 . S
C547 H537 0.929 . S
C547 C545 1.433 . S
C547 N550 1.384 . S
C548 H539 0.929 . S
C548 C540 1.378 . S
C548 C543 1.350 . S
C549 H536 0.929 . S
C549 C541 1.433 . S
C549 N551 1.384 . S
N550 C546 1.427 . S
N550 C547 1.384 . S
N551 C543 1.427 . S
N551 C549 1.384 . S
H552 C558 0.930 . S
H553 C562 0.930 . S
H554 C567 0.929 . S
H555 C565 0.929 . S
H556 C560 0.929 . S
H557 C566 0.929 . S
C558 H552 0.930 . S
C558 C559 1.367 . S
C558 C566 1.378 . S
C559 C558 1.367 . S
C559 C567 1.433 . S
C560 H556 0.929 . S
C560 C562 1.378 . S
C560 C564 1.350 . S
C561 C564 1.463 . S
C561 C566 1.350 . S
C561 N569 1.427 . S
C562 H553 0.930 . S
C562 C560 1.378 . S
C562 C563 1.367 . S
C563 C562 1.367 . S
C563 C565 1.433 . S
C564 C560 1.350 . S
C564 C561 1.463 . S
C564 N568 1.427 . S
C565 H555 0.929 . S
C565 C563 1.433 . S
C565 N568 1.384 . S
C566 H557 0.929 . S
C566 C558 1.378 . S
C566 C561 1.350 . S
C567 H554 0.929 . S
C567 C559 1.433 . S
C567 N569 1.384 . S
N568 C564 1.427 . S
N568 C565 1.384 . S
N569 C561 1.427 . S
N569 C567 1.384 . S
H570 C576 0.930 . S
H571 C580 0.930 . S
H572 C585 0.929 . S
H573 C583 0.929 . S
H574 C578 0.929 . S
H575 C584 0.929 . S
C576 H570 0.930 . S
C576 C577 1.367 . S
C576 C584 1.378 . S
C577 C576 1.367 . S
C577 C585 1.433 . S
C578 H574 0.929 . S
C578 C580 1.378 . S
C578 C582 1.350 . S
C579 C582 1.463 . S
C579 C584 1.350 . S
C579 N587 1.427 . S
C580 H571 0.930 . S
C580 C578 1.378 . S
C580 C581 1.367 . S
C581 C580 1.367 . S
C581 C583 1.433 . S
C582 C578 1.350 . S
C582 C579 1.463 . S
C582 N586 1.427 . S
C583 H573 0.929 . S
C583 C581 1.433 . S
C583 N586 1.384 . S
C584 H575 0.929 . S
C584 C576 1.378 . S
C584 C579 1.350 . S
C585 H572 0.929 . S
C585 C577 1.433 . S
C585 N587 1.384 . S
N586 C582 1.427 . S
N586 C583 1.384 . S
N587 C579 1.427 . S
N587 C585 1.384 . S
H588 C594 0.930 . S
H589 C598 0.930 . S
H590 C603 0.929 . S
H591 C601 0.929 . S
H592 C596 0.929 . S
H593 C602 0.929 . S
C594 H588 0.930 . S
C594 C595 1.367 . S
C594 C602 1.378 . S
C595 C594 1.367 . S
C595 C603 1.433 . S
C596 H592 0.929 . S
C596 C598 1.378 . S
C596 C600 1.350 . S
C597 C600 1.463 . S
C597 C602 1.350 . S
C597 N605 1.427 . S
C598 H589 0.930 . S
C598 C596 1.378 . S
C598 C599 1.367 . S
C599 C598 1.367 . S
C599 C601 1.433 . S
C600 C596 1.350 . S
C600 C597 1.463 . S
C600 N604 1.427 . S
C601 H591 0.929 . S
C601 C599 1.433 . S
C601 N604 1.384 . S
C602 H593 0.929 . S
C602 C594 1.378 . S
C602 C597 1.350 . S
C603 H590 0.929 . S
C603 C595 1.433 . S
C603 N605 1.384 . S
N604 C600 1.427 . S
N604 C601 1.384 . S
N605 C597 1.427 . S
N605 C603 1.384 . S
H606 C612 0.930 . S
H607 C616 0.930 . S
H608 C621 0.929 . S
H609 C619 0.929 . S
H610 C614 0.929 . S
H611 C620 0.929 . S
C612 H606 0.930 . S
C612 C613 1.367 . S
C612 C620 1.378 . S
C613 C612 1.367 . S
C613 C621 1.433 . S
C614 H610 0.929 . S
C614 C616 1.378 . S
C614 C618 1.350 . S
C615 C618 1.463 . S
C615 C620 1.350 . S
C615 N623 1.427 . S
C616 H607 0.930 . S
C616 C614 1.378 . S
C616 C617 1.367 . S
C617 C616 1.367 . S
C617 C619 1.433 . S
C618 C614 1.350 . S
C618 C615 1.463 . S
C618 N622 1.427 . S
C619 H609 0.929 . S
C619 C617 1.433 . S
C619 N622 1.384 . S
C620 H611 0.929 . S
C620 C612 1.378 . S
C620 C615 1.350 . S
C621 H608 0.929 . S
C621 C613 1.433 . S
C621 N623 1.384 . S
N622 C618 1.427 . S
N622 C619 1.384 . S
N623 C615 1.427 . S
N623 C621 1.384 . S
H624 C630 0.930 . S
H625 C634 0.930 . S
H626 C639 0.929 . S
H627 C637 0.929 . S
H628 C632 0.929 . S
H629 C638 0.929 . S
C630 H624 0.930 . S
C630 C631 1.367 . S
C630 C638 1.378 . S
C631 C630 1.367 . S
C631 C639 1.433 . S
C632 H628 0.929 . S
C632 C634 1.378 . S
C632 C636 1.350 . S
C633 C636 1.463 . S
C633 C638 1.350 . S
C633 N641 1.427 . S
C634 H625 0.930 . S
C634 C632 1.378 . S
C634 C635 1.367 . S
C635 C634 1.367 . S
C635 C637 1.433 . S
C636 C632 1.350 . S
C636 C633 1.463 . S
C636 N640 1.427 . S
C637 H627 0.929 . S
C637 C635 1.433 . S
C637 N640 1.384 . S
C638 H629 0.929 . S
C638 C630 1.378 . S
C638 C633 1.350 . S
C639 H626 0.929 . S
C639 C631 1.433 . S
C639 N641 1.384 . S
N640 C636 1.427 . S
N640 C637 1.384 . S
N641 C633 1.427 . S
N641 C639 1.384 . S
H642 C648 0.930 . S
H643 C652 0.930 . S
H644 C657 0.929 . S
H645 C655 0.929 . S
H646 C650 0.929 . S
H647 C656 0.929 . S
C648 H642 0.930 . S
C648 C649 1.367 . S
C648 C656 1.378 . S
C649 C648 1.367 . S
C649 C657 1.433 . S
C650 H646 0.929 . S
C650 C652 1.378 . S
C650 C654 1.350 . S
C651 C654 1.463 . S
C651 C656 1.350 . S
C651 N659 1.427 . S
C652 H643 0.930 . S
C652 C650 1.378 . S
C652 C653 1.367 . S
C653 C652 1.367 . S
C653 C655 1.433 . S
C654 C650 1.350 . S
C654 C651 1.463 . S
C654 N658 1.427 . S
C655 H645 0.929 . S
C655 C653 1.433 . S
C655 N658 1.384 . S
C656 H647 0.929 . S
C656 C648 1.378 . S
C656 C651 1.350 . S
C657 H644 0.929 . S
C657 C649 1.433 . S
C657 N659 1.384 . S
N658 C654 1.427 . S
N658 C655 1.384 . S
N659 C651 1.427 . S
N659 C657 1.384 . S
H660 C666 0.930 . S
H661 C670 0.930 . S
H662 C675 0.929 . S
H663 C673 0.929 . S
H664 C668 0.929 . S
H665 C674 0.929 . S
C666 H660 0.930 . S
C666 C667 1.367 . S
C666 C674 1.378 . S
C667 C666 1.367 . S
C667 C675 1.433 . S
C668 H664 0.929 . S
C668 C670 1.378 . S
C668 C672 1.350 . S
C669 C672 1.463 . S
C669 C674 1.350 . S
C669 N677 1.427 . S
C670 H661 0.930 . S
C670 C668 1.378 . S
C670 C671 1.367 . S
C671 C670 1.367 . S
C671 C673 1.433 . S
C672 C668 1.350 . S
C672 C669 1.463 . S
C672 N676 1.427 . S
C673 H663 0.929 . S
C673 C671 1.433 . S
C673 N676 1.384 . S
C674 H665 0.929 . S
C674 C666 1.378 . S
C674 C669 1.350 . S
C675 H662 0.929 . S
C675 C667 1.433 . S
C675 N677 1.384 . S
N676 C672 1.427 . S
N676 C673 1.384 . S
N677 C669 1.427 . S
N677 C675 1.384 . S
H678 C684 0.930 . S
H679 C688 0.930 . S
H680 C693 0.929 . S
H681 C691 0.929 . S
H682 C686 0.929 . S
H683 C692 0.929 . S
C684 H678 0.930 . S
C684 C685 1.367 . S
C684 C692 1.378 . S
C685 C684 1.367 . S
C685 C693 1.433 . S
C686 H682 0.929 . S
C686 C688 1.378 . S
C686 C690 1.350 . S
C687 C690 1.463 . S
C687 C692 1.350 . S
C687 N695 1.427 . S
C688 H679 0.930 . S
C688 C686 1.378 . S
C688 C689 1.367 . S
C689 C688 1.367 . S
C689 C691 1.433 . S
C690 C686 1.350 . S
C690 C687 1.463 . S
C690 N694 1.427 . S
C691 H681 0.929 . S
C691 C689 1.433 . S
C691 N694 1.384 . S
C692 H683 0.929 . S
C692 C684 1.378 . S
C692 C687 1.350 . S
C693 H680 0.929 . S
C693 C685 1.433 . S
C693 N695 1.384 . S
N694 C690 1.427 . S
N694 C691 1.384 . S
N695 C687 1.427 . S
N695 C693 1.384 . S
C271 C9 1.404 . S
C275 C110 1.441 . S
C289 C21 1.085 . S
C293 C159 1.090 . S
C311 C194 2.216 . S
C307 C30 2.238 . S
C325 C43 2.203 . S
C329 C233 2.284 1_655 S
C347 C154 2.078 . S
C343 C4 1.804 . S
C365 C113 1.511 . S
C361 C22 1.570 . S
C383 C243 1.565 1_556 S
C379 C34 1.628 . S
C401 C202 1.557 . S
C397 C48 1.578 . S
C415 C8 1.553 . S
C419 C230 1.598 . S
C437 C162 2.278 . S
C433 C35 2.361 . S
C451 C47 2.584 . S
C455 C123 2.578 . S
C469 C17 0.847 . S
C473 C199 0.851 . S
C491 C119 1.008 . S
C487 C60 0.988 . S
C505 C74 1.091 . S
C509 C150 1.080 . S
C523 C82 1.961 . S
C527 C203 2.002 . S
C541 C100 2.785 . S
C545 C242 2.714 . S
C559 C61 2.402 . S
C563 C163 2.507 . S
C581 C122 0.744 . S
C577 C73 0.740 . S
C599 C234 2.129 . S
C595 C87 2.200 . S
C617 C193 1.330 . S
C613 C95 1.329 . S
C631 C56 1.479 . S
C635 C239 1.479 . S
C653 C153 2.475 . S
C649 C86 2.553 . S
C671 C114 2.371 . S
C667 C99 2.382 . S
C685 C69 0.727 . S
C689 C190 0.711 . S
