# Generated by pormake.
# Topology ptr, (4,4)-cn, num edge types: 1
# Building blocks:
#     Node 0, Type 0, BuildingBlock: CEKHIL_clean_sbu_0, # of connection points: 4
#     Node 1, Type 0, BuildingBlock: CEKHIL_clean_sbu_0, # of connection points: 4
#     Node 2, Type 0, BuildingBlock: CEKHIL_clean_sbu_0, # of connection points: 4
#     Node 3, Type 0, BuildingBlock: CEKHIL_clean_sbu_0, # of connection points: 4
#     Node 4, Type 0, BuildingBlock: CEKHIL_clean_sbu_0, # of connection points: 4
#     Node 5, Type 0, BuildingBlock: CEKHIL_clean_sbu_0, # of connection points: 4
#     Node 6, Type 0, BuildingBlock: CEKHIL_clean_sbu_0, # of connection points: 4
#     Node 7, Type 0, BuildingBlock: CEKHIL_clean_sbu_0, # of connection points: 4
#     Node 8, Type 0, BuildingBlock: CEKHIL_clean_sbu_0, # of connection points: 4
#     Node 9, Type 0, BuildingBlock: CEKHIL_clean_sbu_0, # of connection points: 4
#     Node 10, Type 0, BuildingBlock: CEKHIL_clean_sbu_0, # of connection points: 4
#     Node 11, Type 0, BuildingBlock: CEKHIL_clean_sbu_0, # of connection points: 4
#     Node 12, Type 0, BuildingBlock: CEKHIL_clean_sbu_0, # of connection points: 4
#     Node 13, Type 0, BuildingBlock: CEKHIL_clean_sbu_0, # of connection points: 4
#     Node 14, Type 0, BuildingBlock: CEKHIL_clean_sbu_0, # of connection points: 4
#     Node 15, Type 0, BuildingBlock: CEKHIL_clean_sbu_0, # of connection points: 4
#     Node 16, Type 0, BuildingBlock: CEKHIL_clean_sbu_0, # of connection points: 4
#     Node 17, Type 0, BuildingBlock: CEKHIL_clean_sbu_0, # of connection points: 4
#     Node 18, Type 1, BuildingBlock: GIZVER_clean_linker_0, # of connection points: 4
#     Node 19, Type 1, BuildingBlock: GIZVER_clean_linker_0, # of connection points: 4
#     Node 20, Type 1, BuildingBlock: GIZVER_clean_linker_0, # of connection points: 4
#     Node 21, Type 1, BuildingBlock: GIZVER_clean_linker_0, # of connection points: 4
#     Node 22, Type 1, BuildingBlock: GIZVER_clean_linker_0, # of connection points: 4
#     Node 23, Type 1, BuildingBlock: GIZVER_clean_linker_0, # of connection points: 4
#     Node 24, Type 1, BuildingBlock: GIZVER_clean_linker_0, # of connection points: 4
#     Node 25, Type 1, BuildingBlock: GIZVER_clean_linker_0, # of connection points: 4
#     Node 26, Type 1, BuildingBlock: GIZVER_clean_linker_0, # of connection points: 4
#     Node 27, Type 1, BuildingBlock: GIZVER_clean_linker_0, # of connection points: 4
#     Node 28, Type 1, BuildingBlock: GIZVER_clean_linker_0, # of connection points: 4
#     Node 29, Type 1, BuildingBlock: GIZVER_clean_linker_0, # of connection points: 4
#     Node 30, Type 1, BuildingBlock: GIZVER_clean_linker_0, # of connection points: 4
#     Node 31, Type 1, BuildingBlock: GIZVER_clean_linker_0, # of connection points: 4
#     Node 32, Type 1, BuildingBlock: GIZVER_clean_linker_0, # of connection points: 4
#     Node 33, Type 1, BuildingBlock: GIZVER_clean_linker_0, # of connection points: 4
#     Node 34, Type 1, BuildingBlock: GIZVER_clean_linker_0, # of connection points: 4
#     Node 35, Type 1, BuildingBlock: GIZVER_clean_linker_0, # of connection points: 4
#     Edge 36, Type (0, 1), BuildingBlock: XIVTED_clean_linker_0, # of connection points: 2
#     Edge 37, Type (0, 1), BuildingBlock: XIVTED_clean_linker_0, # of connection points: 2
#     Edge 38, Type (0, 1), BuildingBlock: XIVTED_clean_linker_0, # of connection points: 2
#     Edge 39, Type (0, 1), BuildingBlock: XIVTED_clean_linker_0, # of connection points: 2
#     Edge 40, Type (0, 1), BuildingBlock: XIVTED_clean_linker_0, # of connection points: 2
#     Edge 41, Type (0, 1), BuildingBlock: XIVTED_clean_linker_0, # of connection points: 2
#     Edge 42, Type (0, 1), BuildingBlock: XIVTED_clean_linker_0, # of connection points: 2
#     Edge 43, Type (0, 1), BuildingBlock: XIVTED_clean_linker_0, # of connection points: 2
#     Edge 44, Type (0, 1), BuildingBlock: XIVTED_clean_linker_0, # of connection points: 2
#     Edge 45, Type (0, 1), BuildingBlock: XIVTED_clean_linker_0, # of connection points: 2
#     Edge 46, Type (0, 1), BuildingBlock: XIVTED_clean_linker_0, # of connection points: 2
#     Edge 47, Type (0, 1), BuildingBlock: XIVTED_clean_linker_0, # of connection points: 2
#     Edge 48, Type (0, 1), BuildingBlock: XIVTED_clean_linker_0, # of connection points: 2
#     Edge 49, Type (0, 1), BuildingBlock: XIVTED_clean_linker_0, # of connection points: 2
#     Edge 50, Type (0, 1), BuildingBlock: XIVTED_clean_linker_0, # of connection points: 2
#     Edge 51, Type (0, 1), BuildingBlock: XIVTED_clean_linker_0, # of connection points: 2
#     Edge 52, Type (0, 1), BuildingBlock: XIVTED_clean_linker_0, # of connection points: 2
#     Edge 53, Type (0, 1), BuildingBlock: XIVTED_clean_linker_0, # of connection points: 2
#     Edge 54, Type (0, 1), BuildingBlock: XIVTED_clean_linker_0, # of connection points: 2
#     Edge 55, Type (0, 1), BuildingBlock: XIVTED_clean_linker_0, # of connection points: 2
#     Edge 56, Type (0, 1), BuildingBlock: XIVTED_clean_linker_0, # of connection points: 2
#     Edge 57, Type (0, 1), BuildingBlock: XIVTED_clean_linker_0, # of connection points: 2
#     Edge 58, Type (0, 1), BuildingBlock: XIVTED_clean_linker_0, # of connection points: 2
#     Edge 59, Type (0, 1), BuildingBlock: XIVTED_clean_linker_0, # of connection points: 2
#     Edge 60, Type (0, 1), BuildingBlock: XIVTED_clean_linker_0, # of connection points: 2
#     Edge 61, Type (0, 1), BuildingBlock: XIVTED_clean_linker_0, # of connection points: 2
#     Edge 62, Type (0, 1), BuildingBlock: XIVTED_clean_linker_0, # of connection points: 2
#     Edge 63, Type (0, 1), BuildingBlock: XIVTED_clean_linker_0, # of connection points: 2
#     Edge 64, Type (0, 1), BuildingBlock: XIVTED_clean_linker_0, # of connection points: 2
#     Edge 65, Type (0, 1), BuildingBlock: XIVTED_clean_linker_0, # of connection points: 2
#     Edge 66, Type (0, 1), BuildingBlock: XIVTED_clean_linker_0, # of connection points: 2
#     Edge 67, Type (0, 1), BuildingBlock: XIVTED_clean_linker_0, # of connection points: 2
#     Edge 68, Type (0, 1), BuildingBlock: XIVTED_clean_linker_0, # of connection points: 2
#     Edge 69, Type (0, 1), BuildingBlock: XIVTED_clean_linker_0, # of connection points: 2
#     Edge 70, Type (0, 1), BuildingBlock: XIVTED_clean_linker_0, # of connection points: 2
#     Edge 71, Type (0, 1), BuildingBlock: XIVTED_clean_linker_0, # of connection points: 2
#     Edge 72, Type (0, 1), BuildingBlock: XIVTED_clean_linker_0, # of connection points: 2
#     Edge 73, Type (0, 1), BuildingBlock: XIVTED_clean_linker_0, # of connection points: 2
#     Edge 74, Type (0, 1), BuildingBlock: XIVTED_clean_linker_0, # of connection points: 2
#     Edge 75, Type (0, 1), BuildingBlock: XIVTED_clean_linker_0, # of connection points: 2
#     Edge 76, Type (0, 1), BuildingBlock: XIVTED_clean_linker_0, # of connection points: 2
#     Edge 77, Type (0, 1), BuildingBlock: XIVTED_clean_linker_0, # of connection points: 2
#     Edge 78, Type (0, 1), BuildingBlock: XIVTED_clean_linker_0, # of connection points: 2
#     Edge 79, Type (0, 1), BuildingBlock: XIVTED_clean_linker_0, # of connection points: 2
#     Edge 80, Type (0, 1), BuildingBlock: XIVTED_clean_linker_0, # of connection points: 2
#     Edge 81, Type (0, 1), BuildingBlock: XIVTED_clean_linker_0, # of connection points: 2
#     Edge 82, Type (0, 1), BuildingBlock: XIVTED_clean_linker_0, # of connection points: 2
#     Edge 83, Type (0, 1), BuildingBlock: XIVTED_clean_linker_0, # of connection points: 2
#     Edge 84, Type (0, 1), BuildingBlock: XIVTED_clean_linker_0, # of connection points: 2
#     Edge 85, Type (0, 1), BuildingBlock: XIVTED_clean_linker_0, # of connection points: 2
#     Edge 86, Type (0, 1), BuildingBlock: XIVTED_clean_linker_0, # of connection points: 2
#     Edge 87, Type (0, 1), BuildingBlock: XIVTED_clean_linker_0, # of connection points: 2
#     Edge 88, Type (0, 1), BuildingBlock: XIVTED_clean_linker_0, # of connection points: 2
#     Edge 89, Type (0, 1), BuildingBlock: XIVTED_clean_linker_0, # of connection points: 2
#     Edge 90, Type (0, 1), BuildingBlock: XIVTED_clean_linker_0, # of connection points: 2
#     Edge 91, Type (0, 1), BuildingBlock: XIVTED_clean_linker_0, # of connection points: 2
#     Edge 92, Type (0, 1), BuildingBlock: XIVTED_clean_linker_0, # of connection points: 2
#     Edge 93, Type (0, 1), BuildingBlock: XIVTED_clean_linker_0, # of connection points: 2
#     Edge 94, Type (0, 1), BuildingBlock: XIVTED_clean_linker_0, # of connection points: 2
#     Edge 95, Type (0, 1), BuildingBlock: XIVTED_clean_linker_0, # of connection points: 2
#     Edge 96, Type (0, 1), BuildingBlock: XIVTED_clean_linker_0, # of connection points: 2
#     Edge 97, Type (0, 1), BuildingBlock: XIVTED_clean_linker_0, # of connection points: 2
#     Edge 98, Type (0, 1), BuildingBlock: XIVTED_clean_linker_0, # of connection points: 2
#     Edge 99, Type (0, 1), BuildingBlock: XIVTED_clean_linker_0, # of connection points: 2
#     Edge 100, Type (0, 1), BuildingBlock: XIVTED_clean_linker_0, # of connection points: 2
#     Edge 101, Type (0, 1), BuildingBlock: XIVTED_clean_linker_0, # of connection points: 2
#     Edge 102, Type (0, 1), BuildingBlock: XIVTED_clean_linker_0, # of connection points: 2
#     Edge 103, Type (0, 1), BuildingBlock: XIVTED_clean_linker_0, # of connection points: 2
#     Edge 104, Type (0, 1), BuildingBlock: XIVTED_clean_linker_0, # of connection points: 2
#     Edge 105, Type (0, 1), BuildingBlock: XIVTED_clean_linker_0, # of connection points: 2
#     Edge 106, Type (0, 1), BuildingBlock: XIVTED_clean_linker_0, # of connection points: 2
#     Edge 107, Type (0, 1), BuildingBlock: XIVTED_clean_linker_0, # of connection points: 2
# Relax obj value: 0.048
# Max RMSD: 0.106
# Mean RMSD: 0.077
data_MOF--net-ptr--node1-CEKHIL_clean_sbu_0--node2-GIZVER_clean_linker_0--edge1-XIVTED_clean_linker_0
_symmetry_space_group_name_H-M    P1
_symmetry_Int_Tables_number       1
_symmetry_cell_setting            triclinic
loop_
_symmetry_equiv_pos_as_xyz
'x, y, z'
_cell_length_a     80.19871
_cell_length_b     79.321313
_cell_length_c     49.611787
_cell_angle_alpha  91.075318
_cell_angle_beta   89.851282
_cell_angle_gamma 120.92247
loop_
_atom_site_label
_atom_site_type_symbol
_atom_site_fract_x
_atom_site_fract_y
_atom_site_fract_z
_atom_type_partial_charge
Co0 Co 0.00811 0.36362 0.00473 0.0
O1 O 0.01985 0.35392 0.02894 0.0
O2 O 0.03612 0.37838 0.00082 0.0
C3 C 0.98459 0.33342 0.99044 0.0
O4 O 1.00136 0.37734 0.97607 0.0
Co5 Co 0.96516 0.35322 0.01047 0.0
O6 O 0.9695 0.36701 0.97599 0.0
C7 C 0.99584 0.38329 0.04661 0.0
C8 C 0.03642 0.36682 0.01881 0.0
C9 C 0.98651 0.37742 0.96639 0.0
O10 O 0.00931 0.3828 0.03301 0.0
O11 O 0.97767 0.37152 0.04215 0.0
O12 O 1.00177 0.34163 0.97977 0.0
O13 O 0.98252 0.34316 0.00987 0.0
Co14 Co 0.64307 0.64133 0.00326 0.0
O15 O 0.66432 0.65116 0.97829 0.0
O16 O 0.65666 0.62716 0.00682 0.0
C17 C 0.64986 0.67142 0.01775 0.0
O18 O 0.62298 0.62756 0.03263 0.0
Co19 Co 0.61 0.65077 -0.00071 0.0
O20 O 0.60165 0.63788 0.03459 0.0
C21 C 0.60917 0.61953 0.96417 0.0
C22 C 0.66836 0.63871 0.98848 0.0
C23 C 0.60837 0.62756 0.04342 0.0
O24 O 0.62448 0.62152 0.97573 0.0
O25 O 0.60229 0.63064 0.96952 0.0
O26 O 0.65912 0.66349 0.02778 0.0
O27 O 0.63771 0.66154 -0.00143 0.0
Co28 Co 0.35572 0.99981 -0.00023 0.0
O29 O 0.34644 0.01332 0.97832 0.0
O30 O 0.37081 0.0279 0.00758 0.0
C31 C 0.32595 0.9755 0.01265 0.0
O32 O 0.3689 0.99074 0.02616 0.0
Co33 Co 0.34427 0.95663 0.98557 0.0
O34 O 0.35723 0.95835 0.02029 0.0
C35 C 0.37602 0.98972 0.95587 0.0
C36 C 0.35952 0.02944 0.99028 0.0
C37 C 0.36801 0.97465 0.03275 0.0
O38 O 0.37468 0.00242 0.97084 0.0
O39 O 0.36433 0.97114 0.95743 0.0
O40 O 0.3344 0.99246 0.02518 0.0
O41 O 0.3349 0.97438 0.99172 0.0
Co42 Co 1.00075 0.65037 0.00523 0.0
O43 O 0.98695 0.65922 0.98379 0.0
O44 O 0.97299 0.63471 0.01233 0.0
C45 C 0.02422 0.68108 0.01828 0.0
O46 O 0.01043 0.63743 0.03129 0.0
Co47 Co 0.04372 0.6631 0.99239 0.0
O48 O 0.04259 0.65007 0.02652 0.0
C49 C 0.01115 0.6302 0.96146 0.0
C50 C 0.9712 0.64594 0.99522 0.0
C51 C 0.02654 0.63865 0.03809 0.0
O52 O 0.99835 0.63126 0.97592 0.0
O53 O 0.02946 0.64234 0.96383 0.0
O54 O 0.00779 0.67214 0.03098 0.0
O55 O 0.02547 0.67175 -0.0024 0.0
Co56 Co 0.36226 0.36198 0.00611 0.0
O57 O 0.34037 0.35332 0.02963 0.0
O58 O 0.34828 0.37514 -0.00253 0.0
C59 C 0.35657 0.33144 -0.00285 0.0
O60 O 0.38298 0.37393 0.97695 0.0
Co61 Co 0.39609 0.35494 0.01835 0.0
O62 O 0.40658 0.36698 0.98317 0.0
C63 C 0.39513 0.3881 0.04508 0.0
C64 C 0.33639 0.36482 0.01646 0.0
C65 C 0.39891 0.37488 0.9699 0.0
O66 O 0.37951 0.38388 0.03222 0.0
O67 O 0.40336 0.37794 0.04318 0.0
O68 O 0.34735 0.33824 0.98401 0.0
O69 O 0.36808 0.34276 0.01616 0.0
Co70 Co 0.64773 0.00655 0.0124 0.0
O71 O 0.65735 0.9943 0.03569 0.0
O72 O 0.63306 0.97818 0.00661 0.0
C73 C 0.67744 0.03027 -0.00125 0.0
O74 O 0.63448 0.0144 0.98424 0.0
Co75 Co 0.65847 0.04973 0.02343 0.0
O76 O 0.64723 0.04713 0.98705 0.0
C77 C 0.62719 0.01766 0.05483 0.0
C78 C 0.64467 0.97769 0.02445 0.0
C79 C 0.63626 0.03048 0.97555 0.0
O80 O 0.62866 0.00474 0.04059 0.0
O81 O 0.63865 0.03621 0.05234 0.0
O82 O 0.66898 0.01287 0.98753 0.0
O83 O 0.66848 0.03233 0.01904 0.0
Co84 Co 0.6718 0.69433 0.33937 0.0
O85 O 0.68338 0.68478 0.36408 0.0
O86 O 0.69994 0.71009 0.33736 0.0
C87 C 0.64975 0.66411 0.32301 0.0
O88 O 0.66518 0.70805 0.31055 0.0
Co89 Co 0.62822 0.68189 0.34301 0.0
O90 O 0.63299 0.69606 0.30877 0.0
C91 C 0.65714 0.71255 0.38033 0.0
C92 C 0.7001 0.69829 0.35509 0.0
C93 C 0.65014 0.70737 0.30013 0.0
O94 O 0.67124 0.7125 0.36786 0.0
O95 O 0.6392 0.70041 0.37485 0.0
O96 O 0.66734 0.67338 0.31366 0.0
O97 O 0.64641 0.67283 0.34262 0.0
Co98 Co 0.31422 0.98183 0.34152 0.0
O99 O 0.33472 0.99135 0.3154 0.0
O100 O 0.32745 0.96718 0.34345 0.0
C101 C 0.32203 0.01213 0.35665 0.0
O102 O 0.29481 0.96828 0.37174 0.0
Co103 Co 0.2817 0.99213 0.33989 0.0
O104 O 0.27371 0.97885 0.37496 0.0
C105 C 0.27954 0.96088 0.3035 0.0
C106 C 0.3387 0.9786 0.32466 0.0
C107 C 0.28043 0.96837 0.3832 0.0
O108 O 0.29475 0.96232 0.31455 0.0
O109 O 0.27319 0.97237 0.30946 0.0
O110 O 0.33118 0.00381 0.36575 0.0
O111 O 0.30932 0.00246 0.33795 0.0
Co112 Co 0.02622 0.33734 0.33657 0.0
O113 O 0.01835 0.35137 0.3136 0.0
O114 O 0.0426 0.36545 0.34319 0.0
C115 C 0.99617 0.31449 0.35056 0.0
O116 O 0.03849 0.32785 0.36386 0.0
Co117 Co 0.01259 0.29339 0.3243 0.0
O118 O 0.02577 0.29523 0.35888 0.0
C119 C 0.04507 0.32474 0.29351 0.0
C120 C 0.03226 0.36739 0.32474 0.0
C121 C 0.03701 0.31158 0.37094 0.0
O122 O 0.04457 0.33811 0.30799 0.0
O123 O 0.03273 0.30635 0.29569 0.0
O124 O 0.00543 0.33184 0.362 0.0
O125 O 0.00441 0.31222 0.32959 0.0
Co126 Co 0.66552 0.98204 0.33781 0.0
O127 O 0.65129 0.9895 0.31477 0.0
O128 O 0.63793 0.96682 0.34599 0.0
C129 C 0.6891 0.01339 0.34783 0.0
O130 O 0.67567 0.97091 0.36604 0.0
Co131 Co 0.70822 0.99399 0.32454 0.0
O132 O 0.7071 0.98079 0.35848 0.0
C133 C 0.67524 0.95956 0.29672 0.0
C134 C 0.63578 0.97696 0.32745 0.0
C135 C 0.69151 0.97124 0.37192 0.0
O136 O 0.66269 0.96132 0.31082 0.0
O137 O 0.69356 0.97184 0.29802 0.0
O138 O 0.67284 0.00514 0.36097 0.0
O139 O 0.69011 0.00299 0.32835 0.0
Co140 Co 0.02488 0.68765 0.34784 0.0
O141 O 1.00303 0.67903 0.37134 0.0
O142 O 0.01391 0.70423 0.34389 0.0
C143 C 0.01591 0.65735 0.33176 0.0
O144 O 0.04614 0.70033 0.31969 0.0
Co145 Co 0.05469 0.67399 0.35457 0.0
O146 O 0.06697 0.68933 0.32183 0.0
C147 C 0.0576 0.70619 0.38936 0.0
C148 C 1.00098 0.69283 0.3612 0.0
C149 C 0.06116 0.69997 0.31134 0.0
O150 O 0.04344 0.70584 0.37666 0.0
O151 O 0.06304 0.6938 0.38482 0.0
O152 O 0.00842 0.66706 0.32186 0.0
O153 O 0.02741 0.66553 0.35221 0.0
Co154 Co 0.31262 0.34037 0.34486 0.0
O155 O 0.32202 0.32775 0.36786 0.0
O156 O 0.29808 0.31215 0.33814 0.0
C157 C 0.34258 0.36434 0.33232 0.0
O158 O 0.29952 0.34835 0.31673 0.0
Co159 Co 0.32295 0.38335 0.35575 0.0
O160 O 0.31143 0.3809 0.3196 0.0
C161 C 0.29202 0.35108 0.38746 0.0
C162 C 0.30951 0.31133 0.35596 0.0
C163 C 0.30079 0.36419 0.30808 0.0
O164 O 0.29334 0.33817 0.37294 0.0
O165 O 0.30347 0.36964 0.38498 0.0
O166 O 0.3342 0.34717 0.32041 0.0
O167 O 0.33325 0.36612 0.35234 0.0
Co168 Co 0.34568 0.03669 0.67405 0.0
O169 O 0.35697 0.02639 0.69807 0.0
O170 O 0.3737 0.05119 0.67061 0.0
C171 C 0.32199 0.00682 0.6588 0.0
O172 O 0.33958 0.05109 0.64572 0.0
Co173 Co 0.30293 0.02697 0.6789 0.0
O174 O 0.30797 0.04174 0.64519 0.0
C175 C 0.33349 0.05658 0.71577 0.0
C176 C 0.37369 0.03931 0.68832 0.0
C177 C 0.32514 0.05193 0.63604 0.0
O178 O 0.34695 0.05569 0.70274 0.0
O179 O 0.31533 0.04523 0.71066 0.0
O180 O 0.3393 0.01499 0.64853 0.0
O181 O 0.31986 0.01637 0.67845 0.0
Co182 Co 0.97534 0.30932 0.6708 0.0
O183 O 0.99531 0.31718 0.644 0.0
O184 O 0.98817 0.29444 0.67445 0.0
C185 C 0.98376 0.34027 0.68319 0.0
O186 O 0.9566 0.29749 0.70204 0.0
Co187 Co 0.94317 0.32017 0.66862 0.0
O188 O 0.93582 0.30848 0.70478 0.0
C189 C 0.93949 0.28687 0.63521 0.0
C190 C 0.9992 0.30476 0.65475 0.0
C191 C 0.94261 0.29822 0.71365 0.0
O192 O 0.95508 0.28874 0.64564 0.0
O193 O 0.93347 0.29874 0.64038 0.0
O194 O 0.99302 0.33228 0.69305 0.0
O195 O 0.97062 0.32987 0.66532 0.0
Co196 Co 0.69096 0.66967 0.67017 0.0
O197 O 0.68436 0.68385 0.64556 0.0
O198 O 0.70641 0.69769 0.67822 0.0
C199 C 0.66006 0.64615 0.67986 0.0
O200 O 0.70166 0.65985 0.69941 0.0
Co201 Co 0.67875 0.62606 0.65746 0.0
O202 O 0.68935 0.62732 0.69388 0.0
C203 C 0.71296 0.65852 0.63058 0.0
C204 C 0.69725 0.69976 0.65814 0.0
C205 C 0.69983 0.64347 0.7068 0.0
O206 O 0.71134 0.67148 0.64447 0.0
O207 O 0.70073 0.64003 0.63163 0.0
O208 O 0.66819 0.66315 0.69225 0.0
O209 O 0.67011 0.64461 0.66069 0.0
Co210 Co 0.32881 0.30595 0.67524 0.0
O211 O 0.3158 0.31505 0.65252 0.0
O212 O 0.30137 0.29302 0.68431 0.0
C213 C 0.35445 0.33637 0.68433 0.0
O214 O 0.3377 0.29356 0.70349 0.0
Co215 Co 0.36954 0.31301 0.66026 0.0
O216 O 0.36831 0.30087 0.69509 0.0
C217 C 0.33434 0.28014 0.63434 0.0
C218 C 0.30006 0.3036 0.66562 0.0
C219 C 0.35295 0.29271 0.70921 0.0
O220 O 0.32333 0.28422 0.64842 0.0
O221 O 0.35292 0.29031 0.63528 0.0
O222 O 0.33846 0.32956 0.69791 0.0
O223 O 0.35408 0.32519 0.66479 0.0
Co224 Co 0.69132 0.01842 0.67129 0.0
O225 O 0.67029 0.01104 0.69599 0.0
O226 O 0.67913 0.03369 0.66484 0.0
C227 C 0.68272 0.9871 0.66072 0.0
O228 O 0.7116 0.0295 0.64144 0.0
Co229 Co 0.72253 0.00678 0.68006 0.0
O230 O 0.7335 0.01998 0.64558 0.0
C231 C 0.72531 0.04088 0.71006 0.0
C232 C 0.66723 0.0236 0.68398 0.0
C233 C 0.72683 0.02933 0.63352 0.0
O234 O 0.71046 0.03913 0.69746 0.0
O235 O 0.73122 0.02872 0.7072 0.0
O236 O 0.67437 0.9953 0.64875 0.0
O237 O 0.69508 0.99757 0.6794 0.0
Co238 Co 0.98194 0.67567 0.67891 0.0
O239 O 0.99192 0.66376 0.70223 0.0
O240 O 0.96744 0.64728 0.67355 0.0
C241 C 0.01158 0.69949 0.66488 0.0
O242 O 0.96821 0.68298 0.65081 0.0
Co243 Co 0.99235 0.71881 0.68891 0.0
O244 O 0.98011 0.71556 0.65311 0.0
C245 C 0.9617 0.687 0.72145 0.0
C246 C 0.97924 0.64702 0.69128 0.0
C247 C 0.96929 0.69871 0.64203 0.0
O248 O 0.96304 0.67395 0.70734 0.0
O249 O 0.97305 0.70552 0.71848 0.0
O250 O 1.0031 0.68204 0.6538 0.0
O251 O 1.00262 0.7016 0.68511 0.0
H252 H 0.16012 0.34244 0.16456 0.0
H253 H 0.15766 0.35005 0.07927 0.0
H254 H 0.12986 0.36991 0.13456 0.0
H255 H 0.16464 0.32163 0.13028 0.0
H256 H 0.16723 0.32773 0.09555 0.0
H257 H 0.19124 0.34412 0.1639 0.0
H258 H 0.24854 0.37217 0.13045 0.0
H259 H 0.19885 0.34861 0.07773 0.0
C260 C 0.15628 0.34851 0.14796 0.0
C261 C 0.145 0.35713 0.15287 0.0
C262 C 0.16134 0.34629 0.12151 0.0
C263 C 0.15492 0.3528 0.09982 0.0
C264 C 0.14387 0.3617 0.10456 0.0
C265 C 0.13951 0.3643 0.13112 0.0
C266 C 0.17076 0.33422 0.11632 0.0
C267 C 0.19255 0.34611 0.1204 0.0
C268 C 0.20065 0.34956 0.14654 0.0
C269 C 0.2209 0.3593 0.15024 0.0
C270 C 0.23299 0.36565 0.12767 0.0
C271 C 0.22518 0.36162 0.10151 0.0
C272 C 0.20495 0.35212 0.09795 0.0
H273 H 0.67703 0.82732 0.16536 0.0
H274 H 0.67514 0.81725 0.07917 0.0
H275 H 0.66028 0.77018 0.1335 0.0
H276 H 0.6958 0.85503 0.13133 0.0
H277 H 0.69002 0.85016 0.09638 0.0
H278 H 0.66797 0.84972 0.16372 0.0
H279 H 0.63992 0.87911 0.1327 0.0
H280 H 0.66848 0.85943 0.07869 0.0
C281 C 0.6735 0.81752 0.14809 0.0
C282 C 0.66746 0.79775 0.15228 0.0
C283 C 0.67558 0.82462 0.12161 0.0
C284 C 0.67254 0.81182 0.09956 0.0
C285 C 0.66723 0.79228 0.10398 0.0
C286 C 0.66422 0.78528 0.13019 0.0
C287 C 0.68363 0.84626 0.11688 0.0
C288 C 0.66877 0.85251 0.12062 0.0
C289 C 0.66304 0.8544 0.14677 0.0
C290 C 0.65274 0.86411 0.15151 0.0
C291 C 0.64688 0.87062 0.12935 0.0
C292 C 0.65238 0.86892 0.10306 0.0
C293 C 0.66332 0.85981 0.09877 0.0
H294 H 0.16595 0.79441 0.16978 0.0
H295 H 0.15955 0.80509 0.08679 0.0
H296 H 0.10952 0.77691 0.13767 0.0
H297 H 0.19273 0.8047 0.13888 0.0
H298 H 0.1894 0.80679 0.10377 0.0
H299 H 0.19474 0.83207 0.17133 0.0
H300 H 0.22877 0.8896 0.13865 0.0
H301 H 0.20475 0.83886 0.08563 0.0
C302 C 0.15683 0.79412 0.15348 0.0
C303 C 0.13657 0.7845 0.15677 0.0
C304 C 0.1653 0.80221 0.12848 0.0
C305 C 0.15326 0.80016 0.10653 0.0
C306 C 0.13302 0.79072 0.10966 0.0
C307 C 0.12511 0.78413 0.13521 0.0
C308 C 0.18685 0.81087 0.1243 0.0
C309 C 0.19786 0.83296 0.12793 0.0
C310 C 0.20068 0.84139 0.15397 0.0
C311 C 0.21149 0.86184 0.15763 0.0
C312 C 0.21961 0.87385 0.13533 0.0
C313 C 0.2175 0.86581 0.10931 0.0
C314 C 0.20639 0.84527 0.10564 0.0
H315 H 0.38058 0.21491 0.85532 0.0
H316 H 0.37217 0.20907 0.94114 0.0
H317 H 0.3415 0.22949 0.89415 0.0
H318 H 0.40226 0.20959 0.88421 0.0
H319 H 0.39887 0.20756 0.91988 0.0
H320 H 0.37712 0.1809 0.85388 0.0
H321 H 0.35629 0.12406 0.88717 0.0
H322 H 0.38406 0.17537 0.93905 0.0
C323 C 0.37299 0.21542 0.87311 0.0
C324 C 0.36061 0.22311 0.87157 0.0
C325 C 0.37663 0.20956 0.89808 0.0
C326 C 0.36828 0.21207 0.92165 0.0
C327 C 0.35582 0.21955 0.92027 0.0
C328 C 0.3512 0.22379 0.89506 0.0
C329 C 0.39108 0.20275 0.90016 0.0
C330 C 0.38113 0.18067 0.89699 0.0
C331 C 0.3748 0.17188 0.87126 0.0
C332 C 0.36565 0.15148 0.86787 0.0
C333 C 0.36286 0.13982 0.89014 0.0
C334 C 0.36959 0.14824 0.91578 0.0
C335 C 0.37873 0.16875 0.91926 0.0
H336 H 0.85858 0.17764 0.84738 0.0
H337 H 0.86889 0.18251 0.93332 0.0
H338 H 0.8906 0.23434 0.88613 0.0
H339 H 0.85614 0.14949 0.87636 0.0
H340 H 0.85386 0.15079 0.912 0.0
H341 H 0.83046 0.14759 0.84556 0.0
H342 H 0.77289 0.11714 0.87846 0.0
H343 H 0.8224 0.1406 0.93127 0.0
C344 C 0.86389 0.18646 0.86571 0.0
C345 C 0.87411 0.20701 0.86406 0.0
C346 C 0.86112 0.17741 0.89087 0.0
C347 C 0.86978 0.18922 0.91412 0.0
C348 C 0.88031 0.20974 0.91231 0.0
C349 C 0.88183 0.21846 0.88753 0.0
C350 C 0.85066 0.1553 0.8925 0.0
C351 C 0.82894 0.14602 0.88886 0.0
C352 C 0.82092 0.14285 0.86278 0.0
C353 C 0.80068 0.13248 0.85866 0.0
C354 C 0.78851 0.12606 0.88121 0.0
C355 C 0.79622 0.12894 0.90733 0.0
C356 C 0.81645 0.13897 0.91115 0.0
H357 H 0.82977 0.63015 0.84065 0.0
H358 H 0.82957 0.61926 0.92568 0.0
H359 H 0.88357 0.65299 0.88405 0.0
H360 H 0.80053 0.60177 0.86459 0.0
H361 H 0.79962 0.6022 0.90048 0.0
H362 H 0.79668 0.62557 0.83762 0.0
H363 H 0.76738 0.65165 0.87676 0.0
H364 H 0.79047 0.62346 0.92411 0.0
C365 C 0.83749 0.63237 0.85951 0.0
C366 C 0.85789 0.64303 0.85983 0.0
C367 C 0.82707 0.62422 0.88341 0.0
C368 C 0.83737 0.62621 0.90746 0.0
C369 C 0.85779 0.63678 0.90776 0.0
C370 C 0.86781 0.64542 0.88406 0.0
C371 C 0.80512 0.61178 0.8826 0.0
C372 C 0.79572 0.62413 0.88117 0.0
C373 C 0.79228 0.62979 0.85598 0.0
C374 C 0.78227 0.63999 0.85435 0.0
C375 C 0.77606 0.64479 0.87809 0.0
C376 C 0.7787 0.63872 0.90323 0.0
C377 C 0.78875 0.62856 0.90478 0.0
H378 H 0.82719 0.67702 0.50073 0.0
H379 H 0.82146 0.6819 0.41544 0.0
H380 H 0.79552 0.70325 0.47166 0.0
H381 H 0.82941 0.6544 0.46587 0.0
H382 H 0.83278 0.66108 0.43135 0.0
H383 H 0.85563 0.67519 0.50057 0.0
H384 H 0.91347 0.70471 0.4691 0.0
H385 H 0.86477 0.68273 0.41484 0.0
C386 C 0.82266 0.6825 0.48419 0.0
C387 C 0.81146 0.69115 0.48951 0.0
C388 C 0.8267 0.67942 0.45757 0.0
C389 C 0.81944 0.68523 0.43605 0.0
C390 C 0.80854 0.69427 0.44116 0.0
C391 C 0.80509 0.6976 0.46788 0.0
C392 C 0.83598 0.66722 0.45231 0.0
C393 C 0.85769 0.67879 0.45725 0.0
C394 C 0.86532 0.6813 0.4836 0.0
C395 C 0.88549 0.69109 0.48795 0.0
C396 C 0.89797 0.69822 0.46586 0.0
C397 C 0.89064 0.69498 0.43949 0.0
C398 C 0.87049 0.68559 0.43526 0.0
H399 H 0.34943 0.17121 0.49972 0.0
H400 H 0.34889 0.15877 0.41432 0.0
H401 H 0.34239 0.11634 0.47231 0.0
H402 H 0.36512 0.19832 0.4652 0.0
H403 H 0.36158 0.19226 0.43012 0.0
H404 H 0.3355 0.19052 0.49373 0.0
H405 H 0.29669 0.20418 0.4531 0.0
H406 H 0.3381 0.19656 0.408 0.0
C407 C 0.34776 0.16132 0.48323 0.0
C408 C 0.34526 0.14291 0.4889 0.0
C409 C 0.34898 0.16721 0.45622 0.0
C410 C 0.34753 0.15431 0.43512 0.0
C411 C 0.34544 0.13609 0.44102 0.0
C412 C 0.34413 0.1305 0.4678 0.0
C413 C 0.35431 0.188 0.45004 0.0
C414 C 0.33699 0.1908 0.45058 0.0
C415 C 0.32914 0.19201 0.47542 0.0
C416 C 0.31483 0.19727 0.47679 0.0
C417 C 0.30775 0.20024 0.45253 0.0
C418 C 0.31673 0.20108 0.42789 0.0
C419 C 0.33088 0.19565 0.42689 0.0
H420 H 0.83171 0.12456 0.49154 0.0
H421 H 0.82509 0.13927 0.41071 0.0
H422 H 0.77505 0.10736 0.46068 0.0
H423 H 0.85875 0.1371 0.45973 0.0
H424 H 0.85558 0.14235 0.42581 0.0
H425 H 0.85396 0.16075 0.49664 0.0
H426 H 0.89232 0.22096 0.47708 0.0
H427 H 0.87782 0.17584 0.4166 0.0
C428 C 0.82253 0.12484 0.4758 0.0
C429 C 0.80223 0.11471 0.47914 0.0
C430 C 0.83098 0.13447 0.45148 0.0
C431 C 0.81884 0.13319 0.4301 0.0
C432 C 0.79859 0.12311 0.43324 0.0
C433 C 0.79068 0.11503 0.45825 0.0
C434 C 0.8527 0.14426 0.44727 0.0
C435 C 0.86326 0.16588 0.45498 0.0
C436 C 0.86232 0.17165 0.4817 0.0
C437 C 0.87266 0.19151 0.48939 0.0
C438 C 0.88423 0.20563 0.47064 0.0
C439 C 0.88694 0.20021 0.4447 0.0
C440 C 0.87589 0.18027 0.43659 0.0
H441 H 0.04993 0.54265 0.16835 0.0
H442 H 0.03899 0.54832 0.25192 0.0
H443 H 0.00832 0.55898 0.19002 0.0
H444 H 0.07027 0.54127 0.2051 0.0
H445 H 0.06412 0.54177 0.23971 0.0
H446 H 0.03852 0.50937 0.17783 0.0
H447 H 0.02766 0.45694 0.21627 0.0
H448 H 0.05862 0.51215 0.25947 0.0
C449 C 0.04154 0.54487 0.18364 0.0
C450 C 0.02858 0.55091 0.17597 0.0
C451 C 0.04404 0.54222 0.21111 0.0
C452 C 0.0353 0.54813 0.23089 0.0
C453 C 0.02325 0.55533 0.22329 0.0
C454 C 0.01836 0.5544 0.19597 0.0
C455 C 0.05792 0.53555 0.2194 0.0
C456 C 0.04827 0.51333 0.21947 0.0
C457 C 0.03917 0.50225 0.19583 0.0
C458 C 0.03137 0.48192 0.19493 0.0
C459 C 0.03302 0.47259 0.21745 0.0
C460 C 0.04314 0.48336 0.24051 0.0
C461 C 0.05048 0.50373 0.2418 0.0
H462 H 0.52219 0.50539 0.17822 0.0
H463 H 0.53493 0.51281 0.26372 0.0
H464 H 0.56138 0.56264 0.21212 0.0
H465 H 0.51535 0.47676 0.20799 0.0
H466 H 0.5173 0.48006 0.2438 0.0
H467 H 0.48948 0.4787 0.18293 0.0
H468 H 0.43752 0.46277 0.22764 0.0
H469 H 0.48927 0.47404 0.26889 0.0
C470 C 0.52929 0.51476 0.19571 0.0
C471 C 0.5416 0.53504 0.19241 0.0
C472 C 0.52631 0.50662 0.22159 0.0
C473 C 0.53648 0.51894 0.2439 0.0
C474 C 0.54919 0.5391 0.2403 0.0
C475 C 0.5513 0.54704 0.21479 0.0
C476 C 0.51329 0.48475 0.22511 0.0
C477 C 0.49215 0.47894 0.22597 0.0
C478 C 0.482 0.47673 0.20182 0.0
C479 C 0.46206 0.47044 0.20197 0.0
C480 C 0.45277 0.46739 0.22697 0.0
C481 C 0.46212 0.46763 0.25094 0.0
C482 C 0.48199 0.47396 0.25047 0.0
H483 H 0.49522 0.96193 0.17323 0.0
H484 H 0.49508 0.95168 0.25847 0.0
H485 H 0.54902 0.98616 0.21698 0.0
H486 H 0.46624 0.93311 0.19774 0.0
H487 H 0.46514 0.9344 0.23355 0.0
H488 H 0.46215 0.95595 0.16895 0.0
H489 H 0.432 0.98226 0.20483 0.0
H490 H 0.45563 0.9561 0.25529 0.0
C491 C 0.50292 0.96447 0.19218 0.0
C492 C 0.52331 0.97552 0.19261 0.0
C493 C 0.49251 0.95632 0.21609 0.0
C494 C 0.50285 0.95865 0.24023 0.0
C495 C 0.52326 0.96958 0.24062 0.0
C496 C 0.53325 0.97828 0.21692 0.0
C497 C 0.47059 0.94354 0.21524 0.0
C498 C 0.46086 0.9555 0.21252 0.0
C499 C 0.45747 0.96044 0.18677 0.0
C500 C 0.44729 0.97037 0.18392 0.0
C501 C 0.44078 0.97557 0.20704 0.0
C502 C 0.44354 0.97039 0.23277 0.0
C503 C 0.45376 0.96048 0.23549 0.0
H504 H 0.49546 0.01206 0.83303 0.0
H505 H 0.49423 0.02094 0.74791 0.0
H506 H 0.46626 0.04064 0.80308 0.0
H507 H 0.49976 0.99133 0.79852 0.0
H508 H 0.50267 0.99772 0.76392 0.0
H509 H 0.52648 0.01312 0.83249 0.0
H510 H 0.58378 0.03904 0.79941 0.0
H511 H 0.53451 0.0177 0.74639 0.0
C512 C 0.49203 0.01854 0.81651 0.0
C513 C 0.48083 0.02727 0.82141 0.0
C514 C 0.49735 0.01657 0.79011 0.0
C515 C 0.49137 0.02355 0.76846 0.0
C516 C 0.48048 0.03263 0.77321 0.0
C517 C 0.47585 0.03495 0.79973 0.0
C518 C 0.50627 0.00405 0.78477 0.0
C519 C 0.52806 0.0153 0.78901 0.0
C520 C 0.53599 0.0183 0.81521 0.0
C521 C 0.55616 0.0272 0.81905 0.0
C522 C 0.56834 0.03321 0.79656 0.0
C523 C 0.56068 0.02962 0.77035 0.0
C524 C 0.54053 0.02094 0.76665 0.0
H525 H 0.01009 0.4959 0.83071 0.0
H526 H 0.00839 0.48552 0.7446 0.0
H527 H 0.99615 0.43943 0.79946 0.0
H528 H 0.02858 0.52355 0.79616 0.0
H529 H 0.02248 0.51838 0.76136 0.0
H530 H 1.00134 0.51848 0.82914 0.0
H531 H 0.97231 0.54692 0.79835 0.0
H532 H 1.00023 0.52677 0.74392 0.0
C533 C 0.00693 0.4861 0.81353 0.0
C534 C 1.00195 0.46664 0.81792 0.0
C535 C 0.00871 0.49299 0.78698 0.0
C536 C 0.0061 0.48024 0.76506 0.0
C537 C 1.00182 0.46104 0.76968 0.0
C538 C 0.99933 0.45427 0.79598 0.0
C539 C 0.01631 0.51451 0.78198 0.0
C540 C 1.00123 0.52043 0.78594 0.0
C541 C 0.99595 0.5227 0.8122 0.0
C542 C 0.98567 0.53242 0.81704 0.0
C543 C 0.97926 0.53842 0.79493 0.0
C544 C 0.98435 0.53639 0.76854 0.0
C545 C 0.99531 0.52732 0.76411 0.0
H546 H 0.50009 0.46106 0.82049 0.0
H547 H 0.4938 0.46557 0.73524 0.0
H548 H 0.44353 0.43963 0.78579 0.0
H549 H 0.52675 0.46837 0.78844 0.0
H550 H 0.52464 0.47271 0.75377 0.0
H551 H 0.52925 0.4935 0.82428 0.0
H552 H 0.56153 0.55306 0.79839 0.0
H553 H 0.53822 0.50588 0.73934 0.0
C554 C 0.49097 0.45939 0.8034 0.0
C555 C 0.47065 0.44943 0.80632 0.0
C556 C 0.49952 0.46604 0.77795 0.0
C557 C 0.48747 0.46191 0.75516 0.0
C558 C 0.46719 0.45206 0.7579 0.0
C559 C 0.45917 0.44709 0.7837 0.0
C560 C 0.52124 0.47534 0.77463 0.0
C561 C 0.53186 0.49715 0.78099 0.0
C562 C 0.53475 0.50388 0.80802 0.0
C563 C 0.54511 0.52405 0.81407 0.0
C564 C 0.55276 0.53752 0.79325 0.0
C565 C 0.5506 0.53123 0.76624 0.0
C566 C 0.5399 0.51094 0.76015 0.0
H567 H 0.71284 0.8824 0.50798 0.0
H568 H 0.69679 0.86718 0.5907 0.0
H569 H 0.67076 0.8933 0.54506 0.0
H570 H 0.73056 0.87193 0.53491 0.0
H571 H 0.72796 0.87196 0.57073 0.0
H572 H 0.69908 0.84094 0.51002 0.0
H573 H 0.68942 0.78754 0.54474 0.0
H574 H 0.72122 0.84186 0.58967 0.0
C575 C 0.70373 0.88104 0.52493 0.0
C576 C 0.69157 0.88898 0.52358 0.0
C577 C 0.70517 0.87253 0.54893 0.0
C578 C 0.69465 0.87241 0.57173 0.0
C579 C 0.68249 0.88027 0.57061 0.0
C580 C 0.68019 0.8873 0.54602 0.0
C581 C 0.71976 0.86595 0.55146 0.0
C582 C 0.71008 0.8438 0.55069 0.0
C583 C 0.70022 0.83326 0.5271 0.0
C584 C 0.69245 0.81291 0.52517 0.0
C585 C 0.69471 0.80316 0.54674 0.0
C586 C 0.7053 0.81346 0.56979 0.0
C587 C 0.71268 0.83378 0.57206 0.0
H588 H 0.19515 0.84707 0.51865 0.0
H589 H 0.20584 0.85565 0.60453 0.0
H590 H 0.22831 0.90527 0.55276 0.0
H591 H 0.19224 0.82004 0.55062 0.0
H592 H 0.19037 0.82308 0.58598 0.0
H593 H 0.16648 0.81737 0.51899 0.0
H594 H 0.1092 0.78842 0.55263 0.0
H595 H 0.15897 0.81303 0.60508 0.0
C596 C 0.20071 0.85666 0.53627 0.0
C597 C 0.21129 0.87708 0.53292 0.0
C598 C 0.19785 0.84873 0.56229 0.0
C599 C 0.20682 0.86152 0.58465 0.0
C600 C 0.21775 0.88189 0.5811 0.0
C601 C 0.21935 0.88951 0.55547 0.0
C602 C 0.18707 0.82673 0.5659 0.0
C603 C 0.16532 0.8175 0.56244 0.0
C604 C 0.15712 0.81344 0.53637 0.0
C605 C 0.13686 0.80303 0.53257 0.0
C606 C 0.12484 0.79741 0.55522 0.0
C607 C 0.13267 0.80085 0.58129 0.0
C608 C 0.15293 0.811 0.58495 0.0
H609 H 0.16281 0.29627 0.51038 0.0
H610 H 0.16271 0.28536 0.59535 0.0
H611 H 0.21665 0.31939 0.55359 0.0
H612 H 0.13377 0.26742 0.53467 0.0
H613 H 0.13272 0.26849 0.57048 0.0
H614 H 0.13108 0.29175 0.50635 0.0
H615 H 0.09874 0.31566 0.54213 0.0
H616 H 0.1214 0.28834 0.59216 0.0
C617 C 0.17051 0.2986 0.52925 0.0
C618 C 0.1909 0.30935 0.52954 0.0
C619 C 0.16012 0.29042 0.55315 0.0
C620 C 0.17048 0.29241 0.57715 0.0
C621 C 0.19092 0.30302 0.57742 0.0
C622 C 0.20088 0.31177 0.55371 0.0
C623 C 0.13817 0.27775 0.55229 0.0
C624 C 0.12843 0.28973 0.54977 0.0
C625 C 0.12576 0.29551 0.52419 0.0
C626 C 0.11535 0.30522 0.52142 0.0
C627 C 0.10779 0.30927 0.54444 0.0
C628 C 0.10965 0.30307 0.56993 0.0
C629 C 0.12023 0.29352 0.57259 0.0
H630 H 0.03129 0.41699 0.05549 0.0
H631 H 0.99591 0.44926 0.18619 0.0
H632 H 0.97248 0.38498 0.08526 0.0
H633 H 0.05034 0.48775 0.14735 0.0
H634 H 0.98666 0.42598 0.14826 0.0
H635 H 0.03883 0.44314 0.08892 0.0
C636 C 0.02001 0.4154 0.06912 0.0
C637 C 1.00124 0.39874 0.06761 0.0
C638 C 1.00049 0.43966 0.14772 0.0
C639 C 0.0097 0.42861 0.10558 0.0
C640 C 0.00567 0.45296 0.16926 0.0
C641 C 0.02383 0.47036 0.16968 0.0
C642 C 0.01376 0.44365 0.12675 0.0
C643 C 0.03612 0.47451 0.14751 0.0
C644 C 0.02427 0.43041 0.088 0.0
C645 C 0.98715 0.39755 0.08562 0.0
N646 N 0.03099 0.46108 0.12705 0.0
N647 N 0.99169 0.41223 0.10387 0.0
H648 H 0.57921 0.62533 0.07498 0.0
H649 H 0.55982 0.52857 0.15057 0.0
H650 H 0.61259 0.59729 0.0608 0.0
H651 H 0.53504 0.56338 0.1751 0.0
H652 H 0.57516 0.55036 0.11229 0.0
H653 H 0.55979 0.60027 0.10778 0.0
C654 C 0.58255 0.61399 0.07885 0.0
C655 C 0.59766 0.61352 0.06515 0.0
C656 C 0.56607 0.55301 0.12576 0.0
C657 C 0.5752 0.58454 0.10246 0.0
C658 C 0.5571 0.54042 0.1473 0.0
C659 C 0.54612 0.54422 0.16575 0.0
C660 C 0.56396 0.56942 0.1228 0.0
C661 C 0.54335 0.55999 0.16112 0.0
C662 C 0.57138 0.59962 0.09751 0.0
C663 C 0.60122 0.59837 0.071 0.0
N664 N 0.55235 0.57212 0.14022 0.0
N665 N 0.59004 0.58447 0.08917 0.0
H666 H 0.39403 0.0061 0.06466 0.0
H667 H 0.43042 0.9432 0.1429 0.0
H668 H 0.3722 0.94435 0.04964 0.0
H669 H 0.44815 0.00302 0.16483 0.0
H670 H 0.41276 0.9451 0.10413 0.0
H671 H 0.41657 0.00654 0.09825 0.0
C672 C 0.39388 0.99263 0.06846 0.0
C673 C 0.38106 0.97514 0.05433 0.0
C674 C 0.42072 0.95792 0.11721 0.0
C675 C 0.40706 0.97563 0.09248 0.0
C676 C 0.43104 0.95691 0.13914 0.0
C677 C 0.44065 0.97293 0.15721 0.0
C678 C 0.41999 0.97505 0.11334 0.0
C679 C 0.44072 0.99026 0.15153 0.0
C680 C 0.40684 0.99292 0.08755 0.0
C681 C 0.38169 0.95818 0.06005 0.0
N682 N 0.43036 0.99079 0.13028 0.0
N683 N 0.39443 0.95887 0.07862 0.0
H684 H 0.3864 0.96694 0.92716 0.0
H685 H 0.47451 0.05371 0.84968 0.0
H686 H 0.40414 0.0277 0.94281 0.0
H687 H 0.46267 0.99416 0.85135 0.0
H688 H 0.45024 0.04566 0.88502 0.0
H689 H 0.41473 0.9775 0.89926 0.0
C690 C 0.39618 0.98256 0.92464 0.0
C691 C 0.39273 0.99644 0.93736 0.0
C692 C 0.45327 0.03451 0.87801 0.0
C693 C 0.42562 0.0087 0.90526 0.0
C694 C 0.46715 0.03909 0.85793 0.0
C695 C 0.47053 0.02455 0.84736 0.0
C696 C 0.4426 0.01519 0.88733 0.0
C697 C 0.4607 0.0059 0.85891 0.0
C698 C 0.41254 0.98859 0.90881 0.0
C699 C 0.40615 0.01648 0.93333 0.0
N700 N 0.44699 1.00171 0.87793 0.0
N701 N 0.42198 0.02203 0.91747 0.0
H702 H 0.02079 0.4048 0.94285 0.0
H703 H 0.96969 0.44631 0.84831 0.0
H704 H 0.95906 0.38264 0.94148 0.0
H705 H 0.03106 0.46769 0.84706 0.0
H706 H 0.96619 0.42552 0.88639 0.0
H707 H 0.02539 0.42956 0.91025 0.0
C708 C 0.00818 0.40501 0.9356 0.0
C709 C 0.98948 0.3915 0.94494 0.0
C710 C 0.98052 0.43503 0.8782 0.0
C711 C 0.99472 0.42007 0.90786 0.0
C712 C 0.98252 0.44708 0.85677 0.0
C713 C 1.00072 0.45889 0.84505 0.0
C714 C 0.99682 0.4346 0.88763 0.0
C715 C 0.01686 0.459 0.85602 0.0
C716 C 0.01085 0.41927 0.91711 0.0
C717 C 0.97374 0.39266 0.93488 0.0
N718 N 0.01452 0.44687 0.87657 0.0
N719 N 0.97672 0.40667 0.91695 0.0
H720 H 0.57476 0.6091 0.93938 0.0
H721 H 0.57027 0.52246 0.84918 0.0
H722 H 0.6179 0.59208 0.94469 0.0
H723 H 0.53157 0.54462 0.84069 0.0
H724 H 0.58466 0.54363 0.88949 0.0
H725 H 0.55621 0.58207 0.90789 0.0
C726 C 0.58044 0.59973 0.93389 0.0
C727 C 0.59813 0.60311 0.94456 0.0
C728 C 0.57272 0.54352 0.87917 0.0
C729 C 0.57665 0.57178 0.90825 0.0
C730 C 0.56437 0.53127 0.85646 0.0
C731 C 0.54968 0.5318 0.84195 0.0
C732 C 0.56629 0.55632 0.88715 0.0
C733 C 0.54278 0.54375 0.8516 0.0
C734 C 0.56971 0.58416 0.91592 0.0
C735 C 0.60445 0.59018 0.93681 0.0
N736 N 0.55127 0.55568 0.87346 0.0
N737 N 0.59377 0.57513 0.91895 0.0
H738 H 0.97418 0.60351 0.94218 0.0
H739 H 0.01449 0.54648 0.85537 0.0
H740 H 0.03395 0.61799 0.93829 0.0
H741 H 0.95742 0.5378 0.84098 0.0
H742 H 0.01815 0.56681 0.89432 0.0
H743 H 0.96507 0.57519 0.91159 0.0
C744 C 0.98535 0.60078 0.93493 0.0
C745 C 0.0049 0.61333 0.94254 0.0
C746 C 0.0047 0.5603 0.88287 0.0
C747 C 0.99454 0.5809 0.90836 0.0
C748 C 1.00241 0.54831 0.86072 0.0
C749 C 0.98569 0.54052 0.84439 0.0
C750 C 0.99036 0.56492 0.88869 0.0
C751 C 0.97079 0.5439 0.85253 0.0
C752 C 0.98013 0.58461 0.91763 0.0
C753 C 0.01874 0.60899 0.93275 0.0
N754 N 0.97362 0.55618 0.87385 0.0
N755 N 0.01328 0.59321 0.91626 0.0
H756 H 0.38362 0.37978 0.92353 0.0
H757 H 0.48245 0.46114 0.85942 0.0
H758 H 0.43811 0.39676 0.96288 0.0
H759 H 0.43682 0.41393 0.81146 0.0
H760 H 0.46529 0.44363 0.90031 0.0
H761 H 0.40171 0.39903 0.88432 0.0
C762 C 0.39937 0.38763 0.92393 0.0
C763 C 0.40941 0.38652 0.94623 0.0
C764 C 0.45912 0.43736 0.88068 0.0
C765 C 0.43005 0.40883 0.90207 0.0
C766 C 0.4689 0.44725 0.85737 0.0
C767 C 0.46094 0.43934 0.83176 0.0
C768 C 0.44115 0.41971 0.87827 0.0
C769 C 0.44324 0.42119 0.83053 0.0
C770 C 0.40964 0.39854 0.90165 0.0
C771 C 0.42984 0.39703 0.94585 0.0
N772 N 0.43388 0.41217 0.85338 0.0
N773 N 0.43954 0.40788 0.92414 0.0
H774 H 0.64034 0.06136 0.94678 0.0
H775 H 0.54578 0.99722 0.85418 0.0
H776 H 0.60438 0.99825 0.95198 0.0
H777 H 0.58689 0.05889 0.8437 0.0
H778 H 0.56464 0.99761 0.89337 0.0
H779 H 0.61915 0.0608 0.91143 0.0
C780 C 0.62801 0.04732 0.94043 0.0
C781 C 0.62419 0.02981 0.95245 0.0
C782 C 0.56938 0.0111 0.8827 0.0
C783 C 0.5996 0.02911 0.91184 0.0
C784 C 0.55849 0.01094 0.86058 0.0
C785 C 0.56481 0.02807 0.84578 0.0
C786 C 0.58663 0.02854 0.89003 0.0
C787 C 0.58157 0.04537 0.85458 0.0
C788 C 0.61585 0.04704 0.92022 0.0
C789 C 0.60797 0.0121 0.94321 0.0
N790 N 0.59194 0.04514 0.876 0.0
N791 N 0.59623 0.01221 0.92349 0.0
H792 H 0.59627 0.98013 0.06237 0.0
H793 H 0.5511 0.01307 0.1814 0.0
H794 H 0.62049 0.04013 0.09071 0.0
H795 H 0.52267 0.954 0.14859 0.0
H796 H 0.57545 0.02353 0.14594 0.0
H797 H 0.56865 0.97019 0.09253 0.0
C798 C 0.59587 0.9912 0.07498 0.0
C799 C 0.61084 0.01101 0.074 0.0
C800 C 0.56374 0.00833 0.14613 0.0
C801 C 0.57913 0.99974 0.10834 0.0
C802 C 0.54976 0.00243 0.16623 0.0
C803 C 0.53488 0.98271 0.16774 0.0
C804 C 0.56303 0.99432 0.12764 0.0
C805 C 0.53385 0.96939 0.14786 0.0
C806 C 0.58 0.98553 0.09204 0.0
C807 C 0.60938 0.02469 0.09071 0.0
N808 N 0.54792 0.97538 0.1288 0.0
N809 N 0.59388 0.01879 0.10716 0.0
H810 H 0.99498 0.60647 0.06036 0.0
H811 H 0.05985 0.57687 0.1467 0.0
H812 H 0.05775 0.63861 0.06037 0.0
H813 H 0.99723 0.54277 0.14424 0.0
H814 H 0.05934 0.59731 0.11086 0.0
H815 H 0.99537 0.58189 0.08904 0.0
C816 C 0.00884 0.6085 0.06658 0.0
C817 C 0.02635 0.62474 0.05794 0.0
C818 C 0.04569 0.58511 0.11773 0.0
C819 C 0.02689 0.5964 0.09041 0.0
C820 C 0.04601 0.5732 0.13788 0.0
C821 C 0.02855 0.55816 0.14858 0.0
C822 C 0.02778 0.58203 0.10833 0.0
C823 C 0.01102 0.55432 0.13668 0.0
C824 C 0.00905 0.59433 0.08274 0.0
C825 C 0.04386 0.62639 0.06647 0.0
N826 N 0.01106 0.56639 0.11755 0.0
N827 N 0.04367 0.61245 0.08218 0.0
H828 H 0.43365 0.41436 0.05171 0.0
H829 H 0.42362 0.441 0.19512 0.0
H830 H 0.37728 0.40098 0.07978 0.0
H831 H 0.47325 0.48369 0.14973 0.0
H832 H 0.40627 0.4268 0.15351 0.0
H833 H 0.44895 0.4401 0.0867 0.0
C834 C 0.42453 0.41708 0.06505 0.0
C835 C 0.40422 0.40543 0.06325 0.0
C836 C 0.4208 0.43956 0.15269 0.0
C837 C 0.42154 0.43451 0.10334 0.0
C838 C 0.43086 0.44796 0.17665 0.0
C839 C 0.45027 0.46376 0.17645 0.0
C840 C 0.4303 0.44636 0.12814 0.0
C841 C 0.45863 0.47122 0.1512 0.0
C842 C 0.43325 0.43185 0.08479 0.0
C843 C 0.393 0.40962 0.0807 0.0
N844 N 0.44878 0.46212 0.12804 0.0
N845 N 0.40182 0.42353 0.10057 0.0
H846 H 0.63245 0.71366 0.41739 0.0
H847 H 0.71054 0.82 0.47669 0.0
H848 H 0.69171 0.74708 0.38964 0.0
H849 H 0.65715 0.77988 0.5166 0.0
H850 H 0.70113 0.79636 0.43891 0.0
H851 H 0.63918 0.74024 0.44915 0.0
C852 C 0.64692 0.72656 0.41801 0.0
C853 C 0.66158 0.72806 0.4009 0.0
C854 C 0.69131 0.7929 0.45571 0.0
C855 C 0.66928 0.75872 0.43707 0.0
C856 C 0.69654 0.80649 0.47701 0.0
C857 C 0.68455 0.80179 0.49963 0.0
C858 C 0.67398 0.77461 0.45714 0.0
C859 C 0.66673 0.78398 0.49942 0.0
C860 C 0.65072 0.74177 0.43611 0.0
C861 C 0.68003 0.74519 0.40263 0.0
N862 N 0.66205 0.77093 0.47861 0.0
N863 N 0.68334 0.75988 0.42039 0.0
H864 H 0.28581 0.93896 0.4014 0.0
H865 H 0.20275 0.90329 0.51247 0.0
H866 H 0.25067 0.96521 0.41425 0.0
H867 H 0.23276 0.87249 0.49403 0.0
H868 H 0.21869 0.92476 0.47438 0.0
H869 H 0.26623 0.91407 0.43447 0.0
C870 C 0.27411 0.93962 0.4113 0.0
C871 C 0.26996 0.9543 0.40502 0.0
C872 C 0.22156 0.9131 0.47827 0.0
C873 C 0.2473 0.92562 0.44266 0.0
C874 C 0.21229 0.90073 0.49981 0.0
C875 C 0.21638 0.88608 0.50613 0.0
C876 C 0.23529 0.91101 0.46324 0.0
C877 C 0.22908 0.88349 0.4895 0.0
C878 C 0.26281 0.92527 0.43002 0.0
C879 C 0.25447 0.95425 0.4184 0.0
N880 N 0.23833 0.89605 0.46899 0.0
N881 N 0.24375 0.94017 0.43656 0.0
H882 H 0.06331 0.34288 0.40287 0.0
H883 H 0.0996 0.27912 0.47907 0.0
H884 H 0.04082 0.28103 0.38766 0.0
H885 H 0.11631 0.33822 0.50363 0.0
H886 H 0.08226 0.28166 0.44039 0.0
H887 H 0.08588 0.34302 0.43619 0.0
C888 C 0.06302 0.32932 0.40657 0.0
C889 C 0.05 0.3119 0.39248 0.0
C890 C 0.08995 0.29419 0.45401 0.0
C891 C 0.07604 0.31205 0.43025 0.0
C892 C 0.1001 0.29284 0.47588 0.0
C893 C 0.1093 0.30843 0.49466 0.0
C894 C 0.08898 0.31126 0.45092 0.0
C895 C 0.10922 0.32578 0.48972 0.0
C896 C 0.07599 0.32944 0.4255 0.0
C897 C 0.05045 0.29481 0.39807 0.0
N898 N 0.09901 0.32666 0.46851 0.0
N899 N 0.06323 0.29534 0.41644 0.0
H900 H 0.05511 0.30073 0.26731 0.0
H901 H 0.13961 0.38433 0.18058 0.0
H902 H 0.07256 0.3619 0.27695 0.0
H903 H 0.12762 0.32481 0.18443 0.0
H904 H 0.11682 0.37752 0.21761 0.0
H905 H 0.08245 0.31005 0.23765 0.0
C906 C 0.06463 0.31616 0.26311 0.0
C907 C 0.06137 0.33053 0.27456 0.0
C908 C 0.11948 0.36609 0.21068 0.0
C909 C 0.09304 0.34136 0.24048 0.0
C910 C 0.13251 0.36998 0.18962 0.0
C911 C 0.13542 0.35508 0.17926 0.0
C912 C 0.10917 0.34711 0.22121 0.0
C913 C 0.12597 0.3368 0.19182 0.0
C914 C 0.0804 0.32149 0.24628 0.0
C915 C 0.07444 0.35031 0.26849 0.0
N916 N 0.11307 0.33326 0.21183 0.0
N917 N 0.08965 0.35514 0.2517 0.0
H918 H 0.62205 0.71016 0.27285 0.0
H919 H 0.6965 0.80241 0.18563 0.0
H920 H 0.6844 0.73723 0.27938 0.0
H921 H 0.63422 0.77326 0.17845 0.0
H922 H 0.69275 0.78134 0.22367 0.0
H923 H 0.62656 0.73492 0.24075 0.0
C924 C 0.63673 0.72124 0.26745 0.0
C925 C 0.65286 0.72149 0.27887 0.0
C926 C 0.6799 0.77983 0.21416 0.0
C927 C 0.65813 0.7502 0.24205 0.0
C928 C 0.68206 0.79203 0.19277 0.0
C929 C 0.66562 0.78966 0.17934 0.0
C930 C 0.66116 0.76512 0.22188 0.0
C931 C 0.6472 0.77565 0.18865 0.0
C932 C 0.63929 0.73548 0.24916 0.0
C933 C 0.6715 0.73634 0.27103 0.0
N934 N 0.64546 0.7638 0.2092 0.0
N935 N 0.67363 0.75009 0.2531 0.0
H936 H 0.24754 0.95408 0.2749 0.0
H937 H 0.23278 0.8581 0.19725 0.0
H938 H 0.28472 0.93033 0.28772 0.0
H939 H 0.20237 0.88803 0.1779 0.0
H940 H 0.24808 0.88071 0.23602 0.0
H941 H 0.22776 0.92691 0.24405 0.0
C942 C 0.25163 0.94319 0.27121 0.0
C943 C 0.26799 0.94466 0.28385 0.0
C944 C 0.23775 0.88206 0.22361 0.0
C945 C 0.24512 0.91322 0.24838 0.0
C946 C 0.22886 0.86903 0.20178 0.0
C947 C 0.21631 0.87128 0.18461 0.0
C948 C 0.23398 0.89734 0.22811 0.0
C949 C 0.21193 0.88585 0.19083 0.0
C950 C 0.24022 0.92758 0.25359 0.0
C951 C 0.27237 0.92992 0.27827 0.0
N952 N 0.2209 0.89845 0.21194 0.0
N953 N 0.26101 0.91483 0.26086 0.0
H954 H 0.63898 0.9347 0.27384 0.0
H955 H 0.67993 0.87633 0.19209 0.0
H956 H 0.69677 0.94391 0.28059 0.0
H957 H 0.62394 0.86928 0.17405 0.0
H958 H 0.68221 0.89514 0.2321 0.0
H959 H 0.63004 0.90632 0.24342 0.0
C960 C 0.64971 0.93071 0.26907 0.0
C961 C 0.66876 0.94193 0.27928 0.0
C962 C 0.66927 0.88932 0.21961 0.0
C963 C 0.6586 0.9095 0.24522 0.0
C964 C 0.66778 0.87819 0.19678 0.0
C965 C 0.65183 0.87136 0.17913 0.0
C966 C 0.65495 0.89409 0.22477 0.0
C967 C 0.6368 0.87474 0.18657 0.0
C968 C 0.6446 0.91452 0.25182 0.0
C969 C 0.68205 0.93602 0.27272 0.0
N970 N 0.63891 0.88624 0.20854 0.0
N971 N 0.67673 0.92033 0.2561 0.0
H972 H 0.04782 0.71049 0.26812 0.0
H973 H 0.14843 0.79212 0.21046 0.0
H974 H 0.10052 0.71931 0.30478 0.0
H975 H 0.10247 0.74903 0.15844 0.0
H976 H 0.13072 0.77197 0.24945 0.0
H977 H 0.0672 0.73203 0.23139 0.0
C978 C 0.06346 0.71704 0.26847 0.0
C979 C 0.0726 0.71298 0.28924 0.0
C980 C 0.12463 0.76718 0.22936 0.0
C981 C 0.09474 0.73789 0.24796 0.0
C982 C 0.1347 0.77858 0.20715 0.0
C983 C 0.12675 0.77266 0.18104 0.0
C984 C 0.10641 0.75005 0.22537 0.0
C985 C 0.10887 0.75483 0.17811 0.0
C986 C 0.07446 0.72926 0.2476 0.0
C987 C 0.09294 0.72189 0.28885 0.0
N988 N 0.09923 0.74437 0.19996 0.0
N989 N 0.10341 0.73408 0.26857 0.0
H990 H 0.27061 0.33116 0.28345 0.0
H991 H 0.25046 0.39201 0.17488 0.0
H992 H 0.30254 0.39454 0.28033 0.0
H993 H 0.21231 0.32975 0.1853 0.0
H994 H 0.26929 0.39315 0.21426 0.0
H995 H 0.24925 0.33003 0.24732 0.0
C996 C 0.27323 0.34483 0.2751 0.0
C997 C 0.28845 0.36298 0.28499 0.0
C998 C 0.25666 0.37926 0.20823 0.0
C999 C 0.26394 0.36177 0.24381 0.0
C1000 C 0.24586 0.37865 0.18586 0.0
C1001 C 0.2298 0.36079 0.17697 0.0
C1002 C 0.25156 0.36181 0.22161 0.0
C1003 C 0.22448 0.34385 0.19173 0.0
C1004 C 0.26093 0.34417 0.25461 0.0
C1005 C 0.29102 0.3802 0.27346 0.0
N1006 N 0.23548 0.34472 0.21317 0.0
N1007 N 0.27894 0.37915 0.25352 0.0
H1008 H 0.26099 0.31362 0.39529 0.0
H1009 H 0.21943 0.34672 0.51884 0.0
H1010 H 0.28629 0.37357 0.42445 0.0
H1011 H 0.18912 0.28802 0.48462 0.0
H1012 H 0.24307 0.35704 0.48245 0.0
H1013 H 0.23411 0.3038 0.42685 0.0
C1014 C 0.26097 0.32471 0.40835 0.0
C1015 C 0.27602 0.34446 0.40721 0.0
C1016 C 0.23111 0.34196 0.48256 0.0
C1017 C 0.24521 0.33333 0.44316 0.0
C1018 C 0.21756 0.33613 0.50322 0.0
C1019 C 0.20234 0.31655 0.50457 0.0
C1020 C 0.22963 0.32801 0.46332 0.0
C1021 C 0.20058 0.30331 0.48405 0.0
C1022 C 0.24554 0.3191 0.42622 0.0
C1023 C 0.27509 0.35817 0.42453 0.0
N1024 N 0.21425 0.30922 0.46442 0.0
N1025 N 0.26002 0.35234 0.44176 0.0
H1026 H 0.71187 0.95245 0.37422 0.0
H1027 H 0.68976 0.92261 0.52564 0.0
H1028 H 0.67086 0.96147 0.41914 0.0
H1029 H 0.69564 0.88404 0.4688 0.0
H1030 H 0.6885 0.94133 0.48842 0.0
H1031 H 0.71165 0.93156 0.41019 0.0
C1032 C 0.70291 0.95013 0.39175 0.0
C1033 C 0.69146 0.95883 0.39384 0.0
C1034 C 0.68992 0.92868 0.48411 0.0
C1035 C 0.69135 0.93514 0.43498 0.0
C1036 C 0.69048 0.91778 0.50534 0.0
C1037 C 0.69213 0.90114 0.50049 0.0
C1038 C 0.6917 0.92347 0.45767 0.0
C1039 C 0.69421 0.8966 0.47362 0.0
C1040 C 0.70269 0.93809 0.41208 0.0
C1041 C 0.67992 0.95508 0.41678 0.0
N1042 N 0.694 0.90776 0.45316 0.0
N1043 N 0.68035 0.94372 0.43667 0.0
H1044 H 0.05 0.73401 0.41061 0.0
H1045 H 0.14964 0.78699 0.4946 0.0
H1046 H 0.09255 0.71604 0.41152 0.0
H1047 H 0.10353 0.79881 0.50988 0.0
H1048 H 0.13129 0.76615 0.4564 0.0
H1049 H 0.0711 0.76164 0.44118 0.0
C1050 C 0.06369 0.73581 0.41723 0.0
C1051 C 0.06938 0.72252 0.40869 0.0
C1052 C 0.12525 0.77348 0.46788 0.0
C1053 C 0.09364 0.75421 0.44298 0.0
C1054 C 0.13589 0.78568 0.48952 0.0
C1055 C 0.12803 0.79451 0.50576 0.0
C1056 C 0.10651 0.7699 0.46248 0.0
C1057 C 0.10995 0.79195 0.49822 0.0
C1058 C 0.07574 0.75161 0.43454 0.0
C1059 C 0.08736 0.72569 0.41775 0.0
N1060 N 0.09963 0.77961 0.47734 0.0
N1061 N 0.09879 0.74116 0.43432 0.0
H1062 H 0.36986 0.08792 0.72898 0.0
H1063 H 0.32956 0.12423 0.85019 0.0
H1064 H 0.30926 0.0607 0.75031 0.0
H1065 H 0.38955 0.15595 0.82604 0.0
H1066 H 0.32165 0.10249 0.81077 0.0
H1067 H 0.37756 0.11398 0.76269 0.0
C1068 C 0.3582 0.08735 0.74078 0.0
C1069 C 0.33889 0.07201 0.73685 0.0
C1070 C 0.33651 0.11439 0.81372 0.0
C1071 C 0.34756 0.10184 0.77509 0.0
C1072 C 0.34094 0.12687 0.83606 0.0
C1073 C 0.36015 0.14184 0.84109 0.0
C1074 C 0.3515 0.11668 0.79657 0.0
C1075 C 0.37452 0.14462 0.82254 0.0
C1076 C 0.36259 0.10231 0.75984 0.0
C1077 C 0.32437 0.07215 0.75256 0.0
N1078 N 0.36996 0.13192 0.80121 0.0
N1079 N 0.32902 0.08677 0.77096 0.0
H1080 H 0.9477 0.26883 0.73222 0.0
H1081 H 0.86822 0.23612 0.8476 0.0
H1082 H 0.91398 0.29655 0.746 0.0
H1083 H 0.89329 0.20166 0.82249 0.0
H1084 H 0.88422 0.25807 0.80991 0.0
H1085 H 0.92843 0.24458 0.76601 0.0
C1086 C 0.93639 0.26997 0.74252 0.0
C1087 C 0.93251 0.28483 0.73622 0.0
C1088 C 0.88597 0.24553 0.81232 0.0
C1089 C 0.91018 0.25687 0.77475 0.0
C1090 C 0.87672 0.23293 0.83366 0.0
C1091 C 0.87942 0.21708 0.83798 0.0
C1092 C 0.89827 0.24241 0.79547 0.0
C1093 C 0.8907 0.21363 0.81961 0.0
C1094 C 0.92525 0.25597 0.76163 0.0
C1095 C 0.91753 0.2854 0.75015 0.0
N1096 N 0.89996 0.22638 0.79934 0.0
N1097 N 0.90694 0.27164 0.76877 0.0
H1098 H 0.70009 0.61192 0.72758 0.0
H1099 H 0.78399 0.67325 0.83614 0.0
H1100 H 0.72794 0.675 0.73676 0.0
H1101 H 0.76287 0.61265 0.81443 0.0
H1102 H 0.76454 0.67489 0.79938 0.0
H1103 H 0.72274 0.61224 0.76029 0.0
C1104 C 0.71086 0.62587 0.73662 0.0
C1105 C 0.71205 0.64348 0.72926 0.0
C1106 C 0.76442 0.66134 0.80235 0.0
C1107 C 0.73835 0.64392 0.7668 0.0
C1108 C 0.77562 0.66044 0.82317 0.0
C1109 C 0.77501 0.64277 0.82833 0.0
C1110 C 0.75235 0.64436 0.78679 0.0
C1111 C 0.7639 0.62659 0.81103 0.0
C1112 C 0.72394 0.62604 0.75519 0.0
C1113 C 0.7264 0.66105 0.74182 0.0
N1114 N 0.75279 0.6277 0.7913 0.0
N1115 N 0.739 0.66082 0.75997 0.0
H1116 H 0.7269 0.63604 0.61046 0.0
H1117 H 0.80575 0.7185 0.51634 0.0
H1118 H 0.73858 0.69563 0.61195 0.0
H1119 H 0.79674 0.66025 0.52369 0.0
H1120 H 0.78423 0.71221 0.55481 0.0
H1121 H 0.75477 0.6461 0.58163 0.0
C1122 C 0.73531 0.65129 0.60465 0.0
C1123 C 0.73019 0.66495 0.61334 0.0
C1124 C 0.78731 0.70099 0.54831 0.0
C1125 C 0.7624 0.67666 0.58016 0.0
C1126 C 0.7996 0.70457 0.5264 0.0
C1127 C 0.80289 0.6898 0.51653 0.0
C1128 C 0.77818 0.68247 0.56028 0.0
C1129 C 0.79476 0.67213 0.53055 0.0
C1130 C 0.75138 0.65707 0.5883 0.0
C1131 C 0.74192 0.68457 0.60554 0.0
N1132 N 0.78257 0.66887 0.5514 0.0
N1133 N 0.75739 0.68982 0.5891 0.0
H1134 H 0.35982 0.07764 0.61204 0.0
H1135 H 0.31427 0.12734 0.52253 0.0
H1136 H 0.29922 0.0604 0.61322 0.0
H1137 H 0.37349 0.14105 0.51608 0.0
H1138 H 0.30978 0.10644 0.561 0.0
H1139 H 0.36605 0.10352 0.58056 0.0
C1140 C 0.34778 0.07918 0.60559 0.0
C1141 C 0.32892 0.06668 0.61525 0.0
C1142 C 0.3239 0.11437 0.55159 0.0
C1143 C 0.33606 0.09656 0.57945 0.0
C1144 C 0.32652 0.12651 0.52996 0.0
C1145 C 0.34432 0.13603 0.51653 0.0
C1146 C 0.33918 0.11164 0.55953 0.0
C1147 C 0.35963 0.1341 0.52628 0.0
C1148 C 0.35139 0.09407 0.58773 0.0
C1149 C 0.31397 0.06956 0.60625 0.0
N1150 N 0.35666 0.12194 0.54702 0.0
N1151 N 0.31787 0.08417 0.58889 0.0
H1152 H 0.94437 0.25593 0.62079 0.0
H1153 H 0.85928 0.21367 0.51208 0.0
H1154 H 0.90609 0.27852 0.60905 0.0
H1155 H 0.89198 0.18581 0.52943 0.0
H1156 H 0.87284 0.23428 0.55265 0.0
H1157 H 0.92325 0.22788 0.59115 0.0
C1158 C 0.93158 0.25503 0.61202 0.0
C1159 C 0.9272 0.2698 0.61717 0.0
C1160 C 0.8767 0.22332 0.54809 0.0
C1161 C 0.90286 0.23764 0.58357 0.0
C1162 C 0.86872 0.21139 0.52515 0.0
C1163 C 0.87449 0.19806 0.5177 0.0
C1164 C 0.8909 0.22219 0.56319 0.0
C1165 C 0.88708 0.19585 0.53482 0.0
C1166 C 0.91943 0.23893 0.59529 0.0
C1167 C 0.91025 0.26768 0.60551 0.0
N1168 N 0.89524 0.20814 0.55653 0.0
N1169 N 0.89883 0.25202 0.58916 0.0
H1170 H 0.30244 0.26737 0.60175 0.0
H1171 H 0.31462 0.18394 0.52834 0.0
H1172 H 0.34602 0.25394 0.62521 0.0
H1173 H 0.30501 0.22558 0.48616 0.0
H1174 H 0.31431 0.19989 0.57095 0.0
H1175 H 0.29121 0.24164 0.56627 0.0
C1176 C 0.30931 0.25869 0.59981 0.0
C1177 C 0.32536 0.26292 0.61593 0.0
C1178 C 0.31176 0.20503 0.5522 0.0
C1179 C 0.3124 0.23344 0.57626 0.0
C1180 C 0.31211 0.1961 0.52781 0.0
C1181 C 0.31022 0.20348 0.50313 0.0
C1182 C 0.30892 0.22105 0.552 0.0
C1183 C 0.30631 0.21892 0.5042 0.0
C1184 C 0.30292 0.24409 0.57967 0.0
C1185 C 0.3338 0.2513 0.61275 0.0
N1186 N 0.30594 0.22722 0.52814 0.0
N1187 N 0.32729 0.23712 0.59314 0.0
H1188 H 0.71303 0.03769 0.58838 0.0
H1189 H 0.81389 0.1211 0.53286 0.0
H1190 H 0.76614 0.04946 0.62723 0.0
H1191 H 0.76847 0.07882 0.47949 0.0
H1192 H 0.79598 0.10021 0.57114 0.0
H1193 H 0.73233 0.05877 0.55114 0.0
C1194 C 0.72872 0.04472 0.58905 0.0
C1195 C 0.73801 0.04168 0.61067 0.0
C1196 C 0.79005 0.09571 0.55094 0.0
C1197 C 0.76005 0.0661 0.5688 0.0
C1198 C 0.80026 0.10753 0.52911 0.0
C1199 C 0.79251 0.10208 0.50286 0.0
C1200 C 0.77188 0.07858 0.54645 0.0
C1201 C 0.77473 0.08421 0.49934 0.0
C1202 C 0.73968 0.05668 0.56788 0.0
C1203 C 0.75842 0.05122 0.61068 0.0
N1204 N 0.76493 0.07331 0.52085 0.0
N1205 N 0.76881 0.06317 0.59016 0.0
H1206 H 0.97063 0.72886 0.6145 0.0
H1207 H 0.87747 0.66071 0.52126 0.0
H1208 H 0.93843 0.66551 0.61842 0.0
H1209 H 0.91388 0.72352 0.51439 0.0
H1210 H 0.89712 0.66204 0.5601 0.0
H1211 H 0.94821 0.72694 0.58009 0.0
C1212 C 0.95888 0.71449 0.60806 0.0
C1213 C 0.95649 0.69731 0.61946 0.0
C1214 C 0.90062 0.67556 0.55033 0.0
C1215 C 0.93046 0.69503 0.57988 0.0
C1216 C 0.88927 0.67483 0.52844 0.0
C1217 C 0.89408 0.69206 0.51474 0.0
C1218 C 0.91682 0.69365 0.55851 0.0
C1219 C 0.90972 0.70992 0.52445 0.0
C1220 C 0.946 0.71342 0.58839 0.0
C1221 C 0.94093 0.67914 0.61013 0.0
N1222 N 0.92058 0.71024 0.54558 0.0
N1223 N 0.92848 0.67847 0.59091 0.0
H1224 H 0.95613 0.70979 0.75812 0.0
H1225 H 0.85586 0.62183 0.81457 0.0
H1226 H 0.93032 0.64973 0.7292 0.0
H1227 H 0.88695 0.68027 0.84959 0.0
H1228 H 0.88033 0.63254 0.77883 0.0
H1229 H 0.92883 0.69973 0.78831 0.0
C1230 C 0.94476 0.69444 0.75814 0.0
C1231 C 0.94564 0.68059 0.74107 0.0
C1232 C 0.88162 0.64309 0.79409 0.0
C1233 C 0.91405 0.66896 0.77571 0.0
C1234 C 0.86754 0.63705 0.81423 0.0
C1235 C 0.86945 0.65023 0.83493 0.0
C1236 C 0.89762 0.66244 0.79473 0.0
C1237 C 0.885 0.66969 0.83394 0.0
C1238 C 0.9291 0.68871 0.7754 0.0
C1239 C 0.93036 0.66091 0.7421 0.0
N1240 N 0.89855 0.67517 0.81433 0.0
N1241 N 0.91518 0.65568 0.75912 0.0
H1242 H 0.37074 0.27145 0.71268 0.0
H1243 H 0.35794 0.25618 0.8685 0.0
H1244 H 0.33449 0.28714 0.75789 0.0
H1245 H 0.36053 0.21271 0.8177 0.0
H1246 H 0.35384 0.27101 0.82873 0.0
H1247 H 0.3715 0.25303 0.75126 0.0
C1248 C 0.36293 0.27101 0.73076 0.0
C1249 C 0.35263 0.28096 0.73221 0.0
C1250 C 0.3551 0.25811 0.82632 0.0
C1251 C 0.35369 0.26011 0.77638 0.0
C1252 C 0.3573 0.24943 0.84906 0.0
C1253 C 0.35899 0.23262 0.84674 0.0
C1254 C 0.35524 0.25048 0.80075 0.0
C1255 C 0.3592 0.22552 0.82064 0.0
C1256 C 0.36328 0.26039 0.75263 0.0
C1257 C 0.3426 0.2797 0.75597 0.0
N1258 N 0.35745 0.23456 0.79861 0.0
N1259 N 0.34362 0.26971 0.77732 0.0
H1260 H 0.71438 0.06465 0.73655 0.0
H1261 H 0.815 0.12039 0.81724 0.0
H1262 H 0.76323 0.05676 0.72364 0.0
H1263 H 0.76651 0.12752 0.83756 0.0
H1264 H 0.79803 0.10253 0.77664 0.0
H1265 H 0.73447 0.09195 0.7683 0.0
C1266 C 0.72932 0.06874 0.74022 0.0
C1267 C 0.73702 0.05816 0.72792 0.0
C1268 C 0.79112 0.10817 0.78977 0.0
C1269 C 0.76002 0.08932 0.76364 0.0
C1270 C 0.80098 0.11868 0.81294 0.0
C1271 C 0.79211 0.1253 0.83126 0.0
C1272 C 0.77206 0.10386 0.78495 0.0
C1273 C 0.77371 0.12223 0.82442 0.0
C1274 C 0.74076 0.0843 0.75826 0.0
C1275 C 0.7565 0.06417 0.73314 0.0
N1276 N 0.76412 0.1114 0.80205 0.0
N1277 N 0.76723 0.07922 0.75065 0.0
H1278 H 0.07404 0.39807 0.01773 0.0
H1279 H 0.1186 0.33422 0.06864 0.0
H1280 H 0.03978 0.33661 0.03684 0.0
H1281 H 0.14369 0.39513 0.09226 0.0
H1282 H 0.09389 0.33623 0.04227 0.0
H1283 H 0.1035 0.39817 0.03216 0.0
C1284 C 0.07276 0.38461 0.02475 0.0
C1285 C 0.05448 0.36737 0.02647 0.0
C1286 C 0.10513 0.34929 0.05267 0.0
C1287 C 0.08791 0.36725 0.04204 0.0
C1288 C 0.11935 0.34822 0.06739 0.0
C1289 C 0.13317 0.36455 0.08256 0.0
C1290 C 0.10487 0.36686 0.05291 0.0
C1291 C 0.13326 0.38225 0.08075 0.0
C1292 C 0.08951 0.38468 0.03291 0.0
C1293 C 0.05357 0.35029 0.03558 0.0
N1294 N 0.11918 0.38291 0.06638 0.0
N1295 N 0.07004 0.35064 0.04294 0.0
H1296 H 0.62792 0.68768 0.00637 0.0
H1297 H 0.69673 0.78709 0.0896 0.0
H1298 H 0.67932 0.69905 0.0499 0.0
H1299 H 0.6367 0.76674 0.0719 0.0
H1300 H 0.69364 0.75862 0.06473 0.0
H1301 H 0.63367 0.71981 0.02143 0.0
C1302 C 0.64042 0.69695 0.01909 0.0
C1303 C 0.65307 0.69064 0.02713 0.0
C1304 C 0.68126 0.76061 0.06573 0.0
C1305 C 0.65989 0.72749 0.04395 0.0
C1306 C 0.68311 0.77696 0.07952 0.0
C1307 C 0.667 0.77926 0.08232 0.0
C1308 C 0.66314 0.74648 0.05479 0.0
C1309 C 0.64948 0.76554 0.06969 0.0
C1310 C 0.6437 0.71528 0.0276 0.0
C1311 C 0.6691 0.70327 0.04348 0.0
N1312 N 0.64795 0.74958 0.05659 0.0
N1313 N 0.67207 0.72113 0.05134 0.0
H1314 H 0.30803 0.93768 0.99307 0.0
H1315 H 0.2398 0.86083 0.07171 0.0
H1316 H 0.3028 0.97397 0.05438 0.0
H1317 H 0.22229 0.90164 0.09759 0.0
H1318 H 0.26475 0.88628 0.04361 0.0
H1319 H 0.27885 0.90906 0.01033 0.0
C1320 C 0.30077 0.93961 0.01025 0.0
C1321 C 0.30801 0.9582 0.02256 0.0
C1322 C 0.25509 0.88954 0.05475 0.0
C1323 C 0.27468 0.92543 0.04261 0.0
C1324 C 0.24076 0.87493 0.07076 0.0
C1325 C 0.22905 0.87915 0.08721 0.0
C1326 C 0.25774 0.90851 0.0553 0.0
C1327 C 0.23121 0.89785 0.08554 0.0
C1328 C 0.28416 0.92321 0.0202 0.0
C1329 C 0.29786 0.95988 0.04448 0.0
N1330 N 0.24553 0.91193 0.07034 0.0
N1331 N 0.28171 0.9437 0.0538 0.0
H1332 H 0.33178 0.03466 0.96763 0.0
H1333 H 0.39907 0.14858 0.944 0.0
H1334 H 0.38992 0.06723 0.00067 0.0
H1335 H 0.33676 0.11693 0.93501 0.0
H1336 H 0.39655 0.12049 0.96794 0.0
H1337 H 0.33371 0.06544 0.95717 0.0
C1338 C 0.34499 0.04834 0.97272 0.0
C1339 C 0.36078 0.04836 0.98483 0.0
C1340 C 0.3834 0.11992 0.9614 0.0
C1341 C 0.36316 0.08392 0.97277 0.0
C1342 C 0.38483 0.13603 0.94803 0.0
C1343 C 0.36809 0.135 0.93755 0.0
C1344 C 0.36512 0.10268 0.96392 0.0
C1345 C 0.35 0.11826 0.94279 0.0
C1346 C 0.34605 0.06597 0.96691 0.0
C1347 C 0.37745 0.06658 0.99123 0.0
N1348 N 0.34903 0.10267 0.95517 0.0
N1349 N 0.37832 0.08366 0.98478 0.0
H1350 H 0.94638 0.31695 0.00302 0.0
H1351 H 0.91435 0.21427 0.92936 0.0
H1352 H 0.98623 0.30497 0.96024 0.0
H1353 H 0.87534 0.23574 0.94254 0.0
H1354 H 0.94024 0.24364 0.95271 0.0
H1355 H 0.91982 0.28389 0.99121 0.0
C1356 C 0.94954 0.30736 0.9911 0.0
C1357 C 0.96849 0.31376 0.9823 0.0
C1358 C 0.92586 0.24165 0.95115 0.0
C1359 C 0.93823 0.27582 0.96929 0.0
C1360 C 0.91104 0.22477 0.93831 0.0
C1361 C 0.89275 0.22263 0.93441 0.0
C1362 C 0.9222 0.25631 0.96018 0.0
C1363 C 0.88924 0.23685 0.94555 0.0
C1364 C 0.93439 0.28849 0.98449 0.0
C1365 C 0.97177 0.30068 0.9671 0.0
N1366 N 0.90392 0.25324 0.95775 0.0
N1367 N 0.95676 0.28226 0.96107 0.0
H1368 H 0.67815 0.61081 -0.00155 0.0
H1369 H 0.77983 0.67168 0.92251 0.0
H1370 H 0.69946 0.66703 0.96151 0.0
H1371 H 0.75194 0.60933 0.9348 0.0
H1372 H 0.75438 0.67234 0.94888 0.0
H1373 H 0.70824 0.61185 0.98517 0.0
C1374 C 0.68915 0.62336 0.98762 0.0
C1375 C 0.68621 0.63874 0.98074 0.0
C1376 C 0.75403 0.65857 0.94633 0.0
C1377 C 0.72069 0.64022 0.96617 0.0
C1378 C 0.76867 0.65825 0.93158 0.0
C1379 C 0.76786 0.6404 0.92633 0.0
C1380 C 0.7384 0.64091 0.95582 0.0
C1381 C 0.75309 0.62339 0.93846 0.0
C1382 C 0.70631 0.62397 0.98016 0.0
C1383 C 0.70098 0.65472 0.9669 0.0
N1384 N 0.73869 0.62397 0.95227 0.0
N1385 N 0.71754 0.65504 0.9601 0.0
H1386 H 0.96597 0.67497 0.97773 0.0
H1387 H 0.8565 0.60594 0.93353 0.0
H1388 H 0.93391 0.61391 -0.00067 0.0
H1389 H 0.88632 0.66919 0.93396 0.0
H1390 H 0.88262 0.60791 0.96175 0.0
H1391 H 0.93575 0.67282 0.96473 0.0
C1392 C 0.95248 0.66107 0.97982 0.0
C1393 C 0.95246 0.64453 0.98932 0.0
C1394 C 0.88316 0.62134 0.95633 0.0
C1395 C 0.91756 0.64186 0.97418 0.0
C1396 C 0.86816 0.62021 0.94049 0.0
C1397 C 0.86936 0.63744 0.9314 0.0
C1398 C 0.89946 0.63983 0.9628 0.0
C1399 C 0.88493 0.65557 0.94051 0.0
C1400 C 0.93516 0.65987 0.97255 0.0
C1401 C 0.93452 0.62698 0.99196 0.0
N1402 N 0.8995 0.65629 0.95529 0.0
N1403 N 0.91776 0.62599 0.98398 0.0
H1404 H 0.32903 0.30256 0.9644 0.0
H1405 H 0.32062 0.2144 0.93565 0.0
H1406 H 0.37656 0.31515 0.0179 0.0
H1407 H 0.38117 0.24448 0.95851 0.0
H1408 H 0.31693 0.23874 0.96173 0.0
H1409 H 0.3244 0.27022 0.9547 0.0
C1410 C 0.33837 0.29841 0.97432 0.0
C1411 C 0.35332 0.31161 0.99176 0.0
C1412 C 0.33098 0.2399 0.96133 0.0
C1413 C 0.34778 0.27428 0.98141 0.0
C1414 C 0.33297 0.22576 0.94694 0.0
C1415 C 0.35134 0.22776 0.94436 0.0
C1416 C 0.34754 0.25618 0.97292 0.0
C1417 C 0.3668 0.24254 0.95969 0.0
C1418 C 0.3355 0.27976 0.96916 0.0
C1419 C 0.36494 0.30544 0.00418 0.0
N1420 N 0.36468 0.25651 0.97279 0.0
N1421 N 0.36212 0.28732 -0.00157 0.0
H1422 H 0.69286 0.06992 0.0057 0.0
H1423 H 0.79325 0.09833 0.93483 0.0
H1424 H 0.70511 0.02718 0.97106 0.0
H1425 H 0.76763 0.13432 0.92782 0.0
H1426 H 0.76533 0.07502 0.96167 0.0
H1427 H 0.72435 0.09634 0.98919 0.0
C1428 C 0.70223 0.06612 0.99479 0.0
C1429 C 0.69636 0.04639 0.98946 0.0
C1430 C 0.76608 0.08827 0.9548 0.0
C1431 C 0.73236 0.07633 0.97134 0.0
C1432 C 0.78207 0.10165 0.93984 0.0
C1433 C 0.78269 0.11824 0.92938 0.0
C1434 C 0.75078 0.09169 0.95951 0.0
C1435 C 0.76765 0.12172 0.93579 0.0
C1436 C 0.72012 0.08115 0.98544 0.0
C1437 C 0.70902 0.04222 0.9753 0.0
N1438 N 0.7522 0.10847 0.95038 0.0
N1439 N 0.72647 0.05707 0.96681 0.0
H1440 H 0.61464 0.93911 0.01972 0.0
H1441 H 0.68065 0.89743 0.07243 0.0
H1442 H 0.67501 0.97507 0.04285 0.0
H1443 H 0.61901 0.86755 0.08699 0.0
H1444 H 0.67821 0.92247 0.04756 0.0
H1445 H 0.61567 0.90966 0.03211 0.0
C1446 C 0.6281 0.94078 0.02719 0.0
C1447 C 0.64469 0.95953 0.03064 0.0
C1448 C 0.66514 0.91017 0.05566 0.0
C1449 C 0.6461 0.92614 0.04401 0.0
C1450 C 0.66648 0.89576 0.06953 0.0
C1451 C 0.65 0.88044 0.08178 0.0
C1452 C 0.64717 0.90918 0.05386 0.0
C1453 C 0.63205 0.87919 0.07784 0.0
C1454 C 0.62868 0.92403 0.0342 0.0
C1455 C 0.6618 0.96091 0.04027 0.0
N1456 N 0.63111 0.8935 0.06443 0.0
N1457 N 0.66207 0.94448 0.04655 0.0
H1458 H 0.06086 0.70044 -0.0022 0.0
H1459 H 0.09875 0.79026 0.10288 0.0
H1460 H 0.02463 0.7065 0.05696 0.0
H1461 H 0.13586 0.7729 0.06372 0.0
H1462 H 0.07148 0.76605 0.07495 0.0
H1463 H 0.08808 0.73246 0.01217 0.0
C1464 C 0.0586 0.70854 0.01376 0.0
C1465 C 0.04053 0.70065 0.02654 0.0
C1466 C 0.08572 0.76793 0.07201 0.0
C1467 C 0.07157 0.73747 0.0427 0.0
C1468 C 0.10133 0.78186 0.08773 0.0
C1469 C 0.11948 0.7832 0.08618 0.0
C1470 C 0.08841 0.7555 0.05438 0.0
C1471 C 0.12211 0.77226 0.06584 0.0
C1472 C 0.07413 0.72686 0.02183 0.0
C1473 C 0.03839 0.71192 0.04685 0.0
N1474 N 0.10662 0.75854 0.05112 0.0
N1475 N 0.05378 0.72973 0.05443 0.0
H1476 H 0.33029 0.3957 0.01168 0.0
H1477 H 0.2215 0.33345 0.06597 0.0
H1478 H 0.30215 0.33496 0.03448 0.0
H1479 H 0.25897 0.39477 0.08704 0.0
H1480 H 0.24751 0.33486 0.03829 0.0
H1481 H 0.30084 0.39615 0.02494 0.0
C1482 C 0.31784 0.38244 0.01914 0.0
C1483 C 0.31864 0.36534 0.02239 0.0
C1484 C 0.24982 0.34813 0.0484 0.0
C1485 C 0.28507 0.3656 0.03664 0.0
C1486 C 0.23494 0.3474 0.0639 0.0
C1487 C 0.23819 0.36401 0.07884 0.0
C1488 C 0.26795 0.36563 0.04765 0.0
C1489 C 0.256 0.38165 0.07585 0.0
C1490 C 0.30113 0.38271 0.02665 0.0
C1491 C 0.30218 0.34851 0.03206 0.0
N1492 N 0.27035 0.38197 0.0608 0.0
N1493 N 0.28605 0.34905 0.03882 0.0
H1494 H 0.73767 0.7298 0.35487 0.0
H1495 H 0.78239 0.6662 0.40654 0.0
H1496 H 0.70354 0.66827 0.37368 0.0
H1497 H 0.80801 0.72746 0.42853 0.0
H1498 H 0.75734 0.66793 0.38063 0.0
H1499 H 0.76711 0.73004 0.36981 0.0
C1500 C 0.73641 0.71636 0.36198 0.0
C1501 C 0.71816 0.69905 0.3634 0.0
C1502 C 0.76873 0.6811 0.3906 0.0
C1503 C 0.75159 0.6991 0.37958 0.0
C1504 C 0.78315 0.68019 0.40506 0.0
C1505 C 0.79726 0.69673 0.4196 0.0
C1506 C 0.76856 0.69872 0.39048 0.0
C1507 C 0.79735 0.71442 0.41751 0.0
C1508 C 0.75315 0.71651 0.37043 0.0
C1509 C 0.71729 0.68201 0.37263 0.0
N1510 N 0.7831 0.71493 0.4034 0.0
N1511 N 0.73375 0.68244 0.38027 0.0
H1512 H 0.30238 0.03072 0.34426 0.0
H1513 H 0.373 0.12665 0.43293 0.0
H1514 H 0.35176 0.03842 0.38961 0.0
H1515 H 0.31711 0.11396 0.40374 0.0
H1516 H 0.36868 0.09756 0.40859 0.0
H1517 H 0.31019 0.06363 0.35892 0.0
C1518 C 0.31487 0.03933 0.35733 0.0
C1519 C 0.32636 0.03177 0.36595 0.0
C1520 C 0.3575 0.1013 0.40702 0.0
C1521 C 0.33551 0.06952 0.38241 0.0
C1522 C 0.36009 0.11802 0.42059 0.0
C1523 C 0.34541 0.12263 0.42012 0.0
C1524 C 0.34003 0.08903 0.39306 0.0
C1525 C 0.32881 0.11092 0.40428 0.0
C1526 C 0.31934 0.05813 0.36559 0.0
C1527 C 0.34241 0.04361 0.38271 0.0
N1528 N 0.32642 0.09444 0.3916 0.0
N1529 N 0.34651 0.0619 0.3904 0.0
H1530 H 0.98303 0.31207 0.4019 0.0
H1531 H 0.88754 0.20651 0.38964 0.0
H1532 H 0.97022 0.27879 0.32722 0.0
H1533 H 0.92305 0.22861 0.46169 0.0
H1534 H 0.91366 0.23429 0.36474 0.0
H1535 H 0.95595 0.28344 0.42298 0.0
C1536 C 0.9744 0.2988 0.38986 0.0
C1537 C 0.97893 0.29775 0.36284 0.0
C1538 C 0.91557 0.2329 0.38602 0.0
C1539 C 0.94787 0.26498 0.38679 0.0
C1540 C 0.90077 0.21707 0.40017 0.0
C1541 C 0.90284 0.21548 0.42798 0.0
C1542 C 0.9323 0.24723 0.39996 0.0
C1543 C 0.92039 0.22956 0.44055 0.0
C1544 C 0.95903 0.28244 0.40193 0.0
C1545 C 0.96725 0.28013 0.3482 0.0
N1546 N 0.93424 0.2449 0.42659 0.0
N1547 N 0.95217 0.26438 0.36034 0.0
H1548 H 0.02944 0.37735 0.27386 0.0
H1549 H 0.02819 0.47178 0.2914 0.0
H1550 H 0.0445 0.4014 0.35481 0.0
H1551 H 0.06738 0.46966 0.23379 0.0
H1552 H 0.02832 0.44516 0.31642 0.0
H1553 H 0.0362 0.40935 0.25818 0.0
C1554 C 0.03411 0.38938 0.28833 0.0
C1555 C 0.03651 0.38682 0.31561 0.0
C1556 C 0.03738 0.45107 0.29881 0.0
C1557 C 0.04383 0.42321 0.2979 0.0
C1558 C 0.03744 0.4663 0.28472 0.0
C1559 C 0.0479 0.47292 0.26068 0.0
C1560 C 0.04741 0.44227 0.28817 0.0
C1561 C 0.05924 0.46499 0.25236 0.0
C1562 C 0.03804 0.40759 0.27937 0.0
C1563 C 0.04266 0.40291 0.33356 0.0
N1564 N 0.05829 0.44973 0.26565 0.0
N1565 N 0.04587 0.42047 0.32446 0.0
H1566 H 0.6544 0.63902 0.28956 0.0
H1567 H 0.54175 0.5605 0.27661 0.0
H1568 H 0.61117 0.64394 0.33524 0.0
H1569 H 0.58622 0.54905 0.25014 0.0
H1570 H 0.56658 0.59016 0.30071 0.0
H1571 H 0.62945 0.60567 0.27547 0.0
C1572 C 0.63964 0.6331 0.29652 0.0
C1573 C 0.6348 0.64428 0.31341 0.0
C1574 C 0.57086 0.58088 0.29027 0.0
C1575 C 0.60622 0.60614 0.29759 0.0
C1576 C 0.55666 0.56385 0.27688 0.0
C1577 C 0.56204 0.55231 0.26187 0.0
C1578 C 0.59054 0.58651 0.28797 0.0
C1579 C 0.58158 0.55751 0.26194 0.0
C1580 C 0.62544 0.61401 0.2887 0.0
C1581 C 0.6155 0.63583 0.32209 0.0
N1582 N 0.59521 0.57442 0.27441 0.0
N1583 N 0.60188 0.61732 0.31392 0.0
H1584 H 0.36856 0.00591 0.29481 0.0
H1585 H 0.41794 0.94274 0.26754 0.0
H1586 H 0.34832 0.95039 0.33324 0.0
H1587 H 0.44447 0.00399 0.24834 0.0
H1588 H 0.39377 0.9454 0.29482 0.0
H1589 H 0.39708 0.00541 0.27916 0.0
C1590 C 0.3701 0.99356 0.29992 0.0
C1591 C 0.35593 0.97807 0.31513 0.0
C1592 C 0.40516 0.95837 0.28517 0.0
C1593 C 0.38875 0.97741 0.29726 0.0
C1594 C 0.41909 0.95691 0.26987 0.0
C1595 C 0.4331 0.97315 0.25554 0.0
C1596 C 0.40524 0.97614 0.28585 0.0
C1597 C 0.43378 0.99109 0.2589 0.0
C1598 C 0.38651 0.99336 0.29115 0.0
C1599 C 0.35886 0.96257 0.32141 0.0
N1600 N 0.41985 0.99201 0.2733 0.0
N1601 N 0.37486 0.96252 0.31219 0.0
H1602 H 0.59861 0.94553 0.3351 0.0
H1603 H 0.55154 0.00225 0.26665 0.0
H1604 H 0.63024 0.00494 0.30646 0.0
H1605 H 0.52227 0.93903 0.26678 0.0
H1606 H 0.57732 0.00398 0.29489 0.0
H1607 H 0.56795 0.94346 0.32177 0.0
C1608 C 0.59908 0.95816 0.3263 0.0
C1609 C 0.61695 0.97533 0.3215 0.0
C1610 C 0.56505 0.9897 0.28928 0.0
C1611 C 0.58222 0.97325 0.30692 0.0
C1612 C 0.55026 0.98872 0.27344 0.0
C1613 C 0.53488 0.97048 0.26433 0.0
C1614 C 0.56458 0.97231 0.29587 0.0
C1615 C 0.5339 0.95337 0.27352 0.0
C1616 C 0.58165 0.95698 0.31874 0.0
C1617 C 0.6168 0.9913 0.31014 0.0
N1618 N 0.54879 0.95467 0.28842 0.0
N1619 N 0.59977 0.98986 0.30325 0.0
H1620 H 0.99655 0.64016 0.28491 0.0
H1621 H 0.01607 0.55136 0.27865 0.0
H1622 H 0.02805 0.63283 0.3496 0.0
H1623 H 0.02138 0.58783 0.2115 0.0
H1624 H 0.01094 0.57357 0.30844 0.0
H1625 H 0.99441 0.61179 0.26143 0.0
C1626 C 1.00283 0.63245 0.29432 0.0
C1627 C 0.01284 0.63906 0.31894 0.0
C1628 C 0.01288 0.57625 0.28701 0.0
C1629 C 0.01027 0.60656 0.29232 0.0
C1630 C 0.01588 0.5637 0.27003 0.0
C1631 C 0.01867 0.56725 0.24222 0.0
C1632 C 0.01233 0.59211 0.27589 0.0
C1633 C 0.01838 0.58364 0.23236 0.0
C1634 C 1.00156 0.61627 0.28095 0.0
C1635 C 0.02049 0.62835 0.33038 0.0
N1636 N 0.01513 0.59525 0.24908 0.0
N1637 N 0.01922 0.61264 0.31682 0.0
H1638 H 0.36933 0.36157 0.30163 0.0
H1639 H 0.46131 0.43731 0.27673 0.0
H1640 H 0.36016 0.40353 0.34562 0.0
H1641 H 0.4338 0.47186 0.27595 0.0
H1642 H 0.43386 0.41214 0.30204 0.0
H1643 H 0.40165 0.38814 0.2893 0.0
C1644 C 0.37417 0.37638 0.30879 0.0
C1645 C 0.36207 0.38039 0.32461 0.0
C1646 C 0.43397 0.42536 0.29666 0.0
C1647 C 0.3992 0.41083 0.31103 0.0
C1648 C 0.44983 0.43994 0.28273 0.0
C1649 C 0.4497 0.45658 0.27395 0.0
C1650 C 0.4179 0.42748 0.30178 0.0
C1651 C 0.43432 0.45911 0.28211 0.0
C1652 C 0.39275 0.3915 0.30211 0.0
C1653 C 0.36909 0.39985 0.33339 0.0
N1654 N 0.41885 0.44454 0.29526 0.0
N1655 N 0.38712 0.41444 0.32614 0.0
H1656 H 0.28039 0.27283 0.34659 0.0
H1657 H 0.34611 0.23155 0.40123 0.0
H1658 H 0.33919 0.30843 0.37655 0.0
H1659 H 0.28355 0.19801 0.4063 0.0
H1660 H 0.34401 0.25707 0.37759 0.0
H1661 H 0.28169 0.24312 0.35629 0.0
C1662 C 0.29356 0.27438 0.35507 0.0
C1663 C 0.30961 0.29308 0.36115 0.0
C1664 C 0.33071 0.24391 0.38332 0.0
C1665 C 0.31137 0.25943 0.37142 0.0
C1666 C 0.33186 0.22916 0.39646 0.0
C1667 C 0.31497 0.21267 0.40602 0.0
C1668 C 0.31254 0.24218 0.3796 0.0
C1669 C 0.29694 0.2106 0.39954 0.0
C1670 C 0.29429 0.25749 0.36051 0.0
C1671 C 0.32637 0.29432 0.37193 0.0
N1672 N 0.29618 0.22536 0.38708 0.0
N1673 N 0.32681 0.27776 0.37666 0.0
H1674 H 0.72514 0.03233 0.32532 0.0
H1675 H 0.76465 0.12342 0.42803 0.0
H1676 H 0.69001 0.04017 0.38447 0.0
H1677 H 0.80116 0.10659 0.38596 0.0
H1678 H 0.73698 0.09955 0.40043 0.0
H1679 H 0.75244 0.06497 0.33729 0.0
C1680 C 0.72313 0.04096 0.34075 0.0
C1681 C 0.70539 0.03339 0.3543 0.0
C1682 C 0.75117 0.1015 0.39671 0.0
C1683 C 0.7365 0.07086 0.36776 0.0
C1684 C 0.76701 0.11528 0.41222 0.0
C1685 C 0.78509 0.11656 0.4098 0.0
C1686 C 0.75355 0.08913 0.37854 0.0
C1687 C 0.78744 0.10592 0.38875 0.0
C1688 C 0.7387 0.05962 0.34744 0.0
C1689 C 0.70354 0.04532 0.37383 0.0
N1690 N 0.77171 0.09226 0.37436 0.0
N1691 N 0.71897 0.06342 0.38015 0.0
H1692 H 0.96589 0.6635 0.37763 0.0
H1693 H 0.92501 0.7282 0.42709 0.0
H1694 H 0.99674 0.72505 0.35846 0.0
H1695 H 0.88736 0.66751 0.40304 0.0
H1696 H 0.95147 0.72877 0.40135 0.0
H1697 H 0.93716 0.66535 0.38812 0.0
C1698 C 0.96661 0.67744 0.3757 0.0
C1699 C 0.98375 0.69422 0.36748 0.0
C1700 C 0.93724 0.71554 0.401 0.0
C1701 C 0.95089 0.69643 0.37945 0.0
C1702 C 0.92215 0.71524 0.41553 0.0
C1703 C 0.90406 0.69775 0.41723 0.0
C1704 C 0.93426 0.6981 0.38877 0.0
C1705 C 0.90107 0.6813 0.40215 0.0
C1706 C 0.95014 0.67843 0.38137 0.0
C1707 C 0.9838 0.71183 0.3649 0.0
N1708 N 0.91618 0.68171 0.3891 0.0
N1709 N 0.96767 0.71259 0.37134 0.0
H1710 H 0.41141 0.07028 0.6874 0.0
H1711 H 0.45508 0.0054 0.73719 0.0
H1712 H 0.37666 0.00881 0.70626 0.0
H1713 H 0.48083 0.06635 0.76103 0.0
H1714 H 0.43046 0.00775 0.71114 0.0
H1715 H 0.44071 0.06998 0.70155 0.0
C1716 C 0.40998 0.05673 0.69433 0.0
C1717 C 0.39161 0.0396 0.69603 0.0
C1718 C 0.44182 0.02074 0.7215 0.0
C1719 C 0.42487 0.03904 0.71128 0.0
C1720 C 0.45601 0.01948 0.73603 0.0
C1721 C 0.46998 0.03573 0.75118 0.0
C1722 C 0.44176 0.03842 0.72193 0.0
C1723 C 0.47028 0.05353 0.7495 0.0
C1724 C 0.42664 0.05657 0.70232 0.0
C1725 C 0.39052 0.0224 0.70501 0.0
N1726 N 0.45623 0.05439 0.73534 0.0
N1727 N 0.40691 0.02254 0.71222 0.0
H1728 H 0.9628 0.35741 0.67078 0.0
H1729 H 0.03115 0.45505 0.75758 0.0
H1730 H 0.01361 0.36776 0.71498 0.0
H1731 H 0.97235 0.43689 0.73512 0.0
H1732 H 0.02831 0.42697 0.73203 0.0
H1733 H 0.96912 0.38977 0.68561 0.0
C1734 C 0.97532 0.36651 0.68357 0.0
C1735 C 0.9876 0.35983 0.69193 0.0
C1736 C 0.01617 0.42934 0.73215 0.0
C1737 C 0.99503 0.39692 0.70857 0.0
C1738 C 0.01788 0.44547 0.74638 0.0
C1739 C 1.00201 0.44824 0.74806 0.0
C1740 C 0.9984 0.41587 0.71971 0.0
C1741 C 0.98495 0.43528 0.73387 0.0
C1742 C 0.97892 0.38498 0.69195 0.0
C1743 C 1.00367 0.37227 0.70831 0.0
N1744 N 0.98349 0.41947 0.72044 0.0
N1745 N 0.00691 0.39024 0.71614 0.0
H1746 H 0.63431 0.64565 0.71666 0.0
H1747 H 0.57316 0.52968 0.72574 0.0
H1748 H 0.64335 0.60787 0.66261 0.0
H1749 H 0.55403 0.56715 0.76034 0.0
H1750 H 0.59773 0.55757 0.70021 0.0
H1751 H 0.6043 0.61691 0.73208 0.0
C1752 C 0.62993 0.63132 0.70796 0.0
C1753 C 0.64142 0.62913 0.68852 0.0
C1754 C 0.58791 0.5596 0.71301 0.0
C1755 C 0.60716 0.59616 0.70609 0.0
C1756 C 0.57374 0.54361 0.72737 0.0
C1757 C 0.56172 0.54616 0.74551 0.0
C1758 C 0.59018 0.57826 0.71706 0.0
C1759 C 0.56328 0.56464 0.747 0.0
C1760 C 0.61275 0.61493 0.71665 0.0
C1761 C 0.635 0.61023 0.67779 0.0
N1762 N 0.57749 0.58005 0.7334 0.0
N1763 N 0.61842 0.59444 0.68693 0.0
H1764 H 0.70598 0.73284 0.6884 0.0
H1765 H 0.7282 0.79857 0.55945 0.0
H1766 H 0.69855 0.71067 0.60659 0.0
H1767 H 0.69325 0.8029 0.62218 0.0
H1768 H 0.72932 0.77292 0.58448 0.0
H1769 H 0.71167 0.76445 0.67106 0.0
C1770 C 0.70577 0.73473 0.66686 0.0
C1771 C 0.70174 0.7192 0.64882 0.0
C1772 C 0.72184 0.77985 0.59312 0.0
C1773 C 0.70872 0.75505 0.62915 0.0
C1774 C 0.72133 0.79456 0.579 0.0
C1775 C 0.71058 0.80276 0.5888 0.0
C1776 C 0.71167 0.77335 0.61734 0.0
C1777 C 0.70176 0.79695 0.6141 0.0
C1778 C 0.70892 0.75263 0.65708 0.0
C1779 C 0.70148 0.72224 0.62114 0.0
N1780 N 0.70229 0.78234 0.62749 0.0
N1781 N 0.70509 0.73984 0.61216 0.0
H1782 H 0.28353 0.99084 0.66945 0.0
H1783 H 0.25188 0.88716 0.59914 0.0
H1784 H 0.3238 0.97828 0.62915 0.0
H1785 H 0.21288 0.90902 0.60863 0.0
H1786 H 0.27766 0.9171 0.62164 0.0
H1787 H 0.25693 0.95792 0.65699 0.0
C1788 C 0.28677 0.98116 0.65792 0.0
C1789 C 0.30586 0.98733 0.65007 0.0
C1790 C 0.26331 0.9151 0.61943 0.0
C1791 C 0.27556 0.94954 0.63634 0.0
C1792 C 0.24856 0.89792 0.60707 0.0
C1793 C 0.23028 0.89565 0.60248 0.0
C1794 C 0.25962 0.92996 0.62728 0.0
C1795 C 0.22676 0.9102 0.61226 0.0
C1796 C 0.27159 0.96237 0.65093 0.0
C1797 C 0.30924 0.97415 0.63531 0.0
N1798 N 0.24137 0.92686 0.62406 0.0
N1799 N 0.29422 0.95581 0.62896 0.0
H1800 H 0.0102 0.2789 0.67105 0.0
H1801 H 0.08382 0.27322 0.6018 0.0
H1802 H 0.02749 0.32842 0.61963 0.0
H1803 H 0.1072 0.33469 0.58679 0.0
H1804 H 0.05736 0.27258 0.62721 0.0
H1805 H 0.03941 0.27844 0.65772 0.0
C1806 C 0.02004 0.28955 0.65677 0.0
C1807 C 0.01626 0.30356 0.64616 0.0
C1808 C 0.0686 0.2864 0.61922 0.0
C1809 C 0.04969 0.30314 0.63079 0.0
C1810 C 0.08382 0.28678 0.60483 0.0
C1811 C 0.09766 0.30401 0.59208 0.0
C1812 C 0.06726 0.30339 0.62074 0.0
C1813 C 0.09673 0.32106 0.59615 0.0
C1814 C 0.03671 0.28925 0.64911 0.0
C1815 C 0.02966 0.3172 0.62807 0.0
N1816 N 0.08158 0.32022 0.60963 0.0
N1817 N 0.04575 0.31666 0.62105 0.0
H1818 H 0.26207 0.27403 0.67377 0.0
H1819 H 0.22078 0.33514 0.60248 0.0
H1820 H 0.29682 0.33281 0.6438 0.0
H1821 H 0.18821 0.27186 0.60433 0.0
H1822 H 0.24585 0.33549 0.63079 0.0
H1823 H 0.23251 0.27397 0.65979 0.0
C1824 C 0.26346 0.28697 0.66458 0.0
C1825 C 0.28188 0.30336 0.6596 0.0
C1826 C 0.23304 0.32152 0.62551 0.0
C1827 C 0.24839 0.30353 0.64418 0.0
C1828 C 0.21866 0.32133 0.60959 0.0
C1829 C 0.20252 0.30345 0.60094 0.0
C1830 C 0.23137 0.30367 0.63272 0.0
C1831 C 0.20044 0.28596 0.61066 0.0
C1832 C 0.24664 0.28691 0.65661 0.0
C1833 C 0.28291 0.31975 0.64767 0.0
N1834 N 0.21491 0.28646 0.62568 0.0
N1835 N 0.26645 0.31941 0.64037 0.0
H1836 H 0.6549 0.96011 0.62593 0.0
H1837 H 0.70342 0.89681 0.6169 0.0
H1838 H 0.7006 0.96842 0.68022 0.0
H1839 H 0.64759 0.87808 0.58053 0.0
H1840 H 0.69926 0.91901 0.64669 0.0
H1841 H 0.64937 0.92764 0.61333 0.0
C1842 C 0.66369 0.95505 0.63528 0.0
C1843 C 0.67847 0.9671 0.65373 0.0
C1844 C 0.68763 0.90968 0.63271 0.0
C1845 C 0.67219 0.92999 0.63959 0.0
C1846 C 0.68988 0.89671 0.61588 0.0
C1847 C 0.67614 0.88608 0.59547 0.0
C1848 C 0.67172 0.91221 0.62874 0.0
C1849 C 0.65887 0.88658 0.59536 0.0
C1850 C 0.66041 0.93644 0.62831 0.0
C1851 C 0.68924 0.95973 0.66558 0.0
N1852 N 0.65744 0.9 0.61103 0.0
N1853 N 0.68608 0.94177 0.65802 0.0
H1854 H 0.03869 0.69616 0.6359 0.0
H1855 H 0.1055 0.8076 0.60382 0.0
H1856 H 0.02821 0.7391 0.67417 0.0
H1857 H 0.12789 0.76858 0.60599 0.0
H1858 H 0.0768 0.78351 0.62883 0.0
H1859 H 0.07074 0.7227 0.62212 0.0
C1860 C 0.04312 0.71119 0.64132 0.0
C1861 C 0.03077 0.71548 0.65606 0.0
C1862 C 0.08827 0.78048 0.62452 0.0
C1863 C 0.06736 0.74588 0.64033 0.0
C1864 C 0.10467 0.79427 0.61053 0.0
C1865 C 0.11912 0.79011 0.60332 0.0
C1866 C 0.08608 0.7622 0.63042 0.0
C1867 C 0.11719 0.77241 0.61166 0.0
C1868 C 0.06148 0.7263 0.6337 0.0
C1869 C 0.03731 0.7352 0.66278 0.0
N1870 N 0.10075 0.7589 0.62429 0.0
N1871 N 0.05509 0.74974 0.65456 0.0
H1872 H 0.00963 0.64479 0.71046 0.0
H1873 H 0.95088 0.53481 0.75255 0.0
H1874 H 0.94954 0.60831 0.68626 0.0
H1875 H 0.01255 0.56516 0.73822 0.0
H1876 H 0.94901 0.56041 0.72801 0.0
H1877 H 0.01035 0.61542 0.72187 0.0
C1878 C 0.99654 0.63055 0.70757 0.0
C1879 C 0.97943 0.62898 0.69763 0.0
C1880 C 0.96284 0.56116 0.72959 0.0
C1881 C 0.98016 0.5952 0.71079 0.0
C1882 C 0.96389 0.54652 0.74343 0.0
C1883 C 0.98189 0.54788 0.74732 0.0
C1884 C 0.97998 0.57747 0.72025 0.0
C1885 C 0.99837 0.56346 0.73546 0.0
C1886 C 0.99703 0.61377 0.71384 0.0
C1887 C 0.963 0.61013 0.69397 0.0
N1888 N 0.9971 0.57788 0.72298 0.0
N1889 N 0.96366 0.59393 0.70096 0.0
H1890 H 0.35616 0.3659 0.7156 0.0
H1891 H 0.46979 0.4299 0.7173 0.0
H1892 H 0.39125 0.35209 0.66434 0.0
H1893 H 0.43344 0.45154 0.74663 0.0
H1894 H 0.44202 0.40378 0.69239 0.0
H1895 H 0.38442 0.39858 0.7242 0.0
C1896 C 0.36983 0.36976 0.70615 0.0
C1897 C 0.37145 0.35619 0.68953 0.0
C1898 C 0.44021 0.41457 0.70363 0.0
C1899 C 0.40388 0.39363 0.69917 0.0
C1900 C 0.45618 0.4297 0.71756 0.0
C1901 C 0.4538 0.44264 0.73456 0.0
C1902 C 0.42178 0.4123 0.70707 0.0
C1903 C 0.43577 0.44158 0.73419 0.0
C1904 C 0.38593 0.3885 0.71083 0.0
C1905 C 0.38944 0.36207 0.6775 0.0
N1906 N 0.42029 0.42629 0.72137 0.0
N1907 N 0.40504 0.38026 0.68284 0.0
H1908 H 0.63283 0.99495 0.70329 0.0
H1909 H 0.59534 0.06185 0.75619 0.0
H1910 H 0.66289 0.05573 0.6803 0.0
H1911 H 0.55589 1.00095 0.73493 0.0
H1912 H 0.62049 0.06125 0.72857 0.0
H1913 H 0.60484 0.99747 0.71645 0.0
C1914 C 0.6335 0.00884 0.701 0.0
C1915 C 0.65021 0.02521 0.69095 0.0
C1916 C 0.60615 0.04821 0.72931 0.0
C1917 C 0.61828 0.02823 0.70614 0.0
C1918 C 0.5918 0.04857 0.74494 0.0
C1919 C 0.57357 0.03141 0.7478 0.0
C1920 C 0.60231 0.03043 0.71716 0.0
C1921 C 0.56973 0.01451 0.7331 0.0
C1922 C 0.61746 0.01021 0.70825 0.0
C1923 C 0.65025 0.0428 0.68807 0.0
N1924 N 0.58414 0.0143 0.71893 0.0
N1925 N 0.63461 0.04398 0.69613 0.0
loop_
_geom_bond_atom_site_label_1
_geom_bond_atom_site_label_2
_geom_bond_distance
_geom_bond_site_symmetry_2
_ccdc_geom_bond_type
Co0 O1 2.216 . S
Co0 O2 2.091 . S
Co0 O4 2.004 1_554 S
Co0 O10 2.021 . S
Co0 O12 2.137 1_454 S
Co0 O13 2.244 1_455 S
O1 Co0 2.216 . S
O1 C8 1.247 . S
O2 Co0 2.091 . S
O2 C8 1.261 . S
C3 O12 1.247 . S
C3 O13 1.272 1_556 S
O4 Co0 2.004 1_556 S
O4 C9 1.259 1_455 S
Co5 O6 2.061 1_554 S
Co5 O11 2.052 . S
Co5 O13 2.135 . S
O6 Co5 2.061 1_556 S
O6 C9 1.235 . S
C7 O10 1.238 1_655 S
C7 O11 1.241 . S
C8 O1 1.247 . S
C8 O2 1.261 . S
C9 O4 1.259 1_655 S
C9 O6 1.235 . S
O10 Co0 2.021 . S
O10 C7 1.238 1_455 S
O11 Co5 2.052 . S
O11 C7 1.241 . S
O12 Co0 2.137 1_656 S
O12 C3 1.247 . S
O13 Co0 2.244 1_655 S
O13 C3 1.272 1_554 S
O13 Co5 2.135 . S
Co14 O15 2.216 1_554 S
Co14 O16 2.091 . S
Co14 O18 2.004 . S
Co14 O24 2.021 1_554 S
Co14 O26 2.137 . S
Co14 O27 2.244 . S
O15 Co14 2.216 1_556 S
O15 C22 1.247 . S
O16 Co14 2.091 . S
O16 C22 1.261 1_554 S
C17 O26 1.247 . S
C17 O27 1.272 . S
O18 Co14 2.004 . S
O18 C23 1.259 . S
Co19 O20 2.061 . S
Co19 O25 2.052 1_554 S
Co19 O27 2.135 . S
O20 Co19 2.061 . S
O20 C23 1.235 . S
C21 O24 1.238 . S
C21 O25 1.241 . S
C22 O15 1.247 . S
C22 O16 1.261 1_556 S
C23 O18 1.259 . S
C23 O20 1.235 . S
O24 Co14 2.021 1_556 S
O24 C21 1.238 . S
O25 Co19 2.052 1_556 S
O25 C21 1.241 . S
O26 Co14 2.137 . S
O26 C17 1.247 . S
O27 Co14 2.244 . S
O27 C17 1.272 . S
O27 Co19 2.135 . S
Co28 O29 2.216 1_554 S
Co28 O30 2.091 . S
Co28 O32 2.004 . S
Co28 O38 2.021 1_554 S
Co28 O40 2.137 1_545 S
Co28 O41 2.244 1_545 S
O29 Co28 2.216 1_556 S
O29 C36 1.247 . S
O30 Co28 2.091 . S
O30 C36 1.261 1_554 S
C31 O40 1.247 . S
C31 O41 1.272 . S
O32 Co28 2.004 . S
O32 C37 1.259 . S
Co33 O34 2.061 . S
Co33 O39 2.052 1_554 S
Co33 O41 2.135 . S
O34 Co33 2.061 . S
O34 C37 1.235 1_565 S
C35 O38 1.238 1_565 S
C35 O39 1.241 . S
C36 O29 1.247 . S
C36 O30 1.261 1_556 S
C37 O32 1.259 . S
C37 O34 1.235 1_545 S
O38 Co28 2.021 1_556 S
O38 C35 1.238 1_545 S
O39 Co33 2.052 1_556 S
O39 C35 1.241 . S
O40 Co28 2.137 1_565 S
O40 C31 1.247 . S
O41 Co28 2.244 1_565 S
O41 C31 1.272 . S
O41 Co33 2.135 . S
Co42 O43 2.216 1_554 S
Co42 O44 2.091 . S
Co42 O46 2.004 . S
Co42 O52 2.021 1_554 S
Co42 O54 2.137 1_655 S
Co42 O55 2.244 1_655 S
O43 Co42 2.216 1_556 S
O43 C50 1.247 . S
O44 Co42 2.091 . S
O44 C50 1.261 1_554 S
C45 O54 1.247 . S
C45 O55 1.272 . S
O46 Co42 2.004 . S
O46 C51 1.259 1_655 S
Co47 O48 2.061 . S
Co47 O53 2.052 1_554 S
Co47 O55 2.135 . S
O48 Co47 2.061 . S
O48 C51 1.235 . S
C49 O52 1.238 1_455 S
C49 O53 1.241 . S
C50 O43 1.247 . S
C50 O44 1.261 1_556 S
C51 O46 1.259 1_455 S
C51 O48 1.235 . S
O52 Co42 2.021 1_556 S
O52 C49 1.238 1_655 S
O53 Co47 2.052 1_556 S
O53 C49 1.241 . S
O54 Co42 2.137 1_455 S
O54 C45 1.247 . S
O55 Co42 2.244 1_455 S
O55 C45 1.272 . S
O55 Co47 2.135 . S
Co56 O57 2.216 . S
Co56 O58 2.091 . S
Co56 O60 2.004 1_554 S
Co56 O66 2.021 . S
Co56 O68 2.137 1_554 S
Co56 O69 2.244 . S
O57 Co56 2.216 . S
O57 C64 1.247 . S
O58 Co56 2.091 . S
O58 C64 1.261 . S
C59 O68 1.247 . S
C59 O69 1.272 1_556 S
O60 Co56 2.004 1_556 S
O60 C65 1.259 . S
Co61 O62 2.061 1_554 S
Co61 O67 2.052 . S
Co61 O69 2.135 . S
O62 Co61 2.061 1_556 S
O62 C65 1.235 . S
C63 O66 1.238 . S
C63 O67 1.241 . S
C64 O57 1.247 . S
C64 O58 1.261 . S
C65 O60 1.259 . S
C65 O62 1.235 . S
O66 Co56 2.021 . S
O66 C63 1.238 . S
O67 Co61 2.052 . S
O67 C63 1.241 . S
O68 Co56 2.137 1_556 S
O68 C59 1.247 . S
O69 Co56 2.244 . S
O69 C59 1.272 1_554 S
O69 Co61 2.135 . S
Co70 O71 2.216 . S
Co70 O72 2.091 . S
Co70 O74 2.004 1_554 S
Co70 O80 2.021 . S
Co70 O82 2.137 1_564 S
Co70 O83 2.244 1_565 S
O71 Co70 2.216 . S
O71 C78 1.247 . S
O72 Co70 2.091 . S
O72 C78 1.261 . S
C73 O82 1.247 . S
C73 O83 1.272 1_556 S
O74 Co70 2.004 1_556 S
O74 C79 1.259 1_565 S
Co75 O76 2.061 1_554 S
Co75 O81 2.052 . S
Co75 O83 2.135 . S
O76 Co75 2.061 1_556 S
O76 C79 1.235 . S
C77 O80 1.238 1_545 S
C77 O81 1.241 . S
C78 O71 1.247 . S
C78 O72 1.261 . S
C79 O74 1.259 1_545 S
C79 O76 1.235 . S
O80 Co70 2.021 . S
O80 C77 1.238 1_565 S
O81 Co75 2.052 . S
O81 C77 1.241 . S
O82 Co70 2.137 1_546 S
O82 C73 1.247 . S
O83 Co70 2.244 1_545 S
O83 C73 1.272 1_554 S
O83 Co75 2.135 . S
Co84 O85 2.216 . S
Co84 O86 2.091 . S
Co84 O88 2.004 . S
Co84 O94 2.021 . S
Co84 O96 2.137 . S
Co84 O97 2.244 . S
O85 Co84 2.216 . S
O85 C92 1.247 . S
O86 Co84 2.091 . S
O86 C92 1.261 . S
C87 O96 1.247 . S
C87 O97 1.272 . S
O88 Co84 2.004 . S
O88 C93 1.259 . S
Co89 O90 2.061 . S
Co89 O95 2.052 . S
Co89 O97 2.135 . S
O90 Co89 2.061 . S
O90 C93 1.235 . S
C91 O94 1.238 . S
C91 O95 1.241 . S
C92 O85 1.247 . S
C92 O86 1.261 . S
C93 O88 1.259 . S
C93 O90 1.235 . S
O94 Co84 2.021 . S
O94 C91 1.238 . S
O95 Co89 2.052 . S
O95 C91 1.241 . S
O96 Co84 2.137 . S
O96 C87 1.247 . S
O97 Co84 2.244 . S
O97 C87 1.272 . S
O97 Co89 2.135 . S
Co98 O99 2.218 . S
Co98 O100 2.091 . S
Co98 O102 2.004 . S
Co98 O108 2.021 . S
Co98 O110 2.137 1_565 S
Co98 O111 2.244 1_565 S
O99 Co98 2.218 . S
O99 C106 1.254 . S
O100 Co98 2.091 . S
O100 C106 1.261 . S
C101 O110 1.247 . S
C101 O111 1.272 . S
O102 Co98 2.004 . S
O102 C107 1.259 . S
Co103 O104 2.061 . S
Co103 O109 2.052 . S
Co103 O111 2.135 1_565 S
O104 Co103 2.061 . S
O104 C107 1.235 . S
C105 O108 1.238 . S
C105 O109 1.241 . S
C106 O99 1.254 . S
C106 O100 1.261 . S
C107 O102 1.259 . S
C107 O104 1.235 . S
O108 Co98 2.021 . S
O108 C105 1.238 . S
O109 Co103 2.052 . S
O109 C105 1.241 . S
O110 Co98 2.137 1_545 S
O110 C101 1.247 . S
O111 Co98 2.244 1_545 S
O111 C101 1.272 . S
O111 Co103 2.135 1_545 S
Co112 O113 2.216 . S
Co112 O114 2.091 . S
Co112 O116 2.004 . S
Co112 O122 2.021 . S
Co112 O124 2.137 1_455 S
Co112 O125 2.242 1_455 S
O113 Co112 2.216 . S
O113 C120 1.247 . S
O114 Co112 2.091 . S
O114 C120 1.261 . S
C115 O124 1.247 . S
C115 O125 1.284 . S
O116 Co112 2.004 . S
O116 C121 1.259 . S
Co117 O118 2.061 . S
Co117 O123 2.052 . S
Co117 O125 2.120 1_455 S
O118 Co117 2.061 . S
O118 C121 1.235 . S
C119 O122 1.238 . S
C119 O123 1.241 . S
C120 O113 1.247 . S
C120 O114 1.261 . S
C121 O116 1.259 . S
C121 O118 1.235 . S
O122 Co112 2.021 . S
O122 C119 1.238 . S
O123 Co117 2.052 . S
O123 C119 1.241 . S
O124 Co112 2.137 1_655 S
O124 C115 1.247 . S
O125 Co112 2.242 1_655 S
O125 C115 1.284 . S
O125 Co117 2.120 1_655 S
Co126 O127 2.216 . S
Co126 O128 2.091 . S
Co126 O130 2.004 . S
Co126 O136 2.021 . S
Co126 O138 2.137 1_565 S
Co126 O139 2.244 1_565 S
O127 Co126 2.216 . S
O127 C134 1.247 . S
O128 Co126 2.091 . S
O128 C134 1.261 . S
C129 O138 1.247 . S
C129 O139 1.272 . S
O130 Co126 2.004 . S
O130 C135 1.259 . S
Co131 O132 2.061 . S
Co131 O137 2.052 . S
Co131 O139 2.135 1_565 S
O132 Co131 2.061 . S
O132 C135 1.235 . S
C133 O136 1.238 . S
C133 O137 1.241 . S
C134 O127 1.247 . S
C134 O128 1.261 . S
C135 O130 1.259 . S
C135 O132 1.235 . S
O136 Co126 2.021 . S
O136 C133 1.238 . S
O137 Co131 2.052 . S
O137 C133 1.241 . S
O138 Co126 2.137 1_545 S
O138 C129 1.247 . S
O139 Co126 2.244 1_545 S
O139 C129 1.272 . S
O139 Co131 2.135 1_545 S
Co140 O141 2.216 1_455 S
Co140 O142 2.091 1_455 S
Co140 O144 2.004 . S
Co140 O150 2.021 . S
Co140 O152 2.137 1_455 S
Co140 O153 2.244 . S
O141 Co140 2.216 1_655 S
O141 C148 1.247 . S
O142 Co140 2.091 1_655 S
O142 C148 1.261 . S
C143 O152 1.247 1_455 S
C143 O153 1.272 . S
O144 Co140 2.004 . S
O144 C149 1.259 . S
Co145 O146 2.061 . S
Co145 O151 2.052 . S
Co145 O153 2.135 . S
O146 Co145 2.061 . S
O146 C149 1.235 . S
C147 O150 1.238 . S
C147 O151 1.241 . S
C148 O141 1.247 . S
C148 O142 1.261 . S
C149 O144 1.259 . S
C149 O146 1.235 . S
O150 Co140 2.021 . S
O150 C147 1.238 . S
O151 Co145 2.052 . S
O151 C147 1.241 . S
O152 Co140 2.137 1_655 S
O152 C143 1.247 1_655 S
O153 Co140 2.244 . S
O153 C143 1.272 . S
O153 Co145 2.135 . S
Co154 O155 2.216 . S
Co154 O156 2.091 . S
Co154 O158 2.004 . S
Co154 O164 2.021 . S
Co154 O166 2.137 . S
Co154 O167 2.244 . S
O155 Co154 2.216 . S
O155 C162 1.247 . S
O156 Co154 2.091 . S
O156 C162 1.261 . S
C157 O166 1.247 . S
C157 O167 1.272 . S
O158 Co154 2.004 . S
O158 C163 1.259 . S
Co159 O160 2.061 . S
Co159 O165 2.052 . S
Co159 O167 2.135 . S
O160 Co159 2.061 . S
O160 C163 1.235 . S
C161 O164 1.238 . S
C161 O165 1.241 . S
C162 O155 1.247 . S
C162 O156 1.261 . S
C163 O158 1.259 . S
C163 O160 1.235 . S
O164 Co154 2.021 . S
O164 C161 1.238 . S
O165 Co159 2.052 . S
O165 C161 1.241 . S
O166 Co154 2.137 . S
O166 C157 1.247 . S
O167 Co154 2.244 . S
O167 C157 1.272 . S
O167 Co159 2.135 . S
Co168 O169 2.216 . S
Co168 O170 2.091 . S
Co168 O172 2.004 . S
Co168 O178 2.021 . S
Co168 O180 2.137 1_545 S
Co168 O181 2.244 1_545 S
O169 Co168 2.216 . S
O169 C176 1.247 . S
O170 Co168 2.091 . S
O170 C176 1.261 . S
C171 O180 1.247 . S
C171 O181 1.272 . S
O172 Co168 2.004 . S
O172 C177 1.259 . S
Co173 O174 2.061 . S
Co173 O179 2.052 . S
Co173 O181 2.135 1_545 S
O174 Co173 2.061 . S
O174 C177 1.235 . S
C175 O178 1.238 . S
C175 O179 1.241 . S
C176 O169 1.247 . S
C176 O170 1.261 . S
C177 O172 1.259 . S
C177 O174 1.235 . S
O178 Co168 2.021 . S
O178 C175 1.238 . S
O179 Co173 2.052 . S
O179 C175 1.241 . S
O180 Co168 2.137 1_565 S
O180 C171 1.247 . S
O181 Co168 2.244 1_565 S
O181 C171 1.272 . S
O181 Co173 2.135 1_565 S
Co182 O183 2.216 1_655 S
Co182 O184 2.091 1_655 S
Co182 O186 2.004 . S
Co182 O192 2.021 . S
Co182 O194 2.137 1_655 S
Co182 O195 2.244 . S
O183 Co182 2.216 1_455 S
O183 C190 1.247 . S
O184 Co182 2.091 1_455 S
O184 C190 1.261 . S
C185 O194 1.247 1_655 S
C185 O195 1.272 . S
O186 Co182 2.004 . S
O186 C191 1.259 . S
Co187 O188 2.061 . S
Co187 O193 2.052 . S
Co187 O195 2.135 . S
O188 Co187 2.061 . S
O188 C191 1.235 . S
C189 O192 1.238 . S
C189 O193 1.241 . S
C190 O183 1.247 . S
C190 O184 1.261 . S
C191 O186 1.259 . S
C191 O188 1.235 . S
O192 Co182 2.021 . S
O192 C189 1.238 . S
O193 Co187 2.052 . S
O193 C189 1.241 . S
O194 Co182 2.137 1_455 S
O194 C185 1.247 1_455 S
O195 Co182 2.244 . S
O195 C185 1.272 . S
O195 Co187 2.135 . S
Co196 O197 2.216 . S
Co196 O198 2.091 . S
Co196 O200 2.004 . S
Co196 O206 2.021 . S
Co196 O208 2.137 . S
Co196 O209 2.244 . S
O197 Co196 2.216 . S
O197 C204 1.247 . S
O198 Co196 2.091 . S
O198 C204 1.261 . S
C199 O208 1.247 . S
C199 O209 1.272 . S
O200 Co196 2.004 . S
O200 C205 1.259 . S
Co201 O202 2.061 . S
Co201 O207 2.052 . S
Co201 O209 2.135 . S
O202 Co201 2.061 . S
O202 C205 1.235 . S
C203 O206 1.238 . S
C203 O207 1.241 . S
C204 O197 1.247 . S
C204 O198 1.261 . S
C205 O200 1.259 . S
C205 O202 1.235 . S
O206 Co196 2.021 . S
O206 C203 1.238 . S
O207 Co201 2.052 . S
O207 C203 1.241 . S
O208 Co196 2.137 . S
O208 C199 1.247 . S
O209 Co196 2.244 . S
O209 C199 1.272 . S
O209 Co201 2.135 . S
Co210 O211 2.216 . S
Co210 O212 2.091 . S
Co210 O214 2.004 . S
Co210 O220 2.021 . S
Co210 O222 2.137 . S
Co210 O223 2.244 . S
O211 Co210 2.216 . S
O211 C218 1.247 . S
O212 Co210 2.091 . S
O212 C218 1.261 . S
C213 O222 1.247 . S
C213 O223 1.272 . S
O214 Co210 2.004 . S
O214 C219 1.259 . S
Co215 O216 2.061 . S
Co215 O221 2.052 . S
Co215 O223 2.135 . S
O216 Co215 2.061 . S
O216 C219 1.235 . S
C217 O220 1.238 . S
C217 O221 1.241 . S
C218 O211 1.247 . S
C218 O212 1.261 . S
C219 O214 1.259 . S
C219 O216 1.235 . S
O220 Co210 2.021 . S
O220 C217 1.238 . S
O221 Co215 2.052 . S
O221 C217 1.241 . S
O222 Co210 2.137 . S
O222 C213 1.247 . S
O223 Co210 2.244 . S
O223 C213 1.272 . S
O223 Co215 2.135 . S
Co224 O225 2.216 . S
Co224 O226 2.091 . S
Co224 O228 2.004 . S
Co224 O234 2.021 . S
Co224 O236 2.137 1_545 S
Co224 O237 2.244 1_545 S
O225 Co224 2.216 . S
O225 C232 1.247 . S
O226 Co224 2.091 . S
O226 C232 1.261 . S
C227 O236 1.247 . S
C227 O237 1.272 . S
O228 Co224 2.004 . S
O228 C233 1.259 . S
Co229 O230 2.061 . S
Co229 O235 2.052 . S
Co229 O237 2.135 1_545 S
O230 Co229 2.061 . S
O230 C233 1.235 . S
C231 O234 1.238 . S
C231 O235 1.241 . S
C232 O225 1.247 . S
C232 O226 1.261 . S
C233 O228 1.259 . S
C233 O230 1.235 . S
O234 Co224 2.021 . S
O234 C231 1.238 . S
O235 Co229 2.052 . S
O235 C231 1.241 . S
O236 Co224 2.137 1_565 S
O236 C227 1.247 . S
O237 Co224 2.244 1_565 S
O237 C227 1.272 . S
O237 Co229 2.135 1_565 S
Co238 O239 2.216 . S
Co238 O240 2.091 . S
Co238 O242 2.004 . S
Co238 O248 2.021 . S
Co238 O250 2.137 1_655 S
Co238 O251 2.243 . S
O239 Co238 2.216 . S
O239 C246 1.247 . S
O240 Co238 2.091 . S
O240 C246 1.261 . S
C241 O250 1.247 . S
C241 O251 1.277 1_455 S
O242 Co238 2.004 . S
O242 C247 1.259 . S
Co243 O244 2.061 . S
Co243 O249 2.052 . S
Co243 O251 2.129 . S
O244 Co243 2.061 . S
O244 C247 1.235 . S
C245 O248 1.238 . S
C245 O249 1.241 . S
C246 O239 1.247 . S
C246 O240 1.261 . S
C247 O242 1.259 . S
C247 O244 1.235 . S
O248 Co238 2.021 . S
O248 C245 1.238 . S
O249 Co243 2.052 . S
O249 C245 1.241 . S
O250 Co238 2.137 1_455 S
O250 C241 1.247 . S
O251 Co238 2.243 . S
O251 C241 1.277 1_655 S
O251 Co243 2.129 . S
H252 C260 0.930 . S
H253 C263 0.930 . S
H254 C265 0.930 . S
H255 C266 0.970 . S
H256 C266 0.970 . S
H257 C268 0.930 . S
H258 C270 0.930 . S
H259 C272 0.930 . S
C260 H252 0.930 . S
C260 C261 1.382 . S
C260 C262 1.426 . S
C261 C260 1.382 . S
C261 C265 1.389 . S
C262 C260 1.426 . S
C262 C263 1.375 . S
C262 C266 1.532 . S
C263 H253 0.930 . S
C263 C262 1.375 . S
C263 C264 1.416 . S
C264 C263 1.416 . S
C264 C265 1.371 . S
C265 H254 0.930 . S
C265 C261 1.389 . S
C265 C264 1.371 . S
C266 H255 0.970 . S
C266 H256 0.970 . S
C266 C262 1.532 . S
C266 C267 1.499 . S
C267 C266 1.499 . S
C267 C268 1.370 . S
C267 C272 1.415 . S
C268 H257 0.930 . S
C268 C267 1.370 . S
C268 C269 1.407 . S
C269 C268 1.407 . S
C269 C270 1.365 . S
C270 H258 0.930 . S
C270 C269 1.365 . S
C270 C271 1.393 . S
C271 C270 1.393 . S
C271 C272 1.387 . S
C272 H259 0.930 . S
C272 C267 1.415 . S
C272 C271 1.387 . S
H273 C281 0.930 . S
H274 C284 0.930 . S
H275 C286 0.930 . S
H276 C287 0.970 . S
H277 C287 0.970 . S
H278 C289 0.930 . S
H279 C291 0.930 . S
H280 C293 0.930 . S
C281 H273 0.930 . S
C281 C282 1.382 . S
C281 C283 1.426 . S
C282 C281 1.382 . S
C282 C286 1.389 . S
C283 C281 1.426 . S
C283 C284 1.375 . S
C283 C287 1.532 . S
C284 H274 0.930 . S
C284 C283 1.375 . S
C284 C285 1.416 . S
C285 C284 1.416 . S
C285 C286 1.371 . S
C286 H275 0.930 . S
C286 C282 1.389 . S
C286 C285 1.371 . S
C287 H276 0.970 . S
C287 H277 0.970 . S
C287 C283 1.532 . S
C287 C288 1.499 . S
C288 C287 1.499 . S
C288 C289 1.370 . S
C288 C293 1.415 . S
C289 H278 0.930 . S
C289 C288 1.370 . S
C289 C290 1.407 . S
C290 C289 1.407 . S
C290 C291 1.365 . S
C291 H279 0.930 . S
C291 C290 1.365 . S
C291 C292 1.393 . S
C292 C291 1.393 . S
C292 C293 1.387 . S
C293 H280 0.930 . S
C293 C288 1.415 . S
C293 C292 1.387 . S
H294 C302 0.930 . S
H295 C305 0.930 . S
H296 C307 0.930 . S
H297 C308 0.970 . S
H298 C308 0.970 . S
H299 C310 0.930 . S
H300 C312 0.930 . S
H301 C314 0.930 . S
C302 H294 0.930 . S
C302 C303 1.382 . S
C302 C304 1.426 . S
C303 C302 1.382 . S
C303 C307 1.389 . S
C304 C302 1.426 . S
C304 C305 1.375 . S
C304 C308 1.532 . S
C305 H295 0.930 . S
C305 C304 1.375 . S
C305 C306 1.416 . S
C306 C305 1.416 . S
C306 C307 1.371 . S
C307 H296 0.930 . S
C307 C303 1.389 . S
C307 C306 1.371 . S
C308 H297 0.970 . S
C308 H298 0.970 . S
C308 C304 1.532 . S
C308 C309 1.499 . S
C309 C308 1.499 . S
C309 C310 1.370 . S
C309 C314 1.415 . S
C310 H299 0.930 . S
C310 C309 1.370 . S
C310 C311 1.407 . S
C311 C310 1.407 . S
C311 C312 1.365 . S
C312 H300 0.930 . S
C312 C311 1.365 . S
C312 C313 1.393 . S
C313 C312 1.393 . S
C313 C314 1.387 . S
C314 H301 0.930 . S
C314 C309 1.415 . S
C314 C313 1.387 . S
H315 C323 0.930 . S
H316 C326 0.930 . S
H317 C328 0.930 . S
H318 C329 0.970 . S
H319 C329 0.970 . S
H320 C331 0.930 . S
H321 C333 0.930 . S
H322 C335 0.930 . S
C323 H315 0.930 . S
C323 C324 1.382 . S
C323 C325 1.426 . S
C324 C323 1.382 . S
C324 C328 1.389 . S
C325 C323 1.426 . S
C325 C326 1.375 . S
C325 C329 1.532 . S
C326 H316 0.930 . S
C326 C325 1.375 . S
C326 C327 1.416 . S
C327 C326 1.416 . S
C327 C328 1.371 . S
C328 H317 0.930 . S
C328 C324 1.389 . S
C328 C327 1.371 . S
C329 H318 0.970 . S
C329 H319 0.970 . S
C329 C325 1.532 . S
C329 C330 1.499 . S
C330 C329 1.499 . S
C330 C331 1.370 . S
C330 C335 1.415 . S
C331 H320 0.930 . S
C331 C330 1.370 . S
C331 C332 1.407 . S
C332 C331 1.407 . S
C332 C333 1.365 . S
C333 H321 0.930 . S
C333 C332 1.365 . S
C333 C334 1.393 . S
C334 C333 1.393 . S
C334 C335 1.387 . S
C335 H322 0.930 . S
C335 C330 1.415 . S
C335 C334 1.387 . S
H336 C344 0.930 . S
H337 C347 0.930 . S
H338 C349 0.930 . S
H339 C350 0.970 . S
H340 C350 0.970 . S
H341 C352 0.930 . S
H342 C354 0.930 . S
H343 C356 0.930 . S
C344 H336 0.930 . S
C344 C345 1.382 . S
C344 C346 1.426 . S
C345 C344 1.382 . S
C345 C349 1.389 . S
C346 C344 1.426 . S
C346 C347 1.375 . S
C346 C350 1.532 . S
C347 H337 0.930 . S
C347 C346 1.375 . S
C347 C348 1.416 . S
C348 C347 1.416 . S
C348 C349 1.371 . S
C349 H338 0.930 . S
C349 C345 1.389 . S
C349 C348 1.371 . S
C350 H339 0.970 . S
C350 H340 0.970 . S
C350 C346 1.532 . S
C350 C351 1.499 . S
C351 C350 1.499 . S
C351 C352 1.370 . S
C351 C356 1.415 . S
C352 H341 0.930 . S
C352 C351 1.370 . S
C352 C353 1.407 . S
C353 C352 1.407 . S
C353 C354 1.365 . S
C354 H342 0.930 . S
C354 C353 1.365 . S
C354 C355 1.393 . S
C355 C354 1.393 . S
C355 C356 1.387 . S
C356 H343 0.930 . S
C356 C351 1.415 . S
C356 C355 1.387 . S
H357 C365 0.930 . S
H358 C368 0.930 . S
H359 C370 0.930 . S
H360 C371 0.970 . S
H361 C371 0.970 . S
H362 C373 0.930 . S
H363 C375 0.930 . S
H364 C377 0.930 . S
C365 H357 0.930 . S
C365 C366 1.382 . S
C365 C367 1.426 . S
C366 C365 1.382 . S
C366 C370 1.389 . S
C367 C365 1.426 . S
C367 C368 1.375 . S
C367 C371 1.532 . S
C368 H358 0.930 . S
C368 C367 1.375 . S
C368 C369 1.416 . S
C369 C368 1.416 . S
C369 C370 1.371 . S
C370 H359 0.930 . S
C370 C366 1.389 . S
C370 C369 1.371 . S
C371 H360 0.970 . S
C371 H361 0.970 . S
C371 C367 1.532 . S
C371 C372 1.499 . S
C372 C371 1.499 . S
C372 C373 1.370 . S
C372 C377 1.415 . S
C373 H362 0.930 . S
C373 C372 1.370 . S
C373 C374 1.407 . S
C374 C373 1.407 . S
C374 C375 1.365 . S
C375 H363 0.930 . S
C375 C374 1.365 . S
C375 C376 1.393 . S
C376 C375 1.393 . S
C376 C377 1.387 . S
C377 H364 0.930 . S
C377 C372 1.415 . S
C377 C376 1.387 . S
H378 C386 0.930 . S
H379 C389 0.930 . S
H380 C391 0.930 . S
H381 C392 0.970 . S
H382 C392 0.970 . S
H383 C394 0.930 . S
H384 C396 0.930 . S
H385 C398 0.930 . S
C386 H378 0.930 . S
C386 C387 1.382 . S
C386 C388 1.426 . S
C387 C386 1.382 . S
C387 C391 1.389 . S
C388 C386 1.426 . S
C388 C389 1.375 . S
C388 C392 1.532 . S
C389 H379 0.930 . S
C389 C388 1.375 . S
C389 C390 1.416 . S
C390 C389 1.416 . S
C390 C391 1.371 . S
C391 H380 0.930 . S
C391 C387 1.389 . S
C391 C390 1.371 . S
C392 H381 0.970 . S
C392 H382 0.970 . S
C392 C388 1.532 . S
C392 C393 1.499 . S
C393 C392 1.499 . S
C393 C394 1.370 . S
C393 C398 1.415 . S
C394 H383 0.930 . S
C394 C393 1.370 . S
C394 C395 1.407 . S
C395 C394 1.407 . S
C395 C396 1.365 . S
C396 H384 0.930 . S
C396 C395 1.365 . S
C396 C397 1.393 . S
C397 C396 1.393 . S
C397 C398 1.387 . S
C398 H385 0.930 . S
C398 C393 1.415 . S
C398 C397 1.387 . S
H399 C407 0.930 . S
H400 C410 0.930 . S
H401 C412 0.930 . S
H402 C413 0.970 . S
H403 C413 0.970 . S
H404 C415 0.930 . S
H405 C417 0.930 . S
H406 C419 0.930 . S
C407 H399 0.930 . S
C407 C408 1.382 . S
C407 C409 1.426 . S
C408 C407 1.382 . S
C408 C412 1.389 . S
C409 C407 1.426 . S
C409 C410 1.375 . S
C409 C413 1.532 . S
C410 H400 0.930 . S
C410 C409 1.375 . S
C410 C411 1.416 . S
C411 C410 1.416 . S
C411 C412 1.371 . S
C412 H401 0.930 . S
C412 C408 1.389 . S
C412 C411 1.371 . S
C413 H402 0.970 . S
C413 H403 0.970 . S
C413 C409 1.532 . S
C413 C414 1.499 . S
C414 C413 1.499 . S
C414 C415 1.370 . S
C414 C419 1.415 . S
C415 H404 0.930 . S
C415 C414 1.370 . S
C415 C416 1.407 . S
C416 C415 1.407 . S
C416 C417 1.365 . S
C417 H405 0.930 . S
C417 C416 1.365 . S
C417 C418 1.393 . S
C418 C417 1.393 . S
C418 C419 1.387 . S
C419 H406 0.930 . S
C419 C414 1.415 . S
C419 C418 1.387 . S
H420 C428 0.930 . S
H421 C431 0.930 . S
H422 C433 0.930 . S
H423 C434 0.970 . S
H424 C434 0.970 . S
H425 C436 0.930 . S
H426 C438 0.930 . S
H427 C440 0.930 . S
C428 H420 0.930 . S
C428 C429 1.382 . S
C428 C430 1.426 . S
C429 C428 1.382 . S
C429 C433 1.389 . S
C430 C428 1.426 . S
C430 C431 1.375 . S
C430 C434 1.532 . S
C431 H421 0.930 . S
C431 C430 1.375 . S
C431 C432 1.416 . S
C432 C431 1.416 . S
C432 C433 1.371 . S
C433 H422 0.930 . S
C433 C429 1.389 . S
C433 C432 1.371 . S
C434 H423 0.970 . S
C434 H424 0.970 . S
C434 C430 1.532 . S
C434 C435 1.499 . S
C435 C434 1.499 . S
C435 C436 1.370 . S
C435 C440 1.415 . S
C436 H425 0.930 . S
C436 C435 1.370 . S
C436 C437 1.407 . S
C437 C436 1.407 . S
C437 C438 1.365 . S
C438 H426 0.930 . S
C438 C437 1.365 . S
C438 C439 1.393 . S
C439 C438 1.393 . S
C439 C440 1.387 . S
C440 H427 0.930 . S
C440 C435 1.415 . S
C440 C439 1.387 . S
H441 C449 0.930 . S
H442 C452 0.930 . S
H443 C454 0.930 . S
H444 C455 0.970 . S
H445 C455 0.970 . S
H446 C457 0.930 . S
H447 C459 0.930 . S
H448 C461 0.930 . S
C449 H441 0.930 . S
C449 C450 1.382 . S
C449 C451 1.426 . S
C450 C449 1.382 . S
C450 C454 1.389 1_455 S
C451 C449 1.426 . S
C451 C452 1.375 . S
C451 C455 1.532 . S
C452 H442 0.930 . S
C452 C451 1.375 . S
C452 C453 1.416 . S
C453 C452 1.416 . S
C453 C454 1.371 1_455 S
C454 H443 0.930 . S
C454 C450 1.389 1_655 S
C454 C453 1.371 1_655 S
C455 H444 0.970 . S
C455 H445 0.970 . S
C455 C451 1.532 . S
C455 C456 1.499 . S
C456 C455 1.499 . S
C456 C457 1.370 . S
C456 C461 1.415 . S
C457 H446 0.930 . S
C457 C456 1.370 . S
C457 C458 1.411 . S
C458 C457 1.411 . S
C458 C459 1.372 1_455 S
C459 H447 0.930 . S
C459 C458 1.372 1_655 S
C459 C460 1.393 1_655 S
C460 C459 1.393 1_455 S
C460 C461 1.387 . S
C461 H448 0.930 . S
C461 C456 1.415 . S
C461 C460 1.387 . S
H462 C470 0.930 . S
H463 C473 0.930 . S
H464 C475 0.930 . S
H465 C476 0.970 . S
H466 C476 0.970 . S
H467 C478 0.930 . S
H468 C480 0.930 . S
H469 C482 0.930 . S
C470 H462 0.930 . S
C470 C471 1.382 . S
C470 C472 1.426 . S
C471 C470 1.382 . S
C471 C475 1.389 . S
C472 C470 1.426 . S
C472 C473 1.375 . S
C472 C476 1.532 . S
C473 H463 0.930 . S
C473 C472 1.375 . S
C473 C474 1.416 . S
C474 C473 1.416 . S
C474 C475 1.371 . S
C475 H464 0.930 . S
C475 C471 1.389 . S
C475 C474 1.371 . S
C476 H465 0.970 . S
C476 H466 0.970 . S
C476 C472 1.532 . S
C476 C477 1.499 . S
C477 C476 1.499 . S
C477 C478 1.370 . S
C477 C482 1.415 . S
C478 H467 0.930 . S
C478 C477 1.370 . S
C478 C479 1.407 . S
C479 C478 1.407 . S
C479 C480 1.365 . S
C480 H468 0.930 . S
C480 C479 1.365 . S
C480 C481 1.393 . S
C481 C480 1.393 . S
C481 C482 1.387 . S
C482 H469 0.930 . S
C482 C477 1.415 . S
C482 C481 1.387 . S
H483 C491 0.930 . S
H484 C494 0.930 . S
H485 C496 0.930 . S
H486 C497 0.970 . S
H487 C497 0.970 . S
H488 C499 0.930 . S
H489 C501 0.930 . S
H490 C503 0.930 . S
C491 H483 0.930 . S
C491 C492 1.382 . S
C491 C493 1.426 . S
C492 C491 1.382 . S
C492 C496 1.389 1_565 S
C493 C491 1.426 . S
C493 C494 1.375 . S
C493 C497 1.532 . S
C494 H484 0.930 . S
C494 C493 1.375 . S
C494 C495 1.416 . S
C495 C494 1.416 . S
C495 C496 1.371 1_565 S
C496 H485 0.930 . S
C496 C492 1.389 1_545 S
C496 C495 1.371 1_545 S
C497 H486 0.970 . S
C497 H487 0.970 . S
C497 C493 1.532 . S
C497 C498 1.499 . S
C498 C497 1.499 . S
C498 C499 1.370 . S
C498 C503 1.415 . S
C499 H488 0.930 . S
C499 C498 1.370 . S
C499 C500 1.435 . S
C500 C499 1.435 . S
C500 C501 1.354 1_565 S
C501 H489 0.930 . S
C501 C500 1.354 1_545 S
C501 C502 1.393 1_545 S
C502 C501 1.393 1_565 S
C502 C503 1.387 . S
C503 H490 0.930 . S
C503 C498 1.415 . S
C503 C502 1.387 . S
H504 C512 0.930 . S
H505 C515 0.930 . S
H506 C517 0.930 . S
H507 C518 0.970 . S
H508 C518 0.970 . S
H509 C520 0.930 . S
H510 C522 0.930 . S
H511 C524 0.930 . S
C512 H504 0.930 . S
C512 C513 1.382 . S
C512 C514 1.426 . S
C513 C512 1.382 . S
C513 C517 1.389 1_565 S
C514 C512 1.426 . S
C514 C515 1.375 . S
C514 C518 1.532 . S
C515 H505 0.930 . S
C515 C514 1.375 . S
C515 C516 1.416 . S
C516 C515 1.416 . S
C516 C517 1.371 1_565 S
C517 H506 0.930 . S
C517 C513 1.389 1_545 S
C517 C516 1.371 1_545 S
C518 H507 0.970 . S
C518 H508 0.970 . S
C518 C514 1.532 . S
C518 C519 1.499 . S
C519 C518 1.499 . S
C519 C520 1.370 . S
C519 C524 1.415 . S
C520 H509 0.930 . S
C520 C519 1.370 . S
C520 C521 1.407 . S
C521 C520 1.407 . S
C521 C522 1.365 1_565 S
C522 H510 0.930 . S
C522 C521 1.365 1_545 S
C522 C523 1.393 1_545 S
C523 C522 1.393 1_565 S
C523 C524 1.387 . S
C524 H511 0.930 . S
C524 C519 1.415 . S
C524 C523 1.387 . S
H525 C533 0.930 . S
H526 C536 0.930 . S
H527 C538 0.930 . S
H528 C539 0.970 . S
H529 C539 0.970 . S
H530 C541 0.930 . S
H531 C543 0.930 . S
H532 C545 0.930 . S
C533 H525 0.930 . S
C533 C534 1.382 . S
C533 C535 1.426 . S
C534 C533 1.382 . S
C534 C538 1.389 1_455 S
C535 C533 1.426 . S
C535 C536 1.375 . S
C535 C539 1.532 . S
C536 H526 0.930 . S
C536 C535 1.375 . S
C536 C537 1.416 . S
C537 C536 1.416 . S
C537 C538 1.371 1_455 S
C538 H527 0.930 . S
C538 C534 1.389 1_655 S
C538 C537 1.371 1_655 S
C539 H528 0.970 . S
C539 H529 0.970 . S
C539 C535 1.532 . S
C539 C540 1.499 . S
C540 C539 1.499 . S
C540 C541 1.370 . S
C540 C545 1.415 . S
C541 H530 0.930 . S
C541 C540 1.370 . S
C541 C542 1.407 . S
C542 C541 1.407 . S
C542 C543 1.365 1_455 S
C543 H531 0.930 . S
C543 C542 1.365 1_655 S
C543 C544 1.393 1_655 S
C544 C543 1.393 1_455 S
C544 C545 1.387 . S
C545 H532 0.930 . S
C545 C540 1.415 . S
C545 C544 1.387 . S
H546 C554 0.930 . S
H547 C557 0.930 . S
H548 C559 0.930 . S
H549 C560 0.970 . S
H550 C560 0.970 . S
H551 C562 0.930 . S
H552 C564 0.930 . S
H553 C566 0.930 . S
C554 H546 0.930 . S
C554 C555 1.382 . S
C554 C556 1.426 . S
C555 C554 1.382 . S
C555 C559 1.389 . S
C556 C554 1.426 . S
C556 C557 1.375 . S
C556 C560 1.532 . S
C557 H547 0.930 . S
C557 C556 1.375 . S
C557 C558 1.416 . S
C558 C557 1.416 . S
C558 C559 1.371 . S
C559 H548 0.930 . S
C559 C555 1.389 . S
C559 C558 1.371 . S
C560 H549 0.970 . S
C560 H550 0.970 . S
C560 C556 1.532 . S
C560 C561 1.499 . S
C561 C560 1.499 . S
C561 C562 1.370 . S
C561 C566 1.415 . S
C562 H551 0.930 . S
C562 C561 1.370 . S
C562 C563 1.407 . S
C563 C562 1.407 . S
C563 C564 1.365 . S
C564 H552 0.930 . S
C564 C563 1.365 . S
C564 C565 1.393 . S
C565 C564 1.393 . S
C565 C566 1.387 . S
C566 H553 0.930 . S
C566 C561 1.415 . S
C566 C565 1.387 . S
H567 C575 0.930 . S
H568 C578 0.930 . S
H569 C580 0.930 . S
H570 C581 0.970 . S
H571 C581 0.970 . S
H572 C583 0.930 . S
H573 C585 0.930 . S
H574 C587 0.930 . S
C575 H567 0.930 . S
C575 C576 1.382 . S
C575 C577 1.426 . S
C576 C575 1.382 . S
C576 C580 1.389 . S
C577 C575 1.426 . S
C577 C578 1.375 . S
C577 C581 1.532 . S
C578 H568 0.930 . S
C578 C577 1.375 . S
C578 C579 1.416 . S
C579 C578 1.416 . S
C579 C580 1.371 . S
C580 H569 0.930 . S
C580 C576 1.389 . S
C580 C579 1.371 . S
C581 H570 0.970 . S
C581 H571 0.970 . S
C581 C577 1.532 . S
C581 C582 1.499 . S
C582 C581 1.499 . S
C582 C583 1.370 . S
C582 C587 1.415 . S
C583 H572 0.930 . S
C583 C582 1.370 . S
C583 C584 1.407 . S
C584 C583 1.407 . S
C584 C585 1.365 . S
C585 H573 0.930 . S
C585 C584 1.365 . S
C585 C586 1.393 . S
C586 C585 1.393 . S
C586 C587 1.387 . S
C587 H574 0.930 . S
C587 C582 1.415 . S
C587 C586 1.387 . S
H588 C596 0.930 . S
H589 C599 0.930 . S
H590 C601 0.930 . S
H591 C602 0.970 . S
H592 C602 0.970 . S
H593 C604 0.930 . S
H594 C606 0.930 . S
H595 C608 0.930 . S
C596 H588 0.930 . S
C596 C597 1.382 . S
C596 C598 1.426 . S
C597 C596 1.382 . S
C597 C601 1.389 . S
C598 C596 1.426 . S
C598 C599 1.375 . S
C598 C602 1.532 . S
C599 H589 0.930 . S
C599 C598 1.375 . S
C599 C600 1.416 . S
C600 C599 1.416 . S
C600 C601 1.371 . S
C601 H590 0.930 . S
C601 C597 1.389 . S
C601 C600 1.371 . S
C602 H591 0.970 . S
C602 H592 0.970 . S
C602 C598 1.532 . S
C602 C603 1.499 . S
C603 C602 1.499 . S
C603 C604 1.370 . S
C603 C608 1.415 . S
C604 H593 0.930 . S
C604 C603 1.370 . S
C604 C605 1.407 . S
C605 C604 1.407 . S
C605 C606 1.365 . S
C606 H594 0.930 . S
C606 C605 1.365 . S
C606 C607 1.393 . S
C607 C606 1.393 . S
C607 C608 1.387 . S
C608 H595 0.930 . S
C608 C603 1.415 . S
C608 C607 1.387 . S
H609 C617 0.930 . S
H610 C620 0.930 . S
H611 C622 0.930 . S
H612 C623 0.970 . S
H613 C623 0.970 . S
H614 C625 0.930 . S
H615 C627 0.930 . S
H616 C629 0.930 . S
C617 H609 0.930 . S
C617 C618 1.382 . S
C617 C619 1.426 . S
C618 C617 1.382 . S
C618 C622 1.389 . S
C619 C617 1.426 . S
C619 C620 1.375 . S
C619 C623 1.532 . S
C620 H610 0.930 . S
C620 C619 1.375 . S
C620 C621 1.416 . S
C621 C620 1.416 . S
C621 C622 1.371 . S
C622 H611 0.930 . S
C622 C618 1.389 . S
C622 C621 1.371 . S
C623 H612 0.970 . S
C623 H613 0.970 . S
C623 C619 1.532 . S
C623 C624 1.499 . S
C624 C623 1.499 . S
C624 C625 1.370 . S
C624 C629 1.415 . S
C625 H614 0.930 . S
C625 C624 1.370 . S
C625 C626 1.407 . S
C626 C625 1.407 . S
C626 C627 1.365 . S
C627 H615 0.930 . S
C627 C626 1.365 . S
C627 C628 1.393 . S
C628 C627 1.393 . S
C628 C629 1.387 . S
C629 H616 0.930 . S
C629 C624 1.415 . S
C629 C628 1.387 . S
H630 C636 0.930 . S
H631 C640 0.930 . S
H632 C645 0.929 . S
H633 C643 0.929 . S
H634 C638 0.929 . S
H635 C644 0.929 . S
C636 H630 0.930 . S
C636 C637 1.367 1_455 S
C636 C644 1.378 . S
C637 C636 1.367 1_655 S
C637 C645 1.433 . S
C638 H634 0.929 . S
C638 C640 1.378 . S
C638 C642 1.350 . S
C639 C642 1.463 . S
C639 C644 1.350 1_655 S
C639 N647 1.427 . S
C640 H631 0.930 . S
C640 C638 1.378 . S
C640 C641 1.367 . S
C641 C640 1.367 . S
C641 C643 1.433 1_655 S
C642 C638 1.350 . S
C642 C639 1.463 . S
C642 N646 1.427 1_655 S
C643 H633 0.929 . S
C643 C641 1.433 1_455 S
C643 N646 1.384 . S
C644 H635 0.929 . S
C644 C636 1.378 . S
C644 C639 1.350 1_455 S
C645 H632 0.929 . S
C645 C637 1.433 . S
C645 N647 1.384 . S
N646 C642 1.427 1_455 S
N646 C643 1.384 . S
N647 C639 1.427 . S
N647 C645 1.384 . S
H648 C654 0.930 . S
H649 C658 0.930 . S
H650 C663 0.929 . S
H651 C661 0.929 . S
H652 C656 0.929 . S
H653 C662 0.929 . S
C654 H648 0.930 . S
C654 C655 1.367 . S
C654 C662 1.378 . S
C655 C654 1.367 . S
C655 C663 1.433 . S
C656 H652 0.929 . S
C656 C658 1.378 . S
C656 C660 1.350 . S
C657 C660 1.463 . S
C657 C662 1.350 . S
C657 N665 1.427 . S
C658 H649 0.930 . S
C658 C656 1.378 . S
C658 C659 1.367 . S
C659 C658 1.367 . S
C659 C661 1.433 . S
C660 C656 1.350 . S
C660 C657 1.463 . S
C660 N664 1.427 . S
C661 H651 0.929 . S
C661 C659 1.433 . S
C661 N664 1.384 . S
C662 H653 0.929 . S
C662 C654 1.378 . S
C662 C657 1.350 . S
C663 H650 0.929 . S
C663 C655 1.433 . S
C663 N665 1.384 . S
N664 C660 1.427 . S
N664 C661 1.384 . S
N665 C657 1.427 . S
N665 C663 1.384 . S
H666 C672 0.930 . S
H667 C676 0.930 . S
H668 C681 0.929 . S
H669 C679 0.929 . S
H670 C674 0.929 . S
H671 C680 0.929 . S
C672 H666 0.930 . S
C672 C673 1.367 . S
C672 C680 1.378 . S
C673 C672 1.367 . S
C673 C681 1.433 1_545 S
C674 H670 0.929 . S
C674 C676 1.378 . S
C674 C678 1.350 1_565 S
C675 C678 1.463 . S
C675 C680 1.350 . S
C675 N683 1.427 1_545 S
C676 H667 0.930 . S
C676 C674 1.378 . S
C676 C677 1.367 1_565 S
C677 C676 1.367 1_545 S
C677 C679 1.433 . S
C678 C674 1.350 1_545 S
C678 C675 1.463 . S
C678 N682 1.427 . S
C679 H669 0.929 . S
C679 C677 1.433 . S
C679 N682 1.384 . S
C680 H671 0.929 . S
C680 C672 1.378 . S
C680 C675 1.350 . S
C681 H668 0.929 . S
C681 C673 1.433 1_565 S
C681 N683 1.384 . S
N682 C678 1.427 . S
N682 C679 1.384 . S
N683 C675 1.427 1_565 S
N683 C681 1.384 . S
H684 C690 0.930 . S
H685 C694 0.930 . S
H686 C699 0.929 . S
H687 C697 0.929 . S
H688 C692 0.929 . S
H689 C698 0.929 . S
C690 H684 0.930 . S
C690 C691 1.369 . S
C690 C698 1.378 . S
C691 C690 1.369 . S
C691 C699 1.433 1_565 S
C692 H688 0.929 . S
C692 C694 1.378 . S
C692 C696 1.350 1_545 S
C693 C696 1.463 . S
C693 C698 1.350 . S
C693 N701 1.427 1_565 S
C694 H685 0.930 . S
C694 C692 1.378 . S
C694 C695 1.367 1_545 S
C695 C694 1.367 1_565 S
C695 C697 1.433 . S
C696 C692 1.350 1_565 S
C696 C693 1.463 . S
C696 N700 1.427 . S
C697 H687 0.929 . S
C697 C695 1.433 . S
C697 N700 1.384 . S
C698 H689 0.929 . S
C698 C690 1.378 . S
C698 C693 1.350 . S
C699 H686 0.929 . S
C699 C691 1.433 1_545 S
C699 N701 1.384 . S
N700 C696 1.427 . S
N700 C697 1.384 . S
N701 C693 1.427 1_545 S
N701 C699 1.384 . S
H702 C708 0.930 . S
H703 C712 0.930 . S
H704 C717 0.929 . S
H705 C715 0.929 . S
H706 C710 0.929 . S
H707 C716 0.929 . S
C708 H702 0.930 . S
C708 C709 1.367 . S
C708 C716 1.378 . S
C709 C708 1.367 . S
C709 C717 1.433 1_455 S
C710 H706 0.929 . S
C710 C712 1.378 . S
C710 C714 1.350 1_655 S
C711 C714 1.463 . S
C711 C716 1.350 . S
C711 N719 1.427 1_455 S
C712 H703 0.930 . S
C712 C710 1.378 . S
C712 C713 1.367 1_655 S
C713 C712 1.367 1_455 S
C713 C715 1.433 . S
C714 C710 1.350 1_455 S
C714 C711 1.463 . S
C714 N718 1.427 . S
C715 H705 0.929 . S
C715 C713 1.433 . S
C715 N718 1.384 . S
C716 H707 0.929 . S
C716 C708 1.378 . S
C716 C711 1.350 . S
C717 H704 0.929 . S
C717 C709 1.433 1_655 S
C717 N719 1.384 . S
N718 C714 1.427 . S
N718 C715 1.384 . S
N719 C711 1.427 1_655 S
N719 C717 1.384 . S
H720 C726 0.930 . S
H721 C730 0.930 . S
H722 C735 0.929 . S
H723 C733 0.929 . S
H724 C728 0.929 . S
H725 C734 0.929 . S
C726 H720 0.930 . S
C726 C727 1.367 . S
C726 C734 1.378 . S
C727 C726 1.367 . S
C727 C735 1.433 . S
C728 H724 0.929 . S
C728 C730 1.378 . S
C728 C732 1.350 . S
C729 C732 1.463 . S
C729 C734 1.350 . S
C729 N737 1.427 . S
C730 H721 0.930 . S
C730 C728 1.378 . S
C730 C731 1.367 . S
C731 C730 1.367 . S
C731 C733 1.433 . S
C732 C728 1.350 . S
C732 C729 1.463 . S
C732 N736 1.427 . S
C733 H723 0.929 . S
C733 C731 1.433 . S
C733 N736 1.384 . S
C734 H725 0.929 . S
C734 C726 1.378 . S
C734 C729 1.350 . S
C735 H722 0.929 . S
C735 C727 1.433 . S
C735 N737 1.384 . S
N736 C732 1.427 . S
N736 C733 1.384 . S
N737 C729 1.427 . S
N737 C735 1.384 . S
H738 C744 0.930 . S
H739 C748 0.930 . S
H740 C753 0.929 . S
H741 C751 0.929 . S
H742 C746 0.929 . S
H743 C752 0.929 . S
C744 H738 0.930 . S
C744 C745 1.367 1_655 S
C744 C752 1.378 . S
C745 C744 1.367 1_455 S
C745 C753 1.433 . S
C746 H742 0.929 . S
C746 C748 1.378 . S
C746 C750 1.350 . S
C747 C750 1.489 . S
C747 C752 1.305 1_455 S
C747 N755 1.452 . S
C748 H739 0.930 . S
C748 C746 1.378 . S
C748 C749 1.392 . S
C749 C748 1.392 . S
C749 C751 1.385 1_455 S
C750 C746 1.350 . S
C750 C747 1.489 . S
C750 N754 1.427 1_455 S
C751 H741 0.929 . S
C751 C749 1.385 1_655 S
C751 N754 1.384 . S
C752 H743 0.929 . S
C752 C744 1.378 . S
C752 C747 1.305 1_655 S
C753 H740 0.929 . S
C753 C745 1.433 . S
C753 N755 1.384 . S
N754 C750 1.427 1_655 S
N754 C751 1.384 . S
N755 C747 1.452 . S
N755 C753 1.384 . S
H756 C762 0.930 . S
H757 C766 0.930 . S
H758 C771 0.929 . S
H759 C769 0.929 . S
H760 C764 0.929 . S
H761 C770 0.929 . S
C762 H756 0.930 . S
C762 C763 1.367 . S
C762 C770 1.378 . S
C763 C762 1.367 . S
C763 C771 1.433 . S
C764 H760 0.929 . S
C764 C766 1.378 . S
C764 C768 1.350 . S
C765 C768 1.463 . S
C765 C770 1.350 . S
C765 N773 1.427 . S
C766 H757 0.930 . S
C766 C764 1.378 . S
C766 C767 1.367 . S
C767 C766 1.367 . S
C767 C769 1.433 . S
C768 C764 1.350 . S
C768 C765 1.463 . S
C768 N772 1.427 . S
C769 H759 0.929 . S
C769 C767 1.433 . S
C769 N772 1.384 . S
C770 H761 0.929 . S
C770 C762 1.378 . S
C770 C765 1.350 . S
C771 H758 0.929 . S
C771 C763 1.433 . S
C771 N773 1.384 . S
N772 C768 1.427 . S
N772 C769 1.384 . S
N773 C765 1.427 . S
N773 C771 1.384 . S
H774 C780 0.930 . S
H775 C784 0.930 . S
H776 C789 0.929 . S
H777 C787 0.929 . S
H778 C782 0.929 . S
H779 C788 0.929 . S
C780 H774 0.930 . S
C780 C781 1.367 1_545 S
C780 C788 1.378 . S
C781 C780 1.367 1_565 S
C781 C789 1.433 . S
C782 H778 0.929 . S
C782 C784 1.378 . S
C782 C786 1.350 . S
C783 C786 1.450 . S
C783 C788 1.333 1_565 S
C783 N791 1.459 . S
C784 H775 0.930 . S
C784 C782 1.378 . S
C784 C785 1.367 . S
C785 C784 1.367 . S
C785 C787 1.433 1_565 S
C786 C782 1.350 . S
C786 C783 1.450 . S
C786 N790 1.427 1_565 S
C787 H777 0.929 . S
C787 C785 1.433 1_545 S
C787 N790 1.384 . S
C788 H779 0.929 . S
C788 C780 1.378 . S
C788 C783 1.333 1_545 S
C789 H776 0.929 . S
C789 C781 1.433 . S
C789 N791 1.384 . S
N790 C786 1.427 1_545 S
N790 C787 1.384 . S
N791 C783 1.459 . S
N791 C789 1.384 . S
H792 C798 0.930 . S
H793 C802 0.930 . S
H794 C807 0.929 . S
H795 C805 0.929 . S
H796 C800 0.929 . S
H797 C806 0.929 . S
C798 H792 0.930 . S
C798 C799 1.367 1_565 S
C798 C806 1.378 . S
C799 C798 1.367 1_545 S
C799 C807 1.433 . S
C800 H796 0.929 . S
C800 C802 1.378 . S
C800 C804 1.350 . S
C801 C804 1.463 . S
C801 C806 1.350 1_545 S
C801 N809 1.427 . S
C802 H793 0.930 . S
C802 C800 1.378 . S
C802 C803 1.367 . S
C803 C802 1.367 . S
C803 C805 1.433 1_545 S
C804 C800 1.350 . S
C804 C801 1.463 . S
C804 N808 1.427 1_545 S
C805 H795 0.929 . S
C805 C803 1.433 1_565 S
C805 N808 1.384 . S
C806 H797 0.929 . S
C806 C798 1.378 . S
C806 C801 1.350 1_565 S
C807 H794 0.929 . S
C807 C799 1.433 . S
C807 N809 1.384 . S
N808 C804 1.427 1_565 S
N808 C805 1.384 . S
N809 C801 1.427 . S
N809 C807 1.384 . S
H810 C816 0.930 . S
H811 C820 0.930 . S
H812 C825 0.929 . S
H813 C823 0.929 . S
H814 C818 0.929 . S
H815 C824 0.929 . S
C816 H810 0.930 . S
C816 C817 1.367 . S
C816 C824 1.378 . S
C817 C816 1.367 . S
C817 C825 1.433 1_655 S
C818 H814 0.929 . S
C818 C820 1.378 . S
C818 C822 1.325 1_455 S
C819 C822 1.474 . S
C819 C824 1.350 . S
C819 N827 1.427 1_655 S
C820 H811 0.930 . S
C820 C818 1.378 . S
C820 C821 1.353 1_455 S
C821 C820 1.353 1_655 S
C821 C823 1.457 . S
C822 C818 1.325 1_655 S
C822 C819 1.474 . S
C822 N826 1.443 . S
C823 H813 0.929 . S
C823 C821 1.457 . S
C823 N826 1.384 . S
C824 H815 0.929 . S
C824 C816 1.378 . S
C824 C819 1.350 . S
C825 H812 0.929 . S
C825 C817 1.433 1_455 S
C825 N827 1.384 . S
N826 C822 1.443 . S
N826 C823 1.384 . S
N827 C819 1.427 1_455 S
N827 C825 1.384 . S
H828 C834 0.930 . S
H829 C838 0.930 . S
H830 C843 0.929 . S
H831 C841 0.929 . S
H832 C836 0.929 . S
H833 C842 0.929 . S
C834 H828 0.930 . S
C834 C835 1.367 . S
C834 C842 1.378 . S
C835 C834 1.367 . S
C835 C843 1.433 . S
C836 H832 0.929 . S
C836 C838 1.378 . S
C836 C840 1.350 . S
C837 C840 1.463 . S
C837 C842 1.350 . S
C837 N845 1.427 . S
C838 H829 0.930 . S
C838 C836 1.378 . S
C838 C839 1.367 . S
C839 C838 1.367 . S
C839 C841 1.433 . S
C840 C836 1.350 . S
C840 C837 1.463 . S
C840 N844 1.427 . S
C841 H831 0.929 . S
C841 C839 1.433 . S
C841 N844 1.384 . S
C842 H833 0.929 . S
C842 C834 1.378 . S
C842 C837 1.350 . S
C843 H830 0.929 . S
C843 C835 1.433 . S
C843 N845 1.384 . S
N844 C840 1.427 . S
N844 C841 1.384 . S
N845 C837 1.427 . S
N845 C843 1.384 . S
H846 C852 0.930 . S
H847 C856 0.930 . S
H848 C861 0.929 . S
H849 C859 0.929 . S
H850 C854 0.929 . S
H851 C860 0.929 . S
C852 H846 0.930 . S
C852 C853 1.367 . S
C852 C860 1.378 . S
C853 C852 1.367 . S
C853 C861 1.433 . S
C854 H850 0.929 . S
C854 C856 1.378 . S
C854 C858 1.350 . S
C855 C858 1.463 . S
C855 C860 1.350 . S
C855 N863 1.427 . S
C856 H847 0.930 . S
C856 C854 1.378 . S
C856 C857 1.367 . S
C857 C856 1.367 . S
C857 C859 1.433 . S
C858 C854 1.350 . S
C858 C855 1.463 . S
C858 N862 1.427 . S
C859 H849 0.929 . S
C859 C857 1.433 . S
C859 N862 1.384 . S
C860 H851 0.929 . S
C860 C852 1.378 . S
C860 C855 1.350 . S
C861 H848 0.929 . S
C861 C853 1.433 . S
C861 N863 1.384 . S
N862 C858 1.427 . S
N862 C859 1.384 . S
N863 C855 1.427 . S
N863 C861 1.384 . S
H864 C870 0.930 . S
H865 C874 0.930 . S
H866 C879 0.929 . S
H867 C877 0.929 . S
H868 C872 0.929 . S
H869 C878 0.929 . S
C870 H864 0.930 . S
C870 C871 1.367 . S
C870 C878 1.378 . S
C871 C870 1.367 . S
C871 C879 1.433 . S
C872 H868 0.929 . S
C872 C874 1.378 . S
C872 C876 1.350 . S
C873 C876 1.463 . S
C873 C878 1.350 . S
C873 N881 1.427 . S
C874 H865 0.930 . S
C874 C872 1.378 . S
C874 C875 1.367 . S
C875 C874 1.367 . S
C875 C877 1.433 . S
C876 C872 1.350 . S
C876 C873 1.463 . S
C876 N880 1.427 . S
C877 H867 0.929 . S
C877 C875 1.433 . S
C877 N880 1.384 . S
C878 H869 0.929 . S
C878 C870 1.378 . S
C878 C873 1.350 . S
C879 H866 0.929 . S
C879 C871 1.433 . S
C879 N881 1.384 . S
N880 C876 1.427 . S
N880 C877 1.384 . S
N881 C873 1.427 . S
N881 C879 1.384 . S
H882 C888 0.930 . S
H883 C892 0.930 . S
H884 C897 0.929 . S
H885 C895 0.929 . S
H886 C890 0.929 . S
H887 C896 0.929 . S
C888 H882 0.930 . S
C888 C889 1.367 . S
C888 C896 1.378 . S
C889 C888 1.367 . S
C889 C897 1.433 . S
C890 H886 0.929 . S
C890 C892 1.378 . S
C890 C894 1.350 . S
C891 C894 1.463 . S
C891 C896 1.350 . S
C891 N899 1.427 . S
C892 H883 0.930 . S
C892 C890 1.378 . S
C892 C893 1.367 . S
C893 C892 1.367 . S
C893 C895 1.433 . S
C894 C890 1.350 . S
C894 C891 1.463 . S
C894 N898 1.427 . S
C895 H885 0.929 . S
C895 C893 1.433 . S
C895 N898 1.384 . S
C896 H887 0.929 . S
C896 C888 1.378 . S
C896 C891 1.350 . S
C897 H884 0.929 . S
C897 C889 1.433 . S
C897 N899 1.384 . S
N898 C894 1.427 . S
N898 C895 1.384 . S
N899 C891 1.427 . S
N899 C897 1.384 . S
H900 C906 0.930 . S
H901 C910 0.930 . S
H902 C915 0.929 . S
H903 C913 0.929 . S
H904 C908 0.929 . S
H905 C914 0.929 . S
C906 H900 0.930 . S
C906 C907 1.367 . S
C906 C914 1.378 . S
C907 C906 1.367 . S
C907 C915 1.433 . S
C908 H904 0.929 . S
C908 C910 1.378 . S
C908 C912 1.350 . S
C909 C912 1.463 . S
C909 C914 1.350 . S
C909 N917 1.427 . S
C910 H901 0.930 . S
C910 C908 1.378 . S
C910 C911 1.367 . S
C911 C910 1.367 . S
C911 C913 1.433 . S
C912 C908 1.350 . S
C912 C909 1.463 . S
C912 N916 1.427 . S
C913 H903 0.929 . S
C913 C911 1.433 . S
C913 N916 1.384 . S
C914 H905 0.929 . S
C914 C906 1.378 . S
C914 C909 1.350 . S
C915 H902 0.929 . S
C915 C907 1.433 . S
C915 N917 1.384 . S
N916 C912 1.427 . S
N916 C913 1.384 . S
N917 C909 1.427 . S
N917 C915 1.384 . S
H918 C924 0.930 . S
H919 C928 0.930 . S
H920 C933 0.929 . S
H921 C931 0.929 . S
H922 C926 0.929 . S
H923 C932 0.929 . S
C924 H918 0.930 . S
C924 C925 1.367 . S
C924 C932 1.378 . S
C925 C924 1.367 . S
C925 C933 1.433 . S
C926 H922 0.929 . S
C926 C928 1.378 . S
C926 C930 1.350 . S
C927 C930 1.463 . S
C927 C932 1.350 . S
C927 N935 1.427 . S
C928 H919 0.930 . S
C928 C926 1.378 . S
C928 C929 1.367 . S
C929 C928 1.367 . S
C929 C931 1.433 . S
C930 C926 1.350 . S
C930 C927 1.463 . S
C930 N934 1.427 . S
C931 H921 0.929 . S
C931 C929 1.433 . S
C931 N934 1.384 . S
C932 H923 0.929 . S
C932 C924 1.378 . S
C932 C927 1.350 . S
C933 H920 0.929 . S
C933 C925 1.433 . S
C933 N935 1.384 . S
N934 C930 1.427 . S
N934 C931 1.384 . S
N935 C927 1.427 . S
N935 C933 1.384 . S
H936 C942 0.930 . S
H937 C946 0.930 . S
H938 C951 0.929 . S
H939 C949 0.929 . S
H940 C944 0.929 . S
H941 C950 0.929 . S
C942 H936 0.930 . S
C942 C943 1.367 . S
C942 C950 1.378 . S
C943 C942 1.367 . S
C943 C951 1.433 . S
C944 H940 0.929 . S
C944 C946 1.378 . S
C944 C948 1.350 . S
C945 C948 1.463 . S
C945 C950 1.350 . S
C945 N953 1.427 . S
C946 H937 0.930 . S
C946 C944 1.378 . S
C946 C947 1.367 . S
C947 C946 1.367 . S
C947 C949 1.433 . S
C948 C944 1.350 . S
C948 C945 1.463 . S
C948 N952 1.427 . S
C949 H939 0.929 . S
C949 C947 1.433 . S
C949 N952 1.384 . S
C950 H941 0.929 . S
C950 C942 1.378 . S
C950 C945 1.350 . S
C951 H938 0.929 . S
C951 C943 1.433 . S
C951 N953 1.384 . S
N952 C948 1.427 . S
N952 C949 1.384 . S
N953 C945 1.427 . S
N953 C951 1.384 . S
H954 C960 0.930 . S
H955 C964 0.930 . S
H956 C969 0.929 . S
H957 C967 0.929 . S
H958 C962 0.929 . S
H959 C968 0.929 . S
C960 H954 0.930 . S
C960 C961 1.367 . S
C960 C968 1.378 . S
C961 C960 1.367 . S
C961 C969 1.433 . S
C962 H958 0.929 . S
C962 C964 1.378 . S
C962 C966 1.350 . S
C963 C966 1.463 . S
C963 C968 1.350 . S
C963 N971 1.427 . S
C964 H955 0.930 . S
C964 C962 1.378 . S
C964 C965 1.367 . S
C965 C964 1.367 . S
C965 C967 1.433 . S
C966 C962 1.350 . S
C966 C963 1.463 . S
C966 N970 1.427 . S
C967 H957 0.929 . S
C967 C965 1.433 . S
C967 N970 1.384 . S
C968 H959 0.929 . S
C968 C960 1.378 . S
C968 C963 1.350 . S
C969 H956 0.929 . S
C969 C961 1.433 . S
C969 N971 1.384 . S
N970 C966 1.427 . S
N970 C967 1.384 . S
N971 C963 1.427 . S
N971 C969 1.384 . S
H972 C978 0.930 . S
H973 C982 0.930 . S
H974 C987 0.929 . S
H975 C985 0.929 . S
H976 C980 0.929 . S
H977 C986 0.929 . S
C978 H972 0.930 . S
C978 C979 1.367 . S
C978 C986 1.378 . S
C979 C978 1.367 . S
C979 C987 1.433 . S
C980 H976 0.929 . S
C980 C982 1.378 . S
C980 C984 1.350 . S
C981 C984 1.463 . S
C981 C986 1.350 . S
C981 N989 1.427 . S
C982 H973 0.930 . S
C982 C980 1.378 . S
C982 C983 1.367 . S
C983 C982 1.367 . S
C983 C985 1.433 . S
C984 C980 1.350 . S
C984 C981 1.463 . S
C984 N988 1.427 . S
C985 H975 0.929 . S
C985 C983 1.433 . S
C985 N988 1.384 . S
C986 H977 0.929 . S
C986 C978 1.378 . S
C986 C981 1.350 . S
C987 H974 0.929 . S
C987 C979 1.433 . S
C987 N989 1.384 . S
N988 C984 1.427 . S
N988 C985 1.384 . S
N989 C981 1.427 . S
N989 C987 1.384 . S
H990 C996 0.930 . S
H991 C1000 0.930 . S
H992 C1005 0.929 . S
H993 C1003 0.929 . S
H994 C998 0.929 . S
H995 C1004 0.929 . S
C996 H990 0.930 . S
C996 C997 1.367 . S
C996 C1004 1.378 . S
C997 C996 1.367 . S
C997 C1005 1.433 . S
C998 H994 0.929 . S
C998 C1000 1.378 . S
C998 C1002 1.350 . S
C999 C1002 1.463 . S
C999 C1004 1.350 . S
C999 N1007 1.427 . S
C1000 H991 0.930 . S
C1000 C998 1.378 . S
C1000 C1001 1.367 . S
C1001 C1000 1.367 . S
C1001 C1003 1.433 . S
C1002 C998 1.350 . S
C1002 C999 1.463 . S
C1002 N1006 1.427 . S
C1003 H993 0.929 . S
C1003 C1001 1.433 . S
C1003 N1006 1.384 . S
C1004 H995 0.929 . S
C1004 C996 1.378 . S
C1004 C999 1.350 . S
C1005 H992 0.929 . S
C1005 C997 1.433 . S
C1005 N1007 1.384 . S
N1006 C1002 1.427 . S
N1006 C1003 1.384 . S
N1007 C999 1.427 . S
N1007 C1005 1.384 . S
H1008 C1014 0.930 . S
H1009 C1018 0.930 . S
H1010 C1023 0.929 . S
H1011 C1021 0.929 . S
H1012 C1016 0.929 . S
H1013 C1022 0.929 . S
C1014 H1008 0.930 . S
C1014 C1015 1.367 . S
C1014 C1022 1.378 . S
C1015 C1014 1.367 . S
C1015 C1023 1.433 . S
C1016 H1012 0.929 . S
C1016 C1018 1.378 . S
C1016 C1020 1.350 . S
C1017 C1020 1.463 . S
C1017 C1022 1.350 . S
C1017 N1025 1.427 . S
C1018 H1009 0.930 . S
C1018 C1016 1.378 . S
C1018 C1019 1.367 . S
C1019 C1018 1.367 . S
C1019 C1021 1.433 . S
C1020 C1016 1.350 . S
C1020 C1017 1.463 . S
C1020 N1024 1.427 . S
C1021 H1011 0.929 . S
C1021 C1019 1.433 . S
C1021 N1024 1.384 . S
C1022 H1013 0.929 . S
C1022 C1014 1.378 . S
C1022 C1017 1.350 . S
C1023 H1010 0.929 . S
C1023 C1015 1.433 . S
C1023 N1025 1.384 . S
N1024 C1020 1.427 . S
N1024 C1021 1.384 . S
N1025 C1017 1.427 . S
N1025 C1023 1.384 . S
H1026 C1032 0.930 . S
H1027 C1036 0.930 . S
H1028 C1041 0.929 . S
H1029 C1039 0.929 . S
H1030 C1034 0.929 . S
H1031 C1040 0.929 . S
C1032 H1026 0.930 . S
C1032 C1033 1.367 . S
C1032 C1040 1.378 . S
C1033 C1032 1.367 . S
C1033 C1041 1.433 . S
C1034 H1030 0.929 . S
C1034 C1036 1.378 . S
C1034 C1038 1.350 . S
C1035 C1038 1.463 . S
C1035 C1040 1.350 . S
C1035 N1043 1.427 . S
C1036 H1027 0.930 . S
C1036 C1034 1.378 . S
C1036 C1037 1.367 . S
C1037 C1036 1.367 . S
C1037 C1039 1.433 . S
C1038 C1034 1.350 . S
C1038 C1035 1.463 . S
C1038 N1042 1.427 . S
C1039 H1029 0.929 . S
C1039 C1037 1.433 . S
C1039 N1042 1.384 . S
C1040 H1031 0.929 . S
C1040 C1032 1.378 . S
C1040 C1035 1.350 . S
C1041 H1028 0.929 . S
C1041 C1033 1.433 . S
C1041 N1043 1.384 . S
N1042 C1038 1.427 . S
N1042 C1039 1.384 . S
N1043 C1035 1.427 . S
N1043 C1041 1.384 . S
H1044 C1050 0.930 . S
H1045 C1054 0.930 . S
H1046 C1059 0.929 . S
H1047 C1057 0.929 . S
H1048 C1052 0.929 . S
H1049 C1058 0.929 . S
C1050 H1044 0.930 . S
C1050 C1051 1.367 . S
C1050 C1058 1.378 . S
C1051 C1050 1.367 . S
C1051 C1059 1.433 . S
C1052 H1048 0.929 . S
C1052 C1054 1.378 . S
C1052 C1056 1.350 . S
C1053 C1056 1.463 . S
C1053 C1058 1.350 . S
C1053 N1061 1.427 . S
C1054 H1045 0.930 . S
C1054 C1052 1.378 . S
C1054 C1055 1.367 . S
C1055 C1054 1.367 . S
C1055 C1057 1.433 . S
C1056 C1052 1.350 . S
C1056 C1053 1.463 . S
C1056 N1060 1.427 . S
C1057 H1047 0.929 . S
C1057 C1055 1.433 . S
C1057 N1060 1.384 . S
C1058 H1049 0.929 . S
C1058 C1050 1.378 . S
C1058 C1053 1.350 . S
C1059 H1046 0.929 . S
C1059 C1051 1.433 . S
C1059 N1061 1.384 . S
N1060 C1056 1.427 . S
N1060 C1057 1.384 . S
N1061 C1053 1.427 . S
N1061 C1059 1.384 . S
H1062 C1068 0.930 . S
H1063 C1072 0.930 . S
H1064 C1077 0.929 . S
H1065 C1075 0.929 . S
H1066 C1070 0.929 . S
H1067 C1076 0.929 . S
C1068 H1062 0.930 . S
C1068 C1069 1.367 . S
C1068 C1076 1.378 . S
C1069 C1068 1.367 . S
C1069 C1077 1.433 . S
C1070 H1066 0.929 . S
C1070 C1072 1.378 . S
C1070 C1074 1.350 . S
C1071 C1074 1.463 . S
C1071 C1076 1.350 . S
C1071 N1079 1.427 . S
C1072 H1063 0.930 . S
C1072 C1070 1.378 . S
C1072 C1073 1.367 . S
C1073 C1072 1.367 . S
C1073 C1075 1.433 . S
C1074 C1070 1.350 . S
C1074 C1071 1.463 . S
C1074 N1078 1.427 . S
C1075 H1065 0.929 . S
C1075 C1073 1.433 . S
C1075 N1078 1.384 . S
C1076 H1067 0.929 . S
C1076 C1068 1.378 . S
C1076 C1071 1.350 . S
C1077 H1064 0.929 . S
C1077 C1069 1.433 . S
C1077 N1079 1.384 . S
N1078 C1074 1.427 . S
N1078 C1075 1.384 . S
N1079 C1071 1.427 . S
N1079 C1077 1.384 . S
H1080 C1086 0.930 . S
H1081 C1090 0.930 . S
H1082 C1095 0.929 . S
H1083 C1093 0.929 . S
H1084 C1088 0.929 . S
H1085 C1094 0.929 . S
C1086 H1080 0.930 . S
C1086 C1087 1.367 . S
C1086 C1094 1.378 . S
C1087 C1086 1.367 . S
C1087 C1095 1.433 . S
C1088 H1084 0.929 . S
C1088 C1090 1.378 . S
C1088 C1092 1.350 . S
C1089 C1092 1.463 . S
C1089 C1094 1.350 . S
C1089 N1097 1.427 . S
C1090 H1081 0.930 . S
C1090 C1088 1.378 . S
C1090 C1091 1.367 . S
C1091 C1090 1.367 . S
C1091 C1093 1.433 . S
C1092 C1088 1.350 . S
C1092 C1089 1.463 . S
C1092 N1096 1.427 . S
C1093 H1083 0.929 . S
C1093 C1091 1.433 . S
C1093 N1096 1.384 . S
C1094 H1085 0.929 . S
C1094 C1086 1.378 . S
C1094 C1089 1.350 . S
C1095 H1082 0.929 . S
C1095 C1087 1.433 . S
C1095 N1097 1.384 . S
N1096 C1092 1.427 . S
N1096 C1093 1.384 . S
N1097 C1089 1.427 . S
N1097 C1095 1.384 . S
H1098 C1104 0.930 . S
H1099 C1108 0.930 . S
H1100 C1113 0.929 . S
H1101 C1111 0.929 . S
H1102 C1106 0.929 . S
H1103 C1112 0.929 . S
C1104 H1098 0.930 . S
C1104 C1105 1.367 . S
C1104 C1112 1.378 . S
C1105 C1104 1.367 . S
C1105 C1113 1.433 . S
C1106 H1102 0.929 . S
C1106 C1108 1.378 . S
C1106 C1110 1.350 . S
C1107 C1110 1.463 . S
C1107 C1112 1.350 . S
C1107 N1115 1.427 . S
C1108 H1099 0.930 . S
C1108 C1106 1.378 . S
C1108 C1109 1.367 . S
C1109 C1108 1.367 . S
C1109 C1111 1.433 . S
C1110 C1106 1.350 . S
C1110 C1107 1.463 . S
C1110 N1114 1.427 . S
C1111 H1101 0.929 . S
C1111 C1109 1.433 . S
C1111 N1114 1.384 . S
C1112 H1103 0.929 . S
C1112 C1104 1.378 . S
C1112 C1107 1.350 . S
C1113 H1100 0.929 . S
C1113 C1105 1.433 . S
C1113 N1115 1.384 . S
N1114 C1110 1.427 . S
N1114 C1111 1.384 . S
N1115 C1107 1.427 . S
N1115 C1113 1.384 . S
H1116 C1122 0.930 . S
H1117 C1126 0.930 . S
H1118 C1131 0.929 . S
H1119 C1129 0.929 . S
H1120 C1124 0.929 . S
H1121 C1130 0.929 . S
C1122 H1116 0.930 . S
C1122 C1123 1.367 . S
C1122 C1130 1.378 . S
C1123 C1122 1.367 . S
C1123 C1131 1.433 . S
C1124 H1120 0.929 . S
C1124 C1126 1.378 . S
C1124 C1128 1.350 . S
C1125 C1128 1.463 . S
C1125 C1130 1.350 . S
C1125 N1133 1.427 . S
C1126 H1117 0.930 . S
C1126 C1124 1.378 . S
C1126 C1127 1.367 . S
C1127 C1126 1.367 . S
C1127 C1129 1.433 . S
C1128 C1124 1.350 . S
C1128 C1125 1.463 . S
C1128 N1132 1.427 . S
C1129 H1119 0.929 . S
C1129 C1127 1.433 . S
C1129 N1132 1.384 . S
C1130 H1121 0.929 . S
C1130 C1122 1.378 . S
C1130 C1125 1.350 . S
C1131 H1118 0.929 . S
C1131 C1123 1.433 . S
C1131 N1133 1.384 . S
N1132 C1128 1.427 . S
N1132 C1129 1.384 . S
N1133 C1125 1.427 . S
N1133 C1131 1.384 . S
H1134 C1140 0.930 . S
H1135 C1144 0.930 . S
H1136 C1149 0.929 . S
H1137 C1147 0.929 . S
H1138 C1142 0.929 . S
H1139 C1148 0.929 . S
C1140 H1134 0.930 . S
C1140 C1141 1.367 . S
C1140 C1148 1.378 . S
C1141 C1140 1.367 . S
C1141 C1149 1.433 . S
C1142 H1138 0.929 . S
C1142 C1144 1.378 . S
C1142 C1146 1.350 . S
C1143 C1146 1.463 . S
C1143 C1148 1.350 . S
C1143 N1151 1.427 . S
C1144 H1135 0.930 . S
C1144 C1142 1.378 . S
C1144 C1145 1.367 . S
C1145 C1144 1.367 . S
C1145 C1147 1.433 . S
C1146 C1142 1.350 . S
C1146 C1143 1.463 . S
C1146 N1150 1.427 . S
C1147 H1137 0.929 . S
C1147 C1145 1.433 . S
C1147 N1150 1.384 . S
C1148 H1139 0.929 . S
C1148 C1140 1.378 . S
C1148 C1143 1.350 . S
C1149 H1136 0.929 . S
C1149 C1141 1.433 . S
C1149 N1151 1.384 . S
N1150 C1146 1.427 . S
N1150 C1147 1.384 . S
N1151 C1143 1.427 . S
N1151 C1149 1.384 . S
H1152 C1158 0.930 . S
H1153 C1162 0.930 . S
H1154 C1167 0.929 . S
H1155 C1165 0.929 . S
H1156 C1160 0.929 . S
H1157 C1166 0.929 . S
C1158 H1152 0.930 . S
C1158 C1159 1.367 . S
C1158 C1166 1.378 . S
C1159 C1158 1.367 . S
C1159 C1167 1.433 . S
C1160 H1156 0.929 . S
C1160 C1162 1.378 . S
C1160 C1164 1.350 . S
C1161 C1164 1.463 . S
C1161 C1166 1.350 . S
C1161 N1169 1.427 . S
C1162 H1153 0.930 . S
C1162 C1160 1.378 . S
C1162 C1163 1.367 . S
C1163 C1162 1.367 . S
C1163 C1165 1.433 . S
C1164 C1160 1.350 . S
C1164 C1161 1.463 . S
C1164 N1168 1.427 . S
C1165 H1155 0.929 . S
C1165 C1163 1.433 . S
C1165 N1168 1.384 . S
C1166 H1157 0.929 . S
C1166 C1158 1.378 . S
C1166 C1161 1.350 . S
C1167 H1154 0.929 . S
C1167 C1159 1.433 . S
C1167 N1169 1.384 . S
N1168 C1164 1.427 . S
N1168 C1165 1.384 . S
N1169 C1161 1.427 . S
N1169 C1167 1.384 . S
H1170 C1176 0.930 . S
H1171 C1180 0.930 . S
H1172 C1185 0.929 . S
H1173 C1183 0.929 . S
H1174 C1178 0.929 . S
H1175 C1184 0.929 . S
C1176 H1170 0.930 . S
C1176 C1177 1.367 . S
C1176 C1184 1.378 . S
C1177 C1176 1.367 . S
C1177 C1185 1.433 . S
C1178 H1174 0.929 . S
C1178 C1180 1.378 . S
C1178 C1182 1.350 . S
C1179 C1182 1.463 . S
C1179 C1184 1.350 . S
C1179 N1187 1.427 . S
C1180 H1171 0.930 . S
C1180 C1178 1.378 . S
C1180 C1181 1.367 . S
C1181 C1180 1.367 . S
C1181 C1183 1.433 . S
C1182 C1178 1.350 . S
C1182 C1179 1.463 . S
C1182 N1186 1.427 . S
C1183 H1173 0.929 . S
C1183 C1181 1.433 . S
C1183 N1186 1.384 . S
C1184 H1175 0.929 . S
C1184 C1176 1.378 . S
C1184 C1179 1.350 . S
C1185 H1172 0.929 . S
C1185 C1177 1.433 . S
C1185 N1187 1.384 . S
N1186 C1182 1.427 . S
N1186 C1183 1.384 . S
N1187 C1179 1.427 . S
N1187 C1185 1.384 . S
H1188 C1194 0.930 . S
H1189 C1198 0.930 . S
H1190 C1203 0.929 . S
H1191 C1201 0.929 . S
H1192 C1196 0.929 . S
H1193 C1202 0.929 . S
C1194 H1188 0.930 . S
C1194 C1195 1.367 . S
C1194 C1202 1.378 . S
C1195 C1194 1.367 . S
C1195 C1203 1.433 . S
C1196 H1192 0.929 . S
C1196 C1198 1.378 . S
C1196 C1200 1.350 . S
C1197 C1200 1.463 . S
C1197 C1202 1.350 . S
C1197 N1205 1.427 . S
C1198 H1189 0.930 . S
C1198 C1196 1.378 . S
C1198 C1199 1.367 . S
C1199 C1198 1.367 . S
C1199 C1201 1.433 . S
C1200 C1196 1.350 . S
C1200 C1197 1.463 . S
C1200 N1204 1.427 . S
C1201 H1191 0.929 . S
C1201 C1199 1.433 . S
C1201 N1204 1.384 . S
C1202 H1193 0.929 . S
C1202 C1194 1.378 . S
C1202 C1197 1.350 . S
C1203 H1190 0.929 . S
C1203 C1195 1.433 . S
C1203 N1205 1.384 . S
N1204 C1200 1.427 . S
N1204 C1201 1.384 . S
N1205 C1197 1.427 . S
N1205 C1203 1.384 . S
H1206 C1212 0.930 . S
H1207 C1216 0.930 . S
H1208 C1221 0.929 . S
H1209 C1219 0.929 . S
H1210 C1214 0.929 . S
H1211 C1220 0.929 . S
C1212 H1206 0.930 . S
C1212 C1213 1.367 . S
C1212 C1220 1.378 . S
C1213 C1212 1.367 . S
C1213 C1221 1.433 . S
C1214 H1210 0.929 . S
C1214 C1216 1.378 . S
C1214 C1218 1.350 . S
C1215 C1218 1.463 . S
C1215 C1220 1.350 . S
C1215 N1223 1.427 . S
C1216 H1207 0.930 . S
C1216 C1214 1.378 . S
C1216 C1217 1.367 . S
C1217 C1216 1.367 . S
C1217 C1219 1.433 . S
C1218 C1214 1.350 . S
C1218 C1215 1.463 . S
C1218 N1222 1.427 . S
C1219 H1209 0.929 . S
C1219 C1217 1.433 . S
C1219 N1222 1.384 . S
C1220 H1211 0.929 . S
C1220 C1212 1.378 . S
C1220 C1215 1.350 . S
C1221 H1208 0.929 . S
C1221 C1213 1.433 . S
C1221 N1223 1.384 . S
N1222 C1218 1.427 . S
N1222 C1219 1.384 . S
N1223 C1215 1.427 . S
N1223 C1221 1.384 . S
H1224 C1230 0.930 . S
H1225 C1234 0.930 . S
H1226 C1239 0.929 . S
H1227 C1237 0.929 . S
H1228 C1232 0.929 . S
H1229 C1238 0.929 . S
C1230 H1224 0.930 . S
C1230 C1231 1.367 . S
C1230 C1238 1.378 . S
C1231 C1230 1.367 . S
C1231 C1239 1.433 . S
C1232 H1228 0.929 . S
C1232 C1234 1.378 . S
C1232 C1236 1.350 . S
C1233 C1236 1.463 . S
C1233 C1238 1.350 . S
C1233 N1241 1.427 . S
C1234 H1225 0.930 . S
C1234 C1232 1.378 . S
C1234 C1235 1.367 . S
C1235 C1234 1.367 . S
C1235 C1237 1.433 . S
C1236 C1232 1.350 . S
C1236 C1233 1.463 . S
C1236 N1240 1.427 . S
C1237 H1227 0.929 . S
C1237 C1235 1.433 . S
C1237 N1240 1.384 . S
C1238 H1229 0.929 . S
C1238 C1230 1.378 . S
C1238 C1233 1.350 . S
C1239 H1226 0.929 . S
C1239 C1231 1.433 . S
C1239 N1241 1.384 . S
N1240 C1236 1.427 . S
N1240 C1237 1.384 . S
N1241 C1233 1.427 . S
N1241 C1239 1.384 . S
H1242 C1248 0.930 . S
H1243 C1252 0.930 . S
H1244 C1257 0.929 . S
H1245 C1255 0.929 . S
H1246 C1250 0.929 . S
H1247 C1256 0.929 . S
C1248 H1242 0.930 . S
C1248 C1249 1.367 . S
C1248 C1256 1.378 . S
C1249 C1248 1.367 . S
C1249 C1257 1.433 . S
C1250 H1246 0.929 . S
C1250 C1252 1.378 . S
C1250 C1254 1.350 . S
C1251 C1254 1.463 . S
C1251 C1256 1.350 . S
C1251 N1259 1.427 . S
C1252 H1243 0.930 . S
C1252 C1250 1.378 . S
C1252 C1253 1.367 . S
C1253 C1252 1.367 . S
C1253 C1255 1.433 . S
C1254 C1250 1.350 . S
C1254 C1251 1.463 . S
C1254 N1258 1.427 . S
C1255 H1245 0.929 . S
C1255 C1253 1.433 . S
C1255 N1258 1.384 . S
C1256 H1247 0.929 . S
C1256 C1248 1.378 . S
C1256 C1251 1.350 . S
C1257 H1244 0.929 . S
C1257 C1249 1.433 . S
C1257 N1259 1.384 . S
N1258 C1254 1.427 . S
N1258 C1255 1.384 . S
N1259 C1251 1.427 . S
N1259 C1257 1.384 . S
H1260 C1266 0.930 . S
H1261 C1270 0.930 . S
H1262 C1275 0.929 . S
H1263 C1273 0.929 . S
H1264 C1268 0.929 . S
H1265 C1274 0.929 . S
C1266 H1260 0.930 . S
C1266 C1267 1.367 . S
C1266 C1274 1.378 . S
C1267 C1266 1.367 . S
C1267 C1275 1.433 . S
C1268 H1264 0.929 . S
C1268 C1270 1.378 . S
C1268 C1272 1.350 . S
C1269 C1272 1.463 . S
C1269 C1274 1.350 . S
C1269 N1277 1.427 . S
C1270 H1261 0.930 . S
C1270 C1268 1.378 . S
C1270 C1271 1.367 . S
C1271 C1270 1.367 . S
C1271 C1273 1.433 . S
C1272 C1268 1.350 . S
C1272 C1269 1.463 . S
C1272 N1276 1.427 . S
C1273 H1263 0.929 . S
C1273 C1271 1.433 . S
C1273 N1276 1.384 . S
C1274 H1265 0.929 . S
C1274 C1266 1.378 . S
C1274 C1269 1.350 . S
C1275 H1262 0.929 . S
C1275 C1267 1.433 . S
C1275 N1277 1.384 . S
N1276 C1272 1.427 . S
N1276 C1273 1.384 . S
N1277 C1269 1.427 . S
N1277 C1275 1.384 . S
H1278 C1284 0.930 . S
H1279 C1288 0.930 . S
H1280 C1293 0.929 . S
H1281 C1291 0.929 . S
H1282 C1286 0.929 . S
H1283 C1292 0.929 . S
C1284 H1278 0.930 . S
C1284 C1285 1.367 . S
C1284 C1292 1.378 . S
C1285 C1284 1.367 . S
C1285 C1293 1.433 . S
C1286 H1282 0.929 . S
C1286 C1288 1.378 . S
C1286 C1290 1.350 . S
C1287 C1290 1.463 . S
C1287 C1292 1.350 . S
C1287 N1295 1.427 . S
C1288 H1279 0.930 . S
C1288 C1286 1.378 . S
C1288 C1289 1.367 . S
C1289 C1288 1.367 . S
C1289 C1291 1.433 . S
C1290 C1286 1.350 . S
C1290 C1287 1.463 . S
C1290 N1294 1.427 . S
C1291 H1281 0.929 . S
C1291 C1289 1.433 . S
C1291 N1294 1.384 . S
C1292 H1283 0.929 . S
C1292 C1284 1.378 . S
C1292 C1287 1.350 . S
C1293 H1280 0.929 . S
C1293 C1285 1.433 . S
C1293 N1295 1.384 . S
N1294 C1290 1.427 . S
N1294 C1291 1.384 . S
N1295 C1287 1.427 . S
N1295 C1293 1.384 . S
H1296 C1302 0.930 . S
H1297 C1306 0.930 . S
H1298 C1311 0.929 . S
H1299 C1309 0.929 . S
H1300 C1304 0.929 . S
H1301 C1310 0.929 . S
C1302 H1296 0.930 . S
C1302 C1303 1.367 . S
C1302 C1310 1.378 . S
C1303 C1302 1.367 . S
C1303 C1311 1.433 . S
C1304 H1300 0.929 . S
C1304 C1306 1.378 . S
C1304 C1308 1.350 . S
C1305 C1308 1.463 . S
C1305 C1310 1.350 . S
C1305 N1313 1.427 . S
C1306 H1297 0.930 . S
C1306 C1304 1.378 . S
C1306 C1307 1.367 . S
C1307 C1306 1.367 . S
C1307 C1309 1.433 . S
C1308 C1304 1.350 . S
C1308 C1305 1.463 . S
C1308 N1312 1.427 . S
C1309 H1299 0.929 . S
C1309 C1307 1.433 . S
C1309 N1312 1.384 . S
C1310 H1301 0.929 . S
C1310 C1302 1.378 . S
C1310 C1305 1.350 . S
C1311 H1298 0.929 . S
C1311 C1303 1.433 . S
C1311 N1313 1.384 . S
N1312 C1308 1.427 . S
N1312 C1309 1.384 . S
N1313 C1305 1.427 . S
N1313 C1311 1.384 . S
H1314 C1320 0.930 . S
H1315 C1324 0.930 . S
H1316 C1329 0.929 . S
H1317 C1327 0.929 . S
H1318 C1322 0.929 . S
H1319 C1328 0.929 . S
C1320 H1314 0.930 . S
C1320 C1321 1.367 . S
C1320 C1328 1.378 . S
C1321 C1320 1.367 . S
C1321 C1329 1.433 . S
C1322 H1318 0.929 . S
C1322 C1324 1.378 . S
C1322 C1326 1.350 . S
C1323 C1326 1.463 . S
C1323 C1328 1.350 . S
C1323 N1331 1.427 . S
C1324 H1315 0.930 . S
C1324 C1322 1.378 . S
C1324 C1325 1.367 . S
C1325 C1324 1.367 . S
C1325 C1327 1.433 . S
C1326 C1322 1.350 . S
C1326 C1323 1.463 . S
C1326 N1330 1.427 . S
C1327 H1317 0.929 . S
C1327 C1325 1.433 . S
C1327 N1330 1.384 . S
C1328 H1319 0.929 . S
C1328 C1320 1.378 . S
C1328 C1323 1.350 . S
C1329 H1316 0.929 . S
C1329 C1321 1.433 . S
C1329 N1331 1.384 . S
N1330 C1326 1.427 . S
N1330 C1327 1.384 . S
N1331 C1323 1.427 . S
N1331 C1329 1.384 . S
H1332 C1338 0.930 . S
H1333 C1342 0.930 . S
H1334 C1347 0.929 . S
H1335 C1345 0.929 . S
H1336 C1340 0.929 . S
H1337 C1346 0.929 . S
C1338 H1332 0.930 . S
C1338 C1339 1.367 . S
C1338 C1346 1.378 . S
C1339 C1338 1.367 . S
C1339 C1347 1.433 . S
C1340 H1336 0.929 . S
C1340 C1342 1.378 . S
C1340 C1344 1.350 . S
C1341 C1344 1.463 . S
C1341 C1346 1.350 . S
C1341 N1349 1.427 . S
C1342 H1333 0.930 . S
C1342 C1340 1.378 . S
C1342 C1343 1.367 . S
C1343 C1342 1.367 . S
C1343 C1345 1.433 . S
C1344 C1340 1.350 . S
C1344 C1341 1.463 . S
C1344 N1348 1.427 . S
C1345 H1335 0.929 . S
C1345 C1343 1.433 . S
C1345 N1348 1.384 . S
C1346 H1337 0.929 . S
C1346 C1338 1.378 . S
C1346 C1341 1.350 . S
C1347 H1334 0.929 . S
C1347 C1339 1.433 . S
C1347 N1349 1.384 . S
N1348 C1344 1.427 . S
N1348 C1345 1.384 . S
N1349 C1341 1.427 . S
N1349 C1347 1.384 . S
H1350 C1356 0.930 1_554 S
H1351 C1360 0.930 . S
H1352 C1365 0.929 . S
H1353 C1363 0.929 . S
H1354 C1358 0.929 . S
H1355 C1364 0.929 . S
C1356 H1350 0.930 1_556 S
C1356 C1357 1.367 . S
C1356 C1364 1.378 . S
C1357 C1356 1.367 . S
C1357 C1365 1.433 . S
C1358 H1354 0.929 . S
C1358 C1360 1.378 . S
C1358 C1362 1.350 . S
C1359 C1362 1.463 . S
C1359 C1364 1.350 . S
C1359 N1367 1.427 . S
C1360 H1351 0.930 . S
C1360 C1358 1.378 . S
C1360 C1361 1.367 . S
C1361 C1360 1.367 . S
C1361 C1363 1.433 . S
C1362 C1358 1.350 . S
C1362 C1359 1.463 . S
C1362 N1366 1.427 . S
C1363 H1353 0.929 . S
C1363 C1361 1.433 . S
C1363 N1366 1.384 . S
C1364 H1355 0.929 . S
C1364 C1356 1.378 . S
C1364 C1359 1.350 . S
C1365 H1352 0.929 . S
C1365 C1357 1.433 . S
C1365 N1367 1.384 . S
N1366 C1362 1.427 . S
N1366 C1363 1.384 . S
N1367 C1359 1.427 . S
N1367 C1365 1.384 . S
H1368 C1374 0.930 . S
H1369 C1378 0.930 . S
H1370 C1383 0.929 1_554 S
H1371 C1381 0.929 . S
H1372 C1376 0.929 . S
H1373 C1382 0.929 . S
C1374 H1368 0.930 . S
C1374 C1375 1.367 . S
C1374 C1382 1.378 . S
C1375 C1374 1.367 . S
C1375 C1383 1.433 . S
C1376 H1372 0.929 . S
C1376 C1378 1.378 . S
C1376 C1380 1.350 . S
C1377 C1380 1.463 . S
C1377 C1382 1.350 . S
C1377 N1385 1.427 . S
C1378 H1369 0.930 . S
C1378 C1376 1.378 . S
C1378 C1379 1.367 . S
C1379 C1378 1.367 . S
C1379 C1381 1.433 . S
C1380 C1376 1.350 . S
C1380 C1377 1.463 . S
C1380 N1384 1.427 . S
C1381 H1371 0.929 . S
C1381 C1379 1.433 . S
C1381 N1384 1.384 . S
C1382 H1373 0.929 . S
C1382 C1374 1.378 . S
C1382 C1377 1.350 . S
C1383 H1370 0.929 1_556 S
C1383 C1375 1.433 . S
C1383 N1385 1.384 . S
N1384 C1380 1.427 . S
N1384 C1381 1.384 . S
N1385 C1377 1.427 . S
N1385 C1383 1.384 . S
H1386 C1392 0.930 . S
H1387 C1396 0.930 . S
H1388 C1401 0.929 . S
H1389 C1399 0.929 . S
H1390 C1394 0.929 . S
H1391 C1400 0.929 . S
C1392 H1386 0.930 . S
C1392 C1393 1.367 . S
C1392 C1400 1.378 . S
C1393 C1392 1.367 . S
C1393 C1401 1.433 . S
C1394 H1390 0.929 . S
C1394 C1396 1.378 . S
C1394 C1398 1.350 . S
C1395 C1398 1.463 . S
C1395 C1400 1.350 . S
C1395 N1403 1.427 . S
C1396 H1387 0.930 . S
C1396 C1394 1.378 . S
C1396 C1397 1.367 . S
C1397 C1396 1.367 . S
C1397 C1399 1.433 . S
C1398 C1394 1.350 . S
C1398 C1395 1.463 . S
C1398 N1402 1.427 . S
C1399 H1389 0.929 . S
C1399 C1397 1.433 . S
C1399 N1402 1.384 . S
C1400 H1391 0.929 . S
C1400 C1392 1.378 . S
C1400 C1395 1.350 . S
C1401 H1388 0.929 . S
C1401 C1393 1.433 . S
C1401 N1403 1.384 . S
N1402 C1398 1.427 . S
N1402 C1399 1.384 . S
N1403 C1395 1.427 . S
N1403 C1401 1.384 . S
H1404 C1410 0.930 . S
H1405 C1414 0.930 . S
H1406 C1419 0.929 1_554 S
H1407 C1417 0.929 . S
H1408 C1412 0.929 . S
H1409 C1418 0.929 . S
C1410 H1404 0.930 . S
C1410 C1411 1.367 . S
C1410 C1418 1.378 . S
C1411 C1410 1.367 . S
C1411 C1419 1.433 . S
C1412 H1408 0.929 . S
C1412 C1414 1.378 . S
C1412 C1416 1.350 . S
C1413 C1416 1.463 . S
C1413 C1418 1.350 . S
C1413 N1421 1.427 . S
C1414 H1405 0.930 . S
C1414 C1412 1.378 . S
C1414 C1415 1.367 . S
C1415 C1414 1.367 . S
C1415 C1417 1.433 . S
C1416 C1412 1.350 . S
C1416 C1413 1.463 . S
C1416 N1420 1.427 . S
C1417 H1407 0.929 . S
C1417 C1415 1.433 . S
C1417 N1420 1.384 . S
C1418 H1409 0.929 . S
C1418 C1410 1.378 . S
C1418 C1413 1.350 . S
C1419 H1406 0.929 1_556 S
C1419 C1411 1.433 . S
C1419 N1421 1.384 . S
N1420 C1416 1.427 . S
N1420 C1417 1.384 . S
N1421 C1413 1.427 . S
N1421 C1419 1.384 . S
H1422 C1428 0.930 . S
H1423 C1432 0.930 . S
H1424 C1437 0.929 1_554 S
H1425 C1435 0.929 . S
H1426 C1430 0.929 . S
H1427 C1436 0.929 . S
C1428 H1422 0.930 . S
C1428 C1429 1.367 . S
C1428 C1436 1.378 . S
C1429 C1428 1.367 . S
C1429 C1437 1.433 . S
C1430 H1426 0.929 . S
C1430 C1432 1.378 . S
C1430 C1434 1.350 . S
C1431 C1434 1.463 . S
C1431 C1436 1.350 . S
C1431 N1439 1.427 . S
C1432 H1423 0.930 . S
C1432 C1430 1.378 . S
C1432 C1433 1.367 . S
C1433 C1432 1.367 . S
C1433 C1435 1.433 . S
C1434 C1430 1.350 . S
C1434 C1431 1.463 . S
C1434 N1438 1.427 . S
C1435 H1425 0.929 . S
C1435 C1433 1.433 . S
C1435 N1438 1.384 . S
C1436 H1427 0.929 . S
C1436 C1428 1.378 . S
C1436 C1431 1.350 . S
C1437 H1424 0.929 1_556 S
C1437 C1429 1.433 . S
C1437 N1439 1.384 . S
N1438 C1434 1.427 . S
N1438 C1435 1.384 . S
N1439 C1431 1.427 . S
N1439 C1437 1.384 . S
H1440 C1446 0.930 . S
H1441 C1450 0.930 . S
H1442 C1455 0.929 . S
H1443 C1453 0.929 . S
H1444 C1448 0.929 . S
H1445 C1454 0.929 . S
C1446 H1440 0.930 . S
C1446 C1447 1.367 . S
C1446 C1454 1.378 . S
C1447 C1446 1.367 . S
C1447 C1455 1.433 . S
C1448 H1444 0.929 . S
C1448 C1450 1.378 . S
C1448 C1452 1.350 . S
C1449 C1452 1.463 . S
C1449 C1454 1.350 . S
C1449 N1457 1.427 . S
C1450 H1441 0.930 . S
C1450 C1448 1.378 . S
C1450 C1451 1.367 . S
C1451 C1450 1.367 . S
C1451 C1453 1.433 . S
C1452 C1448 1.350 . S
C1452 C1449 1.463 . S
C1452 N1456 1.427 . S
C1453 H1443 0.929 . S
C1453 C1451 1.433 . S
C1453 N1456 1.384 . S
C1454 H1445 0.929 . S
C1454 C1446 1.378 . S
C1454 C1449 1.350 . S
C1455 H1442 0.929 . S
C1455 C1447 1.433 . S
C1455 N1457 1.384 . S
N1456 C1452 1.427 . S
N1456 C1453 1.384 . S
N1457 C1449 1.427 . S
N1457 C1455 1.384 . S
H1458 C1464 0.930 . S
H1459 C1468 0.930 . S
H1460 C1473 0.929 . S
H1461 C1471 0.929 . S
H1462 C1466 0.929 . S
H1463 C1472 0.929 . S
C1464 H1458 0.930 . S
C1464 C1465 1.367 . S
C1464 C1472 1.378 . S
C1465 C1464 1.367 . S
C1465 C1473 1.433 . S
C1466 H1462 0.929 . S
C1466 C1468 1.378 . S
C1466 C1470 1.350 . S
C1467 C1470 1.463 . S
C1467 C1472 1.350 . S
C1467 N1475 1.427 . S
C1468 H1459 0.930 . S
C1468 C1466 1.378 . S
C1468 C1469 1.367 . S
C1469 C1468 1.367 . S
C1469 C1471 1.433 . S
C1470 C1466 1.350 . S
C1470 C1467 1.463 . S
C1470 N1474 1.427 . S
C1471 H1461 0.929 . S
C1471 C1469 1.433 . S
C1471 N1474 1.384 . S
C1472 H1463 0.929 . S
C1472 C1464 1.378 . S
C1472 C1467 1.350 . S
C1473 H1460 0.929 . S
C1473 C1465 1.433 . S
C1473 N1475 1.384 . S
N1474 C1470 1.427 . S
N1474 C1471 1.384 . S
N1475 C1467 1.427 . S
N1475 C1473 1.384 . S
H1476 C1482 0.930 . S
H1477 C1486 0.930 . S
H1478 C1491 0.929 . S
H1479 C1489 0.929 . S
H1480 C1484 0.929 . S
H1481 C1490 0.929 . S
C1482 H1476 0.930 . S
C1482 C1483 1.367 . S
C1482 C1490 1.378 . S
C1483 C1482 1.367 . S
C1483 C1491 1.433 . S
C1484 H1480 0.929 . S
C1484 C1486 1.378 . S
C1484 C1488 1.350 . S
C1485 C1488 1.463 . S
C1485 C1490 1.350 . S
C1485 N1493 1.427 . S
C1486 H1477 0.930 . S
C1486 C1484 1.378 . S
C1486 C1487 1.367 . S
C1487 C1486 1.367 . S
C1487 C1489 1.433 . S
C1488 C1484 1.350 . S
C1488 C1485 1.463 . S
C1488 N1492 1.427 . S
C1489 H1479 0.929 . S
C1489 C1487 1.433 . S
C1489 N1492 1.384 . S
C1490 H1481 0.929 . S
C1490 C1482 1.378 . S
C1490 C1485 1.350 . S
C1491 H1478 0.929 . S
C1491 C1483 1.433 . S
C1491 N1493 1.384 . S
N1492 C1488 1.427 . S
N1492 C1489 1.384 . S
N1493 C1485 1.427 . S
N1493 C1491 1.384 . S
H1494 C1500 0.930 . S
H1495 C1504 0.930 . S
H1496 C1509 0.929 . S
H1497 C1507 0.929 . S
H1498 C1502 0.929 . S
H1499 C1508 0.929 . S
C1500 H1494 0.930 . S
C1500 C1501 1.367 . S
C1500 C1508 1.378 . S
C1501 C1500 1.367 . S
C1501 C1509 1.433 . S
C1502 H1498 0.929 . S
C1502 C1504 1.378 . S
C1502 C1506 1.350 . S
C1503 C1506 1.463 . S
C1503 C1508 1.350 . S
C1503 N1511 1.427 . S
C1504 H1495 0.930 . S
C1504 C1502 1.378 . S
C1504 C1505 1.367 . S
C1505 C1504 1.367 . S
C1505 C1507 1.433 . S
C1506 C1502 1.350 . S
C1506 C1503 1.463 . S
C1506 N1510 1.427 . S
C1507 H1497 0.929 . S
C1507 C1505 1.433 . S
C1507 N1510 1.384 . S
C1508 H1499 0.929 . S
C1508 C1500 1.378 . S
C1508 C1503 1.350 . S
C1509 H1496 0.929 . S
C1509 C1501 1.433 . S
C1509 N1511 1.384 . S
N1510 C1506 1.427 . S
N1510 C1507 1.384 . S
N1511 C1503 1.427 . S
N1511 C1509 1.384 . S
H1512 C1518 0.930 . S
H1513 C1522 0.930 . S
H1514 C1527 0.929 . S
H1515 C1525 0.929 . S
H1516 C1520 0.929 . S
H1517 C1526 0.929 . S
C1518 H1512 0.930 . S
C1518 C1519 1.367 . S
C1518 C1526 1.378 . S
C1519 C1518 1.367 . S
C1519 C1527 1.433 . S
C1520 H1516 0.929 . S
C1520 C1522 1.378 . S
C1520 C1524 1.350 . S
C1521 C1524 1.463 . S
C1521 C1526 1.350 . S
C1521 N1529 1.427 . S
C1522 H1513 0.930 . S
C1522 C1520 1.378 . S
C1522 C1523 1.367 . S
C1523 C1522 1.367 . S
C1523 C1525 1.433 . S
C1524 C1520 1.350 . S
C1524 C1521 1.463 . S
C1524 N1528 1.427 . S
C1525 H1515 0.929 . S
C1525 C1523 1.433 . S
C1525 N1528 1.384 . S
C1526 H1517 0.929 . S
C1526 C1518 1.378 . S
C1526 C1521 1.350 . S
C1527 H1514 0.929 . S
C1527 C1519 1.433 . S
C1527 N1529 1.384 . S
N1528 C1524 1.427 . S
N1528 C1525 1.384 . S
N1529 C1521 1.427 . S
N1529 C1527 1.384 . S
H1530 C1536 0.930 . S
H1531 C1540 0.930 . S
H1532 C1545 0.929 . S
H1533 C1543 0.929 . S
H1534 C1538 0.929 . S
H1535 C1544 0.929 . S
C1536 H1530 0.930 . S
C1536 C1537 1.367 . S
C1536 C1544 1.378 . S
C1537 C1536 1.367 . S
C1537 C1545 1.433 . S
C1538 H1534 0.929 . S
C1538 C1540 1.378 . S
C1538 C1542 1.350 . S
C1539 C1542 1.463 . S
C1539 C1544 1.350 . S
C1539 N1547 1.427 . S
C1540 H1531 0.930 . S
C1540 C1538 1.378 . S
C1540 C1541 1.367 . S
C1541 C1540 1.367 . S
C1541 C1543 1.433 . S
C1542 C1538 1.350 . S
C1542 C1539 1.463 . S
C1542 N1546 1.427 . S
C1543 H1533 0.929 . S
C1543 C1541 1.433 . S
C1543 N1546 1.384 . S
C1544 H1535 0.929 . S
C1544 C1536 1.378 . S
C1544 C1539 1.350 . S
C1545 H1532 0.929 . S
C1545 C1537 1.433 . S
C1545 N1547 1.384 . S
N1546 C1542 1.427 . S
N1546 C1543 1.384 . S
N1547 C1539 1.427 . S
N1547 C1545 1.384 . S
H1548 C1554 0.924 . S
H1549 C1558 0.930 . S
H1550 C1563 0.929 . S
H1551 C1561 0.947 . S
H1552 C1556 0.929 . S
H1553 C1562 0.929 1_655 S
C1554 H1548 0.924 . S
C1554 C1555 1.367 . S
C1554 C1562 1.378 . S
C1555 C1554 1.367 . S
C1555 C1563 1.433 . S
C1556 H1552 0.929 . S
C1556 C1558 1.378 . S
C1556 C1560 1.350 . S
C1557 C1560 1.463 . S
C1557 C1562 1.350 . S
C1557 N1565 1.427 . S
C1558 H1549 0.930 . S
C1558 C1556 1.378 . S
C1558 C1559 1.367 . S
C1559 C1558 1.367 . S
C1559 C1561 1.443 1_455 S
C1560 C1556 1.350 . S
C1560 C1557 1.463 . S
C1560 N1564 1.437 . S
C1561 H1551 0.947 . S
C1561 C1559 1.443 1_655 S
C1561 N1564 1.343 1_655 S
C1562 H1553 0.929 1_455 S
C1562 C1554 1.378 . S
C1562 C1557 1.350 . S
C1563 H1550 0.929 . S
C1563 C1555 1.433 . S
C1563 N1565 1.384 . S
N1564 C1560 1.437 . S
N1564 C1561 1.343 1_455 S
N1565 C1557 1.427 . S
N1565 C1563 1.384 . S
H1566 C1572 0.930 . S
H1567 C1576 0.930 . S
H1568 C1581 0.929 . S
H1569 C1579 0.929 . S
H1570 C1574 0.929 . S
H1571 C1580 0.929 . S
C1572 H1566 0.930 . S
C1572 C1573 1.367 . S
C1572 C1580 1.378 . S
C1573 C1572 1.367 . S
C1573 C1581 1.433 . S
C1574 H1570 0.929 . S
C1574 C1576 1.378 . S
C1574 C1578 1.350 . S
C1575 C1578 1.463 . S
C1575 C1580 1.350 . S
C1575 N1583 1.427 . S
C1576 H1567 0.930 . S
C1576 C1574 1.378 . S
C1576 C1577 1.367 . S
C1577 C1576 1.367 . S
C1577 C1579 1.433 . S
C1578 C1574 1.350 . S
C1578 C1575 1.463 . S
C1578 N1582 1.427 . S
C1579 H1569 0.929 . S
C1579 C1577 1.433 . S
C1579 N1582 1.384 . S
C1580 H1571 0.929 . S
C1580 C1572 1.378 . S
C1580 C1575 1.350 . S
C1581 H1568 0.929 . S
C1581 C1573 1.433 . S
C1581 N1583 1.384 . S
N1582 C1578 1.427 . S
N1582 C1579 1.384 . S
N1583 C1575 1.427 . S
N1583 C1581 1.384 . S
H1584 C1590 0.930 . S
H1585 C1594 0.930 . S
H1586 C1599 0.929 . S
H1587 C1597 0.929 . S
H1588 C1592 0.929 . S
H1589 C1598 0.929 . S
C1590 H1584 0.930 . S
C1590 C1591 1.367 1_545 S
C1590 C1598 1.378 . S
C1591 C1590 1.367 1_565 S
C1591 C1599 1.433 . S
C1592 H1588 0.929 . S
C1592 C1594 1.378 . S
C1592 C1596 1.350 . S
C1593 C1596 1.463 . S
C1593 C1598 1.350 1_565 S
C1593 N1601 1.427 . S
C1594 H1585 0.930 . S
C1594 C1592 1.378 . S
C1594 C1595 1.367 . S
C1595 C1594 1.367 . S
C1595 C1597 1.433 1_565 S
C1596 C1592 1.350 . S
C1596 C1593 1.463 . S
C1596 N1600 1.427 1_565 S
C1597 H1587 0.929 . S
C1597 C1595 1.433 1_545 S
C1597 N1600 1.384 . S
C1598 H1589 0.929 . S
C1598 C1590 1.378 . S
C1598 C1593 1.350 1_545 S
C1599 H1586 0.929 . S
C1599 C1591 1.433 . S
C1599 N1601 1.384 . S
N1600 C1596 1.427 1_545 S
N1600 C1597 1.384 . S
N1601 C1593 1.427 . S
N1601 C1599 1.384 . S
H1602 C1608 0.930 . S
H1603 C1612 0.930 . S
H1604 C1617 0.929 . S
H1605 C1615 0.929 . S
H1606 C1610 0.929 . S
H1607 C1616 0.929 . S
C1608 H1602 0.930 . S
C1608 C1609 1.367 . S
C1608 C1616 1.378 . S
C1609 C1608 1.367 . S
C1609 C1617 1.433 1_565 S
C1610 H1606 0.929 . S
C1610 C1612 1.378 . S
C1610 C1614 1.350 1_545 S
C1611 C1614 1.463 . S
C1611 C1616 1.350 . S
C1611 N1619 1.427 1_565 S
C1612 H1603 0.930 . S
C1612 C1610 1.378 . S
C1612 C1613 1.353 1_545 S
C1613 C1612 1.353 1_565 S
C1613 C1615 1.486 . S
C1614 C1610 1.350 1_565 S
C1614 C1611 1.463 . S
C1614 N1618 1.427 . S
C1615 H1605 0.929 . S
C1615 C1613 1.486 . S
C1615 N1618 1.384 . S
C1616 H1607 0.929 . S
C1616 C1608 1.378 . S
C1616 C1611 1.350 . S
C1617 H1604 0.929 . S
C1617 C1609 1.433 1_545 S
C1617 N1619 1.384 . S
N1618 C1614 1.427 . S
N1618 C1615 1.384 . S
N1619 C1611 1.427 1_545 S
N1619 C1617 1.384 . S
H1620 C1626 0.930 . S
H1621 C1630 0.930 . S
H1622 C1635 0.929 . S
H1623 C1633 0.929 1_655 S
H1624 C1628 0.929 . S
H1625 C1634 0.929 . S
C1626 H1620 0.930 . S
C1626 C1627 1.367 . S
C1626 C1634 1.378 . S
C1627 C1626 1.367 . S
C1627 C1635 1.433 . S
C1628 H1624 0.929 . S
C1628 C1630 1.378 . S
C1628 C1632 1.350 . S
C1629 C1632 1.463 . S
C1629 C1634 1.350 . S
C1629 N1637 1.427 . S
C1630 H1621 0.930 . S
C1630 C1628 1.378 . S
C1630 C1631 1.369 . S
C1631 C1630 1.369 . S
C1631 C1633 1.410 . S
C1632 C1628 1.350 . S
C1632 C1629 1.463 . S
C1632 N1636 1.427 . S
C1633 H1623 0.929 1_455 S
C1633 C1631 1.410 . S
C1633 N1636 1.380 . S
C1634 H1625 0.929 . S
C1634 C1626 1.378 . S
C1634 C1629 1.350 . S
C1635 H1622 0.929 . S
C1635 C1627 1.433 . S
C1635 N1637 1.384 . S
N1636 C1632 1.427 . S
N1636 C1633 1.380 . S
N1637 C1629 1.427 . S
N1637 C1635 1.384 . S
H1638 C1644 0.930 . S
H1639 C1648 0.930 . S
H1640 C1653 0.929 . S
H1641 C1651 0.929 . S
H1642 C1646 0.929 . S
H1643 C1652 0.929 . S
C1644 H1638 0.930 . S
C1644 C1645 1.367 . S
C1644 C1652 1.378 . S
C1645 C1644 1.367 . S
C1645 C1653 1.433 . S
C1646 H1642 0.929 . S
C1646 C1648 1.378 . S
C1646 C1650 1.350 . S
C1647 C1650 1.463 . S
C1647 C1652 1.350 . S
C1647 N1655 1.427 . S
C1648 H1639 0.930 . S
C1648 C1646 1.378 . S
C1648 C1649 1.367 . S
C1649 C1648 1.367 . S
C1649 C1651 1.433 . S
C1650 C1646 1.350 . S
C1650 C1647 1.463 . S
C1650 N1654 1.427 . S
C1651 H1641 0.929 . S
C1651 C1649 1.433 . S
C1651 N1654 1.384 . S
C1652 H1643 0.929 . S
C1652 C1644 1.378 . S
C1652 C1647 1.350 . S
C1653 H1640 0.929 . S
C1653 C1645 1.433 . S
C1653 N1655 1.384 . S
N1654 C1650 1.427 . S
N1654 C1651 1.384 . S
N1655 C1647 1.427 . S
N1655 C1653 1.384 . S
H1656 C1662 0.930 . S
H1657 C1666 0.930 . S
H1658 C1671 0.929 . S
H1659 C1669 0.929 . S
H1660 C1664 0.929 . S
H1661 C1670 0.929 . S
C1662 H1656 0.930 . S
C1662 C1663 1.367 . S
C1662 C1670 1.378 . S
C1663 C1662 1.367 . S
C1663 C1671 1.433 . S
C1664 H1660 0.929 . S
C1664 C1666 1.378 . S
C1664 C1668 1.350 . S
C1665 C1668 1.463 . S
C1665 C1670 1.350 . S
C1665 N1673 1.427 . S
C1666 H1657 0.930 . S
C1666 C1664 1.378 . S
C1666 C1667 1.367 . S
C1667 C1666 1.367 . S
C1667 C1669 1.433 . S
C1668 C1664 1.350 . S
C1668 C1665 1.463 . S
C1668 N1672 1.427 . S
C1669 H1659 0.929 . S
C1669 C1667 1.433 . S
C1669 N1672 1.384 . S
C1670 H1661 0.929 . S
C1670 C1662 1.378 . S
C1670 C1665 1.350 . S
C1671 H1658 0.929 . S
C1671 C1663 1.433 . S
C1671 N1673 1.384 . S
N1672 C1668 1.427 . S
N1672 C1669 1.384 . S
N1673 C1665 1.427 . S
N1673 C1671 1.384 . S
H1674 C1680 0.930 . S
H1675 C1684 0.930 . S
H1676 C1689 0.929 . S
H1677 C1687 0.929 . S
H1678 C1682 0.929 . S
H1679 C1688 0.929 . S
C1680 H1674 0.930 . S
C1680 C1681 1.367 . S
C1680 C1688 1.378 . S
C1681 C1680 1.367 . S
C1681 C1689 1.433 . S
C1682 H1678 0.929 . S
C1682 C1684 1.378 . S
C1682 C1686 1.350 . S
C1683 C1686 1.463 . S
C1683 C1688 1.350 . S
C1683 N1691 1.427 . S
C1684 H1675 0.930 . S
C1684 C1682 1.378 . S
C1684 C1685 1.367 . S
C1685 C1684 1.367 . S
C1685 C1687 1.433 . S
C1686 C1682 1.350 . S
C1686 C1683 1.463 . S
C1686 N1690 1.427 . S
C1687 H1677 0.929 . S
C1687 C1685 1.433 . S
C1687 N1690 1.384 . S
C1688 H1679 0.929 . S
C1688 C1680 1.378 . S
C1688 C1683 1.350 . S
C1689 H1676 0.929 . S
C1689 C1681 1.433 . S
C1689 N1691 1.384 . S
N1690 C1686 1.427 . S
N1690 C1687 1.384 . S
N1691 C1683 1.427 . S
N1691 C1689 1.384 . S
H1692 C1698 0.930 . S
H1693 C1702 0.930 . S
H1694 C1707 0.929 . S
H1695 C1705 0.929 . S
H1696 C1700 0.929 . S
H1697 C1706 0.929 . S
C1698 H1692 0.930 . S
C1698 C1699 1.367 . S
C1698 C1706 1.378 . S
C1699 C1698 1.367 . S
C1699 C1707 1.433 . S
C1700 H1696 0.929 . S
C1700 C1702 1.378 . S
C1700 C1704 1.350 . S
C1701 C1704 1.463 . S
C1701 C1706 1.350 . S
C1701 N1709 1.427 . S
C1702 H1693 0.930 . S
C1702 C1700 1.378 . S
C1702 C1703 1.367 . S
C1703 C1702 1.367 . S
C1703 C1705 1.433 . S
C1704 C1700 1.350 . S
C1704 C1701 1.463 . S
C1704 N1708 1.427 . S
C1705 H1695 0.929 . S
C1705 C1703 1.433 . S
C1705 N1708 1.384 . S
C1706 H1697 0.929 . S
C1706 C1698 1.378 . S
C1706 C1701 1.350 . S
C1707 H1694 0.929 . S
C1707 C1699 1.433 . S
C1707 N1709 1.384 . S
N1708 C1704 1.427 . S
N1708 C1705 1.384 . S
N1709 C1701 1.427 . S
N1709 C1707 1.384 . S
H1710 C1716 0.930 . S
H1711 C1720 0.930 . S
H1712 C1725 0.929 . S
H1713 C1723 0.929 . S
H1714 C1718 0.929 . S
H1715 C1724 0.929 . S
C1716 H1710 0.930 . S
C1716 C1717 1.367 . S
C1716 C1724 1.378 . S
C1717 C1716 1.367 . S
C1717 C1725 1.433 1_545 S
C1718 H1714 0.929 . S
C1718 C1720 1.378 . S
C1718 C1722 1.350 1_565 S
C1719 C1722 1.463 . S
C1719 C1724 1.350 . S
C1719 N1727 1.427 1_545 S
C1720 H1711 0.930 . S
C1720 C1718 1.378 . S
C1720 C1721 1.367 1_565 S
C1721 C1720 1.367 1_545 S
C1721 C1723 1.433 . S
C1722 C1718 1.350 1_545 S
C1722 C1719 1.463 . S
C1722 N1726 1.427 . S
C1723 H1713 0.929 . S
C1723 C1721 1.433 . S
C1723 N1726 1.384 . S
C1724 H1715 0.929 . S
C1724 C1716 1.378 . S
C1724 C1719 1.350 . S
C1725 H1712 0.929 . S
C1725 C1717 1.433 1_565 S
C1725 N1727 1.384 . S
N1726 C1722 1.427 . S
N1726 C1723 1.384 . S
N1727 C1719 1.427 1_565 S
N1727 C1725 1.384 . S
H1728 C1734 0.930 . S
H1729 C1738 0.930 . S
H1730 C1743 0.929 . S
H1731 C1741 0.929 . S
H1732 C1736 0.929 . S
H1733 C1742 0.929 . S
C1734 H1728 0.930 . S
C1734 C1735 1.367 . S
C1734 C1742 1.378 . S
C1735 C1734 1.367 . S
C1735 C1743 1.433 1_655 S
C1736 H1732 0.929 . S
C1736 C1738 1.378 . S
C1736 C1740 1.350 1_455 S
C1737 C1740 1.463 . S
C1737 C1742 1.350 . S
C1737 N1745 1.427 1_655 S
C1738 H1729 0.930 . S
C1738 C1736 1.378 . S
C1738 C1739 1.367 1_455 S
C1739 C1738 1.367 1_655 S
C1739 C1741 1.433 . S
C1740 C1736 1.350 1_655 S
C1740 C1737 1.463 . S
C1740 N1744 1.427 . S
C1741 H1731 0.929 . S
C1741 C1739 1.433 . S
C1741 N1744 1.384 . S
C1742 H1733 0.929 . S
C1742 C1734 1.378 . S
C1742 C1737 1.350 . S
C1743 H1730 0.929 . S
C1743 C1735 1.433 1_455 S
C1743 N1745 1.384 . S
N1744 C1740 1.427 . S
N1744 C1741 1.384 . S
N1745 C1737 1.427 1_455 S
N1745 C1743 1.384 . S
H1746 C1752 0.930 . S
H1747 C1756 0.930 . S
H1748 C1761 0.929 . S
H1749 C1759 0.929 . S
H1750 C1754 0.929 . S
H1751 C1760 0.929 . S
C1752 H1746 0.930 . S
C1752 C1753 1.367 . S
C1752 C1760 1.378 . S
C1753 C1752 1.367 . S
C1753 C1761 1.433 . S
C1754 H1750 0.929 . S
C1754 C1756 1.378 . S
C1754 C1758 1.350 . S
C1755 C1758 1.463 . S
C1755 C1760 1.350 . S
C1755 N1763 1.427 . S
C1756 H1747 0.930 . S
C1756 C1754 1.378 . S
C1756 C1757 1.367 . S
C1757 C1756 1.367 . S
C1757 C1759 1.433 . S
C1758 C1754 1.350 . S
C1758 C1755 1.463 . S
C1758 N1762 1.427 . S
C1759 H1749 0.929 . S
C1759 C1757 1.433 . S
C1759 N1762 1.384 . S
C1760 H1751 0.929 . S
C1760 C1752 1.378 . S
C1760 C1755 1.350 . S
C1761 H1748 0.929 . S
C1761 C1753 1.433 . S
C1761 N1763 1.384 . S
N1762 C1758 1.427 . S
N1762 C1759 1.384 . S
N1763 C1755 1.427 . S
N1763 C1761 1.384 . S
H1764 C1770 0.930 . S
H1765 C1774 0.930 . S
H1766 C1779 0.929 . S
H1767 C1777 0.929 . S
H1768 C1772 0.929 . S
H1769 C1778 0.929 . S
C1770 H1764 0.930 . S
C1770 C1771 1.367 . S
C1770 C1778 1.378 . S
C1771 C1770 1.367 . S
C1771 C1779 1.433 . S
C1772 H1768 0.929 . S
C1772 C1774 1.378 . S
C1772 C1776 1.350 . S
C1773 C1776 1.463 . S
C1773 C1778 1.350 . S
C1773 N1781 1.427 . S
C1774 H1765 0.930 . S
C1774 C1772 1.378 . S
C1774 C1775 1.367 . S
C1775 C1774 1.367 . S
C1775 C1777 1.433 . S
C1776 C1772 1.350 . S
C1776 C1773 1.463 . S
C1776 N1780 1.427 . S
C1777 H1767 0.929 . S
C1777 C1775 1.433 . S
C1777 N1780 1.384 . S
C1778 H1769 0.929 . S
C1778 C1770 1.378 . S
C1778 C1773 1.350 . S
C1779 H1766 0.929 . S
C1779 C1771 1.433 . S
C1779 N1781 1.384 . S
N1780 C1776 1.427 . S
N1780 C1777 1.384 . S
N1781 C1773 1.427 . S
N1781 C1779 1.384 . S
H1782 C1788 0.930 . S
H1783 C1792 0.930 . S
H1784 C1797 0.929 . S
H1785 C1795 0.929 . S
H1786 C1790 0.929 . S
H1787 C1796 0.929 . S
C1788 H1782 0.930 . S
C1788 C1789 1.367 . S
C1788 C1796 1.378 . S
C1789 C1788 1.367 . S
C1789 C1797 1.433 . S
C1790 H1786 0.929 . S
C1790 C1792 1.378 . S
C1790 C1794 1.350 . S
C1791 C1794 1.463 . S
C1791 C1796 1.350 . S
C1791 N1799 1.427 . S
C1792 H1783 0.930 . S
C1792 C1790 1.378 . S
C1792 C1793 1.367 . S
C1793 C1792 1.367 . S
C1793 C1795 1.433 . S
C1794 C1790 1.350 . S
C1794 C1791 1.463 . S
C1794 N1798 1.427 . S
C1795 H1785 0.929 . S
C1795 C1793 1.433 . S
C1795 N1798 1.384 . S
C1796 H1787 0.929 . S
C1796 C1788 1.378 . S
C1796 C1791 1.350 . S
C1797 H1784 0.929 . S
C1797 C1789 1.433 . S
C1797 N1799 1.384 . S
N1798 C1794 1.427 . S
N1798 C1795 1.384 . S
N1799 C1791 1.427 . S
N1799 C1797 1.384 . S
H1800 C1806 0.930 . S
H1801 C1810 0.930 . S
H1802 C1815 0.929 . S
H1803 C1813 0.929 . S
H1804 C1808 0.929 . S
H1805 C1814 0.929 . S
C1806 H1800 0.930 . S
C1806 C1807 1.367 . S
C1806 C1814 1.378 . S
C1807 C1806 1.367 . S
C1807 C1815 1.433 . S
C1808 H1804 0.929 . S
C1808 C1810 1.378 . S
C1808 C1812 1.350 . S
C1809 C1812 1.463 . S
C1809 C1814 1.350 . S
C1809 N1817 1.427 . S
C1810 H1801 0.930 . S
C1810 C1808 1.378 . S
C1810 C1811 1.367 . S
C1811 C1810 1.367 . S
C1811 C1813 1.433 . S
C1812 C1808 1.350 . S
C1812 C1809 1.463 . S
C1812 N1816 1.427 . S
C1813 H1803 0.929 . S
C1813 C1811 1.433 . S
C1813 N1816 1.384 . S
C1814 H1805 0.929 . S
C1814 C1806 1.378 . S
C1814 C1809 1.350 . S
C1815 H1802 0.929 . S
C1815 C1807 1.433 . S
C1815 N1817 1.384 . S
N1816 C1812 1.427 . S
N1816 C1813 1.384 . S
N1817 C1809 1.427 . S
N1817 C1815 1.384 . S
H1818 C1824 0.930 . S
H1819 C1828 0.930 . S
H1820 C1833 0.929 . S
H1821 C1831 0.929 . S
H1822 C1826 0.929 . S
H1823 C1832 0.929 . S
C1824 H1818 0.930 . S
C1824 C1825 1.367 . S
C1824 C1832 1.378 . S
C1825 C1824 1.367 . S
C1825 C1833 1.433 . S
C1826 H1822 0.929 . S
C1826 C1828 1.378 . S
C1826 C1830 1.350 . S
C1827 C1830 1.463 . S
C1827 C1832 1.350 . S
C1827 N1835 1.427 . S
C1828 H1819 0.930 . S
C1828 C1826 1.378 . S
C1828 C1829 1.367 . S
C1829 C1828 1.367 . S
C1829 C1831 1.433 . S
C1830 C1826 1.350 . S
C1830 C1827 1.463 . S
C1830 N1834 1.427 . S
C1831 H1821 0.929 . S
C1831 C1829 1.433 . S
C1831 N1834 1.384 . S
C1832 H1823 0.929 . S
C1832 C1824 1.378 . S
C1832 C1827 1.350 . S
C1833 H1820 0.929 . S
C1833 C1825 1.433 . S
C1833 N1835 1.384 . S
N1834 C1830 1.427 . S
N1834 C1831 1.384 . S
N1835 C1827 1.427 . S
N1835 C1833 1.384 . S
H1836 C1842 0.930 . S
H1837 C1846 0.930 . S
H1838 C1851 0.929 . S
H1839 C1849 0.929 . S
H1840 C1844 0.929 . S
H1841 C1850 0.929 . S
C1842 H1836 0.930 . S
C1842 C1843 1.367 . S
C1842 C1850 1.378 . S
C1843 C1842 1.367 . S
C1843 C1851 1.433 . S
C1844 H1840 0.929 . S
C1844 C1846 1.378 . S
C1844 C1848 1.350 . S
C1845 C1848 1.463 . S
C1845 C1850 1.350 . S
C1845 N1853 1.427 . S
C1846 H1837 0.930 . S
C1846 C1844 1.378 . S
C1846 C1847 1.367 . S
C1847 C1846 1.367 . S
C1847 C1849 1.433 . S
C1848 C1844 1.350 . S
C1848 C1845 1.463 . S
C1848 N1852 1.427 . S
C1849 H1839 0.929 . S
C1849 C1847 1.433 . S
C1849 N1852 1.384 . S
C1850 H1841 0.929 . S
C1850 C1842 1.378 . S
C1850 C1845 1.350 . S
C1851 H1838 0.929 . S
C1851 C1843 1.433 . S
C1851 N1853 1.384 . S
N1852 C1848 1.427 . S
N1852 C1849 1.384 . S
N1853 C1845 1.427 . S
N1853 C1851 1.384 . S
H1854 C1860 0.930 . S
H1855 C1864 0.930 . S
H1856 C1869 0.929 . S
H1857 C1867 0.929 . S
H1858 C1862 0.929 . S
H1859 C1868 0.929 . S
C1860 H1854 0.930 . S
C1860 C1861 1.367 . S
C1860 C1868 1.378 . S
C1861 C1860 1.367 . S
C1861 C1869 1.433 . S
C1862 H1858 0.929 . S
C1862 C1864 1.378 . S
C1862 C1866 1.350 . S
C1863 C1866 1.463 . S
C1863 C1868 1.350 . S
C1863 N1871 1.427 . S
C1864 H1855 0.930 . S
C1864 C1862 1.378 . S
C1864 C1865 1.367 . S
C1865 C1864 1.367 . S
C1865 C1867 1.433 . S
C1866 C1862 1.350 . S
C1866 C1863 1.463 . S
C1866 N1870 1.427 . S
C1867 H1857 0.929 . S
C1867 C1865 1.433 . S
C1867 N1870 1.384 . S
C1868 H1859 0.929 . S
C1868 C1860 1.378 . S
C1868 C1863 1.350 . S
C1869 H1856 0.929 . S
C1869 C1861 1.433 . S
C1869 N1871 1.384 . S
N1870 C1866 1.427 . S
N1870 C1867 1.384 . S
N1871 C1863 1.427 . S
N1871 C1869 1.384 . S
H1872 C1878 0.930 . S
H1873 C1882 0.930 . S
H1874 C1887 0.925 1_455 S
H1875 C1885 0.929 . S
H1876 C1880 0.929 . S
H1877 C1886 0.929 . S
C1878 H1872 0.930 . S
C1878 C1879 1.367 . S
C1878 C1886 1.378 . S
C1879 C1878 1.367 . S
C1879 C1887 1.433 . S
C1880 H1876 0.929 . S
C1880 C1882 1.378 . S
C1880 C1884 1.350 1_455 S
C1881 C1884 1.463 . S
C1881 C1886 1.350 . S
C1881 N1889 1.427 . S
C1882 H1873 0.930 . S
C1882 C1880 1.378 . S
C1882 C1883 1.367 1_455 S
C1883 C1882 1.367 1_655 S
C1883 C1885 1.433 . S
C1884 C1880 1.350 1_655 S
C1884 C1881 1.463 . S
C1884 N1888 1.427 . S
C1885 H1875 0.929 . S
C1885 C1883 1.433 . S
C1885 N1888 1.384 . S
C1886 H1877 0.929 . S
C1886 C1878 1.378 . S
C1886 C1881 1.350 . S
C1887 H1874 0.925 1_655 S
C1887 C1879 1.433 . S
C1887 N1889 1.384 . S
N1888 C1884 1.427 . S
N1888 C1885 1.384 . S
N1889 C1881 1.427 . S
N1889 C1887 1.384 . S
H1890 C1896 0.930 . S
H1891 C1900 0.930 . S
H1892 C1905 0.929 . S
H1893 C1903 0.929 . S
H1894 C1898 0.929 . S
H1895 C1904 0.929 . S
C1896 H1890 0.930 . S
C1896 C1897 1.367 . S
C1896 C1904 1.378 . S
C1897 C1896 1.367 . S
C1897 C1905 1.433 . S
C1898 H1894 0.929 . S
C1898 C1900 1.378 . S
C1898 C1902 1.350 . S
C1899 C1902 1.463 . S
C1899 C1904 1.350 . S
C1899 N1907 1.427 . S
C1900 H1891 0.930 . S
C1900 C1898 1.378 . S
C1900 C1901 1.367 . S
C1901 C1900 1.367 . S
C1901 C1903 1.433 . S
C1902 C1898 1.350 . S
C1902 C1899 1.463 . S
C1902 N1906 1.427 . S
C1903 H1893 0.929 . S
C1903 C1901 1.433 . S
C1903 N1906 1.384 . S
C1904 H1895 0.929 . S
C1904 C1896 1.378 . S
C1904 C1899 1.350 . S
C1905 H1892 0.929 . S
C1905 C1897 1.433 . S
C1905 N1907 1.384 . S
N1906 C1902 1.427 . S
N1906 C1903 1.384 . S
N1907 C1899 1.427 . S
N1907 C1905 1.384 . S
H1908 C1914 0.930 . S
H1909 C1918 0.930 . S
H1910 C1923 0.929 . S
H1911 C1921 0.929 . S
H1912 C1916 0.929 . S
H1913 C1922 0.929 . S
C1914 H1908 0.930 . S
C1914 C1915 1.367 1_565 S
C1914 C1922 1.378 . S
C1915 C1914 1.367 1_545 S
C1915 C1923 1.433 . S
C1916 H1912 0.929 . S
C1916 C1918 1.378 . S
C1916 C1920 1.350 . S
C1917 C1920 1.463 . S
C1917 C1922 1.350 1_545 S
C1917 N1925 1.427 . S
C1918 H1909 0.930 . S
C1918 C1916 1.378 . S
C1918 C1919 1.367 . S
C1919 C1918 1.367 . S
C1919 C1921 1.433 1_545 S
C1920 C1916 1.350 . S
C1920 C1917 1.463 . S
C1920 N1924 1.427 1_545 S
C1921 H1911 0.929 . S
C1921 C1919 1.433 1_565 S
C1921 N1924 1.384 . S
C1922 H1913 0.929 . S
C1922 C1914 1.378 . S
C1922 C1917 1.350 1_565 S
C1923 H1910 0.929 . S
C1923 C1915 1.433 . S
C1923 N1925 1.384 . S
N1924 C1920 1.427 1_565 S
N1924 C1921 1.384 . S
N1925 C1917 1.427 . S
N1925 C1923 1.384 . S
C637 C7 1.515 . S
C641 C458 1.500 1_655 S
C655 C23 1.573 . S
C659 C471 1.553 . S
C677 C500 1.470 1_545 S
C673 C37 1.537 . S
C691 C35 1.509 . S
C695 C513 1.510 . S
C709 C9 1.547 1_455 S
C713 C534 1.526 . S
C727 C21 1.539 . S
C731 C563 1.501 . S
C745 C49 1.515 . S
C749 C542 1.510 . S
C767 C555 1.511 . S
C763 C65 1.559 . S
C785 C521 1.500 . S
C781 C79 1.530 1_565 S
C799 C77 1.501 . S
C803 C492 1.484 1_545 S
C821 C450 1.495 1_655 S
C817 C51 1.544 1_655 S
C835 C63 1.523 . S
C839 C479 1.525 . S
C853 C91 1.587 . S
C857 C584 1.547 . S
C871 C107 1.612 . S
C875 C597 1.589 . S
C893 C626 1.533 . S
C889 C121 1.619 . S
C907 C119 1.563 . S
C911 C261 1.584 . S
C925 C93 1.618 . S
C929 C282 1.595 . S
C943 C105 1.562 . S
C947 C311 1.518 . S
C961 C133 1.535 . S
C965 C290 1.531 . S
C979 C149 1.580 . S
C983 C303 1.527 . S
C1001 C269 1.556 . S
C997 C163 1.590 . S
C1019 C618 1.558 . S
C1015 C161 1.587 . S
C1037 C576 1.524 . S
C1033 C135 1.592 . S
C1055 C605 1.569 . S
C1051 C147 1.567 . S
C1069 C175 1.549 . S
C1073 C332 1.509 . S
C1087 C191 1.596 . S
C1091 C345 1.574 . S
C1105 C205 1.607 . S
C1109 C374 1.533 . S
C1123 C203 1.594 . S
C1127 C387 1.618 . S
C1145 C408 1.604 . S
C1141 C177 1.624 . S
C1163 C437 1.547 . S
C1159 C189 1.581 . S
C1181 C416 1.588 . S
C1177 C217 1.580 . S
C1199 C429 1.542 . S
C1195 C233 1.597 . S
C1213 C247 1.588 . S
C1217 C395 1.554 . S
C1235 C366 1.504 . S
C1231 C245 1.539 . S
C1249 C219 1.594 . S
C1253 C324 1.532 . S
C1271 C353 1.560 . S
C1267 C231 1.561 . S
C1289 C264 1.435 . S
C1285 C8 1.534 . S
C1303 C17 1.478 . S
C1307 C285 1.370 . S
C1325 C313 1.406 . S
C1321 C31 1.527 . S
C1343 C334 1.413 . S
C1339 C36 1.529 . S
C1361 C348 1.392 . S
C1357 C3 1.511 . S
C1379 C376 1.377 . S
C1375 C22 1.482 . S
C1393 C50 1.552 . S
C1397 C369 1.392 . S
C1411 C59 1.491 . S
C1415 C327 1.342 . S
C1429 C73 1.527 . S
C1433 C355 1.450 . S
C1447 C78 1.559 . S
C1451 C292 1.479 . S
C1469 C306 1.359 . S
C1465 C45 1.524 . S
C1483 C64 1.503 . S
C1487 C271 1.426 . S
C1505 C390 1.411 . S
C1501 C92 1.527 . S
C1519 C101 1.554 . S
C1523 C411 1.428 . S
C1537 C115 1.569 . S
C1541 C439 1.460 . S
C1559 C460 1.390 . S
C1555 C120 1.472 . S
C1573 C87 1.517 . S
C1577 C474 1.414 . S
C1591 C106 1.454 . S
C1595 C502 1.360 . S
C1609 C134 1.478 . S
C1613 C495 1.337 . S
C1627 C143 1.471 . S
C1631 C453 1.384 . S
C1649 C481 1.463 . S
C1645 C157 1.542 . S
C1663 C162 1.537 . S
C1667 C418 1.450 . S
C1681 C129 1.581 . S
C1685 C432 1.423 . S
C1703 C397 1.484 . S
C1699 C148 1.565 . S
C1721 C516 1.355 1_545 S
C1717 C176 1.476 . S
C1735 C185 1.468 . S
C1739 C537 1.332 1_655 S
C1753 C199 1.526 . S
C1757 C565 1.415 . S
C1775 C586 1.390 . S
C1771 C204 1.512 . S
C1793 C600 1.436 . S
C1789 C171 1.566 . S
C1807 C190 1.547 . S
C1811 C628 1.419 . S
C1825 C218 1.549 . S
C1829 C621 1.392 . S
C1843 C227 1.567 . S
C1847 C579 1.389 . S
C1865 C607 1.489 . S
C1861 C241 1.575 . S
C1883 C544 1.395 1_655 S
C1879 C246 1.471 . S
C1901 C558 1.361 . S
C1897 C213 1.534 . S
C1915 C232 1.463 . S
C1919 C523 1.387 1_545 S
