# Generated by pormake.
# Topology zzz, (3,6)-cn, num edge types: 1
# Building blocks:
#     Node 0, Type 0, BuildingBlock: PAMTOO_clean_linker_0, # of connection points: 3
#     Node 1, Type 0, BuildingBlock: PAMTOO_clean_linker_0, # of connection points: 3
#     Node 2, Type 0, BuildingBlock: PAMTOO_clean_linker_0, # of connection points: 3
#     Node 3, Type 0, BuildingBlock: PAMTOO_clean_linker_0, # of connection points: 3
#     Node 4, Type 0, BuildingBlock: PAMTOO_clean_linker_0, # of connection points: 3
#     Node 5, Type 0, BuildingBlock: PAMTOO_clean_linker_0, # of connection points: 3
#     Node 6, Type 0, BuildingBlock: PAMTOO_clean_linker_0, # of connection points: 3
#     Node 7, Type 0, BuildingBlock: PAMTOO_clean_linker_0, # of connection points: 3
#     Node 8, Type 1, BuildingBlock: CUKXOW_clean_sbu_0, # of connection points: 6
#     Node 9, Type 1, BuildingBlock: CUKXOW_clean_sbu_0, # of connection points: 6
#     Node 10, Type 1, BuildingBlock: CUKXOW_clean_sbu_0, # of connection points: 6
#     Node 11, Type 1, BuildingBlock: CUKXOW_clean_sbu_0, # of connection points: 6
#     Edge 12, Type (0, 1), BuildingBlock: XIVTED_clean_linker_0, # of connection points: 2
#     Edge 13, Type (0, 1), BuildingBlock: XIVTED_clean_linker_0, # of connection points: 2
#     Edge 14, Type (0, 1), BuildingBlock: XIVTED_clean_linker_0, # of connection points: 2
#     Edge 15, Type (0, 1), BuildingBlock: XIVTED_clean_linker_0, # of connection points: 2
#     Edge 16, Type (0, 1), BuildingBlock: XIVTED_clean_linker_0, # of connection points: 2
#     Edge 17, Type (0, 1), BuildingBlock: XIVTED_clean_linker_0, # of connection points: 2
#     Edge 18, Type (0, 1), BuildingBlock: XIVTED_clean_linker_0, # of connection points: 2
#     Edge 19, Type (0, 1), BuildingBlock: XIVTED_clean_linker_0, # of connection points: 2
#     Edge 20, Type (0, 1), BuildingBlock: XIVTED_clean_linker_0, # of connection points: 2
#     Edge 21, Type (0, 1), BuildingBlock: XIVTED_clean_linker_0, # of connection points: 2
#     Edge 22, Type (0, 1), BuildingBlock: XIVTED_clean_linker_0, # of connection points: 2
#     Edge 23, Type (0, 1), BuildingBlock: XIVTED_clean_linker_0, # of connection points: 2
#     Edge 24, Type (0, 1), BuildingBlock: XIVTED_clean_linker_0, # of connection points: 2
#     Edge 25, Type (0, 1), BuildingBlock: XIVTED_clean_linker_0, # of connection points: 2
#     Edge 26, Type (0, 1), BuildingBlock: XIVTED_clean_linker_0, # of connection points: 2
#     Edge 27, Type (0, 1), BuildingBlock: XIVTED_clean_linker_0, # of connection points: 2
#     Edge 28, Type (0, 1), BuildingBlock: XIVTED_clean_linker_0, # of connection points: 2
#     Edge 29, Type (0, 1), BuildingBlock: XIVTED_clean_linker_0, # of connection points: 2
#     Edge 30, Type (0, 1), BuildingBlock: XIVTED_clean_linker_0, # of connection points: 2
#     Edge 31, Type (0, 1), BuildingBlock: XIVTED_clean_linker_0, # of connection points: 2
#     Edge 32, Type (0, 1), BuildingBlock: XIVTED_clean_linker_0, # of connection points: 2
#     Edge 33, Type (0, 1), BuildingBlock: XIVTED_clean_linker_0, # of connection points: 2
#     Edge 34, Type (0, 1), BuildingBlock: XIVTED_clean_linker_0, # of connection points: 2
#     Edge 35, Type (0, 1), BuildingBlock: XIVTED_clean_linker_0, # of connection points: 2
# Relax obj value: 0.065
# Max RMSD: 0.118
# Mean RMSD: 0.080
data_MOF--net-zzz--node1-CUKXOW_clean_sbu_0--node2-PAMTOO_clean_linker_0--edge1-XIVTED_clean_linker_0
_symmetry_space_group_name_H-M    P1
_symmetry_Int_Tables_number       1
_symmetry_cell_setting            triclinic
loop_
_symmetry_equiv_pos_as_xyz
'x, y, z'
_cell_length_a     50.850254
_cell_length_b     52.798256
_cell_length_c     15.784879
_cell_angle_alpha  93.256678
_cell_angle_beta   86.860699
_cell_angle_gamma 93.850891
loop_
_atom_site_label
_atom_site_type_symbol
_atom_site_fract_x
_atom_site_fract_y
_atom_site_fract_z
_atom_type_partial_charge
H0 H 0.83695 0.54651 0.18733 0.0
H1 H 0.77902 0.53816 -0.00264 0.0
H2 H 0.75516 0.53158 0.26163 0.0
H3 H 0.72586 0.49595 0.14315 0.0
C4 C 0.72801 0.50706 0.08504 0.0
O5 O 0.73867 0.53117 0.1061 0.0
H6 H 0.74133 0.49716 0.03762 0.0
C7 C 0.81648 0.54432 0.17042 0.0
C8 C 0.79684 0.53997 0.23437 0.0
C9 C 0.81046 0.5434 0.08473 0.0
C10 C 0.78404 0.53916 0.06335 0.0
C11 C 0.76404 0.53545 0.12731 0.0
C12 C 0.77048 0.53548 0.21283 0.0
H13 H 0.9532 0.84202 0.04663 0.0
H14 H 0.97323 0.77303 0.90854 0.0
H15 H 0.94643 0.77138 0.17172 0.0
H16 H 0.98713 0.73324 0.12156 0.0
C17 C 0.98577 0.73432 0.05178 0.0
O18 O 0.96199 0.74393 0.03654 0.0
H19 H 0.00263 0.74693 0.02753 0.0
C20 C 0.95385 0.82148 0.04407 0.0
C21 C 0.94789 0.80825 0.11783 0.0
C22 C 0.96321 0.80904 0.96902 0.0
C23 C 0.96556 0.78276 0.966 0.0
C24 C 0.95898 0.76915 0.03885 0.0
C25 C 0.95045 0.78189 0.11495 0.0
H26 H 0.66429 0.96861 0.14964 0.0
H27 H 0.73005 0.98127 0.97005 0.0
H28 H 0.74234 0.98371 0.23783 0.0
H29 H 0.77669 0.02157 0.14669 0.0
C30 C 0.77519 0.01285 0.08117 0.0
O31 O 0.76521 0.98797 0.08554 0.0
H32 H 0.76184 0.02406 0.04658 0.0
C33 C 0.68538 0.97119 0.13523 0.0
C34 C 0.70222 0.97471 0.20262 0.0
C35 C 0.69494 0.97388 0.05104 0.0
C36 C 0.72218 0.97886 0.03448 0.0
C37 C 0.73927 0.98199 0.10175 0.0
C38 C 0.72926 0.98017 0.18593 0.0
H39 H 0.56436 0.67364 0.17036 0.0
H40 H 0.54899 0.73211 0.00398 0.0
H41 H 0.56099 0.75088 0.26894 0.0
H42 H 0.58851 0.77599 0.05708 0.0
C43 C 0.57396 0.78573 0.10076 0.0
O44 O 0.55267 0.76922 0.12143 0.0
H45 H 0.58412 0.79221 0.15953 0.0
C46 C 0.56254 0.69355 0.15945 0.0
C47 C 0.56387 0.71134 0.2283 0.0
C48 C 0.55699 0.70064 0.07852 0.0
C49 C 0.55341 0.72627 0.06608 0.0
C50 C 0.55553 0.74449 0.1343 0.0
C51 C 0.56021 0.73694 0.21593 0.0
H52 H 0.18428 0.47886 0.23531 0.0
H53 H 0.24435 0.49261 0.41693 0.0
H54 H 0.26547 0.49033 0.1485 0.0
H55 H 0.307 0.46975 0.23531 0.0
C56 C 0.2996 0.47447 0.30154 0.0
O57 O 0.28373 0.49468 0.30178 0.0
H58 H 0.28812 0.45728 0.32487 0.0
C59 C 0.20495 0.48178 0.2495 0.0
C60 C 0.22397 0.48365 0.18244 0.0
C61 C 0.21189 0.48524 0.33411 0.0
C62 C 0.23859 0.48996 0.35179 0.0
C63 C 0.25795 0.49124 0.28475 0.0
C64 C 0.25056 0.48873 0.19999 0.0
H65 H 0.03993 0.17848 0.35013 0.0
H66 H 0.01906 0.24763 0.48592 0.0
H67 H 0.04531 0.24855 0.22201 0.0
H68 H 0.05994 0.29931 0.3039 0.0
C69 C 0.05181 0.29359 0.36728 0.0
O70 O 0.03041 0.27643 0.35657 0.0
H71 H 0.0678 0.2848 0.39874 0.0
C72 C 0.03863 0.19894 0.35159 0.0
C73 C 0.04441 0.21195 0.27734 0.0
C74 C 0.02926 0.2115 0.4264 0.0
C75 C 0.02639 0.23772 0.42833 0.0
C76 C 0.03269 0.25109 0.35476 0.0
C77 C 0.04116 0.23815 0.27897 0.0
H78 H 0.34729 0.03809 0.24672 0.0
H79 H 0.28073 0.02745 0.42479 0.0
H80 H 0.26924 0.02583 0.15646 0.0
H81 H 0.22473 0.04786 0.24988 0.0
C82 C 0.22876 0.04228 0.31459 0.0
O83 O 0.24568 0.02286 0.30803 0.0
H84 H 0.23787 0.05934 0.34938 0.0
C85 C 0.32614 0.03602 0.26062 0.0
C86 C 0.30944 0.03323 0.19285 0.0
C87 C 0.31627 0.03361 0.34461 0.0
C88 C 0.28887 0.02949 0.36048 0.0
C89 C 0.27191 0.02725 0.29269 0.0
C90 C 0.28227 0.0286 0.20873 0.0
H91 H 0.44279 0.34196 0.27191 0.0
H92 H 0.45893 0.28224 0.43211 0.0
H93 H 0.44373 0.265 0.16865 0.0
H94 H 0.42137 0.22342 0.27673 0.0
C95 C 0.43236 0.22919 0.33448 0.0
O96 O 0.45349 0.24578 0.31303 0.0
H97 H 0.41846 0.23857 0.38143 0.0
C98 C 0.4441 0.32189 0.28142 0.0
C99 C 0.44172 0.30445 0.21176 0.0
C100 C 0.45055 0.3143 0.36088 0.0
C101 C 0.45377 0.28848 0.37129 0.0
C102 C 0.45058 0.27063 0.30249 0.0
C103 C 0.44514 0.27869 0.22226 0.0
Tb104 Tb 0.99113 0.99337 0.62189 0.0
C105 C 0.05375 0.00644 0.6176 0.0
Tb106 Tb 0.01631 0.02564 0.77068 0.0
O107 O 0.97659 0.02738 0.57029 0.0
O108 O 0.01004 0.02957 0.64175 0.0
O109 O 0.03358 0.99238 0.58486 0.0
C110 C 0.02931 0.06709 0.86698 0.0
O111 O 0.05076 0.02285 0.68391 0.0
C112 C 0.01293 0.9764 0.78389 0.0
C113 C 0.95375 0.01333 0.77461 0.0
O114 O 0.03889 0.04505 0.8727 0.0
O115 O 0.01209 0.06546 0.80913 0.0
O116 O 0.03024 0.99137 0.82324 0.0
O117 O 0.99718 0.98965 0.75081 0.0
O118 O 0.97406 0.02738 0.80613 0.0
O119 O 0.95655 0.99653 0.70914 0.0
C120 C 0.97742 0.95192 0.52622 0.0
O121 O 0.96851 0.97422 0.51962 0.0
O122 O 0.99446 0.95325 0.58468 0.0
C123 C 0.99389 0.04254 0.60906 0.0
Tb124 Tb 0.50529 0.03253 0.66278 0.0
C125 C 0.5508 0.99824 0.59685 0.0
Tb126 Tb 0.50752 0.97907 0.73668 0.0
O127 O 0.54234 0.04629 0.71785 0.0
O128 O 0.5187 0.01736 0.77274 0.0
O129 O 0.53635 0.01714 0.57877 0.0
C130 C 0.52012 0.93823 0.8144 0.0
O131 O 0.54428 0.98278 0.65926 0.0
C132 C 0.47183 0.98238 0.62456 0.0
C133 C 0.46184 0.01318 0.80169 0.0
O134 O 0.51644 0.93894 0.7338 0.0
O135 O 0.51662 0.96046 0.85106 0.0
O136 O 0.47047 0.9653 0.68099 0.0
O137 O 0.49418 0.99425 0.6268 0.0
O138 O 0.47637 0.99441 0.8201 0.0
O139 O 0.46836 0.02863 0.73933 0.0
C140 C 0.49234 0.07404 0.58978 0.0
O141 O 0.49632 0.0726 0.66986 0.0
O142 O 0.4958 0.05212 0.55064 0.0
C143 C 0.54107 0.02925 0.77435 0.0
Tb144 Tb 0.51981 0.52741 0.65793 0.0
C145 C 0.4619 0.50453 0.63797 0.0
Tb146 Tb 0.49836 0.48483 0.77652 0.0
O147 O 0.51757 0.50052 0.54716 0.0
O148 O 0.52366 0.48818 0.66695 0.0
O149 O 0.47877 0.52437 0.62382 0.0
C150 C 0.47932 0.44068 0.83646 0.0
O151 O 0.46678 0.48622 0.68838 0.0
C152 C 0.49874 0.53155 0.842 0.0
C153 C 0.55648 0.50688 0.7952 0.0
O154 O 0.46971 0.46259 0.85578 0.0
O155 O 0.49984 0.44375 0.78473 0.0
O156 O 0.50089 0.51192 0.88684 0.0
O157 O 0.49436 0.52396 0.76695 0.0
O158 O 0.53936 0.4872 0.80864 0.0
O159 O 0.55182 0.52551 0.74549 0.0
C160 C 0.53778 0.57191 0.59777 0.0
O161 O 0.54767 0.55018 0.57756 0.0
O162 O 0.51769 0.56849 0.65105 0.0
C163 C 0.51938 0.48074 0.59162 0.0
Tb164 Tb 0.98749 0.51337 0.65143 0.0
C165 C 0.01224 0.46133 0.65589 0.0
Tb166 Tb 0.0336 0.50862 0.76883 0.0
O167 O 0.01435 0.51185 0.53722 0.0
O168 O 0.02784 0.52516 0.65352 0.0
O169 O 0.98962 0.47226 0.6515 0.0
C170 C 0.08045 0.50114 0.82734 0.0
O171 O 0.03322 0.47362 0.68862 0.0
C172 C 0.98591 0.50543 0.84106 0.0
C173 C 0.00893 0.5614 0.76827 0.0
O174 O 0.05862 0.48787 0.84538 0.0
O175 O 0.07578 0.51898 0.77805 0.0
O176 O 0.00685 0.5133 0.88129 0.0
O177 O 0.99294 0.49724 0.76756 0.0
O178 O 0.02947 0.5491 0.78854 0.0
O179 O 0.99016 0.55103 0.7189 0.0
C180 C 0.93985 0.51772 0.59182 0.0
O181 O 0.94854 0.52936 0.66025 0.0
O182 O 0.95809 0.50408 0.55636 0.0
C183 C 0.03518 0.51881 0.57884 0.0
H184 H 0.21794 0.04312 0.48612 0.0
H185 H 0.06716 0.98994 0.45319 0.0
H186 H 0.18307 0.02074 0.24844 0.0
H187 H 0.10066 0.02295 0.68281 0.0
H188 H 0.1108 0.99517 0.3795 0.0
H189 H 0.17633 0.03009 0.56175 0.0
C190 C 0.2014 0.03548 0.4501 0.0
C191 C 0.20353 0.03358 0.36121 0.0
C192 C 0.10858 0.00105 0.44621 0.0
C193 C 0.15607 0.01834 0.44666 0.0
C194 C 0.08373 0.99795 0.48836 0.0
C195 C 0.08022 0.0063 0.57398 0.0
C196 C 0.13 0.01238 0.49033 0.0
C197 C 0.10236 0.01657 0.61645 0.0
C198 C 0.17771 0.02799 0.49304 0.0
C199 C 0.18188 0.02297 0.31712 0.0
N200 N 0.12622 0.01944 0.57413 0.0
N201 N 0.15892 0.01592 0.36028 0.0
H202 H 0.44614 0.22454 0.49769 0.0
H203 H 0.48134 0.07874 0.4242 0.0
H204 H 0.44149 0.18247 0.25645 0.0
H205 H 0.48536 0.12096 0.66565 0.0
H206 H 0.46761 0.11669 0.36051 0.0
H207 H 0.46163 0.18704 0.55969 0.0
C208 C 0.44834 0.2073 0.45806 0.0
C209 C 0.44213 0.20632 0.37251 0.0
C210 C 0.47155 0.11769 0.42737 0.0
C211 C 0.46002 0.16348 0.44219 0.0
C212 C 0.4794 0.09605 0.46365 0.0
C213 C 0.48449 0.09681 0.55016 0.0
C214 C 0.46878 0.14021 0.4781 0.0
C215 C 0.48162 0.11963 0.59863 0.0
C216 C 0.45719 0.18594 0.49323 0.0
C217 C 0.44573 0.18378 0.32308 0.0
N218 N 0.47393 0.14042 0.56196 0.0
N219 N 0.45432 0.16319 0.35873 0.0
H220 H 0.34123 0.5091 0.27231 0.0
H221 H 0.42003 0.47014 0.66451 0.0
H222 H 0.31016 0.45529 0.45342 0.0
H223 H 0.44663 0.53271 0.50988 0.0
H224 H 0.37982 0.46451 0.58691 0.0
H225 H 0.38006 0.51835 0.35761 0.0
C226 C 0.34261 0.49938 0.33035 0.0
C227 C 0.32271 0.4813 0.35575 0.0
C228 C 0.39435 0.47959 0.57018 0.0
C229 C 0.36685 0.49158 0.45319 0.0
C230 C 0.4174 0.48281 0.61446 0.0
C231 C 0.43683 0.50195 0.59377 0.0
C232 C 0.39065 0.49545 0.50399 0.0
C233 C 0.43219 0.51775 0.52824 0.0
C234 C 0.36469 0.50462 0.37894 0.0
C235 C 0.32521 0.46922 0.43144 0.0
N236 N 0.40964 0.51406 0.48532 0.0
N237 N 0.34697 0.47445 0.47718 0.0
H238 H 0.07125 0.31451 0.51628 0.0
H239 H 0.98001 0.43296 0.5474 0.0
H240 H 0.01365 0.32531 0.33334 0.0
H241 H 0.05045 0.42969 0.68616 0.0
H242 H 0.98731 0.39048 0.4828 0.0
H243 H 0.05911 0.3538 0.59382 0.0
C244 C 0.05589 0.32512 0.49291 0.0
C245 C 0.04339 0.31679 0.4185 0.0
C246 C 0.00103 0.39906 0.52784 0.0
C247 C 0.02945 0.3617 0.50642 0.0
C248 C 0.99681 0.42321 0.56501 0.0
C249 C 0.01473 0.43492 0.62185 0.0
C250 C 0.02316 0.38652 0.54843 0.0
C251 C 0.03624 0.42149 0.64213 0.0
C252 C 0.049 0.34753 0.53698 0.0
C253 C 0.02366 0.33119 0.39068 0.0
N254 N 0.03986 0.39805 0.60536 0.0
N255 N 0.01729 0.35302 0.4346 0.0
H256 H 0.78695 0.9951 0.91858 0.0
H257 H 0.94065 0.03937 0.92481 0.0
H258 H 0.82318 0.03243 0.13675 0.0
H259 H 0.90668 0.99062 0.72474 0.0
H260 H 0.89717 0.04008 -0.00151 0.0
H261 H 0.83019 0.99614 0.84163 0.0
C262 C 0.80411 0.00347 0.95006 0.0
C263 C 0.80168 0.01351 0.03401 0.0
C264 C 0.89925 0.02926 0.93842 0.0
C265 C 0.85102 0.015 0.94679 0.0
C266 C 0.92407 0.02889 0.89611 0.0
C267 C 0.92739 0.01482 0.81854 0.0
C268 C 0.87754 0.01559 0.9027 0.0
C269 C 0.90513 0.00163 0.78457 0.0
C270 C 0.82872 0.00408 0.90635 0.0
C271 C 0.82433 0.02436 0.07216 0.0
N272 N 0.88117 0.00233 0.82687 0.0
N273 N 0.84809 0.02482 0.02824 0.0
H274 H 0.56208 0.78834 0.93451 0.0
H275 H 0.52945 0.93525 0.98189 0.0
H276 H 0.56436 0.83333 0.17068 0.0
H277 H 0.52717 0.8904 0.74513 0.0
H278 H 0.54151 0.89796 0.05272 0.0
H279 H 0.5482 0.82518 0.86434 0.0
C280 C 0.55965 0.80606 0.97134 0.0
C281 C 0.56476 0.80805 0.0579 0.0
C282 C 0.53834 0.89621 0.98531 0.0
C283 C 0.54876 0.85014 0.97879 0.0
C284 C 0.53145 0.9175 0.94491 0.0
C285 C 0.5273 0.91583 0.85766 0.0
C286 C 0.5411 0.87308 0.93805 0.0
C287 C 0.5302 0.89244 0.81259 0.0
C288 C 0.55174 0.82704 0.93149 0.0
C289 C 0.56095 0.8312 0.10348 0.0
N290 N 0.53694 0.87197 0.85328 0.0
N291 N 0.55331 0.85139 0.0633 0.0
H292 H 0.68099 0.48087 0.12639 0.0
H293 H 0.59965 0.54068 0.77415 0.0
H294 H 0.71585 0.53567 0.95422 0.0
H295 H 0.57083 0.47602 0.91602 0.0
H296 H 0.64108 0.54188 0.84688 0.0
H297 H 0.63908 0.48165 0.0578 0.0
C298 C 0.67969 0.49325 0.07457 0.0
C299 C 0.70173 0.5085 0.04657 0.0
C300 C 0.62566 0.52744 0.86192 0.0
C301 C 0.65397 0.50931 0.967 0.0
C302 C 0.60198 0.52674 0.8205 0.0
C303 C 0.58172 0.50812 0.8385 0.0
C304 C 0.62903 0.50952 0.92231 0.0
C305 C 0.58589 0.49062 0.89946 0.0
C306 C 0.65582 0.49363 0.03518 0.0
C307 C 0.69914 0.52391 0.97829 0.0
N308 N 0.60902 0.49178 0.9391 0.0
N309 N 0.67567 0.52398 0.94088 0.0
H310 H 0.96653 0.71604 0.89793 0.0
H311 H 0.03784 0.58589 0.89261 0.0
H312 H 0.01163 0.69466 0.10309 0.0
H313 H 0.97411 0.59636 0.73051 0.0
H314 H 0.03209 0.62792 0.95984 0.0
H315 H 0.97234 0.67425 0.82607 0.0
C316 C 0.97734 0.7024 0.92834 0.0
C317 C 0.98794 0.70844 0.00785 0.0
C318 C 0.01939 0.62106 0.90945 0.0
C319 C 0.99541 0.6611 0.92479 0.0
C320 C 0.02275 0.59708 0.87052 0.0
C321 C 0.00645 0.58753 0.80554 0.0
C322 C 0.99973 0.63579 0.88295 0.0
C323 C 0.98712 0.60293 0.78033 0.0
C324 C 0.98074 0.67864 0.88718 0.0
C325 C 0.00263 0.69047 0.04287 0.0
N326 N 0.98432 0.62636 0.81901 0.0
N327 N 0.00592 0.66761 0.00117 0.0
H328 H 0.97915 0.19488 0.4705 0.0
H329 H 0.03588 0.07392 0.65442 0.0
H330 H 0.05978 0.19028 0.53502 0.0
H331 H 0.9581 0.07445 0.55872 0.0
H332 H 0.04118 0.11993 0.64594 0.0
H333 H 0.96723 0.15531 0.54142 0.0
C334 C 0.99404 0.18615 0.50347 0.0
C335 C 0.02041 0.19571 0.49755 0.0
C336 C 0.02282 0.1101 0.62762 0.0
C337 C 0.00732 0.15015 0.57512 0.0
C338 C 0.01977 0.08381 0.63243 0.0
C339 C 0.99654 0.07043 0.60691 0.0
C340 C 0.00265 0.12311 0.59562 0.0
C341 C 0.97641 0.08412 0.5783 0.0
C342 C 0.98736 0.16338 0.54263 0.0
C343 C 0.0392 0.18349 0.53908 0.0
N344 N 0.98002 0.10975 0.5726 0.0
N345 N 0.03239 0.16104 0.57482 0.0
H346 H 0.31504 0.99904 0.46805 0.0
H347 H 0.46949 0.01391 0.49413 0.0
H348 H 0.36168 0.06333 0.37066 0.0
H349 H 0.42051 0.97165 0.67537 0.0
H350 H 0.42996 0.03161 0.44523 0.0
H351 H 0.35253 0.98885 0.54777 0.0
C352 C 0.33286 0.01147 0.46545 0.0
C353 C 0.3354 0.03179 0.4114 0.0
C354 C 0.4279 0.01868 0.4964 0.0
C355 C 0.37858 0.01969 0.49971 0.0
C356 C 0.45045 0.00873 0.5244 0.0
C357 C 0.44826 0.99179 0.58973 0.0
C358 C 0.40296 0.01108 0.53279 0.0
C359 C 0.42302 0.98465 0.62449 0.0
C360 C 0.35437 0.00548 0.51021 0.0
C361 C 0.3591 0.04712 0.41004 0.0
N362 N 0.40131 0.99423 0.59529 0.0
N363 N 0.37997 0.04043 0.45191 0.0
H364 H 0.49483 0.32116 0.45309 0.0
H365 H 0.4797 0.4679 0.48609 0.0
H366 H 0.42114 0.35385 0.41571 0.0
H367 H 0.53427 0.4355 0.6424 0.0
H368 H 0.45974 0.42534 0.45304 0.0
H369 H 0.51066 0.36139 0.52462 0.0
C370 C 0.48165 0.33648 0.46268 0.0
C371 C 0.45682 0.33439 0.42737 0.0
C372 C 0.476 0.4275 0.49495 0.0
C373 C 0.47506 0.38043 0.50575 0.0
C374 C 0.48758 0.45173 0.51286 0.0
C375 C 0.50861 0.45503 0.56683 0.0
C376 C 0.48597 0.40637 0.52949 0.0
C377 C 0.51799 0.43355 0.60058 0.0
C378 C 0.49079 0.35948 0.50264 0.0
C379 C 0.44061 0.35488 0.44082 0.0
N380 N 0.50677 0.40998 0.58068 0.0
N381 N 0.45023 0.37725 0.47711 0.0
H382 H 0.20228 0.52343 0.4539 0.0
H383 H 0.05024 0.4802 0.46959 0.0
H384 H 0.17165 0.44956 0.36093 0.0
H385 H 0.08122 0.54283 0.62943 0.0
H386 H 0.09529 0.46864 0.43141 0.0
H387 H 0.15943 0.53016 0.52819 0.0
C388 C 0.18683 0.50828 0.4518 0.0
C389 C 0.1903 0.48604 0.40069 0.0
C390 C 0.09231 0.48484 0.47528 0.0
C391 C 0.14121 0.49389 0.48234 0.0
C392 C 0.06663 0.4916 0.49611 0.0
C393 C 0.06222 0.51253 0.5522 0.0
C394 C 0.11374 0.49942 0.50964 0.0
C395 C 0.08399 0.52649 0.58605 0.0
C396 C 0.1623 0.51222 0.49327 0.0
C397 C 0.16959 0.46709 0.39908 0.0
N398 N 0.10891 0.51983 0.56366 0.0
N399 N 0.14578 0.47165 0.43776 0.0
H400 H 0.93555 0.83156 0.85531 0.0
H401 H 0.04702 0.94341 0.83851 0.0
H402 H 0.01424 0.82451 0.93487 0.0
H403 H 0.9699 0.9464 0.74001 0.0
H404 H 0.03838 0.89746 0.85235 0.0
H405 H 0.95096 0.87014 0.78417 0.0
C406 C 0.95635 0.83762 0.85437 0.0
C407 C 0.97375 0.82497 0.90015 0.0
C408 C 0.02354 0.90812 0.82639 0.0
C409 C 0.99128 0.86972 0.82381 0.0
C410 C 0.02841 0.93432 0.81913 0.0
C411 C 0.0091 0.94862 0.78855 0.0
C412 C 0.99907 0.89636 0.80365 0.0
C413 C 0.98536 0.93604 0.76378 0.0
C414 C 0.96513 0.85982 0.81494 0.0
C415 C 1.00037 0.83376 0.89923 0.0
N416 N 0.98094 0.9107 0.77252 0.0
N417 N 0.00826 0.856 0.8634 0.0
H418 H 0.64952 0.94399 0.02571 0.0
H419 H 0.59201 0.03897 0.71789 0.0
H420 H 0.69565 0.00863 0.92841 0.0
H421 H 0.54421 0.99807 0.90549 0.0
H422 H 0.6313 0.02107 0.76685 0.0
H423 H 0.61208 0.95544 0.94811 0.0
C424 C 0.65197 0.96025 0.98645 0.0
C425 C 0.67557 0.97571 0.98502 0.0
C426 C 0.61216 0.01584 0.79671 0.0
C427 C 0.63293 0.98878 0.89629 0.0
C428 C 0.58979 0.02617 0.76943 0.0
C429 C 0.56481 0.0196 0.80719 0.0
C430 C 0.60949 0.99877 0.86192 0.0
C431 C 0.563 0.00286 0.87311 0.0
C432 C 0.63057 0.96682 0.94271 0.0
C433 C 0.67785 0.99621 0.93161 0.0
N434 N 0.58508 0.99293 0.89842 0.0
N435 N 0.65662 0.00237 0.89021 0.0
H436 H 0.51428 0.69157 0.98016 0.0
H437 H 0.53811 0.54604 0.94711 0.0
H438 H 0.58892 0.66258 0.02919 0.0
H439 H 0.48166 0.57588 0.79144 0.0
H440 H 0.5557 0.58938 0.98203 0.0
H441 H 0.50137 0.65071 0.90687 0.0
C442 C 0.52829 0.67693 0.97281 0.0
C443 C 0.55252 0.68022 0.01174 0.0
C444 C 0.53956 0.58649 0.9398 0.0
C445 C 0.53763 0.63347 0.93128 0.0
C446 C 0.52933 0.56182 0.92086 0.0
C447 C 0.50841 0.5576 0.86678 0.0
C448 C 0.52836 0.60711 0.906 0.0
C449 C 0.49787 0.57856 0.83345 0.0
C450 C 0.52083 0.65356 0.93184 0.0
C451 C 0.56988 0.66059 0.00113 0.0
N452 N 0.50778 0.60255 0.85429 0.0
N453 N 0.56187 0.63785 0.96363 0.0
H454 H 0.81876 0.50869 0.95233 0.0
H455 H 0.97238 0.54312 0.95619 0.0
H456 H 0.85315 0.57735 0.07345 0.0
H457 H 0.93908 0.48593 0.78002 0.0
H458 H 0.92821 0.55681 0.99424 0.0
H459 H 0.86136 0.50177 0.87717 0.0
C460 C 0.83503 0.52277 0.96073 0.0
C461 C 0.83262 0.54344 0.01991 0.0
C462 C 0.93047 0.54134 0.94692 0.0
C463 C 0.88143 0.53526 0.93679 0.0
C464 C 0.95567 0.53334 0.92599 0.0
C465 C 0.9592 0.51317 0.86589 0.0
C466 C 0.90857 0.52879 0.90852 0.0
C467 C 0.937 0.50143 0.82737 0.0
C468 C 0.85942 0.51868 0.91861 0.0
C469 C 0.85436 0.56098 0.02917 0.0
N470 N 0.91251 0.50924 0.84999 0.0
N471 N 0.87799 0.55623 0.98944 0.0
H472 H 0.02227 0.21331 0.12392 0.0
H473 H 0.06526 0.07408 0.99026 0.0
H474 H 0.08041 0.17584 0.25142 0.0
H475 H 0.01118 0.11376 0.85281 0.0
H476 H 0.07601 0.11349 0.07435 0.0
H477 H 0.02394 0.18033 0.00892 0.0
C478 C 0.036 0.19857 0.12633 0.0
C479 C 0.05088 0.19698 0.19775 0.0
C480 C 0.06197 0.11365 0.02526 0.0
C481 C 0.05234 0.15883 0.0682 0.0
C482 C 0.05576 0.09114 0.97771 0.0
C483 C 0.03701 0.09068 0.91587 0.0
C484 C 0.04918 0.13573 0.01092 0.0
C485 C 0.02547 0.11329 0.90103 0.0
C486 C 0.03676 0.17957 0.06118 0.0
C487 C 0.06825 0.17742 0.198 0.0
N488 N 0.03154 0.13486 0.94883 0.0
N489 N 0.06813 0.15882 0.13507 0.0
H490 H 0.33336 0.07185 0.10484 0.0
H491 H 0.43227 0.97754 0.89059 0.0
H492 H 0.3161 0.99081 0.0922 0.0
H493 H 0.43253 0.05492 0.81538 0.0
H494 H 0.38909 0.98224 0.96337 0.0
H495 H 0.36786 0.06677 0.99176 0.0
C496 C 0.33612 0.05312 0.07531 0.0
C497 C 0.3219 0.03171 0.10671 0.0
C498 C 0.3985 0.99813 0.93034 0.0
C499 C 0.36198 0.02557 0.9815 0.0
C500 C 0.42331 0.99557 0.88983 0.0
C501 C 0.43616 0.016 0.84809 0.0
C502 C 0.38668 0.02142 0.93031 0.0
C503 C 0.42339 0.03875 0.84752 0.0
C504 C 0.35596 0.05016 0.01164 0.0
C505 C 0.32653 0.00774 0.06854 0.0
N506 N 0.39947 0.04097 0.88901 0.0
N507 N 0.34666 0.00521 0.00912 0.0
H508 H 0.40279 0.33265 0.16397 0.0
H509 H 0.50014 0.39444 0.80891 0.0
H510 H 0.47575 0.30128 0.07261 0.0
H511 H 0.43539 0.43146 0.9399 0.0
H512 H 0.48523 0.35491 0.87625 0.0
H513 H 0.4074 0.36237 0.05007 0.0
C514 C 0.41926 0.33141 0.11767 0.0
C515 C 0.43905 0.31472 0.12777 0.0
C516 C 0.4741 0.37159 0.88939 0.0
C517 C 0.44498 0.34916 -0.00057 0.0
C518 C 0.48263 0.39414 0.85126 0.0
C519 C 0.4692 0.41627 0.8703 0.0
C520 C 0.45195 0.37122 0.94661 0.0
C521 C 0.44649 0.41487 0.92459 0.0
C522 C 0.42207 0.34856 0.05335 0.0
C523 C 0.46008 0.31388 0.0667 0.0
N524 N 0.43871 0.39278 0.96148 0.0
N525 N 0.46283 0.33131 0.00605 0.0
H526 H 0.20067 0.44244 0.1001 0.0
H527 H 0.12619 0.53121 0.81292 0.0
H528 H 0.22363 0.5217 0.07328 0.0
H529 H 0.09386 0.46006 0.90777 0.0
H530 H 0.16863 0.52392 0.87167 0.0
H531 H 0.16967 0.44416 0.98784 0.0
C532 C 0.19996 0.45992 0.06768 0.0
C533 C 0.21453 0.48198 0.09565 0.0
C534 C 0.15232 0.50979 0.87858 0.0
C535 C 0.17849 0.48442 0.97023 0.0
C536 C 0.12814 0.51397 0.84549 0.0
C537 C 0.10648 0.4964 0.85713 0.0
C538 C 0.1548 0.48775 0.92253 0.0
C539 C 0.11 0.47425 0.89874 0.0
C540 C 0.18203 0.46101 0.0046 0.0
C541 C 0.21274 0.50429 0.05287 0.0
N542 N 0.13366 0.47062 0.9304 0.0
N543 N 0.19452 0.50512 0.9933 0.0
H544 H 0.91285 0.84491 0.15143 0.0
H545 H 0.99382 0.90449 0.54154 0.0
H546 H 0.97323 0.80667 0.26523 0.0
H547 H 0.94094 0.94573 0.40461 0.0
H548 H 0.98017 0.86553 0.45977 0.0
H549 H 0.91539 0.87816 0.26546 0.0
C550 C 0.92608 0.84317 0.20201 0.0
C551 C 0.94309 0.82324 0.19856 0.0
C552 C 0.97141 0.88305 0.44793 0.0
C553 C 0.9466 0.86144 0.32783 0.0
C554 C 0.97929 0.9053 0.49421 0.0
C555 C 0.96877 0.92836 0.47856 0.0
C556 C 0.95286 0.8839 0.38559 0.0
C557 C 0.94974 0.92835 0.41769 0.0
C558 C 0.9277 0.86224 0.26662 0.0
C559 C 0.95979 0.82174 0.26563 0.0
N560 N 0.94253 0.90647 0.3729 0.0
N561 N 0.9615 0.84089 0.32678 0.0
H562 H 0.67786 0.93686 0.29345 0.0
H563 H 0.58051 0.03333 0.50544 0.0
H564 H 0.69614 0.01775 0.30071 0.0
H565 H 0.57965 0.95624 0.58379 0.0
H566 H 0.62342 0.02788 0.4313 0.0
H567 H 0.6436 0.94295 0.40663 0.0
C568 C 0.67537 0.95578 0.32179 0.0
C569 C 0.68984 0.97683 0.28885 0.0
C570 C 0.61392 0.01223 0.46532 0.0
C571 C 0.64999 0.98413 0.4142 0.0
C572 C 0.58928 0.01522 0.50662 0.0
C573 C 0.57632 0.99508 0.54966 0.0
C574 C 0.62548 0.98881 0.46592 0.0
C575 C 0.58886 0.9722 0.55071 0.0
C576 C 0.65565 0.95932 0.38551 0.0
C577 C 0.68553 0.00107 0.32558 0.0
N578 N 0.6126 0.96957 0.50852 0.0
N579 N 0.66551 0.00416 0.38507 0.0
H580 H 0.60721 0.69238 0.28773 0.0
H581 H 0.58013 0.58167 0.48845 0.0
H582 H 0.52595 0.70575 0.35511 0.0
H583 H 0.5158 0.61762 0.62563 0.0
H584 H 0.59228 0.62115 0.41933 0.0
H585 H 0.60641 0.66174 0.3984 0.0
C586 C 0.58947 0.68943 0.32812 0.0
C587 C 0.56662 0.7015 0.3127 0.0
C588 C 0.576 0.62084 0.46636 0.0
C589 C 0.5648 0.66511 0.43472 0.0
C590 C 0.56887 0.5981 0.50508 0.0
C591 C 0.54685 0.59639 0.56216 0.0
C592 C 0.56089 0.64206 0.48473 0.0
C593 C 0.53286 0.61817 0.58146 0.0
C594 C 0.58877 0.67147 0.38985 0.0
C595 C 0.544 0.69689 0.3657 0.0
N596 N 0.53986 0.64001 0.54179 0.0
N597 N 0.54348 0.67866 0.42341 0.0
H598 H 0.81502 0.57666 0.34869 0.0
H599 H 0.91507 0.48447 0.48053 0.0
H600 H 0.80144 0.49563 0.30809 0.0
H601 H 0.90476 0.5544 0.62968 0.0
H602 H 0.87251 0.48836 0.41929 0.0
H603 H 0.8455 0.56978 0.45915 0.0
C604 C 0.81753 0.55745 0.36612 0.0
C605 C 0.80562 0.53665 0.32023 0.0
C606 C 0.87932 0.50269 0.46634 0.0
C607 C 0.84133 0.52862 0.44241 0.0
C608 C 0.9037 0.50059 0.50067 0.0
C609 C 0.91345 0.5193 0.55932 0.0
C610 C 0.86489 0.52402 0.48917 0.0
C611 C 0.8979 0.53968 0.58406 0.0
C612 C 0.8351 0.5535 0.42838 0.0
C613 C 0.81004 0.5121 0.34304 0.0
N614 N 0.87454 0.54179 0.54753 0.0
N615 N 0.8281 0.50872 0.40106 0.0
loop_
_geom_bond_atom_site_label_1
_geom_bond_atom_site_label_2
_geom_bond_distance
_geom_bond_site_symmetry_2
_ccdc_geom_bond_type
H0 C7 0.929 . S
H1 C10 0.930 1_556 S
H2 C12 0.929 . S
H3 C4 0.970 . S
C4 H3 0.970 . S
C4 O5 1.543 1_556 S
C4 H6 0.980 . S
O5 C4 1.543 1_554 S
O5 C11 1.412 . S
H6 C4 0.980 . S
C7 H0 0.929 . S
C7 C8 1.400 . S
C7 C9 1.364 . S
C8 C7 1.400 . S
C8 C12 1.377 . S
C9 C7 1.364 . S
C9 C10 1.374 . S
C10 H1 0.930 1_554 S
C10 C9 1.374 . S
C10 C11 1.383 . S
C11 O5 1.412 . S
C11 C10 1.383 . S
C11 C12 1.394 . S
C12 H2 0.929 . S
C12 C8 1.377 . S
C12 C11 1.394 . S
H13 C20 0.929 . S
H14 C23 0.930 . S
H15 C25 0.929 . S
H16 C17 0.969 . S
C17 H16 0.969 . S
C17 O18 1.550 1_556 S
C17 H19 0.973 . S
O18 C17 1.550 1_554 S
O18 C24 1.412 . S
H19 C17 0.973 . S
C20 H13 0.929 . S
C20 C21 1.400 . S
C20 C22 1.364 1_554 S
C21 C20 1.400 . S
C21 C25 1.377 . S
C22 C20 1.364 1_556 S
C22 C23 1.374 . S
C23 H14 0.930 . S
C23 C22 1.374 . S
C23 C24 1.383 1_556 S
C24 O18 1.412 . S
C24 C23 1.383 1_554 S
C24 C25 1.394 . S
C25 H15 0.929 . S
C25 C21 1.377 . S
C25 C24 1.394 . S
H26 C33 0.929 . S
H27 C36 0.930 1_556 S
H28 C38 0.929 . S
H29 C30 0.970 . S
C30 H29 0.970 . S
C30 O31 1.540 1_556 S
C30 H32 0.984 . S
O31 C30 1.540 1_554 S
O31 C37 1.412 . S
H32 C30 0.984 . S
C33 H26 0.929 . S
C33 C34 1.400 . S
C33 C35 1.364 . S
C34 C33 1.400 . S
C34 C38 1.377 . S
C35 C33 1.364 . S
C35 C36 1.374 . S
C36 H27 0.930 1_554 S
C36 C35 1.374 . S
C36 C37 1.383 . S
C37 O31 1.412 . S
C37 C36 1.383 . S
C37 C38 1.394 . S
C38 H28 0.929 . S
C38 C34 1.377 . S
C38 C37 1.394 . S
H39 C46 0.929 . S
H40 C49 0.930 1_556 S
H41 C51 0.929 . S
H42 C43 0.969 . S
C43 H42 0.969 . S
C43 O44 1.550 . S
C43 H45 0.973 1_554 S
O44 C43 1.550 . S
O44 C50 1.412 . S
H45 C43 0.973 1_556 S
C46 H39 0.929 . S
C46 C47 1.400 . S
C46 C48 1.364 . S
C47 C46 1.400 . S
C47 C51 1.377 . S
C48 C46 1.364 . S
C48 C49 1.374 . S
C49 H40 0.930 1_554 S
C49 C48 1.374 . S
C49 C50 1.383 . S
C50 O44 1.412 . S
C50 C49 1.383 . S
C50 C51 1.394 . S
C51 H41 0.929 . S
C51 C47 1.377 . S
C51 C50 1.394 . S
H52 C59 0.929 . S
H53 C62 0.930 . S
H54 C64 0.929 . S
H55 C56 0.969 . S
C56 H55 0.969 . S
C56 O57 1.550 . S
C56 H58 0.973 . S
O57 C56 1.550 . S
O57 C63 1.412 . S
H58 C56 0.973 . S
C59 H52 0.929 . S
C59 C60 1.400 . S
C59 C61 1.364 . S
C60 C59 1.400 . S
C60 C64 1.377 . S
C61 C59 1.364 . S
C61 C62 1.374 . S
C62 H53 0.930 . S
C62 C61 1.374 . S
C62 C63 1.383 . S
C63 O57 1.412 . S
C63 C62 1.383 . S
C63 C64 1.394 . S
C64 H54 0.929 . S
C64 C60 1.377 . S
C64 C63 1.394 . S
H65 C72 0.929 . S
H66 C75 0.930 . S
H67 C77 0.929 . S
H68 C69 0.969 . S
C69 H68 0.969 . S
C69 O70 1.550 . S
C69 H71 0.973 . S
O70 C69 1.550 . S
O70 C76 1.412 . S
H71 C69 0.973 . S
C72 H65 0.929 . S
C72 C73 1.400 . S
C72 C74 1.364 . S
C73 C72 1.400 . S
C73 C77 1.377 . S
C74 C72 1.364 . S
C74 C75 1.374 . S
C75 H66 0.930 . S
C75 C74 1.374 . S
C75 C76 1.383 . S
C76 O70 1.412 . S
C76 C75 1.383 . S
C76 C77 1.394 . S
C77 H67 0.929 . S
C77 C73 1.377 . S
C77 C76 1.394 . S
H78 C85 0.929 . S
H79 C88 0.930 . S
H80 C90 0.929 . S
H81 C82 0.969 . S
C82 H81 0.969 . S
C82 O83 1.550 . S
C82 H84 0.973 . S
O83 C82 1.550 . S
O83 C89 1.412 . S
H84 C82 0.973 . S
C85 H78 0.929 . S
C85 C86 1.400 . S
C85 C87 1.364 . S
C86 C85 1.400 . S
C86 C90 1.377 . S
C87 C85 1.364 . S
C87 C88 1.374 . S
C88 H79 0.930 . S
C88 C87 1.374 . S
C88 C89 1.383 . S
C89 O83 1.412 . S
C89 C88 1.383 . S
C89 C90 1.394 . S
C90 H80 0.929 . S
C90 C86 1.377 . S
C90 C89 1.394 . S
H91 C98 0.929 . S
H92 C101 0.930 . S
H93 C103 0.929 . S
H94 C95 0.969 . S
C95 H94 0.969 . S
C95 O96 1.550 . S
C95 H97 0.973 . S
O96 C95 1.550 . S
O96 C102 1.412 . S
H97 C95 0.973 . S
C98 H91 0.929 . S
C98 C99 1.400 . S
C98 C100 1.364 . S
C99 C98 1.400 . S
C99 C103 1.377 . S
C100 C98 1.364 . S
C100 C101 1.374 . S
C101 H92 0.930 . S
C101 C100 1.374 . S
C101 C102 1.383 . S
C102 O96 1.412 . S
C102 C101 1.383 . S
C102 C103 1.394 . S
C103 H93 0.929 . S
C103 C99 1.377 . S
C103 C102 1.394 . S
Tb104 O107 2.418 1_565 S
Tb104 O108 2.572 1_665 S
Tb104 O109 2.374 1_665 S
Tb104 O117 2.361 1_655 S
Tb104 O119 2.348 1_565 S
Tb104 O121 2.455 . S
Tb104 O122 2.544 1_655 S
C105 O109 1.251 . S
C105 O111 1.263 . S
Tb106 O108 2.343 . S
Tb106 O111 2.353 . S
Tb106 O114 2.427 . S
Tb106 O115 2.523 . S
Tb106 O116 2.453 1_545 S
Tb106 O117 2.596 1_545 S
Tb106 O118 2.374 1_455 S
O107 Tb104 2.418 1_545 S
O107 C123 1.245 1_655 S
O108 Tb104 2.572 1_445 S
O108 Tb106 2.343 . S
O108 C123 1.259 . S
O109 Tb104 2.374 1_445 S
O109 C105 1.251 . S
C110 O114 1.275 . S
C110 O115 1.272 . S
O111 C105 1.263 . S
O111 Tb106 2.353 . S
C112 O116 1.245 . S
C112 O117 1.259 . S
C113 O118 1.250 . S
C113 O119 1.263 . S
O114 Tb106 2.427 . S
O114 C110 1.275 . S
O115 Tb106 2.523 . S
O115 C110 1.272 . S
O116 Tb106 2.453 1_565 S
O116 C112 1.245 . S
O117 Tb104 2.361 1_455 S
O117 Tb106 2.596 1_565 S
O117 C112 1.259 . S
O118 Tb106 2.374 1_655 S
O118 C113 1.250 . S
O119 Tb104 2.348 1_545 S
O119 C113 1.263 . S
C120 O121 1.275 . S
C120 O122 1.246 1_655 S
O121 Tb104 2.455 . S
O121 C120 1.275 . S
O122 Tb104 2.544 1_455 S
O122 C120 1.246 1_455 S
C123 O107 1.245 1_455 S
C123 O108 1.259 . S
Tb124 O127 2.453 . S
Tb124 O128 2.596 1_545 S
Tb124 O129 2.374 . S
Tb124 O137 2.343 . S
Tb124 O139 2.353 . S
Tb124 O141 2.427 . S
Tb124 O142 2.513 . S
C125 O129 1.252 1_565 S
C125 O131 1.261 . S
Tb126 O128 2.343 . S
Tb126 O131 2.353 . S
Tb126 O134 2.427 . S
Tb126 O135 2.513 . S
Tb126 O136 2.453 . S
Tb126 O137 2.596 1_565 S
Tb126 O138 2.374 . S
O127 Tb124 2.453 . S
O127 C143 1.245 . S
O128 Tb124 2.596 1_565 S
O128 Tb126 2.343 . S
O128 C143 1.259 1_565 S
O129 Tb124 2.374 . S
O129 C125 1.252 1_545 S
C130 O134 1.275 . S
C130 O135 1.246 . S
O131 C125 1.261 . S
O131 Tb126 2.353 . S
C132 O136 1.245 1_545 S
C132 O137 1.259 . S
C133 O138 1.250 1_545 S
C133 O139 1.263 . S
O134 Tb126 2.427 . S
O134 C130 1.275 . S
O135 Tb126 2.513 . S
O135 C130 1.246 . S
O136 Tb126 2.453 . S
O136 C132 1.245 1_565 S
O137 Tb124 2.343 . S
O137 Tb126 2.596 1_545 S
O137 C132 1.259 . S
O138 Tb126 2.374 . S
O138 C133 1.250 1_565 S
O139 Tb124 2.353 . S
O139 C133 1.263 . S
C140 O141 1.275 . S
C140 O142 1.246 . S
O141 Tb124 2.427 . S
O141 C140 1.275 . S
O142 Tb124 2.513 . S
O142 C140 1.246 . S
C143 O127 1.245 . S
C143 O128 1.259 1_545 S
Tb144 O147 2.453 . S
Tb144 O148 2.596 . S
Tb144 O149 2.374 . S
Tb144 O157 2.343 . S
Tb144 O159 2.353 . S
Tb144 O161 2.427 . S
Tb144 O162 2.513 . S
C145 O149 1.251 . S
C145 O151 1.263 . S
Tb146 O148 2.343 . S
Tb146 O151 2.353 . S
Tb146 O154 2.427 . S
Tb146 O155 2.513 . S
Tb146 O156 2.453 . S
Tb146 O157 2.596 . S
Tb146 O158 2.374 . S
O147 Tb144 2.453 . S
O147 C163 1.245 . S
O148 Tb144 2.596 . S
O148 Tb146 2.343 . S
O148 C163 1.259 . S
O149 Tb144 2.374 . S
O149 C145 1.251 . S
C150 O154 1.275 . S
C150 O155 1.246 . S
O151 C145 1.263 . S
O151 Tb146 2.353 . S
C152 O156 1.245 . S
C152 O157 1.259 . S
C153 O158 1.250 . S
C153 O159 1.263 . S
O154 Tb146 2.427 . S
O154 C150 1.275 . S
O155 Tb146 2.513 . S
O155 C150 1.246 . S
O156 Tb146 2.453 . S
O156 C152 1.245 . S
O157 Tb144 2.343 . S
O157 Tb146 2.596 . S
O157 C152 1.259 . S
O158 Tb146 2.374 . S
O158 C153 1.250 . S
O159 Tb144 2.353 . S
O159 C153 1.263 . S
C160 O161 1.275 . S
C160 O162 1.246 . S
O161 Tb144 2.427 . S
O161 C160 1.275 . S
O162 Tb144 2.513 . S
O162 C160 1.246 . S
C163 O147 1.245 . S
C163 O148 1.259 . S
Tb164 O167 2.453 1_655 S
Tb164 O168 2.596 1_655 S
Tb164 O169 2.374 1_655 S
Tb164 O177 2.343 . S
Tb164 O179 2.353 1_655 S
Tb164 O181 2.427 . S
Tb164 O182 2.513 . S
C165 O169 1.251 . S
C165 O171 1.263 . S
Tb166 O168 2.343 . S
Tb166 O171 2.353 . S
Tb166 O174 2.427 . S
Tb166 O175 2.513 . S
Tb166 O176 2.453 1_455 S
Tb166 O177 2.596 1_455 S
Tb166 O178 2.374 . S
O167 Tb164 2.453 1_455 S
O167 C183 1.245 . S
O168 Tb164 2.596 1_455 S
O168 Tb166 2.343 . S
O168 C183 1.259 . S
O169 Tb164 2.374 1_455 S
O169 C165 1.251 . S
C170 O174 1.275 . S
C170 O175 1.246 . S
O171 C165 1.263 . S
O171 Tb166 2.353 . S
C172 O176 1.245 . S
C172 O177 1.259 . S
C173 O178 1.250 . S
C173 O179 1.263 . S
O174 Tb166 2.427 . S
O174 C170 1.275 . S
O175 Tb166 2.513 . S
O175 C170 1.246 . S
O176 Tb166 2.453 1_655 S
O176 C172 1.245 . S
O177 Tb164 2.343 . S
O177 Tb166 2.596 1_655 S
O177 C172 1.259 . S
O178 Tb166 2.374 . S
O178 C173 1.250 . S
O179 Tb164 2.353 1_455 S
O179 C173 1.263 . S
C180 O181 1.275 . S
C180 O182 1.246 . S
O181 Tb164 2.427 . S
O181 C180 1.275 . S
O182 Tb164 2.513 . S
O182 C180 1.246 . S
C183 O167 1.245 . S
C183 O168 1.259 . S
H184 C190 0.930 . S
H185 C194 0.930 . S
H186 C199 0.929 . S
H187 C197 0.929 1_565 S
H188 C192 0.929 . S
H189 C198 0.929 . S
C190 H184 0.930 . S
C190 C191 1.367 . S
C190 C198 1.378 . S
C191 C190 1.367 . S
C191 C199 1.433 . S
C192 H188 0.929 . S
C192 C194 1.378 . S
C192 C196 1.350 . S
C193 C196 1.463 . S
C193 C198 1.350 . S
C193 N201 1.427 . S
C194 H185 0.930 . S
C194 C192 1.378 . S
C194 C195 1.367 . S
C195 C194 1.367 . S
C195 C197 1.433 . S
C196 C192 1.350 . S
C196 C193 1.463 . S
C196 N200 1.427 . S
C197 H187 0.929 1_545 S
C197 C195 1.433 . S
C197 N200 1.384 . S
C198 H189 0.929 . S
C198 C190 1.378 . S
C198 C193 1.350 . S
C199 H186 0.929 . S
C199 C191 1.433 . S
C199 N201 1.384 . S
N200 C196 1.427 . S
N200 C197 1.384 . S
N201 C193 1.427 . S
N201 C199 1.384 . S
H202 C208 0.930 . S
H203 C212 0.930 . S
H204 C217 0.929 . S
H205 C215 0.929 . S
H206 C210 0.929 . S
H207 C216 0.929 . S
C208 H202 0.930 . S
C208 C209 1.367 . S
C208 C216 1.378 . S
C209 C208 1.367 . S
C209 C217 1.433 . S
C210 H206 0.929 . S
C210 C212 1.378 . S
C210 C214 1.350 . S
C211 C214 1.463 . S
C211 C216 1.350 . S
C211 N219 1.427 . S
C212 H203 0.930 . S
C212 C210 1.378 . S
C212 C213 1.367 . S
C213 C212 1.367 . S
C213 C215 1.433 . S
C214 C210 1.350 . S
C214 C211 1.463 . S
C214 N218 1.427 . S
C215 H205 0.929 . S
C215 C213 1.433 . S
C215 N218 1.384 . S
C216 H207 0.929 . S
C216 C208 1.378 . S
C216 C211 1.350 . S
C217 H204 0.929 . S
C217 C209 1.433 . S
C217 N219 1.384 . S
N218 C214 1.427 . S
N218 C215 1.384 . S
N219 C211 1.427 . S
N219 C217 1.384 . S
H220 C226 0.930 . S
H221 C230 0.930 . S
H222 C235 0.929 . S
H223 C233 0.929 . S
H224 C228 0.929 . S
H225 C234 0.929 . S
C226 H220 0.930 . S
C226 C227 1.367 . S
C226 C234 1.378 . S
C227 C226 1.367 . S
C227 C235 1.433 . S
C228 H224 0.929 . S
C228 C230 1.378 . S
C228 C232 1.350 . S
C229 C232 1.463 . S
C229 C234 1.350 . S
C229 N237 1.427 . S
C230 H221 0.930 . S
C230 C228 1.378 . S
C230 C231 1.367 . S
C231 C230 1.367 . S
C231 C233 1.433 . S
C232 C228 1.350 . S
C232 C229 1.463 . S
C232 N236 1.427 . S
C233 H223 0.929 . S
C233 C231 1.433 . S
C233 N236 1.384 . S
C234 H225 0.929 . S
C234 C226 1.378 . S
C234 C229 1.350 . S
C235 H222 0.929 . S
C235 C227 1.433 . S
C235 N237 1.384 . S
N236 C232 1.427 . S
N236 C233 1.384 . S
N237 C229 1.427 . S
N237 C235 1.384 . S
H238 C244 0.930 . S
H239 C248 0.930 . S
H240 C253 0.929 . S
H241 C251 0.929 . S
H242 C246 0.929 . S
H243 C252 0.929 . S
C244 H238 0.930 . S
C244 C245 1.367 . S
C244 C252 1.378 . S
C245 C244 1.367 . S
C245 C253 1.433 . S
C246 H242 0.929 . S
C246 C248 1.378 . S
C246 C250 1.350 . S
C247 C250 1.463 . S
C247 C252 1.350 . S
C247 N255 1.427 . S
C248 H239 0.930 . S
C248 C246 1.378 . S
C248 C249 1.367 . S
C249 C248 1.367 . S
C249 C251 1.433 . S
C250 C246 1.350 . S
C250 C247 1.463 . S
C250 N254 1.427 . S
C251 H241 0.929 . S
C251 C249 1.433 . S
C251 N254 1.384 . S
C252 H243 0.929 . S
C252 C244 1.378 . S
C252 C247 1.350 . S
C253 H240 0.929 . S
C253 C245 1.433 . S
C253 N255 1.384 . S
N254 C250 1.427 . S
N254 C251 1.384 . S
N255 C247 1.427 . S
N255 C253 1.384 . S
H256 C262 0.930 . S
H257 C266 0.930 . S
H258 C271 0.929 1_545 S
H259 C269 0.929 . S
H260 C264 0.929 . S
H261 C270 0.929 . S
C262 H256 0.930 . S
C262 C263 1.367 . S
C262 C270 1.378 . S
C263 C262 1.367 . S
C263 C271 1.433 1_556 S
C264 H260 0.929 . S
C264 C266 1.378 . S
C264 C268 1.350 1_545 S
C265 C268 1.463 . S
C265 C270 1.350 . S
C265 N273 1.427 . S
C266 H257 0.930 . S
C266 C264 1.378 . S
C266 C267 1.367 1_545 S
C267 C266 1.367 1_565 S
C267 C269 1.433 . S
C268 C264 1.350 1_565 S
C268 C265 1.463 . S
C268 N272 1.427 . S
C269 H259 0.929 . S
C269 C267 1.433 . S
C269 N272 1.384 . S
C270 H261 0.929 . S
C270 C262 1.378 . S
C270 C265 1.350 . S
C271 H258 0.929 1_565 S
C271 C263 1.433 1_554 S
C271 N273 1.384 1_554 S
N272 C268 1.427 . S
N272 C269 1.384 . S
N273 C265 1.427 . S
N273 C271 1.384 1_556 S
H274 C280 0.930 . S
H275 C284 0.930 . S
H276 C289 0.929 . S
H277 C287 0.929 . S
H278 C282 0.929 . S
H279 C288 0.929 . S
C280 H274 0.930 . S
C280 C281 1.367 1_556 S
C280 C288 1.378 . S
C281 C280 1.367 1_554 S
C281 C289 1.433 . S
C282 H278 0.929 . S
C282 C284 1.378 . S
C282 C286 1.350 . S
C283 C286 1.463 . S
C283 C288 1.350 . S
C283 N291 1.427 . S
C284 H275 0.930 . S
C284 C282 1.378 . S
C284 C285 1.367 . S
C285 C284 1.367 . S
C285 C287 1.433 . S
C286 C282 1.350 . S
C286 C283 1.463 . S
C286 N290 1.427 . S
C287 H277 0.929 . S
C287 C285 1.433 . S
C287 N290 1.384 . S
C288 H279 0.929 . S
C288 C280 1.378 . S
C288 C283 1.350 . S
C289 H276 0.929 . S
C289 C281 1.433 . S
C289 N291 1.384 1_554 S
N290 C286 1.427 . S
N290 C287 1.384 . S
N291 C283 1.427 . S
N291 C289 1.384 1_556 S
H292 C298 0.930 . S
H293 C302 0.930 . S
H294 C307 0.929 . S
H295 C305 0.929 . S
H296 C300 0.929 . S
H297 C306 0.929 . S
C298 H292 0.930 . S
C298 C299 1.367 1_554 S
C298 C306 1.378 1_554 S
C299 C298 1.367 1_556 S
C299 C307 1.433 . S
C300 H296 0.929 . S
C300 C302 1.378 . S
C300 C304 1.350 . S
C301 C304 1.463 . S
C301 C306 1.350 . S
C301 N309 1.427 . S
C302 H293 0.930 . S
C302 C300 1.378 . S
C302 C303 1.367 . S
C303 C302 1.367 . S
C303 C305 1.433 . S
C304 C300 1.350 . S
C304 C301 1.463 . S
C304 N308 1.427 . S
C305 H295 0.929 . S
C305 C303 1.433 . S
C305 N308 1.384 . S
C306 H297 0.929 . S
C306 C298 1.378 1_556 S
C306 C301 1.350 . S
C307 H294 0.929 . S
C307 C299 1.433 . S
C307 N309 1.384 . S
N308 C304 1.427 . S
N308 C305 1.384 . S
N309 C301 1.427 . S
N309 C307 1.384 . S
H310 C316 0.930 . S
H311 C320 0.930 . S
H312 C325 0.929 . S
H313 C323 0.929 . S
H314 C318 0.929 . S
H315 C324 0.929 . S
C316 H310 0.930 . S
C316 C317 1.367 . S
C316 C324 1.378 . S
C317 C316 1.367 . S
C317 C325 1.433 1_556 S
C318 H314 0.929 . S
C318 C320 1.378 . S
C318 C322 1.350 . S
C319 C322 1.463 . S
C319 C324 1.350 . S
C319 N327 1.427 . S
C320 H311 0.930 . S
C320 C318 1.378 . S
C320 C321 1.367 . S
C321 C320 1.367 . S
C321 C323 1.433 . S
C322 C318 1.350 . S
C322 C319 1.463 . S
C322 N326 1.427 . S
C323 H313 0.929 . S
C323 C321 1.433 . S
C323 N326 1.384 . S
C324 H315 0.929 . S
C324 C316 1.378 . S
C324 C319 1.350 . S
C325 H312 0.929 . S
C325 C317 1.433 1_554 S
C325 N327 1.384 1_554 S
N326 C322 1.427 . S
N326 C323 1.384 . S
N327 C319 1.427 . S
N327 C325 1.384 1_556 S
H328 C334 0.930 . S
H329 C338 0.930 . S
H330 C343 0.929 . S
H331 C341 0.929 . S
H332 C336 0.929 . S
H333 C342 0.929 . S
C334 H328 0.930 . S
C334 C335 1.367 . S
C334 C342 1.378 . S
C335 C334 1.367 . S
C335 C343 1.433 . S
C336 H332 0.929 . S
C336 C338 1.378 . S
C336 C340 1.350 . S
C337 C340 1.463 . S
C337 C342 1.350 . S
C337 N345 1.427 . S
C338 H329 0.930 . S
C338 C336 1.378 . S
C338 C339 1.367 . S
C339 C338 1.367 . S
C339 C341 1.433 1_455 S
C340 C336 1.350 . S
C340 C337 1.463 . S
C340 N344 1.427 . S
C341 H331 0.929 . S
C341 C339 1.433 1_655 S
C341 N344 1.384 1_655 S
C342 H333 0.929 . S
C342 C334 1.378 . S
C342 C337 1.350 . S
C343 H330 0.929 . S
C343 C335 1.433 . S
C343 N345 1.384 . S
N344 C340 1.427 . S
N344 C341 1.384 1_455 S
N345 C337 1.427 . S
N345 C343 1.384 . S
H346 C352 0.930 . S
H347 C356 0.930 . S
H348 C361 0.929 . S
H349 C359 0.929 . S
H350 C354 0.929 . S
H351 C360 0.929 . S
C352 H346 0.930 . S
C352 C353 1.367 . S
C352 C360 1.378 . S
C353 C352 1.367 . S
C353 C361 1.433 . S
C354 H350 0.929 . S
C354 C356 1.378 . S
C354 C358 1.350 . S
C355 C358 1.463 . S
C355 C360 1.350 . S
C355 N363 1.427 . S
C356 H347 0.930 . S
C356 C354 1.378 . S
C356 C357 1.367 . S
C357 C356 1.367 . S
C357 C359 1.433 1_545 S
C358 C354 1.350 . S
C358 C355 1.463 . S
C358 N362 1.427 . S
C359 H349 0.929 . S
C359 C357 1.433 1_565 S
C359 N362 1.384 1_565 S
C360 H351 0.929 . S
C360 C352 1.378 . S
C360 C355 1.350 . S
C361 H348 0.929 . S
C361 C353 1.433 . S
C361 N363 1.384 . S
N362 C358 1.427 . S
N362 C359 1.384 1_545 S
N363 C355 1.427 . S
N363 C361 1.384 . S
H364 C370 0.930 . S
H365 C374 0.930 . S
H366 C379 0.929 . S
H367 C377 0.929 . S
H368 C372 0.929 . S
H369 C378 0.929 . S
C370 H364 0.930 . S
C370 C371 1.367 . S
C370 C378 1.378 . S
C371 C370 1.367 . S
C371 C379 1.433 . S
C372 H368 0.929 . S
C372 C374 1.378 . S
C372 C376 1.350 . S
C373 C376 1.463 . S
C373 C378 1.350 . S
C373 N381 1.427 . S
C374 H365 0.930 . S
C374 C372 1.378 . S
C374 C375 1.367 . S
C375 C374 1.367 . S
C375 C377 1.433 . S
C376 C372 1.350 . S
C376 C373 1.463 . S
C376 N380 1.427 . S
C377 H367 0.929 . S
C377 C375 1.433 . S
C377 N380 1.384 . S
C378 H369 0.929 . S
C378 C370 1.378 . S
C378 C373 1.350 . S
C379 H366 0.929 . S
C379 C371 1.433 . S
C379 N381 1.384 . S
N380 C376 1.427 . S
N380 C377 1.384 . S
N381 C373 1.427 . S
N381 C379 1.384 . S
H382 C388 0.930 . S
H383 C392 0.930 . S
H384 C397 0.929 . S
H385 C395 0.929 . S
H386 C390 0.929 . S
H387 C396 0.929 . S
C388 H382 0.930 . S
C388 C389 1.367 . S
C388 C396 1.378 . S
C389 C388 1.367 . S
C389 C397 1.433 . S
C390 H386 0.929 . S
C390 C392 1.378 . S
C390 C394 1.350 . S
C391 C394 1.463 . S
C391 C396 1.350 . S
C391 N399 1.427 . S
C392 H383 0.930 . S
C392 C390 1.378 . S
C392 C393 1.367 . S
C393 C392 1.367 . S
C393 C395 1.433 . S
C394 C390 1.350 . S
C394 C391 1.463 . S
C394 N398 1.427 . S
C395 H385 0.929 . S
C395 C393 1.433 . S
C395 N398 1.384 . S
C396 H387 0.929 . S
C396 C388 1.378 . S
C396 C391 1.350 . S
C397 H384 0.929 . S
C397 C389 1.433 . S
C397 N399 1.384 . S
N398 C394 1.427 . S
N398 C395 1.384 . S
N399 C391 1.427 . S
N399 C397 1.384 . S
H400 C406 0.930 . S
H401 C410 0.930 . S
H402 C415 0.929 1_554 S
H403 C413 0.929 . S
H404 C408 0.929 . S
H405 C414 0.929 . S
C406 H400 0.930 . S
C406 C407 1.367 . S
C406 C414 1.378 . S
C407 C406 1.367 . S
C407 C415 1.433 . S
C408 H404 0.929 . S
C408 C410 1.378 . S
C408 C412 1.350 . S
C409 C412 1.463 . S
C409 C414 1.350 . S
C409 N417 1.427 . S
C410 H401 0.930 . S
C410 C408 1.378 . S
C410 C411 1.367 . S
C411 C410 1.367 . S
C411 C413 1.433 . S
C412 C408 1.350 . S
C412 C409 1.463 . S
C412 N416 1.427 . S
C413 H403 0.929 . S
C413 C411 1.433 . S
C413 N416 1.384 . S
C414 H405 0.929 . S
C414 C406 1.378 . S
C414 C409 1.350 . S
C415 H402 0.929 1_556 S
C415 C407 1.433 . S
C415 N417 1.384 . S
N416 C412 1.427 . S
N416 C413 1.384 . S
N417 C409 1.427 . S
N417 C415 1.384 . S
H418 C424 0.930 . S
H419 C428 0.930 . S
H420 C433 0.929 1_544 S
H421 C431 0.929 . S
H422 C426 0.929 . S
H423 C432 0.929 . S
C424 H418 0.930 . S
C424 C425 1.367 . S
C424 C432 1.378 . S
C425 C424 1.367 . S
C425 C433 1.433 . S
C426 H422 0.929 . S
C426 C428 1.378 . S
C426 C430 1.350 1_545 S
C427 C430 1.463 . S
C427 C432 1.350 . S
C427 N435 1.427 . S
C428 H419 0.930 . S
C428 C426 1.378 . S
C428 C429 1.367 1_545 S
C429 C428 1.367 1_565 S
C429 C431 1.433 . S
C430 C426 1.350 1_565 S
C430 C427 1.463 . S
C430 N434 1.427 . S
C431 H421 0.929 . S
C431 C429 1.433 . S
C431 N434 1.384 . S
C432 H423 0.929 . S
C432 C424 1.378 . S
C432 C427 1.350 . S
C433 H420 0.929 1_566 S
C433 C425 1.433 . S
C433 N435 1.384 . S
N434 C430 1.427 . S
N434 C431 1.384 . S
N435 C427 1.427 . S
N435 C433 1.384 . S
H436 C442 0.930 . S
H437 C446 0.930 . S
H438 C451 0.929 . S
H439 C449 0.929 . S
H440 C444 0.929 . S
H441 C450 0.929 1_554 S
C442 H436 0.930 . S
C442 C443 1.367 1_554 S
C442 C450 1.378 1_554 S
C443 C442 1.367 1_556 S
C443 C451 1.433 . S
C444 H440 0.929 . S
C444 C446 1.378 . S
C444 C448 1.350 . S
C445 C448 1.463 . S
C445 C450 1.350 . S
C445 N453 1.427 . S
C446 H437 0.930 . S
C446 C444 1.378 . S
C446 C447 1.367 . S
C447 C446 1.367 . S
C447 C449 1.433 . S
C448 C444 1.350 . S
C448 C445 1.463 . S
C448 N452 1.427 . S
C449 H439 0.929 . S
C449 C447 1.433 . S
C449 N452 1.384 . S
C450 H441 0.929 1_556 S
C450 C442 1.378 1_556 S
C450 C445 1.350 . S
C451 H438 0.929 . S
C451 C443 1.433 . S
C451 N453 1.384 . S
N452 C448 1.427 . S
N452 C449 1.384 . S
N453 C445 1.427 . S
N453 C451 1.384 . S
H454 C460 0.930 . S
H455 C464 0.930 . S
H456 C469 0.929 . S
H457 C467 0.929 . S
H458 C462 0.929 . S
H459 C468 0.929 . S
C460 H454 0.930 . S
C460 C461 1.367 . S
C460 C468 1.378 . S
C461 C460 1.367 . S
C461 C469 1.433 . S
C462 H458 0.929 . S
C462 C464 1.378 . S
C462 C466 1.350 . S
C463 C466 1.463 . S
C463 C468 1.350 . S
C463 N471 1.427 . S
C464 H455 0.930 . S
C464 C462 1.378 . S
C464 C465 1.367 . S
C465 C464 1.367 . S
C465 C467 1.433 . S
C466 C462 1.350 . S
C466 C463 1.463 . S
C466 N470 1.427 . S
C467 H457 0.929 . S
C467 C465 1.433 . S
C467 N470 1.384 . S
C468 H459 0.929 . S
C468 C460 1.378 . S
C468 C463 1.350 . S
C469 H456 0.929 . S
C469 C461 1.433 . S
C469 N471 1.384 . S
N470 C466 1.427 . S
N470 C467 1.384 . S
N471 C463 1.427 . S
N471 C469 1.384 . S
H472 C478 0.930 . S
H473 C482 0.930 . S
H474 C487 0.929 . S
H475 C485 0.929 1_655 S
H476 C480 0.929 . S
H477 C486 0.929 . S
C478 H472 0.930 . S
C478 C479 1.367 . S
C478 C486 1.378 . S
C479 C478 1.367 . S
C479 C487 1.433 . S
C480 H476 0.929 . S
C480 C482 1.378 1_554 S
C480 C484 1.350 . S
C481 C484 1.463 . S
C481 C486 1.350 . S
C481 N489 1.427 . S
C482 H473 0.930 . S
C482 C480 1.378 1_556 S
C482 C483 1.367 . S
C483 C482 1.367 . S
C483 C485 1.433 . S
C484 C480 1.350 . S
C484 C481 1.463 . S
C484 N488 1.431 . S
C485 H475 0.929 1_455 S
C485 C483 1.433 . S
C485 N488 1.379 1_556 S
C486 H477 0.929 . S
C486 C478 1.378 . S
C486 C481 1.350 . S
C487 H474 0.929 . S
C487 C479 1.433 . S
C487 N489 1.384 . S
N488 C484 1.431 . S
N488 C485 1.379 1_554 S
N489 C481 1.427 . S
N489 C487 1.384 . S
H490 C496 0.930 . S
H491 C500 0.930 1_565 S
H492 C505 0.929 . S
H493 C503 0.929 . S
H494 C498 0.929 . S
H495 C504 0.929 . S
C496 H490 0.930 . S
C496 C497 1.367 . S
C496 C504 1.378 . S
C497 C496 1.367 . S
C497 C505 1.433 . S
C498 H494 0.929 . S
C498 C500 1.378 . S
C498 C502 1.350 1_556 S
C499 C502 1.463 . S
C499 C504 1.350 . S
C499 N507 1.427 . S
C500 H491 0.930 1_545 S
C500 C498 1.378 . S
C500 C501 1.367 . S
C501 C500 1.367 . S
C501 C503 1.433 . S
C502 C498 1.350 1_554 S
C502 C499 1.463 . S
C502 N506 1.427 . S
C503 H493 0.929 . S
C503 C501 1.433 . S
C503 N506 1.384 1_556 S
C504 H495 0.929 . S
C504 C496 1.378 . S
C504 C499 1.350 . S
C505 H492 0.929 . S
C505 C497 1.433 . S
C505 N507 1.384 . S
N506 C502 1.427 . S
N506 C503 1.384 1_554 S
N507 C499 1.427 . S
N507 C505 1.384 . S
H508 C514 0.930 . S
H509 C518 0.930 . S
H510 C523 0.929 . S
H511 C521 0.929 . S
H512 C516 0.929 . S
H513 C522 0.929 . S
C514 H508 0.930 . S
C514 C515 1.367 . S
C514 C522 1.378 . S
C515 C514 1.367 . S
C515 C523 1.433 . S
C516 H512 0.929 . S
C516 C518 1.378 . S
C516 C520 1.350 1_556 S
C517 C520 1.463 . S
C517 C522 1.350 . S
C517 N525 1.427 . S
C518 H509 0.930 . S
C518 C516 1.378 . S
C518 C519 1.367 . S
C519 C518 1.367 . S
C519 C521 1.433 . S
C520 C516 1.350 1_554 S
C520 C517 1.463 . S
C520 N524 1.427 . S
C521 H511 0.929 . S
C521 C519 1.433 . S
C521 N524 1.384 1_556 S
C522 H513 0.929 . S
C522 C514 1.378 . S
C522 C517 1.350 . S
C523 H510 0.929 . S
C523 C515 1.433 . S
C523 N525 1.384 . S
N524 C520 1.427 . S
N524 C521 1.384 1_554 S
N525 C517 1.427 . S
N525 C523 1.384 . S
H526 C532 0.930 . S
H527 C536 0.930 . S
H528 C541 0.929 . S
H529 C539 0.929 . S
H530 C534 0.929 1_554 S
H531 C540 0.929 . S
C532 H526 0.930 . S
C532 C533 1.367 . S
C532 C540 1.378 . S
C533 C532 1.367 . S
C533 C541 1.433 . S
C534 H530 0.929 1_556 S
C534 C536 1.378 . S
C534 C538 1.350 1_556 S
C535 C538 1.463 . S
C535 C540 1.350 . S
C535 N543 1.427 . S
C536 H527 0.930 . S
C536 C534 1.378 . S
C536 C537 1.367 . S
C537 C536 1.367 . S
C537 C539 1.433 . S
C538 C534 1.350 1_554 S
C538 C535 1.463 . S
C538 N542 1.427 1_554 S
C539 H529 0.929 . S
C539 C537 1.433 . S
C539 N542 1.384 . S
C540 H531 0.929 . S
C540 C532 1.378 . S
C540 C535 1.350 . S
C541 H528 0.929 . S
C541 C533 1.433 . S
C541 N543 1.384 . S
N542 C538 1.427 1_556 S
N542 C539 1.384 . S
N543 C535 1.427 . S
N543 C541 1.384 . S
H544 C550 0.930 . S
H545 C554 0.930 . S
H546 C559 0.929 . S
H547 C557 0.929 . S
H548 C552 0.929 1_455 S
H549 C558 0.929 . S
C550 H544 0.930 . S
C550 C551 1.367 . S
C550 C558 1.378 . S
C551 C550 1.367 . S
C551 C559 1.433 . S
C552 H548 0.929 1_655 S
C552 C554 1.378 1_655 S
C552 C556 1.350 . S
C553 C556 1.463 . S
C553 C558 1.350 . S
C553 N561 1.427 . S
C554 H545 0.930 . S
C554 C552 1.378 1_455 S
C554 C555 1.367 1_455 S
C555 C554 1.367 1_655 S
C555 C557 1.433 . S
C556 C552 1.350 . S
C556 C553 1.463 . S
C556 N560 1.427 . S
C557 H547 0.929 . S
C557 C555 1.433 . S
C557 N560 1.384 . S
C558 H549 0.929 . S
C558 C550 1.378 . S
C558 C553 1.350 . S
C559 H546 0.929 . S
C559 C551 1.433 . S
C559 N561 1.384 . S
N560 C556 1.427 . S
N560 C557 1.384 . S
N561 C553 1.427 . S
N561 C559 1.384 . S
H562 C568 0.930 . S
H563 C572 0.930 1_545 S
H564 C577 0.929 . S
H565 C575 0.929 . S
H566 C570 0.929 . S
H567 C576 0.929 . S
C568 H562 0.930 . S
C568 C569 1.367 . S
C568 C576 1.378 . S
C569 C568 1.367 . S
C569 C577 1.433 . S
C570 H566 0.929 . S
C570 C572 1.378 . S
C570 C574 1.350 . S
C571 C574 1.463 . S
C571 C576 1.350 . S
C571 N579 1.427 . S
C572 H563 0.930 1_565 S
C572 C570 1.378 . S
C572 C573 1.367 . S
C573 C572 1.367 . S
C573 C575 1.433 . S
C574 C570 1.350 . S
C574 C571 1.463 . S
C574 N578 1.427 . S
C575 H565 0.929 . S
C575 C573 1.433 . S
C575 N578 1.384 . S
C576 H567 0.929 . S
C576 C568 1.378 . S
C576 C571 1.350 . S
C577 H564 0.929 . S
C577 C569 1.433 . S
C577 N579 1.384 . S
N578 C574 1.427 . S
N578 C575 1.384 . S
N579 C571 1.427 . S
N579 C577 1.384 . S
H580 C586 0.930 . S
H581 C590 0.930 . S
H582 C595 0.929 . S
H583 C593 0.929 . S
H584 C588 0.929 . S
H585 C594 0.929 . S
C586 H580 0.930 . S
C586 C587 1.367 . S
C586 C594 1.378 . S
C587 C586 1.367 . S
C587 C595 1.433 . S
C588 H584 0.929 . S
C588 C590 1.378 . S
C588 C592 1.350 . S
C589 C592 1.463 . S
C589 C594 1.350 . S
C589 N597 1.427 . S
C590 H581 0.930 . S
C590 C588 1.378 . S
C590 C591 1.367 . S
C591 C590 1.367 . S
C591 C593 1.433 . S
C592 C588 1.350 . S
C592 C589 1.463 . S
C592 N596 1.427 . S
C593 H583 0.929 . S
C593 C591 1.433 . S
C593 N596 1.384 . S
C594 H585 0.929 . S
C594 C586 1.378 . S
C594 C589 1.350 . S
C595 H582 0.929 . S
C595 C587 1.433 . S
C595 N597 1.384 . S
N596 C592 1.427 . S
N596 C593 1.384 . S
N597 C589 1.427 . S
N597 C595 1.384 . S
H598 C604 0.930 . S
H599 C608 0.930 . S
H600 C613 0.929 . S
H601 C611 0.929 . S
H602 C606 0.929 . S
H603 C612 0.929 . S
C604 H598 0.930 . S
C604 C605 1.367 . S
C604 C612 1.378 . S
C605 C604 1.367 . S
C605 C613 1.433 . S
C606 H602 0.929 . S
C606 C608 1.378 . S
C606 C610 1.350 . S
C607 C610 1.463 . S
C607 C612 1.350 . S
C607 N615 1.427 . S
C608 H599 0.930 . S
C608 C606 1.378 . S
C608 C609 1.367 . S
C609 C608 1.367 . S
C609 C611 1.433 . S
C610 C606 1.350 . S
C610 C607 1.463 . S
C610 N614 1.427 . S
C611 H601 0.929 . S
C611 C609 1.433 . S
C611 N614 1.384 . S
C612 H603 0.929 . S
C612 C604 1.378 . S
C612 C607 1.350 . S
C613 H600 0.929 . S
C613 C605 1.433 . S
C613 N615 1.384 . S
N614 C610 1.427 . S
N614 C611 1.384 . S
N615 C607 1.427 . S
N615 C613 1.384 . S
C191 C82 1.521 . S
C195 C105 1.601 . S
C213 C140 1.608 . S
C209 C95 1.519 . S
C231 C145 1.333 . S
C227 C56 1.266 . S
C249 C165 1.469 . S
C245 C69 1.413 . S
C267 C113 1.598 1_565 S
C263 C30 1.478 . S
C281 C43 1.450 . S
C285 C130 1.606 . S
C299 C4 1.236 . S
C303 C153 1.334 . S
C317 C17 1.356 . S
C321 C173 1.470 1_655 S
C339 C123 1.255 . S
C335 C74 1.234 . S
C357 C132 1.007 . S
C353 C87 0.986 . S
C375 C163 1.325 . S
C371 C100 1.307 . S
C389 C61 0.992 . S
C393 C183 0.988 . S
C407 C22 1.241 . S
C411 C112 1.247 1_655 S
C429 C143 0.990 1_565 S
C425 C35 0.994 1_556 S
C447 C152 1.335 . S
C443 C48 1.294 1_556 S
C461 C9 0.988 1_556 S
C465 C172 0.990 . S
C479 C73 1.471 . S
C483 C110 1.478 . S
C497 C86 1.454 . S
C501 C133 1.512 . S
C519 C150 1.587 . S
C515 C99 1.540 . S
C537 C170 1.582 . S
C533 C60 1.559 . S
C551 C21 1.467 . S
C555 C120 1.481 . S
C573 C125 1.509 . S
C569 C34 1.461 . S
C591 C160 1.579 . S
C587 C47 1.544 . S
C605 C8 1.562 . S
C609 C180 1.580 . S
