# Generated by pormake.
# Topology ptr, (4,4)-cn, num edge types: 1
# Building blocks:
#     Node 0, Type 0, BuildingBlock: KUFVIS_clean_sbu_0, # of connection points: 4
#     Node 1, Type 0, BuildingBlock: KUFVIS_clean_sbu_0, # of connection points: 4
#     Node 2, Type 0, BuildingBlock: KUFVIS_clean_sbu_0, # of connection points: 4
#     Node 3, Type 0, BuildingBlock: KUFVIS_clean_sbu_0, # of connection points: 4
#     Node 4, Type 0, BuildingBlock: KUFVIS_clean_sbu_0, # of connection points: 4
#     Node 5, Type 0, BuildingBlock: KUFVIS_clean_sbu_0, # of connection points: 4
#     Node 6, Type 0, BuildingBlock: KUFVIS_clean_sbu_0, # of connection points: 4
#     Node 7, Type 0, BuildingBlock: KUFVIS_clean_sbu_0, # of connection points: 4
#     Node 8, Type 0, BuildingBlock: KUFVIS_clean_sbu_0, # of connection points: 4
#     Node 9, Type 0, BuildingBlock: KUFVIS_clean_sbu_0, # of connection points: 4
#     Node 10, Type 0, BuildingBlock: KUFVIS_clean_sbu_0, # of connection points: 4
#     Node 11, Type 0, BuildingBlock: KUFVIS_clean_sbu_0, # of connection points: 4
#     Node 12, Type 0, BuildingBlock: KUFVIS_clean_sbu_0, # of connection points: 4
#     Node 13, Type 0, BuildingBlock: KUFVIS_clean_sbu_0, # of connection points: 4
#     Node 14, Type 0, BuildingBlock: KUFVIS_clean_sbu_0, # of connection points: 4
#     Node 15, Type 0, BuildingBlock: KUFVIS_clean_sbu_0, # of connection points: 4
#     Node 16, Type 0, BuildingBlock: KUFVIS_clean_sbu_0, # of connection points: 4
#     Node 17, Type 0, BuildingBlock: KUFVIS_clean_sbu_0, # of connection points: 4
#     Node 18, Type 1, BuildingBlock: AZAVOO_clean_linker_0, # of connection points: 4
#     Node 19, Type 1, BuildingBlock: AZAVOO_clean_linker_0, # of connection points: 4
#     Node 20, Type 1, BuildingBlock: AZAVOO_clean_linker_0, # of connection points: 4
#     Node 21, Type 1, BuildingBlock: AZAVOO_clean_linker_0, # of connection points: 4
#     Node 22, Type 1, BuildingBlock: AZAVOO_clean_linker_0, # of connection points: 4
#     Node 23, Type 1, BuildingBlock: AZAVOO_clean_linker_0, # of connection points: 4
#     Node 24, Type 1, BuildingBlock: AZAVOO_clean_linker_0, # of connection points: 4
#     Node 25, Type 1, BuildingBlock: AZAVOO_clean_linker_0, # of connection points: 4
#     Node 26, Type 1, BuildingBlock: AZAVOO_clean_linker_0, # of connection points: 4
#     Node 27, Type 1, BuildingBlock: AZAVOO_clean_linker_0, # of connection points: 4
#     Node 28, Type 1, BuildingBlock: AZAVOO_clean_linker_0, # of connection points: 4
#     Node 29, Type 1, BuildingBlock: AZAVOO_clean_linker_0, # of connection points: 4
#     Node 30, Type 1, BuildingBlock: AZAVOO_clean_linker_0, # of connection points: 4
#     Node 31, Type 1, BuildingBlock: AZAVOO_clean_linker_0, # of connection points: 4
#     Node 32, Type 1, BuildingBlock: AZAVOO_clean_linker_0, # of connection points: 4
#     Node 33, Type 1, BuildingBlock: AZAVOO_clean_linker_0, # of connection points: 4
#     Node 34, Type 1, BuildingBlock: AZAVOO_clean_linker_0, # of connection points: 4
#     Node 35, Type 1, BuildingBlock: AZAVOO_clean_linker_0, # of connection points: 4
#     Edge 36, Type (0, 1), BuildingBlock: XUDNAN_clean_linker_2, # of connection points: 2
#     Edge 37, Type (0, 1), BuildingBlock: XUDNAN_clean_linker_2, # of connection points: 2
#     Edge 38, Type (0, 1), BuildingBlock: XUDNAN_clean_linker_2, # of connection points: 2
#     Edge 39, Type (0, 1), BuildingBlock: XUDNAN_clean_linker_2, # of connection points: 2
#     Edge 40, Type (0, 1), BuildingBlock: XUDNAN_clean_linker_2, # of connection points: 2
#     Edge 41, Type (0, 1), BuildingBlock: XUDNAN_clean_linker_2, # of connection points: 2
#     Edge 42, Type (0, 1), BuildingBlock: XUDNAN_clean_linker_2, # of connection points: 2
#     Edge 43, Type (0, 1), BuildingBlock: XUDNAN_clean_linker_2, # of connection points: 2
#     Edge 44, Type (0, 1), BuildingBlock: XUDNAN_clean_linker_2, # of connection points: 2
#     Edge 45, Type (0, 1), BuildingBlock: XUDNAN_clean_linker_2, # of connection points: 2
#     Edge 46, Type (0, 1), BuildingBlock: XUDNAN_clean_linker_2, # of connection points: 2
#     Edge 47, Type (0, 1), BuildingBlock: XUDNAN_clean_linker_2, # of connection points: 2
#     Edge 48, Type (0, 1), BuildingBlock: XUDNAN_clean_linker_2, # of connection points: 2
#     Edge 49, Type (0, 1), BuildingBlock: XUDNAN_clean_linker_2, # of connection points: 2
#     Edge 50, Type (0, 1), BuildingBlock: XUDNAN_clean_linker_2, # of connection points: 2
#     Edge 51, Type (0, 1), BuildingBlock: XUDNAN_clean_linker_2, # of connection points: 2
#     Edge 52, Type (0, 1), BuildingBlock: XUDNAN_clean_linker_2, # of connection points: 2
#     Edge 53, Type (0, 1), BuildingBlock: XUDNAN_clean_linker_2, # of connection points: 2
#     Edge 54, Type (0, 1), BuildingBlock: XUDNAN_clean_linker_2, # of connection points: 2
#     Edge 55, Type (0, 1), BuildingBlock: XUDNAN_clean_linker_2, # of connection points: 2
#     Edge 56, Type (0, 1), BuildingBlock: XUDNAN_clean_linker_2, # of connection points: 2
#     Edge 57, Type (0, 1), BuildingBlock: XUDNAN_clean_linker_2, # of connection points: 2
#     Edge 58, Type (0, 1), BuildingBlock: XUDNAN_clean_linker_2, # of connection points: 2
#     Edge 59, Type (0, 1), BuildingBlock: XUDNAN_clean_linker_2, # of connection points: 2
#     Edge 60, Type (0, 1), BuildingBlock: XUDNAN_clean_linker_2, # of connection points: 2
#     Edge 61, Type (0, 1), BuildingBlock: XUDNAN_clean_linker_2, # of connection points: 2
#     Edge 62, Type (0, 1), BuildingBlock: XUDNAN_clean_linker_2, # of connection points: 2
#     Edge 63, Type (0, 1), BuildingBlock: XUDNAN_clean_linker_2, # of connection points: 2
#     Edge 64, Type (0, 1), BuildingBlock: XUDNAN_clean_linker_2, # of connection points: 2
#     Edge 65, Type (0, 1), BuildingBlock: XUDNAN_clean_linker_2, # of connection points: 2
#     Edge 66, Type (0, 1), BuildingBlock: XUDNAN_clean_linker_2, # of connection points: 2
#     Edge 67, Type (0, 1), BuildingBlock: XUDNAN_clean_linker_2, # of connection points: 2
#     Edge 68, Type (0, 1), BuildingBlock: XUDNAN_clean_linker_2, # of connection points: 2
#     Edge 69, Type (0, 1), BuildingBlock: XUDNAN_clean_linker_2, # of connection points: 2
#     Edge 70, Type (0, 1), BuildingBlock: XUDNAN_clean_linker_2, # of connection points: 2
#     Edge 71, Type (0, 1), BuildingBlock: XUDNAN_clean_linker_2, # of connection points: 2
#     Edge 72, Type (0, 1), BuildingBlock: XUDNAN_clean_linker_2, # of connection points: 2
#     Edge 73, Type (0, 1), BuildingBlock: XUDNAN_clean_linker_2, # of connection points: 2
#     Edge 74, Type (0, 1), BuildingBlock: XUDNAN_clean_linker_2, # of connection points: 2
#     Edge 75, Type (0, 1), BuildingBlock: XUDNAN_clean_linker_2, # of connection points: 2
#     Edge 76, Type (0, 1), BuildingBlock: XUDNAN_clean_linker_2, # of connection points: 2
#     Edge 77, Type (0, 1), BuildingBlock: XUDNAN_clean_linker_2, # of connection points: 2
#     Edge 78, Type (0, 1), BuildingBlock: XUDNAN_clean_linker_2, # of connection points: 2
#     Edge 79, Type (0, 1), BuildingBlock: XUDNAN_clean_linker_2, # of connection points: 2
#     Edge 80, Type (0, 1), BuildingBlock: XUDNAN_clean_linker_2, # of connection points: 2
#     Edge 81, Type (0, 1), BuildingBlock: XUDNAN_clean_linker_2, # of connection points: 2
#     Edge 82, Type (0, 1), BuildingBlock: XUDNAN_clean_linker_2, # of connection points: 2
#     Edge 83, Type (0, 1), BuildingBlock: XUDNAN_clean_linker_2, # of connection points: 2
#     Edge 84, Type (0, 1), BuildingBlock: XUDNAN_clean_linker_2, # of connection points: 2
#     Edge 85, Type (0, 1), BuildingBlock: XUDNAN_clean_linker_2, # of connection points: 2
#     Edge 86, Type (0, 1), BuildingBlock: XUDNAN_clean_linker_2, # of connection points: 2
#     Edge 87, Type (0, 1), BuildingBlock: XUDNAN_clean_linker_2, # of connection points: 2
#     Edge 88, Type (0, 1), BuildingBlock: XUDNAN_clean_linker_2, # of connection points: 2
#     Edge 89, Type (0, 1), BuildingBlock: XUDNAN_clean_linker_2, # of connection points: 2
#     Edge 90, Type (0, 1), BuildingBlock: XUDNAN_clean_linker_2, # of connection points: 2
#     Edge 91, Type (0, 1), BuildingBlock: XUDNAN_clean_linker_2, # of connection points: 2
#     Edge 92, Type (0, 1), BuildingBlock: XUDNAN_clean_linker_2, # of connection points: 2
#     Edge 93, Type (0, 1), BuildingBlock: XUDNAN_clean_linker_2, # of connection points: 2
#     Edge 94, Type (0, 1), BuildingBlock: XUDNAN_clean_linker_2, # of connection points: 2
#     Edge 95, Type (0, 1), BuildingBlock: XUDNAN_clean_linker_2, # of connection points: 2
#     Edge 96, Type (0, 1), BuildingBlock: XUDNAN_clean_linker_2, # of connection points: 2
#     Edge 97, Type (0, 1), BuildingBlock: XUDNAN_clean_linker_2, # of connection points: 2
#     Edge 98, Type (0, 1), BuildingBlock: XUDNAN_clean_linker_2, # of connection points: 2
#     Edge 99, Type (0, 1), BuildingBlock: XUDNAN_clean_linker_2, # of connection points: 2
#     Edge 100, Type (0, 1), BuildingBlock: XUDNAN_clean_linker_2, # of connection points: 2
#     Edge 101, Type (0, 1), BuildingBlock: XUDNAN_clean_linker_2, # of connection points: 2
#     Edge 102, Type (0, 1), BuildingBlock: XUDNAN_clean_linker_2, # of connection points: 2
#     Edge 103, Type (0, 1), BuildingBlock: XUDNAN_clean_linker_2, # of connection points: 2
#     Edge 104, Type (0, 1), BuildingBlock: XUDNAN_clean_linker_2, # of connection points: 2
#     Edge 105, Type (0, 1), BuildingBlock: XUDNAN_clean_linker_2, # of connection points: 2
#     Edge 106, Type (0, 1), BuildingBlock: XUDNAN_clean_linker_2, # of connection points: 2
#     Edge 107, Type (0, 1), BuildingBlock: XUDNAN_clean_linker_2, # of connection points: 2
# Relax obj value: 0.057
# Max RMSD: 0.199
# Mean RMSD: 0.130
data_MOF--net-ptr--node1-KUFVIS_clean_sbu_0--node2-AZAVOO_clean_linker_0--edge1-XUDNAN_clean_linker_2
_symmetry_space_group_name_H-M    P1
_symmetry_Int_Tables_number       1
_symmetry_cell_setting            triclinic
loop_
_symmetry_equiv_pos_as_xyz
'x, y, z'
_cell_length_a     81.716097
_cell_length_b     79.986506
_cell_length_c     69.063793
_cell_angle_alpha  92.35238
_cell_angle_beta   93.046377
_cell_angle_gamma 119.52255
loop_
_atom_site_label
_atom_site_type_symbol
_atom_site_fract_x
_atom_site_fract_y
_atom_site_fract_z
_atom_type_partial_charge
Mn0 Mn 0.00446 0.36477 0.02145 0.0
Mn1 Mn 0.04674 0.40506 0.03163 0.0
C2 C 0.01106 0.39204 0.00602 0.0
C3 C 0.98649 0.3351 0.00372 0.0
C4 C 0.01474 0.39211 0.05781 0.0
O5 O 0.02006 0.35517 0.03599 0.0
O6 O 0.04831 0.38236 0.03994 0.0
C7 C 0.06836 0.39644 0.00377 0.0
N8 N 0.06202 0.40825 0.01059 0.0
C9 C 0.07895 0.43166 0.98795 0.0
C10 C 0.08574 0.4198 0.98071 0.0
C11 C 0.08033 0.40206 0.98858 0.0
C12 C 0.06682 0.42514 0.00285 0.0
H13 H 0.06436 0.38289 0.00993 0.0
C14 C 0.03753 0.36439 0.04184 0.0
O15 O 0.98153 0.33869 0.02027 0.0
O16 O 0.00194 0.34861 0.99773 0.0
N17 N 0.04755 0.42832 0.02461 0.0
C18 C 0.03998 0.43819 0.03342 0.0
C19 C 0.04369 0.45605 0.02696 0.0
C20 C 0.05552 0.46381 0.01189 0.0
C21 C 0.06365 0.45368 0.00349 0.0
C22 C 0.05925 0.43583 0.01035 0.0
H23 H 0.03107 0.43241 0.04518 0.0
O24 O 0.99378 0.37826 0.00634 0.0
O25 O 0.02412 0.3891 0.01402 0.0
O26 O 0.00236 0.37747 0.047 0.0
O27 O 0.03169 0.40294 0.05368 0.0
C28 C 0.07613 0.4607 0.98877 0.0
C29 C 0.0838 0.44971 0.98101 0.0
H30 H 0.09509 0.42415 0.9691 0.0
H31 H 0.08547 0.3928 0.98305 0.0
H32 H 0.03751 0.46387 0.03366 0.0
H33 H 0.05842 0.47763 0.00701 0.0
H34 H 0.07986 0.4745 0.98321 0.0
H35 H 0.09326 0.45519 0.96957 0.0
Mn36 Mn 0.64026 0.6277 0.06546 0.0
Mn37 Mn 0.63221 0.58218 0.0588 0.0
C38 C 0.62022 0.6043 0.08473 0.0
C39 C 0.65789 0.65905 0.07974 0.0
C40 C 0.61515 0.59948 0.03154 0.0
O41 O 0.66176 0.63062 0.04948 0.0
O42 O 0.6569 0.60025 0.04911 0.0
C43 C 0.66275 0.5851 0.08629 0.0
N44 N 0.64411 0.57634 0.07997 0.0
C45 C 0.63597 0.55378 0.10464 0.0
C46 C 0.65512 0.56233 0.11117 0.0
C47 C 0.66856 0.57813 0.10201 0.0
C48 C 0.63104 0.56128 0.08881 0.0
H49 H 0.67307 0.59742 0.07948 0.0
C50 C 0.66658 0.61798 0.04545 0.0
O51 O 0.64742 0.65515 0.06356 0.0
O52 O 0.65855 0.6448 0.08735 0.0
N53 N 0.60893 0.56333 0.06788 0.0
C54 C 0.59093 0.55777 0.06087 0.0
C55 C 0.57574 0.54259 0.06895 0.0
C56 C 0.5792 0.53326 0.0841 0.0
C57 C 0.59782 0.53931 0.09116 0.0
C58 C 0.6124 0.55434 0.08237 0.0
H59 H 0.58818 0.56484 0.04917 0.0
O60 O 0.61912 0.61979 0.08279 0.0
O61 O 0.63303 0.60307 0.07541 0.0
O62 O 0.62154 0.6155 0.04154 0.0
O63 O 0.61888 0.58637 0.0363 0.0
C64 C 0.60247 0.5312 0.10678 0.0
C65 C 0.62153 0.53846 0.11355 0.0
H66 H 0.65964 0.55709 0.12339 0.0
H67 H 0.68334 0.58497 0.10713 0.0
H68 H 0.56139 0.53809 0.06352 0.0
H69 H 0.56746 0.52155 0.09031 0.0
H70 H 0.59148 0.5196 0.11392 0.0
H71 H 0.62491 0.53237 0.12581 0.0
Mn72 Mn 0.37188 0.99827 0.03213 0.0
Mn73 Mn 0.41105 0.04008 0.02549 0.0
C74 C 0.3983 0.00904 0.05361 0.0
C75 C 0.34258 0.98343 0.04494 0.0
C76 C 0.39832 0.00262 0.00083 0.0
O77 O 0.36256 0.01112 0.01343 0.0
O78 O 0.38854 0.04025 0.01288 0.0
C79 C 0.40433 0.06797 0.04824 0.0
N80 N 0.41536 0.06 0.0447 0.0
C81 C 0.43913 0.08141 0.06961 0.0
C82 C 0.42808 0.08994 0.07344 0.0
C83 C 0.4106 0.08316 0.06273 0.0
C84 C 0.43228 0.06651 0.05481 0.0
H85 H 0.39086 0.06277 0.04008 0.0
C86 C 0.37092 0.02839 0.00853 0.0
O87 O 0.34612 0.97485 0.03071 0.0
O88 O 0.35604 0.00022 0.05179 0.0
N89 N 0.43361 0.04178 0.03729 0.0
C90 C 0.44149 0.03059 0.03331 0.0
C91 C 0.45843 0.03461 0.04368 0.0
C92 C 0.46715 0.05011 0.05796 0.0
C93 C 0.45879 0.06143 0.0618 0.0
C94 C 0.44193 0.0568 0.05094 0.0
H95 H 0.43478 0.01856 0.02248 0.0
O96 O 0.38524 0.99103 0.05216 0.0
O97 O 0.39538 0.02025 0.04251 0.0
O98 O 0.38426 0.99157 0.01011 0.0
O99 O 0.4084 0.02074 0.00515 0.0
C100 C 0.46618 0.07672 0.07642 0.0
C101 C 0.45639 0.08673 0.0803 0.0
H102 H 0.43277 0.10151 0.08475 0.0
H103 H 0.40195 0.08959 0.06568 0.0
H104 H 0.46472 0.0257 0.04075 0.0
H105 H 0.4801 0.05302 0.06608 0.0
H106 H 0.4792 0.08063 0.08505 0.0
H107 H 0.46203 0.0982 0.09183 0.0
Mn108 Mn 0.99267 0.63707 0.03494 0.0
Mn109 Mn 0.03231 0.63614 0.04955 0.0
C110 C 0.99849 0.61408 0.02082 0.0
C111 C 0.97822 0.65002 0.01549 0.0
C112 C 0.99778 0.62055 0.07235 0.0
O113 O 0.00868 0.66289 0.05039 0.0
O114 O 0.03537 0.66181 0.05722 0.0
C115 C 0.05827 0.66426 0.02379 0.0
N116 N 0.04988 0.64625 0.03022 0.0
C117 C 0.0677 0.6369 0.01027 0.0
C118 C 0.07659 0.65537 0.00345 0.0
C119 C 0.07175 0.66906 0.01015 0.0
C120 C 0.0541 0.63283 0.02355 0.0
H121 H 0.05474 0.67489 0.0291 0.0
C122 C 0.02567 0.67041 0.05774 0.0
O123 O 0.97119 0.64219 0.03134 0.0
O124 O 0.99354 0.65029 0.011 0.0
N125 N 0.03162 0.61227 0.0433 0.0
C126 C 0.02205 0.59525 0.05163 0.0
C127 C 0.02496 0.57987 0.04618 0.0
C128 C 0.03803 0.5823 0.03262 0.0
C129 C 0.04818 0.60015 0.02475 0.0
C130 C 0.04451 0.61487 0.03053 0.0
H131 H 0.0122 0.59339 0.06228 0.0
O132 O 0.98162 0.61184 0.01936 0.0
O133 O 0.01166 0.63012 0.02982 0.0
O134 O 0.98714 0.6234 0.06033 0.0
O135 O 0.01483 0.62514 0.06994 0.0
C136 C 0.06205 0.60401 0.01165 0.0
C137 C 0.07186 0.62241 0.00448 0.0
H138 H 0.08712 0.65918 0.99307 0.0
H139 H 0.07853 0.68334 0.00494 0.0
H140 H 0.01722 0.56622 0.0525 0.0
H141 H 0.04032 0.57044 0.02853 0.0
H142 H 0.06526 0.59294 0.00696 0.0
H143 H 0.08241 0.62517 0.99433 0.0
Mn144 Mn 0.36388 0.38339 0.01283 0.0
Mn145 Mn 0.40232 0.37877 0.00736 0.0
C146 C 0.39126 0.40258 0.03232 0.0
C147 C 0.33498 0.37273 0.02593 0.0
C148 C 0.39046 0.40068 0.98058 0.0
O149 O 0.35328 0.35794 0.99678 0.0
O150 O 0.37941 0.35539 0.99512 0.0
C151 C 0.39301 0.34662 0.0324 0.0
N152 N 0.40501 0.36497 0.02808 0.0
C153 C 0.42777 0.36901 0.05404 0.0
C154 C 0.4157 0.35012 0.05873 0.0
C155 C 0.39819 0.33892 0.04793 0.0
C156 C 0.42171 0.37601 0.03862 0.0
H157 H 0.37961 0.3379 0.02403 0.0
C158 C 0.36168 0.3489 0.99152 0.0
O159 O 0.3387 0.38172 0.0101 0.0
O160 O 0.34808 0.37011 0.03418 0.0
N161 N 0.42561 0.40011 0.01848 0.0
C162 C 0.43576 0.41794 0.01188 0.0
C163 C 0.45347 0.43109 0.02137 0.0
C164 C 0.46074 0.42562 0.03725 0.0
C165 C 0.4503 0.40699 0.04338 0.0
C166 C 0.43266 0.39457 0.03348 0.0
H167 H 0.43035 0.42216 0.99954 0.0
O168 O 0.37828 0.40741 0.03026 0.0
O169 O 0.38753 0.38626 0.02346 0.0
O170 O 0.37612 0.39828 0.98927 0.0
O171 O 0.40084 0.39358 0.98586 0.0
C172 C 0.45682 0.40016 0.05875 0.0
C173 C 0.44559 0.38115 0.06402 0.0
H174 H 0.41972 0.34408 0.07061 0.0
H175 H 0.38878 0.32434 0.05149 0.0
H176 H 0.46152 0.44538 0.01642 0.0
H177 H 0.47443 0.43577 0.04449 0.0
H178 H 0.47043 0.4094 0.06665 0.0
H179 H 0.45072 0.3761 0.07594 0.0
Mn180 Mn 0.62897 0.0146 0.04654 0.0
Mn181 Mn 0.59219 0.97014 0.05031 0.0
C182 C 0.60265 0.00244 0.02457 0.0
C183 C 0.65825 0.03443 0.03512 0.0
C184 C 0.60105 0.00483 0.07756 0.0
O185 O 0.64017 0.00205 0.06375 0.0
O186 O 0.61541 0.97182 0.06299 0.0
C187 C 0.60336 0.94693 0.02563 0.0
N188 N 0.59071 0.95275 0.02958 0.0
C189 C 0.56952 0.9328 0.00224 0.0
C190 C 0.58229 0.92652 0.99794 0.0
C191 C 0.59929 0.93364 0.00967 0.0
C192 C 0.57428 0.94596 0.01842 0.0
H193 H 0.61648 0.95242 0.03457 0.0
C194 C 0.63269 0.98449 0.06785 0.0
O195 O 0.6529 0.03978 0.05043 0.0
O196 O 0.64665 0.01759 0.02653 0.0
N197 N 0.56903 0.9668 0.03824 0.0
C198 C 0.55891 0.97536 0.04353 0.0
C199 C 0.54175 0.97025 0.03291 0.0
C200 C 0.53518 0.95639 0.01702 0.0
C201 C 0.54592 0.94789 0.01176 0.0
C202 C 0.56279 0.95339 0.02302 0.0
H203 H 0.56389 0.98602 0.05573 0.0
O204 O 0.61395 0.02092 0.02731 0.0
O205 O 0.6071 0.99185 0.0349 0.0
O206 O 0.61469 0.01732 0.06885 0.0
O207 O 0.59217 0.98686 0.0722 0.0
C208 C 0.54068 0.93442 0.99561 0.0
C209 C 0.55248 0.92689 0.99084 0.0
H210 H 0.57926 0.91638 0.98555 0.0
H211 H 0.60925 0.92893 0.00639 0.0
H212 H 0.53361 0.97698 0.03696 0.0
H213 H 0.52193 0.95247 0.00889 0.0
H214 H 0.52774 0.92996 0.98659 0.0
H215 H 0.54844 0.91676 0.97822 0.0
Mn216 Mn 0.66618 0.69476 0.35002 0.0
Mn217 Mn 0.70535 0.73857 0.35803 0.0
C218 C 0.67361 0.71695 0.32708 0.0
C219 C 0.65077 0.66234 0.33944 0.0
C220 C 0.66929 0.72804 0.37673 0.0
O221 O 0.68128 0.69065 0.37167 0.0
O222 O 0.70678 0.72044 0.37601 0.0
C223 C 0.73264 0.72755 0.34414 0.0
N224 N 0.72454 0.73887 0.34315 0.0
C225 C 0.744 0.75637 0.31805 0.0
C226 C 0.75264 0.74498 0.31889 0.0
C227 C 0.7469 0.73048 0.33196 0.0
C228 C 0.72988 0.7528 0.33056 0.0
H229 H 0.72823 0.71636 0.35413 0.0
C230 C 0.69724 0.70291 0.38021 0.0
O231 O 0.64427 0.66895 0.35264 0.0
O232 O 0.66637 0.67448 0.33244 0.0
N233 N 0.70618 0.75776 0.34186 0.0
C234 C 0.69614 0.76719 0.34261 0.0
C235 C 0.70011 0.78213 0.33043 0.0
C236 C 0.71434 0.78721 0.31761 0.0
C237 C 0.72468 0.7775 0.31732 0.0
C238 C 0.7203 0.76295 0.33004 0.0
H239 H 0.68521 0.76338 0.35245 0.0
O240 O 0.65637 0.70306 0.32756 0.0
O241 O 0.68606 0.71742 0.34 0.0
O242 O 0.66009 0.7108 0.36904 0.0
O243 O 0.68633 0.73978 0.37356 0.0
C244 C 0.73903 0.78154 0.30479 0.0
C245 C 0.74863 0.77094 0.30511 0.0
H246 H 0.76361 0.74716 0.30948 0.0
H247 H 0.75345 0.72157 0.33263 0.0
H248 H 0.69222 0.78971 0.33095 0.0
H249 H 0.7172 0.79859 0.30806 0.0
H250 H 0.74264 0.79263 0.2947 0.0
H251 H 0.75949 0.77403 0.29525 0.0
Mn252 Mn 0.30121 0.95672 0.40186 0.0
Mn253 Mn 0.28634 0.9091 0.39571 0.0
C254 C 0.27667 0.93515 0.41865 0.0
C255 C 0.32088 0.98732 0.41724 0.0
C256 C 0.27554 0.93025 0.36686 0.0
O257 O 0.32271 0.95633 0.38867 0.0
O258 O 0.3119 0.92436 0.38637 0.0
C259 C 0.31427 0.90798 0.42394 0.0
N260 N 0.29597 0.90168 0.4175 0.0
C261 C 0.28467 0.87806 0.44115 0.0
C262 C 0.30339 0.88425 0.44801 0.0
C263 C 0.31824 0.89938 0.43946 0.0
C264 C 0.28157 0.88749 0.42596 0.0
H265 H 0.32573 0.9194 0.41719 0.0
C266 C 0.3244 0.94172 0.38384 0.0
O267 O 0.31267 0.98497 0.39994 0.0
O268 O 0.31825 0.97189 0.42528 0.0
N269 N 0.26193 0.89234 0.40407 0.0
C270 C 0.24468 0.88796 0.39565 0.0
C271 C 0.2283 0.87353 0.40291 0.0
C272 C 0.22982 0.86334 0.41834 0.0
C273 C 0.24773 0.86767 0.42635 0.0
C274 C 0.26355 0.88249 0.4188 0.0
H275 H 0.24341 0.89551 0.38357 0.0
O276 O 0.279 0.95213 0.41612 0.0
O277 O 0.28909 0.93133 0.41174 0.0
O278 O 0.28461 0.94678 0.37618 0.0
O279 O 0.27532 0.91523 0.37279 0.0
C280 C 0.25051 0.85763 0.44128 0.0
C281 C 0.26897 0.86281 0.44867 0.0
H282 H 0.30651 0.87749 0.45982 0.0
H283 H 0.33273 0.90425 0.44469 0.0
H284 H 0.21453 0.87014 0.39651 0.0
H285 H 0.21716 0.85208 0.42377 0.0
H286 H 0.23855 0.84599 0.44731 0.0
H287 H 0.27092 0.85512 0.46031 0.0
Mn288 Mn 0.03651 0.32434 0.35596 0.0
Mn289 Mn 0.07383 0.36911 0.35566 0.0
C290 C 0.06233 0.33453 0.37832 0.0
C291 C 0.00686 0.30368 0.36637 0.0
C292 C 0.06456 0.33674 0.32501 0.0
O293 O 0.02602 0.33869 0.34057 0.0
O294 O 0.05096 0.36899 0.34414 0.0
C295 C 0.06361 0.39104 0.38329 0.0
N296 N 0.0758 0.38499 0.37809 0.0
C297 C 0.09732 0.40261 0.40609 0.0
C298 C 0.08502 0.40908 0.41172 0.0
C299 C 0.06809 0.40325 0.40028 0.0
C300 C 0.09219 0.39062 0.38892 0.0
H301 H 0.05056 0.38655 0.37455 0.0
C302 C 0.03374 0.35673 0.33834 0.0
O303 O 0.0124 0.29947 0.35053 0.0
O304 O 0.0185 0.31992 0.37606 0.0
N305 N 0.0966 0.37077 0.36676 0.0
C306 C 0.10607 0.36192 0.36019 0.0
C307 C 0.12293 0.36553 0.37046 0.0
C308 C 0.12987 0.37821 0.38733 0.0
C309 C 0.1198 0.38702 0.39389 0.0
C310 C 0.10317 0.38301 0.38296 0.0
H311 H 0.10077 0.35214 0.34726 0.0
O312 O 0.05097 0.31624 0.37399 0.0
O313 O 0.05833 0.34607 0.36912 0.0
O314 O 0.05094 0.32331 0.33289 0.0
O315 O 0.07347 0.35425 0.33197 0.0
C316 C 0.12541 0.39933 0.41105 0.0
C317 C 0.11419 0.40714 0.41713 0.0
H318 H 0.08833 0.41835 0.42491 0.0
H319 H 0.05848 0.40812 0.40458 0.0
H320 H 0.13055 0.35855 0.36541 0.0
H321 H 0.14287 0.38095 0.39522 0.0
H322 H 0.13817 0.40264 0.41984 0.0
H323 H 0.11849 0.41633 0.43052 0.0
Mn324 Mn 0.66342 0.96899 0.37206 0.0
Mn325 Mn 0.70846 0.97807 0.37398 0.0
C326 C 0.67185 0.95223 0.35048 0.0
C327 C 0.64059 0.97642 0.3608 0.0
C328 C 0.68083 0.95511 0.40312 0.0
O329 O 0.67798 0.99472 0.3883 0.0
O330 O 0.70771 0.00057 0.38603 0.0
C331 C 0.72426 0.00958 0.3476 0.0
N332 N 0.7208 0.99186 0.35243 0.0
C333 C 0.73698 0.98875 0.3256 0.0
C334 C 0.74079 0.00701 0.32038 0.0
C335 C 0.73436 0.01744 0.33141 0.0
C336 C 0.72692 0.98169 0.34193 0.0
H337 H 0.71935 0.01764 0.35606 0.0
C338 C 0.69583 0.00547 0.39152 0.0
O339 O 0.63898 0.96773 0.37665 0.0
O340 O 0.65551 0.98096 0.35166 0.0
N341 N 0.71125 0.95748 0.36265 0.0
C342 C 0.70529 0.93959 0.36886 0.0
C343 C 0.71009 0.92708 0.35907 0.0
C344 C 0.72101 0.93313 0.34307 0.0
C345 C 0.72697 0.9516 0.33696 0.0
C346 C 0.72192 0.96351 0.3474 0.0
H347 H 0.69696 0.9349 0.38119 0.0
O348 O 0.65431 0.94533 0.35398 0.0
O349 O 0.68381 0.96871 0.35961 0.0
O350 O 0.66635 0.95494 0.39502 0.0
O351 O 0.69713 0.96369 0.39667 0.0
C352 C 0.73744 0.95855 0.3207 0.0
C353 C 0.74242 0.9771 0.31501 0.0
H354 H 0.74849 0.01308 0.30784 0.0
H355 H 0.73718 0.03151 0.32742 0.0
H356 H 0.70537 0.9128 0.36382 0.0
H357 H 0.72462 0.92342 0.3355 0.0
H358 H 0.74148 0.94963 0.31229 0.0
H359 H 0.75021 0.98216 0.30231 0.0
Mn360 Mn 0.03629 0.71797 0.35634 0.0
Mn361 Mn 0.0759 0.71601 0.3497 0.0
C362 C 0.06351 0.73777 0.37604 0.0
C363 C 0.00761 0.70421 0.37065 0.0
C364 C 0.06178 0.73702 0.32386 0.0
O365 O 0.02699 0.69359 0.3387 0.0
O366 O 0.05353 0.69173 0.33804 0.0
C367 C 0.06948 0.6845 0.3747 0.0
N368 N 0.08037 0.70303 0.37017 0.0
C369 C 0.10437 0.70872 0.3954 0.0
C370 C 0.09346 0.68967 0.4003 0.0
C371 C 0.07588 0.67754 0.38997 0.0
C372 C 0.09713 0.71493 0.38025 0.0
H373 H 0.05602 0.67509 0.36669 0.0
C374 C 0.03582 0.6849 0.33376 0.0
O375 O 0.01 0.71417 0.35557 0.0
O376 O 0.02181 0.70257 0.3773 0.0
N377 N 0.09874 0.73832 0.36025 0.0
C378 C 0.10767 0.75623 0.35355 0.0
C379 C 0.12527 0.77023 0.36259 0.0
C380 C 0.13368 0.76556 0.37814 0.0
C381 C 0.12448 0.74688 0.3844 0.0
C382 C 0.1069 0.73358 0.37494 0.0
H383 H 0.10137 0.75986 0.34149 0.0
O384 O 0.04966 0.74136 0.37492 0.0
O385 O 0.06066 0.7222 0.36624 0.0
O386 O 0.04763 0.73434 0.33319 0.0
O387 O 0.07249 0.73009 0.3285 0.0
C388 C 0.13218 0.74088 0.39951 0.0
C389 C 0.12217 0.72178 0.40494 0.0
H390 H 0.09841 0.68422 0.41199 0.0
H391 H 0.06735 0.66284 0.39369 0.0
H392 H 0.13236 0.78456 0.35754 0.0
H393 H 0.14728 0.77639 0.38505 0.0
H394 H 0.14577 0.75083 0.40707 0.0
H395 H 0.12819 0.71736 0.41664 0.0
Mn396 Mn 0.29638 0.34373 0.37581 0.0
Mn397 Mn 0.25774 0.30208 0.38332 0.0
C398 C 0.26932 0.33231 0.35495 0.0
C399 C 0.32511 0.35836 0.36189 0.0
C400 C 0.27171 0.33958 0.40844 0.0
O401 O 0.30613 0.33099 0.39462 0.0
O402 O 0.28045 0.30136 0.39388 0.0
C403 C 0.26274 0.27438 0.3581 0.0
N404 N 0.25223 0.28257 0.36309 0.0
C405 C 0.22772 0.26279 0.33803 0.0
C406 C 0.23822 0.25401 0.33274 0.0
C407 C 0.25582 0.25987 0.3428 0.0
C408 C 0.23527 0.27705 0.35351 0.0
H409 H 0.27636 0.27897 0.36564 0.0
C410 C 0.29797 0.31335 0.39855 0.0
O411 O 0.32204 0.36717 0.37629 0.0
O412 O 0.31159 0.34136 0.35571 0.0
N413 N 0.23503 0.30121 0.37325 0.0
C414 C 0.22734 0.3121 0.37919 0.0
C415 C 0.21 0.30852 0.37016 0.0
C416 C 0.20073 0.29379 0.35516 0.0
C417 C 0.20898 0.28289 0.34918 0.0
C418 C 0.22617 0.28694 0.35888 0.0
H419 H 0.23436 0.3234 0.39074 0.0
O420 O 0.28222 0.35035 0.3557 0.0
O421 O 0.27285 0.3218 0.36632 0.0
O422 O 0.28449 0.35072 0.39791 0.0
O423 O 0.26194 0.32131 0.40473 0.0
C424 C 0.20096 0.26836 0.33378 0.0
C425 C 0.21033 0.25832 0.3282 0.0
H426 H 0.23301 0.24295 0.32083 0.0
H427 H 0.26407 0.25328 0.3387 0.0
H428 H 0.20378 0.31708 0.37476 0.0
H429 H 0.18734 0.29105 0.34827 0.0
H430 H 0.18772 0.26497 0.32595 0.0
H431 H 0.20417 0.24739 0.31614 0.0
Mn432 Mn 0.34078 0.03733 0.69231 0.0
Mn433 Mn 0.38482 0.0746 0.68962 0.0
C434 C 0.34761 0.0555 0.66585 0.0
C435 C 0.31797 0.00492 0.68702 0.0
C436 C 0.35636 0.07775 0.7131 0.0
O437 O 0.35598 0.03186 0.71267 0.0
O438 O 0.38423 0.05841 0.71097 0.0
C439 C 0.40112 0.05068 0.67637 0.0
N440 N 0.39764 0.06545 0.6737 0.0
C441 C 0.41353 0.07261 0.64426 0.0
C442 C 0.41738 0.05754 0.64675 0.0
C443 C 0.4111 0.0465 0.66285 0.0
C444 C 0.40345 0.07604 0.65816 0.0
H445 H 0.3963 0.04214 0.6887 0.0
C446 C 0.37328 0.04276 0.71849 0.0
O447 O 0.3168 0.0161 0.70038 0.0
O448 O 0.33275 0.01241 0.6772 0.0
N449 N 0.38822 0.09193 0.66997 0.0
C450 C 0.38384 0.10631 0.67003 0.0
C451 C 0.38959 0.11905 0.65523 0.0
C452 C 0.39972 0.11686 0.64047 0.0
C453 C 0.40451 0.10228 0.641 0.0
C454 C 0.39876 0.09029 0.65638 0.0
H455 H 0.37614 0.10815 0.68138 0.0
O456 O 0.33036 0.04545 0.67035 0.0
O457 O 0.36053 0.05439 0.67673 0.0
O458 O 0.34362 0.06004 0.71006 0.0
O459 O 0.37222 0.08502 0.70568 0.0
C460 C 0.41479 0.0992 0.62691 0.0
C461 C 0.41921 0.0843 0.62848 0.0
H462 H 0.42509 0.05429 0.63637 0.0
H463 H 0.41396 0.0348 0.66484 0.0
H464 H 0.38641 0.13066 0.65533 0.0
H465 H 0.40393 0.12658 0.62894 0.0
H466 H 0.41931 0.10815 0.61477 0.0
H467 H 0.42702 0.082 0.6175 0.0
Mn468 Mn 0.97402 0.29499 0.73376 0.0
Mn469 Mn 0.96619 0.24933 0.73063 0.0
C470 C 0.95417 0.27304 0.75429 0.0
C471 C 0.99143 0.32726 0.74507 0.0
C472 C 0.94845 0.26439 0.70156 0.0
O473 O 0.9955 0.29691 0.7184 0.0
O474 O 0.99042 0.26659 0.71963 0.0
C475 C 0.99766 0.25461 0.75823 0.0
N476 N 0.97888 0.24532 0.75246 0.0
C477 C 0.97182 0.22466 0.7788 0.0
C478 C 0.99113 0.23381 0.78485 0.0
C479 C 0.00409 0.24891 0.77457 0.0
C480 C 0.96627 0.2309 0.76235 0.0
H481 H 0.00764 0.26633 0.75048 0.0
C482 C 1.00009 0.284 0.71502 0.0
O483 O 0.98092 0.32177 0.7288 0.0
O484 O 0.99214 0.31404 0.75481 0.0
N485 N 0.94337 0.2311 0.74098 0.0
C486 C 0.92517 0.22472 0.73408 0.0
C487 C 0.9104 0.21002 0.74312 0.0
C488 C 0.9145 0.202 0.75911 0.0
C489 C 0.93332 0.20879 0.76596 0.0
C490 C 0.94746 0.2233 0.75621 0.0
H491 H 0.92194 0.23078 0.72175 0.0
O492 O 0.95291 0.28823 0.75087 0.0
O493 O 0.96705 0.27123 0.74568 0.0
O494 O 0.9553 0.28104 0.7103 0.0
O495 O 0.95204 0.25154 0.70751 0.0
C496 C 0.9386 0.20195 0.78226 0.0
C497 C 0.95784 0.20992 0.78871 0.0
H498 H 0.99613 0.22954 0.79752 0.0
H499 H 0.019 0.25617 0.77927 0.0
H500 H 0.8959 0.20489 0.73779 0.0
H501 H 0.90307 0.19072 0.76611 0.0
H502 H 0.92797 0.1908 0.79015 0.0
H503 H 0.96171 0.20479 0.80148 0.0
Mn504 Mn 0.70659 0.66879 0.69199 0.0
Mn505 Mn 0.74698 0.70925 0.68611 0.0
C506 C 0.73339 0.67705 0.7124 0.0
C507 C 0.67799 0.65507 0.70632 0.0
C508 C 0.72971 0.67323 0.658 0.0
O509 O 0.69849 0.6844 0.67534 0.0
O510 O 0.72535 0.71335 0.67873 0.0
C511 C 0.74747 0.7381 0.7148 0.0
N512 N 0.75538 0.72771 0.7081 0.0
C513 C 0.78107 0.74305 0.73312 0.0
C514 C 0.77308 0.75379 0.74035 0.0
C515 C 0.75622 0.75132 0.73111 0.0
C516 C 0.7718 0.73023 0.71667 0.0
H517 H 0.73459 0.73633 0.70773 0.0
C518 C 0.70761 0.70258 0.67381 0.0
O519 O 0.68003 0.64665 0.69085 0.0
O520 O 0.69243 0.67119 0.71324 0.0
N521 N 0.76833 0.70635 0.69369 0.0
C522 C 0.7736 0.69403 0.68573 0.0
C523 C 0.78981 0.69416 0.69377 0.0
C524 C 0.80046 0.70695 0.70989 0.0
C525 C 0.79478 0.71948 0.71786 0.0
C526 C 0.77856 0.7188 0.70915 0.0
H527 H 0.7655 0.68409 0.67339 0.0
O528 O 0.71959 0.65937 0.71053 0.0
O529 O 0.73096 0.68893 0.70211 0.0
O530 O 0.71714 0.66189 0.66859 0.0
O531 O 0.74018 0.69128 0.66265 0.0
C532 C 0.80439 0.73235 0.73434 0.0
C533 C 0.79757 0.74417 0.74193 0.0
H534 H 0.77969 0.76385 0.75306 0.0
H535 H 0.74997 0.75957 0.73659 0.0
H536 H 0.79405 0.68437 0.68758 0.0
H537 H 0.8129 0.70692 0.7161 0.0
H538 H 0.81691 0.73312 0.74143 0.0
H539 H 0.80496 0.75386 0.75475 0.0
Mn540 Mn 0.32866 0.30648 0.69924 0.0
Mn541 Mn 0.37033 0.30762 0.70774 0.0
C542 C 0.33691 0.28923 0.6781 0.0
C543 C 0.31084 0.31967 0.68693 0.0
C544 C 0.33626 0.28428 0.73005 0.0
O545 O 0.34354 0.32973 0.71883 0.0
O546 O 0.37152 0.33055 0.72136 0.0
C547 C 0.39459 0.34194 0.68708 0.0
N548 N 0.38759 0.3229 0.6897 0.0
C549 C 0.40615 0.31991 0.66531 0.0
C550 C 0.41363 0.33952 0.6624 0.0
C551 C 0.40778 0.35056 0.67331 0.0
C552 C 0.39308 0.31214 0.67926 0.0
H553 H 0.39014 0.35048 0.69544 0.0
C554 C 0.36085 0.33754 0.72532 0.0
O555 O 0.3057 0.30872 0.7013 0.0
O556 O 0.32642 0.32306 0.67962 0.0
N557 N 0.37133 0.28637 0.69528 0.0
C558 C 0.36209 0.26748 0.69919 0.0
C559 C 0.3661 0.25441 0.6893 0.0
C560 C 0.3796 0.26089 0.67556 0.0
C561 C 0.38898 0.2804 0.67185 0.0
C562 C 0.38457 0.29281 0.68233 0.0
H563 H 0.35176 0.26244 0.70979 0.0
O564 O 0.31935 0.28471 0.67869 0.0
O565 O 0.34911 0.30386 0.68968 0.0
O566 O 0.32502 0.28818 0.7204 0.0
O567 O 0.35361 0.29123 0.72695 0.0
C568 C 0.40235 0.28798 0.65797 0.0
C569 C 0.41089 0.30772 0.65467 0.0
H570 H 0.42375 0.3462 0.65175 0.0
H571 H 0.41344 0.36568 0.6711 0.0
H572 H 0.3588 0.23937 0.69226 0.0
H573 H 0.38257 0.25075 0.66786 0.0
H574 H 0.40597 0.27871 0.64957 0.0
H575 H 0.42095 0.31332 0.64377 0.0
Mn576 Mn 0.69241 0.04358 0.67989 0.0
Mn577 Mn 0.73056 0.03797 0.67672 0.0
C578 C 0.71756 0.05838 0.70344 0.0
C579 C 0.66244 0.03327 0.69042 0.0
C580 C 0.7231 0.06444 0.65211 0.0
O581 O 0.6826 0.0201 0.66062 0.0
O582 O 0.70856 0.01701 0.6605 0.0
C583 C 0.71693 0.00164 0.69613 0.0
N584 N 0.73006 0.02051 0.69507 0.0
C585 C 0.74893 0.01978 0.72264 0.0
C586 C 0.73566 0.00032 0.72396 0.0
C587 C 0.71958 0.99123 0.71066 0.0
C588 C 0.74559 0.0294 0.70778 0.0
H589 H 0.70452 0.9946 0.68599 0.0
C590 C 0.69125 0.01134 0.65509 0.0
O591 O 0.66823 0.04402 0.6759 0.0
O592 O 0.67387 0.02822 0.69847 0.0
N593 N 0.75272 0.05706 0.69201 0.0
C594 C 0.76353 0.07619 0.68952 0.0
C595 C 0.77996 0.08749 0.70192 0.0
C596 C 0.78511 0.07901 0.71671 0.0
C597 C 0.77372 0.05932 0.71904 0.0
C598 C 0.75764 0.04874 0.7061 0.0
H599 H 0.7596 0.0828 0.67823 0.0
O600 O 0.70603 0.06501 0.70084 0.0
O601 O 0.71408 0.04344 0.69211 0.0
O602 O 0.70771 0.06111 0.65911 0.0
O603 O 0.73265 0.0565 0.65762 0.0
C604 C 0.77755 0.04987 0.7339 0.0
C605 C 0.76514 0.03012 0.73572 0.0
H606 H 0.7376 0.99226 0.73522 0.0
H607 H 0.70924 0.97623 0.71164 0.0
H608 H 0.78861 0.10271 0.70012 0.0
H609 H 0.79777 0.08777 0.72628 0.0
H610 H 0.78985 0.05771 0.74417 0.0
H611 H 0.76809 0.02307 0.74737 0.0
Mn612 Mn 0.95788 0.67308 0.70477 0.0
Mn613 Mn 0.91807 0.63165 0.71023 0.0
C614 C 0.93211 0.66269 0.68243 0.0
C615 C 0.98764 0.68789 0.69309 0.0
C616 C 0.93129 0.66889 0.7355 0.0
O617 O 0.96612 0.6597 0.72421 0.0
O618 O 0.93992 0.63044 0.72272 0.0
C619 C 0.924 0.60363 0.68669 0.0
N620 N 0.91345 0.61211 0.6904 0.0
C621 C 0.89007 0.59234 0.66444 0.0
C622 C 0.90062 0.58331 0.66042 0.0
C623 C 0.91767 0.589 0.67158 0.0
C624 C 0.89698 0.60669 0.67982 0.0
H625 H 0.93716 0.60802 0.69517 0.0
C626 C 0.95734 0.64211 0.72823 0.0
O627 O 0.98367 0.69632 0.70708 0.0
O628 O 0.97438 0.67109 0.68593 0.0
N629 N 0.89611 0.63115 0.69836 0.0
C630 C 0.8885 0.64245 0.703 0.0
C631 C 0.87187 0.63928 0.69257 0.0
C632 C 0.8632 0.62449 0.67754 0.0
C633 C 0.87131 0.61308 0.673 0.0
C634 C 0.88782 0.61682 0.684 0.0
H635 H 0.89511 0.65386 0.71451 0.0
O636 O 0.94534 0.68062 0.68395 0.0
O637 O 0.93456 0.65149 0.69388 0.0
O638 O 0.94498 0.67996 0.72587 0.0
O639 O 0.9212 0.65073 0.73128 0.0
C640 C 0.86389 0.59843 0.65771 0.0
C641 C 0.87325 0.58806 0.65345 0.0
H642 H 0.89589 0.57214 0.64865 0.0
H643 H 0.92595 0.58217 0.66849 0.0
H644 H 0.86576 0.64823 0.69606 0.0
H645 H 0.85042 0.62214 0.66947 0.0
H646 H 0.85116 0.59526 0.64893 0.0
H647 H 0.86759 0.57706 0.64145 0.0
H648 H 0.17019 0.34616 0.03502 0.0
H649 H 0.25421 0.27647 0.19137 0.0
H650 H 0.15882 0.34876 0.136 0.0
H651 H 0.13417 0.35218 0.11853 0.0
H652 H 0.09282 0.29477 0.13189 0.0
H653 H 0.11807 0.29105 0.14816 0.0
H654 H 0.19083 0.34777 0.11774 0.0
H655 H 0.18686 0.35244 0.08338 0.0
H656 H 0.13663 0.29629 0.07586 0.0
H657 H 0.14092 0.29169 0.11019 0.0
H658 H 0.22066 0.34231 0.14705 0.0
H659 H 0.24411 0.34896 0.12357 0.0
H660 H 0.20347 0.2987 0.08716 0.0
H661 H 0.18019 0.29165 0.11114 0.0
H662 H 0.21758 0.33478 0.18733 0.0
H663 H 0.24256 0.32856 0.19963 0.0
H664 H 0.21406 0.27268 0.16748 0.0
H665 H 0.18904 0.279 0.15551 0.0
H666 H 0.18898 0.33868 0.20633 0.0
H667 H 0.20022 0.33598 0.23888 0.0
H668 H 0.17486 0.27436 0.22634 0.0
H669 H 0.1646 0.2775 0.19345 0.0
H670 H 0.15544 0.34536 0.18044 0.0
H671 H 0.13554 0.34844 0.20392 0.0
H672 H 0.11362 0.28887 0.21583 0.0
H673 H 0.1334 0.28578 0.19197 0.0
O674 O 0.17151 0.344 0.04855 0.0
O675 O 0.14566 0.31513 0.04551 0.0
O676 O 0.25856 0.30814 0.20303 0.0
O677 O 0.24454 0.27933 0.18668 0.0
C678 C 0.1559 0.31643 0.15038 0.0
C679 C 0.1687 0.31649 0.13728 0.0
C680 C 0.18397 0.31405 0.14405 0.0
C681 C 0.18593 0.31075 0.16373 0.0
C682 C 0.17313 0.31067 0.17679 0.0
C683 C 0.15824 0.31377 0.17024 0.0
C684 C 0.14028 0.31957 0.14307 0.0
C685 C 0.14441 0.33698 0.13527 0.0
C686 C 0.13019 0.33895 0.12543 0.0
C687 C 0.1114 0.32368 0.12361 0.0
C688 C 0.10716 0.30666 0.13259 0.0
C689 C 0.12151 0.30458 0.14213 0.0
C690 C 0.16622 0.31936 0.11642 0.0
C691 C 0.17904 0.33647 0.10861 0.0
C692 C 0.17671 0.33911 0.089 0.0
C693 C 0.16143 0.32473 0.07687 0.0
C694 C 0.14855 0.30764 0.08479 0.0
C695 C 0.15095 0.30499 0.10439 0.0
C696 C 0.19869 0.31648 0.13084 0.0
C697 C 0.21695 0.33241 0.13429 0.0
C698 C 0.23031 0.33624 0.12084 0.0
C699 C 0.22554 0.32439 0.10353 0.0
C700 C 0.20743 0.30812 0.10034 0.0
C701 C 0.19418 0.30407 0.11401 0.0
C702 C 0.20144 0.30726 0.17068 0.0
C703 C 0.21672 0.32117 0.18305 0.0
C704 C 0.23099 0.3176 0.19 0.0
C705 C 0.23028 0.30009 0.18458 0.0
C706 C 0.21503 0.28629 0.17197 0.0
C707 C 0.20074 0.28987 0.16508 0.0
C708 C 0.17616 0.30831 0.19758 0.0
C709 C 0.18552 0.32457 0.21083 0.0
C710 C 0.19185 0.32295 0.22946 0.0
C711 C 0.18869 0.30497 0.23518 0.0
C712 C 0.17795 0.28849 0.22227 0.0
C713 C 0.17189 0.29018 0.20356 0.0
C714 C 0.14582 0.31533 0.18438 0.0
C715 C 0.14621 0.33291 0.18796 0.0
C716 C 0.13484 0.33464 0.20139 0.0
C717 C 0.12297 0.31887 0.21168 0.0
C718 C 0.12273 0.3013 0.20823 0.0
C719 C 0.13397 0.29951 0.19459 0.0
C720 C 0.15899 0.32759 0.05604 0.0
C721 C 0.24535 0.29618 0.19202 0.0
H722 H 0.67623 0.82339 0.0412 0.0
H723 H 0.70387 0.96003 0.23092 0.0
H724 H 0.66143 0.80378 0.14736 0.0
H725 H 0.66071 0.7743 0.1349 0.0
H726 H 0.72132 0.80216 0.14624 0.0
H727 H 0.72187 0.83169 0.15859 0.0
H728 H 0.66203 0.82711 0.12293 0.0
H729 H 0.66235 0.82163 0.08787 0.0
H730 H 0.72226 0.8623 0.09213 0.0
H731 H 0.72173 0.86752 0.12724 0.0
H732 H 0.66188 0.8607 0.13178 0.0
H733 H 0.6575 0.88399 0.11377 0.0
H734 H 0.71354 0.9287 0.1357 0.0
H735 H 0.71823 0.90487 0.15241 0.0
H736 H 0.66139 0.87497 0.17906 0.0
H737 H 0.65957 0.90175 0.19529 0.0
H738 H 0.71996 0.93158 0.20955 0.0
H739 H 0.72156 0.90476 0.1932 0.0
H740 H 0.66221 0.84745 0.2099 0.0
H741 H 0.6622 0.86336 0.24098 0.0
H742 H 0.72312 0.89341 0.24665 0.0
H743 H 0.72301 0.87731 0.21565 0.0
H744 H 0.66206 0.80794 0.19057 0.0
H745 H 0.66149 0.78458 0.21282 0.0
H746 H 0.72196 0.81942 0.22509 0.0
H747 H 0.72236 0.84252 0.20259 0.0
O748 O 0.67643 0.82575 0.05508 0.0
O749 O 0.70721 0.84678 0.05804 0.0
O750 O 0.67345 0.93429 0.215 0.0
O751 O 0.70427 0.94959 0.22376 0.0
C752 C 0.69198 0.8375 0.16149 0.0
C753 C 0.69171 0.85082 0.14882 0.0
C754 C 0.69184 0.86754 0.15647 0.0
C755 C 0.69236 0.87094 0.17677 0.0
C756 C 0.69271 0.85765 0.18939 0.0
C757 C 0.69247 0.84095 0.18178 0.0
C758 C 0.69172 0.81988 0.15359 0.0
C759 C 0.67455 0.80355 0.14692 0.0
C760 C 0.67418 0.78677 0.13981 0.0
C761 C 0.69098 0.78598 0.1395 0.0
C762 C 0.70816 0.80234 0.14639 0.0
C763 C 0.70852 0.8192 0.15334 0.0
C764 C 0.69189 0.84757 0.12758 0.0
C765 C 0.67522 0.83471 0.11627 0.0
C766 C 0.67544 0.83166 0.09624 0.0
C767 C 0.69234 0.8415 0.08719 0.0
C768 C 0.70901 0.85447 0.09863 0.0
C769 C 0.70876 0.85749 0.11867 0.0
C770 C 0.69036 0.88109 0.1434 0.0
C771 C 0.67341 0.8754 0.13219 0.0
C772 C 0.67083 0.88885 0.12219 0.0
C773 C 0.68502 0.90838 0.12357 0.0
C774 C 0.70233 0.91382 0.13415 0.0
C775 C 0.70502 0.90025 0.14383 0.0
C776 C 0.69159 0.88796 0.185 0.0
C777 C 0.67422 0.88742 0.1855 0.0
C778 C 0.67322 0.90269 0.19484 0.0
C779 C 0.68962 0.91876 0.20384 0.0
C780 C 0.70706 0.91941 0.20285 0.0
C781 C 0.70803 0.90414 0.19349 0.0
C782 C 0.69261 0.86133 0.21056 0.0
C783 C 0.67551 0.85671 0.21835 0.0
C784 C 0.67553 0.86584 0.23605 0.0
C785 C 0.69267 0.87978 0.24599 0.0
C786 C 0.70974 0.8828 0.23914 0.0
C787 C 0.7097 0.87352 0.22156 0.0
C788 C 0.69224 0.82683 0.19506 0.0
C789 C 0.67515 0.81043 0.19805 0.0
C790 C 0.67486 0.7972 0.21079 0.0
C791 C 0.69168 0.80018 0.22069 0.0
C792 C 0.70881 0.81661 0.21749 0.0
C793 C 0.70907 0.82986 0.20478 0.0
C794 C 0.69252 0.83823 0.06591 0.0
C795 C 0.68855 0.93466 0.21447 0.0
H796 H 0.13331 0.83468 0.03667 0.0
H797 H 0.28435 0.96075 0.21315 0.0
H798 H 0.11898 0.83721 0.15553 0.0
H799 H 0.09174 0.80732 0.14081 0.0
H800 H 0.12945 0.78703 0.12345 0.0
H801 H 0.15618 0.81625 0.13908 0.0
H802 H 0.14131 0.85934 0.11918 0.0
H803 H 0.13357 0.8501 0.08429 0.0
H804 H 0.17931 0.83754 0.0833 0.0
H805 H 0.18675 0.84661 0.11825 0.0
H806 H 0.18397 0.90006 0.12388 0.0
H807 H 0.20799 0.92027 0.1025 0.0
H808 H 0.24357 0.89779 0.12332 0.0
H809 H 0.21943 0.87755 0.14446 0.0
H810 H 0.19809 0.91845 0.16681 0.0
H811 H 0.2271 0.94786 0.17907 0.0
H812 H 0.25026 0.91325 0.20084 0.0
H813 H 0.22127 0.884 0.1883 0.0
H814 H 0.17515 0.89842 0.20385 0.0
H815 H 0.18888 0.91136 0.23708 0.0
H816 H 0.20533 0.86774 0.24132 0.0
H817 H 0.19074 0.85446 0.2085 0.0
H818 H 0.13883 0.86211 0.19839 0.0
H819 H 0.11771 0.84283 0.22238 0.0
H820 H 0.13002 0.79721 0.20839 0.0
H821 H 0.15164 0.81692 0.185 0.0
O822 O 0.13662 0.83827 0.05046 0.0
O823 O 0.16036 0.83212 0.05071 0.0
O824 O 0.2603 0.96651 0.19642 0.0
O825 O 0.27278 0.94937 0.20805 0.0
C826 C 0.15629 0.84747 0.15572 0.0
C827 C 0.16905 0.85912 0.14246 0.0
C828 C 0.18596 0.87589 0.14941 0.0
C829 C 0.18986 0.88137 0.16951 0.0
C830 C 0.17695 0.87 0.18274 0.0
C831 C 0.16012 0.85301 0.1759 0.0
C832 C 0.13953 0.8289 0.1483 0.0
C833 C 0.12122 0.8261 0.14884 0.0
C834 C 0.10573 0.80911 0.14024 0.0
C835 C 0.10836 0.79473 0.13087 0.0
C836 C 0.12677 0.79754 0.1308 0.0
C837 C 0.14213 0.81435 0.13957 0.0
C838 C 0.16464 0.85374 0.12121 0.0
C839 C 0.14963 0.85459 0.11139 0.0
C840 C 0.14526 0.84931 0.09146 0.0
C841 C 0.15585 0.84311 0.08099 0.0
C842 C 0.1709 0.84229 0.09091 0.0
C843 C 0.17523 0.84753 0.11085 0.0
C844 C 0.20003 0.88744 0.13574 0.0
C845 C 0.19689 0.89942 0.12366 0.0
C846 C 0.21063 0.91096 0.11154 0.0
C847 C 0.22767 0.91062 0.11124 0.0
C848 C 0.23052 0.89821 0.12304 0.0
C849 C 0.21683 0.88677 0.13523 0.0
C850 C 0.20759 0.89915 0.17677 0.0
C851 C 0.20948 0.91729 0.17418 0.0
C852 C 0.22604 0.93404 0.18123 0.0
C853 C 0.24099 0.9329 0.19099 0.0
C854 C 0.23902 0.91464 0.19344 0.0
C855 C 0.22248 0.89792 0.18633 0.0
C856 C 0.18195 0.87552 0.20386 0.0
C857 C 0.18126 0.89138 0.21223 0.0
C858 C 0.18933 0.89888 0.23112 0.0
C859 C 0.1985 0.89081 0.24184 0.0
C860 C 0.19823 0.87424 0.23367 0.0
C861 C 0.18993 0.86661 0.21488 0.0
C862 C 0.14679 0.84094 0.18996 0.0
C863 C 0.13697 0.84796 0.20056 0.0
C864 C 0.12477 0.83684 0.21413 0.0
C865 C 0.12214 0.81844 0.21736 0.0
C866 C 0.13189 0.8114 0.2065 0.0
C867 C 0.14413 0.82257 0.193 0.0
C868 C 0.15114 0.83749 0.05982 0.0
C869 C 0.25856 0.95064 0.19861 0.0
H870 H 0.27337 0.15578 0.01471 0.0
H871 H 0.33928 0.06002 0.86736 0.0
H872 H 0.2802 0.17574 0.90739 0.0
H873 H 0.28357 0.20637 0.92021 0.0
H874 H 0.34423 0.23041 0.92736 0.0
H875 H 0.3406 0.20046 0.91295 0.0
H876 H 0.27434 0.13485 0.93277 0.0
H877 H 0.2684 0.13939 0.96642 0.0
H878 H 0.3266 0.18437 0.97814 0.0
H879 H 0.33238 0.17952 0.94453 0.0
H880 H 0.28411 0.09966 0.91235 0.0
H881 H 0.28945 0.07758 0.93158 0.0
H882 H 0.34073 0.12583 0.9593 0.0
H883 H 0.33592 0.1475 0.93899 0.0
H884 H 0.28653 0.10252 0.86757 0.0
H885 H 0.29066 0.07534 0.857 0.0
H886 H 0.346 0.10326 0.88825 0.0
H887 H 0.34178 0.13045 0.89847 0.0
H888 H 0.28789 0.13221 0.8438 0.0
H889 H 0.29551 0.12586 0.81122 0.0
H890 H 0.35424 0.15188 0.83233 0.0
H891 H 0.3465 0.15775 0.86473 0.0
H892 H 0.28231 0.17045 0.86975 0.0
H893 H 0.28259 0.19118 0.84472 0.0
H894 H 0.3407 0.20774 0.83665 0.0
H895 H 0.3407 0.18853 0.86308 0.0
O896 O 0.27604 0.1542 0.00148 0.0
O897 O 0.30608 0.17726 0.00673 0.0
O898 O 0.30889 0.05701 0.85518 0.0
O899 O 0.3373 0.07061 0.87127 0.0
C900 C 0.30848 0.16745 0.9022 0.0
C901 C 0.30709 0.15413 0.91574 0.0
C902 C 0.30867 0.13793 0.90974 0.0
C903 C 0.31128 0.1349 0.89011 0.0
C904 C 0.31221 0.14797 0.87653 0.0
C905 C 0.31069 0.16422 0.8825 0.0
C906 C 0.31017 0.18602 0.90918 0.0
C907 C 0.29418 0.18784 0.91142 0.0
C908 C 0.29618 0.20531 0.91899 0.0
C909 C 0.31421 0.22108 0.92493 0.0
C910 C 0.33014 0.21898 0.92253 0.0
C911 C 0.32813 0.20175 0.91447 0.0
C912 C 0.30372 0.15699 0.93619 0.0
C913 C 0.28577 0.14568 0.94265 0.0
C914 C 0.28242 0.14831 0.96186 0.0
C915 C 0.29701 0.1623 0.97496 0.0
C916 C 0.31504 0.17353 0.96842 0.0
C917 C 0.31836 0.17086 0.94921 0.0
C918 C 0.30963 0.12518 0.92423 0.0
C919 C 0.29633 0.10545 0.92281 0.0
C920 C 0.29939 0.09287 0.93389 0.0
C921 C 0.31568 0.09988 0.94684 0.0
C922 C 0.32828 0.11986 0.94915 0.0
C923 C 0.32538 0.13235 0.93782 0.0
C924 C 0.31384 0.1184 0.8838 0.0
C925 C 0.29955 0.10274 0.87205 0.0
C926 C 0.30194 0.08724 0.86607 0.0
C927 C 0.31867 0.08711 0.8718 0.0
C928 C 0.33295 0.10287 0.88359 0.0
C929 C 0.33057 0.11841 0.88948 0.0
C930 C 0.31669 0.14551 0.85648 0.0
C931 C 0.30239 0.13669 0.84125 0.0
C932 C 0.30674 0.13304 0.82277 0.0
C933 C 0.32546 0.13853 0.81933 0.0
C934 C 0.33975 0.14777 0.83456 0.0
C935 C 0.33536 0.15107 0.85302 0.0
C936 C 0.31141 0.1778 0.86809 0.0
C937 C 0.29519 0.17889 0.86282 0.0
C938 C 0.29533 0.19055 0.84825 0.0
C939 C 0.31157 0.201 0.83828 0.0
C940 C 0.32796 0.20017 0.84402 0.0
C941 C 0.32793 0.18893 0.85897 0.0
C942 C 0.2934 0.16509 0.99535 0.0
C943 C 0.32125 0.07065 0.86554 0.0
H944 H 0.83101 0.19478 0.02692 0.0
H945 H 0.72782 0.02696 0.87319 0.0
H946 H 0.83988 0.19952 0.92436 0.0
H947 H 0.86894 0.22851 0.93739 0.0
H948 H 0.90095 0.2002 0.92449 0.0
H949 H 0.87182 0.17128 0.91157 0.0
H950 H 0.80465 0.16858 0.94515 0.0
H951 H 0.81135 0.18071 0.97941 0.0
H952 H 0.85807 0.1696 0.98394 0.0
H953 H 0.85107 0.15729 0.94975 0.0
H954 H 0.77037 0.12962 0.91835 0.0
H955 H 0.7477 0.11247 0.94208 0.0
H956 H 0.7896 0.10423 0.97423 0.0
H957 H 0.812 0.12056 0.94989 0.0
H958 H 0.77089 0.123 0.87677 0.0
H959 H 0.74378 0.09161 0.86557 0.0
H960 H 0.77045 0.06342 0.89499 0.0
H961 H 0.79758 0.09492 0.90587 0.0
H962 H 0.79968 0.15237 0.85629 0.0
H963 H 0.78627 0.13623 0.82395 0.0
H964 H 0.80828 0.09768 0.83391 0.0
H965 H 0.82077 0.11339 0.86661 0.0
H966 H 0.83779 0.1922 0.87655 0.0
H967 H 0.86127 0.21186 0.85439 0.0
H968 H 0.87962 0.16967 0.85049 0.0
H969 H 0.85615 0.15016 0.87262 0.0
O970 O 0.82858 0.18988 0.01343 0.0
O971 O 0.85255 0.18406 0.01494 0.0
O972 O 0.72528 0.05476 0.86251 0.0
O973 O 0.73834 0.03957 0.87747 0.0
C974 C 0.83604 0.16531 0.91044 0.0
C975 C 0.82328 0.15474 0.92417 0.0
C976 C 0.80666 0.1372 0.91809 0.0
C977 C 0.80297 0.13023 0.8983 0.0
C978 C 0.81554 0.14104 0.88455 0.0
C979 C 0.83204 0.15857 0.89058 0.0
C980 C 0.85377 0.18334 0.91701 0.0
C981 C 0.8532 0.19965 0.92427 0.0
C982 C 0.86977 0.21612 0.9318 0.0
C983 C 0.88721 0.21658 0.93204 0.0
C984 C 0.88776 0.20034 0.92433 0.0
C985 C 0.87116 0.18383 0.91694 0.0
C986 C 0.82738 0.16208 0.94498 0.0
C987 C 0.81628 0.16873 0.9536 0.0
C988 C 0.82016 0.17568 0.97315 0.0
C989 C 0.83526 0.17615 0.98442 0.0
C990 C 0.84636 0.16946 0.97569 0.0
C991 C 0.84242 0.16247 0.95615 0.0
C992 C 0.79285 0.12635 0.93234 0.0
C993 C 0.77457 0.12383 0.93031 0.0
C994 C 0.76168 0.1141 0.94387 0.0
C995 C 0.76698 0.10711 0.95993 0.0
C996 C 0.78526 0.10961 0.962 0.0
C997 C 0.79802 0.11894 0.94816 0.0
C998 C 0.78622 0.1112 0.89202 0.0
C999 C 0.77087 0.11002 0.8807 0.0
C1000 C 0.7554 0.09208 0.87437 0.0
C1001 C 0.75497 0.07499 0.87935 0.0
C1002 C 0.77033 0.07627 0.89087 0.0
C1003 C 0.78582 0.09424 0.89714 0.0
C1004 C 0.81104 0.13392 0.86375 0.0
C1005 C 0.80192 0.1407 0.85126 0.0
C1006 C 0.79432 0.13147 0.83275 0.0
C1007 C 0.79594 0.11544 0.82636 0.0
C1008 C 0.80635 0.10966 0.83851 0.0
C1009 C 0.8137 0.11873 0.8571 0.0
C1010 C 0.84531 0.16979 0.87616 0.0
C1011 C 0.84678 0.18715 0.87073 0.0
C1012 C 0.86011 0.1983 0.85805 0.0
C1013 C 0.87231 0.19232 0.8508 0.0
C1014 C 0.87053 0.17472 0.85601 0.0
C1015 C 0.85709 0.16352 0.86853 0.0
C1016 C 0.83938 0.18358 0.00517 0.0
C1017 C 0.73861 0.05588 0.87257 0.0
H1018 H 0.86565 0.68986 0.03639 0.0
H1019 H 0.71304 0.66265 0.87997 0.0
H1020 H 0.88063 0.71556 0.93225 0.0
H1021 H 0.90805 0.71367 0.94588 0.0
H1022 H 0.88003 0.65319 0.92676 0.0
H1023 H 0.85295 0.6553 0.91262 0.0
H1024 H 0.8465 0.70952 0.96104 0.0
H1025 H 0.85564 0.70667 0.99456 0.0
H1026 H 0.84308 0.64842 0.97873 0.0
H1027 H 0.83377 0.65141 0.94534 0.0
H1028 H 0.80539 0.70334 0.94584 0.0
H1029 H 0.78203 0.6926 0.97019 0.0
H1030 H 0.7728 0.6347 0.96062 0.0
H1031 H 0.79633 0.64567 0.93692 0.0
H1032 H 0.80663 0.71394 0.8987 0.0
H1033 H 0.77663 0.71263 0.8896 0.0
H1034 H 0.74736 0.65084 0.89299 0.0
H1035 H 0.77748 0.65235 0.90187 0.0
H1036 H 0.83906 0.72022 0.8731 0.0
H1037 H 0.8283 0.72427 0.84065 0.0
H1038 H 0.78883 0.66313 0.83301 0.0
H1039 H 0.79957 0.65924 0.86547 0.0
H1040 H 0.87752 0.71768 0.89122 0.0
H1041 H 0.89729 0.71996 0.86484 0.0
H1042 H 0.85403 0.66359 0.84034 0.0
H1043 H 0.83507 0.66108 0.86725 0.0
O1044 O 0.86181 0.69062 0.02311 0.0
O1045 O 0.85544 0.66085 0.01414 0.0
O1046 O 0.74083 0.69536 0.88189 0.0
O1047 O 0.7251 0.66359 0.88355 0.0
C1048 C 0.84727 0.68587 0.91606 0.0
C1049 C 0.83457 0.68277 0.93042 0.0
C1050 C 0.81699 0.68145 0.92542 0.0
C1051 C 0.81245 0.68414 0.90623 0.0
C1052 C 0.82518 0.68732 0.89187 0.0
C1053 C 0.84248 0.68786 0.89669 0.0
C1054 C 0.86493 0.6856 0.92136 0.0
C1055 C 0.88067 0.70206 0.93055 0.0
C1056 C 0.89622 0.70095 0.93835 0.0
C1057 C 0.89598 0.68326 0.93742 0.0
C1058 C 0.88044 0.66694 0.92769 0.0
C1059 C 0.86509 0.66816 0.91952 0.0
C1060 C 0.83964 0.68073 0.95079 0.0
C1061 C 0.84569 0.69615 0.96489 0.0
C1062 C 0.85092 0.69448 0.984 0.0
C1063 C 0.85017 0.67734 0.98931 0.0
C1064 C 0.84389 0.66184 0.97512 0.0
C1065 C 0.83861 0.66352 0.95604 0.0
C1066 C 0.80265 0.6753 0.93982 0.0
C1067 C 0.79829 0.68837 0.94911 0.0
C1068 C 0.7849 0.68218 0.9629 0.0
C1069 C 0.7757 0.66283 0.96754 0.0
C1070 C 0.77992 0.64979 0.9578 0.0
C1071 C 0.79329 0.65598 0.94417 0.0
C1072 C 0.79418 0.68327 0.90104 0.0
C1073 C 0.79371 0.70015 0.89748 0.0
C1074 C 0.77656 0.69936 0.89229 0.0
C1075 C 0.75958 0.68162 0.8906 0.0
C1076 C 0.76015 0.66473 0.8942 0.0
C1077 C 0.77732 0.66555 0.89934 0.0
C1078 C 0.81999 0.68948 0.8716 0.0
C1079 C 0.82828 0.7077 0.86428 0.0
C1080 C 0.82212 0.70998 0.84583 0.0
C1081 C 0.80775 0.694 0.83436 0.0
C1082 C 0.80007 0.67564 0.84145 0.0
C1083 C 0.80607 0.67342 0.85999 0.0
C1084 C 0.85487 0.68922 0.88114 0.0
C1085 C 0.8725 0.70576 0.88026 0.0
C1086 C 0.88367 0.7071 0.86505 0.0
C1087 C 0.87731 0.69195 0.8504 0.0
C1088 C 0.85961 0.6754 0.85149 0.0
C1089 C 0.84862 0.67399 0.86677 0.0
C1090 C 0.85594 0.67569 0.00957 0.0
C1091 C 0.74132 0.68069 0.88508 0.0
H1092 H 0.81205 0.68832 0.36969 0.0
H1093 H 0.92622 0.62888 0.51877 0.0
H1094 H 0.81519 0.68817 0.49029 0.0
H1095 H 0.7899 0.69422 0.47903 0.0
H1096 H 0.76043 0.63767 0.44821 0.0
H1097 H 0.78623 0.63208 0.45912 0.0
H1098 H 0.83373 0.69078 0.45229 0.0
H1099 H 0.82611 0.69539 0.41889 0.0
H1100 H 0.81189 0.63694 0.40135 0.0
H1101 H 0.81936 0.63247 0.43487 0.0
H1102 H 0.87307 0.68953 0.45631 0.0
H1103 H 0.89857 0.69331 0.43656 0.0
H1104 H 0.87654 0.63173 0.43391 0.0
H1105 H 0.85151 0.62825 0.4541 0.0
H1106 H 0.88777 0.68271 0.49452 0.0
H1107 H 0.91584 0.6801 0.5031 0.0
H1108 H 0.88031 0.61896 0.50805 0.0
H1109 H 0.8524 0.62176 0.49922 0.0
H1110 H 0.86547 0.68027 0.53126 0.0
H1111 H 0.87587 0.67582 0.56359 0.0
H1112 H 0.83361 0.61547 0.55658 0.0
H1113 H 0.82315 0.62012 0.52422 0.0
H1114 H 0.83081 0.68027 0.53104 0.0
H1115 H 0.81078 0.67818 0.55685 0.0
H1116 H 0.76575 0.62466 0.52856 0.0
H1117 H 0.78638 0.62644 0.50331 0.0
O1118 O 0.8151 0.68623 0.38278 0.0
O1119 O 0.8083 0.6562 0.37443 0.0
O1120 O 0.93301 0.66178 0.51242 0.0
O1121 O 0.91536 0.63032 0.51532 0.0
C1122 C 0.81887 0.65712 0.48071 0.0
C1123 C 0.8311 0.65833 0.46635 0.0
C1124 C 0.84724 0.65681 0.47144 0.0
C1125 C 0.85111 0.65402 0.49083 0.0
C1126 C 0.83896 0.65289 0.50515 0.0
C1127 C 0.82279 0.65441 0.50015 0.0
C1128 C 0.80251 0.65973 0.47547 0.0
C1129 C 0.80313 0.67702 0.48132 0.0
C1130 C 0.7886 0.68038 0.47494 0.0
C1131 C 0.7731 0.66642 0.46268 0.0
C1132 C 0.77227 0.64882 0.45739 0.0
C1133 C 0.7869 0.64554 0.4637 0.0
C1134 C 0.82704 0.66129 0.44597 0.0
C1135 C 0.82895 0.679 0.44121 0.0
C1136 C 0.8246 0.68158 0.42212 0.0
C1137 C 0.81836 0.66652 0.40745 0.0
C1138 C 0.81665 0.64883 0.41229 0.0
C1139 C 0.82095 0.64625 0.4314 0.0
C1140 C 0.86054 0.65864 0.45671 0.0
C1141 C 0.87358 0.67685 0.4511 0.0
C1142 C 0.8881 0.67896 0.43977 0.0
C1143 C 0.88977 0.66285 0.43384 0.0
C1144 C 0.87592 0.64449 0.43855 0.0
C1145 C 0.86151 0.64242 0.44995 0.0
C1146 C 0.8681 0.65242 0.49623 0.0
C1147 C 0.88611 0.66877 0.49741 0.0
C1148 C 0.9021 0.66723 0.50234 0.0
C1149 C 0.90032 0.64931 0.50626 0.0
C1150 C 0.88219 0.63297 0.50513 0.0
C1151 C 0.86623 0.63453 0.50013 0.0
C1152 C 0.84359 0.65051 0.5255 0.0
C1153 C 0.85823 0.66619 0.5369 0.0
C1154 C 0.86407 0.66364 0.55534 0.0
C1155 C 0.85551 0.6453 0.56254 0.0
C1156 C 0.84045 0.62973 0.55131 0.0
C1157 C 0.83444 0.63236 0.53293 0.0
C1158 C 0.81014 0.65343 0.51536 0.0
C1159 C 0.81667 0.66803 0.53049 0.0
C1160 C 0.80507 0.6669 0.54513 0.0
C1161 C 0.78656 0.65126 0.54484 0.0
C1162 C 0.77999 0.63678 0.52945 0.0
C1163 C 0.79169 0.63784 0.5149 0.0
C1164 C 0.81361 0.66926 0.38721 0.0
C1165 C 0.91725 0.64759 0.51151 0.0
H1166 H 0.33212 0.14086 0.37627 0.0
H1167 H 0.37658 0.29527 0.55714 0.0
H1168 H 0.32835 0.12987 0.49784 0.0
H1169 H 0.32788 0.09986 0.48766 0.0
H1170 H 0.38212 0.13263 0.46497 0.0
H1171 H 0.38298 0.16278 0.47591 0.0
H1172 H 0.32598 0.15032 0.45952 0.0
H1173 H 0.32319 0.14181 0.4246 0.0
H1174 H 0.37973 0.18904 0.42063 0.0
H1175 H 0.38239 0.19725 0.45562 0.0
H1176 H 0.324 0.19229 0.47166 0.0
H1177 H 0.31948 0.21602 0.45483 0.0
H1178 H 0.38008 0.25311 0.45697 0.0
H1179 H 0.38427 0.22951 0.47493 0.0
H1180 H 0.32777 0.20707 0.51195 0.0
H1181 H 0.32843 0.23569 0.52698 0.0
H1182 H 0.38927 0.26375 0.53613 0.0
H1183 H 0.38838 0.23509 0.52091 0.0
H1184 H 0.32675 0.18047 0.54107 0.0
H1185 H 0.32696 0.19815 0.57088 0.0
H1186 H 0.38778 0.22553 0.57811 0.0
H1187 H 0.3874 0.20786 0.54811 0.0
H1188 H 0.32796 0.1469 0.53519 0.0
H1189 H 0.32761 0.12392 0.55765 0.0
H1190 H 0.38611 0.14294 0.54911 0.0
H1191 H 0.38603 0.1654 0.52613 0.0
O1192 O 0.33352 0.14447 0.39005 0.0
O1193 O 0.36261 0.169 0.38878 0.0
O1194 O 0.34478 0.26952 0.54435 0.0
O1195 O 0.37596 0.28407 0.55045 0.0
C1196 C 0.35639 0.16667 0.49478 0.0
C1197 C 0.35605 0.17938 0.48128 0.0
C1198 C 0.35661 0.19656 0.48803 0.0
C1199 C 0.35745 0.20104 0.50812 0.0
C1200 C 0.35726 0.18816 0.52156 0.0
C1201 C 0.35689 0.17108 0.51496 0.0
C1202 C 0.3558 0.14852 0.48782 0.0
C1203 C 0.34023 0.13062 0.49086 0.0
C1204 C 0.33992 0.11355 0.485 0.0
C1205 C 0.355 0.11414 0.47567 0.0
C1206 C 0.37039 0.13198 0.4722 0.0
C1207 C 0.37085 0.14909 0.47837 0.0
C1208 C 0.35438 0.17439 0.46007 0.0
C1209 C 0.33775 0.15877 0.45108 0.0
C1210 C 0.3362 0.15397 0.43113 0.0
C1211 C 0.35124 0.16475 0.41981 0.0
C1212 C 0.36787 0.18045 0.42891 0.0
C1213 C 0.36942 0.1852 0.44887 0.0
C1214 C 0.35443 0.20917 0.47432 0.0
C1215 C 0.33628 0.20535 0.46806 0.0
C1216 C 0.33377 0.21898 0.45838 0.0
C1217 C 0.34943 0.2366 0.45452 0.0
C1218 C 0.36769 0.23988 0.45998 0.0
C1219 C 0.37015 0.22633 0.46997 0.0
C1220 C 0.35803 0.2191 0.5153 0.0
C1221 C 0.34123 0.21955 0.51693 0.0
C1222 C 0.34165 0.23586 0.52562 0.0
C1223 C 0.35891 0.25198 0.53286 0.0
C1224 C 0.37574 0.25159 0.53076 0.0
C1225 C 0.3753 0.23529 0.522 0.0
C1226 C 0.35705 0.19291 0.54247 0.0
C1227 C 0.34003 0.18958 0.54961 0.0
C1228 C 0.34019 0.19978 0.56659 0.0
C1229 C 0.35742 0.21349 0.57661 0.0
C1230 C 0.37432 0.21528 0.57048 0.0
C1231 C 0.37413 0.20501 0.55353 0.0
C1232 C 0.35705 0.15783 0.52918 0.0
C1233 C 0.3407 0.14613 0.5383 0.0
C1234 C 0.34056 0.13305 0.55113 0.0
C1235 C 0.35685 0.13158 0.55522 0.0
C1236 C 0.37324 0.14346 0.54607 0.0
C1237 C 0.37331 0.15643 0.5331 0.0
C1238 C 0.34954 0.1596 0.39862 0.0
C1239 C 0.35938 0.26902 0.54284 0.0
H1240 H 0.80269 0.17283 0.37066 0.0
H1241 H 0.96566 0.28133 0.52403 0.0
H1242 H 0.79397 0.17695 0.47368 0.0
H1243 H 0.76544 0.148 0.45907 0.0
H1244 H 0.78774 0.11258 0.48035 0.0
H1245 H 0.81614 0.1414 0.49457 0.0
H1246 H 0.82981 0.20805 0.45009 0.0
H1247 H 0.81837 0.19825 0.41578 0.0
H1248 H 0.81948 0.1452 0.42181 0.0
H1249 H 0.83119 0.15532 0.456 0.0
H1250 H 0.87173 0.24049 0.47096 0.0
H1251 H 0.89451 0.25533 0.44658 0.0
H1252 H 0.8935 0.20139 0.43441 0.0
H1253 H 0.87092 0.18679 0.45878 0.0
H1254 H 0.87224 0.24477 0.51821 0.0
H1255 H 0.904 0.27167 0.52763 0.0
H1256 H 0.92774 0.23704 0.50714 0.0
H1257 H 0.89591 0.21019 0.49802 0.0
H1258 H 0.83842 0.21621 0.54295 0.0
H1259 H 0.8514 0.22776 0.57662 0.0
H1260 H 0.89142 0.20789 0.56932 0.0
H1261 H 0.87767 0.19555 0.53602 0.0
H1262 H 0.80268 0.18745 0.52353 0.0
H1263 H 0.78125 0.16898 0.5476 0.0
H1264 H 0.81088 0.13696 0.55464 0.0
H1265 H 0.83289 0.15647 0.53155 0.0
O1266 O 0.80735 0.17648 0.38422 0.0
O1267 O 0.80802 0.14936 0.38813 0.0
O1268 O 0.94002 0.28803 0.53107 0.0
O1269 O 0.95295 0.2709 0.52053 0.0
C1270 C 0.82567 0.1785 0.49093 0.0
C1271 C 0.83781 0.18825 0.47643 0.0
C1272 C 0.8563 0.20352 0.48179 0.0
C1273 C 0.86247 0.20932 0.50168 0.0
C1274 C 0.85031 0.19953 0.51618 0.0
C1275 C 0.83192 0.18411 0.51079 0.0
C1276 C 0.80707 0.16122 0.48518 0.0
C1277 C 0.79243 0.16288 0.47554 0.0
C1278 C 0.77618 0.14639 0.46727 0.0
C1279 C 0.77453 0.12813 0.46846 0.0
C1280 C 0.78877 0.12652 0.47908 0.0
C1281 C 0.8049 0.14292 0.48735 0.0
C1282 C 0.83119 0.18234 0.45554 0.0
C1283 C 0.82763 0.19435 0.44394 0.0
C1284 C 0.82106 0.1887 0.42437 0.0
C1285 C 0.81795 0.17091 0.41607 0.0
C1286 C 0.82168 0.15897 0.42775 0.0
C1287 C 0.82831 0.16468 0.44729 0.0
C1288 C 0.8696 0.21253 0.46658 0.0
C1289 C 0.87643 0.23191 0.46298 0.0
C1290 C 0.88946 0.24036 0.44911 0.0
C1291 C 0.89575 0.2295 0.4385 0.0
C1292 C 0.88872 0.21005 0.44208 0.0
C1293 C 0.87584 0.20169 0.45603 0.0
C1294 C 0.88179 0.22558 0.50738 0.0
C1295 C 0.88433 0.24303 0.51582 0.0
C1296 C 0.90247 0.25836 0.52116 0.0
C1297 C 0.91842 0.25652 0.5181 0.0
C1298 C 0.91579 0.23897 0.50966 0.0
C1299 C 0.89763 0.22362 0.50439 0.0
C1300 C 0.85716 0.20512 0.53704 0.0
C1301 C 0.84974 0.21404 0.54878 0.0
C1302 C 0.85732 0.2208 0.56794 0.0
C1303 C 0.87259 0.21892 0.57565 0.0
C1304 C 0.87955 0.20939 0.56398 0.0
C1305 C 0.87183 0.20248 0.54488 0.0
C1306 C 0.81933 0.17332 0.52589 0.0
C1307 C 0.8046 0.17657 0.5305 0.0
C1308 C 0.79224 0.16582 0.54412 0.0
C1309 C 0.79414 0.15128 0.55312 0.0
C1310 C 0.80908 0.1482 0.54841 0.0
C1311 C 0.82164 0.15924 0.53508 0.0
C1312 C 0.81082 0.16487 0.39532 0.0
C1313 C 0.93774 0.2728 0.52365 0.0
H1314 H 0.95977 0.49844 0.35627 0.0
H1315 H 0.00739 0.40047 0.18551 0.0
H1316 H 0.95212 0.51156 0.25188 0.0
H1317 H 0.95729 0.54227 0.26693 0.0
H1318 H 0.0161 0.56908 0.25539 0.0
H1319 H 0.01096 0.53818 0.2416 0.0
H1320 H 0.94824 0.47242 0.27374 0.0
H1321 H 0.94759 0.47908 0.30852 0.0
H1322 H 0.00584 0.52452 0.31098 0.0
H1323 H 0.00635 0.51754 0.27628 0.0
H1324 H 0.95079 0.43595 0.24883 0.0
H1325 H 0.95513 0.41278 0.26716 0.0
H1326 H 0.00995 0.45849 0.29103 0.0
H1327 H 0.00604 0.48111 0.27138 0.0
H1328 H 0.95027 0.43411 0.20931 0.0
H1329 H 0.95446 0.40802 0.19516 0.0
H1330 H 0.0146 0.44232 0.21032 0.0
H1331 H 0.01018 0.46827 0.22436 0.0
H1332 H 0.95199 0.45888 0.1822 0.0
H1333 H 0.95882 0.44358 0.15469 0.0
H1334 H 0.0184 0.48317 0.16769 0.0
H1335 H 0.01149 0.4981 0.19525 0.0
H1336 H 0.9487 0.49788 0.19669 0.0
H1337 H 0.94903 0.52109 0.17414 0.0
H1338 H 0.00957 0.55521 0.18516 0.0
H1339 H 0.00927 0.53157 0.20691 0.0
O1340 O 0.96034 0.49602 0.34255 0.0
O1341 O 0.99026 0.5193 0.343 0.0
O1342 O 0.97414 0.39281 0.18494 0.0
O1343 O 0.00524 0.41025 0.19163 0.0
C1344 C 0.97859 0.50387 0.23799 0.0
C1345 C 0.97754 0.49049 0.25138 0.0
C1346 C 0.97709 0.47333 0.2447 0.0
C1347 C 0.97767 0.46959 0.22468 0.0
C1348 C 0.97823 0.4827 0.21125 0.0
C1349 C 0.97858 0.49977 0.21786 0.0
C1350 C 0.98108 0.52276 0.24531 0.0
C1351 C 0.96604 0.52416 0.25247 0.0
C1352 C 0.96904 0.54174 0.26099 0.0
C1353 C 0.98714 0.5582 0.26242 0.0
C1354 C 0.00204 0.5567 0.25484 0.0
C1355 C 0.99907 0.53912 0.24658 0.0
C1356 C 0.97727 0.49461 0.27248 0.0
C1357 C 0.96084 0.48379 0.28184 0.0
C1358 C 0.96051 0.48764 0.30169 0.0
C1359 C 0.97665 0.50238 0.31253 0.0
C1360 C 0.99314 0.51312 0.30307 0.0
C1361 C 0.99345 0.50922 0.28323 0.0
C1362 C 0.97815 0.46018 0.25866 0.0
C1363 C 0.96366 0.44094 0.25816 0.0
C1364 C 0.96613 0.42774 0.2688 0.0
C1365 C 0.98302 0.43365 0.28043 0.0
C1366 C 0.99697 0.45327 0.28184 0.0
C1367 C 0.99464 0.46634 0.27089 0.0
C1368 C 0.97992 0.45302 0.21784 0.0
C1369 C 0.96429 0.43584 0.20974 0.0
C1370 C 0.96674 0.42101 0.20162 0.0
C1371 C 0.98489 0.42314 0.20152 0.0
C1372 C 0.00045 0.44023 0.21011 0.0
C1373 C 0.99797 0.45503 0.21822 0.0
C1374 C 0.98127 0.47945 0.19079 0.0
C1375 C 0.96643 0.46486 0.17847 0.0
C1376 C 0.97036 0.45607 0.16285 0.0
C1377 C 0.98916 0.46189 0.15944 0.0
C1378 C 0.0038 0.47817 0.17028 0.0
C1379 C 0.99987 0.48691 0.18584 0.0
C1380 C 0.97892 0.51331 0.2037 0.0
C1381 C 0.96202 0.51031 0.1941 0.0
C1382 C 0.96222 0.52349 0.18128 0.0
C1383 C 0.97929 0.53996 0.17821 0.0
C1384 C 0.99622 0.54272 0.18756 0.0
C1385 C 0.99606 0.52933 0.2 0.0
C1386 C 0.97624 0.50647 0.3336 0.0
C1387 C 0.98768 0.40776 0.19223 0.0
H1388 H 0.5138 0.52397 0.36147 0.0
H1389 H 0.38138 0.3718 0.19733 0.0
H1390 H 0.51841 0.53405 0.24538 0.0
H1391 H 0.54794 0.55994 0.26201 0.0
H1392 H 0.56473 0.51826 0.2766 0.0
H1393 H 0.53543 0.49252 0.25938 0.0
H1394 H 0.48813 0.51038 0.27869 0.0
H1395 H 0.49689 0.51987 0.31349 0.0
H1396 H 0.51765 0.47962 0.31715 0.0
H1397 H 0.50885 0.47033 0.28233 0.0
H1398 H 0.44346 0.46958 0.25954 0.0
H1399 H 0.41996 0.44852 0.28089 0.0
H1400 H 0.45318 0.42103 0.29297 0.0
H1401 H 0.47616 0.44167 0.27113 0.0
H1402 H 0.44056 0.46655 0.21195 0.0
H1403 H 0.40977 0.43967 0.19935 0.0
H1404 H 0.42697 0.39946 0.21867 0.0
H1405 H 0.45776 0.42647 0.23098 0.0
H1406 H 0.47396 0.49586 0.19106 0.0
H1407 H 0.46379 0.48725 0.15638 0.0
H1408 H 0.47003 0.43682 0.15992 0.0
H1409 H 0.48023 0.44562 0.19464 0.0
H1410 H 0.50631 0.52438 0.20792 0.0
H1411 H 0.52963 0.54328 0.18536 0.0
H1412 H 0.5497 0.50237 0.18533 0.0
H1413 H 0.5265 0.48376 0.20807 0.0
O1414 O 0.51033 0.51992 0.34777 0.0
O1415 O 0.52079 0.499 0.34888 0.0
O1416 O 0.38531 0.40397 0.19244 0.0
O1417 O 0.39342 0.3827 0.2022 0.0
C1418 C 0.50594 0.49558 0.24367 0.0
C1419 C 0.49294 0.48442 0.25691 0.0
C1420 C 0.47507 0.46897 0.24996 0.0
C1421 C 0.4701 0.46477 0.22974 0.0
C1422 C 0.48303 0.47609 0.2165 0.0
C1423 C 0.50094 0.49152 0.22348 0.0
C1424 C 0.52483 0.51146 0.25121 0.0
C1425 C 0.52872 0.53062 0.25166 0.0
C1426 C 0.54554 0.54534 0.26116 0.0
C1427 C 0.55852 0.54102 0.2706 0.0
C1428 C 0.55489 0.52191 0.26949 0.0
C1429 C 0.53824 0.50726 0.25968 0.0
C1430 C 0.49776 0.48961 0.2781 0.0
C1431 C 0.49449 0.50358 0.28709 0.0
C1432 C 0.49953 0.50898 0.30694 0.0
C1433 C 0.50796 0.50049 0.31811 0.0
C1434 C 0.51116 0.48642 0.30899 0.0
C1435 C 0.5061 0.48104 0.28914 0.0
C1436 C 0.46151 0.45716 0.26387 0.0
C1437 C 0.44567 0.45908 0.26694 0.0
C1438 C 0.43236 0.44715 0.27923 0.0
C1439 C 0.43469 0.43308 0.28862 0.0
C1440 C 0.45085 0.43156 0.2858 0.0
C1441 C 0.46408 0.44344 0.27348 0.0
C1442 C 0.45134 0.44844 0.22239 0.0
C1443 C 0.43764 0.45192 0.21341 0.0
C1444 C 0.42007 0.43655 0.20626 0.0
C1445 C 0.4159 0.4174 0.20801 0.0
C1446 C 0.4297 0.41401 0.21709 0.0
C1447 C 0.44728 0.4294 0.22419 0.0
C1448 C 0.47792 0.47142 0.19528 0.0
C1449 C 0.4734 0.48313 0.18425 0.0
C1450 C 0.46762 0.47819 0.16447 0.0
C1451 C 0.46613 0.46136 0.15543 0.0
C1452 C 0.47088 0.44978 0.16652 0.0
C1453 C 0.47678 0.4548 0.18629 0.0
C1454 C 0.51482 0.50279 0.20963 0.0
C1455 C 0.51576 0.51954 0.20299 0.0
C1456 C 0.52898 0.53022 0.19003 0.0
C1457 C 0.54154 0.52434 0.18359 0.0
C1458 C 0.5404 0.50742 0.19021 0.0
C1459 C 0.52714 0.49673 0.20312 0.0
C1460 C 0.51343 0.50637 0.33917 0.0
C1461 C 0.39728 0.40102 0.20039 0.0
H1462 H 0.51497 0.9911 0.37322 0.0
H1463 H 0.37477 0.97543 0.1957 0.0
H1464 H 0.5324 0.03144 0.27909 0.0
H1465 H 0.55718 0.02983 0.29915 0.0
H1466 H 0.54172 0.97499 0.26927 0.0
H1467 H 0.51642 0.97628 0.24973 0.0
H1468 H 0.50098 0.02055 0.30178 0.0
H1469 H 0.5078 0.01334 0.33435 0.0
H1470 H 0.49322 0.95602 0.31175 0.0
H1471 H 0.48633 0.96342 0.27928 0.0
H1472 H 0.46785 0.01664 0.2909 0.0
H1473 H 0.44318 0.00478 0.31369 0.0
H1474 H 0.41834 0.94767 0.28466 0.0
H1475 H 0.44326 0.95962 0.26224 0.0
H1476 H 0.45419 0.02132 0.25447 0.0
H1477 H 0.42369 0.01761 0.24279 0.0
H1478 H 0.41379 0.96959 0.20325 0.0
H1479 H 0.4442 0.9733 0.21525 0.0
H1480 H 0.47929 0.03548 0.22228 0.0
H1481 H 0.47033 0.04302 0.19155 0.0
H1482 H 0.47752 0.99815 0.16246 0.0
H1483 H 0.48295 0.98868 0.19381 0.0
H1484 H 0.53007 0.04084 0.22698 0.0
H1485 H 0.55208 0.04665 0.20203 0.0
H1486 H 0.52583 0.98502 0.1883 0.0
H1487 H 0.50527 0.97964 0.21424 0.0
O1488 O 0.51183 0.99351 0.36031 0.0
O1489 O 0.5041 0.96418 0.34799 0.0
O1490 O 0.39253 0.0018 0.22139 0.0
O1491 O 0.38683 0.97713 0.20069 0.0
C1492 C 0.50456 0.00239 0.25549 0.0
C1493 C 0.49017 0.99728 0.26831 0.0
C1494 C 0.47284 0.99583 0.26191 0.0
C1495 C 0.46996 0.99988 0.24274 0.0
C1496 C 0.4845 0.00546 0.22994 0.0
C1497 C 0.50162 0.00609 0.23619 0.0
C1498 C 0.52269 0.00403 0.2629 0.0
C1499 C 0.53478 0.01939 0.27641 0.0
C1500 C 0.54879 0.0184 0.28793 0.0
C1501 C 0.55118 0.00224 0.28575 0.0
C1502 C 0.54016 0.98764 0.27107 0.0
C1503 C 0.52586 0.98844 0.25981 0.0
C1504 C 0.49304 0.99245 0.28827 0.0
C1505 C 0.49903 0.00637 0.30397 0.0
C1506 C 0.50301 0.00225 0.32252 0.0
C1507 C 0.50108 0.98411 0.32565 0.0
C1508 C 0.49485 0.97012 0.30985 0.0
C1509 C 0.49085 0.97427 0.29132 0.0
C1510 C 0.45735 0.98894 0.27503 0.0
C1511 C 0.45703 0.00159 0.28949 0.0
C1512 C 0.44288 0.99481 0.30239 0.0
C1513 C 0.42886 0.97525 0.30106 0.0
C1514 C 0.4291 0.96274 0.28628 0.0
C1515 C 0.44322 0.96954 0.27338 0.0
C1516 C 0.45135 0.99751 0.23578 0.0
C1517 C 0.44533 0.0099 0.24342 0.0
C1518 C 0.42795 0.0078 0.23665 0.0
C1519 C 0.41629 0.99329 0.22208 0.0
C1520 C 0.4224 0.9809 0.21448 0.0
C1521 C 0.43977 0.983 0.22129 0.0
C1522 C 0.48193 0.01159 0.21045 0.0
C1523 C 0.47881 0.02723 0.2092 0.0
C1524 C 0.47397 0.03175 0.19128 0.0
C1525 C 0.47304 0.02135 0.17381 0.0
C1526 C 0.47737 0.00636 0.17519 0.0
C1527 C 0.48116 0.00118 0.19328 0.0
C1528 C 0.51608 0.00983 0.22232 0.0
C1529 C 0.52944 0.02867 0.21877 0.0
C1530 C 0.54184 0.03191 0.20429 0.0
C1531 C 0.54079 0.01635 0.19279 0.0
C1532 C 0.52756 0.99747 0.19692 0.0
C1533 C 0.5156 0.99429 0.21171 0.0
C1534 C 0.50572 0.97992 0.34529 0.0
C1535 C 0.39786 0.99106 0.21476 0.0
H1536 H 0.50079 0.04147 0.7154 0.0
H1537 H 0.58999 0.95261 0.84267 0.0
H1538 H 0.49335 0.02903 0.82027 0.0
H1539 H 0.46955 0.03751 0.8097 0.0
H1540 H 0.42699 0.9772 0.80434 0.0
H1541 H 0.45111 0.96884 0.81493 0.0
H1542 H 0.5235 0.02937 0.79297 0.0
H1543 H 0.51881 0.03967 0.76128 0.0
H1544 H 0.4676 0.98495 0.74827 0.0
H1545 H 0.47261 0.97473 0.77991 0.0
H1546 H 0.55379 0.01836 0.81373 0.0
H1547 H 0.57584 0.02354 0.78896 0.0
H1548 H 0.53092 0.97731 0.75161 0.0
H1549 H 0.50904 0.97163 0.77682 0.0
H1550 H 0.55164 0.00883 0.85429 0.0
H1551 H 0.57749 0.00237 0.86184 0.0
H1552 H 0.54834 0.94967 0.82433 0.0
H1553 H 0.52244 0.95618 0.81712 0.0
H1554 H 0.52227 0.01168 0.87627 0.0
H1555 H 0.53471 0.00838 0.90789 0.0
H1556 H 0.51424 0.94811 0.89146 0.0
H1557 H 0.5026 0.9519 0.85948 0.0
H1558 H 0.48764 0.01669 0.85947 0.0
H1559 H 0.46719 0.01375 0.8852 0.0
H1560 H 0.4476 0.95265 0.88408 0.0
H1561 H 0.46748 0.95565 0.85766 0.0
O1562 O 0.50243 0.03706 0.72782 0.0
O1563 O 0.4761 0.00878 0.72194 0.0
O1564 O 0.59426 0.98264 0.85922 0.0
O1565 O 0.57994 0.95549 0.83997 0.0
C1566 C 0.48893 0.99345 0.82257 0.0
C1567 C 0.50119 0.9952 0.80807 0.0
C1568 C 0.51637 0.99177 0.81218 0.0
C1569 C 0.51928 0.98668 0.8309 0.0
C1570 C 0.50716 0.9852 0.84546 0.0
C1571 C 0.49179 0.98827 0.84123 0.0
C1572 C 0.4739 0.99835 0.81836 0.0
C1573 C 0.47883 0.01769 0.81712 0.0
C1574 C 0.4652 0.02248 0.81116 0.0
C1575 C 0.44639 0.008 0.80624 0.0
C1576 C 0.4414 0.98863 0.80796 0.0
C1577 C 0.45507 0.98384 0.81411 0.0
C1578 C 0.49842 0.00131 0.7887 0.0
C1579 C 0.51134 0.0196 0.7832 0.0
C1580 C 0.5086 0.02546 0.76512 0.0
C1581 C 0.49282 0.01314 0.75224 0.0
C1582 C 0.47989 0.99479 0.75784 0.0
C1583 C 0.4827 0.98893 0.7759 0.0
C1584 C 0.5298 0.99451 0.79719 0.0
C1585 C 0.54876 0.00911 0.80036 0.0
C1586 C 0.56132 0.01209 0.78619 0.0
C1587 C 0.55506 0.00081 0.7684 0.0
C1588 C 0.53606 0.98626 0.76517 0.0
C1589 C 0.52358 0.98301 0.77953 0.0
C1590 C 0.53511 0.98289 0.83529 0.0
C1591 C 0.5508 0.99583 0.84784 0.0
C1592 C 0.56558 0.99214 0.85206 0.0
C1593 C 0.56497 0.97548 0.84371 0.0
C1594 C 0.54925 0.96262 0.83103 0.0
C1595 C 0.53445 0.9663 0.82687 0.0
C1596 C 0.51167 0.98206 0.8656 0.0
C1597 C 0.52019 0.99769 0.87968 0.0
C1598 C 0.52721 0.99573 0.8978 0.0
C1599 C 0.52566 0.97801 0.90223 0.0
C1600 C 0.51605 0.96207 0.88841 0.0
C1601 C 0.50923 0.96413 0.8702 0.0
C1602 C 0.47895 0.98637 0.85655 0.0
C1603 C 0.47871 0.00263 0.86458 0.0
C1604 C 0.46717 0.00093 0.87948 0.0
C1605 C 0.45577 0.98295 0.88685 0.0
C1606 C 0.45598 0.96666 0.87864 0.0
C1607 C 0.46743 0.96837 0.86363 0.0
C1608 C 0.48988 0.01945 0.73308 0.0
C1609 C 0.58063 0.97149 0.84815 0.0
H1610 H 0.99662 0.47414 0.71407 0.0
H1611 H 0.02719 0.62705 0.88393 0.0
H1612 H 0.99142 0.46118 0.83172 0.0
H1613 H 0.99321 0.43393 0.81661 0.0
H1614 H 0.0498 0.47291 0.80204 0.0
H1615 H 0.04799 0.50004 0.81742 0.0
H1616 H 0.98715 0.48349 0.79645 0.0
H1617 H 0.98567 0.47517 0.76165 0.0
H1618 H 0.0432 0.52125 0.76005 0.0
H1619 H 0.04452 0.52927 0.79491 0.0
H1620 H 0.98217 0.52481 0.81388 0.0
H1621 H 0.97692 0.54759 0.79595 0.0
H1622 H 0.03676 0.58081 0.78918 0.0
H1623 H 0.04188 0.55829 0.8081 0.0
H1624 H 0.9848 0.53271 0.85829 0.0
H1625 H 0.98318 0.56061 0.87172 0.0
H1626 H 0.04207 0.5974 0.86278 0.0
H1627 H 0.04351 0.56932 0.84956 0.0
H1628 H 0.98588 0.50356 0.88093 0.0
H1629 H 0.98386 0.51453 0.91386 0.0
H1630 H 0.04306 0.55725 0.91708 0.0
H1631 H 0.04505 0.54587 0.88422 0.0
H1632 H 0.98643 0.47412 0.86695 0.0
H1633 H 0.98607 0.45666 0.89542 0.0
H1634 H 0.04688 0.48458 0.89911 0.0
H1635 H 0.0472 0.50255 0.87088 0.0
O1636 O 0.9975 0.47771 0.72781 0.0
O1637 O 0.02708 0.50162 0.72774 0.0
O1638 O 0.99712 0.59628 0.88268 0.0
O1639 O 0.02735 0.61582 0.87838 0.0
C1640 C 0.01779 0.49931 0.83275 0.0
C1641 C 0.01679 0.51172 0.81927 0.0
C1642 C 0.01551 0.52791 0.82592 0.0
C1643 C 0.01549 0.53191 0.84597 0.0
C1644 C 0.01611 0.51939 0.85936 0.0
C1645 C 0.017 0.50295 0.85275 0.0
C1646 C 0.0196 0.48256 0.82571 0.0
C1647 C 0.00437 0.46376 0.82571 0.0
C1648 C 0.00541 0.44823 0.81707 0.0
C1649 C 0.02163 0.45133 0.8081 0.0
C1650 C 0.03708 0.47013 0.8087 0.0
C1651 C 0.03609 0.4856 0.81751 0.0
C1652 C 0.01589 0.50705 0.79811 0.0
C1653 C 0.99939 0.49178 0.78852 0.0
C1654 C 0.99859 0.48706 0.76866 0.0
C1655 C 0.0143 0.49757 0.75805 0.0
C1656 C 0.03083 0.5129 0.76777 0.0
C1657 C 0.0316 0.51757 0.78764 0.0
C1658 C 0.01235 0.53983 0.81206 0.0
C1659 C 0.99406 0.5368 0.80815 0.0
C1660 C 0.99112 0.54983 0.79784 0.0
C1661 C 0.00643 0.56609 0.7911 0.0
C1662 C 0.02469 0.5686 0.79439 0.0
C1663 C 0.02763 0.55563 0.80492 0.0
C1664 C 0.01427 0.54904 0.85301 0.0
C1665 C 0.9973 0.54683 0.85921 0.0
C1666 C 0.99643 0.56278 0.86687 0.0
C1667 C 0.01253 0.58124 0.86839 0.0
C1668 C 0.02943 0.5834 0.86186 0.0
C1669 C 0.03029 0.56741 0.85424 0.0
C1670 C 0.01568 0.52372 0.88035 0.0
C1671 C 0.99856 0.51478 0.88903 0.0
C1672 C 0.99741 0.52113 0.90777 0.0
C1673 C 0.0133 0.53676 0.91795 0.0
C1674 C 0.03059 0.54524 0.90948 0.0
C1675 C 0.03179 0.53869 0.89083 0.0
C1676 C 0.01684 0.48963 0.86702 0.0
C1677 C 0.99964 0.47618 0.87367 0.0
C1678 C 0.99945 0.4663 0.88988 0.0
C1679 C 0.01645 0.46947 0.89938 0.0
C1680 C 0.03362 0.48192 0.89189 0.0
C1681 C 0.03382 0.4921 0.87583 0.0
C1682 C 0.01342 0.49249 0.73696 0.0
C1683 C 0.01179 0.59818 0.8769 0.0
H1684 H 0.47651 0.50576 0.69901 0.0
H1685 H 0.62921 0.62705 0.85885 0.0
H1686 H 0.46353 0.51029 0.79916 0.0
H1687 H 0.43558 0.48029 0.78598 0.0
H1688 H 0.45787 0.44763 0.81429 0.0
H1689 H 0.48601 0.47766 0.82678 0.0
H1690 H 0.49611 0.54179 0.77847 0.0
H1691 H 0.48706 0.53118 0.74392 0.0
H1692 H 0.49666 0.48332 0.75245 0.0
H1693 H 0.50587 0.49423 0.78694 0.0
H1694 H 0.52787 0.57491 0.79918 0.0
H1695 H 0.55138 0.59664 0.77842 0.0
H1696 H 0.57328 0.55738 0.77303 0.0
H1697 H 0.54905 0.53535 0.79311 0.0
H1698 H 0.5351 0.58204 0.84679 0.0
H1699 H 0.56517 0.6111 0.85709 0.0
H1700 H 0.59492 0.58092 0.8417 0.0
H1701 H 0.56474 0.55194 0.83165 0.0
H1702 H 0.50525 0.55325 0.87256 0.0
H1703 H 0.51845 0.56556 0.9062 0.0
H1704 H 0.55804 0.54501 0.89987 0.0
H1705 H 0.54457 0.53256 0.86652 0.0
H1706 H 0.46482 0.515 0.84433 0.0
H1707 H 0.44233 0.49564 0.86709 0.0
H1708 H 0.48331 0.48182 0.89262 0.0
H1709 H 0.50509 0.50001 0.86879 0.0
O1710 O 0.48028 0.50978 0.71268 0.0
O1711 O 0.48537 0.4854 0.71784 0.0
O1712 O 0.60117 0.63062 0.86266 0.0
O1713 O 0.61713 0.61576 0.85494 0.0
C1714 C 0.49465 0.51421 0.82018 0.0
C1715 C 0.50685 0.5251 0.80617 0.0
C1716 C 0.52413 0.54181 0.81218 0.0
C1717 C 0.52952 0.54739 0.83217 0.0
C1718 C 0.51752 0.53641 0.84623 0.0
C1719 C 0.49985 0.52002 0.84026 0.0
C1720 C 0.47685 0.49613 0.81378 0.0
C1721 C 0.46229 0.49663 0.80257 0.0
C1722 C 0.44628 0.47949 0.7952 0.0
C1723 C 0.44457 0.46158 0.79898 0.0
C1724 C 0.4589 0.46119 0.81085 0.0
C1725 C 0.47491 0.47831 0.81813 0.0
C1726 C 0.50168 0.51881 0.78516 0.0
C1727 C 0.49637 0.52911 0.77281 0.0
C1728 C 0.49115 0.52297 0.7531 0.0
C1729 C 0.49113 0.50639 0.74542 0.0
C1730 C 0.49652 0.49614 0.75789 0.0
C1731 C 0.50178 0.50233 0.77758 0.0
C1732 C 0.53684 0.55364 0.79765 0.0
C1733 C 0.53752 0.57087 0.79316 0.0
C1734 C 0.55109 0.58332 0.78145 0.0
C1735 C 0.56446 0.57893 0.77427 0.0
C1736 C 0.56314 0.56118 0.77813 0.0
C1737 C 0.54938 0.5486 0.78967 0.0
C1738 C 0.54779 0.56496 0.83843 0.0
C1739 C 0.54814 0.58176 0.8457 0.0
C1740 C 0.56533 0.59832 0.85154 0.0
C1741 C 0.58246 0.59834 0.85019 0.0
C1742 C 0.582 0.58142 0.84291 0.0
C1743 C 0.5648 0.56486 0.83711 0.0
C1744 C 0.52397 0.54203 0.86716 0.0
C1745 C 0.51655 0.55116 0.87861 0.0
C1746 C 0.5242 0.55829 0.89773 0.0
C1747 C 0.53933 0.5563 0.90568 0.0
C1748 C 0.54625 0.54657 0.8943 0.0
C1749 C 0.53866 0.53953 0.87521 0.0
C1750 C 0.48665 0.50899 0.8549 0.0
C1751 C 0.46888 0.50769 0.8548 0.0
C1752 C 0.4561 0.49675 0.86798 0.0
C1753 C 0.46092 0.48711 0.88181 0.0
C1754 C 0.4789 0.48871 0.88202 0.0
C1755 C 0.49153 0.49938 0.86858 0.0
C1756 C 0.48544 0.49983 0.72451 0.0
C1757 C 0.60076 0.61591 0.85632 0.0
H1758 H 0.60948 0.83026 0.68342 0.0
H1759 H 0.64796 0.70821 0.54354 0.0
H1760 H 0.60732 0.83709 0.57988 0.0
H1761 H 0.61263 0.86887 0.59154 0.0
H1762 H 0.67022 0.89468 0.57602 0.0
H1763 H 0.66506 0.86287 0.56546 0.0
H1764 H 0.60194 0.79836 0.60359 0.0
H1765 H 0.59973 0.8073 0.63727 0.0
H1766 H 0.65667 0.85533 0.63917 0.0
H1767 H 0.65879 0.84609 0.60561 0.0
H1768 H 0.60851 0.76123 0.58589 0.0
H1769 H 0.61647 0.74291 0.60868 0.0
H1770 H 0.66901 0.79446 0.62737 0.0
H1771 H 0.66162 0.81232 0.60401 0.0
H1772 H 0.60397 0.75973 0.53895 0.0
H1773 H 0.60397 0.72954 0.53145 0.0
H1774 H 0.66079 0.7551 0.55883 0.0
H1775 H 0.66071 0.78526 0.56594 0.0
H1776 H 0.60706 0.7936 0.51203 0.0
H1777 H 0.60816 0.78094 0.47943 0.0
H1778 H 0.66378 0.78986 0.49631 0.0
H1779 H 0.66272 0.80291 0.52847 0.0
H1780 H 0.61336 0.83759 0.53136 0.0
H1781 H 0.62343 0.86334 0.50892 0.0
H1782 H 0.67699 0.86497 0.50716 0.0
H1783 H 0.66715 0.83997 0.52994 0.0
O1784 O 0.61067 0.82697 0.67012 0.0
O1785 O 0.63994 0.85155 0.6703 0.0
O1786 O 0.61866 0.70774 0.53166 0.0
O1787 O 0.64764 0.72003 0.54612 0.0
C1788 C 0.63332 0.82828 0.56669 0.0
C1789 C 0.63161 0.81605 0.58164 0.0
C1790 C 0.63174 0.79868 0.57731 0.0
C1791 C 0.63212 0.79284 0.55782 0.0
C1792 C 0.63338 0.80483 0.54284 0.0
C1793 C 0.63457 0.8228 0.54731 0.0
C1794 C 0.63578 0.84767 0.57176 0.0
C1795 C 0.62102 0.84967 0.57888 0.0
C1796 C 0.62405 0.86785 0.58541 0.0
C1797 C 0.64189 0.88433 0.58483 0.0
C1798 C 0.65641 0.88228 0.577 0.0
C1799 C 0.65342 0.86413 0.5707 0.0
C1800 C 0.63042 0.8217 0.60208 0.0
C1801 C 0.61391 0.81081 0.61131 0.0
C1802 C 0.61268 0.81596 0.63054 0.0
C1803 C 0.62799 0.83208 0.6409 0.0
C1804 C 0.64458 0.84289 0.6316 0.0
C1805 C 0.6458 0.8377 0.61239 0.0
C1806 C 0.63445 0.78816 0.59333 0.0
C1807 C 0.62161 0.76859 0.5951 0.0
C1808 C 0.62616 0.75816 0.60802 0.0
C1809 C 0.6433 0.76736 0.61973 0.0
C1810 C 0.65561 0.78713 0.61864 0.0
C1811 C 0.65133 0.79737 0.60541 0.0
C1812 C 0.63227 0.7746 0.55312 0.0
C1813 C 0.61641 0.75877 0.54325 0.0
C1814 C 0.61645 0.74156 0.53902 0.0
C1815 C 0.63237 0.73988 0.54462 0.0
C1816 C 0.64829 0.75587 0.55436 0.0
C1817 C 0.64827 0.7731 0.55849 0.0
C1818 C 0.63474 0.79898 0.52259 0.0
C1819 C 0.61956 0.79306 0.5085 0.0
C1820 C 0.62018 0.78574 0.48999 0.0
C1821 C 0.63602 0.78432 0.48531 0.0
C1822 C 0.65147 0.79097 0.49932 0.0
C1823 C 0.65084 0.79828 0.51776 0.0
C1824 C 0.63949 0.83685 0.5322 0.0
C1825 C 0.62719 0.84344 0.52595 0.0
C1826 C 0.63293 0.85807 0.51312 0.0
C1827 C 0.65108 0.86632 0.50644 0.0
C1828 C 0.66306 0.85918 0.5123 0.0
C1829 C 0.65736 0.84469 0.52511 0.0
C1830 C 0.62664 0.83751 0.66131 0.0
C1831 C 0.63241 0.72156 0.54037 0.0
H1832 H 0.1636 0.84782 0.70728 0.0
H1833 H 0.06351 0.70191 0.53323 0.0
H1834 H 0.16887 0.86539 0.6045 0.0
H1835 H 0.19339 0.8934 0.62454 0.0
H1836 H 0.23389 0.87536 0.61215 0.0
H1837 H 0.20912 0.84721 0.59207 0.0
H1838 H 0.13888 0.83184 0.62425 0.0
H1839 H 0.14469 0.83933 0.6595 0.0
H1840 H 0.19239 0.82979 0.65934 0.0
H1841 H 0.18626 0.82211 0.62411 0.0
H1842 H 0.10826 0.8004 0.59666 0.0
H1843 H 0.08445 0.77802 0.61686 0.0
H1844 H 0.1224 0.75775 0.63591 0.0
H1845 H 0.14617 0.78022 0.61557 0.0
H1846 H 0.10917 0.79759 0.5507 0.0
H1847 H 0.0818 0.76806 0.53579 0.0
H1848 H 0.10592 0.73466 0.55861 0.0
H1849 H 0.13331 0.76434 0.57323 0.0
H1850 H 0.14196 0.83228 0.53356 0.0
H1851 H 0.13325 0.82373 0.49868 0.0
H1852 H 0.14611 0.77758 0.50252 0.0
H1853 H 0.15513 0.78649 0.53744 0.0
H1854 H 0.16958 0.86437 0.55723 0.0
H1855 H 0.18688 0.88441 0.53136 0.0
H1856 H 0.21372 0.85005 0.52307 0.0
H1857 H 0.19607 0.82981 0.54867 0.0
O1858 O 0.16145 0.84465 0.69336 0.0
O1859 O 0.18588 0.83965 0.69247 0.0
O1860 O 0.06243 0.73165 0.5275 0.0
O1861 O 0.07414 0.7138 0.53903 0.0
C1862 C 0.17153 0.83565 0.58806 0.0
C1863 C 0.15883 0.82225 0.60022 0.0
C1864 C 0.14295 0.80512 0.59198 0.0
C1865 C 0.14002 0.80107 0.57162 0.0
C1866 C 0.15291 0.81426 0.55945 0.0
C1867 C 0.16865 0.83161 0.56769 0.0
C1868 C 0.18723 0.85427 0.59693 0.0
C1869 C 0.18312 0.86769 0.60581 0.0
C1870 C 0.19708 0.88355 0.61738 0.0
C1871 C 0.21546 0.88636 0.62015 0.0
C1872 C 0.21984 0.87354 0.61024 0.0
C1873 C 0.20577 0.85753 0.59875 0.0
C1874 C 0.16209 0.82634 0.62168 0.0
C1875 C 0.15047 0.83121 0.6319 0.0
C1876 C 0.15387 0.83556 0.65201 0.0
C1877 C 0.16901 0.83516 0.66224 0.0
C1878 C 0.18061 0.83023 0.65191 0.0
C1879 C 0.17715 0.82583 0.63181 0.0
C1880 C 0.12885 0.79183 0.60463 0.0
C1881 C 0.11143 0.79117 0.60527 0.0
C1882 C 0.09793 0.77851 0.61691 0.0
C1883 C 0.1016 0.76619 0.62799 0.0
C1884 C 0.11917 0.76701 0.62743 0.0
C1885 C 0.13274 0.77982 0.6159 0.0
C1886 C 0.12322 0.78308 0.56298 0.0
C1887 C 0.10852 0.78388 0.55242 0.0
C1888 C 0.0929 0.76699 0.54395 0.0
C1889 C 0.09169 0.74899 0.54599 0.0
C1890 C 0.10641 0.74827 0.55674 0.0
C1891 C 0.12204 0.76518 0.56515 0.0
C1892 C 0.14934 0.81013 0.53799 0.0
C1893 C 0.14334 0.82064 0.52678 0.0
C1894 C 0.13834 0.8157 0.50688 0.0
C1895 C 0.13899 0.79998 0.49788 0.0
C1896 C 0.14534 0.78968 0.5091 0.0
C1897 C 0.15056 0.79479 0.52898 0.0
C1898 C 0.1816 0.84568 0.55476 0.0
C1899 C 0.17952 0.86146 0.55012 0.0
C1900 C 0.18929 0.87279 0.53532 0.0
C1901 C 0.20155 0.86869 0.52524 0.0
C1902 C 0.20446 0.85357 0.53074 0.0
C1903 C 0.19442 0.84204 0.5453 0.0
C1904 C 0.17268 0.83994 0.68359 0.0
C1905 C 0.07518 0.73102 0.53693 0.0
H1906 H 0.19545 0.35651 0.70462 0.0
H1907 H 0.04289 0.31607 0.54121 0.0
H1908 H 0.20784 0.38282 0.60714 0.0
H1909 H 0.23425 0.38312 0.62593 0.0
H1910 H 0.22126 0.32934 0.59525 0.0
H1911 H 0.1946 0.32894 0.57672 0.0
H1912 H 0.17219 0.3725 0.62926 0.0
H1913 H 0.18163 0.3705 0.66294 0.0
H1914 H 0.18161 0.31786 0.64583 0.0
H1915 H 0.17186 0.31987 0.61229 0.0
H1916 H 0.13527 0.36596 0.61107 0.0
H1917 H 0.11184 0.35488 0.63527 0.0
H1918 H 0.10504 0.2978 0.62734 0.0
H1919 H 0.12888 0.30924 0.60393 0.0
H1920 H 0.13524 0.37436 0.56359 0.0
H1921 H 0.10426 0.36998 0.5528 0.0
H1922 H 0.07953 0.30851 0.55673 0.0
H1923 H 0.11064 0.3131 0.56729 0.0
H1924 H 0.16825 0.38319 0.53934 0.0
H1925 H 0.15575 0.3855 0.50705 0.0
H1926 H 0.12201 0.32345 0.49966 0.0
H1927 H 0.13442 0.32128 0.532 0.0
H1928 H 0.20972 0.38523 0.55965 0.0
H1929 H 0.23125 0.38894 0.53462 0.0
H1930 H 0.19183 0.3312 0.50997 0.0
H1931 H 0.17111 0.32737 0.5355 0.0
O1932 O 0.19137 0.35682 0.69129 0.0
O1933 O 0.19146 0.33 0.68166 0.0
O1934 O 0.06873 0.34991 0.54358 0.0
O1935 O 0.0553 0.31822 0.54548 0.0
C1936 C 0.18032 0.35278 0.58403 0.0
C1937 C 0.16671 0.34824 0.59776 0.0
C1938 C 0.14854 0.34504 0.59188 0.0
C1939 C 0.14403 0.34679 0.57237 0.0
C1940 C 0.15741 0.35086 0.55853 0.0
C1941 C 0.1755 0.35358 0.56426 0.0
C1942 C 0.19922 0.35579 0.59069 0.0
C1943 C 0.21109 0.37145 0.604 0.0
C1944 C 0.22607 0.37154 0.61479 0.0
C1945 C 0.22959 0.35613 0.61219 0.0
C1946 C 0.21887 0.34143 0.59746 0.0
C1947 C 0.20371 0.34122 0.58682 0.0
C1948 C 0.1714 0.34637 0.61836 0.0
C1949 C 0.17404 0.36045 0.63288 0.0
C1950 C 0.17952 0.35931 0.65207 0.0
C1951 C 0.18246 0.34406 0.65706 0.0
C1952 C 0.17951 0.32982 0.64248 0.0
C1953 C 0.17395 0.33093 0.62332 0.0
C1954 C 0.13382 0.33841 0.60591 0.0
C1955 C 0.12866 0.35108 0.61464 0.0
C1956 C 0.11521 0.34468 0.62836 0.0
C1957 C 0.10666 0.32547 0.63345 0.0
C1958 C 0.11164 0.31279 0.6242 0.0
C1959 C 0.12515 0.31923 0.61069 0.0
C1960 C 0.12513 0.34406 0.56628 0.0
C1961 C 0.1231 0.35998 0.56212 0.0
C1962 C 0.10539 0.35743 0.55597 0.0
C1963 C 0.0894 0.33888 0.55393 0.0
C1964 C 0.09153 0.32298 0.55818 0.0
C1965 C 0.10926 0.32555 0.56428 0.0
C1966 C 0.15218 0.35209 0.53796 0.0
C1967 C 0.15847 0.37011 0.53056 0.0
C1968 C 0.15129 0.3714 0.51221 0.0
C1969 C 0.1379 0.35465 0.50093 0.0
C1970 C 0.13245 0.33656 0.50797 0.0
C1971 C 0.13944 0.3353 0.52642 0.0
C1972 C 0.18881 0.35605 0.54935 0.0
C1973 C 0.20589 0.37337 0.54891 0.0
C1974 C 0.21808 0.3755 0.5345 0.0
C1975 C 0.21334 0.36036 0.52026 0.0
C1976 C 0.19618 0.34306 0.52086 0.0
C1977 C 0.18416 0.3409 0.53532 0.0
C1978 C 0.18868 0.34313 0.67738 0.0
C1979 C 0.07056 0.33609 0.54735 0.0
H1980 H 0.98772 0.40217 0.0629 0.0
H1981 H 0.03157 0.39548 0.09348 0.0
H1982 H 0.02753 0.41012 0.12375 0.0
H1983 H 0.00227 0.44777 0.08364 0.0
H1984 H 0.97915 0.44503 0.08543 0.0
H1985 H 0.98271 0.43081 0.06704 0.0
H1986 H 0.95659 0.39942 0.07961 0.0
H1987 H 0.95271 0.41355 0.0979 0.0
H1988 H 0.95798 0.39514 0.10492 0.0
H1989 H 0.0217 0.42866 0.14918 0.0
H1990 H 0.01391 0.44965 0.16901 0.0
H1991 H 0.97429 0.44562 0.12215 0.0
C1992 C 0.99585 0.40311 0.07622 0.0
C1993 C 0.00961 0.39734 0.07619 0.0
C1994 C 0.02073 0.39955 0.0935 0.0
C1995 C 0.01853 0.40784 0.11069 0.0
C1996 C 0.00527 0.41398 0.1102 0.0
C1997 C 0.99401 0.41165 0.09349 0.0
C1998 C 0.98231 0.42138 0.09648 0.0
C1999 C 0.98689 0.43718 0.08231 0.0
C2000 C 0.96114 0.40648 0.09462 0.0
C2001 C 0.98914 0.42995 0.11726 0.0
C2002 C 0.00224 0.4253 0.1249 0.0
C2003 C 0.01136 0.43228 0.14343 0.0
C2004 C 0.00699 0.44436 0.1545 0.0
C2005 C 0.99367 0.44942 0.14701 0.0
C2006 C 0.98448 0.44192 0.12822 0.0
H2007 H 0.58318 0.58783 0.09298 0.0
H2008 H 0.63749 0.59491 0.11315 0.0
H2009 H 0.62312 0.57459 0.14015 0.0
H2010 H 0.56978 0.59131 0.1415 0.0
H2011 H 0.54509 0.57432 0.13564 0.0
H2012 H 0.55925 0.5885 0.11712 0.0
H2013 H 0.55025 0.55725 0.09505 0.0
H2014 H 0.53522 0.54383 0.11341 0.0
H2015 H 0.55276 0.53831 0.10564 0.0
H2016 H 0.6029 0.55291 0.16419 0.0
H2017 H 0.57858 0.53355 0.18597 0.0
H2018 H 0.53739 0.54164 0.15145 0.0
C2019 C 0.59189 0.58484 0.103 0.0
C2020 C 0.6112 0.592 0.10054 0.0
C2021 C 0.62247 0.58868 0.11435 0.0
C2022 C 0.61447 0.57732 0.12978 0.0
C2023 C 0.59525 0.56982 0.13146 0.0
C2024 C 0.58412 0.57364 0.11866 0.0
C2025 C 0.56411 0.56487 0.12465 0.0
C2026 C 0.55928 0.5807 0.13005 0.0
C2027 C 0.54976 0.55021 0.10872 0.0
C2028 C 0.56566 0.55506 0.14243 0.0
C2029 C 0.58375 0.55812 0.14606 0.0
C2030 C 0.58867 0.55042 0.16155 0.0
C2031 C 0.57473 0.53933 0.17375 0.0
C2032 C 0.55608 0.53602 0.17039 0.0
C2033 C 0.55156 0.54406 0.1545 0.0
H2034 H 0.41764 0.99202 0.06799 0.0
H2035 H 0.40844 0.04027 0.07864 0.0
H2036 H 0.43145 0.05182 0.10753 0.0
H2037 H 0.4152 0.9821 0.11685 0.0
H2038 H 0.43177 0.97339 0.11694 0.0
H2039 H 0.41831 0.97161 0.09473 0.0
H2040 H 0.44934 0.99041 0.07797 0.0
H2041 H 0.46295 0.99247 0.10027 0.0
H2042 H 0.46728 0.01381 0.08847 0.0
H2043 H 0.45578 0.05804 0.135 0.0
H2044 H 0.47223 0.05446 0.16369 0.0
H2045 H 0.45857 0.99748 0.13922 0.0
C2046 C 0.42104 0.00538 0.07608 0.0
C2047 C 0.41272 0.01635 0.07018 0.0
C2048 C 0.4161 0.03277 0.08198 0.0
C2049 C 0.42896 0.03927 0.09851 0.0
C2050 C 0.43755 0.02856 0.10357 0.0
C2051 C 0.43322 0.01158 0.09309 0.0
C2052 C 0.44141 0.00081 0.10367 0.0
C2053 C 0.42574 0.9808 0.10833 0.0
C2054 C 0.45612 0.99929 0.09189 0.0
C2055 C 0.45065 0.01419 0.12192 0.0
C2056 C 0.44896 0.03047 0.12114 0.0
C2057 C 0.45677 0.0451 0.13603 0.0
C2058 C 0.46587 0.04267 0.15256 0.0
C2059 C 0.46627 0.02524 0.15469 0.0
C2060 C 0.45887 0.01109 0.13868 0.0
H2061 H 0.43183 0.01965 0.98437 0.0
H2062 H 0.37703 0.96762 0.97925 0.0
H2063 H 0.38595 0.95607 0.94989 0.0
H2064 H 0.43551 0.02655 0.93465 0.0
H2065 H 0.46052 0.03515 0.93577 0.0
H2066 H 0.45013 0.03855 0.95684 0.0
H2067 H 0.46378 0.02105 0.97723 0.0
H2068 H 0.47438 0.01775 0.95626 0.0
H2069 H 0.45875 0.99722 0.96884 0.0
H2070 H 0.40068 0.95154 0.91957 0.0
H2071 H 0.41992 0.95378 0.89229 0.0
H2072 H 0.46511 0.00853 0.91876 0.0
C2073 C 0.42166 0.00574 0.97723 0.0
C2074 C 0.40366 0.99457 0.98412 0.0
C2075 C 0.39091 0.9764 0.97431 0.0
C2076 C 0.39585 0.96977 0.9576 0.0
C2077 C 0.41364 0.98139 0.95106 0.0
C2078 C 0.42637 0.99891 0.96076 0.0
C2079 C 0.44447 0.00895 0.9508 0.0
C2080 C 0.44784 0.02845 0.94412 0.0
C2081 C 0.46134 0.01138 0.96407 0.0
C2082 C 0.43988 0.99455 0.93368 0.0
C2083 C 0.42209 0.9787 0.93404 0.0
C2084 C 0.4147 0.9638 0.91931 0.0
C2085 C 0.42579 0.96517 0.9039 0.0
C2086 C 0.44408 0.98134 0.90329 0.0
C2087 C 0.45113 0.99609 0.91855 0.0
H2088 H 0.02916 0.40155 0.97291 0.0
H2089 H 0.99903 0.41747 0.01265 0.0
H2090 H 1.00006 0.44159 0.99073 0.0
H2091 H 0.0582 0.4494 0.95109 0.0
H2092 H 0.05392 0.43672 0.92768 0.0
H2093 H 0.05483 0.42524 0.94929 0.0
H2094 H 0.02151 0.3968 0.93612 0.0
H2095 H 0.02065 0.40984 0.91583 0.0
H2096 H 0.00224 0.40156 0.93223 0.0
H2097 H 0.00129 0.46119 0.9635 0.0
H2098 H 0.00228 0.47509 0.93197 0.0
H2099 H 0.02993 0.44525 0.90862 0.0
C2100 C 0.02357 0.41079 0.97727 0.0
C2101 C 0.01481 0.40849 0.99478 0.0
C2102 C 0.00637 0.41966 0.99956 0.0
C2103 C 0.00689 0.43333 0.98722 0.0
C2104 C 0.01538 0.43513 0.96989 0.0
C2105 C 0.02352 0.42414 0.9648 0.0
C2106 C 0.02895 0.42669 0.944 0.0
C2107 C 0.05026 0.435 0.94301 0.0
C2108 C 0.01766 0.40759 0.9313 0.0
C2109 C 0.02298 0.44113 0.93843 0.0
C2110 C 0.01517 0.44575 0.95358 0.0
C2111 C 0.0076 0.4579 0.95161 0.0
C2112 C 0.00813 0.46563 0.93369 0.0
C2113 C 0.01625 0.46123 0.91809 0.0
C2114 C 0.02388 0.44895 0.9205 0.0
H2115 H 0.59652 0.5664 0.00691 0.0
H2116 H 0.60591 0.62473 0.01516 0.0
H2117 H 0.58605 0.61932 0.98488 0.0
H2118 H 0.5986 0.5653 0.95583 0.0
H2119 H 0.58026 0.5405 0.95128 0.0
H2120 H 0.59439 0.54856 0.97418 0.0
H2121 H 0.5641 0.53612 0.99247 0.0
H2122 H 0.54986 0.52802 0.96959 0.0
H2123 H 0.5476 0.54433 0.98659 0.0
H2124 H 0.56626 0.60814 0.95302 0.0
H2125 H 0.54854 0.59212 0.92146 0.0
H2126 H 0.5517 0.54102 0.93408 0.0
C2127 C 0.59435 0.57803 0.00244 0.0
C2128 C 0.60284 0.596 0.01351 0.0
C2129 C 0.59958 0.61081 0.00704 0.0
C2130 C 0.58828 0.60788 0.98984 0.0
C2131 C 0.58022 0.59005 0.97928 0.0
C2132 C 0.58308 0.57536 0.98533 0.0
C2133 C 0.57322 0.55775 0.97101 0.0
C2134 C 0.58747 0.55274 0.96258 0.0
C2135 C 0.55778 0.54054 0.98048 0.0
C2136 C 0.56474 0.56499 0.95575 0.0
C2137 C 0.56878 0.58359 0.9609 0.0
C2138 C 0.56285 0.59351 0.94891 0.0
C2139 C 0.55269 0.58424 0.93106 0.0
C2140 C 0.54864 0.56529 0.92533 0.0
C2141 C 0.55463 0.55554 0.93801 0.0
H2142 H 0.01917 0.62056 0.98967 0.0
H2143 H 0.98394 0.57623 0.02635 0.0
H2144 H 0.98649 0.55179 0.00554 0.0
H2145 H 0.99534 0.5911 0.9469 0.0
H2146 H 0.01548 0.60067 0.93271 0.0
H2147 H 0.01429 0.61553 0.95226 0.0
H2148 H 0.04648 0.62135 0.96964 0.0
H2149 H 0.04758 0.60835 0.94828 0.0
H2150 H 0.04956 0.60057 0.97182 0.0
H2151 H 0.99132 0.53199 0.97975 0.0
H2152 H 0.99611 0.51783 0.94948 0.0
H2153 H 0.02559 0.57466 0.928 0.0
C2154 C 0.01265 0.60581 0.99364 0.0
C2155 C 0.00215 0.60025 0.01005 0.0
C2156 C 0.99259 0.58069 0.01416 0.0
C2157 C 0.99397 0.56679 0.00246 0.0
C2158 C 0.00438 0.57264 0.98628 0.0
C2159 C 0.01337 0.59165 0.98168 0.0
C2160 C 0.02093 0.59358 0.96183 0.0
C2161 C 0.01091 0.60063 0.9476 0.0
C2162 C 0.04243 0.60679 0.96303 0.0
C2163 C 0.01549 0.57287 0.9564 0.0
C2164 C 0.00596 0.56101 0.97067 0.0
C2165 C 0.9989 0.54116 0.96854 0.0
C2166 C 0.00164 0.53325 0.95134 0.0
C2167 C 0.01141 0.5452 0.93659 0.0
C2168 C 0.01846 0.56526 0.93926 0.0
H2169 H 0.41473 0.40321 0.95353 0.0
H2170 H 0.38016 0.4275 0.97132 0.0
H2171 H 0.39331 0.45145 0.94685 0.0
H2172 H 0.45519 0.44654 0.94703 0.0
H2173 H 0.4615 0.43763 0.92595 0.0
H2174 H 0.44818 0.42136 0.94359 0.0
H2175 H 0.42194 0.39966 0.91663 0.0
H2176 H 0.43529 0.41574 0.89883 0.0
H2177 H 0.41129 0.41007 0.90137 0.0
H2178 H 0.41284 0.47486 0.9228 0.0
H2179 H 0.43531 0.49429 0.89953 0.0
H2180 H 0.45563 0.45333 0.8963 0.0
C2181 C 0.40967 0.41335 0.9521 0.0
C2182 C 0.3964 0.41346 0.96437 0.0
C2183 C 0.3902 0.42702 0.962 0.0
C2184 C 0.39764 0.44074 0.94819 0.0
C2185 C 0.41106 0.44051 0.93669 0.0
C2186 C 0.41679 0.42697 0.93831 0.0
C2187 C 0.43177 0.43011 0.92465 0.0
C2188 C 0.45025 0.43415 0.93599 0.0
C2189 C 0.42464 0.41287 0.90947 0.0
C2190 C 0.43394 0.44784 0.91542 0.0
C2191 C 0.42189 0.45363 0.92252 0.0
C2192 C 0.42208 0.47023 0.91686 0.0
C2193 C 0.43487 0.48114 0.90352 0.0
C2194 C 0.44725 0.47536 0.89586 0.0
C2195 C 0.44658 0.45836 0.90192 0.0
H2196 H 0.5758 0.01103 0.01042 0.0
H2197 H 0.60276 0.97736 0.99746 0.0
H2198 H 0.58338 0.96477 0.96616 0.0
H2199 H 0.52788 0.97673 0.98573 0.0
H2200 H 0.52539 0.99641 0.97734 0.0
H2201 H 0.53936 0.99971 0.99976 0.0
H2202 H 0.56726 0.02909 0.98543 0.0
H2203 H 0.5532 0.02456 0.96283 0.0
H2204 H 0.5756 0.02528 0.96292 0.0
H2205 H 0.56307 0.95761 0.93566 0.0
H2206 H 0.54433 0.95768 0.90667 0.0
H2207 H 0.53007 0.99598 0.93876 0.0
C2208 C 0.57722 0.00067 0.0011 0.0
C2209 C 0.59005 0.99439 0.00661 0.0
C2210 C 0.59233 0.9816 0.99378 0.0
C2211 C 0.58147 0.97446 0.97597 0.0
C2212 C 0.56861 0.98054 0.97107 0.0
C2213 C 0.56647 0.99344 0.98315 0.0
C2214 C 0.55293 0.99899 0.97346 0.0
C2215 C 0.53536 0.99258 0.98477 0.0
C2216 C 0.56285 0.02077 0.97102 0.0
C2217 C 0.54806 0.98741 0.95401 0.0
C2218 C 0.55711 0.97673 0.95306 0.0
C2219 C 0.55563 0.96565 0.9363 0.0
C2220 C 0.54479 0.96566 0.91992 0.0
C2221 C 0.53548 0.97666 0.92038 0.0
C2222 C 0.53699 0.98744 0.93783 0.0
H2223 H 0.5867 0.98523 0.1095 0.0
H2224 H 0.60144 0.03904 0.08405 0.0
H2225 H 0.58914 0.04887 0.11172 0.0
H2226 H 0.54417 0.97697 0.1276 0.0
H2227 H 0.54759 0.96761 0.14982 0.0
H2228 H 0.55821 0.96526 0.12847 0.0
H2229 H 0.59115 0.98253 0.14768 0.0
H2230 H 0.58061 0.98485 0.16915 0.0
H2231 H 0.59955 0.00594 0.16009 0.0
H2232 H 0.57212 0.05105 0.14055 0.0
H2233 H 0.55419 0.04675 0.1692 0.0
H2234 H 0.55412 0.99313 0.17768 0.0
C2235 C 0.58745 0.99914 0.10983 0.0
C2236 C 0.5949 0.01136 0.09462 0.0
C2237 C 0.59583 0.02952 0.09562 0.0
C2238 C 0.58885 0.03519 0.11124 0.0
C2239 C 0.58139 0.02269 0.12591 0.0
C2240 C 0.58097 0.00519 0.12549 0.0
C2241 C 0.57227 0.9944 0.14304 0.0
C2242 C 0.55451 0.97491 0.13685 0.0
C2243 C 0.58676 0.99178 0.15574 0.0
C2244 C 0.56735 0.0083 0.15313 0.0
C2245 C 0.57264 0.02449 0.14302 0.0
C2246 C 0.56831 0.03864 0.14883 0.0
C2247 C 0.55821 0.03611 0.16532 0.0
C2248 C 0.55271 0.01964 0.17607 0.0
C2249 C 0.55776 0.0058 0.16989 0.0
H2250 H 0.97717 0.58229 0.07682 0.0
H2251 H 0.00397 0.63862 0.10804 0.0
H2252 H 0.9984 0.62346 0.13934 0.0
H2253 H 0.94163 0.55559 0.11316 0.0
H2254 H 0.94429 0.53465 0.10936 0.0
H2255 H 0.94694 0.54971 0.08969 0.0
H2256 H 0.98004 0.55392 0.08541 0.0
H2257 H 0.97766 0.53917 0.10519 0.0
H2258 H 0.99757 0.56322 0.10586 0.0
H2259 H 0.99518 0.60289 0.16651 0.0
H2260 H 0.99259 0.57794 0.18815 0.0
H2261 H 0.96732 0.53461 0.13961 0.0
C2262 C 0.98098 0.59127 0.0903 0.0
C2263 C 0.99042 0.6115 0.09026 0.0
C2264 C 0.99622 0.62305 0.10799 0.0
C2265 C 0.99317 0.61457 0.12576 0.0
C2266 C 0.98433 0.59453 0.12543 0.0
C2267 C 0.97807 0.58298 0.10817 0.0
C2268 C 0.9709 0.56203 0.11179 0.0
C2269 C 0.94968 0.54977 0.10564 0.0
C2270 C 0.98222 0.55414 0.10146 0.0
C2271 C 0.97476 0.5637 0.13368 0.0
C2272 C 0.98238 0.58256 0.14127 0.0
C2273 C 0.98879 0.58801 0.16084 0.0
C2274 C 0.98738 0.57382 0.17297 0.0
C2275 C 0.97956 0.55445 0.16549 0.0
C2276 C 0.97295 0.54929 0.14568 0.0
H2277 H 0.39842 0.39017 0.06599 0.0
H2278 H 0.41817 0.44009 0.03243 0.0
H2279 H 0.44217 0.46003 0.05935 0.0
H2280 H 0.39967 0.41595 0.10842 0.0
H2281 H 0.40587 0.40277 0.12502 0.0
H2282 H 0.39309 0.39123 0.10193 0.0
H2283 H 0.41941 0.3833 0.09243 0.0
H2284 H 0.43042 0.39328 0.11655 0.0
H2285 H 0.44374 0.40246 0.09591 0.0
H2286 H 0.46223 0.47494 0.09066 0.0
H2287 H 0.47552 0.48435 0.12489 0.0
H2288 H 0.44025 0.42535 0.13921 0.0
C2289 C 0.40837 0.40513 0.06412 0.0
C2290 C 0.40723 0.41354 0.04693 0.0
C2291 C 0.41943 0.43339 0.04532 0.0
C2292 C 0.43305 0.44476 0.0605 0.0
C2293 C 0.43375 0.43613 0.07742 0.0
C2294 C 0.42161 0.41679 0.07942 0.0
C2295 C 0.4231 0.41184 0.10016 0.0
C2296 C 0.40432 0.40506 0.10942 0.0
C2297 C 0.42953 0.3968 0.10127 0.0
C2298 C 0.43823 0.43128 0.10934 0.0
C2299 C 0.44429 0.44506 0.09597 0.0
C2300 C 0.45769 0.46424 0.10124 0.0
C2301 C 0.46508 0.46947 0.12071 0.0
C2302 C 0.45898 0.45557 0.13468 0.0
C2303 C 0.44546 0.43622 0.1288 0.0
H2304 H 0.68506 0.76211 0.39951 0.0
H2305 H 0.63221 0.70879 0.38506 0.0
H2306 H 0.61706 0.71903 0.40915 0.0
H2307 H 0.68165 0.76362 0.44959 0.0
H2308 H 0.69198 0.78942 0.45299 0.0
H2309 H 0.69813 0.7789 0.43314 0.0
H2310 H 0.68782 0.79642 0.40873 0.0
H2311 H 0.68165 0.80704 0.42854 0.0
H2312 H 0.66438 0.79323 0.40856 0.0
H2313 H 0.60835 0.73378 0.43665 0.0
H2314 H 0.60707 0.75154 0.46609 0.0
H2315 H 0.66544 0.79536 0.46222 0.0
C2316 C 0.67022 0.75269 0.40115 0.0
C2317 C 0.65985 0.73465 0.39033 0.0
C2318 C 0.6405 0.72268 0.39315 0.0
C2319 C 0.63172 0.7284 0.40675 0.0
C2320 C 0.64244 0.74615 0.41734 0.0
C2321 C 0.66126 0.75813 0.41467 0.0
C2322 C 0.66997 0.77586 0.42882 0.0
C2323 C 0.68639 0.777 0.44191 0.0
C2324 C 0.67633 0.79422 0.41801 0.0
C2325 C 0.65324 0.77172 0.44022 0.0
C2326 C 0.63743 0.75464 0.43323 0.0
C2327 C 0.62055 0.74732 0.44208 0.0
C2328 C 0.61994 0.75757 0.45874 0.0
C2329 C 0.63613 0.77488 0.46641 0.0
C2330 C 0.65285 0.78215 0.45674 0.0
H2331 H 0.28225 0.92237 0.45309 0.0
H2332 H 0.23919 0.92197 0.41339 0.0
H2333 H 0.21514 0.90457 0.43632 0.0
H2334 H 0.25387 0.87626 0.47653 0.0
H2335 H 0.26671 0.8881 0.49936 0.0
H2336 H 0.2778 0.8962 0.47716 0.0
H2337 H 0.28394 0.93039 0.49078 0.0
H2338 H 0.27021 0.92027 0.51109 0.0
H2339 H 0.26391 0.93348 0.49464 0.0
H2340 H 0.19602 0.88794 0.46362 0.0
H2341 H 0.18295 0.87331 0.49397 0.0
H2342 H 0.23873 0.88656 0.51723 0.0
C2343 C 0.26762 0.91802 0.44907 0.0
C2344 C 0.26225 0.92266 0.4312 0.0
C2345 C 0.24331 0.91794 0.42681 0.0
C2346 C 0.22963 0.90814 0.43974 0.0
C2347 C 0.23532 0.90385 0.45732 0.0
C2348 C 0.25388 0.90874 0.46213 0.0
C2349 C 0.25657 0.90449 0.48293 0.0
C2350 C 0.26423 0.89044 0.48399 0.0
C2351 C 0.26942 0.92328 0.4956 0.0
C2352 C 0.23644 0.89529 0.48852 0.0
C2353 C 0.22448 0.89536 0.47364 0.0
C2354 C 0.20524 0.8878 0.47538 0.0
C2355 C 0.19797 0.87962 0.49267 0.0
C2356 C 0.20987 0.8789 0.50787 0.0
C2357 C 0.22936 0.88693 0.50578 0.0
H2358 H 0.08755 0.32363 0.39254 0.0
H2359 H 0.06186 0.35825 0.40675 0.0
H2360 H 0.08084 0.36948 0.4383 0.0
H2361 H 0.08597 0.3077 0.44026 0.0
H2362 H 0.10781 0.30727 0.44024 0.0
H2363 H 0.09401 0.30365 0.41766 0.0
H2364 H 0.12284 0.33235 0.40382 0.0
H2365 H 0.13653 0.33507 0.42628 0.0
H2366 H 0.13494 0.35528 0.41792 0.0
H2367 H 0.10238 0.37716 0.46793 0.0
H2368 H 0.1216 0.37688 0.49657 0.0
H2369 H 0.13153 0.33508 0.46508 0.0
C2370 C 0.08628 0.33386 0.40222 0.0
C2371 C 0.07417 0.34107 0.39685 0.0
C2372 C 0.07193 0.35351 0.41022 0.0
C2373 C 0.08254 0.35985 0.4282 0.0
C2374 C 0.09494 0.35314 0.43283 0.0
C2375 C 0.0966 0.34011 0.42048 0.0
C2376 C 0.10943 0.3336 0.43007 0.0
C2377 C 0.09866 0.31176 0.43218 0.0
C2378 C 0.12697 0.33942 0.41883 0.0
C2379 C 0.11461 0.34498 0.44969 0.0
C2380 C 0.10638 0.35645 0.45075 0.0
C2381 C 0.10895 0.36827 0.46732 0.0
C2382 C 0.11998 0.36812 0.48345 0.0
C2383 C 0.12809 0.35605 0.48296 0.0
C2384 C 0.12548 0.34444 0.46579 0.0
H2385 H 0.08256 0.31653 0.31546 0.0
H2386 H 0.05764 0.34889 0.29151 0.0
H2387 H 0.06777 0.34553 0.25916 0.0
H2388 H 0.1233 0.33795 0.28979 0.0
H2389 H 0.12506 0.31651 0.2858 0.0
H2390 H 0.11397 0.31935 0.30654 0.0
H2391 H 0.0837 0.28698 0.29577 0.0
H2392 H 0.09474 0.284 0.275 0.0
H2393 H 0.07242 0.28337 0.27162 0.0
H2394 H 0.08246 0.34099 0.23037 0.0
H2395 H 0.10119 0.33569 0.2065 0.0
H2396 H 0.11754 0.30682 0.2488 0.0
C2397 C 0.07888 0.32242 0.30321 0.0
C2398 C 0.06906 0.33265 0.30569 0.0
C2399 C 0.06495 0.34079 0.28966 0.0
C2400 C 0.07063 0.33894 0.2713 0.0
C2401 C 0.08053 0.32902 0.26927 0.0
C2402 C 0.08464 0.32087 0.28474 0.0
C2403 C 0.09672 0.31225 0.27883 0.0
C2404 C 0.1159 0.32211 0.29096 0.0
C2405 C 0.08627 0.29035 0.2804 0.0
C2406 C 0.09895 0.31711 0.25776 0.0
C2407 C 0.08936 0.32666 0.25257 0.0
C2408 C 0.08992 0.33339 0.2342 0.0
C2409 C 0.10069 0.33043 0.22079 0.0
C2410 C 0.11082 0.32086 0.22579 0.0
C2411 C 0.10972 0.31393 0.24448 0.0
H2412 H 0.65668 0.73586 0.31117 0.0
H2413 H 0.70127 0.72227 0.30396 0.0
H2414 H 0.71048 0.74155 0.2753 0.0
H2415 H 0.64405 0.73254 0.2592 0.0
H2416 H 0.63835 0.7516 0.261 0.0
H2417 H 0.63535 0.73701 0.28115 0.0
H2418 H 0.65786 0.76779 0.30456 0.0
H2419 H 0.65862 0.78148 0.28423 0.0
H2420 H 0.68023 0.78503 0.29627 0.0
H2421 H 0.71613 0.76411 0.24903 0.0
H2422 H 0.71603 0.78602 0.22485 0.0
H2423 H 0.66671 0.78357 0.24824 0.0
C2424 C 0.66845 0.73712 0.30357 0.0
C2425 C 0.67892 0.72846 0.31014 0.0
C2426 C 0.6937 0.7296 0.29951 0.0
C2427 C 0.69889 0.74034 0.28317 0.0
C2428 C 0.6888 0.74941 0.27746 0.0
C2429 C 0.67372 0.74769 0.28715 0.0
C2430 C 0.66475 0.75823 0.2775 0.0
C2431 C 0.64442 0.74399 0.26922 0.0
C2432 C 0.66541 0.77404 0.29151 0.0
C2433 C 0.67765 0.76679 0.26141 0.0
C2434 C 0.69138 0.76149 0.2616 0.0
C2435 C 0.70534 0.76823 0.2486 0.0
C2436 C 0.70526 0.78077 0.23504 0.0
C2437 C 0.69133 0.78642 0.23463 0.0
C2438 C 0.67732 0.77922 0.24796 0.0
H2439 H 0.24905 0.89685 0.34603 0.0
H2440 H 0.27722 0.9592 0.34557 0.0
H2441 H 0.25934 0.95587 0.31435 0.0
H2442 H 0.24853 0.88658 0.29551 0.0
H2443 H 0.22551 0.86534 0.2936 0.0
H2444 H 0.24003 0.87263 0.31625 0.0
H2445 H 0.21317 0.87331 0.33398 0.0
H2446 H 0.19854 0.86599 0.31137 0.0
H2447 H 0.20327 0.88767 0.32534 0.0
H2448 H 0.23982 0.94575 0.28232 0.0
H2449 H 0.21977 0.92965 0.25202 0.0
H2450 H 0.20295 0.8739 0.27427 0.0
C2451 C 0.25146 0.90984 0.33943 0.0
C2452 C 0.2646 0.9283 0.34828 0.0
C2453 C 0.26721 0.9449 0.33914 0.0
C2454 C 0.25712 0.94316 0.3214 0.0
C2455 C 0.24433 0.92475 0.31308 0.0
C2456 C 0.24139 0.90839 0.32184 0.0
C2457 C 0.22702 0.89029 0.30975 0.0
C2458 C 0.23581 0.87799 0.3034 0.0
C2459 C 0.20946 0.87863 0.32077 0.0
C2460 C 0.2226 0.89904 0.29262 0.0
C2461 C 0.23269 0.91893 0.29485 0.0
C2462 C 0.2316 0.93018 0.28055 0.0
C2463 C 0.22002 0.92086 0.26342 0.0
C2464 C 0.20954 0.90045 0.26074 0.0
C2465 C 0.21078 0.88949 0.27574 0.0
H2466 H 0.66134 0.91441 0.34075 0.0
H2467 H 0.69144 0.97196 0.32122 0.0
H2468 H 0.70109 0.95967 0.29323 0.0
H2469 H 0.69193 0.89604 0.32612 0.0
H2470 H 0.67239 0.87281 0.31778 0.0
H2471 H 0.66975 0.88718 0.33682 0.0
H2472 H 0.6406 0.8836 0.31543 0.0
H2473 H 0.64454 0.8703 0.29632 0.0
H2474 H 0.64378 0.89184 0.29128 0.0
H2475 H 0.70975 0.94199 0.26938 0.0
H2476 H 0.71169 0.91868 0.24651 0.0
H2477 H 0.6733 0.87166 0.27898 0.0
C2478 C 0.6701 0.92434 0.33061 0.0
C2479 C 0.67671 0.94429 0.33362 0.0
C2480 C 0.68721 0.95681 0.31962 0.0
C2481 C 0.69263 0.94995 0.30366 0.0
C2482 C 0.68687 0.9304 0.30164 0.0
C2483 C 0.67538 0.91763 0.31435 0.0
C2484 C 0.66983 0.89707 0.30767 0.0
C2485 C 0.67637 0.88776 0.32303 0.0
C2486 C 0.64842 0.88499 0.30236 0.0
C2487 C 0.68069 0.90046 0.28975 0.0
C2488 C 0.69053 0.91985 0.28671 0.0
C2489 C 0.70199 0.92675 0.27146 0.0
C2490 C 0.70314 0.91343 0.25868 0.0
C2491 C 0.69275 0.89344 0.2611 0.0
C2492 C 0.68141 0.88689 0.27688 0.0
H2493 H 0.09302 0.74887 0.30363 0.0
H2494 H 0.04231 0.75332 0.30629 0.0
H2495 H 0.05185 0.77441 0.27892 0.0
H2496 H 0.12362 0.79756 0.29399 0.0
H2497 H 0.13711 0.79158 0.27813 0.0
H2498 H 0.12584 0.77652 0.29741 0.0
H2499 H 0.10838 0.74684 0.27236 0.0
H2500 H 0.11957 0.76182 0.25299 0.0
H2501 H 0.0942 0.74759 0.25187 0.0
H2502 H 0.06756 0.79542 0.25106 0.0
H2503 H 0.0878 0.81433 0.22582 0.0
H2504 H 0.12831 0.79634 0.24289 0.0
C2505 C 0.08375 0.75411 0.29849 0.0
C2506 C 0.06682 0.7493 0.30715 0.0
C2507 C 0.05532 0.75673 0.29991 0.0
C2508 C 0.06063 0.76872 0.28437 0.0
C2509 C 0.0775 0.77319 0.27629 0.0
C2510 C 0.08886 0.76609 0.28318 0.0
C2511 C 0.10648 0.77324 0.27244 0.0
C2512 C 0.12431 0.78545 0.28632 0.0
C2513 C 0.10719 0.75636 0.26178 0.0
C2514 C 0.1033 0.78546 0.25827 0.0
C2515 C 0.08653 0.78529 0.26065 0.0
C2516 C 0.08073 0.79566 0.24915 0.0
C2517 C 0.09239 0.80645 0.23491 0.0
C2518 C 0.10967 0.80683 0.23229 0.0
C2519 C 0.11508 0.79615 0.24423 0.0
H2520 H 0.24349 0.34233 0.34093 0.0
H2521 H 0.26607 0.30431 0.32956 0.0
H2522 H 0.24491 0.29047 0.29948 0.0
H2523 H 0.19373 0.30894 0.31919 0.0
H2524 H 0.19241 0.32887 0.30966 0.0
H2525 H 0.20701 0.33263 0.33173 0.0
H2526 H 0.23515 0.35961 0.31506 0.0
H2527 H 0.22035 0.35449 0.29289 0.0
H2528 H 0.24183 0.35338 0.29258 0.0
H2529 H 0.22362 0.28258 0.26984 0.0
H2530 H 0.20477 0.28241 0.24087 0.0
H2531 H 0.19541 0.32552 0.27068 0.0
C2532 C 0.24355 0.33077 0.33226 0.0
C2533 C 0.25567 0.32366 0.33786 0.0
C2534 C 0.2562 0.30925 0.32583 0.0
C2535 C 0.24431 0.30137 0.30873 0.0
C2536 C 0.23218 0.30833 0.30372 0.0
C2537 C 0.23173 0.32277 0.31501 0.0
C2538 C 0.21875 0.32894 0.30516 0.0
C2539 C 0.20199 0.32459 0.31718 0.0
C2540 C 0.22968 0.35037 0.30118 0.0
C2541 C 0.21236 0.316 0.28645 0.0
C2542 C 0.22008 0.30406 0.28612 0.0
C2543 C 0.21716 0.29158 0.27003 0.0
C2544 C 0.20626 0.29148 0.25367 0.0
C2545 C 0.19833 0.30375 0.2535 0.0
C2546 C 0.20124 0.31595 0.2703 0.0
H2547 H 0.25366 0.3207 0.43936 0.0
H2548 H 0.27952 0.37701 0.4164 0.0
H2549 H 0.2694 0.3895 0.44403 0.0
H2550 H 0.21348 0.3204 0.45417 0.0
H2551 H 0.21238 0.30824 0.47587 0.0
H2552 H 0.22309 0.30441 0.45531 0.0
H2553 H 0.25395 0.3149 0.47705 0.0
H2554 H 0.24329 0.31866 0.49774 0.0
H2555 H 0.26529 0.33794 0.49093 0.0
H2556 H 0.25353 0.39468 0.47284 0.0
H2557 H 0.23445 0.39235 0.50029 0.0
H2558 H 0.22068 0.33289 0.50461 0.0
C2559 C 0.25741 0.33574 0.44019 0.0
C2560 C 0.26734 0.34787 0.42567 0.0
C2561 C 0.27201 0.36747 0.42741 0.0
C2562 C 0.2663 0.37467 0.44303 0.0
C2563 C 0.25619 0.36214 0.45689 0.0
C2564 C 0.25201 0.34314 0.45568 0.0
C2565 C 0.24046 0.33235 0.47193 0.0
C2566 C 0.22122 0.31535 0.46383 0.0
C2567 C 0.25141 0.32557 0.4852 0.0
C2568 C 0.2383 0.34807 0.48225 0.0
C2569 C 0.2475 0.3652 0.47349 0.0
C2570 C 0.24653 0.38141 0.47997 0.0
C2571 C 0.23572 0.37997 0.49566 0.0
C2572 C 0.22601 0.36243 0.50468 0.0
C2573 C 0.2277 0.34646 0.49798 0.0
H2574 H 0.64934 0.92353 0.41457 0.0
H2575 H 0.70835 0.96391 0.43202 0.0
H2576 H 0.70624 0.94682 0.46145 0.0
H2577 H 0.63273 0.91628 0.46361 0.0
H2578 H 0.61665 0.89089 0.4581 0.0
H2579 H 0.62216 0.90724 0.43915 0.0
H2580 H 0.63272 0.88694 0.41861 0.0
H2581 H 0.62725 0.87055 0.43748 0.0
H2582 H 0.65056 0.88215 0.42903 0.0
H2583 H 0.69843 0.92506 0.4881 0.0
H2584 H 0.68575 0.89869 0.5099 0.0
H2585 H 0.63206 0.87118 0.47488 0.0
C2586 C 0.6617 0.92892 0.42476 0.0
C2587 C 0.67899 0.94511 0.42108 0.0
C2588 C 0.69498 0.95152 0.43454 0.0
C2589 C 0.69391 0.94197 0.45135 0.0
C2590 C 0.67676 0.92596 0.45446 0.0
C2591 C 0.66095 0.91937 0.44156 0.0
C2592 C 0.64466 0.90101 0.44781 0.0
C2593 C 0.62807 0.90405 0.45244 0.0
C2594 C 0.63844 0.88417 0.43231 0.0
C2595 C 0.65391 0.89823 0.46608 0.0
C2596 C 0.67236 0.91294 0.46972 0.0
C2597 C 0.68401 0.91343 0.48543 0.0
C2598 C 0.67671 0.89831 0.49764 0.0
C2599 C 0.65798 0.88277 0.49399 0.0
C2600 C 0.64637 0.88293 0.47814 0.0
H2601 H 0.07284 0.72623 0.40925 0.0
H2602 H 0.08876 0.77574 0.37576 0.0
H2603 H 0.1129 0.79665 0.40215 0.0
H2604 H 0.07352 0.75098 0.45202 0.0
H2605 H 0.08139 0.73881 0.46825 0.0
H2606 H 0.06844 0.72675 0.44538 0.0
H2607 H 0.09598 0.72122 0.43495 0.0
H2608 H 0.10732 0.7317 0.45887 0.0
H2609 H 0.11976 0.74151 0.43785 0.0
H2610 H 0.13313 0.81254 0.43312 0.0
H2611 H 0.14661 0.8227 0.46725 0.0
H2612 H 0.11532 0.76329 0.48181 0.0
C2613 C 0.08203 0.74134 0.40725 0.0
C2614 C 0.07975 0.74937 0.39021 0.0
C2615 C 0.09092 0.76936 0.38849 0.0
C2616 C 0.10461 0.78128 0.40337 0.0
C2617 C 0.10646 0.77303 0.42015 0.0
C2618 C 0.09535 0.75353 0.42228 0.0
C2619 C 0.09784 0.7489 0.44294 0.0
C2620 C 0.07919 0.7409 0.45272 0.0
C2621 C 0.10567 0.73498 0.44364 0.0
C2622 C 0.11225 0.76874 0.45195 0.0
C2623 C 0.11715 0.78243 0.43854 0.0
C2624 C 0.12954 0.80192 0.4437 0.0
C2625 C 0.13706 0.80756 0.46311 0.0
C2626 C 0.13211 0.79377 0.47712 0.0
C2627 C 0.11968 0.7741 0.47134 0.0
H2628 H 0.32777 0.06751 0.73734 0.0
H2629 H 0.37705 0.11712 0.71852 0.0
H2630 H 0.37219 0.13845 0.7413 0.0
H2631 H 0.29965 0.0915 0.74525 0.0
H2632 H 0.29023 0.07894 0.76656 0.0
H2633 H 0.2963 0.06763 0.74729 0.0
H2634 H 0.31821 0.06254 0.77193 0.0
H2635 H 0.31218 0.07377 0.79124 0.0
H2636 H 0.33657 0.08298 0.78673 0.0
H2637 H 0.364 0.1541 0.76805 0.0
H2638 H 0.35314 0.16285 0.79754 0.0
H2639 H 0.30911 0.10337 0.79893 0.0
C2640 C 0.33735 0.08289 0.73774 0.0
C2641 C 0.35276 0.0906 0.72606 0.0
C2642 C 0.36514 0.11081 0.72729 0.0
C2643 C 0.36245 0.12309 0.74012 0.0
C2644 C 0.34729 0.11499 0.75159 0.0
C2645 C 0.33492 0.09537 0.75052 0.0
C2646 C 0.32058 0.09024 0.76546 0.0
C2647 C 0.3005 0.08157 0.75554 0.0
C2648 C 0.32198 0.07658 0.77968 0.0
C2649 C 0.32715 0.10999 0.77542 0.0
C2650 C 0.34246 0.12409 0.76704 0.0
C2651 C 0.35184 0.14326 0.77455 0.0
C2652 C 0.34563 0.14809 0.79129 0.0
C2653 C 0.33021 0.1338 0.80028 0.0
C2654 C 0.32064 0.11461 0.79201 0.0
H2655 H 0.91699 0.25735 0.76191 0.0
H2656 H 0.97088 0.26474 0.78423 0.0
H2657 H 0.9558 0.24494 0.81136 0.0
H2658 H 0.90234 0.26119 0.81046 0.0
H2659 H 0.87776 0.24429 0.80385 0.0
H2660 H 0.89255 0.25869 0.7858 0.0
H2661 H 0.88408 0.22761 0.76361 0.0
H2662 H 0.8684 0.2141 0.78147 0.0
H2663 H 0.88606 0.20847 0.77442 0.0
H2664 H 0.93464 0.22233 0.83428 0.0
H2665 H 0.90934 0.20182 0.85463 0.0
H2666 H 0.86929 0.21082 0.81919 0.0
C2667 C 0.92549 0.25463 0.77249 0.0
C2668 C 0.94486 0.2616 0.77055 0.0
C2669 C 0.95583 0.25863 0.78505 0.0
C2670 C 0.94742 0.24757 0.80056 0.0
C2671 C 0.92812 0.24006 0.80162 0.0
C2672 C 0.91731 0.24376 0.78825 0.0
C2673 C 0.89707 0.23492 0.79358 0.0
C2674 C 0.89215 0.25071 0.79873 0.0
C2675 C 0.88311 0.22044 0.77728 0.0
C2676 C 0.89805 0.22489 0.81142 0.0
C2677 C 0.91611 0.22809 0.81577 0.0
C2678 C 0.92047 0.21986 0.83117 0.0
C2679 C 0.90599 0.20812 0.84253 0.0
C2680 C 0.88738 0.20474 0.83848 0.0
C2681 C 0.88343 0.21333 0.82275 0.0
H2682 H 0.7564 0.6635 0.72673 0.0
H2683 H 0.73772 0.70468 0.73897 0.0
H2684 H 0.75799 0.71614 0.76972 0.0
H2685 H 0.75483 0.6499 0.77464 0.0
H2686 H 0.77521 0.64676 0.77466 0.0
H2687 H 0.76151 0.64364 0.75217 0.0
H2688 H 0.79151 0.66943 0.73731 0.0
H2689 H 0.80519 0.67213 0.75977 0.0
H2690 H 0.80551 0.69287 0.75014 0.0
H2691 H 0.779 0.72242 0.79937 0.0
H2692 H 0.79627 0.72015 0.82862 0.0
H2693 H 0.79994 0.67338 0.79894 0.0
C2694 C 0.75701 0.67522 0.73575 0.0
C2695 C 0.74639 0.68401 0.73011 0.0
C2696 C 0.74659 0.69854 0.74265 0.0
C2697 C 0.75798 0.70507 0.76016 0.0
C2698 C 0.76876 0.69659 0.76513 0.0
C2699 C 0.7682 0.68178 0.7535 0.0
C2700 C 0.77956 0.67376 0.76344 0.0
C2701 C 0.76703 0.65224 0.76641 0.0
C2702 C 0.79644 0.67726 0.75197 0.0
C2703 C 0.78605 0.68598 0.78263 0.0
C2704 C 0.78007 0.6994 0.78302 0.0
C2705 C 0.7839 0.71207 0.79924 0.0
C2706 C 0.79379 0.71075 0.81574 0.0
C2707 C 0.79948 0.69667 0.81596 0.0
C2708 C 0.79575 0.68429 0.7991 0.0
H2709 H 0.7514 0.69348 0.62934 0.0
H2710 H 0.71716 0.63517 0.64612 0.0
H2711 H 0.72651 0.62278 0.61782 0.0
H2712 H 0.7421 0.68172 0.57663 0.0
H2713 H 0.76581 0.6994 0.57215 0.0
H2714 H 0.75512 0.70326 0.59276 0.0
H2715 H 0.78329 0.7074 0.61563 0.0
H2716 H 0.79398 0.70339 0.59515 0.0
H2717 H 0.78932 0.68854 0.61535 0.0
H2718 H 0.74204 0.61724 0.58903 0.0
H2719 H 0.76128 0.61892 0.56199 0.0
H2720 H 0.78427 0.68088 0.56386 0.0
C2721 C 0.7456 0.67805 0.62699 0.0
C2722 C 0.7335 0.6653 0.64001 0.0
C2723 C 0.72634 0.64523 0.63631 0.0
C2724 C 0.73161 0.63806 0.62029 0.0
C2725 C 0.7439 0.65113 0.608 0.0
C2726 C 0.75062 0.67069 0.6111 0.0
C2727 C 0.76416 0.68185 0.59628 0.0
C2728 C 0.75632 0.69216 0.58371 0.0
C2729 C 0.78385 0.69613 0.6062 0.0
C2730 C 0.76438 0.66558 0.58455 0.0
C2731 C 0.75256 0.64795 0.59144 0.0
C2732 C 0.75111 0.63096 0.58336 0.0
C2733 C 0.76205 0.63206 0.56791 0.0
C2734 C 0.77432 0.65003 0.56065 0.0
C2735 C 0.77524 0.66692 0.56909 0.0
H2736 H 0.33497 0.07933 0.65409 0.0
H2737 H 0.36672 0.05196 0.63632 0.0
H2738 H 0.37199 0.06779 0.60533 0.0
H2739 H 0.3121 0.07403 0.60588 0.0
H2740 H 0.31206 0.0965 0.60887 0.0
H2741 H 0.31097 0.08328 0.62973 0.0
H2742 H 0.34167 0.11316 0.64713 0.0
H2743 H 0.3404 0.1259 0.62673 0.0
H2744 H 0.36173 0.12543 0.63303 0.0
H2745 H 0.37499 0.08798 0.57716 0.0
H2746 H 0.37401 0.10944 0.55297 0.0
H2747 H 0.33973 0.12304 0.58934 0.0
C2748 C 0.34317 0.07687 0.64369 0.0
C2749 C 0.35122 0.06524 0.64775 0.0
C2750 C 0.36117 0.06155 0.63363 0.0
C2751 C 0.36406 0.07031 0.616 0.0
C2752 C 0.3565 0.08232 0.61267 0.0
C2753 C 0.3461 0.08544 0.62604 0.0
C2754 C 0.3389 0.09838 0.61865 0.0
C2755 C 0.31722 0.08739 0.6156 0.0
C2756 C 0.34611 0.11678 0.63223 0.0
C2757 C 0.34766 0.10281 0.59946 0.0
C2758 C 0.35759 0.09327 0.59616 0.0
C2759 C 0.36721 0.09548 0.57955 0.0
C2760 C 0.36671 0.10784 0.566 0.0
C2761 C 0.35681 0.11798 0.56924 0.0
C2762 C 0.34713 0.11528 0.5862 0.0
H2763 H 0.93209 0.23147 0.67638 0.0
H2764 H 0.93613 0.2875 0.68593 0.0
H2765 H 0.91593 0.28109 0.6558 0.0
H2766 H 0.93432 0.23219 0.62516 0.0
H2767 H 0.9176 0.20692 0.61994 0.0
H2768 H 0.9316 0.2153 0.64293 0.0
H2769 H 0.90117 0.1997 0.66109 0.0
H2770 H 0.88706 0.19124 0.63814 0.0
H2771 H 0.88305 0.20587 0.65568 0.0
H2772 H 0.89676 0.26966 0.62404 0.0
H2773 H 0.87977 0.25378 0.5923 0.0
H2774 H 0.88722 0.20473 0.60328 0.0
C2775 C 0.92862 0.24234 0.67223 0.0
C2776 C 0.93578 0.26001 0.68361 0.0
C2777 C 0.93092 0.27386 0.67754 0.0
C2778 C 0.91939 0.27035 0.66043 0.0
C2779 C 0.91273 0.25291 0.64951 0.0
C2780 C 0.9171 0.2391 0.65513 0.0
C2781 C 0.90851 0.22182 0.64033 0.0
C2782 C 0.92393 0.2189 0.63157 0.0
C2783 C 0.89409 0.20358 0.64935 0.0
C2784 C 0.89891 0.22827 0.62542 0.0
C2785 C 0.90144 0.2462 0.6311 0.0
C2786 C 0.89445 0.25549 0.61952 0.0
C2787 C 0.88469 0.24627 0.60155 0.0
C2788 C 0.88196 0.2279 0.5953 0.0
C2789 C 0.8891 0.21879 0.60755 0.0
H2790 H 0.32237 0.25109 0.66613 0.0
H2791 H 0.36278 0.30898 0.653 0.0
H2792 H 0.37314 0.29577 0.62634 0.0
H2793 H 0.34894 0.22664 0.65509 0.0
H2794 H 0.32815 0.2057 0.64411 0.0
H2795 H 0.32609 0.22073 0.66287 0.0
H2796 H 0.30193 0.22315 0.63813 0.0
H2797 H 0.30578 0.20932 0.61951 0.0
H2798 H 0.30956 0.23297 0.61514 0.0
H2799 H 0.38023 0.27651 0.6025 0.0
H2800 H 0.38074 0.25238 0.57956 0.0
H2801 H 0.33455 0.20664 0.60671 0.0
C2802 C 0.33351 0.26088 0.6577 0.0
C2803 C 0.34256 0.28099 0.66212 0.0
C2804 C 0.3564 0.29351 0.65031 0.0
C2805 C 0.36226 0.28614 0.63511 0.0
C2806 C 0.35375 0.26623 0.63166 0.0
C2807 C 0.33941 0.25373 0.64231 0.0
C2808 C 0.33172 0.23297 0.63454 0.0
C2809 C 0.33386 0.22083 0.65011 0.0
C2810 C 0.31102 0.22409 0.62634 0.0
C2811 C 0.34455 0.23577 0.61844 0.0
C2812 C 0.35714 0.25508 0.61708 0.0
C2813 C 0.37046 0.26134 0.60341 0.0
C2814 C 0.37077 0.2475 0.5906 0.0
C2815 C 0.35786 0.22761 0.59153 0.0
C2816 C 0.34461 0.22173 0.6057 0.0
H2817 H 0.75939 0.084 0.64163 0.0
H2818 H 0.70335 0.07582 0.62777 0.0
H2819 H 0.71545 0.09766 0.60131 0.0
H2820 H 0.78476 0.13483 0.63306 0.0
H2821 H 0.80403 0.13337 0.62315 0.0
H2822 H 0.79087 0.11727 0.64103 0.0
H2823 H 0.78377 0.08799 0.61746 0.0
H2824 H 0.7968 0.10398 0.59947 0.0
H2825 H 0.77263 0.08544 0.59344 0.0
H2826 H 0.73345 0.11881 0.57499 0.0
H2827 H 0.75607 0.13907 0.5523 0.0
H2828 H 0.80084 0.13546 0.58538 0.0
C2829 C 0.74963 0.08683 0.63311 0.0
C2830 C 0.73038 0.07812 0.63674 0.0
C2831 C 0.71816 0.08235 0.6253 0.0
C2832 C 0.7249 0.09471 0.61021 0.0
C2833 C 0.74394 0.10293 0.60696 0.0
C2834 C 0.75617 0.09933 0.61825 0.0
C2835 C 0.77602 0.1101 0.61193 0.0
C2836 C 0.78973 0.12476 0.62826 0.0
C2837 C 0.78269 0.09604 0.60517 0.0
C2838 C 0.77301 0.12007 0.59507 0.0
C2839 C 0.75441 0.1157 0.59237 0.0
C2840 C 0.74812 0.12259 0.57717 0.0
C2841 C 0.76117 0.13425 0.56442 0.0
C2842 C 0.78043 0.13916 0.56701 0.0
C2843 C 0.78629 0.13196 0.58271 0.0
H2844 H 0.90977 0.67672 0.66832 0.0
H2845 H 0.92579 0.63337 0.65672 0.0
H2846 H 0.90424 0.62133 0.62672 0.0
H2847 H 0.85985 0.64901 0.64689 0.0
H2848 H 0.86134 0.67005 0.63676 0.0
H2849 H 0.87538 0.67257 0.65889 0.0
H2850 H 0.90536 0.69639 0.64245 0.0
H2851 H 0.89119 0.6932 0.6203 0.0
H2852 H 0.91059 0.68849 0.61994 0.0
H2853 H 0.8823 0.61497 0.59751 0.0
H2854 H 0.86493 0.61757 0.56848 0.0
H2855 H 0.86486 0.66664 0.59756 0.0
C2856 C 0.90828 0.66438 0.65965 0.0
C2857 C 0.91845 0.65513 0.66527 0.0
C2858 C 0.91719 0.63983 0.65311 0.0
C2859 C 0.90508 0.63299 0.63604 0.0
C2860 C 0.89475 0.64199 0.63112 0.0
C2861 C 0.89644 0.65756 0.64237 0.0
C2862 C 0.88566 0.6662 0.63249 0.0
C2863 C 0.86961 0.66434 0.64449 0.0
C2864 C 0.899 0.68732 0.62856 0.0
C2865 C 0.87798 0.65329 0.61379 0.0
C2866 C 0.88302 0.63914 0.61353 0.0
C2867 C 0.87812 0.62587 0.59757 0.0
C2868 C 0.86818 0.62739 0.58121 0.0
C2869 C 0.86351 0.64224 0.58088 0.0
C2870 C 0.86823 0.65513 0.5975 0.0
H2871 H 0.91115 0.6495 0.7652 0.0
H2872 H 0.94087 0.70673 0.74452 0.0
H2873 H 0.93161 0.71954 0.77264 0.0
H2874 H 0.87227 0.65212 0.78128 0.0
H2875 H 0.87037 0.63883 0.80229 0.0
H2876 H 0.88006 0.63459 0.78107 0.0
H2877 H 0.91051 0.64206 0.80203 0.0
H2878 H 0.90089 0.64627 0.82335 0.0
H2879 H 0.92346 0.66463 0.81664 0.0
H2880 H 0.91701 0.72536 0.80225 0.0
H2881 H 0.89941 0.72388 0.83076 0.0
H2882 H 0.88114 0.66299 0.83235 0.0
C2883 C 0.9158 0.66476 0.76654 0.0
C2884 C 0.92666 0.67711 0.75258 0.0
C2885 C 0.93258 0.69701 0.75506 0.0
C2886 C 0.92736 0.70439 0.77096 0.0
C2887 C 0.91647 0.69172 0.78434 0.0
C2888 C 0.91094 0.67235 0.78233 0.0
C2889 C 0.89916 0.6616 0.79846 0.0
C2890 C 0.87929 0.64586 0.79028 0.0
C2891 C 0.9091 0.65315 0.81086 0.0
C2892 C 0.89854 0.67784 0.80973 0.0
C2893 C 0.9086 0.69513 0.80145 0.0
C2894 C 0.9093 0.71194 0.80898 0.0
C2895 C 0.89934 0.71097 0.82527 0.0
C2896 C 0.88884 0.69331 0.83389 0.0
C2897 C 0.88877 0.67668 0.82606 0.0
H2898 H 0.35564 0.28177 0.76243 0.0
H2899 H 0.29977 0.25589 0.73204 0.0
H2900 H 0.28719 0.23228 0.75685 0.0
H2901 H 0.35325 0.2386 0.77712 0.0
H2902 H 0.36561 0.24893 0.80071 0.0
H2903 H 0.37021 0.26397 0.78072 0.0
H2904 H 0.36208 0.28656 0.80088 0.0
H2905 H 0.35752 0.27162 0.82097 0.0
H2906 H 0.33962 0.27662 0.81116 0.0
H2907 H 0.28122 0.21018 0.7836 0.0
H2908 H 0.28167 0.19237 0.81159 0.0
H2909 H 0.34083 0.2346 0.82639 0.0
C2910 C 0.34075 0.27115 0.76102 0.0
C2911 C 0.32868 0.2706 0.74528 0.0
C2912 C 0.30925 0.25661 0.74403 0.0
C2913 C 0.30198 0.24312 0.75801 0.0
C2914 C 0.31428 0.24401 0.7733 0.0
C2915 C 0.33319 0.2578 0.77504 0.0
C2916 C 0.34331 0.25574 0.79302 0.0
C2917 C 0.35902 0.25156 0.78756 0.0
C2918 C 0.35108 0.2737 0.80735 0.0
C2919 C 0.32719 0.23841 0.80091 0.0
C2920 C 0.3106 0.23181 0.78927 0.0
C2921 C 0.29404 0.21542 0.79305 0.0
C2922 C 0.29443 0.20549 0.80916 0.0
C2923 C 0.31122 0.21209 0.82154 0.0
C2924 C 0.32775 0.22893 0.81729 0.0
H2925 H 0.74286 0.09468 0.71977 0.0
H2926 H 0.71799 0.03398 0.72895 0.0
H2927 H 0.73733 0.04204 0.7602 0.0
H2928 H 0.79089 0.11119 0.74302 0.0
H2929 H 0.79251 0.13298 0.75341 0.0
H2930 H 0.7783 0.12155 0.73089 0.0
H2931 H 0.75004 0.12131 0.74725 0.0
H2932 H 0.76444 0.13168 0.76983 0.0
H2933 H 0.74261 0.10916 0.76921 0.0
H2934 H 0.75815 0.05637 0.7906 0.0
H2935 H 0.77766 0.07616 0.81985 0.0
H2936 H 0.78943 0.12805 0.79158 0.0
C2937 C 0.74181 0.08318 0.72829 0.0
C2938 C 0.72969 0.0637 0.72168 0.0
C2939 C 0.72789 0.04895 0.73348 0.0
C2940 C 0.73872 0.05339 0.75125 0.0
C2941 C 0.75102 0.0727 0.75715 0.0
C2942 C 0.75253 0.0874 0.74618 0.0
C2943 C 0.76569 0.10695 0.75676 0.0
C2944 C 0.78285 0.11885 0.74532 0.0
C2945 C 0.75506 0.11791 0.76102 0.0
C2946 C 0.77136 0.10087 0.7753 0.0
C2947 C 0.76278 0.08105 0.77512 0.0
C2948 C 0.76517 0.07193 0.79085 0.0
C2949 C 0.77646 0.08335 0.80736 0.0
C2950 C 0.78536 0.10374 0.80803 0.0
C2951 C 0.78285 0.11253 0.79161 0.0
H2952 H 0.06725 0.37998 0.06941 0.0
H2953 H 0.02591 0.32572 0.03849 0.0
H2954 H 0.03948 0.30886 0.05699 0.0
H2955 H 0.1061 0.37138 0.072 0.0
H2956 H 0.11484 0.38294 0.09618 0.0
H2957 H 0.10188 0.39047 0.08035 0.0
H2958 H 0.07822 0.38416 0.10646 0.0
H2959 H 0.09108 0.37652 0.12234 0.0
H2960 H 0.06622 0.36074 0.11587 0.0
H2961 H 0.05882 0.29846 0.07795 0.0
H2962 H 0.08159 0.29512 0.10002 0.0
H2963 H 0.10808 0.35595 0.1191 0.0
C2964 C 0.06112 0.36456 0.0664 0.0
C2965 C 0.04567 0.35415 0.05239 0.0
C2966 C 0.0378 0.33395 0.04915 0.0
C2967 C 0.04539 0.32428 0.05958 0.0
C2968 C 0.06061 0.33501 0.07338 0.0
C2969 C 0.06826 0.35469 0.07689 0.0
C2970 C 0.08435 0.36291 0.09266 0.0
C2971 C 0.10288 0.3778 0.08482 0.0
C2972 C 0.07968 0.37159 0.11038 0.0
C2973 C 0.08483 0.34484 0.09727 0.0
C2974 C 0.07108 0.3289 0.08599 0.0
C2975 C 0.06946 0.3108 0.08707 0.0
C2976 C 0.08239 0.30903 0.09981 0.0
C2977 C 0.09667 0.32524 0.11147 0.0
C2978 C 0.09754 0.34327 0.11032 0.0
H2979 H 0.6527 0.68929 0.07139 0.0
H2980 H 0.68418 0.6727 0.11115 0.0
H2981 H 0.69799 0.70451 0.12958 0.0
H2982 H 0.68841 0.74054 0.0717 0.0
H2983 H 0.67091 0.74806 0.07102 0.0
H2984 H 0.66517 0.72484 0.05986 0.0
H2985 H 0.63666 0.70842 0.08069 0.0
H2986 H 0.64237 0.73153 0.09199 0.0
H2987 H 0.64045 0.71271 0.10681 0.0
H2988 H 0.70677 0.73742 0.14482 0.0
H2989 H 0.70915 0.76838 0.15608 0.0
H2990 H 0.67134 0.76286 0.10663 0.0
C2991 C 0.6628 0.69247 0.08373 0.0
C2992 C 0.6675 0.6786 0.08976 0.0
C2993 C 0.68046 0.68318 0.10623 0.0
C2994 C 0.6884 0.70121 0.11676 0.0
C2995 C 0.68318 0.71444 0.11063 0.0
C2996 C 0.67068 0.71029 0.09448 0.0
C2997 C 0.66636 0.72642 0.09169 0.0
C2998 C 0.67312 0.7355 0.07243 0.0
C2999 C 0.64521 0.71934 0.09287 0.0
C3000 C 0.67811 0.74017 0.10898 0.0
C3001 C 0.6879 0.73314 0.11961 0.0
C3002 C 0.6993 0.74314 0.13651 0.0
C3003 C 0.70062 0.76072 0.14275 0.0
C3004 C 0.69044 0.76799 0.13222 0.0
C3005 C 0.67919 0.7576 0.11504 0.0
H3006 H 0.31716 0.94519 0.04877 0.0
H3007 H 0.32646 0.00316 0.05953 0.0
H3008 H 0.29653 0.99034 0.07505 0.0
H3009 H 0.26506 0.92031 0.04035 0.0
H3010 H 0.26187 0.89985 0.05315 0.0
H3011 H 0.28287 0.91322 0.04071 0.0
H3012 H 0.30352 0.91869 0.07268 0.0
H3013 H 0.28262 0.90541 0.08521 0.0
H3014 H 0.29992 0.92966 0.09416 0.0
H3015 H 0.2669 0.97184 0.09103 0.0
H3016 H 0.24004 0.94884 0.10819 0.0
H3017 H 0.25011 0.9027 0.0885 0.0
C3018 C 0.31263 0.95507 0.05405 0.0
C3019 C 0.32397 0.97513 0.05284 0.0
C3020 C 0.31792 0.98773 0.06033 0.0
C3021 C 0.30091 0.98059 0.06908 0.0
C3022 C 0.29018 0.9608 0.07039 0.0
C3023 C 0.29578 0.94818 0.0632 0.0
C3024 C 0.28238 0.92775 0.06806 0.0
C3025 C 0.27245 0.9145 0.04946 0.0
C3026 C 0.29273 0.91993 0.08079 0.0
C3027 C 0.26863 0.93098 0.07937 0.0
C3028 C 0.27324 0.95011 0.08024 0.0
C3029 C 0.263 0.95678 0.09031 0.0
C3030 C 0.24772 0.94359 0.09993 0.0
C3031 C 0.24292 0.92398 0.0996 0.0
C3032 C 0.25347 0.91762 0.08903 0.0
H3033 H 0.38284 0.06169 0.98977 0.0
H3034 H 0.33239 0.01114 0.00526 0.0
H3035 H 0.31279 0.02384 0.99119 0.0
H3036 H 0.36814 0.09575 1.00026 0.0
H3037 H 0.37832 0.10974 0.97995 0.0
H3038 H 0.38852 0.09645 0.99063 0.0
H3039 H 0.38481 0.07866 0.95705 0.0
H3040 H 0.37479 0.09206 0.94623 0.0
H3041 H 0.36196 0.0661 0.9436 0.0
H3042 H 0.29874 0.0429 0.97723 0.0
H3043 H 0.29114 0.06595 0.9621 0.0
H3044 H 0.35052 0.10305 0.95413 0.0
C3045 C 0.36766 0.0532 0.99006 0.0
C3046 C 0.3592 0.03541 0.99862 0.0
C3047 C 0.33925 0.02475 0.99867 0.0
C3048 C 0.32796 0.03187 0.99079 0.0
C3049 C 0.33678 0.04957 0.98273 0.0
C3050 C 0.35614 0.05998 0.98207 0.0
C3051 C 0.36205 0.07859 0.97252 0.0
C3052 C 0.37502 0.09617 0.98669 0.0
C3053 C 0.37145 0.07886 0.95373 0.0
C3054 C 0.34301 0.07711 0.96818 0.0
C3055 C 0.32862 0.06032 0.97425 0.0
C3056 C 0.30986 0.05601 0.9722 0.0
C3057 C 0.30568 0.06917 0.96351 0.0
C3058 C 0.32019 0.08636 0.95687 0.0
C3059 C 0.33908 0.09026 0.95931 0.0
H3060 H 0.95026 0.30682 0.00842 0.0
H3061 H 0.99626 0.32234 0.97151 0.0
H3062 H 0.97626 0.29301 0.94987 0.0
H3063 H 0.93139 0.25455 0.00294 0.0
H3064 H 0.90721 0.24923 0.00251 0.0
H3065 H 0.92561 0.27072 0.01591 0.0
H3066 H 0.91509 0.2914 0.99656 0.0
H3067 H 0.89676 0.27 0.98302 0.0
H3068 H 0.9139 0.28951 0.97036 0.0
H3069 H 0.95091 0.26291 0.93139 0.0
H3070 H 0.92176 0.23401 0.91729 0.0
H3071 H 0.89218 0.23816 0.96601 0.0
C3072 C 0.95621 0.30389 0.99595 0.0
C3073 C 0.97483 0.31681 0.99168 0.0
C3074 C 0.98202 0.31262 0.97507 0.0
C3075 C 0.97079 0.29599 0.9627 0.0
C3076 C 0.95239 0.2837 0.96713 0.0
C3077 C 0.94514 0.28739 0.98336 0.0
C3078 C 0.92464 0.27226 0.98431 0.0
C3079 C 0.92207 0.26103 0.0025 0.0
C3080 C 0.91185 0.28134 0.98351 0.0
C3081 C 0.92146 0.25969 0.96593 0.0
C3082 C 0.93768 0.26644 0.95632 0.0
C3083 C 0.93815 0.25739 0.93885 0.0
C3084 C 0.92156 0.24097 0.93099 0.0
C3085 C 0.90473 0.23386 0.94055 0.0
C3086 C 0.90478 0.24337 0.95827 0.0
H3087 H 0.68449 0.64668 0.02057 0.0
H3088 H 0.68928 0.60235 0.05039 0.0
H3089 H 0.71903 0.61123 0.03588 0.0
H3090 H 0.70023 0.63783 0.9763 0.0
H3091 H 0.71289 0.6627 0.97079 0.0
H3092 H 0.69293 0.65446 0.98513 0.0
H3093 H 0.71371 0.68071 0.01261 0.0
H3094 H 0.73377 0.689 0.99835 0.0
H3095 H 0.73519 0.68202 0.0226 0.0
H3096 H 0.74753 0.62389 0.01789 0.0
H3097 H 0.77203 0.6378 0.99494 0.0
H3098 H 0.74817 0.67246 0.97432 0.0
C3099 C 0.69199 0.63909 0.02425 0.0
C3100 C 0.68467 0.62398 0.03683 0.0
C3101 C 0.69464 0.61404 0.04092 0.0
C3102 C 0.71162 0.61902 0.0328 0.0
C3103 C 0.71839 0.63383 0.02039 0.0
C3104 C 0.70886 0.64362 0.0159 0.0
C3105 C 0.71856 0.65784 0.00079 0.0
C3106 C 0.70536 0.6529 0.98215 0.0
C3107 C 0.72573 0.67863 0.00909 0.0
C3108 C 0.73484 0.65429 0.9974 0.0
C3109 C 0.73457 0.6406 0.00913 0.0
C3110 C 0.74788 0.63458 0.00855 0.0
C3111 C 0.76166 0.64247 0.99533 0.0
C3112 C 0.76191 0.65604 0.9826 0.0
C3113 C 0.74846 0.66224 0.98394 0.0
H3114 H 0.94111 0.64097 0.01252 0.0
H3115 H 0.99506 0.67736 0.98987 0.0
H3116 H 0.98013 0.6907 0.9681 0.0
H3117 H 0.91384 0.62912 0.96687 0.0
H3118 H 0.89382 0.62897 0.97681 0.0
H3119 H 0.90896 0.62328 0.99161 0.0
H3120 H 0.91456 0.65023 0.01768 0.0
H3121 H 0.8994 0.65597 0.00296 0.0
H3122 H 0.9232 0.67447 0.01074 0.0
H3123 H 0.95932 0.70024 0.94894 0.0
H3124 H 0.93357 0.70351 0.93212 0.0
H3125 H 0.89297 0.65935 0.96564 0.0
C3126 C 0.94979 0.6519 0.00313 0.0
C3127 C 0.96925 0.65827 0.00295 0.0
C3128 C 0.98012 0.67232 0.99021 0.0
C3129 C 0.97178 0.68002 0.97786 0.0
C3130 C 0.95252 0.67333 0.97825 0.0
C3131 C 0.94162 0.65947 0.99043 0.0
C3132 C 0.92104 0.654 0.98724 0.0
C3133 C 0.90869 0.63257 0.98021 0.0
C3134 C 0.91415 0.65897 0.00576 0.0
C3135 C 0.92209 0.66689 0.97135 0.0
C3136 C 0.9404 0.67813 0.96654 0.0
C3137 C 0.94491 0.69145 0.9525 0.0
C3138 C 0.93027 0.69323 0.94306 0.0
C3139 C 0.9114 0.68153 0.9475 0.0
C3140 C 0.9073 0.66825 0.96184 0.0
H3141 H 0.37266 0.33166 0.96414 0.0
H3142 H 0.32502 0.3225 0.99616 0.0
H3143 H 0.30663 0.28918 0.98096 0.0
H3144 H 0.34416 0.30337 0.91929 0.0
H3145 H 0.36 0.29441 0.91434 0.0
H3146 H 0.36894 0.31776 0.92705 0.0
H3147 H 0.38317 0.30741 0.95543 0.0
H3148 H 0.37421 0.28402 0.94288 0.0
H3149 H 0.36805 0.28603 0.9672 0.0
H3150 H 0.29501 0.25582 0.96516 0.0
H3151 H 0.29005 0.22585 0.94816 0.0
H3152 H 0.34393 0.25809 0.92344 0.0
C3153 C 0.35829 0.32268 0.96779 0.0
C3154 C 0.35025 0.32956 0.98135 0.0
C3155 C 0.33138 0.31749 0.98571 0.0
C3156 C 0.32086 0.29856 0.97719 0.0
C3157 C 0.32929 0.29213 0.96403 0.0
C3158 C 0.34746 0.30394 0.95909 0.0
C3159 C 0.3533 0.29351 0.94469 0.0
C3160 C 0.3568 0.30282 0.92518 0.0
C3161 C 0.37071 0.29269 0.95306 0.0
C3162 C 0.33582 0.27378 0.94281 0.0
C3163 C 0.32215 0.27324 0.9541 0.0
C3164 C 0.30542 0.25617 0.95588 0.0
C3165 C 0.30268 0.23919 0.946 0.0
C3166 C 0.3165 0.23939 0.93423 0.0
C3167 C 0.3331 0.25714 0.93242 0.0
H3168 H 0.66805 0.03356 0.99808 0.0
H3169 H 0.68984 0.06378 0.05521 0.0
H3170 H 0.72072 0.08477 0.04254 0.0
H3171 H 0.71083 0.03535 0.9839 0.0
H3172 H 0.70715 0.03952 0.95901 0.0
H3173 H 0.6872 0.0262 0.97287 0.0
H3174 H 0.67519 0.05003 0.96558 0.0
H3175 H 0.69506 0.06338 0.95167 0.0
H3176 H 0.69063 0.07547 0.9716 0.0
H3177 H 0.74932 0.10219 0.02355 0.0
H3178 H 0.77251 0.1167 0.99901 0.0
H3179 H 0.7312 0.07641 0.954 0.0
C3180 C 0.67938 0.04449 0.00795 0.0
C3181 C 0.67668 0.04699 0.02765 0.0
C3182 C 0.69168 0.06166 0.04007 0.0
C3183 C 0.70926 0.07357 0.03302 0.0
C3184 C 0.71147 0.07075 0.01349 0.0
C3185 C 0.69686 0.05672 0.00108 0.0
C3186 C 0.70252 0.05736 0.98048 0.0
C3187 C 0.70189 0.03848 0.97367 0.0
C3188 C 0.69011 0.06183 0.96652 0.0
C3189 C 0.72258 0.07397 0.98321 0.0
C3190 C 0.72759 0.08132 0.0024 0.0
C3191 C 0.74554 0.09658 0.00847 0.0
C3192 C 0.75861 0.10467 0.99451 0.0
C3193 C 0.75354 0.09767 0.97472 0.0
C3194 C 0.73533 0.08208 0.96906 0.0
H3195 H 0.62143 0.95334 0.08933 0.0
H3196 H 0.67108 0.0003 0.06791 0.0
H3197 H 0.69042 0.98662 0.08079 0.0
H3198 H 0.64567 0.94972 0.13408 0.0
H3199 H 0.63112 0.92387 0.13287 0.0
H3200 H 0.62175 0.93829 0.12317 0.0
H3201 H 0.61322 0.91843 0.08992 0.0
H3202 H 0.6228 0.90414 0.0994 0.0
H3203 H 0.63143 0.91669 0.07788 0.0
H3204 H 0.7035 0.96572 0.09314 0.0
H3205 H 0.70982 0.94106 0.10643 0.0
H3206 H 0.65178 0.90917 0.12137 0.0
C3207 C 0.63642 0.96092 0.08759 0.0
C3208 C 0.64476 0.97786 0.07761 0.0
C3209 C 0.66443 0.98738 0.07566 0.0
C3210 C 0.67551 0.97966 0.08284 0.0
C3211 C 0.66672 0.96263 0.09218 0.0
C3212 C 0.64768 0.95359 0.09486 0.0
C3213 C 0.64151 0.9353 0.10506 0.0
C3214 C 0.63461 0.9369 0.12498 0.0
C3215 C 0.62635 0.91761 0.09229 0.0
C3216 C 0.65994 0.93516 0.10723 0.0
C3217 C 0.67433 0.951 0.09973 0.0
C3218 C 0.69241 0.95343 0.09936 0.0
C3219 C 0.69587 0.93935 0.107 0.0
C3220 C 0.68133 0.9231 0.115 0.0
C3221 C 0.66319 0.92118 0.11513 0.0
H3222 H 0.05629 0.68672 0.08439 0.0
H3223 H 0.01533 0.69814 0.05408 0.0
H3224 H 0.03089 0.73084 0.07096 0.0
H3225 H 0.05942 0.71224 0.13032 0.0
H3226 H 0.08432 0.7209 0.13511 0.0
H3227 H 0.06959 0.69834 0.12099 0.0
H3228 H 0.09139 0.71061 0.09281 0.0
H3229 H 0.10618 0.73317 0.10684 0.0
H3230 H 0.09611 0.73292 0.08289 0.0
H3231 H 0.0524 0.76309 0.08984 0.0
H3232 H 0.07759 0.79177 0.10927 0.0
H3233 H 0.10281 0.75792 0.12857 0.0
C3234 C 0.05055 0.69606 0.08126 0.0
C3235 C 0.03466 0.68992 0.06783 0.0
C3236 C 0.02749 0.70254 0.06434 0.0
C3237 C 0.03622 0.72112 0.07385 0.0
C3238 C 0.05191 0.7267 0.08699 0.0
C3239 C 0.0589 0.71446 0.09078 0.0
C3240 C 0.076 0.72388 0.10535 0.0
C3241 C 0.07209 0.71321 0.12405 0.0
C3242 C 0.09345 0.72523 0.09643 0.0
C3243 C 0.07786 0.74353 0.10887 0.0
C3244 C 0.06384 0.74492 0.09822 0.0
C3245 C 0.06329 0.76207 0.09846 0.0
C3246 C 0.0776 0.77826 0.10967 0.0
C3247 C 0.09223 0.77717 0.12052 0.0
C3248 C 0.09201 0.75939 0.12032 0.0
H3249 H 0.32649 0.36226 0.06283 0.0
H3250 H 0.30182 0.36659 0.00738 0.0
H3251 H 0.27069 0.35326 0.0208 0.0
H3252 H 0.2869 0.31812 0.07526 0.0
H3253 H 0.28987 0.32579 0.10072 0.0
H3254 H 0.31003 0.33507 0.08657 0.0
H3255 H 0.31797 0.37 0.09665 0.0
H3256 H 0.29791 0.36084 0.11092 0.0
H3257 H 0.30022 0.37689 0.09235 0.0
H3258 H 0.24215 0.33888 0.04022 0.0
H3259 H 0.21897 0.32739 0.06503 0.0
H3260 H 0.26272 0.33392 0.10811 0.0
C3261 C 0.31452 0.36035 0.05349 0.0
C3262 C 0.3165 0.36535 0.03404 0.0
C3263 C 0.30059 0.36287 0.02234 0.0
C3264 C 0.28286 0.35523 0.0298 0.0
C3265 C 0.28136 0.35035 0.04904 0.0
C3266 C 0.29682 0.35302 0.06079 0.0
C3267 C 0.29163 0.34739 0.08118 0.0
C3268 C 0.29479 0.33059 0.08622 0.0
C3269 C 0.30258 0.36482 0.09615 0.0
C3270 C 0.27083 0.34113 0.07909 0.0
C3271 C 0.26511 0.34271 0.06038 0.0
C3272 C 0.24647 0.33761 0.05492 0.0
C3273 C 0.2334 0.331 0.06905 0.0
C3274 C 0.23909 0.32977 0.08841 0.0
C3275 C 0.25803 0.3348 0.09341 0.0
H3276 H 0.71013 0.67745 0.37753 0.0
H3277 H 0.70308 0.71566 0.41817 0.0
H3278 H 0.71874 0.70746 0.44485 0.0
H3279 H 0.70507 0.64069 0.41128 0.0
H3280 H 0.72341 0.63761 0.40124 0.0
H3281 H 0.70927 0.64428 0.38603 0.0
H3282 H 0.73961 0.67426 0.3769 0.0
H3283 H 0.7538 0.66766 0.39204 0.0
H3284 H 0.75612 0.69117 0.39597 0.0
H3285 H 0.73672 0.69666 0.46645 0.0
H3286 H 0.75799 0.68614 0.48113 0.0
H3287 H 0.75549 0.65695 0.42569 0.0
C3288 C 0.71152 0.68365 0.39218 0.0
C3289 C 0.70519 0.69684 0.39609 0.0
C3290 C 0.70771 0.70532 0.41515 0.0
C3291 C 0.71649 0.70069 0.43033 0.0
C3292 C 0.72283 0.68777 0.42604 0.0
C3293 C 0.7206 0.67947 0.40741 0.0
C3294 C 0.73047 0.6677 0.40628 0.0
C3295 C 0.7162 0.6463 0.40089 0.0
C3296 C 0.74592 0.67568 0.39196 0.0
C3297 C 0.73886 0.67095 0.42709 0.0
C3298 C 0.734 0.68226 0.43832 0.0
C3299 C 0.7406 0.68776 0.45783 0.0
C3300 C 0.75279 0.68183 0.46599 0.0
C3301 C 0.75851 0.67078 0.45458 0.0
C3302 C 0.75115 0.66506 0.43495 0.0
H3303 H 0.32636 0.02168 0.40487 0.0
H3304 H 0.3378 0.99614 0.45435 0.0
H3305 H 0.35082 0.02718 0.47396 0.0
H3306 H 0.36825 0.07076 0.41517 0.0
H3307 H 0.3551 0.08225 0.40728 0.0
H3308 H 0.34906 0.05882 0.39644 0.0
H3309 H 0.31464 0.04543 0.40545 0.0
H3310 H 0.32059 0.06872 0.41643 0.0
H3311 H 0.31029 0.04792 0.43043 0.0
H3312 H 0.35853 0.05946 0.48935 0.0
H3313 H 0.36186 0.0913 0.49882 0.0
H3314 H 0.34617 0.09609 0.4393 0.0
C3315 C 0.33206 0.02274 0.41968 0.0
C3316 C 0.33114 0.00651 0.42806 0.0
C3317 C 0.33846 0.00841 0.44758 0.0
C3318 C 0.34589 0.02599 0.45884 0.0
C3319 C 0.34607 0.04156 0.4503 0.0
C3320 C 0.33955 0.04018 0.43109 0.0
C3321 C 0.34009 0.05863 0.42579 0.0
C3322 C 0.35395 0.06818 0.41025 0.0
C3323 C 0.32022 0.05494 0.41914 0.0
C3324 C 0.34733 0.07037 0.44518 0.0
C3325 C 0.35083 0.06032 0.45911 0.0
C3326 C 0.35624 0.06763 0.47849 0.0
C3327 C 0.35806 0.08563 0.48375 0.0
C3328 C 0.35455 0.09605 0.46967 0.0
C3329 C 0.34931 0.08845 0.45016 0.0
H3330 H 0.99271 0.30802 0.40015 0.0
H3331 H 0.97909 0.26935 0.34843 0.0
H3332 H 0.94848 0.24683 0.36056 0.0
H3333 H 0.97319 0.27175 0.43339 0.0
H3334 H 0.96438 0.28421 0.44812 0.0
H3335 H 0.98474 0.29769 0.43489 0.0
H3336 H 0.96813 0.31436 0.41805 0.0
H3337 H 0.94769 0.3009 0.43122 0.0
H3338 H 0.94524 0.29983 0.40504 0.0
H3339 H 0.9199 0.22797 0.37894 0.0
H3340 H 0.89554 0.21407 0.40227 0.0
H3341 H 0.92799 0.26495 0.44211 0.0
C3342 C 0.98323 0.2949 0.39128 0.0
C3343 C 0.98827 0.29046 0.3733 0.0
C3344 C 0.97552 0.27306 0.36222 0.0
C3345 C 0.95809 0.2602 0.36898 0.0
C3346 C 0.95362 0.26496 0.38682 0.0
C3347 C 0.96581 0.2819 0.39781 0.0
C3348 C 0.95789 0.28332 0.41677 0.0
C3349 C 0.97082 0.28429 0.43432 0.0
C3350 C 0.95454 0.30063 0.41782 0.0
C3351 C 0.93941 0.26444 0.41483 0.0
C3352 C 0.93718 0.25409 0.39742 0.0
C3353 C 0.92147 0.23597 0.39259 0.0
C3354 C 0.90776 0.22815 0.40597 0.0
C3355 C 0.90985 0.23841 0.42401 0.0
C3356 C 0.92584 0.25688 0.42833 0.0
H3357 H 0.04607 0.38939 0.3191 0.0
H3358 H 0.99532 0.34117 0.33725 0.0
H3359 H 0.97649 0.35542 0.3243 0.0
H3360 H 0.03504 0.42586 0.33058 0.0
H3361 H 0.04478 0.43901 0.30966 0.0
H3362 H 0.05407 0.42468 0.31974 0.0
H3363 H 0.04752 0.40572 0.28623 0.0
H3364 H 0.03842 0.42015 0.27598 0.0
H3365 H 0.02411 0.39425 0.27401 0.0
H3366 H 0.96373 0.37641 0.31134 0.0
H3367 H 0.95764 0.40078 0.29694 0.0
H3368 H 0.01665 0.43377 0.28548 0.0
C3369 C 0.03097 0.38175 0.32025 0.0
C3370 C 0.02215 0.36423 0.32924 0.0
C3371 C 0.00234 0.35458 0.33032 0.0
C3372 C 0.99156 0.3626 0.3231 0.0
C3373 C 0.00079 0.38009 0.31461 0.0
C3374 C 0.02001 0.38937 0.31289 0.0
C3375 C 0.02656 0.4079 0.30304 0.0
C3376 C 0.04096 0.42539 0.31657 0.0
C3377 C 0.03462 0.40694 0.28366 0.0
C3378 C 0.00809 0.40782 0.2998 0.0
C3379 C 0.99338 0.39174 0.30662 0.0
C3380 C 0.97511 0.38892 0.3057 0.0
C3381 C 0.97178 0.40283 0.29741 0.0
C3382 C 0.98663 0.41928 0.29 0.0
C3383 C 0.00499 0.42163 0.29127 0.0
H3384 H 0.64062 0.648 0.30172 0.0
H3385 H 0.63611 0.6313 0.36091 0.0
H3386 H 0.61515 0.59718 0.34886 0.0
H3387 H 0.59309 0.6186 0.28752 0.0
H3388 H 0.596 0.61263 0.26297 0.0
H3389 H 0.61355 0.63496 0.2757 0.0
H3390 H 0.63942 0.626 0.2697 0.0
H3391 H 0.62192 0.60362 0.25684 0.0
H3392 H 0.63657 0.60346 0.2772 0.0
H3393 H 0.59277 0.56564 0.33079 0.0
H3394 H 0.56811 0.53928 0.30844 0.0
H3395 H 0.58496 0.57689 0.26118 0.0
C3396 C 0.63568 0.637 0.312 0.0
C3397 C 0.64021 0.64199 0.33215 0.0
C3398 C 0.63292 0.62753 0.34539 0.0
C3399 C 0.62111 0.60818 0.33867 0.0
C3400 C 0.61652 0.60367 0.3187 0.0
C3401 C 0.62343 0.61769 0.30555 0.0
C3402 C 0.61426 0.60946 0.2852 0.0
C3403 C 0.60359 0.61951 0.2774 0.0
C3404 C 0.62892 0.61071 0.27142 0.0
C3405 C 0.60079 0.58878 0.28905 0.0
C3406 C 0.60268 0.58563 0.30837 0.0
C3407 C 0.5913 0.56785 0.31559 0.0
C3408 C 0.57739 0.55297 0.3028 0.0
C3409 C 0.57479 0.5561 0.28313 0.0
C3410 C 0.58679 0.57416 0.27615 0.0
H3411 H 0.34861 0.97288 0.36452 0.0
H3412 H 0.33817 0.91686 0.38106 0.0
H3413 H 0.3647 0.9202 0.36302 0.0
H3414 H 0.35895 0.96733 0.31646 0.0
H3415 H 0.3772 0.99204 0.31559 0.0
H3416 H 0.35843 0.98618 0.33119 0.0
H3417 H 0.38294 0.00307 0.36089 0.0
H3418 H 0.40181 0.00908 0.34535 0.0
H3419 H 0.40032 0.99592 0.36637 0.0
H3420 H 0.39105 0.92857 0.34186 0.0
H3421 H 0.41583 0.94165 0.31896 0.0
H3422 H 0.40892 0.99191 0.31531 0.0
C3423 C 0.35213 0.96148 0.36464 0.0
C3424 C 0.34133 0.94463 0.37428 0.0
C3425 C 0.34619 0.92988 0.37377 0.0
C3426 C 0.36128 0.93166 0.3636 0.0
C3427 C 0.37139 0.94825 0.35396 0.0
C3428 C 0.36709 0.96293 0.3544 0.0
C3429 C 0.37962 0.97878 0.34193 0.0
C3430 C 0.36785 0.98121 0.32531 0.0
C3431 C 0.3919 0.99784 0.35438 0.0
C3432 C 0.39146 0.97057 0.33427 0.0
C3433 C 0.38653 0.953 0.34149 0.0
C3434 C 0.39509 0.94235 0.33614 0.0
C3435 C 0.40904 0.94983 0.32301 0.0
C3436 C 0.41428 0.96776 0.31527 0.0
C3437 C 0.4054 0.97828 0.32113 0.0
H3438 H 0.63368 0.98244 0.32336 0.0
H3439 H 0.61442 0.97987 0.38107 0.0
H3440 H 0.59002 0.98726 0.36824 0.0
H3441 H 0.62643 0.02091 0.30778 0.0
H3442 H 0.6181 0.01027 0.28323 0.0
H3443 H 0.6345 0.00559 0.29712 0.0
H3444 H 0.6114 0.96885 0.29133 0.0
H3445 H 0.59495 0.97341 0.27739 0.0
H3446 H 0.58752 0.95905 0.29799 0.0
H3447 H 0.5682 0.99555 0.34917 0.0
H3448 H 0.54877 0.00153 0.32474 0.0
H3449 H 0.58097 0.99661 0.27915 0.0
C3450 C 0.6244 0.98357 0.33331 0.0
C3451 C 0.62599 0.98077 0.35323 0.0
C3452 C 0.61341 0.982 0.36576 0.0
C3453 C 0.59958 0.98625 0.35862 0.0
C3454 C 0.59839 0.98894 0.33888 0.0
C3455 C 0.61032 0.98743 0.32636 0.0
C3456 C 0.60553 0.99008 0.30563 0.0
C3457 C 0.62213 0.00777 0.298 0.0
C3458 C 0.59949 0.97175 0.2923 0.0
C3459 C 0.58908 0.99339 0.30843 0.0
C3460 C 0.58533 0.9929 0.32776 0.0
C3461 C 0.57098 0.99592 0.334 0.0
C3462 C 0.56011 0.99939 0.32009 0.0
C3463 C 0.56351 0.99958 0.30019 0.0
C3464 C 0.57814 0.9965 0.2943 0.0
H3465 H 0.04704 0.65817 0.32659 0.0
H3466 H 1.00016 0.66862 0.31537 0.0
H3467 H 0.98242 0.63727 0.29615 0.0
H3468 H 0.0436 0.6352 0.27988 0.0
H3469 H 0.04939 0.6179 0.2893 0.0
H3470 H 0.05834 0.64112 0.30229 0.0
H3471 H 0.04351 0.62455 0.33324 0.0
H3472 H 0.03456 0.60128 0.32037 0.0
H3473 H 0.01865 0.60724 0.33196 0.0
H3474 H 0.97015 0.60506 0.27727 0.0
H3475 H 0.96402 0.57419 0.26103 0.0
H3476 H 0.01836 0.58436 0.28603 0.0
C3477 C 0.03305 0.65392 0.32008 0.0
C3478 C 0.02505 0.66594 0.32245 0.0
C3479 C 0.00662 0.65969 0.31381 0.0
C3480 C 0.99642 0.6419 0.30283 0.0
C3481 C 0.00478 0.63046 0.30074 0.0
C3482 C 0.02263 0.63617 0.30923 0.0
C3483 C 0.02835 0.62114 0.30491 0.0
C3484 C 0.04596 0.62934 0.29341 0.0
C3485 C 0.03144 0.61308 0.32374 0.0
C3486 C 0.011 0.60617 0.29253 0.0
C3487 C 0.99757 0.6118 0.29024 0.0
C3488 C 0.98051 0.60043 0.27909 0.0
C3489 C 0.97711 0.58285 0.27001 0.0
C3490 C 0.99068 0.57676 0.2722 0.0
C3491 C 0.00778 0.58864 0.28375 0.0
H3492 H 0.35037 0.3968 0.35866 0.0
H3493 H 0.3399 0.33895 0.34366 0.0
H3494 H 0.3682 0.35216 0.3254 0.0
H3495 H 0.36405 0.41394 0.31281 0.0
H3496 H 0.38212 0.43786 0.32181 0.0
H3497 H 0.36239 0.42429 0.33581 0.0
H3498 H 0.38524 0.4284 0.36541 0.0
H3499 H 0.40508 0.44211 0.35153 0.0
H3500 H 0.40268 0.42108 0.36262 0.0
H3501 H 0.39582 0.37092 0.30689 0.0
H3502 H 0.42124 0.39435 0.28861 0.0
H3503 H 0.41414 0.44044 0.31475 0.0
C3504 C 0.35434 0.38701 0.35189 0.0
C3505 C 0.34308 0.36687 0.35267 0.0
C3506 C 0.34838 0.35443 0.34324 0.0
C3507 C 0.36445 0.36179 0.33289 0.0
C3508 C 0.37505 0.38164 0.33199 0.0
C3509 C 0.37028 0.39414 0.3412 0.0
C3510 C 0.38337 0.41475 0.33661 0.0
C3511 C 0.37232 0.4232 0.32614 0.0
C3512 C 0.39477 0.42733 0.35515 0.0
C3513 C 0.39594 0.41177 0.32314 0.0
C3514 C 0.39099 0.39257 0.3209 0.0
C3515 C 0.40003 0.38605 0.30871 0.0
C3516 C 0.41452 0.3995 0.29846 0.0
C3517 C 0.41984 0.41927 0.30037 0.0
C3518 C 0.4104 0.42543 0.31296 0.0
H3519 H 0.29016 0.27603 0.39746 0.0
H3520 H 0.33178 0.33379 0.42087 0.0
H3521 H 0.35069 0.32078 0.43651 0.0
H3522 H 0.29189 0.2511 0.4378 0.0
H3523 H 0.28942 0.23061 0.42331 0.0
H3524 H 0.27954 0.24467 0.41389 0.0
H3525 H 0.29847 0.25026 0.38355 0.0
H3526 H 0.30844 0.23623 0.39288 0.0
H3527 H 0.32373 0.26052 0.38671 0.0
H3528 H 0.36377 0.30077 0.45127 0.0
H3529 H 0.3704 0.27588 0.46315 0.0
H3530 H 0.32147 0.23195 0.42719 0.0
C3531 C 0.30324 0.286 0.40587 0.0
C3532 C 0.30944 0.30591 0.40808 0.0
C3533 C 0.32676 0.31847 0.41903 0.0
C3534 C 0.33759 0.31122 0.42793 0.0
C3535 C 0.33103 0.29147 0.4254 0.0
C3536 C 0.31433 0.2791 0.41448 0.0
C3537 C 0.31033 0.25851 0.41387 0.0
C3538 C 0.2917 0.24546 0.42275 0.0
C3539 C 0.31025 0.25094 0.39301 0.0
C3540 C 0.32717 0.2611 0.42657 0.0
C3541 C 0.33896 0.28018 0.4331 0.0
C3542 C 0.35482 0.28583 0.44596 0.0
C3543 C 0.35855 0.27156 0.4525 0.0
C3544 C 0.34654 0.25186 0.44606 0.0
C3545 C 0.33088 0.24678 0.43259 0.0
H3546 H 0.73294 0.03254 0.39937 0.0
H3547 H 0.67644 0.02157 0.40869 0.0
H3548 H 0.69021 0.05282 0.42833 0.0
H3549 H 0.75333 0.05253 0.44634 0.0
H3550 H 0.77574 0.07002 0.43849 0.0
H3551 H 0.76131 0.04764 0.42408 0.0
H3552 H 0.76185 0.06635 0.39408 0.0
H3553 H 0.77638 0.08882 0.4084 0.0
H3554 H 0.75442 0.08412 0.39591 0.0
H3555 H 0.71089 0.08523 0.4483 0.0
H3556 H 0.73626 0.11484 0.46689 0.0
H3557 H 0.77828 0.10305 0.44415 0.0
C3558 C 0.72333 0.03665 0.40536 0.0
C3559 C 0.70357 0.02452 0.40247 0.0
C3560 C 0.69164 0.03061 0.41066 0.0
C3561 C 0.69933 0.04834 0.42182 0.0
C3562 C 0.71894 0.05979 0.42457 0.0
C3563 C 0.73071 0.05412 0.41647 0.0
C3564 C 0.75125 0.06843 0.42205 0.0
C3565 C 0.76097 0.05909 0.43342 0.0
C3566 C 0.76158 0.07746 0.40404 0.0
C3567 C 0.74929 0.08293 0.43491 0.0
C3568 C 0.73061 0.07793 0.43609 0.0
C3569 C 0.72555 0.08927 0.44742 0.0
C3570 C 0.73999 0.10602 0.45788 0.0
C3571 C 0.75913 0.111 0.45708 0.0
C3572 C 0.76373 0.09938 0.44527 0.0
H3573 H 0.97784 0.71171 0.3683 0.0
H3574 H 0.9969 0.67513 0.39438 0.0
H3575 H 0.9681 0.65961 0.41162 0.0
H3576 H 0.95861 0.71961 0.41051 0.0
H3577 H 0.9386 0.71914 0.39763 0.0
H3578 H 0.96004 0.72659 0.3859 0.0
H3579 H 0.94142 0.70051 0.3576 0.0
H3580 H 0.91989 0.693 0.36923 0.0
H3581 H 0.92717 0.67571 0.36286 0.0
H3582 H 0.93853 0.64906 0.42734 0.0
H3583 H 0.90965 0.64435 0.44132 0.0
H3584 H 0.90879 0.68744 0.40563 0.0
C3585 C 0.97578 0.70026 0.37744 0.0
C3586 C 0.98961 0.69461 0.37995 0.0
C3587 C 0.98655 0.67976 0.39225 0.0
C3588 C 0.97019 0.67078 0.40208 0.0
C3589 C 0.95696 0.6768 0.39955 0.0
C3590 C 0.95948 0.69119 0.38758 0.0
C3591 C 0.94334 0.69546 0.38835 0.0
C3592 C 0.95059 0.71645 0.39606 0.0
C3593 C 0.9323 0.69089 0.36832 0.0
C3594 C 0.93158 0.6814 0.40279 0.0
C3595 C 0.93969 0.6707 0.40887 0.0
C3596 C 0.93189 0.65716 0.42252 0.0
C3597 C 0.91536 0.65449 0.43028 0.0
C3598 C 0.90672 0.6653 0.42441 0.0
C3599 C 0.915 0.67892 0.41041 0.0
H3600 H 0.3776 0.01122 0.72241 0.0
H3601 H 0.38749 0.06439 0.75248 0.0
H3602 H 0.40363 0.05866 0.78059 0.0
H3603 H 0.37204 0.98329 0.76605 0.0
H3604 H 0.38487 0.97228 0.75648 0.0
H3605 H 0.37132 0.97876 0.74014 0.0
H3606 H 0.4011 0.99925 0.72211 0.0
H3607 H 0.4147 0.99282 0.73835 0.0
H3608 H 0.42218 0.01784 0.73572 0.0
H3609 H 0.42122 0.04909 0.80372 0.0
H3610 H 0.4409 0.03731 0.81975 0.0
H3611 H 0.42113 0.99105 0.77416 0.0
C3612 C 0.38271 0.02128 0.73521 0.0
C3613 C 0.3811 0.03804 0.73564 0.0
C3614 C 0.38849 0.05137 0.75216 0.0
C3615 C 0.39757 0.04818 0.76816 0.0
C3616 C 0.39928 0.03169 0.76726 0.0
C3617 C 0.39215 0.01847 0.7512 0.0
C3618 C 0.39788 0.0032 0.75302 0.0
C3619 C 0.38048 0.98319 0.75398 0.0
C3620 C 0.40967 0.0033 0.73631 0.0
C3621 C 0.40972 0.01019 0.77234 0.0
C3622 C 0.41003 0.02644 0.78045 0.0
C3623 C 0.42093 0.03625 0.79764 0.0
C3624 C 0.43213 0.02952 0.80658 0.0
C3625 C 0.43249 0.01326 0.79822 0.0
C3626 C 0.42081 0.00326 0.78111 0.0
H3627 H 0.99423 0.34199 0.78224 0.0
H3628 H 0.00945 0.3582 0.724 0.0
H3629 H 0.02233 0.39249 0.73508 0.0
H3630 H 0.9769 0.37329 0.79029 0.0
H3631 H 0.98475 0.37919 0.81579 0.0
H3632 H 0.97994 0.3564 0.80443 0.0
H3633 H 0.01371 0.36375 0.81582 0.0
H3634 H 0.01859 0.38654 0.82737 0.0
H3635 H 0.03375 0.38577 0.80975 0.0
H3636 H 0.03084 0.42433 0.75148 0.0
H3637 H 0.03282 0.45158 0.7716 0.0
H3638 H 0.01033 0.41471 0.81889 0.0
C3639 C 0.00088 0.35289 0.77206 0.0
C3640 C 0.00128 0.34766 0.7524 0.0
C3641 C 0.00929 0.36208 0.73918 0.0
C3642 C 0.01667 0.38154 0.74535 0.0
C3643 C 0.01566 0.38627 0.76473 0.0
C3644 C 0.00789 0.37237 0.7779 0.0
C3645 C 0.00644 0.38106 0.79722 0.0
C3646 C 0.98578 0.37194 0.80221 0.0
C3647 C 0.01887 0.37917 0.8135 0.0
C3648 C 0.0142 0.40188 0.7927 0.0
C3649 C 0.01978 0.40462 0.77401 0.0
C3650 C 0.02675 0.42244 0.76623 0.0
C3651 C 0.02788 0.43784 0.77778 0.0
C3652 C 0.02185 0.43527 0.79683 0.0
C3653 C 0.01507 0.41707 0.80439 0.0
H3654 H 0.64828 0.61754 0.70326 0.0
H3655 H 0.66794 0.67435 0.73182 0.0
H3656 H 0.63995 0.66126 0.75044 0.0
H3657 H 0.59725 0.60167 0.70097 0.0
H3658 H 0.59068 0.57734 0.70611 0.0
H3659 H 0.6114 0.59136 0.69351 0.0
H3660 H 0.63162 0.58546 0.71956 0.0
H3661 H 0.611 0.57152 0.73228 0.0
H3662 H 0.63144 0.59193 0.74483 0.0
H3663 H 0.61166 0.64216 0.76779 0.0
H3664 H 0.5842 0.61791 0.78299 0.0
H3665 H 0.58174 0.57298 0.74331 0.0
C3666 C 0.64647 0.62724 0.71317 0.0
C3667 C 0.66026 0.64698 0.71605 0.0
C3668 C 0.65759 0.65918 0.7294 0.0
C3669 C 0.64169 0.6519 0.74001 0.0
C3670 C 0.62854 0.63236 0.73715 0.0
C3671 C 0.63065 0.62015 0.72406 0.0
C3672 C 0.61484 0.59951 0.72474 0.0
C3673 C 0.60283 0.59203 0.70516 0.0
C3674 C 0.6227 0.58633 0.73071 0.0
C3675 C 0.60383 0.60207 0.7405 0.0
C3676 C 0.61195 0.62119 0.7473 0.0
C3677 C 0.60494 0.62717 0.76238 0.0
C3678 C 0.58921 0.61325 0.77084 0.0
C3679 C 0.58053 0.59349 0.76421 0.0
C3680 C 0.58798 0.58792 0.74873 0.0
H3681 H 0.68613 0.69871 0.64002 0.0
H3682 H 0.70402 0.72758 0.69797 0.0
H3683 H 0.6864 0.74467 0.69146 0.0
H3684 H 0.69053 0.73895 0.61626 0.0
H3685 H 0.67009 0.72538 0.59924 0.0
H3686 H 0.68274 0.71408 0.609 0.0
H3687 H 0.65183 0.68727 0.62115 0.0
H3688 H 0.63912 0.69863 0.61153 0.0
H3689 H 0.63858 0.69379 0.63682 0.0
H3690 H 0.66921 0.76038 0.67827 0.0
H3691 H 0.65427 0.775 0.65838 0.0
H3692 H 0.64679 0.7361 0.60883 0.0
C3693 C 0.68612 0.70852 0.6513 0.0
C3694 C 0.69663 0.71217 0.66939 0.0
C3695 C 0.69644 0.72506 0.68387 0.0
C3696 C 0.68626 0.73461 0.6804 0.0
C3697 C 0.67626 0.73101 0.66236 0.0
C3698 C 0.67608 0.71834 0.64799 0.0
C3699 C 0.66517 0.71819 0.62945 0.0
C3700 C 0.67789 0.72453 0.6125 0.0
C3701 C 0.64763 0.69828 0.62445 0.0
C3702 C 0.65969 0.73309 0.63556 0.0
C3703 C 0.66604 0.74008 0.65471 0.0
C3704 C 0.6639 0.75485 0.66335 0.0
C3705 C 0.65542 0.76306 0.652 0.0
C3706 C 0.6492 0.75645 0.63226 0.0
C3707 C 0.651 0.74101 0.62406 0.0
H3708 H 0.31287 0.9811 0.65489 0.0
H3709 H 0.28738 0.98427 0.70747 0.0
H3710 H 0.25936 0.95276 0.69714 0.0
H3711 H 0.27199 0.9625 0.6238 0.0
H3712 H 0.27692 0.94688 0.60867 0.0
H3713 H 0.29605 0.96834 0.62127 0.0
H3714 H 0.30885 0.94802 0.63762 0.0
H3715 H 0.28981 0.92645 0.62493 0.0
H3716 H 0.29349 0.9281 0.65106 0.0
H3717 H 0.23302 0.92278 0.67977 0.0
H3718 H 0.21021 0.89584 0.65675 0.0
H3719 H 0.25251 0.91226 0.61513 0.0
C3720 C 0.30161 0.97494 0.66447 0.0
C3721 C 0.30234 0.98506 0.68205 0.0
C3722 C 0.28714 0.97671 0.69398 0.0
C3723 C 0.27119 0.95882 0.68825 0.0
C3724 C 0.27069 0.94945 0.67058 0.0
C3725 C 0.28553 0.95713 0.65891 0.0
C3726 C 0.28085 0.94483 0.63995 0.0
C3727 C 0.28149 0.95633 0.62239 0.0
C3728 C 0.29404 0.93635 0.6383 0.0
C3729 C 0.26087 0.9293 0.64259 0.0
C3730 C 0.25536 0.93216 0.66044 0.0
C3731 C 0.23722 0.92029 0.66583 0.0
C3732 C 0.22433 0.90514 0.65261 0.0
C3733 C 0.22959 0.90204 0.63415 0.0
C3734 C 0.24819 0.91417 0.62922 0.0
H3735 H 0.01717 0.3114 0.68875 0.0
H3736 H 0.02255 0.26802 0.71982 0.0
H3737 H 0.05141 0.27561 0.70392 0.0
H3738 H 0.03087 0.30044 0.64395 0.0
H3739 H 0.04347 0.32502 0.63751 0.0
H3740 H 0.02413 0.31757 0.65263 0.0
H3741 H 0.04597 0.34458 0.67904 0.0
H3742 H 0.06541 0.3521 0.664 0.0
H3743 H 0.06764 0.34593 0.68843 0.0
H3744 H 0.07918 0.28724 0.6846 0.0
H3745 H 0.10318 0.30058 0.66107 0.0
H3746 H 0.0789 0.33483 0.64023 0.0
C3747 C 0.02461 0.30373 0.69238 0.0
C3748 C 0.01772 0.28926 0.70569 0.0
C3749 C 0.02758 0.27921 0.70975 0.0
C3750 C 0.04404 0.28346 0.70084 0.0
C3751 C 0.05038 0.29765 0.6877 0.0
C3752 C 0.04094 0.30753 0.68329 0.0
C3753 C 0.05013 0.32112 0.66756 0.0
C3754 C 0.03633 0.3157 0.64933 0.0
C3755 C 0.05774 0.34218 0.67522 0.0
C3756 C 0.0661 0.31719 0.66378 0.0
C3757 C 0.06607 0.30378 0.67577 0.0
C3758 C 0.0793 0.29766 0.67503 0.0
C3759 C 0.09278 0.30522 0.66146 0.0
C3760 C 0.09284 0.31858 0.64853 0.0
C3761 C 0.07939 0.32477 0.64995 0.0
H3762 H 0.30637 0.32763 0.6494 0.0
H3763 H 0.28881 0.32936 0.70726 0.0
H3764 H 0.26811 0.34151 0.69462 0.0
H3765 H 0.30485 0.36993 0.63271 0.0
H3766 H 0.2952 0.35884 0.60852 0.0
H3767 H 0.31023 0.3523 0.62239 0.0
H3768 H 0.28413 0.31639 0.61788 0.0
H3769 H 0.26903 0.32282 0.60402 0.0
H3770 H 0.2609 0.30947 0.62518 0.0
H3771 H 0.2486 0.35226 0.67578 0.0
H3772 H 0.22948 0.35858 0.65146 0.0
H3773 H 0.25797 0.34804 0.60524 0.0
C3774 C 0.29841 0.33093 0.65941 0.0
C3775 C 0.2993 0.32782 0.67933 0.0
C3776 C 0.28833 0.33174 0.69196 0.0
C3777 C 0.27662 0.33872 0.68494 0.0
C3778 C 0.27586 0.34144 0.66519 0.0
C3779 C 0.2863 0.33751 0.65254 0.0
C3780 C 0.28162 0.3401 0.63172 0.0
C3781 C 0.29901 0.35626 0.62334 0.0
C3782 C 0.27343 0.32106 0.61895 0.0
C3783 C 0.26679 0.34591 0.63465 0.0
C3784 C 0.26395 0.34691 0.65412 0.0
C3785 C 0.25079 0.35168 0.6605 0.0
C3786 C 0.24008 0.35534 0.64661 0.0
C3787 C 0.24243 0.354 0.62654 0.0
C3788 C 0.25601 0.34927 0.62051 0.0
H3789 H 0.70262 0.98525 0.64612 0.0
H3790 H 0.65579 0.99595 0.63586 0.0
H3791 H 0.63807 0.96485 0.61598 0.0
H3792 H 0.69891 0.96233 0.59883 0.0
H3793 H 0.70487 0.9452 0.60842 0.0
H3794 H 0.71396 0.9686 0.62107 0.0
H3795 H 0.69964 0.9525 0.65241 0.0
H3796 H 0.69051 0.92907 0.63987 0.0
H3797 H 0.67479 0.93524 0.65158 0.0
H3798 H 0.62534 0.93195 0.59755 0.0
H3799 H 0.61875 0.90034 0.58264 0.0
H3800 H 0.67374 0.91152 0.60651 0.0
C3801 C 0.68872 0.98125 0.63956 0.0
C3802 C 0.68067 0.99316 0.64248 0.0
C3803 C 0.6623 0.98711 0.63381 0.0
C3804 C 0.65213 0.96948 0.62248 0.0
C3805 C 0.6605 0.95806 0.62005 0.0
C3806 C 0.67838 0.96374 0.6284 0.0
C3807 C 0.68406 0.94869 0.62422 0.0
C3808 C 0.70148 0.95669 0.61243 0.0
C3809 C 0.68744 0.94092 0.64314 0.0
C3810 C 0.66659 0.9336 0.61217 0.0
C3811 C 0.65315 0.93922 0.60982 0.0
C3812 C 0.63579 0.92743 0.59931 0.0
C3813 C 0.63213 0.90946 0.59099 0.0
C3814 C 0.64576 0.90345 0.59329 0.0
C3815 C 0.66315 0.91578 0.60409 0.0
H3816 H 0.01259 0.72639 0.69111 0.0
H3817 H 0.00434 0.66928 0.67693 0.0
H3818 H 0.03441 0.68354 0.66149 0.0
H3819 H 0.02943 0.74432 0.64656 0.0
H3820 H 0.04637 0.76837 0.65644 0.0
H3821 H 0.02562 0.75403 0.66879 0.0
H3822 H 0.04653 0.75852 0.70028 0.0
H3823 H 0.06739 0.77295 0.68802 0.0
H3824 H 0.06475 0.75205 0.69955 0.0
H3825 H 0.06405 0.70357 0.64578 0.0
H3826 H 0.09048 0.72801 0.6291 0.0
H3827 H 0.07898 0.77214 0.65207 0.0
C3828 C 0.01739 0.71698 0.68514 0.0
C3829 C 0.00633 0.69678 0.68536 0.0
C3830 C 0.0127 0.68482 0.67694 0.0
C3831 C 0.02978 0.69278 0.66823 0.0
C3832 C 0.04023 0.71272 0.6679 0.0
C3833 C 0.03427 0.7247 0.67604 0.0
C3834 C 0.04727 0.74549 0.67206 0.0
C3835 C 0.03653 0.75351 0.66026 0.0
C3836 C 0.05707 0.75799 0.69112 0.0
C3837 C 0.06119 0.74325 0.66012 0.0
C3838 C 0.05706 0.72428 0.65819 0.0
C3839 C 0.06756 0.71851 0.64733 0.0
C3840 C 0.08257 0.73249 0.63798 0.0
C3841 C 0.08678 0.75194 0.63935 0.0
C3842 C 0.07604 0.75736 0.65075 0.0
H3843 H 0.94701 0.60429 0.73165 0.0
H3844 H 0.99199 0.66261 0.74891 0.0
H3845 H 0.0101 0.64955 0.766 0.0
H3846 H 0.94976 0.58329 0.77548 0.0
H3847 H 0.94512 0.56089 0.76315 0.0
H3848 H 0.93581 0.57494 0.75242 0.0
H3849 H 0.95207 0.57559 0.72101 0.0
H3850 H 0.9615 0.5616 0.73167 0.0
H3851 H 0.97714 0.58447 0.72258 0.0
H3852 H 0.02279 0.62996 0.78198 0.0
H3853 H 0.02908 0.60546 0.7956 0.0
H3854 H 0.97654 0.56021 0.76594 0.0
C3855 C 0.96062 0.61437 0.7391 0.0
C3856 C 0.96803 0.63448 0.73902 0.0
C3857 C 0.98601 0.64713 0.74878 0.0
C3858 C 0.9964 0.63987 0.75851 0.0
C3859 C 0.9887 0.61995 0.75816 0.0
C3860 C 0.97124 0.6074 0.74866 0.0
C3861 C 0.96614 0.58663 0.75031 0.0
C3862 C 0.94815 0.57581 0.76098 0.0
C3863 C 0.9641 0.57648 0.7302 0.0
C3864 C 0.98338 0.58943 0.76245 0.0
C3865 C 0.99623 0.60873 0.76684 0.0
C3866 C 0.01292 0.6148 0.77846 0.0
C3867 C 0.01645 0.60075 0.78598 0.0
C3868 C 0.00337 0.58085 0.78177 0.0
C3869 C 0.98677 0.57525 0.7696 0.0
H3870 H 0.39763 0.35913 0.74012 0.0
H3871 H 0.34381 0.3579 0.73825 0.0
H3872 H 0.35902 0.38918 0.75791 0.0
H3873 H 0.41418 0.38046 0.7892 0.0
H3874 H 0.4383 0.3947 0.78343 0.0
H3875 H 0.4229 0.37197 0.76989 0.0
H3876 H 0.42987 0.38894 0.7377 0.0
H3877 H 0.4453 0.4117 0.75113 0.0
H3878 H 0.42591 0.40902 0.73504 0.0
H3879 H 0.38081 0.42142 0.77713 0.0
H3880 H 0.40702 0.45137 0.79403 0.0
H3881 H 0.446 0.43082 0.78233 0.0
C3882 C 0.38889 0.36526 0.74391 0.0
C3883 C 0.36946 0.35595 0.73765 0.0
C3884 C 0.35871 0.3647 0.7429 0.0
C3885 C 0.36722 0.38246 0.75408 0.0
C3886 C 0.38646 0.39125 0.75988 0.0
C3887 C 0.39711 0.38288 0.75496 0.0
C3888 C 0.41758 0.39534 0.76245 0.0
C3889 C 0.42358 0.385 0.77712 0.0
C3890 C 0.43041 0.40162 0.74558 0.0
C3891 C 0.41689 0.41216 0.77232 0.0
C3892 C 0.39885 0.40959 0.77076 0.0
C3893 C 0.39497 0.42353 0.77847 0.0
C3894 C 0.40994 0.44052 0.78796 0.0
C3895 C 0.42854 0.44338 0.78963 0.0
C3896 C 0.43191 0.42892 0.78169 0.0
H3897 H 0.65207 0.02198 0.72662 0.0
H3898 H 0.6315 0.03241 0.67182 0.0
H3899 H 0.60104 0.02375 0.6853 0.0
H3900 H 0.60801 0.98185 0.73879 0.0
H3901 H 0.61228 0.98956 0.76434 0.0
H3902 H 0.63185 0.99534 0.7499 0.0
H3903 H 0.64598 0.03159 0.76055 0.0
H3904 H 0.62646 0.02594 0.775 0.0
H3905 H 0.63181 0.0429 0.75667 0.0
H3906 H 0.57278 0.01391 0.70507 0.0
H3907 H 0.55 0.00611 0.73014 0.0
H3908 H 0.59002 0.00403 0.77238 0.0
C3909 C 0.64108 0.02222 0.71737 0.0
C3910 C 0.64403 0.02766 0.69811 0.0
C3911 C 0.62947 0.02821 0.6866 0.0
C3912 C 0.61213 0.02327 0.69412 0.0
C3913 C 0.60971 0.01805 0.71323 0.0
C3914 C 0.62387 0.01768 0.72474 0.0
C3915 C 0.61818 0.01266 0.74514 0.0
C3916 C 0.61754 0.99373 0.74981 0.0
C3917 C 0.63139 0.02926 0.76022 0.0
C3918 C 0.5986 0.0103 0.74336 0.0
C3919 C 0.59385 0.01321 0.72478 0.0
C3920 C 0.57637 0.01163 0.71965 0.0
C3921 C 0.56351 0.00713 0.73394 0.0
C3922 C 0.56831 0.00454 0.75315 0.0
C3923 C 0.58606 0.00608 0.75783 0.0
loop_
_geom_bond_atom_site_label_1
_geom_bond_atom_site_label_2
_geom_bond_distance
_geom_bond_site_symmetry_2
_ccdc_geom_bond_type
Mn0 O5 2.095 1_655 S
Mn0 O15 2.162 . S
Mn0 O16 2.284 1_554 S
Mn0 O24 2.426 . S
Mn0 O25 2.209 1_655 S
Mn0 O26 2.094 . S
Mn1 O6 2.121 . S
Mn1 N8 2.257 . S
Mn1 N17 2.282 . S
Mn1 O25 2.215 . S
Mn1 O27 2.117 . S
C2 O24 1.223 1_456 S
C2 O25 1.283 1_556 S
C3 O15 1.281 . S
C3 O16 1.229 1_554 S
C4 O26 1.240 1_455 S
C4 O27 1.264 . S
O5 Mn0 2.095 1_455 S
O5 C14 1.250 . S
O6 Mn1 2.121 . S
O6 C14 1.258 . S
C7 N8 1.326 . S
C7 C11 1.467 . S
C7 H13 0.929 . S
N8 Mn1 2.257 . S
N8 C7 1.326 . S
N8 C12 1.362 . S
C9 C10 1.258 . S
C9 C12 1.431 1_556 S
C9 C29 1.449 . S
C10 C9 1.258 . S
C10 C11 1.473 1_556 S
C10 H30 0.931 . S
C11 C7 1.467 . S
C11 C10 1.473 1_554 S
C11 H31 0.928 1_554 S
C12 N8 1.362 . S
C12 C9 1.431 1_554 S
C12 C22 1.476 . S
H13 C7 0.929 . S
C14 O5 1.250 . S
C14 O6 1.258 . S
O15 Mn0 2.162 . S
O15 C3 1.281 . S
O16 Mn0 2.284 1_556 S
O16 C3 1.229 1_556 S
N17 Mn1 2.282 . S
N17 C18 1.328 . S
N17 C22 1.318 . S
C18 N17 1.328 . S
C18 C19 1.457 . S
C18 H23 0.929 . S
C19 C18 1.457 . S
C19 C20 1.291 . S
C19 H32 0.931 . S
C20 C19 1.291 . S
C20 C21 1.373 . S
C20 H33 0.929 . S
C21 C20 1.373 . S
C21 C22 1.396 . S
C21 C28 1.403 1_554 S
C22 C12 1.476 . S
C22 N17 1.318 . S
C22 C21 1.396 . S
H23 C18 0.929 . S
O24 Mn0 2.426 . S
O24 C2 1.223 1_654 S
O25 Mn0 2.209 1_455 S
O25 Mn1 2.215 . S
O25 C2 1.283 1_554 S
O26 Mn0 2.094 . S
O26 C4 1.240 1_655 S
O27 Mn1 2.117 . S
O27 C4 1.264 . S
C28 C21 1.403 1_556 S
C28 C29 1.399 . S
C28 H34 0.929 . S
C29 C9 1.449 . S
C29 C28 1.399 . S
C29 H35 0.930 . S
H30 C10 0.931 . S
H31 C11 0.928 1_556 S
H32 C19 0.931 . S
H33 C20 0.929 . S
H34 C28 0.929 . S
H35 C29 0.930 . S
Mn36 O41 2.095 . S
Mn36 O51 2.162 . S
Mn36 O52 2.297 . S
Mn36 O60 2.385 . S
Mn36 O61 2.209 . S
Mn36 O62 2.094 . S
Mn37 O42 2.121 . S
Mn37 N44 2.257 . S
Mn37 N53 2.282 . S
Mn37 O61 2.215 . S
Mn37 O63 2.117 . S
C38 O60 1.234 . S
C38 O61 1.283 . S
C39 O51 1.281 . S
C39 O52 1.236 . S
C40 O62 1.240 . S
C40 O63 1.264 . S
O41 Mn36 2.095 . S
O41 C50 1.250 . S
O42 Mn37 2.121 . S
O42 C50 1.258 . S
C43 N44 1.326 . S
C43 C47 1.460 . S
C43 H49 0.929 . S
N44 Mn37 2.257 . S
N44 C43 1.326 . S
N44 C48 1.362 . S
C45 C46 1.258 . S
C45 C48 1.431 . S
C45 C65 1.449 . S
C46 C45 1.258 . S
C46 C47 1.477 . S
C46 H66 0.931 . S
C47 C43 1.460 . S
C47 C46 1.477 . S
C47 H67 0.930 . S
C48 N44 1.362 . S
C48 C45 1.431 . S
C48 C58 1.476 . S
H49 C43 0.929 . S
C50 O41 1.250 . S
C50 O42 1.258 . S
O51 Mn36 2.162 . S
O51 C39 1.281 . S
O52 Mn36 2.297 . S
O52 C39 1.236 . S
N53 Mn37 2.282 . S
N53 C54 1.328 . S
N53 C58 1.318 . S
C54 N53 1.328 . S
C54 C55 1.457 . S
C54 H59 0.929 . S
C55 C54 1.457 . S
C55 C56 1.291 . S
C55 H68 0.931 . S
C56 C55 1.291 . S
C56 C57 1.373 . S
C56 H69 0.929 . S
C57 C56 1.373 . S
C57 C58 1.396 . S
C57 C64 1.403 . S
C58 C48 1.476 . S
C58 N53 1.318 . S
C58 C57 1.396 . S
H59 C54 0.929 . S
O60 Mn36 2.385 . S
O60 C38 1.234 . S
O61 Mn36 2.209 . S
O61 Mn37 2.215 . S
O61 C38 1.283 . S
O62 Mn36 2.094 . S
O62 C40 1.240 . S
O63 Mn37 2.117 . S
O63 C40 1.264 . S
C64 C57 1.403 . S
C64 C65 1.399 . S
C64 H70 0.929 . S
C65 C45 1.449 . S
C65 C64 1.399 . S
C65 H71 0.930 . S
H66 C46 0.931 . S
H67 C47 0.930 . S
H68 C55 0.931 . S
H69 C56 0.929 . S
H70 C64 0.929 . S
H71 C65 0.930 . S
Mn72 O77 2.095 1_565 S
Mn72 O87 2.162 . S
Mn72 O88 2.297 . S
Mn72 O96 2.385 . S
Mn72 O97 2.209 1_565 S
Mn72 O98 2.139 . S
Mn73 O78 2.121 . S
Mn73 N80 2.257 . S
Mn73 N89 2.282 . S
Mn73 O97 2.215 . S
Mn73 O99 2.117 . S
C74 O96 1.234 1_545 S
C74 O97 1.283 . S
C75 O87 1.281 . S
C75 O88 1.236 . S
C76 O98 1.215 1_556 S
C76 O99 1.264 1_566 S
O77 Mn72 2.095 1_545 S
O77 C86 1.250 . S
O78 Mn73 2.121 . S
O78 C86 1.258 . S
C79 N80 1.326 . S
C79 C83 1.460 . S
C79 H85 0.929 . S
N80 Mn73 2.257 . S
N80 C79 1.326 . S
N80 C84 1.362 . S
C81 C82 1.258 . S
C81 C84 1.431 . S
C81 C101 1.449 . S
C82 C81 1.258 . S
C82 C83 1.477 . S
C82 H102 0.931 . S
C83 C79 1.460 . S
C83 C82 1.477 . S
C83 H103 0.930 . S
C84 N80 1.362 . S
C84 C81 1.431 . S
C84 C94 1.476 . S
H85 C79 0.929 . S
C86 O77 1.250 . S
C86 O78 1.258 . S
O87 Mn72 2.162 . S
O87 C75 1.281 . S
O88 Mn72 2.297 . S
O88 C75 1.236 . S
N89 Mn73 2.282 . S
N89 C90 1.328 . S
N89 C94 1.318 . S
C90 N89 1.328 . S
C90 C91 1.457 . S
C90 H95 0.929 . S
C91 C90 1.457 . S
C91 C92 1.291 . S
C91 H104 0.931 . S
C92 C91 1.291 . S
C92 C93 1.373 . S
C92 H105 0.929 . S
C93 C92 1.373 . S
C93 C94 1.396 . S
C93 C100 1.403 . S
C94 C84 1.476 . S
C94 N89 1.318 . S
C94 C93 1.396 . S
H95 C90 0.929 . S
O96 Mn72 2.385 . S
O96 C74 1.234 1_565 S
O97 Mn72 2.209 1_545 S
O97 Mn73 2.215 . S
O97 C74 1.283 . S
O98 Mn72 2.139 . S
O98 C76 1.215 1_554 S
O99 Mn73 2.117 . S
O99 C76 1.264 1_544 S
C100 C93 1.403 . S
C100 C101 1.399 . S
C100 H106 0.929 . S
C101 C81 1.449 . S
C101 C100 1.399 . S
C101 H107 0.930 . S
H102 C82 0.931 . S
H103 C83 0.930 . S
H104 C91 0.931 . S
H105 C92 0.929 . S
H106 C100 0.929 . S
H107 C101 0.930 . S
Mn108 O113 2.095 1_655 S
Mn108 O123 2.162 . S
Mn108 O124 2.297 . S
Mn108 O132 2.385 . S
Mn108 O133 2.209 1_655 S
Mn108 O134 2.094 . S
Mn109 O114 2.121 . S
Mn109 N116 2.257 . S
Mn109 N125 2.282 . S
Mn109 O133 2.215 . S
Mn109 O135 2.117 . S
C110 O132 1.234 1_455 S
C110 O133 1.283 . S
C111 O123 1.281 . S
C111 O124 1.236 . S
C112 O134 1.240 . S
C112 O135 1.264 1_655 S
O113 Mn108 2.095 1_455 S
O113 C122 1.250 . S
O114 Mn109 2.121 . S
O114 C122 1.258 . S
C115 N116 1.326 . S
C115 C119 1.460 . S
C115 H121 0.929 . S
N116 Mn109 2.257 . S
N116 C115 1.326 . S
N116 C120 1.362 . S
C117 C118 1.258 . S
C117 C120 1.431 . S
C117 C137 1.449 . S
C118 C117 1.258 . S
C118 C119 1.477 . S
C118 H138 0.931 . S
C119 C115 1.460 . S
C119 C118 1.477 . S
C119 H139 0.930 . S
C120 N116 1.362 . S
C120 C117 1.431 . S
C120 C130 1.476 . S
H121 C115 0.929 . S
C122 O113 1.250 . S
C122 O114 1.258 . S
O123 Mn108 2.162 . S
O123 C111 1.281 . S
O124 Mn108 2.297 . S
O124 C111 1.236 . S
N125 Mn109 2.282 . S
N125 C126 1.328 . S
N125 C130 1.318 . S
C126 N125 1.328 . S
C126 C127 1.457 . S
C126 H131 0.929 . S
C127 C126 1.457 . S
C127 C128 1.291 . S
C127 H140 0.931 . S
C128 C127 1.291 . S
C128 C129 1.373 . S
C128 H141 0.929 . S
C129 C128 1.373 . S
C129 C130 1.396 . S
C129 C136 1.403 . S
C130 C120 1.476 . S
C130 N125 1.318 . S
C130 C129 1.396 . S
H131 C126 0.929 . S
O132 Mn108 2.385 . S
O132 C110 1.234 1_655 S
O133 Mn108 2.209 1_455 S
O133 Mn109 2.215 . S
O133 C110 1.283 . S
O134 Mn108 2.094 . S
O134 C112 1.240 . S
O135 Mn109 2.117 . S
O135 C112 1.264 1_455 S
C136 C129 1.403 . S
C136 C137 1.399 . S
C136 H142 0.933 . S
C137 C117 1.449 . S
C137 C136 1.399 . S
C137 H143 0.930 1_554 S
H138 C118 0.931 . S
H139 C119 0.930 . S
H140 C127 0.931 . S
H141 C128 0.929 . S
H142 C136 0.933 . S
H143 C137 0.930 1_556 S
Mn144 O149 2.095 1_554 S
Mn144 O159 2.162 . S
Mn144 O160 2.297 . S
Mn144 O168 2.385 . S
Mn144 O169 2.209 . S
Mn144 O170 2.094 1_554 S
Mn145 O150 2.129 . S
Mn145 N152 2.232 1_556 S
Mn145 N161 2.267 1_556 S
Mn145 O169 2.179 1_556 S
Mn145 O171 2.143 . S
C146 O168 1.234 . S
C146 O169 1.283 . S
C147 O159 1.281 . S
C147 O160 1.236 . S
C148 O170 1.240 . S
C148 O171 1.264 . S
O149 Mn144 2.095 1_556 S
O149 C158 1.250 . S
O150 Mn145 2.129 . S
O150 C158 1.258 . S
C151 N152 1.326 . S
C151 C155 1.460 . S
C151 H157 0.929 . S
N152 Mn145 2.232 1_554 S
N152 C151 1.326 . S
N152 C156 1.362 . S
C153 C154 1.258 . S
C153 C156 1.431 . S
C153 C173 1.449 . S
C154 C153 1.258 . S
C154 C155 1.477 . S
C154 H174 0.931 . S
C155 C151 1.460 . S
C155 C154 1.477 . S
C155 H175 0.930 . S
C156 N152 1.362 . S
C156 C153 1.431 . S
C156 C166 1.476 . S
H157 C151 0.929 . S
C158 O149 1.250 . S
C158 O150 1.258 . S
O159 Mn144 2.162 . S
O159 C147 1.281 . S
O160 Mn144 2.297 . S
O160 C147 1.236 . S
N161 Mn145 2.267 1_554 S
N161 C162 1.328 . S
N161 C166 1.318 . S
C162 N161 1.328 . S
C162 C163 1.457 . S
C162 H167 0.929 . S
C163 C162 1.457 . S
C163 C164 1.291 . S
C163 H176 0.931 . S
C164 C163 1.291 . S
C164 C165 1.373 . S
C164 H177 0.929 . S
C165 C164 1.373 . S
C165 C166 1.396 . S
C165 C172 1.403 . S
C166 C156 1.476 . S
C166 N161 1.318 . S
C166 C165 1.396 . S
H167 C162 0.929 . S
O168 Mn144 2.385 . S
O168 C146 1.234 . S
O169 Mn144 2.209 . S
O169 Mn145 2.179 1_554 S
O169 C146 1.283 . S
O170 Mn144 2.094 1_556 S
O170 C148 1.240 . S
O171 Mn145 2.143 . S
O171 C148 1.264 . S
C172 C165 1.403 . S
C172 C173 1.399 . S
C172 H178 0.929 . S
C173 C153 1.449 . S
C173 C172 1.399 . S
C173 H179 0.930 . S
H174 C154 0.931 . S
H175 C155 0.930 . S
H176 C163 0.931 . S
H177 C164 0.929 . S
H178 C172 0.929 . S
H179 C173 0.930 . S
Mn180 O185 2.095 1_545 S
Mn180 O195 2.162 . S
Mn180 O196 2.297 . S
Mn180 O204 2.385 . S
Mn180 O205 2.209 1_545 S
Mn180 O206 2.094 . S
Mn181 O186 2.121 . S
Mn181 N188 2.257 . S
Mn181 N197 2.282 . S
Mn181 O205 2.215 . S
Mn181 O207 2.117 . S
C182 O204 1.234 . S
C182 O205 1.283 1_545 S
C183 O195 1.281 . S
C183 O196 1.236 . S
C184 O206 1.240 . S
C184 O207 1.264 1_545 S
O185 Mn180 2.095 1_565 S
O185 C194 1.250 . S
O186 Mn181 2.121 . S
O186 C194 1.258 . S
C187 N188 1.326 . S
C187 C191 1.460 . S
C187 H193 0.929 . S
N188 Mn181 2.257 . S
N188 C187 1.326 . S
N188 C192 1.362 . S
C189 C190 1.258 . S
C189 C192 1.431 . S
C189 C209 1.431 1_554 S
C190 C189 1.258 . S
C190 C191 1.477 . S
C190 H210 0.931 1_554 S
C191 C187 1.460 . S
C191 C190 1.477 . S
C191 H211 0.930 . S
C192 N188 1.362 . S
C192 C189 1.431 . S
C192 C202 1.476 . S
H193 C187 0.929 . S
C194 O185 1.250 . S
C194 O186 1.258 . S
O195 Mn180 2.162 . S
O195 C183 1.281 . S
O196 Mn180 2.297 . S
O196 C183 1.236 . S
N197 Mn181 2.282 . S
N197 C198 1.328 . S
N197 C202 1.318 . S
C198 N197 1.328 . S
C198 C199 1.457 . S
C198 H203 0.929 . S
C199 C198 1.457 . S
C199 C200 1.291 . S
C199 H212 0.931 . S
C200 C199 1.291 . S
C200 C201 1.373 . S
C200 H213 0.929 . S
C201 C200 1.373 . S
C201 C202 1.396 . S
C201 C208 1.403 . S
C202 C192 1.476 . S
C202 N197 1.318 . S
C202 C201 1.396 . S
H203 C198 0.929 . S
O204 Mn180 2.385 . S
O204 C182 1.234 . S
O205 Mn180 2.209 1_565 S
O205 Mn181 2.215 . S
O205 C182 1.283 1_565 S
O206 Mn180 2.094 . S
O206 C184 1.240 . S
O207 Mn181 2.117 . S
O207 C184 1.264 1_565 S
C208 C201 1.403 . S
C208 C209 1.393 1_554 S
C208 H214 0.929 1_554 S
C209 C189 1.431 1_556 S
C209 C208 1.393 1_556 S
C209 H215 0.957 . S
H210 C190 0.931 1_556 S
H211 C191 0.930 . S
H212 C199 0.931 . S
H213 C200 0.929 . S
H214 C208 0.929 1_556 S
H215 C209 0.957 . S
Mn216 O221 2.095 . S
Mn216 O231 2.162 . S
Mn216 O232 2.297 . S
Mn216 O240 2.385 . S
Mn216 O241 2.209 . S
Mn216 O242 2.094 . S
Mn217 O222 2.121 . S
Mn217 N224 2.257 . S
Mn217 N233 2.282 . S
Mn217 O241 2.215 . S
Mn217 O243 2.117 . S
C218 O240 1.234 . S
C218 O241 1.283 . S
C219 O231 1.281 . S
C219 O232 1.236 . S
C220 O242 1.240 . S
C220 O243 1.264 . S
O221 Mn216 2.095 . S
O221 C230 1.250 . S
O222 Mn217 2.121 . S
O222 C230 1.258 . S
C223 N224 1.326 . S
C223 C227 1.460 . S
C223 H229 0.929 . S
N224 Mn217 2.257 . S
N224 C223 1.326 . S
N224 C228 1.362 . S
C225 C226 1.258 . S
C225 C228 1.431 . S
C225 C245 1.449 . S
C226 C225 1.258 . S
C226 C227 1.477 . S
C226 H246 0.931 . S
C227 C223 1.460 . S
C227 C226 1.477 . S
C227 H247 0.930 . S
C228 N224 1.362 . S
C228 C225 1.431 . S
C228 C238 1.476 . S
H229 C223 0.929 . S
C230 O221 1.250 . S
C230 O222 1.258 . S
O231 Mn216 2.162 . S
O231 C219 1.281 . S
O232 Mn216 2.297 . S
O232 C219 1.236 . S
N233 Mn217 2.282 . S
N233 C234 1.328 . S
N233 C238 1.318 . S
C234 N233 1.328 . S
C234 C235 1.457 . S
C234 H239 0.929 . S
C235 C234 1.457 . S
C235 C236 1.291 . S
C235 H248 0.931 . S
C236 C235 1.291 . S
C236 C237 1.373 . S
C236 H249 0.929 . S
C237 C236 1.373 . S
C237 C238 1.396 . S
C237 C244 1.403 . S
C238 C228 1.476 . S
C238 N233 1.318 . S
C238 C237 1.396 . S
H239 C234 0.929 . S
O240 Mn216 2.385 . S
O240 C218 1.234 . S
O241 Mn216 2.209 . S
O241 Mn217 2.215 . S
O241 C218 1.283 . S
O242 Mn216 2.094 . S
O242 C220 1.240 . S
O243 Mn217 2.117 . S
O243 C220 1.264 . S
C244 C237 1.403 . S
C244 C245 1.399 . S
C244 H250 0.929 . S
C245 C225 1.449 . S
C245 C244 1.399 . S
C245 H251 0.930 . S
H246 C226 0.931 . S
H247 C227 0.930 . S
H248 C235 0.931 . S
H249 C236 0.929 . S
H250 C244 0.929 . S
H251 C245 0.930 . S
Mn252 O257 2.095 . S
Mn252 O267 2.162 . S
Mn252 O268 2.297 . S
Mn252 O276 2.385 . S
Mn252 O277 2.209 . S
Mn252 O278 2.094 . S
Mn253 O258 2.121 . S
Mn253 N260 2.257 . S
Mn253 N269 2.282 . S
Mn253 O277 2.215 . S
Mn253 O279 2.117 . S
C254 O276 1.234 . S
C254 O277 1.283 . S
C255 O267 1.272 . S
C255 O268 1.289 . S
C256 O278 1.240 . S
C256 O279 1.264 . S
O257 Mn252 2.095 . S
O257 C266 1.250 . S
O258 Mn253 2.121 . S
O258 C266 1.258 . S
C259 N260 1.326 . S
C259 C263 1.460 . S
C259 H265 0.929 . S
N260 Mn253 2.257 . S
N260 C259 1.326 . S
N260 C264 1.362 . S
C261 C262 1.258 . S
C261 C264 1.431 . S
C261 C281 1.449 . S
C262 C261 1.258 . S
C262 C263 1.477 . S
C262 H282 0.931 . S
C263 C259 1.460 . S
C263 C262 1.477 . S
C263 H283 0.930 . S
C264 N260 1.362 . S
C264 C261 1.431 . S
C264 C274 1.476 . S
H265 C259 0.929 . S
C266 O257 1.250 . S
C266 O258 1.258 . S
O267 Mn252 2.162 . S
O267 C255 1.272 . S
O268 Mn252 2.297 . S
O268 C255 1.289 . S
N269 Mn253 2.282 . S
N269 C270 1.328 . S
N269 C274 1.318 . S
C270 N269 1.328 . S
C270 C271 1.457 . S
C270 H275 0.929 . S
C271 C270 1.457 . S
C271 C272 1.291 . S
C271 H284 0.931 . S
C272 C271 1.291 . S
C272 C273 1.373 . S
C272 H285 0.929 . S
C273 C272 1.373 . S
C273 C274 1.396 . S
C273 C280 1.403 . S
C274 C264 1.476 . S
C274 N269 1.318 . S
C274 C273 1.396 . S
H275 C270 0.929 . S
O276 Mn252 2.385 . S
O276 C254 1.234 . S
O277 Mn252 2.209 . S
O277 Mn253 2.215 . S
O277 C254 1.283 . S
O278 Mn252 2.094 . S
O278 C256 1.240 . S
O279 Mn253 2.117 . S
O279 C256 1.264 . S
C280 C273 1.403 . S
C280 C281 1.399 . S
C280 H286 0.929 . S
C281 C261 1.449 . S
C281 C280 1.399 . S
C281 H287 0.930 . S
H282 C262 0.931 . S
H283 C263 0.930 . S
H284 C271 0.931 . S
H285 C272 0.929 . S
H286 C280 0.929 . S
H287 C281 0.930 . S
Mn288 O293 2.095 . S
Mn288 O303 2.162 . S
Mn288 O304 2.297 . S
Mn288 O312 2.385 . S
Mn288 O313 2.209 . S
Mn288 O314 2.094 . S
Mn289 O294 2.121 . S
Mn289 N296 2.257 . S
Mn289 N305 2.282 . S
Mn289 O313 2.215 . S
Mn289 O315 2.117 . S
C290 O312 1.234 . S
C290 O313 1.283 . S
C291 O303 1.281 . S
C291 O304 1.236 . S
C292 O314 1.240 . S
C292 O315 1.264 . S
O293 Mn288 2.095 . S
O293 C302 1.250 . S
O294 Mn289 2.121 . S
O294 C302 1.258 . S
C295 N296 1.326 . S
C295 C299 1.460 . S
C295 H301 0.929 . S
N296 Mn289 2.257 . S
N296 C295 1.326 . S
N296 C300 1.362 . S
C297 C298 1.258 . S
C297 C300 1.431 . S
C297 C317 1.449 . S
C298 C297 1.258 . S
C298 C299 1.477 . S
C298 H318 0.931 . S
C299 C295 1.460 . S
C299 C298 1.477 . S
C299 H319 0.930 . S
C300 N296 1.362 . S
C300 C297 1.431 . S
C300 C310 1.476 . S
H301 C295 0.929 . S
C302 O293 1.250 . S
C302 O294 1.258 . S
O303 Mn288 2.162 . S
O303 C291 1.281 . S
O304 Mn288 2.297 . S
O304 C291 1.236 . S
N305 Mn289 2.282 . S
N305 C306 1.328 . S
N305 C310 1.318 . S
C306 N305 1.328 . S
C306 C307 1.457 . S
C306 H311 0.929 . S
C307 C306 1.457 . S
C307 C308 1.291 . S
C307 H320 0.931 . S
C308 C307 1.291 . S
C308 C309 1.373 . S
C308 H321 0.929 . S
C309 C308 1.373 . S
C309 C310 1.396 . S
C309 C316 1.403 . S
C310 C300 1.476 . S
C310 N305 1.318 . S
C310 C309 1.396 . S
H311 C306 0.929 . S
O312 Mn288 2.385 . S
O312 C290 1.234 . S
O313 Mn288 2.209 . S
O313 Mn289 2.215 . S
O313 C290 1.283 . S
O314 Mn288 2.094 . S
O314 C292 1.240 . S
O315 Mn289 2.117 . S
O315 C292 1.264 . S
C316 C309 1.403 . S
C316 C317 1.399 . S
C316 H322 0.929 . S
C317 C297 1.449 . S
C317 C316 1.399 . S
C317 H323 0.930 . S
H318 C298 0.931 . S
H319 C299 0.930 . S
H320 C307 0.931 . S
H321 C308 0.929 . S
H322 C316 0.929 . S
H323 C317 0.930 . S
Mn324 O329 2.095 . S
Mn324 O339 2.162 . S
Mn324 O340 2.297 . S
Mn324 O348 2.385 . S
Mn324 O349 2.209 . S
Mn324 O350 2.094 . S
Mn325 O330 2.121 . S
Mn325 N332 2.257 . S
Mn325 N341 2.282 . S
Mn325 O349 2.215 . S
Mn325 O351 2.117 . S
C326 O348 1.234 . S
C326 O349 1.283 . S
C327 O339 1.281 . S
C327 O340 1.236 . S
C328 O350 1.240 . S
C328 O351 1.264 . S
O329 Mn324 2.095 . S
O329 C338 1.250 . S
O330 Mn325 2.121 . S
O330 C338 1.258 . S
C331 N332 1.326 . S
C331 C335 1.460 1_565 S
C331 H337 0.929 1_565 S
N332 Mn325 2.257 . S
N332 C331 1.326 . S
N332 C336 1.362 . S
C333 C334 1.258 . S
C333 C336 1.431 . S
C333 C353 1.449 . S
C334 C333 1.258 . S
C334 C335 1.477 1_565 S
C334 H354 0.931 . S
C335 C331 1.460 1_545 S
C335 C334 1.477 1_545 S
C335 H355 0.930 . S
C336 N332 1.362 . S
C336 C333 1.431 . S
C336 C346 1.476 . S
H337 C331 0.929 1_545 S
C338 O329 1.250 . S
C338 O330 1.258 . S
O339 Mn324 2.162 . S
O339 C327 1.281 . S
O340 Mn324 2.297 . S
O340 C327 1.236 . S
N341 Mn325 2.282 . S
N341 C342 1.328 . S
N341 C346 1.318 . S
C342 N341 1.328 . S
C342 C343 1.457 . S
C342 H347 0.929 . S
C343 C342 1.457 . S
C343 C344 1.291 . S
C343 H356 0.931 . S
C344 C343 1.291 . S
C344 C345 1.373 . S
C344 H357 0.929 . S
C345 C344 1.373 . S
C345 C346 1.396 . S
C345 C352 1.403 . S
C346 C336 1.476 . S
C346 N341 1.318 . S
C346 C345 1.396 . S
H347 C342 0.929 . S
O348 Mn324 2.385 . S
O348 C326 1.234 . S
O349 Mn324 2.209 . S
O349 Mn325 2.215 . S
O349 C326 1.283 . S
O350 Mn324 2.094 . S
O350 C328 1.240 . S
O351 Mn325 2.117 . S
O351 C328 1.264 . S
C352 C345 1.403 . S
C352 C353 1.399 . S
C352 H358 0.929 . S
C353 C333 1.449 . S
C353 C352 1.399 . S
C353 H359 0.930 . S
H354 C334 0.931 . S
H355 C335 0.930 . S
H356 C343 0.931 . S
H357 C344 0.929 . S
H358 C352 0.929 . S
H359 C353 0.930 . S
Mn360 O365 2.095 . S
Mn360 O375 2.162 . S
Mn360 O376 2.297 . S
Mn360 O384 2.385 . S
Mn360 O385 2.209 . S
Mn360 O386 2.094 . S
Mn361 O366 2.121 . S
Mn361 N368 2.257 . S
Mn361 N377 2.282 . S
Mn361 O385 2.215 . S
Mn361 O387 2.117 . S
C362 O384 1.234 . S
C362 O385 1.283 . S
C363 O375 1.281 . S
C363 O376 1.236 . S
C364 O386 1.240 . S
C364 O387 1.264 . S
O365 Mn360 2.095 . S
O365 C374 1.250 . S
O366 Mn361 2.121 . S
O366 C374 1.258 . S
C367 N368 1.326 . S
C367 C371 1.460 . S
C367 H373 0.929 . S
N368 Mn361 2.257 . S
N368 C367 1.326 . S
N368 C372 1.362 . S
C369 C370 1.258 . S
C369 C372 1.431 . S
C369 C389 1.449 . S
C370 C369 1.258 . S
C370 C371 1.477 . S
C370 H390 0.931 . S
C371 C367 1.460 . S
C371 C370 1.477 . S
C371 H391 0.930 . S
C372 N368 1.362 . S
C372 C369 1.431 . S
C372 C382 1.476 . S
H373 C367 0.929 . S
C374 O365 1.250 . S
C374 O366 1.258 . S
O375 Mn360 2.162 . S
O375 C363 1.281 . S
O376 Mn360 2.297 . S
O376 C363 1.236 . S
N377 Mn361 2.282 . S
N377 C378 1.328 . S
N377 C382 1.318 . S
C378 N377 1.328 . S
C378 C379 1.457 . S
C378 H383 0.929 . S
C379 C378 1.457 . S
C379 C380 1.291 . S
C379 H392 0.931 . S
C380 C379 1.291 . S
C380 C381 1.373 . S
C380 H393 0.929 . S
C381 C380 1.373 . S
C381 C382 1.396 . S
C381 C388 1.403 . S
C382 C372 1.476 . S
C382 N377 1.318 . S
C382 C381 1.396 . S
H383 C378 0.929 . S
O384 Mn360 2.385 . S
O384 C362 1.234 . S
O385 Mn360 2.209 . S
O385 Mn361 2.215 . S
O385 C362 1.283 . S
O386 Mn360 2.094 . S
O386 C364 1.240 . S
O387 Mn361 2.117 . S
O387 C364 1.264 . S
C388 C381 1.403 . S
C388 C389 1.399 . S
C388 H394 0.929 . S
C389 C369 1.449 . S
C389 C388 1.399 . S
C389 H395 0.930 . S
H390 C370 0.931 . S
H391 C371 0.930 . S
H392 C379 0.931 . S
H393 C380 0.929 . S
H394 C388 0.929 . S
H395 C389 0.930 . S
Mn396 O401 2.095 . S
Mn396 O411 2.162 . S
Mn396 O412 2.297 . S
Mn396 O420 2.385 . S
Mn396 O421 2.209 . S
Mn396 O422 2.094 . S
Mn397 O402 2.121 . S
Mn397 N404 2.257 . S
Mn397 N413 2.282 . S
Mn397 O421 2.215 . S
Mn397 O423 2.117 . S
C398 O420 1.234 . S
C398 O421 1.283 . S
C399 O411 1.281 . S
C399 O412 1.236 . S
C400 O422 1.240 . S
C400 O423 1.264 . S
O401 Mn396 2.095 . S
O401 C410 1.250 . S
O402 Mn397 2.121 . S
O402 C410 1.258 . S
C403 N404 1.326 . S
C403 C407 1.460 . S
C403 H409 0.929 . S
N404 Mn397 2.257 . S
N404 C403 1.326 . S
N404 C408 1.362 . S
C405 C406 1.258 . S
C405 C408 1.431 . S
C405 C425 1.449 . S
C406 C405 1.258 . S
C406 C407 1.477 . S
C406 H426 0.931 . S
C407 C403 1.460 . S
C407 C406 1.477 . S
C407 H427 0.930 . S
C408 N404 1.362 . S
C408 C405 1.431 . S
C408 C418 1.476 . S
H409 C403 0.929 . S
C410 O401 1.250 . S
C410 O402 1.258 . S
O411 Mn396 2.162 . S
O411 C399 1.281 . S
O412 Mn396 2.297 . S
O412 C399 1.236 . S
N413 Mn397 2.282 . S
N413 C414 1.328 . S
N413 C418 1.318 . S
C414 N413 1.328 . S
C414 C415 1.457 . S
C414 H419 0.929 . S
C415 C414 1.457 . S
C415 C416 1.291 . S
C415 H428 0.931 . S
C416 C415 1.291 . S
C416 C417 1.373 . S
C416 H429 0.929 . S
C417 C416 1.373 . S
C417 C418 1.396 . S
C417 C424 1.403 . S
C418 C408 1.476 . S
C418 N413 1.318 . S
C418 C417 1.396 . S
H419 C414 0.929 . S
O420 Mn396 2.385 . S
O420 C398 1.234 . S
O421 Mn396 2.209 . S
O421 Mn397 2.215 . S
O421 C398 1.283 . S
O422 Mn396 2.094 . S
O422 C400 1.240 . S
O423 Mn397 2.117 . S
O423 C400 1.264 . S
C424 C417 1.403 . S
C424 C425 1.399 . S
C424 H430 0.929 . S
C425 C405 1.449 . S
C425 C424 1.399 . S
C425 H431 0.930 . S
H426 C406 0.931 . S
H427 C407 0.930 . S
H428 C415 0.931 . S
H429 C416 0.929 . S
H430 C424 0.929 . S
H431 C425 0.930 . S
Mn432 O437 2.095 . S
Mn432 O447 2.162 . S
Mn432 O448 2.297 . S
Mn432 O456 2.385 . S
Mn432 O457 2.209 . S
Mn432 O458 2.094 . S
Mn433 O438 2.121 . S
Mn433 N440 2.257 . S
Mn433 N449 2.282 . S
Mn433 O457 2.215 . S
Mn433 O459 2.117 . S
C434 O456 1.234 . S
C434 O457 1.283 . S
C435 O447 1.281 . S
C435 O448 1.236 . S
C436 O458 1.240 . S
C436 O459 1.264 . S
O437 Mn432 2.095 . S
O437 C446 1.250 . S
O438 Mn433 2.121 . S
O438 C446 1.258 . S
C439 N440 1.326 . S
C439 C443 1.460 . S
C439 H445 0.929 . S
N440 Mn433 2.257 . S
N440 C439 1.326 . S
N440 C444 1.362 . S
C441 C442 1.258 . S
C441 C444 1.431 . S
C441 C461 1.449 . S
C442 C441 1.258 . S
C442 C443 1.477 . S
C442 H462 0.931 . S
C443 C439 1.460 . S
C443 C442 1.477 . S
C443 H463 0.930 . S
C444 N440 1.362 . S
C444 C441 1.431 . S
C444 C454 1.476 . S
H445 C439 0.929 . S
C446 O437 1.250 . S
C446 O438 1.258 . S
O447 Mn432 2.162 . S
O447 C435 1.281 . S
O448 Mn432 2.297 . S
O448 C435 1.236 . S
N449 Mn433 2.282 . S
N449 C450 1.328 . S
N449 C454 1.318 . S
C450 N449 1.328 . S
C450 C451 1.457 . S
C450 H455 0.929 . S
C451 C450 1.457 . S
C451 C452 1.291 . S
C451 H464 0.931 . S
C452 C451 1.291 . S
C452 C453 1.373 . S
C452 H465 0.929 . S
C453 C452 1.373 . S
C453 C454 1.396 . S
C453 C460 1.403 . S
C454 C444 1.476 . S
C454 N449 1.318 . S
C454 C453 1.396 . S
H455 C450 0.929 . S
O456 Mn432 2.385 . S
O456 C434 1.234 . S
O457 Mn432 2.209 . S
O457 Mn433 2.215 . S
O457 C434 1.283 . S
O458 Mn432 2.094 . S
O458 C436 1.240 . S
O459 Mn433 2.117 . S
O459 C436 1.264 . S
C460 C453 1.403 . S
C460 C461 1.399 . S
C460 H466 0.929 . S
C461 C441 1.449 . S
C461 C460 1.399 . S
C461 H467 0.930 . S
H462 C442 0.931 . S
H463 C443 0.930 . S
H464 C451 0.931 . S
H465 C452 0.929 . S
H466 C460 0.929 . S
H467 C461 0.930 . S
Mn468 O473 2.095 . S
Mn468 O483 2.162 . S
Mn468 O484 2.297 . S
Mn468 O492 2.385 . S
Mn468 O493 2.209 . S
Mn468 O494 2.094 . S
Mn469 O474 2.121 . S
Mn469 N476 2.257 . S
Mn469 N485 2.282 . S
Mn469 O493 2.215 . S
Mn469 O495 2.117 . S
C470 O492 1.234 . S
C470 O493 1.283 . S
C471 O483 1.281 . S
C471 O484 1.236 . S
C472 O494 1.240 . S
C472 O495 1.264 . S
O473 Mn468 2.095 . S
O473 C482 1.250 . S
O474 Mn469 2.121 . S
O474 C482 1.258 . S
C475 N476 1.326 . S
C475 C479 1.460 . S
C475 H481 0.929 . S
N476 Mn469 2.257 . S
N476 C475 1.326 . S
N476 C480 1.362 . S
C477 C478 1.258 . S
C477 C480 1.431 . S
C477 C497 1.449 . S
C478 C477 1.258 . S
C478 C479 1.477 . S
C478 H498 0.931 . S
C479 C475 1.460 . S
C479 C478 1.477 . S
C479 H499 0.930 1_655 S
C480 N476 1.362 . S
C480 C477 1.431 . S
C480 C490 1.476 . S
H481 C475 0.929 . S
C482 O473 1.250 . S
C482 O474 1.258 . S
O483 Mn468 2.162 . S
O483 C471 1.281 . S
O484 Mn468 2.297 . S
O484 C471 1.236 . S
N485 Mn469 2.282 . S
N485 C486 1.328 . S
N485 C490 1.318 . S
C486 N485 1.328 . S
C486 C487 1.457 . S
C486 H491 0.929 . S
C487 C486 1.457 . S
C487 C488 1.291 . S
C487 H500 0.931 . S
C488 C487 1.291 . S
C488 C489 1.373 . S
C488 H501 0.929 . S
C489 C488 1.373 . S
C489 C490 1.396 . S
C489 C496 1.403 . S
C490 C480 1.476 . S
C490 N485 1.318 . S
C490 C489 1.396 . S
H491 C486 0.929 . S
O492 Mn468 2.385 . S
O492 C470 1.234 . S
O493 Mn468 2.209 . S
O493 Mn469 2.215 . S
O493 C470 1.283 . S
O494 Mn468 2.094 . S
O494 C472 1.240 . S
O495 Mn469 2.117 . S
O495 C472 1.264 . S
C496 C489 1.403 . S
C496 C497 1.399 . S
C496 H502 0.929 . S
C497 C477 1.449 . S
C497 C496 1.399 . S
C497 H503 0.930 . S
H498 C478 0.931 . S
H499 C479 0.930 1_455 S
H500 C487 0.931 . S
H501 C488 0.929 . S
H502 C496 0.929 . S
H503 C497 0.930 . S
Mn504 O509 2.095 . S
Mn504 O519 2.162 . S
Mn504 O520 2.297 . S
Mn504 O528 2.385 . S
Mn504 O529 2.209 . S
Mn504 O530 2.094 . S
Mn505 O510 2.121 . S
Mn505 N512 2.257 . S
Mn505 N521 2.282 . S
Mn505 O529 2.215 . S
Mn505 O531 2.117 . S
C506 O528 1.234 . S
C506 O529 1.283 . S
C507 O519 1.281 . S
C507 O520 1.236 . S
C508 O530 1.240 . S
C508 O531 1.264 . S
O509 Mn504 2.095 . S
O509 C518 1.250 . S
O510 Mn505 2.121 . S
O510 C518 1.258 . S
C511 N512 1.326 . S
C511 C515 1.460 . S
C511 H517 0.929 . S
N512 Mn505 2.257 . S
N512 C511 1.326 . S
N512 C516 1.362 . S
C513 C514 1.258 . S
C513 C516 1.431 . S
C513 C533 1.449 . S
C514 C513 1.258 . S
C514 C515 1.477 . S
C514 H534 0.931 . S
C515 C511 1.460 . S
C515 C514 1.477 . S
C515 H535 0.930 . S
C516 N512 1.362 . S
C516 C513 1.431 . S
C516 C526 1.476 . S
H517 C511 0.929 . S
C518 O509 1.250 . S
C518 O510 1.258 . S
O519 Mn504 2.162 . S
O519 C507 1.281 . S
O520 Mn504 2.297 . S
O520 C507 1.236 . S
N521 Mn505 2.282 . S
N521 C522 1.328 . S
N521 C526 1.318 . S
C522 N521 1.328 . S
C522 C523 1.457 . S
C522 H527 0.929 . S
C523 C522 1.457 . S
C523 C524 1.291 . S
C523 H536 0.931 . S
C524 C523 1.291 . S
C524 C525 1.373 . S
C524 H537 0.929 . S
C525 C524 1.373 . S
C525 C526 1.396 . S
C525 C532 1.403 . S
C526 C516 1.476 . S
C526 N521 1.318 . S
C526 C525 1.396 . S
H527 C522 0.929 . S
O528 Mn504 2.385 . S
O528 C506 1.234 . S
O529 Mn504 2.209 . S
O529 Mn505 2.215 . S
O529 C506 1.283 . S
O530 Mn504 2.094 . S
O530 C508 1.240 . S
O531 Mn505 2.117 . S
O531 C508 1.264 . S
C532 C525 1.403 . S
C532 C533 1.399 . S
C532 H538 0.929 . S
C533 C513 1.449 . S
C533 C532 1.399 . S
C533 H539 0.930 . S
H534 C514 0.931 . S
H535 C515 0.930 . S
H536 C523 0.931 . S
H537 C524 0.929 . S
H538 C532 0.929 . S
H539 C533 0.930 . S
Mn540 O545 2.095 . S
Mn540 O555 2.162 . S
Mn540 O556 2.297 . S
Mn540 O564 2.385 . S
Mn540 O565 2.209 . S
Mn540 O566 2.094 . S
Mn541 O546 2.121 . S
Mn541 N548 2.257 . S
Mn541 N557 2.282 . S
Mn541 O565 2.215 . S
Mn541 O567 2.117 . S
C542 O564 1.234 . S
C542 O565 1.283 . S
C543 O555 1.281 . S
C543 O556 1.236 . S
C544 O566 1.240 . S
C544 O567 1.264 . S
O545 Mn540 2.095 . S
O545 C554 1.250 . S
O546 Mn541 2.121 . S
O546 C554 1.258 . S
C547 N548 1.326 . S
C547 C551 1.460 . S
C547 H553 0.929 . S
N548 Mn541 2.257 . S
N548 C547 1.326 . S
N548 C552 1.362 . S
C549 C550 1.258 . S
C549 C552 1.431 . S
C549 C569 1.449 . S
C550 C549 1.258 . S
C550 C551 1.477 . S
C550 H570 0.931 . S
C551 C547 1.460 . S
C551 C550 1.477 . S
C551 H571 0.930 . S
C552 N548 1.362 . S
C552 C549 1.431 . S
C552 C562 1.476 . S
H553 C547 0.929 . S
C554 O545 1.250 . S
C554 O546 1.258 . S
O555 Mn540 2.162 . S
O555 C543 1.281 . S
O556 Mn540 2.297 . S
O556 C543 1.236 . S
N557 Mn541 2.282 . S
N557 C558 1.328 . S
N557 C562 1.318 . S
C558 N557 1.328 . S
C558 C559 1.457 . S
C558 H563 0.929 . S
C559 C558 1.457 . S
C559 C560 1.291 . S
C559 H572 0.931 . S
C560 C559 1.291 . S
C560 C561 1.373 . S
C560 H573 0.929 . S
C561 C560 1.373 . S
C561 C562 1.396 . S
C561 C568 1.403 . S
C562 C552 1.476 . S
C562 N557 1.318 . S
C562 C561 1.396 . S
H563 C558 0.929 . S
O564 Mn540 2.385 . S
O564 C542 1.234 . S
O565 Mn540 2.209 . S
O565 Mn541 2.215 . S
O565 C542 1.283 . S
O566 Mn540 2.094 . S
O566 C544 1.240 . S
O567 Mn541 2.117 . S
O567 C544 1.264 . S
C568 C561 1.403 . S
C568 C569 1.399 . S
C568 H574 0.929 . S
C569 C549 1.449 . S
C569 C568 1.399 . S
C569 H575 0.930 . S
H570 C550 0.931 . S
H571 C551 0.930 . S
H572 C559 0.931 . S
H573 C560 0.929 . S
H574 C568 0.929 . S
H575 C569 0.930 . S
Mn576 O581 2.095 . S
Mn576 O591 2.162 . S
Mn576 O592 2.297 . S
Mn576 O600 2.385 . S
Mn576 O601 2.209 . S
Mn576 O602 2.094 . S
Mn577 O582 2.121 . S
Mn577 N584 2.257 . S
Mn577 N593 2.282 . S
Mn577 O601 2.215 . S
Mn577 O603 2.117 . S
C578 O600 1.234 . S
C578 O601 1.283 . S
C579 O591 1.281 . S
C579 O592 1.236 . S
C580 O602 1.240 . S
C580 O603 1.264 . S
O581 Mn576 2.095 . S
O581 C590 1.250 . S
O582 Mn577 2.121 . S
O582 C590 1.258 . S
C583 N584 1.326 . S
C583 C587 1.460 . S
C583 H589 0.929 . S
N584 Mn577 2.257 . S
N584 C583 1.326 . S
N584 C588 1.362 . S
C585 C586 1.258 . S
C585 C588 1.431 . S
C585 C605 1.449 . S
C586 C585 1.258 . S
C586 C587 1.477 . S
C586 H606 0.931 . S
C587 C583 1.460 . S
C587 C586 1.477 . S
C587 H607 0.930 1_545 S
C588 N584 1.362 . S
C588 C585 1.431 . S
C588 C598 1.476 . S
H589 C583 0.929 . S
C590 O581 1.250 . S
C590 O582 1.258 . S
O591 Mn576 2.162 . S
O591 C579 1.281 . S
O592 Mn576 2.297 . S
O592 C579 1.236 . S
N593 Mn577 2.282 . S
N593 C594 1.328 . S
N593 C598 1.318 . S
C594 N593 1.328 . S
C594 C595 1.457 . S
C594 H599 0.929 . S
C595 C594 1.457 . S
C595 C596 1.291 . S
C595 H608 0.931 . S
C596 C595 1.291 . S
C596 C597 1.373 . S
C596 H609 0.929 . S
C597 C596 1.373 . S
C597 C598 1.396 . S
C597 C604 1.403 . S
C598 C588 1.476 . S
C598 N593 1.318 . S
C598 C597 1.396 . S
H599 C594 0.929 . S
O600 Mn576 2.385 . S
O600 C578 1.234 . S
O601 Mn576 2.209 . S
O601 Mn577 2.215 . S
O601 C578 1.283 . S
O602 Mn576 2.094 . S
O602 C580 1.240 . S
O603 Mn577 2.117 . S
O603 C580 1.264 . S
C604 C597 1.403 . S
C604 C605 1.399 . S
C604 H610 0.929 . S
C605 C585 1.449 . S
C605 C604 1.399 . S
C605 H611 0.930 . S
H606 C586 0.931 . S
H607 C587 0.930 1_565 S
H608 C595 0.931 . S
H609 C596 0.929 . S
H610 C604 0.929 . S
H611 C605 0.930 . S
Mn612 O617 2.095 . S
Mn612 O627 2.162 . S
Mn612 O628 2.297 . S
Mn612 O636 2.385 . S
Mn612 O637 2.209 . S
Mn612 O638 2.094 . S
Mn613 O618 2.121 . S
Mn613 N620 2.257 . S
Mn613 N629 2.282 . S
Mn613 O637 2.215 . S
Mn613 O639 2.117 . S
C614 O636 1.234 . S
C614 O637 1.283 . S
C615 O627 1.281 . S
C615 O628 1.236 . S
C616 O638 1.240 . S
C616 O639 1.264 . S
O617 Mn612 2.095 . S
O617 C626 1.250 . S
O618 Mn613 2.121 . S
O618 C626 1.258 . S
C619 N620 1.326 . S
C619 C623 1.460 . S
C619 H625 0.929 . S
N620 Mn613 2.257 . S
N620 C619 1.326 . S
N620 C624 1.362 . S
C621 C622 1.258 . S
C621 C624 1.431 . S
C621 C641 1.449 . S
C622 C621 1.258 . S
C622 C623 1.477 . S
C622 H642 0.931 . S
C623 C619 1.460 . S
C623 C622 1.477 . S
C623 H643 0.930 . S
C624 N620 1.362 . S
C624 C621 1.431 . S
C624 C634 1.476 . S
H625 C619 0.929 . S
C626 O617 1.250 . S
C626 O618 1.258 . S
O627 Mn612 2.162 . S
O627 C615 1.281 . S
O628 Mn612 2.297 . S
O628 C615 1.236 . S
N629 Mn613 2.282 . S
N629 C630 1.328 . S
N629 C634 1.318 . S
C630 N629 1.328 . S
C630 C631 1.457 . S
C630 H635 0.929 . S
C631 C630 1.457 . S
C631 C632 1.291 . S
C631 H644 0.931 . S
C632 C631 1.291 . S
C632 C633 1.373 . S
C632 H645 0.929 . S
C633 C632 1.373 . S
C633 C634 1.396 . S
C633 C640 1.403 . S
C634 C624 1.476 . S
C634 N629 1.318 . S
C634 C633 1.396 . S
H635 C630 0.929 . S
O636 Mn612 2.385 . S
O636 C614 1.234 . S
O637 Mn612 2.209 . S
O637 Mn613 2.215 . S
O637 C614 1.283 . S
O638 Mn612 2.094 . S
O638 C616 1.240 . S
O639 Mn613 2.117 . S
O639 C616 1.264 . S
C640 C633 1.403 . S
C640 C641 1.399 . S
C640 H646 0.929 . S
C641 C621 1.449 . S
C641 C640 1.399 . S
C641 H647 0.930 . S
H642 C622 0.931 . S
H643 C623 0.930 . S
H644 C631 0.931 . S
H645 C632 0.929 . S
H646 C640 0.929 . S
H647 C641 0.930 . S
H648 O674 0.856 . S
H649 O677 0.854 . S
H650 C685 0.930 . S
H651 C686 0.930 . S
H652 C688 0.930 . S
H653 C689 0.930 . S
H654 C691 0.931 . S
H655 C692 0.930 . S
H656 C694 0.930 . S
H657 C695 0.929 . S
H658 C697 0.930 . S
H659 C698 0.931 . S
H660 C700 0.930 . S
H661 C701 0.929 . S
H662 C703 0.931 . S
H663 C704 0.930 . S
H664 C706 0.930 . S
H665 C707 0.932 . S
H666 C709 0.930 . S
H667 C710 0.929 . S
H668 C712 0.931 . S
H669 C713 0.930 . S
H670 C715 0.929 . S
H671 C716 0.931 . S
H672 C718 0.930 . S
H673 C719 0.929 . S
O674 H648 0.856 . S
O674 C720 1.300 . S
O675 C720 1.209 . S
O676 C721 1.199 . S
O677 H649 0.854 . S
O677 C721 1.297 . S
C678 C679 1.404 . S
C678 C683 1.397 . S
C678 C684 1.492 . S
C679 C678 1.404 . S
C679 C680 1.396 . S
C679 C690 1.492 . S
C680 C679 1.396 . S
C680 C681 1.397 . S
C680 C696 1.509 . S
C681 C680 1.397 . S
C681 C682 1.412 . S
C681 C702 1.485 . S
C682 C681 1.412 . S
C682 C683 1.388 . S
C682 C708 1.490 . S
C683 C678 1.397 . S
C683 C682 1.388 . S
C683 C714 1.519 . S
C684 C678 1.492 . S
C684 C685 1.363 . S
C684 C689 1.390 . S
C685 H650 0.930 . S
C685 C684 1.363 . S
C685 C686 1.372 . S
C686 H651 0.930 . S
C686 C685 1.372 . S
C686 C687 1.383 . S
C687 C686 1.383 . S
C687 C688 1.395 . S
C688 H652 0.930 . S
C688 C687 1.395 . S
C688 C689 1.362 . S
C689 H653 0.930 . S
C689 C684 1.390 . S
C689 C688 1.362 . S
C690 C679 1.492 . S
C690 C691 1.377 . S
C690 C695 1.397 . S
C691 H654 0.931 . S
C691 C690 1.377 . S
C691 C692 1.376 . S
C692 H655 0.930 . S
C692 C691 1.376 . S
C692 C693 1.376 . S
C693 C692 1.376 . S
C693 C694 1.378 . S
C693 C720 1.486 . S
C694 H656 0.930 . S
C694 C693 1.378 . S
C694 C695 1.376 . S
C695 H657 0.929 . S
C695 C690 1.397 . S
C695 C694 1.376 . S
C696 C680 1.509 . S
C696 C697 1.391 . S
C696 C701 1.386 . S
C697 H658 0.930 . S
C697 C696 1.391 . S
C697 C698 1.375 . S
C698 H659 0.931 . S
C698 C697 1.375 . S
C698 C699 1.375 . S
C699 C698 1.375 . S
C699 C700 1.361 . S
C700 H660 0.930 . S
C700 C699 1.361 . S
C700 C701 1.399 . S
C701 H661 0.929 . S
C701 C696 1.386 . S
C701 C700 1.399 . S
C702 C681 1.485 . S
C702 C703 1.394 . S
C702 C707 1.360 . S
C703 H662 0.931 . S
C703 C702 1.394 . S
C703 C704 1.372 . S
C704 H663 0.930 . S
C704 C703 1.372 . S
C704 C705 1.397 . S
C705 C704 1.397 . S
C705 C706 1.390 . S
C705 C721 1.476 . S
C706 H664 0.930 . S
C706 C705 1.390 . S
C706 C707 1.366 . S
C707 H665 0.932 . S
C707 C702 1.360 . S
C707 C706 1.366 . S
C708 C682 1.490 . S
C708 C709 1.380 . S
C708 C713 1.386 . S
C709 H666 0.930 . S
C709 C708 1.380 . S
C709 C710 1.381 . S
C710 H667 0.929 . S
C710 C709 1.381 . S
C710 C711 1.371 . S
C711 C710 1.371 . S
C711 C712 1.380 . S
C712 H668 0.931 . S
C712 C711 1.380 . S
C712 C713 1.387 . S
C713 H669 0.930 . S
C713 C708 1.386 . S
C713 C712 1.387 . S
C714 C683 1.519 . S
C714 C715 1.377 . S
C714 C719 1.361 . S
C715 H670 0.929 . S
C715 C714 1.377 . S
C715 C716 1.386 . S
C716 H671 0.931 . S
C716 C715 1.386 . S
C716 C717 1.363 . S
C717 C716 1.363 . S
C717 C718 1.385 . S
C718 H672 0.930 . S
C718 C717 1.385 . S
C718 C719 1.396 . S
C719 H673 0.929 . S
C719 C714 1.361 . S
C719 C718 1.396 . S
C720 O674 1.300 . S
C720 O675 1.209 . S
C720 C693 1.486 . S
C721 O676 1.199 . S
C721 O677 1.297 . S
C721 C705 1.476 . S
H722 O748 0.856 . S
H723 O751 0.854 . S
H724 C759 0.930 . S
H725 C760 0.930 . S
H726 C762 0.930 . S
H727 C763 0.930 . S
H728 C765 0.931 . S
H729 C766 0.930 . S
H730 C768 0.930 . S
H731 C769 0.929 . S
H732 C771 0.930 . S
H733 C772 0.931 . S
H734 C774 0.930 . S
H735 C775 0.929 . S
H736 C777 0.931 . S
H737 C778 0.930 . S
H738 C780 0.930 . S
H739 C781 0.932 . S
H740 C783 0.930 . S
H741 C784 0.929 . S
H742 C786 0.931 . S
H743 C787 0.930 . S
H744 C789 0.929 . S
H745 C790 0.931 . S
H746 C792 0.930 . S
H747 C793 0.929 . S
O748 H722 0.856 . S
O748 C794 1.300 . S
O749 C794 1.209 . S
O750 C795 1.199 . S
O751 H723 0.854 . S
O751 C795 1.297 . S
C752 C753 1.404 . S
C752 C757 1.397 . S
C752 C758 1.492 . S
C753 C752 1.404 . S
C753 C754 1.396 . S
C753 C764 1.492 . S
C754 C753 1.396 . S
C754 C755 1.397 . S
C754 C770 1.509 . S
C755 C754 1.397 . S
C755 C756 1.412 . S
C755 C776 1.485 . S
C756 C755 1.412 . S
C756 C757 1.388 . S
C756 C782 1.490 . S
C757 C752 1.397 . S
C757 C756 1.388 . S
C757 C788 1.519 . S
C758 C752 1.492 . S
C758 C759 1.363 . S
C758 C763 1.390 . S
C759 H724 0.930 . S
C759 C758 1.363 . S
C759 C760 1.372 . S
C760 H725 0.930 . S
C760 C759 1.372 . S
C760 C761 1.383 . S
C761 C760 1.383 . S
C761 C762 1.395 . S
C762 H726 0.930 . S
C762 C761 1.395 . S
C762 C763 1.362 . S
C763 H727 0.930 . S
C763 C758 1.390 . S
C763 C762 1.362 . S
C764 C753 1.492 . S
C764 C765 1.377 . S
C764 C769 1.397 . S
C765 H728 0.931 . S
C765 C764 1.377 . S
C765 C766 1.376 . S
C766 H729 0.930 . S
C766 C765 1.376 . S
C766 C767 1.376 . S
C767 C766 1.376 . S
C767 C768 1.378 . S
C767 C794 1.486 . S
C768 H730 0.930 . S
C768 C767 1.378 . S
C768 C769 1.376 . S
C769 H731 0.929 . S
C769 C764 1.397 . S
C769 C768 1.376 . S
C770 C754 1.509 . S
C770 C771 1.391 . S
C770 C775 1.386 . S
C771 H732 0.930 . S
C771 C770 1.391 . S
C771 C772 1.375 . S
C772 H733 0.931 . S
C772 C771 1.375 . S
C772 C773 1.375 . S
C773 C772 1.375 . S
C773 C774 1.361 . S
C774 H734 0.930 . S
C774 C773 1.361 . S
C774 C775 1.399 . S
C775 H735 0.929 . S
C775 C770 1.386 . S
C775 C774 1.399 . S
C776 C755 1.485 . S
C776 C777 1.394 . S
C776 C781 1.360 . S
C777 H736 0.931 . S
C777 C776 1.394 . S
C777 C778 1.372 . S
C778 H737 0.930 . S
C778 C777 1.372 . S
C778 C779 1.397 . S
C779 C778 1.397 . S
C779 C780 1.390 . S
C779 C795 1.476 . S
C780 H738 0.930 . S
C780 C779 1.390 . S
C780 C781 1.366 . S
C781 H739 0.932 . S
C781 C776 1.360 . S
C781 C780 1.366 . S
C782 C756 1.490 . S
C782 C783 1.380 . S
C782 C787 1.386 . S
C783 H740 0.930 . S
C783 C782 1.380 . S
C783 C784 1.381 . S
C784 H741 0.929 . S
C784 C783 1.381 . S
C784 C785 1.371 . S
C785 C784 1.371 . S
C785 C786 1.380 . S
C786 H742 0.931 . S
C786 C785 1.380 . S
C786 C787 1.387 . S
C787 H743 0.930 . S
C787 C782 1.386 . S
C787 C786 1.387 . S
C788 C757 1.519 . S
C788 C789 1.377 . S
C788 C793 1.361 . S
C789 H744 0.929 . S
C789 C788 1.377 . S
C789 C790 1.386 . S
C790 H745 0.931 . S
C790 C789 1.386 . S
C790 C791 1.363 . S
C791 C790 1.363 . S
C791 C792 1.385 . S
C792 H746 0.930 . S
C792 C791 1.385 . S
C792 C793 1.396 . S
C793 H747 0.929 . S
C793 C788 1.361 . S
C793 C792 1.396 . S
C794 O748 1.300 . S
C794 O749 1.209 . S
C794 C767 1.486 . S
C795 O750 1.199 . S
C795 O751 1.297 . S
C795 C779 1.476 . S
H796 O822 0.856 . S
H797 O825 0.854 . S
H798 C833 0.930 . S
H799 C834 0.930 . S
H800 C836 0.930 . S
H801 C837 0.930 . S
H802 C839 0.931 . S
H803 C840 0.930 . S
H804 C842 0.930 . S
H805 C843 0.929 . S
H806 C845 0.930 . S
H807 C846 0.931 . S
H808 C848 0.930 . S
H809 C849 0.929 . S
H810 C851 0.931 . S
H811 C852 0.930 . S
H812 C854 0.930 . S
H813 C855 0.932 . S
H814 C857 0.930 . S
H815 C858 0.929 . S
H816 C860 0.931 . S
H817 C861 0.930 . S
H818 C863 0.929 . S
H819 C864 0.931 . S
H820 C866 0.930 . S
H821 C867 0.929 . S
O822 H796 0.856 . S
O822 C868 1.300 . S
O823 C868 1.209 . S
O824 C869 1.199 . S
O825 H797 0.854 . S
O825 C869 1.297 . S
C826 C827 1.404 . S
C826 C831 1.397 . S
C826 C832 1.492 . S
C827 C826 1.404 . S
C827 C828 1.396 . S
C827 C838 1.492 . S
C828 C827 1.396 . S
C828 C829 1.397 . S
C828 C844 1.509 . S
C829 C828 1.397 . S
C829 C830 1.412 . S
C829 C850 1.485 . S
C830 C829 1.412 . S
C830 C831 1.388 . S
C830 C856 1.490 . S
C831 C826 1.397 . S
C831 C830 1.388 . S
C831 C862 1.519 . S
C832 C826 1.492 . S
C832 C833 1.363 . S
C832 C837 1.390 . S
C833 H798 0.930 . S
C833 C832 1.363 . S
C833 C834 1.372 . S
C834 H799 0.930 . S
C834 C833 1.372 . S
C834 C835 1.383 . S
C835 C834 1.383 . S
C835 C836 1.395 . S
C836 H800 0.930 . S
C836 C835 1.395 . S
C836 C837 1.362 . S
C837 H801 0.930 . S
C837 C832 1.390 . S
C837 C836 1.362 . S
C838 C827 1.492 . S
C838 C839 1.377 . S
C838 C843 1.397 . S
C839 H802 0.931 . S
C839 C838 1.377 . S
C839 C840 1.376 . S
C840 H803 0.930 . S
C840 C839 1.376 . S
C840 C841 1.376 . S
C841 C840 1.376 . S
C841 C842 1.378 . S
C841 C868 1.486 . S
C842 H804 0.930 . S
C842 C841 1.378 . S
C842 C843 1.376 . S
C843 H805 0.929 . S
C843 C838 1.397 . S
C843 C842 1.376 . S
C844 C828 1.509 . S
C844 C845 1.391 . S
C844 C849 1.386 . S
C845 H806 0.930 . S
C845 C844 1.391 . S
C845 C846 1.375 . S
C846 H807 0.931 . S
C846 C845 1.375 . S
C846 C847 1.375 . S
C847 C846 1.375 . S
C847 C848 1.361 . S
C848 H808 0.930 . S
C848 C847 1.361 . S
C848 C849 1.399 . S
C849 H809 0.929 . S
C849 C844 1.386 . S
C849 C848 1.399 . S
C850 C829 1.485 . S
C850 C851 1.394 . S
C850 C855 1.360 . S
C851 H810 0.931 . S
C851 C850 1.394 . S
C851 C852 1.372 . S
C852 H811 0.930 . S
C852 C851 1.372 . S
C852 C853 1.397 . S
C853 C852 1.397 . S
C853 C854 1.390 . S
C853 C869 1.476 . S
C854 H812 0.930 . S
C854 C853 1.390 . S
C854 C855 1.366 . S
C855 H813 0.932 . S
C855 C850 1.360 . S
C855 C854 1.366 . S
C856 C830 1.490 . S
C856 C857 1.380 . S
C856 C861 1.386 . S
C857 H814 0.930 . S
C857 C856 1.380 . S
C857 C858 1.381 . S
C858 H815 0.929 . S
C858 C857 1.381 . S
C858 C859 1.371 . S
C859 C858 1.371 . S
C859 C860 1.380 . S
C860 H816 0.931 . S
C860 C859 1.380 . S
C860 C861 1.387 . S
C861 H817 0.930 . S
C861 C856 1.386 . S
C861 C860 1.387 . S
C862 C831 1.519 . S
C862 C863 1.377 . S
C862 C867 1.361 . S
C863 H818 0.929 . S
C863 C862 1.377 . S
C863 C864 1.386 . S
C864 H819 0.931 . S
C864 C863 1.386 . S
C864 C865 1.363 . S
C865 C864 1.363 . S
C865 C866 1.385 . S
C866 H820 0.930 . S
C866 C865 1.385 . S
C866 C867 1.396 . S
C867 H821 0.929 . S
C867 C862 1.361 . S
C867 C866 1.396 . S
C868 O822 1.300 . S
C868 O823 1.209 . S
C868 C841 1.486 . S
C869 O824 1.199 . S
C869 O825 1.297 . S
C869 C853 1.476 . S
H870 O896 0.856 . S
H871 O899 0.854 . S
H872 C907 0.930 . S
H873 C908 0.930 . S
H874 C910 0.930 . S
H875 C911 0.930 . S
H876 C913 0.931 . S
H877 C914 0.930 . S
H878 C916 0.930 . S
H879 C917 0.929 . S
H880 C919 0.930 . S
H881 C920 0.931 . S
H882 C922 0.930 . S
H883 C923 0.929 . S
H884 C925 0.931 . S
H885 C926 0.930 . S
H886 C928 0.930 . S
H887 C929 0.932 . S
H888 C931 0.930 . S
H889 C932 0.929 . S
H890 C934 0.931 . S
H891 C935 0.930 . S
H892 C937 0.929 . S
H893 C938 0.931 . S
H894 C940 0.930 . S
H895 C941 0.929 . S
O896 H870 0.856 . S
O896 C942 1.300 . S
O897 C942 1.209 . S
O898 C943 1.199 . S
O899 H871 0.854 . S
O899 C943 1.297 . S
C900 C901 1.404 . S
C900 C905 1.397 . S
C900 C906 1.492 . S
C901 C900 1.404 . S
C901 C902 1.396 . S
C901 C912 1.492 . S
C902 C901 1.396 . S
C902 C903 1.397 . S
C902 C918 1.509 . S
C903 C902 1.397 . S
C903 C904 1.412 . S
C903 C924 1.485 . S
C904 C903 1.412 . S
C904 C905 1.388 . S
C904 C930 1.490 . S
C905 C900 1.397 . S
C905 C904 1.388 . S
C905 C936 1.519 . S
C906 C900 1.492 . S
C906 C907 1.363 . S
C906 C911 1.390 . S
C907 H872 0.930 . S
C907 C906 1.363 . S
C907 C908 1.372 . S
C908 H873 0.930 . S
C908 C907 1.372 . S
C908 C909 1.383 . S
C909 C908 1.383 . S
C909 C910 1.395 . S
C910 H874 0.930 . S
C910 C909 1.395 . S
C910 C911 1.362 . S
C911 H875 0.930 . S
C911 C906 1.390 . S
C911 C910 1.362 . S
C912 C901 1.492 . S
C912 C913 1.377 . S
C912 C917 1.397 . S
C913 H876 0.931 . S
C913 C912 1.377 . S
C913 C914 1.376 . S
C914 H877 0.930 . S
C914 C913 1.376 . S
C914 C915 1.376 . S
C915 C914 1.376 . S
C915 C916 1.378 . S
C915 C942 1.486 1_556 S
C916 H878 0.930 . S
C916 C915 1.378 . S
C916 C917 1.376 . S
C917 H879 0.929 . S
C917 C912 1.397 . S
C917 C916 1.376 . S
C918 C902 1.509 . S
C918 C919 1.391 . S
C918 C923 1.386 . S
C919 H880 0.930 . S
C919 C918 1.391 . S
C919 C920 1.375 . S
C920 H881 0.931 . S
C920 C919 1.375 . S
C920 C921 1.375 . S
C921 C920 1.375 . S
C921 C922 1.361 . S
C922 H882 0.930 . S
C922 C921 1.361 . S
C922 C923 1.399 . S
C923 H883 0.929 . S
C923 C918 1.386 . S
C923 C922 1.399 . S
C924 C903 1.485 . S
C924 C925 1.394 . S
C924 C929 1.360 . S
C925 H884 0.931 . S
C925 C924 1.394 . S
C925 C926 1.372 . S
C926 H885 0.930 . S
C926 C925 1.372 . S
C926 C927 1.397 . S
C927 C926 1.397 . S
C927 C928 1.390 . S
C927 C943 1.476 . S
C928 H886 0.930 . S
C928 C927 1.390 . S
C928 C929 1.366 . S
C929 H887 0.932 . S
C929 C924 1.360 . S
C929 C928 1.366 . S
C930 C904 1.490 . S
C930 C931 1.380 . S
C930 C935 1.386 . S
C931 H888 0.930 . S
C931 C930 1.380 . S
C931 C932 1.381 . S
C932 H889 0.929 . S
C932 C931 1.381 . S
C932 C933 1.371 . S
C933 C932 1.371 . S
C933 C934 1.380 . S
C934 H890 0.931 . S
C934 C933 1.380 . S
C934 C935 1.387 . S
C935 H891 0.930 . S
C935 C930 1.386 . S
C935 C934 1.387 . S
C936 C905 1.519 . S
C936 C937 1.377 . S
C936 C941 1.361 . S
C937 H892 0.929 . S
C937 C936 1.377 . S
C937 C938 1.386 . S
C938 H893 0.931 . S
C938 C937 1.386 . S
C938 C939 1.363 . S
C939 C938 1.363 . S
C939 C940 1.385 . S
C940 H894 0.930 . S
C940 C939 1.385 . S
C940 C941 1.396 . S
C941 H895 0.929 . S
C941 C936 1.361 . S
C941 C940 1.396 . S
C942 O896 1.300 . S
C942 O897 1.209 . S
C942 C915 1.486 1_554 S
C943 O898 1.199 . S
C943 O899 1.297 . S
C943 C927 1.476 . S
H944 O970 0.856 . S
H945 O973 0.854 . S
H946 C981 0.930 . S
H947 C982 0.930 . S
H948 C984 0.930 . S
H949 C985 0.930 . S
H950 C987 0.931 . S
H951 C988 0.930 . S
H952 C990 0.930 . S
H953 C991 0.929 . S
H954 C993 0.930 . S
H955 C994 0.931 . S
H956 C996 0.930 . S
H957 C997 0.929 . S
H958 C999 0.931 . S
H959 C1000 0.930 . S
H960 C1002 0.930 . S
H961 C1003 0.932 . S
H962 C1005 0.930 . S
H963 C1006 0.929 . S
H964 C1008 0.931 . S
H965 C1009 0.930 . S
H966 C1011 0.929 . S
H967 C1012 0.931 . S
H968 C1014 0.930 . S
H969 C1015 0.929 . S
O970 H944 0.856 . S
O970 C1016 1.300 . S
O971 C1016 1.209 . S
O972 C1017 1.199 . S
O973 H945 0.854 . S
O973 C1017 1.297 . S
C974 C975 1.404 . S
C974 C979 1.397 . S
C974 C980 1.492 . S
C975 C974 1.404 . S
C975 C976 1.396 . S
C975 C986 1.492 . S
C976 C975 1.396 . S
C976 C977 1.397 . S
C976 C992 1.509 . S
C977 C976 1.397 . S
C977 C978 1.412 . S
C977 C998 1.485 . S
C978 C977 1.412 . S
C978 C979 1.388 . S
C978 C1004 1.490 . S
C979 C974 1.397 . S
C979 C978 1.388 . S
C979 C1010 1.519 . S
C980 C974 1.492 . S
C980 C981 1.363 . S
C980 C985 1.390 . S
C981 H946 0.930 . S
C981 C980 1.363 . S
C981 C982 1.372 . S
C982 H947 0.930 . S
C982 C981 1.372 . S
C982 C983 1.383 . S
C983 C982 1.383 . S
C983 C984 1.395 . S
C984 H948 0.930 . S
C984 C983 1.395 . S
C984 C985 1.362 . S
C985 H949 0.930 . S
C985 C980 1.390 . S
C985 C984 1.362 . S
C986 C975 1.492 . S
C986 C987 1.377 . S
C986 C991 1.397 . S
C987 H950 0.931 . S
C987 C986 1.377 . S
C987 C988 1.376 . S
C988 H951 0.930 . S
C988 C987 1.376 . S
C988 C989 1.376 . S
C989 C988 1.376 . S
C989 C990 1.378 . S
C989 C1016 1.486 1_556 S
C990 H952 0.930 . S
C990 C989 1.378 . S
C990 C991 1.376 . S
C991 H953 0.929 . S
C991 C986 1.397 . S
C991 C990 1.376 . S
C992 C976 1.509 . S
C992 C993 1.391 . S
C992 C997 1.386 . S
C993 H954 0.930 . S
C993 C992 1.391 . S
C993 C994 1.375 . S
C994 H955 0.931 . S
C994 C993 1.375 . S
C994 C995 1.375 . S
C995 C994 1.375 . S
C995 C996 1.361 . S
C996 H956 0.930 . S
C996 C995 1.361 . S
C996 C997 1.399 . S
C997 H957 0.929 . S
C997 C992 1.386 . S
C997 C996 1.399 . S
C998 C977 1.485 . S
C998 C999 1.394 . S
C998 C1003 1.360 . S
C999 H958 0.931 . S
C999 C998 1.394 . S
C999 C1000 1.372 . S
C1000 H959 0.930 . S
C1000 C999 1.372 . S
C1000 C1001 1.397 . S
C1001 C1000 1.397 . S
C1001 C1002 1.390 . S
C1001 C1017 1.476 . S
C1002 H960 0.930 . S
C1002 C1001 1.390 . S
C1002 C1003 1.366 . S
C1003 H961 0.932 . S
C1003 C998 1.360 . S
C1003 C1002 1.366 . S
C1004 C978 1.490 . S
C1004 C1005 1.380 . S
C1004 C1009 1.386 . S
C1005 H962 0.930 . S
C1005 C1004 1.380 . S
C1005 C1006 1.381 . S
C1006 H963 0.929 . S
C1006 C1005 1.381 . S
C1006 C1007 1.371 . S
C1007 C1006 1.371 . S
C1007 C1008 1.380 . S
C1008 H964 0.931 . S
C1008 C1007 1.380 . S
C1008 C1009 1.387 . S
C1009 H965 0.930 . S
C1009 C1004 1.386 . S
C1009 C1008 1.387 . S
C1010 C979 1.519 . S
C1010 C1011 1.377 . S
C1010 C1015 1.361 . S
C1011 H966 0.929 . S
C1011 C1010 1.377 . S
C1011 C1012 1.386 . S
C1012 H967 0.931 . S
C1012 C1011 1.386 . S
C1012 C1013 1.363 . S
C1013 C1012 1.363 . S
C1013 C1014 1.385 . S
C1014 H968 0.930 . S
C1014 C1013 1.385 . S
C1014 C1015 1.396 . S
C1015 H969 0.929 . S
C1015 C1010 1.361 . S
C1015 C1014 1.396 . S
C1016 O970 1.300 . S
C1016 O971 1.209 . S
C1016 C989 1.486 1_554 S
C1017 O972 1.199 . S
C1017 O973 1.297 . S
C1017 C1001 1.476 . S
H1018 O1044 0.856 . S
H1019 O1047 0.854 . S
H1020 C1055 0.930 . S
H1021 C1056 0.930 . S
H1022 C1058 0.930 . S
H1023 C1059 0.930 . S
H1024 C1061 0.931 . S
H1025 C1062 0.893 1_554 S
H1026 C1064 0.930 . S
H1027 C1065 0.929 . S
H1028 C1067 0.930 . S
H1029 C1068 0.931 . S
H1030 C1070 0.930 . S
H1031 C1071 0.929 . S
H1032 C1073 0.931 . S
H1033 C1074 0.930 . S
H1034 C1076 0.930 . S
H1035 C1077 0.932 . S
H1036 C1079 0.930 . S
H1037 C1080 0.929 . S
H1038 C1082 0.931 . S
H1039 C1083 0.930 . S
H1040 C1085 0.929 . S
H1041 C1086 0.931 . S
H1042 C1088 0.930 . S
H1043 C1089 0.929 . S
O1044 H1018 0.856 . S
O1044 C1090 1.300 . S
O1045 C1090 1.209 . S
O1046 C1091 1.199 . S
O1047 H1019 0.854 . S
O1047 C1091 1.297 . S
C1048 C1049 1.404 . S
C1048 C1053 1.397 . S
C1048 C1054 1.492 . S
C1049 C1048 1.404 . S
C1049 C1050 1.396 . S
C1049 C1060 1.492 . S
C1050 C1049 1.396 . S
C1050 C1051 1.397 . S
C1050 C1066 1.509 . S
C1051 C1050 1.397 . S
C1051 C1052 1.412 . S
C1051 C1072 1.485 . S
C1052 C1051 1.412 . S
C1052 C1053 1.388 . S
C1052 C1078 1.490 . S
C1053 C1048 1.397 . S
C1053 C1052 1.388 . S
C1053 C1084 1.519 . S
C1054 C1048 1.492 . S
C1054 C1055 1.363 . S
C1054 C1059 1.390 . S
C1055 H1020 0.930 . S
C1055 C1054 1.363 . S
C1055 C1056 1.372 . S
C1056 H1021 0.930 . S
C1056 C1055 1.372 . S
C1056 C1057 1.383 . S
C1057 C1056 1.383 . S
C1057 C1058 1.395 . S
C1058 H1022 0.930 . S
C1058 C1057 1.395 . S
C1058 C1059 1.362 . S
C1059 H1023 0.930 . S
C1059 C1054 1.390 . S
C1059 C1058 1.362 . S
C1060 C1049 1.492 . S
C1060 C1061 1.377 . S
C1060 C1065 1.397 . S
C1061 H1024 0.931 . S
C1061 C1060 1.377 . S
C1061 C1062 1.376 . S
C1062 H1025 0.893 1_556 S
C1062 C1061 1.376 . S
C1062 C1063 1.376 . S
C1063 C1062 1.376 . S
C1063 C1064 1.378 . S
C1063 C1090 1.486 1_556 S
C1064 H1026 0.930 . S
C1064 C1063 1.378 . S
C1064 C1065 1.376 . S
C1065 H1027 0.929 . S
C1065 C1060 1.397 . S
C1065 C1064 1.376 . S
C1066 C1050 1.509 . S
C1066 C1067 1.391 . S
C1066 C1071 1.386 . S
C1067 H1028 0.930 . S
C1067 C1066 1.391 . S
C1067 C1068 1.375 . S
C1068 H1029 0.931 . S
C1068 C1067 1.375 . S
C1068 C1069 1.375 . S
C1069 C1068 1.375 . S
C1069 C1070 1.361 . S
C1070 H1030 0.930 . S
C1070 C1069 1.361 . S
C1070 C1071 1.399 . S
C1071 H1031 0.929 . S
C1071 C1066 1.386 . S
C1071 C1070 1.399 . S
C1072 C1051 1.485 . S
C1072 C1073 1.394 . S
C1072 C1077 1.360 . S
C1073 H1032 0.931 . S
C1073 C1072 1.394 . S
C1073 C1074 1.372 . S
C1074 H1033 0.930 . S
C1074 C1073 1.372 . S
C1074 C1075 1.397 . S
C1075 C1074 1.397 . S
C1075 C1076 1.390 . S
C1075 C1091 1.476 . S
C1076 H1034 0.930 . S
C1076 C1075 1.390 . S
C1076 C1077 1.366 . S
C1077 H1035 0.932 . S
C1077 C1072 1.360 . S
C1077 C1076 1.366 . S
C1078 C1052 1.490 . S
C1078 C1079 1.380 . S
C1078 C1083 1.386 . S
C1079 H1036 0.930 . S
C1079 C1078 1.380 . S
C1079 C1080 1.381 . S
C1080 H1037 0.929 . S
C1080 C1079 1.381 . S
C1080 C1081 1.371 . S
C1081 C1080 1.371 . S
C1081 C1082 1.380 . S
C1082 H1038 0.931 . S
C1082 C1081 1.380 . S
C1082 C1083 1.387 . S
C1083 H1039 0.930 . S
C1083 C1078 1.386 . S
C1083 C1082 1.387 . S
C1084 C1053 1.519 . S
C1084 C1085 1.377 . S
C1084 C1089 1.361 . S
C1085 H1040 0.929 . S
C1085 C1084 1.377 . S
C1085 C1086 1.386 . S
C1086 H1041 0.931 . S
C1086 C1085 1.386 . S
C1086 C1087 1.363 . S
C1087 C1086 1.363 . S
C1087 C1088 1.385 . S
C1088 H1042 0.930 . S
C1088 C1087 1.385 . S
C1088 C1089 1.396 . S
C1089 H1043 0.929 . S
C1089 C1084 1.361 . S
C1089 C1088 1.396 . S
C1090 O1044 1.300 . S
C1090 O1045 1.209 . S
C1090 C1063 1.486 1_554 S
C1091 O1046 1.199 . S
C1091 O1047 1.297 . S
C1091 C1075 1.476 . S
H1092 O1118 0.856 . S
H1093 O1121 0.854 . S
H1094 C1129 0.930 . S
H1095 C1130 0.930 . S
H1096 C1132 0.930 . S
H1097 C1133 0.930 . S
H1098 C1135 0.931 . S
H1099 C1136 0.930 . S
H1100 C1138 0.930 . S
H1101 C1139 0.929 . S
H1102 C1141 0.930 . S
H1103 C1142 0.931 . S
H1104 C1144 0.930 . S
H1105 C1145 0.929 . S
H1106 C1147 0.931 . S
H1107 C1148 0.930 . S
H1108 C1150 0.930 . S
H1109 C1151 0.932 . S
H1110 C1153 0.930 . S
H1111 C1154 0.929 . S
H1112 C1156 0.931 . S
H1113 C1157 0.930 . S
H1114 C1159 0.929 . S
H1115 C1160 0.931 . S
H1116 C1162 0.930 . S
H1117 C1163 0.929 . S
O1118 H1092 0.856 . S
O1118 C1164 1.300 . S
O1119 C1164 1.209 . S
O1120 C1165 1.199 . S
O1121 H1093 0.854 . S
O1121 C1165 1.297 . S
C1122 C1123 1.404 . S
C1122 C1127 1.397 . S
C1122 C1128 1.492 . S
C1123 C1122 1.404 . S
C1123 C1124 1.396 . S
C1123 C1134 1.492 . S
C1124 C1123 1.396 . S
C1124 C1125 1.397 . S
C1124 C1140 1.509 . S
C1125 C1124 1.397 . S
C1125 C1126 1.412 . S
C1125 C1146 1.485 . S
C1126 C1125 1.412 . S
C1126 C1127 1.388 . S
C1126 C1152 1.490 . S
C1127 C1122 1.397 . S
C1127 C1126 1.388 . S
C1127 C1158 1.519 . S
C1128 C1122 1.492 . S
C1128 C1129 1.363 . S
C1128 C1133 1.390 . S
C1129 H1094 0.930 . S
C1129 C1128 1.363 . S
C1129 C1130 1.372 . S
C1130 H1095 0.930 . S
C1130 C1129 1.372 . S
C1130 C1131 1.383 . S
C1131 C1130 1.383 . S
C1131 C1132 1.395 . S
C1132 H1096 0.930 . S
C1132 C1131 1.395 . S
C1132 C1133 1.362 . S
C1133 H1097 0.930 . S
C1133 C1128 1.390 . S
C1133 C1132 1.362 . S
C1134 C1123 1.492 . S
C1134 C1135 1.377 . S
C1134 C1139 1.397 . S
C1135 H1098 0.931 . S
C1135 C1134 1.377 . S
C1135 C1136 1.376 . S
C1136 H1099 0.930 . S
C1136 C1135 1.376 . S
C1136 C1137 1.376 . S
C1137 C1136 1.376 . S
C1137 C1138 1.378 . S
C1137 C1164 1.486 . S
C1138 H1100 0.930 . S
C1138 C1137 1.378 . S
C1138 C1139 1.376 . S
C1139 H1101 0.929 . S
C1139 C1134 1.397 . S
C1139 C1138 1.376 . S
C1140 C1124 1.509 . S
C1140 C1141 1.391 . S
C1140 C1145 1.386 . S
C1141 H1102 0.930 . S
C1141 C1140 1.391 . S
C1141 C1142 1.375 . S
C1142 H1103 0.931 . S
C1142 C1141 1.375 . S
C1142 C1143 1.375 . S
C1143 C1142 1.375 . S
C1143 C1144 1.361 . S
C1144 H1104 0.930 . S
C1144 C1143 1.361 . S
C1144 C1145 1.399 . S
C1145 H1105 0.929 . S
C1145 C1140 1.386 . S
C1145 C1144 1.399 . S
C1146 C1125 1.485 . S
C1146 C1147 1.394 . S
C1146 C1151 1.360 . S
C1147 H1106 0.931 . S
C1147 C1146 1.394 . S
C1147 C1148 1.372 . S
C1148 H1107 0.930 . S
C1148 C1147 1.372 . S
C1148 C1149 1.397 . S
C1149 C1148 1.397 . S
C1149 C1150 1.390 . S
C1149 C1165 1.476 . S
C1150 H1108 0.930 . S
C1150 C1149 1.390 . S
C1150 C1151 1.366 . S
C1151 H1109 0.932 . S
C1151 C1146 1.360 . S
C1151 C1150 1.366 . S
C1152 C1126 1.490 . S
C1152 C1153 1.380 . S
C1152 C1157 1.386 . S
C1153 H1110 0.930 . S
C1153 C1152 1.380 . S
C1153 C1154 1.381 . S
C1154 H1111 0.929 . S
C1154 C1153 1.381 . S
C1154 C1155 1.371 . S
C1155 C1154 1.371 . S
C1155 C1156 1.380 . S
C1156 H1112 0.931 . S
C1156 C1155 1.380 . S
C1156 C1157 1.387 . S
C1157 H1113 0.930 . S
C1157 C1152 1.386 . S
C1157 C1156 1.387 . S
C1158 C1127 1.519 . S
C1158 C1159 1.377 . S
C1158 C1163 1.361 . S
C1159 H1114 0.929 . S
C1159 C1158 1.377 . S
C1159 C1160 1.386 . S
C1160 H1115 0.931 . S
C1160 C1159 1.386 . S
C1160 C1161 1.363 . S
C1161 C1160 1.363 . S
C1161 C1162 1.385 . S
C1162 H1116 0.930 . S
C1162 C1161 1.385 . S
C1162 C1163 1.396 . S
C1163 H1117 0.929 . S
C1163 C1158 1.361 . S
C1163 C1162 1.396 . S
C1164 O1118 1.300 . S
C1164 O1119 1.209 . S
C1164 C1137 1.486 . S
C1165 O1120 1.199 . S
C1165 O1121 1.297 . S
C1165 C1149 1.476 . S
H1166 O1192 0.856 . S
H1167 O1195 0.854 . S
H1168 C1203 0.930 . S
H1169 C1204 0.930 . S
H1170 C1206 0.930 . S
H1171 C1207 0.930 . S
H1172 C1209 0.931 . S
H1173 C1210 0.930 . S
H1174 C1212 0.930 . S
H1175 C1213 0.929 . S
H1176 C1215 0.930 . S
H1177 C1216 0.931 . S
H1178 C1218 0.930 . S
H1179 C1219 0.929 . S
H1180 C1221 0.931 . S
H1181 C1222 0.930 . S
H1182 C1224 0.930 . S
H1183 C1225 0.932 . S
H1184 C1227 0.930 . S
H1185 C1228 0.929 . S
H1186 C1230 0.931 . S
H1187 C1231 0.930 . S
H1188 C1233 0.929 . S
H1189 C1234 0.931 . S
H1190 C1236 0.930 . S
H1191 C1237 0.929 . S
O1192 H1166 0.856 . S
O1192 C1238 1.300 . S
O1193 C1238 1.209 . S
O1194 C1239 1.199 . S
O1195 H1167 0.854 . S
O1195 C1239 1.297 . S
C1196 C1197 1.404 . S
C1196 C1201 1.397 . S
C1196 C1202 1.492 . S
C1197 C1196 1.404 . S
C1197 C1198 1.396 . S
C1197 C1208 1.492 . S
C1198 C1197 1.396 . S
C1198 C1199 1.397 . S
C1198 C1214 1.509 . S
C1199 C1198 1.397 . S
C1199 C1200 1.412 . S
C1199 C1220 1.485 . S
C1200 C1199 1.412 . S
C1200 C1201 1.388 . S
C1200 C1226 1.490 . S
C1201 C1196 1.397 . S
C1201 C1200 1.388 . S
C1201 C1232 1.519 . S
C1202 C1196 1.492 . S
C1202 C1203 1.363 . S
C1202 C1207 1.390 . S
C1203 H1168 0.930 . S
C1203 C1202 1.363 . S
C1203 C1204 1.372 . S
C1204 H1169 0.930 . S
C1204 C1203 1.372 . S
C1204 C1205 1.383 . S
C1205 C1204 1.383 . S
C1205 C1206 1.395 . S
C1206 H1170 0.930 . S
C1206 C1205 1.395 . S
C1206 C1207 1.362 . S
C1207 H1171 0.930 . S
C1207 C1202 1.390 . S
C1207 C1206 1.362 . S
C1208 C1197 1.492 . S
C1208 C1209 1.377 . S
C1208 C1213 1.397 . S
C1209 H1172 0.931 . S
C1209 C1208 1.377 . S
C1209 C1210 1.376 . S
C1210 H1173 0.930 . S
C1210 C1209 1.376 . S
C1210 C1211 1.376 . S
C1211 C1210 1.376 . S
C1211 C1212 1.378 . S
C1211 C1238 1.486 . S
C1212 H1174 0.930 . S
C1212 C1211 1.378 . S
C1212 C1213 1.376 . S
C1213 H1175 0.929 . S
C1213 C1208 1.397 . S
C1213 C1212 1.376 . S
C1214 C1198 1.509 . S
C1214 C1215 1.391 . S
C1214 C1219 1.386 . S
C1215 H1176 0.930 . S
C1215 C1214 1.391 . S
C1215 C1216 1.375 . S
C1216 H1177 0.931 . S
C1216 C1215 1.375 . S
C1216 C1217 1.375 . S
C1217 C1216 1.375 . S
C1217 C1218 1.361 . S
C1218 H1178 0.930 . S
C1218 C1217 1.361 . S
C1218 C1219 1.399 . S
C1219 H1179 0.929 . S
C1219 C1214 1.386 . S
C1219 C1218 1.399 . S
C1220 C1199 1.485 . S
C1220 C1221 1.394 . S
C1220 C1225 1.360 . S
C1221 H1180 0.931 . S
C1221 C1220 1.394 . S
C1221 C1222 1.372 . S
C1222 H1181 0.930 . S
C1222 C1221 1.372 . S
C1222 C1223 1.397 . S
C1223 C1222 1.397 . S
C1223 C1224 1.390 . S
C1223 C1239 1.476 . S
C1224 H1182 0.930 . S
C1224 C1223 1.390 . S
C1224 C1225 1.366 . S
C1225 H1183 0.932 . S
C1225 C1220 1.360 . S
C1225 C1224 1.366 . S
C1226 C1200 1.490 . S
C1226 C1227 1.380 . S
C1226 C1231 1.386 . S
C1227 H1184 0.930 . S
C1227 C1226 1.380 . S
C1227 C1228 1.381 . S
C1228 H1185 0.929 . S
C1228 C1227 1.381 . S
C1228 C1229 1.371 . S
C1229 C1228 1.371 . S
C1229 C1230 1.380 . S
C1230 H1186 0.931 . S
C1230 C1229 1.380 . S
C1230 C1231 1.387 . S
C1231 H1187 0.930 . S
C1231 C1226 1.386 . S
C1231 C1230 1.387 . S
C1232 C1201 1.519 . S
C1232 C1233 1.377 . S
C1232 C1237 1.361 . S
C1233 H1188 0.929 . S
C1233 C1232 1.377 . S
C1233 C1234 1.386 . S
C1234 H1189 0.931 . S
C1234 C1233 1.386 . S
C1234 C1235 1.363 . S
C1235 C1234 1.363 . S
C1235 C1236 1.385 . S
C1236 H1190 0.930 . S
C1236 C1235 1.385 . S
C1236 C1237 1.396 . S
C1237 H1191 0.929 . S
C1237 C1232 1.361 . S
C1237 C1236 1.396 . S
C1238 O1192 1.300 . S
C1238 O1193 1.209 . S
C1238 C1211 1.486 . S
C1239 O1194 1.199 . S
C1239 O1195 1.297 . S
C1239 C1223 1.476 . S
H1240 O1266 0.856 . S
H1241 O1269 0.854 . S
H1242 C1277 0.930 . S
H1243 C1278 0.930 . S
H1244 C1280 0.930 . S
H1245 C1281 0.930 . S
H1246 C1283 0.931 . S
H1247 C1284 0.930 . S
H1248 C1286 0.930 . S
H1249 C1287 0.929 . S
H1250 C1289 0.930 . S
H1251 C1290 0.931 . S
H1252 C1292 0.930 . S
H1253 C1293 0.929 . S
H1254 C1295 0.931 . S
H1255 C1296 0.930 . S
H1256 C1298 0.930 . S
H1257 C1299 0.932 . S
H1258 C1301 0.930 . S
H1259 C1302 0.929 . S
H1260 C1304 0.931 . S
H1261 C1305 0.930 . S
H1262 C1307 0.929 . S
H1263 C1308 0.931 . S
H1264 C1310 0.930 . S
H1265 C1311 0.929 . S
O1266 H1240 0.856 . S
O1266 C1312 1.300 . S
O1267 C1312 1.209 . S
O1268 C1313 1.199 . S
O1269 H1241 0.854 . S
O1269 C1313 1.297 . S
C1270 C1271 1.404 . S
C1270 C1275 1.397 . S
C1270 C1276 1.492 . S
C1271 C1270 1.404 . S
C1271 C1272 1.396 . S
C1271 C1282 1.492 . S
C1272 C1271 1.396 . S
C1272 C1273 1.397 . S
C1272 C1288 1.509 . S
C1273 C1272 1.397 . S
C1273 C1274 1.412 . S
C1273 C1294 1.485 . S
C1274 C1273 1.412 . S
C1274 C1275 1.388 . S
C1274 C1300 1.490 . S
C1275 C1270 1.397 . S
C1275 C1274 1.388 . S
C1275 C1306 1.519 . S
C1276 C1270 1.492 . S
C1276 C1277 1.363 . S
C1276 C1281 1.390 . S
C1277 H1242 0.930 . S
C1277 C1276 1.363 . S
C1277 C1278 1.372 . S
C1278 H1243 0.930 . S
C1278 C1277 1.372 . S
C1278 C1279 1.383 . S
C1279 C1278 1.383 . S
C1279 C1280 1.395 . S
C1280 H1244 0.930 . S
C1280 C1279 1.395 . S
C1280 C1281 1.362 . S
C1281 H1245 0.930 . S
C1281 C1276 1.390 . S
C1281 C1280 1.362 . S
C1282 C1271 1.492 . S
C1282 C1283 1.377 . S
C1282 C1287 1.397 . S
C1283 H1246 0.931 . S
C1283 C1282 1.377 . S
C1283 C1284 1.376 . S
C1284 H1247 0.930 . S
C1284 C1283 1.376 . S
C1284 C1285 1.376 . S
C1285 C1284 1.376 . S
C1285 C1286 1.378 . S
C1285 C1312 1.486 . S
C1286 H1248 0.930 . S
C1286 C1285 1.378 . S
C1286 C1287 1.376 . S
C1287 H1249 0.929 . S
C1287 C1282 1.397 . S
C1287 C1286 1.376 . S
C1288 C1272 1.509 . S
C1288 C1289 1.391 . S
C1288 C1293 1.386 . S
C1289 H1250 0.930 . S
C1289 C1288 1.391 . S
C1289 C1290 1.375 . S
C1290 H1251 0.931 . S
C1290 C1289 1.375 . S
C1290 C1291 1.375 . S
C1291 C1290 1.375 . S
C1291 C1292 1.361 . S
C1292 H1252 0.930 . S
C1292 C1291 1.361 . S
C1292 C1293 1.399 . S
C1293 H1253 0.929 . S
C1293 C1288 1.386 . S
C1293 C1292 1.399 . S
C1294 C1273 1.485 . S
C1294 C1295 1.394 . S
C1294 C1299 1.360 . S
C1295 H1254 0.931 . S
C1295 C1294 1.394 . S
C1295 C1296 1.372 . S
C1296 H1255 0.930 . S
C1296 C1295 1.372 . S
C1296 C1297 1.397 . S
C1297 C1296 1.397 . S
C1297 C1298 1.390 . S
C1297 C1313 1.476 . S
C1298 H1256 0.930 . S
C1298 C1297 1.390 . S
C1298 C1299 1.366 . S
C1299 H1257 0.932 . S
C1299 C1294 1.360 . S
C1299 C1298 1.366 . S
C1300 C1274 1.490 . S
C1300 C1301 1.380 . S
C1300 C1305 1.386 . S
C1301 H1258 0.930 . S
C1301 C1300 1.380 . S
C1301 C1302 1.381 . S
C1302 H1259 0.929 . S
C1302 C1301 1.381 . S
C1302 C1303 1.371 . S
C1303 C1302 1.371 . S
C1303 C1304 1.380 . S
C1304 H1260 0.931 . S
C1304 C1303 1.380 . S
C1304 C1305 1.387 . S
C1305 H1261 0.930 . S
C1305 C1300 1.386 . S
C1305 C1304 1.387 . S
C1306 C1275 1.519 . S
C1306 C1307 1.377 . S
C1306 C1311 1.361 . S
C1307 H1262 0.929 . S
C1307 C1306 1.377 . S
C1307 C1308 1.386 . S
C1308 H1263 0.931 . S
C1308 C1307 1.386 . S
C1308 C1309 1.363 . S
C1309 C1308 1.363 . S
C1309 C1310 1.385 . S
C1310 H1264 0.930 . S
C1310 C1309 1.385 . S
C1310 C1311 1.396 . S
C1311 H1265 0.929 . S
C1311 C1306 1.361 . S
C1311 C1310 1.396 . S
C1312 O1266 1.300 . S
C1312 O1267 1.209 . S
C1312 C1285 1.486 . S
C1313 O1268 1.199 . S
C1313 O1269 1.297 . S
C1313 C1297 1.476 . S
H1314 O1340 0.856 . S
H1315 O1343 0.854 . S
H1316 C1351 0.930 . S
H1317 C1352 0.930 . S
H1318 C1354 0.930 . S
H1319 C1355 0.930 . S
H1320 C1357 0.931 . S
H1321 C1358 0.905 1_655 S
H1322 C1360 0.930 . S
H1323 C1361 0.929 . S
H1324 C1363 0.930 . S
H1325 C1364 0.928 . S
H1326 C1366 0.930 . S
H1327 C1367 0.929 . S
H1328 C1369 0.931 . S
H1329 C1370 0.930 . S
H1330 C1372 0.930 . S
H1331 C1373 0.932 . S
H1332 C1375 0.930 . S
H1333 C1376 0.929 . S
H1334 C1378 0.931 . S
H1335 C1379 0.930 . S
H1336 C1381 0.929 . S
H1337 C1382 0.931 . S
H1338 C1384 0.930 . S
H1339 C1385 0.929 . S
O1340 H1314 0.856 . S
O1340 C1386 1.300 . S
O1341 C1386 1.209 . S
O1342 C1387 1.199 1_655 S
O1343 H1315 0.854 . S
O1343 C1387 1.297 . S
C1344 C1345 1.404 . S
C1344 C1349 1.394 . S
C1344 C1350 1.492 . S
C1345 C1344 1.404 . S
C1345 C1346 1.396 . S
C1345 C1356 1.492 . S
C1346 C1345 1.396 . S
C1346 C1347 1.397 . S
C1346 C1362 1.509 . S
C1347 C1346 1.397 . S
C1347 C1348 1.420 . S
C1347 C1368 1.485 . S
C1348 C1347 1.420 . S
C1348 C1349 1.406 . S
C1348 C1374 1.491 1_455 S
C1349 C1344 1.394 . S
C1349 C1348 1.406 . S
C1349 C1380 1.495 1_455 S
C1350 C1344 1.492 . S
C1350 C1351 1.363 1_455 S
C1350 C1355 1.390 . S
C1351 H1316 0.930 . S
C1351 C1350 1.363 1_655 S
C1351 C1352 1.372 . S
C1352 H1317 0.930 . S
C1352 C1351 1.372 . S
C1352 C1353 1.383 . S
C1353 C1352 1.383 . S
C1353 C1354 1.395 1_655 S
C1354 H1318 0.930 . S
C1354 C1353 1.395 1_455 S
C1354 C1355 1.362 . S
C1355 H1319 0.930 . S
C1355 C1350 1.390 . S
C1355 C1354 1.362 . S
C1356 C1345 1.492 . S
C1356 C1357 1.377 1_455 S
C1356 C1361 1.397 . S
C1357 H1320 0.931 . S
C1357 C1356 1.377 1_655 S
C1357 C1358 1.381 1_655 S
C1358 H1321 0.905 1_455 S
C1358 C1357 1.381 1_455 S
C1358 C1359 1.399 . S
C1359 C1358 1.399 . S
C1359 C1360 1.378 . S
C1359 C1386 1.486 . S
C1360 H1322 0.930 . S
C1360 C1359 1.378 . S
C1360 C1361 1.376 . S
C1361 H1323 0.929 . S
C1361 C1356 1.397 . S
C1361 C1360 1.376 . S
C1362 C1346 1.509 . S
C1362 C1363 1.391 1_455 S
C1362 C1367 1.386 . S
C1363 H1324 0.930 . S
C1363 C1362 1.391 1_655 S
C1363 C1364 1.372 . S
C1364 H1325 0.928 . S
C1364 C1363 1.372 . S
C1364 C1365 1.380 1_655 S
C1365 C1364 1.380 1_455 S
C1365 C1366 1.361 . S
C1366 H1326 0.930 . S
C1366 C1365 1.361 . S
C1366 C1367 1.399 . S
C1367 H1327 0.929 . S
C1367 C1362 1.386 . S
C1367 C1366 1.399 . S
C1368 C1347 1.485 . S
C1368 C1369 1.394 1_455 S
C1368 C1373 1.360 . S
C1369 H1328 0.931 . S
C1369 C1368 1.394 1_655 S
C1369 C1370 1.372 . S
C1370 H1329 0.930 . S
C1370 C1369 1.372 . S
C1370 C1371 1.397 1_655 S
C1371 C1370 1.397 1_455 S
C1371 C1372 1.390 . S
C1371 C1387 1.476 . S
C1372 H1330 0.930 . S
C1372 C1371 1.390 . S
C1372 C1373 1.366 . S
C1373 H1331 0.932 . S
C1373 C1368 1.360 . S
C1373 C1372 1.366 . S
C1374 C1348 1.491 1_655 S
C1374 C1375 1.380 . S
C1374 C1379 1.386 1_655 S
C1375 H1332 0.930 . S
C1375 C1374 1.380 . S
C1375 C1376 1.381 . S
C1376 H1333 0.929 . S
C1376 C1375 1.381 . S
C1376 C1377 1.371 . S
C1377 C1376 1.371 . S
C1377 C1378 1.380 1_655 S
C1378 H1334 0.931 . S
C1378 C1377 1.380 1_455 S
C1378 C1379 1.387 . S
C1379 H1335 0.930 . S
C1379 C1374 1.386 1_455 S
C1379 C1378 1.387 . S
C1380 C1349 1.495 1_655 S
C1380 C1381 1.396 . S
C1380 C1385 1.348 1_655 S
C1381 H1336 0.929 . S
C1381 C1380 1.396 . S
C1381 C1382 1.386 . S
C1382 H1337 0.931 . S
C1382 C1381 1.386 . S
C1382 C1383 1.365 1_655 S
C1383 C1382 1.365 1_455 S
C1383 C1384 1.383 . S
C1384 H1338 0.930 . S
C1384 C1383 1.383 . S
C1384 C1385 1.396 . S
C1385 H1339 0.929 . S
C1385 C1380 1.348 1_455 S
C1385 C1384 1.396 . S
C1386 O1340 1.300 . S
C1386 O1341 1.209 . S
C1386 C1359 1.486 . S
C1387 O1342 1.199 1_455 S
C1387 O1343 1.297 . S
C1387 C1371 1.476 . S
H1388 O1414 0.856 . S
H1389 O1417 0.854 . S
H1390 C1425 0.930 . S
H1391 C1426 0.930 . S
H1392 C1428 0.930 . S
H1393 C1429 0.930 . S
H1394 C1431 0.931 . S
H1395 C1432 0.930 . S
H1396 C1434 0.930 . S
H1397 C1435 0.929 . S
H1398 C1437 0.930 . S
H1399 C1438 0.931 . S
H1400 C1440 0.930 . S
H1401 C1441 0.929 . S
H1402 C1443 0.931 . S
H1403 C1444 0.930 . S
H1404 C1446 0.930 . S
H1405 C1447 0.932 . S
H1406 C1449 0.930 . S
H1407 C1450 0.929 . S
H1408 C1452 0.931 . S
H1409 C1453 0.930 . S
H1410 C1455 0.929 . S
H1411 C1456 0.931 . S
H1412 C1458 0.930 . S
H1413 C1459 0.929 . S
O1414 H1388 0.856 . S
O1414 C1460 1.300 . S
O1415 C1460 1.209 . S
O1416 C1461 1.199 . S
O1417 H1389 0.854 . S
O1417 C1461 1.297 . S
C1418 C1419 1.404 . S
C1418 C1423 1.397 . S
C1418 C1424 1.492 . S
C1419 C1418 1.404 . S
C1419 C1420 1.396 . S
C1419 C1430 1.492 . S
C1420 C1419 1.396 . S
C1420 C1421 1.397 . S
C1420 C1436 1.509 . S
C1421 C1420 1.397 . S
C1421 C1422 1.412 . S
C1421 C1442 1.485 . S
C1422 C1421 1.412 . S
C1422 C1423 1.388 . S
C1422 C1448 1.490 . S
C1423 C1418 1.397 . S
C1423 C1422 1.388 . S
C1423 C1454 1.519 . S
C1424 C1418 1.492 . S
C1424 C1425 1.363 . S
C1424 C1429 1.390 . S
C1425 H1390 0.930 . S
C1425 C1424 1.363 . S
C1425 C1426 1.372 . S
C1426 H1391 0.930 . S
C1426 C1425 1.372 . S
C1426 C1427 1.383 . S
C1427 C1426 1.383 . S
C1427 C1428 1.395 . S
C1428 H1392 0.930 . S
C1428 C1427 1.395 . S
C1428 C1429 1.362 . S
C1429 H1393 0.930 . S
C1429 C1424 1.390 . S
C1429 C1428 1.362 . S
C1430 C1419 1.492 . S
C1430 C1431 1.377 . S
C1430 C1435 1.397 . S
C1431 H1394 0.931 . S
C1431 C1430 1.377 . S
C1431 C1432 1.376 . S
C1432 H1395 0.930 . S
C1432 C1431 1.376 . S
C1432 C1433 1.376 . S
C1433 C1432 1.376 . S
C1433 C1434 1.378 . S
C1433 C1460 1.486 . S
C1434 H1396 0.930 . S
C1434 C1433 1.378 . S
C1434 C1435 1.376 . S
C1435 H1397 0.929 . S
C1435 C1430 1.397 . S
C1435 C1434 1.376 . S
C1436 C1420 1.509 . S
C1436 C1437 1.391 . S
C1436 C1441 1.386 . S
C1437 H1398 0.930 . S
C1437 C1436 1.391 . S
C1437 C1438 1.375 . S
C1438 H1399 0.931 . S
C1438 C1437 1.375 . S
C1438 C1439 1.375 . S
C1439 C1438 1.375 . S
C1439 C1440 1.361 . S
C1440 H1400 0.930 . S
C1440 C1439 1.361 . S
C1440 C1441 1.399 . S
C1441 H1401 0.929 . S
C1441 C1436 1.386 . S
C1441 C1440 1.399 . S
C1442 C1421 1.485 . S
C1442 C1443 1.394 . S
C1442 C1447 1.360 . S
C1443 H1402 0.931 . S
C1443 C1442 1.394 . S
C1443 C1444 1.372 . S
C1444 H1403 0.930 . S
C1444 C1443 1.372 . S
C1444 C1445 1.397 . S
C1445 C1444 1.397 . S
C1445 C1446 1.390 . S
C1445 C1461 1.476 . S
C1446 H1404 0.930 . S
C1446 C1445 1.390 . S
C1446 C1447 1.366 . S
C1447 H1405 0.932 . S
C1447 C1442 1.360 . S
C1447 C1446 1.366 . S
C1448 C1422 1.490 . S
C1448 C1449 1.380 . S
C1448 C1453 1.386 . S
C1449 H1406 0.930 . S
C1449 C1448 1.380 . S
C1449 C1450 1.381 . S
C1450 H1407 0.929 . S
C1450 C1449 1.381 . S
C1450 C1451 1.371 . S
C1451 C1450 1.371 . S
C1451 C1452 1.380 . S
C1452 H1408 0.931 . S
C1452 C1451 1.380 . S
C1452 C1453 1.387 . S
C1453 H1409 0.930 . S
C1453 C1448 1.386 . S
C1453 C1452 1.387 . S
C1454 C1423 1.519 . S
C1454 C1455 1.377 . S
C1454 C1459 1.361 . S
C1455 H1410 0.929 . S
C1455 C1454 1.377 . S
C1455 C1456 1.386 . S
C1456 H1411 0.931 . S
C1456 C1455 1.386 . S
C1456 C1457 1.363 . S
C1457 C1456 1.363 . S
C1457 C1458 1.385 . S
C1458 H1412 0.930 . S
C1458 C1457 1.385 . S
C1458 C1459 1.396 . S
C1459 H1413 0.929 . S
C1459 C1454 1.361 . S
C1459 C1458 1.396 . S
C1460 O1414 1.300 . S
C1460 O1415 1.209 . S
C1460 C1433 1.486 . S
C1461 O1416 1.199 . S
C1461 O1417 1.297 . S
C1461 C1445 1.476 . S
H1462 O1488 0.856 . S
H1463 O1491 0.854 . S
H1464 C1499 0.930 . S
H1465 C1500 0.930 . S
H1466 C1502 0.930 . S
H1467 C1503 0.930 . S
H1468 C1505 0.931 . S
H1469 C1506 0.945 . S
H1470 C1508 0.930 . S
H1471 C1509 0.929 . S
H1472 C1511 0.930 . S
H1473 C1512 0.989 . S
H1474 C1514 0.930 . S
H1475 C1515 0.929 . S
H1476 C1517 0.931 . S
H1477 C1518 0.930 . S
H1478 C1520 0.930 . S
H1479 C1521 0.932 . S
H1480 C1523 0.930 . S
H1481 C1524 0.929 . S
H1482 C1526 0.931 . S
H1483 C1527 0.930 . S
H1484 C1529 0.929 . S
H1485 C1530 0.931 . S
H1486 C1532 0.930 . S
H1487 C1533 0.929 . S
O1488 H1462 0.856 . S
O1488 C1534 1.300 . S
O1489 C1534 1.209 . S
O1490 C1535 1.199 1_545 S
O1491 H1463 0.854 . S
O1491 C1535 1.297 . S
C1492 C1493 1.404 . S
C1492 C1497 1.413 . S
C1492 C1498 1.492 . S
C1493 C1492 1.404 . S
C1493 C1494 1.396 . S
C1493 C1504 1.492 . S
C1494 C1493 1.396 . S
C1494 C1495 1.397 . S
C1494 C1510 1.509 . S
C1495 C1494 1.397 . S
C1495 C1496 1.409 . S
C1495 C1516 1.485 . S
C1496 C1495 1.409 . S
C1496 C1497 1.373 . S
C1496 C1522 1.484 1_565 S
C1497 C1492 1.413 . S
C1497 C1496 1.373 . S
C1497 C1528 1.535 1_565 S
C1498 C1492 1.492 . S
C1498 C1499 1.363 1_565 S
C1498 C1503 1.390 . S
C1499 H1464 0.930 . S
C1499 C1498 1.363 1_545 S
C1499 C1500 1.372 . S
C1500 H1465 0.930 . S
C1500 C1499 1.372 . S
C1500 C1501 1.383 . S
C1501 C1500 1.383 . S
C1501 C1502 1.395 1_545 S
C1502 H1466 0.930 . S
C1502 C1501 1.395 1_565 S
C1502 C1503 1.362 . S
C1503 H1467 0.930 . S
C1503 C1498 1.390 . S
C1503 C1502 1.362 . S
C1504 C1493 1.492 . S
C1504 C1505 1.377 1_565 S
C1504 C1509 1.397 . S
C1505 H1468 0.931 . S
C1505 C1504 1.377 1_545 S
C1505 C1506 1.383 . S
C1506 H1469 0.945 . S
C1506 C1505 1.383 . S
C1506 C1507 1.354 1_545 S
C1507 C1506 1.354 1_565 S
C1507 C1508 1.378 . S
C1507 C1534 1.486 . S
C1508 H1470 0.930 . S
C1508 C1507 1.378 . S
C1508 C1509 1.376 . S
C1509 H1471 0.929 . S
C1509 C1504 1.397 . S
C1509 C1508 1.376 . S
C1510 C1494 1.509 . S
C1510 C1511 1.391 1_565 S
C1510 C1515 1.386 . S
C1511 H1472 0.930 . S
C1511 C1510 1.391 1_545 S
C1511 C1512 1.367 . S
C1512 H1473 0.989 . S
C1512 C1511 1.367 . S
C1512 C1513 1.329 1_545 S
C1513 C1512 1.329 1_565 S
C1513 C1514 1.361 . S
C1514 H1474 0.930 . S
C1514 C1513 1.361 . S
C1514 C1515 1.399 . S
C1515 H1475 0.929 . S
C1515 C1510 1.386 . S
C1515 C1514 1.399 . S
C1516 C1495 1.485 . S
C1516 C1517 1.394 1_565 S
C1516 C1521 1.360 . S
C1517 H1476 0.931 . S
C1517 C1516 1.394 1_545 S
C1517 C1518 1.372 . S
C1518 H1477 0.930 . S
C1518 C1517 1.372 . S
C1518 C1519 1.397 1_545 S
C1519 C1518 1.397 1_565 S
C1519 C1520 1.390 . S
C1519 C1535 1.476 . S
C1520 H1478 0.930 . S
C1520 C1519 1.390 . S
C1520 C1521 1.366 . S
C1521 H1479 0.932 . S
C1521 C1516 1.360 . S
C1521 C1520 1.366 . S
C1522 C1496 1.484 1_545 S
C1522 C1523 1.380 . S
C1522 C1527 1.386 1_545 S
C1523 H1480 0.930 . S
C1523 C1522 1.380 . S
C1523 C1524 1.381 . S
C1524 H1481 0.929 . S
C1524 C1523 1.381 . S
C1524 C1525 1.371 . S
C1525 C1524 1.371 . S
C1525 C1526 1.380 1_545 S
C1526 H1482 0.931 . S
C1526 C1525 1.380 1_565 S
C1526 C1527 1.387 . S
C1527 H1483 0.930 . S
C1527 C1522 1.386 1_565 S
C1527 C1526 1.387 . S
C1528 C1497 1.535 1_545 S
C1528 C1529 1.379 . S
C1528 C1533 1.357 1_545 S
C1529 H1484 0.929 . S
C1529 C1528 1.379 . S
C1529 C1530 1.386 . S
C1530 H1485 0.931 . S
C1530 C1529 1.386 . S
C1530 C1531 1.334 1_545 S
C1531 C1530 1.334 1_565 S
C1531 C1532 1.401 . S
C1532 H1486 0.930 . S
C1532 C1531 1.401 . S
C1532 C1533 1.396 . S
C1533 H1487 0.929 . S
C1533 C1528 1.357 1_565 S
C1533 C1532 1.396 . S
C1534 O1488 1.300 . S
C1534 O1489 1.209 . S
C1534 C1507 1.486 . S
C1535 O1490 1.199 1_565 S
C1535 O1491 1.297 . S
C1535 C1519 1.476 . S
H1536 O1562 0.856 . S
H1537 O1565 0.854 . S
H1538 C1573 0.930 . S
H1539 C1574 0.930 . S
H1540 C1576 0.930 . S
H1541 C1577 0.930 . S
H1542 C1579 0.931 . S
H1543 C1580 0.930 . S
H1544 C1582 0.930 . S
H1545 C1583 0.929 . S
H1546 C1585 0.930 . S
H1547 C1586 0.931 . S
H1548 C1588 0.930 . S
H1549 C1589 0.929 . S
H1550 C1591 0.931 . S
H1551 C1592 0.930 . S
H1552 C1594 0.930 . S
H1553 C1595 0.932 . S
H1554 C1597 0.930 . S
H1555 C1598 0.929 . S
H1556 C1600 0.931 . S
H1557 C1601 0.930 . S
H1558 C1603 0.929 . S
H1559 C1604 0.931 . S
H1560 C1606 0.930 . S
H1561 C1607 0.929 . S
O1562 H1536 0.856 . S
O1562 C1608 1.300 . S
O1563 C1608 1.209 1_565 S
O1564 C1609 1.199 1_545 S
O1565 H1537 0.854 . S
O1565 C1609 1.297 . S
C1566 C1567 1.404 . S
C1566 C1571 1.397 1_545 S
C1566 C1572 1.492 . S
C1567 C1566 1.404 . S
C1567 C1568 1.432 . S
C1567 C1578 1.492 . S
C1568 C1567 1.432 . S
C1568 C1569 1.382 1_545 S
C1568 C1584 1.505 . S
C1569 C1568 1.382 1_565 S
C1569 C1570 1.417 . S
C1569 C1590 1.489 . S
C1570 C1569 1.417 . S
C1570 C1571 1.375 . S
C1570 C1596 1.491 . S
C1571 C1566 1.397 1_565 S
C1571 C1570 1.375 . S
C1571 C1602 1.519 . S
C1572 C1566 1.492 . S
C1572 C1573 1.363 . S
C1572 C1577 1.390 1_545 S
C1573 H1538 0.930 . S
C1573 C1572 1.363 . S
C1573 C1574 1.372 . S
C1574 H1539 0.930 . S
C1574 C1573 1.372 . S
C1574 C1575 1.383 . S
C1575 C1574 1.383 . S
C1575 C1576 1.395 1_545 S
C1576 H1540 0.930 . S
C1576 C1575 1.395 1_565 S
C1576 C1577 1.362 . S
C1577 H1541 0.930 . S
C1577 C1572 1.390 1_565 S
C1577 C1576 1.362 . S
C1578 C1567 1.492 . S
C1578 C1579 1.377 . S
C1578 C1583 1.397 1_545 S
C1579 H1542 0.931 . S
C1579 C1578 1.377 . S
C1579 C1580 1.376 . S
C1580 H1543 0.930 . S
C1580 C1579 1.376 . S
C1580 C1581 1.376 . S
C1581 C1580 1.376 . S
C1581 C1582 1.378 1_545 S
C1581 C1608 1.486 . S
C1582 H1544 0.930 . S
C1582 C1581 1.378 1_565 S
C1582 C1583 1.376 . S
C1583 H1545 0.929 . S
C1583 C1578 1.397 1_565 S
C1583 C1582 1.376 . S
C1584 C1568 1.505 . S
C1584 C1585 1.415 . S
C1584 C1589 1.346 1_545 S
C1585 H1546 0.930 . S
C1585 C1584 1.415 . S
C1585 C1586 1.375 . S
C1586 H1547 0.931 . S
C1586 C1585 1.375 . S
C1586 C1587 1.395 . S
C1587 C1586 1.395 . S
C1587 C1588 1.350 1_545 S
C1588 H1548 0.930 . S
C1588 C1587 1.350 1_565 S
C1588 C1589 1.399 . S
C1589 H1549 0.929 . S
C1589 C1584 1.346 1_565 S
C1589 C1588 1.399 . S
C1590 C1569 1.489 . S
C1590 C1591 1.394 1_565 S
C1590 C1595 1.360 . S
C1591 H1550 0.931 . S
C1591 C1590 1.394 1_545 S
C1591 C1592 1.372 . S
C1592 H1551 0.930 . S
C1592 C1591 1.372 . S
C1592 C1593 1.397 1_545 S
C1593 C1592 1.397 1_565 S
C1593 C1594 1.390 . S
C1593 C1609 1.476 . S
C1594 H1552 0.930 . S
C1594 C1593 1.390 . S
C1594 C1595 1.366 . S
C1595 H1553 0.932 . S
C1595 C1590 1.360 . S
C1595 C1594 1.366 . S
C1596 C1570 1.491 . S
C1596 C1597 1.362 1_565 S
C1596 C1601 1.408 . S
C1597 H1554 0.930 . S
C1597 C1596 1.362 1_545 S
C1597 C1598 1.381 . S
C1598 H1555 0.929 . S
C1598 C1597 1.381 . S
C1598 C1599 1.434 . S
C1599 C1598 1.434 . S
C1599 C1600 1.328 1_545 S
C1600 H1556 0.931 . S
C1600 C1599 1.328 1_565 S
C1600 C1601 1.387 . S
C1601 H1557 0.930 . S
C1601 C1596 1.408 . S
C1601 C1600 1.387 . S
C1602 C1571 1.519 . S
C1602 C1603 1.377 1_565 S
C1602 C1607 1.361 . S
C1603 H1558 0.929 . S
C1603 C1602 1.377 1_545 S
C1603 C1604 1.386 . S
C1604 H1559 0.931 . S
C1604 C1603 1.386 . S
C1604 C1605 1.363 1_545 S
C1605 C1604 1.363 1_565 S
C1605 C1606 1.385 . S
C1606 H1560 0.930 . S
C1606 C1605 1.385 . S
C1606 C1607 1.396 . S
C1607 H1561 0.929 . S
C1607 C1602 1.361 . S
C1607 C1606 1.396 . S
C1608 O1562 1.300 . S
C1608 O1563 1.209 1_545 S
C1608 C1581 1.486 . S
C1609 O1564 1.199 1_565 S
C1609 O1565 1.297 . S
C1609 C1593 1.476 . S
H1610 O1636 0.856 . S
H1611 O1639 0.854 . S
H1612 C1647 0.930 . S
H1613 C1648 0.930 . S
H1614 C1650 0.930 . S
H1615 C1651 0.930 . S
H1616 C1653 0.931 . S
H1617 C1654 0.930 . S
H1618 C1656 0.930 . S
H1619 C1657 0.929 . S
H1620 C1659 0.930 . S
H1621 C1660 0.931 . S
H1622 C1662 0.930 . S
H1623 C1663 0.929 . S
H1624 C1665 0.931 . S
H1625 C1666 0.930 . S
H1626 C1668 0.930 . S
H1627 C1669 0.932 . S
H1628 C1671 0.930 . S
H1629 C1672 0.929 . S
H1630 C1674 0.931 . S
H1631 C1675 0.930 . S
H1632 C1677 0.929 . S
H1633 C1678 0.931 . S
H1634 C1680 0.930 . S
H1635 C1681 0.929 . S
O1636 H1610 0.856 . S
O1636 C1682 1.300 . S
O1637 C1682 1.209 1_455 S
O1638 C1683 1.199 1_655 S
O1639 H1611 0.854 . S
O1639 C1683 1.297 . S
C1640 C1641 1.404 . S
C1640 C1645 1.396 1_655 S
C1640 C1646 1.492 . S
C1641 C1640 1.404 . S
C1641 C1642 1.396 . S
C1641 C1652 1.492 . S
C1642 C1641 1.396 . S
C1642 C1643 1.397 1_655 S
C1642 C1658 1.509 . S
C1643 C1642 1.397 1_455 S
C1643 C1644 1.394 . S
C1643 C1664 1.487 . S
C1644 C1643 1.394 . S
C1644 C1645 1.417 . S
C1644 C1670 1.484 . S
C1645 C1640 1.396 1_455 S
C1645 C1644 1.417 . S
C1645 C1676 1.516 . S
C1646 C1640 1.492 . S
C1646 C1647 1.363 . S
C1646 C1651 1.390 1_655 S
C1647 H1612 0.930 . S
C1647 C1646 1.363 . S
C1647 C1648 1.372 . S
C1648 H1613 0.930 . S
C1648 C1647 1.372 . S
C1648 C1649 1.383 . S
C1649 C1648 1.383 . S
C1649 C1650 1.395 1_655 S
C1650 H1614 0.930 . S
C1650 C1649 1.395 1_455 S
C1650 C1651 1.362 . S
C1651 H1615 0.930 . S
C1651 C1646 1.390 1_455 S
C1651 C1650 1.362 . S
C1652 C1641 1.492 . S
C1652 C1653 1.377 . S
C1652 C1657 1.397 1_655 S
C1653 H1616 0.931 . S
C1653 C1652 1.377 . S
C1653 C1654 1.376 . S
C1654 H1617 0.930 . S
C1654 C1653 1.376 . S
C1654 C1655 1.376 . S
C1655 C1654 1.376 . S
C1655 C1656 1.378 1_655 S
C1655 C1682 1.486 . S
C1656 H1618 0.930 . S
C1656 C1655 1.378 1_455 S
C1656 C1657 1.376 . S
C1657 H1619 0.929 . S
C1657 C1652 1.397 1_455 S
C1657 C1656 1.376 . S
C1658 C1642 1.509 . S
C1658 C1659 1.391 . S
C1658 C1663 1.386 1_655 S
C1659 H1620 0.930 . S
C1659 C1658 1.391 . S
C1659 C1660 1.375 . S
C1660 H1621 0.931 . S
C1660 C1659 1.375 . S
C1660 C1661 1.375 . S
C1661 C1660 1.375 . S
C1661 C1662 1.361 1_655 S
C1662 H1622 0.930 . S
C1662 C1661 1.361 1_455 S
C1662 C1663 1.399 . S
C1663 H1623 0.929 . S
C1663 C1658 1.386 1_455 S
C1663 C1662 1.399 . S
C1664 C1643 1.487 . S
C1664 C1665 1.394 1_455 S
C1664 C1669 1.360 . S
C1665 H1624 0.931 . S
C1665 C1664 1.394 1_655 S
C1665 C1666 1.372 . S
C1666 H1625 0.930 . S
C1666 C1665 1.372 . S
C1666 C1667 1.397 1_655 S
C1667 C1666 1.397 1_455 S
C1667 C1668 1.390 . S
C1667 C1683 1.476 . S
C1668 H1626 0.930 . S
C1668 C1667 1.390 . S
C1668 C1669 1.366 . S
C1669 H1627 0.932 . S
C1669 C1664 1.360 . S
C1669 C1668 1.366 . S
C1670 C1644 1.484 . S
C1670 C1671 1.380 1_455 S
C1670 C1675 1.386 . S
C1671 H1628 0.930 . S
C1671 C1670 1.380 1_655 S
C1671 C1672 1.381 . S
C1672 H1629 0.929 . S
C1672 C1671 1.381 . S
C1672 C1673 1.371 1_655 S
C1673 C1672 1.371 1_455 S
C1673 C1674 1.380 . S
C1674 H1630 0.931 . S
C1674 C1673 1.380 . S
C1674 C1675 1.387 . S
C1675 H1631 0.930 . S
C1675 C1670 1.386 . S
C1675 C1674 1.387 . S
C1676 C1645 1.516 . S
C1676 C1677 1.377 1_455 S
C1676 C1681 1.361 . S
C1677 H1632 0.929 . S
C1677 C1676 1.377 1_655 S
C1677 C1678 1.386 . S
C1678 H1633 0.931 . S
C1678 C1677 1.386 . S
C1678 C1679 1.363 1_655 S
C1679 C1678 1.363 1_455 S
C1679 C1680 1.385 . S
C1680 H1634 0.930 . S
C1680 C1679 1.385 . S
C1680 C1681 1.396 . S
C1681 H1635 0.929 . S
C1681 C1676 1.361 . S
C1681 C1680 1.396 . S
C1682 O1636 1.300 . S
C1682 O1637 1.209 1_655 S
C1682 C1655 1.486 . S
C1683 O1638 1.199 1_455 S
C1683 O1639 1.297 . S
C1683 C1667 1.476 . S
H1684 O1710 0.856 . S
H1685 O1713 0.854 . S
H1686 C1721 0.930 . S
H1687 C1722 0.930 . S
H1688 C1724 0.930 . S
H1689 C1725 0.930 . S
H1690 C1727 0.931 . S
H1691 C1728 0.930 . S
H1692 C1730 0.930 . S
H1693 C1731 0.929 . S
H1694 C1733 0.930 . S
H1695 C1734 0.931 . S
H1696 C1736 0.930 . S
H1697 C1737 0.929 . S
H1698 C1739 0.931 . S
H1699 C1740 0.930 . S
H1700 C1742 0.930 . S
H1701 C1743 0.932 . S
H1702 C1745 0.930 . S
H1703 C1746 0.929 . S
H1704 C1748 0.931 . S
H1705 C1749 0.930 . S
H1706 C1751 0.929 . S
H1707 C1752 0.931 . S
H1708 C1754 0.930 . S
H1709 C1755 0.929 . S
O1710 H1684 0.856 . S
O1710 C1756 1.300 . S
O1711 C1756 1.209 . S
O1712 C1757 1.199 . S
O1713 H1685 0.854 . S
O1713 C1757 1.297 . S
C1714 C1715 1.404 . S
C1714 C1719 1.397 . S
C1714 C1720 1.492 . S
C1715 C1714 1.404 . S
C1715 C1716 1.396 . S
C1715 C1726 1.492 . S
C1716 C1715 1.396 . S
C1716 C1717 1.397 . S
C1716 C1732 1.509 . S
C1717 C1716 1.397 . S
C1717 C1718 1.412 . S
C1717 C1738 1.485 . S
C1718 C1717 1.412 . S
C1718 C1719 1.388 . S
C1718 C1744 1.490 . S
C1719 C1714 1.397 . S
C1719 C1718 1.388 . S
C1719 C1750 1.519 . S
C1720 C1714 1.492 . S
C1720 C1721 1.363 . S
C1720 C1725 1.390 . S
C1721 H1686 0.930 . S
C1721 C1720 1.363 . S
C1721 C1722 1.372 . S
C1722 H1687 0.930 . S
C1722 C1721 1.372 . S
C1722 C1723 1.383 . S
C1723 C1722 1.383 . S
C1723 C1724 1.395 . S
C1724 H1688 0.930 . S
C1724 C1723 1.395 . S
C1724 C1725 1.362 . S
C1725 H1689 0.930 . S
C1725 C1720 1.390 . S
C1725 C1724 1.362 . S
C1726 C1715 1.492 . S
C1726 C1727 1.377 . S
C1726 C1731 1.397 . S
C1727 H1690 0.931 . S
C1727 C1726 1.377 . S
C1727 C1728 1.376 . S
C1728 H1691 0.930 . S
C1728 C1727 1.376 . S
C1728 C1729 1.376 . S
C1729 C1728 1.376 . S
C1729 C1730 1.378 . S
C1729 C1756 1.486 . S
C1730 H1692 0.930 . S
C1730 C1729 1.378 . S
C1730 C1731 1.376 . S
C1731 H1693 0.929 . S
C1731 C1726 1.397 . S
C1731 C1730 1.376 . S
C1732 C1716 1.509 . S
C1732 C1733 1.391 . S
C1732 C1737 1.386 . S
C1733 H1694 0.930 . S
C1733 C1732 1.391 . S
C1733 C1734 1.375 . S
C1734 H1695 0.931 . S
C1734 C1733 1.375 . S
C1734 C1735 1.375 . S
C1735 C1734 1.375 . S
C1735 C1736 1.361 . S
C1736 H1696 0.930 . S
C1736 C1735 1.361 . S
C1736 C1737 1.399 . S
C1737 H1697 0.929 . S
C1737 C1732 1.386 . S
C1737 C1736 1.399 . S
C1738 C1717 1.485 . S
C1738 C1739 1.394 . S
C1738 C1743 1.360 . S
C1739 H1698 0.931 . S
C1739 C1738 1.394 . S
C1739 C1740 1.372 . S
C1740 H1699 0.930 . S
C1740 C1739 1.372 . S
C1740 C1741 1.397 . S
C1741 C1740 1.397 . S
C1741 C1742 1.390 . S
C1741 C1757 1.476 . S
C1742 H1700 0.930 . S
C1742 C1741 1.390 . S
C1742 C1743 1.366 . S
C1743 H1701 0.932 . S
C1743 C1738 1.360 . S
C1743 C1742 1.366 . S
C1744 C1718 1.490 . S
C1744 C1745 1.380 . S
C1744 C1749 1.386 . S
C1745 H1702 0.930 . S
C1745 C1744 1.380 . S
C1745 C1746 1.381 . S
C1746 H1703 0.929 . S
C1746 C1745 1.381 . S
C1746 C1747 1.371 . S
C1747 C1746 1.371 . S
C1747 C1748 1.380 . S
C1748 H1704 0.931 . S
C1748 C1747 1.380 . S
C1748 C1749 1.387 . S
C1749 H1705 0.930 . S
C1749 C1744 1.386 . S
C1749 C1748 1.387 . S
C1750 C1719 1.519 . S
C1750 C1751 1.377 . S
C1750 C1755 1.361 . S
C1751 H1706 0.929 . S
C1751 C1750 1.377 . S
C1751 C1752 1.386 . S
C1752 H1707 0.931 . S
C1752 C1751 1.386 . S
C1752 C1753 1.363 . S
C1753 C1752 1.363 . S
C1753 C1754 1.385 . S
C1754 H1708 0.930 . S
C1754 C1753 1.385 . S
C1754 C1755 1.396 . S
C1755 H1709 0.929 . S
C1755 C1750 1.361 . S
C1755 C1754 1.396 . S
C1756 O1710 1.300 . S
C1756 O1711 1.209 . S
C1756 C1729 1.486 . S
C1757 O1712 1.199 . S
C1757 O1713 1.297 . S
C1757 C1741 1.476 . S
H1758 O1784 0.856 . S
H1759 O1787 0.854 . S
H1760 C1795 0.930 . S
H1761 C1796 0.930 . S
H1762 C1798 0.930 . S
H1763 C1799 0.930 . S
H1764 C1801 0.931 . S
H1765 C1802 0.930 . S
H1766 C1804 0.930 . S
H1767 C1805 0.929 . S
H1768 C1807 0.930 . S
H1769 C1808 0.931 . S
H1770 C1810 0.930 . S
H1771 C1811 0.929 . S
H1772 C1813 0.931 . S
H1773 C1814 0.930 . S
H1774 C1816 0.930 . S
H1775 C1817 0.932 . S
H1776 C1819 0.930 . S
H1777 C1820 0.929 . S
H1778 C1822 0.931 . S
H1779 C1823 0.930 . S
H1780 C1825 0.929 . S
H1781 C1826 0.931 . S
H1782 C1828 0.930 . S
H1783 C1829 0.929 . S
O1784 H1758 0.856 . S
O1784 C1830 1.300 . S
O1785 C1830 1.209 . S
O1786 C1831 1.199 . S
O1787 H1759 0.854 . S
O1787 C1831 1.297 . S
C1788 C1789 1.404 . S
C1788 C1793 1.397 . S
C1788 C1794 1.492 . S
C1789 C1788 1.404 . S
C1789 C1790 1.396 . S
C1789 C1800 1.492 . S
C1790 C1789 1.396 . S
C1790 C1791 1.397 . S
C1790 C1806 1.509 . S
C1791 C1790 1.397 . S
C1791 C1792 1.412 . S
C1791 C1812 1.485 . S
C1792 C1791 1.412 . S
C1792 C1793 1.388 . S
C1792 C1818 1.490 . S
C1793 C1788 1.397 . S
C1793 C1792 1.388 . S
C1793 C1824 1.519 . S
C1794 C1788 1.492 . S
C1794 C1795 1.363 . S
C1794 C1799 1.390 . S
C1795 H1760 0.930 . S
C1795 C1794 1.363 . S
C1795 C1796 1.372 . S
C1796 H1761 0.930 . S
C1796 C1795 1.372 . S
C1796 C1797 1.383 . S
C1797 C1796 1.383 . S
C1797 C1798 1.395 . S
C1798 H1762 0.930 . S
C1798 C1797 1.395 . S
C1798 C1799 1.362 . S
C1799 H1763 0.930 . S
C1799 C1794 1.390 . S
C1799 C1798 1.362 . S
C1800 C1789 1.492 . S
C1800 C1801 1.377 . S
C1800 C1805 1.397 . S
C1801 H1764 0.931 . S
C1801 C1800 1.377 . S
C1801 C1802 1.376 . S
C1802 H1765 0.930 . S
C1802 C1801 1.376 . S
C1802 C1803 1.376 . S
C1803 C1802 1.376 . S
C1803 C1804 1.378 . S
C1803 C1830 1.486 . S
C1804 H1766 0.930 . S
C1804 C1803 1.378 . S
C1804 C1805 1.376 . S
C1805 H1767 0.929 . S
C1805 C1800 1.397 . S
C1805 C1804 1.376 . S
C1806 C1790 1.509 . S
C1806 C1807 1.391 . S
C1806 C1811 1.386 . S
C1807 H1768 0.930 . S
C1807 C1806 1.391 . S
C1807 C1808 1.375 . S
C1808 H1769 0.931 . S
C1808 C1807 1.375 . S
C1808 C1809 1.375 . S
C1809 C1808 1.375 . S
C1809 C1810 1.361 . S
C1810 H1770 0.930 . S
C1810 C1809 1.361 . S
C1810 C1811 1.399 . S
C1811 H1771 0.929 . S
C1811 C1806 1.386 . S
C1811 C1810 1.399 . S
C1812 C1791 1.485 . S
C1812 C1813 1.394 . S
C1812 C1817 1.360 . S
C1813 H1772 0.931 . S
C1813 C1812 1.394 . S
C1813 C1814 1.372 . S
C1814 H1773 0.930 . S
C1814 C1813 1.372 . S
C1814 C1815 1.397 . S
C1815 C1814 1.397 . S
C1815 C1816 1.390 . S
C1815 C1831 1.476 . S
C1816 H1774 0.930 . S
C1816 C1815 1.390 . S
C1816 C1817 1.366 . S
C1817 H1775 0.932 . S
C1817 C1812 1.360 . S
C1817 C1816 1.366 . S
C1818 C1792 1.490 . S
C1818 C1819 1.380 . S
C1818 C1823 1.386 . S
C1819 H1776 0.930 . S
C1819 C1818 1.380 . S
C1819 C1820 1.381 . S
C1820 H1777 0.929 . S
C1820 C1819 1.381 . S
C1820 C1821 1.371 . S
C1821 C1820 1.371 . S
C1821 C1822 1.380 . S
C1822 H1778 0.931 . S
C1822 C1821 1.380 . S
C1822 C1823 1.387 . S
C1823 H1779 0.930 . S
C1823 C1818 1.386 . S
C1823 C1822 1.387 . S
C1824 C1793 1.519 . S
C1824 C1825 1.377 . S
C1824 C1829 1.361 . S
C1825 H1780 0.929 . S
C1825 C1824 1.377 . S
C1825 C1826 1.386 . S
C1826 H1781 0.931 . S
C1826 C1825 1.386 . S
C1826 C1827 1.363 . S
C1827 C1826 1.363 . S
C1827 C1828 1.385 . S
C1828 H1782 0.930 . S
C1828 C1827 1.385 . S
C1828 C1829 1.396 . S
C1829 H1783 0.929 . S
C1829 C1824 1.361 . S
C1829 C1828 1.396 . S
C1830 O1784 1.300 . S
C1830 O1785 1.209 . S
C1830 C1803 1.486 . S
C1831 O1786 1.199 . S
C1831 O1787 1.297 . S
C1831 C1815 1.476 . S
H1832 O1858 0.856 . S
H1833 O1861 0.854 . S
H1834 C1869 0.930 . S
H1835 C1870 0.930 . S
H1836 C1872 0.930 . S
H1837 C1873 0.930 . S
H1838 C1875 0.931 . S
H1839 C1876 0.930 . S
H1840 C1878 0.930 . S
H1841 C1879 0.929 . S
H1842 C1881 0.930 . S
H1843 C1882 0.931 . S
H1844 C1884 0.930 . S
H1845 C1885 0.929 . S
H1846 C1887 0.931 . S
H1847 C1888 0.930 . S
H1848 C1890 0.930 . S
H1849 C1891 0.932 . S
H1850 C1893 0.930 . S
H1851 C1894 0.929 . S
H1852 C1896 0.931 . S
H1853 C1897 0.930 . S
H1854 C1899 0.929 . S
H1855 C1900 0.931 . S
H1856 C1902 0.930 . S
H1857 C1903 0.929 . S
O1858 H1832 0.856 . S
O1858 C1904 1.300 . S
O1859 C1904 1.209 . S
O1860 C1905 1.199 . S
O1861 H1833 0.854 . S
O1861 C1905 1.297 . S
C1862 C1863 1.404 . S
C1862 C1867 1.397 . S
C1862 C1868 1.492 . S
C1863 C1862 1.404 . S
C1863 C1864 1.396 . S
C1863 C1874 1.492 . S
C1864 C1863 1.396 . S
C1864 C1865 1.397 . S
C1864 C1880 1.509 . S
C1865 C1864 1.397 . S
C1865 C1866 1.412 . S
C1865 C1886 1.485 . S
C1866 C1865 1.412 . S
C1866 C1867 1.388 . S
C1866 C1892 1.490 . S
C1867 C1862 1.397 . S
C1867 C1866 1.388 . S
C1867 C1898 1.519 . S
C1868 C1862 1.492 . S
C1868 C1869 1.363 . S
C1868 C1873 1.390 . S
C1869 H1834 0.930 . S
C1869 C1868 1.363 . S
C1869 C1870 1.372 . S
C1870 H1835 0.930 . S
C1870 C1869 1.372 . S
C1870 C1871 1.383 . S
C1871 C1870 1.383 . S
C1871 C1872 1.395 . S
C1872 H1836 0.930 . S
C1872 C1871 1.395 . S
C1872 C1873 1.362 . S
C1873 H1837 0.930 . S
C1873 C1868 1.390 . S
C1873 C1872 1.362 . S
C1874 C1863 1.492 . S
C1874 C1875 1.377 . S
C1874 C1879 1.397 . S
C1875 H1838 0.931 . S
C1875 C1874 1.377 . S
C1875 C1876 1.376 . S
C1876 H1839 0.930 . S
C1876 C1875 1.376 . S
C1876 C1877 1.376 . S
C1877 C1876 1.376 . S
C1877 C1878 1.378 . S
C1877 C1904 1.486 . S
C1878 H1840 0.930 . S
C1878 C1877 1.378 . S
C1878 C1879 1.376 . S
C1879 H1841 0.929 . S
C1879 C1874 1.397 . S
C1879 C1878 1.376 . S
C1880 C1864 1.509 . S
C1880 C1881 1.391 . S
C1880 C1885 1.386 . S
C1881 H1842 0.930 . S
C1881 C1880 1.391 . S
C1881 C1882 1.375 . S
C1882 H1843 0.931 . S
C1882 C1881 1.375 . S
C1882 C1883 1.375 . S
C1883 C1882 1.375 . S
C1883 C1884 1.361 . S
C1884 H1844 0.930 . S
C1884 C1883 1.361 . S
C1884 C1885 1.399 . S
C1885 H1845 0.929 . S
C1885 C1880 1.386 . S
C1885 C1884 1.399 . S
C1886 C1865 1.485 . S
C1886 C1887 1.394 . S
C1886 C1891 1.360 . S
C1887 H1846 0.931 . S
C1887 C1886 1.394 . S
C1887 C1888 1.372 . S
C1888 H1847 0.930 . S
C1888 C1887 1.372 . S
C1888 C1889 1.397 . S
C1889 C1888 1.397 . S
C1889 C1890 1.390 . S
C1889 C1905 1.476 . S
C1890 H1848 0.930 . S
C1890 C1889 1.390 . S
C1890 C1891 1.366 . S
C1891 H1849 0.932 . S
C1891 C1886 1.360 . S
C1891 C1890 1.366 . S
C1892 C1866 1.490 . S
C1892 C1893 1.380 . S
C1892 C1897 1.386 . S
C1893 H1850 0.930 . S
C1893 C1892 1.380 . S
C1893 C1894 1.381 . S
C1894 H1851 0.929 . S
C1894 C1893 1.381 . S
C1894 C1895 1.371 . S
C1895 C1894 1.371 . S
C1895 C1896 1.380 . S
C1896 H1852 0.931 . S
C1896 C1895 1.380 . S
C1896 C1897 1.387 . S
C1897 H1853 0.930 . S
C1897 C1892 1.386 . S
C1897 C1896 1.387 . S
C1898 C1867 1.519 . S
C1898 C1899 1.377 . S
C1898 C1903 1.361 . S
C1899 H1854 0.929 . S
C1899 C1898 1.377 . S
C1899 C1900 1.386 . S
C1900 H1855 0.931 . S
C1900 C1899 1.386 . S
C1900 C1901 1.363 . S
C1901 C1900 1.363 . S
C1901 C1902 1.385 . S
C1902 H1856 0.930 . S
C1902 C1901 1.385 . S
C1902 C1903 1.396 . S
C1903 H1857 0.929 . S
C1903 C1898 1.361 . S
C1903 C1902 1.396 . S
C1904 O1858 1.300 . S
C1904 O1859 1.209 . S
C1904 C1877 1.486 . S
C1905 O1860 1.199 . S
C1905 O1861 1.297 . S
C1905 C1889 1.476 . S
H1906 O1932 0.856 . S
H1907 O1935 0.854 . S
H1908 C1943 0.930 . S
H1909 C1944 0.930 . S
H1910 C1946 0.930 . S
H1911 C1947 0.930 . S
H1912 C1949 0.931 . S
H1913 C1950 0.930 . S
H1914 C1952 0.930 . S
H1915 C1953 0.929 . S
H1916 C1955 0.930 . S
H1917 C1956 0.931 . S
H1918 C1958 0.930 . S
H1919 C1959 0.929 . S
H1920 C1961 0.931 . S
H1921 C1962 0.930 . S
H1922 C1964 0.930 . S
H1923 C1965 0.932 . S
H1924 C1967 0.930 . S
H1925 C1968 0.929 . S
H1926 C1970 0.931 . S
H1927 C1971 0.930 . S
H1928 C1973 0.929 . S
H1929 C1974 0.931 . S
H1930 C1976 0.930 . S
H1931 C1977 0.929 . S
O1932 H1906 0.856 . S
O1932 C1978 1.300 . S
O1933 C1978 1.209 . S
O1934 C1979 1.199 . S
O1935 H1907 0.854 . S
O1935 C1979 1.297 . S
C1936 C1937 1.404 . S
C1936 C1941 1.397 . S
C1936 C1942 1.492 . S
C1937 C1936 1.404 . S
C1937 C1938 1.396 . S
C1937 C1948 1.492 . S
C1938 C1937 1.396 . S
C1938 C1939 1.397 . S
C1938 C1954 1.509 . S
C1939 C1938 1.397 . S
C1939 C1940 1.412 . S
C1939 C1960 1.485 . S
C1940 C1939 1.412 . S
C1940 C1941 1.388 . S
C1940 C1966 1.490 . S
C1941 C1936 1.397 . S
C1941 C1940 1.388 . S
C1941 C1972 1.519 . S
C1942 C1936 1.492 . S
C1942 C1943 1.363 . S
C1942 C1947 1.390 . S
C1943 H1908 0.930 . S
C1943 C1942 1.363 . S
C1943 C1944 1.372 . S
C1944 H1909 0.930 . S
C1944 C1943 1.372 . S
C1944 C1945 1.383 . S
C1945 C1944 1.383 . S
C1945 C1946 1.395 . S
C1946 H1910 0.930 . S
C1946 C1945 1.395 . S
C1946 C1947 1.362 . S
C1947 H1911 0.930 . S
C1947 C1942 1.390 . S
C1947 C1946 1.362 . S
C1948 C1937 1.492 . S
C1948 C1949 1.377 . S
C1948 C1953 1.397 . S
C1949 H1912 0.931 . S
C1949 C1948 1.377 . S
C1949 C1950 1.376 . S
C1950 H1913 0.930 . S
C1950 C1949 1.376 . S
C1950 C1951 1.376 . S
C1951 C1950 1.376 . S
C1951 C1952 1.378 . S
C1951 C1978 1.486 . S
C1952 H1914 0.930 . S
C1952 C1951 1.378 . S
C1952 C1953 1.376 . S
C1953 H1915 0.929 . S
C1953 C1948 1.397 . S
C1953 C1952 1.376 . S
C1954 C1938 1.509 . S
C1954 C1955 1.391 . S
C1954 C1959 1.386 . S
C1955 H1916 0.930 . S
C1955 C1954 1.391 . S
C1955 C1956 1.375 . S
C1956 H1917 0.931 . S
C1956 C1955 1.375 . S
C1956 C1957 1.375 . S
C1957 C1956 1.375 . S
C1957 C1958 1.361 . S
C1958 H1918 0.930 . S
C1958 C1957 1.361 . S
C1958 C1959 1.399 . S
C1959 H1919 0.929 . S
C1959 C1954 1.386 . S
C1959 C1958 1.399 . S
C1960 C1939 1.485 . S
C1960 C1961 1.394 . S
C1960 C1965 1.360 . S
C1961 H1920 0.931 . S
C1961 C1960 1.394 . S
C1961 C1962 1.372 . S
C1962 H1921 0.930 . S
C1962 C1961 1.372 . S
C1962 C1963 1.397 . S
C1963 C1962 1.397 . S
C1963 C1964 1.390 . S
C1963 C1979 1.476 . S
C1964 H1922 0.930 . S
C1964 C1963 1.390 . S
C1964 C1965 1.366 . S
C1965 H1923 0.932 . S
C1965 C1960 1.360 . S
C1965 C1964 1.366 . S
C1966 C1940 1.490 . S
C1966 C1967 1.380 . S
C1966 C1971 1.386 . S
C1967 H1924 0.930 . S
C1967 C1966 1.380 . S
C1967 C1968 1.381 . S
C1968 H1925 0.929 . S
C1968 C1967 1.381 . S
C1968 C1969 1.371 . S
C1969 C1968 1.371 . S
C1969 C1970 1.380 . S
C1970 H1926 0.931 . S
C1970 C1969 1.380 . S
C1970 C1971 1.387 . S
C1971 H1927 0.930 . S
C1971 C1966 1.386 . S
C1971 C1970 1.387 . S
C1972 C1941 1.519 . S
C1972 C1973 1.377 . S
C1972 C1977 1.361 . S
C1973 H1928 0.929 . S
C1973 C1972 1.377 . S
C1973 C1974 1.386 . S
C1974 H1929 0.931 . S
C1974 C1973 1.386 . S
C1974 C1975 1.363 . S
C1975 C1974 1.363 . S
C1975 C1976 1.385 . S
C1976 H1930 0.930 . S
C1976 C1975 1.385 . S
C1976 C1977 1.396 . S
C1977 H1931 0.929 . S
C1977 C1972 1.361 . S
C1977 C1976 1.396 . S
C1978 O1932 1.300 . S
C1978 O1933 1.209 . S
C1978 C1951 1.486 . S
C1979 O1934 1.199 . S
C1979 O1935 1.297 . S
C1979 C1963 1.476 . S
H1980 C1992 0.930 . S
H1981 C1994 0.930 . S
H1982 C1995 0.930 . S
H1983 C1999 0.959 . S
H1984 C1999 0.959 . S
H1985 C1999 0.961 . S
H1986 C2000 0.960 . S
H1987 C2000 0.961 . S
H1988 C2000 0.959 . S
H1989 C2003 0.929 . S
H1990 C2004 0.931 . S
H1991 C2006 0.930 . S
C1992 H1980 0.930 . S
C1992 C1993 1.470 . S
C1992 C1997 1.399 . S
C1993 C1992 1.470 . S
C1993 C1994 1.331 1_655 S
C1994 H1981 0.930 . S
C1994 C1993 1.331 1_455 S
C1994 C1995 1.388 . S
C1995 H1982 0.930 . S
C1995 C1994 1.388 . S
C1995 C1996 1.410 . S
C1996 C1995 1.410 . S
C1996 C1997 1.380 1_455 S
C1996 C2002 1.455 1_455 S
C1997 C1992 1.399 . S
C1997 C1996 1.380 1_655 S
C1997 C1998 1.516 . S
C1998 C1997 1.516 . S
C1998 C1999 1.502 . S
C1998 C2000 1.561 . S
C1998 C2001 1.526 . S
C1999 H1983 0.959 . S
C1999 H1984 0.959 . S
C1999 H1985 0.961 . S
C1999 C1998 1.502 . S
C2000 H1986 0.960 . S
C2000 H1987 0.961 . S
C2000 H1988 0.959 . S
C2000 C1998 1.561 . S
C2001 C1998 1.526 . S
C2001 C2002 1.396 . S
C2001 C2006 1.390 . S
C2002 C1996 1.455 1_655 S
C2002 C2001 1.396 . S
C2002 C2003 1.399 1_655 S
C2003 H1989 0.929 . S
C2003 C2002 1.399 1_455 S
C2003 C2004 1.385 . S
C2004 H1990 0.931 . S
C2004 C2003 1.385 . S
C2004 C2005 1.389 1_455 S
C2005 C2004 1.389 1_655 S
C2005 C2006 1.387 . S
C2006 H1991 0.930 . S
C2006 C2001 1.390 . S
C2006 C2005 1.387 . S
H2007 C2019 0.930 . S
H2008 C2021 0.930 . S
H2009 C2022 0.930 . S
H2010 C2026 0.959 . S
H2011 C2026 0.959 . S
H2012 C2026 0.961 . S
H2013 C2027 0.960 . S
H2014 C2027 0.961 . S
H2015 C2027 0.959 . S
H2016 C2030 0.929 . S
H2017 C2031 0.931 . S
H2018 C2033 0.930 . S
C2019 H2007 0.930 . S
C2019 C2020 1.399 . S
C2019 C2024 1.399 . S
C2020 C2019 1.399 . S
C2020 C2021 1.376 . S
C2021 H2008 0.930 . S
C2021 C2020 1.376 . S
C2021 C2022 1.388 . S
C2022 H2009 0.930 . S
C2022 C2021 1.388 . S
C2022 C2023 1.390 . S
C2023 C2022 1.390 . S
C2023 C2024 1.394 . S
C2023 C2029 1.465 . S
C2024 C2019 1.399 . S
C2024 C2023 1.394 . S
C2024 C2025 1.516 . S
C2025 C2024 1.516 . S
C2025 C2026 1.502 . S
C2025 C2027 1.561 . S
C2025 C2028 1.526 . S
C2026 H2010 0.959 . S
C2026 H2011 0.959 . S
C2026 H2012 0.961 . S
C2026 C2025 1.502 . S
C2027 H2013 0.960 . S
C2027 H2014 0.961 . S
C2027 H2015 0.959 . S
C2027 C2025 1.561 . S
C2028 C2025 1.526 . S
C2028 C2029 1.396 . S
C2028 C2033 1.390 . S
C2029 C2023 1.465 . S
C2029 C2028 1.396 . S
C2029 C2030 1.399 . S
C2030 H2016 0.929 . S
C2030 C2029 1.399 . S
C2030 C2031 1.385 . S
C2031 H2017 0.931 . S
C2031 C2030 1.385 . S
C2031 C2032 1.389 . S
C2032 C2031 1.389 . S
C2032 C2033 1.387 . S
C2033 H2018 0.930 . S
C2033 C2028 1.390 . S
C2033 C2032 1.387 . S
H2034 C2046 0.930 . S
H2035 C2048 0.930 . S
H2036 C2049 0.930 . S
H2037 C2053 0.959 . S
H2038 C2053 0.959 . S
H2039 C2053 0.961 . S
H2040 C2054 0.960 . S
H2041 C2054 0.961 . S
H2042 C2054 0.959 . S
H2043 C2057 0.929 . S
H2044 C2058 0.931 . S
H2045 C2060 0.930 1_565 S
C2046 H2034 0.930 . S
C2046 C2047 1.399 1_565 S
C2046 C2051 1.399 1_565 S
C2047 C2046 1.399 1_545 S
C2047 C2048 1.376 . S
C2048 H2035 0.930 . S
C2048 C2047 1.376 . S
C2048 C2049 1.388 . S
C2049 H2036 0.930 . S
C2049 C2048 1.388 . S
C2049 C2050 1.390 . S
C2050 C2049 1.390 . S
C2050 C2051 1.394 . S
C2050 C2056 1.465 . S
C2051 C2046 1.399 1_545 S
C2051 C2050 1.394 . S
C2051 C2052 1.516 1_545 S
C2052 C2051 1.516 1_565 S
C2052 C2053 1.502 . S
C2052 C2054 1.561 . S
C2052 C2055 1.526 1_565 S
C2053 H2037 0.959 . S
C2053 H2038 0.959 . S
C2053 H2039 0.961 . S
C2053 C2052 1.502 . S
C2054 H2040 0.960 . S
C2054 H2041 0.961 . S
C2054 H2042 0.959 . S
C2054 C2052 1.561 . S
C2055 C2052 1.526 1_545 S
C2055 C2056 1.396 . S
C2055 C2060 1.390 . S
C2056 C2050 1.465 . S
C2056 C2055 1.396 . S
C2056 C2057 1.399 . S
C2057 H2043 0.929 . S
C2057 C2056 1.399 . S
C2057 C2058 1.385 . S
C2058 H2044 0.931 . S
C2058 C2057 1.385 . S
C2058 C2059 1.389 . S
C2059 C2058 1.389 . S
C2059 C2060 1.387 . S
C2060 H2045 0.930 1_545 S
C2060 C2055 1.390 . S
C2060 C2059 1.387 . S
H2061 C2073 0.930 . S
H2062 C2075 0.930 . S
H2063 C2076 0.930 . S
H2064 C2080 0.959 . S
H2065 C2080 0.959 . S
H2066 C2080 0.961 . S
H2067 C2081 0.960 . S
H2068 C2081 0.961 . S
H2069 C2081 0.959 . S
H2070 C2084 0.929 . S
H2071 C2085 0.931 . S
H2072 C2087 0.930 . S
C2073 H2061 0.930 . S
C2073 C2074 1.399 1_545 S
C2073 C2078 1.399 1_545 S
C2074 C2073 1.399 1_565 S
C2074 C2075 1.376 . S
C2075 H2062 0.930 . S
C2075 C2074 1.376 . S
C2075 C2076 1.388 . S
C2076 H2063 0.930 . S
C2076 C2075 1.388 . S
C2076 C2077 1.390 . S
C2077 C2076 1.390 . S
C2077 C2078 1.394 . S
C2077 C2083 1.465 . S
C2078 C2073 1.399 1_565 S
C2078 C2077 1.394 . S
C2078 C2079 1.516 1_565 S
C2079 C2078 1.516 1_545 S
C2079 C2080 1.502 . S
C2079 C2081 1.561 . S
C2079 C2082 1.526 1_545 S
C2080 H2064 0.959 . S
C2080 H2065 0.959 . S
C2080 H2066 0.961 . S
C2080 C2079 1.502 . S
C2081 H2067 0.960 . S
C2081 H2068 0.961 . S
C2081 H2069 0.959 . S
C2081 C2079 1.561 . S
C2082 C2079 1.526 1_565 S
C2082 C2083 1.396 . S
C2082 C2087 1.390 1_565 S
C2083 C2077 1.465 . S
C2083 C2082 1.396 . S
C2083 C2084 1.399 . S
C2084 H2070 0.929 . S
C2084 C2083 1.399 . S
C2084 C2085 1.385 . S
C2085 H2071 0.931 . S
C2085 C2084 1.385 . S
C2085 C2086 1.389 . S
C2086 C2085 1.389 . S
C2086 C2087 1.387 1_565 S
C2087 H2072 0.930 . S
C2087 C2082 1.390 1_545 S
C2087 C2086 1.387 1_545 S
H2088 C2100 0.930 . S
H2089 C2102 0.930 1_554 S
H2090 C2103 0.930 . S
H2091 C2107 0.959 . S
H2092 C2107 0.959 . S
H2093 C2107 0.961 . S
H2094 C2108 0.960 . S
H2095 C2108 0.961 . S
H2096 C2108 0.959 . S
H2097 C2111 0.929 . S
H2098 C2112 0.931 . S
H2099 C2114 0.930 . S
C2100 H2088 0.930 . S
C2100 C2101 1.399 . S
C2100 C2105 1.399 . S
C2101 C2100 1.399 . S
C2101 C2102 1.376 . S
C2102 H2089 0.930 1_556 S
C2102 C2101 1.376 . S
C2102 C2103 1.388 . S
C2103 H2090 0.930 . S
C2103 C2102 1.388 . S
C2103 C2104 1.390 . S
C2104 C2103 1.390 . S
C2104 C2105 1.394 . S
C2104 C2110 1.465 . S
C2105 C2100 1.399 . S
C2105 C2104 1.394 . S
C2105 C2106 1.516 . S
C2106 C2105 1.516 . S
C2106 C2107 1.502 . S
C2106 C2108 1.561 1_455 S
C2106 C2109 1.526 . S
C2107 H2091 0.959 . S
C2107 H2092 0.959 . S
C2107 H2093 0.961 . S
C2107 C2106 1.502 . S
C2108 H2094 0.960 . S
C2108 H2095 0.961 . S
C2108 H2096 0.959 . S
C2108 C2106 1.561 1_655 S
C2109 C2106 1.526 . S
C2109 C2110 1.396 . S
C2109 C2114 1.390 . S
C2110 C2104 1.465 . S
C2110 C2109 1.396 . S
C2110 C2111 1.399 . S
C2111 H2097 0.929 . S
C2111 C2110 1.399 . S
C2111 C2112 1.385 . S
C2112 H2098 0.931 . S
C2112 C2111 1.385 . S
C2112 C2113 1.389 . S
C2113 C2112 1.389 . S
C2113 C2114 1.387 . S
C2114 H2099 0.930 . S
C2114 C2109 1.390 . S
C2114 C2113 1.387 . S
H2115 C2127 0.930 . S
H2116 C2129 0.930 . S
H2117 C2130 0.930 . S
H2118 C2134 0.959 . S
H2119 C2134 0.959 . S
H2120 C2134 0.961 1_554 S
H2121 C2135 0.960 . S
H2122 C2135 0.961 . S
H2123 C2135 0.959 . S
H2124 C2138 0.929 . S
H2125 C2139 0.931 . S
H2126 C2141 0.930 . S
C2127 H2115 0.930 . S
C2127 C2128 1.399 . S
C2127 C2132 1.399 1_554 S
C2128 C2127 1.399 . S
C2128 C2129 1.376 1_554 S
C2129 H2116 0.930 . S
C2129 C2128 1.376 1_556 S
C2129 C2130 1.388 . S
C2130 H2117 0.930 . S
C2130 C2129 1.388 . S
C2130 C2131 1.390 . S
C2131 C2130 1.390 . S
C2131 C2132 1.394 . S
C2131 C2137 1.465 . S
C2132 C2127 1.399 1_556 S
C2132 C2131 1.394 . S
C2132 C2133 1.516 . S
C2133 C2132 1.516 . S
C2133 C2134 1.502 . S
C2133 C2135 1.561 . S
C2133 C2136 1.526 . S
C2134 H2118 0.959 . S
C2134 H2119 0.959 . S
C2134 H2120 0.961 1_556 S
C2134 C2133 1.502 . S
C2135 H2121 0.960 . S
C2135 H2122 0.961 . S
C2135 H2123 0.959 . S
C2135 C2133 1.561 . S
C2136 C2133 1.526 . S
C2136 C2137 1.396 . S
C2136 C2141 1.390 . S
C2137 C2131 1.465 . S
C2137 C2136 1.396 . S
C2137 C2138 1.399 . S
C2138 H2124 0.929 . S
C2138 C2137 1.399 . S
C2138 C2139 1.385 . S
C2139 H2125 0.931 . S
C2139 C2138 1.385 . S
C2139 C2140 1.389 . S
C2140 C2139 1.389 . S
C2140 C2141 1.387 . S
C2141 H2126 0.930 . S
C2141 C2136 1.390 . S
C2141 C2140 1.387 . S
H2142 C2154 0.959 . S
H2143 C2156 0.930 . S
H2144 C2157 0.930 . S
H2145 C2161 0.959 . S
H2146 C2161 0.959 . S
H2147 C2161 0.961 . S
H2148 C2162 0.960 . S
H2149 C2162 0.961 . S
H2150 C2162 0.959 . S
H2151 C2165 0.929 . S
H2152 C2166 0.931 . S
H2153 C2168 0.911 1_655 S
C2154 H2142 0.959 . S
C2154 C2155 1.399 1_556 S
C2154 C2159 1.399 . S
C2155 C2154 1.399 1_554 S
C2155 C2156 1.376 . S
C2156 H2143 0.930 . S
C2156 C2155 1.376 . S
C2156 C2157 1.388 . S
C2157 H2144 0.930 . S
C2157 C2156 1.388 . S
C2157 C2158 1.390 1_554 S
C2158 C2157 1.390 1_556 S
C2158 C2159 1.394 . S
C2158 C2164 1.465 . S
C2159 C2154 1.399 . S
C2159 C2158 1.394 . S
C2159 C2160 1.516 . S
C2160 C2159 1.516 . S
C2160 C2161 1.502 1_455 S
C2160 C2162 1.561 . S
C2160 C2163 1.526 . S
C2161 H2145 0.959 . S
C2161 H2146 0.959 . S
C2161 H2147 0.961 . S
C2161 C2160 1.502 1_655 S
C2162 H2148 0.960 . S
C2162 H2149 0.961 . S
C2162 H2150 0.959 . S
C2162 C2160 1.561 . S
C2163 C2160 1.526 . S
C2163 C2164 1.396 . S
C2163 C2168 1.374 . S
C2164 C2158 1.465 . S
C2164 C2163 1.396 . S
C2164 C2165 1.399 . S
C2165 H2151 0.929 . S
C2165 C2164 1.399 . S
C2165 C2166 1.385 . S
C2166 H2152 0.931 . S
C2166 C2165 1.385 . S
C2166 C2167 1.389 . S
C2167 C2166 1.389 . S
C2167 C2168 1.426 . S
C2168 H2153 0.911 1_455 S
C2168 C2163 1.374 . S
C2168 C2167 1.426 . S
H2169 C2181 0.930 . S
H2170 C2183 0.930 . S
H2171 C2184 0.930 . S
H2172 C2188 0.959 . S
H2173 C2188 0.959 . S
H2174 C2188 0.961 . S
H2175 C2189 0.960 . S
H2176 C2189 0.961 . S
H2177 C2189 0.959 . S
H2178 C2192 0.929 . S
H2179 C2193 0.931 . S
H2180 C2195 0.930 . S
C2181 H2169 0.930 . S
C2181 C2182 1.399 . S
C2181 C2186 1.399 . S
C2182 C2181 1.399 . S
C2182 C2183 1.376 . S
C2183 H2170 0.930 . S
C2183 C2182 1.376 . S
C2183 C2184 1.388 . S
C2184 H2171 0.930 . S
C2184 C2183 1.388 . S
C2184 C2185 1.390 . S
C2185 C2184 1.390 . S
C2185 C2186 1.394 . S
C2185 C2191 1.465 . S
C2186 C2181 1.399 . S
C2186 C2185 1.394 . S
C2186 C2187 1.516 . S
C2187 C2186 1.516 . S
C2187 C2188 1.502 . S
C2187 C2189 1.561 . S
C2187 C2190 1.526 . S
C2188 H2172 0.959 . S
C2188 H2173 0.959 . S
C2188 H2174 0.961 . S
C2188 C2187 1.502 . S
C2189 H2175 0.960 . S
C2189 H2176 0.961 . S
C2189 H2177 0.959 . S
C2189 C2187 1.561 . S
C2190 C2187 1.526 . S
C2190 C2191 1.396 . S
C2190 C2195 1.390 . S
C2191 C2185 1.465 . S
C2191 C2190 1.396 . S
C2191 C2192 1.399 . S
C2192 H2178 0.929 . S
C2192 C2191 1.399 . S
C2192 C2193 1.385 . S
C2193 H2179 0.931 . S
C2193 C2192 1.385 . S
C2193 C2194 1.389 . S
C2194 C2193 1.389 . S
C2194 C2195 1.387 . S
C2195 H2180 0.930 . S
C2195 C2190 1.390 . S
C2195 C2194 1.387 . S
H2196 C2208 0.930 . S
H2197 C2210 0.930 . S
H2198 C2211 0.930 . S
H2199 C2215 0.959 . S
H2200 C2215 0.959 . S
H2201 C2215 0.961 . S
H2202 C2216 0.960 . S
H2203 C2216 0.961 . S
H2204 C2216 0.959 . S
H2205 C2219 0.929 . S
H2206 C2220 0.931 . S
H2207 C2222 0.930 . S
C2208 H2196 0.930 . S
C2208 C2209 1.399 1_546 S
C2208 C2213 1.399 . S
C2209 C2208 1.399 1_564 S
C2209 C2210 1.376 . S
C2210 H2197 0.930 . S
C2210 C2209 1.376 . S
C2210 C2211 1.388 1_554 S
C2211 H2198 0.930 . S
C2211 C2210 1.388 1_556 S
C2211 C2212 1.390 . S
C2212 C2211 1.390 . S
C2212 C2213 1.394 1_565 S
C2212 C2218 1.465 . S
C2213 C2208 1.399 . S
C2213 C2212 1.394 1_545 S
C2213 C2214 1.516 . S
C2214 C2213 1.516 . S
C2214 C2215 1.502 . S
C2214 C2216 1.561 . S
C2214 C2217 1.526 . S
C2215 H2199 0.959 . S
C2215 H2200 0.959 . S
C2215 H2201 0.961 . S
C2215 C2214 1.502 . S
C2216 H2202 0.960 . S
C2216 H2203 0.961 . S
C2216 H2204 0.959 . S
C2216 C2214 1.561 . S
C2217 C2214 1.526 . S
C2217 C2218 1.396 1_545 S
C2217 C2222 1.390 . S
C2218 C2212 1.465 . S
C2218 C2217 1.396 1_565 S
C2218 C2219 1.399 . S
C2219 H2205 0.929 . S
C2219 C2218 1.399 . S
C2219 C2220 1.385 . S
C2220 H2206 0.931 . S
C2220 C2219 1.385 . S
C2220 C2221 1.398 . S
C2221 C2220 1.398 . S
C2221 C2222 1.385 1_565 S
C2222 H2207 0.930 . S
C2222 C2217 1.390 . S
C2222 C2221 1.385 1_545 S
H2223 C2235 0.930 1_565 S
H2224 C2237 0.930 . S
H2225 C2238 0.930 . S
H2226 C2242 0.959 . S
H2227 C2242 0.959 . S
H2228 C2242 0.961 . S
H2229 C2243 0.960 . S
H2230 C2243 0.961 . S
H2231 C2243 0.959 1_545 S
H2232 C2246 0.929 . S
H2233 C2247 0.931 . S
H2234 C2249 0.930 . S
C2235 H2223 0.930 1_545 S
C2235 C2236 1.399 . S
C2235 C2240 1.399 . S
C2236 C2235 1.399 . S
C2236 C2237 1.376 . S
C2237 H2224 0.930 . S
C2237 C2236 1.376 . S
C2237 C2238 1.388 . S
C2238 H2225 0.930 . S
C2238 C2237 1.388 . S
C2238 C2239 1.390 . S
C2239 C2238 1.390 . S
C2239 C2240 1.394 . S
C2239 C2245 1.465 . S
C2240 C2235 1.399 . S
C2240 C2239 1.394 . S
C2240 C2241 1.516 1_545 S
C2241 C2240 1.516 1_565 S
C2241 C2242 1.502 . S
C2241 C2243 1.561 . S
C2241 C2244 1.578 . S
C2242 H2226 0.959 . S
C2242 H2227 0.959 . S
C2242 H2228 0.961 . S
C2242 C2241 1.502 . S
C2243 H2229 0.960 . S
C2243 H2230 0.961 . S
C2243 H2231 0.959 1_565 S
C2243 C2241 1.561 . S
C2244 C2241 1.578 . S
C2244 C2245 1.332 1_565 S
C2244 C2249 1.397 . S
C2245 C2239 1.465 . S
C2245 C2244 1.332 1_545 S
C2245 C2246 1.399 . S
C2246 H2232 0.929 . S
C2246 C2245 1.399 . S
C2246 C2247 1.385 . S
C2247 H2233 0.931 . S
C2247 C2246 1.385 . S
C2247 C2248 1.389 . S
C2248 C2247 1.389 . S
C2248 C2249 1.387 1_545 S
C2249 H2234 0.930 . S
C2249 C2244 1.397 . S
C2249 C2248 1.387 1_565 S
H2250 C2262 0.930 . S
H2251 C2264 0.930 . S
H2252 C2265 0.930 . S
H2253 C2269 0.959 . S
H2254 C2269 0.959 . S
H2255 C2269 0.961 . S
H2256 C2270 0.960 . S
H2257 C2270 0.961 . S
H2258 C2270 0.959 . S
H2259 C2273 0.929 . S
H2260 C2274 0.931 . S
H2261 C2276 0.930 . S
C2262 H2250 0.930 . S
C2262 C2263 1.399 . S
C2262 C2267 1.399 . S
C2263 C2262 1.399 . S
C2263 C2264 1.376 1_655 S
C2264 H2251 0.930 . S
C2264 C2263 1.376 1_455 S
C2264 C2265 1.388 . S
C2265 H2252 0.930 . S
C2265 C2264 1.388 . S
C2265 C2266 1.390 . S
C2266 C2265 1.390 . S
C2266 C2267 1.394 1_455 S
C2266 C2272 1.465 . S
C2267 C2262 1.399 . S
C2267 C2266 1.394 1_655 S
C2267 C2268 1.516 . S
C2268 C2267 1.516 . S
C2268 C2269 1.502 . S
C2268 C2270 1.561 . S
C2268 C2271 1.526 . S
C2269 H2253 0.959 . S
C2269 H2254 0.959 . S
C2269 H2255 0.961 . S
C2269 C2268 1.502 . S
C2270 H2256 0.960 . S
C2270 H2257 0.961 . S
C2270 H2258 0.959 . S
C2270 C2268 1.561 . S
C2271 C2268 1.526 . S
C2271 C2272 1.396 1_655 S
C2271 C2276 1.390 . S
C2272 C2266 1.465 . S
C2272 C2271 1.396 1_455 S
C2272 C2273 1.399 . S
C2273 H2259 0.929 . S
C2273 C2272 1.399 . S
C2273 C2274 1.385 . S
C2274 H2260 0.931 . S
C2274 C2273 1.385 . S
C2274 C2275 1.389 . S
C2275 C2274 1.389 . S
C2275 C2276 1.387 1_455 S
C2276 H2261 0.930 . S
C2276 C2271 1.390 . S
C2276 C2275 1.387 1_655 S
H2277 C2289 0.930 . S
H2278 C2291 0.930 . S
H2279 C2292 0.930 . S
H2280 C2296 0.959 . S
H2281 C2296 0.959 . S
H2282 C2296 0.961 . S
H2283 C2297 0.960 . S
H2284 C2297 0.961 . S
H2285 C2297 0.959 . S
H2286 C2300 0.929 . S
H2287 C2301 0.931 . S
H2288 C2303 0.930 . S
C2289 H2277 0.930 . S
C2289 C2290 1.399 . S
C2289 C2294 1.399 . S
C2290 C2289 1.399 . S
C2290 C2291 1.376 . S
C2291 H2278 0.930 . S
C2291 C2290 1.376 . S
C2291 C2292 1.388 . S
C2292 H2279 0.930 . S
C2292 C2291 1.388 . S
C2292 C2293 1.390 . S
C2293 C2292 1.390 . S
C2293 C2294 1.394 . S
C2293 C2299 1.465 . S
C2294 C2289 1.399 . S
C2294 C2293 1.394 . S
C2294 C2295 1.516 . S
C2295 C2294 1.516 . S
C2295 C2296 1.502 . S
C2295 C2297 1.561 . S
C2295 C2298 1.526 . S
C2296 H2280 0.959 . S
C2296 H2281 0.959 . S
C2296 H2282 0.961 . S
C2296 C2295 1.502 . S
C2297 H2283 0.960 . S
C2297 H2284 0.961 . S
C2297 H2285 0.959 . S
C2297 C2295 1.561 . S
C2298 C2295 1.526 . S
C2298 C2299 1.396 . S
C2298 C2303 1.390 . S
C2299 C2293 1.465 . S
C2299 C2298 1.396 . S
C2299 C2300 1.399 . S
C2300 H2286 0.929 . S
C2300 C2299 1.399 . S
C2300 C2301 1.385 . S
C2301 H2287 0.931 . S
C2301 C2300 1.385 . S
C2301 C2302 1.389 . S
C2302 C2301 1.389 . S
C2302 C2303 1.387 . S
C2303 H2288 0.930 . S
C2303 C2298 1.390 . S
C2303 C2302 1.387 . S
H2304 C2316 0.930 . S
H2305 C2318 0.930 . S
H2306 C2319 0.930 . S
H2307 C2323 0.959 . S
H2308 C2323 0.959 . S
H2309 C2323 0.961 . S
H2310 C2324 0.960 . S
H2311 C2324 0.961 . S
H2312 C2324 0.959 . S
H2313 C2327 0.929 . S
H2314 C2328 0.931 . S
H2315 C2330 0.930 . S
C2316 H2304 0.930 . S
C2316 C2317 1.399 . S
C2316 C2321 1.399 . S
C2317 C2316 1.399 . S
C2317 C2318 1.376 . S
C2318 H2305 0.930 . S
C2318 C2317 1.376 . S
C2318 C2319 1.388 . S
C2319 H2306 0.930 . S
C2319 C2318 1.388 . S
C2319 C2320 1.390 . S
C2320 C2319 1.390 . S
C2320 C2321 1.394 . S
C2320 C2326 1.465 . S
C2321 C2316 1.399 . S
C2321 C2320 1.394 . S
C2321 C2322 1.516 . S
C2322 C2321 1.516 . S
C2322 C2323 1.502 . S
C2322 C2324 1.561 . S
C2322 C2325 1.526 . S
C2323 H2307 0.959 . S
C2323 H2308 0.959 . S
C2323 H2309 0.961 . S
C2323 C2322 1.502 . S
C2324 H2310 0.960 . S
C2324 H2311 0.961 . S
C2324 H2312 0.959 . S
C2324 C2322 1.561 . S
C2325 C2322 1.526 . S
C2325 C2326 1.396 . S
C2325 C2330 1.390 . S
C2326 C2320 1.465 . S
C2326 C2325 1.396 . S
C2326 C2327 1.399 . S
C2327 H2313 0.929 . S
C2327 C2326 1.399 . S
C2327 C2328 1.385 . S
C2328 H2314 0.931 . S
C2328 C2327 1.385 . S
C2328 C2329 1.389 . S
C2329 C2328 1.389 . S
C2329 C2330 1.387 . S
C2330 H2315 0.930 . S
C2330 C2325 1.390 . S
C2330 C2329 1.387 . S
H2331 C2343 0.930 . S
H2332 C2345 0.930 . S
H2333 C2346 0.930 . S
H2334 C2350 0.959 . S
H2335 C2350 0.959 . S
H2336 C2350 0.961 . S
H2337 C2351 0.960 . S
H2338 C2351 0.961 . S
H2339 C2351 0.959 . S
H2340 C2354 0.929 . S
H2341 C2355 0.931 . S
H2342 C2357 0.930 . S
C2343 H2331 0.930 . S
C2343 C2344 1.399 . S
C2343 C2348 1.399 . S
C2344 C2343 1.399 . S
C2344 C2345 1.376 . S
C2345 H2332 0.930 . S
C2345 C2344 1.376 . S
C2345 C2346 1.388 . S
C2346 H2333 0.930 . S
C2346 C2345 1.388 . S
C2346 C2347 1.390 . S
C2347 C2346 1.390 . S
C2347 C2348 1.394 . S
C2347 C2353 1.465 . S
C2348 C2343 1.399 . S
C2348 C2347 1.394 . S
C2348 C2349 1.516 . S
C2349 C2348 1.516 . S
C2349 C2350 1.502 . S
C2349 C2351 1.561 . S
C2349 C2352 1.526 . S
C2350 H2334 0.959 . S
C2350 H2335 0.959 . S
C2350 H2336 0.961 . S
C2350 C2349 1.502 . S
C2351 H2337 0.960 . S
C2351 H2338 0.961 . S
C2351 H2339 0.959 . S
C2351 C2349 1.561 . S
C2352 C2349 1.526 . S
C2352 C2353 1.396 . S
C2352 C2357 1.390 . S
C2353 C2347 1.465 . S
C2353 C2352 1.396 . S
C2353 C2354 1.399 . S
C2354 H2340 0.929 . S
C2354 C2353 1.399 . S
C2354 C2355 1.385 . S
C2355 H2341 0.931 . S
C2355 C2354 1.385 . S
C2355 C2356 1.389 . S
C2356 C2355 1.389 . S
C2356 C2357 1.387 . S
C2357 H2342 0.930 . S
C2357 C2352 1.390 . S
C2357 C2356 1.387 . S
H2358 C2370 0.930 . S
H2359 C2372 0.930 . S
H2360 C2373 0.930 . S
H2361 C2377 0.959 . S
H2362 C2377 0.959 . S
H2363 C2377 0.961 . S
H2364 C2378 0.960 . S
H2365 C2378 0.961 . S
H2366 C2378 0.959 . S
H2367 C2381 0.929 . S
H2368 C2382 0.931 . S
H2369 C2384 0.930 . S
C2370 H2358 0.930 . S
C2370 C2371 1.399 . S
C2370 C2375 1.399 . S
C2371 C2370 1.399 . S
C2371 C2372 1.376 . S
C2372 H2359 0.930 . S
C2372 C2371 1.376 . S
C2372 C2373 1.388 . S
C2373 H2360 0.930 . S
C2373 C2372 1.388 . S
C2373 C2374 1.390 . S
C2374 C2373 1.390 . S
C2374 C2375 1.394 . S
C2374 C2380 1.465 . S
C2375 C2370 1.399 . S
C2375 C2374 1.394 . S
C2375 C2376 1.516 . S
C2376 C2375 1.516 . S
C2376 C2377 1.502 . S
C2376 C2378 1.561 . S
C2376 C2379 1.526 . S
C2377 H2361 0.959 . S
C2377 H2362 0.959 . S
C2377 H2363 0.961 . S
C2377 C2376 1.502 . S
C2378 H2364 0.960 . S
C2378 H2365 0.961 . S
C2378 H2366 0.959 . S
C2378 C2376 1.561 . S
C2379 C2376 1.526 . S
C2379 C2380 1.396 . S
C2379 C2384 1.390 . S
C2380 C2374 1.465 . S
C2380 C2379 1.396 . S
C2380 C2381 1.399 . S
C2381 H2367 0.929 . S
C2381 C2380 1.399 . S
C2381 C2382 1.385 . S
C2382 H2368 0.931 . S
C2382 C2381 1.385 . S
C2382 C2383 1.389 . S
C2383 C2382 1.389 . S
C2383 C2384 1.387 . S
C2384 H2369 0.930 . S
C2384 C2379 1.390 . S
C2384 C2383 1.387 . S
H2385 C2397 0.930 . S
H2386 C2399 0.930 . S
H2387 C2400 0.930 . S
H2388 C2404 0.959 . S
H2389 C2404 0.959 . S
H2390 C2404 0.961 . S
H2391 C2405 0.960 . S
H2392 C2405 0.961 . S
H2393 C2405 0.959 . S
H2394 C2408 0.929 . S
H2395 C2409 0.931 . S
H2396 C2411 0.930 . S
C2397 H2385 0.930 . S
C2397 C2398 1.399 . S
C2397 C2402 1.399 . S
C2398 C2397 1.399 . S
C2398 C2399 1.376 . S
C2399 H2386 0.930 . S
C2399 C2398 1.376 . S
C2399 C2400 1.388 . S
C2400 H2387 0.930 . S
C2400 C2399 1.388 . S
C2400 C2401 1.390 . S
C2401 C2400 1.390 . S
C2401 C2402 1.394 . S
C2401 C2407 1.465 . S
C2402 C2397 1.399 . S
C2402 C2401 1.394 . S
C2402 C2403 1.516 . S
C2403 C2402 1.516 . S
C2403 C2404 1.502 . S
C2403 C2405 1.561 . S
C2403 C2406 1.526 . S
C2404 H2388 0.959 . S
C2404 H2389 0.959 . S
C2404 H2390 0.961 . S
C2404 C2403 1.502 . S
C2405 H2391 0.960 . S
C2405 H2392 0.961 . S
C2405 H2393 0.959 . S
C2405 C2403 1.561 . S
C2406 C2403 1.526 . S
C2406 C2407 1.396 . S
C2406 C2411 1.390 . S
C2407 C2401 1.465 . S
C2407 C2406 1.396 . S
C2407 C2408 1.399 . S
C2408 H2394 0.929 . S
C2408 C2407 1.399 . S
C2408 C2409 1.385 . S
C2409 H2395 0.931 . S
C2409 C2408 1.385 . S
C2409 C2410 1.389 . S
C2410 C2409 1.389 . S
C2410 C2411 1.387 . S
C2411 H2396 0.930 . S
C2411 C2406 1.390 . S
C2411 C2410 1.387 . S
H2412 C2424 0.930 . S
H2413 C2426 0.930 . S
H2414 C2427 0.930 . S
H2415 C2431 0.959 . S
H2416 C2431 0.959 . S
H2417 C2431 0.961 . S
H2418 C2432 0.960 . S
H2419 C2432 0.961 . S
H2420 C2432 0.959 . S
H2421 C2435 0.929 . S
H2422 C2436 0.931 . S
H2423 C2438 0.930 . S
C2424 H2412 0.930 . S
C2424 C2425 1.399 . S
C2424 C2429 1.399 . S
C2425 C2424 1.399 . S
C2425 C2426 1.376 . S
C2426 H2413 0.930 . S
C2426 C2425 1.376 . S
C2426 C2427 1.388 . S
C2427 H2414 0.930 . S
C2427 C2426 1.388 . S
C2427 C2428 1.390 . S
C2428 C2427 1.390 . S
C2428 C2429 1.394 . S
C2428 C2434 1.465 . S
C2429 C2424 1.399 . S
C2429 C2428 1.394 . S
C2429 C2430 1.516 . S
C2430 C2429 1.516 . S
C2430 C2431 1.502 . S
C2430 C2432 1.561 . S
C2430 C2433 1.526 . S
C2431 H2415 0.959 . S
C2431 H2416 0.959 . S
C2431 H2417 0.961 . S
C2431 C2430 1.502 . S
C2432 H2418 0.960 . S
C2432 H2419 0.961 . S
C2432 H2420 0.959 . S
C2432 C2430 1.561 . S
C2433 C2430 1.526 . S
C2433 C2434 1.396 . S
C2433 C2438 1.390 . S
C2434 C2428 1.465 . S
C2434 C2433 1.396 . S
C2434 C2435 1.399 . S
C2435 H2421 0.929 . S
C2435 C2434 1.399 . S
C2435 C2436 1.385 . S
C2436 H2422 0.931 . S
C2436 C2435 1.385 . S
C2436 C2437 1.389 . S
C2437 C2436 1.389 . S
C2437 C2438 1.387 . S
C2438 H2423 0.930 . S
C2438 C2433 1.390 . S
C2438 C2437 1.387 . S
H2439 C2451 0.930 . S
H2440 C2453 0.930 . S
H2441 C2454 0.930 . S
H2442 C2458 0.959 . S
H2443 C2458 0.959 . S
H2444 C2458 0.961 . S
H2445 C2459 0.960 . S
H2446 C2459 0.961 . S
H2447 C2459 0.959 . S
H2448 C2462 0.929 . S
H2449 C2463 0.931 . S
H2450 C2465 0.930 . S
C2451 H2439 0.930 . S
C2451 C2452 1.399 . S
C2451 C2456 1.399 . S
C2452 C2451 1.399 . S
C2452 C2453 1.376 . S
C2453 H2440 0.930 . S
C2453 C2452 1.376 . S
C2453 C2454 1.388 . S
C2454 H2441 0.930 . S
C2454 C2453 1.388 . S
C2454 C2455 1.390 . S
C2455 C2454 1.390 . S
C2455 C2456 1.394 . S
C2455 C2461 1.465 . S
C2456 C2451 1.399 . S
C2456 C2455 1.394 . S
C2456 C2457 1.516 . S
C2457 C2456 1.516 . S
C2457 C2458 1.502 . S
C2457 C2459 1.561 . S
C2457 C2460 1.526 . S
C2458 H2442 0.959 . S
C2458 H2443 0.959 . S
C2458 H2444 0.961 . S
C2458 C2457 1.502 . S
C2459 H2445 0.960 . S
C2459 H2446 0.961 . S
C2459 H2447 0.959 . S
C2459 C2457 1.561 . S
C2460 C2457 1.526 . S
C2460 C2461 1.396 . S
C2460 C2465 1.390 . S
C2461 C2455 1.465 . S
C2461 C2460 1.396 . S
C2461 C2462 1.399 . S
C2462 H2448 0.929 . S
C2462 C2461 1.399 . S
C2462 C2463 1.385 . S
C2463 H2449 0.931 . S
C2463 C2462 1.385 . S
C2463 C2464 1.389 . S
C2464 C2463 1.389 . S
C2464 C2465 1.387 . S
C2465 H2450 0.930 . S
C2465 C2460 1.390 . S
C2465 C2464 1.387 . S
H2466 C2478 0.930 . S
H2467 C2480 0.930 . S
H2468 C2481 0.930 . S
H2469 C2485 0.959 . S
H2470 C2485 0.959 . S
H2471 C2485 0.961 . S
H2472 C2486 0.960 . S
H2473 C2486 0.961 . S
H2474 C2486 0.959 . S
H2475 C2489 0.929 . S
H2476 C2490 0.931 . S
H2477 C2492 0.930 . S
C2478 H2466 0.930 . S
C2478 C2479 1.399 . S
C2478 C2483 1.399 . S
C2479 C2478 1.399 . S
C2479 C2480 1.376 . S
C2480 H2467 0.930 . S
C2480 C2479 1.376 . S
C2480 C2481 1.388 . S
C2481 H2468 0.930 . S
C2481 C2480 1.388 . S
C2481 C2482 1.390 . S
C2482 C2481 1.390 . S
C2482 C2483 1.394 . S
C2482 C2488 1.465 . S
C2483 C2478 1.399 . S
C2483 C2482 1.394 . S
C2483 C2484 1.516 . S
C2484 C2483 1.516 . S
C2484 C2485 1.502 . S
C2484 C2486 1.561 . S
C2484 C2487 1.526 . S
C2485 H2469 0.959 . S
C2485 H2470 0.959 . S
C2485 H2471 0.961 . S
C2485 C2484 1.502 . S
C2486 H2472 0.960 . S
C2486 H2473 0.961 . S
C2486 H2474 0.959 . S
C2486 C2484 1.561 . S
C2487 C2484 1.526 . S
C2487 C2488 1.396 . S
C2487 C2492 1.390 . S
C2488 C2482 1.465 . S
C2488 C2487 1.396 . S
C2488 C2489 1.399 . S
C2489 H2475 0.929 . S
C2489 C2488 1.399 . S
C2489 C2490 1.385 . S
C2490 H2476 0.931 . S
C2490 C2489 1.385 . S
C2490 C2491 1.389 . S
C2491 C2490 1.389 . S
C2491 C2492 1.387 . S
C2492 H2477 0.930 . S
C2492 C2487 1.390 . S
C2492 C2491 1.387 . S
H2493 C2505 0.930 . S
H2494 C2507 0.930 . S
H2495 C2508 0.930 . S
H2496 C2512 0.959 . S
H2497 C2512 0.959 . S
H2498 C2512 0.961 . S
H2499 C2513 0.960 . S
H2500 C2513 0.961 . S
H2501 C2513 0.959 . S
H2502 C2516 0.929 . S
H2503 C2517 0.931 . S
H2504 C2519 0.930 . S
C2505 H2493 0.930 . S
C2505 C2506 1.399 . S
C2505 C2510 1.399 . S
C2506 C2505 1.399 . S
C2506 C2507 1.376 . S
C2507 H2494 0.930 . S
C2507 C2506 1.376 . S
C2507 C2508 1.388 . S
C2508 H2495 0.930 . S
C2508 C2507 1.388 . S
C2508 C2509 1.390 . S
C2509 C2508 1.390 . S
C2509 C2510 1.394 . S
C2509 C2515 1.465 . S
C2510 C2505 1.399 . S
C2510 C2509 1.394 . S
C2510 C2511 1.516 . S
C2511 C2510 1.516 . S
C2511 C2512 1.502 . S
C2511 C2513 1.561 . S
C2511 C2514 1.526 . S
C2512 H2496 0.959 . S
C2512 H2497 0.959 . S
C2512 H2498 0.961 . S
C2512 C2511 1.502 . S
C2513 H2499 0.960 . S
C2513 H2500 0.961 . S
C2513 H2501 0.959 . S
C2513 C2511 1.561 . S
C2514 C2511 1.526 . S
C2514 C2515 1.396 . S
C2514 C2519 1.390 . S
C2515 C2509 1.465 . S
C2515 C2514 1.396 . S
C2515 C2516 1.399 . S
C2516 H2502 0.929 . S
C2516 C2515 1.399 . S
C2516 C2517 1.385 . S
C2517 H2503 0.931 . S
C2517 C2516 1.385 . S
C2517 C2518 1.389 . S
C2518 C2517 1.389 . S
C2518 C2519 1.387 . S
C2519 H2504 0.930 . S
C2519 C2514 1.390 . S
C2519 C2518 1.387 . S
H2520 C2532 0.930 . S
H2521 C2534 0.930 . S
H2522 C2535 0.930 . S
H2523 C2539 0.959 . S
H2524 C2539 0.959 . S
H2525 C2539 0.961 . S
H2526 C2540 0.960 . S
H2527 C2540 0.961 . S
H2528 C2540 0.959 . S
H2529 C2543 0.929 . S
H2530 C2544 0.931 . S
H2531 C2546 0.930 . S
C2532 H2520 0.930 . S
C2532 C2533 1.399 . S
C2532 C2537 1.399 . S
C2533 C2532 1.399 . S
C2533 C2534 1.376 . S
C2534 H2521 0.930 . S
C2534 C2533 1.376 . S
C2534 C2535 1.388 . S
C2535 H2522 0.930 . S
C2535 C2534 1.388 . S
C2535 C2536 1.390 . S
C2536 C2535 1.390 . S
C2536 C2537 1.394 . S
C2536 C2542 1.465 . S
C2537 C2532 1.399 . S
C2537 C2536 1.394 . S
C2537 C2538 1.516 . S
C2538 C2537 1.516 . S
C2538 C2539 1.502 . S
C2538 C2540 1.561 . S
C2538 C2541 1.526 . S
C2539 H2523 0.959 . S
C2539 H2524 0.959 . S
C2539 H2525 0.961 . S
C2539 C2538 1.502 . S
C2540 H2526 0.960 . S
C2540 H2527 0.961 . S
C2540 H2528 0.959 . S
C2540 C2538 1.561 . S
C2541 C2538 1.526 . S
C2541 C2542 1.396 . S
C2541 C2546 1.390 . S
C2542 C2536 1.465 . S
C2542 C2541 1.396 . S
C2542 C2543 1.399 . S
C2543 H2529 0.929 . S
C2543 C2542 1.399 . S
C2543 C2544 1.385 . S
C2544 H2530 0.931 . S
C2544 C2543 1.385 . S
C2544 C2545 1.389 . S
C2545 C2544 1.389 . S
C2545 C2546 1.387 . S
C2546 H2531 0.930 . S
C2546 C2541 1.390 . S
C2546 C2545 1.387 . S
H2547 C2559 0.930 . S
H2548 C2561 0.930 . S
H2549 C2562 0.930 . S
H2550 C2566 0.959 . S
H2551 C2566 0.959 . S
H2552 C2566 0.961 . S
H2553 C2567 0.960 . S
H2554 C2567 0.961 . S
H2555 C2567 0.959 . S
H2556 C2570 0.929 . S
H2557 C2571 0.931 . S
H2558 C2573 0.930 . S
C2559 H2547 0.930 . S
C2559 C2560 1.399 . S
C2559 C2564 1.399 . S
C2560 C2559 1.399 . S
C2560 C2561 1.376 . S
C2561 H2548 0.930 . S
C2561 C2560 1.376 . S
C2561 C2562 1.388 . S
C2562 H2549 0.930 . S
C2562 C2561 1.388 . S
C2562 C2563 1.390 . S
C2563 C2562 1.390 . S
C2563 C2564 1.394 . S
C2563 C2569 1.465 . S
C2564 C2559 1.399 . S
C2564 C2563 1.394 . S
C2564 C2565 1.516 . S
C2565 C2564 1.516 . S
C2565 C2566 1.502 . S
C2565 C2567 1.561 . S
C2565 C2568 1.526 . S
C2566 H2550 0.959 . S
C2566 H2551 0.959 . S
C2566 H2552 0.961 . S
C2566 C2565 1.502 . S
C2567 H2553 0.960 . S
C2567 H2554 0.961 . S
C2567 H2555 0.959 . S
C2567 C2565 1.561 . S
C2568 C2565 1.526 . S
C2568 C2569 1.396 . S
C2568 C2573 1.390 . S
C2569 C2563 1.465 . S
C2569 C2568 1.396 . S
C2569 C2570 1.399 . S
C2570 H2556 0.929 . S
C2570 C2569 1.399 . S
C2570 C2571 1.385 . S
C2571 H2557 0.931 . S
C2571 C2570 1.385 . S
C2571 C2572 1.389 . S
C2572 C2571 1.389 . S
C2572 C2573 1.387 . S
C2573 H2558 0.930 . S
C2573 C2568 1.390 . S
C2573 C2572 1.387 . S
H2574 C2586 0.930 . S
H2575 C2588 0.930 . S
H2576 C2589 0.930 . S
H2577 C2593 0.959 . S
H2578 C2593 0.959 . S
H2579 C2593 0.961 . S
H2580 C2594 0.960 . S
H2581 C2594 0.961 . S
H2582 C2594 0.959 . S
H2583 C2597 0.929 . S
H2584 C2598 0.931 . S
H2585 C2600 0.930 . S
C2586 H2574 0.930 . S
C2586 C2587 1.399 . S
C2586 C2591 1.399 . S
C2587 C2586 1.399 . S
C2587 C2588 1.376 . S
C2588 H2575 0.930 . S
C2588 C2587 1.376 . S
C2588 C2589 1.388 . S
C2589 H2576 0.930 . S
C2589 C2588 1.388 . S
C2589 C2590 1.390 . S
C2590 C2589 1.390 . S
C2590 C2591 1.394 . S
C2590 C2596 1.465 . S
C2591 C2586 1.399 . S
C2591 C2590 1.394 . S
C2591 C2592 1.516 . S
C2592 C2591 1.516 . S
C2592 C2593 1.502 . S
C2592 C2594 1.561 . S
C2592 C2595 1.526 . S
C2593 H2577 0.959 . S
C2593 H2578 0.959 . S
C2593 H2579 0.961 . S
C2593 C2592 1.502 . S
C2594 H2580 0.960 . S
C2594 H2581 0.961 . S
C2594 H2582 0.959 . S
C2594 C2592 1.561 . S
C2595 C2592 1.526 . S
C2595 C2596 1.396 . S
C2595 C2600 1.390 . S
C2596 C2590 1.465 . S
C2596 C2595 1.396 . S
C2596 C2597 1.399 . S
C2597 H2583 0.929 . S
C2597 C2596 1.399 . S
C2597 C2598 1.385 . S
C2598 H2584 0.931 . S
C2598 C2597 1.385 . S
C2598 C2599 1.389 . S
C2599 C2598 1.389 . S
C2599 C2600 1.387 . S
C2600 H2585 0.930 . S
C2600 C2595 1.390 . S
C2600 C2599 1.387 . S
H2601 C2613 0.930 . S
H2602 C2615 0.930 . S
H2603 C2616 0.930 . S
H2604 C2620 0.959 . S
H2605 C2620 0.959 . S
H2606 C2620 0.961 . S
H2607 C2621 0.960 . S
H2608 C2621 0.961 . S
H2609 C2621 0.959 . S
H2610 C2624 0.929 . S
H2611 C2625 0.931 . S
H2612 C2627 0.930 . S
C2613 H2601 0.930 . S
C2613 C2614 1.399 . S
C2613 C2618 1.399 . S
C2614 C2613 1.399 . S
C2614 C2615 1.376 . S
C2615 H2602 0.930 . S
C2615 C2614 1.376 . S
C2615 C2616 1.388 . S
C2616 H2603 0.930 . S
C2616 C2615 1.388 . S
C2616 C2617 1.390 . S
C2617 C2616 1.390 . S
C2617 C2618 1.394 . S
C2617 C2623 1.465 . S
C2618 C2613 1.399 . S
C2618 C2617 1.394 . S
C2618 C2619 1.516 . S
C2619 C2618 1.516 . S
C2619 C2620 1.502 . S
C2619 C2621 1.561 . S
C2619 C2622 1.526 . S
C2620 H2604 0.959 . S
C2620 H2605 0.959 . S
C2620 H2606 0.961 . S
C2620 C2619 1.502 . S
C2621 H2607 0.960 . S
C2621 H2608 0.961 . S
C2621 H2609 0.959 . S
C2621 C2619 1.561 . S
C2622 C2619 1.526 . S
C2622 C2623 1.396 . S
C2622 C2627 1.390 . S
C2623 C2617 1.465 . S
C2623 C2622 1.396 . S
C2623 C2624 1.399 . S
C2624 H2610 0.929 . S
C2624 C2623 1.399 . S
C2624 C2625 1.385 . S
C2625 H2611 0.931 . S
C2625 C2624 1.385 . S
C2625 C2626 1.389 . S
C2626 C2625 1.389 . S
C2626 C2627 1.387 . S
C2627 H2612 0.930 . S
C2627 C2622 1.390 . S
C2627 C2626 1.387 . S
H2628 C2640 0.930 . S
H2629 C2642 0.930 . S
H2630 C2643 0.930 . S
H2631 C2647 0.959 . S
H2632 C2647 0.959 . S
H2633 C2647 0.961 . S
H2634 C2648 0.960 . S
H2635 C2648 0.961 . S
H2636 C2648 0.959 . S
H2637 C2651 0.929 . S
H2638 C2652 0.931 . S
H2639 C2654 0.930 . S
C2640 H2628 0.930 . S
C2640 C2641 1.399 . S
C2640 C2645 1.399 . S
C2641 C2640 1.399 . S
C2641 C2642 1.376 . S
C2642 H2629 0.930 . S
C2642 C2641 1.376 . S
C2642 C2643 1.388 . S
C2643 H2630 0.930 . S
C2643 C2642 1.388 . S
C2643 C2644 1.390 . S
C2644 C2643 1.390 . S
C2644 C2645 1.394 . S
C2644 C2650 1.465 . S
C2645 C2640 1.399 . S
C2645 C2644 1.394 . S
C2645 C2646 1.516 . S
C2646 C2645 1.516 . S
C2646 C2647 1.502 . S
C2646 C2648 1.561 . S
C2646 C2649 1.526 . S
C2647 H2631 0.959 . S
C2647 H2632 0.959 . S
C2647 H2633 0.961 . S
C2647 C2646 1.502 . S
C2648 H2634 0.960 . S
C2648 H2635 0.961 . S
C2648 H2636 0.959 . S
C2648 C2646 1.561 . S
C2649 C2646 1.526 . S
C2649 C2650 1.396 . S
C2649 C2654 1.390 . S
C2650 C2644 1.465 . S
C2650 C2649 1.396 . S
C2650 C2651 1.399 . S
C2651 H2637 0.929 . S
C2651 C2650 1.399 . S
C2651 C2652 1.385 . S
C2652 H2638 0.931 . S
C2652 C2651 1.385 . S
C2652 C2653 1.389 . S
C2653 C2652 1.389 . S
C2653 C2654 1.387 . S
C2654 H2639 0.930 . S
C2654 C2649 1.390 . S
C2654 C2653 1.387 . S
H2655 C2667 0.930 . S
H2656 C2669 0.930 . S
H2657 C2670 0.930 . S
H2658 C2674 0.959 . S
H2659 C2674 0.959 . S
H2660 C2674 0.961 . S
H2661 C2675 0.960 . S
H2662 C2675 0.961 . S
H2663 C2675 0.959 . S
H2664 C2678 0.929 . S
H2665 C2679 0.931 . S
H2666 C2681 0.930 . S
C2667 H2655 0.930 . S
C2667 C2668 1.399 . S
C2667 C2672 1.399 . S
C2668 C2667 1.399 . S
C2668 C2669 1.376 . S
C2669 H2656 0.930 . S
C2669 C2668 1.376 . S
C2669 C2670 1.388 . S
C2670 H2657 0.930 . S
C2670 C2669 1.388 . S
C2670 C2671 1.390 . S
C2671 C2670 1.390 . S
C2671 C2672 1.394 . S
C2671 C2677 1.465 . S
C2672 C2667 1.399 . S
C2672 C2671 1.394 . S
C2672 C2673 1.516 . S
C2673 C2672 1.516 . S
C2673 C2674 1.502 . S
C2673 C2675 1.561 . S
C2673 C2676 1.526 . S
C2674 H2658 0.959 . S
C2674 H2659 0.959 . S
C2674 H2660 0.961 . S
C2674 C2673 1.502 . S
C2675 H2661 0.960 . S
C2675 H2662 0.961 . S
C2675 H2663 0.959 . S
C2675 C2673 1.561 . S
C2676 C2673 1.526 . S
C2676 C2677 1.396 . S
C2676 C2681 1.390 . S
C2677 C2671 1.465 . S
C2677 C2676 1.396 . S
C2677 C2678 1.399 . S
C2678 H2664 0.929 . S
C2678 C2677 1.399 . S
C2678 C2679 1.385 . S
C2679 H2665 0.931 . S
C2679 C2678 1.385 . S
C2679 C2680 1.389 . S
C2680 C2679 1.389 . S
C2680 C2681 1.387 . S
C2681 H2666 0.930 . S
C2681 C2676 1.390 . S
C2681 C2680 1.387 . S
H2682 C2694 0.930 . S
H2683 C2696 0.930 . S
H2684 C2697 0.930 . S
H2685 C2701 0.959 . S
H2686 C2701 0.959 . S
H2687 C2701 0.961 . S
H2688 C2702 0.960 . S
H2689 C2702 0.961 . S
H2690 C2702 0.959 . S
H2691 C2705 0.929 . S
H2692 C2706 0.931 . S
H2693 C2708 0.930 . S
C2694 H2682 0.930 . S
C2694 C2695 1.399 . S
C2694 C2699 1.399 . S
C2695 C2694 1.399 . S
C2695 C2696 1.376 . S
C2696 H2683 0.930 . S
C2696 C2695 1.376 . S
C2696 C2697 1.388 . S
C2697 H2684 0.930 . S
C2697 C2696 1.388 . S
C2697 C2698 1.390 . S
C2698 C2697 1.390 . S
C2698 C2699 1.394 . S
C2698 C2704 1.465 . S
C2699 C2694 1.399 . S
C2699 C2698 1.394 . S
C2699 C2700 1.516 . S
C2700 C2699 1.516 . S
C2700 C2701 1.502 . S
C2700 C2702 1.561 . S
C2700 C2703 1.526 . S
C2701 H2685 0.959 . S
C2701 H2686 0.959 . S
C2701 H2687 0.961 . S
C2701 C2700 1.502 . S
C2702 H2688 0.960 . S
C2702 H2689 0.961 . S
C2702 H2690 0.959 . S
C2702 C2700 1.561 . S
C2703 C2700 1.526 . S
C2703 C2704 1.396 . S
C2703 C2708 1.390 . S
C2704 C2698 1.465 . S
C2704 C2703 1.396 . S
C2704 C2705 1.399 . S
C2705 H2691 0.929 . S
C2705 C2704 1.399 . S
C2705 C2706 1.385 . S
C2706 H2692 0.931 . S
C2706 C2705 1.385 . S
C2706 C2707 1.389 . S
C2707 C2706 1.389 . S
C2707 C2708 1.387 . S
C2708 H2693 0.930 . S
C2708 C2703 1.390 . S
C2708 C2707 1.387 . S
H2709 C2721 0.930 . S
H2710 C2723 0.930 . S
H2711 C2724 0.930 . S
H2712 C2728 0.959 . S
H2713 C2728 0.959 . S
H2714 C2728 0.961 . S
H2715 C2729 0.960 . S
H2716 C2729 0.961 . S
H2717 C2729 0.959 . S
H2718 C2732 0.929 . S
H2719 C2733 0.931 . S
H2720 C2735 0.930 . S
C2721 H2709 0.930 . S
C2721 C2722 1.399 . S
C2721 C2726 1.399 . S
C2722 C2721 1.399 . S
C2722 C2723 1.376 . S
C2723 H2710 0.930 . S
C2723 C2722 1.376 . S
C2723 C2724 1.388 . S
C2724 H2711 0.930 . S
C2724 C2723 1.388 . S
C2724 C2725 1.390 . S
C2725 C2724 1.390 . S
C2725 C2726 1.394 . S
C2725 C2731 1.465 . S
C2726 C2721 1.399 . S
C2726 C2725 1.394 . S
C2726 C2727 1.516 . S
C2727 C2726 1.516 . S
C2727 C2728 1.502 . S
C2727 C2729 1.561 . S
C2727 C2730 1.526 . S
C2728 H2712 0.959 . S
C2728 H2713 0.959 . S
C2728 H2714 0.961 . S
C2728 C2727 1.502 . S
C2729 H2715 0.960 . S
C2729 H2716 0.961 . S
C2729 H2717 0.959 . S
C2729 C2727 1.561 . S
C2730 C2727 1.526 . S
C2730 C2731 1.396 . S
C2730 C2735 1.390 . S
C2731 C2725 1.465 . S
C2731 C2730 1.396 . S
C2731 C2732 1.399 . S
C2732 H2718 0.929 . S
C2732 C2731 1.399 . S
C2732 C2733 1.385 . S
C2733 H2719 0.931 . S
C2733 C2732 1.385 . S
C2733 C2734 1.389 . S
C2734 C2733 1.389 . S
C2734 C2735 1.387 . S
C2735 H2720 0.930 . S
C2735 C2730 1.390 . S
C2735 C2734 1.387 . S
H2736 C2748 0.930 . S
H2737 C2750 0.930 . S
H2738 C2751 0.930 . S
H2739 C2755 0.959 . S
H2740 C2755 0.959 . S
H2741 C2755 0.961 . S
H2742 C2756 0.960 . S
H2743 C2756 0.961 . S
H2744 C2756 0.959 . S
H2745 C2759 0.929 . S
H2746 C2760 0.931 . S
H2747 C2762 0.930 . S
C2748 H2736 0.930 . S
C2748 C2749 1.399 . S
C2748 C2753 1.399 . S
C2749 C2748 1.399 . S
C2749 C2750 1.376 . S
C2750 H2737 0.930 . S
C2750 C2749 1.376 . S
C2750 C2751 1.388 . S
C2751 H2738 0.930 . S
C2751 C2750 1.388 . S
C2751 C2752 1.390 . S
C2752 C2751 1.390 . S
C2752 C2753 1.394 . S
C2752 C2758 1.465 . S
C2753 C2748 1.399 . S
C2753 C2752 1.394 . S
C2753 C2754 1.516 . S
C2754 C2753 1.516 . S
C2754 C2755 1.502 . S
C2754 C2756 1.561 . S
C2754 C2757 1.526 . S
C2755 H2739 0.959 . S
C2755 H2740 0.959 . S
C2755 H2741 0.961 . S
C2755 C2754 1.502 . S
C2756 H2742 0.960 . S
C2756 H2743 0.961 . S
C2756 H2744 0.959 . S
C2756 C2754 1.561 . S
C2757 C2754 1.526 . S
C2757 C2758 1.396 . S
C2757 C2762 1.390 . S
C2758 C2752 1.465 . S
C2758 C2757 1.396 . S
C2758 C2759 1.399 . S
C2759 H2745 0.929 . S
C2759 C2758 1.399 . S
C2759 C2760 1.385 . S
C2760 H2746 0.931 . S
C2760 C2759 1.385 . S
C2760 C2761 1.389 . S
C2761 C2760 1.389 . S
C2761 C2762 1.387 . S
C2762 H2747 0.930 . S
C2762 C2757 1.390 . S
C2762 C2761 1.387 . S
H2763 C2775 0.930 . S
H2764 C2777 0.930 . S
H2765 C2778 0.930 . S
H2766 C2782 0.959 . S
H2767 C2782 0.959 . S
H2768 C2782 0.961 . S
H2769 C2783 0.960 . S
H2770 C2783 0.961 . S
H2771 C2783 0.959 . S
H2772 C2786 0.929 . S
H2773 C2787 0.931 . S
H2774 C2789 0.930 . S
C2775 H2763 0.930 . S
C2775 C2776 1.399 . S
C2775 C2780 1.399 . S
C2776 C2775 1.399 . S
C2776 C2777 1.376 . S
C2777 H2764 0.930 . S
C2777 C2776 1.376 . S
C2777 C2778 1.388 . S
C2778 H2765 0.930 . S
C2778 C2777 1.388 . S
C2778 C2779 1.390 . S
C2779 C2778 1.390 . S
C2779 C2780 1.394 . S
C2779 C2785 1.465 . S
C2780 C2775 1.399 . S
C2780 C2779 1.394 . S
C2780 C2781 1.516 . S
C2781 C2780 1.516 . S
C2781 C2782 1.502 . S
C2781 C2783 1.561 . S
C2781 C2784 1.526 . S
C2782 H2766 0.959 . S
C2782 H2767 0.959 . S
C2782 H2768 0.961 . S
C2782 C2781 1.502 . S
C2783 H2769 0.960 . S
C2783 H2770 0.961 . S
C2783 H2771 0.959 . S
C2783 C2781 1.561 . S
C2784 C2781 1.526 . S
C2784 C2785 1.396 . S
C2784 C2789 1.390 . S
C2785 C2779 1.465 . S
C2785 C2784 1.396 . S
C2785 C2786 1.399 . S
C2786 H2772 0.929 . S
C2786 C2785 1.399 . S
C2786 C2787 1.385 . S
C2787 H2773 0.931 . S
C2787 C2786 1.385 . S
C2787 C2788 1.389 . S
C2788 C2787 1.389 . S
C2788 C2789 1.387 . S
C2789 H2774 0.930 . S
C2789 C2784 1.390 . S
C2789 C2788 1.387 . S
H2790 C2802 0.930 . S
H2791 C2804 0.930 . S
H2792 C2805 0.930 . S
H2793 C2809 0.959 . S
H2794 C2809 0.959 . S
H2795 C2809 0.961 . S
H2796 C2810 0.960 . S
H2797 C2810 0.961 . S
H2798 C2810 0.959 . S
H2799 C2813 0.929 . S
H2800 C2814 0.931 . S
H2801 C2816 0.930 . S
C2802 H2790 0.930 . S
C2802 C2803 1.399 . S
C2802 C2807 1.399 . S
C2803 C2802 1.399 . S
C2803 C2804 1.376 . S
C2804 H2791 0.930 . S
C2804 C2803 1.376 . S
C2804 C2805 1.388 . S
C2805 H2792 0.930 . S
C2805 C2804 1.388 . S
C2805 C2806 1.390 . S
C2806 C2805 1.390 . S
C2806 C2807 1.394 . S
C2806 C2812 1.465 . S
C2807 C2802 1.399 . S
C2807 C2806 1.394 . S
C2807 C2808 1.516 . S
C2808 C2807 1.516 . S
C2808 C2809 1.502 . S
C2808 C2810 1.561 . S
C2808 C2811 1.526 . S
C2809 H2793 0.959 . S
C2809 H2794 0.959 . S
C2809 H2795 0.961 . S
C2809 C2808 1.502 . S
C2810 H2796 0.960 . S
C2810 H2797 0.961 . S
C2810 H2798 0.959 . S
C2810 C2808 1.561 . S
C2811 C2808 1.526 . S
C2811 C2812 1.396 . S
C2811 C2816 1.390 . S
C2812 C2806 1.465 . S
C2812 C2811 1.396 . S
C2812 C2813 1.399 . S
C2813 H2799 0.929 . S
C2813 C2812 1.399 . S
C2813 C2814 1.385 . S
C2814 H2800 0.931 . S
C2814 C2813 1.385 . S
C2814 C2815 1.389 . S
C2815 C2814 1.389 . S
C2815 C2816 1.387 . S
C2816 H2801 0.930 . S
C2816 C2811 1.390 . S
C2816 C2815 1.387 . S
H2817 C2829 0.930 . S
H2818 C2831 0.930 . S
H2819 C2832 0.930 . S
H2820 C2836 0.959 . S
H2821 C2836 0.959 . S
H2822 C2836 0.961 . S
H2823 C2837 0.960 . S
H2824 C2837 0.961 . S
H2825 C2837 0.959 . S
H2826 C2840 0.929 . S
H2827 C2841 0.931 . S
H2828 C2843 0.930 . S
C2829 H2817 0.930 . S
C2829 C2830 1.399 . S
C2829 C2834 1.399 . S
C2830 C2829 1.399 . S
C2830 C2831 1.376 . S
C2831 H2818 0.930 . S
C2831 C2830 1.376 . S
C2831 C2832 1.388 . S
C2832 H2819 0.930 . S
C2832 C2831 1.388 . S
C2832 C2833 1.390 . S
C2833 C2832 1.390 . S
C2833 C2834 1.394 . S
C2833 C2839 1.465 . S
C2834 C2829 1.399 . S
C2834 C2833 1.394 . S
C2834 C2835 1.516 . S
C2835 C2834 1.516 . S
C2835 C2836 1.502 . S
C2835 C2837 1.561 . S
C2835 C2838 1.526 . S
C2836 H2820 0.959 . S
C2836 H2821 0.959 . S
C2836 H2822 0.961 . S
C2836 C2835 1.502 . S
C2837 H2823 0.960 . S
C2837 H2824 0.961 . S
C2837 H2825 0.959 . S
C2837 C2835 1.561 . S
C2838 C2835 1.526 . S
C2838 C2839 1.396 . S
C2838 C2843 1.390 . S
C2839 C2833 1.465 . S
C2839 C2838 1.396 . S
C2839 C2840 1.399 . S
C2840 H2826 0.929 . S
C2840 C2839 1.399 . S
C2840 C2841 1.385 . S
C2841 H2827 0.931 . S
C2841 C2840 1.385 . S
C2841 C2842 1.389 . S
C2842 C2841 1.389 . S
C2842 C2843 1.387 . S
C2843 H2828 0.930 . S
C2843 C2838 1.390 . S
C2843 C2842 1.387 . S
H2844 C2856 0.930 . S
H2845 C2858 0.930 . S
H2846 C2859 0.930 . S
H2847 C2863 0.959 . S
H2848 C2863 0.959 . S
H2849 C2863 0.961 . S
H2850 C2864 0.960 . S
H2851 C2864 0.961 . S
H2852 C2864 0.959 . S
H2853 C2867 0.929 . S
H2854 C2868 0.931 . S
H2855 C2870 0.930 . S
C2856 H2844 0.930 . S
C2856 C2857 1.399 . S
C2856 C2861 1.399 . S
C2857 C2856 1.399 . S
C2857 C2858 1.376 . S
C2858 H2845 0.930 . S
C2858 C2857 1.376 . S
C2858 C2859 1.388 . S
C2859 H2846 0.930 . S
C2859 C2858 1.388 . S
C2859 C2860 1.390 . S
C2860 C2859 1.390 . S
C2860 C2861 1.394 . S
C2860 C2866 1.465 . S
C2861 C2856 1.399 . S
C2861 C2860 1.394 . S
C2861 C2862 1.516 . S
C2862 C2861 1.516 . S
C2862 C2863 1.502 . S
C2862 C2864 1.561 . S
C2862 C2865 1.526 . S
C2863 H2847 0.959 . S
C2863 H2848 0.959 . S
C2863 H2849 0.961 . S
C2863 C2862 1.502 . S
C2864 H2850 0.960 . S
C2864 H2851 0.961 . S
C2864 H2852 0.959 . S
C2864 C2862 1.561 . S
C2865 C2862 1.526 . S
C2865 C2866 1.396 . S
C2865 C2870 1.390 . S
C2866 C2860 1.465 . S
C2866 C2865 1.396 . S
C2866 C2867 1.399 . S
C2867 H2853 0.929 . S
C2867 C2866 1.399 . S
C2867 C2868 1.385 . S
C2868 H2854 0.931 . S
C2868 C2867 1.385 . S
C2868 C2869 1.389 . S
C2869 C2868 1.389 . S
C2869 C2870 1.387 . S
C2870 H2855 0.930 . S
C2870 C2865 1.390 . S
C2870 C2869 1.387 . S
H2871 C2883 0.930 . S
H2872 C2885 0.930 . S
H2873 C2886 0.930 . S
H2874 C2890 0.959 . S
H2875 C2890 0.959 . S
H2876 C2890 0.961 . S
H2877 C2891 0.960 . S
H2878 C2891 0.961 . S
H2879 C2891 0.959 . S
H2880 C2894 0.929 . S
H2881 C2895 0.931 . S
H2882 C2897 0.930 . S
C2883 H2871 0.930 . S
C2883 C2884 1.399 . S
C2883 C2888 1.399 . S
C2884 C2883 1.399 . S
C2884 C2885 1.376 . S
C2885 H2872 0.930 . S
C2885 C2884 1.376 . S
C2885 C2886 1.388 . S
C2886 H2873 0.930 . S
C2886 C2885 1.388 . S
C2886 C2887 1.390 . S
C2887 C2886 1.390 . S
C2887 C2888 1.394 . S
C2887 C2893 1.465 . S
C2888 C2883 1.399 . S
C2888 C2887 1.394 . S
C2888 C2889 1.516 . S
C2889 C2888 1.516 . S
C2889 C2890 1.502 . S
C2889 C2891 1.561 . S
C2889 C2892 1.526 . S
C2890 H2874 0.959 . S
C2890 H2875 0.959 . S
C2890 H2876 0.961 . S
C2890 C2889 1.502 . S
C2891 H2877 0.960 . S
C2891 H2878 0.961 . S
C2891 H2879 0.959 . S
C2891 C2889 1.561 . S
C2892 C2889 1.526 . S
C2892 C2893 1.396 . S
C2892 C2897 1.390 . S
C2893 C2887 1.465 . S
C2893 C2892 1.396 . S
C2893 C2894 1.399 . S
C2894 H2880 0.929 . S
C2894 C2893 1.399 . S
C2894 C2895 1.385 . S
C2895 H2881 0.931 . S
C2895 C2894 1.385 . S
C2895 C2896 1.389 . S
C2896 C2895 1.389 . S
C2896 C2897 1.387 . S
C2897 H2882 0.930 . S
C2897 C2892 1.390 . S
C2897 C2896 1.387 . S
H2898 C2910 0.930 . S
H2899 C2912 0.930 . S
H2900 C2913 0.930 . S
H2901 C2917 0.959 . S
H2902 C2917 0.959 . S
H2903 C2917 0.961 . S
H2904 C2918 0.960 . S
H2905 C2918 0.961 . S
H2906 C2918 0.959 . S
H2907 C2921 0.929 . S
H2908 C2922 0.931 . S
H2909 C2924 0.930 . S
C2910 H2898 0.930 . S
C2910 C2911 1.399 . S
C2910 C2915 1.399 . S
C2911 C2910 1.399 . S
C2911 C2912 1.376 . S
C2912 H2899 0.930 . S
C2912 C2911 1.376 . S
C2912 C2913 1.388 . S
C2913 H2900 0.930 . S
C2913 C2912 1.388 . S
C2913 C2914 1.390 . S
C2914 C2913 1.390 . S
C2914 C2915 1.394 . S
C2914 C2920 1.465 . S
C2915 C2910 1.399 . S
C2915 C2914 1.394 . S
C2915 C2916 1.516 . S
C2916 C2915 1.516 . S
C2916 C2917 1.502 . S
C2916 C2918 1.561 . S
C2916 C2919 1.526 . S
C2917 H2901 0.959 . S
C2917 H2902 0.959 . S
C2917 H2903 0.961 . S
C2917 C2916 1.502 . S
C2918 H2904 0.960 . S
C2918 H2905 0.961 . S
C2918 H2906 0.959 . S
C2918 C2916 1.561 . S
C2919 C2916 1.526 . S
C2919 C2920 1.396 . S
C2919 C2924 1.390 . S
C2920 C2914 1.465 . S
C2920 C2919 1.396 . S
C2920 C2921 1.399 . S
C2921 H2907 0.929 . S
C2921 C2920 1.399 . S
C2921 C2922 1.385 . S
C2922 H2908 0.931 . S
C2922 C2921 1.385 . S
C2922 C2923 1.389 . S
C2923 C2922 1.389 . S
C2923 C2924 1.387 . S
C2924 H2909 0.930 . S
C2924 C2919 1.390 . S
C2924 C2923 1.387 . S
H2925 C2937 0.930 . S
H2926 C2939 0.930 . S
H2927 C2940 0.930 . S
H2928 C2944 0.959 . S
H2929 C2944 0.959 . S
H2930 C2944 0.961 . S
H2931 C2945 0.960 . S
H2932 C2945 0.961 . S
H2933 C2945 0.959 . S
H2934 C2948 0.929 . S
H2935 C2949 0.931 . S
H2936 C2951 0.930 . S
C2937 H2925 0.930 . S
C2937 C2938 1.399 . S
C2937 C2942 1.399 . S
C2938 C2937 1.399 . S
C2938 C2939 1.376 . S
C2939 H2926 0.930 . S
C2939 C2938 1.376 . S
C2939 C2940 1.388 . S
C2940 H2927 0.930 . S
C2940 C2939 1.388 . S
C2940 C2941 1.390 . S
C2941 C2940 1.390 . S
C2941 C2942 1.394 . S
C2941 C2947 1.465 . S
C2942 C2937 1.399 . S
C2942 C2941 1.394 . S
C2942 C2943 1.516 . S
C2943 C2942 1.516 . S
C2943 C2944 1.502 . S
C2943 C2945 1.561 . S
C2943 C2946 1.526 . S
C2944 H2928 0.959 . S
C2944 H2929 0.959 . S
C2944 H2930 0.961 . S
C2944 C2943 1.502 . S
C2945 H2931 0.960 . S
C2945 H2932 0.961 . S
C2945 H2933 0.959 . S
C2945 C2943 1.561 . S
C2946 C2943 1.526 . S
C2946 C2947 1.396 . S
C2946 C2951 1.390 . S
C2947 C2941 1.465 . S
C2947 C2946 1.396 . S
C2947 C2948 1.399 . S
C2948 H2934 0.929 . S
C2948 C2947 1.399 . S
C2948 C2949 1.385 . S
C2949 H2935 0.931 . S
C2949 C2948 1.385 . S
C2949 C2950 1.389 . S
C2950 C2949 1.389 . S
C2950 C2951 1.387 . S
C2951 H2936 0.930 . S
C2951 C2946 1.390 . S
C2951 C2950 1.387 . S
H2952 C2964 0.930 . S
H2953 C2966 0.930 . S
H2954 C2967 0.930 . S
H2955 C2971 0.959 . S
H2956 C2971 0.959 . S
H2957 C2971 0.961 . S
H2958 C2972 0.960 . S
H2959 C2972 0.961 . S
H2960 C2972 0.959 . S
H2961 C2975 0.929 . S
H2962 C2976 0.931 . S
H2963 C2978 0.930 . S
C2964 H2952 0.930 . S
C2964 C2965 1.399 . S
C2964 C2969 1.399 . S
C2965 C2964 1.399 . S
C2965 C2966 1.376 . S
C2966 H2953 0.930 . S
C2966 C2965 1.376 . S
C2966 C2967 1.388 . S
C2967 H2954 0.930 . S
C2967 C2966 1.388 . S
C2967 C2968 1.390 . S
C2968 C2967 1.390 . S
C2968 C2969 1.394 . S
C2968 C2974 1.465 . S
C2969 C2964 1.399 . S
C2969 C2968 1.394 . S
C2969 C2970 1.516 . S
C2970 C2969 1.516 . S
C2970 C2971 1.502 . S
C2970 C2972 1.561 . S
C2970 C2973 1.526 . S
C2971 H2955 0.959 . S
C2971 H2956 0.959 . S
C2971 H2957 0.961 . S
C2971 C2970 1.502 . S
C2972 H2958 0.960 . S
C2972 H2959 0.961 . S
C2972 H2960 0.959 . S
C2972 C2970 1.561 . S
C2973 C2970 1.526 . S
C2973 C2974 1.396 . S
C2973 C2978 1.390 . S
C2974 C2968 1.465 . S
C2974 C2973 1.396 . S
C2974 C2975 1.399 . S
C2975 H2961 0.929 . S
C2975 C2974 1.399 . S
C2975 C2976 1.385 . S
C2976 H2962 0.931 . S
C2976 C2975 1.385 . S
C2976 C2977 1.389 . S
C2977 C2976 1.389 . S
C2977 C2978 1.387 . S
C2978 H2963 0.930 . S
C2978 C2973 1.390 . S
C2978 C2977 1.387 . S
H2979 C2991 0.930 . S
H2980 C2993 0.930 . S
H2981 C2994 0.930 . S
H2982 C2998 0.959 . S
H2983 C2998 0.959 . S
H2984 C2998 0.961 . S
H2985 C2999 0.960 . S
H2986 C2999 0.961 . S
H2987 C2999 0.959 . S
H2988 C3002 0.929 . S
H2989 C3003 0.931 . S
H2990 C3005 0.930 . S
C2991 H2979 0.930 . S
C2991 C2992 1.399 . S
C2991 C2996 1.399 . S
C2992 C2991 1.399 . S
C2992 C2993 1.376 . S
C2993 H2980 0.930 . S
C2993 C2992 1.376 . S
C2993 C2994 1.388 . S
C2994 H2981 0.930 . S
C2994 C2993 1.388 . S
C2994 C2995 1.390 . S
C2995 C2994 1.390 . S
C2995 C2996 1.394 . S
C2995 C3001 1.465 . S
C2996 C2991 1.399 . S
C2996 C2995 1.394 . S
C2996 C2997 1.516 . S
C2997 C2996 1.516 . S
C2997 C2998 1.502 . S
C2997 C2999 1.561 . S
C2997 C3000 1.526 . S
C2998 H2982 0.959 . S
C2998 H2983 0.959 . S
C2998 H2984 0.961 . S
C2998 C2997 1.502 . S
C2999 H2985 0.960 . S
C2999 H2986 0.961 . S
C2999 H2987 0.959 . S
C2999 C2997 1.561 . S
C3000 C2997 1.526 . S
C3000 C3001 1.396 . S
C3000 C3005 1.390 . S
C3001 C2995 1.465 . S
C3001 C3000 1.396 . S
C3001 C3002 1.399 . S
C3002 H2988 0.929 . S
C3002 C3001 1.399 . S
C3002 C3003 1.385 . S
C3003 H2989 0.931 . S
C3003 C3002 1.385 . S
C3003 C3004 1.389 . S
C3004 C3003 1.389 . S
C3004 C3005 1.387 . S
C3005 H2990 0.930 . S
C3005 C3000 1.390 . S
C3005 C3004 1.387 . S
H3006 C3018 0.930 . S
H3007 C3020 0.930 . S
H3008 C3021 0.930 . S
H3009 C3025 0.959 . S
H3010 C3025 0.959 . S
H3011 C3025 0.961 . S
H3012 C3026 0.960 . S
H3013 C3026 0.961 . S
H3014 C3026 0.959 . S
H3015 C3029 0.929 . S
H3016 C3030 0.931 . S
H3017 C3032 0.930 . S
C3018 H3006 0.930 . S
C3018 C3019 1.399 . S
C3018 C3023 1.399 . S
C3019 C3018 1.399 . S
C3019 C3020 1.376 . S
C3020 H3007 0.930 . S
C3020 C3019 1.376 . S
C3020 C3021 1.388 . S
C3021 H3008 0.930 . S
C3021 C3020 1.388 . S
C3021 C3022 1.390 . S
C3022 C3021 1.390 . S
C3022 C3023 1.394 . S
C3022 C3028 1.465 . S
C3023 C3018 1.399 . S
C3023 C3022 1.394 . S
C3023 C3024 1.516 . S
C3024 C3023 1.516 . S
C3024 C3025 1.502 . S
C3024 C3026 1.561 . S
C3024 C3027 1.526 . S
C3025 H3009 0.959 . S
C3025 H3010 0.959 . S
C3025 H3011 0.961 . S
C3025 C3024 1.502 . S
C3026 H3012 0.960 . S
C3026 H3013 0.961 . S
C3026 H3014 0.959 . S
C3026 C3024 1.561 . S
C3027 C3024 1.526 . S
C3027 C3028 1.396 . S
C3027 C3032 1.390 . S
C3028 C3022 1.465 . S
C3028 C3027 1.396 . S
C3028 C3029 1.399 . S
C3029 H3015 0.929 . S
C3029 C3028 1.399 . S
C3029 C3030 1.385 . S
C3030 H3016 0.931 . S
C3030 C3029 1.385 . S
C3030 C3031 1.389 . S
C3031 C3030 1.389 . S
C3031 C3032 1.387 . S
C3032 H3017 0.930 . S
C3032 C3027 1.390 . S
C3032 C3031 1.387 . S
H3033 C3045 0.930 . S
H3034 C3047 0.930 . S
H3035 C3048 0.930 . S
H3036 C3052 0.959 1_554 S
H3037 C3052 0.959 . S
H3038 C3052 0.961 . S
H3039 C3053 0.960 . S
H3040 C3053 0.961 . S
H3041 C3053 0.959 . S
H3042 C3056 0.929 . S
H3043 C3057 0.931 . S
H3044 C3059 0.930 . S
C3045 H3033 0.930 . S
C3045 C3046 1.399 1_556 S
C3045 C3050 1.399 . S
C3046 C3045 1.399 1_554 S
C3046 C3047 1.376 . S
C3047 H3034 0.930 . S
C3047 C3046 1.376 . S
C3047 C3048 1.388 1_554 S
C3048 H3035 0.930 . S
C3048 C3047 1.388 1_556 S
C3048 C3049 1.390 . S
C3049 C3048 1.390 . S
C3049 C3050 1.394 . S
C3049 C3055 1.465 . S
C3050 C3045 1.399 . S
C3050 C3049 1.394 . S
C3050 C3051 1.516 . S
C3051 C3050 1.516 . S
C3051 C3052 1.502 . S
C3051 C3053 1.561 . S
C3051 C3054 1.526 . S
C3052 H3036 0.959 1_556 S
C3052 H3037 0.959 . S
C3052 H3038 0.961 . S
C3052 C3051 1.502 . S
C3053 H3039 0.960 . S
C3053 H3040 0.961 . S
C3053 H3041 0.959 . S
C3053 C3051 1.561 . S
C3054 C3051 1.526 . S
C3054 C3055 1.396 . S
C3054 C3059 1.390 . S
C3055 C3049 1.465 . S
C3055 C3054 1.396 . S
C3055 C3056 1.399 . S
C3056 H3042 0.929 . S
C3056 C3055 1.399 . S
C3056 C3057 1.385 . S
C3057 H3043 0.931 . S
C3057 C3056 1.385 . S
C3057 C3058 1.389 . S
C3058 C3057 1.389 . S
C3058 C3059 1.387 . S
C3059 H3044 0.930 . S
C3059 C3054 1.390 . S
C3059 C3058 1.387 . S
H3060 C3072 0.930 1_554 S
H3061 C3074 0.930 . S
H3062 C3075 0.930 . S
H3063 C3079 0.959 . S
H3064 C3079 0.959 . S
H3065 C3079 0.961 1_554 S
H3066 C3080 0.960 1_554 S
H3067 C3080 0.961 . S
H3068 C3080 0.959 . S
H3069 C3083 0.929 . S
H3070 C3084 0.931 . S
H3071 C3086 0.930 . S
C3072 H3060 0.930 1_556 S
C3072 C3073 1.399 . S
C3072 C3077 1.399 . S
C3073 C3072 1.399 . S
C3073 C3074 1.376 . S
C3074 H3061 0.930 . S
C3074 C3073 1.376 . S
C3074 C3075 1.388 . S
C3075 H3062 0.930 . S
C3075 C3074 1.388 . S
C3075 C3076 1.390 . S
C3076 C3075 1.390 . S
C3076 C3077 1.394 . S
C3076 C3082 1.465 . S
C3077 C3072 1.399 . S
C3077 C3076 1.394 . S
C3077 C3078 1.516 . S
C3078 C3077 1.516 . S
C3078 C3079 1.502 . S
C3078 C3080 1.561 . S
C3078 C3081 1.526 . S
C3079 H3063 0.959 . S
C3079 H3064 0.959 . S
C3079 H3065 0.961 1_556 S
C3079 C3078 1.502 . S
C3080 H3066 0.960 1_556 S
C3080 H3067 0.961 . S
C3080 H3068 0.959 . S
C3080 C3078 1.561 . S
C3081 C3078 1.526 . S
C3081 C3082 1.396 . S
C3081 C3086 1.390 . S
C3082 C3076 1.465 . S
C3082 C3081 1.396 . S
C3082 C3083 1.399 . S
C3083 H3069 0.929 . S
C3083 C3082 1.399 . S
C3083 C3084 1.385 . S
C3084 H3070 0.931 . S
C3084 C3083 1.385 . S
C3084 C3085 1.389 . S
C3085 C3084 1.389 . S
C3085 C3086 1.387 . S
C3086 H3071 0.930 . S
C3086 C3081 1.390 . S
C3086 C3085 1.387 . S
H3087 C3099 0.930 . S
H3088 C3101 0.930 . S
H3089 C3102 0.930 . S
H3090 C3106 0.959 . S
H3091 C3106 0.959 . S
H3092 C3106 0.961 . S
H3093 C3107 0.960 . S
H3094 C3107 0.961 . S
H3095 C3107 0.959 1_554 S
H3096 C3110 0.929 . S
H3097 C3111 0.931 . S
H3098 C3113 0.930 . S
C3099 H3087 0.930 . S
C3099 C3100 1.399 . S
C3099 C3104 1.399 . S
C3100 C3099 1.399 . S
C3100 C3101 1.376 . S
C3101 H3088 0.930 . S
C3101 C3100 1.376 . S
C3101 C3102 1.388 . S
C3102 H3089 0.930 . S
C3102 C3101 1.388 . S
C3102 C3103 1.390 . S
C3103 C3102 1.390 . S
C3103 C3104 1.394 . S
C3103 C3109 1.465 . S
C3104 C3099 1.399 . S
C3104 C3103 1.394 . S
C3104 C3105 1.516 1_554 S
C3105 C3104 1.516 1_556 S
C3105 C3106 1.502 . S
C3105 C3107 1.561 . S
C3105 C3108 1.526 . S
C3106 H3090 0.959 . S
C3106 H3091 0.959 . S
C3106 H3092 0.961 . S
C3106 C3105 1.502 . S
C3107 H3093 0.960 . S
C3107 H3094 0.961 . S
C3107 H3095 0.959 1_556 S
C3107 C3105 1.561 . S
C3108 C3105 1.526 . S
C3108 C3109 1.396 1_556 S
C3108 C3113 1.390 . S
C3109 C3103 1.465 . S
C3109 C3108 1.396 1_554 S
C3109 C3110 1.399 . S
C3110 H3096 0.929 . S
C3110 C3109 1.399 . S
C3110 C3111 1.385 . S
C3111 H3097 0.931 . S
C3111 C3110 1.385 . S
C3111 C3112 1.389 1_554 S
C3112 C3111 1.389 1_556 S
C3112 C3113 1.387 . S
C3113 H3098 0.930 . S
C3113 C3108 1.390 . S
C3113 C3112 1.387 . S
H3114 C3126 0.930 . S
H3115 C3128 0.930 . S
H3116 C3129 0.930 . S
H3117 C3133 0.959 . S
H3118 C3133 0.959 . S
H3119 C3133 0.961 . S
H3120 C3134 0.960 . S
H3121 C3134 0.961 . S
H3122 C3134 0.959 . S
H3123 C3137 0.929 . S
H3124 C3138 0.931 . S
H3125 C3140 0.930 . S
C3126 H3114 0.930 . S
C3126 C3127 1.399 1_556 S
C3126 C3131 1.399 . S
C3127 C3126 1.399 1_554 S
C3127 C3128 1.376 . S
C3128 H3115 0.930 . S
C3128 C3127 1.376 . S
C3128 C3129 1.388 . S
C3129 H3116 0.930 . S
C3129 C3128 1.388 . S
C3129 C3130 1.390 1_554 S
C3130 C3129 1.390 1_556 S
C3130 C3131 1.394 . S
C3130 C3136 1.465 . S
C3131 C3126 1.399 . S
C3131 C3130 1.394 . S
C3131 C3132 1.516 . S
C3132 C3131 1.516 . S
C3132 C3133 1.502 . S
C3132 C3134 1.561 . S
C3132 C3135 1.526 . S
C3133 H3117 0.959 . S
C3133 H3118 0.959 . S
C3133 H3119 0.961 . S
C3133 C3132 1.502 . S
C3134 H3120 0.960 . S
C3134 H3121 0.961 . S
C3134 H3122 0.959 . S
C3134 C3132 1.561 . S
C3135 C3132 1.526 . S
C3135 C3136 1.396 . S
C3135 C3140 1.390 . S
C3136 C3130 1.465 . S
C3136 C3135 1.396 . S
C3136 C3137 1.399 . S
C3137 H3123 0.929 . S
C3137 C3136 1.399 . S
C3137 C3138 1.385 . S
C3138 H3124 0.931 . S
C3138 C3137 1.385 . S
C3138 C3139 1.389 . S
C3139 C3138 1.389 . S
C3139 C3140 1.387 . S
C3140 H3125 0.930 . S
C3140 C3135 1.390 . S
C3140 C3139 1.387 . S
H3141 C3153 0.930 . S
H3142 C3155 0.930 1_554 S
H3143 C3156 0.930 . S
H3144 C3160 0.959 . S
H3145 C3160 0.959 . S
H3146 C3160 0.961 . S
H3147 C3161 0.960 . S
H3148 C3161 0.961 . S
H3149 C3161 0.959 . S
H3150 C3164 0.929 . S
H3151 C3165 0.931 . S
H3152 C3167 0.930 . S
C3153 H3141 0.930 . S
C3153 C3154 1.399 . S
C3153 C3158 1.399 . S
C3154 C3153 1.399 . S
C3154 C3155 1.376 . S
C3155 H3142 0.930 1_556 S
C3155 C3154 1.376 . S
C3155 C3156 1.388 . S
C3156 H3143 0.930 . S
C3156 C3155 1.388 . S
C3156 C3157 1.390 . S
C3157 C3156 1.390 . S
C3157 C3158 1.394 . S
C3157 C3163 1.465 . S
C3158 C3153 1.399 . S
C3158 C3157 1.394 . S
C3158 C3159 1.516 . S
C3159 C3158 1.516 . S
C3159 C3160 1.502 . S
C3159 C3161 1.561 . S
C3159 C3162 1.526 . S
C3160 H3144 0.959 . S
C3160 H3145 0.959 . S
C3160 H3146 0.961 . S
C3160 C3159 1.502 . S
C3161 H3147 0.960 . S
C3161 H3148 0.961 . S
C3161 H3149 0.959 . S
C3161 C3159 1.561 . S
C3162 C3159 1.526 . S
C3162 C3163 1.396 . S
C3162 C3167 1.390 . S
C3163 C3157 1.465 . S
C3163 C3162 1.396 . S
C3163 C3164 1.399 . S
C3164 H3150 0.929 . S
C3164 C3163 1.399 . S
C3164 C3165 1.385 . S
C3165 H3151 0.931 . S
C3165 C3164 1.385 . S
C3165 C3166 1.389 . S
C3166 C3165 1.389 . S
C3166 C3167 1.387 . S
C3167 H3152 0.930 . S
C3167 C3162 1.390 . S
C3167 C3166 1.387 . S
H3168 C3180 0.930 . S
H3169 C3182 0.930 . S
H3170 C3183 0.930 . S
H3171 C3187 0.959 1_554 S
H3172 C3187 0.959 . S
H3173 C3187 0.961 . S
H3174 C3188 0.960 . S
H3175 C3188 0.961 . S
H3176 C3188 0.959 . S
H3177 C3191 0.914 1_554 S
H3178 C3192 0.931 . S
H3179 C3194 0.930 . S
C3180 H3168 0.930 . S
C3180 C3181 1.399 . S
C3180 C3185 1.399 1_554 S
C3181 C3180 1.399 . S
C3181 C3182 1.376 . S
C3182 H3169 0.930 . S
C3182 C3181 1.376 . S
C3182 C3183 1.388 . S
C3183 H3170 0.930 . S
C3183 C3182 1.388 . S
C3183 C3184 1.390 . S
C3184 C3183 1.390 . S
C3184 C3185 1.394 1_554 S
C3184 C3190 1.465 1_554 S
C3185 C3180 1.399 1_556 S
C3185 C3184 1.394 1_556 S
C3185 C3186 1.516 . S
C3186 C3185 1.516 . S
C3186 C3187 1.502 . S
C3186 C3188 1.561 . S
C3186 C3189 1.526 . S
C3187 H3171 0.959 1_556 S
C3187 H3172 0.959 . S
C3187 H3173 0.961 . S
C3187 C3186 1.502 . S
C3188 H3174 0.960 . S
C3188 H3175 0.961 . S
C3188 H3176 0.959 . S
C3188 C3186 1.561 . S
C3189 C3186 1.526 . S
C3189 C3190 1.396 . S
C3189 C3194 1.390 . S
C3190 C3184 1.465 1_556 S
C3190 C3189 1.396 . S
C3190 C3191 1.399 . S
C3191 H3177 0.914 1_556 S
C3191 C3190 1.399 . S
C3191 C3192 1.385 . S
C3192 H3178 0.931 . S
C3192 C3191 1.385 . S
C3192 C3193 1.389 . S
C3193 C3192 1.389 . S
C3193 C3194 1.387 . S
C3194 H3179 0.930 . S
C3194 C3189 1.390 . S
C3194 C3193 1.387 . S
H3195 C3207 0.930 . S
H3196 C3209 0.930 . S
H3197 C3210 0.930 . S
H3198 C3214 0.959 . S
H3199 C3214 0.959 . S
H3200 C3214 0.961 . S
H3201 C3215 0.960 . S
H3202 C3215 0.961 . S
H3203 C3215 0.959 . S
H3204 C3218 0.929 . S
H3205 C3219 0.931 . S
H3206 C3221 0.930 . S
C3207 H3195 0.930 . S
C3207 C3208 1.399 . S
C3207 C3212 1.399 . S
C3208 C3207 1.399 . S
C3208 C3209 1.376 . S
C3209 H3196 0.930 . S
C3209 C3208 1.376 . S
C3209 C3210 1.388 . S
C3210 H3197 0.930 . S
C3210 C3209 1.388 . S
C3210 C3211 1.390 . S
C3211 C3210 1.390 . S
C3211 C3212 1.394 . S
C3211 C3217 1.465 . S
C3212 C3207 1.399 . S
C3212 C3211 1.394 . S
C3212 C3213 1.516 . S
C3213 C3212 1.516 . S
C3213 C3214 1.502 . S
C3213 C3215 1.561 . S
C3213 C3216 1.526 . S
C3214 H3198 0.959 . S
C3214 H3199 0.959 . S
C3214 H3200 0.961 . S
C3214 C3213 1.502 . S
C3215 H3201 0.960 . S
C3215 H3202 0.961 . S
C3215 H3203 0.959 . S
C3215 C3213 1.561 . S
C3216 C3213 1.526 . S
C3216 C3217 1.396 . S
C3216 C3221 1.390 . S
C3217 C3211 1.465 . S
C3217 C3216 1.396 . S
C3217 C3218 1.399 . S
C3218 H3204 0.929 . S
C3218 C3217 1.399 . S
C3218 C3219 1.385 . S
C3219 H3205 0.931 . S
C3219 C3218 1.385 . S
C3219 C3220 1.389 . S
C3220 C3219 1.389 . S
C3220 C3221 1.387 . S
C3221 H3206 0.930 . S
C3221 C3216 1.390 . S
C3221 C3220 1.387 . S
H3222 C3234 0.930 . S
H3223 C3236 0.930 . S
H3224 C3237 0.930 . S
H3225 C3241 0.959 . S
H3226 C3241 0.959 . S
H3227 C3241 0.961 . S
H3228 C3242 0.960 . S
H3229 C3242 0.961 . S
H3230 C3242 0.959 . S
H3231 C3245 0.929 . S
H3232 C3246 0.931 . S
H3233 C3248 0.930 . S
C3234 H3222 0.930 . S
C3234 C3235 1.399 . S
C3234 C3239 1.399 . S
C3235 C3234 1.399 . S
C3235 C3236 1.376 . S
C3236 H3223 0.930 . S
C3236 C3235 1.376 . S
C3236 C3237 1.388 . S
C3237 H3224 0.930 . S
C3237 C3236 1.388 . S
C3237 C3238 1.390 . S
C3238 C3237 1.390 . S
C3238 C3239 1.394 . S
C3238 C3244 1.465 . S
C3239 C3234 1.399 . S
C3239 C3238 1.394 . S
C3239 C3240 1.516 . S
C3240 C3239 1.516 . S
C3240 C3241 1.502 . S
C3240 C3242 1.561 . S
C3240 C3243 1.526 . S
C3241 H3225 0.959 . S
C3241 H3226 0.959 . S
C3241 H3227 0.961 . S
C3241 C3240 1.502 . S
C3242 H3228 0.960 . S
C3242 H3229 0.961 . S
C3242 H3230 0.959 . S
C3242 C3240 1.561 . S
C3243 C3240 1.526 . S
C3243 C3244 1.396 . S
C3243 C3248 1.390 . S
C3244 C3238 1.465 . S
C3244 C3243 1.396 . S
C3244 C3245 1.399 . S
C3245 H3231 0.929 . S
C3245 C3244 1.399 . S
C3245 C3246 1.385 . S
C3246 H3232 0.931 . S
C3246 C3245 1.385 . S
C3246 C3247 1.389 . S
C3247 C3246 1.389 . S
C3247 C3248 1.387 . S
C3248 H3233 0.930 . S
C3248 C3243 1.390 . S
C3248 C3247 1.387 . S
H3249 C3261 0.930 . S
H3250 C3263 0.930 . S
H3251 C3264 0.930 . S
H3252 C3268 0.959 . S
H3253 C3268 0.959 . S
H3254 C3268 0.961 . S
H3255 C3269 0.960 . S
H3256 C3269 0.961 . S
H3257 C3269 0.959 . S
H3258 C3272 0.929 . S
H3259 C3273 0.931 . S
H3260 C3275 0.930 . S
C3261 H3249 0.930 . S
C3261 C3262 1.399 . S
C3261 C3266 1.399 . S
C3262 C3261 1.399 . S
C3262 C3263 1.376 . S
C3263 H3250 0.930 . S
C3263 C3262 1.376 . S
C3263 C3264 1.388 . S
C3264 H3251 0.930 . S
C3264 C3263 1.388 . S
C3264 C3265 1.390 . S
C3265 C3264 1.390 . S
C3265 C3266 1.394 . S
C3265 C3271 1.465 . S
C3266 C3261 1.399 . S
C3266 C3265 1.394 . S
C3266 C3267 1.516 . S
C3267 C3266 1.516 . S
C3267 C3268 1.502 . S
C3267 C3269 1.561 . S
C3267 C3270 1.526 . S
C3268 H3252 0.959 . S
C3268 H3253 0.959 . S
C3268 H3254 0.961 . S
C3268 C3267 1.502 . S
C3269 H3255 0.960 . S
C3269 H3256 0.961 . S
C3269 H3257 0.959 . S
C3269 C3267 1.561 . S
C3270 C3267 1.526 . S
C3270 C3271 1.396 . S
C3270 C3275 1.390 . S
C3271 C3265 1.465 . S
C3271 C3270 1.396 . S
C3271 C3272 1.399 . S
C3272 H3258 0.929 . S
C3272 C3271 1.399 . S
C3272 C3273 1.385 . S
C3273 H3259 0.931 . S
C3273 C3272 1.385 . S
C3273 C3274 1.389 . S
C3274 C3273 1.389 . S
C3274 C3275 1.387 . S
C3275 H3260 0.930 . S
C3275 C3270 1.390 . S
C3275 C3274 1.387 . S
H3276 C3288 0.930 . S
H3277 C3290 0.930 . S
H3278 C3291 0.930 . S
H3279 C3295 0.959 . S
H3280 C3295 0.959 . S
H3281 C3295 0.961 . S
H3282 C3296 0.960 . S
H3283 C3296 0.961 . S
H3284 C3296 0.959 . S
H3285 C3299 0.929 . S
H3286 C3300 0.931 . S
H3287 C3302 0.930 . S
C3288 H3276 0.930 . S
C3288 C3289 1.399 . S
C3288 C3293 1.399 . S
C3289 C3288 1.399 . S
C3289 C3290 1.376 . S
C3290 H3277 0.930 . S
C3290 C3289 1.376 . S
C3290 C3291 1.388 . S
C3291 H3278 0.930 . S
C3291 C3290 1.388 . S
C3291 C3292 1.390 . S
C3292 C3291 1.390 . S
C3292 C3293 1.394 . S
C3292 C3298 1.465 . S
C3293 C3288 1.399 . S
C3293 C3292 1.394 . S
C3293 C3294 1.516 . S
C3294 C3293 1.516 . S
C3294 C3295 1.502 . S
C3294 C3296 1.561 . S
C3294 C3297 1.526 . S
C3295 H3279 0.959 . S
C3295 H3280 0.959 . S
C3295 H3281 0.961 . S
C3295 C3294 1.502 . S
C3296 H3282 0.960 . S
C3296 H3283 0.961 . S
C3296 H3284 0.959 . S
C3296 C3294 1.561 . S
C3297 C3294 1.526 . S
C3297 C3298 1.396 . S
C3297 C3302 1.390 . S
C3298 C3292 1.465 . S
C3298 C3297 1.396 . S
C3298 C3299 1.399 . S
C3299 H3285 0.929 . S
C3299 C3298 1.399 . S
C3299 C3300 1.385 . S
C3300 H3286 0.931 . S
C3300 C3299 1.385 . S
C3300 C3301 1.389 . S
C3301 C3300 1.389 . S
C3301 C3302 1.387 . S
C3302 H3287 0.930 . S
C3302 C3297 1.390 . S
C3302 C3301 1.387 . S
H3303 C3315 0.930 . S
H3304 C3317 0.930 . S
H3305 C3318 0.930 . S
H3306 C3322 0.959 . S
H3307 C3322 0.959 . S
H3308 C3322 0.961 . S
H3309 C3323 0.960 . S
H3310 C3323 0.961 . S
H3311 C3323 0.959 . S
H3312 C3326 0.929 . S
H3313 C3327 0.931 . S
H3314 C3329 0.930 . S
C3315 H3303 0.930 . S
C3315 C3316 1.399 . S
C3315 C3320 1.399 . S
C3316 C3315 1.399 . S
C3316 C3317 1.376 . S
C3317 H3304 0.930 . S
C3317 C3316 1.376 . S
C3317 C3318 1.388 . S
C3318 H3305 0.930 . S
C3318 C3317 1.388 . S
C3318 C3319 1.390 . S
C3319 C3318 1.390 . S
C3319 C3320 1.394 . S
C3319 C3325 1.465 . S
C3320 C3315 1.399 . S
C3320 C3319 1.394 . S
C3320 C3321 1.516 . S
C3321 C3320 1.516 . S
C3321 C3322 1.502 . S
C3321 C3323 1.561 . S
C3321 C3324 1.526 . S
C3322 H3306 0.959 . S
C3322 H3307 0.959 . S
C3322 H3308 0.961 . S
C3322 C3321 1.502 . S
C3323 H3309 0.960 . S
C3323 H3310 0.961 . S
C3323 H3311 0.959 . S
C3323 C3321 1.561 . S
C3324 C3321 1.526 . S
C3324 C3325 1.396 . S
C3324 C3329 1.390 . S
C3325 C3319 1.465 . S
C3325 C3324 1.396 . S
C3325 C3326 1.399 . S
C3326 H3312 0.929 . S
C3326 C3325 1.399 . S
C3326 C3327 1.385 . S
C3327 H3313 0.931 . S
C3327 C3326 1.385 . S
C3327 C3328 1.389 . S
C3328 C3327 1.389 . S
C3328 C3329 1.387 . S
C3329 H3314 0.930 . S
C3329 C3324 1.390 . S
C3329 C3328 1.387 . S
H3330 C3342 0.930 . S
H3331 C3344 0.930 . S
H3332 C3345 0.930 . S
H3333 C3349 0.959 . S
H3334 C3349 0.959 . S
H3335 C3349 0.961 . S
H3336 C3350 0.960 . S
H3337 C3350 0.961 . S
H3338 C3350 0.959 . S
H3339 C3353 0.929 . S
H3340 C3354 0.931 . S
H3341 C3356 0.930 . S
C3342 H3330 0.930 . S
C3342 C3343 1.399 . S
C3342 C3347 1.399 . S
C3343 C3342 1.399 . S
C3343 C3344 1.376 . S
C3344 H3331 0.930 . S
C3344 C3343 1.376 . S
C3344 C3345 1.388 . S
C3345 H3332 0.930 . S
C3345 C3344 1.388 . S
C3345 C3346 1.390 . S
C3346 C3345 1.390 . S
C3346 C3347 1.394 . S
C3346 C3352 1.465 . S
C3347 C3342 1.399 . S
C3347 C3346 1.394 . S
C3347 C3348 1.516 . S
C3348 C3347 1.516 . S
C3348 C3349 1.502 . S
C3348 C3350 1.561 . S
C3348 C3351 1.526 . S
C3349 H3333 0.959 . S
C3349 H3334 0.959 . S
C3349 H3335 0.961 . S
C3349 C3348 1.502 . S
C3350 H3336 0.960 . S
C3350 H3337 0.961 . S
C3350 H3338 0.959 . S
C3350 C3348 1.561 . S
C3351 C3348 1.526 . S
C3351 C3352 1.396 . S
C3351 C3356 1.390 . S
C3352 C3346 1.465 . S
C3352 C3351 1.396 . S
C3352 C3353 1.399 . S
C3353 H3339 0.929 . S
C3353 C3352 1.399 . S
C3353 C3354 1.385 . S
C3354 H3340 0.931 . S
C3354 C3353 1.385 . S
C3354 C3355 1.389 . S
C3355 C3354 1.389 . S
C3355 C3356 1.387 . S
C3356 H3341 0.930 . S
C3356 C3351 1.390 . S
C3356 C3355 1.387 . S
H3357 C3369 0.930 . S
H3358 C3371 0.930 . S
H3359 C3372 0.930 . S
H3360 C3376 0.959 . S
H3361 C3376 0.959 . S
H3362 C3376 0.961 . S
H3363 C3377 0.960 . S
H3364 C3377 0.961 . S
H3365 C3377 0.959 . S
H3366 C3380 0.929 . S
H3367 C3381 0.931 . S
H3368 C3383 0.930 . S
C3369 H3357 0.930 . S
C3369 C3370 1.399 . S
C3369 C3374 1.399 . S
C3370 C3369 1.399 . S
C3370 C3371 1.376 . S
C3371 H3358 0.930 . S
C3371 C3370 1.376 . S
C3371 C3372 1.388 . S
C3372 H3359 0.930 . S
C3372 C3371 1.388 . S
C3372 C3373 1.390 . S
C3373 C3372 1.390 . S
C3373 C3374 1.394 . S
C3373 C3379 1.465 . S
C3374 C3369 1.399 . S
C3374 C3373 1.394 . S
C3374 C3375 1.516 . S
C3375 C3374 1.516 . S
C3375 C3376 1.502 . S
C3375 C3377 1.561 . S
C3375 C3378 1.526 . S
C3376 H3360 0.959 . S
C3376 H3361 0.959 . S
C3376 H3362 0.961 . S
C3376 C3375 1.502 . S
C3377 H3363 0.960 . S
C3377 H3364 0.961 . S
C3377 H3365 0.959 . S
C3377 C3375 1.561 . S
C3378 C3375 1.526 . S
C3378 C3379 1.396 . S
C3378 C3383 1.390 . S
C3379 C3373 1.465 . S
C3379 C3378 1.396 . S
C3379 C3380 1.399 . S
C3380 H3366 0.929 . S
C3380 C3379 1.399 . S
C3380 C3381 1.385 . S
C3381 H3367 0.931 . S
C3381 C3380 1.385 . S
C3381 C3382 1.389 . S
C3382 C3381 1.389 . S
C3382 C3383 1.387 . S
C3383 H3368 0.930 . S
C3383 C3378 1.390 . S
C3383 C3382 1.387 . S
H3384 C3396 0.930 . S
H3385 C3398 0.930 . S
H3386 C3399 0.930 . S
H3387 C3403 0.959 . S
H3388 C3403 0.959 . S
H3389 C3403 0.961 . S
H3390 C3404 0.960 . S
H3391 C3404 0.961 . S
H3392 C3404 0.959 . S
H3393 C3407 0.929 . S
H3394 C3408 0.931 . S
H3395 C3410 0.930 . S
C3396 H3384 0.930 . S
C3396 C3397 1.399 . S
C3396 C3401 1.399 . S
C3397 C3396 1.399 . S
C3397 C3398 1.376 . S
C3398 H3385 0.930 . S
C3398 C3397 1.376 . S
C3398 C3399 1.388 . S
C3399 H3386 0.930 . S
C3399 C3398 1.388 . S
C3399 C3400 1.390 . S
C3400 C3399 1.390 . S
C3400 C3401 1.394 . S
C3400 C3406 1.465 . S
C3401 C3396 1.399 . S
C3401 C3400 1.394 . S
C3401 C3402 1.516 . S
C3402 C3401 1.516 . S
C3402 C3403 1.502 . S
C3402 C3404 1.561 . S
C3402 C3405 1.526 . S
C3403 H3387 0.959 . S
C3403 H3388 0.959 . S
C3403 H3389 0.961 . S
C3403 C3402 1.502 . S
C3404 H3390 0.960 . S
C3404 H3391 0.961 . S
C3404 H3392 0.959 . S
C3404 C3402 1.561 . S
C3405 C3402 1.526 . S
C3405 C3406 1.396 . S
C3405 C3410 1.390 . S
C3406 C3400 1.465 . S
C3406 C3405 1.396 . S
C3406 C3407 1.399 . S
C3407 H3393 0.929 . S
C3407 C3406 1.399 . S
C3407 C3408 1.385 . S
C3408 H3394 0.931 . S
C3408 C3407 1.385 . S
C3408 C3409 1.389 . S
C3409 C3408 1.389 . S
C3409 C3410 1.387 . S
C3410 H3395 0.930 . S
C3410 C3405 1.390 . S
C3410 C3409 1.387 . S
H3411 C3423 0.930 . S
H3412 C3425 0.930 . S
H3413 C3426 0.930 . S
H3414 C3430 0.959 . S
H3415 C3430 0.959 . S
H3416 C3430 0.961 . S
H3417 C3431 0.960 . S
H3418 C3431 0.961 . S
H3419 C3431 0.959 . S
H3420 C3434 0.929 . S
H3421 C3435 0.931 . S
H3422 C3437 0.930 . S
C3423 H3411 0.930 . S
C3423 C3424 1.399 . S
C3423 C3428 1.399 . S
C3424 C3423 1.399 . S
C3424 C3425 1.376 . S
C3425 H3412 0.930 . S
C3425 C3424 1.376 . S
C3425 C3426 1.388 . S
C3426 H3413 0.930 . S
C3426 C3425 1.388 . S
C3426 C3427 1.390 . S
C3427 C3426 1.390 . S
C3427 C3428 1.394 . S
C3427 C3433 1.465 . S
C3428 C3423 1.399 . S
C3428 C3427 1.394 . S
C3428 C3429 1.516 . S
C3429 C3428 1.516 . S
C3429 C3430 1.502 . S
C3429 C3431 1.561 1_565 S
C3429 C3432 1.526 . S
C3430 H3414 0.959 . S
C3430 H3415 0.959 . S
C3430 H3416 0.961 . S
C3430 C3429 1.502 . S
C3431 H3417 0.960 . S
C3431 H3418 0.961 . S
C3431 H3419 0.959 . S
C3431 C3429 1.561 1_545 S
C3432 C3429 1.526 . S
C3432 C3433 1.396 . S
C3432 C3437 1.390 . S
C3433 C3427 1.465 . S
C3433 C3432 1.396 . S
C3433 C3434 1.399 . S
C3434 H3420 0.929 . S
C3434 C3433 1.399 . S
C3434 C3435 1.385 . S
C3435 H3421 0.931 . S
C3435 C3434 1.385 . S
C3435 C3436 1.389 . S
C3436 C3435 1.389 . S
C3436 C3437 1.387 . S
C3437 H3422 0.930 . S
C3437 C3432 1.390 . S
C3437 C3436 1.387 . S
H3438 C3450 0.930 . S
H3439 C3452 0.937 . S
H3440 C3453 0.930 . S
H3441 C3457 0.959 . S
H3442 C3457 0.959 . S
H3443 C3457 0.961 . S
H3444 C3458 0.960 . S
H3445 C3458 0.961 . S
H3446 C3458 0.959 . S
H3447 C3461 0.929 . S
H3448 C3462 0.931 . S
H3449 C3464 0.930 . S
C3450 H3438 0.930 . S
C3450 C3451 1.399 . S
C3450 C3455 1.399 . S
C3451 C3450 1.399 . S
C3451 C3452 1.376 . S
C3452 H3439 0.937 . S
C3452 C3451 1.376 . S
C3452 C3453 1.388 1_565 S
C3453 H3440 0.930 . S
C3453 C3452 1.388 1_545 S
C3453 C3454 1.390 1_545 S
C3454 C3453 1.390 1_565 S
C3454 C3455 1.394 . S
C3454 C3460 1.465 . S
C3455 C3450 1.399 . S
C3455 C3454 1.394 . S
C3455 C3456 1.516 . S
C3456 C3455 1.516 . S
C3456 C3457 1.502 . S
C3456 C3458 1.561 . S
C3456 C3459 1.526 . S
C3457 H3441 0.959 . S
C3457 H3442 0.959 . S
C3457 H3443 0.961 . S
C3457 C3456 1.502 . S
C3458 H3444 0.960 . S
C3458 H3445 0.961 . S
C3458 H3446 0.959 . S
C3458 C3456 1.561 . S
C3459 C3456 1.526 . S
C3459 C3460 1.396 . S
C3459 C3464 1.390 . S
C3460 C3454 1.465 . S
C3460 C3459 1.396 . S
C3460 C3461 1.399 1_565 S
C3461 H3447 0.929 . S
C3461 C3460 1.399 1_545 S
C3461 C3462 1.385 . S
C3462 H3448 0.931 . S
C3462 C3461 1.385 . S
C3462 C3463 1.389 . S
C3463 C3462 1.389 . S
C3463 C3464 1.387 1_545 S
C3464 H3449 0.930 . S
C3464 C3459 1.390 . S
C3464 C3463 1.387 1_565 S
H3465 C3477 0.930 . S
H3466 C3479 0.930 . S
H3467 C3480 0.930 . S
H3468 C3484 0.959 . S
H3469 C3484 0.959 . S
H3470 C3484 0.961 . S
H3471 C3485 0.960 . S
H3472 C3485 0.961 . S
H3473 C3485 0.959 1_655 S
H3474 C3488 0.929 . S
H3475 C3489 0.931 . S
H3476 C3491 0.930 . S
C3477 H3465 0.930 . S
C3477 C3478 1.399 . S
C3477 C3482 1.399 . S
C3478 C3477 1.399 . S
C3478 C3479 1.376 . S
C3479 H3466 0.930 . S
C3479 C3478 1.376 . S
C3479 C3480 1.388 . S
C3480 H3467 0.930 . S
C3480 C3479 1.388 . S
C3480 C3481 1.390 . S
C3481 C3480 1.390 . S
C3481 C3482 1.394 . S
C3481 C3487 1.465 . S
C3482 C3477 1.399 . S
C3482 C3481 1.394 . S
C3482 C3483 1.516 . S
C3483 C3482 1.516 . S
C3483 C3484 1.502 . S
C3483 C3485 1.561 . S
C3483 C3486 1.526 . S
C3484 H3468 0.959 . S
C3484 H3469 0.959 . S
C3484 H3470 0.961 . S
C3484 C3483 1.502 . S
C3485 H3471 0.960 . S
C3485 H3472 0.961 . S
C3485 H3473 0.959 1_455 S
C3485 C3483 1.561 . S
C3486 C3483 1.526 . S
C3486 C3487 1.396 . S
C3486 C3491 1.390 . S
C3487 C3481 1.465 . S
C3487 C3486 1.396 . S
C3487 C3488 1.399 1_455 S
C3488 H3474 0.929 . S
C3488 C3487 1.399 1_655 S
C3488 C3489 1.385 . S
C3489 H3475 0.931 . S
C3489 C3488 1.385 . S
C3489 C3490 1.389 . S
C3490 C3489 1.389 . S
C3490 C3491 1.387 1_655 S
C3491 H3476 0.930 . S
C3491 C3486 1.390 . S
C3491 C3490 1.387 1_455 S
H3492 C3504 0.930 . S
H3493 C3506 0.930 . S
H3494 C3507 0.930 . S
H3495 C3511 0.959 . S
H3496 C3511 0.959 . S
H3497 C3511 0.961 . S
H3498 C3512 0.960 . S
H3499 C3512 0.961 . S
H3500 C3512 0.959 . S
H3501 C3515 0.929 . S
H3502 C3516 0.931 . S
H3503 C3518 0.930 . S
C3504 H3492 0.930 . S
C3504 C3505 1.399 . S
C3504 C3509 1.399 . S
C3505 C3504 1.399 . S
C3505 C3506 1.376 . S
C3506 H3493 0.930 . S
C3506 C3505 1.376 . S
C3506 C3507 1.388 . S
C3507 H3494 0.930 . S
C3507 C3506 1.388 . S
C3507 C3508 1.390 . S
C3508 C3507 1.390 . S
C3508 C3509 1.394 . S
C3508 C3514 1.465 . S
C3509 C3504 1.399 . S
C3509 C3508 1.394 . S
C3509 C3510 1.516 . S
C3510 C3509 1.516 . S
C3510 C3511 1.502 . S
C3510 C3512 1.561 . S
C3510 C3513 1.526 . S
C3511 H3495 0.959 . S
C3511 H3496 0.959 . S
C3511 H3497 0.961 . S
C3511 C3510 1.502 . S
C3512 H3498 0.960 . S
C3512 H3499 0.961 . S
C3512 H3500 0.959 . S
C3512 C3510 1.561 . S
C3513 C3510 1.526 . S
C3513 C3514 1.396 . S
C3513 C3518 1.390 . S
C3514 C3508 1.465 . S
C3514 C3513 1.396 . S
C3514 C3515 1.399 . S
C3515 H3501 0.929 . S
C3515 C3514 1.399 . S
C3515 C3516 1.385 . S
C3516 H3502 0.931 . S
C3516 C3515 1.385 . S
C3516 C3517 1.389 . S
C3517 C3516 1.389 . S
C3517 C3518 1.387 . S
C3518 H3503 0.930 . S
C3518 C3513 1.390 . S
C3518 C3517 1.387 . S
H3519 C3531 0.930 . S
H3520 C3533 0.930 . S
H3521 C3534 0.930 . S
H3522 C3538 0.959 . S
H3523 C3538 0.959 . S
H3524 C3538 0.961 . S
H3525 C3539 0.960 . S
H3526 C3539 0.961 . S
H3527 C3539 0.959 . S
H3528 C3542 0.929 . S
H3529 C3543 0.931 . S
H3530 C3545 0.930 . S
C3531 H3519 0.930 . S
C3531 C3532 1.399 . S
C3531 C3536 1.399 . S
C3532 C3531 1.399 . S
C3532 C3533 1.376 . S
C3533 H3520 0.930 . S
C3533 C3532 1.376 . S
C3533 C3534 1.388 . S
C3534 H3521 0.930 . S
C3534 C3533 1.388 . S
C3534 C3535 1.390 . S
C3535 C3534 1.390 . S
C3535 C3536 1.394 . S
C3535 C3541 1.465 . S
C3536 C3531 1.399 . S
C3536 C3535 1.394 . S
C3536 C3537 1.516 . S
C3537 C3536 1.516 . S
C3537 C3538 1.502 . S
C3537 C3539 1.561 . S
C3537 C3540 1.526 . S
C3538 H3522 0.959 . S
C3538 H3523 0.959 . S
C3538 H3524 0.961 . S
C3538 C3537 1.502 . S
C3539 H3525 0.960 . S
C3539 H3526 0.961 . S
C3539 H3527 0.959 . S
C3539 C3537 1.561 . S
C3540 C3537 1.526 . S
C3540 C3541 1.396 . S
C3540 C3545 1.390 . S
C3541 C3535 1.465 . S
C3541 C3540 1.396 . S
C3541 C3542 1.399 . S
C3542 H3528 0.929 . S
C3542 C3541 1.399 . S
C3542 C3543 1.385 . S
C3543 H3529 0.931 . S
C3543 C3542 1.385 . S
C3543 C3544 1.389 . S
C3544 C3543 1.389 . S
C3544 C3545 1.387 . S
C3545 H3530 0.930 . S
C3545 C3540 1.390 . S
C3545 C3544 1.387 . S
H3546 C3558 0.930 . S
H3547 C3560 0.930 . S
H3548 C3561 0.930 . S
H3549 C3565 0.959 . S
H3550 C3565 0.959 . S
H3551 C3565 0.961 . S
H3552 C3566 0.960 . S
H3553 C3566 0.961 . S
H3554 C3566 0.959 . S
H3555 C3569 0.929 . S
H3556 C3570 0.931 . S
H3557 C3572 0.930 . S
C3558 H3546 0.930 . S
C3558 C3559 1.399 . S
C3558 C3563 1.399 . S
C3559 C3558 1.399 . S
C3559 C3560 1.376 . S
C3560 H3547 0.930 . S
C3560 C3559 1.376 . S
C3560 C3561 1.388 . S
C3561 H3548 0.930 . S
C3561 C3560 1.388 . S
C3561 C3562 1.390 . S
C3562 C3561 1.390 . S
C3562 C3563 1.394 . S
C3562 C3568 1.465 . S
C3563 C3558 1.399 . S
C3563 C3562 1.394 . S
C3563 C3564 1.516 . S
C3564 C3563 1.516 . S
C3564 C3565 1.502 . S
C3564 C3566 1.561 . S
C3564 C3567 1.526 . S
C3565 H3549 0.959 . S
C3565 H3550 0.959 . S
C3565 H3551 0.961 . S
C3565 C3564 1.502 . S
C3566 H3552 0.960 . S
C3566 H3553 0.961 . S
C3566 H3554 0.959 . S
C3566 C3564 1.561 . S
C3567 C3564 1.526 . S
C3567 C3568 1.396 . S
C3567 C3572 1.390 . S
C3568 C3562 1.465 . S
C3568 C3567 1.396 . S
C3568 C3569 1.399 . S
C3569 H3555 0.929 . S
C3569 C3568 1.399 . S
C3569 C3570 1.385 . S
C3570 H3556 0.931 . S
C3570 C3569 1.385 . S
C3570 C3571 1.389 . S
C3571 C3570 1.389 . S
C3571 C3572 1.387 . S
C3572 H3557 0.930 . S
C3572 C3567 1.390 . S
C3572 C3571 1.387 . S
H3573 C3585 0.930 . S
H3574 C3587 0.951 . S
H3575 C3588 0.930 . S
H3576 C3592 0.959 . S
H3577 C3592 0.959 . S
H3578 C3592 0.961 . S
H3579 C3593 0.960 . S
H3580 C3593 0.961 . S
H3581 C3593 0.959 . S
H3582 C3596 0.929 . S
H3583 C3597 0.931 . S
H3584 C3599 0.930 . S
C3585 H3573 0.930 . S
C3585 C3586 1.399 . S
C3585 C3590 1.399 . S
C3586 C3585 1.399 . S
C3586 C3587 1.376 . S
C3587 H3574 0.951 . S
C3587 C3586 1.376 . S
C3587 C3588 1.388 . S
C3588 H3575 0.930 . S
C3588 C3587 1.388 . S
C3588 C3589 1.390 . S
C3589 C3588 1.390 . S
C3589 C3590 1.394 . S
C3589 C3595 1.465 . S
C3590 C3585 1.399 . S
C3590 C3589 1.394 . S
C3590 C3591 1.516 . S
C3591 C3590 1.516 . S
C3591 C3592 1.502 . S
C3591 C3593 1.561 . S
C3591 C3594 1.526 . S
C3592 H3576 0.959 . S
C3592 H3577 0.959 . S
C3592 H3578 0.961 . S
C3592 C3591 1.502 . S
C3593 H3579 0.960 . S
C3593 H3580 0.961 . S
C3593 H3581 0.959 . S
C3593 C3591 1.561 . S
C3594 C3591 1.526 . S
C3594 C3595 1.396 . S
C3594 C3599 1.390 . S
C3595 C3589 1.465 . S
C3595 C3594 1.396 . S
C3595 C3596 1.399 . S
C3596 H3582 0.929 . S
C3596 C3595 1.399 . S
C3596 C3597 1.385 . S
C3597 H3583 0.931 . S
C3597 C3596 1.385 . S
C3597 C3598 1.389 . S
C3598 C3597 1.389 . S
C3598 C3599 1.387 . S
C3599 H3584 0.930 . S
C3599 C3594 1.390 . S
C3599 C3598 1.387 . S
H3600 C3612 0.930 . S
H3601 C3614 0.930 . S
H3602 C3615 0.930 . S
H3603 C3619 0.959 . S
H3604 C3619 0.959 . S
H3605 C3619 0.961 . S
H3606 C3620 0.960 . S
H3607 C3620 0.961 . S
H3608 C3620 0.959 . S
H3609 C3623 0.929 . S
H3610 C3624 0.931 . S
H3611 C3626 0.930 1_565 S
C3612 H3600 0.930 . S
C3612 C3613 1.399 . S
C3612 C3617 1.399 . S
C3613 C3612 1.399 . S
C3613 C3614 1.376 . S
C3614 H3601 0.930 . S
C3614 C3613 1.376 . S
C3614 C3615 1.388 . S
C3615 H3602 0.930 . S
C3615 C3614 1.388 . S
C3615 C3616 1.390 . S
C3616 C3615 1.390 . S
C3616 C3617 1.394 . S
C3616 C3622 1.465 . S
C3617 C3612 1.399 . S
C3617 C3616 1.394 . S
C3617 C3618 1.516 1_545 S
C3618 C3617 1.516 1_565 S
C3618 C3619 1.502 . S
C3618 C3620 1.561 . S
C3618 C3621 1.526 1_565 S
C3619 H3603 0.959 . S
C3619 H3604 0.959 . S
C3619 H3605 0.961 . S
C3619 C3618 1.502 . S
C3620 H3606 0.960 . S
C3620 H3607 0.961 . S
C3620 H3608 0.959 . S
C3620 C3618 1.561 . S
C3621 C3618 1.526 1_545 S
C3621 C3622 1.396 . S
C3621 C3626 1.390 . S
C3622 C3616 1.465 . S
C3622 C3621 1.396 . S
C3622 C3623 1.399 . S
C3623 H3609 0.929 . S
C3623 C3622 1.399 . S
C3623 C3624 1.385 . S
C3624 H3610 0.931 . S
C3624 C3623 1.385 . S
C3624 C3625 1.389 . S
C3625 C3624 1.389 . S
C3625 C3626 1.387 . S
C3626 H3611 0.930 1_545 S
C3626 C3621 1.390 . S
C3626 C3625 1.387 . S
H3627 C3639 0.930 . S
H3628 C3641 0.930 . S
H3629 C3642 0.930 . S
H3630 C3646 0.959 . S
H3631 C3646 0.959 . S
H3632 C3646 0.961 . S
H3633 C3647 0.960 . S
H3634 C3647 0.961 . S
H3635 C3647 0.959 . S
H3636 C3650 0.929 1_455 S
H3637 C3651 0.931 1_455 S
H3638 C3653 0.930 . S
C3639 H3627 0.930 . S
C3639 C3640 1.399 . S
C3639 C3644 1.399 . S
C3640 C3639 1.399 . S
C3640 C3641 1.376 . S
C3641 H3628 0.930 . S
C3641 C3640 1.376 . S
C3641 C3642 1.388 . S
C3642 H3629 0.930 . S
C3642 C3641 1.388 . S
C3642 C3643 1.390 . S
C3643 C3642 1.390 . S
C3643 C3644 1.394 . S
C3643 C3649 1.465 . S
C3644 C3639 1.399 . S
C3644 C3643 1.394 . S
C3644 C3645 1.516 . S
C3645 C3644 1.516 . S
C3645 C3646 1.502 . S
C3645 C3647 1.561 . S
C3645 C3648 1.526 . S
C3646 H3630 0.959 . S
C3646 H3631 0.959 . S
C3646 H3632 0.961 . S
C3646 C3645 1.502 . S
C3647 H3633 0.960 . S
C3647 H3634 0.961 . S
C3647 H3635 0.959 . S
C3647 C3645 1.561 . S
C3648 C3645 1.526 . S
C3648 C3649 1.396 . S
C3648 C3653 1.390 . S
C3649 C3643 1.465 . S
C3649 C3648 1.396 . S
C3649 C3650 1.399 . S
C3650 H3636 0.929 1_655 S
C3650 C3649 1.399 . S
C3650 C3651 1.385 . S
C3651 H3637 0.931 1_655 S
C3651 C3650 1.385 . S
C3651 C3652 1.389 . S
C3652 C3651 1.389 . S
C3652 C3653 1.387 . S
C3653 H3638 0.930 . S
C3653 C3648 1.390 . S
C3653 C3652 1.387 . S
H3654 C3666 0.930 . S
H3655 C3668 0.930 . S
H3656 C3669 0.930 . S
H3657 C3673 0.959 . S
H3658 C3673 0.959 . S
H3659 C3673 0.961 . S
H3660 C3674 0.960 . S
H3661 C3674 0.961 . S
H3662 C3674 0.959 . S
H3663 C3677 0.929 . S
H3664 C3678 0.931 . S
H3665 C3680 0.930 . S
C3666 H3654 0.930 . S
C3666 C3667 1.399 . S
C3666 C3671 1.399 . S
C3667 C3666 1.399 . S
C3667 C3668 1.376 . S
C3668 H3655 0.930 . S
C3668 C3667 1.376 . S
C3668 C3669 1.388 . S
C3669 H3656 0.930 . S
C3669 C3668 1.388 . S
C3669 C3670 1.390 . S
C3670 C3669 1.390 . S
C3670 C3671 1.394 . S
C3670 C3676 1.465 . S
C3671 C3666 1.399 . S
C3671 C3670 1.394 . S
C3671 C3672 1.516 . S
C3672 C3671 1.516 . S
C3672 C3673 1.502 . S
C3672 C3674 1.561 . S
C3672 C3675 1.526 . S
C3673 H3657 0.959 . S
C3673 H3658 0.959 . S
C3673 H3659 0.961 . S
C3673 C3672 1.502 . S
C3674 H3660 0.960 . S
C3674 H3661 0.961 . S
C3674 H3662 0.959 . S
C3674 C3672 1.561 . S
C3675 C3672 1.526 . S
C3675 C3676 1.396 . S
C3675 C3680 1.390 . S
C3676 C3670 1.465 . S
C3676 C3675 1.396 . S
C3676 C3677 1.399 . S
C3677 H3663 0.929 . S
C3677 C3676 1.399 . S
C3677 C3678 1.385 . S
C3678 H3664 0.931 . S
C3678 C3677 1.385 . S
C3678 C3679 1.389 . S
C3679 C3678 1.389 . S
C3679 C3680 1.387 . S
C3680 H3665 0.930 . S
C3680 C3675 1.390 . S
C3680 C3679 1.387 . S
H3681 C3693 0.930 . S
H3682 C3695 0.930 . S
H3683 C3696 0.930 . S
H3684 C3700 0.959 . S
H3685 C3700 0.959 . S
H3686 C3700 0.961 . S
H3687 C3701 0.960 . S
H3688 C3701 0.961 . S
H3689 C3701 0.959 . S
H3690 C3704 0.929 . S
H3691 C3705 0.931 . S
H3692 C3707 0.930 . S
C3693 H3681 0.930 . S
C3693 C3694 1.399 . S
C3693 C3698 1.399 . S
C3694 C3693 1.399 . S
C3694 C3695 1.376 . S
C3695 H3682 0.930 . S
C3695 C3694 1.376 . S
C3695 C3696 1.388 . S
C3696 H3683 0.930 . S
C3696 C3695 1.388 . S
C3696 C3697 1.390 . S
C3697 C3696 1.390 . S
C3697 C3698 1.394 . S
C3697 C3703 1.465 . S
C3698 C3693 1.399 . S
C3698 C3697 1.394 . S
C3698 C3699 1.516 . S
C3699 C3698 1.516 . S
C3699 C3700 1.502 . S
C3699 C3701 1.561 . S
C3699 C3702 1.526 . S
C3700 H3684 0.959 . S
C3700 H3685 0.959 . S
C3700 H3686 0.961 . S
C3700 C3699 1.502 . S
C3701 H3687 0.960 . S
C3701 H3688 0.961 . S
C3701 H3689 0.959 . S
C3701 C3699 1.561 . S
C3702 C3699 1.526 . S
C3702 C3703 1.396 . S
C3702 C3707 1.390 . S
C3703 C3697 1.465 . S
C3703 C3702 1.396 . S
C3703 C3704 1.399 . S
C3704 H3690 0.929 . S
C3704 C3703 1.399 . S
C3704 C3705 1.385 . S
C3705 H3691 0.931 . S
C3705 C3704 1.385 . S
C3705 C3706 1.389 . S
C3706 C3705 1.389 . S
C3706 C3707 1.387 . S
C3707 H3692 0.930 . S
C3707 C3702 1.390 . S
C3707 C3706 1.387 . S
H3708 C3720 0.930 . S
H3709 C3722 0.930 . S
H3710 C3723 0.930 . S
H3711 C3727 0.959 . S
H3712 C3727 0.959 . S
H3713 C3727 0.961 . S
H3714 C3728 0.960 . S
H3715 C3728 0.961 . S
H3716 C3728 0.959 . S
H3717 C3731 0.929 . S
H3718 C3732 0.931 . S
H3719 C3734 0.930 . S
C3720 H3708 0.930 . S
C3720 C3721 1.399 . S
C3720 C3725 1.399 . S
C3721 C3720 1.399 . S
C3721 C3722 1.376 . S
C3722 H3709 0.930 . S
C3722 C3721 1.376 . S
C3722 C3723 1.388 . S
C3723 H3710 0.930 . S
C3723 C3722 1.388 . S
C3723 C3724 1.390 . S
C3724 C3723 1.390 . S
C3724 C3725 1.394 . S
C3724 C3730 1.465 . S
C3725 C3720 1.399 . S
C3725 C3724 1.394 . S
C3725 C3726 1.516 . S
C3726 C3725 1.516 . S
C3726 C3727 1.502 . S
C3726 C3728 1.561 . S
C3726 C3729 1.526 . S
C3727 H3711 0.959 . S
C3727 H3712 0.959 . S
C3727 H3713 0.961 . S
C3727 C3726 1.502 . S
C3728 H3714 0.960 . S
C3728 H3715 0.961 . S
C3728 H3716 0.959 . S
C3728 C3726 1.561 . S
C3729 C3726 1.526 . S
C3729 C3730 1.396 . S
C3729 C3734 1.390 . S
C3730 C3724 1.465 . S
C3730 C3729 1.396 . S
C3730 C3731 1.399 . S
C3731 H3717 0.929 . S
C3731 C3730 1.399 . S
C3731 C3732 1.385 . S
C3732 H3718 0.931 . S
C3732 C3731 1.385 . S
C3732 C3733 1.389 . S
C3733 C3732 1.389 . S
C3733 C3734 1.387 . S
C3734 H3719 0.930 . S
C3734 C3729 1.390 . S
C3734 C3733 1.387 . S
H3735 C3747 0.930 . S
H3736 C3749 0.930 . S
H3737 C3750 0.930 . S
H3738 C3754 0.959 . S
H3739 C3754 0.959 . S
H3740 C3754 0.961 . S
H3741 C3755 0.960 . S
H3742 C3755 0.961 . S
H3743 C3755 0.959 . S
H3744 C3758 0.929 . S
H3745 C3759 0.931 . S
H3746 C3761 0.930 . S
C3747 H3735 0.930 . S
C3747 C3748 1.399 . S
C3747 C3752 1.399 . S
C3748 C3747 1.399 . S
C3748 C3749 1.376 . S
C3749 H3736 0.930 . S
C3749 C3748 1.376 . S
C3749 C3750 1.388 . S
C3750 H3737 0.930 . S
C3750 C3749 1.388 . S
C3750 C3751 1.390 . S
C3751 C3750 1.390 . S
C3751 C3752 1.394 . S
C3751 C3757 1.465 . S
C3752 C3747 1.399 . S
C3752 C3751 1.394 . S
C3752 C3753 1.516 . S
C3753 C3752 1.516 . S
C3753 C3754 1.502 . S
C3753 C3755 1.561 . S
C3753 C3756 1.526 . S
C3754 H3738 0.959 . S
C3754 H3739 0.959 . S
C3754 H3740 0.961 . S
C3754 C3753 1.502 . S
C3755 H3741 0.960 . S
C3755 H3742 0.961 . S
C3755 H3743 0.959 . S
C3755 C3753 1.561 . S
C3756 C3753 1.526 . S
C3756 C3757 1.396 . S
C3756 C3761 1.390 . S
C3757 C3751 1.465 . S
C3757 C3756 1.396 . S
C3757 C3758 1.399 . S
C3758 H3744 0.929 . S
C3758 C3757 1.399 . S
C3758 C3759 1.385 . S
C3759 H3745 0.931 . S
C3759 C3758 1.385 . S
C3759 C3760 1.389 . S
C3760 C3759 1.389 . S
C3760 C3761 1.387 . S
C3761 H3746 0.930 . S
C3761 C3756 1.390 . S
C3761 C3760 1.387 . S
H3762 C3774 0.930 . S
H3763 C3776 0.930 . S
H3764 C3777 0.930 . S
H3765 C3781 0.959 . S
H3766 C3781 0.959 . S
H3767 C3781 0.961 . S
H3768 C3782 0.960 . S
H3769 C3782 0.961 . S
H3770 C3782 0.959 . S
H3771 C3785 0.929 . S
H3772 C3786 0.931 . S
H3773 C3788 0.930 . S
C3774 H3762 0.930 . S
C3774 C3775 1.399 . S
C3774 C3779 1.399 . S
C3775 C3774 1.399 . S
C3775 C3776 1.376 . S
C3776 H3763 0.930 . S
C3776 C3775 1.376 . S
C3776 C3777 1.388 . S
C3777 H3764 0.930 . S
C3777 C3776 1.388 . S
C3777 C3778 1.390 . S
C3778 C3777 1.390 . S
C3778 C3779 1.394 . S
C3778 C3784 1.465 . S
C3779 C3774 1.399 . S
C3779 C3778 1.394 . S
C3779 C3780 1.516 . S
C3780 C3779 1.516 . S
C3780 C3781 1.502 . S
C3780 C3782 1.561 . S
C3780 C3783 1.526 . S
C3781 H3765 0.959 . S
C3781 H3766 0.959 . S
C3781 H3767 0.961 . S
C3781 C3780 1.502 . S
C3782 H3768 0.960 . S
C3782 H3769 0.961 . S
C3782 H3770 0.959 . S
C3782 C3780 1.561 . S
C3783 C3780 1.526 . S
C3783 C3784 1.396 . S
C3783 C3788 1.390 . S
C3784 C3778 1.465 . S
C3784 C3783 1.396 . S
C3784 C3785 1.399 . S
C3785 H3771 0.929 . S
C3785 C3784 1.399 . S
C3785 C3786 1.385 . S
C3786 H3772 0.931 . S
C3786 C3785 1.385 . S
C3786 C3787 1.389 . S
C3787 C3786 1.389 . S
C3787 C3788 1.387 . S
C3788 H3773 0.930 . S
C3788 C3783 1.390 . S
C3788 C3787 1.387 . S
H3789 C3801 0.930 . S
H3790 C3803 0.930 . S
H3791 C3804 0.930 . S
H3792 C3808 0.959 . S
H3793 C3808 0.959 . S
H3794 C3808 0.961 . S
H3795 C3809 0.960 . S
H3796 C3809 0.961 . S
H3797 C3809 0.959 . S
H3798 C3812 0.929 . S
H3799 C3813 0.931 . S
H3800 C3815 0.930 . S
C3801 H3789 0.930 . S
C3801 C3802 1.399 . S
C3801 C3806 1.399 . S
C3802 C3801 1.399 . S
C3802 C3803 1.376 . S
C3803 H3790 0.930 . S
C3803 C3802 1.376 . S
C3803 C3804 1.388 . S
C3804 H3791 0.930 . S
C3804 C3803 1.388 . S
C3804 C3805 1.390 . S
C3805 C3804 1.390 . S
C3805 C3806 1.394 . S
C3805 C3811 1.465 . S
C3806 C3801 1.399 . S
C3806 C3805 1.394 . S
C3806 C3807 1.516 . S
C3807 C3806 1.516 . S
C3807 C3808 1.502 . S
C3807 C3809 1.561 . S
C3807 C3810 1.526 . S
C3808 H3792 0.959 . S
C3808 H3793 0.959 . S
C3808 H3794 0.961 . S
C3808 C3807 1.502 . S
C3809 H3795 0.960 . S
C3809 H3796 0.961 . S
C3809 H3797 0.959 . S
C3809 C3807 1.561 . S
C3810 C3807 1.526 . S
C3810 C3811 1.396 . S
C3810 C3815 1.390 . S
C3811 C3805 1.465 . S
C3811 C3810 1.396 . S
C3811 C3812 1.399 . S
C3812 H3798 0.929 . S
C3812 C3811 1.399 . S
C3812 C3813 1.385 . S
C3813 H3799 0.931 . S
C3813 C3812 1.385 . S
C3813 C3814 1.389 . S
C3814 C3813 1.389 . S
C3814 C3815 1.387 . S
C3815 H3800 0.930 . S
C3815 C3810 1.390 . S
C3815 C3814 1.387 . S
H3816 C3828 0.930 . S
H3817 C3830 0.930 . S
H3818 C3831 0.930 . S
H3819 C3835 0.959 . S
H3820 C3835 0.959 . S
H3821 C3835 0.961 . S
H3822 C3836 0.960 . S
H3823 C3836 0.961 . S
H3824 C3836 0.959 . S
H3825 C3839 0.929 . S
H3826 C3840 0.931 . S
H3827 C3842 0.930 . S
C3828 H3816 0.930 . S
C3828 C3829 1.399 . S
C3828 C3833 1.399 . S
C3829 C3828 1.399 . S
C3829 C3830 1.376 . S
C3830 H3817 0.930 . S
C3830 C3829 1.376 . S
C3830 C3831 1.388 . S
C3831 H3818 0.930 . S
C3831 C3830 1.388 . S
C3831 C3832 1.390 . S
C3832 C3831 1.390 . S
C3832 C3833 1.394 . S
C3832 C3838 1.465 . S
C3833 C3828 1.399 . S
C3833 C3832 1.394 . S
C3833 C3834 1.516 . S
C3834 C3833 1.516 . S
C3834 C3835 1.502 . S
C3834 C3836 1.561 . S
C3834 C3837 1.526 . S
C3835 H3819 0.959 . S
C3835 H3820 0.959 . S
C3835 H3821 0.961 . S
C3835 C3834 1.502 . S
C3836 H3822 0.960 . S
C3836 H3823 0.961 . S
C3836 H3824 0.959 . S
C3836 C3834 1.561 . S
C3837 C3834 1.526 . S
C3837 C3838 1.396 . S
C3837 C3842 1.390 . S
C3838 C3832 1.465 . S
C3838 C3837 1.396 . S
C3838 C3839 1.399 . S
C3839 H3825 0.929 . S
C3839 C3838 1.399 . S
C3839 C3840 1.385 . S
C3840 H3826 0.931 . S
C3840 C3839 1.385 . S
C3840 C3841 1.389 . S
C3841 C3840 1.389 . S
C3841 C3842 1.387 . S
C3842 H3827 0.930 . S
C3842 C3837 1.390 . S
C3842 C3841 1.387 . S
H3843 C3855 0.930 . S
H3844 C3857 0.930 . S
H3845 C3858 0.930 . S
H3846 C3862 0.959 . S
H3847 C3862 0.959 . S
H3848 C3862 0.961 . S
H3849 C3863 0.960 . S
H3850 C3863 0.961 . S
H3851 C3863 0.979 . S
H3852 C3866 0.929 1_455 S
H3853 C3867 0.931 . S
H3854 C3869 0.930 . S
C3855 H3843 0.930 . S
C3855 C3856 1.399 . S
C3855 C3860 1.399 . S
C3856 C3855 1.399 . S
C3856 C3857 1.376 . S
C3857 H3844 0.930 . S
C3857 C3856 1.376 . S
C3857 C3858 1.388 . S
C3858 H3845 0.930 . S
C3858 C3857 1.388 . S
C3858 C3859 1.390 . S
C3859 C3858 1.390 . S
C3859 C3860 1.394 . S
C3859 C3865 1.465 . S
C3860 C3855 1.399 . S
C3860 C3859 1.394 . S
C3860 C3861 1.516 . S
C3861 C3860 1.516 . S
C3861 C3862 1.502 . S
C3861 C3863 1.561 . S
C3861 C3864 1.526 . S
C3862 H3846 0.959 . S
C3862 H3847 0.959 . S
C3862 H3848 0.961 . S
C3862 C3861 1.502 . S
C3863 H3849 0.960 . S
C3863 H3850 0.961 . S
C3863 H3851 0.979 . S
C3863 C3861 1.561 . S
C3864 C3861 1.526 . S
C3864 C3865 1.396 . S
C3864 C3869 1.390 . S
C3865 C3859 1.465 . S
C3865 C3864 1.396 . S
C3865 C3866 1.399 . S
C3866 H3852 0.929 1_655 S
C3866 C3865 1.399 . S
C3866 C3867 1.385 1_655 S
C3867 H3853 0.931 . S
C3867 C3866 1.385 1_455 S
C3867 C3868 1.389 1_455 S
C3868 C3867 1.389 1_655 S
C3868 C3869 1.387 . S
C3869 H3854 0.930 . S
C3869 C3864 1.390 . S
C3869 C3868 1.387 . S
H3870 C3882 0.930 . S
H3871 C3884 0.930 . S
H3872 C3885 0.930 . S
H3873 C3889 0.959 . S
H3874 C3889 0.959 . S
H3875 C3889 0.961 . S
H3876 C3890 0.960 . S
H3877 C3890 0.961 . S
H3878 C3890 0.959 . S
H3879 C3893 0.929 . S
H3880 C3894 0.931 . S
H3881 C3896 0.930 . S
C3882 H3870 0.930 . S
C3882 C3883 1.399 . S
C3882 C3887 1.399 . S
C3883 C3882 1.399 . S
C3883 C3884 1.376 . S
C3884 H3871 0.930 . S
C3884 C3883 1.376 . S
C3884 C3885 1.388 . S
C3885 H3872 0.930 . S
C3885 C3884 1.388 . S
C3885 C3886 1.390 . S
C3886 C3885 1.390 . S
C3886 C3887 1.394 . S
C3886 C3892 1.465 . S
C3887 C3882 1.399 . S
C3887 C3886 1.394 . S
C3887 C3888 1.516 . S
C3888 C3887 1.516 . S
C3888 C3889 1.502 . S
C3888 C3890 1.561 . S
C3888 C3891 1.526 . S
C3889 H3873 0.959 . S
C3889 H3874 0.959 . S
C3889 H3875 0.961 . S
C3889 C3888 1.502 . S
C3890 H3876 0.960 . S
C3890 H3877 0.961 . S
C3890 H3878 0.959 . S
C3890 C3888 1.561 . S
C3891 C3888 1.526 . S
C3891 C3892 1.396 . S
C3891 C3896 1.390 . S
C3892 C3886 1.465 . S
C3892 C3891 1.396 . S
C3892 C3893 1.399 . S
C3893 H3879 0.929 . S
C3893 C3892 1.399 . S
C3893 C3894 1.385 . S
C3894 H3880 0.931 . S
C3894 C3893 1.385 . S
C3894 C3895 1.389 . S
C3895 C3894 1.389 . S
C3895 C3896 1.387 . S
C3896 H3881 0.930 . S
C3896 C3891 1.390 . S
C3896 C3895 1.387 . S
H3897 C3909 0.930 . S
H3898 C3911 0.930 . S
H3899 C3912 0.930 1_565 S
H3900 C3916 0.959 . S
H3901 C3916 0.959 . S
H3902 C3916 0.961 . S
H3903 C3917 0.960 . S
H3904 C3917 0.961 . S
H3905 C3917 0.959 . S
H3906 C3920 0.929 . S
H3907 C3921 0.931 . S
H3908 C3923 0.930 . S
C3909 H3897 0.930 . S
C3909 C3910 1.399 . S
C3909 C3914 1.399 . S
C3910 C3909 1.399 . S
C3910 C3911 1.376 . S
C3911 H3898 0.930 . S
C3911 C3910 1.376 . S
C3911 C3912 1.388 . S
C3912 H3899 0.930 1_545 S
C3912 C3911 1.388 . S
C3912 C3913 1.390 . S
C3913 C3912 1.390 . S
C3913 C3914 1.394 . S
C3913 C3919 1.465 . S
C3914 C3909 1.399 . S
C3914 C3913 1.394 . S
C3914 C3915 1.516 . S
C3915 C3914 1.516 . S
C3915 C3916 1.502 . S
C3915 C3917 1.561 . S
C3915 C3918 1.526 . S
C3916 H3900 0.959 . S
C3916 H3901 0.959 . S
C3916 H3902 0.961 . S
C3916 C3915 1.502 . S
C3917 H3903 0.960 . S
C3917 H3904 0.961 . S
C3917 H3905 0.959 . S
C3917 C3915 1.561 . S
C3918 C3915 1.526 . S
C3918 C3919 1.396 . S
C3918 C3923 1.390 . S
C3919 C3913 1.465 . S
C3919 C3918 1.396 . S
C3919 C3920 1.399 1_545 S
C3920 H3906 0.929 . S
C3920 C3919 1.399 1_565 S
C3920 C3921 1.385 . S
C3921 H3907 0.931 . S
C3921 C3920 1.385 . S
C3921 C3922 1.389 1_565 S
C3922 C3921 1.389 1_545 S
C3922 C3923 1.387 . S
C3923 H3908 0.930 . S
C3923 C3918 1.390 . S
C3923 C3922 1.387 . S
C1993 C4 1.171 1_655 S
C2005 C1377 1.090 . S
C2020 C38 1.753 . S
C2032 C1457 1.722 . S
C2059 C1525 1.326 . S
C2047 C74 1.322 . S
C2074 C76 1.660 . S
C2086 C1605 1.654 . S
C2101 C2 1.524 . S
C2113 C1679 1.552 . S
C2128 C40 1.600 . S
C2140 C1747 1.471 . S
C2155 C110 1.151 . S
C2167 C1673 1.177 . S
C2194 C1753 1.426 . S
C2182 C148 1.429 . S
C2221 C1599 1.325 1_565 S
C2209 C182 1.369 1_565 S
C2236 C184 1.690 . S
C2248 C1531 1.685 1_545 S
C2275 C1383 1.443 . S
C2263 C112 1.391 . S
C2290 C146 1.499 . S
C2302 C1451 1.501 . S
C2317 C220 1.497 . S
C2329 C1821 1.351 . S
C2344 C254 1.789 . S
C2356 C1901 1.723 . S
C2383 C1969 1.496 . S
C2371 C290 1.636 . S
C2398 C292 1.817 . S
C2410 C717 1.760 . S
C2425 C218 1.811 . S
C2437 C791 1.757 . S
C2452 C256 1.625 . S
C2464 C859 1.542 . S
C2479 C326 1.270 . S
C2491 C785 1.189 . S
C2506 C364 1.493 . S
C2518 C865 1.500 . S
C2545 C711 1.480 . S
C2533 C398 1.506 . S
C2572 C1975 1.846 . S
C2560 C400 1.847 . S
C2599 C1827 1.459 . S
C2587 C328 1.461 . S
C2626 C1895 1.544 . S
C2614 C362 1.547 . S
C2641 C436 1.388 . S
C2653 C933 1.273 . S
C2668 C470 1.816 . S
C2680 C1013 1.764 . S
C2695 C506 1.661 . S
C2707 C1081 1.559 . S
C2722 C508 1.926 . S
C2734 C1161 1.868 . S
C2761 C1235 1.744 . S
C2749 C434 1.793 . S
C2788 C1303 1.605 . S
C2776 C472 1.658 . S
C2815 C1229 1.298 . S
C2803 C542 1.385 . S
C2842 C1309 1.485 . S
C2830 C580 1.481 . S
C2857 C614 1.418 . S
C2869 C1155 1.391 . S
C2896 C1087 1.738 . S
C2884 C616 1.734 . S
C2911 C544 1.520 . S
C2923 C939 1.515 . S
C2950 C1007 1.466 . S
C2938 C578 1.496 . S
C2977 C687 1.975 . S
C2965 C14 2.017 . S
C2992 C39 1.502 . S
C3004 C761 1.463 . S
C3031 C847 1.479 . S
C3019 C75 1.481 . S
C3058 C921 1.195 . S
C3046 C86 1.209 . S
C3085 C983 1.620 . S
C3073 C3 1.647 1_556 S
C3112 C1069 1.596 . S
C3100 C50 1.589 . S
C3127 C111 2.110 . S
C3139 C1057 2.050 . S
C3154 C158 1.651 . S
C3166 C909 1.532 . S
C3181 C183 1.862 . S
C3193 C995 1.772 . S
C3208 C194 1.601 . S
C3220 C773 1.531 . S
C3247 C835 1.704 . S
C3235 C122 1.812 . S
C3262 C147 1.709 . S
C3274 C699 1.681 . S
C3301 C1131 1.913 . S
C3289 C230 1.924 . S
C3316 C255 1.594 1_545 S
C3328 C1205 1.610 . S
C3343 C291 1.524 1_655 S
C3355 C1291 1.540 . S
C3382 C1365 1.060 . S
C3370 C302 1.052 . S
C3397 C219 1.544 . S
C3409 C1427 1.527 . S
C3424 C266 1.401 . S
C3436 C1513 1.464 . S
C3451 C327 1.749 . S
C3463 C1501 1.689 . S
C3478 C374 1.364 . S
C3490 C1353 1.372 . S
C3517 C1439 1.748 . S
C3505 C399 1.751 . S
C3532 C410 1.588 . S
C3544 C1217 1.501 . S
C3559 C338 1.811 1_545 S
C3571 C1279 1.752 . S
C3598 C1143 1.731 . S
C3586 C363 1.810 1_655 S
C3625 C1575 1.772 . S
C3613 C446 1.727 . S
C3640 C471 1.299 . S
C3652 C1649 1.272 . S
C3667 C507 1.437 . S
C3679 C1735 1.396 . S
C3706 C1809 1.215 . S
C3694 C518 1.206 . S
C3733 C1871 1.646 . S
C3721 C435 1.664 1_565 S
C3748 C482 1.645 1_455 S
C3760 C1957 1.676 . S
C3775 C543 2.048 . S
C3787 C1945 1.960 . S
C3802 C590 1.776 1_565 S
C3814 C1797 1.718 . S
C3841 C1883 1.836 . S
C3829 C615 1.850 1_455 S
C3868 C1661 1.136 . S
C3856 C626 1.183 . S
C3895 C1723 1.681 . S
C3883 C554 1.729 . S
C3910 C579 1.451 . S
C3922 C1587 1.454 . S
