# Generated by pormake.
# Topology ctn, (3,4)-cn, num edge types: 1
# Building blocks:
#     Node 0, Type 0, BuildingBlock: BETDIP_clean_linker_0, # of connection points: 3
#     Node 1, Type 0, BuildingBlock: BETDIP_clean_linker_0, # of connection points: 3
#     Node 2, Type 0, BuildingBlock: BETDIP_clean_linker_0, # of connection points: 3
#     Node 3, Type 0, BuildingBlock: BETDIP_clean_linker_0, # of connection points: 3
#     Node 4, Type 0, BuildingBlock: BETDIP_clean_linker_0, # of connection points: 3
#     Node 5, Type 0, BuildingBlock: BETDIP_clean_linker_0, # of connection points: 3
#     Node 6, Type 0, BuildingBlock: BETDIP_clean_linker_0, # of connection points: 3
#     Node 7, Type 0, BuildingBlock: BETDIP_clean_linker_0, # of connection points: 3
#     Node 8, Type 0, BuildingBlock: BETDIP_clean_linker_0, # of connection points: 3
#     Node 9, Type 0, BuildingBlock: BETDIP_clean_linker_0, # of connection points: 3
#     Node 10, Type 0, BuildingBlock: BETDIP_clean_linker_0, # of connection points: 3
#     Node 11, Type 0, BuildingBlock: BETDIP_clean_linker_0, # of connection points: 3
#     Node 12, Type 0, BuildingBlock: BETDIP_clean_linker_0, # of connection points: 3
#     Node 13, Type 0, BuildingBlock: BETDIP_clean_linker_0, # of connection points: 3
#     Node 14, Type 0, BuildingBlock: BETDIP_clean_linker_0, # of connection points: 3
#     Node 15, Type 0, BuildingBlock: BETDIP_clean_linker_0, # of connection points: 3
#     Node 16, Type 1, BuildingBlock: AZAVOO_clean_sbu_0, # of connection points: 4
#     Node 17, Type 1, BuildingBlock: AZAVOO_clean_sbu_0, # of connection points: 4
#     Node 18, Type 1, BuildingBlock: AZAVOO_clean_sbu_0, # of connection points: 4
#     Node 19, Type 1, BuildingBlock: AZAVOO_clean_sbu_0, # of connection points: 4
#     Node 20, Type 1, BuildingBlock: AZAVOO_clean_sbu_0, # of connection points: 4
#     Node 21, Type 1, BuildingBlock: AZAVOO_clean_sbu_0, # of connection points: 4
#     Node 22, Type 1, BuildingBlock: AZAVOO_clean_sbu_0, # of connection points: 4
#     Node 23, Type 1, BuildingBlock: AZAVOO_clean_sbu_0, # of connection points: 4
#     Node 24, Type 1, BuildingBlock: AZAVOO_clean_sbu_0, # of connection points: 4
#     Node 25, Type 1, BuildingBlock: AZAVOO_clean_sbu_0, # of connection points: 4
#     Node 26, Type 1, BuildingBlock: AZAVOO_clean_sbu_0, # of connection points: 4
#     Node 27, Type 1, BuildingBlock: AZAVOO_clean_sbu_0, # of connection points: 4
#     Edge 28, Type (0, 1), BuildingBlock: ZUJKAS_clean_linker_0, # of connection points: 2
#     Edge 29, Type (0, 1), BuildingBlock: ZUJKAS_clean_linker_0, # of connection points: 2
#     Edge 30, Type (0, 1), BuildingBlock: ZUJKAS_clean_linker_0, # of connection points: 2
#     Edge 31, Type (0, 1), BuildingBlock: ZUJKAS_clean_linker_0, # of connection points: 2
#     Edge 32, Type (0, 1), BuildingBlock: ZUJKAS_clean_linker_0, # of connection points: 2
#     Edge 33, Type (0, 1), BuildingBlock: ZUJKAS_clean_linker_0, # of connection points: 2
#     Edge 34, Type (0, 1), BuildingBlock: ZUJKAS_clean_linker_0, # of connection points: 2
#     Edge 35, Type (0, 1), BuildingBlock: ZUJKAS_clean_linker_0, # of connection points: 2
#     Edge 36, Type (0, 1), BuildingBlock: ZUJKAS_clean_linker_0, # of connection points: 2
#     Edge 37, Type (0, 1), BuildingBlock: ZUJKAS_clean_linker_0, # of connection points: 2
#     Edge 38, Type (0, 1), BuildingBlock: ZUJKAS_clean_linker_0, # of connection points: 2
#     Edge 39, Type (0, 1), BuildingBlock: ZUJKAS_clean_linker_0, # of connection points: 2
#     Edge 40, Type (0, 1), BuildingBlock: ZUJKAS_clean_linker_0, # of connection points: 2
#     Edge 41, Type (0, 1), BuildingBlock: ZUJKAS_clean_linker_0, # of connection points: 2
#     Edge 42, Type (0, 1), BuildingBlock: ZUJKAS_clean_linker_0, # of connection points: 2
#     Edge 43, Type (0, 1), BuildingBlock: ZUJKAS_clean_linker_0, # of connection points: 2
#     Edge 44, Type (0, 1), BuildingBlock: ZUJKAS_clean_linker_0, # of connection points: 2
#     Edge 45, Type (0, 1), BuildingBlock: ZUJKAS_clean_linker_0, # of connection points: 2
#     Edge 46, Type (0, 1), BuildingBlock: ZUJKAS_clean_linker_0, # of connection points: 2
#     Edge 47, Type (0, 1), BuildingBlock: ZUJKAS_clean_linker_0, # of connection points: 2
#     Edge 48, Type (0, 1), BuildingBlock: ZUJKAS_clean_linker_0, # of connection points: 2
#     Edge 49, Type (0, 1), BuildingBlock: ZUJKAS_clean_linker_0, # of connection points: 2
#     Edge 50, Type (0, 1), BuildingBlock: ZUJKAS_clean_linker_0, # of connection points: 2
#     Edge 51, Type (0, 1), BuildingBlock: ZUJKAS_clean_linker_0, # of connection points: 2
#     Edge 52, Type (0, 1), BuildingBlock: ZUJKAS_clean_linker_0, # of connection points: 2
#     Edge 53, Type (0, 1), BuildingBlock: ZUJKAS_clean_linker_0, # of connection points: 2
#     Edge 54, Type (0, 1), BuildingBlock: ZUJKAS_clean_linker_0, # of connection points: 2
#     Edge 55, Type (0, 1), BuildingBlock: ZUJKAS_clean_linker_0, # of connection points: 2
#     Edge 56, Type (0, 1), BuildingBlock: ZUJKAS_clean_linker_0, # of connection points: 2
#     Edge 57, Type (0, 1), BuildingBlock: ZUJKAS_clean_linker_0, # of connection points: 2
#     Edge 58, Type (0, 1), BuildingBlock: ZUJKAS_clean_linker_0, # of connection points: 2
#     Edge 59, Type (0, 1), BuildingBlock: ZUJKAS_clean_linker_0, # of connection points: 2
#     Edge 60, Type (0, 1), BuildingBlock: ZUJKAS_clean_linker_0, # of connection points: 2
#     Edge 61, Type (0, 1), BuildingBlock: ZUJKAS_clean_linker_0, # of connection points: 2
#     Edge 62, Type (0, 1), BuildingBlock: ZUJKAS_clean_linker_0, # of connection points: 2
#     Edge 63, Type (0, 1), BuildingBlock: ZUJKAS_clean_linker_0, # of connection points: 2
#     Edge 64, Type (0, 1), BuildingBlock: ZUJKAS_clean_linker_0, # of connection points: 2
#     Edge 65, Type (0, 1), BuildingBlock: ZUJKAS_clean_linker_0, # of connection points: 2
#     Edge 66, Type (0, 1), BuildingBlock: ZUJKAS_clean_linker_0, # of connection points: 2
#     Edge 67, Type (0, 1), BuildingBlock: ZUJKAS_clean_linker_0, # of connection points: 2
#     Edge 68, Type (0, 1), BuildingBlock: ZUJKAS_clean_linker_0, # of connection points: 2
#     Edge 69, Type (0, 1), BuildingBlock: ZUJKAS_clean_linker_0, # of connection points: 2
#     Edge 70, Type (0, 1), BuildingBlock: ZUJKAS_clean_linker_0, # of connection points: 2
#     Edge 71, Type (0, 1), BuildingBlock: ZUJKAS_clean_linker_0, # of connection points: 2
#     Edge 72, Type (0, 1), BuildingBlock: ZUJKAS_clean_linker_0, # of connection points: 2
#     Edge 73, Type (0, 1), BuildingBlock: ZUJKAS_clean_linker_0, # of connection points: 2
#     Edge 74, Type (0, 1), BuildingBlock: ZUJKAS_clean_linker_0, # of connection points: 2
#     Edge 75, Type (0, 1), BuildingBlock: ZUJKAS_clean_linker_0, # of connection points: 2
# Relax obj value: 0.064
# Max RMSD: 0.202
# Mean RMSD: 0.115
data_MOF--net-ctn--node1-AZAVOO_clean_sbu_0--node2-BETDIP_clean_linker_0--edge1-ZUJKAS_clean_linker_0
_symmetry_space_group_name_H-M    P1
_symmetry_Int_Tables_number       1
_symmetry_cell_setting            triclinic
loop_
_symmetry_equiv_pos_as_xyz
'x, y, z'
_cell_length_a     67.494606
_cell_length_b     68.971486
_cell_length_c     75.20435
_cell_angle_alpha  93.481233
_cell_angle_beta   96.328307
_cell_angle_gamma 95.807872
loop_
_atom_site_label
_atom_site_type_symbol
_atom_site_fract_x
_atom_site_fract_y
_atom_site_fract_z
_atom_type_partial_charge
H0 H 0.01989 0.0414 0.03715 0.0
H1 H 0.0606 0.01788 0.0038 0.0
H2 H 0.0552 0.99629 0.05563 0.0
H3 H 0.0425 0.0308 0.98182 0.0
C4 C 0.03798 0.04395 0.98815 0.0
C5 C 0.03087 0.03132 0.03508 0.0
C6 C 0.03642 0.01888 0.04847 0.0
C7 C 0.03925 0.03093 0.01889 0.0
C8 C 0.05363 0.01804 0.01607 0.0
C9 C 0.05932 0.00535 0.02919 0.0
C10 C 0.0505 0.00571 0.0453 0.0
N11 N 0.03369 0.0445 0.00625 0.0
H12 H 0.2781 0.7148 0.21614 0.0
H13 H 0.33507 0.74727 0.23472 0.0
H14 H 0.31618 0.69511 0.25956 0.0
H15 H 0.33269 0.75678 0.20646 0.0
C16 C 0.31683 0.75764 0.20268 0.0
C17 C 0.29196 0.71651 0.22514 0.0
C18 C 0.29529 0.70311 0.23818 0.0
C19 C 0.30638 0.73215 0.22349 0.0
C20 C 0.32422 0.73475 0.23535 0.0
C21 C 0.3278 0.72154 0.24856 0.0
C22 C 0.31327 0.70572 0.2498 0.0
N23 N 0.30221 0.7451 0.20992 0.0
H24 H 0.9608 0.49619 0.02157 0.0
H25 H 0.00575 0.47396 0.05719 0.0
H26 H 0.97766 0.52365 0.07492 0.0
H27 H 0.99473 0.44597 0.04055 0.0
C28 C 0.99265 0.45071 0.02702 0.0
C29 C 0.96979 0.49713 0.03452 0.0
C30 C 0.96742 0.51169 0.04782 0.0
C31 C 0.98325 0.4833 0.03785 0.0
C32 C 0.99495 0.48431 0.0546 0.0
C33 C 0.99294 0.49873 0.06811 0.0
C34 C 0.979 0.51228 0.06468 0.0
N35 N 0.98504 0.46884 0.02398 0.0
H36 H 0.71622 0.80461 0.20115 0.0
H37 H 0.73767 0.86013 0.22941 0.0
H38 H 0.76478 0.84111 0.18345 0.0
H39 H 0.72155 0.84871 0.25093 0.0
C40 C 0.70942 0.83786 0.2452 0.0
C41 C 0.7263 0.81801 0.20243 0.0
C42 C 0.74084 0.82093 0.19054 0.0
C43 C 0.725 0.83194 0.2165 0.0
C44 C 0.7384 0.84918 0.21866 0.0
C45 C 0.75312 0.85231 0.20701 0.0
C46 C 0.75394 0.83831 0.19284 0.0
N47 N 0.71009 0.82793 0.22817 0.0
H48 H 0.03066 0.98369 0.46243 0.0
H49 H 0.0825 0.0047 0.49968 0.0
H50 H 0.06888 0.03461 0.45219 0.0
H51 H 0.07956 0.97498 0.5089 0.0
C52 C 0.06391 0.96909 0.50636 0.0
C53 C 0.04375 0.99415 0.4663 0.0
C54 C 0.04811 0.00957 0.45548 0.0
C55 C 0.05617 0.992 0.4821 0.0
C56 C 0.0731 0.00567 0.48725 0.0
C57 C 0.07772 0.02115 0.47656 0.0
C58 C 0.0651 0.02302 0.46075 0.0
N59 N 0.05098 0.97607 0.4925 0.0
H60 H 0.20612 0.7327 0.788 0.0
H61 H 0.23216 0.69189 0.7546 0.0
H62 H 0.25944 0.70814 0.80852 0.0
H63 H 0.20229 0.68862 0.73828 0.0
C64 C 0.1955 0.70205 0.74036 0.0
C65 C 0.21758 0.72303 0.78631 0.0
C66 C 0.23274 0.72164 0.80038 0.0
C67 C 0.21701 0.71221 0.76989 0.0
C68 C 0.23215 0.70006 0.76732 0.0
C69 C 0.24754 0.69849 0.78123 0.0
C70 C 0.24765 0.70928 0.79774 0.0
N71 N 0.20123 0.71447 0.75626 0.0
H72 H 0.98709 0.53904 0.45597 0.0
H73 H 0.95116 0.48381 0.44324 0.0
H74 H 0.93719 0.52338 0.48519 0.0
H75 H 0.96388 0.48505 0.41705 0.0
C76 C 0.97871 0.49305 0.41977 0.0
C77 C 0.97464 0.52877 0.4585 0.0
C78 C 0.96255 0.53353 0.47183 0.0
C79 C 0.97053 0.5111 0.44792 0.0
C80 C 0.95432 0.4977 0.45102 0.0
C81 C 0.94205 0.50221 0.46431 0.0
C82 C 0.94629 0.52012 0.47462 0.0
N83 N 0.98326 0.50729 0.43454 0.0
H84 H 0.79928 0.80584 0.7644 0.0
H85 H 0.82595 0.76314 0.7957 0.0
H86 H 0.77625 0.79052 0.8133 0.0
H87 H 0.85283 0.77152 0.78151 0.0
C88 C 0.84723 0.77603 0.76849 0.0
C89 C 0.79979 0.79749 0.77617 0.0
C90 C 0.78578 0.79953 0.78844 0.0
C91 C 0.8146 0.78483 0.77886 0.0
C92 C 0.81511 0.77358 0.79388 0.0
C93 C 0.80116 0.77534 0.80636 0.0
C94 C 0.78662 0.78845 0.80351 0.0
N95 N 0.82841 0.78366 0.76594 0.0
H96 H 0.29758 0.30341 0.26391 0.0
H97 H 0.32427 0.26181 0.29672 0.0
H98 H 0.27246 0.28721 0.31172 0.0
H99 H 0.34259 0.25694 0.27503 0.0
C100 C 0.34197 0.26854 0.26594 0.0
C101 C 0.29752 0.29477 0.27548 0.0
C102 C 0.28302 0.29669 0.28733 0.0
C103 C 0.31241 0.28225 0.27859 0.0
C104 C 0.31282 0.27143 0.29391 0.0
C105 C 0.29834 0.27302 0.30587 0.0
C106 C 0.28351 0.28569 0.30244 0.0
N107 N 0.3269 0.28153 0.26622 0.0
H108 H 0.46142 0.99954 0.51958 0.0
H109 H 0.50719 0.97722 0.55421 0.0
H110 H 0.47159 0.01937 0.57561 0.0
H111 H 0.52141 0.97591 0.5274 0.0
C112 C 0.50838 0.96912 0.51861 0.0
C113 C 0.46934 0.99911 0.53287 0.0
C114 C 0.46468 0.01109 0.54728 0.0
C115 C 0.48484 0.98718 0.5352 0.0
C116 C 0.49536 0.98663 0.55232 0.0
C117 C 0.4907 0.99816 0.56706 0.0
C118 C 0.47541 0.01049 0.56436 0.0
N119 N 0.48926 0.97555 0.52018 0.0
H120 H 0.21476 0.30862 0.6983 0.0
H121 H 0.23699 0.36273 0.72868 0.0
H122 H 0.26868 0.34156 0.68637 0.0
H123 H 0.21994 0.35074 0.74953 0.0
C124 C 0.20756 0.34052 0.74315 0.0
C125 C 0.22595 0.32118 0.70097 0.0
C126 C 0.2417 0.32361 0.69027 0.0
C127 C 0.22443 0.33483 0.7152 0.0
C128 C 0.23852 0.35154 0.71838 0.0
C129 C 0.25447 0.3542 0.7079 0.0
C130 C 0.256 0.34003 0.69403 0.0
N131 N 0.20849 0.33124 0.72589 0.0
H132 H 0.77869 0.21009 0.70911 0.0
H133 H 0.83554 0.24367 0.72642 0.0
H134 H 0.81956 0.19034 0.75047 0.0
H135 H 0.82284 0.26713 0.71184 0.0
C136 C 0.81094 0.26064 0.70171 0.0
C137 C 0.79289 0.21201 0.71763 0.0
C138 C 0.79744 0.19818 0.72998 0.0
C139 C 0.80629 0.22861 0.71637 0.0
C140 C 0.82469 0.23127 0.72748 0.0
C141 C 0.82955 0.21745 0.73977 0.0
C142 C 0.81586 0.20098 0.74095 0.0
N143 N 0.80083 0.24186 0.7034 0.0
H144 H 0.51774 0.53973 0.5381 0.0
H145 H 0.55875 0.51757 0.50433 0.0
H146 H 0.5537 0.4947 0.55566 0.0
H147 H 0.53952 0.52984 0.48237 0.0
C148 C 0.53509 0.54294 0.48888 0.0
C149 C 0.52854 0.52955 0.5357 0.0
C150 C 0.53445 0.51707 0.54895 0.0
C151 C 0.5368 0.52953 0.51945 0.0
C152 C 0.5515 0.51706 0.51644 0.0
C153 C 0.55776 0.50455 0.5295 0.0
C154 C 0.54912 0.50457 0.5457 0.0
N155 N 0.531 0.54325 0.50703 0.0
H156 H 0.53246 0.4861 0.9631 0.0
H157 H 0.58574 0.50562 0.99915 0.0
H158 H 0.57113 0.53652 0.95246 0.0
H159 H 0.58235 0.47587 0.00824 0.0
C160 C 0.56658 0.47037 0.00606 0.0
C161 C 0.54585 0.49624 0.96671 0.0
C162 C 0.55011 0.51179 0.95601 0.0
C163 C 0.5587 0.49363 0.98213 0.0
C164 C 0.57599 0.50693 0.98698 0.0
C165 C 0.58053 0.52251 0.97637 0.0
C166 C 0.56747 0.52484 0.96096 0.0
N167 N 0.5535 0.47769 0.99252 0.0
H168 H 0.70881 0.23364 0.28775 0.0
H169 H 0.73359 0.19189 0.25432 0.0
H170 H 0.76382 0.21103 0.30667 0.0
H171 H 0.7036 0.18884 0.23839 0.0
C172 C 0.69688 0.2023 0.24054 0.0
C173 C 0.72055 0.22439 0.28574 0.0
C174 C 0.73639 0.22367 0.29936 0.0
C175 C 0.71928 0.213 0.26955 0.0
C176 C 0.73425 0.20067 0.26681 0.0
C177 C 0.75026 0.19965 0.28029 0.0
C178 C 0.75121 0.21126 0.29647 0.0
N179 N 0.70296 0.21484 0.25631 0.0
H180 H 0.49084 0.04078 0.95888 0.0
H181 H 0.45272 0.987 0.94478 0.0
H182 H 0.43955 0.02678 0.98689 0.0
H183 H 0.46747 0.98576 0.92017 0.0
C184 C 0.48165 0.99497 0.92219 0.0
C185 C 0.47771 0.03109 0.96085 0.0
C186 C 0.46577 0.036 0.97426 0.0
C187 C 0.47305 0.01368 0.94994 0.0
C188 C 0.45638 0.00071 0.95277 0.0
C189 C 0.4442 0.00541 0.96608 0.0
C190 C 0.44895 0.0231 0.97667 0.0
N191 N 0.48571 0.00979 0.93651 0.0
Mg192 Mg 0.23853 0.84898 0.00847 0.0
O193 O 0.26812 0.86805 0.00593 0.0
O194 O 0.29238 0.84831 0.00942 0.0
Mg195 Mg 0.27912 0.8177 0.01452 0.0
C196 C 0.28657 0.86502 0.00655 0.0
C197 C 0.20119 0.86828 0.00155 0.0
O198 O 0.19612 0.85117 0.00752 0.0
O199 O 0.23919 0.83467 0.98026 0.0
O200 O 0.26299 0.8148 0.98582 0.0
O201 O 0.24217 0.85549 0.03816 0.0
O202 O 0.25389 0.83057 0.02459 0.0
C203 C 0.24968 0.82141 0.97509 0.0
C204 C 0.25226 0.84054 0.03928 0.0
O205 O 0.21932 0.87248 0.99874 0.0
Mg206 Mg 0.15162 0.49602 0.26686 0.0
O207 O 0.13158 0.49359 0.23968 0.0
O208 O 0.15241 0.49516 0.21855 0.0
Mg209 Mg 0.18486 0.49933 0.23159 0.0
C210 C 0.13472 0.49352 0.22321 0.0
C211 C 0.12749 0.49276 0.29814 0.0
O212 O 0.14448 0.50319 0.30441 0.0
O213 O 0.15964 0.46472 0.26236 0.0
O214 O 0.1813 0.46873 0.2421 0.0
O215 O 0.15263 0.5286 0.26819 0.0
O216 O 0.17456 0.51205 0.25592 0.0
C217 C 0.17207 0.45803 0.25254 0.0
C218 C 0.1682 0.52864 0.25957 0.0
O219 O 0.125 0.48639 0.28174 0.0
Mg220 Mg 0.79907 0.68386 0.01622 0.0
O221 O 0.76841 0.66514 0.01044 0.0
O222 O 0.74513 0.68598 0.00777 0.0
Mg223 Mg 0.76038 0.71727 0.01092 0.0
C224 C 0.75009 0.6686 0.00786 0.0
C225 C 0.83211 0.65843 0.02303 0.0
O226 O 0.83664 0.6741 0.03415 0.0
O227 O 0.79802 0.69056 0.98671 0.0
O228 O 0.7746 0.71132 0.98492 0.0
O229 O 0.79581 0.68507 0.04542 0.0
O230 O 0.78562 0.70699 0.02723 0.0
C231 C 0.78738 0.7018 0.97782 0.0
C232 C 0.78671 0.70049 0.04297 0.0
O233 O 0.81607 0.65723 0.01222 0.0
Mg234 Mg 0.93704 0.05065 0.24386 0.0
O235 O 0.91545 0.0225 0.2373 0.0
O236 O 0.93366 0.99801 0.23172 0.0
Mg237 Mg 0.96672 0.01019 0.23509 0.0
C238 C 0.9168 0.00449 0.23311 0.0
C239 C 0.91169 0.08445 0.25072 0.0
O240 O 0.92665 0.09293 0.2432 0.0
O241 O 0.94653 0.04093 0.27185 0.0
O242 O 0.9651 0.01699 0.26521 0.0
O243 O 0.93573 0.05574 0.21468 0.0
O244 O 0.95803 0.03912 0.22889 0.0
C245 C 0.95763 0.02776 0.27662 0.0
C246 C 0.95055 0.04527 0.21405 0.0
O247 O 0.91153 0.06643 0.25348 0.0
Mg248 Mg 0.29639 0.18241 0.51622 0.0
O249 O 0.26564 0.16376 0.51164 0.0
O250 O 0.24243 0.18472 0.5095 0.0
Mg251 Mg 0.25768 0.21601 0.51298 0.0
C252 C 0.24733 0.16731 0.5094 0.0
C253 C 0.33088 0.15806 0.51896 0.0
O254 O 0.33748 0.17499 0.52767 0.0
O255 O 0.29361 0.1893 0.48666 0.0
O256 O 0.2711 0.21094 0.4865 0.0
O257 O 0.29539 0.18387 0.54585 0.0
O258 O 0.28352 0.20542 0.52817 0.0
C259 C 0.28318 0.20128 0.47855 0.0
C260 C 0.28604 0.19924 0.54399 0.0
O261 O 0.31299 0.15573 0.51122 0.0
Mg262 Mg 0.43784 0.55323 0.74495 0.0
O263 O 0.41741 0.52424 0.73959 0.0
O264 O 0.43661 0.50047 0.73423 0.0
Mg265 Mg 0.46929 0.51389 0.73726 0.0
C266 C 0.41947 0.50632 0.73573 0.0
C267 C 0.40628 0.58249 0.74551 0.0
O268 O 0.4157 0.58725 0.73176 0.0
O269 O 0.44809 0.54489 0.77321 0.0
O270 O 0.46751 0.52143 0.7673 0.0
O271 O 0.43575 0.55686 0.71544 0.0
O272 O 0.4592 0.542 0.73018 0.0
C273 C 0.45969 0.53227 0.7784 0.0
C274 C 0.4511 0.54707 0.71511 0.0
O275 O 0.41183 0.5685 0.75444 0.0
Mg276 Mg 0.73432 0.34999 0.50695 0.0
O277 O 0.76492 0.36738 0.50494 0.0
O278 O 0.78813 0.34667 0.50948 0.0
Mg279 Mg 0.77298 0.31675 0.51467 0.0
C280 C 0.78316 0.36358 0.50614 0.0
C281 C 0.72017 0.39084 0.50548 0.0
O282 O 0.73493 0.39339 0.51862 0.0
O283 O 0.73542 0.3351 0.47903 0.0
O284 O 0.75789 0.31411 0.48559 0.0
O285 O 0.73743 0.35708 0.53655 0.0
O286 O 0.74813 0.33112 0.52376 0.0
C287 C 0.74541 0.32121 0.4744 0.0
C288 C 0.74682 0.34173 0.53817 0.0
O289 O 0.71709 0.37452 0.49625 0.0
Mg290 Mg 0.65102 0.99495 0.76519 0.0
O291 O 0.63072 0.99174 0.73811 0.0
O292 O 0.65132 0.99095 0.7168 0.0
Mg293 Mg 0.68388 0.99463 0.72959 0.0
C294 C 0.63372 0.99042 0.7216 0.0
C295 C 0.62616 0.99661 0.79599 0.0
O296 O 0.64223 0.00901 0.80077 0.0
O297 O 0.65789 0.96318 0.76214 0.0
O298 O 0.67937 0.96482 0.74154 0.0
O299 O 0.6531 0.02744 0.76504 0.0
O300 O 0.67428 0.00939 0.75337 0.0
C301 C 0.66985 0.95528 0.75259 0.0
C302 C 0.66852 0.02641 0.75634 0.0
O303 O 0.62446 0.98718 0.78074 0.0
Mg304 Mg 0.04544 0.25783 0.89146 0.0
O305 O 0.01537 0.24948 0.87383 0.0
O306 O 0.99284 0.23932 0.89188 0.0
Mg307 Mg 0.00832 0.24043 0.92054 0.0
C308 C 0.99754 0.24307 0.87636 0.0
C309 C 0.07747 0.27188 0.86865 0.0
O310 O 0.08696 0.26324 0.88162 0.0
O311 O 0.03413 0.28592 0.90229 0.0
O312 O 0.01288 0.27386 0.92069 0.0
O313 O 0.05302 0.22708 0.88809 0.0
O314 O 0.03705 0.23826 0.90996 0.0
C315 C 0.02182 0.28829 0.9138 0.0
C316 C 0.04387 0.22373 0.90202 0.0
O317 O 0.05874 0.27277 0.86859 0.0
Mg318 Mg 0.54803 0.75908 0.39587 0.0
O319 O 0.5174 0.75192 0.3788 0.0
O320 O 0.49525 0.74213 0.3973 0.0
Mg321 Mg 0.51127 0.7429 0.42573 0.0
C322 C 0.49958 0.74587 0.38167 0.0
C323 C 0.58018 0.77317 0.37326 0.0
O324 O 0.58964 0.7651 0.38663 0.0
O325 O 0.53813 0.78761 0.40722 0.0
O326 O 0.51699 0.77634 0.42605 0.0
O327 O 0.55433 0.72797 0.39206 0.0
O328 O 0.53942 0.73965 0.41444 0.0
C329 C 0.5263 0.79048 0.41904 0.0
C330 C 0.54547 0.72486 0.4062 0.0
O331 O 0.56136 0.7737 0.37285 0.0
Mg332 Mg 0.99121 0.74988 0.59455 0.0
O333 O 0.02116 0.74386 0.60987 0.0
O334 O 0.04183 0.7372 0.58962 0.0
Mg335 Mg 0.0254 0.73879 0.56161 0.0
C336 C 0.03814 0.73941 0.60586 0.0
C337 C 0.9628 0.76595 0.61975 0.0
O338 O 0.95212 0.76509 0.60397 0.0
O339 O 0.00501 0.7801 0.58829 0.0
O340 O 0.02433 0.77175 0.56738 0.0
O341 O 0.98034 0.71806 0.5927 0.0
O342 O 0.99666 0.73237 0.57233 0.0
C343 C 0.0171 0.78469 0.57689 0.0
C344 C 0.98854 0.71655 0.57797 0.0
O345 O 0.98067 0.76145 0.62061 0.0
Mg346 Mg 0.49226 0.25269 0.09602 0.0
O347 O 0.52218 0.24649 0.11138 0.0
O348 O 0.54256 0.23954 0.09094 0.0
Mg349 Mg 0.52616 0.24128 0.06294 0.0
C350 C 0.53904 0.24183 0.10723 0.0
C351 C 0.46261 0.26582 0.12055 0.0
O352 O 0.45215 0.2623 0.10467 0.0
O353 O 0.5062 0.28287 0.08973 0.0
O354 O 0.52533 0.27427 0.06875 0.0
O355 O 0.4813 0.22089 0.09423 0.0
O356 O 0.49754 0.23515 0.0738 0.0
C357 C 0.51826 0.28732 0.07827 0.0
C358 C 0.48942 0.21936 0.07947 0.0
O359 O 0.48132 0.26423 0.12191 0.0
H360 H 0.20096 0.72737 0.81899 0.0
H361 H 0.2012 0.74681 0.84735 0.0
H362 H 0.26518 0.761 0.8497 0.0
H363 H 0.265 0.74205 0.82108 0.0
H364 H 0.22157 0.74107 0.88014 0.0
H365 H 0.24539 0.81455 0.85885 0.0
H366 H 0.23622 0.794 0.84304 0.0
H367 H 0.2617 0.79657 0.85353 0.0
C368 C 0.21505 0.73485 0.82542 0.0
C369 C 0.23296 0.73323 0.81774 0.0
C370 C 0.21516 0.74588 0.84165 0.0
C371 C 0.23314 0.75561 0.85046 0.0
C372 C 0.25107 0.75394 0.84292 0.0
H373 H 0.26834 0.79221 0.96025 0.0
H374 H 0.2624 0.77729 0.92974 0.0
C375 C 0.25098 0.74289 0.82669 0.0
C376 C 0.23332 0.76664 0.86803 0.0
H377 H 0.2471 0.81136 0.89051 0.0
C378 C 0.22695 0.75648 0.88235 0.0
C379 C 0.24006 0.78682 0.87083 0.0
C380 C 0.24605 0.7987 0.85571 0.0
C381 C 0.22795 0.76577 0.89959 0.0
C382 C 0.23572 0.78566 0.9026 0.0
C383 C 0.24129 0.79606 0.88815 0.0
C384 C 0.23943 0.79541 0.92091 0.0
C385 C 0.22091 0.75416 0.91452 0.0
C386 C 0.22879 0.81093 0.92593 0.0
C387 C 0.23214 0.8196 0.9435 0.0
C388 C 0.24631 0.81296 0.95624 0.0
C389 C 0.25722 0.79769 0.9509 0.0
C390 C 0.25382 0.78905 0.93345 0.0
H391 H 0.21065 0.74095 0.90923 0.0
H392 H 0.23409 0.74931 0.92252 0.0
H393 H 0.21307 0.76322 0.92362 0.0
H394 H 0.21771 0.81611 0.91635 0.0
H395 H 0.22354 0.83137 0.94713 0.0
H396 H 0.01776 0.50956 0.42196 0.0
H397 H 0.04138 0.50563 0.39991 0.0
H398 H 0.99659 0.46673 0.36625 0.0
H399 H 0.97275 0.47063 0.38831 0.0
H400 H 0.05461 0.46936 0.38582 0.0
H401 H 0.01536 0.5099 0.33321 0.0
H402 H 0.0107 0.5122 0.3564 0.0
H403 H 1.00055 0.49068 0.34245 0.0
C404 C 0.01289 0.50018 0.40987 0.0
C405 C 0.99335 0.49048 0.40677 0.0
C406 C 0.02643 0.49792 0.39731 0.0
C407 C 0.02064 0.48607 0.38139 0.0
C408 C 0.00124 0.47615 0.37836 0.0
H409 H 0.08984 0.47288 0.28971 0.0
H410 H 0.06331 0.46861 0.30944 0.0
C411 C 0.9877 0.47833 0.39097 0.0
C412 C 0.03503 0.48419 0.36803 0.0
H413 H 0.04503 0.4973 0.3266 0.0
C414 C 0.05248 0.47535 0.37282 0.0
C415 C 0.03209 0.49187 0.35104 0.0
C416 C 0.01375 0.50183 0.34541 0.0
C417 C 0.06727 0.47425 0.36116 0.0
C418 C 0.06473 0.48264 0.34445 0.0
C419 C 0.04696 0.4909 0.33942 0.0
C420 C 0.08095 0.48431 0.33263 0.0
C421 C 0.08549 0.46413 0.36688 0.0
C422 C 0.09956 0.49468 0.33907 0.0
C423 C 0.11468 0.4971 0.32791 0.0
C424 C 0.11148 0.48936 0.30996 0.0
C425 C 0.09281 0.47896 0.30348 0.0
C426 C 0.07764 0.47652 0.31473 0.0
H427 H 0.08221 0.45324 0.37675 0.0
H428 H 0.091 0.45663 0.35521 0.0
H429 H 0.09765 0.47514 0.37341 0.0
H430 H 0.10229 0.50125 0.35269 0.0
H431 H 0.12881 0.50531 0.33333 0.0
H432 H 0.76959 0.75843 0.8221 0.0
H433 H 0.77074 0.74238 0.85016 0.0
H434 H 0.83537 0.74894 0.85493 0.0
H435 H 0.83441 0.76612 0.82741 0.0
H436 H 0.7855 0.70973 0.86105 0.0
H437 H 0.8258 0.77436 0.90231 0.0
H438 H 0.81554 0.77566 0.8793 0.0
H439 H 0.8389 0.76562 0.88446 0.0
C440 C 0.78409 0.75669 0.82919 0.0
C441 C 0.80191 0.76391 0.8226 0.0
C442 C 0.78471 0.7473 0.84516 0.0
C443 C 0.80314 0.74479 0.85487 0.0
C444 C 0.82097 0.75113 0.84791 0.0
H445 H 0.81995 0.69505 0.96029 0.0
H446 H 0.82544 0.703 0.92965 0.0
C447 C 0.82038 0.76072 0.83202 0.0
C448 C 0.80348 0.73606 0.87247 0.0
H449 H 0.81824 0.74605 0.91734 0.0
C450 C 0.79281 0.71761 0.87333 0.0
C451 C 0.81297 0.74639 0.88854 0.0
C452 C 0.82379 0.76667 0.88871 0.0
C453 C 0.79101 0.70945 0.88981 0.0
C454 C 0.80018 0.71993 0.90579 0.0
C455 C 0.81141 0.73802 0.90497 0.0
C456 C 0.79647 0.71343 0.92362 0.0
C457 C 0.77892 0.68989 0.89018 0.0
C458 C 0.77836 0.7166 0.9302 0.0
C459 C 0.77528 0.71232 0.94765 0.0
C460 C 0.79021 0.70464 0.95884 0.0
C461 C 0.80813 0.70086 0.95198 0.0
C462 C 0.81131 0.70541 0.93453 0.0
H463 H 0.77537 0.68223 0.8766 0.0
H464 H 0.78719 0.68044 0.89914 0.0
H465 H 0.76463 0.69206 0.89566 0.0
H466 H 0.7668 0.72289 0.92197 0.0
H467 H 0.76126 0.71531 0.95246 0.0
H468 H 0.03397 0.04245 0.44262 0.0
H469 H 0.01536 0.04563 0.41321 0.0
H470 H 0.01539 0.98394 0.40006 0.0
H471 H 0.03402 0.98062 0.4294 0.0
H472 H 0.03168 0.0135 0.37485 0.0
H473 H 0.95494 0.02229 0.39258 0.0
H474 H 0.97609 0.03555 0.40643 0.0
H475 H 0.97236 0.00943 0.40617 0.0
C476 C 0.02987 0.02954 0.43351 0.0
C477 C 0.03546 0.01128 0.4383 0.0
C478 C 0.01914 0.03137 0.4168 0.0
C479 C 0.0139 0.01499 0.40458 0.0
C480 C 0.01917 0.9967 0.40941 0.0
H481 H 0.97201 0.9962 0.29157 0.0
H482 H 0.98438 0.99324 0.32289 0.0
C483 C 0.02973 0.99482 0.42617 0.0
C484 C 0.00434 0.01719 0.38626 0.0
H485 H 0.96018 0.02476 0.36223 0.0
C486 C 0.01604 0.01592 0.37205 0.0
C487 C 0.98405 0.02062 0.38278 0.0
C488 C 0.97098 0.022 0.39772 0.0
C489 C 0.00799 0.01803 0.35436 0.0
C490 C 0.98748 0.02089 0.35072 0.0
C491 C 0.97584 0.02244 0.36502 0.0
C492 C 0.97795 0.02202 0.33211 0.0
C493 C 0.02169 0.01759 0.33979 0.0
C494 C 0.96914 0.03875 0.32703 0.0
C495 C 0.96171 0.04038 0.30909 0.0
C496 C 0.96308 0.02532 0.29594 0.0
C497 C 0.97102 0.00821 0.30129 0.0
C498 C 0.9782 0.00652 0.31919 0.0
H499 H 0.03768 0.02124 0.34535 0.0
H500 H 0.02007 0.00266 0.33304 0.0
H501 H 0.01788 0.02799 0.32957 0.0
H502 H 0.96861 0.05081 0.33683 0.0
H503 H 0.95564 0.05372 0.30542 0.0
H504 H 0.25252 0.33056 0.65705 0.0
H505 H 0.25778 0.30665 0.63319 0.0
H506 H 0.23996 0.25972 0.66533 0.0
H507 H 0.23517 0.28356 0.68961 0.0
H508 H 0.28526 0.2746 0.63939 0.0
H509 H 0.20581 0.24924 0.61307 0.0
H510 H 0.21306 0.27299 0.62479 0.0
H511 H 0.21281 0.25147 0.637 0.0
C512 C 0.24979 0.31516 0.65913 0.0
C513 C 0.24355 0.30899 0.67532 0.0
C514 C 0.25269 0.30154 0.64543 0.0
C515 C 0.24918 0.28149 0.64753 0.0
C516 C 0.24255 0.27518 0.66345 0.0
H517 H 0.28966 0.18984 0.57893 0.0
H518 H 0.27978 0.2082 0.60485 0.0
C519 C 0.23975 0.28882 0.67725 0.0
C520 C 0.25339 0.2673 0.63328 0.0
H521 H 0.23095 0.2353 0.59877 0.0
C522 C 0.27343 0.26585 0.6306 0.0
C523 C 0.23785 0.25606 0.62185 0.0
C524 C 0.21612 0.25745 0.62415 0.0
C525 C 0.27838 0.25357 0.61657 0.0
C526 C 0.26284 0.24246 0.60501 0.0
C527 C 0.24278 0.24376 0.60778 0.0
C528 C 0.26726 0.23037 0.58932 0.0
C529 C 0.30013 0.25298 0.61385 0.0
C530 C 0.2631 0.23659 0.57204 0.0
C531 C 0.26881 0.22624 0.55724 0.0
C532 C 0.27861 0.20934 0.55946 0.0
C533 C 0.28215 0.20279 0.57677 0.0
C534 C 0.27654 0.21325 0.59159 0.0
H535 H 0.31013 0.26446 0.62244 0.0
H536 H 0.30477 0.23851 0.61716 0.0
H537 H 0.30226 0.25486 0.59959 0.0
H538 H 0.25599 0.24982 0.57008 0.0
H539 H 0.26597 0.23178 0.54416 0.0
H540 H 0.49546 0.52087 0.55439 0.0
H541 H 0.48163 0.5244 0.58293 0.0
H542 H 0.53912 0.51688 0.61129 0.0
H543 H 0.55339 0.51439 0.58286 0.0
H544 H 0.47776 0.50031 0.60968 0.0
H545 H 0.52732 0.56753 0.63549 0.0
H546 H 0.52554 0.55778 0.6125 0.0
H547 H 0.54078 0.54733 0.62979 0.0
C548 C 0.50526 0.52019 0.5667 0.0
C549 C 0.52564 0.51762 0.56629 0.0
C550 C 0.49726 0.52204 0.58301 0.0
C551 C 0.50942 0.52131 0.59928 0.0
C552 C 0.52956 0.51797 0.59893 0.0
H553 H 0.48601 0.53147 0.71072 0.0
H554 H 0.49969 0.52399 0.68258 0.0
C555 C 0.53763 0.51627 0.58261 0.0
C556 C 0.50099 0.52423 0.61657 0.0
H557 H 0.50668 0.55311 0.65575 0.0
C558 C 0.48406 0.51188 0.61973 0.0
C559 C 0.50916 0.53941 0.62965 0.0
C560 C 0.52657 0.5539 0.62666 0.0
C561 C 0.47524 0.51418 0.63569 0.0
C562 C 0.48351 0.52924 0.64877 0.0
C563 C 0.50047 0.54151 0.64569 0.0
C564 C 0.47462 0.53275 0.66566 0.0
C565 C 0.45725 0.5004 0.63859 0.0
C566 C 0.456 0.54019 0.66541 0.0
C567 C 0.44818 0.54459 0.68148 0.0
C568 C 0.45883 0.54155 0.69804 0.0
C569 C 0.47736 0.53385 0.69819 0.0
C570 C 0.48523 0.5296 0.68214 0.0
H571 H 0.45496 0.48741 0.62881 0.0
H572 H 0.45891 0.49539 0.65239 0.0
H573 H 0.44362 0.50818 0.63705 0.0
H574 H 0.44771 0.54294 0.65281 0.0
H575 H 0.4339 0.55055 0.68091 0.0
H576 H 0.82755 0.29633 0.69429 0.0
H577 H 0.8182 0.31484 0.66831 0.0
H578 H 0.77191 0.2685 0.64827 0.0
H579 H 0.78099 0.25011 0.67409 0.0
H580 H 0.81819 0.30312 0.63192 0.0
H581 H 0.74224 0.31753 0.64677 0.0
H582 H 0.76069 0.30992 0.66342 0.0
H583 H 0.74615 0.29221 0.64732 0.0
C584 C 0.81529 0.29021 0.68438 0.0
C585 C 0.80496 0.27186 0.68624 0.0
C586 C 0.80999 0.30076 0.66959 0.0
C587 C 0.79417 0.29316 0.65655 0.0
C588 C 0.78388 0.27481 0.65839 0.0
H589 H 0.76478 0.30905 0.54603 0.0
H590 H 0.77819 0.29999 0.57546 0.0
C591 C 0.78918 0.26426 0.67311 0.0
C592 C 0.78888 0.30387 0.64055 0.0
H593 H 0.74941 0.32125 0.61655 0.0
C594 C 0.80325 0.30734 0.62865 0.0
C595 C 0.76947 0.30965 0.63648 0.0
C596 C 0.7538 0.30733 0.64926 0.0
C597 C 0.79839 0.31553 0.61231 0.0
C598 C 0.77859 0.32008 0.60771 0.0
C599 C 0.76453 0.31755 0.62003 0.0
C600 C 0.77178 0.32637 0.58979 0.0
C601 C 0.81444 0.31906 0.60006 0.0
C602 C 0.76344 0.34409 0.58811 0.0
C603 C 0.75568 0.3493 0.57127 0.0
C604 C 0.75603 0.3368 0.55584 0.0
C605 C 0.76454 0.31914 0.55758 0.0
C606 C 0.77229 0.31396 0.5744 0.0
H607 H 0.82968 0.32057 0.60762 0.0
H608 H 0.81338 0.30641 0.59002 0.0
H609 H 0.81257 0.33241 0.59278 0.0
H610 H 0.76276 0.35379 0.59986 0.0
H611 H 0.74918 0.36298 0.57038 0.0
H612 H 0.50427 0.02869 0.59203 0.0
H613 H 0.52523 0.02766 0.62059 0.0
H614 H 0.5248 0.96532 0.6111 0.0
H615 H 0.50306 0.96606 0.58302 0.0
H616 H 0.52152 0.97592 0.64627 0.0
H617 H 0.58449 0.02147 0.62231 0.0
H618 H 0.56171 0.03285 0.62207 0.0
H619 H 0.56254 0.01131 0.60756 0.0
C620 C 0.50832 0.0147 0.59616 0.0
C621 C 0.50219 0.99749 0.58507 0.0
C622 C 0.5205 0.01418 0.61241 0.0
C623 C 0.52696 0.99648 0.61779 0.0
C624 C 0.52015 0.97918 0.60715 0.0
H625 H 0.63325 0.97962 0.68606 0.0
H626 H 0.60608 0.98052 0.66204 0.0
C627 C 0.50788 0.97966 0.59099 0.0
C628 C 0.54153 0.99598 0.63403 0.0
H629 H 0.58931 0.01255 0.65211 0.0
C630 C 0.53633 0.98398 0.64761 0.0
C631 C 0.56094 0.00629 0.63562 0.0
C632 C 0.56788 0.01857 0.62106 0.0
C633 C 0.55006 0.98191 0.66268 0.0
C634 C 0.56938 0.99241 0.66435 0.0
C635 C 0.57446 0.00457 0.65086 0.0
C636 C 0.58504 0.99036 0.67942 0.0
C637 C 0.54401 0.96799 0.67634 0.0
C638 C 0.5822 0.99532 0.6973 0.0
C639 C 0.59773 0.99463 0.71117 0.0
C640 C 0.61648 0.98926 0.70737 0.0
C641 C 0.61907 0.98393 0.68949 0.0
C642 C 0.60354 0.98445 0.67571 0.0
H643 H 0.5308 0.95755 0.6709 0.0
H644 H 0.55655 0.95957 0.68092 0.0
H645 H 0.53995 0.97646 0.68817 0.0
H646 H 0.5682 0.00028 0.70047 0.0
H647 H 0.59529 0.99898 0.72477 0.0
H648 H 0.84563 0.24986 0.76104 0.0
H649 H 0.87646 0.25366 0.78195 0.0
H650 H 0.88797 0.19518 0.76558 0.0
H651 H 0.85676 0.19113 0.74512 0.0
H652 H 0.89262 0.20031 0.80039 0.0
H653 H 0.93404 0.26368 0.77435 0.0
H654 H 0.90982 0.26919 0.77947 0.0
H655 H 0.91174 0.25059 0.76204 0.0
C656 C 0.85492 0.23795 0.76176 0.0
C657 C 0.84888 0.22022 0.7515 0.0
C658 C 0.8726 0.24016 0.77361 0.0
C659 C 0.88478 0.22484 0.7751 0.0
C660 C 0.87888 0.20723 0.76461 0.0
H661 H 0.00201 0.2414 0.84048 0.0
H662 H 0.97548 0.23577 0.81515 0.0
C663 C 0.86106 0.20491 0.75297 0.0
C664 C 0.90283 0.22665 0.78855 0.0
H665 H 0.94544 0.25641 0.80445 0.0
C666 C 0.90429 0.21247 0.80112 0.0
C667 C 0.91828 0.24229 0.78935 0.0
C668 C 0.91852 0.25716 0.77544 0.0
C669 C 0.92034 0.21385 0.81482 0.0
C670 C 0.93502 0.23023 0.81638 0.0
C671 C 0.93401 0.24402 0.80342 0.0
C672 C 0.95115 0.23358 0.83167 0.0
C673 C 0.92143 0.19764 0.82739 0.0
C674 C 0.94628 0.23455 0.84934 0.0
C675 C 0.96135 0.23752 0.8638 0.0
C676 C 0.98166 0.23998 0.8609 0.0
C677 C 0.98652 0.23951 0.84317 0.0
C678 C 0.97139 0.2363 0.82869 0.0
H679 H 0.91347 0.18365 0.82095 0.0
H680 H 0.9372 0.19532 0.83184 0.0
H681 H 0.91404 0.2015 0.83939 0.0
H682 H 0.93076 0.23311 0.85198 0.0
H683 H 0.95705 0.23808 0.87726 0.0
H684 H 0.54315 0.9552 0.51225 0.0
H685 H 0.54782 0.92755 0.49167 0.0
H686 H 0.48418 0.91928 0.47472 0.0
H687 H 0.47947 0.94709 0.49503 0.0
H688 H 0.53164 0.89018 0.49371 0.0
H689 H 0.50732 0.91534 0.42697 0.0
H690 H 0.51327 0.93184 0.44686 0.0
H691 H 0.48922 0.91752 0.44257 0.0
C692 C 0.53021 0.94764 0.50392 0.0
C693 C 0.51099 0.95327 0.50522 0.0
C694 C 0.5329 0.93189 0.49217 0.0
C695 C 0.51639 0.92153 0.48147 0.0
C696 C 0.49719 0.92735 0.48253 0.0
H697 H 0.50034 0.80185 0.442 0.0
H698 H 0.4987 0.83449 0.45566 0.0
C699 C 0.4945 0.94315 0.49425 0.0
C700 C 0.51903 0.90356 0.47053 0.0
H701 H 0.50986 0.88097 0.42826 0.0
C702 C 0.52709 0.88828 0.47936 0.0
C703 C 0.51325 0.90114 0.45178 0.0
C704 C 0.50546 0.9174 0.44144 0.0
C705 C 0.52886 0.87041 0.4701 0.0
C706 C 0.52217 0.86765 0.45155 0.0
C707 C 0.51479 0.88312 0.44252 0.0
C708 C 0.52194 0.84842 0.44167 0.0
C709 C 0.53771 0.85451 0.48026 0.0
C710 C 0.53509 0.84561 0.42878 0.0
C711 C 0.53612 0.82686 0.42086 0.0
C712 C 0.52394 0.8107 0.42573 0.0
C713 C 0.51012 0.81387 0.43805 0.0
C714 C 0.50914 0.83252 0.4459 0.0
H715 H 0.54643 0.86039 0.4932 0.0
H716 H 0.52541 0.84369 0.48323 0.0
H717 H 0.54766 0.84674 0.47215 0.0
H718 H 0.54503 0.85778 0.42531 0.0
H719 H 0.54686 0.82497 0.41139 0.0
H720 H 0.17378 0.31473 0.73292 0.0
H721 H 0.14762 0.30423 0.75148 0.0
H722 H 0.17827 0.34207 0.79598 0.0
H723 H 0.20425 0.35286 0.7774 0.0
H724 H 0.15225 0.28543 0.78199 0.0
H725 H 0.12112 0.35513 0.79628 0.0
H726 H 0.13702 0.35184 0.77877 0.0
H727 H 0.14784 0.35728 0.80173 0.0
C728 C 0.17482 0.32097 0.74659 0.0
C729 C 0.19105 0.33463 0.75376 0.0
C730 C 0.15985 0.31497 0.75718 0.0
C731 C 0.1608 0.3226 0.77503 0.0
C732 C 0.17693 0.33636 0.78212 0.0
H733 H 0.11736 0.27219 0.86572 0.0
H734 H 0.13561 0.28418 0.84167 0.0
C735 C 0.19185 0.3424 0.77155 0.0
C736 C 0.14583 0.31515 0.7867 0.0
H737 H 0.11408 0.32973 0.81601 0.0
C738 C 0.1437 0.29508 0.78923 0.0
C739 C 0.13442 0.32769 0.79595 0.0
C740 C 0.13504 0.34915 0.79291 0.0
C741 C 0.13124 0.28737 0.80141 0.0
C742 C 0.12091 0.30012 0.81156 0.0
C743 C 0.12223 0.32002 0.80839 0.0
C744 C 0.10961 0.2932 0.8262 0.0
C745 C 0.12938 0.26564 0.8034 0.0
C746 C 0.08901 0.29488 0.82577 0.0
C747 C 0.07848 0.28812 0.83962 0.0
C748 C 0.08845 0.2797 0.85417 0.0
C749 C 0.10917 0.27845 0.85467 0.0
C750 C 0.11963 0.28519 0.84087 0.0
H751 H 0.13304 0.25745 0.79122 0.0
H752 H 0.14007 0.26251 0.81489 0.0
H753 H 0.114 0.26015 0.80601 0.0
H754 H 0.08104 0.30118 0.81462 0.0
H755 H 0.06254 0.28935 0.83886 0.0
H756 H 0.52388 0.5784 0.50012 0.0
H757 H 0.52395 0.60792 0.48372 0.0
H758 H 0.54415 0.57711 0.43862 0.0
H759 H 0.54386 0.54735 0.45492 0.0
H760 H 0.55758 0.62707 0.47141 0.0
H761 H 0.49764 0.60426 0.4151 0.0
H762 H 0.50045 0.59117 0.43515 0.0
H763 H 0.51681 0.58808 0.41814 0.0
C764 C 0.52812 0.57781 0.48664 0.0
C765 C 0.53387 0.56057 0.47875 0.0
C766 C 0.52815 0.5947 0.47729 0.0
C767 C 0.53384 0.59464 0.45989 0.0
C768 C 0.53933 0.57737 0.4519 0.0
H769 H 0.55413 0.69024 0.39057 0.0
H770 H 0.55117 0.65804 0.40283 0.0
C771 C 0.53927 0.56044 0.46124 0.0
C772 C 0.53526 0.61303 0.4507 0.0
H773 H 0.51643 0.63505 0.41398 0.0
C774 C 0.54855 0.62882 0.45887 0.0
C775 C 0.52359 0.61519 0.43427 0.0
C776 C 0.50868 0.59885 0.42518 0.0
C777 C 0.55047 0.64677 0.45109 0.0
C778 C 0.53854 0.64907 0.43485 0.0
C779 C 0.52551 0.6332 0.42646 0.0
C780 C 0.53904 0.66811 0.42676 0.0
C781 C 0.56536 0.6631 0.46026 0.0
C782 C 0.53275 0.68423 0.43598 0.0
C783 C 0.53444 0.70257 0.42906 0.0
C784 C 0.54234 0.7051 0.41272 0.0
C785 C 0.54804 0.68877 0.40321 0.0
C786 C 0.54632 0.67038 0.41016 0.0
H787 H 0.57677 0.65756 0.46991 0.0
H788 H 0.57318 0.67124 0.45029 0.0
H789 H 0.5573 0.6735 0.46781 0.0
H790 H 0.52683 0.68269 0.4487 0.0
H791 H 0.52998 0.71481 0.43678 0.0
H792 H 0.8853 0.76614 0.77034 0.0
H793 H 0.90752 0.76658 0.74659 0.0
H794 H 0.86082 0.78587 0.71014 0.0
H795 H 0.83876 0.78578 0.7338 0.0
H796 H 0.90246 0.74598 0.71376 0.0
H797 H 0.90819 0.82539 0.70475 0.0
H798 H 0.89833 0.81501 0.72386 0.0
H799 H 0.88274 0.81431 0.70276 0.0
C800 C 0.87985 0.77056 0.75726 0.0
C801 C 0.86038 0.77606 0.75397 0.0
C802 C 0.89254 0.77081 0.74373 0.0
C803 C 0.88598 0.77664 0.7267 0.0
C804 C 0.8664 0.78183 0.72332 0.0
H805 H 0.92546 0.77709 0.62223 0.0
H806 H 0.90849 0.78049 0.64914 0.0
C807 C 0.85375 0.78164 0.73684 0.0
C808 C 0.89928 0.7766 0.71223 0.0
H809 H 0.91948 0.80517 0.68178 0.0
C810 C 0.9064 0.75897 0.70691 0.0
C811 C 0.90444 0.79358 0.70333 0.0
C812 C 0.8982 0.81319 0.70907 0.0
C813 C 0.91787 0.75768 0.69247 0.0
C814 C 0.92257 0.77455 0.68329 0.0
C815 C 0.91582 0.79227 0.68884 0.0
C816 C 0.9336 0.77381 0.66731 0.0
C817 C 0.92427 0.73814 0.68673 0.0
C818 C 0.95355 0.76943 0.66868 0.0
C819 C 0.96335 0.76752 0.6533 0.0
C820 C 0.95333 0.76994 0.63629 0.0
C821 C 0.93359 0.77503 0.63509 0.0
C822 C 0.92386 0.777 0.65046 0.0
H823 H 0.91618 0.72593 0.69292 0.0
H824 H 0.9216 0.73539 0.67192 0.0
H825 H 0.94056 0.73815 0.69088 0.0
H826 H 0.96144 0.76722 0.68162 0.0
H827 H 0.97858 0.76366 0.65471 0.0
H828 H 0.02596 0.94968 0.50437 0.0
H829 H 0.01557 0.92074 0.51978 0.0
H830 H 0.07603 0.92107 0.54541 0.0
H831 H 0.0864 0.95023 0.53032 0.0
H832 H 0.0289 0.88551 0.51607 0.0
H833 H 0.04414 0.91317 0.58739 0.0
H834 H 0.04323 0.92923 0.56929 0.0
H835 H 0.06557 0.91782 0.57552 0.0
C836 C 0.03699 0.94372 0.51345 0.0
C837 C 0.05703 0.95217 0.51615 0.0
C838 C 0.03102 0.9272 0.52227 0.0
C839 C 0.04493 0.91891 0.53399 0.0
C840 C 0.0649 0.92749 0.53682 0.0
H841 H 0.0463 0.79985 0.55779 0.0
H842 H 0.05191 0.83309 0.54875 0.0
C843 C 0.07085 0.94403 0.52807 0.0
C844 C 0.03903 0.90034 0.54201 0.0
H845 H 0.04041 0.8782 0.58152 0.0
C846 C 0.03119 0.88401 0.5304 0.0
C847 C 0.04176 0.89839 0.56073 0.0
C848 C 0.04894 0.91565 0.57397 0.0
C849 C 0.02681 0.86563 0.53692 0.0
C850 C 0.03072 0.86343 0.55551 0.0
C851 C 0.0377 0.87989 0.56724 0.0
C852 C 0.02847 0.84391 0.56273 0.0
C853 C 0.0182 0.84866 0.52379 0.0
C854 C 0.01402 0.83921 0.57431 0.0
C855 C 0.0108 0.82012 0.57963 0.0
C856 C 0.02202 0.80549 0.57345 0.0
C857 C 0.03718 0.81064 0.56262 0.0
C858 C 0.0404 0.82964 0.55738 0.0
H859 H 0.01102 0.85368 0.51112 0.0
H860 H 0.03046 0.84002 0.52041 0.0
H861 H 0.00694 0.83888 0.52965 0.0
H862 H 0.00477 0.85011 0.57869 0.0
H863 H 0.99904 0.81667 0.588 0.0
H864 H 0.17455 0.7342 0.74051 0.0
H865 H 0.14702 0.74089 0.71857 0.0
H866 H 0.15165 0.68676 0.68824 0.0
H867 H 0.17918 0.67987 0.71028 0.0
H868 H 0.1474 0.74452 0.68156 0.0
H869 H 0.09167 0.68397 0.69518 0.0
H870 H 0.11401 0.692 0.71038 0.0
H871 H 0.11545 0.6765 0.69058 0.0
C872 C 0.16968 0.72366 0.72922 0.0
C873 C 0.17894 0.70642 0.72712 0.0
C874 C 0.15395 0.72753 0.71669 0.0
C875 C 0.14711 0.71419 0.70194 0.0
C876 C 0.15645 0.69706 0.69972 0.0
H877 H 0.07671 0.73204 0.60264 0.0
H878 H 0.10277 0.72675 0.62646 0.0
C879 C 0.17223 0.6932 0.71223 0.0
C880 C 0.13055 0.71847 0.68862 0.0
H881 H 0.08327 0.70134 0.66953 0.0
C882 C 0.13334 0.73513 0.67897 0.0
C883 C 0.11214 0.70635 0.68546 0.0
C884 C 0.10798 0.68879 0.69605 0.0
C885 C 0.11837 0.73973 0.66591 0.0
C886 C 0.10025 0.72721 0.66229 0.0
C887 C 0.09725 0.71082 0.67225 0.0
C888 C 0.08439 0.73065 0.64794 0.0
C889 C 0.122 0.75802 0.65617 0.0
C890 C 0.06527 0.73425 0.6521 0.0
C891 C 0.05025 0.73727 0.63848 0.0
C892 C 0.05405 0.73654 0.62043 0.0
C893 C 0.07324 0.73278 0.61636 0.0
C894 C 0.08822 0.72985 0.62998 0.0
H895 H 0.13415 0.76848 0.66359 0.0
H896 H 0.12656 0.75405 0.64281 0.0
H897 H 0.10816 0.76543 0.65411 0.0
H898 H 0.06201 0.73482 0.66589 0.0
H899 H 0.03566 0.74005 0.64211 0.0
H900 H 0.93545 0.55762 0.48225 0.0
H901 H 0.94219 0.58846 0.50066 0.0
H902 H 0.0057 0.5837 0.50418 0.0
H903 H 0.99905 0.55235 0.48633 0.0
H904 H 0.99348 0.59461 0.53681 0.0
H905 H 0.96405 0.64063 0.48427 0.0
H906 H 0.94624 0.62066 0.48816 0.0
H907 H 0.9691 0.6158 0.47933 0.0
C908 C 0.95086 0.56302 0.48705 0.0
C909 C 0.96672 0.5525 0.48277 0.0
C910 C 0.95469 0.58078 0.49739 0.0
C911 C 0.97445 0.58853 0.50352 0.0
C912 C 0.99034 0.57804 0.49945 0.0
H913 H 0.0044 0.70902 0.54666 0.0
H914 H 0.00307 0.67769 0.52945 0.0
C915 C 0.98652 0.56021 0.48913 0.0
C916 C 0.97846 0.60746 0.51441 0.0
H917 H 0.97004 0.6554 0.51413 0.0
C918 C 0.9885 0.60795 0.53183 0.0
C919 C 0.97223 0.6249 0.50777 0.0
C920 C 0.96249 0.62557 0.4888 0.0
C921 C 0.99197 0.62533 0.54299 0.0
C922 C 0.98486 0.64255 0.53665 0.0
C923 C 0.9753 0.64214 0.51906 0.0
C924 C 0.98704 0.66119 0.54797 0.0
C925 C 0.0034 0.6251 0.56137 0.0
C926 C 0.97852 0.66235 0.56417 0.0
C927 C 0.97945 0.68025 0.57417 0.0
C928 C 0.98872 0.69737 0.56805 0.0
C929 C 0.99735 0.69612 0.55189 0.0
C930 C 0.99652 0.67822 0.54197 0.0
H931 H 0.01279 0.61277 0.5621 0.0
H932 H 0.01322 0.63899 0.56511 0.0
H933 H 0.9926 0.62328 0.57141 0.0
H934 H 0.97069 0.6495 0.56885 0.0
H935 H 0.97252 0.68074 0.58649 0.0
H936 H 0.79332 0.8536 0.20506 0.0
H937 H 0.81832 0.88213 0.20918 0.0
H938 H 0.77252 0.91907 0.21989 0.0
H939 H 0.74722 0.89049 0.21559 0.0
H940 H 0.81839 0.91616 0.18959 0.0
H941 H 0.81686 0.93311 0.26274 0.0
H942 H 0.80659 0.90978 0.25152 0.0
H943 H 0.79317 0.93078 0.24884 0.0
C944 C 0.78849 0.8678 0.20817 0.0
C945 C 0.76825 0.86979 0.20991 0.0
C946 C 0.80283 0.88407 0.2106 0.0
C947 C 0.7973 0.90266 0.21497 0.0
C948 C 0.77714 0.90478 0.2168 0.0
H949 H 0.87805 0.01179 0.23648 0.0
H950 H 0.84772 0.9885 0.23126 0.0
C951 C 0.76272 0.88846 0.21435 0.0
C952 C 0.81276 0.91974 0.21716 0.0
H953 H 0.83926 0.95344 0.24831 0.0
C954 C 0.82287 0.92441 0.20239 0.0
C955 C 0.81846 0.93053 0.23386 0.0
C956 C 0.80835 0.9258 0.25023 0.0
C957 C 0.83881 0.93935 0.20395 0.0
C958 C 0.84503 0.94964 0.2208 0.0
C959 C 0.83447 0.94547 0.23543 0.0
C960 C 0.86325 0.96387 0.22375 0.0
C961 C 0.84894 0.94391 0.18755 0.0
C962 C 0.88202 0.95766 0.22147 0.0
C963 C 0.89934 0.97086 0.22444 0.0
C964 C 0.89828 0.99059 0.22985 0.0
C965 C 0.87942 0.99675 0.23225 0.0
C966 C 0.86208 0.98347 0.2293 0.0
H967 H 0.83898 0.93899 0.17499 0.0
H968 H 0.85356 0.95983 0.18748 0.0
H969 H 0.86257 0.93616 0.18758 0.0
H970 H 0.8833 0.94251 0.21754 0.0
H971 H 0.91358 0.96554 0.22254 0.0
H972 H 0.76793 0.17648 0.30433 0.0
H973 H 0.7949 0.15607 0.30015 0.0
H974 H 0.7954 0.17265 0.24583 0.0
H975 H 0.76859 0.19332 0.24995 0.0
H976 H 0.79632 0.13185 0.24971 0.0
H977 H 0.85397 0.17713 0.29746 0.0
H978 H 0.83104 0.16951 0.30638 0.0
H979 H 0.8308 0.18593 0.28873 0.0
C980 C 0.77388 0.17593 0.29153 0.0
C981 C 0.76617 0.18666 0.27751 0.0
C982 C 0.78928 0.16423 0.28917 0.0
C983 C 0.79733 0.16306 0.27277 0.0
C984 C 0.78941 0.17339 0.25861 0.0
H985 H 0.90858 0.12323 0.2473 0.0
H986 H 0.88048 0.14146 0.25308 0.0
C987 C 0.77402 0.18512 0.26097 0.0
C988 C 0.81406 0.15113 0.27036 0.0
H989 H 0.86314 0.1474 0.28516 0.0
C990 C 0.81093 0.1352 0.25747 0.0
C991 C 0.83314 0.15567 0.2804 0.0
C992 C 0.83759 0.17308 0.29393 0.0
C993 C 0.82636 0.12363 0.25439 0.0
C994 C 0.84535 0.128 0.26462 0.0
C995 C 0.8485 0.14397 0.27746 0.0
C996 C 0.86245 0.11676 0.26159 0.0
C997 C 0.82238 0.10712 0.23992 0.0
C998 C 0.86178 0.09686 0.26475 0.0
C999 C 0.87788 0.08635 0.26148 0.0
C1000 C 0.89494 0.09559 0.25502 0.0
C1001 C 0.89567 0.11562 0.25221 0.0
C1002 C 0.87962 0.1261 0.25552 0.0
H1003 H 0.80853 0.10831 0.23077 0.0
H1004 H 0.83518 0.1068 0.23185 0.0
H1005 H 0.8205 0.09302 0.24623 0.0
H1006 H 0.84881 0.08945 0.26973 0.0
H1007 H 0.87686 0.07097 0.26384 0.0
H1008 H 0.44258 0.966 0.96904 0.0
H1009 H 0.41411 0.94387 0.97591 0.0
H1010 H 0.37803 0.99193 0.9776 0.0
H1011 H 0.40635 0.01413 0.97056 0.0
H1012 H 0.39297 0.94967 0.00808 0.0
H1013 H 0.3435 0.94736 0.94345 0.0
H1014 H 0.37023 0.95426 0.94517 0.0
H1015 H 0.35415 0.97103 0.95344 0.0
C1016 C 0.42849 0.97179 0.97061 0.0
C1017 C 0.42668 0.99178 0.96925 0.0
C1018 C 0.4123 0.95917 0.97462 0.0
C1019 C 0.39398 0.96628 0.97713 0.0
C1020 C 0.39201 0.98616 0.97554 0.0
H1021 H 0.28117 0.90313 1.00005 0.0
H1022 H 0.30671 0.92907 0.99408 0.0
C1023 C 0.40822 0.99881 0.97164 0.0
C1024 C 0.37722 0.953 0.98216 0.0
H1025 H 0.33084 0.92998 0.96656 0.0
C1026 C 0.37935 0.94537 0.99904 0.0
C1027 C 0.35942 0.94768 0.9704 0.0
C1028 C 0.35659 0.95536 0.95204 0.0
C1029 C 0.36419 0.93237 0.00445 0.0
C1030 C 0.34665 0.92647 0.99245 0.0
C1031 C 0.3443 0.9345 0.97572 0.0
C1032 C 0.33119 0.91107 0.99656 0.0
C1033 C 0.36706 0.92518 0.02302 0.0
C1034 C 0.33645 0.89234 0.99974 0.0
C1035 C 0.322 0.87757 0.00321 0.0
C1036 C 0.30184 0.88111 0.0034 0.0
C1037 C 0.29655 0.8999 1.00009 0.0
C1038 C 0.3111 0.91473 0.99665 0.0
H1039 H 0.37768 0.93554 0.03227 0.0
H1040 H 0.3526 0.92303 0.02877 0.0
H1041 H 0.37341 0.91097 0.02229 0.0
H1042 H 0.35175 0.88904 0.9993 0.0
H1043 H 0.32667 0.86328 0.00554 0.0
H1044 H 0.26089 0.30275 0.25577 0.0
H1045 H 0.23804 0.3278 0.25041 0.0
H1046 H 0.2481 0.34741 0.30651 0.0
H1047 H 0.27118 0.32264 0.31196 0.0
H1048 H 0.20178 0.33673 0.26852 0.0
H1049 H 0.26574 0.39552 0.27734 0.0
H1050 H 0.26908 0.37012 0.27279 0.0
H1051 H 0.26454 0.37884 0.29478 0.0
C1052 C 0.25819 0.31237 0.26697 0.0
C1053 C 0.26795 0.3108 0.28426 0.0
C1054 C 0.24502 0.32654 0.26391 0.0
C1055 C 0.2415 0.33947 0.27805 0.0
C1056 C 0.2507 0.33758 0.29542 0.0
H1057 H 0.16276 0.43274 0.27811 0.0
H1058 H 0.17735 0.40227 0.284 0.0
C1059 C 0.26379 0.32336 0.29851 0.0
C1060 C 0.22933 0.35579 0.2744 0.0
H1061 H 0.23333 0.40524 0.27194 0.0
C1062 C 0.2086 0.35174 0.26933 0.0
C1063 C 0.23837 0.37528 0.27535 0.0
C1064 C 0.26068 0.38032 0.28024 0.0
C1065 C 0.19664 0.3668 0.2652 0.0
C1066 C 0.20572 0.38627 0.26617 0.0
C1067 C 0.22643 0.39026 0.27128 0.0
C1068 C 0.19435 0.4028 0.26124 0.0
C1069 C 0.1745 0.36184 0.25944 0.0
C1070 C 0.19878 0.41292 0.24632 0.0
C1071 C 0.19052 0.43026 0.24292 0.0
C1072 C 0.17776 0.43797 0.25448 0.0
C1073 C 0.17248 0.42722 0.26891 0.0
C1074 C 0.18078 0.40979 0.27229 0.0
H1075 H 0.17028 0.34583 0.25694 0.0
H1076 H 0.16595 0.36738 0.2701 0.0
H1077 H 0.16998 0.36906 0.24705 0.0
H1078 H 0.20922 0.40775 0.23764 0.0
H1079 H 0.19483 0.43802 0.23161 0.0
H1080 H 0.11559 0.0131 0.48855 0.0
H1081 H 0.1458 0.03631 0.49612 0.0
H1082 H 0.11133 0.08396 0.48321 0.0
H1083 H 0.08105 0.06093 0.47588 0.0
H1084 H 0.16286 0.06341 0.4726 0.0
H1085 H 0.14128 0.10076 0.53389 0.0
H1086 H 0.12936 0.07712 0.52462 0.0
H1087 H 0.12257 0.09894 0.51474 0.0
C1088 C 0.11441 0.02855 0.48756 0.0
C1089 C 0.09594 0.03521 0.48168 0.0
C1090 C 0.13168 0.04176 0.49178 0.0
C1091 C 0.13072 0.06184 0.4904 0.0
C1092 C 0.11231 0.06853 0.4846 0.0
H1093 H 0.20713 0.1693 0.5015 0.0
H1094 H 0.18023 0.14253 0.49731 0.0
C1095 C 0.09508 0.05535 0.48028 0.0
C1096 C 0.14905 0.07583 0.49444 0.0
H1097 H 0.16925 0.1161 0.52146 0.0
C1098 C 0.16442 0.07482 0.4834 0.0
C1099 C 0.15098 0.09064 0.50855 0.0
C1100 C 0.13527 0.0919 0.52126 0.0
C1101 C 0.18134 0.08879 0.48561 0.0
C1102 C 0.18303 0.1039 0.49946 0.0
C1103 C 0.16789 0.10454 0.51082 0.0
C1104 C 0.19977 0.11987 0.50182 0.0
C1105 C 0.19679 0.08773 0.47263 0.0
C1106 C 0.21975 0.11605 0.50584 0.0
C1107 C 0.2353 0.13138 0.50817 0.0
C1108 C 0.23108 0.15084 0.50669 0.0
C1109 C 0.211 0.15454 0.50276 0.0
C1110 C 0.19555 0.13924 0.50037 0.0
H1111 H 0.19105 0.078 0.46045 0.0
H1112 H 0.2016 0.10247 0.46845 0.0
H1113 H 0.21018 0.08185 0.47929 0.0
H1114 H 0.22331 0.10123 0.50736 0.0
H1115 H 0.25056 0.128 0.5113 0.0
H1116 H 0.77622 0.17375 0.70291 0.0
H1117 H 0.75269 0.14494 0.7057 0.0
H1118 H 0.76221 0.15502 0.76333 0.0
H1119 H 0.78589 0.18367 0.76063 0.0
H1120 H 0.76475 0.11741 0.75254 0.0
H1121 H 0.69561 0.14199 0.71827 0.0
H1122 H 0.71612 0.14278 0.70493 0.0
H1123 H 0.71805 0.15844 0.72519 0.0
C1124 C 0.77311 0.16992 0.71616 0.0
C1125 C 0.78288 0.18094 0.73156 0.0
C1126 C 0.75961 0.15352 0.71773 0.0
C1127 C 0.75546 0.14801 0.73472 0.0
C1128 C 0.76516 0.15904 0.7501 0.0
H1129 H 0.66136 0.06437 0.76266 0.0
H1130 H 0.68209 0.09379 0.75636 0.0
C1131 C 0.77874 0.17534 0.74854 0.0
C1132 C 0.74173 0.13026 0.73658 0.0
H1133 H 0.69378 0.10871 0.72526 0.0
C1134 C 0.74922 0.11552 0.7466 0.0
C1135 C 0.72142 0.12793 0.72899 0.0
C1136 C 0.71223 0.1437 0.71889 0.0
C1137 C 0.73702 0.09848 0.74917 0.0
C1138 C 0.71688 0.09587 0.74112 0.0
C1139 C 0.7093 0.11066 0.73122 0.0
C1140 C 0.70335 0.07811 0.74335 0.0
C1141 C 0.7457 0.08365 0.76087 0.0
C1142 C 0.70808 0.05957 0.73761 0.0
C1143 C 0.69638 0.04275 0.74132 0.0
C1144 C 0.67955 0.04416 0.75062 0.0
C1145 C 0.67425 0.06278 0.75552 0.0
C1146 C 0.68606 0.07961 0.75191 0.0
H1147 H 0.75933 0.09013 0.76973 0.0
H1148 H 0.73456 0.07743 0.76938 0.0
H1149 H 0.75002 0.07153 0.75223 0.0
H1150 H 0.72111 0.05811 0.73062 0.0
H1151 H 0.70088 0.02867 0.73731 0.0
H1152 H 0.46671 0.04936 0.55979 0.0
H1153 H 0.44204 0.07241 0.55326 0.0
H1154 H 0.40323 0.02705 0.52089 0.0
H1155 H 0.42768 0.00378 0.52761 0.0
H1156 H 0.42749 0.08201 0.51745 0.0
H1157 H 0.3663 0.05154 0.55502 0.0
H1158 H 0.39186 0.04597 0.55968 0.0
H1159 H 0.37634 0.03461 0.54017 0.0
C1160 C 0.45277 0.04419 0.55155 0.0
C1161 C 0.44913 0.02473 0.54425 0.0
C1162 C 0.43876 0.05741 0.54773 0.0
C1163 C 0.42077 0.05139 0.5367 0.0
C1164 C 0.41693 0.03192 0.5296 0.0
H1165 H 0.32145 0.12003 0.50493 0.0
H1166 H 0.34284 0.09331 0.50718 0.0
C1167 C 0.43098 0.0187 0.53334 0.0
C1168 C 0.40652 0.06577 0.53204 0.0
H1169 H 0.3601 0.07862 0.53835 0.0
C1170 C 0.41273 0.08126 0.52197 0.0
C1171 C 0.3872 0.06458 0.53777 0.0
C1172 C 0.37997 0.04838 0.54886 0.0
C1173 C 0.40022 0.09576 0.51765 0.0
C1174 C 0.38117 0.09499 0.52393 0.0
C1175 C 0.37472 0.07919 0.53356 0.0
C1176 C 0.36839 0.11117 0.52177 0.0
C1177 C 0.40753 0.11176 0.50637 0.0
C1178 C 0.37561 0.12999 0.52931 0.0
C1179 C 0.36351 0.14521 0.52802 0.0
C1180 C 0.34382 0.14193 0.51929 0.0
C1181 C 0.33658 0.12306 0.51166 0.0
C1182 C 0.34875 0.10778 0.51298 0.0
H1183 H 0.41902 0.107 0.49804 0.0
H1184 H 0.39498 0.11645 0.4974 0.0
H1185 H 0.41455 0.12458 0.51531 0.0
H1186 H 0.39053 0.13285 0.53651 0.0
H1187 H 0.36956 0.15951 0.53414 0.0
H1188 H 0.56141 0.48182 0.4992 0.0
H1189 H 0.58889 0.46254 0.4935 0.0
H1190 H 0.61835 0.48044 0.54666 0.0
H1191 H 0.59077 0.49946 0.55252 0.0
H1192 H 0.62829 0.47431 0.49297 0.0
H1193 H 0.61953 0.42212 0.54547 0.0
H1194 H 0.60068 0.43792 0.53895 0.0
H1195 H 0.62241 0.4471 0.55435 0.0
C1196 C 0.57371 0.48153 0.5097 0.0
C1197 C 0.57389 0.49204 0.52636 0.0
C1198 C 0.58938 0.47052 0.50643 0.0
C1199 C 0.60555 0.4698 0.51973 0.0
C1200 C 0.6058 0.48035 0.53635 0.0
H1201 H 0.72011 0.42472 0.5262 0.0
H1202 H 0.69242 0.44474 0.52783 0.0
C1203 C 0.59004 0.49123 0.53969 0.0
C1204 C 0.62243 0.4585 0.51604 0.0
H1205 H 0.64986 0.42286 0.5318 0.0
C1206 C 0.63289 0.46294 0.50137 0.0
C1207 C 0.62837 0.44359 0.52694 0.0
C1208 C 0.61704 0.43724 0.54219 0.0
C1209 C 0.64943 0.4532 0.49762 0.0
C1210 C 0.65564 0.43875 0.50884 0.0
C1211 C 0.64508 0.43411 0.52333 0.0
C1212 C 0.67323 0.42831 0.50598 0.0
C1213 C 0.66049 0.45859 0.48197 0.0
C1214 C 0.67171 0.41275 0.49283 0.0
C1215 C 0.6875 0.40116 0.49189 0.0
C1216 C 0.70502 0.40499 0.50412 0.0
C1217 C 0.70684 0.42131 0.5166 0.0
C1218 C 0.69103 0.43277 0.51759 0.0
H1219 H 0.6547 0.47117 0.4753 0.0
H1220 H 0.67672 0.46229 0.48655 0.0
H1221 H 0.65897 0.44586 0.47196 0.0
H1222 H 0.658 0.40907 0.48382 0.0
H1223 H 0.6856 0.38872 0.48212 0.0
H1224 H 0.72708 0.26133 0.30453 0.0
H1225 H 0.72782 0.28069 0.33304 0.0
H1226 H 0.74898 0.23308 0.36162 0.0
H1227 H 0.7477 0.21335 0.33332 0.0
H1228 H 0.70697 0.26838 0.36472 0.0
H1229 H 0.78989 0.28338 0.37848 0.0
H1230 H 0.77711 0.27675 0.35621 0.0
H1231 H 0.78032 0.25838 0.37188 0.0
C1232 C 0.73172 0.25487 0.31688 0.0
C1233 C 0.73735 0.23574 0.3166 0.0
C1234 C 0.73223 0.26602 0.33313 0.0
C1235 C 0.73861 0.25834 0.34935 0.0
C1236 C 0.74426 0.23932 0.34917 0.0
H1237 H 0.75861 0.28772 0.46146 0.0
H1238 H 0.75578 0.27434 0.43051 0.0
C1239 C 0.74361 0.22811 0.33297 0.0
C1240 C 0.73913 0.27001 0.36658 0.0
H1241 H 0.77115 0.291 0.40237 0.0
C1242 C 0.72096 0.27356 0.37293 0.0
C1243 C 0.75744 0.27673 0.37711 0.0
C1244 C 0.77735 0.2738 0.37058 0.0
C1245 C 0.7206 0.28287 0.39002 0.0
C1246 C 0.73894 0.28912 0.40081 0.0
C1247 C 0.75711 0.28616 0.39411 0.0
C1248 C 0.73975 0.29737 0.41958 0.0
C1249 C 0.70062 0.2851 0.39671 0.0
C1250 C 0.73159 0.3148 0.42379 0.0
C1251 C 0.73304 0.32249 0.44163 0.0
C1252 C 0.74291 0.31298 0.4555 0.0
C1253 C 0.75099 0.29551 0.45116 0.0
C1254 C 0.7494 0.28782 0.43343 0.0
H1255 H 0.68816 0.27576 0.38845 0.0
H1256 H 0.70083 0.2813 0.41087 0.0
H1257 H 0.69745 0.30053 0.39611 0.0
H1258 H 0.7244 0.32262 0.41327 0.0
H1259 H 0.72678 0.33604 0.44451 0.0
H1260 H 0.51858 0.01564 0.92179 0.0
H1261 H 0.54173 0.01247 0.89924 0.0
H1262 H 0.50072 0.9664 0.8701 0.0
H1263 H 0.4773 0.96963 0.8926 0.0
H1264 H 0.55988 0.97905 0.88836 0.0
H1265 H 0.51171 0.00531 0.83189 0.0
H1266 H 0.50705 0.00907 0.85496 0.0
H1267 H 0.50043 0.98551 0.84312 0.0
C1268 C 0.51444 0.00485 0.91059 0.0
C1269 C 0.49606 0.99293 0.90888 0.0
C1270 C 0.52771 0.00304 0.89772 0.0
C1271 C 0.52282 0.98939 0.88288 0.0
C1272 C 0.50462 0.97727 0.88128 0.0
H1273 H 0.59114 0.97174 0.79115 0.0
H1274 H 0.56567 0.96777 0.81198 0.0
C1275 C 0.49132 0.97906 0.89417 0.0
C1276 C 0.53696 0.98785 0.86924 0.0
H1277 H 0.54293 0.99578 0.82565 0.0
C1278 C 0.55615 0.98261 0.87462 0.0
C1279 C 0.53199 0.99236 0.8513 0.0
C1280 C 0.51174 0.99853 0.84491 0.0
C1281 C 0.57062 0.98202 0.86262 0.0
C1282 C 0.5659 0.9872 0.84484 0.0
C1283 C 0.54651 0.99184 0.83929 0.0
C1284 C 0.5813 0.98923 0.83225 0.0
C1285 C 0.59086 0.97589 0.8691 0.0
C1286 C 0.59831 0.00281 0.83662 0.0
C1287 C 0.61281 0.00509 0.82483 0.0
C1288 C 0.61055 0.99394 0.8083 0.0
C1289 C 0.59336 0.98049 0.80381 0.0
C1290 C 0.57881 0.97821 0.81568 0.0
H1291 H 0.59002 0.96673 0.88071 0.0
H1292 H 0.59703 0.96758 0.85825 0.0
H1293 H 0.60144 0.98911 0.87353 0.0
H1294 H 0.6003 0.01182 0.84913 0.0
H1295 H 0.62577 0.01569 0.82869 0.0
H1296 H 0.26689 0.25329 0.31956 0.0
H1297 H 0.26744 0.23778 0.34801 0.0
H1298 H 0.33159 0.2519 0.3576 0.0
H1299 H 0.33113 0.26789 0.32937 0.0
H1300 H 0.28904 0.20687 0.36193 0.0
H1301 H 0.30991 0.27837 0.40136 0.0
H1302 H 0.30074 0.27658 0.3778 0.0
H1303 H 0.3261 0.27229 0.3849 0.0
C1304 C 0.28113 0.25309 0.32772 0.0
C1305 C 0.29894 0.26201 0.3223 0.0
C1306 C 0.28143 0.24408 0.34389 0.0
C1307 C 0.29952 0.24389 0.35498 0.0
C1308 C 0.31745 0.25208 0.3493 0.0
H1309 H 0.30946 0.18653 0.45698 0.0
H1310 H 0.31471 0.19515 0.42651 0.0
C1311 C 0.31717 0.26108 0.33311 0.0
C1312 C 0.29932 0.23616 0.37293 0.0
H1313 H 0.30558 0.25052 0.41763 0.0
C1314 C 0.29285 0.21633 0.37414 0.0
C1315 C 0.30412 0.24862 0.3888 0.0
C1316 C 0.31047 0.27019 0.38827 0.0
C1317 C 0.29077 0.20869 0.39084 0.0
C1318 C 0.29537 0.22122 0.40665 0.0
C1319 C 0.30219 0.24095 0.40545 0.0
C1320 C 0.29158 0.21471 0.42451 0.0
C1321 C 0.28297 0.1875 0.39147 0.0
C1322 C 0.27683 0.22281 0.43339 0.0
C1323 C 0.2738 0.21797 0.45069 0.0
C1324 C 0.28558 0.20499 0.45961 0.0
C1325 C 0.3001 0.19653 0.45051 0.0
C1326 C 0.3031 0.2014 0.43309 0.0
H1327 H 0.27752 0.18043 0.3779 0.0
H1328 H 0.29515 0.17948 0.39755 0.0
H1329 H 0.27053 0.18611 0.39998 0.0
H1330 H 0.26778 0.2331 0.42697 0.0
H1331 H 0.26243 0.22474 0.45717 0.0
H1332 H 0.53613 0.54533 0.94472 0.0
H1333 H 0.5162 0.5497 0.91629 0.0
H1334 H 0.51498 0.48823 0.90101 0.0
H1335 H 0.53453 0.48375 0.92955 0.0
H1336 H 0.52655 0.54423 0.88354 0.0
H1337 H 0.45716 0.49562 0.88799 0.0
H1338 H 0.47557 0.50268 0.90717 0.0
H1339 H 0.47905 0.48298 0.89136 0.0
C1340 C 0.53141 0.53273 0.93535 0.0
C1341 C 0.53683 0.51419 0.93936 0.0
C1342 C 0.51999 0.53522 0.91915 0.0
C1343 C 0.51379 0.51925 0.9066 0.0
C1344 C 0.51905 0.50068 0.91066 0.0
H1345 H 0.47737 0.50275 0.79421 0.0
H1346 H 0.48842 0.50065 0.826 0.0
C1347 C 0.53031 0.49814 0.92695 0.0
C1348 C 0.50324 0.52227 0.88873 0.0
H1349 H 0.46275 0.5051 0.85849 0.0
C1350 C 0.51243 0.5359 0.8782 0.0
C1351 C 0.48478 0.51144 0.88175 0.0
C1352 C 0.47347 0.49752 0.89274 0.0
C1353 C 0.50408 0.53841 0.86067 0.0
C1354 C 0.48609 0.52702 0.85349 0.0
C1355 C 0.47659 0.51376 0.86409 0.0
C1356 C 0.47778 0.52782 0.83455 0.0
C1357 C 0.51486 0.55269 0.84964 0.0
C1358 C 0.46781 0.54367 0.82893 0.0
C1359 C 0.46134 0.54491 0.81073 0.0
C1360 C 0.46493 0.53038 0.79786 0.0
C1361 C 0.47448 0.51428 0.8037 0.0
C1362 C 0.48075 0.51299 0.82187 0.0
H1363 H 0.52948 0.55939 0.85674 0.0
H1364 H 0.5175 0.54522 0.83674 0.0
H1365 H 0.50536 0.56453 0.84642 0.0
H1366 H 0.46538 0.55523 0.8386 0.0
H1367 H 0.45405 0.55749 0.80669 0.0
H1368 H 0.71093 0.79648 0.16999 0.0
H1369 H 0.71463 0.77173 0.14627 0.0
H1370 H 0.77866 0.7874 0.15344 0.0
H1371 H 0.77534 0.81081 0.17804 0.0
H1372 H 0.72698 0.77471 0.11523 0.0
H1373 H 0.7778 0.73008 0.15286 0.0
H1374 H 0.76548 0.74859 0.16393 0.0
H1375 H 0.78873 0.75498 0.15484 0.0
C1376 C 0.72586 0.79434 0.16684 0.0
C1377 C 0.74282 0.80573 0.17603 0.0
C1378 C 0.72793 0.78028 0.15313 0.0
C1379 C 0.74697 0.77737 0.14826 0.0
C1380 C 0.76386 0.78888 0.15726 0.0
H1381 H 0.77837 0.73822 0.0461 0.0
H1382 H 0.76619 0.75509 0.0715 0.0
C1383 C 0.76186 0.80263 0.17114 0.0
C1384 C 0.74926 0.76313 0.13317 0.0
H1385 H 0.77836 0.72821 0.12065 0.0
C1386 C 0.73798 0.7643 0.1165 0.0
C1387 C 0.76318 0.74911 0.13483 0.0
C1388 C 0.77428 0.74547 0.15266 0.0
C1389 C 0.74101 0.75264 0.10127 0.0
C1390 C 0.75636 0.74004 0.10258 0.0
C1391 C 0.76686 0.73811 0.11946 0.0
C1392 C 0.76249 0.72943 0.0866 0.0
C1393 C 0.72763 0.75395 0.08404 0.0
C1394 C 0.76515 0.70948 0.08674 0.0
C1395 C 0.77278 0.69997 0.07245 0.0
C1396 C 0.77761 0.71015 0.05762 0.0
C1397 C 0.77452 0.72995 0.05726 0.0
C1398 C 0.76735 0.73957 0.07173 0.0
H1399 H 0.71259 0.75773 0.08679 0.0
H1400 H 0.73432 0.76575 0.07644 0.0
H1401 H 0.7257 0.74002 0.07552 0.0
H1402 H 0.76161 0.70132 0.09806 0.0
H1403 H 0.77498 0.68467 0.07305 0.0
H1404 H 0.02344 0.98887 0.06827 0.0
H1405 H 0.00882 0.99138 0.09665 0.0
H1406 H 0.01499 0.05418 0.09611 0.0
H1407 H 0.03019 0.05185 0.06819 0.0
H1408 H 0.02771 0.04168 0.12905 0.0
H1409 H 0.95218 0.00485 0.10294 0.0
H1410 H 0.97261 0.99089 0.09922 0.0
H1411 H 0.97032 0.0132 0.08839 0.0
C1412 C 0.02181 0.00321 0.07427 0.0
C1413 C 0.02782 0.02016 0.06586 0.0
C1414 C 0.01325 0.00461 0.09038 0.0
C1415 C 0.01048 0.02295 0.09832 0.0
C1416 C 0.01681 0.03987 0.09014 0.0
H1417 H 0.9368 0.05474 0.1804 0.0
H1418 H 0.95137 0.04841 0.15247 0.0
C1419 C 0.02537 0.0385 0.07409 0.0
C1420 C 0.00131 0.02473 0.11533 0.0
H1421 H 0.95817 0.01346 0.13418 0.0
C1422 C 0.01253 0.03547 0.13019 0.0
C1423 C 0.9814 0.01683 0.11671 0.0
C1424 C 0.96831 0.00594 0.10095 0.0
C1425 C 0.00441 0.03851 0.1464 0.0
C1426 C 0.98463 0.03029 0.14791 0.0
C1427 C 0.97338 0.0196 0.13304 0.0
C1428 C 0.97523 0.03313 0.16467 0.0
C1429 C 0.01689 0.05096 0.16162 0.0
C1430 C 0.98356 0.02629 0.18072 0.0
C1431 C 0.97534 0.02995 0.1967 0.0
C1432 C 0.95848 0.04037 0.19691 0.0
C1433 C 0.9498 0.0467 0.18071 0.0
C1434 C 0.95808 0.04307 0.16473 0.0
H1435 H 0.02952 0.06008 0.15689 0.0
H1436 H 0.00761 0.06072 0.16856 0.0
H1437 H 0.02331 0.04134 0.17154 0.0
H1438 H 0.99658 0.01828 0.18092 0.0
H1439 H 0.98243 0.02489 0.20891 0.0
H1440 H 0.34085 0.77579 0.18072 0.0
H1441 H 0.33065 0.79313 0.1543 0.0
H1442 H 0.26895 0.78378 0.16478 0.0
H1443 H 0.27899 0.76602 0.19085 0.0
H1444 H 0.27289 0.77312 0.13085 0.0
H1445 H 0.31326 0.84691 0.14859 0.0
H1446 H 0.32958 0.82795 0.1501 0.0
H1447 H 0.31041 0.82895 0.16488 0.0
C1448 C 0.32515 0.77767 0.17747 0.0
C1449 C 0.31071 0.76948 0.18772 0.0
C1450 C 0.31936 0.7877 0.16247 0.0
C1451 C 0.29906 0.78998 0.1577 0.0
C1452 C 0.28469 0.78223 0.16825 0.0
H1453 H 0.25033 0.85813 0.07255 0.0
H1454 H 0.26213 0.84662 0.10161 0.0
C1455 C 0.29045 0.77206 0.18312 0.0
C1456 C 0.29256 0.79894 0.1409 0.0
H1457 H 0.29979 0.83973 0.11781 0.0
C1458 C 0.27867 0.78775 0.12807 0.0
C1459 C 0.29993 0.8181 0.13737 0.0
C1460 C 0.31396 0.83126 0.15104 0.0
C1461 C 0.27224 0.79501 0.11167 0.0
C1462 C 0.28033 0.81379 0.10777 0.0
C1463 C 0.29385 0.82521 0.12074 0.0
C1464 C 0.27479 0.82173 0.09028 0.0
C1465 C 0.25663 0.78255 0.09876 0.0
C1466 C 0.27854 0.81189 0.07433 0.0
C1467 C 0.2717 0.81831 0.05775 0.0
C1468 C 0.26122 0.83489 0.0568 0.0
C1469 C 0.25831 0.84528 0.07282 0.0
C1470 C 0.26506 0.83875 0.08943 0.0
H1471 H 0.24802 0.77131 0.10568 0.0
H1472 H 0.24594 0.79163 0.09182 0.0
H1473 H 0.26417 0.77486 0.08847 0.0
H1474 H 0.28639 0.79895 0.07471 0.0
H1475 H 0.2742 0.80996 0.04571 0.0
H1476 H 0.98149 0.50383 0.10186 0.0
H1477 H 0.00213 0.50254 0.13069 0.0
H1478 H 0.05337 0.49379 0.1028 0.0
H1479 H 0.03299 0.49518 0.07409 0.0
H1480 H 0.04576 0.46635 0.12857 0.0
H1481 H 0.04702 0.54311 0.1567 0.0
H1482 H 0.02282 0.53015 0.149 0.0
H1483 H 0.04013 0.53599 0.13315 0.0
C1484 C 0.99724 0.50195 0.10192 0.0
C1485 C 0.00558 0.49949 0.08569 0.0
C1486 C 0.00899 0.50121 0.11838 0.0
C1487 C 0.0293 0.49814 0.11887 0.0
C1488 C 0.03772 0.49609 0.10272 0.0
H1489 H 0.13551 0.488 0.18707 0.0
H1490 H 0.10786 0.48778 0.16333 0.0
C1491 C 0.02603 0.49682 0.08632 0.0
C1492 C 0.04178 0.49622 0.13604 0.0
H1493 H 0.06482 0.52199 0.17426 0.0
C1494 C 0.0498 0.47847 0.13864 0.0
C1495 C 0.04686 0.51198 0.14923 0.0
C1496 C 0.03891 0.53146 0.14694 0.0
C1497 C 0.06322 0.47621 0.15381 0.0
C1498 C 0.06902 0.49224 0.16658 0.0
C1499 C 0.06035 0.50974 0.16442 0.0
C1500 C 0.08543 0.49167 0.1813 0.0
C1501 C 0.07127 0.45676 0.15591 0.0
C1502 C 0.08206 0.49418 0.19935 0.0
C1503 C 0.09794 0.49431 0.21307 0.0
C1504 C 0.11749 0.49221 0.20893 0.0
C1505 C 0.12069 0.48963 0.1908 0.0
C1506 C 0.10486 0.48939 0.17717 0.0
H1507 H 0.06112 0.44468 0.14826 0.0
H1508 H 0.08603 0.45716 0.15066 0.0
H1509 H 0.0734 0.4535 0.17024 0.0
H1510 H 0.06718 0.49609 0.2028 0.0
H1511 H 0.09495 0.49644 0.22688 0.0
H1512 H 0.36601 0.73234 0.2409 0.0
H1513 H 0.39707 0.73614 0.26161 0.0
H1514 H 0.36337 0.72043 0.30505 0.0
H1515 H 0.33229 0.71687 0.28458 0.0
H1516 H 0.40699 0.76103 0.29389 0.0
H1517 H 0.40719 0.68264 0.30651 0.0
H1518 H 0.39207 0.69097 0.28774 0.0
H1519 H 0.38401 0.6923 0.30975 0.0
C1520 C 0.3652 0.72984 0.2549 0.0
C1521 C 0.34668 0.72418 0.26107 0.0
C1522 C 0.38295 0.73192 0.26667 0.0
C1523 C 0.38251 0.72823 0.28476 0.0
C1524 C 0.36406 0.7229 0.29103 0.0
H1525 H 0.45997 0.73361 0.38276 0.0
H1526 H 0.43297 0.72961 0.35806 0.0
C1527 C 0.34632 0.72086 0.27931 0.0
C1528 C 0.40125 0.73029 0.29728 0.0
H1529 H 0.42958 0.70522 0.32638 0.0
C1530 C 0.41212 0.74881 0.30086 0.0
C1531 C 0.40787 0.71428 0.30625 0.0
C1532 C 0.3973 0.69387 0.30228 0.0
C1533 C 0.42897 0.75195 0.31384 0.0
C1534 C 0.43523 0.73603 0.32321 0.0
C1535 C 0.42469 0.7174 0.31921 0.0
C1536 C 0.45192 0.73857 0.33797 0.0
C1537 C 0.43942 0.77238 0.31796 0.0
C1538 C 0.4716 0.74476 0.33483 0.0
C1539 C 0.48716 0.74712 0.34898 0.0
C1540 C 0.48329 0.74322 0.36651 0.0
C1541 C 0.46354 0.7368 0.36949 0.0
C1542 C 0.44806 0.73447 0.35537 0.0
H1543 H 0.43031 0.78355 0.31225 0.0
H1544 H 0.44278 0.7758 0.33267 0.0
H1545 H 0.45385 0.77349 0.3121 0.0
H1546 H 0.47495 0.74766 0.32142 0.0
H1547 H 0.50219 0.75199 0.34617 0.0
H1548 H 0.98999 0.45663 0.99093 0.0
H1549 H 0.99641 0.4336 0.96659 0.0
H1550 H 0.01014 0.39153 0.00504 0.0
H1551 H 0.0041 0.41455 0.02937 0.0
H1552 H 0.03762 0.39553 0.98014 0.0
H1553 H 0.95903 0.38467 0.94681 0.0
H1554 H 0.97082 0.40939 0.94994 0.0
H1555 H 0.96552 0.39635 0.96911 0.0
C1556 C 0.99435 0.44245 0.99416 0.0
C1557 C 0.99643 0.43726 0.01202 0.0
C1558 C 0.99796 0.42931 0.98024 0.0
C1559 C 0.00353 0.41078 0.98399 0.0
C1560 C 0.00584 0.40575 0.00185 0.0
H1561 H 0.99416 0.29832 0.93549 0.0
H1562 H 0.9906 0.33048 0.94903 0.0
C1563 C 0.00233 0.41886 0.01572 0.0
C1564 C 0.00681 0.39632 0.96951 0.0
H1565 H 0.98204 0.36553 0.93512 0.0
C1566 C 0.02559 0.38915 0.97009 0.0
C1567 C 0.99103 0.38805 0.95647 0.0
C1568 C 0.9704 0.39485 0.95552 0.0
C1569 C 0.02874 0.37324 0.95859 0.0
C1570 C 0.01276 0.36452 0.94596 0.0
C1571 C 0.99429 0.37235 0.94475 0.0
C1572 C 0.01395 0.3456 0.93591 0.0
C1573 C 0.04874 0.36511 0.96086 0.0
C1574 C 0.02795 0.34346 0.92362 0.0
C1575 C 0.03015 0.32492 0.91585 0.0
C1576 C 0.01833 0.30828 0.92025 0.0
C1577 C 0.00368 0.31073 0.9319 0.0
C1578 C 0.00153 0.32916 0.93962 0.0
H1579 H 0.05838 0.37167 0.97311 0.0
H1580 H 0.04661 0.34902 0.96161 0.0
H1581 H 0.05681 0.36822 0.94909 0.0
H1582 H 0.03745 0.35604 0.92035 0.0
H1583 H 0.04147 0.32357 0.90684 0.0
H1584 H 0.67613 0.81109 0.23641 0.0
H1585 H 0.65053 0.80117 0.2557 0.0
H1586 H 0.68113 0.84132 0.29854 0.0
H1587 H 0.70658 0.85155 0.27921 0.0
H1588 H 0.65587 0.78404 0.2871 0.0
H1589 H 0.62371 0.8538 0.2985 0.0
H1590 H 0.63948 0.84977 0.28102 0.0
H1591 H 0.65047 0.85637 0.30377 0.0
C1592 C 0.6773 0.81794 0.24988 0.0
C1593 C 0.69334 0.83212 0.25635 0.0
C1594 C 0.66265 0.81227 0.26088 0.0
C1595 C 0.66372 0.82072 0.27847 0.0
C1596 C 0.6797 0.83495 0.28488 0.0
H1597 H 0.62027 0.77414 0.37106 0.0
H1598 H 0.63875 0.78541 0.34689 0.0
C1599 C 0.69431 0.84067 0.27388 0.0
C1600 C 0.64898 0.81376 0.29055 0.0
H1601 H 0.61687 0.82931 0.31909 0.0
C1602 C 0.64716 0.7939 0.29392 0.0
C1603 C 0.63736 0.82656 0.29924 0.0
C1604 C 0.63767 0.84777 0.29531 0.0
C1605 C 0.63475 0.78667 0.30634 0.0
C1606 C 0.62415 0.79972 0.31589 0.0
C1607 C 0.62522 0.81939 0.31192 0.0
C1608 C 0.61273 0.79336 0.33064 0.0
C1609 C 0.63319 0.76513 0.30921 0.0
C1610 C 0.59203 0.79469 0.3298 0.0
C1611 C 0.58137 0.78834 0.34372 0.0
C1612 C 0.5913 0.78068 0.35874 0.0
C1613 C 0.61211 0.77982 0.35965 0.0
C1614 C 0.6227 0.78615 0.34579 0.0
H1615 H 0.63716 0.75645 0.29744 0.0
H1616 H 0.6438 0.76267 0.32101 0.0
H1617 H 0.61782 0.75962 0.31181 0.0
H1618 H 0.5841 0.80038 0.31828 0.0
H1619 H 0.56536 0.78925 0.34264 0.0
H1620 H 0.04751 0.04808 0.95437 0.0
H1621 H 0.04779 0.07764 0.93772 0.0
H1622 H 0.02589 0.10852 0.98186 0.0
H1623 H 0.02583 0.07926 0.99861 0.0
H1624 H 0.01693 0.10091 0.92714 0.0
H1625 H 0.07744 0.14246 0.97454 0.0
H1626 H 0.07163 0.11632 0.97442 0.0
H1627 H 0.05653 0.13248 0.98516 0.0
C1628 C 0.04269 0.06119 0.96045 0.0
C1629 C 0.03684 0.06144 0.97781 0.0
C1630 C 0.04284 0.078 0.95095 0.0
C1631 C 0.0372 0.09532 0.95871 0.0
C1632 C 0.0307 0.0954 0.9758 0.0
H1633 H 0.02857 0.21349 0.9326 0.0
H1634 H 0.02621 0.18146 0.94474 0.0
C1635 C 0.03059 0.07863 0.98532 0.0
C1636 C 0.03844 0.11346 0.94914 0.0
H1637 H 0.06022 0.1606 0.95304 0.0
C1638 C 0.0265 0.11394 0.93269 0.0
C1639 C 0.05106 0.13035 0.95639 0.0
C1640 C 0.06505 0.13039 0.97351 0.0
C1641 C 0.02631 0.13116 0.92362 0.0
C1642 C 0.03853 0.14816 0.93115 0.0
C1643 C 0.05077 0.14754 0.94739 0.0
C1644 C 0.0385 0.16702 0.92278 0.0
C1645 C 0.01263 0.13125 0.90636 0.0
C1646 C 0.04611 0.16946 0.90633 0.0
C1647 C 0.04746 0.18782 0.8993 0.0
C1648 C 0.04124 0.20399 0.90865 0.0
C1649 C 0.03331 0.20134 0.92496 0.0
C1650 C 0.03201 0.18305 0.93197 0.0
H1651 H 0.00149 0.11808 0.90411 0.0
H1652 H 0.00451 0.14447 0.90638 0.0
H1653 H 0.02174 0.13157 0.89494 0.0
H1654 H 0.05149 0.15731 0.89919 0.0
H1655 H 0.0537 0.18941 0.88674 0.0
H1656 H 0.37048 0.24446 0.26068 0.0
H1657 H 0.39382 0.24564 0.23786 0.0
H1658 H 0.36899 0.29636 0.21779 0.0
H1659 H 0.3458 0.29538 0.24059 0.0
H1660 H 0.3836 0.24264 0.20093 0.0
H1661 H 0.42961 0.31297 0.22302 0.0
H1662 H 0.4137 0.30023 0.23734 0.0
H1663 H 0.40308 0.31467 0.22037 0.0
C1664 C 0.37014 0.25595 0.25147 0.0
C1665 C 0.35634 0.2698 0.25242 0.0
C1666 C 0.38346 0.25661 0.23848 0.0
C1667 C 0.38334 0.27126 0.2263 0.0
C1668 C 0.36964 0.28519 0.22729 0.0
H1669 H 0.42294 0.26967 0.12153 0.0
H1670 H 0.40488 0.2716 0.14785 0.0
C1671 C 0.35628 0.2845 0.24025 0.0
C1672 C 0.39667 0.27124 0.21187 0.0
H1673 H 0.43313 0.29908 0.1938 0.0
C1674 C 0.39453 0.25492 0.19946 0.0
C1675 C 0.41107 0.28719 0.21007 0.0
C1676 C 0.41469 0.30469 0.2235 0.0
C1677 C 0.40597 0.25435 0.18499 0.0
C1678 C 0.41976 0.27063 0.18275 0.0
C1679 C 0.42239 0.28671 0.19546 0.0
C1680 C 0.43117 0.27125 0.16701 0.0
C1681 C 0.40322 0.23631 0.17219 0.0
C1682 C 0.45209 0.27119 0.16911 0.0
C1683 C 0.46254 0.27012 0.15404 0.0
C1684 C 0.45221 0.26921 0.13665 0.0
C1685 C 0.43137 0.27019 0.1347 0.0
C1686 C 0.42098 0.27122 0.14973 0.0
H1687 H 0.39591 0.22348 0.17814 0.0
H1688 H 0.39356 0.23905 0.15988 0.0
H1689 H 0.41785 0.23266 0.16822 0.0
H1690 H 0.46023 0.27132 0.18237 0.0
H1691 H 0.47859 0.26944 0.15601 0.0
H1692 H 0.52832 0.45188 0.00494 0.0
H1693 H 0.51765 0.42332 0.02073 0.0
H1694 H 0.57841 0.4223 0.04514 0.0
H1695 H 0.58908 0.45108 0.02965 0.0
H1696 H 0.52995 0.38761 0.01689 0.0
H1697 H 0.54758 0.41569 0.08796 0.0
H1698 H 0.54658 0.43161 0.06975 0.0
H1699 H 0.56869 0.4197 0.07558 0.0
C1700 C 0.53936 0.44571 0.01383 0.0
C1701 C 0.55957 0.45366 0.01607 0.0
C1702 C 0.53323 0.42941 0.02287 0.0
C1703 C 0.54715 0.42084 0.03436 0.0
C1704 C 0.56729 0.42893 0.03673 0.0
H1705 H 0.54731 0.30211 0.05884 0.0
H1706 H 0.55308 0.33525 0.04962 0.0
C1707 C 0.57341 0.44526 0.02775 0.0
C1708 C 0.54102 0.40249 0.04262 0.0
H1709 H 0.54297 0.38067 0.08231 0.0
C1710 C 0.53256 0.38619 0.03122 0.0
C1711 C 0.54419 0.40066 0.06135 0.0
C1712 C 0.55206 0.41791 0.07439 0.0
C1713 C 0.528 0.36795 0.03793 0.0
C1714 C 0.53233 0.36584 0.0565 0.0
C1715 C 0.53992 0.38229 0.06805 0.0
C1716 C 0.53 0.3464 0.06384 0.0
C1717 C 0.51878 0.35099 0.02503 0.0
C1718 C 0.51568 0.34191 0.07559 0.0
C1719 C 0.51234 0.32286 0.08101 0.0
C1720 C 0.52333 0.30808 0.07475 0.0
C1721 C 0.53837 0.31301 0.06374 0.0
C1722 C 0.54169 0.33196 0.0584 0.0
H1723 H 0.51148 0.35603 0.01242 0.0
H1724 H 0.53072 0.34201 0.0215 0.0
H1725 H 0.50749 0.34154 0.03117 0.0
H1726 H 0.50661 0.35294 0.08003 0.0
H1727 H 0.50068 0.31958 0.08952 0.0
H1728 H 0.68031 0.18027 0.21044 0.0
H1729 H 0.65306 0.18761 0.18829 0.0
H1730 H 0.64882 0.24166 0.21889 0.0
H1731 H 0.67604 0.23454 0.24093 0.0
H1732 H 0.61318 0.19477 0.19379 0.0
H1733 H 0.65536 0.25835 0.16783 0.0
H1734 H 0.66757 0.24097 0.18099 0.0
H1735 H 0.65523 0.25954 0.19175 0.0
C1736 C 0.67356 0.19373 0.21239 0.0
C1737 C 0.68034 0.20684 0.22735 0.0
C1738 C 0.65801 0.19788 0.19978 0.0
C1739 C 0.6491 0.21528 0.20186 0.0
C1740 C 0.65571 0.2283 0.21689 0.0
H1741 H 0.53707 0.24267 0.14359 0.0
H1742 H 0.56338 0.2365 0.16705 0.0
C1743 C 0.67122 0.22415 0.22952 0.0
C1744 C 0.63281 0.21975 0.18836 0.0
H1745 H 0.62081 0.252 0.15724 0.0
C1746 C 0.61481 0.20728 0.18579 0.0
C1747 C 0.63509 0.23599 0.17787 0.0
C1748 C 0.6544 0.24943 0.17958 0.0
C1749 C 0.59893 0.2107 0.17306 0.0
C1750 C 0.60109 0.22713 0.16277 0.0
C1751 C 0.61914 0.23953 0.16528 0.0
C1752 C 0.58516 0.23122 0.14875 0.0
C1753 C 0.58016 0.19648 0.17041 0.0
C1754 C 0.58885 0.23073 0.13075 0.0
C1755 C 0.57392 0.2343 0.11734 0.0
C1756 C 0.55497 0.23857 0.12165 0.0
C1757 C 0.55143 0.23936 0.13977 0.0
C1758 C 0.56641 0.23573 0.15319 0.0
H1759 H 0.58252 0.18253 0.17656 0.0
H1760 H 0.5681 0.20306 0.17678 0.0
H1761 H 0.57491 0.19324 0.15591 0.0
H1762 H 0.60325 0.22735 0.12705 0.0
H1763 H 0.57725 0.23362 0.10357 0.0
H1764 H 0.47852 0.07217 0.96396 0.0
H1765 H 0.48554 0.10293 0.9826 0.0
H1766 H 0.47019 0.07298 0.02873 0.0
H1767 H 0.46398 0.04205 0.01039 0.0
H1768 H 0.45908 0.12114 0.00074 0.0
H1769 H 0.52273 0.10457 0.04849 0.0
H1770 H 0.51424 0.08969 0.02796 0.0
H1771 H 0.50111 0.08692 0.04736 0.0
C1772 C 0.47703 0.07204 0.97815 0.0
C1773 C 0.4707 0.05462 0.98568 0.0
C1774 C 0.48093 0.08966 0.98876 0.0
C1775 C 0.47866 0.09021 0.00711 0.0
C1776 C 0.47245 0.07285 0.01469 0.0
H1777 H 0.47719 0.18313 0.08981 0.0
H1778 H 0.47541 0.1517 0.07232 0.0
C1779 C 0.46863 0.05522 0.00411 0.0
C1780 C 0.48159 0.10912 0.01804 0.0
H1781 H 0.50752 0.13332 0.05588 0.0
C1782 C 0.46979 0.12386 0.01271 0.0
C1783 C 0.49553 0.1126 0.0337 0.0
C1784 C 0.50926 0.09768 0.03965 0.0
C1785 C 0.47128 0.14185 0.02277 0.0
C1786 C 0.48509 0.14526 0.03848 0.0
C1787 C 0.49692 0.13058 0.04384 0.0
C1788 C 0.48737 0.16405 0.04946 0.0
C1789 C 0.4578 0.15695 0.01675 0.0
C1790 C 0.49507 0.18127 0.0425 0.0
C1791 C 0.49615 0.19919 0.05244 0.0
C1792 C 0.48955 0.20021 0.06954 0.0
C1793 C 0.48233 0.18284 0.07667 0.0
C1794 C 0.48134 0.16488 0.06673 0.0
H1795 H 0.44522 0.1506 0.00662 0.0
H1796 H 0.4515 0.16376 0.02834 0.0
H1797 H 0.46667 0.16867 0.01062 0.0
H1798 H 0.50001 0.18086 0.02927 0.0
H1799 H 0.50173 0.21229 0.04653 0.0
H1800 H 0.27229 0.37583 0.68346 0.0
H1801 H 0.29926 0.40257 0.68935 0.0
H1802 H 0.2975 0.3995 0.74627 0.0
H1803 H 0.27126 0.37199 0.74053 0.0
H1804 H 0.30159 0.43847 0.7062 0.0
H1805 H 0.35593 0.39485 0.74202 0.0
H1806 H 0.33262 0.38385 0.72979 0.0
H1807 H 0.33298 0.39546 0.75192 0.0
C1808 C 0.27778 0.38067 0.69725 0.0
C1809 C 0.26978 0.37153 0.71152 0.0
C1810 C 0.29308 0.3961 0.70059 0.0
C1811 C 0.30068 0.4028 0.71825 0.0
C1812 C 0.2922 0.39427 0.73254 0.0
H1813 H 0.38168 0.51082 0.74436 0.0
H1814 H 0.3524 0.48632 0.7406 0.0
C1815 C 0.27699 0.3787 0.72922 0.0
C1816 C 0.31767 0.41849 0.72159 0.0
H1817 H 0.3659 0.42866 0.74144 0.0
C1818 C 0.31566 0.43636 0.71392 0.0
C1819 C 0.33611 0.41559 0.73145 0.0
C1820 C 0.33967 0.39635 0.73913 0.0
C1821 C 0.33159 0.45138 0.71579 0.0
C1822 C 0.34987 0.44864 0.726 0.0
C1823 C 0.35183 0.4308 0.73373 0.0
C1824 C 0.36747 0.46369 0.72825 0.0
C1825 C 0.32887 0.46977 0.70631 0.0
C1826 C 0.38583 0.45899 0.72299 0.0
C1827 C 0.40266 0.47284 0.72538 0.0
C1828 C 0.40148 0.49176 0.73302 0.0
C1829 C 0.38306 0.49646 0.73826 0.0
C1830 C 0.36626 0.4825 0.73603 0.0
H1831 H 0.31632 0.46741 0.69527 0.0
H1832 H 0.32534 0.4813 0.71604 0.0
H1833 H 0.34275 0.47517 0.70066 0.0
H1834 H 0.38713 0.44456 0.71699 0.0
H1835 H 0.41657 0.46872 0.72115 0.0
H1836 H 0.26312 0.67287 0.804 0.0
H1837 H 0.29027 0.65259 0.79961 0.0
H1838 H 0.29528 0.67495 0.74781 0.0
H1839 H 0.26841 0.69546 0.75219 0.0
H1840 H 0.29224 0.62345 0.77025 0.0
H1841 H 0.35304 0.68477 0.77494 0.0
H1842 H 0.32919 0.68732 0.7831 0.0
H1843 H 0.33135 0.68745 0.75951 0.0
C1844 C 0.27011 0.67356 0.79173 0.0
C1845 C 0.26367 0.68582 0.77847 0.0
C1846 C 0.28552 0.6619 0.78921 0.0
C1847 C 0.29491 0.66246 0.77349 0.0
C1848 C 0.28838 0.6745 0.76014 0.0
H1849 H 0.3895 0.61086 0.72728 0.0
H1850 H 0.3623 0.62924 0.73508 0.0
C1851 C 0.27291 0.68607 0.7626 0.0
C1852 C 0.31148 0.6504 0.77092 0.0
H1853 H 0.36106 0.65355 0.76491 0.0
C1854 C 0.30734 0.62997 0.76923 0.0
C1855 C 0.33114 0.65899 0.76963 0.0
C1856 C 0.33658 0.68083 0.77204 0.0
C1857 C 0.32222 0.6179 0.76559 0.0
C1858 C 0.34183 0.62652 0.76399 0.0
C1859 C 0.34602 0.64695 0.76609 0.0
C1860 C 0.35805 0.61478 0.75933 0.0
C1861 C 0.31661 0.5961 0.76282 0.0
C1862 C 0.36482 0.60054 0.77042 0.0
C1863 C 0.38038 0.58986 0.76592 0.0
C1864 C 0.38958 0.5934 0.75036 0.0
C1865 C 0.3828 0.60774 0.73937 0.0
C1866 C 0.36723 0.6183 0.74381 0.0
H1867 H 0.30011 0.59228 0.76019 0.0
H1868 H 0.32364 0.5898 0.75144 0.0
H1869 H 0.32205 0.58917 0.7751 0.0
H1870 H 0.35825 0.59785 0.78266 0.0
H1871 H 0.38533 0.57901 0.77473 0.0
H1872 H 0.94141 0.46285 0.46755 0.0
H1873 H 0.9134 0.44019 0.47455 0.0
H1874 H 0.87622 0.4874 0.47614 0.0
H1875 H 0.90403 0.51008 0.46894 0.0
H1876 H 0.89223 0.44491 0.50642 0.0
H1877 H 0.84232 0.4429 0.44215 0.0
H1878 H 0.86891 0.45058 0.44394 0.0
H1879 H 0.85222 0.46671 0.45226 0.0
C1880 C 0.92717 0.46833 0.46914 0.0
C1881 C 0.92489 0.48823 0.46768 0.0
C1882 C 0.91125 0.45541 0.47323 0.0
C1883 C 0.89274 0.46213 0.47571 0.0
C1884 C 0.89033 0.48192 0.47407 0.0
H1885 H 0.77953 0.40195 0.49964 0.0
H1886 H 0.80599 0.42676 0.49336 0.0
C1887 C 0.90626 0.49486 0.4701 0.0
C1888 C 0.87617 0.44858 0.48071 0.0
H1889 H 0.82939 0.42622 0.4656 0.0
C1890 C 0.87849 0.44077 0.49751 0.0
C1891 C 0.85822 0.44344 0.46911 0.0
C1892 C 0.8552 0.45119 0.45079 0.0
C1893 C 0.86326 0.42795 0.50307 0.0
C1894 C 0.84545 0.42243 0.4913 0.0
C1895 C 0.84304 0.43047 0.47459 0.0
C1896 C 0.82955 0.40768 0.49575 0.0
C1897 C 0.86628 0.42067 0.52159 0.0
C1898 C 0.83399 0.38871 0.49905 0.0
C1899 C 0.819 0.37456 0.50272 0.0
C1900 C 0.79912 0.37899 0.50297 0.0
C1901 C 0.79468 0.39803 0.49961 0.0
C1902 C 0.80976 0.41223 0.49599 0.0
H1903 H 0.8774 0.4307 0.53069 0.0
H1904 H 0.85197 0.41903 0.52764 0.0
H1905 H 0.87207 0.40619 0.52068 0.0
H1906 H 0.84904 0.38472 0.4985 0.0
H1907 H 0.82299 0.36004 0.50509 0.0
H1908 H 0.79161 0.83701 0.77873 0.0
H1909 H 0.76669 0.86018 0.77421 0.0
H1910 H 0.72081 0.81723 0.78766 0.0
H1911 H 0.74568 0.79379 0.79203 0.0
H1912 H 0.71059 0.8374 0.75539 0.0
H1913 H 0.73995 0.88802 0.81471 0.0
H1914 H 0.75869 0.88177 0.8008 0.0
H1915 H 0.74599 0.86313 0.81243 0.0
C1916 C 0.7762 0.83245 0.78063 0.0
C1917 C 0.7706 0.81358 0.78574 0.0
C1918 C 0.76203 0.84575 0.7782 0.0
C1919 C 0.74199 0.84047 0.78081 0.0
C1920 C 0.73625 0.8216 0.78571 0.0
H1921 H 0.66271 0.93371 0.78118 0.0
H1922 H 0.67626 0.90311 0.78843 0.0
C1923 C 0.75047 0.80829 0.78827 0.0
C1924 C 0.72709 0.85469 0.77808 0.0
H1925 H 0.71734 0.90024 0.79246 0.0
C1926 C 0.71185 0.85103 0.76363 0.0
C1927 C 0.72858 0.87229 0.78902 0.0
C1928 C 0.74406 0.87652 0.80522 0.0
C1929 C 0.69874 0.86506 0.75925 0.0
C1930 C 0.70109 0.8832 0.7695 0.0
C1931 C 0.71561 0.88637 0.78455 0.0
C1932 C 0.69008 0.89981 0.76396 0.0
C1933 C 0.68272 0.86048 0.7435 0.0
C1934 C 0.69305 0.90788 0.74766 0.0
C1935 C 0.68542 0.92534 0.74352 0.0
C1936 C 0.6747 0.93516 0.75562 0.0
C1937 C 0.67082 0.9265 0.77153 0.0
C1938 C 0.6786 0.90905 0.77572 0.0
H1939 H 0.67874 0.84446 0.74077 0.0
H1940 H 0.66896 0.86735 0.74583 0.0
H1941 H 0.68841 0.86627 0.73136 0.0
H1942 H 0.70216 0.90121 0.73853 0.0
H1943 H 0.68866 0.93156 0.73113 0.0
H1944 H 0.58442 0.56232 0.9761 0.0
H1945 H 0.6151 0.58489 0.98285 0.0
H1946 H 0.64904 0.53657 0.99458 0.0
H1947 H 0.61843 0.5138 0.98753 0.0
H1948 H 0.64222 0.59002 0.01586 0.0
H1949 H 0.6789 0.56595 0.95675 0.0
H1950 H 0.65235 0.56044 0.95787 0.0
H1951 H 0.66997 0.5472 0.97044 0.0
C1952 C 0.59843 0.55648 0.98001 0.0
C1953 C 0.59903 0.53627 0.98119 0.0
C1954 C 0.61591 0.56939 0.98394 0.0
C1955 C 0.63434 0.56236 0.989 0.0
C1956 C 0.63499 0.54224 0.99047 0.0
H1957 H 0.75355 0.62925 0.00904 0.0
H1958 H 0.72634 0.60241 0.00563 0.0
C1959 C 0.61748 0.5293 0.98661 0.0
C1960 C 0.65278 0.57622 0.9928 0.0
H1961 H 0.69672 0.59109 0.97659 0.0
C1962 C 0.65419 0.59021 0.00734 0.0
C1963 C 0.66842 0.57629 0.98173 0.0
C1964 C 0.66741 0.56178 0.96573 0.0
C1965 C 0.67074 0.60448 0.01099 0.0
C1966 C 0.68604 0.60503 0.99953 0.0
C1967 C 0.68494 0.59066 0.98531 0.0
C1968 C 0.70263 0.62111 0.00146 0.0
C1969 C 0.67167 0.61884 0.0271 0.0
C1970 C 0.69832 0.64043 0.99986 0.0
C1971 C 0.71374 0.65575 0.0018 0.0
C1972 C 0.7339 0.65208 0.00525 0.0
C1973 C 0.73822 0.63262 0.00646 0.0
C1974 C 0.7227 0.61726 0.00452 0.0
H1975 H 0.66244 0.61295 0.03731 0.0
H1976 H 0.68734 0.62267 0.03345 0.0
H1977 H 0.66569 0.63243 0.02277 0.0
H1978 H 0.68296 0.64369 0.99706 0.0
H1979 H 0.7098 0.67049 0.00063 0.0
H1980 H 0.28201 0.6891 0.26848 0.0
H1981 H 0.25847 0.66016 0.27065 0.0
H1982 H 0.251 0.64989 0.21304 0.0
H1983 H 0.2745 0.67886 0.21075 0.0
H1984 H 0.21485 0.64485 0.22813 0.0
H1985 H 0.27292 0.60435 0.26279 0.0
H1986 H 0.27073 0.62774 0.27381 0.0
H1987 H 0.27908 0.62641 0.25191 0.0
C1988 C 0.2754 0.68064 0.25628 0.0
C1989 C 0.28024 0.68615 0.23945 0.0
C1990 C 0.26196 0.66413 0.25754 0.0
C1991 C 0.25327 0.65272 0.24202 0.0
C1992 C 0.25759 0.65849 0.22518 0.0
H1993 H 0.20107 0.53295 0.24139 0.0
H1994 H 0.22016 0.56329 0.23542 0.0
C1995 C 0.27098 0.67505 0.22389 0.0
C1996 C 0.24006 0.63451 0.2434 0.0
H1997 H 0.23927 0.59 0.26092 0.0
C1998 C 0.22016 0.63281 0.23525 0.0
C1999 C 0.24715 0.61873 0.25246 0.0
C2000 C 0.26868 0.61925 0.2606 0.0
C2001 C 0.20703 0.61583 0.23618 0.0
C2002 C 0.21396 0.60032 0.24576 0.0
C2003 C 0.23394 0.60196 0.25368 0.0
C2004 C 0.20093 0.58212 0.24769 0.0
C2005 C 0.18601 0.61451 0.22665 0.0
C2006 C 0.1836 0.5826 0.25639 0.0
C2007 C 0.17248 0.5652 0.25966 0.0
C2008 C 0.17864 0.54703 0.25447 0.0
C2009 C 0.19577 0.54664 0.24544 0.0
C2010 C 0.20678 0.564 0.24207 0.0
H2011 H 0.18483 0.62499 0.21603 0.0
H2012 H 0.18106 0.59953 0.22047 0.0
H2013 H 0.17559 0.61809 0.23649 0.0
H2014 H 0.17904 0.5964 0.26119 0.0
H2015 H 0.15944 0.56601 0.26677 0.0
H2016 H 0.942 0.52628 0.07008 0.0
H2017 H 0.91821 0.55013 0.0636 0.0
H2018 H 0.93568 0.55335 0.01031 0.0
H2019 H 0.9601 0.53018 0.01692 0.0
H2020 H 0.93383 0.58913 0.02619 0.0
H2021 H 0.86429 0.54153 0.03298 0.0
H2022 H 0.88239 0.54285 0.05249 0.0
H2023 H 0.88809 0.53207 0.03151 0.0
C2024 C 0.9409 0.53216 0.05702 0.0
C2025 C 0.95292 0.52622 0.044 0.0
C2026 C 0.92707 0.54559 0.05325 0.0
C2027 C 0.92485 0.55321 0.03633 0.0
C2028 C 0.93697 0.54749 0.02338 0.0
H2029 H 0.82791 0.62376 0.0021 0.0
H2030 H 0.85034 0.59784 0.00362 0.0
C2031 C 0.95084 0.53414 0.02716 0.0
C2032 C 0.91051 0.56777 0.03238 0.0
H2033 H 0.86135 0.57578 0.03225 0.0
C2034 C 0.91796 0.58614 0.02737 0.0
C2035 C 0.88972 0.56376 0.03358 0.0
C2036 C 0.88059 0.54391 0.03775 0.0
C2037 C 0.90534 0.60083 0.02417 0.0
C2038 C 0.88478 0.5972 0.0264 0.0
C2039 C 0.87716 0.5786 0.03074 0.0
C2040 C 0.87122 0.61283 0.02519 0.0
C2041 C 0.91417 0.62012 0.01843 0.0
C2042 C 0.87538 0.62966 0.03696 0.0
C2043 C 0.8627 0.64442 0.03611 0.0
C2044 C 0.84544 0.64262 0.02355 0.0
C2045 C 0.84113 0.62563 0.01187 0.0
C2046 C 0.8539 0.61081 0.01273 0.0
H2047 H 0.92806 0.61854 0.01204 0.0
H2048 H 0.9033 0.62644 0.00886 0.0
H2049 H 0.91815 0.63057 0.03041 0.0
H2050 H 0.88839 0.63132 0.04696 0.0
H2051 H 0.86643 0.65721 0.04541 0.0
H2052 H 0.09519 0.01413 0.01626 0.0
H2053 H 0.11975 0.99178 0.00939 0.0
H2054 H 0.08305 0.94423 0.02822 0.0
H2055 H 0.05826 0.96648 0.03494 0.0
H2056 H 0.14064 0.96715 0.03354 0.0
H2057 H 0.09283 0.92505 0.97634 0.0
H2058 H 0.08789 0.94892 0.98489 0.0
H2059 H 0.08135 0.92777 0.99669 0.0
C2060 C 0.09231 0.99889 0.01886 0.0
C2061 C 0.07471 0.992 0.026 0.0
C2062 C 0.10638 0.98618 0.015 0.0
C2063 C 0.10305 0.96634 0.01805 0.0
C2064 C 0.08573 0.95947 0.02553 0.0
H2065 H 0.162 0.86313 0.00742 0.0
H2066 H 0.13905 0.88795 0.00995 0.0
C2067 C 0.07169 0.9722 0.02951 0.0
C2068 C 0.11776 0.95283 0.01352 0.0
H2069 H 0.12326 0.91264 0.98647 0.0
C2070 C 0.13696 0.9553 0.02316 0.0
C2071 C 0.11285 0.93749 0.99993 0.0
C2072 C 0.09268 0.93466 0.98872 0.0
C2073 C 0.15118 0.94233 0.02006 0.0
C2074 C 0.14618 0.92677 0.00662 0.0
C2075 C 0.1271 0.92459 0.99672 0.0
C2076 C 0.15994 0.91172 0.00359 0.0
C2077 C 0.1711 0.94494 0.0317 0.0
C2078 C 0.17917 0.9167 0.99861 0.0
C2079 C 0.19247 0.90247 0.99722 0.0
C2080 C 0.18666 0.88302 0.00067 0.0
C2081 C 0.16704 0.87798 0.00478 0.0
C2082 C 0.15385 0.89216 0.00622 0.0
H2083 H 0.17079 0.95473 0.04393 0.0
H2084 H 0.17548 0.93065 0.03586 0.0
H2085 H 0.18281 0.95154 0.02397 0.0
H2086 H 0.18402 0.93163 0.99611 0.0
H2087 H 0.20743 0.90681 0.99394 0.0
loop_
_geom_bond_atom_site_label_1
_geom_bond_atom_site_label_2
_geom_bond_distance
_geom_bond_site_symmetry_2
_ccdc_geom_bond_type
H0 C5 0.930 . S
H1 C8 0.930 . S
H2 C10 0.930 . S
H3 C4 1.016 . S
C4 H3 1.016 . S
C4 N11 1.286 1_556 S
C5 H0 0.930 . S
C5 C6 1.397 . S
C5 C7 1.361 . S
C6 C5 1.397 . S
C6 C10 1.390 . S
C7 C5 1.361 . S
C7 C8 1.393 . S
C7 N11 1.413 . S
C8 H1 0.930 . S
C8 C7 1.393 . S
C8 C9 1.399 . S
C9 C8 1.399 . S
C9 C10 1.381 . S
C10 H2 0.930 . S
C10 C6 1.390 . S
C10 C9 1.381 . S
N11 C4 1.286 1_554 S
N11 C7 1.413 . S
H12 C17 0.930 . S
H13 C20 0.930 . S
H14 C22 0.930 . S
H15 C16 1.016 . S
C16 H15 1.016 . S
C16 N23 1.286 . S
C17 H12 0.930 . S
C17 C18 1.397 . S
C17 C19 1.361 . S
C18 C17 1.397 . S
C18 C22 1.390 . S
C19 C17 1.361 . S
C19 C20 1.393 . S
C19 N23 1.413 . S
C20 H13 0.930 . S
C20 C19 1.393 . S
C20 C21 1.399 . S
C21 C20 1.399 . S
C21 C22 1.381 . S
C22 H14 0.930 . S
C22 C18 1.390 . S
C22 C21 1.381 . S
N23 C16 1.286 . S
N23 C19 1.413 . S
H24 C29 0.930 . S
H25 C32 0.930 . S
H26 C34 0.930 . S
H27 C28 1.016 1_455 S
C28 H27 1.016 1_655 S
C28 N35 1.286 . S
C29 H24 0.930 . S
C29 C30 1.397 . S
C29 C31 1.361 . S
C30 C29 1.397 . S
C30 C34 1.390 . S
C31 C29 1.361 . S
C31 C32 1.393 . S
C31 N35 1.413 . S
C32 H25 0.930 . S
C32 C31 1.393 . S
C32 C33 1.399 . S
C33 C32 1.399 . S
C33 C34 1.381 . S
C34 H26 0.930 . S
C34 C30 1.390 . S
C34 C33 1.381 . S
N35 C28 1.286 . S
N35 C31 1.413 . S
H36 C41 0.930 . S
H37 C44 0.930 . S
H38 C46 0.930 . S
H39 C40 1.016 . S
C40 H39 1.016 . S
C40 N47 1.286 . S
C41 H36 0.930 . S
C41 C42 1.397 . S
C41 C43 1.361 . S
C42 C41 1.397 . S
C42 C46 1.390 . S
C43 C41 1.361 . S
C43 C44 1.393 . S
C43 N47 1.413 . S
C44 H37 0.930 . S
C44 C43 1.393 . S
C44 C45 1.399 . S
C45 C44 1.399 . S
C45 C46 1.381 . S
C46 H38 0.930 . S
C46 C42 1.390 . S
C46 C45 1.381 . S
N47 C40 1.286 . S
N47 C43 1.413 . S
H48 C53 0.930 . S
H49 C56 0.930 . S
H50 C58 0.939 . S
H51 C52 1.016 . S
C52 H51 1.016 . S
C52 N59 1.286 . S
C53 H48 0.930 . S
C53 C54 1.397 . S
C53 C55 1.361 . S
C54 C53 1.397 . S
C54 C58 1.385 1_565 S
C55 C53 1.361 . S
C55 C56 1.393 . S
C55 N59 1.413 . S
C56 H49 0.930 . S
C56 C55 1.393 . S
C56 C57 1.399 . S
C57 C56 1.399 . S
C57 C58 1.378 1_565 S
C58 H50 0.939 . S
C58 C54 1.385 1_545 S
C58 C57 1.378 1_545 S
N59 C52 1.286 . S
N59 C55 1.413 . S
H60 C65 0.930 . S
H61 C68 0.930 . S
H62 C70 0.930 . S
H63 C64 1.016 . S
C64 H63 1.016 . S
C64 N71 1.286 . S
C65 H60 0.930 . S
C65 C66 1.397 . S
C65 C67 1.361 . S
C66 C65 1.397 . S
C66 C70 1.390 . S
C67 C65 1.361 . S
C67 C68 1.393 . S
C67 N71 1.413 . S
C68 H61 0.930 . S
C68 C67 1.393 . S
C68 C69 1.399 . S
C69 C68 1.399 . S
C69 C70 1.381 . S
C70 H62 0.930 . S
C70 C66 1.390 . S
C70 C69 1.381 . S
N71 C64 1.286 . S
N71 C67 1.413 . S
H72 C77 0.930 . S
H73 C80 0.930 . S
H74 C82 0.930 . S
H75 C76 1.016 1_655 S
C76 H75 1.016 1_455 S
C76 N83 1.286 1_455 S
C77 H72 0.930 . S
C77 C78 1.397 . S
C77 C79 1.361 . S
C78 C77 1.397 . S
C78 C82 1.390 . S
C79 C77 1.361 . S
C79 C80 1.393 . S
C79 N83 1.413 . S
C80 H73 0.930 . S
C80 C79 1.393 . S
C80 C81 1.399 . S
C81 C80 1.399 . S
C81 C82 1.381 . S
C82 H74 0.930 . S
C82 C78 1.390 . S
C82 C81 1.381 . S
N83 C76 1.286 1_655 S
N83 C79 1.413 . S
H84 C89 0.930 . S
H85 C92 0.930 . S
H86 C94 0.930 . S
H87 C88 1.016 . S
C88 H87 1.016 . S
C88 N95 1.286 . S
C89 H84 0.930 . S
C89 C90 1.397 . S
C89 C91 1.361 . S
C90 C89 1.397 . S
C90 C94 1.390 . S
C91 C89 1.361 . S
C91 C92 1.393 . S
C91 N95 1.413 . S
C92 H85 0.930 . S
C92 C91 1.393 . S
C92 C93 1.399 . S
C93 C92 1.399 . S
C93 C94 1.381 . S
C94 H86 0.930 . S
C94 C90 1.390 . S
C94 C93 1.381 . S
N95 C88 1.286 . S
N95 C91 1.413 . S
H96 C101 0.930 . S
H97 C104 0.930 . S
H98 C106 0.930 . S
H99 C100 1.016 . S
C100 H99 1.016 . S
C100 N107 1.286 . S
C101 H96 0.930 . S
C101 C102 1.397 . S
C101 C103 1.361 . S
C102 C101 1.397 . S
C102 C106 1.390 . S
C103 C101 1.361 . S
C103 C104 1.393 . S
C103 N107 1.413 . S
C104 H97 0.930 . S
C104 C103 1.393 . S
C104 C105 1.399 . S
C105 C104 1.399 . S
C105 C106 1.381 . S
C106 H98 0.930 . S
C106 C102 1.390 . S
C106 C105 1.381 . S
N107 C100 1.286 . S
N107 C103 1.413 . S
H108 C113 0.930 . S
H109 C116 0.930 . S
H110 C118 0.930 1_545 S
H111 C112 1.016 . S
C112 H111 1.016 . S
C112 N119 1.286 . S
C113 H108 0.930 . S
C113 C114 1.397 . S
C113 C115 1.361 . S
C114 C113 1.397 . S
C114 C118 1.390 . S
C115 C113 1.361 . S
C115 C116 1.393 . S
C115 N119 1.413 . S
C116 H109 0.930 . S
C116 C115 1.393 . S
C116 C117 1.399 . S
C117 C116 1.399 . S
C117 C118 1.381 . S
C118 H110 0.930 1_565 S
C118 C114 1.390 . S
C118 C117 1.381 . S
N119 C112 1.286 . S
N119 C115 1.413 . S
H120 C125 0.930 . S
H121 C128 0.930 . S
H122 C130 0.930 . S
H123 C124 1.016 . S
C124 H123 1.016 . S
C124 N131 1.286 . S
C125 H120 0.930 . S
C125 C126 1.397 . S
C125 C127 1.361 . S
C126 C125 1.397 . S
C126 C130 1.390 . S
C127 C125 1.361 . S
C127 C128 1.393 . S
C127 N131 1.413 . S
C128 H121 0.930 . S
C128 C127 1.393 . S
C128 C129 1.399 . S
C129 C128 1.399 . S
C129 C130 1.381 . S
C130 H122 0.930 . S
C130 C126 1.390 . S
C130 C129 1.381 . S
N131 C124 1.286 . S
N131 C127 1.413 . S
H132 C137 0.930 . S
H133 C140 0.930 . S
H134 C142 0.930 . S
H135 C136 1.016 . S
C136 H135 1.016 . S
C136 N143 1.286 . S
C137 H132 0.930 . S
C137 C138 1.397 . S
C137 C139 1.361 . S
C138 C137 1.397 . S
C138 C142 1.390 . S
C139 C137 1.361 . S
C139 C140 1.393 . S
C139 N143 1.413 . S
C140 H133 0.930 . S
C140 C139 1.393 . S
C140 C141 1.399 . S
C141 C140 1.399 . S
C141 C142 1.381 . S
C142 H134 0.930 . S
C142 C138 1.390 . S
C142 C141 1.381 . S
N143 C136 1.286 . S
N143 C139 1.413 . S
H144 C149 0.930 . S
H145 C152 0.930 . S
H146 C154 0.930 . S
H147 C148 1.016 . S
C148 H147 1.016 . S
C148 N155 1.286 . S
C149 H144 0.930 . S
C149 C150 1.397 . S
C149 C151 1.361 . S
C150 C149 1.397 . S
C150 C154 1.390 . S
C151 C149 1.361 . S
C151 C152 1.393 . S
C151 N155 1.413 . S
C152 H145 0.930 . S
C152 C151 1.393 . S
C152 C153 1.399 . S
C153 C152 1.399 . S
C153 C154 1.381 . S
C154 H146 0.930 . S
C154 C150 1.390 . S
C154 C153 1.381 . S
N155 C148 1.286 . S
N155 C151 1.413 . S
H156 C161 0.930 . S
H157 C164 0.930 . S
H158 C166 0.930 . S
H159 C160 1.016 . S
C160 H159 1.016 . S
C160 N167 1.286 . S
C161 H156 0.930 . S
C161 C162 1.397 . S
C161 C163 1.361 . S
C162 C161 1.397 . S
C162 C166 1.390 . S
C163 C161 1.361 . S
C163 C164 1.393 . S
C163 N167 1.413 . S
C164 H157 0.930 . S
C164 C163 1.393 . S
C164 C165 1.399 . S
C165 C164 1.399 . S
C165 C166 1.381 . S
C166 H158 0.930 . S
C166 C162 1.390 . S
C166 C165 1.381 . S
N167 C160 1.286 . S
N167 C163 1.413 . S
H168 C173 0.930 . S
H169 C176 0.930 . S
H170 C178 0.930 . S
H171 C172 1.016 . S
C172 H171 1.016 . S
C172 N179 1.286 . S
C173 H168 0.930 . S
C173 C174 1.397 . S
C173 C175 1.361 . S
C174 C173 1.397 . S
C174 C178 1.390 . S
C175 C173 1.361 . S
C175 C176 1.393 . S
C175 N179 1.413 . S
C176 H169 0.930 . S
C176 C175 1.393 . S
C176 C177 1.399 . S
C177 C176 1.399 . S
C177 C178 1.381 . S
C178 H170 0.930 . S
C178 C174 1.390 . S
C178 C177 1.381 . S
N179 C172 1.286 . S
N179 C175 1.413 . S
H180 C185 0.930 . S
H181 C188 0.930 . S
H182 C190 0.930 . S
H183 C184 1.016 . S
C184 H183 1.016 . S
C184 N191 1.286 . S
C185 H180 0.930 . S
C185 C186 1.397 . S
C185 C187 1.361 . S
C186 C185 1.397 . S
C186 C190 1.390 . S
C187 C185 1.361 . S
C187 C188 1.393 . S
C187 N191 1.413 . S
C188 H181 0.930 . S
C188 C187 1.393 . S
C188 C189 1.399 . S
C189 C188 1.399 . S
C189 C190 1.381 . S
C190 H182 0.930 . S
C190 C186 1.390 . S
C190 C189 1.381 . S
N191 C184 1.286 . S
N191 C187 1.413 . S
Mg192 O193 2.028 . S
Mg192 O199 1.986 1_554 S
Mg192 O201 2.114 . S
Mg192 O202 2.251 . S
Mg192 O205 2.010 . S
O193 Mg192 2.028 . S
O193 C196 1.250 . S
O194 Mg195 2.028 . S
O194 C196 1.248 . S
Mg195 O194 2.028 . S
Mg195 O200 2.032 1_554 S
Mg195 O202 2.079 . S
C196 O193 1.250 . S
C196 O194 1.248 . S
C197 O198 1.264 . S
C197 O205 1.249 . S
O198 C197 1.264 . S
O199 Mg192 1.986 1_556 S
O199 C203 1.246 . S
O200 Mg195 2.032 1_556 S
O200 C203 1.259 . S
O201 Mg192 2.114 . S
O201 C204 1.252 . S
O202 Mg192 2.251 . S
O202 Mg195 2.079 . S
O202 C204 1.273 . S
C203 O199 1.246 . S
C203 O200 1.259 . S
C204 O201 1.252 . S
C204 O202 1.273 . S
O205 Mg192 2.010 . S
O205 C197 1.249 . S
Mg206 O207 2.028 . S
Mg206 O213 1.986 . S
Mg206 O215 2.114 . S
Mg206 O216 2.251 . S
Mg206 O219 2.010 . S
O207 Mg206 2.028 . S
O207 C210 1.250 . S
O208 Mg209 2.028 . S
O208 C210 1.248 . S
Mg209 O208 2.028 . S
Mg209 O214 2.032 . S
Mg209 O216 2.079 . S
C210 O207 1.250 . S
C210 O208 1.248 . S
C211 O212 1.264 . S
C211 O219 1.249 . S
O212 C211 1.264 . S
O213 Mg206 1.986 . S
O213 C217 1.246 . S
O214 Mg209 2.032 . S
O214 C217 1.259 . S
O215 Mg206 2.114 . S
O215 C218 1.252 . S
O216 Mg206 2.251 . S
O216 Mg209 2.079 . S
O216 C218 1.273 . S
C217 O213 1.246 . S
C217 O214 1.259 . S
C218 O215 1.252 . S
C218 O216 1.273 . S
O219 Mg206 2.010 . S
O219 C211 1.249 . S
Mg220 O221 2.028 . S
Mg220 O227 1.986 1_554 S
Mg220 O229 2.114 . S
Mg220 O230 2.251 . S
Mg220 O233 2.010 . S
O221 Mg220 2.028 . S
O221 C224 1.250 . S
O222 Mg223 2.035 . S
O222 C224 1.243 1_556 S
Mg223 O222 2.035 . S
Mg223 O228 2.032 . S
Mg223 O230 2.079 1_556 S
C224 O221 1.250 . S
C224 O222 1.243 1_554 S
C225 O226 1.264 . S
C225 O233 1.249 . S
O226 C225 1.264 . S
O227 Mg220 1.986 1_556 S
O227 C231 1.246 . S
O228 Mg223 2.032 . S
O228 C231 1.259 . S
O229 Mg220 2.114 . S
O229 C232 1.252 . S
O230 Mg220 2.251 . S
O230 Mg223 2.079 1_554 S
O230 C232 1.273 . S
C231 O227 1.246 . S
C231 O228 1.259 . S
C232 O229 1.252 . S
C232 O230 1.273 . S
O233 Mg220 2.010 . S
O233 C225 1.249 . S
Mg234 O235 2.028 . S
Mg234 O241 1.986 . S
Mg234 O243 2.114 . S
Mg234 O244 2.251 . S
Mg234 O247 2.010 . S
O235 Mg234 2.028 . S
O235 C238 1.250 . S
O236 Mg237 2.026 1_565 S
O236 C238 1.248 1_565 S
Mg237 O236 2.026 1_545 S
Mg237 O242 2.049 . S
Mg237 O244 2.126 . S
C238 O235 1.250 . S
C238 O236 1.248 1_545 S
C239 O240 1.264 . S
C239 O247 1.249 . S
O240 C239 1.264 . S
O241 Mg234 1.986 . S
O241 C245 1.246 . S
O242 Mg237 2.049 . S
O242 C245 1.259 . S
O243 Mg234 2.114 . S
O243 C246 1.252 . S
O244 Mg234 2.251 . S
O244 Mg237 2.126 . S
O244 C246 1.273 . S
C245 O241 1.246 . S
C245 O242 1.259 . S
C246 O243 1.252 . S
C246 O244 1.273 . S
O247 Mg234 2.010 . S
O247 C239 1.249 . S
Mg248 O249 2.028 . S
Mg248 O255 1.986 . S
Mg248 O257 2.114 . S
Mg248 O258 2.251 . S
Mg248 O261 2.010 . S
O249 Mg248 2.028 . S
O249 C252 1.250 . S
O250 Mg251 2.028 . S
O250 C252 1.248 . S
Mg251 O250 2.028 . S
Mg251 O256 2.032 . S
Mg251 O258 2.079 . S
C252 O249 1.250 . S
C252 O250 1.248 . S
C253 O254 1.264 . S
C253 O261 1.249 . S
O254 C253 1.264 . S
O255 Mg248 1.986 . S
O255 C259 1.246 . S
O256 Mg251 2.032 . S
O256 C259 1.259 . S
O257 Mg248 2.114 . S
O257 C260 1.252 . S
O258 Mg248 2.251 . S
O258 Mg251 2.079 . S
O258 C260 1.273 . S
C259 O255 1.246 . S
C259 O256 1.259 . S
C260 O257 1.252 . S
C260 O258 1.273 . S
O261 Mg248 2.010 . S
O261 C253 1.249 . S
Mg262 O263 2.028 . S
Mg262 O269 1.986 . S
Mg262 O271 2.114 . S
Mg262 O272 2.251 . S
Mg262 O275 2.010 . S
O263 Mg262 2.028 . S
O263 C266 1.250 . S
O264 Mg265 2.028 . S
O264 C266 1.248 . S
Mg265 O264 2.028 . S
Mg265 O270 2.032 . S
Mg265 O272 2.079 . S
C266 O263 1.250 . S
C266 O264 1.248 . S
C267 O268 1.264 . S
C267 O275 1.249 . S
O268 C267 1.264 . S
O269 Mg262 1.986 . S
O269 C273 1.246 . S
O270 Mg265 2.032 . S
O270 C273 1.259 . S
O271 Mg262 2.114 . S
O271 C274 1.252 . S
O272 Mg262 2.251 . S
O272 Mg265 2.079 . S
O272 C274 1.273 . S
C273 O269 1.246 . S
C273 O270 1.259 . S
C274 O271 1.252 . S
C274 O272 1.273 . S
O275 Mg262 2.010 . S
O275 C267 1.249 . S
Mg276 O277 2.028 . S
Mg276 O283 1.986 . S
Mg276 O285 2.114 . S
Mg276 O286 2.251 . S
Mg276 O289 2.010 . S
O277 Mg276 2.028 . S
O277 C280 1.250 . S
O278 Mg279 2.028 . S
O278 C280 1.248 . S
Mg279 O278 2.028 . S
Mg279 O284 2.032 . S
Mg279 O286 2.079 . S
C280 O277 1.250 . S
C280 O278 1.248 . S
C281 O282 1.264 . S
C281 O289 1.249 . S
O282 C281 1.264 . S
O283 Mg276 1.986 . S
O283 C287 1.246 . S
O284 Mg279 2.032 . S
O284 C287 1.259 . S
O285 Mg276 2.114 . S
O285 C288 1.252 . S
O286 Mg276 2.251 . S
O286 Mg279 2.079 . S
O286 C288 1.273 . S
C287 O283 1.246 . S
C287 O284 1.259 . S
C288 O285 1.252 . S
C288 O286 1.273 . S
O289 Mg276 2.010 . S
O289 C281 1.249 . S
Mg290 O291 2.028 1_545 S
Mg290 O297 1.986 1_545 S
Mg290 O299 2.114 . S
Mg290 O300 2.251 . S
Mg290 O303 2.010 . S
O291 Mg290 2.028 1_565 S
O291 C294 1.250 . S
O292 Mg293 2.028 . S
O292 C294 1.248 . S
Mg293 O292 2.028 . S
Mg293 O298 2.032 . S
Mg293 O300 2.079 1_565 S
C294 O291 1.250 . S
C294 O292 1.248 . S
C295 O296 1.264 . S
C295 O303 1.249 . S
O296 C295 1.264 . S
O297 Mg290 1.986 1_565 S
O297 C301 1.246 . S
O298 Mg293 2.032 . S
O298 C301 1.259 . S
O299 Mg290 2.114 . S
O299 C302 1.252 . S
O300 Mg290 2.251 . S
O300 Mg293 2.079 1_545 S
O300 C302 1.273 . S
C301 O297 1.246 . S
C301 O298 1.259 . S
C302 O299 1.252 . S
C302 O300 1.273 . S
O303 Mg290 2.010 . S
O303 C295 1.249 . S
Mg304 O305 2.028 . S
Mg304 O311 1.986 . S
Mg304 O313 2.114 . S
Mg304 O314 2.251 . S
Mg304 O317 2.010 . S
O305 Mg304 2.028 . S
O305 C308 1.250 1_455 S
O306 Mg307 2.028 . S
O306 C308 1.248 . S
Mg307 O306 2.028 . S
Mg307 O312 2.032 . S
Mg307 O314 2.079 1_655 S
C308 O305 1.250 1_655 S
C308 O306 1.248 . S
C309 O310 1.264 . S
C309 O317 1.249 . S
O310 C309 1.264 . S
O311 Mg304 1.986 . S
O311 C315 1.246 . S
O312 Mg307 2.032 . S
O312 C315 1.259 1_655 S
O313 Mg304 2.114 . S
O313 C316 1.252 . S
O314 Mg304 2.251 . S
O314 Mg307 2.079 1_455 S
O314 C316 1.273 . S
C315 O311 1.246 . S
C315 O312 1.259 1_455 S
C316 O313 1.252 . S
C316 O314 1.273 . S
O317 Mg304 2.010 . S
O317 C309 1.249 . S
Mg318 O319 2.028 . S
Mg318 O325 1.986 . S
Mg318 O327 2.114 . S
Mg318 O328 2.251 . S
Mg318 O331 2.010 . S
O319 Mg318 2.028 . S
O319 C322 1.250 . S
O320 Mg321 2.028 . S
O320 C322 1.248 . S
Mg321 O320 2.028 . S
Mg321 O326 2.032 . S
Mg321 O328 2.079 . S
C322 O319 1.250 . S
C322 O320 1.248 . S
C323 O324 1.264 . S
C323 O331 1.249 . S
O324 C323 1.264 . S
O325 Mg318 1.986 . S
O325 C329 1.246 . S
O326 Mg321 2.032 . S
O326 C329 1.259 . S
O327 Mg318 2.114 . S
O327 C330 1.252 . S
O328 Mg318 2.251 . S
O328 Mg321 2.079 . S
O328 C330 1.273 . S
C329 O325 1.246 . S
C329 O326 1.259 . S
C330 O327 1.252 . S
C330 O328 1.273 . S
O331 Mg318 2.010 . S
O331 C323 1.249 . S
Mg332 O333 2.028 1_655 S
Mg332 O339 1.991 . S
Mg332 O341 2.114 . S
Mg332 O342 2.251 1_655 S
Mg332 O345 2.010 . S
O333 Mg332 2.028 1_455 S
O333 C336 1.250 . S
O334 Mg335 2.028 . S
O334 C336 1.248 . S
Mg335 O334 2.028 . S
Mg335 O340 2.032 . S
Mg335 O342 2.079 . S
C336 O333 1.250 . S
C336 O334 1.248 . S
C337 O338 1.264 . S
C337 O345 1.249 . S
O338 C337 1.264 . S
O339 Mg332 1.991 . S
O339 C343 1.232 1_655 S
O340 Mg335 2.032 . S
O340 C343 1.259 . S
O341 Mg332 2.114 . S
O341 C344 1.252 . S
O342 Mg332 2.251 1_455 S
O342 Mg335 2.079 . S
O342 C344 1.273 1_455 S
C343 O339 1.232 1_455 S
C343 O340 1.259 . S
C344 O341 1.252 . S
C344 O342 1.273 1_655 S
O345 Mg332 2.010 . S
O345 C337 1.249 . S
Mg346 O347 2.028 . S
Mg346 O353 1.986 . S
Mg346 O355 2.114 . S
Mg346 O356 2.251 . S
Mg346 O359 2.010 . S
O347 Mg346 2.028 . S
O347 C350 1.250 . S
O348 Mg349 2.028 . S
O348 C350 1.248 . S
Mg349 O348 2.028 . S
Mg349 O354 2.032 . S
Mg349 O356 2.079 . S
C350 O347 1.250 . S
C350 O348 1.248 . S
C351 O352 1.264 . S
C351 O359 1.249 . S
O352 C351 1.264 . S
O353 Mg346 1.986 . S
O353 C357 1.246 . S
O354 Mg349 2.032 . S
O354 C357 1.259 . S
O355 Mg346 2.114 . S
O355 C358 1.252 . S
O356 Mg346 2.251 . S
O356 Mg349 2.079 . S
O356 C358 1.273 . S
C357 O353 1.246 . S
C357 O354 1.259 . S
C358 O355 1.252 . S
C358 O356 1.273 . S
O359 Mg346 2.010 . S
O359 C351 1.249 . S
H360 C368 0.929 . S
H361 C370 0.930 . S
H362 C372 0.930 . S
H363 C375 0.929 . S
H364 C378 0.930 . S
H365 C380 0.960 . S
H366 C380 0.960 . S
H367 C380 0.960 . S
C368 H360 0.929 . S
C368 C369 1.377 . S
C368 C370 1.384 . S
C369 C368 1.377 . S
C369 C375 1.390 . S
C370 H361 0.930 . S
C370 C368 1.384 . S
C370 C371 1.372 . S
C371 C370 1.372 . S
C371 C372 1.400 . S
C371 C376 1.490 . S
C372 H362 0.930 . S
C372 C371 1.400 . S
C372 C375 1.386 . S
H373 C389 0.930 . S
H374 C390 0.931 . S
C375 H363 0.929 . S
C375 C369 1.390 . S
C375 C372 1.386 . S
C376 C371 1.490 . S
C376 C378 1.395 . S
C376 C379 1.403 . S
H377 C383 0.930 . S
C378 H364 0.930 . S
C378 C376 1.395 . S
C378 C381 1.403 . S
C379 C376 1.403 . S
C379 C380 1.524 . S
C379 C383 1.400 . S
C380 H365 0.960 . S
C380 H366 0.960 . S
C380 H367 0.960 . S
C380 C379 1.524 . S
C381 C378 1.403 . S
C381 C382 1.392 . S
C381 C385 1.495 . S
C382 C381 1.392 . S
C382 C383 1.385 . S
C382 C384 1.478 . S
C383 H377 0.930 . S
C383 C379 1.400 . S
C383 C382 1.385 . S
C384 C382 1.478 . S
C384 C386 1.381 . S
C384 C390 1.383 . S
C385 C381 1.495 . S
C385 H391 0.959 . S
C385 H392 0.961 . S
C385 H393 0.960 . S
C386 C384 1.381 . S
C386 C387 1.394 . S
C386 H394 0.930 . S
C387 C386 1.394 . S
C387 C388 1.383 . S
C387 H395 0.929 . S
C388 C387 1.383 . S
C388 C389 1.377 . S
C389 H373 0.930 . S
C389 C388 1.377 . S
C389 C390 1.379 . S
C390 H374 0.931 . S
C390 C384 1.383 . S
C390 C389 1.379 . S
H391 C385 0.959 . S
H392 C385 0.961 . S
H393 C385 0.960 . S
H394 C386 0.930 . S
H395 C387 0.929 . S
H396 C404 0.929 . S
H397 C406 0.930 . S
H398 C408 0.930 . S
H399 C411 0.929 1_655 S
H400 C414 0.930 . S
H401 C416 0.960 . S
H402 C416 0.960 . S
H403 C416 0.960 . S
C404 H396 0.929 . S
C404 C405 1.377 . S
C404 C406 1.384 . S
C405 C404 1.377 . S
C405 C411 1.390 . S
C406 H397 0.930 . S
C406 C404 1.384 . S
C406 C407 1.372 . S
C407 C406 1.372 . S
C407 C408 1.400 . S
C407 C412 1.490 . S
C408 H398 0.930 . S
C408 C407 1.400 . S
C408 C411 1.386 . S
H409 C425 0.930 . S
H410 C426 0.931 . S
C411 H399 0.929 1_455 S
C411 C405 1.390 . S
C411 C408 1.386 . S
C412 C407 1.490 . S
C412 C414 1.395 . S
C412 C415 1.403 . S
H413 C419 0.930 . S
C414 H400 0.930 . S
C414 C412 1.395 . S
C414 C417 1.403 . S
C415 C412 1.403 . S
C415 C416 1.524 . S
C415 C419 1.400 . S
C416 H401 0.960 . S
C416 H402 0.960 . S
C416 H403 0.960 . S
C416 C415 1.524 . S
C417 C414 1.403 . S
C417 C418 1.392 . S
C417 C421 1.495 . S
C418 C417 1.392 . S
C418 C419 1.385 . S
C418 C420 1.478 . S
C419 H413 0.930 . S
C419 C415 1.400 . S
C419 C418 1.385 . S
C420 C418 1.478 . S
C420 C422 1.381 . S
C420 C426 1.383 . S
C421 C417 1.495 . S
C421 H427 0.959 . S
C421 H428 0.961 . S
C421 H429 0.960 . S
C422 C420 1.381 . S
C422 C423 1.394 . S
C422 H430 0.930 . S
C423 C422 1.394 . S
C423 C424 1.383 . S
C423 H431 0.929 . S
C424 C423 1.383 . S
C424 C425 1.377 . S
C425 H409 0.930 . S
C425 C424 1.377 . S
C425 C426 1.379 . S
C426 H410 0.931 . S
C426 C420 1.383 . S
C426 C425 1.379 . S
H427 C421 0.959 . S
H428 C421 0.961 . S
H429 C421 0.960 . S
H430 C422 0.930 . S
H431 C423 0.929 . S
H432 C440 0.929 . S
H433 C442 0.930 . S
H434 C444 0.930 . S
H435 C447 0.929 . S
H436 C450 0.930 . S
H437 C452 0.960 . S
H438 C452 0.960 . S
H439 C452 0.960 . S
C440 H432 0.929 . S
C440 C441 1.377 . S
C440 C442 1.384 . S
C441 C440 1.377 . S
C441 C447 1.390 . S
C442 H433 0.930 . S
C442 C440 1.384 . S
C442 C443 1.372 . S
C443 C442 1.372 . S
C443 C444 1.400 . S
C443 C448 1.490 . S
C444 H434 0.930 . S
C444 C443 1.400 . S
C444 C447 1.386 . S
H445 C461 0.930 . S
H446 C462 0.931 . S
C447 H435 0.929 . S
C447 C441 1.390 . S
C447 C444 1.386 . S
C448 C443 1.490 . S
C448 C450 1.395 . S
C448 C451 1.403 . S
H449 C455 0.930 . S
C450 H436 0.930 . S
C450 C448 1.395 . S
C450 C453 1.403 . S
C451 C448 1.403 . S
C451 C452 1.524 . S
C451 C455 1.400 . S
C452 H437 0.960 . S
C452 H438 0.960 . S
C452 H439 0.960 . S
C452 C451 1.524 . S
C453 C450 1.403 . S
C453 C454 1.392 . S
C453 C457 1.495 . S
C454 C453 1.392 . S
C454 C455 1.385 . S
C454 C456 1.478 . S
C455 H449 0.930 . S
C455 C451 1.400 . S
C455 C454 1.385 . S
C456 C454 1.478 . S
C456 C458 1.381 . S
C456 C462 1.383 . S
C457 C453 1.495 . S
C457 H463 0.959 . S
C457 H464 0.961 . S
C457 H465 0.960 . S
C458 C456 1.381 . S
C458 C459 1.394 . S
C458 H466 0.930 . S
C459 C458 1.394 . S
C459 C460 1.383 . S
C459 H467 0.929 . S
C460 C459 1.383 . S
C460 C461 1.377 . S
C461 H445 0.930 . S
C461 C460 1.377 . S
C461 C462 1.379 . S
C462 H446 0.931 . S
C462 C456 1.383 . S
C462 C461 1.379 . S
H463 C457 0.959 . S
H464 C457 0.961 . S
H465 C457 0.960 . S
H466 C458 0.930 . S
H467 C459 0.929 . S
H468 C476 0.929 . S
H469 C478 0.930 . S
H470 C480 0.930 . S
H471 C483 0.929 . S
H472 C486 0.931 1_565 S
H473 C488 0.960 . S
H474 C488 0.960 . S
H475 C488 0.960 . S
C476 H468 0.929 . S
C476 C477 1.377 1_545 S
C476 C478 1.384 . S
C477 C476 1.377 1_565 S
C477 C483 1.390 . S
C478 H469 0.930 . S
C478 C476 1.384 . S
C478 C479 1.372 . S
C479 C478 1.372 . S
C479 C480 1.400 1_545 S
C479 C484 1.490 . S
C480 H470 0.930 . S
C480 C479 1.400 1_565 S
C480 C483 1.386 . S
H481 C497 0.930 . S
H482 C498 0.931 1_565 S
C483 H471 0.929 . S
C483 C477 1.390 . S
C483 C480 1.386 . S
C484 C479 1.490 . S
C484 C486 1.395 . S
C484 C487 1.374 1_455 S
H485 C491 0.930 . S
C486 H472 0.931 1_545 S
C486 C484 1.395 . S
C486 C489 1.403 . S
C487 C484 1.374 1_655 S
C487 C488 1.542 . S
C487 C491 1.411 . S
C488 H473 0.960 . S
C488 H474 0.960 . S
C488 H475 0.960 . S
C488 C487 1.542 . S
C489 C486 1.403 . S
C489 C490 1.383 1_455 S
C489 C493 1.495 . S
C490 C489 1.383 1_655 S
C490 C491 1.391 . S
C490 C492 1.482 . S
C491 H485 0.930 . S
C491 C487 1.411 . S
C491 C490 1.391 . S
C492 C490 1.482 . S
C492 C494 1.381 . S
C492 C498 1.383 . S
C493 C489 1.495 . S
C493 H499 0.952 1_545 S
C493 H500 0.961 1_545 S
C493 H501 0.960 . S
C494 C492 1.381 . S
C494 C495 1.394 . S
C494 H502 0.930 1_655 S
C495 C494 1.394 . S
C495 C496 1.383 . S
C495 H503 0.929 . S
C496 C495 1.383 . S
C496 C497 1.377 . S
C497 H481 0.930 . S
C497 C496 1.377 . S
C497 C498 1.379 . S
C498 H482 0.931 1_545 S
C498 C492 1.383 . S
C498 C497 1.379 . S
H499 C493 0.952 1_565 S
H500 C493 0.961 1_565 S
H501 C493 0.960 . S
H502 C494 0.930 1_455 S
H503 C495 0.929 . S
H504 C512 0.929 . S
H505 C514 0.930 . S
H506 C516 0.930 . S
H507 C519 0.929 . S
H508 C522 0.930 . S
H509 C524 0.960 . S
H510 C524 0.960 . S
H511 C524 0.960 . S
C512 H504 0.929 . S
C512 C513 1.377 . S
C512 C514 1.384 . S
C513 C512 1.377 . S
C513 C519 1.390 . S
C514 H505 0.930 . S
C514 C512 1.384 . S
C514 C515 1.372 . S
C515 C514 1.372 . S
C515 C516 1.400 . S
C515 C520 1.490 . S
C516 H506 0.930 . S
C516 C515 1.400 . S
C516 C519 1.386 . S
H517 C533 0.930 . S
H518 C534 0.931 . S
C519 H507 0.929 . S
C519 C513 1.390 . S
C519 C516 1.386 . S
C520 C515 1.490 . S
C520 C522 1.395 . S
C520 C523 1.403 . S
H521 C527 0.930 . S
C522 H508 0.930 . S
C522 C520 1.395 . S
C522 C525 1.403 . S
C523 C520 1.403 . S
C523 C524 1.524 . S
C523 C527 1.400 . S
C524 H509 0.960 . S
C524 H510 0.960 . S
C524 H511 0.960 . S
C524 C523 1.524 . S
C525 C522 1.403 . S
C525 C526 1.392 . S
C525 C529 1.495 . S
C526 C525 1.392 . S
C526 C527 1.385 . S
C526 C528 1.478 . S
C527 H521 0.930 . S
C527 C523 1.400 . S
C527 C526 1.385 . S
C528 C526 1.478 . S
C528 C530 1.381 . S
C528 C534 1.383 . S
C529 C525 1.495 . S
C529 H535 0.959 . S
C529 H536 0.961 . S
C529 H537 0.960 . S
C530 C528 1.381 . S
C530 C531 1.394 . S
C530 H538 0.930 . S
C531 C530 1.394 . S
C531 C532 1.383 . S
C531 H539 0.929 . S
C532 C531 1.383 . S
C532 C533 1.377 . S
C533 H517 0.930 . S
C533 C532 1.377 . S
C533 C534 1.379 . S
C534 H518 0.931 . S
C534 C528 1.383 . S
C534 C533 1.379 . S
H535 C529 0.959 . S
H536 C529 0.961 . S
H537 C529 0.960 . S
H538 C530 0.930 . S
H539 C531 0.929 . S
H540 C548 0.929 . S
H541 C550 0.930 . S
H542 C552 0.930 . S
H543 C555 0.929 . S
H544 C558 0.930 . S
H545 C560 0.960 . S
H546 C560 0.960 . S
H547 C560 0.960 . S
C548 H540 0.929 . S
C548 C549 1.377 . S
C548 C550 1.384 . S
C549 C548 1.377 . S
C549 C555 1.390 . S
C550 H541 0.930 . S
C550 C548 1.384 . S
C550 C551 1.372 . S
C551 C550 1.372 . S
C551 C552 1.400 . S
C551 C556 1.490 . S
C552 H542 0.930 . S
C552 C551 1.400 . S
C552 C555 1.386 . S
H553 C569 0.930 . S
H554 C570 0.931 . S
C555 H543 0.929 . S
C555 C549 1.390 . S
C555 C552 1.386 . S
C556 C551 1.490 . S
C556 C558 1.395 . S
C556 C559 1.403 . S
H557 C563 0.930 . S
C558 H544 0.930 . S
C558 C556 1.395 . S
C558 C561 1.403 . S
C559 C556 1.403 . S
C559 C560 1.524 . S
C559 C563 1.400 . S
C560 H545 0.960 . S
C560 H546 0.960 . S
C560 H547 0.960 . S
C560 C559 1.524 . S
C561 C558 1.403 . S
C561 C562 1.392 . S
C561 C565 1.495 . S
C562 C561 1.392 . S
C562 C563 1.385 . S
C562 C564 1.478 . S
C563 H557 0.930 . S
C563 C559 1.400 . S
C563 C562 1.385 . S
C564 C562 1.478 . S
C564 C566 1.381 . S
C564 C570 1.383 . S
C565 C561 1.495 . S
C565 H571 0.959 . S
C565 H572 0.961 . S
C565 H573 0.960 . S
C566 C564 1.381 . S
C566 C567 1.394 . S
C566 H574 0.930 . S
C567 C566 1.394 . S
C567 C568 1.383 . S
C567 H575 0.929 . S
C568 C567 1.383 . S
C568 C569 1.377 . S
C569 H553 0.930 . S
C569 C568 1.377 . S
C569 C570 1.379 . S
C570 H554 0.931 . S
C570 C564 1.383 . S
C570 C569 1.379 . S
H571 C565 0.959 . S
H572 C565 0.961 . S
H573 C565 0.960 . S
H574 C566 0.930 . S
H575 C567 0.929 . S
H576 C584 0.929 . S
H577 C586 0.930 . S
H578 C588 0.930 . S
H579 C591 0.929 . S
H580 C594 0.930 . S
H581 C596 0.960 . S
H582 C596 0.960 . S
H583 C596 0.960 . S
C584 H576 0.929 . S
C584 C585 1.377 . S
C584 C586 1.384 . S
C585 C584 1.377 . S
C585 C591 1.390 . S
C586 H577 0.930 . S
C586 C584 1.384 . S
C586 C587 1.372 . S
C587 C586 1.372 . S
C587 C588 1.400 . S
C587 C592 1.490 . S
C588 H578 0.930 . S
C588 C587 1.400 . S
C588 C591 1.386 . S
H589 C605 0.930 . S
H590 C606 0.931 . S
C591 H579 0.929 . S
C591 C585 1.390 . S
C591 C588 1.386 . S
C592 C587 1.490 . S
C592 C594 1.395 . S
C592 C595 1.403 . S
H593 C599 0.930 . S
C594 H580 0.930 . S
C594 C592 1.395 . S
C594 C597 1.403 . S
C595 C592 1.403 . S
C595 C596 1.524 . S
C595 C599 1.400 . S
C596 H581 0.960 . S
C596 H582 0.960 . S
C596 H583 0.960 . S
C596 C595 1.524 . S
C597 C594 1.403 . S
C597 C598 1.392 . S
C597 C601 1.495 . S
C598 C597 1.392 . S
C598 C599 1.385 . S
C598 C600 1.478 . S
C599 H593 0.930 . S
C599 C595 1.400 . S
C599 C598 1.385 . S
C600 C598 1.478 . S
C600 C602 1.381 . S
C600 C606 1.383 . S
C601 C597 1.495 . S
C601 H607 0.959 . S
C601 H608 0.961 . S
C601 H609 0.960 . S
C602 C600 1.381 . S
C602 C603 1.394 . S
C602 H610 0.930 . S
C603 C602 1.394 . S
C603 C604 1.383 . S
C603 H611 0.929 . S
C604 C603 1.383 . S
C604 C605 1.377 . S
C605 H589 0.930 . S
C605 C604 1.377 . S
C605 C606 1.379 . S
C606 H590 0.931 . S
C606 C600 1.383 . S
C606 C605 1.379 . S
H607 C601 0.959 . S
H608 C601 0.961 . S
H609 C601 0.960 . S
H610 C602 0.930 . S
H611 C603 0.929 . S
H612 C620 0.929 1_545 S
H613 C622 0.922 1_545 S
H614 C624 0.930 . S
H615 C627 0.929 . S
H616 C630 0.930 . S
H617 C632 0.960 . S
H618 C632 0.960 . S
H619 C632 0.960 . S
C620 H612 0.929 1_565 S
C620 C621 1.377 . S
C620 C622 1.384 . S
C621 C620 1.377 . S
C621 C627 1.390 . S
C622 H613 0.922 1_565 S
C622 C620 1.384 . S
C622 C623 1.380 . S
C623 C622 1.380 . S
C623 C624 1.400 . S
C623 C628 1.490 . S
C624 H614 0.930 . S
C624 C623 1.400 . S
C624 C627 1.386 . S
H625 C641 0.930 . S
H626 C642 0.931 . S
C627 H615 0.929 . S
C627 C621 1.390 . S
C627 C624 1.386 . S
C628 C623 1.490 . S
C628 C630 1.395 . S
C628 C631 1.403 . S
H629 C635 0.930 . S
C630 H616 0.930 . S
C630 C628 1.395 . S
C630 C633 1.403 . S
C631 C628 1.403 . S
C631 C632 1.524 . S
C631 C635 1.400 . S
C632 H617 0.960 . S
C632 H618 0.960 . S
C632 H619 0.960 . S
C632 C631 1.524 . S
C633 C630 1.403 . S
C633 C634 1.392 . S
C633 C637 1.495 . S
C634 C633 1.392 . S
C634 C635 1.385 . S
C634 C636 1.478 . S
C635 H629 0.930 . S
C635 C631 1.400 . S
C635 C634 1.385 . S
C636 C634 1.478 . S
C636 C638 1.381 1_565 S
C636 C642 1.383 . S
C637 C633 1.495 . S
C637 H643 0.959 . S
C637 H644 0.961 . S
C637 H645 0.960 1_565 S
C638 C636 1.381 1_545 S
C638 C639 1.394 . S
C638 H646 0.930 . S
C639 C638 1.394 . S
C639 C640 1.383 1_545 S
C639 H647 0.929 . S
C640 C639 1.383 1_565 S
C640 C641 1.377 . S
C641 H625 0.930 . S
C641 C640 1.377 . S
C641 C642 1.379 . S
C642 H626 0.931 . S
C642 C636 1.383 . S
C642 C641 1.379 . S
H643 C637 0.959 . S
H644 C637 0.961 . S
H645 C637 0.960 1_545 S
H646 C638 0.930 . S
H647 C639 0.929 . S
H648 C656 0.929 . S
H649 C658 0.930 . S
H650 C660 0.930 . S
H651 C663 0.929 . S
H652 C666 0.930 . S
H653 C668 0.960 . S
H654 C668 0.960 . S
H655 C668 0.960 . S
C656 H648 0.929 . S
C656 C657 1.377 . S
C656 C658 1.384 . S
C657 C656 1.377 . S
C657 C663 1.390 . S
C658 H649 0.930 . S
C658 C656 1.384 . S
C658 C659 1.372 . S
C659 C658 1.372 . S
C659 C660 1.400 . S
C659 C664 1.490 . S
C660 H650 0.930 . S
C660 C659 1.400 . S
C660 C663 1.386 . S
H661 C677 0.930 . S
H662 C678 0.931 . S
C663 H651 0.929 . S
C663 C657 1.390 . S
C663 C660 1.386 . S
C664 C659 1.490 . S
C664 C666 1.395 . S
C664 C667 1.403 . S
H665 C671 0.930 . S
C666 H652 0.930 . S
C666 C664 1.395 . S
C666 C669 1.403 . S
C667 C664 1.403 . S
C667 C668 1.524 . S
C667 C671 1.400 . S
C668 H653 0.960 . S
C668 H654 0.960 . S
C668 H655 0.960 . S
C668 C667 1.524 . S
C669 C666 1.403 . S
C669 C670 1.392 . S
C669 C673 1.495 . S
C670 C669 1.392 . S
C670 C671 1.385 . S
C670 C672 1.478 . S
C671 H665 0.930 . S
C671 C667 1.400 . S
C671 C670 1.385 . S
C672 C670 1.478 . S
C672 C674 1.381 . S
C672 C678 1.383 . S
C673 C669 1.495 . S
C673 H679 0.959 . S
C673 H680 0.961 . S
C673 H681 0.960 . S
C674 C672 1.381 . S
C674 C675 1.394 . S
C674 H682 0.930 . S
C675 C674 1.394 . S
C675 C676 1.383 . S
C675 H683 0.929 . S
C676 C675 1.383 . S
C676 C677 1.377 . S
C677 H661 0.930 . S
C677 C676 1.377 . S
C677 C678 1.379 . S
C678 H662 0.931 . S
C678 C672 1.383 . S
C678 C677 1.379 . S
H679 C673 0.959 . S
H680 C673 0.961 . S
H681 C673 0.960 . S
H682 C674 0.930 . S
H683 C675 0.929 . S
H684 C692 0.929 . S
H685 C694 0.930 . S
H686 C696 0.930 . S
H687 C699 0.929 . S
H688 C702 0.930 . S
H689 C704 0.960 . S
H690 C704 0.960 . S
H691 C704 0.960 . S
C692 H684 0.929 . S
C692 C693 1.377 . S
C692 C694 1.384 . S
C693 C692 1.377 . S
C693 C699 1.390 . S
C694 H685 0.930 . S
C694 C692 1.384 . S
C694 C695 1.372 . S
C695 C694 1.372 . S
C695 C696 1.400 . S
C695 C700 1.490 . S
C696 H686 0.930 . S
C696 C695 1.400 . S
C696 C699 1.386 . S
H697 C713 0.930 . S
H698 C714 0.931 . S
C699 H687 0.929 . S
C699 C693 1.390 . S
C699 C696 1.386 . S
C700 C695 1.490 . S
C700 C702 1.395 . S
C700 C703 1.403 . S
H701 C707 0.930 . S
C702 H688 0.930 . S
C702 C700 1.395 . S
C702 C705 1.403 . S
C703 C700 1.403 . S
C703 C704 1.524 . S
C703 C707 1.400 . S
C704 H689 0.960 . S
C704 H690 0.960 . S
C704 H691 0.960 . S
C704 C703 1.524 . S
C705 C702 1.403 . S
C705 C706 1.392 . S
C705 C709 1.495 . S
C706 C705 1.392 . S
C706 C707 1.385 . S
C706 C708 1.478 . S
C707 H701 0.930 . S
C707 C703 1.400 . S
C707 C706 1.385 . S
C708 C706 1.478 . S
C708 C710 1.381 . S
C708 C714 1.383 . S
C709 C705 1.495 . S
C709 H715 0.959 . S
C709 H716 0.961 . S
C709 H717 0.960 . S
C710 C708 1.381 . S
C710 C711 1.394 . S
C710 H718 0.930 . S
C711 C710 1.394 . S
C711 C712 1.383 . S
C711 H719 0.929 . S
C712 C711 1.383 . S
C712 C713 1.377 . S
C713 H697 0.930 . S
C713 C712 1.377 . S
C713 C714 1.379 . S
C714 H698 0.931 . S
C714 C708 1.383 . S
C714 C713 1.379 . S
H715 C709 0.959 . S
H716 C709 0.961 . S
H717 C709 0.960 . S
H718 C710 0.930 . S
H719 C711 0.929 . S
H720 C728 0.929 . S
H721 C730 0.930 . S
H722 C732 0.930 . S
H723 C735 0.929 . S
H724 C738 0.930 . S
H725 C740 0.960 . S
H726 C740 0.960 . S
H727 C740 0.960 . S
C728 H720 0.929 . S
C728 C729 1.377 . S
C728 C730 1.384 . S
C729 C728 1.377 . S
C729 C735 1.390 . S
C730 H721 0.930 . S
C730 C728 1.384 . S
C730 C731 1.372 . S
C731 C730 1.372 . S
C731 C732 1.400 . S
C731 C736 1.490 . S
C732 H722 0.930 . S
C732 C731 1.400 . S
C732 C735 1.386 . S
H733 C749 0.930 . S
H734 C750 0.931 . S
C735 H723 0.929 . S
C735 C729 1.390 . S
C735 C732 1.386 . S
C736 C731 1.490 . S
C736 C738 1.395 . S
C736 C739 1.403 . S
H737 C743 0.930 . S
C738 H724 0.930 . S
C738 C736 1.395 . S
C738 C741 1.403 . S
C739 C736 1.403 . S
C739 C740 1.524 . S
C739 C743 1.400 . S
C740 H725 0.960 . S
C740 H726 0.960 . S
C740 H727 0.960 . S
C740 C739 1.524 . S
C741 C738 1.403 . S
C741 C742 1.392 . S
C741 C745 1.495 . S
C742 C741 1.392 . S
C742 C743 1.385 . S
C742 C744 1.478 . S
C743 H737 0.930 . S
C743 C739 1.400 . S
C743 C742 1.385 . S
C744 C742 1.478 . S
C744 C746 1.381 . S
C744 C750 1.383 . S
C745 C741 1.495 . S
C745 H751 0.959 . S
C745 H752 0.961 . S
C745 H753 0.960 . S
C746 C744 1.381 . S
C746 C747 1.394 . S
C746 H754 0.930 . S
C747 C746 1.394 . S
C747 C748 1.383 . S
C747 H755 0.929 . S
C748 C747 1.383 . S
C748 C749 1.377 . S
C749 H733 0.930 . S
C749 C748 1.377 . S
C749 C750 1.379 . S
C750 H734 0.931 . S
C750 C744 1.383 . S
C750 C749 1.379 . S
H751 C745 0.959 . S
H752 C745 0.961 . S
H753 C745 0.960 . S
H754 C746 0.930 . S
H755 C747 0.929 . S
H756 C764 0.929 . S
H757 C766 0.930 . S
H758 C768 0.930 . S
H759 C771 0.929 . S
H760 C774 0.930 . S
H761 C776 0.960 . S
H762 C776 0.960 . S
H763 C776 0.960 . S
C764 H756 0.929 . S
C764 C765 1.377 . S
C764 C766 1.384 . S
C765 C764 1.377 . S
C765 C771 1.390 . S
C766 H757 0.930 . S
C766 C764 1.384 . S
C766 C767 1.372 . S
C767 C766 1.372 . S
C767 C768 1.400 . S
C767 C772 1.490 . S
C768 H758 0.930 . S
C768 C767 1.400 . S
C768 C771 1.386 . S
H769 C785 0.930 . S
H770 C786 0.931 . S
C771 H759 0.929 . S
C771 C765 1.390 . S
C771 C768 1.386 . S
C772 C767 1.490 . S
C772 C774 1.395 . S
C772 C775 1.403 . S
H773 C779 0.930 . S
C774 H760 0.930 . S
C774 C772 1.395 . S
C774 C777 1.403 . S
C775 C772 1.403 . S
C775 C776 1.524 . S
C775 C779 1.400 . S
C776 H761 0.960 . S
C776 H762 0.960 . S
C776 H763 0.960 . S
C776 C775 1.524 . S
C777 C774 1.403 . S
C777 C778 1.392 . S
C777 C781 1.495 . S
C778 C777 1.392 . S
C778 C779 1.385 . S
C778 C780 1.478 . S
C779 H773 0.930 . S
C779 C775 1.400 . S
C779 C778 1.385 . S
C780 C778 1.478 . S
C780 C782 1.381 . S
C780 C786 1.383 . S
C781 C777 1.495 . S
C781 H787 0.959 . S
C781 H788 0.961 . S
C781 H789 0.960 . S
C782 C780 1.381 . S
C782 C783 1.394 . S
C782 H790 0.930 . S
C783 C782 1.394 . S
C783 C784 1.383 . S
C783 H791 0.929 . S
C784 C783 1.383 . S
C784 C785 1.377 . S
C785 H769 0.930 . S
C785 C784 1.377 . S
C785 C786 1.379 . S
C786 H770 0.931 . S
C786 C780 1.383 . S
C786 C785 1.379 . S
H787 C781 0.959 . S
H788 C781 0.961 . S
H789 C781 0.960 . S
H790 C782 0.930 . S
H791 C783 0.929 . S
H792 C800 0.929 . S
H793 C802 0.930 . S
H794 C804 0.930 . S
H795 C807 0.929 . S
H796 C810 0.930 . S
H797 C812 0.960 . S
H798 C812 0.960 . S
H799 C812 0.960 . S
C800 H792 0.929 . S
C800 C801 1.377 . S
C800 C802 1.384 . S
C801 C800 1.377 . S
C801 C807 1.390 . S
C802 H793 0.930 . S
C802 C800 1.384 . S
C802 C803 1.372 . S
C803 C802 1.372 . S
C803 C804 1.400 . S
C803 C808 1.490 . S
C804 H794 0.930 . S
C804 C803 1.400 . S
C804 C807 1.386 . S
H805 C821 0.930 . S
H806 C822 0.931 . S
C807 H795 0.929 . S
C807 C801 1.390 . S
C807 C804 1.386 . S
C808 C803 1.490 . S
C808 C810 1.395 . S
C808 C811 1.403 . S
H809 C815 0.930 . S
C810 H796 0.930 . S
C810 C808 1.395 . S
C810 C813 1.403 . S
C811 C808 1.403 . S
C811 C812 1.524 . S
C811 C815 1.400 . S
C812 H797 0.960 . S
C812 H798 0.960 . S
C812 H799 0.960 . S
C812 C811 1.524 . S
C813 C810 1.403 . S
C813 C814 1.392 . S
C813 C817 1.495 . S
C814 C813 1.392 . S
C814 C815 1.385 . S
C814 C816 1.478 . S
C815 H809 0.930 . S
C815 C811 1.400 . S
C815 C814 1.385 . S
C816 C814 1.478 . S
C816 C818 1.381 . S
C816 C822 1.383 . S
C817 C813 1.495 . S
C817 H823 0.959 . S
C817 H824 0.961 . S
C817 H825 0.960 . S
C818 C816 1.381 . S
C818 C819 1.394 . S
C818 H826 0.930 . S
C819 C818 1.394 . S
C819 C820 1.383 . S
C819 H827 0.929 . S
C820 C819 1.383 . S
C820 C821 1.377 . S
C821 H805 0.930 . S
C821 C820 1.377 . S
C821 C822 1.379 . S
C822 H806 0.931 . S
C822 C816 1.383 . S
C822 C821 1.379 . S
H823 C817 0.959 . S
H824 C817 0.961 . S
H825 C817 0.960 . S
H826 C818 0.930 . S
H827 C819 0.929 . S
H828 C836 0.929 . S
H829 C838 0.930 . S
H830 C840 0.930 . S
H831 C843 0.929 . S
H832 C846 0.930 . S
H833 C848 0.960 . S
H834 C848 0.960 . S
H835 C848 0.960 . S
C836 H828 0.929 . S
C836 C837 1.377 . S
C836 C838 1.384 . S
C837 C836 1.377 . S
C837 C843 1.390 . S
C838 H829 0.930 . S
C838 C836 1.384 . S
C838 C839 1.372 . S
C839 C838 1.372 . S
C839 C840 1.400 . S
C839 C844 1.490 . S
C840 H830 0.930 . S
C840 C839 1.400 . S
C840 C843 1.386 . S
H841 C857 0.930 . S
H842 C858 0.931 . S
C843 H831 0.929 . S
C843 C837 1.390 . S
C843 C840 1.386 . S
C844 C839 1.490 . S
C844 C846 1.395 . S
C844 C847 1.403 . S
H845 C851 0.930 . S
C846 H832 0.930 . S
C846 C844 1.395 . S
C846 C849 1.403 . S
C847 C844 1.403 . S
C847 C848 1.524 . S
C847 C851 1.400 . S
C848 H833 0.960 . S
C848 H834 0.960 . S
C848 H835 0.960 . S
C848 C847 1.524 . S
C849 C846 1.403 . S
C849 C850 1.392 . S
C849 C853 1.495 1_455 S
C850 C849 1.392 . S
C850 C851 1.385 . S
C850 C852 1.478 . S
C851 H845 0.930 . S
C851 C847 1.400 . S
C851 C850 1.385 . S
C852 C850 1.478 . S
C852 C854 1.381 . S
C852 C858 1.383 . S
C853 C849 1.495 1_655 S
C853 H859 0.959 . S
C853 H860 0.961 . S
C853 H861 0.960 . S
C854 C852 1.381 . S
C854 C855 1.394 . S
C854 H862 0.955 . S
C855 C854 1.394 . S
C855 C856 1.383 . S
C855 H863 0.929 1_455 S
C856 C855 1.383 . S
C856 C857 1.377 . S
C857 H841 0.930 . S
C857 C856 1.377 . S
C857 C858 1.379 . S
C858 H842 0.931 . S
C858 C852 1.383 . S
C858 C857 1.379 . S
H859 C853 0.959 . S
H860 C853 0.961 . S
H861 C853 0.960 . S
H862 C854 0.955 . S
H863 C855 0.929 1_655 S
H864 C872 0.929 . S
H865 C874 0.930 . S
H866 C876 0.930 . S
H867 C879 0.929 . S
H868 C882 0.930 . S
H869 C884 0.960 . S
H870 C884 0.960 . S
H871 C884 0.960 . S
C872 H864 0.929 . S
C872 C873 1.377 . S
C872 C874 1.384 . S
C873 C872 1.377 . S
C873 C879 1.390 . S
C874 H865 0.930 . S
C874 C872 1.384 . S
C874 C875 1.372 . S
C875 C874 1.372 . S
C875 C876 1.400 . S
C875 C880 1.490 . S
C876 H866 0.930 . S
C876 C875 1.400 . S
C876 C879 1.386 . S
H877 C893 0.930 . S
H878 C894 0.931 . S
C879 H867 0.929 . S
C879 C873 1.390 . S
C879 C876 1.386 . S
C880 C875 1.490 . S
C880 C882 1.395 . S
C880 C883 1.403 . S
H881 C887 0.930 . S
C882 H868 0.930 . S
C882 C880 1.395 . S
C882 C885 1.403 . S
C883 C880 1.403 . S
C883 C884 1.524 . S
C883 C887 1.400 . S
C884 H869 0.960 . S
C884 H870 0.960 . S
C884 H871 0.960 . S
C884 C883 1.524 . S
C885 C882 1.403 . S
C885 C886 1.392 . S
C885 C889 1.495 . S
C886 C885 1.392 . S
C886 C887 1.385 . S
C886 C888 1.478 . S
C887 H881 0.930 . S
C887 C883 1.400 . S
C887 C886 1.385 . S
C888 C886 1.478 . S
C888 C890 1.381 . S
C888 C894 1.383 . S
C889 C885 1.495 . S
C889 H895 0.959 . S
C889 H896 0.961 . S
C889 H897 0.960 . S
C890 C888 1.381 . S
C890 C891 1.394 . S
C890 H898 0.930 . S
C891 C890 1.394 . S
C891 C892 1.383 . S
C891 H899 0.929 . S
C892 C891 1.383 . S
C892 C893 1.377 . S
C893 H877 0.930 . S
C893 C892 1.377 . S
C893 C894 1.379 . S
C894 H878 0.931 . S
C894 C888 1.383 . S
C894 C893 1.379 . S
H895 C889 0.959 . S
H896 C889 0.961 . S
H897 C889 0.960 . S
H898 C890 0.930 . S
H899 C891 0.929 . S
H900 C908 0.929 . S
H901 C910 0.930 . S
H902 C912 0.957 . S
H903 C915 0.917 1_455 S
H904 C918 0.930 . S
H905 C920 0.965 . S
H906 C920 0.960 . S
H907 C920 0.960 1_455 S
C908 H900 0.929 . S
C908 C909 1.377 . S
C908 C910 1.384 . S
C909 C908 1.377 . S
C909 C915 1.400 . S
C910 H901 0.930 . S
C910 C908 1.384 . S
C910 C911 1.372 . S
C911 C910 1.372 . S
C911 C912 1.370 1_655 S
C911 C916 1.490 . S
C912 H902 0.957 . S
C912 C911 1.370 1_455 S
C912 C915 1.392 1_455 S
H913 C929 0.930 . S
H914 C930 0.931 . S
C915 H903 0.917 1_655 S
C915 C909 1.400 . S
C915 C912 1.392 1_655 S
C916 C911 1.490 . S
C916 C918 1.395 . S
C916 C919 1.403 . S
H917 C923 0.930 . S
C918 H904 0.930 . S
C918 C916 1.395 . S
C918 C921 1.403 . S
C919 C916 1.403 . S
C919 C920 1.524 . S
C919 C923 1.400 . S
C920 H905 0.965 . S
C920 H906 0.960 . S
C920 H907 0.960 1_655 S
C920 C919 1.524 . S
C921 C918 1.403 . S
C921 C922 1.392 . S
C921 C925 1.495 . S
C922 C921 1.392 . S
C922 C923 1.385 . S
C922 C924 1.478 . S
C923 H917 0.930 . S
C923 C919 1.400 . S
C923 C922 1.385 . S
C924 C922 1.478 . S
C924 C926 1.381 . S
C924 C930 1.383 1_655 S
C925 C921 1.495 . S
C925 H931 0.959 . S
C925 H932 0.961 . S
C925 H933 0.960 . S
C926 C924 1.381 . S
C926 C927 1.394 . S
C926 H934 0.930 . S
C927 C926 1.394 . S
C927 C928 1.383 . S
C927 H935 0.929 . S
C928 C927 1.383 . S
C928 C929 1.377 1_655 S
C929 H913 0.930 . S
C929 C928 1.377 1_455 S
C929 C930 1.379 . S
C930 H914 0.931 . S
C930 C924 1.383 1_455 S
C930 C929 1.379 . S
H931 C925 0.959 . S
H932 C925 0.961 . S
H933 C925 0.960 . S
H934 C926 0.930 . S
H935 C927 0.929 . S
H936 C944 0.929 . S
H937 C946 0.930 . S
H938 C948 0.930 . S
H939 C951 0.929 . S
H940 C954 0.930 . S
H941 C956 0.960 . S
H942 C956 0.960 . S
H943 C956 0.960 . S
C944 H936 0.929 . S
C944 C945 1.377 . S
C944 C946 1.384 . S
C945 C944 1.377 . S
C945 C951 1.390 . S
C946 H937 0.930 . S
C946 C944 1.384 . S
C946 C947 1.372 . S
C947 C946 1.372 . S
C947 C948 1.400 . S
C947 C952 1.490 . S
C948 H938 0.930 . S
C948 C947 1.400 . S
C948 C951 1.386 . S
H949 C965 0.945 . S
H950 C966 0.931 . S
C951 H939 0.929 . S
C951 C945 1.390 . S
C951 C948 1.386 . S
C952 C947 1.490 . S
C952 C954 1.395 . S
C952 C955 1.403 . S
H953 C959 0.930 . S
C954 H940 0.930 . S
C954 C952 1.395 . S
C954 C957 1.403 . S
C955 C952 1.403 . S
C955 C956 1.524 . S
C955 C959 1.400 . S
C956 H941 0.960 . S
C956 H942 0.960 . S
C956 H943 0.960 . S
C956 C955 1.524 . S
C957 C954 1.403 . S
C957 C958 1.392 . S
C957 C961 1.495 . S
C958 C957 1.392 . S
C958 C959 1.385 . S
C958 C960 1.478 . S
C959 H953 0.930 . S
C959 C955 1.400 . S
C959 C958 1.385 . S
C960 C958 1.478 . S
C960 C962 1.381 . S
C960 C966 1.383 . S
C961 C957 1.495 . S
C961 H967 0.959 . S
C961 H968 0.961 . S
C961 H969 0.960 . S
C962 C960 1.381 . S
C962 C963 1.394 . S
C962 H970 0.930 . S
C963 C962 1.394 . S
C963 C964 1.383 . S
C963 H971 0.929 . S
C964 C963 1.383 . S
C964 C965 1.377 . S
C965 H949 0.945 . S
C965 C964 1.377 . S
C965 C966 1.379 . S
C966 H950 0.931 . S
C966 C960 1.383 . S
C966 C965 1.379 . S
H967 C961 0.959 . S
H968 C961 0.961 . S
H969 C961 0.960 . S
H970 C962 0.930 . S
H971 C963 0.929 . S
H972 C980 0.929 . S
H973 C982 0.930 . S
H974 C984 0.930 . S
H975 C987 0.929 . S
H976 C990 0.930 . S
H977 C992 0.960 . S
H978 C992 0.960 . S
H979 C992 0.960 . S
C980 H972 0.929 . S
C980 C981 1.377 . S
C980 C982 1.384 . S
C981 C980 1.377 . S
C981 C987 1.390 . S
C982 H973 0.930 . S
C982 C980 1.384 . S
C982 C983 1.372 . S
C983 C982 1.372 . S
C983 C984 1.400 . S
C983 C988 1.490 . S
C984 H974 0.930 . S
C984 C983 1.400 . S
C984 C987 1.386 . S
H985 C1001 0.930 . S
H986 C1002 0.931 . S
C987 H975 0.929 . S
C987 C981 1.390 . S
C987 C984 1.386 . S
C988 C983 1.490 . S
C988 C990 1.395 . S
C988 C991 1.403 . S
H989 C995 0.930 . S
C990 H976 0.930 . S
C990 C988 1.395 . S
C990 C993 1.403 . S
C991 C988 1.403 . S
C991 C992 1.524 . S
C991 C995 1.400 . S
C992 H977 0.960 . S
C992 H978 0.960 . S
C992 H979 0.960 . S
C992 C991 1.524 . S
C993 C990 1.403 . S
C993 C994 1.392 . S
C993 C997 1.495 . S
C994 C993 1.392 . S
C994 C995 1.385 . S
C994 C996 1.478 . S
C995 H989 0.930 . S
C995 C991 1.400 . S
C995 C994 1.385 . S
C996 C994 1.478 . S
C996 C998 1.381 . S
C996 C1002 1.383 . S
C997 C993 1.495 . S
C997 H1003 0.959 . S
C997 H1004 0.961 . S
C997 H1005 0.960 . S
C998 C996 1.381 . S
C998 C999 1.394 . S
C998 H1006 0.930 . S
C999 C998 1.394 . S
C999 C1000 1.383 . S
C999 H1007 0.929 . S
C1000 C999 1.383 . S
C1000 C1001 1.377 . S
C1001 H985 0.930 . S
C1001 C1000 1.377 . S
C1001 C1002 1.379 . S
C1002 H986 0.931 . S
C1002 C996 1.383 . S
C1002 C1001 1.379 . S
H1003 C997 0.959 . S
H1004 C997 0.961 . S
H1005 C997 0.960 . S
H1006 C998 0.930 . S
H1007 C999 0.929 . S
H1008 C1016 0.929 . S
H1009 C1018 0.930 . S
H1010 C1020 0.930 1_545 S
H1011 C1023 0.929 . S
H1012 C1026 0.930 . S
H1013 C1028 0.960 . S
H1014 C1028 0.960 . S
H1015 C1028 0.960 . S
C1016 H1008 0.929 . S
C1016 C1017 1.377 1_565 S
C1016 C1018 1.384 . S
C1017 C1016 1.377 1_545 S
C1017 C1023 1.390 . S
C1018 H1009 0.930 . S
C1018 C1016 1.384 . S
C1018 C1019 1.372 . S
C1019 C1018 1.372 . S
C1019 C1020 1.400 . S
C1019 C1024 1.490 . S
C1020 H1010 0.930 1_565 S
C1020 C1019 1.400 . S
C1020 C1023 1.386 1_565 S
H1021 C1037 0.930 . S
H1022 C1038 0.931 . S
C1023 H1011 0.929 . S
C1023 C1017 1.390 . S
C1023 C1020 1.386 1_545 S
C1024 C1019 1.490 . S
C1024 C1026 1.395 1_556 S
C1024 C1027 1.403 . S
H1025 C1031 0.930 . S
C1026 H1012 0.930 . S
C1026 C1024 1.395 1_554 S
C1026 C1029 1.403 . S
C1027 C1024 1.403 . S
C1027 C1028 1.524 . S
C1027 C1031 1.400 . S
C1028 H1013 0.960 . S
C1028 H1014 0.960 . S
C1028 H1015 0.960 . S
C1028 C1027 1.524 . S
C1029 C1026 1.403 . S
C1029 C1030 1.392 1_554 S
C1029 C1033 1.495 . S
C1030 C1029 1.392 1_556 S
C1030 C1031 1.385 . S
C1030 C1032 1.478 1_556 S
C1031 H1025 0.930 . S
C1031 C1027 1.400 . S
C1031 C1030 1.385 . S
C1032 C1030 1.478 1_554 S
C1032 C1034 1.381 . S
C1032 C1038 1.383 . S
C1033 C1029 1.495 . S
C1033 H1039 0.959 . S
C1033 H1040 0.961 . S
C1033 H1041 0.960 . S
C1034 C1032 1.381 . S
C1034 C1035 1.394 . S
C1034 H1042 0.930 1_554 S
C1035 C1034 1.394 . S
C1035 C1036 1.383 . S
C1035 H1043 0.929 . S
C1036 C1035 1.383 . S
C1036 C1037 1.377 . S
C1037 H1021 0.930 . S
C1037 C1036 1.377 . S
C1037 C1038 1.379 . S
C1038 H1022 0.931 . S
C1038 C1032 1.383 . S
C1038 C1037 1.379 . S
H1039 C1033 0.959 . S
H1040 C1033 0.961 . S
H1041 C1033 0.960 . S
H1042 C1034 0.930 1_556 S
H1043 C1035 0.929 . S
H1044 C1052 0.929 . S
H1045 C1054 0.930 . S
H1046 C1056 0.930 . S
H1047 C1059 0.929 . S
H1048 C1062 0.930 . S
H1049 C1064 0.960 . S
H1050 C1064 0.960 . S
H1051 C1064 0.960 . S
C1052 H1044 0.929 . S
C1052 C1053 1.377 . S
C1052 C1054 1.384 . S
C1053 C1052 1.377 . S
C1053 C1059 1.390 . S
C1054 H1045 0.930 . S
C1054 C1052 1.384 . S
C1054 C1055 1.372 . S
C1055 C1054 1.372 . S
C1055 C1056 1.400 . S
C1055 C1060 1.490 . S
C1056 H1046 0.930 . S
C1056 C1055 1.400 . S
C1056 C1059 1.386 . S
H1057 C1073 0.930 . S
H1058 C1074 0.931 . S
C1059 H1047 0.929 . S
C1059 C1053 1.390 . S
C1059 C1056 1.386 . S
C1060 C1055 1.490 . S
C1060 C1062 1.395 . S
C1060 C1063 1.403 . S
H1061 C1067 0.930 . S
C1062 H1048 0.930 . S
C1062 C1060 1.395 . S
C1062 C1065 1.403 . S
C1063 C1060 1.403 . S
C1063 C1064 1.524 . S
C1063 C1067 1.400 . S
C1064 H1049 0.960 . S
C1064 H1050 0.960 . S
C1064 H1051 0.960 . S
C1064 C1063 1.524 . S
C1065 C1062 1.403 . S
C1065 C1066 1.392 . S
C1065 C1069 1.495 . S
C1066 C1065 1.392 . S
C1066 C1067 1.385 . S
C1066 C1068 1.478 . S
C1067 H1061 0.930 . S
C1067 C1063 1.400 . S
C1067 C1066 1.385 . S
C1068 C1066 1.478 . S
C1068 C1070 1.381 . S
C1068 C1074 1.383 . S
C1069 C1065 1.495 . S
C1069 H1075 0.959 . S
C1069 H1076 0.961 . S
C1069 H1077 0.960 . S
C1070 C1068 1.381 . S
C1070 C1071 1.394 . S
C1070 H1078 0.930 . S
C1071 C1070 1.394 . S
C1071 C1072 1.383 . S
C1071 H1079 0.929 . S
C1072 C1071 1.383 . S
C1072 C1073 1.377 . S
C1073 H1057 0.930 . S
C1073 C1072 1.377 . S
C1073 C1074 1.379 . S
C1074 H1058 0.931 . S
C1074 C1068 1.383 . S
C1074 C1073 1.379 . S
H1075 C1069 0.959 . S
H1076 C1069 0.961 . S
H1077 C1069 0.960 . S
H1078 C1070 0.930 . S
H1079 C1071 0.929 . S
H1080 C1088 0.929 . S
H1081 C1090 0.930 . S
H1082 C1092 0.930 . S
H1083 C1095 0.929 . S
H1084 C1098 0.930 . S
H1085 C1100 0.960 . S
H1086 C1100 0.960 . S
H1087 C1100 0.960 . S
C1088 H1080 0.929 . S
C1088 C1089 1.377 . S
C1088 C1090 1.384 . S
C1089 C1088 1.377 . S
C1089 C1095 1.390 . S
C1090 H1081 0.930 . S
C1090 C1088 1.384 . S
C1090 C1091 1.372 . S
C1091 C1090 1.372 . S
C1091 C1092 1.400 . S
C1091 C1096 1.490 . S
C1092 H1082 0.930 . S
C1092 C1091 1.400 . S
C1092 C1095 1.386 . S
H1093 C1109 0.930 . S
H1094 C1110 0.931 . S
C1095 H1083 0.929 . S
C1095 C1089 1.390 . S
C1095 C1092 1.386 . S
C1096 C1091 1.490 . S
C1096 C1098 1.395 . S
C1096 C1099 1.403 . S
H1097 C1103 0.930 . S
C1098 H1084 0.930 . S
C1098 C1096 1.395 . S
C1098 C1101 1.403 . S
C1099 C1096 1.403 . S
C1099 C1100 1.524 . S
C1099 C1103 1.400 . S
C1100 H1085 0.960 . S
C1100 H1086 0.960 . S
C1100 H1087 0.960 . S
C1100 C1099 1.524 . S
C1101 C1098 1.403 . S
C1101 C1102 1.392 . S
C1101 C1105 1.495 . S
C1102 C1101 1.392 . S
C1102 C1103 1.385 . S
C1102 C1104 1.478 . S
C1103 H1097 0.930 . S
C1103 C1099 1.400 . S
C1103 C1102 1.385 . S
C1104 C1102 1.478 . S
C1104 C1106 1.381 . S
C1104 C1110 1.383 . S
C1105 C1101 1.495 . S
C1105 H1111 0.959 . S
C1105 H1112 0.961 . S
C1105 H1113 0.960 . S
C1106 C1104 1.381 . S
C1106 C1107 1.394 . S
C1106 H1114 0.930 . S
C1107 C1106 1.394 . S
C1107 C1108 1.383 . S
C1107 H1115 0.929 . S
C1108 C1107 1.383 . S
C1108 C1109 1.377 . S
C1109 H1093 0.930 . S
C1109 C1108 1.377 . S
C1109 C1110 1.379 . S
C1110 H1094 0.931 . S
C1110 C1104 1.383 . S
C1110 C1109 1.379 . S
H1111 C1105 0.959 . S
H1112 C1105 0.961 . S
H1113 C1105 0.960 . S
H1114 C1106 0.930 . S
H1115 C1107 0.929 . S
H1116 C1124 0.929 . S
H1117 C1126 0.930 . S
H1118 C1128 0.930 . S
H1119 C1131 0.929 . S
H1120 C1134 0.930 . S
H1121 C1136 0.960 . S
H1122 C1136 0.960 . S
H1123 C1136 0.960 . S
C1124 H1116 0.929 . S
C1124 C1125 1.377 . S
C1124 C1126 1.384 . S
C1125 C1124 1.377 . S
C1125 C1131 1.390 . S
C1126 H1117 0.930 . S
C1126 C1124 1.384 . S
C1126 C1127 1.372 . S
C1127 C1126 1.372 . S
C1127 C1128 1.400 . S
C1127 C1132 1.490 . S
C1128 H1118 0.930 . S
C1128 C1127 1.400 . S
C1128 C1131 1.386 . S
H1129 C1145 0.930 . S
H1130 C1146 0.931 . S
C1131 H1119 0.929 . S
C1131 C1125 1.390 . S
C1131 C1128 1.386 . S
C1132 C1127 1.490 . S
C1132 C1134 1.395 . S
C1132 C1135 1.403 . S
H1133 C1139 0.930 . S
C1134 H1120 0.930 . S
C1134 C1132 1.395 . S
C1134 C1137 1.403 . S
C1135 C1132 1.403 . S
C1135 C1136 1.524 . S
C1135 C1139 1.400 . S
C1136 H1121 0.960 . S
C1136 H1122 0.960 . S
C1136 H1123 0.960 . S
C1136 C1135 1.524 . S
C1137 C1134 1.403 . S
C1137 C1138 1.392 . S
C1137 C1141 1.495 . S
C1138 C1137 1.392 . S
C1138 C1139 1.385 . S
C1138 C1140 1.478 . S
C1139 H1133 0.930 . S
C1139 C1135 1.400 . S
C1139 C1138 1.385 . S
C1140 C1138 1.478 . S
C1140 C1142 1.381 . S
C1140 C1146 1.383 . S
C1141 C1137 1.495 . S
C1141 H1147 0.959 . S
C1141 H1148 0.961 . S
C1141 H1149 0.960 . S
C1142 C1140 1.381 . S
C1142 C1143 1.394 . S
C1142 H1150 0.930 . S
C1143 C1142 1.394 . S
C1143 C1144 1.383 . S
C1143 H1151 0.929 . S
C1144 C1143 1.383 . S
C1144 C1145 1.377 . S
C1145 H1129 0.930 . S
C1145 C1144 1.377 . S
C1145 C1146 1.379 . S
C1146 H1130 0.931 . S
C1146 C1140 1.383 . S
C1146 C1145 1.379 . S
H1147 C1141 0.959 . S
H1148 C1141 0.961 . S
H1149 C1141 0.960 . S
H1150 C1142 0.930 . S
H1151 C1143 0.929 . S
H1152 C1160 0.929 . S
H1153 C1162 0.930 . S
H1154 C1164 0.930 . S
H1155 C1167 0.929 1_565 S
H1156 C1170 0.930 . S
H1157 C1172 0.960 . S
H1158 C1172 0.960 . S
H1159 C1172 0.960 . S
C1160 H1152 0.929 . S
C1160 C1161 1.377 . S
C1160 C1162 1.384 . S
C1161 C1160 1.377 . S
C1161 C1167 1.390 . S
C1162 H1153 0.930 . S
C1162 C1160 1.384 . S
C1162 C1163 1.372 . S
C1163 C1162 1.372 . S
C1163 C1164 1.400 . S
C1163 C1168 1.490 . S
C1164 H1154 0.930 . S
C1164 C1163 1.400 . S
C1164 C1167 1.386 . S
H1165 C1181 0.930 . S
H1166 C1182 0.931 . S
C1167 H1155 0.929 1_545 S
C1167 C1161 1.390 . S
C1167 C1164 1.386 . S
C1168 C1163 1.490 . S
C1168 C1170 1.395 . S
C1168 C1171 1.403 . S
H1169 C1175 0.930 . S
C1170 H1156 0.930 . S
C1170 C1168 1.395 . S
C1170 C1173 1.403 . S
C1171 C1168 1.403 . S
C1171 C1172 1.524 . S
C1171 C1175 1.400 . S
C1172 H1157 0.960 . S
C1172 H1158 0.960 . S
C1172 H1159 0.960 . S
C1172 C1171 1.524 . S
C1173 C1170 1.403 . S
C1173 C1174 1.392 . S
C1173 C1177 1.495 . S
C1174 C1173 1.392 . S
C1174 C1175 1.385 . S
C1174 C1176 1.478 . S
C1175 H1169 0.930 . S
C1175 C1171 1.400 . S
C1175 C1174 1.385 . S
C1176 C1174 1.478 . S
C1176 C1178 1.381 . S
C1176 C1182 1.383 . S
C1177 C1173 1.495 . S
C1177 H1183 0.959 . S
C1177 H1184 0.961 . S
C1177 H1185 0.960 . S
C1178 C1176 1.381 . S
C1178 C1179 1.394 . S
C1178 H1186 0.930 . S
C1179 C1178 1.394 . S
C1179 C1180 1.383 . S
C1179 H1187 0.929 . S
C1180 C1179 1.383 . S
C1180 C1181 1.377 . S
C1181 H1165 0.930 . S
C1181 C1180 1.377 . S
C1181 C1182 1.379 . S
C1182 H1166 0.931 . S
C1182 C1176 1.383 . S
C1182 C1181 1.379 . S
H1183 C1177 0.959 . S
H1184 C1177 0.961 . S
H1185 C1177 0.960 . S
H1186 C1178 0.930 . S
H1187 C1179 0.929 . S
H1188 C1196 0.929 . S
H1189 C1198 0.930 . S
H1190 C1200 0.930 . S
H1191 C1203 0.929 . S
H1192 C1206 0.930 . S
H1193 C1208 0.960 . S
H1194 C1208 0.960 . S
H1195 C1208 0.960 . S
C1196 H1188 0.929 . S
C1196 C1197 1.377 . S
C1196 C1198 1.384 . S
C1197 C1196 1.377 . S
C1197 C1203 1.390 . S
C1198 H1189 0.930 . S
C1198 C1196 1.384 . S
C1198 C1199 1.372 . S
C1199 C1198 1.372 . S
C1199 C1200 1.400 . S
C1199 C1204 1.490 . S
C1200 H1190 0.930 . S
C1200 C1199 1.400 . S
C1200 C1203 1.386 . S
H1201 C1217 0.930 . S
H1202 C1218 0.931 . S
C1203 H1191 0.929 . S
C1203 C1197 1.390 . S
C1203 C1200 1.386 . S
C1204 C1199 1.490 . S
C1204 C1206 1.395 . S
C1204 C1207 1.403 . S
H1205 C1211 0.930 . S
C1206 H1192 0.930 . S
C1206 C1204 1.395 . S
C1206 C1209 1.403 . S
C1207 C1204 1.403 . S
C1207 C1208 1.524 . S
C1207 C1211 1.400 . S
C1208 H1193 0.960 . S
C1208 H1194 0.960 . S
C1208 H1195 0.960 . S
C1208 C1207 1.524 . S
C1209 C1206 1.403 . S
C1209 C1210 1.392 . S
C1209 C1213 1.495 . S
C1210 C1209 1.392 . S
C1210 C1211 1.385 . S
C1210 C1212 1.478 . S
C1211 H1205 0.930 . S
C1211 C1207 1.400 . S
C1211 C1210 1.385 . S
C1212 C1210 1.478 . S
C1212 C1214 1.381 . S
C1212 C1218 1.383 . S
C1213 C1209 1.495 . S
C1213 H1219 0.959 . S
C1213 H1220 0.961 . S
C1213 H1221 0.960 . S
C1214 C1212 1.381 . S
C1214 C1215 1.394 . S
C1214 H1222 0.930 . S
C1215 C1214 1.394 . S
C1215 C1216 1.383 . S
C1215 H1223 0.929 . S
C1216 C1215 1.383 . S
C1216 C1217 1.377 . S
C1217 H1201 0.930 . S
C1217 C1216 1.377 . S
C1217 C1218 1.379 . S
C1218 H1202 0.931 . S
C1218 C1212 1.383 . S
C1218 C1217 1.379 . S
H1219 C1213 0.959 . S
H1220 C1213 0.961 . S
H1221 C1213 0.960 . S
H1222 C1214 0.930 . S
H1223 C1215 0.929 . S
H1224 C1232 0.929 . S
H1225 C1234 0.930 . S
H1226 C1236 0.930 . S
H1227 C1239 0.929 . S
H1228 C1242 0.930 . S
H1229 C1244 0.960 . S
H1230 C1244 0.960 . S
H1231 C1244 0.960 . S
C1232 H1224 0.929 . S
C1232 C1233 1.377 . S
C1232 C1234 1.384 . S
C1233 C1232 1.377 . S
C1233 C1239 1.390 . S
C1234 H1225 0.930 . S
C1234 C1232 1.384 . S
C1234 C1235 1.372 . S
C1235 C1234 1.372 . S
C1235 C1236 1.400 . S
C1235 C1240 1.490 . S
C1236 H1226 0.930 . S
C1236 C1235 1.400 . S
C1236 C1239 1.386 . S
H1237 C1253 0.930 . S
H1238 C1254 0.931 . S
C1239 H1227 0.929 . S
C1239 C1233 1.390 . S
C1239 C1236 1.386 . S
C1240 C1235 1.490 . S
C1240 C1242 1.395 . S
C1240 C1243 1.403 . S
H1241 C1247 0.930 . S
C1242 H1228 0.930 . S
C1242 C1240 1.395 . S
C1242 C1245 1.403 . S
C1243 C1240 1.403 . S
C1243 C1244 1.524 . S
C1243 C1247 1.400 . S
C1244 H1229 0.960 . S
C1244 H1230 0.960 . S
C1244 H1231 0.960 . S
C1244 C1243 1.524 . S
C1245 C1242 1.403 . S
C1245 C1246 1.392 . S
C1245 C1249 1.495 . S
C1246 C1245 1.392 . S
C1246 C1247 1.385 . S
C1246 C1248 1.478 . S
C1247 H1241 0.930 . S
C1247 C1243 1.400 . S
C1247 C1246 1.385 . S
C1248 C1246 1.478 . S
C1248 C1250 1.381 . S
C1248 C1254 1.383 . S
C1249 C1245 1.495 . S
C1249 H1255 0.959 . S
C1249 H1256 0.961 . S
C1249 H1257 0.960 . S
C1250 C1248 1.381 . S
C1250 C1251 1.394 . S
C1250 H1258 0.930 . S
C1251 C1250 1.394 . S
C1251 C1252 1.383 . S
C1251 H1259 0.929 . S
C1252 C1251 1.383 . S
C1252 C1253 1.377 . S
C1253 H1237 0.930 . S
C1253 C1252 1.377 . S
C1253 C1254 1.379 . S
C1254 H1238 0.931 . S
C1254 C1248 1.383 . S
C1254 C1253 1.379 . S
H1255 C1249 0.959 . S
H1256 C1249 0.961 . S
H1257 C1249 0.960 . S
H1258 C1250 0.930 . S
H1259 C1251 0.929 . S
H1260 C1268 0.929 . S
H1261 C1270 0.930 . S
H1262 C1272 0.930 . S
H1263 C1275 0.969 . S
H1264 C1278 0.930 . S
H1265 C1280 0.960 . S
H1266 C1280 0.960 . S
H1267 C1280 0.960 . S
C1268 H1260 0.929 . S
C1268 C1269 1.377 . S
C1268 C1270 1.384 . S
C1269 C1268 1.377 . S
C1269 C1275 1.348 1_545 S
C1270 H1261 0.930 . S
C1270 C1268 1.384 . S
C1270 C1271 1.372 . S
C1271 C1270 1.372 . S
C1271 C1272 1.400 1_545 S
C1271 C1276 1.490 . S
C1272 H1262 0.930 . S
C1272 C1271 1.400 1_565 S
C1272 C1275 1.389 . S
H1273 C1289 0.930 . S
H1274 C1290 0.931 . S
C1275 H1263 0.969 . S
C1275 C1269 1.348 1_565 S
C1275 C1272 1.389 . S
C1276 C1271 1.490 . S
C1276 C1278 1.395 . S
C1276 C1279 1.386 1_545 S
H1277 C1283 0.940 . S
C1278 H1264 0.930 . S
C1278 C1276 1.395 . S
C1278 C1281 1.403 . S
C1279 C1276 1.386 1_565 S
C1279 C1280 1.539 . S
C1279 C1283 1.400 . S
C1280 H1265 0.960 . S
C1280 H1266 0.960 . S
C1280 H1267 0.960 . S
C1280 C1279 1.539 . S
C1281 C1278 1.403 . S
C1281 C1282 1.392 . S
C1281 C1285 1.495 . S
C1282 C1281 1.392 . S
C1282 C1283 1.376 1_545 S
C1282 C1284 1.478 . S
C1283 H1277 0.940 . S
C1283 C1279 1.400 . S
C1283 C1282 1.376 1_565 S
C1284 C1282 1.478 . S
C1284 C1286 1.381 . S
C1284 C1290 1.383 1_545 S
C1285 C1281 1.495 . S
C1285 H1291 0.959 . S
C1285 H1292 0.961 . S
C1285 H1293 0.960 . S
C1286 C1284 1.381 . S
C1286 C1287 1.394 . S
C1286 H1294 0.930 . S
C1287 C1286 1.394 . S
C1287 C1288 1.383 . S
C1287 H1295 0.929 . S
C1288 C1287 1.383 . S
C1288 C1289 1.377 1_545 S
C1289 H1273 0.930 . S
C1289 C1288 1.377 1_565 S
C1289 C1290 1.379 . S
C1290 H1274 0.931 . S
C1290 C1284 1.383 1_565 S
C1290 C1289 1.379 . S
H1291 C1285 0.959 . S
H1292 C1285 0.961 . S
H1293 C1285 0.960 . S
H1294 C1286 0.930 . S
H1295 C1287 0.929 . S
H1296 C1304 0.929 . S
H1297 C1306 0.930 . S
H1298 C1308 0.930 . S
H1299 C1311 0.929 . S
H1300 C1314 0.930 . S
H1301 C1316 0.960 . S
H1302 C1316 0.960 . S
H1303 C1316 0.960 . S
C1304 H1296 0.929 . S
C1304 C1305 1.377 . S
C1304 C1306 1.384 . S
C1305 C1304 1.377 . S
C1305 C1311 1.390 . S
C1306 H1297 0.930 . S
C1306 C1304 1.384 . S
C1306 C1307 1.372 . S
C1307 C1306 1.372 . S
C1307 C1308 1.400 . S
C1307 C1312 1.490 . S
C1308 H1298 0.930 . S
C1308 C1307 1.400 . S
C1308 C1311 1.386 . S
H1309 C1325 0.930 . S
H1310 C1326 0.931 . S
C1311 H1299 0.929 . S
C1311 C1305 1.390 . S
C1311 C1308 1.386 . S
C1312 C1307 1.490 . S
C1312 C1314 1.395 . S
C1312 C1315 1.403 . S
H1313 C1319 0.930 . S
C1314 H1300 0.930 . S
C1314 C1312 1.395 . S
C1314 C1317 1.403 . S
C1315 C1312 1.403 . S
C1315 C1316 1.524 . S
C1315 C1319 1.400 . S
C1316 H1301 0.960 . S
C1316 H1302 0.960 . S
C1316 H1303 0.960 . S
C1316 C1315 1.524 . S
C1317 C1314 1.403 . S
C1317 C1318 1.392 . S
C1317 C1321 1.495 . S
C1318 C1317 1.392 . S
C1318 C1319 1.385 . S
C1318 C1320 1.478 . S
C1319 H1313 0.930 . S
C1319 C1315 1.400 . S
C1319 C1318 1.385 . S
C1320 C1318 1.478 . S
C1320 C1322 1.381 . S
C1320 C1326 1.383 . S
C1321 C1317 1.495 . S
C1321 H1327 0.959 . S
C1321 H1328 0.961 . S
C1321 H1329 0.960 . S
C1322 C1320 1.381 . S
C1322 C1323 1.394 . S
C1322 H1330 0.930 . S
C1323 C1322 1.394 . S
C1323 C1324 1.383 . S
C1323 H1331 0.929 . S
C1324 C1323 1.383 . S
C1324 C1325 1.377 . S
C1325 H1309 0.930 . S
C1325 C1324 1.377 . S
C1325 C1326 1.379 . S
C1326 H1310 0.931 . S
C1326 C1320 1.383 . S
C1326 C1325 1.379 . S
H1327 C1321 0.959 . S
H1328 C1321 0.961 . S
H1329 C1321 0.960 . S
H1330 C1322 0.930 . S
H1331 C1323 0.929 . S
H1332 C1340 0.929 . S
H1333 C1342 0.930 . S
H1334 C1344 0.930 . S
H1335 C1347 0.929 . S
H1336 C1350 0.930 . S
H1337 C1352 0.960 . S
H1338 C1352 0.960 . S
H1339 C1352 0.960 . S
C1340 H1332 0.929 . S
C1340 C1341 1.377 . S
C1340 C1342 1.384 . S
C1341 C1340 1.377 . S
C1341 C1347 1.390 . S
C1342 H1333 0.930 . S
C1342 C1340 1.384 . S
C1342 C1343 1.372 . S
C1343 C1342 1.372 . S
C1343 C1344 1.400 . S
C1343 C1348 1.490 . S
C1344 H1334 0.930 . S
C1344 C1343 1.400 . S
C1344 C1347 1.386 . S
H1345 C1361 0.930 . S
H1346 C1362 0.931 . S
C1347 H1335 0.929 . S
C1347 C1341 1.390 . S
C1347 C1344 1.386 . S
C1348 C1343 1.490 . S
C1348 C1350 1.395 . S
C1348 C1351 1.403 . S
H1349 C1355 0.930 . S
C1350 H1336 0.930 . S
C1350 C1348 1.395 . S
C1350 C1353 1.403 . S
C1351 C1348 1.403 . S
C1351 C1352 1.524 . S
C1351 C1355 1.400 . S
C1352 H1337 0.960 . S
C1352 H1338 0.960 . S
C1352 H1339 0.960 . S
C1352 C1351 1.524 . S
C1353 C1350 1.403 . S
C1353 C1354 1.392 . S
C1353 C1357 1.495 . S
C1354 C1353 1.392 . S
C1354 C1355 1.385 . S
C1354 C1356 1.478 . S
C1355 H1349 0.930 . S
C1355 C1351 1.400 . S
C1355 C1354 1.385 . S
C1356 C1354 1.478 . S
C1356 C1358 1.381 . S
C1356 C1362 1.383 . S
C1357 C1353 1.495 . S
C1357 H1363 0.959 . S
C1357 H1364 0.961 . S
C1357 H1365 0.960 . S
C1358 C1356 1.381 . S
C1358 C1359 1.394 . S
C1358 H1366 0.930 . S
C1359 C1358 1.394 . S
C1359 C1360 1.383 . S
C1359 H1367 0.929 . S
C1360 C1359 1.383 . S
C1360 C1361 1.377 . S
C1361 H1345 0.930 . S
C1361 C1360 1.377 . S
C1361 C1362 1.379 . S
C1362 H1346 0.931 . S
C1362 C1356 1.383 . S
C1362 C1361 1.379 . S
H1363 C1357 0.959 . S
H1364 C1357 0.961 . S
H1365 C1357 0.960 . S
H1366 C1358 0.930 . S
H1367 C1359 0.929 . S
H1368 C1376 0.929 . S
H1369 C1378 0.930 . S
H1370 C1380 0.930 . S
H1371 C1383 0.929 . S
H1372 C1386 0.930 . S
H1373 C1388 0.960 . S
H1374 C1388 0.960 . S
H1375 C1388 0.960 . S
C1376 H1368 0.929 . S
C1376 C1377 1.377 . S
C1376 C1378 1.384 . S
C1377 C1376 1.377 . S
C1377 C1383 1.390 . S
C1378 H1369 0.930 . S
C1378 C1376 1.384 . S
C1378 C1379 1.372 . S
C1379 C1378 1.372 . S
C1379 C1380 1.400 . S
C1379 C1384 1.490 . S
C1380 H1370 0.930 . S
C1380 C1379 1.400 . S
C1380 C1383 1.386 . S
H1381 C1397 0.930 . S
H1382 C1398 0.931 . S
C1383 H1371 0.929 . S
C1383 C1377 1.390 . S
C1383 C1380 1.386 . S
C1384 C1379 1.490 . S
C1384 C1386 1.395 . S
C1384 C1387 1.403 . S
H1385 C1391 0.930 . S
C1386 H1372 0.930 . S
C1386 C1384 1.395 . S
C1386 C1389 1.403 . S
C1387 C1384 1.403 . S
C1387 C1388 1.524 . S
C1387 C1391 1.400 . S
C1388 H1373 0.960 . S
C1388 H1374 0.960 . S
C1388 H1375 0.960 . S
C1388 C1387 1.524 . S
C1389 C1386 1.403 . S
C1389 C1390 1.392 . S
C1389 C1393 1.495 . S
C1390 C1389 1.392 . S
C1390 C1391 1.385 . S
C1390 C1392 1.478 . S
C1391 H1385 0.930 . S
C1391 C1387 1.400 . S
C1391 C1390 1.385 . S
C1392 C1390 1.478 . S
C1392 C1394 1.381 . S
C1392 C1398 1.383 . S
C1393 C1389 1.495 . S
C1393 H1399 0.959 . S
C1393 H1400 0.961 . S
C1393 H1401 0.960 . S
C1394 C1392 1.381 . S
C1394 C1395 1.394 . S
C1394 H1402 0.930 . S
C1395 C1394 1.394 . S
C1395 C1396 1.383 . S
C1395 H1403 0.929 . S
C1396 C1395 1.383 . S
C1396 C1397 1.377 . S
C1397 H1381 0.930 . S
C1397 C1396 1.377 . S
C1397 C1398 1.379 . S
C1398 H1382 0.931 . S
C1398 C1392 1.383 . S
C1398 C1397 1.379 . S
H1399 C1393 0.959 . S
H1400 C1393 0.961 . S
H1401 C1393 0.960 . S
H1402 C1394 0.930 . S
H1403 C1395 0.929 . S
H1404 C1412 0.929 . S
H1405 C1414 0.930 . S
H1406 C1416 0.930 1_655 S
H1407 C1419 0.929 . S
H1408 C1422 0.930 . S
H1409 C1424 0.960 . S
H1410 C1424 0.960 . S
H1411 C1424 0.960 . S
C1412 H1404 0.929 . S
C1412 C1413 1.377 . S
C1412 C1414 1.384 . S
C1413 C1412 1.377 . S
C1413 C1419 1.390 . S
C1414 H1405 0.930 . S
C1414 C1412 1.384 . S
C1414 C1415 1.372 . S
C1415 C1414 1.372 . S
C1415 C1416 1.400 . S
C1415 C1420 1.498 . S
C1416 H1406 0.930 1_455 S
C1416 C1415 1.400 . S
C1416 C1419 1.386 . S
H1417 C1433 0.930 . S
H1418 C1434 0.931 . S
C1419 H1407 0.929 . S
C1419 C1413 1.390 . S
C1419 C1416 1.386 . S
C1420 C1415 1.498 . S
C1420 C1422 1.404 . S
C1420 C1423 1.386 1_455 S
H1421 C1427 0.930 . S
C1422 H1408 0.930 . S
C1422 C1420 1.404 . S
C1422 C1425 1.403 . S
C1423 C1420 1.386 1_655 S
C1423 C1424 1.524 . S
C1423 C1427 1.400 . S
C1424 H1409 0.960 . S
C1424 H1410 0.960 . S
C1424 H1411 0.960 . S
C1424 C1423 1.524 . S
C1425 C1422 1.403 . S
C1425 C1426 1.392 1_455 S
C1425 C1429 1.495 . S
C1426 C1425 1.392 1_655 S
C1426 C1427 1.385 . S
C1426 C1428 1.478 . S
C1427 H1421 0.930 . S
C1427 C1423 1.400 . S
C1427 C1426 1.385 . S
C1428 C1426 1.478 . S
C1428 C1430 1.381 . S
C1428 C1434 1.383 . S
C1429 C1425 1.495 . S
C1429 H1435 0.959 . S
C1429 H1436 0.961 . S
C1429 H1437 0.960 . S
C1430 C1428 1.381 . S
C1430 C1431 1.394 . S
C1430 H1438 0.930 . S
C1431 C1430 1.394 . S
C1431 C1432 1.383 . S
C1431 H1439 0.929 . S
C1432 C1431 1.383 . S
C1432 C1433 1.377 . S
C1433 H1417 0.930 . S
C1433 C1432 1.377 . S
C1433 C1434 1.379 . S
C1434 H1418 0.931 . S
C1434 C1428 1.383 . S
C1434 C1433 1.379 . S
H1435 C1429 0.959 . S
H1436 C1429 0.961 . S
H1437 C1429 0.960 . S
H1438 C1430 0.930 . S
H1439 C1431 0.929 . S
H1440 C1448 0.929 . S
H1441 C1450 0.930 . S
H1442 C1452 0.930 . S
H1443 C1455 0.929 . S
H1444 C1458 0.930 . S
H1445 C1460 0.960 . S
H1446 C1460 0.960 . S
H1447 C1460 0.960 . S
C1448 H1440 0.929 . S
C1448 C1449 1.377 . S
C1448 C1450 1.384 . S
C1449 C1448 1.377 . S
C1449 C1455 1.390 . S
C1450 H1441 0.930 . S
C1450 C1448 1.384 . S
C1450 C1451 1.372 . S
C1451 C1450 1.372 . S
C1451 C1452 1.400 . S
C1451 C1456 1.490 . S
C1452 H1442 0.930 . S
C1452 C1451 1.400 . S
C1452 C1455 1.386 . S
H1453 C1469 0.930 . S
H1454 C1470 0.931 . S
C1455 H1443 0.929 . S
C1455 C1449 1.390 . S
C1455 C1452 1.386 . S
C1456 C1451 1.490 . S
C1456 C1458 1.395 . S
C1456 C1459 1.403 . S
H1457 C1463 0.930 . S
C1458 H1444 0.930 . S
C1458 C1456 1.395 . S
C1458 C1461 1.403 . S
C1459 C1456 1.403 . S
C1459 C1460 1.524 . S
C1459 C1463 1.400 . S
C1460 H1445 0.960 . S
C1460 H1446 0.960 . S
C1460 H1447 0.960 . S
C1460 C1459 1.524 . S
C1461 C1458 1.403 . S
C1461 C1462 1.392 . S
C1461 C1465 1.495 . S
C1462 C1461 1.392 . S
C1462 C1463 1.385 . S
C1462 C1464 1.478 . S
C1463 H1457 0.930 . S
C1463 C1459 1.400 . S
C1463 C1462 1.385 . S
C1464 C1462 1.478 . S
C1464 C1466 1.381 . S
C1464 C1470 1.383 . S
C1465 C1461 1.495 . S
C1465 H1471 0.959 . S
C1465 H1472 0.961 . S
C1465 H1473 0.960 . S
C1466 C1464 1.381 . S
C1466 C1467 1.394 . S
C1466 H1474 0.930 . S
C1467 C1466 1.394 . S
C1467 C1468 1.383 . S
C1467 H1475 0.929 . S
C1468 C1467 1.383 . S
C1468 C1469 1.377 . S
C1469 H1453 0.930 . S
C1469 C1468 1.377 . S
C1469 C1470 1.379 . S
C1470 H1454 0.931 . S
C1470 C1464 1.383 . S
C1470 C1469 1.379 . S
H1471 C1465 0.959 . S
H1472 C1465 0.961 . S
H1473 C1465 0.960 . S
H1474 C1466 0.930 . S
H1475 C1467 0.929 . S
H1476 C1484 0.915 1_655 S
H1477 C1486 0.930 . S
H1478 C1488 0.930 . S
H1479 C1491 0.929 . S
H1480 C1494 0.930 . S
H1481 C1496 0.960 . S
H1482 C1496 0.960 . S
H1483 C1496 0.960 . S
C1484 H1476 0.915 1_455 S
C1484 C1485 1.384 . S
C1484 C1486 1.391 . S
C1485 C1484 1.384 . S
C1485 C1491 1.390 . S
C1486 H1477 0.930 . S
C1486 C1484 1.391 . S
C1486 C1487 1.372 . S
C1487 C1486 1.372 . S
C1487 C1488 1.400 . S
C1487 C1492 1.490 . S
C1488 H1478 0.930 . S
C1488 C1487 1.400 . S
C1488 C1491 1.386 . S
H1489 C1505 0.930 . S
H1490 C1506 0.931 . S
C1491 H1479 0.929 . S
C1491 C1485 1.390 . S
C1491 C1488 1.386 . S
C1492 C1487 1.490 . S
C1492 C1494 1.395 . S
C1492 C1495 1.403 . S
H1493 C1499 0.930 . S
C1494 H1480 0.930 . S
C1494 C1492 1.395 . S
C1494 C1497 1.403 . S
C1495 C1492 1.403 . S
C1495 C1496 1.524 . S
C1495 C1499 1.400 . S
C1496 H1481 0.960 . S
C1496 H1482 0.960 . S
C1496 H1483 0.960 . S
C1496 C1495 1.524 . S
C1497 C1494 1.403 . S
C1497 C1498 1.392 . S
C1497 C1501 1.495 . S
C1498 C1497 1.392 . S
C1498 C1499 1.385 . S
C1498 C1500 1.478 . S
C1499 H1493 0.930 . S
C1499 C1495 1.400 . S
C1499 C1498 1.385 . S
C1500 C1498 1.478 . S
C1500 C1502 1.381 . S
C1500 C1506 1.383 . S
C1501 C1497 1.495 . S
C1501 H1507 0.959 . S
C1501 H1508 0.961 . S
C1501 H1509 0.960 . S
C1502 C1500 1.381 . S
C1502 C1503 1.394 . S
C1502 H1510 0.930 . S
C1503 C1502 1.394 . S
C1503 C1504 1.383 . S
C1503 H1511 0.929 . S
C1504 C1503 1.383 . S
C1504 C1505 1.377 . S
C1505 H1489 0.930 . S
C1505 C1504 1.377 . S
C1505 C1506 1.379 . S
C1506 H1490 0.931 . S
C1506 C1500 1.383 . S
C1506 C1505 1.379 . S
H1507 C1501 0.959 . S
H1508 C1501 0.961 . S
H1509 C1501 0.960 . S
H1510 C1502 0.930 . S
H1511 C1503 0.929 . S
H1512 C1520 0.929 . S
H1513 C1522 0.930 . S
H1514 C1524 0.930 . S
H1515 C1527 0.929 . S
H1516 C1530 0.930 . S
H1517 C1532 0.960 . S
H1518 C1532 0.960 . S
H1519 C1532 0.960 . S
C1520 H1512 0.929 . S
C1520 C1521 1.377 . S
C1520 C1522 1.384 . S
C1521 C1520 1.377 . S
C1521 C1527 1.390 . S
C1522 H1513 0.930 . S
C1522 C1520 1.384 . S
C1522 C1523 1.372 . S
C1523 C1522 1.372 . S
C1523 C1524 1.400 . S
C1523 C1528 1.490 . S
C1524 H1514 0.930 . S
C1524 C1523 1.400 . S
C1524 C1527 1.386 . S
H1525 C1541 0.930 . S
H1526 C1542 0.931 . S
C1527 H1515 0.929 . S
C1527 C1521 1.390 . S
C1527 C1524 1.386 . S
C1528 C1523 1.490 . S
C1528 C1530 1.395 . S
C1528 C1531 1.403 . S
H1529 C1535 0.930 . S
C1530 H1516 0.930 . S
C1530 C1528 1.395 . S
C1530 C1533 1.403 . S
C1531 C1528 1.403 . S
C1531 C1532 1.524 . S
C1531 C1535 1.400 . S
C1532 H1517 0.960 . S
C1532 H1518 0.960 . S
C1532 H1519 0.960 . S
C1532 C1531 1.524 . S
C1533 C1530 1.403 . S
C1533 C1534 1.392 . S
C1533 C1537 1.495 . S
C1534 C1533 1.392 . S
C1534 C1535 1.385 . S
C1534 C1536 1.478 . S
C1535 H1529 0.930 . S
C1535 C1531 1.400 . S
C1535 C1534 1.385 . S
C1536 C1534 1.478 . S
C1536 C1538 1.381 . S
C1536 C1542 1.383 . S
C1537 C1533 1.495 . S
C1537 H1543 0.959 . S
C1537 H1544 0.961 . S
C1537 H1545 0.960 . S
C1538 C1536 1.381 . S
C1538 C1539 1.394 . S
C1538 H1546 0.930 . S
C1539 C1538 1.394 . S
C1539 C1540 1.383 . S
C1539 H1547 0.929 . S
C1540 C1539 1.383 . S
C1540 C1541 1.377 . S
C1541 H1525 0.930 . S
C1541 C1540 1.377 . S
C1541 C1542 1.379 . S
C1542 H1526 0.931 . S
C1542 C1536 1.383 . S
C1542 C1541 1.379 . S
H1543 C1537 0.959 . S
H1544 C1537 0.961 . S
H1545 C1537 0.960 . S
H1546 C1538 0.930 . S
H1547 C1539 0.929 . S
H1548 C1556 0.929 . S
H1549 C1558 0.930 . S
H1550 C1560 0.917 1_554 S
H1551 C1563 0.929 . S
H1552 C1566 0.930 . S
H1553 C1568 0.960 . S
H1554 C1568 0.960 . S
H1555 C1568 0.960 . S
C1556 H1548 0.929 . S
C1556 C1557 1.377 1_556 S
C1556 C1558 1.384 . S
C1557 C1556 1.377 1_554 S
C1557 C1563 1.390 . S
C1558 H1549 0.930 . S
C1558 C1556 1.384 . S
C1558 C1559 1.372 . S
C1559 C1558 1.372 . S
C1559 C1560 1.400 . S
C1559 C1564 1.490 . S
C1560 H1550 0.917 1_556 S
C1560 C1559 1.400 . S
C1560 C1563 1.386 1_556 S
H1561 C1577 0.930 . S
H1562 C1578 0.931 . S
C1563 H1551 0.929 . S
C1563 C1557 1.390 . S
C1563 C1560 1.386 1_554 S
C1564 C1559 1.490 . S
C1564 C1566 1.395 1_655 S
C1564 C1567 1.403 . S
H1565 C1571 0.930 . S
C1566 H1552 0.930 . S
C1566 C1564 1.395 1_455 S
C1566 C1569 1.403 . S
C1567 C1564 1.403 . S
C1567 C1568 1.524 . S
C1567 C1571 1.400 . S
C1568 H1553 0.960 . S
C1568 H1554 0.960 . S
C1568 H1555 0.960 . S
C1568 C1567 1.524 . S
C1569 C1566 1.403 . S
C1569 C1570 1.392 . S
C1569 C1573 1.495 . S
C1570 C1569 1.392 . S
C1570 C1571 1.385 1_455 S
C1570 C1572 1.478 . S
C1571 H1565 0.930 . S
C1571 C1567 1.400 . S
C1571 C1570 1.385 1_655 S
C1572 C1570 1.478 . S
C1572 C1574 1.381 . S
C1572 C1578 1.383 . S
C1573 C1569 1.495 . S
C1573 H1579 0.959 . S
C1573 H1580 0.961 . S
C1573 H1581 0.960 . S
C1574 C1572 1.381 . S
C1574 C1575 1.394 . S
C1574 H1582 0.930 . S
C1575 C1574 1.394 . S
C1575 C1576 1.383 . S
C1575 H1583 0.929 . S
C1576 C1575 1.383 . S
C1576 C1577 1.377 . S
C1577 H1561 0.930 . S
C1577 C1576 1.377 . S
C1577 C1578 1.379 . S
C1578 H1562 0.931 . S
C1578 C1572 1.383 . S
C1578 C1577 1.379 . S
H1579 C1573 0.959 . S
H1580 C1573 0.961 . S
H1581 C1573 0.960 . S
H1582 C1574 0.930 . S
H1583 C1575 0.929 . S
H1584 C1592 0.929 . S
H1585 C1594 0.930 . S
H1586 C1596 0.930 . S
H1587 C1599 0.929 . S
H1588 C1602 0.930 . S
H1589 C1604 0.960 . S
H1590 C1604 0.960 . S
H1591 C1604 0.960 . S
C1592 H1584 0.929 . S
C1592 C1593 1.377 . S
C1592 C1594 1.384 . S
C1593 C1592 1.377 . S
C1593 C1599 1.390 . S
C1594 H1585 0.930 . S
C1594 C1592 1.384 . S
C1594 C1595 1.372 . S
C1595 C1594 1.372 . S
C1595 C1596 1.400 . S
C1595 C1600 1.490 . S
C1596 H1586 0.930 . S
C1596 C1595 1.400 . S
C1596 C1599 1.386 . S
H1597 C1613 0.930 . S
H1598 C1614 0.931 . S
C1599 H1587 0.929 . S
C1599 C1593 1.390 . S
C1599 C1596 1.386 . S
C1600 C1595 1.490 . S
C1600 C1602 1.395 . S
C1600 C1603 1.403 . S
H1601 C1607 0.930 . S
C1602 H1588 0.930 . S
C1602 C1600 1.395 . S
C1602 C1605 1.403 . S
C1603 C1600 1.403 . S
C1603 C1604 1.524 . S
C1603 C1607 1.400 . S
C1604 H1589 0.960 . S
C1604 H1590 0.960 . S
C1604 H1591 0.960 . S
C1604 C1603 1.524 . S
C1605 C1602 1.403 . S
C1605 C1606 1.392 . S
C1605 C1609 1.495 . S
C1606 C1605 1.392 . S
C1606 C1607 1.385 . S
C1606 C1608 1.478 . S
C1607 H1601 0.930 . S
C1607 C1603 1.400 . S
C1607 C1606 1.385 . S
C1608 C1606 1.478 . S
C1608 C1610 1.381 . S
C1608 C1614 1.383 . S
C1609 C1605 1.495 . S
C1609 H1615 0.959 . S
C1609 H1616 0.961 . S
C1609 H1617 0.960 . S
C1610 C1608 1.381 . S
C1610 C1611 1.394 . S
C1610 H1618 0.930 . S
C1611 C1610 1.394 . S
C1611 C1612 1.383 . S
C1611 H1619 0.929 . S
C1612 C1611 1.383 . S
C1612 C1613 1.377 . S
C1613 H1597 0.930 . S
C1613 C1612 1.377 . S
C1613 C1614 1.379 . S
C1614 H1598 0.931 . S
C1614 C1608 1.383 . S
C1614 C1613 1.379 . S
H1615 C1609 0.959 . S
H1616 C1609 0.961 . S
H1617 C1609 0.960 . S
H1618 C1610 0.930 . S
H1619 C1611 0.929 . S
H1620 C1628 0.929 . S
H1621 C1630 0.930 . S
H1622 C1632 0.930 . S
H1623 C1635 0.929 1_554 S
H1624 C1638 0.930 . S
H1625 C1640 0.960 . S
H1626 C1640 0.960 . S
H1627 C1640 0.960 . S
C1628 H1620 0.929 . S
C1628 C1629 1.377 . S
C1628 C1630 1.384 . S
C1629 C1628 1.377 . S
C1629 C1635 1.390 . S
C1630 H1621 0.930 . S
C1630 C1628 1.384 . S
C1630 C1631 1.372 . S
C1631 C1630 1.372 . S
C1631 C1632 1.400 . S
C1631 C1636 1.490 . S
C1632 H1622 0.930 . S
C1632 C1631 1.400 . S
C1632 C1635 1.386 . S
H1633 C1649 0.930 . S
H1634 C1650 0.931 . S
C1635 H1623 0.929 1_556 S
C1635 C1629 1.390 . S
C1635 C1632 1.386 . S
C1636 C1631 1.490 . S
C1636 C1638 1.395 . S
C1636 C1639 1.403 . S
H1637 C1643 0.930 . S
C1638 H1624 0.930 . S
C1638 C1636 1.395 . S
C1638 C1641 1.403 . S
C1639 C1636 1.403 . S
C1639 C1640 1.524 . S
C1639 C1643 1.400 . S
C1640 H1625 0.960 . S
C1640 H1626 0.960 . S
C1640 H1627 0.960 . S
C1640 C1639 1.524 . S
C1641 C1638 1.403 . S
C1641 C1642 1.392 . S
C1641 C1645 1.495 1_455 S
C1642 C1641 1.392 . S
C1642 C1643 1.385 . S
C1642 C1644 1.478 . S
C1643 H1637 0.930 . S
C1643 C1639 1.400 . S
C1643 C1642 1.385 . S
C1644 C1642 1.478 . S
C1644 C1646 1.381 . S
C1644 C1650 1.383 . S
C1645 C1641 1.495 1_655 S
C1645 H1651 0.959 . S
C1645 H1652 0.961 . S
C1645 H1653 0.962 . S
C1646 C1644 1.381 . S
C1646 C1647 1.394 . S
C1646 H1654 0.930 . S
C1647 C1646 1.394 . S
C1647 C1648 1.383 . S
C1647 H1655 0.929 . S
C1648 C1647 1.383 . S
C1648 C1649 1.377 . S
C1649 H1633 0.930 . S
C1649 C1648 1.377 . S
C1649 C1650 1.379 . S
C1650 H1634 0.931 . S
C1650 C1644 1.383 . S
C1650 C1649 1.379 . S
H1651 C1645 0.959 . S
H1652 C1645 0.961 . S
H1653 C1645 0.962 . S
H1654 C1646 0.930 . S
H1655 C1647 0.929 . S
H1656 C1664 0.929 . S
H1657 C1666 0.930 . S
H1658 C1668 0.930 . S
H1659 C1671 0.929 . S
H1660 C1674 0.930 . S
H1661 C1676 0.960 . S
H1662 C1676 0.960 . S
H1663 C1676 0.960 . S
C1664 H1656 0.929 . S
C1664 C1665 1.377 . S
C1664 C1666 1.384 . S
C1665 C1664 1.377 . S
C1665 C1671 1.390 . S
C1666 H1657 0.930 . S
C1666 C1664 1.384 . S
C1666 C1667 1.372 . S
C1667 C1666 1.372 . S
C1667 C1668 1.400 . S
C1667 C1672 1.490 . S
C1668 H1658 0.930 . S
C1668 C1667 1.400 . S
C1668 C1671 1.386 . S
H1669 C1685 0.930 . S
H1670 C1686 0.931 . S
C1671 H1659 0.929 . S
C1671 C1665 1.390 . S
C1671 C1668 1.386 . S
C1672 C1667 1.490 . S
C1672 C1674 1.395 . S
C1672 C1675 1.403 . S
H1673 C1679 0.930 . S
C1674 H1660 0.930 . S
C1674 C1672 1.395 . S
C1674 C1677 1.403 . S
C1675 C1672 1.403 . S
C1675 C1676 1.524 . S
C1675 C1679 1.400 . S
C1676 H1661 0.960 . S
C1676 H1662 0.960 . S
C1676 H1663 0.960 . S
C1676 C1675 1.524 . S
C1677 C1674 1.403 . S
C1677 C1678 1.392 . S
C1677 C1681 1.495 . S
C1678 C1677 1.392 . S
C1678 C1679 1.385 . S
C1678 C1680 1.478 . S
C1679 H1673 0.930 . S
C1679 C1675 1.400 . S
C1679 C1678 1.385 . S
C1680 C1678 1.478 . S
C1680 C1682 1.381 . S
C1680 C1686 1.383 . S
C1681 C1677 1.495 . S
C1681 H1687 0.959 . S
C1681 H1688 0.961 . S
C1681 H1689 0.960 . S
C1682 C1680 1.381 . S
C1682 C1683 1.394 . S
C1682 H1690 0.930 . S
C1683 C1682 1.394 . S
C1683 C1684 1.383 . S
C1683 H1691 0.929 . S
C1684 C1683 1.383 . S
C1684 C1685 1.377 . S
C1685 H1669 0.930 . S
C1685 C1684 1.377 . S
C1685 C1686 1.379 . S
C1686 H1670 0.931 . S
C1686 C1680 1.383 . S
C1686 C1685 1.379 . S
H1687 C1681 0.959 . S
H1688 C1681 0.961 . S
H1689 C1681 0.960 . S
H1690 C1682 0.930 . S
H1691 C1683 0.929 . S
H1692 C1700 0.929 . S
H1693 C1702 0.930 . S
H1694 C1704 0.930 . S
H1695 C1707 0.929 1_556 S
H1696 C1710 0.930 . S
H1697 C1712 0.960 . S
H1698 C1712 0.960 . S
H1699 C1712 0.960 . S
C1700 H1692 0.929 . S
C1700 C1701 1.377 . S
C1700 C1702 1.384 . S
C1701 C1700 1.377 . S
C1701 C1707 1.390 . S
C1702 H1693 0.930 . S
C1702 C1700 1.384 . S
C1702 C1703 1.372 . S
C1703 C1702 1.372 . S
C1703 C1704 1.400 . S
C1703 C1708 1.490 . S
C1704 H1694 0.930 . S
C1704 C1703 1.400 . S
C1704 C1707 1.386 . S
H1705 C1721 0.930 . S
H1706 C1722 0.931 . S
C1707 H1695 0.929 1_554 S
C1707 C1701 1.390 . S
C1707 C1704 1.386 . S
C1708 C1703 1.490 . S
C1708 C1710 1.395 . S
C1708 C1711 1.403 . S
H1709 C1715 0.930 . S
C1710 H1696 0.930 . S
C1710 C1708 1.395 . S
C1710 C1713 1.403 . S
C1711 C1708 1.403 . S
C1711 C1712 1.524 . S
C1711 C1715 1.400 . S
C1712 H1697 0.960 . S
C1712 H1698 0.960 . S
C1712 H1699 0.960 . S
C1712 C1711 1.524 . S
C1713 C1710 1.403 . S
C1713 C1714 1.392 . S
C1713 C1717 1.495 . S
C1714 C1713 1.392 . S
C1714 C1715 1.385 . S
C1714 C1716 1.478 . S
C1715 H1709 0.930 . S
C1715 C1711 1.400 . S
C1715 C1714 1.385 . S
C1716 C1714 1.478 . S
C1716 C1718 1.381 . S
C1716 C1722 1.383 . S
C1717 C1713 1.495 . S
C1717 H1723 0.959 . S
C1717 H1724 0.961 . S
C1717 H1725 0.960 . S
C1718 C1716 1.381 . S
C1718 C1719 1.394 . S
C1718 H1726 0.930 . S
C1719 C1718 1.394 . S
C1719 C1720 1.383 . S
C1719 H1727 0.929 . S
C1720 C1719 1.383 . S
C1720 C1721 1.377 . S
C1721 H1705 0.930 . S
C1721 C1720 1.377 . S
C1721 C1722 1.379 . S
C1722 H1706 0.931 . S
C1722 C1716 1.383 . S
C1722 C1721 1.379 . S
H1723 C1717 0.959 . S
H1724 C1717 0.961 . S
H1725 C1717 0.960 . S
H1726 C1718 0.930 . S
H1727 C1719 0.929 . S
H1728 C1736 0.929 . S
H1729 C1738 0.930 . S
H1730 C1740 0.930 . S
H1731 C1743 0.929 . S
H1732 C1746 0.930 . S
H1733 C1748 0.960 . S
H1734 C1748 0.960 . S
H1735 C1748 0.960 . S
C1736 H1728 0.929 . S
C1736 C1737 1.377 . S
C1736 C1738 1.384 . S
C1737 C1736 1.377 . S
C1737 C1743 1.390 . S
C1738 H1729 0.930 . S
C1738 C1736 1.384 . S
C1738 C1739 1.372 . S
C1739 C1738 1.372 . S
C1739 C1740 1.400 . S
C1739 C1744 1.490 . S
C1740 H1730 0.930 . S
C1740 C1739 1.400 . S
C1740 C1743 1.386 . S
H1741 C1757 0.930 . S
H1742 C1758 0.931 . S
C1743 H1731 0.929 . S
C1743 C1737 1.390 . S
C1743 C1740 1.386 . S
C1744 C1739 1.490 . S
C1744 C1746 1.395 . S
C1744 C1747 1.403 . S
H1745 C1751 0.930 . S
C1746 H1732 0.930 . S
C1746 C1744 1.395 . S
C1746 C1749 1.403 . S
C1747 C1744 1.403 . S
C1747 C1748 1.524 . S
C1747 C1751 1.400 . S
C1748 H1733 0.960 . S
C1748 H1734 0.960 . S
C1748 H1735 0.960 . S
C1748 C1747 1.524 . S
C1749 C1746 1.403 . S
C1749 C1750 1.392 . S
C1749 C1753 1.495 . S
C1750 C1749 1.392 . S
C1750 C1751 1.385 . S
C1750 C1752 1.478 . S
C1751 H1745 0.930 . S
C1751 C1747 1.400 . S
C1751 C1750 1.385 . S
C1752 C1750 1.478 . S
C1752 C1754 1.381 . S
C1752 C1758 1.383 . S
C1753 C1749 1.495 . S
C1753 H1759 0.959 . S
C1753 H1760 0.961 . S
C1753 H1761 0.960 . S
C1754 C1752 1.381 . S
C1754 C1755 1.394 . S
C1754 H1762 0.930 . S
C1755 C1754 1.394 . S
C1755 C1756 1.383 . S
C1755 H1763 0.929 . S
C1756 C1755 1.383 . S
C1756 C1757 1.377 . S
C1757 H1741 0.930 . S
C1757 C1756 1.377 . S
C1757 C1758 1.379 . S
C1758 H1742 0.931 . S
C1758 C1752 1.383 . S
C1758 C1757 1.379 . S
H1759 C1753 0.959 . S
H1760 C1753 0.961 . S
H1761 C1753 0.960 . S
H1762 C1754 0.930 . S
H1763 C1755 0.929 . S
H1764 C1772 0.929 . S
H1765 C1774 0.930 . S
H1766 C1776 0.930 . S
H1767 C1779 0.929 . S
H1768 C1782 0.930 . S
H1769 C1784 0.960 . S
H1770 C1784 0.960 . S
H1771 C1784 0.960 . S
C1772 H1764 0.929 . S
C1772 C1773 1.377 . S
C1772 C1774 1.384 . S
C1773 C1772 1.377 . S
C1773 C1779 1.390 1_556 S
C1774 H1765 0.930 . S
C1774 C1772 1.384 . S
C1774 C1775 1.372 1_556 S
C1775 C1774 1.372 1_554 S
C1775 C1776 1.400 . S
C1775 C1780 1.490 . S
C1776 H1766 0.930 . S
C1776 C1775 1.400 . S
C1776 C1779 1.386 . S
H1777 C1793 0.930 . S
H1778 C1794 0.931 . S
C1779 H1767 0.929 . S
C1779 C1773 1.390 1_554 S
C1779 C1776 1.386 . S
C1780 C1775 1.490 . S
C1780 C1782 1.395 . S
C1780 C1783 1.403 . S
H1781 C1787 0.930 . S
C1782 H1768 0.930 . S
C1782 C1780 1.395 . S
C1782 C1785 1.403 . S
C1783 C1780 1.403 . S
C1783 C1784 1.524 . S
C1783 C1787 1.400 . S
C1784 H1769 0.960 . S
C1784 H1770 0.960 . S
C1784 H1771 0.960 . S
C1784 C1783 1.524 . S
C1785 C1782 1.403 . S
C1785 C1786 1.392 . S
C1785 C1789 1.495 . S
C1786 C1785 1.392 . S
C1786 C1787 1.385 . S
C1786 C1788 1.478 . S
C1787 H1781 0.930 . S
C1787 C1783 1.400 . S
C1787 C1786 1.385 . S
C1788 C1786 1.478 . S
C1788 C1790 1.381 . S
C1788 C1794 1.383 . S
C1789 C1785 1.495 . S
C1789 H1795 0.959 . S
C1789 H1796 0.961 . S
C1789 H1797 0.960 . S
C1790 C1788 1.381 . S
C1790 C1791 1.394 . S
C1790 H1798 0.930 . S
C1791 C1790 1.394 . S
C1791 C1792 1.383 . S
C1791 H1799 0.929 . S
C1792 C1791 1.383 . S
C1792 C1793 1.377 . S
C1793 H1777 0.930 . S
C1793 C1792 1.377 . S
C1793 C1794 1.379 . S
C1794 H1778 0.931 . S
C1794 C1788 1.383 . S
C1794 C1793 1.379 . S
H1795 C1789 0.959 . S
H1796 C1789 0.961 . S
H1797 C1789 0.960 . S
H1798 C1790 0.930 . S
H1799 C1791 0.929 . S
H1800 C1808 0.929 . S
H1801 C1810 0.930 . S
H1802 C1812 0.930 . S
H1803 C1815 0.929 . S
H1804 C1818 0.930 . S
H1805 C1820 0.960 . S
H1806 C1820 0.960 . S
H1807 C1820 0.960 . S
C1808 H1800 0.929 . S
C1808 C1809 1.377 . S
C1808 C1810 1.384 . S
C1809 C1808 1.377 . S
C1809 C1815 1.390 . S
C1810 H1801 0.930 . S
C1810 C1808 1.384 . S
C1810 C1811 1.372 . S
C1811 C1810 1.372 . S
C1811 C1812 1.400 . S
C1811 C1816 1.490 . S
C1812 H1802 0.930 . S
C1812 C1811 1.400 . S
C1812 C1815 1.386 . S
H1813 C1829 0.930 . S
H1814 C1830 0.931 . S
C1815 H1803 0.929 . S
C1815 C1809 1.390 . S
C1815 C1812 1.386 . S
C1816 C1811 1.490 . S
C1816 C1818 1.395 . S
C1816 C1819 1.403 . S
H1817 C1823 0.930 . S
C1818 H1804 0.930 . S
C1818 C1816 1.395 . S
C1818 C1821 1.403 . S
C1819 C1816 1.403 . S
C1819 C1820 1.524 . S
C1819 C1823 1.400 . S
C1820 H1805 0.960 . S
C1820 H1806 0.960 . S
C1820 H1807 0.960 . S
C1820 C1819 1.524 . S
C1821 C1818 1.403 . S
C1821 C1822 1.392 . S
C1821 C1825 1.495 . S
C1822 C1821 1.392 . S
C1822 C1823 1.385 . S
C1822 C1824 1.478 . S
C1823 H1817 0.930 . S
C1823 C1819 1.400 . S
C1823 C1822 1.385 . S
C1824 C1822 1.478 . S
C1824 C1826 1.381 . S
C1824 C1830 1.383 . S
C1825 C1821 1.495 . S
C1825 H1831 0.959 . S
C1825 H1832 0.961 . S
C1825 H1833 0.960 . S
C1826 C1824 1.381 . S
C1826 C1827 1.394 . S
C1826 H1834 0.930 . S
C1827 C1826 1.394 . S
C1827 C1828 1.383 . S
C1827 H1835 0.929 . S
C1828 C1827 1.383 . S
C1828 C1829 1.377 . S
C1829 H1813 0.930 . S
C1829 C1828 1.377 . S
C1829 C1830 1.379 . S
C1830 H1814 0.931 . S
C1830 C1824 1.383 . S
C1830 C1829 1.379 . S
H1831 C1825 0.959 . S
H1832 C1825 0.961 . S
H1833 C1825 0.960 . S
H1834 C1826 0.930 . S
H1835 C1827 0.929 . S
H1836 C1844 0.929 . S
H1837 C1846 0.930 . S
H1838 C1848 0.930 . S
H1839 C1851 0.929 . S
H1840 C1854 0.930 . S
H1841 C1856 0.960 . S
H1842 C1856 0.960 . S
H1843 C1856 0.960 . S
C1844 H1836 0.929 . S
C1844 C1845 1.377 . S
C1844 C1846 1.384 . S
C1845 C1844 1.377 . S
C1845 C1851 1.390 . S
C1846 H1837 0.930 . S
C1846 C1844 1.384 . S
C1846 C1847 1.372 . S
C1847 C1846 1.372 . S
C1847 C1848 1.400 . S
C1847 C1852 1.490 . S
C1848 H1838 0.930 . S
C1848 C1847 1.400 . S
C1848 C1851 1.386 . S
H1849 C1865 0.930 . S
H1850 C1866 0.931 . S
C1851 H1839 0.929 . S
C1851 C1845 1.390 . S
C1851 C1848 1.386 . S
C1852 C1847 1.490 . S
C1852 C1854 1.395 . S
C1852 C1855 1.403 . S
H1853 C1859 0.930 . S
C1854 H1840 0.930 . S
C1854 C1852 1.395 . S
C1854 C1857 1.403 . S
C1855 C1852 1.403 . S
C1855 C1856 1.524 . S
C1855 C1859 1.400 . S
C1856 H1841 0.960 . S
C1856 H1842 0.960 . S
C1856 H1843 0.960 . S
C1856 C1855 1.524 . S
C1857 C1854 1.403 . S
C1857 C1858 1.392 . S
C1857 C1861 1.495 . S
C1858 C1857 1.392 . S
C1858 C1859 1.385 . S
C1858 C1860 1.478 . S
C1859 H1853 0.930 . S
C1859 C1855 1.400 . S
C1859 C1858 1.385 . S
C1860 C1858 1.478 . S
C1860 C1862 1.381 . S
C1860 C1866 1.383 . S
C1861 C1857 1.495 . S
C1861 H1867 0.959 . S
C1861 H1868 0.961 . S
C1861 H1869 0.960 . S
C1862 C1860 1.381 . S
C1862 C1863 1.394 . S
C1862 H1870 0.930 . S
C1863 C1862 1.394 . S
C1863 C1864 1.383 . S
C1863 H1871 0.929 . S
C1864 C1863 1.383 . S
C1864 C1865 1.377 . S
C1865 H1849 0.930 . S
C1865 C1864 1.377 . S
C1865 C1866 1.379 . S
C1866 H1850 0.931 . S
C1866 C1860 1.383 . S
C1866 C1865 1.379 . S
H1867 C1861 0.959 . S
H1868 C1861 0.961 . S
H1869 C1861 0.960 . S
H1870 C1862 0.930 . S
H1871 C1863 0.929 . S
H1872 C1880 0.929 . S
H1873 C1882 0.930 . S
H1874 C1884 0.930 . S
H1875 C1887 0.929 . S
H1876 C1890 0.930 . S
H1877 C1892 0.960 . S
H1878 C1892 0.960 . S
H1879 C1892 0.960 . S
C1880 H1872 0.929 . S
C1880 C1881 1.377 . S
C1880 C1882 1.384 . S
C1881 C1880 1.377 . S
C1881 C1887 1.390 . S
C1882 H1873 0.930 . S
C1882 C1880 1.384 . S
C1882 C1883 1.372 . S
C1883 C1882 1.372 . S
C1883 C1884 1.400 . S
C1883 C1888 1.490 . S
C1884 H1874 0.930 . S
C1884 C1883 1.400 . S
C1884 C1887 1.386 . S
H1885 C1901 0.930 . S
H1886 C1902 0.931 . S
C1887 H1875 0.929 . S
C1887 C1881 1.390 . S
C1887 C1884 1.386 . S
C1888 C1883 1.490 . S
C1888 C1890 1.395 . S
C1888 C1891 1.403 . S
H1889 C1895 0.930 . S
C1890 H1876 0.930 . S
C1890 C1888 1.395 . S
C1890 C1893 1.403 . S
C1891 C1888 1.403 . S
C1891 C1892 1.524 . S
C1891 C1895 1.400 . S
C1892 H1877 0.960 . S
C1892 H1878 0.960 . S
C1892 H1879 0.960 . S
C1892 C1891 1.524 . S
C1893 C1890 1.403 . S
C1893 C1894 1.392 . S
C1893 C1897 1.495 . S
C1894 C1893 1.392 . S
C1894 C1895 1.385 . S
C1894 C1896 1.478 . S
C1895 H1889 0.930 . S
C1895 C1891 1.400 . S
C1895 C1894 1.385 . S
C1896 C1894 1.478 . S
C1896 C1898 1.381 . S
C1896 C1902 1.383 . S
C1897 C1893 1.495 . S
C1897 H1903 0.959 . S
C1897 H1904 0.961 . S
C1897 H1905 0.960 . S
C1898 C1896 1.381 . S
C1898 C1899 1.394 . S
C1898 H1906 0.930 . S
C1899 C1898 1.394 . S
C1899 C1900 1.383 . S
C1899 H1907 0.929 . S
C1900 C1899 1.383 . S
C1900 C1901 1.377 . S
C1901 H1885 0.930 . S
C1901 C1900 1.377 . S
C1901 C1902 1.379 . S
C1902 H1886 0.931 . S
C1902 C1896 1.383 . S
C1902 C1901 1.379 . S
H1903 C1897 0.959 . S
H1904 C1897 0.961 . S
H1905 C1897 0.960 . S
H1906 C1898 0.930 . S
H1907 C1899 0.929 . S
H1908 C1916 0.929 . S
H1909 C1918 0.930 . S
H1910 C1920 0.930 . S
H1911 C1923 0.929 . S
H1912 C1926 0.930 . S
H1913 C1928 0.960 . S
H1914 C1928 0.960 . S
H1915 C1928 0.960 . S
C1916 H1908 0.929 . S
C1916 C1917 1.377 . S
C1916 C1918 1.384 . S
C1917 C1916 1.377 . S
C1917 C1923 1.390 . S
C1918 H1909 0.930 . S
C1918 C1916 1.384 . S
C1918 C1919 1.372 . S
C1919 C1918 1.372 . S
C1919 C1920 1.400 . S
C1919 C1924 1.490 . S
C1920 H1910 0.930 . S
C1920 C1919 1.400 . S
C1920 C1923 1.386 . S
H1921 C1937 0.930 . S
H1922 C1938 0.931 . S
C1923 H1911 0.929 . S
C1923 C1917 1.390 . S
C1923 C1920 1.386 . S
C1924 C1919 1.490 . S
C1924 C1926 1.395 . S
C1924 C1927 1.403 . S
H1925 C1931 0.930 . S
C1926 H1912 0.930 . S
C1926 C1924 1.395 . S
C1926 C1929 1.403 . S
C1927 C1924 1.403 . S
C1927 C1928 1.524 . S
C1927 C1931 1.400 . S
C1928 H1913 0.960 . S
C1928 H1914 0.960 . S
C1928 H1915 0.960 . S
C1928 C1927 1.524 . S
C1929 C1926 1.403 . S
C1929 C1930 1.392 . S
C1929 C1933 1.495 . S
C1930 C1929 1.392 . S
C1930 C1931 1.385 . S
C1930 C1932 1.478 . S
C1931 H1925 0.930 . S
C1931 C1927 1.400 . S
C1931 C1930 1.385 . S
C1932 C1930 1.478 . S
C1932 C1934 1.381 . S
C1932 C1938 1.383 . S
C1933 C1929 1.495 . S
C1933 H1939 0.959 . S
C1933 H1940 0.961 . S
C1933 H1941 0.960 . S
C1934 C1932 1.381 . S
C1934 C1935 1.394 . S
C1934 H1942 0.930 . S
C1935 C1934 1.394 . S
C1935 C1936 1.383 . S
C1935 H1943 0.929 . S
C1936 C1935 1.383 . S
C1936 C1937 1.377 . S
C1937 H1921 0.930 . S
C1937 C1936 1.377 . S
C1937 C1938 1.379 . S
C1938 H1922 0.931 . S
C1938 C1932 1.383 . S
C1938 C1937 1.379 . S
H1939 C1933 0.959 . S
H1940 C1933 0.961 . S
H1941 C1933 0.960 . S
H1942 C1934 0.930 . S
H1943 C1935 0.929 . S
H1944 C1952 0.929 . S
H1945 C1954 0.930 . S
H1946 C1956 0.930 . S
H1947 C1959 0.929 . S
H1948 C1962 0.930 . S
H1949 C1964 0.960 . S
H1950 C1964 0.960 . S
H1951 C1964 0.960 . S
C1952 H1944 0.929 . S
C1952 C1953 1.377 . S
C1952 C1954 1.384 . S
C1953 C1952 1.377 . S
C1953 C1959 1.390 . S
C1954 H1945 0.930 . S
C1954 C1952 1.384 . S
C1954 C1955 1.372 . S
C1955 C1954 1.372 . S
C1955 C1956 1.400 . S
C1955 C1960 1.490 . S
C1956 H1946 0.930 . S
C1956 C1955 1.400 . S
C1956 C1959 1.386 . S
H1957 C1973 0.930 . S
H1958 C1974 0.931 . S
C1959 H1947 0.929 . S
C1959 C1953 1.390 . S
C1959 C1956 1.386 . S
C1960 C1955 1.490 . S
C1960 C1962 1.395 . S
C1960 C1963 1.403 . S
H1961 C1967 0.930 . S
C1962 H1948 0.930 . S
C1962 C1960 1.395 . S
C1962 C1965 1.403 . S
C1963 C1960 1.403 . S
C1963 C1964 1.524 . S
C1963 C1967 1.400 . S
C1964 H1949 0.960 . S
C1964 H1950 0.960 . S
C1964 H1951 0.960 . S
C1964 C1963 1.524 . S
C1965 C1962 1.403 . S
C1965 C1966 1.392 . S
C1965 C1969 1.495 1_556 S
C1966 C1965 1.392 . S
C1966 C1967 1.385 . S
C1966 C1968 1.478 . S
C1967 H1961 0.930 . S
C1967 C1963 1.400 . S
C1967 C1966 1.385 . S
C1968 C1966 1.478 . S
C1968 C1970 1.381 . S
C1968 C1974 1.383 1_556 S
C1969 C1965 1.495 1_554 S
C1969 H1975 0.959 . S
C1969 H1976 0.961 . S
C1969 H1977 0.960 1_554 S
C1970 C1968 1.381 . S
C1970 C1971 1.394 . S
C1970 H1978 0.930 . S
C1971 C1970 1.394 . S
C1971 C1972 1.383 . S
C1971 H1979 0.929 . S
C1972 C1971 1.383 . S
C1972 C1973 1.377 1_556 S
C1973 H1957 0.930 . S
C1973 C1972 1.377 1_554 S
C1973 C1974 1.379 . S
C1974 H1958 0.931 . S
C1974 C1968 1.383 1_554 S
C1974 C1973 1.379 . S
H1975 C1969 0.959 . S
H1976 C1969 0.961 . S
H1977 C1969 0.960 1_556 S
H1978 C1970 0.930 . S
H1979 C1971 0.929 . S
H1980 C1988 0.929 . S
H1981 C1990 0.930 . S
H1982 C1992 0.930 . S
H1983 C1995 0.929 . S
H1984 C1998 0.930 . S
H1985 C2000 0.960 . S
H1986 C2000 0.960 . S
H1987 C2000 0.960 . S
C1988 H1980 0.929 . S
C1988 C1989 1.377 . S
C1988 C1990 1.384 . S
C1989 C1988 1.377 . S
C1989 C1995 1.390 . S
C1990 H1981 0.930 . S
C1990 C1988 1.384 . S
C1990 C1991 1.372 . S
C1991 C1990 1.372 . S
C1991 C1992 1.400 . S
C1991 C1996 1.490 . S
C1992 H1982 0.930 . S
C1992 C1991 1.400 . S
C1992 C1995 1.386 . S
H1993 C2009 0.930 . S
H1994 C2010 0.931 . S
C1995 H1983 0.929 . S
C1995 C1989 1.390 . S
C1995 C1992 1.386 . S
C1996 C1991 1.490 . S
C1996 C1998 1.395 . S
C1996 C1999 1.403 . S
H1997 C2003 0.930 . S
C1998 H1984 0.930 . S
C1998 C1996 1.395 . S
C1998 C2001 1.403 . S
C1999 C1996 1.403 . S
C1999 C2000 1.524 . S
C1999 C2003 1.400 . S
C2000 H1985 0.960 . S
C2000 H1986 0.960 . S
C2000 H1987 0.960 . S
C2000 C1999 1.524 . S
C2001 C1998 1.403 . S
C2001 C2002 1.392 . S
C2001 C2005 1.495 . S
C2002 C2001 1.392 . S
C2002 C2003 1.385 . S
C2002 C2004 1.478 . S
C2003 H1997 0.930 . S
C2003 C1999 1.400 . S
C2003 C2002 1.385 . S
C2004 C2002 1.478 . S
C2004 C2006 1.381 . S
C2004 C2010 1.383 . S
C2005 C2001 1.495 . S
C2005 H2011 0.959 . S
C2005 H2012 0.961 . S
C2005 H2013 0.960 . S
C2006 C2004 1.381 . S
C2006 C2007 1.394 . S
C2006 H2014 0.930 . S
C2007 C2006 1.394 . S
C2007 C2008 1.383 . S
C2007 H2015 0.929 . S
C2008 C2007 1.383 . S
C2008 C2009 1.377 . S
C2009 H1993 0.930 . S
C2009 C2008 1.377 . S
C2009 C2010 1.379 . S
C2010 H1994 0.931 . S
C2010 C2004 1.383 . S
C2010 C2009 1.379 . S
H2011 C2005 0.959 . S
H2012 C2005 0.961 . S
H2013 C2005 0.960 . S
H2014 C2006 0.930 . S
H2015 C2007 0.929 . S
H2016 C2024 0.929 . S
H2017 C2026 0.930 . S
H2018 C2028 0.930 . S
H2019 C2031 0.929 . S
H2020 C2034 0.930 . S
H2021 C2036 0.960 . S
H2022 C2036 0.960 . S
H2023 C2036 0.960 . S
C2024 H2016 0.929 . S
C2024 C2025 1.377 . S
C2024 C2026 1.384 . S
C2025 C2024 1.377 . S
C2025 C2031 1.390 . S
C2026 H2017 0.930 . S
C2026 C2024 1.384 . S
C2026 C2027 1.372 . S
C2027 C2026 1.372 . S
C2027 C2028 1.400 . S
C2027 C2032 1.490 . S
C2028 H2018 0.930 . S
C2028 C2027 1.400 . S
C2028 C2031 1.386 . S
H2029 C2045 0.930 1_556 S
H2030 C2046 0.931 1_556 S
C2031 H2019 0.929 . S
C2031 C2025 1.390 . S
C2031 C2028 1.386 . S
C2032 C2027 1.490 . S
C2032 C2034 1.395 . S
C2032 C2035 1.403 . S
H2033 C2039 0.930 . S
C2034 H2020 0.930 . S
C2034 C2032 1.395 . S
C2034 C2037 1.403 . S
C2035 C2032 1.403 . S
C2035 C2036 1.524 . S
C2035 C2039 1.400 . S
C2036 H2021 0.960 . S
C2036 H2022 0.960 . S
C2036 H2023 0.960 . S
C2036 C2035 1.524 . S
C2037 C2034 1.403 . S
C2037 C2038 1.392 . S
C2037 C2041 1.495 . S
C2038 C2037 1.392 . S
C2038 C2039 1.385 . S
C2038 C2040 1.478 . S
C2039 H2033 0.930 . S
C2039 C2035 1.400 . S
C2039 C2038 1.385 . S
C2040 C2038 1.478 . S
C2040 C2042 1.381 . S
C2040 C2046 1.383 . S
C2041 C2037 1.495 . S
C2041 H2047 0.959 . S
C2041 H2048 0.961 . S
C2041 H2049 0.960 . S
C2042 C2040 1.381 . S
C2042 C2043 1.394 . S
C2042 H2050 0.930 . S
C2043 C2042 1.394 . S
C2043 C2044 1.383 . S
C2043 H2051 0.929 . S
C2044 C2043 1.383 . S
C2044 C2045 1.377 . S
C2045 H2029 0.930 1_554 S
C2045 C2044 1.377 . S
C2045 C2046 1.379 . S
C2046 H2030 0.931 1_554 S
C2046 C2040 1.383 . S
C2046 C2045 1.379 . S
H2047 C2041 0.959 . S
H2048 C2041 0.961 . S
H2049 C2041 0.960 . S
H2050 C2042 0.930 . S
H2051 C2043 0.929 . S
H2052 C2060 0.929 . S
H2053 C2062 0.930 . S
H2054 C2064 0.930 . S
H2055 C2067 0.929 . S
H2056 C2070 0.930 . S
H2057 C2072 0.960 . S
H2058 C2072 0.960 . S
H2059 C2072 0.960 . S
C2060 H2052 0.929 . S
C2060 C2061 1.377 . S
C2060 C2062 1.384 . S
C2061 C2060 1.377 . S
C2061 C2067 1.390 1_545 S
C2062 H2053 0.930 . S
C2062 C2060 1.384 . S
C2062 C2063 1.372 1_545 S
C2063 C2062 1.372 1_565 S
C2063 C2064 1.400 . S
C2063 C2068 1.490 . S
C2064 H2054 0.930 . S
C2064 C2063 1.400 . S
C2064 C2067 1.386 . S
H2065 C2081 0.930 . S
H2066 C2082 0.931 . S
C2067 H2055 0.929 . S
C2067 C2061 1.390 1_565 S
C2067 C2064 1.386 . S
C2068 C2063 1.490 . S
C2068 C2070 1.395 . S
C2068 C2071 1.403 . S
H2069 C2075 0.930 1_556 S
C2070 H2056 0.930 . S
C2070 C2068 1.395 . S
C2070 C2073 1.403 . S
C2071 C2068 1.403 . S
C2071 C2072 1.524 1_554 S
C2071 C2075 1.400 . S
C2072 H2057 0.960 . S
C2072 H2058 0.960 . S
C2072 H2059 0.960 . S
C2072 C2071 1.524 1_556 S
C2073 C2070 1.403 . S
C2073 C2074 1.392 . S
C2073 C2077 1.495 . S
C2074 C2073 1.392 . S
C2074 C2075 1.385 . S
C2074 C2076 1.478 . S
C2075 H2069 0.930 1_554 S
C2075 C2071 1.400 . S
C2075 C2074 1.385 . S
C2076 C2074 1.478 . S
C2076 C2078 1.381 . S
C2076 C2082 1.383 . S
C2077 C2073 1.495 . S
C2077 H2083 0.959 . S
C2077 H2084 0.961 . S
C2077 H2085 0.960 . S
C2078 C2076 1.381 . S
C2078 C2079 1.394 . S
C2078 H2086 0.930 . S
C2079 C2078 1.394 . S
C2079 C2080 1.383 . S
C2079 H2087 0.929 . S
C2080 C2079 1.383 . S
C2080 C2081 1.377 . S
C2081 H2065 0.930 . S
C2081 C2080 1.377 . S
C2081 C2082 1.379 . S
C2082 H2066 0.931 . S
C2082 C2076 1.383 . S
C2082 C2081 1.379 . S
H2083 C2077 0.959 . S
H2084 C2077 0.961 . S
H2085 C2077 0.960 . S
H2086 C2078 0.930 . S
H2087 C2079 0.929 . S
C388 C203 1.694 . S
C369 C66 1.737 . S
C424 C211 0.889 . S
C405 C76 1.119 . S
C441 C93 1.823 . S
C460 C231 1.792 . S
C496 C245 1.441 . S
C477 C54 1.478 . S
C532 C260 1.490 . S
C513 C126 1.493 . S
C568 C274 1.881 . S
C549 C150 1.891 . S
C585 C136 1.167 . S
C604 C288 1.176 . S
C640 C294 1.753 . S
C621 C117 1.802 . S
C657 C141 1.271 . S
C676 C308 1.219 . S
C712 C329 1.332 . S
C693 C112 1.350 . S
C729 C124 1.486 . S
C748 C309 1.277 . S
C784 C330 1.234 . S
C765 C148 1.237 . S
C801 C88 1.219 . S
C820 C337 1.121 . S
C837 C52 1.624 . S
C856 C343 1.604 . S
C873 C64 1.227 . S
C892 C336 1.165 . S
C909 C78 1.104 . S
C928 C344 1.108 . S
C945 C45 1.744 . S
C964 C238 1.714 1_565 S
C981 C177 1.944 . S
C1000 C239 1.750 . S
C1036 C196 1.363 . S
C1017 C189 1.408 . S
C1072 C217 1.547 . S
C1053 C102 1.562 . S
C1089 C57 1.771 1_545 S
C1108 C252 1.765 . S
C1144 C302 1.451 . S
C1125 C138 1.450 . S
C1180 C253 1.551 . S
C1161 C114 1.777 1_545 S
C1216 C281 1.505 . S
C1197 C153 1.788 . S
C1252 C287 1.717 . S
C1233 C174 1.740 . S
C1269 C184 1.117 . S
C1288 C295 0.889 . S
C1305 C105 1.824 . S
C1324 C259 1.797 . S
C1360 C273 1.463 . S
C1341 C162 1.479 . S
C1377 C42 1.495 . S
C1396 C232 1.493 . S
C1432 C246 1.891 . S
C1413 C6 1.892 . S
C1468 C204 1.170 . S
C1449 C16 1.165 . S
C1504 C210 1.729 . S
C1485 C33 1.801 1_455 S
C1521 C21 1.269 . S
C1540 C322 1.238 . S
C1557 C28 1.351 . S
C1576 C315 1.347 . S
C1593 C40 1.485 . S
C1612 C323 1.288 . S
C1629 C4 1.233 . S
C1648 C316 1.246 . S
C1684 C351 1.036 . S
C1665 C100 1.216 . S
C1720 C357 1.607 . S
C1701 C160 1.624 1_554 S
C1756 C350 1.209 . S
C1737 C172 1.225 . S
C1773 C186 1.107 . S
C1792 C358 1.112 . S
C1809 C129 1.742 . S
C1828 C266 1.730 . S
C1864 C267 1.755 . S
C1845 C69 1.944 . S
C1900 C280 1.368 . S
C1881 C81 1.408 . S
C1936 C301 1.521 . S
C1917 C90 1.566 . S
C1953 C165 1.769 . S
C1972 C224 1.738 1_556 S
C2008 C218 1.450 . S
C1989 C18 1.453 . S
C2025 C30 1.777 . S
C2044 C225 1.530 . S
C2080 C197 1.495 . S
C2061 C9 1.789 . S
