# Generated by pormake.
# Topology apo, (3,6)-cn, num edge types: 1
# Building blocks:
#     Node 0, Type 0, BuildingBlock: PAMTOO_clean_linker_0, # of connection points: 3
#     Node 1, Type 0, BuildingBlock: PAMTOO_clean_linker_0, # of connection points: 3
#     Node 2, Type 0, BuildingBlock: PAMTOO_clean_linker_0, # of connection points: 3
#     Node 3, Type 0, BuildingBlock: PAMTOO_clean_linker_0, # of connection points: 3
#     Node 4, Type 0, BuildingBlock: PAMTOO_clean_linker_0, # of connection points: 3
#     Node 5, Type 0, BuildingBlock: PAMTOO_clean_linker_0, # of connection points: 3
#     Node 6, Type 0, BuildingBlock: PAMTOO_clean_linker_0, # of connection points: 3
#     Node 7, Type 0, BuildingBlock: PAMTOO_clean_linker_0, # of connection points: 3
#     Node 8, Type 1, BuildingBlock: MIDCAF_clean_sbu_0, # of connection points: 6
#     Node 9, Type 1, BuildingBlock: MIDCAF_clean_sbu_0, # of connection points: 6
#     Node 10, Type 1, BuildingBlock: MIDCAF_clean_sbu_0, # of connection points: 6
#     Node 11, Type 1, BuildingBlock: MIDCAF_clean_sbu_0, # of connection points: 6
#     Edge 12, Type (0, 1), BuildingBlock: TEMPAE_clean_linker_10, # of connection points: 2
#     Edge 13, Type (0, 1), BuildingBlock: TEMPAE_clean_linker_10, # of connection points: 2
#     Edge 14, Type (0, 1), BuildingBlock: TEMPAE_clean_linker_10, # of connection points: 2
#     Edge 15, Type (0, 1), BuildingBlock: TEMPAE_clean_linker_10, # of connection points: 2
#     Edge 16, Type (0, 1), BuildingBlock: TEMPAE_clean_linker_10, # of connection points: 2
#     Edge 17, Type (0, 1), BuildingBlock: TEMPAE_clean_linker_10, # of connection points: 2
#     Edge 18, Type (0, 1), BuildingBlock: TEMPAE_clean_linker_10, # of connection points: 2
#     Edge 19, Type (0, 1), BuildingBlock: TEMPAE_clean_linker_10, # of connection points: 2
#     Edge 20, Type (0, 1), BuildingBlock: TEMPAE_clean_linker_10, # of connection points: 2
#     Edge 21, Type (0, 1), BuildingBlock: TEMPAE_clean_linker_10, # of connection points: 2
#     Edge 22, Type (0, 1), BuildingBlock: TEMPAE_clean_linker_10, # of connection points: 2
#     Edge 23, Type (0, 1), BuildingBlock: TEMPAE_clean_linker_10, # of connection points: 2
#     Edge 24, Type (0, 1), BuildingBlock: TEMPAE_clean_linker_10, # of connection points: 2
#     Edge 25, Type (0, 1), BuildingBlock: TEMPAE_clean_linker_10, # of connection points: 2
#     Edge 26, Type (0, 1), BuildingBlock: TEMPAE_clean_linker_10, # of connection points: 2
#     Edge 27, Type (0, 1), BuildingBlock: TEMPAE_clean_linker_10, # of connection points: 2
#     Edge 28, Type (0, 1), BuildingBlock: TEMPAE_clean_linker_10, # of connection points: 2
#     Edge 29, Type (0, 1), BuildingBlock: TEMPAE_clean_linker_10, # of connection points: 2
#     Edge 30, Type (0, 1), BuildingBlock: TEMPAE_clean_linker_10, # of connection points: 2
#     Edge 31, Type (0, 1), BuildingBlock: TEMPAE_clean_linker_10, # of connection points: 2
#     Edge 32, Type (0, 1), BuildingBlock: TEMPAE_clean_linker_10, # of connection points: 2
#     Edge 33, Type (0, 1), BuildingBlock: TEMPAE_clean_linker_10, # of connection points: 2
#     Edge 34, Type (0, 1), BuildingBlock: TEMPAE_clean_linker_10, # of connection points: 2
#     Edge 35, Type (0, 1), BuildingBlock: TEMPAE_clean_linker_10, # of connection points: 2
# Relax obj value: 0.013
# Max RMSD: 0.060
# Mean RMSD: 0.055
data_MOF--net-apo--node1-MIDCAF_clean_sbu_0--node2-PAMTOO_clean_linker_0--edge1-TEMPAE_clean_linker_10
_symmetry_space_group_name_H-M    P1
_symmetry_Int_Tables_number       1
_symmetry_cell_setting            triclinic
loop_
_symmetry_equiv_pos_as_xyz
'x, y, z'
_cell_length_a     37.007789
_cell_length_b     42.29567
_cell_length_c     34.468806
_cell_angle_alpha  89.861685
_cell_angle_beta   90.045622
_cell_angle_gamma 90.255632
loop_
_atom_site_label
_atom_site_type_symbol
_atom_site_fract_x
_atom_site_fract_y
_atom_site_fract_z
_atom_type_partial_charge
H0 H 0.40463 0.35732 0.41697 0.0
H1 H 0.34064 0.33541 0.31673 0.0
H2 H 0.31875 0.28801 0.42447 0.0
H3 H 0.32505 0.24835 0.34602 0.0
C4 C 0.30913 0.26556 0.32857 0.0
O5 O 0.30159 0.29185 0.35076 0.0
H6 H 0.32564 0.27259 0.30298 0.0
C7 C 0.38292 0.34377 0.40386 0.0
C8 C 0.36217 0.32267 0.42655 0.0
C9 C 0.37515 0.34867 0.36452 0.0
C10 C 0.34722 0.33147 0.347 0.0
C11 C 0.32792 0.30881 0.36833 0.0
C12 C 0.3351 0.30459 0.40806 0.0
H13 H 0.11276 0.13898 0.92197 0.0
H14 H 0.19601 0.21064 0.92976 0.0
H15 H 0.17828 0.16101 0.82292 0.0
H16 H 0.24996 0.16681 0.8396 0.0
C17 C 0.25184 0.18981 0.85514 0.0
O18 O 0.21804 0.20327 0.85797 0.0
H19 H 0.26261 0.18496 0.88472 0.0
C20 C 0.13352 0.15358 0.90874 0.0
C21 C 0.14254 0.14811 0.86984 0.0
C22 C 0.15236 0.17616 0.93111 0.0
C23 C 0.18091 0.19313 0.91352 0.0
C24 C 0.19008 0.18764 0.87455 0.0
C25 C 0.17071 0.16538 0.8528 0.0
H26 H 0.9142 0.14609 0.59974 0.0
H27 H 0.85293 0.16604 0.70246 0.0
H28 H 0.83327 0.21923 0.59828 0.0
H29 H 0.83726 0.25583 0.67593 0.0
C30 C 0.82307 0.23769 0.69382 0.0
O31 O 0.81507 0.21158 0.67143 0.0
H32 H 0.84143 0.23081 0.71798 0.0
C33 C 0.89434 0.16045 0.61456 0.0
C34 C 0.87503 0.18366 0.5939 0.0
C35 C 0.88656 0.15399 0.65359 0.0
C36 C 0.85956 0.17118 0.67247 0.0
C37 C 0.84097 0.19511 0.65277 0.0
C38 C 0.84841 0.20116 0.61347 0.0
H39 H 0.60777 0.35814 0.10175 0.0
H40 H 0.69158 0.28761 0.09641 0.0
H41 H 0.67205 0.33786 0.20234 0.0
H42 H 0.74348 0.33083 0.19197 0.0
C43 C 0.74581 0.30967 0.17303 0.0
O44 O 0.71233 0.29562 0.16862 0.0
H45 H 0.75605 0.31766 0.14424 0.0
C46 C 0.62844 0.344 0.11567 0.0
C47 C 0.63702 0.35007 0.15458 0.0
C48 C 0.6477 0.32143 0.09403 0.0
C49 C 0.67614 0.30502 0.11225 0.0
C50 C 0.68465 0.31089 0.15131 0.0
C51 C 0.66491 0.33314 0.17239 0.0
H52 H 0.61124 0.6374 0.59589 0.0
H53 H 0.69694 0.70676 0.58728 0.0
H54 H 0.67674 0.65902 0.69516 0.0
H55 H 0.6868 0.72459 0.7039 0.0
C56 C 0.70748 0.72993 0.68133 0.0
O57 O 0.7151 0.70275 0.66082 0.0
H58 H 0.69629 0.74811 0.66134 0.0
C59 C 0.63316 0.65086 0.60872 0.0
C60 C 0.64162 0.6457 0.64788 0.0
C61 C 0.65344 0.67215 0.58581 0.0
C62 C 0.68095 0.69003 0.60386 0.0
C63 C 0.68877 0.68563 0.64343 0.0
C64 C 0.66976 0.66294 0.66499 0.0
H65 H 0.90694 0.85302 0.0972 0.0
H66 H 0.84203 0.83365 0.19766 0.0
H67 H 0.82134 0.78352 0.09172 0.0
H68 H 0.75692 0.81193 0.13766 0.0
C69 C 0.7673 0.80586 0.16707 0.0
O70 O 0.80073 0.79174 0.16394 0.0
H71 H 0.76976 0.82829 0.18372 0.0
C72 C 0.88595 0.83911 0.11114 0.0
C73 C 0.86608 0.8168 0.08946 0.0
C74 C 0.87752 0.84534 0.15002 0.0
C75 C 0.84914 0.82878 0.16778 0.0
C76 C 0.82886 0.80667 0.1467 0.0
C77 C 0.83726 0.80069 0.10764 0.0
H78 H 0.12757 0.86679 0.43231 0.0
H79 H 0.20558 0.79115 0.43188 0.0
H80 H 0.17918 0.83976 0.32618 0.0
H81 H 0.18576 0.77425 0.31561 0.0
C82 C 0.20692 0.76794 0.33723 0.0
O83 O 0.21768 0.79473 0.35695 0.0
H84 H 0.19523 0.75048 0.35795 0.0
C85 C 0.14682 0.85195 0.41731 0.0
C86 C 0.15139 0.85623 0.37726 0.0
C87 C 0.16634 0.8288 0.43789 0.0
C88 C 0.1899 0.80903 0.41702 0.0
C89 C 0.19412 0.81288 0.37674 0.0
C90 C 0.17501 0.83649 0.35706 0.0
H91 H 0.40457 0.6339 0.91064 0.0
H92 H 0.34048 0.65638 0.81066 0.0
H93 H 0.32063 0.70424 0.91818 0.0
H94 H 0.25606 0.6758 0.86946 0.0
C95 C 0.26637 0.68429 0.84092 0.0
O96 O 0.30005 0.69793 0.84568 0.0
H97 H 0.26845 0.66346 0.82141 0.0
C98 C 0.38384 0.6483 0.89726 0.0
C99 C 0.36448 0.67032 0.91968 0.0
C100 C 0.37547 0.64321 0.85806 0.0
C101 C 0.34746 0.66037 0.8408 0.0
C102 C 0.32759 0.68211 0.8626 0.0
C103 C 0.33606 0.68711 0.90188 0.0
Zn104 Zn 0.03199 0.11293 0.32363 0.0
Zn105 Zn 0.97514 0.12028 0.19052 0.0
Zn106 Zn 0.00466 0.11869 0.25911 0.0
C107 C 0.04241 0.14953 0.18297 0.0
C108 C 0.97844 0.05705 0.2086 0.0
O109 O 0.96699 0.14007 0.30287 0.0
O110 O 0.98814 0.11662 0.35537 0.0
C111 C 0.07305 0.15804 0.28678 0.0
O112 O 0.04383 0.14285 0.21947 0.0
O113 O 0.01476 0.14256 0.16329 0.0
O114 O 0.96875 0.07468 0.18095 0.0
O115 O 0.99273 0.06931 0.23932 0.0
O116 O 0.06433 0.15022 0.32087 0.0
O117 O 0.05613 0.14582 0.25772 0.0
O118 O 0.01581 0.06791 0.2711 0.0
O119 O 0.05385 0.07066 0.32046 0.0
C120 C 0.03809 0.0546 0.29474 0.0
O121 O 0.95355 0.14563 0.26514 0.0
O122 O 0.93162 0.1439 0.2054 0.0
C123 C 0.96421 0.1332 0.33925 0.0
C124 C 0.92878 0.15254 0.24026 0.0
Zn125 Zn 0.55004 0.3733 0.69178 0.0
Zn126 Zn 0.47745 0.37255 0.81974 0.0
Zn127 Zn 0.51259 0.37287 0.7545 0.0
C128 C 0.48107 0.4354 0.79786 0.0
C129 C 0.43597 0.33764 0.7679 0.0
O130 O 0.56514 0.34841 0.76551 0.0
O131 O 0.59284 0.3499 0.70862 0.0
C132 C 0.54043 0.43618 0.70982 0.0
O133 O 0.49814 0.42288 0.7691 0.0
O134 O 0.46964 0.41817 0.82517 0.0
O135 O 0.43586 0.34732 0.80246 0.0
O136 O 0.46247 0.34446 0.74503 0.0
O137 O 0.55511 0.41917 0.68437 0.0
O138 O 0.52269 0.42322 0.73795 0.0
O139 O 0.48009 0.34714 0.70908 0.0
O140 O 0.5162 0.35058 0.65828 0.0
C141 C 0.48681 0.34136 0.67302 0.0
O142 O 0.54742 0.35162 0.80078 0.0
O143 O 0.51375 0.35278 0.85379 0.0
C144 C 0.59231 0.34157 0.74371 0.0
C145 C 0.54311 0.34607 0.83731 0.0
Zn146 Zn 0.03858 0.87649 0.82464 0.0
Zn147 Zn 0.97467 0.88181 0.69295 0.0
Zn148 Zn 0.00725 0.87795 0.75737 0.0
C149 C 0.98695 0.94331 0.71126 0.0
C150 C 0.9256 0.85286 0.74074 0.0
O151 O 0.05735 0.84925 0.75059 0.0
O152 O 0.08122 0.85207 0.80943 0.0
C153 C 0.03729 0.93948 0.80493 0.0
O154 O 0.99969 0.9291 0.74151 0.0
O155 O 0.97573 0.92733 0.68285 0.0
O156 O 0.92737 0.86437 0.70705 0.0
O157 O 0.953 0.85483 0.76379 0.0
O158 O 0.04631 0.92189 0.83285 0.0
O159 O 0.02212 0.92739 0.77459 0.0
O160 O 0.96945 0.85555 0.80019 0.0
O161 O 1.00041 0.85545 0.85514 0.0
C162 C 0.97192 0.849 0.83667 0.0
O163 O 0.04124 0.85211 0.71368 0.0
O164 O 0.0065 0.85518 0.6618 0.0
C165 C 0.08274 0.84246 0.77488 0.0
C166 C 0.03522 0.8457 0.67763 0.0
Zn167 Zn 0.53699 0.62408 0.19288 0.0
Zn168 Zn 0.46736 0.6174 0.3218 0.0
Zn169 Zn 0.50231 0.62142 0.2588 0.0
C170 C 0.52645 0.65453 0.33998 0.0
C171 C 0.48126 0.55604 0.3044 0.0
O172 O 0.46606 0.64258 0.21359 0.0
O173 O 0.49954 0.64409 0.16043 0.0
C174 C 0.57768 0.65892 0.24552 0.0
O175 O 0.53399 0.64779 0.30436 0.0
O176 O 0.49706 0.64504 0.35449 0.0
O177 O 0.46908 0.57195 0.3323 0.0
O178 O 0.4947 0.5703 0.2745 0.0
O179 O 0.57793 0.6499 0.2107 0.0
O180 O 0.55156 0.65101 0.26838 0.0
O181 O 0.51842 0.57245 0.24251 0.0
O182 O 0.5459 0.57857 0.18603 0.0
C183 C 0.53544 0.56074 0.21322 0.0
O184 O 0.44828 0.64349 0.24934 0.0
O185 O 0.4204 0.63347 0.30474 0.0
C186 C 0.46998 0.64938 0.17731 0.0
C187 C 0.41989 0.64485 0.27093 0.0
C188 C 0.13649 0.91326 0.37225 0.0
C189 C 0.13284 0.88265 0.35742 0.0
C190 C 0.11831 0.93872 0.35531 0.0
C191 C 0.09541 0.93339 0.32299 0.0
C192 C 0.09191 0.90254 0.30748 0.0
C193 C 0.11099 0.87746 0.32477 0.0
C194 C 0.12327 0.97131 0.37247 0.0
C195 C 0.06733 0.89595 0.27346 0.0
C196 C 0.0284 -2e-05 0.31808 0.0
C197 C 0.046 0.02075 0.2927 0.0
C198 C 0.04202 0.96959 0.32484 0.0
C199 C 0.07468 0.9604 0.30676 0.0
C200 C 0.09087 0.9805 0.27872 0.0
C201 C 0.07623 0.01058 0.272 0.0
C202 C 0.02345 0.94859 0.35421 0.0
C203 C 0.12576 0.97171 0.25893 0.0
H204 H 0.15372 0.91725 0.39725 0.0
H205 H 0.1081 0.85368 0.31347 0.0
H206 H 0.13237 0.98817 0.34974 0.0
H207 H 0.09711 0.98 0.38386 0.0
H208 H 0.14331 0.97159 0.39649 0.0
H209 H 0.06995 0.8713 0.26279 0.0
H210 H 0.03884 0.89988 0.28212 0.0
H211 H 0.07326 0.91247 0.24922 0.0
H212 H 0.00521 0.00821 0.33435 0.0
H213 H 0.09003 0.02702 0.25283 0.0
H214 H 0.0395 0.94814 0.38142 0.0
H215 H 0.02161 0.92397 0.34333 0.0
H216 H 0.99583 0.95702 0.36117 0.0
H217 H 0.14845 0.97453 0.27973 0.0
H218 H 0.13124 0.98694 0.23327 0.0
H219 H 0.12524 0.94665 0.24957 0.0
C220 C 0.37399 0.59189 0.82294 0.0
C221 C 0.39398 0.6177 0.83666 0.0
C222 C 0.39139 0.56464 0.80946 0.0
C223 C 0.42965 0.56352 0.8091 0.0
C224 C 0.44981 0.59077 0.81935 0.0
C225 C 0.43174 0.61742 0.83374 0.0
C226 C 0.36886 0.53615 0.79869 0.0
C227 C 0.4905 0.59109 0.81701 0.0
C228 C 0.46715 0.48346 0.83601 0.0
C229 C 0.47319 0.46966 0.79968 0.0
C230 C 0.45427 0.51438 0.83926 0.0
C231 C 0.44802 0.53243 0.80528 0.0
C232 C 0.45631 0.51939 0.7685 0.0
C233 C 0.46801 0.48782 0.76608 0.0
C234 C 0.44552 0.52705 0.87913 0.0
C235 C 0.45132 0.53792 0.73147 0.0
H236 H 0.34476 0.5922 0.82523 0.0
H237 H 0.44713 0.63765 0.8439 0.0
H238 H 0.37732 0.52693 0.77002 0.0
H239 H 0.37317 0.51707 0.82036 0.0
H240 H 0.33954 0.54162 0.79756 0.0
H241 H 0.50191 0.61517 0.8213 0.0
H242 H 0.5019 0.57517 0.83948 0.0
H243 H 0.49927 0.58209 0.78835 0.0
H244 H 0.47125 0.46959 0.86213 0.0
H245 H 0.47197 0.47714 0.73787 0.0
H246 H 0.41625 0.53245 0.88101 0.0
H247 H 0.46052 0.54938 0.88442 0.0
H248 H 0.45239 0.51005 0.90261 0.0
H249 H 0.42403 0.53294 0.71956 0.0
H250 H 0.47145 0.53066 0.70933 0.0
H251 H 0.45381 0.56377 0.73622 0.0
C252 C 0.64305 0.59442 0.68322 0.0
C253 C 0.62304 0.62008 0.66938 0.0
C254 C 0.62568 0.56695 0.69659 0.0
C255 C 0.58742 0.56545 0.69674 0.0
C256 C 0.5672 0.59251 0.68639 0.0
C257 C 0.58525 0.6194 0.6721 0.0
C258 C 0.64827 0.53866 0.70752 0.0
C259 C 0.52649 0.59238 0.68847 0.0
C260 C 0.55151 0.48451 0.67075 0.0
C261 C 0.54602 0.47074 0.70728 0.0
C262 C 0.56332 0.51583 0.66707 0.0
C263 C 0.56919 0.53418 0.70083 0.0
C264 C 0.56123 0.52113 0.73778 0.0
C265 C 0.55047 0.48926 0.74062 0.0
C266 C 0.57176 0.52855 0.62704 0.0
C267 C 0.56593 0.5399 0.77458 0.0
H268 H 0.67228 0.59502 0.68105 0.0
H269 H 0.56985 0.63951 0.66184 0.0
H270 H 0.63989 0.52939 0.73627 0.0
H271 H 0.64395 0.51951 0.686 0.0
H272 H 0.67758 0.54438 0.70854 0.0
H273 H 0.51505 0.6164 0.68448 0.0
H274 H 0.51528 0.57667 0.66567 0.0
H275 H 0.51753 0.58286 0.71692 0.0
H276 H 0.54804 0.47025 0.64489 0.0
H277 H 0.547 0.47857 0.76898 0.0
H278 H 0.60103 0.53413 0.62489 0.0
H279 H 0.55677 0.55078 0.62172 0.0
H280 H 0.5647 0.51148 0.60376 0.0
H281 H 0.59328 0.53547 0.78658 0.0
H282 H 0.54591 0.53231 0.79679 0.0
H283 H 0.56307 0.56568 0.76954 0.0
C284 C 0.87539 0.89727 0.18361 0.0
C285 C 0.89585 0.8718 0.17016 0.0
C286 C 0.89222 0.92532 0.19578 0.0
C287 C 0.93044 0.92763 0.19516 0.0
C288 C 0.95124 0.90092 0.18494 0.0
C289 C 0.93366 0.87342 0.17185 0.0
C290 C 0.869 0.95326 0.20638 0.0
C291 C 0.992 0.90203 0.18553 0.0
C292 C 0.96466 0.00933 0.16907 0.0
C293 C 0.9713 0.02264 0.20561 0.0
C294 C 0.95274 0.97803 0.16536 0.0
C295 C 0.94785 0.95925 0.19903 0.0
C296 C 0.95633 0.97196 0.23594 0.0
C297 C 0.96758 0.00369 0.2388 0.0
C298 C 0.94353 0.96564 0.12544 0.0
C299 C 0.95284 0.95233 0.27238 0.0
H300 H 0.84615 0.89603 0.18211 0.0
H301 H 0.94945 0.85354 0.16174 0.0
H302 H 0.87791 0.96349 0.23442 0.0
H303 H 0.87198 0.97196 0.18394 0.0
H304 H 0.83994 0.94681 0.20864 0.0
H305 H 0.00393 0.87801 0.18404 0.0
H306 H 1.00188 0.91592 0.16031 0.0
H307 H 1.00188 0.91393 0.21219 0.0
H308 H 0.96759 0.02378 0.14323 0.0
H309 H 0.97173 0.01406 0.26711 0.0
H310 H 0.91428 0.95984 0.12395 0.0
H311 H 0.9586 0.94356 0.11959 0.0
H312 H 0.9499 0.98298 0.10215 0.0
H313 H 0.9553 0.96691 0.29901 0.0
H314 H 0.97446 0.93424 0.2728 0.0
H315 H 0.92656 0.93963 0.27313 0.0
C316 C 0.9419 0.12735 0.67908 0.0
C317 C 0.90446 0.12715 0.67307 0.0
C318 C 0.95969 0.10016 0.6926 0.0
C319 C 0.93966 0.07198 0.69863 0.0
C320 C 0.90155 0.0723 0.69445 0.0
C321 C 0.88437 0.10005 0.6821 0.0
C322 C 1.00003 0.10116 0.69881 0.0
C323 C 0.87917 0.04275 0.70039 0.0
C324 C 0.98055 0.99297 0.67348 0.0
C325 C 0.982 0.97798 0.70975 0.0
C326 C 0.96856 0.02416 0.66981 0.0
C327 C 0.95853 0.04119 0.70341 0.0
C328 C 0.96271 0.02705 0.74047 0.0
C329 C 0.9736 0.99529 0.74314 0.0
C330 C 0.96409 0.038 0.62962 0.0
C331 C 0.95366 0.0445 0.77727 0.0
H332 H 0.9573 0.14852 0.67234 0.0
H333 H 0.8554 0.10005 0.67729 0.0
H334 H 0.00703 0.08973 0.7268 0.0
H335 H 0.01375 0.08774 0.67552 0.0
H336 H 0.01073 0.12574 0.69876 0.0
H337 H 0.84973 0.04732 0.6977 0.0
H338 H 0.88686 0.02474 0.67857 0.0
H339 H 0.88453 0.03257 0.72949 0.0
H340 H 0.98706 0.97967 0.64756 0.0
H341 H 0.974 0.98371 0.77121 0.0
H342 H 0.97845 0.06099 0.62738 0.0
H343 H 0.93503 0.04249 0.62392 0.0
H344 H 0.97449 0.02209 0.60664 0.0
H345 H 0.95706 0.07044 0.77395 0.0
H346 H 0.97092 0.03627 0.80167 0.0
H347 H 0.92512 0.03958 0.78515 0.0
C348 C 0.64017 0.40197 0.18813 0.0
C349 C 0.61928 0.37654 0.17486 0.0
C350 C 0.62376 0.42995 0.2007 0.0
C351 C 0.58558 0.43219 0.20061 0.0
C352 C 0.56442 0.40547 0.19061 0.0
C353 C 0.58153 0.37805 0.17714 0.0
C354 C 0.64731 0.4579 0.21114 0.0
C355 C 0.52372 0.40645 0.19226 0.0
C356 C 0.54947 0.50834 0.24423 0.0
C357 C 0.54413 0.52669 0.21082 0.0
C358 C 0.56048 0.47664 0.24151 0.0
C359 C 0.56837 0.46373 0.20459 0.0
C360 C 0.56264 0.48213 0.1708 0.0
C361 C 0.55016 0.51316 0.17434 0.0
C362 C 0.56497 0.45773 0.27835 0.0
C363 C 0.57127 0.46959 0.13084 0.0
H364 H 0.66938 0.40073 0.18625 0.0
H365 H 0.56545 0.35814 0.16727 0.0
H366 H 0.6436 0.47697 0.18934 0.0
H367 H 0.63927 0.4675 0.23975 0.0
H368 H 0.67643 0.45166 0.21224 0.0
H369 H 0.51148 0.38252 0.18972 0.0
H370 H 0.51485 0.41726 0.21992 0.0
H371 H 0.51328 0.4214 0.16829 0.0
H372 H 0.54601 0.51892 0.27255 0.0
H373 H 0.54615 0.52725 0.14837 0.0
H374 H 0.59265 0.46152 0.28987 0.0
H375 H 0.56106 0.43204 0.2734 0.0
H376 H 0.54554 0.46561 0.30087 0.0
H377 H 0.60038 0.46356 0.1291 0.0
H378 H 0.56503 0.48692 0.10753 0.0
H379 H 0.55568 0.44763 0.1252 0.0
C380 C 0.43144 0.37295 0.33735 0.0
C381 C 0.39403 0.37421 0.34332 0.0
C382 C 0.45037 0.39944 0.32317 0.0
C383 C 0.43154 0.428 0.31644 0.0
C384 C 0.39341 0.42864 0.32028 0.0
C385 C 0.37507 0.40155 0.3333 0.0
C386 C 0.49067 0.39741 0.31725 0.0
C387 C 0.37228 0.45862 0.3136 0.0
C388 C 0.47433 0.50639 0.34207 0.0
C389 C 0.47634 0.52135 0.30583 0.0
C390 C 0.46178 0.47526 0.34558 0.0
C391 C 0.45167 0.45833 0.31184 0.0
C392 C 0.45663 0.47237 0.27483 0.0
C393 C 0.46822 0.50403 0.2723 0.0
C394 C 0.4566 0.46149 0.38572 0.0
C395 C 0.44748 0.45501 0.23794 0.0
H396 H 0.44596 0.35159 0.34489 0.0
H397 H 0.34613 0.40239 0.33813 0.0
H398 H 0.49825 0.40826 0.28907 0.0
H399 H 0.50486 0.41083 0.34034 0.0
H400 H 0.50034 0.37258 0.31791 0.0
H401 H 0.34264 0.4547 0.31578 0.0
H402 H 0.38033 0.4766 0.3354 0.0
H403 H 0.37844 0.46849 0.28451 0.0
H404 H 0.4807 0.51969 0.36806 0.0
H405 H 0.46925 0.51558 0.24421 0.0
H406 H 0.4702 0.43827 0.3881 0.0
H407 H 0.42736 0.45751 0.39115 0.0
H408 H 0.46736 0.47723 0.4088 0.0
H409 H 0.45023 0.42904 0.24133 0.0
H410 H 0.46513 0.46305 0.21374 0.0
H411 H 0.41914 0.46022 0.22971 0.0
C412 C 0.08707 0.12154 0.84406 0.0
C413 C 0.12469 0.12205 0.84862 0.0
C414 C 0.06945 0.09462 0.82939 0.0
C415 C 0.08988 0.06734 0.82062 0.0
C416 C 0.12809 0.06856 0.82296 0.0
C417 C 0.14508 0.09609 0.83659 0.0
C418 C 0.0289 0.09477 0.82511 0.0
C419 C 0.15088 0.04 0.81392 0.0
C420 C 0.05001 0.98721 0.8445 0.0
C421 C 0.0459 0.9736 0.80772 0.0
C422 C 0.06315 0.01806 0.84885 0.0
C423 C 0.0715 0.03626 0.81549 0.0
C424 C 0.06529 0.0234 0.77813 0.0
C425 C 0.05355 0.99184 0.7747 0.0
C426 C 0.0699 0.03051 0.88931 0.0
C427 C 0.07245 0.04213 0.74163 0.0
H428 H 0.07141 0.14186 0.85301 0.0
H429 H 0.17419 0.09659 0.84022 0.0
H430 H 0.021 0.08405 0.79701 0.0
H431 H 0.01647 0.0803 0.84848 0.0
H432 H 0.01769 0.11905 0.82671 0.0
H433 H 0.18027 0.0454 0.81492 0.0
H434 H 0.14499 0.02094 0.83524 0.0
H435 H 0.1441 0.03077 0.78472 0.0
H436 H 0.04415 0.97324 0.87018 0.0
H437 H 0.0514 0.98125 0.74621 0.0
H438 H 0.05492 0.05284 0.89382 0.0
H439 H 0.09909 0.03585 0.89307 0.0
H440 H 0.0616 0.0134 0.91216 0.0
H441 H 0.06964 0.06794 0.74637 0.0
H442 H 0.05368 0.03483 0.71808 0.0
H443 H 0.10039 0.03744 0.73162 0.0
C444 C 0.10661 0.17721 0.98484 0.0
C445 C 0.1427 0.18056 0.97294 0.0
C446 C 0.09722 0.17642 0.0242 0.0
C447 C 0.12434 0.18048 0.05284 0.0
C448 C 0.16041 0.18653 0.04115 0.0
C449 C 0.16929 0.18598 1.00139 0.0
C450 C 0.05836 0.16966 0.03506 0.0
C451 C 0.18998 0.19229 0.07049 0.0
C452 C 0.07647 0.19173 0.14843 0.0
C453 C 0.07432 0.16038 0.16131 0.0
C454 C 0.09722 0.1997 0.1156 0.0
C455 C 0.11466 0.17545 0.09447 0.0
C456 C 0.11567 0.14443 0.11007 0.0
C457 C 0.09569 0.13737 0.14359 0.0
C458 C 0.09732 0.23342 0.10132 0.0
C459 C 0.13382 0.11775 0.08871 0.0
H460 H 0.08556 0.17424 0.96327 0.0
H461 H 0.19731 0.18864 0.99285 0.0
H462 H 0.0568 0.14776 0.05281 0.0
H463 H 0.0475 0.18923 0.05286 0.0
H464 H 0.04069 0.16665 1.00925 0.0
H465 H 0.21271 0.20594 0.05756 0.0
H466 H 0.17973 0.20523 0.09617 0.0
H467 H 0.20077 0.16928 0.08061 0.0
H468 H 0.05969 0.20949 0.16203 0.0
H469 H 0.09357 0.11304 0.1534 0.0
H470 H 0.07676 0.23616 0.07813 0.0
H471 H 0.12402 0.23985 0.08887 0.0
H472 H 0.09075 0.25019 0.12503 0.0
H473 H 0.11793 0.11194 0.06231 0.0
H474 H 0.13595 0.09609 0.10684 0.0
H475 H 0.16129 0.12484 0.07922 0.0
C476 C 0.37886 0.34797 0.48987 0.0
C477 C 0.36864 0.32069 0.46936 0.0
C478 C 0.39079 0.34631 0.52839 0.0
C479 C 0.39115 0.31677 0.54782 0.0
C480 C 0.37684 0.28977 0.52891 0.0
C481 C 0.36636 0.29187 0.48965 0.0
C482 C 0.40569 0.37589 0.54717 0.0
C483 C 0.37446 0.25823 0.54927 0.0
C484 C 0.47314 0.31286 0.61211 0.0
C485 C 0.46023 0.32632 0.64656 0.0
C486 C 0.45016 0.30696 0.58072 0.0
C487 C 0.41288 0.3137 0.58415 0.0
C488 C 0.39887 0.32318 0.62064 0.0
C489 C 0.42286 0.32992 0.6514 0.0
C490 C 0.46663 0.29684 0.54261 0.0
C491 C 0.35902 0.32857 0.62651 0.0
H492 H 0.37893 0.37069 0.47529 0.0
H493 H 0.35793 0.27064 0.47458 0.0
H494 H 0.39193 0.38022 0.57519 0.0
H495 H 0.43491 0.37281 0.55335 0.0
H496 H 0.4024 0.39716 0.52855 0.0
H497 H 0.35266 0.24331 0.53665 0.0
H498 H 0.40033 0.24542 0.54575 0.0
H499 H 0.36937 0.26116 0.58079 0.0
H500 H 0.50194 0.30925 0.60851 0.0
H501 H 0.41256 0.34011 0.67795 0.0
H502 H 0.46385 0.31618 0.52099 0.0
H503 H 0.45227 0.27586 0.531 0.0
H504 H 0.49575 0.29099 0.54543 0.0
H505 H 0.35249 0.3535 0.61945 0.0
H506 H 0.35128 0.3243 0.65723 0.0
H507 H 0.34252 0.31302 0.60751 0.0
C508 C 0.66576 0.31279 0.02409 0.0
C509 C 0.63863 0.31655 0.05221 0.0
C510 C 0.65729 0.31236 0.98422 0.0
C511 C 0.62101 0.31658 0.97223 0.0
C512 C 0.5934 0.31865 1.00055 0.0
C513 C 0.6025 0.31809 0.04001 0.0
C514 C 0.68739 0.30895 0.95506 0.0
C515 C 0.55429 0.32327 0.98928 0.0
C516 C 0.59181 0.36052 0.88233 0.0
C517 C 0.57341 0.33669 0.86225 0.0
C518 C 0.61077 0.35376 0.91657 0.0
C519 C 0.61162 0.32227 0.93069 0.0
C520 C 0.59674 0.29761 0.90781 0.0
C521 C 0.57713 0.3052 0.87407 0.0
C522 C 0.62602 0.38088 0.9399 0.0
C523 C 0.59846 0.2636 0.92086 0.0
H524 H 0.6938 0.31153 0.03303 0.0
H525 H 0.5812 0.31994 0.06144 0.0
H526 H 0.67874 0.29408 0.93021 0.0
H527 H 0.69483 0.33258 0.94348 0.0
H528 H 0.71188 0.29836 0.96837 0.0
H529 H 0.53606 0.32383 0.01485 0.0
H530 H 0.55132 0.34585 0.97313 0.0
H531 H 0.54526 0.30396 0.96981 0.0
H532 H 0.58842 0.38492 0.8733 0.0
H533 H 0.56255 0.28682 0.85863 0.0
H534 H 0.65357 0.37531 0.95044 0.0
H535 H 0.60873 0.38487 0.96573 0.0
H536 H 0.6272 0.40317 0.92281 0.0
H537 H 0.625 0.25832 0.93436 0.0
H538 H 0.5939 0.24711 0.89627 0.0
H539 H 0.57724 0.25914 0.94293 0.0
C540 C 0.91678 0.18681 0.53694 0.0
C541 C 0.88142 0.18749 0.55145 0.0
C542 C 0.92345 0.18371 0.4971 0.0
C543 C 0.89403 0.18145 0.47087 0.0
C544 C 0.85835 0.18522 0.48492 0.0
C545 C 0.85242 0.18804 0.52514 0.0
C546 C 0.96203 0.18018 0.48354 0.0
C547 C 0.82628 0.18388 0.45795 0.0
C548 C 0.92906 0.17792 0.36749 0.0
C549 C 0.93511 0.14537 0.36421 0.0
C550 C 0.9118 0.19029 0.40058 0.0
C551 C 0.90089 0.16952 0.43082 0.0
C552 C 0.90318 0.13644 0.42512 0.0
C553 C 0.92027 0.12483 0.3919 0.0
C554 C 0.90864 0.22563 0.4047 0.0
C555 C 0.8915 0.11323 0.45611 0.0
H556 H 0.93932 0.18713 0.55705 0.0
H557 H 0.82497 0.18866 0.53605 0.0
H558 H 0.96648 0.15557 0.47356 0.0
H559 H 0.96747 0.19613 0.45862 0.0
H560 H 0.98185 0.18549 0.50688 0.0
H561 H 0.80209 0.19499 0.47114 0.0
H562 H 0.83233 0.19585 0.43 0.0
H563 H 0.81963 0.15884 0.45154 0.0
H564 H 0.94076 0.19387 0.34624 0.0
H565 H 0.92486 0.09961 0.38919 0.0
H566 H 0.93237 0.23476 0.42095 0.0
H567 H 0.88396 0.23214 0.42105 0.0
H568 H 0.9081 0.23747 0.37589 0.0
H569 H 0.91057 0.11452 0.48094 0.0
H570 H 0.89099 0.08851 0.44529 0.0
H571 H 0.86425 0.11919 0.46714 0.0
C572 C 0.9109 0.81325 0.03523 0.0
C573 C 0.87479 0.81215 0.04754 0.0
C574 C 0.91982 0.81464 0.99576 0.0
C575 C 0.892 0.81391 0.96749 0.0
C576 C 0.85567 0.80987 0.9795 0.0
C577 C 0.84741 0.80943 0.01942 0.0
C578 C 0.95901 0.81894 0.98451 0.0
C579 C 0.8253 0.80775 0.9504 0.0
C580 C 0.92238 0.86168 0.88104 0.0
C581 C 0.94051 0.83871 0.85952 0.0
C582 C 0.90291 0.85346 0.91448 0.0
C583 C 0.90129 0.82137 0.92631 0.0
C584 C 0.91563 0.79772 0.90171 0.0
C585 C 0.93575 0.80673 0.8688 0.0
C586 C 0.88811 0.87957 0.9396 0.0
C587 C 0.91294 0.76316 0.91212 0.0
H588 H 0.93234 0.81429 0.05664 0.0
H589 H 0.81939 0.80846 0.02845 0.0
H590 H 0.96724 0.80025 0.96387 0.0
H591 H 0.96268 0.84206 0.9697 0.0
H592 H 0.97741 0.81815 0.00997 0.0
H593 H 0.80098 0.79627 0.96314 0.0
H594 H 0.81768 0.83189 0.9409 0.0
H595 H 0.83365 0.79432 0.92429 0.0
H596 H 0.92653 0.88644 0.87397 0.0
H597 H 0.95007 0.78899 0.85224 0.0
H598 H 0.90529 0.88214 0.96584 0.0
H599 H 0.86036 0.87379 0.94944 0.0
H600 H 0.88757 0.90265 0.92414 0.0
H601 H 0.93455 0.75714 0.93316 0.0
H602 H 0.91632 0.74795 0.88614 0.0
H603 H 0.88655 0.75765 0.92591 0.0
C604 C 0.64746 0.70376 0.52347 0.0
C605 C 0.64586 0.67467 0.54323 0.0
C606 C 0.63604 0.70635 0.48455 0.0
C607 C 0.62151 0.67952 0.46544 0.0
C608 C 0.62232 0.64976 0.48434 0.0
C609 C 0.63515 0.64764 0.5225 0.0
C610 C 0.63777 0.73818 0.46481 0.0
C611 C 0.60715 0.62037 0.46537 0.0
C612 C 0.53946 0.68321 0.40107 0.0
C613 C 0.55262 0.6701 0.36652 0.0
C614 C 0.56235 0.68916 0.43257 0.0
C615 C 0.59973 0.68281 0.42916 0.0
C616 C 0.61391 0.67377 0.39259 0.0
C617 C 0.59006 0.66695 0.36174 0.0
C618 C 0.54574 0.69885 0.47076 0.0
C619 C 0.65384 0.6688 0.38677 0.0
H620 H 0.65615 0.72482 0.53875 0.0
H621 H 0.6355 0.62474 0.53664 0.0
H622 H 0.64217 0.73574 0.43311 0.0
H623 H 0.61191 0.7508 0.46929 0.0
H624 H 0.65975 0.75303 0.47719 0.0
H625 H 0.61067 0.59892 0.48363 0.0
H626 H 0.57785 0.62352 0.45968 0.0
H627 H 0.62052 0.6163 0.43707 0.0
H628 H 0.5106 0.68641 0.40468 0.0
H629 H 0.60057 0.65694 0.33519 0.0
H630 H 0.56012 0.71963 0.48286 0.0
H631 H 0.54835 0.67922 0.49201 0.0
H632 H 0.51666 0.70481 0.46787 0.0
H633 H 0.67004 0.68498 0.40529 0.0
H634 H 0.66151 0.67257 0.35592 0.0
H635 H 0.66086 0.64414 0.39465 0.0
C636 C 0.34665 0.67896 0.98985 0.0
C637 C 0.37364 0.67451 0.96169 0.0
C638 C 0.35517 0.67962 0.02973 0.0
C639 C 0.39133 0.67484 0.04181 0.0
C640 C 0.41879 0.67165 0.01348 0.0
C641 C 0.4097 0.67211 0.974 0.0
C642 C 0.32524 0.68422 0.05884 0.0
C643 C 0.45777 0.66633 0.02482 0.0
C644 C 0.43611 0.68927 0.13892 0.0
C645 C 0.43917 0.65826 0.15272 0.0
C646 C 0.4164 0.69583 0.10491 0.0
C647 C 0.40084 0.67055 0.08363 0.0
C648 C 0.40104 0.63967 0.09971 0.0
C649 C 0.41999 0.63399 0.13431 0.0
C650 C 0.41536 0.72932 0.08985 0.0
C651 C 0.38515 0.6119 0.07809 0.0
H652 H 0.31866 0.68082 0.98094 0.0
H653 H 0.431 0.66979 0.95265 0.0
H654 H 0.31764 0.66105 0.07165 0.0
H655 H 0.33421 0.69981 0.08289 0.0
H656 H 0.30078 0.69458 0.0452 0.0
H657 H 0.47582 0.6642 0.99923 0.0
H658 H 0.46763 0.68616 0.04301 0.0
H659 H 0.46001 0.64437 0.04235 0.0
H660 H 0.45129 0.70799 0.15302 0.0
H661 H 0.42293 0.60992 0.14476 0.0
H662 H 0.38883 0.73454 0.07631 0.0
H663 H 0.43647 0.7325 0.06733 0.0
H664 H 0.42055 0.74669 0.11336 0.0
H665 H 0.35782 0.61757 0.06697 0.0
H666 H 0.38327 0.59042 0.09662 0.0
H667 H 0.40247 0.60642 0.05271 0.0
C668 C 0.16011 0.79601 0.49922 0.0
C669 C 0.16116 0.82569 0.4808 0.0
C670 C 0.14875 0.79305 0.53809 0.0
C671 C 0.13669 0.82015 0.55832 0.0
C672 C 0.14114 0.85036 0.54112 0.0
C673 C 0.15414 0.85274 0.50306 0.0
C674 C 0.1475 0.76066 0.55641 0.0
C675 C 0.1291 0.88011 0.56148 0.0
C676 C 0.05063 0.81853 0.61627 0.0
C677 C 0.06229 0.83029 0.65222 0.0
C678 C 0.07506 0.81257 0.58627 0.0
C679 C 0.11251 0.81706 0.59279 0.0
C680 C 0.12482 0.82453 0.63071 0.0
C681 C 0.09948 0.83185 0.65985 0.0
C682 C 0.06027 0.80473 0.54651 0.0
C683 C 0.16451 0.82701 0.64013 0.0
H684 H 0.16623 0.77486 0.48286 0.0
H685 H 0.15686 0.87596 0.48998 0.0
H686 H 0.15013 0.76195 0.58846 0.0
H687 H 0.12139 0.74904 0.54938 0.0
H688 H 0.1694 0.7455 0.54481 0.0
H689 H 0.13483 0.90177 0.54423 0.0
H690 H 0.09959 0.87894 0.56715 0.0
H691 H 0.14295 0.88231 0.58986 0.0
H692 H 0.02192 0.81643 0.61042 0.0
H693 H 0.1089 0.84082 0.68745 0.0
H694 H 0.07241 0.78257 0.53563 0.0
H695 H 0.06737 0.82388 0.52575 0.0
H696 H 0.03042 0.80179 0.54653 0.0
H697 H 0.18126 0.81299 0.61981 0.0
H698 H 0.16971 0.81874 0.67025 0.0
H699 H 0.17316 0.85212 0.63844 0.0
C700 C 0.25165 0.2677 0.28931 0.0
C701 C 0.27439 0.25088 0.31445 0.0
C702 C 0.21832 0.25495 0.27734 0.0
C703 C 0.20764 0.2247 0.29087 0.0
C704 C 0.23123 0.20717 0.31508 0.0
C705 C 0.26425 0.22054 0.3267 0.0
C706 C 0.19395 0.27436 0.25158 0.0
C707 C 0.22095 0.17477 0.33006 0.0
C708 C 0.11067 0.20235 0.3108 0.0
C709 C 0.10389 0.1799 0.28183 0.0
C710 C 0.14342 0.21893 0.31221 0.0
C711 C 0.17027 0.21274 0.28408 0.0
C712 C 0.16243 0.19203 0.25282 0.0
C713 C 0.12912 0.1758 0.25202 0.0
C714 C 0.15025 0.24123 0.34564 0.0
C715 C 0.1901 0.18508 0.22193 0.0
H716 H 0.25969 0.29113 0.27972 0.0
H717 H 0.28191 0.20745 0.34596 0.0
H718 H 0.18375 0.25989 0.22707 0.0
H719 H 0.17012 0.28226 0.26843 0.0
H720 H 0.20795 0.29558 0.23975 0.0
H721 H 0.24352 0.16318 0.34581 0.0
H722 H 0.19763 0.17677 0.35012 0.0
H723 H 0.21249 0.15932 0.3057 0.0
H724 H 0.09091 0.20586 0.33359 0.0
H725 H 0.12399 0.15835 0.22969 0.0
H726 H 0.16178 0.2639 0.33504 0.0
H727 H 0.17024 0.23058 0.36577 0.0
H728 H 0.12522 0.24631 0.36222 0.0
H729 H 0.20476 0.20689 0.21318 0.0
H730 H 0.1775 0.17432 0.1958 0.0
H731 H 0.2103 0.16827 0.23369 0.0
C732 C 0.27494 0.21355 0.79251 0.0
C733 C 0.27692 0.21147 0.83308 0.0
C734 C 0.29874 0.23323 0.77159 0.0
C735 C 0.325 0.25119 0.79186 0.0
C736 C 0.32665 0.24942 0.83294 0.0
C737 C 0.30245 0.22973 0.85301 0.0
C738 C 0.2959 0.23477 0.72795 0.0
C739 C 0.35408 0.2683 0.85581 0.0
C740 C 0.41343 0.28379 0.75428 0.0
C741 C 0.40652 0.3162 0.75663 0.0
C742 C 0.38579 0.26165 0.76157 0.0
C743 C 0.35065 0.27247 0.77095 0.0
C744 C 0.34272 0.30509 0.76784 0.0
C745 C 0.37094 0.32664 0.76112 0.0
C746 C 0.3954 0.22709 0.76421 0.0
C747 C 0.30552 0.31768 0.77655 0.0
H748 H 0.25488 0.19957 0.77721 0.0
H749 H 0.30368 0.22837 0.8844 0.0
H750 H 0.29199 0.25958 0.71838 0.0
H751 H 0.32141 0.22641 0.71468 0.0
H752 H 0.27321 0.22015 0.71667 0.0
H753 H 0.35221 0.26375 0.8875 0.0
H754 H 0.3818 0.26242 0.84603 0.0
H755 H 0.35002 0.29394 0.85064 0.0
H756 H 0.44109 0.2758 0.75126 0.0
H757 H 0.36575 0.35181 0.76312 0.0
H758 H 0.37356 0.21207 0.75202 0.0
H759 H 0.3988 0.22045 0.79517 0.0
H760 H 0.42102 0.22189 0.74875 0.0
H761 H 0.28425 0.30209 0.76427 0.0
H762 H 0.30189 0.34197 0.76486 0.0
H763 H 0.30159 0.31847 0.80845 0.0
C764 C 0.7668 0.26996 0.68561 0.0
C765 C 0.78863 0.25142 0.70965 0.0
C766 C 0.7344 0.28281 0.69938 0.0
C767 C 0.72346 0.27682 0.73815 0.0
C768 C 0.74528 0.25782 0.76249 0.0
C769 C 0.77759 0.24515 0.74784 0.0
C770 C 0.71181 0.30274 0.67228 0.0
C771 C 0.73448 0.25087 0.80386 0.0
C772 C 0.65468 0.33761 0.76859 0.0
C773 C 0.62263 0.32246 0.7576 0.0
C774 C 0.6879 0.32177 0.76645 0.0
C775 C 0.68881 0.29032 0.75236 0.0
C776 C 0.65596 0.274 0.74526 0.0
C777 C 0.62317 0.29038 0.74792 0.0
C778 C 0.72219 0.33986 0.77503 0.0
C779 C 0.65556 0.24047 0.73038 0.0
H780 H 0.77521 0.27439 0.65596 0.0
H781 H 0.79432 0.23043 0.76626 0.0
H782 H 0.68455 0.29206 0.66897 0.0
H783 H 0.70821 0.32672 0.68464 0.0
H784 H 0.72419 0.30515 0.64307 0.0
H785 H 0.7547 0.23606 0.8192 0.0
H786 H 0.7311 0.2733 0.82006 0.0
H787 H 0.70802 0.23843 0.80442 0.0
H788 H 0.65417 0.36262 0.77544 0.0
H789 H 0.59831 0.27892 0.73876 0.0
H790 H 0.73494 0.34728 0.74731 0.0
H791 H 0.74183 0.32481 0.79078 0.0
H792 H 0.71685 0.36137 0.79253 0.0
H793 H 0.66316 0.24048 0.69924 0.0
H794 H 0.6284 0.2294 0.73322 0.0
H795 H 0.67549 0.22571 0.74612 0.0
C796 C 0.76554 0.27593 0.22962 0.0
C797 C 0.7716 0.28677 0.19169 0.0
C798 C 0.78918 0.25424 0.24721 0.0
C799 C 0.81949 0.24327 0.22624 0.0
C800 C 0.82604 0.25475 0.18818 0.0
C801 C 0.80194 0.27626 0.17135 0.0
C802 C 0.78126 0.24249 0.2877 0.0
C803 C 0.85811 0.24374 0.16479 0.0
C804 C 0.90306 0.20281 0.26493 0.0
C805 C 0.89764 0.17237 0.25021 0.0
C806 C 0.87604 0.2259 0.26107 0.0
C807 C 0.84315 0.21801 0.2422 0.0
C808 C 0.83615 0.18621 0.23181 0.0
C809 C 0.86366 0.16382 0.23568 0.0
C810 C 0.8844 0.25938 0.27314 0.0
C811 C 0.80126 0.17653 0.21235 0.0
H812 H 0.74207 0.28425 0.24532 0.0
H813 H 0.8067 0.28473 0.14208 0.0
H814 H 0.77393 0.21705 0.28671 0.0
H815 H 0.80563 0.24471 0.30627 0.0
H816 H 0.75872 0.25561 0.30145 0.0
H817 H 0.86038 0.25623 0.13649 0.0
H818 H 0.88346 0.24762 0.18134 0.0
H819 H 0.85571 0.218 0.15913 0.0
H820 H 0.92952 0.20946 0.2758 0.0
H821 H 0.85957 0.14015 0.22438 0.0
H822 H 0.86018 0.27104 0.28538 0.0
H823 H 0.89304 0.27316 0.24729 0.0
H824 H 0.90654 0.26025 0.29492 0.0
H825 H 0.77775 0.18759 0.22681 0.0
H826 H 0.79748 0.15045 0.21252 0.0
H827 H 0.80155 0.18472 0.18174 0.0
C828 C 0.77213 0.74835 0.67714 0.0
C829 C 0.74133 0.74302 0.6998 0.0
C830 C 0.80253 0.76378 0.69255 0.0
C831 C 0.80191 0.77461 0.73146 0.0
C832 C 0.77142 0.76814 0.75497 0.0
C833 C 0.74138 0.75253 0.73879 0.0
C834 C 0.83456 0.77002 0.66646 0.0
C835 C 0.76969 0.77923 0.79651 0.0
C836 C 0.89394 0.8043 0.76432 0.0
C837 C 0.89236 0.8356 0.75115 0.0
C838 C 0.86349 0.78436 0.76133 0.0
C839 C 0.83104 0.79633 0.74513 0.0
C840 C 0.82844 0.82892 0.73619 0.0
C841 C 0.85923 0.84808 0.73908 0.0
C842 C 0.86724 0.74992 0.77188 0.0
C843 C 0.79423 0.84297 0.71971 0.0
H844 H 0.77196 0.74126 0.64692 0.0
H845 H 0.71746 0.74864 0.75632 0.0
H846 H 0.83678 0.79576 0.66051 0.0
H847 H 0.85992 0.76259 0.68097 0.0
H848 H 0.83226 0.75742 0.63832 0.0
H849 H 0.74713 0.76785 0.81266 0.0
H850 H 0.79541 0.77425 0.81184 0.0
H851 H 0.76563 0.8052 0.79704 0.0
H852 H 0.91967 0.79463 0.7735 0.0
H853 H 0.85807 0.87241 0.72912 0.0
H854 H 0.87232 0.73608 0.74514 0.0
H855 H 0.84211 0.74063 0.78532 0.0
H856 H 0.89017 0.74603 0.79215 0.0
H857 H 0.79047 0.83467 0.68945 0.0
H858 H 0.79507 0.86923 0.71948 0.0
H859 H 0.77035 0.83514 0.73666 0.0
C860 C 0.74068 0.78233 0.22825 0.0
C861 C 0.74129 0.78402 0.1876 0.0
C862 C 0.71578 0.76265 0.24765 0.0
C863 C 0.69109 0.74426 0.22577 0.0
C864 C 0.69225 0.74546 0.18464 0.0
C865 C 0.7175 0.76516 0.16611 0.0
C866 C 0.71567 0.76171 0.29142 0.0
C867 C 0.6666 0.72609 0.16009 0.0
C868 C 0.64243 0.6697 0.25557 0.0
C869 C 0.60678 0.68049 0.25739 0.0
C870 C 0.67122 0.6909 0.24994 0.0
C871 C 0.66385 0.7235 0.2451 0.0
C872 C 0.62831 0.73476 0.25148 0.0
C873 C 0.60009 0.713 0.25775 0.0
C874 C 0.70875 0.67788 0.24444 0.0
C875 C 0.61924 0.7693 0.24684 0.0
H876 H 0.75948 0.79669 0.2448 0.0
H877 H 0.71836 0.76617 0.13469 0.0
H878 H 0.68957 0.77079 0.30247 0.0
H879 H 0.71825 0.73698 0.30183 0.0
H880 H 0.73792 0.77607 0.30411 0.0
H881 H 0.67081 0.73 0.12853 0.0
H882 H 0.67023 0.70056 0.16639 0.0
H883 H 0.63825 0.73215 0.16729 0.0
H884 H 0.64745 0.64446 0.25497 0.0
H885 H 0.57238 0.72123 0.2586 0.0
H886 H 0.72934 0.69362 0.25773 0.0
H887 H 0.71471 0.67633 0.21295 0.0
H888 H 0.71138 0.65385 0.2572 0.0
H889 H 0.64017 0.78446 0.26052 0.0
H890 H 0.59253 0.77499 0.2597 0.0
H891 H 0.61841 0.77529 0.21548 0.0
C892 C 0.26935 0.745 0.33947 0.0
C893 C 0.23901 0.75321 0.31749 0.0
C894 C 0.29862 0.72932 0.32252 0.0
C895 C 0.29733 0.72126 0.28261 0.0
C896 C 0.26717 0.73033 0.25996 0.0
C897 C 0.23825 0.74616 0.27773 0.0
C898 C 0.33032 0.72022 0.34778 0.0
C899 C 0.26475 0.72216 0.21744 0.0
C900 C 0.38915 0.69375 0.24856 0.0
C901 C 0.3871 0.66181 0.25906 0.0
C902 C 0.35873 0.71336 0.25228 0.0
C903 C 0.32586 0.70039 0.26642 0.0
C904 C 0.32276 0.66733 0.27198 0.0
C905 C 0.35355 0.64847 0.26849 0.0
C906 C 0.36302 0.74839 0.24535 0.0
C907 C 0.2881 0.6523 0.28617 0.0
H908 H 0.26979 0.75035 0.37023 0.0
H909 H 0.2147 0.75242 0.2607 0.0
H910 H 0.33167 0.69409 0.35034 0.0
H911 H 0.35598 0.72841 0.33441 0.0
H912 H 0.32838 0.73035 0.37741 0.0
H913 H 0.24254 0.73506 0.20268 0.0
H914 H 0.29056 0.72765 0.20248 0.0
H915 H 0.25975 0.69642 0.21426 0.0
H916 H 0.4152 0.70405 0.2414 0.0
H917 H 0.35207 0.62366 0.27645 0.0
H918 H 0.36747 0.76041 0.27355 0.0
H919 H 0.33833 0.75853 0.23207 0.0
H920 H 0.38652 0.75362 0.22629 0.0
H921 H 0.28439 0.65783 0.31738 0.0
H922 H 0.28837 0.62618 0.28284 0.0
H923 H 0.2645 0.66187 0.27025 0.0
C924 C 0.24469 0.71714 0.78424 0.0
C925 C 0.24068 0.70777 0.82307 0.0
C926 C 0.22071 0.73888 0.76719 0.0
C927 C 0.19217 0.75145 0.78962 0.0
C928 C 0.18801 0.74184 0.82883 0.0
C929 C 0.21241 0.72026 0.84509 0.0
C930 C 0.22618 0.74872 0.72548 0.0
C931 C 0.158 0.75469 0.85388 0.0
C932 C 0.14791 0.83071 0.77653 0.0
C933 C 0.11311 0.82171 0.76488 0.0
C934 C 0.17542 0.80831 0.7806 0.0
C935 C 0.16762 0.77605 0.77351 0.0
C936 C 0.13361 0.76741 0.75762 0.0
C937 C 0.10663 0.79052 0.75331 0.0
C938 C 0.21146 0.81878 0.79673 0.0
C939 C 0.12429 0.73336 0.74927 0.0
H940 H 0.26667 0.70746 0.7673 0.0
H941 H 0.20936 0.71309 0.87513 0.0
H942 H 0.201 0.74482 0.70865 0.0
H943 H 0.23243 0.77437 0.72402 0.0
H944 H 0.2485 0.73554 0.71141 0.0
H945 H 0.15759 0.7438 0.88324 0.0
H946 H 0.16126 0.78064 0.85717 0.0
H947 H 0.13144 0.75039 0.83984 0.0
H948 H 0.15282 0.85494 0.78542 0.0
H949 H 0.0796 0.78358 0.74452 0.0
H950 H 0.23398 0.80661 0.78181 0.0
H951 H 0.21291 0.81249 0.82797 0.0
H952 H 0.21546 0.84473 0.79388 0.0
H953 H 0.14735 0.72103 0.73555 0.0
H954 H 0.10029 0.7313 0.73004 0.0
H955 H 0.11818 0.72103 0.77698 0.0
loop_
_geom_bond_atom_site_label_1
_geom_bond_atom_site_label_2
_geom_bond_distance
_geom_bond_site_symmetry_2
_ccdc_geom_bond_type
H0 C7 0.929 . S
H1 C10 0.930 . S
H2 C12 0.929 . S
H3 C4 0.969 . S
C4 H3 0.969 . S
C4 O5 1.550 . S
C4 H6 0.973 . S
O5 C4 1.550 . S
O5 C11 1.412 . S
H6 C4 0.973 . S
C7 H0 0.929 . S
C7 C8 1.400 . S
C7 C9 1.364 . S
C8 C7 1.400 . S
C8 C12 1.377 . S
C9 C7 1.364 . S
C9 C10 1.374 . S
C10 H1 0.930 . S
C10 C9 1.374 . S
C10 C11 1.383 . S
C11 O5 1.412 . S
C11 C10 1.383 . S
C11 C12 1.394 . S
C12 H2 0.929 . S
C12 C8 1.377 . S
C12 C11 1.394 . S
H13 C20 0.929 . S
H14 C23 0.930 . S
H15 C25 0.929 . S
H16 C17 0.969 . S
C17 H16 0.969 . S
C17 O18 1.550 . S
C17 H19 0.973 . S
O18 C17 1.550 . S
O18 C24 1.412 . S
H19 C17 0.973 . S
C20 H13 0.929 . S
C20 C21 1.400 . S
C20 C22 1.364 . S
C21 C20 1.400 . S
C21 C25 1.377 . S
C22 C20 1.364 . S
C22 C23 1.374 . S
C23 H14 0.930 . S
C23 C22 1.374 . S
C23 C24 1.383 . S
C24 O18 1.412 . S
C24 C23 1.383 . S
C24 C25 1.394 . S
C25 H15 0.929 . S
C25 C21 1.377 . S
C25 C24 1.394 . S
H26 C33 0.929 . S
H27 C36 0.930 . S
H28 C38 0.929 . S
H29 C30 0.969 . S
C30 H29 0.969 . S
C30 O31 1.550 . S
C30 H32 0.973 . S
O31 C30 1.550 . S
O31 C37 1.412 . S
H32 C30 0.973 . S
C33 H26 0.929 . S
C33 C34 1.400 . S
C33 C35 1.364 . S
C34 C33 1.400 . S
C34 C38 1.377 . S
C35 C33 1.364 . S
C35 C36 1.374 . S
C36 H27 0.930 . S
C36 C35 1.374 . S
C36 C37 1.383 . S
C37 O31 1.412 . S
C37 C36 1.383 . S
C37 C38 1.394 . S
C38 H28 0.929 . S
C38 C34 1.377 . S
C38 C37 1.394 . S
H39 C46 0.929 . S
H40 C49 0.930 . S
H41 C51 0.929 . S
H42 C43 0.969 . S
C43 H42 0.969 . S
C43 O44 1.550 . S
C43 H45 0.973 . S
O44 C43 1.550 . S
O44 C50 1.412 . S
H45 C43 0.973 . S
C46 H39 0.929 . S
C46 C47 1.400 . S
C46 C48 1.364 . S
C47 C46 1.400 . S
C47 C51 1.377 . S
C48 C46 1.364 . S
C48 C49 1.374 . S
C49 H40 0.930 . S
C49 C48 1.374 . S
C49 C50 1.383 . S
C50 O44 1.412 . S
C50 C49 1.383 . S
C50 C51 1.394 . S
C51 H41 0.929 . S
C51 C47 1.377 . S
C51 C50 1.394 . S
H52 C59 0.929 . S
H53 C62 0.930 . S
H54 C64 0.929 . S
H55 C56 0.969 . S
C56 H55 0.969 . S
C56 O57 1.550 . S
C56 H58 0.973 . S
O57 C56 1.550 . S
O57 C63 1.412 . S
H58 C56 0.973 . S
C59 H52 0.929 . S
C59 C60 1.400 . S
C59 C61 1.364 . S
C60 C59 1.400 . S
C60 C64 1.377 . S
C61 C59 1.364 . S
C61 C62 1.374 . S
C62 H53 0.930 . S
C62 C61 1.374 . S
C62 C63 1.383 . S
C63 O57 1.412 . S
C63 C62 1.383 . S
C63 C64 1.394 . S
C64 H54 0.929 . S
C64 C60 1.377 . S
C64 C63 1.394 . S
H65 C72 0.929 . S
H66 C75 0.930 . S
H67 C77 0.929 . S
H68 C69 0.969 . S
C69 H68 0.969 . S
C69 O70 1.550 . S
C69 H71 0.973 . S
O70 C69 1.550 . S
O70 C76 1.412 . S
H71 C69 0.973 . S
C72 H65 0.929 . S
C72 C73 1.400 . S
C72 C74 1.364 . S
C73 C72 1.400 . S
C73 C77 1.377 . S
C74 C72 1.364 . S
C74 C75 1.374 . S
C75 H66 0.930 . S
C75 C74 1.374 . S
C75 C76 1.383 . S
C76 O70 1.412 . S
C76 C75 1.383 . S
C76 C77 1.394 . S
C77 H67 0.929 . S
C77 C73 1.377 . S
C77 C76 1.394 . S
H78 C85 0.929 . S
H79 C88 0.930 . S
H80 C90 0.929 . S
H81 C82 0.969 . S
C82 H81 0.969 . S
C82 O83 1.550 . S
C82 H84 0.973 . S
O83 C82 1.550 . S
O83 C89 1.412 . S
H84 C82 0.973 . S
C85 H78 0.929 . S
C85 C86 1.400 . S
C85 C87 1.364 . S
C86 C85 1.400 . S
C86 C90 1.377 . S
C87 C85 1.364 . S
C87 C88 1.374 . S
C88 H79 0.930 . S
C88 C87 1.374 . S
C88 C89 1.383 . S
C89 O83 1.412 . S
C89 C88 1.383 . S
C89 C90 1.394 . S
C90 H80 0.929 . S
C90 C86 1.377 . S
C90 C89 1.394 . S
H91 C98 0.929 . S
H92 C101 0.930 . S
H93 C103 0.929 . S
H94 C95 0.969 . S
C95 H94 0.969 . S
C95 O96 1.550 . S
C95 H97 0.973 . S
O96 C95 1.550 . S
O96 C102 1.412 . S
H97 C95 0.973 . S
C98 H91 0.929 . S
C98 C99 1.400 . S
C98 C100 1.364 . S
C99 C98 1.400 . S
C99 C103 1.377 . S
C100 C98 1.364 . S
C100 C101 1.374 . S
C101 H92 0.930 . S
C101 C100 1.374 . S
C101 C102 1.383 . S
C102 O96 1.412 . S
C102 C101 1.383 . S
C102 C103 1.394 . S
C103 H93 0.929 . S
C103 C99 1.377 . S
C103 C102 1.394 . S
Zn104 O110 1.920 . S
Zn104 O116 1.898 . S
Zn104 O119 1.905 . S
Zn105 O113 1.905 1_655 S
Zn105 O114 1.898 . S
Zn105 O122 1.920 . S
Zn106 O109 2.080 1_455 S
Zn106 O112 2.114 . S
Zn106 O115 2.120 1_455 S
Zn106 O117 2.120 . S
Zn106 O118 2.114 . S
Zn106 O121 2.080 1_455 S
C107 O112 1.166 . S
C107 O113 1.182 . S
C108 O114 1.167 . S
C108 O115 1.299 . S
O109 Zn106 2.080 1_655 S
O109 C123 1.305 . S
O110 Zn104 1.920 . S
O110 C123 1.234 1_455 S
C111 O116 1.167 . S
C111 O117 1.299 . S
O112 Zn106 2.114 . S
O112 C107 1.166 . S
O113 Zn105 1.905 1_455 S
O113 C107 1.182 . S
O114 Zn105 1.898 . S
O114 C108 1.167 . S
O115 Zn106 2.120 1_655 S
O115 C108 1.299 . S
O116 Zn104 1.898 . S
O116 C111 1.167 . S
O117 Zn106 2.120 . S
O117 C111 1.299 . S
O118 Zn106 2.114 . S
O118 C120 1.166 . S
O119 Zn104 1.905 . S
O119 C120 1.182 . S
C120 O118 1.166 . S
C120 O119 1.182 . S
O121 Zn106 2.080 1_655 S
O121 C124 1.305 . S
O122 Zn105 1.920 . S
O122 C124 1.234 . S
C123 O109 1.305 . S
C123 O110 1.234 1_655 S
C124 O121 1.305 . S
C124 O122 1.234 . S
Zn125 O131 1.920 . S
Zn125 O137 1.898 . S
Zn125 O140 1.905 . S
Zn126 O134 1.905 . S
Zn126 O135 1.898 . S
Zn126 O143 1.920 . S
Zn127 O130 2.080 . S
Zn127 O133 2.114 . S
Zn127 O136 2.120 . S
Zn127 O138 2.120 . S
Zn127 O139 2.114 . S
Zn127 O142 2.080 . S
C128 O133 1.166 . S
C128 O134 1.182 . S
C129 O135 1.167 . S
C129 O136 1.299 . S
O130 Zn127 2.080 . S
O130 C144 1.305 . S
O131 Zn125 1.920 . S
O131 C144 1.234 . S
C132 O137 1.167 . S
C132 O138 1.299 . S
O133 Zn127 2.114 . S
O133 C128 1.166 . S
O134 Zn126 1.905 . S
O134 C128 1.182 . S
O135 Zn126 1.898 . S
O135 C129 1.167 . S
O136 Zn127 2.120 . S
O136 C129 1.299 . S
O137 Zn125 1.898 . S
O137 C132 1.167 . S
O138 Zn127 2.120 . S
O138 C132 1.299 . S
O139 Zn127 2.114 . S
O139 C141 1.166 . S
O140 Zn125 1.905 . S
O140 C141 1.182 . S
C141 O139 1.166 . S
C141 O140 1.182 . S
O142 Zn127 2.080 . S
O142 C145 1.305 . S
O143 Zn126 1.920 . S
O143 C145 1.234 . S
C144 O130 1.305 . S
C144 O131 1.234 . S
C145 O142 1.305 . S
C145 O143 1.234 . S
Zn146 O152 1.920 . S
Zn146 O158 1.898 . S
Zn146 O161 1.905 . S
Zn147 O155 1.905 . S
Zn147 O156 1.898 . S
Zn147 O164 1.920 1_655 S
Zn148 O151 2.080 . S
Zn148 O154 2.114 1_455 S
Zn148 O157 2.120 1_455 S
Zn148 O159 2.120 . S
Zn148 O160 2.114 1_455 S
Zn148 O163 2.080 . S
C149 O154 1.166 . S
C149 O155 1.182 . S
C150 O156 1.167 . S
C150 O157 1.299 . S
O151 Zn148 2.080 . S
O151 C165 1.305 . S
O152 Zn146 1.920 . S
O152 C165 1.234 . S
C153 O158 1.167 . S
C153 O159 1.299 . S
O154 Zn148 2.114 1_655 S
O154 C149 1.166 . S
O155 Zn147 1.905 . S
O155 C149 1.182 . S
O156 Zn147 1.898 . S
O156 C150 1.167 . S
O157 Zn148 2.120 1_655 S
O157 C150 1.299 . S
O158 Zn146 1.898 . S
O158 C153 1.167 . S
O159 Zn148 2.120 . S
O159 C153 1.299 . S
O160 Zn148 2.114 1_655 S
O160 C162 1.166 . S
O161 Zn146 1.905 . S
O161 C162 1.182 1_455 S
C162 O160 1.166 . S
C162 O161 1.182 1_655 S
O163 Zn148 2.080 . S
O163 C166 1.305 . S
O164 Zn147 1.920 1_455 S
O164 C166 1.234 . S
C165 O151 1.305 . S
C165 O152 1.234 . S
C166 O163 1.305 . S
C166 O164 1.234 . S
Zn167 O173 1.920 . S
Zn167 O179 1.898 . S
Zn167 O182 1.905 . S
Zn168 O176 1.905 . S
Zn168 O177 1.898 . S
Zn168 O185 1.920 . S
Zn169 O172 2.080 . S
Zn169 O175 2.114 . S
Zn169 O178 2.120 . S
Zn169 O180 2.120 . S
Zn169 O181 2.114 . S
Zn169 O184 2.080 . S
C170 O175 1.166 . S
C170 O176 1.182 . S
C171 O177 1.167 . S
C171 O178 1.299 . S
O172 Zn169 2.080 . S
O172 C186 1.305 . S
O173 Zn167 1.920 . S
O173 C186 1.234 . S
C174 O179 1.167 . S
C174 O180 1.299 . S
O175 Zn169 2.114 . S
O175 C170 1.166 . S
O176 Zn168 1.905 . S
O176 C170 1.182 . S
O177 Zn168 1.898 . S
O177 C171 1.167 . S
O178 Zn169 2.120 . S
O178 C171 1.299 . S
O179 Zn167 1.898 . S
O179 C174 1.167 . S
O180 Zn169 2.120 . S
O180 C174 1.299 . S
O181 Zn169 2.114 . S
O181 C183 1.166 . S
O182 Zn167 1.905 . S
O182 C183 1.182 . S
C183 O181 1.166 . S
C183 O182 1.182 . S
O184 Zn169 2.080 . S
O184 C187 1.305 . S
O185 Zn168 1.920 . S
O185 C187 1.234 . S
C186 O172 1.305 . S
C186 O173 1.234 . S
C187 O184 1.305 . S
C187 O185 1.234 . S
C188 C189 1.391 . S
C188 C190 1.394 . S
C188 H204 0.931 . S
C189 C188 1.391 . S
C189 C193 1.376 . S
C190 C188 1.394 . S
C190 C191 1.369 . S
C190 C194 1.531 . S
C191 C190 1.369 . S
C191 C192 1.410 . S
C191 C199 1.503 . S
C192 C191 1.410 . S
C192 C193 1.392 . S
C192 C195 1.511 . S
C193 C189 1.376 . S
C193 C192 1.392 . S
C193 H205 0.929 . S
C194 C190 1.531 . S
C194 H206 0.960 . S
C194 H207 0.962 . S
C194 H208 0.960 . S
C195 C192 1.511 . S
C195 H209 0.961 . S
C195 H210 0.961 . S
C195 H211 0.961 . S
C196 C197 1.370 . S
C196 C198 1.363 1_545 S
C196 H212 0.931 . S
C197 C196 1.370 . S
C197 C201 1.408 . S
C198 C196 1.363 1_565 S
C198 C199 1.370 . S
C198 C202 1.524 . S
C199 C191 1.503 . S
C199 C198 1.370 . S
C199 C200 1.403 1_565 S
C200 C199 1.403 1_545 S
C200 C201 1.404 . S
C200 C203 1.539 . S
C201 C197 1.408 . S
C201 C200 1.404 . S
C201 H213 0.930 . S
C202 C198 1.524 . S
C202 H214 0.956 . S
C202 H215 0.961 . S
C202 H216 0.961 . S
C203 C200 1.539 . S
C203 H217 0.958 . S
C203 H218 0.961 . S
C203 H219 0.960 1_545 S
H204 C188 0.931 . S
H205 C193 0.929 . S
H206 C194 0.960 . S
H207 C194 0.962 . S
H208 C194 0.960 . S
H209 C195 0.961 . S
H210 C195 0.961 . S
H211 C195 0.961 . S
H212 C196 0.931 . S
H213 C201 0.930 . S
H214 C202 0.956 . S
H215 C202 0.961 . S
H216 C202 0.961 . S
H217 C203 0.958 . S
H218 C203 0.961 . S
H219 C203 0.960 1_565 S
C220 C221 1.391 . S
C220 C222 1.394 . S
C220 H236 0.931 . S
C221 C220 1.391 . S
C221 C225 1.376 . S
C222 C220 1.394 . S
C222 C223 1.369 . S
C222 C226 1.531 . S
C223 C222 1.369 . S
C223 C224 1.410 . S
C223 C231 1.503 . S
C224 C223 1.410 . S
C224 C225 1.392 . S
C224 C227 1.511 . S
C225 C221 1.376 . S
C225 C224 1.392 . S
C225 H237 0.929 . S
C226 C222 1.531 . S
C226 H238 0.960 . S
C226 H239 0.962 . S
C226 H240 0.960 . S
C227 C224 1.511 . S
C227 H241 0.961 . S
C227 H242 0.961 . S
C227 H243 0.961 . S
C228 C229 1.370 . S
C228 C230 1.363 . S
C228 H244 0.931 . S
C229 C228 1.370 . S
C229 C233 1.408 . S
C230 C228 1.363 . S
C230 C231 1.370 . S
C230 C234 1.524 . S
C231 C223 1.503 . S
C231 C230 1.370 . S
C231 C232 1.403 . S
C232 C231 1.403 . S
C232 C233 1.404 . S
C232 C235 1.539 . S
C233 C229 1.408 . S
C233 C232 1.404 . S
C233 H245 0.930 . S
C234 C230 1.524 . S
C234 H246 0.956 . S
C234 H247 0.961 . S
C234 H248 0.961 . S
C235 C232 1.539 . S
C235 H249 0.958 . S
C235 H250 0.961 . S
C235 H251 0.960 . S
H236 C220 0.931 . S
H237 C225 0.929 . S
H238 C226 0.960 . S
H239 C226 0.962 . S
H240 C226 0.960 . S
H241 C227 0.961 . S
H242 C227 0.961 . S
H243 C227 0.961 . S
H244 C228 0.931 . S
H245 C233 0.930 . S
H246 C234 0.956 . S
H247 C234 0.961 . S
H248 C234 0.961 . S
H249 C235 0.958 . S
H250 C235 0.961 . S
H251 C235 0.960 . S
C252 C253 1.391 . S
C252 C254 1.394 . S
C252 H268 0.931 . S
C253 C252 1.391 . S
C253 C257 1.376 . S
C254 C252 1.394 . S
C254 C255 1.369 . S
C254 C258 1.531 . S
C255 C254 1.369 . S
C255 C256 1.410 . S
C255 C263 1.503 . S
C256 C255 1.410 . S
C256 C257 1.392 . S
C256 C259 1.511 . S
C257 C253 1.376 . S
C257 C256 1.392 . S
C257 H269 0.929 . S
C258 C254 1.531 . S
C258 H270 0.960 . S
C258 H271 0.962 . S
C258 H272 0.960 . S
C259 C256 1.511 . S
C259 H273 0.961 . S
C259 H274 0.961 . S
C259 H275 0.961 . S
C260 C261 1.370 . S
C260 C262 1.363 . S
C260 H276 0.931 . S
C261 C260 1.370 . S
C261 C265 1.408 . S
C262 C260 1.363 . S
C262 C263 1.370 . S
C262 C266 1.524 . S
C263 C255 1.503 . S
C263 C262 1.370 . S
C263 C264 1.403 . S
C264 C263 1.403 . S
C264 C265 1.404 . S
C264 C267 1.539 . S
C265 C261 1.408 . S
C265 C264 1.404 . S
C265 H277 0.930 . S
C266 C262 1.524 . S
C266 H278 0.956 . S
C266 H279 0.961 . S
C266 H280 0.961 . S
C267 C264 1.539 . S
C267 H281 0.958 . S
C267 H282 0.961 . S
C267 H283 0.960 . S
H268 C252 0.931 . S
H269 C257 0.929 . S
H270 C258 0.960 . S
H271 C258 0.962 . S
H272 C258 0.960 . S
H273 C259 0.961 . S
H274 C259 0.961 . S
H275 C259 0.961 . S
H276 C260 0.931 . S
H277 C265 0.930 . S
H278 C266 0.956 . S
H279 C266 0.961 . S
H280 C266 0.961 . S
H281 C267 0.958 . S
H282 C267 0.961 . S
H283 C267 0.960 . S
C284 C285 1.391 . S
C284 C286 1.394 . S
C284 H300 0.931 . S
C285 C284 1.391 . S
C285 C289 1.376 . S
C286 C284 1.394 . S
C286 C287 1.369 . S
C286 C290 1.531 . S
C287 C286 1.369 . S
C287 C288 1.410 . S
C287 C295 1.503 . S
C288 C287 1.410 . S
C288 C289 1.392 . S
C288 C291 1.511 . S
C289 C285 1.376 . S
C289 C288 1.392 . S
C289 H301 0.929 . S
C290 C286 1.531 . S
C290 H302 0.960 . S
C290 H303 0.962 . S
C290 H304 0.960 . S
C291 C288 1.511 . S
C291 H305 0.961 . S
C291 H306 0.961 . S
C291 H307 0.961 . S
C292 C293 1.370 . S
C292 C294 1.363 1_545 S
C292 H308 0.931 . S
C293 C292 1.370 . S
C293 C297 1.408 . S
C294 C292 1.363 1_565 S
C294 C295 1.370 . S
C294 C298 1.524 . S
C295 C287 1.503 . S
C295 C294 1.370 . S
C295 C296 1.403 . S
C296 C295 1.403 . S
C296 C297 1.404 1_565 S
C296 C299 1.539 . S
C297 C293 1.408 . S
C297 C296 1.404 1_545 S
C297 H309 0.930 . S
C298 C294 1.524 . S
C298 H310 0.956 . S
C298 H311 0.961 . S
C298 H312 0.961 1_565 S
C299 C296 1.539 . S
C299 H313 0.958 . S
C299 H314 0.961 . S
C299 H315 0.960 . S
H300 C284 0.931 . S
H301 C289 0.929 . S
H302 C290 0.960 . S
H303 C290 0.962 . S
H304 C290 0.960 . S
H305 C291 0.961 . S
H306 C291 0.961 . S
H307 C291 0.961 . S
H308 C292 0.931 . S
H309 C297 0.930 . S
H310 C298 0.956 . S
H311 C298 0.961 . S
H312 C298 0.961 1_545 S
H313 C299 0.958 . S
H314 C299 0.961 . S
H315 C299 0.960 . S
C316 C317 1.391 . S
C316 C318 1.394 . S
C316 H332 0.931 . S
C317 C316 1.391 . S
C317 C321 1.376 . S
C318 C316 1.394 . S
C318 C319 1.369 . S
C318 C322 1.531 . S
C319 C318 1.369 . S
C319 C320 1.410 . S
C319 C327 1.503 . S
C320 C319 1.410 . S
C320 C321 1.392 . S
C320 C323 1.511 . S
C321 C317 1.376 . S
C321 C320 1.392 . S
C321 H333 0.929 . S
C322 C318 1.531 . S
C322 H334 0.960 . S
C322 H335 0.962 . S
C322 H336 0.960 . S
C323 C320 1.511 . S
C323 H337 0.961 . S
C323 H338 0.961 . S
C323 H339 0.961 . S
C324 C325 1.370 . S
C324 C326 1.363 1_565 S
C324 H340 0.931 . S
C325 C324 1.370 . S
C325 C329 1.408 . S
C326 C324 1.363 1_545 S
C326 C327 1.370 . S
C326 C330 1.524 . S
C327 C319 1.503 . S
C327 C326 1.370 . S
C327 C328 1.403 . S
C328 C327 1.403 . S
C328 C329 1.404 1_545 S
C328 C331 1.539 . S
C329 C325 1.408 . S
C329 C328 1.404 1_565 S
C329 H341 0.930 . S
C330 C326 1.524 . S
C330 H342 0.956 . S
C330 H343 0.961 . S
C330 H344 0.961 1_545 S
C331 C328 1.539 . S
C331 H345 0.958 . S
C331 H346 0.961 . S
C331 H347 0.960 . S
H332 C316 0.931 . S
H333 C321 0.929 . S
H334 C322 0.960 . S
H335 C322 0.962 . S
H336 C322 0.960 . S
H337 C323 0.961 . S
H338 C323 0.961 . S
H339 C323 0.961 . S
H340 C324 0.931 . S
H341 C329 0.930 . S
H342 C330 0.956 . S
H343 C330 0.961 . S
H344 C330 0.961 1_565 S
H345 C331 0.958 . S
H346 C331 0.961 . S
H347 C331 0.960 . S
C348 C349 1.391 . S
C348 C350 1.394 . S
C348 H364 0.931 . S
C349 C348 1.391 . S
C349 C353 1.376 . S
C350 C348 1.394 . S
C350 C351 1.369 . S
C350 C354 1.531 . S
C351 C350 1.369 . S
C351 C352 1.410 . S
C351 C359 1.503 . S
C352 C351 1.410 . S
C352 C353 1.392 . S
C352 C355 1.511 . S
C353 C349 1.376 . S
C353 C352 1.392 . S
C353 H365 0.929 . S
C354 C350 1.531 . S
C354 H366 0.960 . S
C354 H367 0.962 . S
C354 H368 0.960 . S
C355 C352 1.511 . S
C355 H369 0.961 . S
C355 H370 0.961 . S
C355 H371 0.961 . S
C356 C357 1.370 . S
C356 C358 1.363 . S
C356 H372 0.931 . S
C357 C356 1.370 . S
C357 C361 1.408 . S
C358 C356 1.363 . S
C358 C359 1.370 . S
C358 C362 1.524 . S
C359 C351 1.503 . S
C359 C358 1.370 . S
C359 C360 1.403 . S
C360 C359 1.403 . S
C360 C361 1.404 . S
C360 C363 1.539 . S
C361 C357 1.408 . S
C361 C360 1.404 . S
C361 H373 0.930 . S
C362 C358 1.524 . S
C362 H374 0.956 . S
C362 H375 0.961 . S
C362 H376 0.961 . S
C363 C360 1.539 . S
C363 H377 0.958 . S
C363 H378 0.961 . S
C363 H379 0.960 . S
H364 C348 0.931 . S
H365 C353 0.929 . S
H366 C354 0.960 . S
H367 C354 0.962 . S
H368 C354 0.960 . S
H369 C355 0.961 . S
H370 C355 0.961 . S
H371 C355 0.961 . S
H372 C356 0.931 . S
H373 C361 0.930 . S
H374 C362 0.956 . S
H375 C362 0.961 . S
H376 C362 0.961 . S
H377 C363 0.958 . S
H378 C363 0.961 . S
H379 C363 0.960 . S
C380 C381 1.391 . S
C380 C382 1.394 . S
C380 H396 0.931 . S
C381 C380 1.391 . S
C381 C385 1.376 . S
C382 C380 1.394 . S
C382 C383 1.369 . S
C382 C386 1.531 . S
C383 C382 1.369 . S
C383 C384 1.410 . S
C383 C391 1.503 . S
C384 C383 1.410 . S
C384 C385 1.392 . S
C384 C387 1.511 . S
C385 C381 1.376 . S
C385 C384 1.392 . S
C385 H397 0.929 . S
C386 C382 1.531 . S
C386 H398 0.960 . S
C386 H399 0.962 . S
C386 H400 0.960 . S
C387 C384 1.511 . S
C387 H401 0.961 . S
C387 H402 0.961 . S
C387 H403 0.961 . S
C388 C389 1.370 . S
C388 C390 1.363 . S
C388 H404 0.931 . S
C389 C388 1.370 . S
C389 C393 1.408 . S
C390 C388 1.363 . S
C390 C391 1.370 . S
C390 C394 1.524 . S
C391 C383 1.503 . S
C391 C390 1.370 . S
C391 C392 1.403 . S
C392 C391 1.403 . S
C392 C393 1.404 . S
C392 C395 1.539 . S
C393 C389 1.408 . S
C393 C392 1.404 . S
C393 H405 0.930 . S
C394 C390 1.524 . S
C394 H406 0.956 . S
C394 H407 0.961 . S
C394 H408 0.961 . S
C395 C392 1.539 . S
C395 H409 0.958 . S
C395 H410 0.961 . S
C395 H411 0.960 . S
H396 C380 0.931 . S
H397 C385 0.929 . S
H398 C386 0.960 . S
H399 C386 0.962 . S
H400 C386 0.960 . S
H401 C387 0.961 . S
H402 C387 0.961 . S
H403 C387 0.961 . S
H404 C388 0.931 . S
H405 C393 0.930 . S
H406 C394 0.956 . S
H407 C394 0.961 . S
H408 C394 0.961 . S
H409 C395 0.958 . S
H410 C395 0.961 . S
H411 C395 0.960 . S
C412 C413 1.391 . S
C412 C414 1.394 . S
C412 H428 0.931 . S
C413 C412 1.391 . S
C413 C417 1.376 . S
C414 C412 1.394 . S
C414 C415 1.369 . S
C414 C418 1.531 . S
C415 C414 1.369 . S
C415 C416 1.410 . S
C415 C423 1.503 . S
C416 C415 1.410 . S
C416 C417 1.392 . S
C416 C419 1.511 . S
C417 C413 1.376 . S
C417 C416 1.392 . S
C417 H429 0.929 . S
C418 C414 1.531 . S
C418 H430 0.960 . S
C418 H431 0.962 . S
C418 H432 0.960 . S
C419 C416 1.511 . S
C419 H433 0.961 . S
C419 H434 0.961 . S
C419 H435 0.961 . S
C420 C421 1.370 . S
C420 C422 1.393 . S
C420 H436 0.931 . S
C421 C420 1.370 . S
C421 C425 1.408 . S
C422 C420 1.393 . S
C422 C423 1.343 1_565 S
C422 C426 1.523 1_565 S
C423 C415 1.503 . S
C423 C422 1.343 1_545 S
C423 C424 1.403 . S
C424 C423 1.403 . S
C424 C425 1.404 1_545 S
C424 C427 1.539 . S
C425 C421 1.408 . S
C425 C424 1.404 1_565 S
C425 H437 0.930 . S
C426 C422 1.523 1_545 S
C426 H438 0.971 . S
C426 H439 0.970 . S
C426 H440 0.938 1_545 S
C427 C424 1.539 . S
C427 H441 0.958 . S
C427 H442 0.961 . S
C427 H443 0.960 . S
H428 C412 0.931 . S
H429 C417 0.929 . S
H430 C418 0.960 . S
H431 C418 0.962 . S
H432 C418 0.960 . S
H433 C419 0.961 . S
H434 C419 0.961 . S
H435 C419 0.961 . S
H436 C420 0.931 . S
H437 C425 0.930 . S
H438 C426 0.971 . S
H439 C426 0.970 . S
H440 C426 0.938 1_565 S
H441 C427 0.958 . S
H442 C427 0.961 . S
H443 C427 0.960 . S
C444 C445 1.391 . S
C444 C446 1.394 . S
C444 H460 0.931 . S
C445 C444 1.391 . S
C445 C449 1.376 . S
C446 C444 1.394 . S
C446 C447 1.369 1_556 S
C446 C450 1.531 1_556 S
C447 C446 1.369 1_554 S
C447 C448 1.410 . S
C447 C455 1.503 . S
C448 C447 1.410 . S
C448 C449 1.392 1_554 S
C448 C451 1.511 . S
C449 C445 1.376 . S
C449 C448 1.392 1_556 S
C449 H461 0.929 . S
C450 C446 1.531 1_554 S
C450 H462 0.960 . S
C450 H463 0.962 . S
C450 H464 0.960 1_554 S
C451 C448 1.511 . S
C451 H465 0.961 . S
C451 H466 0.961 . S
C451 H467 0.961 . S
C452 C453 1.370 . S
C452 C454 1.363 . S
C452 H468 0.931 . S
C453 C452 1.370 . S
C453 C457 1.408 . S
C454 C452 1.363 . S
C454 C455 1.370 . S
C454 C458 1.524 . S
C455 C447 1.503 . S
C455 C454 1.370 . S
C455 C456 1.403 . S
C456 C455 1.403 . S
C456 C457 1.404 . S
C456 C459 1.539 . S
C457 C453 1.408 . S
C457 C456 1.404 . S
C457 H469 0.930 . S
C458 C454 1.524 . S
C458 H470 0.956 . S
C458 H471 0.961 . S
C458 H472 0.961 . S
C459 C456 1.539 . S
C459 H473 0.958 . S
C459 H474 0.961 . S
C459 H475 0.960 . S
H460 C444 0.931 . S
H461 C449 0.929 . S
H462 C450 0.960 . S
H463 C450 0.962 . S
H464 C450 0.960 1_556 S
H465 C451 0.961 . S
H466 C451 0.961 . S
H467 C451 0.961 . S
H468 C452 0.931 . S
H469 C457 0.930 . S
H470 C458 0.956 . S
H471 C458 0.961 . S
H472 C458 0.961 . S
H473 C459 0.958 . S
H474 C459 0.961 . S
H475 C459 0.960 . S
C476 C477 1.391 . S
C476 C478 1.394 . S
C476 H492 0.931 . S
C477 C476 1.391 . S
C477 C481 1.376 . S
C478 C476 1.394 . S
C478 C479 1.369 . S
C478 C482 1.531 . S
C479 C478 1.369 . S
C479 C480 1.410 . S
C479 C487 1.503 . S
C480 C479 1.410 . S
C480 C481 1.392 . S
C480 C483 1.511 . S
C481 C477 1.376 . S
C481 C480 1.392 . S
C481 H493 0.929 . S
C482 C478 1.531 . S
C482 H494 0.960 . S
C482 H495 0.962 . S
C482 H496 0.960 . S
C483 C480 1.511 . S
C483 H497 0.961 . S
C483 H498 0.961 . S
C483 H499 0.961 . S
C484 C485 1.370 . S
C484 C486 1.363 . S
C484 H500 0.931 . S
C485 C484 1.370 . S
C485 C489 1.408 . S
C486 C484 1.363 . S
C486 C487 1.370 . S
C486 C490 1.524 . S
C487 C479 1.503 . S
C487 C486 1.370 . S
C487 C488 1.403 . S
C488 C487 1.403 . S
C488 C489 1.404 . S
C488 C491 1.539 . S
C489 C485 1.408 . S
C489 C488 1.404 . S
C489 H501 0.930 . S
C490 C486 1.524 . S
C490 H502 0.956 . S
C490 H503 0.961 . S
C490 H504 0.961 . S
C491 C488 1.539 . S
C491 H505 0.958 . S
C491 H506 0.961 . S
C491 H507 0.960 . S
H492 C476 0.931 . S
H493 C481 0.929 . S
H494 C482 0.960 . S
H495 C482 0.962 . S
H496 C482 0.960 . S
H497 C483 0.961 . S
H498 C483 0.961 . S
H499 C483 0.961 . S
H500 C484 0.931 . S
H501 C489 0.930 . S
H502 C490 0.956 . S
H503 C490 0.961 . S
H504 C490 0.961 . S
H505 C491 0.958 . S
H506 C491 0.961 . S
H507 C491 0.960 . S
C508 C509 1.391 . S
C508 C510 1.394 1_554 S
C508 H524 0.931 . S
C509 C508 1.391 . S
C509 C513 1.376 . S
C510 C508 1.394 1_556 S
C510 C511 1.369 . S
C510 C514 1.531 . S
C511 C510 1.369 . S
C511 C512 1.410 1_556 S
C511 C519 1.503 . S
C512 C511 1.410 1_554 S
C512 C513 1.392 . S
C512 C515 1.511 . S
C513 C509 1.376 . S
C513 C512 1.392 . S
C513 H525 0.929 . S
C514 C510 1.531 . S
C514 H526 0.960 . S
C514 H527 0.962 . S
C514 H528 0.960 . S
C515 C512 1.511 . S
C515 H529 0.961 . S
C515 H530 0.961 1_554 S
C515 H531 0.961 . S
C516 C517 1.370 . S
C516 C518 1.363 . S
C516 H532 0.931 . S
C517 C516 1.370 . S
C517 C521 1.408 . S
C518 C516 1.363 . S
C518 C519 1.370 . S
C518 C522 1.524 . S
C519 C511 1.503 . S
C519 C518 1.370 . S
C519 C520 1.403 . S
C520 C519 1.403 . S
C520 C521 1.404 . S
C520 C523 1.539 . S
C521 C517 1.408 . S
C521 C520 1.404 . S
C521 H533 0.930 . S
C522 C518 1.524 . S
C522 H534 0.956 . S
C522 H535 0.961 . S
C522 H536 0.961 . S
C523 C520 1.539 . S
C523 H537 0.958 . S
C523 H538 0.961 . S
C523 H539 0.960 . S
H524 C508 0.931 . S
H525 C513 0.929 . S
H526 C514 0.960 . S
H527 C514 0.962 . S
H528 C514 0.960 . S
H529 C515 0.961 . S
H530 C515 0.961 1_556 S
H531 C515 0.961 . S
H532 C516 0.931 . S
H533 C521 0.930 . S
H534 C522 0.956 . S
H535 C522 0.961 . S
H536 C522 0.961 . S
H537 C523 0.958 . S
H538 C523 0.961 . S
H539 C523 0.960 . S
C540 C541 1.391 . S
C540 C542 1.394 . S
C540 H556 0.931 . S
C541 C540 1.391 . S
C541 C545 1.376 . S
C542 C540 1.394 . S
C542 C543 1.369 . S
C542 C546 1.531 . S
C543 C542 1.369 . S
C543 C544 1.410 . S
C543 C551 1.503 . S
C544 C543 1.410 . S
C544 C545 1.392 . S
C544 C547 1.511 . S
C545 C541 1.376 . S
C545 C544 1.392 . S
C545 H557 0.929 . S
C546 C542 1.531 . S
C546 H558 0.960 . S
C546 H559 0.962 . S
C546 H560 0.960 . S
C547 C544 1.511 . S
C547 H561 0.961 . S
C547 H562 0.961 . S
C547 H563 0.961 . S
C548 C549 1.370 . S
C548 C550 1.363 . S
C548 H564 0.931 . S
C549 C548 1.370 . S
C549 C553 1.408 . S
C550 C548 1.363 . S
C550 C551 1.370 . S
C550 C554 1.524 . S
C551 C543 1.503 . S
C551 C550 1.370 . S
C551 C552 1.403 . S
C552 C551 1.403 . S
C552 C553 1.404 . S
C552 C555 1.539 . S
C553 C549 1.408 . S
C553 C552 1.404 . S
C553 H565 0.930 . S
C554 C550 1.524 . S
C554 H566 0.956 . S
C554 H567 0.961 . S
C554 H568 0.961 . S
C555 C552 1.539 . S
C555 H569 0.958 . S
C555 H570 0.961 . S
C555 H571 0.960 . S
H556 C540 0.931 . S
H557 C545 0.929 . S
H558 C546 0.960 . S
H559 C546 0.962 . S
H560 C546 0.960 . S
H561 C547 0.961 . S
H562 C547 0.961 . S
H563 C547 0.961 . S
H564 C548 0.931 . S
H565 C553 0.930 . S
H566 C554 0.956 . S
H567 C554 0.961 . S
H568 C554 0.961 . S
H569 C555 0.958 . S
H570 C555 0.961 . S
H571 C555 0.960 . S
C572 C573 1.391 . S
C572 C574 1.394 1_554 S
C572 H588 0.931 . S
C573 C572 1.391 . S
C573 C577 1.376 1_554 S
C574 C572 1.394 1_556 S
C574 C575 1.369 . S
C574 C578 1.531 . S
C575 C574 1.369 . S
C575 C576 1.410 . S
C575 C583 1.503 . S
C576 C575 1.410 . S
C576 C577 1.392 . S
C576 C579 1.511 . S
C577 C573 1.376 1_556 S
C577 C576 1.392 . S
C577 H589 0.929 . S
C578 C574 1.531 . S
C578 H590 0.960 . S
C578 H591 0.962 . S
C578 H592 0.960 1_556 S
C579 C576 1.511 . S
C579 H593 0.961 . S
C579 H594 0.961 . S
C579 H595 0.961 . S
C580 C581 1.370 . S
C580 C582 1.363 . S
C580 H596 0.931 . S
C581 C580 1.370 . S
C581 C585 1.408 . S
C582 C580 1.363 . S
C582 C583 1.370 . S
C582 C586 1.524 . S
C583 C575 1.503 . S
C583 C582 1.370 . S
C583 C584 1.403 . S
C584 C583 1.403 . S
C584 C585 1.404 . S
C584 C587 1.539 . S
C585 C581 1.408 . S
C585 C584 1.404 . S
C585 H597 0.930 . S
C586 C582 1.524 . S
C586 H598 0.956 . S
C586 H599 0.961 . S
C586 H600 0.961 . S
C587 C584 1.539 . S
C587 H601 0.958 . S
C587 H602 0.961 . S
C587 H603 0.960 . S
H588 C572 0.931 . S
H589 C577 0.929 . S
H590 C578 0.960 . S
H591 C578 0.962 . S
H592 C578 0.960 1_554 S
H593 C579 0.961 . S
H594 C579 0.961 . S
H595 C579 0.961 . S
H596 C580 0.931 . S
H597 C585 0.930 . S
H598 C586 0.956 . S
H599 C586 0.961 . S
H600 C586 0.961 . S
H601 C587 0.958 . S
H602 C587 0.961 . S
H603 C587 0.960 . S
C604 C605 1.391 . S
C604 C606 1.394 . S
C604 H620 0.931 . S
C605 C604 1.391 . S
C605 C609 1.376 . S
C606 C604 1.394 . S
C606 C607 1.369 . S
C606 C610 1.531 . S
C607 C606 1.369 . S
C607 C608 1.410 . S
C607 C615 1.503 . S
C608 C607 1.410 . S
C608 C609 1.392 . S
C608 C611 1.511 . S
C609 C605 1.376 . S
C609 C608 1.392 . S
C609 H621 0.929 . S
C610 C606 1.531 . S
C610 H622 0.960 . S
C610 H623 0.962 . S
C610 H624 0.960 . S
C611 C608 1.511 . S
C611 H625 0.961 . S
C611 H626 0.961 . S
C611 H627 0.961 . S
C612 C613 1.370 . S
C612 C614 1.363 . S
C612 H628 0.931 . S
C613 C612 1.370 . S
C613 C617 1.408 . S
C614 C612 1.363 . S
C614 C615 1.370 . S
C614 C618 1.524 . S
C615 C607 1.503 . S
C615 C614 1.370 . S
C615 C616 1.403 . S
C616 C615 1.403 . S
C616 C617 1.404 . S
C616 C619 1.539 . S
C617 C613 1.408 . S
C617 C616 1.404 . S
C617 H629 0.930 . S
C618 C614 1.524 . S
C618 H630 0.956 . S
C618 H631 0.961 . S
C618 H632 0.961 . S
C619 C616 1.539 . S
C619 H633 0.958 . S
C619 H634 0.961 . S
C619 H635 0.960 . S
H620 C604 0.931 . S
H621 C609 0.929 . S
H622 C610 0.960 . S
H623 C610 0.962 . S
H624 C610 0.960 . S
H625 C611 0.961 . S
H626 C611 0.961 . S
H627 C611 0.961 . S
H628 C612 0.931 . S
H629 C617 0.930 . S
H630 C618 0.956 . S
H631 C618 0.961 . S
H632 C618 0.961 . S
H633 C619 0.958 . S
H634 C619 0.961 . S
H635 C619 0.960 . S
C636 C637 1.391 1_554 S
C636 C638 1.394 . S
C636 H652 0.931 . S
C637 C636 1.391 1_556 S
C637 C641 1.376 . S
C638 C636 1.394 . S
C638 C639 1.369 . S
C638 C642 1.531 . S
C639 C638 1.369 . S
C639 C640 1.410 . S
C639 C647 1.503 . S
C640 C639 1.410 . S
C640 C641 1.392 1_554 S
C640 C643 1.511 . S
C641 C637 1.376 . S
C641 C640 1.392 1_556 S
C641 H653 0.929 . S
C642 C638 1.531 . S
C642 H654 0.960 . S
C642 H655 0.962 . S
C642 H656 0.960 . S
C643 C640 1.511 . S
C643 H657 0.961 1_554 S
C643 H658 0.961 . S
C643 H659 0.961 . S
C644 C645 1.370 . S
C644 C646 1.363 . S
C644 H660 0.931 . S
C645 C644 1.370 . S
C645 C649 1.408 . S
C646 C644 1.363 . S
C646 C647 1.370 . S
C646 C650 1.524 . S
C647 C639 1.503 . S
C647 C646 1.370 . S
C647 C648 1.403 . S
C648 C647 1.403 . S
C648 C649 1.404 . S
C648 C651 1.539 . S
C649 C645 1.408 . S
C649 C648 1.404 . S
C649 H661 0.930 . S
C650 C646 1.524 . S
C650 H662 0.956 . S
C650 H663 0.961 . S
C650 H664 0.961 . S
C651 C648 1.539 . S
C651 H665 0.958 . S
C651 H666 0.961 . S
C651 H667 0.960 . S
H652 C636 0.931 . S
H653 C641 0.929 . S
H654 C642 0.960 . S
H655 C642 0.962 . S
H656 C642 0.960 . S
H657 C643 0.961 1_556 S
H658 C643 0.961 . S
H659 C643 0.961 . S
H660 C644 0.931 . S
H661 C649 0.930 . S
H662 C650 0.956 . S
H663 C650 0.961 . S
H664 C650 0.961 . S
H665 C651 0.958 . S
H666 C651 0.961 . S
H667 C651 0.960 . S
C668 C669 1.391 . S
C668 C670 1.394 . S
C668 H684 0.931 . S
C669 C668 1.391 . S
C669 C673 1.376 . S
C670 C668 1.394 . S
C670 C671 1.369 . S
C670 C674 1.531 . S
C671 C670 1.369 . S
C671 C672 1.410 . S
C671 C679 1.503 . S
C672 C671 1.410 . S
C672 C673 1.392 . S
C672 C675 1.511 . S
C673 C669 1.376 . S
C673 C672 1.392 . S
C673 H685 0.929 . S
C674 C670 1.531 . S
C674 H686 0.960 . S
C674 H687 0.962 . S
C674 H688 0.960 . S
C675 C672 1.511 . S
C675 H689 0.961 . S
C675 H690 0.961 . S
C675 H691 0.961 . S
C676 C677 1.370 . S
C676 C678 1.363 . S
C676 H692 0.931 . S
C677 C676 1.370 . S
C677 C681 1.408 . S
C678 C676 1.363 . S
C678 C679 1.370 . S
C678 C682 1.524 . S
C679 C671 1.503 . S
C679 C678 1.370 . S
C679 C680 1.403 . S
C680 C679 1.403 . S
C680 C681 1.404 . S
C680 C683 1.539 . S
C681 C677 1.408 . S
C681 C680 1.404 . S
C681 H693 0.930 . S
C682 C678 1.524 . S
C682 H694 0.956 . S
C682 H695 0.961 . S
C682 H696 0.961 . S
C683 C680 1.539 . S
C683 H697 0.958 . S
C683 H698 0.961 . S
C683 H699 0.960 . S
H684 C668 0.931 . S
H685 C673 0.929 . S
H686 C674 0.960 . S
H687 C674 0.962 . S
H688 C674 0.960 . S
H689 C675 0.961 . S
H690 C675 0.961 . S
H691 C675 0.961 . S
H692 C676 0.931 . S
H693 C681 0.930 . S
H694 C682 0.956 . S
H695 C682 0.961 . S
H696 C682 0.961 . S
H697 C683 0.958 . S
H698 C683 0.961 . S
H699 C683 0.960 . S
C700 C701 1.391 . S
C700 C702 1.394 . S
C700 H716 0.931 . S
C701 C700 1.391 . S
C701 C705 1.376 . S
C702 C700 1.394 . S
C702 C703 1.369 . S
C702 C706 1.531 . S
C703 C702 1.369 . S
C703 C704 1.410 . S
C703 C711 1.503 . S
C704 C703 1.410 . S
C704 C705 1.392 . S
C704 C707 1.511 . S
C705 C701 1.376 . S
C705 C704 1.392 . S
C705 H717 0.929 . S
C706 C702 1.531 . S
C706 H718 0.960 . S
C706 H719 0.962 . S
C706 H720 0.960 . S
C707 C704 1.511 . S
C707 H721 0.961 . S
C707 H722 0.961 . S
C707 H723 0.961 . S
C708 C709 1.370 . S
C708 C710 1.363 . S
C708 H724 0.931 . S
C709 C708 1.370 . S
C709 C713 1.408 . S
C710 C708 1.363 . S
C710 C711 1.370 . S
C710 C714 1.524 . S
C711 C703 1.503 . S
C711 C710 1.370 . S
C711 C712 1.403 . S
C712 C711 1.403 . S
C712 C713 1.404 . S
C712 C715 1.539 . S
C713 C709 1.408 . S
C713 C712 1.404 . S
C713 H725 0.930 . S
C714 C710 1.524 . S
C714 H726 0.956 . S
C714 H727 0.961 . S
C714 H728 0.961 . S
C715 C712 1.539 . S
C715 H729 0.958 . S
C715 H730 0.961 . S
C715 H731 0.960 . S
H716 C700 0.931 . S
H717 C705 0.929 . S
H718 C706 0.960 . S
H719 C706 0.962 . S
H720 C706 0.960 . S
H721 C707 0.961 . S
H722 C707 0.961 . S
H723 C707 0.961 . S
H724 C708 0.931 . S
H725 C713 0.930 . S
H726 C714 0.956 . S
H727 C714 0.961 . S
H728 C714 0.961 . S
H729 C715 0.958 . S
H730 C715 0.961 . S
H731 C715 0.960 . S
C732 C733 1.391 . S
C732 C734 1.394 . S
C732 H748 0.931 . S
C733 C732 1.391 . S
C733 C737 1.376 . S
C734 C732 1.394 . S
C734 C735 1.369 . S
C734 C738 1.531 . S
C735 C734 1.369 . S
C735 C736 1.410 . S
C735 C743 1.503 . S
C736 C735 1.410 . S
C736 C737 1.392 . S
C736 C739 1.511 . S
C737 C733 1.376 . S
C737 C736 1.392 . S
C737 H749 0.929 . S
C738 C734 1.531 . S
C738 H750 0.960 . S
C738 H751 0.962 . S
C738 H752 0.960 . S
C739 C736 1.511 . S
C739 H753 0.961 . S
C739 H754 0.961 . S
C739 H755 0.961 . S
C740 C741 1.370 . S
C740 C742 1.363 . S
C740 H756 0.931 . S
C741 C740 1.370 . S
C741 C745 1.408 . S
C742 C740 1.363 . S
C742 C743 1.370 . S
C742 C746 1.524 . S
C743 C735 1.503 . S
C743 C742 1.370 . S
C743 C744 1.403 . S
C744 C743 1.403 . S
C744 C745 1.404 . S
C744 C747 1.539 . S
C745 C741 1.408 . S
C745 C744 1.404 . S
C745 H757 0.930 . S
C746 C742 1.524 . S
C746 H758 0.956 . S
C746 H759 0.961 . S
C746 H760 0.961 . S
C747 C744 1.539 . S
C747 H761 0.958 . S
C747 H762 0.961 . S
C747 H763 0.960 . S
H748 C732 0.931 . S
H749 C737 0.929 . S
H750 C738 0.960 . S
H751 C738 0.962 . S
H752 C738 0.960 . S
H753 C739 0.961 . S
H754 C739 0.961 . S
H755 C739 0.961 . S
H756 C740 0.931 . S
H757 C745 0.930 . S
H758 C746 0.956 . S
H759 C746 0.961 . S
H760 C746 0.961 . S
H761 C747 0.958 . S
H762 C747 0.961 . S
H763 C747 0.960 . S
C764 C765 1.391 . S
C764 C766 1.394 . S
C764 H780 0.931 . S
C765 C764 1.391 . S
C765 C769 1.376 . S
C766 C764 1.394 . S
C766 C767 1.369 . S
C766 C770 1.531 . S
C767 C766 1.369 . S
C767 C768 1.410 . S
C767 C775 1.503 . S
C768 C767 1.410 . S
C768 C769 1.392 . S
C768 C771 1.511 . S
C769 C765 1.376 . S
C769 C768 1.392 . S
C769 H781 0.929 . S
C770 C766 1.531 . S
C770 H782 0.960 . S
C770 H783 0.962 . S
C770 H784 0.960 . S
C771 C768 1.511 . S
C771 H785 0.961 . S
C771 H786 0.961 . S
C771 H787 0.961 . S
C772 C773 1.370 . S
C772 C774 1.363 . S
C772 H788 0.931 . S
C773 C772 1.370 . S
C773 C777 1.408 . S
C774 C772 1.363 . S
C774 C775 1.370 . S
C774 C778 1.524 . S
C775 C767 1.503 . S
C775 C774 1.370 . S
C775 C776 1.403 . S
C776 C775 1.403 . S
C776 C777 1.404 . S
C776 C779 1.539 . S
C777 C773 1.408 . S
C777 C776 1.404 . S
C777 H789 0.930 . S
C778 C774 1.524 . S
C778 H790 0.956 . S
C778 H791 0.961 . S
C778 H792 0.961 . S
C779 C776 1.539 . S
C779 H793 0.958 . S
C779 H794 0.961 . S
C779 H795 0.960 . S
H780 C764 0.931 . S
H781 C769 0.929 . S
H782 C770 0.960 . S
H783 C770 0.962 . S
H784 C770 0.960 . S
H785 C771 0.961 . S
H786 C771 0.961 . S
H787 C771 0.961 . S
H788 C772 0.931 . S
H789 C777 0.930 . S
H790 C778 0.956 . S
H791 C778 0.961 . S
H792 C778 0.961 . S
H793 C779 0.958 . S
H794 C779 0.961 . S
H795 C779 0.960 . S
C796 C797 1.391 . S
C796 C798 1.394 . S
C796 H812 0.931 . S
C797 C796 1.391 . S
C797 C801 1.376 . S
C798 C796 1.394 . S
C798 C799 1.369 . S
C798 C802 1.531 . S
C799 C798 1.369 . S
C799 C800 1.410 . S
C799 C807 1.503 . S
C800 C799 1.410 . S
C800 C801 1.392 . S
C800 C803 1.511 . S
C801 C797 1.376 . S
C801 C800 1.392 . S
C801 H813 0.929 . S
C802 C798 1.531 . S
C802 H814 0.960 . S
C802 H815 0.962 . S
C802 H816 0.960 . S
C803 C800 1.511 . S
C803 H817 0.961 . S
C803 H818 0.961 . S
C803 H819 0.961 . S
C804 C805 1.370 . S
C804 C806 1.363 . S
C804 H820 0.931 . S
C805 C804 1.370 . S
C805 C809 1.408 . S
C806 C804 1.363 . S
C806 C807 1.370 . S
C806 C810 1.524 . S
C807 C799 1.503 . S
C807 C806 1.370 . S
C807 C808 1.403 . S
C808 C807 1.403 . S
C808 C809 1.404 . S
C808 C811 1.539 . S
C809 C805 1.408 . S
C809 C808 1.404 . S
C809 H821 0.930 . S
C810 C806 1.524 . S
C810 H822 0.956 . S
C810 H823 0.961 . S
C810 H824 0.961 . S
C811 C808 1.539 . S
C811 H825 0.958 . S
C811 H826 0.961 . S
C811 H827 0.960 . S
H812 C796 0.931 . S
H813 C801 0.929 . S
H814 C802 0.960 . S
H815 C802 0.962 . S
H816 C802 0.960 . S
H817 C803 0.961 . S
H818 C803 0.961 . S
H819 C803 0.961 . S
H820 C804 0.931 . S
H821 C809 0.930 . S
H822 C810 0.956 . S
H823 C810 0.961 . S
H824 C810 0.961 . S
H825 C811 0.958 . S
H826 C811 0.961 . S
H827 C811 0.960 . S
C828 C829 1.391 . S
C828 C830 1.394 . S
C828 H844 0.931 . S
C829 C828 1.391 . S
C829 C833 1.376 . S
C830 C828 1.394 . S
C830 C831 1.369 . S
C830 C834 1.531 . S
C831 C830 1.369 . S
C831 C832 1.410 . S
C831 C839 1.503 . S
C832 C831 1.410 . S
C832 C833 1.392 . S
C832 C835 1.511 . S
C833 C829 1.376 . S
C833 C832 1.392 . S
C833 H845 0.929 . S
C834 C830 1.531 . S
C834 H846 0.960 . S
C834 H847 0.962 . S
C834 H848 0.960 . S
C835 C832 1.511 . S
C835 H849 0.961 . S
C835 H850 0.961 . S
C835 H851 0.961 . S
C836 C837 1.370 . S
C836 C838 1.363 . S
C836 H852 0.931 . S
C837 C836 1.370 . S
C837 C841 1.408 . S
C838 C836 1.363 . S
C838 C839 1.370 . S
C838 C842 1.524 . S
C839 C831 1.503 . S
C839 C838 1.370 . S
C839 C840 1.403 . S
C840 C839 1.403 . S
C840 C841 1.404 . S
C840 C843 1.539 . S
C841 C837 1.408 . S
C841 C840 1.404 . S
C841 H853 0.930 . S
C842 C838 1.524 . S
C842 H854 0.956 . S
C842 H855 0.961 . S
C842 H856 0.961 . S
C843 C840 1.539 . S
C843 H857 0.958 . S
C843 H858 0.961 . S
C843 H859 0.960 . S
H844 C828 0.931 . S
H845 C833 0.929 . S
H846 C834 0.960 . S
H847 C834 0.962 . S
H848 C834 0.960 . S
H849 C835 0.961 . S
H850 C835 0.961 . S
H851 C835 0.961 . S
H852 C836 0.931 . S
H853 C841 0.930 . S
H854 C842 0.956 . S
H855 C842 0.961 . S
H856 C842 0.961 . S
H857 C843 0.958 . S
H858 C843 0.961 . S
H859 C843 0.960 . S
C860 C861 1.391 . S
C860 C862 1.394 . S
C860 H876 0.931 . S
C861 C860 1.391 . S
C861 C865 1.376 . S
C862 C860 1.394 . S
C862 C863 1.369 . S
C862 C866 1.531 . S
C863 C862 1.369 . S
C863 C864 1.410 . S
C863 C871 1.503 . S
C864 C863 1.410 . S
C864 C865 1.392 . S
C864 C867 1.511 . S
C865 C861 1.376 . S
C865 C864 1.392 . S
C865 H877 0.929 . S
C866 C862 1.531 . S
C866 H878 0.960 . S
C866 H879 0.962 . S
C866 H880 0.960 . S
C867 C864 1.511 . S
C867 H881 0.961 . S
C867 H882 0.961 . S
C867 H883 0.961 . S
C868 C869 1.370 . S
C868 C870 1.363 . S
C868 H884 0.931 . S
C869 C868 1.370 . S
C869 C873 1.408 . S
C870 C868 1.363 . S
C870 C871 1.370 . S
C870 C874 1.524 . S
C871 C863 1.503 . S
C871 C870 1.370 . S
C871 C872 1.403 . S
C872 C871 1.403 . S
C872 C873 1.404 . S
C872 C875 1.539 . S
C873 C869 1.408 . S
C873 C872 1.404 . S
C873 H885 0.930 . S
C874 C870 1.524 . S
C874 H886 0.956 . S
C874 H887 0.961 . S
C874 H888 0.961 . S
C875 C872 1.539 . S
C875 H889 0.958 . S
C875 H890 0.961 . S
C875 H891 0.960 . S
H876 C860 0.931 . S
H877 C865 0.929 . S
H878 C866 0.960 . S
H879 C866 0.962 . S
H880 C866 0.960 . S
H881 C867 0.961 . S
H882 C867 0.961 . S
H883 C867 0.961 . S
H884 C868 0.931 . S
H885 C873 0.930 . S
H886 C874 0.956 . S
H887 C874 0.961 . S
H888 C874 0.961 . S
H889 C875 0.958 . S
H890 C875 0.961 . S
H891 C875 0.960 . S
C892 C893 1.391 . S
C892 C894 1.394 . S
C892 H908 0.931 . S
C893 C892 1.391 . S
C893 C897 1.376 . S
C894 C892 1.394 . S
C894 C895 1.369 . S
C894 C898 1.531 . S
C895 C894 1.369 . S
C895 C896 1.410 . S
C895 C903 1.503 . S
C896 C895 1.410 . S
C896 C897 1.392 . S
C896 C899 1.511 . S
C897 C893 1.376 . S
C897 C896 1.392 . S
C897 H909 0.929 . S
C898 C894 1.531 . S
C898 H910 0.960 . S
C898 H911 0.962 . S
C898 H912 0.960 . S
C899 C896 1.511 . S
C899 H913 0.961 . S
C899 H914 0.961 . S
C899 H915 0.961 . S
C900 C901 1.370 . S
C900 C902 1.363 . S
C900 H916 0.931 . S
C901 C900 1.370 . S
C901 C905 1.408 . S
C902 C900 1.363 . S
C902 C903 1.370 . S
C902 C906 1.524 . S
C903 C895 1.503 . S
C903 C902 1.370 . S
C903 C904 1.403 . S
C904 C903 1.403 . S
C904 C905 1.404 . S
C904 C907 1.539 . S
C905 C901 1.408 . S
C905 C904 1.404 . S
C905 H917 0.930 . S
C906 C902 1.524 . S
C906 H918 0.956 . S
C906 H919 0.961 . S
C906 H920 0.961 . S
C907 C904 1.539 . S
C907 H921 0.958 . S
C907 H922 0.961 . S
C907 H923 0.960 . S
H908 C892 0.931 . S
H909 C897 0.929 . S
H910 C898 0.960 . S
H911 C898 0.962 . S
H912 C898 0.960 . S
H913 C899 0.961 . S
H914 C899 0.961 . S
H915 C899 0.961 . S
H916 C900 0.931 . S
H917 C905 0.930 . S
H918 C906 0.956 . S
H919 C906 0.961 . S
H920 C906 0.961 . S
H921 C907 0.958 . S
H922 C907 0.961 . S
H923 C907 0.960 . S
C924 C925 1.391 . S
C924 C926 1.394 . S
C924 H940 0.931 . S
C925 C924 1.391 . S
C925 C929 1.376 . S
C926 C924 1.394 . S
C926 C927 1.369 . S
C926 C930 1.531 . S
C927 C926 1.369 . S
C927 C928 1.410 . S
C927 C935 1.503 . S
C928 C927 1.410 . S
C928 C929 1.392 . S
C928 C931 1.511 . S
C929 C925 1.376 . S
C929 C928 1.392 . S
C929 H941 0.929 . S
C930 C926 1.531 . S
C930 H942 0.960 . S
C930 H943 0.962 . S
C930 H944 0.960 . S
C931 C928 1.511 . S
C931 H945 0.961 . S
C931 H946 0.961 . S
C931 H947 0.961 . S
C932 C933 1.370 . S
C932 C934 1.363 . S
C932 H948 0.931 . S
C933 C932 1.370 . S
C933 C937 1.408 . S
C934 C932 1.363 . S
C934 C935 1.370 . S
C934 C938 1.524 . S
C935 C927 1.503 . S
C935 C934 1.370 . S
C935 C936 1.403 . S
C936 C935 1.403 . S
C936 C937 1.404 . S
C936 C939 1.539 . S
C937 C933 1.408 . S
C937 C936 1.404 . S
C937 H949 0.930 . S
C938 C934 1.524 . S
C938 H950 0.956 . S
C938 H951 0.961 . S
C938 H952 0.961 . S
C939 C936 1.539 . S
C939 H953 0.958 . S
C939 H954 0.961 . S
C939 H955 0.960 . S
H940 C924 0.931 . S
H941 C929 0.929 . S
H942 C930 0.960 . S
H943 C930 0.962 . S
H944 C930 0.960 . S
H945 C931 0.961 . S
H946 C931 0.961 . S
H947 C931 0.961 . S
H948 C932 0.931 . S
H949 C937 0.930 . S
H950 C938 0.956 . S
H951 C938 0.961 . S
H952 C938 0.961 . S
H953 C939 0.958 . S
H954 C939 0.961 . S
H955 C939 0.960 . S
C189 C86 1.359 . S
C197 C120 1.270 . S
C229 C128 1.437 . S
C221 C100 1.481 . S
C261 C132 1.287 . S
C253 C60 1.371 . S
C285 C74 1.488 . S
C293 C108 1.430 . S
C325 C149 1.436 . S
C317 C35 1.501 . S
C357 C183 1.274 . S
C349 C47 1.342 . S
C381 C9 1.496 . S
C389 C171 1.416 . S
C413 C21 1.369 . S
C421 C153 1.290 . S
C453 C107 1.352 . S
C445 C22 1.443 . S
C485 C141 1.338 . S
C477 C8 1.449 . S
C517 C145 1.344 . S
C509 C48 1.475 . S
C549 C123 1.327 . S
C541 C34 1.444 . S
C581 C162 1.329 . S
C573 C73 1.463 . S
C605 C61 1.482 . S
C613 C170 1.380 . S
C645 C186 1.304 . S
C637 C99 1.437 . S
C669 C87 1.465 . S
C677 C166 1.368 . S
C709 C111 1.436 . S
C701 C4 1.517 . S
C741 C129 1.309 . S
C733 C17 1.434 . S
C765 C30 1.551 . S
C773 C144 1.421 . S
C805 C124 1.298 . S
C797 C43 1.402 . S
C837 C150 1.297 . S
C829 C56 1.419 . S
C861 C69 1.535 . S
C869 C174 1.396 . S
C893 C82 1.410 . S
C901 C187 1.297 . S
C925 C95 1.498 . S
C933 C165 1.422 . S
