# Generated by pormake.
# Topology tsx, (6,3)-cn, num edge types: 1
# Building blocks:
#     Node 0, Type 0, BuildingBlock: CIFDUS_clean_sbu_1, # of connection points: 6
#     Node 1, Type 0, BuildingBlock: CIFDUS_clean_sbu_1, # of connection points: 6
#     Node 2, Type 1, BuildingBlock: ESEHIV_clean_linker_0, # of connection points: 3
#     Node 3, Type 1, BuildingBlock: ESEHIV_clean_linker_0, # of connection points: 3
#     Node 4, Type 1, BuildingBlock: ESEHIV_clean_linker_0, # of connection points: 3
#     Node 5, Type 1, BuildingBlock: ESEHIV_clean_linker_0, # of connection points: 3
#     Edge 6, Type (0, 1), BuildingBlock: XIVTED_clean_linker_0, # of connection points: 2
#     Edge 7, Type (0, 1), BuildingBlock: XIVTED_clean_linker_0, # of connection points: 2
#     Edge 8, Type (0, 1), BuildingBlock: XIVTED_clean_linker_0, # of connection points: 2
#     Edge 9, Type (0, 1), BuildingBlock: XIVTED_clean_linker_0, # of connection points: 2
#     Edge 10, Type (0, 1), BuildingBlock: XIVTED_clean_linker_0, # of connection points: 2
#     Edge 11, Type (0, 1), BuildingBlock: XIVTED_clean_linker_0, # of connection points: 2
#     Edge 12, Type (0, 1), BuildingBlock: XIVTED_clean_linker_0, # of connection points: 2
#     Edge 13, Type (0, 1), BuildingBlock: XIVTED_clean_linker_0, # of connection points: 2
#     Edge 14, Type (0, 1), BuildingBlock: XIVTED_clean_linker_0, # of connection points: 2
#     Edge 15, Type (0, 1), BuildingBlock: XIVTED_clean_linker_0, # of connection points: 2
#     Edge 16, Type (0, 1), BuildingBlock: XIVTED_clean_linker_0, # of connection points: 2
#     Edge 17, Type (0, 1), BuildingBlock: XIVTED_clean_linker_0, # of connection points: 2
# Relax obj value: 0.128
# Max RMSD: 0.156
# Mean RMSD: 0.118
data_MOF--net-tsx--node1-CIFDUS_clean_sbu_1--node2-ESEHIV_clean_linker_0--edge1-XIVTED_clean_linker_0
_symmetry_space_group_name_H-M    P1
_symmetry_Int_Tables_number       1
_symmetry_cell_setting            triclinic
loop_
_symmetry_equiv_pos_as_xyz
'x, y, z'
_cell_length_a     15.83284
_cell_length_b     21.263272
_cell_length_c     35.263857
_cell_angle_alpha  97.957096
_cell_angle_beta   97.246108
_cell_angle_gamma 92.737787
loop_
_atom_site_label
_atom_site_type_symbol
_atom_site_fract_x
_atom_site_fract_y
_atom_site_fract_z
_atom_type_partial_charge
O0 O 1.03674 0.05348 0.99643 0.0
Mn1 Mn 0.10834 0.97346 -0.00084 0.0
O2 O 0.9187 0.02073 0.95378 0.0
Mn3 Mn 0.95443 0.94289 0.93371 0.0
O4 O 0.17838 0.89286 0.00089 0.0
O5 O 0.21064 0.02992 0.0242 0.0
Mn6 Mn 0.26508 -0.00231 0.06311 0.0
O7 O 0.07088 0.96561 0.05333 0.0
O8 O 0.29864 0.91981 0.04231 0.0
O9 O 0.14666 0.98229 0.9452 0.0
O10 O 1.0349 0.94461 0.90029 0.0
O11 O 0.32622 0.07254 0.05972 0.0
O12 O 0.18714 -0.00637 0.09773 0.0
C13 C 0.95285 0.86702 0.96769 0.0
C14 C 0.96297 0.06257 0.97885 0.0
C15 C 0.25118 0.87983 0.01745 0.0
C16 C 0.26786 0.07658 0.03114 0.0
C17 C 0.10809 0.97666 0.08842 0.0
C18 C 0.11245 0.96558 0.90995 0.0
O19 O 1.0073 0.91545 0.97426 0.0
O20 O 0.8966 0.86698 0.93772 0.0
O21 O 0.50434 0.65989 0.51438 0.0
Mn22 Mn 0.56943 0.57619 0.50411 0.0
O23 O 0.3643 0.63192 0.50359 0.0
Mn24 Mn 0.37876 0.55683 0.47295 0.0
O25 O 0.63643 0.49285 0.49298 0.0
O26 O 0.67646 0.63366 0.51044 0.0
Mn27 Mn 0.76091 0.59908 0.53536 0.0
O28 O 0.58681 0.56948 0.563 0.0
O29 O 0.77567 0.52455 0.50478 0.0
O30 O 0.55279 0.5817 0.44511 0.0
O31 O 0.41162 0.56491 0.4253 0.0
O32 O 0.80602 0.67595 0.5262 0.0
O33 O 0.72772 0.58939 0.58292 0.0
C34 C 0.4041 0.47329 0.49767 0.0
C35 C 0.42612 0.6732 0.51517 0.0
C36 C 0.71582 0.48182 0.4925 0.0
C37 C 0.72888 0.68229 0.51075 0.0
C38 C 0.65199 0.57524 0.58931 0.0
C39 C 0.48789 0.5759 0.41869 0.0
O40 O 0.461 0.51925 0.49784 0.0
O41 O 0.32854 0.48151 0.48106 0.0
H42 H 0.91331 0.07806 0.36104 0.0
H43 H 0.11783 0.95232 0.36832 0.0
H44 H 0.04699 0.0557 0.47175 0.0
C45 C 0.96137 0.05558 0.37821 0.0
C46 C 0.97285 0.07158 0.41859 0.0
C47 C 1.01392 0.01338 0.3596 0.0
C48 C 0.07667 0.9849 0.38221 0.0
C49 C 0.08767 -0.00111 0.42274 0.0
C50 C 1.03624 0.04285 0.44067 0.0
H51 H 1.00634 0.00562 0.6437 0.0
H52 H 0.23443 0.1267 0.65371 0.0
H53 H 0.04934 0.1119 0.5516 0.0
C54 C 0.04489 0.0395 0.63179 0.0
C55 C 1.01745 0.05581 0.59511 0.0
C56 C 0.12262 0.0653 0.65306 0.0
C57 C 0.17343 0.10813 0.63757 0.0
C58 C 0.14791 0.12533 0.60101 0.0
C59 C 0.06983 0.09868 0.57975 0.0
H60 H 0.51385 0.54356 0.86092 0.0
H61 H 0.69759 0.40108 0.85838 0.0
H62 H 0.59766 0.46562 0.96407 0.0
C63 C 0.55117 0.51007 0.87524 0.0
C64 C 0.54817 0.50791 0.91454 0.0
C65 C 0.60561 0.4724 0.85486 0.0
C66 C 0.65681 0.43139 0.8742 0.0
C67 C 0.65365 0.42804 0.91356 0.0
C68 C 0.59961 0.46699 0.9336 0.0
H69 H 0.45164 0.46789 0.12369 0.0
H70 H 0.66132 0.60876 0.1453 0.0
H71 H 0.57841 0.51497 0.02946 0.0
C72 C 0.49906 0.49651 0.1128 0.0
C73 C 0.50747 0.48675 0.07327 0.0
C74 C 0.55488 0.54005 0.13882 0.0
C75 C 0.61828 0.57515 0.12504 0.0
C76 C 0.62667 0.56756 0.08558 0.0
C77 C 0.57188 0.52225 0.05986 0.0
H78 H 0.15821 0.17107 0.03213 0.0
H79 H 0.55869 0.39612 0.02039 0.0
H80 H 0.38669 0.10989 0.98796 0.0
H81 H 0.33477 0.45893 0.06825 0.0
H82 H 0.47746 0.29828 0.98858 0.0
H83 H 0.1997 0.28078 0.02465 0.0
C84 C 0.2148 0.1804 0.0189 0.0
C85 C 0.26938 0.13193 0.01067 0.0
C86 C 0.44523 0.33407 0.00521 0.0
C87 C 0.31941 0.25689 0.00376 0.0
C88 C 0.49155 0.39016 0.02304 0.0
C89 C 0.45379 0.43513 0.04729 0.0
C90 C 0.3608 0.32243 0.01223 0.0
C91 C 0.36685 0.42466 0.05045 0.0
C92 C 0.23929 0.24312 0.01518 0.0
C93 C 0.3431 0.14633 0.99459 0.0
N94 N 0.32373 0.36883 0.0338 0.0
N95 N 0.367 0.20774 0.99243 0.0
H96 H 0.18163 0.78349 0.96008 0.0
H97 H 0.5961 0.58658 0.9823 0.0
H98 H 0.39397 0.83149 0.05103 0.0
H99 H 0.38127 0.53064 0.8941 0.0
H100 H 0.51372 0.6682 0.01317 0.0
H101 H 0.24465 0.68343 0.94002 0.0
C102 C 0.24101 0.77284 0.97603 0.0
C103 C 0.28331 0.81654 0.00684 0.0
C104 C 0.48392 0.63761 0.98735 0.0
C105 C 0.35555 0.70232 0.9841 0.0
C106 C 0.53074 0.59059 0.97003 0.0
C107 C 0.49518 0.55185 0.93583 0.0
C108 C 0.40145 0.64671 0.96986 0.0
C109 C 0.41107 0.56009 0.92035 0.0
C110 C 0.2769 0.71568 0.96459 0.0
C111 C 0.35968 0.79987 0.02668 0.0
N112 N 0.36726 0.60715 0.93725 0.0
N113 N 0.39364 0.74444 0.01474 0.0
H114 H 0.9427 0.74051 0.94434 0.0
H115 H 0.67181 0.69355 0.11028 0.0
H116 H 0.94213 0.88092 0.04477 0.0
H117 H 0.73052 0.53467 0.0297 0.0
H118 H 0.78045 0.7599 0.08919 0.0
H119 H 0.88094 0.66043 0.97813 0.0
C120 C 0.93281 0.75368 0.97418 0.0
C121 C 0.94787 0.81698 0.99205 0.0
C122 C 0.77057 0.71034 0.07642 0.0
C123 C 0.87386 0.72688 0.03015 0.0
C124 C 0.70835 0.67224 0.08846 0.0
C125 C 0.69213 0.60813 0.07192 0.0
C126 C 0.81609 0.68485 0.04694 0.0
C127 C 0.74014 0.58395 0.04298 0.0
C128 C 0.89692 0.70818 0.99333 0.0
C129 C 0.9329 0.83231 0.03036 0.0
N130 N 0.79947 0.62255 0.03112 0.0
N131 N 0.89478 0.78778 0.04792 0.0
H132 H 0.80419 0.08318 0.99499 0.0
H133 H 0.60109 0.35098 0.96253 0.0
H134 H 1.03627 0.18072 0.97585 0.0
H135 H 0.82062 0.40029 0.90929 0.0
H136 H 0.68124 0.27389 0.99408 0.0
H137 H 0.7296 0.17872 0.98898 0.0
C138 C 0.83999 0.12592 0.99092 0.0
C139 C 0.92626 0.12447 0.98609 0.0
C140 C 0.71222 0.30066 0.97521 0.0
C141 C 0.84135 0.23508 0.97883 0.0
C142 C 0.66673 0.34596 0.95792 0.0
C143 C 0.70411 0.38226 0.93344 0.0
C144 C 0.79524 0.2897 0.96683 0.0
C145 C 0.78877 0.37249 0.92745 0.0
C146 C 0.79742 0.18097 0.98758 0.0
C147 C 0.96986 0.18049 0.98029 0.0
N148 N 0.83123 0.32667 0.94374 0.0
N149 N 0.92641 0.23336 0.97602 0.0
H150 H 0.77593 0.74343 0.45373 0.0
H151 H 0.86339 0.02869 0.62003 0.0
H152 H 0.64028 0.76601 0.55249 0.0
H153 H 0.989 0.00856 0.51814 0.0
H154 H 0.7494 0.95203 0.58637 0.0
H155 H 0.81544 0.85741 0.46485 0.0
C156 C 0.75019 0.77317 0.47646 0.0
C157 C 0.7056 0.74539 0.50248 0.0
C158 C 0.8009 0.96532 0.57095 0.0
C159 C 0.75509 0.87513 0.51705 0.0
C160 C 0.86639 0.0089 0.59027 0.0
C161 C 0.93776 0.02325 0.57224 0.0
C162 C 0.80717 0.9352 0.53343 0.0
C163 C 0.93633 -0.00208 0.53328 0.0
C164 C 0.77416 0.83823 0.48331 0.0
C165 C 0.675 0.78575 0.53183 0.0
N166 N 0.87346 0.95397 0.51547 0.0
N167 N 0.70285 0.84834 0.53922 0.0
H168 H 0.61723 0.36748 0.46838 0.0
H169 H 1.03426 0.16917 0.4757 0.0
H170 H 0.87824 0.44701 0.49111 0.0
H171 H 0.80245 0.09322 0.4024 0.0
H172 H 0.96268 0.26417 0.49659 0.0
H173 H 0.67165 0.26055 0.45509 0.0
C174 C 0.6854 0.36276 0.47039 0.0
C175 C 0.74292 0.41668 0.48095 0.0
C176 C 0.92711 0.22642 0.4762 0.0
C177 C 0.80487 0.29533 0.4671 0.0
C178 C 0.96773 0.17176 0.46458 0.0
C179 C 0.92481 0.1235 0.43674 0.0
C180 C 0.84284 0.23316 0.46 0.0
C181 C 0.83849 0.13004 0.42326 0.0
C182 C 0.71627 0.30189 0.46304 0.0
C183 C 0.83078 0.40746 0.48329 0.0
N184 N 0.8004 0.18429 0.43469 0.0
N185 N 0.85864 0.34835 0.47674 0.0
H186 H 0.44529 0.45996 0.57323 0.0
H187 H 0.18743 0.12103 0.5269 0.0
H188 H 0.38444 0.35425 0.45903 0.0
H189 H 0.23719 0.23329 0.64011 0.0
H190 H 0.28173 0.19674 0.50299 0.0
H191 H 0.40051 0.36568 0.60041 0.0
C192 C 0.42676 0.41584 0.55406 0.0
C193 C 0.41858 0.41445 0.514 0.0
C194 C 0.27266 0.20441 0.53317 0.0
C195 C 0.36307 0.30781 0.54431 0.0
C196 C 0.218 0.1616 0.5467 0.0
C197 C 0.20399 0.17091 0.58554 0.0
C198 C 0.31331 0.25711 0.55858 0.0
C199 C 0.24664 0.22377 0.61003 0.0
C200 C 0.39945 0.36235 0.56943 0.0
C201 C 0.39183 0.35679 0.49017 0.0
N202 N 0.29883 0.26495 0.59612 0.0
N203 N 0.36329 0.30607 0.50561 0.0
H204 H 0.2984 0.72234 0.55234 0.0
H205 H 0.25648 0.9866 0.41445 0.0
H206 H 0.49695 0.77367 0.48707 0.0
H207 H 0.06502 0.93666 0.48368 0.0
H208 H 0.35723 0.92398 0.44964 0.0
H209 H 0.22751 0.81799 0.53931 0.0
C210 C 0.32872 0.75517 0.53648 0.0
C211 C 0.40331 0.74 0.52059 0.0
C212 C 0.29369 0.92776 0.45769 0.0
C213 C 0.32053 0.84808 0.50391 0.0
C214 C 0.23608 0.96315 0.43745 0.0
C215 C 0.15228 0.96686 0.44626 0.0
C216 C 0.26695 0.89525 0.48666 0.0
C217 C 0.12933 0.9361 0.4765 0.0
C218 C 0.28774 0.80947 0.52862 0.0
C219 C 0.43973 0.78386 0.50003 0.0
N220 N 0.1859 0.90106 0.49527 0.0
N221 N 0.39681 0.83515 0.4914 0.0
H222 H 0.10168 0.87672 0.128 0.0
H223 H 0.98285 0.10019 0.30962 0.0
H224 H 1.01236 0.06386 0.12311 0.0
H225 H 1.02916 0.90198 0.31124 0.0
H226 H 0.9784 0.0836 0.23982 0.0
H227 H 0.05845 0.87936 0.19252 0.0
C228 C 0.07002 0.91738 0.14012 0.0
C229 C 0.0594 0.96986 0.12041 0.0
C230 C 0.98852 0.04345 0.2553 0.0
C231 C 1.0133 0.97462 0.19448 0.0
C232 C 0.99068 0.0528 0.29532 0.0
C233 C 1.00654 0.00242 0.31661 0.0
C234 C 1.00358 0.98347 0.23619 0.0
C235 C 1.01822 0.94253 0.29623 0.0
C236 C 0.0461 0.91921 0.17702 0.0
C237 C 1.02031 0.0222 0.1374 0.0
N238 N 1.01733 0.93488 0.25722 0.0
N239 N 0.99976 0.0237 0.17378 0.0
H240 H 0.19875 0.07394 0.898 0.0
H241 H 0.12461 0.94587 0.6731 0.0
H242 H 0.12839 0.87895 0.84825 0.0
H243 H 0.18563 0.14338 0.72012 0.0
H244 H 0.1582 0.91736 0.73773 0.0
H245 H 0.23046 0.09661 0.83462 0.0
C246 C 0.19351 0.03541 0.87407 0.0
C247 C 0.16037 0.97471 0.87794 0.0
C248 C 0.16525 0.96694 0.73398 0.0
C249 C 0.19389 0.00025 0.80567 0.0
C250 C 0.14546 0.98318 0.69711 0.0
C251 C 0.15077 0.04712 0.69148 0.0
C252 C 0.18942 0.01505 0.76562 0.0
C253 C 0.18019 0.09352 0.72336 0.0
C254 C 0.21052 0.04842 0.83784 0.0
C255 C 0.15332 0.92649 0.84614 0.0
N256 N 0.19712 0.07669 0.75923 0.0
N257 N 0.16853 0.94051 0.81119 0.0
H258 H 0.50289 0.55302 0.6196 0.0
H259 H 0.74961 0.48049 0.81999 0.0
H260 H 0.77722 0.56346 0.64807 0.0
H261 H 0.47534 0.48075 0.79703 0.0
H262 H 0.75931 0.50308 0.75466 0.0
H263 H 0.48968 0.52149 0.68297 0.0
C264 C 0.56022 0.54874 0.63908 0.0
C265 C 0.64121 0.56067 0.62833 0.0
C266 C 0.69688 0.49791 0.7638 0.0
C267 C 0.62664 0.52473 0.70071 0.0
C268 C 0.69135 0.48438 0.80099 0.0
C269 C 0.61162 0.47909 0.81401 0.0
C270 C 0.62216 0.50623 0.73941 0.0
C271 C 0.5382 0.48543 0.78829 0.0
C272 C 0.55267 0.53077 0.67523 0.0
C273 C 0.71333 0.55499 0.65496 0.0
N274 N 0.54523 0.49899 0.75225 0.0
N275 N 0.70427 0.53733 0.68977 0.0
H276 H 0.36645 0.58723 0.35851 0.0
H277 H 0.68365 0.54755 0.19916 0.0
H278 H 0.63772 0.57241 0.38664 0.0
H279 H 0.41043 0.55237 0.17333 0.0
H280 H 0.67061 0.56354 0.26814 0.0
H281 H 0.38439 0.58283 0.29092 0.0
C282 C 0.43005 0.58329 0.35051 0.0
C283 C 0.50065 0.57944 0.3783 0.0
C284 C 0.61358 0.56121 0.24738 0.0
C285 C 0.52146 0.57408 0.30055 0.0
C286 C 0.62096 0.5523 0.20807 0.0
C287 C 0.5479 0.54864 0.18058 0.0
C288 C 0.53258 0.56657 0.25922 0.0
C289 C 0.4682 0.5542 0.19358 0.0
C290 C 0.44017 0.58075 0.3118 0.0
C291 C 0.58152 0.57528 0.36617 0.0
N292 N 0.46269 0.56292 0.23199 0.0
N293 N 0.58967 0.57221 0.32805 0.0
loop_
_geom_bond_atom_site_label_1
_geom_bond_atom_site_label_2
_geom_bond_distance
_geom_bond_site_symmetry_2
_ccdc_geom_bond_type
O0 Mn1 2.163 1_654 S
O0 C14 1.244 1_554 S
Mn1 O0 2.163 1_456 S
Mn1 O4 2.160 1_545 S
Mn1 O5 2.221 1_556 S
Mn1 O7 2.163 1_556 S
Mn1 O9 2.160 . S
Mn1 O19 2.221 1_445 S
O2 Mn3 2.087 . S
O2 C14 1.256 . S
Mn3 O2 2.087 . S
Mn3 O10 2.089 . S
Mn3 O19 2.290 1_545 S
Mn3 O20 2.251 1_545 S
O4 Mn1 2.160 1_565 S
O4 C15 1.239 1_556 S
O5 Mn1 2.221 1_554 S
O5 Mn6 2.290 . S
O5 C16 1.278 . S
Mn6 O5 2.290 . S
Mn6 O8 2.089 1_545 S
Mn6 O11 2.251 . S
Mn6 O12 2.087 . S
O7 Mn1 2.163 1_554 S
O7 C17 1.244 . S
O8 Mn6 2.089 1_565 S
O8 C15 1.256 . S
O9 Mn1 2.160 . S
O9 C18 1.239 . S
O10 Mn3 2.089 . S
O10 C18 1.256 1_655 S
O11 Mn6 2.251 . S
O11 C16 1.241 . S
O12 Mn6 2.087 . S
O12 C17 1.256 . S
C13 O19 1.267 1_554 S
C13 O20 1.236 1_554 S
C14 O0 1.244 1_556 S
C14 O2 1.256 . S
C15 O4 1.239 1_554 S
C15 O8 1.256 . S
C16 O5 1.278 . S
C16 O11 1.241 . S
C17 O7 1.244 . S
C17 O12 1.256 . S
C18 O9 1.239 . S
C18 O10 1.256 1_455 S
O19 Mn1 2.221 1_665 S
O19 Mn3 2.290 1_565 S
O19 C13 1.267 1_556 S
O20 Mn3 2.251 1_565 S
O20 C13 1.236 1_556 S
O21 Mn22 2.163 . S
O21 C35 1.244 . S
Mn22 O21 2.163 . S
Mn22 O25 2.160 . S
Mn22 O26 2.221 . S
Mn22 O28 2.163 . S
Mn22 O30 2.160 . S
Mn22 O40 2.221 . S
O23 Mn24 2.087 . S
O23 C35 1.256 . S
Mn24 O23 2.087 . S
Mn24 O31 2.089 . S
Mn24 O40 2.290 . S
Mn24 O41 2.251 . S
O25 Mn22 2.160 . S
O25 C36 1.239 . S
O26 Mn22 2.221 . S
O26 Mn27 2.290 . S
O26 C37 1.278 . S
Mn27 O26 2.290 . S
Mn27 O29 2.089 . S
Mn27 O32 2.251 . S
Mn27 O33 2.087 . S
O28 Mn22 2.163 . S
O28 C38 1.244 . S
O29 Mn27 2.089 . S
O29 C36 1.256 . S
O30 Mn22 2.160 . S
O30 C39 1.239 . S
O31 Mn24 2.089 . S
O31 C39 1.256 . S
O32 Mn27 2.251 . S
O32 C37 1.241 . S
O33 Mn27 2.087 . S
O33 C38 1.256 . S
C34 O40 1.278 . S
C34 O41 1.241 . S
C35 O21 1.244 . S
C35 O23 1.256 . S
C36 O25 1.239 . S
C36 O29 1.256 . S
C37 O26 1.278 . S
C37 O32 1.241 . S
C38 O28 1.244 . S
C38 O33 1.256 . S
C39 O30 1.239 . S
C39 O31 1.256 . S
O40 Mn22 2.221 . S
O40 Mn24 2.290 . S
O40 C34 1.278 . S
O41 Mn24 2.251 . S
O41 C34 1.241 . S
H42 C45 0.927 1_655 S
H43 C48 0.928 . S
H44 C50 0.930 . S
C45 H42 0.927 1_455 S
C45 C46 1.413 1_455 S
C45 C47 1.359 1_545 S
C46 C45 1.413 1_655 S
C46 C50 1.429 1_655 S
C47 C45 1.359 1_565 S
C47 C48 1.377 . S
C48 H43 0.928 . S
C48 C47 1.377 . S
C48 C49 1.404 . S
C49 C48 1.404 . S
C49 C50 1.391 1_565 S
C50 H44 0.930 . S
C50 C46 1.429 1_455 S
C50 C49 1.391 1_545 S
H51 C54 0.931 . S
H52 C57 0.928 . S
H53 C59 0.930 . S
C54 H51 0.931 . S
C54 C55 1.413 . S
C54 C56 1.360 1_655 S
C55 C54 1.413 . S
C55 C59 1.429 . S
C56 C54 1.360 1_455 S
C56 C57 1.372 . S
C57 H52 0.928 . S
C57 C56 1.372 . S
C57 C58 1.404 . S
C58 C57 1.404 . S
C58 C59 1.391 1_455 S
C59 H53 0.930 . S
C59 C55 1.429 . S
C59 C58 1.391 1_655 S
H60 C63 0.931 . S
H61 C66 0.928 . S
H62 C68 0.930 . S
C63 H60 0.931 . S
C63 C64 1.413 . S
C63 C65 1.360 . S
C64 C63 1.413 . S
C64 C68 1.429 . S
C65 C63 1.360 . S
C65 C66 1.372 . S
C66 H61 0.928 . S
C66 C65 1.372 . S
C66 C67 1.404 . S
C67 C66 1.404 . S
C67 C68 1.391 . S
C68 H62 0.930 . S
C68 C64 1.429 . S
C68 C67 1.391 . S
H69 C72 0.931 . S
H70 C75 0.928 . S
H71 C77 0.930 . S
C72 H69 0.931 . S
C72 C73 1.413 . S
C72 C74 1.360 . S
C73 C72 1.413 . S
C73 C77 1.429 . S
C74 C72 1.360 . S
C74 C75 1.372 . S
C75 H70 0.928 . S
C75 C74 1.372 . S
C75 C76 1.404 . S
C76 C75 1.404 . S
C76 C77 1.391 . S
C77 H71 0.930 . S
C77 C73 1.429 . S
C77 C76 1.391 . S
H78 C84 0.930 . S
H79 C88 0.930 . S
H80 C93 0.929 . S
H81 C91 0.929 . S
H82 C86 0.929 . S
H83 C92 0.929 1_556 S
C84 H78 0.930 . S
C84 C85 1.367 1_556 S
C84 C92 1.378 1_556 S
C85 C84 1.367 1_554 S
C85 C93 1.433 . S
C86 H82 0.929 . S
C86 C88 1.378 . S
C86 C90 1.350 . S
C87 C90 1.463 . S
C87 C92 1.350 . S
C87 N95 1.427 . S
C88 H79 0.930 . S
C88 C86 1.378 . S
C88 C89 1.367 . S
C89 C88 1.367 . S
C89 C91 1.433 . S
C90 C86 1.350 . S
C90 C87 1.463 . S
C90 N94 1.427 . S
C91 H81 0.929 . S
C91 C89 1.433 . S
C91 N94 1.384 . S
C92 H83 0.929 1_554 S
C92 C84 1.378 1_554 S
C92 C87 1.350 . S
C93 H80 0.929 . S
C93 C85 1.433 . S
C93 N95 1.384 . S
N94 C90 1.427 . S
N94 C91 1.384 . S
N95 C87 1.427 . S
N95 C93 1.384 . S
H96 C102 0.930 . S
H97 C106 0.930 . S
H98 C111 0.929 . S
H99 C109 0.929 . S
H100 C104 0.929 . S
H101 C110 0.929 . S
C102 H96 0.930 . S
C102 C103 1.367 1_554 S
C102 C110 1.378 . S
C103 C102 1.367 1_556 S
C103 C111 1.433 . S
C104 H100 0.929 . S
C104 C106 1.378 . S
C104 C108 1.350 . S
C105 C108 1.463 . S
C105 C110 1.350 1_556 S
C105 N113 1.427 . S
C106 H97 0.930 . S
C106 C104 1.378 . S
C106 C107 1.367 . S
C107 C106 1.367 . S
C107 C109 1.433 . S
C108 C104 1.350 . S
C108 C105 1.463 . S
C108 N112 1.427 . S
C109 H99 0.929 . S
C109 C107 1.433 . S
C109 N112 1.384 . S
C110 H101 0.929 . S
C110 C102 1.378 . S
C110 C105 1.350 1_554 S
C111 H98 0.929 . S
C111 C103 1.433 . S
C111 N113 1.384 . S
N112 C108 1.427 . S
N112 C109 1.384 . S
N113 C105 1.427 . S
N113 C111 1.384 . S
H114 C120 0.930 . S
H115 C124 0.930 . S
H116 C129 0.929 . S
H117 C127 0.929 . S
H118 C122 0.929 . S
H119 C128 0.929 . S
C120 H114 0.930 . S
C120 C121 1.367 . S
C120 C128 1.378 . S
C121 C120 1.367 . S
C121 C129 1.433 . S
C122 H118 0.929 . S
C122 C124 1.378 . S
C122 C126 1.350 . S
C123 C126 1.463 . S
C123 C128 1.350 . S
C123 N131 1.427 . S
C124 H115 0.930 . S
C124 C122 1.378 . S
C124 C125 1.367 . S
C125 C124 1.367 . S
C125 C127 1.433 . S
C126 C122 1.350 . S
C126 C123 1.463 . S
C126 N130 1.427 . S
C127 H117 0.929 . S
C127 C125 1.433 . S
C127 N130 1.384 . S
C128 H119 0.929 . S
C128 C120 1.378 . S
C128 C123 1.350 . S
C129 H116 0.929 . S
C129 C121 1.433 . S
C129 N131 1.384 . S
N130 C126 1.427 . S
N130 C127 1.384 . S
N131 C123 1.427 . S
N131 C129 1.384 . S
H132 C138 0.930 . S
H133 C142 0.930 . S
H134 C147 0.929 . S
H135 C145 0.929 . S
H136 C140 0.929 . S
H137 C146 0.929 . S
C138 H132 0.930 . S
C138 C139 1.367 1_554 S
C138 C146 1.378 . S
C139 C138 1.367 1_556 S
C139 C147 1.433 . S
C140 H136 0.929 . S
C140 C142 1.378 . S
C140 C144 1.350 . S
C141 C144 1.463 . S
C141 C146 1.350 1_556 S
C141 N149 1.427 . S
C142 H133 0.930 . S
C142 C140 1.378 . S
C142 C143 1.367 . S
C143 C142 1.367 . S
C143 C145 1.433 . S
C144 C140 1.350 . S
C144 C141 1.463 . S
C144 N148 1.427 . S
C145 H135 0.929 . S
C145 C143 1.433 . S
C145 N148 1.384 . S
C146 H137 0.929 . S
C146 C138 1.378 . S
C146 C141 1.350 1_554 S
C147 H134 0.929 . S
C147 C139 1.433 . S
C147 N149 1.384 . S
N148 C144 1.427 . S
N148 C145 1.384 . S
N149 C141 1.427 . S
N149 C147 1.384 . S
H150 C156 0.930 . S
H151 C160 0.930 1_545 S
H152 C165 0.929 . S
H153 C163 0.929 1_455 S
H154 C158 0.929 . S
H155 C164 0.929 . S
C156 H150 0.930 . S
C156 C157 1.367 . S
C156 C164 1.378 . S
C157 C156 1.367 . S
C157 C165 1.433 . S
C158 H154 0.929 . S
C158 C160 1.378 . S
C158 C162 1.350 . S
C159 C162 1.463 . S
C159 C164 1.350 . S
C159 N167 1.427 . S
C160 H151 0.930 1_565 S
C160 C158 1.378 . S
C160 C161 1.367 . S
C161 C160 1.367 . S
C161 C163 1.433 . S
C162 C158 1.350 . S
C162 C159 1.463 . S
C162 N166 1.427 . S
C163 H153 0.929 1_655 S
C163 C161 1.433 . S
C163 N166 1.384 . S
C164 H155 0.929 . S
C164 C156 1.378 . S
C164 C159 1.350 . S
C165 H152 0.929 . S
C165 C157 1.433 . S
C165 N167 1.384 . S
N166 C162 1.427 . S
N166 C163 1.384 . S
N167 C159 1.427 . S
N167 C165 1.384 . S
H168 C174 0.930 . S
H169 C178 0.930 1_455 S
H170 C183 0.929 . S
H171 C181 0.929 . S
H172 C176 0.929 . S
H173 C182 0.929 . S
C174 H168 0.930 . S
C174 C175 1.367 . S
C174 C182 1.378 . S
C175 C174 1.367 . S
C175 C183 1.433 . S
C176 H172 0.929 . S
C176 C178 1.378 . S
C176 C180 1.350 . S
C177 C180 1.463 . S
C177 C182 1.350 . S
C177 N185 1.427 . S
C178 H169 0.930 1_655 S
C178 C176 1.378 . S
C178 C179 1.367 . S
C179 C178 1.367 . S
C179 C181 1.433 . S
C180 C176 1.350 . S
C180 C177 1.463 . S
C180 N184 1.427 . S
C181 H171 0.929 . S
C181 C179 1.433 . S
C181 N184 1.384 . S
C182 H173 0.929 . S
C182 C174 1.378 . S
C182 C177 1.350 . S
C183 H170 0.929 . S
C183 C175 1.433 . S
C183 N185 1.384 . S
N184 C180 1.427 . S
N184 C181 1.384 . S
N185 C177 1.427 . S
N185 C183 1.384 . S
H186 C192 0.930 . S
H187 C196 0.930 . S
H188 C201 0.929 . S
H189 C199 0.929 . S
H190 C194 0.929 . S
H191 C200 0.929 . S
C192 H186 0.930 . S
C192 C193 1.367 . S
C192 C200 1.378 . S
C193 C192 1.367 . S
C193 C201 1.433 . S
C194 H190 0.929 . S
C194 C196 1.378 . S
C194 C198 1.350 . S
C195 C198 1.463 . S
C195 C200 1.350 . S
C195 N203 1.427 . S
C196 H187 0.930 . S
C196 C194 1.378 . S
C196 C197 1.367 . S
C197 C196 1.367 . S
C197 C199 1.433 . S
C198 C194 1.350 . S
C198 C195 1.463 . S
C198 N202 1.427 . S
C199 H189 0.929 . S
C199 C197 1.433 . S
C199 N202 1.384 . S
C200 H191 0.929 . S
C200 C192 1.378 . S
C200 C195 1.350 . S
C201 H188 0.929 . S
C201 C193 1.433 . S
C201 N203 1.384 . S
N202 C198 1.427 . S
N202 C199 1.384 . S
N203 C195 1.427 . S
N203 C201 1.384 . S
H204 C210 0.930 . S
H205 C214 0.930 . S
H206 C219 0.929 . S
H207 C217 0.929 . S
H208 C212 0.929 . S
H209 C218 0.929 . S
C210 H204 0.930 . S
C210 C211 1.367 . S
C210 C218 1.378 . S
C211 C210 1.367 . S
C211 C219 1.433 . S
C212 H208 0.929 . S
C212 C214 1.378 . S
C212 C216 1.350 . S
C213 C216 1.463 . S
C213 C218 1.350 . S
C213 N221 1.427 . S
C214 H205 0.930 . S
C214 C212 1.378 . S
C214 C215 1.367 . S
C215 C214 1.367 . S
C215 C217 1.433 . S
C216 C212 1.350 . S
C216 C213 1.463 . S
C216 N220 1.427 . S
C217 H207 0.929 . S
C217 C215 1.433 . S
C217 N220 1.384 . S
C218 H209 0.929 . S
C218 C210 1.378 . S
C218 C213 1.350 . S
C219 H206 0.929 . S
C219 C211 1.433 . S
C219 N221 1.384 . S
N220 C216 1.427 . S
N220 C217 1.384 . S
N221 C213 1.427 . S
N221 C219 1.384 . S
H222 C228 0.930 . S
H223 C232 0.930 1_655 S
H224 C237 0.929 1_655 S
H225 C235 0.929 . S
H226 C230 0.929 1_655 S
H227 C236 0.929 . S
C228 H222 0.930 . S
C228 C229 1.367 1_565 S
C228 C236 1.378 . S
C229 C228 1.367 1_545 S
C229 C237 1.433 . S
C230 H226 0.929 1_455 S
C230 C232 1.378 . S
C230 C234 1.350 . S
C231 C234 1.463 . S
C231 C236 1.350 1_545 S
C231 N239 1.427 . S
C232 H223 0.930 1_455 S
C232 C230 1.378 . S
C232 C233 1.367 . S
C233 C232 1.367 . S
C233 C235 1.433 1_545 S
C234 C230 1.350 . S
C234 C231 1.463 . S
C234 N238 1.427 1_545 S
C235 H225 0.929 . S
C235 C233 1.433 1_565 S
C235 N238 1.384 . S
C236 H227 0.929 . S
C236 C228 1.378 . S
C236 C231 1.350 1_565 S
C237 H224 0.929 1_455 S
C237 C229 1.433 . S
C237 N239 1.384 . S
N238 C234 1.427 1_565 S
N238 C235 1.384 . S
N239 C231 1.427 . S
N239 C237 1.384 . S
H240 C246 0.930 . S
H241 C250 0.930 1_565 S
H242 C255 0.943 1_655 S
H243 C253 0.929 . S
H244 C248 0.929 1_565 S
H245 C254 0.929 . S
C246 H240 0.930 . S
C246 C247 1.367 . S
C246 C254 1.378 . S
C247 C246 1.367 . S
C247 C255 1.423 1_545 S
C248 H244 0.929 1_545 S
C248 C250 1.378 . S
C248 C252 1.350 1_655 S
C249 C252 1.463 . S
C249 C254 1.350 . S
C249 N257 1.427 1_455 S
C250 H241 0.930 1_545 S
C250 C248 1.378 . S
C250 C251 1.367 1_655 S
C251 C250 1.367 1_455 S
C251 C253 1.433 . S
C252 C248 1.350 1_455 S
C252 C249 1.463 . S
C252 N256 1.427 . S
C253 H243 0.929 . S
C253 C251 1.433 . S
C253 N256 1.384 . S
C254 H245 0.929 . S
C254 C246 1.378 . S
C254 C249 1.350 . S
C255 H242 0.943 1_455 S
C255 C247 1.423 1_565 S
C255 N257 1.380 1_465 S
N256 C252 1.427 . S
N256 C253 1.384 . S
N257 C249 1.427 1_655 S
N257 C255 1.380 1_645 S
H258 C264 0.930 . S
H259 C268 0.930 . S
H260 C273 0.929 . S
H261 C271 0.929 . S
H262 C266 0.929 . S
H263 C272 0.929 . S
C264 H258 0.930 . S
C264 C265 1.367 . S
C264 C272 1.378 . S
C265 C264 1.367 . S
C265 C273 1.433 . S
C266 H262 0.929 . S
C266 C268 1.378 . S
C266 C270 1.350 . S
C267 C270 1.463 . S
C267 C272 1.350 . S
C267 N275 1.427 . S
C268 H259 0.930 . S
C268 C266 1.378 . S
C268 C269 1.367 . S
C269 C268 1.367 . S
C269 C271 1.433 . S
C270 C266 1.350 . S
C270 C267 1.463 . S
C270 N274 1.427 . S
C271 H261 0.929 . S
C271 C269 1.433 . S
C271 N274 1.384 . S
C272 H263 0.929 . S
C272 C264 1.378 . S
C272 C267 1.350 . S
C273 H260 0.929 . S
C273 C265 1.433 . S
C273 N275 1.384 . S
N274 C270 1.427 . S
N274 C271 1.384 . S
N275 C267 1.427 . S
N275 C273 1.384 . S
H276 C282 0.930 . S
H277 C286 0.930 . S
H278 C291 0.929 . S
H279 C289 0.929 . S
H280 C284 0.929 . S
H281 C290 0.929 . S
C282 H276 0.930 . S
C282 C283 1.367 . S
C282 C290 1.378 . S
C283 C282 1.367 . S
C283 C291 1.433 . S
C284 H280 0.929 . S
C284 C286 1.378 . S
C284 C288 1.350 . S
C285 C288 1.463 . S
C285 C290 1.350 . S
C285 N293 1.427 . S
C286 H277 0.930 . S
C286 C284 1.378 . S
C286 C287 1.367 . S
C287 C286 1.367 . S
C287 C289 1.433 . S
C288 C284 1.350 . S
C288 C285 1.463 . S
C288 N292 1.427 . S
C289 H279 0.929 . S
C289 C287 1.433 . S
C289 N292 1.384 . S
C290 H281 0.929 . S
C290 C282 1.378 . S
C290 C285 1.350 . S
C291 H278 0.929 . S
C291 C283 1.433 . S
C291 N293 1.384 . S
N292 C288 1.427 . S
N292 C289 1.384 . S
N293 C285 1.427 . S
N293 C291 1.384 . S
C89 C73 1.368 . S
C85 C16 1.197 . S
C103 C15 1.434 1_556 S
C107 C64 1.431 . S
C121 C13 1.286 . S
C125 C76 1.416 . S
C139 C14 1.309 . S
C143 C67 1.354 . S
C157 C37 1.174 . S
C161 C55 1.374 1_565 S
C175 C36 1.434 . S
C179 C46 1.431 . S
C197 C58 1.416 . S
C193 C34 1.260 . S
C215 C49 1.352 . S
C211 C35 1.300 . S
C229 C17 1.505 . S
C233 C47 1.549 1_545 S
C247 C18 1.380 . S
C251 C56 1.425 . S
C269 C65 1.551 . S
C265 C38 1.510 . S
C283 C39 1.367 . S
C287 C74 1.426 . S
