# Generated by pormake.
# Topology ctn, (3,4)-cn, num edge types: 1
# Building blocks:
#     Node 0, Type 0, BuildingBlock: ESEHIV_clean_linker_0, # of connection points: 3
#     Node 1, Type 0, BuildingBlock: ESEHIV_clean_linker_0, # of connection points: 3
#     Node 2, Type 0, BuildingBlock: ESEHIV_clean_linker_0, # of connection points: 3
#     Node 3, Type 0, BuildingBlock: ESEHIV_clean_linker_0, # of connection points: 3
#     Node 4, Type 0, BuildingBlock: ESEHIV_clean_linker_0, # of connection points: 3
#     Node 5, Type 0, BuildingBlock: ESEHIV_clean_linker_0, # of connection points: 3
#     Node 6, Type 0, BuildingBlock: ESEHIV_clean_linker_0, # of connection points: 3
#     Node 7, Type 0, BuildingBlock: ESEHIV_clean_linker_0, # of connection points: 3
#     Node 8, Type 0, BuildingBlock: ESEHIV_clean_linker_0, # of connection points: 3
#     Node 9, Type 0, BuildingBlock: ESEHIV_clean_linker_0, # of connection points: 3
#     Node 10, Type 0, BuildingBlock: ESEHIV_clean_linker_0, # of connection points: 3
#     Node 11, Type 0, BuildingBlock: ESEHIV_clean_linker_0, # of connection points: 3
#     Node 12, Type 0, BuildingBlock: ESEHIV_clean_linker_0, # of connection points: 3
#     Node 13, Type 0, BuildingBlock: ESEHIV_clean_linker_0, # of connection points: 3
#     Node 14, Type 0, BuildingBlock: ESEHIV_clean_linker_0, # of connection points: 3
#     Node 15, Type 0, BuildingBlock: ESEHIV_clean_linker_0, # of connection points: 3
#     Node 16, Type 1, BuildingBlock: KUFVIS_clean_sbu_0, # of connection points: 4
#     Node 17, Type 1, BuildingBlock: KUFVIS_clean_sbu_0, # of connection points: 4
#     Node 18, Type 1, BuildingBlock: KUFVIS_clean_sbu_0, # of connection points: 4
#     Node 19, Type 1, BuildingBlock: KUFVIS_clean_sbu_0, # of connection points: 4
#     Node 20, Type 1, BuildingBlock: KUFVIS_clean_sbu_0, # of connection points: 4
#     Node 21, Type 1, BuildingBlock: KUFVIS_clean_sbu_0, # of connection points: 4
#     Node 22, Type 1, BuildingBlock: KUFVIS_clean_sbu_0, # of connection points: 4
#     Node 23, Type 1, BuildingBlock: KUFVIS_clean_sbu_0, # of connection points: 4
#     Node 24, Type 1, BuildingBlock: KUFVIS_clean_sbu_0, # of connection points: 4
#     Node 25, Type 1, BuildingBlock: KUFVIS_clean_sbu_0, # of connection points: 4
#     Node 26, Type 1, BuildingBlock: KUFVIS_clean_sbu_0, # of connection points: 4
#     Node 27, Type 1, BuildingBlock: KUFVIS_clean_sbu_0, # of connection points: 4
#     Edge 28, Type (0, 1), BuildingBlock: UVAHIK_clean_linker_0, # of connection points: 2
#     Edge 29, Type (0, 1), BuildingBlock: UVAHIK_clean_linker_0, # of connection points: 2
#     Edge 30, Type (0, 1), BuildingBlock: UVAHIK_clean_linker_0, # of connection points: 2
#     Edge 31, Type (0, 1), BuildingBlock: UVAHIK_clean_linker_0, # of connection points: 2
#     Edge 32, Type (0, 1), BuildingBlock: UVAHIK_clean_linker_0, # of connection points: 2
#     Edge 33, Type (0, 1), BuildingBlock: UVAHIK_clean_linker_0, # of connection points: 2
#     Edge 34, Type (0, 1), BuildingBlock: UVAHIK_clean_linker_0, # of connection points: 2
#     Edge 35, Type (0, 1), BuildingBlock: UVAHIK_clean_linker_0, # of connection points: 2
#     Edge 36, Type (0, 1), BuildingBlock: UVAHIK_clean_linker_0, # of connection points: 2
#     Edge 37, Type (0, 1), BuildingBlock: UVAHIK_clean_linker_0, # of connection points: 2
#     Edge 38, Type (0, 1), BuildingBlock: UVAHIK_clean_linker_0, # of connection points: 2
#     Edge 39, Type (0, 1), BuildingBlock: UVAHIK_clean_linker_0, # of connection points: 2
#     Edge 40, Type (0, 1), BuildingBlock: UVAHIK_clean_linker_0, # of connection points: 2
#     Edge 41, Type (0, 1), BuildingBlock: UVAHIK_clean_linker_0, # of connection points: 2
#     Edge 42, Type (0, 1), BuildingBlock: UVAHIK_clean_linker_0, # of connection points: 2
#     Edge 43, Type (0, 1), BuildingBlock: UVAHIK_clean_linker_0, # of connection points: 2
#     Edge 44, Type (0, 1), BuildingBlock: UVAHIK_clean_linker_0, # of connection points: 2
#     Edge 45, Type (0, 1), BuildingBlock: UVAHIK_clean_linker_0, # of connection points: 2
#     Edge 46, Type (0, 1), BuildingBlock: UVAHIK_clean_linker_0, # of connection points: 2
#     Edge 47, Type (0, 1), BuildingBlock: UVAHIK_clean_linker_0, # of connection points: 2
#     Edge 48, Type (0, 1), BuildingBlock: UVAHIK_clean_linker_0, # of connection points: 2
#     Edge 49, Type (0, 1), BuildingBlock: UVAHIK_clean_linker_0, # of connection points: 2
#     Edge 50, Type (0, 1), BuildingBlock: UVAHIK_clean_linker_0, # of connection points: 2
#     Edge 51, Type (0, 1), BuildingBlock: UVAHIK_clean_linker_0, # of connection points: 2
#     Edge 52, Type (0, 1), BuildingBlock: UVAHIK_clean_linker_0, # of connection points: 2
#     Edge 53, Type (0, 1), BuildingBlock: UVAHIK_clean_linker_0, # of connection points: 2
#     Edge 54, Type (0, 1), BuildingBlock: UVAHIK_clean_linker_0, # of connection points: 2
#     Edge 55, Type (0, 1), BuildingBlock: UVAHIK_clean_linker_0, # of connection points: 2
#     Edge 56, Type (0, 1), BuildingBlock: UVAHIK_clean_linker_0, # of connection points: 2
#     Edge 57, Type (0, 1), BuildingBlock: UVAHIK_clean_linker_0, # of connection points: 2
#     Edge 58, Type (0, 1), BuildingBlock: UVAHIK_clean_linker_0, # of connection points: 2
#     Edge 59, Type (0, 1), BuildingBlock: UVAHIK_clean_linker_0, # of connection points: 2
#     Edge 60, Type (0, 1), BuildingBlock: UVAHIK_clean_linker_0, # of connection points: 2
#     Edge 61, Type (0, 1), BuildingBlock: UVAHIK_clean_linker_0, # of connection points: 2
#     Edge 62, Type (0, 1), BuildingBlock: UVAHIK_clean_linker_0, # of connection points: 2
#     Edge 63, Type (0, 1), BuildingBlock: UVAHIK_clean_linker_0, # of connection points: 2
#     Edge 64, Type (0, 1), BuildingBlock: UVAHIK_clean_linker_0, # of connection points: 2
#     Edge 65, Type (0, 1), BuildingBlock: UVAHIK_clean_linker_0, # of connection points: 2
#     Edge 66, Type (0, 1), BuildingBlock: UVAHIK_clean_linker_0, # of connection points: 2
#     Edge 67, Type (0, 1), BuildingBlock: UVAHIK_clean_linker_0, # of connection points: 2
#     Edge 68, Type (0, 1), BuildingBlock: UVAHIK_clean_linker_0, # of connection points: 2
#     Edge 69, Type (0, 1), BuildingBlock: UVAHIK_clean_linker_0, # of connection points: 2
#     Edge 70, Type (0, 1), BuildingBlock: UVAHIK_clean_linker_0, # of connection points: 2
#     Edge 71, Type (0, 1), BuildingBlock: UVAHIK_clean_linker_0, # of connection points: 2
#     Edge 72, Type (0, 1), BuildingBlock: UVAHIK_clean_linker_0, # of connection points: 2
#     Edge 73, Type (0, 1), BuildingBlock: UVAHIK_clean_linker_0, # of connection points: 2
#     Edge 74, Type (0, 1), BuildingBlock: UVAHIK_clean_linker_0, # of connection points: 2
#     Edge 75, Type (0, 1), BuildingBlock: UVAHIK_clean_linker_0, # of connection points: 2
# Relax obj value: 0.012
# Max RMSD: 0.062
# Mean RMSD: 0.030
data_MOF--net-ctn--node1-KUFVIS_clean_sbu_0--node2-ESEHIV_clean_linker_0--edge1-UVAHIK_clean_linker_0
_symmetry_space_group_name_H-M    P1
_symmetry_Int_Tables_number       1
_symmetry_cell_setting            triclinic
loop_
_symmetry_equiv_pos_as_xyz
'x, y, z'
_cell_length_a     67.443592
_cell_length_b     67.301117
_cell_length_c     67.543418
_cell_angle_alpha  90.914428
_cell_angle_beta   90.394913
_cell_angle_gamma 91.611527
loop_
_atom_site_label
_atom_site_type_symbol
_atom_site_fract_x
_atom_site_fract_y
_atom_site_fract_z
_atom_type_partial_charge
H0 H 0.01462 0.06278 0.05011 0.0
H1 H 0.05479 0.01807 0.06808 0.0
H2 H 0.06699 0.05208 0.01601 0.0
C3 C 0.02831 0.05502 0.04791 0.0
C4 C 0.04051 0.05981 0.03175 0.0
C5 C 0.03328 0.03991 0.061 0.0
C6 C 0.05059 0.02928 0.05764 0.0
C7 C 0.06273 0.03327 0.04125 0.0
C8 C 0.05762 0.04871 0.02851 0.0
H9 H 0.31812 0.67065 0.21867 0.0
H10 H 0.33776 0.7232 0.18821 0.0
H11 H 0.28479 0.69151 0.16891 0.0
C12 C 0.31624 0.68119 0.20689 0.0
C13 C 0.29986 0.67896 0.19395 0.0
C14 C 0.32994 0.69715 0.20506 0.0
C15 C 0.3272 0.71091 0.18993 0.0
C16 C 0.31109 0.70882 0.17676 0.0
C17 C 0.29757 0.69274 0.17872 0.0
H18 H 0.95797 0.49732 0.0592 0.0
H19 H 0.99129 0.44523 0.04608 0.0
H20 H 0.94736 0.46424 0.00484 0.0
C21 C 0.96156 0.48526 0.04917 0.0
C22 C 0.95099 0.48274 0.0312 0.0
C23 C 0.97629 0.47196 0.05468 0.0
C24 C 0.97995 0.4556 0.04219 0.0
C25 C 0.96943 0.45269 0.02434 0.0
C26 C 0.95525 0.46645 0.01876 0.0
H27 H 0.6708 0.78568 0.19186 0.0
H28 H 0.71817 0.82346 0.17056 0.0
H29 H 0.68332 0.84218 0.22039 0.0
C30 C 0.67946 0.79948 0.19284 0.0
C31 C 0.67523 0.8136 0.20761 0.0
C32 C 0.69457 0.80327 0.1791 0.0
C33 C 0.7059 0.82106 0.18061 0.0
C34 C 0.70227 0.83508 0.19572 0.0
C35 C 0.68649 0.83143 0.2088 0.0
H36 H 0.0071 0.9488 0.46869 0.0
H37 H 0.0434 0.99931 0.45224 0.0
H38 H 0.05752 0.96727 0.5047 0.0
C39 C 0.01957 0.95891 0.47174 0.0
C40 C 0.03176 0.95597 0.48839 0.0
C41 C 0.02348 0.97468 0.45878 0.0
C42 C 0.04001 0.98739 0.4624 0.0
C43 C 0.05242 0.98466 0.47883 0.0
C44 C 0.048 0.9692 0.49193 0.0
H45 H 0.17254 0.72175 0.81546 0.0
H46 H 0.22213 0.69173 0.84009 0.0
H47 H 0.19691 0.67223 0.78405 0.0
C48 C 0.18343 0.71024 0.81442 0.0
C49 C 0.18292 0.69701 0.79814 0.0
C50 C 0.19755 0.70845 0.82959 0.0
C51 C 0.21126 0.69314 0.82836 0.0
C52 C 0.21127 0.67992 0.812 0.0
C53 C 0.19689 0.68194 0.797 0.0
H54 H 0.9514 0.54594 0.49501 0.0
H55 H 0.00597 0.55524 0.46382 0.0
H56 H 0.96764 0.50499 0.44886 0.0
C57 C 0.96193 0.54101 0.48408 0.0
C58 C 0.95776 0.52354 0.47295 0.0
C59 C 0.97923 0.55258 0.48085 0.0
C60 C 0.99233 0.54669 0.46593 0.0
C61 C 0.98813 0.52977 0.45394 0.0
C62 C 0.97091 0.51816 0.45779 0.0
H63 H 0.78847 0.82017 0.83449 0.0
H64 H 0.82404 0.84048 0.7857 0.0
H65 H 0.84297 0.79178 0.82116 0.0
C66 C 0.80172 0.81929 0.82556 0.0
C67 C 0.81546 0.80463 0.82968 0.0
C68 C 0.80478 0.83257 0.80994 0.0
C69 C 0.82172 0.83062 0.79804 0.0
C70 C 0.83549 0.81575 0.80174 0.0
C71 C 0.83242 0.80316 0.81794 0.0
H72 H 0.28871 0.32051 0.33603 0.0
H73 H 0.32199 0.34023 0.2855 0.0
H74 H 0.34367 0.29334 0.32152 0.0
C75 C 0.3018 0.31981 0.32687 0.0
C76 C 0.316 0.30549 0.33082 0.0
C77 C 0.30389 0.33265 0.31072 0.0
C78 C 0.32035 0.33067 0.29816 0.0
C79 C 0.33452 0.31617 0.30165 0.0
C80 C 0.33241 0.30401 0.31828 0.0
H81 H 0.45855 0.99798 0.56032 0.0
H82 H 0.49085 0.94541 0.54685 0.0
H83 H 0.44645 0.96475 0.50619 0.0
C84 C 0.4615 0.98567 0.55034 0.0
C85 C 0.45053 0.98318 0.53259 0.0
C86 C 0.47632 0.97234 0.55541 0.0
C87 C 0.47976 0.95602 0.54285 0.0
C88 C 0.46891 0.95317 0.52521 0.0
C89 C 0.45459 0.96693 0.51998 0.0
H90 H 0.16985 0.28714 0.69176 0.0
H91 H 0.22111 0.32014 0.67189 0.0
H92 H 0.19103 0.33894 0.72461 0.0
C93 C 0.18032 0.29953 0.69377 0.0
C94 C 0.17841 0.31279 0.70992 0.0
C95 C 0.19556 0.30227 0.67996 0.0
C96 C 0.20899 0.31845 0.68224 0.0
C97 C 0.20756 0.3317 0.69842 0.0
C98 C 0.19212 0.32883 0.71206 0.0
H99 H 0.81989 0.16947 0.71756 0.0
H100 H 0.83994 0.22096 0.68555 0.0
H101 H 0.78438 0.19185 0.67014 0.0
C102 C 0.81779 0.18003 0.70585 0.0
C103 C 0.80061 0.17849 0.69394 0.0
C104 C 0.83201 0.1954 0.7031 0.0
C105 C 0.8291 0.20905 0.68787 0.0
C106 C 0.81194 0.20786 0.67602 0.0
C107 C 0.79778 0.19256 0.67911 0.0
H108 H 0.51748 0.5661 0.55149 0.0
H109 H 0.55205 0.51513 0.56433 0.0
H110 H 0.56302 0.54833 0.51143 0.0
C111 C 0.5289 0.55585 0.5474 0.0
C112 C 0.53969 0.55906 0.52999 0.0
C113 C 0.53296 0.53983 0.55977 0.0
C114 C 0.54864 0.52736 0.55479 0.0
C115 C 0.55992 0.53048 0.53759 0.0
C116 C 0.55509 0.54626 0.52516 0.0
H117 H 0.5069 0.45007 0.96781 0.0
H118 H 0.54594 0.49849 0.95183 0.0
H119 H 0.55709 0.46635 0.00508 0.0
C120 C 0.5197 0.45962 0.97127 0.0
C121 C 0.53163 0.4559 0.98793 0.0
C122 C 0.52475 0.47509 0.95838 0.0
C123 C 0.54186 0.48691 0.96213 0.0
C124 C 0.55372 0.48382 0.97891 0.0
C125 C 0.54832 0.46845 0.99183 0.0
H126 H 0.67585 0.22256 0.31436 0.0
H127 H 0.72637 0.19151 0.33595 0.0
H128 H 0.69833 0.17317 0.28105 0.0
C129 C 0.68655 0.21095 0.31262 0.0
C130 C 0.68527 0.19814 0.29601 0.0
C131 C 0.70123 0.20864 0.3272 0.0
C132 C 0.71466 0.19316 0.32507 0.0
C133 C 0.71375 0.18041 0.30842 0.0
C134 C 0.69899 0.18294 0.29397 0.0
H135 H 0.45162 0.04632 0.99479 0.0
H136 H 0.50608 0.05657 0.96351 0.0
H137 H 0.46866 0.00511 0.94938 0.0
C138 C 0.46207 0.04188 0.98354 0.0
C139 C 0.45855 0.02414 0.97279 0.0
C140 C 0.4792 0.05363 0.98024 0.0
C141 C 0.49282 0.0475 0.9659 0.0
C142 C 0.48919 0.0301 0.95437 0.0
C143 C 0.47204 0.01837 0.9582 0.0
Mn144 Mn 0.25271 0.87317 0.00651 0.0
Mn145 Mn 0.24957 0.89105 0.96021 0.0
C146 C 0.23554 0.85531 0.98215 0.0
C147 C 0.26855 0.85459 0.03041 0.0
C148 C 0.2254 0.9066 0.99444 0.0
O149 O 0.27511 0.89412 0.00605 0.0
O150 O 0.27234 0.90431 0.97446 0.0
C151 C 0.28672 0.87507 0.94416 0.0
N152 N 0.26663 0.87644 0.94323 0.0
C153 C 0.26472 0.85479 0.91452 0.0
C154 C 0.28541 0.85327 0.9151 0.0
C155 C 0.29645 0.86343 0.93001 0.0
C156 C 0.25586 0.86673 0.92894 0.0
H157 H 0.29525 0.88275 0.95567 0.0
C158 C 0.28075 0.90481 0.99156 0.0
O159 O 0.25669 0.86868 0.03533 0.0
O160 O 0.27179 0.85185 0.01167 0.0
N161 N 0.22825 0.87924 0.94483 0.0
C162 C 0.20836 0.88142 0.94699 0.0
C163 C 0.19517 0.87177 0.93356 0.0
C164 C 0.20257 0.86004 0.91804 0.0
C165 C 0.22311 0.85816 0.91603 0.0
C166 C 0.23554 0.86829 0.92973 0.0
H167 H 0.20258 0.89034 0.95894 0.0
O168 O 0.23166 0.85232 0.00068 0.0
O169 O 0.24917 0.86876 0.97853 0.0
O170 O 0.2319 0.89475 0.00736 0.0
O171 O 0.23119 0.9067 0.97647 0.0
C172 C 0.23173 0.8463 0.9012 0.0
C173 C 0.25251 0.84461 0.90046 0.0
H174 H 0.29296 0.84419 0.9043 0.0
H175 H 0.31241 0.86223 0.93062 0.0
H176 H 0.17934 0.87327 0.93523 0.0
H177 H 0.19235 0.85244 0.90785 0.0
H178 H 0.22248 0.8382 0.89047 0.0
H179 H 0.25894 0.83523 0.88916 0.0
Mn180 Mn 0.13626 0.50061 0.25155 0.0
Mn181 Mn 0.11726 0.54651 0.25181 0.0
C182 C 0.15286 0.52651 0.23612 0.0
C183 C 0.15586 0.47636 0.26542 0.0
C184 C 0.10197 0.51318 0.22476 0.0
O185 O 0.11636 0.49913 0.27403 0.0
O186 O 0.10462 0.53017 0.27283 0.0
C187 C 0.13314 0.5605 0.29073 0.0
N188 N 0.13143 0.56288 0.27081 0.0
C189 C 0.15106 0.59329 0.27236 0.0
C190 C 0.15293 0.59123 0.29291 0.0
C191 C 0.14398 0.57473 0.30212 0.0
C192 C 0.14008 0.57864 0.26179 0.0
H193 H 0.12629 0.54784 0.29787 0.0
C194 C 0.10505 0.51276 0.28024 0.0
O195 O 0.14141 0.47168 0.25327 0.0
O196 O 0.1585 0.49505 0.26999 0.0
N197 N 0.12823 0.56401 0.23242 0.0
C198 C 0.12587 0.56326 0.21236 0.0
C199 C 0.1344 0.5784 0.20086 0.0
C200 C 0.14507 0.59424 0.21009 0.0
C201 C 0.1471 0.5948 0.23076 0.0
C202 C 0.13826 0.57931 0.24146 0.0
H203 H 0.11768 0.55113 0.20519 0.0
O204 O 0.15599 0.50824 0.23086 0.0
O205 O 0.14003 0.52907 0.25014 0.0
O206 O 0.11368 0.50004 0.23098 0.0
O207 O 0.10212 0.53101 0.23151 0.0
C208 C 0.15777 0.60998 0.24115 0.0
C209 C 0.15985 0.60918 0.26192 0.0
H210 H 0.16131 0.60215 0.30174 0.0
H211 H 0.14543 0.57299 0.31796 0.0
H212 H 0.13278 0.57785 0.1849 0.0
H213 H 0.15173 0.60583 0.20116 0.0
H214 H 0.1647 0.62221 0.23328 0.0
H215 H 0.16838 0.62077 0.2697 0.0
Mn216 Mn 0.75718 0.62907 0.00432 0.0
Mn217 Mn 0.716 0.64698 0.98288 0.0
C218 C 0.7277 0.61069 0.00459 0.0
C219 C 0.78667 0.61176 0.00308 0.0
C220 C 0.73139 0.66124 0.02289 0.0
O221 O 0.76845 0.65101 0.9868 0.0
O222 O 0.73998 0.66141 0.97321 0.0
C223 C 0.72359 0.63316 0.94188 0.0
N224 N 0.71157 0.63371 0.95797 0.0
C225 C 0.68591 0.61467 0.94077 0.0
C226 C 0.69797 0.61397 0.92396 0.0
C227 C 0.71694 0.62318 0.92455 0.0
C228 C 0.69341 0.62468 0.95765 0.0
H229 H 0.73812 0.64033 0.94226 0.0
C230 C 0.75883 0.66232 0.97545 0.0
O231 O 0.78367 0.62526 0.01657 0.0
O232 O 0.77268 0.60857 0.99001 0.0
N233 N 0.69148 0.63461 0.99072 0.0
C234 C 0.68199 0.63611 0.0084 0.0
C235 C 0.66299 0.62732 0.01045 0.0
C236 C 0.65381 0.61744 0.9942 0.0
C237 C 0.66373 0.61643 0.97605 0.0
C238 C 0.68268 0.62535 0.97494 0.0
H239 H 0.68889 0.64389 0.02086 0.0
O240 O 0.74151 0.60748 0.01753 0.0
O241 O 0.73156 0.62444 0.99175 0.0
O242 O 0.74621 0.64989 0.02356 0.0
O243 O 0.71913 0.66133 0.00842 0.0
C244 C 0.6556 0.60686 0.95904 0.0
C245 C 0.66676 0.60579 0.94147 0.0
H246 H 0.69286 0.60636 0.91055 0.0
H247 H 0.72636 0.62266 0.91166 0.0
H248 H 0.65541 0.62822 0.02449 0.0
H249 H 0.63917 0.61065 0.99583 0.0
H250 H 0.64088 0.60003 0.95938 0.0
H251 H 0.66048 0.59808 0.9286 0.0
Mn252 Mn 0.87493 0.0069 0.25479 0.0
Mn253 Mn 0.8885 0.95913 0.25039 0.0
C254 C 0.8546 0.98362 0.23836 0.0
C255 C 0.85899 0.03271 0.27098 0.0
C256 C 0.90625 0.9923 0.22576 0.0
O257 O 0.89629 0.005 0.27625 0.0
O258 O 0.90308 0.97252 0.27272 0.0
C259 C 0.87233 0.94395 0.28807 0.0
N260 N 0.87318 0.94296 0.26794 0.0
C261 C 0.85084 0.91446 0.26678 0.0
C262 C 0.84978 0.91511 0.28751 0.0
C263 C 0.86052 0.92997 0.29819 0.0
C264 C 0.86279 0.92883 0.25751 0.0
H265 H 0.8806 0.95531 0.29635 0.0
C266 C 0.90542 0.98949 0.28146 0.0
O267 O 0.87319 0.03612 0.25851 0.0
O268 O 0.8547 0.01425 0.27482 0.0
N269 N 0.87518 0.94443 0.22951 0.0
C270 C 0.877 0.94649 0.20956 0.0
C271 C 0.86669 0.93315 0.19672 0.0
C272 C 0.85482 0.91772 0.20452 0.0
C273 C 0.85335 0.91579 0.2251 0.0
C274 C 0.86393 0.92954 0.23716 0.0
H275 H 0.88617 0.95826 0.20348 0.0
O276 O 0.85318 0.00239 0.23468 0.0
O277 O 0.86791 0.97907 0.25136 0.0
O278 O 0.8959 0.00608 0.23314 0.0
O279 O 0.90485 0.97428 0.23133 0.0
C280 C 0.84165 0.90087 0.23412 0.0
C281 C 0.84034 0.90024 0.25495 0.0
H282 H 0.8407 0.90435 0.29536 0.0
H283 H 0.85973 0.93061 0.31418 0.0
H284 H 0.8679 0.93475 0.18086 0.0
H285 H 0.84683 0.9075 0.19458 0.0
H286 H 0.83335 0.88998 0.22518 0.0
H287 H 0.83103 0.88889 0.2617 0.0
Mn288 Mn 0.25649 0.1295 0.5041 0.0
Mn289 Mn 0.21623 0.14769 0.48118 0.0
C290 C 0.22677 0.11151 0.50379 0.0
C291 C 0.28583 0.11189 0.5038 0.0
C292 C 0.2306 0.16221 0.52148 0.0
O293 O 0.26851 0.15117 0.48674 0.0
O294 O 0.24067 0.16163 0.47193 0.0
C295 C 0.22476 0.13305 0.44066 0.0
N296 N 0.21228 0.13408 0.45638 0.0
C297 C 0.18682 0.11515 0.43877 0.0
C298 C 0.19935 0.11396 0.42234 0.0
C299 C 0.21844 0.12287 0.42333 0.0
C300 C 0.194 0.12534 0.45569 0.0
H301 H 0.23939 0.13998 0.44135 0.0
C302 C 0.25944 0.16235 0.47483 0.0
O303 O 0.2826 0.12551 0.51711 0.0
O304 O 0.27215 0.10872 0.4904 0.0
N305 N 0.1913 0.13584 0.48852 0.0
C306 C 0.18133 0.1378 0.50589 0.0
C307 C 0.16214 0.12936 0.50753 0.0
C308 C 0.15326 0.11936 0.49119 0.0
C309 C 0.16368 0.11788 0.47335 0.0
C310 C 0.1828 0.12647 0.47264 0.0
H311 H 0.188 0.14568 0.51841 0.0
O312 O 0.24022 0.10822 0.51709 0.0
O313 O 0.23117 0.12505 0.49087 0.0
O314 O 0.24518 0.15061 0.5228 0.0
O315 O 0.21887 0.16239 0.50658 0.0
C316 C 0.15589 0.10814 0.45628 0.0
C317 C 0.16752 0.10659 0.43907 0.0
H318 H 0.1945 0.10619 0.40892 0.0
H319 H 0.22822 0.12196 0.41073 0.0
H320 H 0.15417 0.13062 0.52132 0.0
H321 H 0.13847 0.11284 0.49251 0.0
H322 H 0.14104 0.10157 0.4563 0.0
H323 H 0.16148 0.09875 0.42615 0.0
Mn324 Mn 0.37573 0.50858 0.7555 0.0
Mn325 Mn 0.39424 0.46246 0.75359 0.0
C326 C 0.35791 0.48283 0.74014 0.0
C327 C 0.35755 0.53342 0.77073 0.0
C328 C 0.40865 0.49583 0.72738 0.0
O329 O 0.39711 0.50981 0.77705 0.0
O330 O 0.40751 0.47821 0.77526 0.0
C331 C 0.37927 0.44767 0.7919 0.0
N332 N 0.3804 0.44578 0.77184 0.0
C333 C 0.36048 0.41555 0.77192 0.0
C334 C 0.3592 0.41711 0.79259 0.0
C335 C 0.36859 0.43327 0.80261 0.0
C336 C 0.37134 0.43034 0.76204 0.0
H337 H 0.38646 0.46008 0.79965 0.0
C338 C 0.40796 0.49576 0.78293 0.0
O339 O 0.37124 0.53754 0.75792 0.0
O340 O 0.35488 0.51486 0.77527 0.0
N341 N 0.38251 0.44562 0.73337 0.0
C342 C 0.3842 0.44694 0.71334 0.0
C343 C 0.37509 0.43225 0.70108 0.0
C344 C 0.36452 0.41628 0.70955 0.0
C345 C 0.36315 0.41514 0.7302 0.0
C346 C 0.37255 0.4302 0.74167 0.0
H347 H 0.39234 0.45917 0.70675 0.0
O348 O 0.35458 0.50112 0.73566 0.0
O349 O 0.37157 0.48017 0.75342 0.0
O350 O 0.39669 0.50873 0.73376 0.0
O351 O 0.40926 0.47821 0.734 0.0
C352 C 0.35257 0.39982 0.73986 0.0
C353 C 0.35116 0.40007 0.7607 0.0
H354 H 0.35092 0.40607 0.80091 0.0
H355 H 0.36759 0.43463 0.81856 0.0
H356 H 0.3762 0.43325 0.68515 0.0
H357 H 0.35741 0.40505 0.70005 0.0
H358 H 0.3452 0.38794 0.73138 0.0
H359 H 0.34269 0.38839 0.76793 0.0
Mn360 Mn 0.75241 0.3729 0.50711 0.0
Mn361 Mn 0.75092 0.38973 0.46028 0.0
C362 C 0.73752 0.35371 0.48229 0.0
C363 C 0.76763 0.35593 0.53258 0.0
C364 C 0.72407 0.4045 0.49276 0.0
O365 O 0.77372 0.395 0.50741 0.0
O366 O 0.77236 0.40421 0.47541 0.0
C367 C 0.78959 0.37525 0.44652 0.0
N368 N 0.76951 0.37571 0.44448 0.0
C369 C 0.77008 0.35388 0.41593 0.0
C370 C 0.79079 0.35329 0.41764 0.0
C371 C 0.80057 0.364 0.43302 0.0
C372 C 0.75994 0.36545 0.42974 0.0
H373 H 0.79717 0.38338 0.45838 0.0
C374 C 0.77977 0.40551 0.49294 0.0
O375 O 0.75462 0.36934 0.53617 0.0
O376 O 0.77241 0.35293 0.51421 0.0
N377 N 0.73095 0.37675 0.44401 0.0
C378 C 0.71086 0.37808 0.44504 0.0
C379 C 0.69883 0.36783 0.43099 0.0
C380 C 0.70757 0.35641 0.41599 0.0
C381 C 0.72828 0.35541 0.41513 0.0
C382 C 0.73952 0.3661 0.42942 0.0
H383 H 0.70406 0.3868 0.45656 0.0
O384 O 0.73285 0.35086 0.50065 0.0
O385 O 0.75069 0.36773 0.47904 0.0
O386 O 0.7304 0.39317 0.5062 0.0
O387 O 0.73096 0.40475 0.4752 0.0
C388 C 0.7382 0.34392 0.40088 0.0
C389 C 0.75908 0.34314 0.4013 0.0
H390 H 0.7993 0.34452 0.40734 0.0
H391 H 0.81654 0.36352 0.4345 0.0
H392 H 0.68285 0.36865 0.43177 0.0
H393 H 0.69823 0.34835 0.4053 0.0
H394 H 0.72989 0.3354 0.38972 0.0
H395 H 0.76652 0.33403 0.39044 0.0
Mn396 Mn 0.63673 1.00062 0.75197 0.0
Mn397 Mn 0.61757 0.04644 0.7527 0.0
C398 C 0.65314 0.0267 0.73666 0.0
C399 C 0.65658 0.97639 0.76548 0.0
C400 C 0.60221 0.01326 0.72551 0.0
O401 O 0.61698 0.99888 0.77455 0.0
O402 O 0.60511 0.02989 0.77366 0.0
C403 C 0.63365 0.06017 0.79163 0.0
N404 N 0.63183 0.06269 0.77174 0.0
C405 C 0.65165 0.09298 0.77336 0.0
C406 C 0.65362 0.09077 0.79388 0.0
C407 C 0.64463 0.07427 0.80304 0.0
C408 C 0.64051 0.07847 0.76276 0.0
H409 H 0.62678 0.04749 0.79873 0.0
C410 C 0.60566 0.01242 0.78093 0.0
O411 O 0.64206 0.9717 0.75341 0.0
O412 O 0.65911 0.99505 0.7702 0.0
N413 N 0.6284 0.0641 0.73337 0.0
C414 C 0.62591 0.06351 0.71333 0.0
C415 C 0.63444 0.07869 0.70187 0.0
C416 C 0.64527 0.0944 0.71114 0.0
C417 C 0.64745 0.09479 0.73181 0.0
C418 C 0.63857 0.07929 0.74246 0.0
H419 H 0.6176 0.05147 0.70612 0.0
O420 O 0.6563 0.00849 0.73121 0.0
O421 O 0.64037 0.02909 0.75076 0.0
O422 O 0.61402 1.00012 0.73156 0.0
O423 O 0.60234 0.03105 0.73237 0.0
C424 C 0.65833 0.10982 0.74222 0.0
C425 C 0.66051 0.10886 0.76297 0.0
H426 H 0.66213 0.10159 0.80273 0.0
H427 H 0.64616 0.07242 0.81886 0.0
H428 H 0.6327 0.07826 0.68593 0.0
H429 H 0.65196 0.106 0.70225 0.0
H430 H 0.66533 0.12202 0.73438 0.0
H431 H 0.66918 0.12034 0.77077 0.0
Mn432 Mn 0.00434 0.25047 0.87167 0.0
Mn433 Mn 0.95722 0.24481 0.88765 0.0
C434 C 0.98095 0.23334 0.85244 0.0
C435 C 0.02904 0.2679 0.85471 0.0
C436 C 0.99112 0.22095 0.90339 0.0
O437 O 0.00264 0.27192 0.8932 0.0
O438 O 0.97062 0.26744 0.90216 0.0
C439 C 0.94134 0.28231 0.87262 0.0
N440 N 0.94062 0.26208 0.87318 0.0
C441 C 0.91285 0.26032 0.85059 0.0
C442 C 0.91321 0.28114 0.84989 0.0
C443 C 0.92754 0.29217 0.86093 0.0
C444 C 0.92689 0.25132 0.86262 0.0
H445 H 0.95241 0.29085 0.88099 0.0
C446 C 0.98757 0.27651 0.90351 0.0
O447 O 0.03334 0.2555 0.86853 0.0
O448 O 0.01038 0.27076 0.85133 0.0
N449 N 0.94262 0.22356 0.87457 0.0
C450 C 0.94496 0.20359 0.87604 0.0
C451 C 0.93211 0.19043 0.86547 0.0
C452 C 0.91699 0.19792 0.85356 0.0
C453 C 0.91478 0.21852 0.8524 0.0
C454 C 0.92789 0.23091 0.86343 0.0
H455 H 0.95661 0.19775 0.88511 0.0
O456 O 0.99969 0.2302 0.85003 0.0
O457 O 0.97655 0.24622 0.86613 0.0
O458 O 0.00447 0.2286 0.89237 0.0
O459 O 0.97304 0.22612 0.9031 0.0
C460 C 0.90033 0.22726 0.84043 0.0
C461 C 0.89937 0.24814 0.83951 0.0
H462 H 0.90268 0.2888 0.84078 0.0
H463 H 0.92798 0.30824 0.86038 0.0
H464 H 0.93394 0.17455 0.86641 0.0
H465 H 0.90726 0.18773 0.84524 0.0
H466 H 0.89007 0.21805 0.83164 0.0
H467 H 0.88838 0.25468 0.83005 0.0
Mn468 Mn 0.50441 0.75133 0.37237 0.0
Mn469 Mn 0.457 0.74654 0.38773 0.0
C470 C 0.48083 0.73495 0.35273 0.0
C471 C 0.52995 0.76783 0.35574 0.0
C472 C 0.49001 0.72157 0.40347 0.0
O473 O 0.50305 0.77276 0.39391 0.0
O474 O 0.47104 0.76835 0.40293 0.0
C475 C 0.44263 0.78504 0.37361 0.0
N476 N 0.44115 0.76482 0.37366 0.0
C477 C 0.4134 0.76466 0.35106 0.0
C478 C 0.41454 0.78549 0.35087 0.0
C479 C 0.42924 0.79572 0.36218 0.0
C480 C 0.42707 0.75483 0.36282 0.0
H481 H 0.45397 0.79297 0.38219 0.0
C482 C 0.48807 0.77725 0.40439 0.0
O483 O 0.53354 0.75524 0.36957 0.0
O484 O 0.51149 0.77156 0.35219 0.0
N485 N 0.44172 0.72616 0.37403 0.0
C486 C 0.44322 0.70605 0.37508 0.0
C487 C 0.42987 0.69364 0.36427 0.0
C488 C 0.41506 0.70201 0.35257 0.0
C489 C 0.41369 0.72273 0.35187 0.0
C490 C 0.42729 0.73436 0.36312 0.0
H491 H 0.45461 0.69954 0.38399 0.0
O492 O 0.49948 0.73125 0.35062 0.0
O493 O 0.47657 0.7479 0.36641 0.0
O494 O 0.50371 0.72952 0.3931 0.0
O495 O 0.47197 0.72679 0.40265 0.0
C496 C 0.3996 0.73231 0.34016 0.0
C497 C 0.39947 0.75326 0.33973 0.0
H498 H 0.40432 0.79378 0.34198 0.0
H499 H 0.43029 0.81179 0.36203 0.0
H500 H 0.43104 0.67766 0.36487 0.0
H501 H 0.40492 0.69238 0.34409 0.0
H502 H 0.38898 0.72371 0.3312 0.0
H503 H 0.38874 0.76045 0.33046 0.0
Mn504 Mn 0.00677 0.7536 0.62716 0.0
Mn505 Mn 0.98499 0.7109 0.64297 0.0
C506 C 0.00657 0.72526 0.60723 0.0
C507 C 0.00601 0.78421 0.61152 0.0
C508 C 0.0254 0.72585 0.65728 0.0
O509 O 0.98962 0.76326 0.64994 0.0
O510 O 0.97543 0.73399 0.65848 0.0
C511 C 0.94391 0.71875 0.6302 0.0
N512 N 0.95995 0.7069 0.62993 0.0
C513 C 0.94237 0.68201 0.61019 0.0
C514 C 0.92562 0.69389 0.61031 0.0
C515 C 0.92643 0.71239 0.62028 0.0
C516 C 0.95942 0.68922 0.62015 0.0
H517 H 0.94444 0.73291 0.63797 0.0
C518 C 0.97782 0.75286 0.66056 0.0
O519 O 0.01958 0.78032 0.62448 0.0
O520 O 0.99245 0.77049 0.60802 0.0
N521 N 0.99259 0.68718 0.62939 0.0
C522 C 0.01022 0.67779 0.63018 0.0
C523 C 0.01202 0.65926 0.62062 0.0
C524 C 0.99559 0.65038 0.61069 0.0
C525 C 0.97751 0.66016 0.6104 0.0
C526 C 0.97664 0.67867 0.62006 0.0
H527 H 0.02283 0.68444 0.63798 0.0
O528 O 0.01964 0.73947 0.6046 0.0
O529 O 0.99384 0.72808 0.6213 0.0
O530 O 0.02599 0.7415 0.64689 0.0
O531 O 0.01078 0.71338 0.65696 0.0
C532 C 0.96032 0.65229 0.60086 0.0
C533 C 0.94282 0.6633 0.60056 0.0
H534 H 0.91208 0.689 0.60276 0.0
H535 H 0.91359 0.72167 0.6204 0.0
H536 H 0.02602 0.65179 0.62096 0.0
H537 H 0.99704 0.63609 0.60332 0.0
H538 H 0.96047 0.63789 0.59348 0.0
H539 H 0.92981 0.65724 0.59287 0.0
Mn540 Mn 0.50621 0.25425 0.12718 0.0
Mn541 Mn 0.48521 0.21137 0.14343 0.0
C542 C 0.50645 0.22574 0.10753 0.0
C543 C 0.50484 0.28465 0.11121 0.0
C544 C 0.52533 0.22726 0.15766 0.0
O545 O 0.48888 0.2638 0.14986 0.0
O546 O 0.47507 0.23441 0.15862 0.0
C547 C 0.44398 0.21813 0.13039 0.0
N548 N 0.4603 0.20667 0.13029 0.0
C549 C 0.44347 0.18134 0.11047 0.0
C550 C 0.42643 0.19282 0.11041 0.0
C551 C 0.42673 0.21133 0.12034 0.0
C552 C 0.46027 0.18896 0.12058 0.0
H553 H 0.44412 0.23231 0.1381 0.0
C554 C 0.47717 0.25333 0.16052 0.0
O555 O 0.51851 0.28115 0.12419 0.0
O556 O 0.49153 0.27065 0.10787 0.0
N557 N 0.49343 0.18773 0.1301 0.0
C558 C 0.51128 0.17878 0.13105 0.0
C559 C 0.5136 0.16029 0.12156 0.0
C560 C 0.49746 0.15102 0.1115 0.0
C561 C 0.47914 0.16035 0.11103 0.0
C562 C 0.47775 0.17883 0.12066 0.0
H563 H 0.52368 0.18574 0.13893 0.0
O564 O 0.51929 0.24012 0.10472 0.0
O565 O 0.49373 0.22849 0.12161 0.0
O566 O 0.52568 0.24273 0.14701 0.0
O567 O 0.51089 0.21457 0.15752 0.0
C568 C 0.46223 0.15209 0.1013 0.0
C569 C 0.44446 0.16266 0.10085 0.0
H570 H 0.41307 0.18759 0.10274 0.0
H571 H 0.41366 0.2203 0.12032 0.0
H572 H 0.52777 0.15316 0.12204 0.0
H573 H 0.49931 0.13677 0.10416 0.0
H574 H 0.46281 0.13773 0.09389 0.0
H575 H 0.43166 0.1563 0.09302 0.0
C576 C 0.19669 0.74337 0.8431 0.0
C577 C 0.19839 0.72292 0.84644 0.0
C578 C 0.19855 0.75712 0.85877 0.0
C579 C 0.22089 0.76271 0.90841 0.0
H580 H 0.18964 0.81017 0.91152 0.0
C581 C 0.24429 0.83041 0.95661 0.0
C582 C 0.22958 0.84012 0.96729 0.0
C583 C 0.23914 0.81552 0.9428 0.0
C584 C 0.19833 0.79688 0.91096 0.0
H585 H 0.20254 0.70081 0.86897 0.0
H586 H 0.20577 0.7248 0.89636 0.0
H587 H 0.18226 0.78506 0.88574 0.0
H588 H 0.19814 0.84126 0.97308 0.0
H589 H 0.18891 0.81517 0.94854 0.0
H590 H 0.23695 0.77448 0.93358 0.0
C591 C 0.20334 0.73023 0.88156 0.0
C592 C 0.19425 0.7826 0.89609 0.0
C593 C 0.2015 0.71649 0.86588 0.0
C594 C 0.20964 0.8342 0.9646 0.0
C595 C 0.20441 0.81938 0.95058 0.0
C596 C 0.22498 0.77697 0.92321 0.0
C597 C 0.20214 0.75073 0.87815 0.0
C598 C 0.2056 0.76543 0.89455 0.0
C599 C 0.21914 0.80992 0.93953 0.0
C600 C 0.21388 0.79429 0.92453 0.0
H601 H 0.19453 0.74882 0.82826 0.0
H602 H 0.19783 0.7728 0.85559 0.0
H603 H 0.23008 0.74979 0.90753 0.0
H604 H 0.25982 0.8344 0.95891 0.0
H605 H 0.25081 0.80864 0.93442 0.0
C606 C 0.01106 0.5398 0.42629 0.0
C607 C 0.0014 0.52464 0.43706 0.0
C608 C 0.02309 0.5352 0.41021 0.0
C609 C 0.02833 0.50192 0.36969 0.0
H610 H 0.08371 0.51913 0.36822 0.0
C611 C 0.07391 0.51796 0.29911 0.0
C612 C 0.09236 0.50889 0.29756 0.0
C613 C 0.0627 0.51613 0.31633 0.0
C614 C 0.06833 0.51405 0.36854 0.0
H615 H 0.99736 0.49257 0.43922 0.0
H616 H 0.01752 0.48476 0.41033 0.0
H617 H 0.06465 0.52367 0.39871 0.0
H618 H 0.11344 0.49055 0.3126 0.0
H619 H 0.09404 0.48798 0.34316 0.0
H620 H 0.03168 0.49343 0.33914 0.0
C621 C 0.01583 0.50016 0.41473 0.0
C622 C 0.05746 0.51672 0.38588 0.0
C623 C 0.00415 0.50472 0.43116 0.0
C624 C 0.09919 0.49755 0.31338 0.0
C625 C 0.08818 0.49615 0.33083 0.0
C626 C 0.03908 0.49968 0.35219 0.0
C627 C 0.02541 0.51538 0.40419 0.0
C628 C 0.03734 0.51084 0.38652 0.0
C629 C 0.06994 0.5056 0.33248 0.0
C630 C 0.05911 0.5059 0.35144 0.0
H631 H 0.00901 0.55532 0.42994 0.0
H632 H 0.03018 0.54718 0.40211 0.0
H633 H 0.01278 0.49743 0.36986 0.0
H634 H 0.06831 0.52677 0.28712 0.0
H635 H 0.04875 0.52366 0.31734 0.0
C636 C 0.82633 0.78616 0.85973 0.0
C637 C 0.8116 0.79023 0.84568 0.0
C638 C 0.82245 0.77267 0.87488 0.0
C639 C 0.7803 0.74804 0.90085 0.0
H640 H 0.82055 0.71298 0.92006 0.0
C641 C 0.76302 0.69741 0.96567 0.0
C642 C 0.76952 0.67784 0.9644 0.0
C643 C 0.77061 0.71186 0.95303 0.0
C644 C 0.8091 0.72257 0.91479 0.0
H645 H 0.7816 0.78287 0.83593 0.0
H646 H 0.77495 0.759 0.8619 0.0
H647 H 0.82849 0.73602 0.89353 0.0
H648 H 0.78944 0.65797 0.94956 0.0
H649 H 0.80225 0.68308 0.92668 0.0
H650 H 0.7606 0.73407 0.92119 0.0
C651 C 0.78929 0.76666 0.86175 0.0
C652 C 0.81373 0.73598 0.89972 0.0
C653 C 0.79308 0.78029 0.8468 0.0
C654 C 0.78438 0.67307 0.95086 0.0
C655 C 0.7917 0.68749 0.93782 0.0
C656 C 0.77564 0.73456 0.91568 0.0
C657 C 0.80383 0.76281 0.87614 0.0
C658 C 0.79932 0.74881 0.89249 0.0
C659 C 0.78444 0.70694 0.93837 0.0
C660 C 0.78995 0.72163 0.9229 0.0
H661 H 0.84071 0.7937 0.85921 0.0
H662 H 0.83393 0.77027 0.8858 0.0
H663 H 0.7689 0.75789 0.89597 0.0
H664 H 0.75165 0.7014 0.97615 0.0
H665 H 0.76513 0.72679 0.95438 0.0
C666 C 0.00473 0.99669 0.43595 0.0
C667 C 0.01067 0.97758 0.44112 0.0
C668 C 0.99288 0.99943 0.41918 0.0
C669 C 0.95903 0.97186 0.38427 0.0
H670 H 0.9696 0.01628 0.3496 0.0
C671 C 0.92762 0.973 0.30561 0.0
C672 C 0.91855 0.99039 0.29924 0.0
C673 C 0.93858 0.97295 0.32316 0.0
C674 C 0.96634 0.00395 0.35928 0.0
H675 H 0.00916 0.94641 0.4325 0.0
H676 H 0.98868 0.95114 0.40322 0.0
H677 H 0.98917 0.01309 0.37998 0.0
H678 H 0.91459 0.02162 0.30619 0.0
H679 H 0.93408 0.02151 0.337 0.0
H680 H 0.93654 0.96249 0.36341 0.0
C681 C 0.99277 0.96401 0.41234 0.0
C682 C 0.97752 0.00211 0.37669 0.0
C683 C 0.00454 0.96128 0.42912 0.0
C684 C 0.92134 0.00796 0.31064 0.0
C685 C 0.93251 0.00792 0.32825 0.0
C686 C 0.94799 0.97364 0.36687 0.0
C687 C 0.98674 0.98311 0.40716 0.0
C688 C 0.97419 0.98586 0.38924 0.0
C689 C 0.9409 0.99028 0.33485 0.0
C690 C 0.95172 0.98951 0.35403 0.0
H691 H 0.00905 0.00953 0.44502 0.0
H692 H 0.98831 0.0143 0.41579 0.0
H693 H 0.95571 0.95944 0.39381 0.0
H694 H 0.92597 0.95917 0.29726 0.0
H695 H 0.94519 0.95923 0.32765 0.0
C696 C 0.19927 0.29401 0.64395 0.0
C697 C 0.19808 0.28771 0.6636 0.0
C698 C 0.2023 0.28029 0.62858 0.0
C699 C 0.20138 0.22563 0.61716 0.0
H700 H 0.23211 0.24243 0.57176 0.0
C701 C 0.23279 0.17206 0.55741 0.0
C702 C 0.22711 0.1764 0.53793 0.0
C703 C 0.2291 0.18545 0.57293 0.0
C704 C 0.22347 0.2376 0.58436 0.0
H705 H 0.19935 0.26233 0.68278 0.0
H706 H 0.20554 0.23845 0.65619 0.0
H707 H 0.22609 0.26611 0.59858 0.0
H708 H 0.21346 0.19827 0.51935 0.0
H709 H 0.20761 0.22189 0.54642 0.0
H710 H 0.19955 0.19684 0.60303 0.0
C711 C 0.20342 0.2538 0.65238 0.0
C712 C 0.21984 0.25118 0.59968 0.0
C713 C 0.19998 0.26748 0.66767 0.0
C714 C 0.21791 0.19448 0.53423 0.0
C715 C 0.21464 0.20803 0.54966 0.0
C716 C 0.20538 0.21196 0.602 0.0
C717 C 0.20465 0.26 0.63258 0.0
C718 C 0.20862 0.24544 0.61627 0.0
C719 C 0.2201 0.20358 0.56914 0.0
C720 C 0.21634 0.21787 0.58544 0.0
H721 H 0.19771 0.30956 0.64047 0.0
H722 H 0.20268 0.28565 0.61356 0.0
H723 H 0.19236 0.22067 0.62942 0.0
H724 H 0.23982 0.15821 0.5607 0.0
H725 H 0.23348 0.18177 0.58786 0.0
C726 C 0.52893 0.52835 0.59501 0.0
C727 C 0.52059 0.53599 0.57766 0.0
C728 C 0.51712 0.52427 0.61148 0.0
C729 C 0.46401 0.51729 0.62617 0.0
H730 H 0.48597 0.52284 0.67925 0.0
C731 C 0.41677 0.51589 0.69745 0.0
C732 C 0.42211 0.50132 0.71104 0.0
C733 C 0.42904 0.5204 0.68144 0.0
C734 C 0.47972 0.5212 0.66448 0.0
H735 H 0.49304 0.54529 0.56427 0.0
H736 H 0.47291 0.53955 0.59323 0.0
H737 H 0.50678 0.5307 0.65085 0.0
H738 H 0.4447 0.48044 0.71879 0.0
H739 H 0.46646 0.48886 0.69108 0.0
H740 H 0.43672 0.50854 0.64007 0.0
C741 C 0.48846 0.53603 0.59399 0.0
C742 C 0.49164 0.52554 0.64816 0.0
C743 C 0.50016 0.53972 0.5774 0.0
C744 C 0.44018 0.49168 0.70853 0.0
C745 C 0.45265 0.49653 0.69276 0.0
C746 C 0.45201 0.51337 0.6425 0.0
C747 C 0.49669 0.52805 0.61123 0.0
C748 C 0.48399 0.52359 0.62873 0.0
C749 C 0.44706 0.51076 0.67898 0.0
C750 C 0.45978 0.51521 0.66177 0.0
H751 H 0.54463 0.52556 0.59598 0.0
H752 H 0.52405 0.51788 0.62431 0.0
H753 H 0.45762 0.5151 0.61153 0.0
H754 H 0.4029 0.52348 0.69893 0.0
H755 H 0.42448 0.53147 0.671 0.0
C756 C 0.82268 0.22813 0.64696 0.0
C757 C 0.80829 0.22327 0.66113 0.0
C758 C 0.81922 0.2429 0.63311 0.0
C759 C 0.77831 0.27212 0.61152 0.0
H760 H 0.82169 0.30605 0.59331 0.0
C761 C 0.76538 0.34259 0.5668 0.0
C762 C 0.77512 0.34323 0.54849 0.0
C763 C 0.77062 0.32873 0.58095 0.0
C764 C 0.80948 0.29661 0.59826 0.0
H765 H 0.7793 0.23028 0.67238 0.0
H766 H 0.77349 0.25652 0.64883 0.0
H767 H 0.82822 0.28014 0.61726 0.0
H768 H 0.79864 0.33058 0.53102 0.0
H769 H 0.80814 0.30664 0.5561 0.0
H770 H 0.75954 0.28907 0.59293 0.0
C771 C 0.78716 0.24853 0.64778 0.0
C772 C 0.8132 0.28167 0.61187 0.0
C773 C 0.79049 0.23356 0.66138 0.0
C774 C 0.79086 0.33041 0.545 0.0
C775 C 0.79633 0.31675 0.55933 0.0
C776 C 0.77458 0.28725 0.59822 0.0
C777 C 0.80142 0.25336 0.63336 0.0
C778 C 0.79764 0.26921 0.61871 0.0
C779 C 0.78591 0.31548 0.57722 0.0
C780 C 0.79011 0.29963 0.59147 0.0
H781 H 0.8365 0.22031 0.64645 0.0
H782 H 0.83042 0.24591 0.62206 0.0
H783 H 0.766 0.26257 0.61597 0.0
H784 H 0.75317 0.35224 0.56992 0.0
H785 H 0.76249 0.32814 0.59472 0.0
C786 C 0.50907 0.97402 0.57315 0.0
C787 C 0.48835 0.97547 0.57374 0.0
C788 C 0.52053 0.97712 0.59029 0.0
C789 C 0.51888 0.99992 0.64062 0.0
H790 H 0.56638 0.96978 0.64841 0.0
C791 C 0.57773 0.02281 0.69948 0.0
C792 C 0.58797 0.0079 0.7093 0.0
C793 C 0.56482 0.018 0.68377 0.0
C794 C 0.55303 0.97817 0.64665 0.0
H795 H 0.46332 0.98094 0.59279 0.0
H796 H 0.48324 0.98595 0.62287 0.0
H797 H 0.5451 0.96245 0.61987 0.0
H798 H 0.59227 0.97611 0.71048 0.0
H799 H 0.56935 0.96766 0.68338 0.0
H800 H 0.5265 0.01525 0.6677 0.0
C801 C 0.49073 0.98288 0.60908 0.0
C802 C 0.54096 0.97416 0.63007 0.0
C803 C 0.47929 0.97996 0.59187 0.0
C804 C 0.58473 0.988 0.70318 0.0
C805 C 0.57166 0.98316 0.68755 0.0
C806 C 0.53086 0.00381 0.65728 0.0
C807 C 0.51152 0.98156 0.60851 0.0
C808 C 0.52384 0.98515 0.6267 0.0
C809 C 0.56162 0.99812 0.67754 0.0
C810 C 0.54824 0.99316 0.6604 0.0
H811 H 0.51648 0.97084 0.55933 0.0
H812 H 0.53649 0.97638 0.58915 0.0
H813 H 0.50594 0.00883 0.63847 0.0
H814 H 0.57992 0.03832 0.70367 0.0
H815 H 0.55768 0.02997 0.67622 0.0
C816 C 0.85506 0.21695 0.72397 0.0
C817 C 0.84923 0.19791 0.71688 0.0
C818 C 0.87065 0.21941 0.73755 0.0
C819 C 0.89825 0.19315 0.77571 0.0
H820 H 0.9357 0.23752 0.77052 0.0
C821 C 0.96468 0.20793 0.82978 0.0
C822 C 0.96684 0.22767 0.83656 0.0
C823 C 0.95137 0.20302 0.81435 0.0
C824 C 0.92529 0.22512 0.77222 0.0
H825 H 0.85547 0.16652 0.71833 0.0
H826 H 0.88271 0.17084 0.74224 0.0
H827 H 0.91053 0.23122 0.74496 0.0
H828 H 0.95828 0.25798 0.83179 0.0
H829 H 0.93501 0.24952 0.805 0.0
H830 H 0.9129 0.18731 0.80321 0.0
C831 C 0.87504 0.18383 0.73734 0.0
C832 C 0.91088 0.22152 0.75759 0.0
C833 C 0.85946 0.18137 0.72366 0.0
C834 C 0.95637 0.24256 0.82712 0.0
C835 C 0.94326 0.23773 0.81164 0.0
C836 C 0.9127 0.19678 0.79039 0.0
C837 C 0.88078 0.20289 0.74446 0.0
C838 C 0.897 0.20569 0.75931 0.0
C839 C 0.94051 0.21791 0.80515 0.0
C840 C 0.92618 0.21299 0.78893 0.0
H841 H 0.84724 0.22997 0.71941 0.0
H842 H 0.87446 0.23426 0.74302 0.0
H843 H 0.88764 0.18095 0.77754 0.0
H844 H 0.97301 0.19632 0.83664 0.0
H845 H 0.94971 0.18765 0.80948 0.0
C846 C 0.46997 0.91634 0.52088 0.0
C847 C 0.4721 0.93532 0.5127 0.0
C848 C 0.47278 0.89935 0.5092 0.0
C849 C 0.49861 0.87983 0.46691 0.0
H850 H 0.4554 0.84075 0.46294 0.0
C851 C 0.50048 0.81172 0.41312 0.0
C852 C 0.48976 0.7944 0.41825 0.0
C853 C 0.49958 0.82893 0.42499 0.0
C854 C 0.46783 0.85122 0.46416 0.0
H855 H 0.47912 0.95159 0.48614 0.0
H856 H 0.48464 0.92168 0.46572 0.0
H857 H 0.45149 0.87073 0.48293 0.0
H858 H 0.47076 0.781 0.44034 0.0
H859 H 0.47014 0.81042 0.46165 0.0
H860 H 0.51533 0.86011 0.44882 0.0
C861 C 0.48059 0.92005 0.48111 0.0
C862 C 0.46546 0.86851 0.47549 0.0
C863 C 0.47734 0.93707 0.49271 0.0
C864 C 0.47901 0.79424 0.43595 0.0
C865 C 0.47848 0.81123 0.44804 0.0
C866 C 0.50118 0.8623 0.45588 0.0
C867 C 0.47817 0.90106 0.48925 0.0
C868 C 0.48079 0.88296 0.47695 0.0
C869 C 0.48823 0.82904 0.44245 0.0
C870 C 0.48581 0.84771 0.45436 0.0
H871 H 0.46588 0.91465 0.53625 0.0
H872 H 0.47089 0.88486 0.51579 0.0
H873 H 0.5107 0.89075 0.46797 0.0
H874 H 0.50873 0.81227 0.39943 0.0
H875 H 0.50714 0.84231 0.42001 0.0
C876 C 0.15311 0.32581 0.73376 0.0
C877 C 0.16258 0.30958 0.72492 0.0
C878 C 0.13893 0.32283 0.7485 0.0
C879 C 0.12104 0.28498 0.78427 0.0
H880 H 0.07553 0.31873 0.7878 0.0
C881 C 0.06472 0.27542 0.84716 0.0
C882 C 0.0446 0.27674 0.84203 0.0
C883 C 0.07949 0.28159 0.834 0.0
C884 C 0.08807 0.30906 0.78697 0.0
H885 H 0.16429 0.27742 0.72467 0.0
H886 H 0.13894 0.27219 0.74954 0.0
H887 H 0.0998 0.32422 0.76186 0.0
H888 H 0.02414 0.28615 0.81936 0.0
H889 H 0.04976 0.2963 0.79619 0.0
H890 H 0.10884 0.26915 0.80866 0.0
C891 C 0.14285 0.28729 0.7455 0.0
C892 C 0.10217 0.31239 0.77221 0.0
C893 C 0.15719 0.29028 0.73094 0.0
C894 C 0.03953 0.28504 0.82379 0.0
C895 C 0.05428 0.29095 0.81052 0.0
C896 C 0.10685 0.28151 0.79885 0.0
C897 C 0.13367 0.30353 0.75464 0.0
C898 C 0.11879 0.30031 0.77058 0.0
C899 C 0.07447 0.28895 0.81528 0.0
C900 C 0.0901 0.29343 0.80037 0.0
H901 H 0.15664 0.34087 0.72931 0.0
H902 H 0.13235 0.33573 0.75528 0.0
H903 H 0.13381 0.27559 0.78375 0.0
H904 H 0.06908 0.26922 0.86119 0.0
H905 H 0.09485 0.28027 0.83841 0.0
C906 C 0.54984 0.5873 0.50789 0.0
C907 C 0.53475 0.57576 0.5168 0.0
C908 C 0.54514 0.6031 0.49568 0.0
C909 C 0.50517 0.63767 0.48475 0.0
H910 H 0.53337 0.64556 0.43555 0.0
C911 C 0.48037 0.69424 0.42675 0.0
C912 C 0.49524 0.70521 0.41688 0.0
C913 C 0.48529 0.67858 0.43905 0.0
C914 C 0.52551 0.64373 0.44936 0.0
H915 H 0.50287 0.57158 0.51944 0.0
H916 H 0.49471 0.59921 0.49826 0.0
H917 H 0.54186 0.61802 0.45674 0.0
H918 H 0.52703 0.70836 0.41246 0.0
H919 H 0.53558 0.6813 0.43412 0.0
H920 H 0.48889 0.66343 0.47748 0.0
C921 C 0.51018 0.5962 0.50096 0.0
C922 C 0.53038 0.62792 0.46149 0.0
C923 C 0.51486 0.58037 0.51311 0.0
C924 C 0.51516 0.7002 0.41973 0.0
C925 C 0.52007 0.68458 0.43207 0.0
C926 C 0.50035 0.65352 0.47266 0.0
C927 C 0.52526 0.60778 0.49213 0.0
C928 C 0.52022 0.62468 0.4793 0.0
C929 C 0.5052 0.67352 0.44184 0.0
C930 C 0.51043 0.65673 0.45479 0.0
H931 H 0.56531 0.58433 0.51064 0.0
H932 H 0.5571 0.61189 0.48929 0.0
H933 H 0.49727 0.63576 0.49853 0.0
H934 H 0.46487 0.69757 0.42483 0.0
H935 H 0.47344 0.67021 0.44611 0.0
C936 C 0.8631 0.82858 0.77979 0.0
C937 C 0.85248 0.81252 0.78818 0.0
C938 C 0.87895 0.82519 0.76695 0.0
C939 C 0.91516 0.78734 0.75397 0.0
H940 H 0.91695 0.8112 0.7021 0.0
C941 C 0.95513 0.75103 0.68959 0.0
C942 C 0.96606 0.76272 0.67621 0.0
C943 C 0.94367 0.75982 0.70418 0.0
C944 C 0.9169 0.80472 0.71668 0.0
H945 H 0.84987 0.7803 0.78898 0.0
H946 H 0.87762 0.77452 0.76718 0.0
H947 H 0.89222 0.82187 0.72618 0.0
H948 H 0.97341 0.79302 0.6678 0.0
H949 H 0.95314 0.80847 0.69352 0.0
H950 H 0.93942 0.76988 0.74449 0.0
C951 C 0.87391 0.78971 0.77073 0.0
C952 C 0.90273 0.8108 0.73043 0.0
C953 C 0.85802 0.79306 0.78331 0.0
C954 C 0.96523 0.78356 0.67789 0.0
C955 C 0.95357 0.79242 0.69254 0.0
C956 C 0.9293 0.78134 0.74033 0.0
C957 C 0.8846 0.8057 0.76246 0.0
C958 C 0.90134 0.80167 0.74897 0.0
C959 C 0.94273 0.78059 0.70589 0.0
C960 C 0.9299 0.78946 0.72129 0.0
H961 H 0.85934 0.84376 0.78331 0.0
H962 H 0.88698 0.83779 0.76079 0.0
H963 H 0.91468 0.78034 0.76831 0.0
H964 H 0.95532 0.73494 0.68881 0.0
H965 H 0.93521 0.75025 0.71395 0.0
C966 C 0.00861 0.93195 0.50585 0.0
C967 C 0.02804 0.93872 0.50164 0.0
C968 C 0.00527 0.91541 0.51783 0.0
C969 C 0.03122 0.87185 0.53827 0.0
H970 H 0.98605 0.86898 0.57345 0.0
C971 C 0.02439 0.81471 0.60042 0.0
C972 C 0.00686 0.80292 0.60031 0.0
C973 C 0.02602 0.83151 0.58861 0.0
C974 C 0.99865 0.86958 0.56359 0.0
H975 H 0.05919 0.93311 0.50685 0.0
H976 H 0.05339 0.90531 0.52853 0.0
H977 H 0.99098 0.898 0.55254 0.0
H978 H 0.97702 0.79988 0.5883 0.0
H979 H 0.97973 0.82972 0.56795 0.0
H980 H 0.0392 0.84374 0.54993 0.0
C981 C 0.04066 0.91235 0.52216 0.0
C982 C 0.00146 0.88614 0.55151 0.0
C983 C 0.044 0.92864 0.50996 0.0
C984 C 0.99072 0.80867 0.58865 0.0
C985 C 0.99224 0.82573 0.57707 0.0
C986 C 0.02859 0.85552 0.55057 0.0
C987 C 0.02126 0.90535 0.52613 0.0
C988 C 0.01786 0.88756 0.53874 0.0
C989 C 0.01004 0.83708 0.57669 0.0
C990 C 0.01235 0.85427 0.56339 0.0
H991 H 0.99591 0.93944 0.49997 0.0
H992 H 0.99011 0.9104 0.52033 0.0
H993 H 0.04372 0.87204 0.52829 0.0
H994 H 0.03711 0.81067 0.60921 0.0
H995 H 0.03984 0.84011 0.58869 0.0
C996 C 0.16409 0.71785 0.77445 0.0
C997 C 0.16783 0.69909 0.78228 0.0
C998 C 0.14946 0.71994 0.75994 0.0
C999 C 0.10329 0.69674 0.74106 0.0
H1000 H 0.11298 0.72919 0.69501 0.0
C1001 C 0.04452 0.7033 0.67915 0.0
C1002 C 0.04243 0.72203 0.67056 0.0
C1003 C 0.06037 0.69981 0.69195 0.0
C1004 C 0.10992 0.72027 0.7079 0.0
H1005 H 0.15927 0.66782 0.78105 0.0
H1006 H 0.13356 0.6715 0.75572 0.0
H1007 H 0.13965 0.72445 0.71889 0.0
H1008 H 0.05543 0.75181 0.66879 0.0
H1009 H 0.08271 0.7459 0.69149 0.0
H1010 H 0.07346 0.69295 0.73047 0.0
C1011 C 0.14197 0.68456 0.76082 0.0
C1012 C 0.12525 0.71751 0.72153 0.0
C1013 C 0.15676 0.68243 0.77519 0.0
C1014 C 0.05664 0.73716 0.67503 0.0
C1015 C 0.07238 0.73373 0.68798 0.0
C1016 C 0.0879 0.69965 0.72754 0.0
C1017 C 0.13813 0.70335 0.7531 0.0
C1018 C 0.12207 0.70577 0.73829 0.0
C1019 C 0.07444 0.71502 0.69666 0.0
C1020 C 0.09099 0.71151 0.7108 0.0
H1021 H 0.17251 0.73092 0.77953 0.0
H1022 H 0.14673 0.73463 0.75437 0.0
H1023 H 0.10033 0.68783 0.75398 0.0
H1024 H 0.03395 0.69125 0.67593 0.0
H1025 H 0.06165 0.68512 0.69806 0.0
C1026 C 0.97882 0.57162 0.51319 0.0
C1027 C 0.98338 0.571 0.4929 0.0
C1028 C 0.98184 0.58911 0.52433 0.0
C1029 C 0.00978 0.63665 0.5265 0.0
H1030 H 0.96702 0.65285 0.56059 0.0
C1031 C 0.98611 0.70532 0.583 0.0
C1032 C 0.00438 0.70896 0.59256 0.0
C1033 C 0.98386 0.68983 0.56908 0.0
C1034 C 0.97916 0.64864 0.55123 0.0
H1035 H 0.99495 0.58839 0.46854 0.0
H1036 H 1.00063 0.61882 0.48819 0.0
H1037 H 0.96293 0.62291 0.54036 0.0
H1038 H 0.03501 0.70051 0.59424 0.0
H1039 H 0.03102 0.67277 0.57059 0.0
H1040 H 0.02602 0.6624 0.53736 0.0
C1041 C 0.99471 0.60569 0.49539 0.0
C1042 C 0.97682 0.63135 0.53967 0.0
C1043 C 0.99151 0.58822 0.48417 0.0
C1044 C 0.02069 0.69764 0.58725 0.0
C1045 C 0.0184 0.68191 0.57356 0.0
C1046 C 0.01222 0.65387 0.53827 0.0
C1047 C 0.98968 0.60636 0.51553 0.0
C1048 C 0.99215 0.62507 0.52732 0.0
C1049 C 0.99986 0.67761 0.56447 0.0
C1050 C 0.99701 0.65997 0.551 0.0
H1051 H 0.97294 0.55855 0.52052 0.0
H1052 H 0.97812 0.58911 0.53991 0.0
H1053 H 0.02183 0.63217 0.51706 0.0
H1054 H 0.97352 0.7144 0.58639 0.0
H1055 H 0.96951 0.68738 0.56204 0.0
C1056 C 0.72437 0.86289 0.18298 0.0
C1057 C 0.71598 0.85257 0.19898 0.0
C1058 C 0.73854 0.87823 0.18629 0.0
C1059 C 0.77502 0.8954 0.22419 0.0
H1060 H 0.77754 0.94416 0.19441 0.0
C1061 C 0.82832 0.95918 0.24755 0.0
C1062 C 0.83835 0.96963 0.23271 0.0
C1063 C 0.8128 0.94585 0.2427 0.0
C1064 C 0.77718 0.93052 0.2027 0.0
H1065 H 0.71578 0.85061 0.23105 0.0
H1066 H 0.73972 0.87764 0.23676 0.0
H1067 H 0.75127 0.91926 0.18716 0.0
H1068 H 0.8394 0.97555 0.20137 0.0
H1069 H 0.81257 0.95154 0.19259 0.0
H1070 H 0.80049 0.90652 0.23994 0.0
C1071 C 0.73567 0.87369 0.22163 0.0
C1072 C 0.76211 0.91627 0.19855 0.0
C1073 C 0.72166 0.85835 0.21834 0.0
C1074 C 0.83204 0.9673 0.21298 0.0
C1075 C 0.81661 0.9537 0.20803 0.0
C1076 C 0.78992 0.90961 0.22838 0.0
C1077 C 0.7446 0.88354 0.20566 0.0
C1078 C 0.76077 0.89862 0.20941 0.0
C1079 C 0.80696 0.94262 0.22285 0.0
C1080 C 0.79119 0.92742 0.2178 0.0
H1081 H 0.72017 0.85897 0.16788 0.0
H1082 H 0.74517 0.88549 0.17366 0.0
H1083 H 0.77475 0.88178 0.23252 0.0
H1084 H 0.83254 0.9613 0.26297 0.0
H1085 H 0.80539 0.93808 0.25458 0.0
C1086 C 0.73257 0.15138 0.32062 0.0
C1087 C 0.72883 0.16506 0.30568 0.0
C1088 C 0.747 0.13705 0.31802 0.0
C1089 C 0.77755 0.1133 0.27867 0.0
H1090 H 0.80832 0.09563 0.32348 0.0
C1091 C 0.84759 0.0676 0.26931 0.0
C1092 C 0.84669 0.049 0.27848 0.0
C1093 C 0.83395 0.08211 0.2741 0.0
C1094 C 0.79977 0.10043 0.31089 0.0
H1095 H 0.73749 0.17497 0.27659 0.0
H1096 H 0.76322 0.15067 0.2723 0.0
H1097 H 0.78292 0.12037 0.32859 0.0
H1098 H 0.83153 0.03144 0.30069 0.0
H1099 H 0.80797 0.0572 0.3095 0.0
H1100 H 0.79499 0.09384 0.26095 0.0
C1101 C 0.75458 0.15031 0.28574 0.0
C1102 C 0.7851 0.1145 0.31377 0.0
C1103 C 0.73991 0.16436 0.2882 0.0
C1104 C 0.83257 0.04563 0.29337 0.0
C1105 C 0.81913 0.06033 0.29843 0.0
C1106 C 0.79244 0.09959 0.27577 0.0
C1107 C 0.75828 0.13634 0.30055 0.0
C1108 C 0.77379 0.12116 0.29768 0.0
C1109 C 0.81938 0.07847 0.28843 0.0
C1110 C 0.80369 0.09305 0.29182 0.0
H1111 H 0.72412 0.15161 0.33421 0.0
H1112 H 0.7491 0.12639 0.32962 0.0
H1113 H 0.76888 0.11756 0.26596 0.0
H1114 H 0.85825 0.07066 0.25775 0.0
H1115 H 0.8345 0.09606 0.2663 0.0
C1116 C 0.42173 0.02008 0.97553 0.0
C1117 C 0.44054 0.0118 0.97665 0.0
C1118 C 0.4047 0.00849 0.97929 0.0
C1119 C 0.38697 0.95563 0.98372 0.0
H1120 H 0.34045 0.98049 0.00529 0.0
C1121 C 0.31479 0.91216 0.00535 0.0
C1122 C 0.29844 0.91804 0.99408 0.0
C1123 C 0.33239 0.92372 0.00568 0.0
C1124 C 0.3534 0.97339 0.99936 0.0
H1125 H 0.45651 0.98517 0.98293 0.0
H1126 H 0.42691 0.96507 0.99044 0.0
H1127 H 0.37104 1.00019 0.00135 0.0
H1128 H 0.28727 0.94094 0.97512 0.0
H1129 H 0.31777 0.96148 0.97634 0.0
H1130 H 0.3692 0.92869 0.98228 0.0
C1131 C 0.42509 0.98028 0.98597 0.0
C1132 C 0.3709 0.98468 0.99687 0.0
C1133 C 0.44209 0.99179 0.98179 0.0
C1134 C 0.29968 0.93607 0.98389 0.0
C1135 C 0.31706 0.94783 0.98464 0.0
C1136 C 0.36959 0.94426 0.98663 0.0
C1137 C 0.4061 0.98843 0.9847 0.0
C1138 C 0.38785 0.97607 0.98864 0.0
C1139 C 0.33368 0.94156 0.99519 0.0
C1140 C 0.35259 0.95313 0.99415 0.0
H1141 H 0.4202 0.03546 0.97144 0.0
H1142 H 0.39043 0.01526 0.97764 0.0
H1143 H 0.39949 0.94845 0.97703 0.0
H1144 H 0.31426 0.89825 0.01321 0.0
H1145 H 0.34507 0.91863 0.01391 0.0
C1146 C 0.27925 0.3576 0.3225 0.0
C1147 C 0.28855 0.34767 0.30676 0.0
C1148 C 0.2644 0.37118 0.31889 0.0
C1149 C 0.22933 0.3869 0.27961 0.0
H1150 H 0.22474 0.43324 0.3139 0.0
C1151 C 0.16516 0.44091 0.26993 0.0
C1152 C 0.16961 0.46129 0.27262 0.0
C1153 C 0.17889 0.42675 0.27536 0.0
C1154 C 0.22589 0.42049 0.30403 0.0
H1155 H 0.28935 0.34446 0.27474 0.0
H1156 H 0.26429 0.36884 0.26843 0.0
H1157 H 0.25081 0.4099 0.32001 0.0
H1158 H 0.19184 0.48281 0.28332 0.0
H1159 H 0.216 0.45828 0.29217 0.0
H1160 H 0.20507 0.39801 0.26302 0.0
C1161 C 0.26809 0.36574 0.28365 0.0
C1162 C 0.24071 0.40689 0.30773 0.0
C1163 C 0.28277 0.35196 0.28727 0.0
C1164 C 0.18791 0.4672 0.28119 0.0
C1165 C 0.20175 0.45307 0.28637 0.0
C1166 C 0.21467 0.40063 0.27576 0.0
C1167 C 0.25859 0.37545 0.29941 0.0
C1168 C 0.24268 0.38991 0.29555 0.0
C1169 C 0.19753 0.43264 0.28335 0.0
C1170 C 0.21276 0.41766 0.28789 0.0
H1171 H 0.28347 0.35493 0.33771 0.0
H1172 H 0.25731 0.37812 0.33145 0.0
H1173 H 0.23011 0.37386 0.27008 0.0
H1174 H 0.15111 0.4359 0.26346 0.0
H1175 H 0.1749 0.41117 0.27319 0.0
C1176 C 0.07525 0.00583 0.50046 0.0
C1177 C 0.07054 0.9974 0.4818 0.0
C1178 C 0.09248 0.01766 0.50316 0.0
C1179 C 0.13016 0.04663 0.47488 0.0
H1180 H 0.16057 0.04448 0.52367 0.0
C1181 C 0.20564 0.08802 0.48355 0.0
C1182 C 0.20945 0.09788 0.50166 0.0
C1183 C 0.18933 0.07487 0.48144 0.0
C1184 C 0.15215 0.04541 0.51002 0.0
H1185 H 0.08038 0.99428 0.45148 0.0
H1186 H 0.11058 0.01451 0.45619 0.0
H1187 H 0.13075 0.0235 0.51941 0.0
H1188 H 0.20035 0.10087 0.53216 0.0
H1189 H 0.17135 0.07838 0.52844 0.0
H1190 H 0.15174 0.06803 0.46526 0.0
C1191 C 0.10076 0.01253 0.46866 0.0
C1192 C 0.13501 0.03339 0.50759 0.0
C1193 C 0.08347 0.00088 0.46594 0.0
C1194 C 0.19738 0.09366 0.51795 0.0
C1195 C 0.18091 0.08067 0.51582 0.0
C1196 C 0.14737 0.05845 0.47724 0.0
C1197 C 0.10546 0.02117 0.48728 0.0
C1198 C 0.12375 0.03389 0.48999 0.0
C1199 C 0.17656 0.07126 0.49746 0.0
C1200 C 0.15853 0.05814 0.49488 0.0
H1201 H 0.06546 0.00348 0.51291 0.0
H1202 H 0.09544 0.02431 0.51762 0.0
H1203 H 0.12174 0.04771 0.46125 0.0
H1204 H 0.21525 0.09053 0.471 0.0
H1205 H 0.18676 0.06755 0.46723 0.0
C1206 C 0.77977 0.15785 0.7169 0.0
C1207 C 0.78527 0.16268 0.69749 0.0
C1208 C 0.76515 0.14324 0.7203 0.0
C1209 C 0.73883 0.09992 0.697 0.0
H1210 H 0.70104 0.10893 0.73894 0.0
C1211 C 0.67219 0.04579 0.7113 0.0
C1212 C 0.66732 0.04259 0.73115 0.0
C1213 C 0.68616 0.06067 0.7064 0.0
C1214 C 0.7115 0.1061 0.72722 0.0
H1215 H 0.77985 0.15575 0.66642 0.0
H1216 H 0.754 0.13044 0.67236 0.0
H1217 H 0.726 0.13447 0.73174 0.0
H1218 H 0.67422 0.05095 0.76154 0.0
H1219 H 0.69872 0.07669 0.75315 0.0
H1220 H 0.72432 0.07147 0.69257 0.0
C1221 C 0.76117 0.13785 0.68495 0.0
C1222 C 0.72588 0.12075 0.72314 0.0
C1223 C 0.77583 0.15249 0.68155 0.0
C1224 C 0.67724 0.05372 0.74607 0.0
C1225 C 0.69126 0.06845 0.74124 0.0
C1226 C 0.72437 0.08526 0.70106 0.0
C1227 C 0.7556 0.13312 0.70438 0.0
C1228 C 0.73985 0.11777 0.70812 0.0
C1229 C 0.69578 0.07225 0.72133 0.0
C1230 C 0.71063 0.08811 0.71634 0.0
H1231 H 0.78657 0.16558 0.72951 0.0
H1232 H 0.76141 0.13978 0.73545 0.0
H1233 H 0.74951 0.09705 0.68548 0.0
H1234 H 0.66494 0.03705 0.6996 0.0
H1235 H 0.68922 0.06325 0.69092 0.0
C1236 C 0.41687 0.99037 0.51827 0.0
C1237 C 0.43459 0.99725 0.52755 0.0
C1238 C 0.40164 0.00344 0.51424 0.0
C1239 C 0.38078 0.04979 0.53184 0.0
H1240 H 0.35429 0.05056 0.48075 0.0
C1241 C 0.32023 0.10627 0.51621 0.0
C1242 C 0.30391 0.09995 0.50448 0.0
C1243 C 0.3369 0.09449 0.5178 0.0
C1244 C 0.36131 0.05038 0.4952 0.0
H1245 H 0.45025 0.02361 0.5392 0.0
H1246 H 0.42337 0.04617 0.53278 0.0
H1247 H 0.38177 0.02831 0.48585 0.0
H1248 H 0.2923 0.07641 0.48506 0.0
H1249 H 0.32099 0.05549 0.48838 0.0
H1250 H 0.36004 0.07117 0.54156 0.0
C1251 C 0.42135 0.03061 0.52869 0.0
C1252 C 0.37713 0.03768 0.49806 0.0
C1253 C 0.4367 0.01762 0.53246 0.0
C1254 C 0.30471 0.08174 0.49413 0.0
C1255 C 0.32126 0.06978 0.49596 0.0
C1256 C 0.3648 0.06225 0.52909 0.0
C1257 C 0.40363 0.02364 0.51964 0.0
C1258 C 0.38703 0.03728 0.5164 0.0
C1259 C 0.33754 0.07591 0.50798 0.0
C1260 C 0.35482 0.06278 0.51072 0.0
H1261 H 0.4145 0.97478 0.51456 0.0
H1262 H 0.38804 0.99763 0.50743 0.0
H1263 H 0.38798 0.04958 0.54622 0.0
H1264 H 0.32012 0.12034 0.52423 0.0
H1265 H 0.34927 0.1 0.5268 0.0
C1266 C 0.59393 0.52515 0.52347 0.0
C1267 C 0.57674 0.51735 0.53261 0.0
C1268 C 0.60974 0.51293 0.5189 0.0
C1269 C 0.6346 0.4689 0.5343 0.0
H1270 H 0.65435 0.46549 0.48063 0.0
C1271 C 0.69397 0.41261 0.51247 0.0
C1272 C 0.70755 0.41771 0.4976 0.0
C1273 C 0.67799 0.42475 0.51665 0.0
C1274 C 0.64934 0.4665 0.49579 0.0
H1275 H 0.56284 0.49025 0.54373 0.0
H1276 H 0.5909 0.46926 0.53659 0.0
H1277 H 0.6268 0.48697 0.48816 0.0
H1278 H 0.71532 0.43977 0.47574 0.0
H1279 H 0.68812 0.46146 0.48364 0.0
H1280 H 0.65747 0.44919 0.54229 0.0
C1281 C 0.59192 0.48487 0.53292 0.0
C1282 C 0.63343 0.47872 0.50002 0.0
C1283 C 0.57592 0.49697 0.53712 0.0
C1284 C 0.70499 0.43536 0.48718 0.0
C1285 C 0.68926 0.44773 0.49164 0.0
C1286 C 0.65077 0.457 0.53018 0.0
C1287 C 0.60893 0.49274 0.52373 0.0
C1288 C 0.62586 0.47992 0.51928 0.0
C1289 C 0.67541 0.44254 0.50634 0.0
C1290 C 0.65833 0.45552 0.51083 0.0
H1291 H 0.59537 0.5408 0.52011 0.0
H1292 H 0.6228 0.51936 0.51195 0.0
H1293 H 0.62912 0.46978 0.54932 0.0
H1294 H 0.69541 0.39898 0.5206 0.0
H1295 H 0.66749 0.41993 0.52775 0.0
C1296 C 0.70107 0.24332 0.34138 0.0
C1297 C 0.70296 0.22281 0.34425 0.0
C1298 C 0.70334 0.25677 0.35725 0.0
C1299 C 0.72633 0.26185 0.40674 0.0
H1300 H 0.69371 0.30825 0.41117 0.0
C1301 C 0.71261 0.33195 0.46422 0.0
C1302 C 0.73235 0.33835 0.46733 0.0
C1303 C 0.70801 0.31711 0.45004 0.0
C1304 C 0.7028 0.29526 0.41025 0.0
H1305 H 0.7082 0.20031 0.36615 0.0
H1306 H 0.71212 0.22381 0.39391 0.0
H1307 H 0.68689 0.28362 0.38488 0.0
H1308 H 0.76292 0.33334 0.45965 0.0
H1309 H 0.75501 0.30758 0.43478 0.0
H1310 H 0.74215 0.27341 0.43215 0.0
C1311 C 0.70918 0.2295 0.3793 0.0
C1312 C 0.69904 0.28126 0.39507 0.0
C1313 C 0.70693 0.21604 0.36342 0.0
C1314 C 0.74752 0.329 0.45699 0.0
C1315 C 0.743 0.3141 0.44297 0.0
C1316 C 0.73008 0.27584 0.42188 0.0
C1317 C 0.70755 0.25004 0.37638 0.0
C1318 C 0.71087 0.26447 0.39305 0.0
C1319 C 0.72318 0.30812 0.43918 0.0
C1320 C 0.71847 0.29277 0.42371 0.0
H1321 H 0.69833 0.24904 0.32675 0.0
H1322 H 0.70232 0.2725 0.35441 0.0
H1323 H 0.73586 0.24921 0.40549 0.0
H1324 H 0.70076 0.3387 0.47247 0.0
H1325 H 0.69263 0.31259 0.44766 0.0
C1326 C 0.50566 0.00473 0.93235 0.0
C1327 C 0.50273 0.02475 0.9378 0.0
C1328 C 0.51744 0.99991 0.91607 0.0
C1329 C 0.55891 0.01605 0.88682 0.0
H1330 H 0.53285 0.99246 0.84037 0.0
C1331 C 0.60013 0.99702 0.81402 0.0
C1332 C 0.59311 0.00837 0.7983 0.0
C1333 C 0.58927 0.99549 0.83155 0.0
C1334 C 0.54033 0.99879 0.85334 0.0
H1335 H 0.51014 0.05531 0.93002 0.0
H1336 H 0.53149 0.04672 0.90249 0.0
H1337 H 0.51415 0.99661 0.87119 0.0
H1338 H 0.56886 0.02612 0.7881 0.0
H1339 H 0.54955 0.02279 0.81846 0.0
H1340 H 0.58502 0.01843 0.86897 0.0
C1341 C 0.52447 0.03487 0.91084 0.0
C1342 C 0.5297 0.00111 0.8709 0.0
C1343 C 0.51234 0.03973 0.92676 0.0
C1344 C 0.57461 0.01731 0.80002 0.0
C1345 C 0.56355 0.01535 0.81731 0.0
C1346 C 0.56966 0.0133 0.86942 0.0
C1347 C 0.52693 0.01497 0.90525 0.0
C1348 C 0.5388 0.01017 0.88761 0.0
C1349 C 0.57099 0.00482 0.83337 0.0
C1350 C 0.56034 0.00506 0.85242 0.0
H1351 H 0.49888 0.99272 0.94062 0.0
H1352 H 0.51923 0.98444 0.91199 0.0
H1353 H 0.56616 0.02313 0.89956 0.0
H1354 H 0.61443 0.99012 0.81311 0.0
H1355 H 0.59528 0.98733 0.84381 0.0
C1356 C 0.30567 0.29824 0.36578 0.0
C1357 C 0.31335 0.2916 0.34761 0.0
C1358 C 0.30239 0.28497 0.38121 0.0
C1359 C 0.31567 0.23599 0.40025 0.0
H1360 H 0.26394 0.23727 0.42478 0.0
C1361 C 0.28402 0.17255 0.4492 0.0
C1362 C 0.27066 0.17769 0.46411 0.0
C1363 C 0.29167 0.18716 0.43657 0.0
C1364 C 0.27864 0.2369 0.41845 0.0
H1365 H 0.32372 0.26571 0.33157 0.0
H1366 H 0.31829 0.24271 0.35863 0.0
H1367 H 0.27276 0.26158 0.39996 0.0
H1368 H 0.25564 0.20186 0.47849 0.0
H1369 H 0.26974 0.22752 0.45731 0.0
H1370 H 0.32157 0.21129 0.41882 0.0
C1371 C 0.31497 0.25822 0.36094 0.0
C1372 C 0.28364 0.25084 0.40413 0.0
C1373 C 0.31809 0.27144 0.34544 0.0
C1374 C 0.26593 0.19765 0.46701 0.0
C1375 C 0.27383 0.21226 0.45471 0.0
C1376 C 0.31074 0.22212 0.41478 0.0
C1377 C 0.30686 0.2648 0.37889 0.0
C1378 C 0.30213 0.25048 0.39478 0.0
C1379 C 0.28622 0.20714 0.43885 0.0
C1380 C 0.2921 0.22234 0.42402 0.0
H1381 H 0.30218 0.31371 0.3681 0.0
H1382 H 0.29634 0.29051 0.39498 0.0
H1383 H 0.3301 0.23546 0.39336 0.0
H1384 H 0.28761 0.15714 0.4466 0.0
H1385 H 0.30102 0.18261 0.42445 0.0
C1386 C 0.49231 0.48307 0.9426 0.0
C1387 C 0.51244 0.47879 0.94068 0.0
C1388 C 0.48096 0.48759 0.92592 0.0
C1389 C 0.48616 0.50158 0.87262 0.0
H1390 H 0.43058 0.48532 0.87 0.0
C1391 C 0.43958 0.49006 0.80093 0.0
C1392 C 0.42112 0.4992 0.80024 0.0
C1393 C 0.45103 0.49085 0.81823 0.0
C1394 C 0.44603 0.49017 0.87067 0.0
H1395 H 0.53646 0.47527 0.91998 0.0
H1396 H 0.51658 0.48203 0.89075 0.0
H1397 H 0.44975 0.47907 0.89986 0.0
H1398 H 0.40025 0.51659 0.81692 0.0
H1399 H 0.42011 0.51739 0.8476 0.0
H1400 H 0.48249 0.51151 0.84282 0.0
C1401 C 0.50957 0.48279 0.9051 0.0
C1402 C 0.45706 0.48666 0.88781 0.0
C1403 C 0.52097 0.4787 0.92181 0.0
C1404 C 0.41454 0.50962 0.81703 0.0
C1405 C 0.42579 0.50996 0.83455 0.0
C1406 C 0.47521 0.50468 0.85535 0.0
C1407 C 0.48943 0.48752 0.90689 0.0
C1408 C 0.47736 0.49213 0.88898 0.0
C1409 C 0.444 0.50036 0.83533 0.0
C1410 C 0.4551 0.49888 0.85419 0.0
H1411 H 0.48549 0.48341 0.95707 0.0
H1412 H 0.46565 0.49145 0.92805 0.0
H1413 H 0.50157 0.50652 0.87304 0.0
H1414 H 0.44495 0.4819 0.78818 0.0
H1415 H 0.46497 0.48323 0.81853 0.0
C1416 C 0.69954 0.7939 0.14356 0.0
C1417 C 0.69891 0.78839 0.16348 0.0
C1418 C 0.70354 0.77986 0.12876 0.0
C1419 C 0.70562 0.72504 0.11953 0.0
H1420 H 0.73342 0.74184 0.07232 0.0
C1421 C 0.73523 0.67135 0.05868 0.0
C1422 C 0.72833 0.67537 0.03951 0.0
C1423 C 0.73211 0.68479 0.07431 0.0
C1424 C 0.72563 0.73699 0.08544 0.0
H1425 H 0.70236 0.76411 0.18373 0.0
H1426 H 0.71024 0.73972 0.15808 0.0
H1427 H 0.72761 0.76593 0.09881 0.0
H1428 H 0.71308 0.69673 0.02161 0.0
H1429 H 0.70819 0.72041 0.04881 0.0
H1430 H 0.70433 0.69588 0.10616 0.0
C1431 C 0.70695 0.75467 0.15366 0.0
C1432 C 0.72213 0.7508 0.10059 0.0
C1433 C 0.70256 0.76864 0.16841 0.0
C1434 C 0.71847 0.69317 0.03624 0.0
C1435 C 0.71576 0.70676 0.05174 0.0
C1436 C 0.7095 0.71115 0.10452 0.0
C1437 C 0.70743 0.76004 0.13359 0.0
C1438 C 0.71184 0.7451 0.11776 0.0
C1439 C 0.72248 0.70266 0.07091 0.0
C1440 C 0.71932 0.71707 0.08727 0.0
H1441 H 0.69659 0.80903 0.13941 0.0
H1442 H 0.70329 0.78455 0.11351 0.0
H1443 H 0.69736 0.72007 0.1323 0.0
H1444 H 0.74281 0.65772 0.06165 0.0
H1445 H 0.73745 0.68136 0.089 0.0
C1446 C 0.01656 0.01529 0.0835 0.0
C1447 C 0.02037 0.03514 0.07817 0.0
C1448 C 0.00454 0.0108 0.09969 0.0
C1449 C 0.9655 0.03137 0.13126 0.0
H1450 H 0.98105 0.99059 0.16772 0.0
C1451 C 0.92347 0.01724 0.20405 0.0
C1452 C 0.92016 0.99735 0.20954 0.0
C1453 C 0.93606 0.02196 0.18836 0.0
C1454 C 0.97637 0.00186 0.15756 0.0
H1455 H 0.01465 0.06586 0.08589 0.0
H1456 H 0.99355 0.058 0.11406 0.0
H1457 H 0.00214 0.99857 0.13959 0.0
H1458 H 0.92765 0.96683 0.20276 0.0
H1459 H 0.94938 0.97507 0.17528 0.0
H1460 H 0.93965 0.03457 0.14908 0.0
C1461 C 0.99971 0.0459 0.10556 0.0
C1462 C 0.98847 0.00644 0.14144 0.0
C1463 C 0.01179 0.0504 0.0894 0.0
C1464 C 0.92992 0.98232 0.19905 0.0
C1465 C 0.94246 0.98705 0.18331 0.0
C1466 C 0.95336 0.02675 0.14733 0.0
C1467 C 0.99598 0.02605 0.11091 0.0
C1468 C 0.98317 0.02125 0.1281 0.0
C1469 C 0.94562 0.00692 0.17771 0.0
C1470 C 0.95864 0.01193 0.16069 0.0
H1471 H 0.02265 0.00316 0.07498 0.0
H1472 H 0.00171 0.99534 0.10324 0.0
H1473 H 0.96085 0.04265 0.12109 0.0
H1474 H 0.91631 0.02923 0.21184 0.0
H1475 H 0.9384 0.03744 0.18466 0.0
C1476 C 0.30517 0.71827 0.14152 0.0
C1477 C 0.30802 0.72394 0.16143 0.0
C1478 C 0.30248 0.73263 0.12709 0.0
C1479 C 0.30807 0.78734 0.11866 0.0
H1480 H 0.27282 0.77503 0.07429 0.0
C1481 C 0.2754 0.84557 0.06562 0.0
C1482 C 0.27652 0.84101 0.04529 0.0
C1483 C 0.28109 0.83173 0.07967 0.0
C1484 C 0.28283 0.7786 0.08653 0.0
H1485 H 0.30987 0.7489 0.18203 0.0
H1486 H 0.30434 0.77394 0.15711 0.0
H1487 H 0.27843 0.74993 0.09911 0.0
H1488 H 0.28489 0.81858 0.02372 0.0
H1489 H 0.29442 0.79431 0.04829 0.0
H1490 H 0.31167 0.81639 0.10628 0.0
C1491 C 0.30489 0.75853 0.15236 0.0
C1492 C 0.28616 0.76419 0.10074 0.0
C1493 C 0.30793 0.74419 0.16671 0.0
C1494 C 0.28391 0.82256 0.03928 0.0
C1495 C 0.28925 0.80862 0.05331 0.0
C1496 C 0.30444 0.80187 0.10461 0.0
C1497 C 0.3022 0.75299 0.13231 0.0
C1498 C 0.29885 0.76833 0.11701 0.0
C1499 C 0.28765 0.81298 0.07362 0.0
C1500 C 0.29183 0.7976 0.0884 0.0
H1501 H 0.30536 0.70273 0.13709 0.0
H1502 H 0.30085 0.72775 0.1118 0.0
H1503 H 0.31825 0.79103 0.13071 0.0
H1504 H 0.26976 0.85967 0.07068 0.0
H1505 H 0.27965 0.8354 0.09526 0.0
C1506 C 0.99362 0.45915 0.08494 0.0
C1507 C 0.98792 0.47527 0.07336 0.0
C1508 C 0.00504 0.4623 0.10213 0.0
C1509 C 0.01851 0.50005 0.1401 0.0
H1510 H 0.0656 0.46926 0.14783 0.0
C1511 C 0.07772 0.5227 0.19852 0.0
C1512 C 0.0878 0.50778 0.2085 0.0
C1513 C 0.06479 0.51786 0.18283 0.0
C1514 C 0.05233 0.47777 0.14612 0.0
H1515 H 0.98997 0.50739 0.07091 0.0
H1516 H 0.00942 0.51285 0.10112 0.0
H1517 H 0.04416 0.4623 0.11916 0.0
H1518 H 0.09186 0.47597 0.20993 0.0
H1519 H 0.06889 0.46748 0.18285 0.0
H1520 H 0.02642 0.51541 0.16706 0.0
C1521 C 0.00495 0.49778 0.09689 0.0
C1522 C 0.04009 0.4738 0.12964 0.0
C1523 C 0.99373 0.49463 0.0796 0.0
C1524 C 0.08443 0.48785 0.20252 0.0
C1525 C 0.07133 0.48299 0.1869 0.0
C1526 C 0.03061 0.50388 0.15667 0.0
C1527 C 0.01082 0.48166 0.10828 0.0
C1528 C 0.0232 0.48509 0.12633 0.0
C1529 C 0.0614 0.49796 0.17679 0.0
C1530 C 0.04785 0.49299 0.15977 0.0
H1531 H 0.98913 0.44406 0.08084 0.0
H1532 H 0.00917 0.44961 0.11075 0.0
H1533 H 0.00542 0.50878 0.13807 0.0
H1534 H 0.08003 0.53823 0.20259 0.0
H1535 H 0.05776 0.52984 0.17519 0.0
C1536 C 0.35206 0.7189 0.22677 0.0
C1537 C 0.34672 0.69985 0.21934 0.0
C1538 C 0.36769 0.72153 0.2403 0.0
C1539 C 0.39676 0.69545 0.27748 0.0
H1540 H 0.43365 0.74015 0.27145 0.0
C1541 C 0.46433 0.70985 0.32992 0.0
C1542 C 0.46675 0.72955 0.33675 0.0
C1543 C 0.45077 0.70512 0.31464 0.0
C1544 C 0.4234 0.72767 0.27341 0.0
H1545 H 0.35378 0.66862 0.22024 0.0
H1546 H 0.38101 0.67323 0.24408 0.0
H1547 H 0.40762 0.73393 0.24676 0.0
H1548 H 0.45854 0.75998 0.33211 0.0
H1549 H 0.4348 0.75185 0.30565 0.0
H1550 H 0.41239 0.68943 0.30436 0.0
C1551 C 0.37296 0.68609 0.23948 0.0
C1552 C 0.40849 0.72412 0.25927 0.0
C1553 C 0.35736 0.68346 0.22586 0.0
C1554 C 0.45641 0.74459 0.32741 0.0
C1555 C 0.44304 0.73995 0.31211 0.0
C1556 C 0.41168 0.69904 0.29168 0.0
C1557 C 0.37832 0.70517 0.2468 0.0
C1558 C 0.39484 0.70813 0.26127 0.0
C1559 C 0.43989 0.72014 0.30567 0.0
C1560 C 0.425 0.71535 0.28992 0.0
H1561 H 0.34394 0.73179 0.2224 0.0
H1562 H 0.37123 0.73637 0.24594 0.0
H1563 H 0.38634 0.68312 0.27951 0.0
H1564 H 0.47256 0.69812 0.33668 0.0
H1565 H 0.44886 0.68977 0.3098 0.0
C1566 C 0.97798 0.43655 0.99187 0.0
C1567 C 0.97286 0.43483 0.01191 0.0
C1568 C 0.98117 0.41951 0.98027 0.0
C1569 C 0.96572 0.36813 0.97469 0.0
H1570 H 0.01528 0.35935 0.94758 0.0
C1571 C 0.97838 0.29379 0.93488 0.0
C1572 C 0.98915 0.29382 0.91719 0.0
C1573 C 0.97797 0.31081 0.94694 0.0
C1574 C 0.00122 0.36165 0.95476 0.0
H1575 H 0.96687 0.41418 0.03553 0.0
H1576 H 0.9718 0.38436 0.01507 0.0
H1577 H 0.0111 0.38998 0.96689 0.0
H1578 H 0.00823 0.31153 0.89832 0.0
H1579 H 0.00682 0.34164 0.91883 0.0
H1580 H 0.95529 0.34052 0.9621 0.0
C1581 C 0.97364 0.39886 0.00845 0.0
C1582 C 0.99891 0.37917 0.96589 0.0
C1583 C 0.97088 0.41585 0.02013 0.0
C1584 C 0.99995 0.31107 0.91201 0.0
C1585 C 0.99916 0.32832 0.92384 0.0
C1586 C 0.96784 0.35087 0.96326 0.0
C1587 C 0.97883 0.40054 0.98845 0.0
C1588 C 0.98121 0.38243 0.97609 0.0
C1589 C 0.98786 0.32853 0.94132 0.0
C1590 C 0.9857 0.34721 0.9533 0.0
H1591 H 0.97964 0.45105 0.98525 0.0
H1592 H 0.98507 0.42113 0.96484 0.0
H1593 H 0.95184 0.37046 0.98225 0.0
H1594 H 0.97009 0.2806 0.93933 0.0
H1595 H 0.96966 0.31006 0.96057 0.0
C1596 C 0.64509 0.82323 0.22656 0.0
C1597 C 0.65975 0.80938 0.22251 0.0
C1598 C 0.63096 0.81954 0.2412 0.0
C1599 C 0.60981 0.77878 0.27221 0.0
H1600 H 0.59057 0.82269 0.30391 0.0
C1601 C 0.56457 0.76679 0.34303 0.0
C1602 C 0.54599 0.77573 0.34304 0.0
C1603 C 0.57884 0.7721 0.32905 0.0
C1604 C 0.59581 0.81033 0.29511 0.0
H1605 H 0.67146 0.78103 0.23069 0.0
H1606 H 0.64738 0.77483 0.25673 0.0
H1607 H 0.61466 0.82918 0.27779 0.0
H1608 H 0.52817 0.798 0.32914 0.0
H1609 H 0.55346 0.80769 0.30499 0.0
H1610 H 0.59138 0.75994 0.29006 0.0
C1611 C 0.64621 0.78825 0.24823 0.0
C1612 C 0.6095 0.81401 0.28003 0.0
C1613 C 0.66009 0.7918 0.23335 0.0
C1614 C 0.54236 0.79085 0.32947 0.0
C1615 C 0.5568 0.79641 0.31569 0.0
C1616 C 0.59643 0.7751 0.28749 0.0
C1617 C 0.63142 0.80206 0.25237 0.0
C1618 C 0.61669 0.79827 0.26835 0.0
C1619 C 0.57495 0.7867 0.31504 0.0
C1620 C 0.58932 0.79083 0.29906 0.0
H1621 H 0.64448 0.83687 0.21828 0.0
H1622 H 0.61961 0.83036 0.24364 0.0
H1623 H 0.61456 0.76631 0.2633 0.0
H1624 H 0.56781 0.75506 0.35326 0.0
H1625 H 0.59281 0.76453 0.32894 0.0
C1626 C 0.02636 0.09353 0.02591 0.0
C1627 C 0.03539 0.07642 0.01837 0.0
C1628 C 0.02155 0.1091 0.01348 0.0
C1629 C 0.01583 0.12159 0.95994 0.0
H1630 H 0.0174 0.17562 0.98087 0.0
C1631 C 0.01236 0.19237 0.91201 0.0
C1632 C 0.99671 0.20489 0.91686 0.0
C1633 C 0.01716 0.17669 0.92434 0.0
C1634 C 0.01687 0.16058 0.9749 0.0
H1635 H 0.04623 0.06247 0.99148 0.0
H1636 H 0.03918 0.09006 0.97018 0.0
H1637 H 0.02618 0.14836 0.00229 0.0
H1638 H 0.9741 0.21107 0.9386 0.0
H1639 H 0.98303 0.18402 0.96054 0.0
H1640 H 0.00733 0.13421 0.93227 0.0
C1641 C 0.03518 0.09123 0.98563 0.0
C1642 C 0.02174 0.14488 0.98718 0.0
C1643 C 0.03961 0.07546 0.998 0.0
C1644 C 0.98619 0.20163 0.93446 0.0
C1645 C 0.99132 0.18624 0.94703 0.0
C1646 C 0.01141 0.13735 0.94757 0.0
C1647 C 0.02602 0.10828 0.99316 0.0
C1648 C 0.02116 0.12511 0.97994 0.0
C1649 C 0.00672 0.17355 0.94197 0.0
C1650 C 0.01176 0.15694 0.95499 0.0
H1651 H 0.02313 0.09506 0.04153 0.0
H1652 H 0.01418 0.12173 0.01988 0.0
H1653 H 0.01477 0.10663 0.95383 0.0
H1654 H 0.02064 0.19444 0.89848 0.0
H1655 H 0.02914 0.1671 0.9202 0.0
C1656 C 0.35683 0.29351 0.28298 0.0
C1657 C 0.3511 0.31295 0.2876 0.0
C1658 C 0.37254 0.29015 0.27018 0.0
C1659 C 0.40079 0.31091 0.22926 0.0
H1660 H 0.43825 0.27093 0.24401 0.0
C1661 C 0.46394 0.28401 0.17732 0.0
C1662 C 0.46515 0.26318 0.17595 0.0
C1663 C 0.45205 0.29286 0.19178 0.0
C1664 C 0.42791 0.28213 0.23965 0.0
H1665 H 0.35731 0.34417 0.28198 0.0
H1666 H 0.38467 0.33818 0.25911 0.0
H1667 H 0.41337 0.28138 0.26767 0.0
H1668 H 0.45484 0.23542 0.1889 0.0
H1669 H 0.43434 0.25073 0.21373 0.0
H1670 H 0.41497 0.31105 0.20091 0.0
C1671 C 0.37694 0.3256 0.26563 0.0
C1672 C 0.41369 0.28811 0.25321 0.0
C1673 C 0.36125 0.329 0.27866 0.0
C1674 C 0.45437 0.25149 0.18945 0.0
C1675 C 0.44268 0.26029 0.20385 0.0
C1676 C 0.41504 0.30484 0.2156 0.0
C1677 C 0.38286 0.30613 0.26146 0.0
C1678 C 0.39959 0.3021 0.24796 0.0
C1679 C 0.44136 0.28104 0.20524 0.0
C1680 C 0.42834 0.28991 0.22047 0.0
H1681 H 0.34902 0.28076 0.2891 0.0
H1682 H 0.37646 0.27496 0.26688 0.0
H1683 H 0.39007 0.3217 0.22483 0.0
H1684 H 0.47201 0.29346 0.16714 0.0
H1685 H 0.45133 0.30891 0.19252 0.0
C1686 C 0.5077 0.43206 0.00475 0.0
C1687 C 0.5273 0.43848 0.00079 0.0
C1688 C 0.5039 0.4154 0.01645 0.0
C1689 C 0.52887 0.371 0.03641 0.0
H1690 H 0.48418 0.369 0.07223 0.0
C1691 C 0.52274 0.31522 0.09963 0.0
C1692 C 0.50536 0.30321 0.09976 0.0
C1693 C 0.52411 0.33182 0.08754 0.0
C1694 C 0.49663 0.36937 0.06218 0.0
H1695 H 0.55826 0.43202 0.00605 0.0
H1696 H 0.5517 0.40403 0.02722 0.0
H1697 H 0.48926 0.39788 0.05109 0.0
H1698 H 0.4755 0.2996 0.08789 0.0
H1699 H 0.47776 0.32913 0.06705 0.0
H1700 H 0.53663 0.34286 0.04814 0.0
C1701 C 0.53917 0.41145 0.02089 0.0
C1702 C 0.49952 0.38583 0.04998 0.0
C1703 C 0.54295 0.42786 0.009 0.0
C1704 C 0.48909 0.30857 0.08806 0.0
C1705 C 0.49035 0.32545 0.0762 0.0
C1706 C 0.52618 0.35479 0.04882 0.0
C1707 C 0.51961 0.40483 0.02466 0.0
C1708 C 0.51582 0.38697 0.03706 0.0
C1709 C 0.50802 0.33697 0.07557 0.0
C1710 C 0.51015 0.35389 0.06192 0.0
H1711 H 0.49524 0.43995 0.99889 0.0
H1712 H 0.48864 0.41068 0.01883 0.0
H1713 H 0.54126 0.37097 0.0263 0.0
H1714 H 0.53555 0.31148 0.10844 0.0
H1715 H 0.53783 0.34057 0.08741 0.0
C1716 C 0.65814 0.18447 0.27367 0.0
C1717 C 0.66965 0.2008 0.28079 0.0
C1718 C 0.64293 0.18715 0.25986 0.0
C1719 C 0.61101 0.22624 0.23963 0.0
H1720 H 0.59957 0.18666 0.19847 0.0
C1721 C 0.55639 0.23936 0.17524 0.0
C1722 C 0.54242 0.22393 0.17102 0.0
C1723 C 0.5722 0.2364 0.18824 0.0
C1724 C 0.60252 0.19777 0.20998 0.0
H1725 H 0.67477 0.23261 0.27859 0.0
H1726 H 0.64862 0.23726 0.25416 0.0
H1727 H 0.62688 0.18183 0.22164 0.0
H1728 H 0.53439 0.19315 0.17697 0.0
H1729 H 0.56212 0.18798 0.19952 0.0
H1730 H 0.58681 0.2423 0.22772 0.0
C1731 C 0.65087 0.22245 0.25962 0.0
C1732 C 0.61813 0.19499 0.2233 0.0
C1733 C 0.66592 0.21979 0.27356 0.0
C1734 C 0.54482 0.20538 0.17991 0.0
C1735 C 0.56077 0.20236 0.19274 0.0
C1736 C 0.59555 0.2291 0.22619 0.0
C1737 C 0.63904 0.2062 0.25271 0.0
C1738 C 0.62256 0.20918 0.23834 0.0
C1739 C 0.57454 0.21788 0.19716 0.0
C1740 C 0.59111 0.21488 0.21126 0.0
H1741 H 0.66057 0.16969 0.27914 0.0
H1742 H 0.63396 0.17432 0.25513 0.0
H1743 H 0.61367 0.2373 0.25124 0.0
H1744 H 0.555 0.25385 0.16869 0.0
H1745 H 0.58269 0.24858 0.19124 0.0
C1746 C 0.46714 0.08585 0.994 0.0
C1747 C 0.48262 0.07252 0.99157 0.0
C1748 C 0.47011 0.10346 0.00496 0.0
C1749 C 0.50927 0.13766 0.02619 0.0
H1750 H 0.46661 0.15363 0.0605 0.0
C1751 C 0.52051 0.19808 0.08753 0.0
C1752 C 0.50424 0.20945 0.09286 0.0
C1753 C 0.51815 0.18237 0.07382 0.0
C1754 C 0.47869 0.14954 0.05099 0.0
H1755 H 0.51339 0.06722 0.9986 0.0
H1756 H 0.51854 0.09783 0.01809 0.0
H1757 H 0.46226 0.12417 0.0398 0.0
H1758 H 0.47338 0.21496 0.08678 0.0
H1759 H 0.46927 0.18806 0.06236 0.0
H1760 H 0.52578 0.16297 0.03765 0.0
C1761 C 0.50418 0.09488 0.01121 0.0
C1762 C 0.47613 0.13261 0.03896 0.0
C1763 C 0.50124 0.0773 1.00011 0.0
C1764 C 0.48594 0.20586 0.08334 0.0
C1765 C 0.48363 0.19041 0.0694 0.0
C1766 C 0.51188 0.15457 0.03837 0.0
C1767 C 0.4886 0.10811 0.0139 0.0
C1768 C 0.49138 0.1264 0.02643 0.0
C1769 C 0.49959 0.17815 0.06474 0.0
C1770 C 0.49667 0.16066 0.05107 0.0
H1771 H 0.45273 0.08272 0.98729 0.0
H1772 H 0.4579 0.11348 0.00634 0.0
H1773 H 0.52121 0.13353 0.01645 0.0
H1774 H 0.53485 0.2009 0.09449 0.0
H1775 H 0.53074 0.17321 0.0708 0.0
C1776 C 0.23021 0.35207 0.72084 0.0
C1777 C 0.2228 0.34785 0.70168 0.0
C1778 C 0.24494 0.36678 0.72398 0.0
C1779 C 0.26913 0.41089 0.70142 0.0
H1780 H 0.31009 0.40074 0.74018 0.0
C1781 C 0.33724 0.46425 0.71477 0.0
C1782 C 0.34332 0.46709 0.73453 0.0
C1783 C 0.32285 0.44958 0.7098 0.0
C1784 C 0.29878 0.40387 0.72934 0.0
H1785 H 0.22493 0.35602 0.67082 0.0
H1786 H 0.25109 0.38139 0.67625 0.0
H1787 H 0.28466 0.37539 0.73303 0.0
H1788 H 0.33815 0.45833 0.76477 0.0
H1789 H 0.31299 0.43285 0.75626 0.0
H1790 H 0.28342 0.43942 0.69775 0.0
C1791 C 0.24528 0.37348 0.68888 0.0
C1792 C 0.28409 0.38934 0.7253 0.0
C1793 C 0.23044 0.35879 0.68574 0.0
C1794 C 0.33419 0.45581 0.74934 0.0
C1795 C 0.31979 0.44126 0.74444 0.0
C1796 C 0.28396 0.42541 0.70537 0.0
C1797 C 0.2528 0.37754 0.70803 0.0
C1798 C 0.26893 0.39275 0.7115 0.0
C1799 C 0.31405 0.43783 0.7246 0.0
C1800 C 0.29883 0.42213 0.71955 0.0
H1801 H 0.2249 0.34377 0.73343 0.0
H1802 H 0.25015 0.36972 0.73897 0.0
H1803 H 0.25755 0.41409 0.69085 0.0
H1804 H 0.34386 0.47313 0.70319 0.0
H1805 H 0.3188 0.44728 0.69438 0.0
C1806 C 0.22207 0.64569 0.80174 0.0
C1807 C 0.22665 0.66447 0.8103 0.0
C1808 C 0.2367 0.63152 0.79954 0.0
C1809 C 0.29159 0.627 0.79859 0.0
H1810 H 0.2782 0.57072 0.80091 0.0
C1811 C 0.34452 0.56775 0.76963 0.0
C1812 C 0.34449 0.549 0.77845 0.0
C1813 C 0.3309 0.58193 0.77544 0.0
C1814 C 0.28234 0.58637 0.80052 0.0
H1815 H 0.25046 0.68288 0.8233 0.0
H1816 H 0.27553 0.65791 0.82051 0.0
H1817 H 0.25298 0.59483 0.80805 0.0
H1818 H 0.33068 0.53066 0.80085 0.0
H1819 H 0.30736 0.55567 0.81158 0.0
H1820 H 0.3211 0.61858 0.7918 0.0
C1821 C 0.26075 0.65425 0.81499 0.0
C1822 C 0.26773 0.60025 0.80428 0.0
C1823 C 0.2462 0.66852 0.81691 0.0
C1824 C 0.33099 0.54496 0.79371 0.0
C1825 C 0.31751 0.55926 0.79972 0.0
C1826 C 0.30625 0.61313 0.79511 0.0
C1827 C 0.25628 0.63562 0.80607 0.0
C1828 C 0.27207 0.62077 0.8031 0.0
C1829 C 0.31705 0.57783 0.79043 0.0
C1830 C 0.30178 0.59261 0.7957 0.0
H1831 H 0.20714 0.64188 0.79672 0.0
H1832 H 0.23268 0.61747 0.79235 0.0
H1833 H 0.29554 0.64262 0.79728 0.0
H1834 H 0.35463 0.57129 0.75772 0.0
H1835 H 0.33085 0.59586 0.76765 0.0
C1836 C 0.92912 0.50096 0.46173 0.0
C1837 C 0.93959 0.51111 0.47712 0.0
C1838 C 0.91215 0.48934 0.46576 0.0
C1839 C 0.87028 0.48521 0.49774 0.0
H1840 H 0.86728 0.42918 0.48318 0.0
C1841 C 0.79835 0.43702 0.48546 0.0
C1842 C 0.79709 0.41914 0.49589 0.0
C1843 C 0.81572 0.44882 0.48613 0.0
C1844 C 0.86801 0.44477 0.48745 0.0
H1845 H 0.94028 0.51653 0.50896 0.0
H1846 H 0.91004 0.49712 0.51564 0.0
H1847 H 0.89809 0.44853 0.47769 0.0
H1848 H 0.81281 0.39969 0.51544 0.0
H1849 H 0.8436 0.42011 0.51602 0.0
H1850 H 0.83988 0.48165 0.50659 0.0
C1851 C 0.91524 0.49812 0.50054 0.0
C1852 C 0.88552 0.45582 0.48421 0.0
C1853 C 0.93247 0.50936 0.49662 0.0
C1854 C 0.81335 0.41351 0.50743 0.0
C1855 C 0.83094 0.42508 0.50768 0.0
C1856 C 0.85261 0.47427 0.50054 0.0
C1857 C 0.90501 0.48796 0.48516 0.0
C1858 C 0.88676 0.47613 0.48926 0.0
C1859 C 0.8323 0.4427 0.49683 0.0
C1860 C 0.85134 0.45398 0.49537 0.0
H1861 H 0.93378 0.5022 0.44649 0.0
H1862 H 0.90434 0.48174 0.45364 0.0
H1863 H 0.87092 0.50088 0.50167 0.0
H1864 H 0.78602 0.44167 0.47644 0.0
H1865 H 0.8165 0.4623 0.47757 0.0
C1866 C 0.78479 0.85282 0.78631 0.0
C1867 C 0.78992 0.84802 0.80585 0.0
C1868 C 0.7703 0.86678 0.78259 0.0
C1869 C 0.74223 0.90737 0.80682 0.0
H1870 H 0.70727 0.89901 0.76149 0.0
C1871 C 0.68875 0.96742 0.7811 0.0
C1872 C 0.67055 0.96138 0.77238 0.0
C1873 C 0.70282 0.95342 0.786 0.0
C1874 C 0.71669 0.90147 0.77439 0.0
H1875 H 0.78405 0.85466 0.83678 0.0
H1876 H 0.75826 0.87818 0.83031 0.0
H1877 H 0.73255 0.87502 0.76837 0.0
H1878 H 0.6525 0.93589 0.76263 0.0
H1879 H 0.6767 0.91137 0.77186 0.0
H1880 H 0.72585 0.93337 0.81332 0.0
C1881 C 0.76566 0.87148 0.81781 0.0
C1882 C 0.73148 0.88785 0.77814 0.0
C1883 C 0.7803 0.85772 0.82153 0.0
C1884 C 0.66645 0.941 0.76923 0.0
C1885 C 0.68042 0.92696 0.77437 0.0
C1886 C 0.72729 0.92086 0.80321 0.0
C1887 C 0.76039 0.87618 0.79828 0.0
C1888 C 0.74454 0.89066 0.79435 0.0
C1889 C 0.69894 0.933 0.78253 0.0
C1890 C 0.71438 0.91818 0.78686 0.0
H1891 H 0.79168 0.84552 0.77384 0.0
H1892 H 0.76691 0.87022 0.76735 0.0
H1893 H 0.75211 0.91022 0.8193 0.0
H1894 H 0.69243 0.98304 0.78358 0.0
H1895 H 0.71698 0.95873 0.79195 0.0
C1896 C 0.58933 0.48795 0.99011 0.0
C1897 C 0.57195 0.49637 0.98271 0.0
C1898 C 0.60659 0.49963 0.99315 0.0
C1899 C 0.63162 0.54499 0.97598 0.0
H1900 H 0.66279 0.54213 0.02425 0.0
C1901 C 0.70676 0.5871 0.98427 0.0
C1902 C 0.71067 0.59667 0.00251 0.0
C1903 C 0.69069 0.57367 0.98214 0.0
C1904 C 0.65421 0.5432 0.01072 0.0
H1905 H 0.55908 0.52388 0.97325 0.0
H1906 H 0.58933 0.5441 0.97812 0.0
H1907 H 0.63257 0.52152 0.02029 0.0
H1908 H 0.702 0.59886 0.0332 0.0
H1909 H 0.67338 0.57591 0.02947 0.0
H1910 H 0.65316 0.56636 0.96621 0.0
C1911 C 0.58956 0.52841 0.98144 0.0
C1912 C 0.637 0.53126 0.0084 0.0
C1913 C 0.57226 0.5168 0.97859 0.0
C1914 C 0.69895 0.59187 0.0189 0.0
C1915 C 0.6827 0.5786 0.01675 0.0
C1916 C 0.64891 0.55671 0.97818 0.0
C1917 C 0.60693 0.51993 0.98866 0.0
C1918 C 0.62543 0.53221 0.99108 0.0
C1919 C 0.67823 0.56949 0.99828 0.0
C1920 C 0.66032 0.55621 0.99568 0.0
H1921 H 0.58976 0.47221 0.99315 0.0
H1922 H 0.61982 0.49266 0.99854 0.0
H1923 H 0.62316 0.54581 0.96234 0.0
H1924 H 0.71611 0.59008 0.97161 0.0
H1925 H 0.68804 0.56659 0.96782 0.0
C1926 C 0.27844 0.65831 0.21633 0.0
C1927 C 0.28462 0.66293 0.19707 0.0
C1928 C 0.26387 0.64359 0.21943 0.0
C1929 C 0.23845 0.59978 0.19599 0.0
H1930 H 0.19995 0.60903 0.23721 0.0
C1931 C 0.17203 0.54524 0.21054 0.0
C1932 C 0.16705 0.54235 0.23043 0.0
C1933 C 0.18595 0.56011 0.20547 0.0
C1934 C 0.21059 0.60614 0.22568 0.0
H1935 H 0.28039 0.65549 0.16594 0.0
H1936 H 0.25455 0.63 0.17135 0.0
H1937 H 0.22467 0.63472 0.22993 0.0
H1938 H 0.17376 0.55124 0.26071 0.0
H1939 H 0.19814 0.577 0.25203 0.0
H1940 H 0.22427 0.57111 0.1918 0.0
C1941 C 0.2612 0.63765 0.18407 0.0
C1942 C 0.22485 0.62087 0.22156 0.0
C1943 C 0.27586 0.65239 0.18096 0.0
C1944 C 0.17685 0.55377 0.24522 0.0
C1945 C 0.1908 0.5685 0.24022 0.0
C1946 C 0.22406 0.58503 0.20006 0.0
C1947 C 0.25496 0.63316 0.20335 0.0
C1948 C 0.23914 0.61779 0.20686 0.0
C1949 C 0.1954 0.57201 0.22027 0.0
C1950 C 0.21009 0.58796 0.21512 0.0
H1951 H 0.28464 0.6663 0.22908 0.0
H1952 H 0.25965 0.64033 0.2345 0.0
H1953 H 0.24937 0.59683 0.18471 0.0
H1954 H 0.16489 0.53627 0.19895 0.0
H1955 H 0.18909 0.56246 0.18997 0.0
C1956 C 0.91755 0.49 0.01638 0.0
C1957 C 0.93519 0.49684 0.02583 0.0
C1958 C 0.90238 0.50311 0.01223 0.0
C1959 C 0.88166 0.54952 0.02992 0.0
H1960 H 0.8549 0.55033 0.97897 0.0
C1961 C 0.82133 0.60623 0.01473 0.0
C1962 C 0.80481 0.59991 0.00329 0.0
C1963 C 0.838 0.59443 0.01607 0.0
C1964 C 0.86201 0.55014 0.99338 0.0
H1965 H 0.95086 0.52316 0.03755 0.0
H1966 H 0.92412 0.54581 0.03087 0.0
H1967 H 0.88233 0.52797 0.98395 0.0
H1968 H 0.79288 0.57637 0.98405 0.0
H1969 H 0.82161 0.55541 0.98692 0.0
H1970 H 0.86108 0.57101 0.03973 0.0
C1971 C 0.92208 0.53025 0.02678 0.0
C1972 C 0.87779 0.53737 0.99617 0.0
C1973 C 0.93735 0.51722 0.03068 0.0
C1974 C 0.80545 0.5817 0.9929 0.0
C1975 C 0.82201 0.56972 0.99448 0.0
C1976 C 0.86573 0.56205 0.02724 0.0
C1977 C 0.90438 0.52331 0.01765 0.0
C1978 C 0.8878 0.53698 0.01446 0.0
C1979 C 0.83845 0.57582 0.00628 0.0
C1980 C 0.85568 0.5626 0.00892 0.0
H1981 H 0.91518 0.4744 0.01269 0.0
H1982 H 0.88881 0.49732 0.00535 0.0
H1983 H 0.88892 0.5493 0.04427 0.0
H1984 H 0.82136 0.62029 0.02277 0.0
H1985 H 0.85051 0.59992 0.02489 0.0
C1986 C 0.09781 0.02963 0.029 0.0
C1987 C 0.08054 0.02111 0.03734 0.0
C1988 C 0.11419 0.018 0.02484 0.0
C1989 C 0.13976 0.97399 0.03954 0.0
H1990 H 0.15887 0.97099 0.98562 0.0
C1991 C 0.19671 0.91598 0.01563 0.0
C1992 C 0.20997 0.92066 1.00036 0.0
C1993 C 0.18152 0.92884 0.02057 0.0
C1994 C 0.15408 0.97191 0.00085 0.0
H1995 H 0.06718 0.99342 0.04769 0.0
H1996 H 0.09613 0.97351 0.04132 0.0
H1997 H 0.13176 0.99279 0.99374 0.0
H1998 H 0.21816 0.94278 0.97871 0.0
H1999 H 0.19241 0.9657 0.98794 0.0
H2000 H 0.16234 0.95373 0.04699 0.0
C2001 C 0.09681 0.9892 0.03793 0.0
C2002 C 0.13843 0.98433 0.00543 0.0
C2003 C 0.08028 0.00069 0.04169 0.0
C2004 C 0.20802 0.93868 0.99043 0.0
C2005 C 0.19312 0.95176 0.99565 0.0
C2006 C 0.1557 0.96188 0.03508 0.0
C2007 C 0.11383 0.99772 0.02934 0.0
C2008 C 0.13101 0.98531 0.02475 0.0
C2009 C 0.17946 0.94693 0.01064 0.0
C2010 C 0.16297 0.96048 0.01562 0.0
H2011 H 0.09882 0.04534 0.0258 0.0
H2012 H 0.12725 0.02491 0.01833 0.0
H2013 H 0.13436 0.97465 0.0546 0.0
H2014 H 0.19771 0.90209 0.02342 0.0
H2015 H 0.17114 0.92431 0.0319 0.0
loop_
_geom_bond_atom_site_label_1
_geom_bond_atom_site_label_2
_geom_bond_distance
_geom_bond_site_symmetry_2
_ccdc_geom_bond_type
H0 C3 0.931 . S
H1 C6 0.928 . S
H2 C8 0.930 . S
C3 H0 0.931 . S
C3 C4 1.413 . S
C3 C5 1.360 . S
C4 C3 1.413 . S
C4 C8 1.429 . S
C5 C3 1.360 . S
C5 C6 1.372 . S
C6 H1 0.928 . S
C6 C5 1.372 . S
C6 C7 1.404 . S
C7 C6 1.404 . S
C7 C8 1.391 . S
C8 H2 0.930 . S
C8 C4 1.429 . S
C8 C7 1.391 . S
H9 C12 0.931 . S
H10 C15 0.928 . S
H11 C17 0.930 . S
C12 H9 0.931 . S
C12 C13 1.413 . S
C12 C14 1.360 . S
C13 C12 1.413 . S
C13 C17 1.429 . S
C14 C12 1.360 . S
C14 C15 1.372 . S
C15 H10 0.928 . S
C15 C14 1.372 . S
C15 C16 1.404 . S
C16 C15 1.404 . S
C16 C17 1.391 . S
C17 H11 0.930 . S
C17 C13 1.429 . S
C17 C16 1.391 . S
H18 C21 0.931 . S
H19 C24 0.928 . S
H20 C26 0.930 . S
C21 H18 0.931 . S
C21 C22 1.413 . S
C21 C23 1.360 . S
C22 C21 1.413 . S
C22 C26 1.429 . S
C23 C21 1.360 . S
C23 C24 1.372 . S
C24 H19 0.928 . S
C24 C23 1.372 . S
C24 C25 1.404 . S
C25 C24 1.404 . S
C25 C26 1.391 . S
C26 H20 0.930 . S
C26 C22 1.429 . S
C26 C25 1.391 . S
H27 C30 0.931 . S
H28 C33 0.928 . S
H29 C35 0.930 . S
C30 H27 0.931 . S
C30 C31 1.413 . S
C30 C32 1.360 . S
C31 C30 1.413 . S
C31 C35 1.429 . S
C32 C30 1.360 . S
C32 C33 1.372 . S
C33 H28 0.928 . S
C33 C32 1.372 . S
C33 C34 1.404 . S
C34 C33 1.404 . S
C34 C35 1.391 . S
C35 H29 0.930 . S
C35 C31 1.429 . S
C35 C34 1.391 . S
H36 C39 0.931 . S
H37 C42 0.928 . S
H38 C44 0.930 . S
C39 H36 0.931 . S
C39 C40 1.413 . S
C39 C41 1.360 . S
C40 C39 1.413 . S
C40 C44 1.429 . S
C41 C39 1.360 . S
C41 C42 1.372 . S
C42 H37 0.928 . S
C42 C41 1.372 . S
C42 C43 1.404 . S
C43 C42 1.404 . S
C43 C44 1.391 . S
C44 H38 0.930 . S
C44 C40 1.429 . S
C44 C43 1.391 . S
H45 C48 0.931 . S
H46 C51 0.928 . S
H47 C53 0.930 . S
C48 H45 0.931 . S
C48 C49 1.413 . S
C48 C50 1.360 . S
C49 C48 1.413 . S
C49 C53 1.429 . S
C50 C48 1.360 . S
C50 C51 1.372 . S
C51 H46 0.928 . S
C51 C50 1.372 . S
C51 C52 1.404 . S
C52 C51 1.404 . S
C52 C53 1.391 . S
C53 H47 0.930 . S
C53 C49 1.429 . S
C53 C52 1.391 . S
H54 C57 0.931 . S
H55 C60 0.928 . S
H56 C62 0.930 . S
C57 H54 0.931 . S
C57 C58 1.413 . S
C57 C59 1.360 . S
C58 C57 1.413 . S
C58 C62 1.429 . S
C59 C57 1.360 . S
C59 C60 1.372 . S
C60 H55 0.928 . S
C60 C59 1.372 . S
C60 C61 1.404 . S
C61 C60 1.404 . S
C61 C62 1.391 . S
C62 H56 0.930 . S
C62 C58 1.429 . S
C62 C61 1.391 . S
H63 C66 0.931 . S
H64 C69 0.928 . S
H65 C71 0.930 . S
C66 H63 0.931 . S
C66 C67 1.413 . S
C66 C68 1.360 . S
C67 C66 1.413 . S
C67 C71 1.429 . S
C68 C66 1.360 . S
C68 C69 1.372 . S
C69 H64 0.928 . S
C69 C68 1.372 . S
C69 C70 1.404 . S
C70 C69 1.404 . S
C70 C71 1.391 . S
C71 H65 0.930 . S
C71 C67 1.429 . S
C71 C70 1.391 . S
H72 C75 0.931 . S
H73 C78 0.928 . S
H74 C80 0.930 . S
C75 H72 0.931 . S
C75 C76 1.413 . S
C75 C77 1.360 . S
C76 C75 1.413 . S
C76 C80 1.429 . S
C77 C75 1.360 . S
C77 C78 1.372 . S
C78 H73 0.928 . S
C78 C77 1.372 . S
C78 C79 1.404 . S
C79 C78 1.404 . S
C79 C80 1.391 . S
C80 H74 0.930 . S
C80 C76 1.429 . S
C80 C79 1.391 . S
H81 C84 0.931 . S
H82 C87 0.928 . S
H83 C89 0.930 . S
C84 H81 0.931 . S
C84 C85 1.413 . S
C84 C86 1.360 . S
C85 C84 1.413 . S
C85 C89 1.429 . S
C86 C84 1.360 . S
C86 C87 1.372 . S
C87 H82 0.928 . S
C87 C86 1.372 . S
C87 C88 1.404 . S
C88 C87 1.404 . S
C88 C89 1.391 . S
C89 H83 0.930 . S
C89 C85 1.429 . S
C89 C88 1.391 . S
H90 C93 0.931 . S
H91 C96 0.928 . S
H92 C98 0.930 . S
C93 H90 0.931 . S
C93 C94 1.413 . S
C93 C95 1.360 . S
C94 C93 1.413 . S
C94 C98 1.429 . S
C95 C93 1.360 . S
C95 C96 1.372 . S
C96 H91 0.928 . S
C96 C95 1.372 . S
C96 C97 1.404 . S
C97 C96 1.404 . S
C97 C98 1.391 . S
C98 H92 0.930 . S
C98 C94 1.429 . S
C98 C97 1.391 . S
H99 C102 0.931 . S
H100 C105 0.928 . S
H101 C107 0.930 . S
C102 H99 0.931 . S
C102 C103 1.413 . S
C102 C104 1.360 . S
C103 C102 1.413 . S
C103 C107 1.429 . S
C104 C102 1.360 . S
C104 C105 1.372 . S
C105 H100 0.928 . S
C105 C104 1.372 . S
C105 C106 1.404 . S
C106 C105 1.404 . S
C106 C107 1.391 . S
C107 H101 0.930 . S
C107 C103 1.429 . S
C107 C106 1.391 . S
H108 C111 0.931 . S
H109 C114 0.928 . S
H110 C116 0.930 . S
C111 H108 0.931 . S
C111 C112 1.413 . S
C111 C113 1.360 . S
C112 C111 1.413 . S
C112 C116 1.429 . S
C113 C111 1.360 . S
C113 C114 1.372 . S
C114 H109 0.928 . S
C114 C113 1.372 . S
C114 C115 1.404 . S
C115 C114 1.404 . S
C115 C116 1.391 . S
C116 H110 0.930 . S
C116 C112 1.429 . S
C116 C115 1.391 . S
H117 C120 0.931 . S
H118 C123 0.928 . S
H119 C125 0.930 . S
C120 H117 0.931 . S
C120 C121 1.413 . S
C120 C122 1.360 . S
C121 C120 1.413 . S
C121 C125 1.429 . S
C122 C120 1.360 . S
C122 C123 1.372 . S
C123 H118 0.928 . S
C123 C122 1.372 . S
C123 C124 1.404 . S
C124 C123 1.404 . S
C124 C125 1.391 . S
C125 H119 0.930 . S
C125 C121 1.429 . S
C125 C124 1.391 . S
H126 C129 0.931 . S
H127 C132 0.928 . S
H128 C134 0.930 . S
C129 H126 0.931 . S
C129 C130 1.413 . S
C129 C131 1.360 . S
C130 C129 1.413 . S
C130 C134 1.429 . S
C131 C129 1.360 . S
C131 C132 1.372 . S
C132 H127 0.928 . S
C132 C131 1.372 . S
C132 C133 1.404 . S
C133 C132 1.404 . S
C133 C134 1.391 . S
C134 H128 0.930 . S
C134 C130 1.429 . S
C134 C133 1.391 . S
H135 C138 0.931 . S
H136 C141 0.928 . S
H137 C143 0.930 . S
C138 H135 0.931 . S
C138 C139 1.413 . S
C138 C140 1.360 . S
C139 C138 1.413 . S
C139 C143 1.429 . S
C140 C138 1.360 . S
C140 C141 1.372 . S
C141 H136 0.928 . S
C141 C140 1.372 . S
C141 C142 1.404 . S
C142 C141 1.404 . S
C142 C143 1.391 . S
C143 H137 0.930 . S
C143 C139 1.429 . S
C143 C142 1.391 . S
Mn144 O149 2.095 . S
Mn144 O159 2.162 . S
Mn144 O160 2.297 . S
Mn144 O168 2.368 1_554 S
Mn144 O169 2.209 1_554 S
Mn144 O170 2.094 . S
Mn145 O150 2.121 . S
Mn145 N152 2.257 . S
Mn145 N161 2.282 . S
Mn145 O169 2.215 . S
Mn145 O171 2.117 . S
C146 O168 1.266 . S
C146 O169 1.283 . S
C147 O159 1.281 . S
C147 O160 1.236 . S
C148 O170 1.240 . S
C148 O171 1.264 1_554 S
O149 Mn144 2.095 . S
O149 C158 1.250 . S
O150 Mn145 2.121 . S
O150 C158 1.258 1_556 S
C151 N152 1.326 . S
C151 C155 1.460 . S
C151 H157 0.929 . S
N152 Mn145 2.257 . S
N152 C151 1.326 . S
N152 C156 1.362 . S
C153 C154 1.258 . S
C153 C156 1.431 . S
C153 C173 1.449 . S
C154 C153 1.258 . S
C154 C155 1.477 . S
C154 H174 0.931 . S
C155 C151 1.460 . S
C155 C154 1.477 . S
C155 H175 0.930 . S
C156 N152 1.362 . S
C156 C153 1.431 . S
C156 C166 1.476 . S
H157 C151 0.929 . S
C158 O149 1.250 . S
C158 O150 1.258 1_554 S
O159 Mn144 2.162 . S
O159 C147 1.281 . S
O160 Mn144 2.297 . S
O160 C147 1.236 . S
N161 Mn145 2.282 . S
N161 C162 1.328 . S
N161 C166 1.318 . S
C162 N161 1.328 . S
C162 C163 1.457 . S
C162 H167 0.929 . S
C163 C162 1.457 . S
C163 C164 1.291 . S
C163 H176 0.931 . S
C164 C163 1.291 . S
C164 C165 1.373 . S
C164 H177 0.929 . S
C165 C164 1.373 . S
C165 C166 1.396 . S
C165 C172 1.403 . S
C166 C156 1.476 . S
C166 N161 1.318 . S
C166 C165 1.396 . S
H167 C162 0.929 . S
O168 Mn144 2.368 1_556 S
O168 C146 1.266 . S
O169 Mn144 2.209 1_556 S
O169 Mn145 2.215 . S
O169 C146 1.283 . S
O170 Mn144 2.094 . S
O170 C148 1.240 . S
O171 Mn145 2.117 . S
O171 C148 1.264 1_556 S
C172 C165 1.403 . S
C172 C173 1.399 . S
C172 H178 0.929 . S
C173 C153 1.449 . S
C173 C172 1.399 . S
C173 H179 0.930 . S
H174 C154 0.931 . S
H175 C155 0.930 . S
H176 C163 0.931 . S
H177 C164 0.929 . S
H178 C172 0.929 . S
H179 C173 0.930 . S
Mn180 O185 2.095 . S
Mn180 O195 2.162 . S
Mn180 O196 2.297 . S
Mn180 O204 2.385 . S
Mn180 O205 2.209 . S
Mn180 O206 2.094 . S
Mn181 O186 2.121 . S
Mn181 N188 2.257 . S
Mn181 N197 2.282 . S
Mn181 O205 2.215 . S
Mn181 O207 2.117 . S
C182 O204 1.234 . S
C182 O205 1.283 . S
C183 O195 1.281 . S
C183 O196 1.236 . S
C184 O206 1.240 . S
C184 O207 1.264 . S
O185 Mn180 2.095 . S
O185 C194 1.250 . S
O186 Mn181 2.121 . S
O186 C194 1.258 . S
C187 N188 1.326 . S
C187 C191 1.460 . S
C187 H193 0.929 . S
N188 Mn181 2.257 . S
N188 C187 1.326 . S
N188 C192 1.362 . S
C189 C190 1.258 . S
C189 C192 1.431 . S
C189 C209 1.449 . S
C190 C189 1.258 . S
C190 C191 1.477 . S
C190 H210 0.931 . S
C191 C187 1.460 . S
C191 C190 1.477 . S
C191 H211 0.930 . S
C192 N188 1.362 . S
C192 C189 1.431 . S
C192 C202 1.476 . S
H193 C187 0.929 . S
C194 O185 1.250 . S
C194 O186 1.258 . S
O195 Mn180 2.162 . S
O195 C183 1.281 . S
O196 Mn180 2.297 . S
O196 C183 1.236 . S
N197 Mn181 2.282 . S
N197 C198 1.328 . S
N197 C202 1.318 . S
C198 N197 1.328 . S
C198 C199 1.457 . S
C198 H203 0.929 . S
C199 C198 1.457 . S
C199 C200 1.291 . S
C199 H212 0.931 . S
C200 C199 1.291 . S
C200 C201 1.373 . S
C200 H213 0.929 . S
C201 C200 1.373 . S
C201 C202 1.396 . S
C201 C208 1.403 . S
C202 C192 1.476 . S
C202 N197 1.318 . S
C202 C201 1.396 . S
H203 C198 0.929 . S
O204 Mn180 2.385 . S
O204 C182 1.234 . S
O205 Mn180 2.209 . S
O205 Mn181 2.215 . S
O205 C182 1.283 . S
O206 Mn180 2.094 . S
O206 C184 1.240 . S
O207 Mn181 2.117 . S
O207 C184 1.264 . S
C208 C201 1.403 . S
C208 C209 1.399 . S
C208 H214 0.929 . S
C209 C189 1.449 . S
C209 C208 1.399 . S
C209 H215 0.930 . S
H210 C190 0.931 . S
H211 C191 0.930 . S
H212 C199 0.931 . S
H213 C200 0.929 . S
H214 C208 0.929 . S
H215 C209 0.930 . S
Mn216 O221 2.095 1_554 S
Mn216 O231 2.162 . S
Mn216 O232 2.297 1_554 S
Mn216 O240 2.385 . S
Mn216 O241 2.209 1_554 S
Mn216 O242 2.094 . S
Mn217 O222 2.121 . S
Mn217 N224 2.257 . S
Mn217 N233 2.294 . S
Mn217 O241 2.215 . S
Mn217 O243 2.117 1_556 S
C218 O240 1.234 . S
C218 O241 1.283 1_554 S
C219 O231 1.281 . S
C219 O232 1.236 1_554 S
C220 O242 1.240 . S
C220 O243 1.264 . S
O221 Mn216 2.095 1_556 S
O221 C230 1.250 . S
O222 Mn217 2.121 . S
O222 C230 1.258 . S
C223 N224 1.326 . S
C223 C227 1.460 . S
C223 H229 0.929 . S
N224 Mn217 2.257 . S
N224 C223 1.326 . S
N224 C228 1.362 . S
C225 C226 1.258 . S
C225 C228 1.431 . S
C225 C245 1.449 . S
C226 C225 1.258 . S
C226 C227 1.477 . S
C226 H246 0.931 . S
C227 C223 1.460 . S
C227 C226 1.477 . S
C227 H247 0.930 . S
C228 N224 1.362 . S
C228 C225 1.431 . S
C228 C238 1.476 . S
H229 C223 0.929 . S
C230 O221 1.250 . S
C230 O222 1.258 . S
O231 Mn216 2.162 . S
O231 C219 1.281 . S
O232 Mn216 2.297 1_556 S
O232 C219 1.236 1_556 S
N233 Mn217 2.294 . S
N233 C234 1.296 1_556 S
N233 C238 1.339 . S
C234 N233 1.296 1_554 S
C234 C235 1.457 . S
C234 H239 0.929 . S
C235 C234 1.457 . S
C235 C236 1.291 . S
C235 H248 0.931 . S
C236 C235 1.291 . S
C236 C237 1.373 1_554 S
C236 H249 0.929 . S
C237 C236 1.373 1_556 S
C237 C238 1.396 . S
C237 C244 1.403 . S
C238 C228 1.476 . S
C238 N233 1.339 . S
C238 C237 1.396 . S
H239 C234 0.929 . S
O240 Mn216 2.385 . S
O240 C218 1.234 . S
O241 Mn216 2.209 1_556 S
O241 Mn217 2.215 . S
O241 C218 1.283 1_556 S
O242 Mn216 2.094 . S
O242 C220 1.240 . S
O243 Mn217 2.117 1_554 S
O243 C220 1.264 . S
C244 C237 1.403 . S
C244 C245 1.399 . S
C244 H250 0.929 . S
C245 C225 1.449 . S
C245 C244 1.399 . S
C245 H251 0.930 . S
H246 C226 0.931 . S
H247 C227 0.930 . S
H248 C235 0.931 . S
H249 C236 0.929 . S
H250 C244 0.929 . S
H251 C245 0.930 . S
Mn252 O257 2.095 . S
Mn252 O267 2.162 . S
Mn252 O268 2.297 . S
Mn252 O276 2.363 1_545 S
Mn252 O277 2.209 1_545 S
Mn252 O278 2.094 . S
Mn253 O258 2.121 . S
Mn253 N260 2.257 . S
Mn253 N269 2.282 . S
Mn253 O277 2.215 . S
Mn253 O279 2.117 . S
C254 O276 1.278 . S
C254 O277 1.283 . S
C255 O267 1.281 . S
C255 O268 1.236 . S
C256 O278 1.240 . S
C256 O279 1.264 1_545 S
O257 Mn252 2.095 . S
O257 C266 1.286 . S
O258 Mn253 2.121 . S
O258 C266 1.213 1_565 S
C259 N260 1.326 . S
C259 C263 1.460 . S
C259 H265 0.929 . S
N260 Mn253 2.257 . S
N260 C259 1.326 . S
N260 C264 1.362 . S
C261 C262 1.258 . S
C261 C264 1.431 . S
C261 C281 1.449 . S
C262 C261 1.258 . S
C262 C263 1.477 . S
C262 H282 0.931 . S
C263 C259 1.460 . S
C263 C262 1.477 . S
C263 H283 0.930 . S
C264 N260 1.362 . S
C264 C261 1.431 . S
C264 C274 1.476 . S
H265 C259 0.929 . S
C266 O257 1.286 . S
C266 O258 1.213 1_545 S
O267 Mn252 2.162 . S
O267 C255 1.281 . S
O268 Mn252 2.297 . S
O268 C255 1.236 . S
N269 Mn253 2.282 . S
N269 C270 1.328 . S
N269 C274 1.318 . S
C270 N269 1.328 . S
C270 C271 1.457 . S
C270 H275 0.929 . S
C271 C270 1.457 . S
C271 C272 1.291 . S
C271 H284 0.931 . S
C272 C271 1.291 . S
C272 C273 1.373 . S
C272 H285 0.929 . S
C273 C272 1.373 . S
C273 C274 1.396 . S
C273 C280 1.403 . S
C274 C264 1.476 . S
C274 N269 1.318 . S
C274 C273 1.396 . S
H275 C270 0.929 . S
O276 Mn252 2.363 1_565 S
O276 C254 1.278 . S
O277 Mn252 2.209 1_565 S
O277 Mn253 2.215 . S
O277 C254 1.283 . S
O278 Mn252 2.094 . S
O278 C256 1.240 . S
O279 Mn253 2.117 . S
O279 C256 1.264 1_565 S
C280 C273 1.403 . S
C280 C281 1.399 . S
C280 H286 0.929 . S
C281 C261 1.449 . S
C281 C280 1.399 . S
C281 H287 0.930 . S
H282 C262 0.931 . S
H283 C263 0.930 . S
H284 C271 0.931 . S
H285 C272 0.929 . S
H286 C280 0.929 . S
H287 C281 0.930 . S
Mn288 O293 2.095 . S
Mn288 O303 2.162 . S
Mn288 O304 2.297 . S
Mn288 O312 2.385 . S
Mn288 O313 2.209 . S
Mn288 O314 2.094 . S
Mn289 O294 2.121 . S
Mn289 N296 2.257 . S
Mn289 N305 2.282 . S
Mn289 O313 2.215 . S
Mn289 O315 2.117 . S
C290 O312 1.234 . S
C290 O313 1.283 . S
C291 O303 1.281 . S
C291 O304 1.236 . S
C292 O314 1.240 . S
C292 O315 1.264 . S
O293 Mn288 2.095 . S
O293 C302 1.250 . S
O294 Mn289 2.121 . S
O294 C302 1.258 . S
C295 N296 1.326 . S
C295 C299 1.460 . S
C295 H301 0.929 . S
N296 Mn289 2.257 . S
N296 C295 1.326 . S
N296 C300 1.362 . S
C297 C298 1.258 . S
C297 C300 1.431 . S
C297 C317 1.449 . S
C298 C297 1.258 . S
C298 C299 1.477 . S
C298 H318 0.931 . S
C299 C295 1.460 . S
C299 C298 1.477 . S
C299 H319 0.930 . S
C300 N296 1.362 . S
C300 C297 1.431 . S
C300 C310 1.476 . S
H301 C295 0.929 . S
C302 O293 1.250 . S
C302 O294 1.258 . S
O303 Mn288 2.162 . S
O303 C291 1.281 . S
O304 Mn288 2.297 . S
O304 C291 1.236 . S
N305 Mn289 2.282 . S
N305 C306 1.328 . S
N305 C310 1.318 . S
C306 N305 1.328 . S
C306 C307 1.457 . S
C306 H311 0.929 . S
C307 C306 1.457 . S
C307 C308 1.291 . S
C307 H320 0.931 . S
C308 C307 1.291 . S
C308 C309 1.373 . S
C308 H321 0.929 . S
C309 C308 1.373 . S
C309 C310 1.396 . S
C309 C316 1.403 . S
C310 C300 1.476 . S
C310 N305 1.318 . S
C310 C309 1.396 . S
H311 C306 0.929 . S
O312 Mn288 2.385 . S
O312 C290 1.234 . S
O313 Mn288 2.209 . S
O313 Mn289 2.215 . S
O313 C290 1.283 . S
O314 Mn288 2.094 . S
O314 C292 1.240 . S
O315 Mn289 2.117 . S
O315 C292 1.264 . S
C316 C309 1.403 . S
C316 C317 1.399 . S
C316 H322 0.929 . S
C317 C297 1.449 . S
C317 C316 1.399 . S
C317 H323 0.930 . S
H318 C298 0.931 . S
H319 C299 0.930 . S
H320 C307 0.931 . S
H321 C308 0.929 . S
H322 C316 0.929 . S
H323 C317 0.930 . S
Mn324 O329 2.095 . S
Mn324 O339 2.162 . S
Mn324 O340 2.297 . S
Mn324 O348 2.385 . S
Mn324 O349 2.209 . S
Mn324 O350 2.094 . S
Mn325 O330 2.121 . S
Mn325 N332 2.257 . S
Mn325 N341 2.282 . S
Mn325 O349 2.215 . S
Mn325 O351 2.117 . S
C326 O348 1.234 . S
C326 O349 1.283 . S
C327 O339 1.281 . S
C327 O340 1.236 . S
C328 O350 1.240 . S
C328 O351 1.264 . S
O329 Mn324 2.095 . S
O329 C338 1.250 . S
O330 Mn325 2.121 . S
O330 C338 1.258 . S
C331 N332 1.326 . S
C331 C335 1.460 . S
C331 H337 0.929 . S
N332 Mn325 2.257 . S
N332 C331 1.326 . S
N332 C336 1.362 . S
C333 C334 1.258 . S
C333 C336 1.431 . S
C333 C353 1.449 . S
C334 C333 1.258 . S
C334 C335 1.477 . S
C334 H354 0.931 . S
C335 C331 1.460 . S
C335 C334 1.477 . S
C335 H355 0.930 . S
C336 N332 1.362 . S
C336 C333 1.431 . S
C336 C346 1.476 . S
H337 C331 0.929 . S
C338 O329 1.250 . S
C338 O330 1.258 . S
O339 Mn324 2.162 . S
O339 C327 1.281 . S
O340 Mn324 2.297 . S
O340 C327 1.236 . S
N341 Mn325 2.282 . S
N341 C342 1.328 . S
N341 C346 1.318 . S
C342 N341 1.328 . S
C342 C343 1.457 . S
C342 H347 0.929 . S
C343 C342 1.457 . S
C343 C344 1.291 . S
C343 H356 0.931 . S
C344 C343 1.291 . S
C344 C345 1.373 . S
C344 H357 0.929 . S
C345 C344 1.373 . S
C345 C346 1.396 . S
C345 C352 1.403 . S
C346 C336 1.476 . S
C346 N341 1.318 . S
C346 C345 1.396 . S
H347 C342 0.929 . S
O348 Mn324 2.385 . S
O348 C326 1.234 . S
O349 Mn324 2.209 . S
O349 Mn325 2.215 . S
O349 C326 1.283 . S
O350 Mn324 2.094 . S
O350 C328 1.240 . S
O351 Mn325 2.117 . S
O351 C328 1.264 . S
C352 C345 1.403 . S
C352 C353 1.399 . S
C352 H358 0.929 . S
C353 C333 1.449 . S
C353 C352 1.399 . S
C353 H359 0.930 . S
H354 C334 0.931 . S
H355 C335 0.930 . S
H356 C343 0.931 . S
H357 C344 0.929 . S
H358 C352 0.929 . S
H359 C353 0.930 . S
Mn360 O365 2.095 . S
Mn360 O375 2.162 . S
Mn360 O376 2.297 . S
Mn360 O384 2.385 . S
Mn360 O385 2.209 . S
Mn360 O386 2.094 . S
Mn361 O366 2.121 . S
Mn361 N368 2.257 . S
Mn361 N377 2.282 . S
Mn361 O385 2.215 . S
Mn361 O387 2.117 . S
C362 O384 1.234 . S
C362 O385 1.283 . S
C363 O375 1.281 . S
C363 O376 1.236 . S
C364 O386 1.240 . S
C364 O387 1.264 . S
O365 Mn360 2.095 . S
O365 C374 1.250 . S
O366 Mn361 2.121 . S
O366 C374 1.258 . S
C367 N368 1.326 . S
C367 C371 1.460 . S
C367 H373 0.929 . S
N368 Mn361 2.257 . S
N368 C367 1.326 . S
N368 C372 1.362 . S
C369 C370 1.258 . S
C369 C372 1.431 . S
C369 C389 1.449 . S
C370 C369 1.258 . S
C370 C371 1.477 . S
C370 H390 0.931 . S
C371 C367 1.460 . S
C371 C370 1.477 . S
C371 H391 0.930 . S
C372 N368 1.362 . S
C372 C369 1.431 . S
C372 C382 1.476 . S
H373 C367 0.929 . S
C374 O365 1.250 . S
C374 O366 1.258 . S
O375 Mn360 2.162 . S
O375 C363 1.281 . S
O376 Mn360 2.297 . S
O376 C363 1.236 . S
N377 Mn361 2.282 . S
N377 C378 1.328 . S
N377 C382 1.318 . S
C378 N377 1.328 . S
C378 C379 1.457 . S
C378 H383 0.929 . S
C379 C378 1.457 . S
C379 C380 1.291 . S
C379 H392 0.931 . S
C380 C379 1.291 . S
C380 C381 1.373 . S
C380 H393 0.929 . S
C381 C380 1.373 . S
C381 C382 1.396 . S
C381 C388 1.403 . S
C382 C372 1.476 . S
C382 N377 1.318 . S
C382 C381 1.396 . S
H383 C378 0.929 . S
O384 Mn360 2.385 . S
O384 C362 1.234 . S
O385 Mn360 2.209 . S
O385 Mn361 2.215 . S
O385 C362 1.283 . S
O386 Mn360 2.094 . S
O386 C364 1.240 . S
O387 Mn361 2.117 . S
O387 C364 1.264 . S
C388 C381 1.403 . S
C388 C389 1.399 . S
C388 H394 0.929 . S
C389 C369 1.449 . S
C389 C388 1.399 . S
C389 H395 0.930 . S
H390 C370 0.931 . S
H391 C371 0.930 . S
H392 C379 0.931 . S
H393 C380 0.929 . S
H394 C388 0.929 . S
H395 C389 0.930 . S
Mn396 O401 2.095 . S
Mn396 O411 2.162 . S
Mn396 O412 2.297 . S
Mn396 O420 2.385 1_565 S
Mn396 O421 2.209 1_565 S
Mn396 O422 2.094 . S
Mn397 O402 2.121 . S
Mn397 N404 2.257 . S
Mn397 N413 2.282 . S
Mn397 O421 2.215 . S
Mn397 O423 2.117 . S
C398 O420 1.234 . S
C398 O421 1.283 . S
C399 O411 1.281 . S
C399 O412 1.236 . S
C400 O422 1.223 1_545 S
C400 O423 1.287 . S
O401 Mn396 2.095 . S
O401 C410 1.250 1_565 S
O402 Mn397 2.121 . S
O402 C410 1.258 . S
C403 N404 1.326 . S
C403 C407 1.460 . S
C403 H409 0.929 . S
N404 Mn397 2.257 . S
N404 C403 1.326 . S
N404 C408 1.362 . S
C405 C406 1.258 . S
C405 C408 1.431 . S
C405 C425 1.449 . S
C406 C405 1.258 . S
C406 C407 1.477 . S
C406 H426 0.931 . S
C407 C403 1.460 . S
C407 C406 1.477 . S
C407 H427 0.930 . S
C408 N404 1.362 . S
C408 C405 1.431 . S
C408 C418 1.476 . S
H409 C403 0.929 . S
C410 O401 1.250 1_545 S
C410 O402 1.258 . S
O411 Mn396 2.162 . S
O411 C399 1.281 . S
O412 Mn396 2.297 . S
O412 C399 1.236 . S
N413 Mn397 2.282 . S
N413 C414 1.328 . S
N413 C418 1.318 . S
C414 N413 1.328 . S
C414 C415 1.457 . S
C414 H419 0.929 . S
C415 C414 1.457 . S
C415 C416 1.291 . S
C415 H428 0.931 . S
C416 C415 1.291 . S
C416 C417 1.373 . S
C416 H429 0.929 . S
C417 C416 1.373 . S
C417 C418 1.396 . S
C417 C424 1.403 . S
C418 C408 1.476 . S
C418 N413 1.318 . S
C418 C417 1.396 . S
H419 C414 0.929 . S
O420 Mn396 2.385 1_545 S
O420 C398 1.234 . S
O421 Mn396 2.209 1_545 S
O421 Mn397 2.215 . S
O421 C398 1.283 . S
O422 Mn396 2.094 . S
O422 C400 1.223 1_565 S
O423 Mn397 2.117 . S
O423 C400 1.287 . S
C424 C417 1.403 . S
C424 C425 1.399 . S
C424 H430 0.929 . S
C425 C405 1.449 . S
C425 C424 1.399 . S
C425 H431 0.930 . S
H426 C406 0.931 . S
H427 C407 0.930 . S
H428 C415 0.931 . S
H429 C416 0.929 . S
H430 C424 0.929 . S
H431 C425 0.930 . S
Mn432 O437 2.095 . S
Mn432 O447 2.162 . S
Mn432 O448 2.297 . S
Mn432 O456 2.385 1_455 S
Mn432 O457 2.209 1_455 S
Mn432 O458 2.094 . S
Mn433 O438 2.121 . S
Mn433 N440 2.257 . S
Mn433 N449 2.282 . S
Mn433 O457 2.215 . S
Mn433 O459 2.117 . S
C434 O456 1.234 . S
C434 O457 1.283 . S
C435 O447 1.281 . S
C435 O448 1.236 . S
C436 O458 1.240 . S
C436 O459 1.264 1_455 S
O437 Mn432 2.095 . S
O437 C446 1.250 1_455 S
O438 Mn433 2.121 . S
O438 C446 1.258 . S
C439 N440 1.326 . S
C439 C443 1.460 . S
C439 H445 0.929 . S
N440 Mn433 2.257 . S
N440 C439 1.326 . S
N440 C444 1.362 . S
C441 C442 1.258 . S
C441 C444 1.431 . S
C441 C461 1.449 . S
C442 C441 1.258 . S
C442 C443 1.477 . S
C442 H462 0.931 . S
C443 C439 1.460 . S
C443 C442 1.477 . S
C443 H463 0.930 . S
C444 N440 1.362 . S
C444 C441 1.431 . S
C444 C454 1.476 . S
H445 C439 0.929 . S
C446 O437 1.250 1_655 S
C446 O438 1.258 . S
O447 Mn432 2.162 . S
O447 C435 1.281 . S
O448 Mn432 2.297 . S
O448 C435 1.236 . S
N449 Mn433 2.282 . S
N449 C450 1.328 . S
N449 C454 1.318 . S
C450 N449 1.328 . S
C450 C451 1.457 . S
C450 H455 0.929 . S
C451 C450 1.457 . S
C451 C452 1.291 . S
C451 H464 0.931 . S
C452 C451 1.291 . S
C452 C453 1.373 . S
C452 H465 0.929 . S
C453 C452 1.373 . S
C453 C454 1.396 . S
C453 C460 1.403 . S
C454 C444 1.476 . S
C454 N449 1.318 . S
C454 C453 1.396 . S
H455 C450 0.929 . S
O456 Mn432 2.385 1_655 S
O456 C434 1.234 . S
O457 Mn432 2.209 1_655 S
O457 Mn433 2.215 . S
O457 C434 1.283 . S
O458 Mn432 2.094 . S
O458 C436 1.240 . S
O459 Mn433 2.117 . S
O459 C436 1.264 1_655 S
C460 C453 1.403 . S
C460 C461 1.399 . S
C460 H466 0.929 . S
C461 C441 1.449 . S
C461 C460 1.399 . S
C461 H467 0.930 . S
H462 C442 0.931 . S
H463 C443 0.930 . S
H464 C451 0.931 . S
H465 C452 0.929 . S
H466 C460 0.929 . S
H467 C461 0.930 . S
Mn468 O473 2.095 . S
Mn468 O483 2.162 . S
Mn468 O484 2.297 . S
Mn468 O492 2.385 . S
Mn468 O493 2.209 . S
Mn468 O494 2.094 . S
Mn469 O474 2.121 . S
Mn469 N476 2.257 . S
Mn469 N485 2.282 . S
Mn469 O493 2.215 . S
Mn469 O495 2.117 . S
C470 O492 1.234 . S
C470 O493 1.283 . S
C471 O483 1.281 . S
C471 O484 1.236 . S
C472 O494 1.240 . S
C472 O495 1.264 . S
O473 Mn468 2.095 . S
O473 C482 1.250 . S
O474 Mn469 2.121 . S
O474 C482 1.258 . S
C475 N476 1.326 . S
C475 C479 1.460 . S
C475 H481 0.929 . S
N476 Mn469 2.257 . S
N476 C475 1.326 . S
N476 C480 1.362 . S
C477 C478 1.258 . S
C477 C480 1.431 . S
C477 C497 1.449 . S
C478 C477 1.258 . S
C478 C479 1.477 . S
C478 H498 0.931 . S
C479 C475 1.460 . S
C479 C478 1.477 . S
C479 H499 0.930 . S
C480 N476 1.362 . S
C480 C477 1.431 . S
C480 C490 1.476 . S
H481 C475 0.929 . S
C482 O473 1.250 . S
C482 O474 1.258 . S
O483 Mn468 2.162 . S
O483 C471 1.281 . S
O484 Mn468 2.297 . S
O484 C471 1.236 . S
N485 Mn469 2.282 . S
N485 C486 1.328 . S
N485 C490 1.318 . S
C486 N485 1.328 . S
C486 C487 1.457 . S
C486 H491 0.929 . S
C487 C486 1.457 . S
C487 C488 1.291 . S
C487 H500 0.931 . S
C488 C487 1.291 . S
C488 C489 1.373 . S
C488 H501 0.929 . S
C489 C488 1.373 . S
C489 C490 1.396 . S
C489 C496 1.403 . S
C490 C480 1.476 . S
C490 N485 1.318 . S
C490 C489 1.396 . S
H491 C486 0.929 . S
O492 Mn468 2.385 . S
O492 C470 1.234 . S
O493 Mn468 2.209 . S
O493 Mn469 2.215 . S
O493 C470 1.283 . S
O494 Mn468 2.094 . S
O494 C472 1.240 . S
O495 Mn469 2.117 . S
O495 C472 1.264 . S
C496 C489 1.403 . S
C496 C497 1.399 . S
C496 H502 0.929 . S
C497 C477 1.449 . S
C497 C496 1.399 . S
C497 H503 0.930 . S
H498 C478 0.931 . S
H499 C479 0.930 . S
H500 C487 0.931 . S
H501 C488 0.929 . S
H502 C496 0.929 . S
H503 C497 0.930 . S
Mn504 O509 2.095 1_455 S
Mn504 O519 2.162 . S
Mn504 O520 2.297 1_455 S
Mn504 O528 2.385 . S
Mn504 O529 2.209 1_455 S
Mn504 O530 2.094 . S
Mn505 O510 2.121 . S
Mn505 N512 2.257 . S
Mn505 N521 2.282 1_655 S
Mn505 O529 2.215 . S
Mn505 O531 2.117 1_655 S
C506 O528 1.234 . S
C506 O529 1.283 1_455 S
C507 O519 1.281 . S
C507 O520 1.236 1_455 S
C508 O530 1.240 . S
C508 O531 1.264 . S
O509 Mn504 2.095 1_655 S
O509 C518 1.250 . S
O510 Mn505 2.121 . S
O510 C518 1.258 . S
C511 N512 1.326 . S
C511 C515 1.460 . S
C511 H517 0.929 . S
N512 Mn505 2.257 . S
N512 C511 1.326 . S
N512 C516 1.362 . S
C513 C514 1.258 . S
C513 C516 1.431 . S
C513 C533 1.449 . S
C514 C513 1.258 . S
C514 C515 1.477 . S
C514 H534 0.931 . S
C515 C511 1.460 . S
C515 C514 1.477 . S
C515 H535 0.930 . S
C516 N512 1.362 . S
C516 C513 1.431 . S
C516 C526 1.476 . S
H517 C511 0.929 . S
C518 O509 1.250 . S
C518 O510 1.258 . S
O519 Mn504 2.162 . S
O519 C507 1.281 . S
O520 Mn504 2.297 1_655 S
O520 C507 1.236 1_655 S
N521 Mn505 2.282 1_455 S
N521 C522 1.328 . S
N521 C526 1.318 1_455 S
C522 N521 1.328 . S
C522 C523 1.457 . S
C522 H527 0.929 . S
C523 C522 1.457 . S
C523 C524 1.291 . S
C523 H536 0.931 . S
C524 C523 1.291 . S
C524 C525 1.373 1_455 S
C524 H537 0.929 . S
C525 C524 1.373 1_655 S
C525 C526 1.396 . S
C525 C532 1.403 . S
C526 C516 1.476 . S
C526 N521 1.318 1_655 S
C526 C525 1.396 . S
H527 C522 0.929 . S
O528 Mn504 2.385 . S
O528 C506 1.234 . S
O529 Mn504 2.209 1_655 S
O529 Mn505 2.215 . S
O529 C506 1.283 1_655 S
O530 Mn504 2.094 . S
O530 C508 1.240 . S
O531 Mn505 2.117 1_455 S
O531 C508 1.264 . S
C532 C525 1.403 . S
C532 C533 1.399 . S
C532 H538 0.929 . S
C533 C513 1.449 . S
C533 C532 1.399 . S
C533 H539 0.930 . S
H534 C514 0.931 . S
H535 C515 0.930 . S
H536 C523 0.931 . S
H537 C524 0.929 . S
H538 C532 0.929 . S
H539 C533 0.930 . S
Mn540 O545 2.095 . S
Mn540 O555 2.162 . S
Mn540 O556 2.297 . S
Mn540 O564 2.385 . S
Mn540 O565 2.209 . S
Mn540 O566 2.094 . S
Mn541 O546 2.121 . S
Mn541 N548 2.257 . S
Mn541 N557 2.282 . S
Mn541 O565 2.215 . S
Mn541 O567 2.117 . S
C542 O564 1.234 . S
C542 O565 1.283 . S
C543 O555 1.281 . S
C543 O556 1.236 . S
C544 O566 1.240 . S
C544 O567 1.264 . S
O545 Mn540 2.095 . S
O545 C554 1.250 . S
O546 Mn541 2.121 . S
O546 C554 1.258 . S
C547 N548 1.326 . S
C547 C551 1.460 . S
C547 H553 0.929 . S
N548 Mn541 2.257 . S
N548 C547 1.326 . S
N548 C552 1.362 . S
C549 C550 1.258 . S
C549 C552 1.431 . S
C549 C569 1.449 . S
C550 C549 1.258 . S
C550 C551 1.477 . S
C550 H570 0.931 . S
C551 C547 1.460 . S
C551 C550 1.477 . S
C551 H571 0.930 . S
C552 N548 1.362 . S
C552 C549 1.431 . S
C552 C562 1.476 . S
H553 C547 0.929 . S
C554 O545 1.250 . S
C554 O546 1.258 . S
O555 Mn540 2.162 . S
O555 C543 1.281 . S
O556 Mn540 2.297 . S
O556 C543 1.236 . S
N557 Mn541 2.282 . S
N557 C558 1.328 . S
N557 C562 1.318 . S
C558 N557 1.328 . S
C558 C559 1.457 . S
C558 H563 0.929 . S
C559 C558 1.457 . S
C559 C560 1.291 . S
C559 H572 0.931 . S
C560 C559 1.291 . S
C560 C561 1.373 . S
C560 H573 0.929 . S
C561 C560 1.373 . S
C561 C562 1.396 . S
C561 C568 1.403 . S
C562 C552 1.476 . S
C562 N557 1.318 . S
C562 C561 1.396 . S
H563 C558 0.929 . S
O564 Mn540 2.385 . S
O564 C542 1.234 . S
O565 Mn540 2.209 . S
O565 Mn541 2.215 . S
O565 C542 1.283 . S
O566 Mn540 2.094 . S
O566 C544 1.240 . S
O567 Mn541 2.117 . S
O567 C544 1.264 . S
C568 C561 1.403 . S
C568 C569 1.399 . S
C568 H574 0.929 . S
C569 C549 1.449 . S
C569 C568 1.399 . S
C569 H575 0.930 . S
H570 C550 0.931 . S
H571 C551 0.930 . S
H572 C559 0.931 . S
H573 C560 0.929 . S
H574 C568 0.929 . S
H575 C569 0.930 . S
C576 C577 1.349 . S
C576 C578 1.327 . S
C576 H601 0.950 . S
C577 C576 1.349 . S
C577 C593 1.349 . S
C578 C576 1.327 . S
C578 C597 1.429 . S
C578 H602 0.950 . S
C579 C596 1.574 . S
C579 C598 1.368 . S
C579 H603 0.949 . S
H580 C584 0.949 . S
C581 C582 1.349 . S
C581 C583 1.327 . S
C581 H604 0.950 . S
C582 C581 1.349 . S
C582 C594 1.349 . S
C583 C581 1.327 . S
C583 C599 1.429 . S
C583 H605 0.950 . S
C584 H580 0.949 . S
C584 C592 1.574 . S
C584 C600 1.368 . S
H585 C593 0.950 . S
H586 C591 0.950 . S
H587 C592 0.949 . S
H588 C594 0.950 . S
H589 C595 0.950 . S
H590 C596 0.949 . S
C591 H586 0.950 . S
C591 C593 1.327 . S
C591 C597 1.429 . S
C592 C584 1.574 . S
C592 H587 0.949 . S
C592 C598 1.368 . S
C593 C577 1.349 . S
C593 H585 0.950 . S
C593 C591 1.327 . S
C594 C582 1.349 . S
C594 H588 0.950 . S
C594 C595 1.327 . S
C595 H589 0.950 . S
C595 C594 1.327 . S
C595 C599 1.429 . S
C596 C579 1.574 . S
C596 H590 0.949 . S
C596 C600 1.368 . S
C597 C578 1.429 . S
C597 C591 1.429 . S
C597 C598 1.523 . S
C598 C579 1.368 . S
C598 C592 1.368 . S
C598 C597 1.523 . S
C599 C583 1.429 . S
C599 C595 1.429 . S
C599 C600 1.523 . S
C600 C584 1.368 . S
C600 C596 1.368 . S
C600 C599 1.523 . S
H601 C576 0.950 . S
H602 C578 0.950 . S
H603 C579 0.949 . S
H604 C581 0.950 . S
H605 C583 0.950 . S
C606 C607 1.346 . S
C606 C608 1.327 . S
C606 H631 0.950 . S
C607 C606 1.346 . S
C607 C623 1.349 1_455 S
C608 C606 1.327 . S
C608 C627 1.429 . S
C608 H632 0.950 . S
C609 C626 1.574 . S
C609 C628 1.368 . S
C609 H633 0.949 . S
H610 C614 0.949 . S
C611 C612 1.349 . S
C611 C613 1.327 . S
C611 H634 0.950 . S
C612 C611 1.349 . S
C612 C624 1.349 . S
C613 C611 1.327 . S
C613 C629 1.429 . S
C613 H635 0.950 . S
C614 H610 0.949 . S
C614 C622 1.574 . S
C614 C630 1.368 . S
H615 C623 0.950 . S
H616 C621 0.950 . S
H617 C622 0.949 . S
H618 C624 0.950 . S
H619 C625 0.950 . S
H620 C626 0.949 . S
C621 H616 0.950 . S
C621 C623 1.327 1_455 S
C621 C627 1.429 . S
C622 C614 1.574 . S
C622 H617 0.949 . S
C622 C628 1.368 . S
C623 C607 1.349 1_655 S
C623 H615 0.950 . S
C623 C621 1.327 1_655 S
C624 C612 1.349 . S
C624 H618 0.950 . S
C624 C625 1.327 . S
C625 H619 0.950 . S
C625 C624 1.327 . S
C625 C629 1.429 . S
C626 C609 1.574 . S
C626 H620 0.949 . S
C626 C630 1.368 . S
C627 C608 1.429 . S
C627 C621 1.429 . S
C627 C628 1.523 . S
C628 C609 1.368 . S
C628 C622 1.368 . S
C628 C627 1.523 . S
C629 C613 1.429 . S
C629 C625 1.429 . S
C629 C630 1.523 . S
C630 C614 1.368 . S
C630 C626 1.368 . S
C630 C629 1.523 . S
H631 C606 0.950 . S
H632 C608 0.950 . S
H633 C609 0.949 . S
H634 C611 0.950 . S
H635 C613 0.950 . S
C636 C637 1.349 . S
C636 C638 1.327 . S
C636 H661 0.950 . S
C637 C636 1.349 . S
C637 C653 1.349 . S
C638 C636 1.327 . S
C638 C657 1.429 . S
C638 H662 0.950 . S
C639 C656 1.574 . S
C639 C658 1.368 . S
C639 H663 0.949 . S
H640 C644 0.949 . S
C641 C642 1.349 . S
C641 C643 1.327 . S
C641 H664 0.950 . S
C642 C641 1.349 . S
C642 C654 1.349 . S
C643 C641 1.327 . S
C643 C659 1.429 . S
C643 H665 0.950 . S
C644 H640 0.949 . S
C644 C652 1.574 . S
C644 C660 1.368 . S
H645 C653 0.950 . S
H646 C651 0.950 . S
H647 C652 0.949 . S
H648 C654 0.950 . S
H649 C655 0.950 . S
H650 C656 0.949 . S
C651 H646 0.950 . S
C651 C653 1.327 . S
C651 C657 1.429 . S
C652 C644 1.574 . S
C652 H647 0.949 . S
C652 C658 1.368 . S
C653 C637 1.349 . S
C653 H645 0.950 . S
C653 C651 1.327 . S
C654 C642 1.349 . S
C654 H648 0.950 . S
C654 C655 1.327 . S
C655 H649 0.950 . S
C655 C654 1.327 . S
C655 C659 1.429 . S
C656 C639 1.574 . S
C656 H650 0.949 . S
C656 C660 1.368 . S
C657 C638 1.429 . S
C657 C651 1.429 . S
C657 C658 1.523 . S
C658 C639 1.368 . S
C658 C652 1.368 . S
C658 C657 1.523 . S
C659 C643 1.429 . S
C659 C655 1.429 . S
C659 C660 1.523 . S
C660 C644 1.368 . S
C660 C656 1.368 . S
C660 C659 1.523 . S
H661 C636 0.950 . S
H662 C638 0.950 . S
H663 C639 0.949 . S
H664 C641 0.950 . S
H665 C643 0.950 . S
C666 C667 1.349 . S
C666 C668 1.323 1_465 S
C666 H691 0.950 1_565 S
C667 C666 1.349 . S
C667 C683 1.374 . S
C668 C666 1.323 1_645 S
C668 C687 1.414 1_545 S
C668 H692 0.969 . S
C669 C686 1.574 . S
C669 C688 1.368 . S
C669 H693 0.949 . S
H670 C674 0.949 . S
C671 C672 1.349 1_565 S
C671 C673 1.327 . S
C671 H694 0.950 . S
C672 C671 1.349 1_545 S
C672 C684 1.349 . S
C673 C671 1.327 . S
C673 C689 1.429 . S
C673 H695 0.950 . S
C674 H670 0.949 . S
C674 C682 1.574 . S
C674 C690 1.368 1_545 S
H675 C683 0.956 . S
H676 C681 0.950 . S
H677 C682 0.949 . S
H678 C684 0.950 . S
H679 C685 0.950 . S
H680 C686 0.949 . S
C681 H676 0.950 . S
C681 C683 1.298 1_655 S
C681 C687 1.429 . S
C682 C674 1.574 . S
C682 H677 0.949 . S
C682 C688 1.368 1_545 S
C683 C667 1.374 . S
C683 H675 0.956 . S
C683 C681 1.298 1_455 S
C684 C672 1.349 . S
C684 H678 0.950 . S
C684 C685 1.327 . S
C685 H679 0.950 . S
C685 C684 1.327 . S
C685 C689 1.429 1_545 S
C686 C669 1.574 . S
C686 H680 0.949 . S
C686 C690 1.368 . S
C687 C668 1.414 1_565 S
C687 C681 1.429 . S
C687 C688 1.523 . S
C688 C669 1.368 . S
C688 C682 1.368 1_565 S
C688 C687 1.523 . S
C689 C673 1.429 . S
C689 C685 1.429 1_565 S
C689 C690 1.523 . S
C690 C674 1.368 1_565 S
C690 C686 1.368 . S
C690 C689 1.523 . S
H691 C666 0.950 1_545 S
H692 C668 0.969 . S
H693 C669 0.949 . S
H694 C671 0.950 . S
H695 C673 0.950 . S
C696 C697 1.349 . S
C696 C698 1.327 . S
C696 H721 0.950 . S
C697 C696 1.349 . S
C697 C713 1.349 . S
C698 C696 1.327 . S
C698 C717 1.429 . S
C698 H722 0.950 . S
C699 C716 1.574 . S
C699 C718 1.368 . S
C699 H723 0.949 . S
H700 C704 0.949 . S
C701 C702 1.349 . S
C701 C703 1.327 . S
C701 H724 0.950 . S
C702 C701 1.349 . S
C702 C714 1.349 . S
C703 C701 1.327 . S
C703 C719 1.429 . S
C703 H725 0.950 . S
C704 H700 0.949 . S
C704 C712 1.574 . S
C704 C720 1.368 . S
H705 C713 0.950 . S
H706 C711 0.950 . S
H707 C712 0.949 . S
H708 C714 0.950 . S
H709 C715 0.950 . S
H710 C716 0.949 . S
C711 H706 0.950 . S
C711 C713 1.327 . S
C711 C717 1.429 . S
C712 C704 1.574 . S
C712 H707 0.949 . S
C712 C718 1.368 . S
C713 C697 1.349 . S
C713 H705 0.950 . S
C713 C711 1.327 . S
C714 C702 1.349 . S
C714 H708 0.950 . S
C714 C715 1.327 . S
C715 H709 0.950 . S
C715 C714 1.327 . S
C715 C719 1.429 . S
C716 C699 1.574 . S
C716 H710 0.949 . S
C716 C720 1.368 . S
C717 C698 1.429 . S
C717 C711 1.429 . S
C717 C718 1.523 . S
C718 C699 1.368 . S
C718 C712 1.368 . S
C718 C717 1.523 . S
C719 C703 1.429 . S
C719 C715 1.429 . S
C719 C720 1.523 . S
C720 C704 1.368 . S
C720 C716 1.368 . S
C720 C719 1.523 . S
H721 C696 0.950 . S
H722 C698 0.950 . S
H723 C699 0.949 . S
H724 C701 0.950 . S
H725 C703 0.950 . S
C726 C727 1.349 . S
C726 C728 1.327 . S
C726 H751 0.950 . S
C727 C726 1.349 . S
C727 C743 1.349 . S
C728 C726 1.327 . S
C728 C747 1.429 . S
C728 H752 0.950 . S
C729 C746 1.574 . S
C729 C748 1.368 . S
C729 H753 0.949 . S
H730 C734 0.949 . S
C731 C732 1.349 . S
C731 C733 1.327 . S
C731 H754 0.950 . S
C732 C731 1.349 . S
C732 C744 1.349 . S
C733 C731 1.327 . S
C733 C749 1.429 . S
C733 H755 0.950 . S
C734 H730 0.949 . S
C734 C742 1.574 . S
C734 C750 1.368 . S
H735 C743 0.950 . S
H736 C741 0.950 . S
H737 C742 0.949 . S
H738 C744 0.950 . S
H739 C745 0.950 . S
H740 C746 0.949 . S
C741 H736 0.950 . S
C741 C743 1.327 . S
C741 C747 1.429 . S
C742 C734 1.574 . S
C742 H737 0.949 . S
C742 C748 1.368 . S
C743 C727 1.349 . S
C743 H735 0.950 . S
C743 C741 1.327 . S
C744 C732 1.349 . S
C744 H738 0.950 . S
C744 C745 1.327 . S
C745 H739 0.950 . S
C745 C744 1.327 . S
C745 C749 1.429 . S
C746 C729 1.574 . S
C746 H740 0.949 . S
C746 C750 1.368 . S
C747 C728 1.429 . S
C747 C741 1.429 . S
C747 C748 1.523 . S
C748 C729 1.368 . S
C748 C742 1.368 . S
C748 C747 1.523 . S
C749 C733 1.429 . S
C749 C745 1.429 . S
C749 C750 1.523 . S
C750 C734 1.368 . S
C750 C746 1.368 . S
C750 C749 1.523 . S
H751 C726 0.950 . S
H752 C728 0.950 . S
H753 C729 0.949 . S
H754 C731 0.950 . S
H755 C733 0.950 . S
C756 C757 1.349 . S
C756 C758 1.327 . S
C756 H781 0.950 . S
C757 C756 1.349 . S
C757 C773 1.349 . S
C758 C756 1.327 . S
C758 C777 1.429 . S
C758 H782 0.950 . S
C759 C776 1.574 . S
C759 C778 1.368 . S
C759 H783 0.949 . S
H760 C764 0.949 . S
C761 C762 1.349 . S
C761 C763 1.327 . S
C761 H784 0.950 . S
C762 C761 1.349 . S
C762 C774 1.349 . S
C763 C761 1.327 . S
C763 C779 1.429 . S
C763 H785 0.950 . S
C764 H760 0.949 . S
C764 C772 1.574 . S
C764 C780 1.368 . S
H765 C773 0.950 . S
H766 C771 0.950 . S
H767 C772 0.949 . S
H768 C774 0.950 . S
H769 C775 0.950 . S
H770 C776 0.949 . S
C771 H766 0.950 . S
C771 C773 1.327 . S
C771 C777 1.429 . S
C772 C764 1.574 . S
C772 H767 0.949 . S
C772 C778 1.368 . S
C773 C757 1.349 . S
C773 H765 0.950 . S
C773 C771 1.327 . S
C774 C762 1.349 . S
C774 H768 0.950 . S
C774 C775 1.327 . S
C775 H769 0.950 . S
C775 C774 1.327 . S
C775 C779 1.429 . S
C776 C759 1.574 . S
C776 H770 0.949 . S
C776 C780 1.368 . S
C777 C758 1.429 . S
C777 C771 1.429 . S
C777 C778 1.523 . S
C778 C759 1.368 . S
C778 C772 1.368 . S
C778 C777 1.523 . S
C779 C763 1.429 . S
C779 C775 1.429 . S
C779 C780 1.523 . S
C780 C764 1.368 . S
C780 C776 1.368 . S
C780 C779 1.523 . S
H781 C756 0.950 . S
H782 C758 0.950 . S
H783 C759 0.949 . S
H784 C761 0.950 . S
H785 C763 0.950 . S
C786 C787 1.349 . S
C786 C788 1.327 . S
C786 H811 0.950 . S
C787 C786 1.349 . S
C787 C803 1.349 . S
C788 C786 1.327 . S
C788 C807 1.429 . S
C788 H812 0.950 . S
C789 C806 1.574 . S
C789 C808 1.368 . S
C789 H813 0.949 . S
H790 C794 0.949 . S
C791 C792 1.348 . S
C791 C793 1.327 . S
C791 H814 0.951 1_565 S
C792 C791 1.348 . S
C792 C804 1.349 . S
C793 C791 1.327 . S
C793 C809 1.429 . S
C793 H815 0.946 1_565 S
C794 H790 0.949 . S
C794 C802 1.574 . S
C794 C810 1.368 . S
H795 C803 0.950 . S
H796 C801 0.950 . S
H797 C802 0.949 . S
H798 C804 0.950 . S
H799 C805 0.950 . S
H800 C806 0.949 . S
C801 H796 0.950 . S
C801 C803 1.327 . S
C801 C807 1.429 . S
C802 C794 1.574 . S
C802 H797 0.949 . S
C802 C808 1.368 . S
C803 C787 1.349 . S
C803 H795 0.950 . S
C803 C801 1.327 . S
C804 C792 1.349 . S
C804 H798 0.950 . S
C804 C805 1.327 . S
C805 H799 0.950 . S
C805 C804 1.327 . S
C805 C809 1.429 . S
C806 C789 1.574 . S
C806 H800 0.949 . S
C806 C810 1.368 . S
C807 C788 1.429 . S
C807 C801 1.429 . S
C807 C808 1.523 . S
C808 C789 1.368 . S
C808 C802 1.368 . S
C808 C807 1.523 . S
C809 C793 1.429 . S
C809 C805 1.429 . S
C809 C810 1.523 . S
C810 C794 1.368 . S
C810 C806 1.368 . S
C810 C809 1.523 . S
H811 C786 0.950 . S
H812 C788 0.950 . S
H813 C789 0.949 . S
H814 C791 0.951 1_545 S
H815 C793 0.946 1_545 S
C816 C817 1.349 . S
C816 C818 1.327 . S
C816 H841 0.950 . S
C817 C816 1.349 . S
C817 C833 1.349 . S
C818 C816 1.327 . S
C818 C837 1.429 . S
C818 H842 0.950 . S
C819 C836 1.574 . S
C819 C838 1.368 . S
C819 H843 0.949 . S
H820 C824 0.949 . S
C821 C822 1.349 . S
C821 C823 1.327 . S
C821 H844 0.950 . S
C822 C821 1.349 . S
C822 C834 1.349 . S
C823 C821 1.327 . S
C823 C839 1.429 . S
C823 H845 0.950 . S
C824 H820 0.949 . S
C824 C832 1.574 . S
C824 C840 1.368 . S
H825 C833 0.950 . S
H826 C831 0.950 . S
H827 C832 0.949 . S
H828 C834 0.950 . S
H829 C835 0.950 . S
H830 C836 0.949 . S
C831 H826 0.950 . S
C831 C833 1.327 . S
C831 C837 1.429 . S
C832 C824 1.574 . S
C832 H827 0.949 . S
C832 C838 1.368 . S
C833 C817 1.349 . S
C833 H825 0.950 . S
C833 C831 1.327 . S
C834 C822 1.349 . S
C834 H828 0.950 . S
C834 C835 1.327 . S
C835 H829 0.950 . S
C835 C834 1.327 . S
C835 C839 1.429 . S
C836 C819 1.574 . S
C836 H830 0.949 . S
C836 C840 1.368 . S
C837 C818 1.429 . S
C837 C831 1.429 . S
C837 C838 1.523 . S
C838 C819 1.368 . S
C838 C832 1.368 . S
C838 C837 1.523 . S
C839 C823 1.429 . S
C839 C835 1.429 . S
C839 C840 1.523 . S
C840 C824 1.368 . S
C840 C836 1.368 . S
C840 C839 1.523 . S
H841 C816 0.950 . S
H842 C818 0.950 . S
H843 C819 0.949 . S
H844 C821 0.950 . S
H845 C823 0.950 . S
C846 C847 1.349 . S
C846 C848 1.327 . S
C846 H871 0.950 . S
C847 C846 1.349 . S
C847 C863 1.349 . S
C848 C846 1.327 . S
C848 C867 1.429 . S
C848 H872 0.950 . S
C849 C866 1.574 . S
C849 C868 1.368 . S
C849 H873 0.949 . S
H850 C854 0.949 . S
C851 C852 1.349 . S
C851 C853 1.327 . S
C851 H874 0.950 . S
C852 C851 1.349 . S
C852 C864 1.349 . S
C853 C851 1.327 . S
C853 C869 1.429 . S
C853 H875 0.950 . S
C854 H850 0.949 . S
C854 C862 1.574 . S
C854 C870 1.368 . S
H855 C863 0.950 . S
H856 C861 0.950 . S
H857 C862 0.949 . S
H858 C864 0.950 . S
H859 C865 0.950 . S
H860 C866 0.949 . S
C861 H856 0.950 . S
C861 C863 1.327 . S
C861 C867 1.429 . S
C862 C854 1.574 . S
C862 H857 0.949 . S
C862 C868 1.368 . S
C863 C847 1.349 . S
C863 H855 0.950 . S
C863 C861 1.327 . S
C864 C852 1.349 . S
C864 H858 0.950 . S
C864 C865 1.327 . S
C865 H859 0.950 . S
C865 C864 1.327 . S
C865 C869 1.429 . S
C866 C849 1.574 . S
C866 H860 0.949 . S
C866 C870 1.368 . S
C867 C848 1.429 . S
C867 C861 1.429 . S
C867 C868 1.523 . S
C868 C849 1.368 . S
C868 C862 1.368 . S
C868 C867 1.523 . S
C869 C853 1.429 . S
C869 C865 1.429 . S
C869 C870 1.523 . S
C870 C854 1.368 . S
C870 C866 1.368 . S
C870 C869 1.523 . S
H871 C846 0.950 . S
H872 C848 0.950 . S
H873 C849 0.949 . S
H874 C851 0.950 . S
H875 C853 0.950 . S
C876 C877 1.349 . S
C876 C878 1.327 . S
C876 H901 0.950 . S
C877 C876 1.349 . S
C877 C893 1.349 . S
C878 C876 1.327 . S
C878 C897 1.429 . S
C878 H902 0.950 . S
C879 C896 1.574 . S
C879 C898 1.368 . S
C879 H903 0.949 . S
H880 C884 0.949 . S
C881 C882 1.349 . S
C881 C883 1.327 . S
C881 H904 0.950 . S
C882 C881 1.349 . S
C882 C894 1.349 . S
C883 C881 1.327 . S
C883 C899 1.429 . S
C883 H905 0.950 . S
C884 H880 0.949 . S
C884 C892 1.574 . S
C884 C900 1.368 . S
H885 C893 0.950 . S
H886 C891 0.950 . S
H887 C892 0.949 . S
H888 C894 0.950 . S
H889 C895 0.950 . S
H890 C896 0.949 . S
C891 H886 0.950 . S
C891 C893 1.327 . S
C891 C897 1.429 . S
C892 C884 1.574 . S
C892 H887 0.949 . S
C892 C898 1.368 . S
C893 C877 1.349 . S
C893 H885 0.950 . S
C893 C891 1.327 . S
C894 C882 1.349 . S
C894 H888 0.950 . S
C894 C895 1.327 . S
C895 H889 0.950 . S
C895 C894 1.327 . S
C895 C899 1.429 . S
C896 C879 1.574 . S
C896 H890 0.949 . S
C896 C900 1.368 . S
C897 C878 1.429 . S
C897 C891 1.429 . S
C897 C898 1.523 . S
C898 C879 1.368 . S
C898 C892 1.368 . S
C898 C897 1.523 . S
C899 C883 1.429 . S
C899 C895 1.429 . S
C899 C900 1.523 . S
C900 C884 1.368 . S
C900 C896 1.368 . S
C900 C899 1.523 . S
H901 C876 0.950 . S
H902 C878 0.950 . S
H903 C879 0.949 . S
H904 C881 0.950 . S
H905 C883 0.950 . S
C906 C907 1.349 . S
C906 C908 1.327 . S
C906 H931 0.950 . S
C907 C906 1.349 . S
C907 C923 1.349 . S
C908 C906 1.327 . S
C908 C927 1.429 . S
C908 H932 0.950 . S
C909 C926 1.574 . S
C909 C928 1.368 . S
C909 H933 0.949 . S
H910 C914 0.949 . S
C911 C912 1.349 . S
C911 C913 1.327 . S
C911 H934 0.950 . S
C912 C911 1.349 . S
C912 C924 1.349 . S
C913 C911 1.327 . S
C913 C929 1.429 . S
C913 H935 0.950 . S
C914 H910 0.949 . S
C914 C922 1.574 . S
C914 C930 1.368 . S
H915 C923 0.950 . S
H916 C921 0.950 . S
H917 C922 0.949 . S
H918 C924 0.950 . S
H919 C925 0.950 . S
H920 C926 0.949 . S
C921 H916 0.950 . S
C921 C923 1.327 . S
C921 C927 1.429 . S
C922 C914 1.574 . S
C922 H917 0.949 . S
C922 C928 1.368 . S
C923 C907 1.349 . S
C923 H915 0.950 . S
C923 C921 1.327 . S
C924 C912 1.349 . S
C924 H918 0.950 . S
C924 C925 1.327 . S
C925 H919 0.950 . S
C925 C924 1.327 . S
C925 C929 1.429 . S
C926 C909 1.574 . S
C926 H920 0.949 . S
C926 C930 1.368 . S
C927 C908 1.429 . S
C927 C921 1.429 . S
C927 C928 1.523 . S
C928 C909 1.368 . S
C928 C922 1.368 . S
C928 C927 1.523 . S
C929 C913 1.429 . S
C929 C925 1.429 . S
C929 C930 1.523 . S
C930 C914 1.368 . S
C930 C926 1.368 . S
C930 C929 1.523 . S
H931 C906 0.950 . S
H932 C908 0.950 . S
H933 C909 0.949 . S
H934 C911 0.950 . S
H935 C913 0.950 . S
C936 C937 1.349 . S
C936 C938 1.327 . S
C936 H961 0.950 . S
C937 C936 1.349 . S
C937 C953 1.349 . S
C938 C936 1.327 . S
C938 C957 1.429 . S
C938 H962 0.950 . S
C939 C956 1.574 . S
C939 C958 1.368 . S
C939 H963 0.949 . S
H940 C944 0.949 . S
C941 C942 1.349 . S
C941 C943 1.327 . S
C941 H964 0.950 . S
C942 C941 1.349 . S
C942 C954 1.349 . S
C943 C941 1.327 . S
C943 C959 1.429 . S
C943 H965 0.950 . S
C944 H940 0.949 . S
C944 C952 1.574 . S
C944 C960 1.368 . S
H945 C953 0.950 . S
H946 C951 0.950 . S
H947 C952 0.949 . S
H948 C954 0.950 . S
H949 C955 0.950 . S
H950 C956 0.949 . S
C951 H946 0.950 . S
C951 C953 1.327 . S
C951 C957 1.429 . S
C952 C944 1.574 . S
C952 H947 0.949 . S
C952 C958 1.368 . S
C953 C937 1.349 . S
C953 H945 0.950 . S
C953 C951 1.327 . S
C954 C942 1.349 . S
C954 H948 0.950 . S
C954 C955 1.327 . S
C955 H949 0.950 . S
C955 C954 1.327 . S
C955 C959 1.429 . S
C956 C939 1.574 . S
C956 H950 0.949 . S
C956 C960 1.368 . S
C957 C938 1.429 . S
C957 C951 1.429 . S
C957 C958 1.523 . S
C958 C939 1.368 . S
C958 C952 1.368 . S
C958 C957 1.523 . S
C959 C943 1.429 . S
C959 C955 1.429 . S
C959 C960 1.523 . S
C960 C944 1.368 . S
C960 C956 1.368 . S
C960 C959 1.523 . S
H961 C936 0.950 . S
H962 C938 0.950 . S
H963 C939 0.949 . S
H964 C941 0.950 . S
H965 C943 0.950 . S
C966 C967 1.349 . S
C966 C968 1.327 . S
C966 H991 0.950 . S
C967 C966 1.349 . S
C967 C983 1.349 . S
C968 C966 1.327 . S
C968 C987 1.429 . S
C968 H992 0.950 . S
C969 C986 1.574 . S
C969 C988 1.368 . S
C969 H993 0.949 . S
H970 C974 0.949 1_655 S
C971 C972 1.349 . S
C971 C973 1.327 . S
C971 H994 0.950 . S
C972 C971 1.349 . S
C972 C984 1.349 1_455 S
C973 C971 1.327 . S
C973 C989 1.429 . S
C973 H995 0.950 . S
C974 H970 0.949 1_455 S
C974 C982 1.574 . S
C974 C990 1.368 . S
H975 C983 0.950 . S
H976 C981 0.950 . S
H977 C982 0.949 1_655 S
H978 C984 0.950 . S
H979 C985 0.950 . S
H980 C986 0.949 . S
C981 H976 0.950 . S
C981 C983 1.327 . S
C981 C987 1.429 . S
C982 C974 1.574 . S
C982 H977 0.949 1_455 S
C982 C988 1.368 . S
C983 C967 1.349 . S
C983 H975 0.950 . S
C983 C981 1.327 . S
C984 C972 1.349 1_655 S
C984 H978 0.950 . S
C984 C985 1.327 . S
C985 H979 0.950 . S
C985 C984 1.327 . S
C985 C989 1.429 1_655 S
C986 C969 1.574 . S
C986 H980 0.949 . S
C986 C990 1.368 . S
C987 C968 1.429 . S
C987 C981 1.429 . S
C987 C988 1.523 . S
C988 C969 1.368 . S
C988 C982 1.368 . S
C988 C987 1.523 . S
C989 C973 1.429 . S
C989 C985 1.429 1_455 S
C989 C990 1.523 . S
C990 C974 1.368 . S
C990 C986 1.368 . S
C990 C989 1.523 . S
H991 C966 0.950 . S
H992 C968 0.950 . S
H993 C969 0.949 . S
H994 C971 0.950 . S
H995 C973 0.950 . S
C996 C997 1.349 . S
C996 C998 1.327 . S
C996 H1021 0.950 . S
C997 C996 1.349 . S
C997 C1013 1.349 . S
C998 C996 1.327 . S
C998 C1017 1.429 . S
C998 H1022 0.950 . S
C999 C1016 1.574 . S
C999 C1018 1.368 . S
C999 H1023 0.949 . S
H1000 C1004 0.949 . S
C1001 C1002 1.349 . S
C1001 C1003 1.327 . S
C1001 H1024 0.950 . S
C1002 C1001 1.349 . S
C1002 C1014 1.349 . S
C1003 C1001 1.327 . S
C1003 C1019 1.429 . S
C1003 H1025 0.950 . S
C1004 H1000 0.949 . S
C1004 C1012 1.574 . S
C1004 C1020 1.368 . S
H1005 C1013 0.950 . S
H1006 C1011 0.950 . S
H1007 C1012 0.949 . S
H1008 C1014 0.950 . S
H1009 C1015 0.950 . S
H1010 C1016 0.949 . S
C1011 H1006 0.950 . S
C1011 C1013 1.327 . S
C1011 C1017 1.429 . S
C1012 C1004 1.574 . S
C1012 H1007 0.949 . S
C1012 C1018 1.368 . S
C1013 C997 1.349 . S
C1013 H1005 0.950 . S
C1013 C1011 1.327 . S
C1014 C1002 1.349 . S
C1014 H1008 0.950 . S
C1014 C1015 1.327 . S
C1015 H1009 0.950 . S
C1015 C1014 1.327 . S
C1015 C1019 1.429 . S
C1016 C999 1.574 . S
C1016 H1010 0.949 . S
C1016 C1020 1.368 . S
C1017 C998 1.429 . S
C1017 C1011 1.429 . S
C1017 C1018 1.523 . S
C1018 C999 1.368 . S
C1018 C1012 1.368 . S
C1018 C1017 1.523 . S
C1019 C1003 1.429 . S
C1019 C1015 1.429 . S
C1019 C1020 1.523 . S
C1020 C1004 1.368 . S
C1020 C1016 1.368 . S
C1020 C1019 1.523 . S
H1021 C996 0.950 . S
H1022 C998 0.950 . S
H1023 C999 0.949 . S
H1024 C1001 0.950 . S
H1025 C1003 0.950 . S
C1026 C1027 1.349 . S
C1026 C1028 1.327 . S
C1026 H1051 0.950 . S
C1027 C1026 1.349 . S
C1027 C1043 1.349 . S
C1028 C1026 1.327 . S
C1028 C1047 1.429 . S
C1028 H1052 0.950 . S
C1029 C1046 1.574 . S
C1029 C1048 1.368 . S
C1029 H1053 0.949 . S
H1030 C1034 0.949 . S
C1031 C1032 1.350 . S
C1031 C1033 1.327 . S
C1031 H1054 0.950 . S
C1032 C1031 1.350 . S
C1032 C1044 1.349 . S
C1033 C1031 1.327 . S
C1033 C1049 1.429 . S
C1033 H1055 0.950 . S
C1034 H1030 0.949 . S
C1034 C1042 1.574 . S
C1034 C1050 1.368 . S
H1035 C1043 0.950 . S
H1036 C1041 0.950 . S
H1037 C1042 0.949 . S
H1038 C1044 0.944 1_455 S
H1039 C1045 0.950 . S
H1040 C1046 0.949 . S
C1041 H1036 0.950 . S
C1041 C1043 1.327 . S
C1041 C1047 1.429 . S
C1042 C1034 1.574 . S
C1042 H1037 0.949 . S
C1042 C1048 1.368 . S
C1043 C1027 1.349 . S
C1043 H1035 0.950 . S
C1043 C1041 1.327 . S
C1044 C1032 1.349 . S
C1044 H1038 0.944 1_655 S
C1044 C1045 1.331 . S
C1045 H1039 0.950 . S
C1045 C1044 1.331 . S
C1045 C1049 1.429 . S
C1046 C1029 1.574 . S
C1046 H1040 0.949 . S
C1046 C1050 1.368 . S
C1047 C1028 1.429 . S
C1047 C1041 1.429 . S
C1047 C1048 1.523 . S
C1048 C1029 1.368 . S
C1048 C1042 1.368 . S
C1048 C1047 1.523 . S
C1049 C1033 1.429 . S
C1049 C1045 1.429 . S
C1049 C1050 1.523 . S
C1050 C1034 1.368 . S
C1050 C1046 1.368 . S
C1050 C1049 1.523 . S
H1051 C1026 0.950 . S
H1052 C1028 0.950 . S
H1053 C1029 0.949 . S
H1054 C1031 0.950 . S
H1055 C1033 0.950 . S
C1056 C1057 1.349 . S
C1056 C1058 1.327 . S
C1056 H1081 0.950 . S
C1057 C1056 1.349 . S
C1057 C1073 1.349 . S
C1058 C1056 1.327 . S
C1058 C1077 1.429 . S
C1058 H1082 0.950 . S
C1059 C1076 1.574 . S
C1059 C1078 1.368 . S
C1059 H1083 0.949 . S
H1060 C1064 0.949 . S
C1061 C1062 1.349 . S
C1061 C1063 1.327 . S
C1061 H1084 0.950 . S
C1062 C1061 1.349 . S
C1062 C1074 1.349 . S
C1063 C1061 1.327 . S
C1063 C1079 1.429 . S
C1063 H1085 0.950 . S
C1064 H1060 0.949 . S
C1064 C1072 1.574 . S
C1064 C1080 1.368 . S
H1065 C1073 0.950 . S
H1066 C1071 0.950 . S
H1067 C1072 0.949 . S
H1068 C1074 0.950 . S
H1069 C1075 0.950 . S
H1070 C1076 0.949 . S
C1071 H1066 0.950 . S
C1071 C1073 1.327 . S
C1071 C1077 1.429 . S
C1072 C1064 1.574 . S
C1072 H1067 0.949 . S
C1072 C1078 1.368 . S
C1073 C1057 1.349 . S
C1073 H1065 0.950 . S
C1073 C1071 1.327 . S
C1074 C1062 1.349 . S
C1074 H1068 0.950 . S
C1074 C1075 1.327 . S
C1075 H1069 0.950 . S
C1075 C1074 1.327 . S
C1075 C1079 1.429 . S
C1076 C1059 1.574 . S
C1076 H1070 0.949 . S
C1076 C1080 1.368 . S
C1077 C1058 1.429 . S
C1077 C1071 1.429 . S
C1077 C1078 1.523 . S
C1078 C1059 1.368 . S
C1078 C1072 1.368 . S
C1078 C1077 1.523 . S
C1079 C1063 1.429 . S
C1079 C1075 1.429 . S
C1079 C1080 1.523 . S
C1080 C1064 1.368 . S
C1080 C1076 1.368 . S
C1080 C1079 1.523 . S
H1081 C1056 0.950 . S
H1082 C1058 0.950 . S
H1083 C1059 0.949 . S
H1084 C1061 0.950 . S
H1085 C1063 0.950 . S
C1086 C1087 1.349 . S
C1086 C1088 1.327 . S
C1086 H1111 0.950 . S
C1087 C1086 1.349 . S
C1087 C1103 1.349 . S
C1088 C1086 1.327 . S
C1088 C1107 1.429 . S
C1088 H1112 0.950 . S
C1089 C1106 1.574 . S
C1089 C1108 1.368 . S
C1089 H1113 0.949 . S
H1090 C1094 0.949 . S
C1091 C1092 1.349 . S
C1091 C1093 1.327 . S
C1091 H1114 0.950 . S
C1092 C1091 1.349 . S
C1092 C1104 1.349 . S
C1093 C1091 1.327 . S
C1093 C1109 1.429 . S
C1093 H1115 0.950 . S
C1094 H1090 0.949 . S
C1094 C1102 1.574 . S
C1094 C1110 1.368 . S
H1095 C1103 0.950 . S
H1096 C1101 0.950 . S
H1097 C1102 0.949 . S
H1098 C1104 0.950 . S
H1099 C1105 0.950 . S
H1100 C1106 0.949 . S
C1101 H1096 0.950 . S
C1101 C1103 1.327 . S
C1101 C1107 1.429 . S
C1102 C1094 1.574 . S
C1102 H1097 0.949 . S
C1102 C1108 1.368 . S
C1103 C1087 1.349 . S
C1103 H1095 0.950 . S
C1103 C1101 1.327 . S
C1104 C1092 1.349 . S
C1104 H1098 0.950 . S
C1104 C1105 1.327 . S
C1105 H1099 0.950 . S
C1105 C1104 1.327 . S
C1105 C1109 1.429 . S
C1106 C1089 1.574 . S
C1106 H1100 0.949 . S
C1106 C1110 1.368 . S
C1107 C1088 1.429 . S
C1107 C1101 1.429 . S
C1107 C1108 1.523 . S
C1108 C1089 1.368 . S
C1108 C1102 1.368 . S
C1108 C1107 1.523 . S
C1109 C1093 1.429 . S
C1109 C1105 1.429 . S
C1109 C1110 1.523 . S
C1110 C1094 1.368 . S
C1110 C1106 1.368 . S
C1110 C1109 1.523 . S
H1111 C1086 0.950 . S
H1112 C1088 0.950 . S
H1113 C1089 0.949 . S
H1114 C1091 0.950 . S
H1115 C1093 0.950 . S
C1116 C1117 1.349 . S
C1116 C1118 1.327 . S
C1116 H1141 0.950 . S
C1117 C1116 1.349 . S
C1117 C1133 1.349 1_545 S
C1118 C1116 1.327 . S
C1118 C1137 1.429 1_545 S
C1118 H1142 0.950 1_556 S
C1119 C1136 1.574 . S
C1119 C1138 1.368 . S
C1119 H1143 0.949 . S
H1120 C1124 0.949 . S
C1121 C1122 1.349 1_556 S
C1121 C1123 1.327 . S
C1121 H1144 0.950 . S
C1122 C1121 1.349 1_554 S
C1122 C1134 1.349 . S
C1123 C1121 1.327 . S
C1123 C1139 1.429 . S
C1123 H1145 0.950 . S
C1124 H1120 0.949 . S
C1124 C1132 1.578 . S
C1124 C1140 1.368 1_554 S
H1125 C1133 0.950 . S
H1126 C1131 0.950 . S
H1127 C1132 0.961 . S
H1128 C1134 0.950 . S
H1129 C1135 0.950 . S
H1130 C1136 0.949 . S
C1131 H1126 0.950 . S
C1131 C1133 1.327 . S
C1131 C1137 1.429 . S
C1132 C1124 1.578 . S
C1132 H1127 0.961 . S
C1132 C1138 1.351 1_554 S
C1133 C1117 1.349 1_565 S
C1133 H1125 0.950 . S
C1133 C1131 1.327 . S
C1134 C1122 1.349 . S
C1134 H1128 0.950 . S
C1134 C1135 1.327 . S
C1135 H1129 0.950 . S
C1135 C1134 1.327 . S
C1135 C1139 1.429 1_554 S
C1136 C1119 1.574 . S
C1136 H1130 0.949 . S
C1136 C1140 1.368 . S
C1137 C1118 1.429 1_565 S
C1137 C1131 1.429 . S
C1137 C1138 1.523 . S
C1138 C1119 1.368 . S
C1138 C1132 1.351 1_556 S
C1138 C1137 1.523 . S
C1139 C1123 1.429 . S
C1139 C1135 1.429 1_556 S
C1139 C1140 1.523 . S
C1140 C1124 1.368 1_556 S
C1140 C1136 1.368 . S
C1140 C1139 1.523 . S
H1141 C1116 0.950 . S
H1142 C1118 0.950 1_554 S
H1143 C1119 0.949 . S
H1144 C1121 0.950 . S
H1145 C1123 0.950 . S
C1146 C1147 1.349 . S
C1146 C1148 1.327 . S
C1146 H1171 0.950 . S
C1147 C1146 1.349 . S
C1147 C1163 1.349 . S
C1148 C1146 1.327 . S
C1148 C1167 1.429 . S
C1148 H1172 0.950 . S
C1149 C1166 1.574 . S
C1149 C1168 1.368 . S
C1149 H1173 0.949 . S
H1150 C1154 0.949 . S
C1151 C1152 1.349 . S
C1151 C1153 1.327 . S
C1151 H1174 0.950 . S
C1152 C1151 1.349 . S
C1152 C1164 1.349 . S
C1153 C1151 1.327 . S
C1153 C1169 1.429 . S
C1153 H1175 0.950 . S
C1154 H1150 0.949 . S
C1154 C1162 1.574 . S
C1154 C1170 1.368 . S
H1155 C1163 0.950 . S
H1156 C1161 0.950 . S
H1157 C1162 0.949 . S
H1158 C1164 0.950 . S
H1159 C1165 0.950 . S
H1160 C1166 0.949 . S
C1161 H1156 0.950 . S
C1161 C1163 1.327 . S
C1161 C1167 1.429 . S
C1162 C1154 1.574 . S
C1162 H1157 0.949 . S
C1162 C1168 1.368 . S
C1163 C1147 1.349 . S
C1163 H1155 0.950 . S
C1163 C1161 1.327 . S
C1164 C1152 1.349 . S
C1164 H1158 0.950 . S
C1164 C1165 1.327 . S
C1165 H1159 0.950 . S
C1165 C1164 1.327 . S
C1165 C1169 1.429 . S
C1166 C1149 1.574 . S
C1166 H1160 0.949 . S
C1166 C1170 1.368 . S
C1167 C1148 1.429 . S
C1167 C1161 1.429 . S
C1167 C1168 1.523 . S
C1168 C1149 1.368 . S
C1168 C1162 1.368 . S
C1168 C1167 1.523 . S
C1169 C1153 1.429 . S
C1169 C1165 1.429 . S
C1169 C1170 1.523 . S
C1170 C1154 1.368 . S
C1170 C1166 1.368 . S
C1170 C1169 1.523 . S
H1171 C1146 0.950 . S
H1172 C1148 0.950 . S
H1173 C1149 0.949 . S
H1174 C1151 0.950 . S
H1175 C1153 0.950 . S
C1176 C1177 1.351 . S
C1176 C1178 1.327 . S
C1176 H1201 0.950 1_545 S
C1177 C1176 1.351 . S
C1177 C1193 1.374 . S
C1178 C1176 1.327 . S
C1178 C1197 1.429 . S
C1178 H1202 0.950 . S
C1179 C1196 1.574 . S
C1179 C1198 1.368 . S
C1179 H1203 0.949 . S
H1180 C1184 0.949 . S
C1181 C1182 1.349 . S
C1181 C1183 1.327 . S
C1181 H1204 0.950 . S
C1182 C1181 1.349 . S
C1182 C1194 1.349 . S
C1183 C1181 1.327 . S
C1183 C1199 1.429 . S
C1183 H1205 0.950 . S
C1184 H1180 0.949 . S
C1184 C1192 1.574 . S
C1184 C1200 1.368 . S
H1185 C1193 0.950 . S
H1186 C1191 0.950 . S
H1187 C1192 0.949 . S
H1188 C1194 0.950 . S
H1189 C1195 0.950 . S
H1190 C1196 0.949 . S
C1191 H1186 0.950 . S
C1191 C1193 1.327 . S
C1191 C1197 1.429 . S
C1192 C1184 1.574 . S
C1192 H1187 0.949 . S
C1192 C1198 1.368 . S
C1193 C1177 1.374 . S
C1193 H1185 0.950 . S
C1193 C1191 1.327 . S
C1194 C1182 1.349 . S
C1194 H1188 0.950 . S
C1194 C1195 1.327 . S
C1195 H1189 0.950 . S
C1195 C1194 1.327 . S
C1195 C1199 1.429 . S
C1196 C1179 1.574 . S
C1196 H1190 0.949 . S
C1196 C1200 1.368 . S
C1197 C1178 1.429 . S
C1197 C1191 1.429 . S
C1197 C1198 1.523 . S
C1198 C1179 1.368 . S
C1198 C1192 1.368 . S
C1198 C1197 1.523 . S
C1199 C1183 1.429 . S
C1199 C1195 1.429 . S
C1199 C1200 1.523 . S
C1200 C1184 1.368 . S
C1200 C1196 1.368 . S
C1200 C1199 1.523 . S
H1201 C1176 0.950 1_565 S
H1202 C1178 0.950 . S
H1203 C1179 0.949 . S
H1204 C1181 0.950 . S
H1205 C1183 0.950 . S
C1206 C1207 1.349 . S
C1206 C1208 1.327 . S
C1206 H1231 0.950 . S
C1207 C1206 1.349 . S
C1207 C1223 1.349 . S
C1208 C1206 1.327 . S
C1208 C1227 1.429 . S
C1208 H1232 0.950 . S
C1209 C1226 1.574 . S
C1209 C1228 1.368 . S
C1209 H1233 0.949 . S
H1210 C1214 0.949 . S
C1211 C1212 1.349 . S
C1211 C1213 1.327 . S
C1211 H1234 0.950 . S
C1212 C1211 1.349 . S
C1212 C1224 1.349 . S
C1213 C1211 1.327 . S
C1213 C1229 1.429 . S
C1213 H1235 0.950 . S
C1214 H1210 0.949 . S
C1214 C1222 1.574 . S
C1214 C1230 1.368 . S
H1215 C1223 0.950 . S
H1216 C1221 0.950 . S
H1217 C1222 0.949 . S
H1218 C1224 0.950 . S
H1219 C1225 0.950 . S
H1220 C1226 0.949 . S
C1221 H1216 0.950 . S
C1221 C1223 1.327 . S
C1221 C1227 1.429 . S
C1222 C1214 1.574 . S
C1222 H1217 0.949 . S
C1222 C1228 1.368 . S
C1223 C1207 1.349 . S
C1223 H1215 0.950 . S
C1223 C1221 1.327 . S
C1224 C1212 1.349 . S
C1224 H1218 0.950 . S
C1224 C1225 1.327 . S
C1225 H1219 0.950 . S
C1225 C1224 1.327 . S
C1225 C1229 1.429 . S
C1226 C1209 1.574 . S
C1226 H1220 0.949 . S
C1226 C1230 1.368 . S
C1227 C1208 1.429 . S
C1227 C1221 1.429 . S
C1227 C1228 1.523 . S
C1228 C1209 1.368 . S
C1228 C1222 1.368 . S
C1228 C1227 1.523 . S
C1229 C1213 1.429 . S
C1229 C1225 1.429 . S
C1229 C1230 1.523 . S
C1230 C1214 1.368 . S
C1230 C1226 1.368 . S
C1230 C1229 1.523 . S
H1231 C1206 0.950 . S
H1232 C1208 0.950 . S
H1233 C1209 0.949 . S
H1234 C1211 0.950 . S
H1235 C1213 0.950 . S
C1236 C1237 1.349 . S
C1236 C1238 1.324 . S
C1236 H1261 0.950 . S
C1237 C1236 1.349 . S
C1237 C1253 1.349 1_565 S
C1238 C1236 1.324 . S
C1238 C1257 1.433 1_565 S
C1238 H1262 0.948 . S
C1239 C1256 1.574 . S
C1239 C1258 1.368 . S
C1239 H1263 0.949 . S
H1240 C1244 0.949 . S
C1241 C1242 1.349 . S
C1241 C1243 1.327 . S
C1241 H1264 0.950 . S
C1242 C1241 1.349 . S
C1242 C1254 1.349 . S
C1243 C1241 1.327 . S
C1243 C1259 1.429 . S
C1243 H1265 0.950 . S
C1244 H1240 0.949 . S
C1244 C1252 1.574 . S
C1244 C1260 1.368 . S
H1245 C1253 0.950 . S
H1246 C1251 0.950 . S
H1247 C1252 0.949 . S
H1248 C1254 0.950 . S
H1249 C1255 0.950 . S
H1250 C1256 0.949 . S
C1251 H1246 0.950 . S
C1251 C1253 1.327 . S
C1251 C1257 1.429 . S
C1252 C1244 1.574 . S
C1252 H1247 0.949 . S
C1252 C1258 1.368 . S
C1253 C1237 1.349 1_545 S
C1253 H1245 0.950 . S
C1253 C1251 1.327 . S
C1254 C1242 1.349 . S
C1254 H1248 0.950 . S
C1254 C1255 1.327 . S
C1255 H1249 0.950 . S
C1255 C1254 1.327 . S
C1255 C1259 1.429 . S
C1256 C1239 1.574 . S
C1256 H1250 0.949 . S
C1256 C1260 1.368 . S
C1257 C1238 1.433 1_545 S
C1257 C1251 1.429 . S
C1257 C1258 1.523 . S
C1258 C1239 1.368 . S
C1258 C1252 1.368 . S
C1258 C1257 1.523 . S
C1259 C1243 1.429 . S
C1259 C1255 1.429 . S
C1259 C1260 1.523 . S
C1260 C1244 1.368 . S
C1260 C1256 1.368 . S
C1260 C1259 1.523 . S
H1261 C1236 0.950 . S
H1262 C1238 0.948 . S
H1263 C1239 0.949 . S
H1264 C1241 0.950 . S
H1265 C1243 0.950 . S
C1266 C1267 1.349 . S
C1266 C1268 1.327 . S
C1266 H1291 0.950 . S
C1267 C1266 1.349 . S
C1267 C1283 1.349 . S
C1268 C1266 1.327 . S
C1268 C1287 1.429 . S
C1268 H1292 0.950 . S
C1269 C1286 1.574 . S
C1269 C1288 1.368 . S
C1269 H1293 0.949 . S
H1270 C1274 0.949 . S
C1271 C1272 1.349 . S
C1271 C1273 1.327 . S
C1271 H1294 0.950 . S
C1272 C1271 1.349 . S
C1272 C1284 1.349 . S
C1273 C1271 1.327 . S
C1273 C1289 1.429 . S
C1273 H1295 0.950 . S
C1274 H1270 0.949 . S
C1274 C1282 1.574 . S
C1274 C1290 1.368 . S
H1275 C1283 0.950 . S
H1276 C1281 0.950 . S
H1277 C1282 0.949 . S
H1278 C1284 0.950 . S
H1279 C1285 0.950 . S
H1280 C1286 0.949 . S
C1281 H1276 0.950 . S
C1281 C1283 1.327 . S
C1281 C1287 1.429 . S
C1282 C1274 1.574 . S
C1282 H1277 0.949 . S
C1282 C1288 1.368 . S
C1283 C1267 1.349 . S
C1283 H1275 0.950 . S
C1283 C1281 1.327 . S
C1284 C1272 1.349 . S
C1284 H1278 0.950 . S
C1284 C1285 1.327 . S
C1285 H1279 0.950 . S
C1285 C1284 1.327 . S
C1285 C1289 1.429 . S
C1286 C1269 1.574 . S
C1286 H1280 0.949 . S
C1286 C1290 1.368 . S
C1287 C1268 1.429 . S
C1287 C1281 1.429 . S
C1287 C1288 1.523 . S
C1288 C1269 1.368 . S
C1288 C1282 1.368 . S
C1288 C1287 1.523 . S
C1289 C1273 1.429 . S
C1289 C1285 1.429 . S
C1289 C1290 1.523 . S
C1290 C1274 1.368 . S
C1290 C1286 1.368 . S
C1290 C1289 1.523 . S
H1291 C1266 0.950 . S
H1292 C1268 0.950 . S
H1293 C1269 0.949 . S
H1294 C1271 0.950 . S
H1295 C1273 0.950 . S
C1296 C1297 1.349 . S
C1296 C1298 1.327 . S
C1296 H1321 0.950 . S
C1297 C1296 1.349 . S
C1297 C1313 1.349 . S
C1298 C1296 1.327 . S
C1298 C1317 1.429 . S
C1298 H1322 0.950 . S
C1299 C1316 1.574 . S
C1299 C1318 1.368 . S
C1299 H1323 0.949 . S
H1300 C1304 0.949 . S
C1301 C1302 1.349 . S
C1301 C1303 1.327 . S
C1301 H1324 0.950 . S
C1302 C1301 1.349 . S
C1302 C1314 1.349 . S
C1303 C1301 1.327 . S
C1303 C1319 1.429 . S
C1303 H1325 0.950 . S
C1304 H1300 0.949 . S
C1304 C1312 1.574 . S
C1304 C1320 1.368 . S
H1305 C1313 0.950 . S
H1306 C1311 0.950 . S
H1307 C1312 0.949 . S
H1308 C1314 0.950 . S
H1309 C1315 0.950 . S
H1310 C1316 0.949 . S
C1311 H1306 0.950 . S
C1311 C1313 1.327 . S
C1311 C1317 1.429 . S
C1312 C1304 1.574 . S
C1312 H1307 0.949 . S
C1312 C1318 1.368 . S
C1313 C1297 1.349 . S
C1313 H1305 0.950 . S
C1313 C1311 1.327 . S
C1314 C1302 1.349 . S
C1314 H1308 0.950 . S
C1314 C1315 1.327 . S
C1315 H1309 0.950 . S
C1315 C1314 1.327 . S
C1315 C1319 1.429 . S
C1316 C1299 1.574 . S
C1316 H1310 0.949 . S
C1316 C1320 1.368 . S
C1317 C1298 1.429 . S
C1317 C1311 1.429 . S
C1317 C1318 1.523 . S
C1318 C1299 1.368 . S
C1318 C1312 1.368 . S
C1318 C1317 1.523 . S
C1319 C1303 1.429 . S
C1319 C1315 1.429 . S
C1319 C1320 1.523 . S
C1320 C1304 1.368 . S
C1320 C1316 1.368 . S
C1320 C1319 1.523 . S
H1321 C1296 0.950 . S
H1322 C1298 0.950 . S
H1323 C1299 0.949 . S
H1324 C1301 0.950 . S
H1325 C1303 0.950 . S
C1326 C1327 1.349 . S
C1326 C1328 1.327 . S
C1326 H1351 0.950 . S
C1327 C1326 1.349 . S
C1327 C1343 1.349 . S
C1328 C1326 1.327 . S
C1328 C1347 1.429 . S
C1328 H1352 0.987 . S
C1329 C1346 1.574 . S
C1329 C1348 1.368 . S
C1329 H1353 0.949 . S
H1330 C1334 0.949 1_565 S
C1331 C1332 1.349 . S
C1331 C1333 1.327 . S
C1331 H1354 0.950 . S
C1332 C1331 1.349 . S
C1332 C1344 1.349 1_545 S
C1333 C1331 1.327 . S
C1333 C1349 1.429 . S
C1333 H1355 0.950 . S
C1334 H1330 0.949 1_545 S
C1334 C1342 1.574 . S
C1334 C1350 1.368 . S
H1335 C1343 0.950 . S
H1336 C1341 0.950 . S
H1337 C1342 0.949 1_565 S
H1338 C1344 0.950 . S
H1339 C1345 0.950 . S
H1340 C1346 0.949 . S
C1341 H1336 0.950 . S
C1341 C1343 1.327 . S
C1341 C1347 1.429 . S
C1342 C1334 1.574 . S
C1342 H1337 0.949 1_545 S
C1342 C1348 1.368 . S
C1343 C1327 1.349 . S
C1343 H1335 0.950 . S
C1343 C1341 1.327 . S
C1344 C1332 1.349 1_565 S
C1344 H1338 0.950 . S
C1344 C1345 1.327 . S
C1345 H1339 0.950 . S
C1345 C1344 1.327 . S
C1345 C1349 1.429 1_565 S
C1346 C1329 1.574 . S
C1346 H1340 0.949 . S
C1346 C1350 1.368 . S
C1347 C1328 1.429 . S
C1347 C1341 1.429 . S
C1347 C1348 1.523 . S
C1348 C1329 1.368 . S
C1348 C1342 1.368 . S
C1348 C1347 1.523 . S
C1349 C1333 1.429 . S
C1349 C1345 1.429 1_545 S
C1349 C1350 1.523 . S
C1350 C1334 1.368 . S
C1350 C1346 1.368 . S
C1350 C1349 1.523 . S
H1351 C1326 0.950 . S
H1352 C1328 0.987 . S
H1353 C1329 0.949 . S
H1354 C1331 0.950 . S
H1355 C1333 0.950 . S
C1356 C1357 1.349 . S
C1356 C1358 1.327 . S
C1356 H1381 0.950 . S
C1357 C1356 1.349 . S
C1357 C1373 1.349 . S
C1358 C1356 1.327 . S
C1358 C1377 1.429 . S
C1358 H1382 0.950 . S
C1359 C1376 1.574 . S
C1359 C1378 1.368 . S
C1359 H1383 0.949 . S
H1360 C1364 0.949 . S
C1361 C1362 1.349 . S
C1361 C1363 1.327 . S
C1361 H1384 0.950 . S
C1362 C1361 1.349 . S
C1362 C1374 1.349 . S
C1363 C1361 1.327 . S
C1363 C1379 1.429 . S
C1363 H1385 0.950 . S
C1364 H1360 0.949 . S
C1364 C1372 1.574 . S
C1364 C1380 1.368 . S
H1365 C1373 0.950 . S
H1366 C1371 0.950 . S
H1367 C1372 0.949 . S
H1368 C1374 0.950 . S
H1369 C1375 0.950 . S
H1370 C1376 0.949 . S
C1371 H1366 0.950 . S
C1371 C1373 1.327 . S
C1371 C1377 1.429 . S
C1372 C1364 1.574 . S
C1372 H1367 0.949 . S
C1372 C1378 1.368 . S
C1373 C1357 1.349 . S
C1373 H1365 0.950 . S
C1373 C1371 1.327 . S
C1374 C1362 1.349 . S
C1374 H1368 0.950 . S
C1374 C1375 1.327 . S
C1375 H1369 0.950 . S
C1375 C1374 1.327 . S
C1375 C1379 1.429 . S
C1376 C1359 1.574 . S
C1376 H1370 0.949 . S
C1376 C1380 1.368 . S
C1377 C1358 1.429 . S
C1377 C1371 1.429 . S
C1377 C1378 1.523 . S
C1378 C1359 1.368 . S
C1378 C1372 1.368 . S
C1378 C1377 1.523 . S
C1379 C1363 1.429 . S
C1379 C1375 1.429 . S
C1379 C1380 1.523 . S
C1380 C1364 1.368 . S
C1380 C1376 1.368 . S
C1380 C1379 1.523 . S
H1381 C1356 0.950 . S
H1382 C1358 0.950 . S
H1383 C1359 0.949 . S
H1384 C1361 0.950 . S
H1385 C1363 0.950 . S
C1386 C1387 1.349 . S
C1386 C1388 1.327 . S
C1386 H1411 0.950 . S
C1387 C1386 1.349 . S
C1387 C1403 1.349 . S
C1388 C1386 1.327 . S
C1388 C1407 1.429 . S
C1388 H1412 0.950 . S
C1389 C1406 1.574 . S
C1389 C1408 1.368 . S
C1389 H1413 0.949 . S
H1390 C1394 0.949 . S
C1391 C1392 1.349 . S
C1391 C1393 1.327 . S
C1391 H1414 0.950 . S
C1392 C1391 1.349 . S
C1392 C1404 1.349 . S
C1393 C1391 1.327 . S
C1393 C1409 1.429 . S
C1393 H1415 0.950 . S
C1394 H1390 0.949 . S
C1394 C1402 1.574 . S
C1394 C1410 1.368 . S
H1395 C1403 0.950 . S
H1396 C1401 0.950 . S
H1397 C1402 0.949 . S
H1398 C1404 0.950 . S
H1399 C1405 0.950 . S
H1400 C1406 0.949 . S
C1401 H1396 0.950 . S
C1401 C1403 1.327 . S
C1401 C1407 1.429 . S
C1402 C1394 1.574 . S
C1402 H1397 0.949 . S
C1402 C1408 1.368 . S
C1403 C1387 1.349 . S
C1403 H1395 0.950 . S
C1403 C1401 1.327 . S
C1404 C1392 1.349 . S
C1404 H1398 0.950 . S
C1404 C1405 1.327 . S
C1405 H1399 0.950 . S
C1405 C1404 1.327 . S
C1405 C1409 1.429 . S
C1406 C1389 1.574 . S
C1406 H1400 0.949 . S
C1406 C1410 1.368 . S
C1407 C1388 1.429 . S
C1407 C1401 1.429 . S
C1407 C1408 1.523 . S
C1408 C1389 1.368 . S
C1408 C1402 1.368 . S
C1408 C1407 1.523 . S
C1409 C1393 1.429 . S
C1409 C1405 1.429 . S
C1409 C1410 1.523 . S
C1410 C1394 1.368 . S
C1410 C1406 1.368 . S
C1410 C1409 1.523 . S
H1411 C1386 0.950 . S
H1412 C1388 0.950 . S
H1413 C1389 0.949 . S
H1414 C1391 0.950 . S
H1415 C1393 0.950 . S
C1416 C1417 1.349 . S
C1416 C1418 1.327 . S
C1416 H1441 0.950 . S
C1417 C1416 1.349 . S
C1417 C1433 1.349 . S
C1418 C1416 1.327 . S
C1418 C1437 1.429 . S
C1418 H1442 0.950 . S
C1419 C1436 1.574 . S
C1419 C1438 1.368 . S
C1419 H1443 0.949 . S
H1420 C1424 0.949 . S
C1421 C1422 1.349 . S
C1421 C1423 1.327 . S
C1421 H1444 0.950 . S
C1422 C1421 1.349 . S
C1422 C1434 1.349 . S
C1423 C1421 1.327 . S
C1423 C1439 1.429 . S
C1423 H1445 0.950 . S
C1424 H1420 0.949 . S
C1424 C1432 1.574 . S
C1424 C1440 1.368 . S
H1425 C1433 0.950 . S
H1426 C1431 0.950 . S
H1427 C1432 0.949 . S
H1428 C1434 0.950 . S
H1429 C1435 0.950 . S
H1430 C1436 0.949 . S
C1431 H1426 0.950 . S
C1431 C1433 1.327 . S
C1431 C1437 1.429 . S
C1432 C1424 1.574 . S
C1432 H1427 0.949 . S
C1432 C1438 1.368 . S
C1433 C1417 1.349 . S
C1433 H1425 0.950 . S
C1433 C1431 1.327 . S
C1434 C1422 1.349 . S
C1434 H1428 0.950 . S
C1434 C1435 1.327 . S
C1435 H1429 0.950 . S
C1435 C1434 1.327 . S
C1435 C1439 1.429 . S
C1436 C1419 1.574 . S
C1436 H1430 0.949 . S
C1436 C1440 1.368 . S
C1437 C1418 1.429 . S
C1437 C1431 1.429 . S
C1437 C1438 1.523 . S
C1438 C1419 1.368 . S
C1438 C1432 1.368 . S
C1438 C1437 1.523 . S
C1439 C1423 1.429 . S
C1439 C1435 1.429 . S
C1439 C1440 1.523 . S
C1440 C1424 1.368 . S
C1440 C1436 1.368 . S
C1440 C1439 1.523 . S
H1441 C1416 0.950 . S
H1442 C1418 0.950 . S
H1443 C1419 0.949 . S
H1444 C1421 0.950 . S
H1445 C1423 0.950 . S
C1446 C1447 1.349 . S
C1446 C1448 1.350 . S
C1446 H1471 0.950 . S
C1447 C1446 1.349 . S
C1447 C1463 1.349 1_455 S
C1448 C1446 1.350 . S
C1448 C1467 1.397 1_455 S
C1448 H1472 0.959 . S
C1449 C1466 1.574 . S
C1449 C1468 1.368 . S
C1449 H1473 0.949 . S
H1450 C1454 0.949 1_565 S
C1451 C1452 1.349 . S
C1451 C1453 1.327 . S
C1451 H1474 0.950 . S
C1452 C1451 1.349 . S
C1452 C1464 1.321 1_545 S
C1453 C1451 1.327 . S
C1453 C1469 1.429 . S
C1453 H1475 0.950 . S
C1454 H1450 0.949 1_545 S
C1454 C1462 1.574 . S
C1454 C1470 1.368 . S
H1455 C1463 0.950 . S
H1456 C1461 0.950 . S
H1457 C1462 0.949 1_565 S
H1458 C1464 0.982 . S
H1459 C1465 0.916 1_565 S
H1460 C1466 0.949 . S
C1461 H1456 0.950 . S
C1461 C1463 1.327 . S
C1461 C1467 1.429 . S
C1462 C1454 1.574 . S
C1462 H1457 0.949 1_545 S
C1462 C1468 1.368 . S
C1463 C1447 1.349 1_655 S
C1463 H1455 0.950 . S
C1463 C1461 1.327 . S
C1464 C1452 1.321 1_565 S
C1464 H1458 0.982 . S
C1464 C1465 1.323 1_565 S
C1465 H1459 0.916 1_545 S
C1465 C1464 1.323 1_545 S
C1465 C1469 1.467 . S
C1466 C1449 1.574 . S
C1466 H1460 0.949 . S
C1466 C1470 1.368 . S
C1467 C1448 1.397 1_655 S
C1467 C1461 1.429 . S
C1467 C1468 1.523 . S
C1468 C1449 1.368 . S
C1468 C1462 1.368 . S
C1468 C1467 1.523 . S
C1469 C1453 1.429 . S
C1469 C1465 1.467 . S
C1469 C1470 1.523 . S
C1470 C1454 1.368 . S
C1470 C1466 1.368 . S
C1470 C1469 1.523 . S
H1471 C1446 0.950 . S
H1472 C1448 0.959 . S
H1473 C1449 0.949 . S
H1474 C1451 0.950 . S
H1475 C1453 0.950 . S
C1476 C1477 1.349 . S
C1476 C1478 1.327 . S
C1476 H1501 0.950 . S
C1477 C1476 1.349 . S
C1477 C1493 1.349 . S
C1478 C1476 1.327 . S
C1478 C1497 1.429 . S
C1478 H1502 0.950 . S
C1479 C1496 1.574 . S
C1479 C1498 1.368 . S
C1479 H1503 0.949 . S
H1480 C1484 0.949 . S
C1481 C1482 1.349 . S
C1481 C1483 1.327 . S
C1481 H1504 0.950 . S
C1482 C1481 1.349 . S
C1482 C1494 1.349 . S
C1483 C1481 1.327 . S
C1483 C1499 1.429 . S
C1483 H1505 0.950 . S
C1484 H1480 0.949 . S
C1484 C1492 1.574 . S
C1484 C1500 1.368 . S
H1485 C1493 0.950 . S
H1486 C1491 0.950 . S
H1487 C1492 0.949 . S
H1488 C1494 0.950 . S
H1489 C1495 0.950 . S
H1490 C1496 0.949 . S
C1491 H1486 0.950 . S
C1491 C1493 1.327 . S
C1491 C1497 1.429 . S
C1492 C1484 1.574 . S
C1492 H1487 0.949 . S
C1492 C1498 1.368 . S
C1493 C1477 1.349 . S
C1493 H1485 0.950 . S
C1493 C1491 1.327 . S
C1494 C1482 1.349 . S
C1494 H1488 0.950 . S
C1494 C1495 1.327 . S
C1495 H1489 0.950 . S
C1495 C1494 1.327 . S
C1495 C1499 1.429 . S
C1496 C1479 1.574 . S
C1496 H1490 0.949 . S
C1496 C1500 1.368 . S
C1497 C1478 1.429 . S
C1497 C1491 1.429 . S
C1497 C1498 1.523 . S
C1498 C1479 1.368 . S
C1498 C1492 1.368 . S
C1498 C1497 1.523 . S
C1499 C1483 1.429 . S
C1499 C1495 1.429 . S
C1499 C1500 1.523 . S
C1500 C1484 1.368 . S
C1500 C1496 1.368 . S
C1500 C1499 1.523 . S
H1501 C1476 0.950 . S
H1502 C1478 0.950 . S
H1503 C1479 0.949 . S
H1504 C1481 0.950 . S
H1505 C1483 0.950 . S
C1506 C1507 1.349 1_455 S
C1506 C1508 1.327 . S
C1506 H1531 0.950 . S
C1507 C1506 1.349 1_655 S
C1507 C1523 1.349 . S
C1508 C1506 1.327 . S
C1508 C1527 1.429 . S
C1508 H1532 0.950 . S
C1509 C1526 1.574 . S
C1509 C1528 1.368 . S
C1509 H1533 0.949 . S
H1510 C1514 0.949 . S
C1511 C1512 1.349 . S
C1511 C1513 1.327 . S
C1511 H1534 0.950 . S
C1512 C1511 1.349 . S
C1512 C1524 1.349 . S
C1513 C1511 1.327 . S
C1513 C1529 1.429 . S
C1513 H1535 0.950 . S
C1514 H1510 0.949 . S
C1514 C1522 1.574 . S
C1514 C1530 1.368 . S
H1515 C1523 0.950 . S
H1516 C1521 0.950 . S
H1517 C1522 0.949 . S
H1518 C1524 0.950 . S
H1519 C1525 0.950 . S
H1520 C1526 0.949 . S
C1521 H1516 0.950 . S
C1521 C1523 1.327 1_455 S
C1521 C1527 1.429 . S
C1522 C1514 1.574 . S
C1522 H1517 0.949 . S
C1522 C1528 1.368 . S
C1523 C1507 1.349 . S
C1523 H1515 0.950 . S
C1523 C1521 1.327 1_655 S
C1524 C1512 1.349 . S
C1524 H1518 0.950 . S
C1524 C1525 1.327 . S
C1525 H1519 0.950 . S
C1525 C1524 1.327 . S
C1525 C1529 1.429 . S
C1526 C1509 1.574 . S
C1526 H1520 0.949 . S
C1526 C1530 1.368 . S
C1527 C1508 1.429 . S
C1527 C1521 1.429 . S
C1527 C1528 1.523 . S
C1528 C1509 1.368 . S
C1528 C1522 1.368 . S
C1528 C1527 1.523 . S
C1529 C1513 1.429 . S
C1529 C1525 1.429 . S
C1529 C1530 1.523 . S
C1530 C1514 1.368 . S
C1530 C1526 1.368 . S
C1530 C1529 1.523 . S
H1531 C1506 0.950 . S
H1532 C1508 0.950 . S
H1533 C1509 0.949 . S
H1534 C1511 0.950 . S
H1535 C1513 0.950 . S
C1536 C1537 1.349 . S
C1536 C1538 1.327 . S
C1536 H1561 0.950 . S
C1537 C1536 1.349 . S
C1537 C1553 1.349 . S
C1538 C1536 1.327 . S
C1538 C1557 1.429 . S
C1538 H1562 0.950 . S
C1539 C1556 1.574 . S
C1539 C1558 1.368 . S
C1539 H1563 0.949 . S
H1540 C1544 0.949 . S
C1541 C1542 1.349 . S
C1541 C1543 1.327 . S
C1541 H1564 0.950 . S
C1542 C1541 1.349 . S
C1542 C1554 1.349 . S
C1543 C1541 1.327 . S
C1543 C1559 1.429 . S
C1543 H1565 0.950 . S
C1544 H1540 0.949 . S
C1544 C1552 1.574 . S
C1544 C1560 1.368 . S
H1545 C1553 0.950 . S
H1546 C1551 0.950 . S
H1547 C1552 0.949 . S
H1548 C1554 0.950 . S
H1549 C1555 0.950 . S
H1550 C1556 0.949 . S
C1551 H1546 0.950 . S
C1551 C1553 1.327 . S
C1551 C1557 1.429 . S
C1552 C1544 1.574 . S
C1552 H1547 0.949 . S
C1552 C1558 1.368 . S
C1553 C1537 1.349 . S
C1553 H1545 0.950 . S
C1553 C1551 1.327 . S
C1554 C1542 1.349 . S
C1554 H1548 0.950 . S
C1554 C1555 1.327 . S
C1555 H1549 0.950 . S
C1555 C1554 1.327 . S
C1555 C1559 1.429 . S
C1556 C1539 1.574 . S
C1556 H1550 0.949 . S
C1556 C1560 1.368 . S
C1557 C1538 1.429 . S
C1557 C1551 1.429 . S
C1557 C1558 1.523 . S
C1558 C1539 1.368 . S
C1558 C1552 1.368 . S
C1558 C1557 1.523 . S
C1559 C1543 1.429 . S
C1559 C1555 1.429 . S
C1559 C1560 1.523 . S
C1560 C1544 1.368 . S
C1560 C1556 1.368 . S
C1560 C1559 1.523 . S
H1561 C1536 0.950 . S
H1562 C1538 0.950 . S
H1563 C1539 0.949 . S
H1564 C1541 0.950 . S
H1565 C1543 0.950 . S
C1566 C1567 1.349 1_556 S
C1566 C1568 1.327 . S
C1566 H1591 0.950 . S
C1567 C1566 1.349 1_554 S
C1567 C1583 1.349 . S
C1568 C1566 1.327 . S
C1568 C1587 1.429 . S
C1568 H1592 0.950 . S
C1569 C1586 1.574 . S
C1569 C1588 1.368 . S
C1569 H1593 0.949 . S
H1570 C1574 0.949 1_455 S
C1571 C1572 1.349 . S
C1571 C1573 1.327 . S
C1571 H1594 0.950 . S
C1572 C1571 1.349 . S
C1572 C1584 1.349 1_655 S
C1573 C1571 1.327 . S
C1573 C1589 1.429 . S
C1573 H1595 0.950 . S
C1574 H1570 0.949 1_655 S
C1574 C1582 1.574 . S
C1574 C1590 1.368 . S
H1575 C1583 0.950 . S
H1576 C1581 0.950 . S
H1577 C1582 0.949 . S
H1578 C1584 0.950 . S
H1579 C1585 0.950 . S
H1580 C1586 0.949 . S
C1581 H1576 0.950 . S
C1581 C1583 1.327 . S
C1581 C1587 1.429 1_554 S
C1582 C1574 1.574 . S
C1582 H1577 0.949 . S
C1582 C1588 1.368 . S
C1583 C1567 1.349 . S
C1583 H1575 0.950 . S
C1583 C1581 1.327 . S
C1584 C1572 1.349 1_455 S
C1584 H1578 0.950 . S
C1584 C1585 1.327 . S
C1585 H1579 0.950 . S
C1585 C1584 1.327 . S
C1585 C1589 1.429 1_455 S
C1586 C1569 1.574 . S
C1586 H1580 0.949 . S
C1586 C1590 1.368 . S
C1587 C1568 1.429 . S
C1587 C1581 1.429 1_556 S
C1587 C1588 1.523 . S
C1588 C1569 1.368 . S
C1588 C1582 1.368 . S
C1588 C1587 1.523 . S
C1589 C1573 1.429 . S
C1589 C1585 1.429 1_655 S
C1589 C1590 1.523 . S
C1590 C1574 1.368 . S
C1590 C1586 1.368 . S
C1590 C1589 1.523 . S
H1591 C1566 0.950 . S
H1592 C1568 0.950 . S
H1593 C1569 0.949 . S
H1594 C1571 0.950 . S
H1595 C1573 0.950 . S
C1596 C1597 1.349 . S
C1596 C1598 1.327 . S
C1596 H1621 0.950 . S
C1597 C1596 1.349 . S
C1597 C1613 1.349 . S
C1598 C1596 1.327 . S
C1598 C1617 1.429 . S
C1598 H1622 0.950 . S
C1599 C1616 1.574 . S
C1599 C1618 1.368 . S
C1599 H1623 0.949 . S
H1600 C1604 0.949 . S
C1601 C1602 1.349 . S
C1601 C1603 1.327 . S
C1601 H1624 0.950 . S
C1602 C1601 1.349 . S
C1602 C1614 1.349 . S
C1603 C1601 1.327 . S
C1603 C1619 1.429 . S
C1603 H1625 0.950 . S
C1604 H1600 0.949 . S
C1604 C1612 1.574 . S
C1604 C1620 1.368 . S
H1605 C1613 0.950 . S
H1606 C1611 0.950 . S
H1607 C1612 0.949 . S
H1608 C1614 0.950 . S
H1609 C1615 0.950 . S
H1610 C1616 0.949 . S
C1611 H1606 0.950 . S
C1611 C1613 1.327 . S
C1611 C1617 1.429 . S
C1612 C1604 1.574 . S
C1612 H1607 0.949 . S
C1612 C1618 1.368 . S
C1613 C1597 1.349 . S
C1613 H1605 0.950 . S
C1613 C1611 1.327 . S
C1614 C1602 1.349 . S
C1614 H1608 0.950 . S
C1614 C1615 1.327 . S
C1615 H1609 0.950 . S
C1615 C1614 1.327 . S
C1615 C1619 1.429 . S
C1616 C1599 1.574 . S
C1616 H1610 0.949 . S
C1616 C1620 1.368 . S
C1617 C1598 1.429 . S
C1617 C1611 1.429 . S
C1617 C1618 1.523 . S
C1618 C1599 1.368 . S
C1618 C1612 1.368 . S
C1618 C1617 1.523 . S
C1619 C1603 1.429 . S
C1619 C1615 1.429 . S
C1619 C1620 1.523 . S
C1620 C1604 1.368 . S
C1620 C1616 1.368 . S
C1620 C1619 1.523 . S
H1621 C1596 0.950 . S
H1622 C1598 0.950 . S
H1623 C1599 0.949 . S
H1624 C1601 0.950 . S
H1625 C1603 0.950 . S
C1626 C1627 1.349 . S
C1626 C1628 1.327 . S
C1626 H1651 0.950 . S
C1627 C1626 1.349 . S
C1627 C1643 1.349 1_554 S
C1628 C1626 1.327 . S
C1628 C1647 1.429 1_554 S
C1628 H1652 0.950 . S
C1629 C1646 1.574 . S
C1629 C1648 1.368 . S
C1629 H1653 0.949 . S
H1630 C1634 0.949 . S
C1631 C1632 1.349 . S
C1631 C1633 1.327 . S
C1631 H1654 0.950 1_455 S
C1632 C1631 1.349 . S
C1632 C1644 1.349 . S
C1633 C1631 1.327 . S
C1633 C1649 1.429 . S
C1633 H1655 0.953 . S
C1634 H1630 0.949 . S
C1634 C1642 1.574 . S
C1634 C1650 1.368 . S
H1635 C1643 0.950 . S
H1636 C1641 0.950 . S
H1637 C1642 0.949 . S
H1638 C1644 0.950 . S
H1639 C1645 0.950 . S
H1640 C1646 0.949 . S
C1641 H1636 0.950 . S
C1641 C1643 1.327 . S
C1641 C1647 1.429 . S
C1642 C1634 1.574 . S
C1642 H1637 0.949 . S
C1642 C1648 1.368 . S
C1643 C1627 1.349 1_556 S
C1643 H1635 0.950 . S
C1643 C1641 1.327 . S
C1644 C1632 1.349 . S
C1644 H1638 0.950 . S
C1644 C1645 1.327 . S
C1645 H1639 0.950 . S
C1645 C1644 1.327 . S
C1645 C1649 1.429 . S
C1646 C1629 1.574 . S
C1646 H1640 0.949 . S
C1646 C1650 1.368 . S
C1647 C1628 1.429 1_556 S
C1647 C1641 1.429 . S
C1647 C1648 1.523 . S
C1648 C1629 1.368 . S
C1648 C1642 1.368 . S
C1648 C1647 1.523 . S
C1649 C1633 1.429 . S
C1649 C1645 1.429 . S
C1649 C1650 1.523 . S
C1650 C1634 1.368 . S
C1650 C1646 1.368 . S
C1650 C1649 1.523 . S
H1651 C1626 0.950 . S
H1652 C1628 0.950 . S
H1653 C1629 0.949 . S
H1654 C1631 0.950 1_655 S
H1655 C1633 0.953 . S
C1656 C1657 1.349 . S
C1656 C1658 1.327 . S
C1656 H1681 0.950 . S
C1657 C1656 1.349 . S
C1657 C1673 1.349 . S
C1658 C1656 1.327 . S
C1658 C1677 1.429 . S
C1658 H1682 0.950 . S
C1659 C1676 1.574 . S
C1659 C1678 1.368 . S
C1659 H1683 0.949 . S
H1660 C1664 0.949 . S
C1661 C1662 1.349 . S
C1661 C1663 1.327 . S
C1661 H1684 0.950 . S
C1662 C1661 1.349 . S
C1662 C1674 1.349 . S
C1663 C1661 1.327 . S
C1663 C1679 1.429 . S
C1663 H1685 0.950 . S
C1664 H1660 0.949 . S
C1664 C1672 1.574 . S
C1664 C1680 1.368 . S
H1665 C1673 0.950 . S
H1666 C1671 0.950 . S
H1667 C1672 0.949 . S
H1668 C1674 0.950 . S
H1669 C1675 0.950 . S
H1670 C1676 0.949 . S
C1671 H1666 0.950 . S
C1671 C1673 1.327 . S
C1671 C1677 1.429 . S
C1672 C1664 1.574 . S
C1672 H1667 0.949 . S
C1672 C1678 1.368 . S
C1673 C1657 1.349 . S
C1673 H1665 0.950 . S
C1673 C1671 1.327 . S
C1674 C1662 1.349 . S
C1674 H1668 0.950 . S
C1674 C1675 1.327 . S
C1675 H1669 0.950 . S
C1675 C1674 1.327 . S
C1675 C1679 1.429 . S
C1676 C1659 1.574 . S
C1676 H1670 0.949 . S
C1676 C1680 1.368 . S
C1677 C1658 1.429 . S
C1677 C1671 1.429 . S
C1677 C1678 1.523 . S
C1678 C1659 1.368 . S
C1678 C1672 1.368 . S
C1678 C1677 1.523 . S
C1679 C1663 1.429 . S
C1679 C1675 1.429 . S
C1679 C1680 1.523 . S
C1680 C1664 1.368 . S
C1680 C1676 1.368 . S
C1680 C1679 1.523 . S
H1681 C1656 0.950 . S
H1682 C1658 0.950 . S
H1683 C1659 0.949 . S
H1684 C1661 0.950 . S
H1685 C1663 0.950 . S
C1686 C1687 1.349 1_554 S
C1686 C1688 1.327 . S
C1686 H1711 0.950 . S
C1687 C1686 1.349 1_556 S
C1687 C1703 1.349 . S
C1688 C1686 1.327 . S
C1688 C1707 1.429 . S
C1688 H1712 0.950 . S
C1689 C1706 1.574 . S
C1689 C1708 1.368 . S
C1689 H1713 0.949 . S
H1690 C1694 0.949 . S
C1691 C1692 1.349 . S
C1691 C1693 1.327 . S
C1691 H1714 0.950 . S
C1692 C1691 1.349 . S
C1692 C1704 1.349 . S
C1693 C1691 1.327 . S
C1693 C1709 1.429 . S
C1693 H1715 0.950 . S
C1694 H1690 0.949 . S
C1694 C1702 1.574 . S
C1694 C1710 1.368 . S
H1695 C1703 0.950 . S
H1696 C1701 0.950 1_556 S
H1697 C1702 0.949 . S
H1698 C1704 0.950 . S
H1699 C1705 0.950 . S
H1700 C1706 0.949 . S
C1701 H1696 0.950 1_554 S
C1701 C1703 1.327 1_554 S
C1701 C1707 1.429 . S
C1702 C1694 1.574 . S
C1702 H1697 0.949 . S
C1702 C1708 1.368 . S
C1703 C1687 1.349 . S
C1703 H1695 0.950 . S
C1703 C1701 1.327 1_556 S
C1704 C1692 1.349 . S
C1704 H1698 0.950 . S
C1704 C1705 1.327 . S
C1705 H1699 0.950 . S
C1705 C1704 1.327 . S
C1705 C1709 1.429 . S
C1706 C1689 1.574 . S
C1706 H1700 0.949 . S
C1706 C1710 1.368 . S
C1707 C1688 1.429 . S
C1707 C1701 1.429 . S
C1707 C1708 1.523 . S
C1708 C1689 1.368 . S
C1708 C1702 1.368 . S
C1708 C1707 1.523 . S
C1709 C1693 1.429 . S
C1709 C1705 1.429 . S
C1709 C1710 1.523 . S
C1710 C1694 1.368 . S
C1710 C1706 1.368 . S
C1710 C1709 1.523 . S
H1711 C1686 0.950 . S
H1712 C1688 0.950 . S
H1713 C1689 0.949 . S
H1714 C1691 0.950 . S
H1715 C1693 0.950 . S
C1716 C1717 1.349 . S
C1716 C1718 1.327 . S
C1716 H1741 0.950 . S
C1717 C1716 1.349 . S
C1717 C1733 1.349 . S
C1718 C1716 1.327 . S
C1718 C1737 1.429 . S
C1718 H1742 0.950 . S
C1719 C1736 1.574 . S
C1719 C1738 1.368 . S
C1719 H1743 0.949 . S
H1720 C1724 0.949 . S
C1721 C1722 1.349 . S
C1721 C1723 1.327 . S
C1721 H1744 0.950 . S
C1722 C1721 1.349 . S
C1722 C1734 1.349 . S
C1723 C1721 1.327 . S
C1723 C1739 1.429 . S
C1723 H1745 0.950 . S
C1724 H1720 0.949 . S
C1724 C1732 1.574 . S
C1724 C1740 1.368 . S
H1725 C1733 0.950 . S
H1726 C1731 0.950 . S
H1727 C1732 0.949 . S
H1728 C1734 0.950 . S
H1729 C1735 0.950 . S
H1730 C1736 0.949 . S
C1731 H1726 0.950 . S
C1731 C1733 1.327 . S
C1731 C1737 1.429 . S
C1732 C1724 1.574 . S
C1732 H1727 0.949 . S
C1732 C1738 1.368 . S
C1733 C1717 1.349 . S
C1733 H1725 0.950 . S
C1733 C1731 1.327 . S
C1734 C1722 1.349 . S
C1734 H1728 0.950 . S
C1734 C1735 1.327 . S
C1735 H1729 0.950 . S
C1735 C1734 1.327 . S
C1735 C1739 1.429 . S
C1736 C1719 1.574 . S
C1736 H1730 0.949 . S
C1736 C1740 1.368 . S
C1737 C1718 1.429 . S
C1737 C1731 1.429 . S
C1737 C1738 1.523 . S
C1738 C1719 1.368 . S
C1738 C1732 1.368 . S
C1738 C1737 1.523 . S
C1739 C1723 1.429 . S
C1739 C1735 1.429 . S
C1739 C1740 1.523 . S
C1740 C1724 1.368 . S
C1740 C1736 1.368 . S
C1740 C1739 1.523 . S
H1741 C1716 0.950 . S
H1742 C1718 0.950 . S
H1743 C1719 0.949 . S
H1744 C1721 0.950 . S
H1745 C1723 0.950 . S
C1746 C1747 1.330 1_554 S
C1746 C1748 1.327 . S
C1746 H1771 0.950 . S
C1747 C1746 1.330 1_556 S
C1747 C1763 1.336 1_556 S
C1748 C1746 1.327 . S
C1748 C1767 1.429 . S
C1748 H1772 0.950 . S
C1749 C1766 1.574 . S
C1749 C1768 1.368 . S
C1749 H1773 0.949 . S
H1750 C1754 0.949 . S
C1751 C1752 1.349 . S
C1751 C1753 1.327 . S
C1751 H1774 0.950 . S
C1752 C1751 1.349 . S
C1752 C1764 1.349 . S
C1753 C1751 1.327 . S
C1753 C1769 1.429 . S
C1753 H1775 0.950 . S
C1754 H1750 0.949 . S
C1754 C1762 1.574 . S
C1754 C1770 1.368 . S
H1755 C1763 0.933 1_556 S
H1756 C1761 0.950 . S
H1757 C1762 0.949 . S
H1758 C1764 0.950 . S
H1759 C1765 0.950 . S
H1760 C1766 0.949 . S
C1761 H1756 0.950 . S
C1761 C1763 1.327 . S
C1761 C1767 1.429 . S
C1762 C1754 1.574 . S
C1762 H1757 0.949 . S
C1762 C1768 1.368 . S
C1763 C1747 1.336 1_554 S
C1763 H1755 0.933 1_554 S
C1763 C1761 1.327 . S
C1764 C1752 1.349 . S
C1764 H1758 0.950 . S
C1764 C1765 1.327 . S
C1765 H1759 0.950 . S
C1765 C1764 1.327 . S
C1765 C1769 1.429 . S
C1766 C1749 1.574 . S
C1766 H1760 0.949 . S
C1766 C1770 1.368 . S
C1767 C1748 1.429 . S
C1767 C1761 1.429 . S
C1767 C1768 1.523 . S
C1768 C1749 1.368 . S
C1768 C1762 1.368 . S
C1768 C1767 1.523 . S
C1769 C1753 1.429 . S
C1769 C1765 1.429 . S
C1769 C1770 1.523 . S
C1770 C1754 1.368 . S
C1770 C1766 1.368 . S
C1770 C1769 1.523 . S
H1771 C1746 0.950 . S
H1772 C1748 0.950 . S
H1773 C1749 0.949 . S
H1774 C1751 0.950 . S
H1775 C1753 0.950 . S
C1776 C1777 1.349 . S
C1776 C1778 1.327 . S
C1776 H1801 0.950 . S
C1777 C1776 1.349 . S
C1777 C1793 1.349 . S
C1778 C1776 1.327 . S
C1778 C1797 1.429 . S
C1778 H1802 0.950 . S
C1779 C1796 1.574 . S
C1779 C1798 1.368 . S
C1779 H1803 0.949 . S
H1780 C1784 0.949 . S
C1781 C1782 1.349 . S
C1781 C1783 1.327 . S
C1781 H1804 0.950 . S
C1782 C1781 1.349 . S
C1782 C1794 1.349 . S
C1783 C1781 1.327 . S
C1783 C1799 1.429 . S
C1783 H1805 0.950 . S
C1784 H1780 0.949 . S
C1784 C1792 1.574 . S
C1784 C1800 1.368 . S
H1785 C1793 0.950 . S
H1786 C1791 0.950 . S
H1787 C1792 0.949 . S
H1788 C1794 0.950 . S
H1789 C1795 0.950 . S
H1790 C1796 0.949 . S
C1791 H1786 0.950 . S
C1791 C1793 1.327 . S
C1791 C1797 1.429 . S
C1792 C1784 1.574 . S
C1792 H1787 0.949 . S
C1792 C1798 1.368 . S
C1793 C1777 1.349 . S
C1793 H1785 0.950 . S
C1793 C1791 1.327 . S
C1794 C1782 1.349 . S
C1794 H1788 0.950 . S
C1794 C1795 1.327 . S
C1795 H1789 0.950 . S
C1795 C1794 1.327 . S
C1795 C1799 1.429 . S
C1796 C1779 1.574 . S
C1796 H1790 0.949 . S
C1796 C1800 1.368 . S
C1797 C1778 1.429 . S
C1797 C1791 1.429 . S
C1797 C1798 1.523 . S
C1798 C1779 1.368 . S
C1798 C1792 1.368 . S
C1798 C1797 1.523 . S
C1799 C1783 1.429 . S
C1799 C1795 1.429 . S
C1799 C1800 1.523 . S
C1800 C1784 1.368 . S
C1800 C1796 1.368 . S
C1800 C1799 1.523 . S
H1801 C1776 0.950 . S
H1802 C1778 0.950 . S
H1803 C1779 0.949 . S
H1804 C1781 0.950 . S
H1805 C1783 0.950 . S
C1806 C1807 1.349 . S
C1806 C1808 1.327 . S
C1806 H1831 0.950 . S
C1807 C1806 1.349 . S
C1807 C1823 1.349 . S
C1808 C1806 1.327 . S
C1808 C1827 1.429 . S
C1808 H1832 0.950 . S
C1809 C1826 1.574 . S
C1809 C1828 1.368 . S
C1809 H1833 0.949 . S
H1810 C1814 0.949 . S
C1811 C1812 1.349 . S
C1811 C1813 1.327 . S
C1811 H1834 0.950 . S
C1812 C1811 1.349 . S
C1812 C1824 1.349 . S
C1813 C1811 1.327 . S
C1813 C1829 1.429 . S
C1813 H1835 0.950 . S
C1814 H1810 0.949 . S
C1814 C1822 1.574 . S
C1814 C1830 1.368 . S
H1815 C1823 0.950 . S
H1816 C1821 0.950 . S
H1817 C1822 0.949 . S
H1818 C1824 0.950 . S
H1819 C1825 0.950 . S
H1820 C1826 0.949 . S
C1821 H1816 0.950 . S
C1821 C1823 1.327 . S
C1821 C1827 1.429 . S
C1822 C1814 1.574 . S
C1822 H1817 0.949 . S
C1822 C1828 1.368 . S
C1823 C1807 1.349 . S
C1823 H1815 0.950 . S
C1823 C1821 1.327 . S
C1824 C1812 1.349 . S
C1824 H1818 0.950 . S
C1824 C1825 1.327 . S
C1825 H1819 0.950 . S
C1825 C1824 1.327 . S
C1825 C1829 1.429 . S
C1826 C1809 1.574 . S
C1826 H1820 0.949 . S
C1826 C1830 1.368 . S
C1827 C1808 1.429 . S
C1827 C1821 1.429 . S
C1827 C1828 1.523 . S
C1828 C1809 1.368 . S
C1828 C1822 1.368 . S
C1828 C1827 1.523 . S
C1829 C1813 1.429 . S
C1829 C1825 1.429 . S
C1829 C1830 1.523 . S
C1830 C1814 1.368 . S
C1830 C1826 1.368 . S
C1830 C1829 1.523 . S
H1831 C1806 0.950 . S
H1832 C1808 0.950 . S
H1833 C1809 0.949 . S
H1834 C1811 0.950 . S
H1835 C1813 0.950 . S
C1836 C1837 1.349 . S
C1836 C1838 1.327 . S
C1836 H1861 0.950 . S
C1837 C1836 1.349 . S
C1837 C1853 1.349 . S
C1838 C1836 1.327 . S
C1838 C1857 1.429 . S
C1838 H1862 0.950 . S
C1839 C1856 1.574 . S
C1839 C1858 1.368 . S
C1839 H1863 0.949 . S
H1840 C1844 0.949 . S
C1841 C1842 1.349 . S
C1841 C1843 1.327 . S
C1841 H1864 0.950 . S
C1842 C1841 1.349 . S
C1842 C1854 1.349 . S
C1843 C1841 1.327 . S
C1843 C1859 1.429 . S
C1843 H1865 0.950 . S
C1844 H1840 0.949 . S
C1844 C1852 1.574 . S
C1844 C1860 1.368 . S
H1845 C1853 0.950 . S
H1846 C1851 0.950 . S
H1847 C1852 0.949 . S
H1848 C1854 0.950 . S
H1849 C1855 0.950 . S
H1850 C1856 0.949 . S
C1851 H1846 0.950 . S
C1851 C1853 1.327 . S
C1851 C1857 1.429 . S
C1852 C1844 1.574 . S
C1852 H1847 0.949 . S
C1852 C1858 1.368 . S
C1853 C1837 1.349 . S
C1853 H1845 0.950 . S
C1853 C1851 1.327 . S
C1854 C1842 1.349 . S
C1854 H1848 0.950 . S
C1854 C1855 1.327 . S
C1855 H1849 0.950 . S
C1855 C1854 1.327 . S
C1855 C1859 1.429 . S
C1856 C1839 1.574 . S
C1856 H1850 0.949 . S
C1856 C1860 1.368 . S
C1857 C1838 1.429 . S
C1857 C1851 1.429 . S
C1857 C1858 1.523 . S
C1858 C1839 1.368 . S
C1858 C1852 1.368 . S
C1858 C1857 1.523 . S
C1859 C1843 1.429 . S
C1859 C1855 1.429 . S
C1859 C1860 1.523 . S
C1860 C1844 1.368 . S
C1860 C1856 1.368 . S
C1860 C1859 1.523 . S
H1861 C1836 0.950 . S
H1862 C1838 0.950 . S
H1863 C1839 0.949 . S
H1864 C1841 0.950 . S
H1865 C1843 0.950 . S
C1866 C1867 1.349 . S
C1866 C1868 1.327 . S
C1866 H1891 0.950 . S
C1867 C1866 1.349 . S
C1867 C1883 1.349 . S
C1868 C1866 1.327 . S
C1868 C1887 1.429 . S
C1868 H1892 0.950 . S
C1869 C1886 1.574 . S
C1869 C1888 1.368 . S
C1869 H1893 0.949 . S
H1870 C1874 0.949 . S
C1871 C1872 1.349 . S
C1871 C1873 1.327 . S
C1871 H1894 0.950 . S
C1872 C1871 1.349 . S
C1872 C1884 1.349 . S
C1873 C1871 1.327 . S
C1873 C1889 1.429 . S
C1873 H1895 0.950 . S
C1874 H1870 0.949 . S
C1874 C1882 1.574 . S
C1874 C1890 1.368 . S
H1875 C1883 0.950 . S
H1876 C1881 0.950 . S
H1877 C1882 0.949 . S
H1878 C1884 0.950 . S
H1879 C1885 0.950 . S
H1880 C1886 0.949 . S
C1881 H1876 0.950 . S
C1881 C1883 1.327 . S
C1881 C1887 1.429 . S
C1882 C1874 1.574 . S
C1882 H1877 0.949 . S
C1882 C1888 1.368 . S
C1883 C1867 1.349 . S
C1883 H1875 0.950 . S
C1883 C1881 1.327 . S
C1884 C1872 1.349 . S
C1884 H1878 0.950 . S
C1884 C1885 1.327 . S
C1885 H1879 0.950 . S
C1885 C1884 1.327 . S
C1885 C1889 1.429 . S
C1886 C1869 1.574 . S
C1886 H1880 0.949 . S
C1886 C1890 1.368 . S
C1887 C1868 1.429 . S
C1887 C1881 1.429 . S
C1887 C1888 1.523 . S
C1888 C1869 1.368 . S
C1888 C1882 1.368 . S
C1888 C1887 1.523 . S
C1889 C1873 1.429 . S
C1889 C1885 1.429 . S
C1889 C1890 1.523 . S
C1890 C1874 1.368 . S
C1890 C1886 1.368 . S
C1890 C1889 1.523 . S
H1891 C1866 0.950 . S
H1892 C1868 0.950 . S
H1893 C1869 0.949 . S
H1894 C1871 0.950 . S
H1895 C1873 0.950 . S
C1896 C1897 1.349 . S
C1896 C1898 1.327 . S
C1896 H1921 0.950 . S
C1897 C1896 1.349 . S
C1897 C1913 1.349 . S
C1898 C1896 1.327 . S
C1898 C1917 1.429 . S
C1898 H1922 0.962 . S
C1899 C1916 1.574 . S
C1899 C1918 1.368 . S
C1899 H1923 0.949 . S
H1900 C1904 0.934 1_554 S
C1901 C1902 1.349 . S
C1901 C1903 1.327 . S
C1901 H1924 0.950 . S
C1902 C1901 1.349 . S
C1902 C1914 1.349 1_556 S
C1903 C1901 1.327 . S
C1903 C1919 1.429 . S
C1903 H1925 0.950 . S
C1904 H1900 0.934 1_556 S
C1904 C1912 1.577 . S
C1904 C1920 1.383 . S
H1905 C1913 0.950 . S
H1906 C1911 0.950 . S
H1907 C1912 0.949 1_554 S
H1908 C1914 0.950 . S
H1909 C1915 0.950 . S
H1910 C1916 0.949 . S
C1911 H1906 0.950 . S
C1911 C1913 1.327 . S
C1911 C1917 1.429 . S
C1912 C1904 1.577 . S
C1912 H1907 0.949 1_556 S
C1912 C1918 1.368 . S
C1913 C1897 1.349 . S
C1913 H1905 0.950 . S
C1913 C1911 1.327 . S
C1914 C1902 1.349 1_554 S
C1914 H1908 0.950 . S
C1914 C1915 1.327 . S
C1915 H1909 0.950 . S
C1915 C1914 1.327 . S
C1915 C1919 1.429 1_554 S
C1916 C1899 1.574 . S
C1916 H1910 0.949 . S
C1916 C1920 1.368 . S
C1917 C1898 1.429 . S
C1917 C1911 1.429 . S
C1917 C1918 1.523 . S
C1918 C1899 1.368 . S
C1918 C1912 1.368 . S
C1918 C1917 1.523 . S
C1919 C1903 1.429 . S
C1919 C1915 1.429 1_556 S
C1919 C1920 1.523 . S
C1920 C1904 1.383 . S
C1920 C1916 1.368 . S
C1920 C1919 1.523 . S
H1921 C1896 0.950 . S
H1922 C1898 0.962 . S
H1923 C1899 0.949 . S
H1924 C1901 0.950 . S
H1925 C1903 0.950 . S
C1926 C1927 1.349 . S
C1926 C1928 1.327 . S
C1926 H1951 0.950 . S
C1927 C1926 1.349 . S
C1927 C1943 1.349 . S
C1928 C1926 1.327 . S
C1928 C1947 1.429 . S
C1928 H1952 0.950 . S
C1929 C1946 1.574 . S
C1929 C1948 1.368 . S
C1929 H1953 0.949 . S
H1930 C1934 0.949 . S
C1931 C1932 1.349 . S
C1931 C1933 1.327 . S
C1931 H1954 0.950 . S
C1932 C1931 1.349 . S
C1932 C1944 1.349 . S
C1933 C1931 1.327 . S
C1933 C1949 1.429 . S
C1933 H1955 0.950 . S
C1934 H1930 0.949 . S
C1934 C1942 1.574 . S
C1934 C1950 1.368 . S
H1935 C1943 0.950 . S
H1936 C1941 0.950 . S
H1937 C1942 0.949 . S
H1938 C1944 0.950 . S
H1939 C1945 0.950 . S
H1940 C1946 0.949 . S
C1941 H1936 0.950 . S
C1941 C1943 1.327 . S
C1941 C1947 1.429 . S
C1942 C1934 1.574 . S
C1942 H1937 0.949 . S
C1942 C1948 1.368 . S
C1943 C1927 1.349 . S
C1943 H1935 0.950 . S
C1943 C1941 1.327 . S
C1944 C1932 1.349 . S
C1944 H1938 0.950 . S
C1944 C1945 1.327 . S
C1945 H1939 0.950 . S
C1945 C1944 1.327 . S
C1945 C1949 1.429 . S
C1946 C1929 1.574 . S
C1946 H1940 0.949 . S
C1946 C1950 1.368 . S
C1947 C1928 1.429 . S
C1947 C1941 1.429 . S
C1947 C1948 1.523 . S
C1948 C1929 1.368 . S
C1948 C1942 1.368 . S
C1948 C1947 1.523 . S
C1949 C1933 1.429 . S
C1949 C1945 1.429 . S
C1949 C1950 1.523 . S
C1950 C1934 1.368 . S
C1950 C1946 1.368 . S
C1950 C1949 1.523 . S
H1951 C1926 0.950 . S
H1952 C1928 0.950 . S
H1953 C1929 0.949 . S
H1954 C1931 0.950 . S
H1955 C1933 0.950 . S
C1956 C1957 1.349 . S
C1956 C1958 1.327 . S
C1956 H1981 0.950 . S
C1957 C1956 1.349 . S
C1957 C1973 1.349 . S
C1958 C1956 1.327 . S
C1958 C1977 1.429 . S
C1958 H1982 0.950 . S
C1959 C1976 1.574 . S
C1959 C1978 1.368 . S
C1959 H1983 0.949 . S
H1960 C1964 0.949 1_556 S
C1961 C1962 1.349 . S
C1961 C1963 1.327 . S
C1961 H1984 0.950 . S
C1962 C1961 1.349 . S
C1962 C1974 1.349 1_554 S
C1963 C1961 1.327 . S
C1963 C1979 1.429 . S
C1963 H1985 0.950 . S
C1964 H1960 0.949 1_554 S
C1964 C1972 1.574 . S
C1964 C1980 1.368 . S
H1965 C1973 0.950 . S
H1966 C1971 0.950 . S
H1967 C1972 0.926 1_556 S
H1968 C1974 0.950 . S
H1969 C1975 0.950 . S
H1970 C1976 0.949 . S
C1971 H1966 0.950 . S
C1971 C1973 1.327 . S
C1971 C1977 1.429 . S
C1972 C1964 1.574 . S
C1972 H1967 0.926 1_554 S
C1972 C1978 1.368 . S
C1973 C1957 1.349 . S
C1973 H1965 0.950 . S
C1973 C1971 1.327 . S
C1974 C1962 1.349 1_556 S
C1974 H1968 0.950 . S
C1974 C1975 1.327 . S
C1975 H1969 0.950 . S
C1975 C1974 1.327 . S
C1975 C1979 1.429 1_556 S
C1976 C1959 1.574 . S
C1976 H1970 0.949 . S
C1976 C1980 1.368 . S
C1977 C1958 1.429 . S
C1977 C1971 1.429 . S
C1977 C1978 1.523 . S
C1978 C1959 1.368 . S
C1978 C1972 1.368 . S
C1978 C1977 1.523 . S
C1979 C1963 1.429 . S
C1979 C1975 1.429 1_554 S
C1979 C1980 1.523 . S
C1980 C1964 1.368 . S
C1980 C1976 1.368 . S
C1980 C1979 1.523 . S
H1981 C1956 0.950 . S
H1982 C1958 0.950 . S
H1983 C1959 0.949 . S
H1984 C1961 0.950 . S
H1985 C1963 0.950 . S
C1986 C1987 1.349 . S
C1986 C1988 1.358 . S
C1986 H2011 0.950 . S
C1987 C1986 1.349 . S
C1987 C2003 1.349 1_545 S
C1988 C1986 1.358 . S
C1988 C2007 1.385 1_545 S
C1988 H2012 0.965 . S
C1989 C2006 1.574 . S
C1989 C2008 1.368 . S
C1989 H2013 0.949 . S
H1990 C1994 0.949 1_556 S
C1991 C1992 1.349 . S
C1991 C1993 1.327 . S
C1991 H2014 0.950 . S
C1992 C1991 1.349 . S
C1992 C2004 1.368 . S
C1993 C1991 1.327 . S
C1993 C2009 1.429 . S
C1993 H2015 0.950 . S
C1994 H1990 0.949 1_554 S
C1994 C2002 1.574 . S
C1994 C2010 1.368 . S
H1995 C2003 0.950 . S
H1996 C2001 0.950 . S
H1997 C2002 0.960 . S
H1998 C2004 0.928 1_556 S
H1999 C2005 0.950 1_556 S
H2000 C2006 0.949 . S
C2001 H1996 0.950 . S
C2001 C2003 1.327 . S
C2001 C2007 1.429 . S
C2002 C1994 1.574 . S
C2002 H1997 0.960 . S
C2002 C2008 1.368 . S
C2003 C1987 1.349 1_565 S
C2003 H1995 0.950 . S
C2003 C2001 1.327 . S
C2004 C1992 1.368 . S
C2004 H1998 0.928 1_554 S
C2004 C2005 1.330 . S
C2005 H1999 0.950 1_554 S
C2005 C2004 1.330 . S
C2005 C2009 1.429 . S
C2006 C1989 1.574 . S
C2006 H2000 0.949 . S
C2006 C2010 1.368 . S
C2007 C1988 1.385 1_565 S
C2007 C2001 1.429 . S
C2007 C2008 1.523 . S
C2008 C1989 1.368 . S
C2008 C2002 1.368 . S
C2008 C2007 1.523 . S
C2009 C1993 1.429 . S
C2009 C2005 1.429 . S
C2009 C2010 1.523 . S
C2010 C1994 1.368 . S
C2010 C2006 1.368 . S
C2010 C2009 1.523 . S
H2011 C1986 0.950 . S
H2012 C1988 0.965 . S
H2013 C1989 0.949 . S
H2014 C1991 0.950 . S
H2015 C1993 0.950 . S
C582 C146 1.411 . S
C577 C50 1.415 . S
C612 C194 1.614 . S
C607 C61 1.671 1_455 S
C637 C67 1.410 . S
C642 C230 1.351 . S
C672 C266 1.570 . S
C667 C41 1.621 . S
C702 C292 1.421 . S
C697 C95 1.419 . S
C732 C328 1.586 . S
C727 C113 1.588 . S
C757 C106 1.449 . S
C762 C363 1.454 . S
C792 C400 1.611 1_565 S
C787 C86 1.619 . S
C817 C104 1.403 . S
C822 C434 1.399 . S
C852 C482 1.554 . S
C847 C88 1.605 . S
C877 C94 1.415 . S
C882 C435 1.421 . S
C912 C472 1.602 . S
C907 C112 1.603 . S
C937 C70 1.431 . S
C942 C518 1.371 . S
C967 C40 1.633 . S
C972 C507 1.628 . S
C997 C49 1.459 . S
C1002 C508 1.460 . S
C1027 C59 1.659 . S
C1032 C506 1.651 1_655 S
C1057 C34 1.398 . S
C1062 C254 1.393 . S
C1087 C133 1.394 . S
C1092 C255 1.399 . S
C1122 C158 1.601 . S
C1117 C139 1.655 . S
C1152 C183 1.454 . S
C1147 C77 1.452 . S
C1177 C43 1.594 1_545 S
C1182 C290 1.616 . S
C1212 C398 1.444 . S
C1207 C103 1.445 . S
C1242 C291 1.607 . S
C1237 C85 1.612 . S
C1272 C364 1.599 . S
C1267 C115 1.601 . S
C1302 C362 1.411 . S
C1297 C131 1.415 . S
C1327 C142 1.668 . S
C1332 C410 1.614 . S
C1357 C76 1.410 . S
C1362 C302 1.351 . S
C1392 C338 1.569 . S
C1387 C122 1.621 . S
C1417 C32 1.419 . S
C1422 C220 1.421 . S
C1452 C256 1.586 . S
C1447 C5 1.588 . S
C1482 C147 1.454 . S
C1477 C16 1.449 . S
C1512 C184 1.615 . S
C1507 C23 1.618 . S
C1537 C14 1.403 . S
C1542 C470 1.399 . S
C1567 C25 1.605 . S
C1572 C446 1.554 . S
C1597 C31 1.415 . S
C1602 C471 1.421 . S
C1627 C4 1.603 . S
C1632 C436 1.602 . S
C1662 C554 1.371 . S
C1657 C79 1.431 . S
C1692 C543 1.628 . S
C1687 C121 1.633 . S
C1722 C544 1.460 . S
C1717 C130 1.459 . S
C1747 C140 1.696 . S
C1752 C542 1.653 . S
C1777 C97 1.398 . S
C1782 C326 1.394 . S
C1812 C327 1.399 . S
C1807 C52 1.394 . S
C1842 C374 1.601 . S
C1837 C58 1.655 . S
C1872 C399 1.454 . S
C1867 C68 1.456 . S
C1897 C124 1.621 . S
C1902 C218 1.616 1_556 S
C1932 C182 1.444 . S
C1927 C13 1.450 . S
C1957 C22 1.612 . S
C1962 C219 1.607 . S
C1992 C148 1.598 . S
C1987 C7 1.601 . S
