# Generated by pormake.
# Topology anh, (6,3)-cn, num edge types: 1
# Building blocks:
#     Node 0, Type 0, BuildingBlock: BETFEN_clean_sbu_0, # of connection points: 6
#     Node 1, Type 0, BuildingBlock: BETFEN_clean_sbu_0, # of connection points: 6
#     Node 2, Type 0, BuildingBlock: BETFEN_clean_sbu_0, # of connection points: 6
#     Node 3, Type 1, BuildingBlock: BETDAH_clean_linker_0, # of connection points: 3
#     Node 4, Type 1, BuildingBlock: BETDAH_clean_linker_0, # of connection points: 3
#     Node 5, Type 1, BuildingBlock: BETDAH_clean_linker_0, # of connection points: 3
#     Node 6, Type 1, BuildingBlock: BETDAH_clean_linker_0, # of connection points: 3
#     Node 7, Type 1, BuildingBlock: BETDAH_clean_linker_0, # of connection points: 3
#     Node 8, Type 1, BuildingBlock: BETDAH_clean_linker_0, # of connection points: 3
#     Edge 9, Type (0, 1), BuildingBlock: AJUNOK_clean_linker_0, # of connection points: 2
#     Edge 10, Type (0, 1), BuildingBlock: AJUNOK_clean_linker_0, # of connection points: 2
#     Edge 11, Type (0, 1), BuildingBlock: AJUNOK_clean_linker_0, # of connection points: 2
#     Edge 12, Type (0, 1), BuildingBlock: AJUNOK_clean_linker_0, # of connection points: 2
#     Edge 13, Type (0, 1), BuildingBlock: AJUNOK_clean_linker_0, # of connection points: 2
#     Edge 14, Type (0, 1), BuildingBlock: AJUNOK_clean_linker_0, # of connection points: 2
#     Edge 15, Type (0, 1), BuildingBlock: AJUNOK_clean_linker_0, # of connection points: 2
#     Edge 16, Type (0, 1), BuildingBlock: AJUNOK_clean_linker_0, # of connection points: 2
#     Edge 17, Type (0, 1), BuildingBlock: AJUNOK_clean_linker_0, # of connection points: 2
#     Edge 18, Type (0, 1), BuildingBlock: AJUNOK_clean_linker_0, # of connection points: 2
#     Edge 19, Type (0, 1), BuildingBlock: AJUNOK_clean_linker_0, # of connection points: 2
#     Edge 20, Type (0, 1), BuildingBlock: AJUNOK_clean_linker_0, # of connection points: 2
#     Edge 21, Type (0, 1), BuildingBlock: AJUNOK_clean_linker_0, # of connection points: 2
#     Edge 22, Type (0, 1), BuildingBlock: AJUNOK_clean_linker_0, # of connection points: 2
#     Edge 23, Type (0, 1), BuildingBlock: AJUNOK_clean_linker_0, # of connection points: 2
#     Edge 24, Type (0, 1), BuildingBlock: AJUNOK_clean_linker_0, # of connection points: 2
#     Edge 25, Type (0, 1), BuildingBlock: AJUNOK_clean_linker_0, # of connection points: 2
#     Edge 26, Type (0, 1), BuildingBlock: AJUNOK_clean_linker_0, # of connection points: 2
# Relax obj value: 0.213
# Max RMSD: 0.208
# Mean RMSD: 0.121
data_MOF--net-anh--node1-BETFEN_clean_sbu_0--node2-BETDAH_clean_linker_0--edge1-AJUNOK_clean_linker_0
_symmetry_space_group_name_H-M    P1
_symmetry_Int_Tables_number       1
_symmetry_cell_setting            triclinic
loop_
_symmetry_equiv_pos_as_xyz
'x, y, z'
_cell_length_a     22.154347
_cell_length_b     22.977638
_cell_length_c     36.539102
_cell_angle_alpha  92.875768
_cell_angle_beta   94.385279
_cell_angle_gamma 96.837168
loop_
_atom_site_label
_atom_site_type_symbol
_atom_site_fract_x
_atom_site_fract_y
_atom_site_fract_z
_atom_type_partial_charge
Pr0 Pr 0.05576 0.59131 0.14791 0.0
Pr1 Pr 0.07756 0.72576 0.13587 0.0
C2 C 1.02025 0.49465 0.18207 0.0
C3 C 0.9632 0.45477 0.17999 0.0
C4 C 0.93019 0.43677 0.14612 0.0
C5 C 0.87468 0.40056 0.14512 0.0
C6 C 0.85107 0.38298 0.17797 0.0
C7 C 0.88328 0.40282 0.21176 0.0
C8 C 0.93888 0.43843 0.21273 0.0
C9 C 0.04611 0.60448 0.07207 0.0
C10 C 0.93675 0.66613 0.12976 0.0
C11 C 0.11876 0.83402 0.11768 0.0
C12 C 0.17453 0.87413 0.1294 0.0
C13 C 0.18731 0.89487 0.16634 0.0
C14 C 0.2415 0.93057 0.17747 0.0
C15 C 0.2841 0.94588 0.15201 0.0
C16 C 0.27194 0.92472 0.11519 0.0
C17 C 0.21733 0.88922 0.10393 0.0
C18 C 0.06445 0.69583 0.20822 0.0
C19 C 0.19888 0.64965 0.14455 0.0
O20 O 1.01602 0.54756 0.19579 0.0
O21 O 0.05318 0.49359 0.1537 0.0
O22 O 0.05681 0.64515 0.09694 0.0
O23 O 1.03776 0.55376 0.08629 0.0
O24 O 0.97428 0.70704 0.11626 0.0
O25 O 0.95773 0.62259 0.14716 0.0
O26 O 0.1267 0.78671 0.09818 0.0
O27 O 0.07908 0.82416 0.14211 0.0
O28 O 0.09531 0.67131 0.18572 0.0
O29 O 1.04095 0.73946 0.19389 0.0
O30 O 0.16286 0.60089 0.14961 0.0
O31 O 0.17732 0.70014 0.13936 0.0
H32 H 0.94741 0.45032 0.1205 0.0
H33 H 0.85066 0.3855 0.11877 0.0
H34 H 0.86671 0.38885 0.23744 0.0
H35 H 0.96317 0.45296 0.23909 0.0
H36 H 0.15584 0.8832 0.18682 0.0
H37 H 0.25048 0.94581 0.20614 0.0
H38 H 0.30427 0.93614 0.09514 0.0
H39 H 0.2087 0.87315 0.0754 0.0
Pr40 Pr 0.60621 0.15142 0.49814 0.0
Pr41 Pr 0.47529 0.13812 0.51021 0.0
C42 C 0.71534 0.18292 0.47317 0.0
C43 C 0.75353 0.23872 0.46954 0.0
C44 C 0.76197 0.28302 0.49806 0.0
C45 C 0.79917 0.33541 0.49415 0.0
C46 C 0.82817 0.34432 0.46166 0.0
C47 C 0.81769 0.30086 0.43271 0.0
C48 C 0.78074 0.24839 0.43668 0.0
C49 C 0.58488 0.13632 0.57036 0.0
C50 C 0.53854 0.27622 0.51343 0.0
C51 C 0.36186 0.1017 0.52713 0.0
C52 C 0.32046 1.04832 0.51394 0.0
C53 C 0.2973 1.04026 0.47686 0.0
C54 C 0.2657 0.98659 0.4632 0.0
C55 C 0.25666 0.93989 0.48623 0.0
C56 C 0.27731 0.94838 0.52361 0.0
C57 C 0.30913 1.00222 0.53735 0.0
C58 C 0.49966 0.1424 0.43632 0.0
C59 C 0.54548 1.01333 0.50479 0.0
O60 O 0.66484 0.1737 0.45159 0.0
O61 O 0.70889 0.16658 0.50659 0.0
O62 O 0.55773 0.17019 0.55042 0.0
O63 O 0.62671 0.11264 0.55401 0.0
O64 O 0.49229 0.24122 0.52449 0.0
O65 O 0.58421 0.25218 0.49947 0.0
O66 O 0.41036 1.09309 0.54791 0.0
O67 O 0.37352 0.14088 0.50304 0.0
O68 O 0.52484 0.11264 0.45959 0.0
O69 O 0.45889 0.17033 0.45061 0.0
O70 O 0.59192 1.04654 0.49235 0.0
O71 O 0.49831 1.03866 0.51548 0.0
H72 H 0.74019 0.27709 0.52339 0.0
H73 H 0.80559 0.36879 0.51659 0.0
H74 H 0.83963 0.30669 0.40742 0.0
H75 H 0.77394 0.21503 0.41422 0.0
H76 H 0.30506 1.07471 0.45798 0.0
H77 H 0.24898 0.98127 0.43443 0.0
H78 H 0.27051 0.91286 0.54185 0.0
H79 H 0.32665 1.00721 0.56599 0.0
Pr80 Pr 0.56151 0.57332 0.81846 0.0
Pr81 Pr 0.58071 0.70304 0.82587 0.0
C82 C 0.54868 0.4618 0.79416 0.0
C83 C 0.58221 0.41654 0.80904 0.0
C84 C 0.55153 0.36118 0.81341 0.0
C85 C 0.58393 0.31754 0.8267 0.0
C86 C 0.64751 0.3289 0.83561 0.0
C87 C 0.67716 0.38578 0.83408 0.0
C88 C 0.64445 0.42955 0.82108 0.0
C89 C 0.56478 0.60098 0.89429 0.0
C90 C 0.70469 0.63556 0.82763 0.0
C91 C 0.60167 0.81273 0.85302 0.0
C92 C 0.56123 0.8388 0.87736 0.0
C93 C 0.49996 0.84055 0.86527 0.0
C94 C 0.46235 0.86796 0.88739 0.0
C95 C 0.48641 0.89755 0.9212 0.0
C96 C 0.5427 0.88297 0.93648 0.0
C97 C 0.58092 0.8557 0.91416 0.0
C98 C 0.55376 0.65923 0.75297 0.0
C99 C 0.44216 0.63996 0.82695 0.0
O100 O 0.58116 0.50264 0.77791 0.0
O101 O 0.51097 0.48186 0.81604 0.0
O102 O 0.57048 0.63759 0.86988 0.0
O103 O 0.55999 0.54785 0.87996 0.0
O104 O 0.68251 0.68609 0.82562 0.0
O105 O 0.66854 0.58549 0.82713 0.0
O106 O 0.63051 0.77178 0.86729 0.0
O107 O 0.57957 0.79978 0.81888 0.0
O108 O 0.59 0.6397 0.77632 0.0
O109 O 0.53256 0.7053 0.76648 0.0
O110 O 0.46246 0.59803 0.8072 0.0
O111 O 0.48113 0.68294 0.84313 0.0
H112 H 0.50313 0.3512 0.8054 0.0
H113 H 0.55992 0.2737 0.82725 0.0
H114 H 0.72594 0.39538 0.84082 0.0
H115 H 0.6683 0.47296 0.81926 0.0
H116 H 0.48141 0.82316 0.83808 0.0
H117 H 0.41727 0.87268 0.87522 0.0
H118 H 0.56076 0.89995 0.96378 0.0
H119 H 0.62655 0.85011 0.92515 0.0
H120 H 0.45128 1.08731 0.27069 0.0
H121 H 0.64116 0.15668 0.28521 0.0
H122 H 0.56189 1.08657 0.17888 0.0
C123 C 0.49443 0.09901 0.25914 0.0
C124 C 0.50009 1.08428 0.22193 0.0
C125 C 0.54469 0.12576 0.28213 0.0
C126 C 0.60147 0.13738 0.26763 0.0
C127 C 0.60716 0.1232 0.23036 0.0
C128 C 0.55664 1.09726 0.2076 0.0
N129 N 0.66467 0.13074 0.21615 0.0
C130 C 0.6872 0.18386 0.20321 0.0
H131 H 0.54877 0.51472 0.59714 0.0
H132 H 0.54264 0.69886 0.58108 0.0
H133 H 0.54026 0.57546 0.48775 0.0
C134 C 0.54521 0.5501 0.57889 0.0
C135 C 0.54258 0.53656 0.54083 0.0
C136 C 0.54468 0.60794 0.59385 0.0
C137 C 0.54352 0.65446 0.56988 0.0
C138 C 0.54258 0.6441 0.53155 0.0
C139 C 0.54196 0.58447 0.51721 0.0
N140 N 0.54131 0.69169 0.50685 0.0
C141 C 0.54318 0.7535 0.51466 0.0
H142 H 0.94108 0.63387 0.91744 0.0
H143 H 0.13121 0.62711 0.90283 0.0
H144 H 1.00263 0.63673 0.80902 0.0
C145 C 0.97798 0.63384 0.89954 0.0
C146 C 0.96503 0.63611 0.86169 0.0
C147 C 1.03736 0.6299 0.91461 0.0
C148 C 0.0853 0.63037 0.8913 0.0
C149 C 0.07284 0.63299 0.85294 0.0
C150 C 1.01248 0.63526 0.83845 0.0
N151 N 0.11877 0.63237 0.82776 0.0
C152 C 0.18109 0.63173 0.83644 0.0
H153 H 0.11747 0.75748 0.36596 0.0
H154 H 1.03306 0.57992 0.37307 0.0
H155 H 0.12319 0.67732 0.46959 0.0
C156 C 0.10531 0.7202 0.38215 0.0
C157 C 0.12359 0.72362 0.41982 0.0
C158 C 0.07309 0.66852 0.36491 0.0
C159 C 0.05725 0.6203 0.38612 0.0
C160 C 0.07502 0.62422 0.42415 0.0
C161 C 0.10839 0.67543 0.44051 0.0
N162 N 0.06446 0.57642 0.44661 0.0
C163 C 1.01257 0.53597 0.44329 0.0
H164 H 0.63499 0.16399 0.72985 0.0
H165 H 0.49806 1.01567 0.72161 0.0
H166 H 0.60717 1.05894 0.82307 0.0
C167 C 0.61401 0.12613 0.74256 0.0
C168 C 0.62891 0.11674 0.77983 0.0
C169 C 0.56951 1.08797 0.72112 0.0
C170 C 0.53531 1.04288 0.73747 0.0
C171 C 0.54618 1.03571 0.77492 0.0
C172 C 0.59633 1.06875 0.79498 0.0
N173 N 0.50241 0.99993 0.79268 0.0
C174 C 0.49065 1.01257 0.82886 0.0
H175 H 0.68849 0.66198 0.04522 0.0
H176 H 0.49996 0.64142 0.0687 0.0
H177 H 0.64261 0.65943 0.15726 0.0
C178 C 0.65432 0.66016 0.06502 0.0
C179 C 0.67307 0.66282 0.10262 0.0
C180 C 0.59228 0.65181 0.05247 0.0
C181 C 0.54791 0.64788 0.07827 0.0
C182 C 0.5659 0.65127 0.11631 0.0
C183 C 0.62857 0.65776 0.12812 0.0
N184 N 0.523 0.64696 0.14355 0.0
C185 C 0.45985 0.64662 0.13768 0.0
C186 C 0.28976 0.59791 0.13096 0.0
C187 C 0.26602 0.64865 0.14392 0.0
C188 C 0.35288 0.59776 0.12806 0.0
C189 C 0.39441 0.64819 0.13821 0.0
H190 H 0.25929 0.55833 0.12242 0.0
H191 H 0.36929 0.55783 0.11805 0.0
S192 S 0.35702 0.79053 0.17666 0.0
N193 N 0.29028 0.74979 0.16866 0.0
N194 N 0.40824 0.7489 0.16351 0.0
C195 C 0.37164 0.69867 0.15179 0.0
C196 C 0.30762 0.69908 0.15454 0.0
C197 C 0.86967 0.42938 0.42687 0.0
C198 C 0.87249 0.39692 0.45856 0.0
C199 C 0.9149 0.4759 0.42196 0.0
C200 C 0.96398 0.4908 0.44859 0.0
H201 H 0.83272 0.41819 0.40558 0.0
H202 H 0.912 0.49954 0.39709 0.0
S203 S 0.99251 0.42083 0.53624 0.0
N204 N 0.92862 0.3838 0.51688 0.0
N205 N 1.01282 0.47168 0.50768 0.0
C206 C 0.9667 0.45994 0.4806 0.0
C207 C 0.921 0.41279 0.48565 0.0
C208 C 0.41442 0.9698 0.91078 0.0
C209 C 0.46855 0.95749 0.93029 0.0
C210 C 0.41982 0.995 0.87658 0.0
C211 C 0.47786 1.01753 0.86681 0.0
H212 H 0.37152 0.94419 0.91507 0.0
H213 H 0.38085 0.98941 0.85636 0.0
S214 S 0.61654 1.04973 0.93125 0.0
N215 N 0.56696 1.0096 0.95411 0.0
N216 N 0.58111 1.05706 0.89059 0.0
C217 C 0.52557 1.02752 0.89474 0.0
C218 C 0.51791 1.00172 0.9289 0.0
C219 C 0.82843 0.62357 0.13799 0.0
C220 C 0.8694 0.66878 0.12549 0.0
C221 C 0.76478 0.6235 0.1325 0.0
C222 C 0.73958 0.66847 0.11418 0.0
H223 H 0.84546 0.58707 0.15138 0.0
H224 H 0.73514 0.58675 0.14125 0.0
S225 S 0.82533 0.80037 0.07993 0.0
N226 N 0.87878 0.76253 0.09678 0.0
N227 N 0.75974 0.76166 0.08639 0.0
C228 C 0.77964 0.71513 0.10311 0.0
C229 C 0.84428 0.71547 0.10877 0.0
C230 C 0.17398 0.85588 0.48594 0.0
C231 C 0.22607 0.88238 0.47079 0.0
C232 C 0.14135 0.80395 0.46953 0.0
C233 C 0.15994 0.77703 0.43755 0.0
H234 H 0.15736 0.87635 0.50991 0.0
H235 H 0.10049 0.78552 0.4814 0.0
S236 S 0.2984 0.82447 0.39064 0.0
N237 N 0.29829 0.87499 0.42441 0.0
N238 N 0.23706 0.77712 0.3937 0.0
C239 C 0.21351 0.80168 0.4232 0.0
C240 C 0.24661 0.85445 0.43983 0.0
C241 C 0.65897 0.23159 0.85693 0.0
C242 C 0.68219 0.27843 0.83705 0.0
C243 C 0.64949 0.17504 0.84024 0.0
C244 C 0.66685 0.16366 0.80437 0.0
H245 H 0.63606 0.24012 0.88147 0.0
H246 H 0.62006 0.14352 0.85351 0.0
S247 S 0.76512 0.26777 0.7533 0.0
N248 N 0.74511 0.30802 0.78799 0.0
N249 N 0.73521 0.19974 0.75885 0.0
C250 C 0.70704 0.20762 0.79018 0.0
C251 C 0.71376 0.26587 0.80636 0.0
C252 C 0.50202 0.91241 0.52642 0.0
C253 C 0.5462 0.9467 0.50767 0.0
C254 C 0.50184 0.8506 0.52948 0.0
C255 C 0.54585 0.81919 0.51401 0.0
H256 H 0.46687 0.93347 0.53896 0.0
H257 H 0.46636 0.82715 0.54381 0.0
S258 S 0.67093 0.88568 0.46143 0.0
N259 N 0.63514 0.94202 0.47313 0.0
N260 N 0.63433 0.82781 0.47868 0.0
C261 C 0.59009 0.85266 0.49529 0.0
C262 C 0.59046 0.91546 0.49223 0.0
C263 C 0.80843 0.68609 0.84956 0.0
C264 C 0.77206 0.63623 0.83237 0.0
C265 C 0.87151 0.68674 0.85727 0.0
C266 C 0.90093 0.6381 0.84741 0.0
H267 H 0.78772 0.72419 0.85851 0.0
H268 H 0.89728 0.72495 0.87205 0.0
S269 S 0.82822 0.49874 0.79921 0.0
N270 N 0.77132 0.53824 0.80373 0.0
N271 N 0.89012 0.53993 0.81804 0.0
C272 C 0.86592 0.58902 0.82879 0.0
C273 C 0.80143 0.58794 0.82136 0.0
C274 C 0.33709 1.03769 0.18419 0.0
C275 C 0.34078 0.98431 0.16454 0.0
C276 C 0.3894 1.07136 0.20101 0.0
C277 C 0.44721 1.05248 0.19911 0.0
H278 H 0.29314 1.05272 0.18742 0.0
H279 H 0.38436 0.11161 0.21662 0.0
S280 S 0.48132 0.91679 0.14949 0.0
N281 N 0.40666 0.91547 0.14219 0.0
N282 N 0.50531 0.97776 0.17496 0.0
C283 C 0.45183 1.00029 0.17819 0.0
C284 C 0.39845 0.96639 0.16062 0.0
C285 C 0.49009 0.36885 0.53141 0.0
C286 C 0.53927 0.34341 0.51717 0.0
C287 C 0.49033 0.43067 0.53684 0.0
C288 C 0.53925 0.47154 0.52789 0.0
H289 H 0.45108 0.34067 0.53928 0.0
H290 H 0.45206 0.44673 0.54914 0.0
S291 S 0.67973 0.43026 0.48946 0.0
N292 N 0.63888 0.36634 0.49386 0.0
N293 N 0.63863 0.48105 0.50382 0.0
C294 C 0.58816 0.44711 0.51286 0.0
C295 C 0.5883 0.38393 0.50757 0.0
C296 C 0.33433 0.59064 0.81467 0.0
C297 C 0.37547 0.63774 0.83147 0.0
C298 C 0.2712 0.58788 0.81772 0.0
C299 C 0.24674 0.63185 0.83779 0.0
H300 H 0.35077 0.55583 0.79857 0.0
H301 H 0.24119 0.55167 0.80354 0.0
S302 S 0.33311 0.76255 0.88879 0.0
N303 N 0.38599 0.72821 0.8705 0.0
N304 N 0.26735 0.72261 0.87567 0.0
C305 C 0.28678 0.67828 0.85546 0.0
C306 C 0.35114 0.6813 0.85247 0.0
C307 C 0.80031 0.28307 0.15822 0.0
C308 C 0.79821 0.33727 0.17746 0.0
C309 C 0.76051 0.23355 0.16497 0.0
C310 C 0.7174 0.23713 0.19084 0.0
H311 H 0.83598 0.27774 0.14008 0.0
H312 H 0.76609 0.19158 0.15158 0.0
S313 S 0.68538 0.3707 0.2429 0.0
N314 N 0.74356 0.39336 0.21929 0.0
N315 N 0.66868 0.2996 0.23199 0.0
C316 C 0.71088 0.2918 0.20768 0.0
C317 C 0.75141 0.34227 0.20091 0.0
C318 C 1.01074 0.57062 0.00754 0.0
C319 C 0.04694 0.61177 0.03216 0.0
C320 C 1.01001 0.57581 0.96952 0.0
C321 C 0.04625 0.6218 0.95459 0.0
H322 H 0.98167 0.53476 0.01776 0.0
H323 H 0.97998 0.54406 0.95158 0.0
S324 S 0.15355 0.73776 0.00719 0.0
N325 N 0.12311 0.69776 0.03902 0.0
N326 N 0.12183 0.70748 0.96726 0.0
C327 C 0.08447 0.66202 0.97879 0.0
C328 C 0.08463 0.65713 0.01768 0.0
C329 C 0.56129 0.1136 0.38532 0.0
C330 C 0.51319 0.14269 0.39729 0.0
C331 C 0.57354 0.11108 0.34821 0.0
C332 C 0.53761 0.13692 0.32174 0.0
H333 H 0.58903 1.09162 0.40461 0.0
H334 H 0.60967 1.08664 0.33995 0.0
S335 S 0.4091 0.22142 0.33892 0.0
N336 N 0.4317 0.20058 0.37981 0.0
N337 N 0.45443 0.19519 0.31007 0.0
C338 C 0.49073 0.16765 0.33346 0.0
C339 C 0.47856 0.17068 0.37123 0.0
C340 C 0.58486 0.68202 0.69038 0.0
C341 C 0.55191 0.64444 0.71296 0.0
C342 C 0.5825 0.66974 0.65215 0.0
C343 C 0.54624 0.61981 0.6348 0.0
H344 H 0.613 0.72109 0.70242 0.0
H345 H 0.60982 0.6995 0.63613 0.0
S346 S 0.44896 0.50899 0.6824 0.0
N347 N 0.482 0.55565 0.7159 0.0
N348 N 0.4744 0.53376 0.64406 0.0
C349 C 0.51254 0.58214 0.65743 0.0
C350 C 0.51612 0.5942 0.69645 0.0
C351 C 0.5517 0.1627 0.63198 0.0
C352 C 0.56867 0.12054 0.60695 0.0
C353 C 0.54794 0.15066 0.669 0.0
C354 C 0.55978 1.09584 0.68151 0.0
H355 H 0.54529 0.20621 0.62348 0.0
H356 H 0.53859 0.18519 0.68829 0.0
S357 S 0.59466 0.96771 0.62494 0.0
N358 N 0.58924 1.01981 0.5958 0.0
N359 N 0.5815 0.9971 0.66529 0.0
C360 C 0.57115 1.05181 0.65596 0.0
C361 C 0.57582 1.06425 0.61857 0.0
C362 C 0.59408 0.67079 0.94971 0.0
C363 C 0.56527 0.61619 0.93433 0.0
C364 C 0.59993 0.68339 0.98798 0.0
C365 C 0.57583 0.64246 0.01219 0.0
H366 H 0.61449 0.70303 0.93222 0.0
H367 H 0.62506 0.72477 -0.00115 0.0
S368 S 0.49136 0.49557 0.98559 0.0
N369 N 0.50913 0.52246 0.94618 0.0
N370 N 0.51917 0.54671 0.01784 0.0
C371 C 0.54419 0.5891 -0.003 0.0
C372 C 0.53923 0.57581 0.95816 0.0
C373 C 1.02797 0.7154 0.2701 0.0
C374 C 0.06072 0.68173 0.24728 0.0
C375 C 1.02845 0.7078 0.30795 0.0
C376 C 0.06089 0.66562 0.32437 0.0
H377 H 1.0036 0.74958 0.25896 0.0
H378 H 1.00541 0.73688 0.32481 0.0
S379 S 0.14985 0.56274 0.27671 0.0
N380 N 0.12384 0.60217 0.24377 0.0
N381 N 0.12341 0.58722 0.31488 0.0
C382 C 0.09085 0.62927 0.30168 0.0
C383 C 0.09116 0.63753 0.26314 0.0
loop_
_geom_bond_atom_site_label_1
_geom_bond_atom_site_label_2
_geom_bond_distance
_geom_bond_site_symmetry_2
_ccdc_geom_bond_type
Pr0 C2 2.880 . S
Pr0 O20 2.562 . S
Pr0 O21 2.490 . S
Pr0 O22 2.695 1_655 S
Pr0 O23 2.512 . S
Pr0 O25 2.437 . S
Pr0 O28 2.436 1_655 S
Pr0 O30 2.438 1_655 S
Pr1 C11 2.880 . S
Pr1 O22 2.436 . S
Pr1 O24 2.438 1_455 S
Pr1 O26 2.562 . S
Pr1 O27 2.490 . S
Pr1 O28 2.695 . S
Pr1 O29 2.512 . S
Pr1 O31 2.437 . S
C2 Pr0 2.880 . S
C2 C3 1.491 . S
C2 O20 1.254 . S
C2 O21 1.225 . S
C3 C2 1.491 . S
C3 C4 1.392 . S
C3 C8 1.356 . S
C4 C3 1.392 . S
C4 C5 1.368 . S
C4 H32 0.929 . S
C5 C4 1.368 . S
C5 C6 1.386 . S
C5 H33 0.929 . S
C6 C5 1.386 . S
C6 C7 1.373 . S
C7 C6 1.373 . S
C7 C8 1.409 . S
C7 H34 0.931 . S
C8 C3 1.356 . S
C8 C7 1.409 . S
C8 H35 0.930 . S
C9 O22 1.270 . S
C9 O23 1.248 1_455 S
C10 O24 1.267 . S
C10 O25 1.278 . S
C11 Pr1 2.880 . S
C11 C12 1.491 . S
C11 O26 1.254 . S
C11 O27 1.225 . S
C12 C11 1.491 . S
C12 C13 1.392 . S
C12 C17 1.356 . S
C13 C12 1.392 . S
C13 C14 1.368 . S
C13 H36 0.929 . S
C14 C13 1.368 . S
C14 C15 1.386 . S
C14 H37 0.929 . S
C15 C14 1.386 . S
C15 C16 1.373 . S
C16 C15 1.373 . S
C16 C17 1.409 . S
C16 H38 0.931 . S
C17 C12 1.356 . S
C17 C16 1.409 . S
C17 H39 0.930 . S
C18 O28 1.270 . S
C18 O29 1.248 . S
C19 O30 1.267 . S
C19 O31 1.278 . S
O20 Pr0 2.562 . S
O20 C2 1.254 . S
O21 Pr0 2.490 . S
O21 C2 1.225 . S
O22 Pr0 2.695 1_455 S
O22 Pr1 2.436 . S
O22 C9 1.270 . S
O23 Pr0 2.512 . S
O23 C9 1.248 1_655 S
O24 Pr1 2.438 1_655 S
O24 C10 1.267 . S
O25 Pr0 2.437 . S
O25 C10 1.278 . S
O26 Pr1 2.562 . S
O26 C11 1.254 . S
O27 Pr1 2.490 . S
O27 C11 1.225 . S
O28 Pr0 2.436 1_455 S
O28 Pr1 2.695 . S
O28 C18 1.270 . S
O29 Pr1 2.512 . S
O29 C18 1.248 . S
O30 Pr0 2.438 1_455 S
O30 C19 1.267 . S
O31 Pr1 2.437 . S
O31 C19 1.278 . S
H32 C4 0.929 . S
H33 C5 0.929 . S
H34 C7 0.931 . S
H35 C8 0.930 . S
H36 C13 0.929 . S
H37 C14 0.929 . S
H38 C16 0.931 . S
H39 C17 0.930 . S
Pr40 C42 2.880 . S
Pr40 O60 2.562 . S
Pr40 O61 2.490 . S
Pr40 O62 2.695 . S
Pr40 O63 2.512 . S
Pr40 O65 2.437 . S
Pr40 O68 2.436 . S
Pr40 O70 2.438 1_545 S
Pr41 C51 2.880 1_545 S
Pr41 O62 2.436 . S
Pr41 O64 2.438 . S
Pr41 O66 2.562 1_545 S
Pr41 O67 2.490 1_545 S
Pr41 O68 2.695 . S
Pr41 O69 2.512 . S
Pr41 O71 2.437 1_545 S
C42 Pr40 2.880 . S
C42 C43 1.491 . S
C42 O60 1.254 . S
C42 O61 1.225 . S
C43 C42 1.491 . S
C43 C44 1.392 . S
C43 C48 1.356 . S
C44 C43 1.392 . S
C44 C45 1.368 . S
C44 H72 0.929 . S
C45 C44 1.368 . S
C45 C46 1.386 . S
C45 H73 0.929 . S
C46 C45 1.386 . S
C46 C47 1.373 . S
C47 C46 1.373 . S
C47 C48 1.409 . S
C47 H74 0.931 . S
C48 C43 1.356 . S
C48 C47 1.409 . S
C48 H75 0.930 . S
C49 O62 1.270 . S
C49 O63 1.248 . S
C50 O64 1.267 . S
C50 O65 1.278 . S
C51 Pr41 2.880 1_565 S
C51 C52 1.491 . S
C51 O66 1.254 . S
C51 O67 1.225 . S
C52 C51 1.491 . S
C52 C53 1.392 . S
C52 C57 1.356 . S
C53 C52 1.392 . S
C53 C54 1.368 . S
C53 H76 0.929 . S
C54 C53 1.368 . S
C54 C55 1.386 . S
C54 H77 0.929 . S
C55 C54 1.386 . S
C55 C56 1.373 . S
C56 C55 1.373 . S
C56 C57 1.409 . S
C56 H78 0.931 . S
C57 C52 1.356 . S
C57 C56 1.409 . S
C57 H79 0.930 . S
C58 O68 1.270 . S
C58 O69 1.248 . S
C59 O70 1.267 . S
C59 O71 1.278 . S
O60 Pr40 2.562 . S
O60 C42 1.254 . S
O61 Pr40 2.490 . S
O61 C42 1.225 . S
O62 Pr40 2.695 . S
O62 Pr41 2.436 . S
O62 C49 1.270 . S
O63 Pr40 2.512 . S
O63 C49 1.248 . S
O64 Pr41 2.438 . S
O64 C50 1.267 . S
O65 Pr40 2.437 . S
O65 C50 1.278 . S
O66 Pr41 2.562 1_565 S
O66 C51 1.254 . S
O67 Pr41 2.490 1_565 S
O67 C51 1.225 . S
O68 Pr40 2.436 . S
O68 Pr41 2.695 . S
O68 C58 1.270 . S
O69 Pr41 2.512 . S
O69 C58 1.248 . S
O70 Pr40 2.438 1_565 S
O70 C59 1.267 . S
O71 Pr41 2.437 1_565 S
O71 C59 1.278 . S
H72 C44 0.929 . S
H73 C45 0.929 . S
H74 C47 0.931 . S
H75 C48 0.930 . S
H76 C53 0.929 . S
H77 C54 0.929 . S
H78 C56 0.931 . S
H79 C57 0.930 . S
Pr80 C82 2.880 . S
Pr80 O100 2.562 . S
Pr80 O101 2.490 . S
Pr80 O102 2.695 . S
Pr80 O103 2.512 . S
Pr80 O105 2.437 . S
Pr80 O108 2.436 . S
Pr80 O110 2.438 . S
Pr81 C91 2.880 . S
Pr81 O102 2.436 . S
Pr81 O104 2.438 . S
Pr81 O106 2.562 . S
Pr81 O107 2.490 . S
Pr81 O108 2.695 . S
Pr81 O109 2.512 . S
Pr81 O111 2.437 . S
C82 Pr80 2.880 . S
C82 C83 1.491 . S
C82 O100 1.254 . S
C82 O101 1.225 . S
C83 C82 1.491 . S
C83 C84 1.392 . S
C83 C88 1.356 . S
C84 C83 1.392 . S
C84 C85 1.368 . S
C84 H112 0.929 . S
C85 C84 1.368 . S
C85 C86 1.386 . S
C85 H113 0.929 . S
C86 C85 1.386 . S
C86 C87 1.373 . S
C87 C86 1.373 . S
C87 C88 1.409 . S
C87 H114 0.931 . S
C88 C83 1.356 . S
C88 C87 1.409 . S
C88 H115 0.930 . S
C89 O102 1.270 . S
C89 O103 1.248 . S
C90 O104 1.267 . S
C90 O105 1.278 . S
C91 Pr81 2.880 . S
C91 C92 1.491 . S
C91 O106 1.254 . S
C91 O107 1.225 . S
C92 C91 1.491 . S
C92 C93 1.392 . S
C92 C97 1.356 . S
C93 C92 1.392 . S
C93 C94 1.368 . S
C93 H116 0.929 . S
C94 C93 1.368 . S
C94 C95 1.386 . S
C94 H117 0.929 . S
C95 C94 1.386 . S
C95 C96 1.373 . S
C96 C95 1.373 . S
C96 C97 1.409 . S
C96 H118 0.931 . S
C97 C92 1.356 . S
C97 C96 1.409 . S
C97 H119 0.930 . S
C98 O108 1.270 . S
C98 O109 1.248 . S
C99 O110 1.267 . S
C99 O111 1.278 . S
O100 Pr80 2.562 . S
O100 C82 1.254 . S
O101 Pr80 2.490 . S
O101 C82 1.225 . S
O102 Pr80 2.695 . S
O102 Pr81 2.436 . S
O102 C89 1.270 . S
O103 Pr80 2.512 . S
O103 C89 1.248 . S
O104 Pr81 2.438 . S
O104 C90 1.267 . S
O105 Pr80 2.437 . S
O105 C90 1.278 . S
O106 Pr81 2.562 . S
O106 C91 1.254 . S
O107 Pr81 2.490 . S
O107 C91 1.225 . S
O108 Pr80 2.436 . S
O108 Pr81 2.695 . S
O108 C98 1.270 . S
O109 Pr81 2.512 . S
O109 C98 1.248 . S
O110 Pr80 2.438 . S
O110 C99 1.267 . S
O111 Pr81 2.437 . S
O111 C99 1.278 . S
H112 C84 0.929 . S
H113 C85 0.929 . S
H114 C87 0.931 . S
H115 C88 0.930 . S
H116 C93 0.929 . S
H117 C94 0.929 . S
H118 C96 0.931 . S
H119 C97 0.930 . S
H120 C123 0.922 1_565 S
H121 C126 0.929 . S
H122 C128 0.930 . S
C123 H120 0.922 1_545 S
C123 C124 1.396 1_545 S
C123 C125 1.405 . S
C124 C123 1.396 1_565 S
C124 C128 1.407 1_565 S
C125 C123 1.405 . S
C125 C126 1.394 . S
C126 H121 0.929 . S
C126 C125 1.394 . S
C126 C127 1.382 . S
C127 C126 1.382 . S
C127 C128 1.392 . S
C127 N129 1.420 . S
C128 H122 0.930 . S
C128 C124 1.407 1_545 S
C128 C127 1.392 . S
N129 C127 1.420 . S
N129 C130 1.244 . S
C130 N129 1.244 . S
H131 C134 0.929 . S
H132 C137 0.929 . S
H133 C139 0.930 . S
C134 H131 0.929 . S
C134 C135 1.398 . S
C134 C136 1.396 . S
C135 C134 1.398 . S
C135 C139 1.407 . S
C136 C134 1.396 . S
C136 C137 1.394 . S
C137 H132 0.929 . S
C137 C136 1.394 . S
C137 C138 1.382 . S
C138 C137 1.382 . S
C138 C139 1.392 . S
C138 N140 1.420 . S
C139 H133 0.930 . S
C139 C135 1.407 . S
C139 C138 1.392 . S
N140 C138 1.420 . S
N140 C141 1.244 . S
C141 N140 1.244 . S
H142 C145 0.929 . S
H143 C148 0.929 . S
H144 C150 0.930 . S
C145 H142 0.929 . S
C145 C146 1.398 . S
C145 C147 1.396 1_655 S
C146 C145 1.398 . S
C146 C150 1.407 . S
C147 C145 1.396 1_455 S
C147 C148 1.394 . S
C148 H143 0.929 . S
C148 C147 1.394 . S
C148 C149 1.382 . S
C149 C148 1.382 . S
C149 C150 1.392 1_455 S
C149 N151 1.420 . S
C150 H144 0.930 . S
C150 C146 1.407 . S
C150 C149 1.392 1_655 S
N151 C149 1.420 . S
N151 C152 1.244 . S
C152 N151 1.244 . S
H153 C156 0.929 . S
H154 C159 0.929 . S
H155 C161 0.930 . S
C156 H153 0.929 . S
C156 C157 1.398 . S
C156 C158 1.396 . S
C157 C156 1.398 . S
C157 C161 1.407 . S
C158 C156 1.396 . S
C158 C159 1.394 1_455 S
C159 H154 0.929 . S
C159 C158 1.394 1_655 S
C159 C160 1.382 1_655 S
C160 C159 1.382 1_455 S
C160 C161 1.392 . S
C160 N162 1.420 1_455 S
C161 H155 0.930 . S
C161 C157 1.407 . S
C161 C160 1.392 . S
N162 C160 1.420 1_655 S
N162 C163 1.244 . S
C163 N162 1.244 . S
H164 C167 0.929 . S
H165 C170 0.929 . S
H166 C172 0.930 . S
C167 H164 0.929 . S
C167 C168 1.398 . S
C167 C169 1.396 . S
C168 C167 1.398 . S
C168 C172 1.407 . S
C169 C167 1.396 . S
C169 C170 1.394 1_545 S
C170 H165 0.929 . S
C170 C169 1.394 1_565 S
C170 C171 1.382 1_565 S
C171 C170 1.382 1_545 S
C171 C172 1.392 . S
C171 N173 1.420 1_545 S
C172 H166 0.930 . S
C172 C168 1.407 . S
C172 C171 1.392 . S
N173 C171 1.420 1_565 S
N173 C174 1.244 . S
C174 N173 1.244 . S
H175 C178 0.929 . S
H176 C181 0.929 . S
H177 C183 0.930 . S
C178 H175 0.929 . S
C178 C179 1.398 . S
C178 C180 1.396 . S
C179 C178 1.398 . S
C179 C183 1.407 . S
C180 C178 1.396 . S
C180 C181 1.394 . S
C181 H176 0.929 . S
C181 C180 1.394 . S
C181 C182 1.382 . S
C182 C181 1.382 . S
C182 C183 1.392 . S
C182 N184 1.420 . S
C183 H177 0.930 . S
C183 C179 1.407 . S
C183 C182 1.392 . S
N184 C182 1.420 . S
N184 C185 1.244 . S
C185 N184 1.244 . S
C186 C187 1.369 . S
C186 C188 1.419 . S
C186 H190 0.930 . S
C187 C186 1.369 . S
C187 C196 1.429 . S
C188 C186 1.419 . S
C188 C189 1.363 . S
C188 H191 0.929 . S
C189 C188 1.363 . S
C189 C195 1.428 . S
H190 C186 0.930 . S
H191 C188 0.929 . S
S192 N193 1.613 . S
S192 N194 1.610 . S
N193 S192 1.613 . S
N193 C196 1.350 . S
N194 S192 1.610 . S
N194 C195 1.351 . S
C195 C189 1.428 . S
C195 N194 1.351 . S
C195 C196 1.434 . S
C196 C187 1.429 . S
C196 N193 1.350 . S
C196 C195 1.434 . S
C197 C198 1.369 . S
C197 C199 1.419 . S
C197 H201 0.930 . S
C198 C197 1.369 . S
C198 C207 1.429 . S
C199 C197 1.419 . S
C199 C200 1.363 . S
C199 H202 0.929 . S
C200 C199 1.363 . S
C200 C206 1.428 . S
H201 C197 0.930 . S
H202 C199 0.929 . S
S203 N204 1.613 . S
S203 N205 1.610 . S
N204 S203 1.613 . S
N204 C207 1.350 . S
N205 S203 1.610 . S
N205 C206 1.351 . S
C206 C200 1.428 . S
C206 N205 1.351 . S
C206 C207 1.434 . S
C207 C198 1.429 . S
C207 N204 1.350 . S
C207 C206 1.434 . S
C208 C209 1.369 . S
C208 C210 1.419 . S
C208 H212 0.930 . S
C209 C208 1.369 . S
C209 C218 1.429 . S
C210 C208 1.419 . S
C210 C211 1.363 . S
C210 H213 0.929 . S
C211 C210 1.363 . S
C211 C217 1.428 . S
H212 C208 0.930 . S
H213 C210 0.929 . S
S214 N215 1.613 . S
S214 N216 1.610 . S
N215 S214 1.613 . S
N215 C218 1.350 . S
N216 S214 1.610 . S
N216 C217 1.351 . S
C217 C211 1.428 . S
C217 N216 1.351 . S
C217 C218 1.434 . S
C218 C209 1.429 . S
C218 N215 1.350 . S
C218 C217 1.434 . S
C219 C220 1.369 . S
C219 C221 1.419 . S
C219 H223 0.930 . S
C220 C219 1.369 . S
C220 C229 1.429 . S
C221 C219 1.419 . S
C221 C222 1.363 . S
C221 H224 0.929 . S
C222 C221 1.363 . S
C222 C228 1.428 . S
H223 C219 0.930 . S
H224 C221 0.929 . S
S225 N226 1.613 . S
S225 N227 1.610 . S
N226 S225 1.613 . S
N226 C229 1.350 . S
N227 S225 1.610 . S
N227 C228 1.351 . S
C228 C222 1.428 . S
C228 N227 1.351 . S
C228 C229 1.434 . S
C229 C220 1.429 . S
C229 N226 1.350 . S
C229 C228 1.434 . S
C230 C231 1.369 . S
C230 C232 1.419 . S
C230 H234 0.930 . S
C231 C230 1.369 . S
C231 C240 1.429 . S
C232 C230 1.419 . S
C232 C233 1.363 . S
C232 H235 0.929 . S
C233 C232 1.363 . S
C233 C239 1.428 . S
H234 C230 0.930 . S
H235 C232 0.929 . S
S236 N237 1.613 . S
S236 N238 1.610 . S
N237 S236 1.613 . S
N237 C240 1.350 . S
N238 S236 1.610 . S
N238 C239 1.351 . S
C239 C233 1.428 . S
C239 N238 1.351 . S
C239 C240 1.434 . S
C240 C231 1.429 . S
C240 N237 1.350 . S
C240 C239 1.434 . S
C241 C242 1.369 . S
C241 C243 1.419 . S
C241 H245 0.930 . S
C242 C241 1.369 . S
C242 C251 1.429 . S
C243 C241 1.419 . S
C243 C244 1.363 . S
C243 H246 0.929 . S
C244 C243 1.363 . S
C244 C250 1.428 . S
H245 C241 0.930 . S
H246 C243 0.929 . S
S247 N248 1.613 . S
S247 N249 1.610 . S
N248 S247 1.613 . S
N248 C251 1.350 . S
N249 S247 1.610 . S
N249 C250 1.351 . S
C250 C244 1.428 . S
C250 N249 1.351 . S
C250 C251 1.434 . S
C251 C242 1.429 . S
C251 N248 1.350 . S
C251 C250 1.434 . S
C252 C253 1.369 . S
C252 C254 1.419 . S
C252 H256 0.930 . S
C253 C252 1.369 . S
C253 C262 1.429 . S
C254 C252 1.419 . S
C254 C255 1.363 . S
C254 H257 0.929 . S
C255 C254 1.363 . S
C255 C261 1.428 . S
H256 C252 0.930 . S
H257 C254 0.929 . S
S258 N259 1.613 . S
S258 N260 1.610 . S
N259 S258 1.613 . S
N259 C262 1.350 . S
N260 S258 1.610 . S
N260 C261 1.351 . S
C261 C255 1.428 . S
C261 N260 1.351 . S
C261 C262 1.434 . S
C262 C253 1.429 . S
C262 N259 1.350 . S
C262 C261 1.434 . S
C263 C264 1.369 . S
C263 C265 1.419 . S
C263 H267 0.930 . S
C264 C263 1.369 . S
C264 C273 1.429 . S
C265 C263 1.419 . S
C265 C266 1.363 . S
C265 H268 0.929 . S
C266 C265 1.363 . S
C266 C272 1.428 . S
H267 C263 0.930 . S
H268 C265 0.929 . S
S269 N270 1.613 . S
S269 N271 1.610 . S
N270 S269 1.613 . S
N270 C273 1.350 . S
N271 S269 1.610 . S
N271 C272 1.351 . S
C272 C266 1.428 . S
C272 N271 1.351 . S
C272 C273 1.434 . S
C273 C264 1.429 . S
C273 N270 1.350 . S
C273 C272 1.434 . S
C274 C275 1.369 . S
C274 C276 1.419 . S
C274 H278 0.930 . S
C275 C274 1.369 . S
C275 C284 1.429 . S
C276 C274 1.419 . S
C276 C277 1.363 . S
C276 H279 0.929 . S
C277 C276 1.363 . S
C277 C283 1.428 . S
H278 C274 0.930 . S
H279 C276 0.929 . S
S280 N281 1.613 . S
S280 N282 1.610 . S
N281 S280 1.613 . S
N281 C284 1.350 . S
N282 S280 1.610 . S
N282 C283 1.351 . S
C283 C277 1.428 . S
C283 N282 1.351 . S
C283 C284 1.434 . S
C284 C275 1.429 . S
C284 N281 1.350 . S
C284 C283 1.434 . S
C285 C286 1.369 . S
C285 C287 1.419 . S
C285 H289 0.930 . S
C286 C285 1.369 . S
C286 C295 1.429 . S
C287 C285 1.419 . S
C287 C288 1.363 . S
C287 H290 0.929 . S
C288 C287 1.363 . S
C288 C294 1.428 . S
H289 C285 0.930 . S
H290 C287 0.929 . S
S291 N292 1.613 . S
S291 N293 1.610 . S
N292 S291 1.613 . S
N292 C295 1.350 . S
N293 S291 1.610 . S
N293 C294 1.351 . S
C294 C288 1.428 . S
C294 N293 1.351 . S
C294 C295 1.434 . S
C295 C286 1.429 . S
C295 N292 1.350 . S
C295 C294 1.434 . S
C296 C297 1.369 . S
C296 C298 1.419 . S
C296 H300 0.930 . S
C297 C296 1.369 . S
C297 C306 1.429 . S
C298 C296 1.419 . S
C298 C299 1.363 . S
C298 H301 0.929 . S
C299 C298 1.363 . S
C299 C305 1.428 . S
H300 C296 0.930 . S
H301 C298 0.929 . S
S302 N303 1.613 . S
S302 N304 1.610 . S
N303 S302 1.613 . S
N303 C306 1.350 . S
N304 S302 1.610 . S
N304 C305 1.351 . S
C305 C299 1.428 . S
C305 N304 1.351 . S
C305 C306 1.434 . S
C306 C297 1.429 . S
C306 N303 1.350 . S
C306 C305 1.434 . S
C307 C308 1.369 . S
C307 C309 1.419 . S
C307 H311 0.930 . S
C308 C307 1.369 . S
C308 C317 1.429 . S
C309 C307 1.419 . S
C309 C310 1.363 . S
C309 H312 0.929 . S
C310 C309 1.363 . S
C310 C316 1.428 . S
H311 C307 0.930 . S
H312 C309 0.929 . S
S313 N314 1.613 . S
S313 N315 1.610 . S
N314 S313 1.613 . S
N314 C317 1.350 . S
N315 S313 1.610 . S
N315 C316 1.351 . S
C316 C310 1.428 . S
C316 N315 1.351 . S
C316 C317 1.434 . S
C317 C308 1.429 . S
C317 N314 1.350 . S
C317 C316 1.434 . S
C318 C319 1.369 1_655 S
C318 C320 1.419 1_554 S
C318 H322 0.930 . S
C319 C318 1.369 1_455 S
C319 C328 1.429 . S
C320 C318 1.419 1_556 S
C320 C321 1.363 1_655 S
C320 H323 0.929 . S
C321 C320 1.363 1_455 S
C321 C327 1.428 . S
H322 C318 0.930 . S
H323 C320 0.929 . S
S324 N325 1.613 . S
S324 N326 1.610 1_554 S
N325 S324 1.613 . S
N325 C328 1.350 . S
N326 S324 1.610 1_556 S
N326 C327 1.351 . S
C327 C321 1.428 . S
C327 N326 1.351 . S
C327 C328 1.434 1_556 S
C328 C319 1.429 . S
C328 N325 1.350 . S
C328 C327 1.434 1_554 S
C329 C330 1.369 . S
C329 C331 1.419 . S
C329 H333 0.930 . S
C330 C329 1.369 . S
C330 C339 1.429 . S
C331 C329 1.419 . S
C331 C332 1.363 . S
C331 H334 0.929 . S
C332 C331 1.363 . S
C332 C338 1.428 . S
H333 C329 0.930 . S
H334 C331 0.929 . S
S335 N336 1.613 . S
S335 N337 1.610 . S
N336 S335 1.613 . S
N336 C339 1.350 . S
N337 S335 1.610 . S
N337 C338 1.351 . S
C338 C332 1.428 . S
C338 N337 1.351 . S
C338 C339 1.434 . S
C339 C330 1.429 . S
C339 N336 1.350 . S
C339 C338 1.434 . S
C340 C341 1.369 . S
C340 C342 1.419 . S
C340 H344 0.930 . S
C341 C340 1.369 . S
C341 C350 1.429 . S
C342 C340 1.419 . S
C342 C343 1.363 . S
C342 H345 0.929 . S
C343 C342 1.363 . S
C343 C349 1.428 . S
H344 C340 0.930 . S
H345 C342 0.929 . S
S346 N347 1.613 . S
S346 N348 1.610 . S
N347 S346 1.613 . S
N347 C350 1.350 . S
N348 S346 1.610 . S
N348 C349 1.351 . S
C349 C343 1.428 . S
C349 N348 1.351 . S
C349 C350 1.434 . S
C350 C341 1.429 . S
C350 N347 1.350 . S
C350 C349 1.434 . S
C351 C352 1.369 . S
C351 C353 1.419 . S
C351 H355 0.930 . S
C352 C351 1.369 . S
C352 C361 1.429 1_545 S
C353 C351 1.419 . S
C353 C354 1.363 . S
C353 H356 0.929 . S
C354 C353 1.363 . S
C354 C360 1.428 1_545 S
H355 C351 0.930 . S
H356 C353 0.929 . S
S357 N358 1.613 . S
S357 N359 1.610 . S
N358 S357 1.613 . S
N358 C361 1.350 . S
N359 S357 1.610 . S
N359 C360 1.351 . S
C360 C354 1.428 1_565 S
C360 N359 1.351 . S
C360 C361 1.434 . S
C361 C352 1.429 1_565 S
C361 N358 1.350 . S
C361 C360 1.434 . S
C362 C363 1.369 . S
C362 C364 1.419 1_556 S
C362 H366 0.930 . S
C363 C362 1.369 . S
C363 C372 1.429 . S
C364 C362 1.419 1_554 S
C364 C365 1.363 . S
C364 H367 0.929 . S
C365 C364 1.363 . S
C365 C371 1.428 . S
H366 C362 0.930 . S
H367 C364 0.929 . S
S368 N369 1.613 . S
S368 N370 1.610 1_556 S
N369 S368 1.613 . S
N369 C372 1.350 . S
N370 S368 1.610 1_554 S
N370 C371 1.351 . S
C371 C365 1.428 . S
C371 N370 1.351 . S
C371 C372 1.434 1_554 S
C372 C363 1.429 . S
C372 N369 1.350 . S
C372 C371 1.434 1_556 S
C373 C374 1.369 . S
C373 C375 1.419 . S
C373 H377 0.930 . S
C374 C373 1.369 . S
C374 C383 1.429 . S
C375 C373 1.419 . S
C375 C376 1.363 . S
C375 H378 0.929 . S
C376 C375 1.363 . S
C376 C382 1.428 . S
H377 C373 0.930 . S
H378 C375 0.929 . S
S379 N380 1.613 . S
S379 N381 1.610 . S
N380 S379 1.613 . S
N380 C383 1.350 1_655 S
N381 S379 1.610 . S
N381 C382 1.351 1_655 S
C382 C376 1.428 . S
C382 N381 1.351 1_455 S
C382 C383 1.434 . S
C383 C374 1.429 . S
C383 N380 1.350 1_455 S
C383 C382 1.434 . S
C187 C19 1.972 . S
C189 C185 1.912 . S
C198 C46 1.371 . S
C200 C163 1.405 . S
C209 C95 0.793 . S
C211 C174 0.809 . S
C220 C10 1.912 . S
C222 C179 1.868 . S
C233 C157 1.317 . S
C231 C55 1.281 . S
C244 C168 0.885 . S
C242 C86 0.825 . S
C253 C59 3.175 . S
C255 C141 3.098 . S
C264 C90 1.947 . S
C266 C146 1.935 . S
C275 C15 1.234 . S
C277 C124 1.270 . S
C288 C135 3.001 . S
C286 C50 3.025 . S
C299 C152 1.932 . S
C297 C99 1.977 . S
C308 C6 1.346 . S
C310 C130 1.376 . S
C321 C147 1.455 . S
C319 C9 1.387 . S
C330 C58 1.518 . S
C332 C125 1.531 . S
C341 C98 1.708 . S
C343 C136 1.788 . S
C354 C169 1.144 . S
C352 C49 1.103 . S
C365 C180 1.434 . S
C363 C89 1.402 . S
C374 C18 1.505 . S
C376 C158 1.512 . S
