# Generated by pormake.
# Topology ana-f, (3,3)-cn, num edge types: 1
# Building blocks:
#     Node 0, Type 0, BuildingBlock: WUSLED_clean_sbu_0, # of connection points: 3
#     Node 1, Type 0, BuildingBlock: WUSLED_clean_sbu_0, # of connection points: 3
#     Node 2, Type 0, BuildingBlock: WUSLED_clean_sbu_0, # of connection points: 3
#     Node 3, Type 0, BuildingBlock: WUSLED_clean_sbu_0, # of connection points: 3
#     Node 4, Type 0, BuildingBlock: WUSLED_clean_sbu_0, # of connection points: 3
#     Node 5, Type 0, BuildingBlock: WUSLED_clean_sbu_0, # of connection points: 3
#     Node 6, Type 0, BuildingBlock: WUSLED_clean_sbu_0, # of connection points: 3
#     Node 7, Type 0, BuildingBlock: WUSLED_clean_sbu_0, # of connection points: 3
#     Node 8, Type 0, BuildingBlock: WUSLED_clean_sbu_0, # of connection points: 3
#     Node 9, Type 0, BuildingBlock: WUSLED_clean_sbu_0, # of connection points: 3
#     Node 10, Type 0, BuildingBlock: WUSLED_clean_sbu_0, # of connection points: 3
#     Node 11, Type 0, BuildingBlock: WUSLED_clean_sbu_0, # of connection points: 3
#     Node 12, Type 0, BuildingBlock: WUSLED_clean_sbu_0, # of connection points: 3
#     Node 13, Type 0, BuildingBlock: WUSLED_clean_sbu_0, # of connection points: 3
#     Node 14, Type 0, BuildingBlock: WUSLED_clean_sbu_0, # of connection points: 3
#     Node 15, Type 0, BuildingBlock: WUSLED_clean_sbu_0, # of connection points: 3
#     Node 16, Type 0, BuildingBlock: WUSLED_clean_sbu_0, # of connection points: 3
#     Node 17, Type 0, BuildingBlock: WUSLED_clean_sbu_0, # of connection points: 3
#     Node 18, Type 0, BuildingBlock: WUSLED_clean_sbu_0, # of connection points: 3
#     Node 19, Type 0, BuildingBlock: WUSLED_clean_sbu_0, # of connection points: 3
#     Node 20, Type 0, BuildingBlock: WUSLED_clean_sbu_0, # of connection points: 3
#     Node 21, Type 0, BuildingBlock: WUSLED_clean_sbu_0, # of connection points: 3
#     Node 22, Type 0, BuildingBlock: WUSLED_clean_sbu_0, # of connection points: 3
#     Node 23, Type 0, BuildingBlock: WUSLED_clean_sbu_0, # of connection points: 3
#     Node 24, Type 0, BuildingBlock: WUSLED_clean_sbu_0, # of connection points: 3
#     Node 25, Type 0, BuildingBlock: WUSLED_clean_sbu_0, # of connection points: 3
#     Node 26, Type 0, BuildingBlock: WUSLED_clean_sbu_0, # of connection points: 3
#     Node 27, Type 0, BuildingBlock: WUSLED_clean_sbu_0, # of connection points: 3
#     Node 28, Type 0, BuildingBlock: WUSLED_clean_sbu_0, # of connection points: 3
#     Node 29, Type 0, BuildingBlock: WUSLED_clean_sbu_0, # of connection points: 3
#     Node 30, Type 0, BuildingBlock: WUSLED_clean_sbu_0, # of connection points: 3
#     Node 31, Type 0, BuildingBlock: WUSLED_clean_sbu_0, # of connection points: 3
#     Node 32, Type 0, BuildingBlock: WUSLED_clean_sbu_0, # of connection points: 3
#     Node 33, Type 0, BuildingBlock: WUSLED_clean_sbu_0, # of connection points: 3
#     Node 34, Type 0, BuildingBlock: WUSLED_clean_sbu_0, # of connection points: 3
#     Node 35, Type 0, BuildingBlock: WUSLED_clean_sbu_0, # of connection points: 3
#     Node 36, Type 0, BuildingBlock: WUSLED_clean_sbu_0, # of connection points: 3
#     Node 37, Type 0, BuildingBlock: WUSLED_clean_sbu_0, # of connection points: 3
#     Node 38, Type 0, BuildingBlock: WUSLED_clean_sbu_0, # of connection points: 3
#     Node 39, Type 0, BuildingBlock: WUSLED_clean_sbu_0, # of connection points: 3
#     Node 40, Type 0, BuildingBlock: WUSLED_clean_sbu_0, # of connection points: 3
#     Node 41, Type 0, BuildingBlock: WUSLED_clean_sbu_0, # of connection points: 3
#     Node 42, Type 0, BuildingBlock: WUSLED_clean_sbu_0, # of connection points: 3
#     Node 43, Type 0, BuildingBlock: WUSLED_clean_sbu_0, # of connection points: 3
#     Node 44, Type 0, BuildingBlock: WUSLED_clean_sbu_0, # of connection points: 3
#     Node 45, Type 0, BuildingBlock: WUSLED_clean_sbu_0, # of connection points: 3
#     Node 46, Type 0, BuildingBlock: WUSLED_clean_sbu_0, # of connection points: 3
#     Node 47, Type 0, BuildingBlock: WUSLED_clean_sbu_0, # of connection points: 3
#     Node 48, Type 0, BuildingBlock: WUSLED_clean_sbu_0, # of connection points: 3
#     Node 49, Type 0, BuildingBlock: WUSLED_clean_sbu_0, # of connection points: 3
#     Node 50, Type 0, BuildingBlock: WUSLED_clean_sbu_0, # of connection points: 3
#     Node 51, Type 0, BuildingBlock: WUSLED_clean_sbu_0, # of connection points: 3
#     Node 52, Type 0, BuildingBlock: WUSLED_clean_sbu_0, # of connection points: 3
#     Node 53, Type 0, BuildingBlock: WUSLED_clean_sbu_0, # of connection points: 3
#     Node 54, Type 0, BuildingBlock: WUSLED_clean_sbu_0, # of connection points: 3
#     Node 55, Type 0, BuildingBlock: WUSLED_clean_sbu_0, # of connection points: 3
#     Node 56, Type 0, BuildingBlock: WUSLED_clean_sbu_0, # of connection points: 3
#     Node 57, Type 0, BuildingBlock: WUSLED_clean_sbu_0, # of connection points: 3
#     Node 58, Type 0, BuildingBlock: WUSLED_clean_sbu_0, # of connection points: 3
#     Node 59, Type 0, BuildingBlock: WUSLED_clean_sbu_0, # of connection points: 3
#     Node 60, Type 0, BuildingBlock: WUSLED_clean_sbu_0, # of connection points: 3
#     Node 61, Type 0, BuildingBlock: WUSLED_clean_sbu_0, # of connection points: 3
#     Node 62, Type 0, BuildingBlock: WUSLED_clean_sbu_0, # of connection points: 3
#     Node 63, Type 0, BuildingBlock: WUSLED_clean_sbu_0, # of connection points: 3
#     Node 64, Type 0, BuildingBlock: WUSLED_clean_sbu_0, # of connection points: 3
#     Node 65, Type 0, BuildingBlock: WUSLED_clean_sbu_0, # of connection points: 3
#     Node 66, Type 0, BuildingBlock: WUSLED_clean_sbu_0, # of connection points: 3
#     Node 67, Type 0, BuildingBlock: WUSLED_clean_sbu_0, # of connection points: 3
#     Node 68, Type 0, BuildingBlock: WUSLED_clean_sbu_0, # of connection points: 3
#     Node 69, Type 0, BuildingBlock: WUSLED_clean_sbu_0, # of connection points: 3
#     Node 70, Type 0, BuildingBlock: WUSLED_clean_sbu_0, # of connection points: 3
#     Node 71, Type 0, BuildingBlock: WUSLED_clean_sbu_0, # of connection points: 3
#     Node 72, Type 0, BuildingBlock: WUSLED_clean_sbu_0, # of connection points: 3
#     Node 73, Type 0, BuildingBlock: WUSLED_clean_sbu_0, # of connection points: 3
#     Node 74, Type 0, BuildingBlock: WUSLED_clean_sbu_0, # of connection points: 3
#     Node 75, Type 0, BuildingBlock: WUSLED_clean_sbu_0, # of connection points: 3
#     Node 76, Type 0, BuildingBlock: WUSLED_clean_sbu_0, # of connection points: 3
#     Node 77, Type 0, BuildingBlock: WUSLED_clean_sbu_0, # of connection points: 3
#     Node 78, Type 0, BuildingBlock: WUSLED_clean_sbu_0, # of connection points: 3
#     Node 79, Type 0, BuildingBlock: WUSLED_clean_sbu_0, # of connection points: 3
#     Node 80, Type 0, BuildingBlock: WUSLED_clean_sbu_0, # of connection points: 3
#     Node 81, Type 0, BuildingBlock: WUSLED_clean_sbu_0, # of connection points: 3
#     Node 82, Type 0, BuildingBlock: WUSLED_clean_sbu_0, # of connection points: 3
#     Node 83, Type 0, BuildingBlock: WUSLED_clean_sbu_0, # of connection points: 3
#     Node 84, Type 0, BuildingBlock: WUSLED_clean_sbu_0, # of connection points: 3
#     Node 85, Type 0, BuildingBlock: WUSLED_clean_sbu_0, # of connection points: 3
#     Node 86, Type 0, BuildingBlock: WUSLED_clean_sbu_0, # of connection points: 3
#     Node 87, Type 0, BuildingBlock: WUSLED_clean_sbu_0, # of connection points: 3
#     Node 88, Type 0, BuildingBlock: WUSLED_clean_sbu_0, # of connection points: 3
#     Node 89, Type 0, BuildingBlock: WUSLED_clean_sbu_0, # of connection points: 3
#     Node 90, Type 0, BuildingBlock: WUSLED_clean_sbu_0, # of connection points: 3
#     Node 91, Type 0, BuildingBlock: WUSLED_clean_sbu_0, # of connection points: 3
#     Node 92, Type 0, BuildingBlock: WUSLED_clean_sbu_0, # of connection points: 3
#     Node 93, Type 0, BuildingBlock: WUSLED_clean_sbu_0, # of connection points: 3
#     Node 94, Type 0, BuildingBlock: WUSLED_clean_sbu_0, # of connection points: 3
#     Node 95, Type 0, BuildingBlock: WUSLED_clean_sbu_0, # of connection points: 3
#     Node 96, Type 1, BuildingBlock: QEWDON_clean_linker_0, # of connection points: 3
#     Node 97, Type 1, BuildingBlock: QEWDON_clean_linker_0, # of connection points: 3
#     Node 98, Type 1, BuildingBlock: QEWDON_clean_linker_0, # of connection points: 3
#     Node 99, Type 1, BuildingBlock: QEWDON_clean_linker_0, # of connection points: 3
#     Node 100, Type 1, BuildingBlock: QEWDON_clean_linker_0, # of connection points: 3
#     Node 101, Type 1, BuildingBlock: QEWDON_clean_linker_0, # of connection points: 3
#     Node 102, Type 1, BuildingBlock: QEWDON_clean_linker_0, # of connection points: 3
#     Node 103, Type 1, BuildingBlock: QEWDON_clean_linker_0, # of connection points: 3
#     Node 104, Type 1, BuildingBlock: QEWDON_clean_linker_0, # of connection points: 3
#     Node 105, Type 1, BuildingBlock: QEWDON_clean_linker_0, # of connection points: 3
#     Node 106, Type 1, BuildingBlock: QEWDON_clean_linker_0, # of connection points: 3
#     Node 107, Type 1, BuildingBlock: QEWDON_clean_linker_0, # of connection points: 3
#     Node 108, Type 1, BuildingBlock: QEWDON_clean_linker_0, # of connection points: 3
#     Node 109, Type 1, BuildingBlock: QEWDON_clean_linker_0, # of connection points: 3
#     Node 110, Type 1, BuildingBlock: QEWDON_clean_linker_0, # of connection points: 3
#     Node 111, Type 1, BuildingBlock: QEWDON_clean_linker_0, # of connection points: 3
#     Node 112, Type 1, BuildingBlock: QEWDON_clean_linker_0, # of connection points: 3
#     Node 113, Type 1, BuildingBlock: QEWDON_clean_linker_0, # of connection points: 3
#     Node 114, Type 1, BuildingBlock: QEWDON_clean_linker_0, # of connection points: 3
#     Node 115, Type 1, BuildingBlock: QEWDON_clean_linker_0, # of connection points: 3
#     Node 116, Type 1, BuildingBlock: QEWDON_clean_linker_0, # of connection points: 3
#     Node 117, Type 1, BuildingBlock: QEWDON_clean_linker_0, # of connection points: 3
#     Node 118, Type 1, BuildingBlock: QEWDON_clean_linker_0, # of connection points: 3
#     Node 119, Type 1, BuildingBlock: QEWDON_clean_linker_0, # of connection points: 3
#     Node 120, Type 1, BuildingBlock: QEWDON_clean_linker_0, # of connection points: 3
#     Node 121, Type 1, BuildingBlock: QEWDON_clean_linker_0, # of connection points: 3
#     Node 122, Type 1, BuildingBlock: QEWDON_clean_linker_0, # of connection points: 3
#     Node 123, Type 1, BuildingBlock: QEWDON_clean_linker_0, # of connection points: 3
#     Node 124, Type 1, BuildingBlock: QEWDON_clean_linker_0, # of connection points: 3
#     Node 125, Type 1, BuildingBlock: QEWDON_clean_linker_0, # of connection points: 3
#     Node 126, Type 1, BuildingBlock: QEWDON_clean_linker_0, # of connection points: 3
#     Node 127, Type 1, BuildingBlock: QEWDON_clean_linker_0, # of connection points: 3
#     Node 128, Type 1, BuildingBlock: QEWDON_clean_linker_0, # of connection points: 3
#     Node 129, Type 1, BuildingBlock: QEWDON_clean_linker_0, # of connection points: 3
#     Node 130, Type 1, BuildingBlock: QEWDON_clean_linker_0, # of connection points: 3
#     Node 131, Type 1, BuildingBlock: QEWDON_clean_linker_0, # of connection points: 3
#     Node 132, Type 1, BuildingBlock: QEWDON_clean_linker_0, # of connection points: 3
#     Node 133, Type 1, BuildingBlock: QEWDON_clean_linker_0, # of connection points: 3
#     Node 134, Type 1, BuildingBlock: QEWDON_clean_linker_0, # of connection points: 3
#     Node 135, Type 1, BuildingBlock: QEWDON_clean_linker_0, # of connection points: 3
#     Node 136, Type 1, BuildingBlock: QEWDON_clean_linker_0, # of connection points: 3
#     Node 137, Type 1, BuildingBlock: QEWDON_clean_linker_0, # of connection points: 3
#     Node 138, Type 1, BuildingBlock: QEWDON_clean_linker_0, # of connection points: 3
#     Node 139, Type 1, BuildingBlock: QEWDON_clean_linker_0, # of connection points: 3
#     Node 140, Type 1, BuildingBlock: QEWDON_clean_linker_0, # of connection points: 3
#     Node 141, Type 1, BuildingBlock: QEWDON_clean_linker_0, # of connection points: 3
#     Node 142, Type 1, BuildingBlock: QEWDON_clean_linker_0, # of connection points: 3
#     Node 143, Type 1, BuildingBlock: QEWDON_clean_linker_0, # of connection points: 3
#     Node 144, Type 1, BuildingBlock: QEWDON_clean_linker_0, # of connection points: 3
#     Node 145, Type 1, BuildingBlock: QEWDON_clean_linker_0, # of connection points: 3
#     Node 146, Type 1, BuildingBlock: QEWDON_clean_linker_0, # of connection points: 3
#     Node 147, Type 1, BuildingBlock: QEWDON_clean_linker_0, # of connection points: 3
#     Node 148, Type 1, BuildingBlock: QEWDON_clean_linker_0, # of connection points: 3
#     Node 149, Type 1, BuildingBlock: QEWDON_clean_linker_0, # of connection points: 3
#     Node 150, Type 1, BuildingBlock: QEWDON_clean_linker_0, # of connection points: 3
#     Node 151, Type 1, BuildingBlock: QEWDON_clean_linker_0, # of connection points: 3
#     Node 152, Type 1, BuildingBlock: QEWDON_clean_linker_0, # of connection points: 3
#     Node 153, Type 1, BuildingBlock: QEWDON_clean_linker_0, # of connection points: 3
#     Node 154, Type 1, BuildingBlock: QEWDON_clean_linker_0, # of connection points: 3
#     Node 155, Type 1, BuildingBlock: QEWDON_clean_linker_0, # of connection points: 3
#     Node 156, Type 1, BuildingBlock: QEWDON_clean_linker_0, # of connection points: 3
#     Node 157, Type 1, BuildingBlock: QEWDON_clean_linker_0, # of connection points: 3
#     Node 158, Type 1, BuildingBlock: QEWDON_clean_linker_0, # of connection points: 3
#     Node 159, Type 1, BuildingBlock: QEWDON_clean_linker_0, # of connection points: 3
#     Node 160, Type 1, BuildingBlock: QEWDON_clean_linker_0, # of connection points: 3
#     Node 161, Type 1, BuildingBlock: QEWDON_clean_linker_0, # of connection points: 3
#     Node 162, Type 1, BuildingBlock: QEWDON_clean_linker_0, # of connection points: 3
#     Node 163, Type 1, BuildingBlock: QEWDON_clean_linker_0, # of connection points: 3
#     Node 164, Type 1, BuildingBlock: QEWDON_clean_linker_0, # of connection points: 3
#     Node 165, Type 1, BuildingBlock: QEWDON_clean_linker_0, # of connection points: 3
#     Node 166, Type 1, BuildingBlock: QEWDON_clean_linker_0, # of connection points: 3
#     Node 167, Type 1, BuildingBlock: QEWDON_clean_linker_0, # of connection points: 3
#     Node 168, Type 1, BuildingBlock: QEWDON_clean_linker_0, # of connection points: 3
#     Node 169, Type 1, BuildingBlock: QEWDON_clean_linker_0, # of connection points: 3
#     Node 170, Type 1, BuildingBlock: QEWDON_clean_linker_0, # of connection points: 3
#     Node 171, Type 1, BuildingBlock: QEWDON_clean_linker_0, # of connection points: 3
#     Node 172, Type 1, BuildingBlock: QEWDON_clean_linker_0, # of connection points: 3
#     Node 173, Type 1, BuildingBlock: QEWDON_clean_linker_0, # of connection points: 3
#     Node 174, Type 1, BuildingBlock: QEWDON_clean_linker_0, # of connection points: 3
#     Node 175, Type 1, BuildingBlock: QEWDON_clean_linker_0, # of connection points: 3
#     Node 176, Type 1, BuildingBlock: QEWDON_clean_linker_0, # of connection points: 3
#     Node 177, Type 1, BuildingBlock: QEWDON_clean_linker_0, # of connection points: 3
#     Node 178, Type 1, BuildingBlock: QEWDON_clean_linker_0, # of connection points: 3
#     Node 179, Type 1, BuildingBlock: QEWDON_clean_linker_0, # of connection points: 3
#     Node 180, Type 1, BuildingBlock: QEWDON_clean_linker_0, # of connection points: 3
#     Node 181, Type 1, BuildingBlock: QEWDON_clean_linker_0, # of connection points: 3
#     Node 182, Type 1, BuildingBlock: QEWDON_clean_linker_0, # of connection points: 3
#     Node 183, Type 1, BuildingBlock: QEWDON_clean_linker_0, # of connection points: 3
#     Node 184, Type 1, BuildingBlock: QEWDON_clean_linker_0, # of connection points: 3
#     Node 185, Type 1, BuildingBlock: QEWDON_clean_linker_0, # of connection points: 3
#     Node 186, Type 1, BuildingBlock: QEWDON_clean_linker_0, # of connection points: 3
#     Node 187, Type 1, BuildingBlock: QEWDON_clean_linker_0, # of connection points: 3
#     Node 188, Type 1, BuildingBlock: QEWDON_clean_linker_0, # of connection points: 3
#     Node 189, Type 1, BuildingBlock: QEWDON_clean_linker_0, # of connection points: 3
#     Node 190, Type 1, BuildingBlock: QEWDON_clean_linker_0, # of connection points: 3
#     Node 191, Type 1, BuildingBlock: QEWDON_clean_linker_0, # of connection points: 3
#     Edge 192, Type (0, 1), BuildingBlock: OJICUG_clean_linker_0, # of connection points: 2
#     Edge 193, Type (0, 1), BuildingBlock: OJICUG_clean_linker_0, # of connection points: 2
#     Edge 194, Type (0, 1), BuildingBlock: OJICUG_clean_linker_0, # of connection points: 2
#     Edge 195, Type (0, 1), BuildingBlock: OJICUG_clean_linker_0, # of connection points: 2
#     Edge 196, Type (0, 1), BuildingBlock: OJICUG_clean_linker_0, # of connection points: 2
#     Edge 197, Type (0, 1), BuildingBlock: OJICUG_clean_linker_0, # of connection points: 2
#     Edge 198, Type (0, 1), BuildingBlock: OJICUG_clean_linker_0, # of connection points: 2
#     Edge 199, Type (0, 1), BuildingBlock: OJICUG_clean_linker_0, # of connection points: 2
#     Edge 200, Type (0, 1), BuildingBlock: OJICUG_clean_linker_0, # of connection points: 2
#     Edge 201, Type (0, 1), BuildingBlock: OJICUG_clean_linker_0, # of connection points: 2
#     Edge 202, Type (0, 1), BuildingBlock: OJICUG_clean_linker_0, # of connection points: 2
#     Edge 203, Type (0, 1), BuildingBlock: OJICUG_clean_linker_0, # of connection points: 2
#     Edge 204, Type (0, 1), BuildingBlock: OJICUG_clean_linker_0, # of connection points: 2
#     Edge 205, Type (0, 1), BuildingBlock: OJICUG_clean_linker_0, # of connection points: 2
#     Edge 206, Type (0, 1), BuildingBlock: OJICUG_clean_linker_0, # of connection points: 2
#     Edge 207, Type (0, 1), BuildingBlock: OJICUG_clean_linker_0, # of connection points: 2
#     Edge 208, Type (0, 1), BuildingBlock: OJICUG_clean_linker_0, # of connection points: 2
#     Edge 209, Type (0, 1), BuildingBlock: OJICUG_clean_linker_0, # of connection points: 2
#     Edge 210, Type (0, 1), BuildingBlock: OJICUG_clean_linker_0, # of connection points: 2
#     Edge 211, Type (0, 1), BuildingBlock: OJICUG_clean_linker_0, # of connection points: 2
#     Edge 212, Type (0, 1), BuildingBlock: OJICUG_clean_linker_0, # of connection points: 2
#     Edge 213, Type (0, 1), BuildingBlock: OJICUG_clean_linker_0, # of connection points: 2
#     Edge 214, Type (0, 1), BuildingBlock: OJICUG_clean_linker_0, # of connection points: 2
#     Edge 215, Type (0, 1), BuildingBlock: OJICUG_clean_linker_0, # of connection points: 2
#     Edge 216, Type (0, 1), BuildingBlock: OJICUG_clean_linker_0, # of connection points: 2
#     Edge 217, Type (0, 1), BuildingBlock: OJICUG_clean_linker_0, # of connection points: 2
#     Edge 218, Type (0, 1), BuildingBlock: OJICUG_clean_linker_0, # of connection points: 2
#     Edge 219, Type (0, 1), BuildingBlock: OJICUG_clean_linker_0, # of connection points: 2
#     Edge 220, Type (0, 1), BuildingBlock: OJICUG_clean_linker_0, # of connection points: 2
#     Edge 221, Type (0, 1), BuildingBlock: OJICUG_clean_linker_0, # of connection points: 2
#     Edge 222, Type (0, 1), BuildingBlock: OJICUG_clean_linker_0, # of connection points: 2
#     Edge 223, Type (0, 1), BuildingBlock: OJICUG_clean_linker_0, # of connection points: 2
#     Edge 224, Type (0, 1), BuildingBlock: OJICUG_clean_linker_0, # of connection points: 2
#     Edge 225, Type (0, 1), BuildingBlock: OJICUG_clean_linker_0, # of connection points: 2
#     Edge 226, Type (0, 1), BuildingBlock: OJICUG_clean_linker_0, # of connection points: 2
#     Edge 227, Type (0, 1), BuildingBlock: OJICUG_clean_linker_0, # of connection points: 2
#     Edge 228, Type (0, 1), BuildingBlock: OJICUG_clean_linker_0, # of connection points: 2
#     Edge 229, Type (0, 1), BuildingBlock: OJICUG_clean_linker_0, # of connection points: 2
#     Edge 230, Type (0, 1), BuildingBlock: OJICUG_clean_linker_0, # of connection points: 2
#     Edge 231, Type (0, 1), BuildingBlock: OJICUG_clean_linker_0, # of connection points: 2
#     Edge 232, Type (0, 1), BuildingBlock: OJICUG_clean_linker_0, # of connection points: 2
#     Edge 233, Type (0, 1), BuildingBlock: OJICUG_clean_linker_0, # of connection points: 2
#     Edge 234, Type (0, 1), BuildingBlock: OJICUG_clean_linker_0, # of connection points: 2
#     Edge 235, Type (0, 1), BuildingBlock: OJICUG_clean_linker_0, # of connection points: 2
#     Edge 236, Type (0, 1), BuildingBlock: OJICUG_clean_linker_0, # of connection points: 2
#     Edge 237, Type (0, 1), BuildingBlock: OJICUG_clean_linker_0, # of connection points: 2
#     Edge 238, Type (0, 1), BuildingBlock: OJICUG_clean_linker_0, # of connection points: 2
#     Edge 239, Type (0, 1), BuildingBlock: OJICUG_clean_linker_0, # of connection points: 2
#     Edge 240, Type (0, 1), BuildingBlock: OJICUG_clean_linker_0, # of connection points: 2
#     Edge 241, Type (0, 1), BuildingBlock: OJICUG_clean_linker_0, # of connection points: 2
#     Edge 242, Type (0, 1), BuildingBlock: OJICUG_clean_linker_0, # of connection points: 2
#     Edge 243, Type (0, 1), BuildingBlock: OJICUG_clean_linker_0, # of connection points: 2
#     Edge 244, Type (0, 1), BuildingBlock: OJICUG_clean_linker_0, # of connection points: 2
#     Edge 245, Type (0, 1), BuildingBlock: OJICUG_clean_linker_0, # of connection points: 2
#     Edge 246, Type (0, 1), BuildingBlock: OJICUG_clean_linker_0, # of connection points: 2
#     Edge 247, Type (0, 1), BuildingBlock: OJICUG_clean_linker_0, # of connection points: 2
#     Edge 248, Type (0, 1), BuildingBlock: OJICUG_clean_linker_0, # of connection points: 2
#     Edge 249, Type (0, 1), BuildingBlock: OJICUG_clean_linker_0, # of connection points: 2
#     Edge 250, Type (0, 1), BuildingBlock: OJICUG_clean_linker_0, # of connection points: 2
#     Edge 251, Type (0, 1), BuildingBlock: OJICUG_clean_linker_0, # of connection points: 2
#     Edge 252, Type (0, 1), BuildingBlock: OJICUG_clean_linker_0, # of connection points: 2
#     Edge 253, Type (0, 1), BuildingBlock: OJICUG_clean_linker_0, # of connection points: 2
#     Edge 254, Type (0, 1), BuildingBlock: OJICUG_clean_linker_0, # of connection points: 2
#     Edge 255, Type (0, 1), BuildingBlock: OJICUG_clean_linker_0, # of connection points: 2
#     Edge 256, Type (0, 1), BuildingBlock: OJICUG_clean_linker_0, # of connection points: 2
#     Edge 257, Type (0, 1), BuildingBlock: OJICUG_clean_linker_0, # of connection points: 2
#     Edge 258, Type (0, 1), BuildingBlock: OJICUG_clean_linker_0, # of connection points: 2
#     Edge 259, Type (0, 1), BuildingBlock: OJICUG_clean_linker_0, # of connection points: 2
#     Edge 260, Type (0, 1), BuildingBlock: OJICUG_clean_linker_0, # of connection points: 2
#     Edge 261, Type (0, 1), BuildingBlock: OJICUG_clean_linker_0, # of connection points: 2
#     Edge 262, Type (0, 1), BuildingBlock: OJICUG_clean_linker_0, # of connection points: 2
#     Edge 263, Type (0, 1), BuildingBlock: OJICUG_clean_linker_0, # of connection points: 2
#     Edge 264, Type (0, 1), BuildingBlock: OJICUG_clean_linker_0, # of connection points: 2
#     Edge 265, Type (0, 1), BuildingBlock: OJICUG_clean_linker_0, # of connection points: 2
#     Edge 266, Type (0, 1), BuildingBlock: OJICUG_clean_linker_0, # of connection points: 2
#     Edge 267, Type (0, 1), BuildingBlock: OJICUG_clean_linker_0, # of connection points: 2
#     Edge 268, Type (0, 1), BuildingBlock: OJICUG_clean_linker_0, # of connection points: 2
#     Edge 269, Type (0, 1), BuildingBlock: OJICUG_clean_linker_0, # of connection points: 2
#     Edge 270, Type (0, 1), BuildingBlock: OJICUG_clean_linker_0, # of connection points: 2
#     Edge 271, Type (0, 1), BuildingBlock: OJICUG_clean_linker_0, # of connection points: 2
#     Edge 272, Type (0, 1), BuildingBlock: OJICUG_clean_linker_0, # of connection points: 2
#     Edge 273, Type (0, 1), BuildingBlock: OJICUG_clean_linker_0, # of connection points: 2
#     Edge 274, Type (0, 1), BuildingBlock: OJICUG_clean_linker_0, # of connection points: 2
#     Edge 275, Type (0, 1), BuildingBlock: OJICUG_clean_linker_0, # of connection points: 2
#     Edge 276, Type (0, 1), BuildingBlock: OJICUG_clean_linker_0, # of connection points: 2
#     Edge 277, Type (0, 1), BuildingBlock: OJICUG_clean_linker_0, # of connection points: 2
#     Edge 278, Type (0, 1), BuildingBlock: OJICUG_clean_linker_0, # of connection points: 2
#     Edge 279, Type (0, 1), BuildingBlock: OJICUG_clean_linker_0, # of connection points: 2
#     Edge 280, Type (0, 1), BuildingBlock: OJICUG_clean_linker_0, # of connection points: 2
#     Edge 281, Type (0, 1), BuildingBlock: OJICUG_clean_linker_0, # of connection points: 2
#     Edge 282, Type (0, 1), BuildingBlock: OJICUG_clean_linker_0, # of connection points: 2
#     Edge 283, Type (0, 1), BuildingBlock: OJICUG_clean_linker_0, # of connection points: 2
#     Edge 284, Type (0, 1), BuildingBlock: OJICUG_clean_linker_0, # of connection points: 2
#     Edge 285, Type (0, 1), BuildingBlock: OJICUG_clean_linker_0, # of connection points: 2
#     Edge 286, Type (0, 1), BuildingBlock: OJICUG_clean_linker_0, # of connection points: 2
#     Edge 287, Type (0, 1), BuildingBlock: OJICUG_clean_linker_0, # of connection points: 2
#     Edge 288, Type (0, 1), BuildingBlock: OJICUG_clean_linker_0, # of connection points: 2
#     Edge 289, Type (0, 1), BuildingBlock: OJICUG_clean_linker_0, # of connection points: 2
#     Edge 290, Type (0, 1), BuildingBlock: OJICUG_clean_linker_0, # of connection points: 2
#     Edge 291, Type (0, 1), BuildingBlock: OJICUG_clean_linker_0, # of connection points: 2
#     Edge 292, Type (0, 1), BuildingBlock: OJICUG_clean_linker_0, # of connection points: 2
#     Edge 293, Type (0, 1), BuildingBlock: OJICUG_clean_linker_0, # of connection points: 2
#     Edge 294, Type (0, 1), BuildingBlock: OJICUG_clean_linker_0, # of connection points: 2
#     Edge 295, Type (0, 1), BuildingBlock: OJICUG_clean_linker_0, # of connection points: 2
#     Edge 296, Type (0, 1), BuildingBlock: OJICUG_clean_linker_0, # of connection points: 2
#     Edge 297, Type (0, 1), BuildingBlock: OJICUG_clean_linker_0, # of connection points: 2
#     Edge 298, Type (0, 1), BuildingBlock: OJICUG_clean_linker_0, # of connection points: 2
#     Edge 299, Type (0, 1), BuildingBlock: OJICUG_clean_linker_0, # of connection points: 2
#     Edge 300, Type (0, 1), BuildingBlock: OJICUG_clean_linker_0, # of connection points: 2
#     Edge 301, Type (0, 1), BuildingBlock: OJICUG_clean_linker_0, # of connection points: 2
#     Edge 302, Type (0, 1), BuildingBlock: OJICUG_clean_linker_0, # of connection points: 2
#     Edge 303, Type (0, 1), BuildingBlock: OJICUG_clean_linker_0, # of connection points: 2
#     Edge 304, Type (0, 1), BuildingBlock: OJICUG_clean_linker_0, # of connection points: 2
#     Edge 305, Type (0, 1), BuildingBlock: OJICUG_clean_linker_0, # of connection points: 2
#     Edge 306, Type (0, 1), BuildingBlock: OJICUG_clean_linker_0, # of connection points: 2
#     Edge 307, Type (0, 1), BuildingBlock: OJICUG_clean_linker_0, # of connection points: 2
#     Edge 308, Type (0, 1), BuildingBlock: OJICUG_clean_linker_0, # of connection points: 2
#     Edge 309, Type (0, 1), BuildingBlock: OJICUG_clean_linker_0, # of connection points: 2
#     Edge 310, Type (0, 1), BuildingBlock: OJICUG_clean_linker_0, # of connection points: 2
#     Edge 311, Type (0, 1), BuildingBlock: OJICUG_clean_linker_0, # of connection points: 2
#     Edge 312, Type (0, 1), BuildingBlock: OJICUG_clean_linker_0, # of connection points: 2
#     Edge 313, Type (0, 1), BuildingBlock: OJICUG_clean_linker_0, # of connection points: 2
#     Edge 314, Type (0, 1), BuildingBlock: OJICUG_clean_linker_0, # of connection points: 2
#     Edge 315, Type (0, 1), BuildingBlock: OJICUG_clean_linker_0, # of connection points: 2
#     Edge 316, Type (0, 1), BuildingBlock: OJICUG_clean_linker_0, # of connection points: 2
#     Edge 317, Type (0, 1), BuildingBlock: OJICUG_clean_linker_0, # of connection points: 2
#     Edge 318, Type (0, 1), BuildingBlock: OJICUG_clean_linker_0, # of connection points: 2
#     Edge 319, Type (0, 1), BuildingBlock: OJICUG_clean_linker_0, # of connection points: 2
#     Edge 320, Type (0, 1), BuildingBlock: OJICUG_clean_linker_0, # of connection points: 2
#     Edge 321, Type (0, 1), BuildingBlock: OJICUG_clean_linker_0, # of connection points: 2
#     Edge 322, Type (0, 1), BuildingBlock: OJICUG_clean_linker_0, # of connection points: 2
#     Edge 323, Type (0, 1), BuildingBlock: OJICUG_clean_linker_0, # of connection points: 2
#     Edge 324, Type (0, 1), BuildingBlock: OJICUG_clean_linker_0, # of connection points: 2
#     Edge 325, Type (0, 1), BuildingBlock: OJICUG_clean_linker_0, # of connection points: 2
#     Edge 326, Type (0, 1), BuildingBlock: OJICUG_clean_linker_0, # of connection points: 2
#     Edge 327, Type (0, 1), BuildingBlock: OJICUG_clean_linker_0, # of connection points: 2
#     Edge 328, Type (0, 1), BuildingBlock: OJICUG_clean_linker_0, # of connection points: 2
#     Edge 329, Type (0, 1), BuildingBlock: OJICUG_clean_linker_0, # of connection points: 2
#     Edge 330, Type (0, 1), BuildingBlock: OJICUG_clean_linker_0, # of connection points: 2
#     Edge 331, Type (0, 1), BuildingBlock: OJICUG_clean_linker_0, # of connection points: 2
#     Edge 332, Type (0, 1), BuildingBlock: OJICUG_clean_linker_0, # of connection points: 2
#     Edge 333, Type (0, 1), BuildingBlock: OJICUG_clean_linker_0, # of connection points: 2
#     Edge 334, Type (0, 1), BuildingBlock: OJICUG_clean_linker_0, # of connection points: 2
#     Edge 335, Type (0, 1), BuildingBlock: OJICUG_clean_linker_0, # of connection points: 2
#     Edge 336, Type (0, 1), BuildingBlock: OJICUG_clean_linker_0, # of connection points: 2
#     Edge 337, Type (0, 1), BuildingBlock: OJICUG_clean_linker_0, # of connection points: 2
#     Edge 338, Type (0, 1), BuildingBlock: OJICUG_clean_linker_0, # of connection points: 2
#     Edge 339, Type (0, 1), BuildingBlock: OJICUG_clean_linker_0, # of connection points: 2
#     Edge 340, Type (0, 1), BuildingBlock: OJICUG_clean_linker_0, # of connection points: 2
#     Edge 341, Type (0, 1), BuildingBlock: OJICUG_clean_linker_0, # of connection points: 2
#     Edge 342, Type (0, 1), BuildingBlock: OJICUG_clean_linker_0, # of connection points: 2
#     Edge 343, Type (0, 1), BuildingBlock: OJICUG_clean_linker_0, # of connection points: 2
#     Edge 344, Type (0, 1), BuildingBlock: OJICUG_clean_linker_0, # of connection points: 2
#     Edge 345, Type (0, 1), BuildingBlock: OJICUG_clean_linker_0, # of connection points: 2
#     Edge 346, Type (0, 1), BuildingBlock: OJICUG_clean_linker_0, # of connection points: 2
#     Edge 347, Type (0, 1), BuildingBlock: OJICUG_clean_linker_0, # of connection points: 2
#     Edge 348, Type (0, 1), BuildingBlock: OJICUG_clean_linker_0, # of connection points: 2
#     Edge 349, Type (0, 1), BuildingBlock: OJICUG_clean_linker_0, # of connection points: 2
#     Edge 350, Type (0, 1), BuildingBlock: OJICUG_clean_linker_0, # of connection points: 2
#     Edge 351, Type (0, 1), BuildingBlock: OJICUG_clean_linker_0, # of connection points: 2
#     Edge 352, Type (0, 1), BuildingBlock: OJICUG_clean_linker_0, # of connection points: 2
#     Edge 353, Type (0, 1), BuildingBlock: OJICUG_clean_linker_0, # of connection points: 2
#     Edge 354, Type (0, 1), BuildingBlock: OJICUG_clean_linker_0, # of connection points: 2
#     Edge 355, Type (0, 1), BuildingBlock: OJICUG_clean_linker_0, # of connection points: 2
#     Edge 356, Type (0, 1), BuildingBlock: OJICUG_clean_linker_0, # of connection points: 2
#     Edge 357, Type (0, 1), BuildingBlock: OJICUG_clean_linker_0, # of connection points: 2
#     Edge 358, Type (0, 1), BuildingBlock: OJICUG_clean_linker_0, # of connection points: 2
#     Edge 359, Type (0, 1), BuildingBlock: OJICUG_clean_linker_0, # of connection points: 2
#     Edge 360, Type (0, 1), BuildingBlock: OJICUG_clean_linker_0, # of connection points: 2
#     Edge 361, Type (0, 1), BuildingBlock: OJICUG_clean_linker_0, # of connection points: 2
#     Edge 362, Type (0, 1), BuildingBlock: OJICUG_clean_linker_0, # of connection points: 2
#     Edge 363, Type (0, 1), BuildingBlock: OJICUG_clean_linker_0, # of connection points: 2
#     Edge 364, Type (0, 1), BuildingBlock: OJICUG_clean_linker_0, # of connection points: 2
#     Edge 365, Type (0, 1), BuildingBlock: OJICUG_clean_linker_0, # of connection points: 2
#     Edge 366, Type (0, 1), BuildingBlock: OJICUG_clean_linker_0, # of connection points: 2
#     Edge 367, Type (0, 1), BuildingBlock: OJICUG_clean_linker_0, # of connection points: 2
#     Edge 368, Type (0, 1), BuildingBlock: OJICUG_clean_linker_0, # of connection points: 2
#     Edge 369, Type (0, 1), BuildingBlock: OJICUG_clean_linker_0, # of connection points: 2
#     Edge 370, Type (0, 1), BuildingBlock: OJICUG_clean_linker_0, # of connection points: 2
#     Edge 371, Type (0, 1), BuildingBlock: OJICUG_clean_linker_0, # of connection points: 2
#     Edge 372, Type (0, 1), BuildingBlock: OJICUG_clean_linker_0, # of connection points: 2
#     Edge 373, Type (0, 1), BuildingBlock: OJICUG_clean_linker_0, # of connection points: 2
#     Edge 374, Type (0, 1), BuildingBlock: OJICUG_clean_linker_0, # of connection points: 2
#     Edge 375, Type (0, 1), BuildingBlock: OJICUG_clean_linker_0, # of connection points: 2
#     Edge 376, Type (0, 1), BuildingBlock: OJICUG_clean_linker_0, # of connection points: 2
#     Edge 377, Type (0, 1), BuildingBlock: OJICUG_clean_linker_0, # of connection points: 2
#     Edge 378, Type (0, 1), BuildingBlock: OJICUG_clean_linker_0, # of connection points: 2
#     Edge 379, Type (0, 1), BuildingBlock: OJICUG_clean_linker_0, # of connection points: 2
#     Edge 380, Type (0, 1), BuildingBlock: OJICUG_clean_linker_0, # of connection points: 2
#     Edge 381, Type (0, 1), BuildingBlock: OJICUG_clean_linker_0, # of connection points: 2
#     Edge 382, Type (0, 1), BuildingBlock: OJICUG_clean_linker_0, # of connection points: 2
#     Edge 383, Type (0, 1), BuildingBlock: OJICUG_clean_linker_0, # of connection points: 2
#     Edge 384, Type (0, 1), BuildingBlock: OJICUG_clean_linker_0, # of connection points: 2
#     Edge 385, Type (0, 1), BuildingBlock: OJICUG_clean_linker_0, # of connection points: 2
#     Edge 386, Type (0, 1), BuildingBlock: OJICUG_clean_linker_0, # of connection points: 2
#     Edge 387, Type (0, 1), BuildingBlock: OJICUG_clean_linker_0, # of connection points: 2
#     Edge 388, Type (0, 1), BuildingBlock: OJICUG_clean_linker_0, # of connection points: 2
#     Edge 389, Type (0, 1), BuildingBlock: OJICUG_clean_linker_0, # of connection points: 2
#     Edge 390, Type (0, 1), BuildingBlock: OJICUG_clean_linker_0, # of connection points: 2
#     Edge 391, Type (0, 1), BuildingBlock: OJICUG_clean_linker_0, # of connection points: 2
#     Edge 392, Type (0, 1), BuildingBlock: OJICUG_clean_linker_0, # of connection points: 2
#     Edge 393, Type (0, 1), BuildingBlock: OJICUG_clean_linker_0, # of connection points: 2
#     Edge 394, Type (0, 1), BuildingBlock: OJICUG_clean_linker_0, # of connection points: 2
#     Edge 395, Type (0, 1), BuildingBlock: OJICUG_clean_linker_0, # of connection points: 2
#     Edge 396, Type (0, 1), BuildingBlock: OJICUG_clean_linker_0, # of connection points: 2
#     Edge 397, Type (0, 1), BuildingBlock: OJICUG_clean_linker_0, # of connection points: 2
#     Edge 398, Type (0, 1), BuildingBlock: OJICUG_clean_linker_0, # of connection points: 2
#     Edge 399, Type (0, 1), BuildingBlock: OJICUG_clean_linker_0, # of connection points: 2
#     Edge 400, Type (0, 1), BuildingBlock: OJICUG_clean_linker_0, # of connection points: 2
#     Edge 401, Type (0, 1), BuildingBlock: OJICUG_clean_linker_0, # of connection points: 2
#     Edge 402, Type (0, 1), BuildingBlock: OJICUG_clean_linker_0, # of connection points: 2
#     Edge 403, Type (0, 1), BuildingBlock: OJICUG_clean_linker_0, # of connection points: 2
#     Edge 404, Type (0, 1), BuildingBlock: OJICUG_clean_linker_0, # of connection points: 2
#     Edge 405, Type (0, 1), BuildingBlock: OJICUG_clean_linker_0, # of connection points: 2
#     Edge 406, Type (0, 1), BuildingBlock: OJICUG_clean_linker_0, # of connection points: 2
#     Edge 407, Type (0, 1), BuildingBlock: OJICUG_clean_linker_0, # of connection points: 2
#     Edge 408, Type (0, 1), BuildingBlock: OJICUG_clean_linker_0, # of connection points: 2
#     Edge 409, Type (0, 1), BuildingBlock: OJICUG_clean_linker_0, # of connection points: 2
#     Edge 410, Type (0, 1), BuildingBlock: OJICUG_clean_linker_0, # of connection points: 2
#     Edge 411, Type (0, 1), BuildingBlock: OJICUG_clean_linker_0, # of connection points: 2
#     Edge 412, Type (0, 1), BuildingBlock: OJICUG_clean_linker_0, # of connection points: 2
#     Edge 413, Type (0, 1), BuildingBlock: OJICUG_clean_linker_0, # of connection points: 2
#     Edge 414, Type (0, 1), BuildingBlock: OJICUG_clean_linker_0, # of connection points: 2
#     Edge 415, Type (0, 1), BuildingBlock: OJICUG_clean_linker_0, # of connection points: 2
#     Edge 416, Type (0, 1), BuildingBlock: OJICUG_clean_linker_0, # of connection points: 2
#     Edge 417, Type (0, 1), BuildingBlock: OJICUG_clean_linker_0, # of connection points: 2
#     Edge 418, Type (0, 1), BuildingBlock: OJICUG_clean_linker_0, # of connection points: 2
#     Edge 419, Type (0, 1), BuildingBlock: OJICUG_clean_linker_0, # of connection points: 2
#     Edge 420, Type (0, 1), BuildingBlock: OJICUG_clean_linker_0, # of connection points: 2
#     Edge 421, Type (0, 1), BuildingBlock: OJICUG_clean_linker_0, # of connection points: 2
#     Edge 422, Type (0, 1), BuildingBlock: OJICUG_clean_linker_0, # of connection points: 2
#     Edge 423, Type (0, 1), BuildingBlock: OJICUG_clean_linker_0, # of connection points: 2
#     Edge 424, Type (0, 1), BuildingBlock: OJICUG_clean_linker_0, # of connection points: 2
#     Edge 425, Type (0, 1), BuildingBlock: OJICUG_clean_linker_0, # of connection points: 2
#     Edge 426, Type (0, 1), BuildingBlock: OJICUG_clean_linker_0, # of connection points: 2
#     Edge 427, Type (0, 1), BuildingBlock: OJICUG_clean_linker_0, # of connection points: 2
#     Edge 428, Type (0, 1), BuildingBlock: OJICUG_clean_linker_0, # of connection points: 2
#     Edge 429, Type (0, 1), BuildingBlock: OJICUG_clean_linker_0, # of connection points: 2
#     Edge 430, Type (0, 1), BuildingBlock: OJICUG_clean_linker_0, # of connection points: 2
#     Edge 431, Type (0, 1), BuildingBlock: OJICUG_clean_linker_0, # of connection points: 2
#     Edge 432, Type (0, 1), BuildingBlock: OJICUG_clean_linker_0, # of connection points: 2
#     Edge 433, Type (0, 1), BuildingBlock: OJICUG_clean_linker_0, # of connection points: 2
#     Edge 434, Type (0, 1), BuildingBlock: OJICUG_clean_linker_0, # of connection points: 2
#     Edge 435, Type (0, 1), BuildingBlock: OJICUG_clean_linker_0, # of connection points: 2
#     Edge 436, Type (0, 1), BuildingBlock: OJICUG_clean_linker_0, # of connection points: 2
#     Edge 437, Type (0, 1), BuildingBlock: OJICUG_clean_linker_0, # of connection points: 2
#     Edge 438, Type (0, 1), BuildingBlock: OJICUG_clean_linker_0, # of connection points: 2
#     Edge 439, Type (0, 1), BuildingBlock: OJICUG_clean_linker_0, # of connection points: 2
#     Edge 440, Type (0, 1), BuildingBlock: OJICUG_clean_linker_0, # of connection points: 2
#     Edge 441, Type (0, 1), BuildingBlock: OJICUG_clean_linker_0, # of connection points: 2
#     Edge 442, Type (0, 1), BuildingBlock: OJICUG_clean_linker_0, # of connection points: 2
#     Edge 443, Type (0, 1), BuildingBlock: OJICUG_clean_linker_0, # of connection points: 2
#     Edge 444, Type (0, 1), BuildingBlock: OJICUG_clean_linker_0, # of connection points: 2
#     Edge 445, Type (0, 1), BuildingBlock: OJICUG_clean_linker_0, # of connection points: 2
#     Edge 446, Type (0, 1), BuildingBlock: OJICUG_clean_linker_0, # of connection points: 2
#     Edge 447, Type (0, 1), BuildingBlock: OJICUG_clean_linker_0, # of connection points: 2
#     Edge 448, Type (0, 1), BuildingBlock: OJICUG_clean_linker_0, # of connection points: 2
#     Edge 449, Type (0, 1), BuildingBlock: OJICUG_clean_linker_0, # of connection points: 2
#     Edge 450, Type (0, 1), BuildingBlock: OJICUG_clean_linker_0, # of connection points: 2
#     Edge 451, Type (0, 1), BuildingBlock: OJICUG_clean_linker_0, # of connection points: 2
#     Edge 452, Type (0, 1), BuildingBlock: OJICUG_clean_linker_0, # of connection points: 2
#     Edge 453, Type (0, 1), BuildingBlock: OJICUG_clean_linker_0, # of connection points: 2
#     Edge 454, Type (0, 1), BuildingBlock: OJICUG_clean_linker_0, # of connection points: 2
#     Edge 455, Type (0, 1), BuildingBlock: OJICUG_clean_linker_0, # of connection points: 2
#     Edge 456, Type (0, 1), BuildingBlock: OJICUG_clean_linker_0, # of connection points: 2
#     Edge 457, Type (0, 1), BuildingBlock: OJICUG_clean_linker_0, # of connection points: 2
#     Edge 458, Type (0, 1), BuildingBlock: OJICUG_clean_linker_0, # of connection points: 2
#     Edge 459, Type (0, 1), BuildingBlock: OJICUG_clean_linker_0, # of connection points: 2
#     Edge 460, Type (0, 1), BuildingBlock: OJICUG_clean_linker_0, # of connection points: 2
#     Edge 461, Type (0, 1), BuildingBlock: OJICUG_clean_linker_0, # of connection points: 2
#     Edge 462, Type (0, 1), BuildingBlock: OJICUG_clean_linker_0, # of connection points: 2
#     Edge 463, Type (0, 1), BuildingBlock: OJICUG_clean_linker_0, # of connection points: 2
#     Edge 464, Type (0, 1), BuildingBlock: OJICUG_clean_linker_0, # of connection points: 2
#     Edge 465, Type (0, 1), BuildingBlock: OJICUG_clean_linker_0, # of connection points: 2
#     Edge 466, Type (0, 1), BuildingBlock: OJICUG_clean_linker_0, # of connection points: 2
#     Edge 467, Type (0, 1), BuildingBlock: OJICUG_clean_linker_0, # of connection points: 2
#     Edge 468, Type (0, 1), BuildingBlock: OJICUG_clean_linker_0, # of connection points: 2
#     Edge 469, Type (0, 1), BuildingBlock: OJICUG_clean_linker_0, # of connection points: 2
#     Edge 470, Type (0, 1), BuildingBlock: OJICUG_clean_linker_0, # of connection points: 2
#     Edge 471, Type (0, 1), BuildingBlock: OJICUG_clean_linker_0, # of connection points: 2
#     Edge 472, Type (0, 1), BuildingBlock: OJICUG_clean_linker_0, # of connection points: 2
#     Edge 473, Type (0, 1), BuildingBlock: OJICUG_clean_linker_0, # of connection points: 2
#     Edge 474, Type (0, 1), BuildingBlock: OJICUG_clean_linker_0, # of connection points: 2
#     Edge 475, Type (0, 1), BuildingBlock: OJICUG_clean_linker_0, # of connection points: 2
#     Edge 476, Type (0, 1), BuildingBlock: OJICUG_clean_linker_0, # of connection points: 2
#     Edge 477, Type (0, 1), BuildingBlock: OJICUG_clean_linker_0, # of connection points: 2
#     Edge 478, Type (0, 1), BuildingBlock: OJICUG_clean_linker_0, # of connection points: 2
#     Edge 479, Type (0, 1), BuildingBlock: OJICUG_clean_linker_0, # of connection points: 2
# Relax obj value: 0.011
# Max RMSD: 0.047
# Mean RMSD: 0.040
data_MOF--net-ana-f--node1-WUSLED_clean_sbu_0--node2-QEWDON_clean_linker_0--edge1-OJICUG_clean_linker_0
_symmetry_space_group_name_H-M    P1
_symmetry_Int_Tables_number       1
_symmetry_cell_setting            triclinic
loop_
_symmetry_equiv_pos_as_xyz
'x, y, z'
_cell_length_a     152.52925
_cell_length_b     152.81769
_cell_length_c     152.75633
_cell_angle_alpha  90.014095
_cell_angle_beta   89.994783
_cell_angle_gamma 89.991776
loop_
_atom_site_label
_atom_site_type_symbol
_atom_site_fract_x
_atom_site_fract_y
_atom_site_fract_z
_atom_type_partial_charge
C0 C 0.08335 0.15418 0.43876 0.0
C1 C 0.09162 0.15803 0.43765 0.0
C2 C 0.09739 0.14975 0.45004 0.0
C3 C 0.09857 0.15583 0.4432 0.0
C4 C 0.08903 0.146 0.45119 0.0
C5 C 0.08208 0.1482 0.4456 0.0
U6 U 0.07427 0.16854 0.42079 0.0
O7 O 0.06764 0.16541 0.40842 0.0
O8 O 0.06091 0.17353 0.4182 0.0
C9 C 0.06029 0.16929 0.41072 0.0
C10 C 0.07612 0.15631 0.43272 0.0
C11 C 0.05207 0.16436 0.40914 0.0
C12 C 0.04444 0.15095 0.40511 0.0
C13 C 0.05214 0.1553 0.40757 0.0
C14 C 0.03637 0.16454 0.4061 0.0
C15 C 0.03646 0.15552 0.40423 0.0
C16 C 0.0441 0.1689 0.4085 0.0
C17 C 0.09027 0.18718 0.41352 0.0
C18 C 0.09523 0.19296 0.39952 0.0
C19 C 0.09874 0.20066 0.41292 0.0
C20 C 0.09414 0.19437 0.41773 0.0
C21 C 0.09963 0.19985 0.40379 0.0
C22 C 0.09059 0.18669 0.40434 0.0
C23 C 0.0872 0.17975 0.41891 0.0
O24 O 0.07209 0.16376 0.43423 0.0
O25 O 0.0779 0.1551 0.42439 0.0
O26 O 0.08699 0.17204 0.4151 0.0
O27 O 0.08055 0.18113 0.42421 0.0
H28 H 0.09274 0.16268 0.43241 0.0
H29 H 0.10492 0.15875 0.44199 0.0
H30 H 0.08783 0.14139 0.45644 0.0
H31 H 0.07573 0.14518 0.44658 0.0
H32 H 0.04486 0.14404 0.4036 0.0
H33 H 0.05818 0.15159 0.40799 0.0
H34 H 0.03036 0.16827 0.40563 0.0
H35 H 0.04387 0.17589 0.40967 0.0
H36 H 0.09569 0.19222 0.39249 0.0
H37 H 0.10211 0.20582 0.41643 0.0
H38 H 0.09403 0.19486 0.42481 0.0
H39 H 0.08764 0.18123 0.4009 0.0
C40 C 0.11777 0.83203 0.6881 0.0
C41 C 0.11389 0.84027 0.68693 0.0
C42 C 0.12226 0.84616 0.6992 0.0
C43 C 0.11613 0.84726 0.6924 0.0
C44 C 0.12606 0.83783 0.7004 0.0
C45 C 0.12383 0.83084 0.69488 0.0
U46 U 0.10289 0.82268 0.6707 0.0
O47 O 0.10563 0.81582 0.65836 0.0
O48 O 0.09782 0.8093 0.66852 0.0
C49 C 0.10183 0.80854 0.66094 0.0
C50 C 0.11551 0.82473 0.6822 0.0
C51 C 0.10679 0.80034 0.65942 0.0
C52 C 0.12036 0.79271 0.65591 0.0
C53 C 0.11592 0.80038 0.65825 0.0
C54 C 0.10668 0.7847 0.65624 0.0
C55 C 0.11579 0.78477 0.65475 0.0
C56 C 0.10224 0.79241 0.65851 0.0
C57 C 0.08386 0.83865 0.664 0.0
C58 C 0.07788 0.84632 0.65136 0.0
C59 C 0.0691 0.84473 0.66445 0.0
C60 C 0.0759 0.84003 0.66842 0.0
C61 C 0.07014 0.84823 0.65599 0.0
C62 C 0.08467 0.8416 0.65532 0.0
C63 C 0.09159 0.83555 0.66901 0.0
O64 O 0.10813 0.82068 0.684 0.0
O65 O 0.11646 0.8264 0.67382 0.0
O66 O 0.09914 0.83525 0.66488 0.0
O67 O 0.09045 0.82902 0.67451 0.0
H68 H 0.10918 0.84132 0.68173 0.0
H69 H 0.11317 0.85358 0.69116 0.0
H70 H 0.13072 0.8367 0.70562 0.0
H71 H 0.12686 0.82451 0.69591 0.0
H72 H 0.12734 0.79311 0.6547 0.0
H73 H 0.11963 0.8064 0.6589 0.0
H74 H 0.10294 0.77872 0.65555 0.0
H75 H 0.09519 0.7922 0.65939 0.0
H76 H 0.07896 0.84897 0.64487 0.0
H77 H 0.06318 0.84595 0.66816 0.0
H78 H 0.0751 0.83789 0.67513 0.0
H79 H 0.09073 0.84071 0.65173 0.0
C80 C 0.43909 0.86628 0.93921 0.0
C81 C 0.43083 0.8624 0.93805 0.0
C82 C 0.42493 0.87076 0.95033 0.0
C83 C 0.42383 0.86463 0.94353 0.0
C84 C 0.43328 0.87454 0.95153 0.0
C85 C 0.44028 0.87232 0.94601 0.0
U86 U 0.44842 0.85174 0.92149 0.0
O87 O 0.45516 0.85477 0.90915 0.0
O88 O 0.46183 0.8468 0.91909 0.0
C89 C 0.4625 0.85095 0.91157 0.0
C90 C 0.44638 0.86411 0.93325 0.0
C91 C 0.4707 0.85591 0.91001 0.0
C92 C 0.47829 0.86937 0.90612 0.0
C93 C 0.47062 0.86498 0.90856 0.0
C94 C 0.48638 0.85577 0.9069 0.0
C95 C 0.48628 0.86481 0.90514 0.0
C96 C 0.47867 0.85137 0.90928 0.0
C97 C 0.43267 0.83294 0.91425 0.0
C98 C 0.42876 0.82675 0.9001 0.0
C99 C 0.42381 0.81973 0.91342 0.0
C100 C 0.4282 0.82606 0.91837 0.0
C101 C 0.42376 0.82018 0.90422 0.0
C102 C 0.43318 0.83307 0.90506 0.0
C103 C 0.43558 0.84043 0.91962 0.0
O104 O 0.45044 0.8567 0.9349 0.0
O105 O 0.44467 0.86521 0.92489 0.0
O106 O 0.43578 0.8481 0.91572 0.0
O107 O 0.44218 0.83916 0.925 0.0
H108 H 0.42977 0.85771 0.93283 0.0
H109 H 0.41749 0.86169 0.94229 0.0
H110 H 0.43442 0.87919 0.95676 0.0
H111 H 0.44662 0.87535 0.94703 0.0
H112 H 0.47787 0.87629 0.90469 0.0
H113 H 0.46457 0.86867 0.90906 0.0
H114 H 0.4924 0.85205 0.90635 0.0
H115 H 0.47891 0.84437 0.91036 0.0
H116 H 0.42895 0.82721 0.89302 0.0
H117 H 0.41996 0.81484 0.91682 0.0
H118 H 0.42768 0.82585 0.92544 0.0
H119 H 0.43662 0.83828 0.90171 0.0
C120 C 0.40481 0.18792 0.18803 0.0
C121 C 0.40839 0.1796 0.18647 0.0
C122 C 0.39981 0.17348 0.19845 0.0
C123 C 0.4059 0.17245 0.1916 0.0
C124 C 0.39642 0.18187 0.20015 0.0
C125 C 0.39887 0.18903 0.19495 0.0
U126 U 0.41953 0.19725 0.17052 0.0
O127 O 0.41666 0.20423 0.1583 0.0
O128 O 0.4248 0.21055 0.16833 0.0
C129 C 0.42065 0.21143 0.16083 0.0
C130 C 0.40714 0.19532 0.1823 0.0
C131 C 0.41585 0.21974 0.15942 0.0
C132 C 0.40243 0.22763 0.15593 0.0
C133 C 0.40671 0.21987 0.15827 0.0
C134 C 0.41626 0.23536 0.15622 0.0
C135 C 0.40715 0.23547 0.15475 0.0
C136 C 0.42055 0.22758 0.1585 0.0
C137 C 0.43785 0.18097 0.16295 0.0
C138 C 0.44343 0.17555 0.14904 0.0
C139 C 0.45141 0.17258 0.16241 0.0
C140 C 0.44516 0.17731 0.16716 0.0
C141 C 0.45043 0.17135 0.15334 0.0
C142 C 0.4372 0.18031 0.15379 0.0
C143 C 0.43045 0.18412 0.16836 0.0
O144 O 0.41469 0.19911 0.184 0.0
O145 O 0.40593 0.19389 0.1739 0.0
O146 O 0.42275 0.18463 0.16452 0.0
O147 O 0.43197 0.19059 0.17383 0.0
H148 H 0.41304 0.17862 0.1812 0.0
H149 H 0.40874 0.16611 0.1902 0.0
H150 H 0.39169 0.18286 0.20535 0.0
H151 H 0.39606 0.1954 0.19626 0.0
H152 H 0.39544 0.22736 0.15473 0.0
H153 H 0.40289 0.21393 0.15893 0.0
H154 H 0.42011 0.24127 0.15552 0.0
H155 H 0.42761 0.22764 0.15935 0.0
H156 H 0.44256 0.17482 0.14204 0.0
H157 H 0.45667 0.16938 0.16594 0.0
H158 H 0.44578 0.17767 0.17422 0.0
H159 H 0.43165 0.18309 0.15035 0.0
C160 C 0.08352 0.86675 0.08249 0.0
C161 C 0.09183 0.86313 0.08409 0.0
C162 C 0.09804 0.87158 0.07206 0.0
C163 C 0.09901 0.86554 0.07895 0.0
C164 C 0.08965 0.875 0.07032 0.0
C165 C 0.08245 0.87262 0.07552 0.0
U166 U 0.07402 0.8522 0.10004 0.0
O167 O 0.06714 0.85518 0.1123 0.0
O168 O 0.06063 0.84715 0.10231 0.0
C169 C 0.05985 0.8513 0.10982 0.0
C170 C 0.07608 0.86453 0.08825 0.0
C171 C 0.05161 0.85621 0.1113 0.0
C172 C 0.04392 0.86967 0.11504 0.0
C173 C 0.05162 0.86531 0.11261 0.0
C174 C 0.03595 0.856 0.11451 0.0
C175 C 0.03599 0.86507 0.11616 0.0
C176 C 0.04368 0.85163 0.11214 0.0
C177 C 0.0901 0.8337 0.10755 0.0
C178 C 0.09528 0.82802 0.12151 0.0
C179 C 0.09849 0.82016 0.10813 0.0
C180 C 0.09384 0.82643 0.10334 0.0
C181 C 0.09956 0.82107 0.11722 0.0
C182 C 0.09059 0.83428 0.11672 0.0
C183 C 0.08702 0.84112 0.10214 0.0
O184 O 0.07217 0.85705 0.08656 0.0
O185 O 0.07756 0.86572 0.09664 0.0
O186 O 0.08665 0.84881 0.10598 0.0
O187 O 0.08049 0.83969 0.09671 0.0
H188 H 0.09278 0.85852 0.08939 0.0
H189 H 0.10535 0.86269 0.08038 0.0
H190 H 0.0887 0.87969 0.06509 0.0
H191 H 0.07609 0.87547 0.07419 0.0
H192 H 0.0443 0.87662 0.11637 0.0
H193 H 0.05763 0.86904 0.11202 0.0
H194 H 0.02997 0.85223 0.11516 0.0
H195 H 0.0435 0.84461 0.11117 0.0
H196 H 0.09589 0.82884 0.12852 0.0
H197 H 0.10177 0.81495 0.10461 0.0
H198 H 0.0936 0.82588 0.09627 0.0
H199 H 0.08774 0.83979 0.12016 0.0
C200 C 0.40482 0.83265 0.33255 0.0
C201 C 0.40841 0.84095 0.33416 0.0
C202 C 0.39993 0.84714 0.32214 0.0
C203 C 0.40597 0.84812 0.32903 0.0
C204 C 0.39652 0.83875 0.32039 0.0
C205 C 0.39893 0.83157 0.32559 0.0
U206 U 0.41956 0.82308 0.34993 0.0
O207 O 0.41669 0.81613 0.36217 0.0
O208 O 0.42466 0.8097 0.35206 0.0
C209 C 0.42057 0.80888 0.3596 0.0
C210 C 0.4071 0.82521 0.33827 0.0
C211 C 0.41567 0.80064 0.36107 0.0
C212 C 0.4022 0.79291 0.36474 0.0
C213 C 0.40655 0.80062 0.36235 0.0
C214 C 0.41593 0.785 0.36424 0.0
C215 C 0.40684 0.78501 0.36584 0.0
C216 C 0.42029 0.79273 0.36191 0.0
C217 C 0.43819 0.83902 0.35736 0.0
C218 C 0.44422 0.84332 0.37147 0.0
C219 C 0.4514 0.84791 0.35811 0.0
C220 C 0.44513 0.84337 0.3532 0.0
C221 C 0.45083 0.84822 0.36729 0.0
C222 C 0.43796 0.83876 0.36656 0.0
C223 C 0.43071 0.83603 0.352 0.0
O224 O 0.41457 0.82131 0.33649 0.0
O225 O 0.40599 0.82665 0.34668 0.0
O226 O 0.42304 0.83564 0.35591 0.0
O227 O 0.43208 0.82954 0.34651 0.0
H228 H 0.41303 0.84191 0.33946 0.0
H229 H 0.40881 0.85446 0.33046 0.0
H230 H 0.39183 0.83779 0.31516 0.0
H231 H 0.39611 0.82521 0.32424 0.0
H232 H 0.39523 0.79327 0.36604 0.0
H233 H 0.4028 0.80661 0.36176 0.0
H234 H 0.41972 0.77904 0.36489 0.0
H235 H 0.42733 0.79258 0.36097 0.0
H236 H 0.44366 0.84333 0.37854 0.0
H237 H 0.45634 0.85166 0.35466 0.0
H238 H 0.44541 0.84371 0.34612 0.0
H239 H 0.43269 0.83542 0.36995 0.0
C240 C 0.43905 0.1544 0.58195 0.0
C241 C 0.43079 0.15827 0.58308 0.0
C242 C 0.42497 0.14997 0.57072 0.0
C243 C 0.42382 0.15606 0.57756 0.0
C244 C 0.43332 0.1462 0.56955 0.0
C245 C 0.44029 0.14839 0.57513 0.0
U246 U 0.44827 0.16888 0.59976 0.0
O247 O 0.45488 0.16583 0.61216 0.0
O248 O 0.46167 0.17378 0.60229 0.0
C249 C 0.46225 0.16963 0.60982 0.0
C250 C 0.44631 0.15653 0.58797 0.0
C251 C 0.47044 0.16466 0.61147 0.0
C252 C 0.47796 0.15129 0.61579 0.0
C253 C 0.4703 0.15564 0.61326 0.0
C254 C 0.48615 0.16478 0.61444 0.0
C255 C 0.48599 0.15581 0.61654 0.0
C256 C 0.47845 0.16915 0.61197 0.0
C257 C 0.43251 0.1877 0.6069 0.0
C258 C 0.42859 0.1939 0.62105 0.0
C259 C 0.42361 0.20089 0.60772 0.0
C260 C 0.42802 0.19457 0.60277 0.0
C261 C 0.42357 0.20044 0.61692 0.0
C262 C 0.43302 0.18758 0.61608 0.0
C263 C 0.43544 0.18021 0.60153 0.0
O264 O 0.4504 0.16393 0.58637 0.0
O265 O 0.44453 0.15542 0.59631 0.0
O266 O 0.43559 0.17254 0.60542 0.0
O267 O 0.4421 0.18148 0.59622 0.0
H268 H 0.4297 0.16293 0.58832 0.0
H269 H 0.41748 0.159 0.57878 0.0
H270 H 0.43449 0.14158 0.56431 0.0
H271 H 0.44664 0.14536 0.57413 0.0
H272 H 0.4775 0.14442 0.61747 0.0
H273 H 0.46423 0.15198 0.61295 0.0
H274 H 0.4922 0.16847 0.61481 0.0
H275 H 0.47873 0.17611 0.61063 0.0
H276 H 0.42879 0.19344 0.62812 0.0
H277 H 0.41975 0.20577 0.60432 0.0
H278 H 0.4275 0.19476 0.5957 0.0
H279 H 0.43648 0.18238 0.61943 0.0
C280 C 0.11891 0.18771 0.83335 0.0
C281 C 0.1153 0.17942 0.83498 0.0
C282 C 0.12381 0.17318 0.82301 0.0
C283 C 0.11775 0.17223 0.82989 0.0
C284 C 0.12725 0.18154 0.82125 0.0
C285 C 0.12484 0.18875 0.82641 0.0
U286 U 0.10374 0.19742 0.85026 0.0
O287 O 0.10622 0.20452 0.86249 0.0
O288 O 0.09853 0.21079 0.85209 0.0
C289 C 0.10239 0.21172 0.85973 0.0
C290 C 0.11653 0.1952 0.83897 0.0
C291 C 0.10724 0.21999 0.86122 0.0
C292 C 0.12071 0.22778 0.86475 0.0
C293 C 0.11638 0.22006 0.86237 0.0
C294 C 0.10691 0.2356 0.86448 0.0
C295 C 0.11603 0.23565 0.86596 0.0
C296 C 0.10258 0.22785 0.86217 0.0
C297 C 0.08481 0.18136 0.85705 0.0
C298 C 0.07878 0.17362 0.86963 0.0
C299 C 0.07001 0.17539 0.85656 0.0
C300 C 0.07684 0.18007 0.85262 0.0
C301 C 0.07101 0.17183 0.86499 0.0
C302 C 0.08561 0.17832 0.8657 0.0
C303 C 0.09257 0.18444 0.85208 0.0
O304 O 0.10913 0.19912 0.83696 0.0
O305 O 0.11741 0.19381 0.84741 0.0
O306 O 0.10007 0.18492 0.8563 0.0
O307 O 0.09143 0.19085 0.84644 0.0
H308 H 0.11064 0.1785 0.84026 0.0
H309 H 0.11487 0.16591 0.83132 0.0
H310 H 0.13196 0.18248 0.81603 0.0
H311 H 0.12767 0.1951 0.82504 0.0
H312 H 0.12769 0.22747 0.86595 0.0
H313 H 0.12016 0.2141 0.86169 0.0
H314 H 0.10309 0.24153 0.86521 0.0
H315 H 0.09553 0.22796 0.86131 0.0
H316 H 0.07984 0.17091 0.87609 0.0
H317 H 0.06407 0.17426 0.85284 0.0
H318 H 0.07606 0.18227 0.84593 0.0
H319 H 0.09167 0.17912 0.8693 0.0
C320 C 0.43961 0.08148 0.15461 0.0
C321 C 0.43852 0.08975 0.15844 0.0
C322 C 0.45084 0.0955 0.15003 0.0
C323 C 0.44404 0.09668 0.15616 0.0
C324 C 0.45196 0.08714 0.14628 0.0
C325 C 0.44639 0.0802 0.14855 0.0
U326 U 0.42185 0.07274 0.16935 0.0
O327 O 0.40935 0.06616 0.16652 0.0
O328 O 0.41918 0.05962 0.17472 0.0
C329 C 0.41154 0.05901 0.17078 0.0
C330 C 0.43359 0.07427 0.15687 0.0
C331 C 0.40963 0.0507 0.16626 0.0
C332 C 0.41197 0.04037 0.15438 0.0
C333 C 0.41437 0.04801 0.15887 0.0
C334 C 0.4002 0.03796 0.16474 0.0
C335 C 0.40475 0.0353 0.15718 0.0
C336 C 0.40262 0.04557 0.16922 0.0
C337 C 0.41508 0.089 0.18784 0.0
C338 C 0.40101 0.09286 0.19427 0.0
C339 C 0.41444 0.09818 0.20083 0.0
C340 C 0.41931 0.09371 0.1945 0.0
C341 C 0.40522 0.09807 0.20062 0.0
C342 C 0.40589 0.08837 0.18794 0.0
C343 C 0.42034 0.08589 0.18034 0.0
O344 O 0.4352 0.07032 0.16434 0.0
O345 O 0.42523 0.07606 0.15575 0.0
O346 O 0.41634 0.08556 0.17273 0.0
O347 O 0.42564 0.07924 0.18171 0.0
H348 H 0.43332 0.09087 0.16314 0.0
H349 H 0.44284 0.10303 0.15908 0.0
H350 H 0.45718 0.08595 0.14162 0.0
H351 H 0.44736 0.07385 0.14554 0.0
H352 H 0.4157 0.03848 0.14864 0.0
H353 H 0.41982 0.05189 0.15649 0.0
H354 H 0.39453 0.03436 0.16703 0.0
H355 H 0.39886 0.04757 0.1749 0.0
H356 H 0.39392 0.09255 0.19399 0.0
H357 H 0.41791 0.10218 0.20555 0.0
H358 H 0.42639 0.09432 0.19452 0.0
H359 H 0.40247 0.08474 0.18289 0.0
C360 C 0.1894 0.18847 0.40418 0.0
C361 C 0.18113 0.18734 0.40804 0.0
C362 C 0.17532 0.19967 0.39971 0.0
C363 C 0.17417 0.19285 0.40581 0.0
C364 C 0.18368 0.20084 0.39595 0.0
C365 C 0.19065 0.19528 0.39816 0.0
U366 U 0.19849 0.17058 0.41863 0.0
O367 O 0.2052 0.15825 0.41557 0.0
O368 O 0.21182 0.16807 0.42371 0.0
C369 C 0.2125 0.1606 0.4195 0.0
C370 C 0.19665 0.18247 0.40636 0.0
C371 C 0.22075 0.15906 0.41461 0.0
C372 C 0.22847 0.15539 0.40114 0.0
C373 C 0.22077 0.15781 0.4055 0.0
C374 C 0.2364 0.15579 0.41486 0.0
C375 C 0.23639 0.15423 0.40577 0.0
C376 C 0.22866 0.15815 0.41922 0.0
C377 C 0.1824 0.16329 0.43719 0.0
C378 C 0.17739 0.1493 0.44295 0.0
C379 C 0.17396 0.16269 0.4507 0.0
C380 C 0.17857 0.16749 0.4444 0.0
C381 C 0.17303 0.15358 0.44986 0.0
C382 C 0.18204 0.15411 0.43667 0.0
C383 C 0.18549 0.16867 0.42976 0.0
O384 O 0.20063 0.18402 0.41383 0.0
O385 O 0.19493 0.17413 0.40515 0.0
O386 O 0.18577 0.16486 0.42206 0.0
O387 O 0.1921 0.17401 0.43118 0.0
H388 H 0.18004 0.18211 0.4127 0.0
H389 H 0.16782 0.19163 0.40873 0.0
H390 H 0.18486 0.20607 0.39132 0.0
H391 H 0.197 0.19627 0.39515 0.0
H392 H 0.22812 0.15412 0.39418 0.0
H393 H 0.21477 0.15845 0.40175 0.0
H394 H 0.24236 0.15511 0.41864 0.0
H395 H 0.22882 0.15908 0.42625 0.0
H396 H 0.17689 0.14227 0.44219 0.0
H397 H 0.17062 0.16621 0.45588 0.0
H398 H 0.17871 0.17456 0.44491 0.0
H399 H 0.18496 0.15067 0.4312 0.0
C400 C 0.08297 0.93871 0.65432 0.0
C401 C 0.08395 0.93068 0.65866 0.0
C402 C 0.07237 0.92424 0.64974 0.0
C403 C 0.07872 0.92352 0.65638 0.0
C404 C 0.07124 0.93238 0.64557 0.0
C405 C 0.07653 0.93955 0.64782 0.0
U406 U 0.10085 0.94764 0.6687 0.0
O407 O 0.11325 0.95432 0.66568 0.0
O408 O 0.10353 0.96076 0.67409 0.0
C409 C 0.11111 0.96142 0.67004 0.0
C410 C 0.08889 0.94604 0.65644 0.0
C411 C 0.11297 0.96978 0.66559 0.0
C412 C 0.11097 0.97997 0.65352 0.0
C413 C 0.10852 0.97231 0.65796 0.0
C414 C 0.12217 0.98272 0.66441 0.0
C415 C 0.11794 0.98521 0.65661 0.0
C416 C 0.11971 0.9751 0.66883 0.0
C417 C 0.10809 0.93123 0.68693 0.0
C418 C 0.12211 0.92626 0.69269 0.0
C419 C 0.10869 0.92261 0.70031 0.0
C420 C 0.10387 0.92726 0.69406 0.0
C421 C 0.11783 0.92178 0.69952 0.0
C422 C 0.11728 0.93094 0.68645 0.0
C423 C 0.10269 0.93443 0.67956 0.0
O424 O 0.08738 0.94995 0.66397 0.0
O425 O 0.09724 0.9444 0.65514 0.0
O426 O 0.10652 0.93485 0.67186 0.0
O427 O 0.09737 0.94103 0.68109 0.0
H428 H 0.08885 0.92991 0.66373 0.0
H429 H 0.07967 0.91739 0.65983 0.0
H430 H 0.06645 0.93314 0.64039 0.0
H431 H 0.07569 0.9457 0.6444 0.0
H432 H 0.10748 0.98172 0.6476 0.0
H433 H 0.10329 0.96829 0.65536 0.0
H434 H 0.12765 0.98646 0.66692 0.0
H435 H 0.12325 0.97323 0.67469 0.0
H436 H 0.12916 0.92583 0.69195 0.0
H437 H 0.10517 0.91918 0.70543 0.0
H438 H 0.09678 0.92735 0.69454 0.0
H439 H 0.12072 0.93398 0.68104 0.0
C440 C 0.33358 0.83219 0.90382 0.0
C441 C 0.34189 0.83381 0.90741 0.0
C442 C 0.34811 0.8218 0.89893 0.0
C443 C 0.34908 0.82869 0.90497 0.0
C444 C 0.33972 0.82004 0.89553 0.0
C445 C 0.33251 0.82522 0.89794 0.0
U446 U 0.32399 0.8496 0.9185 0.0
O447 O 0.31703 0.86183 0.9156 0.0
O448 O 0.31059 0.85175 0.92358 0.0
C449 C 0.30977 0.85928 0.91949 0.0
C450 C 0.32612 0.8379 0.90608 0.0
C451 C 0.30151 0.86074 0.91459 0.0
C452 C 0.29377 0.86427 0.90111 0.0
C453 C 0.30148 0.86189 0.90547 0.0
C454 C 0.28586 0.86402 0.91484 0.0
C455 C 0.28586 0.86549 0.90574 0.0
C456 C 0.29361 0.86169 0.91921 0.0
C457 C 0.33999 0.85708 0.93708 0.0
C458 C 0.34487 0.87107 0.94293 0.0
C459 C 0.34842 0.85766 0.9506 0.0
C460 C 0.34385 0.85286 0.94427 0.0
C461 C 0.34927 0.86679 0.94982 0.0
C462 C 0.34027 0.86626 0.93663 0.0
C463 C 0.33697 0.8517 0.92961 0.0
O464 O 0.32222 0.83615 0.91356 0.0
O465 O 0.32756 0.8463 0.90495 0.0
O466 O 0.33658 0.85559 0.92195 0.0
O467 O 0.33048 0.84621 0.93099 0.0
H468 H 0.34284 0.83911 0.91202 0.0
H469 H 0.35543 0.83014 0.90781 0.0
H470 H 0.33877 0.81481 0.89084 0.0
H471 H 0.32614 0.82386 0.89512 0.0
H472 H 0.29412 0.86547 0.89413 0.0
H473 H 0.30747 0.8612 0.90172 0.0
H474 H 0.27991 0.86475 0.91862 0.0
H475 H 0.29346 0.86084 0.92625 0.0
H476 H 0.34531 0.8781 0.94222 0.0
H477 H 0.35178 0.85415 0.95576 0.0
H478 H 0.34377 0.84579 0.94474 0.0
H479 H 0.33732 0.8697 0.93117 0.0
C480 C 0.43851 0.9385 0.36706 0.0
C481 C 0.43698 0.93018 0.36349 0.0
C482 C 0.44895 0.92407 0.37211 0.0
C483 C 0.44211 0.92304 0.36602 0.0
C484 C 0.45064 0.93248 0.37549 0.0
C485 C 0.44543 0.93963 0.373 0.0
U486 U 0.42137 0.94768 0.35192 0.0
O487 O 0.40891 0.95445 0.35443 0.0
O488 O 0.41905 0.96088 0.34654 0.0
C489 C 0.41131 0.96158 0.35026 0.0
C490 C 0.43277 0.94589 0.36467 0.0
C491 C 0.40937 0.9699 0.35476 0.0
C492 C 0.41066 0.97967 0.36727 0.0
C493 C 0.41326 0.97208 0.36279 0.0
C494 C 0.40045 0.98306 0.35562 0.0
C495 C 0.40409 0.98518 0.36381 0.0
C496 C 0.40307 0.9755 0.35116 0.0
C497 C 0.41475 0.9315 0.33328 0.0
C498 C 0.40078 0.92774 0.32657 0.0
C499 C 0.41431 0.92235 0.32027 0.0
C500 C 0.41908 0.92678 0.32671 0.0
C501 C 0.40509 0.92252 0.3203 0.0
C502 C 0.40557 0.9322 0.333 0.0
C503 C 0.41987 0.93456 0.34089 0.0
O504 O 0.43466 0.94979 0.35723 0.0
O505 O 0.42434 0.94436 0.3656 0.0
O506 O 0.41571 0.93497 0.34841 0.0
O507 O 0.42531 0.94112 0.33964 0.0
H508 H 0.43172 0.92918 0.35883 0.0
H509 H 0.44072 0.91668 0.36319 0.0
H510 H 0.45583 0.93347 0.38022 0.0
H511 H 0.44673 0.94601 0.37581 0.0
H512 H 0.41369 0.98114 0.37351 0.0
H513 H 0.41815 0.96783 0.36568 0.0
H514 H 0.39529 0.98702 0.35279 0.0
H515 H 0.39996 0.9739 0.34498 0.0
H516 H 0.39369 0.9281 0.3267 0.0
H517 H 0.41785 0.91832 0.31562 0.0
H518 H 0.42615 0.92612 0.32682 0.0
H519 H 0.40207 0.93584 0.33798 0.0
C520 C 0.33342 0.18835 0.61698 0.0
C521 C 0.34174 0.18676 0.61339 0.0
C522 C 0.34793 0.19874 0.62191 0.0
C523 C 0.34892 0.19188 0.61585 0.0
C524 C 0.33953 0.20048 0.62531 0.0
C525 C 0.33234 0.1953 0.62288 0.0
U526 U 0.32388 0.17092 0.60229 0.0
O527 O 0.31693 0.15868 0.60519 0.0
O528 O 0.31048 0.16875 0.59721 0.0
C529 C 0.30967 0.16123 0.60131 0.0
C530 C 0.32598 0.18262 0.61471 0.0
C531 C 0.30141 0.15977 0.60621 0.0
C532 C 0.29369 0.15619 0.61969 0.0
C533 C 0.30139 0.15858 0.61533 0.0
C534 C 0.28576 0.15651 0.60598 0.0
C535 C 0.28577 0.15499 0.61507 0.0
C536 C 0.2935 0.15884 0.60161 0.0
C537 C 0.33992 0.16346 0.58372 0.0
C538 C 0.34493 0.1495 0.5779 0.0
C539 C 0.34834 0.16291 0.57019 0.0
C540 C 0.34373 0.16769 0.57651 0.0
C541 C 0.34928 0.15379 0.571 0.0
C542 C 0.34029 0.15428 0.5842 0.0
C543 C 0.33688 0.16883 0.59119 0.0
O544 O 0.32209 0.18437 0.60723 0.0
O545 O 0.32743 0.17422 0.61584 0.0
O546 O 0.33648 0.16494 0.59885 0.0
O547 O 0.33038 0.1743 0.5898 0.0
H548 H 0.3427 0.18147 0.60876 0.0
H549 H 0.35527 0.19045 0.613 0.0
H550 H 0.33857 0.20569 0.63002 0.0
H551 H 0.32597 0.19663 0.62571 0.0
H552 H 0.29405 0.15495 0.62666 0.0
H553 H 0.30739 0.15923 0.61907 0.0
H554 H 0.2798 0.1558 0.6022 0.0
H555 H 0.29335 0.15973 0.59457 0.0
H556 H 0.34543 0.14247 0.57864 0.0
H557 H 0.35166 0.16644 0.56502 0.0
H558 H 0.34359 0.17476 0.57603 0.0
H559 H 0.33738 0.15083 0.58967 0.0
C560 C 0.08226 0.08205 0.86631 0.0
C561 C 0.08288 0.09001 0.86179 0.0
C562 C 0.07102 0.09615 0.87059 0.0
C563 C 0.07734 0.09699 0.86392 0.0
C564 C 0.07037 0.08809 0.87503 0.0
C565 C 0.07595 0.08111 0.87291 0.0
U566 U 0.10025 0.07284 0.85201 0.0
O567 O 0.11266 0.06631 0.8552 0.0
O568 O 0.10288 0.05946 0.84719 0.0
C569 C 0.11038 0.05892 0.85141 0.0
C570 C 0.08834 0.07482 0.86428 0.0
C571 C 0.11203 0.05077 0.85641 0.0
C572 C 0.1165 0.04331 0.86978 0.0
C573 C 0.11396 0.05095 0.8654 0.0
C574 C 0.11487 0.03506 0.85636 0.0
C575 C 0.1171 0.03526 0.8653 0.0
C576 C 0.11239 0.04273 0.85197 0.0
C577 C 0.10745 0.08854 0.83317 0.0
C578 C 0.12166 0.09248 0.82708 0.0
C579 C 0.10836 0.09751 0.82004 0.0
C580 C 0.10337 0.09307 0.82631 0.0
C581 C 0.11757 0.09754 0.82055 0.0
C582 C 0.11665 0.08801 0.83334 0.0
C583 C 0.10204 0.0856 0.84062 0.0
O584 O 0.08681 0.07068 0.85689 0.0
O585 O 0.09668 0.07667 0.86542 0.0
O586 O 0.10588 0.08551 0.84833 0.0
O587 O 0.09677 0.07892 0.83934 0.0
H588 H 0.08774 0.09087 0.85669 0.0
H589 H 0.07815 0.10312 0.86045 0.0
H590 H 0.06553 0.08716 0.88013 0.0
H591 H 0.07536 0.075 0.87646 0.0
H592 H 0.11829 0.04381 0.87661 0.0
H593 H 0.11377 0.05704 0.86903 0.0
H594 H 0.11512 0.02899 0.85271 0.0
H595 H 0.11095 0.04241 0.84503 0.0
H596 H 0.12874 0.09227 0.82758 0.0
H597 H 0.10498 0.1014 0.81517 0.0
H598 H 0.09628 0.0936 0.82607 0.0
H599 H 0.11997 0.08452 0.83854 0.0
C600 C 0.18956 0.83193 0.11633 0.0
C601 C 0.18129 0.8331 0.1125 0.0
C602 C 0.17544 0.82077 0.12081 0.0
C603 C 0.1743 0.82761 0.11473 0.0
C604 C 0.1838 0.81956 0.12455 0.0
C605 C 0.19079 0.8251 0.12233 0.0
U606 U 0.19881 0.84968 0.1018 0.0
O607 O 0.20551 0.86202 0.10482 0.0
O608 O 0.21219 0.85212 0.09682 0.0
C609 C 0.21285 0.85963 0.10098 0.0
C610 C 0.19683 0.8379 0.11416 0.0
C611 C 0.22105 0.86119 0.10593 0.0
C612 C 0.22866 0.86495 0.11943 0.0
C613 C 0.22099 0.86254 0.11503 0.0
C614 C 0.23672 0.86438 0.1058 0.0
C615 C 0.23663 0.86603 0.11487 0.0
C616 C 0.22901 0.86202 0.10139 0.0
C617 C 0.18295 0.85685 0.08304 0.0
C618 C 0.17882 0.87096 0.0769 0.0
C619 C 0.17406 0.8576 0.06984 0.0
C620 C 0.17854 0.85269 0.07615 0.0
C621 C 0.17387 0.86679 0.07033 0.0
C622 C 0.18332 0.86604 0.08321 0.0
C623 C 0.18592 0.85151 0.09053 0.0
O624 O 0.20088 0.83628 0.10674 0.0
O625 O 0.19511 0.84625 0.11528 0.0
O626 O 0.18614 0.8554 0.0982 0.0
O627 O 0.19254 0.84616 0.08923 0.0
H628 H 0.1802 0.83834 0.10784 0.0
H629 H 0.16795 0.82886 0.11182 0.0
H630 H 0.18497 0.81431 0.12916 0.0
H631 H 0.19714 0.82407 0.12533 0.0
H632 H 0.22825 0.86629 0.12638 0.0
H633 H 0.21496 0.86196 0.11873 0.0
H634 H 0.24272 0.865 0.10207 0.0
H635 H 0.22923 0.86102 0.09437 0.0
H636 H 0.1789 0.87803 0.0774 0.0
H637 H 0.17026 0.85416 0.06494 0.0
H638 H 0.17812 0.84562 0.07592 0.0
H639 H 0.18671 0.86942 0.08843 0.0
C640 C 0.15412 0.43824 0.08311 0.0
C641 C 0.1577 0.43664 0.09142 0.0
C642 C 0.14903 0.44853 0.09763 0.0
C643 C 0.15516 0.44171 0.09861 0.0
C644 C 0.14564 0.45026 0.08923 0.0
C645 C 0.14814 0.44513 0.08204 0.0
U646 U 0.16934 0.4213 0.07356 0.0
O647 O 0.16686 0.40899 0.06659 0.0
O648 O 0.17455 0.41931 0.0602 0.0
C649 C 0.17068 0.41166 0.05935 0.0
C650 C 0.15654 0.4326 0.07565 0.0
C651 C 0.16584 0.41008 0.0511 0.0
C652 C 0.15242 0.4063 0.04334 0.0
C653 C 0.15672 0.40876 0.05105 0.0
C654 C 0.16619 0.40679 0.03548 0.0
C655 C 0.1571 0.40515 0.03546 0.0
C656 C 0.1705 0.40919 0.04322 0.0
C657 C 0.18812 0.41447 0.08959 0.0
C658 C 0.19472 0.40054 0.09362 0.0
C659 C 0.20122 0.41408 0.09867 0.0
C660 C 0.19479 0.41882 0.09417 0.0
C661 C 0.20108 0.40488 0.0987 0.0
C662 C 0.1883 0.40529 0.0891 0.0
C663 C 0.18049 0.41959 0.08657 0.0
O664 O 0.16397 0.43459 0.07176 0.0
O665 O 0.15567 0.42417 0.07708 0.0
O666 O 0.17296 0.41543 0.08614 0.0
O667 O 0.18171 0.42511 0.08008 0.0
H668 H 0.16239 0.43141 0.09238 0.0
H669 H 0.158 0.44029 0.10495 0.0
H670 H 0.14088 0.45544 0.08828 0.0
H671 H 0.14533 0.44647 0.07566 0.0
H672 H 0.14546 0.40497 0.04367 0.0
H673 H 0.15294 0.40938 0.05702 0.0
H674 H 0.17001 0.40612 0.02955 0.0
H675 H 0.17753 0.41018 0.0431 0.0
H676 H 0.1945 0.39346 0.09341 0.0
H677 H 0.20594 0.41765 0.10258 0.0
H678 H 0.19475 0.42589 0.09469 0.0
H679 H 0.18324 0.40177 0.08557 0.0
C680 C 0.65478 0.0823 0.93821 0.0
C681 C 0.65868 0.08345 0.92997 0.0
C682 C 0.65034 0.07115 0.92409 0.0
C683 C 0.65646 0.07796 0.92298 0.0
C684 C 0.64652 0.06997 0.93241 0.0
C685 C 0.64873 0.0755 0.9394 0.0
U686 U 0.66912 0.10027 0.94734 0.0
O687 O 0.66597 0.11252 0.95416 0.0
O688 O 0.67426 0.10272 0.96065 0.0
C689 C 0.66998 0.11016 0.96141 0.0
C690 C 0.65693 0.08828 0.94548 0.0
C691 C 0.66514 0.11161 0.9697 0.0
C692 C 0.65175 0.11532 0.97755 0.0
C693 C 0.65603 0.11296 0.96979 0.0
C694 C 0.66553 0.11466 0.98537 0.0
C695 C 0.65645 0.11632 0.98544 0.0
C696 C 0.66982 0.11236 0.97758 0.0
C697 C 0.68756 0.10788 0.93127 0.0
C698 C 0.69315 0.12191 0.92621 0.0
C699 C 0.70116 0.10862 0.92296 0.0
C700 C 0.69489 0.10376 0.92755 0.0
C701 C 0.70018 0.11772 0.92195 0.0
C702 C 0.6869 0.11705 0.93083 0.0
C703 C 0.68018 0.1024 0.93433 0.0
O704 O 0.66445 0.08677 0.94941 0.0
O705 O 0.65563 0.09661 0.94381 0.0
O706 O 0.67243 0.10614 0.93467 0.0
O707 O 0.68167 0.09701 0.94087 0.0
H708 H 0.66336 0.08867 0.92891 0.0
H709 H 0.65943 0.07919 0.91666 0.0
H710 H 0.64187 0.06474 0.93355 0.0
H711 H 0.64567 0.0745 0.94572 0.0
H712 H 0.64479 0.11667 0.97726 0.0
H713 H 0.65223 0.11245 0.96383 0.0
H714 H 0.66936 0.11523 0.99131 0.0
H715 H 0.67685 0.11136 0.97768 0.0
H716 H 0.69228 0.12893 0.92565 0.0
H717 H 0.70643 0.10517 0.9197 0.0
H718 H 0.69551 0.0967 0.92775 0.0
H719 H 0.68134 0.12042 0.93367 0.0
C720 C 0.18941 0.40381 0.18814 0.0
C721 C 0.18832 0.40784 0.17996 0.0
C722 C 0.20049 0.39939 0.17395 0.0
C723 C 0.19378 0.40564 0.17294 0.0
C724 C 0.20162 0.39545 0.18222 0.0
C725 C 0.19612 0.39764 0.18924 0.0
U726 U 0.17176 0.41838 0.19757 0.0
O727 O 0.1594 0.41539 0.2043 0.0
O728 O 0.1694 0.42328 0.21099 0.0
C729 C 0.16185 0.41917 0.21164 0.0
C730 C 0.18348 0.40596 0.19545 0.0
C731 C 0.16025 0.41422 0.21984 0.0
C732 C 0.15588 0.40088 0.2274 0.0
C733 C 0.15837 0.40522 0.21972 0.0
C734 C 0.15745 0.41436 0.23556 0.0
C735 C 0.15526 0.40541 0.23542 0.0
C736 C 0.15988 0.41871 0.22785 0.0
C737 C 0.16458 0.43727 0.18193 0.0
C738 C 0.15041 0.44355 0.17815 0.0
C739 C 0.16375 0.45045 0.17305 0.0
C740 C 0.16871 0.44411 0.17741 0.0
C741 C 0.15454 0.45006 0.1731 0.0
C742 C 0.15538 0.43721 0.18253 0.0
C743 C 0.16993 0.42974 0.1848 0.0
O744 O 0.18517 0.41334 0.19955 0.0
O745 O 0.17509 0.40491 0.19376 0.0
O746 O 0.16599 0.4221 0.18498 0.0
O747 O 0.17533 0.43097 0.1914 0.0
H748 H 0.18317 0.41263 0.17898 0.0
H749 H 0.1926 0.40871 0.16666 0.0
H750 H 0.20678 0.3907 0.18328 0.0
H751 H 0.19708 0.39449 0.19552 0.0
H752 H 0.15412 0.39404 0.22695 0.0
H753 H 0.15857 0.40155 0.21365 0.0
H754 H 0.15718 0.41806 0.2416 0.0
H755 H 0.16128 0.42566 0.22811 0.0
H756 H 0.14333 0.44313 0.17841 0.0
H757 H 0.16716 0.45531 0.16916 0.0
H758 H 0.17579 0.44426 0.17682 0.0
H759 H 0.15203 0.43203 0.18602 0.0
C760 C 0.86831 0.93799 0.43795 0.0
C761 C 0.86476 0.93638 0.42963 0.0
C762 C 0.87317 0.94849 0.42352 0.0
C763 C 0.86719 0.94155 0.42249 0.0
C764 C 0.87654 0.95023 0.43192 0.0
C765 C 0.87415 0.94499 0.43908 0.0
U766 U 0.85332 0.92082 0.44742 0.0
O767 O 0.85591 0.90853 0.45437 0.0
O768 O 0.84809 0.91877 0.46076 0.0
C769 C 0.85204 0.91116 0.46161 0.0
C770 C 0.86598 0.93228 0.44538 0.0
C771 C 0.85688 0.90961 0.46988 0.0
C772 C 0.87022 0.90561 0.47766 0.0
C773 C 0.86596 0.90808 0.46993 0.0
C774 C 0.85649 0.90654 0.48554 0.0
C775 C 0.86553 0.90468 0.48556 0.0
C776 C 0.85222 0.90895 0.47778 0.0
C777 C 0.83453 0.91399 0.43119 0.0
C778 C 0.82867 0.90138 0.42338 0.0
C779 C 0.8198 0.9144 0.42503 0.0
C780 C 0.82656 0.91837 0.42979 0.0
C781 C 0.8209 0.90597 0.42148 0.0
C782 C 0.83541 0.90534 0.42817 0.0
C783 C 0.84221 0.91902 0.43438 0.0
O784 O 0.85853 0.93415 0.44929 0.0
O785 O 0.86696 0.92386 0.44391 0.0
O786 O 0.84976 0.91488 0.43483 0.0
O787 O 0.84098 0.92456 0.44085 0.0
H788 H 0.86017 0.93106 0.42864 0.0
H789 H 0.86438 0.94012 0.41614 0.0
H790 H 0.88119 0.95549 0.43292 0.0
H791 H 0.87693 0.94635 0.44546 0.0
H792 H 0.87715 0.90411 0.47733 0.0
H793 H 0.86974 0.90853 0.46395 0.0
H794 H 0.85267 0.90604 0.49149 0.0
H795 H 0.84521 0.9101 0.47791 0.0
H796 H 0.82979 0.89491 0.4207 0.0
H797 H 0.81386 0.91808 0.42381 0.0
H798 H 0.8257 0.92507 0.43198 0.0
H799 H 0.84149 0.90178 0.42906 0.0
C800 C 0.83288 0.11617 0.18928 0.0
C801 C 0.83396 0.11233 0.18101 0.0
C802 C 0.82163 0.12073 0.17526 0.0
C803 C 0.82843 0.1146 0.17407 0.0
C804 C 0.82052 0.12449 0.18362 0.0
C805 C 0.8261 0.12222 0.19056 0.0
U806 U 0.85065 0.10144 0.19803 0.0
O807 O 0.86315 0.10427 0.20462 0.0
O808 O 0.85332 0.09608 0.21116 0.0
C809 C 0.86097 0.10002 0.21177 0.0
C810 C 0.83892 0.11391 0.19648 0.0
C811 C 0.86288 0.10453 0.22008 0.0
C812 C 0.86065 0.11648 0.23037 0.0
C813 C 0.85822 0.11199 0.22273 0.0
C814 C 0.87226 0.10596 0.23288 0.0
C815 C 0.8678 0.1136 0.23548 0.0
C816 C 0.86981 0.10149 0.22527 0.0
C817 C 0.85744 0.08293 0.18181 0.0
C818 C 0.87152 0.07647 0.17805 0.0
C819 C 0.85811 0.06992 0.17267 0.0
C820 C 0.85323 0.07627 0.17709 0.0
C821 C 0.86733 0.07011 0.17283 0.0
C822 C 0.86662 0.08282 0.1825 0.0
C823 C 0.85217 0.09043 0.1849 0.0
O824 O 0.83731 0.10645 0.20044 0.0
O825 O 0.84727 0.11502 0.19469 0.0
O826 O 0.85617 0.09804 0.18522 0.0
O827 O 0.84687 0.08907 0.19155 0.0
H828 H 0.83917 0.10763 0.17988 0.0
H829 H 0.82962 0.11168 0.16773 0.0
H830 H 0.81531 0.12914 0.18482 0.0
H831 H 0.82515 0.12523 0.19691 0.0
H832 H 0.85699 0.12227 0.23221 0.0
H833 H 0.85283 0.11443 0.2188 0.0
H834 H 0.87787 0.10361 0.23652 0.0
H835 H 0.87351 0.09576 0.22331 0.0
H836 H 0.87861 0.07673 0.1784 0.0
H837 H 0.85466 0.0652 0.16865 0.0
H838 H 0.84615 0.07626 0.17644 0.0
H839 H 0.87003 0.08786 0.18614 0.0
C840 C 0.36771 0.58187 0.58243 0.0
C841 C 0.36341 0.58291 0.59048 0.0
C842 C 0.37232 0.57135 0.59693 0.0
C843 C 0.36569 0.57772 0.59765 0.0
C844 C 0.37647 0.57017 0.58878 0.0
C845 C 0.3742 0.57542 0.58159 0.0
U846 U 0.35338 0.59967 0.57313 0.0
O847 O 0.35649 0.6119 0.56627 0.0
O848 O 0.34823 0.60207 0.55981 0.0
C849 C 0.3525 0.60951 0.55903 0.0
C850 C 0.36558 0.5877 0.57504 0.0
C851 C 0.35736 0.61093 0.55075 0.0
C852 C 0.37083 0.61443 0.54294 0.0
C853 C 0.3665 0.61209 0.55067 0.0
C854 C 0.35704 0.61413 0.53511 0.0
C855 C 0.36616 0.61561 0.53506 0.0
C856 C 0.3527 0.61184 0.54287 0.0
C857 C 0.33505 0.60733 0.58938 0.0
C858 C 0.32962 0.62128 0.59484 0.0
C859 C 0.32153 0.60799 0.59783 0.0
C860 C 0.32771 0.60318 0.59307 0.0
C861 C 0.32259 0.61704 0.59906 0.0
C862 C 0.33578 0.61647 0.59004 0.0
C863 C 0.34239 0.60186 0.5862 0.0
O864 O 0.35805 0.58616 0.57115 0.0
O865 O 0.36689 0.59606 0.57659 0.0
O866 O 0.35014 0.60559 0.58579 0.0
O867 O 0.34084 0.59648 0.57967 0.0
H868 H 0.35834 0.58783 0.59124 0.0
H869 H 0.36227 0.57871 0.60379 0.0
H870 H 0.38163 0.56536 0.58802 0.0
H871 H 0.37759 0.57452 0.57543 0.0
H872 H 0.37781 0.61564 0.54325 0.0
H873 H 0.37028 0.61144 0.55664 0.0
H874 H 0.35323 0.61483 0.52918 0.0
H875 H 0.34565 0.61099 0.54276 0.0
H876 H 0.33055 0.62827 0.59557 0.0
H877 H 0.31625 0.6045 0.60105 0.0
H878 H 0.32704 0.59613 0.59271 0.0
H879 H 0.34135 0.61987 0.58724 0.0
C880 C 0.18922 0.61679 0.33252 0.0
C881 C 0.18808 0.61288 0.34075 0.0
C882 C 0.20041 0.62118 0.34663 0.0
C883 C 0.19358 0.61507 0.34773 0.0
C884 C 0.20159 0.625 0.33831 0.0
C885 C 0.19603 0.62283 0.33133 0.0
U886 U 0.17173 0.60203 0.3231 0.0
O887 O 0.15933 0.60484 0.31637 0.0
O888 O 0.16946 0.59712 0.30968 0.0
C889 C 0.16185 0.60112 0.30902 0.0
C890 C 0.18327 0.61461 0.32523 0.0
C891 C 0.16021 0.60611 0.30087 0.0
C892 C 0.15623 0.6196 0.29337 0.0
C893 C 0.15872 0.61518 0.301 0.0
C894 C 0.15704 0.60604 0.28522 0.0
C895 C 0.15524 0.61508 0.28538 0.0
C896 C 0.15947 0.60161 0.29288 0.0
C897 C 0.16507 0.58284 0.33881 0.0
C898 C 0.15238 0.57679 0.34639 0.0
C899 C 0.16544 0.56798 0.34457 0.0
C900 C 0.16944 0.57484 0.34001 0.0
C901 C 0.15698 0.56899 0.34812 0.0
C902 C 0.15638 0.58364 0.3418 0.0
C903 C 0.17011 0.59059 0.33584 0.0
O904 O 0.18505 0.60728 0.32108 0.0
O905 O 0.17488 0.61553 0.32696 0.0
O906 O 0.16599 0.59814 0.33567 0.0
O907 O 0.17558 0.58954 0.32926 0.0
H908 H 0.18285 0.60819 0.3418 0.0
H909 H 0.19236 0.6121 0.35405 0.0
H910 H 0.20683 0.62964 0.33718 0.0
H911 H 0.19704 0.62588 0.32501 0.0
H912 H 0.15478 0.62651 0.29384 0.0
H913 H 0.15923 0.61883 0.30706 0.0
H914 H 0.15649 0.60235 0.27919 0.0
H915 H 0.16058 0.59462 0.29261 0.0
H916 H 0.1459 0.57785 0.34908 0.0
H917 H 0.16912 0.56202 0.34566 0.0
H918 H 0.17616 0.57405 0.33784 0.0
H919 H 0.15282 0.58972 0.34105 0.0
C920 C 0.33322 0.40459 0.83165 0.0
C921 C 0.33431 0.40842 0.83993 0.0
C922 C 0.32197 0.40004 0.84568 0.0
C923 C 0.32878 0.40616 0.84687 0.0
C924 C 0.32084 0.3963 0.83732 0.0
C925 C 0.32642 0.39855 0.83038 0.0
U926 U 0.351 0.41929 0.82288 0.0
O927 O 0.36349 0.41643 0.81627 0.0
O928 O 0.35366 0.42464 0.80975 0.0
C929 C 0.3613 0.42068 0.80913 0.0
C930 C 0.33925 0.40684 0.82444 0.0
C931 C 0.36318 0.41616 0.80081 0.0
C932 C 0.36081 0.40427 0.79048 0.0
C933 C 0.35843 0.40876 0.79814 0.0
C934 C 0.37257 0.41463 0.78803 0.0
C935 C 0.36801 0.40707 0.78539 0.0
C936 C 0.37017 0.41911 0.79565 0.0
C937 C 0.35782 0.43779 0.83911 0.0
C938 C 0.37189 0.4442 0.84299 0.0
C939 C 0.35846 0.45084 0.8482 0.0
C940 C 0.35359 0.44449 0.84375 0.0
C941 C 0.36768 0.45059 0.84813 0.0
C942 C 0.36701 0.43786 0.83851 0.0
C943 C 0.35255 0.4303 0.83601 0.0
O944 O 0.33764 0.41431 0.82049 0.0
O945 O 0.3476 0.40571 0.82623 0.0
O946 O 0.35654 0.42268 0.83569 0.0
O947 O 0.34724 0.43166 0.82937 0.0
H948 H 0.33952 0.41311 0.84105 0.0
H949 H 0.32997 0.40907 0.85321 0.0
H950 H 0.31561 0.39165 0.83611 0.0
H951 H 0.32545 0.39555 0.82402 0.0
H952 H 0.35708 0.39854 0.78862 0.0
H953 H 0.353 0.40639 0.80204 0.0
H954 H 0.37822 0.41691 0.78441 0.0
H955 H 0.37394 0.42479 0.79763 0.0
H956 H 0.37898 0.44389 0.84271 0.0
H957 H 0.35499 0.45559 0.85216 0.0
H958 H 0.34651 0.44455 0.84433 0.0
H959 H 0.37043 0.43278 0.83493 0.0
C960 C 0.94005 0.86777 0.58418 0.0
C961 C 0.93534 0.86134 0.57957 0.0
C962 C 0.92624 0.87255 0.57277 0.0
C963 C 0.92855 0.86371 0.57389 0.0
C964 C 0.93097 0.87898 0.57737 0.0
C965 C 0.93783 0.8766 0.58299 0.0
U966 U 0.94806 0.85357 0.60295 0.0
O967 O 0.96081 0.84746 0.60576 0.0
O968 O 0.9553 0.857 0.61497 0.0
C969 C 0.9621 0.85214 0.61287 0.0
C970 C 0.947 0.86536 0.59051 0.0
C971 C 0.97075 0.85639 0.61361 0.0
C972 C 0.98259 0.86508 0.60745 0.0
C973 C 0.97423 0.86135 0.60672 0.0
C974 C 0.98402 0.85908 0.62205 0.0
C975 C 0.98762 0.86394 0.61511 0.0
C976 C 0.97568 0.85533 0.62129 0.0
C977 C 0.93075 0.8363 0.6109 0.0
C978 C 0.91931 0.83157 0.62094 0.0
C979 C 0.92842 0.82077 0.61378 0.0
C980 C 0.93306 0.82748 0.60957 0.0
C981 C 0.92134 0.82272 0.61937 0.0
C982 C 0.92394 0.83825 0.61676 0.0
C983 C 0.93436 0.84342 0.60536 0.0
O984 O 0.94519 0.86707 0.59875 0.0
O985 O 0.95071 0.85767 0.5894 0.0
O986 O 0.94077 0.8415 0.59993 0.0
O987 O 0.93523 0.85114 0.60905 0.0
H988 H 0.93682 0.85446 0.58044 0.0
H989 H 0.92495 0.8586 0.57055 0.0
H990 H 0.92939 0.88584 0.5766 0.0
H991 H 0.94135 0.88167 0.5865 0.0
H992 H 0.98509 0.8689 0.60203 0.0
H993 H 0.97051 0.8623 0.60075 0.0
H994 H 0.98772 0.85801 0.628 0.0
H995 H 0.9731 0.85151 0.62669 0.0
H996 H 0.9138 0.83337 0.62504 0.0
H997 H 0.93023 0.81404 0.61248 0.0
H998 H 0.93822 0.82573 0.60503 0.0
H999 H 0.92188 0.84495 0.6178 0.0
C1000 C 0.90332 0.18829 0.33465 0.0
C1001 C 0.9036 0.17955 0.33748 0.0
C1002 C 0.89838 0.17456 0.32325 0.0
C1003 C 0.90111 0.17277 0.33187 0.0
C1004 C 0.8982 0.18331 0.3204 0.0
C1005 C 0.90062 0.19012 0.32607 0.0
U1006 U 0.91786 0.1966 0.35295 0.0
O1007 O 0.92435 0.20927 0.35523 0.0
O1008 O 0.91482 0.2043 0.36476 0.0
C1009 C 0.91983 0.21087 0.36239 0.0
C1010 C 0.906 0.19549 0.34056 0.0
C1011 C 0.9158 0.21962 0.363 0.0
C1012 C 0.90673 0.23125 0.357 0.0
C1013 C 0.91043 0.22289 0.3563 0.0
C1014 C 0.91363 0.23314 0.37115 0.0
C1015 C 0.9083 0.23651 0.36443 0.0
C1016 C 0.91734 0.22479 0.37043 0.0
C1017 C 0.93462 0.17905 0.36142 0.0
C1018 C 0.93932 0.16734 0.37112 0.0
C1019 C 0.95013 0.17706 0.36481 0.0
C1020 C 0.94342 0.18168 0.36054 0.0
C1021 C 0.94817 0.1697 0.37 0.0
C1022 C 0.93266 0.17194 0.36689 0.0
C1023 C 0.92757 0.18268 0.35581 0.0
O1024 O 0.90423 0.19429 0.3489 0.0
O1025 O 0.91389 0.19867 0.33921 0.0
O1026 O 0.92967 0.18881 0.35015 0.0
O1027 O 0.91989 0.18394 0.35951 0.0
H1028 H 0.90578 0.17795 0.34404 0.0
H1029 H 0.90147 0.16609 0.33422 0.0
H1030 H 0.89611 0.1849 0.31381 0.0
H1031 H 0.90039 0.19681 0.32374 0.0
H1032 H 0.90255 0.23357 0.35176 0.0
H1033 H 0.9091 0.21897 0.35054 0.0
H1034 H 0.91504 0.23702 0.37692 0.0
H1035 H 0.92147 0.22238 0.37568 0.0
H1036 H 0.93753 0.16162 0.3749 0.0
H1037 H 0.95685 0.17912 0.36386 0.0
H1038 H 0.94518 0.1871 0.35632 0.0
H1039 H 0.92596 0.16966 0.36756 0.0
C1040 C 0.58313 0.15219 0.08559 0.0
C1041 C 0.5919 0.15278 0.08834 0.0
C1042 C 0.59695 0.14726 0.07424 0.0
C1043 C 0.59873 0.15029 0.08276 0.0
C1044 C 0.58817 0.14674 0.07147 0.0
C1045 C 0.58133 0.14915 0.07711 0.0
U1046 U 0.57426 0.1677 0.10279 0.0
O1047 O 0.56132 0.1738 0.10459 0.0
O1048 O 0.56667 0.16529 0.11484 0.0
C1049 C 0.55987 0.16978 0.11206 0.0
C1050 C 0.57589 0.15494 0.0914 0.0
C1051 C 0.55128 0.16542 0.11292 0.0
C1052 C 0.53978 0.15603 0.10715 0.0
C1053 C 0.54806 0.1599 0.10632 0.0
C1054 C 0.5379 0.16299 0.12128 0.0
C1055 C 0.53456 0.15756 0.11462 0.0
C1056 C 0.54617 0.16689 0.12042 0.0
C1057 C 0.59097 0.18611 0.10927 0.0
C1058 C 0.5956 0.19332 0.12271 0.0
C1059 C 0.59979 0.19935 0.10866 0.0
C1060 C 0.59519 0.19267 0.10444 0.0
C1061 C 0.60029 0.19962 0.11786 0.0
C1062 C 0.59099 0.18662 0.11845 0.0
C1063 C 0.58768 0.17834 0.10453 0.0
O1064 O 0.57728 0.15395 0.09984 0.0
O1065 O 0.57224 0.16249 0.08947 0.0
O1066 O 0.5814 0.1796 0.09879 0.0
O1067 O 0.58682 0.17103 0.109 0.0
H1068 H 0.5935 0.15523 0.09481 0.0
H1069 H 0.60542 0.15092 0.08504 0.0
H1070 H 0.58659 0.1444 0.06496 0.0
H1071 H 0.57462 0.14868 0.07483 0.0
H1072 H 0.53748 0.15178 0.10197 0.0
H1073 H 0.55193 0.15863 0.10051 0.0
H1074 H 0.53405 0.16436 0.12708 0.0
H1075 H 0.54855 0.17112 0.12559 0.0
H1076 H 0.59573 0.1934 0.12979 0.0
H1077 H 0.60341 0.20397 0.10469 0.0
H1078 H 0.59532 0.19237 0.09735 0.0
H1079 H 0.58776 0.18165 0.12235 0.0
C1080 C 0.61923 0.8323 0.83554 0.0
C1081 C 0.61863 0.84107 0.83825 0.0
C1082 C 0.6241 0.84604 0.8241 0.0
C1083 C 0.62108 0.84786 0.83261 0.0
C1084 C 0.62465 0.83725 0.82138 0.0
C1085 C 0.62227 0.83045 0.82707 0.0
U1086 U 0.60378 0.82335 0.85282 0.0
O1087 O 0.59782 0.81038 0.85464 0.0
O1088 O 0.60629 0.81584 0.86488 0.0
C1089 C 0.60185 0.809 0.86213 0.0
C1090 C 0.61654 0.82509 0.84142 0.0
C1091 C 0.60626 0.80045 0.86304 0.0
C1092 C 0.61579 0.78902 0.85739 0.0
C1093 C 0.61191 0.79728 0.85652 0.0
C1094 C 0.6086 0.78707 0.87138 0.0
C1095 C 0.61414 0.78378 0.8648 0.0
C1096 C 0.60469 0.79532 0.87049 0.0
C1097 C 0.58512 0.83978 0.85929 0.0
C1098 C 0.57788 0.84443 0.87272 0.0
C1099 C 0.57167 0.8483 0.85867 0.0
C1100 C 0.57842 0.84379 0.85445 0.0
C1101 C 0.57145 0.84893 0.86785 0.0
C1102 C 0.58466 0.83991 0.86848 0.0
C1103 C 0.59295 0.83662 0.85454 0.0
O1104 O 0.61751 0.82654 0.84985 0.0
O1105 O 0.60902 0.82135 0.8395 0.0
O1106 O 0.59177 0.83032 0.8488 0.0
O1107 O 0.60029 0.83586 0.859 0.0
H1108 H 0.61619 0.8427 0.84471 0.0
H1109 H 0.62045 0.85455 0.83486 0.0
H1110 H 0.62698 0.83564 0.81488 0.0
H1111 H 0.62276 0.82374 0.82483 0.0
H1112 H 0.62015 0.78676 0.85226 0.0
H1113 H 0.61326 0.80116 0.85075 0.0
H1114 H 0.60713 0.7832 0.87714 0.0
H1115 H 0.60035 0.79767 0.8756 0.0
H1116 H 0.57786 0.84467 0.8798 0.0
H1117 H 0.56694 0.85177 0.85468 0.0
H1118 H 0.57866 0.84384 0.84736 0.0
H1119 H 0.58973 0.83684 0.87238 0.0
C1120 C 0.93932 0.15194 0.93575 0.0
C1121 C 0.93055 0.15256 0.93301 0.0
C1122 C 0.92552 0.14694 0.94707 0.0
C1123 C 0.92373 0.15003 0.93859 0.0
C1124 C 0.93431 0.14639 0.94983 0.0
C1125 C 0.94114 0.14884 0.94421 0.0
U1126 U 0.94812 0.16751 0.91857 0.0
O1127 O 0.96102 0.17368 0.91679 0.0
O1128 O 0.95573 0.16513 0.90653 0.0
C1129 C 0.9625 0.16966 0.90932 0.0
C1130 C 0.94656 0.15473 0.92995 0.0
C1131 C 0.97113 0.16537 0.90844 0.0
C1132 C 0.98301 0.15659 0.9144 0.0
C1133 C 0.97468 0.16034 0.91526 0.0
C1134 C 0.98429 0.16268 0.89983 0.0
C1135 C 0.98796 0.15776 0.9067 0.0
C1136 C 0.97597 0.16646 0.90071 0.0
C1137 C 0.93137 0.18584 0.91207 0.0
C1138 C 0.92684 0.19307 0.89861 0.0
C1139 C 0.92254 0.19909 0.91263 0.0
C1140 C 0.92711 0.1924 0.91688 0.0
C1141 C 0.92211 0.19937 0.90343 0.0
C1142 C 0.93141 0.18636 0.90288 0.0
C1143 C 0.93465 0.17808 0.91681 0.0
O1144 O 0.94517 0.15374 0.92151 0.0
O1145 O 0.95016 0.1623 0.93189 0.0
O1146 O 0.94091 0.17936 0.92258 0.0
O1147 O 0.93555 0.17077 0.91235 0.0
H1148 H 0.92894 0.15505 0.92657 0.0
H1149 H 0.91704 0.15067 0.93631 0.0
H1150 H 0.9359 0.144 0.95632 0.0
H1151 H 0.94785 0.14835 0.94647 0.0
H1152 H 0.98557 0.15272 0.91977 0.0
H1153 H 0.97102 0.15935 0.92126 0.0
H1154 H 0.98793 0.16377 0.89384 0.0
H1155 H 0.97334 0.17032 0.89537 0.0
H1156 H 0.92675 0.19316 0.89152 0.0
H1157 H 0.9189 0.20371 0.91658 0.0
H1158 H 0.92693 0.1921 0.92396 0.0
H1159 H 0.93467 0.1814 0.899 0.0
C1160 C 0.61812 0.1887 0.6866 0.0
C1161 C 0.61145 0.18318 0.6897 0.0
C1162 C 0.62215 0.17446 0.69777 0.0
C1163 C 0.61343 0.17619 0.69526 0.0
C1164 C 0.62881 0.18009 0.69473 0.0
C1165 C 0.62681 0.18713 0.6892 0.0
U1166 U 0.60374 0.19726 0.66845 0.0
O1167 O 0.59816 0.21026 0.66575 0.0
O1168 O 0.60682 0.20407 0.65611 0.0
C1169 C 0.60245 0.21115 0.65834 0.0
C1170 C 0.6161 0.19575 0.6803 0.0
C1171 C 0.60712 0.21951 0.65718 0.0
C1172 C 0.61801 0.23014 0.66186 0.0
C1173 C 0.61374 0.2221 0.66299 0.0
C1174 C 0.60912 0.23307 0.64905 0.0
C1175 C 0.61576 0.23574 0.65487 0.0
C1176 C 0.60486 0.22503 0.6502 0.0
C1177 C 0.585 0.1808 0.66224 0.0
C1178 C 0.57814 0.17577 0.64875 0.0
C1179 C 0.57171 0.17202 0.66275 0.0
C1180 C 0.57829 0.17674 0.66702 0.0
C1181 C 0.5717 0.17124 0.65357 0.0
C1182 C 0.58475 0.1805 0.65305 0.0
C1183 C 0.59269 0.18414 0.66708 0.0
O1184 O 0.61727 0.19367 0.67203 0.0
O1185 O 0.60872 0.19999 0.68169 0.0
O1186 O 0.59142 0.19078 0.6724 0.0
O1187 O 0.60018 0.18452 0.66283 0.0
H1188 H 0.6047 0.18422 0.68775 0.0
H1189 H 0.6081 0.17213 0.69758 0.0
H1190 H 0.6356 0.17891 0.69643 0.0
H1191 H 0.63206 0.19126 0.68681 0.0
H1192 H 0.62299 0.23202 0.66655 0.0
H1193 H 0.61556 0.21794 0.66844 0.0
H1194 H 0.60728 0.23714 0.64355 0.0
H1195 H 0.59977 0.22313 0.64564 0.0
H1196 H 0.57826 0.17542 0.64167 0.0
H1197 H 0.56697 0.16854 0.6667 0.0
H1198 H 0.57839 0.17682 0.67411 0.0
H1199 H 0.58984 0.18359 0.6492 0.0
C1200 C 0.58299 0.86851 0.43528 0.0
C1201 C 0.59175 0.86789 0.43248 0.0
C1202 C 0.59688 0.8734 0.44656 0.0
C1203 C 0.59861 0.87036 0.43804 0.0
C1204 C 0.58811 0.87395 0.44937 0.0
C1205 C 0.58123 0.87156 0.44377 0.0
U1206 U 0.5739 0.85304 0.41813 0.0
O1207 O 0.5609 0.84706 0.41641 0.0
O1208 O 0.56628 0.85551 0.40612 0.0
C1209 C 0.55945 0.85107 0.40893 0.0
C1210 C 0.5757 0.8658 0.42949 0.0
C1211 C 0.55088 0.85548 0.40808 0.0
C1212 C 0.53946 0.86497 0.41384 0.0
C1213 C 0.54774 0.86108 0.41465 0.0
C1214 C 0.53744 0.85787 0.39982 0.0
C1215 C 0.53418 0.86337 0.40644 0.0
C1216 C 0.54571 0.85395 0.40065 0.0
C1217 C 0.59037 0.83446 0.41156 0.0
C1218 C 0.59495 0.82725 0.3981 0.0
C1219 C 0.59901 0.8211 0.41212 0.0
C1220 C 0.59448 0.82782 0.41637 0.0
C1221 C 0.59955 0.82087 0.40293 0.0
C1222 C 0.59042 0.83399 0.40237 0.0
C1223 C 0.58721 0.84227 0.41632 0.0
O1224 O 0.57707 0.86677 0.42105 0.0
O1225 O 0.572 0.85829 0.43146 0.0
O1226 O 0.58095 0.84108 0.4221 0.0
O1227 O 0.5864 0.84959 0.41186 0.0
H1228 H 0.59331 0.86544 0.42601 0.0
H1229 H 0.60529 0.86971 0.43572 0.0
H1230 H 0.58656 0.8763 0.45588 0.0
H1231 H 0.57454 0.87206 0.44608 0.0
H1232 H 0.53723 0.86929 0.41901 0.0
H1233 H 0.55166 0.8624 0.42041 0.0
H1234 H 0.53354 0.85644 0.39407 0.0
H1235 H 0.54803 0.84965 0.39551 0.0
H1236 H 0.59512 0.82721 0.39101 0.0
H1237 H 0.60255 0.81641 0.41609 0.0
H1238 H 0.5946 0.82807 0.42346 0.0
H1239 H 0.58727 0.83902 0.39848 0.0
C1240 C 0.9032 0.8321 0.18634 0.0
C1241 C 0.90316 0.84083 0.18345 0.0
C1242 C 0.89826 0.84579 0.19782 0.0
C1243 C 0.90066 0.84759 0.18911 0.0
C1244 C 0.8984 0.83705 0.20072 0.0
C1245 C 0.90081 0.83027 0.19502 0.0
U1246 U 0.91782 0.82371 0.16809 0.0
O1247 O 0.92423 0.811 0.16585 0.0
O1248 O 0.91478 0.81603 0.15627 0.0
C1249 C 0.91974 0.80942 0.15867 0.0
C1250 C 0.90588 0.82492 0.18041 0.0
C1251 C 0.91568 0.80069 0.15802 0.0
C1252 C 0.90663 0.78904 0.16401 0.0
C1253 C 0.91033 0.7974 0.16472 0.0
C1254 C 0.91348 0.7872 0.14982 0.0
C1255 C 0.90818 0.78381 0.15656 0.0
C1256 C 0.9172 0.79555 0.15056 0.0
C1257 C 0.93481 0.84106 0.1597 0.0
C1258 C 0.9397 0.85265 0.14994 0.0
C1259 C 0.95037 0.84294 0.15649 0.0
C1260 C 0.94358 0.83839 0.16071 0.0
C1261 C 0.94852 0.85027 0.15122 0.0
C1262 C 0.93295 0.84812 0.15414 0.0
C1263 C 0.92768 0.83754 0.16527 0.0
O1264 O 0.90419 0.82614 0.17206 0.0
O1265 O 0.91374 0.82167 0.18181 0.0
O1266 O 0.92967 0.8314 0.17097 0.0
O1267 O 0.92 0.83635 0.16153 0.0
H1268 H 0.90509 0.84246 0.17683 0.0
H1269 H 0.90077 0.85426 0.18671 0.0
H1270 H 0.89656 0.83545 0.20738 0.0
H1271 H 0.90083 0.82359 0.1974 0.0
H1272 H 0.90247 0.78671 0.16925 0.0
H1273 H 0.90902 0.8013 0.17051 0.0
H1274 H 0.91487 0.78334 0.14404 0.0
H1275 H 0.92131 0.79798 0.14531 0.0
H1276 H 0.93799 0.85835 0.1461 0.0
H1277 H 0.95707 0.84086 0.15756 0.0
H1278 H 0.94526 0.83301 0.16501 0.0
H1279 H 0.92628 0.85043 0.15335 0.0
C1280 C 0.58564 0.93828 0.86735 0.0
C1281 C 0.58835 0.92961 0.86595 0.0
C1282 C 0.57436 0.92413 0.87142 0.0
C1283 C 0.58281 0.92263 0.86801 0.0
C1284 C 0.57168 0.93284 0.87285 0.0
C1285 C 0.57727 0.93984 0.87083 0.0
U1286 U 0.6038 0.94699 0.85308 0.0
O1287 O 0.60612 0.95981 0.84691 0.0
O1288 O 0.61572 0.9545 0.85618 0.0
C1289 C 0.61335 0.96123 0.85138 0.0
C1290 C 0.59145 0.94563 0.86496 0.0
C1291 C 0.61408 0.96984 0.85566 0.0
C1292 C 0.60884 0.98072 0.86602 0.0
C1293 C 0.60792 0.97259 0.8619 0.0
C1294 C 0.62208 0.98347 0.85772 0.0
C1295 C 0.61596 0.98627 0.86403 0.0
C1296 C 0.62114 0.97534 0.85359 0.0
C1297 C 0.61208 0.92956 0.83605 0.0
C1298 C 0.62195 0.91794 0.83139 0.0
C1299 C 0.615 0.92713 0.82053 0.0
C1300 C 0.61083 0.93186 0.82722 0.0
C1301 C 0.62045 0.91996 0.82253 0.0
C1302 C 0.61782 0.92266 0.83804 0.0
C1303 C 0.60654 0.93321 0.84313 0.0
O1304 O 0.59981 0.94443 0.86667 0.0
O1305 O 0.59007 0.94903 0.85717 0.0
O1306 O 0.60095 0.93945 0.84112 0.0
O1307 O 0.61025 0.93432 0.85082 0.0
H1308 H 0.59476 0.92823 0.86322 0.0
H1309 H 0.5852 0.91604 0.86697 0.0
H1310 H 0.56519 0.93426 0.87535 0.0
H1311 H 0.57503 0.94649 0.8719 0.0
H1312 H 0.60392 0.9827 0.87074 0.0
H1313 H 0.60241 0.96843 0.86358 0.0
H1314 H 0.62769 0.98749 0.85608 0.0
H1315 H 0.62599 0.97331 0.84882 0.0
H1316 H 0.62594 0.91237 0.83323 0.0
H1317 H 0.61375 0.92894 0.81379 0.0
H1318 H 0.60639 0.93709 0.82544 0.0
H1319 H 0.61879 0.92061 0.84476 0.0
C1320 C 0.83376 0.83567 0.61945 0.0
C1321 C 0.84255 0.83837 0.61882 0.0
C1322 C 0.84753 0.82422 0.62425 0.0
C1323 C 0.84935 0.83272 0.62124 0.0
C1324 C 0.83873 0.82151 0.62484 0.0
C1325 C 0.83191 0.8272 0.62249 0.0
U1326 U 0.825 0.85304 0.60408 0.0
O1327 O 0.81213 0.85484 0.59786 0.0
O1328 O 0.81732 0.86502 0.60656 0.0
C1329 C 0.81059 0.86226 0.60195 0.0
C1330 C 0.82654 0.84152 0.61673 0.0
C1331 C 0.80192 0.86305 0.60618 0.0
C1332 C 0.78999 0.85696 0.6148 0.0
C1333 C 0.79837 0.85618 0.61113 0.0
C1334 C 0.78868 0.87157 0.6088 0.0
C1335 C 0.78501 0.86465 0.61363 0.0
C1336 C 0.79705 0.87076 0.6051 0.0
C1337 C 0.84177 0.85974 0.58582 0.0
C1338 C 0.84662 0.87317 0.57875 0.0
C1339 C 0.85026 0.85914 0.57236 0.0
C1340 C 0.84571 0.85492 0.57907 0.0
C1341 C 0.851 0.86832 0.57224 0.0
C1342 C 0.84206 0.86892 0.58549 0.0
C1343 C 0.83849 0.85494 0.59356 0.0
O1344 O 0.82794 0.84994 0.61783 0.0
O1345 O 0.82294 0.83967 0.60913 0.0
O1346 O 0.83227 0.84915 0.59223 0.0
O1347 O 0.83755 0.85935 0.6009 0.0
H1348 H 0.84417 0.84482 0.61637 0.0
H1349 H 0.85605 0.83496 0.62057 0.0
H1350 H 0.83712 0.81501 0.62716 0.0
H1351 H 0.82519 0.82497 0.623 0.0
H1352 H 0.78742 0.85156 0.6186 0.0
H1353 H 0.80205 0.85019 0.61211 0.0
H1354 H 0.78502 0.87754 0.60772 0.0
H1355 H 0.79968 0.87614 0.6013 0.0
H1356 H 0.84696 0.88025 0.5788 0.0
H1357 H 0.85364 0.85516 0.56756 0.0
H1358 H 0.84564 0.84783 0.57922 0.0
H1359 H 0.83907 0.87282 0.59061 0.0
C1360 C 0.93584 0.08252 0.36879 0.0
C1361 C 0.93308 0.09129 0.36849 0.0
C1362 C 0.94735 0.09616 0.37379 0.0
C1363 C 0.93876 0.09803 0.37102 0.0
C1364 C 0.95012 0.08738 0.37402 0.0
C1365 C 0.9444 0.08062 0.37158 0.0
U1366 U 0.9185 0.07382 0.35326 0.0
O1367 O 0.91667 0.06093 0.3471 0.0
O1368 O 0.90644 0.06624 0.35568 0.0
C1369 C 0.9092 0.05947 0.35115 0.0
C1370 C 0.92994 0.07536 0.36599 0.0
C1371 C 0.90837 0.05088 0.35548 0.0
C1372 C 0.91419 0.03942 0.36487 0.0
C1373 C 0.91496 0.04771 0.36104 0.0
C1374 C 0.90013 0.03742 0.35777 0.0
C1375 C 0.90679 0.03413 0.36323 0.0
C1376 C 0.90093 0.04571 0.35392 0.0
C1377 C 0.91202 0.09052 0.33487 0.0
C1378 C 0.8986 0.09524 0.32763 0.0
C1379 C 0.9127 0.09915 0.32151 0.0
C1380 C 0.91689 0.0946 0.32824 0.0
C1381 C 0.9035 0.09977 0.32125 0.0
C1382 C 0.90282 0.09067 0.33439 0.0
C1383 C 0.91675 0.08725 0.34265 0.0
O1384 O 0.9215 0.0768 0.36701 0.0
O1385 O 0.93185 0.07173 0.35842 0.0
O1386 O 0.92251 0.08098 0.34138 0.0
O1387 O 0.91227 0.08637 0.34996 0.0
H1388 H 0.92656 0.09296 0.36625 0.0
H1389 H 0.93647 0.10472 0.37062 0.0
H1390 H 0.95669 0.08573 0.37615 0.0
H1391 H 0.94668 0.07391 0.37182 0.0
H1392 H 0.91937 0.03716 0.36915 0.0
H1393 H 0.92073 0.05163 0.36239 0.0
H1394 H 0.89439 0.03352 0.35632 0.0
H1395 H 0.89577 0.04805 0.34964 0.0
H1396 H 0.89151 0.09546 0.32757 0.0
H1397 H 0.91672 0.10264 0.31682 0.0
H1398 H 0.924 0.09463 0.32851 0.0
H1399 H 0.89889 0.08757 0.33941 0.0
C1400 C 0.68919 0.18529 0.11884 0.0
C1401 C 0.68041 0.18255 0.11822 0.0
C1402 C 0.67537 0.19662 0.1238 0.0
C1403 C 0.67359 0.18813 0.12072 0.0
C1404 C 0.68416 0.19938 0.12436 0.0
C1405 C 0.691 0.19375 0.12193 0.0
U1406 U 0.69807 0.16812 0.10329 0.0
O1407 O 0.71101 0.16633 0.0972 0.0
O1408 O 0.70564 0.15606 0.10569 0.0
C1409 C 0.71245 0.15884 0.1012 0.0
C1410 C 0.69643 0.17948 0.11608 0.0
C1411 C 0.72104 0.15796 0.10556 0.0
C1412 C 0.7326 0.1637 0.1149 0.0
C1413 C 0.72431 0.16455 0.11105 0.0
C1414 C 0.73439 0.14956 0.10797 0.0
C1415 C 0.73778 0.15621 0.11337 0.0
C1416 C 0.72612 0.15044 0.10409 0.0
C1417 C 0.68136 0.16169 0.08486 0.0
C1418 C 0.67672 0.14829 0.0776 0.0
C1419 C 0.67254 0.16234 0.07161 0.0
C1420 C 0.67714 0.16655 0.0783 0.0
C1421 C 0.67203 0.15315 0.07131 0.0
C1422 C 0.68132 0.15251 0.08433 0.0
C1423 C 0.68464 0.1664 0.09265 0.0
O1424 O 0.69503 0.17104 0.11706 0.0
O1425 O 0.70009 0.18143 0.10854 0.0
O1426 O 0.69093 0.17215 0.0914 0.0
O1427 O 0.68551 0.16192 0.09995 0.0
H1428 H 0.67881 0.17611 0.11573 0.0
H1429 H 0.6669 0.18586 0.12007 0.0
H1430 H 0.68574 0.20587 0.12673 0.0
H1431 H 0.69771 0.19602 0.12243 0.0
H1432 H 0.73492 0.16888 0.11914 0.0
H1433 H 0.72047 0.17038 0.11232 0.0
H1434 H 0.73821 0.14374 0.1066 0.0
H1435 H 0.7237 0.14527 0.09988 0.0
H1436 H 0.67657 0.1412 0.07751 0.0
H1437 H 0.66894 0.16633 0.06699 0.0
H1438 H 0.67702 0.17363 0.07862 0.0
H1439 H 0.68454 0.1486 0.08929 0.0
C1440 C 0.58528 0.08201 0.65311 0.0
C1441 C 0.58057 0.08655 0.65959 0.0
C1442 C 0.57381 0.09581 0.64848 0.0
C1443 C 0.57486 0.09333 0.65729 0.0
C1444 C 0.57854 0.09127 0.64201 0.0
C1445 C 0.5842 0.08441 0.64431 0.0
U1446 U 0.60311 0.07341 0.66812 0.0
O1447 O 0.60559 0.06038 0.6737 0.0
O1448 O 0.61549 0.06652 0.66529 0.0
C1449 C 0.6131 0.05944 0.66957 0.0
C1450 C 0.59158 0.07503 0.65547 0.0
C1451 C 0.61428 0.05109 0.66489 0.0
C1452 C 0.60944 0.04033 0.65421 0.0
C1453 C 0.60832 0.04838 0.65844 0.0
C1454 C 0.62254 0.03762 0.66275 0.0
C1455 C 0.61657 0.03483 0.6563 0.0
C1456 C 0.6214 0.04567 0.66699 0.0
C1457 C 0.6091 0.08958 0.68709 0.0
C1458 C 0.62262 0.09396 0.69433 0.0
C1459 C 0.60861 0.09835 0.70036 0.0
C1460 C 0.60431 0.09384 0.69367 0.0
C1461 C 0.61783 0.09872 0.70063 0.0
C1462 C 0.6183 0.08944 0.68761 0.0
C1463 C 0.60433 0.08643 0.67929 0.0
O1464 O 0.59989 0.0771 0.65454 0.0
O1465 O 0.58997 0.07079 0.66279 0.0
O1466 O 0.5989 0.07984 0.68036 0.0
O1467 O 0.60873 0.08609 0.67189 0.0
H1468 H 0.58137 0.08493 0.66644 0.0
H1469 H 0.57141 0.09679 0.66244 0.0
H1470 H 0.57785 0.09298 0.63517 0.0
H1471 H 0.5878 0.08103 0.63921 0.0
H1472 H 0.60463 0.03836 0.64938 0.0
H1473 H 0.60277 0.05246 0.65675 0.0
H1474 H 0.62814 0.03363 0.66447 0.0
H1475 H 0.62607 0.04766 0.67194 0.0
H1476 H 0.62972 0.094 0.69441 0.0
H1477 H 0.60468 0.10201 0.70499 0.0
H1478 H 0.59722 0.09408 0.69336 0.0
H1479 H 0.62215 0.08617 0.68264 0.0
C1480 C 0.68912 0.83535 0.40259 0.0
C1481 C 0.68045 0.83806 0.40406 0.0
C1482 C 0.67489 0.82413 0.39857 0.0
C1483 C 0.67343 0.83256 0.40201 0.0
C1484 C 0.6836 0.82145 0.39706 0.0
C1485 C 0.69064 0.82702 0.39905 0.0
U1486 U 0.69837 0.8526 0.41765 0.0
O1487 O 0.71135 0.8544 0.42364 0.0
O1488 O 0.706 0.86458 0.41505 0.0
C1489 C 0.71281 0.86182 0.41954 0.0
C1490 C 0.69654 0.84107 0.40505 0.0
C1491 C 0.7214 0.86265 0.41517 0.0
C1492 C 0.7332 0.85663 0.40632 0.0
C1493 C 0.72489 0.85581 0.41013 0.0
C1494 C 0.73456 0.87122 0.41235 0.0
C1495 C 0.73818 0.86433 0.40743 0.0
C1496 C 0.72627 0.87037 0.4162 0.0
C1497 C 0.6817 0.85927 0.43609 0.0
C1498 C 0.67682 0.8727 0.44316 0.0
C1499 C 0.67292 0.85866 0.44937 0.0
C1500 C 0.67759 0.85444 0.44273 0.0
C1501 C 0.67223 0.86784 0.44953 0.0
C1502 C 0.68149 0.86846 0.43648 0.0
C1503 C 0.685 0.8545 0.42834 0.0
O1504 O 0.69523 0.8495 0.40395 0.0
O1505 O 0.70028 0.83921 0.41258 0.0
O1506 O 0.69128 0.84876 0.42963 0.0
O1507 O 0.68586 0.85891 0.421 0.0
H1508 H 0.67908 0.84444 0.40684 0.0
H1509 H 0.66683 0.83494 0.40312 0.0
H1510 H 0.68501 0.81499 0.39452 0.0
H1511 H 0.69729 0.82477 0.39793 0.0
H1512 H 0.73572 0.85125 0.40244 0.0
H1513 H 0.72122 0.84982 0.40919 0.0
H1514 H 0.73822 0.8772 0.4134 0.0
H1515 H 0.72368 0.87573 0.42007 0.0
H1516 H 0.67654 0.87978 0.44315 0.0
H1517 H 0.6694 0.85467 0.45405 0.0
H1518 H 0.6776 0.84735 0.44252 0.0
H1519 H 0.68462 0.87236 0.43145 0.0
C1520 C 0.93605 0.93807 0.15341 0.0
C1521 C 0.93333 0.92938 0.15462 0.0
C1522 C 0.94745 0.92399 0.1494 0.0
C1523 C 0.93892 0.92243 0.15259 0.0
C1524 C 0.95015 0.93272 0.14816 0.0
C1525 C 0.94449 0.93969 0.15015 0.0
U1526 U 0.91767 0.94669 0.16749 0.0
O1527 O 0.91529 0.95948 0.17371 0.0
O1528 O 0.90582 0.95425 0.16427 0.0
C1529 C 0.90814 0.96095 0.16914 0.0
C1530 C 0.93019 0.94539 0.15578 0.0
C1531 C 0.90753 0.96958 0.16488 0.0
C1532 C 0.91281 0.98032 0.1544 0.0
C1533 C 0.91363 0.97218 0.15853 0.0
C1534 C 0.89979 0.98337 0.16294 0.0
C1535 C 0.90584 0.98601 0.15651 0.0
C1536 C 0.90062 0.97523 0.16707 0.0
C1537 C 0.90916 0.92917 0.18432 0.0
C1538 C 0.89975 0.91719 0.189 0.0
C1539 C 0.90566 0.92719 0.19977 0.0
C1540 C 0.90986 0.93189 0.19309 0.0
C1541 C 0.90072 0.91964 0.19783 0.0
C1542 C 0.90392 0.92188 0.18235 0.0
C1543 C 0.91478 0.93286 0.17732 0.0
O1544 O 0.92185 0.94419 0.15395 0.0
O1545 O 0.93145 0.94873 0.16361 0.0
O1546 O 0.92036 0.93907 0.17943 0.0
O1547 O 0.91114 0.93402 0.1696 0.0
H1548 H 0.92686 0.92795 0.15718 0.0
H1549 H 0.93653 0.91582 0.15348 0.0
H1550 H 0.95669 0.93419 0.14583 0.0
H1551 H 0.94675 0.94635 0.14923 0.0
H1552 H 0.91768 0.98217 0.14959 0.0
H1553 H 0.91901 0.9679 0.15675 0.0
H1554 H 0.8943 0.98752 0.16467 0.0
H1555 H 0.89582 0.97332 0.17193 0.0
H1556 H 0.89618 0.91134 0.18721 0.0
H1557 H 0.90648 0.92932 0.20648 0.0
H1558 H 0.9139 0.93744 0.19485 0.0
H1559 H 0.90339 0.91953 0.17568 0.0
C1560 C 0.83336 0.18512 0.90239 0.0
C1561 C 0.84213 0.18238 0.90299 0.0
C1562 C 0.84714 0.19644 0.89737 0.0
C1563 C 0.84894 0.18796 0.90046 0.0
C1564 C 0.83836 0.1992 0.89683 0.0
C1565 C 0.83153 0.19357 0.89929 0.0
U1566 U 0.82457 0.16798 0.918 0.0
O1567 O 0.81166 0.16618 0.92416 0.0
O1568 O 0.81701 0.1559 0.91567 0.0
C1569 C 0.81021 0.15868 0.92018 0.0
C1570 C 0.82613 0.17931 0.90519 0.0
C1571 C 0.80161 0.15778 0.91586 0.0
C1572 C 0.79009 0.16343 0.90643 0.0
C1573 C 0.79839 0.1643 0.91026 0.0
C1574 C 0.7882 0.14943 0.91361 0.0
C1575 C 0.78486 0.156 0.9081 0.0
C1576 C 0.79649 0.15032 0.91747 0.0
C1577 C 0.8413 0.16158 0.93638 0.0
C1578 C 0.84582 0.14814 0.94366 0.0
C1579 C 0.85013 0.16217 0.94962 0.0
C1580 C 0.84557 0.1664 0.94292 0.0
C1581 C 0.85055 0.15298 0.94994 0.0
C1582 C 0.84125 0.1524 0.93694 0.0
C1583 C 0.83803 0.1663 0.9286 0.0
O1584 O 0.82753 0.17087 0.90422 0.0
O1585 O 0.8225 0.18127 0.91274 0.0
O1586 O 0.83174 0.17204 0.92986 0.0
O1587 O 0.83715 0.16181 0.9213 0.0
H1588 H 0.84375 0.17594 0.90548 0.0
H1589 H 0.85564 0.18569 0.90109 0.0
H1590 H 0.83676 0.20568 0.89445 0.0
H1591 H 0.82481 0.19583 0.89881 0.0
H1592 H 0.7878 0.16855 0.9021 0.0
H1593 H 0.80227 0.17007 0.90888 0.0
H1594 H 0.78434 0.14367 0.91508 0.0
H1595 H 0.79887 0.14522 0.92178 0.0
H1596 H 0.84589 0.14106 0.94378 0.0
H1597 H 0.85378 0.16614 0.95423 0.0
H1598 H 0.84576 0.17349 0.9426 0.0
H1599 H 0.83798 0.1485 0.93199 0.0
C1600 C 0.86755 0.5834 0.93915 0.0
C1601 C 0.86097 0.58036 0.93348 0.0
C1602 C 0.87183 0.57241 0.92485 0.0
C1603 C 0.86308 0.57489 0.92646 0.0
C1604 C 0.87838 0.57538 0.93063 0.0
C1605 C 0.87625 0.58082 0.93771 0.0
U1606 U 0.853 0.60145 0.94769 0.0
O1607 O 0.84717 0.60403 0.96059 0.0
O1608 O 0.85602 0.6137 0.95472 0.0
C1609 C 0.85149 0.6114 0.96167 0.0
C1610 C 0.8654 0.58962 0.94624 0.0
C1611 C 0.85595 0.61243 0.97018 0.0
C1612 C 0.86518 0.60674 0.98184 0.0
C1613 C 0.86136 0.60582 0.97355 0.0
C1614 C 0.85841 0.62099 0.9834 0.0
C1615 C 0.86369 0.6143 0.98691 0.0
C1616 C 0.85457 0.62004 0.97512 0.0
C1617 C 0.83445 0.60778 0.93108 0.0
C1618 C 0.82751 0.62134 0.92639 0.0
C1619 C 0.82133 0.60741 0.92205 0.0
C1620 C 0.82788 0.60306 0.92674 0.0
C1621 C 0.82121 0.6166 0.92158 0.0
C1622 C 0.83409 0.61697 0.93109 0.0
C1623 C 0.84212 0.60292 0.93443 0.0
O1624 O 0.86659 0.59791 0.94426 0.0
O1625 O 0.85796 0.58819 0.95035 0.0
O1626 O 0.8408 0.59752 0.94099 0.0
O1627 O 0.84959 0.60719 0.93496 0.0
H1628 H 0.85421 0.58231 0.93442 0.0
H1629 H 0.85782 0.57262 0.92227 0.0
H1630 H 0.88519 0.5737 0.92955 0.0
H1631 H 0.88143 0.58316 0.94196 0.0
H1632 H 0.86933 0.60152 0.98426 0.0
H1633 H 0.86255 0.59991 0.96981 0.0
H1634 H 0.85708 0.62687 0.98713 0.0
H1635 H 0.85041 0.62522 0.97262 0.0
H1636 H 0.82755 0.62842 0.92628 0.0
H1637 H 0.8167 0.60352 0.91835 0.0
H1638 H 0.82807 0.59597 0.92659 0.0
H1639 H 0.83907 0.62077 0.93441 0.0
C1640 C 0.36948 0.93599 0.08253 0.0
C1641 C 0.36914 0.93319 0.09129 0.0
C1642 C 0.37448 0.94737 0.09628 0.0
C1643 C 0.37166 0.93879 0.09807 0.0
C1644 C 0.37475 0.95019 0.08751 0.0
C1645 C 0.37231 0.94454 0.0807 0.0
U1646 U 0.3539 0.91875 0.0738 0.0
O1647 O 0.3477 0.91691 0.06094 0.0
O1648 O 0.35628 0.90669 0.06625 0.0
C1649 C 0.35171 0.90943 0.05949 0.0
C1650 C 0.36668 0.93015 0.07533 0.0
C1651 C 0.35597 0.90849 0.05086 0.0
C1652 C 0.36506 0.91421 0.03911 0.0
C1653 C 0.36133 0.91512 0.04744 0.0
C1654 C 0.35828 0.89996 0.03759 0.0
C1655 C 0.36354 0.90665 0.03405 0.0
C1656 C 0.35452 0.9009 0.04591 0.0
C1657 C 0.33557 0.91225 0.09056 0.0
C1658 C 0.32834 0.89877 0.09503 0.0
C1659 C 0.32235 0.91276 0.09945 0.0
C1660 C 0.32903 0.91704 0.09488 0.0
C1661 C 0.32206 0.90356 0.09981 0.0
C1662 C 0.33505 0.90307 0.09046 0.0
C1663 C 0.34333 0.91702 0.08728 0.0
O1664 O 0.36769 0.92172 0.07672 0.0
O1665 O 0.35909 0.93207 0.07172 0.0
O1666 O 0.34202 0.92276 0.08101 0.0
O1667 O 0.35066 0.91257 0.08638 0.0
H1668 H 0.36686 0.92667 0.09291 0.0
H1669 H 0.37124 0.93646 0.10476 0.0
H1670 H 0.37692 0.95675 0.08591 0.0
H1671 H 0.37258 0.94686 0.07401 0.0
H1672 H 0.3692 0.91942 0.03666 0.0
H1673 H 0.36259 0.92101 0.05119 0.0
H1674 H 0.35692 0.89409 0.03386 0.0
H1675 H 0.3504 0.89571 0.04844 0.0
H1676 H 0.32825 0.89168 0.09506 0.0
H1677 H 0.31774 0.91669 0.10313 0.0
H1678 H 0.32933 0.92412 0.09511 0.0
H1679 H 0.34 0.89921 0.08715 0.0
C1680 C 0.83665 0.61854 0.83269 0.0
C1681 C 0.83932 0.61772 0.84146 0.0
C1682 C 0.82525 0.62338 0.84649 0.0
C1683 C 0.83371 0.62016 0.84827 0.0
C1684 C 0.82257 0.62413 0.8377 0.0
C1685 C 0.82823 0.62176 0.83087 0.0
U1686 U 0.85383 0.60304 0.82367 0.0
O1687 O 0.85565 0.5972 0.81062 0.0
O1688 O 0.86598 0.60545 0.81625 0.0
C1689 C 0.86322 0.60112 0.80934 0.0
C1690 C 0.8425 0.61585 0.82545 0.0
C1691 C 0.86424 0.60566 0.80089 0.0
C1692 C 0.8595 0.61652 0.79027 0.0
C1693 C 0.85842 0.61229 0.79833 0.0
C1694 C 0.87225 0.60757 0.78724 0.0
C1695 C 0.86645 0.61424 0.78462 0.0
C1696 C 0.87115 0.60334 0.7953 0.0
C1697 C 0.86022 0.58435 0.84002 0.0
C1698 C 0.8737 0.57707 0.84452 0.0
C1699 C 0.85964 0.57094 0.84857 0.0
C1700 C 0.8554 0.57769 0.8441 0.0
C1701 C 0.86885 0.57068 0.84908 0.0
C1702 C 0.86943 0.58386 0.84004 0.0
C1703 C 0.85547 0.59217 0.8369 0.0
O1704 O 0.85095 0.61676 0.82691 0.0
O1705 O 0.84053 0.60837 0.82168 0.0
O1706 O 0.84974 0.59103 0.83057 0.0
O1707 O 0.85995 0.5995 0.8362 0.0
H1708 H 0.84574 0.61513 0.84306 0.0
H1709 H 0.83593 0.61936 0.85496 0.0
H1710 H 0.81611 0.62661 0.83612 0.0
H1711 H 0.82602 0.62241 0.82416 0.0
H1712 H 0.85482 0.62151 0.78842 0.0
H1713 H 0.85303 0.61416 0.80255 0.0
H1714 H 0.87773 0.60571 0.78313 0.0
H1715 H 0.87573 0.59825 0.79718 0.0
H1716 H 0.8808 0.57701 0.84466 0.0
H1717 H 0.85566 0.56624 0.85209 0.0
H1718 H 0.8483 0.57797 0.84423 0.0
H1719 H 0.87332 0.58889 0.83692 0.0
C1720 C 0.15306 0.08479 0.58253 0.0
C1721 C 0.15299 0.08768 0.59127 0.0
C1722 C 0.14799 0.07335 0.5962 0.0
C1723 C 0.15044 0.08204 0.59802 0.0
C1724 C 0.14811 0.07046 0.58745 0.0
C1725 C 0.15058 0.07614 0.58069 0.0
U1726 U 0.16866 0.10205 0.57373 0.0
O1727 O 0.17475 0.10386 0.56081 0.0
O1728 O 0.16623 0.11411 0.56619 0.0
C1729 C 0.17074 0.11135 0.55939 0.0
C1730 C 0.15587 0.09067 0.57535 0.0
C1731 C 0.16642 0.11229 0.5508 0.0
C1732 C 0.1572 0.10658 0.53914 0.0
C1733 C 0.16099 0.10568 0.54744 0.0
C1734 C 0.16407 0.12077 0.53751 0.0
C1735 C 0.15874 0.11411 0.53403 0.0
C1736 C 0.16788 0.11985 0.5458 0.0
C1737 C 0.18716 0.10856 0.59028 0.0
C1738 C 0.19438 0.12203 0.59482 0.0
C1739 C 0.20057 0.10802 0.59887 0.0
C1740 C 0.19384 0.10376 0.59438 0.0
C1741 C 0.20079 0.11721 0.5994 0.0
C1742 C 0.18762 0.11774 0.59031 0.0
C1743 C 0.17936 0.10379 0.5871 0.0
O1744 O 0.15488 0.0991 0.57677 0.0
O1745 O 0.16343 0.08873 0.57169 0.0
O1746 O 0.18059 0.09803 0.58082 0.0
O1747 O 0.17202 0.10823 0.58627 0.0
H1748 H 0.15498 0.09428 0.59292 0.0
H1749 H 0.15056 0.08443 0.60469 0.0
H1750 H 0.14623 0.06382 0.58584 0.0
H1751 H 0.15061 0.07376 0.574 0.0
H1752 H 0.15301 0.10138 0.53674 0.0
H1753 H 0.15972 0.09982 0.55122 0.0
H1754 H 0.16544 0.12662 0.53375 0.0
H1755 H 0.17206 0.12502 0.54828 0.0
H1756 H 0.19441 0.12911 0.59498 0.0
H1757 H 0.20529 0.10407 0.6024 0.0
H1758 H 0.19359 0.09667 0.59449 0.0
H1759 H 0.18257 0.12162 0.58718 0.0
C1760 C 0.18595 0.90255 0.83263 0.0
C1761 C 0.18331 0.90415 0.84129 0.0
C1762 C 0.19727 0.8986 0.84679 0.0
C1763 C 0.18887 0.90214 0.84828 0.0
C1764 C 0.19987 0.89696 0.83809 0.0
C1765 C 0.19425 0.89891 0.83108 0.0
U1766 U 0.16872 0.91761 0.8233 0.0
O1767 O 0.16688 0.92337 0.81022 0.0
O1768 O 0.15662 0.91504 0.81585 0.0
C1769 C 0.15935 0.91937 0.80894 0.0
C1770 C 0.18019 0.90496 0.82523 0.0
C1771 C 0.15839 0.91481 0.80049 0.0
C1772 C 0.16337 0.90415 0.78977 0.0
C1773 C 0.1644 0.9084 0.79783 0.0
C1774 C 0.15027 0.91265 0.78694 0.0
C1775 C 0.15628 0.90621 0.78421 0.0
C1776 C 0.15132 0.91689 0.795 0.0
C1777 C 0.16215 0.9363 0.83964 0.0
C1778 C 0.14867 0.94343 0.84436 0.0
C1779 C 0.16272 0.94972 0.84819 0.0
C1780 C 0.16697 0.94301 0.84365 0.0
C1781 C 0.15352 0.94987 0.84885 0.0
C1782 C 0.15295 0.93669 0.83981 0.0
C1783 C 0.16694 0.92851 0.83649 0.0
O1784 O 0.17174 0.90394 0.82661 0.0
O1785 O 0.18208 0.91242 0.82138 0.0
O1786 O 0.17266 0.92969 0.83016 0.0
O1787 O 0.16252 0.92115 0.83579 0.0
H1788 H 0.17696 0.907 0.84267 0.0
H1789 H 0.18655 0.90335 0.85487 0.0
H1790 H 0.20631 0.89435 0.83667 0.0
H1791 H 0.19644 0.89769 0.82445 0.0
H1792 H 0.16821 0.89934 0.78784 0.0
H1793 H 0.16991 0.9067 0.80198 0.0
H1794 H 0.14468 0.91433 0.78291 0.0
H1795 H 0.14659 0.92181 0.79696 0.0
H1796 H 0.14158 0.94341 0.84462 0.0
H1797 H 0.16671 0.95445 0.85165 0.0
H1798 H 0.17407 0.94281 0.84367 0.0
H1799 H 0.14906 0.93161 0.83675 0.0
C1800 C 0.65273 0.4345 0.4384 0.0
C1801 C 0.6536 0.43182 0.42964 0.0
C1802 C 0.64794 0.44586 0.42458 0.0
C1803 C 0.65118 0.43742 0.42281 0.0
C1804 C 0.64714 0.44854 0.43335 0.0
C1805 C 0.64948 0.4429 0.4402 0.0
U1806 U 0.66824 0.41736 0.44744 0.0
O1807 O 0.67411 0.41557 0.46048 0.0
O1808 O 0.66584 0.40526 0.45487 0.0
C1809 C 0.67018 0.40802 0.46177 0.0
C1810 C 0.65541 0.42867 0.44566 0.0
C1811 C 0.66564 0.40703 0.47024 0.0
C1812 C 0.65478 0.4118 0.48086 0.0
C1813 C 0.65901 0.41285 0.47279 0.0
C1814 C 0.66372 0.39906 0.4839 0.0
C1815 C 0.65705 0.40487 0.48652 0.0
C1816 C 0.66795 0.40013 0.47583 0.0
C1817 C 0.68694 0.41095 0.43105 0.0
C1818 C 0.69419 0.39751 0.42648 0.0
C1819 C 0.70036 0.41154 0.42248 0.0
C1820 C 0.69361 0.41578 0.42697 0.0
C1821 C 0.7006 0.40235 0.42193 0.0
C1822 C 0.68741 0.40177 0.43099 0.0
C1823 C 0.67911 0.4157 0.43419 0.0
O1824 O 0.6545 0.42024 0.44421 0.0
O1825 O 0.66291 0.43064 0.44942 0.0
O1826 O 0.68027 0.42142 0.44051 0.0
O1827 O 0.67177 0.41124 0.43491 0.0
H1828 H 0.65621 0.42542 0.42806 0.0
H1829 H 0.65202 0.4352 0.41613 0.0
H1830 H 0.64464 0.45499 0.43493 0.0
H1831 H 0.6488 0.44511 0.4469 0.0
H1832 H 0.64978 0.41648 0.4827 0.0
H1833 H 0.65714 0.41823 0.46856 0.0
H1834 H 0.66558 0.3936 0.48802 0.0
H1835 H 0.67304 0.39555 0.47395 0.0
H1836 H 0.69424 0.39043 0.4263 0.0
H1837 H 0.70507 0.41551 0.41896 0.0
H1838 H 0.69335 0.42286 0.42687 0.0
H1839 H 0.68237 0.39788 0.4341 0.0
C1840 C 0.8366 0.40266 0.68822 0.0
C1841 C 0.83929 0.40423 0.67957 0.0
C1842 C 0.82535 0.39873 0.67399 0.0
C1843 C 0.83377 0.40222 0.67255 0.0
C1844 C 0.82269 0.39712 0.68268 0.0
C1845 C 0.82827 0.39907 0.68972 0.0
U1846 U 0.85378 0.41773 0.69762 0.0
O1847 O 0.85557 0.42349 0.71071 0.0
O1848 O 0.86585 0.41516 0.7051 0.0
C1849 C 0.8631 0.41949 0.71201 0.0
C1850 C 0.84232 0.40507 0.69565 0.0
C1851 C 0.86404 0.41492 0.72046 0.0
C1852 C 0.85916 0.40409 0.73104 0.0
C1853 C 0.85814 0.40835 0.72298 0.0
C1854 C 0.87199 0.4129 0.73412 0.0
C1855 C 0.86611 0.40628 0.73672 0.0
C1856 C 0.87095 0.41716 0.72607 0.0
C1857 C 0.86039 0.43638 0.68124 0.0
C1858 C 0.87387 0.44346 0.67645 0.0
C1859 C 0.85981 0.44976 0.67265 0.0
C1860 C 0.85557 0.44308 0.67724 0.0
C1861 C 0.86901 0.44989 0.67195 0.0
C1862 C 0.8696 0.43675 0.68104 0.0
C1863 C 0.85561 0.4286 0.68442 0.0
O1864 O 0.85078 0.40405 0.69431 0.0
O1865 O 0.84041 0.41253 0.69948 0.0
O1866 O 0.84987 0.4298 0.69073 0.0
O1867 O 0.86002 0.42124 0.68515 0.0
H1868 H 0.84567 0.40705 0.67823 0.0
H1869 H 0.83614 0.40341 0.66597 0.0
H1870 H 0.81623 0.39454 0.68407 0.0
H1871 H 0.82603 0.39787 0.69634 0.0
H1872 H 0.85442 0.39913 0.73286 0.0
H1873 H 0.85275 0.40654 0.71874 0.0
H1874 H 0.87747 0.4147 0.73826 0.0
H1875 H 0.87559 0.4222 0.72422 0.0
H1876 H 0.88096 0.44342 0.67616 0.0
H1877 H 0.85582 0.45449 0.66918 0.0
H1878 H 0.84847 0.4429 0.67724 0.0
H1879 H 0.87349 0.43167 0.6841 0.0
C1880 C 0.68578 0.6176 0.18803 0.0
C1881 C 0.68311 0.61606 0.17937 0.0
C1882 C 0.69705 0.62162 0.17385 0.0
C1883 C 0.68865 0.6181 0.17237 0.0
C1884 C 0.69968 0.6232 0.18255 0.0
C1885 C 0.69409 0.62121 0.18957 0.0
U1886 U 0.66859 0.60251 0.19742 0.0
O1887 O 0.66677 0.59679 0.21051 0.0
O1888 O 0.6565 0.60511 0.20488 0.0
C1889 C 0.65926 0.60081 0.21181 0.0
C1890 C 0.68003 0.61518 0.19543 0.0
C1891 C 0.65831 0.60541 0.22025 0.0
C1892 C 0.66364 0.61563 0.23122 0.0
C1893 C 0.66463 0.61141 0.22314 0.0
C1894 C 0.64995 0.60796 0.23358 0.0
C1895 C 0.65627 0.61397 0.23656 0.0
C1896 C 0.65097 0.60373 0.22551 0.0
C1897 C 0.66206 0.58376 0.1811 0.0
C1898 C 0.64861 0.57662 0.17631 0.0
C1899 C 0.66269 0.57036 0.17254 0.0
C1900 C 0.6669 0.57706 0.17711 0.0
C1901 C 0.65349 0.57019 0.17182 0.0
C1902 C 0.65285 0.58336 0.18089 0.0
C1903 C 0.66681 0.59157 0.18426 0.0
O1904 O 0.67157 0.61618 0.19406 0.0
O1905 O 0.68195 0.60773 0.19929 0.0
O1906 O 0.67254 0.59041 0.19059 0.0
O1907 O 0.66238 0.59892 0.18495 0.0
H1908 H 0.67675 0.61323 0.17799 0.0
H1909 H 0.6863 0.61694 0.16578 0.0
H1910 H 0.70614 0.62579 0.18397 0.0
H1911 H 0.6963 0.62239 0.1962 0.0
H1912 H 0.66871 0.62011 0.23334 0.0
H1913 H 0.67035 0.6128 0.21917 0.0
H1914 H 0.64415 0.60659 0.23743 0.0
H1915 H 0.646 0.59914 0.22336 0.0
H1916 H 0.64152 0.57663 0.17601 0.0
H1917 H 0.6667 0.56563 0.16909 0.0
H1918 H 0.67401 0.57727 0.17712 0.0
H1919 H 0.64894 0.58843 0.18393 0.0
C1920 C 0.58285 0.65347 0.93769 0.0
C1921 C 0.5912 0.65701 0.93615 0.0
C1922 C 0.59731 0.64836 0.94809 0.0
C1923 C 0.59836 0.65446 0.94127 0.0
C1924 C 0.58888 0.64501 0.94978 0.0
C1925 C 0.58171 0.64752 0.94459 0.0
U1926 U 0.57365 0.66862 0.92057 0.0
O1927 O 0.56677 0.66609 0.90818 0.0
O1928 O 0.56045 0.67406 0.91833 0.0
C1929 C 0.55967 0.6703 0.91062 0.0
C1930 C 0.57544 0.6559 0.93198 0.0
C1931 C 0.55131 0.66582 0.90879 0.0
C1932 C 0.54099 0.6539 0.9111 0.0
C1933 C 0.54866 0.65838 0.91348 0.0
C1934 C 0.53846 0.66436 0.89947 0.0
C1935 C 0.53585 0.65675 0.90397 0.0
C1936 C 0.5461 0.66883 0.90186 0.0
C1937 C 0.5899 0.68716 0.91381 0.0
C1938 C 0.59383 0.69375 0.89985 0.0
C1939 C 0.59895 0.70025 0.91337 0.0
C1940 C 0.59449 0.69383 0.91813 0.0
C1941 C 0.59893 0.70011 0.90416 0.0
C1942 C 0.58935 0.68733 0.90463 0.0
C1943 C 0.58683 0.67957 0.91896 0.0
O1944 O 0.57159 0.66336 0.93387 0.0
O1945 O 0.57694 0.65494 0.92356 0.0
O1946 O 0.58637 0.67204 0.91483 0.0
O1947 O 0.5803 0.68087 0.92443 0.0
H1948 H 0.59221 0.66167 0.93091 0.0
H1949 H 0.60473 0.65727 0.93988 0.0
H1950 H 0.58787 0.64028 0.95496 0.0
H1951 H 0.57531 0.64474 0.94589 0.0
H1952 H 0.53915 0.64814 0.91479 0.0
H1953 H 0.5526 0.65596 0.91886 0.0
H1954 H 0.53481 0.66669 0.89386 0.0
H1955 H 0.54806 0.67453 0.89813 0.0
H1956 H 0.59358 0.69352 0.89277 0.0
H1957 H 0.60288 0.70497 0.91691 0.0
H1958 H 0.59504 0.6938 0.9252 0.0
H1959 H 0.5858 0.68228 0.90113 0.0
C1960 C 0.61764 0.33283 0.18814 0.0
C1961 C 0.6141 0.34115 0.18652 0.0
C1962 C 0.62259 0.34729 0.19857 0.0
C1963 C 0.61656 0.34831 0.19166 0.0
C1964 C 0.62594 0.33889 0.20032 0.0
C1965 C 0.62351 0.33172 0.19512 0.0
U1966 U 0.60297 0.32343 0.17062 0.0
O1967 O 0.60589 0.31644 0.15841 0.0
O1968 O 0.59774 0.31012 0.16843 0.0
C1969 C 0.6019 0.30924 0.16094 0.0
C1970 C 0.61534 0.32541 0.18241 0.0
C1971 C 0.60673 0.30094 0.15954 0.0
C1972 C 0.62018 0.29307 0.15611 0.0
C1973 C 0.61587 0.30082 0.15843 0.0
C1974 C 0.60636 0.28531 0.15635 0.0
C1975 C 0.61548 0.28521 0.15491 0.0
C1976 C 0.60204 0.29309 0.15861 0.0
C1977 C 0.58463 0.33968 0.16302 0.0
C1978 C 0.57905 0.34506 0.14909 0.0
C1979 C 0.57109 0.34811 0.16246 0.0
C1980 C 0.57733 0.34338 0.16722 0.0
C1981 C 0.57207 0.34929 0.15338 0.0
C1982 C 0.58527 0.34029 0.15386 0.0
C1983 C 0.59203 0.33654 0.16843 0.0
O1984 O 0.6078 0.32161 0.18411 0.0
O1985 O 0.61655 0.32683 0.17401 0.0
O1986 O 0.59973 0.33604 0.1646 0.0
O1987 O 0.59051 0.33007 0.1739 0.0
H1988 H 0.60949 0.34213 0.18121 0.0
H1989 H 0.61375 0.35466 0.19022 0.0
H1990 H 0.63062 0.3379 0.20556 0.0
H1991 H 0.6263 0.32534 0.19647 0.0
H1992 H 0.62718 0.29334 0.15494 0.0
H1993 H 0.61968 0.30676 0.1591 0.0
H1994 H 0.60252 0.27939 0.15562 0.0
H1995 H 0.59499 0.29301 0.15943 0.0
H1996 H 0.57992 0.34576 0.14209 0.0
H1997 H 0.56585 0.35134 0.16598 0.0
H1998 H 0.57673 0.34305 0.17428 0.0
H1999 H 0.59081 0.33749 0.15042 0.0
C2000 C 0.93956 0.36648 0.43796 0.0
C2001 C 0.93122 0.36291 0.43643 0.0
C2002 C 0.92509 0.37151 0.44839 0.0
C2003 C 0.92407 0.36542 0.44156 0.0
C2004 C 0.93351 0.37489 0.45008 0.0
C2005 C 0.94068 0.37242 0.44488 0.0
U2006 U 0.94873 0.35146 0.42073 0.0
O2007 O 0.95552 0.35405 0.40831 0.0
O2008 O 0.96193 0.34606 0.41838 0.0
C2009 C 0.96265 0.34984 0.41068 0.0
C2010 C 0.94696 0.36412 0.43222 0.0
C2011 C 0.97098 0.35433 0.40879 0.0
C2012 C 0.98109 0.3665 0.41071 0.0
C2013 C 0.97346 0.362 0.4132 0.0
C2014 C 0.98391 0.35559 0.39955 0.0
C2015 C 0.98634 0.36343 0.40374 0.0
C2016 C 0.97632 0.35111 0.40206 0.0
C2017 C 0.93251 0.33293 0.41393 0.0
C2018 C 0.92877 0.32636 0.39991 0.0
C2019 C 0.92338 0.3199 0.41334 0.0
C2020 C 0.92779 0.3263 0.41818 0.0
C2021 C 0.92355 0.32003 0.40414 0.0
C2022 C 0.93321 0.33275 0.40476 0.0
C2023 C 0.93556 0.34049 0.41913 0.0
O2024 O 0.95084 0.35665 0.43405 0.0
O2025 O 0.94544 0.36512 0.42381 0.0
O2026 O 0.93598 0.34804 0.41505 0.0
O2027 O 0.94212 0.33917 0.42456 0.0
H2028 H 0.93023 0.35825 0.43117 0.0
H2029 H 0.91771 0.36259 0.44017 0.0
H2030 H 0.9345 0.37962 0.45527 0.0
H2031 H 0.94707 0.37523 0.44618 0.0
H2032 H 0.9828 0.37245 0.41416 0.0
H2033 H 0.96942 0.36459 0.41842 0.0
H2034 H 0.98766 0.35309 0.39408 0.0
H2035 H 0.97449 0.34522 0.39855 0.0
H2036 H 0.92913 0.32657 0.39283 0.0
H2037 H 0.91936 0.31521 0.41682 0.0
H2038 H 0.92713 0.32634 0.42524 0.0
H2039 H 0.93685 0.33777 0.40132 0.0
C2040 C 0.90471 0.68768 0.6881 0.0
C2041 C 0.9083 0.67938 0.68649 0.0
C2042 C 0.89979 0.67318 0.69849 0.0
C2043 C 0.90585 0.6722 0.69161 0.0
C2044 C 0.89639 0.68157 0.70024 0.0
C2045 C 0.89881 0.68875 0.69506 0.0
U2046 U 0.91943 0.69716 0.67068 0.0
O2047 O 0.91656 0.70411 0.65844 0.0
O2048 O 0.9246 0.7105 0.66851 0.0
C2049 C 0.92049 0.71134 0.66098 0.0
C2050 C 0.907 0.69512 0.68239 0.0
C2051 C 0.91564 0.71961 0.65952 0.0
C2052 C 0.90218 0.7274 0.65598 0.0
C2053 C 0.9065 0.71968 0.65837 0.0
C2054 C 0.91597 0.73521 0.65622 0.0
C2055 C 0.90686 0.73526 0.65474 0.0
C2056 C 0.9203 0.72746 0.65856 0.0
C2057 C 0.93792 0.68107 0.66318 0.0
C2058 C 0.94366 0.67597 0.64921 0.0
C2059 C 0.95146 0.67265 0.66261 0.0
C2060 C 0.94517 0.67728 0.66739 0.0
C2061 C 0.95059 0.67165 0.65349 0.0
C2062 C 0.93739 0.68064 0.654 0.0
C2063 C 0.93047 0.68413 0.66857 0.0
O2064 O 0.9145 0.69897 0.68414 0.0
O2065 O 0.90585 0.69369 0.67399 0.0
O2066 O 0.92279 0.68456 0.6647 0.0
O2067 O 0.93191 0.69061 0.67405 0.0
H2068 H 0.91293 0.67843 0.68119 0.0
H2069 H 0.9087 0.66587 0.69017 0.0
H2070 H 0.89168 0.68252 0.70546 0.0
H2071 H 0.89598 0.69511 0.69641 0.0
H2072 H 0.89519 0.72709 0.65477 0.0
H2073 H 0.90272 0.71373 0.65907 0.0
H2074 H 0.91979 0.74113 0.65547 0.0
H2075 H 0.92735 0.72757 0.65941 0.0
H2076 H 0.94288 0.67542 0.64219 0.0
H2077 H 0.95666 0.66934 0.66612 0.0
H2078 H 0.94569 0.67747 0.67447 0.0
H2079 H 0.93189 0.68353 0.65056 0.0
C2080 C 0.58348 0.36658 0.58294 0.0
C2081 C 0.5918 0.36302 0.58457 0.0
C2082 C 0.59803 0.37156 0.57262 0.0
C2083 C 0.599 0.3655 0.57949 0.0
C2084 C 0.58963 0.37494 0.57085 0.0
C2085 C 0.58242 0.37249 0.576 0.0
U2086 U 0.57375 0.35162 0.60004 0.0
O2087 O 0.56675 0.35433 0.61229 0.0
O2088 O 0.56031 0.34659 0.60203 0.0
C2089 C 0.55947 0.35056 0.60962 0.0
C2090 C 0.576 0.36425 0.58859 0.0
C2091 C 0.55125 0.3555 0.61111 0.0
C2092 C 0.5436 0.36902 0.6147 0.0
C2093 C 0.55129 0.36461 0.61233 0.0
C2094 C 0.53558 0.35537 0.61429 0.0
C2095 C 0.53565 0.36445 0.61584 0.0
C2096 C 0.5433 0.35095 0.61198 0.0
C2097 C 0.5896 0.33282 0.60719 0.0
C2098 C 0.5937 0.32648 0.62122 0.0
C2099 C 0.59856 0.31966 0.60777 0.0
C2100 C 0.59407 0.32601 0.60294 0.0
C2101 C 0.59871 0.32 0.61697 0.0
C2102 C 0.58918 0.33282 0.61638 0.0
C2103 C 0.58666 0.34039 0.60196 0.0
O2104 O 0.57206 0.35684 0.58667 0.0
O2105 O 0.57742 0.3652 0.59703 0.0
O2106 O 0.58629 0.34797 0.60601 0.0
O2107 O 0.58017 0.33916 0.59642 0.0
H2108 H 0.59275 0.35838 0.58985 0.0
H2109 H 0.60535 0.36267 0.58094 0.0
H2110 H 0.58868 0.37965 0.56564 0.0
H2111 H 0.57604 0.3753 0.57463 0.0
H2112 H 0.544 0.37598 0.61597 0.0
H2113 H 0.55732 0.36831 0.61171 0.0
H2114 H 0.52959 0.35164 0.61495 0.0
H2115 H 0.5431 0.34392 0.61106 0.0
H2116 H 0.59358 0.32686 0.6283 0.0
H2117 H 0.60241 0.31484 0.60426 0.0
H2118 H 0.59452 0.3259 0.59586 0.0
H2119 H 0.58575 0.33798 0.61984 0.0
C2120 C 0.90442 0.33259 0.83302 0.0
C2121 C 0.90798 0.3409 0.83463 0.0
C2122 C 0.89936 0.34709 0.8227 0.0
C2123 C 0.90545 0.34808 0.82955 0.0
C2124 C 0.89599 0.3387 0.82095 0.0
C2125 C 0.89847 0.33151 0.8261 0.0
U2126 U 0.91944 0.32303 0.85015 0.0
O2127 O 0.91677 0.31603 0.86241 0.0
O2128 O 0.92462 0.30967 0.85217 0.0
C2129 C 0.92064 0.3088 0.85976 0.0
C2130 C 0.9068 0.32514 0.83867 0.0
C2131 C 0.91578 0.30054 0.86125 0.0
C2132 C 0.90232 0.29277 0.86486 0.0
C2133 C 0.90665 0.30049 0.86247 0.0
C2134 C 0.91609 0.28492 0.86447 0.0
C2135 C 0.90699 0.28489 0.86602 0.0
C2136 C 0.92043 0.29267 0.86215 0.0
C2137 C 0.9381 0.33905 0.85736 0.0
C2138 C 0.94422 0.34371 0.87131 0.0
C2139 C 0.95148 0.34772 0.8578 0.0
C2140 C 0.94511 0.34315 0.85305 0.0
C2141 C 0.95092 0.34833 0.86697 0.0
C2142 C 0.93787 0.33911 0.86656 0.0
C2143 C 0.93054 0.33603 0.8521 0.0
O2144 O 0.91427 0.32127 0.83678 0.0
O2145 O 0.9058 0.32655 0.8471 0.0
O2146 O 0.92294 0.33559 0.85612 0.0
O2147 O 0.93187 0.32957 0.84657 0.0
H2148 H 0.91264 0.34186 0.8399 0.0
H2149 H 0.90828 0.35442 0.83099 0.0
H2150 H 0.89125 0.33773 0.81576 0.0
H2151 H 0.89567 0.32514 0.82475 0.0
H2152 H 0.89534 0.2931 0.86611 0.0
H2153 H 0.90288 0.30646 0.86183 0.0
H2154 H 0.9199 0.27898 0.86516 0.0
H2155 H 0.92747 0.29254 0.86124 0.0
H2156 H 0.94368 0.34396 0.87838 0.0
H2157 H 0.95648 0.35126 0.85424 0.0
H2158 H 0.94539 0.34325 0.84597 0.0
H2159 H 0.93255 0.33597 0.87006 0.0
C2160 C 0.93909 0.65434 0.08198 0.0
C2161 C 0.93083 0.65822 0.08313 0.0
C2162 C 0.92498 0.64991 0.0708 0.0
C2163 C 0.92385 0.65601 0.07762 0.0
C2164 C 0.93333 0.64614 0.0696 0.0
C2165 C 0.94031 0.64833 0.07516 0.0
U2166 U 0.94835 0.66881 0.09978 0.0
O2167 O 0.95497 0.66575 0.11216 0.0
O2168 O 0.96176 0.67369 0.10229 0.0
C2169 C 0.96235 0.66953 0.1098 0.0
C2170 C 0.94635 0.65647 0.08798 0.0
C2171 C 0.97053 0.66453 0.11142 0.0
C2172 C 0.97802 0.65115 0.11578 0.0
C2173 C 0.97036 0.65553 0.11328 0.0
C2174 C 0.98626 0.66459 0.11426 0.0
C2175 C 0.98607 0.65563 0.11643 0.0
C2176 C 0.97857 0.66898 0.11182 0.0
C2177 C 0.93259 0.68764 0.10696 0.0
C2178 C 0.92857 0.69378 0.1211 0.0
C2179 C 0.92372 0.70084 0.10778 0.0
C2180 C 0.92815 0.69453 0.10283 0.0
C2181 C 0.9236 0.70035 0.11697 0.0
C2182 C 0.93303 0.68747 0.11615 0.0
C2183 C 0.93552 0.68015 0.10159 0.0
O2184 O 0.95044 0.66387 0.08638 0.0
O2185 O 0.94459 0.65536 0.09633 0.0
O2186 O 0.93567 0.67248 0.10546 0.0
O2187 O 0.94218 0.68143 0.09627 0.0
H2188 H 0.92975 0.66288 0.08837 0.0
H2189 H 0.91751 0.65894 0.07886 0.0
H2190 H 0.93449 0.64151 0.06436 0.0
H2191 H 0.94665 0.6453 0.07415 0.0
H2192 H 0.97753 0.6443 0.11753 0.0
H2193 H 0.96426 0.6519 0.11305 0.0
H2194 H 0.99233 0.66825 0.11455 0.0
H2195 H 0.97888 0.67593 0.11043 0.0
H2196 H 0.9287 0.69328 0.12818 0.0
H2197 H 0.91989 0.70574 0.10436 0.0
H2198 H 0.92768 0.69476 0.09576 0.0
H2199 H 0.93644 0.68224 0.1195 0.0
C2200 C 0.61728 0.68832 0.3318 0.0
C2201 C 0.61296 0.6803 0.3329 0.0
C2202 C 0.62188 0.67373 0.32139 0.0
C2203 C 0.61524 0.67307 0.32776 0.0
C2204 C 0.62605 0.68186 0.32016 0.0
C2205 C 0.62378 0.68909 0.32536 0.0
U2206 U 0.60274 0.69797 0.34928 0.0
O2207 O 0.60572 0.70485 0.36153 0.0
O2208 O 0.59775 0.71137 0.3515 0.0
C2209 C 0.60187 0.71213 0.35902 0.0
C2210 C 0.61515 0.69577 0.33756 0.0
C2211 C 0.60681 0.72035 0.36052 0.0
C2212 C 0.62028 0.72802 0.36432 0.0
C2213 C 0.61591 0.72033 0.3619 0.0
C2214 C 0.6066 0.736 0.36365 0.0
C2215 C 0.61567 0.73595 0.36535 0.0
C2216 C 0.60222 0.72829 0.36129 0.0
C2217 C 0.58401 0.68214 0.3567 0.0
C2218 C 0.57795 0.67801 0.37084 0.0
C2219 C 0.57086 0.67318 0.35751 0.0
C2220 C 0.57712 0.67768 0.35257 0.0
C2221 C 0.57139 0.67301 0.3667 0.0
C2222 C 0.5842 0.68254 0.36589 0.0
C2223 C 0.5915 0.6851 0.35132 0.0
O2224 O 0.60771 0.69977 0.33584 0.0
O2225 O 0.61626 0.69425 0.34596 0.0
O2226 O 0.59917 0.68541 0.35522 0.0
O2227 O 0.59016 0.69162 0.34587 0.0
H2228 H 0.60788 0.67959 0.3378 0.0
H2229 H 0.6118 0.66696 0.32878 0.0
H2230 H 0.63122 0.68257 0.31536 0.0
H2231 H 0.62719 0.69524 0.32442 0.0
H2232 H 0.62723 0.72763 0.3657 0.0
H2233 H 0.61964 0.71432 0.36138 0.0
H2234 H 0.60284 0.74198 0.36423 0.0
H2235 H 0.5952 0.72848 0.36026 0.0
H2236 H 0.57847 0.67811 0.37791 0.0
H2237 H 0.56597 0.66933 0.3541 0.0
H2238 H 0.57687 0.67724 0.34549 0.0
H2239 H 0.58943 0.68597 0.36924 0.0
C2240 C 0.93966 0.58191 0.65437 0.0
C2241 C 0.93852 0.59017 0.65822 0.0
C2242 C 0.95087 0.59598 0.64989 0.0
C2243 C 0.94403 0.59713 0.65598 0.0
C2244 C 0.95205 0.58763 0.64614 0.0
C2245 C 0.94649 0.58067 0.64836 0.0
U2246 U 0.92189 0.57268 0.66893 0.0
O2247 O 0.90948 0.56608 0.66592 0.0
O2248 O 0.9194 0.5593 0.67382 0.0
C2249 C 0.91186 0.55871 0.66968 0.0
C2250 C 0.93365 0.57467 0.65653 0.0
C2251 C 0.91023 0.55056 0.66467 0.0
C2252 C 0.90598 0.5431 0.65123 0.0
C2253 C 0.90847 0.55073 0.65564 0.0
C2254 C 0.90731 0.53486 0.66469 0.0
C2255 C 0.90525 0.53506 0.65571 0.0
C2256 C 0.90974 0.54253 0.66911 0.0
C2257 C 0.91484 0.58845 0.6878 0.0
C2258 C 0.90073 0.59249 0.69404 0.0
C2259 C 0.91413 0.59739 0.70096 0.0
C2260 C 0.91903 0.59293 0.69464 0.0
C2261 C 0.90492 0.59751 0.70055 0.0
C2262 C 0.90564 0.588 0.68772 0.0
C2263 C 0.92016 0.58549 0.68029 0.0
O2264 O 0.93529 0.57058 0.66393 0.0
O2265 O 0.92529 0.57644 0.65546 0.0
O2266 O 0.91623 0.58534 0.67263 0.0
O2267 O 0.92548 0.57884 0.68154 0.0
H2268 H 0.93328 0.59126 0.66288 0.0
H2269 H 0.9428 0.60347 0.6589 0.0
H2270 H 0.9573 0.58645 0.64151 0.0
H2271 H 0.9475 0.57433 0.64535 0.0
H2272 H 0.90432 0.54359 0.64436 0.0
H2273 H 0.90877 0.55681 0.65201 0.0
H2274 H 0.90697 0.52881 0.66835 0.0
H2275 H 0.91106 0.54222 0.67608 0.0
H2276 H 0.89364 0.59235 0.6936 0.0
H2277 H 0.91759 0.60125 0.70581 0.0
H2278 H 0.92612 0.5934 0.69481 0.0
H2279 H 0.90224 0.58456 0.68254 0.0
C2280 C 0.68896 0.68819 0.90464 0.0
C2281 C 0.68063 0.68659 0.90819 0.0
C2282 C 0.67448 0.69865 0.89974 0.0
C2283 C 0.67346 0.69175 0.90575 0.0
C2284 C 0.68289 0.70039 0.89637 0.0
C2285 C 0.69007 0.69518 0.89878 0.0
U2286 U 0.6985 0.67072 0.91928 0.0
O2287 O 0.70542 0.65847 0.91634 0.0
O2288 O 0.71191 0.66851 0.92432 0.0
C2289 C 0.7127 0.66099 0.9202 0.0
C2290 C 0.69639 0.68244 0.90689 0.0
C2291 C 0.72094 0.65952 0.91527 0.0
C2292 C 0.72862 0.65605 0.90173 0.0
C2293 C 0.72093 0.65842 0.90614 0.0
C2294 C 0.73657 0.65622 0.91543 0.0
C2295 C 0.73654 0.65479 0.90632 0.0
C2296 C 0.72885 0.65853 0.91984 0.0
C2297 C 0.68253 0.66329 0.93789 0.0
C2298 C 0.67825 0.64918 0.9439 0.0
C2299 C 0.67355 0.66252 0.95103 0.0
C2300 C 0.67811 0.66744 0.94479 0.0
C2301 C 0.67329 0.65334 0.95047 0.0
C2302 C 0.68283 0.6541 0.93767 0.0
C2303 C 0.68554 0.66867 0.93043 0.0
O2304 O 0.70031 0.68417 0.91435 0.0
O2305 O 0.69491 0.67404 0.90575 0.0
O2306 O 0.6859 0.66478 0.92277 0.0
O2307 O 0.69207 0.67412 0.93181 0.0
H2308 H 0.67964 0.68128 0.91278 0.0
H2309 H 0.6671 0.69031 0.90856 0.0
H2310 H 0.68388 0.70563 0.8917 0.0
H2311 H 0.69645 0.69652 0.89598 0.0
H2312 H 0.72824 0.65489 0.89475 0.0
H2313 H 0.71492 0.65913 0.90242 0.0
H2314 H 0.74255 0.65545 0.91918 0.0
H2315 H 0.72903 0.65934 0.92689 0.0
H2316 H 0.67829 0.64211 0.94335 0.0
H2317 H 0.66974 0.66596 0.95593 0.0
H2318 H 0.67774 0.67451 0.94507 0.0
H2319 H 0.68623 0.65073 0.93243 0.0
C2320 C 0.58319 0.43916 0.15441 0.0
C2321 C 0.58428 0.4309 0.15826 0.0
C2322 C 0.57194 0.42514 0.14988 0.0
C2323 C 0.57874 0.42396 0.156 0.0
C2324 C 0.57081 0.43349 0.14611 0.0
C2325 C 0.5764 0.44043 0.14836 0.0
U2326 U 0.60097 0.44796 0.16911 0.0
O2327 O 0.61346 0.45456 0.16624 0.0
O2328 O 0.60363 0.46111 0.17443 0.0
C2329 C 0.61126 0.46172 0.17047 0.0
C2330 C 0.58922 0.44637 0.15664 0.0
C2331 C 0.61315 0.47002 0.16593 0.0
C2332 C 0.61068 0.4804 0.15411 0.0
C2333 C 0.60831 0.47275 0.15862 0.0
C2334 C 0.62262 0.48272 0.1643 0.0
C2335 C 0.61795 0.48543 0.15682 0.0
C2336 C 0.62023 0.47511 0.16879 0.0
C2337 C 0.60774 0.43178 0.18767 0.0
C2338 C 0.62179 0.42784 0.19411 0.0
C2339 C 0.60832 0.42271 0.20074 0.0
C2340 C 0.60349 0.42717 0.19438 0.0
C2341 C 0.61754 0.42273 0.20051 0.0
C2342 C 0.61694 0.43232 0.18774 0.0
C2343 C 0.6025 0.43487 0.18016 0.0
O2344 O 0.58762 0.45035 0.1641 0.0
O2345 O 0.59758 0.44458 0.15553 0.0
O2346 O 0.6065 0.43517 0.17254 0.0
O2347 O 0.59719 0.44152 0.1815 0.0
H2348 H 0.58949 0.42978 0.16295 0.0
H2349 H 0.57994 0.41762 0.15892 0.0
H2350 H 0.56559 0.43468 0.14146 0.0
H2351 H 0.57544 0.44677 0.14535 0.0
H2352 H 0.60686 0.48232 0.14845 0.0
H2353 H 0.60281 0.46891 0.15632 0.0
H2354 H 0.62834 0.48628 0.16651 0.0
H2355 H 0.62407 0.47308 0.1744 0.0
H2356 H 0.62888 0.42808 0.19381 0.0
H2357 H 0.60483 0.41878 0.2055 0.0
H2358 H 0.5964 0.42663 0.19442 0.0
H2359 H 0.62039 0.43587 0.18266 0.0
C2360 C 0.83365 0.33213 0.40402 0.0
C2361 C 0.84196 0.33365 0.40765 0.0
C2362 C 0.84813 0.32167 0.3991 0.0
C2363 C 0.84913 0.3285 0.4052 0.0
C2364 C 0.83973 0.31999 0.39566 0.0
C2365 C 0.83256 0.32521 0.39808 0.0
U2366 U 0.8241 0.34955 0.41873 0.0
O2367 O 0.81726 0.36185 0.41583 0.0
O2368 O 0.81068 0.35179 0.4237 0.0
C2369 C 0.80994 0.35933 0.41962 0.0
C2370 C 0.82623 0.33789 0.40628 0.0
C2371 C 0.80173 0.36088 0.41466 0.0
C2372 C 0.79415 0.36502 0.40126 0.0
C2373 C 0.80183 0.36255 0.40562 0.0
C2374 C 0.78602 0.36382 0.4148 0.0
C2375 C 0.78614 0.36581 0.4058 0.0
C2376 C 0.79373 0.36141 0.41917 0.0
C2377 C 0.83999 0.35687 0.43744 0.0
C2378 C 0.84426 0.37096 0.44352 0.0
C2379 C 0.84886 0.35758 0.45066 0.0
C2380 C 0.84435 0.35269 0.44437 0.0
C2381 C 0.84916 0.36676 0.45012 0.0
C2382 C 0.83972 0.36606 0.43724 0.0
C2383 C 0.83702 0.35152 0.42995 0.0
O2384 O 0.82228 0.33613 0.41372 0.0
O2385 O 0.82775 0.34629 0.4052 0.0
O2386 O 0.83671 0.35543 0.42229 0.0
O2387 O 0.83046 0.34608 0.43127 0.0
H2388 H 0.84293 0.33892 0.41231 0.0
H2389 H 0.85547 0.32988 0.40807 0.0
H2390 H 0.83876 0.31481 0.39092 0.0
H2391 H 0.82619 0.32392 0.39522 0.0
H2392 H 0.7946 0.36662 0.39437 0.0
H2393 H 0.8079 0.36221 0.40194 0.0
H2394 H 0.77998 0.36421 0.41851 0.0
H2395 H 0.79348 0.36016 0.42615 0.0
H2396 H 0.84426 0.37802 0.443 0.0
H2397 H 0.85262 0.35412 0.45558 0.0
H2398 H 0.84469 0.34561 0.44462 0.0
H2399 H 0.83637 0.36945 0.43199 0.0
C2400 C 0.93954 0.43799 0.86686 0.0
C2401 C 0.9384 0.42976 0.86294 0.0
C2402 C 0.95067 0.42386 0.87133 0.0
C2403 C 0.94388 0.42277 0.86517 0.0
C2404 C 0.95184 0.43218 0.87515 0.0
C2405 C 0.94631 0.43917 0.87294 0.0
U2406 U 0.92184 0.44731 0.85227 0.0
O2407 O 0.90946 0.45399 0.85525 0.0
O2408 O 0.91943 0.4607 0.84736 0.0
C2409 C 0.91188 0.46133 0.85147 0.0
C2410 C 0.93357 0.44526 0.86469 0.0
C2411 C 0.91026 0.46951 0.85645 0.0
C2412 C 0.90591 0.47704 0.86981 0.0
C2413 C 0.90841 0.46938 0.86546 0.0
C2414 C 0.90743 0.48522 0.85634 0.0
C2415 C 0.90527 0.48506 0.8653 0.0
C2416 C 0.90987 0.47752 0.85197 0.0
C2417 C 0.91472 0.43158 0.8334 0.0
C2418 C 0.90057 0.42772 0.82715 0.0
C2419 C 0.91393 0.42262 0.82027 0.0
C2420 C 0.91887 0.42703 0.82659 0.0
C2421 C 0.90471 0.42264 0.82066 0.0
C2422 C 0.90552 0.43215 0.83346 0.0
C2423 C 0.92006 0.4345 0.84092 0.0
O2424 O 0.93524 0.44934 0.8573 0.0
O2425 O 0.9252 0.44354 0.86575 0.0
O2426 O 0.91612 0.43468 0.84858 0.0
O2427 O 0.92542 0.44112 0.83968 0.0
H2428 H 0.9332 0.42871 0.85823 0.0
H2429 H 0.94266 0.41645 0.8622 0.0
H2430 H 0.95705 0.4333 0.87983 0.0
H2431 H 0.94731 0.44548 0.876 0.0
H2432 H 0.90417 0.47658 0.87667 0.0
H2433 H 0.90863 0.4633 0.86911 0.0
H2434 H 0.90715 0.49127 0.85266 0.0
H2435 H 0.91126 0.4778 0.84502 0.0
H2436 H 0.89348 0.42796 0.82756 0.0
H2437 H 0.91735 0.41872 0.81543 0.0
H2438 H 0.92595 0.42647 0.82644 0.0
H2439 H 0.90215 0.43566 0.83863 0.0
C2440 C 0.83333 0.68836 0.11712 0.0
C2441 C 0.84164 0.68675 0.11354 0.0
C2442 C 0.84786 0.69874 0.12204 0.0
C2443 C 0.84883 0.69186 0.116 0.0
C2444 C 0.83945 0.7005 0.12543 0.0
C2445 C 0.83225 0.69532 0.12301 0.0
U2446 U 0.82379 0.67092 0.10246 0.0
O2447 O 0.8168 0.65871 0.10536 0.0
O2448 O 0.81041 0.66876 0.09732 0.0
C2449 C 0.80956 0.66125 0.10144 0.0
C2450 C 0.82587 0.68265 0.11484 0.0
C2451 C 0.80127 0.6598 0.10629 0.0
C2452 C 0.79347 0.65619 0.11971 0.0
C2453 C 0.8012 0.65858 0.1154 0.0
C2454 C 0.78562 0.65658 0.10596 0.0
C2455 C 0.78558 0.65503 0.11504 0.0
C2456 C 0.79339 0.65891 0.10164 0.0
C2457 C 0.83986 0.66337 0.08395 0.0
C2458 C 0.84492 0.6494 0.0782 0.0
C2459 C 0.84824 0.66278 0.0704 0.0
C2460 C 0.84363 0.66757 0.07671 0.0
C2461 C 0.84923 0.65367 0.07126 0.0
C2462 C 0.84028 0.6542 0.08449 0.0
C2463 C 0.83681 0.66876 0.0914 0.0
O2464 O 0.82201 0.68439 0.10735 0.0
O2465 O 0.8273 0.67425 0.116 0.0
O2466 O 0.83639 0.6649 0.09908 0.0
O2467 O 0.83033 0.67426 0.08998 0.0
H2468 H 0.8426 0.68145 0.10892 0.0
H2469 H 0.85518 0.69041 0.11316 0.0
H2470 H 0.8385 0.70572 0.13013 0.0
H2471 H 0.82588 0.69668 0.12583 0.0
H2472 H 0.79378 0.65493 0.12668 0.0
H2473 H 0.80718 0.65921 0.11918 0.0
H2474 H 0.77968 0.6559 0.10214 0.0
H2475 H 0.79327 0.65982 0.0946 0.0
H2476 H 0.84547 0.64238 0.07898 0.0
H2477 H 0.85153 0.6663 0.0652 0.0
H2478 H 0.84345 0.67464 0.07618 0.0
H2479 H 0.83741 0.65076 0.08999 0.0
C2480 C 0.58413 0.58254 0.3675 0.0
C2481 C 0.5858 0.59083 0.36391 0.0
C2482 C 0.57381 0.59712 0.37237 0.0
C2483 C 0.58072 0.59804 0.36634 0.0
C2484 C 0.57201 0.58876 0.3758 0.0
C2485 C 0.57716 0.58154 0.37341 0.0
U2486 U 0.60096 0.57264 0.35235 0.0
O2487 O 0.61321 0.56553 0.35485 0.0
O2488 O 0.60274 0.55919 0.3473 0.0
C2489 C 0.61041 0.55829 0.35113 0.0
C2490 C 0.58973 0.57503 0.36516 0.0
C2491 C 0.61191 0.55008 0.35606 0.0
C2492 C 0.61544 0.54243 0.36958 0.0
C2493 C 0.61306 0.5501 0.36518 0.0
C2494 C 0.61518 0.53447 0.35589 0.0
C2495 C 0.61665 0.53451 0.36499 0.0
C2496 C 0.61286 0.54217 0.35148 0.0
C2497 C 0.60775 0.58841 0.33323 0.0
C2498 C 0.62041 0.59595 0.32708 0.0
C2499 C 0.60723 0.5943 0.31842 0.0
C2500 C 0.60328 0.58971 0.32529 0.0
C2501 C 0.61572 0.59778 0.31935 0.0
C2502 C 0.61646 0.59134 0.33394 0.0
C2503 C 0.60277 0.58546 0.34103 0.0
O2504 O 0.58767 0.57104 0.35782 0.0
O2505 O 0.59819 0.57641 0.36597 0.0
O2506 O 0.60702 0.58507 0.3485 0.0
O2507 O 0.5971 0.57906 0.33999 0.0
H2508 H 0.5911 0.59173 0.35927 0.0
H2509 H 0.58219 0.60436 0.36347 0.0
H2510 H 0.56677 0.58785 0.38049 0.0
H2511 H 0.57575 0.57519 0.37623 0.0
H2512 H 0.61664 0.54281 0.37655 0.0
H2513 H 0.61238 0.5561 0.36889 0.0
H2514 H 0.61591 0.5285 0.35213 0.0
H2515 H 0.612 0.54199 0.34444 0.0
H2516 H 0.62692 0.59859 0.32808 0.0
H2517 H 0.60348 0.59546 0.31251 0.0
H2518 H 0.59654 0.58759 0.32456 0.0
H2519 H 0.62009 0.59051 0.33998 0.0
C2520 C 0.68916 0.33246 0.617 0.0
C2521 C 0.68084 0.3341 0.61344 0.0
C2522 C 0.67462 0.32209 0.6219 0.0
C2523 C 0.67364 0.32899 0.61588 0.0
C2524 C 0.68302 0.32031 0.62529 0.0
C2525 C 0.69022 0.32549 0.62288 0.0
U2526 U 0.69886 0.34964 0.60214 0.0
O2527 O 0.70582 0.36189 0.6049 0.0
O2528 O 0.7123 0.35169 0.59711 0.0
C2529 C 0.71311 0.35927 0.6011 0.0
C2530 C 0.69663 0.33814 0.61471 0.0
C2531 C 0.72134 0.36079 0.60603 0.0
C2532 C 0.729 0.36448 0.61951 0.0
C2533 C 0.72131 0.36206 0.61513 0.0
C2534 C 0.73699 0.36402 0.60584 0.0
C2535 C 0.73694 0.36562 0.61492 0.0
C2536 C 0.72927 0.36166 0.60145 0.0
C2537 C 0.68301 0.35684 0.58335 0.0
C2538 C 0.67895 0.3709 0.57706 0.0
C2539 C 0.67404 0.35748 0.5702 0.0
C2540 C 0.67853 0.35263 0.57654 0.0
C2541 C 0.67392 0.36668 0.57058 0.0
C2542 C 0.68346 0.36603 0.58339 0.0
C2543 C 0.68596 0.35157 0.59091 0.0
O2544 O 0.70059 0.33626 0.6073 0.0
O2545 O 0.69519 0.34656 0.6157 0.0
O2546 O 0.6863 0.35559 0.59851 0.0
O2547 O 0.69246 0.34606 0.58965 0.0
H2548 H 0.67989 0.3394 0.60883 0.0
H2549 H 0.66729 0.33045 0.61305 0.0
H2550 H 0.68397 0.31508 0.62997 0.0
H2551 H 0.6966 0.32411 0.62568 0.0
H2552 H 0.72861 0.36577 0.62647 0.0
H2553 H 0.71529 0.36144 0.61885 0.0
H2554 H 0.74297 0.36469 0.60208 0.0
H2555 H 0.72946 0.36072 0.59442 0.0
H2556 H 0.67909 0.37797 0.57747 0.0
H2557 H 0.67018 0.35401 0.56537 0.0
H2558 H 0.67805 0.34555 0.5764 0.0
H2559 H 0.68691 0.36945 0.58856 0.0
C2560 C 0.65418 0.93804 0.58258 0.0
C2561 C 0.65807 0.93688 0.59081 0.0
C2562 C 0.64979 0.94921 0.5967 0.0
C2563 C 0.65588 0.94237 0.5978 0.0
C2564 C 0.64596 0.95039 0.58838 0.0
C2565 C 0.64814 0.94485 0.58139 0.0
U2566 U 0.669 0.92059 0.5733 0.0
O2567 O 0.66627 0.90826 0.56643 0.0
O2568 O 0.67418 0.91838 0.55996 0.0
C2569 C 0.67016 0.91081 0.55917 0.0
C2570 C 0.65641 0.93214 0.57527 0.0
C2571 C 0.6653 0.90926 0.55091 0.0
C2572 C 0.65189 0.90552 0.54312 0.0
C2573 C 0.6562 0.9079 0.55085 0.0
C2574 C 0.66565 0.90615 0.53525 0.0
C2575 C 0.65656 0.90449 0.53522 0.0
C2576 C 0.66996 0.90848 0.54302 0.0
C2577 C 0.68793 0.91389 0.58939 0.0
C2578 C 0.69388 0.90131 0.59719 0.0
C2579 C 0.70272 0.91432 0.59538 0.0
C2580 C 0.69592 0.91827 0.59068 0.0
C2581 C 0.70167 0.90591 0.59898 0.0
C2582 C 0.68708 0.90526 0.59247 0.0
C2583 C 0.68021 0.9189 0.58625 0.0
O2584 O 0.66381 0.9339 0.57124 0.0
O2585 O 0.65542 0.92376 0.57695 0.0
O2586 O 0.67266 0.91477 0.58591 0.0
O2587 O 0.68139 0.92439 0.57973 0.0
H2588 H 0.66276 0.93165 0.59186 0.0
H2589 H 0.65886 0.94114 0.60411 0.0
H2590 H 0.64133 0.95564 0.58725 0.0
H2591 H 0.64509 0.94588 0.57507 0.0
H2592 H 0.64493 0.90416 0.54344 0.0
H2593 H 0.65242 0.90845 0.55683 0.0
H2594 H 0.66946 0.90557 0.5293 0.0
H2595 H 0.67699 0.9095 0.54289 0.0
H2596 H 0.69278 0.89486 0.59992 0.0
H2597 H 0.70868 0.91801 0.59651 0.0
H2598 H 0.69675 0.92495 0.58845 0.0
H2599 H 0.68099 0.9017 0.59166 0.0
C2600 C 0.15538 0.58134 0.4385 0.0
C2601 C 0.15973 0.58238 0.43048 0.0
C2602 C 0.15085 0.57083 0.42396 0.0
C2603 C 0.15748 0.5772 0.42328 0.0
C2604 C 0.14666 0.56964 0.43209 0.0
C2605 C 0.14889 0.57488 0.4393 0.0
U2606 U 0.16965 0.59915 0.44789 0.0
O2607 O 0.1665 0.61138 0.45472 0.0
O2608 O 0.17474 0.60156 0.46123 0.0
C2609 C 0.17047 0.609 0.46198 0.0
C2610 C 0.15746 0.58717 0.4459 0.0
C2611 C 0.16561 0.61047 0.47025 0.0
C2612 C 0.15219 0.61422 0.47804 0.0
C2613 C 0.1565 0.61181 0.47031 0.0
C2614 C 0.16595 0.61363 0.4859 0.0
C2615 C 0.15687 0.61529 0.48593 0.0
C2616 C 0.17026 0.61128 0.47814 0.0
C2617 C 0.18807 0.60682 0.4318 0.0
C2618 C 0.1936 0.62087 0.42672 0.0
C2619 C 0.20158 0.6076 0.42334 0.0
C2620 C 0.19536 0.60272 0.42799 0.0
C2621 C 0.20058 0.6167 0.42237 0.0
C2622 C 0.18741 0.61599 0.4314 0.0
C2623 C 0.18071 0.60133 0.43488 0.0
O2624 O 0.16497 0.58563 0.44984 0.0
O2625 O 0.15616 0.59553 0.44435 0.0
O2626 O 0.17296 0.60506 0.43525 0.0
O2627 O 0.18222 0.59594 0.44142 0.0
H2628 H 0.16479 0.5873 0.42975 0.0
H2629 H 0.16093 0.57819 0.41717 0.0
H2630 H 0.1415 0.56483 0.43281 0.0
H2631 H 0.14547 0.57398 0.44544 0.0
H2632 H 0.14523 0.61557 0.47772 0.0
H2633 H 0.15272 0.61126 0.46434 0.0
H2634 H 0.16976 0.61424 0.49185 0.0
H2635 H 0.1773 0.61028 0.47827 0.0
H2636 H 0.19272 0.62789 0.42619 0.0
H2637 H 0.20681 0.60416 0.42002 0.0
H2638 H 0.19599 0.59566 0.42816 0.0
H2639 H 0.18187 0.61935 0.43431 0.0
C2640 C 0.69011 0.90457 0.68867 0.0
C2641 C 0.68952 0.90907 0.68068 0.0
C2642 C 0.70143 0.90029 0.67463 0.0
C2643 C 0.6951 0.90695 0.67374 0.0
C2644 C 0.70205 0.89587 0.6827 0.0
C2645 C 0.69644 0.898 0.68965 0.0
U2646 U 0.67195 0.91877 0.69768 0.0
O2647 O 0.65956 0.91552 0.70422 0.0
O2648 O 0.66924 0.9237 0.71101 0.0
C2649 C 0.66179 0.91941 0.71157 0.0
C2650 C 0.68399 0.90661 0.69585 0.0
C2651 C 0.6602 0.91444 0.71976 0.0
C2652 C 0.65646 0.90093 0.72734 0.0
C2653 C 0.65891 0.90534 0.71969 0.0
C2654 C 0.65689 0.91457 0.73538 0.0
C2655 C 0.65529 0.90549 0.73529 0.0
C2656 C 0.65928 0.91898 0.7277 0.0
C2657 C 0.66463 0.93739 0.68171 0.0
C2658 C 0.65056 0.9431 0.67683 0.0
C2659 C 0.66393 0.95081 0.67316 0.0
C2660 C 0.6688 0.94456 0.67777 0.0
C2661 C 0.65479 0.94996 0.67235 0.0
C2662 C 0.65544 0.93688 0.68147 0.0
C2663 C 0.67007 0.93 0.68479 0.0
O2664 O 0.68542 0.91406 0.69993 0.0
O2665 O 0.67567 0.90536 0.694 0.0
O2666 O 0.66632 0.92226 0.68495 0.0
O2667 O 0.67532 0.9314 0.69147 0.0
H2668 H 0.68465 0.91416 0.67979 0.0
H2669 H 0.69431 0.9104 0.6676 0.0
H2670 H 0.7069 0.89079 0.68367 0.0
H2671 H 0.697 0.89447 0.69577 0.0
H2672 H 0.65516 0.89398 0.72692 0.0
H2673 H 0.65955 0.90164 0.71367 0.0
H2674 H 0.6562 0.9183 0.74137 0.0
H2675 H 0.66023 0.92601 0.72793 0.0
H2676 H 0.64352 0.94234 0.67643 0.0
H2677 H 0.66741 0.95595 0.66973 0.0
H2678 H 0.67589 0.94507 0.67782 0.0
H2679 H 0.65204 0.93143 0.68449 0.0
C2680 C 0.36792 0.43807 0.93797 0.0
C2681 C 0.36439 0.43647 0.92964 0.0
C2682 C 0.3729 0.44851 0.92354 0.0
C2683 C 0.36687 0.44161 0.9225 0.0
C2684 C 0.37624 0.45025 0.93195 0.0
C2685 C 0.37379 0.44504 0.93911 0.0
U2686 U 0.3532 0.42057 0.94734 0.0
O2687 O 0.35608 0.40835 0.9543 0.0
O2688 O 0.34797 0.41837 0.96066 0.0
C2689 C 0.35211 0.41087 0.96151 0.0
C2690 C 0.3656 0.43233 0.94538 0.0
C2691 C 0.35695 0.40943 0.9698 0.0
C2692 C 0.3704 0.40599 0.97765 0.0
C2693 C 0.36609 0.40834 0.96991 0.0
C2694 C 0.35658 0.40617 0.98542 0.0
C2695 C 0.36571 0.40474 0.9855 0.0
C2696 C 0.35226 0.40846 0.97765 0.0
C2697 C 0.33482 0.41306 0.9311 0.0
C2698 C 0.32919 0.39915 0.92575 0.0
C2699 C 0.32128 0.41253 0.92268 0.0
C2700 C 0.32754 0.41728 0.9274 0.0
C2701 C 0.32221 0.40345 0.92152 0.0
C2702 C 0.33543 0.4039 0.9305 0.0
C2703 C 0.34224 0.41844 0.93424 0.0
O2704 O 0.35807 0.43404 0.9492 0.0
O2705 O 0.36679 0.42393 0.94394 0.0
O2706 O 0.34993 0.4146 0.93471 0.0
O2707 O 0.34075 0.42391 0.94072 0.0
H2708 H 0.35979 0.43116 0.92864 0.0
H2709 H 0.36407 0.44019 0.91614 0.0
H2710 H 0.38092 0.45548 0.93296 0.0
H2711 H 0.37657 0.44638 0.94549 0.0
H2712 H 0.3774 0.40483 0.97736 0.0
H2713 H 0.36989 0.40904 0.96396 0.0
H2714 H 0.35275 0.40541 0.99134 0.0
H2715 H 0.3452 0.40927 0.97774 0.0
H2716 H 0.33003 0.39214 0.92506 0.0
H2717 H 0.31604 0.41607 0.91945 0.0
H2718 H 0.32695 0.42434 0.92772 0.0
H2719 H 0.34095 0.40044 0.93331 0.0
C2720 C 0.33377 0.61666 0.68921 0.0
C2721 C 0.3349 0.61277 0.68096 0.0
C2722 C 0.32259 0.62112 0.6751 0.0
C2723 C 0.3294 0.615 0.67398 0.0
C2724 C 0.32143 0.62494 0.68342 0.0
C2725 C 0.32698 0.62272 0.69041 0.0
U2726 U 0.35124 0.60176 0.69821 0.0
O2727 O 0.36371 0.60442 0.70493 0.0
O2728 O 0.35368 0.59642 0.71139 0.0
C2729 C 0.36138 0.60023 0.71207 0.0
C2730 C 0.33972 0.6144 0.69648 0.0
C2731 C 0.36326 0.60476 0.72039 0.0
C2732 C 0.36088 0.61664 0.73073 0.0
C2733 C 0.3585 0.61215 0.72307 0.0
C2734 C 0.37265 0.60628 0.73316 0.0
C2735 C 0.36808 0.61384 0.73581 0.0
C2736 C 0.37026 0.60181 0.72554 0.0
C2737 C 0.3577 0.58292 0.68205 0.0
C2738 C 0.37039 0.57688 0.67448 0.0
C2739 C 0.35728 0.56813 0.67612 0.0
C2740 C 0.35329 0.57497 0.68073 0.0
C2741 C 0.36577 0.56912 0.67265 0.0
C2742 C 0.36641 0.58371 0.67911 0.0
C2743 C 0.3527 0.59064 0.68516 0.0
O2744 O 0.33797 0.607 0.7005 0.0
O2745 O 0.3481 0.61537 0.69474 0.0
O2746 O 0.35687 0.59816 0.68549 0.0
O2747 O 0.34725 0.58948 0.69173 0.0
H2748 H 0.3401 0.60806 0.6799 0.0
H2749 H 0.33063 0.61203 0.66766 0.0
H2750 H 0.31621 0.62959 0.68457 0.0
H2751 H 0.32598 0.62577 0.69674 0.0
H2752 H 0.35714 0.62236 0.7326 0.0
H2753 H 0.35307 0.61452 0.71917 0.0
H2754 H 0.37831 0.604 0.73678 0.0
H2755 H 0.37403 0.59614 0.72355 0.0
H2756 H 0.3769 0.57792 0.67184 0.0
H2757 H 0.35357 0.5622 0.67495 0.0
H2758 H 0.34656 0.57418 0.68287 0.0
H2759 H 0.37 0.58976 0.67996 0.0
C2760 C 0.86771 0.08261 0.08309 0.0
C2761 C 0.86416 0.08418 0.09142 0.0
C2762 C 0.87274 0.07218 0.09752 0.0
C2763 C 0.86667 0.07904 0.09856 0.0
C2764 C 0.87611 0.07048 0.08911 0.0
C2765 C 0.87364 0.07568 0.08196 0.0
U2766 U 0.85296 0.10008 0.07373 0.0
O2767 O 0.85582 0.11231 0.06676 0.0
O2768 O 0.84772 0.10226 0.06041 0.0
C2769 C 0.85186 0.10977 0.05955 0.0
C2770 C 0.86538 0.08834 0.07569 0.0
C2771 C 0.8567 0.11118 0.05126 0.0
C2772 C 0.87017 0.11459 0.04342 0.0
C2773 C 0.86584 0.11226 0.05116 0.0
C2774 C 0.85636 0.11441 0.03563 0.0
C2775 C 0.86548 0.11582 0.03556 0.0
C2776 C 0.85202 0.11215 0.0434 0.0
C2777 C 0.83457 0.10761 0.08996 0.0
C2778 C 0.82892 0.12154 0.09524 0.0
C2779 C 0.82103 0.10817 0.09837 0.0
C2780 C 0.82729 0.1034 0.09367 0.0
C2781 C 0.82195 0.11725 0.09949 0.0
C2782 C 0.83517 0.11678 0.09052 0.0
C2783 C 0.842 0.10222 0.08683 0.0
O2784 O 0.85784 0.08662 0.07188 0.0
O2785 O 0.86655 0.09674 0.07713 0.0
O2786 O 0.84969 0.10607 0.08635 0.0
O2787 O 0.84051 0.09674 0.08036 0.0
H2788 H 0.85952 0.08945 0.09242 0.0
H2789 H 0.86384 0.08044 0.10492 0.0
H2790 H 0.88083 0.06528 0.08811 0.0
H2791 H 0.87643 0.07436 0.07558 0.0
H2792 H 0.87717 0.11574 0.04371 0.0
H2793 H 0.86964 0.11157 0.05711 0.0
H2794 H 0.85253 0.11516 0.02971 0.0
H2795 H 0.84497 0.11135 0.04331 0.0
H2796 H 0.82975 0.12855 0.0959 0.0
H2797 H 0.8158 0.10464 0.10161 0.0
H2798 H 0.82672 0.09634 0.09339 0.0
H2799 H 0.84069 0.12022 0.08769 0.0
C2800 C 0.68968 0.11679 0.8318 0.0
C2801 C 0.69523 0.11053 0.83566 0.0
C2802 C 0.7009 0.12147 0.84585 0.0
C2803 C 0.7008 0.11286 0.84256 0.0
C2804 C 0.69542 0.12774 0.84187 0.0
C2805 C 0.6899 0.12542 0.83492 0.0
U2806 U 0.67161 0.10197 0.82313 0.0
O2807 O 0.65905 0.10502 0.8168 0.0
O2808 O 0.66877 0.09703 0.80984 0.0
C2809 C 0.66125 0.10122 0.80939 0.0
C2810 C 0.68337 0.1144 0.82483 0.0
C2811 C 0.6595 0.10621 0.80125 0.0
C2812 C 0.65518 0.11962 0.7938 0.0
C2813 C 0.65769 0.11522 0.80143 0.0
C2814 C 0.65657 0.10617 0.78555 0.0
C2815 C 0.65448 0.11514 0.78575 0.0
C2816 C 0.65902 0.10176 0.79322 0.0
C2817 C 0.6648 0.08319 0.83909 0.0
C2818 C 0.65077 0.07727 0.84382 0.0
C2819 C 0.66423 0.06988 0.8478 0.0
C2820 C 0.66905 0.07616 0.84319 0.0
C2821 C 0.65506 0.07055 0.84845 0.0
C2822 C 0.65559 0.08353 0.83917 0.0
C2823 C 0.67013 0.09066 0.83601 0.0
O2824 O 0.68488 0.10705 0.8206 0.0
O2825 O 0.67507 0.11546 0.82689 0.0
O2826 O 0.66626 0.09834 0.83594 0.0
O2827 O 0.67531 0.08937 0.82924 0.0
H2828 H 0.69519 0.10381 0.83342 0.0
H2829 H 0.70501 0.10788 0.84534 0.0
H2830 H 0.69518 0.1344 0.84428 0.0
H2831 H 0.68566 0.13036 0.83209 0.0
H2832 H 0.65349 0.12648 0.79429 0.0
H2833 H 0.65798 0.11885 0.80752 0.0
H2834 H 0.65624 0.10252 0.77949 0.0
H2835 H 0.66038 0.09481 0.7929 0.0
H2836 H 0.6437 0.0779 0.8441 0.0
H2837 H 0.66776 0.06485 0.85135 0.0
H2838 H 0.67614 0.07579 0.84325 0.0
H2839 H 0.65214 0.08886 0.83603 0.0
C2840 C 0.83285 0.90455 0.33176 0.0
C2841 C 0.83335 0.90907 0.33974 0.0
C2842 C 0.82148 0.9002 0.34574 0.0
C2843 C 0.82775 0.90691 0.34666 0.0
C2844 C 0.82095 0.89575 0.33768 0.0
C2845 C 0.8266 0.89791 0.33075 0.0
U2846 U 0.85087 0.91901 0.32309 0.0
O2847 O 0.8634 0.91599 0.31665 0.0
O2848 O 0.85373 0.92424 0.30995 0.0
C2849 C 0.86134 0.92023 0.30945 0.0
C2850 C 0.839 0.90666 0.32462 0.0
C2851 C 0.86332 0.91567 0.30118 0.0
C2852 C 0.86135 0.90355 0.29104 0.0
C2853 C 0.85885 0.90805 0.29865 0.0
C2854 C 0.87264 0.91435 0.28832 0.0
C2855 C 0.86837 0.90657 0.28584 0.0
C2856 C 0.87013 0.91884 0.2959 0.0
C2857 C 0.85765 0.93761 0.3392 0.0
C2858 C 0.87176 0.94394 0.34308 0.0
C2859 C 0.85836 0.95071 0.34821 0.0
C2860 C 0.85346 0.94437 0.34379 0.0
C2861 C 0.86758 0.9504 0.34817 0.0
C2862 C 0.86685 0.9376 0.33863 0.0
C2863 C 0.85235 0.93013 0.33613 0.0
O2864 O 0.83752 0.9141 0.32056 0.0
O2865 O 0.84732 0.9055 0.32654 0.0
O2866 O 0.85628 0.92248 0.33593 0.0
O2867 O 0.84713 0.93147 0.32942 0.0
H2868 H 0.83816 0.9142 0.34066 0.0
H2869 H 0.82847 0.91038 0.35279 0.0
H2870 H 0.81616 0.89062 0.33669 0.0
H2871 H 0.82611 0.89436 0.32463 0.0
H2872 H 0.85784 0.89764 0.28929 0.0
H2873 H 0.85356 0.90551 0.30264 0.0
H2874 H 0.87815 0.91682 0.28461 0.0
H2875 H 0.87367 0.9247 0.29776 0.0
H2876 H 0.87885 0.94359 0.34282 0.0
H2877 H 0.85491 0.95551 0.35213 0.0
H2878 H 0.84638 0.94447 0.34435 0.0
H2879 H 0.87025 0.93248 0.33509 0.0
C2880 C 0.43936 0.36869 0.08543 0.0
C2881 C 0.43059 0.368 0.08816 0.0
C2882 C 0.42554 0.37359 0.07409 0.0
C2883 C 0.42376 0.37047 0.08257 0.0
C2884 C 0.43433 0.37421 0.07135 0.0
C2885 C 0.44117 0.37182 0.07699 0.0
U2886 U 0.44827 0.3532 0.10264 0.0
O2887 O 0.46122 0.34713 0.10443 0.0
O2888 O 0.45584 0.35563 0.11469 0.0
C2889 C 0.46265 0.35114 0.11191 0.0
C2890 C 0.44661 0.36596 0.09125 0.0
C2891 C 0.47124 0.3555 0.11279 0.0
C2892 C 0.4828 0.36483 0.10704 0.0
C2893 C 0.47451 0.36098 0.10619 0.0
C2894 C 0.4846 0.35793 0.12119 0.0
C2895 C 0.48798 0.36331 0.11453 0.0
C2896 C 0.47632 0.35405 0.12031 0.0
C2897 C 0.4316 0.33476 0.10909 0.0
C2898 C 0.427 0.32752 0.12253 0.0
C2899 C 0.42282 0.32149 0.10848 0.0
C2900 C 0.4274 0.32819 0.10426 0.0
C2901 C 0.42232 0.32121 0.11767 0.0
C2902 C 0.43158 0.33424 0.11828 0.0
C2903 C 0.43486 0.34254 0.10437 0.0
O2904 O 0.44521 0.36695 0.09969 0.0
O2905 O 0.45029 0.35842 0.08932 0.0
O2906 O 0.44115 0.34129 0.09862 0.0
O2907 O 0.43571 0.34985 0.10884 0.0
H2908 H 0.429 0.36549 0.0946 0.0
H2909 H 0.41707 0.36977 0.08483 0.0
H2910 H 0.43591 0.37662 0.06487 0.0
H2911 H 0.44789 0.37237 0.07473 0.0
H2912 H 0.48512 0.36906 0.10184 0.0
H2913 H 0.47067 0.36224 0.10036 0.0
H2914 H 0.48842 0.35657 0.12701 0.0
H2915 H 0.47391 0.34984 0.12549 0.0
H2916 H 0.42686 0.32743 0.12961 0.0
H2917 H 0.41922 0.31686 0.1045 0.0
H2918 H 0.42726 0.32848 0.09717 0.0
H2919 H 0.43479 0.33922 0.12218 0.0
C2920 C 0.40293 0.68818 0.83552 0.0
C2921 C 0.40328 0.67942 0.8383 0.0
C2922 C 0.39798 0.67446 0.82408 0.0
C2923 C 0.40079 0.67265 0.83266 0.0
C2924 C 0.39769 0.68323 0.82129 0.0
C2925 C 0.40011 0.69003 0.82697 0.0
U2926 U 0.41841 0.69691 0.85286 0.0
O2927 O 0.42461 0.70978 0.85469 0.0
O2928 O 0.41597 0.70451 0.86488 0.0
C2929 C 0.42055 0.71126 0.86214 0.0
C2930 C 0.4057 0.69537 0.84138 0.0
C2931 C 0.41625 0.71987 0.86297 0.0
C2932 C 0.40694 0.73141 0.85717 0.0
C2933 C 0.41073 0.7231 0.85638 0.0
C2934 C 0.41398 0.7333 0.87126 0.0
C2935 C 0.40856 0.73665 0.8646 0.0
C2936 C 0.4178 0.725 0.87043 0.0
C2937 C 0.43673 0.68014 0.85944 0.0
C2938 C 0.44392 0.67551 0.8729 0.0
C2939 C 0.45003 0.67138 0.85887 0.0
C2940 C 0.44334 0.67595 0.85462 0.0
C2941 C 0.45027 0.67086 0.86806 0.0
C2942 C 0.4372 0.68009 0.86862 0.0
C2943 C 0.42898 0.68344 0.85467 0.0
O2944 O 0.40464 0.69397 0.84981 0.0
O2945 O 0.4133 0.69897 0.8395 0.0
O2946 O 0.4303 0.6897 0.84891 0.0
O2947 O 0.42164 0.68436 0.8591 0.0
H2948 H 0.40555 0.67778 0.84482 0.0
H2949 H 0.40123 0.66596 0.83497 0.0
H2950 H 0.39553 0.68485 0.81473 0.0
H2951 H 0.39982 0.69673 0.82467 0.0
H2952 H 0.40268 0.73371 0.85199 0.0
H2953 H 0.4094 0.71922 0.85059 0.0
H2954 H 0.41542 0.73716 0.87702 0.0
H2955 H 0.42204 0.72261 0.8756 0.0
H2956 H 0.44396 0.67536 0.87998 0.0
H2957 H 0.4547 0.6678 0.8549 0.0
H2958 H 0.44308 0.67584 0.84753 0.0
H2959 H 0.43219 0.68329 0.87251 0.0
C2960 C 0.08341 0.65227 0.58557 0.0
C2961 C 0.09217 0.65289 0.58836 0.0
C2962 C 0.09727 0.64726 0.57432 0.0
C2963 C 0.09901 0.65036 0.58281 0.0
C2964 C 0.08849 0.64671 0.57152 0.0
C2965 C 0.08163 0.64916 0.57711 0.0
U2966 U 0.07442 0.66786 0.60266 0.0
O2967 O 0.06146 0.67393 0.60437 0.0
O2968 O 0.0668 0.66549 0.61469 0.0
C2969 C 0.06 0.66995 0.61187 0.0
C2970 C 0.07613 0.65504 0.59135 0.0
C2971 C 0.05141 0.66558 0.61273 0.0
C2972 C 0.03992 0.65619 0.60697 0.0
C2973 C 0.0482 0.66006 0.60614 0.0
C2974 C 0.03803 0.66318 0.62108 0.0
C2975 C 0.03469 0.65775 0.61443 0.0
C2976 C 0.0463 0.66707 0.62022 0.0
C2977 C 0.09098 0.68636 0.60916 0.0
C2978 C 0.09553 0.69361 0.62261 0.0
C2979 C 0.09967 0.69969 0.60858 0.0
C2980 C 0.09514 0.69297 0.60434 0.0
C2981 C 0.10018 0.69994 0.61778 0.0
C2982 C 0.09098 0.68686 0.61835 0.0
C2983 C 0.08779 0.67855 0.60442 0.0
O2984 O 0.0775 0.6541 0.5998 0.0
O2985 O 0.07247 0.66257 0.58936 0.0
O2986 O 0.08154 0.67976 0.59863 0.0
O2987 O 0.08695 0.67125 0.6089 0.0
H2988 H 0.09374 0.65538 0.59481 0.0
H2989 H 0.1057 0.65101 0.58512 0.0
H2990 H 0.08694 0.64432 0.56503 0.0
H2991 H 0.07493 0.64866 0.57481 0.0
H2992 H 0.03762 0.65192 0.60179 0.0
H2993 H 0.05207 0.65877 0.60034 0.0
H2994 H 0.03417 0.66457 0.62687 0.0
H2995 H 0.04867 0.67132 0.62538 0.0
H2996 H 0.09567 0.69367 0.6297 0.0
H2997 H 0.10325 0.70435 0.60461 0.0
H2998 H 0.09528 0.69269 0.59725 0.0
H2999 H 0.0878 0.68186 0.62224 0.0
C3000 C 0.11828 0.33214 0.3344 0.0
C3001 C 0.11163 0.33769 0.33131 0.0
C3002 C 0.12236 0.34638 0.32326 0.0
C3003 C 0.11364 0.34468 0.32576 0.0
C3004 C 0.129 0.34072 0.32628 0.0
C3005 C 0.12697 0.33367 0.3318 0.0
U3006 U 0.10389 0.32358 0.35256 0.0
O3007 O 0.09824 0.31061 0.35521 0.0
O3008 O 0.10697 0.31669 0.36485 0.0
C3009 C 0.10256 0.30965 0.3626 0.0
C3010 C 0.11623 0.32508 0.34068 0.0
C3011 C 0.10719 0.30125 0.36369 0.0
C3012 C 0.11778 0.29045 0.35874 0.0
C3013 C 0.11357 0.29853 0.35767 0.0
C3014 C 0.10933 0.28776 0.37188 0.0
C3015 C 0.11573 0.28495 0.36586 0.0
C3016 C 0.10511 0.29583 0.3708 0.0
C3017 C 0.08522 0.34008 0.3589 0.0
C3018 C 0.07837 0.34504 0.37242 0.0
C3019 C 0.07188 0.34878 0.35845 0.0
C3020 C 0.07848 0.34411 0.35415 0.0
C3021 C 0.07188 0.34953 0.36763 0.0
C3022 C 0.085 0.34036 0.36809 0.0
C3023 C 0.0929 0.33675 0.35403 0.0
O3024 O 0.11743 0.32712 0.34895 0.0
O3025 O 0.10882 0.32089 0.33929 0.0
O3026 O 0.0916 0.33015 0.34866 0.0
O3027 O 0.10039 0.33631 0.35826 0.0
H3028 H 0.10488 0.33668 0.33326 0.0
H3029 H 0.10833 0.34878 0.32345 0.0
H3030 H 0.13579 0.34187 0.32459 0.0
H3031 H 0.1322 0.32951 0.33418 0.0
H3032 H 0.12257 0.28847 0.35389 0.0
H3033 H 0.11524 0.30261 0.35212 0.0
H3034 H 0.10765 0.28377 0.37749 0.0
H3035 H 0.10021 0.29784 0.37552 0.0
H3036 H 0.0785 0.34537 0.3795 0.0
H3037 H 0.0671 0.35223 0.35451 0.0
H3038 H 0.07856 0.34404 0.34706 0.0
H3039 H 0.09011 0.33729 0.37192 0.0
C3040 C 0.43939 0.65274 0.43523 0.0
C3041 C 0.4307 0.65424 0.43261 0.0
C3042 C 0.42526 0.64869 0.44657 0.0
C3043 C 0.42373 0.65218 0.43817 0.0
C3044 C 0.43399 0.64714 0.44915 0.0
C3045 C 0.44099 0.64914 0.44353 0.0
U3046 U 0.44856 0.6679 0.41803 0.0
O3047 O 0.46162 0.67371 0.41611 0.0
O3048 O 0.45592 0.66539 0.40589 0.0
C3049 C 0.46286 0.66973 0.40858 0.0
C3050 C 0.44677 0.6552 0.42946 0.0
C3051 C 0.47132 0.66516 0.40755 0.0
C3052 C 0.48191 0.65425 0.41226 0.0
C3053 C 0.47386 0.65853 0.41335 0.0
C3054 C 0.48496 0.66318 0.39952 0.0
C3055 C 0.48757 0.6565 0.40531 0.0
C3056 C 0.47691 0.66746 0.40064 0.0
C3057 C 0.43195 0.68647 0.41166 0.0
C3058 C 0.42711 0.69357 0.39824 0.0
C3059 C 0.4231 0.69969 0.4123 0.0
C3060 C 0.42779 0.69306 0.41651 0.0
C3061 C 0.42245 0.69988 0.40311 0.0
C3062 C 0.4318 0.68691 0.40247 0.0
C3063 C 0.43526 0.67871 0.41639 0.0
O3064 O 0.44536 0.65419 0.42102 0.0
O3065 O 0.45058 0.66268 0.43135 0.0
O3066 O 0.44165 0.67994 0.42204 0.0
O3067 O 0.43598 0.67136 0.41196 0.0
H3068 H 0.42928 0.65706 0.42626 0.0
H3069 H 0.41712 0.65332 0.43586 0.0
H3070 H 0.43545 0.64456 0.45559 0.0
H3071 H 0.44765 0.64799 0.44571 0.0
H3072 H 0.48375 0.64925 0.41693 0.0
H3073 H 0.46963 0.65667 0.41874 0.0
H3074 H 0.48908 0.66503 0.39405 0.0
H3075 H 0.47504 0.67255 0.39607 0.0
H3076 H 0.42687 0.69359 0.39116 0.0
H3077 H 0.41952 0.70433 0.41629 0.0
H3078 H 0.42775 0.69281 0.4236 0.0
H3079 H 0.43499 0.68192 0.39857 0.0
C3080 C 0.11967 0.68822 0.18507 0.0
C3081 C 0.11918 0.67945 0.18233 0.0
C3082 C 0.12455 0.67449 0.19651 0.0
C3083 C 0.12164 0.67267 0.18797 0.0
C3084 C 0.12499 0.68327 0.19926 0.0
C3085 C 0.12261 0.69007 0.19357 0.0
U3086 U 0.10419 0.69706 0.16778 0.0
O3087 O 0.09806 0.70996 0.166 0.0
O3088 O 0.10664 0.70467 0.15576 0.0
C3089 C 0.1021 0.71143 0.15854 0.0
C3090 C 0.11693 0.69542 0.17921 0.0
C3091 C 0.10641 0.72004 0.15769 0.0
C3092 C 0.11561 0.73164 0.16352 0.0
C3093 C 0.11183 0.72333 0.16433 0.0
C3094 C 0.10874 0.73341 0.14934 0.0
C3095 C 0.11407 0.73682 0.15604 0.0
C3096 C 0.10494 0.7251 0.15017 0.0
C3097 C 0.0857 0.68051 0.16119 0.0
C3098 C 0.07849 0.67586 0.14775 0.0
C3099 C 0.0722 0.67207 0.1618 0.0
C3100 C 0.07897 0.67655 0.16602 0.0
C3101 C 0.072 0.67143 0.15261 0.0
C3102 C 0.08528 0.68035 0.152 0.0
C3103 C 0.09351 0.68369 0.16596 0.0
O3104 O 0.11795 0.694 0.17078 0.0
O3105 O 0.10936 0.69908 0.18111 0.0
O3106 O 0.09227 0.68992 0.17175 0.0
O3107 O 0.10084 0.68455 0.16151 0.0
H3108 H 0.11681 0.67782 0.17584 0.0
H3109 H 0.12108 0.66598 0.1857 0.0
H3110 H 0.12724 0.68489 0.20579 0.0
H3111 H 0.12301 0.69677 0.19584 0.0
H3112 H 0.1198 0.734 0.16874 0.0
H3113 H 0.11311 0.7195 0.17016 0.0
H3114 H 0.10737 0.73722 0.14352 0.0
H3115 H 0.10076 0.72267 0.14497 0.0
H3116 H 0.07848 0.6756 0.14067 0.0
H3117 H 0.06744 0.66865 0.16579 0.0
H3118 H 0.07918 0.67652 0.17311 0.0
H3119 H 0.09038 0.68337 0.1481 0.0
C3120 C 0.08362 0.36853 0.93569 0.0
C3121 C 0.0924 0.36795 0.93294 0.0
C3122 C 0.09741 0.37354 0.94703 0.0
C3123 C 0.0992 0.37048 0.93853 0.0
C3124 C 0.08862 0.37404 0.94979 0.0
C3125 C 0.08179 0.3716 0.94416 0.0
U3126 U 0.07477 0.3529 0.91858 0.0
O3127 O 0.06176 0.34694 0.91672 0.0
O3128 O 0.06737 0.35522 0.90642 0.0
C3129 C 0.06047 0.35086 0.90917 0.0
C3130 C 0.07639 0.36575 0.92986 0.0
C3131 C 0.05198 0.35536 0.90814 0.0
C3132 C 0.04117 0.36599 0.913 0.0
C3133 C 0.04926 0.36179 0.9141 0.0
C3134 C 0.03844 0.35742 0.89994 0.0
C3135 C 0.03566 0.36389 0.90589 0.0
C3136 C 0.04653 0.35321 0.90106 0.0
C3137 C 0.09141 0.3344 0.91227 0.0
C3138 C 0.0959 0.32715 0.89881 0.0
C3139 C 0.10033 0.32122 0.91282 0.0
C3140 C 0.09574 0.32789 0.91708 0.0
C3141 C 0.10071 0.32091 0.90362 0.0
C3142 C 0.0913 0.33384 0.90309 0.0
C3143 C 0.08815 0.34218 0.917 0.0
O3144 O 0.07783 0.36666 0.92142 0.0
O3145 O 0.07269 0.35824 0.93185 0.0
O3146 O 0.08179 0.34096 0.92269 0.0
O3147 O 0.08738 0.34949 0.91253 0.0
H3148 H 0.09401 0.36549 0.92649 0.0
H3149 H 0.1059 0.36987 0.93625 0.0
H3150 H 0.08702 0.3764 0.95629 0.0
H3151 H 0.07508 0.37206 0.94642 0.0
H3152 H 0.0392 0.37083 0.91779 0.0
H3153 H 0.05337 0.36353 0.91961 0.0
H3154 H 0.03444 0.3557 0.89435 0.0
H3155 H 0.04853 0.34828 0.89637 0.0
H3156 H 0.09594 0.32704 0.89172 0.0
H3157 H 0.10403 0.31664 0.91676 0.0
H3158 H 0.09597 0.32822 0.92416 0.0
H3159 H 0.08798 0.33877 0.89921 0.0
C3160 C 0.40308 0.3323 0.68608 0.0
C3161 C 0.40344 0.34104 0.68323 0.0
C3162 C 0.39817 0.34612 0.69742 0.0
C3163 C 0.40097 0.34786 0.68882 0.0
C3164 C 0.39787 0.33737 0.70028 0.0
C3165 C 0.40027 0.33053 0.69465 0.0
U3166 U 0.41857 0.3233 0.66887 0.0
O3167 O 0.42457 0.31034 0.66709 0.0
O3168 O 0.41609 0.31573 0.65683 0.0
C3169 C 0.42056 0.30892 0.6596 0.0
C3170 C 0.4058 0.32505 0.68026 0.0
C3171 C 0.41617 0.30036 0.6587 0.0
C3172 C 0.40672 0.28889 0.66439 0.0
C3173 C 0.41058 0.29716 0.66525 0.0
C3174 C 0.41384 0.28699 0.65035 0.0
C3175 C 0.40835 0.28366 0.65695 0.0
C3176 C 0.41773 0.29525 0.65123 0.0
C3177 C 0.43714 0.33973 0.66228 0.0
C3178 C 0.44438 0.34412 0.64877 0.0
C3179 C 0.45052 0.34838 0.66275 0.0
C3180 C 0.44379 0.34391 0.66705 0.0
C3181 C 0.45076 0.34879 0.65355 0.0
C3182 C 0.43762 0.33965 0.6531 0.0
C3183 C 0.42934 0.3366 0.66707 0.0
O3184 O 0.40481 0.32643 0.67182 0.0
O3185 O 0.41334 0.32136 0.6822 0.0
O3186 O 0.43055 0.33034 0.67284 0.0
O3187 O 0.42199 0.3358 0.66264 0.0
H3188 H 0.4057 0.34262 0.6767 0.0
H3189 H 0.40141 0.35453 0.68646 0.0
H3190 H 0.39571 0.33581 0.70686 0.0
H3191 H 0.39997 0.32385 0.697 0.0
H3192 H 0.40241 0.2866 0.66953 0.0
H3193 H 0.40924 0.30103 0.67104 0.0
H3194 H 0.41529 0.28313 0.64458 0.0
H3195 H 0.42203 0.29761 0.64611 0.0
H3196 H 0.44443 0.34419 0.64168 0.0
H3197 H 0.45521 0.35198 0.66667 0.0
H3198 H 0.44352 0.34412 0.67414 0.0
H3199 H 0.4326 0.33644 0.64925 0.0
C3200 C 0.08492 0.43853 0.36808 0.0
C3201 C 0.08039 0.43384 0.36158 0.0
C3202 C 0.07343 0.42474 0.37269 0.0
C3203 C 0.07467 0.42706 0.36386 0.0
C3204 C 0.07798 0.42943 0.37918 0.0
C3205 C 0.08365 0.43628 0.37689 0.0
U3206 U 0.10291 0.44714 0.35325 0.0
O3207 O 0.10533 0.4601 0.3475 0.0
O3208 O 0.11514 0.45426 0.35623 0.0
C3209 C 0.11272 0.46122 0.35179 0.0
C3210 C 0.09121 0.44552 0.36574 0.0
C3211 C 0.1137 0.46971 0.35629 0.0
C3212 C 0.10778 0.4815 0.36521 0.0
C3213 C 0.10691 0.4732 0.36141 0.0
C3214 C 0.12233 0.48284 0.35902 0.0
C3215 C 0.11547 0.48647 0.36399 0.0
C3216 C 0.12144 0.47455 0.35519 0.0
C3217 C 0.10928 0.43094 0.33442 0.0
C3218 C 0.12287 0.42663 0.32725 0.0
C3219 C 0.10892 0.42229 0.32106 0.0
C3220 C 0.10456 0.42673 0.32777 0.0
C3221 C 0.11814 0.42195 0.32086 0.0
C3222 C 0.11848 0.43108 0.33398 0.0
C3223 C 0.10443 0.43405 0.34219 0.0
O3224 O 0.09952 0.44352 0.36681 0.0
O3225 O 0.08967 0.44968 0.35836 0.0
O3226 O 0.09889 0.44054 0.34104 0.0
O3227 O 0.10877 0.43452 0.34962 0.0
H3228 H 0.08134 0.43534 0.35471 0.0
H3229 H 0.07138 0.42349 0.3587 0.0
H3230 H 0.07713 0.42783 0.38604 0.0
H3231 H 0.0871 0.43978 0.38201 0.0
H3232 H 0.10242 0.48403 0.36911 0.0
H3233 H 0.1009 0.46955 0.36239 0.0
H3234 H 0.12831 0.48649 0.3579 0.0
H3235 H 0.12675 0.47197 0.35125 0.0
H3236 H 0.12997 0.42661 0.32723 0.0
H3237 H 0.10503 0.41867 0.31637 0.0
H3238 H 0.09746 0.42648 0.32801 0.0
H3239 H 0.12229 0.43431 0.33902 0.0
C3240 C 0.33346 0.33524 0.11853 0.0
C3241 C 0.34223 0.33799 0.11793 0.0
C3242 C 0.34727 0.32394 0.12354 0.0
C3243 C 0.34905 0.33243 0.12045 0.0
C3244 C 0.33849 0.32117 0.12407 0.0
C3245 C 0.33165 0.32678 0.12163 0.0
U3246 U 0.32456 0.35229 0.10287 0.0
O3247 O 0.31155 0.3541 0.09691 0.0
O3248 O 0.31713 0.36443 0.10518 0.0
C3249 C 0.31023 0.36166 0.10082 0.0
C3250 C 0.32621 0.34104 0.11575 0.0
C3251 C 0.30174 0.36266 0.10533 0.0
C3252 C 0.29088 0.35768 0.11585 0.0
C3253 C 0.29897 0.35661 0.11164 0.0
C3254 C 0.28825 0.3709 0.10752 0.0
C3255 C 0.28541 0.36485 0.11386 0.0
C3256 C 0.29634 0.36981 0.1033 0.0
C3257 C 0.34119 0.35859 0.08436 0.0
C3258 C 0.3457 0.37204 0.07709 0.0
C3259 C 0.35009 0.35802 0.07116 0.0
C3260 C 0.3455 0.35378 0.07784 0.0
C3261 C 0.35049 0.36721 0.07085 0.0
C3262 C 0.3411 0.36777 0.0838 0.0
C3263 C 0.33793 0.35388 0.09215 0.0
O3264 O 0.32764 0.34948 0.11665 0.0
O3265 O 0.32252 0.33903 0.10824 0.0
O3266 O 0.33159 0.34818 0.09094 0.0
O3267 O 0.33715 0.35836 0.09946 0.0
H3268 H 0.34383 0.34444 0.11544 0.0
H3269 H 0.35574 0.33471 0.11982 0.0
H3270 H 0.33691 0.31468 0.12645 0.0
H3271 H 0.32494 0.32451 0.12211 0.0
H3272 H 0.28887 0.35281 0.12059 0.0
H3273 H 0.30305 0.35104 0.11329 0.0
H3274 H 0.28429 0.37655 0.10589 0.0
H3275 H 0.29839 0.37457 0.09847 0.0
H3276 H 0.34576 0.37912 0.07698 0.0
H3277 H 0.35377 0.35406 0.06657 0.0
H3278 H 0.34571 0.34669 0.07817 0.0
H3279 H 0.3378 0.37166 0.08873 0.0
C3280 C 0.43605 0.58249 0.86886 0.0
C3281 C 0.43329 0.59126 0.86854 0.0
C3282 C 0.44754 0.59616 0.87384 0.0
C3283 C 0.43895 0.59801 0.87105 0.0
C3284 C 0.45032 0.58738 0.87409 0.0
C3285 C 0.44461 0.58061 0.87166 0.0
U3286 U 0.41881 0.57372 0.85327 0.0
O3287 O 0.41691 0.56073 0.84733 0.0
O3288 O 0.40663 0.56635 0.85564 0.0
C3289 C 0.40936 0.55945 0.85128 0.0
C3290 C 0.43016 0.57532 0.86609 0.0
C3291 C 0.40835 0.55099 0.85581 0.0
C3292 C 0.41304 0.54043 0.86674 0.0
C3293 C 0.41412 0.54848 0.86248 0.0
C3294 C 0.40037 0.53733 0.8577 0.0
C3295 C 0.40613 0.53475 0.86443 0.0
C3296 C 0.40147 0.54537 0.85345 0.0
C3297 C 0.4125 0.59035 0.83477 0.0
C3298 C 0.39905 0.59498 0.82753 0.0
C3299 C 0.41313 0.59916 0.82152 0.0
C3300 C 0.41735 0.59456 0.82821 0.0
C3301 C 0.40392 0.59966 0.82123 0.0
C3302 C 0.4033 0.59038 0.83425 0.0
C3303 C 0.41722 0.58707 0.84255 0.0
O3304 O 0.42172 0.57679 0.86703 0.0
O3305 O 0.43211 0.57162 0.85856 0.0
O3306 O 0.4229 0.58072 0.84132 0.0
O3307 O 0.41275 0.58631 0.84987 0.0
H3308 H 0.42676 0.59292 0.86628 0.0
H3309 H 0.43665 0.6047 0.87064 0.0
H3310 H 0.45689 0.58575 0.87624 0.0
H3311 H 0.4469 0.57391 0.87192 0.0
H3312 H 0.41769 0.53862 0.87178 0.0
H3313 H 0.41948 0.55272 0.86439 0.0
H3314 H 0.39493 0.53319 0.85581 0.0
H3315 H 0.39693 0.54722 0.84832 0.0
H3316 H 0.39195 0.59511 0.82744 0.0
H3317 H 0.41712 0.60276 0.8169 0.0
H3318 H 0.42445 0.59469 0.82851 0.0
H3319 H 0.39939 0.58716 0.83921 0.0
C3320 C 0.18966 0.68513 0.61817 0.0
C3321 C 0.18098 0.68245 0.6167 0.0
C3322 C 0.17548 0.6964 0.62221 0.0
C3323 C 0.17398 0.68799 0.61875 0.0
C3324 C 0.1842 0.69904 0.62373 0.0
C3325 C 0.19122 0.69344 0.62173 0.0
U3326 U 0.19882 0.66784 0.6031 0.0
O3327 O 0.21178 0.66599 0.59706 0.0
O3328 O 0.20641 0.65583 0.60567 0.0
C3329 C 0.21322 0.65856 0.60115 0.0
C3330 C 0.19706 0.67939 0.61569 0.0
C3331 C 0.22181 0.65771 0.60549 0.0
C3332 C 0.23342 0.66355 0.6147 0.0
C3333 C 0.22512 0.66437 0.61088 0.0
C3334 C 0.23515 0.6493 0.60797 0.0
C3335 C 0.23858 0.65602 0.61325 0.0
C3336 C 0.22686 0.65016 0.60411 0.0
C3337 C 0.18209 0.6612 0.58472 0.0
C3338 C 0.17721 0.64776 0.57767 0.0
C3339 C 0.17328 0.66179 0.57145 0.0
C3340 C 0.17796 0.66602 0.57808 0.0
C3341 C 0.1726 0.65261 0.57131 0.0
C3342 C 0.18189 0.65201 0.58433 0.0
C3343 C 0.18541 0.66597 0.59245 0.0
O3344 O 0.19573 0.67096 0.61681 0.0
O3345 O 0.20078 0.68122 0.60815 0.0
O3346 O 0.1917 0.6717 0.59113 0.0
O3347 O 0.18628 0.66157 0.5998 0.0
H3348 H 0.17959 0.67609 0.6139 0.0
H3349 H 0.16738 0.68564 0.61764 0.0
H3350 H 0.18563 0.70549 0.62628 0.0
H3351 H 0.19787 0.69566 0.62285 0.0
H3352 H 0.23579 0.66878 0.61886 0.0
H3353 H 0.2213 0.67023 0.61208 0.0
H3354 H 0.23895 0.64346 0.60666 0.0
H3355 H 0.22442 0.64494 0.59998 0.0
H3356 H 0.17694 0.64068 0.57769 0.0
H3357 H 0.16975 0.66577 0.56677 0.0
H3358 H 0.17796 0.67311 0.57828 0.0
H3359 H 0.18503 0.64812 0.58935 0.0
C3360 C 0.08408 0.58133 0.15453 0.0
C3361 C 0.08112 0.58706 0.16107 0.0
C3362 C 0.07307 0.59563 0.15024 0.0
C3363 C 0.07564 0.59408 0.15897 0.0
C3364 C 0.07594 0.58977 0.14372 0.0
C3365 C 0.0814 0.58269 0.14585 0.0
U3366 U 0.10318 0.57332 0.16806 0.0
O3367 O 0.10618 0.56067 0.17424 0.0
O3368 O 0.11513 0.56609 0.1644 0.0
C3369 C 0.11319 0.55936 0.1694 0.0
C3370 C 0.09038 0.57428 0.15662 0.0
C3371 C 0.11385 0.55069 0.16523 0.0
C3372 C 0.10772 0.53904 0.15629 0.0
C3373 C 0.10706 0.5474 0.15999 0.0
C3374 C 0.12203 0.5372 0.1629 0.0
C3375 C 0.11519 0.5338 0.15774 0.0
C3376 C 0.12135 0.54556 0.16662 0.0
C3377 C 0.11151 0.59089 0.18489 0.0
C3378 C 0.12132 0.60266 0.18927 0.0
C3379 C 0.11494 0.59327 0.20031 0.0
C3380 C 0.11063 0.58851 0.19374 0.0
C3381 C 0.12019 0.60054 0.19817 0.0
C3382 C 0.11704 0.59792 0.18274 0.0
C3383 C 0.10582 0.58714 0.17797 0.0
O3384 O 0.09858 0.57603 0.15465 0.0
O3385 O 0.0895 0.57063 0.16437 0.0
O3386 O 0.10046 0.58075 0.18012 0.0
O3387 O 0.10932 0.58617 0.17016 0.0
H3388 H 0.08315 0.5862 0.16781 0.0
H3389 H 0.07344 0.59833 0.1642 0.0
H3390 H 0.0742 0.59079 0.13693 0.0
H3391 H 0.08367 0.57839 0.14069 0.0
H3392 H 0.10239 0.53669 0.15224 0.0
H3393 H 0.10124 0.55128 0.1588 0.0
H3394 H 0.12784 0.53335 0.16421 0.0
H3395 H 0.12666 0.54799 0.17065 0.0
H3396 H 0.12513 0.60831 0.18733 0.0
H3397 H 0.11398 0.59139 0.20708 0.0
H3398 H 0.10635 0.58318 0.19564 0.0
H3399 H 0.11772 0.60003 0.17601 0.0
C3400 C 0.1895 0.33564 0.9022 0.0
C3401 C 0.18072 0.33835 0.90289 0.0
C3402 C 0.1757 0.32429 0.89726 0.0
C3403 C 0.17391 0.33275 0.90039 0.0
C3404 C 0.1845 0.32156 0.89663 0.0
C3405 C 0.19133 0.32721 0.89905 0.0
U3406 U 0.19837 0.35283 0.91774 0.0
O3407 O 0.21131 0.35463 0.92382 0.0
O3408 O 0.20594 0.36488 0.91533 0.0
C3409 C 0.21275 0.36211 0.91981 0.0
C3410 C 0.19673 0.34147 0.90495 0.0
C3411 C 0.22133 0.36299 0.91544 0.0
C3412 C 0.23286 0.35724 0.90607 0.0
C3413 C 0.22458 0.35639 0.90993 0.0
C3414 C 0.2347 0.37136 0.91302 0.0
C3415 C 0.23806 0.36471 0.9076 0.0
C3416 C 0.22643 0.37049 0.91691 0.0
C3417 C 0.18169 0.35926 0.9362 0.0
C3418 C 0.17709 0.37268 0.94347 0.0
C3419 C 0.17292 0.35863 0.94948 0.0
C3420 C 0.1775 0.35441 0.94277 0.0
C3421 C 0.17242 0.36781 0.94977 0.0
C3422 C 0.18167 0.36844 0.93673 0.0
C3423 C 0.18496 0.35454 0.9284 0.0
O3424 O 0.19531 0.3499 0.90398 0.0
O3425 O 0.2004 0.33953 0.91249 0.0
O3426 O 0.19125 0.3488 0.92964 0.0
O3427 O 0.18581 0.35902 0.9211 0.0
H3428 H 0.17911 0.34478 0.90541 0.0
H3429 H 0.1672 0.335 0.90109 0.0
H3430 H 0.1861 0.3151 0.89421 0.0
H3431 H 0.19805 0.32497 0.89851 0.0
H3432 H 0.23517 0.35205 0.90182 0.0
H3433 H 0.22072 0.35057 0.90866 0.0
H3434 H 0.23853 0.37716 0.91439 0.0
H3435 H 0.22403 0.37565 0.92114 0.0
H3436 H 0.17695 0.37976 0.94356 0.0
H3437 H 0.16933 0.35464 0.95411 0.0
H3438 H 0.17737 0.34733 0.94246 0.0
H3439 H 0.18488 0.37235 0.93176 0.0
C3440 C 0.43586 0.43792 0.65278 0.0
C3441 C 0.43322 0.42925 0.65431 0.0
C3442 C 0.44719 0.42378 0.64877 0.0
C3443 C 0.43878 0.42228 0.65227 0.0
C3444 C 0.4498 0.43249 0.6472 0.0
C3445 C 0.44418 0.43948 0.64918 0.0
U3446 U 0.4186 0.44714 0.66788 0.0
O3447 O 0.41674 0.46017 0.67372 0.0
O3448 O 0.40651 0.4546 0.6653 0.0
C3449 C 0.40925 0.4615 0.66966 0.0
C3450 C 0.4301 0.44529 0.65523 0.0
C3451 C 0.40834 0.46996 0.66511 0.0
C3452 C 0.41373 0.48094 0.65493 0.0
C3453 C 0.41469 0.47285 0.65914 0.0
C3454 C 0.40002 0.48331 0.66257 0.0
C3455 C 0.40637 0.48629 0.65659 0.0
C3456 C 0.401 0.47523 0.66678 0.0
C3457 C 0.41208 0.43061 0.68646 0.0
C3458 C 0.39866 0.42575 0.69358 0.0
C3459 C 0.41274 0.42191 0.69977 0.0
C3460 C 0.41695 0.42655 0.6931 0.0
C3461 C 0.40355 0.42121 0.69996 0.0
C3462 C 0.40288 0.43039 0.68687 0.0
C3463 C 0.41683 0.43388 0.67868 0.0
O3464 O 0.42165 0.44392 0.65418 0.0
O3465 O 0.43197 0.44909 0.66272 0.0
O3466 O 0.42254 0.44021 0.67992 0.0
O3467 O 0.4124 0.43463 0.67134 0.0
H3468 H 0.42686 0.42786 0.65713 0.0
H3469 H 0.43645 0.41569 0.65342 0.0
H3470 H 0.45625 0.43392 0.64462 0.0
H3471 H 0.44637 0.44612 0.64802 0.0
H3472 H 0.41883 0.48305 0.65048 0.0
H3473 H 0.42041 0.46887 0.65776 0.0
H3474 H 0.39423 0.48717 0.66393 0.0
H3475 H 0.39601 0.47309 0.67135 0.0
H3476 H 0.39156 0.42546 0.69358 0.0
H3477 H 0.41676 0.41842 0.70446 0.0
H3478 H 0.42405 0.42656 0.69288 0.0
H3479 H 0.39896 0.43348 0.68184 0.0
C3480 C 0.33325 0.68534 0.40258 0.0
C3481 C 0.34201 0.68258 0.40324 0.0
C3482 C 0.34709 0.69662 0.39762 0.0
C3483 C 0.34885 0.68814 0.40073 0.0
C3484 C 0.33831 0.6994 0.39703 0.0
C3485 C 0.33146 0.69379 0.39946 0.0
U3486 U 0.32429 0.66821 0.41813 0.0
O3487 O 0.31134 0.66646 0.42421 0.0
O3488 O 0.31668 0.65618 0.41573 0.0
C3489 C 0.30988 0.65897 0.42022 0.0
C3490 C 0.32598 0.67955 0.40534 0.0
C3491 C 0.30128 0.65808 0.41589 0.0
C3492 C 0.28964 0.66386 0.40668 0.0
C3493 C 0.29795 0.66471 0.41048 0.0
C3494 C 0.28796 0.64964 0.41348 0.0
C3495 C 0.28451 0.65633 0.40818 0.0
C3496 C 0.29626 0.65053 0.41731 0.0
C3497 C 0.34086 0.66169 0.43662 0.0
C3498 C 0.34539 0.64823 0.44385 0.0
C3499 C 0.34955 0.66225 0.44996 0.0
C3500 C 0.34502 0.6665 0.44324 0.0
C3501 C 0.35004 0.65305 0.4502 0.0
C3502 C 0.34085 0.65251 0.43711 0.0
C3503 C 0.33767 0.66645 0.42882 0.0
O3504 O 0.32736 0.67111 0.40438 0.0
O3505 O 0.32232 0.68152 0.41288 0.0
O3506 O 0.3314 0.67223 0.43005 0.0
O3507 O 0.33682 0.66198 0.42151 0.0
H3508 H 0.34359 0.67614 0.40574 0.0
H3509 H 0.35554 0.68585 0.4014 0.0
H3510 H 0.33675 0.70588 0.39463 0.0
H3511 H 0.32475 0.69607 0.39895 0.0
H3512 H 0.28726 0.66907 0.40252 0.0
H3513 H 0.30176 0.67057 0.40925 0.0
H3514 H 0.28417 0.6438 0.41482 0.0
H3515 H 0.29872 0.64533 0.42146 0.0
H3516 H 0.34552 0.64115 0.4439 0.0
H3517 H 0.35314 0.6662 0.45462 0.0
H3518 H 0.34517 0.67359 0.44297 0.0
H3519 H 0.33766 0.64863 0.4321 0.0
C3520 C 0.36849 0.08336 0.43906 0.0
C3521 C 0.36206 0.07924 0.43393 0.0
C3522 C 0.37335 0.07187 0.42536 0.0
C3523 C 0.36446 0.07352 0.42719 0.0
C3524 C 0.37978 0.07603 0.4305 0.0
C3525 C 0.37736 0.0817 0.4373 0.0
U3526 U 0.35338 0.10122 0.44743 0.0
O3527 O 0.34755 0.10369 0.46035 0.0
O3528 O 0.3562 0.11352 0.45445 0.0
C3529 C 0.35174 0.11113 0.46142 0.0
C3530 C 0.36603 0.08965 0.446 0.0
C3531 C 0.35621 0.11225 0.46991 0.0
C3532 C 0.36544 0.10665 0.48162 0.0
C3533 C 0.36164 0.10567 0.47333 0.0
C3534 C 0.35862 0.12088 0.4831 0.0
C3535 C 0.36392 0.11423 0.48665 0.0
C3536 C 0.35479 0.11988 0.47482 0.0
C3537 C 0.3346 0.10729 0.43106 0.0
C3538 C 0.32737 0.1208 0.42668 0.0
C3539 C 0.32133 0.10683 0.42225 0.0
C3540 C 0.32802 0.10253 0.42677 0.0
C3541 C 0.32107 0.11603 0.4219 0.0
C3542 C 0.33408 0.11647 0.43121 0.0
C3543 C 0.34238 0.10251 0.43425 0.0
O3544 O 0.36702 0.09794 0.44394 0.0
O3545 O 0.35862 0.08807 0.45009 0.0
O3546 O 0.34122 0.09705 0.4408 0.0
O3547 O 0.34979 0.10689 0.43472 0.0
H3548 H 0.35516 0.08051 0.43506 0.0
H3549 H 0.35935 0.07054 0.42327 0.0
H3550 H 0.38668 0.07487 0.42929 0.0
H3551 H 0.38243 0.08484 0.44114 0.0
H3552 H 0.36961 0.10146 0.48408 0.0
H3553 H 0.36287 0.09975 0.46963 0.0
H3554 H 0.35726 0.12677 0.4868 0.0
H3555 H 0.35061 0.12502 0.47229 0.0
H3556 H 0.3273 0.12788 0.42666 0.0
H3557 H 0.3167 0.10293 0.41856 0.0
H3558 H 0.32831 0.09544 0.42652 0.0
H3559 H 0.33906 0.1203 0.4345 0.0
C3560 C 0.86786 0.43679 0.58149 0.0
C3561 C 0.86125 0.4398 0.58712 0.0
C3562 C 0.87203 0.44777 0.59584 0.0
C3563 C 0.86329 0.44527 0.59417 0.0
C3564 C 0.87863 0.44481 0.5901 0.0
C3565 C 0.87655 0.43937 0.58299 0.0
U3566 U 0.85336 0.41882 0.57268 0.0
O3567 O 0.84771 0.41632 0.55968 0.0
O3568 O 0.85645 0.4066 0.56563 0.0
C3569 C 0.85203 0.40894 0.55863 0.0
C3570 C 0.86577 0.4306 0.57436 0.0
C3571 C 0.8566 0.40793 0.55018 0.0
C3572 C 0.86612 0.41358 0.53873 0.0
C3573 C 0.86219 0.41447 0.54697 0.0
C3574 C 0.8591 0.39948 0.53688 0.0
C3575 C 0.86456 0.40611 0.53354 0.0
C3576 C 0.85515 0.40041 0.54511 0.0
C3577 C 0.83456 0.41248 0.58902 0.0
C3578 C 0.8276 0.39895 0.59378 0.0
C3579 C 0.82129 0.41291 0.59784 0.0
C3580 C 0.82789 0.41722 0.59318 0.0
C3581 C 0.82122 0.40373 0.59845 0.0
C3582 C 0.83422 0.40329 0.58912 0.0
C3583 C 0.84229 0.41731 0.58577 0.0
O3584 O 0.86691 0.4223 0.57631 0.0
O3585 O 0.85839 0.43208 0.57016 0.0
O3586 O 0.84107 0.42275 0.57922 0.0
O3587 O 0.84975 0.41303 0.58532 0.0
H3588 H 0.85449 0.43785 0.58614 0.0
H3589 H 0.85801 0.44752 0.59833 0.0
H3590 H 0.88543 0.4465 0.59122 0.0
H3591 H 0.88176 0.43706 0.57877 0.0
H3592 H 0.87041 0.41874 0.53644 0.0
H3593 H 0.86344 0.42031 0.5508 0.0
H3594 H 0.85771 0.39368 0.53305 0.0
H3595 H 0.85084 0.39528 0.54748 0.0
H3596 H 0.82767 0.39187 0.59399 0.0
H3597 H 0.81659 0.41683 0.60142 0.0
H3598 H 0.82805 0.42431 0.59325 0.0
H3599 H 0.83928 0.39946 0.58593 0.0
C3600 C 0.33661 0.11771 0.33278 0.0
C3601 C 0.33922 0.11619 0.34145 0.0
C3602 C 0.32513 0.12146 0.34686 0.0
C3603 C 0.33358 0.11809 0.3484 0.0
C3604 C 0.32255 0.12302 0.33813 0.0
C3605 C 0.32824 0.12116 0.33116 0.0
U3606 U 0.35527 0.104 0.32423 0.0
O3607 O 0.35776 0.09772 0.31149 0.0
O3608 O 0.36706 0.10738 0.31664 0.0
C3609 C 0.36483 0.10241 0.30998 0.0
C3610 C 0.34252 0.11547 0.32546 0.0
C3611 C 0.36537 0.1066 0.30131 0.0
C3612 C 0.35992 0.11689 0.29047 0.0
C3613 C 0.35917 0.11283 0.29865 0.0
C3614 C 0.37306 0.10851 0.28748 0.0
C3615 C 0.36691 0.11482 0.28478 0.0
C3616 C 0.3723 0.10445 0.29566 0.0
C3617 C 0.36403 0.08743 0.34186 0.0
C3618 C 0.37308 0.08276 0.35412 0.0
C3619 C 0.3681 0.07208 0.34352 0.0
C3620 C 0.36384 0.07873 0.33883 0.0
C3621 C 0.37259 0.07398 0.35135 0.0
C3622 C 0.36885 0.08937 0.34943 0.0
C3623 C 0.35832 0.09432 0.33813 0.0
O3624 O 0.35082 0.11746 0.32668 0.0
O3625 O 0.34143 0.10761 0.32213 0.0
O3626 O 0.35277 0.09209 0.33193 0.0
O3627 O 0.36185 0.10208 0.33692 0.0
H3628 H 0.34564 0.11349 0.34287 0.0
H3629 H 0.33589 0.11695 0.35501 0.0
H3630 H 0.31606 0.1255 0.33667 0.0
H3631 H 0.32608 0.12233 0.32451 0.0
H3632 H 0.35498 0.12161 0.28857 0.0
H3633 H 0.35377 0.11457 0.30292 0.0
H3634 H 0.37857 0.10682 0.28334 0.0
H3635 H 0.37717 0.09968 0.29762 0.0
H3636 H 0.3763 0.0845 0.36018 0.0
H3637 H 0.36767 0.06542 0.34115 0.0
H3638 H 0.36014 0.077 0.33303 0.0
H3639 H 0.36899 0.09598 0.352 0.0
C3640 C 0.6536 0.58468 0.08232 0.0
C3641 C 0.6549 0.58743 0.091 0.0
C3642 C 0.64965 0.57338 0.09649 0.0
C3643 C 0.65289 0.58188 0.09799 0.0
C3644 C 0.64831 0.57066 0.08778 0.0
C3645 C 0.65026 0.57627 0.08077 0.0
U3646 U 0.66865 0.60191 0.07293 0.0
O3647 O 0.67429 0.60382 0.0598 0.0
O3648 O 0.66601 0.61403 0.06559 0.0
C3649 C 0.67028 0.61135 0.05861 0.0
C3650 C 0.65599 0.59045 0.07492 0.0
C3651 C 0.66564 0.6124 0.05021 0.0
C3652 C 0.6546 0.60779 0.03971 0.0
C3653 C 0.65894 0.60665 0.04771 0.0
C3654 C 0.66362 0.62046 0.03661 0.0
C3655 C 0.65687 0.61472 0.03405 0.0
C3656 C 0.66795 0.6193 0.04461 0.0
C3657 C 0.68744 0.60845 0.08921 0.0
C3658 C 0.69453 0.62194 0.09387 0.0
C3659 C 0.70079 0.60796 0.0979 0.0
C3660 C 0.69412 0.60367 0.09333 0.0
C3661 C 0.70093 0.61715 0.09849 0.0
C3662 C 0.68784 0.61763 0.08928 0.0
C3663 C 0.67965 0.60364 0.08606 0.0
O3664 O 0.65497 0.59888 0.07631 0.0
O3665 O 0.66344 0.58857 0.07103 0.0
O3666 O 0.68083 0.59799 0.07968 0.0
O3667 O 0.67225 0.60803 0.08543 0.0
H3668 H 0.65752 0.59387 0.09239 0.0
H3669 H 0.65386 0.58429 0.10458 0.0
H3670 H 0.64593 0.56414 0.08635 0.0
H3671 H 0.64927 0.57399 0.07412 0.0
H3672 H 0.64954 0.60316 0.03791 0.0
H3673 H 0.65707 0.60127 0.05195 0.0
H3674 H 0.66548 0.62592 0.0325 0.0
H3675 H 0.6731 0.62383 0.04645 0.0
H3676 H 0.69451 0.62902 0.09406 0.0
H3677 H 0.7055 0.60402 0.10146 0.0
H3678 H 0.69392 0.59658 0.09342 0.0
H3679 H 0.68278 0.62149 0.08614 0.0
C3680 C 0.68772 0.40362 0.33182 0.0
C3681 C 0.69081 0.4102 0.33743 0.0
C3682 C 0.69877 0.39939 0.34609 0.0
C3683 C 0.69632 0.40812 0.34444 0.0
C3684 C 0.69575 0.39282 0.34036 0.0
C3685 C 0.69027 0.39493 0.3333 0.0
U3686 U 0.66972 0.41821 0.32325 0.0
O3687 O 0.66705 0.42378 0.31024 0.0
O3688 O 0.65732 0.41526 0.31646 0.0
C3689 C 0.65959 0.41957 0.30937 0.0
C3690 C 0.68145 0.40574 0.32476 0.0
C3691 C 0.65838 0.41488 0.30102 0.0
C3692 C 0.66297 0.40393 0.29043 0.0
C3693 C 0.66415 0.40822 0.29844 0.0
C3694 C 0.6502 0.41287 0.28749 0.0
C3695 C 0.65597 0.40619 0.28483 0.0
C3696 C 0.6514 0.41716 0.2955 0.0
C3697 C 0.66363 0.43694 0.33973 0.0
C3698 C 0.65008 0.4439 0.34448 0.0
C3699 C 0.66407 0.44999 0.34883 0.0
C3700 C 0.66839 0.44347 0.34409 0.0
C3701 C 0.65486 0.45013 0.34933 0.0
C3702 C 0.65443 0.43735 0.33974 0.0
C3703 C 0.66845 0.42925 0.33638 0.0
O3704 O 0.67316 0.40467 0.32682 0.0
O3705 O 0.68293 0.4131 0.32055 0.0
O3706 O 0.67377 0.43049 0.32973 0.0
O3707 O 0.66416 0.4218 0.33601 0.0
H3708 H 0.68889 0.41696 0.33647 0.0
H3709 H 0.69863 0.41338 0.3486 0.0
H3710 H 0.69741 0.38602 0.34147 0.0
H3711 H 0.68789 0.38974 0.32908 0.0
H3712 H 0.66763 0.39892 0.28856 0.0
H3713 H 0.6696 0.40639 0.30261 0.0
H3714 H 0.64469 0.41472 0.28342 0.0
H3715 H 0.64686 0.42228 0.29739 0.0
H3716 H 0.64299 0.44388 0.34461 0.0
H3717 H 0.66799 0.45458 0.35255 0.0
H3718 H 0.67549 0.44325 0.34423 0.0
H3719 H 0.65059 0.4324 0.3364 0.0
C3720 C 0.15499 0.93699 0.93913 0.0
C3721 C 0.16158 0.94001 0.93346 0.0
C3722 C 0.15075 0.94797 0.92481 0.0
C3723 C 0.15949 0.94547 0.92642 0.0
C3724 C 0.14418 0.94502 0.93058 0.0
C3725 C 0.14629 0.93958 0.93767 0.0
U3726 U 0.16954 0.91903 0.94787 0.0
O3727 O 0.17523 0.91652 0.96085 0.0
O3728 O 0.16649 0.9068 0.9549 0.0
C3729 C 0.17092 0.90915 0.9619 0.0
C3730 C 0.15712 0.9308 0.94624 0.0
C3731 C 0.16636 0.90813 0.97035 0.0
C3732 C 0.1568 0.91377 0.98177 0.0
C3733 C 0.16073 0.91466 0.97354 0.0
C3734 C 0.1639 0.89972 0.98366 0.0
C3735 C 0.15839 0.90632 0.98699 0.0
C3736 C 0.16785 0.90063 0.97544 0.0
C3737 C 0.18831 0.91267 0.93152 0.0
C3738 C 0.19529 0.8991 0.92689 0.0
C3739 C 0.20156 0.91303 0.92268 0.0
C3740 C 0.19497 0.91738 0.92729 0.0
C3741 C 0.20166 0.90383 0.92216 0.0
C3742 C 0.18867 0.90348 0.93152 0.0
C3743 C 0.18059 0.91753 0.93475 0.0
O3744 O 0.15599 0.92251 0.94427 0.0
O3745 O 0.16451 0.93229 0.95041 0.0
O3746 O 0.18182 0.92297 0.9413 0.0
O3747 O 0.17313 0.91325 0.9352 0.0
H3748 H 0.16834 0.93805 0.93441 0.0
H3749 H 0.16475 0.94773 0.92224 0.0
H3750 H 0.13737 0.94671 0.9295 0.0
H3751 H 0.1411 0.93727 0.94192 0.0
H3752 H 0.15248 0.91891 0.98405 0.0
H3753 H 0.15945 0.92047 0.96969 0.0
H3754 H 0.16532 0.89394 0.98751 0.0
H3755 H 0.17219 0.89553 0.97309 0.0
H3756 H 0.19523 0.89202 0.92675 0.0
H3757 H 0.20625 0.91691 0.91904 0.0
H3758 H 0.19479 0.92446 0.92716 0.0
H3759 H 0.18363 0.89968 0.93476 0.0
C3760 C 0.33688 0.90219 0.18825 0.0
C3761 C 0.33955 0.90283 0.17947 0.0
C3762 C 0.32543 0.89723 0.17454 0.0
C3763 C 0.33391 0.90033 0.1727 0.0
C3764 C 0.32273 0.89665 0.18334 0.0
C3765 C 0.32843 0.89908 0.19012 0.0
U3766 U 0.35408 0.91777 0.19708 0.0
O3767 O 0.35595 0.92368 0.21009 0.0
O3768 O 0.36626 0.91541 0.20445 0.0
C3769 C 0.36351 0.91974 0.21136 0.0
C3770 C 0.34276 0.90494 0.19544 0.0
C3771 C 0.36452 0.91518 0.21981 0.0
C3772 C 0.35981 0.90422 0.23034 0.0
C3773 C 0.35873 0.90851 0.22231 0.0
C3774 C 0.3725 0.91321 0.23347 0.0
C3775 C 0.36673 0.90649 0.23602 0.0
C3776 C 0.3714 0.9175 0.22544 0.0
C3777 C 0.36034 0.93633 0.18048 0.0
C3778 C 0.37376 0.94359 0.17581 0.0
C3779 C 0.35966 0.9496 0.17172 0.0
C3780 C 0.35546 0.9429 0.17632 0.0
C3781 C 0.36886 0.94989 0.17118 0.0
C3782 C 0.36954 0.93686 0.18041 0.0
C3783 C 0.35564 0.92853 0.18375 0.0
O3784 O 0.3512 0.90403 0.19395 0.0
O3785 O 0.34079 0.91244 0.19916 0.0
O3786 O 0.34996 0.92973 0.19011 0.0
O3787 O 0.36013 0.92122 0.18449 0.0
H3788 H 0.34599 0.90533 0.17782 0.0
H3789 H 0.33614 0.90099 0.166 0.0
H3790 H 0.31625 0.89426 0.18497 0.0
H3791 H 0.32621 0.89857 0.19684 0.0
H3792 H 0.35514 0.89919 0.23213 0.0
H3793 H 0.35336 0.90663 0.21805 0.0
H3794 H 0.37795 0.91507 0.23761 0.0
H3795 H 0.37596 0.92261 0.2236 0.0
H3796 H 0.38085 0.94368 0.17564 0.0
H3797 H 0.35565 0.95423 0.16816 0.0
H3798 H 0.34836 0.94259 0.17622 0.0
H3799 H 0.37347 0.93189 0.1836 0.0
C3800 C 0.18626 0.11725 0.68857 0.0
C3801 C 0.18362 0.11578 0.6799 0.0
C3802 C 0.19764 0.12123 0.67447 0.0
C3803 C 0.1892 0.11781 0.67294 0.0
C3804 C 0.20025 0.12272 0.6832 0.0
C3805 C 0.19461 0.12075 0.69018 0.0
U3806 U 0.16782 0.10327 0.69717 0.0
O3807 O 0.16542 0.09702 0.70995 0.0
O3808 O 0.15599 0.10653 0.70475 0.0
C3809 C 0.15828 0.10162 0.71144 0.0
C3810 C 0.1804 0.11491 0.6959 0.0
C3811 C 0.15768 0.10585 0.72009 0.0
C3812 C 0.16303 0.11623 0.7309 0.0
C3813 C 0.16383 0.11214 0.72273 0.0
C3814 C 0.14994 0.10777 0.73389 0.0
C3815 C 0.15604 0.11414 0.73658 0.0
C3816 C 0.15076 0.10368 0.72572 0.0
C3817 C 0.15922 0.08653 0.67961 0.0
C3818 C 0.14975 0.08194 0.66765 0.0
C3819 C 0.15563 0.07111 0.67759 0.0
C3820 C 0.15988 0.07775 0.6823 0.0
C3821 C 0.15068 0.0731 0.67007 0.0
C3822 C 0.15396 0.08855 0.67235 0.0
C3823 C 0.16488 0.09349 0.68332 0.0
O3824 O 0.17207 0.11679 0.6947 0.0
O3825 O 0.18162 0.10707 0.69923 0.0
O3826 O 0.17045 0.09134 0.68952 0.0
O3827 O 0.16128 0.10122 0.6845 0.0
H3828 H 0.17722 0.11304 0.67849 0.0
H3829 H 0.18687 0.11671 0.66633 0.0
H3830 H 0.20672 0.12525 0.68465 0.0
H3831 H 0.19679 0.12187 0.69683 0.0
H3832 H 0.16794 0.12099 0.7328 0.0
H3833 H 0.16923 0.11389 0.71847 0.0
H3834 H 0.14444 0.10606 0.73803 0.0
H3835 H 0.14593 0.09887 0.72377 0.0
H3836 H 0.14616 0.08376 0.66181 0.0
H3837 H 0.15643 0.06439 0.6797 0.0
H3838 H 0.16394 0.07596 0.68784 0.0
H3839 H 0.15345 0.09522 0.67002 0.0
H3840 H 0.1223 0.22931 0.38117 0.0
C3841 C 0.12844 0.22671 0.38362 0.0
C3842 C 0.12838 0.21954 0.38938 0.0
C3843 C 0.13646 0.23005 0.38048 0.0
H3844 H 0.13626 0.21036 0.39662 0.0
C3845 C 0.13635 0.21598 0.39229 0.0
C3846 C 0.1444 0.21933 0.38938 0.0
C3847 C 0.14439 0.22635 0.38345 0.0
C3848 C 0.13667 0.23669 0.37336 0.0
H3849 H 0.15057 0.22889 0.38105 0.0
C3850 C 0.13215 0.24474 0.374 0.0
C3851 C 0.1329 0.25105 0.36727 0.0
C3852 C 0.14165 0.23492 0.36582 0.0
H3853 H 0.14508 0.22875 0.36511 0.0
C3854 C 0.14222 0.24103 0.35909 0.0
H3855 H 0.12836 0.2462 0.37982 0.0
C3856 C 0.13792 0.24903 0.3598 0.0
H3857 H 0.13848 0.25366 0.35446 0.0
H3858 H 0.14604 0.23956 0.3533 0.0
H3859 H 0.0414 0.87126 0.63301 0.0
C3860 C 0.0443 0.87737 0.63516 0.0
C3861 C 0.05076 0.87727 0.64173 0.0
C3862 C 0.04182 0.8853 0.63116 0.0
H3863 H 0.05978 0.88507 0.64925 0.0
C3864 C 0.05472 0.88517 0.64428 0.0
C3865 C 0.0525 0.89313 0.64025 0.0
C3866 C 0.04592 0.89314 0.63381 0.0
C3867 C 0.03554 0.88535 0.62367 0.0
H3868 H 0.04419 0.89924 0.63063 0.0
C3869 C 0.02765 0.8805 0.62385 0.0
C3870 C 0.02186 0.88063 0.61662 0.0
C3871 C 0.03756 0.89027 0.61616 0.0
H3872 H 0.04363 0.89393 0.61573 0.0
C3873 C 0.03186 0.89045 0.60904 0.0
H3874 H 0.02602 0.87664 0.62958 0.0
C3875 C 0.02408 0.8857 0.60926 0.0
H3876 H 0.01972 0.8861 0.60367 0.0
H3877 H 0.03349 0.89429 0.60332 0.0
H3878 H 0.40088 0.79111 0.88076 0.0
C3879 C 0.39483 0.79399 0.88311 0.0
C3880 C 0.39518 0.80122 0.88879 0.0
C3881 C 0.38669 0.79095 0.87997 0.0
H3882 H 0.38775 0.81076 0.89596 0.0
C3883 C 0.38739 0.80523 0.89153 0.0
C3884 C 0.3792 0.80231 0.88854 0.0
C3885 C 0.37891 0.79507 0.88286 0.0
C3886 C 0.38627 0.78419 0.87293 0.0
H3887 H 0.37264 0.79285 0.8804 0.0
C3888 C 0.39148 0.77652 0.87313 0.0
C3889 C 0.39101 0.77035 0.86624 0.0
C3890 C 0.38067 0.78558 0.86574 0.0
H3891 H 0.37674 0.79146 0.86527 0.0
C3892 C 0.38015 0.77949 0.85899 0.0
H3893 H 0.39587 0.77538 0.87859 0.0
C3894 C 0.38525 0.77194 0.85922 0.0
H3895 H 0.3846 0.76727 0.85392 0.0
H3896 H 0.37578 0.78063 0.85352 0.0
H3897 H 0.47979 0.14859 0.13096 0.0
C3898 C 0.47735 0.14243 0.1335 0.0
C3899 C 0.47019 0.14243 0.1393 0.0
C3900 C 0.48085 0.13447 0.13043 0.0
H3901 H 0.46117 0.13448 0.14666 0.0
C3902 C 0.46679 0.13444 0.14231 0.0
C3903 C 0.47028 0.12644 0.13947 0.0
C3904 C 0.47732 0.12652 0.13354 0.0
C3905 C 0.48749 0.13433 0.12327 0.0
H3906 H 0.47999 0.12035 0.13125 0.0
C3907 C 0.495 0.13976 0.12339 0.0
C3908 C 0.50111 0.1395 0.11642 0.0
C3909 C 0.48617 0.12872 0.11609 0.0
H3910 H 0.48041 0.12459 0.11572 0.0
C3911 C 0.49218 0.12843 0.10924 0.0
H3912 H 0.49608 0.14415 0.12886 0.0
C3913 C 0.49959 0.13374 0.1094 0.0
H3914 H 0.50421 0.13324 0.10404 0.0
H3915 H 0.49109 0.12405 0.10378 0.0
H3916 H 0.12228 0.79174 0.13978 0.0
C3917 C 0.12844 0.79421 0.13724 0.0
C3918 C 0.12842 0.80133 0.13142 0.0
C3919 C 0.13643 0.79076 0.14032 0.0
H3920 H 0.13634 0.81037 0.12406 0.0
C3921 C 0.1364 0.80476 0.12842 0.0
C3922 C 0.14443 0.80132 0.13126 0.0
C3923 C 0.14439 0.79431 0.13721 0.0
C3924 C 0.1366 0.78417 0.14751 0.0
H3925 H 0.15057 0.79168 0.13951 0.0
C3926 C 0.13129 0.77658 0.14736 0.0
C3927 C 0.1316 0.77051 0.15435 0.0
C3928 C 0.14215 0.7856 0.15472 0.0
H3929 H 0.14619 0.79142 0.1551 0.0
C3930 C 0.14248 0.77964 0.1616 0.0
H3931 H 0.12696 0.77542 0.14186 0.0
C3932 C 0.13728 0.77215 0.16142 0.0
H3933 H 0.13781 0.76756 0.1668 0.0
H3934 H 0.1468 0.78082 0.16709 0.0
H3935 H 0.47977 0.87147 0.39035 0.0
C3936 C 0.47687 0.8775 0.388 0.0
C3937 C 0.4696 0.87714 0.38237 0.0
C3938 C 0.47995 0.88563 0.3911 0.0
H3939 H 0.46 0.88454 0.37523 0.0
C3940 C 0.46557 0.88491 0.37964 0.0
C3941 C 0.46852 0.8931 0.38258 0.0
C3942 C 0.4758 0.89339 0.38822 0.0
C3943 C 0.48676 0.88607 0.3981 0.0
H3944 H 0.47805 0.89966 0.39065 0.0
C3945 C 0.4944 0.8808 0.39791 0.0
C3946 C 0.50061 0.88127 0.40478 0.0
C3947 C 0.48545 0.89173 0.40525 0.0
H3948 H 0.47959 0.8957 0.40573 0.0
C3949 C 0.49158 0.89225 0.41198 0.0
H3950 H 0.49548 0.87637 0.39248 0.0
C3951 C 0.4991 0.88709 0.41175 0.0
H3952 H 0.5038 0.88774 0.41702 0.0
H3953 H 0.4905 0.89666 0.41741 0.0
H3954 H 0.40058 0.22941 0.64044 0.0
C3955 C 0.39455 0.22653 0.63804 0.0
C3956 C 0.39494 0.21935 0.63232 0.0
C3957 C 0.38639 0.22955 0.64116 0.0
H3958 H 0.38756 0.20983 0.62505 0.0
C3959 C 0.38716 0.21534 0.62951 0.0
C3960 C 0.37895 0.21823 0.63248 0.0
C3961 C 0.37863 0.22544 0.6382 0.0
C3962 C 0.38592 0.23627 0.64823 0.0
H3963 H 0.37234 0.22764 0.64064 0.0
C3964 C 0.39114 0.24393 0.64811 0.0
C3965 C 0.39064 0.25006 0.65503 0.0
C3966 C 0.38026 0.23486 0.65537 0.0
H3967 H 0.37631 0.22898 0.65578 0.0
C3968 C 0.3797 0.24092 0.66215 0.0
H3969 H 0.39557 0.24508 0.64269 0.0
C3970 C 0.38481 0.24846 0.66199 0.0
H3971 H 0.38413 0.25309 0.66731 0.0
H3972 H 0.37528 0.23975 0.66757 0.0
H3973 H 0.04192 0.1497 0.88812 0.0
C3974 C 0.04442 0.14346 0.88583 0.0
C3975 C 0.05074 0.14325 0.87912 0.0
C3976 C 0.04157 0.13566 0.88982 0.0
H3977 H 0.05926 0.13498 0.87147 0.0
C3978 C 0.05412 0.13514 0.87637 0.0
C3979 C 0.05141 0.12729 0.88029 0.0
C3980 C 0.04509 0.12761 0.88698 0.0
C3981 C 0.03551 0.13587 0.89746 0.0
H3982 H 0.04294 0.12158 0.89002 0.0
C3983 C 0.02772 0.14088 0.89741 0.0
C3984 C 0.02207 0.14089 0.90475 0.0
C3985 C 0.0376 0.13095 0.90496 0.0
H3986 H 0.04358 0.12715 0.90525 0.0
C3987 C 0.03206 0.13096 0.9122 0.0
H3988 H 0.02605 0.14471 0.89167 0.0
C3989 C 0.02436 0.13585 0.91211 0.0
H3990 H 0.02011 0.13556 0.91779 0.0
H3991 H 0.03373 0.12712 0.91792 0.0
H3992 H 0.38184 0.12107 0.22974 0.0
C3993 C 0.38411 0.12707 0.22672 0.0
C3994 C 0.38977 0.12667 0.21947 0.0
C3995 C 0.38089 0.13521 0.22963 0.0
H3996 H 0.39686 0.134 0.20979 0.0
C3997 C 0.39242 0.13441 0.21533 0.0
C3998 C 0.38936 0.1426 0.21814 0.0
C3999 C 0.38365 0.14294 0.22536 0.0
C4000 C 0.37391 0.1357 0.23642 0.0
H4001 H 0.38108 0.1492 0.22748 0.0
C4002 C 0.37458 0.13121 0.24449 0.0
C4003 C 0.36794 0.13208 0.25089 0.0
C4004 C 0.36641 0.14079 0.23476 0.0
H4005 H 0.36563 0.14417 0.22857 0.0
C4006 C 0.35978 0.14151 0.24098 0.0
H4007 H 0.38035 0.12731 0.24588 0.0
C4008 C 0.36053 0.13723 0.24898 0.0
H4009 H 0.35525 0.13789 0.25368 0.0
H4010 H 0.35403 0.14542 0.23959 0.0
H4011 H 0.15047 0.13082 0.47924 0.0
C4012 C 0.14431 0.13336 0.47677 0.0
C4013 C 0.14433 0.13921 0.46967 0.0
C4014 C 0.13631 0.13026 0.4802 0.0
H4015 H 0.13642 0.14658 0.46064 0.0
C4016 C 0.13635 0.14221 0.46623 0.0
C4017 C 0.12832 0.13935 0.46965 0.0
C4018 C 0.12836 0.13338 0.47664 0.0
C4019 C 0.13614 0.12304 0.48676 0.0
H4020 H 0.12217 0.13106 0.47926 0.0
C4021 C 0.14147 0.12313 0.49434 0.0
C4022 C 0.14115 0.11611 0.50037 0.0
C4023 C 0.13058 0.11585 0.48529 0.0
H4024 H 0.12653 0.11551 0.47947 0.0
C4025 C 0.13025 0.10894 0.49122 0.0
H4026 H 0.14581 0.12862 0.49553 0.0
C4027 C 0.13545 0.10906 0.4987 0.0
H4028 H 0.13492 0.10366 0.50325 0.0
H4029 H 0.12591 0.10346 0.49001 0.0
H4030 H 0.14066 0.89916 0.72883 0.0
C4031 C 0.13823 0.89302 0.72623 0.0
C4032 C 0.13243 0.89307 0.71908 0.0
C4033 C 0.14143 0.88503 0.72955 0.0
H4034 H 0.12518 0.88519 0.7099 0.0
C4035 C 0.12954 0.88511 0.71551 0.0
C4036 C 0.1325 0.87708 0.71883 0.0
C4037 C 0.13847 0.87711 0.72584 0.0
C4038 C 0.14857 0.88484 0.73617 0.0
H4039 H 0.1409 0.87094 0.72837 0.0
C4040 C 0.14798 0.88943 0.74418 0.0
C4041 C 0.15474 0.88871 0.75048 0.0
C4042 C 0.15609 0.87981 0.73443 0.0
H4043 H 0.15677 0.87633 0.72828 0.0
C4044 C 0.16285 0.87927 0.74053 0.0
H4045 H 0.14218 0.89326 0.74562 0.0
C4046 C 0.16218 0.88364 0.74849 0.0
H4047 H 0.16755 0.8831 0.75311 0.0
H4048 H 0.16862 0.87541 0.73908 0.0
H4049 H 0.37167 0.88973 0.97921 0.0
C4050 C 0.37784 0.88719 0.97677 0.0
C4051 C 0.37785 0.88129 0.96971 0.0
C4052 C 0.38582 0.89033 0.9802 0.0
H4053 H 0.38581 0.87388 0.96073 0.0
C4054 C 0.38585 0.87829 0.9663 0.0
C4055 C 0.39386 0.8812 0.96972 0.0
C4056 C 0.39379 0.88722 0.97667 0.0
C4057 C 0.38595 0.8976 0.9867 0.0
H4058 H 0.39996 0.88958 0.97928 0.0
C4059 C 0.38066 0.89752 0.9943 0.0
C4060 C 0.38094 0.90459 1.00029 0.0
C4061 C 0.39145 0.90483 0.98516 0.0
H4062 H 0.39548 0.90515 0.97933 0.0
C4063 C 0.39175 0.91178 0.99104 0.0
H4064 H 0.37636 0.89201 0.99555 0.0
C4065 C 0.38658 0.91167 0.99855 0.0
H4066 H 0.38708 0.9171 1.00307 0.0
H4067 H 0.39604 0.91728 0.98979 0.0
H4068 H 0.38203 0.89957 0.29083 0.0
C4069 C 0.38431 0.89357 0.29385 0.0
C4070 C 0.38991 0.89399 0.30114 0.0
C4071 C 0.38116 0.88542 0.29089 0.0
H4072 H 0.39697 0.88668 0.31086 0.0
C4073 C 0.39258 0.88625 0.30529 0.0
C4074 C 0.38959 0.87805 0.30243 0.0
C4075 C 0.38395 0.8777 0.29516 0.0
C4076 C 0.37425 0.88491 0.28403 0.0
H4077 H 0.38144 0.87143 0.293 0.0
C4078 C 0.3749 0.88954 0.27603 0.0
C4079 C 0.36834 0.88863 0.26955 0.0
C4080 C 0.36684 0.87965 0.28554 0.0
H4081 H 0.36605 0.87617 0.29167 0.0
C4082 C 0.36029 0.87888 0.27924 0.0
H4083 H 0.3806 0.89357 0.27475 0.0
C4084 C 0.36103 0.88329 0.2713 0.0
H4085 H 0.35581 0.88259 0.26655 0.0
H4086 H 0.35461 0.87484 0.28052 0.0
H4087 H 0.37185 0.13109 0.54156 0.0
C4088 C 0.37801 0.13363 0.54403 0.0
C4089 C 0.37798 0.13949 0.55113 0.0
C4090 C 0.38601 0.13053 0.5406 0.0
H4091 H 0.3859 0.14686 0.56016 0.0
C4092 C 0.38597 0.14249 0.55457 0.0
C4093 C 0.394 0.13961 0.55115 0.0
C4094 C 0.39396 0.13364 0.54416 0.0
C4095 C 0.38618 0.12329 0.53406 0.0
H4096 H 0.40014 0.13132 0.54155 0.0
C4097 C 0.38091 0.12338 0.52645 0.0
C4098 C 0.38124 0.11634 0.52044 0.0
C4099 C 0.39171 0.11608 0.53559 0.0
H4100 H 0.39572 0.11574 0.54143 0.0
C4101 C 0.39205 0.10915 0.52968 0.0
H4102 H 0.3766 0.12888 0.52521 0.0
C4103 C 0.3869 0.10927 0.52217 0.0
H4104 H 0.38744 0.10385 0.51763 0.0
H4105 H 0.39636 0.10366 0.53093 0.0
H4106 H 0.14106 0.12055 0.79165 0.0
C4107 C 0.13887 0.12657 0.79468 0.0
C4108 C 0.13326 0.12622 0.80197 0.0
C4109 C 0.14216 0.13468 0.79176 0.0
H4110 H 0.1263 0.13364 0.81169 0.0
C4111 C 0.1307 0.134 0.80613 0.0
C4112 C 0.13383 0.14216 0.80329 0.0
C4113 C 0.13949 0.14243 0.79604 0.0
C4114 C 0.14913 0.13509 0.78494 0.0
H4115 H 0.14211 0.14867 0.79391 0.0
C4116 C 0.1484 0.13061 0.77688 0.0
C4117 C 0.15502 0.13143 0.77045 0.0
C4118 C 0.15666 0.14013 0.78658 0.0
H4119 H 0.15749 0.1435 0.79277 0.0
C4120 C 0.16327 0.14081 0.78033 0.0
H4121 H 0.1426 0.12675 0.77551 0.0
C4122 C 0.16246 0.13654 0.77233 0.0
H4123 H 0.16773 0.13716 0.76761 0.0
H4124 H 0.16906 0.14468 0.7817 0.0
H4125 H 0.15069 0.88999 0.04134 0.0
C4126 C 0.14467 0.88759 0.04422 0.0
C4127 C 0.14507 0.88191 0.05144 0.0
C4128 C 0.1365 0.89067 0.04118 0.0
H4129 H 0.1377 0.87467 0.06098 0.0
C4130 C 0.13729 0.8791 0.05545 0.0
C4131 C 0.12908 0.88203 0.05254 0.0
C4132 C 0.12875 0.88771 0.04531 0.0
C4133 C 0.13601 0.89771 0.03443 0.0
H4134 H 0.12245 0.89013 0.04309 0.0
C4135 C 0.14122 0.89756 0.02677 0.0
C4136 C 0.1407 0.90446 0.02061 0.0
C4137 C 0.13034 0.90484 0.03583 0.0
H4138 H 0.12641 0.90527 0.04172 0.0
C4139 C 0.12976 0.91159 0.02975 0.0
H4140 H 0.14566 0.89215 0.02562 0.0
C4141 C 0.13487 0.91141 0.0222 0.0
H4142 H 0.13417 0.91671 0.01755 0.0
H4143 H 0.12534 0.91702 0.03091 0.0
H4144 H 0.23034 0.38127 0.12089 0.0
C4145 C 0.2277 0.38365 0.12703 0.0
C4146 C 0.22068 0.38962 0.12698 0.0
C4147 C 0.23084 0.38027 0.13502 0.0
H4148 H 0.2115 0.39689 0.13482 0.0
C4149 C 0.21703 0.39244 0.13493 0.0
C4150 C 0.22017 0.38928 0.14296 0.0
C4151 C 0.22707 0.38318 0.14294 0.0
C4152 C 0.23735 0.37303 0.13518 0.0
H4153 H 0.22947 0.38062 0.1491 0.0
C4154 C 0.2454 0.37353 0.13062 0.0
C4155 C 0.25159 0.36666 0.13128 0.0
C4156 C 0.23546 0.3655 0.14012 0.0
H4157 H 0.22929 0.36489 0.14358 0.0
C4158 C 0.24146 0.35865 0.14061 0.0
H4159 H 0.24695 0.37933 0.12685 0.0
C4160 C 0.24946 0.35922 0.13627 0.0
H4161 H 0.25399 0.35378 0.13676 0.0
H4162 H 0.2399 0.35287 0.1444 0.0
H4163 H 0.7299 0.14001 0.8993 0.0
C4164 C 0.72737 0.13748 0.89317 0.0
C4165 C 0.72001 0.13194 0.89323 0.0
C4166 C 0.73099 0.14029 0.88516 0.0
H4167 H 0.71065 0.12493 0.88541 0.0
C4168 C 0.71646 0.12901 0.88528 0.0
C4169 C 0.7201 0.13151 0.87723 0.0
C4170 C 0.72742 0.13712 0.87725 0.0
C4171 C 0.73777 0.14731 0.88491 0.0
H4172 H 0.73028 0.13913 0.87109 0.0
C4173 C 0.74524 0.1472 0.89039 0.0
C4174 C 0.75145 0.15408 0.89001 0.0
C4175 C 0.7366 0.15438 0.87912 0.0
H4176 H 0.73086 0.15475 0.87495 0.0
C4177 C 0.7427 0.16113 0.87872 0.0
H4178 H 0.74621 0.14183 0.89491 0.0
C4179 C 0.75007 0.16099 0.88408 0.0
H4180 H 0.75477 0.16627 0.88351 0.0
H4181 H 0.74172 0.16651 0.87421 0.0
H4182 H 0.13093 0.47914 0.15039 0.0
C4183 C 0.13324 0.47625 0.14434 0.0
C4184 C 0.13894 0.46903 0.14465 0.0
C4185 C 0.13003 0.47928 0.13623 0.0
H4186 H 0.14609 0.4595 0.13719 0.0
C4187 C 0.14163 0.46502 0.13685 0.0
C4188 C 0.13858 0.46793 0.12869 0.0
C4189 C 0.13286 0.47515 0.12844 0.0
C4190 C 0.12297 0.48602 0.13585 0.0
H4191 H 0.13033 0.47736 0.1222 0.0
C4192 C 0.12326 0.49374 0.14097 0.0
C4193 C 0.11636 0.49991 0.14056 0.0
C4194 C 0.11568 0.48458 0.13039 0.0
H4195 H 0.11515 0.47866 0.12653 0.0
C4196 C 0.10891 0.49066 0.12994 0.0
H4197 H 0.12881 0.49492 0.14524 0.0
C4198 C 0.10923 0.49826 0.13495 0.0
H4199 H 0.10392 0.50293 0.13435 0.0
H4200 H 0.10336 0.48947 0.12568 0.0
H4201 H 0.79206 0.88275 0.39916 0.0
C4202 C 0.79459 0.88502 0.39292 0.0
C4203 C 0.80093 0.89171 0.39273 0.0
C4204 C 0.79177 0.88101 0.38511 0.0
H4205 H 0.80949 0.89932 0.38448 0.0
C4206 C 0.80435 0.89443 0.38463 0.0
C4207 C 0.80167 0.8905 0.37677 0.0
C4208 C 0.79534 0.88383 0.37707 0.0
C4209 C 0.78566 0.8734 0.38531 0.0
H4210 H 0.79321 0.88078 0.37103 0.0
C4211 C 0.77788 0.87349 0.39035 0.0
C4212 C 0.77221 0.86617 0.39037 0.0
C4213 C 0.78771 0.86591 0.38038 0.0
H4214 H 0.79369 0.86559 0.37656 0.0
C4215 C 0.78214 0.85869 0.38038 0.0
H4216 H 0.77626 0.87922 0.3942 0.0
C4217 C 0.77445 0.85881 0.3853 0.0
H4218 H 0.77018 0.85315 0.38502 0.0
H4219 H 0.78378 0.85297 0.37653 0.0
H4220 H 0.89077 0.04091 0.14993 0.0
C4221 C 0.88849 0.04392 0.14392 0.0
C4222 C 0.88285 0.05118 0.14433 0.0
C4223 C 0.8917 0.041 0.13578 0.0
H4224 H 0.87576 0.06086 0.137 0.0
C4225 C 0.88019 0.05532 0.13659 0.0
C4226 C 0.88323 0.0525 0.12839 0.0
C4227 C 0.88893 0.04527 0.12805 0.0
C4228 C 0.89866 0.03419 0.13529 0.0
H4229 H 0.89148 0.04314 0.12178 0.0
C4230 C 0.89801 0.02616 0.13984 0.0
C4231 C 0.90463 0.01974 0.13896 0.0
C4232 C 0.90613 0.0358 0.13013 0.0
H4233 H 0.9069 0.04196 0.1267 0.0
C4234 C 0.91273 0.02956 0.12939 0.0
H4235 H 0.89227 0.02481 0.14379 0.0
C4236 C 0.912 0.02159 0.13374 0.0
H4237 H 0.91726 0.01688 0.13307 0.0
H4238 H 0.91846 0.03091 0.12543 0.0
H4239 H 0.29345 0.6396 0.62186 0.0
C4240 C 0.29593 0.63712 0.62804 0.0
C4241 C 0.30307 0.63131 0.62806 0.0
C4242 C 0.29247 0.64028 0.63599 0.0
H4243 H 0.31213 0.62403 0.63605 0.0
C4244 C 0.30652 0.62839 0.63607 0.0
C4245 C 0.30307 0.63131 0.64406 0.0
C4246 C 0.29604 0.63725 0.64396 0.0
C4247 C 0.28586 0.64747 0.63609 0.0
H4248 H 0.29341 0.63961 0.65011 0.0
C4249 C 0.2783 0.64731 0.63074 0.0
C4250 C 0.27222 0.6543 0.63098 0.0
C4251 C 0.28727 0.65471 0.6416 0.0
H4252 H 0.29308 0.65511 0.64566 0.0
C4253 C 0.2813 0.66159 0.64186 0.0
H4254 H 0.27715 0.64178 0.62644 0.0
C4255 C 0.27383 0.66139 0.63663 0.0
H4256 H 0.26924 0.66678 0.63711 0.0
H4257 H 0.28246 0.6671 0.64616 0.0
H4258 H 0.13381 0.54014 0.37093 0.0
C4259 C 0.13603 0.543 0.37704 0.0
C4260 C 0.14267 0.54939 0.37693 0.0
C4261 C 0.13202 0.54055 0.38498 0.0
H4262 H 0.1503 0.55831 0.38472 0.0
C4263 C 0.14528 0.5533 0.38483 0.0
C4264 C 0.14126 0.55111 0.3928 0.0
C4265 C 0.13474 0.5446 0.39283 0.0
C4266 C 0.12446 0.53436 0.38506 0.0
H4267 H 0.13156 0.5429 0.39894 0.0
C4268 C 0.12457 0.52645 0.38026 0.0
C4269 C 0.11728 0.52073 0.38045 0.0
C4270 C 0.11696 0.53649 0.38997 0.0
H4271 H 0.11659 0.54258 0.39359 0.0
C4272 C 0.10978 0.53087 0.3902 0.0
H4273 H 0.13029 0.52476 0.37641 0.0
C4274 C 0.10993 0.52305 0.38551 0.0
H4275 H 0.1043 0.51876 0.38595 0.0
H4276 H 0.10407 0.53257 0.39404 0.0
H4277 H 0.39086 0.47988 0.87116 0.0
C4278 C 0.38858 0.47685 0.87716 0.0
C4279 C 0.383 0.46955 0.87673 0.0
C4280 C 0.39172 0.47981 0.88532 0.0
H4281 H 0.37597 0.45982 0.88404 0.0
C4282 C 0.38034 0.4654 0.88447 0.0
C4283 C 0.38332 0.46825 0.89268 0.0
C4284 C 0.38895 0.47553 0.89303 0.0
C4285 C 0.39863 0.48668 0.88583 0.0
H4286 H 0.39145 0.47769 0.89931 0.0
C4287 C 0.39797 0.49468 0.88124 0.0
C4288 C 0.40452 0.50117 0.88217 0.0
C4289 C 0.40605 0.48516 0.89109 0.0
H4290 H 0.40684 0.47902 0.89455 0.0
C4291 C 0.41259 0.49146 0.89188 0.0
H4292 H 0.39226 0.49597 0.8772 0.0
C4293 C 0.41183 0.49941 0.88749 0.0
H4294 H 0.41704 0.50417 0.88821 0.0
H4295 H 0.41828 0.49018 0.89592 0.0
H4296 H 0.89843 0.78689 0.63044 0.0
C4297 C 0.89259 0.79092 0.63074 0.0
C4298 C 0.89333 0.80005 0.62984 0.0
C4299 C 0.88429 0.787 0.63175 0.0
H4300 H 0.88636 0.81221 0.62868 0.0
C4301 C 0.88573 0.80524 0.62983 0.0
C4302 C 0.87738 0.80149 0.6307 0.0
C4303 C 0.87676 0.79238 0.63184 0.0
C4304 C 0.88326 0.77729 0.63214 0.0
H4305 H 0.87036 0.78945 0.63275 0.0
C4306 C 0.88883 0.77196 0.63728 0.0
C4307 C 0.88726 0.76287 0.63792 0.0
C4308 C 0.87641 0.77332 0.6274 0.0
H4309 H 0.87217 0.77716 0.62321 0.0
C4310 C 0.87493 0.76434 0.62797 0.0
H4311 H 0.89415 0.77486 0.64097 0.0
C4312 C 0.88026 0.75916 0.63324 0.0
H4313 H 0.87898 0.75219 0.63359 0.0
H4314 H 0.86962 0.7614 0.62432 0.0
H4315 H 0.98435 0.14714 0.38059 0.0
C4316 C 0.98039 0.14125 0.38084 0.0
C4317 C 0.97122 0.14189 0.38014 0.0
C4318 C 0.98445 0.133 0.38159 0.0
H4319 H 0.95911 0.13478 0.37905 0.0
C4320 C 0.96612 0.13424 0.38007 0.0
C4321 C 0.97001 0.12594 0.38068 0.0
C4322 C 0.97916 0.12541 0.38162 0.0
C4323 C 0.99419 0.1321 0.38174 0.0
H4324 H 0.9822 0.11904 0.3823 0.0
C4325 C 0.99958 0.13758 0.38692 0.0
C4326 C 1.00872 0.13612 0.38731 0.0
C4327 C 0.99815 0.12546 0.3767 0.0
H4328 H 0.99426 0.1213 0.37248 0.0
C4329 C 1.00718 0.12411 0.37701 0.0
H4330 H 0.99668 0.14272 0.39085 0.0
C4331 C 0.01242 0.12934 0.38232 0.0
H4332 H 0.01942 0.12816 0.38246 0.0
H4333 H 1.01012 0.11897 0.37312 0.0
H4334 H 0.62419 0.23341 0.13107 0.0
C4335 C 0.63006 0.22941 0.13118 0.0
C4336 C 0.62938 0.22029 0.13002 0.0
C4337 C 0.63833 0.2334 0.13215 0.0
H4338 H 0.63657 0.20828 0.12835 0.0
C4339 C 0.63706 0.21521 0.12978 0.0
C4340 C 0.64537 0.21902 0.13074 0.0
C4341 C 0.64591 0.22809 0.13209 0.0
C4342 C 0.63928 0.24312 0.13257 0.0
H4343 H 0.65229 0.23107 0.13301 0.0
C4344 C 0.63367 0.24841 0.13773 0.0
C4345 C 0.63513 0.25752 0.13832 0.0
C4346 C 0.64605 0.24716 0.12778 0.0
H4347 H 0.65031 0.24336 0.12357 0.0
C4348 C 0.64741 0.25615 0.12831 0.0
H4349 H 0.6284 0.24546 0.14146 0.0
C4350 C 0.64206 0.26129 0.13359 0.0
H4351 H 0.64325 0.26828 0.13389 0.0
H4352 H 0.65267 0.25915 0.1246 0.0
H4353 H 0.53763 0.87318 0.88098 0.0
C4354 C 0.54167 0.879 0.88066 0.0
C4355 C 0.55077 0.87816 0.87929 0.0
C4356 C 0.53777 0.88735 0.88131 0.0
H4357 H 0.56285 0.88515 0.87705 0.0
C4358 C 0.55591 0.88575 0.87843 0.0
C4359 C 0.55216 0.8941 0.87896 0.0
C4360 C 0.54316 0.89485 0.88065 0.0
C4361 C 0.52805 0.8884 0.88195 0.0
H4362 H 0.54029 0.90132 0.88109 0.0
C4363 C 0.52282 0.88295 0.88733 0.0
C4364 C 0.51371 0.88445 0.88806 0.0
C4365 C 0.52392 0.89507 0.87709 0.0
H4366 H 0.52763 0.89918 0.87266 0.0
C4367 C 0.51493 0.89649 0.87777 0.0
H4368 H 0.52582 0.87775 0.89111 0.0
C4369 C 0.50987 0.89128 0.88326 0.0
H4370 H 0.50288 0.8925 0.88366 0.0
H4371 H 0.51187 0.90166 0.87401 0.0
H4372 H 0.89832 0.2332 0.89009 0.0
C4373 C 0.89245 0.22921 0.88998 0.0
C4374 C 0.89313 0.22008 0.89114 0.0
C4375 C 0.88418 0.2332 0.889 0.0
H4376 H 0.88592 0.20807 0.89279 0.0
C4377 C 0.88544 0.21501 0.89137 0.0
C4378 C 0.87713 0.21882 0.8904 0.0
C4379 C 0.8766 0.2279 0.88905 0.0
C4380 C 0.88324 0.24291 0.88858 0.0
H4381 H 0.87022 0.23088 0.88814 0.0
C4382 C 0.88882 0.2482 0.8834 0.0
C4383 C 0.88736 0.25731 0.8828 0.0
C4384 C 0.87649 0.24696 0.8934 0.0
H4385 H 0.87225 0.24317 0.89763 0.0
C4386 C 0.87513 0.25596 0.89288 0.0
H4387 H 0.89407 0.24523 0.87964 0.0
C4388 C 0.88046 0.26109 0.88757 0.0
H4389 H 0.87927 0.26807 0.88726 0.0
H4390 H 0.86989 0.25896 0.8966 0.0
H4391 H 0.5379 0.14742 0.6406 0.0
C4392 C 0.54182 0.1415 0.64058 0.0
C4393 C 0.551 0.14207 0.64158 0.0
C4394 C 0.53768 0.13329 0.63993 0.0
H4395 H 0.56297 0.13468 0.64306 0.0
C4396 C 0.55598 0.13432 0.64184 0.0
C4397 C 0.55198 0.12609 0.64124 0.0
C4398 C 0.54285 0.12565 0.64016 0.0
C4399 C 0.52792 0.13251 0.63973 0.0
H4400 H 0.53976 0.11929 0.63961 0.0
C4401 C 0.52264 0.13791 0.63436 0.0
C4402 C 0.51348 0.13657 0.63398 0.0
C4403 C 0.52385 0.12608 0.64493 0.0
H4404 H 0.52766 0.12199 0.64929 0.0
C4405 C 0.51481 0.12484 0.64462 0.0
H4406 H 0.52563 0.14291 0.63032 0.0
C4407 C 0.50967 0.12999 0.63913 0.0
H4408 H 0.50265 0.1289 0.63899 0.0
H4409 H 0.51178 0.11985 0.64863 0.0
H4410 H 0.6239 0.78724 0.3896 0.0
C4411 C 0.62971 0.7913 0.38985 0.0
C4412 C 0.62884 0.80038 0.39123 0.0
C4413 C 0.6381 0.78745 0.38912 0.0
H4414 H 0.6358 0.81248 0.39337 0.0
C4415 C 0.63642 0.80555 0.392 0.0
C4416 C 0.6448 0.80186 0.39138 0.0
C4417 C 0.64559 0.79287 0.3897 0.0
C4418 C 0.63919 0.77775 0.38847 0.0
H4419 H 0.65208 0.79003 0.38919 0.0
C4420 C 0.63372 0.77251 0.38313 0.0
C4421 C 0.63527 0.76342 0.38238 0.0
C4422 C 0.64592 0.77367 0.39329 0.0
H4423 H 0.65005 0.7774 0.39769 0.0
C4424 C 0.64739 0.7647 0.3926 0.0
H4425 H 0.62848 0.77548 0.37938 0.0
C4426 C 0.64216 0.75962 0.38714 0.0
H4427 H 0.64342 0.75265 0.38673 0.0
H4428 H 0.65261 0.76168 0.39633 0.0
H4429 H 0.98463 0.87327 0.14034 0.0
C4430 C 0.98057 0.87909 0.14055 0.0
C4431 C 0.97146 0.87824 0.14167 0.0
C4432 C 0.98444 0.88746 0.13997 0.0
H4433 H 0.95925 0.88507 0.14351 0.0
C4434 C 0.96624 0.88576 0.14239 0.0
C4435 C 0.96996 0.89413 0.14204 0.0
C4436 C 0.979 0.89494 0.14057 0.0
C4437 C 0.99416 0.88855 0.13938 0.0
H4438 H 0.98185 0.90142 0.14021 0.0
C4439 C 0.99942 0.8831 0.13402 0.0
C4440 C 1.00853 0.88464 0.13329 0.0
C4441 C 0.99825 0.89525 0.14422 0.0
H4442 H 0.99451 0.89937 0.14862 0.0
C4443 C 1.00723 0.89672 0.14353 0.0
H4444 H 0.99645 0.87788 0.13025 0.0
C4445 C 0.01233 0.89152 0.13806 0.0
H4446 H 0.01931 0.89277 0.13766 0.0
H4447 H 1.01026 0.90192 0.14728 0.0
H4448 H 0.63116 0.89679 0.7868 0.0
C4449 C 0.63134 0.89095 0.79083 0.0
C4450 C 0.63042 0.8917 0.79996 0.0
C4451 C 0.63224 0.88265 0.78691 0.0
H4452 H 0.62908 0.88477 0.81212 0.0
C4453 C 0.63025 0.88413 0.80515 0.0
C4454 C 0.63101 0.87578 0.8014 0.0
C4455 C 0.6322 0.87514 0.79229 0.0
C4456 C 0.63268 0.88163 0.77719 0.0
H4457 H 0.63303 0.86873 0.78937 0.0
C4458 C 0.63784 0.88721 0.77187 0.0
C4459 C 0.63849 0.88567 0.76277 0.0
C4460 C 0.62795 0.8748 0.77318 0.0
H4461 H 0.62374 0.87056 0.777 0.0
C4462 C 0.62854 0.87335 0.7642 0.0
H4463 H 0.64153 0.89251 0.7748 0.0
C4464 C 0.63382 0.87869 0.75904 0.0
H4465 H 0.63417 0.87743 0.75206 0.0
H4466 H 0.62488 0.86806 0.76123 0.0
H4467 H 0.87409 0.88094 0.53775 0.0
C4468 C 0.88009 0.88092 0.54155 0.0
C4469 C 0.87968 0.88001 0.55073 0.0
C4470 C 0.88824 0.88143 0.53724 0.0
H4471 H 0.8873 0.87854 0.56255 0.0
C4472 C 0.88754 0.87969 0.55555 0.0
C4473 C 0.89571 0.88014 0.55139 0.0
C4474 C 0.896 0.88113 0.54226 0.0
C4475 C 0.88885 0.88153 0.52749 0.0
H4476 H 0.90231 0.88156 0.53904 0.0
C4477 C 0.88342 0.88694 0.52227 0.0
C4478 C 0.88461 0.88723 0.5131 0.0
C4479 C 0.89513 0.8762 0.52334 0.0
H4480 H 0.89923 0.87181 0.52711 0.0
C4481 C 0.89621 0.87643 0.51429 0.0
H4482 H 0.87853 0.89109 0.52531 0.0
C4483 C 0.89105 0.88195 0.50921 0.0
H4484 H 0.89202 0.88204 0.50218 0.0
H4485 H 0.9011 0.87232 0.51121 0.0
H4486 H 0.89094 0.12319 0.28693 0.0
C4487 C 0.89081 0.1291 0.29085 0.0
C4488 C 0.89169 0.12855 0.30001 0.0
C4489 C 0.89019 0.13731 0.2867 0.0
H4490 H 0.89311 0.1359 0.31196 0.0
C4491 C 0.8919 0.1363 0.30498 0.0
C4492 C 0.89127 0.14455 0.301 0.0
C4493 C 0.89028 0.14497 0.29186 0.0
C4494 C 0.89037 0.13808 0.27697 0.0
H4495 H 0.88972 0.1513 0.28872 0.0
C4496 C 0.88499 0.1329 0.2715 0.0
C4497 C 0.88515 0.13406 0.26231 0.0
C4498 C 0.89608 0.1442 0.27312 0.0
H4499 H 0.90043 0.14813 0.27711 0.0
C4500 C 0.89637 0.14525 0.26408 0.0
H4501 H 0.88053 0.12819 0.27438 0.0
C4502 C 0.89095 0.14026 0.25871 0.0
H4503 H 0.89139 0.14117 0.25169 0.0
H4504 H 0.90083 0.14995 0.26121 0.0
H4505 H 0.64814 0.14011 0.03743 0.0
C4506 C 0.64227 0.14 0.04143 0.0
C4507 C 0.64296 0.14109 0.05057 0.0
C4508 C 0.63399 0.13907 0.03744 0.0
H4509 H 0.63576 0.14269 0.06259 0.0
C4510 C 0.63527 0.14132 0.05565 0.0
C4511 C 0.62696 0.1404 0.05183 0.0
C4512 C 0.62642 0.13912 0.04274 0.0
C4513 C 0.63304 0.13875 0.02771 0.0
H4514 H 0.62003 0.13825 0.03975 0.0
C4515 C 0.63857 0.13356 0.02237 0.0
C4516 C 0.63708 0.13305 0.01326 0.0
C4517 C 0.62633 0.14366 0.02372 0.0
H4518 H 0.62214 0.1479 0.02756 0.0
C4519 C 0.62495 0.14324 0.01472 0.0
H4520 H 0.64378 0.12973 0.02529 0.0
C4521 C 0.63022 0.13792 1.00953 0.0
H4522 H 0.62902 0.13768 1.00254 0.0
H4523 H 0.61975 0.14703 0.01176 0.0
H4524 H 0.63097 0.12312 0.73416 0.0
C4525 C 0.63086 0.1289 0.73005 0.0
C4526 C 0.62984 0.12797 0.72093 0.0
C4527 C 0.63141 0.13728 0.73388 0.0
H4528 H 0.62836 0.1348 0.70869 0.0
C4529 C 0.62935 0.1355 0.71568 0.0
C4530 C 0.62968 0.14391 0.71934 0.0
C4531 C 0.63093 0.14472 0.72842 0.0
C4532 C 0.63174 0.13839 0.74359 0.0
H4533 H 0.6312 0.1512 0.73129 0.0
C4534 C 0.63704 0.13303 0.74899 0.0
C4535 C 0.63751 0.13458 0.75809 0.0
C4536 C 0.62669 0.14503 0.74753 0.0
H4537 H 0.62233 0.14908 0.74367 0.0
C4538 C 0.6271 0.1465 0.75652 0.0
H4539 H 0.64097 0.12787 0.74612 0.0
C4540 C 0.63251 0.14138 0.76176 0.0
H4541 H 0.6327 0.14264 0.76874 0.0
H4542 H 0.62319 0.15165 0.75944 0.0
H4543 H 0.64813 0.88079 0.48326 0.0
C4544 C 0.64227 0.88086 0.47927 0.0
C4545 C 0.64295 0.87973 0.47013 0.0
C4546 C 0.63398 0.88175 0.48326 0.0
H4547 H 0.63576 0.87804 0.45812 0.0
C4548 C 0.63526 0.87944 0.46506 0.0
C4549 C 0.62695 0.88034 0.46888 0.0
C4550 C 0.6264 0.88165 0.47797 0.0
C4551 C 0.63304 0.8821 0.49299 0.0
H4552 H 0.62002 0.88252 0.48095 0.0
C4553 C 0.63858 0.88729 0.49832 0.0
C4554 C 0.6371 0.8878 0.50744 0.0
C4555 C 0.62633 0.8772 0.497 0.0
H4556 H 0.62213 0.87296 0.49317 0.0
C4557 C 0.62495 0.87764 0.506 0.0
H4558 H 0.64379 0.8911 0.49539 0.0
C4559 C 0.63024 0.88295 0.51118 0.0
H4560 H 0.62904 0.88319 0.51817 0.0
H4561 H 0.61975 0.87385 0.50897 0.0
H4562 H 0.89114 0.89718 0.23413 0.0
C4563 C 0.8909 0.89123 0.23028 0.0
C4564 C 0.8913 0.89172 0.22109 0.0
C4565 C 0.89055 0.88304 0.23448 0.0
H4566 H 0.89219 0.88442 0.2091 0.0
C4567 C 0.8914 0.88398 0.21614 0.0
C4568 C 0.89117 0.87573 0.22018 0.0
C4569 C 0.89059 0.87535 0.22936 0.0
C4570 C 0.89098 0.88234 0.2442 0.0
H4571 H 0.89029 0.86903 0.23256 0.0
C4572 C 0.88558 0.88744 0.24976 0.0
C4573 C 0.88594 0.88633 0.25895 0.0
C4574 C 0.89688 0.87636 0.24798 0.0
H4575 H 0.90122 0.87249 0.24391 0.0
C4576 C 0.89736 0.87537 0.25702 0.0
H4577 H 0.88097 0.89203 0.24694 0.0
C4578 C 0.89193 0.88027 0.26246 0.0
H4579 H 0.89253 0.8794 0.26947 0.0
H4580 H 0.90197 0.87077 0.25983 0.0
H4581 H 0.87432 0.13969 0.98381 0.0
C4582 C 0.88019 0.13957 0.97982 0.0
C4583 C 0.87952 0.14073 0.97069 0.0
C4584 C 0.88846 0.13858 0.98382 0.0
H4585 H 0.88673 0.14237 0.95868 0.0
C4586 C 0.88721 0.14095 0.96562 0.0
C4587 C 0.89552 0.13997 0.96944 0.0
C4588 C 0.89604 0.13863 0.97852 0.0
C4589 C 0.88939 0.13816 0.99354 0.0
H4590 H 0.90242 0.1377 0.98151 0.0
C4591 C 0.88377 0.13301 0.99882 0.0
C4592 C 0.88522 0.13241 1.00793 0.0
C4593 C 0.89617 0.14293 0.9976 0.0
H4594 H 0.90043 0.14714 0.99381 0.0
C4595 C 0.89752 0.1424 1.0066 0.0
H4596 H 0.8785 0.12929 0.99585 0.0
C4597 C 0.89214 0.13713 0.01172 0.0
H4598 H 0.89332 0.13681 0.01871 0.0
H4599 H 0.90277 0.14609 1.00961 0.0
H4600 H 0.78797 0.63049 0.89733 0.0
C4601 C 0.79204 0.63059 0.89152 0.0
C4602 C 0.80115 0.62927 0.89229 0.0
C4603 C 0.78816 0.63174 0.88322 0.0
H4604 H 0.81324 0.6275 0.88522 0.0
C4605 C 0.80633 0.62904 0.88467 0.0
C4606 C 0.80262 0.63017 0.87634 0.0
C4607 C 0.79356 0.63169 0.87572 0.0
C4608 C 0.77844 0.63235 0.88218 0.0
H4609 H 0.79067 0.63275 0.86933 0.0
C4610 C 0.77316 0.63746 0.88784 0.0
C4611 C 0.76405 0.63823 0.88631 0.0
C4612 C 0.77438 0.62777 0.87528 0.0
H4613 H 0.77816 0.62359 0.87098 0.0
C4614 C 0.76539 0.62847 0.87384 0.0
H4615 H 0.77612 0.64103 0.89321 0.0
C4616 C 0.76027 0.63371 0.87926 0.0
H4617 H 0.75329 0.63414 0.87801 0.0
H4618 H 0.76238 0.62493 0.86849 0.0
H4619 H 0.28829 0.89008 0.12366 0.0
C4620 C 0.29232 0.88994 0.1295 0.0
C4621 C 0.30146 0.89112 0.12878 0.0
C4622 C 0.28837 0.88892 0.13778 0.0
H4623 H 0.31352 0.89275 0.1359 0.0
C4624 C 0.30659 0.89132 0.13642 0.0
C4625 C 0.30281 0.89031 0.14473 0.0
C4626 C 0.29372 0.88896 0.14532 0.0
C4627 C 0.27864 0.88848 0.13876 0.0
H4628 H 0.29077 0.88801 0.1517 0.0
C4629 C 0.27332 0.88334 0.13317 0.0
C4630 C 0.2642 0.88272 0.13467 0.0
C4631 C 0.27461 0.89324 0.14556 0.0
H4632 H 0.27843 0.89745 0.14981 0.0
C4633 C 0.26561 0.8927 0.14696 0.0
H4634 H 0.27627 0.87962 0.12789 0.0
C4635 C 0.26044 0.88743 0.14161 0.0
H4636 H 0.25345 0.88712 0.14283 0.0
H4637 H 0.26262 0.89638 0.15223 0.0
H4638 H 0.88161 0.53675 0.87315 0.0
C4639 C 0.8814 0.54078 0.87898 0.0
C4640 C 0.8804 0.54991 0.87816 0.0
C4641 C 0.88177 0.53683 0.88731 0.0
H4642 H 0.8788 0.56205 0.88516 0.0
C4643 C 0.87977 0.55505 0.88577 0.0
C4644 C 0.87993 0.55127 0.89413 0.0
C4645 C 0.88115 0.54218 0.89483 0.0
C4646 C 0.88206 0.52711 0.8883 0.0
H4647 H 0.88129 0.53922 0.90127 0.0
C4648 C 0.88749 0.52177 0.88301 0.0
C4649 C 0.88791 0.51266 0.88446 0.0
C4650 C 0.87683 0.5231 0.89475 0.0
H4651 H 0.87237 0.52692 0.89874 0.0
C4652 C 0.87719 0.5141 0.89613 0.0
H4653 H 0.89156 0.5247 0.87798 0.0
C4654 C 0.88274 0.50892 0.89108 0.0
H4655 H 0.88289 0.50193 0.89226 0.0
H4656 H 0.87315 0.51112 0.90113 0.0
H4657 H 0.23453 0.13067 0.62359 0.0
C4658 C 0.23048 0.13037 0.62941 0.0
C4659 C 0.22139 0.12893 0.62857 0.0
C4660 C 0.23436 0.1311 0.63777 0.0
H4661 H 0.20931 0.12665 0.63554 0.0
C4662 C 0.21625 0.12808 0.63615 0.0
C4663 C 0.21997 0.12868 0.64451 0.0
C4664 C 0.22896 0.13044 0.64527 0.0
C4665 C 0.24407 0.13184 0.63883 0.0
H4666 H 0.23181 0.13095 0.65174 0.0
C4667 C 0.24927 0.13719 0.63331 0.0
C4668 C 0.25837 0.13801 0.63482 0.0
C4669 C 0.24824 0.1271 0.64557 0.0
H4670 H 0.24456 0.1227 0.64973 0.0
C4671 C 0.25722 0.12788 0.647 0.0
H4672 H 0.24624 0.14088 0.62806 0.0
C4673 C 0.26224 0.13335 0.64172 0.0
H4674 H 0.26922 0.13382 0.64294 0.0
H4675 H 0.2603 0.12421 0.65222 0.0
H4676 H 0.14086 0.98366 0.87314 0.0
C4677 C 0.14111 0.97963 0.87897 0.0
C4678 C 0.14213 0.9705 0.87814 0.0
C4679 C 0.14076 0.98357 0.8873 0.0
H4680 H 0.1438 0.95836 0.88512 0.0
C4681 C 0.14281 0.96536 0.88574 0.0
C4682 C 0.14266 0.96914 0.89411 0.0
C4683 C 0.14141 0.97822 0.89482 0.0
C4684 C 0.14045 0.99329 0.8883 0.0
H4685 H 0.14128 0.98118 0.90126 0.0
C4686 C 0.13499 0.99862 0.88301 0.0
C4687 C 0.13456 1.00774 0.88447 0.0
C4688 C 0.14568 0.99732 0.89474 0.0
H4689 H 0.15015 0.99351 0.89872 0.0
C4690 C 0.1453 1.00632 0.89612 0.0
H4691 H 0.13092 0.99568 0.878 0.0
C4692 C 0.13974 0.01149 0.89108 0.0
H4693 H 0.13958 0.01848 0.89226 0.0
H4694 H 0.14935 1.0093 0.90111 0.0
H4695 H 0.73451 0.38957 0.39777 0.0
C4696 C 0.73048 0.38981 0.39194 0.0
C4697 C 0.72134 0.39085 0.39276 0.0
C4698 C 0.73443 0.3894 0.3836 0.0
H4699 H 0.70918 0.39252 0.38577 0.0
C4700 C 0.71619 0.39151 0.38516 0.0
C4701 C 0.71997 0.39132 0.37679 0.0
C4702 C 0.72907 0.39004 0.37609 0.0
C4703 C 0.74417 0.38904 0.38261 0.0
H4704 H 0.73203 0.38988 0.36964 0.0
C4705 C 0.74947 0.38362 0.38795 0.0
C4706 C 0.7586 0.38313 0.3865 0.0
C4707 C 0.74823 0.39418 0.37612 0.0
H4708 H 0.74444 0.39863 0.3721 0.0
C4709 C 0.75724 0.39374 0.37475 0.0
H4710 H 0.74651 0.37962 0.39301 0.0
C4711 C 0.76239 0.38821 0.37984 0.0
H4712 H 0.76939 0.38799 0.37867 0.0
H4713 H 0.76026 0.39771 0.36972 0.0
H4714 H 0.88167 0.48353 0.64753 0.0
C4715 C 0.88143 0.47948 0.6417 0.0
C4716 C 0.88039 0.47036 0.64254 0.0
C4717 C 0.88183 0.48341 0.63336 0.0
H4718 H 0.87873 0.45821 0.63557 0.0
C4719 C 0.87974 0.46521 0.63494 0.0
C4720 C 0.87994 0.46897 0.62657 0.0
C4721 C 0.88121 0.47805 0.62585 0.0
C4722 C 0.88218 0.49313 0.63236 0.0
H4723 H 0.88139 0.48099 0.61941 0.0
C4724 C 0.88758 0.49845 0.63771 0.0
C4725 C 0.88804 0.50757 0.63626 0.0
C4726 C 0.87705 0.49717 0.62584 0.0
H4727 H 0.87262 0.49337 0.62181 0.0
C4728 C 0.87747 0.50616 0.62447 0.0
H4729 H 0.89157 0.49551 0.64279 0.0
C4730 C 0.88297 0.51132 0.62958 0.0
H4731 H 0.88317 0.51831 0.6284 0.0
H4732 H 0.8735 0.50916 0.61942 0.0
H4733 H 0.6408 0.53646 0.14742 0.0
C4734 C 0.64101 0.54052 0.1416 0.0
C4735 C 0.64214 0.54963 0.14245 0.0
C4736 C 0.64055 0.53661 0.13325 0.0
H4737 H 0.64406 0.56175 0.13545 0.0
C4738 C 0.64287 0.55478 0.13486 0.0
C4739 C 0.6425 0.55102 0.1265 0.0
C4740 C 0.64112 0.54198 0.12575 0.0
C4741 C 0.64044 0.52689 0.13224 0.0
H4742 H 0.64088 0.53906 0.11928 0.0
C4743 C 0.63502 0.52144 0.13743 0.0
C4744 C 0.63498 0.51227 0.13613 0.0
C4745 C 0.64596 0.523 0.12597 0.0
H4746 H 0.65038 0.52693 0.12205 0.0
C4747 C 0.646 0.51397 0.12474 0.0
H4748 H 0.63072 0.52432 0.14228 0.0
C4749 C 0.64056 0.50865 0.12975 0.0
H4750 H 0.64085 0.50164 0.12872 0.0
H4751 H 0.65032 0.51108 0.11992 0.0
H4752 H 0.62195 0.72948 0.88112 0.0
C4753 C 0.62797 0.72659 0.88355 0.0
C4754 C 0.62754 0.71938 0.88923 0.0
C4755 C 0.63615 0.72964 0.88051 0.0
H4756 H 0.63486 0.70982 0.89647 0.0
C4757 C 0.6353 0.71535 0.89206 0.0
C4758 C 0.64353 0.71826 0.88916 0.0
C4759 C 0.64389 0.7255 0.88349 0.0
C4760 C 0.63666 0.73641 0.87349 0.0
H4761 H 0.6502 0.72772 0.88111 0.0
C4762 C 0.63142 0.74405 0.87361 0.0
C4763 C 0.63196 0.75022 0.86673 0.0
C4764 C 0.64239 0.73505 0.86639 0.0
H4765 H 0.64636 0.72919 0.86597 0.0
C4766 C 0.64299 0.74115 0.85965 0.0
H4767 H 0.62693 0.74516 0.879 0.0
C4768 C 0.63785 0.74867 0.85981 0.0
H4769 H 0.63855 0.75334 0.85452 0.0
H4770 H 0.64745 0.74002 0.85426 0.0
H4771 H 0.54277 0.37209 0.13096 0.0
C4772 C 0.54524 0.37825 0.13348 0.0
C4773 C 0.55239 0.37824 0.13929 0.0
C4774 C 0.54177 0.38622 0.1304 0.0
H4775 H 0.56145 0.38617 0.14662 0.0
C4776 C 0.55583 0.38622 0.14227 0.0
C4777 C 0.55237 0.39423 0.13942 0.0
C4778 C 0.54534 0.39417 0.13349 0.0
C4779 C 0.53513 0.38637 0.12323 0.0
H4780 H 0.54269 0.40033 0.13119 0.0
C4781 C 0.5276 0.38097 0.12336 0.0
C4782 C 0.5215 0.38124 0.11638 0.0
C4783 C 0.53649 0.39196 0.11605 0.0
H4784 H 0.54227 0.39606 0.11568 0.0
C4785 C 0.53049 0.39226 0.10919 0.0
H4786 H 0.52649 0.3766 0.12883 0.0
C4787 C 0.52306 0.38698 0.10934 0.0
H4788 H 0.51845 0.38748 0.10397 0.0
H4789 H 0.53161 0.39662 0.10372 0.0
H4790 H 0.90073 0.29087 0.38063 0.0
C4791 C 0.89469 0.29376 0.38301 0.0
C4792 C 0.89508 0.30092 0.38876 0.0
C4793 C 0.88654 0.29077 0.37986 0.0
H4794 H 0.88772 0.31044 0.39603 0.0
C4795 C 0.88731 0.30495 0.39155 0.0
C4796 C 0.87911 0.30209 0.38854 0.0
C4797 C 0.87878 0.29491 0.38279 0.0
C4798 C 0.88608 0.28405 0.37278 0.0
H4799 H 0.87249 0.29274 0.38031 0.0
C4800 C 0.89127 0.27638 0.37295 0.0
C4801 C 0.89079 0.27024 0.36603 0.0
C4802 C 0.88048 0.28549 0.36561 0.0
H4803 H 0.87657 0.29139 0.36516 0.0
C4804 C 0.87996 0.27944 0.35882 0.0
H4805 H 0.89565 0.2752 0.3784 0.0
C4806 C 0.88504 0.27188 0.35902 0.0
H4807 H 0.88439 0.26724 0.35369 0.0
H4808 H 0.8756 0.28063 0.35336 0.0
H4809 H 0.97995 0.64901 0.63085 0.0
C4810 C 0.97749 0.64286 0.63339 0.0
C4811 C 0.97036 0.64289 0.63923 0.0
C4812 C 0.98094 0.63488 0.63031 0.0
H4813 H 0.96131 0.63498 0.6466 0.0
C4814 C 0.96692 0.63492 0.64224 0.0
C4815 C 0.97037 0.6269 0.63939 0.0
C4816 C 0.97738 0.62695 0.63343 0.0
C4817 C 0.98756 0.63471 0.62313 0.0
H4818 H 0.98002 0.62077 0.63114 0.0
C4819 C 0.99509 0.6401 0.62323 0.0
C4820 C 1.00118 0.6398 0.61625 0.0
C4821 C 0.98618 0.6291 0.61596 0.0
H4822 H 0.9804 0.62501 0.6156 0.0
C4823 C 0.99217 0.62878 0.60909 0.0
H4824 H 0.99621 0.64448 0.6287 0.0
C4825 C 0.99961 0.63405 0.60923 0.0
H4826 H 1.00422 0.63353 0.60385 0.0
H4827 H 0.99104 0.62441 0.60363 0.0
H4828 H 0.62207 0.29081 0.63977 0.0
C4829 C 0.62807 0.29384 0.63748 0.0
C4830 C 0.62764 0.30116 0.63193 0.0
C4831 C 0.63624 0.29087 0.6406 0.0
H4832 H 0.63496 0.31089 0.6249 0.0
C4833 C 0.63539 0.3053 0.62926 0.0
C4834 C 0.64361 0.30243 0.63221 0.0
C4835 C 0.64397 0.29515 0.63782 0.0
C4836 C 0.63677 0.28401 0.64751 0.0
H4837 H 0.65026 0.29298 0.64032 0.0
C4838 C 0.63226 0.27596 0.64681 0.0
C4839 C 0.63321 0.26949 0.65336 0.0
C4840 C 0.64196 0.2856 0.65495 0.0
H4841 H 0.64536 0.29177 0.65576 0.0
C4842 C 0.64277 0.27931 0.66149 0.0
H4843 H 0.62828 0.27464 0.64108 0.0
C4844 C 0.63847 0.27131 0.6607 0.0
H4845 H 0.63919 0.26656 0.66591 0.0
H4846 H 0.64675 0.28063 0.6672 0.0
H4847 H 0.98032 0.37089 0.88986 0.0
C4848 C 0.97772 0.37702 0.88741 0.0
C4849 C 0.9706 0.37695 0.88157 0.0
C4850 C 0.981 0.38502 0.89063 0.0
H4851 H 0.96142 0.38479 0.87429 0.0
C4852 C 0.96702 0.3849 0.87867 0.0
C4853 C 0.9703 0.39293 0.88165 0.0
C4854 C 0.97728 0.39293 0.88765 0.0
C4855 C 0.98758 0.38522 0.8978 0.0
H4856 H 0.97978 0.3991 0.89009 0.0
C4857 C 0.99561 0.38063 0.89728 0.0
C4858 C 1.00187 0.38135 0.90407 0.0
C4859 C 0.98579 0.39026 0.9053 0.0
H4860 H 0.97963 0.39374 0.90593 0.0
C4861 C 0.99185 0.39081 0.91209 0.0
H4862 H 0.99709 0.37679 0.8915 0.0
C4863 C 0.99983 0.38643 0.91148 0.0
H4864 H 1.00442 0.38698 0.91687 0.0
H4865 H 0.99036 0.39467 0.91784 0.0
H4866 H 0.90061 0.72934 0.14039 0.0
C4867 C 0.89456 0.72647 0.13802 0.0
C4868 C 0.89492 0.71926 0.13232 0.0
C4869 C 0.88642 0.72951 0.14116 0.0
H4870 H 0.88749 0.70975 0.1251 0.0
C4871 C 0.88712 0.71526 0.12955 0.0
C4872 C 0.87893 0.71818 0.13254 0.0
C4873 C 0.87864 0.7254 0.13825 0.0
C4874 C 0.88599 0.73624 0.14822 0.0
H4875 H 0.87236 0.72762 0.14072 0.0
C4876 C 0.89118 0.74391 0.14804 0.0
C4877 C 0.89072 0.75006 0.15496 0.0
C4878 C 0.8804 0.73482 0.15542 0.0
H4879 H 0.87648 0.72893 0.15587 0.0
C4880 C 0.8799 0.74088 0.1622 0.0
H4881 H 0.89556 0.74508 0.14257 0.0
C4882 C 0.88498 0.74844 0.16198 0.0
H4883 H 0.88434 0.75308 0.1673 0.0
H4884 H 0.87554 0.73971 0.16767 0.0
H4885 H 0.5425 0.64972 0.38987 0.0
C4886 C 0.54553 0.64371 0.38764 0.0
C4887 C 0.55284 0.6441 0.38205 0.0
C4888 C 0.54258 0.63558 0.39084 0.0
H4889 H 0.56257 0.63673 0.37505 0.0
C4890 C 0.557 0.63634 0.37944 0.0
C4891 C 0.55414 0.62816 0.38247 0.0
C4892 C 0.54686 0.62785 0.38811 0.0
C4893 C 0.53573 0.63511 0.39777 0.0
H4894 H 0.5447 0.62159 0.39065 0.0
C4895 C 0.52769 0.63969 0.3971 0.0
C4896 C 0.52123 0.63879 0.40368 0.0
C4897 C 0.53729 0.62992 0.40521 0.0
H4898 H 0.54345 0.62648 0.406 0.0
C4899 C 0.53101 0.62917 0.41177 0.0
H4900 H 0.52638 0.64367 0.39138 0.0
C4901 C 0.52303 0.63353 0.41101 0.0
H4902 H 0.51828 0.63285 0.41624 0.0
H4903 H 0.53232 0.62518 0.41747 0.0
H4904 H 0.88179 0.62071 0.72965 0.0
C4905 C 0.88408 0.62671 0.72664 0.0
C4906 C 0.88969 0.62629 0.71935 0.0
C4907 C 0.88093 0.63486 0.7296 0.0
H4908 H 0.89678 0.63362 0.70967 0.0
C4909 C 0.89238 0.63403 0.71523 0.0
C4910 C 0.88939 0.64223 0.71809 0.0
C4911 C 0.88373 0.64258 0.72535 0.0
C4912 C 0.87398 0.63537 0.73643 0.0
H4913 H 0.88122 0.64885 0.72751 0.0
C4914 C 0.87464 0.63083 0.74446 0.0
C4915 C 0.86805 0.63177 0.75092 0.0
C4916 C 0.86655 0.64058 0.73484 0.0
H4917 H 0.86577 0.644 0.72867 0.0
C4918 C 0.85997 0.64138 0.74111 0.0
H4919 H 0.88035 0.62683 0.7458 0.0
C4920 C 0.86072 0.63705 0.74909 0.0
H4921 H 0.85548 0.63776 0.75383 0.0
H4922 H 0.85427 0.64538 0.73978 0.0
H4923 H 0.64983 0.63033 0.97934 0.0
C4924 C 0.64382 0.63261 0.97632 0.0
C4925 C 0.64424 0.63818 0.96902 0.0
C4926 C 0.63565 0.62947 0.97928 0.0
H4927 H 0.63689 0.64523 0.95932 0.0
C4928 C 0.63648 0.64085 0.96488 0.0
C4929 C 0.62826 0.63787 0.96775 0.0
C4930 C 0.62792 0.63225 0.97502 0.0
C4931 C 0.63514 0.62254 0.98613 0.0
H4932 H 0.62163 0.62975 0.97719 0.0
C4933 C 0.63979 0.62316 0.99413 0.0
C4934 C 0.63887 0.61658 1.00058 0.0
C4935 C 0.62986 0.61516 0.9846 0.0
H4936 H 0.62636 0.6144 0.97847 0.0
C4937 C 0.62908 0.60861 0.99088 0.0
H4938 H 0.64385 0.62883 0.99542 0.0
C4939 C 0.63351 0.60931 0.99881 0.0
H4940 H 0.63281 0.60408 1.00355 0.0
H4941 H 0.62501 0.60294 0.98958 0.0
H4942 H 0.64062 0.39969 0.22986 0.0
C4943 C 0.63832 0.39369 0.22684 0.0
C4944 C 0.63273 0.39412 0.21954 0.0
C4945 C 0.64145 0.38553 0.22981 0.0
H4946 H 0.62566 0.38681 0.20983 0.0
C4947 C 0.63005 0.38638 0.21541 0.0
C4948 C 0.63301 0.37818 0.21827 0.0
C4949 C 0.63865 0.37782 0.22554 0.0
C4950 C 0.64838 0.38501 0.23666 0.0
H4951 H 0.64115 0.37154 0.2277 0.0
C4952 C 0.64771 0.38955 0.2447 0.0
C4953 C 0.65428 0.3886 0.25116 0.0
C4954 C 0.65581 0.37978 0.23508 0.0
H4955 H 0.65659 0.37636 0.22892 0.0
C4956 C 0.66236 0.37898 0.24137 0.0
H4957 H 0.642 0.39356 0.24602 0.0
C4958 C 0.66161 0.38331 0.24935 0.0
H4959 H 0.66684 0.38259 0.25409 0.0
H4960 H 0.66806 0.37497 0.24005 0.0
H4961 H 0.87239 0.3898 0.47914 0.0
C4962 C 0.87843 0.38743 0.47625 0.0
C4963 C 0.87806 0.38179 0.469 0.0
C4964 C 0.88658 0.39052 0.47932 0.0
H4965 H 0.88547 0.37463 0.45943 0.0
C4966 C 0.88585 0.37903 0.46498 0.0
C4967 C 0.89405 0.38197 0.46793 0.0
C4968 C 0.89435 0.38761 0.47519 0.0
C4969 C 0.88703 0.39755 0.4861 0.0
H4970 H 0.90064 0.39004 0.47743 0.0
C4971 C 0.8818 0.39737 0.49375 0.0
C4972 C 0.88229 0.40426 0.49993 0.0
C4973 C 0.89269 0.4047 0.48473 0.0
H4974 H 0.89663 0.40515 0.47885 0.0
C4975 C 0.89323 0.41144 0.49083 0.0
H4976 H 0.87738 0.39195 0.49487 0.0
C4977 C 0.88811 0.41123 0.49836 0.0
H4978 H 0.88877 0.41653 0.50303 0.0
H4979 H 0.89763 0.41688 0.4897 0.0
H4980 H 0.88134 0.3996 0.7916 0.0
C4981 C 0.88361 0.39359 0.79462 0.0
C4982 C 0.88923 0.39399 0.80189 0.0
C4983 C 0.88042 0.38545 0.79167 0.0
H4984 H 0.8963 0.38663 0.81157 0.0
C4985 C 0.89189 0.38623 0.80602 0.0
C4986 C 0.88887 0.37804 0.80316 0.0
C4987 C 0.88319 0.37772 0.79592 0.0
C4988 C 0.87347 0.38496 0.78484 0.0
H4989 H 0.88065 0.37146 0.79377 0.0
C4990 C 0.87413 0.38953 0.77681 0.0
C4991 C 0.86754 0.38863 0.77036 0.0
C4992 C 0.86602 0.37977 0.78641 0.0
H4993 H 0.86523 0.37634 0.79257 0.0
C4994 C 0.85944 0.37902 0.78014 0.0
H4995 H 0.87986 0.39351 0.77549 0.0
C4996 C 0.8602 0.38337 0.77217 0.0
H4997 H 0.85496 0.38268 0.76744 0.0
H4998 H 0.85373 0.37503 0.78146 0.0
H4999 H 0.87177 0.63097 0.04184 0.0
C5000 C 0.87794 0.63351 0.04428 0.0
C5001 C 0.87793 0.63937 0.05138 0.0
C5002 C 0.88592 0.6304 0.04083 0.0
H5003 H 0.88588 0.64675 0.06038 0.0
C5004 C 0.88593 0.64237 0.05479 0.0
C5005 C 0.89395 0.6395 0.05135 0.0
C5006 C 0.89388 0.63352 0.04437 0.0
C5007 C 0.88608 0.62317 0.03429 0.0
H5008 H 0.90006 0.63119 0.04174 0.0
C5009 C 0.88079 0.62328 0.02668 0.0
C5010 C 0.8811 0.61625 0.02066 0.0
C5011 C 0.89159 0.61595 0.0358 0.0
H5012 H 0.89561 0.6156 0.04163 0.0
C5013 C 0.89192 0.60903 0.02988 0.0
H5014 H 0.87649 0.6288 0.02546 0.0
C5015 C 0.88675 0.60918 0.02237 0.0
H5016 H 0.88727 0.60376 0.01782 0.0
H5017 H 0.89621 0.60353 0.03111 0.0
H5018 H 0.63866 0.62075 0.29044 0.0
C5019 C 0.63653 0.62683 0.2934 0.0
C5020 C 0.62997 0.6267 0.29987 0.0
C5021 C 0.64055 0.63476 0.29099 0.0
H5022 H 0.62245 0.63447 0.30893 0.0
C5023 C 0.62743 0.63459 0.30387 0.0
C5024 C 0.63146 0.64255 0.3017 0.0
C5025 C 0.63794 0.64259 0.29515 0.0
C5026 C 0.648 0.63488 0.28468 0.0
H5027 H 0.64116 0.64868 0.29346 0.0
C5028 C 0.64755 0.63053 0.27652 0.0
C5029 C 0.65459 0.63107 0.27053 0.0
C5030 C 0.65566 0.6395 0.28686 0.0
H5031 H 0.65627 0.64277 0.29313 0.0
C5032 C 0.66268 0.6399 0.28104 0.0
H5033 H 0.64164 0.62702 0.27474 0.0
C5034 C 0.66216 0.63575 0.27294 0.0
H5035 H 0.66773 0.63614 0.26856 0.0
H5036 H 0.66856 0.64345 0.28282 0.0
H5037 H 0.6506 0.38967 0.5415 0.0
C5038 C 0.64459 0.38736 0.54451 0.0
C5039 C 0.64502 0.38177 0.5518 0.0
C5040 C 0.63642 0.39049 0.54156 0.0
H5041 H 0.63769 0.37468 0.56148 0.0
C5042 C 0.63727 0.37907 0.55593 0.0
C5043 C 0.62904 0.38203 0.55306 0.0
C5044 C 0.62869 0.38769 0.54581 0.0
C5045 C 0.63589 0.39742 0.53473 0.0
H5046 H 0.6224 0.39018 0.54365 0.0
C5047 C 0.64044 0.39677 0.52669 0.0
C5048 C 0.6395 0.40334 0.52024 0.0
C5049 C 0.63067 0.40484 0.53632 0.0
H5050 H 0.62724 0.40561 0.54248 0.0
C5051 C 0.62987 0.4114 0.53005 0.0
H5052 H 0.64445 0.39107 0.52536 0.0
C5053 C 0.63421 0.41065 0.52206 0.0
H5054 H 0.63349 0.41588 0.51732 0.0
H5055 H 0.62585 0.41709 0.53138 0.0
H5056 H 0.73075 0.8828 0.62117 0.0
C5057 C 0.72823 0.88508 0.6274 0.0
C5058 C 0.72189 0.89177 0.6276 0.0
C5059 C 0.73106 0.8811 0.63522 0.0
H5060 H 0.71333 0.8994 0.63585 0.0
C5061 C 0.71848 0.89451 0.6357 0.0
C5062 C 0.72118 0.8906 0.64356 0.0
C5063 C 0.72751 0.88393 0.64326 0.0
C5064 C 0.73716 0.87349 0.63503 0.0
H5065 H 0.72965 0.88088 0.6493 0.0
C5066 C 0.745 0.87361 0.6301 0.0
C5067 C 0.75069 0.86629 0.63011 0.0
C5068 C 0.73505 0.86596 0.63988 0.0
H5069 H 0.72903 0.86563 0.64363 0.0
C5070 C 0.74062 0.85874 0.6399 0.0
H5071 H 0.74668 0.87936 0.62631 0.0
C5072 C 0.74838 0.8589 0.63509 0.0
H5073 H 0.75265 0.85324 0.6354 0.0
H5074 H 0.73893 0.853 0.64369 0.0
H5075 H 0.22969 0.63967 0.39978 0.0
C5076 C 0.22721 0.63719 0.39361 0.0
C5077 C 0.2201 0.63133 0.39361 0.0
C5078 C 0.23061 0.64037 0.38565 0.0
H5079 H 0.21104 0.62402 0.38566 0.0
C5080 C 0.21663 0.6284 0.38562 0.0
C5081 C 0.22002 0.63135 0.37761 0.0
C5082 C 0.22702 0.63732 0.37769 0.0
C5083 C 0.23717 0.64759 0.38552 0.0
H5084 H 0.22962 0.6397 0.37153 0.0
C5085 C 0.24477 0.64746 0.39084 0.0
C5086 C 0.25081 0.65449 0.39057 0.0
C5087 C 0.2357 0.65483 0.38003 0.0
H5088 H 0.22987 0.6552 0.37599 0.0
C5089 C 0.24164 0.66173 0.37974 0.0
H5090 H 0.24596 0.64195 0.39513 0.0
C5091 C 0.24913 0.66157 0.38493 0.0
H5092 H 0.2537 0.66698 0.38444 0.0
H5093 H 0.24043 0.66724 0.37545 0.0
H5094 H 0.63194 0.97924 0.64969 0.0
C5095 C 0.63431 0.97659 0.64355 0.0
C5096 C 0.64006 0.96939 0.6436 0.0
C5097 C 0.63108 0.97988 0.63556 0.0
H5098 H 0.64718 0.96012 0.63572 0.0
C5099 C 0.64286 0.96576 0.63563 0.0
C5100 C 0.63987 0.96905 0.62761 0.0
C5101 C 0.63395 0.9761 0.62763 0.0
C5102 C 0.62398 0.98654 0.63538 0.0
H5103 H 0.6315 0.97861 0.62147 0.0
C5104 C 0.62467 0.99459 0.63987 0.0
C5105 C 0.61795 1.00093 0.63915 0.0
C5106 C 0.6164 0.9848 0.63044 0.0
H5107 H 0.61564 0.97863 0.62703 0.0
C5108 C 0.60968 0.99094 0.62989 0.0
H5109 H 0.63052 0.99604 0.64364 0.0
C5110 C 0.61045 0.99895 0.63417 0.0
H5111 H 0.60512 1.0036 0.63363 0.0
H5112 H 0.60386 0.9895 0.6261 0.0
H5113 H 0.29285 0.38108 0.89874 0.0
C5114 C 0.29531 0.3836 0.89258 0.0
C5115 C 0.30247 0.3894 0.89259 0.0
C5116 C 0.29182 0.38053 0.88461 0.0
H5117 H 0.31152 0.39673 0.88466 0.0
C5118 C 0.3059 0.39239 0.88461 0.0
C5119 C 0.30243 0.38956 0.8766 0.0
C5120 C 0.29538 0.38364 0.87666 0.0
C5121 C 0.28518 0.37338 0.88446 0.0
H5122 H 0.29273 0.38135 0.87049 0.0
C5123 C 0.27766 0.3735 0.88988 0.0
C5124 C 0.27155 0.36654 0.8896 0.0
C5125 C 0.28651 0.36621 0.87884 0.0
H5126 H 0.29229 0.36584 0.87473 0.0
C5127 C 0.28051 0.35936 0.87854 0.0
H5128 H 0.27657 0.37897 0.89426 0.0
C5129 C 0.27309 0.35952 0.88384 0.0
H5130 H 0.26847 0.35416 0.88333 0.0
H5131 H 0.28161 0.3539 0.87416 0.0
H5132 H 0.38889 0.54017 0.64983 0.0
C5133 C 0.3868 0.54315 0.64374 0.0
C5134 C 0.38024 0.54963 0.64385 0.0
C5135 C 0.39087 0.54076 0.63582 0.0
H5136 H 0.37278 0.5587 0.63606 0.0
C5137 C 0.37776 0.55364 0.63596 0.0
C5138 C 0.38184 0.5515 0.62801 0.0
C5139 C 0.38831 0.54494 0.62799 0.0
C5140 C 0.3983 0.53444 0.63573 0.0
H5141 H 0.39156 0.54327 0.6219 0.0
C5142 C 0.39781 0.52628 0.64006 0.0
C5143 C 0.40485 0.52028 0.63955 0.0
C5144 C 0.406 0.53661 0.63114 0.0
H5145 H 0.40663 0.54288 0.62789 0.0
C5146 C 0.413 0.53078 0.63077 0.0
H5147 H 0.39189 0.5245 0.64354 0.0
C5148 C 0.41244 0.52267 0.6349 0.0
H5149 H 0.41801 0.51829 0.63453 0.0
H5150 H 0.4189 0.53255 0.62725 0.0
H5151 H 0.79256 0.13973 0.12219 0.0
C5152 C 0.79502 0.1372 0.12835 0.0
C5153 C 0.80216 0.13139 0.12835 0.0
C5154 C 0.79153 0.14029 0.13632 0.0
H5155 H 0.8112 0.12404 0.13629 0.0
C5156 C 0.80559 0.1284 0.13633 0.0
C5157 C 0.80211 0.13124 0.14434 0.0
C5158 C 0.79508 0.13718 0.14427 0.0
C5159 C 0.78491 0.14746 0.13646 0.0
H5160 H 0.79243 0.13948 0.15044 0.0
C5161 C 0.77738 0.14734 0.13105 0.0
C5162 C 0.77129 0.15433 0.13133 0.0
C5163 C 0.78626 0.15464 0.14206 0.0
H5164 H 0.79204 0.155 0.14617 0.0
C5165 C 0.78027 0.1615 0.14236 0.0
H5166 H 0.77627 0.14187 0.12668 0.0
C5167 C 0.77285 0.16136 0.13707 0.0
H5168 H 0.76824 0.16673 0.13757 0.0
H5169 H 0.78139 0.16697 0.14673 0.0
H5170 H 0.63196 0.04144 0.87109 0.0
C5171 C 0.63439 0.04405 0.87723 0.0
C5172 C 0.64026 0.05115 0.87717 0.0
C5173 C 0.63113 0.04081 0.88522 0.0
H5174 H 0.64752 0.06032 0.88502 0.0
C5175 C 0.64313 0.05474 0.88512 0.0
C5176 C 0.6401 0.05149 0.89316 0.0
C5177 C 0.63408 0.04453 0.89314 0.0
C5178 C 0.62392 0.03425 0.88541 0.0
H5179 H 0.63161 0.04205 0.89931 0.0
C5180 C 0.62444 0.02624 0.88081 0.0
C5181 C 0.6176 0.02002 0.8815 0.0
C5182 C 0.6164 0.03607 0.89042 0.0
H5183 H 0.61578 0.04221 0.8939 0.0
C5184 C 0.60958 0.03004 0.89093 0.0
H5185 H 0.63023 0.02474 0.87699 0.0
C5186 C 0.61017 0.02208 0.88655 0.0
H5187 H 0.60475 0.01753 0.88707 0.0
H5188 H 0.60381 0.03155 0.89478 0.0
H5189 H 0.89091 0.97968 0.37099 0.0
C5190 C 0.8886 0.97674 0.37703 0.0
C5191 C 0.88298 0.96947 0.37665 0.0
C5192 C 0.89173 0.97979 0.38516 0.0
H5193 H 0.87592 0.95981 0.38404 0.0
C5194 C 0.8803 0.96539 0.38442 0.0
C5195 C 0.88328 0.9683 0.39261 0.0
C5196 C 0.88889 0.9756 0.39291 0.0
C5197 C 0.89871 0.98661 0.38561 0.0
H5198 H 0.89134 0.97782 0.39919 0.0
C5199 C 0.89846 0.99427 0.38039 0.0
C5200 C 0.9053 1.0005 0.38087 0.0
C5201 C 0.9059 0.9853 0.39123 0.0
H5202 H 0.90642 0.97943 0.39516 0.0
C5203 C 0.9126 0.99146 0.39177 0.0
H5204 H 0.893 0.99535 0.37599 0.0
C5205 C 0.91232 0.99899 0.38666 0.0
H5206 H 0.91758 1.0037 0.38732 0.0
H5207 H 0.91807 0.99037 0.39615 0.0
H5208 H 0.39855 0.28731 0.13084 0.0
C5209 C 0.39267 0.29129 0.13094 0.0
C5210 C 0.39332 0.30042 0.12981 0.0
C5211 C 0.3844 0.28728 0.1319 0.0
H5212 H 0.38609 0.31241 0.12816 0.0
C5213 C 0.38562 0.30547 0.12957 0.0
C5214 C 0.37732 0.30163 0.13051 0.0
C5215 C 0.37681 0.29255 0.13184 0.0
C5216 C 0.38349 0.27755 0.13228 0.0
H5217 H 0.37043 0.28955 0.13273 0.0
C5218 C 0.38907 0.27227 0.13747 0.0
C5219 C 0.38762 0.26316 0.13804 0.0
C5220 C 0.37676 0.2735 0.12744 0.0
H5221 H 0.37252 0.2773 0.1232 0.0
C5222 C 0.37541 0.26451 0.12793 0.0
H5223 H 0.3943 0.27523 0.14124 0.0
C5224 C 0.38074 0.25937 0.13324 0.0
H5225 H 0.37956 0.25239 0.13353 0.0
H5226 H 0.37019 0.2615 0.12418 0.0
H5227 H 0.48438 0.64723 0.88091 0.0
C5228 C 0.4804 0.64136 0.88109 0.0
C5229 C 0.47123 0.642 0.88019 0.0
C5230 C 0.48447 0.63311 0.88179 0.0
H5231 H 0.4592 0.63474 0.87882 0.0
C5232 C 0.46618 0.63429 0.88004 0.0
C5233 C 0.47009 0.62601 0.88076 0.0
C5234 C 0.47923 0.62551 0.88177 0.0
C5235 C 0.49421 0.63225 0.88164 0.0
H5236 H 0.48232 0.61915 0.88239 0.0
C5237 C 0.49972 0.63746 0.88696 0.0
C5238 C 0.50892 0.63622 0.88682 0.0
C5239 C 0.49803 0.62604 0.87602 0.0
H5240 H 0.494 0.62208 0.87172 0.0
C5241 C 0.50707 0.62491 0.87576 0.0
H5242 H 0.49687 0.64224 0.89136 0.0
C5243 C 0.51248 0.62993 0.88111 0.0
H5244 H 0.5195 0.62896 0.88068 0.0
H5245 H 0.50992 0.62013 0.87136 0.0
H5246 H 0.12461 0.73349 0.63111 0.0
C5247 C 0.13041 0.72941 0.63087 0.0
C5248 C 0.12952 0.72033 0.6295 0.0
C5249 C 0.1388 0.73323 0.63164 0.0
H5250 H 0.13644 0.70821 0.62736 0.0
C5251 C 0.13708 0.71514 0.62875 0.0
C5252 C 0.14547 0.7188 0.62939 0.0
C5253 C 0.14628 0.72778 0.63109 0.0
C5254 C 0.13991 0.74293 0.63232 0.0
H5255 H 0.15278 0.73059 0.63164 0.0
C5256 C 0.13433 0.74819 0.63754 0.0
C5257 C 0.13586 0.75727 0.6383 0.0
C5258 C 0.14675 0.747 0.62765 0.0
H5259 H 0.15097 0.74327 0.62334 0.0
C5260 C 0.14822 0.75597 0.62837 0.0
H5261 H 0.129 0.74523 0.64118 0.0
C5262 C 0.14287 0.76106 0.63371 0.0
H5263 H 0.14412 0.76803 0.63413 0.0
H5264 H 0.15352 0.75898 0.62476 0.0
H5265 H 0.03778 0.37298 0.38042 0.0
C5266 C 0.04165 0.37892 0.3805 0.0
C5267 C 0.05085 0.37843 0.37969 0.0
C5268 C 0.03741 0.38709 0.38094 0.0
H5269 H 0.06278 0.38595 0.37844 0.0
C5270 C 0.05576 0.38623 0.37951 0.0
C5271 C 0.05165 0.39444 0.37992 0.0
C5272 C 0.04249 0.39479 0.38074 0.0
C5273 C 0.02766 0.38775 0.38066 0.0
H5274 H 0.03928 0.40112 0.38105 0.0
C5275 C 0.0222 0.38267 0.38615 0.0
C5276 C 0.01299 0.38371 0.38588 0.0
C5277 C 0.02378 0.39364 0.37475 0.0
H5278 H 0.02777 0.3975 0.37033 0.0
C5279 C 0.01471 0.39458 0.37436 0.0
H5280 H 0.02511 0.37813 0.39077 0.0
C5281 C 1.00936 0.38969 0.37988 0.0
H5282 H 1.00232 0.3905 0.37936 0.0
H5283 H 0.01182 0.39911 0.36975 0.0
H5284 H 0.39823 0.73342 0.38998 0.0
C5285 C 0.39237 0.72941 0.38994 0.0
C5286 C 0.39309 0.7203 0.39115 0.0
C5287 C 0.38408 0.73337 0.389 0.0
H5288 H 0.38594 0.70828 0.39293 0.0
C5289 C 0.38542 0.7152 0.39147 0.0
C5290 C 0.37709 0.71898 0.39054 0.0
C5291 C 0.37652 0.72805 0.38913 0.0
C5292 C 0.38311 0.74309 0.38853 0.0
H5293 H 0.37012 0.731 0.38823 0.0
C5294 C 0.38867 0.74836 0.38332 0.0
C5295 C 0.38719 0.75746 0.38268 0.0
C5296 C 0.37635 0.74714 0.39333 0.0
H5297 H 0.37213 0.74335 0.39759 0.0
C5298 C 0.37496 0.75613 0.39277 0.0
H5299 H 0.39393 0.7454 0.37957 0.0
C5300 C 0.38028 0.76125 0.38744 0.0
H5301 H 0.37907 0.76823 0.38711 0.0
H5302 H 0.36972 0.75914 0.39649 0.0
H5303 H 0.03781 0.64755 0.14007 0.0
C5304 C 0.04179 0.64168 0.14034 0.0
C5305 C 0.05095 0.64242 0.14133 0.0
C5306 C 0.03776 0.63339 0.14005 0.0
H5307 H 0.06304 0.63532 0.143 0.0
C5308 C 0.05602 0.63477 0.14203 0.0
C5309 C 0.05215 0.62645 0.14196 0.0
C5310 C 0.04304 0.62583 0.14074 0.0
C5311 C 0.02801 0.63249 0.13977 0.0
H5312 H 0.04001 0.61942 0.14067 0.0
C5313 C 0.02272 0.63779 0.1343 0.0
C5314 C 0.01357 0.63641 0.13389 0.0
C5315 C 0.02392 0.62613 0.14505 0.0
H5316 H 0.0277 0.62214 0.14953 0.0
C5317 C 0.01489 0.62483 0.14469 0.0
H5318 H 0.0257 0.64275 0.1302 0.0
C5319 C 1.00975 0.62987 0.1391 0.0
H5320 H 1.00274 0.62876 0.13895 0.0
H5321 H 0.01186 0.61989 0.14876 0.0
H5322 H 0.12468 0.28728 0.8901 0.0
C5323 C 0.13052 0.29131 0.88997 0.0
C5324 C 0.1298 0.30042 0.89118 0.0
C5325 C 0.13881 0.28737 0.88892 0.0
H5326 H 0.13693 0.31247 0.89285 0.0
C5327 C 0.13745 0.30555 0.8914 0.0
C5328 C 0.14578 0.30179 0.89037 0.0
C5329 C 0.14636 0.29272 0.88897 0.0
C5330 C 0.13981 0.27766 0.88844 0.0
H5331 H 0.15275 0.28978 0.88799 0.0
C5332 C 0.1342 0.27237 0.88329 0.0
C5333 C 0.13571 0.26327 0.88264 0.0
C5334 C 0.14663 0.27363 0.89318 0.0
H5335 H 0.15089 0.27743 0.89739 0.0
C5336 C 0.14804 0.26465 0.8926 0.0
H5337 H 0.1289 0.27532 0.8796 0.0
C5338 C 0.14268 0.25951 0.88731 0.0
H5339 H 0.14391 0.25253 0.88697 0.0
H5340 H 0.15333 0.26166 0.89625 0.0
H5341 H 0.48439 0.37304 0.63993 0.0
C5342 C 0.48029 0.37883 0.64016 0.0
C5343 C 0.47121 0.37793 0.64156 0.0
C5344 C 0.48411 0.3872 0.63936 0.0
H5345 H 0.45906 0.38484 0.64371 0.0
C5346 C 0.466 0.38548 0.64231 0.0
C5347 C 0.46966 0.39385 0.64163 0.0
C5348 C 0.47866 0.39466 0.63991 0.0
C5349 C 0.49382 0.38832 0.63865 0.0
H5350 H 0.48146 0.40115 0.63934 0.0
C5351 C 0.49908 0.38279 0.63338 0.0
C5352 C 0.50818 0.38434 0.63258 0.0
C5353 C 0.49792 0.39513 0.64335 0.0
H5354 H 0.49419 0.39931 0.64769 0.0
C5355 C 0.50689 0.39661 0.6426 0.0
H5356 H 0.49611 0.37748 0.62973 0.0
C5357 C 0.51198 0.39131 0.63721 0.0
H5358 H 0.51896 0.39257 0.63676 0.0
H5359 H 0.50992 0.40189 0.64623 0.0
H5360 H 0.13145 0.39784 0.28711 0.0
C5361 C 0.13132 0.39205 0.2912 0.0
C5362 C 0.13029 0.39293 0.30033 0.0
C5363 C 0.13182 0.38369 0.28733 0.0
H5364 H 0.12878 0.38603 0.31253 0.0
C5365 C 0.12977 0.38537 0.30554 0.0
C5366 C 0.13006 0.37698 0.30182 0.0
C5367 C 0.1313 0.37621 0.29275 0.0
C5368 C 0.13212 0.38261 0.27761 0.0
H5369 H 0.13153 0.36975 0.28983 0.0
C5370 C 0.13752 0.3879 0.27223 0.0
C5371 C 0.13796 0.38635 0.26312 0.0
C5372 C 0.12695 0.37608 0.27365 0.0
H5373 H 0.12253 0.3721 0.27751 0.0
C5374 C 0.12733 0.37463 0.26466 0.0
H5375 H 0.14154 0.39298 0.27512 0.0
C5376 C 0.13284 0.37966 0.25944 0.0
H5377 H 0.13301 0.37841 0.25246 0.0
H5378 H 0.12333 0.36956 0.26173 0.0
H5379 H 0.37442 0.38065 0.03717 0.0
C5380 C 0.38027 0.38078 0.04119 0.0
C5381 C 0.37957 0.37958 0.05031 0.0
C5382 C 0.38856 0.38182 0.03723 0.0
H5383 H 0.38673 0.37792 0.06234 0.0
C5384 C 0.38723 0.37937 0.05542 0.0
C5385 C 0.39555 0.3804 0.05163 0.0
C5386 C 0.39612 0.38178 0.04256 0.0
C5387 C 0.38953 0.38229 0.02751 0.0
H5388 H 0.4025 0.38275 0.03961 0.0
C5389 C 0.38391 0.38744 0.02223 0.0
C5390 C 0.3854 0.38809 0.01313 0.0
C5391 C 0.39634 0.37756 0.02346 0.0
H5392 H 0.40061 0.37335 0.02726 0.0
C5393 C 0.39773 0.37813 0.01447 0.0
H5394 H 0.37862 0.39113 0.02519 0.0
C5395 C 0.39236 0.38341 1.00935 0.0
H5396 H 0.39357 0.38375 1.00236 0.0
H5397 H 0.40301 0.37447 0.01147 0.0
H5398 H 0.39108 0.62338 0.78724 0.0
C5399 C 0.39089 0.62925 0.79123 0.0
C5400 C 0.3918 0.6286 0.80039 0.0
C5401 C 0.39015 0.6375 0.78718 0.0
H5402 H 0.39315 0.63583 0.81242 0.0
C5403 C 0.39193 0.63629 0.80544 0.0
C5404 C 0.39117 0.64458 0.80156 0.0
C5405 C 0.39015 0.64509 0.79244 0.0
C5406 C 0.39029 0.63838 0.77746 0.0
H5407 H 0.38949 0.65145 0.78937 0.0
C5408 C 0.38499 0.63315 0.77194 0.0
C5409 C 0.38511 0.63441 0.76277 0.0
C5410 C 0.39588 0.64463 0.77366 0.0
H5411 H 0.40016 0.64861 0.77768 0.0
C5412 C 0.39612 0.64578 0.76463 0.0
H5413 H 0.38062 0.62833 0.77478 0.0
C5414 C 0.39079 0.64075 0.75922 0.0
H5415 H 0.39121 0.64174 0.75221 0.0
H5416 H 0.40049 0.65059 0.7618 0.0
H5417 H 0.14849 0.63951 0.53764 0.0
C5418 C 0.14262 0.63949 0.54164 0.0
C5419 C 0.14331 0.64068 0.55076 0.0
C5420 C 0.13434 0.63858 0.53765 0.0
H5421 H 0.13612 0.64246 0.56277 0.0
C5422 C 0.13563 0.64102 0.55584 0.0
C5423 C 0.12731 0.64011 0.55203 0.0
C5424 C 0.12676 0.63873 0.54295 0.0
C5425 C 0.13339 0.63815 0.52793 0.0
H5426 H 0.12037 0.63786 0.53997 0.0
C5427 C 0.13891 0.63289 0.52265 0.0
C5428 C 0.13744 0.63229 0.51354 0.0
C5429 C 0.12669 0.64303 0.52388 0.0
H5430 H 0.1225 0.64732 0.52767 0.0
C5431 C 0.12532 0.64251 0.51488 0.0
H5432 H 0.14412 0.62909 0.52562 0.0
C5433 C 0.13059 0.63713 0.50976 0.0
H5434 H 0.12939 0.63682 0.50277 0.0
H5435 H 0.12012 0.64628 0.51187 0.0
H5436 H 0.13118 0.62366 0.23374 0.0
C5437 C 0.13143 0.6295 0.22973 0.0
C5438 C 0.13059 0.62878 0.22059 0.0
C5439 C 0.13232 0.63779 0.23369 0.0
H5440 H 0.12941 0.63577 0.20844 0.0
C5441 C 0.13052 0.63638 0.21542 0.0
C5442 C 0.13127 0.64471 0.21921 0.0
C5443 C 0.13235 0.64532 0.22833 0.0
C5444 C 0.13263 0.63878 0.2434 0.0
H5445 H 0.13316 0.65171 0.23129 0.0
C5446 C 0.13779 0.63326 0.24876 0.0
C5447 C 0.13833 0.63478 0.25787 0.0
C5448 C 0.12777 0.64555 0.24737 0.0
H5449 H 0.12356 0.64975 0.24351 0.0
C5450 C 0.12823 0.64697 0.25636 0.0
H5451 H 0.14158 0.62801 0.24586 0.0
C5452 C 0.13352 0.64169 0.26157 0.0
H5453 H 0.13377 0.64293 0.26855 0.0
H5454 H 0.12448 0.65221 0.25931 0.0
H5455 H 0.14863 0.38094 0.98371 0.0
C5456 C 0.14275 0.38103 0.97973 0.0
C5457 C 0.14341 0.3799 0.9706 0.0
C5458 C 0.13448 0.38195 0.98375 0.0
H5459 H 0.13618 0.37824 0.9586 0.0
C5460 C 0.13571 0.37964 0.96554 0.0
C5461 C 0.12741 0.38056 0.96938 0.0
C5462 C 0.12689 0.38187 0.97847 0.0
C5463 C 0.13357 0.38234 0.99347 0.0
H5464 H 0.12051 0.38274 0.98148 0.0
C5465 C 0.13911 0.38757 0.99876 0.0
C5466 C 0.13766 0.38813 1.00787 0.0
C5467 C 0.12688 0.37744 0.99753 0.0
H5468 H 0.12267 0.37318 0.99372 0.0
C5469 C 0.12553 0.37793 1.00653 0.0
H5470 H 0.1443 0.39138 0.99579 0.0
C5471 C 0.13082 0.38328 0.01166 0.0
H5472 H 0.12964 0.38356 0.01865 0.0
H5473 H 0.12034 0.37414 1.00954 0.0
H5474 H 0.39095 0.39741 0.73396 0.0
C5475 C 0.39083 0.39153 0.73 0.0
C5476 C 0.39174 0.39214 0.72084 0.0
C5477 C 0.39016 0.38329 0.73408 0.0
H5478 H 0.39319 0.38486 0.70885 0.0
C5479 C 0.39195 0.38442 0.71582 0.0
C5480 C 0.39126 0.37615 0.71974 0.0
C5481 C 0.39022 0.37567 0.72887 0.0
C5482 C 0.3903 0.38246 0.74381 0.0
H5483 H 0.38961 0.36932 0.73197 0.0
C5484 C 0.38497 0.38768 0.74931 0.0
C5485 C 0.3851 0.38647 0.75849 0.0
C5486 C 0.39592 0.37625 0.74764 0.0
H5487 H 0.40023 0.37228 0.74364 0.0
C5488 C 0.39617 0.37514 0.75668 0.0
H5489 H 0.38058 0.39247 0.74645 0.0
C5490 C 0.39081 0.38017 0.76206 0.0
H5491 H 0.39123 0.37922 0.76908 0.0
H5492 H 0.40056 0.37037 0.75953 0.0
H5493 H 0.37448 0.63963 0.48374 0.0
C5494 C 0.38028 0.63989 0.47965 0.0
C5495 C 0.37937 0.64129 0.47057 0.0
C5496 C 0.38867 0.63912 0.48346 0.0
H5497 H 0.38628 0.64347 0.45845 0.0
C5498 C 0.38693 0.64207 0.46538 0.0
C5499 C 0.39532 0.64143 0.46903 0.0
C5500 C 0.39614 0.63971 0.47801 0.0
C5501 C 0.3898 0.63843 0.49316 0.0
H5502 H 0.40264 0.63917 0.48081 0.0
C5503 C 0.38428 0.63314 0.49841 0.0
C5504 C 0.38584 0.63235 0.50749 0.0
C5505 C 0.3966 0.64315 0.49724 0.0
H5506 H 0.40077 0.64751 0.49351 0.0
C5507 C 0.39809 0.64241 0.5062 0.0
H5508 H 0.37898 0.62946 0.49544 0.0
C5509 C 0.39281 0.63701 0.51128 0.0
H5510 H 0.39408 0.63656 0.51825 0.0
H5511 H 0.40336 0.64607 0.50922 0.0
H5512 H 0.28764 0.12985 0.3975 0.0
C5513 C 0.29176 0.12966 0.39173 0.0
C5514 C 0.30084 0.12823 0.39266 0.0
C5515 C 0.28799 0.13053 0.38333 0.0
H5516 H 0.31302 0.12613 0.3858 0.0
C5517 C 0.30609 0.12754 0.38513 0.0
C5518 C 0.30247 0.12828 0.37674 0.0
C5519 C 0.29348 0.13002 0.3759 0.0
C5520 C 0.27829 0.13126 0.38217 0.0
H5521 H 0.29071 0.13064 0.3694 0.0
C5522 C 0.27302 0.13654 0.38768 0.0
C5523 C 0.26393 0.13737 0.38608 0.0
C5524 C 0.27422 0.12659 0.37533 0.0
H5525 H 0.27796 0.12224 0.37116 0.0
C5526 C 0.26526 0.12737 0.3738 0.0
H5527 H 0.27598 0.14018 0.39301 0.0
C5528 C 0.26016 0.13277 0.37908 0.0
H5529 H 0.25319 0.13324 0.37778 0.0
H5530 H 0.26224 0.12375 0.3685 0.0
H5531 H 0.78809 0.39007 0.62322 0.0
C5532 C 0.79221 0.39031 0.62899 0.0
C5533 C 0.80129 0.39177 0.62804 0.0
C5534 C 0.78844 0.38945 0.63738 0.0
H5535 H 0.81346 0.39395 0.6349 0.0
C5536 C 0.80653 0.39251 0.63557 0.0
C5537 C 0.80292 0.39176 0.64397 0.0
C5538 C 0.79394 0.38999 0.64481 0.0
C5539 C 0.77874 0.38869 0.63855 0.0
H5540 H 0.79116 0.38937 0.65131 0.0
C5541 C 0.77349 0.38339 0.63305 0.0
C5542 C 0.7644 0.38255 0.63465 0.0
C5543 C 0.77466 0.39337 0.64539 0.0
H5544 H 0.7784 0.39772 0.64955 0.0
C5545 C 0.7657 0.39257 0.64692 0.0
H5546 H 0.77645 0.37976 0.62773 0.0
C5547 C 0.76061 0.38715 0.64165 0.0
H5548 H 0.75365 0.38667 0.64295 0.0
H5549 H 0.76268 0.39619 0.65221 0.0
H5550 H 0.38154 0.03728 0.37304 0.0
C5551 C 0.3817 0.04091 0.37914 0.0
C5552 C 0.38159 0.05012 0.37896 0.0
C5553 C 0.38155 0.03641 0.38717 0.0
H5554 H 0.38095 0.06187 0.38674 0.0
C5555 C 0.38144 0.05479 0.38689 0.0
C5556 C 0.38114 0.05043 0.39496 0.0
C5557 C 0.3813 0.04124 0.39504 0.0
C5558 C 0.38073 0.0267 0.38748 0.0
H5559 H 0.38109 0.03782 0.40125 0.0
C5560 C 0.38633 0.02114 0.38262 0.0
C5561 C 0.38559 0.01194 0.38339 0.0
C5562 C 0.37426 0.02296 0.39285 0.0
H5563 H 0.36978 0.02705 0.39653 0.0
C5564 C 0.37341 0.01391 0.39348 0.0
H5565 H 0.39138 0.02395 0.3785 0.0
C5566 C 0.37902 1.00845 0.38883 0.0
H5567 H 0.37814 1.00144 0.3894 0.0
H5568 H 0.36836 0.01112 0.39761 0.0
H5569 H 0.73428 0.63066 0.12312 0.0
C5570 C 0.73016 0.6304 0.1289 0.0
C5571 C 0.72108 0.62895 0.12796 0.0
C5572 C 0.73395 0.63119 0.13729 0.0
H5573 H 0.70893 0.62673 0.13483 0.0
C5574 C 0.71586 0.62816 0.1355 0.0
C5575 C 0.71949 0.62884 0.14389 0.0
C5576 C 0.72847 0.6306 0.14473 0.0
C5577 C 0.74366 0.63192 0.13845 0.0
H5578 H 0.73126 0.63116 0.15123 0.0
C5579 C 0.74891 0.63725 0.13297 0.0
C5580 C 0.758 0.63807 0.13457 0.0
C5581 C 0.74774 0.6272 0.14524 0.0
H5582 H 0.74401 0.62281 0.14938 0.0
C5583 C 0.7567 0.62797 0.14677 0.0
H5584 H 0.74594 0.64092 0.12768 0.0
C5585 C 0.76179 0.63342 0.14153 0.0
H5586 H 0.76876 0.63389 0.14283 0.0
H5587 H 0.75973 0.62432 0.15203 0.0
H5588 H 0.64103 0.48319 0.37379 0.0
C5589 C 0.64091 0.4791 0.37958 0.0
C5590 C 0.64223 0.47001 0.37878 0.0
C5591 C 0.63975 0.48294 0.38789 0.0
H5592 H 0.64399 0.45791 0.3858 0.0
C5593 C 0.64245 0.46481 0.38638 0.0
C5594 C 0.64129 0.46848 0.39472 0.0
C5595 C 0.63978 0.47753 0.39538 0.0
C5596 C 0.63914 0.49264 0.38897 0.0
H5597 H 0.6387 0.48039 0.40177 0.0
C5598 C 0.63402 0.49793 0.38334 0.0
C5599 C 0.63325 0.50701 0.38492 0.0
C5600 C 0.64373 0.49666 0.3959 0.0
H5601 H 0.64792 0.49287 0.40018 0.0
C5602 C 0.64303 0.50562 0.39738 0.0
H5603 H 0.63044 0.495 0.37797 0.0
C5604 C 0.63778 0.51075 0.39199 0.0
H5605 H 0.63735 0.51772 0.39327 0.0
H5606 H 0.64658 0.5086 0.40274 0.0
H5607 H 0.23473 0.88993 0.89741 0.0
C5608 C 0.23059 0.89016 0.89166 0.0
C5609 C 0.22152 0.89166 0.89263 0.0
C5610 C 0.23432 0.88925 0.88325 0.0
H5611 H 0.20933 0.89386 0.88581 0.0
C5612 C 0.21625 0.89239 0.88512 0.0
C5613 C 0.21983 0.8916 0.87671 0.0
C5614 C 0.22881 0.88979 0.87584 0.0
C5615 C 0.24402 0.88845 0.88205 0.0
H5616 H 0.23155 0.88914 0.86933 0.0
C5617 C 0.24927 0.88318 0.88758 0.0
C5618 C 0.25835 0.88229 0.88596 0.0
C5619 C 0.24809 0.89305 0.87517 0.0
H5620 H 0.24436 0.89739 0.87098 0.0
C5621 C 0.25705 0.89221 0.87362 0.0
H5622 H 0.24632 0.8796 0.89294 0.0
C5623 C 0.26213 0.88683 0.87892 0.0
H5624 H 0.2691 0.88631 0.8776 0.0
H5625 H 0.26006 0.89577 0.86829 0.0
H5626 H 0.38161 0.98396 0.14752 0.0
C5627 C 0.38177 0.98 0.14163 0.0
C5628 C 0.38085 0.97085 0.14225 0.0
C5629 C 0.38248 0.98408 0.1334 0.0
H5630 H 0.37945 0.95886 0.13496 0.0
C5631 C 0.38068 0.96583 0.13453 0.0
C5632 C 0.38141 0.96974 0.12625 0.0
C5633 C 0.38245 0.97887 0.12578 0.0
C5634 C 0.38236 0.9938 0.13256 0.0
H5635 H 0.38309 0.98196 0.11943 0.0
C5636 C 0.38769 0.99929 0.1378 0.0
C5637 C 0.38758 1.00847 0.13658 0.0
C5638 C 0.37676 0.99765 0.12634 0.0
H5639 H 0.37245 0.99365 0.12236 0.0
C5640 C 0.37653 1.00668 0.12523 0.0
H5641 H 0.39207 0.99642 0.14259 0.0
C5642 C 0.3819 0.01205 0.13027 0.0
H5643 H 0.38149 0.01906 0.12931 0.0
H5644 H 0.37215 1.00954 0.12045 0.0
H5645 H 0.14085 0.03693 0.6475 0.0
C5646 C 0.1406 0.0408 0.64157 0.0
C5647 C 0.14104 0.04998 0.64209 0.0
C5648 C 0.14021 0.03663 0.63335 0.0
H5649 H 0.14194 0.06199 0.63483 0.0
C5650 C 0.14113 0.05496 0.63437 0.0
C5651 C 0.14086 0.05095 0.6261 0.0
C5652 C 0.14025 0.04178 0.62568 0.0
C5653 C 0.14062 0.02691 0.63262 0.0
H5654 H 0.13992 0.0386 0.61935 0.0
C5655 C 0.13521 0.02135 0.63768 0.0
C5656 C 0.13555 0.01217 0.63653 0.0
C5657 C 0.14654 0.02316 0.62664 0.0
H5658 H 0.15089 0.02723 0.62279 0.0
C5659 C 0.147 0.01412 0.62561 0.0
H5660 H 0.13058 0.02417 0.64228 0.0
C5661 C 0.14156 1.00867 0.63048 0.0
H5662 H 0.14215 1.00166 0.62958 0.0
H5663 H 0.15162 0.01132 0.62101 0.0
C5664 C 0.02262 0.15513 0.39508 0.0
C5665 C 0.02844 0.15094 0.4009 0.0
H5666 H 0.01167 0.15373 0.3863 0.0
C5667 C 0.02688 0.14211 0.40302 0.0
H5668 H 0.02362 0.16189 0.3932 0.0
C5669 C 0.02012 0.13745 0.39897 0.0
C5670 C 0.01463 0.14152 0.39281 0.0
H5671 H 0.03104 0.1387 0.40763 0.0
H5672 H 0.01935 0.13055 0.40041 0.0
C5673 C 0.01576 0.15047 0.3911 0.0
C5674 C 0.11653 0.77104 0.64549 0.0
C5675 C 0.12049 0.77678 0.65156 0.0
H5676 H 0.11828 0.76023 0.63664 0.0
C5677 C 0.12923 0.77516 0.65404 0.0
H5678 H 0.10985 0.77209 0.64334 0.0
C5679 C 0.13405 0.76845 0.6501 0.0
C5680 C 0.13023 0.76307 0.6437 0.0
H5681 H 0.13246 0.77926 0.65884 0.0
H5682 H 0.1409 0.76765 0.65183 0.0
C5683 C 0.12134 0.76423 0.64164 0.0
C5684 C 0.50002 0.86531 0.89586 0.0
C5685 C 0.49426 0.86943 0.9018 0.0
H5686 H 0.51084 0.86683 0.88695 0.0
C5687 C 0.49584 0.87824 0.90401 0.0
H5688 H 0.49901 0.85858 0.89391 0.0
C5689 C 0.50255 0.88295 0.89992 0.0
C5690 C 0.50795 0.87896 0.89364 0.0
H5691 H 0.49173 0.88159 0.90871 0.0
H5692 H 0.50331 0.88984 0.90143 0.0
C5693 C 0.50682 0.87003 0.89185 0.0
C5694 C 0.40669 0.24914 0.14539 0.0
C5695 C 0.40261 0.24353 0.1515 0.0
H5696 H 0.40515 0.2599 0.13644 0.0
C5697 C 0.3939 0.24533 0.15395 0.0
H5698 H 0.41336 0.24795 0.14326 0.0
C5699 C 0.38921 0.2521 0.14994 0.0
C5700 C 0.39315 0.25735 0.14351 0.0
H5701 H 0.39058 0.24134 0.15878 0.0
H5702 H 0.38237 0.25302 0.15164 0.0
C5703 C 0.40201 0.256 0.14147 0.0
C5704 C 0.02231 0.86555 0.12555 0.0
C5705 C 0.02799 0.86966 0.11952 0.0
H5706 H 0.01156 0.86707 0.13453 0.0
C5707 C 0.02633 0.87844 0.11726 0.0
H5708 H 0.02339 0.85884 0.12753 0.0
C5709 C 0.01963 0.88314 0.12137 0.0
C5710 C 0.01431 0.87916 0.12772 0.0
H5711 H 0.03038 0.88178 0.1125 0.0
H5712 H 0.01881 0.89001 0.11981 0.0
C5713 C 0.01551 0.87025 0.12957 0.0
C5714 C 0.39348 0.77531 0.36679 0.0
C5715 C 0.40225 0.777 0.36914 0.0
H5716 H 0.3819 0.76774 0.3692 0.0
C5717 C 0.40633 0.77132 0.37517 0.0
H5718 H 0.39016 0.77936 0.36201 0.0
C5719 C 0.40162 0.7645 0.37913 0.0
C5720 C 0.39271 0.76326 0.37719 0.0
H5721 H 0.41303 0.77242 0.37723 0.0
H5722 H 0.40478 0.76054 0.3841 0.0
C5723 C 0.38876 0.76859 0.37082 0.0
C5724 C 0.49545 0.14235 0.61806 0.0
C5725 C 0.49397 0.15124 0.61996 0.0
H5726 H 0.50286 0.13079 0.62096 0.0
C5727 C 0.49982 0.15552 0.6257 0.0
H5728 H 0.49126 0.13887 0.61352 0.0
C5729 C 0.50663 0.1509 0.6298 0.0
C5730 C 0.50767 0.1419 0.62831 0.0
H5731 H 0.49888 0.16233 0.62741 0.0
H5732 H 0.51073 0.15423 0.63453 0.0
C5733 C 0.50217 0.13773 0.62223 0.0
C5734 C 0.12933 0.24544 0.86676 0.0
C5735 C 0.12061 0.24368 0.86922 0.0
H5736 H 0.14089 0.25308 0.86904 0.0
C5737 C 0.11657 0.24931 0.87534 0.0
H5738 H 0.13261 0.24143 0.86192 0.0
C5739 C 0.12129 0.25615 0.87925 0.0
C5740 C 0.13015 0.25746 0.87719 0.0
H5741 H 0.1099 0.24815 0.87748 0.0
H5742 H 0.11817 0.26007 0.88428 0.0
C5743 C 0.13406 0.25219 0.87075 0.0
C5744 C 0.39784 0.02028 0.15596 0.0
C5745 C 0.40151 0.02771 0.15191 0.0
H5746 H 0.39062 1.00832 0.15432 0.0
C5747 C 0.40141 0.02817 0.14271 0.0
H5748 H 0.39793 0.01962 0.16302 0.0
C5749 C 0.39732 0.02165 0.13776 0.0
C5750 C 0.39318 0.0145 0.14183 0.0
H5751 H 0.40409 0.03378 0.13933 0.0
H5752 H 0.39714 0.02237 0.1307 0.0
C5753 C 0.39373 0.01374 0.15098 0.0
C5754 C 0.24611 0.15331 0.39243 0.0
C5755 C 0.2444 0.15093 0.40117 0.0
H5756 H 0.25369 0.15094 0.38086 0.0
C5757 C 0.25007 0.14485 0.40522 0.0
H5758 H 0.24207 0.15812 0.38914 0.0
C5759 C 0.25689 0.14089 0.4005 0.0
C5760 C 0.25814 0.14287 0.39162 0.0
H5761 H 0.24895 0.14277 0.4119 0.0
H5762 H 0.26083 0.1359 0.40363 0.0
C5763 C 0.25283 0.14928 0.3877 0.0
C5764 C 0.12463 1.00035 0.65555 0.0
C5765 C 0.12129 0.9928 0.65141 0.0
H5766 H 0.13171 0.01242 0.65412 0.0
C5767 C 0.12184 0.99225 0.64224 0.0
H5768 H 0.12419 1.00109 0.66259 0.0
C5769 C 0.12604 0.99879 0.63741 0.0
C5770 C 0.12985 1.00606 0.64159 0.0
H5771 H 0.11942 0.98655 0.63879 0.0
H5772 H 0.12657 0.998 0.63038 0.0
C5773 C 0.12885 1.00691 0.6507 0.0
C5774 C 0.27613 0.86634 0.89241 0.0
C5775 C 0.27785 0.86879 0.90112 0.0
H5776 H 0.26854 0.86866 0.88083 0.0
C5777 C 0.27222 0.87491 0.90514 0.0
H5778 H 0.28015 0.86149 0.88914 0.0
C5779 C 0.2654 0.87886 0.9004 0.0
C5780 C 0.26413 0.87682 0.89153 0.0
H5781 H 0.27335 0.87704 0.9118 0.0
H5782 H 0.26148 0.88389 0.9035 0.0
C5783 C 0.26941 0.87036 0.88766 0.0
C5784 C 0.3977 1.00045 0.36487 0.0
C5785 C 0.4005 0.99268 0.36899 0.0
H5786 H 0.39085 0.01267 0.36617 0.0
C5787 C 0.39916 0.99182 0.37806 0.0
H5788 H 0.39874 1.00142 0.35793 0.0
C5789 C 0.39475 0.9983 0.38277 0.0
C5790 C 0.39149 1.00583 0.37857 0.0
H5791 H 0.40115 0.98594 0.38148 0.0
H5792 H 0.39362 0.99729 0.3897 0.0
C5793 C 0.39326 1.00696 0.36961 0.0
C5794 C 0.27213 0.14557 0.61564 0.0
C5795 C 0.27777 0.15168 0.61968 0.0
H5796 H 0.26142 0.13656 0.61726 0.0
C5797 C 0.27607 0.15406 0.62842 0.0
H5798 H 0.27325 0.14349 0.60896 0.0
C5799 C 0.26937 0.15 0.63316 0.0
C5800 C 0.26409 0.14356 0.62926 0.0
H5801 H 0.28009 0.15889 0.63171 0.0
H5802 H 0.26852 0.15165 0.64001 0.0
C5803 C 0.26533 0.14159 0.62038 0.0
C5804 C 0.12614 0.02136 0.86555 0.0
C5805 C 0.12052 0.02729 0.86987 0.0
H5806 H 0.13488 0.01038 0.86678 0.0
C5807 C 0.11873 0.02589 0.8788 0.0
H5808 H 0.12776 0.02223 0.8587 0.0
C5809 C 0.12291 0.01918 0.88341 0.0
C5810 C 0.12887 0.01359 0.87919 0.0
H5811 H 0.11429 0.03015 0.88233 0.0
H5812 H 0.12173 0.01854 0.89038 0.0
C5813 C 0.13024 0.01455 0.87016 0.0
C5814 C 0.24623 0.86696 0.12828 0.0
C5815 C 0.24463 0.8693 0.11951 0.0
H5816 H 0.25375 0.86933 0.1399 0.0
C5817 C 0.25038 0.8753 0.11547 0.0
H5818 H 0.24212 0.86222 0.13158 0.0
C5819 C 0.25721 0.87922 0.12022 0.0
C5820 C 0.25837 0.87728 0.12912 0.0
H5821 H 0.24934 0.87734 0.10876 0.0
H5822 H 0.26123 0.88415 0.11709 0.0
C5823 C 0.25296 0.87096 0.13304 0.0
C5824 C 0.1567 0.39575 0.02181 0.0
C5825 C 0.15256 0.4018 0.02744 0.0
H5826 H 0.15523 0.38678 0.01105 0.0
C5827 C 0.14379 0.40411 0.0257 0.0
H5828 H 0.1634 0.39373 0.02295 0.0
C5829 C 0.13912 0.40003 0.01896 0.0
C5830 C 0.14313 0.39366 0.01368 0.0
H5831 H 0.14043 0.40889 0.02972 0.0
H5832 H 0.13226 0.40162 0.01808 0.0
C5833 C 0.15203 0.39176 0.01497 0.0
C5834 C 0.65609 0.12554 0.99921 0.0
C5835 C 0.65193 0.11957 0.99351 0.0
H5836 H 0.65466 0.13438 1.01008 0.0
C5837 C 0.64317 0.11726 0.99524 0.0
H5838 H 0.6628 0.12756 0.99808 0.0
C5839 C 0.63852 0.12126 1.00204 0.0
C5840 C 0.64254 0.12756 1.00739 0.0
H5841 H 0.63979 0.11254 0.99117 0.0
H5842 H 0.63165 0.11968 1.00292 0.0
C5843 C 0.65145 0.12946 1.00611 0.0
C5844 C 0.15372 0.39198 0.24489 0.0
C5845 C 0.15188 0.40088 0.24343 0.0
H5846 H 0.15082 0.38045 0.25234 0.0
C5847 C 0.14625 0.40522 0.24934 0.0
H5848 H 0.15819 0.38845 0.24066 0.0
C5849 C 0.14218 0.40063 0.25619 0.0
C5850 C 0.1436 0.39162 0.25722 0.0
H5851 H 0.14459 0.41204 0.24842 0.0
H5852 H 0.13753 0.40401 0.26034 0.0
C5853 C 0.14958 0.3874 0.25165 0.0
C5854 C 0.86572 0.89539 0.49929 0.0
C5855 C 0.87001 0.90128 0.4936 0.0
H5856 H 0.86699 0.88643 0.51007 0.0
C5857 C 0.87885 0.90334 0.49529 0.0
H5858 H 0.85896 0.89355 0.49818 0.0
C5859 C 0.88343 0.89916 0.50202 0.0
C5860 C 0.87926 0.89294 0.50735 0.0
H5861 H 0.88233 0.90799 0.49123 0.0
H5862 H 0.89035 0.90054 0.50286 0.0
C5863 C 0.8703 0.89129 0.50612 0.0
C5864 C 0.87466 0.11478 0.25054 0.0
C5865 C 0.87108 0.11886 0.24307 0.0
H5866 H 0.88186 0.11637 0.26253 0.0
C5867 C 0.87131 0.12804 0.24257 0.0
H5868 H 0.87446 0.10773 0.25124 0.0
C5869 C 0.87544 0.13296 0.24909 0.0
C5870 C 0.8795 0.12886 0.25628 0.0
H5871 H 0.8687 0.13144 0.23693 0.0
H5872 H 0.87573 0.14001 0.24834 0.0
C5873 C 0.87881 0.11973 0.25708 0.0
C5874 C 0.36669 0.62496 0.52139 0.0
C5875 C 0.37074 0.61887 0.52703 0.0
H5876 H 0.36828 0.63391 0.51064 0.0
C5877 C 0.37947 0.61643 0.52528 0.0
H5878 H 0.36001 0.62709 0.52254 0.0
C5879 C 0.3842 0.62043 0.51855 0.0
C5880 C 0.38029 0.62687 0.51327 0.0
H5881 H 0.38276 0.6116 0.5293 0.0
H5882 H 0.39104 0.61875 0.51766 0.0
C5883 C 0.37141 0.62889 0.51456 0.0
C5884 C 0.15409 0.62855 0.2759 0.0
C5885 C 0.1519 0.61974 0.27743 0.0
H5886 H 0.15156 0.64017 0.26846 0.0
C5887 C 0.14598 0.61563 0.27163 0.0
H5888 H 0.15877 0.6319 0.28005 0.0
C5889 C 0.14201 0.62036 0.26483 0.0
C5890 C 0.1438 0.6293 0.26374 0.0
H5891 H 0.14405 0.60889 0.27261 0.0
H5892 H 0.13715 0.61717 0.26076 0.0
C5893 C 0.15004 0.63329 0.2692 0.0
C5894 C 0.37134 0.39261 0.77825 0.0
C5895 C 0.37123 0.40179 0.77779 0.0
H5896 H 0.37559 0.3806 0.77243 0.0
C5897 C 0.37487 0.40585 0.77033 0.0
H5898 H 0.36867 0.38922 0.78387 0.0
C5899 C 0.37896 0.40087 0.76378 0.0
C5900 C 0.37952 0.39172 0.76454 0.0
H5901 H 0.37478 0.4129 0.76967 0.0
H5902 H 0.38206 0.40421 0.75834 0.0
C5903 C 0.3754 0.38765 0.77171 0.0
C5904 C 1.00232 0.86747 0.60856 0.0
C5905 C 0.99662 0.86774 0.61578 0.0
H5906 H 0.01479 0.87105 0.60325 0.0
C5907 C 0.99955 0.87176 0.62354 0.0
H5908 H 1.00038 0.86424 0.60255 0.0
C5909 C 1.00786 0.87568 0.62396 0.0
C5910 C 0.01342 0.87567 0.61662 0.0
H5911 H 0.99531 0.87213 0.62922 0.0
H5912 H 1.00979 0.87901 0.62992 0.0
C5913 C 1.0106 0.87135 0.60898 0.0
C5914 C 0.90407 0.25093 0.35773 0.0
C5915 C 0.90441 0.24545 0.36511 0.0
H5916 H 0.89977 0.26309 0.35231 0.0
C5917 C 0.90084 0.24852 0.37304 0.0
H5918 H 0.90694 0.24888 0.35157 0.0
C5919 C 0.89673 0.25673 0.37348 0.0
C5920 C 0.89609 0.26203 0.36598 0.0
H5921 H 0.90095 0.24446 0.37885 0.0
H5922 H 0.89374 0.25876 0.37958 0.0
C5923 C 0.89999 0.2591 0.35816 0.0
C5924 C 0.52012 0.15317 0.10805 0.0
C5925 C 0.52567 0.15356 0.11538 0.0
H5926 H 0.50796 0.14869 0.10272 0.0
C5927 C 0.52271 0.14993 0.12333 0.0
H5928 H 0.52207 0.15608 0.10189 0.0
C5929 C 0.51456 0.14569 0.12382 0.0
C5930 C 0.5092 0.14498 0.11636 0.0
H5931 H 0.52683 0.15009 0.1291 0.0
H5932 H 0.51263 0.14265 0.12992 0.0
C5933 C 0.512 0.14896 0.10854 0.0
C5934 C 0.61863 0.76939 0.85821 0.0
C5935 C 0.61812 0.77488 0.86557 0.0
H5936 H 0.62313 0.75726 0.85288 0.0
C5937 C 0.62157 0.77185 0.87357 0.0
H5938 H 0.61585 0.7714 0.852 0.0
C5939 C 0.62575 0.76367 0.87409 0.0
C5940 C 0.62657 0.75837 0.86661 0.0
H5941 H 0.62132 0.77592 0.87937 0.0
H5942 H 0.62866 0.76168 0.88024 0.0
C5943 C 0.62278 0.76125 0.85872 0.0
C5944 C 0.99973 0.14989 0.89811 0.0
C5945 C 0.99693 0.15394 0.9059 0.0
H5946 H 1.00983 0.14256 0.89161 0.0
C5947 C 1.00274 0.15422 0.91304 0.0
H5948 H 0.9954 0.14952 0.8925 0.0
C5949 C 1.011 0.15029 0.91251 0.0
C5950 C 0.01368 0.14593 0.90485 0.0
H5951 H 1.00089 0.15747 0.91907 0.0
H5952 H 0.01526 0.1506 0.91817 0.0
C5953 C 1.00801 0.14592 0.89759 0.0
C5954 C 0.62935 0.24505 0.65537 0.0
C5955 C 0.62032 0.24432 0.65371 0.0
H5956 H 0.6405 0.25349 0.65635 0.0
C5957 C 0.61568 0.25189 0.65118 0.0
H5958 H 0.6332 0.23935 0.6571 0.0
C5959 C 0.61991 0.26003 0.65068 0.0
C5960 C 0.62886 0.26078 0.65273 0.0
H5961 H 0.6087 0.25159 0.6499 0.0
H5962 H 0.61611 0.26579 0.64905 0.0
C5963 C 0.63356 0.25316 0.65489 0.0
C5964 C 0.52221 0.87088 0.39777 0.0
C5965 C 0.52527 0.86737 0.40573 0.0
H5966 H 0.51202 0.87803 0.39119 0.0
C5967 C 0.5198 0.86783 0.41312 0.0
H5968 H 0.52627 0.87066 0.39195 0.0
C5969 C 0.51166 0.872 0.41266 0.0
C5970 C 0.50875 0.87586 0.40482 0.0
H5971 H 0.52183 0.865 0.4193 0.0
H5972 H 0.50768 0.87232 0.41853 0.0
C5973 C 0.51404 0.87508 0.39732 0.0
C5974 C 0.90072 0.7718 0.14794 0.0
C5975 C 0.90431 0.77486 0.15587 0.0
H5976 H 0.89362 0.76156 0.1414 0.0
C5977 C 0.90401 0.76937 0.16323 0.0
H5978 H 0.90079 0.77587 0.14214 0.0
C5979 C 0.89995 0.76118 0.16279 0.0
C5980 C 0.89602 0.75826 0.15498 0.0
H5981 H 0.9069 0.77141 0.16938 0.0
H5982 H 0.89976 0.75718 0.16864 0.0
C5983 C 0.89663 0.76358 0.1475 0.0
C5984 C 0.61991 1.00236 0.86404 0.0
C5985 C 0.61701 0.99486 0.86858 0.0
H5986 H 0.6224 0.0162 0.86456 0.0
C5987 C 0.61498 0.99565 0.87752 0.0
H5988 H 0.62148 1.00202 0.85714 0.0
C5989 C 0.6155 1.00375 0.88173 0.0
C5990 C 0.61807 0.01131 0.87714 0.0
H5991 H 0.61296 0.99 0.88129 0.0
H5992 H 0.61378 1.00412 0.8886 0.0
C5993 C 0.62045 0.0105 0.86829 0.0
C5994 C 0.77023 0.85819 0.61698 0.0
C5995 C 0.77599 0.86536 0.61736 0.0
H5996 H 0.75769 0.85297 0.62042 0.0
C5997 C 0.7731 0.87311 0.62143 0.0
H5998 H 0.77215 0.8522 0.61372 0.0
C5999 C 0.76476 0.87356 0.6253 0.0
C6000 C 0.75914 0.86627 0.62518 0.0
H6001 H 0.77738 0.87874 0.62188 0.0
H6002 H 0.76286 0.8795 0.62867 0.0
C6003 C 0.76192 0.85865 0.62081 0.0
C6004 C 0.91353 0.01977 0.36753 0.0
C6005 C 0.90611 0.02521 0.36714 0.0
H6006 H 0.91901 1.00765 0.3719 0.0
C6007 C 0.89816 0.0221 0.37067 0.0
H6008 H 0.9197 0.02184 0.36469 0.0
C6009 C 0.89776 0.01391 0.37481 0.0
C6010 C 0.90529 1.00866 0.37551 0.0
H6011 H 0.89233 0.02614 0.37051 0.0
H6012 H 0.89164 0.01186 0.37778 0.0
C6013 C 0.91312 0.01161 0.37164 0.0
C6014 C 0.75226 0.16273 0.1177 0.0
C6015 C 0.74668 0.15542 0.11735 0.0
H6016 H 0.76446 0.16803 0.12212 0.0
C6017 C 0.74963 0.14747 0.12098 0.0
H6018 H 0.75032 0.16889 0.11478 0.0
C6019 C 0.75779 0.14697 0.12519 0.0
C6020 C 0.76318 0.1544 0.12586 0.0
H6021 H 0.74549 0.14172 0.12085 0.0
H6022 H 0.75971 0.14087 0.12824 0.0
C6023 C 0.76039 0.16222 0.12188 0.0
C6024 C 0.62046 0.01872 0.65642 0.0
C6025 C 0.61769 0.02622 0.6518 0.0
H6026 H 0.62276 1.00484 0.65605 0.0
C6027 C 0.61575 0.02538 0.64284 0.0
H6028 H 0.62196 0.0191 0.66334 0.0
C6029 C 0.61619 0.01723 0.63871 0.0
C6030 C 0.6186 1.00968 0.6434 0.0
H6031 H 0.61382 0.03102 0.63901 0.0
H6032 H 0.6145 0.01682 0.63183 0.0
C6033 C 0.62093 0.01054 0.65225 0.0
C6034 C 0.74993 0.87287 0.39947 0.0
C6035 C 0.74712 0.86509 0.40354 0.0
H6036 H 0.76002 0.87933 0.3921 0.0
C6037 C 0.75291 0.85794 0.40378 0.0
H6038 H 0.74562 0.8785 0.39913 0.0
C6039 C 0.76115 0.85844 0.39981 0.0
C6040 C 0.76384 0.86609 0.39544 0.0
H6041 H 0.75107 0.85192 0.40703 0.0
H6042 H 0.7654 0.85277 0.40008 0.0
C6043 C 0.75819 0.87337 0.39546 0.0
C6044 C 0.90227 1.0022 0.15652 0.0
C6045 C 0.90489 0.99461 0.15195 0.0
H6046 H 0.9001 0.01609 0.156 0.0
C6047 C 0.90674 0.99532 0.14296 0.0
H6048 H 0.90084 1.00191 0.16345 0.0
C6049 C 0.90633 1.00342 0.13873 0.0
C6050 C 0.90404 0.01105 0.14335 0.0
H6051 H 0.90855 0.98961 0.13917 0.0
H6052 H 0.90791 1.00372 0.13183 0.0
C6053 C 0.90183 0.01032 0.15225 0.0
C6054 C 0.77297 0.14721 0.90063 0.0
C6055 C 0.77596 0.15521 0.90413 0.0
H6056 H 0.76286 0.14056 0.89342 0.0
C6057 C 0.77043 0.16255 0.90364 0.0
H6058 H 0.77707 0.14143 0.90087 0.0
C6059 C 0.76232 0.16203 0.89943 0.0
C6060 C 0.75949 0.15417 0.89556 0.0
H6061 H 0.77241 0.16875 0.90646 0.0
H6062 H 0.7583 0.16787 0.89906 0.0
C6063 C 0.76482 0.1467 0.89638 0.0
C6064 C 0.87124 0.62305 0.99878 0.0
C6065 C 0.86755 0.61512 0.99585 0.0
H6066 H 0.87842 0.62965 1.00893 0.0
C6067 C 0.8677 0.60786 1.00149 0.0
H6068 H 0.87126 0.62876 0.9946 0.0
C6069 C 0.87174 0.60838 1.00968 0.0
C6070 C 0.87578 0.61618 0.01247 0.0
H6071 H 0.86472 0.60172 0.99956 0.0
H6072 H 0.87182 0.60261 0.0138 0.0
C6073 C 0.87531 0.62357 1.00701 0.0
C6074 C 0.36753 0.91305 0.01944 0.0
C6075 C 0.36738 0.90581 0.0251 0.0
H6076 H 0.37167 0.91826 1.00712 0.0
C6077 C 0.37107 0.89787 0.02218 0.0
H6078 H 0.36457 0.9192 0.02136 0.0
C6079 C 0.37514 0.89732 0.01396 0.0
C6080 C 0.37562 0.90469 1.00848 0.0
H6081 H 0.37109 0.89216 0.02639 0.0
H6082 H 0.37824 0.89123 0.01206 0.0
C6083 C 0.37158 0.9125 0.01125 0.0
C6084 C 0.86598 0.62783 0.77534 0.0
C6085 C 0.8676 0.6188 0.77604 0.0
H6086 H 0.86505 0.63899 0.76695 0.0
C6087 C 0.87011 0.61419 0.76845 0.0
H6088 H 0.86426 0.63165 0.78106 0.0
C6089 C 0.87064 0.61844 0.76032 0.0
C6090 C 0.86863 0.62739 0.75961 0.0
H6091 H 0.87136 0.60722 0.76871 0.0
H6092 H 0.87226 0.61466 0.75454 0.0
C6093 C 0.86648 0.63205 0.76725 0.0
C6094 C 0.1512 0.12287 0.52217 0.0
C6095 C 0.15485 0.11492 0.5251 0.0
H6096 H 0.14401 0.12951 0.51206 0.0
C6097 C 0.15461 0.10765 0.51948 0.0
H6098 H 0.15125 0.1286 0.52635 0.0
C6099 C 0.15052 0.10819 0.51131 0.0
C6100 C 0.14652 0.11601 0.50853 0.0
H6101 H 0.15754 0.10149 0.52141 0.0
H6102 H 0.15037 0.10241 0.50721 0.0
C6103 C 0.14708 0.12341 0.51397 0.0
C6104 C 0.1524 0.90618 0.76809 0.0
C6105 C 0.15518 0.90164 0.77563 0.0
H6106 H 0.15003 0.90567 0.75423 0.0
C6107 C 0.15712 0.89268 0.77487 0.0
H6108 H 0.1509 0.9131 0.76841 0.0
C6109 C 0.15664 0.88846 0.76677 0.0
C6110 C 0.1542 0.89307 0.75918 0.0
H6111 H 0.15906 0.8889 0.78055 0.0
H6112 H 0.15831 0.88158 0.76642 0.0
C6113 C 0.15189 0.90193 0.75996 0.0
C6114 C 0.64344 0.40538 0.49581 0.0
C6115 C 0.65249 0.40375 0.4951 0.0
H6116 H 0.63226 0.40633 0.50421 0.0
C6117 C 0.65711 0.40125 0.5027 0.0
H6118 H 0.63961 0.40709 0.49009 0.0
C6119 C 0.65285 0.40073 0.51083 0.0
C6120 C 0.64389 0.40275 0.51154 0.0
H6121 H 0.66409 0.39999 0.50242 0.0
H6122 H 0.65664 0.39912 0.5166 0.0
C6123 C 0.63921 0.4049 0.5039 0.0
C6124 C 0.86973 0.40626 0.75289 0.0
C6125 C 0.86719 0.40169 0.74528 0.0
H6126 H 0.87187 0.40572 0.76679 0.0
C6127 C 0.86549 0.39267 0.74595 0.0
H6128 H 0.87104 0.41321 0.75265 0.0
C6129 C 0.86595 0.38842 0.75403 0.0
C6130 C 0.86814 0.39304 0.76169 0.0
H6131 H 0.86375 0.38888 0.74021 0.0
H6132 H 0.86447 0.38149 0.7543 0.0
C6133 C 0.87022 0.40197 0.761 0.0
C6134 C 0.65776 0.62727 0.24617 0.0
C6135 C 0.65524 0.61848 0.24519 0.0
H6136 H 0.65936 0.63815 0.25485 0.0
C6137 C 0.6519 0.61401 0.25255 0.0
H6138 H 0.66015 0.631 0.24063 0.0
C6139 C 0.65137 0.61817 0.26072 0.0
C6140 C 0.65422 0.62686 0.26174 0.0
H6141 H 0.64996 0.60722 0.25206 0.0
H6142 H 0.64905 0.61448 0.26632 0.0
C6143 C 0.65727 0.63139 0.25433 0.0
C6144 C 0.52872 0.6423 0.90056 0.0
C6145 C 0.52824 0.65149 0.90073 0.0
H6146 H 0.52292 0.63032 0.89625 0.0
C6147 C 0.52076 0.65556 0.89713 0.0
H6148 H 0.53437 0.63891 0.90319 0.0
C6149 C 0.5142 0.65059 0.89303 0.0
C6150 C 0.51499 0.64145 0.89241 0.0
H6151 H 0.52008 0.66261 0.89728 0.0
H6152 H 0.50875 0.65394 0.88997 0.0
C6153 C 0.52218 0.63736 0.89648 0.0
C6154 C 0.62875 0.27538 0.15417 0.0
C6155 C 0.62004 0.27716 0.15168 0.0
H6156 H 0.6403 0.2677 0.15193 0.0
C6157 C 0.616 0.27153 0.14557 0.0
H6158 H 0.63204 0.27939 0.15901 0.0
C6159 C 0.62071 0.26467 0.14168 0.0
C6160 C 0.62957 0.26334 0.14376 0.0
H6161 H 0.60935 0.2727 0.14341 0.0
H6162 H 0.6176 0.26075 0.13665 0.0
C6163 C 0.63347 0.26861 0.1502 0.0
C6164 C 0.99321 0.37785 0.39975 0.0
C6165 C 0.99387 0.3687 0.40034 0.0
H6166 H 0.9988 0.38975 0.39494 0.0
C6167 C 1.00145 0.36462 0.39697 0.0
H6168 H 0.98747 0.38125 0.40219 0.0
C6169 C 1.00794 0.36953 0.39269 0.0
C6170 C 1.00698 0.37862 0.39165 0.0
H6171 H 1.00228 0.3576 0.39744 0.0
H6172 H 0.01349 0.36616 0.38981 0.0
C6173 C 0.99967 0.38274 0.39549 0.0
C6174 C 0.90635 0.74887 0.6453 0.0
C6175 C 0.90228 0.74327 0.65142 0.0
H6176 H 0.90479 0.7596 0.63632 0.0
C6177 C 0.89355 0.74504 0.65384 0.0
H6178 H 0.91302 0.7477 0.64318 0.0
C6179 C 0.88885 0.75178 0.64981 0.0
C6180 C 0.89278 0.75702 0.64337 0.0
H6181 H 0.89025 0.74106 0.65869 0.0
H6182 H 0.88201 0.75269 0.6515 0.0
C6183 C 0.90165 0.7557 0.64135 0.0
C6184 C 0.52194 0.36511 0.62516 0.0
C6185 C 0.52766 0.36911 0.61911 0.0
H6186 H 0.51115 0.36677 0.63407 0.0
C6187 C 0.52603 0.37786 0.61672 0.0
H6188 H 0.523 0.35842 0.62725 0.0
C6189 C 0.51932 0.38264 0.62072 0.0
C6190 C 0.51396 0.37876 0.62711 0.0
H6191 H 0.53011 0.38112 0.61192 0.0
H6192 H 0.51852 0.38949 0.61906 0.0
C6193 C 0.51513 0.36988 0.62909 0.0
C6194 C 0.90649 0.27123 0.87538 0.0
C6195 C 0.90241 0.27687 0.8693 0.0
H6196 H 0.90492 0.26046 0.88431 0.0
C6197 C 0.89367 0.27514 0.8669 0.0
H6198 H 0.91317 0.27236 0.87747 0.0
C6199 C 0.88896 0.2684 0.87092 0.0
C6200 C 0.89289 0.26311 0.87732 0.0
H6201 H 0.89036 0.27916 0.8621 0.0
H6202 H 0.88211 0.26752 0.86926 0.0
C6203 C 0.90178 0.26439 0.87932 0.0
C6204 C 0.99547 0.64214 0.11802 0.0
C6205 C 0.99406 0.65106 0.11984 0.0
H6206 H 1.00283 0.63056 0.12099 0.0
C6207 C 0.99998 0.65536 0.12549 0.0
H6208 H 0.99123 0.63863 0.11354 0.0
C6209 C 1.00678 0.65073 0.12959 0.0
C6210 C 1.00775 0.64171 0.12819 0.0
H6211 H 0.99908 0.66219 0.12713 0.0
H6212 H 1.01093 0.65409 0.13426 0.0
C6213 C 1.00218 0.63751 0.1222 0.0
C6214 C 0.62906 0.74558 0.36643 0.0
C6215 C 0.62027 0.74395 0.36868 0.0
H6216 H 0.64066 0.7531 0.36896 0.0
C6217 C 0.61614 0.74966 0.37466 0.0
H6218 H 0.63242 0.7415 0.3617 0.0
C6219 C 0.62084 0.75646 0.37866 0.0
C6220 C 0.62978 0.75765 0.37682 0.0
H6221 H 0.60941 0.74859 0.37664 0.0
H6222 H 0.61765 0.76044 0.38359 0.0
C6223 C 0.63377 0.75229 0.3705 0.0
C6224 C 0.90383 0.52568 0.64219 0.0
C6225 C 0.90188 0.5271 0.65108 0.0
H6226 H 0.90102 0.51832 0.63057 0.0
C6227 C 0.89617 0.52119 0.65531 0.0
H6228 H 0.90835 0.52991 0.63874 0.0
C6229 C 0.89213 0.51439 0.65064 0.0
C6230 C 0.89366 0.51341 0.64163 0.0
H6231 H 0.89443 0.52208 0.66213 0.0
H6232 H 0.88742 0.51024 0.65394 0.0
C6233 C 0.89971 0.51897 0.63751 0.0
C6234 C 0.74622 0.65406 0.89295 0.0
C6235 C 0.74454 0.65154 0.90165 0.0
H6236 H 0.75379 0.65186 0.88132 0.0
C6237 C 0.7502 0.64539 0.90559 0.0
H6238 H 0.74219 0.65892 0.88973 0.0
C6239 C 0.75702 0.64151 0.9008 0.0
C6240 C 0.75825 0.64362 0.89195 0.0
H6241 H 0.7491 0.64321 0.91225 0.0
H6242 H 0.76096 0.63646 0.90384 0.0
C6243 C 0.75294 0.65009 0.88814 0.0
C6244 C 0.62108 0.49264 0.14235 0.0
C6245 C 0.62113 0.49304 0.15154 0.0
H6246 H 0.6252 0.49848 0.13031 0.0
C6247 C 0.62491 0.50043 0.15559 0.0
H6248 H 0.61831 0.48706 0.13897 0.0
C6249 C 0.62897 0.50698 0.15058 0.0
C6250 C 0.62938 0.50627 0.14142 0.0
H6251 H 0.62493 0.50106 0.16265 0.0
H6252 H 0.63218 0.51236 0.15391 0.0
C6253 C 0.62512 0.49917 0.13737 0.0
C6254 C 0.77665 0.36724 0.39235 0.0
C6255 C 0.77815 0.3692 0.40123 0.0
H6256 H 0.76922 0.37007 0.38077 0.0
C6257 C 0.7723 0.37496 0.40548 0.0
H6258 H 0.78083 0.36267 0.38888 0.0
C6259 C 0.76548 0.37902 0.40084 0.0
C6260 C 0.76443 0.37748 0.39185 0.0
H6261 H 0.77326 0.37671 0.41228 0.0
H6262 H 0.76139 0.38378 0.40416 0.0
C6263 C 0.76993 0.37139 0.38771 0.0
C6264 C 0.90372 0.4945 0.87877 0.0
C6265 C 0.90188 0.49306 0.86986 0.0
H6266 H 0.9008 0.5019 0.89033 0.0
C6267 C 0.89623 0.49897 0.86554 0.0
H6268 H 0.9082 0.49027 0.88228 0.0
C6269 C 0.89215 0.50579 0.87015 0.0
C6270 C 0.89357 0.5068 0.87917 0.0
H6271 H 0.89457 0.49805 0.85872 0.0
H6272 H 0.88748 0.50994 0.86679 0.0
C6273 C 0.89957 0.50123 0.88338 0.0
C6274 C 0.77579 0.65409 0.12833 0.0
C6275 C 0.77754 0.65172 0.1196 0.0
H6276 H 0.76816 0.65167 0.13987 0.0
C6277 C 0.77191 0.64563 0.11551 0.0
H6278 H 0.7798 0.6589 0.13165 0.0
C6279 C 0.76507 0.64165 0.12019 0.0
C6280 C 0.76378 0.64361 0.12907 0.0
H6281 H 0.77306 0.64356 0.10883 0.0
H6282 H 0.76116 0.63665 0.11703 0.0
C6283 C 0.76905 0.65003 0.13302 0.0
C6284 C 0.61742 0.52486 0.37836 0.0
C6285 C 0.61991 0.52653 0.36965 0.0
H6286 H 0.61965 0.5173 0.38997 0.0
C6287 C 0.62604 0.52086 0.36567 0.0
H6288 H 0.61258 0.5289 0.38159 0.0
C6289 C 0.62993 0.51405 0.37045 0.0
C6290 C 0.62785 0.51282 0.37931 0.0
H6291 H 0.6282 0.52195 0.35901 0.0
H6292 H 0.63496 0.51009 0.36738 0.0
C6293 C 0.6214 0.51814 0.38315 0.0
C6294 C 0.75061 0.375 0.61549 0.0
C6295 C 0.74493 0.36894 0.61954 0.0
H6296 H 0.76137 0.38396 0.61708 0.0
C6297 C 0.74659 0.3666 0.62829 0.0
H6298 H 0.74952 0.37705 0.60879 0.0
C6299 C 0.7533 0.37065 0.63304 0.0
C6300 C 0.75862 0.37704 0.62912 0.0
H6301 H 0.74254 0.3618 0.63159 0.0
H6302 H 0.75413 0.36902 0.63989 0.0
C6303 C 0.75741 0.37897 0.62022 0.0
C6304 C 0.65616 0.89527 0.52144 0.0
C6305 C 0.65202 0.90124 0.52716 0.0
H6306 H 0.65469 0.88644 0.51057 0.0
C6307 C 0.64325 0.90356 0.52546 0.0
H6308 H 0.66286 0.89324 0.52256 0.0
C6309 C 0.63858 0.89957 0.51867 0.0
C6310 C 0.64258 0.89327 0.5133 0.0
H6311 H 0.63989 0.90828 0.52954 0.0
H6312 H 0.63171 0.90117 0.51781 0.0
C6313 C 0.65149 0.89136 0.51456 0.0
C6314 C 0.15648 0.62463 0.49962 0.0
C6315 C 0.15233 0.61862 0.49396 0.0
H6316 H 0.15503 0.63357 0.51041 0.0
C6317 C 0.14356 0.61633 0.49568 0.0
H6318 H 0.16319 0.62663 0.49849 0.0
C6319 C 0.13889 0.6204 0.50243 0.0
C6320 C 0.14291 0.62675 0.50773 0.0
H6321 H 0.14018 0.61158 0.49165 0.0
H6322 H 0.13202 0.61884 0.5033 0.0
C6323 C 0.15182 0.62862 0.50647 0.0
C6324 C 0.65433 0.89207 0.74487 0.0
C6325 C 0.65197 0.90083 0.74325 0.0
H6326 H 0.65196 0.88046 0.75238 0.0
C6327 C 0.64591 0.90486 0.74896 0.0
H6328 H 0.65913 0.88879 0.7408 0.0
C6329 C 0.64197 0.90011 0.75576 0.0
C6330 C 0.64393 0.89122 0.75694 0.0
H6331 H 0.64385 0.91155 0.7479 0.0
H6332 H 0.637 0.90323 0.75975 0.0
C6333 C 0.65031 0.88731 0.75157 0.0
C6334 C 0.36625 0.39534 0.99914 0.0
C6335 C 0.37028 0.40149 0.99354 0.0
H6336 H 0.36787 0.38638 1.00988 0.0
C6337 C 0.37898 0.40399 0.99533 0.0
H6338 H 0.3596 0.39318 0.99796 0.0
C6339 C 0.38371 0.4 1.00208 0.0
C6340 C 0.37983 0.39353 1.00732 0.0
H6341 H 0.38226 0.40885 0.99134 0.0
H6342 H 0.39054 0.40173 1.003 0.0
C6343 C 0.37097 0.39143 1.00599 0.0
C6344 C 0.37494 0.61503 0.75087 0.0
C6345 C 0.37129 0.6191 0.74342 0.0
H6346 H 0.38212 0.61666 0.76287 0.0
C6347 C 0.37138 0.62829 0.74299 0.0
H6348 H 0.37486 0.60798 0.75152 0.0
C6349 C 0.37543 0.63324 0.74953 0.0
C6350 C 0.37955 0.62916 0.75669 0.0
H6351 H 0.3687 0.63168 0.73737 0.0
H6352 H 0.3756 0.64029 0.74883 0.0
C6353 C 0.37901 0.62001 0.75744 0.0
C6354 C 0.87877 0.11654 0.02574 0.0
C6355 C 0.87007 0.11905 0.02751 0.0
H6356 H 0.89034 0.11878 0.01809 0.0
C6357 C 0.86605 0.12519 0.0219 0.0
H6358 H 0.88204 0.11169 0.02974 0.0
C6359 C 0.87078 0.12908 0.01505 0.0
C6360 C 0.87964 0.12698 0.01373 0.0
H6361 H 0.8594 0.12737 0.02307 0.0
H6362 H 0.86769 0.13413 0.01115 0.0
C6363 C 0.88351 0.12052 0.01899 0.0
C6364 C 0.64547 0.11554 0.77183 0.0
C6365 C 0.65115 0.11977 0.77777 0.0
H6366 H 0.6368 0.11692 0.76081 0.0
C6367 C 0.65312 0.12866 0.77636 0.0
H6368 H 0.64372 0.10874 0.77272 0.0
C6369 C 0.64906 0.13333 0.76962 0.0
C6370 C 0.64304 0.12921 0.76401 0.0
H6371 H 0.65763 0.1321 0.78062 0.0
H6372 H 0.65039 0.14026 0.76896 0.0
C6373 C 0.64149 0.12021 0.76499 0.0
C6374 C 0.87225 0.89216 0.27886 0.0
C6375 C 0.87173 0.90133 0.27827 0.0
H6376 H 0.87693 0.88027 0.27315 0.0
C6377 C 0.87511 0.90543 0.27072 0.0
H6378 H 0.8698 0.88875 0.28456 0.0
C6379 C 0.87931 0.90054 0.26417 0.0
C6380 C 0.88027 0.89143 0.26505 0.0
H6381 H 0.87469 0.91246 0.26996 0.0
H6382 H 0.88218 0.90393 0.25864 0.0
C6383 C 0.87644 0.88729 0.27233 0.0
C6384 C 0.50246 0.36762 0.10799 0.0
C6385 C 0.49689 0.36728 0.1153 0.0
H6386 H 0.51466 0.37203 0.10268 0.0
C6387 C 0.49984 0.37092 0.12325 0.0
H6388 H 0.50052 0.3647 0.10183 0.0
C6389 C 0.50801 0.37513 0.12375 0.0
C6390 C 0.51339 0.37579 0.11631 0.0
H6391 H 0.4957 0.3708 0.12901 0.0
H6392 H 0.50993 0.37819 0.12985 0.0
C6393 C 0.5106 0.3718 0.10849 0.0
C6394 C 0.40112 0.74866 0.87326 0.0
C6395 C 0.40467 0.74559 0.86531 0.0
H6396 H 0.39402 0.75889 0.87981 0.0
C6397 C 0.40432 0.75107 0.85794 0.0
H6398 H 0.40124 0.74459 0.87906 0.0
C6399 C 0.40024 0.75924 0.85838 0.0
C6400 C 0.39634 0.76217 0.86621 0.0
H6401 H 0.40718 0.74903 0.85178 0.0
H6402 H 0.40001 0.76324 0.85253 0.0
C6403 C 0.397 0.75686 0.8737 0.0
C6404 C 0.02283 0.65015 0.62314 0.0
C6405 C 0.02579 0.65376 0.61519 0.0
H6406 H 0.01272 0.64291 0.62974 0.0
C6407 C 0.02025 0.65337 0.60785 0.0
H6408 H 0.02694 0.6503 0.62891 0.0
C6409 C 0.01212 0.64919 0.60834 0.0
C6410 C 1.0093 0.64524 0.61617 0.0
H6411 H 0.02221 0.65627 0.60169 0.0
H6412 H 1.00807 0.64893 0.60252 0.0
C6413 C 0.01466 0.64594 0.62363 0.0
C6414 C 0.11561 0.26885 0.36975 0.0
C6415 C 0.12023 0.27633 0.36695 0.0
H6416 H 0.11598 0.25498 0.37209 0.0
C6417 C 0.12919 0.27548 0.36496 0.0
H6418 H 0.10869 0.26924 0.37129 0.0
C6419 C 0.13332 0.26734 0.3654 0.0
C6420 C 0.12864 0.2598 0.36786 0.0
H6421 H 0.13302 0.28112 0.363 0.0
H6422 H 0.1402 0.26692 0.3637 0.0
C6423 C 0.11978 0.26067 0.37023 0.0
C6424 C 0.50376 0.65647 0.40163 0.0
C6425 C 0.49613 0.65189 0.40414 0.0
H6426 H 0.51767 0.65592 0.39946 0.0
C6427 C 0.49678 0.64286 0.40575 0.0
H6428 H 0.50352 0.66344 0.40038 0.0
C6429 C 0.50487 0.63859 0.40524 0.0
C6430 C 0.51254 0.64322 0.40308 0.0
H6431 H 0.49104 0.63907 0.40747 0.0
H6432 H 0.50514 0.63165 0.40667 0.0
C6433 C 0.51187 0.65217 0.40108 0.0
C6434 C 0.11818 0.75131 0.16263 0.0
C6435 C 0.11795 0.74576 0.1553 0.0
H6436 H 0.1224 0.76353 0.16799 0.0
C6437 C 0.1216 0.74876 0.14738 0.0
H6438 H 0.11525 0.74932 0.16877 0.0
C6439 C 0.12571 0.75697 0.14692 0.0
C6440 C 0.12625 0.76234 0.15438 0.0
H6441 H 0.12156 0.74464 0.14161 0.0
H6442 H 0.12878 0.75894 0.14084 0.0
C6443 C 0.12226 0.75948 0.16217 0.0
C6444 C 0.01954 0.36389 0.9019 0.0
C6445 C 0.02707 0.36845 0.90472 0.0
H6446 H 1.00567 0.36438 0.89945 0.0
C6447 C 0.02629 0.37742 0.90661 0.0
H6448 H 0.01987 0.35696 0.90044 0.0
C6449 C 0.01817 0.38162 0.90607 0.0
C6450 C 1.0106 0.377 0.90359 0.0
H6451 H 0.03196 0.38121 0.90857 0.0
H6452 H 0.01781 0.38851 0.9077 0.0
C6453 C 0.0114 0.36813 0.90132 0.0
C6454 C 0.40089 0.27174 0.64819 0.0
C6455 C 0.40439 0.27476 0.65618 0.0
H6456 H 0.39379 0.26157 0.64154 0.0
C6457 C 0.40395 0.26925 0.66353 0.0
H6458 H 0.40109 0.27583 0.64241 0.0
C6459 C 0.39983 0.2611 0.66302 0.0
C6460 C 0.39599 0.25823 0.65515 0.0
H6461 H 0.40677 0.27125 0.66972 0.0
H6462 H 0.39954 0.25708 0.66885 0.0
C6463 C 0.39674 0.26356 0.64768 0.0
C6464 C 0.12403 0.49835 0.37172 0.0
C6465 C 0.11622 0.49545 0.36775 0.0
H6466 H 0.13052 0.50858 0.37886 0.0
C6467 C 0.10902 0.50119 0.36747 0.0
H6468 H 0.12969 0.49408 0.37208 0.0
C6469 C 0.10952 0.50948 0.37129 0.0
C6470 C 0.11721 0.51228 0.37555 0.0
H6471 H 0.10298 0.49927 0.36428 0.0
H6472 H 0.10382 0.5137 0.37098 0.0
C6473 C 0.12452 0.50667 0.37558 0.0
C6474 C 0.26933 0.36895 0.11389 0.0
C6475 C 0.27681 0.36599 0.11842 0.0
H6476 H 0.25547 0.37152 0.11439 0.0
C6477 C 0.27599 0.36394 0.12735 0.0
H6478 H 0.26969 0.37054 0.10699 0.0
C6479 C 0.26787 0.36448 0.13155 0.0
C6480 C 0.26033 0.36711 0.12695 0.0
H6481 H 0.28163 0.36187 0.13112 0.0
H6482 H 0.26747 0.36273 0.13841 0.0
C6483 C 0.26117 0.36952 0.11812 0.0
C6484 C 0.40651 0.52557 0.87809 0.0
C6485 C 0.40496 0.5262 0.86904 0.0
H6486 H 0.40738 0.51725 0.88931 0.0
C6487 C 0.40252 0.51857 0.86445 0.0
H6488 H 0.40818 0.53131 0.88189 0.0
C6489 C 0.40198 0.51047 0.86876 0.0
C6490 C 0.40392 0.50983 0.87773 0.0
H6491 H 0.40132 0.51879 0.85747 0.0
H6492 H 0.40041 0.50467 0.865 0.0
C6493 C 0.40601 0.5175 0.88236 0.0
C6494 C 0.25046 0.64737 0.62089 0.0
C6495 C 0.24751 0.65528 0.61718 0.0
H6496 H 0.26059 0.64083 0.62817 0.0
C6497 C 0.25311 0.66258 0.6174 0.0
H6498 H 0.24631 0.64162 0.62087 0.0
C6499 C 0.26127 0.6621 0.62152 0.0
C6500 C 0.26407 0.65433 0.62558 0.0
H6501 H 0.25115 0.6687 0.61442 0.0
H6502 H 0.26535 0.6679 0.62166 0.0
C6503 C 0.25866 0.6469 0.62505 0.0
C6504 C 0.12365 0.5217 0.15023 0.0
C6505 C 0.11578 0.52483 0.15392 0.0
H6506 H 0.13002 0.51137 0.14311 0.0
C6507 C 0.10838 0.51936 0.15381 0.0
H6508 H 0.12947 0.52575 0.15017 0.0
C6509 C 0.10871 0.51114 0.1498 0.0
C6510 C 0.11645 0.50816 0.14578 0.0
H6511 H 0.10228 0.52144 0.15678 0.0
H6512 H 0.10284 0.50716 0.14975 0.0
C6513 C 0.12398 0.51345 0.1462 0.0
C6514 C 0.24992 0.37343 0.89999 0.0
C6515 C 0.24696 0.36548 0.90361 0.0
H6516 H 0.26001 0.38002 0.89272 0.0
C6517 C 0.25253 0.35816 0.90324 0.0
H6518 H 0.24579 0.37919 0.90014 0.0
C6519 C 0.26065 0.35865 0.89905 0.0
C6520 C 0.26345 0.36647 0.89507 0.0
H6521 H 0.25057 0.352 0.90615 0.0
H6522 H 0.2647 0.35283 0.8988 0.0
C6523 C 0.25808 0.37392 0.89576 0.0
C6524 C 0.40794 0.49592 0.64331 0.0
C6525 C 0.40538 0.49492 0.65209 0.0
H6526 H 0.4096 0.5046 0.63245 0.0
C6527 C 0.40204 0.50228 0.65656 0.0
H6528 H 0.41033 0.49038 0.63958 0.0
C6529 C 0.40155 0.51046 0.65242 0.0
C6530 C 0.40443 0.51148 0.64374 0.0
H6531 H 0.40007 0.50179 0.66335 0.0
H6532 H 0.39923 0.51605 0.65611 0.0
C6533 C 0.40748 0.50407 0.6392 0.0
C6534 C 0.27262 0.64763 0.40059 0.0
C6535 C 0.27557 0.65555 0.40428 0.0
H6536 H 0.26249 0.64105 0.39336 0.0
C6537 C 0.26995 0.66284 0.40407 0.0
H6538 H 0.27679 0.64189 0.4006 0.0
C6539 C 0.26178 0.66234 0.39998 0.0
C6540 C 0.25898 0.65455 0.39594 0.0
H6541 H 0.2719 0.66898 0.40704 0.0
H6542 H 0.25768 0.66813 0.39985 0.0
C6543 C 0.26442 0.64713 0.39646 0.0
C6544 C 0.37141 0.12304 0.49852 0.0
C6545 C 0.36774 0.11509 0.4956 0.0
H6546 H 0.37855 0.12969 0.50866 0.0
C6547 C 0.36788 0.10786 0.50128 0.0
H6548 H 0.37143 0.12874 0.49431 0.0
C6549 C 0.3719 0.10842 0.50947 0.0
C6550 C 0.37593 0.11623 0.51224 0.0
H6551 H 0.36493 0.10171 0.49935 0.0
H6552 H 0.37199 0.10267 0.51361 0.0
C6553 C 0.37546 0.1236 0.50675 0.0
C6554 C 0.86891 0.41268 0.5191 0.0
C6555 C 0.86853 0.40534 0.52463 0.0
H6556 H 0.87329 0.41801 0.50693 0.0
C6557 C 0.87207 0.39737 0.52162 0.0
H6558 H 0.86605 0.41885 0.5211 0.0
C6559 C 0.87623 0.39688 0.51343 0.0
C6560 C 0.87692 0.40434 0.50809 0.0
H6561 H 0.87191 0.39159 0.52572 0.0
H6562 H 0.87921 0.39076 0.51144 0.0
C6563 C 0.87303 0.41218 0.51095 0.0
C6564 C 0.36583 0.12826 0.27534 0.0
C6565 C 0.3678 0.11931 0.27614 0.0
H6566 H 0.36453 0.13931 0.26685 0.0
C6567 C 0.37048 0.11471 0.26859 0.0
H6568 H 0.36397 0.13208 0.28102 0.0
C6569 C 0.37087 0.11891 0.26042 0.0
C6570 C 0.36856 0.12777 0.25962 0.0
H6571 H 0.372 0.1078 0.26894 0.0
H6572 H 0.37266 0.11513 0.25469 0.0
C6573 C 0.3662 0.13242 0.26721 0.0
C6574 C 0.65673 0.61843 0.01789 0.0
C6575 C 0.65219 0.61594 0.02554 0.0
H6576 H 0.65609 0.62065 1.00401 0.0
C6577 C 0.64312 0.6144 0.02495 0.0
H6578 H 0.66373 0.61962 0.01808 0.0
C6579 C 0.63879 0.61498 0.01692 0.0
C6580 C 0.64338 0.61712 1.00922 0.0
H6581 H 0.63935 0.6127 0.03071 0.0
H6582 H 0.63182 0.61361 0.0167 0.0
C6583 C 0.65237 0.61904 1.00983 0.0
C6584 C 0.65224 0.40621 0.26868 0.0
C6585 C 0.65476 0.4016 0.27628 0.0
H6586 H 0.65006 0.40572 0.25479 0.0
C6587 C 0.65637 0.39257 0.27559 0.0
H6588 H 0.651 0.41318 0.26895 0.0
C6589 C 0.65584 0.38834 0.2675 0.0
C6590 C 0.65369 0.39299 0.25985 0.0
H6591 H 0.6581 0.38876 0.2813 0.0
H6592 H 0.65727 0.3814 0.2672 0.0
C6593 C 0.65169 0.40194 0.26056 0.0
C6594 C 0.15092 0.89758 0.99891 0.0
C6595 C 0.15443 0.90556 0.99589 0.0
H6596 H 0.14382 0.89095 1.0091 0.0
C6597 C 0.15401 0.91291 1.0014 0.0
H6598 H 0.15111 0.8918 0.99482 0.0
C6599 C 0.14989 0.91241 1.00956 0.0
C6600 C 0.14604 0.90455 0.01244 0.0
H6601 H 0.15684 0.91909 0.9994 0.0
H6602 H 0.14961 0.91824 0.01357 0.0
C6603 C 0.14677 0.89708 1.0071 0.0
C6604 C 0.36631 0.89281 0.24516 0.0
C6605 C 0.36788 0.90185 0.24456 0.0
H6606 H 0.36542 0.88155 0.25344 0.0
C6607 C 0.37035 0.9064 0.2522 0.0
H6608 H 0.36463 0.88903 0.2394 0.0
C6609 C 0.37088 0.90207 0.26029 0.0
C6610 C 0.36892 0.8931 0.26091 0.0
H6611 H 0.37156 0.91338 0.25201 0.0
H6612 H 0.37247 0.9058 0.26611 0.0
C6613 C 0.36682 0.8885 0.25321 0.0
C6614 C 0.15705 0.1276 0.74599 0.0
C6615 C 0.15512 0.11864 0.74522 0.0
H6616 H 0.15832 0.13866 0.75448 0.0
C6617 C 0.15246 0.11405 0.75277 0.0
H6618 H 0.15889 0.13142 0.74031 0.0
C6619 C 0.15206 0.11825 0.76093 0.0
C6620 C 0.15435 0.12712 0.76172 0.0
H6621 H 0.15097 0.10713 0.75243 0.0
H6622 H 0.15031 0.11448 0.76667 0.0
C6623 C 0.15668 0.13177 0.75412 0.0
C6624 C 0.11128 0.15342 0.45821 0.0
C6625 C 0.10493 0.14721 0.45575 0.0
H6626 H 0.12355 0.15584 0.46461 0.0
C6627 C 0.10606 0.13848 0.45848 0.0
H6628 H 0.11056 0.16024 0.45641 0.0
C6629 C 0.11348 0.13599 0.46328 0.0
C6630 C 0.11997 0.14215 0.46542 0.0
H6631 H 0.10138 0.13348 0.45663 0.0
H6632 H 0.1143 0.12916 0.46499 0.0
C6633 C 0.11872 0.15092 0.46295 0.0
C6634 C 0.11852 0.86002 0.70734 0.0
C6635 C 0.12479 0.85372 0.70487 0.0
H6636 H 0.11602 0.87223 0.71377 0.0
C6637 C 0.13354 0.85492 0.70756 0.0
H6638 H 0.11169 0.85924 0.70557 0.0
C6639 C 0.13599 0.86234 0.71236 0.0
C6640 C 0.12977 0.86877 0.71454 0.0
H6641 H 0.13857 0.85028 0.7057 0.0
H6642 H 0.14283 0.86321 0.71406 0.0
C6643 C 0.12099 0.86745 0.71208 0.0
C6644 C 0.41099 0.86711 0.95842 0.0
C6645 C 0.41734 0.87332 0.95597 0.0
H6646 H 0.3987 0.86469 0.96477 0.0
C6647 C 0.41617 0.88207 0.95864 0.0
H6648 H 0.41174 0.86028 0.95667 0.0
C6649 C 0.40872 0.88457 0.96338 0.0
C6650 C 0.40223 0.8784 0.96553 0.0
H6651 H 0.42085 0.88706 0.95679 0.0
H6652 H 0.40787 0.8914 0.96506 0.0
C6653 C 0.40352 0.86962 0.96311 0.0
C6654 C 0.39486 0.15786 0.19926 0.0
C6655 C 0.39687 0.16572 0.20358 0.0
H6656 H 0.3907 0.14457 0.20039 0.0
C6657 C 0.39613 0.16605 0.21275 0.0
H6658 H 0.39518 0.15744 0.19219 0.0
C6659 C 0.39363 0.1586 0.21751 0.0
C6660 C 0.39178 0.15067 0.21318 0.0
H6661 H 0.39768 0.172 0.21627 0.0
H6662 H 0.39334 0.15899 0.22458 0.0
C6663 C 0.39231 0.15046 0.20398 0.0
C6664 C 0.10558 0.87515 0.05778 0.0
C6665 C 0.10584 0.87447 0.06696 0.0
H6666 H 0.11273 0.87789 0.04599 0.0
C6667 C 0.11368 0.87653 0.07132 0.0
H6668 H 0.09964 0.87357 0.05423 0.0
C6669 C 0.12112 0.87907 0.06664 0.0
C6670 C 0.12097 0.87955 0.05744 0.0
H6671 H 0.11405 0.87626 0.0784 0.0
H6672 H 0.12698 0.88073 0.07027 0.0
C6673 C 0.11308 0.87764 0.05306 0.0
C6674 C 0.39636 0.8546 0.30782 0.0
C6675 C 0.39704 0.85491 0.317 0.0
H6676 H 0.39365 0.86168 0.29599 0.0
C6677 C 0.395 0.86277 0.32132 0.0
H6678 H 0.39793 0.84865 0.3043 0.0
C6679 C 0.39248 0.87017 0.3166 0.0
C6680 C 0.392 0.86998 0.30739 0.0
H6681 H 0.39527 0.86317 0.32839 0.0
H6682 H 0.39084 0.87606 0.32019 0.0
C6683 C 0.39389 0.86206 0.30307 0.0
C6684 C 0.41626 0.13871 0.56231 0.0
C6685 C 0.41741 0.14744 0.56504 0.0
H6686 H 0.408 0.1294 0.55581 0.0
C6687 C 0.41106 0.15366 0.56259 0.0
H6688 H 0.42094 0.1337 0.56415 0.0
C6689 C 0.40362 0.15117 0.55786 0.0
C6690 C 0.40235 0.1424 0.55538 0.0
H6691 H 0.4118 0.16048 0.56439 0.0
H6692 H 0.39879 0.1561 0.55621 0.0
C6693 C 0.40883 0.13623 0.55752 0.0
C6694 C 0.12861 0.15751 0.82219 0.0
C6695 C 0.12665 0.16538 0.81787 0.0
H6696 H 0.13262 0.14417 0.82105 0.0
C6697 C 0.12733 0.16568 0.80869 0.0
H6698 H 0.12833 0.1571 0.82926 0.0
C6699 C 0.12972 0.15819 0.80393 0.0
C6700 C 0.13152 0.15026 0.80826 0.0
H6701 H 0.12582 0.17165 0.80517 0.0
H6702 H 0.12997 0.15858 0.79686 0.0
C6703 C 0.13105 0.15007 0.81746 0.0
C6704 C 0.459 0.1094 0.15363 0.0
C6705 C 0.45653 0.10303 0.14744 0.0
H6706 H 0.46534 0.12168 0.156 0.0
C6707 C 0.45922 0.10415 0.13869 0.0
H6708 H 0.45724 0.10868 0.16046 0.0
C6709 C 0.46398 0.11158 0.13616 0.0
C6710 C 0.46612 0.11809 0.1423 0.0
H6711 H 0.45737 0.09946 0.13371 0.0
H6712 H 0.46567 0.1124 0.12932 0.0
C6713 C 0.46369 0.11684 0.15109 0.0
C6714 C 0.16144 0.20783 0.4034 0.0
C6715 C 0.16777 0.20536 0.39717 0.0
H6716 H 0.14919 0.21425 0.40586 0.0
C6717 C 0.16662 0.20807 0.38843 0.0
H6718 H 0.16218 0.20604 0.41022 0.0
C6719 C 0.1592 0.21288 0.38596 0.0
C6720 C 0.15272 0.21504 0.39214 0.0
H6721 H 0.17128 0.20622 0.38342 0.0
H6722 H 0.15836 0.21459 0.37913 0.0
C6723 C 0.154 0.21257 0.40091 0.0
C6724 C 0.07139 0.90828 0.64608 0.0
C6725 C 0.0672 0.91641 0.64704 0.0
H6726 H 0.07014 0.89471 0.64299 0.0
C6727 C 0.05812 0.91693 0.64548 0.0
H6728 H 0.0784 0.90768 0.64702 0.0
C6729 C 0.05332 0.90942 0.64323 0.0
C6730 C 0.05751 0.90124 0.64244 0.0
H6731 H 0.0547 0.92309 0.64621 0.0
H6732 H 0.04631 0.90999 0.64228 0.0
C6733 C 0.06663 0.90082 0.64378 0.0
C6734 C 0.36376 0.82107 0.89397 0.0
C6735 C 0.35592 0.81671 0.89603 0.0
H6736 H 0.37707 0.82004 0.88979 0.0
C6737 C 0.35567 0.80753 0.89534 0.0
H6738 H 0.36412 0.82815 0.89424 0.0
C6739 C 0.36317 0.80282 0.89286 0.0
C6740 C 0.37107 0.8072 0.89097 0.0
H6741 H 0.34973 0.80398 0.89692 0.0
H6742 H 0.36284 0.79575 0.89261 0.0
C6743 C 0.3712 0.8164 0.89144 0.0
C6744 C 0.46325 0.91657 0.37576 0.0
C6745 C 0.45406 0.91631 0.37509 0.0
H6746 H 0.47507 0.90943 0.37849 0.0
C6747 C 0.44969 0.90849 0.37717 0.0
H6748 H 0.46681 0.9225 0.37417 0.0
C6749 C 0.45438 0.90107 0.37971 0.0
C6750 C 0.4636 0.90121 0.38016 0.0
H6751 H 0.44261 0.90812 0.3769 0.0
H6752 H 0.45075 0.89522 0.38138 0.0
C6753 C 0.46798 0.90909 0.37825 0.0
C6754 C 0.36357 0.19947 0.62689 0.0
C6755 C 0.35573 0.20383 0.62484 0.0
H6756 H 0.37687 0.20051 0.63111 0.0
C6757 C 0.35546 0.21301 0.62557 0.0
H6758 H 0.36394 0.1924 0.62659 0.0
C6759 C 0.36295 0.21772 0.62809 0.0
C6760 C 0.37085 0.21334 0.62999 0.0
H6761 H 0.34952 0.21656 0.624 0.0
H6762 H 0.3626 0.22479 0.62838 0.0
C6763 C 0.371 0.20414 0.62946 0.0
C6764 C 0.06337 0.10551 0.88187 0.0
C6765 C 0.06535 0.10374 0.87304 0.0
H6766 H 0.05746 0.1143 0.89107 0.0
C6767 C 0.06217 0.1095 0.8666 0.0
H6768 H 0.0658 0.10129 0.88703 0.0
C6769 C 0.05742 0.11698 0.86893 0.0
C6770 C 0.05568 0.11888 0.87777 0.0
H6771 H 0.06339 0.10827 0.85972 0.0
H6772 H 0.05517 0.12134 0.8638 0.0
C6773 C 0.05858 0.11297 0.8842 0.0
C6774 C 0.16674 0.81239 0.13211 0.0
C6775 C 0.16787 0.81512 0.12337 0.0
H6776 H 0.15848 0.80592 0.14144 0.0
C6777 C 0.16149 0.8127 0.11717 0.0
H6778 H 0.17144 0.81421 0.1371 0.0
C6779 C 0.15404 0.808 0.11968 0.0
C6780 C 0.15278 0.80552 0.12845 0.0
H6781 H 0.16221 0.8145 0.11035 0.0
H6782 H 0.14919 0.80637 0.11476 0.0
C6783 C 0.1593 0.80763 0.13461 0.0
C6784 C 0.14533 0.46276 0.10518 0.0
C6785 C 0.14606 0.45359 0.10541 0.0
H6786 H 0.14256 0.47452 0.11235 0.0
C6787 C 0.14403 0.4492 0.11324 0.0
H6788 H 0.14689 0.46633 0.09925 0.0
C6789 C 0.14149 0.45386 0.12068 0.0
C6790 C 0.14098 0.46305 0.12056 0.0
H6791 H 0.14435 0.44213 0.11359 0.0
H6792 H 0.13987 0.45021 0.12654 0.0
C6793 C 0.14284 0.46745 0.11268 0.0
C6794 C 0.63906 0.06281 0.91532 0.0
C6795 C 0.64781 0.06549 0.91652 0.0
H6796 H 0.62977 0.05631 0.90702 0.0
C6797 C 0.65408 0.063 0.91023 0.0
H6798 H 0.63403 0.06468 0.91995 0.0
C6799 C 0.65162 0.05825 0.90279 0.0
C6800 C 0.64283 0.0558 0.90147 0.0
H6801 H 0.66091 0.06476 0.91101 0.0
H6802 H 0.65659 0.05655 0.89803 0.0
C6803 C 0.63661 0.05801 0.90789 0.0
C6804 C 0.20868 0.38812 0.16503 0.0
C6805 C 0.20612 0.39688 0.16634 0.0
H6806 H 0.21509 0.37886 0.15664 0.0
C6807 C 0.20872 0.40317 0.16014 0.0
H6808 H 0.20672 0.38306 0.16959 0.0
C6809 C 0.21346 0.40074 0.15268 0.0
C6810 C 0.21581 0.39196 0.15126 0.0
H6811 H 0.20705 0.41001 0.161 0.0
H6812 H 0.21526 0.40574 0.14799 0.0
C6813 C 0.21348 0.3857 0.1576 0.0
C6814 C 0.87659 0.96285 0.41607 0.0
C6815 C 0.87603 0.95366 0.41577 0.0
H6816 H 0.87915 0.97471 0.40899 0.0
C6817 C 0.87814 0.94937 0.40791 0.0
H6818 H 0.87497 0.96634 0.42203 0.0
C6819 C 0.8806 0.95412 0.4005 0.0
C6820 C 0.88094 0.96333 0.40069 0.0
H6821 H 0.87797 0.9423 0.4075 0.0
H6822 H 0.8823 0.95055 0.39462 0.0
C6823 C 0.879 0.96763 0.40861 0.0
C6824 C 0.81345 0.11711 0.16138 0.0
C6825 C 0.81593 0.12331 0.16774 0.0
H6826 H 0.80707 0.11473 0.14911 0.0
C6827 C 0.81323 0.13206 0.16661 0.0
H6828 H 0.81521 0.11029 0.1621 0.0
C6829 C 0.80845 0.13457 0.15919 0.0
C6830 C 0.8063 0.12842 0.15269 0.0
H6831 H 0.81509 0.13704 0.17129 0.0
H6832 H 0.80676 0.14141 0.15837 0.0
C6833 C 0.80873 0.11964 0.15394 0.0
C6834 C 0.37659 0.55713 0.60423 0.0
C6835 C 0.37503 0.5662 0.60476 0.0
H6836 H 0.37982 0.54534 0.61115 0.0
C6837 C 0.376 0.57037 0.6129 0.0
H6838 H 0.37586 0.55372 0.59806 0.0
C6839 C 0.37831 0.56561 0.62035 0.0
C6840 C 0.37967 0.55651 0.61991 0.0
H6841 H 0.37505 0.57737 0.6135 0.0
H6842 H 0.37911 0.5691 0.62647 0.0
C6843 C 0.37887 0.55234 0.61173 0.0
C6844 C 0.20881 0.6324 0.35541 0.0
C6845 C 0.2061 0.62368 0.3542 0.0
H6846 H 0.21532 0.64166 0.36372 0.0
C6847 C 0.20857 0.61741 0.36049 0.0
H6848 H 0.20696 0.63744 0.35077 0.0
C6849 C 0.21331 0.61986 0.36793 0.0
C6850 C 0.21578 0.62862 0.36927 0.0
H6851 H 0.20678 0.6106 0.3597 0.0
H6852 H 0.21498 0.61489 0.37271 0.0
C6853 C 0.21361 0.63484 0.36284 0.0
C6854 C 0.31354 0.38873 0.85433 0.0
C6855 C 0.31626 0.39747 0.85321 0.0
H6856 H 0.30705 0.37939 0.86257 0.0
C6857 C 0.31379 0.40367 0.85957 0.0
H6858 H 0.31539 0.38375 0.84964 0.0
C6859 C 0.30908 0.40115 0.867 0.0
C6860 C 0.30662 0.39237 0.86825 0.0
H6861 H 0.31558 0.41049 0.85885 0.0
H6862 H 0.30742 0.40606 0.87184 0.0
C6863 C 0.30876 0.38622 0.86175 0.0
C6864 C 0.91766 0.871 0.55879 0.0
C6865 C 0.91875 0.875 0.56701 0.0
H6866 H 0.90959 0.86954 0.5474 0.0
C6867 C 0.91244 0.88109 0.56983 0.0
H6868 H 0.92244 0.86634 0.55639 0.0
C6869 C 0.90508 0.88294 0.56468 0.0
C6870 C 0.9039 0.8788 0.55654 0.0
H6871 H 0.91306 0.88424 0.57616 0.0
H6872 H 0.90025 0.88753 0.5671 0.0
C6873 C 0.91035 0.87291 0.55359 0.0
C6874 C 0.89067 0.16032 0.32028 0.0
C6875 C 0.89593 0.16726 0.31727 0.0
H6876 H 0.88484 0.14791 0.31746 0.0
C6877 C 0.89912 0.16696 0.30864 0.0
H6878 H 0.88799 0.16043 0.32685 0.0
C6879 C 0.89738 0.15974 0.30327 0.0
C6880 C 0.89235 0.15266 0.30637 0.0
H6881 H 0.90324 0.17216 0.30615 0.0
H6882 H 0.90028 0.15956 0.2968 0.0
C6883 C 0.88888 0.15314 0.31489 0.0
C6884 C 0.60439 0.14782 0.05955 0.0
C6885 C 0.60429 0.14488 0.06826 0.0
H6886 H 0.61163 0.14886 0.04759 0.0
C6887 C 0.61143 0.13995 0.07134 0.0
H6888 H 0.59903 0.15171 0.057 0.0
C6889 C 0.61861 0.13821 0.06592 0.0
C6890 C 0.61889 0.14144 0.05729 0.0
H6891 H 0.61148 0.13746 0.07798 0.0
H6892 H 0.62401 0.13441 0.06853 0.0
C6893 C 0.61162 0.14615 0.05414 0.0
C6894 C 0.63143 0.86046 0.82107 0.0
C6895 C 0.62647 0.85332 0.81807 0.0
H6896 H 0.63702 0.87296 0.81814 0.0
C6897 C 0.62351 0.85335 0.80935 0.0
H6898 H 0.63393 0.86057 0.82771 0.0
C6899 C 0.62519 0.86051 0.80388 0.0
C6900 C 0.62995 0.86779 0.80695 0.0
H6901 H 0.6196 0.84798 0.80686 0.0
H6902 H 0.62247 0.86046 0.79733 0.0
C6903 C 0.63319 0.86758 0.81558 0.0
C6904 C 0.9181 0.14739 0.96178 0.0
C6905 C 0.91819 0.14451 0.95304 0.0
H6906 H 0.91086 0.14837 0.97375 0.0
C6907 C 0.91105 0.1396 0.94993 0.0
H6908 H 0.92346 0.15126 0.96435 0.0
C6909 C 0.90386 0.13784 0.95534 0.0
C6910 C 0.90359 0.14102 0.96399 0.0
H6911 H 0.91099 0.13716 0.94328 0.0
H6912 H 0.89846 0.13407 0.95271 0.0
C6913 C 0.91087 0.1457 0.96718 0.0
C6914 C 0.63076 0.167 0.70981 0.0
C6915 C 0.62425 0.16666 0.70328 0.0
H6916 H 0.63767 0.16011 0.71993 0.0
C6917 C 0.61969 0.15876 0.70204 0.0
H6918 H 0.63437 0.17298 0.71101 0.0
C6919 C 0.62148 0.15145 0.70722 0.0
C6920 C 0.62797 0.15176 0.71376 0.0
H6921 H 0.61473 0.15818 0.697 0.0
H6922 H 0.61766 0.14558 0.70617 0.0
C6923 C 0.6326 0.15964 0.71499 0.0
C6924 C 0.61138 0.88069 0.44939 0.0
C6925 C 0.60425 0.87577 0.4525 0.0
H6926 H 0.62397 0.88623 0.45214 0.0
C6927 C 0.60437 0.87286 0.46123 0.0
H6928 H 0.61142 0.88315 0.44274 0.0
C6929 C 0.61161 0.87455 0.46661 0.0
C6930 C 0.61888 0.87925 0.46343 0.0
H6931 H 0.59901 0.86899 0.46381 0.0
H6932 H 0.61164 0.87187 0.47318 0.0
C6933 C 0.61858 0.88244 0.45478 0.0
C6934 C 0.8903 0.85984 0.20099 0.0
C6935 C 0.89583 0.85306 0.20384 0.0
H6936 H 0.88424 0.87212 0.20396 0.0
C6937 C 0.8993 0.85348 0.21236 0.0
H6938 H 0.8874 0.85964 0.19452 0.0
C6939 C 0.89757 0.86069 0.21776 0.0
C6940 C 0.89225 0.86762 0.21481 0.0
H6941 H 0.90364 0.84839 0.21473 0.0
H6942 H 0.90069 0.86097 0.22412 0.0
C6943 C 0.8885 0.867 0.20641 0.0
C6944 C 0.56839 0.90922 0.86779 0.0
C6945 C 0.56839 0.9166 0.8733 0.0
H6946 H 0.56327 0.89644 0.86525 0.0
C6947 C 0.56275 0.91663 0.88061 0.0
H6948 H 0.57244 0.90902 0.86197 0.0
C6949 C 0.55738 0.9094 0.88243 0.0
C6950 C 0.5576 0.90195 0.87703 0.0
H6951 H 0.56262 0.92216 0.88504 0.0
H6952 H 0.55321 0.90954 0.88816 0.0
C6953 C 0.56311 0.90199 0.86965 0.0
C6954 C 0.85483 0.80947 0.62352 0.0
C6955 C 0.85483 0.81816 0.62653 0.0
H6956 H 0.86195 0.79746 0.62233 0.0
C6957 C 0.86204 0.82114 0.63143 0.0
H6958 H 0.84942 0.807 0.61966 0.0
C6959 C 0.86919 0.81564 0.63307 0.0
C6960 C 0.86936 0.80704 0.62978 0.0
H6961 H 0.86218 0.82776 0.63396 0.0
H6962 H 0.87463 0.81818 0.63685 0.0
C6963 C 0.86202 0.80399 0.62509 0.0
C6964 C 0.96207 0.10357 0.37302 0.0
C6965 C 0.95342 0.10341 0.3762 0.0
H6966 H 0.97402 0.1108 0.3718 0.0
C6967 C 0.95049 0.11041 0.38139 0.0
H6968 H 0.9645 0.0983 0.36893 0.0
C6969 C 0.95598 0.11754 0.38314 0.0
C6970 C 0.96452 0.11789 0.37967 0.0
H6971 H 0.94391 0.11042 0.38406 0.0
H6972 H 0.95347 0.12283 0.38714 0.0
C6973 C 0.96754 0.11073 0.3747 0.0
C6974 C 0.66795 0.21133 0.12332 0.0
C6975 C 0.66804 0.2026 0.12621 0.0
H6976 H 0.66073 0.2233 0.12235 0.0
C6977 C 0.66089 0.1995 0.13111 0.0
H6978 H 0.67333 0.2139 0.11946 0.0
C6979 C 0.6537 0.20491 0.13286 0.0
C6980 C 0.65344 0.21356 0.12969 0.0
H6981 H 0.66082 0.19284 0.13355 0.0
H6982 H 0.6483 0.20228 0.13663 0.0
C6983 C 0.66073 0.21674 0.12501 0.0
C6984 C 0.57075 0.10972 0.64019 0.0
C6985 C 0.56796 0.10326 0.64613 0.0
H6986 H 0.56789 0.12197 0.63396 0.0
C6987 C 0.55967 0.10414 0.65006 0.0
H6988 H 0.57713 0.10926 0.6371 0.0
C6989 C 0.55438 0.1114 0.64824 0.0
C6990 C 0.55728 0.11799 0.64251 0.0
H6991 H 0.5573 0.09924 0.6546 0.0
H6992 H 0.54813 0.11199 0.65156 0.0
C6993 C 0.56549 0.11702 0.63844 0.0
C6994 C 0.6673 0.81253 0.38946 0.0
C6995 C 0.66734 0.81817 0.39676 0.0
H6996 H 0.66016 0.80296 0.382 0.0
C6997 C 0.66 0.81815 0.40235 0.0
H6998 H 0.67279 0.81241 0.38496 0.0
C6999 C 0.65276 0.81284 0.40058 0.0
C7000 C 0.65267 0.80733 0.39321 0.0
H7001 H 0.65985 0.8222 0.40816 0.0
H7002 H 0.64725 0.813 0.40504 0.0
C7003 C 0.66006 0.80714 0.38773 0.0
C7004 C 0.95337 0.90904 0.15297 0.0
C7005 C 0.95348 0.9165 0.14757 0.0
H7006 H 0.95847 0.89625 0.15547 0.0
C7007 C 0.95931 0.91664 0.1404 0.0
H7008 H 0.94917 0.90875 0.15868 0.0
C7009 C 0.96476 0.90945 0.13863 0.0
C7010 C 0.96443 0.90194 0.14393 0.0
H7011 H 0.95954 0.92223 0.13605 0.0
H7012 H 0.96908 0.90969 0.13301 0.0
C7013 C 0.95873 0.90186 0.15115 0.0
C7014 C 0.86161 0.19931 0.89003 0.0
C7015 C 0.85447 0.20242 0.89494 0.0
H7016 H 0.87419 0.20209 0.88449 0.0
C7017 C 0.85456 0.21115 0.89783 0.0
H7018 H 0.86168 0.19266 0.88758 0.0
C7019 C 0.86178 0.21655 0.89613 0.0
C7020 C 0.86906 0.21337 0.89144 0.0
H7021 H 0.84919 0.21372 0.9017 0.0
H7022 H 0.86178 0.22312 0.8988 0.0
C7023 C 0.86879 0.20473 0.88827 0.0
C7024 C 0.86966 0.56835 0.90904 0.0
C7025 C 0.87407 0.567 0.91701 0.0
H7026 H 0.86788 0.56441 0.89576 0.0
C7027 C 0.88058 0.56047 0.91737 0.0
H7028 H 0.86471 0.5734 0.90844 0.0
C7029 C 0.88255 0.55539 0.90998 0.0
C7030 C 0.87808 0.55674 0.90203 0.0
H7031 H 0.88407 0.55919 0.92341 0.0
H7032 H 0.88762 0.55045 0.91047 0.0
C7033 C 0.87159 0.56328 0.90169 0.0
C7034 C 0.38205 0.95036 0.11059 0.0
C7035 C 0.37689 0.95337 0.10358 0.0
H7036 H 0.38776 0.95322 0.12306 0.0
C7037 C 0.37376 0.96202 0.10379 0.0
H7038 H 0.38468 0.94378 0.11056 0.0
C7039 C 0.37545 0.96742 0.11101 0.0
C7040 C 0.38038 0.96433 0.11816 0.0
H7041 H 0.3697 0.9645 0.09853 0.0
H7042 H 0.37258 0.9739 0.11112 0.0
C7043 C 0.3838 0.95578 0.11776 0.0
C7044 C 0.81044 0.62299 0.85376 0.0
C7045 C 0.81924 0.62574 0.8538 0.0
H7046 H 0.79836 0.62208 0.86084 0.0
C7047 C 0.82235 0.63046 0.86106 0.0
H7048 H 0.80787 0.61926 0.8483 0.0
C7049 C 0.81688 0.63218 0.86821 0.0
C7050 C 0.80817 0.62915 0.86834 0.0
H7051 H 0.82905 0.6328 0.86124 0.0
H7052 H 0.81952 0.63582 0.8737 0.0
C7053 C 0.80498 0.62464 0.86095 0.0
C7054 C 0.14004 0.07019 0.61027 0.0
C7055 C 0.14554 0.06732 0.60346 0.0
H7056 H 0.134 0.06721 0.62256 0.0
C7057 C 0.14897 0.05879 0.60385 0.0
H7058 H 0.13718 0.07667 0.6101 0.0
C7059 C 0.14723 0.05338 0.61104 0.0
C7060 C 0.14195 0.05634 0.618 0.0
H7061 H 0.1533 0.05642 0.59875 0.0
H7062 H 0.15033 0.04701 0.6113 0.0
C7063 C 0.13824 0.06476 0.61742 0.0
C7064 C 0.20342 0.9025 0.86157 0.0
C7065 C 0.20329 0.89683 0.85431 0.0
H7066 H 0.20874 0.90531 0.87422 0.0
C7067 C 0.20888 0.88948 0.85438 0.0
H7068 H 0.19942 0.90834 0.86169 0.0
C7069 C 0.21434 0.8878 0.86158 0.0
C7070 C 0.21427 0.89337 0.8689 0.0
H7071 H 0.20891 0.88492 0.84895 0.0
H7072 H 0.21847 0.88203 0.86151 0.0
C7073 C 0.2088 0.90077 0.86877 0.0
C7074 C 0.64095 0.44876 0.40996 0.0
C7075 C 0.64563 0.45186 0.41725 0.0
H7076 H 0.63565 0.4516 0.3973 0.0
C7077 C 0.64839 0.46064 0.41732 0.0
H7078 H 0.6386 0.44207 0.40976 0.0
C7079 C 0.64678 0.46609 0.41013 0.0
C7080 C 0.6423 0.46293 0.40271 0.0
H7081 H 0.65209 0.4632 0.4228 0.0
H7082 H 0.64934 0.4727 0.41026 0.0
C7083 C 0.63926 0.45423 0.4028 0.0
C7084 C 0.81931 0.40261 0.65916 0.0
C7085 C 0.81937 0.39696 0.66644 0.0
H7086 H 0.81407 0.40541 0.64648 0.0
C7087 C 0.81375 0.38964 0.66635 0.0
H7088 H 0.82334 0.40844 0.65906 0.0
C7089 C 0.80833 0.38796 0.65913 0.0
C7090 C 0.80846 0.39352 0.6518 0.0
H7091 H 0.81367 0.3851 0.67179 0.0
H7092 H 0.80416 0.38222 0.65919 0.0
C7093 C 0.81396 0.40089 0.65194 0.0
C7094 C 0.70314 0.61784 0.15901 0.0
C7095 C 0.70304 0.62344 0.16632 0.0
H7096 H 0.70839 0.61513 0.14631 0.0
C7097 C 0.70864 0.63078 0.16629 0.0
H7098 H 0.69913 0.61199 0.15886 0.0
C7099 C 0.71407 0.63252 0.15908 0.0
C7100 C 0.71396 0.627 0.15171 0.0
H7101 H 0.70871 0.63529 0.17175 0.0
H7102 H 0.71822 0.63827 0.15918 0.0
C7103 C 0.70848 0.61961 0.15181 0.0
C7104 C 0.61293 0.64333 0.94888 0.0
C7105 C 0.60507 0.64539 0.95321 0.0
H7106 H 0.62623 0.63914 0.94999 0.0
C7107 C 0.60477 0.64468 0.96239 0.0
H7108 H 0.61334 0.64363 0.94181 0.0
C7109 C 0.61224 0.64219 0.96714 0.0
C7110 C 0.62016 0.64029 0.9628 0.0
H7111 H 0.59881 0.64626 0.96592 0.0
H7112 H 0.61186 0.64193 0.97421 0.0
C7113 C 0.62035 0.64078 0.9536 0.0
C7114 C 0.62759 0.36289 0.19938 0.0
C7115 C 0.6255 0.35505 0.2037 0.0
H7116 H 0.6318 0.37617 0.20051 0.0
C7117 C 0.62616 0.35475 0.21288 0.0
H7118 H 0.62734 0.36329 0.19231 0.0
C7119 C 0.62865 0.36221 0.21764 0.0
C7120 C 0.63058 0.37011 0.21331 0.0
H7121 H 0.62456 0.34881 0.21641 0.0
H7122 H 0.62888 0.36183 0.22471 0.0
C7123 C 0.63013 0.37029 0.20411 0.0
C7124 C 0.90948 0.37654 0.44913 0.0
C7125 C 0.91731 0.37447 0.45349 0.0
H7126 H 0.89618 0.38075 0.45018 0.0
C7127 C 0.91757 0.37515 0.46267 0.0
H7128 H 0.90911 0.37627 0.44206 0.0
C7129 C 0.91007 0.37763 0.46739 0.0
C7130 C 0.90217 0.37954 0.46302 0.0
H7131 H 0.92351 0.37355 0.46622 0.0
H7132 H 0.91042 0.37787 0.47447 0.0
C7133 C 0.90204 0.37908 0.45382 0.0
C7134 C 0.8962 0.66569 0.71278 0.0
C7135 C 0.89689 0.6654 0.7036 0.0
H7136 H 0.89346 0.65858 0.72458 0.0
C7137 C 0.89485 0.65756 0.69925 0.0
H7138 H 0.89777 0.67163 0.71631 0.0
C7139 C 0.89232 0.65014 0.70395 0.0
C7140 C 0.89183 0.65032 0.71315 0.0
H7141 H 0.89514 0.65717 0.69218 0.0
H7142 H 0.89068 0.64427 0.70034 0.0
C7143 C 0.89372 0.65822 0.71751 0.0
C7144 C 0.61368 0.37651 0.57188 0.0
C7145 C 0.60583 0.37447 0.56753 0.0
H7146 H 0.62699 0.3807 0.57082 0.0
C7147 C 0.60556 0.37518 0.55835 0.0
H7148 H 0.61406 0.37621 0.57896 0.0
C7149 C 0.61304 0.37768 0.55363 0.0
C7150 C 0.62095 0.37958 0.55799 0.0
H7151 H 0.59962 0.37361 0.5548 0.0
H7152 H 0.61268 0.37795 0.54655 0.0
C7153 C 0.62111 0.37906 0.56719 0.0
C7154 C 0.89438 0.3627 0.82197 0.0
C7155 C 0.89641 0.35486 0.81762 0.0
H7156 H 0.89019 0.37599 0.82091 0.0
C7157 C 0.89568 0.35459 0.80844 0.0
H7158 H 0.89468 0.36309 0.82905 0.0
C7159 C 0.89318 0.36206 0.80372 0.0
C7160 C 0.8913 0.36995 0.80809 0.0
H7161 H 0.89725 0.34865 0.80489 0.0
H7162 H 0.8929 0.3617 0.79665 0.0
C7163 C 0.89182 0.37012 0.81729 0.0
C7164 C 0.91104 0.65358 0.0627 0.0
C7165 C 0.9174 0.64736 0.06514 0.0
H7166 H 0.89875 0.656 0.05636 0.0
C7167 C 0.91625 0.63862 0.06243 0.0
H7168 H 0.91178 0.66039 0.06448 0.0
C7169 C 0.90881 0.63613 0.05767 0.0
C7170 C 0.90231 0.6423 0.05555 0.0
H7171 H 0.92093 0.63363 0.06426 0.0
H7172 H 0.90797 0.6293 0.05597 0.0
C7173 C 0.90358 0.65107 0.058 0.0
C7174 C 0.62615 0.66635 0.30721 0.0
C7175 C 0.62456 0.66587 0.31628 0.0
H7176 H 0.62942 0.65937 0.29546 0.0
C7177 C 0.62551 0.65775 0.32049 0.0
H7178 H 0.62544 0.67249 0.30377 0.0
C7179 C 0.62783 0.65028 0.31577 0.0
C7180 C 0.62923 0.65067 0.30667 0.0
H7181 H 0.62453 0.65718 0.32749 0.0
H7182 H 0.62862 0.64418 0.3193 0.0
C7183 C 0.62844 0.65883 0.30246 0.0
C7184 C 0.95898 0.60989 0.65351 0.0
C7185 C 0.95654 0.60353 0.64731 0.0
H7186 H 0.96534 0.62216 0.65591 0.0
C7187 C 0.95926 0.60465 0.63857 0.0
H7188 H 0.95719 0.60918 0.66034 0.0
C7189 C 0.96403 0.61206 0.63606 0.0
C7190 C 0.96616 0.61857 0.64221 0.0
H7191 H 0.95742 0.59996 0.63359 0.0
H7192 H 0.96574 0.61288 0.62923 0.0
C7193 C 0.9637 0.61733 0.65099 0.0
C7194 C 0.66698 0.71295 0.89615 0.0
C7195 C 0.6667 0.70377 0.89681 0.0
H7196 H 0.65988 0.72476 0.89338 0.0
C7197 C 0.65886 0.69944 0.8947 0.0
H7198 H 0.67292 0.71649 0.89776 0.0
C7199 C 0.65145 0.70414 0.89213 0.0
C7200 C 0.65161 0.71334 0.89166 0.0
H7201 H 0.65847 0.69236 0.89496 0.0
H7202 H 0.64558 0.70052 0.89043 0.0
C7203 C 0.65951 0.71769 0.89362 0.0
C7204 C 0.56351 0.41648 0.13857 0.0
C7205 C 0.56623 0.41761 0.14731 0.0
H7206 H 0.55702 0.40823 0.12923 0.0
C7207 C 0.56376 0.41127 0.15352 0.0
H7208 H 0.56536 0.42115 0.13358 0.0
C7209 C 0.55903 0.40383 0.15101 0.0
C7210 C 0.55658 0.40257 0.14223 0.0
H7211 H 0.56554 0.41199 0.16034 0.0
H7212 H 0.55737 0.39901 0.15593 0.0
C7213 C 0.55872 0.40906 0.13607 0.0
C7214 C 0.86378 0.3209 0.39416 0.0
C7215 C 0.85591 0.31656 0.39617 0.0
H7216 H 0.87708 0.31982 0.38997 0.0
C7217 C 0.85561 0.30739 0.3954 0.0
H7218 H 0.86418 0.32797 0.3945 0.0
C7219 C 0.86309 0.30266 0.39287 0.0
C7220 C 0.87101 0.30701 0.39102 0.0
H7221 H 0.84965 0.30385 0.39693 0.0
H7222 H 0.86271 0.29559 0.39255 0.0
C7223 C 0.87119 0.3162 0.39158 0.0
C7224 C 0.95898 0.41509 0.88263 0.0
C7225 C 0.95632 0.41628 0.87388 0.0
H7226 H 0.96545 0.40681 0.89194 0.0
C7227 C 0.95882 0.40998 0.86764 0.0
H7228 H 0.95709 0.41973 0.88765 0.0
C7229 C 0.96356 0.40255 0.87012 0.0
C7230 C 0.96599 0.40124 0.8789 0.0
H7231 H 0.95708 0.41076 0.86081 0.0
H7232 H 0.96527 0.39777 0.86517 0.0
C7233 C 0.96377 0.40767 0.8851 0.0
C7234 C 0.85541 0.71299 0.12568 0.0
C7235 C 0.85566 0.70382 0.12497 0.0
H7236 H 0.86258 0.72476 0.12846 0.0
C7237 C 0.86349 0.69944 0.12703 0.0
H7238 H 0.84948 0.71656 0.12411 0.0
C7239 C 0.87094 0.7041 0.12958 0.0
C7240 C 0.8708 0.7133 0.13009 0.0
H7241 H 0.86385 0.69237 0.12674 0.0
H7242 H 0.8768 0.70046 0.13123 0.0
C7243 C 0.86291 0.71769 0.12819 0.0
C7244 C 0.55949 0.60466 0.37586 0.0
C7245 C 0.56869 0.60493 0.37519 0.0
H7246 H 0.54766 0.61178 0.37851 0.0
C7247 C 0.57303 0.6128 0.37717 0.0
H7248 H 0.55595 0.59871 0.37433 0.0
C7249 C 0.56831 0.62024 0.37963 0.0
C7250 C 0.55909 0.62006 0.3801 0.0
H7251 H 0.58011 0.61318 0.3769 0.0
H7252 H 0.57192 0.62612 0.38122 0.0
C7253 C 0.55474 0.61215 0.37827 0.0
C7254 C 0.66711 0.30779 0.62543 0.0
C7255 C 0.66682 0.31697 0.62478 0.0
H7256 H 0.66 0.29597 0.62811 0.0
C7257 C 0.65896 0.32129 0.62683 0.0
H7258 H 0.67306 0.30426 0.62385 0.0
C7259 C 0.65153 0.31658 0.62934 0.0
C7260 C 0.65171 0.30738 0.6298 0.0
H7261 H 0.65856 0.32837 0.62658 0.0
H7262 H 0.64564 0.32019 0.631 0.0
C7263 C 0.65962 0.30304 0.62789 0.0
C7264 C 0.63862 0.95768 0.60549 0.0
C7265 C 0.64734 0.95492 0.60426 0.0
H7266 H 0.62942 0.96428 0.61381 0.0
C7267 C 0.65366 0.95738 0.61051 0.0
H7268 H 0.63355 0.95583 0.60089 0.0
C7269 C 0.65128 0.96217 0.61794 0.0
C7270 C 0.64252 0.96469 0.61929 0.0
H7271 H 0.66047 0.95556 0.60969 0.0
H7272 H 0.65629 0.96385 0.62267 0.0
C7273 C 0.63624 0.96253 0.61291 0.0
C7274 C 0.14659 0.55664 0.4166 0.0
C7275 C 0.14817 0.5657 0.4161 0.0
H7276 H 0.14332 0.54488 0.40963 0.0
C7277 C 0.14722 0.5699 0.40798 0.0
H7278 H 0.1473 0.5532 0.42275 0.0
C7279 C 0.1449 0.56517 0.40051 0.0
C7280 C 0.14351 0.55608 0.40092 0.0
H7281 H 0.14819 0.5769 0.4074 0.0
H7282 H 0.14411 0.56869 0.39441 0.0
C7283 C 0.1443 0.55187 0.40908 0.0
C7284 C 0.71035 0.90429 0.66131 0.0
C7285 C 0.70714 0.89784 0.66707 0.0
H7286 H 0.71739 0.90708 0.6495 0.0
C7287 C 0.70914 0.88902 0.66532 0.0
H7288 H 0.70911 0.91116 0.66253 0.0
C7289 C 0.71397 0.88669 0.65787 0.0
C7290 C 0.71688 0.89312 0.65196 0.0
H7291 H 0.70671 0.88386 0.66953 0.0
H7292 H 0.7151 0.87982 0.65655 0.0
C7293 C 0.71513 0.90195 0.65385 0.0
C7294 C 0.37648 0.46284 0.91611 0.0
C7295 C 0.37583 0.45366 0.91579 0.0
H7296 H 0.37919 0.47467 0.90905 0.0
C7297 C 0.37793 0.44935 0.90794 0.0
H7298 H 0.37487 0.46635 0.92205 0.0
C7299 C 0.38047 0.45408 0.90055 0.0
C7300 C 0.38091 0.46328 0.90075 0.0
H7301 H 0.37768 0.44228 0.90753 0.0
H7302 H 0.38215 0.4505 0.89467 0.0
C7303 C 0.37897 0.4676 0.90866 0.0
C7304 C 0.31445 0.61737 0.66122 0.0
C7305 C 0.31691 0.62363 0.66753 0.0
H7306 H 0.30809 0.61485 0.64897 0.0
C7307 C 0.31419 0.63235 0.66632 0.0
H7308 H 0.31623 0.61055 0.66201 0.0
C7309 C 0.30942 0.63479 0.65887 0.0
C7310 C 0.30728 0.62858 0.65243 0.0
H7311 H 0.31603 0.63738 0.67096 0.0
H7312 H 0.30771 0.64161 0.65799 0.0
C7313 C 0.30974 0.61982 0.65376 0.0
C7314 C 0.87642 0.05788 0.10495 0.0
C7315 C 0.87569 0.06705 0.10527 0.0
H7316 H 0.87921 0.04606 0.112 0.0
C7317 C 0.87774 0.07137 0.11313 0.0
H7318 H 0.87485 0.05436 0.099 0.0
C7319 C 0.8803 0.06665 0.12053 0.0
C7320 C 0.88082 0.05745 0.12032 0.0
H7321 H 0.87744 0.07844 0.11355 0.0
H7322 H 0.88194 0.07024 0.12641 0.0
C7323 C 0.87893 0.05313 0.1124 0.0
C7324 C 0.70754 0.1179 0.86054 0.0
C7325 C 0.70641 0.12384 0.85359 0.0
H7326 H 0.7129 0.11554 0.87326 0.0
C7327 C 0.71031 0.13217 0.85429 0.0
H7328 H 0.70457 0.11147 0.86033 0.0
C7329 C 0.71495 0.13457 0.86183 0.0
C7330 C 0.71586 0.12871 0.86887 0.0
H7331 H 0.70972 0.13688 0.84903 0.0
H7332 H 0.71758 0.14114 0.86223 0.0
C7333 C 0.71223 0.12028 0.86804 0.0
C7334 C 0.81377 0.88891 0.35504 0.0
C7335 C 0.81573 0.89774 0.35328 0.0
H7336 H 0.80782 0.87971 0.36381 0.0
C7337 C 0.81247 0.90418 0.35901 0.0
H7338 H 0.81624 0.88375 0.35085 0.0
C7339 C 0.80768 0.90185 0.36646 0.0
C7340 C 0.80597 0.89301 0.36837 0.0
H7341 H 0.81368 0.91105 0.35778 0.0
H7342 H 0.80539 0.90697 0.3708 0.0
C7343 C 0.80893 0.88658 0.36248 0.0
C7344 C 0.411 0.3808 0.07121 0.0
C7345 C 0.4182 0.37596 0.06811 0.0
H7346 H 0.39839 0.38624 0.06841 0.0
C7347 C 0.41816 0.3731 0.05936 0.0
H7348 H 0.4109 0.38322 0.07787 0.0
C7349 C 0.41094 0.37476 0.05394 0.0
C7350 C 0.40361 0.37938 0.05712 0.0
H7351 H 0.42357 0.36929 0.05679 0.0
H7352 H 0.41098 0.37212 0.04736 0.0
C7353 C 0.40382 0.38252 0.06578 0.0
C7354 C 0.39875 0.66701 0.8094 0.0
C7355 C 0.3956 0.66718 0.81805 0.0
H7356 H 0.39997 0.65975 0.79748 0.0
C7357 C 0.39047 0.66014 0.82102 0.0
H7358 H 0.4028 0.6723 0.80694 0.0
C7359 C 0.38874 0.65299 0.81557 0.0
C7360 C 0.39218 0.65264 0.80702 0.0
H7361 H 0.38782 0.66014 0.8276 0.0
H7362 H 0.38479 0.64768 0.8181 0.0
C7363 C 0.39709 0.65982 0.80396 0.0
C7364 C 0.11175 0.63991 0.57153 0.0
C7365 C 0.10462 0.64483 0.56838 0.0
H7366 H 0.12432 0.63432 0.5688 0.0
C7367 C 0.10475 0.64769 0.55964 0.0
H7368 H 0.11178 0.63749 0.57819 0.0
C7369 C 0.11199 0.64595 0.55426 0.0
C7370 C 0.11924 0.64124 0.55748 0.0
H7371 H 0.0994 0.65155 0.55704 0.0
H7372 H 0.11202 0.64859 0.54768 0.0
C7373 C 0.11894 0.63811 0.56614 0.0
C7374 C 0.11997 0.3621 0.31905 0.0
C7375 C 0.1245 0.35419 0.31777 0.0
H7376 H 0.11801 0.37531 0.31498 0.0
C7377 C 0.13101 0.35385 0.31125 0.0
H7378 H 0.11501 0.36269 0.32409 0.0
C7379 C 0.13289 0.36122 0.3061 0.0
C7380 C 0.1283 0.36911 0.30736 0.0
H7381 H 0.13459 0.34785 0.31002 0.0
H7382 H 0.13796 0.36074 0.30116 0.0
C7383 C 0.12181 0.36942 0.3139 0.0
C7384 C 0.41043 0.65247 0.45271 0.0
C7385 C 0.41776 0.64687 0.45259 0.0
H7386 H 0.39772 0.65516 0.45797 0.0
C7387 C 0.41775 0.63954 0.45819 0.0
H7388 H 0.41027 0.65831 0.4487 0.0
C7389 C 0.41054 0.63779 0.46363 0.0
C7390 C 0.40316 0.64329 0.46352 0.0
H7391 H 0.42323 0.63503 0.45824 0.0
H7392 H 0.41066 0.63204 0.46777 0.0
C7393 C 0.40323 0.65068 0.45806 0.0
C7394 C 0.12383 0.66715 0.21124 0.0
C7395 C 0.12689 0.66721 0.20256 0.0
H7396 H 0.12266 0.66 0.22323 0.0
C7397 C 0.13191 0.66009 0.19959 0.0
H7398 H 0.11987 0.67249 0.2137 0.0
C7399 C 0.13362 0.65296 0.20508 0.0
C7400 C 0.13027 0.65272 0.21367 0.0
H7401 H 0.13449 0.66 0.19299 0.0
H7402 H 0.13749 0.64759 0.20256 0.0
C7403 C 0.12546 0.65998 0.21672 0.0
C7404 C 0.10485 0.37306 0.96173 0.0
C7405 C 0.10473 0.37598 0.953 0.0
H7406 H 0.1121 0.37208 0.97368 0.0
C7407 C 0.11184 0.38093 0.9499 0.0
H7408 H 0.0995 0.36917 0.96429 0.0
C7409 C 0.11903 0.3827 0.95531 0.0
C7410 C 0.11933 0.3795 0.96394 0.0
H7411 H 0.11188 0.3834 0.94326 0.0
H7412 H 0.12441 0.38651 0.95268 0.0
C7413 C 0.11207 0.37477 0.96713 0.0
C7414 C 0.39893 0.35369 0.71204 0.0
C7415 C 0.39579 0.35345 0.70339 0.0
H7416 H 0.40011 0.36103 0.72391 0.0
C7417 C 0.39065 0.36046 0.70037 0.0
H7418 H 0.40298 0.34843 0.71454 0.0
C7419 C 0.3889 0.36765 0.70577 0.0
C7420 C 0.39232 0.36806 0.71432 0.0
H7421 H 0.388 0.36041 0.69379 0.0
H7422 H 0.38493 0.37294 0.7032 0.0
C7423 C 0.39725 0.36092 0.71743 0.0
C7424 C 0.07025 0.41098 0.38117 0.0
C7425 C 0.06757 0.4173 0.37505 0.0
H7426 H 0.06732 0.39882 0.38755 0.0
C7427 C 0.05938 0.41629 0.37093 0.0
H7428 H 0.07654 0.41153 0.38441 0.0
C7429 C 0.05409 0.40903 0.37275 0.0
C7430 C 0.05689 0.40257 0.37867 0.0
H7431 H 0.05709 0.42109 0.36624 0.0
H7432 H 0.04793 0.40834 0.36929 0.0
C7433 C 0.065 0.40367 0.38293 0.0
C7434 C 0.35473 0.30925 0.12306 0.0
C7435 C 0.35461 0.31798 0.12597 0.0
H7436 H 0.362 0.29731 0.12208 0.0
C7437 C 0.36174 0.3211 0.13089 0.0
H7438 H 0.34938 0.30668 0.11918 0.0
C7439 C 0.36894 0.3157 0.13265 0.0
C7440 C 0.36924 0.30706 0.12946 0.0
H7441 H 0.36178 0.32775 0.13335 0.0
H7442 H 0.37432 0.31835 0.13644 0.0
C7443 C 0.36197 0.30387 0.12476 0.0
C7444 C 0.46224 0.6036 0.8731 0.0
C7445 C 0.45359 0.60342 0.87626 0.0
H7446 H 0.47418 0.61087 0.87191 0.0
C7447 C 0.45062 0.61043 0.88143 0.0
H7448 H 0.4647 0.59834 0.86903 0.0
C7449 C 0.45608 0.61757 0.88318 0.0
C7450 C 0.46463 0.61794 0.87973 0.0
H7451 H 0.44403 0.61042 0.88408 0.0
H7452 H 0.45355 0.62287 0.88716 0.0
C7453 C 0.46769 0.61079 0.87479 0.0
C7454 C 0.16793 0.70803 0.63133 0.0
C7455 C 0.16795 0.7024 0.62402 0.0
H7456 H 0.16081 0.71762 0.63879 0.0
C7457 C 0.16062 0.70246 0.61842 0.0
H7458 H 0.17341 0.70812 0.63583 0.0
C7459 C 0.15341 0.7078 0.62019 0.0
C7460 C 0.15332 0.7133 0.62756 0.0
H7461 H 0.16047 0.69842 0.6126 0.0
H7462 H 0.1479 0.70768 0.61571 0.0
C7463 C 0.1607 0.71345 0.63306 0.0
C7464 C 0.06914 0.61147 0.15231 0.0
C7465 C 0.06769 0.60348 0.14798 0.0
H7466 H 0.06533 0.6248 0.15398 0.0
C7467 C 0.06112 0.60312 0.14151 0.0
H7468 H 0.07422 0.61208 0.15722 0.0
C7469 C 0.05611 0.61054 0.13949 0.0
C7470 C 0.05755 0.61852 0.14387 0.0
H7471 H 0.05977 0.59707 0.13808 0.0
H7472 H 0.05114 0.61005 0.13445 0.0
C7473 C 0.06412 0.61885 0.15033 0.0
C7474 C 0.16119 0.32139 0.89002 0.0
C7475 C 0.16839 0.31829 0.89486 0.0
H7476 H 0.14858 0.31857 0.88455 0.0
C7477 C 0.16836 0.30954 0.8977 0.0
H7478 H 0.16107 0.32805 0.88761 0.0
C7479 C 0.16115 0.30411 0.89602 0.0
C7480 C 0.15382 0.30728 0.8914 0.0
H7481 H 0.17377 0.30698 0.90151 0.0
H7482 H 0.1612 0.29753 0.89865 0.0
C7483 C 0.15402 0.31595 0.88828 0.0
C7484 C 0.45332 0.40899 0.65261 0.0
C7485 C 0.45322 0.41628 0.64698 0.0
H7486 H 0.45859 0.39632 0.65535 0.0
C7487 C 0.45882 0.41624 0.63964 0.0
H7488 H 0.44931 0.40886 0.65845 0.0
C7489 C 0.46427 0.40903 0.63793 0.0
C7490 C 0.46415 0.40168 0.64346 0.0
H7491 H 0.45888 0.42169 0.63512 0.0
H7492 H 0.46841 0.40912 0.63217 0.0
C7493 C 0.45868 0.4018 0.65085 0.0
C7494 C 0.35453 0.71132 0.39804 0.0
C7495 C 0.35444 0.70257 0.3952 0.0
H7496 H 0.36175 0.7233 0.39895 0.0
C7497 C 0.3616 0.69944 0.39032 0.0
H7498 H 0.34916 0.71391 0.40188 0.0
C7499 C 0.36878 0.70485 0.38853 0.0
C7500 C 0.36904 0.71351 0.39165 0.0
H7501 H 0.36166 0.69277 0.38791 0.0
H7502 H 0.37418 0.70219 0.38477 0.0
C7503 C 0.36175 0.71671 0.39632 0.0
C7504 C 0.38251 0.06848 0.41206 0.0
C7505 C 0.37586 0.06603 0.41796 0.0
H7506 H 0.38943 0.06546 0.40022 0.0
C7507 C 0.37138 0.05812 0.41652 0.0
H7508 H 0.38605 0.07456 0.41295 0.0
C7509 C 0.37333 0.0529 0.40924 0.0
C7510 C 0.37977 0.0555 0.40318 0.0
H7511 H 0.36628 0.056 0.42098 0.0
H7512 H 0.36957 0.04698 0.40819 0.0
C7513 C 0.38441 0.0633 0.40474 0.0
C7514 C 0.86974 0.45186 0.61163 0.0
C7515 C 0.87421 0.45319 0.60368 0.0
H7516 H 0.86788 0.45583 0.62489 0.0
C7517 C 0.88072 0.45972 0.60335 0.0
H7518 H 0.86479 0.44682 0.61221 0.0
C7519 C 0.88265 0.46481 0.61075 0.0
C7520 C 0.87813 0.46349 0.61867 0.0
H7521 H 0.88425 0.46099 0.59733 0.0
H7522 H 0.88772 0.46974 0.61028 0.0
C7523 C 0.87163 0.45695 0.61898 0.0
C7524 C 0.31896 0.1175 0.3616 0.0
C7525 C 0.31904 0.12315 0.35434 0.0
H7526 H 0.31367 0.11466 0.37425 0.0
C7527 C 0.31337 0.13044 0.35438 0.0
H7528 H 0.32303 0.11169 0.36173 0.0
C7529 C 0.30789 0.13208 0.36158 0.0
C7530 C 0.30802 0.12653 0.36891 0.0
H7531 H 0.3133 0.13498 0.34895 0.0
H7532 H 0.3037 0.13781 0.3615 0.0
C7533 C 0.31356 0.11918 0.36879 0.0
C7534 C 0.6407 0.56156 0.10395 0.0
C7535 C 0.64786 0.56738 0.10402 0.0
H7536 H 0.63335 0.55183 0.111 0.0
C7537 C 0.65333 0.56752 0.11144 0.0
H7538 H 0.63629 0.56131 0.0984 0.0
C7539 C 0.65157 0.56219 0.11865 0.0
C7540 C 0.64434 0.5565 0.11865 0.0
H7541 H 0.65905 0.57171 0.11167 0.0
H7542 H 0.65595 0.56247 0.12424 0.0
C7543 C 0.63898 0.55614 0.11118 0.0
C7544 C 0.70289 0.40162 0.36187 0.0
C7545 C 0.70421 0.39717 0.35392 0.0
H7546 H 0.70688 0.40342 0.37514 0.0
C7547 C 0.71072 0.39064 0.35357 0.0
H7548 H 0.69786 0.40658 0.36247 0.0
C7549 C 0.71581 0.38867 0.36096 0.0
C7550 C 0.7145 0.39318 0.36889 0.0
H7551 H 0.71197 0.38712 0.34754 0.0
H7552 H 0.72073 0.38359 0.36048 0.0
C7553 C 0.70799 0.39969 0.36922 0.0
C7554 C 0.15294 0.95205 0.90901 0.0
C7555 C 0.14852 0.95339 0.91697 0.0
H7556 H 0.15472 0.956 0.89573 0.0
C7557 C 0.14202 0.95993 0.91734 0.0
H7558 H 0.15789 0.947 0.9084 0.0
C7559 C 0.14005 0.96501 0.90995 0.0
C7560 C 0.14452 0.96367 0.902 0.0
H7561 H 0.13852 0.96121 0.92338 0.0
H7562 H 0.13498 0.96995 0.91045 0.0
C7563 C 0.15101 0.95713 0.90166 0.0
C7564 C 0.32246 0.88992 0.1601 0.0
C7565 C 0.31939 0.89481 0.16727 0.0
H7566 H 0.31959 0.88441 0.14754 0.0
C7567 C 0.31064 0.89768 0.16725 0.0
H7568 H 0.32913 0.88748 0.15998 0.0
C7569 C 0.30518 0.896 0.16007 0.0
C7570 C 0.30832 0.89134 0.15276 0.0
H7571 H 0.3081 0.90153 0.17264 0.0
H7572 H 0.2986 0.89866 0.16012 0.0
C7573 C 0.31699 0.88817 0.15296 0.0
C7574 C 0.20926 0.13041 0.66699 0.0
C7575 C 0.20366 0.12308 0.66698 0.0
H7576 H 0.2188 0.13796 0.6599 0.0
C7577 C 0.20374 0.11752 0.65963 0.0
H7578 H 0.20934 0.13488 0.67249 0.0
C7579 C 0.20905 0.11935 0.65242 0.0
C7580 C 0.21452 0.12675 0.65236 0.0
H7581 H 0.19972 0.11168 0.65945 0.0
H7582 H 0.20894 0.11491 0.64689 0.0
C7583 C 0.21467 0.13221 0.65977 0.0
C7584 C 0.10697 0.21439 0.40086 0.0
C7585 C 0.10605 0.20541 0.39899 0.0
H7586 H 0.11474 0.22602 0.3991 0.0
C7587 C 0.112 0.20148 0.39316 0.0
H7588 H 0.10246 0.21762 0.40529 0.0
C7589 C 0.11898 0.20625 0.3897 0.0
C7590 C 0.12013 0.2151 0.39189 0.0
H7591 H 0.11158 0.19456 0.39167 0.0
H7592 H 0.1237 0.20294 0.38556 0.0
C7593 C 0.11394 0.21922 0.39729 0.0
C7594 C 0.06033 0.86126 0.658 0.0
C7595 C 0.06375 0.85473 0.65247 0.0
H7596 H 0.0534 0.87341 0.65894 0.0
C7597 C 0.06177 0.8551 0.64347 0.0
H7598 H 0.06178 0.86127 0.66494 0.0
C7599 C 0.05697 0.86213 0.64003 0.0
C7600 C 0.0541 0.86894 0.6455 0.0
H7601 H 0.06421 0.85013 0.63904 0.0
H7602 H 0.05597 0.86249 0.63302 0.0
C7603 C 0.05558 0.86827 0.65456 0.0
C7604 C 0.41235 0.81849 0.89256 0.0
C7605 C 0.41758 0.81463 0.8991 0.0
H7606 H 0.40118 0.81716 0.88416 0.0
C7607 C 0.41604 0.80582 0.90135 0.0
H7608 H 0.41324 0.82528 0.89074 0.0
C7609 C 0.40912 0.80115 0.89751 0.0
C7610 C 0.40359 0.80525 0.89143 0.0
H7611 H 0.41999 0.80265 0.90632 0.0
H7612 H 0.40777 0.79453 0.89967 0.0
C7613 C 0.40542 0.81386 0.88881 0.0
C7614 C 0.46501 0.16407 0.1503 0.0
C7615 C 0.45594 0.1648 0.14866 0.0
H7616 H 0.47672 0.15643 0.14844 0.0
C7617 C 0.45192 0.15859 0.14319 0.0
H7618 H 0.4683 0.16877 0.15446 0.0
C7619 C 0.4567 0.15157 0.13983 0.0
C7620 C 0.46564 0.15063 0.14178 0.0
H7621 H 0.44494 0.15887 0.14189 0.0
H7622 H 0.45334 0.14668 0.13595 0.0
C7623 C 0.46983 0.15706 0.14683 0.0
C7624 C 0.10686 0.80651 0.12022 0.0
C7625 C 0.10605 0.81554 0.12196 0.0
H7626 H 0.11455 0.79484 0.12204 0.0
C7627 C 0.11216 0.81951 0.12759 0.0
H7628 H 0.10223 0.80326 0.11595 0.0
C7629 C 0.11917 0.81473 0.13099 0.0
C7630 C 0.12019 0.80584 0.12894 0.0
H7631 H 0.11183 0.82646 0.12897 0.0
H7632 H 0.124 0.81807 0.13498 0.0
C7633 C 0.11385 0.80169 0.12374 0.0
C7634 C 0.46516 0.85603 0.37018 0.0
C7635 C 0.45629 0.85456 0.37231 0.0
H7636 H 0.47645 0.86431 0.37188 0.0
C7637 C 0.4523 0.85997 0.37861 0.0
H7638 H 0.46843 0.85195 0.36539 0.0
C7639 C 0.45687 0.86699 0.38226 0.0
C7640 C 0.46555 0.86873 0.37978 0.0
H7641 H 0.44546 0.85913 0.38032 0.0
H7642 H 0.45348 0.87133 0.38674 0.0
C7643 C 0.46977 0.86304 0.37392 0.0
C7644 C 0.41582 0.21479 0.61978 0.0
C7645 C 0.41738 0.20598 0.62204 0.0
H7646 H 0.40751 0.22605 0.62144 0.0
C7647 C 0.41216 0.20213 0.62858 0.0
H7648 H 0.41975 0.21797 0.6148 0.0
C7649 C 0.40522 0.20674 0.63233 0.0
C7650 C 0.40336 0.21534 0.6297 0.0
H7651 H 0.41307 0.19534 0.63041 0.0
H7652 H 0.40099 0.20344 0.63698 0.0
C7653 C 0.40888 0.21945 0.6236 0.0
C7654 C 0.06254 0.16504 0.87748 0.0
C7655 C 0.06454 0.1654 0.86849 0.0
H7656 H 0.05652 0.15779 0.8879 0.0
C7657 C 0.06099 0.15897 0.86294 0.0
H7658 H 0.06508 0.16995 0.88193 0.0
C7659 C 0.05604 0.15207 0.86634 0.0
C7660 C 0.05451 0.15142 0.87539 0.0
H7661 H 0.06244 0.15895 0.856 0.0
H7662 H 0.05372 0.14703 0.86193 0.0
C7663 C 0.05756 0.15814 0.88089 0.0
C7664 C 0.39337 0.10927 0.20243 0.0
C7665 C 0.40013 0.10425 0.20619 0.0
H7666 H 0.38479 0.12027 0.20379 0.0
C7667 C 0.4026 0.106 0.21491 0.0
H7668 H 0.39138 0.10821 0.19571 0.0
C7669 C 0.39876 0.11293 0.21956 0.0
C7670 C 0.39244 0.11824 0.21553 0.0
H7671 H 0.40774 0.10222 0.21801 0.0
H7672 H 0.40109 0.11445 0.22608 0.0
C7673 C 0.38961 0.1162 0.20704 0.0
C7674 C 0.16576 0.15061 0.46444 0.0
C7675 C 0.16661 0.14879 0.45543 0.0
H7676 H 0.15805 0.14882 0.47611 0.0
C7677 C 0.1606 0.14302 0.4515 0.0
H7678 H 0.17031 0.155 0.46766 0.0
C7679 C 0.15364 0.13957 0.45631 0.0
C7680 C 0.15255 0.14171 0.46517 0.0
H7681 H 0.16097 0.14157 0.44457 0.0
H7682 H 0.14887 0.13547 0.453 0.0
C7683 C 0.1588 0.14705 0.46929 0.0
C7684 C 0.12853 0.90947 0.70108 0.0
C7685 C 0.12266 0.91536 0.70505 0.0
H7686 H 0.13622 0.89783 0.7025 0.0
C7687 C 0.12079 0.91438 0.71403 0.0
H7688 H 0.13003 0.90994 0.69417 0.0
C7689 C 0.12441 0.90743 0.71882 0.0
C7690 C 0.12985 0.9013 0.71467 0.0
H7691 H 0.11633 0.91884 0.71727 0.0
H7692 H 0.1226 0.90658 0.72562 0.0
C7693 C 0.13205 0.9025 0.70583 0.0
C7694 C 0.35653 0.86973 0.96441 0.0
C7695 C 0.35565 0.8716 0.95542 0.0
H7696 H 0.36422 0.87152 0.97609 0.0
C7697 C 0.36161 0.87745 0.95152 0.0
H7698 H 0.35202 0.86529 0.96761 0.0
C7699 C 0.36855 0.88093 0.95635 0.0
C7700 C 0.36965 0.87874 0.9652 0.0
H7701 H 0.36122 0.87894 0.9446 0.0
H7702 H 0.37328 0.88508 0.95307 0.0
C7703 C 0.36345 0.87333 0.96928 0.0
C7704 C 0.40274 0.9146 0.30595 0.0
C7705 C 0.40008 0.91637 0.31461 0.0
H7706 H 0.40143 0.90613 0.29476 0.0
C7707 C 0.3932 0.91141 0.31822 0.0
H7708 H 0.40797 0.91834 0.30296 0.0
C7709 C 0.3895 0.90449 0.31354 0.0
C7710 C 0.39252 0.90242 0.30511 0.0
H7711 H 0.39106 0.91248 0.3249 0.0
H7712 H 0.38458 0.90045 0.31668 0.0
C7713 C 0.39897 0.90768 0.30123 0.0
C7714 C 0.35656 0.15088 0.55641 0.0
C7715 C 0.3557 0.14903 0.56541 0.0
H7716 H 0.36426 0.14912 0.54472 0.0
C7717 C 0.36171 0.14325 0.56931 0.0
H7718 H 0.35201 0.15527 0.5532 0.0
C7719 C 0.36868 0.13981 0.56449 0.0
C7720 C 0.36976 0.14198 0.55564 0.0
H7721 H 0.36135 0.14177 0.57624 0.0
H7722 H 0.37345 0.1357 0.56778 0.0
C7723 C 0.36351 0.14733 0.55154 0.0
C7724 C 0.12054 0.10541 0.80628 0.0
C7725 C 0.12274 0.10378 0.8151 0.0
H7726 H 0.12234 0.11377 0.79509 0.0
C7727 C 0.12926 0.10894 0.81906 0.0
H7728 H 0.11559 0.10151 0.80303 0.0
C7729 C 0.13306 0.1159 0.81453 0.0
C7730 C 0.13051 0.11782 0.80592 0.0
H7731 H 0.13103 0.10798 0.82586 0.0
H7732 H 0.13771 0.12007 0.81791 0.0
C7733 C 0.12444 0.11236 0.80171 0.0
C7734 C 0.16228 0.87826 0.0687 0.0
C7735 C 0.1676 0.87183 0.06481 0.0
H7736 H 0.15099 0.8865 0.06742 0.0
C7737 C 0.1661 0.8696 0.05598 0.0
H7738 H 0.16314 0.88006 0.07551 0.0
C7739 C 0.15911 0.87336 0.05133 0.0
C7740 C 0.1535 0.87934 0.05547 0.0
H7741 H 0.17012 0.86472 0.05278 0.0
H7742 H 0.1578 0.87123 0.0447 0.0
C7743 C 0.15529 0.88194 0.0641 0.0
C7744 C 0.20312 0.39324 0.11006 0.0
C7745 C 0.20677 0.39994 0.10491 0.0
H7746 H 0.20476 0.38473 0.12109 0.0
C7747 C 0.21551 0.40247 0.10647 0.0
H7748 H 0.19638 0.39121 0.10915 0.0
C7749 C 0.22033 0.3987 0.11332 0.0
C7750 C 0.21644 0.39239 0.11874 0.0
H7751 H 0.21853 0.40758 0.10258 0.0
H7752 H 0.2269 0.40102 0.11467 0.0
C7753 C 0.20789 0.38955 0.11693 0.0
C7754 C 0.70177 0.12819 0.90947 0.0
C7755 C 0.70574 0.12254 0.91555 0.0
H7756 H 0.70325 0.13561 0.89767 0.0
C7757 C 0.71479 0.12084 0.91478 0.0
H7758 H 0.69481 0.12956 0.90978 0.0
C7759 C 0.71964 0.12437 0.90782 0.0
C7760 C 0.71549 0.12956 0.90148 0.0
H7761 H 0.71805 0.11655 0.9194 0.0
H7762 H 0.7265 0.12267 0.90714 0.0
C7763 C 0.70658 0.13162 0.90249 0.0
C7764 C 0.15169 0.46442 0.16537 0.0
C7765 C 0.14939 0.45563 0.16695 0.0
H7766 H 0.15001 0.47569 0.15708 0.0
C7767 C 0.14277 0.4518 0.16181 0.0
H7768 H 0.15672 0.46757 0.16925 0.0
C7769 C 0.13898 0.45643 0.1549 0.0
C7770 C 0.14164 0.46501 0.15303 0.0
H7771 H 0.14091 0.44502 0.16273 0.0
H7772 H 0.13426 0.45315 0.15073 0.0
C7773 C 0.14782 0.46909 0.15847 0.0
C7774 C 0.81103 0.90795 0.40849 0.0
C7775 C 0.81452 0.90243 0.41498 0.0
H7776 H 0.80387 0.90891 0.39648 0.0
C7777 C 0.81256 0.89343 0.41462 0.0
H7778 H 0.81246 0.91489 0.40847 0.0
C7779 C 0.80765 0.88999 0.40767 0.0
C7780 C 0.80464 0.89547 0.40091 0.0
H7781 H 0.81506 0.88901 0.41956 0.0
H7782 H 0.80662 0.88299 0.40734 0.0
C7783 C 0.80616 0.90451 0.40155 0.0
C7784 C 0.86995 0.0558 0.16495 0.0
C7785 C 0.87245 0.06451 0.16669 0.0
H7786 H 0.87147 0.04461 0.15652 0.0
C7787 C 0.87925 0.06824 0.16171 0.0
H7788 H 0.86478 0.05272 0.16871 0.0
C7789 C 0.88303 0.0636 0.1548 0.0
C7790 C 0.88018 0.05512 0.15276 0.0
H7791 H 0.88126 0.07495 0.16277 0.0
H7792 H 0.88789 0.06682 0.15075 0.0
C7793 C 0.87381 0.05113 0.15804 0.0
C7794 C 0.32126 0.62719 0.61184 0.0
C7795 C 0.31715 0.62176 0.60565 0.0
H7796 H 0.31996 0.63446 0.62376 0.0
C7797 C 0.30808 0.62021 0.60642 0.0
H7798 H 0.32824 0.62843 0.61153 0.0
C7799 C 0.30331 0.62373 0.61345 0.0
C7800 C 0.30758 0.62875 0.61986 0.0
H7801 H 0.30473 0.61608 0.60173 0.0
H7802 H 0.29641 0.6222 0.6141 0.0
C7803 C 0.31653 0.6306 0.61888 0.0
C7804 C 0.14441 0.56061 0.35488 0.0
C7805 C 0.15343 0.56251 0.3545 0.0
H7806 H 0.13392 0.55482 0.36225 0.0
C7807 C 0.15897 0.55893 0.36094 0.0
H7808 H 0.13997 0.56317 0.34998 0.0
C7809 C 0.15551 0.55411 0.3679 0.0
C7810 C 0.14644 0.55273 0.3686 0.0
H7811 H 0.16593 0.56031 0.36094 0.0
H7812 H 0.15991 0.55182 0.37298 0.0
C7813 C 0.14095 0.55574 0.36185 0.0
C7814 C 0.37029 0.46492 0.85599 0.0
C7815 C 0.37276 0.45619 0.85431 0.0
H7816 H 0.37179 0.47613 0.8644 0.0
C7817 C 0.37948 0.45244 0.85938 0.0
H7818 H 0.36518 0.46802 0.85217 0.0
C7819 C 0.38321 0.45708 0.86631 0.0
C7820 C 0.38039 0.46559 0.8683 0.0
H7821 H 0.38146 0.44571 0.85837 0.0
H7822 H 0.38801 0.45384 0.87043 0.0
C7823 C 0.37411 0.4696 0.86292 0.0
C7824 C 0.91309 0.80851 0.61767 0.0
C7825 C 0.91552 0.8157 0.62291 0.0
H7826 H 0.90419 0.79776 0.61588 0.0
C7827 C 0.91149 0.81668 0.63115 0.0
H7828 H 0.91597 0.80756 0.61126 0.0
C7829 C 0.90467 0.81114 0.63371 0.0
C7830 C 0.90185 0.80437 0.62818 0.0
H7831 H 0.91332 0.822 0.63546 0.0
H7832 H 0.90129 0.8124 0.63982 0.0
C7833 C 0.90634 0.80287 0.6203 0.0
C7834 C 0.96268 0.16191 0.36848 0.0
C7835 C 0.95524 0.16394 0.37356 0.0
H7836 H 0.97372 0.15335 0.3667 0.0
C7837 C 0.95409 0.15958 0.38159 0.0
H7838 H 0.96376 0.16506 0.36222 0.0
C7839 C 0.95973 0.15282 0.38407 0.0
C7840 C 0.96675 0.15036 0.37866 0.0
H7841 H 0.94856 0.16111 0.38578 0.0
H7842 H 0.95834 0.14919 0.39001 0.0
C7843 C 0.9684 0.1552 0.37103 0.0
C7844 C 0.60802 0.21422 0.11888 0.0
C7845 C 0.60655 0.20574 0.12221 0.0
H7846 H 0.61636 0.22552 0.11878 0.0
C7847 C 0.6119 0.20275 0.12908 0.0
H7848 H 0.60393 0.2168 0.11369 0.0
C7849 C 0.61893 0.20779 0.13206 0.0
C7850 C 0.62082 0.21594 0.12824 0.0
H7851 H 0.61104 0.19626 0.13179 0.0
H7852 H 0.62319 0.2051 0.13707 0.0
C7853 C 0.61508 0.21927 0.12187 0.0
C7854 C 0.56828 0.86068 0.87889 0.0
C7855 C 0.56527 0.85517 0.87216 0.0
H7856 H 0.56594 0.87217 0.88657 0.0
C7857 C 0.55675 0.85649 0.86886 0.0
H7858 H 0.57481 0.85994 0.88157 0.0
C7859 C 0.55167 0.8636 0.8717 0.0
C7860 C 0.55503 0.86952 0.87788 0.0
H7861 H 0.55415 0.85228 0.86378 0.0
H7862 H 0.54539 0.86479 0.86861 0.0
C7863 C 0.56322 0.86776 0.88172 0.0
C7864 C 0.91058 0.20252 0.89213 0.0
C7865 C 0.91589 0.20551 0.89904 0.0
H7866 H 0.89934 0.2049 0.88409 0.0
C7867 C 0.91442 0.21398 0.90237 0.0
H7868 H 0.91145 0.19603 0.88943 0.0
C7869 C 0.90738 0.21904 0.89935 0.0
C7870 C 0.90167 0.21573 0.89294 0.0
H7871 H 0.91848 0.21655 0.90759 0.0
H7872 H 0.90609 0.2253 0.90244 0.0
C7873 C 0.90357 0.20758 0.88912 0.0
C7874 C 0.55707 0.16358 0.65239 0.0
C7875 C 0.56565 0.1649 0.64923 0.0
H7876 H 0.54569 0.15536 0.65243 0.0
C7877 C 0.56877 0.15936 0.64257 0.0
H7878 H 0.55438 0.16781 0.65741 0.0
C7879 C 0.56373 0.15231 0.63963 0.0
C7880 C 0.55545 0.15058 0.64329 0.0
H7881 H 0.57535 0.1601 0.64 0.0
H7882 H 0.56651 0.14794 0.63478 0.0
C7883 C 0.55203 0.1565 0.64946 0.0
C7884 C 0.61124 0.81776 0.39178 0.0
C7885 C 0.6058 0.81473 0.39857 0.0
H7886 H 0.62267 0.81547 0.384 0.0
C7887 C 0.60721 0.80624 0.40187 0.0
H7888 H 0.61042 0.82427 0.38911 0.0
C7889 C 0.61433 0.80121 0.39897 0.0
C7890 C 0.62018 0.80459 0.39272 0.0
H7891 H 0.60305 0.80363 0.407 0.0
H7892 H 0.61559 0.79495 0.40205 0.0
C7893 C 0.61832 0.81274 0.38889 0.0
C7894 C 0.95465 0.86034 0.1397 0.0
C7895 C 0.95566 0.85599 0.14776 0.0
H7896 H 0.95899 0.87081 0.13141 0.0
C7897 C 0.963 0.85805 0.15298 0.0
H7898 H 0.94921 0.8588 0.13541 0.0
C7899 C 0.96872 0.8648 0.15055 0.0
C7900 C 0.96718 0.86963 0.1429 0.0
H7901 H 0.96397 0.85491 0.15926 0.0
H7902 H 0.97392 0.86669 0.155 0.0
C7903 C 0.9603 0.86715 0.13734 0.0
C7904 C 0.63205 0.90985 0.81657 0.0
C7905 C 0.62389 0.91404 0.81554 0.0
H7906 H 0.64052 0.89947 0.81235 0.0
C7907 C 0.61861 0.91171 0.80834 0.0
H7908 H 0.63639 0.9116 0.82189 0.0
C7909 C 0.62112 0.90488 0.80274 0.0
C7910 C 0.6289 0.90024 0.80427 0.0
H7911 H 0.61226 0.91472 0.80736 0.0
H7912 H 0.61667 0.90282 0.79761 0.0
C7913 C 0.63447 0.90296 0.81105 0.0
C7914 C 0.86279 0.87931 0.56888 0.0
C7915 C 0.85717 0.87261 0.56597 0.0
H7916 H 0.87417 0.88706 0.56624 0.0
C7917 C 0.85825 0.86937 0.55741 0.0
H7918 H 0.86221 0.88195 0.57543 0.0
C7919 C 0.86522 0.87224 0.55216 0.0
C7920 C 0.87124 0.87843 0.55536 0.0
H7921 H 0.85395 0.86433 0.55489 0.0
H7922 H 0.8662 0.8692 0.54583 0.0
C7923 C 0.86972 0.88219 0.56363 0.0
C7924 C 0.89236 0.1114 0.31788 0.0
C7925 C 0.8992 0.10594 0.315 0.0
H7926 H 0.88447 0.12268 0.31529 0.0
C7927 C 0.90258 0.10721 0.30651 0.0
H7928 H 0.88962 0.11068 0.32438 0.0
C7929 C 0.89967 0.1142 0.30132 0.0
C7930 C 0.89333 0.12006 0.30452 0.0
H7931 H 0.90774 0.10304 0.30401 0.0
H7932 H 0.90281 0.11533 0.29506 0.0
C7933 C 0.88945 0.11835 0.31269 0.0
C7934 C 0.66042 0.14195 0.06813 0.0
C7935 C 0.66578 0.14882 0.06516 0.0
H7936 H 0.64914 0.13398 0.06573 0.0
C7937 C 0.66432 0.15219 0.0567 0.0
H7938 H 0.66127 0.13922 0.07461 0.0
C7939 C 0.65726 0.14922 0.05163 0.0
C7940 C 0.65151 0.14284 0.05492 0.0
H7941 H 0.66841 0.15738 0.05414 0.0
H7942 H 0.65599 0.15233 0.04538 0.0
C7943 C 0.65339 0.13899 0.06307 0.0
C7944 C 0.62918 0.11021 0.70371 0.0
C7945 C 0.62227 0.10493 0.70674 0.0
H7946 H 0.63716 0.12151 0.70595 0.0
C7947 C 0.61893 0.10647 0.7152 0.0
H7948 H 0.6319 0.10928 0.69723 0.0
C7949 C 0.6219 0.11358 0.72017 0.0
C7950 C 0.62828 0.11929 0.71679 0.0
H7951 H 0.61371 0.10244 0.71781 0.0
H7952 H 0.61877 0.11495 0.72639 0.0
C7953 C 0.63216 0.11729 0.70868 0.0
C7954 C 0.66043 0.87889 0.45257 0.0
C7955 C 0.6659 0.87214 0.45562 0.0
H7956 H 0.64903 0.88673 0.45486 0.0
C7957 C 0.66448 0.86886 0.46412 0.0
H7958 H 0.66125 0.88156 0.44605 0.0
C7959 C 0.65737 0.87177 0.46915 0.0
C7960 C 0.65152 0.87802 0.46578 0.0
H7961 H 0.66865 0.86376 0.46675 0.0
H7962 H 0.65614 0.86871 0.47543 0.0
C7963 C 0.65335 0.88181 0.45759 0.0
C7964 C 0.90237 0.91204 0.2124 0.0
C7965 C 0.8973 0.91381 0.20489 0.0
H7966 H 0.90433 0.90369 0.22353 0.0
C7967 C 0.88944 0.90913 0.20369 0.0
H7968 H 0.90849 0.91544 0.21352 0.0
C7969 C 0.88714 0.90233 0.20936 0.0
C7970 C 0.89256 0.90016 0.21647 0.0
H7971 H 0.88525 0.91044 0.19812 0.0
H7972 H 0.88135 0.89848 0.20796 0.0
C7973 C 0.89999 0.9053 0.21815 0.0
C7974 C 0.85823 0.15196 0.96456 0.0
C7975 C 0.85676 0.1486 0.95609 0.0
H7976 H 0.86656 0.15204 0.97588 0.0
C7977 C 0.86208 0.14169 0.95313 0.0
H7978 H 0.85418 0.15718 0.96712 0.0
C7979 C 0.86908 0.13868 0.95819 0.0
C7980 C 0.87098 0.14252 0.96634 0.0
H7981 H 0.86121 0.13897 0.94664 0.0
H7982 H 0.87331 0.13365 0.95552 0.0
C7983 C 0.86527 0.14894 0.96963 0.0
C7984 C 0.80674 0.61789 0.91362 0.0
C7985 C 0.81526 0.62107 0.91524 0.0
H7986 H 0.79554 0.61803 0.90512 0.0
C7987 C 0.81847 0.62791 0.90997 0.0
H7988 H 0.804 0.61273 0.91764 0.0
C7989 C 0.81358 0.631 0.90289 0.0
C7990 C 0.80537 0.62734 0.90086 0.0
H7991 H 0.825 0.6305 0.91094 0.0
H7992 H 0.81642 0.63598 0.89871 0.0
C7993 C 0.80184 0.621 0.90651 0.0
C7994 C 0.30746 0.90246 0.10754 0.0
C7995 C 0.31594 0.89914 0.10601 0.0
H7996 H 0.29616 0.90248 0.11592 0.0
C7997 C 0.31895 0.8922 0.11126 0.0
H7998 H 0.30486 0.9077 0.10354 0.0
C7999 C 0.31392 0.88914 0.11827 0.0
C8000 C 0.30576 0.89296 0.12023 0.0
H8001 H 0.32545 0.88949 0.11035 0.0
H8002 H 0.31662 0.88409 0.12245 0.0
C8003 C 0.30242 0.8994 0.11458 0.0
C8004 C 0.88004 0.5674 0.86068 0.0
C8005 C 0.87321 0.56447 0.85524 0.0
H8006 H 0.88784 0.56498 0.87207 0.0
C8007 C 0.86986 0.55598 0.85658 0.0
H8008 H 0.88277 0.5739 0.85991 0.0
C8009 C 0.87272 0.55089 0.86365 0.0
C8010 C 0.879 0.55418 0.86952 0.0
H8011 H 0.8647 0.55344 0.85242 0.0
H8012 H 0.86957 0.54466 0.86486 0.0
C8013 C 0.88291 0.56231 0.86772 0.0
C8014 C 0.21548 0.1183 0.60697 0.0
C8015 C 0.20695 0.12158 0.60561 0.0
H8016 H 0.22682 0.11814 0.61529 0.0
C8017 C 0.20392 0.12836 0.61105 0.0
H8018 H 0.21808 0.11319 0.60281 0.0
C8019 C 0.20897 0.13125 0.61811 0.0
C8020 C 0.21716 0.12744 0.61992 0.0
H8021 H 0.19739 0.13102 0.61027 0.0
H8022 H 0.20624 0.13613 0.62248 0.0
C8023 C 0.22054 0.12121 0.61406 0.0
C8024 C 0.14246 0.95302 0.86062 0.0
C8025 C 0.1492 0.95603 0.8551 0.0
H8026 H 0.13478 0.95536 0.87211 0.0
C8027 C 0.15249 0.96454 0.85642 0.0
H8028 H 0.13978 0.9465 0.85987 0.0
C8029 C 0.14968 0.96959 0.86354 0.0
C8030 C 0.1435 0.96624 0.86948 0.0
H8031 H 0.15757 0.96714 0.8522 0.0
H8032 H 0.15278 0.97585 0.86473 0.0
C8033 C 0.13964 0.95807 0.86771 0.0
C8034 C 0.70382 0.39122 0.41026 0.0
C8035 C 0.70679 0.39801 0.41573 0.0
H8036 H 0.70621 0.38347 0.39884 0.0
C8037 C 0.7153 0.40134 0.41439 0.0
H8038 H 0.69731 0.38852 0.41104 0.0
C8039 C 0.72038 0.39849 0.40729 0.0
C8040 C 0.71706 0.39225 0.40141 0.0
H8041 H 0.71787 0.40646 0.41856 0.0
H8042 H 0.72664 0.40161 0.40608 0.0
C8043 C 0.7089 0.38837 0.40321 0.0
C8044 C 0.88003 0.45294 0.66012 0.0
C8045 C 0.87332 0.45599 0.66565 0.0
H8046 H 0.88769 0.45521 0.6486 0.0
C8047 C 0.87004 0.46451 0.6643 0.0
H8048 H 0.8827 0.44642 0.66089 0.0
C8049 C 0.87285 0.46952 0.65715 0.0
C8050 C 0.87901 0.46612 0.6512 0.0
H8051 H 0.86499 0.46714 0.66853 0.0
H8052 H 0.86976 0.47578 0.65595 0.0
C8053 C 0.88285 0.45795 0.653 0.0
C8054 C 0.6425 0.56709 0.15999 0.0
C8055 C 0.64921 0.56406 0.16553 0.0
H8056 H 0.63484 0.56479 0.14847 0.0
C8057 C 0.65251 0.55555 0.16419 0.0
H8058 H 0.63981 0.5736 0.16075 0.0
C8059 C 0.6497 0.55051 0.15705 0.0
C8060 C 0.64353 0.55389 0.15111 0.0
H8061 H 0.65757 0.55294 0.16842 0.0
H8062 H 0.6528 0.54425 0.15586 0.0
C8063 C 0.63969 0.56206 0.15288 0.0
C8064 C 0.61024 0.70215 0.89245 0.0
C8065 C 0.60512 0.70579 0.89919 0.0
H8066 H 0.62135 0.7037 0.88401 0.0
C8067 C 0.60675 0.7145 0.90176 0.0
H8068 H 0.60927 0.69544 0.89039 0.0
C8069 C 0.61368 0.71925 0.89804 0.0
C8070 C 0.6191 0.71534 0.89174 0.0
H8071 H 0.60288 0.71752 0.90688 0.0
H8072 H 0.61512 0.72576 0.90045 0.0
C8073 C 0.61718 0.70686 0.88881 0.0
C8074 C 0.55751 0.35662 0.15035 0.0
C8075 C 0.56657 0.35584 0.14869 0.0
H8076 H 0.54582 0.3643 0.14848 0.0
C8077 C 0.57061 0.36201 0.14318 0.0
H8078 H 0.55421 0.35195 0.15453 0.0
C8079 C 0.56585 0.36904 0.13981 0.0
C8080 C 0.55691 0.37003 0.14178 0.0
H8081 H 0.57758 0.3617 0.14187 0.0
H8082 H 0.56922 0.37391 0.1359 0.0
C8083 C 0.55271 0.36364 0.14686 0.0
C8084 C 0.91569 0.30569 0.40162 0.0
C8085 C 0.91742 0.31438 0.39906 0.0
H8086 H 0.90728 0.29447 0.40019 0.0
C8087 C 0.91244 0.31804 0.39224 0.0
H8088 H 0.91946 0.30266 0.40681 0.0
C8089 C 0.90553 0.31337 0.38849 0.0
C8090 C 0.9035 0.3049 0.3914 0.0
H8091 H 0.91348 0.32474 0.39018 0.0
H8092 H 0.90146 0.31654 0.38362 0.0
C8093 C 0.90879 0.30097 0.3978 0.0
C8094 C 0.95217 0.65914 0.64306 0.0
C8095 C 0.95614 0.66519 0.64874 0.0
H8096 H 0.95362 0.64735 0.63561 0.0
C8097 C 0.96517 0.66436 0.65051 0.0
H8098 H 0.94522 0.65949 0.64165 0.0
C8099 C 0.97001 0.65739 0.64697 0.0
C8100 C 0.96585 0.65109 0.64172 0.0
H8101 H 0.96843 0.66895 0.65482 0.0
H8102 H 0.97686 0.65667 0.64869 0.0
C8103 C 0.95696 0.65215 0.63964 0.0
C8104 C 0.61027 0.31831 0.62847 0.0
C8105 C 0.60502 0.31447 0.62195 0.0
H8106 H 0.62153 0.317 0.63674 0.0
C8107 C 0.60662 0.30569 0.61959 0.0
H8108 H 0.60933 0.32507 0.63037 0.0
C8109 C 0.61363 0.30105 0.6233 0.0
C8110 C 0.61918 0.30515 0.62938 0.0
H8111 H 0.60265 0.30253 0.61463 0.0
H8112 H 0.61502 0.29447 0.62107 0.0
C8113 C 0.61729 0.31371 0.6321 0.0
C8114 C 0.95267 0.36041 0.87789 0.0
C8115 C 0.95653 0.3547 0.87179 0.0
H8116 H 0.95418 0.37192 0.88576 0.0
C8117 C 0.96545 0.35582 0.86969 0.0
H8118 H 0.94579 0.35984 0.87957 0.0
C8119 C 0.97028 0.36275 0.8733 0.0
C8120 C 0.96621 0.36871 0.87899 0.0
H8121 H 0.96862 0.3515 0.86504 0.0
H8122 H 0.97702 0.36372 0.87131 0.0
C8123 C 0.95745 0.36736 0.88141 0.0
C8124 C 0.91585 0.7147 0.11985 0.0
C8125 C 0.91737 0.70588 0.12207 0.0
H8126 H 0.90757 0.72599 0.12154 0.0
C8127 C 0.91209 0.70199 0.12854 0.0
H8128 H 0.91984 0.7179 0.11493 0.0
C8129 C 0.90513 0.7066 0.13227 0.0
C8130 C 0.90333 0.71523 0.12969 0.0
H8131 H 0.91296 0.69519 0.13033 0.0
H8132 H 0.90086 0.70328 0.13687 0.0
C8133 C 0.9089 0.71936 0.12366 0.0
C8134 C 0.56996 0.66142 0.37819 0.0
C8135 C 0.56596 0.66669 0.37178 0.0
H8136 H 0.56885 0.65016 0.38646 0.0
C8137 C 0.55712 0.66509 0.36962 0.0
H8138 H 0.57678 0.66235 0.37993 0.0
C8139 C 0.55256 0.65808 0.37343 0.0
C8140 C 0.5568 0.65253 0.37939 0.0
H8141 H 0.55384 0.66907 0.36475 0.0
H8142 H 0.54591 0.65671 0.37135 0.0
C8143 C 0.56545 0.6544 0.38191 0.0
C8144 C 0.89333 0.60899 0.7022 0.0
C8145 C 0.89985 0.60377 0.70607 0.0
H8146 H 0.88498 0.62019 0.70347 0.0
C8147 C 0.90216 0.60536 0.71486 0.0
H8148 H 0.89147 0.60805 0.69542 0.0
C8149 C 0.89838 0.61234 0.71949 0.0
C8150 C 0.89229 0.61785 0.71537 0.0
H8151 H 0.90712 0.60142 0.71805 0.0
H8152 H 0.90057 0.61373 0.72609 0.0
C8153 C 0.88963 0.61597 0.70678 0.0
C8154 C 0.66536 0.65046 0.96473 0.0
C8155 C 0.66692 0.6483 0.95589 0.0
H8156 H 0.65698 0.64876 0.97594 0.0
C8157 C 0.66158 0.64195 0.95189 0.0
H8158 H 0.66939 0.65528 0.96801 0.0
C8159 C 0.65453 0.63828 0.95641 0.0
C8160 C 0.6527 0.64079 0.96505 0.0
H8161 H 0.66249 0.64022 0.94508 0.0
H8162 H 0.65024 0.63377 0.95301 0.0
C8163 C 0.65832 0.6467 0.96929 0.0
C8164 C 0.62929 0.41144 0.2024 0.0
C8165 C 0.62259 0.41654 0.20612 0.0
H8166 H 0.63778 0.40037 0.20383 0.0
C8167 C 0.6201 0.41489 0.21486 0.0
H8168 H 0.6313 0.41243 0.19567 0.0
C8169 C 0.62388 0.40795 0.21955 0.0
C8170 C 0.63015 0.40255 0.21556 0.0
H8171 H 0.615 0.41874 0.21794 0.0
H8172 H 0.62155 0.4065 0.22609 0.0
C8173 C 0.633 0.40451 0.20705 0.0
C8174 C 0.85695 0.36959 0.46446 0.0
C8175 C 0.85549 0.37177 0.45562 0.0
H8176 H 0.86522 0.37124 0.47576 0.0
C8177 C 0.86088 0.37811 0.45169 0.0
H8178 H 0.85287 0.36477 0.46769 0.0
C8179 C 0.8679 0.38176 0.45629 0.0
C8180 C 0.86964 0.37922 0.46494 0.0
H8181 H 0.86005 0.37987 0.44487 0.0
H8182 H 0.87224 0.38626 0.45294 0.0
C8183 C 0.86395 0.37333 0.46911 0.0
C8184 C 0.89298 0.4113 0.819 0.0
C8185 C 0.89959 0.41643 0.81513 0.0
H8186 H 0.88452 0.40019 0.81773 0.0
C8187 C 0.9019 0.41479 0.80635 0.0
H8188 H 0.89112 0.41228 0.82577 0.0
C8189 C 0.89805 0.40784 0.80173 0.0
C8190 C 0.89189 0.40241 0.80585 0.0
H8191 H 0.90692 0.41866 0.80317 0.0
H8192 H 0.90025 0.40641 0.79514 0.0
C8193 C 0.88922 0.40435 0.81442 0.0
C8194 C 0.85647 0.65069 0.05667 0.0
C8195 C 0.85566 0.64891 0.06568 0.0
H8196 H 0.86413 0.64889 0.04496 0.0
C8197 C 0.86172 0.64319 0.06961 0.0
H8198 H 0.85188 0.65504 0.05344 0.0
C8199 C 0.86869 0.63976 0.06479 0.0
C8200 C 0.86972 0.64187 0.05591 0.0
H8201 H 0.86139 0.64177 0.07655 0.0
H8202 H 0.87349 0.6357 0.06809 0.0
C8203 C 0.86342 0.64715 0.0518 0.0
C8204 C 0.62823 0.60456 0.31088 0.0
C8205 C 0.61923 0.60421 0.31289 0.0
H8206 H 0.63869 0.61192 0.30503 0.0
C8207 C 0.61368 0.61072 0.30945 0.0
H8208 H 0.63267 0.5996 0.31332 0.0
C8209 C 0.61712 0.61771 0.30467 0.0
C8210 C 0.62618 0.61837 0.30318 0.0
H8211 H 0.60674 0.61074 0.31092 0.0
H8212 H 0.61273 0.62284 0.30249 0.0
C8213 C 0.63167 0.61156 0.30604 0.0
C8214 C 0.66602 0.36937 0.55628 0.0
C8215 C 0.66763 0.3717 0.56506 0.0
H8216 H 0.65761 0.37091 0.54506 0.0
C8217 C 0.66239 0.37821 0.56893 0.0
H8218 H 0.66997 0.36442 0.55309 0.0
C8219 C 0.65537 0.38188 0.56435 0.0
C8220 C 0.65348 0.37919 0.55577 0.0
H8221 H 0.66334 0.38009 0.5757 0.0
H8222 H 0.65114 0.38652 0.56766 0.0
C8223 C 0.65901 0.37312 0.55165 0.0
C8224 C 0.71008 0.8934 0.6058 0.0
C8225 C 0.70812 0.9024 0.60542 0.0
H8226 H 0.71609 0.88298 0.61307 0.0
C8227 C 0.71168 0.90795 0.61185 0.0
H8228 H 0.70753 0.88896 0.6009 0.0
C8229 C 0.71662 0.90454 0.61876 0.0
C8230 C 0.71813 0.8955 0.61942 0.0
H8231 H 0.71025 0.91489 0.61185 0.0
H8232 H 0.71896 0.90895 0.62379 0.0
C8233 C 0.71506 0.88999 0.61271 0.0
C8234 C 0.20199 0.62719 0.40988 0.0
C8235 C 0.20605 0.62154 0.41591 0.0
H8236 H 0.20332 0.6347 0.39813 0.0
C8237 C 0.2151 0.61989 0.41505 0.0
H8238 H 0.19502 0.6285 0.41026 0.0
C8239 C 0.21987 0.62352 0.40808 0.0
C8240 C 0.21564 0.62873 0.40181 0.0
H8241 H 0.21842 0.6156 0.41961 0.0
H8242 H 0.22675 0.62189 0.40733 0.0
C8243 C 0.20672 0.6307 0.4029 0.0
C8244 C 0.64405 0.95146 0.66006 0.0
C8245 C 0.64992 0.95546 0.66593 0.0
H8246 H 0.63635 0.95281 0.64842 0.0
C8247 C 0.65174 0.96444 0.66492 0.0
H8248 H 0.64259 0.94454 0.66054 0.0
C8249 C 0.6481 0.9692 0.65796 0.0
C8250 C 0.64267 0.96501 0.65184 0.0
H8251 H 0.6562 0.96772 0.66937 0.0
H8252 H 0.64987 0.97601 0.65709 0.0
C8253 C 0.64051 0.95617 0.65308 0.0
C8254 C 0.30764 0.40046 0.9142 0.0
C8255 C 0.31669 0.39877 0.91498 0.0
H8256 H 0.29594 0.39863 0.90654 0.0
C8257 C 0.32071 0.39324 0.90881 0.0
H8258 H 0.30436 0.40466 0.91888 0.0
C8259 C 0.31592 0.38987 0.90179 0.0
C8260 C 0.307 0.39187 0.9008 0.0
H8261 H 0.32767 0.39189 0.90911 0.0
H8262 H 0.31928 0.38594 0.89692 0.0
C8263 C 0.30282 0.39698 0.9072 0.0
C8264 C 0.36384 0.55916 0.65974 0.0
C8265 C 0.36934 0.56266 0.66625 0.0
H8266 H 0.36298 0.55214 0.64764 0.0
C8267 C 0.37835 0.56069 0.66595 0.0
H8268 H 0.35689 0.56059 0.65968 0.0
C8269 C 0.38185 0.55584 0.65898 0.0
C8270 C 0.3764 0.55292 0.65216 0.0
H8271 H 0.38276 0.56318 0.67092 0.0
H8272 H 0.38888 0.55486 0.65865 0.0
C8273 C 0.36733 0.55436 0.65278 0.0
C8274 C 0.82041 0.12753 0.11215 0.0
C8275 C 0.81642 0.12196 0.10601 0.0
H8276 H 0.81897 0.13487 0.124 0.0
C8277 C 0.80737 0.12026 0.10678 0.0
H8278 H 0.82737 0.12888 0.11184 0.0
C8279 C 0.80253 0.12376 0.11377 0.0
C8280 C 0.8067 0.1289 0.12015 0.0
H8281 H 0.8041 0.11602 0.10213 0.0
H8282 H 0.79566 0.1221 0.11444 0.0
C8283 C 0.81562 0.13092 0.11915 0.0
C8284 C 0.65216 0.0561 0.85598 0.0
C8285 C 0.65019 0.06504 0.85486 0.0
H8286 H 0.65037 0.04457 0.86389 0.0
C8287 C 0.64418 0.06899 0.86061 0.0
H8288 H 0.65674 0.05286 0.85163 0.0
C8289 C 0.64061 0.06428 0.86758 0.0
C8290 C 0.6429 0.05549 0.86892 0.0
H8291 H 0.6426 0.07588 0.86004 0.0
H8292 H 0.63633 0.06762 0.87215 0.0
C8293 C 0.64849 0.05134 0.86293 0.0
C8294 C 0.87028 0.96477 0.35593 0.0
C8295 C 0.87268 0.956 0.35432 0.0
H8296 H 0.87185 0.97604 0.36424 0.0
C8297 C 0.87935 0.95224 0.35944 0.0
H8298 H 0.86521 0.96787 0.35206 0.0
C8299 C 0.88311 0.9569 0.36635 0.0
C8300 C 0.88035 0.96545 0.36825 0.0
H8301 H 0.88129 0.94549 0.35849 0.0
H8302 H 0.88786 0.95366 0.3705 0.0
C8303 C 0.87412 0.96947 0.36283 0.0
C8304 C 0.41073 0.31802 0.1289 0.0
C8305 C 0.41609 0.31506 0.12202 0.0
H8306 H 0.39946 0.31562 0.13688 0.0
C8307 C 0.41466 0.30658 0.11868 0.0
H8308 H 0.41156 0.32451 0.13162 0.0
C8309 C 0.40761 0.3015 0.12166 0.0
C8310 C 0.40186 0.30479 0.12804 0.0
H8311 H 0.41875 0.30402 0.11348 0.0
H8312 H 0.40636 0.29525 0.11856 0.0
C8313 C 0.40372 0.31295 0.13188 0.0
C8314 C 0.45351 0.65932 0.87931 0.0
C8315 C 0.45646 0.66468 0.87243 0.0
H8316 H 0.45598 0.64808 0.88731 0.0
C8317 C 0.46496 0.66328 0.86909 0.0
H8318 H 0.447 0.66013 0.88203 0.0
C8319 C 0.47007 0.65627 0.87207 0.0
C8320 C 0.4668 0.65051 0.87845 0.0
H8321 H 0.46751 0.66738 0.8639 0.0
H8322 H 0.47634 0.65504 0.86896 0.0
C8323 C 0.45863 0.65234 0.88229 0.0
C8324 C 0.11184 0.70303 0.62894 0.0
C8325 C 0.10643 0.70606 0.62213 0.0
H8326 H 0.12328 0.70528 0.63674 0.0
C8327 C 0.10788 0.71455 0.61882 0.0
H8328 H 0.111 0.69653 0.63163 0.0
C8329 C 0.11502 0.71955 0.62172 0.0
C8330 C 0.12084 0.71616 0.62799 0.0
H8331 H 0.10375 0.71716 0.61368 0.0
H8332 H 0.11631 0.72579 0.61863 0.0
C8333 C 0.11895 0.70802 0.63183 0.0
C8334 C 0.06882 0.36133 0.37869 0.0
C8335 C 0.06576 0.35579 0.372 0.0
H8336 H 0.06641 0.37269 0.38653 0.0
C8337 C 0.05717 0.35702 0.36884 0.0
H8338 H 0.07539 0.36064 0.38126 0.0
C8339 C 0.05205 0.36403 0.37179 0.0
C8340 C 0.0554 0.36997 0.37799 0.0
H8341 H 0.05453 0.35278 0.36381 0.0
H8342 H 0.04571 0.36512 0.36881 0.0
C8343 C 0.06369 0.36832 0.38165 0.0
C8344 C 0.41461 0.71442 0.40209 0.0
C8345 C 0.41609 0.70592 0.39881 0.0
H8346 H 0.40621 0.72567 0.40221 0.0
C8347 C 0.41066 0.70284 0.39204 0.0
H8348 H 0.41876 0.71707 0.4072 0.0
C8349 C 0.40355 0.70781 0.38911 0.0
C8350 C 0.40167 0.71599 0.39289 0.0
H8351 H 0.41152 0.69633 0.38937 0.0
H8352 H 0.39925 0.70506 0.38418 0.0
C8353 C 0.40748 0.7194 0.39916 0.0
C8354 C 0.05721 0.66406 0.15162 0.0
C8355 C 0.06574 0.66527 0.14831 0.0
H8356 H 0.04578 0.65591 0.15196 0.0
C8357 C 0.06866 0.65972 0.14156 0.0
H8358 H 0.05468 0.66832 0.1567 0.0
C8359 C 0.0635 0.6527 0.13876 0.0
C8360 C 0.05531 0.65103 0.14265 0.0
H8361 H 0.07519 0.66039 0.13886 0.0
H8362 H 0.06614 0.64826 0.1339 0.0
C8363 C 0.05205 0.65701 0.14883 0.0
C8364 C 0.11222 0.31785 0.89228 0.0
C8365 C 0.10696 0.31482 0.89921 0.0
H8366 H 0.12344 0.31556 0.88418 0.0
C8367 C 0.10851 0.30636 0.90253 0.0
H8368 H 0.11128 0.32433 0.88958 0.0
C8369 C 0.11558 0.30136 0.89948 0.0
C8370 C 0.12123 0.30471 0.89304 0.0
H8371 H 0.1045 0.30376 0.90777 0.0
H8372 H 0.11693 0.29512 0.90255 0.0
C8373 C 0.11925 0.31285 0.88923 0.0
C8374 C 0.45386 0.36031 0.64227 0.0
C8375 C 0.4569 0.35497 0.64912 0.0
H8376 H 0.45612 0.37165 0.63437 0.0
C8377 C 0.46541 0.35643 0.65241 0.0
H8378 H 0.44734 0.35946 0.63959 0.0
C8379 C 0.47043 0.36351 0.64943 0.0
C8380 C 0.46703 0.36928 0.64312 0.0
H8381 H 0.46802 0.35235 0.65758 0.0
H8382 H 0.47669 0.36482 0.65251 0.0
C8383 C 0.45887 0.36737 0.6393 0.0
C8384 C 0.12957 0.41054 0.31769 0.0
C8385 C 0.12264 0.41583 0.3147 0.0
H8386 H 0.13759 0.39928 0.31537 0.0
C8387 C 0.11935 0.41437 0.30621 0.0
H8388 H 0.13226 0.41141 0.3242 0.0
C8389 C 0.12236 0.40732 0.30117 0.0
C8390 C 0.12874 0.40159 0.30452 0.0
H8391 H 0.11413 0.41841 0.30362 0.0
H8392 H 0.11926 0.406 0.29493 0.0
C8393 C 0.13259 0.40352 0.31266 0.0
C8394 C 0.35828 0.36827 0.05629 0.0
C8395 C 0.35674 0.3716 0.06475 0.0
H8396 H 0.36668 0.36823 0.04502 0.0
C8397 C 0.36202 0.37852 0.06777 0.0
H8398 H 0.35425 0.36304 0.05369 0.0
C8399 C 0.36905 0.38155 0.06276 0.0
C8400 C 0.37101 0.37774 0.05461 0.0
H8401 H 0.3611 0.38123 0.07426 0.0
H8402 H 0.37325 0.38659 0.06547 0.0
C8403 C 0.36534 0.37131 0.05127 0.0
C8404 C 0.39266 0.61122 0.81802 0.0
C8405 C 0.39957 0.60588 0.81507 0.0
H8406 H 0.38465 0.62245 0.81558 0.0
C8407 C 0.40294 0.60731 0.80661 0.0
H8408 H 0.38992 0.61038 0.8245 0.0
C8409 C 0.39996 0.61433 0.80152 0.0
C8410 C 0.39355 0.62007 0.80478 0.0
H8411 H 0.40815 0.60323 0.80406 0.0
H8412 H 0.40309 0.61559 0.79527 0.0
C8413 C 0.38968 0.61821 0.81293 0.0
C8414 C 0.16484 0.65156 0.55672 0.0
C8415 C 0.16626 0.6483 0.56523 0.0
H8416 H 0.15649 0.65167 0.54542 0.0
C8417 C 0.1608 0.64155 0.56831 0.0
H8418 H 0.16901 0.65665 0.55408 0.0
C8419 C 0.15372 0.63863 0.5633 0.0
C8420 C 0.15188 0.64239 0.5551 0.0
H8421 H 0.16162 0.6389 0.57483 0.0
H8422 H 0.1494 0.63372 0.56605 0.0
C8423 C 0.15773 0.64863 0.55171 0.0
C8424 C 0.11875 0.60867 0.21248 0.0
C8425 C 0.1238 0.60646 0.20507 0.0
H8426 H 0.11707 0.61745 0.22334 0.0
C8427 C 0.13185 0.61078 0.20378 0.0
H8428 H 0.11248 0.60557 0.21366 0.0
C8429 C 0.13438 0.61765 0.20925 0.0
C8430 C 0.12902 0.62026 0.21625 0.0
H8431 H 0.13602 0.60912 0.19828 0.0
H8432 H 0.14033 0.62123 0.20777 0.0
C8433 C 0.12136 0.61549 0.21803 0.0
C8434 C 0.16476 0.3688 0.96441 0.0
C8435 C 0.16619 0.37215 0.95594 0.0
H8436 H 0.15646 0.36867 0.97576 0.0
C8437 C 0.16082 0.37903 0.95298 0.0
H8438 H 0.16886 0.36361 0.96697 0.0
C8439 C 0.15381 0.38199 0.95807 0.0
C8440 C 0.15195 0.37815 0.96622 0.0
H8441 H 0.16165 0.38175 0.94649 0.0
H8442 H 0.14954 0.387 0.95541 0.0
C8443 C 0.15772 0.37177 0.9695 0.0
C8444 C 0.39248 0.40945 0.70312 0.0
C8445 C 0.39926 0.41493 0.7061 0.0
H8446 H 0.38464 0.3981 0.70554 0.0
C8447 C 0.40258 0.41359 0.71461 0.0
H8448 H 0.38978 0.41022 0.69662 0.0
C8449 C 0.3997 0.40653 0.7197 0.0
C8450 C 0.39341 0.40066 0.7164 0.0
H8451 H 0.4077 0.41777 0.71718 0.0
H8452 H 0.40279 0.40535 0.72597 0.0
C8453 C 0.38958 0.40243 0.70822 0.0
C8454 C 0.36169 0.64187 0.45327 0.0
C8455 C 0.35629 0.64868 0.45632 0.0
H8456 H 0.37312 0.63406 0.45551 0.0
C8457 C 0.35774 0.65198 0.46481 0.0
H8458 H 0.36084 0.63919 0.44676 0.0
C8459 C 0.36487 0.64906 0.46981 0.0
C8460 C 0.37069 0.6428 0.46641 0.0
H8461 H 0.35362 0.65712 0.46743 0.0
H8462 H 0.36617 0.65215 0.47606 0.0
C8463 C 0.36879 0.63897 0.45826 0.0
C8464 C 0.31806 0.12737 0.4104 0.0
C8465 C 0.31498 0.12049 0.41568 0.0
H8466 H 0.31589 0.13536 0.3991 0.0
C8467 C 0.30649 0.11721 0.41412 0.0
H8468 H 0.32457 0.13004 0.41134 0.0
C8469 C 0.30152 0.12023 0.40702 0.0
C8470 C 0.30496 0.12659 0.40133 0.0
H8471 H 0.30385 0.112 0.41814 0.0
H8472 H 0.29527 0.11717 0.40563 0.0
C8473 C 0.31311 0.13039 0.40333 0.0
C8474 C 0.81847 0.39262 0.61024 0.0
C8475 C 0.81525 0.39933 0.60482 0.0
H8476 H 0.81648 0.38483 0.6217 0.0
C8477 C 0.80671 0.4025 0.60636 0.0
H8478 H 0.82502 0.39003 0.60933 0.0
C8479 C 0.80183 0.39955 0.61355 0.0
C8480 C 0.80539 0.39338 0.61935 0.0
H8481 H 0.80395 0.40757 0.60223 0.0
H8482 H 0.79553 0.40254 0.61489 0.0
C8483 C 0.8136 0.38967 0.6174 0.0
C8484 C 0.38358 0.06822 0.36224 0.0
C8485 C 0.37601 0.06688 0.35714 0.0
H8486 H 0.39135 0.06388 0.3731 0.0
C8487 C 0.37115 0.05915 0.35843 0.0
H8488 H 0.38761 0.07398 0.3613 0.0
C8489 C 0.37342 0.05327 0.3651 0.0
C8490 C 0.38054 0.05505 0.37065 0.0
H8491 H 0.36524 0.05791 0.35471 0.0
H8492 H 0.36921 0.04769 0.36632 0.0
C8493 C 0.38578 0.06241 0.36895 0.0
C8494 C 0.70383 0.62826 0.11024 0.0
C8495 C 0.70697 0.62153 0.1048 0.0
H8496 H 0.70594 0.63603 0.1217 0.0
C8497 C 0.7155 0.6183 0.10628 0.0
H8498 H 0.69729 0.63089 0.10937 0.0
C8499 C 0.72045 0.62122 0.11345 0.0
C8500 C 0.71695 0.62742 0.11928 0.0
H8501 H 0.7182 0.61322 0.10214 0.0
H8502 H 0.72673 0.61819 0.11475 0.0
C8503 C 0.70876 0.63117 0.11737 0.0
C8504 C 0.64358 0.45281 0.361 0.0
C8505 C 0.65041 0.45604 0.35573 0.0
H8506 H 0.63551 0.45479 0.37229 0.0
C8507 C 0.65362 0.46452 0.3574 0.0
H8508 H 0.64097 0.4463 0.35999 0.0
C8509 C 0.65053 0.46937 0.36455 0.0
C8510 C 0.64417 0.46583 0.37019 0.0
H8511 H 0.65878 0.46728 0.35339 0.0
H8512 H 0.6535 0.47565 0.36597 0.0
C8513 C 0.64049 0.45765 0.36812 0.0
C8514 C 0.21615 0.90254 0.91425 0.0
C8515 C 0.20762 0.89937 0.91583 0.0
H8516 H 0.22732 0.90251 0.9057 0.0
C8517 C 0.20439 0.89261 0.91048 0.0
H8518 H 0.21891 0.90764 0.91833 0.0
C8519 C 0.20925 0.88961 0.90333 0.0
C8520 C 0.21745 0.89331 0.90132 0.0
H8521 H 0.19785 0.89003 0.91142 0.0
H8522 H 0.20637 0.88473 0.89906 0.0
C8523 C 0.22102 0.89953 0.90707 0.0
C8524 C 0.3698 0.96454 0.16357 0.0
C8525 C 0.37318 0.95607 0.16495 0.0
H8526 H 0.36961 0.9759 0.15533 0.0
C8527 C 0.38006 0.95315 0.15956 0.0
H8528 H 0.3646 0.96707 0.16768 0.0
C8529 C 0.383 0.95826 0.15257 0.0
C8530 C 0.37913 0.96641 0.15076 0.0
H8531 H 0.3828 0.94667 0.16036 0.0
H8532 H 0.38802 0.95563 0.14829 0.0
C8533 C 0.37274 0.96966 0.15654 0.0
C8534 C 0.15222 0.05855 0.66241 0.0
C8535 C 0.1472 0.06608 0.66422 0.0
H8536 H 0.1541 0.04744 0.65401 0.0
C8537 C 0.13932 0.06733 0.65958 0.0
H8538 H 0.15836 0.05738 0.66578 0.0
C8539 C 0.13697 0.06169 0.65277 0.0
C8540 C 0.14235 0.05457 0.65055 0.0
H8541 H 0.13517 0.07292 0.66092 0.0
H8542 H 0.13117 0.06313 0.64894 0.0
C8543 C 0.1498 0.05283 0.65565 0.0
loop_
_geom_bond_atom_site_label_1
_geom_bond_atom_site_label_2
_geom_bond_distance
_geom_bond_site_symmetry_2
_ccdc_geom_bond_type
C0 C1 1.264 . S
C0 C5 1.479 . S
C0 C10 1.465 . S
C1 C0 1.264 . S
C1 C3 1.339 . S
C1 H28 0.931 . S
C2 C3 1.395 . S
C2 C4 1.320 . S
C3 C1 1.339 . S
C3 C2 1.395 . S
C3 H29 0.929 . S
C4 C2 1.320 . S
C4 C5 1.405 . S
C4 H30 0.930 . S
C5 C0 1.479 . S
C5 C4 1.405 . S
C5 H31 0.931 . S
U6 O7 2.454 . S
U6 O8 2.458 . S
U6 C9 2.984 . S
U6 C10 2.847 . S
U6 C23 2.882 . S
U6 O24 2.441 . S
U6 O25 2.420 . S
U6 O26 2.455 . S
U6 O27 2.449 . S
O7 U6 2.454 . S
O7 C9 1.353 . S
O8 U6 2.458 . S
O8 C9 1.286 . S
C9 U6 2.984 . S
C9 O7 1.353 . S
C9 O8 1.286 . S
C9 C11 1.363 . S
C10 C0 1.465 . S
C10 U6 2.847 . S
C10 O24 1.249 . S
C10 O25 1.202 . S
C11 C9 1.363 . S
C11 C13 1.408 . S
C11 C16 1.342 . S
C12 C13 1.310 . S
C12 C15 1.461 . S
C12 H32 0.932 . S
C13 C11 1.408 . S
C13 C12 1.310 . S
C13 H33 0.930 . S
C14 C15 1.474 . S
C14 C16 1.285 . S
C14 H34 0.929 . S
C15 C12 1.461 . S
C15 C14 1.474 . S
C16 C11 1.342 . S
C16 C14 1.285 . S
C16 H35 0.930 . S
C17 C20 1.424 . S
C17 C22 1.245 . S
C17 C23 1.428 . S
C18 C21 1.260 . S
C18 C22 1.477 . S
C18 H36 0.932 . S
C19 C20 1.384 . S
C19 C21 1.479 . S
C19 H37 0.929 . S
C20 C17 1.424 . S
C20 C19 1.384 . S
C20 H38 0.928 . S
C21 C18 1.260 . S
C21 C19 1.479 . S
C22 C17 1.245 . S
C22 C18 1.477 . S
C22 H39 0.932 . S
C23 U6 2.882 . S
C23 C17 1.428 . S
C23 O26 1.301 . S
C23 O27 1.282 . S
O24 U6 2.441 . S
O24 C10 1.249 . S
O25 U6 2.420 . S
O25 C10 1.202 . S
O26 U6 2.455 . S
O26 C23 1.301 . S
O27 U6 2.449 . S
O27 C23 1.282 . S
H28 C1 0.931 . S
H29 C3 0.929 . S
H30 C4 0.930 . S
H31 C5 0.931 . S
H32 C12 0.932 . S
H33 C13 0.930 . S
H34 C14 0.929 . S
H35 C16 0.930 . S
H36 C18 0.932 . S
H37 C19 0.929 . S
H38 C20 0.928 . S
H39 C22 0.932 . S
C40 C41 1.264 . S
C40 C45 1.479 . S
C40 C50 1.465 . S
C41 C40 1.264 . S
C41 C43 1.339 . S
C41 H68 0.931 . S
C42 C43 1.395 . S
C42 C44 1.320 . S
C43 C41 1.339 . S
C43 C42 1.395 . S
C43 H69 0.929 . S
C44 C42 1.320 . S
C44 C45 1.405 . S
C44 H70 0.930 . S
C45 C40 1.479 . S
C45 C44 1.405 . S
C45 H71 0.931 . S
U46 O47 2.454 . S
U46 O48 2.458 . S
U46 C49 2.984 . S
U46 C50 2.847 . S
U46 C63 2.882 . S
U46 O64 2.441 . S
U46 O65 2.420 . S
U46 O66 2.455 . S
U46 O67 2.449 . S
O47 U46 2.454 . S
O47 C49 1.353 . S
O48 U46 2.458 . S
O48 C49 1.286 . S
C49 U46 2.984 . S
C49 O47 1.353 . S
C49 O48 1.286 . S
C49 C51 1.363 . S
C50 C40 1.465 . S
C50 U46 2.847 . S
C50 O64 1.249 . S
C50 O65 1.202 . S
C51 C49 1.363 . S
C51 C53 1.408 . S
C51 C56 1.342 . S
C52 C53 1.310 . S
C52 C55 1.461 . S
C52 H72 0.932 . S
C53 C51 1.408 . S
C53 C52 1.310 . S
C53 H73 0.930 . S
C54 C55 1.474 . S
C54 C56 1.285 . S
C54 H74 0.929 . S
C55 C52 1.461 . S
C55 C54 1.474 . S
C56 C51 1.342 . S
C56 C54 1.285 . S
C56 H75 0.930 . S
C57 C60 1.424 . S
C57 C62 1.245 . S
C57 C63 1.428 . S
C58 C61 1.260 . S
C58 C62 1.477 . S
C58 H76 0.932 . S
C59 C60 1.384 . S
C59 C61 1.479 . S
C59 H77 0.929 . S
C60 C57 1.424 . S
C60 C59 1.384 . S
C60 H78 0.928 . S
C61 C58 1.260 . S
C61 C59 1.479 . S
C62 C57 1.245 . S
C62 C58 1.477 . S
C62 H79 0.932 . S
C63 U46 2.882 . S
C63 C57 1.428 . S
C63 O66 1.301 . S
C63 O67 1.282 . S
O64 U46 2.441 . S
O64 C50 1.249 . S
O65 U46 2.420 . S
O65 C50 1.202 . S
O66 U46 2.455 . S
O66 C63 1.301 . S
O67 U46 2.449 . S
O67 C63 1.282 . S
H68 C41 0.931 . S
H69 C43 0.929 . S
H70 C44 0.930 . S
H71 C45 0.931 . S
H72 C52 0.932 . S
H73 C53 0.930 . S
H74 C54 0.929 . S
H75 C56 0.930 . S
H76 C58 0.932 . S
H77 C59 0.929 . S
H78 C60 0.928 . S
H79 C62 0.932 . S
C80 C81 1.264 . S
C80 C85 1.479 . S
C80 C90 1.465 . S
C81 C80 1.264 . S
C81 C83 1.339 . S
C81 H108 0.931 . S
C82 C83 1.395 . S
C82 C84 1.320 . S
C83 C81 1.339 . S
C83 C82 1.395 . S
C83 H109 0.929 . S
C84 C82 1.320 . S
C84 C85 1.405 . S
C84 H110 0.930 . S
C85 C80 1.479 . S
C85 C84 1.405 . S
C85 H111 0.931 . S
U86 O87 2.454 . S
U86 O88 2.458 . S
U86 C89 2.984 . S
U86 C90 2.847 . S
U86 C103 2.882 . S
U86 O104 2.441 . S
U86 O105 2.420 . S
U86 O106 2.455 . S
U86 O107 2.449 . S
O87 U86 2.454 . S
O87 C89 1.353 . S
O88 U86 2.458 . S
O88 C89 1.286 . S
C89 U86 2.984 . S
C89 O87 1.353 . S
C89 O88 1.286 . S
C89 C91 1.363 . S
C90 C80 1.465 . S
C90 U86 2.847 . S
C90 O104 1.249 . S
C90 O105 1.202 . S
C91 C89 1.363 . S
C91 C93 1.408 . S
C91 C96 1.342 . S
C92 C93 1.310 . S
C92 C95 1.461 . S
C92 H112 0.932 . S
C93 C91 1.408 . S
C93 C92 1.310 . S
C93 H113 0.930 . S
C94 C95 1.474 . S
C94 C96 1.285 . S
C94 H114 0.929 . S
C95 C92 1.461 . S
C95 C94 1.474 . S
C96 C91 1.342 . S
C96 C94 1.285 . S
C96 H115 0.930 . S
C97 C100 1.424 . S
C97 C102 1.245 . S
C97 C103 1.428 . S
C98 C101 1.260 . S
C98 C102 1.477 . S
C98 H116 0.932 . S
C99 C100 1.384 . S
C99 C101 1.479 . S
C99 H117 0.929 . S
C100 C97 1.424 . S
C100 C99 1.384 . S
C100 H118 0.928 . S
C101 C98 1.260 . S
C101 C99 1.479 . S
C102 C97 1.245 . S
C102 C98 1.477 . S
C102 H119 0.932 . S
C103 U86 2.882 . S
C103 C97 1.428 . S
C103 O106 1.301 . S
C103 O107 1.282 . S
O104 U86 2.441 . S
O104 C90 1.249 . S
O105 U86 2.420 . S
O105 C90 1.202 . S
O106 U86 2.455 . S
O106 C103 1.301 . S
O107 U86 2.449 . S
O107 C103 1.282 . S
H108 C81 0.931 . S
H109 C83 0.929 . S
H110 C84 0.930 . S
H111 C85 0.931 . S
H112 C92 0.932 . S
H113 C93 0.930 . S
H114 C94 0.929 . S
H115 C96 0.930 . S
H116 C98 0.932 . S
H117 C99 0.929 . S
H118 C100 0.928 . S
H119 C102 0.932 . S
C120 C121 1.264 . S
C120 C125 1.479 . S
C120 C130 1.465 . S
C121 C120 1.264 . S
C121 C123 1.339 . S
C121 H148 0.931 . S
C122 C123 1.395 . S
C122 C124 1.320 . S
C123 C121 1.339 . S
C123 C122 1.395 . S
C123 H149 0.929 . S
C124 C122 1.320 . S
C124 C125 1.405 . S
C124 H150 0.930 . S
C125 C120 1.479 . S
C125 C124 1.405 . S
C125 H151 0.931 . S
U126 O127 2.454 . S
U126 O128 2.458 . S
U126 C129 2.984 . S
U126 C130 2.847 . S
U126 C143 2.882 . S
U126 O144 2.441 . S
U126 O145 2.420 . S
U126 O146 2.455 . S
U126 O147 2.449 . S
O127 U126 2.454 . S
O127 C129 1.353 . S
O128 U126 2.458 . S
O128 C129 1.286 . S
C129 U126 2.984 . S
C129 O127 1.353 . S
C129 O128 1.286 . S
C129 C131 1.363 . S
C130 C120 1.465 . S
C130 U126 2.847 . S
C130 O144 1.249 . S
C130 O145 1.202 . S
C131 C129 1.363 . S
C131 C133 1.408 . S
C131 C136 1.342 . S
C132 C133 1.310 . S
C132 C135 1.461 . S
C132 H152 0.932 . S
C133 C131 1.408 . S
C133 C132 1.310 . S
C133 H153 0.930 . S
C134 C135 1.474 . S
C134 C136 1.285 . S
C134 H154 0.929 . S
C135 C132 1.461 . S
C135 C134 1.474 . S
C136 C131 1.342 . S
C136 C134 1.285 . S
C136 H155 0.930 . S
C137 C140 1.424 . S
C137 C142 1.245 . S
C137 C143 1.428 . S
C138 C141 1.260 . S
C138 C142 1.477 . S
C138 H156 0.932 . S
C139 C140 1.384 . S
C139 C141 1.479 . S
C139 H157 0.929 . S
C140 C137 1.424 . S
C140 C139 1.384 . S
C140 H158 0.928 . S
C141 C138 1.260 . S
C141 C139 1.479 . S
C142 C137 1.245 . S
C142 C138 1.477 . S
C142 H159 0.932 . S
C143 U126 2.882 . S
C143 C137 1.428 . S
C143 O146 1.301 . S
C143 O147 1.282 . S
O144 U126 2.441 . S
O144 C130 1.249 . S
O145 U126 2.420 . S
O145 C130 1.202 . S
O146 U126 2.455 . S
O146 C143 1.301 . S
O147 U126 2.449 . S
O147 C143 1.282 . S
H148 C121 0.931 . S
H149 C123 0.929 . S
H150 C124 0.930 . S
H151 C125 0.931 . S
H152 C132 0.932 . S
H153 C133 0.930 . S
H154 C134 0.929 . S
H155 C136 0.930 . S
H156 C138 0.932 . S
H157 C139 0.929 . S
H158 C140 0.928 . S
H159 C142 0.932 . S
C160 C161 1.264 . S
C160 C165 1.479 . S
C160 C170 1.465 . S
C161 C160 1.264 . S
C161 C163 1.339 . S
C161 H188 0.931 . S
C162 C163 1.395 . S
C162 C164 1.320 . S
C163 C161 1.339 . S
C163 C162 1.395 . S
C163 H189 0.929 . S
C164 C162 1.320 . S
C164 C165 1.405 . S
C164 H190 0.930 . S
C165 C160 1.479 . S
C165 C164 1.405 . S
C165 H191 0.931 . S
U166 O167 2.454 . S
U166 O168 2.458 . S
U166 C169 2.984 . S
U166 C170 2.847 . S
U166 C183 2.882 . S
U166 O184 2.441 . S
U166 O185 2.420 . S
U166 O186 2.455 . S
U166 O187 2.449 . S
O167 U166 2.454 . S
O167 C169 1.353 . S
O168 U166 2.458 . S
O168 C169 1.286 . S
C169 U166 2.984 . S
C169 O167 1.353 . S
C169 O168 1.286 . S
C169 C171 1.363 . S
C170 C160 1.465 . S
C170 U166 2.847 . S
C170 O184 1.249 . S
C170 O185 1.202 . S
C171 C169 1.363 . S
C171 C173 1.408 . S
C171 C176 1.342 . S
C172 C173 1.310 . S
C172 C175 1.461 . S
C172 H192 0.932 . S
C173 C171 1.408 . S
C173 C172 1.310 . S
C173 H193 0.930 . S
C174 C175 1.474 . S
C174 C176 1.285 . S
C174 H194 0.929 . S
C175 C172 1.461 . S
C175 C174 1.474 . S
C176 C171 1.342 . S
C176 C174 1.285 . S
C176 H195 0.930 . S
C177 C180 1.424 . S
C177 C182 1.245 . S
C177 C183 1.428 . S
C178 C181 1.260 . S
C178 C182 1.477 . S
C178 H196 0.932 . S
C179 C180 1.384 . S
C179 C181 1.479 . S
C179 H197 0.929 . S
C180 C177 1.424 . S
C180 C179 1.384 . S
C180 H198 0.928 . S
C181 C178 1.260 . S
C181 C179 1.479 . S
C182 C177 1.245 . S
C182 C178 1.477 . S
C182 H199 0.932 . S
C183 U166 2.882 . S
C183 C177 1.428 . S
C183 O186 1.301 . S
C183 O187 1.282 . S
O184 U166 2.441 . S
O184 C170 1.249 . S
O185 U166 2.420 . S
O185 C170 1.202 . S
O186 U166 2.455 . S
O186 C183 1.301 . S
O187 U166 2.449 . S
O187 C183 1.282 . S
H188 C161 0.931 . S
H189 C163 0.929 . S
H190 C164 0.930 . S
H191 C165 0.931 . S
H192 C172 0.932 . S
H193 C173 0.930 . S
H194 C174 0.929 . S
H195 C176 0.930 . S
H196 C178 0.932 . S
H197 C179 0.929 . S
H198 C180 0.928 . S
H199 C182 0.932 . S
C200 C201 1.264 . S
C200 C205 1.479 . S
C200 C210 1.465 . S
C201 C200 1.264 . S
C201 C203 1.339 . S
C201 H228 0.931 . S
C202 C203 1.395 . S
C202 C204 1.320 . S
C203 C201 1.339 . S
C203 C202 1.395 . S
C203 H229 0.929 . S
C204 C202 1.320 . S
C204 C205 1.405 . S
C204 H230 0.930 . S
C205 C200 1.479 . S
C205 C204 1.405 . S
C205 H231 0.931 . S
U206 O207 2.454 . S
U206 O208 2.458 . S
U206 C209 2.984 . S
U206 C210 2.847 . S
U206 C223 2.882 . S
U206 O224 2.441 . S
U206 O225 2.420 . S
U206 O226 2.455 . S
U206 O227 2.449 . S
O207 U206 2.454 . S
O207 C209 1.353 . S
O208 U206 2.458 . S
O208 C209 1.286 . S
C209 U206 2.984 . S
C209 O207 1.353 . S
C209 O208 1.286 . S
C209 C211 1.363 . S
C210 C200 1.465 . S
C210 U206 2.847 . S
C210 O224 1.249 . S
C210 O225 1.202 . S
C211 C209 1.363 . S
C211 C213 1.408 . S
C211 C216 1.342 . S
C212 C213 1.310 . S
C212 C215 1.461 . S
C212 H232 0.932 . S
C213 C211 1.408 . S
C213 C212 1.310 . S
C213 H233 0.930 . S
C214 C215 1.474 . S
C214 C216 1.285 . S
C214 H234 0.929 . S
C215 C212 1.461 . S
C215 C214 1.474 . S
C216 C211 1.342 . S
C216 C214 1.285 . S
C216 H235 0.930 . S
C217 C220 1.424 . S
C217 C222 1.245 . S
C217 C223 1.428 . S
C218 C221 1.260 . S
C218 C222 1.477 . S
C218 H236 0.932 . S
C219 C220 1.384 . S
C219 C221 1.479 . S
C219 H237 0.929 . S
C220 C217 1.424 . S
C220 C219 1.384 . S
C220 H238 0.928 . S
C221 C218 1.260 . S
C221 C219 1.479 . S
C222 C217 1.245 . S
C222 C218 1.477 . S
C222 H239 0.932 . S
C223 U206 2.882 . S
C223 C217 1.428 . S
C223 O226 1.301 . S
C223 O227 1.282 . S
O224 U206 2.441 . S
O224 C210 1.249 . S
O225 U206 2.420 . S
O225 C210 1.202 . S
O226 U206 2.455 . S
O226 C223 1.301 . S
O227 U206 2.449 . S
O227 C223 1.282 . S
H228 C201 0.931 . S
H229 C203 0.929 . S
H230 C204 0.930 . S
H231 C205 0.931 . S
H232 C212 0.932 . S
H233 C213 0.930 . S
H234 C214 0.929 . S
H235 C216 0.930 . S
H236 C218 0.932 . S
H237 C219 0.929 . S
H238 C220 0.928 . S
H239 C222 0.932 . S
C240 C241 1.264 . S
C240 C245 1.479 . S
C240 C250 1.465 . S
C241 C240 1.264 . S
C241 C243 1.339 . S
C241 H268 0.931 . S
C242 C243 1.395 . S
C242 C244 1.320 . S
C243 C241 1.339 . S
C243 C242 1.395 . S
C243 H269 0.929 . S
C244 C242 1.320 . S
C244 C245 1.405 . S
C244 H270 0.930 . S
C245 C240 1.479 . S
C245 C244 1.405 . S
C245 H271 0.931 . S
U246 O247 2.454 . S
U246 O248 2.458 . S
U246 C249 2.984 . S
U246 C250 2.847 . S
U246 C263 2.882 . S
U246 O264 2.441 . S
U246 O265 2.420 . S
U246 O266 2.455 . S
U246 O267 2.449 . S
O247 U246 2.454 . S
O247 C249 1.353 . S
O248 U246 2.458 . S
O248 C249 1.286 . S
C249 U246 2.984 . S
C249 O247 1.353 . S
C249 O248 1.286 . S
C249 C251 1.363 . S
C250 C240 1.465 . S
C250 U246 2.847 . S
C250 O264 1.249 . S
C250 O265 1.202 . S
C251 C249 1.363 . S
C251 C253 1.408 . S
C251 C256 1.342 . S
C252 C253 1.310 . S
C252 C255 1.461 . S
C252 H272 0.932 . S
C253 C251 1.408 . S
C253 C252 1.310 . S
C253 H273 0.930 . S
C254 C255 1.474 . S
C254 C256 1.285 . S
C254 H274 0.929 . S
C255 C252 1.461 . S
C255 C254 1.474 . S
C256 C251 1.342 . S
C256 C254 1.285 . S
C256 H275 0.930 . S
C257 C260 1.424 . S
C257 C262 1.245 . S
C257 C263 1.428 . S
C258 C261 1.260 . S
C258 C262 1.477 . S
C258 H276 0.932 . S
C259 C260 1.384 . S
C259 C261 1.479 . S
C259 H277 0.929 . S
C260 C257 1.424 . S
C260 C259 1.384 . S
C260 H278 0.928 . S
C261 C258 1.260 . S
C261 C259 1.479 . S
C262 C257 1.245 . S
C262 C258 1.477 . S
C262 H279 0.932 . S
C263 U246 2.882 . S
C263 C257 1.428 . S
C263 O266 1.301 . S
C263 O267 1.282 . S
O264 U246 2.441 . S
O264 C250 1.249 . S
O265 U246 2.420 . S
O265 C250 1.202 . S
O266 U246 2.455 . S
O266 C263 1.301 . S
O267 U246 2.449 . S
O267 C263 1.282 . S
H268 C241 0.931 . S
H269 C243 0.929 . S
H270 C244 0.930 . S
H271 C245 0.931 . S
H272 C252 0.932 . S
H273 C253 0.930 . S
H274 C254 0.929 . S
H275 C256 0.930 . S
H276 C258 0.932 . S
H277 C259 0.929 . S
H278 C260 0.928 . S
H279 C262 0.932 . S
C280 C281 1.264 . S
C280 C285 1.479 . S
C280 C290 1.465 . S
C281 C280 1.264 . S
C281 C283 1.339 . S
C281 H308 0.931 . S
C282 C283 1.395 . S
C282 C284 1.320 . S
C283 C281 1.339 . S
C283 C282 1.395 . S
C283 H309 0.929 . S
C284 C282 1.320 . S
C284 C285 1.405 . S
C284 H310 0.930 . S
C285 C280 1.479 . S
C285 C284 1.405 . S
C285 H311 0.931 . S
U286 O287 2.454 . S
U286 O288 2.458 . S
U286 C289 2.984 . S
U286 C290 2.847 . S
U286 C303 2.882 . S
U286 O304 2.441 . S
U286 O305 2.420 . S
U286 O306 2.455 . S
U286 O307 2.449 . S
O287 U286 2.454 . S
O287 C289 1.353 . S
O288 U286 2.458 . S
O288 C289 1.286 . S
C289 U286 2.984 . S
C289 O287 1.353 . S
C289 O288 1.286 . S
C289 C291 1.363 . S
C290 C280 1.465 . S
C290 U286 2.847 . S
C290 O304 1.249 . S
C290 O305 1.202 . S
C291 C289 1.363 . S
C291 C293 1.408 . S
C291 C296 1.342 . S
C292 C293 1.310 . S
C292 C295 1.461 . S
C292 H312 0.932 . S
C293 C291 1.408 . S
C293 C292 1.310 . S
C293 H313 0.930 . S
C294 C295 1.474 . S
C294 C296 1.285 . S
C294 H314 0.929 . S
C295 C292 1.461 . S
C295 C294 1.474 . S
C296 C291 1.342 . S
C296 C294 1.285 . S
C296 H315 0.930 . S
C297 C300 1.424 . S
C297 C302 1.245 . S
C297 C303 1.428 . S
C298 C301 1.260 . S
C298 C302 1.477 . S
C298 H316 0.932 . S
C299 C300 1.384 . S
C299 C301 1.479 . S
C299 H317 0.929 . S
C300 C297 1.424 . S
C300 C299 1.384 . S
C300 H318 0.928 . S
C301 C298 1.260 . S
C301 C299 1.479 . S
C302 C297 1.245 . S
C302 C298 1.477 . S
C302 H319 0.932 . S
C303 U286 2.882 . S
C303 C297 1.428 . S
C303 O306 1.301 . S
C303 O307 1.282 . S
O304 U286 2.441 . S
O304 C290 1.249 . S
O305 U286 2.420 . S
O305 C290 1.202 . S
O306 U286 2.455 . S
O306 C303 1.301 . S
O307 U286 2.449 . S
O307 C303 1.282 . S
H308 C281 0.931 . S
H309 C283 0.929 . S
H310 C284 0.930 . S
H311 C285 0.931 . S
H312 C292 0.932 . S
H313 C293 0.930 . S
H314 C294 0.929 . S
H315 C296 0.930 . S
H316 C298 0.932 . S
H317 C299 0.929 . S
H318 C300 0.928 . S
H319 C302 0.932 . S
C320 C321 1.264 . S
C320 C325 1.479 . S
C320 C330 1.465 . S
C321 C320 1.264 . S
C321 C323 1.339 . S
C321 H348 0.931 . S
C322 C323 1.395 . S
C322 C324 1.320 . S
C323 C321 1.339 . S
C323 C322 1.395 . S
C323 H349 0.929 . S
C324 C322 1.320 . S
C324 C325 1.405 . S
C324 H350 0.930 . S
C325 C320 1.479 . S
C325 C324 1.405 . S
C325 H351 0.931 . S
U326 O327 2.454 . S
U326 O328 2.458 . S
U326 C329 2.984 . S
U326 C330 2.847 . S
U326 C343 2.882 . S
U326 O344 2.441 . S
U326 O345 2.420 . S
U326 O346 2.455 . S
U326 O347 2.449 . S
O327 U326 2.454 . S
O327 C329 1.353 . S
O328 U326 2.458 . S
O328 C329 1.286 . S
C329 U326 2.984 . S
C329 O327 1.353 . S
C329 O328 1.286 . S
C329 C331 1.363 . S
C330 C320 1.465 . S
C330 U326 2.847 . S
C330 O344 1.249 . S
C330 O345 1.202 . S
C331 C329 1.363 . S
C331 C333 1.408 . S
C331 C336 1.342 . S
C332 C333 1.310 . S
C332 C335 1.461 . S
C332 H352 0.932 . S
C333 C331 1.408 . S
C333 C332 1.310 . S
C333 H353 0.930 . S
C334 C335 1.474 . S
C334 C336 1.285 . S
C334 H354 0.929 . S
C335 C332 1.461 . S
C335 C334 1.474 . S
C336 C331 1.342 . S
C336 C334 1.285 . S
C336 H355 0.930 . S
C337 C340 1.424 . S
C337 C342 1.245 . S
C337 C343 1.428 . S
C338 C341 1.260 . S
C338 C342 1.477 . S
C338 H356 0.932 . S
C339 C340 1.384 . S
C339 C341 1.479 . S
C339 H357 0.929 . S
C340 C337 1.424 . S
C340 C339 1.384 . S
C340 H358 0.928 . S
C341 C338 1.260 . S
C341 C339 1.479 . S
C342 C337 1.245 . S
C342 C338 1.477 . S
C342 H359 0.932 . S
C343 U326 2.882 . S
C343 C337 1.428 . S
C343 O346 1.301 . S
C343 O347 1.282 . S
O344 U326 2.441 . S
O344 C330 1.249 . S
O345 U326 2.420 . S
O345 C330 1.202 . S
O346 U326 2.455 . S
O346 C343 1.301 . S
O347 U326 2.449 . S
O347 C343 1.282 . S
H348 C321 0.931 . S
H349 C323 0.929 . S
H350 C324 0.930 . S
H351 C325 0.931 . S
H352 C332 0.932 . S
H353 C333 0.930 . S
H354 C334 0.929 . S
H355 C336 0.930 . S
H356 C338 0.932 . S
H357 C339 0.929 . S
H358 C340 0.928 . S
H359 C342 0.932 . S
C360 C361 1.264 . S
C360 C365 1.479 . S
C360 C370 1.465 . S
C361 C360 1.264 . S
C361 C363 1.339 . S
C361 H388 0.931 . S
C362 C363 1.395 . S
C362 C364 1.320 . S
C363 C361 1.339 . S
C363 C362 1.395 . S
C363 H389 0.929 . S
C364 C362 1.320 . S
C364 C365 1.405 . S
C364 H390 0.930 . S
C365 C360 1.479 . S
C365 C364 1.405 . S
C365 H391 0.931 . S
U366 O367 2.454 . S
U366 O368 2.458 . S
U366 C369 2.984 . S
U366 C370 2.847 . S
U366 C383 2.882 . S
U366 O384 2.441 . S
U366 O385 2.420 . S
U366 O386 2.455 . S
U366 O387 2.449 . S
O367 U366 2.454 . S
O367 C369 1.353 . S
O368 U366 2.458 . S
O368 C369 1.286 . S
C369 U366 2.984 . S
C369 O367 1.353 . S
C369 O368 1.286 . S
C369 C371 1.363 . S
C370 C360 1.465 . S
C370 U366 2.847 . S
C370 O384 1.249 . S
C370 O385 1.202 . S
C371 C369 1.363 . S
C371 C373 1.408 . S
C371 C376 1.342 . S
C372 C373 1.310 . S
C372 C375 1.461 . S
C372 H392 0.932 . S
C373 C371 1.408 . S
C373 C372 1.310 . S
C373 H393 0.930 . S
C374 C375 1.474 . S
C374 C376 1.285 . S
C374 H394 0.929 . S
C375 C372 1.461 . S
C375 C374 1.474 . S
C376 C371 1.342 . S
C376 C374 1.285 . S
C376 H395 0.930 . S
C377 C380 1.424 . S
C377 C382 1.245 . S
C377 C383 1.428 . S
C378 C381 1.260 . S
C378 C382 1.477 . S
C378 H396 0.932 . S
C379 C380 1.384 . S
C379 C381 1.479 . S
C379 H397 0.929 . S
C380 C377 1.424 . S
C380 C379 1.384 . S
C380 H398 0.928 . S
C381 C378 1.260 . S
C381 C379 1.479 . S
C382 C377 1.245 . S
C382 C378 1.477 . S
C382 H399 0.932 . S
C383 U366 2.882 . S
C383 C377 1.428 . S
C383 O386 1.301 . S
C383 O387 1.282 . S
O384 U366 2.441 . S
O384 C370 1.249 . S
O385 U366 2.420 . S
O385 C370 1.202 . S
O386 U366 2.455 . S
O386 C383 1.301 . S
O387 U366 2.449 . S
O387 C383 1.282 . S
H388 C361 0.931 . S
H389 C363 0.929 . S
H390 C364 0.930 . S
H391 C365 0.931 . S
H392 C372 0.932 . S
H393 C373 0.930 . S
H394 C374 0.929 . S
H395 C376 0.930 . S
H396 C378 0.932 . S
H397 C379 0.929 . S
H398 C380 0.928 . S
H399 C382 0.932 . S
C400 C401 1.264 . S
C400 C405 1.479 . S
C400 C410 1.465 . S
C401 C400 1.264 . S
C401 C403 1.339 . S
C401 H428 0.931 . S
C402 C403 1.395 . S
C402 C404 1.320 . S
C403 C401 1.339 . S
C403 C402 1.395 . S
C403 H429 0.929 . S
C404 C402 1.320 . S
C404 C405 1.405 . S
C404 H430 0.930 . S
C405 C400 1.479 . S
C405 C404 1.405 . S
C405 H431 0.931 . S
U406 O407 2.454 . S
U406 O408 2.458 . S
U406 C409 2.984 . S
U406 C410 2.847 . S
U406 C423 2.882 . S
U406 O424 2.441 . S
U406 O425 2.420 . S
U406 O426 2.455 . S
U406 O427 2.449 . S
O407 U406 2.454 . S
O407 C409 1.353 . S
O408 U406 2.458 . S
O408 C409 1.286 . S
C409 U406 2.984 . S
C409 O407 1.353 . S
C409 O408 1.286 . S
C409 C411 1.363 . S
C410 C400 1.465 . S
C410 U406 2.847 . S
C410 O424 1.249 . S
C410 O425 1.202 . S
C411 C409 1.363 . S
C411 C413 1.408 . S
C411 C416 1.342 . S
C412 C413 1.310 . S
C412 C415 1.461 . S
C412 H432 0.932 . S
C413 C411 1.408 . S
C413 C412 1.310 . S
C413 H433 0.930 . S
C414 C415 1.474 . S
C414 C416 1.285 . S
C414 H434 0.929 . S
C415 C412 1.461 . S
C415 C414 1.474 . S
C416 C411 1.342 . S
C416 C414 1.285 . S
C416 H435 0.930 . S
C417 C420 1.424 . S
C417 C422 1.245 . S
C417 C423 1.428 . S
C418 C421 1.260 . S
C418 C422 1.477 . S
C418 H436 0.932 . S
C419 C420 1.384 . S
C419 C421 1.479 . S
C419 H437 0.929 . S
C420 C417 1.424 . S
C420 C419 1.384 . S
C420 H438 0.928 . S
C421 C418 1.260 . S
C421 C419 1.479 . S
C422 C417 1.245 . S
C422 C418 1.477 . S
C422 H439 0.932 . S
C423 U406 2.882 . S
C423 C417 1.428 . S
C423 O426 1.301 . S
C423 O427 1.282 . S
O424 U406 2.441 . S
O424 C410 1.249 . S
O425 U406 2.420 . S
O425 C410 1.202 . S
O426 U406 2.455 . S
O426 C423 1.301 . S
O427 U406 2.449 . S
O427 C423 1.282 . S
H428 C401 0.931 . S
H429 C403 0.929 . S
H430 C404 0.930 . S
H431 C405 0.931 . S
H432 C412 0.932 . S
H433 C413 0.930 . S
H434 C414 0.929 . S
H435 C416 0.930 . S
H436 C418 0.932 . S
H437 C419 0.929 . S
H438 C420 0.928 . S
H439 C422 0.932 . S
C440 C441 1.264 . S
C440 C445 1.479 . S
C440 C450 1.465 . S
C441 C440 1.264 . S
C441 C443 1.339 . S
C441 H468 0.931 . S
C442 C443 1.395 . S
C442 C444 1.320 . S
C443 C441 1.339 . S
C443 C442 1.395 . S
C443 H469 0.929 . S
C444 C442 1.320 . S
C444 C445 1.405 . S
C444 H470 0.930 . S
C445 C440 1.479 . S
C445 C444 1.405 . S
C445 H471 0.931 . S
U446 O447 2.454 . S
U446 O448 2.458 . S
U446 C449 2.984 . S
U446 C450 2.847 . S
U446 C463 2.882 . S
U446 O464 2.441 . S
U446 O465 2.420 . S
U446 O466 2.455 . S
U446 O467 2.449 . S
O447 U446 2.454 . S
O447 C449 1.353 . S
O448 U446 2.458 . S
O448 C449 1.286 . S
C449 U446 2.984 . S
C449 O447 1.353 . S
C449 O448 1.286 . S
C449 C451 1.363 . S
C450 C440 1.465 . S
C450 U446 2.847 . S
C450 O464 1.249 . S
C450 O465 1.202 . S
C451 C449 1.363 . S
C451 C453 1.408 . S
C451 C456 1.342 . S
C452 C453 1.310 . S
C452 C455 1.461 . S
C452 H472 0.932 . S
C453 C451 1.408 . S
C453 C452 1.310 . S
C453 H473 0.930 . S
C454 C455 1.474 . S
C454 C456 1.285 . S
C454 H474 0.929 . S
C455 C452 1.461 . S
C455 C454 1.474 . S
C456 C451 1.342 . S
C456 C454 1.285 . S
C456 H475 0.930 . S
C457 C460 1.424 . S
C457 C462 1.245 . S
C457 C463 1.428 . S
C458 C461 1.260 . S
C458 C462 1.477 . S
C458 H476 0.932 . S
C459 C460 1.384 . S
C459 C461 1.479 . S
C459 H477 0.929 . S
C460 C457 1.424 . S
C460 C459 1.384 . S
C460 H478 0.928 . S
C461 C458 1.260 . S
C461 C459 1.479 . S
C462 C457 1.245 . S
C462 C458 1.477 . S
C462 H479 0.932 . S
C463 U446 2.882 . S
C463 C457 1.428 . S
C463 O466 1.301 . S
C463 O467 1.282 . S
O464 U446 2.441 . S
O464 C450 1.249 . S
O465 U446 2.420 . S
O465 C450 1.202 . S
O466 U446 2.455 . S
O466 C463 1.301 . S
O467 U446 2.449 . S
O467 C463 1.282 . S
H468 C441 0.931 . S
H469 C443 0.929 . S
H470 C444 0.930 . S
H471 C445 0.931 . S
H472 C452 0.932 . S
H473 C453 0.930 . S
H474 C454 0.929 . S
H475 C456 0.930 . S
H476 C458 0.932 . S
H477 C459 0.929 . S
H478 C460 0.928 . S
H479 C462 0.932 . S
C480 C481 1.264 . S
C480 C485 1.479 . S
C480 C490 1.465 . S
C481 C480 1.264 . S
C481 C483 1.339 . S
C481 H508 0.931 . S
C482 C483 1.395 . S
C482 C484 1.320 . S
C483 C481 1.339 . S
C483 C482 1.395 . S
C483 H509 0.929 . S
C484 C482 1.320 . S
C484 C485 1.405 . S
C484 H510 0.930 . S
C485 C480 1.479 . S
C485 C484 1.405 . S
C485 H511 0.931 . S
U486 O487 2.454 . S
U486 O488 2.458 . S
U486 C489 2.984 . S
U486 C490 2.847 . S
U486 C503 2.882 . S
U486 O504 2.441 . S
U486 O505 2.420 . S
U486 O506 2.455 . S
U486 O507 2.449 . S
O487 U486 2.454 . S
O487 C489 1.353 . S
O488 U486 2.458 . S
O488 C489 1.286 . S
C489 U486 2.984 . S
C489 O487 1.353 . S
C489 O488 1.286 . S
C489 C491 1.363 . S
C490 C480 1.465 . S
C490 U486 2.847 . S
C490 O504 1.249 . S
C490 O505 1.202 . S
C491 C489 1.363 . S
C491 C493 1.408 . S
C491 C496 1.342 . S
C492 C493 1.310 . S
C492 C495 1.461 . S
C492 H512 0.932 . S
C493 C491 1.408 . S
C493 C492 1.310 . S
C493 H513 0.930 . S
C494 C495 1.474 . S
C494 C496 1.285 . S
C494 H514 0.929 . S
C495 C492 1.461 . S
C495 C494 1.474 . S
C496 C491 1.342 . S
C496 C494 1.285 . S
C496 H515 0.930 . S
C497 C500 1.424 . S
C497 C502 1.245 . S
C497 C503 1.428 . S
C498 C501 1.260 . S
C498 C502 1.477 . S
C498 H516 0.932 . S
C499 C500 1.384 . S
C499 C501 1.479 . S
C499 H517 0.929 . S
C500 C497 1.424 . S
C500 C499 1.384 . S
C500 H518 0.928 . S
C501 C498 1.260 . S
C501 C499 1.479 . S
C502 C497 1.245 . S
C502 C498 1.477 . S
C502 H519 0.932 . S
C503 U486 2.882 . S
C503 C497 1.428 . S
C503 O506 1.301 . S
C503 O507 1.282 . S
O504 U486 2.441 . S
O504 C490 1.249 . S
O505 U486 2.420 . S
O505 C490 1.202 . S
O506 U486 2.455 . S
O506 C503 1.301 . S
O507 U486 2.449 . S
O507 C503 1.282 . S
H508 C481 0.931 . S
H509 C483 0.929 . S
H510 C484 0.930 . S
H511 C485 0.931 . S
H512 C492 0.932 . S
H513 C493 0.930 . S
H514 C494 0.929 . S
H515 C496 0.930 . S
H516 C498 0.932 . S
H517 C499 0.929 . S
H518 C500 0.928 . S
H519 C502 0.932 . S
C520 C521 1.264 . S
C520 C525 1.479 . S
C520 C530 1.465 . S
C521 C520 1.264 . S
C521 C523 1.339 . S
C521 H548 0.931 . S
C522 C523 1.395 . S
C522 C524 1.320 . S
C523 C521 1.339 . S
C523 C522 1.395 . S
C523 H549 0.929 . S
C524 C522 1.320 . S
C524 C525 1.405 . S
C524 H550 0.930 . S
C525 C520 1.479 . S
C525 C524 1.405 . S
C525 H551 0.931 . S
U526 O527 2.454 . S
U526 O528 2.458 . S
U526 C529 2.984 . S
U526 C530 2.847 . S
U526 C543 2.882 . S
U526 O544 2.441 . S
U526 O545 2.420 . S
U526 O546 2.455 . S
U526 O547 2.449 . S
O527 U526 2.454 . S
O527 C529 1.353 . S
O528 U526 2.458 . S
O528 C529 1.286 . S
C529 U526 2.984 . S
C529 O527 1.353 . S
C529 O528 1.286 . S
C529 C531 1.363 . S
C530 C520 1.465 . S
C530 U526 2.847 . S
C530 O544 1.249 . S
C530 O545 1.202 . S
C531 C529 1.363 . S
C531 C533 1.408 . S
C531 C536 1.342 . S
C532 C533 1.310 . S
C532 C535 1.461 . S
C532 H552 0.932 . S
C533 C531 1.408 . S
C533 C532 1.310 . S
C533 H553 0.930 . S
C534 C535 1.474 . S
C534 C536 1.285 . S
C534 H554 0.929 . S
C535 C532 1.461 . S
C535 C534 1.474 . S
C536 C531 1.342 . S
C536 C534 1.285 . S
C536 H555 0.930 . S
C537 C540 1.424 . S
C537 C542 1.245 . S
C537 C543 1.428 . S
C538 C541 1.260 . S
C538 C542 1.477 . S
C538 H556 0.932 . S
C539 C540 1.384 . S
C539 C541 1.479 . S
C539 H557 0.929 . S
C540 C537 1.424 . S
C540 C539 1.384 . S
C540 H558 0.928 . S
C541 C538 1.260 . S
C541 C539 1.479 . S
C542 C537 1.245 . S
C542 C538 1.477 . S
C542 H559 0.932 . S
C543 U526 2.882 . S
C543 C537 1.428 . S
C543 O546 1.301 . S
C543 O547 1.282 . S
O544 U526 2.441 . S
O544 C530 1.249 . S
O545 U526 2.420 . S
O545 C530 1.202 . S
O546 U526 2.455 . S
O546 C543 1.301 . S
O547 U526 2.449 . S
O547 C543 1.282 . S
H548 C521 0.931 . S
H549 C523 0.929 . S
H550 C524 0.930 . S
H551 C525 0.931 . S
H552 C532 0.932 . S
H553 C533 0.930 . S
H554 C534 0.929 . S
H555 C536 0.930 . S
H556 C538 0.932 . S
H557 C539 0.929 . S
H558 C540 0.928 . S
H559 C542 0.932 . S
C560 C561 1.264 . S
C560 C565 1.479 . S
C560 C570 1.465 . S
C561 C560 1.264 . S
C561 C563 1.339 . S
C561 H588 0.931 . S
C562 C563 1.395 . S
C562 C564 1.320 . S
C563 C561 1.339 . S
C563 C562 1.395 . S
C563 H589 0.929 . S
C564 C562 1.320 . S
C564 C565 1.405 . S
C564 H590 0.930 . S
C565 C560 1.479 . S
C565 C564 1.405 . S
C565 H591 0.931 . S
U566 O567 2.454 . S
U566 O568 2.458 . S
U566 C569 2.984 . S
U566 C570 2.847 . S
U566 C583 2.882 . S
U566 O584 2.441 . S
U566 O585 2.420 . S
U566 O586 2.455 . S
U566 O587 2.449 . S
O567 U566 2.454 . S
O567 C569 1.353 . S
O568 U566 2.458 . S
O568 C569 1.286 . S
C569 U566 2.984 . S
C569 O567 1.353 . S
C569 O568 1.286 . S
C569 C571 1.363 . S
C570 C560 1.465 . S
C570 U566 2.847 . S
C570 O584 1.249 . S
C570 O585 1.202 . S
C571 C569 1.363 . S
C571 C573 1.408 . S
C571 C576 1.342 . S
C572 C573 1.310 . S
C572 C575 1.461 . S
C572 H592 0.932 . S
C573 C571 1.408 . S
C573 C572 1.310 . S
C573 H593 0.930 . S
C574 C575 1.474 . S
C574 C576 1.285 . S
C574 H594 0.929 . S
C575 C572 1.461 . S
C575 C574 1.474 . S
C576 C571 1.342 . S
C576 C574 1.285 . S
C576 H595 0.930 . S
C577 C580 1.424 . S
C577 C582 1.245 . S
C577 C583 1.428 . S
C578 C581 1.260 . S
C578 C582 1.477 . S
C578 H596 0.932 . S
C579 C580 1.384 . S
C579 C581 1.479 . S
C579 H597 0.929 . S
C580 C577 1.424 . S
C580 C579 1.384 . S
C580 H598 0.928 . S
C581 C578 1.260 . S
C581 C579 1.479 . S
C582 C577 1.245 . S
C582 C578 1.477 . S
C582 H599 0.932 . S
C583 U566 2.882 . S
C583 C577 1.428 . S
C583 O586 1.301 . S
C583 O587 1.282 . S
O584 U566 2.441 . S
O584 C570 1.249 . S
O585 U566 2.420 . S
O585 C570 1.202 . S
O586 U566 2.455 . S
O586 C583 1.301 . S
O587 U566 2.449 . S
O587 C583 1.282 . S
H588 C561 0.931 . S
H589 C563 0.929 . S
H590 C564 0.930 . S
H591 C565 0.931 . S
H592 C572 0.932 . S
H593 C573 0.930 . S
H594 C574 0.929 . S
H595 C576 0.930 . S
H596 C578 0.932 . S
H597 C579 0.929 . S
H598 C580 0.928 . S
H599 C582 0.932 . S
C600 C601 1.264 . S
C600 C605 1.479 . S
C600 C610 1.465 . S
C601 C600 1.264 . S
C601 C603 1.339 . S
C601 H628 0.931 . S
C602 C603 1.395 . S
C602 C604 1.320 . S
C603 C601 1.339 . S
C603 C602 1.395 . S
C603 H629 0.929 . S
C604 C602 1.320 . S
C604 C605 1.405 . S
C604 H630 0.930 . S
C605 C600 1.479 . S
C605 C604 1.405 . S
C605 H631 0.931 . S
U606 O607 2.454 . S
U606 O608 2.458 . S
U606 C609 2.984 . S
U606 C610 2.847 . S
U606 C623 2.882 . S
U606 O624 2.441 . S
U606 O625 2.420 . S
U606 O626 2.455 . S
U606 O627 2.449 . S
O607 U606 2.454 . S
O607 C609 1.353 . S
O608 U606 2.458 . S
O608 C609 1.286 . S
C609 U606 2.984 . S
C609 O607 1.353 . S
C609 O608 1.286 . S
C609 C611 1.363 . S
C610 C600 1.465 . S
C610 U606 2.847 . S
C610 O624 1.249 . S
C610 O625 1.202 . S
C611 C609 1.363 . S
C611 C613 1.408 . S
C611 C616 1.342 . S
C612 C613 1.310 . S
C612 C615 1.461 . S
C612 H632 0.932 . S
C613 C611 1.408 . S
C613 C612 1.310 . S
C613 H633 0.930 . S
C614 C615 1.474 . S
C614 C616 1.285 . S
C614 H634 0.929 . S
C615 C612 1.461 . S
C615 C614 1.474 . S
C616 C611 1.342 . S
C616 C614 1.285 . S
C616 H635 0.930 . S
C617 C620 1.424 . S
C617 C622 1.245 . S
C617 C623 1.428 . S
C618 C621 1.260 . S
C618 C622 1.477 . S
C618 H636 0.932 . S
C619 C620 1.384 . S
C619 C621 1.479 . S
C619 H637 0.929 . S
C620 C617 1.424 . S
C620 C619 1.384 . S
C620 H638 0.928 . S
C621 C618 1.260 . S
C621 C619 1.479 . S
C622 C617 1.245 . S
C622 C618 1.477 . S
C622 H639 0.932 . S
C623 U606 2.882 . S
C623 C617 1.428 . S
C623 O626 1.301 . S
C623 O627 1.282 . S
O624 U606 2.441 . S
O624 C610 1.249 . S
O625 U606 2.420 . S
O625 C610 1.202 . S
O626 U606 2.455 . S
O626 C623 1.301 . S
O627 U606 2.449 . S
O627 C623 1.282 . S
H628 C601 0.931 . S
H629 C603 0.929 . S
H630 C604 0.930 . S
H631 C605 0.931 . S
H632 C612 0.932 . S
H633 C613 0.930 . S
H634 C614 0.929 . S
H635 C616 0.930 . S
H636 C618 0.932 . S
H637 C619 0.929 . S
H638 C620 0.928 . S
H639 C622 0.932 . S
C640 C641 1.264 . S
C640 C645 1.479 . S
C640 C650 1.465 . S
C641 C640 1.264 . S
C641 C643 1.339 . S
C641 H668 0.931 . S
C642 C643 1.395 . S
C642 C644 1.320 . S
C643 C641 1.339 . S
C643 C642 1.395 . S
C643 H669 0.929 . S
C644 C642 1.320 . S
C644 C645 1.405 . S
C644 H670 0.930 . S
C645 C640 1.479 . S
C645 C644 1.405 . S
C645 H671 0.931 . S
U646 O647 2.454 . S
U646 O648 2.458 . S
U646 C649 2.984 . S
U646 C650 2.847 . S
U646 C663 2.882 . S
U646 O664 2.441 . S
U646 O665 2.420 . S
U646 O666 2.455 . S
U646 O667 2.449 . S
O647 U646 2.454 . S
O647 C649 1.353 . S
O648 U646 2.458 . S
O648 C649 1.286 . S
C649 U646 2.984 . S
C649 O647 1.353 . S
C649 O648 1.286 . S
C649 C651 1.363 . S
C650 C640 1.465 . S
C650 U646 2.847 . S
C650 O664 1.249 . S
C650 O665 1.202 . S
C651 C649 1.363 . S
C651 C653 1.408 . S
C651 C656 1.342 . S
C652 C653 1.310 . S
C652 C655 1.461 . S
C652 H672 0.932 . S
C653 C651 1.408 . S
C653 C652 1.310 . S
C653 H673 0.930 . S
C654 C655 1.474 . S
C654 C656 1.285 . S
C654 H674 0.929 . S
C655 C652 1.461 . S
C655 C654 1.474 . S
C656 C651 1.342 . S
C656 C654 1.285 . S
C656 H675 0.930 . S
C657 C660 1.424 . S
C657 C662 1.245 . S
C657 C663 1.428 . S
C658 C661 1.260 . S
C658 C662 1.477 . S
C658 H676 0.932 . S
C659 C660 1.384 . S
C659 C661 1.479 . S
C659 H677 0.929 . S
C660 C657 1.424 . S
C660 C659 1.384 . S
C660 H678 0.928 . S
C661 C658 1.260 . S
C661 C659 1.479 . S
C662 C657 1.245 . S
C662 C658 1.477 . S
C662 H679 0.932 . S
C663 U646 2.882 . S
C663 C657 1.428 . S
C663 O666 1.301 . S
C663 O667 1.282 . S
O664 U646 2.441 . S
O664 C650 1.249 . S
O665 U646 2.420 . S
O665 C650 1.202 . S
O666 U646 2.455 . S
O666 C663 1.301 . S
O667 U646 2.449 . S
O667 C663 1.282 . S
H668 C641 0.931 . S
H669 C643 0.929 . S
H670 C644 0.930 . S
H671 C645 0.931 . S
H672 C652 0.932 . S
H673 C653 0.930 . S
H674 C654 0.929 . S
H675 C656 0.930 . S
H676 C658 0.932 . S
H677 C659 0.929 . S
H678 C660 0.928 . S
H679 C662 0.932 . S
C680 C681 1.264 . S
C680 C685 1.479 . S
C680 C690 1.465 . S
C681 C680 1.264 . S
C681 C683 1.339 . S
C681 H708 0.931 . S
C682 C683 1.395 . S
C682 C684 1.320 . S
C683 C681 1.339 . S
C683 C682 1.395 . S
C683 H709 0.929 . S
C684 C682 1.320 . S
C684 C685 1.405 . S
C684 H710 0.930 . S
C685 C680 1.479 . S
C685 C684 1.405 . S
C685 H711 0.931 . S
U686 O687 2.454 . S
U686 O688 2.458 . S
U686 C689 2.984 . S
U686 C690 2.847 . S
U686 C703 2.882 . S
U686 O704 2.441 . S
U686 O705 2.420 . S
U686 O706 2.455 . S
U686 O707 2.449 . S
O687 U686 2.454 . S
O687 C689 1.353 . S
O688 U686 2.458 . S
O688 C689 1.286 . S
C689 U686 2.984 . S
C689 O687 1.353 . S
C689 O688 1.286 . S
C689 C691 1.363 . S
C690 C680 1.465 . S
C690 U686 2.847 . S
C690 O704 1.249 . S
C690 O705 1.202 . S
C691 C689 1.363 . S
C691 C693 1.408 . S
C691 C696 1.342 . S
C692 C693 1.310 . S
C692 C695 1.461 . S
C692 H712 0.932 . S
C693 C691 1.408 . S
C693 C692 1.310 . S
C693 H713 0.930 . S
C694 C695 1.474 . S
C694 C696 1.285 . S
C694 H714 0.929 . S
C695 C692 1.461 . S
C695 C694 1.474 . S
C696 C691 1.342 . S
C696 C694 1.285 . S
C696 H715 0.930 . S
C697 C700 1.424 . S
C697 C702 1.245 . S
C697 C703 1.428 . S
C698 C701 1.260 . S
C698 C702 1.477 . S
C698 H716 0.932 . S
C699 C700 1.384 . S
C699 C701 1.479 . S
C699 H717 0.929 . S
C700 C697 1.424 . S
C700 C699 1.384 . S
C700 H718 0.928 . S
C701 C698 1.260 . S
C701 C699 1.479 . S
C702 C697 1.245 . S
C702 C698 1.477 . S
C702 H719 0.932 . S
C703 U686 2.882 . S
C703 C697 1.428 . S
C703 O706 1.301 . S
C703 O707 1.282 . S
O704 U686 2.441 . S
O704 C690 1.249 . S
O705 U686 2.420 . S
O705 C690 1.202 . S
O706 U686 2.455 . S
O706 C703 1.301 . S
O707 U686 2.449 . S
O707 C703 1.282 . S
H708 C681 0.931 . S
H709 C683 0.929 . S
H710 C684 0.930 . S
H711 C685 0.931 . S
H712 C692 0.932 . S
H713 C693 0.930 . S
H714 C694 0.929 . S
H715 C696 0.930 . S
H716 C698 0.932 . S
H717 C699 0.929 . S
H718 C700 0.928 . S
H719 C702 0.932 . S
C720 C721 1.264 . S
C720 C725 1.479 . S
C720 C730 1.465 . S
C721 C720 1.264 . S
C721 C723 1.339 . S
C721 H748 0.931 . S
C722 C723 1.395 . S
C722 C724 1.320 . S
C723 C721 1.339 . S
C723 C722 1.395 . S
C723 H749 0.929 . S
C724 C722 1.320 . S
C724 C725 1.405 . S
C724 H750 0.930 . S
C725 C720 1.479 . S
C725 C724 1.405 . S
C725 H751 0.931 . S
U726 O727 2.454 . S
U726 O728 2.458 . S
U726 C729 2.984 . S
U726 C730 2.847 . S
U726 C743 2.882 . S
U726 O744 2.441 . S
U726 O745 2.420 . S
U726 O746 2.455 . S
U726 O747 2.449 . S
O727 U726 2.454 . S
O727 C729 1.353 . S
O728 U726 2.458 . S
O728 C729 1.286 . S
C729 U726 2.984 . S
C729 O727 1.353 . S
C729 O728 1.286 . S
C729 C731 1.363 . S
C730 C720 1.465 . S
C730 U726 2.847 . S
C730 O744 1.249 . S
C730 O745 1.202 . S
C731 C729 1.363 . S
C731 C733 1.408 . S
C731 C736 1.342 . S
C732 C733 1.310 . S
C732 C735 1.461 . S
C732 H752 0.932 . S
C733 C731 1.408 . S
C733 C732 1.310 . S
C733 H753 0.930 . S
C734 C735 1.474 . S
C734 C736 1.285 . S
C734 H754 0.929 . S
C735 C732 1.461 . S
C735 C734 1.474 . S
C736 C731 1.342 . S
C736 C734 1.285 . S
C736 H755 0.930 . S
C737 C740 1.424 . S
C737 C742 1.245 . S
C737 C743 1.428 . S
C738 C741 1.260 . S
C738 C742 1.477 . S
C738 H756 0.932 . S
C739 C740 1.384 . S
C739 C741 1.479 . S
C739 H757 0.929 . S
C740 C737 1.424 . S
C740 C739 1.384 . S
C740 H758 0.928 . S
C741 C738 1.260 . S
C741 C739 1.479 . S
C742 C737 1.245 . S
C742 C738 1.477 . S
C742 H759 0.932 . S
C743 U726 2.882 . S
C743 C737 1.428 . S
C743 O746 1.301 . S
C743 O747 1.282 . S
O744 U726 2.441 . S
O744 C730 1.249 . S
O745 U726 2.420 . S
O745 C730 1.202 . S
O746 U726 2.455 . S
O746 C743 1.301 . S
O747 U726 2.449 . S
O747 C743 1.282 . S
H748 C721 0.931 . S
H749 C723 0.929 . S
H750 C724 0.930 . S
H751 C725 0.931 . S
H752 C732 0.932 . S
H753 C733 0.930 . S
H754 C734 0.929 . S
H755 C736 0.930 . S
H756 C738 0.932 . S
H757 C739 0.929 . S
H758 C740 0.928 . S
H759 C742 0.932 . S
C760 C761 1.264 . S
C760 C765 1.479 . S
C760 C770 1.465 . S
C761 C760 1.264 . S
C761 C763 1.339 . S
C761 H788 0.931 . S
C762 C763 1.395 . S
C762 C764 1.320 . S
C763 C761 1.339 . S
C763 C762 1.395 . S
C763 H789 0.929 . S
C764 C762 1.320 . S
C764 C765 1.405 . S
C764 H790 0.930 . S
C765 C760 1.479 . S
C765 C764 1.405 . S
C765 H791 0.931 . S
U766 O767 2.454 . S
U766 O768 2.458 . S
U766 C769 2.984 . S
U766 C770 2.847 . S
U766 C783 2.882 . S
U766 O784 2.441 . S
U766 O785 2.420 . S
U766 O786 2.455 . S
U766 O787 2.449 . S
O767 U766 2.454 . S
O767 C769 1.353 . S
O768 U766 2.458 . S
O768 C769 1.286 . S
C769 U766 2.984 . S
C769 O767 1.353 . S
C769 O768 1.286 . S
C769 C771 1.363 . S
C770 C760 1.465 . S
C770 U766 2.847 . S
C770 O784 1.249 . S
C770 O785 1.202 . S
C771 C769 1.363 . S
C771 C773 1.408 . S
C771 C776 1.342 . S
C772 C773 1.310 . S
C772 C775 1.461 . S
C772 H792 0.932 . S
C773 C771 1.408 . S
C773 C772 1.310 . S
C773 H793 0.930 . S
C774 C775 1.474 . S
C774 C776 1.285 . S
C774 H794 0.929 . S
C775 C772 1.461 . S
C775 C774 1.474 . S
C776 C771 1.342 . S
C776 C774 1.285 . S
C776 H795 0.930 . S
C777 C780 1.424 . S
C777 C782 1.245 . S
C777 C783 1.428 . S
C778 C781 1.260 . S
C778 C782 1.477 . S
C778 H796 0.932 . S
C779 C780 1.384 . S
C779 C781 1.479 . S
C779 H797 0.929 . S
C780 C777 1.424 . S
C780 C779 1.384 . S
C780 H798 0.928 . S
C781 C778 1.260 . S
C781 C779 1.479 . S
C782 C777 1.245 . S
C782 C778 1.477 . S
C782 H799 0.932 . S
C783 U766 2.882 . S
C783 C777 1.428 . S
C783 O786 1.301 . S
C783 O787 1.282 . S
O784 U766 2.441 . S
O784 C770 1.249 . S
O785 U766 2.420 . S
O785 C770 1.202 . S
O786 U766 2.455 . S
O786 C783 1.301 . S
O787 U766 2.449 . S
O787 C783 1.282 . S
H788 C761 0.931 . S
H789 C763 0.929 . S
H790 C764 0.930 . S
H791 C765 0.931 . S
H792 C772 0.932 . S
H793 C773 0.930 . S
H794 C774 0.929 . S
H795 C776 0.930 . S
H796 C778 0.932 . S
H797 C779 0.929 . S
H798 C780 0.928 . S
H799 C782 0.932 . S
C800 C801 1.264 . S
C800 C805 1.479 . S
C800 C810 1.465 . S
C801 C800 1.264 . S
C801 C803 1.339 . S
C801 H828 0.931 . S
C802 C803 1.395 . S
C802 C804 1.320 . S
C803 C801 1.339 . S
C803 C802 1.395 . S
C803 H829 0.929 . S
C804 C802 1.320 . S
C804 C805 1.405 . S
C804 H830 0.930 . S
C805 C800 1.479 . S
C805 C804 1.405 . S
C805 H831 0.931 . S
U806 O807 2.454 . S
U806 O808 2.458 . S
U806 C809 2.984 . S
U806 C810 2.847 . S
U806 C823 2.882 . S
U806 O824 2.441 . S
U806 O825 2.420 . S
U806 O826 2.455 . S
U806 O827 2.449 . S
O807 U806 2.454 . S
O807 C809 1.353 . S
O808 U806 2.458 . S
O808 C809 1.286 . S
C809 U806 2.984 . S
C809 O807 1.353 . S
C809 O808 1.286 . S
C809 C811 1.363 . S
C810 C800 1.465 . S
C810 U806 2.847 . S
C810 O824 1.249 . S
C810 O825 1.202 . S
C811 C809 1.363 . S
C811 C813 1.408 . S
C811 C816 1.342 . S
C812 C813 1.310 . S
C812 C815 1.461 . S
C812 H832 0.932 . S
C813 C811 1.408 . S
C813 C812 1.310 . S
C813 H833 0.930 . S
C814 C815 1.474 . S
C814 C816 1.285 . S
C814 H834 0.929 . S
C815 C812 1.461 . S
C815 C814 1.474 . S
C816 C811 1.342 . S
C816 C814 1.285 . S
C816 H835 0.930 . S
C817 C820 1.424 . S
C817 C822 1.245 . S
C817 C823 1.428 . S
C818 C821 1.260 . S
C818 C822 1.477 . S
C818 H836 0.932 . S
C819 C820 1.384 . S
C819 C821 1.479 . S
C819 H837 0.929 . S
C820 C817 1.424 . S
C820 C819 1.384 . S
C820 H838 0.928 . S
C821 C818 1.260 . S
C821 C819 1.479 . S
C822 C817 1.245 . S
C822 C818 1.477 . S
C822 H839 0.932 . S
C823 U806 2.882 . S
C823 C817 1.428 . S
C823 O826 1.301 . S
C823 O827 1.282 . S
O824 U806 2.441 . S
O824 C810 1.249 . S
O825 U806 2.420 . S
O825 C810 1.202 . S
O826 U806 2.455 . S
O826 C823 1.301 . S
O827 U806 2.449 . S
O827 C823 1.282 . S
H828 C801 0.931 . S
H829 C803 0.929 . S
H830 C804 0.930 . S
H831 C805 0.931 . S
H832 C812 0.932 . S
H833 C813 0.930 . S
H834 C814 0.929 . S
H835 C816 0.930 . S
H836 C818 0.932 . S
H837 C819 0.929 . S
H838 C820 0.928 . S
H839 C822 0.932 . S
C840 C841 1.264 . S
C840 C845 1.479 . S
C840 C850 1.465 . S
C841 C840 1.264 . S
C841 C843 1.339 . S
C841 H868 0.931 . S
C842 C843 1.395 . S
C842 C844 1.320 . S
C843 C841 1.339 . S
C843 C842 1.395 . S
C843 H869 0.929 . S
C844 C842 1.320 . S
C844 C845 1.405 . S
C844 H870 0.930 . S
C845 C840 1.479 . S
C845 C844 1.405 . S
C845 H871 0.931 . S
U846 O847 2.454 . S
U846 O848 2.458 . S
U846 C849 2.984 . S
U846 C850 2.847 . S
U846 C863 2.882 . S
U846 O864 2.441 . S
U846 O865 2.420 . S
U846 O866 2.455 . S
U846 O867 2.449 . S
O847 U846 2.454 . S
O847 C849 1.353 . S
O848 U846 2.458 . S
O848 C849 1.286 . S
C849 U846 2.984 . S
C849 O847 1.353 . S
C849 O848 1.286 . S
C849 C851 1.363 . S
C850 C840 1.465 . S
C850 U846 2.847 . S
C850 O864 1.249 . S
C850 O865 1.202 . S
C851 C849 1.363 . S
C851 C853 1.408 . S
C851 C856 1.342 . S
C852 C853 1.310 . S
C852 C855 1.461 . S
C852 H872 0.932 . S
C853 C851 1.408 . S
C853 C852 1.310 . S
C853 H873 0.930 . S
C854 C855 1.474 . S
C854 C856 1.285 . S
C854 H874 0.929 . S
C855 C852 1.461 . S
C855 C854 1.474 . S
C856 C851 1.342 . S
C856 C854 1.285 . S
C856 H875 0.930 . S
C857 C860 1.424 . S
C857 C862 1.245 . S
C857 C863 1.428 . S
C858 C861 1.260 . S
C858 C862 1.477 . S
C858 H876 0.932 . S
C859 C860 1.384 . S
C859 C861 1.479 . S
C859 H877 0.929 . S
C860 C857 1.424 . S
C860 C859 1.384 . S
C860 H878 0.928 . S
C861 C858 1.260 . S
C861 C859 1.479 . S
C862 C857 1.245 . S
C862 C858 1.477 . S
C862 H879 0.932 . S
C863 U846 2.882 . S
C863 C857 1.428 . S
C863 O866 1.301 . S
C863 O867 1.282 . S
O864 U846 2.441 . S
O864 C850 1.249 . S
O865 U846 2.420 . S
O865 C850 1.202 . S
O866 U846 2.455 . S
O866 C863 1.301 . S
O867 U846 2.449 . S
O867 C863 1.282 . S
H868 C841 0.931 . S
H869 C843 0.929 . S
H870 C844 0.930 . S
H871 C845 0.931 . S
H872 C852 0.932 . S
H873 C853 0.930 . S
H874 C854 0.929 . S
H875 C856 0.930 . S
H876 C858 0.932 . S
H877 C859 0.929 . S
H878 C860 0.928 . S
H879 C862 0.932 . S
C880 C881 1.264 . S
C880 C885 1.479 . S
C880 C890 1.465 . S
C881 C880 1.264 . S
C881 C883 1.339 . S
C881 H908 0.931 . S
C882 C883 1.395 . S
C882 C884 1.320 . S
C883 C881 1.339 . S
C883 C882 1.395 . S
C883 H909 0.929 . S
C884 C882 1.320 . S
C884 C885 1.405 . S
C884 H910 0.930 . S
C885 C880 1.479 . S
C885 C884 1.405 . S
C885 H911 0.931 . S
U886 O887 2.454 . S
U886 O888 2.458 . S
U886 C889 2.984 . S
U886 C890 2.847 . S
U886 C903 2.882 . S
U886 O904 2.441 . S
U886 O905 2.420 . S
U886 O906 2.455 . S
U886 O907 2.449 . S
O887 U886 2.454 . S
O887 C889 1.353 . S
O888 U886 2.458 . S
O888 C889 1.286 . S
C889 U886 2.984 . S
C889 O887 1.353 . S
C889 O888 1.286 . S
C889 C891 1.363 . S
C890 C880 1.465 . S
C890 U886 2.847 . S
C890 O904 1.249 . S
C890 O905 1.202 . S
C891 C889 1.363 . S
C891 C893 1.408 . S
C891 C896 1.342 . S
C892 C893 1.310 . S
C892 C895 1.461 . S
C892 H912 0.932 . S
C893 C891 1.408 . S
C893 C892 1.310 . S
C893 H913 0.930 . S
C894 C895 1.474 . S
C894 C896 1.285 . S
C894 H914 0.929 . S
C895 C892 1.461 . S
C895 C894 1.474 . S
C896 C891 1.342 . S
C896 C894 1.285 . S
C896 H915 0.930 . S
C897 C900 1.424 . S
C897 C902 1.245 . S
C897 C903 1.428 . S
C898 C901 1.260 . S
C898 C902 1.477 . S
C898 H916 0.932 . S
C899 C900 1.384 . S
C899 C901 1.479 . S
C899 H917 0.929 . S
C900 C897 1.424 . S
C900 C899 1.384 . S
C900 H918 0.928 . S
C901 C898 1.260 . S
C901 C899 1.479 . S
C902 C897 1.245 . S
C902 C898 1.477 . S
C902 H919 0.932 . S
C903 U886 2.882 . S
C903 C897 1.428 . S
C903 O906 1.301 . S
C903 O907 1.282 . S
O904 U886 2.441 . S
O904 C890 1.249 . S
O905 U886 2.420 . S
O905 C890 1.202 . S
O906 U886 2.455 . S
O906 C903 1.301 . S
O907 U886 2.449 . S
O907 C903 1.282 . S
H908 C881 0.931 . S
H909 C883 0.929 . S
H910 C884 0.930 . S
H911 C885 0.931 . S
H912 C892 0.932 . S
H913 C893 0.930 . S
H914 C894 0.929 . S
H915 C896 0.930 . S
H916 C898 0.932 . S
H917 C899 0.929 . S
H918 C900 0.928 . S
H919 C902 0.932 . S
C920 C921 1.264 . S
C920 C925 1.479 . S
C920 C930 1.465 . S
C921 C920 1.264 . S
C921 C923 1.339 . S
C921 H948 0.931 . S
C922 C923 1.395 . S
C922 C924 1.320 . S
C923 C921 1.339 . S
C923 C922 1.395 . S
C923 H949 0.929 . S
C924 C922 1.320 . S
C924 C925 1.405 . S
C924 H950 0.930 . S
C925 C920 1.479 . S
C925 C924 1.405 . S
C925 H951 0.931 . S
U926 O927 2.454 . S
U926 O928 2.458 . S
U926 C929 2.984 . S
U926 C930 2.847 . S
U926 C943 2.882 . S
U926 O944 2.441 . S
U926 O945 2.420 . S
U926 O946 2.455 . S
U926 O947 2.449 . S
O927 U926 2.454 . S
O927 C929 1.353 . S
O928 U926 2.458 . S
O928 C929 1.286 . S
C929 U926 2.984 . S
C929 O927 1.353 . S
C929 O928 1.286 . S
C929 C931 1.363 . S
C930 C920 1.465 . S
C930 U926 2.847 . S
C930 O944 1.249 . S
C930 O945 1.202 . S
C931 C929 1.363 . S
C931 C933 1.408 . S
C931 C936 1.342 . S
C932 C933 1.310 . S
C932 C935 1.461 . S
C932 H952 0.932 . S
C933 C931 1.408 . S
C933 C932 1.310 . S
C933 H953 0.930 . S
C934 C935 1.474 . S
C934 C936 1.285 . S
C934 H954 0.929 . S
C935 C932 1.461 . S
C935 C934 1.474 . S
C936 C931 1.342 . S
C936 C934 1.285 . S
C936 H955 0.930 . S
C937 C940 1.424 . S
C937 C942 1.245 . S
C937 C943 1.428 . S
C938 C941 1.260 . S
C938 C942 1.477 . S
C938 H956 0.932 . S
C939 C940 1.384 . S
C939 C941 1.479 . S
C939 H957 0.929 . S
C940 C937 1.424 . S
C940 C939 1.384 . S
C940 H958 0.928 . S
C941 C938 1.260 . S
C941 C939 1.479 . S
C942 C937 1.245 . S
C942 C938 1.477 . S
C942 H959 0.932 . S
C943 U926 2.882 . S
C943 C937 1.428 . S
C943 O946 1.301 . S
C943 O947 1.282 . S
O944 U926 2.441 . S
O944 C930 1.249 . S
O945 U926 2.420 . S
O945 C930 1.202 . S
O946 U926 2.455 . S
O946 C943 1.301 . S
O947 U926 2.449 . S
O947 C943 1.282 . S
H948 C921 0.931 . S
H949 C923 0.929 . S
H950 C924 0.930 . S
H951 C925 0.931 . S
H952 C932 0.932 . S
H953 C933 0.930 . S
H954 C934 0.929 . S
H955 C936 0.930 . S
H956 C938 0.932 . S
H957 C939 0.929 . S
H958 C940 0.928 . S
H959 C942 0.932 . S
C960 C961 1.264 . S
C960 C965 1.479 . S
C960 C970 1.465 . S
C961 C960 1.264 . S
C961 C963 1.339 . S
C961 H988 0.931 . S
C962 C963 1.395 . S
C962 C964 1.320 . S
C963 C961 1.339 . S
C963 C962 1.395 . S
C963 H989 0.929 . S
C964 C962 1.320 . S
C964 C965 1.405 . S
C964 H990 0.930 . S
C965 C960 1.479 . S
C965 C964 1.405 . S
C965 H991 0.931 . S
U966 O967 2.454 . S
U966 O968 2.458 . S
U966 C969 2.984 . S
U966 C970 2.847 . S
U966 C983 2.882 . S
U966 O984 2.441 . S
U966 O985 2.420 . S
U966 O986 2.455 . S
U966 O987 2.449 . S
O967 U966 2.454 . S
O967 C969 1.353 . S
O968 U966 2.458 . S
O968 C969 1.286 . S
C969 U966 2.984 . S
C969 O967 1.353 . S
C969 O968 1.286 . S
C969 C971 1.363 . S
C970 C960 1.465 . S
C970 U966 2.847 . S
C970 O984 1.249 . S
C970 O985 1.202 . S
C971 C969 1.363 . S
C971 C973 1.408 . S
C971 C976 1.342 . S
C972 C973 1.310 . S
C972 C975 1.461 . S
C972 H992 0.932 . S
C973 C971 1.408 . S
C973 C972 1.310 . S
C973 H993 0.930 . S
C974 C975 1.474 . S
C974 C976 1.285 . S
C974 H994 0.929 . S
C975 C972 1.461 . S
C975 C974 1.474 . S
C976 C971 1.342 . S
C976 C974 1.285 . S
C976 H995 0.930 . S
C977 C980 1.424 . S
C977 C982 1.245 . S
C977 C983 1.428 . S
C978 C981 1.260 . S
C978 C982 1.477 . S
C978 H996 0.932 . S
C979 C980 1.384 . S
C979 C981 1.479 . S
C979 H997 0.929 . S
C980 C977 1.424 . S
C980 C979 1.384 . S
C980 H998 0.928 . S
C981 C978 1.260 . S
C981 C979 1.479 . S
C982 C977 1.245 . S
C982 C978 1.477 . S
C982 H999 0.932 . S
C983 U966 2.882 . S
C983 C977 1.428 . S
C983 O986 1.301 . S
C983 O987 1.282 . S
O984 U966 2.441 . S
O984 C970 1.249 . S
O985 U966 2.420 . S
O985 C970 1.202 . S
O986 U966 2.455 . S
O986 C983 1.301 . S
O987 U966 2.449 . S
O987 C983 1.282 . S
H988 C961 0.931 . S
H989 C963 0.929 . S
H990 C964 0.930 . S
H991 C965 0.931 . S
H992 C972 0.932 . S
H993 C973 0.930 . S
H994 C974 0.929 . S
H995 C976 0.930 . S
H996 C978 0.932 . S
H997 C979 0.929 . S
H998 C980 0.928 . S
H999 C982 0.932 . S
C1000 C1001 1.264 . S
C1000 C1005 1.479 . S
C1000 C1010 1.465 . S
C1001 C1000 1.264 . S
C1001 C1003 1.339 . S
C1001 H1028 0.931 . S
C1002 C1003 1.395 . S
C1002 C1004 1.320 . S
C1003 C1001 1.339 . S
C1003 C1002 1.395 . S
C1003 H1029 0.929 . S
C1004 C1002 1.320 . S
C1004 C1005 1.405 . S
C1004 H1030 0.930 . S
C1005 C1000 1.479 . S
C1005 C1004 1.405 . S
C1005 H1031 0.931 . S
U1006 O1007 2.454 . S
U1006 O1008 2.458 . S
U1006 C1009 2.984 . S
U1006 C1010 2.847 . S
U1006 C1023 2.882 . S
U1006 O1024 2.441 . S
U1006 O1025 2.420 . S
U1006 O1026 2.455 . S
U1006 O1027 2.449 . S
O1007 U1006 2.454 . S
O1007 C1009 1.353 . S
O1008 U1006 2.458 . S
O1008 C1009 1.286 . S
C1009 U1006 2.984 . S
C1009 O1007 1.353 . S
C1009 O1008 1.286 . S
C1009 C1011 1.363 . S
C1010 C1000 1.465 . S
C1010 U1006 2.847 . S
C1010 O1024 1.249 . S
C1010 O1025 1.202 . S
C1011 C1009 1.363 . S
C1011 C1013 1.408 . S
C1011 C1016 1.342 . S
C1012 C1013 1.310 . S
C1012 C1015 1.461 . S
C1012 H1032 0.932 . S
C1013 C1011 1.408 . S
C1013 C1012 1.310 . S
C1013 H1033 0.930 . S
C1014 C1015 1.474 . S
C1014 C1016 1.285 . S
C1014 H1034 0.929 . S
C1015 C1012 1.461 . S
C1015 C1014 1.474 . S
C1016 C1011 1.342 . S
C1016 C1014 1.285 . S
C1016 H1035 0.930 . S
C1017 C1020 1.424 . S
C1017 C1022 1.245 . S
C1017 C1023 1.428 . S
C1018 C1021 1.260 . S
C1018 C1022 1.477 . S
C1018 H1036 0.932 . S
C1019 C1020 1.384 . S
C1019 C1021 1.479 . S
C1019 H1037 0.929 . S
C1020 C1017 1.424 . S
C1020 C1019 1.384 . S
C1020 H1038 0.928 . S
C1021 C1018 1.260 . S
C1021 C1019 1.479 . S
C1022 C1017 1.245 . S
C1022 C1018 1.477 . S
C1022 H1039 0.932 . S
C1023 U1006 2.882 . S
C1023 C1017 1.428 . S
C1023 O1026 1.301 . S
C1023 O1027 1.282 . S
O1024 U1006 2.441 . S
O1024 C1010 1.249 . S
O1025 U1006 2.420 . S
O1025 C1010 1.202 . S
O1026 U1006 2.455 . S
O1026 C1023 1.301 . S
O1027 U1006 2.449 . S
O1027 C1023 1.282 . S
H1028 C1001 0.931 . S
H1029 C1003 0.929 . S
H1030 C1004 0.930 . S
H1031 C1005 0.931 . S
H1032 C1012 0.932 . S
H1033 C1013 0.930 . S
H1034 C1014 0.929 . S
H1035 C1016 0.930 . S
H1036 C1018 0.932 . S
H1037 C1019 0.929 . S
H1038 C1020 0.928 . S
H1039 C1022 0.932 . S
C1040 C1041 1.264 . S
C1040 C1045 1.479 . S
C1040 C1050 1.465 . S
C1041 C1040 1.264 . S
C1041 C1043 1.339 . S
C1041 H1068 0.931 . S
C1042 C1043 1.395 . S
C1042 C1044 1.320 . S
C1043 C1041 1.339 . S
C1043 C1042 1.395 . S
C1043 H1069 0.929 . S
C1044 C1042 1.320 . S
C1044 C1045 1.405 . S
C1044 H1070 0.930 . S
C1045 C1040 1.479 . S
C1045 C1044 1.405 . S
C1045 H1071 0.931 . S
U1046 O1047 2.454 . S
U1046 O1048 2.458 . S
U1046 C1049 2.984 . S
U1046 C1050 2.847 . S
U1046 C1063 2.882 . S
U1046 O1064 2.441 . S
U1046 O1065 2.420 . S
U1046 O1066 2.455 . S
U1046 O1067 2.449 . S
O1047 U1046 2.454 . S
O1047 C1049 1.353 . S
O1048 U1046 2.458 . S
O1048 C1049 1.286 . S
C1049 U1046 2.984 . S
C1049 O1047 1.353 . S
C1049 O1048 1.286 . S
C1049 C1051 1.363 . S
C1050 C1040 1.465 . S
C1050 U1046 2.847 . S
C1050 O1064 1.249 . S
C1050 O1065 1.202 . S
C1051 C1049 1.363 . S
C1051 C1053 1.408 . S
C1051 C1056 1.342 . S
C1052 C1053 1.310 . S
C1052 C1055 1.461 . S
C1052 H1072 0.932 . S
C1053 C1051 1.408 . S
C1053 C1052 1.310 . S
C1053 H1073 0.930 . S
C1054 C1055 1.474 . S
C1054 C1056 1.285 . S
C1054 H1074 0.929 . S
C1055 C1052 1.461 . S
C1055 C1054 1.474 . S
C1056 C1051 1.342 . S
C1056 C1054 1.285 . S
C1056 H1075 0.930 . S
C1057 C1060 1.424 . S
C1057 C1062 1.245 . S
C1057 C1063 1.428 . S
C1058 C1061 1.260 . S
C1058 C1062 1.477 . S
C1058 H1076 0.932 . S
C1059 C1060 1.384 . S
C1059 C1061 1.479 . S
C1059 H1077 0.929 . S
C1060 C1057 1.424 . S
C1060 C1059 1.384 . S
C1060 H1078 0.928 . S
C1061 C1058 1.260 . S
C1061 C1059 1.479 . S
C1062 C1057 1.245 . S
C1062 C1058 1.477 . S
C1062 H1079 0.932 . S
C1063 U1046 2.882 . S
C1063 C1057 1.428 . S
C1063 O1066 1.301 . S
C1063 O1067 1.282 . S
O1064 U1046 2.441 . S
O1064 C1050 1.249 . S
O1065 U1046 2.420 . S
O1065 C1050 1.202 . S
O1066 U1046 2.455 . S
O1066 C1063 1.301 . S
O1067 U1046 2.449 . S
O1067 C1063 1.282 . S
H1068 C1041 0.931 . S
H1069 C1043 0.929 . S
H1070 C1044 0.930 . S
H1071 C1045 0.931 . S
H1072 C1052 0.932 . S
H1073 C1053 0.930 . S
H1074 C1054 0.929 . S
H1075 C1056 0.930 . S
H1076 C1058 0.932 . S
H1077 C1059 0.929 . S
H1078 C1060 0.928 . S
H1079 C1062 0.932 . S
C1080 C1081 1.264 . S
C1080 C1085 1.479 . S
C1080 C1090 1.465 . S
C1081 C1080 1.264 . S
C1081 C1083 1.339 . S
C1081 H1108 0.931 . S
C1082 C1083 1.395 . S
C1082 C1084 1.320 . S
C1083 C1081 1.339 . S
C1083 C1082 1.395 . S
C1083 H1109 0.929 . S
C1084 C1082 1.320 . S
C1084 C1085 1.405 . S
C1084 H1110 0.930 . S
C1085 C1080 1.479 . S
C1085 C1084 1.405 . S
C1085 H1111 0.931 . S
U1086 O1087 2.454 . S
U1086 O1088 2.458 . S
U1086 C1089 2.984 . S
U1086 C1090 2.847 . S
U1086 C1103 2.882 . S
U1086 O1104 2.441 . S
U1086 O1105 2.420 . S
U1086 O1106 2.455 . S
U1086 O1107 2.449 . S
O1087 U1086 2.454 . S
O1087 C1089 1.353 . S
O1088 U1086 2.458 . S
O1088 C1089 1.286 . S
C1089 U1086 2.984 . S
C1089 O1087 1.353 . S
C1089 O1088 1.286 . S
C1089 C1091 1.363 . S
C1090 C1080 1.465 . S
C1090 U1086 2.847 . S
C1090 O1104 1.249 . S
C1090 O1105 1.202 . S
C1091 C1089 1.363 . S
C1091 C1093 1.408 . S
C1091 C1096 1.342 . S
C1092 C1093 1.310 . S
C1092 C1095 1.461 . S
C1092 H1112 0.932 . S
C1093 C1091 1.408 . S
C1093 C1092 1.310 . S
C1093 H1113 0.930 . S
C1094 C1095 1.474 . S
C1094 C1096 1.285 . S
C1094 H1114 0.929 . S
C1095 C1092 1.461 . S
C1095 C1094 1.474 . S
C1096 C1091 1.342 . S
C1096 C1094 1.285 . S
C1096 H1115 0.930 . S
C1097 C1100 1.424 . S
C1097 C1102 1.245 . S
C1097 C1103 1.428 . S
C1098 C1101 1.260 . S
C1098 C1102 1.477 . S
C1098 H1116 0.932 . S
C1099 C1100 1.384 . S
C1099 C1101 1.479 . S
C1099 H1117 0.929 . S
C1100 C1097 1.424 . S
C1100 C1099 1.384 . S
C1100 H1118 0.928 . S
C1101 C1098 1.260 . S
C1101 C1099 1.479 . S
C1102 C1097 1.245 . S
C1102 C1098 1.477 . S
C1102 H1119 0.932 . S
C1103 U1086 2.882 . S
C1103 C1097 1.428 . S
C1103 O1106 1.301 . S
C1103 O1107 1.282 . S
O1104 U1086 2.441 . S
O1104 C1090 1.249 . S
O1105 U1086 2.420 . S
O1105 C1090 1.202 . S
O1106 U1086 2.455 . S
O1106 C1103 1.301 . S
O1107 U1086 2.449 . S
O1107 C1103 1.282 . S
H1108 C1081 0.931 . S
H1109 C1083 0.929 . S
H1110 C1084 0.930 . S
H1111 C1085 0.931 . S
H1112 C1092 0.932 . S
H1113 C1093 0.930 . S
H1114 C1094 0.929 . S
H1115 C1096 0.930 . S
H1116 C1098 0.932 . S
H1117 C1099 0.929 . S
H1118 C1100 0.928 . S
H1119 C1102 0.932 . S
C1120 C1121 1.264 . S
C1120 C1125 1.479 . S
C1120 C1130 1.465 . S
C1121 C1120 1.264 . S
C1121 C1123 1.339 . S
C1121 H1148 0.931 . S
C1122 C1123 1.395 . S
C1122 C1124 1.320 . S
C1123 C1121 1.339 . S
C1123 C1122 1.395 . S
C1123 H1149 0.929 . S
C1124 C1122 1.320 . S
C1124 C1125 1.405 . S
C1124 H1150 0.930 . S
C1125 C1120 1.479 . S
C1125 C1124 1.405 . S
C1125 H1151 0.931 . S
U1126 O1127 2.454 . S
U1126 O1128 2.458 . S
U1126 C1129 2.984 . S
U1126 C1130 2.847 . S
U1126 C1143 2.882 . S
U1126 O1144 2.441 . S
U1126 O1145 2.420 . S
U1126 O1146 2.455 . S
U1126 O1147 2.449 . S
O1127 U1126 2.454 . S
O1127 C1129 1.353 . S
O1128 U1126 2.458 . S
O1128 C1129 1.286 . S
C1129 U1126 2.984 . S
C1129 O1127 1.353 . S
C1129 O1128 1.286 . S
C1129 C1131 1.363 . S
C1130 C1120 1.465 . S
C1130 U1126 2.847 . S
C1130 O1144 1.249 . S
C1130 O1145 1.202 . S
C1131 C1129 1.363 . S
C1131 C1133 1.408 . S
C1131 C1136 1.342 . S
C1132 C1133 1.310 . S
C1132 C1135 1.461 . S
C1132 H1152 0.932 . S
C1133 C1131 1.408 . S
C1133 C1132 1.310 . S
C1133 H1153 0.930 . S
C1134 C1135 1.474 . S
C1134 C1136 1.285 . S
C1134 H1154 0.929 . S
C1135 C1132 1.461 . S
C1135 C1134 1.474 . S
C1136 C1131 1.342 . S
C1136 C1134 1.285 . S
C1136 H1155 0.930 . S
C1137 C1140 1.424 . S
C1137 C1142 1.245 . S
C1137 C1143 1.428 . S
C1138 C1141 1.260 . S
C1138 C1142 1.477 . S
C1138 H1156 0.932 . S
C1139 C1140 1.384 . S
C1139 C1141 1.479 . S
C1139 H1157 0.929 . S
C1140 C1137 1.424 . S
C1140 C1139 1.384 . S
C1140 H1158 0.928 . S
C1141 C1138 1.260 . S
C1141 C1139 1.479 . S
C1142 C1137 1.245 . S
C1142 C1138 1.477 . S
C1142 H1159 0.932 . S
C1143 U1126 2.882 . S
C1143 C1137 1.428 . S
C1143 O1146 1.301 . S
C1143 O1147 1.282 . S
O1144 U1126 2.441 . S
O1144 C1130 1.249 . S
O1145 U1126 2.420 . S
O1145 C1130 1.202 . S
O1146 U1126 2.455 . S
O1146 C1143 1.301 . S
O1147 U1126 2.449 . S
O1147 C1143 1.282 . S
H1148 C1121 0.931 . S
H1149 C1123 0.929 . S
H1150 C1124 0.930 . S
H1151 C1125 0.931 . S
H1152 C1132 0.932 . S
H1153 C1133 0.930 . S
H1154 C1134 0.929 . S
H1155 C1136 0.930 . S
H1156 C1138 0.932 . S
H1157 C1139 0.929 . S
H1158 C1140 0.928 . S
H1159 C1142 0.932 . S
C1160 C1161 1.264 . S
C1160 C1165 1.479 . S
C1160 C1170 1.465 . S
C1161 C1160 1.264 . S
C1161 C1163 1.339 . S
C1161 H1188 0.931 . S
C1162 C1163 1.395 . S
C1162 C1164 1.320 . S
C1163 C1161 1.339 . S
C1163 C1162 1.395 . S
C1163 H1189 0.929 . S
C1164 C1162 1.320 . S
C1164 C1165 1.405 . S
C1164 H1190 0.930 . S
C1165 C1160 1.479 . S
C1165 C1164 1.405 . S
C1165 H1191 0.931 . S
U1166 O1167 2.454 . S
U1166 O1168 2.458 . S
U1166 C1169 2.984 . S
U1166 C1170 2.847 . S
U1166 C1183 2.882 . S
U1166 O1184 2.441 . S
U1166 O1185 2.420 . S
U1166 O1186 2.455 . S
U1166 O1187 2.449 . S
O1167 U1166 2.454 . S
O1167 C1169 1.353 . S
O1168 U1166 2.458 . S
O1168 C1169 1.286 . S
C1169 U1166 2.984 . S
C1169 O1167 1.353 . S
C1169 O1168 1.286 . S
C1169 C1171 1.363 . S
C1170 C1160 1.465 . S
C1170 U1166 2.847 . S
C1170 O1184 1.249 . S
C1170 O1185 1.202 . S
C1171 C1169 1.363 . S
C1171 C1173 1.408 . S
C1171 C1176 1.342 . S
C1172 C1173 1.310 . S
C1172 C1175 1.461 . S
C1172 H1192 0.932 . S
C1173 C1171 1.408 . S
C1173 C1172 1.310 . S
C1173 H1193 0.930 . S
C1174 C1175 1.474 . S
C1174 C1176 1.285 . S
C1174 H1194 0.929 . S
C1175 C1172 1.461 . S
C1175 C1174 1.474 . S
C1176 C1171 1.342 . S
C1176 C1174 1.285 . S
C1176 H1195 0.930 . S
C1177 C1180 1.424 . S
C1177 C1182 1.245 . S
C1177 C1183 1.428 . S
C1178 C1181 1.260 . S
C1178 C1182 1.477 . S
C1178 H1196 0.932 . S
C1179 C1180 1.384 . S
C1179 C1181 1.479 . S
C1179 H1197 0.929 . S
C1180 C1177 1.424 . S
C1180 C1179 1.384 . S
C1180 H1198 0.928 . S
C1181 C1178 1.260 . S
C1181 C1179 1.479 . S
C1182 C1177 1.245 . S
C1182 C1178 1.477 . S
C1182 H1199 0.932 . S
C1183 U1166 2.882 . S
C1183 C1177 1.428 . S
C1183 O1186 1.301 . S
C1183 O1187 1.282 . S
O1184 U1166 2.441 . S
O1184 C1170 1.249 . S
O1185 U1166 2.420 . S
O1185 C1170 1.202 . S
O1186 U1166 2.455 . S
O1186 C1183 1.301 . S
O1187 U1166 2.449 . S
O1187 C1183 1.282 . S
H1188 C1161 0.931 . S
H1189 C1163 0.929 . S
H1190 C1164 0.930 . S
H1191 C1165 0.931 . S
H1192 C1172 0.932 . S
H1193 C1173 0.930 . S
H1194 C1174 0.929 . S
H1195 C1176 0.930 . S
H1196 C1178 0.932 . S
H1197 C1179 0.929 . S
H1198 C1180 0.928 . S
H1199 C1182 0.932 . S
C1200 C1201 1.264 . S
C1200 C1205 1.479 . S
C1200 C1210 1.465 . S
C1201 C1200 1.264 . S
C1201 C1203 1.339 . S
C1201 H1228 0.931 . S
C1202 C1203 1.395 . S
C1202 C1204 1.320 . S
C1203 C1201 1.339 . S
C1203 C1202 1.395 . S
C1203 H1229 0.929 . S
C1204 C1202 1.320 . S
C1204 C1205 1.405 . S
C1204 H1230 0.930 . S
C1205 C1200 1.479 . S
C1205 C1204 1.405 . S
C1205 H1231 0.931 . S
U1206 O1207 2.454 . S
U1206 O1208 2.458 . S
U1206 C1209 2.984 . S
U1206 C1210 2.847 . S
U1206 C1223 2.882 . S
U1206 O1224 2.441 . S
U1206 O1225 2.420 . S
U1206 O1226 2.455 . S
U1206 O1227 2.449 . S
O1207 U1206 2.454 . S
O1207 C1209 1.353 . S
O1208 U1206 2.458 . S
O1208 C1209 1.286 . S
C1209 U1206 2.984 . S
C1209 O1207 1.353 . S
C1209 O1208 1.286 . S
C1209 C1211 1.363 . S
C1210 C1200 1.465 . S
C1210 U1206 2.847 . S
C1210 O1224 1.249 . S
C1210 O1225 1.202 . S
C1211 C1209 1.363 . S
C1211 C1213 1.408 . S
C1211 C1216 1.342 . S
C1212 C1213 1.310 . S
C1212 C1215 1.461 . S
C1212 H1232 0.932 . S
C1213 C1211 1.408 . S
C1213 C1212 1.310 . S
C1213 H1233 0.930 . S
C1214 C1215 1.474 . S
C1214 C1216 1.285 . S
C1214 H1234 0.929 . S
C1215 C1212 1.461 . S
C1215 C1214 1.474 . S
C1216 C1211 1.342 . S
C1216 C1214 1.285 . S
C1216 H1235 0.930 . S
C1217 C1220 1.424 . S
C1217 C1222 1.245 . S
C1217 C1223 1.428 . S
C1218 C1221 1.260 . S
C1218 C1222 1.477 . S
C1218 H1236 0.932 . S
C1219 C1220 1.384 . S
C1219 C1221 1.479 . S
C1219 H1237 0.929 . S
C1220 C1217 1.424 . S
C1220 C1219 1.384 . S
C1220 H1238 0.928 . S
C1221 C1218 1.260 . S
C1221 C1219 1.479 . S
C1222 C1217 1.245 . S
C1222 C1218 1.477 . S
C1222 H1239 0.932 . S
C1223 U1206 2.882 . S
C1223 C1217 1.428 . S
C1223 O1226 1.301 . S
C1223 O1227 1.282 . S
O1224 U1206 2.441 . S
O1224 C1210 1.249 . S
O1225 U1206 2.420 . S
O1225 C1210 1.202 . S
O1226 U1206 2.455 . S
O1226 C1223 1.301 . S
O1227 U1206 2.449 . S
O1227 C1223 1.282 . S
H1228 C1201 0.931 . S
H1229 C1203 0.929 . S
H1230 C1204 0.930 . S
H1231 C1205 0.931 . S
H1232 C1212 0.932 . S
H1233 C1213 0.930 . S
H1234 C1214 0.929 . S
H1235 C1216 0.930 . S
H1236 C1218 0.932 . S
H1237 C1219 0.929 . S
H1238 C1220 0.928 . S
H1239 C1222 0.932 . S
C1240 C1241 1.264 . S
C1240 C1245 1.479 . S
C1240 C1250 1.465 . S
C1241 C1240 1.264 . S
C1241 C1243 1.339 . S
C1241 H1268 0.931 . S
C1242 C1243 1.395 . S
C1242 C1244 1.320 . S
C1243 C1241 1.339 . S
C1243 C1242 1.395 . S
C1243 H1269 0.929 . S
C1244 C1242 1.320 . S
C1244 C1245 1.405 . S
C1244 H1270 0.930 . S
C1245 C1240 1.479 . S
C1245 C1244 1.405 . S
C1245 H1271 0.931 . S
U1246 O1247 2.454 . S
U1246 O1248 2.458 . S
U1246 C1249 2.984 . S
U1246 C1250 2.847 . S
U1246 C1263 2.882 . S
U1246 O1264 2.441 . S
U1246 O1265 2.420 . S
U1246 O1266 2.455 . S
U1246 O1267 2.449 . S
O1247 U1246 2.454 . S
O1247 C1249 1.353 . S
O1248 U1246 2.458 . S
O1248 C1249 1.286 . S
C1249 U1246 2.984 . S
C1249 O1247 1.353 . S
C1249 O1248 1.286 . S
C1249 C1251 1.363 . S
C1250 C1240 1.465 . S
C1250 U1246 2.847 . S
C1250 O1264 1.249 . S
C1250 O1265 1.202 . S
C1251 C1249 1.363 . S
C1251 C1253 1.408 . S
C1251 C1256 1.342 . S
C1252 C1253 1.310 . S
C1252 C1255 1.461 . S
C1252 H1272 0.932 . S
C1253 C1251 1.408 . S
C1253 C1252 1.310 . S
C1253 H1273 0.930 . S
C1254 C1255 1.474 . S
C1254 C1256 1.285 . S
C1254 H1274 0.929 . S
C1255 C1252 1.461 . S
C1255 C1254 1.474 . S
C1256 C1251 1.342 . S
C1256 C1254 1.285 . S
C1256 H1275 0.930 . S
C1257 C1260 1.424 . S
C1257 C1262 1.245 . S
C1257 C1263 1.428 . S
C1258 C1261 1.260 . S
C1258 C1262 1.477 . S
C1258 H1276 0.932 . S
C1259 C1260 1.384 . S
C1259 C1261 1.479 . S
C1259 H1277 0.929 . S
C1260 C1257 1.424 . S
C1260 C1259 1.384 . S
C1260 H1278 0.928 . S
C1261 C1258 1.260 . S
C1261 C1259 1.479 . S
C1262 C1257 1.245 . S
C1262 C1258 1.477 . S
C1262 H1279 0.932 . S
C1263 U1246 2.882 . S
C1263 C1257 1.428 . S
C1263 O1266 1.301 . S
C1263 O1267 1.282 . S
O1264 U1246 2.441 . S
O1264 C1250 1.249 . S
O1265 U1246 2.420 . S
O1265 C1250 1.202 . S
O1266 U1246 2.455 . S
O1266 C1263 1.301 . S
O1267 U1246 2.449 . S
O1267 C1263 1.282 . S
H1268 C1241 0.931 . S
H1269 C1243 0.929 . S
H1270 C1244 0.930 . S
H1271 C1245 0.931 . S
H1272 C1252 0.932 . S
H1273 C1253 0.930 . S
H1274 C1254 0.929 . S
H1275 C1256 0.930 . S
H1276 C1258 0.932 . S
H1277 C1259 0.929 . S
H1278 C1260 0.928 . S
H1279 C1262 0.932 . S
C1280 C1281 1.264 . S
C1280 C1285 1.479 . S
C1280 C1290 1.465 . S
C1281 C1280 1.264 . S
C1281 C1283 1.339 . S
C1281 H1308 0.931 . S
C1282 C1283 1.395 . S
C1282 C1284 1.320 . S
C1283 C1281 1.339 . S
C1283 C1282 1.395 . S
C1283 H1309 0.929 . S
C1284 C1282 1.320 . S
C1284 C1285 1.405 . S
C1284 H1310 0.930 . S
C1285 C1280 1.479 . S
C1285 C1284 1.405 . S
C1285 H1311 0.931 . S
U1286 O1287 2.454 . S
U1286 O1288 2.458 . S
U1286 C1289 2.984 . S
U1286 C1290 2.847 . S
U1286 C1303 2.882 . S
U1286 O1304 2.441 . S
U1286 O1305 2.420 . S
U1286 O1306 2.455 . S
U1286 O1307 2.449 . S
O1287 U1286 2.454 . S
O1287 C1289 1.353 . S
O1288 U1286 2.458 . S
O1288 C1289 1.286 . S
C1289 U1286 2.984 . S
C1289 O1287 1.353 . S
C1289 O1288 1.286 . S
C1289 C1291 1.363 . S
C1290 C1280 1.465 . S
C1290 U1286 2.847 . S
C1290 O1304 1.249 . S
C1290 O1305 1.202 . S
C1291 C1289 1.363 . S
C1291 C1293 1.408 . S
C1291 C1296 1.342 . S
C1292 C1293 1.310 . S
C1292 C1295 1.461 . S
C1292 H1312 0.932 . S
C1293 C1291 1.408 . S
C1293 C1292 1.310 . S
C1293 H1313 0.930 . S
C1294 C1295 1.474 . S
C1294 C1296 1.285 . S
C1294 H1314 0.929 . S
C1295 C1292 1.461 . S
C1295 C1294 1.474 . S
C1296 C1291 1.342 . S
C1296 C1294 1.285 . S
C1296 H1315 0.930 . S
C1297 C1300 1.424 . S
C1297 C1302 1.245 . S
C1297 C1303 1.428 . S
C1298 C1301 1.260 . S
C1298 C1302 1.477 . S
C1298 H1316 0.932 . S
C1299 C1300 1.384 . S
C1299 C1301 1.479 . S
C1299 H1317 0.929 . S
C1300 C1297 1.424 . S
C1300 C1299 1.384 . S
C1300 H1318 0.928 . S
C1301 C1298 1.260 . S
C1301 C1299 1.479 . S
C1302 C1297 1.245 . S
C1302 C1298 1.477 . S
C1302 H1319 0.932 . S
C1303 U1286 2.882 . S
C1303 C1297 1.428 . S
C1303 O1306 1.301 . S
C1303 O1307 1.282 . S
O1304 U1286 2.441 . S
O1304 C1290 1.249 . S
O1305 U1286 2.420 . S
O1305 C1290 1.202 . S
O1306 U1286 2.455 . S
O1306 C1303 1.301 . S
O1307 U1286 2.449 . S
O1307 C1303 1.282 . S
H1308 C1281 0.931 . S
H1309 C1283 0.929 . S
H1310 C1284 0.930 . S
H1311 C1285 0.931 . S
H1312 C1292 0.932 . S
H1313 C1293 0.930 . S
H1314 C1294 0.929 . S
H1315 C1296 0.930 . S
H1316 C1298 0.932 . S
H1317 C1299 0.929 . S
H1318 C1300 0.928 . S
H1319 C1302 0.932 . S
C1320 C1321 1.264 . S
C1320 C1325 1.479 . S
C1320 C1330 1.465 . S
C1321 C1320 1.264 . S
C1321 C1323 1.339 . S
C1321 H1348 0.931 . S
C1322 C1323 1.395 . S
C1322 C1324 1.320 . S
C1323 C1321 1.339 . S
C1323 C1322 1.395 . S
C1323 H1349 0.929 . S
C1324 C1322 1.320 . S
C1324 C1325 1.405 . S
C1324 H1350 0.930 . S
C1325 C1320 1.479 . S
C1325 C1324 1.405 . S
C1325 H1351 0.931 . S
U1326 O1327 2.454 . S
U1326 O1328 2.458 . S
U1326 C1329 2.984 . S
U1326 C1330 2.847 . S
U1326 C1343 2.882 . S
U1326 O1344 2.441 . S
U1326 O1345 2.420 . S
U1326 O1346 2.455 . S
U1326 O1347 2.449 . S
O1327 U1326 2.454 . S
O1327 C1329 1.353 . S
O1328 U1326 2.458 . S
O1328 C1329 1.286 . S
C1329 U1326 2.984 . S
C1329 O1327 1.353 . S
C1329 O1328 1.286 . S
C1329 C1331 1.363 . S
C1330 C1320 1.465 . S
C1330 U1326 2.847 . S
C1330 O1344 1.249 . S
C1330 O1345 1.202 . S
C1331 C1329 1.363 . S
C1331 C1333 1.408 . S
C1331 C1336 1.342 . S
C1332 C1333 1.310 . S
C1332 C1335 1.461 . S
C1332 H1352 0.932 . S
C1333 C1331 1.408 . S
C1333 C1332 1.310 . S
C1333 H1353 0.930 . S
C1334 C1335 1.474 . S
C1334 C1336 1.285 . S
C1334 H1354 0.929 . S
C1335 C1332 1.461 . S
C1335 C1334 1.474 . S
C1336 C1331 1.342 . S
C1336 C1334 1.285 . S
C1336 H1355 0.930 . S
C1337 C1340 1.424 . S
C1337 C1342 1.245 . S
C1337 C1343 1.428 . S
C1338 C1341 1.260 . S
C1338 C1342 1.477 . S
C1338 H1356 0.932 . S
C1339 C1340 1.384 . S
C1339 C1341 1.479 . S
C1339 H1357 0.929 . S
C1340 C1337 1.424 . S
C1340 C1339 1.384 . S
C1340 H1358 0.928 . S
C1341 C1338 1.260 . S
C1341 C1339 1.479 . S
C1342 C1337 1.245 . S
C1342 C1338 1.477 . S
C1342 H1359 0.932 . S
C1343 U1326 2.882 . S
C1343 C1337 1.428 . S
C1343 O1346 1.301 . S
C1343 O1347 1.282 . S
O1344 U1326 2.441 . S
O1344 C1330 1.249 . S
O1345 U1326 2.420 . S
O1345 C1330 1.202 . S
O1346 U1326 2.455 . S
O1346 C1343 1.301 . S
O1347 U1326 2.449 . S
O1347 C1343 1.282 . S
H1348 C1321 0.931 . S
H1349 C1323 0.929 . S
H1350 C1324 0.930 . S
H1351 C1325 0.931 . S
H1352 C1332 0.932 . S
H1353 C1333 0.930 . S
H1354 C1334 0.929 . S
H1355 C1336 0.930 . S
H1356 C1338 0.932 . S
H1357 C1339 0.929 . S
H1358 C1340 0.928 . S
H1359 C1342 0.932 . S
C1360 C1361 1.264 . S
C1360 C1365 1.479 . S
C1360 C1370 1.465 . S
C1361 C1360 1.264 . S
C1361 C1363 1.339 . S
C1361 H1388 0.931 . S
C1362 C1363 1.395 . S
C1362 C1364 1.320 . S
C1363 C1361 1.339 . S
C1363 C1362 1.395 . S
C1363 H1389 0.929 . S
C1364 C1362 1.320 . S
C1364 C1365 1.405 . S
C1364 H1390 0.930 . S
C1365 C1360 1.479 . S
C1365 C1364 1.405 . S
C1365 H1391 0.931 . S
U1366 O1367 2.454 . S
U1366 O1368 2.458 . S
U1366 C1369 2.984 . S
U1366 C1370 2.847 . S
U1366 C1383 2.882 . S
U1366 O1384 2.441 . S
U1366 O1385 2.420 . S
U1366 O1386 2.455 . S
U1366 O1387 2.449 . S
O1367 U1366 2.454 . S
O1367 C1369 1.353 . S
O1368 U1366 2.458 . S
O1368 C1369 1.286 . S
C1369 U1366 2.984 . S
C1369 O1367 1.353 . S
C1369 O1368 1.286 . S
C1369 C1371 1.363 . S
C1370 C1360 1.465 . S
C1370 U1366 2.847 . S
C1370 O1384 1.249 . S
C1370 O1385 1.202 . S
C1371 C1369 1.363 . S
C1371 C1373 1.408 . S
C1371 C1376 1.342 . S
C1372 C1373 1.310 . S
C1372 C1375 1.461 . S
C1372 H1392 0.932 . S
C1373 C1371 1.408 . S
C1373 C1372 1.310 . S
C1373 H1393 0.930 . S
C1374 C1375 1.474 . S
C1374 C1376 1.285 . S
C1374 H1394 0.929 . S
C1375 C1372 1.461 . S
C1375 C1374 1.474 . S
C1376 C1371 1.342 . S
C1376 C1374 1.285 . S
C1376 H1395 0.930 . S
C1377 C1380 1.424 . S
C1377 C1382 1.245 . S
C1377 C1383 1.428 . S
C1378 C1381 1.260 . S
C1378 C1382 1.477 . S
C1378 H1396 0.932 . S
C1379 C1380 1.384 . S
C1379 C1381 1.479 . S
C1379 H1397 0.929 . S
C1380 C1377 1.424 . S
C1380 C1379 1.384 . S
C1380 H1398 0.928 . S
C1381 C1378 1.260 . S
C1381 C1379 1.479 . S
C1382 C1377 1.245 . S
C1382 C1378 1.477 . S
C1382 H1399 0.932 . S
C1383 U1366 2.882 . S
C1383 C1377 1.428 . S
C1383 O1386 1.301 . S
C1383 O1387 1.282 . S
O1384 U1366 2.441 . S
O1384 C1370 1.249 . S
O1385 U1366 2.420 . S
O1385 C1370 1.202 . S
O1386 U1366 2.455 . S
O1386 C1383 1.301 . S
O1387 U1366 2.449 . S
O1387 C1383 1.282 . S
H1388 C1361 0.931 . S
H1389 C1363 0.929 . S
H1390 C1364 0.930 . S
H1391 C1365 0.931 . S
H1392 C1372 0.932 . S
H1393 C1373 0.930 . S
H1394 C1374 0.929 . S
H1395 C1376 0.930 . S
H1396 C1378 0.932 . S
H1397 C1379 0.929 . S
H1398 C1380 0.928 . S
H1399 C1382 0.932 . S
C1400 C1401 1.264 . S
C1400 C1405 1.479 . S
C1400 C1410 1.465 . S
C1401 C1400 1.264 . S
C1401 C1403 1.339 . S
C1401 H1428 0.931 . S
C1402 C1403 1.395 . S
C1402 C1404 1.320 . S
C1403 C1401 1.339 . S
C1403 C1402 1.395 . S
C1403 H1429 0.929 . S
C1404 C1402 1.320 . S
C1404 C1405 1.405 . S
C1404 H1430 0.930 . S
C1405 C1400 1.479 . S
C1405 C1404 1.405 . S
C1405 H1431 0.931 . S
U1406 O1407 2.454 . S
U1406 O1408 2.458 . S
U1406 C1409 2.984 . S
U1406 C1410 2.847 . S
U1406 C1423 2.882 . S
U1406 O1424 2.441 . S
U1406 O1425 2.420 . S
U1406 O1426 2.455 . S
U1406 O1427 2.449 . S
O1407 U1406 2.454 . S
O1407 C1409 1.353 . S
O1408 U1406 2.458 . S
O1408 C1409 1.286 . S
C1409 U1406 2.984 . S
C1409 O1407 1.353 . S
C1409 O1408 1.286 . S
C1409 C1411 1.363 . S
C1410 C1400 1.465 . S
C1410 U1406 2.847 . S
C1410 O1424 1.249 . S
C1410 O1425 1.202 . S
C1411 C1409 1.363 . S
C1411 C1413 1.408 . S
C1411 C1416 1.342 . S
C1412 C1413 1.310 . S
C1412 C1415 1.461 . S
C1412 H1432 0.932 . S
C1413 C1411 1.408 . S
C1413 C1412 1.310 . S
C1413 H1433 0.930 . S
C1414 C1415 1.474 . S
C1414 C1416 1.285 . S
C1414 H1434 0.929 . S
C1415 C1412 1.461 . S
C1415 C1414 1.474 . S
C1416 C1411 1.342 . S
C1416 C1414 1.285 . S
C1416 H1435 0.930 . S
C1417 C1420 1.424 . S
C1417 C1422 1.245 . S
C1417 C1423 1.428 . S
C1418 C1421 1.260 . S
C1418 C1422 1.477 . S
C1418 H1436 0.932 . S
C1419 C1420 1.384 . S
C1419 C1421 1.479 . S
C1419 H1437 0.929 . S
C1420 C1417 1.424 . S
C1420 C1419 1.384 . S
C1420 H1438 0.928 . S
C1421 C1418 1.260 . S
C1421 C1419 1.479 . S
C1422 C1417 1.245 . S
C1422 C1418 1.477 . S
C1422 H1439 0.932 . S
C1423 U1406 2.882 . S
C1423 C1417 1.428 . S
C1423 O1426 1.301 . S
C1423 O1427 1.282 . S
O1424 U1406 2.441 . S
O1424 C1410 1.249 . S
O1425 U1406 2.420 . S
O1425 C1410 1.202 . S
O1426 U1406 2.455 . S
O1426 C1423 1.301 . S
O1427 U1406 2.449 . S
O1427 C1423 1.282 . S
H1428 C1401 0.931 . S
H1429 C1403 0.929 . S
H1430 C1404 0.930 . S
H1431 C1405 0.931 . S
H1432 C1412 0.932 . S
H1433 C1413 0.930 . S
H1434 C1414 0.929 . S
H1435 C1416 0.930 . S
H1436 C1418 0.932 . S
H1437 C1419 0.929 . S
H1438 C1420 0.928 . S
H1439 C1422 0.932 . S
C1440 C1441 1.264 . S
C1440 C1445 1.479 . S
C1440 C1450 1.465 . S
C1441 C1440 1.264 . S
C1441 C1443 1.339 . S
C1441 H1468 0.931 . S
C1442 C1443 1.395 . S
C1442 C1444 1.320 . S
C1443 C1441 1.339 . S
C1443 C1442 1.395 . S
C1443 H1469 0.929 . S
C1444 C1442 1.320 . S
C1444 C1445 1.405 . S
C1444 H1470 0.930 . S
C1445 C1440 1.479 . S
C1445 C1444 1.405 . S
C1445 H1471 0.931 . S
U1446 O1447 2.454 . S
U1446 O1448 2.458 . S
U1446 C1449 2.984 . S
U1446 C1450 2.847 . S
U1446 C1463 2.882 . S
U1446 O1464 2.441 . S
U1446 O1465 2.420 . S
U1446 O1466 2.455 . S
U1446 O1467 2.449 . S
O1447 U1446 2.454 . S
O1447 C1449 1.353 . S
O1448 U1446 2.458 . S
O1448 C1449 1.286 . S
C1449 U1446 2.984 . S
C1449 O1447 1.353 . S
C1449 O1448 1.286 . S
C1449 C1451 1.363 . S
C1450 C1440 1.465 . S
C1450 U1446 2.847 . S
C1450 O1464 1.249 . S
C1450 O1465 1.202 . S
C1451 C1449 1.363 . S
C1451 C1453 1.408 . S
C1451 C1456 1.342 . S
C1452 C1453 1.310 . S
C1452 C1455 1.461 . S
C1452 H1472 0.932 . S
C1453 C1451 1.408 . S
C1453 C1452 1.310 . S
C1453 H1473 0.930 . S
C1454 C1455 1.474 . S
C1454 C1456 1.285 . S
C1454 H1474 0.929 . S
C1455 C1452 1.461 . S
C1455 C1454 1.474 . S
C1456 C1451 1.342 . S
C1456 C1454 1.285 . S
C1456 H1475 0.930 . S
C1457 C1460 1.424 . S
C1457 C1462 1.245 . S
C1457 C1463 1.428 . S
C1458 C1461 1.260 . S
C1458 C1462 1.477 . S
C1458 H1476 0.932 . S
C1459 C1460 1.384 . S
C1459 C1461 1.479 . S
C1459 H1477 0.929 . S
C1460 C1457 1.424 . S
C1460 C1459 1.384 . S
C1460 H1478 0.928 . S
C1461 C1458 1.260 . S
C1461 C1459 1.479 . S
C1462 C1457 1.245 . S
C1462 C1458 1.477 . S
C1462 H1479 0.932 . S
C1463 U1446 2.882 . S
C1463 C1457 1.428 . S
C1463 O1466 1.301 . S
C1463 O1467 1.282 . S
O1464 U1446 2.441 . S
O1464 C1450 1.249 . S
O1465 U1446 2.420 . S
O1465 C1450 1.202 . S
O1466 U1446 2.455 . S
O1466 C1463 1.301 . S
O1467 U1446 2.449 . S
O1467 C1463 1.282 . S
H1468 C1441 0.931 . S
H1469 C1443 0.929 . S
H1470 C1444 0.930 . S
H1471 C1445 0.931 . S
H1472 C1452 0.932 . S
H1473 C1453 0.930 . S
H1474 C1454 0.929 . S
H1475 C1456 0.930 . S
H1476 C1458 0.932 . S
H1477 C1459 0.929 . S
H1478 C1460 0.928 . S
H1479 C1462 0.932 . S
C1480 C1481 1.264 . S
C1480 C1485 1.479 . S
C1480 C1490 1.465 . S
C1481 C1480 1.264 . S
C1481 C1483 1.339 . S
C1481 H1508 0.931 . S
C1482 C1483 1.395 . S
C1482 C1484 1.320 . S
C1483 C1481 1.339 . S
C1483 C1482 1.395 . S
C1483 H1509 0.929 . S
C1484 C1482 1.320 . S
C1484 C1485 1.405 . S
C1484 H1510 0.930 . S
C1485 C1480 1.479 . S
C1485 C1484 1.405 . S
C1485 H1511 0.931 . S
U1486 O1487 2.454 . S
U1486 O1488 2.458 . S
U1486 C1489 2.984 . S
U1486 C1490 2.847 . S
U1486 C1503 2.882 . S
U1486 O1504 2.441 . S
U1486 O1505 2.420 . S
U1486 O1506 2.455 . S
U1486 O1507 2.449 . S
O1487 U1486 2.454 . S
O1487 C1489 1.353 . S
O1488 U1486 2.458 . S
O1488 C1489 1.286 . S
C1489 U1486 2.984 . S
C1489 O1487 1.353 . S
C1489 O1488 1.286 . S
C1489 C1491 1.363 . S
C1490 C1480 1.465 . S
C1490 U1486 2.847 . S
C1490 O1504 1.249 . S
C1490 O1505 1.202 . S
C1491 C1489 1.363 . S
C1491 C1493 1.408 . S
C1491 C1496 1.342 . S
C1492 C1493 1.310 . S
C1492 C1495 1.461 . S
C1492 H1512 0.932 . S
C1493 C1491 1.408 . S
C1493 C1492 1.310 . S
C1493 H1513 0.930 . S
C1494 C1495 1.474 . S
C1494 C1496 1.285 . S
C1494 H1514 0.929 . S
C1495 C1492 1.461 . S
C1495 C1494 1.474 . S
C1496 C1491 1.342 . S
C1496 C1494 1.285 . S
C1496 H1515 0.930 . S
C1497 C1500 1.424 . S
C1497 C1502 1.245 . S
C1497 C1503 1.428 . S
C1498 C1501 1.260 . S
C1498 C1502 1.477 . S
C1498 H1516 0.932 . S
C1499 C1500 1.384 . S
C1499 C1501 1.479 . S
C1499 H1517 0.929 . S
C1500 C1497 1.424 . S
C1500 C1499 1.384 . S
C1500 H1518 0.928 . S
C1501 C1498 1.260 . S
C1501 C1499 1.479 . S
C1502 C1497 1.245 . S
C1502 C1498 1.477 . S
C1502 H1519 0.932 . S
C1503 U1486 2.882 . S
C1503 C1497 1.428 . S
C1503 O1506 1.301 . S
C1503 O1507 1.282 . S
O1504 U1486 2.441 . S
O1504 C1490 1.249 . S
O1505 U1486 2.420 . S
O1505 C1490 1.202 . S
O1506 U1486 2.455 . S
O1506 C1503 1.301 . S
O1507 U1486 2.449 . S
O1507 C1503 1.282 . S
H1508 C1481 0.931 . S
H1509 C1483 0.929 . S
H1510 C1484 0.930 . S
H1511 C1485 0.931 . S
H1512 C1492 0.932 . S
H1513 C1493 0.930 . S
H1514 C1494 0.929 . S
H1515 C1496 0.930 . S
H1516 C1498 0.932 . S
H1517 C1499 0.929 . S
H1518 C1500 0.928 . S
H1519 C1502 0.932 . S
C1520 C1521 1.264 . S
C1520 C1525 1.479 . S
C1520 C1530 1.465 . S
C1521 C1520 1.264 . S
C1521 C1523 1.339 . S
C1521 H1548 0.931 . S
C1522 C1523 1.395 . S
C1522 C1524 1.320 . S
C1523 C1521 1.339 . S
C1523 C1522 1.395 . S
C1523 H1549 0.929 . S
C1524 C1522 1.320 . S
C1524 C1525 1.405 . S
C1524 H1550 0.930 . S
C1525 C1520 1.479 . S
C1525 C1524 1.405 . S
C1525 H1551 0.931 . S
U1526 O1527 2.454 . S
U1526 O1528 2.458 . S
U1526 C1529 2.984 . S
U1526 C1530 2.847 . S
U1526 C1543 2.882 . S
U1526 O1544 2.441 . S
U1526 O1545 2.420 . S
U1526 O1546 2.455 . S
U1526 O1547 2.449 . S
O1527 U1526 2.454 . S
O1527 C1529 1.353 . S
O1528 U1526 2.458 . S
O1528 C1529 1.286 . S
C1529 U1526 2.984 . S
C1529 O1527 1.353 . S
C1529 O1528 1.286 . S
C1529 C1531 1.363 . S
C1530 C1520 1.465 . S
C1530 U1526 2.847 . S
C1530 O1544 1.249 . S
C1530 O1545 1.202 . S
C1531 C1529 1.363 . S
C1531 C1533 1.408 . S
C1531 C1536 1.342 . S
C1532 C1533 1.310 . S
C1532 C1535 1.461 . S
C1532 H1552 0.932 . S
C1533 C1531 1.408 . S
C1533 C1532 1.310 . S
C1533 H1553 0.930 . S
C1534 C1535 1.474 . S
C1534 C1536 1.285 . S
C1534 H1554 0.929 . S
C1535 C1532 1.461 . S
C1535 C1534 1.474 . S
C1536 C1531 1.342 . S
C1536 C1534 1.285 . S
C1536 H1555 0.930 . S
C1537 C1540 1.424 . S
C1537 C1542 1.245 . S
C1537 C1543 1.428 . S
C1538 C1541 1.260 . S
C1538 C1542 1.477 . S
C1538 H1556 0.932 . S
C1539 C1540 1.384 . S
C1539 C1541 1.479 . S
C1539 H1557 0.929 . S
C1540 C1537 1.424 . S
C1540 C1539 1.384 . S
C1540 H1558 0.928 . S
C1541 C1538 1.260 . S
C1541 C1539 1.479 . S
C1542 C1537 1.245 . S
C1542 C1538 1.477 . S
C1542 H1559 0.932 . S
C1543 U1526 2.882 . S
C1543 C1537 1.428 . S
C1543 O1546 1.301 . S
C1543 O1547 1.282 . S
O1544 U1526 2.441 . S
O1544 C1530 1.249 . S
O1545 U1526 2.420 . S
O1545 C1530 1.202 . S
O1546 U1526 2.455 . S
O1546 C1543 1.301 . S
O1547 U1526 2.449 . S
O1547 C1543 1.282 . S
H1548 C1521 0.931 . S
H1549 C1523 0.929 . S
H1550 C1524 0.930 . S
H1551 C1525 0.931 . S
H1552 C1532 0.932 . S
H1553 C1533 0.930 . S
H1554 C1534 0.929 . S
H1555 C1536 0.930 . S
H1556 C1538 0.932 . S
H1557 C1539 0.929 . S
H1558 C1540 0.928 . S
H1559 C1542 0.932 . S
C1560 C1561 1.264 . S
C1560 C1565 1.479 . S
C1560 C1570 1.465 . S
C1561 C1560 1.264 . S
C1561 C1563 1.339 . S
C1561 H1588 0.931 . S
C1562 C1563 1.395 . S
C1562 C1564 1.320 . S
C1563 C1561 1.339 . S
C1563 C1562 1.395 . S
C1563 H1589 0.929 . S
C1564 C1562 1.320 . S
C1564 C1565 1.405 . S
C1564 H1590 0.930 . S
C1565 C1560 1.479 . S
C1565 C1564 1.405 . S
C1565 H1591 0.931 . S
U1566 O1567 2.454 . S
U1566 O1568 2.458 . S
U1566 C1569 2.984 . S
U1566 C1570 2.847 . S
U1566 C1583 2.882 . S
U1566 O1584 2.441 . S
U1566 O1585 2.420 . S
U1566 O1586 2.455 . S
U1566 O1587 2.449 . S
O1567 U1566 2.454 . S
O1567 C1569 1.353 . S
O1568 U1566 2.458 . S
O1568 C1569 1.286 . S
C1569 U1566 2.984 . S
C1569 O1567 1.353 . S
C1569 O1568 1.286 . S
C1569 C1571 1.363 . S
C1570 C1560 1.465 . S
C1570 U1566 2.847 . S
C1570 O1584 1.249 . S
C1570 O1585 1.202 . S
C1571 C1569 1.363 . S
C1571 C1573 1.408 . S
C1571 C1576 1.342 . S
C1572 C1573 1.310 . S
C1572 C1575 1.461 . S
C1572 H1592 0.932 . S
C1573 C1571 1.408 . S
C1573 C1572 1.310 . S
C1573 H1593 0.930 . S
C1574 C1575 1.474 . S
C1574 C1576 1.285 . S
C1574 H1594 0.929 . S
C1575 C1572 1.461 . S
C1575 C1574 1.474 . S
C1576 C1571 1.342 . S
C1576 C1574 1.285 . S
C1576 H1595 0.930 . S
C1577 C1580 1.424 . S
C1577 C1582 1.245 . S
C1577 C1583 1.428 . S
C1578 C1581 1.260 . S
C1578 C1582 1.477 . S
C1578 H1596 0.932 . S
C1579 C1580 1.384 . S
C1579 C1581 1.479 . S
C1579 H1597 0.929 . S
C1580 C1577 1.424 . S
C1580 C1579 1.384 . S
C1580 H1598 0.928 . S
C1581 C1578 1.260 . S
C1581 C1579 1.479 . S
C1582 C1577 1.245 . S
C1582 C1578 1.477 . S
C1582 H1599 0.932 . S
C1583 U1566 2.882 . S
C1583 C1577 1.428 . S
C1583 O1586 1.301 . S
C1583 O1587 1.282 . S
O1584 U1566 2.441 . S
O1584 C1570 1.249 . S
O1585 U1566 2.420 . S
O1585 C1570 1.202 . S
O1586 U1566 2.455 . S
O1586 C1583 1.301 . S
O1587 U1566 2.449 . S
O1587 C1583 1.282 . S
H1588 C1561 0.931 . S
H1589 C1563 0.929 . S
H1590 C1564 0.930 . S
H1591 C1565 0.931 . S
H1592 C1572 0.932 . S
H1593 C1573 0.930 . S
H1594 C1574 0.929 . S
H1595 C1576 0.930 . S
H1596 C1578 0.932 . S
H1597 C1579 0.929 . S
H1598 C1580 0.928 . S
H1599 C1582 0.932 . S
C1600 C1601 1.264 . S
C1600 C1605 1.479 . S
C1600 C1610 1.465 . S
C1601 C1600 1.264 . S
C1601 C1603 1.339 . S
C1601 H1628 0.931 . S
C1602 C1603 1.395 . S
C1602 C1604 1.320 . S
C1603 C1601 1.339 . S
C1603 C1602 1.395 . S
C1603 H1629 0.929 . S
C1604 C1602 1.320 . S
C1604 C1605 1.405 . S
C1604 H1630 0.930 . S
C1605 C1600 1.479 . S
C1605 C1604 1.405 . S
C1605 H1631 0.931 . S
U1606 O1607 2.454 . S
U1606 O1608 2.458 . S
U1606 C1609 2.984 . S
U1606 C1610 2.847 . S
U1606 C1623 2.882 . S
U1606 O1624 2.441 . S
U1606 O1625 2.420 . S
U1606 O1626 2.455 . S
U1606 O1627 2.449 . S
O1607 U1606 2.454 . S
O1607 C1609 1.353 . S
O1608 U1606 2.458 . S
O1608 C1609 1.286 . S
C1609 U1606 2.984 . S
C1609 O1607 1.353 . S
C1609 O1608 1.286 . S
C1609 C1611 1.363 . S
C1610 C1600 1.465 . S
C1610 U1606 2.847 . S
C1610 O1624 1.249 . S
C1610 O1625 1.202 . S
C1611 C1609 1.363 . S
C1611 C1613 1.408 . S
C1611 C1616 1.342 . S
C1612 C1613 1.310 . S
C1612 C1615 1.461 . S
C1612 H1632 0.932 . S
C1613 C1611 1.408 . S
C1613 C1612 1.310 . S
C1613 H1633 0.930 . S
C1614 C1615 1.474 . S
C1614 C1616 1.285 . S
C1614 H1634 0.929 . S
C1615 C1612 1.461 . S
C1615 C1614 1.474 . S
C1616 C1611 1.342 . S
C1616 C1614 1.285 . S
C1616 H1635 0.930 . S
C1617 C1620 1.424 . S
C1617 C1622 1.245 . S
C1617 C1623 1.428 . S
C1618 C1621 1.260 . S
C1618 C1622 1.477 . S
C1618 H1636 0.932 . S
C1619 C1620 1.384 . S
C1619 C1621 1.479 . S
C1619 H1637 0.929 . S
C1620 C1617 1.424 . S
C1620 C1619 1.384 . S
C1620 H1638 0.928 . S
C1621 C1618 1.260 . S
C1621 C1619 1.479 . S
C1622 C1617 1.245 . S
C1622 C1618 1.477 . S
C1622 H1639 0.932 . S
C1623 U1606 2.882 . S
C1623 C1617 1.428 . S
C1623 O1626 1.301 . S
C1623 O1627 1.282 . S
O1624 U1606 2.441 . S
O1624 C1610 1.249 . S
O1625 U1606 2.420 . S
O1625 C1610 1.202 . S
O1626 U1606 2.455 . S
O1626 C1623 1.301 . S
O1627 U1606 2.449 . S
O1627 C1623 1.282 . S
H1628 C1601 0.931 . S
H1629 C1603 0.929 . S
H1630 C1604 0.930 . S
H1631 C1605 0.931 . S
H1632 C1612 0.932 . S
H1633 C1613 0.930 . S
H1634 C1614 0.929 . S
H1635 C1616 0.930 . S
H1636 C1618 0.932 . S
H1637 C1619 0.929 . S
H1638 C1620 0.928 . S
H1639 C1622 0.932 . S
C1640 C1641 1.264 . S
C1640 C1645 1.479 . S
C1640 C1650 1.465 . S
C1641 C1640 1.264 . S
C1641 C1643 1.339 . S
C1641 H1668 0.931 . S
C1642 C1643 1.395 . S
C1642 C1644 1.320 . S
C1643 C1641 1.339 . S
C1643 C1642 1.395 . S
C1643 H1669 0.929 . S
C1644 C1642 1.320 . S
C1644 C1645 1.405 . S
C1644 H1670 0.930 . S
C1645 C1640 1.479 . S
C1645 C1644 1.405 . S
C1645 H1671 0.931 . S
U1646 O1647 2.454 . S
U1646 O1648 2.458 . S
U1646 C1649 2.984 . S
U1646 C1650 2.847 . S
U1646 C1663 2.882 . S
U1646 O1664 2.441 . S
U1646 O1665 2.420 . S
U1646 O1666 2.455 . S
U1646 O1667 2.449 . S
O1647 U1646 2.454 . S
O1647 C1649 1.353 . S
O1648 U1646 2.458 . S
O1648 C1649 1.286 . S
C1649 U1646 2.984 . S
C1649 O1647 1.353 . S
C1649 O1648 1.286 . S
C1649 C1651 1.363 . S
C1650 C1640 1.465 . S
C1650 U1646 2.847 . S
C1650 O1664 1.249 . S
C1650 O1665 1.202 . S
C1651 C1649 1.363 . S
C1651 C1653 1.408 . S
C1651 C1656 1.342 . S
C1652 C1653 1.310 . S
C1652 C1655 1.461 . S
C1652 H1672 0.932 . S
C1653 C1651 1.408 . S
C1653 C1652 1.310 . S
C1653 H1673 0.930 . S
C1654 C1655 1.474 . S
C1654 C1656 1.285 . S
C1654 H1674 0.929 . S
C1655 C1652 1.461 . S
C1655 C1654 1.474 . S
C1656 C1651 1.342 . S
C1656 C1654 1.285 . S
C1656 H1675 0.930 . S
C1657 C1660 1.424 . S
C1657 C1662 1.245 . S
C1657 C1663 1.428 . S
C1658 C1661 1.260 . S
C1658 C1662 1.477 . S
C1658 H1676 0.932 . S
C1659 C1660 1.384 . S
C1659 C1661 1.479 . S
C1659 H1677 0.929 . S
C1660 C1657 1.424 . S
C1660 C1659 1.384 . S
C1660 H1678 0.928 . S
C1661 C1658 1.260 . S
C1661 C1659 1.479 . S
C1662 C1657 1.245 . S
C1662 C1658 1.477 . S
C1662 H1679 0.932 . S
C1663 U1646 2.882 . S
C1663 C1657 1.428 . S
C1663 O1666 1.301 . S
C1663 O1667 1.282 . S
O1664 U1646 2.441 . S
O1664 C1650 1.249 . S
O1665 U1646 2.420 . S
O1665 C1650 1.202 . S
O1666 U1646 2.455 . S
O1666 C1663 1.301 . S
O1667 U1646 2.449 . S
O1667 C1663 1.282 . S
H1668 C1641 0.931 . S
H1669 C1643 0.929 . S
H1670 C1644 0.930 . S
H1671 C1645 0.931 . S
H1672 C1652 0.932 . S
H1673 C1653 0.930 . S
H1674 C1654 0.929 . S
H1675 C1656 0.930 . S
H1676 C1658 0.932 . S
H1677 C1659 0.929 . S
H1678 C1660 0.928 . S
H1679 C1662 0.932 . S
C1680 C1681 1.264 . S
C1680 C1685 1.479 . S
C1680 C1690 1.465 . S
C1681 C1680 1.264 . S
C1681 C1683 1.339 . S
C1681 H1708 0.931 . S
C1682 C1683 1.395 . S
C1682 C1684 1.320 . S
C1683 C1681 1.339 . S
C1683 C1682 1.395 . S
C1683 H1709 0.929 . S
C1684 C1682 1.320 . S
C1684 C1685 1.405 . S
C1684 H1710 0.930 . S
C1685 C1680 1.479 . S
C1685 C1684 1.405 . S
C1685 H1711 0.931 . S
U1686 O1687 2.454 . S
U1686 O1688 2.458 . S
U1686 C1689 2.984 . S
U1686 C1690 2.847 . S
U1686 C1703 2.882 . S
U1686 O1704 2.441 . S
U1686 O1705 2.420 . S
U1686 O1706 2.455 . S
U1686 O1707 2.449 . S
O1687 U1686 2.454 . S
O1687 C1689 1.353 . S
O1688 U1686 2.458 . S
O1688 C1689 1.286 . S
C1689 U1686 2.984 . S
C1689 O1687 1.353 . S
C1689 O1688 1.286 . S
C1689 C1691 1.363 . S
C1690 C1680 1.465 . S
C1690 U1686 2.847 . S
C1690 O1704 1.249 . S
C1690 O1705 1.202 . S
C1691 C1689 1.363 . S
C1691 C1693 1.408 . S
C1691 C1696 1.342 . S
C1692 C1693 1.310 . S
C1692 C1695 1.461 . S
C1692 H1712 0.932 . S
C1693 C1691 1.408 . S
C1693 C1692 1.310 . S
C1693 H1713 0.930 . S
C1694 C1695 1.474 . S
C1694 C1696 1.285 . S
C1694 H1714 0.929 . S
C1695 C1692 1.461 . S
C1695 C1694 1.474 . S
C1696 C1691 1.342 . S
C1696 C1694 1.285 . S
C1696 H1715 0.930 . S
C1697 C1700 1.424 . S
C1697 C1702 1.245 . S
C1697 C1703 1.428 . S
C1698 C1701 1.260 . S
C1698 C1702 1.477 . S
C1698 H1716 0.932 . S
C1699 C1700 1.384 . S
C1699 C1701 1.479 . S
C1699 H1717 0.929 . S
C1700 C1697 1.424 . S
C1700 C1699 1.384 . S
C1700 H1718 0.928 . S
C1701 C1698 1.260 . S
C1701 C1699 1.479 . S
C1702 C1697 1.245 . S
C1702 C1698 1.477 . S
C1702 H1719 0.932 . S
C1703 U1686 2.882 . S
C1703 C1697 1.428 . S
C1703 O1706 1.301 . S
C1703 O1707 1.282 . S
O1704 U1686 2.441 . S
O1704 C1690 1.249 . S
O1705 U1686 2.420 . S
O1705 C1690 1.202 . S
O1706 U1686 2.455 . S
O1706 C1703 1.301 . S
O1707 U1686 2.449 . S
O1707 C1703 1.282 . S
H1708 C1681 0.931 . S
H1709 C1683 0.929 . S
H1710 C1684 0.930 . S
H1711 C1685 0.931 . S
H1712 C1692 0.932 . S
H1713 C1693 0.930 . S
H1714 C1694 0.929 . S
H1715 C1696 0.930 . S
H1716 C1698 0.932 . S
H1717 C1699 0.929 . S
H1718 C1700 0.928 . S
H1719 C1702 0.932 . S
C1720 C1721 1.264 . S
C1720 C1725 1.479 . S
C1720 C1730 1.465 . S
C1721 C1720 1.264 . S
C1721 C1723 1.339 . S
C1721 H1748 0.931 . S
C1722 C1723 1.395 . S
C1722 C1724 1.320 . S
C1723 C1721 1.339 . S
C1723 C1722 1.395 . S
C1723 H1749 0.929 . S
C1724 C1722 1.320 . S
C1724 C1725 1.405 . S
C1724 H1750 0.930 . S
C1725 C1720 1.479 . S
C1725 C1724 1.405 . S
C1725 H1751 0.931 . S
U1726 O1727 2.454 . S
U1726 O1728 2.458 . S
U1726 C1729 2.984 . S
U1726 C1730 2.847 . S
U1726 C1743 2.882 . S
U1726 O1744 2.441 . S
U1726 O1745 2.420 . S
U1726 O1746 2.455 . S
U1726 O1747 2.449 . S
O1727 U1726 2.454 . S
O1727 C1729 1.353 . S
O1728 U1726 2.458 . S
O1728 C1729 1.286 . S
C1729 U1726 2.984 . S
C1729 O1727 1.353 . S
C1729 O1728 1.286 . S
C1729 C1731 1.363 . S
C1730 C1720 1.465 . S
C1730 U1726 2.847 . S
C1730 O1744 1.249 . S
C1730 O1745 1.202 . S
C1731 C1729 1.363 . S
C1731 C1733 1.408 . S
C1731 C1736 1.342 . S
C1732 C1733 1.310 . S
C1732 C1735 1.461 . S
C1732 H1752 0.932 . S
C1733 C1731 1.408 . S
C1733 C1732 1.310 . S
C1733 H1753 0.930 . S
C1734 C1735 1.474 . S
C1734 C1736 1.285 . S
C1734 H1754 0.929 . S
C1735 C1732 1.461 . S
C1735 C1734 1.474 . S
C1736 C1731 1.342 . S
C1736 C1734 1.285 . S
C1736 H1755 0.930 . S
C1737 C1740 1.424 . S
C1737 C1742 1.245 . S
C1737 C1743 1.428 . S
C1738 C1741 1.260 . S
C1738 C1742 1.477 . S
C1738 H1756 0.932 . S
C1739 C1740 1.384 . S
C1739 C1741 1.479 . S
C1739 H1757 0.929 . S
C1740 C1737 1.424 . S
C1740 C1739 1.384 . S
C1740 H1758 0.928 . S
C1741 C1738 1.260 . S
C1741 C1739 1.479 . S
C1742 C1737 1.245 . S
C1742 C1738 1.477 . S
C1742 H1759 0.932 . S
C1743 U1726 2.882 . S
C1743 C1737 1.428 . S
C1743 O1746 1.301 . S
C1743 O1747 1.282 . S
O1744 U1726 2.441 . S
O1744 C1730 1.249 . S
O1745 U1726 2.420 . S
O1745 C1730 1.202 . S
O1746 U1726 2.455 . S
O1746 C1743 1.301 . S
O1747 U1726 2.449 . S
O1747 C1743 1.282 . S
H1748 C1721 0.931 . S
H1749 C1723 0.929 . S
H1750 C1724 0.930 . S
H1751 C1725 0.931 . S
H1752 C1732 0.932 . S
H1753 C1733 0.930 . S
H1754 C1734 0.929 . S
H1755 C1736 0.930 . S
H1756 C1738 0.932 . S
H1757 C1739 0.929 . S
H1758 C1740 0.928 . S
H1759 C1742 0.932 . S
C1760 C1761 1.264 . S
C1760 C1765 1.479 . S
C1760 C1770 1.465 . S
C1761 C1760 1.264 . S
C1761 C1763 1.339 . S
C1761 H1788 0.931 . S
C1762 C1763 1.395 . S
C1762 C1764 1.320 . S
C1763 C1761 1.339 . S
C1763 C1762 1.395 . S
C1763 H1789 0.929 . S
C1764 C1762 1.320 . S
C1764 C1765 1.405 . S
C1764 H1790 0.930 . S
C1765 C1760 1.479 . S
C1765 C1764 1.405 . S
C1765 H1791 0.931 . S
U1766 O1767 2.454 . S
U1766 O1768 2.458 . S
U1766 C1769 2.984 . S
U1766 C1770 2.847 . S
U1766 C1783 2.882 . S
U1766 O1784 2.441 . S
U1766 O1785 2.420 . S
U1766 O1786 2.455 . S
U1766 O1787 2.449 . S
O1767 U1766 2.454 . S
O1767 C1769 1.353 . S
O1768 U1766 2.458 . S
O1768 C1769 1.286 . S
C1769 U1766 2.984 . S
C1769 O1767 1.353 . S
C1769 O1768 1.286 . S
C1769 C1771 1.363 . S
C1770 C1760 1.465 . S
C1770 U1766 2.847 . S
C1770 O1784 1.249 . S
C1770 O1785 1.202 . S
C1771 C1769 1.363 . S
C1771 C1773 1.408 . S
C1771 C1776 1.342 . S
C1772 C1773 1.310 . S
C1772 C1775 1.461 . S
C1772 H1792 0.932 . S
C1773 C1771 1.408 . S
C1773 C1772 1.310 . S
C1773 H1793 0.930 . S
C1774 C1775 1.474 . S
C1774 C1776 1.285 . S
C1774 H1794 0.929 . S
C1775 C1772 1.461 . S
C1775 C1774 1.474 . S
C1776 C1771 1.342 . S
C1776 C1774 1.285 . S
C1776 H1795 0.930 . S
C1777 C1780 1.424 . S
C1777 C1782 1.245 . S
C1777 C1783 1.428 . S
C1778 C1781 1.260 . S
C1778 C1782 1.477 . S
C1778 H1796 0.932 . S
C1779 C1780 1.384 . S
C1779 C1781 1.479 . S
C1779 H1797 0.929 . S
C1780 C1777 1.424 . S
C1780 C1779 1.384 . S
C1780 H1798 0.928 . S
C1781 C1778 1.260 . S
C1781 C1779 1.479 . S
C1782 C1777 1.245 . S
C1782 C1778 1.477 . S
C1782 H1799 0.932 . S
C1783 U1766 2.882 . S
C1783 C1777 1.428 . S
C1783 O1786 1.301 . S
C1783 O1787 1.282 . S
O1784 U1766 2.441 . S
O1784 C1770 1.249 . S
O1785 U1766 2.420 . S
O1785 C1770 1.202 . S
O1786 U1766 2.455 . S
O1786 C1783 1.301 . S
O1787 U1766 2.449 . S
O1787 C1783 1.282 . S
H1788 C1761 0.931 . S
H1789 C1763 0.929 . S
H1790 C1764 0.930 . S
H1791 C1765 0.931 . S
H1792 C1772 0.932 . S
H1793 C1773 0.930 . S
H1794 C1774 0.929 . S
H1795 C1776 0.930 . S
H1796 C1778 0.932 . S
H1797 C1779 0.929 . S
H1798 C1780 0.928 . S
H1799 C1782 0.932 . S
C1800 C1801 1.264 . S
C1800 C1805 1.479 . S
C1800 C1810 1.465 . S
C1801 C1800 1.264 . S
C1801 C1803 1.339 . S
C1801 H1828 0.931 . S
C1802 C1803 1.395 . S
C1802 C1804 1.320 . S
C1803 C1801 1.339 . S
C1803 C1802 1.395 . S
C1803 H1829 0.929 . S
C1804 C1802 1.320 . S
C1804 C1805 1.405 . S
C1804 H1830 0.930 . S
C1805 C1800 1.479 . S
C1805 C1804 1.405 . S
C1805 H1831 0.931 . S
U1806 O1807 2.454 . S
U1806 O1808 2.458 . S
U1806 C1809 2.984 . S
U1806 C1810 2.847 . S
U1806 C1823 2.882 . S
U1806 O1824 2.441 . S
U1806 O1825 2.420 . S
U1806 O1826 2.455 . S
U1806 O1827 2.449 . S
O1807 U1806 2.454 . S
O1807 C1809 1.353 . S
O1808 U1806 2.458 . S
O1808 C1809 1.286 . S
C1809 U1806 2.984 . S
C1809 O1807 1.353 . S
C1809 O1808 1.286 . S
C1809 C1811 1.363 . S
C1810 C1800 1.465 . S
C1810 U1806 2.847 . S
C1810 O1824 1.249 . S
C1810 O1825 1.202 . S
C1811 C1809 1.363 . S
C1811 C1813 1.408 . S
C1811 C1816 1.342 . S
C1812 C1813 1.310 . S
C1812 C1815 1.461 . S
C1812 H1832 0.932 . S
C1813 C1811 1.408 . S
C1813 C1812 1.310 . S
C1813 H1833 0.930 . S
C1814 C1815 1.474 . S
C1814 C1816 1.285 . S
C1814 H1834 0.929 . S
C1815 C1812 1.461 . S
C1815 C1814 1.474 . S
C1816 C1811 1.342 . S
C1816 C1814 1.285 . S
C1816 H1835 0.930 . S
C1817 C1820 1.424 . S
C1817 C1822 1.245 . S
C1817 C1823 1.428 . S
C1818 C1821 1.260 . S
C1818 C1822 1.477 . S
C1818 H1836 0.932 . S
C1819 C1820 1.384 . S
C1819 C1821 1.479 . S
C1819 H1837 0.929 . S
C1820 C1817 1.424 . S
C1820 C1819 1.384 . S
C1820 H1838 0.928 . S
C1821 C1818 1.260 . S
C1821 C1819 1.479 . S
C1822 C1817 1.245 . S
C1822 C1818 1.477 . S
C1822 H1839 0.932 . S
C1823 U1806 2.882 . S
C1823 C1817 1.428 . S
C1823 O1826 1.301 . S
C1823 O1827 1.282 . S
O1824 U1806 2.441 . S
O1824 C1810 1.249 . S
O1825 U1806 2.420 . S
O1825 C1810 1.202 . S
O1826 U1806 2.455 . S
O1826 C1823 1.301 . S
O1827 U1806 2.449 . S
O1827 C1823 1.282 . S
H1828 C1801 0.931 . S
H1829 C1803 0.929 . S
H1830 C1804 0.930 . S
H1831 C1805 0.931 . S
H1832 C1812 0.932 . S
H1833 C1813 0.930 . S
H1834 C1814 0.929 . S
H1835 C1816 0.930 . S
H1836 C1818 0.932 . S
H1837 C1819 0.929 . S
H1838 C1820 0.928 . S
H1839 C1822 0.932 . S
C1840 C1841 1.264 . S
C1840 C1845 1.479 . S
C1840 C1850 1.465 . S
C1841 C1840 1.264 . S
C1841 C1843 1.339 . S
C1841 H1868 0.931 . S
C1842 C1843 1.395 . S
C1842 C1844 1.320 . S
C1843 C1841 1.339 . S
C1843 C1842 1.395 . S
C1843 H1869 0.929 . S
C1844 C1842 1.320 . S
C1844 C1845 1.405 . S
C1844 H1870 0.930 . S
C1845 C1840 1.479 . S
C1845 C1844 1.405 . S
C1845 H1871 0.931 . S
U1846 O1847 2.454 . S
U1846 O1848 2.458 . S
U1846 C1849 2.984 . S
U1846 C1850 2.847 . S
U1846 C1863 2.882 . S
U1846 O1864 2.441 . S
U1846 O1865 2.420 . S
U1846 O1866 2.455 . S
U1846 O1867 2.449 . S
O1847 U1846 2.454 . S
O1847 C1849 1.353 . S
O1848 U1846 2.458 . S
O1848 C1849 1.286 . S
C1849 U1846 2.984 . S
C1849 O1847 1.353 . S
C1849 O1848 1.286 . S
C1849 C1851 1.363 . S
C1850 C1840 1.465 . S
C1850 U1846 2.847 . S
C1850 O1864 1.249 . S
C1850 O1865 1.202 . S
C1851 C1849 1.363 . S
C1851 C1853 1.408 . S
C1851 C1856 1.342 . S
C1852 C1853 1.310 . S
C1852 C1855 1.461 . S
C1852 H1872 0.932 . S
C1853 C1851 1.408 . S
C1853 C1852 1.310 . S
C1853 H1873 0.930 . S
C1854 C1855 1.474 . S
C1854 C1856 1.285 . S
C1854 H1874 0.929 . S
C1855 C1852 1.461 . S
C1855 C1854 1.474 . S
C1856 C1851 1.342 . S
C1856 C1854 1.285 . S
C1856 H1875 0.930 . S
C1857 C1860 1.424 . S
C1857 C1862 1.245 . S
C1857 C1863 1.428 . S
C1858 C1861 1.260 . S
C1858 C1862 1.477 . S
C1858 H1876 0.932 . S
C1859 C1860 1.384 . S
C1859 C1861 1.479 . S
C1859 H1877 0.929 . S
C1860 C1857 1.424 . S
C1860 C1859 1.384 . S
C1860 H1878 0.928 . S
C1861 C1858 1.260 . S
C1861 C1859 1.479 . S
C1862 C1857 1.245 . S
C1862 C1858 1.477 . S
C1862 H1879 0.932 . S
C1863 U1846 2.882 . S
C1863 C1857 1.428 . S
C1863 O1866 1.301 . S
C1863 O1867 1.282 . S
O1864 U1846 2.441 . S
O1864 C1850 1.249 . S
O1865 U1846 2.420 . S
O1865 C1850 1.202 . S
O1866 U1846 2.455 . S
O1866 C1863 1.301 . S
O1867 U1846 2.449 . S
O1867 C1863 1.282 . S
H1868 C1841 0.931 . S
H1869 C1843 0.929 . S
H1870 C1844 0.930 . S
H1871 C1845 0.931 . S
H1872 C1852 0.932 . S
H1873 C1853 0.930 . S
H1874 C1854 0.929 . S
H1875 C1856 0.930 . S
H1876 C1858 0.932 . S
H1877 C1859 0.929 . S
H1878 C1860 0.928 . S
H1879 C1862 0.932 . S
C1880 C1881 1.264 . S
C1880 C1885 1.479 . S
C1880 C1890 1.465 . S
C1881 C1880 1.264 . S
C1881 C1883 1.339 . S
C1881 H1908 0.931 . S
C1882 C1883 1.395 . S
C1882 C1884 1.320 . S
C1883 C1881 1.339 . S
C1883 C1882 1.395 . S
C1883 H1909 0.929 . S
C1884 C1882 1.320 . S
C1884 C1885 1.405 . S
C1884 H1910 0.930 . S
C1885 C1880 1.479 . S
C1885 C1884 1.405 . S
C1885 H1911 0.931 . S
U1886 O1887 2.454 . S
U1886 O1888 2.458 . S
U1886 C1889 2.984 . S
U1886 C1890 2.847 . S
U1886 C1903 2.882 . S
U1886 O1904 2.441 . S
U1886 O1905 2.420 . S
U1886 O1906 2.455 . S
U1886 O1907 2.449 . S
O1887 U1886 2.454 . S
O1887 C1889 1.353 . S
O1888 U1886 2.458 . S
O1888 C1889 1.286 . S
C1889 U1886 2.984 . S
C1889 O1887 1.353 . S
C1889 O1888 1.286 . S
C1889 C1891 1.363 . S
C1890 C1880 1.465 . S
C1890 U1886 2.847 . S
C1890 O1904 1.249 . S
C1890 O1905 1.202 . S
C1891 C1889 1.363 . S
C1891 C1893 1.408 . S
C1891 C1896 1.342 . S
C1892 C1893 1.310 . S
C1892 C1895 1.461 . S
C1892 H1912 0.932 . S
C1893 C1891 1.408 . S
C1893 C1892 1.310 . S
C1893 H1913 0.930 . S
C1894 C1895 1.474 . S
C1894 C1896 1.285 . S
C1894 H1914 0.929 . S
C1895 C1892 1.461 . S
C1895 C1894 1.474 . S
C1896 C1891 1.342 . S
C1896 C1894 1.285 . S
C1896 H1915 0.930 . S
C1897 C1900 1.424 . S
C1897 C1902 1.245 . S
C1897 C1903 1.428 . S
C1898 C1901 1.260 . S
C1898 C1902 1.477 . S
C1898 H1916 0.932 . S
C1899 C1900 1.384 . S
C1899 C1901 1.479 . S
C1899 H1917 0.929 . S
C1900 C1897 1.424 . S
C1900 C1899 1.384 . S
C1900 H1918 0.928 . S
C1901 C1898 1.260 . S
C1901 C1899 1.479 . S
C1902 C1897 1.245 . S
C1902 C1898 1.477 . S
C1902 H1919 0.932 . S
C1903 U1886 2.882 . S
C1903 C1897 1.428 . S
C1903 O1906 1.301 . S
C1903 O1907 1.282 . S
O1904 U1886 2.441 . S
O1904 C1890 1.249 . S
O1905 U1886 2.420 . S
O1905 C1890 1.202 . S
O1906 U1886 2.455 . S
O1906 C1903 1.301 . S
O1907 U1886 2.449 . S
O1907 C1903 1.282 . S
H1908 C1881 0.931 . S
H1909 C1883 0.929 . S
H1910 C1884 0.930 . S
H1911 C1885 0.931 . S
H1912 C1892 0.932 . S
H1913 C1893 0.930 . S
H1914 C1894 0.929 . S
H1915 C1896 0.930 . S
H1916 C1898 0.932 . S
H1917 C1899 0.929 . S
H1918 C1900 0.928 . S
H1919 C1902 0.932 . S
C1920 C1921 1.264 . S
C1920 C1925 1.479 . S
C1920 C1930 1.465 . S
C1921 C1920 1.264 . S
C1921 C1923 1.339 . S
C1921 H1948 0.931 . S
C1922 C1923 1.395 . S
C1922 C1924 1.320 . S
C1923 C1921 1.339 . S
C1923 C1922 1.395 . S
C1923 H1949 0.929 . S
C1924 C1922 1.320 . S
C1924 C1925 1.405 . S
C1924 H1950 0.930 . S
C1925 C1920 1.479 . S
C1925 C1924 1.405 . S
C1925 H1951 0.931 . S
U1926 O1927 2.454 . S
U1926 O1928 2.458 . S
U1926 C1929 2.984 . S
U1926 C1930 2.847 . S
U1926 C1943 2.882 . S
U1926 O1944 2.441 . S
U1926 O1945 2.420 . S
U1926 O1946 2.455 . S
U1926 O1947 2.449 . S
O1927 U1926 2.454 . S
O1927 C1929 1.353 . S
O1928 U1926 2.458 . S
O1928 C1929 1.286 . S
C1929 U1926 2.984 . S
C1929 O1927 1.353 . S
C1929 O1928 1.286 . S
C1929 C1931 1.363 . S
C1930 C1920 1.465 . S
C1930 U1926 2.847 . S
C1930 O1944 1.249 . S
C1930 O1945 1.202 . S
C1931 C1929 1.363 . S
C1931 C1933 1.408 . S
C1931 C1936 1.342 . S
C1932 C1933 1.310 . S
C1932 C1935 1.461 . S
C1932 H1952 0.932 . S
C1933 C1931 1.408 . S
C1933 C1932 1.310 . S
C1933 H1953 0.930 . S
C1934 C1935 1.474 . S
C1934 C1936 1.285 . S
C1934 H1954 0.929 . S
C1935 C1932 1.461 . S
C1935 C1934 1.474 . S
C1936 C1931 1.342 . S
C1936 C1934 1.285 . S
C1936 H1955 0.930 . S
C1937 C1940 1.424 . S
C1937 C1942 1.245 . S
C1937 C1943 1.428 . S
C1938 C1941 1.260 . S
C1938 C1942 1.477 . S
C1938 H1956 0.932 . S
C1939 C1940 1.384 . S
C1939 C1941 1.479 . S
C1939 H1957 0.929 . S
C1940 C1937 1.424 . S
C1940 C1939 1.384 . S
C1940 H1958 0.928 . S
C1941 C1938 1.260 . S
C1941 C1939 1.479 . S
C1942 C1937 1.245 . S
C1942 C1938 1.477 . S
C1942 H1959 0.932 . S
C1943 U1926 2.882 . S
C1943 C1937 1.428 . S
C1943 O1946 1.301 . S
C1943 O1947 1.282 . S
O1944 U1926 2.441 . S
O1944 C1930 1.249 . S
O1945 U1926 2.420 . S
O1945 C1930 1.202 . S
O1946 U1926 2.455 . S
O1946 C1943 1.301 . S
O1947 U1926 2.449 . S
O1947 C1943 1.282 . S
H1948 C1921 0.931 . S
H1949 C1923 0.929 . S
H1950 C1924 0.930 . S
H1951 C1925 0.931 . S
H1952 C1932 0.932 . S
H1953 C1933 0.930 . S
H1954 C1934 0.929 . S
H1955 C1936 0.930 . S
H1956 C1938 0.932 . S
H1957 C1939 0.929 . S
H1958 C1940 0.928 . S
H1959 C1942 0.932 . S
C1960 C1961 1.264 . S
C1960 C1965 1.479 . S
C1960 C1970 1.465 . S
C1961 C1960 1.264 . S
C1961 C1963 1.339 . S
C1961 H1988 0.931 . S
C1962 C1963 1.395 . S
C1962 C1964 1.320 . S
C1963 C1961 1.339 . S
C1963 C1962 1.395 . S
C1963 H1989 0.929 . S
C1964 C1962 1.320 . S
C1964 C1965 1.405 . S
C1964 H1990 0.930 . S
C1965 C1960 1.479 . S
C1965 C1964 1.405 . S
C1965 H1991 0.931 . S
U1966 O1967 2.454 . S
U1966 O1968 2.458 . S
U1966 C1969 2.984 . S
U1966 C1970 2.847 . S
U1966 C1983 2.882 . S
U1966 O1984 2.441 . S
U1966 O1985 2.420 . S
U1966 O1986 2.455 . S
U1966 O1987 2.449 . S
O1967 U1966 2.454 . S
O1967 C1969 1.353 . S
O1968 U1966 2.458 . S
O1968 C1969 1.286 . S
C1969 U1966 2.984 . S
C1969 O1967 1.353 . S
C1969 O1968 1.286 . S
C1969 C1971 1.363 . S
C1970 C1960 1.465 . S
C1970 U1966 2.847 . S
C1970 O1984 1.249 . S
C1970 O1985 1.202 . S
C1971 C1969 1.363 . S
C1971 C1973 1.408 . S
C1971 C1976 1.342 . S
C1972 C1973 1.310 . S
C1972 C1975 1.461 . S
C1972 H1992 0.932 . S
C1973 C1971 1.408 . S
C1973 C1972 1.310 . S
C1973 H1993 0.930 . S
C1974 C1975 1.474 . S
C1974 C1976 1.285 . S
C1974 H1994 0.929 . S
C1975 C1972 1.461 . S
C1975 C1974 1.474 . S
C1976 C1971 1.342 . S
C1976 C1974 1.285 . S
C1976 H1995 0.930 . S
C1977 C1980 1.424 . S
C1977 C1982 1.245 . S
C1977 C1983 1.428 . S
C1978 C1981 1.260 . S
C1978 C1982 1.477 . S
C1978 H1996 0.932 . S
C1979 C1980 1.384 . S
C1979 C1981 1.479 . S
C1979 H1997 0.929 . S
C1980 C1977 1.424 . S
C1980 C1979 1.384 . S
C1980 H1998 0.928 . S
C1981 C1978 1.260 . S
C1981 C1979 1.479 . S
C1982 C1977 1.245 . S
C1982 C1978 1.477 . S
C1982 H1999 0.932 . S
C1983 U1966 2.882 . S
C1983 C1977 1.428 . S
C1983 O1986 1.301 . S
C1983 O1987 1.282 . S
O1984 U1966 2.441 . S
O1984 C1970 1.249 . S
O1985 U1966 2.420 . S
O1985 C1970 1.202 . S
O1986 U1966 2.455 . S
O1986 C1983 1.301 . S
O1987 U1966 2.449 . S
O1987 C1983 1.282 . S
H1988 C1961 0.931 . S
H1989 C1963 0.929 . S
H1990 C1964 0.930 . S
H1991 C1965 0.931 . S
H1992 C1972 0.932 . S
H1993 C1973 0.930 . S
H1994 C1974 0.929 . S
H1995 C1976 0.930 . S
H1996 C1978 0.932 . S
H1997 C1979 0.929 . S
H1998 C1980 0.928 . S
H1999 C1982 0.932 . S
C2000 C2001 1.264 . S
C2000 C2005 1.479 . S
C2000 C2010 1.465 . S
C2001 C2000 1.264 . S
C2001 C2003 1.339 . S
C2001 H2028 0.931 . S
C2002 C2003 1.395 . S
C2002 C2004 1.320 . S
C2003 C2001 1.339 . S
C2003 C2002 1.395 . S
C2003 H2029 0.929 . S
C2004 C2002 1.320 . S
C2004 C2005 1.405 . S
C2004 H2030 0.930 . S
C2005 C2000 1.479 . S
C2005 C2004 1.405 . S
C2005 H2031 0.931 . S
U2006 O2007 2.454 . S
U2006 O2008 2.458 . S
U2006 C2009 2.984 . S
U2006 C2010 2.847 . S
U2006 C2023 2.882 . S
U2006 O2024 2.441 . S
U2006 O2025 2.420 . S
U2006 O2026 2.455 . S
U2006 O2027 2.449 . S
O2007 U2006 2.454 . S
O2007 C2009 1.353 . S
O2008 U2006 2.458 . S
O2008 C2009 1.286 . S
C2009 U2006 2.984 . S
C2009 O2007 1.353 . S
C2009 O2008 1.286 . S
C2009 C2011 1.363 . S
C2010 C2000 1.465 . S
C2010 U2006 2.847 . S
C2010 O2024 1.249 . S
C2010 O2025 1.202 . S
C2011 C2009 1.363 . S
C2011 C2013 1.408 . S
C2011 C2016 1.342 . S
C2012 C2013 1.310 . S
C2012 C2015 1.461 . S
C2012 H2032 0.932 . S
C2013 C2011 1.408 . S
C2013 C2012 1.310 . S
C2013 H2033 0.930 . S
C2014 C2015 1.474 . S
C2014 C2016 1.285 . S
C2014 H2034 0.929 . S
C2015 C2012 1.461 . S
C2015 C2014 1.474 . S
C2016 C2011 1.342 . S
C2016 C2014 1.285 . S
C2016 H2035 0.930 . S
C2017 C2020 1.424 . S
C2017 C2022 1.245 . S
C2017 C2023 1.428 . S
C2018 C2021 1.260 . S
C2018 C2022 1.477 . S
C2018 H2036 0.932 . S
C2019 C2020 1.384 . S
C2019 C2021 1.479 . S
C2019 H2037 0.929 . S
C2020 C2017 1.424 . S
C2020 C2019 1.384 . S
C2020 H2038 0.928 . S
C2021 C2018 1.260 . S
C2021 C2019 1.479 . S
C2022 C2017 1.245 . S
C2022 C2018 1.477 . S
C2022 H2039 0.932 . S
C2023 U2006 2.882 . S
C2023 C2017 1.428 . S
C2023 O2026 1.301 . S
C2023 O2027 1.282 . S
O2024 U2006 2.441 . S
O2024 C2010 1.249 . S
O2025 U2006 2.420 . S
O2025 C2010 1.202 . S
O2026 U2006 2.455 . S
O2026 C2023 1.301 . S
O2027 U2006 2.449 . S
O2027 C2023 1.282 . S
H2028 C2001 0.931 . S
H2029 C2003 0.929 . S
H2030 C2004 0.930 . S
H2031 C2005 0.931 . S
H2032 C2012 0.932 . S
H2033 C2013 0.930 . S
H2034 C2014 0.929 . S
H2035 C2016 0.930 . S
H2036 C2018 0.932 . S
H2037 C2019 0.929 . S
H2038 C2020 0.928 . S
H2039 C2022 0.932 . S
C2040 C2041 1.264 . S
C2040 C2045 1.479 . S
C2040 C2050 1.465 . S
C2041 C2040 1.264 . S
C2041 C2043 1.339 . S
C2041 H2068 0.931 . S
C2042 C2043 1.395 . S
C2042 C2044 1.320 . S
C2043 C2041 1.339 . S
C2043 C2042 1.395 . S
C2043 H2069 0.929 . S
C2044 C2042 1.320 . S
C2044 C2045 1.405 . S
C2044 H2070 0.930 . S
C2045 C2040 1.479 . S
C2045 C2044 1.405 . S
C2045 H2071 0.931 . S
U2046 O2047 2.454 . S
U2046 O2048 2.458 . S
U2046 C2049 2.984 . S
U2046 C2050 2.847 . S
U2046 C2063 2.882 . S
U2046 O2064 2.441 . S
U2046 O2065 2.420 . S
U2046 O2066 2.455 . S
U2046 O2067 2.449 . S
O2047 U2046 2.454 . S
O2047 C2049 1.353 . S
O2048 U2046 2.458 . S
O2048 C2049 1.286 . S
C2049 U2046 2.984 . S
C2049 O2047 1.353 . S
C2049 O2048 1.286 . S
C2049 C2051 1.363 . S
C2050 C2040 1.465 . S
C2050 U2046 2.847 . S
C2050 O2064 1.249 . S
C2050 O2065 1.202 . S
C2051 C2049 1.363 . S
C2051 C2053 1.408 . S
C2051 C2056 1.342 . S
C2052 C2053 1.310 . S
C2052 C2055 1.461 . S
C2052 H2072 0.932 . S
C2053 C2051 1.408 . S
C2053 C2052 1.310 . S
C2053 H2073 0.930 . S
C2054 C2055 1.474 . S
C2054 C2056 1.285 . S
C2054 H2074 0.929 . S
C2055 C2052 1.461 . S
C2055 C2054 1.474 . S
C2056 C2051 1.342 . S
C2056 C2054 1.285 . S
C2056 H2075 0.930 . S
C2057 C2060 1.424 . S
C2057 C2062 1.245 . S
C2057 C2063 1.428 . S
C2058 C2061 1.260 . S
C2058 C2062 1.477 . S
C2058 H2076 0.932 . S
C2059 C2060 1.384 . S
C2059 C2061 1.479 . S
C2059 H2077 0.929 . S
C2060 C2057 1.424 . S
C2060 C2059 1.384 . S
C2060 H2078 0.928 . S
C2061 C2058 1.260 . S
C2061 C2059 1.479 . S
C2062 C2057 1.245 . S
C2062 C2058 1.477 . S
C2062 H2079 0.932 . S
C2063 U2046 2.882 . S
C2063 C2057 1.428 . S
C2063 O2066 1.301 . S
C2063 O2067 1.282 . S
O2064 U2046 2.441 . S
O2064 C2050 1.249 . S
O2065 U2046 2.420 . S
O2065 C2050 1.202 . S
O2066 U2046 2.455 . S
O2066 C2063 1.301 . S
O2067 U2046 2.449 . S
O2067 C2063 1.282 . S
H2068 C2041 0.931 . S
H2069 C2043 0.929 . S
H2070 C2044 0.930 . S
H2071 C2045 0.931 . S
H2072 C2052 0.932 . S
H2073 C2053 0.930 . S
H2074 C2054 0.929 . S
H2075 C2056 0.930 . S
H2076 C2058 0.932 . S
H2077 C2059 0.929 . S
H2078 C2060 0.928 . S
H2079 C2062 0.932 . S
C2080 C2081 1.264 . S
C2080 C2085 1.479 . S
C2080 C2090 1.465 . S
C2081 C2080 1.264 . S
C2081 C2083 1.339 . S
C2081 H2108 0.931 . S
C2082 C2083 1.395 . S
C2082 C2084 1.320 . S
C2083 C2081 1.339 . S
C2083 C2082 1.395 . S
C2083 H2109 0.929 . S
C2084 C2082 1.320 . S
C2084 C2085 1.405 . S
C2084 H2110 0.930 . S
C2085 C2080 1.479 . S
C2085 C2084 1.405 . S
C2085 H2111 0.931 . S
U2086 O2087 2.454 . S
U2086 O2088 2.458 . S
U2086 C2089 2.984 . S
U2086 C2090 2.847 . S
U2086 C2103 2.882 . S
U2086 O2104 2.441 . S
U2086 O2105 2.420 . S
U2086 O2106 2.455 . S
U2086 O2107 2.449 . S
O2087 U2086 2.454 . S
O2087 C2089 1.353 . S
O2088 U2086 2.458 . S
O2088 C2089 1.286 . S
C2089 U2086 2.984 . S
C2089 O2087 1.353 . S
C2089 O2088 1.286 . S
C2089 C2091 1.363 . S
C2090 C2080 1.465 . S
C2090 U2086 2.847 . S
C2090 O2104 1.249 . S
C2090 O2105 1.202 . S
C2091 C2089 1.363 . S
C2091 C2093 1.408 . S
C2091 C2096 1.342 . S
C2092 C2093 1.310 . S
C2092 C2095 1.461 . S
C2092 H2112 0.932 . S
C2093 C2091 1.408 . S
C2093 C2092 1.310 . S
C2093 H2113 0.930 . S
C2094 C2095 1.474 . S
C2094 C2096 1.285 . S
C2094 H2114 0.929 . S
C2095 C2092 1.461 . S
C2095 C2094 1.474 . S
C2096 C2091 1.342 . S
C2096 C2094 1.285 . S
C2096 H2115 0.930 . S
C2097 C2100 1.424 . S
C2097 C2102 1.245 . S
C2097 C2103 1.428 . S
C2098 C2101 1.260 . S
C2098 C2102 1.477 . S
C2098 H2116 0.932 . S
C2099 C2100 1.384 . S
C2099 C2101 1.479 . S
C2099 H2117 0.929 . S
C2100 C2097 1.424 . S
C2100 C2099 1.384 . S
C2100 H2118 0.928 . S
C2101 C2098 1.260 . S
C2101 C2099 1.479 . S
C2102 C2097 1.245 . S
C2102 C2098 1.477 . S
C2102 H2119 0.932 . S
C2103 U2086 2.882 . S
C2103 C2097 1.428 . S
C2103 O2106 1.301 . S
C2103 O2107 1.282 . S
O2104 U2086 2.441 . S
O2104 C2090 1.249 . S
O2105 U2086 2.420 . S
O2105 C2090 1.202 . S
O2106 U2086 2.455 . S
O2106 C2103 1.301 . S
O2107 U2086 2.449 . S
O2107 C2103 1.282 . S
H2108 C2081 0.931 . S
H2109 C2083 0.929 . S
H2110 C2084 0.930 . S
H2111 C2085 0.931 . S
H2112 C2092 0.932 . S
H2113 C2093 0.930 . S
H2114 C2094 0.929 . S
H2115 C2096 0.930 . S
H2116 C2098 0.932 . S
H2117 C2099 0.929 . S
H2118 C2100 0.928 . S
H2119 C2102 0.932 . S
C2120 C2121 1.264 . S
C2120 C2125 1.479 . S
C2120 C2130 1.465 . S
C2121 C2120 1.264 . S
C2121 C2123 1.339 . S
C2121 H2148 0.931 . S
C2122 C2123 1.395 . S
C2122 C2124 1.320 . S
C2123 C2121 1.339 . S
C2123 C2122 1.395 . S
C2123 H2149 0.929 . S
C2124 C2122 1.320 . S
C2124 C2125 1.405 . S
C2124 H2150 0.930 . S
C2125 C2120 1.479 . S
C2125 C2124 1.405 . S
C2125 H2151 0.931 . S
U2126 O2127 2.454 . S
U2126 O2128 2.458 . S
U2126 C2129 2.984 . S
U2126 C2130 2.847 . S
U2126 C2143 2.882 . S
U2126 O2144 2.441 . S
U2126 O2145 2.420 . S
U2126 O2146 2.455 . S
U2126 O2147 2.449 . S
O2127 U2126 2.454 . S
O2127 C2129 1.353 . S
O2128 U2126 2.458 . S
O2128 C2129 1.286 . S
C2129 U2126 2.984 . S
C2129 O2127 1.353 . S
C2129 O2128 1.286 . S
C2129 C2131 1.363 . S
C2130 C2120 1.465 . S
C2130 U2126 2.847 . S
C2130 O2144 1.249 . S
C2130 O2145 1.202 . S
C2131 C2129 1.363 . S
C2131 C2133 1.408 . S
C2131 C2136 1.342 . S
C2132 C2133 1.310 . S
C2132 C2135 1.461 . S
C2132 H2152 0.932 . S
C2133 C2131 1.408 . S
C2133 C2132 1.310 . S
C2133 H2153 0.930 . S
C2134 C2135 1.474 . S
C2134 C2136 1.285 . S
C2134 H2154 0.929 . S
C2135 C2132 1.461 . S
C2135 C2134 1.474 . S
C2136 C2131 1.342 . S
C2136 C2134 1.285 . S
C2136 H2155 0.930 . S
C2137 C2140 1.424 . S
C2137 C2142 1.245 . S
C2137 C2143 1.428 . S
C2138 C2141 1.260 . S
C2138 C2142 1.477 . S
C2138 H2156 0.932 . S
C2139 C2140 1.384 . S
C2139 C2141 1.479 . S
C2139 H2157 0.929 . S
C2140 C2137 1.424 . S
C2140 C2139 1.384 . S
C2140 H2158 0.928 . S
C2141 C2138 1.260 . S
C2141 C2139 1.479 . S
C2142 C2137 1.245 . S
C2142 C2138 1.477 . S
C2142 H2159 0.932 . S
C2143 U2126 2.882 . S
C2143 C2137 1.428 . S
C2143 O2146 1.301 . S
C2143 O2147 1.282 . S
O2144 U2126 2.441 . S
O2144 C2130 1.249 . S
O2145 U2126 2.420 . S
O2145 C2130 1.202 . S
O2146 U2126 2.455 . S
O2146 C2143 1.301 . S
O2147 U2126 2.449 . S
O2147 C2143 1.282 . S
H2148 C2121 0.931 . S
H2149 C2123 0.929 . S
H2150 C2124 0.930 . S
H2151 C2125 0.931 . S
H2152 C2132 0.932 . S
H2153 C2133 0.930 . S
H2154 C2134 0.929 . S
H2155 C2136 0.930 . S
H2156 C2138 0.932 . S
H2157 C2139 0.929 . S
H2158 C2140 0.928 . S
H2159 C2142 0.932 . S
C2160 C2161 1.264 . S
C2160 C2165 1.479 . S
C2160 C2170 1.465 . S
C2161 C2160 1.264 . S
C2161 C2163 1.339 . S
C2161 H2188 0.931 . S
C2162 C2163 1.395 . S
C2162 C2164 1.320 . S
C2163 C2161 1.339 . S
C2163 C2162 1.395 . S
C2163 H2189 0.929 . S
C2164 C2162 1.320 . S
C2164 C2165 1.405 . S
C2164 H2190 0.930 . S
C2165 C2160 1.479 . S
C2165 C2164 1.405 . S
C2165 H2191 0.931 . S
U2166 O2167 2.454 . S
U2166 O2168 2.458 . S
U2166 C2169 2.984 . S
U2166 C2170 2.847 . S
U2166 C2183 2.882 . S
U2166 O2184 2.441 . S
U2166 O2185 2.420 . S
U2166 O2186 2.455 . S
U2166 O2187 2.449 . S
O2167 U2166 2.454 . S
O2167 C2169 1.353 . S
O2168 U2166 2.458 . S
O2168 C2169 1.286 . S
C2169 U2166 2.984 . S
C2169 O2167 1.353 . S
C2169 O2168 1.286 . S
C2169 C2171 1.363 . S
C2170 C2160 1.465 . S
C2170 U2166 2.847 . S
C2170 O2184 1.249 . S
C2170 O2185 1.202 . S
C2171 C2169 1.363 . S
C2171 C2173 1.408 . S
C2171 C2176 1.342 . S
C2172 C2173 1.310 . S
C2172 C2175 1.461 . S
C2172 H2192 0.932 . S
C2173 C2171 1.408 . S
C2173 C2172 1.310 . S
C2173 H2193 0.930 . S
C2174 C2175 1.474 . S
C2174 C2176 1.285 . S
C2174 H2194 0.929 . S
C2175 C2172 1.461 . S
C2175 C2174 1.474 . S
C2176 C2171 1.342 . S
C2176 C2174 1.285 . S
C2176 H2195 0.930 . S
C2177 C2180 1.424 . S
C2177 C2182 1.245 . S
C2177 C2183 1.428 . S
C2178 C2181 1.260 . S
C2178 C2182 1.477 . S
C2178 H2196 0.932 . S
C2179 C2180 1.384 . S
C2179 C2181 1.479 . S
C2179 H2197 0.929 . S
C2180 C2177 1.424 . S
C2180 C2179 1.384 . S
C2180 H2198 0.928 . S
C2181 C2178 1.260 . S
C2181 C2179 1.479 . S
C2182 C2177 1.245 . S
C2182 C2178 1.477 . S
C2182 H2199 0.932 . S
C2183 U2166 2.882 . S
C2183 C2177 1.428 . S
C2183 O2186 1.301 . S
C2183 O2187 1.282 . S
O2184 U2166 2.441 . S
O2184 C2170 1.249 . S
O2185 U2166 2.420 . S
O2185 C2170 1.202 . S
O2186 U2166 2.455 . S
O2186 C2183 1.301 . S
O2187 U2166 2.449 . S
O2187 C2183 1.282 . S
H2188 C2161 0.931 . S
H2189 C2163 0.929 . S
H2190 C2164 0.930 . S
H2191 C2165 0.931 . S
H2192 C2172 0.932 . S
H2193 C2173 0.930 . S
H2194 C2174 0.929 . S
H2195 C2176 0.930 . S
H2196 C2178 0.932 . S
H2197 C2179 0.929 . S
H2198 C2180 0.928 . S
H2199 C2182 0.932 . S
C2200 C2201 1.264 . S
C2200 C2205 1.479 . S
C2200 C2210 1.465 . S
C2201 C2200 1.264 . S
C2201 C2203 1.339 . S
C2201 H2228 0.931 . S
C2202 C2203 1.395 . S
C2202 C2204 1.320 . S
C2203 C2201 1.339 . S
C2203 C2202 1.395 . S
C2203 H2229 0.929 . S
C2204 C2202 1.320 . S
C2204 C2205 1.405 . S
C2204 H2230 0.930 . S
C2205 C2200 1.479 . S
C2205 C2204 1.405 . S
C2205 H2231 0.931 . S
U2206 O2207 2.454 . S
U2206 O2208 2.458 . S
U2206 C2209 2.984 . S
U2206 C2210 2.847 . S
U2206 C2223 2.882 . S
U2206 O2224 2.441 . S
U2206 O2225 2.420 . S
U2206 O2226 2.455 . S
U2206 O2227 2.449 . S
O2207 U2206 2.454 . S
O2207 C2209 1.353 . S
O2208 U2206 2.458 . S
O2208 C2209 1.286 . S
C2209 U2206 2.984 . S
C2209 O2207 1.353 . S
C2209 O2208 1.286 . S
C2209 C2211 1.363 . S
C2210 C2200 1.465 . S
C2210 U2206 2.847 . S
C2210 O2224 1.249 . S
C2210 O2225 1.202 . S
C2211 C2209 1.363 . S
C2211 C2213 1.408 . S
C2211 C2216 1.342 . S
C2212 C2213 1.310 . S
C2212 C2215 1.461 . S
C2212 H2232 0.932 . S
C2213 C2211 1.408 . S
C2213 C2212 1.310 . S
C2213 H2233 0.930 . S
C2214 C2215 1.474 . S
C2214 C2216 1.285 . S
C2214 H2234 0.929 . S
C2215 C2212 1.461 . S
C2215 C2214 1.474 . S
C2216 C2211 1.342 . S
C2216 C2214 1.285 . S
C2216 H2235 0.930 . S
C2217 C2220 1.424 . S
C2217 C2222 1.245 . S
C2217 C2223 1.428 . S
C2218 C2221 1.260 . S
C2218 C2222 1.477 . S
C2218 H2236 0.932 . S
C2219 C2220 1.384 . S
C2219 C2221 1.479 . S
C2219 H2237 0.929 . S
C2220 C2217 1.424 . S
C2220 C2219 1.384 . S
C2220 H2238 0.928 . S
C2221 C2218 1.260 . S
C2221 C2219 1.479 . S
C2222 C2217 1.245 . S
C2222 C2218 1.477 . S
C2222 H2239 0.932 . S
C2223 U2206 2.882 . S
C2223 C2217 1.428 . S
C2223 O2226 1.301 . S
C2223 O2227 1.282 . S
O2224 U2206 2.441 . S
O2224 C2210 1.249 . S
O2225 U2206 2.420 . S
O2225 C2210 1.202 . S
O2226 U2206 2.455 . S
O2226 C2223 1.301 . S
O2227 U2206 2.449 . S
O2227 C2223 1.282 . S
H2228 C2201 0.931 . S
H2229 C2203 0.929 . S
H2230 C2204 0.930 . S
H2231 C2205 0.931 . S
H2232 C2212 0.932 . S
H2233 C2213 0.930 . S
H2234 C2214 0.929 . S
H2235 C2216 0.930 . S
H2236 C2218 0.932 . S
H2237 C2219 0.929 . S
H2238 C2220 0.928 . S
H2239 C2222 0.932 . S
C2240 C2241 1.264 . S
C2240 C2245 1.479 . S
C2240 C2250 1.465 . S
C2241 C2240 1.264 . S
C2241 C2243 1.339 . S
C2241 H2268 0.931 . S
C2242 C2243 1.395 . S
C2242 C2244 1.320 . S
C2243 C2241 1.339 . S
C2243 C2242 1.395 . S
C2243 H2269 0.929 . S
C2244 C2242 1.320 . S
C2244 C2245 1.405 . S
C2244 H2270 0.930 . S
C2245 C2240 1.479 . S
C2245 C2244 1.405 . S
C2245 H2271 0.931 . S
U2246 O2247 2.454 . S
U2246 O2248 2.458 . S
U2246 C2249 2.984 . S
U2246 C2250 2.847 . S
U2246 C2263 2.882 . S
U2246 O2264 2.441 . S
U2246 O2265 2.420 . S
U2246 O2266 2.455 . S
U2246 O2267 2.449 . S
O2247 U2246 2.454 . S
O2247 C2249 1.353 . S
O2248 U2246 2.458 . S
O2248 C2249 1.286 . S
C2249 U2246 2.984 . S
C2249 O2247 1.353 . S
C2249 O2248 1.286 . S
C2249 C2251 1.363 . S
C2250 C2240 1.465 . S
C2250 U2246 2.847 . S
C2250 O2264 1.249 . S
C2250 O2265 1.202 . S
C2251 C2249 1.363 . S
C2251 C2253 1.408 . S
C2251 C2256 1.342 . S
C2252 C2253 1.310 . S
C2252 C2255 1.461 . S
C2252 H2272 0.932 . S
C2253 C2251 1.408 . S
C2253 C2252 1.310 . S
C2253 H2273 0.930 . S
C2254 C2255 1.474 . S
C2254 C2256 1.285 . S
C2254 H2274 0.929 . S
C2255 C2252 1.461 . S
C2255 C2254 1.474 . S
C2256 C2251 1.342 . S
C2256 C2254 1.285 . S
C2256 H2275 0.930 . S
C2257 C2260 1.424 . S
C2257 C2262 1.245 . S
C2257 C2263 1.428 . S
C2258 C2261 1.260 . S
C2258 C2262 1.477 . S
C2258 H2276 0.932 . S
C2259 C2260 1.384 . S
C2259 C2261 1.479 . S
C2259 H2277 0.929 . S
C2260 C2257 1.424 . S
C2260 C2259 1.384 . S
C2260 H2278 0.928 . S
C2261 C2258 1.260 . S
C2261 C2259 1.479 . S
C2262 C2257 1.245 . S
C2262 C2258 1.477 . S
C2262 H2279 0.932 . S
C2263 U2246 2.882 . S
C2263 C2257 1.428 . S
C2263 O2266 1.301 . S
C2263 O2267 1.282 . S
O2264 U2246 2.441 . S
O2264 C2250 1.249 . S
O2265 U2246 2.420 . S
O2265 C2250 1.202 . S
O2266 U2246 2.455 . S
O2266 C2263 1.301 . S
O2267 U2246 2.449 . S
O2267 C2263 1.282 . S
H2268 C2241 0.931 . S
H2269 C2243 0.929 . S
H2270 C2244 0.930 . S
H2271 C2245 0.931 . S
H2272 C2252 0.932 . S
H2273 C2253 0.930 . S
H2274 C2254 0.929 . S
H2275 C2256 0.930 . S
H2276 C2258 0.932 . S
H2277 C2259 0.929 . S
H2278 C2260 0.928 . S
H2279 C2262 0.932 . S
C2280 C2281 1.264 . S
C2280 C2285 1.479 . S
C2280 C2290 1.465 . S
C2281 C2280 1.264 . S
C2281 C2283 1.339 . S
C2281 H2308 0.931 . S
C2282 C2283 1.395 . S
C2282 C2284 1.320 . S
C2283 C2281 1.339 . S
C2283 C2282 1.395 . S
C2283 H2309 0.929 . S
C2284 C2282 1.320 . S
C2284 C2285 1.405 . S
C2284 H2310 0.930 . S
C2285 C2280 1.479 . S
C2285 C2284 1.405 . S
C2285 H2311 0.931 . S
U2286 O2287 2.454 . S
U2286 O2288 2.458 . S
U2286 C2289 2.984 . S
U2286 C2290 2.847 . S
U2286 C2303 2.882 . S
U2286 O2304 2.441 . S
U2286 O2305 2.420 . S
U2286 O2306 2.455 . S
U2286 O2307 2.449 . S
O2287 U2286 2.454 . S
O2287 C2289 1.353 . S
O2288 U2286 2.458 . S
O2288 C2289 1.286 . S
C2289 U2286 2.984 . S
C2289 O2287 1.353 . S
C2289 O2288 1.286 . S
C2289 C2291 1.363 . S
C2290 C2280 1.465 . S
C2290 U2286 2.847 . S
C2290 O2304 1.249 . S
C2290 O2305 1.202 . S
C2291 C2289 1.363 . S
C2291 C2293 1.408 . S
C2291 C2296 1.342 . S
C2292 C2293 1.310 . S
C2292 C2295 1.461 . S
C2292 H2312 0.932 . S
C2293 C2291 1.408 . S
C2293 C2292 1.310 . S
C2293 H2313 0.930 . S
C2294 C2295 1.474 . S
C2294 C2296 1.285 . S
C2294 H2314 0.929 . S
C2295 C2292 1.461 . S
C2295 C2294 1.474 . S
C2296 C2291 1.342 . S
C2296 C2294 1.285 . S
C2296 H2315 0.930 . S
C2297 C2300 1.424 . S
C2297 C2302 1.245 . S
C2297 C2303 1.428 . S
C2298 C2301 1.260 . S
C2298 C2302 1.477 . S
C2298 H2316 0.932 . S
C2299 C2300 1.384 . S
C2299 C2301 1.479 . S
C2299 H2317 0.929 . S
C2300 C2297 1.424 . S
C2300 C2299 1.384 . S
C2300 H2318 0.928 . S
C2301 C2298 1.260 . S
C2301 C2299 1.479 . S
C2302 C2297 1.245 . S
C2302 C2298 1.477 . S
C2302 H2319 0.932 . S
C2303 U2286 2.882 . S
C2303 C2297 1.428 . S
C2303 O2306 1.301 . S
C2303 O2307 1.282 . S
O2304 U2286 2.441 . S
O2304 C2290 1.249 . S
O2305 U2286 2.420 . S
O2305 C2290 1.202 . S
O2306 U2286 2.455 . S
O2306 C2303 1.301 . S
O2307 U2286 2.449 . S
O2307 C2303 1.282 . S
H2308 C2281 0.931 . S
H2309 C2283 0.929 . S
H2310 C2284 0.930 . S
H2311 C2285 0.931 . S
H2312 C2292 0.932 . S
H2313 C2293 0.930 . S
H2314 C2294 0.929 . S
H2315 C2296 0.930 . S
H2316 C2298 0.932 . S
H2317 C2299 0.929 . S
H2318 C2300 0.928 . S
H2319 C2302 0.932 . S
C2320 C2321 1.264 . S
C2320 C2325 1.479 . S
C2320 C2330 1.465 . S
C2321 C2320 1.264 . S
C2321 C2323 1.339 . S
C2321 H2348 0.931 . S
C2322 C2323 1.395 . S
C2322 C2324 1.320 . S
C2323 C2321 1.339 . S
C2323 C2322 1.395 . S
C2323 H2349 0.929 . S
C2324 C2322 1.320 . S
C2324 C2325 1.405 . S
C2324 H2350 0.930 . S
C2325 C2320 1.479 . S
C2325 C2324 1.405 . S
C2325 H2351 0.931 . S
U2326 O2327 2.454 . S
U2326 O2328 2.458 . S
U2326 C2329 2.984 . S
U2326 C2330 2.847 . S
U2326 C2343 2.882 . S
U2326 O2344 2.441 . S
U2326 O2345 2.420 . S
U2326 O2346 2.455 . S
U2326 O2347 2.449 . S
O2327 U2326 2.454 . S
O2327 C2329 1.353 . S
O2328 U2326 2.458 . S
O2328 C2329 1.286 . S
C2329 U2326 2.984 . S
C2329 O2327 1.353 . S
C2329 O2328 1.286 . S
C2329 C2331 1.363 . S
C2330 C2320 1.465 . S
C2330 U2326 2.847 . S
C2330 O2344 1.249 . S
C2330 O2345 1.202 . S
C2331 C2329 1.363 . S
C2331 C2333 1.408 . S
C2331 C2336 1.342 . S
C2332 C2333 1.310 . S
C2332 C2335 1.461 . S
C2332 H2352 0.932 . S
C2333 C2331 1.408 . S
C2333 C2332 1.310 . S
C2333 H2353 0.930 . S
C2334 C2335 1.474 . S
C2334 C2336 1.285 . S
C2334 H2354 0.929 . S
C2335 C2332 1.461 . S
C2335 C2334 1.474 . S
C2336 C2331 1.342 . S
C2336 C2334 1.285 . S
C2336 H2355 0.930 . S
C2337 C2340 1.424 . S
C2337 C2342 1.245 . S
C2337 C2343 1.428 . S
C2338 C2341 1.260 . S
C2338 C2342 1.477 . S
C2338 H2356 0.932 . S
C2339 C2340 1.384 . S
C2339 C2341 1.479 . S
C2339 H2357 0.929 . S
C2340 C2337 1.424 . S
C2340 C2339 1.384 . S
C2340 H2358 0.928 . S
C2341 C2338 1.260 . S
C2341 C2339 1.479 . S
C2342 C2337 1.245 . S
C2342 C2338 1.477 . S
C2342 H2359 0.932 . S
C2343 U2326 2.882 . S
C2343 C2337 1.428 . S
C2343 O2346 1.301 . S
C2343 O2347 1.282 . S
O2344 U2326 2.441 . S
O2344 C2330 1.249 . S
O2345 U2326 2.420 . S
O2345 C2330 1.202 . S
O2346 U2326 2.455 . S
O2346 C2343 1.301 . S
O2347 U2326 2.449 . S
O2347 C2343 1.282 . S
H2348 C2321 0.931 . S
H2349 C2323 0.929 . S
H2350 C2324 0.930 . S
H2351 C2325 0.931 . S
H2352 C2332 0.932 . S
H2353 C2333 0.930 . S
H2354 C2334 0.929 . S
H2355 C2336 0.930 . S
H2356 C2338 0.932 . S
H2357 C2339 0.929 . S
H2358 C2340 0.928 . S
H2359 C2342 0.932 . S
C2360 C2361 1.264 . S
C2360 C2365 1.479 . S
C2360 C2370 1.465 . S
C2361 C2360 1.264 . S
C2361 C2363 1.339 . S
C2361 H2388 0.931 . S
C2362 C2363 1.395 . S
C2362 C2364 1.320 . S
C2363 C2361 1.339 . S
C2363 C2362 1.395 . S
C2363 H2389 0.929 . S
C2364 C2362 1.320 . S
C2364 C2365 1.405 . S
C2364 H2390 0.930 . S
C2365 C2360 1.479 . S
C2365 C2364 1.405 . S
C2365 H2391 0.931 . S
U2366 O2367 2.454 . S
U2366 O2368 2.458 . S
U2366 C2369 2.984 . S
U2366 C2370 2.847 . S
U2366 C2383 2.882 . S
U2366 O2384 2.441 . S
U2366 O2385 2.420 . S
U2366 O2386 2.455 . S
U2366 O2387 2.449 . S
O2367 U2366 2.454 . S
O2367 C2369 1.353 . S
O2368 U2366 2.458 . S
O2368 C2369 1.286 . S
C2369 U2366 2.984 . S
C2369 O2367 1.353 . S
C2369 O2368 1.286 . S
C2369 C2371 1.363 . S
C2370 C2360 1.465 . S
C2370 U2366 2.847 . S
C2370 O2384 1.249 . S
C2370 O2385 1.202 . S
C2371 C2369 1.363 . S
C2371 C2373 1.408 . S
C2371 C2376 1.342 . S
C2372 C2373 1.310 . S
C2372 C2375 1.461 . S
C2372 H2392 0.932 . S
C2373 C2371 1.408 . S
C2373 C2372 1.310 . S
C2373 H2393 0.930 . S
C2374 C2375 1.474 . S
C2374 C2376 1.285 . S
C2374 H2394 0.929 . S
C2375 C2372 1.461 . S
C2375 C2374 1.474 . S
C2376 C2371 1.342 . S
C2376 C2374 1.285 . S
C2376 H2395 0.930 . S
C2377 C2380 1.424 . S
C2377 C2382 1.245 . S
C2377 C2383 1.428 . S
C2378 C2381 1.260 . S
C2378 C2382 1.477 . S
C2378 H2396 0.932 . S
C2379 C2380 1.384 . S
C2379 C2381 1.479 . S
C2379 H2397 0.929 . S
C2380 C2377 1.424 . S
C2380 C2379 1.384 . S
C2380 H2398 0.928 . S
C2381 C2378 1.260 . S
C2381 C2379 1.479 . S
C2382 C2377 1.245 . S
C2382 C2378 1.477 . S
C2382 H2399 0.932 . S
C2383 U2366 2.882 . S
C2383 C2377 1.428 . S
C2383 O2386 1.301 . S
C2383 O2387 1.282 . S
O2384 U2366 2.441 . S
O2384 C2370 1.249 . S
O2385 U2366 2.420 . S
O2385 C2370 1.202 . S
O2386 U2366 2.455 . S
O2386 C2383 1.301 . S
O2387 U2366 2.449 . S
O2387 C2383 1.282 . S
H2388 C2361 0.931 . S
H2389 C2363 0.929 . S
H2390 C2364 0.930 . S
H2391 C2365 0.931 . S
H2392 C2372 0.932 . S
H2393 C2373 0.930 . S
H2394 C2374 0.929 . S
H2395 C2376 0.930 . S
H2396 C2378 0.932 . S
H2397 C2379 0.929 . S
H2398 C2380 0.928 . S
H2399 C2382 0.932 . S
C2400 C2401 1.264 . S
C2400 C2405 1.479 . S
C2400 C2410 1.465 . S
C2401 C2400 1.264 . S
C2401 C2403 1.339 . S
C2401 H2428 0.931 . S
C2402 C2403 1.395 . S
C2402 C2404 1.320 . S
C2403 C2401 1.339 . S
C2403 C2402 1.395 . S
C2403 H2429 0.929 . S
C2404 C2402 1.320 . S
C2404 C2405 1.405 . S
C2404 H2430 0.930 . S
C2405 C2400 1.479 . S
C2405 C2404 1.405 . S
C2405 H2431 0.931 . S
U2406 O2407 2.454 . S
U2406 O2408 2.458 . S
U2406 C2409 2.984 . S
U2406 C2410 2.847 . S
U2406 C2423 2.882 . S
U2406 O2424 2.441 . S
U2406 O2425 2.420 . S
U2406 O2426 2.455 . S
U2406 O2427 2.449 . S
O2407 U2406 2.454 . S
O2407 C2409 1.353 . S
O2408 U2406 2.458 . S
O2408 C2409 1.286 . S
C2409 U2406 2.984 . S
C2409 O2407 1.353 . S
C2409 O2408 1.286 . S
C2409 C2411 1.363 . S
C2410 C2400 1.465 . S
C2410 U2406 2.847 . S
C2410 O2424 1.249 . S
C2410 O2425 1.202 . S
C2411 C2409 1.363 . S
C2411 C2413 1.408 . S
C2411 C2416 1.342 . S
C2412 C2413 1.310 . S
C2412 C2415 1.461 . S
C2412 H2432 0.932 . S
C2413 C2411 1.408 . S
C2413 C2412 1.310 . S
C2413 H2433 0.930 . S
C2414 C2415 1.474 . S
C2414 C2416 1.285 . S
C2414 H2434 0.929 . S
C2415 C2412 1.461 . S
C2415 C2414 1.474 . S
C2416 C2411 1.342 . S
C2416 C2414 1.285 . S
C2416 H2435 0.930 . S
C2417 C2420 1.424 . S
C2417 C2422 1.245 . S
C2417 C2423 1.428 . S
C2418 C2421 1.260 . S
C2418 C2422 1.477 . S
C2418 H2436 0.932 . S
C2419 C2420 1.384 . S
C2419 C2421 1.479 . S
C2419 H2437 0.929 . S
C2420 C2417 1.424 . S
C2420 C2419 1.384 . S
C2420 H2438 0.928 . S
C2421 C2418 1.260 . S
C2421 C2419 1.479 . S
C2422 C2417 1.245 . S
C2422 C2418 1.477 . S
C2422 H2439 0.932 . S
C2423 U2406 2.882 . S
C2423 C2417 1.428 . S
C2423 O2426 1.301 . S
C2423 O2427 1.282 . S
O2424 U2406 2.441 . S
O2424 C2410 1.249 . S
O2425 U2406 2.420 . S
O2425 C2410 1.202 . S
O2426 U2406 2.455 . S
O2426 C2423 1.301 . S
O2427 U2406 2.449 . S
O2427 C2423 1.282 . S
H2428 C2401 0.931 . S
H2429 C2403 0.929 . S
H2430 C2404 0.930 . S
H2431 C2405 0.931 . S
H2432 C2412 0.932 . S
H2433 C2413 0.930 . S
H2434 C2414 0.929 . S
H2435 C2416 0.930 . S
H2436 C2418 0.932 . S
H2437 C2419 0.929 . S
H2438 C2420 0.928 . S
H2439 C2422 0.932 . S
C2440 C2441 1.264 . S
C2440 C2445 1.479 . S
C2440 C2450 1.465 . S
C2441 C2440 1.264 . S
C2441 C2443 1.339 . S
C2441 H2468 0.931 . S
C2442 C2443 1.395 . S
C2442 C2444 1.320 . S
C2443 C2441 1.339 . S
C2443 C2442 1.395 . S
C2443 H2469 0.929 . S
C2444 C2442 1.320 . S
C2444 C2445 1.405 . S
C2444 H2470 0.930 . S
C2445 C2440 1.479 . S
C2445 C2444 1.405 . S
C2445 H2471 0.931 . S
U2446 O2447 2.454 . S
U2446 O2448 2.458 . S
U2446 C2449 2.984 . S
U2446 C2450 2.847 . S
U2446 C2463 2.882 . S
U2446 O2464 2.441 . S
U2446 O2465 2.420 . S
U2446 O2466 2.455 . S
U2446 O2467 2.449 . S
O2447 U2446 2.454 . S
O2447 C2449 1.353 . S
O2448 U2446 2.458 . S
O2448 C2449 1.286 . S
C2449 U2446 2.984 . S
C2449 O2447 1.353 . S
C2449 O2448 1.286 . S
C2449 C2451 1.363 . S
C2450 C2440 1.465 . S
C2450 U2446 2.847 . S
C2450 O2464 1.249 . S
C2450 O2465 1.202 . S
C2451 C2449 1.363 . S
C2451 C2453 1.408 . S
C2451 C2456 1.342 . S
C2452 C2453 1.310 . S
C2452 C2455 1.461 . S
C2452 H2472 0.932 . S
C2453 C2451 1.408 . S
C2453 C2452 1.310 . S
C2453 H2473 0.930 . S
C2454 C2455 1.474 . S
C2454 C2456 1.285 . S
C2454 H2474 0.929 . S
C2455 C2452 1.461 . S
C2455 C2454 1.474 . S
C2456 C2451 1.342 . S
C2456 C2454 1.285 . S
C2456 H2475 0.930 . S
C2457 C2460 1.424 . S
C2457 C2462 1.245 . S
C2457 C2463 1.428 . S
C2458 C2461 1.260 . S
C2458 C2462 1.477 . S
C2458 H2476 0.932 . S
C2459 C2460 1.384 . S
C2459 C2461 1.479 . S
C2459 H2477 0.929 . S
C2460 C2457 1.424 . S
C2460 C2459 1.384 . S
C2460 H2478 0.928 . S
C2461 C2458 1.260 . S
C2461 C2459 1.479 . S
C2462 C2457 1.245 . S
C2462 C2458 1.477 . S
C2462 H2479 0.932 . S
C2463 U2446 2.882 . S
C2463 C2457 1.428 . S
C2463 O2466 1.301 . S
C2463 O2467 1.282 . S
O2464 U2446 2.441 . S
O2464 C2450 1.249 . S
O2465 U2446 2.420 . S
O2465 C2450 1.202 . S
O2466 U2446 2.455 . S
O2466 C2463 1.301 . S
O2467 U2446 2.449 . S
O2467 C2463 1.282 . S
H2468 C2441 0.931 . S
H2469 C2443 0.929 . S
H2470 C2444 0.930 . S
H2471 C2445 0.931 . S
H2472 C2452 0.932 . S
H2473 C2453 0.930 . S
H2474 C2454 0.929 . S
H2475 C2456 0.930 . S
H2476 C2458 0.932 . S
H2477 C2459 0.929 . S
H2478 C2460 0.928 . S
H2479 C2462 0.932 . S
C2480 C2481 1.264 . S
C2480 C2485 1.479 . S
C2480 C2490 1.465 . S
C2481 C2480 1.264 . S
C2481 C2483 1.339 . S
C2481 H2508 0.931 . S
C2482 C2483 1.395 . S
C2482 C2484 1.320 . S
C2483 C2481 1.339 . S
C2483 C2482 1.395 . S
C2483 H2509 0.929 . S
C2484 C2482 1.320 . S
C2484 C2485 1.405 . S
C2484 H2510 0.930 . S
C2485 C2480 1.479 . S
C2485 C2484 1.405 . S
C2485 H2511 0.931 . S
U2486 O2487 2.454 . S
U2486 O2488 2.458 . S
U2486 C2489 2.984 . S
U2486 C2490 2.847 . S
U2486 C2503 2.882 . S
U2486 O2504 2.441 . S
U2486 O2505 2.420 . S
U2486 O2506 2.455 . S
U2486 O2507 2.449 . S
O2487 U2486 2.454 . S
O2487 C2489 1.353 . S
O2488 U2486 2.458 . S
O2488 C2489 1.286 . S
C2489 U2486 2.984 . S
C2489 O2487 1.353 . S
C2489 O2488 1.286 . S
C2489 C2491 1.363 . S
C2490 C2480 1.465 . S
C2490 U2486 2.847 . S
C2490 O2504 1.249 . S
C2490 O2505 1.202 . S
C2491 C2489 1.363 . S
C2491 C2493 1.408 . S
C2491 C2496 1.342 . S
C2492 C2493 1.310 . S
C2492 C2495 1.461 . S
C2492 H2512 0.932 . S
C2493 C2491 1.408 . S
C2493 C2492 1.310 . S
C2493 H2513 0.930 . S
C2494 C2495 1.474 . S
C2494 C2496 1.285 . S
C2494 H2514 0.929 . S
C2495 C2492 1.461 . S
C2495 C2494 1.474 . S
C2496 C2491 1.342 . S
C2496 C2494 1.285 . S
C2496 H2515 0.930 . S
C2497 C2500 1.424 . S
C2497 C2502 1.245 . S
C2497 C2503 1.428 . S
C2498 C2501 1.260 . S
C2498 C2502 1.477 . S
C2498 H2516 0.932 . S
C2499 C2500 1.384 . S
C2499 C2501 1.479 . S
C2499 H2517 0.929 . S
C2500 C2497 1.424 . S
C2500 C2499 1.384 . S
C2500 H2518 0.928 . S
C2501 C2498 1.260 . S
C2501 C2499 1.479 . S
C2502 C2497 1.245 . S
C2502 C2498 1.477 . S
C2502 H2519 0.932 . S
C2503 U2486 2.882 . S
C2503 C2497 1.428 . S
C2503 O2506 1.301 . S
C2503 O2507 1.282 . S
O2504 U2486 2.441 . S
O2504 C2490 1.249 . S
O2505 U2486 2.420 . S
O2505 C2490 1.202 . S
O2506 U2486 2.455 . S
O2506 C2503 1.301 . S
O2507 U2486 2.449 . S
O2507 C2503 1.282 . S
H2508 C2481 0.931 . S
H2509 C2483 0.929 . S
H2510 C2484 0.930 . S
H2511 C2485 0.931 . S
H2512 C2492 0.932 . S
H2513 C2493 0.930 . S
H2514 C2494 0.929 . S
H2515 C2496 0.930 . S
H2516 C2498 0.932 . S
H2517 C2499 0.929 . S
H2518 C2500 0.928 . S
H2519 C2502 0.932 . S
C2520 C2521 1.264 . S
C2520 C2525 1.479 . S
C2520 C2530 1.465 . S
C2521 C2520 1.264 . S
C2521 C2523 1.339 . S
C2521 H2548 0.931 . S
C2522 C2523 1.395 . S
C2522 C2524 1.320 . S
C2523 C2521 1.339 . S
C2523 C2522 1.395 . S
C2523 H2549 0.929 . S
C2524 C2522 1.320 . S
C2524 C2525 1.405 . S
C2524 H2550 0.930 . S
C2525 C2520 1.479 . S
C2525 C2524 1.405 . S
C2525 H2551 0.931 . S
U2526 O2527 2.454 . S
U2526 O2528 2.458 . S
U2526 C2529 2.984 . S
U2526 C2530 2.847 . S
U2526 C2543 2.882 . S
U2526 O2544 2.441 . S
U2526 O2545 2.420 . S
U2526 O2546 2.455 . S
U2526 O2547 2.449 . S
O2527 U2526 2.454 . S
O2527 C2529 1.353 . S
O2528 U2526 2.458 . S
O2528 C2529 1.286 . S
C2529 U2526 2.984 . S
C2529 O2527 1.353 . S
C2529 O2528 1.286 . S
C2529 C2531 1.363 . S
C2530 C2520 1.465 . S
C2530 U2526 2.847 . S
C2530 O2544 1.249 . S
C2530 O2545 1.202 . S
C2531 C2529 1.363 . S
C2531 C2533 1.408 . S
C2531 C2536 1.342 . S
C2532 C2533 1.310 . S
C2532 C2535 1.461 . S
C2532 H2552 0.932 . S
C2533 C2531 1.408 . S
C2533 C2532 1.310 . S
C2533 H2553 0.930 . S
C2534 C2535 1.474 . S
C2534 C2536 1.285 . S
C2534 H2554 0.929 . S
C2535 C2532 1.461 . S
C2535 C2534 1.474 . S
C2536 C2531 1.342 . S
C2536 C2534 1.285 . S
C2536 H2555 0.930 . S
C2537 C2540 1.424 . S
C2537 C2542 1.245 . S
C2537 C2543 1.428 . S
C2538 C2541 1.260 . S
C2538 C2542 1.477 . S
C2538 H2556 0.932 . S
C2539 C2540 1.384 . S
C2539 C2541 1.479 . S
C2539 H2557 0.929 . S
C2540 C2537 1.424 . S
C2540 C2539 1.384 . S
C2540 H2558 0.928 . S
C2541 C2538 1.260 . S
C2541 C2539 1.479 . S
C2542 C2537 1.245 . S
C2542 C2538 1.477 . S
C2542 H2559 0.932 . S
C2543 U2526 2.882 . S
C2543 C2537 1.428 . S
C2543 O2546 1.301 . S
C2543 O2547 1.282 . S
O2544 U2526 2.441 . S
O2544 C2530 1.249 . S
O2545 U2526 2.420 . S
O2545 C2530 1.202 . S
O2546 U2526 2.455 . S
O2546 C2543 1.301 . S
O2547 U2526 2.449 . S
O2547 C2543 1.282 . S
H2548 C2521 0.931 . S
H2549 C2523 0.929 . S
H2550 C2524 0.930 . S
H2551 C2525 0.931 . S
H2552 C2532 0.932 . S
H2553 C2533 0.930 . S
H2554 C2534 0.929 . S
H2555 C2536 0.930 . S
H2556 C2538 0.932 . S
H2557 C2539 0.929 . S
H2558 C2540 0.928 . S
H2559 C2542 0.932 . S
C2560 C2561 1.264 . S
C2560 C2565 1.479 . S
C2560 C2570 1.465 . S
C2561 C2560 1.264 . S
C2561 C2563 1.339 . S
C2561 H2588 0.931 . S
C2562 C2563 1.395 . S
C2562 C2564 1.320 . S
C2563 C2561 1.339 . S
C2563 C2562 1.395 . S
C2563 H2589 0.929 . S
C2564 C2562 1.320 . S
C2564 C2565 1.405 . S
C2564 H2590 0.930 . S
C2565 C2560 1.479 . S
C2565 C2564 1.405 . S
C2565 H2591 0.931 . S
U2566 O2567 2.454 . S
U2566 O2568 2.458 . S
U2566 C2569 2.984 . S
U2566 C2570 2.847 . S
U2566 C2583 2.882 . S
U2566 O2584 2.441 . S
U2566 O2585 2.420 . S
U2566 O2586 2.455 . S
U2566 O2587 2.449 . S
O2567 U2566 2.454 . S
O2567 C2569 1.353 . S
O2568 U2566 2.458 . S
O2568 C2569 1.286 . S
C2569 U2566 2.984 . S
C2569 O2567 1.353 . S
C2569 O2568 1.286 . S
C2569 C2571 1.363 . S
C2570 C2560 1.465 . S
C2570 U2566 2.847 . S
C2570 O2584 1.249 . S
C2570 O2585 1.202 . S
C2571 C2569 1.363 . S
C2571 C2573 1.408 . S
C2571 C2576 1.342 . S
C2572 C2573 1.310 . S
C2572 C2575 1.461 . S
C2572 H2592 0.932 . S
C2573 C2571 1.408 . S
C2573 C2572 1.310 . S
C2573 H2593 0.930 . S
C2574 C2575 1.474 . S
C2574 C2576 1.285 . S
C2574 H2594 0.929 . S
C2575 C2572 1.461 . S
C2575 C2574 1.474 . S
C2576 C2571 1.342 . S
C2576 C2574 1.285 . S
C2576 H2595 0.930 . S
C2577 C2580 1.424 . S
C2577 C2582 1.245 . S
C2577 C2583 1.428 . S
C2578 C2581 1.260 . S
C2578 C2582 1.477 . S
C2578 H2596 0.932 . S
C2579 C2580 1.384 . S
C2579 C2581 1.479 . S
C2579 H2597 0.929 . S
C2580 C2577 1.424 . S
C2580 C2579 1.384 . S
C2580 H2598 0.928 . S
C2581 C2578 1.260 . S
C2581 C2579 1.479 . S
C2582 C2577 1.245 . S
C2582 C2578 1.477 . S
C2582 H2599 0.932 . S
C2583 U2566 2.882 . S
C2583 C2577 1.428 . S
C2583 O2586 1.301 . S
C2583 O2587 1.282 . S
O2584 U2566 2.441 . S
O2584 C2570 1.249 . S
O2585 U2566 2.420 . S
O2585 C2570 1.202 . S
O2586 U2566 2.455 . S
O2586 C2583 1.301 . S
O2587 U2566 2.449 . S
O2587 C2583 1.282 . S
H2588 C2561 0.931 . S
H2589 C2563 0.929 . S
H2590 C2564 0.930 . S
H2591 C2565 0.931 . S
H2592 C2572 0.932 . S
H2593 C2573 0.930 . S
H2594 C2574 0.929 . S
H2595 C2576 0.930 . S
H2596 C2578 0.932 . S
H2597 C2579 0.929 . S
H2598 C2580 0.928 . S
H2599 C2582 0.932 . S
C2600 C2601 1.264 . S
C2600 C2605 1.479 . S
C2600 C2610 1.465 . S
C2601 C2600 1.264 . S
C2601 C2603 1.339 . S
C2601 H2628 0.931 . S
C2602 C2603 1.395 . S
C2602 C2604 1.320 . S
C2603 C2601 1.339 . S
C2603 C2602 1.395 . S
C2603 H2629 0.929 . S
C2604 C2602 1.320 . S
C2604 C2605 1.405 . S
C2604 H2630 0.930 . S
C2605 C2600 1.479 . S
C2605 C2604 1.405 . S
C2605 H2631 0.931 . S
U2606 O2607 2.454 . S
U2606 O2608 2.458 . S
U2606 C2609 2.984 . S
U2606 C2610 2.847 . S
U2606 C2623 2.882 . S
U2606 O2624 2.441 . S
U2606 O2625 2.420 . S
U2606 O2626 2.455 . S
U2606 O2627 2.449 . S
O2607 U2606 2.454 . S
O2607 C2609 1.353 . S
O2608 U2606 2.458 . S
O2608 C2609 1.286 . S
C2609 U2606 2.984 . S
C2609 O2607 1.353 . S
C2609 O2608 1.286 . S
C2609 C2611 1.363 . S
C2610 C2600 1.465 . S
C2610 U2606 2.847 . S
C2610 O2624 1.249 . S
C2610 O2625 1.202 . S
C2611 C2609 1.363 . S
C2611 C2613 1.408 . S
C2611 C2616 1.342 . S
C2612 C2613 1.310 . S
C2612 C2615 1.461 . S
C2612 H2632 0.932 . S
C2613 C2611 1.408 . S
C2613 C2612 1.310 . S
C2613 H2633 0.930 . S
C2614 C2615 1.474 . S
C2614 C2616 1.285 . S
C2614 H2634 0.929 . S
C2615 C2612 1.461 . S
C2615 C2614 1.474 . S
C2616 C2611 1.342 . S
C2616 C2614 1.285 . S
C2616 H2635 0.930 . S
C2617 C2620 1.424 . S
C2617 C2622 1.245 . S
C2617 C2623 1.428 . S
C2618 C2621 1.260 . S
C2618 C2622 1.477 . S
C2618 H2636 0.932 . S
C2619 C2620 1.384 . S
C2619 C2621 1.479 . S
C2619 H2637 0.929 . S
C2620 C2617 1.424 . S
C2620 C2619 1.384 . S
C2620 H2638 0.928 . S
C2621 C2618 1.260 . S
C2621 C2619 1.479 . S
C2622 C2617 1.245 . S
C2622 C2618 1.477 . S
C2622 H2639 0.932 . S
C2623 U2606 2.882 . S
C2623 C2617 1.428 . S
C2623 O2626 1.301 . S
C2623 O2627 1.282 . S
O2624 U2606 2.441 . S
O2624 C2610 1.249 . S
O2625 U2606 2.420 . S
O2625 C2610 1.202 . S
O2626 U2606 2.455 . S
O2626 C2623 1.301 . S
O2627 U2606 2.449 . S
O2627 C2623 1.282 . S
H2628 C2601 0.931 . S
H2629 C2603 0.929 . S
H2630 C2604 0.930 . S
H2631 C2605 0.931 . S
H2632 C2612 0.932 . S
H2633 C2613 0.930 . S
H2634 C2614 0.929 . S
H2635 C2616 0.930 . S
H2636 C2618 0.932 . S
H2637 C2619 0.929 . S
H2638 C2620 0.928 . S
H2639 C2622 0.932 . S
C2640 C2641 1.264 . S
C2640 C2645 1.479 . S
C2640 C2650 1.465 . S
C2641 C2640 1.264 . S
C2641 C2643 1.339 . S
C2641 H2668 0.931 . S
C2642 C2643 1.395 . S
C2642 C2644 1.320 . S
C2643 C2641 1.339 . S
C2643 C2642 1.395 . S
C2643 H2669 0.929 . S
C2644 C2642 1.320 . S
C2644 C2645 1.405 . S
C2644 H2670 0.930 . S
C2645 C2640 1.479 . S
C2645 C2644 1.405 . S
C2645 H2671 0.931 . S
U2646 O2647 2.454 . S
U2646 O2648 2.458 . S
U2646 C2649 2.984 . S
U2646 C2650 2.847 . S
U2646 C2663 2.882 . S
U2646 O2664 2.441 . S
U2646 O2665 2.420 . S
U2646 O2666 2.455 . S
U2646 O2667 2.449 . S
O2647 U2646 2.454 . S
O2647 C2649 1.353 . S
O2648 U2646 2.458 . S
O2648 C2649 1.286 . S
C2649 U2646 2.984 . S
C2649 O2647 1.353 . S
C2649 O2648 1.286 . S
C2649 C2651 1.363 . S
C2650 C2640 1.465 . S
C2650 U2646 2.847 . S
C2650 O2664 1.249 . S
C2650 O2665 1.202 . S
C2651 C2649 1.363 . S
C2651 C2653 1.408 . S
C2651 C2656 1.342 . S
C2652 C2653 1.310 . S
C2652 C2655 1.461 . S
C2652 H2672 0.932 . S
C2653 C2651 1.408 . S
C2653 C2652 1.310 . S
C2653 H2673 0.930 . S
C2654 C2655 1.474 . S
C2654 C2656 1.285 . S
C2654 H2674 0.929 . S
C2655 C2652 1.461 . S
C2655 C2654 1.474 . S
C2656 C2651 1.342 . S
C2656 C2654 1.285 . S
C2656 H2675 0.930 . S
C2657 C2660 1.424 . S
C2657 C2662 1.245 . S
C2657 C2663 1.428 . S
C2658 C2661 1.260 . S
C2658 C2662 1.477 . S
C2658 H2676 0.932 . S
C2659 C2660 1.384 . S
C2659 C2661 1.479 . S
C2659 H2677 0.929 . S
C2660 C2657 1.424 . S
C2660 C2659 1.384 . S
C2660 H2678 0.928 . S
C2661 C2658 1.260 . S
C2661 C2659 1.479 . S
C2662 C2657 1.245 . S
C2662 C2658 1.477 . S
C2662 H2679 0.932 . S
C2663 U2646 2.882 . S
C2663 C2657 1.428 . S
C2663 O2666 1.301 . S
C2663 O2667 1.282 . S
O2664 U2646 2.441 . S
O2664 C2650 1.249 . S
O2665 U2646 2.420 . S
O2665 C2650 1.202 . S
O2666 U2646 2.455 . S
O2666 C2663 1.301 . S
O2667 U2646 2.449 . S
O2667 C2663 1.282 . S
H2668 C2641 0.931 . S
H2669 C2643 0.929 . S
H2670 C2644 0.930 . S
H2671 C2645 0.931 . S
H2672 C2652 0.932 . S
H2673 C2653 0.930 . S
H2674 C2654 0.929 . S
H2675 C2656 0.930 . S
H2676 C2658 0.932 . S
H2677 C2659 0.929 . S
H2678 C2660 0.928 . S
H2679 C2662 0.932 . S
C2680 C2681 1.264 . S
C2680 C2685 1.479 . S
C2680 C2690 1.465 . S
C2681 C2680 1.264 . S
C2681 C2683 1.339 . S
C2681 H2708 0.931 . S
C2682 C2683 1.395 . S
C2682 C2684 1.320 . S
C2683 C2681 1.339 . S
C2683 C2682 1.395 . S
C2683 H2709 0.929 . S
C2684 C2682 1.320 . S
C2684 C2685 1.405 . S
C2684 H2710 0.930 . S
C2685 C2680 1.479 . S
C2685 C2684 1.405 . S
C2685 H2711 0.931 . S
U2686 O2687 2.454 . S
U2686 O2688 2.458 . S
U2686 C2689 2.984 . S
U2686 C2690 2.847 . S
U2686 C2703 2.882 . S
U2686 O2704 2.441 . S
U2686 O2705 2.420 . S
U2686 O2706 2.455 . S
U2686 O2707 2.449 . S
O2687 U2686 2.454 . S
O2687 C2689 1.353 . S
O2688 U2686 2.458 . S
O2688 C2689 1.286 . S
C2689 U2686 2.984 . S
C2689 O2687 1.353 . S
C2689 O2688 1.286 . S
C2689 C2691 1.363 . S
C2690 C2680 1.465 . S
C2690 U2686 2.847 . S
C2690 O2704 1.249 . S
C2690 O2705 1.202 . S
C2691 C2689 1.363 . S
C2691 C2693 1.408 . S
C2691 C2696 1.342 . S
C2692 C2693 1.310 . S
C2692 C2695 1.461 . S
C2692 H2712 0.932 . S
C2693 C2691 1.408 . S
C2693 C2692 1.310 . S
C2693 H2713 0.930 . S
C2694 C2695 1.474 . S
C2694 C2696 1.285 . S
C2694 H2714 0.929 . S
C2695 C2692 1.461 . S
C2695 C2694 1.474 . S
C2696 C2691 1.342 . S
C2696 C2694 1.285 . S
C2696 H2715 0.930 . S
C2697 C2700 1.424 . S
C2697 C2702 1.245 . S
C2697 C2703 1.428 . S
C2698 C2701 1.260 . S
C2698 C2702 1.477 . S
C2698 H2716 0.932 . S
C2699 C2700 1.384 . S
C2699 C2701 1.479 . S
C2699 H2717 0.929 . S
C2700 C2697 1.424 . S
C2700 C2699 1.384 . S
C2700 H2718 0.928 . S
C2701 C2698 1.260 . S
C2701 C2699 1.479 . S
C2702 C2697 1.245 . S
C2702 C2698 1.477 . S
C2702 H2719 0.932 . S
C2703 U2686 2.882 . S
C2703 C2697 1.428 . S
C2703 O2706 1.301 . S
C2703 O2707 1.282 . S
O2704 U2686 2.441 . S
O2704 C2690 1.249 . S
O2705 U2686 2.420 . S
O2705 C2690 1.202 . S
O2706 U2686 2.455 . S
O2706 C2703 1.301 . S
O2707 U2686 2.449 . S
O2707 C2703 1.282 . S
H2708 C2681 0.931 . S
H2709 C2683 0.929 . S
H2710 C2684 0.930 . S
H2711 C2685 0.931 . S
H2712 C2692 0.932 . S
H2713 C2693 0.930 . S
H2714 C2694 0.929 . S
H2715 C2696 0.930 . S
H2716 C2698 0.932 . S
H2717 C2699 0.929 . S
H2718 C2700 0.928 . S
H2719 C2702 0.932 . S
C2720 C2721 1.264 . S
C2720 C2725 1.479 . S
C2720 C2730 1.465 . S
C2721 C2720 1.264 . S
C2721 C2723 1.339 . S
C2721 H2748 0.931 . S
C2722 C2723 1.395 . S
C2722 C2724 1.320 . S
C2723 C2721 1.339 . S
C2723 C2722 1.395 . S
C2723 H2749 0.929 . S
C2724 C2722 1.320 . S
C2724 C2725 1.405 . S
C2724 H2750 0.930 . S
C2725 C2720 1.479 . S
C2725 C2724 1.405 . S
C2725 H2751 0.931 . S
U2726 O2727 2.454 . S
U2726 O2728 2.458 . S
U2726 C2729 2.984 . S
U2726 C2730 2.847 . S
U2726 C2743 2.882 . S
U2726 O2744 2.441 . S
U2726 O2745 2.420 . S
U2726 O2746 2.455 . S
U2726 O2747 2.449 . S
O2727 U2726 2.454 . S
O2727 C2729 1.353 . S
O2728 U2726 2.458 . S
O2728 C2729 1.286 . S
C2729 U2726 2.984 . S
C2729 O2727 1.353 . S
C2729 O2728 1.286 . S
C2729 C2731 1.363 . S
C2730 C2720 1.465 . S
C2730 U2726 2.847 . S
C2730 O2744 1.249 . S
C2730 O2745 1.202 . S
C2731 C2729 1.363 . S
C2731 C2733 1.408 . S
C2731 C2736 1.342 . S
C2732 C2733 1.310 . S
C2732 C2735 1.461 . S
C2732 H2752 0.932 . S
C2733 C2731 1.408 . S
C2733 C2732 1.310 . S
C2733 H2753 0.930 . S
C2734 C2735 1.474 . S
C2734 C2736 1.285 . S
C2734 H2754 0.929 . S
C2735 C2732 1.461 . S
C2735 C2734 1.474 . S
C2736 C2731 1.342 . S
C2736 C2734 1.285 . S
C2736 H2755 0.930 . S
C2737 C2740 1.424 . S
C2737 C2742 1.245 . S
C2737 C2743 1.428 . S
C2738 C2741 1.260 . S
C2738 C2742 1.477 . S
C2738 H2756 0.932 . S
C2739 C2740 1.384 . S
C2739 C2741 1.479 . S
C2739 H2757 0.929 . S
C2740 C2737 1.424 . S
C2740 C2739 1.384 . S
C2740 H2758 0.928 . S
C2741 C2738 1.260 . S
C2741 C2739 1.479 . S
C2742 C2737 1.245 . S
C2742 C2738 1.477 . S
C2742 H2759 0.932 . S
C2743 U2726 2.882 . S
C2743 C2737 1.428 . S
C2743 O2746 1.301 . S
C2743 O2747 1.282 . S
O2744 U2726 2.441 . S
O2744 C2730 1.249 . S
O2745 U2726 2.420 . S
O2745 C2730 1.202 . S
O2746 U2726 2.455 . S
O2746 C2743 1.301 . S
O2747 U2726 2.449 . S
O2747 C2743 1.282 . S
H2748 C2721 0.931 . S
H2749 C2723 0.929 . S
H2750 C2724 0.930 . S
H2751 C2725 0.931 . S
H2752 C2732 0.932 . S
H2753 C2733 0.930 . S
H2754 C2734 0.929 . S
H2755 C2736 0.930 . S
H2756 C2738 0.932 . S
H2757 C2739 0.929 . S
H2758 C2740 0.928 . S
H2759 C2742 0.932 . S
C2760 C2761 1.264 . S
C2760 C2765 1.479 . S
C2760 C2770 1.465 . S
C2761 C2760 1.264 . S
C2761 C2763 1.339 . S
C2761 H2788 0.931 . S
C2762 C2763 1.395 . S
C2762 C2764 1.320 . S
C2763 C2761 1.339 . S
C2763 C2762 1.395 . S
C2763 H2789 0.929 . S
C2764 C2762 1.320 . S
C2764 C2765 1.405 . S
C2764 H2790 0.930 . S
C2765 C2760 1.479 . S
C2765 C2764 1.405 . S
C2765 H2791 0.931 . S
U2766 O2767 2.454 . S
U2766 O2768 2.458 . S
U2766 C2769 2.984 . S
U2766 C2770 2.847 . S
U2766 C2783 2.882 . S
U2766 O2784 2.441 . S
U2766 O2785 2.420 . S
U2766 O2786 2.455 . S
U2766 O2787 2.449 . S
O2767 U2766 2.454 . S
O2767 C2769 1.353 . S
O2768 U2766 2.458 . S
O2768 C2769 1.286 . S
C2769 U2766 2.984 . S
C2769 O2767 1.353 . S
C2769 O2768 1.286 . S
C2769 C2771 1.363 . S
C2770 C2760 1.465 . S
C2770 U2766 2.847 . S
C2770 O2784 1.249 . S
C2770 O2785 1.202 . S
C2771 C2769 1.363 . S
C2771 C2773 1.408 . S
C2771 C2776 1.342 . S
C2772 C2773 1.310 . S
C2772 C2775 1.461 . S
C2772 H2792 0.932 . S
C2773 C2771 1.408 . S
C2773 C2772 1.310 . S
C2773 H2793 0.930 . S
C2774 C2775 1.474 . S
C2774 C2776 1.285 . S
C2774 H2794 0.929 . S
C2775 C2772 1.461 . S
C2775 C2774 1.474 . S
C2776 C2771 1.342 . S
C2776 C2774 1.285 . S
C2776 H2795 0.930 . S
C2777 C2780 1.424 . S
C2777 C2782 1.245 . S
C2777 C2783 1.428 . S
C2778 C2781 1.260 . S
C2778 C2782 1.477 . S
C2778 H2796 0.932 . S
C2779 C2780 1.384 . S
C2779 C2781 1.479 . S
C2779 H2797 0.929 . S
C2780 C2777 1.424 . S
C2780 C2779 1.384 . S
C2780 H2798 0.928 . S
C2781 C2778 1.260 . S
C2781 C2779 1.479 . S
C2782 C2777 1.245 . S
C2782 C2778 1.477 . S
C2782 H2799 0.932 . S
C2783 U2766 2.882 . S
C2783 C2777 1.428 . S
C2783 O2786 1.301 . S
C2783 O2787 1.282 . S
O2784 U2766 2.441 . S
O2784 C2770 1.249 . S
O2785 U2766 2.420 . S
O2785 C2770 1.202 . S
O2786 U2766 2.455 . S
O2786 C2783 1.301 . S
O2787 U2766 2.449 . S
O2787 C2783 1.282 . S
H2788 C2761 0.931 . S
H2789 C2763 0.929 . S
H2790 C2764 0.930 . S
H2791 C2765 0.931 . S
H2792 C2772 0.932 . S
H2793 C2773 0.930 . S
H2794 C2774 0.929 . S
H2795 C2776 0.930 . S
H2796 C2778 0.932 . S
H2797 C2779 0.929 . S
H2798 C2780 0.928 . S
H2799 C2782 0.932 . S
C2800 C2801 1.264 . S
C2800 C2805 1.479 . S
C2800 C2810 1.465 . S
C2801 C2800 1.264 . S
C2801 C2803 1.339 . S
C2801 H2828 0.931 . S
C2802 C2803 1.395 . S
C2802 C2804 1.320 . S
C2803 C2801 1.339 . S
C2803 C2802 1.395 . S
C2803 H2829 0.929 . S
C2804 C2802 1.320 . S
C2804 C2805 1.405 . S
C2804 H2830 0.930 . S
C2805 C2800 1.479 . S
C2805 C2804 1.405 . S
C2805 H2831 0.931 . S
U2806 O2807 2.454 . S
U2806 O2808 2.458 . S
U2806 C2809 2.984 . S
U2806 C2810 2.847 . S
U2806 C2823 2.882 . S
U2806 O2824 2.441 . S
U2806 O2825 2.420 . S
U2806 O2826 2.455 . S
U2806 O2827 2.449 . S
O2807 U2806 2.454 . S
O2807 C2809 1.353 . S
O2808 U2806 2.458 . S
O2808 C2809 1.286 . S
C2809 U2806 2.984 . S
C2809 O2807 1.353 . S
C2809 O2808 1.286 . S
C2809 C2811 1.363 . S
C2810 C2800 1.465 . S
C2810 U2806 2.847 . S
C2810 O2824 1.249 . S
C2810 O2825 1.202 . S
C2811 C2809 1.363 . S
C2811 C2813 1.408 . S
C2811 C2816 1.342 . S
C2812 C2813 1.310 . S
C2812 C2815 1.461 . S
C2812 H2832 0.932 . S
C2813 C2811 1.408 . S
C2813 C2812 1.310 . S
C2813 H2833 0.930 . S
C2814 C2815 1.474 . S
C2814 C2816 1.285 . S
C2814 H2834 0.929 . S
C2815 C2812 1.461 . S
C2815 C2814 1.474 . S
C2816 C2811 1.342 . S
C2816 C2814 1.285 . S
C2816 H2835 0.930 . S
C2817 C2820 1.424 . S
C2817 C2822 1.245 . S
C2817 C2823 1.428 . S
C2818 C2821 1.260 . S
C2818 C2822 1.477 . S
C2818 H2836 0.932 . S
C2819 C2820 1.384 . S
C2819 C2821 1.479 . S
C2819 H2837 0.929 . S
C2820 C2817 1.424 . S
C2820 C2819 1.384 . S
C2820 H2838 0.928 . S
C2821 C2818 1.260 . S
C2821 C2819 1.479 . S
C2822 C2817 1.245 . S
C2822 C2818 1.477 . S
C2822 H2839 0.932 . S
C2823 U2806 2.882 . S
C2823 C2817 1.428 . S
C2823 O2826 1.301 . S
C2823 O2827 1.282 . S
O2824 U2806 2.441 . S
O2824 C2810 1.249 . S
O2825 U2806 2.420 . S
O2825 C2810 1.202 . S
O2826 U2806 2.455 . S
O2826 C2823 1.301 . S
O2827 U2806 2.449 . S
O2827 C2823 1.282 . S
H2828 C2801 0.931 . S
H2829 C2803 0.929 . S
H2830 C2804 0.930 . S
H2831 C2805 0.931 . S
H2832 C2812 0.932 . S
H2833 C2813 0.930 . S
H2834 C2814 0.929 . S
H2835 C2816 0.930 . S
H2836 C2818 0.932 . S
H2837 C2819 0.929 . S
H2838 C2820 0.928 . S
H2839 C2822 0.932 . S
C2840 C2841 1.264 . S
C2840 C2845 1.479 . S
C2840 C2850 1.465 . S
C2841 C2840 1.264 . S
C2841 C2843 1.339 . S
C2841 H2868 0.931 . S
C2842 C2843 1.395 . S
C2842 C2844 1.320 . S
C2843 C2841 1.339 . S
C2843 C2842 1.395 . S
C2843 H2869 0.929 . S
C2844 C2842 1.320 . S
C2844 C2845 1.405 . S
C2844 H2870 0.930 . S
C2845 C2840 1.479 . S
C2845 C2844 1.405 . S
C2845 H2871 0.931 . S
U2846 O2847 2.454 . S
U2846 O2848 2.458 . S
U2846 C2849 2.984 . S
U2846 C2850 2.847 . S
U2846 C2863 2.882 . S
U2846 O2864 2.441 . S
U2846 O2865 2.420 . S
U2846 O2866 2.455 . S
U2846 O2867 2.449 . S
O2847 U2846 2.454 . S
O2847 C2849 1.353 . S
O2848 U2846 2.458 . S
O2848 C2849 1.286 . S
C2849 U2846 2.984 . S
C2849 O2847 1.353 . S
C2849 O2848 1.286 . S
C2849 C2851 1.363 . S
C2850 C2840 1.465 . S
C2850 U2846 2.847 . S
C2850 O2864 1.249 . S
C2850 O2865 1.202 . S
C2851 C2849 1.363 . S
C2851 C2853 1.408 . S
C2851 C2856 1.342 . S
C2852 C2853 1.310 . S
C2852 C2855 1.461 . S
C2852 H2872 0.932 . S
C2853 C2851 1.408 . S
C2853 C2852 1.310 . S
C2853 H2873 0.930 . S
C2854 C2855 1.474 . S
C2854 C2856 1.285 . S
C2854 H2874 0.929 . S
C2855 C2852 1.461 . S
C2855 C2854 1.474 . S
C2856 C2851 1.342 . S
C2856 C2854 1.285 . S
C2856 H2875 0.930 . S
C2857 C2860 1.424 . S
C2857 C2862 1.245 . S
C2857 C2863 1.428 . S
C2858 C2861 1.260 . S
C2858 C2862 1.477 . S
C2858 H2876 0.932 . S
C2859 C2860 1.384 . S
C2859 C2861 1.479 . S
C2859 H2877 0.929 . S
C2860 C2857 1.424 . S
C2860 C2859 1.384 . S
C2860 H2878 0.928 . S
C2861 C2858 1.260 . S
C2861 C2859 1.479 . S
C2862 C2857 1.245 . S
C2862 C2858 1.477 . S
C2862 H2879 0.932 . S
C2863 U2846 2.882 . S
C2863 C2857 1.428 . S
C2863 O2866 1.301 . S
C2863 O2867 1.282 . S
O2864 U2846 2.441 . S
O2864 C2850 1.249 . S
O2865 U2846 2.420 . S
O2865 C2850 1.202 . S
O2866 U2846 2.455 . S
O2866 C2863 1.301 . S
O2867 U2846 2.449 . S
O2867 C2863 1.282 . S
H2868 C2841 0.931 . S
H2869 C2843 0.929 . S
H2870 C2844 0.930 . S
H2871 C2845 0.931 . S
H2872 C2852 0.932 . S
H2873 C2853 0.930 . S
H2874 C2854 0.929 . S
H2875 C2856 0.930 . S
H2876 C2858 0.932 . S
H2877 C2859 0.929 . S
H2878 C2860 0.928 . S
H2879 C2862 0.932 . S
C2880 C2881 1.264 . S
C2880 C2885 1.479 . S
C2880 C2890 1.465 . S
C2881 C2880 1.264 . S
C2881 C2883 1.339 . S
C2881 H2908 0.931 . S
C2882 C2883 1.395 . S
C2882 C2884 1.320 . S
C2883 C2881 1.339 . S
C2883 C2882 1.395 . S
C2883 H2909 0.929 . S
C2884 C2882 1.320 . S
C2884 C2885 1.405 . S
C2884 H2910 0.930 . S
C2885 C2880 1.479 . S
C2885 C2884 1.405 . S
C2885 H2911 0.931 . S
U2886 O2887 2.454 . S
U2886 O2888 2.458 . S
U2886 C2889 2.984 . S
U2886 C2890 2.847 . S
U2886 C2903 2.882 . S
U2886 O2904 2.441 . S
U2886 O2905 2.420 . S
U2886 O2906 2.455 . S
U2886 O2907 2.449 . S
O2887 U2886 2.454 . S
O2887 C2889 1.353 . S
O2888 U2886 2.458 . S
O2888 C2889 1.286 . S
C2889 U2886 2.984 . S
C2889 O2887 1.353 . S
C2889 O2888 1.286 . S
C2889 C2891 1.363 . S
C2890 C2880 1.465 . S
C2890 U2886 2.847 . S
C2890 O2904 1.249 . S
C2890 O2905 1.202 . S
C2891 C2889 1.363 . S
C2891 C2893 1.408 . S
C2891 C2896 1.342 . S
C2892 C2893 1.310 . S
C2892 C2895 1.461 . S
C2892 H2912 0.932 . S
C2893 C2891 1.408 . S
C2893 C2892 1.310 . S
C2893 H2913 0.930 . S
C2894 C2895 1.474 . S
C2894 C2896 1.285 . S
C2894 H2914 0.929 . S
C2895 C2892 1.461 . S
C2895 C2894 1.474 . S
C2896 C2891 1.342 . S
C2896 C2894 1.285 . S
C2896 H2915 0.930 . S
C2897 C2900 1.424 . S
C2897 C2902 1.245 . S
C2897 C2903 1.428 . S
C2898 C2901 1.260 . S
C2898 C2902 1.477 . S
C2898 H2916 0.932 . S
C2899 C2900 1.384 . S
C2899 C2901 1.479 . S
C2899 H2917 0.929 . S
C2900 C2897 1.424 . S
C2900 C2899 1.384 . S
C2900 H2918 0.928 . S
C2901 C2898 1.260 . S
C2901 C2899 1.479 . S
C2902 C2897 1.245 . S
C2902 C2898 1.477 . S
C2902 H2919 0.932 . S
C2903 U2886 2.882 . S
C2903 C2897 1.428 . S
C2903 O2906 1.301 . S
C2903 O2907 1.282 . S
O2904 U2886 2.441 . S
O2904 C2890 1.249 . S
O2905 U2886 2.420 . S
O2905 C2890 1.202 . S
O2906 U2886 2.455 . S
O2906 C2903 1.301 . S
O2907 U2886 2.449 . S
O2907 C2903 1.282 . S
H2908 C2881 0.931 . S
H2909 C2883 0.929 . S
H2910 C2884 0.930 . S
H2911 C2885 0.931 . S
H2912 C2892 0.932 . S
H2913 C2893 0.930 . S
H2914 C2894 0.929 . S
H2915 C2896 0.930 . S
H2916 C2898 0.932 . S
H2917 C2899 0.929 . S
H2918 C2900 0.928 . S
H2919 C2902 0.932 . S
C2920 C2921 1.264 . S
C2920 C2925 1.479 . S
C2920 C2930 1.465 . S
C2921 C2920 1.264 . S
C2921 C2923 1.339 . S
C2921 H2948 0.931 . S
C2922 C2923 1.395 . S
C2922 C2924 1.320 . S
C2923 C2921 1.339 . S
C2923 C2922 1.395 . S
C2923 H2949 0.929 . S
C2924 C2922 1.320 . S
C2924 C2925 1.405 . S
C2924 H2950 0.930 . S
C2925 C2920 1.479 . S
C2925 C2924 1.405 . S
C2925 H2951 0.931 . S
U2926 O2927 2.454 . S
U2926 O2928 2.458 . S
U2926 C2929 2.984 . S
U2926 C2930 2.847 . S
U2926 C2943 2.882 . S
U2926 O2944 2.441 . S
U2926 O2945 2.420 . S
U2926 O2946 2.455 . S
U2926 O2947 2.449 . S
O2927 U2926 2.454 . S
O2927 C2929 1.353 . S
O2928 U2926 2.458 . S
O2928 C2929 1.286 . S
C2929 U2926 2.984 . S
C2929 O2927 1.353 . S
C2929 O2928 1.286 . S
C2929 C2931 1.363 . S
C2930 C2920 1.465 . S
C2930 U2926 2.847 . S
C2930 O2944 1.249 . S
C2930 O2945 1.202 . S
C2931 C2929 1.363 . S
C2931 C2933 1.408 . S
C2931 C2936 1.342 . S
C2932 C2933 1.310 . S
C2932 C2935 1.461 . S
C2932 H2952 0.932 . S
C2933 C2931 1.408 . S
C2933 C2932 1.310 . S
C2933 H2953 0.930 . S
C2934 C2935 1.474 . S
C2934 C2936 1.285 . S
C2934 H2954 0.929 . S
C2935 C2932 1.461 . S
C2935 C2934 1.474 . S
C2936 C2931 1.342 . S
C2936 C2934 1.285 . S
C2936 H2955 0.930 . S
C2937 C2940 1.424 . S
C2937 C2942 1.245 . S
C2937 C2943 1.428 . S
C2938 C2941 1.260 . S
C2938 C2942 1.477 . S
C2938 H2956 0.932 . S
C2939 C2940 1.384 . S
C2939 C2941 1.479 . S
C2939 H2957 0.929 . S
C2940 C2937 1.424 . S
C2940 C2939 1.384 . S
C2940 H2958 0.928 . S
C2941 C2938 1.260 . S
C2941 C2939 1.479 . S
C2942 C2937 1.245 . S
C2942 C2938 1.477 . S
C2942 H2959 0.932 . S
C2943 U2926 2.882 . S
C2943 C2937 1.428 . S
C2943 O2946 1.301 . S
C2943 O2947 1.282 . S
O2944 U2926 2.441 . S
O2944 C2930 1.249 . S
O2945 U2926 2.420 . S
O2945 C2930 1.202 . S
O2946 U2926 2.455 . S
O2946 C2943 1.301 . S
O2947 U2926 2.449 . S
O2947 C2943 1.282 . S
H2948 C2921 0.931 . S
H2949 C2923 0.929 . S
H2950 C2924 0.930 . S
H2951 C2925 0.931 . S
H2952 C2932 0.932 . S
H2953 C2933 0.930 . S
H2954 C2934 0.929 . S
H2955 C2936 0.930 . S
H2956 C2938 0.932 . S
H2957 C2939 0.929 . S
H2958 C2940 0.928 . S
H2959 C2942 0.932 . S
C2960 C2961 1.264 . S
C2960 C2965 1.479 . S
C2960 C2970 1.465 . S
C2961 C2960 1.264 . S
C2961 C2963 1.339 . S
C2961 H2988 0.931 . S
C2962 C2963 1.395 . S
C2962 C2964 1.320 . S
C2963 C2961 1.339 . S
C2963 C2962 1.395 . S
C2963 H2989 0.929 . S
C2964 C2962 1.320 . S
C2964 C2965 1.405 . S
C2964 H2990 0.930 . S
C2965 C2960 1.479 . S
C2965 C2964 1.405 . S
C2965 H2991 0.931 . S
U2966 O2967 2.454 . S
U2966 O2968 2.458 . S
U2966 C2969 2.984 . S
U2966 C2970 2.847 . S
U2966 C2983 2.882 . S
U2966 O2984 2.441 . S
U2966 O2985 2.420 . S
U2966 O2986 2.455 . S
U2966 O2987 2.449 . S
O2967 U2966 2.454 . S
O2967 C2969 1.353 . S
O2968 U2966 2.458 . S
O2968 C2969 1.286 . S
C2969 U2966 2.984 . S
C2969 O2967 1.353 . S
C2969 O2968 1.286 . S
C2969 C2971 1.363 . S
C2970 C2960 1.465 . S
C2970 U2966 2.847 . S
C2970 O2984 1.249 . S
C2970 O2985 1.202 . S
C2971 C2969 1.363 . S
C2971 C2973 1.408 . S
C2971 C2976 1.342 . S
C2972 C2973 1.310 . S
C2972 C2975 1.461 . S
C2972 H2992 0.932 . S
C2973 C2971 1.408 . S
C2973 C2972 1.310 . S
C2973 H2993 0.930 . S
C2974 C2975 1.474 . S
C2974 C2976 1.285 . S
C2974 H2994 0.929 . S
C2975 C2972 1.461 . S
C2975 C2974 1.474 . S
C2976 C2971 1.342 . S
C2976 C2974 1.285 . S
C2976 H2995 0.930 . S
C2977 C2980 1.424 . S
C2977 C2982 1.245 . S
C2977 C2983 1.428 . S
C2978 C2981 1.260 . S
C2978 C2982 1.477 . S
C2978 H2996 0.932 . S
C2979 C2980 1.384 . S
C2979 C2981 1.479 . S
C2979 H2997 0.929 . S
C2980 C2977 1.424 . S
C2980 C2979 1.384 . S
C2980 H2998 0.928 . S
C2981 C2978 1.260 . S
C2981 C2979 1.479 . S
C2982 C2977 1.245 . S
C2982 C2978 1.477 . S
C2982 H2999 0.932 . S
C2983 U2966 2.882 . S
C2983 C2977 1.428 . S
C2983 O2986 1.301 . S
C2983 O2987 1.282 . S
O2984 U2966 2.441 . S
O2984 C2970 1.249 . S
O2985 U2966 2.420 . S
O2985 C2970 1.202 . S
O2986 U2966 2.455 . S
O2986 C2983 1.301 . S
O2987 U2966 2.449 . S
O2987 C2983 1.282 . S
H2988 C2961 0.931 . S
H2989 C2963 0.929 . S
H2990 C2964 0.930 . S
H2991 C2965 0.931 . S
H2992 C2972 0.932 . S
H2993 C2973 0.930 . S
H2994 C2974 0.929 . S
H2995 C2976 0.930 . S
H2996 C2978 0.932 . S
H2997 C2979 0.929 . S
H2998 C2980 0.928 . S
H2999 C2982 0.932 . S
C3000 C3001 1.264 . S
C3000 C3005 1.479 . S
C3000 C3010 1.465 . S
C3001 C3000 1.264 . S
C3001 C3003 1.339 . S
C3001 H3028 0.931 . S
C3002 C3003 1.395 . S
C3002 C3004 1.320 . S
C3003 C3001 1.339 . S
C3003 C3002 1.395 . S
C3003 H3029 0.929 . S
C3004 C3002 1.320 . S
C3004 C3005 1.405 . S
C3004 H3030 0.930 . S
C3005 C3000 1.479 . S
C3005 C3004 1.405 . S
C3005 H3031 0.931 . S
U3006 O3007 2.454 . S
U3006 O3008 2.458 . S
U3006 C3009 2.984 . S
U3006 C3010 2.847 . S
U3006 C3023 2.882 . S
U3006 O3024 2.441 . S
U3006 O3025 2.420 . S
U3006 O3026 2.455 . S
U3006 O3027 2.449 . S
O3007 U3006 2.454 . S
O3007 C3009 1.353 . S
O3008 U3006 2.458 . S
O3008 C3009 1.286 . S
C3009 U3006 2.984 . S
C3009 O3007 1.353 . S
C3009 O3008 1.286 . S
C3009 C3011 1.363 . S
C3010 C3000 1.465 . S
C3010 U3006 2.847 . S
C3010 O3024 1.249 . S
C3010 O3025 1.202 . S
C3011 C3009 1.363 . S
C3011 C3013 1.408 . S
C3011 C3016 1.342 . S
C3012 C3013 1.310 . S
C3012 C3015 1.461 . S
C3012 H3032 0.932 . S
C3013 C3011 1.408 . S
C3013 C3012 1.310 . S
C3013 H3033 0.930 . S
C3014 C3015 1.474 . S
C3014 C3016 1.285 . S
C3014 H3034 0.929 . S
C3015 C3012 1.461 . S
C3015 C3014 1.474 . S
C3016 C3011 1.342 . S
C3016 C3014 1.285 . S
C3016 H3035 0.930 . S
C3017 C3020 1.424 . S
C3017 C3022 1.245 . S
C3017 C3023 1.428 . S
C3018 C3021 1.260 . S
C3018 C3022 1.477 . S
C3018 H3036 0.932 . S
C3019 C3020 1.384 . S
C3019 C3021 1.479 . S
C3019 H3037 0.929 . S
C3020 C3017 1.424 . S
C3020 C3019 1.384 . S
C3020 H3038 0.928 . S
C3021 C3018 1.260 . S
C3021 C3019 1.479 . S
C3022 C3017 1.245 . S
C3022 C3018 1.477 . S
C3022 H3039 0.932 . S
C3023 U3006 2.882 . S
C3023 C3017 1.428 . S
C3023 O3026 1.301 . S
C3023 O3027 1.282 . S
O3024 U3006 2.441 . S
O3024 C3010 1.249 . S
O3025 U3006 2.420 . S
O3025 C3010 1.202 . S
O3026 U3006 2.455 . S
O3026 C3023 1.301 . S
O3027 U3006 2.449 . S
O3027 C3023 1.282 . S
H3028 C3001 0.931 . S
H3029 C3003 0.929 . S
H3030 C3004 0.930 . S
H3031 C3005 0.931 . S
H3032 C3012 0.932 . S
H3033 C3013 0.930 . S
H3034 C3014 0.929 . S
H3035 C3016 0.930 . S
H3036 C3018 0.932 . S
H3037 C3019 0.929 . S
H3038 C3020 0.928 . S
H3039 C3022 0.932 . S
C3040 C3041 1.264 . S
C3040 C3045 1.479 . S
C3040 C3050 1.465 . S
C3041 C3040 1.264 . S
C3041 C3043 1.339 . S
C3041 H3068 0.931 . S
C3042 C3043 1.395 . S
C3042 C3044 1.320 . S
C3043 C3041 1.339 . S
C3043 C3042 1.395 . S
C3043 H3069 0.929 . S
C3044 C3042 1.320 . S
C3044 C3045 1.405 . S
C3044 H3070 0.930 . S
C3045 C3040 1.479 . S
C3045 C3044 1.405 . S
C3045 H3071 0.931 . S
U3046 O3047 2.454 . S
U3046 O3048 2.458 . S
U3046 C3049 2.984 . S
U3046 C3050 2.847 . S
U3046 C3063 2.882 . S
U3046 O3064 2.441 . S
U3046 O3065 2.420 . S
U3046 O3066 2.455 . S
U3046 O3067 2.449 . S
O3047 U3046 2.454 . S
O3047 C3049 1.353 . S
O3048 U3046 2.458 . S
O3048 C3049 1.286 . S
C3049 U3046 2.984 . S
C3049 O3047 1.353 . S
C3049 O3048 1.286 . S
C3049 C3051 1.363 . S
C3050 C3040 1.465 . S
C3050 U3046 2.847 . S
C3050 O3064 1.249 . S
C3050 O3065 1.202 . S
C3051 C3049 1.363 . S
C3051 C3053 1.408 . S
C3051 C3056 1.342 . S
C3052 C3053 1.310 . S
C3052 C3055 1.461 . S
C3052 H3072 0.932 . S
C3053 C3051 1.408 . S
C3053 C3052 1.310 . S
C3053 H3073 0.930 . S
C3054 C3055 1.474 . S
C3054 C3056 1.285 . S
C3054 H3074 0.929 . S
C3055 C3052 1.461 . S
C3055 C3054 1.474 . S
C3056 C3051 1.342 . S
C3056 C3054 1.285 . S
C3056 H3075 0.930 . S
C3057 C3060 1.424 . S
C3057 C3062 1.245 . S
C3057 C3063 1.428 . S
C3058 C3061 1.260 . S
C3058 C3062 1.477 . S
C3058 H3076 0.932 . S
C3059 C3060 1.384 . S
C3059 C3061 1.479 . S
C3059 H3077 0.929 . S
C3060 C3057 1.424 . S
C3060 C3059 1.384 . S
C3060 H3078 0.928 . S
C3061 C3058 1.260 . S
C3061 C3059 1.479 . S
C3062 C3057 1.245 . S
C3062 C3058 1.477 . S
C3062 H3079 0.932 . S
C3063 U3046 2.882 . S
C3063 C3057 1.428 . S
C3063 O3066 1.301 . S
C3063 O3067 1.282 . S
O3064 U3046 2.441 . S
O3064 C3050 1.249 . S
O3065 U3046 2.420 . S
O3065 C3050 1.202 . S
O3066 U3046 2.455 . S
O3066 C3063 1.301 . S
O3067 U3046 2.449 . S
O3067 C3063 1.282 . S
H3068 C3041 0.931 . S
H3069 C3043 0.929 . S
H3070 C3044 0.930 . S
H3071 C3045 0.931 . S
H3072 C3052 0.932 . S
H3073 C3053 0.930 . S
H3074 C3054 0.929 . S
H3075 C3056 0.930 . S
H3076 C3058 0.932 . S
H3077 C3059 0.929 . S
H3078 C3060 0.928 . S
H3079 C3062 0.932 . S
C3080 C3081 1.264 . S
C3080 C3085 1.479 . S
C3080 C3090 1.465 . S
C3081 C3080 1.264 . S
C3081 C3083 1.339 . S
C3081 H3108 0.931 . S
C3082 C3083 1.395 . S
C3082 C3084 1.320 . S
C3083 C3081 1.339 . S
C3083 C3082 1.395 . S
C3083 H3109 0.929 . S
C3084 C3082 1.320 . S
C3084 C3085 1.405 . S
C3084 H3110 0.930 . S
C3085 C3080 1.479 . S
C3085 C3084 1.405 . S
C3085 H3111 0.931 . S
U3086 O3087 2.454 . S
U3086 O3088 2.458 . S
U3086 C3089 2.984 . S
U3086 C3090 2.847 . S
U3086 C3103 2.882 . S
U3086 O3104 2.441 . S
U3086 O3105 2.420 . S
U3086 O3106 2.455 . S
U3086 O3107 2.449 . S
O3087 U3086 2.454 . S
O3087 C3089 1.353 . S
O3088 U3086 2.458 . S
O3088 C3089 1.286 . S
C3089 U3086 2.984 . S
C3089 O3087 1.353 . S
C3089 O3088 1.286 . S
C3089 C3091 1.363 . S
C3090 C3080 1.465 . S
C3090 U3086 2.847 . S
C3090 O3104 1.249 . S
C3090 O3105 1.202 . S
C3091 C3089 1.363 . S
C3091 C3093 1.408 . S
C3091 C3096 1.342 . S
C3092 C3093 1.310 . S
C3092 C3095 1.461 . S
C3092 H3112 0.932 . S
C3093 C3091 1.408 . S
C3093 C3092 1.310 . S
C3093 H3113 0.930 . S
C3094 C3095 1.474 . S
C3094 C3096 1.285 . S
C3094 H3114 0.929 . S
C3095 C3092 1.461 . S
C3095 C3094 1.474 . S
C3096 C3091 1.342 . S
C3096 C3094 1.285 . S
C3096 H3115 0.930 . S
C3097 C3100 1.424 . S
C3097 C3102 1.245 . S
C3097 C3103 1.428 . S
C3098 C3101 1.260 . S
C3098 C3102 1.477 . S
C3098 H3116 0.932 . S
C3099 C3100 1.384 . S
C3099 C3101 1.479 . S
C3099 H3117 0.929 . S
C3100 C3097 1.424 . S
C3100 C3099 1.384 . S
C3100 H3118 0.928 . S
C3101 C3098 1.260 . S
C3101 C3099 1.479 . S
C3102 C3097 1.245 . S
C3102 C3098 1.477 . S
C3102 H3119 0.932 . S
C3103 U3086 2.882 . S
C3103 C3097 1.428 . S
C3103 O3106 1.301 . S
C3103 O3107 1.282 . S
O3104 U3086 2.441 . S
O3104 C3090 1.249 . S
O3105 U3086 2.420 . S
O3105 C3090 1.202 . S
O3106 U3086 2.455 . S
O3106 C3103 1.301 . S
O3107 U3086 2.449 . S
O3107 C3103 1.282 . S
H3108 C3081 0.931 . S
H3109 C3083 0.929 . S
H3110 C3084 0.930 . S
H3111 C3085 0.931 . S
H3112 C3092 0.932 . S
H3113 C3093 0.930 . S
H3114 C3094 0.929 . S
H3115 C3096 0.930 . S
H3116 C3098 0.932 . S
H3117 C3099 0.929 . S
H3118 C3100 0.928 . S
H3119 C3102 0.932 . S
C3120 C3121 1.264 . S
C3120 C3125 1.479 . S
C3120 C3130 1.465 . S
C3121 C3120 1.264 . S
C3121 C3123 1.339 . S
C3121 H3148 0.931 . S
C3122 C3123 1.395 . S
C3122 C3124 1.320 . S
C3123 C3121 1.339 . S
C3123 C3122 1.395 . S
C3123 H3149 0.929 . S
C3124 C3122 1.320 . S
C3124 C3125 1.405 . S
C3124 H3150 0.930 . S
C3125 C3120 1.479 . S
C3125 C3124 1.405 . S
C3125 H3151 0.931 . S
U3126 O3127 2.454 . S
U3126 O3128 2.458 . S
U3126 C3129 2.984 . S
U3126 C3130 2.847 . S
U3126 C3143 2.882 . S
U3126 O3144 2.441 . S
U3126 O3145 2.420 . S
U3126 O3146 2.455 . S
U3126 O3147 2.449 . S
O3127 U3126 2.454 . S
O3127 C3129 1.353 . S
O3128 U3126 2.458 . S
O3128 C3129 1.286 . S
C3129 U3126 2.984 . S
C3129 O3127 1.353 . S
C3129 O3128 1.286 . S
C3129 C3131 1.363 . S
C3130 C3120 1.465 . S
C3130 U3126 2.847 . S
C3130 O3144 1.249 . S
C3130 O3145 1.202 . S
C3131 C3129 1.363 . S
C3131 C3133 1.408 . S
C3131 C3136 1.342 . S
C3132 C3133 1.310 . S
C3132 C3135 1.461 . S
C3132 H3152 0.932 . S
C3133 C3131 1.408 . S
C3133 C3132 1.310 . S
C3133 H3153 0.930 . S
C3134 C3135 1.474 . S
C3134 C3136 1.285 . S
C3134 H3154 0.929 . S
C3135 C3132 1.461 . S
C3135 C3134 1.474 . S
C3136 C3131 1.342 . S
C3136 C3134 1.285 . S
C3136 H3155 0.930 . S
C3137 C3140 1.424 . S
C3137 C3142 1.245 . S
C3137 C3143 1.428 . S
C3138 C3141 1.260 . S
C3138 C3142 1.477 . S
C3138 H3156 0.932 . S
C3139 C3140 1.384 . S
C3139 C3141 1.479 . S
C3139 H3157 0.929 . S
C3140 C3137 1.424 . S
C3140 C3139 1.384 . S
C3140 H3158 0.928 . S
C3141 C3138 1.260 . S
C3141 C3139 1.479 . S
C3142 C3137 1.245 . S
C3142 C3138 1.477 . S
C3142 H3159 0.932 . S
C3143 U3126 2.882 . S
C3143 C3137 1.428 . S
C3143 O3146 1.301 . S
C3143 O3147 1.282 . S
O3144 U3126 2.441 . S
O3144 C3130 1.249 . S
O3145 U3126 2.420 . S
O3145 C3130 1.202 . S
O3146 U3126 2.455 . S
O3146 C3143 1.301 . S
O3147 U3126 2.449 . S
O3147 C3143 1.282 . S
H3148 C3121 0.931 . S
H3149 C3123 0.929 . S
H3150 C3124 0.930 . S
H3151 C3125 0.931 . S
H3152 C3132 0.932 . S
H3153 C3133 0.930 . S
H3154 C3134 0.929 . S
H3155 C3136 0.930 . S
H3156 C3138 0.932 . S
H3157 C3139 0.929 . S
H3158 C3140 0.928 . S
H3159 C3142 0.932 . S
C3160 C3161 1.264 . S
C3160 C3165 1.479 . S
C3160 C3170 1.465 . S
C3161 C3160 1.264 . S
C3161 C3163 1.339 . S
C3161 H3188 0.931 . S
C3162 C3163 1.395 . S
C3162 C3164 1.320 . S
C3163 C3161 1.339 . S
C3163 C3162 1.395 . S
C3163 H3189 0.929 . S
C3164 C3162 1.320 . S
C3164 C3165 1.405 . S
C3164 H3190 0.930 . S
C3165 C3160 1.479 . S
C3165 C3164 1.405 . S
C3165 H3191 0.931 . S
U3166 O3167 2.454 . S
U3166 O3168 2.458 . S
U3166 C3169 2.984 . S
U3166 C3170 2.847 . S
U3166 C3183 2.882 . S
U3166 O3184 2.441 . S
U3166 O3185 2.420 . S
U3166 O3186 2.455 . S
U3166 O3187 2.449 . S
O3167 U3166 2.454 . S
O3167 C3169 1.353 . S
O3168 U3166 2.458 . S
O3168 C3169 1.286 . S
C3169 U3166 2.984 . S
C3169 O3167 1.353 . S
C3169 O3168 1.286 . S
C3169 C3171 1.363 . S
C3170 C3160 1.465 . S
C3170 U3166 2.847 . S
C3170 O3184 1.249 . S
C3170 O3185 1.202 . S
C3171 C3169 1.363 . S
C3171 C3173 1.408 . S
C3171 C3176 1.342 . S
C3172 C3173 1.310 . S
C3172 C3175 1.461 . S
C3172 H3192 0.932 . S
C3173 C3171 1.408 . S
C3173 C3172 1.310 . S
C3173 H3193 0.930 . S
C3174 C3175 1.474 . S
C3174 C3176 1.285 . S
C3174 H3194 0.929 . S
C3175 C3172 1.461 . S
C3175 C3174 1.474 . S
C3176 C3171 1.342 . S
C3176 C3174 1.285 . S
C3176 H3195 0.930 . S
C3177 C3180 1.424 . S
C3177 C3182 1.245 . S
C3177 C3183 1.428 . S
C3178 C3181 1.260 . S
C3178 C3182 1.477 . S
C3178 H3196 0.932 . S
C3179 C3180 1.384 . S
C3179 C3181 1.479 . S
C3179 H3197 0.929 . S
C3180 C3177 1.424 . S
C3180 C3179 1.384 . S
C3180 H3198 0.928 . S
C3181 C3178 1.260 . S
C3181 C3179 1.479 . S
C3182 C3177 1.245 . S
C3182 C3178 1.477 . S
C3182 H3199 0.932 . S
C3183 U3166 2.882 . S
C3183 C3177 1.428 . S
C3183 O3186 1.301 . S
C3183 O3187 1.282 . S
O3184 U3166 2.441 . S
O3184 C3170 1.249 . S
O3185 U3166 2.420 . S
O3185 C3170 1.202 . S
O3186 U3166 2.455 . S
O3186 C3183 1.301 . S
O3187 U3166 2.449 . S
O3187 C3183 1.282 . S
H3188 C3161 0.931 . S
H3189 C3163 0.929 . S
H3190 C3164 0.930 . S
H3191 C3165 0.931 . S
H3192 C3172 0.932 . S
H3193 C3173 0.930 . S
H3194 C3174 0.929 . S
H3195 C3176 0.930 . S
H3196 C3178 0.932 . S
H3197 C3179 0.929 . S
H3198 C3180 0.928 . S
H3199 C3182 0.932 . S
C3200 C3201 1.264 . S
C3200 C3205 1.479 . S
C3200 C3210 1.465 . S
C3201 C3200 1.264 . S
C3201 C3203 1.339 . S
C3201 H3228 0.931 . S
C3202 C3203 1.395 . S
C3202 C3204 1.320 . S
C3203 C3201 1.339 . S
C3203 C3202 1.395 . S
C3203 H3229 0.929 . S
C3204 C3202 1.320 . S
C3204 C3205 1.405 . S
C3204 H3230 0.930 . S
C3205 C3200 1.479 . S
C3205 C3204 1.405 . S
C3205 H3231 0.931 . S
U3206 O3207 2.454 . S
U3206 O3208 2.458 . S
U3206 C3209 2.984 . S
U3206 C3210 2.847 . S
U3206 C3223 2.882 . S
U3206 O3224 2.441 . S
U3206 O3225 2.420 . S
U3206 O3226 2.455 . S
U3206 O3227 2.449 . S
O3207 U3206 2.454 . S
O3207 C3209 1.353 . S
O3208 U3206 2.458 . S
O3208 C3209 1.286 . S
C3209 U3206 2.984 . S
C3209 O3207 1.353 . S
C3209 O3208 1.286 . S
C3209 C3211 1.363 . S
C3210 C3200 1.465 . S
C3210 U3206 2.847 . S
C3210 O3224 1.249 . S
C3210 O3225 1.202 . S
C3211 C3209 1.363 . S
C3211 C3213 1.408 . S
C3211 C3216 1.342 . S
C3212 C3213 1.310 . S
C3212 C3215 1.461 . S
C3212 H3232 0.932 . S
C3213 C3211 1.408 . S
C3213 C3212 1.310 . S
C3213 H3233 0.930 . S
C3214 C3215 1.474 . S
C3214 C3216 1.285 . S
C3214 H3234 0.929 . S
C3215 C3212 1.461 . S
C3215 C3214 1.474 . S
C3216 C3211 1.342 . S
C3216 C3214 1.285 . S
C3216 H3235 0.930 . S
C3217 C3220 1.424 . S
C3217 C3222 1.245 . S
C3217 C3223 1.428 . S
C3218 C3221 1.260 . S
C3218 C3222 1.477 . S
C3218 H3236 0.932 . S
C3219 C3220 1.384 . S
C3219 C3221 1.479 . S
C3219 H3237 0.929 . S
C3220 C3217 1.424 . S
C3220 C3219 1.384 . S
C3220 H3238 0.928 . S
C3221 C3218 1.260 . S
C3221 C3219 1.479 . S
C3222 C3217 1.245 . S
C3222 C3218 1.477 . S
C3222 H3239 0.932 . S
C3223 U3206 2.882 . S
C3223 C3217 1.428 . S
C3223 O3226 1.301 . S
C3223 O3227 1.282 . S
O3224 U3206 2.441 . S
O3224 C3210 1.249 . S
O3225 U3206 2.420 . S
O3225 C3210 1.202 . S
O3226 U3206 2.455 . S
O3226 C3223 1.301 . S
O3227 U3206 2.449 . S
O3227 C3223 1.282 . S
H3228 C3201 0.931 . S
H3229 C3203 0.929 . S
H3230 C3204 0.930 . S
H3231 C3205 0.931 . S
H3232 C3212 0.932 . S
H3233 C3213 0.930 . S
H3234 C3214 0.929 . S
H3235 C3216 0.930 . S
H3236 C3218 0.932 . S
H3237 C3219 0.929 . S
H3238 C3220 0.928 . S
H3239 C3222 0.932 . S
C3240 C3241 1.264 . S
C3240 C3245 1.479 . S
C3240 C3250 1.465 . S
C3241 C3240 1.264 . S
C3241 C3243 1.339 . S
C3241 H3268 0.931 . S
C3242 C3243 1.395 . S
C3242 C3244 1.320 . S
C3243 C3241 1.339 . S
C3243 C3242 1.395 . S
C3243 H3269 0.929 . S
C3244 C3242 1.320 . S
C3244 C3245 1.405 . S
C3244 H3270 0.930 . S
C3245 C3240 1.479 . S
C3245 C3244 1.405 . S
C3245 H3271 0.931 . S
U3246 O3247 2.454 . S
U3246 O3248 2.458 . S
U3246 C3249 2.984 . S
U3246 C3250 2.847 . S
U3246 C3263 2.882 . S
U3246 O3264 2.441 . S
U3246 O3265 2.420 . S
U3246 O3266 2.455 . S
U3246 O3267 2.449 . S
O3247 U3246 2.454 . S
O3247 C3249 1.353 . S
O3248 U3246 2.458 . S
O3248 C3249 1.286 . S
C3249 U3246 2.984 . S
C3249 O3247 1.353 . S
C3249 O3248 1.286 . S
C3249 C3251 1.363 . S
C3250 C3240 1.465 . S
C3250 U3246 2.847 . S
C3250 O3264 1.249 . S
C3250 O3265 1.202 . S
C3251 C3249 1.363 . S
C3251 C3253 1.408 . S
C3251 C3256 1.342 . S
C3252 C3253 1.310 . S
C3252 C3255 1.461 . S
C3252 H3272 0.932 . S
C3253 C3251 1.408 . S
C3253 C3252 1.310 . S
C3253 H3273 0.930 . S
C3254 C3255 1.474 . S
C3254 C3256 1.285 . S
C3254 H3274 0.929 . S
C3255 C3252 1.461 . S
C3255 C3254 1.474 . S
C3256 C3251 1.342 . S
C3256 C3254 1.285 . S
C3256 H3275 0.930 . S
C3257 C3260 1.424 . S
C3257 C3262 1.245 . S
C3257 C3263 1.428 . S
C3258 C3261 1.260 . S
C3258 C3262 1.477 . S
C3258 H3276 0.932 . S
C3259 C3260 1.384 . S
C3259 C3261 1.479 . S
C3259 H3277 0.929 . S
C3260 C3257 1.424 . S
C3260 C3259 1.384 . S
C3260 H3278 0.928 . S
C3261 C3258 1.260 . S
C3261 C3259 1.479 . S
C3262 C3257 1.245 . S
C3262 C3258 1.477 . S
C3262 H3279 0.932 . S
C3263 U3246 2.882 . S
C3263 C3257 1.428 . S
C3263 O3266 1.301 . S
C3263 O3267 1.282 . S
O3264 U3246 2.441 . S
O3264 C3250 1.249 . S
O3265 U3246 2.420 . S
O3265 C3250 1.202 . S
O3266 U3246 2.455 . S
O3266 C3263 1.301 . S
O3267 U3246 2.449 . S
O3267 C3263 1.282 . S
H3268 C3241 0.931 . S
H3269 C3243 0.929 . S
H3270 C3244 0.930 . S
H3271 C3245 0.931 . S
H3272 C3252 0.932 . S
H3273 C3253 0.930 . S
H3274 C3254 0.929 . S
H3275 C3256 0.930 . S
H3276 C3258 0.932 . S
H3277 C3259 0.929 . S
H3278 C3260 0.928 . S
H3279 C3262 0.932 . S
C3280 C3281 1.264 . S
C3280 C3285 1.479 . S
C3280 C3290 1.465 . S
C3281 C3280 1.264 . S
C3281 C3283 1.339 . S
C3281 H3308 0.931 . S
C3282 C3283 1.395 . S
C3282 C3284 1.320 . S
C3283 C3281 1.339 . S
C3283 C3282 1.395 . S
C3283 H3309 0.929 . S
C3284 C3282 1.320 . S
C3284 C3285 1.405 . S
C3284 H3310 0.930 . S
C3285 C3280 1.479 . S
C3285 C3284 1.405 . S
C3285 H3311 0.931 . S
U3286 O3287 2.454 . S
U3286 O3288 2.458 . S
U3286 C3289 2.984 . S
U3286 C3290 2.847 . S
U3286 C3303 2.882 . S
U3286 O3304 2.441 . S
U3286 O3305 2.420 . S
U3286 O3306 2.455 . S
U3286 O3307 2.449 . S
O3287 U3286 2.454 . S
O3287 C3289 1.353 . S
O3288 U3286 2.458 . S
O3288 C3289 1.286 . S
C3289 U3286 2.984 . S
C3289 O3287 1.353 . S
C3289 O3288 1.286 . S
C3289 C3291 1.363 . S
C3290 C3280 1.465 . S
C3290 U3286 2.847 . S
C3290 O3304 1.249 . S
C3290 O3305 1.202 . S
C3291 C3289 1.363 . S
C3291 C3293 1.408 . S
C3291 C3296 1.342 . S
C3292 C3293 1.310 . S
C3292 C3295 1.461 . S
C3292 H3312 0.932 . S
C3293 C3291 1.408 . S
C3293 C3292 1.310 . S
C3293 H3313 0.930 . S
C3294 C3295 1.474 . S
C3294 C3296 1.285 . S
C3294 H3314 0.929 . S
C3295 C3292 1.461 . S
C3295 C3294 1.474 . S
C3296 C3291 1.342 . S
C3296 C3294 1.285 . S
C3296 H3315 0.930 . S
C3297 C3300 1.424 . S
C3297 C3302 1.245 . S
C3297 C3303 1.428 . S
C3298 C3301 1.260 . S
C3298 C3302 1.477 . S
C3298 H3316 0.932 . S
C3299 C3300 1.384 . S
C3299 C3301 1.479 . S
C3299 H3317 0.929 . S
C3300 C3297 1.424 . S
C3300 C3299 1.384 . S
C3300 H3318 0.928 . S
C3301 C3298 1.260 . S
C3301 C3299 1.479 . S
C3302 C3297 1.245 . S
C3302 C3298 1.477 . S
C3302 H3319 0.932 . S
C3303 U3286 2.882 . S
C3303 C3297 1.428 . S
C3303 O3306 1.301 . S
C3303 O3307 1.282 . S
O3304 U3286 2.441 . S
O3304 C3290 1.249 . S
O3305 U3286 2.420 . S
O3305 C3290 1.202 . S
O3306 U3286 2.455 . S
O3306 C3303 1.301 . S
O3307 U3286 2.449 . S
O3307 C3303 1.282 . S
H3308 C3281 0.931 . S
H3309 C3283 0.929 . S
H3310 C3284 0.930 . S
H3311 C3285 0.931 . S
H3312 C3292 0.932 . S
H3313 C3293 0.930 . S
H3314 C3294 0.929 . S
H3315 C3296 0.930 . S
H3316 C3298 0.932 . S
H3317 C3299 0.929 . S
H3318 C3300 0.928 . S
H3319 C3302 0.932 . S
C3320 C3321 1.264 . S
C3320 C3325 1.479 . S
C3320 C3330 1.465 . S
C3321 C3320 1.264 . S
C3321 C3323 1.339 . S
C3321 H3348 0.931 . S
C3322 C3323 1.395 . S
C3322 C3324 1.320 . S
C3323 C3321 1.339 . S
C3323 C3322 1.395 . S
C3323 H3349 0.929 . S
C3324 C3322 1.320 . S
C3324 C3325 1.405 . S
C3324 H3350 0.930 . S
C3325 C3320 1.479 . S
C3325 C3324 1.405 . S
C3325 H3351 0.931 . S
U3326 O3327 2.454 . S
U3326 O3328 2.458 . S
U3326 C3329 2.984 . S
U3326 C3330 2.847 . S
U3326 C3343 2.882 . S
U3326 O3344 2.441 . S
U3326 O3345 2.420 . S
U3326 O3346 2.455 . S
U3326 O3347 2.449 . S
O3327 U3326 2.454 . S
O3327 C3329 1.353 . S
O3328 U3326 2.458 . S
O3328 C3329 1.286 . S
C3329 U3326 2.984 . S
C3329 O3327 1.353 . S
C3329 O3328 1.286 . S
C3329 C3331 1.363 . S
C3330 C3320 1.465 . S
C3330 U3326 2.847 . S
C3330 O3344 1.249 . S
C3330 O3345 1.202 . S
C3331 C3329 1.363 . S
C3331 C3333 1.408 . S
C3331 C3336 1.342 . S
C3332 C3333 1.310 . S
C3332 C3335 1.461 . S
C3332 H3352 0.932 . S
C3333 C3331 1.408 . S
C3333 C3332 1.310 . S
C3333 H3353 0.930 . S
C3334 C3335 1.474 . S
C3334 C3336 1.285 . S
C3334 H3354 0.929 . S
C3335 C3332 1.461 . S
C3335 C3334 1.474 . S
C3336 C3331 1.342 . S
C3336 C3334 1.285 . S
C3336 H3355 0.930 . S
C3337 C3340 1.424 . S
C3337 C3342 1.245 . S
C3337 C3343 1.428 . S
C3338 C3341 1.260 . S
C3338 C3342 1.477 . S
C3338 H3356 0.932 . S
C3339 C3340 1.384 . S
C3339 C3341 1.479 . S
C3339 H3357 0.929 . S
C3340 C3337 1.424 . S
C3340 C3339 1.384 . S
C3340 H3358 0.928 . S
C3341 C3338 1.260 . S
C3341 C3339 1.479 . S
C3342 C3337 1.245 . S
C3342 C3338 1.477 . S
C3342 H3359 0.932 . S
C3343 U3326 2.882 . S
C3343 C3337 1.428 . S
C3343 O3346 1.301 . S
C3343 O3347 1.282 . S
O3344 U3326 2.441 . S
O3344 C3330 1.249 . S
O3345 U3326 2.420 . S
O3345 C3330 1.202 . S
O3346 U3326 2.455 . S
O3346 C3343 1.301 . S
O3347 U3326 2.449 . S
O3347 C3343 1.282 . S
H3348 C3321 0.931 . S
H3349 C3323 0.929 . S
H3350 C3324 0.930 . S
H3351 C3325 0.931 . S
H3352 C3332 0.932 . S
H3353 C3333 0.930 . S
H3354 C3334 0.929 . S
H3355 C3336 0.930 . S
H3356 C3338 0.932 . S
H3357 C3339 0.929 . S
H3358 C3340 0.928 . S
H3359 C3342 0.932 . S
C3360 C3361 1.264 . S
C3360 C3365 1.479 . S
C3360 C3370 1.465 . S
C3361 C3360 1.264 . S
C3361 C3363 1.339 . S
C3361 H3388 0.931 . S
C3362 C3363 1.395 . S
C3362 C3364 1.320 . S
C3363 C3361 1.339 . S
C3363 C3362 1.395 . S
C3363 H3389 0.929 . S
C3364 C3362 1.320 . S
C3364 C3365 1.405 . S
C3364 H3390 0.930 . S
C3365 C3360 1.479 . S
C3365 C3364 1.405 . S
C3365 H3391 0.931 . S
U3366 O3367 2.454 . S
U3366 O3368 2.458 . S
U3366 C3369 2.984 . S
U3366 C3370 2.847 . S
U3366 C3383 2.882 . S
U3366 O3384 2.441 . S
U3366 O3385 2.420 . S
U3366 O3386 2.455 . S
U3366 O3387 2.449 . S
O3367 U3366 2.454 . S
O3367 C3369 1.353 . S
O3368 U3366 2.458 . S
O3368 C3369 1.286 . S
C3369 U3366 2.984 . S
C3369 O3367 1.353 . S
C3369 O3368 1.286 . S
C3369 C3371 1.363 . S
C3370 C3360 1.465 . S
C3370 U3366 2.847 . S
C3370 O3384 1.249 . S
C3370 O3385 1.202 . S
C3371 C3369 1.363 . S
C3371 C3373 1.408 . S
C3371 C3376 1.342 . S
C3372 C3373 1.310 . S
C3372 C3375 1.461 . S
C3372 H3392 0.932 . S
C3373 C3371 1.408 . S
C3373 C3372 1.310 . S
C3373 H3393 0.930 . S
C3374 C3375 1.474 . S
C3374 C3376 1.285 . S
C3374 H3394 0.929 . S
C3375 C3372 1.461 . S
C3375 C3374 1.474 . S
C3376 C3371 1.342 . S
C3376 C3374 1.285 . S
C3376 H3395 0.930 . S
C3377 C3380 1.424 . S
C3377 C3382 1.245 . S
C3377 C3383 1.428 . S
C3378 C3381 1.260 . S
C3378 C3382 1.477 . S
C3378 H3396 0.932 . S
C3379 C3380 1.384 . S
C3379 C3381 1.479 . S
C3379 H3397 0.929 . S
C3380 C3377 1.424 . S
C3380 C3379 1.384 . S
C3380 H3398 0.928 . S
C3381 C3378 1.260 . S
C3381 C3379 1.479 . S
C3382 C3377 1.245 . S
C3382 C3378 1.477 . S
C3382 H3399 0.932 . S
C3383 U3366 2.882 . S
C3383 C3377 1.428 . S
C3383 O3386 1.301 . S
C3383 O3387 1.282 . S
O3384 U3366 2.441 . S
O3384 C3370 1.249 . S
O3385 U3366 2.420 . S
O3385 C3370 1.202 . S
O3386 U3366 2.455 . S
O3386 C3383 1.301 . S
O3387 U3366 2.449 . S
O3387 C3383 1.282 . S
H3388 C3361 0.931 . S
H3389 C3363 0.929 . S
H3390 C3364 0.930 . S
H3391 C3365 0.931 . S
H3392 C3372 0.932 . S
H3393 C3373 0.930 . S
H3394 C3374 0.929 . S
H3395 C3376 0.930 . S
H3396 C3378 0.932 . S
H3397 C3379 0.929 . S
H3398 C3380 0.928 . S
H3399 C3382 0.932 . S
C3400 C3401 1.264 . S
C3400 C3405 1.479 . S
C3400 C3410 1.465 . S
C3401 C3400 1.264 . S
C3401 C3403 1.339 . S
C3401 H3428 0.931 . S
C3402 C3403 1.395 . S
C3402 C3404 1.320 . S
C3403 C3401 1.339 . S
C3403 C3402 1.395 . S
C3403 H3429 0.929 . S
C3404 C3402 1.320 . S
C3404 C3405 1.405 . S
C3404 H3430 0.930 . S
C3405 C3400 1.479 . S
C3405 C3404 1.405 . S
C3405 H3431 0.931 . S
U3406 O3407 2.454 . S
U3406 O3408 2.458 . S
U3406 C3409 2.984 . S
U3406 C3410 2.847 . S
U3406 C3423 2.882 . S
U3406 O3424 2.441 . S
U3406 O3425 2.420 . S
U3406 O3426 2.455 . S
U3406 O3427 2.449 . S
O3407 U3406 2.454 . S
O3407 C3409 1.353 . S
O3408 U3406 2.458 . S
O3408 C3409 1.286 . S
C3409 U3406 2.984 . S
C3409 O3407 1.353 . S
C3409 O3408 1.286 . S
C3409 C3411 1.363 . S
C3410 C3400 1.465 . S
C3410 U3406 2.847 . S
C3410 O3424 1.249 . S
C3410 O3425 1.202 . S
C3411 C3409 1.363 . S
C3411 C3413 1.408 . S
C3411 C3416 1.342 . S
C3412 C3413 1.310 . S
C3412 C3415 1.461 . S
C3412 H3432 0.932 . S
C3413 C3411 1.408 . S
C3413 C3412 1.310 . S
C3413 H3433 0.930 . S
C3414 C3415 1.474 . S
C3414 C3416 1.285 . S
C3414 H3434 0.929 . S
C3415 C3412 1.461 . S
C3415 C3414 1.474 . S
C3416 C3411 1.342 . S
C3416 C3414 1.285 . S
C3416 H3435 0.930 . S
C3417 C3420 1.424 . S
C3417 C3422 1.245 . S
C3417 C3423 1.428 . S
C3418 C3421 1.260 . S
C3418 C3422 1.477 . S
C3418 H3436 0.932 . S
C3419 C3420 1.384 . S
C3419 C3421 1.479 . S
C3419 H3437 0.929 . S
C3420 C3417 1.424 . S
C3420 C3419 1.384 . S
C3420 H3438 0.928 . S
C3421 C3418 1.260 . S
C3421 C3419 1.479 . S
C3422 C3417 1.245 . S
C3422 C3418 1.477 . S
C3422 H3439 0.932 . S
C3423 U3406 2.882 . S
C3423 C3417 1.428 . S
C3423 O3426 1.301 . S
C3423 O3427 1.282 . S
O3424 U3406 2.441 . S
O3424 C3410 1.249 . S
O3425 U3406 2.420 . S
O3425 C3410 1.202 . S
O3426 U3406 2.455 . S
O3426 C3423 1.301 . S
O3427 U3406 2.449 . S
O3427 C3423 1.282 . S
H3428 C3401 0.931 . S
H3429 C3403 0.929 . S
H3430 C3404 0.930 . S
H3431 C3405 0.931 . S
H3432 C3412 0.932 . S
H3433 C3413 0.930 . S
H3434 C3414 0.929 . S
H3435 C3416 0.930 . S
H3436 C3418 0.932 . S
H3437 C3419 0.929 . S
H3438 C3420 0.928 . S
H3439 C3422 0.932 . S
C3440 C3441 1.264 . S
C3440 C3445 1.479 . S
C3440 C3450 1.465 . S
C3441 C3440 1.264 . S
C3441 C3443 1.339 . S
C3441 H3468 0.931 . S
C3442 C3443 1.395 . S
C3442 C3444 1.320 . S
C3443 C3441 1.339 . S
C3443 C3442 1.395 . S
C3443 H3469 0.929 . S
C3444 C3442 1.320 . S
C3444 C3445 1.405 . S
C3444 H3470 0.930 . S
C3445 C3440 1.479 . S
C3445 C3444 1.405 . S
C3445 H3471 0.931 . S
U3446 O3447 2.454 . S
U3446 O3448 2.458 . S
U3446 C3449 2.984 . S
U3446 C3450 2.847 . S
U3446 C3463 2.882 . S
U3446 O3464 2.441 . S
U3446 O3465 2.420 . S
U3446 O3466 2.455 . S
U3446 O3467 2.449 . S
O3447 U3446 2.454 . S
O3447 C3449 1.353 . S
O3448 U3446 2.458 . S
O3448 C3449 1.286 . S
C3449 U3446 2.984 . S
C3449 O3447 1.353 . S
C3449 O3448 1.286 . S
C3449 C3451 1.363 . S
C3450 C3440 1.465 . S
C3450 U3446 2.847 . S
C3450 O3464 1.249 . S
C3450 O3465 1.202 . S
C3451 C3449 1.363 . S
C3451 C3453 1.408 . S
C3451 C3456 1.342 . S
C3452 C3453 1.310 . S
C3452 C3455 1.461 . S
C3452 H3472 0.932 . S
C3453 C3451 1.408 . S
C3453 C3452 1.310 . S
C3453 H3473 0.930 . S
C3454 C3455 1.474 . S
C3454 C3456 1.285 . S
C3454 H3474 0.929 . S
C3455 C3452 1.461 . S
C3455 C3454 1.474 . S
C3456 C3451 1.342 . S
C3456 C3454 1.285 . S
C3456 H3475 0.930 . S
C3457 C3460 1.424 . S
C3457 C3462 1.245 . S
C3457 C3463 1.428 . S
C3458 C3461 1.260 . S
C3458 C3462 1.477 . S
C3458 H3476 0.932 . S
C3459 C3460 1.384 . S
C3459 C3461 1.479 . S
C3459 H3477 0.929 . S
C3460 C3457 1.424 . S
C3460 C3459 1.384 . S
C3460 H3478 0.928 . S
C3461 C3458 1.260 . S
C3461 C3459 1.479 . S
C3462 C3457 1.245 . S
C3462 C3458 1.477 . S
C3462 H3479 0.932 . S
C3463 U3446 2.882 . S
C3463 C3457 1.428 . S
C3463 O3466 1.301 . S
C3463 O3467 1.282 . S
O3464 U3446 2.441 . S
O3464 C3450 1.249 . S
O3465 U3446 2.420 . S
O3465 C3450 1.202 . S
O3466 U3446 2.455 . S
O3466 C3463 1.301 . S
O3467 U3446 2.449 . S
O3467 C3463 1.282 . S
H3468 C3441 0.931 . S
H3469 C3443 0.929 . S
H3470 C3444 0.930 . S
H3471 C3445 0.931 . S
H3472 C3452 0.932 . S
H3473 C3453 0.930 . S
H3474 C3454 0.929 . S
H3475 C3456 0.930 . S
H3476 C3458 0.932 . S
H3477 C3459 0.929 . S
H3478 C3460 0.928 . S
H3479 C3462 0.932 . S
C3480 C3481 1.264 . S
C3480 C3485 1.479 . S
C3480 C3490 1.465 . S
C3481 C3480 1.264 . S
C3481 C3483 1.339 . S
C3481 H3508 0.931 . S
C3482 C3483 1.395 . S
C3482 C3484 1.320 . S
C3483 C3481 1.339 . S
C3483 C3482 1.395 . S
C3483 H3509 0.929 . S
C3484 C3482 1.320 . S
C3484 C3485 1.405 . S
C3484 H3510 0.930 . S
C3485 C3480 1.479 . S
C3485 C3484 1.405 . S
C3485 H3511 0.931 . S
U3486 O3487 2.454 . S
U3486 O3488 2.458 . S
U3486 C3489 2.984 . S
U3486 C3490 2.847 . S
U3486 C3503 2.882 . S
U3486 O3504 2.441 . S
U3486 O3505 2.420 . S
U3486 O3506 2.455 . S
U3486 O3507 2.449 . S
O3487 U3486 2.454 . S
O3487 C3489 1.353 . S
O3488 U3486 2.458 . S
O3488 C3489 1.286 . S
C3489 U3486 2.984 . S
C3489 O3487 1.353 . S
C3489 O3488 1.286 . S
C3489 C3491 1.363 . S
C3490 C3480 1.465 . S
C3490 U3486 2.847 . S
C3490 O3504 1.249 . S
C3490 O3505 1.202 . S
C3491 C3489 1.363 . S
C3491 C3493 1.408 . S
C3491 C3496 1.342 . S
C3492 C3493 1.310 . S
C3492 C3495 1.461 . S
C3492 H3512 0.932 . S
C3493 C3491 1.408 . S
C3493 C3492 1.310 . S
C3493 H3513 0.930 . S
C3494 C3495 1.474 . S
C3494 C3496 1.285 . S
C3494 H3514 0.929 . S
C3495 C3492 1.461 . S
C3495 C3494 1.474 . S
C3496 C3491 1.342 . S
C3496 C3494 1.285 . S
C3496 H3515 0.930 . S
C3497 C3500 1.424 . S
C3497 C3502 1.245 . S
C3497 C3503 1.428 . S
C3498 C3501 1.260 . S
C3498 C3502 1.477 . S
C3498 H3516 0.932 . S
C3499 C3500 1.384 . S
C3499 C3501 1.479 . S
C3499 H3517 0.929 . S
C3500 C3497 1.424 . S
C3500 C3499 1.384 . S
C3500 H3518 0.928 . S
C3501 C3498 1.260 . S
C3501 C3499 1.479 . S
C3502 C3497 1.245 . S
C3502 C3498 1.477 . S
C3502 H3519 0.932 . S
C3503 U3486 2.882 . S
C3503 C3497 1.428 . S
C3503 O3506 1.301 . S
C3503 O3507 1.282 . S
O3504 U3486 2.441 . S
O3504 C3490 1.249 . S
O3505 U3486 2.420 . S
O3505 C3490 1.202 . S
O3506 U3486 2.455 . S
O3506 C3503 1.301 . S
O3507 U3486 2.449 . S
O3507 C3503 1.282 . S
H3508 C3481 0.931 . S
H3509 C3483 0.929 . S
H3510 C3484 0.930 . S
H3511 C3485 0.931 . S
H3512 C3492 0.932 . S
H3513 C3493 0.930 . S
H3514 C3494 0.929 . S
H3515 C3496 0.930 . S
H3516 C3498 0.932 . S
H3517 C3499 0.929 . S
H3518 C3500 0.928 . S
H3519 C3502 0.932 . S
C3520 C3521 1.264 . S
C3520 C3525 1.479 . S
C3520 C3530 1.465 . S
C3521 C3520 1.264 . S
C3521 C3523 1.339 . S
C3521 H3548 0.931 . S
C3522 C3523 1.395 . S
C3522 C3524 1.320 . S
C3523 C3521 1.339 . S
C3523 C3522 1.395 . S
C3523 H3549 0.929 . S
C3524 C3522 1.320 . S
C3524 C3525 1.405 . S
C3524 H3550 0.930 . S
C3525 C3520 1.479 . S
C3525 C3524 1.405 . S
C3525 H3551 0.931 . S
U3526 O3527 2.454 . S
U3526 O3528 2.458 . S
U3526 C3529 2.984 . S
U3526 C3530 2.847 . S
U3526 C3543 2.882 . S
U3526 O3544 2.441 . S
U3526 O3545 2.420 . S
U3526 O3546 2.455 . S
U3526 O3547 2.449 . S
O3527 U3526 2.454 . S
O3527 C3529 1.353 . S
O3528 U3526 2.458 . S
O3528 C3529 1.286 . S
C3529 U3526 2.984 . S
C3529 O3527 1.353 . S
C3529 O3528 1.286 . S
C3529 C3531 1.363 . S
C3530 C3520 1.465 . S
C3530 U3526 2.847 . S
C3530 O3544 1.249 . S
C3530 O3545 1.202 . S
C3531 C3529 1.363 . S
C3531 C3533 1.408 . S
C3531 C3536 1.342 . S
C3532 C3533 1.310 . S
C3532 C3535 1.461 . S
C3532 H3552 0.932 . S
C3533 C3531 1.408 . S
C3533 C3532 1.310 . S
C3533 H3553 0.930 . S
C3534 C3535 1.474 . S
C3534 C3536 1.285 . S
C3534 H3554 0.929 . S
C3535 C3532 1.461 . S
C3535 C3534 1.474 . S
C3536 C3531 1.342 . S
C3536 C3534 1.285 . S
C3536 H3555 0.930 . S
C3537 C3540 1.424 . S
C3537 C3542 1.245 . S
C3537 C3543 1.428 . S
C3538 C3541 1.260 . S
C3538 C3542 1.477 . S
C3538 H3556 0.932 . S
C3539 C3540 1.384 . S
C3539 C3541 1.479 . S
C3539 H3557 0.929 . S
C3540 C3537 1.424 . S
C3540 C3539 1.384 . S
C3540 H3558 0.928 . S
C3541 C3538 1.260 . S
C3541 C3539 1.479 . S
C3542 C3537 1.245 . S
C3542 C3538 1.477 . S
C3542 H3559 0.932 . S
C3543 U3526 2.882 . S
C3543 C3537 1.428 . S
C3543 O3546 1.301 . S
C3543 O3547 1.282 . S
O3544 U3526 2.441 . S
O3544 C3530 1.249 . S
O3545 U3526 2.420 . S
O3545 C3530 1.202 . S
O3546 U3526 2.455 . S
O3546 C3543 1.301 . S
O3547 U3526 2.449 . S
O3547 C3543 1.282 . S
H3548 C3521 0.931 . S
H3549 C3523 0.929 . S
H3550 C3524 0.930 . S
H3551 C3525 0.931 . S
H3552 C3532 0.932 . S
H3553 C3533 0.930 . S
H3554 C3534 0.929 . S
H3555 C3536 0.930 . S
H3556 C3538 0.932 . S
H3557 C3539 0.929 . S
H3558 C3540 0.928 . S
H3559 C3542 0.932 . S
C3560 C3561 1.264 . S
C3560 C3565 1.479 . S
C3560 C3570 1.465 . S
C3561 C3560 1.264 . S
C3561 C3563 1.339 . S
C3561 H3588 0.931 . S
C3562 C3563 1.395 . S
C3562 C3564 1.320 . S
C3563 C3561 1.339 . S
C3563 C3562 1.395 . S
C3563 H3589 0.929 . S
C3564 C3562 1.320 . S
C3564 C3565 1.405 . S
C3564 H3590 0.930 . S
C3565 C3560 1.479 . S
C3565 C3564 1.405 . S
C3565 H3591 0.931 . S
U3566 O3567 2.454 . S
U3566 O3568 2.458 . S
U3566 C3569 2.984 . S
U3566 C3570 2.847 . S
U3566 C3583 2.882 . S
U3566 O3584 2.441 . S
U3566 O3585 2.420 . S
U3566 O3586 2.455 . S
U3566 O3587 2.449 . S
O3567 U3566 2.454 . S
O3567 C3569 1.353 . S
O3568 U3566 2.458 . S
O3568 C3569 1.286 . S
C3569 U3566 2.984 . S
C3569 O3567 1.353 . S
C3569 O3568 1.286 . S
C3569 C3571 1.363 . S
C3570 C3560 1.465 . S
C3570 U3566 2.847 . S
C3570 O3584 1.249 . S
C3570 O3585 1.202 . S
C3571 C3569 1.363 . S
C3571 C3573 1.408 . S
C3571 C3576 1.342 . S
C3572 C3573 1.310 . S
C3572 C3575 1.461 . S
C3572 H3592 0.932 . S
C3573 C3571 1.408 . S
C3573 C3572 1.310 . S
C3573 H3593 0.930 . S
C3574 C3575 1.474 . S
C3574 C3576 1.285 . S
C3574 H3594 0.929 . S
C3575 C3572 1.461 . S
C3575 C3574 1.474 . S
C3576 C3571 1.342 . S
C3576 C3574 1.285 . S
C3576 H3595 0.930 . S
C3577 C3580 1.424 . S
C3577 C3582 1.245 . S
C3577 C3583 1.428 . S
C3578 C3581 1.260 . S
C3578 C3582 1.477 . S
C3578 H3596 0.932 . S
C3579 C3580 1.384 . S
C3579 C3581 1.479 . S
C3579 H3597 0.929 . S
C3580 C3577 1.424 . S
C3580 C3579 1.384 . S
C3580 H3598 0.928 . S
C3581 C3578 1.260 . S
C3581 C3579 1.479 . S
C3582 C3577 1.245 . S
C3582 C3578 1.477 . S
C3582 H3599 0.932 . S
C3583 U3566 2.882 . S
C3583 C3577 1.428 . S
C3583 O3586 1.301 . S
C3583 O3587 1.282 . S
O3584 U3566 2.441 . S
O3584 C3570 1.249 . S
O3585 U3566 2.420 . S
O3585 C3570 1.202 . S
O3586 U3566 2.455 . S
O3586 C3583 1.301 . S
O3587 U3566 2.449 . S
O3587 C3583 1.282 . S
H3588 C3561 0.931 . S
H3589 C3563 0.929 . S
H3590 C3564 0.930 . S
H3591 C3565 0.931 . S
H3592 C3572 0.932 . S
H3593 C3573 0.930 . S
H3594 C3574 0.929 . S
H3595 C3576 0.930 . S
H3596 C3578 0.932 . S
H3597 C3579 0.929 . S
H3598 C3580 0.928 . S
H3599 C3582 0.932 . S
C3600 C3601 1.264 . S
C3600 C3605 1.479 . S
C3600 C3610 1.465 . S
C3601 C3600 1.264 . S
C3601 C3603 1.339 . S
C3601 H3628 0.931 . S
C3602 C3603 1.395 . S
C3602 C3604 1.320 . S
C3603 C3601 1.339 . S
C3603 C3602 1.395 . S
C3603 H3629 0.929 . S
C3604 C3602 1.320 . S
C3604 C3605 1.405 . S
C3604 H3630 0.930 . S
C3605 C3600 1.479 . S
C3605 C3604 1.405 . S
C3605 H3631 0.931 . S
U3606 O3607 2.454 . S
U3606 O3608 2.458 . S
U3606 C3609 2.984 . S
U3606 C3610 2.847 . S
U3606 C3623 2.882 . S
U3606 O3624 2.441 . S
U3606 O3625 2.420 . S
U3606 O3626 2.455 . S
U3606 O3627 2.449 . S
O3607 U3606 2.454 . S
O3607 C3609 1.353 . S
O3608 U3606 2.458 . S
O3608 C3609 1.286 . S
C3609 U3606 2.984 . S
C3609 O3607 1.353 . S
C3609 O3608 1.286 . S
C3609 C3611 1.363 . S
C3610 C3600 1.465 . S
C3610 U3606 2.847 . S
C3610 O3624 1.249 . S
C3610 O3625 1.202 . S
C3611 C3609 1.363 . S
C3611 C3613 1.408 . S
C3611 C3616 1.342 . S
C3612 C3613 1.310 . S
C3612 C3615 1.461 . S
C3612 H3632 0.932 . S
C3613 C3611 1.408 . S
C3613 C3612 1.310 . S
C3613 H3633 0.930 . S
C3614 C3615 1.474 . S
C3614 C3616 1.285 . S
C3614 H3634 0.929 . S
C3615 C3612 1.461 . S
C3615 C3614 1.474 . S
C3616 C3611 1.342 . S
C3616 C3614 1.285 . S
C3616 H3635 0.930 . S
C3617 C3620 1.424 . S
C3617 C3622 1.245 . S
C3617 C3623 1.428 . S
C3618 C3621 1.260 . S
C3618 C3622 1.477 . S
C3618 H3636 0.932 . S
C3619 C3620 1.384 . S
C3619 C3621 1.479 . S
C3619 H3637 0.929 . S
C3620 C3617 1.424 . S
C3620 C3619 1.384 . S
C3620 H3638 0.928 . S
C3621 C3618 1.260 . S
C3621 C3619 1.479 . S
C3622 C3617 1.245 . S
C3622 C3618 1.477 . S
C3622 H3639 0.932 . S
C3623 U3606 2.882 . S
C3623 C3617 1.428 . S
C3623 O3626 1.301 . S
C3623 O3627 1.282 . S
O3624 U3606 2.441 . S
O3624 C3610 1.249 . S
O3625 U3606 2.420 . S
O3625 C3610 1.202 . S
O3626 U3606 2.455 . S
O3626 C3623 1.301 . S
O3627 U3606 2.449 . S
O3627 C3623 1.282 . S
H3628 C3601 0.931 . S
H3629 C3603 0.929 . S
H3630 C3604 0.930 . S
H3631 C3605 0.931 . S
H3632 C3612 0.932 . S
H3633 C3613 0.930 . S
H3634 C3614 0.929 . S
H3635 C3616 0.930 . S
H3636 C3618 0.932 . S
H3637 C3619 0.929 . S
H3638 C3620 0.928 . S
H3639 C3622 0.932 . S
C3640 C3641 1.264 . S
C3640 C3645 1.479 . S
C3640 C3650 1.465 . S
C3641 C3640 1.264 . S
C3641 C3643 1.339 . S
C3641 H3668 0.931 . S
C3642 C3643 1.395 . S
C3642 C3644 1.320 . S
C3643 C3641 1.339 . S
C3643 C3642 1.395 . S
C3643 H3669 0.929 . S
C3644 C3642 1.320 . S
C3644 C3645 1.405 . S
C3644 H3670 0.930 . S
C3645 C3640 1.479 . S
C3645 C3644 1.405 . S
C3645 H3671 0.931 . S
U3646 O3647 2.454 . S
U3646 O3648 2.458 . S
U3646 C3649 2.984 . S
U3646 C3650 2.847 . S
U3646 C3663 2.882 . S
U3646 O3664 2.441 . S
U3646 O3665 2.420 . S
U3646 O3666 2.455 . S
U3646 O3667 2.449 . S
O3647 U3646 2.454 . S
O3647 C3649 1.353 . S
O3648 U3646 2.458 . S
O3648 C3649 1.286 . S
C3649 U3646 2.984 . S
C3649 O3647 1.353 . S
C3649 O3648 1.286 . S
C3649 C3651 1.363 . S
C3650 C3640 1.465 . S
C3650 U3646 2.847 . S
C3650 O3664 1.249 . S
C3650 O3665 1.202 . S
C3651 C3649 1.363 . S
C3651 C3653 1.408 . S
C3651 C3656 1.342 . S
C3652 C3653 1.310 . S
C3652 C3655 1.461 . S
C3652 H3672 0.932 . S
C3653 C3651 1.408 . S
C3653 C3652 1.310 . S
C3653 H3673 0.930 . S
C3654 C3655 1.474 . S
C3654 C3656 1.285 . S
C3654 H3674 0.929 . S
C3655 C3652 1.461 . S
C3655 C3654 1.474 . S
C3656 C3651 1.342 . S
C3656 C3654 1.285 . S
C3656 H3675 0.930 . S
C3657 C3660 1.424 . S
C3657 C3662 1.245 . S
C3657 C3663 1.428 . S
C3658 C3661 1.260 . S
C3658 C3662 1.477 . S
C3658 H3676 0.932 . S
C3659 C3660 1.384 . S
C3659 C3661 1.479 . S
C3659 H3677 0.929 . S
C3660 C3657 1.424 . S
C3660 C3659 1.384 . S
C3660 H3678 0.928 . S
C3661 C3658 1.260 . S
C3661 C3659 1.479 . S
C3662 C3657 1.245 . S
C3662 C3658 1.477 . S
C3662 H3679 0.932 . S
C3663 U3646 2.882 . S
C3663 C3657 1.428 . S
C3663 O3666 1.301 . S
C3663 O3667 1.282 . S
O3664 U3646 2.441 . S
O3664 C3650 1.249 . S
O3665 U3646 2.420 . S
O3665 C3650 1.202 . S
O3666 U3646 2.455 . S
O3666 C3663 1.301 . S
O3667 U3646 2.449 . S
O3667 C3663 1.282 . S
H3668 C3641 0.931 . S
H3669 C3643 0.929 . S
H3670 C3644 0.930 . S
H3671 C3645 0.931 . S
H3672 C3652 0.932 . S
H3673 C3653 0.930 . S
H3674 C3654 0.929 . S
H3675 C3656 0.930 . S
H3676 C3658 0.932 . S
H3677 C3659 0.929 . S
H3678 C3660 0.928 . S
H3679 C3662 0.932 . S
C3680 C3681 1.264 . S
C3680 C3685 1.479 . S
C3680 C3690 1.465 . S
C3681 C3680 1.264 . S
C3681 C3683 1.339 . S
C3681 H3708 0.931 . S
C3682 C3683 1.395 . S
C3682 C3684 1.320 . S
C3683 C3681 1.339 . S
C3683 C3682 1.395 . S
C3683 H3709 0.929 . S
C3684 C3682 1.320 . S
C3684 C3685 1.405 . S
C3684 H3710 0.930 . S
C3685 C3680 1.479 . S
C3685 C3684 1.405 . S
C3685 H3711 0.931 . S
U3686 O3687 2.454 . S
U3686 O3688 2.458 . S
U3686 C3689 2.984 . S
U3686 C3690 2.847 . S
U3686 C3703 2.882 . S
U3686 O3704 2.441 . S
U3686 O3705 2.420 . S
U3686 O3706 2.455 . S
U3686 O3707 2.449 . S
O3687 U3686 2.454 . S
O3687 C3689 1.353 . S
O3688 U3686 2.458 . S
O3688 C3689 1.286 . S
C3689 U3686 2.984 . S
C3689 O3687 1.353 . S
C3689 O3688 1.286 . S
C3689 C3691 1.363 . S
C3690 C3680 1.465 . S
C3690 U3686 2.847 . S
C3690 O3704 1.249 . S
C3690 O3705 1.202 . S
C3691 C3689 1.363 . S
C3691 C3693 1.408 . S
C3691 C3696 1.342 . S
C3692 C3693 1.310 . S
C3692 C3695 1.461 . S
C3692 H3712 0.932 . S
C3693 C3691 1.408 . S
C3693 C3692 1.310 . S
C3693 H3713 0.930 . S
C3694 C3695 1.474 . S
C3694 C3696 1.285 . S
C3694 H3714 0.929 . S
C3695 C3692 1.461 . S
C3695 C3694 1.474 . S
C3696 C3691 1.342 . S
C3696 C3694 1.285 . S
C3696 H3715 0.930 . S
C3697 C3700 1.424 . S
C3697 C3702 1.245 . S
C3697 C3703 1.428 . S
C3698 C3701 1.260 . S
C3698 C3702 1.477 . S
C3698 H3716 0.932 . S
C3699 C3700 1.384 . S
C3699 C3701 1.479 . S
C3699 H3717 0.929 . S
C3700 C3697 1.424 . S
C3700 C3699 1.384 . S
C3700 H3718 0.928 . S
C3701 C3698 1.260 . S
C3701 C3699 1.479 . S
C3702 C3697 1.245 . S
C3702 C3698 1.477 . S
C3702 H3719 0.932 . S
C3703 U3686 2.882 . S
C3703 C3697 1.428 . S
C3703 O3706 1.301 . S
C3703 O3707 1.282 . S
O3704 U3686 2.441 . S
O3704 C3690 1.249 . S
O3705 U3686 2.420 . S
O3705 C3690 1.202 . S
O3706 U3686 2.455 . S
O3706 C3703 1.301 . S
O3707 U3686 2.449 . S
O3707 C3703 1.282 . S
H3708 C3681 0.931 . S
H3709 C3683 0.929 . S
H3710 C3684 0.930 . S
H3711 C3685 0.931 . S
H3712 C3692 0.932 . S
H3713 C3693 0.930 . S
H3714 C3694 0.929 . S
H3715 C3696 0.930 . S
H3716 C3698 0.932 . S
H3717 C3699 0.929 . S
H3718 C3700 0.928 . S
H3719 C3702 0.932 . S
C3720 C3721 1.264 . S
C3720 C3725 1.479 . S
C3720 C3730 1.465 . S
C3721 C3720 1.264 . S
C3721 C3723 1.339 . S
C3721 H3748 0.931 . S
C3722 C3723 1.395 . S
C3722 C3724 1.320 . S
C3723 C3721 1.339 . S
C3723 C3722 1.395 . S
C3723 H3749 0.929 . S
C3724 C3722 1.320 . S
C3724 C3725 1.405 . S
C3724 H3750 0.930 . S
C3725 C3720 1.479 . S
C3725 C3724 1.405 . S
C3725 H3751 0.931 . S
U3726 O3727 2.454 . S
U3726 O3728 2.458 . S
U3726 C3729 2.984 . S
U3726 C3730 2.847 . S
U3726 C3743 2.882 . S
U3726 O3744 2.441 . S
U3726 O3745 2.420 . S
U3726 O3746 2.455 . S
U3726 O3747 2.449 . S
O3727 U3726 2.454 . S
O3727 C3729 1.353 . S
O3728 U3726 2.458 . S
O3728 C3729 1.286 . S
C3729 U3726 2.984 . S
C3729 O3727 1.353 . S
C3729 O3728 1.286 . S
C3729 C3731 1.363 . S
C3730 C3720 1.465 . S
C3730 U3726 2.847 . S
C3730 O3744 1.249 . S
C3730 O3745 1.202 . S
C3731 C3729 1.363 . S
C3731 C3733 1.408 . S
C3731 C3736 1.342 . S
C3732 C3733 1.310 . S
C3732 C3735 1.461 . S
C3732 H3752 0.932 . S
C3733 C3731 1.408 . S
C3733 C3732 1.310 . S
C3733 H3753 0.930 . S
C3734 C3735 1.474 . S
C3734 C3736 1.285 . S
C3734 H3754 0.929 . S
C3735 C3732 1.461 . S
C3735 C3734 1.474 . S
C3736 C3731 1.342 . S
C3736 C3734 1.285 . S
C3736 H3755 0.930 . S
C3737 C3740 1.424 . S
C3737 C3742 1.245 . S
C3737 C3743 1.428 . S
C3738 C3741 1.260 . S
C3738 C3742 1.477 . S
C3738 H3756 0.932 . S
C3739 C3740 1.384 . S
C3739 C3741 1.479 . S
C3739 H3757 0.929 . S
C3740 C3737 1.424 . S
C3740 C3739 1.384 . S
C3740 H3758 0.928 . S
C3741 C3738 1.260 . S
C3741 C3739 1.479 . S
C3742 C3737 1.245 . S
C3742 C3738 1.477 . S
C3742 H3759 0.932 . S
C3743 U3726 2.882 . S
C3743 C3737 1.428 . S
C3743 O3746 1.301 . S
C3743 O3747 1.282 . S
O3744 U3726 2.441 . S
O3744 C3730 1.249 . S
O3745 U3726 2.420 . S
O3745 C3730 1.202 . S
O3746 U3726 2.455 . S
O3746 C3743 1.301 . S
O3747 U3726 2.449 . S
O3747 C3743 1.282 . S
H3748 C3721 0.931 . S
H3749 C3723 0.929 . S
H3750 C3724 0.930 . S
H3751 C3725 0.931 . S
H3752 C3732 0.932 . S
H3753 C3733 0.930 . S
H3754 C3734 0.929 . S
H3755 C3736 0.930 . S
H3756 C3738 0.932 . S
H3757 C3739 0.929 . S
H3758 C3740 0.928 . S
H3759 C3742 0.932 . S
C3760 C3761 1.264 . S
C3760 C3765 1.479 . S
C3760 C3770 1.465 . S
C3761 C3760 1.264 . S
C3761 C3763 1.339 . S
C3761 H3788 0.931 . S
C3762 C3763 1.395 . S
C3762 C3764 1.320 . S
C3763 C3761 1.339 . S
C3763 C3762 1.395 . S
C3763 H3789 0.929 . S
C3764 C3762 1.320 . S
C3764 C3765 1.405 . S
C3764 H3790 0.930 . S
C3765 C3760 1.479 . S
C3765 C3764 1.405 . S
C3765 H3791 0.931 . S
U3766 O3767 2.454 . S
U3766 O3768 2.458 . S
U3766 C3769 2.984 . S
U3766 C3770 2.847 . S
U3766 C3783 2.882 . S
U3766 O3784 2.441 . S
U3766 O3785 2.420 . S
U3766 O3786 2.455 . S
U3766 O3787 2.449 . S
O3767 U3766 2.454 . S
O3767 C3769 1.353 . S
O3768 U3766 2.458 . S
O3768 C3769 1.286 . S
C3769 U3766 2.984 . S
C3769 O3767 1.353 . S
C3769 O3768 1.286 . S
C3769 C3771 1.363 . S
C3770 C3760 1.465 . S
C3770 U3766 2.847 . S
C3770 O3784 1.249 . S
C3770 O3785 1.202 . S
C3771 C3769 1.363 . S
C3771 C3773 1.408 . S
C3771 C3776 1.342 . S
C3772 C3773 1.310 . S
C3772 C3775 1.461 . S
C3772 H3792 0.932 . S
C3773 C3771 1.408 . S
C3773 C3772 1.310 . S
C3773 H3793 0.930 . S
C3774 C3775 1.474 . S
C3774 C3776 1.285 . S
C3774 H3794 0.929 . S
C3775 C3772 1.461 . S
C3775 C3774 1.474 . S
C3776 C3771 1.342 . S
C3776 C3774 1.285 . S
C3776 H3795 0.930 . S
C3777 C3780 1.424 . S
C3777 C3782 1.245 . S
C3777 C3783 1.428 . S
C3778 C3781 1.260 . S
C3778 C3782 1.477 . S
C3778 H3796 0.932 . S
C3779 C3780 1.384 . S
C3779 C3781 1.479 . S
C3779 H3797 0.929 . S
C3780 C3777 1.424 . S
C3780 C3779 1.384 . S
C3780 H3798 0.928 . S
C3781 C3778 1.260 . S
C3781 C3779 1.479 . S
C3782 C3777 1.245 . S
C3782 C3778 1.477 . S
C3782 H3799 0.932 . S
C3783 U3766 2.882 . S
C3783 C3777 1.428 . S
C3783 O3786 1.301 . S
C3783 O3787 1.282 . S
O3784 U3766 2.441 . S
O3784 C3770 1.249 . S
O3785 U3766 2.420 . S
O3785 C3770 1.202 . S
O3786 U3766 2.455 . S
O3786 C3783 1.301 . S
O3787 U3766 2.449 . S
O3787 C3783 1.282 . S
H3788 C3761 0.931 . S
H3789 C3763 0.929 . S
H3790 C3764 0.930 . S
H3791 C3765 0.931 . S
H3792 C3772 0.932 . S
H3793 C3773 0.930 . S
H3794 C3774 0.929 . S
H3795 C3776 0.930 . S
H3796 C3778 0.932 . S
H3797 C3779 0.929 . S
H3798 C3780 0.928 . S
H3799 C3782 0.932 . S
C3800 C3801 1.264 . S
C3800 C3805 1.479 . S
C3800 C3810 1.465 . S
C3801 C3800 1.264 . S
C3801 C3803 1.339 . S
C3801 H3828 0.931 . S
C3802 C3803 1.395 . S
C3802 C3804 1.320 . S
C3803 C3801 1.339 . S
C3803 C3802 1.395 . S
C3803 H3829 0.929 . S
C3804 C3802 1.320 . S
C3804 C3805 1.405 . S
C3804 H3830 0.930 . S
C3805 C3800 1.479 . S
C3805 C3804 1.405 . S
C3805 H3831 0.931 . S
U3806 O3807 2.454 . S
U3806 O3808 2.458 . S
U3806 C3809 2.984 . S
U3806 C3810 2.847 . S
U3806 C3823 2.882 . S
U3806 O3824 2.441 . S
U3806 O3825 2.420 . S
U3806 O3826 2.455 . S
U3806 O3827 2.449 . S
O3807 U3806 2.454 . S
O3807 C3809 1.353 . S
O3808 U3806 2.458 . S
O3808 C3809 1.286 . S
C3809 U3806 2.984 . S
C3809 O3807 1.353 . S
C3809 O3808 1.286 . S
C3809 C3811 1.363 . S
C3810 C3800 1.465 . S
C3810 U3806 2.847 . S
C3810 O3824 1.249 . S
C3810 O3825 1.202 . S
C3811 C3809 1.363 . S
C3811 C3813 1.408 . S
C3811 C3816 1.342 . S
C3812 C3813 1.310 . S
C3812 C3815 1.461 . S
C3812 H3832 0.932 . S
C3813 C3811 1.408 . S
C3813 C3812 1.310 . S
C3813 H3833 0.930 . S
C3814 C3815 1.474 . S
C3814 C3816 1.285 . S
C3814 H3834 0.929 . S
C3815 C3812 1.461 . S
C3815 C3814 1.474 . S
C3816 C3811 1.342 . S
C3816 C3814 1.285 . S
C3816 H3835 0.930 . S
C3817 C3820 1.424 . S
C3817 C3822 1.245 . S
C3817 C3823 1.428 . S
C3818 C3821 1.260 . S
C3818 C3822 1.477 . S
C3818 H3836 0.932 . S
C3819 C3820 1.384 . S
C3819 C3821 1.479 . S
C3819 H3837 0.929 . S
C3820 C3817 1.424 . S
C3820 C3819 1.384 . S
C3820 H3838 0.928 . S
C3821 C3818 1.260 . S
C3821 C3819 1.479 . S
C3822 C3817 1.245 . S
C3822 C3818 1.477 . S
C3822 H3839 0.932 . S
C3823 U3806 2.882 . S
C3823 C3817 1.428 . S
C3823 O3826 1.301 . S
C3823 O3827 1.282 . S
O3824 U3806 2.441 . S
O3824 C3810 1.249 . S
O3825 U3806 2.420 . S
O3825 C3810 1.202 . S
O3826 U3806 2.455 . S
O3826 C3823 1.301 . S
O3827 U3806 2.449 . S
O3827 C3823 1.282 . S
H3828 C3801 0.931 . S
H3829 C3803 0.929 . S
H3830 C3804 0.930 . S
H3831 C3805 0.931 . S
H3832 C3812 0.932 . S
H3833 C3813 0.930 . S
H3834 C3814 0.929 . S
H3835 C3816 0.930 . S
H3836 C3818 0.932 . S
H3837 C3819 0.929 . S
H3838 C3820 0.928 . S
H3839 C3822 0.932 . S
H3840 C3841 0.949 . S
C3841 H3840 0.949 . S
C3841 C3842 1.395 . S
C3841 C3843 1.391 . S
C3842 C3841 1.395 . S
C3842 C3845 1.390 . S
C3843 C3841 1.391 . S
C3843 C3847 1.387 . S
C3843 C3848 1.491 . S
H3844 C3845 0.950 . S
C3845 C3842 1.390 . S
C3845 H3844 0.950 . S
C3845 C3846 1.378 . S
C3846 C3845 1.378 . S
C3846 C3847 1.409 . S
C3847 C3843 1.387 . S
C3847 C3846 1.409 . S
C3847 H3849 0.951 . S
C3848 C3843 1.491 . S
C3848 C3850 1.382 . S
C3848 C3852 1.404 . S
H3849 C3847 0.951 . S
C3850 C3848 1.382 . S
C3850 C3851 1.390 . S
C3850 H3855 0.949 . S
C3851 C3850 1.390 . S
C3851 C3856 1.399 . S
C3852 C3848 1.404 . S
C3852 H3853 0.950 . S
C3852 C3854 1.375 . S
H3853 C3852 0.950 . S
C3854 C3852 1.375 . S
C3854 C3856 1.382 . S
C3854 H3858 0.950 . S
H3855 C3850 0.949 . S
C3856 C3851 1.399 . S
C3856 C3854 1.382 . S
C3856 H3857 0.952 . S
H3857 C3856 0.952 . S
H3858 C3854 0.950 . S
H3859 C3860 0.949 . S
C3860 H3859 0.949 . S
C3860 C3861 1.395 . S
C3860 C3862 1.391 . S
C3861 C3860 1.395 . S
C3861 C3864 1.390 . S
C3862 C3860 1.391 . S
C3862 C3866 1.387 . S
C3862 C3867 1.491 . S
H3863 C3864 0.950 . S
C3864 C3861 1.390 . S
C3864 H3863 0.950 . S
C3864 C3865 1.378 . S
C3865 C3864 1.378 . S
C3865 C3866 1.409 . S
C3866 C3862 1.387 . S
C3866 C3865 1.409 . S
C3866 H3868 0.951 . S
C3867 C3862 1.491 . S
C3867 C3869 1.382 . S
C3867 C3871 1.404 . S
H3868 C3866 0.951 . S
C3869 C3867 1.382 . S
C3869 C3870 1.390 . S
C3869 H3874 0.949 . S
C3870 C3869 1.390 . S
C3870 C3875 1.399 . S
C3871 C3867 1.404 . S
C3871 H3872 0.950 . S
C3871 C3873 1.375 . S
H3872 C3871 0.950 . S
C3873 C3871 1.375 . S
C3873 C3875 1.382 . S
C3873 H3877 0.950 . S
H3874 C3869 0.949 . S
C3875 C3870 1.399 . S
C3875 C3873 1.382 . S
C3875 H3876 0.952 . S
H3876 C3875 0.952 . S
H3877 C3873 0.950 . S
H3878 C3879 0.949 . S
C3879 H3878 0.949 . S
C3879 C3880 1.395 . S
C3879 C3881 1.391 . S
C3880 C3879 1.395 . S
C3880 C3883 1.390 . S
C3881 C3879 1.391 . S
C3881 C3885 1.387 . S
C3881 C3886 1.491 . S
H3882 C3883 0.950 . S
C3883 C3880 1.390 . S
C3883 H3882 0.950 . S
C3883 C3884 1.378 . S
C3884 C3883 1.378 . S
C3884 C3885 1.409 . S
C3885 C3881 1.387 . S
C3885 C3884 1.409 . S
C3885 H3887 0.951 . S
C3886 C3881 1.491 . S
C3886 C3888 1.382 . S
C3886 C3890 1.404 . S
H3887 C3885 0.951 . S
C3888 C3886 1.382 . S
C3888 C3889 1.390 . S
C3888 H3893 0.949 . S
C3889 C3888 1.390 . S
C3889 C3894 1.399 . S
C3890 C3886 1.404 . S
C3890 H3891 0.950 . S
C3890 C3892 1.375 . S
H3891 C3890 0.950 . S
C3892 C3890 1.375 . S
C3892 C3894 1.382 . S
C3892 H3896 0.950 . S
H3893 C3888 0.949 . S
C3894 C3889 1.399 . S
C3894 C3892 1.382 . S
C3894 H3895 0.952 . S
H3895 C3894 0.952 . S
H3896 C3892 0.950 . S
H3897 C3898 0.949 . S
C3898 H3897 0.949 . S
C3898 C3899 1.395 . S
C3898 C3900 1.391 . S
C3899 C3898 1.395 . S
C3899 C3902 1.390 . S
C3900 C3898 1.391 . S
C3900 C3904 1.387 . S
C3900 C3905 1.491 . S
H3901 C3902 0.950 . S
C3902 C3899 1.390 . S
C3902 H3901 0.950 . S
C3902 C3903 1.378 . S
C3903 C3902 1.378 . S
C3903 C3904 1.409 . S
C3904 C3900 1.387 . S
C3904 C3903 1.409 . S
C3904 H3906 0.951 . S
C3905 C3900 1.491 . S
C3905 C3907 1.382 . S
C3905 C3909 1.404 . S
H3906 C3904 0.951 . S
C3907 C3905 1.382 . S
C3907 C3908 1.390 . S
C3907 H3912 0.949 . S
C3908 C3907 1.390 . S
C3908 C3913 1.399 . S
C3909 C3905 1.404 . S
C3909 H3910 0.950 . S
C3909 C3911 1.375 . S
H3910 C3909 0.950 . S
C3911 C3909 1.375 . S
C3911 C3913 1.382 . S
C3911 H3915 0.950 . S
H3912 C3907 0.949 . S
C3913 C3908 1.399 . S
C3913 C3911 1.382 . S
C3913 H3914 0.952 . S
H3914 C3913 0.952 . S
H3915 C3911 0.950 . S
H3916 C3917 0.949 . S
C3917 H3916 0.949 . S
C3917 C3918 1.395 . S
C3917 C3919 1.391 . S
C3918 C3917 1.395 . S
C3918 C3921 1.390 . S
C3919 C3917 1.391 . S
C3919 C3923 1.387 . S
C3919 C3924 1.491 . S
H3920 C3921 0.950 . S
C3921 C3918 1.390 . S
C3921 H3920 0.950 . S
C3921 C3922 1.378 . S
C3922 C3921 1.378 . S
C3922 C3923 1.409 . S
C3923 C3919 1.387 . S
C3923 C3922 1.409 . S
C3923 H3925 0.951 . S
C3924 C3919 1.491 . S
C3924 C3926 1.382 . S
C3924 C3928 1.404 . S
H3925 C3923 0.951 . S
C3926 C3924 1.382 . S
C3926 C3927 1.390 . S
C3926 H3931 0.949 . S
C3927 C3926 1.390 . S
C3927 C3932 1.399 . S
C3928 C3924 1.404 . S
C3928 H3929 0.950 . S
C3928 C3930 1.375 . S
H3929 C3928 0.950 . S
C3930 C3928 1.375 . S
C3930 C3932 1.382 . S
C3930 H3934 0.950 . S
H3931 C3926 0.949 . S
C3932 C3927 1.399 . S
C3932 C3930 1.382 . S
C3932 H3933 0.952 . S
H3933 C3932 0.952 . S
H3934 C3930 0.950 . S
H3935 C3936 0.949 . S
C3936 H3935 0.949 . S
C3936 C3937 1.395 . S
C3936 C3938 1.391 . S
C3937 C3936 1.395 . S
C3937 C3940 1.390 . S
C3938 C3936 1.391 . S
C3938 C3942 1.387 . S
C3938 C3943 1.491 . S
H3939 C3940 0.950 . S
C3940 C3937 1.390 . S
C3940 H3939 0.950 . S
C3940 C3941 1.378 . S
C3941 C3940 1.378 . S
C3941 C3942 1.409 . S
C3942 C3938 1.387 . S
C3942 C3941 1.409 . S
C3942 H3944 0.951 . S
C3943 C3938 1.491 . S
C3943 C3945 1.382 . S
C3943 C3947 1.404 . S
H3944 C3942 0.951 . S
C3945 C3943 1.382 . S
C3945 C3946 1.390 . S
C3945 H3950 0.949 . S
C3946 C3945 1.390 . S
C3946 C3951 1.399 . S
C3947 C3943 1.404 . S
C3947 H3948 0.950 . S
C3947 C3949 1.375 . S
H3948 C3947 0.950 . S
C3949 C3947 1.375 . S
C3949 C3951 1.382 . S
C3949 H3953 0.950 . S
H3950 C3945 0.949 . S
C3951 C3946 1.399 . S
C3951 C3949 1.382 . S
C3951 H3952 0.952 . S
H3952 C3951 0.952 . S
H3953 C3949 0.950 . S
H3954 C3955 0.949 . S
C3955 H3954 0.949 . S
C3955 C3956 1.395 . S
C3955 C3957 1.391 . S
C3956 C3955 1.395 . S
C3956 C3959 1.390 . S
C3957 C3955 1.391 . S
C3957 C3961 1.387 . S
C3957 C3962 1.491 . S
H3958 C3959 0.950 . S
C3959 C3956 1.390 . S
C3959 H3958 0.950 . S
C3959 C3960 1.378 . S
C3960 C3959 1.378 . S
C3960 C3961 1.409 . S
C3961 C3957 1.387 . S
C3961 C3960 1.409 . S
C3961 H3963 0.951 . S
C3962 C3957 1.491 . S
C3962 C3964 1.382 . S
C3962 C3966 1.404 . S
H3963 C3961 0.951 . S
C3964 C3962 1.382 . S
C3964 C3965 1.390 . S
C3964 H3969 0.949 . S
C3965 C3964 1.390 . S
C3965 C3970 1.399 . S
C3966 C3962 1.404 . S
C3966 H3967 0.950 . S
C3966 C3968 1.375 . S
H3967 C3966 0.950 . S
C3968 C3966 1.375 . S
C3968 C3970 1.382 . S
C3968 H3972 0.950 . S
H3969 C3964 0.949 . S
C3970 C3965 1.399 . S
C3970 C3968 1.382 . S
C3970 H3971 0.952 . S
H3971 C3970 0.952 . S
H3972 C3968 0.950 . S
H3973 C3974 0.949 . S
C3974 H3973 0.949 . S
C3974 C3975 1.395 . S
C3974 C3976 1.391 . S
C3975 C3974 1.395 . S
C3975 C3978 1.390 . S
C3976 C3974 1.391 . S
C3976 C3980 1.387 . S
C3976 C3981 1.491 . S
H3977 C3978 0.950 . S
C3978 C3975 1.390 . S
C3978 H3977 0.950 . S
C3978 C3979 1.378 . S
C3979 C3978 1.378 . S
C3979 C3980 1.409 . S
C3980 C3976 1.387 . S
C3980 C3979 1.409 . S
C3980 H3982 0.951 . S
C3981 C3976 1.491 . S
C3981 C3983 1.382 . S
C3981 C3985 1.404 . S
H3982 C3980 0.951 . S
C3983 C3981 1.382 . S
C3983 C3984 1.390 . S
C3983 H3988 0.949 . S
C3984 C3983 1.390 . S
C3984 C3989 1.399 . S
C3985 C3981 1.404 . S
C3985 H3986 0.950 . S
C3985 C3987 1.375 . S
H3986 C3985 0.950 . S
C3987 C3985 1.375 . S
C3987 C3989 1.382 . S
C3987 H3991 0.950 . S
H3988 C3983 0.949 . S
C3989 C3984 1.399 . S
C3989 C3987 1.382 . S
C3989 H3990 0.952 . S
H3990 C3989 0.952 . S
H3991 C3987 0.950 . S
H3992 C3993 0.949 . S
C3993 H3992 0.949 . S
C3993 C3994 1.395 . S
C3993 C3995 1.391 . S
C3994 C3993 1.395 . S
C3994 C3997 1.390 . S
C3995 C3993 1.391 . S
C3995 C3999 1.387 . S
C3995 C4000 1.491 . S
H3996 C3997 0.950 . S
C3997 C3994 1.390 . S
C3997 H3996 0.950 . S
C3997 C3998 1.378 . S
C3998 C3997 1.378 . S
C3998 C3999 1.409 . S
C3999 C3995 1.387 . S
C3999 C3998 1.409 . S
C3999 H4001 0.951 . S
C4000 C3995 1.491 . S
C4000 C4002 1.382 . S
C4000 C4004 1.404 . S
H4001 C3999 0.951 . S
C4002 C4000 1.382 . S
C4002 C4003 1.390 . S
C4002 H4007 0.949 . S
C4003 C4002 1.390 . S
C4003 C4008 1.399 . S
C4004 C4000 1.404 . S
C4004 H4005 0.950 . S
C4004 C4006 1.375 . S
H4005 C4004 0.950 . S
C4006 C4004 1.375 . S
C4006 C4008 1.382 . S
C4006 H4010 0.950 . S
H4007 C4002 0.949 . S
C4008 C4003 1.399 . S
C4008 C4006 1.382 . S
C4008 H4009 0.952 . S
H4009 C4008 0.952 . S
H4010 C4006 0.950 . S
H4011 C4012 0.949 . S
C4012 H4011 0.949 . S
C4012 C4013 1.395 . S
C4012 C4014 1.391 . S
C4013 C4012 1.395 . S
C4013 C4016 1.390 . S
C4014 C4012 1.391 . S
C4014 C4018 1.387 . S
C4014 C4019 1.491 . S
H4015 C4016 0.950 . S
C4016 C4013 1.390 . S
C4016 H4015 0.950 . S
C4016 C4017 1.378 . S
C4017 C4016 1.378 . S
C4017 C4018 1.409 . S
C4018 C4014 1.387 . S
C4018 C4017 1.409 . S
C4018 H4020 0.951 . S
C4019 C4014 1.491 . S
C4019 C4021 1.382 . S
C4019 C4023 1.404 . S
H4020 C4018 0.951 . S
C4021 C4019 1.382 . S
C4021 C4022 1.390 . S
C4021 H4026 0.949 . S
C4022 C4021 1.390 . S
C4022 C4027 1.399 . S
C4023 C4019 1.404 . S
C4023 H4024 0.950 . S
C4023 C4025 1.375 . S
H4024 C4023 0.950 . S
C4025 C4023 1.375 . S
C4025 C4027 1.382 . S
C4025 H4029 0.950 . S
H4026 C4021 0.949 . S
C4027 C4022 1.399 . S
C4027 C4025 1.382 . S
C4027 H4028 0.952 . S
H4028 C4027 0.952 . S
H4029 C4025 0.950 . S
H4030 C4031 0.949 . S
C4031 H4030 0.949 . S
C4031 C4032 1.395 . S
C4031 C4033 1.391 . S
C4032 C4031 1.395 . S
C4032 C4035 1.390 . S
C4033 C4031 1.391 . S
C4033 C4037 1.387 . S
C4033 C4038 1.491 . S
H4034 C4035 0.950 . S
C4035 C4032 1.390 . S
C4035 H4034 0.950 . S
C4035 C4036 1.378 . S
C4036 C4035 1.378 . S
C4036 C4037 1.409 . S
C4037 C4033 1.387 . S
C4037 C4036 1.409 . S
C4037 H4039 0.951 . S
C4038 C4033 1.491 . S
C4038 C4040 1.382 . S
C4038 C4042 1.404 . S
H4039 C4037 0.951 . S
C4040 C4038 1.382 . S
C4040 C4041 1.390 . S
C4040 H4045 0.949 . S
C4041 C4040 1.390 . S
C4041 C4046 1.399 . S
C4042 C4038 1.404 . S
C4042 H4043 0.950 . S
C4042 C4044 1.375 . S
H4043 C4042 0.950 . S
C4044 C4042 1.375 . S
C4044 C4046 1.382 . S
C4044 H4048 0.950 . S
H4045 C4040 0.949 . S
C4046 C4041 1.399 . S
C4046 C4044 1.382 . S
C4046 H4047 0.952 . S
H4047 C4046 0.952 . S
H4048 C4044 0.950 . S
H4049 C4050 0.949 . S
C4050 H4049 0.949 . S
C4050 C4051 1.395 . S
C4050 C4052 1.391 . S
C4051 C4050 1.395 . S
C4051 C4054 1.390 . S
C4052 C4050 1.391 . S
C4052 C4056 1.387 . S
C4052 C4057 1.491 . S
H4053 C4054 0.950 . S
C4054 C4051 1.390 . S
C4054 H4053 0.950 . S
C4054 C4055 1.378 . S
C4055 C4054 1.378 . S
C4055 C4056 1.409 . S
C4056 C4052 1.387 . S
C4056 C4055 1.409 . S
C4056 H4058 0.951 . S
C4057 C4052 1.491 . S
C4057 C4059 1.382 . S
C4057 C4061 1.404 . S
H4058 C4056 0.951 . S
C4059 C4057 1.382 . S
C4059 C4060 1.390 . S
C4059 H4064 0.949 . S
C4060 C4059 1.390 . S
C4060 C4065 1.399 . S
C4061 C4057 1.404 . S
C4061 H4062 0.950 . S
C4061 C4063 1.375 . S
H4062 C4061 0.950 . S
C4063 C4061 1.375 . S
C4063 C4065 1.382 . S
C4063 H4067 0.950 . S
H4064 C4059 0.949 . S
C4065 C4060 1.399 . S
C4065 C4063 1.382 . S
C4065 H4066 0.952 . S
H4066 C4065 0.952 . S
H4067 C4063 0.950 . S
H4068 C4069 0.949 . S
C4069 H4068 0.949 . S
C4069 C4070 1.395 . S
C4069 C4071 1.391 . S
C4070 C4069 1.395 . S
C4070 C4073 1.390 . S
C4071 C4069 1.391 . S
C4071 C4075 1.387 . S
C4071 C4076 1.491 . S
H4072 C4073 0.950 . S
C4073 C4070 1.390 . S
C4073 H4072 0.950 . S
C4073 C4074 1.378 . S
C4074 C4073 1.378 . S
C4074 C4075 1.409 . S
C4075 C4071 1.387 . S
C4075 C4074 1.409 . S
C4075 H4077 0.951 . S
C4076 C4071 1.491 . S
C4076 C4078 1.382 . S
C4076 C4080 1.404 . S
H4077 C4075 0.951 . S
C4078 C4076 1.382 . S
C4078 C4079 1.390 . S
C4078 H4083 0.949 . S
C4079 C4078 1.390 . S
C4079 C4084 1.399 . S
C4080 C4076 1.404 . S
C4080 H4081 0.950 . S
C4080 C4082 1.375 . S
H4081 C4080 0.950 . S
C4082 C4080 1.375 . S
C4082 C4084 1.382 . S
C4082 H4086 0.950 . S
H4083 C4078 0.949 . S
C4084 C4079 1.399 . S
C4084 C4082 1.382 . S
C4084 H4085 0.952 . S
H4085 C4084 0.952 . S
H4086 C4082 0.950 . S
H4087 C4088 0.949 . S
C4088 H4087 0.949 . S
C4088 C4089 1.395 . S
C4088 C4090 1.391 . S
C4089 C4088 1.395 . S
C4089 C4092 1.390 . S
C4090 C4088 1.391 . S
C4090 C4094 1.387 . S
C4090 C4095 1.491 . S
H4091 C4092 0.950 . S
C4092 C4089 1.390 . S
C4092 H4091 0.950 . S
C4092 C4093 1.378 . S
C4093 C4092 1.378 . S
C4093 C4094 1.409 . S
C4094 C4090 1.387 . S
C4094 C4093 1.409 . S
C4094 H4096 0.951 . S
C4095 C4090 1.491 . S
C4095 C4097 1.382 . S
C4095 C4099 1.404 . S
H4096 C4094 0.951 . S
C4097 C4095 1.382 . S
C4097 C4098 1.390 . S
C4097 H4102 0.949 . S
C4098 C4097 1.390 . S
C4098 C4103 1.399 . S
C4099 C4095 1.404 . S
C4099 H4100 0.950 . S
C4099 C4101 1.375 . S
H4100 C4099 0.950 . S
C4101 C4099 1.375 . S
C4101 C4103 1.382 . S
C4101 H4105 0.950 . S
H4102 C4097 0.949 . S
C4103 C4098 1.399 . S
C4103 C4101 1.382 . S
C4103 H4104 0.952 . S
H4104 C4103 0.952 . S
H4105 C4101 0.950 . S
H4106 C4107 0.949 . S
C4107 H4106 0.949 . S
C4107 C4108 1.395 . S
C4107 C4109 1.391 . S
C4108 C4107 1.395 . S
C4108 C4111 1.390 . S
C4109 C4107 1.391 . S
C4109 C4113 1.387 . S
C4109 C4114 1.491 . S
H4110 C4111 0.950 . S
C4111 C4108 1.390 . S
C4111 H4110 0.950 . S
C4111 C4112 1.378 . S
C4112 C4111 1.378 . S
C4112 C4113 1.409 . S
C4113 C4109 1.387 . S
C4113 C4112 1.409 . S
C4113 H4115 0.951 . S
C4114 C4109 1.491 . S
C4114 C4116 1.382 . S
C4114 C4118 1.404 . S
H4115 C4113 0.951 . S
C4116 C4114 1.382 . S
C4116 C4117 1.390 . S
C4116 H4121 0.949 . S
C4117 C4116 1.390 . S
C4117 C4122 1.399 . S
C4118 C4114 1.404 . S
C4118 H4119 0.950 . S
C4118 C4120 1.375 . S
H4119 C4118 0.950 . S
C4120 C4118 1.375 . S
C4120 C4122 1.382 . S
C4120 H4124 0.950 . S
H4121 C4116 0.949 . S
C4122 C4117 1.399 . S
C4122 C4120 1.382 . S
C4122 H4123 0.952 . S
H4123 C4122 0.952 . S
H4124 C4120 0.950 . S
H4125 C4126 0.949 . S
C4126 H4125 0.949 . S
C4126 C4127 1.395 . S
C4126 C4128 1.391 . S
C4127 C4126 1.395 . S
C4127 C4130 1.390 . S
C4128 C4126 1.391 . S
C4128 C4132 1.387 . S
C4128 C4133 1.491 . S
H4129 C4130 0.950 . S
C4130 C4127 1.390 . S
C4130 H4129 0.950 . S
C4130 C4131 1.378 . S
C4131 C4130 1.378 . S
C4131 C4132 1.409 . S
C4132 C4128 1.387 . S
C4132 C4131 1.409 . S
C4132 H4134 0.951 . S
C4133 C4128 1.491 . S
C4133 C4135 1.382 . S
C4133 C4137 1.404 . S
H4134 C4132 0.951 . S
C4135 C4133 1.382 . S
C4135 C4136 1.390 . S
C4135 H4140 0.949 . S
C4136 C4135 1.390 . S
C4136 C4141 1.399 . S
C4137 C4133 1.404 . S
C4137 H4138 0.950 . S
C4137 C4139 1.375 . S
H4138 C4137 0.950 . S
C4139 C4137 1.375 . S
C4139 C4141 1.382 . S
C4139 H4143 0.950 . S
H4140 C4135 0.949 . S
C4141 C4136 1.399 . S
C4141 C4139 1.382 . S
C4141 H4142 0.952 . S
H4142 C4141 0.952 . S
H4143 C4139 0.950 . S
H4144 C4145 0.949 . S
C4145 H4144 0.949 . S
C4145 C4146 1.395 . S
C4145 C4147 1.391 . S
C4146 C4145 1.395 . S
C4146 C4149 1.390 . S
C4147 C4145 1.391 . S
C4147 C4151 1.387 . S
C4147 C4152 1.491 . S
H4148 C4149 0.950 . S
C4149 C4146 1.390 . S
C4149 H4148 0.950 . S
C4149 C4150 1.378 . S
C4150 C4149 1.378 . S
C4150 C4151 1.409 . S
C4151 C4147 1.387 . S
C4151 C4150 1.409 . S
C4151 H4153 0.951 . S
C4152 C4147 1.491 . S
C4152 C4154 1.382 . S
C4152 C4156 1.404 . S
H4153 C4151 0.951 . S
C4154 C4152 1.382 . S
C4154 C4155 1.390 . S
C4154 H4159 0.949 . S
C4155 C4154 1.390 . S
C4155 C4160 1.399 . S
C4156 C4152 1.404 . S
C4156 H4157 0.950 . S
C4156 C4158 1.375 . S
H4157 C4156 0.950 . S
C4158 C4156 1.375 . S
C4158 C4160 1.382 . S
C4158 H4162 0.950 . S
H4159 C4154 0.949 . S
C4160 C4155 1.399 . S
C4160 C4158 1.382 . S
C4160 H4161 0.952 . S
H4161 C4160 0.952 . S
H4162 C4158 0.950 . S
H4163 C4164 0.949 . S
C4164 H4163 0.949 . S
C4164 C4165 1.395 . S
C4164 C4166 1.391 . S
C4165 C4164 1.395 . S
C4165 C4168 1.390 . S
C4166 C4164 1.391 . S
C4166 C4170 1.387 . S
C4166 C4171 1.491 . S
H4167 C4168 0.950 . S
C4168 C4165 1.390 . S
C4168 H4167 0.950 . S
C4168 C4169 1.378 . S
C4169 C4168 1.378 . S
C4169 C4170 1.409 . S
C4170 C4166 1.387 . S
C4170 C4169 1.409 . S
C4170 H4172 0.951 . S
C4171 C4166 1.491 . S
C4171 C4173 1.382 . S
C4171 C4175 1.404 . S
H4172 C4170 0.951 . S
C4173 C4171 1.382 . S
C4173 C4174 1.390 . S
C4173 H4178 0.949 . S
C4174 C4173 1.390 . S
C4174 C4179 1.399 . S
C4175 C4171 1.404 . S
C4175 H4176 0.950 . S
C4175 C4177 1.375 . S
H4176 C4175 0.950 . S
C4177 C4175 1.375 . S
C4177 C4179 1.382 . S
C4177 H4181 0.950 . S
H4178 C4173 0.949 . S
C4179 C4174 1.399 . S
C4179 C4177 1.382 . S
C4179 H4180 0.952 . S
H4180 C4179 0.952 . S
H4181 C4177 0.950 . S
H4182 C4183 0.949 . S
C4183 H4182 0.949 . S
C4183 C4184 1.395 . S
C4183 C4185 1.391 . S
C4184 C4183 1.395 . S
C4184 C4187 1.390 . S
C4185 C4183 1.391 . S
C4185 C4189 1.387 . S
C4185 C4190 1.491 . S
H4186 C4187 0.950 . S
C4187 C4184 1.390 . S
C4187 H4186 0.950 . S
C4187 C4188 1.378 . S
C4188 C4187 1.378 . S
C4188 C4189 1.409 . S
C4189 C4185 1.387 . S
C4189 C4188 1.409 . S
C4189 H4191 0.951 . S
C4190 C4185 1.491 . S
C4190 C4192 1.382 . S
C4190 C4194 1.404 . S
H4191 C4189 0.951 . S
C4192 C4190 1.382 . S
C4192 C4193 1.390 . S
C4192 H4197 0.949 . S
C4193 C4192 1.390 . S
C4193 C4198 1.399 . S
C4194 C4190 1.404 . S
C4194 H4195 0.950 . S
C4194 C4196 1.375 . S
H4195 C4194 0.950 . S
C4196 C4194 1.375 . S
C4196 C4198 1.382 . S
C4196 H4200 0.950 . S
H4197 C4192 0.949 . S
C4198 C4193 1.399 . S
C4198 C4196 1.382 . S
C4198 H4199 0.952 . S
H4199 C4198 0.952 . S
H4200 C4196 0.950 . S
H4201 C4202 0.949 . S
C4202 H4201 0.949 . S
C4202 C4203 1.395 . S
C4202 C4204 1.391 . S
C4203 C4202 1.395 . S
C4203 C4206 1.390 . S
C4204 C4202 1.391 . S
C4204 C4208 1.387 . S
C4204 C4209 1.491 . S
H4205 C4206 0.950 . S
C4206 C4203 1.390 . S
C4206 H4205 0.950 . S
C4206 C4207 1.378 . S
C4207 C4206 1.378 . S
C4207 C4208 1.409 . S
C4208 C4204 1.387 . S
C4208 C4207 1.409 . S
C4208 H4210 0.951 . S
C4209 C4204 1.491 . S
C4209 C4211 1.382 . S
C4209 C4213 1.404 . S
H4210 C4208 0.951 . S
C4211 C4209 1.382 . S
C4211 C4212 1.390 . S
C4211 H4216 0.949 . S
C4212 C4211 1.390 . S
C4212 C4217 1.399 . S
C4213 C4209 1.404 . S
C4213 H4214 0.950 . S
C4213 C4215 1.375 . S
H4214 C4213 0.950 . S
C4215 C4213 1.375 . S
C4215 C4217 1.382 . S
C4215 H4219 0.950 . S
H4216 C4211 0.949 . S
C4217 C4212 1.399 . S
C4217 C4215 1.382 . S
C4217 H4218 0.952 . S
H4218 C4217 0.952 . S
H4219 C4215 0.950 . S
H4220 C4221 0.949 . S
C4221 H4220 0.949 . S
C4221 C4222 1.395 . S
C4221 C4223 1.391 . S
C4222 C4221 1.395 . S
C4222 C4225 1.390 . S
C4223 C4221 1.391 . S
C4223 C4227 1.387 . S
C4223 C4228 1.491 . S
H4224 C4225 0.950 . S
C4225 C4222 1.390 . S
C4225 H4224 0.950 . S
C4225 C4226 1.378 . S
C4226 C4225 1.378 . S
C4226 C4227 1.409 . S
C4227 C4223 1.387 . S
C4227 C4226 1.409 . S
C4227 H4229 0.951 . S
C4228 C4223 1.491 . S
C4228 C4230 1.382 . S
C4228 C4232 1.404 . S
H4229 C4227 0.951 . S
C4230 C4228 1.382 . S
C4230 C4231 1.390 . S
C4230 H4235 0.949 . S
C4231 C4230 1.390 . S
C4231 C4236 1.399 . S
C4232 C4228 1.404 . S
C4232 H4233 0.950 . S
C4232 C4234 1.375 . S
H4233 C4232 0.950 . S
C4234 C4232 1.375 . S
C4234 C4236 1.382 . S
C4234 H4238 0.950 . S
H4235 C4230 0.949 . S
C4236 C4231 1.399 . S
C4236 C4234 1.382 . S
C4236 H4237 0.952 . S
H4237 C4236 0.952 . S
H4238 C4234 0.950 . S
H4239 C4240 0.949 . S
C4240 H4239 0.949 . S
C4240 C4241 1.395 . S
C4240 C4242 1.391 . S
C4241 C4240 1.395 . S
C4241 C4244 1.390 . S
C4242 C4240 1.391 . S
C4242 C4246 1.387 . S
C4242 C4247 1.491 . S
H4243 C4244 0.950 . S
C4244 C4241 1.390 . S
C4244 H4243 0.950 . S
C4244 C4245 1.378 . S
C4245 C4244 1.378 . S
C4245 C4246 1.409 . S
C4246 C4242 1.387 . S
C4246 C4245 1.409 . S
C4246 H4248 0.951 . S
C4247 C4242 1.491 . S
C4247 C4249 1.382 . S
C4247 C4251 1.404 . S
H4248 C4246 0.951 . S
C4249 C4247 1.382 . S
C4249 C4250 1.390 . S
C4249 H4254 0.949 . S
C4250 C4249 1.390 . S
C4250 C4255 1.399 . S
C4251 C4247 1.404 . S
C4251 H4252 0.950 . S
C4251 C4253 1.375 . S
H4252 C4251 0.950 . S
C4253 C4251 1.375 . S
C4253 C4255 1.382 . S
C4253 H4257 0.950 . S
H4254 C4249 0.949 . S
C4255 C4250 1.399 . S
C4255 C4253 1.382 . S
C4255 H4256 0.952 . S
H4256 C4255 0.952 . S
H4257 C4253 0.950 . S
H4258 C4259 0.949 . S
C4259 H4258 0.949 . S
C4259 C4260 1.395 . S
C4259 C4261 1.391 . S
C4260 C4259 1.395 . S
C4260 C4263 1.390 . S
C4261 C4259 1.391 . S
C4261 C4265 1.387 . S
C4261 C4266 1.491 . S
H4262 C4263 0.950 . S
C4263 C4260 1.390 . S
C4263 H4262 0.950 . S
C4263 C4264 1.378 . S
C4264 C4263 1.378 . S
C4264 C4265 1.409 . S
C4265 C4261 1.387 . S
C4265 C4264 1.409 . S
C4265 H4267 0.951 . S
C4266 C4261 1.491 . S
C4266 C4268 1.382 . S
C4266 C4270 1.404 . S
H4267 C4265 0.951 . S
C4268 C4266 1.382 . S
C4268 C4269 1.390 . S
C4268 H4273 0.949 . S
C4269 C4268 1.390 . S
C4269 C4274 1.399 . S
C4270 C4266 1.404 . S
C4270 H4271 0.950 . S
C4270 C4272 1.375 . S
H4271 C4270 0.950 . S
C4272 C4270 1.375 . S
C4272 C4274 1.382 . S
C4272 H4276 0.950 . S
H4273 C4268 0.949 . S
C4274 C4269 1.399 . S
C4274 C4272 1.382 . S
C4274 H4275 0.952 . S
H4275 C4274 0.952 . S
H4276 C4272 0.950 . S
H4277 C4278 0.949 . S
C4278 H4277 0.949 . S
C4278 C4279 1.395 . S
C4278 C4280 1.391 . S
C4279 C4278 1.395 . S
C4279 C4282 1.390 . S
C4280 C4278 1.391 . S
C4280 C4284 1.387 . S
C4280 C4285 1.491 . S
H4281 C4282 0.950 . S
C4282 C4279 1.390 . S
C4282 H4281 0.950 . S
C4282 C4283 1.378 . S
C4283 C4282 1.378 . S
C4283 C4284 1.409 . S
C4284 C4280 1.387 . S
C4284 C4283 1.409 . S
C4284 H4286 0.951 . S
C4285 C4280 1.491 . S
C4285 C4287 1.382 . S
C4285 C4289 1.404 . S
H4286 C4284 0.951 . S
C4287 C4285 1.382 . S
C4287 C4288 1.390 . S
C4287 H4292 0.949 . S
C4288 C4287 1.390 . S
C4288 C4293 1.399 . S
C4289 C4285 1.404 . S
C4289 H4290 0.950 . S
C4289 C4291 1.375 . S
H4290 C4289 0.950 . S
C4291 C4289 1.375 . S
C4291 C4293 1.382 . S
C4291 H4295 0.950 . S
H4292 C4287 0.949 . S
C4293 C4288 1.399 . S
C4293 C4291 1.382 . S
C4293 H4294 0.952 . S
H4294 C4293 0.952 . S
H4295 C4291 0.950 . S
H4296 C4297 0.949 . S
C4297 H4296 0.949 . S
C4297 C4298 1.395 . S
C4297 C4299 1.391 . S
C4298 C4297 1.395 . S
C4298 C4301 1.390 . S
C4299 C4297 1.391 . S
C4299 C4303 1.387 . S
C4299 C4304 1.491 . S
H4300 C4301 0.950 . S
C4301 C4298 1.390 . S
C4301 H4300 0.950 . S
C4301 C4302 1.378 . S
C4302 C4301 1.378 . S
C4302 C4303 1.409 . S
C4303 C4299 1.387 . S
C4303 C4302 1.409 . S
C4303 H4305 0.951 . S
C4304 C4299 1.491 . S
C4304 C4306 1.382 . S
C4304 C4308 1.404 . S
H4305 C4303 0.951 . S
C4306 C4304 1.382 . S
C4306 C4307 1.390 . S
C4306 H4311 0.949 . S
C4307 C4306 1.390 . S
C4307 C4312 1.399 . S
C4308 C4304 1.404 . S
C4308 H4309 0.950 . S
C4308 C4310 1.375 . S
H4309 C4308 0.950 . S
C4310 C4308 1.375 . S
C4310 C4312 1.382 . S
C4310 H4314 0.950 . S
H4311 C4306 0.949 . S
C4312 C4307 1.399 . S
C4312 C4310 1.382 . S
C4312 H4313 0.952 . S
H4313 C4312 0.952 . S
H4314 C4310 0.950 . S
H4315 C4316 0.949 . S
C4316 H4315 0.949 . S
C4316 C4317 1.395 . S
C4316 C4318 1.391 . S
C4317 C4316 1.395 . S
C4317 C4320 1.390 . S
C4318 C4316 1.391 . S
C4318 C4322 1.387 . S
C4318 C4323 1.491 . S
H4319 C4320 0.950 . S
C4320 C4317 1.390 . S
C4320 H4319 0.950 . S
C4320 C4321 1.378 . S
C4321 C4320 1.378 . S
C4321 C4322 1.409 . S
C4322 C4318 1.387 . S
C4322 C4321 1.409 . S
C4322 H4324 0.951 . S
C4323 C4318 1.491 . S
C4323 C4325 1.382 . S
C4323 C4327 1.404 . S
H4324 C4322 0.951 . S
C4325 C4323 1.382 . S
C4325 C4326 1.390 . S
C4325 H4330 0.949 . S
C4326 C4325 1.390 . S
C4326 C4331 1.357 1_655 S
C4327 C4323 1.404 . S
C4327 H4328 0.950 . S
C4327 C4329 1.375 . S
H4328 C4327 0.950 . S
C4329 C4327 1.375 . S
C4329 C4331 1.359 1_655 S
C4329 H4333 0.950 1_655 S
H4330 C4325 0.949 . S
C4331 C4326 1.357 1_455 S
C4331 C4329 1.359 1_455 S
C4331 H4332 1.020 . S
H4332 C4331 1.020 . S
H4333 C4329 0.950 1_455 S
H4334 C4335 0.949 . S
C4335 H4334 0.949 . S
C4335 C4336 1.395 . S
C4335 C4337 1.391 . S
C4336 C4335 1.395 . S
C4336 C4339 1.390 . S
C4337 C4335 1.391 . S
C4337 C4341 1.387 . S
C4337 C4342 1.491 . S
H4338 C4339 0.950 . S
C4339 C4336 1.390 . S
C4339 H4338 0.950 . S
C4339 C4340 1.378 . S
C4340 C4339 1.378 . S
C4340 C4341 1.409 . S
C4341 C4337 1.387 . S
C4341 C4340 1.409 . S
C4341 H4343 0.951 . S
C4342 C4337 1.491 . S
C4342 C4344 1.382 . S
C4342 C4346 1.404 . S
H4343 C4341 0.951 . S
C4344 C4342 1.382 . S
C4344 C4345 1.390 . S
C4344 H4349 0.949 . S
C4345 C4344 1.390 . S
C4345 C4350 1.399 . S
C4346 C4342 1.404 . S
C4346 H4347 0.950 . S
C4346 C4348 1.375 . S
H4347 C4346 0.950 . S
C4348 C4346 1.375 . S
C4348 C4350 1.382 . S
C4348 H4352 0.950 . S
H4349 C4344 0.949 . S
C4350 C4345 1.399 . S
C4350 C4348 1.382 . S
C4350 H4351 0.952 . S
H4351 C4350 0.952 . S
H4352 C4348 0.950 . S
H4353 C4354 0.949 . S
C4354 H4353 0.949 . S
C4354 C4355 1.395 . S
C4354 C4356 1.391 . S
C4355 C4354 1.395 . S
C4355 C4358 1.390 . S
C4356 C4354 1.391 . S
C4356 C4360 1.387 . S
C4356 C4361 1.491 . S
H4357 C4358 0.950 . S
C4358 C4355 1.390 . S
C4358 H4357 0.950 . S
C4358 C4359 1.378 . S
C4359 C4358 1.378 . S
C4359 C4360 1.409 . S
C4360 C4356 1.387 . S
C4360 C4359 1.409 . S
C4360 H4362 0.951 . S
C4361 C4356 1.491 . S
C4361 C4363 1.382 . S
C4361 C4365 1.404 . S
H4362 C4360 0.951 . S
C4363 C4361 1.382 . S
C4363 C4364 1.390 . S
C4363 H4368 0.949 . S
C4364 C4363 1.390 . S
C4364 C4369 1.399 . S
C4365 C4361 1.404 . S
C4365 H4366 0.950 . S
C4365 C4367 1.375 . S
H4366 C4365 0.950 . S
C4367 C4365 1.375 . S
C4367 C4369 1.382 . S
C4367 H4371 0.950 . S
H4368 C4363 0.949 . S
C4369 C4364 1.399 . S
C4369 C4367 1.382 . S
C4369 H4370 0.952 . S
H4370 C4369 0.952 . S
H4371 C4367 0.950 . S
H4372 C4373 0.949 . S
C4373 H4372 0.949 . S
C4373 C4374 1.395 . S
C4373 C4375 1.391 . S
C4374 C4373 1.395 . S
C4374 C4377 1.390 . S
C4375 C4373 1.391 . S
C4375 C4379 1.387 . S
C4375 C4380 1.491 . S
H4376 C4377 0.950 . S
C4377 C4374 1.390 . S
C4377 H4376 0.950 . S
C4377 C4378 1.378 . S
C4378 C4377 1.378 . S
C4378 C4379 1.409 . S
C4379 C4375 1.387 . S
C4379 C4378 1.409 . S
C4379 H4381 0.951 . S
C4380 C4375 1.491 . S
C4380 C4382 1.382 . S
C4380 C4384 1.404 . S
H4381 C4379 0.951 . S
C4382 C4380 1.382 . S
C4382 C4383 1.390 . S
C4382 H4387 0.949 . S
C4383 C4382 1.390 . S
C4383 C4388 1.399 . S
C4384 C4380 1.404 . S
C4384 H4385 0.950 . S
C4384 C4386 1.375 . S
H4385 C4384 0.950 . S
C4386 C4384 1.375 . S
C4386 C4388 1.382 . S
C4386 H4390 0.950 . S
H4387 C4382 0.949 . S
C4388 C4383 1.399 . S
C4388 C4386 1.382 . S
C4388 H4389 0.952 . S
H4389 C4388 0.952 . S
H4390 C4386 0.950 . S
H4391 C4392 0.949 . S
C4392 H4391 0.949 . S
C4392 C4393 1.395 . S
C4392 C4394 1.391 . S
C4393 C4392 1.395 . S
C4393 C4396 1.390 . S
C4394 C4392 1.391 . S
C4394 C4398 1.387 . S
C4394 C4399 1.491 . S
H4395 C4396 0.950 . S
C4396 C4393 1.390 . S
C4396 H4395 0.950 . S
C4396 C4397 1.378 . S
C4397 C4396 1.378 . S
C4397 C4398 1.409 . S
C4398 C4394 1.387 . S
C4398 C4397 1.409 . S
C4398 H4400 0.951 . S
C4399 C4394 1.491 . S
C4399 C4401 1.382 . S
C4399 C4403 1.404 . S
H4400 C4398 0.951 . S
C4401 C4399 1.382 . S
C4401 C4402 1.390 . S
C4401 H4406 0.949 . S
C4402 C4401 1.390 . S
C4402 C4407 1.399 . S
C4403 C4399 1.404 . S
C4403 H4404 0.950 . S
C4403 C4405 1.375 . S
H4404 C4403 0.950 . S
C4405 C4403 1.375 . S
C4405 C4407 1.382 . S
C4405 H4409 0.950 . S
H4406 C4401 0.949 . S
C4407 C4402 1.399 . S
C4407 C4405 1.382 . S
C4407 H4408 0.952 . S
H4408 C4407 0.952 . S
H4409 C4405 0.950 . S
H4410 C4411 0.949 . S
C4411 H4410 0.949 . S
C4411 C4412 1.395 . S
C4411 C4413 1.391 . S
C4412 C4411 1.395 . S
C4412 C4415 1.390 . S
C4413 C4411 1.391 . S
C4413 C4417 1.387 . S
C4413 C4418 1.491 . S
H4414 C4415 0.950 . S
C4415 C4412 1.390 . S
C4415 H4414 0.950 . S
C4415 C4416 1.378 . S
C4416 C4415 1.378 . S
C4416 C4417 1.409 . S
C4417 C4413 1.387 . S
C4417 C4416 1.409 . S
C4417 H4419 0.951 . S
C4418 C4413 1.491 . S
C4418 C4420 1.382 . S
C4418 C4422 1.404 . S
H4419 C4417 0.951 . S
C4420 C4418 1.382 . S
C4420 C4421 1.390 . S
C4420 H4425 0.949 . S
C4421 C4420 1.390 . S
C4421 C4426 1.399 . S
C4422 C4418 1.404 . S
C4422 H4423 0.950 . S
C4422 C4424 1.375 . S
H4423 C4422 0.950 . S
C4424 C4422 1.375 . S
C4424 C4426 1.382 . S
C4424 H4428 0.950 . S
H4425 C4420 0.949 . S
C4426 C4421 1.399 . S
C4426 C4424 1.382 . S
C4426 H4427 0.952 . S
H4427 C4426 0.952 . S
H4428 C4424 0.950 . S
H4429 C4430 0.949 . S
C4430 H4429 0.949 . S
C4430 C4431 1.395 . S
C4430 C4432 1.391 . S
C4431 C4430 1.395 . S
C4431 C4434 1.390 . S
C4432 C4430 1.391 . S
C4432 C4436 1.387 . S
C4432 C4437 1.491 . S
H4433 C4434 0.950 . S
C4434 C4431 1.390 . S
C4434 H4433 0.950 . S
C4434 C4435 1.378 . S
C4435 C4434 1.378 . S
C4435 C4436 1.409 . S
C4436 C4432 1.387 . S
C4436 C4435 1.409 . S
C4436 H4438 0.951 . S
C4437 C4432 1.491 . S
C4437 C4439 1.382 . S
C4437 C4441 1.404 . S
H4438 C4436 0.951 . S
C4439 C4437 1.382 . S
C4439 C4440 1.390 . S
C4439 H4444 0.949 . S
C4440 C4439 1.390 . S
C4440 C4445 1.357 1_655 S
C4441 C4437 1.404 . S
C4441 H4442 0.950 . S
C4441 C4443 1.375 . S
H4442 C4441 0.950 . S
C4443 C4441 1.375 . S
C4443 C4445 1.359 1_655 S
C4443 H4447 0.950 1_655 S
H4444 C4439 0.949 . S
C4445 C4440 1.357 1_455 S
C4445 C4443 1.359 1_455 S
C4445 H4446 1.020 . S
H4446 C4445 1.020 . S
H4447 C4443 0.950 1_455 S
H4448 C4449 0.949 . S
C4449 H4448 0.949 . S
C4449 C4450 1.395 . S
C4449 C4451 1.391 . S
C4450 C4449 1.395 . S
C4450 C4453 1.390 . S
C4451 C4449 1.391 . S
C4451 C4455 1.387 . S
C4451 C4456 1.491 . S
H4452 C4453 0.950 . S
C4453 C4450 1.390 . S
C4453 H4452 0.950 . S
C4453 C4454 1.378 . S
C4454 C4453 1.378 . S
C4454 C4455 1.409 . S
C4455 C4451 1.387 . S
C4455 C4454 1.409 . S
C4455 H4457 0.951 . S
C4456 C4451 1.491 . S
C4456 C4458 1.382 . S
C4456 C4460 1.404 . S
H4457 C4455 0.951 . S
C4458 C4456 1.382 . S
C4458 C4459 1.390 . S
C4458 H4463 0.949 . S
C4459 C4458 1.390 . S
C4459 C4464 1.399 . S
C4460 C4456 1.404 . S
C4460 H4461 0.950 . S
C4460 C4462 1.375 . S
H4461 C4460 0.950 . S
C4462 C4460 1.375 . S
C4462 C4464 1.382 . S
C4462 H4466 0.950 . S
H4463 C4458 0.949 . S
C4464 C4459 1.399 . S
C4464 C4462 1.382 . S
C4464 H4465 0.952 . S
H4465 C4464 0.952 . S
H4466 C4462 0.950 . S
H4467 C4468 0.949 . S
C4468 H4467 0.949 . S
C4468 C4469 1.395 . S
C4468 C4470 1.391 . S
C4469 C4468 1.395 . S
C4469 C4472 1.390 . S
C4470 C4468 1.391 . S
C4470 C4474 1.387 . S
C4470 C4475 1.491 . S
H4471 C4472 0.950 . S
C4472 C4469 1.390 . S
C4472 H4471 0.950 . S
C4472 C4473 1.378 . S
C4473 C4472 1.378 . S
C4473 C4474 1.409 . S
C4474 C4470 1.387 . S
C4474 C4473 1.409 . S
C4474 H4476 0.951 . S
C4475 C4470 1.491 . S
C4475 C4477 1.382 . S
C4475 C4479 1.404 . S
H4476 C4474 0.951 . S
C4477 C4475 1.382 . S
C4477 C4478 1.390 . S
C4477 H4482 0.949 . S
C4478 C4477 1.390 . S
C4478 C4483 1.399 . S
C4479 C4475 1.404 . S
C4479 H4480 0.950 . S
C4479 C4481 1.375 . S
H4480 C4479 0.950 . S
C4481 C4479 1.375 . S
C4481 C4483 1.382 . S
C4481 H4485 0.950 . S
H4482 C4477 0.949 . S
C4483 C4478 1.399 . S
C4483 C4481 1.382 . S
C4483 H4484 0.952 . S
H4484 C4483 0.952 . S
H4485 C4481 0.950 . S
H4486 C4487 0.949 . S
C4487 H4486 0.949 . S
C4487 C4488 1.395 . S
C4487 C4489 1.391 . S
C4488 C4487 1.395 . S
C4488 C4491 1.390 . S
C4489 C4487 1.391 . S
C4489 C4493 1.387 . S
C4489 C4494 1.491 . S
H4490 C4491 0.950 . S
C4491 C4488 1.390 . S
C4491 H4490 0.950 . S
C4491 C4492 1.378 . S
C4492 C4491 1.378 . S
C4492 C4493 1.409 . S
C4493 C4489 1.387 . S
C4493 C4492 1.409 . S
C4493 H4495 0.951 . S
C4494 C4489 1.491 . S
C4494 C4496 1.382 . S
C4494 C4498 1.404 . S
H4495 C4493 0.951 . S
C4496 C4494 1.382 . S
C4496 C4497 1.390 . S
C4496 H4501 0.949 . S
C4497 C4496 1.390 . S
C4497 C4502 1.399 . S
C4498 C4494 1.404 . S
C4498 H4499 0.950 . S
C4498 C4500 1.375 . S
H4499 C4498 0.950 . S
C4500 C4498 1.375 . S
C4500 C4502 1.382 . S
C4500 H4504 0.950 . S
H4501 C4496 0.949 . S
C4502 C4497 1.399 . S
C4502 C4500 1.382 . S
C4502 H4503 0.952 . S
H4503 C4502 0.952 . S
H4504 C4500 0.950 . S
H4505 C4506 0.949 . S
C4506 H4505 0.949 . S
C4506 C4507 1.395 . S
C4506 C4508 1.391 . S
C4507 C4506 1.395 . S
C4507 C4510 1.390 . S
C4508 C4506 1.391 . S
C4508 C4512 1.387 . S
C4508 C4513 1.491 . S
H4509 C4510 0.950 . S
C4510 C4507 1.390 . S
C4510 H4509 0.950 . S
C4510 C4511 1.378 . S
C4511 C4510 1.378 . S
C4511 C4512 1.409 . S
C4512 C4508 1.387 . S
C4512 C4511 1.409 . S
C4512 H4514 0.951 . S
C4513 C4508 1.491 . S
C4513 C4515 1.382 . S
C4513 C4517 1.404 . S
H4514 C4512 0.951 . S
C4515 C4513 1.382 . S
C4515 C4516 1.390 . S
C4515 H4520 0.949 . S
C4516 C4515 1.390 . S
C4516 C4521 1.356 1_554 S
C4517 C4513 1.404 . S
C4517 H4518 0.950 . S
C4517 C4519 1.375 . S
H4518 C4517 0.950 . S
C4519 C4517 1.375 . S
C4519 C4521 1.358 1_554 S
C4519 H4523 0.950 1_554 S
H4520 C4515 0.949 . S
C4521 C4516 1.356 1_556 S
C4521 C4519 1.358 1_556 S
C4521 H4522 1.021 . S
H4522 C4521 1.021 . S
H4523 C4519 0.950 1_556 S
H4524 C4525 0.949 . S
C4525 H4524 0.949 . S
C4525 C4526 1.395 . S
C4525 C4527 1.391 . S
C4526 C4525 1.395 . S
C4526 C4529 1.390 . S
C4527 C4525 1.391 . S
C4527 C4531 1.387 . S
C4527 C4532 1.491 . S
H4528 C4529 0.950 . S
C4529 C4526 1.390 . S
C4529 H4528 0.950 . S
C4529 C4530 1.378 . S
C4530 C4529 1.378 . S
C4530 C4531 1.409 . S
C4531 C4527 1.387 . S
C4531 C4530 1.409 . S
C4531 H4533 0.951 . S
C4532 C4527 1.491 . S
C4532 C4534 1.382 . S
C4532 C4536 1.404 . S
H4533 C4531 0.951 . S
C4534 C4532 1.382 . S
C4534 C4535 1.390 . S
C4534 H4539 0.949 . S
C4535 C4534 1.390 . S
C4535 C4540 1.399 . S
C4536 C4532 1.404 . S
C4536 H4537 0.950 . S
C4536 C4538 1.375 . S
H4537 C4536 0.950 . S
C4538 C4536 1.375 . S
C4538 C4540 1.382 . S
C4538 H4542 0.950 . S
H4539 C4534 0.949 . S
C4540 C4535 1.399 . S
C4540 C4538 1.382 . S
C4540 H4541 0.952 . S
H4541 C4540 0.952 . S
H4542 C4538 0.950 . S
H4543 C4544 0.949 . S
C4544 H4543 0.949 . S
C4544 C4545 1.395 . S
C4544 C4546 1.391 . S
C4545 C4544 1.395 . S
C4545 C4548 1.390 . S
C4546 C4544 1.391 . S
C4546 C4550 1.387 . S
C4546 C4551 1.491 . S
H4547 C4548 0.950 . S
C4548 C4545 1.390 . S
C4548 H4547 0.950 . S
C4548 C4549 1.378 . S
C4549 C4548 1.378 . S
C4549 C4550 1.409 . S
C4550 C4546 1.387 . S
C4550 C4549 1.409 . S
C4550 H4552 0.951 . S
C4551 C4546 1.491 . S
C4551 C4553 1.382 . S
C4551 C4555 1.404 . S
H4552 C4550 0.951 . S
C4553 C4551 1.382 . S
C4553 C4554 1.390 . S
C4553 H4558 0.949 . S
C4554 C4553 1.390 . S
C4554 C4559 1.399 . S
C4555 C4551 1.404 . S
C4555 H4556 0.950 . S
C4555 C4557 1.375 . S
H4556 C4555 0.950 . S
C4557 C4555 1.375 . S
C4557 C4559 1.382 . S
C4557 H4561 0.950 . S
H4558 C4553 0.949 . S
C4559 C4554 1.399 . S
C4559 C4557 1.382 . S
C4559 H4560 0.952 . S
H4560 C4559 0.952 . S
H4561 C4557 0.950 . S
H4562 C4563 0.949 . S
C4563 H4562 0.949 . S
C4563 C4564 1.395 . S
C4563 C4565 1.391 . S
C4564 C4563 1.395 . S
C4564 C4567 1.390 . S
C4565 C4563 1.391 . S
C4565 C4569 1.387 . S
C4565 C4570 1.491 . S
H4566 C4567 0.950 . S
C4567 C4564 1.390 . S
C4567 H4566 0.950 . S
C4567 C4568 1.378 . S
C4568 C4567 1.378 . S
C4568 C4569 1.409 . S
C4569 C4565 1.387 . S
C4569 C4568 1.409 . S
C4569 H4571 0.951 . S
C4570 C4565 1.491 . S
C4570 C4572 1.382 . S
C4570 C4574 1.404 . S
H4571 C4569 0.951 . S
C4572 C4570 1.382 . S
C4572 C4573 1.390 . S
C4572 H4577 0.949 . S
C4573 C4572 1.390 . S
C4573 C4578 1.399 . S
C4574 C4570 1.404 . S
C4574 H4575 0.950 . S
C4574 C4576 1.375 . S
H4575 C4574 0.950 . S
C4576 C4574 1.375 . S
C4576 C4578 1.382 . S
C4576 H4580 0.950 . S
H4577 C4572 0.949 . S
C4578 C4573 1.399 . S
C4578 C4576 1.382 . S
C4578 H4579 0.952 . S
H4579 C4578 0.952 . S
H4580 C4576 0.950 . S
H4581 C4582 0.949 . S
C4582 H4581 0.949 . S
C4582 C4583 1.395 . S
C4582 C4584 1.391 . S
C4583 C4582 1.395 . S
C4583 C4586 1.390 . S
C4584 C4582 1.391 . S
C4584 C4588 1.387 . S
C4584 C4589 1.491 . S
H4585 C4586 0.950 . S
C4586 C4583 1.390 . S
C4586 H4585 0.950 . S
C4586 C4587 1.378 . S
C4587 C4586 1.378 . S
C4587 C4588 1.409 . S
C4588 C4584 1.387 . S
C4588 C4587 1.409 . S
C4588 H4590 0.951 . S
C4589 C4584 1.491 . S
C4589 C4591 1.382 . S
C4589 C4593 1.404 . S
H4590 C4588 0.951 . S
C4591 C4589 1.382 . S
C4591 C4592 1.390 . S
C4591 H4596 0.949 . S
C4592 C4591 1.390 . S
C4592 C4597 1.357 1_556 S
C4593 C4589 1.404 . S
C4593 H4594 0.950 . S
C4593 C4595 1.375 . S
H4594 C4593 0.950 . S
C4595 C4593 1.375 . S
C4595 C4597 1.359 1_556 S
C4595 H4599 0.950 1_556 S
H4596 C4591 0.949 . S
C4597 C4592 1.357 1_554 S
C4597 C4595 1.359 1_554 S
C4597 H4598 1.020 . S
H4598 C4597 1.020 . S
H4599 C4595 0.950 1_554 S
H4600 C4601 0.949 . S
C4601 H4600 0.949 . S
C4601 C4602 1.395 . S
C4601 C4603 1.391 . S
C4602 C4601 1.395 . S
C4602 C4605 1.390 . S
C4603 C4601 1.391 . S
C4603 C4607 1.387 . S
C4603 C4608 1.491 . S
H4604 C4605 0.950 . S
C4605 C4602 1.390 . S
C4605 H4604 0.950 . S
C4605 C4606 1.378 . S
C4606 C4605 1.378 . S
C4606 C4607 1.409 . S
C4607 C4603 1.387 . S
C4607 C4606 1.409 . S
C4607 H4609 0.951 . S
C4608 C4603 1.491 . S
C4608 C4610 1.382 . S
C4608 C4612 1.404 . S
H4609 C4607 0.951 . S
C4610 C4608 1.382 . S
C4610 C4611 1.390 . S
C4610 H4615 0.949 . S
C4611 C4610 1.390 . S
C4611 C4616 1.399 . S
C4612 C4608 1.404 . S
C4612 H4613 0.950 . S
C4612 C4614 1.375 . S
H4613 C4612 0.950 . S
C4614 C4612 1.375 . S
C4614 C4616 1.382 . S
C4614 H4618 0.950 . S
H4615 C4610 0.949 . S
C4616 C4611 1.399 . S
C4616 C4614 1.382 . S
C4616 H4617 0.952 . S
H4617 C4616 0.952 . S
H4618 C4614 0.950 . S
H4619 C4620 0.949 . S
C4620 H4619 0.949 . S
C4620 C4621 1.395 . S
C4620 C4622 1.391 . S
C4621 C4620 1.395 . S
C4621 C4624 1.390 . S
C4622 C4620 1.391 . S
C4622 C4626 1.387 . S
C4622 C4627 1.491 . S
H4623 C4624 0.950 . S
C4624 C4621 1.390 . S
C4624 H4623 0.950 . S
C4624 C4625 1.378 . S
C4625 C4624 1.378 . S
C4625 C4626 1.409 . S
C4626 C4622 1.387 . S
C4626 C4625 1.409 . S
C4626 H4628 0.951 . S
C4627 C4622 1.491 . S
C4627 C4629 1.382 . S
C4627 C4631 1.404 . S
H4628 C4626 0.951 . S
C4629 C4627 1.382 . S
C4629 C4630 1.390 . S
C4629 H4634 0.949 . S
C4630 C4629 1.390 . S
C4630 C4635 1.399 . S
C4631 C4627 1.404 . S
C4631 H4632 0.950 . S
C4631 C4633 1.375 . S
H4632 C4631 0.950 . S
C4633 C4631 1.375 . S
C4633 C4635 1.382 . S
C4633 H4637 0.950 . S
H4634 C4629 0.949 . S
C4635 C4630 1.399 . S
C4635 C4633 1.382 . S
C4635 H4636 0.952 . S
H4636 C4635 0.952 . S
H4637 C4633 0.950 . S
H4638 C4639 0.949 . S
C4639 H4638 0.949 . S
C4639 C4640 1.395 . S
C4639 C4641 1.391 . S
C4640 C4639 1.395 . S
C4640 C4643 1.390 . S
C4641 C4639 1.391 . S
C4641 C4645 1.387 . S
C4641 C4646 1.491 . S
H4642 C4643 0.950 . S
C4643 C4640 1.390 . S
C4643 H4642 0.950 . S
C4643 C4644 1.378 . S
C4644 C4643 1.378 . S
C4644 C4645 1.409 . S
C4645 C4641 1.387 . S
C4645 C4644 1.409 . S
C4645 H4647 0.951 . S
C4646 C4641 1.491 . S
C4646 C4648 1.382 . S
C4646 C4650 1.404 . S
H4647 C4645 0.951 . S
C4648 C4646 1.382 . S
C4648 C4649 1.390 . S
C4648 H4653 0.949 . S
C4649 C4648 1.390 . S
C4649 C4654 1.399 . S
C4650 C4646 1.404 . S
C4650 H4651 0.950 . S
C4650 C4652 1.375 . S
H4651 C4650 0.950 . S
C4652 C4650 1.375 . S
C4652 C4654 1.382 . S
C4652 H4656 0.950 . S
H4653 C4648 0.949 . S
C4654 C4649 1.399 . S
C4654 C4652 1.382 . S
C4654 H4655 0.952 . S
H4655 C4654 0.952 . S
H4656 C4652 0.950 . S
H4657 C4658 0.949 . S
C4658 H4657 0.949 . S
C4658 C4659 1.395 . S
C4658 C4660 1.391 . S
C4659 C4658 1.395 . S
C4659 C4662 1.390 . S
C4660 C4658 1.391 . S
C4660 C4664 1.387 . S
C4660 C4665 1.491 . S
H4661 C4662 0.950 . S
C4662 C4659 1.390 . S
C4662 H4661 0.950 . S
C4662 C4663 1.378 . S
C4663 C4662 1.378 . S
C4663 C4664 1.409 . S
C4664 C4660 1.387 . S
C4664 C4663 1.409 . S
C4664 H4666 0.951 . S
C4665 C4660 1.491 . S
C4665 C4667 1.382 . S
C4665 C4669 1.404 . S
H4666 C4664 0.951 . S
C4667 C4665 1.382 . S
C4667 C4668 1.390 . S
C4667 H4672 0.949 . S
C4668 C4667 1.390 . S
C4668 C4673 1.399 . S
C4669 C4665 1.404 . S
C4669 H4670 0.950 . S
C4669 C4671 1.375 . S
H4670 C4669 0.950 . S
C4671 C4669 1.375 . S
C4671 C4673 1.382 . S
C4671 H4675 0.950 . S
H4672 C4667 0.949 . S
C4673 C4668 1.399 . S
C4673 C4671 1.382 . S
C4673 H4674 0.952 . S
H4674 C4673 0.952 . S
H4675 C4671 0.950 . S
H4676 C4677 0.949 . S
C4677 H4676 0.949 . S
C4677 C4678 1.395 . S
C4677 C4679 1.391 . S
C4678 C4677 1.395 . S
C4678 C4681 1.390 . S
C4679 C4677 1.391 . S
C4679 C4683 1.387 . S
C4679 C4684 1.491 . S
H4680 C4681 0.950 . S
C4681 C4678 1.390 . S
C4681 H4680 0.950 . S
C4681 C4682 1.378 . S
C4682 C4681 1.378 . S
C4682 C4683 1.409 . S
C4683 C4679 1.387 . S
C4683 C4682 1.409 . S
C4683 H4685 0.951 . S
C4684 C4679 1.491 . S
C4684 C4686 1.382 . S
C4684 C4688 1.404 . S
H4685 C4683 0.951 . S
C4686 C4684 1.382 . S
C4686 C4687 1.390 . S
C4686 H4691 0.949 . S
C4687 C4686 1.390 . S
C4687 C4692 1.357 1_565 S
C4688 C4684 1.404 . S
C4688 H4689 0.950 . S
C4688 C4690 1.375 . S
H4689 C4688 0.950 . S
C4690 C4688 1.375 . S
C4690 C4692 1.359 1_565 S
C4690 H4694 0.950 1_565 S
H4691 C4686 0.949 . S
C4692 C4687 1.357 1_545 S
C4692 C4690 1.359 1_545 S
C4692 H4693 1.020 . S
H4693 C4692 1.020 . S
H4694 C4690 0.950 1_545 S
H4695 C4696 0.949 . S
C4696 H4695 0.949 . S
C4696 C4697 1.395 . S
C4696 C4698 1.391 . S
C4697 C4696 1.395 . S
C4697 C4700 1.390 . S
C4698 C4696 1.391 . S
C4698 C4702 1.387 . S
C4698 C4703 1.491 . S
H4699 C4700 0.950 . S
C4700 C4697 1.390 . S
C4700 H4699 0.950 . S
C4700 C4701 1.378 . S
C4701 C4700 1.378 . S
C4701 C4702 1.409 . S
C4702 C4698 1.387 . S
C4702 C4701 1.409 . S
C4702 H4704 0.951 . S
C4703 C4698 1.491 . S
C4703 C4705 1.382 . S
C4703 C4707 1.404 . S
H4704 C4702 0.951 . S
C4705 C4703 1.382 . S
C4705 C4706 1.390 . S
C4705 H4710 0.949 . S
C4706 C4705 1.390 . S
C4706 C4711 1.399 . S
C4707 C4703 1.404 . S
C4707 H4708 0.950 . S
C4707 C4709 1.375 . S
H4708 C4707 0.950 . S
C4709 C4707 1.375 . S
C4709 C4711 1.382 . S
C4709 H4713 0.950 . S
H4710 C4705 0.949 . S
C4711 C4706 1.399 . S
C4711 C4709 1.382 . S
C4711 H4712 0.952 . S
H4712 C4711 0.952 . S
H4713 C4709 0.950 . S
H4714 C4715 0.949 . S
C4715 H4714 0.949 . S
C4715 C4716 1.395 . S
C4715 C4717 1.391 . S
C4716 C4715 1.395 . S
C4716 C4719 1.390 . S
C4717 C4715 1.391 . S
C4717 C4721 1.387 . S
C4717 C4722 1.491 . S
H4718 C4719 0.950 . S
C4719 C4716 1.390 . S
C4719 H4718 0.950 . S
C4719 C4720 1.378 . S
C4720 C4719 1.378 . S
C4720 C4721 1.409 . S
C4721 C4717 1.387 . S
C4721 C4720 1.409 . S
C4721 H4723 0.951 . S
C4722 C4717 1.491 . S
C4722 C4724 1.382 . S
C4722 C4726 1.404 . S
H4723 C4721 0.951 . S
C4724 C4722 1.382 . S
C4724 C4725 1.390 . S
C4724 H4729 0.949 . S
C4725 C4724 1.390 . S
C4725 C4730 1.399 . S
C4726 C4722 1.404 . S
C4726 H4727 0.950 . S
C4726 C4728 1.375 . S
H4727 C4726 0.950 . S
C4728 C4726 1.375 . S
C4728 C4730 1.382 . S
C4728 H4732 0.950 . S
H4729 C4724 0.949 . S
C4730 C4725 1.399 . S
C4730 C4728 1.382 . S
C4730 H4731 0.952 . S
H4731 C4730 0.952 . S
H4732 C4728 0.950 . S
H4733 C4734 0.949 . S
C4734 H4733 0.949 . S
C4734 C4735 1.395 . S
C4734 C4736 1.391 . S
C4735 C4734 1.395 . S
C4735 C4738 1.390 . S
C4736 C4734 1.391 . S
C4736 C4740 1.387 . S
C4736 C4741 1.491 . S
H4737 C4738 0.950 . S
C4738 C4735 1.390 . S
C4738 H4737 0.950 . S
C4738 C4739 1.378 . S
C4739 C4738 1.378 . S
C4739 C4740 1.409 . S
C4740 C4736 1.387 . S
C4740 C4739 1.409 . S
C4740 H4742 0.951 . S
C4741 C4736 1.491 . S
C4741 C4743 1.382 . S
C4741 C4745 1.404 . S
H4742 C4740 0.951 . S
C4743 C4741 1.382 . S
C4743 C4744 1.390 . S
C4743 H4748 0.949 . S
C4744 C4743 1.390 . S
C4744 C4749 1.399 . S
C4745 C4741 1.404 . S
C4745 H4746 0.950 . S
C4745 C4747 1.375 . S
H4746 C4745 0.950 . S
C4747 C4745 1.375 . S
C4747 C4749 1.382 . S
C4747 H4751 0.950 . S
H4748 C4743 0.949 . S
C4749 C4744 1.399 . S
C4749 C4747 1.382 . S
C4749 H4750 0.952 . S
H4750 C4749 0.952 . S
H4751 C4747 0.950 . S
H4752 C4753 0.949 . S
C4753 H4752 0.949 . S
C4753 C4754 1.395 . S
C4753 C4755 1.391 . S
C4754 C4753 1.395 . S
C4754 C4757 1.390 . S
C4755 C4753 1.391 . S
C4755 C4759 1.387 . S
C4755 C4760 1.491 . S
H4756 C4757 0.950 . S
C4757 C4754 1.390 . S
C4757 H4756 0.950 . S
C4757 C4758 1.378 . S
C4758 C4757 1.378 . S
C4758 C4759 1.409 . S
C4759 C4755 1.387 . S
C4759 C4758 1.409 . S
C4759 H4761 0.951 . S
C4760 C4755 1.491 . S
C4760 C4762 1.382 . S
C4760 C4764 1.404 . S
H4761 C4759 0.951 . S
C4762 C4760 1.382 . S
C4762 C4763 1.390 . S
C4762 H4767 0.949 . S
C4763 C4762 1.390 . S
C4763 C4768 1.399 . S
C4764 C4760 1.404 . S
C4764 H4765 0.950 . S
C4764 C4766 1.375 . S
H4765 C4764 0.950 . S
C4766 C4764 1.375 . S
C4766 C4768 1.382 . S
C4766 H4770 0.950 . S
H4767 C4762 0.949 . S
C4768 C4763 1.399 . S
C4768 C4766 1.382 . S
C4768 H4769 0.952 . S
H4769 C4768 0.952 . S
H4770 C4766 0.950 . S
H4771 C4772 0.949 . S
C4772 H4771 0.949 . S
C4772 C4773 1.395 . S
C4772 C4774 1.391 . S
C4773 C4772 1.395 . S
C4773 C4776 1.390 . S
C4774 C4772 1.391 . S
C4774 C4778 1.387 . S
C4774 C4779 1.491 . S
H4775 C4776 0.950 . S
C4776 C4773 1.390 . S
C4776 H4775 0.950 . S
C4776 C4777 1.378 . S
C4777 C4776 1.378 . S
C4777 C4778 1.409 . S
C4778 C4774 1.387 . S
C4778 C4777 1.409 . S
C4778 H4780 0.951 . S
C4779 C4774 1.491 . S
C4779 C4781 1.382 . S
C4779 C4783 1.404 . S
H4780 C4778 0.951 . S
C4781 C4779 1.382 . S
C4781 C4782 1.390 . S
C4781 H4786 0.949 . S
C4782 C4781 1.390 . S
C4782 C4787 1.399 . S
C4783 C4779 1.404 . S
C4783 H4784 0.950 . S
C4783 C4785 1.375 . S
H4784 C4783 0.950 . S
C4785 C4783 1.375 . S
C4785 C4787 1.382 . S
C4785 H4789 0.950 . S
H4786 C4781 0.949 . S
C4787 C4782 1.399 . S
C4787 C4785 1.382 . S
C4787 H4788 0.952 . S
H4788 C4787 0.952 . S
H4789 C4785 0.950 . S
H4790 C4791 0.949 . S
C4791 H4790 0.949 . S
C4791 C4792 1.395 . S
C4791 C4793 1.391 . S
C4792 C4791 1.395 . S
C4792 C4795 1.390 . S
C4793 C4791 1.391 . S
C4793 C4797 1.387 . S
C4793 C4798 1.491 . S
H4794 C4795 0.950 . S
C4795 C4792 1.390 . S
C4795 H4794 0.950 . S
C4795 C4796 1.378 . S
C4796 C4795 1.378 . S
C4796 C4797 1.409 . S
C4797 C4793 1.387 . S
C4797 C4796 1.409 . S
C4797 H4799 0.951 . S
C4798 C4793 1.491 . S
C4798 C4800 1.382 . S
C4798 C4802 1.404 . S
H4799 C4797 0.951 . S
C4800 C4798 1.382 . S
C4800 C4801 1.390 . S
C4800 H4805 0.949 . S
C4801 C4800 1.390 . S
C4801 C4806 1.399 . S
C4802 C4798 1.404 . S
C4802 H4803 0.950 . S
C4802 C4804 1.375 . S
H4803 C4802 0.950 . S
C4804 C4802 1.375 . S
C4804 C4806 1.382 . S
C4804 H4808 0.950 . S
H4805 C4800 0.949 . S
C4806 C4801 1.399 . S
C4806 C4804 1.382 . S
C4806 H4807 0.952 . S
H4807 C4806 0.952 . S
H4808 C4804 0.950 . S
H4809 C4810 0.949 . S
C4810 H4809 0.949 . S
C4810 C4811 1.395 . S
C4810 C4812 1.391 . S
C4811 C4810 1.395 . S
C4811 C4814 1.390 . S
C4812 C4810 1.391 . S
C4812 C4816 1.387 . S
C4812 C4817 1.491 . S
H4813 C4814 0.950 . S
C4814 C4811 1.390 . S
C4814 H4813 0.950 . S
C4814 C4815 1.378 . S
C4815 C4814 1.378 . S
C4815 C4816 1.409 . S
C4816 C4812 1.387 . S
C4816 C4815 1.409 . S
C4816 H4818 0.951 . S
C4817 C4812 1.491 . S
C4817 C4819 1.382 . S
C4817 C4821 1.404 . S
H4818 C4816 0.951 . S
C4819 C4817 1.382 . S
C4819 C4820 1.390 . S
C4819 H4824 0.949 . S
C4820 C4819 1.390 . S
C4820 C4825 1.399 . S
C4821 C4817 1.404 . S
C4821 H4822 0.950 . S
C4821 C4823 1.375 . S
H4822 C4821 0.950 . S
C4823 C4821 1.375 . S
C4823 C4825 1.382 . S
C4823 H4827 0.950 . S
H4824 C4819 0.949 . S
C4825 C4820 1.399 . S
C4825 C4823 1.382 . S
C4825 H4826 0.952 . S
H4826 C4825 0.952 . S
H4827 C4823 0.950 . S
H4828 C4829 0.949 . S
C4829 H4828 0.949 . S
C4829 C4830 1.395 . S
C4829 C4831 1.391 . S
C4830 C4829 1.395 . S
C4830 C4833 1.390 . S
C4831 C4829 1.391 . S
C4831 C4835 1.387 . S
C4831 C4836 1.491 . S
H4832 C4833 0.950 . S
C4833 C4830 1.390 . S
C4833 H4832 0.950 . S
C4833 C4834 1.378 . S
C4834 C4833 1.378 . S
C4834 C4835 1.409 . S
C4835 C4831 1.387 . S
C4835 C4834 1.409 . S
C4835 H4837 0.951 . S
C4836 C4831 1.491 . S
C4836 C4838 1.382 . S
C4836 C4840 1.404 . S
H4837 C4835 0.951 . S
C4838 C4836 1.382 . S
C4838 C4839 1.390 . S
C4838 H4843 0.949 . S
C4839 C4838 1.390 . S
C4839 C4844 1.399 . S
C4840 C4836 1.404 . S
C4840 H4841 0.950 . S
C4840 C4842 1.375 . S
H4841 C4840 0.950 . S
C4842 C4840 1.375 . S
C4842 C4844 1.382 . S
C4842 H4846 0.950 . S
H4843 C4838 0.949 . S
C4844 C4839 1.399 . S
C4844 C4842 1.382 . S
C4844 H4845 0.952 . S
H4845 C4844 0.952 . S
H4846 C4842 0.950 . S
H4847 C4848 0.949 . S
C4848 H4847 0.949 . S
C4848 C4849 1.395 . S
C4848 C4850 1.391 . S
C4849 C4848 1.395 . S
C4849 C4852 1.390 . S
C4850 C4848 1.391 . S
C4850 C4854 1.387 . S
C4850 C4855 1.491 . S
H4851 C4852 0.950 . S
C4852 C4849 1.390 . S
C4852 H4851 0.950 . S
C4852 C4853 1.378 . S
C4853 C4852 1.378 . S
C4853 C4854 1.409 . S
C4854 C4850 1.387 . S
C4854 C4853 1.409 . S
C4854 H4856 0.951 . S
C4855 C4850 1.491 . S
C4855 C4857 1.382 . S
C4855 C4859 1.404 . S
H4856 C4854 0.951 . S
C4857 C4855 1.382 . S
C4857 C4858 1.390 . S
C4857 H4862 0.949 . S
C4858 C4857 1.390 . S
C4858 C4863 1.399 . S
C4859 C4855 1.404 . S
C4859 H4860 0.950 . S
C4859 C4861 1.375 . S
H4860 C4859 0.950 . S
C4861 C4859 1.375 . S
C4861 C4863 1.382 . S
C4861 H4865 0.950 . S
H4862 C4857 0.949 . S
C4863 C4858 1.399 . S
C4863 C4861 1.382 . S
C4863 H4864 0.952 . S
H4864 C4863 0.952 . S
H4865 C4861 0.950 . S
H4866 C4867 0.949 . S
C4867 H4866 0.949 . S
C4867 C4868 1.395 . S
C4867 C4869 1.391 . S
C4868 C4867 1.395 . S
C4868 C4871 1.390 . S
C4869 C4867 1.391 . S
C4869 C4873 1.387 . S
C4869 C4874 1.491 . S
H4870 C4871 0.950 . S
C4871 C4868 1.390 . S
C4871 H4870 0.950 . S
C4871 C4872 1.378 . S
C4872 C4871 1.378 . S
C4872 C4873 1.409 . S
C4873 C4869 1.387 . S
C4873 C4872 1.409 . S
C4873 H4875 0.951 . S
C4874 C4869 1.491 . S
C4874 C4876 1.382 . S
C4874 C4878 1.404 . S
H4875 C4873 0.951 . S
C4876 C4874 1.382 . S
C4876 C4877 1.390 . S
C4876 H4881 0.949 . S
C4877 C4876 1.390 . S
C4877 C4882 1.399 . S
C4878 C4874 1.404 . S
C4878 H4879 0.950 . S
C4878 C4880 1.375 . S
H4879 C4878 0.950 . S
C4880 C4878 1.375 . S
C4880 C4882 1.382 . S
C4880 H4884 0.950 . S
H4881 C4876 0.949 . S
C4882 C4877 1.399 . S
C4882 C4880 1.382 . S
C4882 H4883 0.952 . S
H4883 C4882 0.952 . S
H4884 C4880 0.950 . S
H4885 C4886 0.949 . S
C4886 H4885 0.949 . S
C4886 C4887 1.395 . S
C4886 C4888 1.391 . S
C4887 C4886 1.395 . S
C4887 C4890 1.390 . S
C4888 C4886 1.391 . S
C4888 C4892 1.387 . S
C4888 C4893 1.491 . S
H4889 C4890 0.950 . S
C4890 C4887 1.390 . S
C4890 H4889 0.950 . S
C4890 C4891 1.378 . S
C4891 C4890 1.378 . S
C4891 C4892 1.409 . S
C4892 C4888 1.387 . S
C4892 C4891 1.409 . S
C4892 H4894 0.951 . S
C4893 C4888 1.491 . S
C4893 C4895 1.382 . S
C4893 C4897 1.404 . S
H4894 C4892 0.951 . S
C4895 C4893 1.382 . S
C4895 C4896 1.390 . S
C4895 H4900 0.949 . S
C4896 C4895 1.390 . S
C4896 C4901 1.399 . S
C4897 C4893 1.404 . S
C4897 H4898 0.950 . S
C4897 C4899 1.375 . S
H4898 C4897 0.950 . S
C4899 C4897 1.375 . S
C4899 C4901 1.382 . S
C4899 H4903 0.950 . S
H4900 C4895 0.949 . S
C4901 C4896 1.399 . S
C4901 C4899 1.382 . S
C4901 H4902 0.952 . S
H4902 C4901 0.952 . S
H4903 C4899 0.950 . S
H4904 C4905 0.949 . S
C4905 H4904 0.949 . S
C4905 C4906 1.395 . S
C4905 C4907 1.391 . S
C4906 C4905 1.395 . S
C4906 C4909 1.390 . S
C4907 C4905 1.391 . S
C4907 C4911 1.387 . S
C4907 C4912 1.491 . S
H4908 C4909 0.950 . S
C4909 C4906 1.390 . S
C4909 H4908 0.950 . S
C4909 C4910 1.378 . S
C4910 C4909 1.378 . S
C4910 C4911 1.409 . S
C4911 C4907 1.387 . S
C4911 C4910 1.409 . S
C4911 H4913 0.951 . S
C4912 C4907 1.491 . S
C4912 C4914 1.382 . S
C4912 C4916 1.404 . S
H4913 C4911 0.951 . S
C4914 C4912 1.382 . S
C4914 C4915 1.390 . S
C4914 H4919 0.949 . S
C4915 C4914 1.390 . S
C4915 C4920 1.399 . S
C4916 C4912 1.404 . S
C4916 H4917 0.950 . S
C4916 C4918 1.375 . S
H4917 C4916 0.950 . S
C4918 C4916 1.375 . S
C4918 C4920 1.382 . S
C4918 H4922 0.950 . S
H4919 C4914 0.949 . S
C4920 C4915 1.399 . S
C4920 C4918 1.382 . S
C4920 H4921 0.952 . S
H4921 C4920 0.952 . S
H4922 C4918 0.950 . S
H4923 C4924 0.949 . S
C4924 H4923 0.949 . S
C4924 C4925 1.395 . S
C4924 C4926 1.391 . S
C4925 C4924 1.395 . S
C4925 C4928 1.390 . S
C4926 C4924 1.391 . S
C4926 C4930 1.387 . S
C4926 C4931 1.491 . S
H4927 C4928 0.950 . S
C4928 C4925 1.390 . S
C4928 H4927 0.950 . S
C4928 C4929 1.378 . S
C4929 C4928 1.378 . S
C4929 C4930 1.409 . S
C4930 C4926 1.387 . S
C4930 C4929 1.409 . S
C4930 H4932 0.951 . S
C4931 C4926 1.491 . S
C4931 C4933 1.382 . S
C4931 C4935 1.404 . S
H4932 C4930 0.951 . S
C4933 C4931 1.382 . S
C4933 C4934 1.390 . S
C4933 H4938 0.949 . S
C4934 C4933 1.390 . S
C4934 C4939 1.399 . S
C4935 C4931 1.404 . S
C4935 H4936 0.950 . S
C4935 C4937 1.375 . S
H4936 C4935 0.950 . S
C4937 C4935 1.375 . S
C4937 C4939 1.382 . S
C4937 H4941 0.950 . S
H4938 C4933 0.949 . S
C4939 C4934 1.399 . S
C4939 C4937 1.382 . S
C4939 H4940 0.952 . S
H4940 C4939 0.952 . S
H4941 C4937 0.950 . S
H4942 C4943 0.949 . S
C4943 H4942 0.949 . S
C4943 C4944 1.395 . S
C4943 C4945 1.391 . S
C4944 C4943 1.395 . S
C4944 C4947 1.390 . S
C4945 C4943 1.391 . S
C4945 C4949 1.387 . S
C4945 C4950 1.491 . S
H4946 C4947 0.950 . S
C4947 C4944 1.390 . S
C4947 H4946 0.950 . S
C4947 C4948 1.378 . S
C4948 C4947 1.378 . S
C4948 C4949 1.409 . S
C4949 C4945 1.387 . S
C4949 C4948 1.409 . S
C4949 H4951 0.951 . S
C4950 C4945 1.491 . S
C4950 C4952 1.382 . S
C4950 C4954 1.404 . S
H4951 C4949 0.951 . S
C4952 C4950 1.382 . S
C4952 C4953 1.390 . S
C4952 H4957 0.949 . S
C4953 C4952 1.390 . S
C4953 C4958 1.399 . S
C4954 C4950 1.404 . S
C4954 H4955 0.950 . S
C4954 C4956 1.375 . S
H4955 C4954 0.950 . S
C4956 C4954 1.375 . S
C4956 C4958 1.382 . S
C4956 H4960 0.950 . S
H4957 C4952 0.949 . S
C4958 C4953 1.399 . S
C4958 C4956 1.382 . S
C4958 H4959 0.952 . S
H4959 C4958 0.952 . S
H4960 C4956 0.950 . S
H4961 C4962 0.949 . S
C4962 H4961 0.949 . S
C4962 C4963 1.395 . S
C4962 C4964 1.391 . S
C4963 C4962 1.395 . S
C4963 C4966 1.390 . S
C4964 C4962 1.391 . S
C4964 C4968 1.387 . S
C4964 C4969 1.491 . S
H4965 C4966 0.950 . S
C4966 C4963 1.390 . S
C4966 H4965 0.950 . S
C4966 C4967 1.378 . S
C4967 C4966 1.378 . S
C4967 C4968 1.409 . S
C4968 C4964 1.387 . S
C4968 C4967 1.409 . S
C4968 H4970 0.951 . S
C4969 C4964 1.491 . S
C4969 C4971 1.382 . S
C4969 C4973 1.404 . S
H4970 C4968 0.951 . S
C4971 C4969 1.382 . S
C4971 C4972 1.390 . S
C4971 H4976 0.949 . S
C4972 C4971 1.390 . S
C4972 C4977 1.399 . S
C4973 C4969 1.404 . S
C4973 H4974 0.950 . S
C4973 C4975 1.375 . S
H4974 C4973 0.950 . S
C4975 C4973 1.375 . S
C4975 C4977 1.382 . S
C4975 H4979 0.950 . S
H4976 C4971 0.949 . S
C4977 C4972 1.399 . S
C4977 C4975 1.382 . S
C4977 H4978 0.952 . S
H4978 C4977 0.952 . S
H4979 C4975 0.950 . S
H4980 C4981 0.949 . S
C4981 H4980 0.949 . S
C4981 C4982 1.395 . S
C4981 C4983 1.391 . S
C4982 C4981 1.395 . S
C4982 C4985 1.390 . S
C4983 C4981 1.391 . S
C4983 C4987 1.387 . S
C4983 C4988 1.491 . S
H4984 C4985 0.950 . S
C4985 C4982 1.390 . S
C4985 H4984 0.950 . S
C4985 C4986 1.378 . S
C4986 C4985 1.378 . S
C4986 C4987 1.409 . S
C4987 C4983 1.387 . S
C4987 C4986 1.409 . S
C4987 H4989 0.951 . S
C4988 C4983 1.491 . S
C4988 C4990 1.382 . S
C4988 C4992 1.404 . S
H4989 C4987 0.951 . S
C4990 C4988 1.382 . S
C4990 C4991 1.390 . S
C4990 H4995 0.949 . S
C4991 C4990 1.390 . S
C4991 C4996 1.399 . S
C4992 C4988 1.404 . S
C4992 H4993 0.950 . S
C4992 C4994 1.375 . S
H4993 C4992 0.950 . S
C4994 C4992 1.375 . S
C4994 C4996 1.382 . S
C4994 H4998 0.950 . S
H4995 C4990 0.949 . S
C4996 C4991 1.399 . S
C4996 C4994 1.382 . S
C4996 H4997 0.952 . S
H4997 C4996 0.952 . S
H4998 C4994 0.950 . S
H4999 C5000 0.949 . S
C5000 H4999 0.949 . S
C5000 C5001 1.395 . S
C5000 C5002 1.391 . S
C5001 C5000 1.395 . S
C5001 C5004 1.390 . S
C5002 C5000 1.391 . S
C5002 C5006 1.387 . S
C5002 C5007 1.491 . S
H5003 C5004 0.950 . S
C5004 C5001 1.390 . S
C5004 H5003 0.950 . S
C5004 C5005 1.378 . S
C5005 C5004 1.378 . S
C5005 C5006 1.409 . S
C5006 C5002 1.387 . S
C5006 C5005 1.409 . S
C5006 H5008 0.951 . S
C5007 C5002 1.491 . S
C5007 C5009 1.382 . S
C5007 C5011 1.404 . S
H5008 C5006 0.951 . S
C5009 C5007 1.382 . S
C5009 C5010 1.390 . S
C5009 H5014 0.949 . S
C5010 C5009 1.390 . S
C5010 C5015 1.399 . S
C5011 C5007 1.404 . S
C5011 H5012 0.950 . S
C5011 C5013 1.375 . S
H5012 C5011 0.950 . S
C5013 C5011 1.375 . S
C5013 C5015 1.382 . S
C5013 H5017 0.950 . S
H5014 C5009 0.949 . S
C5015 C5010 1.399 . S
C5015 C5013 1.382 . S
C5015 H5016 0.952 . S
H5016 C5015 0.952 . S
H5017 C5013 0.950 . S
H5018 C5019 0.949 . S
C5019 H5018 0.949 . S
C5019 C5020 1.395 . S
C5019 C5021 1.391 . S
C5020 C5019 1.395 . S
C5020 C5023 1.390 . S
C5021 C5019 1.391 . S
C5021 C5025 1.387 . S
C5021 C5026 1.491 . S
H5022 C5023 0.950 . S
C5023 C5020 1.390 . S
C5023 H5022 0.950 . S
C5023 C5024 1.378 . S
C5024 C5023 1.378 . S
C5024 C5025 1.409 . S
C5025 C5021 1.387 . S
C5025 C5024 1.409 . S
C5025 H5027 0.951 . S
C5026 C5021 1.491 . S
C5026 C5028 1.382 . S
C5026 C5030 1.404 . S
H5027 C5025 0.951 . S
C5028 C5026 1.382 . S
C5028 C5029 1.390 . S
C5028 H5033 0.949 . S
C5029 C5028 1.390 . S
C5029 C5034 1.399 . S
C5030 C5026 1.404 . S
C5030 H5031 0.950 . S
C5030 C5032 1.375 . S
H5031 C5030 0.950 . S
C5032 C5030 1.375 . S
C5032 C5034 1.382 . S
C5032 H5036 0.950 . S
H5033 C5028 0.949 . S
C5034 C5029 1.399 . S
C5034 C5032 1.382 . S
C5034 H5035 0.952 . S
H5035 C5034 0.952 . S
H5036 C5032 0.950 . S
H5037 C5038 0.949 . S
C5038 H5037 0.949 . S
C5038 C5039 1.395 . S
C5038 C5040 1.391 . S
C5039 C5038 1.395 . S
C5039 C5042 1.390 . S
C5040 C5038 1.391 . S
C5040 C5044 1.387 . S
C5040 C5045 1.491 . S
H5041 C5042 0.950 . S
C5042 C5039 1.390 . S
C5042 H5041 0.950 . S
C5042 C5043 1.378 . S
C5043 C5042 1.378 . S
C5043 C5044 1.409 . S
C5044 C5040 1.387 . S
C5044 C5043 1.409 . S
C5044 H5046 0.951 . S
C5045 C5040 1.491 . S
C5045 C5047 1.382 . S
C5045 C5049 1.404 . S
H5046 C5044 0.951 . S
C5047 C5045 1.382 . S
C5047 C5048 1.390 . S
C5047 H5052 0.949 . S
C5048 C5047 1.390 . S
C5048 C5053 1.399 . S
C5049 C5045 1.404 . S
C5049 H5050 0.950 . S
C5049 C5051 1.375 . S
H5050 C5049 0.950 . S
C5051 C5049 1.375 . S
C5051 C5053 1.382 . S
C5051 H5055 0.950 . S
H5052 C5047 0.949 . S
C5053 C5048 1.399 . S
C5053 C5051 1.382 . S
C5053 H5054 0.952 . S
H5054 C5053 0.952 . S
H5055 C5051 0.950 . S
H5056 C5057 0.949 . S
C5057 H5056 0.949 . S
C5057 C5058 1.395 . S
C5057 C5059 1.391 . S
C5058 C5057 1.395 . S
C5058 C5061 1.390 . S
C5059 C5057 1.391 . S
C5059 C5063 1.387 . S
C5059 C5064 1.491 . S
H5060 C5061 0.950 . S
C5061 C5058 1.390 . S
C5061 H5060 0.950 . S
C5061 C5062 1.378 . S
C5062 C5061 1.378 . S
C5062 C5063 1.409 . S
C5063 C5059 1.387 . S
C5063 C5062 1.409 . S
C5063 H5065 0.951 . S
C5064 C5059 1.491 . S
C5064 C5066 1.382 . S
C5064 C5068 1.404 . S
H5065 C5063 0.951 . S
C5066 C5064 1.382 . S
C5066 C5067 1.390 . S
C5066 H5071 0.949 . S
C5067 C5066 1.390 . S
C5067 C5072 1.399 . S
C5068 C5064 1.404 . S
C5068 H5069 0.950 . S
C5068 C5070 1.375 . S
H5069 C5068 0.950 . S
C5070 C5068 1.375 . S
C5070 C5072 1.382 . S
C5070 H5074 0.950 . S
H5071 C5066 0.949 . S
C5072 C5067 1.399 . S
C5072 C5070 1.382 . S
C5072 H5073 0.952 . S
H5073 C5072 0.952 . S
H5074 C5070 0.950 . S
H5075 C5076 0.949 . S
C5076 H5075 0.949 . S
C5076 C5077 1.395 . S
C5076 C5078 1.391 . S
C5077 C5076 1.395 . S
C5077 C5080 1.390 . S
C5078 C5076 1.391 . S
C5078 C5082 1.387 . S
C5078 C5083 1.491 . S
H5079 C5080 0.950 . S
C5080 C5077 1.390 . S
C5080 H5079 0.950 . S
C5080 C5081 1.378 . S
C5081 C5080 1.378 . S
C5081 C5082 1.409 . S
C5082 C5078 1.387 . S
C5082 C5081 1.409 . S
C5082 H5084 0.951 . S
C5083 C5078 1.491 . S
C5083 C5085 1.382 . S
C5083 C5087 1.404 . S
H5084 C5082 0.951 . S
C5085 C5083 1.382 . S
C5085 C5086 1.390 . S
C5085 H5090 0.949 . S
C5086 C5085 1.390 . S
C5086 C5091 1.399 . S
C5087 C5083 1.404 . S
C5087 H5088 0.950 . S
C5087 C5089 1.375 . S
H5088 C5087 0.950 . S
C5089 C5087 1.375 . S
C5089 C5091 1.382 . S
C5089 H5093 0.950 . S
H5090 C5085 0.949 . S
C5091 C5086 1.399 . S
C5091 C5089 1.382 . S
C5091 H5092 0.952 . S
H5092 C5091 0.952 . S
H5093 C5089 0.950 . S
H5094 C5095 0.949 . S
C5095 H5094 0.949 . S
C5095 C5096 1.395 . S
C5095 C5097 1.391 . S
C5096 C5095 1.395 . S
C5096 C5099 1.390 . S
C5097 C5095 1.391 . S
C5097 C5101 1.387 . S
C5097 C5102 1.491 . S
H5098 C5099 0.950 . S
C5099 C5096 1.390 . S
C5099 H5098 0.950 . S
C5099 C5100 1.378 . S
C5100 C5099 1.378 . S
C5100 C5101 1.409 . S
C5101 C5097 1.387 . S
C5101 C5100 1.409 . S
C5101 H5103 0.951 . S
C5102 C5097 1.491 . S
C5102 C5104 1.382 . S
C5102 C5106 1.404 . S
H5103 C5101 0.951 . S
C5104 C5102 1.382 . S
C5104 C5105 1.390 . S
C5104 H5109 0.949 . S
C5105 C5104 1.390 . S
C5105 C5110 1.399 . S
C5106 C5102 1.404 . S
C5106 H5107 0.950 . S
C5106 C5108 1.375 . S
H5107 C5106 0.950 . S
C5108 C5106 1.375 . S
C5108 C5110 1.382 . S
C5108 H5112 0.950 . S
H5109 C5104 0.949 . S
C5110 C5105 1.399 . S
C5110 C5108 1.382 . S
C5110 H5111 0.952 . S
H5111 C5110 0.952 . S
H5112 C5108 0.950 . S
H5113 C5114 0.949 . S
C5114 H5113 0.949 . S
C5114 C5115 1.395 . S
C5114 C5116 1.391 . S
C5115 C5114 1.395 . S
C5115 C5118 1.390 . S
C5116 C5114 1.391 . S
C5116 C5120 1.387 . S
C5116 C5121 1.491 . S
H5117 C5118 0.950 . S
C5118 C5115 1.390 . S
C5118 H5117 0.950 . S
C5118 C5119 1.378 . S
C5119 C5118 1.378 . S
C5119 C5120 1.409 . S
C5120 C5116 1.387 . S
C5120 C5119 1.409 . S
C5120 H5122 0.951 . S
C5121 C5116 1.491 . S
C5121 C5123 1.382 . S
C5121 C5125 1.404 . S
H5122 C5120 0.951 . S
C5123 C5121 1.382 . S
C5123 C5124 1.390 . S
C5123 H5128 0.949 . S
C5124 C5123 1.390 . S
C5124 C5129 1.399 . S
C5125 C5121 1.404 . S
C5125 H5126 0.950 . S
C5125 C5127 1.375 . S
H5126 C5125 0.950 . S
C5127 C5125 1.375 . S
C5127 C5129 1.382 . S
C5127 H5131 0.950 . S
H5128 C5123 0.949 . S
C5129 C5124 1.399 . S
C5129 C5127 1.382 . S
C5129 H5130 0.952 . S
H5130 C5129 0.952 . S
H5131 C5127 0.950 . S
H5132 C5133 0.949 . S
C5133 H5132 0.949 . S
C5133 C5134 1.395 . S
C5133 C5135 1.391 . S
C5134 C5133 1.395 . S
C5134 C5137 1.390 . S
C5135 C5133 1.391 . S
C5135 C5139 1.387 . S
C5135 C5140 1.491 . S
H5136 C5137 0.950 . S
C5137 C5134 1.390 . S
C5137 H5136 0.950 . S
C5137 C5138 1.378 . S
C5138 C5137 1.378 . S
C5138 C5139 1.409 . S
C5139 C5135 1.387 . S
C5139 C5138 1.409 . S
C5139 H5141 0.951 . S
C5140 C5135 1.491 . S
C5140 C5142 1.382 . S
C5140 C5144 1.404 . S
H5141 C5139 0.951 . S
C5142 C5140 1.382 . S
C5142 C5143 1.390 . S
C5142 H5147 0.949 . S
C5143 C5142 1.390 . S
C5143 C5148 1.399 . S
C5144 C5140 1.404 . S
C5144 H5145 0.950 . S
C5144 C5146 1.375 . S
H5145 C5144 0.950 . S
C5146 C5144 1.375 . S
C5146 C5148 1.382 . S
C5146 H5150 0.950 . S
H5147 C5142 0.949 . S
C5148 C5143 1.399 . S
C5148 C5146 1.382 . S
C5148 H5149 0.952 . S
H5149 C5148 0.952 . S
H5150 C5146 0.950 . S
H5151 C5152 0.949 . S
C5152 H5151 0.949 . S
C5152 C5153 1.395 . S
C5152 C5154 1.391 . S
C5153 C5152 1.395 . S
C5153 C5156 1.390 . S
C5154 C5152 1.391 . S
C5154 C5158 1.387 . S
C5154 C5159 1.491 . S
H5155 C5156 0.950 . S
C5156 C5153 1.390 . S
C5156 H5155 0.950 . S
C5156 C5157 1.378 . S
C5157 C5156 1.378 . S
C5157 C5158 1.409 . S
C5158 C5154 1.387 . S
C5158 C5157 1.409 . S
C5158 H5160 0.951 . S
C5159 C5154 1.491 . S
C5159 C5161 1.382 . S
C5159 C5163 1.404 . S
H5160 C5158 0.951 . S
C5161 C5159 1.382 . S
C5161 C5162 1.390 . S
C5161 H5166 0.949 . S
C5162 C5161 1.390 . S
C5162 C5167 1.399 . S
C5163 C5159 1.404 . S
C5163 H5164 0.950 . S
C5163 C5165 1.375 . S
H5164 C5163 0.950 . S
C5165 C5163 1.375 . S
C5165 C5167 1.382 . S
C5165 H5169 0.950 . S
H5166 C5161 0.949 . S
C5167 C5162 1.399 . S
C5167 C5165 1.382 . S
C5167 H5168 0.952 . S
H5168 C5167 0.952 . S
H5169 C5165 0.950 . S
H5170 C5171 0.949 . S
C5171 H5170 0.949 . S
C5171 C5172 1.395 . S
C5171 C5173 1.391 . S
C5172 C5171 1.395 . S
C5172 C5175 1.390 . S
C5173 C5171 1.391 . S
C5173 C5177 1.387 . S
C5173 C5178 1.491 . S
H5174 C5175 0.950 . S
C5175 C5172 1.390 . S
C5175 H5174 0.950 . S
C5175 C5176 1.378 . S
C5176 C5175 1.378 . S
C5176 C5177 1.409 . S
C5177 C5173 1.387 . S
C5177 C5176 1.409 . S
C5177 H5179 0.951 . S
C5178 C5173 1.491 . S
C5178 C5180 1.382 . S
C5178 C5182 1.404 . S
H5179 C5177 0.951 . S
C5180 C5178 1.382 . S
C5180 C5181 1.390 . S
C5180 H5185 0.949 . S
C5181 C5180 1.390 . S
C5181 C5186 1.399 . S
C5182 C5178 1.404 . S
C5182 H5183 0.950 . S
C5182 C5184 1.375 . S
H5183 C5182 0.950 . S
C5184 C5182 1.375 . S
C5184 C5186 1.382 . S
C5184 H5188 0.950 . S
H5185 C5180 0.949 . S
C5186 C5181 1.399 . S
C5186 C5184 1.382 . S
C5186 H5187 0.952 . S
H5187 C5186 0.952 . S
H5188 C5184 0.950 . S
H5189 C5190 0.949 . S
C5190 H5189 0.949 . S
C5190 C5191 1.395 . S
C5190 C5192 1.391 . S
C5191 C5190 1.395 . S
C5191 C5194 1.390 . S
C5192 C5190 1.391 . S
C5192 C5196 1.387 . S
C5192 C5197 1.491 . S
H5193 C5194 0.950 . S
C5194 C5191 1.390 . S
C5194 H5193 0.950 . S
C5194 C5195 1.378 . S
C5195 C5194 1.378 . S
C5195 C5196 1.409 . S
C5196 C5192 1.387 . S
C5196 C5195 1.409 . S
C5196 H5198 0.951 . S
C5197 C5192 1.491 . S
C5197 C5199 1.382 . S
C5197 C5201 1.404 . S
H5198 C5196 0.951 . S
C5199 C5197 1.382 . S
C5199 C5200 1.390 . S
C5199 H5204 0.949 . S
C5200 C5199 1.390 . S
C5200 C5205 1.399 . S
C5201 C5197 1.404 . S
C5201 H5202 0.950 . S
C5201 C5203 1.375 . S
H5202 C5201 0.950 . S
C5203 C5201 1.375 . S
C5203 C5205 1.382 . S
C5203 H5207 0.950 . S
H5204 C5199 0.949 . S
C5205 C5200 1.399 . S
C5205 C5203 1.382 . S
C5205 H5206 0.952 . S
H5206 C5205 0.952 . S
H5207 C5203 0.950 . S
H5208 C5209 0.949 . S
C5209 H5208 0.949 . S
C5209 C5210 1.395 . S
C5209 C5211 1.391 . S
C5210 C5209 1.395 . S
C5210 C5213 1.390 . S
C5211 C5209 1.391 . S
C5211 C5215 1.387 . S
C5211 C5216 1.491 . S
H5212 C5213 0.950 . S
C5213 C5210 1.390 . S
C5213 H5212 0.950 . S
C5213 C5214 1.378 . S
C5214 C5213 1.378 . S
C5214 C5215 1.409 . S
C5215 C5211 1.387 . S
C5215 C5214 1.409 . S
C5215 H5217 0.951 . S
C5216 C5211 1.491 . S
C5216 C5218 1.382 . S
C5216 C5220 1.404 . S
H5217 C5215 0.951 . S
C5218 C5216 1.382 . S
C5218 C5219 1.390 . S
C5218 H5223 0.949 . S
C5219 C5218 1.390 . S
C5219 C5224 1.399 . S
C5220 C5216 1.404 . S
C5220 H5221 0.950 . S
C5220 C5222 1.375 . S
H5221 C5220 0.950 . S
C5222 C5220 1.375 . S
C5222 C5224 1.382 . S
C5222 H5226 0.950 . S
H5223 C5218 0.949 . S
C5224 C5219 1.399 . S
C5224 C5222 1.382 . S
C5224 H5225 0.952 . S
H5225 C5224 0.952 . S
H5226 C5222 0.950 . S
H5227 C5228 0.949 . S
C5228 H5227 0.949 . S
C5228 C5229 1.395 . S
C5228 C5230 1.391 . S
C5229 C5228 1.395 . S
C5229 C5232 1.390 . S
C5230 C5228 1.391 . S
C5230 C5234 1.387 . S
C5230 C5235 1.491 . S
H5231 C5232 0.950 . S
C5232 C5229 1.390 . S
C5232 H5231 0.950 . S
C5232 C5233 1.378 . S
C5233 C5232 1.378 . S
C5233 C5234 1.409 . S
C5234 C5230 1.387 . S
C5234 C5233 1.409 . S
C5234 H5236 0.951 . S
C5235 C5230 1.491 . S
C5235 C5237 1.382 . S
C5235 C5239 1.404 . S
H5236 C5234 0.951 . S
C5237 C5235 1.382 . S
C5237 C5238 1.390 . S
C5237 H5242 0.949 . S
C5238 C5237 1.390 . S
C5238 C5243 1.399 . S
C5239 C5235 1.404 . S
C5239 H5240 0.950 . S
C5239 C5241 1.375 . S
H5240 C5239 0.950 . S
C5241 C5239 1.375 . S
C5241 C5243 1.382 . S
C5241 H5245 0.950 . S
H5242 C5237 0.949 . S
C5243 C5238 1.399 . S
C5243 C5241 1.382 . S
C5243 H5244 0.952 . S
H5244 C5243 0.952 . S
H5245 C5241 0.950 . S
H5246 C5247 0.949 . S
C5247 H5246 0.949 . S
C5247 C5248 1.395 . S
C5247 C5249 1.391 . S
C5248 C5247 1.395 . S
C5248 C5251 1.390 . S
C5249 C5247 1.391 . S
C5249 C5253 1.387 . S
C5249 C5254 1.491 . S
H5250 C5251 0.950 . S
C5251 C5248 1.390 . S
C5251 H5250 0.950 . S
C5251 C5252 1.378 . S
C5252 C5251 1.378 . S
C5252 C5253 1.409 . S
C5253 C5249 1.387 . S
C5253 C5252 1.409 . S
C5253 H5255 0.951 . S
C5254 C5249 1.491 . S
C5254 C5256 1.382 . S
C5254 C5258 1.404 . S
H5255 C5253 0.951 . S
C5256 C5254 1.382 . S
C5256 C5257 1.390 . S
C5256 H5261 0.949 . S
C5257 C5256 1.390 . S
C5257 C5262 1.399 . S
C5258 C5254 1.404 . S
C5258 H5259 0.950 . S
C5258 C5260 1.375 . S
H5259 C5258 0.950 . S
C5260 C5258 1.375 . S
C5260 C5262 1.382 . S
C5260 H5264 0.950 . S
H5261 C5256 0.949 . S
C5262 C5257 1.399 . S
C5262 C5260 1.382 . S
C5262 H5263 0.952 . S
H5263 C5262 0.952 . S
H5264 C5260 0.950 . S
H5265 C5266 0.949 . S
C5266 H5265 0.949 . S
C5266 C5267 1.395 . S
C5266 C5268 1.391 . S
C5267 C5266 1.395 . S
C5267 C5270 1.390 . S
C5268 C5266 1.391 . S
C5268 C5272 1.387 . S
C5268 C5273 1.491 . S
H5269 C5270 0.950 . S
C5270 C5267 1.390 . S
C5270 H5269 0.950 . S
C5270 C5271 1.378 . S
C5271 C5270 1.378 . S
C5271 C5272 1.409 . S
C5272 C5268 1.387 . S
C5272 C5271 1.409 . S
C5272 H5274 0.951 . S
C5273 C5268 1.491 . S
C5273 C5275 1.382 . S
C5273 C5277 1.404 . S
H5274 C5272 0.951 . S
C5275 C5273 1.382 . S
C5275 C5276 1.390 . S
C5275 H5280 0.949 . S
C5276 C5275 1.390 . S
C5276 C5281 1.356 1_455 S
C5277 C5273 1.404 . S
C5277 H5278 0.950 . S
C5277 C5279 1.375 . S
H5278 C5277 0.950 . S
C5279 C5277 1.375 . S
C5279 C5281 1.358 1_455 S
C5279 H5283 0.950 1_455 S
H5280 C5275 0.949 . S
C5281 C5276 1.356 1_655 S
C5281 C5279 1.358 1_655 S
C5281 H5282 1.021 . S
H5282 C5281 1.021 . S
H5283 C5279 0.950 1_655 S
H5284 C5285 0.949 . S
C5285 H5284 0.949 . S
C5285 C5286 1.395 . S
C5285 C5287 1.391 . S
C5286 C5285 1.395 . S
C5286 C5289 1.390 . S
C5287 C5285 1.391 . S
C5287 C5291 1.387 . S
C5287 C5292 1.491 . S
H5288 C5289 0.950 . S
C5289 C5286 1.390 . S
C5289 H5288 0.950 . S
C5289 C5290 1.378 . S
C5290 C5289 1.378 . S
C5290 C5291 1.409 . S
C5291 C5287 1.387 . S
C5291 C5290 1.409 . S
C5291 H5293 0.951 . S
C5292 C5287 1.491 . S
C5292 C5294 1.382 . S
C5292 C5296 1.404 . S
H5293 C5291 0.951 . S
C5294 C5292 1.382 . S
C5294 C5295 1.390 . S
C5294 H5299 0.949 . S
C5295 C5294 1.390 . S
C5295 C5300 1.399 . S
C5296 C5292 1.404 . S
C5296 H5297 0.950 . S
C5296 C5298 1.375 . S
H5297 C5296 0.950 . S
C5298 C5296 1.375 . S
C5298 C5300 1.382 . S
C5298 H5302 0.950 . S
H5299 C5294 0.949 . S
C5300 C5295 1.399 . S
C5300 C5298 1.382 . S
C5300 H5301 0.952 . S
H5301 C5300 0.952 . S
H5302 C5298 0.950 . S
H5303 C5304 0.949 . S
C5304 H5303 0.949 . S
C5304 C5305 1.395 . S
C5304 C5306 1.391 . S
C5305 C5304 1.395 . S
C5305 C5308 1.390 . S
C5306 C5304 1.391 . S
C5306 C5310 1.387 . S
C5306 C5311 1.491 . S
H5307 C5308 0.950 . S
C5308 C5305 1.390 . S
C5308 H5307 0.950 . S
C5308 C5309 1.378 . S
C5309 C5308 1.378 . S
C5309 C5310 1.409 . S
C5310 C5306 1.387 . S
C5310 C5309 1.409 . S
C5310 H5312 0.951 . S
C5311 C5306 1.491 . S
C5311 C5313 1.382 . S
C5311 C5315 1.404 . S
H5312 C5310 0.951 . S
C5313 C5311 1.382 . S
C5313 C5314 1.390 . S
C5313 H5318 0.949 . S
C5314 C5313 1.390 . S
C5314 C5319 1.356 1_455 S
C5315 C5311 1.404 . S
C5315 H5316 0.950 . S
C5315 C5317 1.375 . S
H5316 C5315 0.950 . S
C5317 C5315 1.375 . S
C5317 C5319 1.358 1_455 S
C5317 H5321 0.950 1_455 S
H5318 C5313 0.949 . S
C5319 C5314 1.356 1_655 S
C5319 C5317 1.358 1_655 S
C5319 H5320 1.021 . S
H5320 C5319 1.021 . S
H5321 C5317 0.950 1_655 S
H5322 C5323 0.949 . S
C5323 H5322 0.949 . S
C5323 C5324 1.395 . S
C5323 C5325 1.391 . S
C5324 C5323 1.395 . S
C5324 C5327 1.390 . S
C5325 C5323 1.391 . S
C5325 C5329 1.387 . S
C5325 C5330 1.491 . S
H5326 C5327 0.950 . S
C5327 C5324 1.390 . S
C5327 H5326 0.950 . S
C5327 C5328 1.378 . S
C5328 C5327 1.378 . S
C5328 C5329 1.409 . S
C5329 C5325 1.387 . S
C5329 C5328 1.409 . S
C5329 H5331 0.951 . S
C5330 C5325 1.491 . S
C5330 C5332 1.382 . S
C5330 C5334 1.404 . S
H5331 C5329 0.951 . S
C5332 C5330 1.382 . S
C5332 C5333 1.390 . S
C5332 H5337 0.949 . S
C5333 C5332 1.390 . S
C5333 C5338 1.399 . S
C5334 C5330 1.404 . S
C5334 H5335 0.950 . S
C5334 C5336 1.375 . S
H5335 C5334 0.950 . S
C5336 C5334 1.375 . S
C5336 C5338 1.382 . S
C5336 H5340 0.950 . S
H5337 C5332 0.949 . S
C5338 C5333 1.399 . S
C5338 C5336 1.382 . S
C5338 H5339 0.952 . S
H5339 C5338 0.952 . S
H5340 C5336 0.950 . S
H5341 C5342 0.949 . S
C5342 H5341 0.949 . S
C5342 C5343 1.395 . S
C5342 C5344 1.391 . S
C5343 C5342 1.395 . S
C5343 C5346 1.390 . S
C5344 C5342 1.391 . S
C5344 C5348 1.387 . S
C5344 C5349 1.491 . S
H5345 C5346 0.950 . S
C5346 C5343 1.390 . S
C5346 H5345 0.950 . S
C5346 C5347 1.378 . S
C5347 C5346 1.378 . S
C5347 C5348 1.409 . S
C5348 C5344 1.387 . S
C5348 C5347 1.409 . S
C5348 H5350 0.951 . S
C5349 C5344 1.491 . S
C5349 C5351 1.382 . S
C5349 C5353 1.404 . S
H5350 C5348 0.951 . S
C5351 C5349 1.382 . S
C5351 C5352 1.390 . S
C5351 H5356 0.949 . S
C5352 C5351 1.390 . S
C5352 C5357 1.399 . S
C5353 C5349 1.404 . S
C5353 H5354 0.950 . S
C5353 C5355 1.375 . S
H5354 C5353 0.950 . S
C5355 C5353 1.375 . S
C5355 C5357 1.382 . S
C5355 H5359 0.950 . S
H5356 C5351 0.949 . S
C5357 C5352 1.399 . S
C5357 C5355 1.382 . S
C5357 H5358 0.952 . S
H5358 C5357 0.952 . S
H5359 C5355 0.950 . S
H5360 C5361 0.949 . S
C5361 H5360 0.949 . S
C5361 C5362 1.395 . S
C5361 C5363 1.391 . S
C5362 C5361 1.395 . S
C5362 C5365 1.390 . S
C5363 C5361 1.391 . S
C5363 C5367 1.387 . S
C5363 C5368 1.491 . S
H5364 C5365 0.950 . S
C5365 C5362 1.390 . S
C5365 H5364 0.950 . S
C5365 C5366 1.378 . S
C5366 C5365 1.378 . S
C5366 C5367 1.409 . S
C5367 C5363 1.387 . S
C5367 C5366 1.409 . S
C5367 H5369 0.951 . S
C5368 C5363 1.491 . S
C5368 C5370 1.382 . S
C5368 C5372 1.404 . S
H5369 C5367 0.951 . S
C5370 C5368 1.382 . S
C5370 C5371 1.390 . S
C5370 H5375 0.949 . S
C5371 C5370 1.390 . S
C5371 C5376 1.399 . S
C5372 C5368 1.404 . S
C5372 H5373 0.950 . S
C5372 C5374 1.375 . S
H5373 C5372 0.950 . S
C5374 C5372 1.375 . S
C5374 C5376 1.382 . S
C5374 H5378 0.950 . S
H5375 C5370 0.949 . S
C5376 C5371 1.399 . S
C5376 C5374 1.382 . S
C5376 H5377 0.952 . S
H5377 C5376 0.952 . S
H5378 C5374 0.950 . S
H5379 C5380 0.949 . S
C5380 H5379 0.949 . S
C5380 C5381 1.395 . S
C5380 C5382 1.391 . S
C5381 C5380 1.395 . S
C5381 C5384 1.390 . S
C5382 C5380 1.391 . S
C5382 C5386 1.387 . S
C5382 C5387 1.491 . S
H5383 C5384 0.950 . S
C5384 C5381 1.390 . S
C5384 H5383 0.950 . S
C5384 C5385 1.378 . S
C5385 C5384 1.378 . S
C5385 C5386 1.409 . S
C5386 C5382 1.387 . S
C5386 C5385 1.409 . S
C5386 H5388 0.951 . S
C5387 C5382 1.491 . S
C5387 C5389 1.382 . S
C5387 C5391 1.404 . S
H5388 C5386 0.951 . S
C5389 C5387 1.382 . S
C5389 C5390 1.390 . S
C5389 H5394 0.949 . S
C5390 C5389 1.390 . S
C5390 C5395 1.356 1_554 S
C5391 C5387 1.404 . S
C5391 H5392 0.950 . S
C5391 C5393 1.375 . S
H5392 C5391 0.950 . S
C5393 C5391 1.375 . S
C5393 C5395 1.358 1_554 S
C5393 H5397 0.950 1_554 S
H5394 C5389 0.949 . S
C5395 C5390 1.356 1_556 S
C5395 C5393 1.358 1_556 S
C5395 H5396 1.021 . S
H5396 C5395 1.021 . S
H5397 C5393 0.950 1_556 S
H5398 C5399 0.949 . S
C5399 H5398 0.949 . S
C5399 C5400 1.395 . S
C5399 C5401 1.391 . S
C5400 C5399 1.395 . S
C5400 C5403 1.390 . S
C5401 C5399 1.391 . S
C5401 C5405 1.387 . S
C5401 C5406 1.491 . S
H5402 C5403 0.950 . S
C5403 C5400 1.390 . S
C5403 H5402 0.950 . S
C5403 C5404 1.378 . S
C5404 C5403 1.378 . S
C5404 C5405 1.409 . S
C5405 C5401 1.387 . S
C5405 C5404 1.409 . S
C5405 H5407 0.951 . S
C5406 C5401 1.491 . S
C5406 C5408 1.382 . S
C5406 C5410 1.404 . S
H5407 C5405 0.951 . S
C5408 C5406 1.382 . S
C5408 C5409 1.390 . S
C5408 H5413 0.949 . S
C5409 C5408 1.390 . S
C5409 C5414 1.399 . S
C5410 C5406 1.404 . S
C5410 H5411 0.950 . S
C5410 C5412 1.375 . S
H5411 C5410 0.950 . S
C5412 C5410 1.375 . S
C5412 C5414 1.382 . S
C5412 H5416 0.950 . S
H5413 C5408 0.949 . S
C5414 C5409 1.399 . S
C5414 C5412 1.382 . S
C5414 H5415 0.952 . S
H5415 C5414 0.952 . S
H5416 C5412 0.950 . S
H5417 C5418 0.949 . S
C5418 H5417 0.949 . S
C5418 C5419 1.395 . S
C5418 C5420 1.391 . S
C5419 C5418 1.395 . S
C5419 C5422 1.390 . S
C5420 C5418 1.391 . S
C5420 C5424 1.387 . S
C5420 C5425 1.491 . S
H5421 C5422 0.950 . S
C5422 C5419 1.390 . S
C5422 H5421 0.950 . S
C5422 C5423 1.378 . S
C5423 C5422 1.378 . S
C5423 C5424 1.409 . S
C5424 C5420 1.387 . S
C5424 C5423 1.409 . S
C5424 H5426 0.951 . S
C5425 C5420 1.491 . S
C5425 C5427 1.382 . S
C5425 C5429 1.404 . S
H5426 C5424 0.951 . S
C5427 C5425 1.382 . S
C5427 C5428 1.390 . S
C5427 H5432 0.949 . S
C5428 C5427 1.390 . S
C5428 C5433 1.399 . S
C5429 C5425 1.404 . S
C5429 H5430 0.950 . S
C5429 C5431 1.375 . S
H5430 C5429 0.950 . S
C5431 C5429 1.375 . S
C5431 C5433 1.382 . S
C5431 H5435 0.950 . S
H5432 C5427 0.949 . S
C5433 C5428 1.399 . S
C5433 C5431 1.382 . S
C5433 H5434 0.952 . S
H5434 C5433 0.952 . S
H5435 C5431 0.950 . S
H5436 C5437 0.949 . S
C5437 H5436 0.949 . S
C5437 C5438 1.395 . S
C5437 C5439 1.391 . S
C5438 C5437 1.395 . S
C5438 C5441 1.390 . S
C5439 C5437 1.391 . S
C5439 C5443 1.387 . S
C5439 C5444 1.491 . S
H5440 C5441 0.950 . S
C5441 C5438 1.390 . S
C5441 H5440 0.950 . S
C5441 C5442 1.378 . S
C5442 C5441 1.378 . S
C5442 C5443 1.409 . S
C5443 C5439 1.387 . S
C5443 C5442 1.409 . S
C5443 H5445 0.951 . S
C5444 C5439 1.491 . S
C5444 C5446 1.382 . S
C5444 C5448 1.404 . S
H5445 C5443 0.951 . S
C5446 C5444 1.382 . S
C5446 C5447 1.390 . S
C5446 H5451 0.949 . S
C5447 C5446 1.390 . S
C5447 C5452 1.399 . S
C5448 C5444 1.404 . S
C5448 H5449 0.950 . S
C5448 C5450 1.375 . S
H5449 C5448 0.950 . S
C5450 C5448 1.375 . S
C5450 C5452 1.382 . S
C5450 H5454 0.950 . S
H5451 C5446 0.949 . S
C5452 C5447 1.399 . S
C5452 C5450 1.382 . S
C5452 H5453 0.952 . S
H5453 C5452 0.952 . S
H5454 C5450 0.950 . S
H5455 C5456 0.949 . S
C5456 H5455 0.949 . S
C5456 C5457 1.395 . S
C5456 C5458 1.391 . S
C5457 C5456 1.395 . S
C5457 C5460 1.390 . S
C5458 C5456 1.391 . S
C5458 C5462 1.387 . S
C5458 C5463 1.491 . S
H5459 C5460 0.950 . S
C5460 C5457 1.390 . S
C5460 H5459 0.950 . S
C5460 C5461 1.378 . S
C5461 C5460 1.378 . S
C5461 C5462 1.409 . S
C5462 C5458 1.387 . S
C5462 C5461 1.409 . S
C5462 H5464 0.951 . S
C5463 C5458 1.491 . S
C5463 C5465 1.382 . S
C5463 C5467 1.404 . S
H5464 C5462 0.951 . S
C5465 C5463 1.382 . S
C5465 C5466 1.390 . S
C5465 H5470 0.949 . S
C5466 C5465 1.390 . S
C5466 C5471 1.357 1_556 S
C5467 C5463 1.404 . S
C5467 H5468 0.950 . S
C5467 C5469 1.375 . S
H5468 C5467 0.950 . S
C5469 C5467 1.375 . S
C5469 C5471 1.359 1_556 S
C5469 H5473 0.950 1_556 S
H5470 C5465 0.949 . S
C5471 C5466 1.357 1_554 S
C5471 C5469 1.359 1_554 S
C5471 H5472 1.019 . S
H5472 C5471 1.019 . S
H5473 C5469 0.950 1_554 S
H5474 C5475 0.949 . S
C5475 H5474 0.949 . S
C5475 C5476 1.395 . S
C5475 C5477 1.391 . S
C5476 C5475 1.395 . S
C5476 C5479 1.390 . S
C5477 C5475 1.391 . S
C5477 C5481 1.387 . S
C5477 C5482 1.491 . S
H5478 C5479 0.950 . S
C5479 C5476 1.390 . S
C5479 H5478 0.950 . S
C5479 C5480 1.378 . S
C5480 C5479 1.378 . S
C5480 C5481 1.409 . S
C5481 C5477 1.387 . S
C5481 C5480 1.409 . S
C5481 H5483 0.951 . S
C5482 C5477 1.491 . S
C5482 C5484 1.382 . S
C5482 C5486 1.404 . S
H5483 C5481 0.951 . S
C5484 C5482 1.382 . S
C5484 C5485 1.390 . S
C5484 H5489 0.949 . S
C5485 C5484 1.390 . S
C5485 C5490 1.399 . S
C5486 C5482 1.404 . S
C5486 H5487 0.950 . S
C5486 C5488 1.375 . S
H5487 C5486 0.950 . S
C5488 C5486 1.375 . S
C5488 C5490 1.382 . S
C5488 H5492 0.950 . S
H5489 C5484 0.949 . S
C5490 C5485 1.399 . S
C5490 C5488 1.382 . S
C5490 H5491 0.952 . S
H5491 C5490 0.952 . S
H5492 C5488 0.950 . S
H5493 C5494 0.949 . S
C5494 H5493 0.949 . S
C5494 C5495 1.395 . S
C5494 C5496 1.391 . S
C5495 C5494 1.395 . S
C5495 C5498 1.390 . S
C5496 C5494 1.391 . S
C5496 C5500 1.387 . S
C5496 C5501 1.491 . S
H5497 C5498 0.950 . S
C5498 C5495 1.390 . S
C5498 H5497 0.950 . S
C5498 C5499 1.378 . S
C5499 C5498 1.378 . S
C5499 C5500 1.409 . S
C5500 C5496 1.387 . S
C5500 C5499 1.409 . S
C5500 H5502 0.951 . S
C5501 C5496 1.491 . S
C5501 C5503 1.382 . S
C5501 C5505 1.404 . S
H5502 C5500 0.951 . S
C5503 C5501 1.382 . S
C5503 C5504 1.390 . S
C5503 H5508 0.949 . S
C5504 C5503 1.390 . S
C5504 C5509 1.399 . S
C5505 C5501 1.404 . S
C5505 H5506 0.950 . S
C5505 C5507 1.375 . S
H5506 C5505 0.950 . S
C5507 C5505 1.375 . S
C5507 C5509 1.382 . S
C5507 H5511 0.950 . S
H5508 C5503 0.949 . S
C5509 C5504 1.399 . S
C5509 C5507 1.382 . S
C5509 H5510 0.952 . S
H5510 C5509 0.952 . S
H5511 C5507 0.950 . S
H5512 C5513 0.949 . S
C5513 H5512 0.949 . S
C5513 C5514 1.395 . S
C5513 C5515 1.391 . S
C5514 C5513 1.395 . S
C5514 C5517 1.390 . S
C5515 C5513 1.391 . S
C5515 C5519 1.387 . S
C5515 C5520 1.491 . S
H5516 C5517 0.950 . S
C5517 C5514 1.390 . S
C5517 H5516 0.950 . S
C5517 C5518 1.378 . S
C5518 C5517 1.378 . S
C5518 C5519 1.409 . S
C5519 C5515 1.387 . S
C5519 C5518 1.409 . S
C5519 H5521 0.951 . S
C5520 C5515 1.491 . S
C5520 C5522 1.382 . S
C5520 C5524 1.404 . S
H5521 C5519 0.951 . S
C5522 C5520 1.382 . S
C5522 C5523 1.390 . S
C5522 H5527 0.949 . S
C5523 C5522 1.390 . S
C5523 C5528 1.399 . S
C5524 C5520 1.404 . S
C5524 H5525 0.950 . S
C5524 C5526 1.375 . S
H5525 C5524 0.950 . S
C5526 C5524 1.375 . S
C5526 C5528 1.382 . S
C5526 H5530 0.950 . S
H5527 C5522 0.949 . S
C5528 C5523 1.399 . S
C5528 C5526 1.382 . S
C5528 H5529 0.952 . S
H5529 C5528 0.952 . S
H5530 C5526 0.950 . S
H5531 C5532 0.949 . S
C5532 H5531 0.949 . S
C5532 C5533 1.395 . S
C5532 C5534 1.391 . S
C5533 C5532 1.395 . S
C5533 C5536 1.390 . S
C5534 C5532 1.391 . S
C5534 C5538 1.387 . S
C5534 C5539 1.491 . S
H5535 C5536 0.950 . S
C5536 C5533 1.390 . S
C5536 H5535 0.950 . S
C5536 C5537 1.378 . S
C5537 C5536 1.378 . S
C5537 C5538 1.409 . S
C5538 C5534 1.387 . S
C5538 C5537 1.409 . S
C5538 H5540 0.951 . S
C5539 C5534 1.491 . S
C5539 C5541 1.382 . S
C5539 C5543 1.404 . S
H5540 C5538 0.951 . S
C5541 C5539 1.382 . S
C5541 C5542 1.390 . S
C5541 H5546 0.949 . S
C5542 C5541 1.390 . S
C5542 C5547 1.399 . S
C5543 C5539 1.404 . S
C5543 H5544 0.950 . S
C5543 C5545 1.375 . S
H5544 C5543 0.950 . S
C5545 C5543 1.375 . S
C5545 C5547 1.382 . S
C5545 H5549 0.950 . S
H5546 C5541 0.949 . S
C5547 C5542 1.399 . S
C5547 C5545 1.382 . S
C5547 H5548 0.952 . S
H5548 C5547 0.952 . S
H5549 C5545 0.950 . S
H5550 C5551 0.949 . S
C5551 H5550 0.949 . S
C5551 C5552 1.395 . S
C5551 C5553 1.391 . S
C5552 C5551 1.395 . S
C5552 C5555 1.390 . S
C5553 C5551 1.391 . S
C5553 C5557 1.387 . S
C5553 C5558 1.491 . S
H5554 C5555 0.950 . S
C5555 C5552 1.390 . S
C5555 H5554 0.950 . S
C5555 C5556 1.378 . S
C5556 C5555 1.378 . S
C5556 C5557 1.409 . S
C5557 C5553 1.387 . S
C5557 C5556 1.409 . S
C5557 H5559 0.951 . S
C5558 C5553 1.491 . S
C5558 C5560 1.382 . S
C5558 C5562 1.404 . S
H5559 C5557 0.951 . S
C5560 C5558 1.382 . S
C5560 C5561 1.390 . S
C5560 H5565 0.949 . S
C5561 C5560 1.390 . S
C5561 C5566 1.357 1_545 S
C5562 C5558 1.404 . S
C5562 H5563 0.950 . S
C5562 C5564 1.375 . S
H5563 C5562 0.950 . S
C5564 C5562 1.375 . S
C5564 C5566 1.358 1_545 S
C5564 H5568 0.950 1_545 S
H5565 C5560 0.949 . S
C5566 C5561 1.357 1_565 S
C5566 C5564 1.358 1_565 S
C5566 H5567 1.020 . S
H5567 C5566 1.020 . S
H5568 C5564 0.950 1_565 S
H5569 C5570 0.949 . S
C5570 H5569 0.949 . S
C5570 C5571 1.395 . S
C5570 C5572 1.391 . S
C5571 C5570 1.395 . S
C5571 C5574 1.390 . S
C5572 C5570 1.391 . S
C5572 C5576 1.387 . S
C5572 C5577 1.491 . S
H5573 C5574 0.950 . S
C5574 C5571 1.390 . S
C5574 H5573 0.950 . S
C5574 C5575 1.378 . S
C5575 C5574 1.378 . S
C5575 C5576 1.409 . S
C5576 C5572 1.387 . S
C5576 C5575 1.409 . S
C5576 H5578 0.951 . S
C5577 C5572 1.491 . S
C5577 C5579 1.382 . S
C5577 C5581 1.404 . S
H5578 C5576 0.951 . S
C5579 C5577 1.382 . S
C5579 C5580 1.390 . S
C5579 H5584 0.949 . S
C5580 C5579 1.390 . S
C5580 C5585 1.399 . S
C5581 C5577 1.404 . S
C5581 H5582 0.950 . S
C5581 C5583 1.375 . S
H5582 C5581 0.950 . S
C5583 C5581 1.375 . S
C5583 C5585 1.382 . S
C5583 H5587 0.950 . S
H5584 C5579 0.949 . S
C5585 C5580 1.399 . S
C5585 C5583 1.382 . S
C5585 H5586 0.952 . S
H5586 C5585 0.952 . S
H5587 C5583 0.950 . S
H5588 C5589 0.949 . S
C5589 H5588 0.949 . S
C5589 C5590 1.395 . S
C5589 C5591 1.391 . S
C5590 C5589 1.395 . S
C5590 C5593 1.390 . S
C5591 C5589 1.391 . S
C5591 C5595 1.387 . S
C5591 C5596 1.491 . S
H5592 C5593 0.950 . S
C5593 C5590 1.390 . S
C5593 H5592 0.950 . S
C5593 C5594 1.378 . S
C5594 C5593 1.378 . S
C5594 C5595 1.409 . S
C5595 C5591 1.387 . S
C5595 C5594 1.409 . S
C5595 H5597 0.951 . S
C5596 C5591 1.491 . S
C5596 C5598 1.382 . S
C5596 C5600 1.404 . S
H5597 C5595 0.951 . S
C5598 C5596 1.382 . S
C5598 C5599 1.390 . S
C5598 H5603 0.949 . S
C5599 C5598 1.390 . S
C5599 C5604 1.399 . S
C5600 C5596 1.404 . S
C5600 H5601 0.950 . S
C5600 C5602 1.375 . S
H5601 C5600 0.950 . S
C5602 C5600 1.375 . S
C5602 C5604 1.382 . S
C5602 H5606 0.950 . S
H5603 C5598 0.949 . S
C5604 C5599 1.399 . S
C5604 C5602 1.382 . S
C5604 H5605 0.952 . S
H5605 C5604 0.952 . S
H5606 C5602 0.950 . S
H5607 C5608 0.949 . S
C5608 H5607 0.949 . S
C5608 C5609 1.395 . S
C5608 C5610 1.391 . S
C5609 C5608 1.395 . S
C5609 C5612 1.390 . S
C5610 C5608 1.391 . S
C5610 C5614 1.387 . S
C5610 C5615 1.491 . S
H5611 C5612 0.950 . S
C5612 C5609 1.390 . S
C5612 H5611 0.950 . S
C5612 C5613 1.378 . S
C5613 C5612 1.378 . S
C5613 C5614 1.409 . S
C5614 C5610 1.387 . S
C5614 C5613 1.409 . S
C5614 H5616 0.951 . S
C5615 C5610 1.491 . S
C5615 C5617 1.382 . S
C5615 C5619 1.404 . S
H5616 C5614 0.951 . S
C5617 C5615 1.382 . S
C5617 C5618 1.390 . S
C5617 H5622 0.949 . S
C5618 C5617 1.390 . S
C5618 C5623 1.399 . S
C5619 C5615 1.404 . S
C5619 H5620 0.950 . S
C5619 C5621 1.375 . S
H5620 C5619 0.950 . S
C5621 C5619 1.375 . S
C5621 C5623 1.382 . S
C5621 H5625 0.950 . S
H5622 C5617 0.949 . S
C5623 C5618 1.399 . S
C5623 C5621 1.382 . S
C5623 H5624 0.952 . S
H5624 C5623 0.952 . S
H5625 C5621 0.950 . S
H5626 C5627 0.949 . S
C5627 H5626 0.949 . S
C5627 C5628 1.395 . S
C5627 C5629 1.391 . S
C5628 C5627 1.395 . S
C5628 C5631 1.390 . S
C5629 C5627 1.391 . S
C5629 C5633 1.387 . S
C5629 C5634 1.491 . S
H5630 C5631 0.950 . S
C5631 C5628 1.390 . S
C5631 H5630 0.950 . S
C5631 C5632 1.378 . S
C5632 C5631 1.378 . S
C5632 C5633 1.409 . S
C5633 C5629 1.387 . S
C5633 C5632 1.409 . S
C5633 H5635 0.951 . S
C5634 C5629 1.491 . S
C5634 C5636 1.382 . S
C5634 C5638 1.404 . S
H5635 C5633 0.951 . S
C5636 C5634 1.382 . S
C5636 C5637 1.390 . S
C5636 H5641 0.949 . S
C5637 C5636 1.390 . S
C5637 C5642 1.357 1_565 S
C5638 C5634 1.404 . S
C5638 H5639 0.950 . S
C5638 C5640 1.375 . S
H5639 C5638 0.950 . S
C5640 C5638 1.375 . S
C5640 C5642 1.359 1_565 S
C5640 H5644 0.950 1_565 S
H5641 C5636 0.949 . S
C5642 C5637 1.357 1_545 S
C5642 C5640 1.359 1_545 S
C5642 H5643 1.020 . S
H5643 C5642 1.020 . S
H5644 C5640 0.950 1_545 S
H5645 C5646 0.949 . S
C5646 H5645 0.949 . S
C5646 C5647 1.395 . S
C5646 C5648 1.391 . S
C5647 C5646 1.395 . S
C5647 C5650 1.390 . S
C5648 C5646 1.391 . S
C5648 C5652 1.387 . S
C5648 C5653 1.491 . S
H5649 C5650 0.950 . S
C5650 C5647 1.390 . S
C5650 H5649 0.950 . S
C5650 C5651 1.378 . S
C5651 C5650 1.378 . S
C5651 C5652 1.409 . S
C5652 C5648 1.387 . S
C5652 C5651 1.409 . S
C5652 H5654 0.951 . S
C5653 C5648 1.491 . S
C5653 C5655 1.382 . S
C5653 C5657 1.404 . S
H5654 C5652 0.951 . S
C5655 C5653 1.382 . S
C5655 C5656 1.390 . S
C5655 H5660 0.949 . S
C5656 C5655 1.390 . S
C5656 C5661 1.356 1_545 S
C5657 C5653 1.404 . S
C5657 H5658 0.950 . S
C5657 C5659 1.375 . S
H5658 C5657 0.950 . S
C5659 C5657 1.375 . S
C5659 C5661 1.358 1_545 S
C5659 H5663 0.950 1_545 S
H5660 C5655 0.949 . S
C5661 C5656 1.356 1_565 S
C5661 C5659 1.358 1_565 S
C5661 H5662 1.021 . S
H5662 C5661 1.021 . S
H5663 C5659 0.950 1_565 S
C5664 C5665 1.387 . S
C5664 H5668 0.950 . S
C5664 C5673 1.390 . S
C5665 C5664 1.387 . S
C5665 C5667 1.387 . S
H5666 C5673 0.950 . S
C5667 C5665 1.387 . S
C5667 C5669 1.390 . S
C5667 H5671 0.950 . S
H5668 C5664 0.950 . S
C5669 C5667 1.390 . S
C5669 C5670 1.387 . S
C5669 H5672 0.950 . S
C5670 C5669 1.387 . S
C5670 C5673 1.387 . S
H5671 C5667 0.950 . S
H5672 C5669 0.950 . S
C5673 C5664 1.390 . S
C5673 H5666 0.950 . S
C5673 C5670 1.387 . S
C5674 C5675 1.387 . S
C5674 H5678 0.950 . S
C5674 C5683 1.390 . S
C5675 C5674 1.387 . S
C5675 C5677 1.387 . S
H5676 C5683 0.950 . S
C5677 C5675 1.387 . S
C5677 C5679 1.390 . S
C5677 H5681 0.950 . S
H5678 C5674 0.950 . S
C5679 C5677 1.390 . S
C5679 C5680 1.387 . S
C5679 H5682 0.950 . S
C5680 C5679 1.387 . S
C5680 C5683 1.387 . S
H5681 C5677 0.950 . S
H5682 C5679 0.950 . S
C5683 C5674 1.390 . S
C5683 H5676 0.950 . S
C5683 C5680 1.387 . S
C5684 C5685 1.387 . S
C5684 H5688 0.950 . S
C5684 C5693 1.390 . S
C5685 C5684 1.387 . S
C5685 C5687 1.387 . S
H5686 C5693 0.950 . S
C5687 C5685 1.387 . S
C5687 C5689 1.390 . S
C5687 H5691 0.950 . S
H5688 C5684 0.950 . S
C5689 C5687 1.390 . S
C5689 C5690 1.387 . S
C5689 H5692 0.950 . S
C5690 C5689 1.387 . S
C5690 C5693 1.387 . S
H5691 C5687 0.950 . S
H5692 C5689 0.950 . S
C5693 C5684 1.390 . S
C5693 H5686 0.950 . S
C5693 C5690 1.387 . S
C5694 C5695 1.387 . S
C5694 H5698 0.950 . S
C5694 C5703 1.390 . S
C5695 C5694 1.387 . S
C5695 C5697 1.387 . S
H5696 C5703 0.950 . S
C5697 C5695 1.387 . S
C5697 C5699 1.390 . S
C5697 H5701 0.950 . S
H5698 C5694 0.950 . S
C5699 C5697 1.390 . S
C5699 C5700 1.387 . S
C5699 H5702 0.950 . S
C5700 C5699 1.387 . S
C5700 C5703 1.387 . S
H5701 C5697 0.950 . S
H5702 C5699 0.950 . S
C5703 C5694 1.390 . S
C5703 H5696 0.950 . S
C5703 C5700 1.387 . S
C5704 C5705 1.387 . S
C5704 H5708 0.950 . S
C5704 C5713 1.390 . S
C5705 C5704 1.387 . S
C5705 C5707 1.387 . S
H5706 C5713 0.950 . S
C5707 C5705 1.387 . S
C5707 C5709 1.390 . S
C5707 H5711 0.950 . S
H5708 C5704 0.950 . S
C5709 C5707 1.390 . S
C5709 C5710 1.387 . S
C5709 H5712 0.950 . S
C5710 C5709 1.387 . S
C5710 C5713 1.387 . S
H5711 C5707 0.950 . S
H5712 C5709 0.950 . S
C5713 C5704 1.390 . S
C5713 H5706 0.950 . S
C5713 C5710 1.387 . S
C5714 C5715 1.387 . S
C5714 H5718 0.950 . S
C5714 C5723 1.390 . S
C5715 C5714 1.387 . S
C5715 C5717 1.387 . S
H5716 C5723 0.950 . S
C5717 C5715 1.387 . S
C5717 C5719 1.390 . S
C5717 H5721 0.950 . S
H5718 C5714 0.950 . S
C5719 C5717 1.390 . S
C5719 C5720 1.387 . S
C5719 H5722 0.950 . S
C5720 C5719 1.387 . S
C5720 C5723 1.387 . S
H5721 C5717 0.950 . S
H5722 C5719 0.950 . S
C5723 C5714 1.390 . S
C5723 H5716 0.950 . S
C5723 C5720 1.387 . S
C5724 C5725 1.387 . S
C5724 H5728 0.950 . S
C5724 C5733 1.390 . S
C5725 C5724 1.387 . S
C5725 C5727 1.387 . S
H5726 C5733 0.950 . S
C5727 C5725 1.387 . S
C5727 C5729 1.390 . S
C5727 H5731 0.950 . S
H5728 C5724 0.950 . S
C5729 C5727 1.390 . S
C5729 C5730 1.387 . S
C5729 H5732 0.950 . S
C5730 C5729 1.387 . S
C5730 C5733 1.387 . S
H5731 C5727 0.950 . S
H5732 C5729 0.950 . S
C5733 C5724 1.390 . S
C5733 H5726 0.950 . S
C5733 C5730 1.387 . S
C5734 C5735 1.387 . S
C5734 H5738 0.950 . S
C5734 C5743 1.390 . S
C5735 C5734 1.387 . S
C5735 C5737 1.387 . S
H5736 C5743 0.950 . S
C5737 C5735 1.387 . S
C5737 C5739 1.390 . S
C5737 H5741 0.950 . S
H5738 C5734 0.950 . S
C5739 C5737 1.390 . S
C5739 C5740 1.387 . S
C5739 H5742 0.950 . S
C5740 C5739 1.387 . S
C5740 C5743 1.387 . S
H5741 C5737 0.950 . S
H5742 C5739 0.950 . S
C5743 C5734 1.390 . S
C5743 H5736 0.950 . S
C5743 C5740 1.387 . S
C5744 C5745 1.387 . S
C5744 H5748 0.950 . S
C5744 C5753 1.390 . S
C5745 C5744 1.387 . S
C5745 C5747 1.387 . S
H5746 C5753 0.937 1_565 S
C5747 C5745 1.387 . S
C5747 C5749 1.390 . S
C5747 H5751 0.950 . S
H5748 C5744 0.950 . S
C5749 C5747 1.390 . S
C5749 C5750 1.387 . S
C5749 H5752 0.950 . S
C5750 C5749 1.387 . S
C5750 C5753 1.387 . S
H5751 C5747 0.950 . S
H5752 C5749 0.950 . S
C5753 C5744 1.390 . S
C5753 H5746 0.937 1_545 S
C5753 C5750 1.387 . S
C5754 C5755 1.387 . S
C5754 H5758 0.950 . S
C5754 C5763 1.390 . S
C5755 C5754 1.387 . S
C5755 C5757 1.387 . S
H5756 C5763 0.950 . S
C5757 C5755 1.387 . S
C5757 C5759 1.390 . S
C5757 H5761 0.950 . S
H5758 C5754 0.950 . S
C5759 C5757 1.390 . S
C5759 C5760 1.387 . S
C5759 H5762 0.950 . S
C5760 C5759 1.387 . S
C5760 C5763 1.387 . S
H5761 C5757 0.950 . S
H5762 C5759 0.950 . S
C5763 C5754 1.390 . S
C5763 H5756 0.950 . S
C5763 C5760 1.387 . S
C5764 C5765 1.387 . S
C5764 H5768 0.950 . S
C5764 C5773 1.390 . S
C5765 C5764 1.387 . S
C5765 C5767 1.387 . S
H5766 C5773 0.940 1_545 S
C5767 C5765 1.387 . S
C5767 C5769 1.390 . S
C5767 H5771 0.950 . S
H5768 C5764 0.950 . S
C5769 C5767 1.390 . S
C5769 C5770 1.387 . S
C5769 H5772 0.950 . S
C5770 C5769 1.387 . S
C5770 C5773 1.387 . S
H5771 C5767 0.950 . S
H5772 C5769 0.950 . S
C5773 C5764 1.390 . S
C5773 H5766 0.940 1_565 S
C5773 C5770 1.387 . S
C5774 C5775 1.387 . S
C5774 H5778 0.950 . S
C5774 C5783 1.390 . S
C5775 C5774 1.387 . S
C5775 C5777 1.387 . S
H5776 C5783 0.950 . S
C5777 C5775 1.387 . S
C5777 C5779 1.390 . S
C5777 H5781 0.950 . S
H5778 C5774 0.950 . S
C5779 C5777 1.390 . S
C5779 C5780 1.387 . S
C5779 H5782 0.950 . S
C5780 C5779 1.387 . S
C5780 C5783 1.387 . S
H5781 C5777 0.950 . S
H5782 C5779 0.950 . S
C5783 C5774 1.390 . S
C5783 H5776 0.950 . S
C5783 C5780 1.387 . S
C5784 C5785 1.387 . S
C5784 H5788 0.950 . S
C5784 C5793 1.390 . S
C5785 C5784 1.387 . S
C5785 C5787 1.387 . S
H5786 C5793 0.950 1_545 S
C5787 C5785 1.387 . S
C5787 C5789 1.390 . S
C5787 H5791 0.950 . S
H5788 C5784 0.950 . S
C5789 C5787 1.390 . S
C5789 C5790 1.387 . S
C5789 H5792 0.950 . S
C5790 C5789 1.387 . S
C5790 C5793 1.387 . S
H5791 C5787 0.950 . S
H5792 C5789 0.950 . S
C5793 C5784 1.390 . S
C5793 H5786 0.950 1_565 S
C5793 C5790 1.387 . S
C5794 C5795 1.387 . S
C5794 H5798 0.950 . S
C5794 C5803 1.390 . S
C5795 C5794 1.387 . S
C5795 C5797 1.387 . S
H5796 C5803 0.950 . S
C5797 C5795 1.387 . S
C5797 C5799 1.390 . S
C5797 H5801 0.950 . S
H5798 C5794 0.950 . S
C5799 C5797 1.390 . S
C5799 C5800 1.387 . S
C5799 H5802 0.950 . S
C5800 C5799 1.387 . S
C5800 C5803 1.387 . S
H5801 C5797 0.950 . S
H5802 C5799 0.950 . S
C5803 C5794 1.390 . S
C5803 H5796 0.950 . S
C5803 C5800 1.387 . S
C5804 C5805 1.387 . S
C5804 H5808 0.950 . S
C5804 C5813 1.390 . S
C5805 C5804 1.387 . S
C5805 C5807 1.387 . S
H5806 C5813 0.950 . S
C5807 C5805 1.387 . S
C5807 C5809 1.390 . S
C5807 H5811 0.950 . S
H5808 C5804 0.950 . S
C5809 C5807 1.390 . S
C5809 C5810 1.387 . S
C5809 H5812 0.950 . S
C5810 C5809 1.387 . S
C5810 C5813 1.387 . S
H5811 C5807 0.950 . S
H5812 C5809 0.950 . S
C5813 C5804 1.390 . S
C5813 H5806 0.950 . S
C5813 C5810 1.387 . S
C5814 C5815 1.387 . S
C5814 H5818 0.950 . S
C5814 C5823 1.390 . S
C5815 C5814 1.387 . S
C5815 C5817 1.387 . S
H5816 C5823 0.950 . S
C5817 C5815 1.387 . S
C5817 C5819 1.390 . S
C5817 H5821 0.950 . S
H5818 C5814 0.950 . S
C5819 C5817 1.390 . S
C5819 C5820 1.387 . S
C5819 H5822 0.950 . S
C5820 C5819 1.387 . S
C5820 C5823 1.387 . S
H5821 C5817 0.950 . S
H5822 C5819 0.950 . S
C5823 C5814 1.390 . S
C5823 H5816 0.950 . S
C5823 C5820 1.387 . S
C5824 C5825 1.387 . S
C5824 H5828 0.950 . S
C5824 C5833 1.390 . S
C5825 C5824 1.387 . S
C5825 C5827 1.387 . S
H5826 C5833 0.950 . S
C5827 C5825 1.387 . S
C5827 C5829 1.390 . S
C5827 H5831 0.950 . S
H5828 C5824 0.950 . S
C5829 C5827 1.390 . S
C5829 C5830 1.387 . S
C5829 H5832 0.950 . S
C5830 C5829 1.387 . S
C5830 C5833 1.387 . S
H5831 C5827 0.950 . S
H5832 C5829 0.950 . S
C5833 C5824 1.390 . S
C5833 H5826 0.950 . S
C5833 C5830 1.387 . S
C5834 C5835 1.387 . S
C5834 H5838 0.950 . S
C5834 C5843 1.390 . S
C5835 C5834 1.387 . S
C5835 C5837 1.387 . S
H5836 C5843 0.950 . S
C5837 C5835 1.387 . S
C5837 C5839 1.390 . S
C5837 H5841 0.950 . S
H5838 C5834 0.950 . S
C5839 C5837 1.390 . S
C5839 C5840 1.387 . S
C5839 H5842 0.950 . S
C5840 C5839 1.387 . S
C5840 C5843 1.387 . S
H5841 C5837 0.950 . S
H5842 C5839 0.950 . S
C5843 C5834 1.390 . S
C5843 H5836 0.950 . S
C5843 C5840 1.387 . S
C5844 C5845 1.387 . S
C5844 H5848 0.950 . S
C5844 C5853 1.390 . S
C5845 C5844 1.387 . S
C5845 C5847 1.387 . S
H5846 C5853 0.950 . S
C5847 C5845 1.387 . S
C5847 C5849 1.390 . S
C5847 H5851 0.950 . S
H5848 C5844 0.950 . S
C5849 C5847 1.390 . S
C5849 C5850 1.387 . S
C5849 H5852 0.950 . S
C5850 C5849 1.387 . S
C5850 C5853 1.387 . S
H5851 C5847 0.950 . S
H5852 C5849 0.950 . S
C5853 C5844 1.390 . S
C5853 H5846 0.950 . S
C5853 C5850 1.387 . S
C5854 C5855 1.387 . S
C5854 H5858 0.950 . S
C5854 C5863 1.390 . S
C5855 C5854 1.387 . S
C5855 C5857 1.387 . S
H5856 C5863 0.950 . S
C5857 C5855 1.387 . S
C5857 C5859 1.390 . S
C5857 H5861 0.950 . S
H5858 C5854 0.950 . S
C5859 C5857 1.390 . S
C5859 C5860 1.387 . S
C5859 H5862 0.950 . S
C5860 C5859 1.387 . S
C5860 C5863 1.387 . S
H5861 C5857 0.950 . S
H5862 C5859 0.950 . S
C5863 C5854 1.390 . S
C5863 H5856 0.950 . S
C5863 C5860 1.387 . S
C5864 C5865 1.387 . S
C5864 H5868 0.950 . S
C5864 C5873 1.390 . S
C5865 C5864 1.387 . S
C5865 C5867 1.387 . S
H5866 C5873 0.950 . S
C5867 C5865 1.387 . S
C5867 C5869 1.390 . S
C5867 H5871 0.950 . S
H5868 C5864 0.950 . S
C5869 C5867 1.390 . S
C5869 C5870 1.387 . S
C5869 H5872 0.950 . S
C5870 C5869 1.387 . S
C5870 C5873 1.387 . S
H5871 C5867 0.950 . S
H5872 C5869 0.950 . S
C5873 C5864 1.390 . S
C5873 H5866 0.950 . S
C5873 C5870 1.387 . S
C5874 C5875 1.387 . S
C5874 H5878 0.950 . S
C5874 C5883 1.390 . S
C5875 C5874 1.387 . S
C5875 C5877 1.387 . S
H5876 C5883 0.950 . S
C5877 C5875 1.387 . S
C5877 C5879 1.390 . S
C5877 H5881 0.950 . S
H5878 C5874 0.950 . S
C5879 C5877 1.390 . S
C5879 C5880 1.387 . S
C5879 H5882 0.950 . S
C5880 C5879 1.387 . S
C5880 C5883 1.387 . S
H5881 C5877 0.950 . S
H5882 C5879 0.950 . S
C5883 C5874 1.390 . S
C5883 H5876 0.950 . S
C5883 C5880 1.387 . S
C5884 C5885 1.387 . S
C5884 H5888 0.950 . S
C5884 C5893 1.390 . S
C5885 C5884 1.387 . S
C5885 C5887 1.387 . S
H5886 C5893 0.950 . S
C5887 C5885 1.387 . S
C5887 C5889 1.390 . S
C5887 H5891 0.950 . S
H5888 C5884 0.950 . S
C5889 C5887 1.390 . S
C5889 C5890 1.387 . S
C5889 H5892 0.950 . S
C5890 C5889 1.387 . S
C5890 C5893 1.387 . S
H5891 C5887 0.950 . S
H5892 C5889 0.950 . S
C5893 C5884 1.390 . S
C5893 H5886 0.950 . S
C5893 C5890 1.387 . S
C5894 C5895 1.387 . S
C5894 H5898 0.950 . S
C5894 C5903 1.390 . S
C5895 C5894 1.387 . S
C5895 C5897 1.387 . S
H5896 C5903 0.950 . S
C5897 C5895 1.387 . S
C5897 C5899 1.390 . S
C5897 H5901 0.950 . S
H5898 C5894 0.950 . S
C5899 C5897 1.390 . S
C5899 C5900 1.387 . S
C5899 H5902 0.950 . S
C5900 C5899 1.387 . S
C5900 C5903 1.387 . S
H5901 C5897 0.950 . S
H5902 C5899 0.950 . S
C5903 C5894 1.390 . S
C5903 H5896 0.950 . S
C5903 C5900 1.387 . S
C5904 C5905 1.387 . S
C5904 H5908 0.950 . S
C5904 C5913 1.390 . S
C5905 C5904 1.387 . S
C5905 C5907 1.387 . S
H5906 C5913 0.950 . S
C5907 C5905 1.387 . S
C5907 C5909 1.390 . S
C5907 H5911 0.950 . S
H5908 C5904 0.950 . S
C5909 C5907 1.390 . S
C5909 C5910 1.387 . S
C5909 H5912 0.950 . S
C5910 C5909 1.387 . S
C5910 C5913 1.387 . S
H5911 C5907 0.950 . S
H5912 C5909 0.950 . S
C5913 C5904 1.390 . S
C5913 H5906 0.950 . S
C5913 C5910 1.387 . S
C5914 C5915 1.387 . S
C5914 H5918 0.950 . S
C5914 C5923 1.390 . S
C5915 C5914 1.387 . S
C5915 C5917 1.387 . S
H5916 C5923 0.950 . S
C5917 C5915 1.387 . S
C5917 C5919 1.390 . S
C5917 H5921 0.950 . S
H5918 C5914 0.950 . S
C5919 C5917 1.390 . S
C5919 C5920 1.387 . S
C5919 H5922 0.950 . S
C5920 C5919 1.387 . S
C5920 C5923 1.387 . S
H5921 C5917 0.950 . S
H5922 C5919 0.950 . S
C5923 C5914 1.390 . S
C5923 H5916 0.950 . S
C5923 C5920 1.387 . S
C5924 C5925 1.387 . S
C5924 H5928 0.950 . S
C5924 C5933 1.390 . S
C5925 C5924 1.387 . S
C5925 C5927 1.387 . S
H5926 C5933 0.950 . S
C5927 C5925 1.387 . S
C5927 C5929 1.390 . S
C5927 H5931 0.950 . S
H5928 C5924 0.950 . S
C5929 C5927 1.390 . S
C5929 C5930 1.387 . S
C5929 H5932 0.950 . S
C5930 C5929 1.387 . S
C5930 C5933 1.387 . S
H5931 C5927 0.950 . S
H5932 C5929 0.950 . S
C5933 C5924 1.390 . S
C5933 H5926 0.950 . S
C5933 C5930 1.387 . S
C5934 C5935 1.387 . S
C5934 H5938 0.950 . S
C5934 C5943 1.390 . S
C5935 C5934 1.387 . S
C5935 C5937 1.387 . S
H5936 C5943 0.950 . S
C5937 C5935 1.387 . S
C5937 C5939 1.390 . S
C5937 H5941 0.950 . S
H5938 C5934 0.950 . S
C5939 C5937 1.390 . S
C5939 C5940 1.387 . S
C5939 H5942 0.950 . S
C5940 C5939 1.387 . S
C5940 C5943 1.387 . S
H5941 C5937 0.950 . S
H5942 C5939 0.950 . S
C5943 C5934 1.390 . S
C5943 H5936 0.950 . S
C5943 C5940 1.387 . S
C5944 C5945 1.387 . S
C5944 H5948 0.950 . S
C5944 C5953 1.390 . S
C5945 C5944 1.387 . S
C5945 C5947 1.387 . S
H5946 C5953 0.950 . S
C5947 C5945 1.387 . S
C5947 C5949 1.390 . S
C5947 H5951 0.950 . S
H5948 C5944 0.950 . S
C5949 C5947 1.390 . S
C5949 C5950 1.387 . S
C5949 H5952 0.928 1_655 S
C5950 C5949 1.387 . S
C5950 C5953 1.387 . S
H5951 C5947 0.950 . S
H5952 C5949 0.928 1_455 S
C5953 C5944 1.390 . S
C5953 H5946 0.950 . S
C5953 C5950 1.387 . S
C5954 C5955 1.387 . S
C5954 H5958 0.950 . S
C5954 C5963 1.390 . S
C5955 C5954 1.387 . S
C5955 C5957 1.387 . S
H5956 C5963 0.950 . S
C5957 C5955 1.387 . S
C5957 C5959 1.390 . S
C5957 H5961 0.950 . S
H5958 C5954 0.950 . S
C5959 C5957 1.390 . S
C5959 C5960 1.387 . S
C5959 H5962 0.950 . S
C5960 C5959 1.387 . S
C5960 C5963 1.387 . S
H5961 C5957 0.950 . S
H5962 C5959 0.950 . S
C5963 C5954 1.390 . S
C5963 H5956 0.950 . S
C5963 C5960 1.387 . S
C5964 C5965 1.387 . S
C5964 H5968 0.950 . S
C5964 C5973 1.390 . S
C5965 C5964 1.387 . S
C5965 C5967 1.387 . S
H5966 C5973 0.950 . S
C5967 C5965 1.387 . S
C5967 C5969 1.390 . S
C5967 H5971 0.950 . S
H5968 C5964 0.950 . S
C5969 C5967 1.390 . S
C5969 C5970 1.387 . S
C5969 H5972 0.950 . S
C5970 C5969 1.387 . S
C5970 C5973 1.387 . S
H5971 C5967 0.950 . S
H5972 C5969 0.950 . S
C5973 C5964 1.390 . S
C5973 H5966 0.950 . S
C5973 C5970 1.387 . S
C5974 C5975 1.387 . S
C5974 H5978 0.950 . S
C5974 C5983 1.390 . S
C5975 C5974 1.387 . S
C5975 C5977 1.387 . S
H5976 C5983 0.950 . S
C5977 C5975 1.387 . S
C5977 C5979 1.390 . S
C5977 H5981 0.950 . S
H5978 C5974 0.950 . S
C5979 C5977 1.390 . S
C5979 C5980 1.387 . S
C5979 H5982 0.950 . S
C5980 C5979 1.387 . S
C5980 C5983 1.387 . S
H5981 C5977 0.950 . S
H5982 C5979 0.950 . S
C5983 C5974 1.390 . S
C5983 H5976 0.950 . S
C5983 C5980 1.387 . S
C5984 C5985 1.387 . S
C5984 H5988 0.950 . S
C5984 C5993 1.390 . S
C5985 C5984 1.387 . S
C5985 C5987 1.387 . S
H5986 C5993 0.950 1_545 S
C5987 C5985 1.387 . S
C5987 C5989 1.390 . S
C5987 H5991 0.950 . S
H5988 C5984 0.950 . S
C5989 C5987 1.390 . S
C5989 C5990 1.387 . S
C5989 H5992 0.950 . S
C5990 C5989 1.387 . S
C5990 C5993 1.387 . S
H5991 C5987 0.950 . S
H5992 C5989 0.950 . S
C5993 C5984 1.390 . S
C5993 H5986 0.950 1_565 S
C5993 C5990 1.387 . S
C5994 C5995 1.387 . S
C5994 H5998 0.950 . S
C5994 C6003 1.390 . S
C5995 C5994 1.387 . S
C5995 C5997 1.387 . S
H5996 C6003 0.950 . S
C5997 C5995 1.387 . S
C5997 C5999 1.390 . S
C5997 H6001 0.950 . S
H5998 C5994 0.950 . S
C5999 C5997 1.390 . S
C5999 C6000 1.387 . S
C5999 H6002 0.950 . S
C6000 C5999 1.387 . S
C6000 C6003 1.387 . S
H6001 C5997 0.950 . S
H6002 C5999 0.950 . S
C6003 C5994 1.390 . S
C6003 H5996 0.950 . S
C6003 C6000 1.387 . S
C6004 C6005 1.387 . S
C6004 H6008 0.950 . S
C6004 C6013 1.390 . S
C6005 C6004 1.387 . S
C6005 C6007 1.387 . S
H6006 C6013 0.950 . S
C6007 C6005 1.387 . S
C6007 C6009 1.390 . S
C6007 H6011 0.950 . S
H6008 C6004 0.950 . S
C6009 C6007 1.390 . S
C6009 C6010 1.387 . S
C6009 H6012 0.950 . S
C6010 C6009 1.387 . S
C6010 C6013 1.387 . S
H6011 C6007 0.950 . S
H6012 C6009 0.950 . S
C6013 C6004 1.390 . S
C6013 H6006 0.950 . S
C6013 C6010 1.387 . S
C6014 C6015 1.387 . S
C6014 H6018 0.950 . S
C6014 C6023 1.390 . S
C6015 C6014 1.387 . S
C6015 C6017 1.387 . S
H6016 C6023 0.950 . S
C6017 C6015 1.387 . S
C6017 C6019 1.390 . S
C6017 H6021 0.950 . S
H6018 C6014 0.950 . S
C6019 C6017 1.390 . S
C6019 C6020 1.387 . S
C6019 H6022 0.950 . S
C6020 C6019 1.387 . S
C6020 C6023 1.387 . S
H6021 C6017 0.950 . S
H6022 C6019 0.950 . S
C6023 C6014 1.390 . S
C6023 H6016 0.950 . S
C6023 C6020 1.387 . S
C6024 C6025 1.387 . S
C6024 H6028 0.950 . S
C6024 C6033 1.390 . S
C6025 C6024 1.387 . S
C6025 C6027 1.387 . S
H6026 C6033 0.994 . S
C6027 C6025 1.387 . S
C6027 C6029 1.390 . S
C6027 H6031 0.950 . S
H6028 C6024 0.950 . S
C6029 C6027 1.390 . S
C6029 C6030 1.387 . S
C6029 H6032 0.950 . S
C6030 C6029 1.387 . S
C6030 C6033 1.387 . S
H6031 C6027 0.950 . S
H6032 C6029 0.950 . S
C6033 C6024 1.390 . S
C6033 H6026 0.994 . S
C6033 C6030 1.387 . S
C6034 C6035 1.387 . S
C6034 H6038 0.950 . S
C6034 C6043 1.390 . S
C6035 C6034 1.387 . S
C6035 C6037 1.387 . S
H6036 C6043 0.950 . S
C6037 C6035 1.387 . S
C6037 C6039 1.390 . S
C6037 H6041 0.950 . S
H6038 C6034 0.950 . S
C6039 C6037 1.390 . S
C6039 C6040 1.387 . S
C6039 H6042 0.950 . S
C6040 C6039 1.387 . S
C6040 C6043 1.387 . S
H6041 C6037 0.950 . S
H6042 C6039 0.950 . S
C6043 C6034 1.390 . S
C6043 H6036 0.950 . S
C6043 C6040 1.387 . S
C6044 C6045 1.387 . S
C6044 H6048 0.950 . S
C6044 C6053 1.390 . S
C6045 C6044 1.387 . S
C6045 C6047 1.387 . S
H6046 C6053 0.950 1_545 S
C6047 C6045 1.387 . S
C6047 C6049 1.390 . S
C6047 H6051 0.950 . S
H6048 C6044 0.950 . S
C6049 C6047 1.390 . S
C6049 C6050 1.387 . S
C6049 H6052 0.950 . S
C6050 C6049 1.387 . S
C6050 C6053 1.387 . S
H6051 C6047 0.950 . S
H6052 C6049 0.950 . S
C6053 C6044 1.390 . S
C6053 H6046 0.950 1_565 S
C6053 C6050 1.387 . S
C6054 C6055 1.387 . S
C6054 H6058 0.950 . S
C6054 C6063 1.390 . S
C6055 C6054 1.387 . S
C6055 C6057 1.387 . S
H6056 C6063 0.950 . S
C6057 C6055 1.387 . S
C6057 C6059 1.390 . S
C6057 H6061 0.950 . S
H6058 C6054 0.950 . S
C6059 C6057 1.390 . S
C6059 C6060 1.387 . S
C6059 H6062 0.950 . S
C6060 C6059 1.387 . S
C6060 C6063 1.387 . S
H6061 C6057 0.950 . S
H6062 C6059 0.950 . S
C6063 C6054 1.390 . S
C6063 H6056 0.950 . S
C6063 C6060 1.387 . S
C6064 C6065 1.387 . S
C6064 H6068 0.950 . S
C6064 C6073 1.390 . S
C6065 C6064 1.387 . S
C6065 C6067 1.387 . S
H6066 C6073 0.950 . S
C6067 C6065 1.387 . S
C6067 C6069 1.390 . S
C6067 H6071 0.950 . S
H6068 C6064 0.950 . S
C6069 C6067 1.390 . S
C6069 C6070 1.387 . S
C6069 H6072 0.962 . S
C6070 C6069 1.387 . S
C6070 C6073 1.387 . S
H6071 C6067 0.950 . S
H6072 C6069 0.962 . S
C6073 C6064 1.390 . S
C6073 H6066 0.950 . S
C6073 C6070 1.387 . S
C6074 C6075 1.387 . S
C6074 H6078 0.950 . S
C6074 C6083 1.390 . S
C6075 C6074 1.387 . S
C6075 C6077 1.387 . S
H6076 C6083 0.950 1_556 S
C6077 C6075 1.387 . S
C6077 C6079 1.390 . S
C6077 H6081 0.950 . S
H6078 C6074 0.950 . S
C6079 C6077 1.390 . S
C6079 C6080 1.387 . S
C6079 H6082 0.950 . S
C6080 C6079 1.387 . S
C6080 C6083 1.387 . S
H6081 C6077 0.950 . S
H6082 C6079 0.950 . S
C6083 C6074 1.390 . S
C6083 H6076 0.950 1_554 S
C6083 C6080 1.387 . S
C6084 C6085 1.387 . S
C6084 H6088 0.950 . S
C6084 C6093 1.390 . S
C6085 C6084 1.387 . S
C6085 C6087 1.387 . S
H6086 C6093 0.950 . S
C6087 C6085 1.387 . S
C6087 C6089 1.390 . S
C6087 H6091 0.950 . S
H6088 C6084 0.950 . S
C6089 C6087 1.390 . S
C6089 C6090 1.387 . S
C6089 H6092 0.950 . S
C6090 C6089 1.387 . S
C6090 C6093 1.387 . S
H6091 C6087 0.950 . S
H6092 C6089 0.950 . S
C6093 C6084 1.390 . S
C6093 H6086 0.950 . S
C6093 C6090 1.387 . S
C6094 C6095 1.387 . S
C6094 H6098 0.950 . S
C6094 C6103 1.390 . S
C6095 C6094 1.387 . S
C6095 C6097 1.387 . S
H6096 C6103 0.950 . S
C6097 C6095 1.387 . S
C6097 C6099 1.390 . S
C6097 H6101 0.950 . S
H6098 C6094 0.950 . S
C6099 C6097 1.390 . S
C6099 C6100 1.387 . S
C6099 H6102 0.950 . S
C6100 C6099 1.387 . S
C6100 C6103 1.387 . S
H6101 C6097 0.950 . S
H6102 C6099 0.950 . S
C6103 C6094 1.390 . S
C6103 H6096 0.950 . S
C6103 C6100 1.387 . S
C6104 C6105 1.387 . S
C6104 H6108 0.950 . S
C6104 C6113 1.390 . S
C6105 C6104 1.387 . S
C6105 C6107 1.387 . S
H6106 C6113 0.950 . S
C6107 C6105 1.387 . S
C6107 C6109 1.390 . S
C6107 H6111 0.950 . S
H6108 C6104 0.950 . S
C6109 C6107 1.390 . S
C6109 C6110 1.387 . S
C6109 H6112 0.950 . S
C6110 C6109 1.387 . S
C6110 C6113 1.387 . S
H6111 C6107 0.950 . S
H6112 C6109 0.950 . S
C6113 C6104 1.390 . S
C6113 H6106 0.950 . S
C6113 C6110 1.387 . S
C6114 C6115 1.387 . S
C6114 H6118 0.950 . S
C6114 C6123 1.390 . S
C6115 C6114 1.387 . S
C6115 C6117 1.387 . S
H6116 C6123 0.950 . S
C6117 C6115 1.387 . S
C6117 C6119 1.390 . S
C6117 H6121 0.950 . S
H6118 C6114 0.950 . S
C6119 C6117 1.390 . S
C6119 C6120 1.387 . S
C6119 H6122 0.950 . S
C6120 C6119 1.387 . S
C6120 C6123 1.387 . S
H6121 C6117 0.950 . S
H6122 C6119 0.950 . S
C6123 C6114 1.390 . S
C6123 H6116 0.950 . S
C6123 C6120 1.387 . S
C6124 C6125 1.387 . S
C6124 H6128 0.950 . S
C6124 C6133 1.390 . S
C6125 C6124 1.387 . S
C6125 C6127 1.387 . S
H6126 C6133 0.950 . S
C6127 C6125 1.387 . S
C6127 C6129 1.390 . S
C6127 H6131 0.950 . S
H6128 C6124 0.950 . S
C6129 C6127 1.390 . S
C6129 C6130 1.387 . S
C6129 H6132 0.950 . S
C6130 C6129 1.387 . S
C6130 C6133 1.387 . S
H6131 C6127 0.950 . S
H6132 C6129 0.950 . S
C6133 C6124 1.390 . S
C6133 H6126 0.950 . S
C6133 C6130 1.387 . S
C6134 C6135 1.387 . S
C6134 H6138 0.950 . S
C6134 C6143 1.390 . S
C6135 C6134 1.387 . S
C6135 C6137 1.387 . S
H6136 C6143 0.950 . S
C6137 C6135 1.387 . S
C6137 C6139 1.390 . S
C6137 H6141 0.950 . S
H6138 C6134 0.950 . S
C6139 C6137 1.390 . S
C6139 C6140 1.387 . S
C6139 H6142 0.950 . S
C6140 C6139 1.387 . S
C6140 C6143 1.387 . S
H6141 C6137 0.950 . S
H6142 C6139 0.950 . S
C6143 C6134 1.390 . S
C6143 H6136 0.950 . S
C6143 C6140 1.387 . S
C6144 C6145 1.387 . S
C6144 H6148 0.950 . S
C6144 C6153 1.390 . S
C6145 C6144 1.387 . S
C6145 C6147 1.387 . S
H6146 C6153 0.950 . S
C6147 C6145 1.387 . S
C6147 C6149 1.390 . S
C6147 H6151 0.950 . S
H6148 C6144 0.950 . S
C6149 C6147 1.390 . S
C6149 C6150 1.387 . S
C6149 H6152 0.950 . S
C6150 C6149 1.387 . S
C6150 C6153 1.387 . S
H6151 C6147 0.950 . S
H6152 C6149 0.950 . S
C6153 C6144 1.390 . S
C6153 H6146 0.950 . S
C6153 C6150 1.387 . S
C6154 C6155 1.387 . S
C6154 H6158 0.950 . S
C6154 C6163 1.390 . S
C6155 C6154 1.387 . S
C6155 C6157 1.387 . S
H6156 C6163 0.950 . S
C6157 C6155 1.387 . S
C6157 C6159 1.390 . S
C6157 H6161 0.950 . S
H6158 C6154 0.950 . S
C6159 C6157 1.390 . S
C6159 C6160 1.387 . S
C6159 H6162 0.950 . S
C6160 C6159 1.387 . S
C6160 C6163 1.387 . S
H6161 C6157 0.950 . S
H6162 C6159 0.950 . S
C6163 C6154 1.390 . S
C6163 H6156 0.950 . S
C6163 C6160 1.387 . S
C6164 C6165 1.387 . S
C6164 H6168 0.950 . S
C6164 C6173 1.390 . S
C6165 C6164 1.387 . S
C6165 C6167 1.387 . S
H6166 C6173 0.950 . S
C6167 C6165 1.387 . S
C6167 C6169 1.390 . S
C6167 H6171 0.950 . S
H6168 C6164 0.950 . S
C6169 C6167 1.390 . S
C6169 C6170 1.387 . S
C6169 H6172 0.950 1_655 S
C6170 C6169 1.387 . S
C6170 C6173 1.387 . S
H6171 C6167 0.950 . S
H6172 C6169 0.950 1_455 S
C6173 C6164 1.390 . S
C6173 H6166 0.950 . S
C6173 C6170 1.387 . S
C6174 C6175 1.387 . S
C6174 H6178 0.950 . S
C6174 C6183 1.390 . S
C6175 C6174 1.387 . S
C6175 C6177 1.387 . S
H6176 C6183 0.950 . S
C6177 C6175 1.387 . S
C6177 C6179 1.390 . S
C6177 H6181 0.950 . S
H6178 C6174 0.950 . S
C6179 C6177 1.390 . S
C6179 C6180 1.387 . S
C6179 H6182 0.950 . S
C6180 C6179 1.387 . S
C6180 C6183 1.387 . S
H6181 C6177 0.950 . S
H6182 C6179 0.950 . S
C6183 C6174 1.390 . S
C6183 H6176 0.950 . S
C6183 C6180 1.387 . S
C6184 C6185 1.387 . S
C6184 H6188 0.950 . S
C6184 C6193 1.390 . S
C6185 C6184 1.387 . S
C6185 C6187 1.387 . S
H6186 C6193 0.950 . S
C6187 C6185 1.387 . S
C6187 C6189 1.390 . S
C6187 H6191 0.950 . S
H6188 C6184 0.950 . S
C6189 C6187 1.390 . S
C6189 C6190 1.387 . S
C6189 H6192 0.950 . S
C6190 C6189 1.387 . S
C6190 C6193 1.387 . S
H6191 C6187 0.950 . S
H6192 C6189 0.950 . S
C6193 C6184 1.390 . S
C6193 H6186 0.950 . S
C6193 C6190 1.387 . S
C6194 C6195 1.387 . S
C6194 H6198 0.950 . S
C6194 C6203 1.390 . S
C6195 C6194 1.387 . S
C6195 C6197 1.387 . S
H6196 C6203 0.950 . S
C6197 C6195 1.387 . S
C6197 C6199 1.390 . S
C6197 H6201 0.950 . S
H6198 C6194 0.950 . S
C6199 C6197 1.390 . S
C6199 C6200 1.387 . S
C6199 H6202 0.950 . S
C6200 C6199 1.387 . S
C6200 C6203 1.387 . S
H6201 C6197 0.950 . S
H6202 C6199 0.950 . S
C6203 C6194 1.390 . S
C6203 H6196 0.950 . S
C6203 C6200 1.387 . S
C6204 C6205 1.387 . S
C6204 H6208 0.950 . S
C6204 C6213 1.390 . S
C6205 C6204 1.387 . S
C6205 C6207 1.387 . S
H6206 C6213 0.950 . S
C6207 C6205 1.387 . S
C6207 C6209 1.390 . S
C6207 H6211 0.950 . S
H6208 C6204 0.950 . S
C6209 C6207 1.390 . S
C6209 C6210 1.387 . S
C6209 H6212 0.950 . S
C6210 C6209 1.387 . S
C6210 C6213 1.387 . S
H6211 C6207 0.950 . S
H6212 C6209 0.950 . S
C6213 C6204 1.390 . S
C6213 H6206 0.950 . S
C6213 C6210 1.387 . S
C6214 C6215 1.387 . S
C6214 H6218 0.950 . S
C6214 C6223 1.390 . S
C6215 C6214 1.387 . S
C6215 C6217 1.387 . S
H6216 C6223 0.950 . S
C6217 C6215 1.387 . S
C6217 C6219 1.390 . S
C6217 H6221 0.950 . S
H6218 C6214 0.950 . S
C6219 C6217 1.390 . S
C6219 C6220 1.387 . S
C6219 H6222 0.950 . S
C6220 C6219 1.387 . S
C6220 C6223 1.387 . S
H6221 C6217 0.950 . S
H6222 C6219 0.950 . S
C6223 C6214 1.390 . S
C6223 H6216 0.950 . S
C6223 C6220 1.387 . S
C6224 C6225 1.387 . S
C6224 H6228 0.950 . S
C6224 C6233 1.390 . S
C6225 C6224 1.387 . S
C6225 C6227 1.387 . S
H6226 C6233 0.950 . S
C6227 C6225 1.387 . S
C6227 C6229 1.390 . S
C6227 H6231 0.950 . S
H6228 C6224 0.950 . S
C6229 C6227 1.390 . S
C6229 C6230 1.387 . S
C6229 H6232 0.950 . S
C6230 C6229 1.387 . S
C6230 C6233 1.387 . S
H6231 C6227 0.950 . S
H6232 C6229 0.950 . S
C6233 C6224 1.390 . S
C6233 H6226 0.950 . S
C6233 C6230 1.387 . S
C6234 C6235 1.387 . S
C6234 H6238 0.950 . S
C6234 C6243 1.390 . S
C6235 C6234 1.387 . S
C6235 C6237 1.387 . S
H6236 C6243 0.950 . S
C6237 C6235 1.387 . S
C6237 C6239 1.390 . S
C6237 H6241 0.950 . S
H6238 C6234 0.950 . S
C6239 C6237 1.390 . S
C6239 C6240 1.387 . S
C6239 H6242 0.950 . S
C6240 C6239 1.387 . S
C6240 C6243 1.387 . S
H6241 C6237 0.950 . S
H6242 C6239 0.950 . S
C6243 C6234 1.390 . S
C6243 H6236 0.950 . S
C6243 C6240 1.387 . S
C6244 C6245 1.387 . S
C6244 H6248 0.950 . S
C6244 C6253 1.390 . S
C6245 C6244 1.387 . S
C6245 C6247 1.387 . S
H6246 C6253 0.950 . S
C6247 C6245 1.387 . S
C6247 C6249 1.390 . S
C6247 H6251 0.950 . S
H6248 C6244 0.950 . S
C6249 C6247 1.390 . S
C6249 C6250 1.387 . S
C6249 H6252 0.950 . S
C6250 C6249 1.387 . S
C6250 C6253 1.387 . S
H6251 C6247 0.950 . S
H6252 C6249 0.950 . S
C6253 C6244 1.390 . S
C6253 H6246 0.950 . S
C6253 C6250 1.387 . S
C6254 C6255 1.387 . S
C6254 H6258 0.950 . S
C6254 C6263 1.390 . S
C6255 C6254 1.387 . S
C6255 C6257 1.387 . S
H6256 C6263 0.950 . S
C6257 C6255 1.387 . S
C6257 C6259 1.390 . S
C6257 H6261 0.950 . S
H6258 C6254 0.950 . S
C6259 C6257 1.390 . S
C6259 C6260 1.387 . S
C6259 H6262 0.950 . S
C6260 C6259 1.387 . S
C6260 C6263 1.387 . S
H6261 C6257 0.950 . S
H6262 C6259 0.950 . S
C6263 C6254 1.390 . S
C6263 H6256 0.950 . S
C6263 C6260 1.387 . S
C6264 C6265 1.387 . S
C6264 H6268 0.950 . S
C6264 C6273 1.390 . S
C6265 C6264 1.387 . S
C6265 C6267 1.387 . S
H6266 C6273 0.950 . S
C6267 C6265 1.387 . S
C6267 C6269 1.390 . S
C6267 H6271 0.950 . S
H6268 C6264 0.950 . S
C6269 C6267 1.390 . S
C6269 C6270 1.387 . S
C6269 H6272 0.950 . S
C6270 C6269 1.387 . S
C6270 C6273 1.387 . S
H6271 C6267 0.950 . S
H6272 C6269 0.950 . S
C6273 C6264 1.390 . S
C6273 H6266 0.950 . S
C6273 C6270 1.387 . S
C6274 C6275 1.387 . S
C6274 H6278 0.950 . S
C6274 C6283 1.390 . S
C6275 C6274 1.387 . S
C6275 C6277 1.387 . S
H6276 C6283 0.950 . S
C6277 C6275 1.387 . S
C6277 C6279 1.390 . S
C6277 H6281 0.950 . S
H6278 C6274 0.950 . S
C6279 C6277 1.390 . S
C6279 C6280 1.387 . S
C6279 H6282 0.950 . S
C6280 C6279 1.387 . S
C6280 C6283 1.387 . S
H6281 C6277 0.950 . S
H6282 C6279 0.950 . S
C6283 C6274 1.390 . S
C6283 H6276 0.950 . S
C6283 C6280 1.387 . S
C6284 C6285 1.387 . S
C6284 H6288 0.950 . S
C6284 C6293 1.390 . S
C6285 C6284 1.387 . S
C6285 C6287 1.387 . S
H6286 C6293 0.950 . S
C6287 C6285 1.387 . S
C6287 C6289 1.390 . S
C6287 H6291 0.950 . S
H6288 C6284 0.950 . S
C6289 C6287 1.390 . S
C6289 C6290 1.387 . S
C6289 H6292 0.950 . S
C6290 C6289 1.387 . S
C6290 C6293 1.387 . S
H6291 C6287 0.950 . S
H6292 C6289 0.950 . S
C6293 C6284 1.390 . S
C6293 H6286 0.950 . S
C6293 C6290 1.387 . S
C6294 C6295 1.387 . S
C6294 H6298 0.950 . S
C6294 C6303 1.390 . S
C6295 C6294 1.387 . S
C6295 C6297 1.387 . S
H6296 C6303 0.950 . S
C6297 C6295 1.387 . S
C6297 C6299 1.390 . S
C6297 H6301 0.950 . S
H6298 C6294 0.950 . S
C6299 C6297 1.390 . S
C6299 C6300 1.387 . S
C6299 H6302 0.950 . S
C6300 C6299 1.387 . S
C6300 C6303 1.387 . S
H6301 C6297 0.950 . S
H6302 C6299 0.950 . S
C6303 C6294 1.390 . S
C6303 H6296 0.950 . S
C6303 C6300 1.387 . S
C6304 C6305 1.387 . S
C6304 H6308 0.950 . S
C6304 C6313 1.390 . S
C6305 C6304 1.387 . S
C6305 C6307 1.387 . S
H6306 C6313 0.950 . S
C6307 C6305 1.387 . S
C6307 C6309 1.390 . S
C6307 H6311 0.950 . S
H6308 C6304 0.950 . S
C6309 C6307 1.390 . S
C6309 C6310 1.387 . S
C6309 H6312 0.950 . S
C6310 C6309 1.387 . S
C6310 C6313 1.387 . S
H6311 C6307 0.950 . S
H6312 C6309 0.950 . S
C6313 C6304 1.390 . S
C6313 H6306 0.950 . S
C6313 C6310 1.387 . S
C6314 C6315 1.387 . S
C6314 H6318 0.950 . S
C6314 C6323 1.390 . S
C6315 C6314 1.387 . S
C6315 C6317 1.387 . S
H6316 C6323 0.950 . S
C6317 C6315 1.387 . S
C6317 C6319 1.390 . S
C6317 H6321 0.950 . S
H6318 C6314 0.950 . S
C6319 C6317 1.390 . S
C6319 C6320 1.387 . S
C6319 H6322 0.950 . S
C6320 C6319 1.387 . S
C6320 C6323 1.387 . S
H6321 C6317 0.950 . S
H6322 C6319 0.950 . S
C6323 C6314 1.390 . S
C6323 H6316 0.950 . S
C6323 C6320 1.387 . S
C6324 C6325 1.387 . S
C6324 H6328 0.950 . S
C6324 C6333 1.390 . S
C6325 C6324 1.387 . S
C6325 C6327 1.387 . S
H6326 C6333 0.950 . S
C6327 C6325 1.387 . S
C6327 C6329 1.390 . S
C6327 H6331 0.950 . S
H6328 C6324 0.950 . S
C6329 C6327 1.390 . S
C6329 C6330 1.387 . S
C6329 H6332 0.950 . S
C6330 C6329 1.387 . S
C6330 C6333 1.387 . S
H6331 C6327 0.950 . S
H6332 C6329 0.950 . S
C6333 C6324 1.390 . S
C6333 H6326 0.950 . S
C6333 C6330 1.387 . S
C6334 C6335 1.387 . S
C6334 H6338 0.950 . S
C6334 C6343 1.390 . S
C6335 C6334 1.387 . S
C6335 C6337 1.387 . S
H6336 C6343 0.950 . S
C6337 C6335 1.387 . S
C6337 C6339 1.390 . S
C6337 H6341 0.950 . S
H6338 C6334 0.950 . S
C6339 C6337 1.390 . S
C6339 C6340 1.387 . S
C6339 H6342 0.950 . S
C6340 C6339 1.387 . S
C6340 C6343 1.387 . S
H6341 C6337 0.950 . S
H6342 C6339 0.950 . S
C6343 C6334 1.390 . S
C6343 H6336 0.950 . S
C6343 C6340 1.387 . S
C6344 C6345 1.387 . S
C6344 H6348 0.950 . S
C6344 C6353 1.390 . S
C6345 C6344 1.387 . S
C6345 C6347 1.387 . S
H6346 C6353 0.950 . S
C6347 C6345 1.387 . S
C6347 C6349 1.390 . S
C6347 H6351 0.950 . S
H6348 C6344 0.950 . S
C6349 C6347 1.390 . S
C6349 C6350 1.387 . S
C6349 H6352 0.950 . S
C6350 C6349 1.387 . S
C6350 C6353 1.387 . S
H6351 C6347 0.950 . S
H6352 C6349 0.950 . S
C6353 C6344 1.390 . S
C6353 H6346 0.950 . S
C6353 C6350 1.387 . S
C6354 C6355 1.387 . S
C6354 H6358 0.950 . S
C6354 C6363 1.390 . S
C6355 C6354 1.387 . S
C6355 C6357 1.387 . S
H6356 C6363 0.999 . S
C6357 C6355 1.387 . S
C6357 C6359 1.390 . S
C6357 H6361 0.950 . S
H6358 C6354 0.950 . S
C6359 C6357 1.390 . S
C6359 C6360 1.387 . S
C6359 H6362 0.950 . S
C6360 C6359 1.387 . S
C6360 C6363 1.387 . S
H6361 C6357 0.950 . S
H6362 C6359 0.950 . S
C6363 C6354 1.390 . S
C6363 H6356 0.999 . S
C6363 C6360 1.387 . S
C6364 C6365 1.387 . S
C6364 H6368 0.950 . S
C6364 C6373 1.390 . S
C6365 C6364 1.387 . S
C6365 C6367 1.387 . S
H6366 C6373 0.950 . S
C6367 C6365 1.387 . S
C6367 C6369 1.390 . S
C6367 H6371 0.950 . S
H6368 C6364 0.950 . S
C6369 C6367 1.390 . S
C6369 C6370 1.387 . S
C6369 H6372 0.950 . S
C6370 C6369 1.387 . S
C6370 C6373 1.387 . S
H6371 C6367 0.950 . S
H6372 C6369 0.950 . S
C6373 C6364 1.390 . S
C6373 H6366 0.950 . S
C6373 C6370 1.387 . S
C6374 C6375 1.387 . S
C6374 H6378 0.950 . S
C6374 C6383 1.390 . S
C6375 C6374 1.387 . S
C6375 C6377 1.387 . S
H6376 C6383 0.950 . S
C6377 C6375 1.387 . S
C6377 C6379 1.390 . S
C6377 H6381 0.950 . S
H6378 C6374 0.950 . S
C6379 C6377 1.390 . S
C6379 C6380 1.387 . S
C6379 H6382 0.950 . S
C6380 C6379 1.387 . S
C6380 C6383 1.387 . S
H6381 C6377 0.950 . S
H6382 C6379 0.950 . S
C6383 C6374 1.390 . S
C6383 H6376 0.950 . S
C6383 C6380 1.387 . S
C6384 C6385 1.387 . S
C6384 H6388 0.950 . S
C6384 C6393 1.390 . S
C6385 C6384 1.387 . S
C6385 C6387 1.387 . S
H6386 C6393 0.950 . S
C6387 C6385 1.387 . S
C6387 C6389 1.390 . S
C6387 H6391 0.950 . S
H6388 C6384 0.950 . S
C6389 C6387 1.390 . S
C6389 C6390 1.387 . S
C6389 H6392 0.950 . S
C6390 C6389 1.387 . S
C6390 C6393 1.387 . S
H6391 C6387 0.950 . S
H6392 C6389 0.950 . S
C6393 C6384 1.390 . S
C6393 H6386 0.950 . S
C6393 C6390 1.387 . S
C6394 C6395 1.387 . S
C6394 H6398 0.950 . S
C6394 C6403 1.390 . S
C6395 C6394 1.387 . S
C6395 C6397 1.387 . S
H6396 C6403 0.950 . S
C6397 C6395 1.387 . S
C6397 C6399 1.390 . S
C6397 H6401 0.950 . S
H6398 C6394 0.950 . S
C6399 C6397 1.390 . S
C6399 C6400 1.387 . S
C6399 H6402 0.950 . S
C6400 C6399 1.387 . S
C6400 C6403 1.387 . S
H6401 C6397 0.950 . S
H6402 C6399 0.950 . S
C6403 C6394 1.390 . S
C6403 H6396 0.950 . S
C6403 C6400 1.387 . S
C6404 C6405 1.387 . S
C6404 H6408 0.950 . S
C6404 C6413 1.390 . S
C6405 C6404 1.387 . S
C6405 C6407 1.387 . S
H6406 C6413 0.950 . S
C6407 C6405 1.387 . S
C6407 C6409 1.390 . S
C6407 H6411 0.950 . S
H6408 C6404 0.950 . S
C6409 C6407 1.390 . S
C6409 C6410 1.387 . S
C6409 H6412 0.950 . S
C6410 C6409 1.387 . S
C6410 C6413 1.387 . S
H6411 C6407 0.950 . S
H6412 C6409 0.950 . S
C6413 C6404 1.390 . S
C6413 H6406 0.950 . S
C6413 C6410 1.387 . S
C6414 C6415 1.387 . S
C6414 H6418 0.950 . S
C6414 C6423 1.390 . S
C6415 C6414 1.387 . S
C6415 C6417 1.387 . S
H6416 C6423 0.950 . S
C6417 C6415 1.387 . S
C6417 C6419 1.390 . S
C6417 H6421 0.950 . S
H6418 C6414 0.950 . S
C6419 C6417 1.390 . S
C6419 C6420 1.387 . S
C6419 H6422 0.950 . S
C6420 C6419 1.387 . S
C6420 C6423 1.387 . S
H6421 C6417 0.950 . S
H6422 C6419 0.950 . S
C6423 C6414 1.390 . S
C6423 H6416 0.950 . S
C6423 C6420 1.387 . S
C6424 C6425 1.387 . S
C6424 H6428 0.950 . S
C6424 C6433 1.390 . S
C6425 C6424 1.387 . S
C6425 C6427 1.387 . S
H6426 C6433 0.950 . S
C6427 C6425 1.387 . S
C6427 C6429 1.390 . S
C6427 H6431 0.950 . S
H6428 C6424 0.950 . S
C6429 C6427 1.390 . S
C6429 C6430 1.387 . S
C6429 H6432 0.950 . S
C6430 C6429 1.387 . S
C6430 C6433 1.387 . S
H6431 C6427 0.950 . S
H6432 C6429 0.950 . S
C6433 C6424 1.390 . S
C6433 H6426 0.950 . S
C6433 C6430 1.387 . S
C6434 C6435 1.387 . S
C6434 H6438 0.950 . S
C6434 C6443 1.390 . S
C6435 C6434 1.387 . S
C6435 C6437 1.387 . S
H6436 C6443 0.950 . S
C6437 C6435 1.387 . S
C6437 C6439 1.390 . S
C6437 H6441 0.950 . S
H6438 C6434 0.950 . S
C6439 C6437 1.390 . S
C6439 C6440 1.387 . S
C6439 H6442 0.950 . S
C6440 C6439 1.387 . S
C6440 C6443 1.387 . S
H6441 C6437 0.950 . S
H6442 C6439 0.950 . S
C6443 C6434 1.390 . S
C6443 H6436 0.950 . S
C6443 C6440 1.387 . S
C6444 C6445 1.387 . S
C6444 H6448 0.950 . S
C6444 C6453 1.390 . S
C6445 C6444 1.387 . S
C6445 C6447 1.387 . S
H6446 C6453 0.899 1_655 S
C6447 C6445 1.387 . S
C6447 C6449 1.390 . S
C6447 H6451 0.950 . S
H6448 C6444 0.950 . S
C6449 C6447 1.390 . S
C6449 C6450 1.387 . S
C6449 H6452 0.950 . S
C6450 C6449 1.387 . S
C6450 C6453 1.387 . S
H6451 C6447 0.950 . S
H6452 C6449 0.950 . S
C6453 C6444 1.390 . S
C6453 H6446 0.899 1_455 S
C6453 C6450 1.387 . S
C6454 C6455 1.387 . S
C6454 H6458 0.950 . S
C6454 C6463 1.390 . S
C6455 C6454 1.387 . S
C6455 C6457 1.387 . S
H6456 C6463 0.950 . S
C6457 C6455 1.387 . S
C6457 C6459 1.390 . S
C6457 H6461 0.950 . S
H6458 C6454 0.950 . S
C6459 C6457 1.390 . S
C6459 C6460 1.387 . S
C6459 H6462 0.950 . S
C6460 C6459 1.387 . S
C6460 C6463 1.387 . S
H6461 C6457 0.950 . S
H6462 C6459 0.950 . S
C6463 C6454 1.390 . S
C6463 H6456 0.950 . S
C6463 C6460 1.387 . S
C6464 C6465 1.387 . S
C6464 H6468 0.950 . S
C6464 C6473 1.390 . S
C6465 C6464 1.387 . S
C6465 C6467 1.387 . S
H6466 C6473 0.950 . S
C6467 C6465 1.387 . S
C6467 C6469 1.390 . S
C6467 H6471 0.950 . S
H6468 C6464 0.950 . S
C6469 C6467 1.390 . S
C6469 C6470 1.387 . S
C6469 H6472 0.950 . S
C6470 C6469 1.387 . S
C6470 C6473 1.387 . S
H6471 C6467 0.950 . S
H6472 C6469 0.950 . S
C6473 C6464 1.390 . S
C6473 H6466 0.950 . S
C6473 C6470 1.387 . S
C6474 C6475 1.387 . S
C6474 H6478 0.950 . S
C6474 C6483 1.390 . S
C6475 C6474 1.387 . S
C6475 C6477 1.387 . S
H6476 C6483 0.950 . S
C6477 C6475 1.387 . S
C6477 C6479 1.390 . S
C6477 H6481 0.950 . S
H6478 C6474 0.950 . S
C6479 C6477 1.390 . S
C6479 C6480 1.387 . S
C6479 H6482 0.950 . S
C6480 C6479 1.387 . S
C6480 C6483 1.387 . S
H6481 C6477 0.950 . S
H6482 C6479 0.950 . S
C6483 C6474 1.390 . S
C6483 H6476 0.950 . S
C6483 C6480 1.387 . S
C6484 C6485 1.387 . S
C6484 H6488 0.950 . S
C6484 C6493 1.390 . S
C6485 C6484 1.387 . S
C6485 C6487 1.387 . S
H6486 C6493 0.950 . S
C6487 C6485 1.387 . S
C6487 C6489 1.390 . S
C6487 H6491 0.950 . S
H6488 C6484 0.950 . S
C6489 C6487 1.390 . S
C6489 C6490 1.387 . S
C6489 H6492 0.950 . S
C6490 C6489 1.387 . S
C6490 C6493 1.387 . S
H6491 C6487 0.950 . S
H6492 C6489 0.950 . S
C6493 C6484 1.390 . S
C6493 H6486 0.950 . S
C6493 C6490 1.387 . S
C6494 C6495 1.387 . S
C6494 H6498 0.950 . S
C6494 C6503 1.390 . S
C6495 C6494 1.387 . S
C6495 C6497 1.387 . S
H6496 C6503 0.950 . S
C6497 C6495 1.387 . S
C6497 C6499 1.390 . S
C6497 H6501 0.950 . S
H6498 C6494 0.950 . S
C6499 C6497 1.390 . S
C6499 C6500 1.387 . S
C6499 H6502 0.950 . S
C6500 C6499 1.387 . S
C6500 C6503 1.387 . S
H6501 C6497 0.950 . S
H6502 C6499 0.950 . S
C6503 C6494 1.390 . S
C6503 H6496 0.950 . S
C6503 C6500 1.387 . S
C6504 C6505 1.387 . S
C6504 H6508 0.950 . S
C6504 C6513 1.390 . S
C6505 C6504 1.387 . S
C6505 C6507 1.387 . S
H6506 C6513 0.950 . S
C6507 C6505 1.387 . S
C6507 C6509 1.390 . S
C6507 H6511 0.950 . S
H6508 C6504 0.950 . S
C6509 C6507 1.390 . S
C6509 C6510 1.387 . S
C6509 H6512 0.950 . S
C6510 C6509 1.387 . S
C6510 C6513 1.387 . S
H6511 C6507 0.950 . S
H6512 C6509 0.950 . S
C6513 C6504 1.390 . S
C6513 H6506 0.950 . S
C6513 C6510 1.387 . S
C6514 C6515 1.387 . S
C6514 H6518 0.950 . S
C6514 C6523 1.390 . S
C6515 C6514 1.387 . S
C6515 C6517 1.387 . S
H6516 C6523 0.950 . S
C6517 C6515 1.387 . S
C6517 C6519 1.390 . S
C6517 H6521 0.950 . S
H6518 C6514 0.950 . S
C6519 C6517 1.390 . S
C6519 C6520 1.387 . S
C6519 H6522 0.950 . S
C6520 C6519 1.387 . S
C6520 C6523 1.387 . S
H6521 C6517 0.950 . S
H6522 C6519 0.950 . S
C6523 C6514 1.390 . S
C6523 H6516 0.950 . S
C6523 C6520 1.387 . S
C6524 C6525 1.387 . S
C6524 H6528 0.950 . S
C6524 C6533 1.390 . S
C6525 C6524 1.387 . S
C6525 C6527 1.387 . S
H6526 C6533 0.950 . S
C6527 C6525 1.387 . S
C6527 C6529 1.390 . S
C6527 H6531 0.950 . S
H6528 C6524 0.950 . S
C6529 C6527 1.390 . S
C6529 C6530 1.387 . S
C6529 H6532 0.950 . S
C6530 C6529 1.387 . S
C6530 C6533 1.387 . S
H6531 C6527 0.950 . S
H6532 C6529 0.950 . S
C6533 C6524 1.390 . S
C6533 H6526 0.950 . S
C6533 C6530 1.387 . S
C6534 C6535 1.387 . S
C6534 H6538 0.950 . S
C6534 C6543 1.390 . S
C6535 C6534 1.387 . S
C6535 C6537 1.387 . S
H6536 C6543 0.950 . S
C6537 C6535 1.387 . S
C6537 C6539 1.390 . S
C6537 H6541 0.950 . S
H6538 C6534 0.950 . S
C6539 C6537 1.390 . S
C6539 C6540 1.387 . S
C6539 H6542 0.950 . S
C6540 C6539 1.387 . S
C6540 C6543 1.387 . S
H6541 C6537 0.950 . S
H6542 C6539 0.950 . S
C6543 C6534 1.390 . S
C6543 H6536 0.950 . S
C6543 C6540 1.387 . S
C6544 C6545 1.387 . S
C6544 H6548 0.950 . S
C6544 C6553 1.390 . S
C6545 C6544 1.387 . S
C6545 C6547 1.387 . S
H6546 C6553 0.950 . S
C6547 C6545 1.387 . S
C6547 C6549 1.390 . S
C6547 H6551 0.950 . S
H6548 C6544 0.950 . S
C6549 C6547 1.390 . S
C6549 C6550 1.387 . S
C6549 H6552 0.950 . S
C6550 C6549 1.387 . S
C6550 C6553 1.387 . S
H6551 C6547 0.950 . S
H6552 C6549 0.950 . S
C6553 C6544 1.390 . S
C6553 H6546 0.950 . S
C6553 C6550 1.387 . S
C6554 C6555 1.387 . S
C6554 H6558 0.950 . S
C6554 C6563 1.390 . S
C6555 C6554 1.387 . S
C6555 C6557 1.387 . S
H6556 C6563 0.950 . S
C6557 C6555 1.387 . S
C6557 C6559 1.390 . S
C6557 H6561 0.950 . S
H6558 C6554 0.950 . S
C6559 C6557 1.390 . S
C6559 C6560 1.387 . S
C6559 H6562 0.950 . S
C6560 C6559 1.387 . S
C6560 C6563 1.387 . S
H6561 C6557 0.950 . S
H6562 C6559 0.950 . S
C6563 C6554 1.390 . S
C6563 H6556 0.950 . S
C6563 C6560 1.387 . S
C6564 C6565 1.387 . S
C6564 H6568 0.950 . S
C6564 C6573 1.390 . S
C6565 C6564 1.387 . S
C6565 C6567 1.387 . S
H6566 C6573 0.950 . S
C6567 C6565 1.387 . S
C6567 C6569 1.390 . S
C6567 H6571 0.950 . S
H6568 C6564 0.950 . S
C6569 C6567 1.390 . S
C6569 C6570 1.387 . S
C6569 H6572 0.950 . S
C6570 C6569 1.387 . S
C6570 C6573 1.387 . S
H6571 C6567 0.950 . S
H6572 C6569 0.950 . S
C6573 C6564 1.390 . S
C6573 H6566 0.950 . S
C6573 C6570 1.387 . S
C6574 C6575 1.387 . S
C6574 H6578 0.950 . S
C6574 C6583 1.390 . S
C6575 C6574 1.387 . S
C6575 C6577 1.387 . S
H6576 C6583 0.950 1_556 S
C6577 C6575 1.387 . S
C6577 C6579 1.390 . S
C6577 H6581 0.950 . S
H6578 C6574 0.950 . S
C6579 C6577 1.390 . S
C6579 C6580 1.387 . S
C6579 H6582 0.950 . S
C6580 C6579 1.387 . S
C6580 C6583 1.387 . S
H6581 C6577 0.950 . S
H6582 C6579 0.950 . S
C6583 C6574 1.390 . S
C6583 H6576 0.950 1_554 S
C6583 C6580 1.387 . S
C6584 C6585 1.387 . S
C6584 H6588 0.950 . S
C6584 C6593 1.390 . S
C6585 C6584 1.387 . S
C6585 C6587 1.387 . S
H6586 C6593 0.950 . S
C6587 C6585 1.387 . S
C6587 C6589 1.390 . S
C6587 H6591 0.950 . S
H6588 C6584 0.950 . S
C6589 C6587 1.390 . S
C6589 C6590 1.387 . S
C6589 H6592 0.950 . S
C6590 C6589 1.387 . S
C6590 C6593 1.387 . S
H6591 C6587 0.950 . S
H6592 C6589 0.950 . S
C6593 C6584 1.390 . S
C6593 H6586 0.950 . S
C6593 C6590 1.387 . S
C6594 C6595 1.387 . S
C6594 H6598 0.950 . S
C6594 C6603 1.390 . S
C6595 C6594 1.387 . S
C6595 C6597 1.387 . S
H6596 C6603 0.950 . S
C6597 C6595 1.387 . S
C6597 C6599 1.390 . S
C6597 H6601 0.950 . S
H6598 C6594 0.950 . S
C6599 C6597 1.390 . S
C6599 C6600 1.387 . S
C6599 H6602 0.950 . S
C6600 C6599 1.387 . S
C6600 C6603 1.387 . S
H6601 C6597 0.950 . S
H6602 C6599 0.950 . S
C6603 C6594 1.390 . S
C6603 H6596 0.950 . S
C6603 C6600 1.387 . S
C6604 C6605 1.387 . S
C6604 H6608 0.950 . S
C6604 C6613 1.390 . S
C6605 C6604 1.387 . S
C6605 C6607 1.387 . S
H6606 C6613 0.950 . S
C6607 C6605 1.387 . S
C6607 C6609 1.390 . S
C6607 H6611 0.950 . S
H6608 C6604 0.950 . S
C6609 C6607 1.390 . S
C6609 C6610 1.387 . S
C6609 H6612 0.950 . S
C6610 C6609 1.387 . S
C6610 C6613 1.387 . S
H6611 C6607 0.950 . S
H6612 C6609 0.950 . S
C6613 C6604 1.390 . S
C6613 H6606 0.950 . S
C6613 C6610 1.387 . S
C6614 C6615 1.387 . S
C6614 H6618 0.950 . S
C6614 C6623 1.390 . S
C6615 C6614 1.387 . S
C6615 C6617 1.387 . S
H6616 C6623 0.950 . S
C6617 C6615 1.387 . S
C6617 C6619 1.390 . S
C6617 H6621 0.950 . S
H6618 C6614 0.950 . S
C6619 C6617 1.390 . S
C6619 C6620 1.387 . S
C6619 H6622 0.950 . S
C6620 C6619 1.387 . S
C6620 C6623 1.387 . S
H6621 C6617 0.950 . S
H6622 C6619 0.950 . S
C6623 C6614 1.390 . S
C6623 H6616 0.950 . S
C6623 C6620 1.387 . S
C6624 C6625 1.387 . S
C6624 H6628 0.950 . S
C6624 C6633 1.390 . S
C6625 C6624 1.387 . S
C6625 C6627 1.387 . S
H6626 C6633 0.950 . S
C6627 C6625 1.387 . S
C6627 C6629 1.390 . S
C6627 H6631 0.950 . S
H6628 C6624 0.950 . S
C6629 C6627 1.390 . S
C6629 C6630 1.387 . S
C6629 H6632 0.950 . S
C6630 C6629 1.387 . S
C6630 C6633 1.387 . S
H6631 C6627 0.950 . S
H6632 C6629 0.950 . S
C6633 C6624 1.390 . S
C6633 H6626 0.950 . S
C6633 C6630 1.387 . S
C6634 C6635 1.387 . S
C6634 H6638 0.950 . S
C6634 C6643 1.390 . S
C6635 C6634 1.387 . S
C6635 C6637 1.387 . S
H6636 C6643 0.950 . S
C6637 C6635 1.387 . S
C6637 C6639 1.390 . S
C6637 H6641 0.950 . S
H6638 C6634 0.950 . S
C6639 C6637 1.390 . S
C6639 C6640 1.387 . S
C6639 H6642 0.950 . S
C6640 C6639 1.387 . S
C6640 C6643 1.387 . S
H6641 C6637 0.950 . S
H6642 C6639 0.950 . S
C6643 C6634 1.390 . S
C6643 H6636 0.950 . S
C6643 C6640 1.387 . S
C6644 C6645 1.387 . S
C6644 H6648 0.950 . S
C6644 C6653 1.390 . S
C6645 C6644 1.387 . S
C6645 C6647 1.387 . S
H6646 C6653 0.950 . S
C6647 C6645 1.387 . S
C6647 C6649 1.390 . S
C6647 H6651 0.950 . S
H6648 C6644 0.950 . S
C6649 C6647 1.390 . S
C6649 C6650 1.387 . S
C6649 H6652 0.950 . S
C6650 C6649 1.387 . S
C6650 C6653 1.387 . S
H6651 C6647 0.950 . S
H6652 C6649 0.950 . S
C6653 C6644 1.390 . S
C6653 H6646 0.950 . S
C6653 C6650 1.387 . S
C6654 C6655 1.387 . S
C6654 H6658 0.950 . S
C6654 C6663 1.390 . S
C6655 C6654 1.387 . S
C6655 C6657 1.387 . S
H6656 C6663 0.950 . S
C6657 C6655 1.387 . S
C6657 C6659 1.390 . S
C6657 H6661 0.950 . S
H6658 C6654 0.950 . S
C6659 C6657 1.390 . S
C6659 C6660 1.387 . S
C6659 H6662 0.950 . S
C6660 C6659 1.387 . S
C6660 C6663 1.387 . S
H6661 C6657 0.950 . S
H6662 C6659 0.950 . S
C6663 C6654 1.390 . S
C6663 H6656 0.950 . S
C6663 C6660 1.387 . S
C6664 C6665 1.387 . S
C6664 H6668 0.950 . S
C6664 C6673 1.390 . S
C6665 C6664 1.387 . S
C6665 C6667 1.387 . S
H6666 C6673 0.950 . S
C6667 C6665 1.387 . S
C6667 C6669 1.390 . S
C6667 H6671 0.950 . S
H6668 C6664 0.950 . S
C6669 C6667 1.390 . S
C6669 C6670 1.387 . S
C6669 H6672 0.950 . S
C6670 C6669 1.387 . S
C6670 C6673 1.387 . S
H6671 C6667 0.950 . S
H6672 C6669 0.950 . S
C6673 C6664 1.390 . S
C6673 H6666 0.950 . S
C6673 C6670 1.387 . S
C6674 C6675 1.387 . S
C6674 H6678 0.950 . S
C6674 C6683 1.390 . S
C6675 C6674 1.387 . S
C6675 C6677 1.387 . S
H6676 C6683 0.950 . S
C6677 C6675 1.387 . S
C6677 C6679 1.390 . S
C6677 H6681 0.950 . S
H6678 C6674 0.950 . S
C6679 C6677 1.390 . S
C6679 C6680 1.387 . S
C6679 H6682 0.950 . S
C6680 C6679 1.387 . S
C6680 C6683 1.387 . S
H6681 C6677 0.950 . S
H6682 C6679 0.950 . S
C6683 C6674 1.390 . S
C6683 H6676 0.950 . S
C6683 C6680 1.387 . S
C6684 C6685 1.387 . S
C6684 H6688 0.950 . S
C6684 C6693 1.390 . S
C6685 C6684 1.387 . S
C6685 C6687 1.387 . S
H6686 C6693 0.950 . S
C6687 C6685 1.387 . S
C6687 C6689 1.390 . S
C6687 H6691 0.950 . S
H6688 C6684 0.950 . S
C6689 C6687 1.390 . S
C6689 C6690 1.387 . S
C6689 H6692 0.950 . S
C6690 C6689 1.387 . S
C6690 C6693 1.387 . S
H6691 C6687 0.950 . S
H6692 C6689 0.950 . S
C6693 C6684 1.390 . S
C6693 H6686 0.950 . S
C6693 C6690 1.387 . S
C6694 C6695 1.387 . S
C6694 H6698 0.950 . S
C6694 C6703 1.390 . S
C6695 C6694 1.387 . S
C6695 C6697 1.387 . S
H6696 C6703 0.950 . S
C6697 C6695 1.387 . S
C6697 C6699 1.390 . S
C6697 H6701 0.950 . S
H6698 C6694 0.950 . S
C6699 C6697 1.390 . S
C6699 C6700 1.387 . S
C6699 H6702 0.950 . S
C6700 C6699 1.387 . S
C6700 C6703 1.387 . S
H6701 C6697 0.950 . S
H6702 C6699 0.950 . S
C6703 C6694 1.390 . S
C6703 H6696 0.950 . S
C6703 C6700 1.387 . S
C6704 C6705 1.387 . S
C6704 H6708 0.950 . S
C6704 C6713 1.390 . S
C6705 C6704 1.387 . S
C6705 C6707 1.387 . S
H6706 C6713 0.950 . S
C6707 C6705 1.387 . S
C6707 C6709 1.390 . S
C6707 H6711 0.950 . S
H6708 C6704 0.950 . S
C6709 C6707 1.390 . S
C6709 C6710 1.387 . S
C6709 H6712 0.950 . S
C6710 C6709 1.387 . S
C6710 C6713 1.387 . S
H6711 C6707 0.950 . S
H6712 C6709 0.950 . S
C6713 C6704 1.390 . S
C6713 H6706 0.950 . S
C6713 C6710 1.387 . S
C6714 C6715 1.387 . S
C6714 H6718 0.950 . S
C6714 C6723 1.390 . S
C6715 C6714 1.387 . S
C6715 C6717 1.387 . S
H6716 C6723 0.950 . S
C6717 C6715 1.387 . S
C6717 C6719 1.390 . S
C6717 H6721 0.950 . S
H6718 C6714 0.950 . S
C6719 C6717 1.390 . S
C6719 C6720 1.387 . S
C6719 H6722 0.950 . S
C6720 C6719 1.387 . S
C6720 C6723 1.387 . S
H6721 C6717 0.950 . S
H6722 C6719 0.950 . S
C6723 C6714 1.390 . S
C6723 H6716 0.950 . S
C6723 C6720 1.387 . S
C6724 C6725 1.387 . S
C6724 H6728 0.950 . S
C6724 C6733 1.390 . S
C6725 C6724 1.387 . S
C6725 C6727 1.387 . S
H6726 C6733 0.950 . S
C6727 C6725 1.387 . S
C6727 C6729 1.390 . S
C6727 H6731 0.950 . S
H6728 C6724 0.950 . S
C6729 C6727 1.390 . S
C6729 C6730 1.387 . S
C6729 H6732 0.950 . S
C6730 C6729 1.387 . S
C6730 C6733 1.387 . S
H6731 C6727 0.950 . S
H6732 C6729 0.950 . S
C6733 C6724 1.390 . S
C6733 H6726 0.950 . S
C6733 C6730 1.387 . S
C6734 C6735 1.387 . S
C6734 H6738 0.950 . S
C6734 C6743 1.390 . S
C6735 C6734 1.387 . S
C6735 C6737 1.387 . S
H6736 C6743 0.950 . S
C6737 C6735 1.387 . S
C6737 C6739 1.390 . S
C6737 H6741 0.950 . S
H6738 C6734 0.950 . S
C6739 C6737 1.390 . S
C6739 C6740 1.387 . S
C6739 H6742 0.950 . S
C6740 C6739 1.387 . S
C6740 C6743 1.387 . S
H6741 C6737 0.950 . S
H6742 C6739 0.950 . S
C6743 C6734 1.390 . S
C6743 H6736 0.950 . S
C6743 C6740 1.387 . S
C6744 C6745 1.387 . S
C6744 H6748 0.950 . S
C6744 C6753 1.390 . S
C6745 C6744 1.387 . S
C6745 C6747 1.387 . S
H6746 C6753 0.950 . S
C6747 C6745 1.387 . S
C6747 C6749 1.390 . S
C6747 H6751 0.950 . S
H6748 C6744 0.950 . S
C6749 C6747 1.390 . S
C6749 C6750 1.387 . S
C6749 H6752 0.950 . S
C6750 C6749 1.387 . S
C6750 C6753 1.387 . S
H6751 C6747 0.950 . S
H6752 C6749 0.950 . S
C6753 C6744 1.390 . S
C6753 H6746 0.950 . S
C6753 C6750 1.387 . S
C6754 C6755 1.387 . S
C6754 H6758 0.950 . S
C6754 C6763 1.390 . S
C6755 C6754 1.387 . S
C6755 C6757 1.387 . S
H6756 C6763 0.950 . S
C6757 C6755 1.387 . S
C6757 C6759 1.390 . S
C6757 H6761 0.950 . S
H6758 C6754 0.950 . S
C6759 C6757 1.390 . S
C6759 C6760 1.387 . S
C6759 H6762 0.950 . S
C6760 C6759 1.387 . S
C6760 C6763 1.387 . S
H6761 C6757 0.950 . S
H6762 C6759 0.950 . S
C6763 C6754 1.390 . S
C6763 H6756 0.950 . S
C6763 C6760 1.387 . S
C6764 C6765 1.387 . S
C6764 H6768 0.950 . S
C6764 C6773 1.390 . S
C6765 C6764 1.387 . S
C6765 C6767 1.387 . S
H6766 C6773 0.950 . S
C6767 C6765 1.387 . S
C6767 C6769 1.390 . S
C6767 H6771 0.950 . S
H6768 C6764 0.950 . S
C6769 C6767 1.390 . S
C6769 C6770 1.387 . S
C6769 H6772 0.950 . S
C6770 C6769 1.387 . S
C6770 C6773 1.387 . S
H6771 C6767 0.950 . S
H6772 C6769 0.950 . S
C6773 C6764 1.390 . S
C6773 H6766 0.950 . S
C6773 C6770 1.387 . S
C6774 C6775 1.387 . S
C6774 H6778 0.950 . S
C6774 C6783 1.390 . S
C6775 C6774 1.387 . S
C6775 C6777 1.387 . S
H6776 C6783 0.950 . S
C6777 C6775 1.387 . S
C6777 C6779 1.390 . S
C6777 H6781 0.950 . S
H6778 C6774 0.950 . S
C6779 C6777 1.390 . S
C6779 C6780 1.387 . S
C6779 H6782 0.950 . S
C6780 C6779 1.387 . S
C6780 C6783 1.387 . S
H6781 C6777 0.950 . S
H6782 C6779 0.950 . S
C6783 C6774 1.390 . S
C6783 H6776 0.950 . S
C6783 C6780 1.387 . S
C6784 C6785 1.387 . S
C6784 H6788 0.950 . S
C6784 C6793 1.390 . S
C6785 C6784 1.387 . S
C6785 C6787 1.387 . S
H6786 C6793 0.950 . S
C6787 C6785 1.387 . S
C6787 C6789 1.390 . S
C6787 H6791 0.950 . S
H6788 C6784 0.950 . S
C6789 C6787 1.390 . S
C6789 C6790 1.387 . S
C6789 H6792 0.950 . S
C6790 C6789 1.387 . S
C6790 C6793 1.387 . S
H6791 C6787 0.950 . S
H6792 C6789 0.950 . S
C6793 C6784 1.390 . S
C6793 H6786 0.950 . S
C6793 C6790 1.387 . S
C6794 C6795 1.387 . S
C6794 H6798 0.950 . S
C6794 C6803 1.390 . S
C6795 C6794 1.387 . S
C6795 C6797 1.387 . S
H6796 C6803 0.950 . S
C6797 C6795 1.387 . S
C6797 C6799 1.390 . S
C6797 H6801 0.950 . S
H6798 C6794 0.950 . S
C6799 C6797 1.390 . S
C6799 C6800 1.387 . S
C6799 H6802 0.950 . S
C6800 C6799 1.387 . S
C6800 C6803 1.387 . S
H6801 C6797 0.950 . S
H6802 C6799 0.950 . S
C6803 C6794 1.390 . S
C6803 H6796 0.950 . S
C6803 C6800 1.387 . S
C6804 C6805 1.387 . S
C6804 H6808 0.950 . S
C6804 C6813 1.390 . S
C6805 C6804 1.387 . S
C6805 C6807 1.387 . S
H6806 C6813 0.950 . S
C6807 C6805 1.387 . S
C6807 C6809 1.390 . S
C6807 H6811 0.950 . S
H6808 C6804 0.950 . S
C6809 C6807 1.390 . S
C6809 C6810 1.387 . S
C6809 H6812 0.950 . S
C6810 C6809 1.387 . S
C6810 C6813 1.387 . S
H6811 C6807 0.950 . S
H6812 C6809 0.950 . S
C6813 C6804 1.390 . S
C6813 H6806 0.950 . S
C6813 C6810 1.387 . S
C6814 C6815 1.387 . S
C6814 H6818 0.950 . S
C6814 C6823 1.390 . S
C6815 C6814 1.387 . S
C6815 C6817 1.387 . S
H6816 C6823 0.950 . S
C6817 C6815 1.387 . S
C6817 C6819 1.390 . S
C6817 H6821 0.950 . S
H6818 C6814 0.950 . S
C6819 C6817 1.390 . S
C6819 C6820 1.387 . S
C6819 H6822 0.950 . S
C6820 C6819 1.387 . S
C6820 C6823 1.387 . S
H6821 C6817 0.950 . S
H6822 C6819 0.950 . S
C6823 C6814 1.390 . S
C6823 H6816 0.950 . S
C6823 C6820 1.387 . S
C6824 C6825 1.387 . S
C6824 H6828 0.950 . S
C6824 C6833 1.390 . S
C6825 C6824 1.387 . S
C6825 C6827 1.387 . S
H6826 C6833 0.950 . S
C6827 C6825 1.387 . S
C6827 C6829 1.390 . S
C6827 H6831 0.950 . S
H6828 C6824 0.950 . S
C6829 C6827 1.390 . S
C6829 C6830 1.387 . S
C6829 H6832 0.950 . S
C6830 C6829 1.387 . S
C6830 C6833 1.387 . S
H6831 C6827 0.950 . S
H6832 C6829 0.950 . S
C6833 C6824 1.390 . S
C6833 H6826 0.950 . S
C6833 C6830 1.387 . S
C6834 C6835 1.387 . S
C6834 H6838 0.950 . S
C6834 C6843 1.390 . S
C6835 C6834 1.387 . S
C6835 C6837 1.387 . S
H6836 C6843 0.950 . S
C6837 C6835 1.387 . S
C6837 C6839 1.390 . S
C6837 H6841 0.950 . S
H6838 C6834 0.950 . S
C6839 C6837 1.390 . S
C6839 C6840 1.387 . S
C6839 H6842 0.950 . S
C6840 C6839 1.387 . S
C6840 C6843 1.387 . S
H6841 C6837 0.950 . S
H6842 C6839 0.950 . S
C6843 C6834 1.390 . S
C6843 H6836 0.950 . S
C6843 C6840 1.387 . S
C6844 C6845 1.387 . S
C6844 H6848 0.950 . S
C6844 C6853 1.390 . S
C6845 C6844 1.387 . S
C6845 C6847 1.387 . S
H6846 C6853 0.950 . S
C6847 C6845 1.387 . S
C6847 C6849 1.390 . S
C6847 H6851 0.950 . S
H6848 C6844 0.950 . S
C6849 C6847 1.390 . S
C6849 C6850 1.387 . S
C6849 H6852 0.950 . S
C6850 C6849 1.387 . S
C6850 C6853 1.387 . S
H6851 C6847 0.950 . S
H6852 C6849 0.950 . S
C6853 C6844 1.390 . S
C6853 H6846 0.950 . S
C6853 C6850 1.387 . S
C6854 C6855 1.387 . S
C6854 H6858 0.950 . S
C6854 C6863 1.390 . S
C6855 C6854 1.387 . S
C6855 C6857 1.387 . S
H6856 C6863 0.950 . S
C6857 C6855 1.387 . S
C6857 C6859 1.390 . S
C6857 H6861 0.950 . S
H6858 C6854 0.950 . S
C6859 C6857 1.390 . S
C6859 C6860 1.387 . S
C6859 H6862 0.950 . S
C6860 C6859 1.387 . S
C6860 C6863 1.387 . S
H6861 C6857 0.950 . S
H6862 C6859 0.950 . S
C6863 C6854 1.390 . S
C6863 H6856 0.950 . S
C6863 C6860 1.387 . S
C6864 C6865 1.387 . S
C6864 H6868 0.950 . S
C6864 C6873 1.390 . S
C6865 C6864 1.387 . S
C6865 C6867 1.387 . S
H6866 C6873 0.950 . S
C6867 C6865 1.387 . S
C6867 C6869 1.390 . S
C6867 H6871 0.950 . S
H6868 C6864 0.950 . S
C6869 C6867 1.390 . S
C6869 C6870 1.387 . S
C6869 H6872 0.950 . S
C6870 C6869 1.387 . S
C6870 C6873 1.387 . S
H6871 C6867 0.950 . S
H6872 C6869 0.950 . S
C6873 C6864 1.390 . S
C6873 H6866 0.950 . S
C6873 C6870 1.387 . S
C6874 C6875 1.387 . S
C6874 H6878 0.950 . S
C6874 C6883 1.390 . S
C6875 C6874 1.387 . S
C6875 C6877 1.387 . S
H6876 C6883 0.950 . S
C6877 C6875 1.387 . S
C6877 C6879 1.390 . S
C6877 H6881 0.950 . S
H6878 C6874 0.950 . S
C6879 C6877 1.390 . S
C6879 C6880 1.387 . S
C6879 H6882 0.950 . S
C6880 C6879 1.387 . S
C6880 C6883 1.387 . S
H6881 C6877 0.950 . S
H6882 C6879 0.950 . S
C6883 C6874 1.390 . S
C6883 H6876 0.950 . S
C6883 C6880 1.387 . S
C6884 C6885 1.387 . S
C6884 H6888 0.950 . S
C6884 C6893 1.390 . S
C6885 C6884 1.387 . S
C6885 C6887 1.387 . S
H6886 C6893 0.950 . S
C6887 C6885 1.387 . S
C6887 C6889 1.390 . S
C6887 H6891 0.950 . S
H6888 C6884 0.950 . S
C6889 C6887 1.390 . S
C6889 C6890 1.387 . S
C6889 H6892 0.950 . S
C6890 C6889 1.387 . S
C6890 C6893 1.387 . S
H6891 C6887 0.950 . S
H6892 C6889 0.950 . S
C6893 C6884 1.390 . S
C6893 H6886 0.950 . S
C6893 C6890 1.387 . S
C6894 C6895 1.387 . S
C6894 H6898 0.950 . S
C6894 C6903 1.390 . S
C6895 C6894 1.387 . S
C6895 C6897 1.387 . S
H6896 C6903 0.950 . S
C6897 C6895 1.387 . S
C6897 C6899 1.390 . S
C6897 H6901 0.950 . S
H6898 C6894 0.950 . S
C6899 C6897 1.390 . S
C6899 C6900 1.387 . S
C6899 H6902 0.950 . S
C6900 C6899 1.387 . S
C6900 C6903 1.387 . S
H6901 C6897 0.950 . S
H6902 C6899 0.950 . S
C6903 C6894 1.390 . S
C6903 H6896 0.950 . S
C6903 C6900 1.387 . S
C6904 C6905 1.387 . S
C6904 H6908 0.950 . S
C6904 C6913 1.390 . S
C6905 C6904 1.387 . S
C6905 C6907 1.387 . S
H6906 C6913 0.950 . S
C6907 C6905 1.387 . S
C6907 C6909 1.390 . S
C6907 H6911 0.950 . S
H6908 C6904 0.950 . S
C6909 C6907 1.390 . S
C6909 C6910 1.387 . S
C6909 H6912 0.950 . S
C6910 C6909 1.387 . S
C6910 C6913 1.387 . S
H6911 C6907 0.950 . S
H6912 C6909 0.950 . S
C6913 C6904 1.390 . S
C6913 H6906 0.950 . S
C6913 C6910 1.387 . S
C6914 C6915 1.387 . S
C6914 H6918 0.950 . S
C6914 C6923 1.390 . S
C6915 C6914 1.387 . S
C6915 C6917 1.387 . S
H6916 C6923 0.950 . S
C6917 C6915 1.387 . S
C6917 C6919 1.390 . S
C6917 H6921 0.950 . S
H6918 C6914 0.950 . S
C6919 C6917 1.390 . S
C6919 C6920 1.387 . S
C6919 H6922 0.950 . S
C6920 C6919 1.387 . S
C6920 C6923 1.387 . S
H6921 C6917 0.950 . S
H6922 C6919 0.950 . S
C6923 C6914 1.390 . S
C6923 H6916 0.950 . S
C6923 C6920 1.387 . S
C6924 C6925 1.387 . S
C6924 H6928 0.950 . S
C6924 C6933 1.390 . S
C6925 C6924 1.387 . S
C6925 C6927 1.387 . S
H6926 C6933 0.950 . S
C6927 C6925 1.387 . S
C6927 C6929 1.390 . S
C6927 H6931 0.950 . S
H6928 C6924 0.950 . S
C6929 C6927 1.390 . S
C6929 C6930 1.387 . S
C6929 H6932 0.950 . S
C6930 C6929 1.387 . S
C6930 C6933 1.387 . S
H6931 C6927 0.950 . S
H6932 C6929 0.950 . S
C6933 C6924 1.390 . S
C6933 H6926 0.950 . S
C6933 C6930 1.387 . S
C6934 C6935 1.387 . S
C6934 H6938 0.950 . S
C6934 C6943 1.390 . S
C6935 C6934 1.387 . S
C6935 C6937 1.387 . S
H6936 C6943 0.950 . S
C6937 C6935 1.387 . S
C6937 C6939 1.390 . S
C6937 H6941 0.950 . S
H6938 C6934 0.950 . S
C6939 C6937 1.390 . S
C6939 C6940 1.387 . S
C6939 H6942 0.950 . S
C6940 C6939 1.387 . S
C6940 C6943 1.387 . S
H6941 C6937 0.950 . S
H6942 C6939 0.950 . S
C6943 C6934 1.390 . S
C6943 H6936 0.950 . S
C6943 C6940 1.387 . S
C6944 C6945 1.387 . S
C6944 H6948 0.950 . S
C6944 C6953 1.390 . S
C6945 C6944 1.387 . S
C6945 C6947 1.387 . S
H6946 C6953 0.950 . S
C6947 C6945 1.387 . S
C6947 C6949 1.390 . S
C6947 H6951 0.950 . S
H6948 C6944 0.950 . S
C6949 C6947 1.390 . S
C6949 C6950 1.387 . S
C6949 H6952 0.950 . S
C6950 C6949 1.387 . S
C6950 C6953 1.387 . S
H6951 C6947 0.950 . S
H6952 C6949 0.950 . S
C6953 C6944 1.390 . S
C6953 H6946 0.950 . S
C6953 C6950 1.387 . S
C6954 C6955 1.387 . S
C6954 H6958 0.950 . S
C6954 C6963 1.390 . S
C6955 C6954 1.387 . S
C6955 C6957 1.387 . S
H6956 C6963 0.950 . S
C6957 C6955 1.387 . S
C6957 C6959 1.390 . S
C6957 H6961 0.950 . S
H6958 C6954 0.950 . S
C6959 C6957 1.390 . S
C6959 C6960 1.387 . S
C6959 H6962 0.950 . S
C6960 C6959 1.387 . S
C6960 C6963 1.387 . S
H6961 C6957 0.950 . S
H6962 C6959 0.950 . S
C6963 C6954 1.390 . S
C6963 H6956 0.950 . S
C6963 C6960 1.387 . S
C6964 C6965 1.387 . S
C6964 H6968 0.950 . S
C6964 C6973 1.390 . S
C6965 C6964 1.387 . S
C6965 C6967 1.387 . S
H6966 C6973 0.950 . S
C6967 C6965 1.387 . S
C6967 C6969 1.390 . S
C6967 H6971 0.950 . S
H6968 C6964 0.950 . S
C6969 C6967 1.390 . S
C6969 C6970 1.387 . S
C6969 H6972 0.950 . S
C6970 C6969 1.387 . S
C6970 C6973 1.387 . S
H6971 C6967 0.950 . S
H6972 C6969 0.950 . S
C6973 C6964 1.390 . S
C6973 H6966 0.950 . S
C6973 C6970 1.387 . S
C6974 C6975 1.387 . S
C6974 H6978 0.950 . S
C6974 C6983 1.390 . S
C6975 C6974 1.387 . S
C6975 C6977 1.387 . S
H6976 C6983 0.950 . S
C6977 C6975 1.387 . S
C6977 C6979 1.390 . S
C6977 H6981 0.950 . S
H6978 C6974 0.950 . S
C6979 C6977 1.390 . S
C6979 C6980 1.387 . S
C6979 H6982 0.950 . S
C6980 C6979 1.387 . S
C6980 C6983 1.387 . S
H6981 C6977 0.950 . S
H6982 C6979 0.950 . S
C6983 C6974 1.390 . S
C6983 H6976 0.950 . S
C6983 C6980 1.387 . S
C6984 C6985 1.387 . S
C6984 H6988 0.950 . S
C6984 C6993 1.390 . S
C6985 C6984 1.387 . S
C6985 C6987 1.387 . S
H6986 C6993 0.950 . S
C6987 C6985 1.387 . S
C6987 C6989 1.390 . S
C6987 H6991 0.950 . S
H6988 C6984 0.950 . S
C6989 C6987 1.390 . S
C6989 C6990 1.387 . S
C6989 H6992 0.950 . S
C6990 C6989 1.387 . S
C6990 C6993 1.387 . S
H6991 C6987 0.950 . S
H6992 C6989 0.950 . S
C6993 C6984 1.390 . S
C6993 H6986 0.950 . S
C6993 C6990 1.387 . S
C6994 C6995 1.387 . S
C6994 H6998 0.950 . S
C6994 C7003 1.390 . S
C6995 C6994 1.387 . S
C6995 C6997 1.387 . S
H6996 C7003 0.950 . S
C6997 C6995 1.387 . S
C6997 C6999 1.390 . S
C6997 H7001 0.950 . S
H6998 C6994 0.950 . S
C6999 C6997 1.390 . S
C6999 C7000 1.387 . S
C6999 H7002 0.950 . S
C7000 C6999 1.387 . S
C7000 C7003 1.387 . S
H7001 C6997 0.950 . S
H7002 C6999 0.950 . S
C7003 C6994 1.390 . S
C7003 H6996 0.950 . S
C7003 C7000 1.387 . S
C7004 C7005 1.387 . S
C7004 H7008 0.950 . S
C7004 C7013 1.390 . S
C7005 C7004 1.387 . S
C7005 C7007 1.387 . S
H7006 C7013 0.950 . S
C7007 C7005 1.387 . S
C7007 C7009 1.390 . S
C7007 H7011 0.950 . S
H7008 C7004 0.950 . S
C7009 C7007 1.390 . S
C7009 C7010 1.387 . S
C7009 H7012 0.950 . S
C7010 C7009 1.387 . S
C7010 C7013 1.387 . S
H7011 C7007 0.950 . S
H7012 C7009 0.950 . S
C7013 C7004 1.390 . S
C7013 H7006 0.950 . S
C7013 C7010 1.387 . S
C7014 C7015 1.387 . S
C7014 H7018 0.950 . S
C7014 C7023 1.390 . S
C7015 C7014 1.387 . S
C7015 C7017 1.387 . S
H7016 C7023 0.950 . S
C7017 C7015 1.387 . S
C7017 C7019 1.390 . S
C7017 H7021 0.950 . S
H7018 C7014 0.950 . S
C7019 C7017 1.390 . S
C7019 C7020 1.387 . S
C7019 H7022 0.950 . S
C7020 C7019 1.387 . S
C7020 C7023 1.387 . S
H7021 C7017 0.950 . S
H7022 C7019 0.950 . S
C7023 C7014 1.390 . S
C7023 H7016 0.950 . S
C7023 C7020 1.387 . S
C7024 C7025 1.387 . S
C7024 H7028 0.950 . S
C7024 C7033 1.390 . S
C7025 C7024 1.387 . S
C7025 C7027 1.387 . S
H7026 C7033 0.950 . S
C7027 C7025 1.387 . S
C7027 C7029 1.390 . S
C7027 H7031 0.950 . S
H7028 C7024 0.950 . S
C7029 C7027 1.390 . S
C7029 C7030 1.387 . S
C7029 H7032 0.950 . S
C7030 C7029 1.387 . S
C7030 C7033 1.387 . S
H7031 C7027 0.950 . S
H7032 C7029 0.950 . S
C7033 C7024 1.390 . S
C7033 H7026 0.950 . S
C7033 C7030 1.387 . S
C7034 C7035 1.387 . S
C7034 H7038 0.950 . S
C7034 C7043 1.390 . S
C7035 C7034 1.387 . S
C7035 C7037 1.387 . S
H7036 C7043 0.950 . S
C7037 C7035 1.387 . S
C7037 C7039 1.390 . S
C7037 H7041 0.950 . S
H7038 C7034 0.950 . S
C7039 C7037 1.390 . S
C7039 C7040 1.387 . S
C7039 H7042 0.950 . S
C7040 C7039 1.387 . S
C7040 C7043 1.387 . S
H7041 C7037 0.950 . S
H7042 C7039 0.950 . S
C7043 C7034 1.390 . S
C7043 H7036 0.950 . S
C7043 C7040 1.387 . S
C7044 C7045 1.387 . S
C7044 H7048 0.950 . S
C7044 C7053 1.390 . S
C7045 C7044 1.387 . S
C7045 C7047 1.387 . S
H7046 C7053 0.950 . S
C7047 C7045 1.387 . S
C7047 C7049 1.390 . S
C7047 H7051 0.950 . S
H7048 C7044 0.950 . S
C7049 C7047 1.390 . S
C7049 C7050 1.387 . S
C7049 H7052 0.950 . S
C7050 C7049 1.387 . S
C7050 C7053 1.387 . S
H7051 C7047 0.950 . S
H7052 C7049 0.950 . S
C7053 C7044 1.390 . S
C7053 H7046 0.950 . S
C7053 C7050 1.387 . S
C7054 C7055 1.387 . S
C7054 H7058 0.950 . S
C7054 C7063 1.390 . S
C7055 C7054 1.387 . S
C7055 C7057 1.387 . S
H7056 C7063 0.950 . S
C7057 C7055 1.387 . S
C7057 C7059 1.390 . S
C7057 H7061 0.950 . S
H7058 C7054 0.950 . S
C7059 C7057 1.390 . S
C7059 C7060 1.387 . S
C7059 H7062 0.950 . S
C7060 C7059 1.387 . S
C7060 C7063 1.387 . S
H7061 C7057 0.950 . S
H7062 C7059 0.950 . S
C7063 C7054 1.390 . S
C7063 H7056 0.950 . S
C7063 C7060 1.387 . S
C7064 C7065 1.387 . S
C7064 H7068 0.950 . S
C7064 C7073 1.390 . S
C7065 C7064 1.387 . S
C7065 C7067 1.387 . S
H7066 C7073 0.950 . S
C7067 C7065 1.387 . S
C7067 C7069 1.390 . S
C7067 H7071 0.950 . S
H7068 C7064 0.950 . S
C7069 C7067 1.390 . S
C7069 C7070 1.387 . S
C7069 H7072 0.950 . S
C7070 C7069 1.387 . S
C7070 C7073 1.387 . S
H7071 C7067 0.950 . S
H7072 C7069 0.950 . S
C7073 C7064 1.390 . S
C7073 H7066 0.950 . S
C7073 C7070 1.387 . S
C7074 C7075 1.387 . S
C7074 H7078 0.950 . S
C7074 C7083 1.390 . S
C7075 C7074 1.387 . S
C7075 C7077 1.387 . S
H7076 C7083 0.950 . S
C7077 C7075 1.387 . S
C7077 C7079 1.390 . S
C7077 H7081 0.950 . S
H7078 C7074 0.950 . S
C7079 C7077 1.390 . S
C7079 C7080 1.387 . S
C7079 H7082 0.950 . S
C7080 C7079 1.387 . S
C7080 C7083 1.387 . S
H7081 C7077 0.950 . S
H7082 C7079 0.950 . S
C7083 C7074 1.390 . S
C7083 H7076 0.950 . S
C7083 C7080 1.387 . S
C7084 C7085 1.387 . S
C7084 H7088 0.950 . S
C7084 C7093 1.390 . S
C7085 C7084 1.387 . S
C7085 C7087 1.387 . S
H7086 C7093 0.950 . S
C7087 C7085 1.387 . S
C7087 C7089 1.390 . S
C7087 H7091 0.950 . S
H7088 C7084 0.950 . S
C7089 C7087 1.390 . S
C7089 C7090 1.387 . S
C7089 H7092 0.950 . S
C7090 C7089 1.387 . S
C7090 C7093 1.387 . S
H7091 C7087 0.950 . S
H7092 C7089 0.950 . S
C7093 C7084 1.390 . S
C7093 H7086 0.950 . S
C7093 C7090 1.387 . S
C7094 C7095 1.387 . S
C7094 H7098 0.950 . S
C7094 C7103 1.390 . S
C7095 C7094 1.387 . S
C7095 C7097 1.387 . S
H7096 C7103 0.950 . S
C7097 C7095 1.387 . S
C7097 C7099 1.390 . S
C7097 H7101 0.950 . S
H7098 C7094 0.950 . S
C7099 C7097 1.390 . S
C7099 C7100 1.387 . S
C7099 H7102 0.950 . S
C7100 C7099 1.387 . S
C7100 C7103 1.387 . S
H7101 C7097 0.950 . S
H7102 C7099 0.950 . S
C7103 C7094 1.390 . S
C7103 H7096 0.950 . S
C7103 C7100 1.387 . S
C7104 C7105 1.387 . S
C7104 H7108 0.950 . S
C7104 C7113 1.390 . S
C7105 C7104 1.387 . S
C7105 C7107 1.387 . S
H7106 C7113 0.950 . S
C7107 C7105 1.387 . S
C7107 C7109 1.390 . S
C7107 H7111 0.950 . S
H7108 C7104 0.950 . S
C7109 C7107 1.390 . S
C7109 C7110 1.387 . S
C7109 H7112 0.950 . S
C7110 C7109 1.387 . S
C7110 C7113 1.387 . S
H7111 C7107 0.950 . S
H7112 C7109 0.950 . S
C7113 C7104 1.390 . S
C7113 H7106 0.950 . S
C7113 C7110 1.387 . S
C7114 C7115 1.387 . S
C7114 H7118 0.950 . S
C7114 C7123 1.390 . S
C7115 C7114 1.387 . S
C7115 C7117 1.387 . S
H7116 C7123 0.950 . S
C7117 C7115 1.387 . S
C7117 C7119 1.390 . S
C7117 H7121 0.950 . S
H7118 C7114 0.950 . S
C7119 C7117 1.390 . S
C7119 C7120 1.387 . S
C7119 H7122 0.950 . S
C7120 C7119 1.387 . S
C7120 C7123 1.387 . S
H7121 C7117 0.950 . S
H7122 C7119 0.950 . S
C7123 C7114 1.390 . S
C7123 H7116 0.950 . S
C7123 C7120 1.387 . S
C7124 C7125 1.387 . S
C7124 H7128 0.950 . S
C7124 C7133 1.390 . S
C7125 C7124 1.387 . S
C7125 C7127 1.387 . S
H7126 C7133 0.950 . S
C7127 C7125 1.387 . S
C7127 C7129 1.390 . S
C7127 H7131 0.950 . S
H7128 C7124 0.950 . S
C7129 C7127 1.390 . S
C7129 C7130 1.387 . S
C7129 H7132 0.950 . S
C7130 C7129 1.387 . S
C7130 C7133 1.387 . S
H7131 C7127 0.950 . S
H7132 C7129 0.950 . S
C7133 C7124 1.390 . S
C7133 H7126 0.950 . S
C7133 C7130 1.387 . S
C7134 C7135 1.387 . S
C7134 H7138 0.950 . S
C7134 C7143 1.390 . S
C7135 C7134 1.387 . S
C7135 C7137 1.387 . S
H7136 C7143 0.950 . S
C7137 C7135 1.387 . S
C7137 C7139 1.390 . S
C7137 H7141 0.950 . S
H7138 C7134 0.950 . S
C7139 C7137 1.390 . S
C7139 C7140 1.387 . S
C7139 H7142 0.950 . S
C7140 C7139 1.387 . S
C7140 C7143 1.387 . S
H7141 C7137 0.950 . S
H7142 C7139 0.950 . S
C7143 C7134 1.390 . S
C7143 H7136 0.950 . S
C7143 C7140 1.387 . S
C7144 C7145 1.387 . S
C7144 H7148 0.950 . S
C7144 C7153 1.390 . S
C7145 C7144 1.387 . S
C7145 C7147 1.387 . S
H7146 C7153 0.950 . S
C7147 C7145 1.387 . S
C7147 C7149 1.390 . S
C7147 H7151 0.950 . S
H7148 C7144 0.950 . S
C7149 C7147 1.390 . S
C7149 C7150 1.387 . S
C7149 H7152 0.950 . S
C7150 C7149 1.387 . S
C7150 C7153 1.387 . S
H7151 C7147 0.950 . S
H7152 C7149 0.950 . S
C7153 C7144 1.390 . S
C7153 H7146 0.950 . S
C7153 C7150 1.387 . S
C7154 C7155 1.387 . S
C7154 H7158 0.950 . S
C7154 C7163 1.390 . S
C7155 C7154 1.387 . S
C7155 C7157 1.387 . S
H7156 C7163 0.950 . S
C7157 C7155 1.387 . S
C7157 C7159 1.390 . S
C7157 H7161 0.950 . S
H7158 C7154 0.950 . S
C7159 C7157 1.390 . S
C7159 C7160 1.387 . S
C7159 H7162 0.950 . S
C7160 C7159 1.387 . S
C7160 C7163 1.387 . S
H7161 C7157 0.950 . S
H7162 C7159 0.950 . S
C7163 C7154 1.390 . S
C7163 H7156 0.950 . S
C7163 C7160 1.387 . S
C7164 C7165 1.387 . S
C7164 H7168 0.950 . S
C7164 C7173 1.390 . S
C7165 C7164 1.387 . S
C7165 C7167 1.387 . S
H7166 C7173 0.950 . S
C7167 C7165 1.387 . S
C7167 C7169 1.390 . S
C7167 H7171 0.950 . S
H7168 C7164 0.950 . S
C7169 C7167 1.390 . S
C7169 C7170 1.387 . S
C7169 H7172 0.950 . S
C7170 C7169 1.387 . S
C7170 C7173 1.387 . S
H7171 C7167 0.950 . S
H7172 C7169 0.950 . S
C7173 C7164 1.390 . S
C7173 H7166 0.950 . S
C7173 C7170 1.387 . S
C7174 C7175 1.387 . S
C7174 H7178 0.950 . S
C7174 C7183 1.390 . S
C7175 C7174 1.387 . S
C7175 C7177 1.387 . S
H7176 C7183 0.950 . S
C7177 C7175 1.387 . S
C7177 C7179 1.390 . S
C7177 H7181 0.950 . S
H7178 C7174 0.950 . S
C7179 C7177 1.390 . S
C7179 C7180 1.387 . S
C7179 H7182 0.950 . S
C7180 C7179 1.387 . S
C7180 C7183 1.387 . S
H7181 C7177 0.950 . S
H7182 C7179 0.950 . S
C7183 C7174 1.390 . S
C7183 H7176 0.950 . S
C7183 C7180 1.387 . S
C7184 C7185 1.387 . S
C7184 H7188 0.950 . S
C7184 C7193 1.390 . S
C7185 C7184 1.387 . S
C7185 C7187 1.387 . S
H7186 C7193 0.950 . S
C7187 C7185 1.387 . S
C7187 C7189 1.390 . S
C7187 H7191 0.950 . S
H7188 C7184 0.950 . S
C7189 C7187 1.390 . S
C7189 C7190 1.387 . S
C7189 H7192 0.950 . S
C7190 C7189 1.387 . S
C7190 C7193 1.387 . S
H7191 C7187 0.950 . S
H7192 C7189 0.950 . S
C7193 C7184 1.390 . S
C7193 H7186 0.950 . S
C7193 C7190 1.387 . S
C7194 C7195 1.387 . S
C7194 H7198 0.950 . S
C7194 C7203 1.390 . S
C7195 C7194 1.387 . S
C7195 C7197 1.387 . S
H7196 C7203 0.950 . S
C7197 C7195 1.387 . S
C7197 C7199 1.390 . S
C7197 H7201 0.950 . S
H7198 C7194 0.950 . S
C7199 C7197 1.390 . S
C7199 C7200 1.387 . S
C7199 H7202 0.950 . S
C7200 C7199 1.387 . S
C7200 C7203 1.387 . S
H7201 C7197 0.950 . S
H7202 C7199 0.950 . S
C7203 C7194 1.390 . S
C7203 H7196 0.950 . S
C7203 C7200 1.387 . S
C7204 C7205 1.387 . S
C7204 H7208 0.950 . S
C7204 C7213 1.390 . S
C7205 C7204 1.387 . S
C7205 C7207 1.387 . S
H7206 C7213 0.950 . S
C7207 C7205 1.387 . S
C7207 C7209 1.390 . S
C7207 H7211 0.950 . S
H7208 C7204 0.950 . S
C7209 C7207 1.390 . S
C7209 C7210 1.387 . S
C7209 H7212 0.950 . S
C7210 C7209 1.387 . S
C7210 C7213 1.387 . S
H7211 C7207 0.950 . S
H7212 C7209 0.950 . S
C7213 C7204 1.390 . S
C7213 H7206 0.950 . S
C7213 C7210 1.387 . S
C7214 C7215 1.387 . S
C7214 H7218 0.950 . S
C7214 C7223 1.390 . S
C7215 C7214 1.387 . S
C7215 C7217 1.387 . S
H7216 C7223 0.950 . S
C7217 C7215 1.387 . S
C7217 C7219 1.390 . S
C7217 H7221 0.950 . S
H7218 C7214 0.950 . S
C7219 C7217 1.390 . S
C7219 C7220 1.387 . S
C7219 H7222 0.950 . S
C7220 C7219 1.387 . S
C7220 C7223 1.387 . S
H7221 C7217 0.950 . S
H7222 C7219 0.950 . S
C7223 C7214 1.390 . S
C7223 H7216 0.950 . S
C7223 C7220 1.387 . S
C7224 C7225 1.387 . S
C7224 H7228 0.950 . S
C7224 C7233 1.390 . S
C7225 C7224 1.387 . S
C7225 C7227 1.387 . S
H7226 C7233 0.950 . S
C7227 C7225 1.387 . S
C7227 C7229 1.390 . S
C7227 H7231 0.950 . S
H7228 C7224 0.950 . S
C7229 C7227 1.390 . S
C7229 C7230 1.387 . S
C7229 H7232 0.950 . S
C7230 C7229 1.387 . S
C7230 C7233 1.387 . S
H7231 C7227 0.950 . S
H7232 C7229 0.950 . S
C7233 C7224 1.390 . S
C7233 H7226 0.950 . S
C7233 C7230 1.387 . S
C7234 C7235 1.387 . S
C7234 H7238 0.950 . S
C7234 C7243 1.390 . S
C7235 C7234 1.387 . S
C7235 C7237 1.387 . S
H7236 C7243 0.950 . S
C7237 C7235 1.387 . S
C7237 C7239 1.390 . S
C7237 H7241 0.950 . S
H7238 C7234 0.950 . S
C7239 C7237 1.390 . S
C7239 C7240 1.387 . S
C7239 H7242 0.950 . S
C7240 C7239 1.387 . S
C7240 C7243 1.387 . S
H7241 C7237 0.950 . S
H7242 C7239 0.950 . S
C7243 C7234 1.390 . S
C7243 H7236 0.950 . S
C7243 C7240 1.387 . S
C7244 C7245 1.387 . S
C7244 H7248 0.950 . S
C7244 C7253 1.390 . S
C7245 C7244 1.387 . S
C7245 C7247 1.387 . S
H7246 C7253 0.950 . S
C7247 C7245 1.387 . S
C7247 C7249 1.390 . S
C7247 H7251 0.950 . S
H7248 C7244 0.950 . S
C7249 C7247 1.390 . S
C7249 C7250 1.387 . S
C7249 H7252 0.950 . S
C7250 C7249 1.387 . S
C7250 C7253 1.387 . S
H7251 C7247 0.950 . S
H7252 C7249 0.950 . S
C7253 C7244 1.390 . S
C7253 H7246 0.950 . S
C7253 C7250 1.387 . S
C7254 C7255 1.387 . S
C7254 H7258 0.950 . S
C7254 C7263 1.390 . S
C7255 C7254 1.387 . S
C7255 C7257 1.387 . S
H7256 C7263 0.950 . S
C7257 C7255 1.387 . S
C7257 C7259 1.390 . S
C7257 H7261 0.950 . S
H7258 C7254 0.950 . S
C7259 C7257 1.390 . S
C7259 C7260 1.387 . S
C7259 H7262 0.950 . S
C7260 C7259 1.387 . S
C7260 C7263 1.387 . S
H7261 C7257 0.950 . S
H7262 C7259 0.950 . S
C7263 C7254 1.390 . S
C7263 H7256 0.950 . S
C7263 C7260 1.387 . S
C7264 C7265 1.387 . S
C7264 H7268 0.950 . S
C7264 C7273 1.390 . S
C7265 C7264 1.387 . S
C7265 C7267 1.387 . S
H7266 C7273 0.950 . S
C7267 C7265 1.387 . S
C7267 C7269 1.390 . S
C7267 H7271 0.950 . S
H7268 C7264 0.950 . S
C7269 C7267 1.390 . S
C7269 C7270 1.387 . S
C7269 H7272 0.950 . S
C7270 C7269 1.387 . S
C7270 C7273 1.387 . S
H7271 C7267 0.950 . S
H7272 C7269 0.950 . S
C7273 C7264 1.390 . S
C7273 H7266 0.950 . S
C7273 C7270 1.387 . S
C7274 C7275 1.387 . S
C7274 H7278 0.950 . S
C7274 C7283 1.390 . S
C7275 C7274 1.387 . S
C7275 C7277 1.387 . S
H7276 C7283 0.950 . S
C7277 C7275 1.387 . S
C7277 C7279 1.390 . S
C7277 H7281 0.950 . S
H7278 C7274 0.950 . S
C7279 C7277 1.390 . S
C7279 C7280 1.387 . S
C7279 H7282 0.950 . S
C7280 C7279 1.387 . S
C7280 C7283 1.387 . S
H7281 C7277 0.950 . S
H7282 C7279 0.950 . S
C7283 C7274 1.390 . S
C7283 H7276 0.950 . S
C7283 C7280 1.387 . S
C7284 C7285 1.387 . S
C7284 H7288 0.950 . S
C7284 C7293 1.390 . S
C7285 C7284 1.387 . S
C7285 C7287 1.387 . S
H7286 C7293 0.950 . S
C7287 C7285 1.387 . S
C7287 C7289 1.390 . S
C7287 H7291 0.950 . S
H7288 C7284 0.950 . S
C7289 C7287 1.390 . S
C7289 C7290 1.387 . S
C7289 H7292 0.950 . S
C7290 C7289 1.387 . S
C7290 C7293 1.387 . S
H7291 C7287 0.950 . S
H7292 C7289 0.950 . S
C7293 C7284 1.390 . S
C7293 H7286 0.950 . S
C7293 C7290 1.387 . S
C7294 C7295 1.387 . S
C7294 H7298 0.950 . S
C7294 C7303 1.390 . S
C7295 C7294 1.387 . S
C7295 C7297 1.387 . S
H7296 C7303 0.950 . S
C7297 C7295 1.387 . S
C7297 C7299 1.390 . S
C7297 H7301 0.950 . S
H7298 C7294 0.950 . S
C7299 C7297 1.390 . S
C7299 C7300 1.387 . S
C7299 H7302 0.950 . S
C7300 C7299 1.387 . S
C7300 C7303 1.387 . S
H7301 C7297 0.950 . S
H7302 C7299 0.950 . S
C7303 C7294 1.390 . S
C7303 H7296 0.950 . S
C7303 C7300 1.387 . S
C7304 C7305 1.387 . S
C7304 H7308 0.950 . S
C7304 C7313 1.390 . S
C7305 C7304 1.387 . S
C7305 C7307 1.387 . S
H7306 C7313 0.950 . S
C7307 C7305 1.387 . S
C7307 C7309 1.390 . S
C7307 H7311 0.950 . S
H7308 C7304 0.950 . S
C7309 C7307 1.390 . S
C7309 C7310 1.387 . S
C7309 H7312 0.950 . S
C7310 C7309 1.387 . S
C7310 C7313 1.387 . S
H7311 C7307 0.950 . S
H7312 C7309 0.950 . S
C7313 C7304 1.390 . S
C7313 H7306 0.950 . S
C7313 C7310 1.387 . S
C7314 C7315 1.387 . S
C7314 H7318 0.950 . S
C7314 C7323 1.390 . S
C7315 C7314 1.387 . S
C7315 C7317 1.387 . S
H7316 C7323 0.950 . S
C7317 C7315 1.387 . S
C7317 C7319 1.390 . S
C7317 H7321 0.950 . S
H7318 C7314 0.950 . S
C7319 C7317 1.390 . S
C7319 C7320 1.387 . S
C7319 H7322 0.950 . S
C7320 C7319 1.387 . S
C7320 C7323 1.387 . S
H7321 C7317 0.950 . S
H7322 C7319 0.950 . S
C7323 C7314 1.390 . S
C7323 H7316 0.950 . S
C7323 C7320 1.387 . S
C7324 C7325 1.387 . S
C7324 H7328 0.950 . S
C7324 C7333 1.390 . S
C7325 C7324 1.387 . S
C7325 C7327 1.387 . S
H7326 C7333 0.950 . S
C7327 C7325 1.387 . S
C7327 C7329 1.390 . S
C7327 H7331 0.950 . S
H7328 C7324 0.950 . S
C7329 C7327 1.390 . S
C7329 C7330 1.387 . S
C7329 H7332 0.950 . S
C7330 C7329 1.387 . S
C7330 C7333 1.387 . S
H7331 C7327 0.950 . S
H7332 C7329 0.950 . S
C7333 C7324 1.390 . S
C7333 H7326 0.950 . S
C7333 C7330 1.387 . S
C7334 C7335 1.387 . S
C7334 H7338 0.950 . S
C7334 C7343 1.390 . S
C7335 C7334 1.387 . S
C7335 C7337 1.387 . S
H7336 C7343 0.950 . S
C7337 C7335 1.387 . S
C7337 C7339 1.390 . S
C7337 H7341 0.950 . S
H7338 C7334 0.950 . S
C7339 C7337 1.390 . S
C7339 C7340 1.387 . S
C7339 H7342 0.950 . S
C7340 C7339 1.387 . S
C7340 C7343 1.387 . S
H7341 C7337 0.950 . S
H7342 C7339 0.950 . S
C7343 C7334 1.390 . S
C7343 H7336 0.950 . S
C7343 C7340 1.387 . S
C7344 C7345 1.387 . S
C7344 H7348 0.950 . S
C7344 C7353 1.390 . S
C7345 C7344 1.387 . S
C7345 C7347 1.387 . S
H7346 C7353 0.950 . S
C7347 C7345 1.387 . S
C7347 C7349 1.390 . S
C7347 H7351 0.950 . S
H7348 C7344 0.950 . S
C7349 C7347 1.390 . S
C7349 C7350 1.387 . S
C7349 H7352 0.950 . S
C7350 C7349 1.387 . S
C7350 C7353 1.387 . S
H7351 C7347 0.950 . S
H7352 C7349 0.950 . S
C7353 C7344 1.390 . S
C7353 H7346 0.950 . S
C7353 C7350 1.387 . S
C7354 C7355 1.387 . S
C7354 H7358 0.950 . S
C7354 C7363 1.390 . S
C7355 C7354 1.387 . S
C7355 C7357 1.387 . S
H7356 C7363 0.950 . S
C7357 C7355 1.387 . S
C7357 C7359 1.390 . S
C7357 H7361 0.950 . S
H7358 C7354 0.950 . S
C7359 C7357 1.390 . S
C7359 C7360 1.387 . S
C7359 H7362 0.950 . S
C7360 C7359 1.387 . S
C7360 C7363 1.387 . S
H7361 C7357 0.950 . S
H7362 C7359 0.950 . S
C7363 C7354 1.390 . S
C7363 H7356 0.950 . S
C7363 C7360 1.387 . S
C7364 C7365 1.387 . S
C7364 H7368 0.950 . S
C7364 C7373 1.390 . S
C7365 C7364 1.387 . S
C7365 C7367 1.387 . S
H7366 C7373 0.950 . S
C7367 C7365 1.387 . S
C7367 C7369 1.390 . S
C7367 H7371 0.950 . S
H7368 C7364 0.950 . S
C7369 C7367 1.390 . S
C7369 C7370 1.387 . S
C7369 H7372 0.950 . S
C7370 C7369 1.387 . S
C7370 C7373 1.387 . S
H7371 C7367 0.950 . S
H7372 C7369 0.950 . S
C7373 C7364 1.390 . S
C7373 H7366 0.950 . S
C7373 C7370 1.387 . S
C7374 C7375 1.387 . S
C7374 H7378 0.950 . S
C7374 C7383 1.390 . S
C7375 C7374 1.387 . S
C7375 C7377 1.387 . S
H7376 C7383 0.950 . S
C7377 C7375 1.387 . S
C7377 C7379 1.390 . S
C7377 H7381 0.950 . S
H7378 C7374 0.950 . S
C7379 C7377 1.390 . S
C7379 C7380 1.387 . S
C7379 H7382 0.950 . S
C7380 C7379 1.387 . S
C7380 C7383 1.387 . S
H7381 C7377 0.950 . S
H7382 C7379 0.950 . S
C7383 C7374 1.390 . S
C7383 H7376 0.950 . S
C7383 C7380 1.387 . S
C7384 C7385 1.387 . S
C7384 H7388 0.950 . S
C7384 C7393 1.390 . S
C7385 C7384 1.387 . S
C7385 C7387 1.387 . S
H7386 C7393 0.950 . S
C7387 C7385 1.387 . S
C7387 C7389 1.390 . S
C7387 H7391 0.950 . S
H7388 C7384 0.950 . S
C7389 C7387 1.390 . S
C7389 C7390 1.387 . S
C7389 H7392 0.950 . S
C7390 C7389 1.387 . S
C7390 C7393 1.387 . S
H7391 C7387 0.950 . S
H7392 C7389 0.950 . S
C7393 C7384 1.390 . S
C7393 H7386 0.950 . S
C7393 C7390 1.387 . S
C7394 C7395 1.387 . S
C7394 H7398 0.950 . S
C7394 C7403 1.390 . S
C7395 C7394 1.387 . S
C7395 C7397 1.387 . S
H7396 C7403 0.950 . S
C7397 C7395 1.387 . S
C7397 C7399 1.390 . S
C7397 H7401 0.950 . S
H7398 C7394 0.950 . S
C7399 C7397 1.390 . S
C7399 C7400 1.387 . S
C7399 H7402 0.950 . S
C7400 C7399 1.387 . S
C7400 C7403 1.387 . S
H7401 C7397 0.950 . S
H7402 C7399 0.950 . S
C7403 C7394 1.390 . S
C7403 H7396 0.950 . S
C7403 C7400 1.387 . S
C7404 C7405 1.387 . S
C7404 H7408 0.950 . S
C7404 C7413 1.390 . S
C7405 C7404 1.387 . S
C7405 C7407 1.387 . S
H7406 C7413 0.950 . S
C7407 C7405 1.387 . S
C7407 C7409 1.390 . S
C7407 H7411 0.950 . S
H7408 C7404 0.950 . S
C7409 C7407 1.390 . S
C7409 C7410 1.387 . S
C7409 H7412 0.950 . S
C7410 C7409 1.387 . S
C7410 C7413 1.387 . S
H7411 C7407 0.950 . S
H7412 C7409 0.950 . S
C7413 C7404 1.390 . S
C7413 H7406 0.950 . S
C7413 C7410 1.387 . S
C7414 C7415 1.387 . S
C7414 H7418 0.950 . S
C7414 C7423 1.390 . S
C7415 C7414 1.387 . S
C7415 C7417 1.387 . S
H7416 C7423 0.950 . S
C7417 C7415 1.387 . S
C7417 C7419 1.390 . S
C7417 H7421 0.950 . S
H7418 C7414 0.950 . S
C7419 C7417 1.390 . S
C7419 C7420 1.387 . S
C7419 H7422 0.950 . S
C7420 C7419 1.387 . S
C7420 C7423 1.387 . S
H7421 C7417 0.950 . S
H7422 C7419 0.950 . S
C7423 C7414 1.390 . S
C7423 H7416 0.950 . S
C7423 C7420 1.387 . S
C7424 C7425 1.387 . S
C7424 H7428 0.950 . S
C7424 C7433 1.390 . S
C7425 C7424 1.387 . S
C7425 C7427 1.387 . S
H7426 C7433 0.950 . S
C7427 C7425 1.387 . S
C7427 C7429 1.390 . S
C7427 H7431 0.950 . S
H7428 C7424 0.950 . S
C7429 C7427 1.390 . S
C7429 C7430 1.387 . S
C7429 H7432 0.950 . S
C7430 C7429 1.387 . S
C7430 C7433 1.387 . S
H7431 C7427 0.950 . S
H7432 C7429 0.950 . S
C7433 C7424 1.390 . S
C7433 H7426 0.950 . S
C7433 C7430 1.387 . S
C7434 C7435 1.387 . S
C7434 H7438 0.950 . S
C7434 C7443 1.390 . S
C7435 C7434 1.387 . S
C7435 C7437 1.387 . S
H7436 C7443 0.950 . S
C7437 C7435 1.387 . S
C7437 C7439 1.390 . S
C7437 H7441 0.950 . S
H7438 C7434 0.950 . S
C7439 C7437 1.390 . S
C7439 C7440 1.387 . S
C7439 H7442 0.950 . S
C7440 C7439 1.387 . S
C7440 C7443 1.387 . S
H7441 C7437 0.950 . S
H7442 C7439 0.950 . S
C7443 C7434 1.390 . S
C7443 H7436 0.950 . S
C7443 C7440 1.387 . S
C7444 C7445 1.387 . S
C7444 H7448 0.950 . S
C7444 C7453 1.390 . S
C7445 C7444 1.387 . S
C7445 C7447 1.387 . S
H7446 C7453 0.950 . S
C7447 C7445 1.387 . S
C7447 C7449 1.390 . S
C7447 H7451 0.950 . S
H7448 C7444 0.950 . S
C7449 C7447 1.390 . S
C7449 C7450 1.387 . S
C7449 H7452 0.950 . S
C7450 C7449 1.387 . S
C7450 C7453 1.387 . S
H7451 C7447 0.950 . S
H7452 C7449 0.950 . S
C7453 C7444 1.390 . S
C7453 H7446 0.950 . S
C7453 C7450 1.387 . S
C7454 C7455 1.387 . S
C7454 H7458 0.950 . S
C7454 C7463 1.390 . S
C7455 C7454 1.387 . S
C7455 C7457 1.387 . S
H7456 C7463 0.950 . S
C7457 C7455 1.387 . S
C7457 C7459 1.390 . S
C7457 H7461 0.950 . S
H7458 C7454 0.950 . S
C7459 C7457 1.390 . S
C7459 C7460 1.387 . S
C7459 H7462 0.950 . S
C7460 C7459 1.387 . S
C7460 C7463 1.387 . S
H7461 C7457 0.950 . S
H7462 C7459 0.950 . S
C7463 C7454 1.390 . S
C7463 H7456 0.950 . S
C7463 C7460 1.387 . S
C7464 C7465 1.387 . S
C7464 H7468 0.950 . S
C7464 C7473 1.390 . S
C7465 C7464 1.387 . S
C7465 C7467 1.387 . S
H7466 C7473 0.950 . S
C7467 C7465 1.387 . S
C7467 C7469 1.390 . S
C7467 H7471 0.950 . S
H7468 C7464 0.950 . S
C7469 C7467 1.390 . S
C7469 C7470 1.387 . S
C7469 H7472 0.950 . S
C7470 C7469 1.387 . S
C7470 C7473 1.387 . S
H7471 C7467 0.950 . S
H7472 C7469 0.950 . S
C7473 C7464 1.390 . S
C7473 H7466 0.950 . S
C7473 C7470 1.387 . S
C7474 C7475 1.387 . S
C7474 H7478 0.950 . S
C7474 C7483 1.390 . S
C7475 C7474 1.387 . S
C7475 C7477 1.387 . S
H7476 C7483 0.950 . S
C7477 C7475 1.387 . S
C7477 C7479 1.390 . S
C7477 H7481 0.950 . S
H7478 C7474 0.950 . S
C7479 C7477 1.390 . S
C7479 C7480 1.387 . S
C7479 H7482 0.950 . S
C7480 C7479 1.387 . S
C7480 C7483 1.387 . S
H7481 C7477 0.950 . S
H7482 C7479 0.950 . S
C7483 C7474 1.390 . S
C7483 H7476 0.950 . S
C7483 C7480 1.387 . S
C7484 C7485 1.387 . S
C7484 H7488 0.950 . S
C7484 C7493 1.390 . S
C7485 C7484 1.387 . S
C7485 C7487 1.387 . S
H7486 C7493 0.950 . S
C7487 C7485 1.387 . S
C7487 C7489 1.390 . S
C7487 H7491 0.950 . S
H7488 C7484 0.950 . S
C7489 C7487 1.390 . S
C7489 C7490 1.387 . S
C7489 H7492 0.950 . S
C7490 C7489 1.387 . S
C7490 C7493 1.387 . S
H7491 C7487 0.950 . S
H7492 C7489 0.950 . S
C7493 C7484 1.390 . S
C7493 H7486 0.950 . S
C7493 C7490 1.387 . S
C7494 C7495 1.387 . S
C7494 H7498 0.950 . S
C7494 C7503 1.390 . S
C7495 C7494 1.387 . S
C7495 C7497 1.387 . S
H7496 C7503 0.950 . S
C7497 C7495 1.387 . S
C7497 C7499 1.390 . S
C7497 H7501 0.950 . S
H7498 C7494 0.950 . S
C7499 C7497 1.390 . S
C7499 C7500 1.387 . S
C7499 H7502 0.950 . S
C7500 C7499 1.387 . S
C7500 C7503 1.387 . S
H7501 C7497 0.950 . S
H7502 C7499 0.950 . S
C7503 C7494 1.390 . S
C7503 H7496 0.950 . S
C7503 C7500 1.387 . S
C7504 C7505 1.387 . S
C7504 H7508 0.950 . S
C7504 C7513 1.390 . S
C7505 C7504 1.387 . S
C7505 C7507 1.387 . S
H7506 C7513 0.950 . S
C7507 C7505 1.387 . S
C7507 C7509 1.390 . S
C7507 H7511 0.950 . S
H7508 C7504 0.950 . S
C7509 C7507 1.390 . S
C7509 C7510 1.387 . S
C7509 H7512 0.950 . S
C7510 C7509 1.387 . S
C7510 C7513 1.387 . S
H7511 C7507 0.950 . S
H7512 C7509 0.950 . S
C7513 C7504 1.390 . S
C7513 H7506 0.950 . S
C7513 C7510 1.387 . S
C7514 C7515 1.387 . S
C7514 H7518 0.950 . S
C7514 C7523 1.390 . S
C7515 C7514 1.387 . S
C7515 C7517 1.387 . S
H7516 C7523 0.950 . S
C7517 C7515 1.387 . S
C7517 C7519 1.390 . S
C7517 H7521 0.950 . S
H7518 C7514 0.950 . S
C7519 C7517 1.390 . S
C7519 C7520 1.387 . S
C7519 H7522 0.950 . S
C7520 C7519 1.387 . S
C7520 C7523 1.387 . S
H7521 C7517 0.950 . S
H7522 C7519 0.950 . S
C7523 C7514 1.390 . S
C7523 H7516 0.950 . S
C7523 C7520 1.387 . S
C7524 C7525 1.387 . S
C7524 H7528 0.950 . S
C7524 C7533 1.390 . S
C7525 C7524 1.387 . S
C7525 C7527 1.387 . S
H7526 C7533 0.950 . S
C7527 C7525 1.387 . S
C7527 C7529 1.390 . S
C7527 H7531 0.950 . S
H7528 C7524 0.950 . S
C7529 C7527 1.390 . S
C7529 C7530 1.387 . S
C7529 H7532 0.950 . S
C7530 C7529 1.387 . S
C7530 C7533 1.387 . S
H7531 C7527 0.950 . S
H7532 C7529 0.950 . S
C7533 C7524 1.390 . S
C7533 H7526 0.950 . S
C7533 C7530 1.387 . S
C7534 C7535 1.387 . S
C7534 H7538 0.950 . S
C7534 C7543 1.390 . S
C7535 C7534 1.387 . S
C7535 C7537 1.387 . S
H7536 C7543 0.950 . S
C7537 C7535 1.387 . S
C7537 C7539 1.390 . S
C7537 H7541 0.950 . S
H7538 C7534 0.950 . S
C7539 C7537 1.390 . S
C7539 C7540 1.387 . S
C7539 H7542 0.950 . S
C7540 C7539 1.387 . S
C7540 C7543 1.387 . S
H7541 C7537 0.950 . S
H7542 C7539 0.950 . S
C7543 C7534 1.390 . S
C7543 H7536 0.950 . S
C7543 C7540 1.387 . S
C7544 C7545 1.387 . S
C7544 H7548 0.950 . S
C7544 C7553 1.390 . S
C7545 C7544 1.387 . S
C7545 C7547 1.387 . S
H7546 C7553 0.950 . S
C7547 C7545 1.387 . S
C7547 C7549 1.390 . S
C7547 H7551 0.950 . S
H7548 C7544 0.950 . S
C7549 C7547 1.390 . S
C7549 C7550 1.387 . S
C7549 H7552 0.950 . S
C7550 C7549 1.387 . S
C7550 C7553 1.387 . S
H7551 C7547 0.950 . S
H7552 C7549 0.950 . S
C7553 C7544 1.390 . S
C7553 H7546 0.950 . S
C7553 C7550 1.387 . S
C7554 C7555 1.387 . S
C7554 H7558 0.950 . S
C7554 C7563 1.390 . S
C7555 C7554 1.387 . S
C7555 C7557 1.387 . S
H7556 C7563 0.950 . S
C7557 C7555 1.387 . S
C7557 C7559 1.390 . S
C7557 H7561 0.950 . S
H7558 C7554 0.950 . S
C7559 C7557 1.390 . S
C7559 C7560 1.387 . S
C7559 H7562 0.950 . S
C7560 C7559 1.387 . S
C7560 C7563 1.387 . S
H7561 C7557 0.950 . S
H7562 C7559 0.950 . S
C7563 C7554 1.390 . S
C7563 H7556 0.950 . S
C7563 C7560 1.387 . S
C7564 C7565 1.387 . S
C7564 H7568 0.950 . S
C7564 C7573 1.390 . S
C7565 C7564 1.387 . S
C7565 C7567 1.387 . S
H7566 C7573 0.950 . S
C7567 C7565 1.387 . S
C7567 C7569 1.390 . S
C7567 H7571 0.950 . S
H7568 C7564 0.950 . S
C7569 C7567 1.390 . S
C7569 C7570 1.387 . S
C7569 H7572 0.950 . S
C7570 C7569 1.387 . S
C7570 C7573 1.387 . S
H7571 C7567 0.950 . S
H7572 C7569 0.950 . S
C7573 C7564 1.390 . S
C7573 H7566 0.950 . S
C7573 C7570 1.387 . S
C7574 C7575 1.387 . S
C7574 H7578 0.950 . S
C7574 C7583 1.390 . S
C7575 C7574 1.387 . S
C7575 C7577 1.387 . S
H7576 C7583 0.950 . S
C7577 C7575 1.387 . S
C7577 C7579 1.390 . S
C7577 H7581 0.950 . S
H7578 C7574 0.950 . S
C7579 C7577 1.390 . S
C7579 C7580 1.387 . S
C7579 H7582 0.950 . S
C7580 C7579 1.387 . S
C7580 C7583 1.387 . S
H7581 C7577 0.950 . S
H7582 C7579 0.950 . S
C7583 C7574 1.390 . S
C7583 H7576 0.950 . S
C7583 C7580 1.387 . S
C7584 C7585 1.387 . S
C7584 H7588 0.950 . S
C7584 C7593 1.390 . S
C7585 C7584 1.387 . S
C7585 C7587 1.387 . S
H7586 C7593 0.950 . S
C7587 C7585 1.387 . S
C7587 C7589 1.390 . S
C7587 H7591 0.950 . S
H7588 C7584 0.950 . S
C7589 C7587 1.390 . S
C7589 C7590 1.387 . S
C7589 H7592 0.950 . S
C7590 C7589 1.387 . S
C7590 C7593 1.387 . S
H7591 C7587 0.950 . S
H7592 C7589 0.950 . S
C7593 C7584 1.390 . S
C7593 H7586 0.950 . S
C7593 C7590 1.387 . S
C7594 C7595 1.387 . S
C7594 H7598 0.950 . S
C7594 C7603 1.390 . S
C7595 C7594 1.387 . S
C7595 C7597 1.387 . S
H7596 C7603 0.950 . S
C7597 C7595 1.387 . S
C7597 C7599 1.390 . S
C7597 H7601 0.950 . S
H7598 C7594 0.950 . S
C7599 C7597 1.390 . S
C7599 C7600 1.387 . S
C7599 H7602 0.950 . S
C7600 C7599 1.387 . S
C7600 C7603 1.387 . S
H7601 C7597 0.950 . S
H7602 C7599 0.950 . S
C7603 C7594 1.390 . S
C7603 H7596 0.950 . S
C7603 C7600 1.387 . S
C7604 C7605 1.387 . S
C7604 H7608 0.950 . S
C7604 C7613 1.390 . S
C7605 C7604 1.387 . S
C7605 C7607 1.387 . S
H7606 C7613 0.950 . S
C7607 C7605 1.387 . S
C7607 C7609 1.390 . S
C7607 H7611 0.950 . S
H7608 C7604 0.950 . S
C7609 C7607 1.390 . S
C7609 C7610 1.387 . S
C7609 H7612 0.950 . S
C7610 C7609 1.387 . S
C7610 C7613 1.387 . S
H7611 C7607 0.950 . S
H7612 C7609 0.950 . S
C7613 C7604 1.390 . S
C7613 H7606 0.950 . S
C7613 C7610 1.387 . S
C7614 C7615 1.387 . S
C7614 H7618 0.950 . S
C7614 C7623 1.390 . S
C7615 C7614 1.387 . S
C7615 C7617 1.387 . S
H7616 C7623 0.950 . S
C7617 C7615 1.387 . S
C7617 C7619 1.390 . S
C7617 H7621 0.950 . S
H7618 C7614 0.950 . S
C7619 C7617 1.390 . S
C7619 C7620 1.387 . S
C7619 H7622 0.950 . S
C7620 C7619 1.387 . S
C7620 C7623 1.387 . S
H7621 C7617 0.950 . S
H7622 C7619 0.950 . S
C7623 C7614 1.390 . S
C7623 H7616 0.950 . S
C7623 C7620 1.387 . S
C7624 C7625 1.387 . S
C7624 H7628 0.950 . S
C7624 C7633 1.390 . S
C7625 C7624 1.387 . S
C7625 C7627 1.387 . S
H7626 C7633 0.950 . S
C7627 C7625 1.387 . S
C7627 C7629 1.390 . S
C7627 H7631 0.950 . S
H7628 C7624 0.950 . S
C7629 C7627 1.390 . S
C7629 C7630 1.387 . S
C7629 H7632 0.950 . S
C7630 C7629 1.387 . S
C7630 C7633 1.387 . S
H7631 C7627 0.950 . S
H7632 C7629 0.950 . S
C7633 C7624 1.390 . S
C7633 H7626 0.950 . S
C7633 C7630 1.387 . S
C7634 C7635 1.387 . S
C7634 H7638 0.950 . S
C7634 C7643 1.390 . S
C7635 C7634 1.387 . S
C7635 C7637 1.387 . S
H7636 C7643 0.950 . S
C7637 C7635 1.387 . S
C7637 C7639 1.390 . S
C7637 H7641 0.950 . S
H7638 C7634 0.950 . S
C7639 C7637 1.390 . S
C7639 C7640 1.387 . S
C7639 H7642 0.950 . S
C7640 C7639 1.387 . S
C7640 C7643 1.387 . S
H7641 C7637 0.950 . S
H7642 C7639 0.950 . S
C7643 C7634 1.390 . S
C7643 H7636 0.950 . S
C7643 C7640 1.387 . S
C7644 C7645 1.387 . S
C7644 H7648 0.950 . S
C7644 C7653 1.390 . S
C7645 C7644 1.387 . S
C7645 C7647 1.387 . S
H7646 C7653 0.950 . S
C7647 C7645 1.387 . S
C7647 C7649 1.390 . S
C7647 H7651 0.950 . S
H7648 C7644 0.950 . S
C7649 C7647 1.390 . S
C7649 C7650 1.387 . S
C7649 H7652 0.950 . S
C7650 C7649 1.387 . S
C7650 C7653 1.387 . S
H7651 C7647 0.950 . S
H7652 C7649 0.950 . S
C7653 C7644 1.390 . S
C7653 H7646 0.950 . S
C7653 C7650 1.387 . S
C7654 C7655 1.387 . S
C7654 H7658 0.950 . S
C7654 C7663 1.390 . S
C7655 C7654 1.387 . S
C7655 C7657 1.387 . S
H7656 C7663 0.950 . S
C7657 C7655 1.387 . S
C7657 C7659 1.390 . S
C7657 H7661 0.950 . S
H7658 C7654 0.950 . S
C7659 C7657 1.390 . S
C7659 C7660 1.387 . S
C7659 H7662 0.950 . S
C7660 C7659 1.387 . S
C7660 C7663 1.387 . S
H7661 C7657 0.950 . S
H7662 C7659 0.950 . S
C7663 C7654 1.390 . S
C7663 H7656 0.950 . S
C7663 C7660 1.387 . S
C7664 C7665 1.387 . S
C7664 H7668 0.950 . S
C7664 C7673 1.390 . S
C7665 C7664 1.387 . S
C7665 C7667 1.387 . S
H7666 C7673 0.950 . S
C7667 C7665 1.387 . S
C7667 C7669 1.390 . S
C7667 H7671 0.950 . S
H7668 C7664 0.950 . S
C7669 C7667 1.390 . S
C7669 C7670 1.387 . S
C7669 H7672 0.950 . S
C7670 C7669 1.387 . S
C7670 C7673 1.387 . S
H7671 C7667 0.950 . S
H7672 C7669 0.950 . S
C7673 C7664 1.390 . S
C7673 H7666 0.950 . S
C7673 C7670 1.387 . S
C7674 C7675 1.387 . S
C7674 H7678 0.950 . S
C7674 C7683 1.390 . S
C7675 C7674 1.387 . S
C7675 C7677 1.387 . S
H7676 C7683 0.950 . S
C7677 C7675 1.387 . S
C7677 C7679 1.390 . S
C7677 H7681 0.950 . S
H7678 C7674 0.950 . S
C7679 C7677 1.390 . S
C7679 C7680 1.387 . S
C7679 H7682 0.950 . S
C7680 C7679 1.387 . S
C7680 C7683 1.387 . S
H7681 C7677 0.950 . S
H7682 C7679 0.950 . S
C7683 C7674 1.390 . S
C7683 H7676 0.950 . S
C7683 C7680 1.387 . S
C7684 C7685 1.387 . S
C7684 H7688 0.950 . S
C7684 C7693 1.390 . S
C7685 C7684 1.387 . S
C7685 C7687 1.387 . S
H7686 C7693 0.950 . S
C7687 C7685 1.387 . S
C7687 C7689 1.390 . S
C7687 H7691 0.950 . S
H7688 C7684 0.950 . S
C7689 C7687 1.390 . S
C7689 C7690 1.387 . S
C7689 H7692 0.950 . S
C7690 C7689 1.387 . S
C7690 C7693 1.387 . S
H7691 C7687 0.950 . S
H7692 C7689 0.950 . S
C7693 C7684 1.390 . S
C7693 H7686 0.950 . S
C7693 C7690 1.387 . S
C7694 C7695 1.387 . S
C7694 H7698 0.950 . S
C7694 C7703 1.390 . S
C7695 C7694 1.387 . S
C7695 C7697 1.387 . S
H7696 C7703 0.950 . S
C7697 C7695 1.387 . S
C7697 C7699 1.390 . S
C7697 H7701 0.950 . S
H7698 C7694 0.950 . S
C7699 C7697 1.390 . S
C7699 C7700 1.387 . S
C7699 H7702 0.950 . S
C7700 C7699 1.387 . S
C7700 C7703 1.387 . S
H7701 C7697 0.950 . S
H7702 C7699 0.950 . S
C7703 C7694 1.390 . S
C7703 H7696 0.950 . S
C7703 C7700 1.387 . S
C7704 C7705 1.387 . S
C7704 H7708 0.950 . S
C7704 C7713 1.390 . S
C7705 C7704 1.387 . S
C7705 C7707 1.387 . S
H7706 C7713 0.950 . S
C7707 C7705 1.387 . S
C7707 C7709 1.390 . S
C7707 H7711 0.950 . S
H7708 C7704 0.950 . S
C7709 C7707 1.390 . S
C7709 C7710 1.387 . S
C7709 H7712 0.950 . S
C7710 C7709 1.387 . S
C7710 C7713 1.387 . S
H7711 C7707 0.950 . S
H7712 C7709 0.950 . S
C7713 C7704 1.390 . S
C7713 H7706 0.950 . S
C7713 C7710 1.387 . S
C7714 C7715 1.387 . S
C7714 H7718 0.950 . S
C7714 C7723 1.390 . S
C7715 C7714 1.387 . S
C7715 C7717 1.387 . S
H7716 C7723 0.950 . S
C7717 C7715 1.387 . S
C7717 C7719 1.390 . S
C7717 H7721 0.950 . S
H7718 C7714 0.950 . S
C7719 C7717 1.390 . S
C7719 C7720 1.387 . S
C7719 H7722 0.950 . S
C7720 C7719 1.387 . S
C7720 C7723 1.387 . S
H7721 C7717 0.950 . S
H7722 C7719 0.950 . S
C7723 C7714 1.390 . S
C7723 H7716 0.950 . S
C7723 C7720 1.387 . S
C7724 C7725 1.387 . S
C7724 H7728 0.950 . S
C7724 C7733 1.390 . S
C7725 C7724 1.387 . S
C7725 C7727 1.387 . S
H7726 C7733 0.950 . S
C7727 C7725 1.387 . S
C7727 C7729 1.390 . S
C7727 H7731 0.950 . S
H7728 C7724 0.950 . S
C7729 C7727 1.390 . S
C7729 C7730 1.387 . S
C7729 H7732 0.950 . S
C7730 C7729 1.387 . S
C7730 C7733 1.387 . S
H7731 C7727 0.950 . S
H7732 C7729 0.950 . S
C7733 C7724 1.390 . S
C7733 H7726 0.950 . S
C7733 C7730 1.387 . S
C7734 C7735 1.387 . S
C7734 H7738 0.950 . S
C7734 C7743 1.390 . S
C7735 C7734 1.387 . S
C7735 C7737 1.387 . S
H7736 C7743 0.950 . S
C7737 C7735 1.387 . S
C7737 C7739 1.390 . S
C7737 H7741 0.950 . S
H7738 C7734 0.950 . S
C7739 C7737 1.390 . S
C7739 C7740 1.387 . S
C7739 H7742 0.950 . S
C7740 C7739 1.387 . S
C7740 C7743 1.387 . S
H7741 C7737 0.950 . S
H7742 C7739 0.950 . S
C7743 C7734 1.390 . S
C7743 H7736 0.950 . S
C7743 C7740 1.387 . S
C7744 C7745 1.387 . S
C7744 H7748 0.950 . S
C7744 C7753 1.390 . S
C7745 C7744 1.387 . S
C7745 C7747 1.387 . S
H7746 C7753 0.950 . S
C7747 C7745 1.387 . S
C7747 C7749 1.390 . S
C7747 H7751 0.950 . S
H7748 C7744 0.950 . S
C7749 C7747 1.390 . S
C7749 C7750 1.387 . S
C7749 H7752 0.950 . S
C7750 C7749 1.387 . S
C7750 C7753 1.387 . S
H7751 C7747 0.950 . S
H7752 C7749 0.950 . S
C7753 C7744 1.390 . S
C7753 H7746 0.950 . S
C7753 C7750 1.387 . S
C7754 C7755 1.387 . S
C7754 H7758 0.950 . S
C7754 C7763 1.390 . S
C7755 C7754 1.387 . S
C7755 C7757 1.387 . S
H7756 C7763 0.950 . S
C7757 C7755 1.387 . S
C7757 C7759 1.390 . S
C7757 H7761 0.950 . S
H7758 C7754 0.950 . S
C7759 C7757 1.390 . S
C7759 C7760 1.387 . S
C7759 H7762 0.950 . S
C7760 C7759 1.387 . S
C7760 C7763 1.387 . S
H7761 C7757 0.950 . S
H7762 C7759 0.950 . S
C7763 C7754 1.390 . S
C7763 H7756 0.950 . S
C7763 C7760 1.387 . S
C7764 C7765 1.387 . S
C7764 H7768 0.950 . S
C7764 C7773 1.390 . S
C7765 C7764 1.387 . S
C7765 C7767 1.387 . S
H7766 C7773 0.950 . S
C7767 C7765 1.387 . S
C7767 C7769 1.390 . S
C7767 H7771 0.950 . S
H7768 C7764 0.950 . S
C7769 C7767 1.390 . S
C7769 C7770 1.387 . S
C7769 H7772 0.950 . S
C7770 C7769 1.387 . S
C7770 C7773 1.387 . S
H7771 C7767 0.950 . S
H7772 C7769 0.950 . S
C7773 C7764 1.390 . S
C7773 H7766 0.950 . S
C7773 C7770 1.387 . S
C7774 C7775 1.387 . S
C7774 H7778 0.950 . S
C7774 C7783 1.390 . S
C7775 C7774 1.387 . S
C7775 C7777 1.387 . S
H7776 C7783 0.950 . S
C7777 C7775 1.387 . S
C7777 C7779 1.390 . S
C7777 H7781 0.950 . S
H7778 C7774 0.950 . S
C7779 C7777 1.390 . S
C7779 C7780 1.387 . S
C7779 H7782 0.950 . S
C7780 C7779 1.387 . S
C7780 C7783 1.387 . S
H7781 C7777 0.950 . S
H7782 C7779 0.950 . S
C7783 C7774 1.390 . S
C7783 H7776 0.950 . S
C7783 C7780 1.387 . S
C7784 C7785 1.387 . S
C7784 H7788 0.950 . S
C7784 C7793 1.390 . S
C7785 C7784 1.387 . S
C7785 C7787 1.387 . S
H7786 C7793 0.950 . S
C7787 C7785 1.387 . S
C7787 C7789 1.390 . S
C7787 H7791 0.950 . S
H7788 C7784 0.950 . S
C7789 C7787 1.390 . S
C7789 C7790 1.387 . S
C7789 H7792 0.950 . S
C7790 C7789 1.387 . S
C7790 C7793 1.387 . S
H7791 C7787 0.950 . S
H7792 C7789 0.950 . S
C7793 C7784 1.390 . S
C7793 H7786 0.950 . S
C7793 C7790 1.387 . S
C7794 C7795 1.387 . S
C7794 H7798 0.950 . S
C7794 C7803 1.390 . S
C7795 C7794 1.387 . S
C7795 C7797 1.387 . S
H7796 C7803 0.950 . S
C7797 C7795 1.387 . S
C7797 C7799 1.390 . S
C7797 H7801 0.950 . S
H7798 C7794 0.950 . S
C7799 C7797 1.390 . S
C7799 C7800 1.387 . S
C7799 H7802 0.950 . S
C7800 C7799 1.387 . S
C7800 C7803 1.387 . S
H7801 C7797 0.950 . S
H7802 C7799 0.950 . S
C7803 C7794 1.390 . S
C7803 H7796 0.950 . S
C7803 C7800 1.387 . S
C7804 C7805 1.387 . S
C7804 H7808 0.950 . S
C7804 C7813 1.390 . S
C7805 C7804 1.387 . S
C7805 C7807 1.387 . S
H7806 C7813 0.950 . S
C7807 C7805 1.387 . S
C7807 C7809 1.390 . S
C7807 H7811 0.950 . S
H7808 C7804 0.950 . S
C7809 C7807 1.390 . S
C7809 C7810 1.387 . S
C7809 H7812 0.950 . S
C7810 C7809 1.387 . S
C7810 C7813 1.387 . S
H7811 C7807 0.950 . S
H7812 C7809 0.950 . S
C7813 C7804 1.390 . S
C7813 H7806 0.950 . S
C7813 C7810 1.387 . S
C7814 C7815 1.387 . S
C7814 H7818 0.950 . S
C7814 C7823 1.390 . S
C7815 C7814 1.387 . S
C7815 C7817 1.387 . S
H7816 C7823 0.950 . S
C7817 C7815 1.387 . S
C7817 C7819 1.390 . S
C7817 H7821 0.950 . S
H7818 C7814 0.950 . S
C7819 C7817 1.390 . S
C7819 C7820 1.387 . S
C7819 H7822 0.950 . S
C7820 C7819 1.387 . S
C7820 C7823 1.387 . S
H7821 C7817 0.950 . S
H7822 C7819 0.950 . S
C7823 C7814 1.390 . S
C7823 H7816 0.950 . S
C7823 C7820 1.387 . S
C7824 C7825 1.387 . S
C7824 H7828 0.950 . S
C7824 C7833 1.390 . S
C7825 C7824 1.387 . S
C7825 C7827 1.387 . S
H7826 C7833 0.950 . S
C7827 C7825 1.387 . S
C7827 C7829 1.390 . S
C7827 H7831 0.950 . S
H7828 C7824 0.950 . S
C7829 C7827 1.390 . S
C7829 C7830 1.387 . S
C7829 H7832 0.950 . S
C7830 C7829 1.387 . S
C7830 C7833 1.387 . S
H7831 C7827 0.950 . S
H7832 C7829 0.950 . S
C7833 C7824 1.390 . S
C7833 H7826 0.950 . S
C7833 C7830 1.387 . S
C7834 C7835 1.387 . S
C7834 H7838 0.950 . S
C7834 C7843 1.390 . S
C7835 C7834 1.387 . S
C7835 C7837 1.387 . S
H7836 C7843 0.950 . S
C7837 C7835 1.387 . S
C7837 C7839 1.390 . S
C7837 H7841 0.950 . S
H7838 C7834 0.950 . S
C7839 C7837 1.390 . S
C7839 C7840 1.387 . S
C7839 H7842 0.950 . S
C7840 C7839 1.387 . S
C7840 C7843 1.387 . S
H7841 C7837 0.950 . S
H7842 C7839 0.950 . S
C7843 C7834 1.390 . S
C7843 H7836 0.950 . S
C7843 C7840 1.387 . S
C7844 C7845 1.387 . S
C7844 H7848 0.950 . S
C7844 C7853 1.390 . S
C7845 C7844 1.387 . S
C7845 C7847 1.387 . S
H7846 C7853 0.950 . S
C7847 C7845 1.387 . S
C7847 C7849 1.390 . S
C7847 H7851 0.950 . S
H7848 C7844 0.950 . S
C7849 C7847 1.390 . S
C7849 C7850 1.387 . S
C7849 H7852 0.950 . S
C7850 C7849 1.387 . S
C7850 C7853 1.387 . S
H7851 C7847 0.950 . S
H7852 C7849 0.950 . S
C7853 C7844 1.390 . S
C7853 H7846 0.950 . S
C7853 C7850 1.387 . S
C7854 C7855 1.387 . S
C7854 H7858 0.950 . S
C7854 C7863 1.390 . S
C7855 C7854 1.387 . S
C7855 C7857 1.387 . S
H7856 C7863 0.950 . S
C7857 C7855 1.387 . S
C7857 C7859 1.390 . S
C7857 H7861 0.950 . S
H7858 C7854 0.950 . S
C7859 C7857 1.390 . S
C7859 C7860 1.387 . S
C7859 H7862 0.950 . S
C7860 C7859 1.387 . S
C7860 C7863 1.387 . S
H7861 C7857 0.950 . S
H7862 C7859 0.950 . S
C7863 C7854 1.390 . S
C7863 H7856 0.950 . S
C7863 C7860 1.387 . S
C7864 C7865 1.387 . S
C7864 H7868 0.950 . S
C7864 C7873 1.390 . S
C7865 C7864 1.387 . S
C7865 C7867 1.387 . S
H7866 C7873 0.950 . S
C7867 C7865 1.387 . S
C7867 C7869 1.390 . S
C7867 H7871 0.950 . S
H7868 C7864 0.950 . S
C7869 C7867 1.390 . S
C7869 C7870 1.387 . S
C7869 H7872 0.950 . S
C7870 C7869 1.387 . S
C7870 C7873 1.387 . S
H7871 C7867 0.950 . S
H7872 C7869 0.950 . S
C7873 C7864 1.390 . S
C7873 H7866 0.950 . S
C7873 C7870 1.387 . S
C7874 C7875 1.387 . S
C7874 H7878 0.950 . S
C7874 C7883 1.390 . S
C7875 C7874 1.387 . S
C7875 C7877 1.387 . S
H7876 C7883 0.950 . S
C7877 C7875 1.387 . S
C7877 C7879 1.390 . S
C7877 H7881 0.950 . S
H7878 C7874 0.950 . S
C7879 C7877 1.390 . S
C7879 C7880 1.387 . S
C7879 H7882 0.950 . S
C7880 C7879 1.387 . S
C7880 C7883 1.387 . S
H7881 C7877 0.950 . S
H7882 C7879 0.950 . S
C7883 C7874 1.390 . S
C7883 H7876 0.950 . S
C7883 C7880 1.387 . S
C7884 C7885 1.387 . S
C7884 H7888 0.950 . S
C7884 C7893 1.390 . S
C7885 C7884 1.387 . S
C7885 C7887 1.387 . S
H7886 C7893 0.950 . S
C7887 C7885 1.387 . S
C7887 C7889 1.390 . S
C7887 H7891 0.950 . S
H7888 C7884 0.950 . S
C7889 C7887 1.390 . S
C7889 C7890 1.387 . S
C7889 H7892 0.950 . S
C7890 C7889 1.387 . S
C7890 C7893 1.387 . S
H7891 C7887 0.950 . S
H7892 C7889 0.950 . S
C7893 C7884 1.390 . S
C7893 H7886 0.950 . S
C7893 C7890 1.387 . S
C7894 C7895 1.387 . S
C7894 H7898 0.950 . S
C7894 C7903 1.390 . S
C7895 C7894 1.387 . S
C7895 C7897 1.387 . S
H7896 C7903 0.950 . S
C7897 C7895 1.387 . S
C7897 C7899 1.390 . S
C7897 H7901 0.950 . S
H7898 C7894 0.950 . S
C7899 C7897 1.390 . S
C7899 C7900 1.387 . S
C7899 H7902 0.950 . S
C7900 C7899 1.387 . S
C7900 C7903 1.387 . S
H7901 C7897 0.950 . S
H7902 C7899 0.950 . S
C7903 C7894 1.390 . S
C7903 H7896 0.950 . S
C7903 C7900 1.387 . S
C7904 C7905 1.387 . S
C7904 H7908 0.950 . S
C7904 C7913 1.390 . S
C7905 C7904 1.387 . S
C7905 C7907 1.387 . S
H7906 C7913 0.950 . S
C7907 C7905 1.387 . S
C7907 C7909 1.390 . S
C7907 H7911 0.950 . S
H7908 C7904 0.950 . S
C7909 C7907 1.390 . S
C7909 C7910 1.387 . S
C7909 H7912 0.950 . S
C7910 C7909 1.387 . S
C7910 C7913 1.387 . S
H7911 C7907 0.950 . S
H7912 C7909 0.950 . S
C7913 C7904 1.390 . S
C7913 H7906 0.950 . S
C7913 C7910 1.387 . S
C7914 C7915 1.387 . S
C7914 H7918 0.950 . S
C7914 C7923 1.390 . S
C7915 C7914 1.387 . S
C7915 C7917 1.387 . S
H7916 C7923 0.950 . S
C7917 C7915 1.387 . S
C7917 C7919 1.390 . S
C7917 H7921 0.950 . S
H7918 C7914 0.950 . S
C7919 C7917 1.390 . S
C7919 C7920 1.387 . S
C7919 H7922 0.950 . S
C7920 C7919 1.387 . S
C7920 C7923 1.387 . S
H7921 C7917 0.950 . S
H7922 C7919 0.950 . S
C7923 C7914 1.390 . S
C7923 H7916 0.950 . S
C7923 C7920 1.387 . S
C7924 C7925 1.387 . S
C7924 H7928 0.950 . S
C7924 C7933 1.390 . S
C7925 C7924 1.387 . S
C7925 C7927 1.387 . S
H7926 C7933 0.950 . S
C7927 C7925 1.387 . S
C7927 C7929 1.390 . S
C7927 H7931 0.950 . S
H7928 C7924 0.950 . S
C7929 C7927 1.390 . S
C7929 C7930 1.387 . S
C7929 H7932 0.950 . S
C7930 C7929 1.387 . S
C7930 C7933 1.387 . S
H7931 C7927 0.950 . S
H7932 C7929 0.950 . S
C7933 C7924 1.390 . S
C7933 H7926 0.950 . S
C7933 C7930 1.387 . S
C7934 C7935 1.387 . S
C7934 H7938 0.950 . S
C7934 C7943 1.390 . S
C7935 C7934 1.387 . S
C7935 C7937 1.387 . S
H7936 C7943 0.950 . S
C7937 C7935 1.387 . S
C7937 C7939 1.390 . S
C7937 H7941 0.950 . S
H7938 C7934 0.950 . S
C7939 C7937 1.390 . S
C7939 C7940 1.387 . S
C7939 H7942 0.950 . S
C7940 C7939 1.387 . S
C7940 C7943 1.387 . S
H7941 C7937 0.950 . S
H7942 C7939 0.950 . S
C7943 C7934 1.390 . S
C7943 H7936 0.950 . S
C7943 C7940 1.387 . S
C7944 C7945 1.387 . S
C7944 H7948 0.950 . S
C7944 C7953 1.390 . S
C7945 C7944 1.387 . S
C7945 C7947 1.387 . S
H7946 C7953 0.950 . S
C7947 C7945 1.387 . S
C7947 C7949 1.390 . S
C7947 H7951 0.950 . S
H7948 C7944 0.950 . S
C7949 C7947 1.390 . S
C7949 C7950 1.387 . S
C7949 H7952 0.950 . S
C7950 C7949 1.387 . S
C7950 C7953 1.387 . S
H7951 C7947 0.950 . S
H7952 C7949 0.950 . S
C7953 C7944 1.390 . S
C7953 H7946 0.950 . S
C7953 C7950 1.387 . S
C7954 C7955 1.387 . S
C7954 H7958 0.950 . S
C7954 C7963 1.390 . S
C7955 C7954 1.387 . S
C7955 C7957 1.387 . S
H7956 C7963 0.950 . S
C7957 C7955 1.387 . S
C7957 C7959 1.390 . S
C7957 H7961 0.950 . S
H7958 C7954 0.950 . S
C7959 C7957 1.390 . S
C7959 C7960 1.387 . S
C7959 H7962 0.950 . S
C7960 C7959 1.387 . S
C7960 C7963 1.387 . S
H7961 C7957 0.950 . S
H7962 C7959 0.950 . S
C7963 C7954 1.390 . S
C7963 H7956 0.950 . S
C7963 C7960 1.387 . S
C7964 C7965 1.387 . S
C7964 H7968 0.950 . S
C7964 C7973 1.390 . S
C7965 C7964 1.387 . S
C7965 C7967 1.387 . S
H7966 C7973 0.950 . S
C7967 C7965 1.387 . S
C7967 C7969 1.390 . S
C7967 H7971 0.950 . S
H7968 C7964 0.950 . S
C7969 C7967 1.390 . S
C7969 C7970 1.387 . S
C7969 H7972 0.950 . S
C7970 C7969 1.387 . S
C7970 C7973 1.387 . S
H7971 C7967 0.950 . S
H7972 C7969 0.950 . S
C7973 C7964 1.390 . S
C7973 H7966 0.950 . S
C7973 C7970 1.387 . S
C7974 C7975 1.387 . S
C7974 H7978 0.950 . S
C7974 C7983 1.390 . S
C7975 C7974 1.387 . S
C7975 C7977 1.387 . S
H7976 C7983 0.950 . S
C7977 C7975 1.387 . S
C7977 C7979 1.390 . S
C7977 H7981 0.950 . S
H7978 C7974 0.950 . S
C7979 C7977 1.390 . S
C7979 C7980 1.387 . S
C7979 H7982 0.950 . S
C7980 C7979 1.387 . S
C7980 C7983 1.387 . S
H7981 C7977 0.950 . S
H7982 C7979 0.950 . S
C7983 C7974 1.390 . S
C7983 H7976 0.950 . S
C7983 C7980 1.387 . S
C7984 C7985 1.387 . S
C7984 H7988 0.950 . S
C7984 C7993 1.390 . S
C7985 C7984 1.387 . S
C7985 C7987 1.387 . S
H7986 C7993 0.950 . S
C7987 C7985 1.387 . S
C7987 C7989 1.390 . S
C7987 H7991 0.950 . S
H7988 C7984 0.950 . S
C7989 C7987 1.390 . S
C7989 C7990 1.387 . S
C7989 H7992 0.950 . S
C7990 C7989 1.387 . S
C7990 C7993 1.387 . S
H7991 C7987 0.950 . S
H7992 C7989 0.950 . S
C7993 C7984 1.390 . S
C7993 H7986 0.950 . S
C7993 C7990 1.387 . S
C7994 C7995 1.387 . S
C7994 H7998 0.950 . S
C7994 C8003 1.390 . S
C7995 C7994 1.387 . S
C7995 C7997 1.387 . S
H7996 C8003 0.950 . S
C7997 C7995 1.387 . S
C7997 C7999 1.390 . S
C7997 H8001 0.950 . S
H7998 C7994 0.950 . S
C7999 C7997 1.390 . S
C7999 C8000 1.387 . S
C7999 H8002 0.950 . S
C8000 C7999 1.387 . S
C8000 C8003 1.387 . S
H8001 C7997 0.950 . S
H8002 C7999 0.950 . S
C8003 C7994 1.390 . S
C8003 H7996 0.950 . S
C8003 C8000 1.387 . S
C8004 C8005 1.387 . S
C8004 H8008 0.950 . S
C8004 C8013 1.390 . S
C8005 C8004 1.387 . S
C8005 C8007 1.387 . S
H8006 C8013 0.950 . S
C8007 C8005 1.387 . S
C8007 C8009 1.390 . S
C8007 H8011 0.950 . S
H8008 C8004 0.950 . S
C8009 C8007 1.390 . S
C8009 C8010 1.387 . S
C8009 H8012 0.950 . S
C8010 C8009 1.387 . S
C8010 C8013 1.387 . S
H8011 C8007 0.950 . S
H8012 C8009 0.950 . S
C8013 C8004 1.390 . S
C8013 H8006 0.950 . S
C8013 C8010 1.387 . S
C8014 C8015 1.387 . S
C8014 H8018 0.950 . S
C8014 C8023 1.390 . S
C8015 C8014 1.387 . S
C8015 C8017 1.387 . S
H8016 C8023 0.950 . S
C8017 C8015 1.387 . S
C8017 C8019 1.390 . S
C8017 H8021 0.950 . S
H8018 C8014 0.950 . S
C8019 C8017 1.390 . S
C8019 C8020 1.387 . S
C8019 H8022 0.950 . S
C8020 C8019 1.387 . S
C8020 C8023 1.387 . S
H8021 C8017 0.950 . S
H8022 C8019 0.950 . S
C8023 C8014 1.390 . S
C8023 H8016 0.950 . S
C8023 C8020 1.387 . S
C8024 C8025 1.387 . S
C8024 H8028 0.950 . S
C8024 C8033 1.390 . S
C8025 C8024 1.387 . S
C8025 C8027 1.387 . S
H8026 C8033 0.950 . S
C8027 C8025 1.387 . S
C8027 C8029 1.390 . S
C8027 H8031 0.950 . S
H8028 C8024 0.950 . S
C8029 C8027 1.390 . S
C8029 C8030 1.387 . S
C8029 H8032 0.950 . S
C8030 C8029 1.387 . S
C8030 C8033 1.387 . S
H8031 C8027 0.950 . S
H8032 C8029 0.950 . S
C8033 C8024 1.390 . S
C8033 H8026 0.950 . S
C8033 C8030 1.387 . S
C8034 C8035 1.387 . S
C8034 H8038 0.950 . S
C8034 C8043 1.390 . S
C8035 C8034 1.387 . S
C8035 C8037 1.387 . S
H8036 C8043 0.950 . S
C8037 C8035 1.387 . S
C8037 C8039 1.390 . S
C8037 H8041 0.950 . S
H8038 C8034 0.950 . S
C8039 C8037 1.390 . S
C8039 C8040 1.387 . S
C8039 H8042 0.950 . S
C8040 C8039 1.387 . S
C8040 C8043 1.387 . S
H8041 C8037 0.950 . S
H8042 C8039 0.950 . S
C8043 C8034 1.390 . S
C8043 H8036 0.950 . S
C8043 C8040 1.387 . S
C8044 C8045 1.387 . S
C8044 H8048 0.950 . S
C8044 C8053 1.390 . S
C8045 C8044 1.387 . S
C8045 C8047 1.387 . S
H8046 C8053 0.950 . S
C8047 C8045 1.387 . S
C8047 C8049 1.390 . S
C8047 H8051 0.950 . S
H8048 C8044 0.950 . S
C8049 C8047 1.390 . S
C8049 C8050 1.387 . S
C8049 H8052 0.950 . S
C8050 C8049 1.387 . S
C8050 C8053 1.387 . S
H8051 C8047 0.950 . S
H8052 C8049 0.950 . S
C8053 C8044 1.390 . S
C8053 H8046 0.950 . S
C8053 C8050 1.387 . S
C8054 C8055 1.387 . S
C8054 H8058 0.950 . S
C8054 C8063 1.390 . S
C8055 C8054 1.387 . S
C8055 C8057 1.387 . S
H8056 C8063 0.950 . S
C8057 C8055 1.387 . S
C8057 C8059 1.390 . S
C8057 H8061 0.950 . S
H8058 C8054 0.950 . S
C8059 C8057 1.390 . S
C8059 C8060 1.387 . S
C8059 H8062 0.950 . S
C8060 C8059 1.387 . S
C8060 C8063 1.387 . S
H8061 C8057 0.950 . S
H8062 C8059 0.950 . S
C8063 C8054 1.390 . S
C8063 H8056 0.950 . S
C8063 C8060 1.387 . S
C8064 C8065 1.387 . S
C8064 H8068 0.950 . S
C8064 C8073 1.390 . S
C8065 C8064 1.387 . S
C8065 C8067 1.387 . S
H8066 C8073 0.950 . S
C8067 C8065 1.387 . S
C8067 C8069 1.390 . S
C8067 H8071 0.950 . S
H8068 C8064 0.950 . S
C8069 C8067 1.390 . S
C8069 C8070 1.387 . S
C8069 H8072 0.950 . S
C8070 C8069 1.387 . S
C8070 C8073 1.387 . S
H8071 C8067 0.950 . S
H8072 C8069 0.950 . S
C8073 C8064 1.390 . S
C8073 H8066 0.950 . S
C8073 C8070 1.387 . S
C8074 C8075 1.387 . S
C8074 H8078 0.950 . S
C8074 C8083 1.390 . S
C8075 C8074 1.387 . S
C8075 C8077 1.387 . S
H8076 C8083 0.950 . S
C8077 C8075 1.387 . S
C8077 C8079 1.390 . S
C8077 H8081 0.950 . S
H8078 C8074 0.950 . S
C8079 C8077 1.390 . S
C8079 C8080 1.387 . S
C8079 H8082 0.950 . S
C8080 C8079 1.387 . S
C8080 C8083 1.387 . S
H8081 C8077 0.950 . S
H8082 C8079 0.950 . S
C8083 C8074 1.390 . S
C8083 H8076 0.950 . S
C8083 C8080 1.387 . S
C8084 C8085 1.387 . S
C8084 H8088 0.950 . S
C8084 C8093 1.390 . S
C8085 C8084 1.387 . S
C8085 C8087 1.387 . S
H8086 C8093 0.950 . S
C8087 C8085 1.387 . S
C8087 C8089 1.390 . S
C8087 H8091 0.950 . S
H8088 C8084 0.950 . S
C8089 C8087 1.390 . S
C8089 C8090 1.387 . S
C8089 H8092 0.950 . S
C8090 C8089 1.387 . S
C8090 C8093 1.387 . S
H8091 C8087 0.950 . S
H8092 C8089 0.950 . S
C8093 C8084 1.390 . S
C8093 H8086 0.950 . S
C8093 C8090 1.387 . S
C8094 C8095 1.387 . S
C8094 H8098 0.950 . S
C8094 C8103 1.390 . S
C8095 C8094 1.387 . S
C8095 C8097 1.387 . S
H8096 C8103 0.950 . S
C8097 C8095 1.387 . S
C8097 C8099 1.390 . S
C8097 H8101 0.950 . S
H8098 C8094 0.950 . S
C8099 C8097 1.390 . S
C8099 C8100 1.387 . S
C8099 H8102 0.950 . S
C8100 C8099 1.387 . S
C8100 C8103 1.387 . S
H8101 C8097 0.950 . S
H8102 C8099 0.950 . S
C8103 C8094 1.390 . S
C8103 H8096 0.950 . S
C8103 C8100 1.387 . S
C8104 C8105 1.387 . S
C8104 H8108 0.950 . S
C8104 C8113 1.390 . S
C8105 C8104 1.387 . S
C8105 C8107 1.387 . S
H8106 C8113 0.950 . S
C8107 C8105 1.387 . S
C8107 C8109 1.390 . S
C8107 H8111 0.950 . S
H8108 C8104 0.950 . S
C8109 C8107 1.390 . S
C8109 C8110 1.387 . S
C8109 H8112 0.950 . S
C8110 C8109 1.387 . S
C8110 C8113 1.387 . S
H8111 C8107 0.950 . S
H8112 C8109 0.950 . S
C8113 C8104 1.390 . S
C8113 H8106 0.950 . S
C8113 C8110 1.387 . S
C8114 C8115 1.387 . S
C8114 H8118 0.950 . S
C8114 C8123 1.390 . S
C8115 C8114 1.387 . S
C8115 C8117 1.387 . S
H8116 C8123 0.950 . S
C8117 C8115 1.387 . S
C8117 C8119 1.390 . S
C8117 H8121 0.950 . S
H8118 C8114 0.950 . S
C8119 C8117 1.390 . S
C8119 C8120 1.387 . S
C8119 H8122 0.950 . S
C8120 C8119 1.387 . S
C8120 C8123 1.387 . S
H8121 C8117 0.950 . S
H8122 C8119 0.950 . S
C8123 C8114 1.390 . S
C8123 H8116 0.950 . S
C8123 C8120 1.387 . S
C8124 C8125 1.387 . S
C8124 H8128 0.950 . S
C8124 C8133 1.390 . S
C8125 C8124 1.387 . S
C8125 C8127 1.387 . S
H8126 C8133 0.950 . S
C8127 C8125 1.387 . S
C8127 C8129 1.390 . S
C8127 H8131 0.950 . S
H8128 C8124 0.950 . S
C8129 C8127 1.390 . S
C8129 C8130 1.387 . S
C8129 H8132 0.950 . S
C8130 C8129 1.387 . S
C8130 C8133 1.387 . S
H8131 C8127 0.950 . S
H8132 C8129 0.950 . S
C8133 C8124 1.390 . S
C8133 H8126 0.950 . S
C8133 C8130 1.387 . S
C8134 C8135 1.387 . S
C8134 H8138 0.950 . S
C8134 C8143 1.390 . S
C8135 C8134 1.387 . S
C8135 C8137 1.387 . S
H8136 C8143 0.950 . S
C8137 C8135 1.387 . S
C8137 C8139 1.390 . S
C8137 H8141 0.950 . S
H8138 C8134 0.950 . S
C8139 C8137 1.390 . S
C8139 C8140 1.387 . S
C8139 H8142 0.950 . S
C8140 C8139 1.387 . S
C8140 C8143 1.387 . S
H8141 C8137 0.950 . S
H8142 C8139 0.950 . S
C8143 C8134 1.390 . S
C8143 H8136 0.950 . S
C8143 C8140 1.387 . S
C8144 C8145 1.387 . S
C8144 H8148 0.950 . S
C8144 C8153 1.390 . S
C8145 C8144 1.387 . S
C8145 C8147 1.387 . S
H8146 C8153 0.950 . S
C8147 C8145 1.387 . S
C8147 C8149 1.390 . S
C8147 H8151 0.950 . S
H8148 C8144 0.950 . S
C8149 C8147 1.390 . S
C8149 C8150 1.387 . S
C8149 H8152 0.950 . S
C8150 C8149 1.387 . S
C8150 C8153 1.387 . S
H8151 C8147 0.950 . S
H8152 C8149 0.950 . S
C8153 C8144 1.390 . S
C8153 H8146 0.950 . S
C8153 C8150 1.387 . S
C8154 C8155 1.387 . S
C8154 H8158 0.950 . S
C8154 C8163 1.390 . S
C8155 C8154 1.387 . S
C8155 C8157 1.387 . S
H8156 C8163 0.950 . S
C8157 C8155 1.387 . S
C8157 C8159 1.390 . S
C8157 H8161 0.950 . S
H8158 C8154 0.950 . S
C8159 C8157 1.390 . S
C8159 C8160 1.387 . S
C8159 H8162 0.950 . S
C8160 C8159 1.387 . S
C8160 C8163 1.387 . S
H8161 C8157 0.950 . S
H8162 C8159 0.950 . S
C8163 C8154 1.390 . S
C8163 H8156 0.950 . S
C8163 C8160 1.387 . S
C8164 C8165 1.387 . S
C8164 H8168 0.950 . S
C8164 C8173 1.390 . S
C8165 C8164 1.387 . S
C8165 C8167 1.387 . S
H8166 C8173 0.950 . S
C8167 C8165 1.387 . S
C8167 C8169 1.390 . S
C8167 H8171 0.950 . S
H8168 C8164 0.950 . S
C8169 C8167 1.390 . S
C8169 C8170 1.387 . S
C8169 H8172 0.950 . S
C8170 C8169 1.387 . S
C8170 C8173 1.387 . S
H8171 C8167 0.950 . S
H8172 C8169 0.950 . S
C8173 C8164 1.390 . S
C8173 H8166 0.950 . S
C8173 C8170 1.387 . S
C8174 C8175 1.387 . S
C8174 H8178 0.950 . S
C8174 C8183 1.390 . S
C8175 C8174 1.387 . S
C8175 C8177 1.387 . S
H8176 C8183 0.950 . S
C8177 C8175 1.387 . S
C8177 C8179 1.390 . S
C8177 H8181 0.950 . S
H8178 C8174 0.950 . S
C8179 C8177 1.390 . S
C8179 C8180 1.387 . S
C8179 H8182 0.950 . S
C8180 C8179 1.387 . S
C8180 C8183 1.387 . S
H8181 C8177 0.950 . S
H8182 C8179 0.950 . S
C8183 C8174 1.390 . S
C8183 H8176 0.950 . S
C8183 C8180 1.387 . S
C8184 C8185 1.387 . S
C8184 H8188 0.950 . S
C8184 C8193 1.390 . S
C8185 C8184 1.387 . S
C8185 C8187 1.387 . S
H8186 C8193 0.950 . S
C8187 C8185 1.387 . S
C8187 C8189 1.390 . S
C8187 H8191 0.950 . S
H8188 C8184 0.950 . S
C8189 C8187 1.390 . S
C8189 C8190 1.387 . S
C8189 H8192 0.950 . S
C8190 C8189 1.387 . S
C8190 C8193 1.387 . S
H8191 C8187 0.950 . S
H8192 C8189 0.950 . S
C8193 C8184 1.390 . S
C8193 H8186 0.950 . S
C8193 C8190 1.387 . S
C8194 C8195 1.387 . S
C8194 H8198 0.950 . S
C8194 C8203 1.390 . S
C8195 C8194 1.387 . S
C8195 C8197 1.387 . S
H8196 C8203 0.950 . S
C8197 C8195 1.387 . S
C8197 C8199 1.390 . S
C8197 H8201 0.950 . S
H8198 C8194 0.950 . S
C8199 C8197 1.390 . S
C8199 C8200 1.387 . S
C8199 H8202 0.950 . S
C8200 C8199 1.387 . S
C8200 C8203 1.387 . S
H8201 C8197 0.950 . S
H8202 C8199 0.950 . S
C8203 C8194 1.390 . S
C8203 H8196 0.950 . S
C8203 C8200 1.387 . S
C8204 C8205 1.387 . S
C8204 H8208 0.950 . S
C8204 C8213 1.390 . S
C8205 C8204 1.387 . S
C8205 C8207 1.387 . S
H8206 C8213 0.950 . S
C8207 C8205 1.387 . S
C8207 C8209 1.390 . S
C8207 H8211 0.950 . S
H8208 C8204 0.950 . S
C8209 C8207 1.390 . S
C8209 C8210 1.387 . S
C8209 H8212 0.950 . S
C8210 C8209 1.387 . S
C8210 C8213 1.387 . S
H8211 C8207 0.950 . S
H8212 C8209 0.950 . S
C8213 C8204 1.390 . S
C8213 H8206 0.950 . S
C8213 C8210 1.387 . S
C8214 C8215 1.387 . S
C8214 H8218 0.950 . S
C8214 C8223 1.390 . S
C8215 C8214 1.387 . S
C8215 C8217 1.387 . S
H8216 C8223 0.950 . S
C8217 C8215 1.387 . S
C8217 C8219 1.390 . S
C8217 H8221 0.950 . S
H8218 C8214 0.950 . S
C8219 C8217 1.390 . S
C8219 C8220 1.387 . S
C8219 H8222 0.950 . S
C8220 C8219 1.387 . S
C8220 C8223 1.387 . S
H8221 C8217 0.950 . S
H8222 C8219 0.950 . S
C8223 C8214 1.390 . S
C8223 H8216 0.950 . S
C8223 C8220 1.387 . S
C8224 C8225 1.387 . S
C8224 H8228 0.950 . S
C8224 C8233 1.390 . S
C8225 C8224 1.387 . S
C8225 C8227 1.387 . S
H8226 C8233 0.950 . S
C8227 C8225 1.387 . S
C8227 C8229 1.390 . S
C8227 H8231 0.950 . S
H8228 C8224 0.950 . S
C8229 C8227 1.390 . S
C8229 C8230 1.387 . S
C8229 H8232 0.950 . S
C8230 C8229 1.387 . S
C8230 C8233 1.387 . S
H8231 C8227 0.950 . S
H8232 C8229 0.950 . S
C8233 C8224 1.390 . S
C8233 H8226 0.950 . S
C8233 C8230 1.387 . S
C8234 C8235 1.387 . S
C8234 H8238 0.950 . S
C8234 C8243 1.390 . S
C8235 C8234 1.387 . S
C8235 C8237 1.387 . S
H8236 C8243 0.950 . S
C8237 C8235 1.387 . S
C8237 C8239 1.390 . S
C8237 H8241 0.950 . S
H8238 C8234 0.950 . S
C8239 C8237 1.390 . S
C8239 C8240 1.387 . S
C8239 H8242 0.950 . S
C8240 C8239 1.387 . S
C8240 C8243 1.387 . S
H8241 C8237 0.950 . S
H8242 C8239 0.950 . S
C8243 C8234 1.390 . S
C8243 H8236 0.950 . S
C8243 C8240 1.387 . S
C8244 C8245 1.387 . S
C8244 H8248 0.950 . S
C8244 C8253 1.390 . S
C8245 C8244 1.387 . S
C8245 C8247 1.387 . S
H8246 C8253 0.950 . S
C8247 C8245 1.387 . S
C8247 C8249 1.390 . S
C8247 H8251 0.950 . S
H8248 C8244 0.950 . S
C8249 C8247 1.390 . S
C8249 C8250 1.387 . S
C8249 H8252 0.950 . S
C8250 C8249 1.387 . S
C8250 C8253 1.387 . S
H8251 C8247 0.950 . S
H8252 C8249 0.950 . S
C8253 C8244 1.390 . S
C8253 H8246 0.950 . S
C8253 C8250 1.387 . S
C8254 C8255 1.387 . S
C8254 H8258 0.950 . S
C8254 C8263 1.390 . S
C8255 C8254 1.387 . S
C8255 C8257 1.387 . S
H8256 C8263 0.950 . S
C8257 C8255 1.387 . S
C8257 C8259 1.390 . S
C8257 H8261 0.950 . S
H8258 C8254 0.950 . S
C8259 C8257 1.390 . S
C8259 C8260 1.387 . S
C8259 H8262 0.950 . S
C8260 C8259 1.387 . S
C8260 C8263 1.387 . S
H8261 C8257 0.950 . S
H8262 C8259 0.950 . S
C8263 C8254 1.390 . S
C8263 H8256 0.950 . S
C8263 C8260 1.387 . S
C8264 C8265 1.387 . S
C8264 H8268 0.950 . S
C8264 C8273 1.390 . S
C8265 C8264 1.387 . S
C8265 C8267 1.387 . S
H8266 C8273 0.950 . S
C8267 C8265 1.387 . S
C8267 C8269 1.390 . S
C8267 H8271 0.950 . S
H8268 C8264 0.950 . S
C8269 C8267 1.390 . S
C8269 C8270 1.387 . S
C8269 H8272 0.950 . S
C8270 C8269 1.387 . S
C8270 C8273 1.387 . S
H8271 C8267 0.950 . S
H8272 C8269 0.950 . S
C8273 C8264 1.390 . S
C8273 H8266 0.950 . S
C8273 C8270 1.387 . S
C8274 C8275 1.387 . S
C8274 H8278 0.950 . S
C8274 C8283 1.390 . S
C8275 C8274 1.387 . S
C8275 C8277 1.387 . S
H8276 C8283 0.950 . S
C8277 C8275 1.387 . S
C8277 C8279 1.390 . S
C8277 H8281 0.950 . S
H8278 C8274 0.950 . S
C8279 C8277 1.390 . S
C8279 C8280 1.387 . S
C8279 H8282 0.950 . S
C8280 C8279 1.387 . S
C8280 C8283 1.387 . S
H8281 C8277 0.950 . S
H8282 C8279 0.950 . S
C8283 C8274 1.390 . S
C8283 H8276 0.950 . S
C8283 C8280 1.387 . S
C8284 C8285 1.387 . S
C8284 H8288 0.950 . S
C8284 C8293 1.390 . S
C8285 C8284 1.387 . S
C8285 C8287 1.387 . S
H8286 C8293 0.950 . S
C8287 C8285 1.387 . S
C8287 C8289 1.390 . S
C8287 H8291 0.950 . S
H8288 C8284 0.950 . S
C8289 C8287 1.390 . S
C8289 C8290 1.387 . S
C8289 H8292 0.950 . S
C8290 C8289 1.387 . S
C8290 C8293 1.387 . S
H8291 C8287 0.950 . S
H8292 C8289 0.950 . S
C8293 C8284 1.390 . S
C8293 H8286 0.950 . S
C8293 C8290 1.387 . S
C8294 C8295 1.387 . S
C8294 H8298 0.950 . S
C8294 C8303 1.390 . S
C8295 C8294 1.387 . S
C8295 C8297 1.387 . S
H8296 C8303 0.950 . S
C8297 C8295 1.387 . S
C8297 C8299 1.390 . S
C8297 H8301 0.950 . S
H8298 C8294 0.950 . S
C8299 C8297 1.390 . S
C8299 C8300 1.387 . S
C8299 H8302 0.950 . S
C8300 C8299 1.387 . S
C8300 C8303 1.387 . S
H8301 C8297 0.950 . S
H8302 C8299 0.950 . S
C8303 C8294 1.390 . S
C8303 H8296 0.950 . S
C8303 C8300 1.387 . S
C8304 C8305 1.387 . S
C8304 H8308 0.950 . S
C8304 C8313 1.390 . S
C8305 C8304 1.387 . S
C8305 C8307 1.387 . S
H8306 C8313 0.950 . S
C8307 C8305 1.387 . S
C8307 C8309 1.390 . S
C8307 H8311 0.950 . S
H8308 C8304 0.950 . S
C8309 C8307 1.390 . S
C8309 C8310 1.387 . S
C8309 H8312 0.950 . S
C8310 C8309 1.387 . S
C8310 C8313 1.387 . S
H8311 C8307 0.950 . S
H8312 C8309 0.950 . S
C8313 C8304 1.390 . S
C8313 H8306 0.950 . S
C8313 C8310 1.387 . S
C8314 C8315 1.387 . S
C8314 H8318 0.950 . S
C8314 C8323 1.390 . S
C8315 C8314 1.387 . S
C8315 C8317 1.387 . S
H8316 C8323 0.950 . S
C8317 C8315 1.387 . S
C8317 C8319 1.390 . S
C8317 H8321 0.950 . S
H8318 C8314 0.950 . S
C8319 C8317 1.390 . S
C8319 C8320 1.387 . S
C8319 H8322 0.950 . S
C8320 C8319 1.387 . S
C8320 C8323 1.387 . S
H8321 C8317 0.950 . S
H8322 C8319 0.950 . S
C8323 C8314 1.390 . S
C8323 H8316 0.950 . S
C8323 C8320 1.387 . S
C8324 C8325 1.387 . S
C8324 H8328 0.950 . S
C8324 C8333 1.390 . S
C8325 C8324 1.387 . S
C8325 C8327 1.387 . S
H8326 C8333 0.950 . S
C8327 C8325 1.387 . S
C8327 C8329 1.390 . S
C8327 H8331 0.950 . S
H8328 C8324 0.950 . S
C8329 C8327 1.390 . S
C8329 C8330 1.387 . S
C8329 H8332 0.950 . S
C8330 C8329 1.387 . S
C8330 C8333 1.387 . S
H8331 C8327 0.950 . S
H8332 C8329 0.950 . S
C8333 C8324 1.390 . S
C8333 H8326 0.950 . S
C8333 C8330 1.387 . S
C8334 C8335 1.387 . S
C8334 H8338 0.950 . S
C8334 C8343 1.390 . S
C8335 C8334 1.387 . S
C8335 C8337 1.387 . S
H8336 C8343 0.950 . S
C8337 C8335 1.387 . S
C8337 C8339 1.390 . S
C8337 H8341 0.950 . S
H8338 C8334 0.950 . S
C8339 C8337 1.390 . S
C8339 C8340 1.387 . S
C8339 H8342 0.950 . S
C8340 C8339 1.387 . S
C8340 C8343 1.387 . S
H8341 C8337 0.950 . S
H8342 C8339 0.950 . S
C8343 C8334 1.390 . S
C8343 H8336 0.950 . S
C8343 C8340 1.387 . S
C8344 C8345 1.387 . S
C8344 H8348 0.950 . S
C8344 C8353 1.390 . S
C8345 C8344 1.387 . S
C8345 C8347 1.387 . S
H8346 C8353 0.950 . S
C8347 C8345 1.387 . S
C8347 C8349 1.390 . S
C8347 H8351 0.950 . S
H8348 C8344 0.950 . S
C8349 C8347 1.390 . S
C8349 C8350 1.387 . S
C8349 H8352 0.950 . S
C8350 C8349 1.387 . S
C8350 C8353 1.387 . S
H8351 C8347 0.950 . S
H8352 C8349 0.950 . S
C8353 C8344 1.390 . S
C8353 H8346 0.950 . S
C8353 C8350 1.387 . S
C8354 C8355 1.387 . S
C8354 H8358 0.950 . S
C8354 C8363 1.390 . S
C8355 C8354 1.387 . S
C8355 C8357 1.387 . S
H8356 C8363 0.950 . S
C8357 C8355 1.387 . S
C8357 C8359 1.390 . S
C8357 H8361 0.950 . S
H8358 C8354 0.950 . S
C8359 C8357 1.390 . S
C8359 C8360 1.387 . S
C8359 H8362 0.950 . S
C8360 C8359 1.387 . S
C8360 C8363 1.387 . S
H8361 C8357 0.950 . S
H8362 C8359 0.950 . S
C8363 C8354 1.390 . S
C8363 H8356 0.950 . S
C8363 C8360 1.387 . S
C8364 C8365 1.387 . S
C8364 H8368 0.950 . S
C8364 C8373 1.390 . S
C8365 C8364 1.387 . S
C8365 C8367 1.387 . S
H8366 C8373 0.950 . S
C8367 C8365 1.387 . S
C8367 C8369 1.390 . S
C8367 H8371 0.950 . S
H8368 C8364 0.950 . S
C8369 C8367 1.390 . S
C8369 C8370 1.387 . S
C8369 H8372 0.950 . S
C8370 C8369 1.387 . S
C8370 C8373 1.387 . S
H8371 C8367 0.950 . S
H8372 C8369 0.950 . S
C8373 C8364 1.390 . S
C8373 H8366 0.950 . S
C8373 C8370 1.387 . S
C8374 C8375 1.387 . S
C8374 H8378 0.950 . S
C8374 C8383 1.390 . S
C8375 C8374 1.387 . S
C8375 C8377 1.387 . S
H8376 C8383 0.950 . S
C8377 C8375 1.387 . S
C8377 C8379 1.390 . S
C8377 H8381 0.950 . S
H8378 C8374 0.950 . S
C8379 C8377 1.390 . S
C8379 C8380 1.387 . S
C8379 H8382 0.950 . S
C8380 C8379 1.387 . S
C8380 C8383 1.387 . S
H8381 C8377 0.950 . S
H8382 C8379 0.950 . S
C8383 C8374 1.390 . S
C8383 H8376 0.950 . S
C8383 C8380 1.387 . S
C8384 C8385 1.387 . S
C8384 H8388 0.950 . S
C8384 C8393 1.390 . S
C8385 C8384 1.387 . S
C8385 C8387 1.387 . S
H8386 C8393 0.950 . S
C8387 C8385 1.387 . S
C8387 C8389 1.390 . S
C8387 H8391 0.950 . S
H8388 C8384 0.950 . S
C8389 C8387 1.390 . S
C8389 C8390 1.387 . S
C8389 H8392 0.950 . S
C8390 C8389 1.387 . S
C8390 C8393 1.387 . S
H8391 C8387 0.950 . S
H8392 C8389 0.950 . S
C8393 C8384 1.390 . S
C8393 H8386 0.950 . S
C8393 C8390 1.387 . S
C8394 C8395 1.387 . S
C8394 H8398 0.950 . S
C8394 C8403 1.390 . S
C8395 C8394 1.387 . S
C8395 C8397 1.387 . S
H8396 C8403 0.950 . S
C8397 C8395 1.387 . S
C8397 C8399 1.390 . S
C8397 H8401 0.950 . S
H8398 C8394 0.950 . S
C8399 C8397 1.390 . S
C8399 C8400 1.387 . S
C8399 H8402 0.950 . S
C8400 C8399 1.387 . S
C8400 C8403 1.387 . S
H8401 C8397 0.950 . S
H8402 C8399 0.950 . S
C8403 C8394 1.390 . S
C8403 H8396 0.950 . S
C8403 C8400 1.387 . S
C8404 C8405 1.387 . S
C8404 H8408 0.950 . S
C8404 C8413 1.390 . S
C8405 C8404 1.387 . S
C8405 C8407 1.387 . S
H8406 C8413 0.950 . S
C8407 C8405 1.387 . S
C8407 C8409 1.390 . S
C8407 H8411 0.950 . S
H8408 C8404 0.950 . S
C8409 C8407 1.390 . S
C8409 C8410 1.387 . S
C8409 H8412 0.950 . S
C8410 C8409 1.387 . S
C8410 C8413 1.387 . S
H8411 C8407 0.950 . S
H8412 C8409 0.950 . S
C8413 C8404 1.390 . S
C8413 H8406 0.950 . S
C8413 C8410 1.387 . S
C8414 C8415 1.387 . S
C8414 H8418 0.950 . S
C8414 C8423 1.390 . S
C8415 C8414 1.387 . S
C8415 C8417 1.387 . S
H8416 C8423 0.950 . S
C8417 C8415 1.387 . S
C8417 C8419 1.390 . S
C8417 H8421 0.950 . S
H8418 C8414 0.950 . S
C8419 C8417 1.390 . S
C8419 C8420 1.387 . S
C8419 H8422 0.950 . S
C8420 C8419 1.387 . S
C8420 C8423 1.387 . S
H8421 C8417 0.950 . S
H8422 C8419 0.950 . S
C8423 C8414 1.390 . S
C8423 H8416 0.950 . S
C8423 C8420 1.387 . S
C8424 C8425 1.387 . S
C8424 H8428 0.950 . S
C8424 C8433 1.390 . S
C8425 C8424 1.387 . S
C8425 C8427 1.387 . S
H8426 C8433 0.950 . S
C8427 C8425 1.387 . S
C8427 C8429 1.390 . S
C8427 H8431 0.950 . S
H8428 C8424 0.950 . S
C8429 C8427 1.390 . S
C8429 C8430 1.387 . S
C8429 H8432 0.950 . S
C8430 C8429 1.387 . S
C8430 C8433 1.387 . S
H8431 C8427 0.950 . S
H8432 C8429 0.950 . S
C8433 C8424 1.390 . S
C8433 H8426 0.950 . S
C8433 C8430 1.387 . S
C8434 C8435 1.387 . S
C8434 H8438 0.950 . S
C8434 C8443 1.390 . S
C8435 C8434 1.387 . S
C8435 C8437 1.387 . S
H8436 C8443 0.950 . S
C8437 C8435 1.387 . S
C8437 C8439 1.390 . S
C8437 H8441 0.950 . S
H8438 C8434 0.950 . S
C8439 C8437 1.390 . S
C8439 C8440 1.387 . S
C8439 H8442 0.950 . S
C8440 C8439 1.387 . S
C8440 C8443 1.387 . S
H8441 C8437 0.950 . S
H8442 C8439 0.950 . S
C8443 C8434 1.390 . S
C8443 H8436 0.950 . S
C8443 C8440 1.387 . S
C8444 C8445 1.387 . S
C8444 H8448 0.950 . S
C8444 C8453 1.390 . S
C8445 C8444 1.387 . S
C8445 C8447 1.387 . S
H8446 C8453 0.950 . S
C8447 C8445 1.387 . S
C8447 C8449 1.390 . S
C8447 H8451 0.950 . S
H8448 C8444 0.950 . S
C8449 C8447 1.390 . S
C8449 C8450 1.387 . S
C8449 H8452 0.950 . S
C8450 C8449 1.387 . S
C8450 C8453 1.387 . S
H8451 C8447 0.950 . S
H8452 C8449 0.950 . S
C8453 C8444 1.390 . S
C8453 H8446 0.950 . S
C8453 C8450 1.387 . S
C8454 C8455 1.387 . S
C8454 H8458 0.950 . S
C8454 C8463 1.390 . S
C8455 C8454 1.387 . S
C8455 C8457 1.387 . S
H8456 C8463 0.950 . S
C8457 C8455 1.387 . S
C8457 C8459 1.390 . S
C8457 H8461 0.950 . S
H8458 C8454 0.950 . S
C8459 C8457 1.390 . S
C8459 C8460 1.387 . S
C8459 H8462 0.950 . S
C8460 C8459 1.387 . S
C8460 C8463 1.387 . S
H8461 C8457 0.950 . S
H8462 C8459 0.950 . S
C8463 C8454 1.390 . S
C8463 H8456 0.950 . S
C8463 C8460 1.387 . S
C8464 C8465 1.387 . S
C8464 H8468 0.950 . S
C8464 C8473 1.390 . S
C8465 C8464 1.387 . S
C8465 C8467 1.387 . S
H8466 C8473 0.950 . S
C8467 C8465 1.387 . S
C8467 C8469 1.390 . S
C8467 H8471 0.950 . S
H8468 C8464 0.950 . S
C8469 C8467 1.390 . S
C8469 C8470 1.387 . S
C8469 H8472 0.950 . S
C8470 C8469 1.387 . S
C8470 C8473 1.387 . S
H8471 C8467 0.950 . S
H8472 C8469 0.950 . S
C8473 C8464 1.390 . S
C8473 H8466 0.950 . S
C8473 C8470 1.387 . S
C8474 C8475 1.387 . S
C8474 H8478 0.950 . S
C8474 C8483 1.390 . S
C8475 C8474 1.387 . S
C8475 C8477 1.387 . S
H8476 C8483 0.950 . S
C8477 C8475 1.387 . S
C8477 C8479 1.390 . S
C8477 H8481 0.950 . S
H8478 C8474 0.950 . S
C8479 C8477 1.390 . S
C8479 C8480 1.387 . S
C8479 H8482 0.950 . S
C8480 C8479 1.387 . S
C8480 C8483 1.387 . S
H8481 C8477 0.950 . S
H8482 C8479 0.950 . S
C8483 C8474 1.390 . S
C8483 H8476 0.950 . S
C8483 C8480 1.387 . S
C8484 C8485 1.387 . S
C8484 H8488 0.950 . S
C8484 C8493 1.390 . S
C8485 C8484 1.387 . S
C8485 C8487 1.387 . S
H8486 C8493 0.950 . S
C8487 C8485 1.387 . S
C8487 C8489 1.390 . S
C8487 H8491 0.950 . S
H8488 C8484 0.950 . S
C8489 C8487 1.390 . S
C8489 C8490 1.387 . S
C8489 H8492 0.950 . S
C8490 C8489 1.387 . S
C8490 C8493 1.387 . S
H8491 C8487 0.950 . S
H8492 C8489 0.950 . S
C8493 C8484 1.390 . S
C8493 H8486 0.950 . S
C8493 C8490 1.387 . S
C8494 C8495 1.387 . S
C8494 H8498 0.950 . S
C8494 C8503 1.390 . S
C8495 C8494 1.387 . S
C8495 C8497 1.387 . S
H8496 C8503 0.950 . S
C8497 C8495 1.387 . S
C8497 C8499 1.390 . S
C8497 H8501 0.950 . S
H8498 C8494 0.950 . S
C8499 C8497 1.390 . S
C8499 C8500 1.387 . S
C8499 H8502 0.950 . S
C8500 C8499 1.387 . S
C8500 C8503 1.387 . S
H8501 C8497 0.950 . S
H8502 C8499 0.950 . S
C8503 C8494 1.390 . S
C8503 H8496 0.950 . S
C8503 C8500 1.387 . S
C8504 C8505 1.387 . S
C8504 H8508 0.950 . S
C8504 C8513 1.390 . S
C8505 C8504 1.387 . S
C8505 C8507 1.387 . S
H8506 C8513 0.950 . S
C8507 C8505 1.387 . S
C8507 C8509 1.390 . S
C8507 H8511 0.950 . S
H8508 C8504 0.950 . S
C8509 C8507 1.390 . S
C8509 C8510 1.387 . S
C8509 H8512 0.950 . S
C8510 C8509 1.387 . S
C8510 C8513 1.387 . S
H8511 C8507 0.950 . S
H8512 C8509 0.950 . S
C8513 C8504 1.390 . S
C8513 H8506 0.950 . S
C8513 C8510 1.387 . S
C8514 C8515 1.387 . S
C8514 H8518 0.950 . S
C8514 C8523 1.390 . S
C8515 C8514 1.387 . S
C8515 C8517 1.387 . S
H8516 C8523 0.950 . S
C8517 C8515 1.387 . S
C8517 C8519 1.390 . S
C8517 H8521 0.950 . S
H8518 C8514 0.950 . S
C8519 C8517 1.390 . S
C8519 C8520 1.387 . S
C8519 H8522 0.950 . S
C8520 C8519 1.387 . S
C8520 C8523 1.387 . S
H8521 C8517 0.950 . S
H8522 C8519 0.950 . S
C8523 C8514 1.390 . S
C8523 H8516 0.950 . S
C8523 C8520 1.387 . S
C8524 C8525 1.387 . S
C8524 H8528 0.950 . S
C8524 C8533 1.390 . S
C8525 C8524 1.387 . S
C8525 C8527 1.387 . S
H8526 C8533 0.950 . S
C8527 C8525 1.387 . S
C8527 C8529 1.390 . S
C8527 H8531 0.950 . S
H8528 C8524 0.950 . S
C8529 C8527 1.390 . S
C8529 C8530 1.387 . S
C8529 H8532 0.950 . S
C8530 C8529 1.387 . S
C8530 C8533 1.387 . S
H8531 C8527 0.950 . S
H8532 C8529 0.950 . S
C8533 C8524 1.390 . S
C8533 H8526 0.950 . S
C8533 C8530 1.387 . S
C8534 C8535 1.387 . S
C8534 H8538 0.950 . S
C8534 C8543 1.390 . S
C8535 C8534 1.387 . S
C8535 C8537 1.387 . S
H8536 C8543 0.950 . S
C8537 C8535 1.387 . S
C8537 C8539 1.390 . S
C8537 H8541 0.950 . S
H8538 C8534 0.950 . S
C8539 C8537 1.390 . S
C8539 C8540 1.387 . S
C8539 H8542 0.950 . S
C8540 C8539 1.387 . S
C8540 C8543 1.387 . S
H8541 C8537 0.950 . S
H8542 C8539 0.950 . S
C8543 C8534 1.390 . S
C8543 H8536 0.950 . S
C8543 C8540 1.387 . S
C5670 C4326 1.451 1_455 S
C5665 C15 1.585 . S
C5680 C5257 1.452 . S
C5675 C55 1.585 . S
C5690 C4364 1.451 . S
C5685 C95 1.585 . S
C5700 C5219 1.451 . S
C5695 C135 1.585 . S
C5710 C4440 1.451 1_455 S
C5705 C175 1.585 . S
C5715 C215 1.585 . S
C5720 C5295 1.455 . S
C5730 C4402 1.455 . S
C5725 C255 1.585 . S
C5740 C5333 1.454 . S
C5735 C295 1.585 . S
C5750 C5637 1.451 1_545 S
C5745 C335 1.585 . S
C5755 C375 1.585 . S
C5760 C5523 1.455 . S
C5770 C5656 1.451 1_565 S
C5765 C415 1.585 . S
C5775 C455 1.585 . S
C5780 C5618 1.455 . S
C5790 C5561 1.451 1_565 S
C5785 C495 1.585 . S
C5800 C4668 1.451 . S
C5795 C535 1.585 . S
C5810 C4687 1.451 1_545 S
C5805 C575 1.585 . S
C5815 C615 1.585 . S
C5820 C4630 1.455 . S
C5825 C655 1.586 . S
C5830 C5466 1.451 1_554 S
C5840 C4516 1.451 1_556 S
C5835 C695 1.585 . S
C5850 C5371 1.454 . S
C5845 C735 1.585 . S
C5860 C4478 1.453 . S
C5855 C775 1.585 . S
C5865 C815 1.585 . S
C5870 C4497 1.452 . S
C5880 C5504 1.451 . S
C5875 C855 1.586 . S
C5890 C5447 1.455 . S
C5885 C895 1.585 . S
C5895 C935 1.585 . S
C5900 C5485 1.455 . S
C5905 C975 1.587 . S
C5910 C3870 1.542 1_655 S
C5915 C1015 1.587 . S
C5920 C4801 1.541 . S
C5930 C3908 1.542 . S
C5925 C1055 1.587 . S
C5935 C1095 1.587 . S
C5940 C4763 1.542 . S
C5950 C3984 1.544 1_655 S
C5945 C1135 1.587 . S
C5955 C1175 1.587 . S
C5960 C4839 1.544 . S
C5970 C3946 1.543 . S
C5965 C1215 1.587 . S
C5980 C4877 1.544 . S
C5975 C1255 1.587 . S
C5985 C1295 1.587 . S
C5990 C5181 1.542 1_565 S
C6000 C5067 1.542 . S
C5995 C1335 1.587 . S
C6005 C1375 1.587 . S
C6010 C5200 1.542 1_545 S
C6020 C5162 1.542 . S
C6015 C1415 1.587 . S
C6030 C5105 1.543 1_545 S
C6025 C1455 1.587 . S
C6035 C1495 1.587 . S
C6040 C4212 1.543 . S
C6045 C1535 1.587 . S
C6050 C4231 1.541 1_565 S
C6060 C4174 1.543 . S
C6055 C1575 1.587 . S
C6065 C1615 1.587 . S
C6070 C5010 1.544 1_556 S
C6080 C4060 1.541 1_554 S
C6075 C1655 1.587 . S
C6085 C1695 1.587 . S
C6090 C4915 1.544 . S
C6100 C4022 1.544 . S
C6095 C1735 1.587 . S
C6105 C1775 1.587 . S
C6110 C4041 1.542 . S
C6120 C5048 1.543 . S
C6115 C1815 1.587 . S
C6130 C4991 1.542 . S
C6125 C1855 1.587 . S
C6140 C5029 1.544 . S
C6135 C1895 1.587 . S
C6145 C1935 1.585 . S
C6150 C5238 1.455 . S
C6160 C4345 1.454 . S
C6155 C1975 1.585 . S
C6170 C5276 1.455 1_655 S
C6165 C2015 1.585 . S
C6180 C4307 1.453 . S
C6175 C2055 1.585 . S
C6185 C2095 1.585 . S
C6190 C5352 1.451 . S
C6200 C4383 1.453 . S
C6195 C2135 1.585 . S
C6210 C5314 1.455 1_655 S
C6205 C2175 1.584 . S
C6220 C4421 1.455 . S
C6215 C2215 1.585 . S
C6225 C2255 1.585 . S
C6230 C4725 1.453 . S
C6240 C4611 1.455 . S
C6235 C2295 1.585 . S
C6250 C4744 1.455 . S
C6245 C2335 1.585 . S
C6255 C2375 1.585 . S
C6260 C4706 1.455 . S
C6265 C2415 1.585 . S
C6270 C4649 1.454 . S
C6275 C2455 1.584 . S
C6280 C5580 1.455 . S
C6285 C2495 1.585 . S
C6290 C5599 1.453 . S
C6300 C5542 1.451 . S
C6295 C2535 1.585 . S
C6305 C2575 1.586 . S
C6310 C4554 1.452 . S
C6320 C5428 1.453 . S
C6315 C2615 1.585 . S
C6330 C4459 1.453 . S
C6325 C2655 1.585 . S
C6340 C5390 1.452 1_556 S
C6335 C2695 1.585 . S
C6345 C2735 1.585 . S
C6350 C5409 1.451 . S
C6355 C2775 1.585 . S
C6360 C4592 1.455 1_554 S
C6370 C4535 1.454 . S
C6365 C2815 1.585 . S
C6375 C2855 1.585 . S
C6380 C4573 1.455 . S
C6385 C2895 1.587 . S
C6390 C4782 1.542 . S
C6400 C3889 1.544 . S
C6395 C2935 1.587 . S
C6410 C4820 1.543 1_455 S
C6405 C2975 1.587 . S
C6415 C3015 1.587 . S
C6420 C3851 1.541 . S
C6430 C4896 1.542 . S
C6425 C3055 1.587 . S
C6440 C3927 1.542 . S
C6435 C3095 1.587 . S
C6445 C3135 1.587 . S
C6450 C4858 1.542 1_455 S
C6455 C3175 1.587 . S
C6460 C3965 1.544 . S
C6470 C4269 1.544 . S
C6465 C3215 1.587 . S
C6475 C3255 1.587 . S
C6480 C4155 1.543 . S
C6490 C4288 1.544 . S
C6485 C3295 1.587 . S
C6500 C4250 1.544 . S
C6495 C3335 1.587 . S
C6505 C3375 1.587 . S
C6510 C4193 1.544 . S
C6515 C3415 1.587 . S
C6520 C5124 1.543 . S
C6530 C5143 1.544 . S
C6525 C3455 1.587 . S
C6535 C3495 1.587 . S
C6540 C5086 1.544 . S
C6550 C4098 1.544 . S
C6545 C3535 1.587 . S
C6560 C4972 1.542 . S
C6555 C3575 1.587 . S
C6565 C3615 1.587 . S
C6570 C4003 1.544 . S
C6575 C3655 1.587 . S
C6580 C4934 1.542 1_554 S
C6585 C3695 1.587 . S
C6590 C4953 1.542 . S
C6595 C3735 1.587 . S
C6600 C4136 1.544 1_556 S
C6605 C3775 1.587 . S
C6610 C4079 1.544 . S
C6620 C4117 1.544 . S
C6615 C3815 1.587 . S
C6630 C4017 1.550 . S
C6625 C2 1.527 . S
C6640 C4036 1.548 . S
C6635 C42 1.525 . S
C6645 C82 1.527 . S
C6650 C4055 1.550 . S
C6655 C122 1.526 . S
C6660 C3998 1.547 . S
C6665 C162 1.527 . S
C6670 C4131 1.550 . S
C6680 C4074 1.550 . S
C6675 C202 1.527 . S
C6690 C4093 1.548 . S
C6685 C242 1.527 . S
C6695 C282 1.526 . S
C6700 C4112 1.548 . S
C6705 C322 1.525 . S
C6710 C3903 1.548 . S
C6715 C362 1.526 . S
C6720 C3846 1.550 . S
C6725 C402 1.525 . S
C6730 C3865 1.548 . S
C6740 C3884 1.548 . S
C6735 C442 1.527 . S
C6745 C482 1.529 . S
C6750 C3941 1.551 . S
C6755 C522 1.526 . S
C6760 C3960 1.548 . S
C6765 C562 1.528 . S
C6770 C3979 1.549 . S
C6775 C602 1.529 . S
C6780 C3922 1.550 . S
C6790 C4188 1.550 . S
C6785 C642 1.528 . S
C6795 C682 1.528 . S
C6800 C5176 1.550 . S
C6810 C4150 1.548 . S
C6805 C722 1.527 . S
C6820 C5195 1.551 . S
C6815 C762 1.528 . S
C6825 C802 1.526 . S
C6830 C5157 1.549 . S
C6835 C842 1.527 . S
C6840 C5138 1.550 . S
C6850 C5081 1.548 . S
C6845 C882 1.527 . S
C6860 C5119 1.550 . S
C6855 C922 1.529 . S
C6870 C4473 1.539 . S
C6865 C962 1.594 . S
C6880 C4492 1.541 . S
C6875 C1002 1.595 . S
C6890 C4511 1.539 . S
C6885 C1042 1.594 . S
C6895 C1082 1.594 . S
C6900 C4454 1.541 . S
C6905 C1122 1.594 . S
C6910 C4587 1.538 . S
C6920 C4530 1.538 . S
C6915 C1162 1.594 . S
C6925 C1202 1.594 . S
C6930 C4549 1.540 . S
C6940 C4568 1.541 . S
C6935 C1242 1.595 . S
C6945 C1282 1.595 . S
C6950 C4359 1.539 . S
C6960 C4302 1.538 . S
C6955 C1322 1.594 . S
C6965 C1362 1.594 . S
C6970 C4321 1.538 . S
C6980 C4340 1.538 . S
C6975 C1402 1.594 . S
C6990 C4397 1.540 . S
C6985 C1442 1.595 . S
C6995 C1482 1.594 . S
C7000 C4416 1.540 . S
C7010 C4435 1.539 . S
C7005 C1522 1.594 . S
C7020 C4378 1.541 . S
C7015 C1562 1.595 . S
C7030 C4644 1.541 . S
C7025 C1602 1.595 . S
C7040 C5632 1.541 . S
C7035 C1642 1.595 . S
C7050 C4606 1.538 . S
C7045 C1682 1.594 . S
C7055 C1722 1.595 . S
C7060 C5651 1.541 . S
C7065 C1762 1.595 . S
C7070 C5613 1.540 . S
C7080 C5594 1.541 . S
C7075 C1802 1.594 . S
C7090 C5537 1.540 . S
C7085 C1842 1.595 . S
C7100 C5575 1.539 . S
C7095 C1882 1.595 . S
C7105 C1922 1.526 . S
C7110 C4929 1.548 . S
C7120 C4948 1.548 . S
C7115 C1962 1.526 . S
C7125 C2002 1.527 . S
C7130 C4967 1.548 . S
C7140 C4910 1.550 . S
C7135 C2042 1.528 . S
C7145 C2082 1.526 . S
C7150 C5043 1.548 . S
C7155 C2122 1.526 . S
C7160 C4986 1.548 . S
C7165 C2162 1.525 . S
C7170 C5005 1.549 . S
C7175 C2202 1.528 . S
C7180 C5024 1.551 . S
C7185 C2242 1.525 . S
C7190 C4815 1.548 . S
C7200 C4758 1.550 . S
C7195 C2282 1.528 . S
C7210 C4777 1.548 . S
C7205 C2322 1.527 . S
C7215 C2362 1.527 . S
C7220 C4796 1.548 . S
C7225 C2402 1.529 . S
C7230 C4853 1.550 . S
C7235 C2442 1.528 . S
C7240 C4872 1.550 . S
C7245 C2482 1.528 . S
C7250 C4891 1.550 . S
C7255 C2522 1.527 . S
C7260 C4834 1.550 . S
C7270 C5100 1.549 . S
C7265 C2562 1.528 . S
C7280 C4264 1.550 . S
C7275 C2602 1.527 . S
C7290 C5062 1.549 . S
C7285 C2642 1.525 . S
C7300 C4283 1.551 . S
C7295 C2682 1.528 . S
C7310 C4245 1.548 . S
C7305 C2722 1.525 . S
C7320 C4226 1.550 . S
C7315 C2762 1.528 . S
C7325 C2802 1.525 . S
C7330 C4169 1.548 . S
C7340 C4207 1.550 . S
C7335 C2842 1.529 . S
C7345 C2882 1.595 . S
C7350 C5385 1.541 . S
C7355 C2922 1.594 . S
C7360 C5404 1.538 . S
C7370 C5423 1.541 . S
C7365 C2962 1.595 . S
C7375 C3002 1.594 . S
C7380 C5366 1.540 . S
C7390 C5499 1.539 . S
C7385 C3042 1.594 . S
C7395 C3082 1.594 . S
C7400 C5442 1.538 . S
C7405 C3122 1.594 . S
C7410 C5461 1.538 . S
C7420 C5480 1.538 . S
C7415 C3162 1.594 . S
C7430 C5271 1.540 . S
C7425 C3202 1.594 . S
C7440 C5214 1.538 . S
C7435 C3242 1.594 . S
C7450 C5233 1.538 . S
C7445 C3282 1.594 . S
C7460 C5252 1.540 . S
C7455 C3322 1.595 . S
C7465 C3362 1.595 . S
C7470 C5309 1.541 . S
C7480 C5328 1.541 . S
C7475 C3402 1.595 . S
C7485 C3442 1.594 . S
C7490 C5347 1.539 . S
C7495 C3482 1.594 . S
C7500 C5290 1.538 . S
C7505 C3522 1.594 . S
C7510 C5556 1.540 . S
C7515 C3562 1.595 . S
C7520 C4720 1.540 . S
C7525 C3602 1.594 . S
C7530 C5518 1.538 . S
C7540 C4739 1.539 . S
C7535 C3642 1.594 . S
C7545 C3682 1.595 . S
C7550 C4701 1.541 . S
C7555 C3722 1.595 . S
C7560 C4682 1.540 . S
C7565 C3762 1.595 . S
C7570 C4625 1.541 . S
C7580 C4663 1.539 . S
C7575 C3802 1.594 . S
C7585 C21 1.602 . S
C7590 C3842 1.605 . S
C7595 C61 1.604 . S
C7600 C3861 1.607 . S
C7605 C101 1.602 . S
C7610 C3880 1.608 . S
C7620 C3899 1.604 . S
C7615 C141 1.601 . S
C7630 C3918 1.604 . S
C7625 C181 1.603 . S
C7635 C221 1.602 . S
C7640 C3937 1.605 . S
C7645 C261 1.602 . S
C7650 C3956 1.604 . S
C7655 C301 1.601 . S
C7660 C3975 1.605 . S
C7670 C3994 1.608 . S
C7665 C341 1.604 . S
C7680 C4013 1.604 . S
C7675 C381 1.602 . S
C7685 C421 1.603 . S
C7690 C4032 1.608 . S
C7700 C4051 1.605 . S
C7695 C461 1.604 . S
C7705 C501 1.604 . S
C7710 C4070 1.606 . S
C7715 C541 1.603 . S
C7720 C4089 1.605 . S
C7725 C581 1.601 . S
C7730 C4108 1.604 . S
C7735 C621 1.601 . S
C7740 C4127 1.607 . S
C7745 C661 1.601 . S
C7750 C4146 1.606 . S
C7755 C701 1.601 . S
C7760 C4165 1.606 . S
C7770 C4184 1.604 . S
C7765 C741 1.601 . S
C7780 C4203 1.607 . S
C7775 C781 1.604 . S
C7790 C4222 1.605 . S
C7785 C821 1.601 . S
C7800 C4241 1.606 . S
C7795 C861 1.601 . S
C7805 C901 1.601 . S
C7810 C4260 1.605 . S
C7820 C4279 1.605 . S
C7815 C941 1.601 . S
C7825 C981 1.679 . S
C7830 C4298 1.602 . S
C7835 C1021 1.679 . S
C7840 C4317 1.602 . S
C7845 C1061 1.679 . S
C7850 C4336 1.605 . S
C7860 C4355 1.601 . S
C7855 C1101 1.679 . S
C7865 C1141 1.679 . S
C7870 C4374 1.603 . S
C7880 C4393 1.604 . S
C7875 C1181 1.679 . S
C7885 C1221 1.679 . S
C7890 C4412 1.601 . S
C7895 C1261 1.680 . S
C7900 C4431 1.604 . S
C7910 C4450 1.605 . S
C7905 C1301 1.680 . S
C7915 C1341 1.679 . S
C7920 C4469 1.601 . S
C7930 C4488 1.602 . S
C7925 C1381 1.679 . S
C7935 C1421 1.679 . S
C7940 C4507 1.602 . S
C7950 C4526 1.602 . S
C7945 C1461 1.679 . S
C7960 C4545 1.602 . S
C7955 C1501 1.679 . S
C7970 C4564 1.601 . S
C7965 C1541 1.678 . S
C7975 C1581 1.679 . S
C7980 C4583 1.605 . S
C7985 C1621 1.679 . S
C7990 C4602 1.604 . S
C7995 C1661 1.679 . S
C8000 C4621 1.603 . S
C8005 C1701 1.679 . S
C8010 C4640 1.601 . S
C8015 C1741 1.679 . S
C8020 C4659 1.605 . S
C8025 C1781 1.679 . S
C8030 C4678 1.602 . S
C8040 C4697 1.603 . S
C8035 C1821 1.679 . S
C8045 C1861 1.679 . S
C8050 C4716 1.602 . S
C8060 C4735 1.602 . S
C8055 C1901 1.679 . S
C8065 C1941 1.603 . S
C8070 C4754 1.608 . S
C8080 C4773 1.604 . S
C8075 C1981 1.602 . S
C8090 C4792 1.605 . S
C8085 C2021 1.603 . S
C8100 C4811 1.607 . S
C8095 C2061 1.603 . S
C8105 C2101 1.601 . S
C8110 C4830 1.607 . S
C8115 C2141 1.601 . S
C8120 C4849 1.606 . S
C8130 C4868 1.604 . S
C8125 C2181 1.602 . S
C8140 C4887 1.608 . S
C8135 C2221 1.603 . S
C8145 C2261 1.601 . S
C8150 C4906 1.606 . S
C8155 C2301 1.602 . S
C8160 C4925 1.604 . S
C8165 C2341 1.603 . S
C8170 C4944 1.608 . S
C8175 C2381 1.603 . S
C8180 C4963 1.605 . S
C8185 C2421 1.603 . S
C8190 C4982 1.608 . S
C8200 C5001 1.605 . S
C8195 C2461 1.602 . S
C8210 C5020 1.605 . S
C8205 C2501 1.601 . S
C8220 C5039 1.605 . S
C8215 C2541 1.603 . S
C8230 C5058 1.605 . S
C8225 C2581 1.601 . S
C8235 C2621 1.602 . S
C8240 C5077 1.608 . S
C8245 C2661 1.603 . S
C8250 C5096 1.607 . S
C8260 C5115 1.606 . S
C8255 C2701 1.604 . S
C8265 C2741 1.604 . S
C8270 C5134 1.607 . S
C8280 C5153 1.607 . S
C8275 C2781 1.603 . S
C8290 C5172 1.605 . S
C8285 C2821 1.602 . S
C8300 C5191 1.605 . S
C8295 C2861 1.602 . S
C8305 C2901 1.680 . S
C8310 C5210 1.602 . S
C8315 C2941 1.679 . S
C8320 C5229 1.603 . S
C8325 C2981 1.680 . S
C8330 C5248 1.602 . S
C8335 C3021 1.679 . S
C8340 C5267 1.603 . S
C8350 C5286 1.604 . S
C8345 C3061 1.678 . S
C8360 C5305 1.605 . S
C8355 C3101 1.679 . S
C8370 C5324 1.601 . S
C8365 C3141 1.679 . S
C8375 C3181 1.680 . S
C8380 C5343 1.603 . S
C8385 C3221 1.680 . S
C8390 C5362 1.603 . S
C8400 C5381 1.604 . S
C8395 C3261 1.679 . S
C8410 C5400 1.602 . S
C8405 C3301 1.679 . S
C8420 C5419 1.604 . S
C8415 C3341 1.679 . S
C8430 C5438 1.602 . S
C8425 C3381 1.679 . S
C8440 C5457 1.604 . S
C8435 C3421 1.679 . S
C8450 C5476 1.601 . S
C8445 C3461 1.678 . S
C8460 C5495 1.602 . S
C8455 C3501 1.680 . S
C8470 C5514 1.604 . S
C8465 C3541 1.680 . S
C8480 C5533 1.602 . S
C8475 C3581 1.680 . S
C8490 C5552 1.604 . S
C8485 C3621 1.679 . S
C8495 C3661 1.680 . S
C8500 C5571 1.602 . S
C8510 C5590 1.603 . S
C8505 C3701 1.680 . S
C8515 C3741 1.678 . S
C8520 C5609 1.604 . S
C8530 C5628 1.605 . S
C8525 C3781 1.679 . S
C8540 C5647 1.602 . S
C8535 C3821 1.679 . S
