# Generated by pormake.
# Topology anh, (6,3)-cn, num edge types: 1
# Building blocks:
#     Node 0, Type 0, BuildingBlock: CUKXOW_clean_sbu_0, # of connection points: 6
#     Node 1, Type 0, BuildingBlock: CUKXOW_clean_sbu_0, # of connection points: 6
#     Node 2, Type 0, BuildingBlock: CUKXOW_clean_sbu_0, # of connection points: 6
#     Node 3, Type 1, BuildingBlock: BELTOD_clean_linker_0, # of connection points: 3
#     Node 4, Type 1, BuildingBlock: BELTOD_clean_linker_0, # of connection points: 3
#     Node 5, Type 1, BuildingBlock: BELTOD_clean_linker_0, # of connection points: 3
#     Node 6, Type 1, BuildingBlock: BELTOD_clean_linker_0, # of connection points: 3
#     Node 7, Type 1, BuildingBlock: BELTOD_clean_linker_0, # of connection points: 3
#     Node 8, Type 1, BuildingBlock: BELTOD_clean_linker_0, # of connection points: 3
#     Edge 9, Type (0, 1), BuildingBlock: ZUJKAS_clean_linker_0, # of connection points: 2
#     Edge 10, Type (0, 1), BuildingBlock: ZUJKAS_clean_linker_0, # of connection points: 2
#     Edge 11, Type (0, 1), BuildingBlock: ZUJKAS_clean_linker_0, # of connection points: 2
#     Edge 12, Type (0, 1), BuildingBlock: ZUJKAS_clean_linker_0, # of connection points: 2
#     Edge 13, Type (0, 1), BuildingBlock: ZUJKAS_clean_linker_0, # of connection points: 2
#     Edge 14, Type (0, 1), BuildingBlock: ZUJKAS_clean_linker_0, # of connection points: 2
#     Edge 15, Type (0, 1), BuildingBlock: ZUJKAS_clean_linker_0, # of connection points: 2
#     Edge 16, Type (0, 1), BuildingBlock: ZUJKAS_clean_linker_0, # of connection points: 2
#     Edge 17, Type (0, 1), BuildingBlock: ZUJKAS_clean_linker_0, # of connection points: 2
#     Edge 18, Type (0, 1), BuildingBlock: ZUJKAS_clean_linker_0, # of connection points: 2
#     Edge 19, Type (0, 1), BuildingBlock: ZUJKAS_clean_linker_0, # of connection points: 2
#     Edge 20, Type (0, 1), BuildingBlock: ZUJKAS_clean_linker_0, # of connection points: 2
#     Edge 21, Type (0, 1), BuildingBlock: ZUJKAS_clean_linker_0, # of connection points: 2
#     Edge 22, Type (0, 1), BuildingBlock: ZUJKAS_clean_linker_0, # of connection points: 2
#     Edge 23, Type (0, 1), BuildingBlock: ZUJKAS_clean_linker_0, # of connection points: 2
#     Edge 24, Type (0, 1), BuildingBlock: ZUJKAS_clean_linker_0, # of connection points: 2
#     Edge 25, Type (0, 1), BuildingBlock: ZUJKAS_clean_linker_0, # of connection points: 2
#     Edge 26, Type (0, 1), BuildingBlock: ZUJKAS_clean_linker_0, # of connection points: 2
# Relax obj value: 0.122
# Max RMSD: 0.188
# Mean RMSD: 0.129
data_MOF--net-anh--node1-CUKXOW_clean_sbu_0--node2-BELTOD_clean_linker_0--edge1-ZUJKAS_clean_linker_0
_symmetry_space_group_name_H-M    P1
_symmetry_Int_Tables_number       1
_symmetry_cell_setting            triclinic
loop_
_symmetry_equiv_pos_as_xyz
'x, y, z'
_cell_length_a     41.832115
_cell_length_b     40.7696
_cell_length_c     75.115006
_cell_angle_alpha  95.951118
_cell_angle_beta   90.085825
_cell_angle_gamma 116.51873
loop_
_atom_site_label
_atom_site_type_symbol
_atom_site_fract_x
_atom_site_fract_y
_atom_site_fract_z
_atom_type_partial_charge
Tb0 Tb 0.065 0.53589 0.15718 0.0
C1 C 0.03464 0.49474 0.19036 0.0
Tb2 Tb 0.0123 0.45545 0.15013 0.0
O3 O 0.02311 0.54985 0.16774 0.0
O4 O 0.01029 0.50582 0.1479 0.0
O5 O 0.06135 0.5235 0.18458 0.0
C6 C 0.95367 0.39084 0.14941 0.0
O7 O 0.01062 0.46721 0.17923 0.0
C8 C 0.0797 0.46861 0.14792 0.0
C9 C 0.04391 0.49707 0.11718 0.0
O10 O 0.98595 0.39668 0.15376 0.0
O11 O 0.95452 0.42122 0.14517 0.0
O12 O 0.0531 0.44102 0.13882 0.0
O13 O 0.06739 0.48532 0.1589 0.0
O14 O 0.01588 0.46895 0.12271 0.0
O15 O 0.06861 0.52345 0.1285 0.0
C16 C 0.12295 0.60126 0.15951 0.0
O17 O 0.0918 0.59428 0.15262 0.0
O18 O 0.12135 0.57156 0.16506 0.0
C19 C 0.99709 0.52223 0.15836 0.0
Tb20 Tb 0.48061 0.01332 0.5124 0.0
C21 C 0.5159 0.0423 0.47698 0.0
Tb22 Tb 0.55757 0.07402 0.5153 0.0
O23 O 0.46146 0.05139 0.50371 0.0
O24 O 0.50689 0.07072 0.521 0.0
O25 O 0.4903 0.01432 0.484 0.0
C26 C 0.61787 0.1358 0.51347 0.0
O27 O 0.54228 0.07002 0.48696 0.0
C28 C 0.55026 0.00699 0.51604 0.0
C29 C 0.52346 0.04427 0.55055 0.0
O30 O 0.61424 0.10248 0.50993 0.0
O31 O 0.58754 0.13445 0.51822 0.0
O32 O 0.5767 0.03621 0.52419 0.0
O33 O 0.53135 0.01655 0.5068 0.0
O34 O 0.54791 0.07324 0.54362 0.0
O35 O 0.49719 0.01626 0.54056 0.0
C36 C 0.42084 0.95027 0.51257 0.0
O37 O 0.4245 0.98268 0.5189 0.0
O38 O 0.45076 0.95346 0.50625 0.0
C39 C 0.48804 0.08046 0.51186 0.0
Tb40 Tb 0.50608 0.50613 0.82955 0.0
C41 C 0.55046 0.51462 0.86521 0.0
Tb42 Tb 0.58581 0.51705 0.82762 0.0
O43 O 0.48878 0.45054 0.83737 0.0
O44 O 0.53321 0.47402 0.82197 0.0
O45 O 0.52393 0.519 0.85775 0.0
C46 C 0.64269 0.50505 0.82266 0.0
O47 O 0.57507 0.50929 0.85579 0.0
C48 C 0.58207 0.58061 0.83253 0.0
C49 C 0.54263 0.51292 0.79227 0.0
O50 O 0.62004 0.4921 0.835 0.0
O51 O 0.63345 0.5249 0.81342 0.0
O52 O 0.61218 0.57853 0.83206 0.0
O53 O 0.55805 0.5481 0.83091 0.0
O54 O 0.5681 0.50652 0.79941 0.0
O55 O 0.51783 0.51726 0.80187 0.0
C56 C 0.44814 0.51679 0.82854 0.0
O57 O 0.45115 0.48926 0.81967 0.0
O58 O 0.47735 0.53765 0.83821 0.0
C59 C 0.51577 0.44702 0.83048 0.0
P60 P 0.56646 0.97939 0.22732 0.0
H61 H 0.54417 0.94765 0.19028 0.0
H62 H 0.48518 0.91247 0.17473 0.0
H63 H 0.43576 0.932 0.2225 0.0
H64 H 0.49447 0.96768 0.2377 0.0
H65 H 0.6434 0.00838 0.2252 0.0
H66 H 0.68848 0.06128 0.21229 0.0
H67 H 0.60657 0.09103 0.1962 0.0
H68 H 0.56142 0.03782 0.20932 0.0
H69 H 0.54908 0.93565 0.25723 0.0
H70 H 0.5723 0.04684 0.24863 0.0
O71 O 0.58071 0.94698 0.22553 0.0
H72 H 0.5402 0.94869 0.28876 0.0
H73 H 0.56284 0.06004 0.28022 0.0
C74 C 0.52372 0.95995 0.21517 0.0
C75 C 0.52061 0.94495 0.19724 0.0
C76 C 0.48689 0.92469 0.18842 0.0
C77 C 0.4557 0.91907 0.19743 0.0
C78 C 0.45917 0.93603 0.21509 0.0
C79 C 0.49288 0.95629 0.22388 0.0
C80 C 0.59906 0.01883 0.21786 0.0
C81 C 0.63508 0.02612 0.21879 0.0
C82 C 0.6608 0.0563 0.21135 0.0
C83 C 0.651 0.08004 0.20301 0.0
C84 C 0.61491 0.0732 0.20253 0.0
C85 C 0.58909 0.04276 0.20991 0.0
C86 C 0.56219 0.99053 0.25072 0.0
C87 C 0.55257 0.96301 0.26219 0.0
C88 C 0.54708 0.97039 0.28018 0.0
C89 C 0.55078 0.00542 0.28702 0.0
C90 C 0.56026 0.03295 0.27542 0.0
C91 C 0.5657 0.02546 0.25737 0.0
P92 P 0.59993 0.58059 0.54659 0.0
H93 H 0.62107 0.53919 0.51892 0.0
H94 H 0.59662 0.47327 0.50924 0.0
H95 H 0.50338 0.45388 0.53958 0.0
H96 H 0.52847 0.52007 0.54949 0.0
H97 H 0.63664 0.66005 0.55092 0.0
H98 H 0.62111 0.70763 0.5429 0.0
H99 H 0.52029 0.62347 0.51842 0.0
H100 H 0.53603 0.57561 0.5269 0.0
H101 H 0.63039 0.55537 0.57369 0.0
H102 H 0.55192 0.59639 0.57079 0.0
O103 O 0.64371 0.59568 0.54406 0.0
H104 H 0.61868 0.54695 0.60517 0.0
H105 H 0.53975 0.58768 0.60225 0.0
C106 C 0.57684 0.53447 0.53514 0.0
C107 C 0.59495 0.52092 0.52314 0.0
C108 C 0.58084 0.48309 0.51756 0.0
C109 C 0.54828 0.45812 0.52387 0.0
C110 C 0.52887 0.47226 0.53477 0.0
C111 C 0.54302 0.51014 0.54032 0.0
C112 C 0.58787 0.61437 0.53915 0.0
C113 C 0.61138 0.65177 0.54361 0.0
C114 C 0.60248 0.679 0.53895 0.0
C115 C 0.56965 0.66946 0.52977 0.0
C116 C 0.54579 0.63177 0.52548 0.0
C117 C 0.55484 0.60439 0.53018 0.0
C118 C 0.59265 0.57728 0.57005 0.0
C119 C 0.6109 0.56292 0.5799 0.0
C120 C 0.60391 0.55777 0.59784 0.0
C121 C 0.57829 0.56668 0.60621 0.0
C122 C 0.56 0.58107 0.59625 0.0
C123 C 0.56696 0.58609 0.57827 0.0
P124 P 0.10708 0.668 0.88938 0.0
H125 H 0.1641 0.70546 0.8654 0.0
H126 H 0.2039 0.68562 0.84844 0.0
H127 H 0.158 0.58286 0.87173 0.0
H128 H 0.11922 0.60298 0.88887 0.0
H129 H 0.06574 0.69232 0.8671 0.0
H130 H 0.00882 0.65827 0.84954 0.0
H131 H 1.00327 0.55559 0.86335 0.0
H132 H 0.05928 0.58973 0.88124 0.0
H133 H 0.15533 0.66729 0.91741 0.0
H134 H 0.043 0.63744 0.91012 0.0
O135 O 0.1209 0.71348 0.89097 0.0
H136 H 0.14474 0.64261 0.94631 0.0
H137 H 0.03195 0.61144 0.93851 0.0
C138 C 0.13915 0.6559 0.87856 0.0
C139 C 0.16307 0.67894 0.86704 0.0
C140 C 0.18554 0.66754 0.8573 0.0
C141 C 0.18357 0.6326 0.85868 0.0
C142 C 0.15958 0.60969 0.87024 0.0
C143 C 0.13763 0.6213 0.88014 0.0
C144 C 0.06645 0.64354 0.8756 0.0
C145 C 0.05229 0.6625 0.86627 0.0
C146 C 0.01998 0.64297 0.85611 0.0
C147 C 1.00156 0.60424 0.85512 0.0
C148 C 0.01662 0.58541 0.86402 0.0
C149 C 0.04876 0.60491 0.87417 0.0
C150 C 0.09981 0.65318 0.91139 0.0
C151 C 0.12838 0.6553 0.92201 0.0
C152 C 0.12222 0.64093 0.93846 0.0
C153 C 0.08738 0.62444 0.94461 0.0
C154 C 0.05912 0.62398 0.93424 0.0
C155 C 0.06537 0.63856 0.91788 0.0
P156 P 0.05554 0.48164 0.44168 0.0
H157 H 0.0997 0.51255 0.47486 0.0
H158 H 0.13609 0.57598 0.48848 0.0
H159 H 0.09787 0.61615 0.44629 0.0
H160 H 0.0617 0.55265 0.43272 0.0
H161 H 0.01769 0.40594 0.45007 0.0
H162 H 0.9602 0.37169 0.46288 0.0
H163 H 0.94309 0.46916 0.46773 0.0
H164 H 1.00084 0.50332 0.45469 0.0
H165 H 0.10633 0.50677 0.41405 0.0
H166 H 0.99166 0.4578 0.41723 0.0
O167 O 0.08101 0.46041 0.44443 0.0
H168 H 0.09977 0.50813 0.38184 0.0
H169 H 0.98489 0.4596 0.38508 0.0
C170 C 0.07887 0.52806 0.45255 0.0
C171 C 0.09899 0.53503 0.46863 0.0
C172 C 0.11953 0.57126 0.47647 0.0
C173 C 0.12013 0.60107 0.46834 0.0
C174 C 0.09842 0.59377 0.45269 0.0
C175 C 0.07777 0.5575 0.44492 0.0
C176 C 0.01375 0.45729 0.45177 0.0
C177 C 1.00179 0.42008 0.45407 0.0
C178 C 0.96896 0.40057 0.46146 0.0
C179 C 0.9473 0.41785 0.46652 0.0
C180 C 0.9592 0.45513 0.46396 0.0
C181 C 0.99223 0.47471 0.45663 0.0
C182 C 0.04956 0.482 0.41799 0.0
C183 C 0.07974 0.49634 0.40779 0.0
C184 C 0.07594 0.49736 0.38942 0.0
C185 C 0.04179 0.48403 0.3809 0.0
C186 C 0.01153 0.4697 0.39121 0.0
C187 C 0.0154 0.46879 0.40963 0.0
P188 P 0.6209 0.04471 0.79739 0.0
H189 H 0.65357 0.11212 0.82273 0.0
H190 H 0.63354 0.15855 0.83248 0.0
H191 H 0.52916 0.08769 0.80693 0.0
H192 H 0.54951 0.04124 0.79713 0.0
H193 H 0.65428 0.01551 0.82128 0.0
H194 H 0.63732 0.95369 0.82928 0.0
H195 H 0.53563 0.914 0.79988 0.0
H196 H 0.55302 0.97638 0.79185 0.0
H197 H 0.61473 0.09601 0.77495 0.0
H198 H 0.60595 0.98586 0.76743 0.0
O199 O 0.66546 0.06632 0.80002 0.0
H200 H 0.60028 0.09187 0.74315 0.0
H201 H 0.59179 0.9817 0.73539 0.0
C202 C 0.6031 0.07335 0.80907 0.0
C203 C 0.62607 0.10606 0.81964 0.0
C204 C 0.61456 0.13264 0.82524 0.0
C205 C 0.57991 0.12704 0.82026 0.0
C206 C 0.55617 0.09303 0.81075 0.0
C207 C 0.56764 0.06632 0.80529 0.0
C208 C 0.60523 1.00037 0.80564 0.0
C209 C 0.62814 0.99368 0.81673 0.0
C210 C 0.61828 0.95826 0.82139 0.0
C211 C 0.58523 0.92875 0.81508 0.0
C212 C 0.5615 0.93601 0.80474 0.0
C213 C 0.57131 0.97164 0.80021 0.0
C214 C 0.60999 0.04068 0.77376 0.0
C215 C 0.6093 0.07071 0.76651 0.0
C216 C 0.60142 0.06849 0.74824 0.0
C217 C 0.59462 0.03634 0.73675 0.0
C218 C 0.59619 0.00656 0.74396 0.0
C219 C 0.60422 0.00889 0.7623 0.0
P220 P 0.52345 0.45343 0.11314 0.0
H221 H 0.55258 0.42796 0.14118 0.0
H222 H 0.61389 0.44271 0.15028 0.0
H223 H 0.65273 0.53654 0.12011 0.0
H224 H 0.59111 0.52093 0.11071 0.0
H225 H 0.44789 0.40502 0.11592 0.0
H226 H 0.3969 0.41509 0.12431 0.0
H227 H 0.46676 0.53101 0.13899 0.0
H228 H 0.51848 0.52051 0.13011 0.0
H229 H 0.56504 0.43976 0.08512 0.0
H230 H 0.49588 0.4927 0.09107 0.0
O231 O 0.50917 0.40782 0.11124 0.0
H232 H 0.57259 0.45226 0.0539 0.0
H233 H 0.50273 0.50463 0.05977 0.0
C234 C 0.567 0.47303 0.12509 0.0
C235 C 0.57418 0.45237 0.13693 0.0
C236 C 0.60953 0.46086 0.14212 0.0
C237 C 0.63871 0.49045 0.13566 0.0
C238 C 0.63119 0.51295 0.12499 0.0
C239 C 0.59577 0.50437 0.1198 0.0
C240 C 0.48744 0.46179 0.12278 0.0
C241 C 0.45268 0.43256 0.12135 0.0
C242 C 0.42321 0.4384 0.12621 0.0
C243 C 0.42734 0.47385 0.13255 0.0
C244 C 0.46234 0.5033 0.13413 0.0
C245 C 0.49209 0.49731 0.12927 0.0
C246 C 0.52983 0.46512 0.09044 0.0
C247 C 0.5515 0.45412 0.07971 0.0
C248 C 0.55563 0.4611 0.06182 0.0
C249 C 0.53806 0.47922 0.05427 0.0
C250 C 0.5169 0.49091 0.0652 0.0
C251 C 0.5128 0.4839 0.08313 0.0
H252 H 0.10644 0.43188 0.12519 0.0
H253 H 0.16744 0.43871 0.12448 0.0
H254 H 0.20034 0.52605 0.16833 0.0
H255 H 0.13861 0.51804 0.16959 0.0
H256 H 0.2289 0.49314 0.11783 0.0
H257 H 0.24022 0.46282 0.18718 0.0
H258 H 0.19834 0.45578 0.17689 0.0
H259 H 0.23068 0.50132 0.18602 0.0
C260 C 0.1266 0.45249 0.13476 0.0
C261 C 0.11753 0.47443 0.14745 0.0
C262 C 0.16164 0.45647 0.1343 0.0
C263 C 0.18879 0.48254 0.14651 0.0
C264 C 0.17996 0.50509 0.15901 0.0
H265 H 0.41402 0.53252 0.12638 0.0
H266 H 0.3588 0.53856 0.13083 0.0
C267 C 0.14467 0.50086 0.15957 0.0
C268 C 0.22603 0.48583 0.14585 0.0
H269 H 0.29213 0.48047 0.17057 0.0
C270 C 0.24272 0.4905 0.12942 0.0
C271 C 0.24422 0.48198 0.16085 0.0
C272 C 0.22738 0.47484 0.17869 0.0
C273 C 0.27646 0.49096 0.12748 0.0
C274 C 0.29489 0.48767 0.14254 0.0
C275 C 0.2784 0.4834 0.15904 0.0
C276 C 0.33002 0.48602 0.14119 0.0
C277 C 0.29126 0.49339 0.10909 0.0
C278 C 0.33333 0.45549 0.14637 0.0
C279 C 0.36518 0.45232 0.14419 0.0
C280 C 0.39482 0.47956 0.13669 0.0
C281 C 0.39199 0.51094 0.13221 0.0
C282 C 0.36009 0.51419 0.13451 0.0
H283 H 0.27007 0.48588 0.09835 0.0
H284 H 0.31157 0.52216 0.10813 0.0
H285 H 0.30427 0.47496 0.10657 0.0
H286 H 0.31088 0.43349 0.15175 0.0
H287 H 0.36636 0.42813 0.14822 0.0
H288 H 0.68128 0.14001 0.50281 0.0
H289 H 0.73476 0.19513 0.49688 0.0
H290 H 0.68179 0.26258 0.51233 0.0
H291 H 0.62796 0.20725 0.5184 0.0
H292 H 0.73583 0.24426 0.47162 0.0
H293 H 0.78127 0.31458 0.54105 0.0
H294 H 0.75114 0.26594 0.53653 0.0
H295 H 0.73513 0.29945 0.53415 0.0
C296 C 0.68113 0.16662 0.50511 0.0
C297 C 0.65061 0.16948 0.51107 0.0
C298 C 0.71164 0.19803 0.5017 0.0
C299 C 0.71223 0.23286 0.50427 0.0
C300 C 0.68195 0.23595 0.51049 0.0
H301 H 0.88335 0.41745 0.45813 0.0
H302 H 0.82431 0.37727 0.46825 0.0
C303 C 0.65129 0.20441 0.51389 0.0
C304 C 0.74418 0.26539 0.49958 0.0
H305 H 0.81678 0.34343 0.51766 0.0
C306 C 0.75336 0.26623 0.48163 0.0
C307 C 0.76692 0.29376 0.51273 0.0
C308 C 0.75844 0.29355 0.53224 0.0
C309 C 0.78529 0.29418 0.47651 0.0
C310 C 0.80839 0.32228 0.48969 0.0
C311 C 0.7988 0.32197 0.5076 0.0
C312 C 0.8441 0.35 0.48532 0.0
C313 C 0.79487 0.29251 0.45717 0.0
C314 C 0.87476 0.34885 0.49212 0.0
C315 C 0.90843 0.37181 0.48646 0.0
C316 C 0.91204 0.39645 0.47393 0.0
C317 C 0.88143 0.39884 0.46783 0.0
C318 C 0.84769 0.37576 0.47349 0.0
H319 H 0.77715 0.26561 0.44937 0.0
H320 H 0.79223 0.31464 0.45083 0.0
H321 H 0.82302 0.29706 0.45627 0.0
H322 H 0.87251 0.32923 0.50132 0.0
H323 H 0.93159 0.3698 0.49163 0.0
H324 H 0.63221 0.65062 0.84302 0.0
H325 H 0.62719 0.70793 0.84159 0.0
H326 H 0.51794 0.645 0.82072 0.0
H327 H 0.52316 0.58771 0.82189 0.0
H328 H 0.6118 0.7311 0.81039 0.0
H329 H 0.51116 0.71847 0.86088 0.0
H330 H 0.53551 0.69129 0.85997 0.0
H331 H 0.49864 0.6793 0.84419 0.0
C332 C 0.60697 0.64904 0.83839 0.0
C333 C 0.57775 0.61471 0.833 0.0
C334 C 0.60413 0.68175 0.83757 0.0
C335 C 0.57201 0.68077 0.83133 0.0
C336 C 0.54267 0.64643 0.82603 0.0
H337 H 0.55592 0.86631 0.79106 0.0
H338 H 0.5493 0.80481 0.79512 0.0
C339 C 0.54555 0.61367 0.82683 0.0
C340 C 0.57026 0.71577 0.82922 0.0
H341 H 0.52861 0.76858 0.8435 0.0
C342 C 0.59359 0.73927 0.81762 0.0
C343 C 0.54658 0.72645 0.83873 0.0
C344 C 0.5217 0.70278 0.85177 0.0
C345 C 0.59387 0.77309 0.81523 0.0
C346 C 0.56993 0.7836 0.82456 0.0
C347 C 0.54669 0.76025 0.83625 0.0
C348 C 0.56983 0.81945 0.82273 0.0
C349 C 0.62029 0.79771 0.80299 0.0
C350 C 0.58236 0.84768 0.83711 0.0
C351 C 0.58607 0.88284 0.83486 0.0
C352 C 0.57705 0.89036 0.81821 0.0
C353 C 0.56284 0.86144 0.80409 0.0
C354 C 0.55931 0.82634 0.80634 0.0
H355 H 0.64137 0.78896 0.79955 0.0
H356 H 0.60592 0.7967 0.79035 0.0
H357 H 0.63332 0.8268 0.8093 0.0
H358 H 0.59048 0.84287 0.8499 0.0
H359 H 0.59667 0.90437 0.84606 0.0
H360 H 0.94298 0.4759 0.13373 0.0
H361 H 0.88239 0.47061 0.13052 0.0
H362 H 0.9062 0.55317 0.17595 0.0
H363 H 0.96668 0.55845 0.17923 0.0
H364 H 0.82663 0.45212 0.15414 0.0
H365 H 0.87094 0.59466 0.13717 0.0
H366 H 0.90041 0.57308 0.13695 0.0
H367 H 0.891 0.59211 0.1578 0.0
C368 C 0.9352 0.49266 0.14315 0.0
C369 C 0.95972 0.51758 0.15676 0.0
C370 C 0.90054 0.48972 0.14125 0.0
C371 C 0.88971 0.5119 0.1528 0.0
C372 C 0.91398 0.53626 0.16662 0.0
H373 H 0.66959 0.48078 0.16604 0.0
H374 H 0.72962 0.4856 0.17031 0.0
C375 C 0.94856 0.53912 0.16855 0.0
C376 C 0.85317 0.50966 0.15037 0.0
H377 H 0.80934 0.56072 0.14223 0.0
C378 C 0.82288 0.47588 0.15153 0.0
C379 C 0.84805 0.54047 0.14672 0.0
C380 C 0.87927 0.57707 0.14441 0.0
C381 C 0.78787 0.47225 0.14945 0.0
C382 C 0.78276 0.50333 0.14629 0.0
C383 C 0.81306 0.53695 0.14485 0.0
C384 C 0.74628 0.5013 0.14396 0.0
C385 C 0.75661 0.43487 0.15026 0.0
C386 C 0.73568 0.5096 0.12795 0.0
C387 C 0.70125 0.50684 0.12544 0.0
C388 C 0.67642 0.49597 0.13895 0.0
C389 C 0.68751 0.4886 0.15517 0.0
C390 C 0.72196 0.4913 0.15765 0.0
H391 H 0.76474 0.41233 0.1482 0.0
H392 H 0.74531 0.43407 0.16365 0.0
H393 H 0.73518 0.42949 0.13999 0.0
H394 H 0.75384 0.51747 0.11717 0.0
H395 H 0.69382 0.51222 0.11264 0.0
H396 H 0.41057 0.88286 0.49731 0.0
H397 H 0.35463 0.82577 0.49364 0.0
H398 H 0.30024 0.88185 0.5221 0.0
H399 H 0.35622 0.9395 0.52542 0.0
H400 H 0.31037 0.78502 0.51819 0.0
H401 H 0.23943 0.83805 0.47542 0.0
H402 H 0.287 0.86244 0.4807 0.0
H403 H 0.25623 0.86402 0.49703 0.0
C404 C 0.3867 0.88299 0.50282 0.0
C405 C 0.38753 0.91555 0.51151 0.0
C406 C 0.35479 0.85037 0.50075 0.0
C407 C 0.32317 0.8497 0.50736 0.0
C408 C 0.32418 0.88196 0.51658 0.0
H409 H 0.13459 0.63258 0.50335 0.0
H410 H 0.18061 0.69439 0.51486 0.0
C411 C 0.35614 0.91475 0.51856 0.0
C412 C 0.28928 0.81517 0.50418 0.0
H413 H 0.20764 0.77652 0.48154 0.0
C414 C 0.28772 0.78317 0.51033 0.0
C415 C 0.25995 0.81288 0.49379 0.0
C416 C 0.26065 0.84605 0.4862 0.0
C417 C 0.25811 0.74867 0.50591 0.0
C418 C 0.22889 0.74632 0.4954 0.0
C419 C 0.22998 0.77851 0.48971 0.0
C420 C 0.19865 0.71032 0.48869 0.0
C421 C 0.2592 0.71485 0.51178 0.0
C422 C 0.19256 0.69942 0.47017 0.0
C423 C 0.16618 0.6644 0.46358 0.0
C424 C 0.14536 0.63953 0.4754 0.0
C425 C 0.15059 0.65098 0.49394 0.0
C426 C 0.17688 0.68621 0.50053 0.0
H427 H 0.2866 0.72047 0.5164 0.0
H428 H 0.24147 0.70555 0.52307 0.0
H429 H 0.24955 0.69193 0.50067 0.0
H430 H 0.20906 0.71761 0.4608 0.0
H431 H 0.1631 0.65627 0.44924 0.0
H432 H 0.56386 0.43108 0.81172 0.0
H433 H 0.57364 0.37617 0.81185 0.0
H434 H 0.49482 0.33636 0.85147 0.0
H435 H 0.48427 0.39075 0.85099 0.0
H436 H 0.59603 0.3488 0.83755 0.0
H437 H 0.45768 0.24883 0.81353 0.0
H438 H 0.4743 0.29793 0.81344 0.0
H439 H 0.45961 0.27723 0.83381 0.0
C440 C 0.54864 0.41059 0.82045 0.0
C441 C 0.52304 0.4149 0.83121 0.0
C442 C 0.55426 0.37924 0.82053 0.0
C443 C 0.53442 0.35169 0.83139 0.0
C444 C 0.50972 0.35667 0.84261 0.0
H445 H 0.59217 0.17542 0.85074 0.0
H446 H 0.58035 0.2294 0.85459 0.0
C447 C 0.50387 0.38785 0.84241 0.0
C448 C 0.53953 0.31775 0.83085 0.0
H449 H 0.49552 0.22368 0.82264 0.0
C450 C 0.57405 0.32143 0.83429 0.0
C451 C 0.51094 0.28203 0.82636 0.0
C452 C 0.47362 0.27617 0.82139 0.0
C453 C 0.58079 0.29048 0.83338 0.0
C454 C 0.55201 0.2547 0.82937 0.0
C455 C 0.5175 0.25104 0.82593 0.0
C456 C 0.55739 0.22082 0.82764 0.0
C457 C 0.61888 0.29655 0.83613 0.0
C458 C 0.54697 0.19708 0.81153 0.0
C459 C 0.55319 0.16598 0.8094 0.0
C460 C 0.57002 0.15792 0.82336 0.0
C461 C 0.57952 0.18112 0.83969 0.0
C462 C 0.57298 0.2121 0.84186 0.0
H463 H 0.63844 0.32522 0.83428 0.0
H464 H 0.62324 0.29177 0.85 0.0
H465 H 0.62446 0.27714 0.82668 0.0
H466 H 0.53483 0.20314 0.80038 0.0
H467 H 0.54598 0.149 0.79658 0.0
H468 H 0.58521 0.98387 0.53818 0.0
H469 H 0.57994 0.92171 0.53822 0.0
H470 H 0.49917 0.88179 0.4949 0.0
H471 H 0.50551 0.9445 0.49433 0.0
H472 H 0.52338 0.85696 0.54392 0.0
H473 H 0.57 0.84626 0.47529 0.0
H474 H 0.57413 0.88923 0.48672 0.0
H475 H 0.53172 0.85523 0.47658 0.0
C476 C 0.56638 0.96185 0.52864 0.0
C477 C 0.54566 0.96895 0.5163 0.0
C478 C 0.56327 0.92631 0.52872 0.0
C479 C 0.53945 0.8971 0.51644 0.0
C480 C 0.51816 0.90397 0.5043 0.0
H481 H 0.50506 0.67192 0.53201 0.0
H482 H 0.49245 0.72362 0.52707 0.0
C483 C 0.52145 0.93969 0.50414 0.0
C484 C 0.53757 0.85979 0.5164 0.0
H485 H 0.55421 0.79487 0.49122 0.0
C486 C 0.52981 0.84319 0.53236 0.0
C487 C 0.54625 0.84202 0.50133 0.0
C488 C 0.55631 0.85914 0.48404 0.0
C489 C 0.53145 0.80989 0.53383 0.0
C490 C 0.54032 0.7922 0.51879 0.0
C491 C 0.54712 0.80829 0.50269 0.0
C492 C 0.54621 0.75911 0.52002 0.0
C493 C 0.52542 0.79497 0.55175 0.0
C494 C 0.58005 0.76115 0.51686 0.0
C495 C 0.58715 0.73153 0.51938 0.0
C496 C 0.56057 0.69912 0.52518 0.0
C497 C 0.52614 0.69643 0.52753 0.0
C498 C 0.519 0.72614 0.52492 0.0
H499 H 0.52663 0.81591 0.5628 0.0
H500 H 0.49855 0.77103 0.55129 0.0
H501 H 0.54563 0.78547 0.55493 0.0
H502 H 0.60139 0.78615 0.51292 0.0
H503 H 0.61373 0.73428 0.51706 0.0
H504 H 0.67441 0.47918 0.84555 0.0
H505 H 0.73536 0.48505 0.84428 0.0
H506 H 0.74647 0.52899 0.79358 0.0
H507 H 0.68606 0.52393 0.79495 0.0
H508 H 0.77604 0.46247 0.81774 0.0
H509 H 0.82035 0.61407 0.82933 0.0
H510 H 0.77506 0.58078 0.83234 0.0
H511 H 0.79014 0.58978 0.81018 0.0
C512 C 0.68965 0.48933 0.83398 0.0
C513 C 0.67603 0.50177 0.82052 0.0
C514 C 0.7243 0.49254 0.83323 0.0
C515 C 0.74541 0.50799 0.81897 0.0
C516 C 0.73064 0.51747 0.80479 0.0
H517 H 0.97851 0.61393 0.8228 0.0
H518 H 0.9169 0.58512 0.80996 0.0
C519 C 0.69624 0.5146 0.80561 0.0
C520 C 0.78406 0.51874 0.82012 0.0
H521 H 0.865 0.59442 0.82767 0.0
C522 C 0.79562 0.49127 0.81974 0.0
C523 C 0.80937 0.55638 0.82267 0.0
C524 C 0.79826 0.58705 0.82381 0.0
C525 C 0.83207 0.50058 0.82216 0.0
C526 C 0.85722 0.53823 0.82535 0.0
C527 C 0.84566 0.56559 0.82508 0.0
C528 C 0.89497 0.55026 0.83108 0.0
C529 C 0.84328 0.47009 0.82146 0.0
C530 C 0.90298 0.53988 0.84706 0.0
C531 C 0.93795 0.55637 0.85444 0.0
C532 C 0.96552 0.5838 0.84604 0.0
C533 C 0.95771 0.59314 0.82965 0.0
C534 C 0.92266 0.57651 0.82224 0.0
H535 H 0.82395 0.44496 0.81296 0.0
H536 H 0.87031 0.47885 0.81619 0.0
H537 H 0.84393 0.46258 0.8352 0.0
H538 H 0.88189 0.52056 0.8544 0.0
H539 H 0.943 0.54903 0.86724 0.0
H540 H 0.13057 0.6655 0.14773 0.0
H541 H 0.18426 0.72544 0.15129 0.0
H542 H 0.24093 0.67748 0.17858 0.0
H543 H 0.18763 0.6178 0.17509 0.0
H544 H 0.2438 0.74605 0.19638 0.0
H545 H 0.28069 0.7532 0.12514 0.0
H546 H 0.23508 0.74236 0.12988 0.0
H547 H 0.25209 0.71015 0.13352 0.0
C548 C 0.15458 0.66783 0.15441 0.0
C549 C 0.15507 0.63716 0.16115 0.0
C550 C 0.18518 0.70194 0.15637 0.0
C551 C 0.21652 0.70571 0.16509 0.0
C552 C 0.21697 0.67504 0.17178 0.0
H553 H 0.43692 0.85222 0.17789 0.0
H554 H 0.37682 0.80472 0.16831 0.0
C555 C 0.18655 0.64102 0.16977 0.0
C556 C 0.24881 0.74169 0.16785 0.0
H557 H 0.31907 0.80186 0.14636 0.0
C558 C 0.26008 0.7586 0.18545 0.0
C559 C 0.26991 0.75767 0.15352 0.0
C560 C 0.25914 0.73998 0.13442 0.0
C561 C 0.29253 0.7906 0.18921 0.0
C562 C 0.31404 0.80629 0.17492 0.0
C563 C 0.30232 0.7899 0.15724 0.0
C564 C 0.35035 0.83737 0.17834 0.0
C565 C 0.30438 0.80633 0.20851 0.0
C566 C 0.35543 0.87196 0.18658 0.0
C567 C 0.38987 0.89935 0.19204 0.0
C568 C 0.41978 0.89258 0.18927 0.0
C569 C 0.41461 0.85858 0.18006 0.0
C570 C 0.38023 0.83128 0.17464 0.0
H571 H 0.28769 0.78723 0.21802 0.0
H572 H 0.33274 0.81251 0.21118 0.0
H573 H 0.30223 0.83253 0.21125 0.0
H574 H 0.33269 0.87736 0.1893 0.0
H575 H 0.39301 0.92545 0.19883 0.0
H576 H 0.53287 0.14136 0.5341 0.0
H577 H 0.54063 0.20464 0.53436 0.0
H578 H 0.46229 0.16908 0.49013 0.0
H579 H 0.4544 0.10571 0.48985 0.0
H580 H 0.56197 0.25126 0.50762 0.0
H581 H 0.42474 0.22231 0.52718 0.0
H582 H 0.44296 0.19003 0.52885 0.0
H583 H 0.4264 0.19412 0.50752 0.0
C584 C 0.51752 0.14712 0.52435 0.0
C585 C 0.49313 0.11872 0.51192 0.0
C586 C 0.52187 0.18323 0.52455 0.0
C587 C 0.50169 0.19151 0.51242 0.0
C588 C 0.47762 0.16321 0.49984 0.0
H589 H 0.55098 0.4172 0.4929 0.0
H590 H 0.53831 0.35203 0.489 0.0
C591 C 0.47325 0.12708 0.49964 0.0
C592 C 0.50612 0.22983 0.51292 0.0
H593 H 0.46166 0.2825 0.51986 0.0
C594 C 0.54003 0.25811 0.51025 0.0
C595 C 0.47754 0.23874 0.51655 0.0
C596 C 0.44092 0.20981 0.52036 0.0
C597 C 0.54617 0.29506 0.5111 0.0
C598 C 0.51744 0.30389 0.51441 0.0
C599 C 0.48353 0.27561 0.51711 0.0
C600 C 0.52256 0.34258 0.51616 0.0
C601 C 0.5836 0.32445 0.50898 0.0
C602 C 0.51655 0.3585 0.53247 0.0
C603 C 0.52362 0.39562 0.53472 0.0
C604 C 0.53674 0.41764 0.52065 0.0
C605 C 0.5414 0.40119 0.50408 0.0
C606 C 0.53425 0.36398 0.50184 0.0
H607 H 0.6039 0.31427 0.51066 0.0
H608 H 0.58537 0.33311 0.49534 0.0
H609 H 0.59036 0.34911 0.51886 0.0
H610 H 0.50747 0.34248 0.54369 0.0
H611 H 0.5202 0.40741 0.54774 0.0
H612 H 0.38254 0.47278 0.81181 0.0
H613 H 0.33205 0.48785 0.8093 0.0
H614 H 0.39556 0.5949 0.83869 0.0
H615 H 0.44567 0.58 0.84138 0.0
H616 H 0.30117 0.51012 0.84072 0.0
H617 H 0.35202 0.61529 0.79312 0.0
H618 H 0.36815 0.58117 0.79454 0.0
H619 H 0.38392 0.6214 0.81078 0.0
C620 C 0.38561 0.49953 0.81765 0.0
C621 C 0.41772 0.5252 0.82687 0.0
C622 C 0.35695 0.50812 0.81614 0.0
C623 C 0.36049 0.54267 0.82354 0.0
C624 C 0.39267 0.56837 0.8326 0.0
H625 H 0.25588 0.6692 0.85736 0.0
H626 H 0.29549 0.64416 0.84478 0.0
C627 C 0.42108 0.55968 0.83429 0.0
C628 C 0.32983 0.55123 0.82332 0.0
H629 H 0.30509 0.61543 0.81143 0.0
C630 C 0.30142 0.53255 0.83401 0.0
C631 C 0.33065 0.58059 0.81456 0.0
C632 C 0.36017 0.60062 0.80246 0.0
C633 C 0.27495 0.54423 0.83728 0.0
C634 C 0.27657 0.57476 0.82916 0.0
C635 C 0.30396 0.59207 0.81762 0.0
C636 C 0.25243 0.59144 0.83406 0.0
C637 C 0.247 0.52541 0.85038 0.0
C638 C 0.21521 0.57063 0.83153 0.0
C639 C 0.19265 0.58469 0.83892 0.0
C640 C 0.20705 0.62003 0.8486 0.0
C641 C 0.24423 0.64191 0.84993 0.0
C642 C 0.26679 0.62763 0.84276 0.0
H643 H 0.25412 0.50773 0.85822 0.0
H644 H 0.2433 0.54602 0.8599 0.0
H645 H 0.22105 0.50755 0.84291 0.0
H646 H 0.20365 0.543 0.82447 0.0
H647 H 0.16397 0.56759 0.83753 0.0
H648 H 0.94883 0.32914 0.16251 0.0
H649 H 0.89425 0.27549 0.16905 0.0
H650 H 0.83016 0.32264 0.14803 0.0
H651 H 0.88473 0.37651 0.1415 0.0
H652 H 0.84087 0.28225 0.19239 0.0
H653 H 0.78536 0.21236 0.1239 0.0
H654 H 0.8321 0.24412 0.12859 0.0
H655 H 0.79952 0.26132 0.1277 0.0
C656 C 0.92309 0.32778 0.15903 0.0
C657 C 0.92091 0.35685 0.15148 0.0
C658 C 0.892 0.29721 0.16281 0.0
C659 C 0.85826 0.29508 0.15892 0.0
C660 C 0.85597 0.32361 0.15092 0.0
H661 H 0.65991 0.15123 0.20581 0.0
H662 H 0.70826 0.20436 0.19424 0.0
C663 C 0.8871 0.35433 0.14723 0.0
C664 C 0.82568 0.26416 0.16438 0.0
H665 H 0.75022 0.18705 0.14817 0.0
C666 C 0.82095 0.26148 0.18275 0.0
C667 C 0.79993 0.23716 0.15172 0.0
C668 C 0.80437 0.23851 0.13185 0.0
C669 C 0.79113 0.23234 0.18883 0.0
C670 C 0.76528 0.20536 0.17619 0.0
C671 C 0.76997 0.20802 0.1578 0.0
C672 C 0.73434 0.17305 0.18189 0.0
C673 C 0.78791 0.23007 0.20873 0.0
C674 C 0.73255 0.13782 0.17833 0.0
C675 C 0.70504 0.10752 0.18487 0.0
C676 C 0.67865 0.11187 0.19501 0.0
C677 C 0.67978 0.14701 0.19799 0.0
C678 C 0.70746 0.17738 0.1915 0.0
H679 H 0.81317 0.24925 0.2165 0.0
H680 H 0.76648 0.23738 0.21335 0.0
H681 H 0.78048 0.20154 0.21175 0.0
H682 H 0.75299 0.13393 0.17087 0.0
H683 H 0.70457 0.0807 0.18212 0.0
H684 H 0.10409 0.53798 0.1005 0.0
H685 H 0.10821 0.553 0.06973 0.0
H686 H 0.99536 0.48173 0.05947 0.0
H687 H 0.99103 0.46599 0.09034 0.0
H688 H 0.03893 0.47934 0.03032 0.0
H689 H 0.06627 0.62218 0.05659 0.0
H690 H 0.09643 0.60726 0.06592 0.0
H691 H 0.04968 0.58467 0.07027 0.0
C692 C 0.08019 0.5251 0.09166 0.0
C693 C 0.0471 0.50125 0.0979 0.0
C694 C 0.0826 0.53377 0.0741 0.0
C695 C 0.05193 0.51915 0.06252 0.0
C696 C 0.01927 0.49348 0.0683 0.0
H697 H 0.04137 0.62629 0.97017 0.0
H698 H 0.02918 0.59704 0.99779 0.0
C699 C 0.01686 0.4845 0.0859 0.0
C700 C 0.05377 0.53281 0.0449 0.0
H701 H 0.07499 0.61168 0.02569 0.0
C702 C 0.04658 0.50819 0.02924 0.0
C703 C 0.06308 0.57034 0.04361 0.0
C704 C 0.06897 0.59761 0.05998 0.0
C705 C 0.04959 0.52045 0.01223 0.0
C706 C 0.06068 0.55838 0.01098 0.0
C707 C 0.06683 0.58269 0.02667 0.0
C708 C 0.06644 0.5738 0.9936 0.0
C709 C 0.04055 0.49264 0.99581 0.0
C710 C 0.09161 0.57065 0.98213 0.0
C711 C 0.09835 0.58699 0.96622 0.0
C712 C 0.08036 0.60722 0.96158 0.0
C713 C 0.0553 0.61047 0.97318 0.0
C714 C 0.04842 0.59392 0.98902 0.0
H715 H 0.02259 0.46427 0.99886 0.0
H716 H 0.02746 0.49955 0.98491 0.0
H717 H 0.06554 0.49266 0.99086 0.0
H718 H 0.10646 0.55602 0.98561 0.0
H719 H 0.1175 0.58357 0.9575 0.0
H720 H 0.56308 0.09508 0.45771 0.0
H721 H 0.56618 0.09276 0.42519 0.0
H722 H 0.47362 0.98642 0.41891 0.0
H723 H 0.46995 0.98858 0.45146 0.0
H724 H 0.57602 0.03959 0.40305 0.0
H725 H 0.44962 0.04259 0.3832 0.0
H726 H 0.46857 0.05554 0.40595 0.0
H727 H 0.44395 0.00765 0.39733 0.0
C728 C 0.54308 0.07133 0.44945 0.0
C729 C 0.51627 0.04197 0.45723 0.0
C730 C 0.54492 0.07009 0.43084 0.0
C731 C 0.51991 0.03964 0.41963 0.0
C732 C 0.49277 0.01054 0.42731 0.0
H733 H 0.49801 0.96054 0.30717 0.0
H734 H 0.49094 0.97101 0.33925 0.0
C735 C 0.49086 0.01174 0.44594 0.0
C736 C 0.52382 0.0372 0.39999 0.0
H737 H 0.48078 0.02764 0.3597 0.0
C738 C 0.55535 0.03733 0.39357 0.0
C739 C 0.49674 0.03411 0.38768 0.0
C740 C 0.46293 0.03529 0.39385 0.0
C741 C 0.5602 0.0335 0.37513 0.0
C742 C 0.53302 0.03013 0.36279 0.0
C743 C 0.50158 0.03031 0.36921 0.0
C744 C 0.53633 0.02509 0.34318 0.0
C745 C 0.59389 0.03192 0.369 0.0
C746 C 0.56374 0.05239 0.33469 0.0
C747 C 0.56805 0.04638 0.31637 0.0
C748 C 0.54491 0.01298 0.30621 0.0
C749 C 0.51671 0.98626 0.31468 0.0
C750 C 0.51244 0.99231 0.33297 0.0
H751 H 0.60805 0.02631 0.37993 0.0
H752 H 0.58779 0.01024 0.3575 0.0
H753 H 0.61233 0.05886 0.36458 0.0
H754 H 0.58211 0.07815 0.34229 0.0
H755 H 0.59008 0.06746 0.31028 0.0
H756 H 0.59031 0.50879 0.76834 0.0
H757 H 0.59239 0.51816 0.73672 0.0
H758 H 0.49758 0.53454 0.74038 0.0
H759 H 0.49501 0.52501 0.77209 0.0
H760 H 0.49804 0.48694 0.7094 0.0
H761 H 0.62162 0.6201 0.71876 0.0
H762 H 0.62512 0.58289 0.72805 0.0
H763 H 0.59487 0.5998 0.73716 0.0
C764 C 0.56974 0.5142 0.76246 0.0
C765 C 0.54258 0.51632 0.77282 0.0
C766 C 0.57112 0.51975 0.74439 0.0
C767 C 0.54548 0.52762 0.73633 0.0
C768 C 0.51774 0.52872 0.74643 0.0
H769 H 0.56881 0.6126 0.63264 0.0
H770 H 0.55749 0.60293 0.66413 0.0
C771 C 0.51635 0.52327 0.76455 0.0
C772 C 0.54786 0.53484 0.71736 0.0
H773 H 0.60203 0.59291 0.68872 0.0
C774 C 0.52062 0.51021 0.70486 0.0
C775 C 0.5771 0.56555 0.71157 0.0
C776 C 0.60622 0.59384 0.72458 0.0
C777 C 0.52248 0.51483 0.68656 0.0
C778 C 0.55253 0.54463 0.68067 0.0
C779 C 0.57916 0.56992 0.69326 0.0
C780 C 0.55744 0.54955 0.66144 0.0
C781 C 0.49227 0.48787 0.67369 0.0
C782 C 0.56132 0.52282 0.64956 0.0
C783 C 0.56771 0.52822 0.6316 0.0
C784 C 0.57051 0.56057 0.62519 0.0
C785 C 0.56639 0.58722 0.63712 0.0
C786 C 0.5601 0.58183 0.65511 0.0
H787 H 0.46735 0.47307 0.68071 0.0
H788 H 0.48666 0.50211 0.66316 0.0
H789 H 0.49991 0.46701 0.66702 0.0
H790 H 0.55997 0.49801 0.65425 0.0
H791 H 0.57041 0.50702 0.62272 0.0
H792 H 0.4838 0.98673 0.56958 0.0
H793 H 0.49152 0.98289 0.60148 0.0
H794 H 0.57833 0.09312 0.60741 0.0
H795 H 0.57071 0.09745 0.57567 0.0
H796 H 0.55408 0.98989 0.61946 0.0
H797 H 0.51432 0.09623 0.64829 0.0
H798 H 0.50363 0.07588 0.62521 0.0
H799 H 0.54763 0.11195 0.63198 0.0
C800 C 0.50427 0.01035 0.5777 0.0
C801 C 0.52654 0.04247 0.57005 0.0
C802 C 0.50868 0.00803 0.59591 0.0
C803 C 0.53518 0.03788 0.60683 0.0
C804 C 0.55726 0.07003 0.59929 0.0
H805 H 0.62654 0.08964 0.71448 0.0
H806 H 0.6105 0.08741 0.68293 0.0
C807 C 0.55296 0.07235 0.58109 0.0
C808 C 0.54098 0.03499 0.62595 0.0
H809 H 0.54435 0.07613 0.66833 0.0
C810 C 0.55159 0.00844 0.63019 0.0
C811 C 0.5377 0.05926 0.63988 0.0
C812 C 0.52487 0.08723 0.63617 0.0
C813 C 0.56033 0.00642 0.64798 0.0
C814 C 0.5578 0.03125 0.66187 0.0
C815 C 0.54642 0.05725 0.65764 0.0
C816 C 0.5679 0.03162 0.68083 0.0
C817 C 0.57345 0.97868 0.65169 0.0
C818 C 0.54924 1.00095 0.69012 0.0
C819 C 0.55832 0.00215 0.7082 0.0
C820 C 0.58602 0.03419 0.71733 0.0
C821 C 0.60478 0.06472 0.70791 0.0
C822 C 0.59574 0.06346 0.68987 0.0
H823 H 0.58165 0.96766 0.63932 0.0
H824 H 0.59649 0.99117 0.66169 0.0
H825 H 0.55161 0.95515 0.65725 0.0
H826 H 0.52721 0.97635 0.68349 0.0
H827 H 0.54305 0.97838 0.71515 0.0
H828 H 0.50604 0.52575 0.8892 0.0
H829 H 0.50652 0.52314 0.92149 0.0
H830 H 0.59763 0.50024 0.91849 0.0
H831 H 0.59769 0.50315 0.88611 0.0
H832 H 0.498 0.46321 0.93879 0.0
H833 H 0.62814 0.58406 0.95984 0.0
H834 H 0.60618 0.57686 0.93806 0.0
H835 H 0.63064 0.5516 0.94248 0.0
C836 C 0.52644 0.52046 0.89536 0.0
C837 C 0.55188 0.5147 0.88498 0.0
C838 C 0.52662 0.51896 0.91386 0.0
C839 C 0.55233 0.51191 0.92244 0.0
C840 C 0.57796 0.50642 0.9122 0.0
H841 H 0.53689 0.43073 0.0259 0.0
H842 H 0.54107 0.43953 0.99415 0.0
C843 C 0.57781 0.50791 0.89365 0.0
C844 C 0.55104 0.50847 0.94194 0.0
H845 H 0.59895 0.54469 0.98203 0.0
C846 C 0.52004 0.48109 0.94825 0.0
C847 C 0.57965 0.53209 0.95429 0.0
C848 C 0.61294 0.56305 0.94841 0.0
C849 C 0.51707 0.4763 0.96651 0.0
C850 C 0.54609 0.49917 0.97879 0.0
C851 C 0.57687 0.52699 0.97256 0.0
C852 C 0.54488 0.4945 0.99815 0.0
C853 C 0.48267 0.44709 0.97255 0.0
C854 C 0.54659 0.52287 0.011 0.0
C855 C 0.5445 0.51806 0.02923 0.0
C856 C 0.54099 0.48486 0.03494 0.0
C857 C 0.53991 0.45676 0.02201 0.0
C858 C 0.54193 0.46159 0.00382 0.0
H859 H 0.46018 0.43852 0.96243 0.0
H860 H 0.48631 0.42237 0.97459 0.0
H861 H 0.47526 0.4571 0.98545 0.0
H862 H 0.54909 0.54859 0.00691 0.0
H863 H 0.54589 0.54042 0.03884 0.0
H864 H 0.98617 0.43896 0.20792 0.0
H865 H 0.98383 0.43566 0.24027 0.0
H866 H 0.07449 0.54318 0.24944 0.0
H867 H 0.07741 0.54662 0.21722 0.0
H868 H 0.08125 0.49011 0.26751 0.0
H869 H 0.95023 0.49082 0.27868 0.0
H870 H 0.94933 0.45627 0.26149 0.0
H871 H 0.97383 0.50425 0.25852 0.0
C872 C 1.00546 0.46204 0.21681 0.0
C873 C 0.032 0.49305 0.20994 0.0
C874 C 1.00393 0.46018 0.23531 0.0
C875 C 0.02872 0.48938 0.24725 0.0
C876 C 0.05503 0.52041 0.24044 0.0
H877 H 0.08167 0.5398 0.36115 0.0
H878 H 0.0774 0.54002 0.3287 0.0
C879 C 0.05663 0.5223 0.222 0.0
C880 C 0.02853 0.48704 0.2668 0.0
H881 H 0.97895 0.4814 0.30348 0.0
C882 C 0.05891 0.48826 0.27539 0.0
C883 C 0.99924 0.48442 0.27699 0.0
C884 C 0.96638 0.48416 0.26853 0.0
C885 C 0.06083 0.48688 0.29391 0.0
C886 C 0.03181 0.48485 0.30416 0.0
C887 C 1.00116 0.48305 0.29556 0.0
C888 C 0.0332 0.48523 0.32388 0.0
C889 C 0.09376 0.48716 0.30232 0.0
C890 C 0.00901 0.45481 0.33196 0.0
C891 C 0.01139 0.45459 0.35052 0.0
C892 C 0.03794 0.48488 0.36131 0.0
C893 C 0.06142 0.51574 0.35318 0.0
C894 C 0.059 0.51593 0.33465 0.0
H895 H 0.10909 0.47909 0.29221 0.0
H896 H 0.11155 0.51544 0.30871 0.0
H897 H 0.08654 0.46814 0.31283 0.0
H898 H 0.98882 0.43091 0.32386 0.0
H899 H 0.99306 0.43031 0.35636 0.0
loop_
_geom_bond_atom_site_label_1
_geom_bond_atom_site_label_2
_geom_bond_distance
_geom_bond_site_symmetry_2
_ccdc_geom_bond_type
Tb0 O3 2.453 1_455 S
Tb0 O4 2.596 1_455 S
Tb0 O5 2.374 . S
Tb0 O13 2.343 . S
Tb0 O15 2.353 . S
Tb0 O17 2.427 . S
Tb0 O18 2.513 . S
C1 O5 1.251 . S
C1 O7 1.263 . S
Tb2 O4 2.343 1_455 S
Tb2 O7 2.353 . S
Tb2 O10 2.427 1_455 S
Tb2 O11 2.513 1_455 S
Tb2 O12 2.453 . S
Tb2 O13 2.596 . S
Tb2 O14 2.374 . S
O3 Tb0 2.453 1_655 S
O3 C19 1.245 . S
O4 Tb0 2.596 1_655 S
O4 Tb2 2.343 1_655 S
O4 C19 1.259 . S
O5 Tb0 2.374 . S
O5 C1 1.251 . S
C6 O10 1.275 . S
C6 O11 1.246 . S
O7 C1 1.263 . S
O7 Tb2 2.353 . S
C8 O12 1.245 . S
C8 O13 1.259 . S
C9 O14 1.250 . S
C9 O15 1.263 . S
O10 Tb2 2.427 1_655 S
O10 C6 1.275 . S
O11 Tb2 2.513 1_655 S
O11 C6 1.246 . S
O12 Tb2 2.453 . S
O12 C8 1.245 . S
O13 Tb0 2.343 . S
O13 Tb2 2.596 . S
O13 C8 1.259 . S
O14 Tb2 2.374 . S
O14 C9 1.250 . S
O15 Tb0 2.353 . S
O15 C9 1.263 . S
C16 O17 1.275 . S
C16 O18 1.246 . S
O17 Tb0 2.427 . S
O17 C16 1.275 . S
O18 Tb0 2.513 . S
O18 C16 1.246 . S
C19 O3 1.245 . S
C19 O4 1.259 . S
Tb20 O23 2.453 . S
Tb20 O24 2.596 . S
Tb20 O25 2.374 . S
Tb20 O33 2.343 1_545 S
Tb20 O35 2.353 . S
Tb20 O37 2.427 1_545 S
Tb20 O38 2.513 1_545 S
C21 O25 1.251 . S
C21 O27 1.263 . S
Tb22 O24 2.343 . S
Tb22 O27 2.353 . S
Tb22 O30 2.427 . S
Tb22 O31 2.513 . S
Tb22 O32 2.453 1_545 S
Tb22 O33 2.596 1_545 S
Tb22 O34 2.374 . S
O23 Tb20 2.453 . S
O23 C39 1.245 . S
O24 Tb20 2.596 . S
O24 Tb22 2.343 . S
O24 C39 1.259 . S
O25 Tb20 2.374 . S
O25 C21 1.251 . S
C26 O30 1.275 . S
C26 O31 1.246 . S
O27 C21 1.263 . S
O27 Tb22 2.353 . S
C28 O32 1.245 . S
C28 O33 1.259 . S
C29 O34 1.250 . S
C29 O35 1.263 . S
O30 Tb22 2.427 . S
O30 C26 1.275 . S
O31 Tb22 2.513 . S
O31 C26 1.246 . S
O32 Tb22 2.453 1_565 S
O32 C28 1.245 . S
O33 Tb20 2.343 1_565 S
O33 Tb22 2.596 1_565 S
O33 C28 1.259 . S
O34 Tb22 2.374 . S
O34 C29 1.250 . S
O35 Tb20 2.353 . S
O35 C29 1.263 . S
C36 O37 1.275 . S
C36 O38 1.246 . S
O37 Tb20 2.427 1_565 S
O37 C36 1.275 . S
O38 Tb20 2.513 1_565 S
O38 C36 1.246 . S
C39 O23 1.245 . S
C39 O24 1.259 . S
Tb40 O43 2.453 . S
Tb40 O44 2.596 . S
Tb40 O45 2.374 . S
Tb40 O53 2.343 . S
Tb40 O55 2.353 . S
Tb40 O57 2.427 . S
Tb40 O58 2.513 . S
C41 O45 1.251 . S
C41 O47 1.263 . S
Tb42 O44 2.343 . S
Tb42 O47 2.353 . S
Tb42 O50 2.427 . S
Tb42 O51 2.513 . S
Tb42 O52 2.453 . S
Tb42 O53 2.596 . S
Tb42 O54 2.374 . S
O43 Tb40 2.453 . S
O43 C59 1.245 . S
O44 Tb40 2.596 . S
O44 Tb42 2.343 . S
O44 C59 1.259 . S
O45 Tb40 2.374 . S
O45 C41 1.251 . S
C46 O50 1.275 . S
C46 O51 1.246 . S
O47 C41 1.263 . S
O47 Tb42 2.353 . S
C48 O52 1.245 . S
C48 O53 1.259 . S
C49 O54 1.250 . S
C49 O55 1.263 . S
O50 Tb42 2.427 . S
O50 C46 1.275 . S
O51 Tb42 2.513 . S
O51 C46 1.246 . S
O52 Tb42 2.453 . S
O52 C48 1.245 . S
O53 Tb40 2.343 . S
O53 Tb42 2.596 . S
O53 C48 1.259 . S
O54 Tb42 2.374 . S
O54 C49 1.250 . S
O55 Tb40 2.353 . S
O55 C49 1.263 . S
C56 O57 1.275 . S
C56 O58 1.246 . S
O57 Tb40 2.427 . S
O57 C56 1.275 . S
O58 Tb40 2.513 . S
O58 C56 1.246 . S
C59 O43 1.245 . S
C59 O44 1.259 . S
P60 O71 1.490 1_545 S
P60 C74 1.812 1_545 S
P60 C80 1.803 . S
P60 C86 1.819 . S
H61 C75 0.941 . S
H62 C76 0.939 . S
H63 C78 0.940 . S
H64 C79 0.940 1_545 S
H65 C81 0.939 . S
H66 C82 0.942 . S
H67 C84 0.940 . S
H68 C85 0.939 . S
H69 C87 0.912 1_565 S
H70 C91 0.939 . S
O71 P60 1.490 1_565 S
H72 C88 0.939 1_565 S
H73 C90 0.940 . S
C74 P60 1.812 1_565 S
C74 C75 1.389 . S
C74 C79 1.391 . S
C75 H61 0.941 . S
C75 C74 1.389 . S
C75 C76 1.397 . S
C76 H62 0.939 . S
C76 C75 1.397 . S
C76 C77 1.378 . S
C77 C76 1.378 . S
C77 C78 1.378 . S
C78 H63 0.940 . S
C78 C77 1.378 . S
C78 C79 1.396 . S
C79 H64 0.940 1_565 S
C79 C74 1.391 . S
C79 C78 1.396 . S
C80 P60 1.803 . S
C80 C81 1.378 . S
C80 C85 1.400 . S
C81 H65 0.939 . S
C81 C80 1.378 . S
C81 C82 1.361 . S
C82 H66 0.942 . S
C82 C81 1.361 . S
C82 C83 1.369 . S
C83 C82 1.369 . S
C83 C84 1.404 . S
C84 H67 0.940 . S
C84 C83 1.404 . S
C84 C85 1.389 . S
C85 H68 0.939 . S
C85 C80 1.400 . S
C85 C84 1.389 . S
C86 P60 1.819 . S
C86 C87 1.412 . S
C86 C91 1.391 . S
C87 H69 0.912 1_545 S
C87 C86 1.412 . S
C87 C88 1.405 . S
C88 H72 0.939 1_545 S
C88 C87 1.405 . S
C88 C89 1.397 . S
C89 C88 1.397 . S
C89 C90 1.385 . S
C90 H73 0.940 . S
C90 C89 1.385 . S
C90 C91 1.388 . S
C91 H70 0.939 . S
C91 C86 1.391 . S
C91 C90 1.388 . S
P92 O103 1.490 . S
P92 C106 1.812 . S
P92 C112 1.803 . S
P92 C118 1.819 . S
H93 C107 0.941 . S
H94 C108 0.939 . S
H95 C110 0.940 . S
H96 C111 0.940 . S
H97 C113 0.939 . S
H98 C114 0.942 . S
H99 C116 0.940 . S
H100 C117 0.939 . S
H101 C119 0.941 . S
H102 C123 0.939 . S
O103 P92 1.490 . S
H104 C120 0.939 . S
H105 C122 0.940 . S
C106 P92 1.812 . S
C106 C107 1.389 . S
C106 C111 1.391 . S
C107 H93 0.941 . S
C107 C106 1.389 . S
C107 C108 1.397 . S
C108 H94 0.939 . S
C108 C107 1.397 . S
C108 C109 1.378 . S
C109 C108 1.378 . S
C109 C110 1.378 . S
C110 H95 0.940 . S
C110 C109 1.378 . S
C110 C111 1.396 . S
C111 H96 0.940 . S
C111 C106 1.391 . S
C111 C110 1.396 . S
C112 P92 1.803 . S
C112 C113 1.378 . S
C112 C117 1.400 . S
C113 H97 0.939 . S
C113 C112 1.378 . S
C113 C114 1.361 . S
C114 H98 0.942 . S
C114 C113 1.361 . S
C114 C115 1.369 . S
C115 C114 1.369 . S
C115 C116 1.404 . S
C116 H99 0.940 . S
C116 C115 1.404 . S
C116 C117 1.389 . S
C117 H100 0.939 . S
C117 C112 1.400 . S
C117 C116 1.389 . S
C118 P92 1.819 . S
C118 C119 1.391 . S
C118 C123 1.391 . S
C119 H101 0.941 . S
C119 C118 1.391 . S
C119 C120 1.396 . S
C120 H104 0.939 . S
C120 C119 1.396 . S
C120 C121 1.397 . S
C121 C120 1.397 . S
C121 C122 1.385 . S
C122 H105 0.940 . S
C122 C121 1.385 . S
C122 C123 1.388 . S
C123 H102 0.939 . S
C123 C118 1.391 . S
C123 C122 1.388 . S
P124 O135 1.490 . S
P124 C138 1.812 . S
P124 C144 1.803 . S
P124 C150 1.819 . S
H125 C139 0.941 . S
H126 C140 0.939 . S
H127 C142 0.940 . S
H128 C143 0.940 . S
H129 C145 0.939 . S
H130 C146 0.942 1_655 S
H131 C148 0.940 1_655 S
H132 C149 0.939 . S
H133 C151 0.941 . S
H134 C155 0.939 . S
O135 P124 1.490 . S
H136 C152 0.939 . S
H137 C154 0.940 . S
C138 P124 1.812 . S
C138 C139 1.389 . S
C138 C143 1.391 . S
C139 H125 0.941 . S
C139 C138 1.389 . S
C139 C140 1.397 . S
C140 H126 0.939 . S
C140 C139 1.397 . S
C140 C141 1.378 . S
C141 C140 1.378 . S
C141 C142 1.378 . S
C142 H127 0.940 . S
C142 C141 1.378 . S
C142 C143 1.396 . S
C143 H128 0.940 . S
C143 C138 1.391 . S
C143 C142 1.396 . S
C144 P124 1.803 . S
C144 C145 1.378 . S
C144 C149 1.400 . S
C145 H129 0.939 . S
C145 C144 1.378 . S
C145 C146 1.361 . S
C146 H130 0.942 1_455 S
C146 C145 1.361 . S
C146 C147 1.369 1_455 S
C147 C146 1.369 1_655 S
C147 C148 1.404 1_655 S
C148 H131 0.940 1_455 S
C148 C147 1.404 1_455 S
C148 C149 1.389 . S
C149 H132 0.939 . S
C149 C144 1.400 . S
C149 C148 1.389 . S
C150 P124 1.819 . S
C150 C151 1.391 . S
C150 C155 1.391 . S
C151 H133 0.941 . S
C151 C150 1.391 . S
C151 C152 1.396 . S
C152 H136 0.939 . S
C152 C151 1.396 . S
C152 C153 1.397 . S
C153 C152 1.397 . S
C153 C154 1.385 . S
C154 H137 0.940 . S
C154 C153 1.385 . S
C154 C155 1.388 . S
C155 H134 0.939 . S
C155 C150 1.391 . S
C155 C154 1.388 . S
P156 O167 1.490 . S
P156 C170 1.812 . S
P156 C176 1.803 1_455 S
P156 C182 1.819 . S
H157 C171 0.941 . S
H158 C172 0.939 . S
H159 C174 0.940 . S
H160 C175 0.940 . S
H161 C177 0.939 . S
H162 C178 0.942 . S
H163 C180 0.940 . S
H164 C181 0.939 . S
H165 C183 0.941 . S
H166 C187 0.939 . S
O167 P156 1.490 . S
H168 C184 0.939 . S
H169 C186 0.940 . S
C170 P156 1.812 . S
C170 C171 1.389 . S
C170 C175 1.391 . S
C171 H157 0.941 . S
C171 C170 1.389 . S
C171 C172 1.397 . S
C172 H158 0.939 . S
C172 C171 1.397 . S
C172 C173 1.378 . S
C173 C172 1.378 . S
C173 C174 1.378 . S
C174 H159 0.940 . S
C174 C173 1.378 . S
C174 C175 1.396 . S
C175 H160 0.940 . S
C175 C170 1.391 . S
C175 C174 1.396 . S
C176 P156 1.803 1_655 S
C176 C177 1.378 . S
C176 C181 1.400 . S
C177 H161 0.939 . S
C177 C176 1.378 . S
C177 C178 1.361 . S
C178 H162 0.942 . S
C178 C177 1.361 . S
C178 C179 1.369 . S
C179 C178 1.369 . S
C179 C180 1.404 . S
C180 H163 0.940 . S
C180 C179 1.404 . S
C180 C181 1.389 . S
C181 H164 0.939 . S
C181 C176 1.400 . S
C181 C180 1.389 . S
C182 P156 1.819 . S
C182 C183 1.391 . S
C182 C187 1.391 1_455 S
C183 H165 0.941 . S
C183 C182 1.391 . S
C183 C184 1.396 . S
C184 H168 0.939 . S
C184 C183 1.396 . S
C184 C185 1.397 . S
C185 C184 1.397 . S
C185 C186 1.385 1_455 S
C186 H169 0.940 . S
C186 C185 1.385 1_655 S
C186 C187 1.388 . S
C187 H166 0.939 . S
C187 C182 1.391 1_655 S
C187 C186 1.388 . S
P188 O199 1.490 . S
P188 C202 1.812 . S
P188 C208 1.803 . S
P188 C214 1.819 . S
H189 C203 0.941 . S
H190 C204 0.939 . S
H191 C206 0.940 . S
H192 C207 0.940 . S
H193 C209 0.939 . S
H194 C210 0.942 . S
H195 C212 0.940 . S
H196 C213 0.929 1_545 S
H197 C215 0.941 . S
H198 C219 0.939 . S
O199 P188 1.490 . S
H200 C216 0.939 . S
H201 C218 0.940 . S
C202 P188 1.812 . S
C202 C203 1.389 . S
C202 C207 1.391 . S
C203 H189 0.941 . S
C203 C202 1.389 . S
C203 C204 1.397 . S
C204 H190 0.939 . S
C204 C203 1.397 . S
C204 C205 1.378 . S
C205 C204 1.378 . S
C205 C206 1.378 . S
C206 H191 0.940 . S
C206 C205 1.378 . S
C206 C207 1.396 . S
C207 H192 0.940 . S
C207 C202 1.391 . S
C207 C206 1.396 . S
C208 P188 1.803 . S
C208 C209 1.378 1_545 S
C208 C213 1.400 1_545 S
C209 H193 0.939 . S
C209 C208 1.378 1_565 S
C209 C210 1.361 . S
C210 H194 0.942 . S
C210 C209 1.361 . S
C210 C211 1.369 . S
C211 C210 1.369 . S
C211 C212 1.404 . S
C212 H195 0.940 . S
C212 C211 1.404 . S
C212 C213 1.389 . S
C213 H196 0.929 1_565 S
C213 C208 1.400 1_565 S
C213 C212 1.389 . S
C214 P188 1.819 . S
C214 C215 1.391 . S
C214 C219 1.391 1_545 S
C215 H197 0.941 . S
C215 C214 1.391 . S
C215 C216 1.396 . S
C216 H200 0.939 . S
C216 C215 1.396 . S
C216 C217 1.397 . S
C217 C216 1.397 . S
C217 C218 1.385 1_545 S
C218 H201 0.940 . S
C218 C217 1.385 1_565 S
C218 C219 1.388 . S
C219 H198 0.939 . S
C219 C214 1.391 1_565 S
C219 C218 1.388 . S
P220 O231 1.490 . S
P220 C234 1.812 . S
P220 C240 1.803 . S
P220 C246 1.819 . S
H221 C235 0.941 . S
H222 C236 0.939 . S
H223 C238 0.940 . S
H224 C239 0.940 . S
H225 C241 0.939 . S
H226 C242 0.942 . S
H227 C244 0.940 . S
H228 C245 0.939 . S
H229 C247 0.941 . S
H230 C251 0.939 . S
O231 P220 1.490 . S
H232 C248 0.939 . S
H233 C250 0.940 . S
C234 P220 1.812 . S
C234 C235 1.389 . S
C234 C239 1.391 . S
C235 H221 0.941 . S
C235 C234 1.389 . S
C235 C236 1.397 . S
C236 H222 0.939 . S
C236 C235 1.397 . S
C236 C237 1.378 . S
C237 C236 1.378 . S
C237 C238 1.378 . S
C238 H223 0.940 . S
C238 C237 1.378 . S
C238 C239 1.396 . S
C239 H224 0.940 . S
C239 C234 1.391 . S
C239 C238 1.396 . S
C240 P220 1.803 . S
C240 C241 1.378 . S
C240 C245 1.400 . S
C241 H225 0.939 . S
C241 C240 1.378 . S
C241 C242 1.361 . S
C242 H226 0.942 . S
C242 C241 1.361 . S
C242 C243 1.369 . S
C243 C242 1.369 . S
C243 C244 1.404 . S
C244 H227 0.940 . S
C244 C243 1.404 . S
C244 C245 1.389 . S
C245 H228 0.939 . S
C245 C240 1.400 . S
C245 C244 1.389 . S
C246 P220 1.819 . S
C246 C247 1.391 . S
C246 C251 1.391 . S
C247 H229 0.941 . S
C247 C246 1.391 . S
C247 C248 1.396 . S
C248 H232 0.939 . S
C248 C247 1.396 . S
C248 C249 1.397 . S
C249 C248 1.397 . S
C249 C250 1.385 . S
C250 H233 0.940 . S
C250 C249 1.385 . S
C250 C251 1.388 . S
C251 H230 0.939 . S
C251 C246 1.391 . S
C251 C250 1.388 . S
H252 C260 0.929 . S
H253 C262 0.930 . S
H254 C264 0.930 . S
H255 C267 0.929 . S
H256 C270 0.930 . S
H257 C272 0.960 . S
H258 C272 0.960 . S
H259 C272 0.960 . S
C260 H252 0.929 . S
C260 C261 1.377 . S
C260 C262 1.384 . S
C261 C260 1.377 . S
C261 C267 1.390 . S
C262 H253 0.930 . S
C262 C260 1.384 . S
C262 C263 1.372 . S
C263 C262 1.372 . S
C263 C264 1.400 . S
C263 C268 1.490 . S
C264 H254 0.930 . S
C264 C263 1.400 . S
C264 C267 1.386 . S
H265 C281 0.930 . S
H266 C282 0.931 . S
C267 H255 0.929 . S
C267 C261 1.390 . S
C267 C264 1.386 . S
C268 C263 1.490 . S
C268 C270 1.395 . S
C268 C271 1.403 . S
H269 C275 0.930 . S
C270 H256 0.930 . S
C270 C268 1.395 . S
C270 C273 1.403 . S
C271 C268 1.403 . S
C271 C272 1.524 . S
C271 C275 1.400 . S
C272 H257 0.960 . S
C272 H258 0.960 . S
C272 H259 0.960 . S
C272 C271 1.524 . S
C273 C270 1.403 . S
C273 C274 1.392 . S
C273 C277 1.495 . S
C274 C273 1.392 . S
C274 C275 1.385 . S
C274 C276 1.478 . S
C275 H269 0.930 . S
C275 C271 1.400 . S
C275 C274 1.385 . S
C276 C274 1.478 . S
C276 C278 1.381 . S
C276 C282 1.383 . S
C277 C273 1.495 . S
C277 H283 0.959 . S
C277 H284 0.961 . S
C277 H285 0.960 . S
C278 C276 1.381 . S
C278 C279 1.394 . S
C278 H286 0.930 . S
C279 C278 1.394 . S
C279 C280 1.383 . S
C279 H287 0.929 . S
C280 C279 1.383 . S
C280 C281 1.377 . S
C281 H265 0.930 . S
C281 C280 1.377 . S
C281 C282 1.379 . S
C282 H266 0.931 . S
C282 C276 1.383 . S
C282 C281 1.379 . S
H283 C277 0.959 . S
H284 C277 0.961 . S
H285 C277 0.960 . S
H286 C278 0.930 . S
H287 C279 0.929 . S
H288 C296 0.929 . S
H289 C298 0.930 . S
H290 C300 0.930 . S
H291 C303 0.929 . S
H292 C306 0.930 . S
H293 C308 0.960 . S
H294 C308 0.960 . S
H295 C308 0.960 . S
C296 H288 0.929 . S
C296 C297 1.377 . S
C296 C298 1.384 . S
C297 C296 1.377 . S
C297 C303 1.390 . S
C298 H289 0.930 . S
C298 C296 1.384 . S
C298 C299 1.372 . S
C299 C298 1.372 . S
C299 C300 1.400 . S
C299 C304 1.490 . S
C300 H290 0.930 . S
C300 C299 1.400 . S
C300 C303 1.386 . S
H301 C317 0.930 . S
H302 C318 0.931 . S
C303 H291 0.929 . S
C303 C297 1.390 . S
C303 C300 1.386 . S
C304 C299 1.490 . S
C304 C306 1.395 . S
C304 C307 1.403 . S
H305 C311 0.930 . S
C306 H292 0.930 . S
C306 C304 1.395 . S
C306 C309 1.403 . S
C307 C304 1.403 . S
C307 C308 1.524 . S
C307 C311 1.400 . S
C308 H293 0.960 . S
C308 H294 0.960 . S
C308 H295 0.960 . S
C308 C307 1.524 . S
C309 C306 1.403 . S
C309 C310 1.392 . S
C309 C313 1.495 . S
C310 C309 1.392 . S
C310 C311 1.385 . S
C310 C312 1.478 . S
C311 H305 0.930 . S
C311 C307 1.400 . S
C311 C310 1.385 . S
C312 C310 1.478 . S
C312 C314 1.381 . S
C312 C318 1.383 . S
C313 C309 1.495 . S
C313 H319 0.959 . S
C313 H320 0.961 . S
C313 H321 0.960 . S
C314 C312 1.381 . S
C314 C315 1.394 . S
C314 H322 0.930 . S
C315 C314 1.394 . S
C315 C316 1.383 . S
C315 H323 0.929 . S
C316 C315 1.383 . S
C316 C317 1.377 . S
C317 H301 0.930 . S
C317 C316 1.377 . S
C317 C318 1.379 . S
C318 H302 0.931 . S
C318 C312 1.383 . S
C318 C317 1.379 . S
H319 C313 0.959 . S
H320 C313 0.961 . S
H321 C313 0.960 . S
H322 C314 0.930 . S
H323 C315 0.929 . S
H324 C332 0.929 . S
H325 C334 0.930 . S
H326 C336 0.930 . S
H327 C339 0.929 . S
H328 C342 0.930 . S
H329 C344 0.960 . S
H330 C344 0.960 . S
H331 C344 0.960 . S
C332 H324 0.929 . S
C332 C333 1.377 . S
C332 C334 1.384 . S
C333 C332 1.377 . S
C333 C339 1.390 . S
C334 H325 0.930 . S
C334 C332 1.384 . S
C334 C335 1.372 . S
C335 C334 1.372 . S
C335 C336 1.400 . S
C335 C340 1.490 . S
C336 H326 0.930 . S
C336 C335 1.400 . S
C336 C339 1.386 . S
H337 C353 0.930 . S
H338 C354 0.931 . S
C339 H327 0.929 . S
C339 C333 1.390 . S
C339 C336 1.386 . S
C340 C335 1.490 . S
C340 C342 1.395 . S
C340 C343 1.403 . S
H341 C347 0.930 . S
C342 H328 0.930 . S
C342 C340 1.395 . S
C342 C345 1.403 . S
C343 C340 1.403 . S
C343 C344 1.524 . S
C343 C347 1.400 . S
C344 H329 0.960 . S
C344 H330 0.960 . S
C344 H331 0.960 . S
C344 C343 1.524 . S
C345 C342 1.403 . S
C345 C346 1.392 . S
C345 C349 1.495 . S
C346 C345 1.392 . S
C346 C347 1.385 . S
C346 C348 1.478 . S
C347 H341 0.930 . S
C347 C343 1.400 . S
C347 C346 1.385 . S
C348 C346 1.478 . S
C348 C350 1.381 . S
C348 C354 1.383 . S
C349 C345 1.495 . S
C349 H355 0.959 . S
C349 H356 0.961 . S
C349 H357 0.960 . S
C350 C348 1.381 . S
C350 C351 1.394 . S
C350 H358 0.930 . S
C351 C350 1.394 . S
C351 C352 1.383 . S
C351 H359 0.929 . S
C352 C351 1.383 . S
C352 C353 1.377 . S
C353 H337 0.930 . S
C353 C352 1.377 . S
C353 C354 1.379 . S
C354 H338 0.931 . S
C354 C348 1.383 . S
C354 C353 1.379 . S
H355 C349 0.959 . S
H356 C349 0.961 . S
H357 C349 0.960 . S
H358 C350 0.930 . S
H359 C351 0.929 . S
H360 C368 0.929 . S
H361 C370 0.930 . S
H362 C372 0.930 . S
H363 C375 0.929 . S
H364 C378 0.930 . S
H365 C380 0.960 . S
H366 C380 0.960 . S
H367 C380 0.960 . S
C368 H360 0.929 . S
C368 C369 1.377 . S
C368 C370 1.384 . S
C369 C368 1.377 . S
C369 C375 1.390 . S
C370 H361 0.930 . S
C370 C368 1.384 . S
C370 C371 1.372 . S
C371 C370 1.372 . S
C371 C372 1.400 . S
C371 C376 1.490 . S
C372 H362 0.930 . S
C372 C371 1.400 . S
C372 C375 1.386 . S
H373 C389 0.930 . S
H374 C390 0.931 . S
C375 H363 0.929 . S
C375 C369 1.390 . S
C375 C372 1.386 . S
C376 C371 1.490 . S
C376 C378 1.395 . S
C376 C379 1.403 . S
H377 C383 0.930 . S
C378 H364 0.930 . S
C378 C376 1.395 . S
C378 C381 1.403 . S
C379 C376 1.403 . S
C379 C380 1.524 . S
C379 C383 1.400 . S
C380 H365 0.960 . S
C380 H366 0.960 . S
C380 H367 0.960 . S
C380 C379 1.524 . S
C381 C378 1.403 . S
C381 C382 1.392 . S
C381 C385 1.495 . S
C382 C381 1.392 . S
C382 C383 1.385 . S
C382 C384 1.478 . S
C383 H377 0.930 . S
C383 C379 1.400 . S
C383 C382 1.385 . S
C384 C382 1.478 . S
C384 C386 1.381 . S
C384 C390 1.383 . S
C385 C381 1.495 . S
C385 H391 0.959 . S
C385 H392 0.961 . S
C385 H393 0.960 . S
C386 C384 1.381 . S
C386 C387 1.394 . S
C386 H394 0.930 . S
C387 C386 1.394 . S
C387 C388 1.383 . S
C387 H395 0.929 . S
C388 C387 1.383 . S
C388 C389 1.377 . S
C389 H373 0.930 . S
C389 C388 1.377 . S
C389 C390 1.379 . S
C390 H374 0.931 . S
C390 C384 1.383 . S
C390 C389 1.379 . S
H391 C385 0.959 . S
H392 C385 0.961 . S
H393 C385 0.960 . S
H394 C386 0.930 . S
H395 C387 0.929 . S
H396 C404 0.929 . S
H397 C406 0.930 . S
H398 C408 0.930 . S
H399 C411 0.929 . S
H400 C414 0.930 . S
H401 C416 0.960 . S
H402 C416 0.960 . S
H403 C416 0.960 . S
C404 H396 0.929 . S
C404 C405 1.377 . S
C404 C406 1.384 . S
C405 C404 1.377 . S
C405 C411 1.390 . S
C406 H397 0.930 . S
C406 C404 1.384 . S
C406 C407 1.372 . S
C407 C406 1.372 . S
C407 C408 1.400 . S
C407 C412 1.490 . S
C408 H398 0.930 . S
C408 C407 1.400 . S
C408 C411 1.386 . S
H409 C425 0.930 . S
H410 C426 0.931 . S
C411 H399 0.929 . S
C411 C405 1.390 . S
C411 C408 1.386 . S
C412 C407 1.490 . S
C412 C414 1.395 . S
C412 C415 1.403 . S
H413 C419 0.930 . S
C414 H400 0.930 . S
C414 C412 1.395 . S
C414 C417 1.403 . S
C415 C412 1.403 . S
C415 C416 1.524 . S
C415 C419 1.400 . S
C416 H401 0.960 . S
C416 H402 0.960 . S
C416 H403 0.960 . S
C416 C415 1.524 . S
C417 C414 1.403 . S
C417 C418 1.392 . S
C417 C421 1.495 . S
C418 C417 1.392 . S
C418 C419 1.385 . S
C418 C420 1.478 . S
C419 H413 0.930 . S
C419 C415 1.400 . S
C419 C418 1.385 . S
C420 C418 1.478 . S
C420 C422 1.381 . S
C420 C426 1.383 . S
C421 C417 1.495 . S
C421 H427 0.959 . S
C421 H428 0.961 . S
C421 H429 0.960 . S
C422 C420 1.381 . S
C422 C423 1.394 . S
C422 H430 0.930 . S
C423 C422 1.394 . S
C423 C424 1.383 . S
C423 H431 0.929 . S
C424 C423 1.383 . S
C424 C425 1.377 . S
C425 H409 0.930 . S
C425 C424 1.377 . S
C425 C426 1.379 . S
C426 H410 0.931 . S
C426 C420 1.383 . S
C426 C425 1.379 . S
H427 C421 0.959 . S
H428 C421 0.961 . S
H429 C421 0.960 . S
H430 C422 0.930 . S
H431 C423 0.929 . S
H432 C440 0.929 . S
H433 C442 0.930 . S
H434 C444 0.930 . S
H435 C447 0.929 . S
H436 C450 0.930 . S
H437 C452 0.960 . S
H438 C452 0.960 . S
H439 C452 0.960 . S
C440 H432 0.929 . S
C440 C441 1.377 . S
C440 C442 1.384 . S
C441 C440 1.377 . S
C441 C447 1.390 . S
C442 H433 0.930 . S
C442 C440 1.384 . S
C442 C443 1.372 . S
C443 C442 1.372 . S
C443 C444 1.400 . S
C443 C448 1.490 . S
C444 H434 0.930 . S
C444 C443 1.400 . S
C444 C447 1.386 . S
H445 C461 0.930 . S
H446 C462 0.931 . S
C447 H435 0.929 . S
C447 C441 1.390 . S
C447 C444 1.386 . S
C448 C443 1.490 . S
C448 C450 1.395 . S
C448 C451 1.403 . S
H449 C455 0.930 . S
C450 H436 0.930 . S
C450 C448 1.395 . S
C450 C453 1.403 . S
C451 C448 1.403 . S
C451 C452 1.524 . S
C451 C455 1.400 . S
C452 H437 0.960 . S
C452 H438 0.960 . S
C452 H439 0.960 . S
C452 C451 1.524 . S
C453 C450 1.403 . S
C453 C454 1.392 . S
C453 C457 1.495 . S
C454 C453 1.392 . S
C454 C455 1.385 . S
C454 C456 1.478 . S
C455 H449 0.930 . S
C455 C451 1.400 . S
C455 C454 1.385 . S
C456 C454 1.478 . S
C456 C458 1.381 . S
C456 C462 1.383 . S
C457 C453 1.495 . S
C457 H463 0.959 . S
C457 H464 0.961 . S
C457 H465 0.960 . S
C458 C456 1.381 . S
C458 C459 1.394 . S
C458 H466 0.930 . S
C459 C458 1.394 . S
C459 C460 1.383 . S
C459 H467 0.929 . S
C460 C459 1.383 . S
C460 C461 1.377 . S
C461 H445 0.930 . S
C461 C460 1.377 . S
C461 C462 1.379 . S
C462 H446 0.931 . S
C462 C456 1.383 . S
C462 C461 1.379 . S
H463 C457 0.959 . S
H464 C457 0.961 . S
H465 C457 0.960 . S
H466 C458 0.930 . S
H467 C459 0.929 . S
H468 C476 0.929 . S
H469 C478 0.930 . S
H470 C480 0.930 . S
H471 C483 0.929 . S
H472 C486 0.930 . S
H473 C488 0.960 . S
H474 C488 0.960 . S
H475 C488 0.960 . S
C476 H468 0.929 . S
C476 C477 1.377 . S
C476 C478 1.384 . S
C477 C476 1.377 . S
C477 C483 1.390 . S
C478 H469 0.930 . S
C478 C476 1.384 . S
C478 C479 1.372 . S
C479 C478 1.372 . S
C479 C480 1.400 . S
C479 C484 1.490 . S
C480 H470 0.930 . S
C480 C479 1.400 . S
C480 C483 1.386 . S
H481 C497 0.930 . S
H482 C498 0.931 . S
C483 H471 0.929 . S
C483 C477 1.390 . S
C483 C480 1.386 . S
C484 C479 1.490 . S
C484 C486 1.395 . S
C484 C487 1.403 . S
H485 C491 0.930 . S
C486 H472 0.930 . S
C486 C484 1.395 . S
C486 C489 1.403 . S
C487 C484 1.403 . S
C487 C488 1.524 . S
C487 C491 1.400 . S
C488 H473 0.960 . S
C488 H474 0.960 . S
C488 H475 0.960 . S
C488 C487 1.524 . S
C489 C486 1.403 . S
C489 C490 1.392 . S
C489 C493 1.495 . S
C490 C489 1.392 . S
C490 C491 1.385 . S
C490 C492 1.478 . S
C491 H485 0.930 . S
C491 C487 1.400 . S
C491 C490 1.385 . S
C492 C490 1.478 . S
C492 C494 1.381 . S
C492 C498 1.383 . S
C493 C489 1.495 . S
C493 H499 0.959 . S
C493 H500 0.961 . S
C493 H501 0.960 . S
C494 C492 1.381 . S
C494 C495 1.394 . S
C494 H502 0.930 . S
C495 C494 1.394 . S
C495 C496 1.383 . S
C495 H503 0.929 . S
C496 C495 1.383 . S
C496 C497 1.377 . S
C497 H481 0.930 . S
C497 C496 1.377 . S
C497 C498 1.379 . S
C498 H482 0.931 . S
C498 C492 1.383 . S
C498 C497 1.379 . S
H499 C493 0.959 . S
H500 C493 0.961 . S
H501 C493 0.960 . S
H502 C494 0.930 . S
H503 C495 0.929 . S
H504 C512 0.929 . S
H505 C514 0.930 . S
H506 C516 0.930 . S
H507 C519 0.929 . S
H508 C522 0.930 . S
H509 C524 0.960 . S
H510 C524 0.960 . S
H511 C524 0.960 . S
C512 H504 0.929 . S
C512 C513 1.377 . S
C512 C514 1.384 . S
C513 C512 1.377 . S
C513 C519 1.390 . S
C514 H505 0.930 . S
C514 C512 1.384 . S
C514 C515 1.372 . S
C515 C514 1.372 . S
C515 C516 1.400 . S
C515 C520 1.490 . S
C516 H506 0.930 . S
C516 C515 1.400 . S
C516 C519 1.386 . S
H517 C533 0.930 . S
H518 C534 0.931 . S
C519 H507 0.929 . S
C519 C513 1.390 . S
C519 C516 1.386 . S
C520 C515 1.490 . S
C520 C522 1.395 . S
C520 C523 1.403 . S
H521 C527 0.930 . S
C522 H508 0.930 . S
C522 C520 1.395 . S
C522 C525 1.403 . S
C523 C520 1.403 . S
C523 C524 1.524 . S
C523 C527 1.400 . S
C524 H509 0.960 . S
C524 H510 0.960 . S
C524 H511 0.960 . S
C524 C523 1.524 . S
C525 C522 1.403 . S
C525 C526 1.392 . S
C525 C529 1.495 . S
C526 C525 1.392 . S
C526 C527 1.385 . S
C526 C528 1.478 . S
C527 H521 0.930 . S
C527 C523 1.400 . S
C527 C526 1.385 . S
C528 C526 1.478 . S
C528 C530 1.381 . S
C528 C534 1.383 . S
C529 C525 1.495 . S
C529 H535 0.959 . S
C529 H536 0.961 . S
C529 H537 0.960 . S
C530 C528 1.381 . S
C530 C531 1.394 . S
C530 H538 0.930 . S
C531 C530 1.394 . S
C531 C532 1.383 . S
C531 H539 0.929 . S
C532 C531 1.383 . S
C532 C533 1.377 . S
C533 H517 0.930 . S
C533 C532 1.377 . S
C533 C534 1.379 . S
C534 H518 0.931 . S
C534 C528 1.383 . S
C534 C533 1.379 . S
H535 C529 0.959 . S
H536 C529 0.961 . S
H537 C529 0.960 . S
H538 C530 0.930 . S
H539 C531 0.929 . S
H540 C548 0.929 . S
H541 C550 0.930 . S
H542 C552 0.930 . S
H543 C555 0.929 . S
H544 C558 0.930 . S
H545 C560 0.960 . S
H546 C560 0.960 . S
H547 C560 0.960 . S
C548 H540 0.929 . S
C548 C549 1.377 . S
C548 C550 1.384 . S
C549 C548 1.377 . S
C549 C555 1.390 . S
C550 H541 0.930 . S
C550 C548 1.384 . S
C550 C551 1.372 . S
C551 C550 1.372 . S
C551 C552 1.400 . S
C551 C556 1.490 . S
C552 H542 0.930 . S
C552 C551 1.400 . S
C552 C555 1.386 . S
H553 C569 0.930 . S
H554 C570 0.931 . S
C555 H543 0.929 . S
C555 C549 1.390 . S
C555 C552 1.386 . S
C556 C551 1.490 . S
C556 C558 1.395 . S
C556 C559 1.403 . S
H557 C563 0.930 . S
C558 H544 0.930 . S
C558 C556 1.395 . S
C558 C561 1.403 . S
C559 C556 1.403 . S
C559 C560 1.524 . S
C559 C563 1.400 . S
C560 H545 0.960 . S
C560 H546 0.960 . S
C560 H547 0.960 . S
C560 C559 1.524 . S
C561 C558 1.403 . S
C561 C562 1.392 . S
C561 C565 1.495 . S
C562 C561 1.392 . S
C562 C563 1.385 . S
C562 C564 1.478 . S
C563 H557 0.930 . S
C563 C559 1.400 . S
C563 C562 1.385 . S
C564 C562 1.478 . S
C564 C566 1.381 . S
C564 C570 1.383 . S
C565 C561 1.495 . S
C565 H571 0.959 . S
C565 H572 0.961 . S
C565 H573 0.960 . S
C566 C564 1.381 . S
C566 C567 1.394 . S
C566 H574 0.930 . S
C567 C566 1.394 . S
C567 C568 1.383 . S
C567 H575 0.929 . S
C568 C567 1.383 . S
C568 C569 1.377 . S
C569 H553 0.930 . S
C569 C568 1.377 . S
C569 C570 1.379 . S
C570 H554 0.931 . S
C570 C564 1.383 . S
C570 C569 1.379 . S
H571 C565 0.959 . S
H572 C565 0.961 . S
H573 C565 0.960 . S
H574 C566 0.930 . S
H575 C567 0.929 . S
H576 C584 0.929 . S
H577 C586 0.930 . S
H578 C588 0.930 . S
H579 C591 0.929 . S
H580 C594 0.930 . S
H581 C596 0.960 . S
H582 C596 0.960 . S
H583 C596 0.960 . S
C584 H576 0.929 . S
C584 C585 1.377 . S
C584 C586 1.384 . S
C585 C584 1.377 . S
C585 C591 1.390 . S
C586 H577 0.930 . S
C586 C584 1.384 . S
C586 C587 1.372 . S
C587 C586 1.372 . S
C587 C588 1.400 . S
C587 C592 1.490 . S
C588 H578 0.930 . S
C588 C587 1.400 . S
C588 C591 1.386 . S
H589 C605 0.930 . S
H590 C606 0.931 . S
C591 H579 0.929 . S
C591 C585 1.390 . S
C591 C588 1.386 . S
C592 C587 1.490 . S
C592 C594 1.395 . S
C592 C595 1.403 . S
H593 C599 0.930 . S
C594 H580 0.930 . S
C594 C592 1.395 . S
C594 C597 1.403 . S
C595 C592 1.403 . S
C595 C596 1.524 . S
C595 C599 1.400 . S
C596 H581 0.960 . S
C596 H582 0.960 . S
C596 H583 0.960 . S
C596 C595 1.524 . S
C597 C594 1.403 . S
C597 C598 1.392 . S
C597 C601 1.495 . S
C598 C597 1.392 . S
C598 C599 1.385 . S
C598 C600 1.478 . S
C599 H593 0.930 . S
C599 C595 1.400 . S
C599 C598 1.385 . S
C600 C598 1.478 . S
C600 C602 1.381 . S
C600 C606 1.383 . S
C601 C597 1.495 . S
C601 H607 0.959 . S
C601 H608 0.961 . S
C601 H609 0.960 . S
C602 C600 1.381 . S
C602 C603 1.394 . S
C602 H610 0.930 . S
C603 C602 1.394 . S
C603 C604 1.383 . S
C603 H611 0.929 . S
C604 C603 1.383 . S
C604 C605 1.377 . S
C605 H589 0.930 . S
C605 C604 1.377 . S
C605 C606 1.379 . S
C606 H590 0.931 . S
C606 C600 1.383 . S
C606 C605 1.379 . S
H607 C601 0.959 . S
H608 C601 0.961 . S
H609 C601 0.960 . S
H610 C602 0.930 . S
H611 C603 0.929 . S
H612 C620 0.929 . S
H613 C622 0.930 . S
H614 C624 0.930 . S
H615 C627 0.929 . S
H616 C630 0.930 . S
H617 C632 0.960 . S
H618 C632 0.960 . S
H619 C632 0.960 . S
C620 H612 0.929 . S
C620 C621 1.377 . S
C620 C622 1.384 . S
C621 C620 1.377 . S
C621 C627 1.390 . S
C622 H613 0.930 . S
C622 C620 1.384 . S
C622 C623 1.372 . S
C623 C622 1.372 . S
C623 C624 1.400 . S
C623 C628 1.490 . S
C624 H614 0.930 . S
C624 C623 1.400 . S
C624 C627 1.386 . S
H625 C641 0.930 . S
H626 C642 0.931 . S
C627 H615 0.929 . S
C627 C621 1.390 . S
C627 C624 1.386 . S
C628 C623 1.490 . S
C628 C630 1.395 . S
C628 C631 1.403 . S
H629 C635 0.930 . S
C630 H616 0.930 . S
C630 C628 1.395 . S
C630 C633 1.403 . S
C631 C628 1.403 . S
C631 C632 1.524 . S
C631 C635 1.400 . S
C632 H617 0.960 . S
C632 H618 0.960 . S
C632 H619 0.960 . S
C632 C631 1.524 . S
C633 C630 1.403 . S
C633 C634 1.392 . S
C633 C637 1.495 . S
C634 C633 1.392 . S
C634 C635 1.385 . S
C634 C636 1.478 . S
C635 H629 0.930 . S
C635 C631 1.400 . S
C635 C634 1.385 . S
C636 C634 1.478 . S
C636 C638 1.381 . S
C636 C642 1.383 . S
C637 C633 1.495 . S
C637 H643 0.959 . S
C637 H644 0.961 . S
C637 H645 0.960 . S
C638 C636 1.381 . S
C638 C639 1.394 . S
C638 H646 0.930 . S
C639 C638 1.394 . S
C639 C640 1.383 . S
C639 H647 0.929 . S
C640 C639 1.383 . S
C640 C641 1.377 . S
C641 H625 0.930 . S
C641 C640 1.377 . S
C641 C642 1.379 . S
C642 H626 0.931 . S
C642 C636 1.383 . S
C642 C641 1.379 . S
H643 C637 0.959 . S
H644 C637 0.961 . S
H645 C637 0.960 . S
H646 C638 0.930 . S
H647 C639 0.929 . S
H648 C656 0.929 . S
H649 C658 0.930 . S
H650 C660 0.930 . S
H651 C663 0.929 . S
H652 C666 0.930 . S
H653 C668 0.960 . S
H654 C668 0.960 . S
H655 C668 0.960 . S
C656 H648 0.929 . S
C656 C657 1.377 . S
C656 C658 1.384 . S
C657 C656 1.377 . S
C657 C663 1.390 . S
C658 H649 0.930 . S
C658 C656 1.384 . S
C658 C659 1.372 . S
C659 C658 1.372 . S
C659 C660 1.400 . S
C659 C664 1.490 . S
C660 H650 0.930 . S
C660 C659 1.400 . S
C660 C663 1.386 . S
H661 C677 0.930 . S
H662 C678 0.931 . S
C663 H651 0.929 . S
C663 C657 1.390 . S
C663 C660 1.386 . S
C664 C659 1.490 . S
C664 C666 1.395 . S
C664 C667 1.403 . S
H665 C671 0.930 . S
C666 H652 0.930 . S
C666 C664 1.395 . S
C666 C669 1.403 . S
C667 C664 1.403 . S
C667 C668 1.524 . S
C667 C671 1.400 . S
C668 H653 0.960 . S
C668 H654 0.960 . S
C668 H655 0.960 . S
C668 C667 1.524 . S
C669 C666 1.403 . S
C669 C670 1.392 . S
C669 C673 1.495 . S
C670 C669 1.392 . S
C670 C671 1.385 . S
C670 C672 1.478 . S
C671 H665 0.930 . S
C671 C667 1.400 . S
C671 C670 1.385 . S
C672 C670 1.478 . S
C672 C674 1.381 . S
C672 C678 1.383 . S
C673 C669 1.495 . S
C673 H679 0.959 . S
C673 H680 0.961 . S
C673 H681 0.960 . S
C674 C672 1.381 . S
C674 C675 1.394 . S
C674 H682 0.930 . S
C675 C674 1.394 . S
C675 C676 1.383 . S
C675 H683 0.929 . S
C676 C675 1.383 . S
C676 C677 1.377 . S
C677 H661 0.930 . S
C677 C676 1.377 . S
C677 C678 1.379 . S
C678 H662 0.931 . S
C678 C672 1.383 . S
C678 C677 1.379 . S
H679 C673 0.959 . S
H680 C673 0.961 . S
H681 C673 0.960 . S
H682 C674 0.930 . S
H683 C675 0.929 . S
H684 C692 0.929 . S
H685 C694 0.930 . S
H686 C696 0.930 . S
H687 C699 0.929 . S
H688 C702 0.930 . S
H689 C704 0.960 . S
H690 C704 0.960 . S
H691 C704 0.960 . S
C692 H684 0.929 . S
C692 C693 1.377 . S
C692 C694 1.384 . S
C693 C692 1.377 . S
C693 C699 1.390 . S
C694 H685 0.930 . S
C694 C692 1.384 . S
C694 C695 1.372 . S
C695 C694 1.372 . S
C695 C696 1.400 . S
C695 C700 1.490 . S
C696 H686 0.930 . S
C696 C695 1.400 . S
C696 C699 1.386 . S
H697 C713 0.930 . S
H698 C714 0.931 . S
C699 H687 0.929 . S
C699 C693 1.390 . S
C699 C696 1.386 . S
C700 C695 1.490 . S
C700 C702 1.395 . S
C700 C703 1.403 . S
H701 C707 0.930 . S
C702 H688 0.930 . S
C702 C700 1.395 . S
C702 C705 1.403 . S
C703 C700 1.403 . S
C703 C704 1.524 . S
C703 C707 1.400 . S
C704 H689 0.960 . S
C704 H690 0.960 . S
C704 H691 0.960 . S
C704 C703 1.524 . S
C705 C702 1.403 . S
C705 C706 1.392 . S
C705 C709 1.495 . S
C706 C705 1.392 . S
C706 C707 1.385 . S
C706 C708 1.478 1_554 S
C707 H701 0.930 . S
C707 C703 1.400 . S
C707 C706 1.385 . S
C708 C706 1.478 1_556 S
C708 C710 1.381 . S
C708 C714 1.383 . S
C709 C705 1.495 . S
C709 H715 0.959 . S
C709 H716 0.961 . S
C709 H717 0.960 . S
C710 C708 1.381 . S
C710 C711 1.394 . S
C710 H718 0.930 . S
C711 C710 1.394 . S
C711 C712 1.383 . S
C711 H719 0.929 . S
C712 C711 1.383 . S
C712 C713 1.377 . S
C713 H697 0.930 . S
C713 C712 1.377 . S
C713 C714 1.379 . S
C714 H698 0.931 . S
C714 C708 1.383 . S
C714 C713 1.379 . S
H715 C709 0.959 . S
H716 C709 0.961 . S
H717 C709 0.960 . S
H718 C710 0.930 . S
H719 C711 0.929 . S
H720 C728 0.929 . S
H721 C730 0.930 . S
H722 C732 0.930 . S
H723 C735 0.929 . S
H724 C738 0.930 . S
H725 C740 0.960 . S
H726 C740 0.960 . S
H727 C740 0.960 . S
C728 H720 0.929 . S
C728 C729 1.377 . S
C728 C730 1.384 . S
C729 C728 1.377 . S
C729 C735 1.390 . S
C730 H721 0.930 . S
C730 C728 1.384 . S
C730 C731 1.372 . S
C731 C730 1.372 . S
C731 C732 1.400 . S
C731 C736 1.490 . S
C732 H722 0.930 . S
C732 C731 1.400 . S
C732 C735 1.386 . S
H733 C749 0.930 . S
H734 C750 0.931 . S
C735 H723 0.929 . S
C735 C729 1.390 . S
C735 C732 1.386 . S
C736 C731 1.490 . S
C736 C738 1.395 . S
C736 C739 1.403 . S
H737 C743 0.930 . S
C738 H724 0.930 . S
C738 C736 1.395 . S
C738 C741 1.403 . S
C739 C736 1.403 . S
C739 C740 1.524 . S
C739 C743 1.400 . S
C740 H725 0.960 . S
C740 H726 0.960 . S
C740 H727 0.960 . S
C740 C739 1.524 . S
C741 C738 1.403 . S
C741 C742 1.392 . S
C741 C745 1.495 . S
C742 C741 1.392 . S
C742 C743 1.385 . S
C742 C744 1.478 . S
C743 H737 0.930 . S
C743 C739 1.400 . S
C743 C742 1.385 . S
C744 C742 1.478 . S
C744 C746 1.381 . S
C744 C750 1.383 . S
C745 C741 1.495 . S
C745 H751 0.959 . S
C745 H752 0.961 1_545 S
C745 H753 0.960 . S
C746 C744 1.381 . S
C746 C747 1.394 . S
C746 H754 0.930 . S
C747 C746 1.394 . S
C747 C748 1.383 . S
C747 H755 0.929 . S
C748 C747 1.383 . S
C748 C749 1.377 . S
C749 H733 0.930 . S
C749 C748 1.377 . S
C749 C750 1.379 . S
C750 H734 0.931 . S
C750 C744 1.383 . S
C750 C749 1.379 . S
H751 C745 0.959 . S
H752 C745 0.961 1_565 S
H753 C745 0.960 . S
H754 C746 0.930 . S
H755 C747 0.929 . S
H756 C764 0.929 . S
H757 C766 0.930 . S
H758 C768 0.930 . S
H759 C771 0.929 . S
H760 C774 0.930 . S
H761 C776 0.960 . S
H762 C776 0.960 . S
H763 C776 0.960 . S
C764 H756 0.929 . S
C764 C765 1.377 . S
C764 C766 1.384 . S
C765 C764 1.377 . S
C765 C771 1.390 . S
C766 H757 0.930 . S
C766 C764 1.384 . S
C766 C767 1.372 . S
C767 C766 1.372 . S
C767 C768 1.400 . S
C767 C772 1.490 . S
C768 H758 0.930 . S
C768 C767 1.400 . S
C768 C771 1.386 . S
H769 C785 0.930 . S
H770 C786 0.931 . S
C771 H759 0.929 . S
C771 C765 1.390 . S
C771 C768 1.386 . S
C772 C767 1.490 . S
C772 C774 1.395 . S
C772 C775 1.403 . S
H773 C779 0.930 . S
C774 H760 0.930 . S
C774 C772 1.395 . S
C774 C777 1.403 . S
C775 C772 1.403 . S
C775 C776 1.524 . S
C775 C779 1.400 . S
C776 H761 0.960 . S
C776 H762 0.960 . S
C776 H763 0.960 . S
C776 C775 1.524 . S
C777 C774 1.403 . S
C777 C778 1.392 . S
C777 C781 1.495 . S
C778 C777 1.392 . S
C778 C779 1.385 . S
C778 C780 1.478 . S
C779 H773 0.930 . S
C779 C775 1.400 . S
C779 C778 1.385 . S
C780 C778 1.478 . S
C780 C782 1.381 . S
C780 C786 1.383 . S
C781 C777 1.495 . S
C781 H787 0.959 . S
C781 H788 0.961 . S
C781 H789 0.960 . S
C782 C780 1.381 . S
C782 C783 1.394 . S
C782 H790 0.930 . S
C783 C782 1.394 . S
C783 C784 1.383 . S
C783 H791 0.929 . S
C784 C783 1.383 . S
C784 C785 1.377 . S
C785 H769 0.930 . S
C785 C784 1.377 . S
C785 C786 1.379 . S
C786 H770 0.931 . S
C786 C780 1.383 . S
C786 C785 1.379 . S
H787 C781 0.959 . S
H788 C781 0.961 . S
H789 C781 0.960 . S
H790 C782 0.930 . S
H791 C783 0.929 . S
H792 C800 0.929 . S
H793 C802 0.930 . S
H794 C804 0.930 . S
H795 C807 0.929 . S
H796 C810 0.940 . S
H797 C812 0.960 . S
H798 C812 0.960 . S
H799 C812 0.960 . S
C800 H792 0.929 . S
C800 C801 1.377 1_565 S
C800 C802 1.384 . S
C801 C800 1.377 1_545 S
C801 C807 1.390 . S
C802 H793 0.930 . S
C802 C800 1.384 . S
C802 C803 1.372 1_565 S
C803 C802 1.372 1_545 S
C803 C804 1.400 . S
C803 C808 1.490 . S
C804 H794 0.930 . S
C804 C803 1.400 . S
C804 C807 1.386 . S
H805 C821 0.930 . S
H806 C822 0.931 . S
C807 H795 0.929 . S
C807 C801 1.390 . S
C807 C804 1.386 . S
C808 C803 1.490 . S
C808 C810 1.381 1_545 S
C808 C811 1.403 . S
H809 C815 0.930 . S
C810 H796 0.940 . S
C810 C808 1.381 1_565 S
C810 C813 1.407 . S
C811 C808 1.403 . S
C811 C812 1.524 . S
C811 C815 1.400 . S
C812 H797 0.960 . S
C812 H798 0.960 . S
C812 H799 0.960 . S
C812 C811 1.524 . S
C813 C810 1.407 . S
C813 C814 1.392 1_565 S
C813 C817 1.495 . S
C814 C813 1.392 1_545 S
C814 C815 1.385 . S
C814 C816 1.478 . S
C815 H809 0.930 . S
C815 C811 1.400 . S
C815 C814 1.385 . S
C816 C814 1.478 . S
C816 C818 1.381 1_545 S
C816 C822 1.383 . S
C817 C813 1.495 . S
C817 H823 0.959 . S
C817 H824 0.961 . S
C817 H825 0.960 . S
C818 C816 1.381 1_565 S
C818 C819 1.394 . S
C818 H826 0.930 . S
C819 C818 1.394 . S
C819 C820 1.383 1_565 S
C819 H827 0.929 . S
C820 C819 1.383 1_545 S
C820 C821 1.377 . S
C821 H805 0.930 . S
C821 C820 1.377 . S
C821 C822 1.379 . S
C822 H806 0.931 . S
C822 C816 1.383 . S
C822 C821 1.379 . S
H823 C817 0.959 . S
H824 C817 0.961 . S
H825 C817 0.960 . S
H826 C818 0.930 . S
H827 C819 0.929 . S
H828 C836 0.929 . S
H829 C838 0.930 . S
H830 C840 0.930 . S
H831 C843 0.929 . S
H832 C846 0.930 . S
H833 C848 0.960 . S
H834 C848 0.960 . S
H835 C848 0.960 . S
C836 H828 0.929 . S
C836 C837 1.377 . S
C836 C838 1.384 . S
C837 C836 1.377 . S
C837 C843 1.390 . S
C838 H829 0.930 . S
C838 C836 1.384 . S
C838 C839 1.372 . S
C839 C838 1.372 . S
C839 C840 1.400 . S
C839 C844 1.490 . S
C840 H830 0.930 . S
C840 C839 1.400 . S
C840 C843 1.386 . S
H841 C857 0.930 . S
H842 C858 0.931 1_556 S
C843 H831 0.929 . S
C843 C837 1.390 . S
C843 C840 1.386 . S
C844 C839 1.490 . S
C844 C846 1.395 . S
C844 C847 1.403 . S
H845 C851 0.930 . S
C846 H832 0.930 . S
C846 C844 1.395 . S
C846 C849 1.403 . S
C847 C844 1.403 . S
C847 C848 1.524 . S
C847 C851 1.400 . S
C848 H833 0.960 . S
C848 H834 0.960 . S
C848 H835 0.960 . S
C848 C847 1.524 . S
C849 C846 1.403 . S
C849 C850 1.392 . S
C849 C853 1.495 . S
C850 C849 1.392 . S
C850 C851 1.385 . S
C850 C852 1.520 . S
C851 H845 0.930 . S
C851 C847 1.400 . S
C851 C850 1.385 . S
C852 C850 1.520 . S
C852 C854 1.356 1_556 S
C852 C858 1.366 1_556 S
C853 C849 1.495 . S
C853 H859 0.959 . S
C853 H860 0.961 . S
C853 H861 0.960 . S
C854 C852 1.356 1_554 S
C854 C855 1.394 . S
C854 H862 0.930 . S
C855 C854 1.394 . S
C855 C856 1.383 . S
C855 H863 0.929 . S
C856 C855 1.383 . S
C856 C857 1.377 . S
C857 H841 0.930 . S
C857 C856 1.377 . S
C857 C858 1.379 . S
C858 H842 0.931 1_554 S
C858 C852 1.366 1_554 S
C858 C857 1.379 . S
H859 C853 0.959 . S
H860 C853 0.961 . S
H861 C853 0.960 . S
H862 C854 0.930 . S
H863 C855 0.929 . S
H864 C872 0.929 . S
H865 C874 0.930 . S
H866 C876 0.930 . S
H867 C879 0.929 . S
H868 C882 0.930 . S
H869 C884 0.960 . S
H870 C884 0.960 . S
H871 C884 0.960 . S
C872 H864 0.929 . S
C872 C873 1.377 . S
C872 C874 1.384 . S
C873 C872 1.377 . S
C873 C879 1.390 . S
C874 H865 0.930 . S
C874 C872 1.384 . S
C874 C875 1.372 . S
C875 C874 1.372 . S
C875 C876 1.400 . S
C875 C880 1.490 . S
C876 H866 0.930 . S
C876 C875 1.400 . S
C876 C879 1.386 . S
H877 C893 0.930 . S
H878 C894 0.931 . S
C879 H867 0.929 . S
C879 C873 1.390 . S
C879 C876 1.386 . S
C880 C875 1.490 . S
C880 C882 1.395 . S
C880 C883 1.403 1_455 S
H881 C887 0.930 . S
C882 H868 0.930 . S
C882 C880 1.395 . S
C882 C885 1.403 . S
C883 C880 1.403 1_655 S
C883 C884 1.524 . S
C883 C887 1.400 . S
C884 H869 0.960 . S
C884 H870 0.960 . S
C884 H871 0.960 . S
C884 C883 1.524 . S
C885 C882 1.403 . S
C885 C886 1.392 . S
C885 C889 1.495 . S
C886 C885 1.392 . S
C886 C887 1.385 1_455 S
C886 C888 1.478 . S
C887 H881 0.930 . S
C887 C883 1.400 . S
C887 C886 1.385 1_655 S
C888 C886 1.478 . S
C888 C890 1.381 . S
C888 C894 1.383 . S
C889 C885 1.495 . S
C889 H895 0.959 . S
C889 H896 0.961 . S
C889 H897 0.960 . S
C890 C888 1.381 . S
C890 C891 1.394 . S
C890 H898 0.930 . S
C891 C890 1.394 . S
C891 C892 1.383 . S
C891 H899 0.922 . S
C892 C891 1.383 . S
C892 C893 1.377 . S
C893 H877 0.930 . S
C893 C892 1.377 . S
C893 C894 1.379 . S
C894 H878 0.931 . S
C894 C888 1.383 . S
C894 C893 1.379 . S
H895 C889 0.959 . S
H896 C889 0.961 . S
H897 C889 0.960 . S
H898 C890 0.930 . S
H899 C891 0.922 . S
C261 C8 1.931 . S
C280 C243 1.961 . S
C297 C26 1.275 . S
C316 C179 1.231 . S
C333 C48 1.435 . S
C352 C211 1.427 . S
C369 C19 1.712 . S
C388 C237 1.761 . S
C424 C173 1.386 . S
C405 C36 1.416 . S
C460 C205 1.618 . S
C441 C59 1.588 . S
C477 C28 1.456 . S
C496 C115 1.460 . S
C513 C46 1.149 . S
C532 C147 1.172 . S
C549 C16 1.488 . S
C568 C77 1.462 . S
C604 C109 1.589 . S
C585 C39 1.559 . S
C640 C141 0.945 . S
C621 C56 0.951 . S
C657 C6 1.308 . S
C676 C83 1.254 . S
C712 C153 1.427 . S
C693 C9 1.408 . S
C729 C21 1.490 . S
C748 C89 1.432 . S
C765 C49 1.465 . S
C784 C121 1.472 . S
C820 C217 1.419 . S
C801 C29 1.455 . S
C856 C249 1.547 . S
C837 C41 1.565 . S
C873 C1 1.495 . S
C892 C185 1.448 . S
