# Generated by pormake.
# Topology ant, (3,6)-cn, num edge types: 1
# Building blocks:
#     Node 0, Type 0, BuildingBlock: ESEHIV_clean_linker_0, # of connection points: 3
#     Node 1, Type 0, BuildingBlock: ESEHIV_clean_linker_0, # of connection points: 3
#     Node 2, Type 0, BuildingBlock: ESEHIV_clean_linker_0, # of connection points: 3
#     Node 3, Type 0, BuildingBlock: ESEHIV_clean_linker_0, # of connection points: 3
#     Node 4, Type 0, BuildingBlock: ESEHIV_clean_linker_0, # of connection points: 3
#     Node 5, Type 0, BuildingBlock: ESEHIV_clean_linker_0, # of connection points: 3
#     Node 6, Type 0, BuildingBlock: ESEHIV_clean_linker_0, # of connection points: 3
#     Node 7, Type 0, BuildingBlock: ESEHIV_clean_linker_0, # of connection points: 3
#     Node 8, Type 1, BuildingBlock: MIDCAF_clean_sbu_0, # of connection points: 6
#     Node 9, Type 1, BuildingBlock: MIDCAF_clean_sbu_0, # of connection points: 6
#     Node 10, Type 1, BuildingBlock: MIDCAF_clean_sbu_0, # of connection points: 6
#     Node 11, Type 1, BuildingBlock: MIDCAF_clean_sbu_0, # of connection points: 6
#     Edge 12, Type (0, 1), BuildingBlock: MIFKUJ_clean_linker_0, # of connection points: 2
#     Edge 13, Type (0, 1), BuildingBlock: MIFKUJ_clean_linker_0, # of connection points: 2
#     Edge 14, Type (0, 1), BuildingBlock: MIFKUJ_clean_linker_0, # of connection points: 2
#     Edge 15, Type (0, 1), BuildingBlock: MIFKUJ_clean_linker_0, # of connection points: 2
#     Edge 16, Type (0, 1), BuildingBlock: MIFKUJ_clean_linker_0, # of connection points: 2
#     Edge 17, Type (0, 1), BuildingBlock: MIFKUJ_clean_linker_0, # of connection points: 2
#     Edge 18, Type (0, 1), BuildingBlock: MIFKUJ_clean_linker_0, # of connection points: 2
#     Edge 19, Type (0, 1), BuildingBlock: MIFKUJ_clean_linker_0, # of connection points: 2
#     Edge 20, Type (0, 1), BuildingBlock: MIFKUJ_clean_linker_0, # of connection points: 2
#     Edge 21, Type (0, 1), BuildingBlock: MIFKUJ_clean_linker_0, # of connection points: 2
#     Edge 22, Type (0, 1), BuildingBlock: MIFKUJ_clean_linker_0, # of connection points: 2
#     Edge 23, Type (0, 1), BuildingBlock: MIFKUJ_clean_linker_0, # of connection points: 2
#     Edge 24, Type (0, 1), BuildingBlock: MIFKUJ_clean_linker_0, # of connection points: 2
#     Edge 25, Type (0, 1), BuildingBlock: MIFKUJ_clean_linker_0, # of connection points: 2
#     Edge 26, Type (0, 1), BuildingBlock: MIFKUJ_clean_linker_0, # of connection points: 2
#     Edge 27, Type (0, 1), BuildingBlock: MIFKUJ_clean_linker_0, # of connection points: 2
#     Edge 28, Type (0, 1), BuildingBlock: MIFKUJ_clean_linker_0, # of connection points: 2
#     Edge 29, Type (0, 1), BuildingBlock: MIFKUJ_clean_linker_0, # of connection points: 2
#     Edge 30, Type (0, 1), BuildingBlock: MIFKUJ_clean_linker_0, # of connection points: 2
#     Edge 31, Type (0, 1), BuildingBlock: MIFKUJ_clean_linker_0, # of connection points: 2
#     Edge 32, Type (0, 1), BuildingBlock: MIFKUJ_clean_linker_0, # of connection points: 2
#     Edge 33, Type (0, 1), BuildingBlock: MIFKUJ_clean_linker_0, # of connection points: 2
#     Edge 34, Type (0, 1), BuildingBlock: MIFKUJ_clean_linker_0, # of connection points: 2
#     Edge 35, Type (0, 1), BuildingBlock: MIFKUJ_clean_linker_0, # of connection points: 2
# Relax obj value: 0.104
# Max RMSD: 0.160
# Mean RMSD: 0.105
data_MOF--net-ant--node1-MIDCAF_clean_sbu_0--node2-ESEHIV_clean_linker_0--edge1-MIFKUJ_clean_linker_0
_symmetry_space_group_name_H-M    P1
_symmetry_Int_Tables_number       1
_symmetry_cell_setting            triclinic
loop_
_symmetry_equiv_pos_as_xyz
'x, y, z'
_cell_length_a     34.714611
_cell_length_b     34.52716
_cell_length_c     94.592939
_cell_angle_alpha  90.298671
_cell_angle_beta   93.485638
_cell_angle_gamma 89.974962
loop_
_atom_site_label
_atom_site_type_symbol
_atom_site_fract_x
_atom_site_fract_y
_atom_site_fract_z
_atom_type_partial_charge
H0 H 0.17076 0.25837 0.04673 0.0
H1 H 0.19245 0.13842 0.05591 0.0
H2 H 0.21127 0.22395 0.08881 0.0
C3 C 0.17929 0.23593 0.05425 0.0
C4 C 0.19041 0.24609 0.06834 0.0
C5 C 0.18021 0.19724 0.04966 0.0
C6 C 0.19215 0.16844 0.05933 0.0
C7 C 0.20342 0.17782 0.07344 0.0
C8 C 0.20305 0.21676 0.07787 0.0
H9 H 0.01615 0.82487 0.29516 0.0
H10 H 0.13883 0.8413 0.29823 0.0
H11 H 0.07522 0.84663 0.33583 0.0
C12 C 0.04245 0.83104 0.30153 0.0
C13 C 0.04106 0.8359 0.31627 0.0
C14 C 0.07744 0.8332 0.29491 0.0
C15 C 0.1115 0.84084 0.3032 0.0
C16 C 0.11106 0.84567 0.31795 0.0
C17 C 0.07573 0.84285 0.32446 0.0
H18 H 0.68873 0.75003 0.54532 0.0
H19 H 0.72485 0.63245 0.55208 0.0
H20 H 0.7349 0.71449 0.58658 0.0
C21 C 0.70073 0.72788 0.55238 0.0
C22 C 0.71092 0.73707 0.56661 0.0
C23 C 0.70557 0.69025 0.54714 0.0
C24 C 0.72141 0.66162 0.55613 0.0
C25 C 0.73261 0.67027 0.57032 0.0
C26 C 0.72697 0.70796 0.57557 0.0
H27 H 0.52773 0.28575 0.79702 0.0
H28 H 0.64649 0.321 0.79927 0.0
H29 H 0.5855 0.31336 0.83742 0.0
C30 C 0.55329 0.29521 0.80324 0.0
C31 C 0.55226 0.29887 0.81802 0.0
C32 C 0.58716 0.30286 0.79642 0.0
C33 C 0.62012 0.3153 0.80449 0.0
C34 C 0.61979 0.31934 0.81926 0.0
C35 C 0.58575 0.31095 0.826 0.0
H36 H 0.04264 0.65462 0.94337 0.0
H37 H 0.07958 0.77234 0.95038 0.0
H38 H 0.03196 0.73627 0.90925 0.0
C39 C 0.04655 0.68374 0.93947 0.0
C40 C 0.0353 0.69219 0.92533 0.0
C41 C 0.06303 0.71229 0.94854 0.0
C42 C 0.06737 0.75004 0.94336 0.0
C43 C 0.05596 0.75931 0.92924 0.0
C44 C 0.04029 0.72991 0.92022 0.0
H45 H 0.62317 0.82162 0.1974 0.0
H46 H 0.74432 0.79673 0.19923 0.0
H47 H 0.68184 0.80718 0.15876 0.0
C48 C 0.64937 0.8167 0.19198 0.0
C49 C 0.64797 0.8155 0.17705 0.0
C50 C 0.68385 0.80934 0.20001 0.0
C51 C 0.71756 0.80226 0.19305 0.0
C52 C 0.71721 0.80193 0.17821 0.0
C53 C 0.68241 0.80898 0.17021 0.0
H54 H 0.53079 0.16697 0.4425 0.0
H55 H 0.56465 0.28379 0.45294 0.0
H56 H 0.51878 0.25532 0.41073 0.0
C57 C 0.53325 0.19713 0.43952 0.0
C58 C 0.52261 0.20813 0.4256 0.0
C59 C 0.54883 0.22408 0.44941 0.0
C60 C 0.55272 0.26287 0.4453 0.0
C61 C 0.54166 0.27481 0.43142 0.0
C62 C 0.52719 0.2469 0.4215 0.0
H63 H 0.12227 0.32853 0.69825 0.0
H64 H 0.24319 0.30219 0.70277 0.0
H65 H 0.1838 0.30114 0.66141 0.0
C66 C 0.14905 0.32123 0.69354 0.0
C67 C 0.14921 0.31626 0.6788 0.0
C68 C 0.18265 0.31544 0.7023 0.0
C69 C 0.21716 0.30618 0.69604 0.0
C70 C 0.21826 0.30099 0.6813 0.0
C71 C 0.18385 0.30584 0.67274 0.0
Zn72 Zn 0.21464 0.68406 0.14154 0.0
Zn73 Zn 0.13577 0.77636 0.10622 0.0
Zn74 Zn 0.17845 0.73043 0.12273 0.0
C75 C 0.13931 0.70431 0.09255 0.0
C76 C 0.20886 0.81025 0.10967 0.0
O77 O 0.15111 0.73111 0.14312 0.0
O78 O 0.18059 0.68869 0.15755 0.0
C79 C 0.19751 0.63922 0.11734 0.0
O80 O 0.1624 0.69659 0.10335 0.0
O81 O 0.1225 0.73669 0.09158 0.0
O82 O 0.17696 0.81415 0.10268 0.0
O83 O 0.21469 0.781 0.11793 0.0
O84 O 0.21365 0.637 0.12963 0.0
O85 O 0.1824 0.67146 0.11293 0.0
O86 O 0.23695 0.75535 0.1265 0.0
O87 O 0.26268 0.71542 0.14267 0.0
C88 C 0.26559 0.74483 0.13491 0.0
O89 O 0.12461 0.74847 0.13302 0.0
O90 O 0.09499 0.79139 0.11896 0.0
C91 C 0.15513 0.71431 0.15525 0.0
C92 C 0.09627 0.772 0.13025 0.0
Zn93 Zn 0.54293 0.70731 0.35594 0.0
Zn94 Zn 0.61872 0.79218 0.39168 0.0
Zn95 Zn 0.58014 0.75321 0.37408 0.0
C96 C 0.56179 0.84109 0.38051 0.0
C97 C 0.67047 0.77282 0.37256 0.0
O98 O 0.57353 0.69418 0.3837 0.0
O99 O 0.5539 0.65732 0.36547 0.0
C100 C 0.49212 0.76662 0.36361 0.0
O101 O 0.54729 0.80802 0.37669 0.0
O102 O 0.59578 0.84281 0.38602 0.0
O103 O 0.67131 0.7804 0.38564 0.0
O104 O 0.63784 0.76579 0.36575 0.0
O105 O 0.49193 0.73308 0.35819 0.0
O106 O 0.52364 0.78117 0.36923 0.0
O107 O 0.61268 0.75209 0.35482 0.0
O108 O 0.57326 0.72056 0.33946 0.0
C109 C 0.60385 0.73961 0.34218 0.0
O110 O 0.58666 0.72013 0.39413 0.0
O111 O 0.60234 0.7675 0.40919 0.0
C112 C 0.5653 0.66046 0.37835 0.0
C113 C 0.59249 0.73279 0.40692 0.0
Zn114 Zn 0.64485 0.26176 0.6081 0.0
Zn115 Zn 0.71856 0.17349 0.63944 0.0
Zn116 Zn 0.679 0.21854 0.62319 0.0
C117 C 0.7693 0.23146 0.63305 0.0
C118 C 0.696 0.12742 0.61677 0.0
O119 O 0.6211 0.22987 0.63207 0.0
O120 O 0.59131 0.24937 0.6122 0.0
C121 C 0.70007 0.30739 0.61873 0.0
O122 O 0.7374 0.24564 0.62757 0.0
O123 O 0.76969 0.1981 0.63842 0.0
O124 O 0.7115 0.12431 0.62912 0.0
O125 O 0.68314 0.16056 0.61233 0.0
O126 O 0.66486 0.3122 0.61515 0.0
O127 O 0.71332 0.27278 0.62069 0.0
O128 O 0.66908 0.18855 0.60253 0.0
O129 O 0.66359 0.2421 0.59 0.0
C130 C 0.66761 0.20582 0.59047 0.0
O131 O 0.64781 0.21725 0.64284 0.0
O132 O 0.68943 0.18356 0.65645 0.0
C133 C 0.58952 0.23887 0.62489 0.0
C134 C 0.65888 0.20342 0.65505 0.0
Zn135 Zn 0.05041 0.19498 0.85396 0.0
Zn136 Zn 0.12284 0.28423 0.89066 0.0
Zn137 Zn 0.08782 0.24027 0.87315 0.0
C138 C 0.09844 0.22231 0.90601 0.0
C139 C 0.0651 0.32929 0.87906 0.0
O140 O 0.1228 0.23784 0.8545 0.0
O141 O 0.08732 0.20317 0.83886 0.0
C142 C 0.06599 0.14938 0.87788 0.0
O143 O 0.0934 0.20831 0.89338 0.0
O144 O 0.10731 0.25746 0.90788 0.0
O145 O 0.09784 0.33353 0.88538 0.0
O146 O 0.05373 0.29528 0.87492 0.0
O147 O 0.05255 0.14694 0.86521 0.0
O148 O 0.07947 0.18189 0.88286 0.0
O149 O 0.03162 0.26817 0.86728 0.0
O150 O 1.00109 0.22449 0.85349 0.0
C151 C 1.00122 0.25654 0.85997 0.0
O152 O 0.14657 0.25176 0.86584 0.0
O153 O 0.17609 0.27793 0.88489 0.0
C154 C 0.11706 0.22331 0.84197 0.0
C155 C 0.17755 0.26464 0.87248 0.0
H156 H 0.13307 0.29866 0.06183 0.0
H157 H 0.13117 0.36719 0.06833 0.0
H158 H 0.24116 0.35565 0.0917 0.0
H159 H 0.24328 0.28696 0.08521 0.0
H160 H 0.19184 0.39638 0.10644 0.0
H161 H 0.23203 0.39767 0.05856 0.0
H162 H 0.22658 0.38293 0.03298 0.0
H163 H 0.11948 0.44526 0.02873 0.0
H164 H 0.12397 0.45986 0.05434 0.0
H165 H 0.25314 0.58502 0.11638 0.0
H166 H 0.24795 0.5205 0.1059 0.0
H167 H 0.13345 0.54724 0.0884 0.0
H168 H 0.13859 0.6125 0.099 0.0
H169 H 0.1781 0.49997 0.07027 0.0
H170 H 0.139 0.50078 0.11785 0.0
H171 H 0.14485 0.51649 0.14335 0.0
H172 H 0.24952 0.45026 0.14803 0.0
H173 H 0.24464 0.43465 0.1225 0.0
C174 C 0.15701 0.31075 0.06828 0.0
C175 C 0.18851 0.28736 0.07292 0.0
C176 C 0.15587 0.34997 0.07198 0.0
C177 C 0.1863 0.36679 0.08032 0.0
C178 C 0.21738 0.34335 0.08522 0.0
C179 C 0.2185 0.30405 0.08156 0.0
C180 C 0.18559 0.40865 0.08412 0.0
C181 C 0.18923 0.41896 0.0985 0.0
C182 C 0.18084 0.43823 0.0738 0.0
C183 C 0.17812 0.42946 0.0584 0.0
C184 C 0.20713 0.40793 0.0522 0.0
C185 C 0.20425 0.39965 0.03769 0.0
C186 C 0.17264 0.41304 0.02925 0.0
C187 C 0.1439 0.43483 0.03529 0.0
C188 C 0.14661 0.44312 0.0498 0.0
C189 C 0.22711 0.57749 0.11007 0.0
C190 C 0.19621 0.60372 0.10853 0.0
C191 C 0.22417 0.54058 0.1041 0.0
C192 C 0.19005 0.52881 0.09661 0.0
C193 C 0.16001 0.55576 0.09419 0.0
C194 C 0.16303 0.59307 0.10016 0.0
C195 C 0.1852 0.48743 0.09253 0.0
C196 C 0.1804 0.47726 0.07816 0.0
C197 C 0.18876 0.45785 0.10284 0.0
C198 C 0.19159 0.46679 0.11824 0.0
C199 C 0.16341 0.48979 0.1243 0.0
C200 C 0.16654 0.49865 0.13876 0.0
C201 C 0.19758 0.48444 0.1473 0.0
C202 C 0.22551 0.46126 0.1414 0.0
C203 C 0.22255 0.45237 0.12694 0.0
H204 H 0.19995 0.49134 0.15849 0.0
H205 H 0.17047 0.40662 0.01801 0.0
H206 H 0.02555 0.79996 0.3412 0.0
H207 H 0.96235 0.7889 0.35058 0.0
H208 H 0.90776 0.85053 0.3152 0.0
H209 H 0.97076 0.86373 0.30629 0.0
H210 H 0.87243 0.86785 0.33734 0.0
H211 H 0.91213 0.74828 0.31688 0.0
H212 H 0.95534 0.69288 0.31324 0.0
H213 H 0.94854 0.66009 0.35675 0.0
H214 H 0.90568 0.71565 0.36069 0.0
H215 H 0.68281 0.79734 0.34573 0.0
H216 H 0.74513 0.80528 0.33515 0.0
H217 H 0.8034 0.7605 0.3732 0.0
H218 H 0.74124 0.75181 0.38361 0.0
H219 H 0.83554 0.73339 0.34892 0.0
H220 H 0.79623 0.85592 0.36881 0.0
H221 H 0.75135 0.91055 0.37141 0.0
H222 H 0.75553 0.93617 0.32715 0.0
H223 H 0.80008 0.88135 0.32426 0.0
C224 C 1.00017 0.81185 0.33558 0.0
C225 C 0.00329 0.83228 0.32287 0.0
C226 C 0.96394 0.80502 0.34084 0.0
C227 C 0.93006 0.81797 0.33341 0.0
C228 C 0.93331 0.83985 0.32108 0.0
C229 C 0.96944 0.84707 0.31591 0.0
C230 C 0.89116 0.80831 0.33826 0.0
C231 C 0.86431 0.83833 0.33968 0.0
C232 C 0.88039 0.76987 0.34146 0.0
C233 C 0.90601 0.73634 0.33911 0.0
C234 C 0.92007 0.72941 0.32569 0.0
C235 C 0.94447 0.69796 0.32358 0.0
C236 C 0.95476 0.67304 0.33477 0.0
C237 C 0.94059 0.67946 0.34809 0.0
C238 C 0.91622 0.7109 0.35028 0.0
C239 C 0.70879 0.788 0.3516 0.0
C240 C 0.70714 0.77353 0.36539 0.0
C241 C 0.74443 0.79304 0.34565 0.0
C242 C 0.77897 0.78379 0.35345 0.0
C243 C 0.77718 0.7678 0.36699 0.0
C244 C 0.74166 0.763 0.37294 0.0
C245 C 0.81714 0.79289 0.34798 0.0
C246 C 0.84378 0.7628 0.34648 0.0
C247 C 0.82757 0.83115 0.34453 0.0
C248 C 0.80117 0.86435 0.3463 0.0
C249 C 0.78737 0.87307 0.35962 0.0
C250 C 0.76203 0.90408 0.36115 0.0
C251 C 0.75052 0.92676 0.34945 0.0
C252 C 0.76443 0.91855 0.3362 0.0
C253 C 0.78975 0.88754 0.33461 0.0
H254 H 0.73089 0.95075 0.35065 0.0
H255 H 0.97365 0.6487 0.33311 0.0
H256 H 0.79269 0.62251 0.56535 0.0
H257 H 0.81019 0.56243 0.57776 0.0
H258 H 0.72527 0.58625 0.6081 0.0
H259 H 0.70825 0.64691 0.59585 0.0
H260 H 0.7892 0.54521 0.62012 0.0
H261 H 0.69891 0.53813 0.5789 0.0
H262 H 0.67922 0.54999 0.5538 0.0
H263 H 0.77476 0.48192 0.541 0.0
H264 H 0.79546 0.47033 0.56606 0.0
H265 H 0.68701 0.37456 0.63223 0.0
H266 H 0.717 0.43696 0.62796 0.0
H267 H 0.79751 0.38102 0.60147 0.0
H268 H 0.76756 0.31803 0.60594 0.0
H269 H 0.75297 0.4362 0.58757 0.0
H270 H 0.83242 0.42982 0.62955 0.0
H271 H 0.8491 0.41708 0.65475 0.0
H272 H 0.77278 0.50795 0.66659 0.0
H273 H 0.75497 0.52081 0.64142 0.0
C274 C 0.77855 0.6154 0.5749 0.0
C275 C 0.74874 0.63894 0.57955 0.0
C276 C 0.78863 0.58118 0.582 0.0
C277 C 0.76855 0.56953 0.5937 0.0
C278 C 0.74115 0.5947 0.5991 0.0
C279 C 0.73135 0.62926 0.59208 0.0
C280 C 0.77129 0.52889 0.59873 0.0
C281 C 0.78137 0.52128 0.61305 0.0
C282 C 0.76195 0.49761 0.58939 0.0
C283 C 0.74899 0.50376 0.57433 0.0
C284 C 0.71584 0.52589 0.57073 0.0
C285 C 0.7045 0.53258 0.55652 0.0
C286 C 0.72578 0.5168 0.54581 0.0
C287 C 0.75836 0.49419 0.5493 0.0
C288 C 0.76993 0.48758 0.56351 0.0
C289 C 0.71212 0.37543 0.62596 0.0
C290 C 0.72512 0.34172 0.61942 0.0
C291 C 0.72931 0.41106 0.62355 0.0
C292 C 0.7595 0.41368 0.61439 0.0
C293 C 0.77435 0.37957 0.60862 0.0
C294 C 0.75742 0.34367 0.61122 0.0
C295 C 0.77021 0.45231 0.60907 0.0
C296 C 0.76216 0.45976 0.59463 0.0
C297 C 0.78118 0.48322 0.61834 0.0
C298 C 0.79222 0.4762 0.63354 0.0
C299 C 0.81897 0.44697 0.63751 0.0
C300 C 0.82865 0.43971 0.6518 0.0
C301 C 0.81201 0.46166 0.66227 0.0
C302 C 0.78568 0.49098 0.65846 0.0
C303 C 0.77582 0.49832 0.64417 0.0
H304 H 0.81953 0.45596 0.67334 0.0
H305 H 0.71697 0.52201 0.53481 0.0
H306 H 0.6691 0.37877 0.81446 0.0
H307 H 0.73487 0.38744 0.82485 0.0
H308 H 0.71906 0.29055 0.85252 0.0
H309 H 0.65303 0.28225 0.84232 0.0
H310 H 0.7659 0.3455 0.8655 0.0
H311 H 0.75498 0.27766 0.82029 0.0
H312 H 0.73431 0.27209 0.79494 0.0
H313 H 0.80263 0.37153 0.78585 0.0
H314 H 0.82314 0.37809 0.81121 0.0
H315 H 0.93417 0.23299 0.86971 0.0
H316 H 0.87104 0.26405 0.86625 0.0
H317 H 0.92317 0.35991 0.84541 0.0
H318 H 0.987 0.32887 0.84918 0.0
H319 H 0.86159 0.32312 0.82941 0.0
H320 H 0.88411 0.3802 0.87468 0.0
H321 H 0.90434 0.38325 0.90011 0.0
H322 H 0.81588 0.30191 0.90921 0.0
H323 H 0.7953 0.29794 0.88384 0.0
C324 C 0.67942 0.35991 0.82299 0.0
C325 C 0.65619 0.32953 0.82748 0.0
C326 C 0.71696 0.36489 0.82892 0.0
C327 C 0.73216 0.33915 0.83927 0.0
C328 C 0.70797 0.31073 0.84454 0.0
C329 C 0.67024 0.30598 0.83871 0.0
C330 C 0.77423 0.33844 0.84326 0.0
C331 C 0.78688 0.34069 0.85763 0.0
C332 C 0.80175 0.33317 0.83294 0.0
C333 C 0.79023 0.32864 0.81766 0.0
C334 C 0.76543 0.29845 0.81289 0.0
C335 C 0.75373 0.29513 0.79853 0.0
C336 C 0.76707 0.32151 0.7888 0.0
C337 C 0.79226 0.35117 0.79341 0.0
C338 C 0.80392 0.35472 0.80777 0.0
C339 C 0.93221 0.26117 0.86472 0.0
C340 C 0.96513 0.27878 0.85976 0.0
C341 C 0.89625 0.27895 0.86279 0.0
C342 C 0.89245 0.31439 0.85565 0.0
C343 C 0.92559 0.33269 0.85103 0.0
C344 C 0.96189 0.3151 0.85321 0.0
C345 C 0.8532 0.32921 0.85168 0.0
C346 C 0.84091 0.32925 0.83728 0.0
C347 C 0.82611 0.3363 0.86198 0.0
C348 C 0.83822 0.33867 0.87731 0.0
C349 C 0.8691 0.36274 0.88208 0.0
C350 C 0.88063 0.36467 0.89649 0.0
C351 C 0.86148 0.34275 0.90625 0.0
C352 C 0.83068 0.3189 0.90163 0.0
C353 C 0.819 0.31687 0.88724 0.0
H354 H 0.87048 0.34428 0.9174 0.0
H355 H 0.75796 0.31891 0.77768 0.0
H356 H 0.06455 0.66522 0.90113 0.0
H357 H 0.04674 0.6055 0.88838 0.0
H358 H 0.95307 0.58827 0.91572 0.0
H359 H 0.97238 0.64705 0.92892 0.0
H360 H 0.98942 0.52626 0.91516 0.0
H361 H 0.93928 0.6056 0.87803 0.0
H362 H 0.93659 0.65917 0.86087 0.0
H363 H 0.03417 0.61195 0.84093 0.0
H364 H 0.03786 0.55839 0.85809 0.0
H365 H 0.98873 0.34136 0.88414 0.0
H366 H 0.9578 0.40524 0.88611 0.0
H367 H 0.05916 0.4597 0.87099 0.0
H368 H 0.08941 0.3966 0.86878 0.0
H369 H 0.99485 0.50199 0.8636 0.0
H370 H 0.05359 0.43855 0.90701 0.0
H371 H 0.05549 0.3843 0.92395 0.0
H372 H 0.93583 0.40253 0.93114 0.0
H373 H 0.93329 0.45675 0.91418 0.0
C374 C 0.03957 0.64914 0.90414 0.0
C375 C 0.01981 0.66061 0.91597 0.0
C376 C 0.02917 0.61505 0.89681 0.0
C377 C 0.99815 0.59227 0.90093 0.0
C378 C 0.97709 0.6051 0.9123 0.0
C379 C 0.98801 0.63875 0.91981 0.0
C380 C 0.99109 0.55298 0.89461 0.0
C381 C 0.98934 0.52129 0.90382 0.0
C382 C 0.991 0.54589 0.87982 0.0
C383 C 0.9889 0.57798 0.8694 0.0
C384 C 0.96032 0.60673 0.87004 0.0
C385 C 0.9586 0.6371 0.86031 0.0
C386 C 0.98521 0.63898 0.84983 0.0
C387 C 0.01356 0.61045 0.84905 0.0
C388 C 0.01542 0.58002 0.85876 0.0
C389 C 0.00355 0.36692 0.88069 0.0
C390 C 0.04155 0.36433 0.87647 0.0
C391 C 0.98602 0.40336 0.8819 0.0
C392 C 0.00652 0.43735 0.87901 0.0
C393 C 0.04275 0.43407 0.87333 0.0
C394 C 0.06014 0.39796 0.87214 0.0
C395 C 0.99468 0.47603 0.88421 0.0
C396 C 0.99319 0.50749 0.87484 0.0
C397 C 0.99131 0.4831 0.89883 0.0
C398 C 0.9932 0.45142 0.90932 0.0
C399 C 0.02775 0.43095 0.91224 0.0
C400 C 0.02892 0.40022 0.92182 0.0
C401 C 0.99579 0.38996 0.92861 0.0
C402 C 0.96147 0.41053 0.92588 0.0
C403 C 0.96015 0.44127 0.9163 0.0
H404 H 0.99673 0.3661 0.936 0.0
H405 H 0.98384 0.66252 0.8423 0.0
H406 H 0.75345 0.84365 0.15839 0.0
H407 H 0.81886 0.83298 0.15062 0.0
H408 H 0.82769 0.72809 0.17524 0.0
H409 H 0.7629 0.73915 0.18318 0.0
H410 H 0.88765 0.77145 0.18135 0.0
H411 H 0.82231 0.72672 0.13851 0.0
H412 H 0.77615 0.72948 0.11768 0.0
H413 H 0.83355 0.83012 0.10275 0.0
H414 H 0.87976 0.82829 0.12361 0.0
H415 H 0.06688 0.71478 0.14642 0.0
H416 H 0.00377 0.71469 0.15663 0.0
H417 H 0.9866 0.83368 0.14422 0.0
H418 H 0.04928 0.83375 0.13382 0.0
H419 H 0.93134 0.77638 0.1325 0.0
H420 H 0.95342 0.82676 0.18804 0.0
H421 H 0.99004 0.81959 0.2111 0.0
H422 H 0.01343 0.70065 0.20135 0.0
H423 H 0.97621 0.70693 0.17843 0.0
C424 C 0.76913 0.81791 0.16184 0.0
C425 C 0.75339 0.79236 0.17144 0.0
C426 C 0.80646 0.81179 0.15742 0.0
C427 C 0.82829 0.77972 0.16237 0.0
C428 C 0.81159 0.75316 0.17136 0.0
C429 C 0.77457 0.75943 0.17586 0.0
C430 C 0.86953 0.77544 0.15921 0.0
C431 C 0.8971 0.77203 0.17063 0.0
C432 C 0.88201 0.77637 0.14527 0.0
C433 C 0.8543 0.77756 0.1327 0.0
C434 C 0.82491 0.74963 0.13085 0.0
C435 C 0.79877 0.75099 0.11902 0.0
C436 C 0.80186 0.78001 0.10891 0.0
C437 C 0.83117 0.80768 0.1106 0.0
C438 C 0.85737 0.80647 0.12241 0.0
C439 C 0.05039 0.74141 0.14643 0.0
C440 C 0.06311 0.77432 0.13936 0.0
C441 C 0.01429 0.74138 0.15234 0.0
C442 C 0.9907 0.77446 0.15149 0.0
C443 C 0.00448 0.80797 0.14516 0.0
C444 C 0.04029 0.80795 0.13919 0.0
C445 C 0.94938 0.77259 0.15465 0.0
C446 C 0.92174 0.77533 0.1432 0.0
C447 C 0.93675 0.77038 0.16855 0.0
C448 C 0.96345 0.76777 0.18128 0.0
C449 C 0.96704 0.79931 0.19072 0.0
C450 C 0.98742 0.79526 0.20385 0.0
C451 C 0.00429 0.75976 0.20763 0.0
C452 C 1.00086 0.72829 0.1983 0.0
C453 C 0.98028 0.73213 0.18521 0.0
H454 H 0.01977 0.75655 0.21784 0.0
H455 H 0.7816 0.78101 0.09977 0.0
H456 H 0.52439 0.33897 0.44701 0.0
H457 H 0.53313 0.40705 0.44106 0.0
H458 H 0.57569 0.37335 0.40091 0.0
H459 H 0.56808 0.30497 0.40697 0.0
H460 H 0.61983 0.4307 0.41379 0.0
H461 H 0.48333 0.40655 0.40345 0.0
H462 H 0.41815 0.38602 0.40929 0.0
H463 H 0.41808 0.47201 0.44225 0.0
H464 H 0.48351 0.4927 0.43672 0.0
H465 H 0.59158 0.59139 0.36955 0.0
H466 H 0.59264 0.52982 0.38205 0.0
H467 H 0.54866 0.5862 0.41857 0.0
H468 H 0.54674 0.64812 0.40582 0.0
H469 H 0.50871 0.52132 0.41163 0.0
H470 H 0.63975 0.55343 0.41946 0.0
H471 H 0.70504 0.57466 0.41433 0.0
H472 H 0.71711 0.47595 0.38716 0.0
H473 H 0.65161 0.45422 0.392 0.0
C474 C 0.53589 0.34596 0.43694 0.0
C475 C 0.54556 0.31638 0.42747 0.0
C476 C 0.54061 0.38498 0.43352 0.0
C477 C 0.55484 0.39543 0.42049 0.0
C478 C 0.56465 0.36602 0.41102 0.0
C479 C 0.55991 0.32693 0.41444 0.0
C480 C 0.55913 0.43695 0.41665 0.0
C481 C 0.59549 0.45045 0.41316 0.0
C482 C 0.52776 0.46324 0.41648 0.0
C483 C 0.48844 0.45087 0.41978 0.0
C484 C 0.46952 0.42086 0.41202 0.0
C485 C 0.43253 0.40924 0.41526 0.0
C486 C 0.41404 0.42762 0.42616 0.0
C487 C 0.43247 0.45775 0.43383 0.0
C488 C 0.46949 0.46945 0.43064 0.0
C489 C 0.58267 0.5908 0.38033 0.0
C490 C 0.56969 0.62467 0.38682 0.0
C491 C 0.58351 0.5556 0.38751 0.0
C492 C 0.57127 0.55332 0.40135 0.0
C493 C 0.55867 0.58727 0.40796 0.0
C494 C 0.55804 0.62273 0.40076 0.0
C495 C 0.56918 0.51481 0.40827 0.0
C496 C 0.53326 0.50181 0.41239 0.0
C497 C 0.60107 0.48912 0.40911 0.0
C498 C 0.64055 0.50217 0.4061 0.0
C499 C 0.65617 0.53624 0.41235 0.0
C500 C 0.69328 0.54839 0.4095 0.0
C501 C 0.71522 0.52668 0.40043 0.0
C502 C 0.70009 0.49273 0.3942 0.0
C503 C 0.66297 0.48044 0.39702 0.0
H504 H 0.74395 0.53614 0.39822 0.0
H505 H 0.38539 0.41859 0.42865 0.0
H506 H 0.11845 0.26457 0.65929 0.0
H507 H 0.0536 0.2651 0.6477 0.0
H508 H 0.03134 0.37569 0.66708 0.0
H509 H 0.09591 0.37454 0.67904 0.0
H510 H 0.97412 0.33181 0.67079 0.0
H511 H 0.03932 0.36383 0.62999 0.0
H512 H 0.08847 0.35956 0.6123 0.0
H513 H 0.04886 0.24553 0.60038 0.0
H514 H 0.99981 0.24884 0.61814 0.0
H515 H 0.78374 0.30869 0.6387 0.0
H516 H 0.84755 0.33968 0.64202 0.0
H517 H 0.90173 0.23149 0.63166 0.0
H518 H 0.83857 0.2012 0.62799 0.0
H519 H 0.94038 0.29162 0.62117 0.0
H520 H 0.88521 0.25801 0.66631 0.0
H521 H 0.83538 0.26448 0.68371 0.0
H522 H 0.85617 0.38698 0.68652 0.0
H523 H 0.90601 0.38117 0.66908 0.0
C524 C 0.10003 0.2894 0.66081 0.0
C525 C 0.11225 0.3195 0.67006 0.0
C526 C 0.0629 0.28978 0.65414 0.0
C527 C 0.03742 0.32067 0.65636 0.0
C528 C 0.05025 0.3515 0.66519 0.0
C529 C 0.08719 0.35087 0.67199 0.0
C530 C 0.99651 0.31895 0.6505 0.0
C531 C 0.96686 0.32398 0.65983 0.0
C532 C 0.98659 0.3087 0.63621 0.0
C533 C 0.01598 0.30653 0.62546 0.0
C534 C 0.04124 0.33773 0.62366 0.0
C535 C 0.06907 0.3355 0.61361 0.0
C536 C 0.07182 0.30228 0.60523 0.0
C537 C 0.04669 0.27125 0.60687 0.0
C538 C 0.01882 0.27332 0.61692 0.0
C539 C 0.80927 0.2921 0.63665 0.0
C540 C 0.80628 0.25267 0.63301 0.0
C541 C 0.84572 0.30963 0.63871 0.0
C542 C 0.87955 0.28777 0.63724 0.0
C543 C 0.8762 0.24902 0.63283 0.0
C544 C 0.84005 0.23165 0.63081 0.0
C545 C 0.9186 0.3031 0.6416 0.0
C546 C 0.94785 0.30055 0.63201 0.0
C547 C 0.92818 0.31603 0.65559 0.0
C548 C 0.89892 0.31924 0.66629 0.0
C549 C 0.87903 0.28632 0.67062 0.0
C550 C 0.85082 0.28986 0.68049 0.0
C551 C 0.84254 0.32613 0.68619 0.0
C552 C 0.86259 0.35891 0.68209 0.0
C553 C 0.89083 0.3555 0.67223 0.0
H554 H 0.82064 0.32883 0.69381 0.0
H555 H 0.09339 0.30061 0.59746 0.0
H556 H 0.2457 0.32382 0.65588 0.0
H557 H 0.30816 0.30824 0.64651 0.0
H558 H 0.33839 0.23975 0.68346 0.0
H559 H 0.27542 0.25289 0.69252 0.0
H560 H 0.39524 0.30155 0.67484 0.0
H561 H 0.31989 0.19048 0.65766 0.0
H562 H 0.2637 0.15981 0.64493 0.0
H563 H 0.29078 0.21735 0.60664 0.0
H564 H 0.34684 0.24884 0.61922 0.0
H565 H 0.5676 0.2088 0.65035 0.0
H566 H 0.50496 0.21735 0.66086 0.0
H567 H 0.46078 0.27543 0.62304 0.0
H568 H 0.52333 0.26983 0.61306 0.0
H569 H 0.41114 0.21757 0.63288 0.0
H570 H 0.48624 0.32625 0.64804 0.0
H571 H 0.54026 0.36299 0.65954 0.0
H572 H 0.51157 0.32066 0.70015 0.0
H573 H 0.45754 0.28309 0.68882 0.0
C574 C 0.26522 0.30483 0.66191 0.0
C575 C 0.25539 0.29007 0.67508 0.0
C576 C 0.30107 0.29625 0.65659 0.0
C577 C 0.32794 0.27318 0.66438 0.0
C578 C 0.31819 0.258 0.67738 0.0
C579 C 0.28217 0.26586 0.68258 0.0
C580 C 0.36641 0.26505 0.65904 0.0
C581 C 0.399 0.28263 0.66584 0.0
C582 C 0.37079 0.24147 0.64701 0.0
C583 C 0.3373 0.22232 0.63942 0.0
C584 C 0.31365 0.19688 0.64656 0.0
C585 C 0.28187 0.17928 0.63937 0.0
C586 C 0.27361 0.18671 0.625 0.0
C587 C 0.29718 0.21166 0.61778 0.0
C588 C 0.32898 0.22937 0.62493 0.0
C589 C 0.54493 0.22444 0.64451 0.0
C590 C 0.55121 0.24002 0.63114 0.0
C591 C 0.50897 0.22872 0.6504 0.0
C592 C 0.47837 0.2474 0.64275 0.0
C593 C 0.48401 0.26107 0.62914 0.0
C594 C 0.51998 0.2578 0.62346 0.0
C595 C 0.44041 0.25352 0.64883 0.0
C596 C 0.40774 0.23592 0.64207 0.0
C597 C 0.43596 0.27787 0.66072 0.0
C598 C 0.4687 0.30039 0.66751 0.0
C599 C 0.49194 0.32386 0.65938 0.0
C600 C 0.52239 0.3452 0.66588 0.0
C601 C 0.52953 0.34391 0.68056 0.0
C602 C 0.50617 0.32138 0.68877 0.0
C603 C 0.47573 0.29993 0.6823 0.0
H604 H 0.55308 0.36048 0.68558 0.0
H605 H 0.24899 0.17305 0.61944 0.0
H606 H 0.58146 0.7802 0.1837 0.0
H607 H 0.51928 0.78001 0.17056 0.0
H608 H 0.56513 0.85126 0.13827 0.0
H609 H 0.62815 0.85271 0.15178 0.0
H610 H 0.48699 0.87231 0.14549 0.0
H611 H 0.55443 0.76295 0.12963 0.0
H612 H 0.59666 0.70558 0.1316 0.0
H613 H 0.51589 0.64896 0.15721 0.0
H614 H 0.47344 0.70622 0.1556 0.0
H615 H 0.29973 0.78524 0.11387 0.0
H616 H 0.3667 0.80955 0.11479 0.0
H617 H 0.38229 0.77371 0.15835 0.0
H618 H 0.31613 0.75029 0.15761 0.0
H619 H 0.43458 0.74045 0.13581 0.0
H620 H 0.37867 0.86099 0.15574 0.0
H621 H 0.33491 0.91692 0.15219 0.0
H622 H 0.3934 0.95005 0.11541 0.0
H623 H 0.43739 0.8941 0.11873 0.0
C624 C 0.5784 0.79661 0.17397 0.0
C625 C 0.60987 0.81677 0.16888 0.0
C626 C 0.54278 0.79617 0.16639 0.0
C627 C 0.53761 0.81537 0.15338 0.0
C628 C 0.56854 0.83626 0.14829 0.0
C629 C 0.60455 0.83676 0.15596 0.0
C630 C 0.50005 0.81118 0.14512 0.0
C631 C 0.47583 0.84359 0.143 0.0
C632 C 0.48556 0.77382 0.14159 0.0
C633 C 0.51074 0.73898 0.14249 0.0
C634 C 0.54574 0.73835 0.13574 0.0
C635 C 0.56973 0.70583 0.1368 0.0
C636 C 0.55897 0.67364 0.14453 0.0
C637 C 0.52416 0.67389 0.15121 0.0
C638 C 0.50008 0.70636 0.1502 0.0
C639 C 0.31717 0.7837 0.12373 0.0
C640 C 0.30282 0.76572 0.13565 0.0
C641 C 0.35538 0.79734 0.12421 0.0
C642 C 0.37934 0.79303 0.13661 0.0
C643 C 0.36425 0.77707 0.14867 0.0
C644 C 0.32644 0.76367 0.14822 0.0
C645 C 0.42121 0.80113 0.13707 0.0
C646 C 0.44623 0.76928 0.13774 0.0
C647 C 0.43634 0.83886 0.13899 0.0
C648 C 0.41112 0.87334 0.13743 0.0
C649 C 0.38215 0.88019 0.14689 0.0
C650 C 0.35735 0.9119 0.14493 0.0
C651 C 0.36135 0.937 0.13357 0.0
C652 C 0.39036 0.93059 0.12421 0.0
C653 C 0.41529 0.89896 0.12615 0.0
H654 H 0.34197 0.96139 0.13201 0.0
H655 H 0.57758 0.6485 0.14534 0.0
H656 H 0.50376 0.23752 0.81257 0.0
H657 H 0.44068 0.22629 0.82192 0.0
H658 H 0.45562 0.32775 0.84847 0.0
H659 H 0.51875 0.3395 0.83901 0.0
H660 H 0.42372 0.26565 0.86227 0.0
H661 H 0.40231 0.33364 0.81776 0.0
H662 H 0.40885 0.34254 0.79216 0.0
H663 H 0.35312 0.23316 0.78358 0.0
H664 H 0.34642 0.22359 0.80912 0.0
H665 H 0.23669 0.31422 0.87836 0.0
H666 H 0.3004 0.31377 0.86896 0.0
H667 H 0.26779 0.21561 0.84246 0.0
H668 H 0.20339 0.21594 0.85194 0.0
H669 H 0.3088 0.26844 0.82836 0.0
H670 H 0.3243 0.20234 0.87226 0.0
H671 H 0.31772 0.19175 0.89776 0.0
H672 H 0.38512 0.29366 0.90762 0.0
H673 H 0.39161 0.30524 0.88217 0.0
C674 C 0.49364 0.25749 0.8204 0.0
C675 C 0.51601 0.28976 0.8249 0.0
C676 C 0.45763 0.25094 0.82575 0.0
C677 C 0.44322 0.27654 0.8357 0.0
C678 C 0.46621 0.30772 0.84075 0.0
C679 C 0.5023 0.31433 0.83538 0.0
C680 C 0.40356 0.27168 0.84043 0.0
C681 C 0.39855 0.26661 0.85489 0.0
C682 C 0.37085 0.2716 0.83072 0.0
C683 C 0.37422 0.27773 0.81534 0.0
C684 C 0.39161 0.31143 0.81041 0.0
C685 C 0.39527 0.31664 0.7959 0.0
C686 C 0.38144 0.28844 0.78624 0.0
C687 C 0.36376 0.25504 0.79105 0.0
C688 C 0.35997 0.24974 0.80554 0.0
C689 C 0.24297 0.29252 0.87051 0.0
C690 C 0.21502 0.2651 0.86587 0.0
C691 C 0.27947 0.29224 0.86518 0.0
C692 C 0.28913 0.26419 0.85523 0.0
C693 C 0.26096 0.2374 0.8502 0.0
C694 C 0.22416 0.23775 0.85554 0.0
C695 C 0.32884 0.26315 0.85026 0.0
C696 C 0.33392 0.26708 0.83575 0.0
C697 C 0.36165 0.26185 0.85993 0.0
C698 C 0.3582 0.25481 0.87528 0.0
C699 C 0.33751 0.22265 0.87986 0.0
C700 C 0.33382 0.21645 0.89431 0.0
C701 C 0.35092 0.24206 0.9043 0.0
C702 C 0.37186 0.27386 0.89987 0.0
C703 C 0.3756 0.28023 0.88543 0.0
H704 H 0.348 0.23723 0.91548 0.0
H705 H 0.38441 0.2925 0.77502 0.0
H706 H 0.16858 0.89649 0.31273 0.0
H707 H 0.23414 0.89795 0.32375 0.0
H708 H 0.20373 0.80894 0.35289 0.0
H709 H 0.1378 0.80766 0.34195 0.0
H710 H 0.25639 0.86148 0.36545 0.0
H711 H 0.24196 0.78402 0.32283 0.0
H712 H 0.22278 0.7724 0.29763 0.0
H713 H 0.3011 0.86093 0.28564 0.0
H714 H 0.32024 0.87354 0.3108 0.0
H715 H 0.42429 0.74248 0.37288 0.0
H716 H 0.36082 0.7725 0.36841 0.0
H717 H 0.41359 0.86806 0.34768 0.0
H718 H 0.47764 0.83848 0.35259 0.0
H719 H 0.35267 0.82348 0.33122 0.0
H720 H 0.37489 0.89276 0.37428 0.0
H721 H 0.39463 0.90146 0.39955 0.0
H722 H 0.30339 0.82597 0.41091 0.0
H723 H 0.28345 0.81621 0.38567 0.0
C724 C 0.17568 0.87774 0.32166 0.0
C725 C 0.14823 0.85157 0.32636 0.0
C726 C 0.21313 0.87865 0.32796 0.0
C727 C 0.22407 0.85305 0.33897 0.0
C728 C 0.19595 0.82893 0.34439 0.0
C729 C 0.15829 0.8282 0.33814 0.0
C730 C 0.26551 0.84822 0.34362 0.0
C731 C 0.27744 0.85309 0.35799 0.0
C732 C 0.2932 0.838 0.33384 0.0
C733 C 0.28219 0.83003 0.3187 0.0
C734 C 0.25489 0.80119 0.31482 0.0
C735 C 0.24403 0.79442 0.30055 0.0
C736 C 0.26063 0.81599 0.29004 0.0
C737 C 0.28821 0.8443 0.29379 0.0
C738 C 0.29907 0.85128 0.30805 0.0
C739 C 0.42239 0.77045 0.36774 0.0
C740 C 0.45563 0.7884 0.36315 0.0
C741 C 0.38622 0.78756 0.3652 0.0
C742 C 0.38256 0.82247 0.35773 0.0
C743 C 0.41591 0.84119 0.35352 0.0
C744 C 0.45236 0.82444 0.35638 0.0
C745 C 0.34351 0.83649 0.35303 0.0
C746 C 0.33187 0.83284 0.33864 0.0
C747 C 0.31623 0.84753 0.36281 0.0
C748 C 0.32782 0.85351 0.37804 0.0
C749 C 0.3592 0.87772 0.38215 0.0
C750 C 0.37042 0.8829 0.39647 0.0
C751 C 0.35034 0.86423 0.40683 0.0
C752 C 0.31893 0.84041 0.40287 0.0
C753 C 0.30762 0.83507 0.38855 0.0
H754 H 0.35907 0.86829 0.41792 0.0
H755 H 0.25218 0.81071 0.279 0.0
H756 H 0.64812 0.78392 0.56124 0.0
H757 H 0.6403 0.85157 0.56823 0.0
H758 H 0.7521 0.849 0.59076 0.0
H759 H 0.76013 0.78123 0.58377 0.0
H760 H 0.70041 0.88578 0.60588 0.0
H761 H 0.73838 0.89004 0.55768 0.0
H762 H 0.7324 0.87356 0.53224 0.0
H763 H 0.62011 0.92603 0.5286 0.0
H764 H 0.6252 0.94237 0.55408 0.0
H765 H 0.7539 0.07688 0.61399 0.0
H766 H 0.7502 0.01234 0.60343 0.0
H767 H 0.63162 0.03285 0.58916 0.0
H768 H 0.63524 0.09806 0.59997 0.0
H769 H 0.67806 0.98775 0.56947 0.0
H770 H 0.64219 0.98701 0.61754 0.0
H771 H 0.64909 0.00366 0.64294 0.0
H772 H 0.75778 0.94405 0.64674 0.0
H773 H 0.75183 0.92758 0.62129 0.0
C774 C 0.67111 0.79777 0.56766 0.0
C775 C 0.70494 0.77724 0.57185 0.0
C776 C 0.66658 0.83647 0.57164 0.0
C777 C 0.69587 0.85562 0.57982 0.0
C778 C 0.72913 0.83486 0.58441 0.0
C779 C 0.73364 0.79607 0.58046 0.0
C780 C 0.69209 0.89731 0.58356 0.0
C781 C 0.69581 0.90802 0.5979 0.0
C782 C 0.68487 0.92635 0.57317 0.0
C783 C 0.68201 0.91708 0.55782 0.0
C784 C 0.71231 0.89785 0.55147 0.0
C785 C 0.7091 0.88856 0.53705 0.0
C786 C 0.67587 0.89867 0.52882 0.0
C787 C 0.64582 0.91819 0.53499 0.0
C788 C 0.64886 0.9275 0.54942 0.0
C789 C 0.72728 0.06802 0.60831 0.0
C790 C 0.69488 0.09246 0.60771 0.0
C791 C 0.7252 0.03113 0.6023 0.0
C792 C 0.69052 0.01762 0.59569 0.0
C793 C 0.65869 0.04282 0.5942 0.0
C794 C 0.66083 0.08011 0.60025 0.0
C795 C 0.6872 0.97602 0.59174 0.0
C796 C 0.68216 0.96536 0.57742 0.0
C797 C 0.69317 0.94687 0.60212 0.0
C798 C 0.69668 0.95632 0.61748 0.0
C799 C 0.6677 0.9777 0.62377 0.0
C800 C 0.67142 0.98707 0.63818 0.0
C801 C 0.70389 0.97498 0.64645 0.0
C802 C 0.73266 0.95341 0.64032 0.0
C803 C 0.7291 0.94402 0.62591 0.0
H804 H 0.70673 0.98227 0.6576 0.0
H805 H 0.67343 0.89145 0.51765 0.0
H806 H 0.27089 0.16906 0.0898 0.0
H807 H 0.29227 0.11068 0.10296 0.0
H808 H 0.18222 0.05685 0.09204 0.0
H809 H 0.16103 0.11468 0.07907 0.0
H810 H 0.20763 0.03825 0.1187 0.0
H811 H 0.25904 0.04495 0.07156 0.0
H812 H 0.29867 0.07453 0.05371 0.0
H813 H 0.39958 0.06408 0.08203 0.0
H814 H 0.36035 0.03487 0.10012 0.0
H815 H 0.22839 0.85079 0.08686 0.0
H816 H 0.25279 0.91689 0.08728 0.0
H817 H 0.27343 0.91077 0.13266 0.0
H818 H 0.24897 0.84407 0.13223 0.0
H819 H 0.31123 0.9655 0.09622 0.0
H820 H 0.23204 0.99129 0.14556 0.0
H821 H 0.18667 0.95861 0.16074 0.0
H822 H 0.13372 0.90034 0.12433 0.0
H823 H 0.17845 0.93308 0.10896 0.0
C824 C 0.25109 0.14503 0.09056 0.0
C825 C 0.21446 0.14609 0.08337 0.0
C826 C 0.26333 0.11171 0.09801 0.0
C827 C 0.23894 0.07925 0.0984 0.0
C828 C 0.20152 0.08149 0.09194 0.0
C829 C 0.18948 0.11445 0.08446 0.0
C830 C 0.25278 0.04133 0.10409 0.0
C831 C 0.23102 0.02271 0.11408 0.0
C832 C 0.28326 0.02088 0.0981 0.0
C833 C 0.30673 0.03833 0.08724 0.0
C834 C 0.28963 0.04927 0.07401 0.0
C835 C 0.31201 0.06591 0.06385 0.0
C836 C 0.3516 0.07133 0.06676 0.0
C837 C 0.3689 0.06 0.07982 0.0
C838 C 0.34661 0.04343 0.09002 0.0
C839 C 0.23982 0.86293 0.09684 0.0
C840 C 0.23639 0.84267 0.10952 0.0
C841 C 0.25392 0.90072 0.09709 0.0
C842 C 0.26425 0.9191 0.11004 0.0
C843 C 0.26541 0.89722 0.12256 0.0
C844 C 0.25155 0.85907 0.1223 0.0
C845 C 0.26505 0.96211 0.11036 0.0
C846 C 0.28938 0.9817 0.10148 0.0
C847 C 0.23637 0.98331 0.11712 0.0
C848 C 0.20874 0.9643 0.12618 0.0
C849 C 0.21058 0.97162 0.14082 0.0
C850 C 0.18501 0.95309 0.14944 0.0
C851 C 0.1574 0.92734 0.14351 0.0
C852 C 0.15514 0.92024 0.12892 0.0
C853 C 0.18055 0.9388 0.12025 0.0
H854 H 0.13771 0.91295 0.15021 0.0
H855 H 0.36889 0.0842 0.05888 0.0
H856 H 0.55841 0.18108 0.40279 0.0
H857 H 0.54412 0.12081 0.38985 0.0
H858 H 0.44148 0.10584 0.41286 0.0
H859 H 0.45716 0.16521 0.42631 0.0
H860 H 0.47822 0.04383 0.41468 0.0
H861 H 0.43991 0.11961 0.37495 0.0
H862 H 0.44268 0.17156 0.35726 0.0
H863 H 0.54679 0.12293 0.34243 0.0
H864 H 0.54501 0.071 0.36016 0.0
H865 H 0.48503 0.85586 0.38445 0.0
H866 H 0.45527 0.9204 0.38613 0.0
H867 H 0.5616 0.97306 0.37464 0.0
H868 H 0.59074 0.90937 0.37273 0.0
H869 H 0.50007 0.01502 0.36439 0.0
H870 H 0.54451 0.95404 0.41002 0.0
H871 H 0.54066 0.90157 0.42752 0.0
H872 H 0.41944 0.92318 0.43014 0.0
H873 H 0.42264 0.97563 0.4126 0.0
C874 C 0.53216 0.16551 0.40471 0.0
C875 C 0.50871 0.17777 0.41543 0.0
C876 C 0.52384 0.13104 0.39728 0.0
C877 C 0.4914 0.10862 0.40022 0.0
C878 C 0.46666 0.12239 0.41036 0.0
C879 C 0.47542 0.15644 0.41797 0.0
C880 C 0.48645 0.06872 0.39418 0.0
C881 C 0.4818 0.03784 0.40357 0.0
C882 C 0.49113 0.06031 0.37969 0.0
C883 C 0.49236 0.09143 0.36894 0.0
C884 C 0.46353 0.1201 0.36798 0.0
C885 C 0.46492 0.14955 0.35793 0.0
C886 C 0.49491 0.15056 0.34874 0.0
C887 C 0.52356 0.12209 0.34956 0.0
C888 C 0.52233 0.09259 0.35959 0.0
C889 C 0.50142 0.88123 0.38182 0.0
C890 C 0.54025 0.87778 0.3786 0.0
C891 C 0.48454 0.91807 0.38286 0.0
C892 C 0.50644 0.95168 0.38073 0.0
C893 C 0.54408 0.94773 0.37634 0.0
C894 C 0.56083 0.91126 0.37535 0.0
C895 C 0.49342 0.99086 0.38501 0.0
C896 C 0.49491 0.0215 0.37535 0.0
C897 C 0.48539 0.99921 0.39919 0.0
C898 C 0.48375 0.96845 0.40997 0.0
C899 C 0.51707 0.94754 0.41435 0.0
C900 C 0.515 0.91782 0.42425 0.0
C901 C 0.47981 0.90902 0.42993 0.0
C902 C 0.44667 0.93004 0.42575 0.0
C903 C 0.4486 0.95978 0.41584 0.0
H904 H 0.47824 0.88595 0.43757 0.0
H905 H 0.49593 0.17339 0.34097 0.0
H906 H 0.11642 0.80961 0.93462 0.0
H907 H 0.12095 0.87729 0.92742 0.0
H908 H 0.00913 0.86867 0.90513 0.0
H909 H 0.00429 0.80102 0.91236 0.0
H910 H 0.05866 0.90598 0.88957 0.0
H911 H 0.02187 0.91341 0.93772 0.0
H912 H 0.02801 0.90069 0.96338 0.0
H913 H 0.13795 0.95806 0.96644 0.0
H914 H 0.13273 0.9706 0.94074 0.0
H915 H 0.00727 0.0987 0.87915 0.0
H916 H 0.00916 0.03416 0.88962 0.0
H917 H 0.12622 0.05409 0.90594 0.0
H918 H 0.12451 0.11889 0.89513 0.0
H919 H 0.07977 0.01189 0.92488 0.0
H920 H 0.1153 0.00628 0.87682 0.0
H921 H 0.10827 0.01989 0.85123 0.0
H922 H 1.00013 0.9592 0.84815 0.0
H923 H 0.00622 0.94575 0.87378 0.0
C924 C 0.09267 0.82215 0.92824 0.0
C925 C 0.05985 0.79986 0.92414 0.0
C926 C 0.09532 0.8609 0.92414 0.0
C927 C 0.06514 0.87834 0.9159 0.0
C928 C 0.03278 0.85592 0.9115 0.0
C929 C 0.03012 0.81715 0.91559 0.0
C930 C 0.06727 0.91982 0.91176 0.0
C931 C 0.06288 0.92909 0.89732 0.0
C932 C 0.07393 0.95006 0.92182 0.0
C933 C 0.07712 0.94253 0.93727 0.0
C934 C 0.04752 0.923 0.94384 0.0
C935 C 0.0508 0.91588 0.9584 0.0
C936 C 0.0834 0.92845 0.96653 0.0
C937 C 0.11275 0.94826 0.96013 0.0
C938 C 0.10964 0.95539 0.94556 0.0
C939 C 0.03313 0.08965 0.88524 0.0
C940 C 0.06558 0.11398 0.88656 0.0
C941 C 0.03421 0.05275 0.89118 0.0
C942 C 0.06796 0.03913 0.89842 0.0
C943 C 0.09982 0.06411 0.90044 0.0
C944 C 0.09872 0.10126 0.89445 0.0
C945 C 0.07047 0.99783 0.90276 0.0
C946 C 0.07582 0.98865 0.91717 0.0
C947 C 0.06469 0.96756 0.89269 0.0
C948 C 0.06107 0.97529 0.87724 0.0
C949 C 0.08988 0.99609 0.87071 0.0
C950 C 0.08608 0.00374 0.85619 0.0
C951 C 0.05373 0.99049 0.84807 0.0
C952 C 0.02515 0.96947 0.85445 0.0
C953 C 0.02878 0.9618 0.86897 0.0
H954 H 0.05085 0.99644 0.83684 0.0
H955 H 0.08588 0.92293 0.9778 0.0
H956 H 0.11778 0.22326 0.03343 0.0
H957 H 0.10048 0.20822 0.00856 0.0
H958 H 0.19907 0.13244 0.00734 0.0
H959 H 0.21698 0.14796 0.03217 0.0
H960 H 0.19505 0.18219 0.98546 0.0
H961 H 0.10956 0.09401 0.00581 0.0
H962 H 0.06028 0.0724 0.02173 0.0
H963 H 0.9787 0.15242 0.00233 0.0
H964 H 0.02766 0.17496 0.98643 0.0
H965 H 0.14289 0.16027 0.91371 0.0
H966 H 0.15166 0.13359 0.93764 0.0
H967 H 0.06113 0.20824 0.95125 0.0
H968 H 0.05138 0.23348 0.92722 0.0
H969 H 0.06443 0.14221 0.96664 0.0
H970 H 0.15385 0.24022 0.95115 0.0
H971 H 0.20247 0.2649 0.93549 0.0
H972 H 0.27616 0.16822 0.94631 0.0
H973 H 0.22765 0.14272 0.9619 0.0
C974 C 0.13575 0.20337 0.02786 0.0
C975 C 0.16879 0.18689 0.03473 0.0
C976 C 0.12558 0.19443 0.01371 0.0
C977 C 0.14821 0.16878 0.00615 0.0
C978 C 0.18105 0.15203 0.01301 0.0
C979 C 0.19115 0.16083 0.0272 0.0
C980 C 0.13908 0.16204 0.99082 0.0
C981 C 0.16682 0.17242 0.98135 0.0
C982 C 0.10206 0.14986 0.98546 0.0
C983 C 0.0724 0.13633 0.99497 0.0
C984 C 0.0812 0.10721 0.005 0.0
C985 C 0.0533 0.09476 0.01402 0.0
C986 C 0.0164 0.11106 0.01306 0.0
C987 C 0.0073 0.13981 0.00306 0.0
C988 C 0.0351 0.1524 0.99403 0.0
C989 C 0.12327 0.16898 0.92159 0.0
C990 C 0.09593 0.19819 0.91863 0.0
C991 C 0.1287 0.15428 0.93533 0.0
C992 C 0.10749 0.16944 0.94628 0.0
C993 C 0.07778 0.19606 0.94298 0.0
C994 C 0.07223 0.21051 0.92927 0.0
C995 C 0.1201 0.16326 0.96137 0.0
C996 C 0.09302 0.15074 0.97078 0.0
C997 C 0.15766 0.17377 0.96674 0.0
C998 C 0.18699 0.18934 0.95753 0.0
C999 C 0.18034 0.22414 0.95012 0.0
C1000 C 0.20786 0.23827 0.94126 0.0
C1001 C 0.24233 0.21807 0.93987 0.0
C1002 C 0.2494 0.18378 0.94737 0.0
C1003 C 0.22191 0.16947 0.95622 0.0
H1004 H 0.26361 0.22904 0.933 0.0
H1005 H 0.99484 0.10138 0.02004 0.0
H1006 H 0.03827 0.77752 0.27915 0.0
H1007 H 0.043 0.76252 0.25408 0.0
H1008 H 0.12532 0.85502 0.25068 0.0
H1009 H 0.1196 0.8713 0.27569 0.0
H1010 H 0.07487 0.85034 0.22717 0.0
H1011 H 0.15694 0.76452 0.25529 0.0
H1012 H 0.17181 0.71712 0.27426 0.0
H1013 H 0.08894 0.63806 0.25474 0.0
H1014 H 0.07318 0.68529 0.23575 0.0
H1015 H 0.16592 0.78562 0.16591 0.0
H1016 H 0.14669 0.80979 0.18867 0.0
H1017 H 0.08209 0.70456 0.19433 0.0
H1018 H 0.10476 0.67903 0.17208 0.0
H1019 H 0.11969 0.71751 0.21666 0.0
H1020 H 0.04784 0.80394 0.1852 0.0
H1021 H 0.03584 0.85418 0.16715 0.0
H1022 H 0.10497 0.93479 0.19224 0.0
H1023 H 0.1171 0.88532 0.21063 0.0
C1024 C 0.05677 0.79527 0.27303 0.0
C1025 C 0.0787 0.82554 0.27946 0.0
C1026 C 0.05964 0.78644 0.25871 0.0
C1027 C 0.08485 0.80736 0.25057 0.0
C1028 C 0.10573 0.83848 0.25679 0.0
C1029 C 0.10276 0.84746 0.27111 0.0
C1030 C 0.0914 0.79501 0.23587 0.0
C1031 C 0.08496 0.82145 0.22477 0.0
C1032 C 0.10397 0.75711 0.23285 0.0
C1033 C 0.11362 0.72857 0.24419 0.0
C1034 C 0.1417 0.73714 0.2551 0.0
C1035 C 0.15032 0.71029 0.26585 0.0
C1036 C 0.13127 0.67464 0.26572 0.0
C1037 C 0.10363 0.66572 0.25483 0.0
C1038 C 0.09486 0.69249 0.24407 0.0
C1039 C 0.14689 0.76814 0.17193 0.0
C1040 C 0.13634 0.73078 0.16732 0.0
C1041 C 0.13565 0.78204 0.18491 0.0
C1042 C 0.11202 0.75954 0.19319 0.0
C1043 C 0.10005 0.72271 0.18816 0.0
C1044 C 0.11272 0.70814 0.17544 0.0
C1045 C 0.10279 0.77269 0.20761 0.0
C1046 C 0.10905 0.74638 0.2188 0.0
C1047 C 0.09056 0.811 0.21064 0.0
C1048 C 0.08313 0.84076 0.19944 0.0
C1049 C 0.06032 0.83238 0.18699 0.0
C1050 C 0.05357 0.86073 0.17664 0.0
C1051 C 0.06966 0.89758 0.17852 0.0
C1052 C 0.09243 0.90624 0.1908 0.0
C1053 C 0.09908 0.87809 0.20123 0.0
H1054 H 0.0645 0.91941 0.17045 0.0
H1055 H 0.13797 0.65389 0.27405 0.0
H1056 H 0.72757 0.7263 0.52352 0.0
H1057 H 0.70113 0.71696 0.49919 0.0
H1058 H 0.628 0.62528 0.51301 0.0
H1059 H 0.65568 0.63367 0.53738 0.0
H1060 H 0.65027 0.61033 0.4865 0.0
H1061 H 0.59201 0.71447 0.51019 0.0
H1062 H 0.5909 0.77359 0.5249 0.0
H1063 H 0.64932 0.83639 0.49352 0.0
H1064 H 0.65138 0.77744 0.47871 0.0
H1065 H 0.53825 0.73499 0.42611 0.0
H1066 H 0.5445 0.70797 0.44999 0.0
H1067 H 0.64965 0.65025 0.43967 0.0
H1068 H 0.6421 0.67585 0.41557 0.0
H1069 H 0.598 0.73319 0.46629 0.0
H1070 H 0.67839 0.58343 0.46401 0.0
H1071 H 0.67111 0.52072 0.45152 0.0
H1072 H 0.55107 0.54432 0.44176 0.0
H1073 H 0.55749 0.6071 0.45421 0.0
C1074 C 0.70634 0.70375 0.5213 0.0
C1075 C 0.69318 0.68107 0.53227 0.0
C1076 C 0.69126 0.69838 0.50743 0.0
C1077 C 0.66194 0.67102 0.50436 0.0
C1078 C 0.65047 0.64664 0.51516 0.0
C1079 C 0.66615 0.65154 0.52905 0.0
C1080 C 0.64086 0.67107 0.49023 0.0
C1081 C 0.6387 0.63705 0.48201 0.0
C1082 C 0.62407 0.70555 0.4847 0.0
C1083 C 0.62201 0.74145 0.49337 0.0
C1084 C 0.60475 0.74085 0.50645 0.0
C1085 C 0.60397 0.77432 0.51481 0.0
C1086 C 0.62005 0.80871 0.51015 0.0
C1087 C 0.63687 0.80972 0.4971 0.0
C1088 C 0.63781 0.77629 0.48871 0.0
C1089 C 0.56161 0.71501 0.4288 0.0
C1090 C 0.58974 0.70738 0.41916 0.0
C1091 C 0.56532 0.69971 0.44244 0.0
C1092 C 0.59784 0.67747 0.44675 0.0
C1093 C 0.62407 0.66692 0.43663 0.0
C1094 C 0.6199 0.68167 0.42287 0.0
C1095 C 0.60852 0.67266 0.46211 0.0
C1096 C 0.60888 0.70606 0.47067 0.0
C1097 C 0.6222 0.63726 0.46802 0.0
C1098 C 0.61851 0.60014 0.46003 0.0
C1099 C 0.65042 0.57527 0.45921 0.0
C1100 C 0.64643 0.5397 0.45214 0.0
C1101 C 0.61061 0.52851 0.44591 0.0
C1102 C 0.5788 0.55306 0.44658 0.0
C1103 C 0.58264 0.58873 0.4536 0.0
H1104 H 0.60753 0.50083 0.44054 0.0
H1105 H 0.61941 0.83458 0.51664 0.0
H1106 H 0.64391 0.26629 0.7828 0.0
H1107 H 0.64627 0.25338 0.7575 0.0
H1108 H 0.5361 0.30971 0.74975 0.0
H1109 H 0.5335 0.32277 0.7752 0.0
H1110 H 0.54022 0.24213 0.73478 0.0
H1111 H 0.61711 0.35635 0.74182 0.0
H1112 H 0.66773 0.39678 0.75389 0.0
H1113 H 0.75381 0.31352 0.74371 0.0
H1114 H 0.70364 0.27234 0.73172 0.0
H1115 H 0.61151 0.26543 0.65989 0.0
H1116 H 0.58632 0.28447 0.68262 0.0
H1117 H 0.63958 0.18414 0.70234 0.0
H1118 H 0.66267 0.1636 0.6797 0.0
H1119 H 0.6548 0.28231 0.70958 0.0
H1120 H 0.57356 0.16436 0.70501 0.0
H1121 H 0.52161 0.12572 0.69307 0.0
H1122 H 0.44082 0.21733 0.69947 0.0
H1123 H 0.4928 0.25708 0.71107 0.0
C1124 C 0.62039 0.27638 0.77571 0.0
C1125 C 0.5887 0.29588 0.78097 0.0
C1126 C 0.6217 0.26886 0.76125 0.0
C1127 C 0.59159 0.28105 0.75173 0.0
C1128 C 0.55964 0.30012 0.75693 0.0
C1129 C 0.55822 0.30755 0.77145 0.0
C1130 C 0.59387 0.27371 0.73636 0.0
C1131 C 0.56496 0.25138 0.72919 0.0
C1132 C 0.62612 0.28592 0.72909 0.0
C1133 C 0.65656 0.31117 0.73592 0.0
C1134 C 0.64682 0.3466 0.74219 0.0
C1135 C 0.67543 0.36965 0.74902 0.0
C1136 C 0.71395 0.3577 0.74959 0.0
C1137 C 0.72396 0.32275 0.74326 0.0
C1138 C 0.69546 0.29958 0.73641 0.0
C1139 C 0.61635 0.24658 0.66893 0.0
C1140 C 0.63846 0.21262 0.66793 0.0
C1141 C 0.602 0.25753 0.68189 0.0
C1142 C 0.61008 0.23501 0.69401 0.0
C1143 C 0.63187 0.20111 0.69299 0.0
C1144 C 0.64535 0.18967 0.68005 0.0
C1145 C 0.60186 0.24971 0.70818 0.0
C1146 C 0.62972 0.27362 0.7151 0.0
C1147 C 0.5687 0.23884 0.71518 0.0
C1148 C 0.5376 0.21459 0.70826 0.0
C1149 C 0.54513 0.17691 0.70343 0.0
C1150 C 0.51553 0.15459 0.69685 0.0
C1151 C 0.47804 0.16931 0.69529 0.0
C1152 C 0.46999 0.20617 0.7005 0.0
C1153 C 0.49956 0.22865 0.70703 0.0
H1154 H 0.45515 0.15198 0.69022 0.0
H1155 H 0.73605 0.37551 0.75492 0.0
H1156 H 0.10133 0.64733 0.95833 0.0
H1157 H 0.1206 0.6309 0.98289 0.0
H1158 H 0.07286 0.73882 0.99692 0.0
H1159 H 0.05311 0.75524 0.97246 0.0
H1160 H 0.14284 0.72537 0.00991 0.0
H1161 H 0.02433 0.65403 -0.00052 0.0
H1162 H 0.98243 0.60706 0.9862 0.0
H1163 H 0.06387 0.51624 0.99636 0.0
H1164 H 0.10653 0.56284 0.00954 0.0
H1165 H 0.07295 0.68307 0.07826 0.0
H1166 H 0.0671 0.66375 0.05338 0.0
H1167 H 0.19074 0.65131 0.05346 0.0
H1168 H 0.19657 0.67 0.07857 0.0
H1169 H 0.09143 0.6088 0.03284 0.0
H1170 H 0.21541 0.71376 0.02752 0.0
H1171 H 0.25214 0.76312 0.04172 0.0
H1172 H 0.15099 0.79088 0.06373 0.0
H1173 H 0.11361 0.74222 0.04948 0.0
C1174 C 0.09467 0.66745 0.96666 0.0
C1175 C 0.07556 0.70258 0.96343 0.0
C1176 C 0.10584 0.65804 0.98068 0.0
C1177 C 0.098 0.68353 0.99174 0.0
C1178 C 0.07939 0.71881 0.98854 0.0
C1179 C 0.0682 0.72821 0.97454 0.0
C1180 C 0.10865 0.67361 0.00672 0.0
C1181 C 0.13202 0.69957 0.01484 0.0
C1182 C 0.09452 0.63999 0.01321 0.0
C1183 C 0.06883 0.612 0.00533 0.0
C1184 C 0.03345 0.62411 0.99877 0.0
C1185 C 0.00954 0.59755 0.99128 0.0
C1186 C 0.02054 0.55872 0.99039 0.0
C1187 C 0.05543 0.54635 0.99703 0.0
C1188 C 0.07948 0.57281 0.00451 0.0
C1189 C 0.09866 0.67417 0.07316 0.0
C1190 C 0.13521 0.67835 0.08019 0.0
C1191 C 0.09531 0.66306 0.05895 0.0
C1192 C 0.12853 0.65683 0.05153 0.0
C1193 C 0.16478 0.65615 0.05902 0.0
C1194 C 0.16809 0.6667 0.07336 0.0
C1195 C 0.12547 0.66057 0.03591 0.0
C1196 C 0.10333 0.63378 0.02773 0.0
C1197 C 0.14016 0.69374 0.02935 0.0
C1198 C 0.16194 0.72409 0.03757 0.0
C1199 C 0.20103 0.73057 0.03534 0.0
C1200 C 0.22194 0.75841 0.0434 0.0
C1201 C 0.20394 0.78003 0.05366 0.0
C1202 C 0.16492 0.77406 0.05581 0.0
C1203 C 0.14387 0.74639 0.04774 0.0
H1204 H 0.22021 0.80144 0.05992 0.0
H1205 H 0.00199 0.53819 0.98459 0.0
H1206 H 0.65299 0.8588 0.21907 0.0
H1207 H 0.65071 0.84974 0.24476 0.0
H1208 H 0.71219 0.74177 0.24162 0.0
H1209 H 0.71465 0.75067 0.21606 0.0
H1210 H 0.64307 0.73688 0.25562 0.0
H1211 H 0.75826 0.81403 0.25643 0.0
H1212 H 0.79751 0.8709 0.25097 0.0
H1213 H 0.72167 0.94465 0.27318 0.0
H1214 H 0.68159 0.88828 0.27859 0.0
H1215 H 0.64963 0.69282 0.32736 0.0
H1216 H 0.6762 0.7076 0.30455 0.0
H1217 H 0.6327 0.82446 0.30706 0.0
H1218 H 0.60765 0.80997 0.33013 0.0
H1219 H 0.69749 0.82441 0.29353 0.0
H1220 H 0.57888 0.75226 0.29052 0.0
H1221 H 0.53582 0.69796 0.29562 0.0
H1222 H 0.61299 0.61816 0.27685 0.0
H1223 H 0.65681 0.67198 0.27182 0.0
C1224 C 0.66624 0.83333 0.22392 0.0
C1225 C 0.68408 0.80549 0.21561 0.0
C1226 C 0.66516 0.82832 0.23856 0.0
C1227 C 0.68154 0.79521 0.24506 0.0
C1228 C 0.69962 0.76761 0.2368 0.0
C1229 C 0.70112 0.77281 0.22223 0.0
C1230 C 0.67734 0.78781 0.26028 0.0
C1231 C 0.65555 0.75562 0.26393 0.0
C1232 C 0.69266 0.813 0.27104 0.0
C1233 C 0.71668 0.84696 0.26779 0.0
C1234 C 0.74972 0.84242 0.26003 0.0
C1235 C 0.77217 0.87456 0.25697 0.0
C1236 C 0.76203 0.91138 0.26169 0.0
C1237 C 0.72946 0.91612 0.26951 0.0
C1238 C 0.70688 0.88407 0.27259 0.0
C1239 C 0.64701 0.72194 0.3232 0.0
C1240 C 0.62693 0.75039 0.33037 0.0
C1241 C 0.66189 0.73034 0.31017 0.0
C1242 C 0.65562 0.76689 0.30394 0.0
C1243 C 0.63782 0.79607 0.31163 0.0
C1244 C 0.62348 0.78782 0.32477 0.0
C1245 C 0.66333 0.77332 0.28887 0.0
C1246 C 0.68544 0.80541 0.28523 0.0
C1247 C 0.64773 0.74843 0.27802 0.0
C1248 C 0.62131 0.71606 0.28094 0.0
C1249 C 0.58678 0.72309 0.28756 0.0
C1250 C 0.56223 0.69242 0.29044 0.0
C1251 C 0.57172 0.65462 0.2866 0.0
C1252 C 0.60572 0.64744 0.27984 0.0
C1253 C 0.63042 0.67802 0.27698 0.0
H1254 H 0.55267 0.6309 0.28883 0.0
H1255 H 0.77946 0.93623 0.25932 0.0
H1256 H 0.61576 0.24357 0.46449 0.0
H1257 H 0.638 0.22188 0.48814 0.0
H1258 H 0.53504 0.15288 0.4905 0.0
H1259 H 0.51212 0.17529 0.46695 0.0
H1260 H 0.5496 0.19412 0.51425 0.0
H1261 H 0.62107 0.10897 0.48623 0.0
H1262 H 0.66314 0.09007 0.46728 0.0
H1263 H 0.7553 0.15855 0.48666 0.0
H1264 H 0.71361 0.17836 0.50562 0.0
H1265 H 0.6212 0.14532 0.58215 0.0
H1266 H 0.6045 0.12633 0.55752 0.0
H1267 H 0.69226 0.2033 0.54356 0.0
H1268 H 0.70931 0.22154 0.5681 0.0
H1269 H 0.68096 0.14142 0.52536 0.0
H1270 H 0.60426 0.23798 0.54917 0.0
H1271 H 0.56304 0.25917 0.56811 0.0
H1272 H 0.48102 0.16997 0.55619 0.0
H1273 H 0.52214 0.1479 0.53731 0.0
C1274 C 0.59772 0.224 0.47008 0.0
C1275 C 0.56214 0.21123 0.46386 0.0
C1276 C 0.61071 0.21118 0.48352 0.0
C1277 C 0.58848 0.18521 0.491 0.0
C1278 C 0.55281 0.17262 0.48487 0.0
C1279 C 0.53983 0.18536 0.4714 0.0
C1280 C 0.60165 0.17315 0.50553 0.0
C1281 C 0.57792 0.1816 0.51663 0.0
C1282 C 0.63879 0.15725 0.50867 0.0
C1283 C 0.66409 0.14532 0.49732 0.0
C1284 C 0.65022 0.12023 0.4864 0.0
C1285 C 0.67402 0.10932 0.47566 0.0
C1286 C 0.71185 0.12314 0.47575 0.0
C1287 C 0.72598 0.14786 0.4866 0.0
C1288 C 0.70229 0.1589 0.49736 0.0
C1289 C 0.63838 0.15628 0.57388 0.0
C1290 C 0.66666 0.18462 0.57695 0.0
C1291 C 0.62852 0.14585 0.5598 0.0
C1292 C 0.64667 0.16399 0.5487 0.0
C1293 C 0.67785 0.18897 0.55193 0.0
C1294 C 0.68756 0.19943 0.56595 0.0
C1295 C 0.62923 0.16323 0.534 0.0
C1296 C 0.65217 0.15268 0.52289 0.0
C1297 C 0.59141 0.17739 0.5308 0.0
C1298 C 0.56643 0.19102 0.54197 0.0
C1299 C 0.57753 0.22277 0.55065 0.0
C1300 C 0.55421 0.23493 0.56137 0.0
C1301 C 0.51949 0.21585 0.56338 0.0
C1302 C 0.50797 0.18465 0.55464 0.0
C1303 C 0.53127 0.17229 0.54394 0.0
H1304 H 0.50146 0.2253 0.57168 0.0
H1305 H 0.73023 0.11466 0.46743 0.0
H1306 H 0.23682 0.34373 0.72225 0.0
H1307 H 0.23736 0.33645 0.748 0.0
H1308 H 0.12574 0.28153 0.74371 0.0
H1309 H 0.12547 0.28724 0.71806 0.0
H1310 H 0.13346 0.335 0.76652 0.0
H1311 H 0.2002 0.22359 0.74709 0.0
H1312 H 0.25014 0.19594 0.73253 0.0
H1313 H 0.33815 0.25588 0.75785 0.0
H1314 H 0.28864 0.28386 0.77262 0.0
H1315 H 0.13274 0.18013 0.81891 0.0
H1316 H 0.16008 0.20345 0.79731 0.0
H1317 H 0.1836 0.31418 0.81729 0.0
H1318 H 0.15664 0.29082 0.83903 0.0
H1319 H 0.22891 0.24209 0.78813 0.0
H1320 H 0.13946 0.37844 0.79351 0.0
H1321 H 0.0859 0.40309 0.80706 0.0
H1322 H 0.03829 0.28849 0.80847 0.0
H1323 H 0.0912 0.26338 0.79475 0.0
C1324 C 0.21234 0.33015 0.72678 0.0
C1325 C 0.1812 0.31585 0.71802 0.0
C1326 C 0.21262 0.32628 0.7415 0.0
C1327 C 0.18164 0.30836 0.74773 0.0
C1328 C 0.14979 0.29573 0.7391 0.0
C1329 C 0.14964 0.2992 0.72441 0.0
C1330 C 0.18331 0.29983 0.76308 0.0
C1331 C 0.15476 0.31529 0.77132 0.0
C1332 C 0.2109 0.27387 0.76929 0.0
C1333 C 0.24081 0.25588 0.76089 0.0
C1334 C 0.23023 0.23079 0.74956 0.0
C1335 C 0.25843 0.21506 0.74129 0.0
C1336 C 0.2973 0.22413 0.74429 0.0
C1337 C 0.30805 0.2488 0.7556 0.0
C1338 C 0.27996 0.2645 0.76395 0.0
C1339 C 0.14495 0.209 0.81885 0.0
C1340 C 0.14223 0.23381 0.83056 0.0
C1341 C 0.1608 0.2222 0.80655 0.0
C1342 C 0.17349 0.26062 0.80568 0.0
C1343 C 0.17393 0.28442 0.81777 0.0
C1344 C 0.15854 0.27102 0.83018 0.0
C1345 C 0.17898 0.27724 0.79155 0.0
C1346 C 0.20858 0.26301 0.7835 0.0
C1347 C 0.15208 0.30408 0.78543 0.0
C1348 C 0.11948 0.31904 0.79327 0.0
C1349 C 0.11744 0.35859 0.79667 0.0
C1350 C 0.08722 0.37262 0.80438 0.0
C1351 C 0.05879 0.34734 0.80867 0.0
C1352 C 0.06038 0.30802 0.80519 0.0
C1353 C 0.09048 0.29388 0.79745 0.0
H1354 H 0.03549 0.35824 0.81468 0.0
H1355 H 0.3191 0.21206 0.73784 0.0
loop_
_geom_bond_atom_site_label_1
_geom_bond_atom_site_label_2
_geom_bond_distance
_geom_bond_site_symmetry_2
_ccdc_geom_bond_type
H0 C3 0.931 . S
H1 C6 0.928 . S
H2 C8 0.930 . S
C3 H0 0.931 . S
C3 C4 1.413 . S
C3 C5 1.360 . S
C4 C3 1.413 . S
C4 C8 1.429 . S
C5 C3 1.360 . S
C5 C6 1.372 . S
C6 H1 0.928 . S
C6 C5 1.372 . S
C6 C7 1.404 . S
C7 C6 1.404 . S
C7 C8 1.391 . S
C8 H2 0.930 . S
C8 C4 1.429 . S
C8 C7 1.391 . S
H9 C12 0.931 . S
H10 C15 0.928 . S
H11 C17 0.930 . S
C12 H9 0.931 . S
C12 C13 1.413 . S
C12 C14 1.360 . S
C13 C12 1.413 . S
C13 C17 1.429 . S
C14 C12 1.360 . S
C14 C15 1.372 . S
C15 H10 0.928 . S
C15 C14 1.372 . S
C15 C16 1.404 . S
C16 C15 1.404 . S
C16 C17 1.391 . S
C17 H11 0.930 . S
C17 C13 1.429 . S
C17 C16 1.391 . S
H18 C21 0.931 . S
H19 C24 0.928 . S
H20 C26 0.930 . S
C21 H18 0.931 . S
C21 C22 1.413 . S
C21 C23 1.360 . S
C22 C21 1.413 . S
C22 C26 1.429 . S
C23 C21 1.360 . S
C23 C24 1.372 . S
C24 H19 0.928 . S
C24 C23 1.372 . S
C24 C25 1.404 . S
C25 C24 1.404 . S
C25 C26 1.391 . S
C26 H20 0.930 . S
C26 C22 1.429 . S
C26 C25 1.391 . S
H27 C30 0.931 . S
H28 C33 0.928 . S
H29 C35 0.930 . S
C30 H27 0.931 . S
C30 C31 1.413 . S
C30 C32 1.360 . S
C31 C30 1.413 . S
C31 C35 1.429 . S
C32 C30 1.360 . S
C32 C33 1.372 . S
C33 H28 0.928 . S
C33 C32 1.372 . S
C33 C34 1.404 . S
C34 C33 1.404 . S
C34 C35 1.391 . S
C35 H29 0.930 . S
C35 C31 1.429 . S
C35 C34 1.391 . S
H36 C39 0.931 . S
H37 C42 0.928 . S
H38 C44 0.930 . S
C39 H36 0.931 . S
C39 C40 1.413 . S
C39 C41 1.360 . S
C40 C39 1.413 . S
C40 C44 1.429 . S
C41 C39 1.360 . S
C41 C42 1.372 . S
C42 H37 0.928 . S
C42 C41 1.372 . S
C42 C43 1.404 . S
C43 C42 1.404 . S
C43 C44 1.391 . S
C44 H38 0.930 . S
C44 C40 1.429 . S
C44 C43 1.391 . S
H45 C48 0.931 . S
H46 C51 0.928 . S
H47 C53 0.930 . S
C48 H45 0.931 . S
C48 C49 1.413 . S
C48 C50 1.360 . S
C49 C48 1.413 . S
C49 C53 1.429 . S
C50 C48 1.360 . S
C50 C51 1.372 . S
C51 H46 0.928 . S
C51 C50 1.372 . S
C51 C52 1.404 . S
C52 C51 1.404 . S
C52 C53 1.391 . S
C53 H47 0.930 . S
C53 C49 1.429 . S
C53 C52 1.391 . S
H54 C57 0.931 . S
H55 C60 0.928 . S
H56 C62 0.930 . S
C57 H54 0.931 . S
C57 C58 1.413 . S
C57 C59 1.360 . S
C58 C57 1.413 . S
C58 C62 1.429 . S
C59 C57 1.360 . S
C59 C60 1.372 . S
C60 H55 0.928 . S
C60 C59 1.372 . S
C60 C61 1.404 . S
C61 C60 1.404 . S
C61 C62 1.391 . S
C62 H56 0.930 . S
C62 C58 1.429 . S
C62 C61 1.391 . S
H63 C66 0.931 . S
H64 C69 0.928 . S
H65 C71 0.930 . S
C66 H63 0.931 . S
C66 C67 1.413 . S
C66 C68 1.360 . S
C67 C66 1.413 . S
C67 C71 1.429 . S
C68 C66 1.360 . S
C68 C69 1.372 . S
C69 H64 0.928 . S
C69 C68 1.372 . S
C69 C70 1.404 . S
C70 C69 1.404 . S
C70 C71 1.391 . S
C71 H65 0.930 . S
C71 C67 1.429 . S
C71 C70 1.391 . S
Zn72 O78 1.920 . S
Zn72 O84 1.898 . S
Zn72 O87 1.905 . S
Zn73 O81 1.905 . S
Zn73 O82 1.898 . S
Zn73 O90 1.920 . S
Zn74 O77 2.080 . S
Zn74 O80 2.114 . S
Zn74 O83 2.120 . S
Zn74 O85 2.120 . S
Zn74 O86 2.114 . S
Zn74 O89 2.080 . S
C75 O80 1.166 . S
C75 O81 1.182 . S
C76 O82 1.167 . S
C76 O83 1.299 . S
O77 Zn74 2.080 . S
O77 C91 1.305 . S
O78 Zn72 1.920 . S
O78 C91 1.234 . S
C79 O84 1.167 . S
C79 O85 1.299 . S
O80 Zn74 2.114 . S
O80 C75 1.166 . S
O81 Zn73 1.905 . S
O81 C75 1.182 . S
O82 Zn73 1.898 . S
O82 C76 1.167 . S
O83 Zn74 2.120 . S
O83 C76 1.299 . S
O84 Zn72 1.898 . S
O84 C79 1.167 . S
O85 Zn74 2.120 . S
O85 C79 1.299 . S
O86 Zn74 2.114 . S
O86 C88 1.166 . S
O87 Zn72 1.905 . S
O87 C88 1.182 . S
C88 O86 1.166 . S
C88 O87 1.182 . S
O89 Zn74 2.080 . S
O89 C92 1.305 . S
O90 Zn73 1.920 . S
O90 C92 1.234 . S
C91 O77 1.305 . S
C91 O78 1.234 . S
C92 O89 1.305 . S
C92 O90 1.234 . S
Zn93 O99 1.920 . S
Zn93 O105 1.898 . S
Zn93 O108 1.905 . S
Zn94 O102 1.905 . S
Zn94 O103 1.898 . S
Zn94 O111 1.920 . S
Zn95 O98 2.080 . S
Zn95 O101 2.114 . S
Zn95 O104 2.120 . S
Zn95 O106 2.120 . S
Zn95 O107 2.114 . S
Zn95 O110 2.080 . S
C96 O101 1.166 . S
C96 O102 1.182 . S
C97 O103 1.167 . S
C97 O104 1.299 . S
O98 Zn95 2.080 . S
O98 C112 1.305 . S
O99 Zn93 1.920 . S
O99 C112 1.234 . S
C100 O105 1.167 . S
C100 O106 1.299 . S
O101 Zn95 2.114 . S
O101 C96 1.166 . S
O102 Zn94 1.905 . S
O102 C96 1.182 . S
O103 Zn94 1.898 . S
O103 C97 1.167 . S
O104 Zn95 2.120 . S
O104 C97 1.299 . S
O105 Zn93 1.898 . S
O105 C100 1.167 . S
O106 Zn95 2.120 . S
O106 C100 1.299 . S
O107 Zn95 2.114 . S
O107 C109 1.166 . S
O108 Zn93 1.905 . S
O108 C109 1.182 . S
C109 O107 1.166 . S
C109 O108 1.182 . S
O110 Zn95 2.080 . S
O110 C113 1.305 . S
O111 Zn94 1.920 . S
O111 C113 1.234 . S
C112 O98 1.305 . S
C112 O99 1.234 . S
C113 O110 1.305 . S
C113 O111 1.234 . S
Zn114 O120 1.920 . S
Zn114 O126 1.898 . S
Zn114 O129 1.905 . S
Zn115 O123 1.905 . S
Zn115 O124 1.898 . S
Zn115 O132 1.920 . S
Zn116 O119 2.080 . S
Zn116 O122 2.114 . S
Zn116 O125 2.120 . S
Zn116 O127 2.120 . S
Zn116 O128 2.114 . S
Zn116 O131 2.080 . S
C117 O122 1.166 . S
C117 O123 1.182 . S
C118 O124 1.167 . S
C118 O125 1.299 . S
O119 Zn116 2.080 . S
O119 C133 1.305 . S
O120 Zn114 1.920 . S
O120 C133 1.234 . S
C121 O126 1.167 . S
C121 O127 1.299 . S
O122 Zn116 2.114 . S
O122 C117 1.166 . S
O123 Zn115 1.905 . S
O123 C117 1.182 . S
O124 Zn115 1.898 . S
O124 C118 1.167 . S
O125 Zn116 2.120 . S
O125 C118 1.299 . S
O126 Zn114 1.898 . S
O126 C121 1.167 . S
O127 Zn116 2.120 . S
O127 C121 1.299 . S
O128 Zn116 2.114 . S
O128 C130 1.166 . S
O129 Zn114 1.905 . S
O129 C130 1.182 . S
C130 O128 1.166 . S
C130 O129 1.182 . S
O131 Zn116 2.080 . S
O131 C134 1.305 . S
O132 Zn115 1.920 . S
O132 C134 1.234 . S
C133 O119 1.305 . S
C133 O120 1.234 . S
C134 O131 1.305 . S
C134 O132 1.234 . S
Zn135 O141 1.920 . S
Zn135 O147 1.898 . S
Zn135 O150 1.905 . S
Zn136 O144 1.905 . S
Zn136 O145 1.898 . S
Zn136 O153 1.920 . S
Zn137 O140 2.080 . S
Zn137 O143 2.114 . S
Zn137 O146 2.120 . S
Zn137 O148 2.120 . S
Zn137 O149 2.114 . S
Zn137 O152 2.080 . S
C138 O143 1.166 . S
C138 O144 1.182 . S
C139 O145 1.167 . S
C139 O146 1.299 . S
O140 Zn137 2.080 . S
O140 C154 1.305 . S
O141 Zn135 1.920 . S
O141 C154 1.234 . S
C142 O147 1.167 . S
C142 O148 1.299 . S
O143 Zn137 2.114 . S
O143 C138 1.166 . S
O144 Zn136 1.905 . S
O144 C138 1.182 . S
O145 Zn136 1.898 . S
O145 C139 1.167 . S
O146 Zn137 2.120 . S
O146 C139 1.299 . S
O147 Zn135 1.898 . S
O147 C142 1.167 . S
O148 Zn137 2.120 . S
O148 C142 1.299 . S
O149 Zn137 2.114 . S
O149 C151 1.166 . S
O150 Zn135 1.905 . S
O150 C151 1.182 . S
C151 O149 1.166 . S
C151 O150 1.182 . S
O152 Zn137 2.080 . S
O152 C155 1.305 . S
O153 Zn136 1.920 . S
O153 C155 1.234 . S
C154 O140 1.305 . S
C154 O141 1.234 . S
C155 O152 1.305 . S
C155 O153 1.234 . S
H156 C174 0.951 . S
H157 C176 0.951 . S
H158 C178 0.950 . S
H159 C179 0.950 . S
H160 C181 0.950 . S
H161 C184 0.950 . S
H162 C185 0.950 . S
H163 C187 0.950 . S
H164 C188 0.950 . S
H165 C189 0.951 . S
H166 C191 0.951 . S
H167 C193 0.950 . S
H168 C194 0.950 . S
H169 C196 0.950 . S
H170 C199 0.950 . S
H171 C200 0.950 . S
H172 C202 0.950 . S
H173 C203 0.950 . S
C174 H156 0.951 . S
C174 C175 1.366 . S
C174 C176 1.388 . S
C175 C174 1.366 . S
C175 C179 1.385 . S
C176 H157 0.951 . S
C176 C174 1.388 . S
C176 C177 1.366 . S
C177 C176 1.366 . S
C177 C178 1.414 . S
C177 C180 1.499 . S
C178 H158 0.950 . S
C178 C177 1.414 . S
C178 C179 1.374 . S
C179 H159 0.950 . S
C179 C175 1.385 . S
C179 C178 1.374 . S
C180 C177 1.499 . S
C180 C181 1.373 . S
C180 C182 1.389 . S
C181 H160 0.950 . S
C181 C180 1.373 . S
C181 C197 1.377 . S
C182 C180 1.389 . S
C182 C183 1.524 . S
C182 C196 1.377 . S
C183 C182 1.524 . S
C183 C184 1.397 . S
C183 C188 1.363 . S
C184 H161 0.950 . S
C184 C183 1.397 . S
C184 C185 1.334 . S
C185 H162 0.950 . S
C185 C184 1.334 . S
C185 C186 1.287 . S
C186 C185 1.287 . S
C186 C187 1.524 . S
C186 H205 0.913 . S
C187 H163 0.950 . S
C187 C186 1.524 . S
C187 C188 1.415 . S
C188 H164 0.950 . S
C188 C183 1.363 . S
C188 C187 1.415 . S
C189 H165 0.951 . S
C189 C190 1.366 . S
C189 C191 1.388 . S
C190 C189 1.366 . S
C190 C194 1.385 . S
C191 H166 0.951 . S
C191 C189 1.388 . S
C191 C192 1.366 . S
C192 C191 1.366 . S
C192 C193 1.414 . S
C192 C195 1.499 . S
C193 H167 0.950 . S
C193 C192 1.414 . S
C193 C194 1.374 . S
C194 H168 0.950 . S
C194 C190 1.385 . S
C194 C193 1.374 . S
C195 C192 1.499 . S
C195 C196 1.373 . S
C195 C197 1.389 . S
C196 H169 0.950 . S
C196 C182 1.377 . S
C196 C195 1.373 . S
C197 C181 1.377 . S
C197 C195 1.389 . S
C197 C198 1.524 . S
C198 C197 1.524 . S
C198 C199 1.397 . S
C198 C203 1.363 . S
C199 H170 0.950 . S
C199 C198 1.397 . S
C199 C200 1.334 . S
C200 H171 0.950 . S
C200 C199 1.334 . S
C200 C201 1.287 . S
C201 C200 1.287 . S
C201 C202 1.524 . S
C201 H204 0.999 . S
C202 H172 0.950 . S
C202 C201 1.524 . S
C202 C203 1.415 . S
C203 H173 0.950 . S
C203 C198 1.363 . S
C203 C202 1.415 . S
H204 C201 0.999 . S
H205 C186 0.913 . S
H206 C224 0.951 . S
H207 C226 0.951 1_655 S
H208 C228 0.950 . S
H209 C229 0.950 . S
H210 C231 0.950 . S
H211 C234 0.950 . S
H212 C235 0.950 . S
H213 C237 0.950 . S
H214 C238 0.950 . S
H215 C239 0.951 . S
H216 C241 0.951 . S
H217 C243 0.950 . S
H218 C244 0.950 . S
H219 C246 0.950 . S
H220 C249 0.950 . S
H221 C250 0.950 . S
H222 C252 0.950 . S
H223 C253 0.950 . S
C224 H206 0.951 . S
C224 C225 1.366 . S
C224 C226 1.388 . S
C225 C224 1.366 . S
C225 C229 1.385 . S
C226 H207 0.951 1_455 S
C226 C224 1.388 . S
C226 C227 1.366 1_455 S
C227 C226 1.366 1_655 S
C227 C228 1.414 . S
C227 C230 1.499 . S
C228 H208 0.950 . S
C228 C227 1.414 . S
C228 C229 1.374 1_655 S
C229 H209 0.950 . S
C229 C225 1.385 . S
C229 C228 1.374 1_455 S
C230 C227 1.499 . S
C230 C231 1.373 . S
C230 C232 1.389 . S
C231 H210 0.950 . S
C231 C230 1.373 . S
C231 C247 1.377 . S
C232 C230 1.389 . S
C232 C233 1.524 . S
C232 C246 1.377 . S
C233 C232 1.524 . S
C233 C234 1.397 . S
C233 C238 1.363 . S
C234 H211 0.950 . S
C234 C233 1.397 . S
C234 C235 1.334 . S
C235 H212 0.950 . S
C235 C234 1.334 . S
C235 C236 1.287 . S
C236 C235 1.287 . S
C236 C237 1.524 . S
C236 H255 0.911 1_655 S
C237 H213 0.950 . S
C237 C236 1.524 . S
C237 C238 1.415 . S
C238 H214 0.950 . S
C238 C233 1.363 . S
C238 C237 1.415 . S
C239 H215 0.951 . S
C239 C240 1.366 . S
C239 C241 1.388 . S
C240 C239 1.366 . S
C240 C244 1.385 . S
C241 H216 0.951 . S
C241 C239 1.388 . S
C241 C242 1.366 . S
C242 C241 1.366 . S
C242 C243 1.414 . S
C242 C245 1.499 . S
C243 H217 0.950 . S
C243 C242 1.414 . S
C243 C244 1.374 . S
C244 H218 0.950 . S
C244 C240 1.385 . S
C244 C243 1.374 . S
C245 C242 1.499 . S
C245 C246 1.373 . S
C245 C247 1.389 . S
C246 H219 0.950 . S
C246 C232 1.377 . S
C246 C245 1.373 . S
C247 C231 1.377 . S
C247 C245 1.389 . S
C247 C248 1.524 . S
C248 C247 1.524 . S
C248 C249 1.397 . S
C248 C253 1.363 . S
C249 H220 0.950 . S
C249 C248 1.397 . S
C249 C250 1.334 . S
C250 H221 0.950 . S
C250 C249 1.334 . S
C250 C251 1.287 . S
C251 C250 1.287 . S
C251 C252 1.524 . S
C251 H254 0.999 . S
C252 H222 0.950 . S
C252 C251 1.524 . S
C252 C253 1.415 . S
C253 H223 0.950 . S
C253 C248 1.363 . S
C253 C252 1.415 . S
H254 C251 0.999 . S
H255 C236 0.911 1_455 S
H256 C274 0.951 . S
H257 C276 0.951 . S
H258 C278 0.950 . S
H259 C279 0.950 . S
H260 C281 0.950 . S
H261 C284 0.950 . S
H262 C285 0.950 . S
H263 C287 0.950 . S
H264 C288 0.950 . S
H265 C289 0.951 . S
H266 C291 0.951 . S
H267 C293 0.950 . S
H268 C294 0.950 . S
H269 C296 0.950 . S
H270 C299 0.950 . S
H271 C300 0.950 . S
H272 C302 0.950 . S
H273 C303 0.950 . S
C274 H256 0.951 . S
C274 C275 1.366 . S
C274 C276 1.388 . S
C275 C274 1.366 . S
C275 C279 1.385 . S
C276 H257 0.951 . S
C276 C274 1.388 . S
C276 C277 1.366 . S
C277 C276 1.366 . S
C277 C278 1.414 . S
C277 C280 1.499 . S
C278 H258 0.950 . S
C278 C277 1.414 . S
C278 C279 1.374 . S
C279 H259 0.950 . S
C279 C275 1.385 . S
C279 C278 1.374 . S
C280 C277 1.499 . S
C280 C281 1.373 . S
C280 C282 1.389 . S
C281 H260 0.950 . S
C281 C280 1.373 . S
C281 C297 1.377 . S
C282 C280 1.389 . S
C282 C283 1.524 . S
C282 C296 1.377 . S
C283 C282 1.524 . S
C283 C284 1.397 . S
C283 C288 1.363 . S
C284 H261 0.950 . S
C284 C283 1.397 . S
C284 C285 1.334 . S
C285 H262 0.950 . S
C285 C284 1.334 . S
C285 C286 1.287 . S
C286 C285 1.287 . S
C286 C287 1.524 . S
C286 H305 0.913 . S
C287 H263 0.950 . S
C287 C286 1.524 . S
C287 C288 1.415 . S
C288 H264 0.950 . S
C288 C283 1.363 . S
C288 C287 1.415 . S
C289 H265 0.951 . S
C289 C290 1.366 . S
C289 C291 1.388 . S
C290 C289 1.366 . S
C290 C294 1.385 . S
C291 H266 0.951 . S
C291 C289 1.388 . S
C291 C292 1.366 . S
C292 C291 1.366 . S
C292 C293 1.414 . S
C292 C295 1.499 . S
C293 H267 0.950 . S
C293 C292 1.414 . S
C293 C294 1.374 . S
C294 H268 0.950 . S
C294 C290 1.385 . S
C294 C293 1.374 . S
C295 C292 1.499 . S
C295 C296 1.373 . S
C295 C297 1.389 . S
C296 H269 0.950 . S
C296 C282 1.377 . S
C296 C295 1.373 . S
C297 C281 1.377 . S
C297 C295 1.389 . S
C297 C298 1.524 . S
C298 C297 1.524 . S
C298 C299 1.397 . S
C298 C303 1.363 . S
C299 H270 0.950 . S
C299 C298 1.397 . S
C299 C300 1.334 . S
C300 H271 0.950 . S
C300 C299 1.334 . S
C300 C301 1.287 . S
C301 C300 1.287 . S
C301 C302 1.524 . S
C301 H304 0.999 . S
C302 H272 0.950 . S
C302 C301 1.524 . S
C302 C303 1.415 . S
C303 H273 0.950 . S
C303 C298 1.363 . S
C303 C302 1.415 . S
H304 C301 0.999 . S
H305 C286 0.913 . S
H306 C324 0.951 . S
H307 C326 0.951 . S
H308 C328 0.950 . S
H309 C329 0.950 . S
H310 C331 0.950 . S
H311 C334 0.950 . S
H312 C335 0.950 . S
H313 C337 0.950 . S
H314 C338 0.950 . S
H315 C339 0.951 . S
H316 C341 0.951 . S
H317 C343 0.950 . S
H318 C344 0.950 1_455 S
H319 C346 0.950 . S
H320 C349 0.950 . S
H321 C350 0.950 . S
H322 C352 0.950 . S
H323 C353 0.950 . S
C324 H306 0.951 . S
C324 C325 1.366 . S
C324 C326 1.388 . S
C325 C324 1.366 . S
C325 C329 1.385 . S
C326 H307 0.951 . S
C326 C324 1.388 . S
C326 C327 1.366 . S
C327 C326 1.366 . S
C327 C328 1.414 . S
C327 C330 1.499 . S
C328 H308 0.950 . S
C328 C327 1.414 . S
C328 C329 1.374 . S
C329 H309 0.950 . S
C329 C325 1.385 . S
C329 C328 1.374 . S
C330 C327 1.499 . S
C330 C331 1.373 . S
C330 C332 1.389 . S
C331 H310 0.950 . S
C331 C330 1.373 . S
C331 C347 1.377 . S
C332 C330 1.389 . S
C332 C333 1.524 . S
C332 C346 1.377 . S
C333 C332 1.524 . S
C333 C334 1.397 . S
C333 C338 1.363 . S
C334 H311 0.950 . S
C334 C333 1.397 . S
C334 C335 1.334 . S
C335 H312 0.950 . S
C335 C334 1.334 . S
C335 C336 1.287 . S
C336 C335 1.287 . S
C336 C337 1.524 . S
C336 H355 0.913 . S
C337 H313 0.950 . S
C337 C336 1.524 . S
C337 C338 1.415 . S
C338 H314 0.950 . S
C338 C333 1.363 . S
C338 C337 1.415 . S
C339 H315 0.951 . S
C339 C340 1.366 1_655 S
C339 C341 1.388 . S
C340 C339 1.366 1_455 S
C340 C344 1.385 1_455 S
C341 H316 0.951 . S
C341 C339 1.388 . S
C341 C342 1.366 . S
C342 C341 1.366 . S
C342 C343 1.414 . S
C342 C345 1.499 . S
C343 H317 0.950 . S
C343 C342 1.414 . S
C343 C344 1.374 . S
C344 H318 0.950 1_655 S
C344 C340 1.385 1_655 S
C344 C343 1.374 . S
C345 C342 1.499 . S
C345 C346 1.373 . S
C345 C347 1.389 . S
C346 H319 0.950 . S
C346 C332 1.377 . S
C346 C345 1.373 . S
C347 C331 1.377 . S
C347 C345 1.389 . S
C347 C348 1.524 . S
C348 C347 1.524 . S
C348 C349 1.397 . S
C348 C353 1.363 . S
C349 H320 0.950 . S
C349 C348 1.397 . S
C349 C350 1.334 . S
C350 H321 0.950 . S
C350 C349 1.334 . S
C350 C351 1.287 . S
C351 C350 1.287 . S
C351 C352 1.524 . S
C351 H354 0.999 . S
C352 H322 0.950 . S
C352 C351 1.524 . S
C352 C353 1.415 . S
C353 H323 0.950 . S
C353 C348 1.363 . S
C353 C352 1.415 . S
H354 C351 0.999 . S
H355 C336 0.913 . S
H356 C374 0.951 . S
H357 C376 0.951 . S
H358 C378 0.950 . S
H359 C379 0.950 1_655 S
H360 C381 0.950 . S
H361 C384 0.950 . S
H362 C385 0.950 . S
H363 C387 0.950 . S
H364 C388 0.950 . S
H365 C389 0.951 . S
H366 C391 0.951 . S
H367 C393 0.950 . S
H368 C394 0.950 . S
H369 C396 0.950 . S
H370 C399 0.950 . S
H371 C400 0.950 . S
H372 C402 0.950 . S
H373 C403 0.950 . S
C374 H356 0.951 . S
C374 C375 1.366 . S
C374 C376 1.388 . S
C375 C374 1.366 . S
C375 C379 1.385 . S
C376 H357 0.951 . S
C376 C374 1.388 . S
C376 C377 1.366 . S
C377 C376 1.366 . S
C377 C378 1.414 . S
C377 C380 1.499 . S
C378 H358 0.950 . S
C378 C377 1.414 . S
C378 C379 1.374 . S
C379 H359 0.950 1_455 S
C379 C375 1.385 . S
C379 C378 1.374 . S
C380 C377 1.499 . S
C380 C381 1.373 . S
C380 C382 1.389 . S
C381 H360 0.950 . S
C381 C380 1.373 . S
C381 C397 1.377 . S
C382 C380 1.389 . S
C382 C383 1.524 . S
C382 C396 1.377 . S
C383 C382 1.524 . S
C383 C384 1.397 . S
C383 C388 1.363 . S
C384 H361 0.950 . S
C384 C383 1.397 . S
C384 C385 1.334 . S
C385 H362 0.950 . S
C385 C384 1.334 . S
C385 C386 1.287 . S
C386 C385 1.287 . S
C386 C387 1.524 . S
C386 H405 0.913 . S
C387 H363 0.950 . S
C387 C386 1.524 . S
C387 C388 1.415 . S
C388 H364 0.950 . S
C388 C383 1.363 . S
C388 C387 1.415 . S
C389 H365 0.951 . S
C389 C390 1.366 . S
C389 C391 1.388 . S
C390 C389 1.366 . S
C390 C394 1.385 . S
C391 H366 0.951 . S
C391 C389 1.388 . S
C391 C392 1.366 . S
C392 C391 1.366 . S
C392 C393 1.414 . S
C392 C395 1.499 . S
C393 H367 0.950 . S
C393 C392 1.414 . S
C393 C394 1.374 . S
C394 H368 0.950 . S
C394 C390 1.385 . S
C394 C393 1.374 . S
C395 C392 1.499 . S
C395 C396 1.373 . S
C395 C397 1.389 . S
C396 H369 0.950 . S
C396 C382 1.377 . S
C396 C395 1.373 . S
C397 C381 1.377 . S
C397 C395 1.389 . S
C397 C398 1.524 . S
C398 C397 1.524 . S
C398 C399 1.397 . S
C398 C403 1.363 1_455 S
C399 H370 0.950 . S
C399 C398 1.397 . S
C399 C400 1.334 . S
C400 H371 0.950 . S
C400 C399 1.334 . S
C400 C401 1.287 1_455 S
C401 C400 1.287 1_655 S
C401 C402 1.524 . S
C401 H404 0.999 . S
C402 H372 0.950 . S
C402 C401 1.524 . S
C402 C403 1.415 . S
C403 H373 0.950 . S
C403 C398 1.363 1_655 S
C403 C402 1.415 . S
H404 C401 0.999 . S
H405 C386 0.913 . S
H406 C424 0.951 . S
H407 C426 0.951 . S
H408 C428 0.950 . S
H409 C429 0.950 . S
H410 C431 0.950 . S
H411 C434 0.950 . S
H412 C435 0.950 . S
H413 C437 0.950 . S
H414 C438 0.950 . S
H415 C439 0.951 . S
H416 C441 0.951 . S
H417 C443 0.950 . S
H418 C444 0.950 . S
H419 C446 0.950 . S
H420 C449 0.950 . S
H421 C450 0.950 . S
H422 C452 0.950 . S
H423 C453 0.950 . S
C424 H406 0.951 . S
C424 C425 1.366 . S
C424 C426 1.388 . S
C425 C424 1.366 . S
C425 C429 1.385 . S
C426 H407 0.951 . S
C426 C424 1.388 . S
C426 C427 1.366 . S
C427 C426 1.366 . S
C427 C428 1.414 . S
C427 C430 1.499 . S
C428 H408 0.950 . S
C428 C427 1.414 . S
C428 C429 1.374 . S
C429 H409 0.950 . S
C429 C425 1.385 . S
C429 C428 1.374 . S
C430 C427 1.499 . S
C430 C431 1.373 . S
C430 C432 1.389 . S
C431 H410 0.950 . S
C431 C430 1.373 . S
C431 C447 1.377 . S
C432 C430 1.389 . S
C432 C433 1.524 . S
C432 C446 1.377 . S
C433 C432 1.524 . S
C433 C434 1.397 . S
C433 C438 1.363 . S
C434 H411 0.950 . S
C434 C433 1.397 . S
C434 C435 1.334 . S
C435 H412 0.950 . S
C435 C434 1.334 . S
C435 C436 1.287 . S
C436 C435 1.287 . S
C436 C437 1.524 . S
C436 H455 0.913 . S
C437 H413 0.950 . S
C437 C436 1.524 . S
C437 C438 1.415 . S
C438 H414 0.950 . S
C438 C433 1.363 . S
C438 C437 1.415 . S
C439 H415 0.951 . S
C439 C440 1.366 . S
C439 C441 1.388 1_455 S
C440 C439 1.366 . S
C440 C444 1.385 1_455 S
C441 H416 0.951 . S
C441 C439 1.388 1_655 S
C441 C442 1.366 . S
C442 C441 1.366 . S
C442 C443 1.414 . S
C442 C445 1.499 . S
C443 H417 0.950 . S
C443 C442 1.414 . S
C443 C444 1.374 . S
C444 H418 0.950 . S
C444 C440 1.385 1_655 S
C444 C443 1.374 . S
C445 C442 1.499 . S
C445 C446 1.373 . S
C445 C447 1.389 . S
C446 H419 0.950 . S
C446 C432 1.377 . S
C446 C445 1.373 . S
C447 C431 1.377 . S
C447 C445 1.389 . S
C447 C448 1.524 . S
C448 C447 1.524 . S
C448 C449 1.397 . S
C448 C453 1.363 . S
C449 H420 0.950 . S
C449 C448 1.397 . S
C449 C450 1.334 . S
C450 H421 0.950 . S
C450 C449 1.334 . S
C450 C451 1.287 . S
C451 C450 1.287 . S
C451 C452 1.524 . S
C451 H454 0.999 . S
C452 H422 0.950 . S
C452 C451 1.524 . S
C452 C453 1.415 . S
C453 H423 0.950 . S
C453 C448 1.363 . S
C453 C452 1.415 . S
H454 C451 0.999 . S
H455 C436 0.913 . S
H456 C474 0.951 . S
H457 C476 0.951 . S
H458 C478 0.950 . S
H459 C479 0.950 . S
H460 C481 0.950 . S
H461 C484 0.950 . S
H462 C485 0.950 . S
H463 C487 0.950 . S
H464 C488 0.950 . S
H465 C489 0.951 . S
H466 C491 0.951 . S
H467 C493 0.950 . S
H468 C494 0.950 . S
H469 C496 0.950 . S
H470 C499 0.950 . S
H471 C500 0.950 . S
H472 C502 0.950 . S
H473 C503 0.950 . S
C474 H456 0.951 . S
C474 C475 1.366 . S
C474 C476 1.388 . S
C475 C474 1.366 . S
C475 C479 1.385 . S
C476 H457 0.951 . S
C476 C474 1.388 . S
C476 C477 1.366 . S
C477 C476 1.366 . S
C477 C478 1.414 . S
C477 C480 1.499 . S
C478 H458 0.950 . S
C478 C477 1.414 . S
C478 C479 1.374 . S
C479 H459 0.950 . S
C479 C475 1.385 . S
C479 C478 1.374 . S
C480 C477 1.499 . S
C480 C481 1.373 . S
C480 C482 1.389 . S
C481 H460 0.950 . S
C481 C480 1.373 . S
C481 C497 1.377 . S
C482 C480 1.389 . S
C482 C483 1.524 . S
C482 C496 1.377 . S
C483 C482 1.524 . S
C483 C484 1.397 . S
C483 C488 1.363 . S
C484 H461 0.950 . S
C484 C483 1.397 . S
C484 C485 1.334 . S
C485 H462 0.950 . S
C485 C484 1.334 . S
C485 C486 1.287 . S
C486 C485 1.287 . S
C486 C487 1.524 . S
C486 H505 0.913 . S
C487 H463 0.950 . S
C487 C486 1.524 . S
C487 C488 1.415 . S
C488 H464 0.950 . S
C488 C483 1.363 . S
C488 C487 1.415 . S
C489 H465 0.951 . S
C489 C490 1.366 . S
C489 C491 1.388 . S
C490 C489 1.366 . S
C490 C494 1.385 . S
C491 H466 0.951 . S
C491 C489 1.388 . S
C491 C492 1.366 . S
C492 C491 1.366 . S
C492 C493 1.414 . S
C492 C495 1.499 . S
C493 H467 0.950 . S
C493 C492 1.414 . S
C493 C494 1.374 . S
C494 H468 0.950 . S
C494 C490 1.385 . S
C494 C493 1.374 . S
C495 C492 1.499 . S
C495 C496 1.373 . S
C495 C497 1.389 . S
C496 H469 0.950 . S
C496 C482 1.377 . S
C496 C495 1.373 . S
C497 C481 1.377 . S
C497 C495 1.389 . S
C497 C498 1.524 . S
C498 C497 1.524 . S
C498 C499 1.397 . S
C498 C503 1.363 . S
C499 H470 0.950 . S
C499 C498 1.397 . S
C499 C500 1.334 . S
C500 H471 0.950 . S
C500 C499 1.334 . S
C500 C501 1.287 . S
C501 C500 1.287 . S
C501 C502 1.524 . S
C501 H504 0.999 . S
C502 H472 0.950 . S
C502 C501 1.524 . S
C502 C503 1.415 . S
C503 H473 0.950 . S
C503 C498 1.363 . S
C503 C502 1.415 . S
H504 C501 0.999 . S
H505 C486 0.913 . S
H506 C524 0.951 . S
H507 C526 0.951 . S
H508 C528 0.950 1_655 S
H509 C529 0.950 . S
H510 C531 0.950 . S
H511 C534 0.950 . S
H512 C535 0.950 . S
H513 C537 0.950 . S
H514 C538 0.950 . S
H515 C539 0.951 . S
H516 C541 0.951 . S
H517 C543 0.950 . S
H518 C544 0.950 . S
H519 C546 0.950 . S
H520 C549 0.950 . S
H521 C550 0.950 . S
H522 C552 0.950 . S
H523 C553 0.950 . S
C524 H506 0.951 . S
C524 C525 1.366 . S
C524 C526 1.388 . S
C525 C524 1.366 . S
C525 C529 1.385 . S
C526 H507 0.951 . S
C526 C524 1.388 . S
C526 C527 1.366 1_455 S
C527 C526 1.366 1_655 S
C527 C528 1.414 1_655 S
C527 C530 1.499 . S
C528 H508 0.950 1_455 S
C528 C527 1.414 1_455 S
C528 C529 1.374 . S
C529 H509 0.950 . S
C529 C525 1.385 . S
C529 C528 1.374 . S
C530 C527 1.499 . S
C530 C531 1.373 . S
C530 C532 1.389 . S
C531 H510 0.950 . S
C531 C530 1.373 . S
C531 C547 1.377 . S
C532 C530 1.389 . S
C532 C533 1.524 . S
C532 C546 1.377 . S
C533 C532 1.524 . S
C533 C534 1.397 . S
C533 C538 1.363 . S
C534 H511 0.950 . S
C534 C533 1.397 . S
C534 C535 1.334 1_655 S
C535 H512 0.950 . S
C535 C534 1.334 1_455 S
C535 C536 1.287 . S
C536 C535 1.287 . S
C536 C537 1.524 1_455 S
C536 H555 0.913 . S
C537 H513 0.950 . S
C537 C536 1.524 1_655 S
C537 C538 1.415 . S
C538 H514 0.950 . S
C538 C533 1.363 . S
C538 C537 1.415 . S
C539 H515 0.951 . S
C539 C540 1.366 . S
C539 C541 1.388 . S
C540 C539 1.366 . S
C540 C544 1.385 . S
C541 H516 0.951 . S
C541 C539 1.388 . S
C541 C542 1.366 . S
C542 C541 1.366 . S
C542 C543 1.414 . S
C542 C545 1.499 . S
C543 H517 0.950 . S
C543 C542 1.414 . S
C543 C544 1.374 . S
C544 H518 0.950 . S
C544 C540 1.385 . S
C544 C543 1.374 . S
C545 C542 1.499 . S
C545 C546 1.373 . S
C545 C547 1.389 . S
C546 H519 0.950 . S
C546 C532 1.377 . S
C546 C545 1.373 . S
C547 C531 1.377 . S
C547 C545 1.389 . S
C547 C548 1.524 . S
C548 C547 1.524 . S
C548 C549 1.397 . S
C548 C553 1.363 . S
C549 H520 0.950 . S
C549 C548 1.397 . S
C549 C550 1.334 . S
C550 H521 0.950 . S
C550 C549 1.334 . S
C550 C551 1.287 . S
C551 C550 1.287 . S
C551 C552 1.524 . S
C551 H554 0.999 . S
C552 H522 0.950 . S
C552 C551 1.524 . S
C552 C553 1.415 . S
C553 H523 0.950 . S
C553 C548 1.363 . S
C553 C552 1.415 . S
H554 C551 0.999 . S
H555 C536 0.913 . S
H556 C574 0.951 . S
H557 C576 0.951 . S
H558 C578 0.950 . S
H559 C579 0.950 . S
H560 C581 0.950 . S
H561 C584 0.950 . S
H562 C585 0.950 . S
H563 C587 0.950 . S
H564 C588 0.950 . S
H565 C589 0.951 . S
H566 C591 0.951 . S
H567 C593 0.950 . S
H568 C594 0.950 . S
H569 C596 0.950 . S
H570 C599 0.950 . S
H571 C600 0.950 . S
H572 C602 0.950 . S
H573 C603 0.950 . S
C574 H556 0.951 . S
C574 C575 1.366 . S
C574 C576 1.388 . S
C575 C574 1.366 . S
C575 C579 1.385 . S
C576 H557 0.951 . S
C576 C574 1.388 . S
C576 C577 1.366 . S
C577 C576 1.366 . S
C577 C578 1.414 . S
C577 C580 1.499 . S
C578 H558 0.950 . S
C578 C577 1.414 . S
C578 C579 1.374 . S
C579 H559 0.950 . S
C579 C575 1.385 . S
C579 C578 1.374 . S
C580 C577 1.499 . S
C580 C581 1.373 . S
C580 C582 1.389 . S
C581 H560 0.950 . S
C581 C580 1.373 . S
C581 C597 1.377 . S
C582 C580 1.389 . S
C582 C583 1.524 . S
C582 C596 1.377 . S
C583 C582 1.524 . S
C583 C584 1.397 . S
C583 C588 1.363 . S
C584 H561 0.950 . S
C584 C583 1.397 . S
C584 C585 1.334 . S
C585 H562 0.950 . S
C585 C584 1.334 . S
C585 C586 1.287 . S
C586 C585 1.287 . S
C586 C587 1.524 . S
C586 H605 0.913 . S
C587 H563 0.950 . S
C587 C586 1.524 . S
C587 C588 1.415 . S
C588 H564 0.950 . S
C588 C583 1.363 . S
C588 C587 1.415 . S
C589 H565 0.951 . S
C589 C590 1.366 . S
C589 C591 1.388 . S
C590 C589 1.366 . S
C590 C594 1.385 . S
C591 H566 0.951 . S
C591 C589 1.388 . S
C591 C592 1.366 . S
C592 C591 1.366 . S
C592 C593 1.414 . S
C592 C595 1.499 . S
C593 H567 0.950 . S
C593 C592 1.414 . S
C593 C594 1.374 . S
C594 H568 0.950 . S
C594 C590 1.385 . S
C594 C593 1.374 . S
C595 C592 1.499 . S
C595 C596 1.373 . S
C595 C597 1.389 . S
C596 H569 0.950 . S
C596 C582 1.377 . S
C596 C595 1.373 . S
C597 C581 1.377 . S
C597 C595 1.389 . S
C597 C598 1.524 . S
C598 C597 1.524 . S
C598 C599 1.397 . S
C598 C603 1.363 . S
C599 H570 0.950 . S
C599 C598 1.397 . S
C599 C600 1.334 . S
C600 H571 0.950 . S
C600 C599 1.334 . S
C600 C601 1.287 . S
C601 C600 1.287 . S
C601 C602 1.524 . S
C601 H604 0.999 . S
C602 H572 0.950 . S
C602 C601 1.524 . S
C602 C603 1.415 . S
C603 H573 0.950 . S
C603 C598 1.363 . S
C603 C602 1.415 . S
H604 C601 0.999 . S
H605 C586 0.913 . S
H606 C624 0.951 . S
H607 C626 0.951 . S
H608 C628 0.950 . S
H609 C629 0.950 . S
H610 C631 0.950 . S
H611 C634 0.950 . S
H612 C635 0.950 . S
H613 C637 0.950 . S
H614 C638 0.950 . S
H615 C639 0.951 . S
H616 C641 0.951 . S
H617 C643 0.950 . S
H618 C644 0.950 . S
H619 C646 0.950 . S
H620 C649 0.950 . S
H621 C650 0.950 . S
H622 C652 0.950 . S
H623 C653 0.950 . S
C624 H606 0.951 . S
C624 C625 1.366 . S
C624 C626 1.388 . S
C625 C624 1.366 . S
C625 C629 1.385 . S
C626 H607 0.951 . S
C626 C624 1.388 . S
C626 C627 1.366 . S
C627 C626 1.366 . S
C627 C628 1.414 . S
C627 C630 1.499 . S
C628 H608 0.950 . S
C628 C627 1.414 . S
C628 C629 1.374 . S
C629 H609 0.950 . S
C629 C625 1.385 . S
C629 C628 1.374 . S
C630 C627 1.499 . S
C630 C631 1.373 . S
C630 C632 1.389 . S
C631 H610 0.950 . S
C631 C630 1.373 . S
C631 C647 1.377 . S
C632 C630 1.389 . S
C632 C633 1.524 . S
C632 C646 1.377 . S
C633 C632 1.524 . S
C633 C634 1.397 . S
C633 C638 1.363 . S
C634 H611 0.950 . S
C634 C633 1.397 . S
C634 C635 1.334 . S
C635 H612 0.950 . S
C635 C634 1.334 . S
C635 C636 1.287 . S
C636 C635 1.287 . S
C636 C637 1.524 . S
C636 H655 0.913 . S
C637 H613 0.950 . S
C637 C636 1.524 . S
C637 C638 1.415 . S
C638 H614 0.950 . S
C638 C633 1.363 . S
C638 C637 1.415 . S
C639 H615 0.951 . S
C639 C640 1.366 . S
C639 C641 1.388 . S
C640 C639 1.366 . S
C640 C644 1.385 . S
C641 H616 0.951 . S
C641 C639 1.388 . S
C641 C642 1.366 . S
C642 C641 1.366 . S
C642 C643 1.414 . S
C642 C645 1.499 . S
C643 H617 0.950 . S
C643 C642 1.414 . S
C643 C644 1.374 . S
C644 H618 0.950 . S
C644 C640 1.385 . S
C644 C643 1.374 . S
C645 C642 1.499 . S
C645 C646 1.373 . S
C645 C647 1.389 . S
C646 H619 0.950 . S
C646 C632 1.377 . S
C646 C645 1.373 . S
C647 C631 1.377 . S
C647 C645 1.389 . S
C647 C648 1.524 . S
C648 C647 1.524 . S
C648 C649 1.397 . S
C648 C653 1.363 . S
C649 H620 0.950 . S
C649 C648 1.397 . S
C649 C650 1.334 . S
C650 H621 0.950 . S
C650 C649 1.334 . S
C650 C651 1.287 . S
C651 C650 1.287 . S
C651 C652 1.524 . S
C651 H654 0.999 . S
C652 H622 0.950 . S
C652 C651 1.524 . S
C652 C653 1.415 . S
C653 H623 0.950 . S
C653 C648 1.363 . S
C653 C652 1.415 . S
H654 C651 0.999 . S
H655 C636 0.913 . S
H656 C674 0.951 . S
H657 C676 0.951 . S
H658 C678 0.950 . S
H659 C679 0.950 . S
H660 C681 0.950 . S
H661 C684 0.950 . S
H662 C685 0.950 . S
H663 C687 0.950 . S
H664 C688 0.950 . S
H665 C689 0.951 . S
H666 C691 0.951 . S
H667 C693 0.950 . S
H668 C694 0.950 . S
H669 C696 0.950 . S
H670 C699 0.950 . S
H671 C700 0.950 . S
H672 C702 0.950 . S
H673 C703 0.950 . S
C674 H656 0.951 . S
C674 C675 1.366 . S
C674 C676 1.388 . S
C675 C674 1.366 . S
C675 C679 1.385 . S
C676 H657 0.951 . S
C676 C674 1.388 . S
C676 C677 1.366 . S
C677 C676 1.366 . S
C677 C678 1.414 . S
C677 C680 1.499 . S
C678 H658 0.950 . S
C678 C677 1.414 . S
C678 C679 1.374 . S
C679 H659 0.950 . S
C679 C675 1.385 . S
C679 C678 1.374 . S
C680 C677 1.499 . S
C680 C681 1.373 . S
C680 C682 1.389 . S
C681 H660 0.950 . S
C681 C680 1.373 . S
C681 C697 1.377 . S
C682 C680 1.389 . S
C682 C683 1.524 . S
C682 C696 1.377 . S
C683 C682 1.524 . S
C683 C684 1.397 . S
C683 C688 1.363 . S
C684 H661 0.950 . S
C684 C683 1.397 . S
C684 C685 1.334 . S
C685 H662 0.950 . S
C685 C684 1.334 . S
C685 C686 1.287 . S
C686 C685 1.287 . S
C686 C687 1.524 . S
C686 H705 0.913 . S
C687 H663 0.950 . S
C687 C686 1.524 . S
C687 C688 1.415 . S
C688 H664 0.950 . S
C688 C683 1.363 . S
C688 C687 1.415 . S
C689 H665 0.951 . S
C689 C690 1.366 . S
C689 C691 1.388 . S
C690 C689 1.366 . S
C690 C694 1.385 . S
C691 H666 0.951 . S
C691 C689 1.388 . S
C691 C692 1.366 . S
C692 C691 1.366 . S
C692 C693 1.414 . S
C692 C695 1.499 . S
C693 H667 0.950 . S
C693 C692 1.414 . S
C693 C694 1.374 . S
C694 H668 0.950 . S
C694 C690 1.385 . S
C694 C693 1.374 . S
C695 C692 1.499 . S
C695 C696 1.373 . S
C695 C697 1.389 . S
C696 H669 0.950 . S
C696 C682 1.377 . S
C696 C695 1.373 . S
C697 C681 1.377 . S
C697 C695 1.389 . S
C697 C698 1.524 . S
C698 C697 1.524 . S
C698 C699 1.397 . S
C698 C703 1.363 . S
C699 H670 0.950 . S
C699 C698 1.397 . S
C699 C700 1.334 . S
C700 H671 0.950 . S
C700 C699 1.334 . S
C700 C701 1.287 . S
C701 C700 1.287 . S
C701 C702 1.524 . S
C701 H704 0.999 . S
C702 H672 0.950 . S
C702 C701 1.524 . S
C702 C703 1.415 . S
C703 H673 0.950 . S
C703 C698 1.363 . S
C703 C702 1.415 . S
H704 C701 0.999 . S
H705 C686 0.913 . S
H706 C724 0.951 . S
H707 C726 0.951 . S
H708 C728 0.950 . S
H709 C729 0.950 . S
H710 C731 0.950 . S
H711 C734 0.950 . S
H712 C735 0.950 . S
H713 C737 0.950 . S
H714 C738 0.950 . S
H715 C739 0.951 . S
H716 C741 0.951 . S
H717 C743 0.950 . S
H718 C744 0.950 . S
H719 C746 0.950 . S
H720 C749 0.950 . S
H721 C750 0.950 . S
H722 C752 0.950 . S
H723 C753 0.950 . S
C724 H706 0.951 . S
C724 C725 1.366 . S
C724 C726 1.388 . S
C725 C724 1.366 . S
C725 C729 1.385 . S
C726 H707 0.951 . S
C726 C724 1.388 . S
C726 C727 1.366 . S
C727 C726 1.366 . S
C727 C728 1.414 . S
C727 C730 1.499 . S
C728 H708 0.950 . S
C728 C727 1.414 . S
C728 C729 1.374 . S
C729 H709 0.950 . S
C729 C725 1.385 . S
C729 C728 1.374 . S
C730 C727 1.499 . S
C730 C731 1.373 . S
C730 C732 1.389 . S
C731 H710 0.950 . S
C731 C730 1.373 . S
C731 C747 1.377 . S
C732 C730 1.389 . S
C732 C733 1.524 . S
C732 C746 1.377 . S
C733 C732 1.524 . S
C733 C734 1.397 . S
C733 C738 1.363 . S
C734 H711 0.950 . S
C734 C733 1.397 . S
C734 C735 1.334 . S
C735 H712 0.950 . S
C735 C734 1.334 . S
C735 C736 1.287 . S
C736 C735 1.287 . S
C736 C737 1.524 . S
C736 H755 0.913 . S
C737 H713 0.950 . S
C737 C736 1.524 . S
C737 C738 1.415 . S
C738 H714 0.950 . S
C738 C733 1.363 . S
C738 C737 1.415 . S
C739 H715 0.951 . S
C739 C740 1.366 . S
C739 C741 1.388 . S
C740 C739 1.366 . S
C740 C744 1.385 . S
C741 H716 0.951 . S
C741 C739 1.388 . S
C741 C742 1.366 . S
C742 C741 1.366 . S
C742 C743 1.414 . S
C742 C745 1.499 . S
C743 H717 0.950 . S
C743 C742 1.414 . S
C743 C744 1.374 . S
C744 H718 0.950 . S
C744 C740 1.385 . S
C744 C743 1.374 . S
C745 C742 1.499 . S
C745 C746 1.373 . S
C745 C747 1.389 . S
C746 H719 0.950 . S
C746 C732 1.377 . S
C746 C745 1.373 . S
C747 C731 1.377 . S
C747 C745 1.389 . S
C747 C748 1.524 . S
C748 C747 1.524 . S
C748 C749 1.397 . S
C748 C753 1.363 . S
C749 H720 0.950 . S
C749 C748 1.397 . S
C749 C750 1.334 . S
C750 H721 0.950 . S
C750 C749 1.334 . S
C750 C751 1.287 . S
C751 C750 1.287 . S
C751 C752 1.524 . S
C751 H754 0.999 . S
C752 H722 0.950 . S
C752 C751 1.524 . S
C752 C753 1.415 . S
C753 H723 0.950 . S
C753 C748 1.363 . S
C753 C752 1.415 . S
H754 C751 0.999 . S
H755 C736 0.913 . S
H756 C774 0.951 . S
H757 C776 0.951 . S
H758 C778 0.950 . S
H759 C779 0.950 . S
H760 C781 0.950 . S
H761 C784 0.950 . S
H762 C785 0.950 . S
H763 C787 0.950 . S
H764 C788 0.950 . S
H765 C789 0.951 . S
H766 C791 0.951 . S
H767 C793 0.950 . S
H768 C794 0.950 . S
H769 C796 0.950 1_545 S
H770 C799 0.950 1_545 S
H771 C800 0.950 1_545 S
H772 C802 0.950 . S
H773 C803 0.950 . S
C774 H756 0.951 . S
C774 C775 1.366 . S
C774 C776 1.388 . S
C775 C774 1.366 . S
C775 C779 1.385 . S
C776 H757 0.951 . S
C776 C774 1.388 . S
C776 C777 1.366 . S
C777 C776 1.366 . S
C777 C778 1.414 . S
C777 C780 1.499 . S
C778 H758 0.950 . S
C778 C777 1.414 . S
C778 C779 1.374 . S
C779 H759 0.950 . S
C779 C775 1.385 . S
C779 C778 1.374 . S
C780 C777 1.499 . S
C780 C781 1.373 . S
C780 C782 1.389 . S
C781 H760 0.950 . S
C781 C780 1.373 . S
C781 C797 1.377 . S
C782 C780 1.389 . S
C782 C783 1.524 . S
C782 C796 1.377 . S
C783 C782 1.524 . S
C783 C784 1.397 . S
C783 C788 1.363 . S
C784 H761 0.950 . S
C784 C783 1.397 . S
C784 C785 1.334 . S
C785 H762 0.950 . S
C785 C784 1.334 . S
C785 C786 1.287 . S
C786 C785 1.287 . S
C786 C787 1.524 . S
C786 H805 0.913 . S
C787 H763 0.950 . S
C787 C786 1.524 . S
C787 C788 1.415 . S
C788 H764 0.950 . S
C788 C783 1.363 . S
C788 C787 1.415 . S
C789 H765 0.951 . S
C789 C790 1.366 . S
C789 C791 1.388 . S
C790 C789 1.366 . S
C790 C794 1.385 . S
C791 H766 0.951 . S
C791 C789 1.388 . S
C791 C792 1.366 . S
C792 C791 1.366 . S
C792 C793 1.414 . S
C792 C795 1.499 . S
C793 H767 0.950 . S
C793 C792 1.414 . S
C793 C794 1.374 . S
C794 H768 0.950 . S
C794 C790 1.385 . S
C794 C793 1.374 . S
C795 C792 1.499 . S
C795 C796 1.373 1_545 S
C795 C797 1.389 1_545 S
C796 H769 0.950 1_565 S
C796 C782 1.377 . S
C796 C795 1.373 1_565 S
C797 C781 1.377 . S
C797 C795 1.389 1_565 S
C797 C798 1.524 . S
C798 C797 1.524 . S
C798 C799 1.397 . S
C798 C803 1.363 . S
C799 H770 0.950 1_565 S
C799 C798 1.397 . S
C799 C800 1.334 . S
C800 H771 0.950 1_565 S
C800 C799 1.334 . S
C800 C801 1.287 . S
C801 C800 1.287 . S
C801 C802 1.524 . S
C801 H804 0.999 . S
C802 H772 0.950 . S
C802 C801 1.524 . S
C802 C803 1.415 . S
C803 H773 0.950 . S
C803 C798 1.363 . S
C803 C802 1.415 . S
H804 C801 0.999 . S
H805 C786 0.913 . S
H806 C824 0.951 . S
H807 C826 0.951 . S
H808 C828 0.950 . S
H809 C829 0.950 . S
H810 C831 0.950 . S
H811 C834 0.950 . S
H812 C835 0.950 . S
H813 C837 0.950 . S
H814 C838 0.950 . S
H815 C839 0.951 . S
H816 C841 0.951 . S
H817 C843 0.950 . S
H818 C844 0.950 . S
H819 C846 0.950 . S
H820 C849 0.950 . S
H821 C850 0.950 . S
H822 C852 0.950 . S
H823 C853 0.950 . S
C824 H806 0.951 . S
C824 C825 1.366 . S
C824 C826 1.388 . S
C825 C824 1.366 . S
C825 C829 1.385 . S
C826 H807 0.951 . S
C826 C824 1.388 . S
C826 C827 1.366 . S
C827 C826 1.366 . S
C827 C828 1.414 . S
C827 C830 1.499 . S
C828 H808 0.950 . S
C828 C827 1.414 . S
C828 C829 1.374 . S
C829 H809 0.950 . S
C829 C825 1.385 . S
C829 C828 1.374 . S
C830 C827 1.499 . S
C830 C831 1.373 . S
C830 C832 1.389 . S
C831 H810 0.950 . S
C831 C830 1.373 . S
C831 C847 1.377 . S
C832 C830 1.389 . S
C832 C833 1.524 . S
C832 C846 1.377 1_545 S
C833 C832 1.524 . S
C833 C834 1.397 . S
C833 C838 1.363 . S
C834 H811 0.950 . S
C834 C833 1.397 . S
C834 C835 1.334 . S
C835 H812 0.950 . S
C835 C834 1.334 . S
C835 C836 1.287 . S
C836 C835 1.287 . S
C836 C837 1.524 . S
C836 H855 0.913 . S
C837 H813 0.950 . S
C837 C836 1.524 . S
C837 C838 1.415 . S
C838 H814 0.950 . S
C838 C833 1.363 . S
C838 C837 1.415 . S
C839 H815 0.951 . S
C839 C840 1.366 . S
C839 C841 1.388 . S
C840 C839 1.366 . S
C840 C844 1.385 . S
C841 H816 0.951 . S
C841 C839 1.388 . S
C841 C842 1.366 . S
C842 C841 1.366 . S
C842 C843 1.414 . S
C842 C845 1.499 . S
C843 H817 0.950 . S
C843 C842 1.414 . S
C843 C844 1.374 . S
C844 H818 0.950 . S
C844 C840 1.385 . S
C844 C843 1.374 . S
C845 C842 1.499 . S
C845 C846 1.373 . S
C845 C847 1.389 1_565 S
C846 H819 0.950 . S
C846 C832 1.377 1_565 S
C846 C845 1.373 . S
C847 C831 1.377 . S
C847 C845 1.389 1_545 S
C847 C848 1.524 . S
C848 C847 1.524 . S
C848 C849 1.397 1_545 S
C848 C853 1.363 . S
C849 H820 0.950 . S
C849 C848 1.397 1_565 S
C849 C850 1.334 . S
C850 H821 0.950 . S
C850 C849 1.334 . S
C850 C851 1.287 . S
C851 C850 1.287 . S
C851 C852 1.524 1_565 S
C851 H854 0.999 . S
C852 H822 0.950 . S
C852 C851 1.524 1_545 S
C852 C853 1.415 . S
C853 H823 0.950 . S
C853 C848 1.363 . S
C853 C852 1.415 . S
H854 C851 0.999 . S
H855 C836 0.913 . S
H856 C874 0.951 . S
H857 C876 0.951 . S
H858 C878 0.950 . S
H859 C879 0.950 . S
H860 C881 0.950 . S
H861 C884 0.950 . S
H862 C885 0.950 . S
H863 C887 0.950 . S
H864 C888 0.950 . S
H865 C889 0.951 . S
H866 C891 0.951 . S
H867 C893 0.950 . S
H868 C894 0.950 . S
H869 C896 0.950 1_565 S
H870 C899 0.950 . S
H871 C900 0.950 . S
H872 C902 0.950 . S
H873 C903 0.950 . S
C874 H856 0.951 . S
C874 C875 1.366 . S
C874 C876 1.388 . S
C875 C874 1.366 . S
C875 C879 1.385 . S
C876 H857 0.951 . S
C876 C874 1.388 . S
C876 C877 1.366 . S
C877 C876 1.366 . S
C877 C878 1.414 . S
C877 C880 1.499 . S
C878 H858 0.950 . S
C878 C877 1.414 . S
C878 C879 1.374 . S
C879 H859 0.950 . S
C879 C875 1.385 . S
C879 C878 1.374 . S
C880 C877 1.499 . S
C880 C881 1.373 . S
C880 C882 1.389 . S
C881 H860 0.950 . S
C881 C880 1.373 . S
C881 C897 1.377 1_545 S
C882 C880 1.389 . S
C882 C883 1.524 . S
C882 C896 1.377 . S
C883 C882 1.524 . S
C883 C884 1.397 . S
C883 C888 1.363 . S
C884 H861 0.950 . S
C884 C883 1.397 . S
C884 C885 1.334 . S
C885 H862 0.950 . S
C885 C884 1.334 . S
C885 C886 1.287 . S
C886 C885 1.287 . S
C886 C887 1.524 . S
C886 H905 0.913 . S
C887 H863 0.950 . S
C887 C886 1.524 . S
C887 C888 1.415 . S
C888 H864 0.950 . S
C888 C883 1.363 . S
C888 C887 1.415 . S
C889 H865 0.951 . S
C889 C890 1.366 . S
C889 C891 1.388 . S
C890 C889 1.366 . S
C890 C894 1.385 . S
C891 H866 0.951 . S
C891 C889 1.388 . S
C891 C892 1.366 . S
C892 C891 1.366 . S
C892 C893 1.414 . S
C892 C895 1.499 . S
C893 H867 0.950 . S
C893 C892 1.414 . S
C893 C894 1.374 . S
C894 H868 0.950 . S
C894 C890 1.385 . S
C894 C893 1.374 . S
C895 C892 1.499 . S
C895 C896 1.373 1_565 S
C895 C897 1.389 . S
C896 H869 0.950 1_545 S
C896 C882 1.377 . S
C896 C895 1.373 1_545 S
C897 C881 1.377 1_565 S
C897 C895 1.389 . S
C897 C898 1.524 . S
C898 C897 1.524 . S
C898 C899 1.397 . S
C898 C903 1.363 . S
C899 H870 0.950 . S
C899 C898 1.397 . S
C899 C900 1.334 . S
C900 H871 0.950 . S
C900 C899 1.334 . S
C900 C901 1.287 . S
C901 C900 1.287 . S
C901 C902 1.524 . S
C901 H904 0.999 . S
C902 H872 0.950 . S
C902 C901 1.524 . S
C902 C903 1.415 . S
C903 H873 0.950 . S
C903 C898 1.363 . S
C903 C902 1.415 . S
H904 C901 0.999 . S
H905 C886 0.913 . S
H906 C924 0.951 . S
H907 C926 0.951 . S
H908 C928 0.950 . S
H909 C929 0.950 1_655 S
H910 C931 0.950 . S
H911 C934 0.950 . S
H912 C935 0.950 . S
H913 C937 0.950 . S
H914 C938 0.950 . S
H915 C939 0.951 . S
H916 C941 0.951 . S
H917 C943 0.950 . S
H918 C944 0.950 . S
H919 C946 0.950 1_545 S
H920 C949 0.950 1_545 S
H921 C950 0.950 . S
H922 C952 0.950 1_655 S
H923 C953 0.950 1_655 S
C924 H906 0.951 . S
C924 C925 1.366 . S
C924 C926 1.388 . S
C925 C924 1.366 . S
C925 C929 1.385 . S
C926 H907 0.951 . S
C926 C924 1.388 . S
C926 C927 1.366 . S
C927 C926 1.366 . S
C927 C928 1.414 . S
C927 C930 1.499 . S
C928 H908 0.950 . S
C928 C927 1.414 . S
C928 C929 1.374 . S
C929 H909 0.950 1_455 S
C929 C925 1.385 . S
C929 C928 1.374 . S
C930 C927 1.499 . S
C930 C931 1.373 . S
C930 C932 1.389 . S
C931 H910 0.950 . S
C931 C930 1.373 . S
C931 C947 1.377 . S
C932 C930 1.389 . S
C932 C933 1.524 . S
C932 C946 1.377 . S
C933 C932 1.524 . S
C933 C934 1.397 . S
C933 C938 1.363 . S
C934 H911 0.950 . S
C934 C933 1.397 . S
C934 C935 1.334 . S
C935 H912 0.950 . S
C935 C934 1.334 . S
C935 C936 1.287 . S
C936 C935 1.287 . S
C936 C937 1.524 . S
C936 H955 0.913 . S
C937 H913 0.950 . S
C937 C936 1.524 . S
C937 C938 1.415 . S
C938 H914 0.950 . S
C938 C933 1.363 . S
C938 C937 1.415 . S
C939 H915 0.951 . S
C939 C940 1.366 . S
C939 C941 1.388 . S
C940 C939 1.366 . S
C940 C944 1.385 . S
C941 H916 0.951 . S
C941 C939 1.388 . S
C941 C942 1.366 . S
C942 C941 1.366 . S
C942 C943 1.414 . S
C942 C945 1.499 . S
C943 H917 0.950 . S
C943 C942 1.414 . S
C943 C944 1.374 . S
C944 H918 0.950 . S
C944 C940 1.385 . S
C944 C943 1.374 . S
C945 C942 1.499 . S
C945 C946 1.373 1_545 S
C945 C947 1.389 1_545 S
C946 H919 0.950 1_565 S
C946 C932 1.377 . S
C946 C945 1.373 1_565 S
C947 C931 1.377 . S
C947 C945 1.389 1_565 S
C947 C948 1.524 . S
C948 C947 1.524 . S
C948 C949 1.397 . S
C948 C953 1.363 . S
C949 H920 0.950 1_565 S
C949 C948 1.397 . S
C949 C950 1.334 1_565 S
C950 H921 0.950 . S
C950 C949 1.334 1_545 S
C950 C951 1.286 . S
C951 C950 1.286 . S
C951 C952 1.525 1_545 S
C951 H954 0.999 . S
C952 H922 0.950 1_455 S
C952 C951 1.525 1_565 S
C952 C953 1.415 . S
C953 H923 0.950 1_455 S
C953 C948 1.363 . S
C953 C952 1.415 . S
H954 C951 0.999 . S
H955 C936 0.913 . S
H956 C974 0.951 . S
H957 C976 0.951 . S
H958 C978 0.950 . S
H959 C979 0.950 . S
H960 C981 0.950 . S
H961 C984 0.950 . S
H962 C985 0.950 . S
H963 C987 0.952 . S
H964 C988 0.950 . S
H965 C989 0.951 . S
H966 C991 0.951 . S
H967 C993 0.950 . S
H968 C994 0.950 . S
H969 C996 0.950 . S
H970 C999 0.950 . S
H971 C1000 0.950 . S
H972 C1002 0.950 . S
H973 C1003 0.950 . S
C974 H956 0.951 . S
C974 C975 1.366 . S
C974 C976 1.388 . S
C975 C974 1.366 . S
C975 C979 1.385 . S
C976 H957 0.951 . S
C976 C974 1.388 . S
C976 C977 1.366 . S
C977 C976 1.366 . S
C977 C978 1.414 . S
C977 C980 1.499 1_554 S
C978 H958 0.950 . S
C978 C977 1.414 . S
C978 C979 1.374 . S
C979 H959 0.950 . S
C979 C975 1.385 . S
C979 C978 1.374 . S
C980 C977 1.499 1_556 S
C980 C981 1.373 . S
C980 C982 1.389 . S
C981 H960 0.950 . S
C981 C980 1.373 . S
C981 C997 1.377 . S
C982 C980 1.389 . S
C982 C983 1.524 . S
C982 C996 1.377 . S
C983 C982 1.524 . S
C983 C984 1.397 1_556 S
C983 C988 1.363 . S
C984 H961 0.950 . S
C984 C983 1.397 1_554 S
C984 C985 1.334 . S
C985 H962 0.950 . S
C985 C984 1.334 . S
C985 C986 1.287 . S
C986 C985 1.287 . S
C986 C987 1.507 1_554 S
C986 H1005 0.913 . S
C987 H963 0.952 . S
C987 C986 1.507 1_556 S
C987 C988 1.430 . S
C988 H964 0.950 . S
C988 C983 1.363 . S
C988 C987 1.430 . S
C989 H965 0.951 . S
C989 C990 1.366 . S
C989 C991 1.388 . S
C990 C989 1.366 . S
C990 C994 1.385 . S
C991 H966 0.951 . S
C991 C989 1.388 . S
C991 C992 1.366 . S
C992 C991 1.366 . S
C992 C993 1.414 . S
C992 C995 1.499 . S
C993 H967 0.950 . S
C993 C992 1.414 . S
C993 C994 1.374 . S
C994 H968 0.950 . S
C994 C990 1.385 . S
C994 C993 1.374 . S
C995 C992 1.499 . S
C995 C996 1.373 . S
C995 C997 1.389 . S
C996 H969 0.950 . S
C996 C982 1.377 . S
C996 C995 1.373 . S
C997 C981 1.377 . S
C997 C995 1.389 . S
C997 C998 1.524 . S
C998 C997 1.524 . S
C998 C999 1.397 . S
C998 C1003 1.363 . S
C999 H970 0.950 . S
C999 C998 1.397 . S
C999 C1000 1.334 . S
C1000 H971 0.950 . S
C1000 C999 1.334 . S
C1000 C1001 1.287 . S
C1001 C1000 1.287 . S
C1001 C1002 1.524 . S
C1001 H1004 0.999 . S
C1002 H972 0.950 . S
C1002 C1001 1.524 . S
C1002 C1003 1.415 . S
C1003 H973 0.950 . S
C1003 C998 1.363 . S
C1003 C1002 1.415 . S
H1004 C1001 0.999 . S
H1005 C986 0.913 . S
H1006 C1024 0.951 . S
H1007 C1026 0.951 . S
H1008 C1028 0.950 . S
H1009 C1029 0.950 . S
H1010 C1031 0.950 . S
H1011 C1034 0.950 . S
H1012 C1035 0.950 . S
H1013 C1037 0.950 . S
H1014 C1038 0.950 . S
H1015 C1039 0.951 . S
H1016 C1041 0.951 . S
H1017 C1043 0.950 . S
H1018 C1044 0.950 . S
H1019 C1046 0.950 . S
H1020 C1049 0.950 . S
H1021 C1050 0.950 . S
H1022 C1052 0.950 . S
H1023 C1053 0.950 . S
C1024 H1006 0.951 . S
C1024 C1025 1.366 . S
C1024 C1026 1.388 . S
C1025 C1024 1.366 . S
C1025 C1029 1.385 . S
C1026 H1007 0.951 . S
C1026 C1024 1.388 . S
C1026 C1027 1.366 . S
C1027 C1026 1.366 . S
C1027 C1028 1.414 . S
C1027 C1030 1.499 . S
C1028 H1008 0.950 . S
C1028 C1027 1.414 . S
C1028 C1029 1.374 . S
C1029 H1009 0.950 . S
C1029 C1025 1.385 . S
C1029 C1028 1.374 . S
C1030 C1027 1.499 . S
C1030 C1031 1.373 . S
C1030 C1032 1.389 . S
C1031 H1010 0.950 . S
C1031 C1030 1.373 . S
C1031 C1047 1.377 . S
C1032 C1030 1.389 . S
C1032 C1033 1.524 . S
C1032 C1046 1.377 . S
C1033 C1032 1.524 . S
C1033 C1034 1.397 . S
C1033 C1038 1.363 . S
C1034 H1011 0.950 . S
C1034 C1033 1.397 . S
C1034 C1035 1.334 . S
C1035 H1012 0.950 . S
C1035 C1034 1.334 . S
C1035 C1036 1.287 . S
C1036 C1035 1.287 . S
C1036 C1037 1.524 . S
C1036 H1055 0.913 . S
C1037 H1013 0.950 . S
C1037 C1036 1.524 . S
C1037 C1038 1.415 . S
C1038 H1014 0.950 . S
C1038 C1033 1.363 . S
C1038 C1037 1.415 . S
C1039 H1015 0.951 . S
C1039 C1040 1.366 . S
C1039 C1041 1.388 . S
C1040 C1039 1.366 . S
C1040 C1044 1.385 . S
C1041 H1016 0.951 . S
C1041 C1039 1.388 . S
C1041 C1042 1.366 . S
C1042 C1041 1.366 . S
C1042 C1043 1.414 . S
C1042 C1045 1.499 . S
C1043 H1017 0.950 . S
C1043 C1042 1.414 . S
C1043 C1044 1.374 . S
C1044 H1018 0.950 . S
C1044 C1040 1.385 . S
C1044 C1043 1.374 . S
C1045 C1042 1.499 . S
C1045 C1046 1.373 . S
C1045 C1047 1.389 . S
C1046 H1019 0.950 . S
C1046 C1032 1.377 . S
C1046 C1045 1.373 . S
C1047 C1031 1.377 . S
C1047 C1045 1.389 . S
C1047 C1048 1.524 . S
C1048 C1047 1.524 . S
C1048 C1049 1.397 . S
C1048 C1053 1.363 . S
C1049 H1020 0.950 . S
C1049 C1048 1.397 . S
C1049 C1050 1.334 . S
C1050 H1021 0.950 . S
C1050 C1049 1.334 . S
C1050 C1051 1.287 . S
C1051 C1050 1.287 . S
C1051 C1052 1.524 . S
C1051 H1054 0.999 . S
C1052 H1022 0.950 . S
C1052 C1051 1.524 . S
C1052 C1053 1.415 . S
C1053 H1023 0.950 . S
C1053 C1048 1.363 . S
C1053 C1052 1.415 . S
H1054 C1051 0.999 . S
H1055 C1036 0.913 . S
H1056 C1074 0.951 . S
H1057 C1076 0.951 . S
H1058 C1078 0.950 . S
H1059 C1079 0.950 . S
H1060 C1081 0.950 . S
H1061 C1084 0.950 . S
H1062 C1085 0.950 . S
H1063 C1087 0.950 . S
H1064 C1088 0.950 . S
H1065 C1089 0.951 . S
H1066 C1091 0.951 . S
H1067 C1093 0.950 . S
H1068 C1094 0.950 . S
H1069 C1096 0.950 . S
H1070 C1099 0.950 . S
H1071 C1100 0.950 . S
H1072 C1102 0.950 . S
H1073 C1103 0.950 . S
C1074 H1056 0.951 . S
C1074 C1075 1.366 . S
C1074 C1076 1.388 . S
C1075 C1074 1.366 . S
C1075 C1079 1.385 . S
C1076 H1057 0.951 . S
C1076 C1074 1.388 . S
C1076 C1077 1.366 . S
C1077 C1076 1.366 . S
C1077 C1078 1.414 . S
C1077 C1080 1.499 . S
C1078 H1058 0.950 . S
C1078 C1077 1.414 . S
C1078 C1079 1.374 . S
C1079 H1059 0.950 . S
C1079 C1075 1.385 . S
C1079 C1078 1.374 . S
C1080 C1077 1.499 . S
C1080 C1081 1.373 . S
C1080 C1082 1.389 . S
C1081 H1060 0.950 . S
C1081 C1080 1.373 . S
C1081 C1097 1.377 . S
C1082 C1080 1.389 . S
C1082 C1083 1.524 . S
C1082 C1096 1.377 . S
C1083 C1082 1.524 . S
C1083 C1084 1.397 . S
C1083 C1088 1.363 . S
C1084 H1061 0.950 . S
C1084 C1083 1.397 . S
C1084 C1085 1.334 . S
C1085 H1062 0.950 . S
C1085 C1084 1.334 . S
C1085 C1086 1.287 . S
C1086 C1085 1.287 . S
C1086 C1087 1.524 . S
C1086 H1105 0.913 . S
C1087 H1063 0.950 . S
C1087 C1086 1.524 . S
C1087 C1088 1.415 . S
C1088 H1064 0.950 . S
C1088 C1083 1.363 . S
C1088 C1087 1.415 . S
C1089 H1065 0.951 . S
C1089 C1090 1.366 . S
C1089 C1091 1.388 . S
C1090 C1089 1.366 . S
C1090 C1094 1.385 . S
C1091 H1066 0.951 . S
C1091 C1089 1.388 . S
C1091 C1092 1.366 . S
C1092 C1091 1.366 . S
C1092 C1093 1.414 . S
C1092 C1095 1.499 . S
C1093 H1067 0.950 . S
C1093 C1092 1.414 . S
C1093 C1094 1.374 . S
C1094 H1068 0.950 . S
C1094 C1090 1.385 . S
C1094 C1093 1.374 . S
C1095 C1092 1.499 . S
C1095 C1096 1.373 . S
C1095 C1097 1.389 . S
C1096 H1069 0.950 . S
C1096 C1082 1.377 . S
C1096 C1095 1.373 . S
C1097 C1081 1.377 . S
C1097 C1095 1.389 . S
C1097 C1098 1.524 . S
C1098 C1097 1.524 . S
C1098 C1099 1.397 . S
C1098 C1103 1.363 . S
C1099 H1070 0.950 . S
C1099 C1098 1.397 . S
C1099 C1100 1.334 . S
C1100 H1071 0.950 . S
C1100 C1099 1.334 . S
C1100 C1101 1.287 . S
C1101 C1100 1.287 . S
C1101 C1102 1.524 . S
C1101 H1104 0.999 . S
C1102 H1072 0.950 . S
C1102 C1101 1.524 . S
C1102 C1103 1.415 . S
C1103 H1073 0.950 . S
C1103 C1098 1.363 . S
C1103 C1102 1.415 . S
H1104 C1101 0.999 . S
H1105 C1086 0.913 . S
H1106 C1124 0.951 . S
H1107 C1126 0.951 . S
H1108 C1128 0.950 . S
H1109 C1129 0.950 . S
H1110 C1131 0.950 . S
H1111 C1134 0.950 . S
H1112 C1135 0.950 . S
H1113 C1137 0.950 . S
H1114 C1138 0.950 . S
H1115 C1139 0.951 . S
H1116 C1141 0.951 . S
H1117 C1143 0.950 . S
H1118 C1144 0.950 . S
H1119 C1146 0.950 . S
H1120 C1149 0.950 . S
H1121 C1150 0.950 . S
H1122 C1152 0.950 . S
H1123 C1153 0.950 . S
C1124 H1106 0.951 . S
C1124 C1125 1.366 . S
C1124 C1126 1.388 . S
C1125 C1124 1.366 . S
C1125 C1129 1.385 . S
C1126 H1107 0.951 . S
C1126 C1124 1.388 . S
C1126 C1127 1.366 . S
C1127 C1126 1.366 . S
C1127 C1128 1.414 . S
C1127 C1130 1.499 . S
C1128 H1108 0.950 . S
C1128 C1127 1.414 . S
C1128 C1129 1.374 . S
C1129 H1109 0.950 . S
C1129 C1125 1.385 . S
C1129 C1128 1.374 . S
C1130 C1127 1.499 . S
C1130 C1131 1.373 . S
C1130 C1132 1.389 . S
C1131 H1110 0.950 . S
C1131 C1130 1.373 . S
C1131 C1147 1.377 . S
C1132 C1130 1.389 . S
C1132 C1133 1.524 . S
C1132 C1146 1.377 . S
C1133 C1132 1.524 . S
C1133 C1134 1.397 . S
C1133 C1138 1.363 . S
C1134 H1111 0.950 . S
C1134 C1133 1.397 . S
C1134 C1135 1.334 . S
C1135 H1112 0.950 . S
C1135 C1134 1.334 . S
C1135 C1136 1.287 . S
C1136 C1135 1.287 . S
C1136 C1137 1.524 . S
C1136 H1155 0.913 . S
C1137 H1113 0.950 . S
C1137 C1136 1.524 . S
C1137 C1138 1.415 . S
C1138 H1114 0.950 . S
C1138 C1133 1.363 . S
C1138 C1137 1.415 . S
C1139 H1115 0.951 . S
C1139 C1140 1.366 . S
C1139 C1141 1.388 . S
C1140 C1139 1.366 . S
C1140 C1144 1.385 . S
C1141 H1116 0.951 . S
C1141 C1139 1.388 . S
C1141 C1142 1.366 . S
C1142 C1141 1.366 . S
C1142 C1143 1.414 . S
C1142 C1145 1.499 . S
C1143 H1117 0.950 . S
C1143 C1142 1.414 . S
C1143 C1144 1.374 . S
C1144 H1118 0.950 . S
C1144 C1140 1.385 . S
C1144 C1143 1.374 . S
C1145 C1142 1.499 . S
C1145 C1146 1.373 . S
C1145 C1147 1.389 . S
C1146 H1119 0.950 . S
C1146 C1132 1.377 . S
C1146 C1145 1.373 . S
C1147 C1131 1.377 . S
C1147 C1145 1.389 . S
C1147 C1148 1.524 . S
C1148 C1147 1.524 . S
C1148 C1149 1.397 . S
C1148 C1153 1.363 . S
C1149 H1120 0.950 . S
C1149 C1148 1.397 . S
C1149 C1150 1.334 . S
C1150 H1121 0.950 . S
C1150 C1149 1.334 . S
C1150 C1151 1.287 . S
C1151 C1150 1.287 . S
C1151 C1152 1.524 . S
C1151 H1154 0.999 . S
C1152 H1122 0.950 . S
C1152 C1151 1.524 . S
C1152 C1153 1.415 . S
C1153 H1123 0.950 . S
C1153 C1148 1.363 . S
C1153 C1152 1.415 . S
H1154 C1151 0.999 . S
H1155 C1136 0.913 . S
H1156 C1174 0.951 . S
H1157 C1176 0.951 . S
H1158 C1178 0.950 . S
H1159 C1179 0.950 1_655 S
H1160 C1181 0.950 . S
H1161 C1184 0.950 . S
H1162 C1185 0.950 . S
H1163 C1187 0.951 . S
H1164 C1188 0.950 . S
H1165 C1189 0.951 . S
H1166 C1191 0.951 . S
H1167 C1193 0.950 . S
H1168 C1194 0.950 . S
H1169 C1196 0.950 . S
H1170 C1199 0.950 . S
H1171 C1200 0.950 . S
H1172 C1202 0.952 1_655 S
H1173 C1203 0.950 . S
C1174 H1156 0.951 . S
C1174 C1175 1.366 . S
C1174 C1176 1.388 . S
C1175 C1174 1.366 . S
C1175 C1179 1.385 . S
C1176 H1157 0.951 . S
C1176 C1174 1.388 . S
C1176 C1177 1.366 . S
C1177 C1176 1.366 . S
C1177 C1178 1.414 . S
C1177 C1180 1.499 1_556 S
C1178 H1158 0.950 . S
C1178 C1177 1.414 . S
C1178 C1179 1.374 . S
C1179 H1159 0.950 1_455 S
C1179 C1175 1.385 . S
C1179 C1178 1.374 . S
C1180 C1177 1.499 1_554 S
C1180 C1181 1.373 . S
C1180 C1182 1.389 . S
C1181 H1160 0.950 . S
C1181 C1180 1.373 . S
C1181 C1197 1.377 . S
C1182 C1180 1.389 . S
C1182 C1183 1.524 . S
C1182 C1196 1.377 . S
C1183 C1182 1.524 . S
C1183 C1184 1.397 1_554 S
C1183 C1188 1.363 . S
C1184 H1161 0.950 . S
C1184 C1183 1.397 1_556 S
C1184 C1185 1.334 . S
C1185 H1162 0.950 . S
C1185 C1184 1.334 . S
C1185 C1186 1.287 . S
C1186 C1185 1.287 . S
C1186 C1187 1.513 1_556 S
C1186 H1205 0.913 . S
C1187 H1163 0.951 . S
C1187 C1186 1.513 1_554 S
C1187 C1188 1.426 . S
C1188 H1164 0.950 . S
C1188 C1183 1.363 . S
C1188 C1187 1.426 . S
C1189 H1165 0.951 . S
C1189 C1190 1.366 . S
C1189 C1191 1.388 . S
C1190 C1189 1.366 . S
C1190 C1194 1.385 . S
C1191 H1166 0.951 . S
C1191 C1189 1.388 . S
C1191 C1192 1.366 . S
C1192 C1191 1.366 . S
C1192 C1193 1.414 . S
C1192 C1195 1.499 . S
C1193 H1167 0.950 . S
C1193 C1192 1.414 . S
C1193 C1194 1.374 . S
C1194 H1168 0.950 . S
C1194 C1190 1.385 . S
C1194 C1193 1.374 . S
C1195 C1192 1.499 . S
C1195 C1196 1.373 . S
C1195 C1197 1.389 . S
C1196 H1169 0.950 . S
C1196 C1182 1.377 . S
C1196 C1195 1.373 . S
C1197 C1181 1.377 . S
C1197 C1195 1.389 . S
C1197 C1198 1.524 . S
C1198 C1197 1.524 . S
C1198 C1199 1.397 . S
C1198 C1203 1.363 . S
C1199 H1170 0.950 . S
C1199 C1198 1.397 . S
C1199 C1200 1.334 . S
C1200 H1171 0.950 . S
C1200 C1199 1.334 . S
C1200 C1201 1.287 . S
C1201 C1200 1.287 . S
C1201 C1202 1.524 . S
C1201 H1204 0.999 . S
C1202 H1172 0.952 1_455 S
C1202 C1201 1.524 . S
C1202 C1203 1.415 . S
C1203 H1173 0.950 . S
C1203 C1198 1.363 . S
C1203 C1202 1.415 . S
H1204 C1201 0.999 . S
H1205 C1186 0.913 . S
H1206 C1224 0.951 . S
H1207 C1226 0.951 . S
H1208 C1228 0.950 . S
H1209 C1229 0.950 . S
H1210 C1231 0.950 . S
H1211 C1234 0.950 . S
H1212 C1235 0.950 . S
H1213 C1237 0.950 . S
H1214 C1238 0.950 . S
H1215 C1239 0.951 . S
H1216 C1241 0.951 . S
H1217 C1243 0.950 . S
H1218 C1244 0.950 . S
H1219 C1246 0.950 . S
H1220 C1249 0.950 . S
H1221 C1250 0.950 . S
H1222 C1252 0.950 . S
H1223 C1253 0.950 . S
C1224 H1206 0.951 . S
C1224 C1225 1.366 . S
C1224 C1226 1.388 . S
C1225 C1224 1.366 . S
C1225 C1229 1.385 . S
C1226 H1207 0.951 . S
C1226 C1224 1.388 . S
C1226 C1227 1.366 . S
C1227 C1226 1.366 . S
C1227 C1228 1.414 . S
C1227 C1230 1.499 . S
C1228 H1208 0.950 . S
C1228 C1227 1.414 . S
C1228 C1229 1.374 . S
C1229 H1209 0.950 . S
C1229 C1225 1.385 . S
C1229 C1228 1.374 . S
C1230 C1227 1.499 . S
C1230 C1231 1.373 . S
C1230 C1232 1.389 . S
C1231 H1210 0.950 . S
C1231 C1230 1.373 . S
C1231 C1247 1.377 . S
C1232 C1230 1.389 . S
C1232 C1233 1.524 . S
C1232 C1246 1.377 . S
C1233 C1232 1.524 . S
C1233 C1234 1.397 . S
C1233 C1238 1.363 . S
C1234 H1211 0.950 . S
C1234 C1233 1.397 . S
C1234 C1235 1.334 . S
C1235 H1212 0.950 . S
C1235 C1234 1.334 . S
C1235 C1236 1.287 . S
C1236 C1235 1.287 . S
C1236 C1237 1.524 . S
C1236 H1255 0.913 . S
C1237 H1213 0.950 . S
C1237 C1236 1.524 . S
C1237 C1238 1.415 . S
C1238 H1214 0.950 . S
C1238 C1233 1.363 . S
C1238 C1237 1.415 . S
C1239 H1215 0.951 . S
C1239 C1240 1.366 . S
C1239 C1241 1.388 . S
C1240 C1239 1.366 . S
C1240 C1244 1.385 . S
C1241 H1216 0.951 . S
C1241 C1239 1.388 . S
C1241 C1242 1.366 . S
C1242 C1241 1.366 . S
C1242 C1243 1.414 . S
C1242 C1245 1.499 . S
C1243 H1217 0.950 . S
C1243 C1242 1.414 . S
C1243 C1244 1.374 . S
C1244 H1218 0.950 . S
C1244 C1240 1.385 . S
C1244 C1243 1.374 . S
C1245 C1242 1.499 . S
C1245 C1246 1.373 . S
C1245 C1247 1.389 . S
C1246 H1219 0.950 . S
C1246 C1232 1.377 . S
C1246 C1245 1.373 . S
C1247 C1231 1.377 . S
C1247 C1245 1.389 . S
C1247 C1248 1.524 . S
C1248 C1247 1.524 . S
C1248 C1249 1.397 . S
C1248 C1253 1.363 . S
C1249 H1220 0.950 . S
C1249 C1248 1.397 . S
C1249 C1250 1.334 . S
C1250 H1221 0.950 . S
C1250 C1249 1.334 . S
C1250 C1251 1.287 . S
C1251 C1250 1.287 . S
C1251 C1252 1.524 . S
C1251 H1254 0.999 . S
C1252 H1222 0.950 . S
C1252 C1251 1.524 . S
C1252 C1253 1.415 . S
C1253 H1223 0.950 . S
C1253 C1248 1.363 . S
C1253 C1252 1.415 . S
H1254 C1251 0.999 . S
H1255 C1236 0.913 . S
H1256 C1274 0.951 . S
H1257 C1276 0.951 . S
H1258 C1278 0.950 . S
H1259 C1279 0.950 . S
H1260 C1281 0.950 . S
H1261 C1284 0.950 . S
H1262 C1285 0.950 . S
H1263 C1287 0.950 . S
H1264 C1288 0.950 . S
H1265 C1289 0.951 . S
H1266 C1291 0.951 . S
H1267 C1293 0.950 . S
H1268 C1294 0.950 . S
H1269 C1296 0.950 . S
H1270 C1299 0.950 . S
H1271 C1300 0.950 . S
H1272 C1302 0.950 . S
H1273 C1303 0.950 . S
C1274 H1256 0.951 . S
C1274 C1275 1.366 . S
C1274 C1276 1.388 . S
C1275 C1274 1.366 . S
C1275 C1279 1.385 . S
C1276 H1257 0.951 . S
C1276 C1274 1.388 . S
C1276 C1277 1.366 . S
C1277 C1276 1.366 . S
C1277 C1278 1.414 . S
C1277 C1280 1.499 . S
C1278 H1258 0.950 . S
C1278 C1277 1.414 . S
C1278 C1279 1.374 . S
C1279 H1259 0.950 . S
C1279 C1275 1.385 . S
C1279 C1278 1.374 . S
C1280 C1277 1.499 . S
C1280 C1281 1.373 . S
C1280 C1282 1.389 . S
C1281 H1260 0.950 . S
C1281 C1280 1.373 . S
C1281 C1297 1.377 . S
C1282 C1280 1.389 . S
C1282 C1283 1.524 . S
C1282 C1296 1.377 . S
C1283 C1282 1.524 . S
C1283 C1284 1.397 . S
C1283 C1288 1.363 . S
C1284 H1261 0.950 . S
C1284 C1283 1.397 . S
C1284 C1285 1.334 . S
C1285 H1262 0.950 . S
C1285 C1284 1.334 . S
C1285 C1286 1.287 . S
C1286 C1285 1.287 . S
C1286 C1287 1.524 . S
C1286 H1305 0.913 . S
C1287 H1263 0.950 . S
C1287 C1286 1.524 . S
C1287 C1288 1.415 . S
C1288 H1264 0.950 . S
C1288 C1283 1.363 . S
C1288 C1287 1.415 . S
C1289 H1265 0.951 . S
C1289 C1290 1.366 . S
C1289 C1291 1.388 . S
C1290 C1289 1.366 . S
C1290 C1294 1.385 . S
C1291 H1266 0.951 . S
C1291 C1289 1.388 . S
C1291 C1292 1.366 . S
C1292 C1291 1.366 . S
C1292 C1293 1.414 . S
C1292 C1295 1.499 . S
C1293 H1267 0.950 . S
C1293 C1292 1.414 . S
C1293 C1294 1.374 . S
C1294 H1268 0.950 . S
C1294 C1290 1.385 . S
C1294 C1293 1.374 . S
C1295 C1292 1.499 . S
C1295 C1296 1.373 . S
C1295 C1297 1.389 . S
C1296 H1269 0.950 . S
C1296 C1282 1.377 . S
C1296 C1295 1.373 . S
C1297 C1281 1.377 . S
C1297 C1295 1.389 . S
C1297 C1298 1.524 . S
C1298 C1297 1.524 . S
C1298 C1299 1.397 . S
C1298 C1303 1.363 . S
C1299 H1270 0.950 . S
C1299 C1298 1.397 . S
C1299 C1300 1.334 . S
C1300 H1271 0.950 . S
C1300 C1299 1.334 . S
C1300 C1301 1.287 . S
C1301 C1300 1.287 . S
C1301 C1302 1.524 . S
C1301 H1304 0.999 . S
C1302 H1272 0.950 . S
C1302 C1301 1.524 . S
C1302 C1303 1.415 . S
C1303 H1273 0.950 . S
C1303 C1298 1.363 . S
C1303 C1302 1.415 . S
H1304 C1301 0.999 . S
H1305 C1286 0.913 . S
H1306 C1324 0.951 . S
H1307 C1326 0.951 . S
H1308 C1328 0.950 . S
H1309 C1329 0.950 . S
H1310 C1331 0.950 . S
H1311 C1334 0.950 . S
H1312 C1335 0.950 . S
H1313 C1337 0.950 . S
H1314 C1338 0.950 . S
H1315 C1339 0.951 . S
H1316 C1341 0.951 . S
H1317 C1343 0.950 . S
H1318 C1344 0.950 . S
H1319 C1346 0.950 . S
H1320 C1349 0.950 . S
H1321 C1350 0.950 . S
H1322 C1352 0.950 . S
H1323 C1353 0.950 . S
C1324 H1306 0.951 . S
C1324 C1325 1.366 . S
C1324 C1326 1.388 . S
C1325 C1324 1.366 . S
C1325 C1329 1.385 . S
C1326 H1307 0.951 . S
C1326 C1324 1.388 . S
C1326 C1327 1.366 . S
C1327 C1326 1.366 . S
C1327 C1328 1.414 . S
C1327 C1330 1.499 . S
C1328 H1308 0.950 . S
C1328 C1327 1.414 . S
C1328 C1329 1.374 . S
C1329 H1309 0.950 . S
C1329 C1325 1.385 . S
C1329 C1328 1.374 . S
C1330 C1327 1.499 . S
C1330 C1331 1.373 . S
C1330 C1332 1.389 . S
C1331 H1310 0.950 . S
C1331 C1330 1.373 . S
C1331 C1347 1.377 . S
C1332 C1330 1.389 . S
C1332 C1333 1.524 . S
C1332 C1346 1.377 . S
C1333 C1332 1.524 . S
C1333 C1334 1.397 . S
C1333 C1338 1.363 . S
C1334 H1311 0.950 . S
C1334 C1333 1.397 . S
C1334 C1335 1.334 . S
C1335 H1312 0.950 . S
C1335 C1334 1.334 . S
C1335 C1336 1.287 . S
C1336 C1335 1.287 . S
C1336 C1337 1.524 . S
C1336 H1355 0.913 . S
C1337 H1313 0.950 . S
C1337 C1336 1.524 . S
C1337 C1338 1.415 . S
C1338 H1314 0.950 . S
C1338 C1333 1.363 . S
C1338 C1337 1.415 . S
C1339 H1315 0.951 . S
C1339 C1340 1.366 . S
C1339 C1341 1.388 . S
C1340 C1339 1.366 . S
C1340 C1344 1.385 . S
C1341 H1316 0.951 . S
C1341 C1339 1.388 . S
C1341 C1342 1.366 . S
C1342 C1341 1.366 . S
C1342 C1343 1.414 . S
C1342 C1345 1.499 . S
C1343 H1317 0.950 . S
C1343 C1342 1.414 . S
C1343 C1344 1.374 . S
C1344 H1318 0.950 . S
C1344 C1340 1.385 . S
C1344 C1343 1.374 . S
C1345 C1342 1.499 . S
C1345 C1346 1.373 . S
C1345 C1347 1.389 . S
C1346 H1319 0.950 . S
C1346 C1332 1.377 . S
C1346 C1345 1.373 . S
C1347 C1331 1.377 . S
C1347 C1345 1.389 . S
C1347 C1348 1.524 . S
C1348 C1347 1.524 . S
C1348 C1349 1.397 . S
C1348 C1353 1.363 . S
C1349 H1320 0.950 . S
C1349 C1348 1.397 . S
C1349 C1350 1.334 . S
C1350 H1321 0.950 . S
C1350 C1349 1.334 . S
C1350 C1351 1.287 . S
C1351 C1350 1.287 . S
C1351 C1352 1.524 . S
C1351 H1354 0.999 1_455 S
C1352 H1322 0.950 . S
C1352 C1351 1.524 . S
C1352 C1353 1.415 . S
C1353 H1323 0.950 . S
C1353 C1348 1.363 . S
C1353 C1352 1.415 . S
H1354 C1351 0.999 1_655 S
H1355 C1336 0.913 . S
C190 C79 1.440 . S
C175 C4 1.547 . S
C240 C97 1.277 . S
C225 C13 1.351 . S
C275 C25 1.299 . S
C290 C121 1.178 . S
C340 C151 1.202 . S
C325 C34 1.361 . S
C390 C139 1.187 . S
C375 C40 1.311 . S
C425 C52 1.344 . S
C440 C92 1.279 . S
C475 C61 1.537 . S
C490 C112 1.437 . S
C525 C67 1.381 . S
C540 C117 1.218 . S
C575 C70 1.334 . S
C590 C133 1.268 . S
C625 C49 1.389 . S
C640 C88 1.219 . S
C690 C155 1.285 . S
C675 C31 1.354 . S
C740 C100 1.197 . S
C725 C16 1.364 . S
C775 C22 1.538 . S
C790 C118 1.431 . S
C825 C7 1.311 . S
C840 C76 1.191 . S
C890 C96 1.184 . S
C875 C58 1.301 . S
C940 C142 1.443 . S
C925 C43 1.549 . S
C990 C138 1.307 . S
C975 C5 1.463 . S
C1040 C91 1.320 . S
C1025 C14 1.425 . S
C1075 C23 1.445 . S
C1090 C113 1.283 . S
C1125 C32 1.449 . S
C1140 C134 1.342 . S
C1190 C75 1.306 . S
C1175 C41 1.469 . S
C1225 C50 1.474 . S
C1240 C109 1.366 . S
C1290 C130 1.325 . S
C1275 C59 1.491 . S
C1340 C154 1.341 . S
C1325 C68 1.450 . S
