# Generated by pormake.
# Topology pth, (4,4)-cn, num edge types: 1
# Building blocks:
#     Node 0, Type 0, BuildingBlock: QUQFOY_clean_sbu_3, # of connection points: 4
#     Node 1, Type 0, BuildingBlock: QUQFOY_clean_sbu_3, # of connection points: 4
#     Node 2, Type 0, BuildingBlock: QUQFOY_clean_sbu_3, # of connection points: 4
#     Node 3, Type 1, BuildingBlock: AZAVOO_clean_linker_0, # of connection points: 4
#     Node 4, Type 1, BuildingBlock: AZAVOO_clean_linker_0, # of connection points: 4
#     Node 5, Type 1, BuildingBlock: AZAVOO_clean_linker_0, # of connection points: 4
#     Edge 6, Type (0, 1), BuildingBlock: OJICUG_clean_linker_0, # of connection points: 2
#     Edge 7, Type (0, 1), BuildingBlock: OJICUG_clean_linker_0, # of connection points: 2
#     Edge 8, Type (0, 1), BuildingBlock: OJICUG_clean_linker_0, # of connection points: 2
#     Edge 9, Type (0, 1), BuildingBlock: OJICUG_clean_linker_0, # of connection points: 2
#     Edge 10, Type (0, 1), BuildingBlock: OJICUG_clean_linker_0, # of connection points: 2
#     Edge 11, Type (0, 1), BuildingBlock: OJICUG_clean_linker_0, # of connection points: 2
#     Edge 12, Type (0, 1), BuildingBlock: OJICUG_clean_linker_0, # of connection points: 2
#     Edge 13, Type (0, 1), BuildingBlock: OJICUG_clean_linker_0, # of connection points: 2
#     Edge 14, Type (0, 1), BuildingBlock: OJICUG_clean_linker_0, # of connection points: 2
#     Edge 15, Type (0, 1), BuildingBlock: OJICUG_clean_linker_0, # of connection points: 2
#     Edge 16, Type (0, 1), BuildingBlock: OJICUG_clean_linker_0, # of connection points: 2
#     Edge 17, Type (0, 1), BuildingBlock: OJICUG_clean_linker_0, # of connection points: 2
# Relax obj value: 0.125
# Max RMSD: 0.224
# Mean RMSD: 0.148
data_MOF--net-pth--node1-QUQFOY_clean_sbu_3--node2-AZAVOO_clean_linker_0--edge1-OJICUG_clean_linker_0
_symmetry_space_group_name_H-M    P1
_symmetry_Int_Tables_number       1
_symmetry_cell_setting            triclinic
loop_
_symmetry_equiv_pos_as_xyz
'x, y, z'
_cell_length_a     20.43766
_cell_length_b     20.530146
_cell_length_c     56.536457
_cell_angle_alpha  92.958551
_cell_angle_beta   89.226167
_cell_angle_gamma 120.89936
loop_
_atom_site_label
_atom_site_type_symbol
_atom_site_fract_x
_atom_site_fract_y
_atom_site_fract_z
_atom_type_partial_charge
C0 C 0.98789 0.15284 0.12735 0.0
O1 O 0.95356 0.16623 0.11152 0.0
Cd2 Cd 0.9751 0.15497 0.07025 0.0
O3 O 0.02941 0.12516 0.12166 0.0
Cd4 Cd 0.06142 0.07264 0.0862 0.0
C5 C 0.17233 0.24734 0.06764 0.0
O6 O 0.95059 0.0301 0.06061 0.0
O7 O 0.05126 0.03967 0.04412 0.0
O8 O 0.00942 0.95543 0.10539 0.0
C9 C 0.98209 0.02151 0.04215 0.0
O10 O 0.10974 0.24444 0.06346 0.0
C11 C 0.07085 0.95464 0.10679 0.0
O12 O 0.17324 0.19289 0.07715 0.0
O13 O 0.13 0.00932 0.09794 0.0
C14 C 0.26201 0.17756 0.42476 0.0
O15 O 0.27572 0.19657 0.40344 0.0
Cd16 Cd 0.17789 0.19075 0.37844 0.0
O17 O 0.19553 0.15099 0.43313 0.0
Cd18 Cd 0.06619 0.11484 0.42161 0.0
C19 C 0.06027 -0.00195 0.37598 0.0
O20 O 0.10548 0.23083 0.40238 0.0
O21 O 0.98682 0.14411 0.39712 0.0
O22 O 0.04779 0.15399 0.46112 0.0
C23 C 0.04022 0.21189 0.39427 0.0
O24 O 0.10175 0.05759 0.3647 0.0
C25 C 0.99272 0.08917 0.4661 0.0
O26 O 0.04368 0.00254 0.39755 0.0
O27 O 0.97107 0.03572 0.45025 0.0
C28 C 0.93718 0.13624 0.72362 0.0
O29 O 0.95719 0.19156 0.73862 0.0
Cd30 Cd 0.0328 0.20464 0.77251 0.0
O31 O 0.96662 0.09471 0.72414 0.0
Cd32 Cd 0.07051 0.09244 0.74543 0.0
C33 C 0.94332 0.01667 0.78798 0.0
O34 O 0.15352 0.22505 0.75986 0.0
O35 O 0.16267 0.13949 0.77776 0.0
O36 O 0.12998 0.10291 0.70767 0.0
C37 C 0.1884 0.20935 0.77486 0.0
O38 O 0.95837 0.08466 0.79214 0.0
C39 C 0.14291 0.04933 0.7099 0.0
O40 O 0.9743 0.00037 0.77082 0.0
O41 O 0.11886 0.01237 0.72858 0.0
H42 H 0.04968 0.33127 0.11207 0.0
H43 H 0.09228 0.0254 0.27425 0.0
H44 H 0.91337 0.3653 0.24939 0.0
H45 H 0.88965 0.24788 0.22854 0.0
H46 H 0.13069 0.35256 0.21472 0.0
H47 H 0.1539 0.46793 0.23652 0.0
H48 H 0.94769 0.42528 0.19732 0.0
H49 H 0.96751 0.37153 0.16018 0.0
H50 H 0.20854 0.53876 0.16494 0.0
H51 H 0.18774 0.59251 0.20196 0.0
H52 H 0.96106 0.56679 0.189 0.0
H53 H 0.97143 0.64028 0.15515 0.0
H54 H 0.18381 0.82797 0.18402 0.0
H55 H 0.17539 0.7516 0.217 0.0
H56 H 0.93877 0.66757 0.23062 0.0
H57 H 0.93616 0.7855 0.23464 0.0
H58 H 0.14604 0.89106 0.27576 0.0
H59 H 0.14873 0.77335 0.27121 0.0
H60 H 0.90265 0.60099 0.28016 0.0
H61 H 0.89307 0.68551 0.31034 0.0
H62 H 0.11184 0.7439 0.33941 0.0
H63 H 0.12246 0.6612 0.30865 0.0
H64 H 0.9098 0.44697 0.29629 0.0
H65 H 0.90525 0.37459 0.33027 0.0
H66 H 0.14451 0.45259 0.32134 0.0
H67 H 0.14856 0.52514 0.28804 0.0
O68 O 0.0428 0.35464 0.12645 0.0
O69 O 0.16601 0.44283 0.12943 0.0
O70 O 0.98758 0.92347 0.24942 0.0
O71 O 0.09283 0.97865 0.27189 0.0
C72 C 0.04318 0.5016 0.24617 0.0
C73 C 0.05496 0.54244 0.22557 0.0
C74 C 0.05647 0.61187 0.22709 0.0
C75 C 0.0437 0.63929 0.24903 0.0
C76 C 0.03039 0.59753 0.26954 0.0
C77 C 0.0326 0.52998 0.26821 0.0
C78 C 0.03501 0.42556 0.24375 0.0
C79 C 0.96149 0.36118 0.2431 0.0
C80 C 0.94798 0.29439 0.23096 0.0
C81 C 0.00783 0.29206 0.21915 0.0
C82 C 0.0831 0.35241 0.22342 0.0
C83 C 0.09663 0.41877 0.23585 0.0
C84 C 0.06635 0.51255 0.20234 0.0
C85 C 0.00464 0.45038 0.19024 0.0
C86 C 0.01618 0.41966 0.16908 0.0
C87 C 0.08972 0.45032 0.15972 0.0
C88 C 0.15122 0.51356 0.17171 0.0
C89 C 0.13952 0.54453 0.19281 0.0
C90 C 0.0673 0.65403 0.20548 0.0
C91 C 0.0109 0.62294 0.18764 0.0
C92 C 0.01657 0.66538 0.16846 0.0
C93 C 0.07789 0.74048 0.16705 0.0
C94 C 0.13622 0.77014 0.18441 0.0
C95 C 0.13114 0.72698 0.20341 0.0
C96 C 0.0439 0.71195 0.25063 0.0
C97 C 0.9845 0.7165 0.24027 0.0
C98 C 0.98301 0.78381 0.24268 0.0
C99 C 0.04083 0.84768 0.25559 0.0
C100 C 0.10062 0.84299 0.26573 0.0
C101 C 0.10226 0.77582 0.26319 0.0
C102 C 0.01364 0.62579 0.2921 0.0
C103 C 0.94711 0.62966 0.29362 0.0
C104 C 0.94175 0.67796 0.31076 0.0
C105 C 0.00199 0.72128 0.32695 0.0
C106 C 0.06452 0.7105 0.32715 0.0
C107 C 0.07054 0.66318 0.30969 0.0
C108 C 0.02958 0.49126 0.28986 0.0
C109 C 0.96126 0.44913 0.30203 0.0
C110 C 0.9587 0.40758 0.32125 0.0
C111 C 0.0246 0.40817 0.32854 0.0
C112 C 0.09311 0.45201 0.3165 0.0
C113 C 0.09551 0.49312 0.29738 0.0
C114 C 0.1021 0.416 0.13762 0.0
C115 C 0.03859 0.91874 0.25869 0.0
H116 H 0.77503 0.03236 0.43667 0.0
H117 H 0.16123 0.1422 0.5729 0.0
H118 H 0.61149 0.92084 0.55094 0.0
H119 H 0.72117 0.92667 0.53218 0.0
H120 H 0.86694 0.14866 0.56675 0.0
H121 H 0.75447 0.1443 0.58384 0.0
H122 H 0.54716 0.95617 0.51055 0.0
H123 H 0.62548 0.96854 0.47597 0.0
H124 H 0.79598 0.19448 0.50231 0.0
H125 H 0.71678 0.18149 0.53667 0.0
H126 H 0.423 0.9749 0.51249 0.0
H127 H 0.37926 0.01511 0.47893 0.0
H128 H 0.52219 0.24955 0.50374 0.0
H129 H 0.56754 0.20921 0.53679 0.0
H130 H 0.33211 0.93862 0.56824 0.0
H131 H 0.21495 0.94366 0.56932 0.0
H132 H 0.34985 0.18927 0.57156 0.0
H133 H 0.46639 0.18328 0.57073 0.0
H134 H 0.4052 0.92023 0.61414 0.0
H135 H 0.31389 0.91306 0.6442 0.0
H136 H 0.42001 0.15744 0.64581 0.0
H137 H 0.50968 0.16387 0.61578 0.0
H138 H 0.60686 0.9386 0.60722 0.0
H139 H 0.69285 0.95978 0.63995 0.0
H140 H 0.70234 0.17112 0.65988 0.0
H141 H 0.62513 0.15393 0.62538 0.0
O142 O 0.74371 0.02961 0.45002 0.0
O143 O 0.82771 0.14696 0.46369 0.0
O144 O 0.13986 0.01217 0.57129 0.0
O145 O 0.20659 0.13853 0.57231 0.0
C146 C 0.60803 0.04268 0.5694 0.0
C147 C 0.58277 0.05727 0.54822 0.0
C148 C 0.51886 0.06567 0.5484 0.0
C149 C 0.47818 0.05687 0.56943 0.0
C150 C 0.50528 0.04588 0.59086 0.0
C151 C 0.57187 0.04105 0.59106 0.0
C152 C 0.67495 0.03298 0.56812 0.0
C153 C 0.66755 0.96935 0.55526 0.0
C154 C 0.73096 0.97296 0.54452 0.0
C155 C 0.80312 0.03971 0.54707 0.0
C156 C 0.81179 0.0978 0.5635 0.0
C157 C 0.74779 0.09495 0.57371 0.0
C158 C 0.62635 0.06794 0.52604 0.0
C159 C 0.60087 0.00869 0.50859 0.0
C160 C 0.64599 0.01575 0.48896 0.0
C161 C 0.71724 0.08235 0.48645 0.0
C162 C 0.7415 0.1424 0.50371 0.0
C163 C 0.69632 0.13526 0.5233 0.0
C164 C 0.49774 0.08928 0.527 0.0
C165 C 0.44599 0.03492 0.51032 0.0
C166 C 0.42161 0.0579 0.4912 0.0
C167 C 0.44792 0.1353 0.48888 0.0
C168 C 0.50168 0.18967 0.5052 0.0
C169 C 0.52715 0.16677 0.52402 0.0
C170 C 0.40749 0.06052 0.56917 0.0
C171 C 0.33609 0.99337 0.56883 0.0
C172 C 0.26936 -0.00354 0.56949 0.0
C173 C 0.27304 0.06693 0.57049 0.0
C174 C 0.34493 0.1341 0.57074 0.0
C175 C 0.41158 0.13088 0.57013 0.0
C176 C 0.4641 0.04259 0.61292 0.0
C177 C 0.41008 0.97223 0.62161 0.0
C178 C 0.35787 0.96821 0.63863 0.0
C179 C 0.35912 0.03458 0.64695 0.0
C180 C 0.41686 0.10527 0.63936 0.0
C181 C 0.46873 0.10919 0.62247 0.0
C182 C 0.6096 0.04471 0.61377 0.0
C183 C 0.6274 0.98929 0.61876 0.0
C184 C 0.67622 0.00135 0.63772 0.0
C185 C 0.70623 0.06806 0.65259 0.0
C186 C 0.68305 0.12037 0.6485 0.0
C187 C 0.63678 0.10961 0.62905 0.0
C188 C 0.76634 0.0886 0.46606 0.0
C189 C 0.20235 0.07056 0.57137 0.0
H190 H 0.69657 0.85817 0.06447 0.0
H191 H 0.19678 0.11279 0.91264 0.0
H192 H 0.63219 0.80901 0.93416 0.0
H193 H 0.73374 0.92013 0.95616 0.0
H194 H 0.87424 0.81874 0.95138 0.0
H195 H 0.77361 0.70984 0.92879 0.0
H196 H 0.53449 0.70799 0.97531 0.0
H197 H 0.58502 0.77533 0.01381 0.0
H198 H 0.75824 0.71387 0.0109 0.0
H199 H 0.70665 0.64623 0.97254 0.0
H200 H 0.38398 0.53483 0.95776 0.0
H201 H 0.3121 0.47008 -0.00769 0.0
H202 H 0.49874 0.4439 0.01462 0.0
H203 H 0.5684 0.50521 0.97904 0.0
H204 H 0.35297 0.48788 0.90712 0.0
H205 H 0.24212 0.35932 0.90159 0.0
H206 H 0.37705 0.26715 0.92533 0.0
H207 H 0.4877 0.39605 0.93047 0.0
H208 H 0.44278 0.59068 0.8729 0.0
H209 H 0.36874 0.50939 0.83867 0.0
H210 H 0.48552 0.38434 0.84287 0.0
H211 H 0.55696 0.46432 0.87768 0.0
H212 H 0.57279 0.73853 0.88141 0.0
H213 H 0.65056 0.82403 0.85071 0.0
H214 H 0.79669 0.72907 0.85081 0.0
H215 H 0.71723 0.64259 0.88113 0.0
O216 O 0.67633 0.8297 0.04953 0.0
O217 O 0.7628 0.79467 0.04749 0.0
O218 O 0.17305 0.21447 0.90235 0.0
O219 O 0.23968 0.16424 0.91467 0.0
C220 C 0.62701 0.6749 0.92695 0.0
C221 C 0.58903 0.63562 0.94721 0.0
C222 C 0.52335 0.56283 0.94461 0.0
C223 C 0.49613 0.52892 0.92176 0.0
C224 C 0.53421 0.56869 0.90152 0.0
C225 C 0.59958 0.6417 0.90415 0.0
C226 C 0.69554 0.75132 0.9303 0.0
C227 C 0.68664 0.81309 0.93673 0.0
C228 C 0.74431 0.87594 0.94956 0.0
C229 C 0.81092 0.87698 0.95622 0.0
C230 C 0.82371 0.81989 0.94663 0.0
C231 C 0.76624 0.75742 0.93364 0.0
C232 C 0.617 0.67241 0.9712 0.0
C233 C 0.58288 0.70861 0.98315 0.0
C234 C 0.61203 0.7472 0.00509 0.0
C235 C 0.67575 0.75006 0.01542 0.0
C236 C 0.70909 0.71273 0.00346 0.0
C237 C 0.67978 0.67407 0.98157 0.0
C238 C 0.48091 0.52402 0.96584 0.0
C239 C 0.40906 0.51471 0.97006 0.0
C240 C 0.36871 0.47882 0.99006 0.0
C241 C 0.39998 0.45244 0.00645 0.0
C242 C 0.47279 0.46305 0.00231 0.0
C243 C 0.51277 0.49825 0.98208 0.0
C244 C 0.42836 0.45107 0.91901 0.0
C245 C 0.35849 0.43979 0.91099 0.0
C246 C 0.29527 0.36634 0.90792 0.0
C247 C 0.30078 0.30289 0.91297 0.0
C248 C 0.37085 0.31467 0.92124 0.0
C249 C 0.43409 0.38818 0.92423 0.0
C250 C 0.50465 0.53285 0.87772 0.0
C251 C 0.45378 0.5471 0.86594 0.0
C252 C 0.41164 0.50059 0.84638 0.0
C253 C 0.42034 0.43953 0.83826 0.0
C254 C 0.47625 0.42977 0.84901 0.0
C255 C 0.51774 0.47583 0.8687 0.0
C256 C 0.63949 0.68452 0.88329 0.0
C257 C 0.6206 0.73519 0.87436 0.0
C258 C 0.66545 0.7843 0.85703 0.0
C259 C 0.7302 0.78376 0.84852 0.0
C260 C 0.74682 0.73035 0.85683 0.0
C261 C 0.70174 0.68111 0.87415 0.0
C262 C 0.70767 0.79255 0.03846 0.0
C263 C 0.23385 0.22471 0.90965 0.0
C264 C 0.93089 0.19581 0.15923 0.0
C265 C 0.98368 0.17435 0.15241 0.0
H266 H 0.89623 0.24837 0.18588 0.0
C267 C 0.03624 0.17958 0.16933 0.0
H268 H 0.88916 0.19173 0.1467 0.0
C269 C 0.04018 0.21195 0.19203 0.0
C270 C 0.99122 0.239 0.19823 0.0
H271 H 0.07723 0.16274 0.16466 0.0
H272 H 0.08413 0.21951 0.20428 0.0
C273 C 0.93435 0.2274 0.18191 0.0
C274 C 0.95329 0.13921 0.5009 0.0
C275 C 0.95305 0.07781 0.48878 0.0
H276 H 0.90529 0.17541 0.52834 0.0
C277 C 0.9116 0.0054 0.49788 0.0
H278 H 0.98473 0.19568 0.4942 0.0
C279 C 0.8681 0.99395 0.51822 0.0
C280 C 0.86328 0.05428 0.52938 0.0
H281 H 0.91168 0.95735 0.48904 0.0
H282 H 0.83595 0.93715 0.52459 0.0
C283 C 0.90826 0.12751 0.52078 0.0
C284 C 0.85452 0.97459 0.82216 0.0
C285 C 0.88837 0.95635 0.80318 0.0
H286 H 0.77892 0.93471 0.85138 0.0
C287 C 0.86883 0.88031 0.79891 0.0
H288 H 0.86835 0.03256 0.82602 0.0
C289 C 0.81679 0.82387 0.81343 0.0
C290 C 0.78318 0.84238 0.83243 0.0
H291 H 0.8937 0.86432 0.78439 0.0
H292 H 0.80253 0.76572 0.80971 0.0
C293 C 0.80264 0.91833 0.83661 0.0
C294 C 0.00552 0.83737 0.1293 0.0
C295 C 0.07304 0.89512 0.11969 0.0
H296 H 0.95443 0.74473 0.15197 0.0
C297 C 0.142 0.89807 0.12411 0.0
H298 H 0.95136 0.83345 0.12624 0.0
C299 C 0.14364 0.84595 0.13876 0.0
C300 C 0.07633 0.7902 0.1492 0.0
H301 H 0.1949 0.94188 0.11686 0.0
H302 H 0.19771 0.85022 0.14227 0.0
C303 C 0.00718 0.78584 0.14393 0.0
C304 C 0.36567 0.15034 0.43145 0.0
C305 C 0.32105 0.18025 0.43991 0.0
H306 H 0.44079 0.11113 0.44077 0.0
C307 C 0.32519 0.20271 0.46396 0.0
H308 H 0.36239 0.13181 0.41299 0.0
C309 C 0.37082 0.19247 0.47958 0.0
C310 C 0.41145 0.15788 0.47148 0.0
H311 H 0.29086 0.22557 0.4708 0.0
H312 H 0.3708 0.20739 0.49826 0.0
C313 C 0.4099 0.13815 0.44726 0.0
C314 C 0.28019 0.24838 0.80868 0.0
C315 C 0.25112 0.2689 0.78996 0.0
H316 H 0.35508 0.28581 0.83871 0.0
C317 C 0.28113 0.34633 0.78631 0.0
H318 H 0.25812 0.1892 0.812 0.0
C319 C 0.33804 0.40214 0.80147 0.0
C320 C 0.36571 0.3815 0.8206 0.0
H321 H 0.26011 0.36381 0.77192 0.0
H322 H 0.35982 0.46139 0.79835 0.0
C323 C 0.33648 0.30394 0.82387 0.0
C324 C 0.87644 0.17771 0.69484 0.0
C325 C 0.87828 0.11888 0.70567 0.0
H326 H 0.82405 0.20826 0.66885 0.0
C327 C 0.82302 0.04321 0.69939 0.0
H328 H 0.91901 0.23654 0.69928 0.0
C329 C 0.76603 0.02657 0.68269 0.0
C330 C 0.76456 0.0853 0.67134 0.0
H331 H 0.82294 -0.00311 0.70778 0.0
H332 H 0.72299 0.96758 0.67889 0.0
C333 C 0.82112 0.16117 0.67757 0.0
C334 C 0.97776 0.98744 -0.00114 0.0
C335 C 0.94065 0.99302 0.0193 0.0
H336 H 0.96632 0.94875 0.96241 0.0
C337 C 0.86298 0.96905 0.01788 0.0
H338 H 0.03797 0.0065 -0.00065 0.0
C339 C 0.82209 0.93603 -0.00321 0.0
C340 C 0.85809 0.92652 0.97663 0.0
H341 H 0.83294 0.97305 0.0333 0.0
H342 H 0.76125 0.9139 -0.0032 0.0
C343 C 0.93685 0.95459 0.97769 0.0
C344 C 0.03136 0.86413 0.37687 0.0
C345 C 0.03568 0.92326 0.36414 0.0
H346 H 0.01835 0.75318 0.37486 0.0
C347 C 0.02245 0.91252 0.33957 0.0
H348 H 0.04198 0.87139 0.39582 0.0
C349 C 0.00713 0.84467 0.32782 0.0
C350 C 0.00658 0.78708 0.34033 0.0
H351 H 0.02542 0.9572 0.32937 0.0
H352 H -0.0008 0.83856 0.30875 0.0
C353 C 0.01807 0.79683 0.36497 0.0
C354 C 0.21107 0.07604 0.67159 0.0
C355 C 0.18999 0.03624 0.69247 0.0
H356 H 0.28013 0.10558 0.64077 0.0
C357 C 0.22022 0.99029 0.69738 0.0
H358 H 0.18822 0.1113 0.66716 0.0
C359 C 0.27367 0.9875 0.68224 0.0
C360 C 0.2977 0.03083 0.66206 0.0
H361 H 0.20498 0.959 0.71336 0.0
H362 H 0.29841 0.95401 0.68679 0.0
C363 C 0.26419 0.07327 0.65656 0.0
C364 C 0.29793 0.29369 0.04844 0.0
C365 C 0.24246 0.30869 0.05753 0.0
H366 H 0.3905 0.32669 0.02463 0.0
C367 C 0.24772 0.37776 0.05299 0.0
H368 H 0.29498 0.24064 0.05159 0.0
C369 C 0.30333 0.42785 0.03788 0.0
C370 C 0.35368 0.409 0.02664 0.0
H371 H 0.20617 0.39109 0.06007 0.0
H372 H 0.30415 0.47937 0.034 0.0
C373 C 0.35277 0.34316 0.03296 0.0
C374 C 0.08795 0.34059 0.37949 0.0
C375 C 0.03034 0.26369 0.37961 0.0
H376 H 0.12993 0.44718 0.36381 0.0
C377 C 0.96633 0.23653 0.36461 0.0
H378 H 0.1374 0.36344 0.39113 0.0
C379 C 0.96243 0.28449 0.34872 0.0
C380 C 0.02226 0.36043 0.34771 0.0
H381 H 0.92096 0.1775 0.3644 0.0
H382 H 0.91449 0.26109 0.33644 0.0
C383 C 0.08377 0.38851 0.36381 0.0
loop_
_geom_bond_atom_site_label_1
_geom_bond_atom_site_label_2
_geom_bond_distance
_geom_bond_site_symmetry_2
_ccdc_geom_bond_type
C0 O1 1.306 . S
C0 O3 1.160 . S
O1 C0 1.306 . S
O1 Cd2 2.228 . S
Cd2 O1 2.228 . S
Cd2 O6 2.273 1_455 S
Cd2 O10 2.277 . S
O3 C0 1.160 . S
O3 Cd4 2.203 . S
Cd4 O3 2.203 . S
Cd4 O6 2.411 1_455 S
Cd4 O7 2.333 1_545 S
Cd4 O8 2.352 1_545 S
Cd4 O12 2.277 . S
Cd4 O13 2.356 . S
C5 O10 1.209 . S
C5 O12 1.226 . S
O6 Cd2 2.273 1_655 S
O6 Cd4 2.411 1_655 S
O6 C9 1.320 1_545 S
O7 Cd4 2.333 1_565 S
O7 C9 1.214 1_455 S
O8 Cd4 2.352 1_565 S
O8 C11 1.258 . S
C9 O6 1.320 1_565 S
C9 O7 1.214 1_655 S
O10 Cd2 2.277 . S
O10 C5 1.209 . S
C11 O8 1.258 . S
C11 O13 1.282 1_565 S
O12 Cd4 2.277 . S
O12 C5 1.226 . S
O13 Cd4 2.356 . S
O13 C11 1.282 1_545 S
C14 O15 1.306 . S
C14 O17 1.160 . S
O15 C14 1.306 . S
O15 Cd16 2.228 . S
Cd16 O15 2.228 . S
Cd16 O20 2.273 . S
Cd16 O24 2.277 1_545 S
O17 C14 1.160 . S
O17 Cd18 2.203 . S
Cd18 O17 2.203 . S
Cd18 O20 2.411 . S
Cd18 O21 2.333 1_455 S
Cd18 O22 2.352 1_455 S
Cd18 O26 2.277 1_445 S
Cd18 O27 2.356 1_445 S
C19 O24 1.209 . S
C19 O26 1.226 1_455 S
O20 Cd16 2.273 . S
O20 Cd18 2.411 . S
O20 C23 1.320 . S
O21 Cd18 2.333 1_655 S
O21 C23 1.214 1_655 S
O22 Cd18 2.352 1_655 S
O22 C25 1.258 . S
C23 O20 1.320 . S
C23 O21 1.214 1_455 S
O24 Cd16 2.277 1_565 S
O24 C19 1.209 . S
C25 O22 1.258 . S
C25 O27 1.282 1_545 S
O26 Cd18 2.277 1_665 S
O26 C19 1.226 1_655 S
O27 Cd18 2.356 1_665 S
O27 C25 1.282 1_565 S
C28 O29 1.306 . S
C28 O31 1.160 . S
O29 C28 1.306 . S
O29 Cd30 2.228 . S
Cd30 O29 2.228 . S
Cd30 O34 2.273 . S
Cd30 O38 2.277 . S
O31 C28 1.160 . S
O31 Cd32 2.203 . S
Cd32 O31 2.203 . S
Cd32 O34 2.411 . S
Cd32 O35 2.333 . S
Cd32 O36 2.352 . S
Cd32 O40 2.277 . S
Cd32 O41 2.356 . S
C33 O38 1.209 . S
C33 O40 1.226 . S
O34 Cd30 2.273 . S
O34 Cd32 2.411 . S
O34 C37 1.320 . S
O35 Cd32 2.333 . S
O35 C37 1.214 . S
O36 Cd32 2.352 . S
O36 C39 1.258 . S
C37 O34 1.320 . S
C37 O35 1.214 . S
O38 Cd30 2.277 . S
O38 C33 1.209 . S
C39 O36 1.258 . S
C39 O41 1.282 . S
O40 Cd32 2.277 . S
O40 C33 1.226 . S
O41 Cd32 2.356 . S
O41 C39 1.282 . S
H42 O68 0.856 . S
H43 O71 0.854 . S
H44 C79 0.930 . S
H45 C80 0.930 . S
H46 C82 0.930 . S
H47 C83 0.930 . S
H48 C85 0.931 1_655 S
H49 C86 0.930 1_655 S
H50 C88 0.930 . S
H51 C89 0.929 . S
H52 C91 0.930 1_655 S
H53 C92 0.931 1_655 S
H54 C94 0.930 . S
H55 C95 0.929 . S
H56 C97 0.931 1_655 S
H57 C98 0.930 1_655 S
H58 C100 0.930 . S
H59 C101 0.932 . S
H60 C103 0.930 . S
H61 C104 0.929 . S
H62 C106 0.931 . S
H63 C107 0.930 . S
H64 C109 0.929 . S
H65 C110 0.931 1_655 S
H66 C112 0.930 . S
H67 C113 0.929 . S
O68 H42 0.856 . S
O68 C114 1.300 . S
O69 C114 1.209 . S
O70 C115 1.199 . S
O71 H43 0.854 . S
O71 C115 1.297 1_545 S
C72 C73 1.404 . S
C72 C77 1.397 . S
C72 C78 1.492 . S
C73 C72 1.404 . S
C73 C74 1.396 . S
C73 C84 1.492 . S
C74 C73 1.396 . S
C74 C75 1.397 . S
C74 C90 1.509 . S
C75 C74 1.397 . S
C75 C76 1.412 . S
C75 C96 1.485 . S
C76 C75 1.412 . S
C76 C77 1.388 . S
C76 C102 1.490 . S
C77 C72 1.397 . S
C77 C76 1.388 . S
C77 C108 1.519 . S
C78 C72 1.492 . S
C78 C79 1.363 1_455 S
C78 C83 1.390 . S
C79 H44 0.930 . S
C79 C78 1.363 1_655 S
C79 C80 1.372 . S
C80 H45 0.930 . S
C80 C79 1.372 . S
C80 C81 1.383 1_655 S
C81 C80 1.383 1_455 S
C81 C82 1.395 . S
C82 H46 0.930 . S
C82 C81 1.395 . S
C82 C83 1.362 . S
C83 H47 0.930 . S
C83 C78 1.390 . S
C83 C82 1.362 . S
C84 C73 1.492 . S
C84 C85 1.377 . S
C84 C89 1.397 . S
C85 H48 0.931 1_455 S
C85 C84 1.377 . S
C85 C86 1.376 . S
C86 H49 0.930 1_455 S
C86 C85 1.376 . S
C86 C87 1.376 . S
C87 C86 1.376 . S
C87 C88 1.378 . S
C87 C114 1.486 . S
C88 H50 0.930 . S
C88 C87 1.378 . S
C88 C89 1.376 . S
C89 H51 0.929 . S
C89 C84 1.397 . S
C89 C88 1.376 . S
C90 C74 1.509 . S
C90 C91 1.391 . S
C90 C95 1.386 . S
C91 H52 0.930 1_455 S
C91 C90 1.391 . S
C91 C92 1.375 . S
C92 H53 0.931 1_455 S
C92 C91 1.375 . S
C92 C93 1.375 . S
C93 C92 1.375 . S
C93 C94 1.361 . S
C94 H54 0.930 . S
C94 C93 1.361 . S
C94 C95 1.399 . S
C95 H55 0.929 . S
C95 C90 1.386 . S
C95 C94 1.399 . S
C96 C75 1.485 . S
C96 C97 1.394 . S
C96 C101 1.360 . S
C97 H56 0.931 1_455 S
C97 C96 1.394 . S
C97 C98 1.372 . S
C98 H57 0.930 1_455 S
C98 C97 1.372 . S
C98 C99 1.397 . S
C99 C98 1.397 . S
C99 C100 1.390 . S
C99 C115 1.476 . S
C100 H58 0.930 . S
C100 C99 1.390 . S
C100 C101 1.366 . S
C101 H59 0.932 . S
C101 C96 1.360 . S
C101 C100 1.366 . S
C102 C76 1.490 . S
C102 C103 1.380 1_455 S
C102 C107 1.386 . S
C103 H60 0.930 . S
C103 C102 1.380 1_655 S
C103 C104 1.381 . S
C104 H61 0.929 . S
C104 C103 1.381 . S
C104 C105 1.371 1_655 S
C105 C104 1.371 1_455 S
C105 C106 1.380 . S
C106 H62 0.931 . S
C106 C105 1.380 . S
C106 C107 1.387 . S
C107 H63 0.930 . S
C107 C102 1.386 . S
C107 C106 1.387 . S
C108 C77 1.519 . S
C108 C109 1.377 1_455 S
C108 C113 1.361 . S
C109 H64 0.929 . S
C109 C108 1.377 1_655 S
C109 C110 1.386 1_655 S
C110 H65 0.931 1_455 S
C110 C109 1.386 1_455 S
C110 C111 1.363 . S
C111 C110 1.363 . S
C111 C112 1.385 . S
C112 H66 0.930 . S
C112 C111 1.385 . S
C112 C113 1.396 . S
C113 H67 0.929 . S
C113 C108 1.361 . S
C113 C112 1.396 . S
C114 O68 1.300 . S
C114 O69 1.209 . S
C114 C87 1.486 . S
C115 O70 1.199 . S
C115 O71 1.297 1_565 S
C115 C99 1.476 . S
H116 O142 0.856 . S
H117 O145 0.854 . S
H118 C153 0.930 1_565 S
H119 C154 0.930 1_565 S
H120 C156 0.930 . S
H121 C157 0.930 . S
H122 C159 0.931 1_565 S
H123 C160 0.930 1_565 S
H124 C162 0.930 . S
H125 C163 0.929 . S
H126 C165 0.919 1_565 S
H127 C166 0.931 . S
H128 C168 0.930 . S
H129 C169 0.929 . S
H130 C171 0.931 . S
H131 C172 0.930 . S
H132 C174 0.930 . S
H133 C175 0.932 . S
H134 C177 0.930 1_565 S
H135 C178 0.929 1_565 S
H136 C180 0.931 . S
H137 C181 0.930 . S
H138 C183 0.929 . S
H139 C184 0.931 . S
H140 C186 0.930 . S
H141 C187 0.929 . S
O142 H116 0.856 . S
O142 C188 1.300 . S
O143 C188 1.209 . S
O144 C189 1.199 . S
O145 H117 0.854 . S
O145 C189 1.297 . S
C146 C147 1.404 . S
C146 C151 1.397 . S
C146 C152 1.492 . S
C147 C146 1.404 . S
C147 C148 1.396 . S
C147 C158 1.492 . S
C148 C147 1.396 . S
C148 C149 1.397 . S
C148 C164 1.509 . S
C149 C148 1.397 . S
C149 C150 1.412 . S
C149 C170 1.485 . S
C150 C149 1.412 . S
C150 C151 1.388 . S
C150 C176 1.490 . S
C151 C146 1.397 . S
C151 C150 1.388 . S
C151 C182 1.519 . S
C152 C146 1.492 . S
C152 C153 1.363 . S
C152 C157 1.390 . S
C153 H118 0.930 1_545 S
C153 C152 1.363 . S
C153 C154 1.372 . S
C154 H119 0.930 1_545 S
C154 C153 1.372 . S
C154 C155 1.383 . S
C155 C154 1.383 . S
C155 C156 1.395 . S
C156 H120 0.930 . S
C156 C155 1.395 . S
C156 C157 1.362 . S
C157 H121 0.930 . S
C157 C152 1.390 . S
C157 C156 1.362 . S
C158 C147 1.492 . S
C158 C159 1.377 . S
C158 C163 1.397 . S
C159 H122 0.931 1_545 S
C159 C158 1.377 . S
C159 C160 1.376 . S
C160 H123 0.930 1_545 S
C160 C159 1.376 . S
C160 C161 1.376 . S
C161 C160 1.376 . S
C161 C162 1.378 . S
C161 C188 1.486 . S
C162 H124 0.930 . S
C162 C161 1.378 . S
C162 C163 1.376 . S
C163 H125 0.929 . S
C163 C158 1.397 . S
C163 C162 1.376 . S
C164 C148 1.509 . S
C164 C165 1.391 . S
C164 C169 1.386 . S
C165 H126 0.919 1_545 S
C165 C164 1.391 . S
C165 C166 1.375 . S
C166 H127 0.931 . S
C166 C165 1.375 . S
C166 C167 1.375 . S
C167 C166 1.375 . S
C167 C168 1.361 . S
C168 H128 0.930 . S
C168 C167 1.361 . S
C168 C169 1.399 . S
C169 H129 0.929 . S
C169 C164 1.386 . S
C169 C168 1.399 . S
C170 C149 1.485 . S
C170 C171 1.394 . S
C170 C175 1.360 . S
C171 H130 0.931 . S
C171 C170 1.394 . S
C171 C172 1.372 . S
C172 H131 0.930 . S
C172 C171 1.372 . S
C172 C173 1.397 . S
C173 C172 1.397 . S
C173 C174 1.390 . S
C173 C189 1.476 . S
C174 H132 0.930 . S
C174 C173 1.390 . S
C174 C175 1.366 . S
C175 H133 0.932 . S
C175 C170 1.360 . S
C175 C174 1.366 . S
C176 C150 1.490 . S
C176 C177 1.380 . S
C176 C181 1.386 . S
C177 H134 0.930 1_545 S
C177 C176 1.380 . S
C177 C178 1.381 . S
C178 H135 0.929 1_545 S
C178 C177 1.381 . S
C178 C179 1.371 . S
C179 C178 1.371 . S
C179 C180 1.380 . S
C180 H136 0.931 . S
C180 C179 1.380 . S
C180 C181 1.387 . S
C181 H137 0.930 . S
C181 C176 1.386 . S
C181 C180 1.387 . S
C182 C151 1.519 . S
C182 C183 1.377 . S
C182 C187 1.361 . S
C183 H138 0.929 . S
C183 C182 1.377 . S
C183 C184 1.386 . S
C184 H139 0.931 . S
C184 C183 1.386 . S
C184 C185 1.363 . S
C185 C184 1.363 . S
C185 C186 1.385 . S
C186 H140 0.930 . S
C186 C185 1.385 . S
C186 C187 1.396 . S
C187 H141 0.929 . S
C187 C182 1.361 . S
C187 C186 1.396 . S
C188 O142 1.300 . S
C188 O143 1.209 . S
C188 C161 1.486 . S
C189 O144 1.199 . S
C189 O145 1.297 . S
C189 C173 1.476 . S
H190 O216 0.856 . S
H191 O219 0.854 . S
H192 C227 0.930 . S
H193 C228 0.930 . S
H194 C230 0.930 . S
H195 C231 0.930 . S
H196 C233 0.931 . S
H197 C234 0.930 . S
H198 C236 0.930 . S
H199 C237 0.929 . S
H200 C239 0.930 . S
H201 C240 0.931 1_554 S
H202 C242 0.930 . S
H203 C243 0.929 . S
H204 C245 0.931 . S
H205 C246 0.930 . S
H206 C248 0.930 . S
H207 C249 0.932 . S
H208 C251 0.930 . S
H209 C252 0.929 . S
H210 C254 0.931 . S
H211 C255 0.930 . S
H212 C257 0.929 . S
H213 C258 0.931 . S
H214 C260 0.930 . S
H215 C261 0.929 . S
O216 H190 0.856 . S
O216 C262 1.300 . S
O217 C262 1.209 . S
O218 C263 1.199 . S
O219 H191 0.854 . S
O219 C263 1.297 . S
C220 C221 1.404 . S
C220 C225 1.397 . S
C220 C226 1.492 . S
C221 C220 1.404 . S
C221 C222 1.396 . S
C221 C232 1.492 . S
C222 C221 1.396 . S
C222 C223 1.397 . S
C222 C238 1.509 . S
C223 C222 1.397 . S
C223 C224 1.412 . S
C223 C244 1.485 . S
C224 C223 1.412 . S
C224 C225 1.388 . S
C224 C250 1.490 . S
C225 C220 1.397 . S
C225 C224 1.388 . S
C225 C256 1.519 . S
C226 C220 1.492 . S
C226 C227 1.363 . S
C226 C231 1.390 . S
C227 H192 0.930 . S
C227 C226 1.363 . S
C227 C228 1.372 . S
C228 H193 0.930 . S
C228 C227 1.372 . S
C228 C229 1.383 . S
C229 C228 1.383 . S
C229 C230 1.395 . S
C230 H194 0.930 . S
C230 C229 1.395 . S
C230 C231 1.362 . S
C231 H195 0.930 . S
C231 C226 1.390 . S
C231 C230 1.362 . S
C232 C221 1.492 . S
C232 C233 1.377 1_556 S
C232 C237 1.397 . S
C233 H196 0.931 . S
C233 C232 1.377 1_554 S
C233 C234 1.376 . S
C234 H197 0.930 . S
C234 C233 1.376 . S
C234 C235 1.376 . S
C235 C234 1.376 . S
C235 C236 1.378 . S
C235 C262 1.486 . S
C236 H198 0.930 . S
C236 C235 1.378 . S
C236 C237 1.376 1_554 S
C237 H199 0.929 . S
C237 C232 1.397 . S
C237 C236 1.376 1_556 S
C238 C222 1.509 . S
C238 C239 1.391 . S
C238 C243 1.386 . S
C239 H200 0.930 . S
C239 C238 1.391 . S
C239 C240 1.375 . S
C240 H201 0.931 1_556 S
C240 C239 1.375 . S
C240 C241 1.375 1_556 S
C241 C240 1.375 1_554 S
C241 C242 1.361 . S
C242 H202 0.930 . S
C242 C241 1.361 . S
C242 C243 1.399 1_554 S
C243 H203 0.929 . S
C243 C238 1.386 . S
C243 C242 1.399 1_556 S
C244 C223 1.485 . S
C244 C245 1.394 . S
C244 C249 1.360 . S
C245 H204 0.931 . S
C245 C244 1.394 . S
C245 C246 1.372 . S
C246 H205 0.930 . S
C246 C245 1.372 . S
C246 C247 1.397 . S
C247 C246 1.397 . S
C247 C248 1.390 . S
C247 C263 1.476 . S
C248 H206 0.930 . S
C248 C247 1.390 . S
C248 C249 1.366 . S
C249 H207 0.932 . S
C249 C244 1.360 . S
C249 C248 1.366 . S
C250 C224 1.490 . S
C250 C251 1.380 . S
C250 C255 1.386 . S
C251 H208 0.930 . S
C251 C250 1.380 . S
C251 C252 1.381 . S
C252 H209 0.929 . S
C252 C251 1.381 . S
C252 C253 1.371 . S
C253 C252 1.371 . S
C253 C254 1.380 . S
C254 H210 0.931 . S
C254 C253 1.380 . S
C254 C255 1.387 . S
C255 H211 0.930 . S
C255 C250 1.386 . S
C255 C254 1.387 . S
C256 C225 1.519 . S
C256 C257 1.377 . S
C256 C261 1.361 . S
C257 H212 0.929 . S
C257 C256 1.377 . S
C257 C258 1.386 . S
C258 H213 0.931 . S
C258 C257 1.386 . S
C258 C259 1.363 . S
C259 C258 1.363 . S
C259 C260 1.385 . S
C260 H214 0.930 . S
C260 C259 1.385 . S
C260 C261 1.396 . S
C261 H215 0.929 . S
C261 C256 1.361 . S
C261 C260 1.396 . S
C262 O216 1.300 . S
C262 O217 1.209 . S
C262 C235 1.486 . S
C263 O218 1.199 . S
C263 O219 1.297 . S
C263 C247 1.476 . S
C264 C265 1.387 . S
C264 H268 0.950 . S
C264 C273 1.390 . S
C265 C264 1.387 . S
C265 C267 1.387 . S
H266 C273 0.950 . S
C267 C265 1.387 . S
C267 C269 1.390 . S
C267 H271 0.950 . S
H268 C264 0.950 . S
C269 C267 1.390 . S
C269 C270 1.387 . S
C269 H272 0.950 . S
C270 C269 1.387 . S
C270 C273 1.387 . S
H271 C267 0.950 . S
H272 C269 0.950 . S
C273 C264 1.390 . S
C273 H266 0.950 . S
C273 C270 1.387 . S
C274 C275 1.387 . S
C274 H278 0.950 . S
C274 C283 1.390 . S
C275 C274 1.387 . S
C275 C277 1.387 1_545 S
H276 C283 0.950 . S
C277 C275 1.387 1_565 S
C277 C279 1.390 . S
C277 H281 0.950 . S
H278 C274 0.950 . S
C279 C277 1.390 . S
C279 C280 1.387 1_565 S
C279 H282 0.950 . S
C280 C279 1.387 1_545 S
C280 C283 1.387 . S
H281 C277 0.950 . S
H282 C279 0.950 . S
C283 C274 1.390 . S
C283 H276 0.950 . S
C283 C280 1.387 . S
C284 C285 1.387 . S
C284 H288 0.950 1_565 S
C284 C293 1.390 . S
C285 C284 1.387 . S
C285 C287 1.387 . S
H286 C293 0.950 . S
C287 C285 1.387 . S
C287 C289 1.390 . S
C287 H291 0.950 . S
H288 C284 0.950 1_545 S
C289 C287 1.390 . S
C289 C290 1.387 . S
C289 H292 0.950 . S
C290 C289 1.387 . S
C290 C293 1.387 . S
H291 C287 0.950 . S
H292 C289 0.950 . S
C293 C284 1.390 . S
C293 H286 0.950 . S
C293 C290 1.387 . S
C294 C295 1.387 . S
C294 H298 0.950 . S
C294 C303 1.390 . S
C295 C294 1.387 . S
C295 C297 1.387 . S
H296 C303 0.950 . S
C297 C295 1.387 . S
C297 C299 1.390 . S
C297 H301 0.950 . S
H298 C294 0.950 . S
C299 C297 1.390 . S
C299 C300 1.387 . S
C299 H302 0.950 . S
C300 C299 1.387 . S
C300 C303 1.387 . S
H301 C297 0.950 . S
H302 C299 0.950 . S
C303 C294 1.390 . S
C303 H296 0.950 . S
C303 C300 1.387 . S
C304 C305 1.387 . S
C304 H308 0.950 1_545 S
C304 C313 1.390 . S
C305 C304 1.387 . S
C305 C307 1.387 . S
H306 C313 0.950 1_565 S
C307 C305 1.387 . S
C307 C309 1.390 . S
C307 H311 0.950 . S
H308 C304 0.950 1_565 S
C309 C307 1.390 . S
C309 C310 1.387 . S
C309 H312 0.950 . S
C310 C309 1.387 . S
C310 C313 1.387 . S
H311 C307 0.950 . S
H312 C309 0.950 . S
C313 C304 1.390 . S
C313 H306 0.950 1_545 S
C313 C310 1.387 . S
C314 C315 1.387 . S
C314 H318 0.950 . S
C314 C323 1.390 . S
C315 C314 1.387 . S
C315 C317 1.387 . S
H316 C323 0.950 . S
C317 C315 1.387 . S
C317 C319 1.390 . S
C317 H321 0.950 . S
H318 C314 0.950 . S
C319 C317 1.390 . S
C319 C320 1.387 . S
C319 H322 0.950 . S
C320 C319 1.387 . S
C320 C323 1.387 . S
H321 C317 0.950 . S
H322 C319 0.950 . S
C323 C314 1.390 . S
C323 H316 0.950 . S
C323 C320 1.387 . S
C324 C325 1.387 . S
C324 H328 0.950 . S
C324 C333 1.390 . S
C325 C324 1.387 . S
C325 C327 1.387 . S
H326 C333 0.950 . S
C327 C325 1.387 . S
C327 C329 1.390 . S
C327 H331 0.950 . S
H328 C324 0.950 . S
C329 C327 1.390 . S
C329 C330 1.387 . S
C329 H332 0.950 . S
C330 C329 1.387 . S
C330 C333 1.387 . S
H331 C327 0.950 . S
H332 C329 0.950 . S
C333 C324 1.390 . S
C333 H326 0.950 . S
C333 C330 1.387 . S
C334 C335 1.387 1_545 S
C334 H338 0.950 1_655 S
C334 C343 1.390 1_544 S
C335 C334 1.387 1_565 S
C335 C337 1.387 . S
H336 C343 0.950 1_545 S
C337 C335 1.387 . S
C337 C339 1.390 . S
C337 H341 0.950 . S
H338 C334 0.950 1_455 S
C339 C337 1.390 . S
C339 C340 1.387 1_554 S
C339 H342 0.950 . S
C340 C339 1.387 1_556 S
C340 C343 1.387 . S
H341 C337 0.950 . S
H342 C339 0.950 . S
C343 C334 1.390 1_566 S
C343 H336 0.950 1_565 S
C343 C340 1.387 . S
C344 C345 1.387 . S
C344 H348 0.950 . S
C344 C353 1.390 . S
C345 C344 1.387 . S
C345 C347 1.387 1_455 S
H346 C353 0.950 . S
C347 C345 1.387 1_655 S
C347 C349 1.390 . S
C347 H351 0.950 . S
H348 C344 0.950 . S
C349 C347 1.390 . S
C349 C350 1.387 1_655 S
C349 H352 0.950 . S
C350 C349 1.387 1_455 S
C350 C353 1.387 . S
H351 C347 0.950 . S
H352 C349 0.950 . S
C353 C344 1.390 . S
C353 H346 0.950 . S
C353 C350 1.387 . S
C354 C355 1.387 . S
C354 H358 0.950 1_545 S
C354 C363 1.390 . S
C355 C354 1.387 . S
C355 C357 1.387 . S
H356 C363 0.950 1_565 S
C357 C355 1.387 . S
C357 C359 1.390 . S
C357 H361 0.950 . S
H358 C354 0.950 1_565 S
C359 C357 1.390 . S
C359 C360 1.387 . S
C359 H362 0.950 . S
C360 C359 1.387 . S
C360 C363 1.387 . S
H361 C357 0.950 . S
H362 C359 0.950 . S
C363 C354 1.390 . S
C363 H356 0.950 1_545 S
C363 C360 1.387 . S
C364 C365 1.387 . S
C364 H368 0.950 . S
C364 C373 1.390 . S
C365 C364 1.387 . S
C365 C367 1.387 . S
H366 C373 0.955 . S
C367 C365 1.387 . S
C367 C369 1.390 . S
C367 H371 0.950 . S
H368 C364 0.950 . S
C369 C367 1.390 . S
C369 C370 1.387 . S
C369 H372 0.950 . S
C370 C369 1.387 . S
C370 C373 1.387 . S
H371 C367 0.950 . S
H372 C369 0.950 . S
C373 C364 1.390 . S
C373 H366 0.955 . S
C373 C370 1.387 . S
C374 C375 1.387 . S
C374 H378 0.950 . S
C374 C383 1.390 . S
C375 C374 1.387 . S
C375 C377 1.387 . S
H376 C383 0.950 . S
C377 C375 1.387 . S
C377 C379 1.390 . S
C377 H381 0.950 . S
H378 C374 0.950 . S
C379 C377 1.390 . S
C379 C380 1.387 . S
C379 H382 0.950 . S
C380 C379 1.387 . S
C380 C383 1.387 . S
H381 C377 0.950 . S
H382 C379 0.950 . S
C383 C374 1.390 . S
C383 H376 0.950 . S
C383 C380 1.387 . S
C270 C81 1.494 . S
C265 C0 1.664 . S
C275 C25 1.607 . S
C280 C155 1.460 . S
C285 C33 2.051 1_665 S
C290 C259 2.052 . S
C295 C11 0.930 . S
C300 C93 0.926 . S
C310 C167 0.957 . S
C305 C14 0.963 . S
C315 C37 1.779 . S
C320 C253 1.581 . S
C330 C185 2.045 . S
C325 C28 2.052 1_655 S
C335 C9 1.707 . S
C340 C229 1.531 . S
C350 C105 1.610 . S
C345 C19 1.800 . S
C360 C179 1.509 . S
C355 C39 1.666 . S
C370 C241 0.950 . S
C365 C5 0.951 . S
C375 C23 2.140 . S
C380 C111 2.138 . S
