# Generated by pormake.
# Topology hwx, (6,3)-cn, num edge types: 1
# Building blocks:
#     Node 0, Type 0, BuildingBlock: OJICUG_clean_sbu_0, # of connection points: 6
#     Node 1, Type 0, BuildingBlock: OJICUG_clean_sbu_0, # of connection points: 6
#     Node 2, Type 0, BuildingBlock: OJICUG_clean_sbu_0, # of connection points: 6
#     Node 3, Type 0, BuildingBlock: OJICUG_clean_sbu_0, # of connection points: 6
#     Node 4, Type 1, BuildingBlock: PAMTOO_clean_linker_0, # of connection points: 3
#     Node 5, Type 1, BuildingBlock: PAMTOO_clean_linker_0, # of connection points: 3
#     Node 6, Type 1, BuildingBlock: PAMTOO_clean_linker_0, # of connection points: 3
#     Node 7, Type 1, BuildingBlock: PAMTOO_clean_linker_0, # of connection points: 3
#     Node 8, Type 1, BuildingBlock: PAMTOO_clean_linker_0, # of connection points: 3
#     Node 9, Type 1, BuildingBlock: PAMTOO_clean_linker_0, # of connection points: 3
#     Node 10, Type 1, BuildingBlock: PAMTOO_clean_linker_0, # of connection points: 3
#     Node 11, Type 1, BuildingBlock: PAMTOO_clean_linker_0, # of connection points: 3
#     Edge 12, Type (0, 1), BuildingBlock: ZUJKAS_clean_linker_0, # of connection points: 2
#     Edge 13, Type (0, 1), BuildingBlock: ZUJKAS_clean_linker_0, # of connection points: 2
#     Edge 14, Type (0, 1), BuildingBlock: ZUJKAS_clean_linker_0, # of connection points: 2
#     Edge 15, Type (0, 1), BuildingBlock: ZUJKAS_clean_linker_0, # of connection points: 2
#     Edge 16, Type (0, 1), BuildingBlock: ZUJKAS_clean_linker_0, # of connection points: 2
#     Edge 17, Type (0, 1), BuildingBlock: ZUJKAS_clean_linker_0, # of connection points: 2
#     Edge 18, Type (0, 1), BuildingBlock: ZUJKAS_clean_linker_0, # of connection points: 2
#     Edge 19, Type (0, 1), BuildingBlock: ZUJKAS_clean_linker_0, # of connection points: 2
#     Edge 20, Type (0, 1), BuildingBlock: ZUJKAS_clean_linker_0, # of connection points: 2
#     Edge 21, Type (0, 1), BuildingBlock: ZUJKAS_clean_linker_0, # of connection points: 2
#     Edge 22, Type (0, 1), BuildingBlock: ZUJKAS_clean_linker_0, # of connection points: 2
#     Edge 23, Type (0, 1), BuildingBlock: ZUJKAS_clean_linker_0, # of connection points: 2
#     Edge 24, Type (0, 1), BuildingBlock: ZUJKAS_clean_linker_0, # of connection points: 2
#     Edge 25, Type (0, 1), BuildingBlock: ZUJKAS_clean_linker_0, # of connection points: 2
#     Edge 26, Type (0, 1), BuildingBlock: ZUJKAS_clean_linker_0, # of connection points: 2
#     Edge 27, Type (0, 1), BuildingBlock: ZUJKAS_clean_linker_0, # of connection points: 2
#     Edge 28, Type (0, 1), BuildingBlock: ZUJKAS_clean_linker_0, # of connection points: 2
#     Edge 29, Type (0, 1), BuildingBlock: ZUJKAS_clean_linker_0, # of connection points: 2
#     Edge 30, Type (0, 1), BuildingBlock: ZUJKAS_clean_linker_0, # of connection points: 2
#     Edge 31, Type (0, 1), BuildingBlock: ZUJKAS_clean_linker_0, # of connection points: 2
#     Edge 32, Type (0, 1), BuildingBlock: ZUJKAS_clean_linker_0, # of connection points: 2
#     Edge 33, Type (0, 1), BuildingBlock: ZUJKAS_clean_linker_0, # of connection points: 2
#     Edge 34, Type (0, 1), BuildingBlock: ZUJKAS_clean_linker_0, # of connection points: 2
#     Edge 35, Type (0, 1), BuildingBlock: ZUJKAS_clean_linker_0, # of connection points: 2
# Relax obj value: 0.008
# Max RMSD: 0.050
# Mean RMSD: 0.044
data_MOF--net-hwx--node1-OJICUG_clean_sbu_0--node2-PAMTOO_clean_linker_0--edge1-ZUJKAS_clean_linker_0
_symmetry_space_group_name_H-M    P1
_symmetry_Int_Tables_number       1
_symmetry_cell_setting            triclinic
loop_
_symmetry_equiv_pos_as_xyz
'x, y, z'
_cell_length_a     68.110235
_cell_length_b     68.085193
_cell_length_c     26.284184
_cell_angle_alpha  88.298336
_cell_angle_beta   91.694982
_cell_angle_gamma 89.992199
loop_
_atom_site_label
_atom_site_type_symbol
_atom_site_fract_x
_atom_site_fract_y
_atom_site_fract_z
_atom_type_partial_charge
Sc0 Sc 0.22053 0.22029 0.07221 0.0
Sc1 Sc 0.18861 0.18938 0.00318 0.0
Sc2 Sc 0.22028 0.22174 0.93804 0.0
O3 O 0.20982 0.21048 0.00449 0.0
C4 C 0.21799 0.26013 0.00517 0.0
C5 C 0.17455 0.21619 0.09247 0.0
C6 C 0.17448 0.21816 0.91095 0.0
C7 C 0.21643 0.17432 0.09653 0.0
C8 C 0.25948 0.21849 0.00721 0.0
C9 C 0.21622 0.17595 0.91475 0.0
O10 O 0.21818 0.25064 0.04757 0.0
O11 O 0.17125 0.20415 0.05722 0.0
O12 O 0.1913 0.22577 0.90465 0.0
O13 O 0.22413 0.19102 0.10405 0.0
O14 O 0.25035 0.21911 0.96432 0.0
O15 O 0.20372 0.17243 0.9488 0.0
O16 O 0.25074 0.21898 0.04929 0.0
O17 O 0.20321 0.17159 0.06226 0.0
O18 O 0.22318 0.19303 0.90597 0.0
O19 O 0.19158 0.22289 0.10302 0.0
O20 O 0.21883 0.25174 0.96264 0.0
O21 O 0.17142 0.20464 0.94417 0.0
Sc22 Sc 0.27596 0.7237 0.44202 0.0
Sc23 Sc 0.30748 0.68983 0.50787 0.0
Sc24 Sc 0.27747 0.72122 0.57624 0.0
O25 O 0.28696 0.71159 0.5087 0.0
C26 C 0.28061 0.76143 0.51075 0.0
C27 C 0.3215 0.71865 0.41822 0.0
C28 C 0.32339 0.71545 0.60018 0.0
C29 C 0.27813 0.67816 0.41653 0.0
C30 C 0.23759 0.72134 0.50932 0.0
C31 C 0.28042 0.67483 0.59805 0.0
O32 O 0.27946 0.75333 0.46777 0.0
O33 O 0.32464 0.70532 0.45235 0.0
O34 O 0.30681 0.72316 0.60814 0.0
O35 O 0.27111 0.69537 0.40927 0.0
O36 O 0.24708 0.72052 0.55171 0.0
O37 O 0.29256 0.67191 0.56328 0.0
O38 O 0.24599 0.7226 0.46675 0.0
O39 O 0.29148 0.67413 0.45005 0.0
O40 O 0.27387 0.6918 0.60746 0.0
O41 O 0.30469 0.72643 0.40971 0.0
O42 O 0.27999 0.75172 0.55278 0.0
O43 O 0.32586 0.70303 0.56575 0.0
Sc44 Sc 0.77516 0.77649 0.94014 0.0
Sc45 Sc 0.80734 0.80672 0.01066 0.0
Sc46 Sc 0.77571 0.77385 0.07423 0.0
O47 O 0.78608 0.78568 0.00832 0.0
C48 C 0.73638 0.77806 0.00514 0.0
C49 C 0.77962 0.82269 0.91853 0.0
C50 C 0.77951 0.81932 0.09979 0.0
C51 C 0.82106 0.78037 0.91956 0.0
C52 C 0.77802 0.73613 0.00548 0.0
C53 C 0.8216 0.77748 0.10145 0.0
O54 O 0.74506 0.77862 0.96294 0.0
O55 O 0.79235 0.82515 0.95407 0.0
O56 O 0.77222 0.80229 0.10678 0.0
O57 O 0.80408 0.77332 0.91023 0.0
O58 O 0.77799 0.74419 0.04852 0.0
O59 O 0.82479 0.79081 0.06783 0.0
O60 O 0.77679 0.74592 0.96354 0.0
O61 O 0.82441 0.7927 0.95418 0.0
O62 O 0.80468 0.77016 0.10823 0.0
O63 O 0.77232 0.80599 0.90871 0.0
O64 O 0.74555 0.77613 0.04783 0.0
O65 O 0.7925 0.82301 0.06709 0.0
Sc66 Sc 0.72347 0.27594 0.56988 0.0
Sc67 Sc 0.69059 0.30777 0.5015 0.0
Sc68 Sc 0.72128 0.27633 0.43565 0.0
O69 O 0.71178 0.28666 0.50239 0.0
C70 C 0.76137 0.27949 0.50164 0.0
C71 C 0.71941 0.32192 0.59051 0.0
C72 C 0.71664 0.3221 0.40851 0.0
C73 C 0.67811 0.27955 0.59462 0.0
C74 C 0.72061 0.23703 0.50454 0.0
C75 C 0.67492 0.27995 0.41385 0.0
O76 O 0.75319 0.27911 0.54458 0.0
O77 O 0.70675 0.3252 0.55485 0.0
O78 O 0.72415 0.30531 0.40202 0.0
O79 O 0.69491 0.2716 0.60167 0.0
O80 O 0.71971 0.24622 0.46178 0.0
O81 O 0.67223 0.29251 0.44777 0.0
O82 O 0.72229 0.24573 0.54663 0.0
O83 O 0.67468 0.29308 0.56113 0.0
O84 O 0.69179 0.27309 0.40464 0.0
O85 O 0.72625 0.30486 0.60147 0.0
O86 O 0.75174 0.27831 0.45962 0.0
O87 O 0.70403 0.3251 0.44208 0.0
H88 H 0.22907 0.55704 0.01987 0.0
H89 H 0.23105 0.50212 0.9432 0.0
H90 H 0.22145 0.50256 0.10398 0.0
H91 H 0.24821 0.47218 0.07257 0.0
C92 C 0.24199 0.46934 0.03384 0.0
O93 O 0.22517 0.48034 0.02499 0.0
H94 H 0.25327 0.47366 0.00581 0.0
C95 C 0.22791 0.54115 0.02072 0.0
C96 C 0.22467 0.53115 0.06714 0.0
C97 C 0.23048 0.53092 0.97583 0.0
C98 C 0.22894 0.51034 0.97728 0.0
C99 C 0.22568 0.50018 0.02347 0.0
C100 C 0.22363 0.51056 0.06834 0.0
H101 H 0.94171 0.72682 0.52291 0.0
H102 H 0.9967 0.72681 0.44648 0.0
H103 H 0.99623 0.7289 0.60957 0.0
H104 H 0.02507 0.75476 0.56255 0.0
C105 C 0.02821 0.74634 0.52806 0.0
O106 O 0.01843 0.72862 0.52993 0.0
H107 H 0.02303 0.75528 0.49411 0.0
C108 C 0.95764 0.72638 0.52453 0.0
C109 C 0.96761 0.72738 0.57187 0.0
C110 C 0.96789 0.7262 0.47901 0.0
C111 C 0.9885 0.7268 0.48118 0.0
C112 C 0.99863 0.72769 0.52825 0.0
C113 C 0.98823 0.72799 0.57347 0.0
H114 H 0.76382 0.44244 -2e-05 0.0
H115 H 0.77605 0.49678 0.07394 0.0
H116 H 0.76977 0.49608 0.91085 0.0
H117 H 0.80195 0.52153 0.94875 0.0
C118 C 0.79561 0.52574 0.98542 0.0
O119 O 0.77699 0.51803 0.98931 0.0
H120 H 0.80535 0.51976 0.01695 0.0
C121 C 0.76662 0.45812 0.99762 0.0
C122 C 0.76618 0.46792 0.94989 0.0
C123 C 0.77014 0.46832 0.04253 0.0
C124 C 0.77349 0.48863 0.03957 0.0
C125 C 0.77373 0.49849 0.99198 0.0
C126 C 0.77005 0.48818 0.94727 0.0
H127 H 0.05472 0.26584 0.49615 0.0
H128 H 0.00041 0.27924 0.56689 0.0
H129 H 0.0011 0.2706 0.40566 0.0
H130 H 0.97564 0.30355 0.43577 0.0
C131 C 0.97151 0.29771 0.47398 0.0
O132 O 0.97917 0.27911 0.48216 0.0
H133 H 0.97762 0.30781 0.50301 0.0
C134 C 0.03905 0.26863 0.49306 0.0
C135 C 0.02925 0.26749 0.44552 0.0
C136 C 0.02885 0.27281 0.53701 0.0
C137 C 0.00855 0.27617 0.53322 0.0
C138 C 0.9987 0.27578 0.48564 0.0
C139 C 0.009 0.27139 0.44193 0.0
H140 H 0.72882 0.94039 0.48927 0.0
H141 H 0.73074 0.99524 0.56657 0.0
H142 H 0.72284 0.99504 0.40388 0.0
H143 H 0.7495 0.02512 0.44119 0.0
C144 C 0.74311 0.02776 0.47888 0.0
O145 O 0.72602 0.01711 0.48374 0.0
H146 H 0.75413 0.02293 0.50884 0.0
C147 C 0.72783 0.95629 0.48828 0.0
C148 C 0.72527 0.96638 0.44124 0.0
C149 C 0.7301 0.96647 0.53375 0.0
C150 C 0.72882 0.98705 0.53206 0.0
C151 C 0.72616 0.99728 0.48527 0.0
C152 C 0.72447 0.98698 0.43993 0.0
H153 H 0.55618 0.23368 0.00566 0.0
H154 H 0.5008 0.2237 0.07696 0.0
H155 H 0.5031 0.22984 0.91404 0.0
H156 H 0.47108 0.25118 0.95683 0.0
C157 C 0.46868 0.24214 0.99208 0.0
O158 O 0.48 0.22535 0.9917 0.0
H159 H 0.47311 0.25118 0.02515 0.0
C160 C 0.54047 0.23115 0.00286 0.0
C161 C 0.53102 0.23181 0.95477 0.0
C162 C 0.52983 0.22804 0.04729 0.0
C163 C 0.50937 0.22568 0.04312 0.0
C164 C 0.49979 0.22631 0.99512 0.0
C165 C 0.51064 0.22901 0.95092 0.0
H166 H 0.26904 0.05626 0.52063 0.0
H167 H 0.27598 0.00169 0.44468 0.0
H168 H 0.27728 0.00231 0.60814 0.0
H169 H 0.30661 0.97622 0.56519 0.0
C170 C 0.29848 0.97206 0.52976 0.0
O171 O 0.27994 0.98022 0.52868 0.0
H172 H 0.30686 0.97778 0.49674 0.0
C173 C 0.27179 0.04056 0.52236 0.0
C174 C 0.27336 0.0307 0.56994 0.0
C175 C 0.27267 0.03033 0.47692 0.0
C176 C 0.27525 0.00987 0.47933 0.0
C177 C 0.27715 0.99987 0.52664 0.0
C178 C 0.27599 0.01022 0.57182 0.0
H179 H 0.44193 0.76716 0.01418 0.0
H180 H 0.49659 0.77398 0.93767 0.0
H181 H 0.49561 0.77633 0.1007 0.0
H182 H 0.52218 0.80512 0.05326 0.0
C183 C 0.52599 0.79697 0.0188 0.0
O184 O 0.51783 0.77845 0.02109 0.0
H185 H 0.51999 0.80539 0.98483 0.0
C186 C 0.45759 0.77004 0.01558 0.0
C187 C 0.46734 0.772 0.06295 0.0
C188 C 0.46792 0.77072 0.97014 0.0
C189 C 0.48834 0.77343 0.97231 0.0
C190 C 0.49821 0.77567 0.01934 0.0
C191 C 0.48778 0.77476 0.06457 0.0
H192 H 0.17559 0.23438 0.18411 0.0
H193 H 0.1477 0.24371 0.23469 0.0
H194 H 0.10765 0.22266 0.11841 0.0
H195 H 0.1354 0.21276 0.06828 0.0
H196 H 0.11733 0.26895 0.21542 0.0
H197 H 0.08913 0.19296 0.24309 0.0
H198 H 0.11286 0.19808 0.21714 0.0
H199 H 0.09096 0.20081 0.17762 0.0
C200 C 0.16085 0.23172 0.16928 0.0
C201 C 0.15774 0.22259 0.12245 0.0
C202 C 0.14492 0.2371 0.19819 0.0
C203 C 0.1256 0.23355 0.18074 0.0
C204 C 0.12243 0.22506 0.13324 0.0
H205 H 0.02753 0.28355 0.34819 0.0
H206 H 0.04852 0.27544 0.27731 0.0
C207 C 0.13833 0.21947 0.10457 0.0
C208 C 0.10885 0.23854 0.21278 0.0
H209 H 0.07039 0.21843 0.27638 0.0
C210 C 0.10699 0.25795 0.22858 0.0
C211 C 0.09545 0.2241 0.23006 0.0
C212 C 0.09724 0.20279 0.21655 0.0
C213 C 0.09239 0.26324 0.26224 0.0
C214 C 0.079 0.24879 0.27954 0.0
C215 C 0.08055 0.22951 0.26261 0.0
C216 C 0.06484 0.25276 0.31976 0.0
C217 C 0.09205 0.28399 0.28086 0.0
C218 C 0.06642 0.24207 0.36611 0.0
C219 C 0.05432 0.24642 0.40604 0.0
C220 C 0.04041 0.26166 0.4007 0.0
C221 C 0.03816 0.27178 0.35346 0.0
C222 C 0.05028 0.26732 0.31319 0.0
H223 H 0.10578 0.29208 0.27214 0.0
H224 H 0.07958 0.29208 0.2619 0.0
H225 H 0.09001 0.28406 0.32261 0.0
H226 H 0.07742 0.23066 0.37191 0.0
H227 H 0.0561 0.23804 0.44157 0.0
H228 H 0.26068 0.6751 0.68729 0.0
H229 H 0.25135 0.64687 0.74075 0.0
H230 H 0.27524 0.60762 0.63255 0.0
H231 H 0.28509 0.63576 0.57937 0.0
H232 H 0.2273 0.61539 0.72303 0.0
H233 H 0.30411 0.59056 0.76348 0.0
H234 H 0.29836 0.61412 0.73357 0.0
H235 H 0.29699 0.59219 0.69718 0.0
C236 C 0.26394 0.66048 0.67474 0.0
C237 C 0.27386 0.65772 0.62932 0.0
C238 C 0.25855 0.64435 0.7053 0.0
C239 C 0.2629 0.62516 0.69103 0.0
C240 C 0.27216 0.62231 0.64487 0.0
H241 H 0.21596 0.52651 0.87803 0.0
H242 H 0.22369 0.54675 0.8022 0.0
C243 C 0.27773 0.63844 0.61447 0.0
C244 C 0.25812 0.60829 0.72538 0.0
H245 H 0.27902 0.57162 0.80002 0.0
C246 C 0.23856 0.60568 0.73958 0.0
C247 C 0.27289 0.59574 0.74702 0.0
C248 C 0.29429 0.59832 0.73498 0.0
C249 C 0.23344 0.59126 0.77613 0.0
C250 C 0.24825 0.57888 0.7982 0.0
C251 C 0.26769 0.58104 0.78265 0.0
C252 C 0.24442 0.56537 0.84202 0.0
C253 C 0.21244 0.59011 0.79273 0.0
C254 C 0.25408 0.56864 0.88882 0.0
C255 C 0.2499 0.55705 0.93164 0.0
C256 C 0.23588 0.54194 0.92875 0.0
C257 C 0.22676 0.53811 0.88139 0.0
C258 C 0.23102 0.54976 0.83825 0.0
H259 H 0.20366 0.60304 0.77882 0.0
H260 H 0.20546 0.57673 0.77728 0.0
H261 H 0.21183 0.58908 0.8349 0.0
H262 H 0.26458 0.58051 0.89253 0.0
H263 H 0.25753 0.56007 0.96731 0.0
H264 H 0.82185 0.74654 0.17038 0.0
H265 H 0.8489 0.73544 0.22705 0.0
H266 H 0.8861 0.7808 0.16474 0.0
H267 H 0.85921 0.7919 0.10711 0.0
H268 H 0.90502 0.74398 0.17921 0.0
H269 H 0.86664 0.76605 0.35196 0.0
H270 H 0.85263 0.74978 0.31254 0.0
H271 H 0.85864 0.77399 0.2886 0.0
C272 C 0.83576 0.75419 0.16856 0.0
C273 C 0.83825 0.77029 0.13455 0.0
C274 C 0.8512 0.74782 0.20107 0.0
C275 C 0.86936 0.75752 0.20064 0.0
C276 C 0.87214 0.77319 0.16576 0.0
H277 H 0.97395 0.75065 0.39658 0.0
H278 H 0.95149 0.7565 0.32315 0.0
C279 C 0.85673 0.77953 0.13299 0.0
C280 C 0.8852 0.75169 0.2378 0.0
H281 H 0.89587 0.74756 0.36526 0.0
C282 C 0.9031 0.7448 0.21991 0.0
C283 C 0.88265 0.75294 0.2908 0.0
C284 C 0.86419 0.76126 0.31223 0.0
C285 C 0.91836 0.73864 0.25387 0.0
C286 C 0.91562 0.73959 0.30681 0.0
C287 C 0.89781 0.74666 0.32457 0.0
C288 C 0.93102 0.73369 0.34512 0.0
C289 C 0.93713 0.73084 0.23307 0.0
C290 C 0.92714 0.71868 0.38109 0.0
C291 C 0.93989 0.71534 0.42295 0.0
C292 C 0.9567 0.72705 0.42975 0.0
C293 C 0.96122 0.74127 0.39201 0.0
C294 C 0.94841 0.74462 0.35006 0.0
H295 H 0.93532 0.72703 0.19239 0.0
H296 H 0.94872 0.74223 0.23612 0.0
H297 H 0.94226 0.71762 0.2554 0.0
H298 H 0.91377 0.71011 0.37792 0.0
H299 H 0.93616 0.70416 0.45122 0.0
H300 H 0.71588 0.36093 0.56482 0.0
H301 H 0.72626 0.38889 0.6149 0.0
H302 H 0.74837 0.34929 0.73437 0.0
H303 H 0.73856 0.32118 0.68379 0.0
H304 H 0.71352 0.39931 0.70354 0.0
H305 H 0.7936 0.38677 0.72314 0.0
H306 H 0.77822 0.37368 0.67849 0.0
H307 H 0.78009 0.36563 0.74437 0.0
C308 C 0.72311 0.35814 0.60158 0.0
C309 C 0.72637 0.3388 0.62035 0.0
C310 C 0.72908 0.37416 0.6301 0.0
C311 C 0.73838 0.37122 0.67805 0.0
C312 C 0.74173 0.35194 0.69686 0.0
H313 H 0.73679 0.44129 0.93793 0.0
H314 H 0.73041 0.42023 0.86607 0.0
C315 C 0.73596 0.33587 0.66807 0.0
C316 C 0.7432 0.38829 0.70992 0.0
H317 H 0.77964 0.40838 0.78357 0.0
C318 C 0.72807 0.40145 0.7204 0.0
C319 C 0.76226 0.39137 0.73111 0.0
C320 C 0.77951 0.37873 0.71823 0.0
C321 C 0.73121 0.41697 0.75353 0.0
C322 C 0.74986 0.41908 0.77788 0.0
C323 C 0.76528 0.4066 0.76534 0.0
C324 C 0.75316 0.43294 0.81968 0.0
C325 C 0.71445 0.43081 0.76251 0.0
C326 C 0.7683 0.44693 0.81788 0.0
C327 C 0.7722 0.45888 0.85948 0.0
C328 C 0.76114 0.4568 0.90364 0.0
C329 C 0.74572 0.44308 0.90468 0.0
C330 C 0.74188 0.43119 0.86335 0.0
H331 H 0.70407 0.43168 0.72909 0.0
H332 H 0.70614 0.42527 0.79566 0.0
H333 H 0.71981 0.44584 0.77053 0.0
H334 H 0.77727 0.4484 0.78463 0.0
H335 H 0.78425 0.46923 0.85781 0.0
H336 H 0.63672 0.29226 0.41853 0.0
H337 H 0.6083 0.28087 0.36879 0.0
H338 H 0.64528 0.24053 0.29204 0.0
H339 H 0.6738 0.25164 0.34175 0.0
H340 H 0.60425 0.28294 0.26259 0.0
H341 H 0.59879 0.20596 0.33549 0.0
H342 H 0.61261 0.22452 0.36877 0.0
H343 H 0.62292 0.21268 0.31543 0.0
C344 C 0.63884 0.28086 0.39135 0.0
C345 C 0.65761 0.27289 0.38415 0.0
C346 C 0.62255 0.27435 0.36306 0.0
C347 C 0.62465 0.25964 0.32743 0.0
C348 C 0.64329 0.25159 0.32021 0.0
H349 H 0.56444 0.21038 0.07657 0.0
H350 H 0.58491 0.21728 0.1518 0.0
C351 C 0.65961 0.25811 0.34836 0.0
C352 C 0.60766 0.25371 0.29504 0.0
H353 H 0.581 0.21394 0.25763 0.0
C354 C 0.59891 0.26793 0.26201 0.0
C355 C 0.6008 0.23412 0.29452 0.0
C356 C 0.60913 0.21846 0.33079 0.0
C357 C 0.58414 0.26289 0.22649 0.0
C358 C 0.57765 0.24316 0.22488 0.0
C359 C 0.58595 0.22906 0.25914 0.0
C360 C 0.56378 0.23662 0.18443 0.0
C361 C 0.57637 0.27853 0.1892 0.0
C362 C 0.54475 0.24451 0.17909 0.0
C363 C 0.53307 0.24073 0.13582 0.0
C364 C 0.54025 0.22892 0.0975 0.0
C365 C 0.55867 0.21981 0.10509 0.0
C366 C 0.57033 0.22364 0.14816 0.0
H367 H 0.58567 0.29193 0.18909 0.0
H368 H 0.57551 0.2729 0.14997 0.0
H369 H 0.56135 0.28281 0.1998 0.0
H370 H 0.5393 0.25428 0.20723 0.0
H371 H 0.51894 0.24796 0.13098 0.0
H372 H 0.24336 0.17666 0.83952 0.0
H373 H 0.2544 0.14912 0.78991 0.0
H374 H 0.21611 0.11003 0.87245 0.0
H375 H 0.20481 0.13739 0.92194 0.0
H376 H 0.2721 0.11261 0.82521 0.0
H377 H 0.20071 0.10183 0.72145 0.0
H378 H 0.2064 0.12392 0.7552 0.0
H379 H 0.19964 0.1019 0.78968 0.0
C380 C 0.23722 0.16224 0.8471 0.0
C381 C 0.22306 0.15933 0.88452 0.0
C382 C 0.24361 0.1465 0.81881 0.0
C383 C 0.2359 0.12762 0.82717 0.0
C384 C 0.22201 0.12457 0.8649 0.0
H385 H 0.2507 0.0218 0.65174 0.0
H386 H 0.24323 0.04327 0.72197 0.0
C387 C 0.21561 0.14026 0.89323 0.0
C388 C 0.24228 0.11115 0.79604 0.0
H389 H 0.22603 0.07944 0.70595 0.0
C390 C 0.26204 0.10529 0.79923 0.0
C391 C 0.22906 0.10156 0.76252 0.0
C392 C 0.20779 0.10766 0.75651 0.0
C393 C 0.269 0.09014 0.76941 0.0
C394 C 0.25589 0.0809 0.7349 0.0
C395 C 0.23603 0.08646 0.73265 0.0
C396 C 0.26266 0.06665 0.69761 0.0
C397 C 0.29029 0.08415 0.77521 0.0
C398 C 0.27632 0.07252 0.66129 0.0
C399 C 0.28065 0.06029 0.62145 0.0
C400 C 0.27127 0.04201 0.61686 0.0
C401 C 0.25828 0.03572 0.65458 0.0
C402 C 0.25392 0.04801 0.6945 0.0
H403 H 0.29649 0.08773 0.8134 0.0
H404 H 0.29217 0.06818 0.76947 0.0
H405 H 0.29889 0.09232 0.74632 0.0
H406 H 0.28295 0.08696 0.66229 0.0
H407 H 0.29082 0.06545 0.59309 0.0
H408 H 0.35952 0.70544 0.42415 0.0
H409 H 0.38708 0.71661 0.37359 0.0
H410 H 0.34927 0.75826 0.29197 0.0
H411 H 0.32158 0.74738 0.34266 0.0
H412 H 0.38966 0.71544 0.26837 0.0
H413 H 0.39673 0.79188 0.33373 0.0
H414 H 0.38304 0.77326 0.36783 0.0
H415 H 0.37234 0.78555 0.31221 0.0
C416 C 0.35702 0.71706 0.39567 0.0
C417 C 0.33826 0.7255 0.38755 0.0
C418 C 0.37283 0.72344 0.36687 0.0
C419 C 0.37029 0.73847 0.32965 0.0
C420 C 0.35164 0.74694 0.32131 0.0
H421 H 0.43223 0.78913 0.08197 0.0
H422 H 0.41068 0.78149 0.15255 0.0
C423 C 0.33578 0.74056 0.35007 0.0
C424 C 0.38687 0.74448 0.29749 0.0
H425 H 0.41411 0.78406 0.2593 0.0
C426 C 0.3952 0.73037 0.26683 0.0
C427 C 0.39404 0.76398 0.29567 0.0
C428 C 0.38622 0.77952 0.32946 0.0
C429 C 0.40997 0.73541 0.23273 0.0
C430 C 0.41685 0.75502 0.23006 0.0
C431 C 0.40885 0.76903 0.26162 0.0
C432 C 0.43114 0.76151 0.19164 0.0
C433 C 0.41744 0.7199 0.19824 0.0
C434 C 0.4501 0.75341 0.19134 0.0
C435 C 0.46242 0.75766 0.1508 0.0
C436 C 0.45595 0.77012 0.1101 0.0
C437 C 0.43747 0.77922 0.1124 0.0
C438 C 0.42519 0.77496 0.15281 0.0
H439 H 0.40782 0.70672 0.19787 0.0
H440 H 0.41852 0.72583 0.15861 0.0
H441 H 0.43233 0.71517 0.21178 0.0
H442 H 0.45508 0.74325 0.22151 0.0
H443 H 0.47657 0.75042 0.15003 0.0
H444 H 0.75926 0.82304 0.82725 0.0
H445 H 0.74991 0.85157 0.7735 0.0
H446 H 0.77522 0.89007 0.88508 0.0
H447 H 0.78514 0.86159 0.93859 0.0
H448 H 0.72644 0.88319 0.78921 0.0
H449 H 0.80328 0.90722 0.75773 0.0
H450 H 0.7975 0.88369 0.78677 0.0
H451 H 0.79647 0.90558 0.82318 0.0
C452 C 0.76284 0.83756 0.84047 0.0
C453 C 0.77318 0.84001 0.88694 0.0
C454 C 0.75743 0.85386 0.80974 0.0
C455 C 0.76214 0.87292 0.82493 0.0
C456 C 0.77184 0.87548 0.87209 0.0
H457 H 0.71542 0.9714 0.629 0.0
H458 H 0.72301 0.95153 0.70674 0.0
C459 C 0.77745 0.85917 0.90266 0.0
C460 C 0.75732 0.88994 0.79038 0.0
H461 H 0.77817 0.92618 0.7176 0.0
C462 C 0.73769 0.89275 0.77386 0.0
C463 C 0.77209 0.90231 0.77038 0.0
C464 C 0.79354 0.89952 0.78499 0.0
C465 C 0.73252 0.90709 0.73636 0.0
C466 C 0.74735 0.9192 0.71574 0.0
C467 C 0.76684 0.91694 0.73383 0.0
C468 C 0.74349 0.9324 0.67075 0.0
C469 C 0.71145 0.90839 0.71715 0.0
C470 C 0.75303 0.92868 0.62551 0.0
C471 C 0.74896 0.94007 0.58164 0.0
C472 C 0.73514 0.95541 0.58186 0.0
C473 C 0.72607 0.95962 0.62768 0.0
C474 C 0.73025 0.94819 0.6719 0.0
H475 H 0.70259 0.89566 0.73057 0.0
H476 H 0.70469 0.92197 0.7311 0.0
H477 H 0.71066 0.90913 0.67488 0.0
H478 H 0.76341 0.91666 0.62385 0.0
H479 H 0.75657 0.93677 0.54731 0.0
H480 H 0.82077 0.75193 0.84803 0.0
H481 H 0.848 0.7413 0.79719 0.0
H482 H 0.88611 0.78331 0.8698 0.0
H483 H 0.85905 0.79387 0.92159 0.0
H484 H 0.86852 0.76406 0.72923 0.0
H485 H 0.91894 0.73313 0.8811 0.0
H486 H 0.89342 0.73836 0.89177 0.0
H487 H 0.91114 0.75791 0.89073 0.0
C488 C 0.83494 0.75887 0.85351 0.0
C489 C 0.83767 0.77379 0.88898 0.0
C490 C 0.85051 0.75273 0.82445 0.0
C491 C 0.86914 0.7613 0.83026 0.0
C492 C 0.87197 0.77618 0.86555 0.0
H493 H 0.97321 0.75364 0.64779 0.0
H494 H 0.95038 0.76092 0.71528 0.0
C495 C 0.85641 0.7823 0.89483 0.0
C496 C 0.88521 0.75543 0.79707 0.0
H497 H 0.93147 0.73588 0.79767 0.0
C498 C 0.88224 0.75783 0.74422 0.0
C499 C 0.90315 0.7474 0.81679 0.0
C500 C 0.90686 0.74386 0.87318 0.0
C501 C 0.89672 0.7525 0.71048 0.0
C502 C 0.91457 0.74433 0.7301 0.0
C503 C 0.91772 0.74212 0.78292 0.0
C504 C 0.92991 0.73788 0.69565 0.0
C505 C 0.89292 0.75583 0.654 0.0
C506 C 0.9263 0.722 0.66397 0.0
C507 C 0.93927 0.71779 0.62567 0.0
C508 C 0.95611 0.72938 0.61847 0.0
C509 C 0.96041 0.7444 0.65264 0.0
C510 C 0.94737 0.74863 0.69102 0.0
H511 H 0.88037 0.76597 0.64578 0.0
H512 H 0.90614 0.76196 0.63558 0.0
H513 H 0.88942 0.74158 0.63646 0.0
H514 H 0.913 0.7134 0.66748 0.0
H515 H 0.93574 0.70595 0.60033 0.0
H516 H 0.70261 0.35996 0.40519 0.0
H517 H 0.7131 0.38734 0.34998 0.0
H518 H 0.75605 0.34991 0.28434 0.0
H519 H 0.74559 0.32243 0.33856 0.0
H520 H 0.75086 0.40506 0.33842 0.0
H521 H 0.72312 0.37102 0.16109 0.0
H522 H 0.71606 0.3624 0.22352 0.0
H523 H 0.73936 0.35541 0.1991 0.0
C524 C 0.71427 0.35752 0.37897 0.0
C525 C 0.72308 0.33889 0.37591 0.0
C526 C 0.72029 0.37322 0.34764 0.0
C527 C 0.73514 0.37054 0.31269 0.0
C528 C 0.7443 0.35215 0.31046 0.0
H529 H 0.78972 0.43494 0.07159 0.0
H530 H 0.78263 0.41299 0.14405 0.0
C531 C 0.73829 0.33646 0.34156 0.0
C532 C 0.74083 0.38675 0.27748 0.0
H533 H 0.74364 0.39896 0.1512 0.0
C534 C 0.74919 0.40385 0.29748 0.0
C535 C 0.73845 0.38512 0.22417 0.0
C536 C 0.72858 0.36759 0.20061 0.0
C537 C 0.75591 0.4191 0.26524 0.0
C538 C 0.75403 0.41716 0.21196 0.0
C539 C 0.74526 0.40026 0.19215 0.0
C540 C 0.7611 0.43225 0.17529 0.0
C541 C 0.76542 0.43691 0.28816 0.0
C542 C 0.75183 0.45065 0.17001 0.0
C543 C 0.75593 0.46327 0.12866 0.0
C544 C 0.76918 0.45748 0.09195 0.0
C545 C 0.77937 0.43965 0.0993 0.0
C546 C 0.77535 0.42714 0.1406 0.0
H547 H 0.76924 0.43445 0.32924 0.0
H548 H 0.77894 0.44098 0.26774 0.0
H549 H 0.7551 0.44952 0.28427 0.0
H550 H 0.74055 0.45472 0.19594 0.0
H551 H 0.74775 0.47686 0.12345 0.0
H552 H 0.13639 0.20487 0.90871 0.0
H553 H 0.10926 0.21637 0.85234 0.0
H554 H 0.14733 0.25956 0.78378 0.0
H555 H 0.17457 0.24813 0.83926 0.0
H556 H 0.09206 0.2549 0.83643 0.0
H557 H 0.12641 0.22724 0.66345 0.0
H558 H 0.13451 0.21963 0.727 0.0
H559 H 0.14202 0.24298 0.70043 0.0
C560 C 0.13902 0.21683 0.88168 0.0
C561 C 0.15777 0.2254 0.87814 0.0
C562 C 0.12346 0.22342 0.84969 0.0
C563 C 0.1264 0.23862 0.81356 0.0
C564 C 0.14488 0.24758 0.81092 0.0
H565 H 0.06224 0.29261 0.56153 0.0
H566 H 0.08427 0.28615 0.63528 0.0
C567 C 0.16044 0.24101 0.84273 0.0
C568 C 0.1104 0.24472 0.77725 0.0
H569 H 0.09844 0.24762 0.65041 0.0
C570 C 0.09334 0.25326 0.79575 0.0
C571 C 0.11213 0.24239 0.72433 0.0
C572 C 0.12966 0.2324 0.70252 0.0
C573 C 0.07819 0.26011 0.7623 0.0
C574 C 0.08018 0.25816 0.70933 0.0
C575 C 0.09708 0.2493 0.69108 0.0
C576 C 0.06503 0.26503 0.67141 0.0
C577 C 0.06043 0.26979 0.7836 0.0
C578 C 0.0466 0.25582 0.66835 0.0
C579 C 0.03393 0.25958 0.62626 0.0
C580 C 0.03969 0.27241 0.58661 0.0
C581 C 0.05754 0.28259 0.59156 0.0
C582 C 0.07011 0.27892 0.63359 0.0
H583 H 0.06303 0.27398 0.82376 0.0
H584 H 0.05619 0.28311 0.76043 0.0
H585 H 0.04788 0.2594 0.78232 0.0
H586 H 0.04255 0.24481 0.69672 0.0
H587 H 0.02033 0.25141 0.62297 0.0
H588 H 0.29066 0.63989 0.41609 0.0
H589 H 0.27811 0.61357 0.36295 0.0
H590 H 0.2351 0.65323 0.29362 0.0
H591 H 0.24768 0.67977 0.34592 0.0
H592 H 0.24028 0.59702 0.35297 0.0
H593 H 0.26397 0.63246 0.17189 0.0
H594 H 0.27256 0.64052 0.2334 0.0
H595 H 0.2486 0.6476 0.20886 0.0
C596 C 0.27854 0.64308 0.38951 0.0
C597 C 0.27034 0.66206 0.38492 0.0
C598 C 0.27135 0.62797 0.35933 0.0
C599 C 0.25586 0.63153 0.32393 0.0
C600 C 0.24731 0.65028 0.32008 0.0
H601 H 0.20286 0.56373 0.0838 0.0
H602 H 0.20792 0.58689 0.15235 0.0
C603 C 0.25452 0.66543 0.3501 0.0
C604 C 0.24899 0.61576 0.29014 0.0
H605 H 0.24479 0.60372 0.16527 0.0
C606 C 0.24124 0.59844 0.31191 0.0
C607 C 0.25038 0.61765 0.23665 0.0
C608 C 0.25949 0.63546 0.21121 0.0
C609 C 0.23455 0.58305 0.28141 0.0
C610 C 0.23587 0.58502 0.22794 0.0
C611 C 0.24362 0.60234 0.2063 0.0
C612 C 0.22996 0.56921 0.19316 0.0
C613 C 0.2259 0.56496 0.30646 0.0
C614 C 0.24018 0.55127 0.1944 0.0
C615 C 0.23725 0.53797 0.1553 0.0
C616 C 0.22423 0.54256 0.1142 0.0
C617 C 0.21307 0.55991 0.11493 0.0
C618 C 0.21594 0.57312 0.15402 0.0
H619 H 0.22128 0.56777 0.34578 0.0
H620 H 0.21303 0.55959 0.28396 0.0
H621 H 0.23712 0.55312 0.30867 0.0
H622 H 0.25132 0.54812 0.22375 0.0
H623 H 0.24621 0.52483 0.1553 0.0
H624 H 0.36128 0.70152 0.59926 0.0
H625 H 0.389 0.71058 0.65537 0.0
H626 H 0.35206 0.75168 0.72963 0.0
H627 H 0.32432 0.74271 0.6745 0.0
H628 H 0.40665 0.74847 0.6733 0.0
H629 H 0.37389 0.71524 0.84626 0.0
H630 H 0.36524 0.70968 0.78271 0.0
H631 H 0.35772 0.73199 0.81156 0.0
C632 C 0.35904 0.7125 0.62752 0.0
C633 C 0.34047 0.72121 0.6327 0.0
C634 C 0.37492 0.71768 0.65939 0.0
C635 C 0.37245 0.73156 0.69703 0.0
C636 C 0.35414 0.74067 0.70136 0.0
H637 H 0.43375 0.78808 0.93685 0.0
H638 H 0.4127 0.77869 0.86468 0.0
C639 C 0.3383 0.73552 0.66969 0.0
C640 C 0.38879 0.73639 0.7328 0.0
H641 H 0.40091 0.73693 0.85955 0.0
C642 C 0.40558 0.74576 0.71399 0.0
C643 C 0.38734 0.73265 0.78574 0.0
C644 C 0.37017 0.72166 0.80782 0.0
C645 C 0.42057 0.75234 0.74724 0.0
C646 C 0.41863 0.74934 0.80024 0.0
C647 C 0.4022 0.73936 0.81879 0.0
C648 C 0.43294 0.7571 0.83785 0.0
C649 C 0.43799 0.76308 0.72594 0.0
C650 C 0.45151 0.7484 0.84568 0.0
C651 C 0.46357 0.75371 0.88709 0.0
C652 C 0.4571 0.76766 0.92129 0.0
C653 C 0.43899 0.77712 0.91143 0.0
C654 C 0.427 0.77183 0.8702 0.0
H655 H 0.43622 0.76617 0.68431 0.0
H656 H 0.44025 0.77717 0.7455 0.0
H657 H 0.45142 0.75404 0.73301 0.0
H658 H 0.45621 0.73683 0.82139 0.0
H659 H 0.47739 0.74608 0.89407 0.0
H660 H 0.75102 0.81797 0.1713 0.0
H661 H 0.73888 0.845 0.22068 0.0
H662 H 0.77928 0.88467 0.14736 0.0
H663 H 0.7914 0.85783 0.09719 0.0
H664 H 0.76078 0.86738 0.28789 0.0
H665 H 0.72712 0.91462 0.133 0.0
H666 H 0.73351 0.88922 0.12429 0.0
H667 H 0.7522 0.90784 0.12345 0.0
C668 C 0.75731 0.83244 0.16541 0.0
C669 C 0.77223 0.83568 0.13021 0.0
C670 C 0.7503 0.84788 0.19361 0.0
C671 C 0.75795 0.86688 0.18704 0.0
C672 C 0.77286 0.87021 0.15214 0.0
H673 H 0.74812 0.9727 0.35882 0.0
H674 H 0.75423 0.94939 0.29162 0.0
C675 C 0.77989 0.85478 0.12384 0.0
C676 C 0.75116 0.88291 0.2191 0.0
H677 H 0.72963 0.92831 0.21527 0.0
C678 C 0.75385 0.88064 0.27203 0.0
C679 C 0.74224 0.90023 0.19819 0.0
C680 C 0.73841 0.90313 0.14164 0.0
C681 C 0.74809 0.89532 0.30471 0.0
C682 C 0.73908 0.9126 0.2839 0.0
C683 C 0.73646 0.91498 0.23096 0.0
C684 C 0.73262 0.92833 0.31722 0.0
C685 C 0.75205 0.8924 0.36126 0.0
C686 C 0.71775 0.92459 0.35196 0.0
C687 C 0.71425 0.93782 0.39021 0.0
C688 C 0.72549 0.95505 0.39405 0.0
C689 C 0.73918 0.95958 0.35649 0.0
C690 C 0.74274 0.94627 0.31828 0.0
H691 H 0.76288 0.88047 0.36992 0.0
H692 H 0.75763 0.90614 0.37821 0.0
H693 H 0.73815 0.88837 0.37994 0.0
H694 H 0.7096 0.91093 0.3512 0.0
H695 H 0.70349 0.93409 0.41845 0.0
H696 H 0.6428 0.29772 0.60663 0.0
H697 H 0.61642 0.28745 0.66237 0.0
H698 H 0.64954 0.23575 0.70982 0.0
H699 H 0.6763 0.24619 0.65524 0.0
H700 H 0.59323 0.25481 0.66712 0.0
H701 H 0.63912 0.2604 0.8443 0.0
H702 H 0.64711 0.26976 0.78346 0.0
H703 H 0.64875 0.24391 0.79924 0.0
C704 C 0.64451 0.28415 0.62888 0.0
C705 C 0.6618 0.27291 0.62697 0.0
C706 C 0.62937 0.27827 0.6606 0.0
C707 C 0.63115 0.26101 0.69086 0.0
C708 C 0.64806 0.24937 0.6877 0.0
H709 H 0.53539 0.21025 0.86962 0.0
H710 H 0.55871 0.21661 0.80135 0.0
C711 C 0.66332 0.25535 0.6564 0.0
C712 C 0.61554 0.25563 0.72683 0.0
H713 H 0.60703 0.24804 0.85311 0.0
C714 C 0.59621 0.25329 0.70782 0.0
C715 C 0.61946 0.25387 0.77993 0.0
C716 C 0.63968 0.25729 0.8031 0.0
C717 C 0.58065 0.24939 0.74057 0.0
C718 C 0.58464 0.24742 0.79357 0.0
C719 C 0.60401 0.24949 0.81241 0.0
C720 C 0.56898 0.24427 0.83093 0.0
C721 C 0.56003 0.24807 0.71835 0.0
C722 C 0.56698 0.25769 0.86993 0.0
C723 C 0.55398 0.25394 0.90895 0.0
C724 C 0.54262 0.23675 0.9096 0.0
C725 C 0.5439 0.22369 0.86949 0.0
C726 C 0.55715 0.22735 0.83054 0.0
H727 H 0.55887 0.25464 0.67917 0.0
H728 H 0.55571 0.23239 0.71648 0.0
H729 H 0.54944 0.25561 0.74252 0.0
H730 H 0.57591 0.27085 0.87093 0.0
H731 H 0.55314 0.26424 0.93946 0.0
H732 H 0.20223 0.1365 0.09812 0.0
H733 H 0.21232 0.10927 0.15609 0.0
H734 H 0.25577 0.14644 0.22692 0.0
H735 H 0.24576 0.17374 0.1699 0.0
H736 H 0.25016 0.09102 0.17583 0.0
H737 H 0.22157 0.12702 0.34522 0.0
H738 H 0.21484 0.13498 0.28092 0.0
H739 H 0.23801 0.14218 0.30914 0.0
C740 C 0.21397 0.13889 0.12594 0.0
C741 C 0.22301 0.15743 0.12971 0.0
C742 C 0.21974 0.12329 0.1589 0.0
C743 C 0.23456 0.12597 0.19619 0.0
C744 C 0.24404 0.1442 0.19894 0.0
H745 H 0.29068 0.06425 0.44729 0.0
H746 H 0.28197 0.08558 0.37363 0.0
C747 C 0.23829 0.15979 0.1662 0.0
C748 C 0.23985 0.11 0.23348 0.0
H749 H 0.24214 0.09917 0.36101 0.0
C750 C 0.24827 0.09266 0.21631 0.0
C751 C 0.23718 0.11218 0.28614 0.0
C752 C 0.22723 0.13 0.30654 0.0
C753 C 0.25487 0.07775 0.25088 0.0
C754 C 0.2528 0.0803 0.3036 0.0
C755 C 0.24388 0.09739 0.32051 0.0
C756 C 0.26017 0.0658 0.34258 0.0
C757 C 0.26456 0.05971 0.23112 0.0
C758 C 0.25115 0.04737 0.34866 0.0
C759 C 0.2561 0.03513 0.39086 0.0
C760 C 0.27 0.04129 0.42766 0.0
C761 C 0.27976 0.05925 0.41978 0.0
C762 C 0.27485 0.07141 0.37772 0.0
H763 H 0.26802 0.06146 0.19019 0.0
H764 H 0.27833 0.05631 0.25334 0.0
H765 H 0.25455 0.04695 0.23568 0.0
H766 H 0.23958 0.04292 0.3223 0.0
H767 H 0.24823 0.02144 0.39627 0.0
H768 H 0.21294 0.28333 0.08705 0.0
H769 H 0.21425 0.3191 0.08927 0.0
H770 H 0.22375 0.32224 0.92777 0.0
H771 H 0.22216 0.28641 0.92486 0.0
H772 H 0.24593 0.34196 0.06403 0.0
H773 H 0.18077 0.36316 0.94291 0.0
H774 H 0.18444 0.33851 0.96867 0.0
H775 H 0.1974 0.34681 0.91346 0.0
C776 C 0.2151 0.29158 0.05179 0.0
C777 C 0.21748 0.28192 0.00575 0.0
C778 C 0.21583 0.31206 0.05318 0.0
C779 C 0.21889 0.32335 0.00863 0.0
C780 C 0.22097 0.31384 0.96244 0.0
H781 H 0.24273 0.44708 0.94883 0.0
H782 H 0.23643 0.41169 0.94261 0.0
C783 C 0.22017 0.29332 0.96093 0.0
C784 C 0.22121 0.34495 0.01138 0.0
H785 H 0.2026 0.38889 0.96609 0.0
C786 C 0.23638 0.35222 0.04287 0.0
C787 C 0.20879 0.3583 0.98351 0.0
C788 C 0.19182 0.35135 0.95056 0.0
C789 C 0.23964 0.37247 0.04676 0.0
C790 C 0.2272 0.38582 0.01903 0.0
C791 C 0.21207 0.37859 0.98737 0.0
C792 C 0.22987 0.40735 0.02222 0.0
C793 C 0.25666 0.37938 0.07968 0.0
C794 C 0.22776 0.41667 0.06869 0.0
C795 C 0.23143 0.43679 0.07229 0.0
C796 C 0.23731 0.44786 0.0295 0.0
C797 C 0.23857 0.43871 0.98251 0.0
C798 C 0.23491 0.41858 0.97892 0.0
H799 H 0.26749 0.36745 0.08832 0.0
H800 H 0.26432 0.39191 0.06094 0.0
H801 H 0.25106 0.38441 0.11632 0.0
H802 H 0.22345 0.40833 0.10228 0.0
H803 H 0.22996 0.44366 0.10863 0.0
H804 H 0.21422 0.71924 0.59232 0.0
H805 H 0.1785 0.7215 0.59363 0.0
H806 H 0.1757 0.72656 0.42969 0.0
H807 H 0.21149 0.72412 0.42773 0.0
H808 H 0.15603 0.75339 0.5547 0.0
H809 H 0.13457 0.68403 0.46183 0.0
H810 H 0.15902 0.6882 0.48769 0.0
H811 H 0.15153 0.69913 0.42716 0.0
C812 C 0.20606 0.72064 0.5564 0.0
C813 C 0.2158 0.72153 0.50988 0.0
C814 C 0.18562 0.72193 0.55729 0.0
C815 C 0.17446 0.724 0.51178 0.0
C816 C 0.18403 0.72461 0.46522 0.0
H817 H 0.05033 0.74394 0.44315 0.0
H818 H 0.08588 0.73834 0.43921 0.0
C819 C 0.20451 0.72333 0.46423 0.0
C820 C 0.15291 0.72668 0.5134 0.0
H821 H 0.10896 0.70658 0.47696 0.0
C822 C 0.14573 0.74312 0.53793 0.0
C823 C 0.13955 0.7133 0.49121 0.0
C824 C 0.14649 0.69507 0.46583 0.0
C825 C 0.1255 0.74668 0.54037 0.0
C826 C 0.11211 0.73323 0.51852 0.0
C827 C 0.11928 0.71683 0.49375 0.0
C828 C 0.09059 0.73601 0.52096 0.0
C829 C 0.11866 0.76504 0.56538 0.0
C830 C 0.08146 0.73613 0.56815 0.0
C831 C 0.06126 0.73942 0.57041 0.0
C832 C 0.04991 0.74268 0.52552 0.0
C833 C 0.05892 0.74185 0.47825 0.0
C834 C 0.07913 0.73858 0.476 0.0
H835 H 0.13054 0.77616 0.5683 0.0
H836 H 0.10594 0.77175 0.54392 0.0
H837 H 0.11397 0.76119 0.6045 0.0
H838 H 0.08998 0.73369 0.60323 0.0
H839 H 0.0545 0.73955 0.60719 0.0
H840 H 0.78203 0.70977 0.08614 0.0
H841 H 0.78558 0.6741 0.08319 0.0
H842 H 0.78134 0.67758 0.91919 0.0
H843 H 0.77803 0.71323 0.92149 0.0
H844 H 0.75966 0.64665 0.0405 0.0
H845 H 0.8318 0.64585 0.94766 0.0
H846 H 0.82216 0.66752 0.97607 0.0
H847 H 0.8134 0.66048 0.91405 0.0
C848 C 0.78189 0.703 0.04937 0.0
C849 C 0.77983 0.71444 0.00403 0.0
C850 C 0.78392 0.68259 0.04781 0.0
C851 C 0.78403 0.67326 0.00097 0.0
C852 C 0.78171 0.68455 0.95571 0.0
H853 H 0.79125 0.5527 0.9066 0.0
H854 H 0.78814 0.58853 0.91137 0.0
C855 C 0.7797 0.70494 0.95717 0.0
C856 C 0.78617 0.65164 -0.00055 0.0
H857 H 0.81512 0.61532 0.95527 0.0
C858 C 0.77184 0.63977 0.02216 0.0
C859 C 0.80208 0.64276 0.97541 0.0
C860 C 0.81835 0.65478 0.95229 0.0
C861 C 0.77275 0.61921 0.02054 0.0
C862 C 0.7886 0.61033 0.99627 0.0
C863 C 0.80297 0.6222 0.97374 0.0
C864 C 0.79051 0.58873 0.99365 0.0
C865 C 0.75651 0.60716 0.04373 0.0
C866 C 0.79303 0.57707 0.0383 0.0
C867 C 0.79485 0.55668 0.03558 0.0
C868 C 0.79447 0.54771 0.98815 0.0
C869 C 0.7919 0.55938 0.94351 0.0
C870 C 0.79009 0.57976 0.94623 0.0
H871 H 0.74319 0.61615 0.04952 0.0
H872 H 0.75242 0.59468 0.01933 0.0
H873 H 0.76167 0.60106 0.08141 0.0
H874 H 0.79366 0.58374 0.07521 0.0
H875 H 0.79657 0.5479 0.07047 0.0
H876 H 0.78449 0.27989 0.41806 0.0
H877 H 0.82015 0.2831 0.41592 0.0
H878 H 0.82316 0.28724 0.57932 0.0
H879 H 0.78749 0.28377 0.58214 0.0
H880 H 0.84361 0.31394 0.4498 0.0
H881 H 0.86301 0.24393 0.55314 0.0
H882 H 0.83861 0.24899 0.52741 0.0
H883 H 0.84677 0.25959 0.58616 0.0
C884 C 0.79269 0.28139 0.45367 0.0
C885 C 0.78306 0.28145 0.50034 0.0
C886 C 0.81309 0.28325 0.45231 0.0
C887 C 0.82431 0.28512 0.49749 0.0
C888 C 0.8148 0.2854 0.54409 0.0
H889 H 0.94976 0.29878 0.55955 0.0
H890 H 0.91391 0.2964 0.56574 0.0
C891 C 0.79438 0.28351 0.54556 0.0
C892 C 0.84592 0.28723 0.49552 0.0
H893 H 0.88925 0.26555 0.5344 0.0
C894 C 0.8536 0.30335 0.46817 0.0
C895 C 0.85889 0.2734 0.51966 0.0
C896 C 0.85146 0.2554 0.5479 0.0
C897 C 0.87394 0.30611 0.46469 0.0
C898 C 0.88691 0.29221 0.48853 0.0
C899 C 0.87924 0.27618 0.51621 0.0
C900 C 0.90849 0.29391 0.48464 0.0
C901 C 0.88139 0.32405 0.43621 0.0
C902 C 0.91728 0.29299 0.43711 0.0
C903 C 0.93767 0.2944 0.43358 0.0
C904 C 0.94955 0.29682 0.47749 0.0
C905 C 0.94079 0.29731 0.52513 0.0
C906 C 0.9204 0.29589 0.52867 0.0
H907 H 0.86994 0.33565 0.43161 0.0
H908 H 0.89446 0.33029 0.45612 0.0
H909 H 0.88574 0.31984 0.39766 0.0
H910 H 0.90838 0.29098 0.40284 0.0
H911 H 0.94417 0.29352 0.3966 0.0
H912 H 0.72638 0.21122 0.58607 0.0
H913 H 0.72852 0.17532 0.58427 0.0
H914 H 0.71638 0.17763 0.4223 0.0
H915 H 0.7144 0.21336 0.42338 0.0
H916 H 0.70094 0.14654 0.54892 0.0
H917 H 0.76906 0.14796 0.4379 0.0
H918 H 0.76009 0.16925 0.46936 0.0
H919 H 0.7492 0.16221 0.40949 0.0
C920 C 0.72406 0.2041 0.55008 0.0
C921 C 0.72046 0.21524 0.50477 0.0
C922 C 0.72527 0.18359 0.54917 0.0
C923 C 0.72297 0.1739 0.50301 0.0
C924 C 0.71861 0.18488 0.45815 0.0
H925 H 0.73272 0.05452 0.40322 0.0
H926 H 0.72651 0.08981 0.41085 0.0
C927 C 0.71743 0.20533 0.45894 0.0
C928 C 0.72556 0.15235 0.50126 0.0
H929 H 0.75356 0.11703 0.44915 0.0
C930 C 0.7125 0.14004 0.52739 0.0
C931 C 0.74068 0.14398 0.47316 0.0
C932 C 0.75569 0.1565 0.44623 0.0
C933 C 0.71385 0.11949 0.52504 0.0
C934 C 0.72885 0.11115 0.49646 0.0
C935 C 0.74201 0.12349 0.47077 0.0
C936 C 0.73131 0.08964 0.49265 0.0
C937 C 0.69895 0.10691 0.55208 0.0
C938 C 0.736 0.07789 0.53611 0.0
C939 C 0.73957 0.0578 0.53174 0.0
C940 C 0.7388 0.04924 0.48376 0.0
C941 C 0.73367 0.0609 0.44047 0.0
C942 C 0.7301 0.08098 0.44484 0.0
H943 H 0.6857 0.11546 0.56133 0.0
H944 H 0.69435 0.09433 0.52859 0.0
H945 H 0.70564 0.10093 0.58832 0.0
H946 H 0.73731 0.08433 0.57324 0.0
H947 H 0.74328 0.04899 0.56566 0.0
H948 H 0.28515 0.22029 0.08966 0.0
H949 H 0.32106 0.22198 0.08877 0.0
H950 H 0.31906 0.21703 0.92558 0.0
H951 H 0.2833 0.2155 0.92577 0.0
H952 H 0.34963 0.19553 0.04938 0.0
H953 H 0.34924 0.2687 0.95008 0.0
H954 H 0.32783 0.25855 0.97999 0.0
H955 H 0.33477 0.25036 0.91868 0.0
C956 C 0.29233 0.21944 0.05358 0.0
C957 C 0.28127 0.21799 0.00772 0.0
C958 C 0.31285 0.22039 0.05319 0.0
C959 C 0.32264 0.21997 0.00702 0.0
C960 C 0.31174 0.21776 0.9615 0.0
H961 H 0.44265 0.23498 0.91368 0.0
H962 H 0.40741 0.22785 0.91844 0.0
C963 C 0.29127 0.21683 0.96178 0.0
C964 C 0.34422 0.22241 0.00603 0.0
H965 H 0.37998 0.2526 0.9601 0.0
C966 C 0.35632 0.20803 0.03009 0.0
C967 C 0.35283 0.23876 0.98087 0.0
C968 C 0.34054 0.25509 0.9563 0.0
C969 C 0.37688 0.20935 0.02859 0.0
C970 C 0.38547 0.22564 0.00305 0.0
C971 C 0.37334 0.24006 0.97935 0.0
C972 C 0.40702 0.22825 0.00073 0.0
C973 C 0.38922 0.19311 0.05331 0.0
C974 C 0.41845 0.23069 0.04541 0.0
C975 C 0.43852 0.23477 0.04268 0.0
C976 C 0.44736 0.23676 0.99521 0.0
C977 C 0.43605 0.23376 0.95063 0.0
C978 C 0.416 0.22967 0.95335 0.0
H979 H 0.38057 0.17945 0.0594 0.0
H980 H 0.40201 0.18973 0.02981 0.0
H981 H 0.39487 0.19788 0.09099 0.0
H982 H 0.41177 0.22997 0.0823 0.0
H983 H 0.44705 0.23684 0.07755 0.0
H984 H 0.28436 0.78435 0.59453 0.0
H985 H 0.28714 0.8201 0.59642 0.0
H986 H 0.28452 0.82353 0.43232 0.0
H987 H 0.28152 0.7878 0.42982 0.0
H988 H 0.31605 0.8445 0.55304 0.0
H989 H 0.24156 0.86212 0.47256 0.0
H990 H 0.24825 0.8379 0.49702 0.0
H991 H 0.25579 0.84608 0.43498 0.0
C992 C 0.2843 0.79266 0.55875 0.0
C993 C 0.28259 0.78314 0.512 0.0
C994 C 0.28592 0.8131 0.55996 0.0
C995 C 0.28573 0.82446 0.51455 0.0
C996 C 0.28429 0.81505 0.46783 0.0
H997 H 0.29446 0.94975 0.44531 0.0
H998 H 0.2917 0.91383 0.4416 0.0
C999 C 0.28269 0.7946 0.46652 0.0
C1000 C 0.28742 0.84613 0.51618 0.0
H1001 H 0.2633 0.8889 0.48402 0.0
C1002 C 0.3045 0.85423 0.53814 0.0
C1003 C 0.27234 0.85874 0.49658 0.0
C1004 C 0.25336 0.85083 0.47433 0.0
C1005 C 0.30703 0.87465 0.54038 0.0
C1006 C 0.29191 0.88727 0.52095 0.0
C1007 C 0.27486 0.87917 0.49885 0.0
C1008 C 0.2935 0.90893 0.52334 0.0
C1009 C 0.32602 0.88255 0.56258 0.0
C1010 C 0.29503 0.91805 0.57052 0.0
C1011 C 0.29665 0.93848 0.57262 0.0
C1012 C 0.29683 0.95009 0.52758 0.0
C1013 C 0.29473 0.94101 0.48046 0.0
C1014 C 0.2931 0.92058 0.47835 0.0
H1015 H 0.33788 0.87132 0.56362 0.0
H1016 H 0.33101 0.89564 0.54032 0.0
H1017 H 0.32369 0.88701 0.60221 0.0
H1018 H 0.29487 0.90936 0.6057 0.0
H1019 H 0.29782 0.94523 0.60939 0.0
H1020 H 0.71085 0.78175 0.92251 0.0
H1021 H 0.6751 0.78538 0.92291 0.0
H1022 H 0.67694 0.78209 0.08702 0.0
H1023 H 0.71259 0.77863 0.08727 0.0
H1024 H 0.64703 0.75948 0.96641 0.0
H1025 H 0.64582 0.83284 0.05302 0.0
H1026 H 0.66757 0.82285 0.0258 0.0
H1027 H 0.66038 0.81482 0.08828 0.0
C1028 C 0.70369 0.78184 0.95874 0.0
C1029 C 0.71467 0.77998 0.00487 0.0
C1030 C 0.68325 0.7839 0.95884 0.0
C1031 C 0.67345 0.7843 0.00499 0.0
C1032 C 0.68428 0.7822 0.05101 0.0
H1033 H 0.55307 0.7936 0.09745 0.0
H1034 H 0.58884 0.79005 0.0926 0.0
C1035 C 0.70468 0.78011 0.05101 0.0
C1036 C 0.65183 0.78655 0.00519 0.0
H1037 H 0.61534 0.81603 0.0462 0.0
C1038 C 0.64006 0.7719 0.98349 0.0
C1039 C 0.64284 0.80276 0.02761 0.0
C1040 C 0.65477 0.81932 0.04962 0.0
C1041 C 0.61948 0.77278 0.9848 0.0
C1042 C 0.6105 0.78892 0.00762 0.0
C1043 C 0.62228 0.80365 0.02889 0.0
C1044 C 0.58889 0.79077 0.01022 0.0
C1045 C 0.60756 0.75617 0.96305 0.0
C1046 C 0.57712 0.79244 0.96553 0.0
C1047 C 0.55676 0.79447 0.96829 0.0
C1048 C 0.54791 0.79519 0.01578 0.0
C1049 C 0.55966 0.79338 0.06045 0.0
C1050 C 0.58001 0.79133 0.05769 0.0
H1051 H 0.6166 0.74276 0.95879 0.0
H1052 H 0.59501 0.7524 0.98754 0.0
H1053 H 0.60157 0.76075 0.9248 0.0
H1054 H 0.58371 0.79233 0.92853 0.0
H1055 H 0.54792 0.79561 0.93338 0.0
loop_
_geom_bond_atom_site_label_1
_geom_bond_atom_site_label_2
_geom_bond_distance
_geom_bond_site_symmetry_2
_ccdc_geom_bond_type
Sc0 O3 2.025 . S
Sc0 O10 2.105 . S
Sc0 O13 2.105 . S
Sc0 O16 2.105 . S
Sc0 O19 2.105 . S
Sc1 O3 2.025 . S
Sc1 O11 2.105 . S
Sc1 O15 2.105 1_554 S
Sc1 O17 2.105 . S
Sc1 O21 2.105 1_554 S
Sc2 O3 2.025 1_556 S
Sc2 O12 2.105 . S
Sc2 O14 2.105 . S
Sc2 O18 2.105 . S
Sc2 O20 2.105 . S
O3 Sc0 2.025 . S
O3 Sc1 2.025 . S
O3 Sc2 2.025 1_554 S
C4 O10 1.268 . S
C4 O20 1.268 1_554 S
C5 O11 1.268 . S
C5 O19 1.268 . S
C6 O12 1.268 . S
C6 O21 1.268 . S
C7 O13 1.268 . S
C7 O17 1.268 . S
C8 O14 1.268 1_554 S
C8 O16 1.268 . S
C9 O15 1.268 . S
C9 O18 1.268 . S
O10 Sc0 2.105 . S
O10 C4 1.268 . S
O11 Sc1 2.105 . S
O11 C5 1.268 . S
O12 Sc2 2.105 . S
O12 C6 1.268 . S
O13 Sc0 2.105 . S
O13 C7 1.268 . S
O14 Sc2 2.105 . S
O14 C8 1.268 1_556 S
O15 Sc1 2.105 1_556 S
O15 C9 1.268 . S
O16 Sc0 2.105 . S
O16 C8 1.268 . S
O17 Sc1 2.105 . S
O17 C7 1.268 . S
O18 Sc2 2.105 . S
O18 C9 1.268 . S
O19 Sc0 2.105 . S
O19 C5 1.268 . S
O20 Sc2 2.105 . S
O20 C4 1.268 1_556 S
O21 Sc1 2.105 1_556 S
O21 C6 1.268 . S
Sc22 O25 2.025 . S
Sc22 O32 2.105 . S
Sc22 O35 2.105 . S
Sc22 O38 2.105 . S
Sc22 O41 2.105 . S
Sc23 O25 2.025 . S
Sc23 O33 2.105 . S
Sc23 O37 2.105 . S
Sc23 O39 2.105 . S
Sc23 O43 2.105 . S
Sc24 O25 2.025 . S
Sc24 O34 2.105 . S
Sc24 O36 2.105 . S
Sc24 O40 2.105 . S
Sc24 O42 2.105 . S
O25 Sc22 2.025 . S
O25 Sc23 2.025 . S
O25 Sc24 2.025 . S
C26 O32 1.268 . S
C26 O42 1.268 . S
C27 O33 1.268 . S
C27 O41 1.268 . S
C28 O34 1.268 . S
C28 O43 1.268 . S
C29 O35 1.268 . S
C29 O39 1.268 . S
C30 O36 1.268 . S
C30 O38 1.268 . S
C31 O37 1.268 . S
C31 O40 1.268 . S
O32 Sc22 2.105 . S
O32 C26 1.268 . S
O33 Sc23 2.105 . S
O33 C27 1.268 . S
O34 Sc24 2.105 . S
O34 C28 1.268 . S
O35 Sc22 2.105 . S
O35 C29 1.268 . S
O36 Sc24 2.105 . S
O36 C30 1.268 . S
O37 Sc23 2.105 . S
O37 C31 1.268 . S
O38 Sc22 2.105 . S
O38 C30 1.268 . S
O39 Sc23 2.105 . S
O39 C29 1.268 . S
O40 Sc24 2.105 . S
O40 C31 1.268 . S
O41 Sc22 2.105 . S
O41 C27 1.268 . S
O42 Sc24 2.105 . S
O42 C26 1.268 . S
O43 Sc23 2.105 . S
O43 C28 1.268 . S
Sc44 O47 2.025 1_556 S
Sc44 O54 2.105 . S
Sc44 O57 2.105 . S
Sc44 O60 2.105 . S
Sc44 O63 2.105 . S
Sc45 O47 2.025 . S
Sc45 O55 2.105 1_554 S
Sc45 O59 2.105 . S
Sc45 O61 2.105 1_554 S
Sc45 O65 2.105 . S
Sc46 O47 2.025 . S
Sc46 O56 2.105 . S
Sc46 O58 2.105 . S
Sc46 O62 2.105 . S
Sc46 O64 2.105 . S
O47 Sc44 2.025 1_554 S
O47 Sc45 2.025 . S
O47 Sc46 2.025 . S
C48 O54 1.268 1_554 S
C48 O64 1.268 . S
C49 O55 1.268 . S
C49 O63 1.268 . S
C50 O56 1.268 . S
C50 O65 1.268 . S
C51 O57 1.268 . S
C51 O61 1.268 . S
C52 O58 1.268 . S
C52 O60 1.268 1_554 S
C53 O59 1.268 . S
C53 O62 1.268 . S
O54 Sc44 2.105 . S
O54 C48 1.268 1_556 S
O55 Sc45 2.105 1_556 S
O55 C49 1.268 . S
O56 Sc46 2.105 . S
O56 C50 1.268 . S
O57 Sc44 2.105 . S
O57 C51 1.268 . S
O58 Sc46 2.105 . S
O58 C52 1.268 . S
O59 Sc45 2.105 . S
O59 C53 1.268 . S
O60 Sc44 2.105 . S
O60 C52 1.268 1_556 S
O61 Sc45 2.105 1_556 S
O61 C51 1.268 . S
O62 Sc46 2.105 . S
O62 C53 1.268 . S
O63 Sc44 2.105 . S
O63 C49 1.268 . S
O64 Sc46 2.105 . S
O64 C48 1.268 . S
O65 Sc45 2.105 . S
O65 C50 1.268 . S
Sc66 O69 2.025 . S
Sc66 O76 2.105 . S
Sc66 O79 2.105 . S
Sc66 O82 2.105 . S
Sc66 O85 2.105 . S
Sc67 O69 2.025 . S
Sc67 O77 2.105 . S
Sc67 O81 2.105 . S
Sc67 O83 2.105 . S
Sc67 O87 2.105 . S
Sc68 O69 2.025 . S
Sc68 O78 2.105 . S
Sc68 O80 2.105 . S
Sc68 O84 2.105 . S
Sc68 O86 2.105 . S
O69 Sc66 2.025 . S
O69 Sc67 2.025 . S
O69 Sc68 2.025 . S
C70 O76 1.268 . S
C70 O86 1.268 . S
C71 O77 1.268 . S
C71 O85 1.268 . S
C72 O78 1.268 . S
C72 O87 1.268 . S
C73 O79 1.268 . S
C73 O83 1.268 . S
C74 O80 1.268 . S
C74 O82 1.268 . S
C75 O81 1.268 . S
C75 O84 1.268 . S
O76 Sc66 2.105 . S
O76 C70 1.268 . S
O77 Sc67 2.105 . S
O77 C71 1.268 . S
O78 Sc68 2.105 . S
O78 C72 1.268 . S
O79 Sc66 2.105 . S
O79 C73 1.268 . S
O80 Sc68 2.105 . S
O80 C74 1.268 . S
O81 Sc67 2.105 . S
O81 C75 1.268 . S
O82 Sc66 2.105 . S
O82 C74 1.268 . S
O83 Sc67 2.105 . S
O83 C73 1.268 . S
O84 Sc68 2.105 . S
O84 C75 1.268 . S
O85 Sc66 2.105 . S
O85 C71 1.268 . S
O86 Sc68 2.105 . S
O86 C70 1.268 . S
O87 Sc67 2.105 . S
O87 C72 1.268 . S
H88 C95 0.929 . S
H89 C98 0.930 . S
H90 C100 0.929 . S
H91 C92 0.969 . S
C92 H91 0.969 . S
C92 O93 1.550 1_556 S
C92 H94 0.973 . S
O93 C92 1.550 1_554 S
O93 C99 1.412 . S
H94 C92 0.973 . S
C95 H88 0.929 . S
C95 C96 1.400 . S
C95 C97 1.364 1_554 S
C96 C95 1.400 . S
C96 C100 1.377 . S
C97 C95 1.364 1_556 S
C97 C98 1.374 . S
C98 H89 0.930 . S
C98 C97 1.374 . S
C98 C99 1.383 1_556 S
C99 O93 1.412 . S
C99 C98 1.383 1_554 S
C99 C100 1.394 . S
C100 H90 0.929 . S
C100 C96 1.377 . S
C100 C99 1.394 . S
H101 C108 0.929 . S
H102 C111 0.930 . S
H103 C113 0.929 . S
H104 C105 0.969 . S
C105 H104 0.969 . S
C105 O106 1.550 . S
C105 H107 0.973 . S
O106 C105 1.550 . S
O106 C112 1.412 1_455 S
H107 C105 0.973 . S
C108 H101 0.929 . S
C108 C109 1.400 . S
C108 C110 1.364 . S
C109 C108 1.400 . S
C109 C113 1.377 . S
C110 C108 1.364 . S
C110 C111 1.374 . S
C111 H102 0.930 . S
C111 C110 1.374 . S
C111 C112 1.383 . S
C112 O106 1.412 1_655 S
C112 C111 1.383 . S
C112 C113 1.394 . S
C113 H103 0.929 . S
C113 C109 1.377 . S
C113 C112 1.394 . S
H114 C121 0.928 1_554 S
H115 C124 0.930 . S
H116 C126 0.929 . S
H117 C118 0.969 . S
C118 H117 0.969 . S
C118 O119 1.550 1_554 S
C118 H120 0.973 . S
O119 C118 1.550 1_556 S
O119 C125 1.412 . S
H120 C118 0.973 . S
C121 H114 0.928 1_556 S
C121 C122 1.409 . S
C121 C123 1.355 1_556 S
C122 C121 1.409 . S
C122 C126 1.377 . S
C123 C121 1.355 1_554 S
C123 C124 1.374 . S
C124 H115 0.930 . S
C124 C123 1.374 . S
C124 C125 1.383 1_554 S
C125 O119 1.412 . S
C125 C124 1.383 1_556 S
C125 C126 1.394 . S
C126 H116 0.929 . S
C126 C122 1.377 . S
C126 C125 1.394 . S
H127 C134 0.929 . S
H128 C137 0.930 . S
H129 C139 0.929 . S
H130 C131 0.969 . S
C131 H130 0.969 . S
C131 O132 1.550 . S
C131 H133 0.973 . S
O132 C131 1.550 . S
O132 C138 1.412 1_655 S
H133 C131 0.973 . S
C134 H127 0.929 . S
C134 C135 1.400 . S
C134 C136 1.364 . S
C135 C134 1.400 . S
C135 C139 1.377 . S
C136 C134 1.364 . S
C136 C137 1.374 . S
C137 H128 0.930 . S
C137 C136 1.374 . S
C137 C138 1.383 . S
C138 O132 1.412 1_455 S
C138 C137 1.383 . S
C138 C139 1.394 . S
C139 H129 0.929 . S
C139 C135 1.377 . S
C139 C138 1.394 . S
H140 C147 0.929 . S
H141 C150 0.930 . S
H142 C152 0.929 . S
H143 C144 0.969 . S
C144 H143 0.969 . S
C144 O145 1.550 . S
C144 H146 0.973 . S
O145 C144 1.550 . S
O145 C151 1.412 1_545 S
H146 C144 0.973 . S
C147 H140 0.929 . S
C147 C148 1.400 . S
C147 C149 1.364 . S
C148 C147 1.400 . S
C148 C152 1.377 . S
C149 C147 1.364 . S
C149 C150 1.374 . S
C150 H141 0.930 . S
C150 C149 1.374 . S
C150 C151 1.383 . S
C151 O145 1.412 1_565 S
C151 C150 1.383 . S
C151 C152 1.394 . S
C152 H142 0.929 . S
C152 C148 1.377 . S
C152 C151 1.394 . S
H153 C160 0.927 1_554 S
H154 C163 0.930 . S
H155 C165 0.929 . S
H156 C157 0.969 . S
C157 H156 0.969 . S
C157 O158 1.550 1_554 S
C157 H159 0.973 . S
O158 C157 1.550 1_556 S
O158 C164 1.412 . S
H159 C157 0.973 . S
C160 H153 0.927 1_556 S
C160 C161 1.410 . S
C160 C162 1.355 1_556 S
C161 C160 1.410 . S
C161 C165 1.377 . S
C162 C160 1.355 1_554 S
C162 C163 1.374 . S
C163 H154 0.930 . S
C163 C162 1.374 . S
C163 C164 1.383 1_554 S
C164 O158 1.412 . S
C164 C163 1.383 1_556 S
C164 C165 1.394 . S
C165 H155 0.929 . S
C165 C161 1.377 . S
C165 C164 1.394 . S
H166 C173 0.929 . S
H167 C176 0.930 . S
H168 C178 0.929 . S
H169 C170 0.969 . S
C170 H169 0.969 . S
C170 O171 1.550 . S
C170 H172 0.973 . S
O171 C170 1.550 . S
O171 C177 1.412 1_565 S
H172 C170 0.973 . S
C173 H166 0.929 . S
C173 C174 1.400 . S
C173 C175 1.364 . S
C174 C173 1.400 . S
C174 C178 1.377 . S
C175 C173 1.364 . S
C175 C176 1.374 . S
C176 H167 0.930 . S
C176 C175 1.374 . S
C176 C177 1.383 . S
C177 O171 1.412 1_545 S
C177 C176 1.383 . S
C177 C178 1.394 . S
C178 H168 0.929 . S
C178 C174 1.377 . S
C178 C177 1.394 . S
H179 C186 0.929 . S
H180 C189 0.930 . S
H181 C191 0.929 . S
H182 C183 0.969 . S
C183 H182 0.969 . S
C183 O184 1.550 1_556 S
C183 H185 0.973 . S
O184 C183 1.550 1_554 S
O184 C190 1.412 . S
H185 C183 0.973 . S
C186 H179 0.929 . S
C186 C187 1.400 . S
C186 C188 1.364 1_554 S
C187 C186 1.400 . S
C187 C191 1.377 . S
C188 C186 1.364 1_556 S
C188 C189 1.374 . S
C189 H180 0.930 . S
C189 C188 1.374 . S
C189 C190 1.383 1_556 S
C190 O184 1.412 . S
C190 C189 1.383 1_554 S
C190 C191 1.394 . S
C191 H181 0.929 . S
C191 C187 1.377 . S
C191 C190 1.394 . S
H192 C200 0.929 . S
H193 C202 0.930 . S
H194 C204 0.930 . S
H195 C207 0.929 . S
H196 C210 0.930 . S
H197 C212 0.960 . S
H198 C212 0.960 . S
H199 C212 0.960 . S
C200 H192 0.929 . S
C200 C201 1.377 . S
C200 C202 1.384 . S
C201 C200 1.377 . S
C201 C207 1.390 . S
C202 H193 0.930 . S
C202 C200 1.384 . S
C202 C203 1.372 . S
C203 C202 1.372 . S
C203 C204 1.400 . S
C203 C208 1.490 . S
C204 H194 0.930 . S
C204 C203 1.400 . S
C204 C207 1.386 . S
H205 C221 0.930 . S
H206 C222 0.931 . S
C207 H195 0.929 . S
C207 C201 1.390 . S
C207 C204 1.386 . S
C208 C203 1.490 . S
C208 C210 1.395 . S
C208 C211 1.403 . S
H209 C215 0.930 . S
C210 H196 0.930 . S
C210 C208 1.395 . S
C210 C213 1.403 . S
C211 C208 1.403 . S
C211 C212 1.524 . S
C211 C215 1.400 . S
C212 H197 0.960 . S
C212 H198 0.960 . S
C212 H199 0.960 . S
C212 C211 1.524 . S
C213 C210 1.403 . S
C213 C214 1.392 . S
C213 C217 1.495 . S
C214 C213 1.392 . S
C214 C215 1.385 . S
C214 C216 1.478 . S
C215 H209 0.930 . S
C215 C211 1.400 . S
C215 C214 1.385 . S
C216 C214 1.478 . S
C216 C218 1.381 . S
C216 C222 1.383 . S
C217 C213 1.495 . S
C217 H223 0.959 . S
C217 H224 0.961 . S
C217 H225 0.960 . S
C218 C216 1.381 . S
C218 C219 1.394 . S
C218 H226 0.930 . S
C219 C218 1.394 . S
C219 C220 1.383 . S
C219 H227 0.929 . S
C220 C219 1.383 . S
C220 C221 1.377 . S
C221 H205 0.930 . S
C221 C220 1.377 . S
C221 C222 1.379 . S
C222 H206 0.931 . S
C222 C216 1.383 . S
C222 C221 1.379 . S
H223 C217 0.959 . S
H224 C217 0.961 . S
H225 C217 0.960 . S
H226 C218 0.930 . S
H227 C219 0.929 . S
H228 C236 0.929 . S
H229 C238 0.930 . S
H230 C240 0.930 . S
H231 C243 0.929 . S
H232 C246 0.930 . S
H233 C248 0.960 . S
H234 C248 0.960 . S
H235 C248 0.960 . S
C236 H228 0.929 . S
C236 C237 1.377 . S
C236 C238 1.384 . S
C237 C236 1.377 . S
C237 C243 1.390 . S
C238 H229 0.930 . S
C238 C236 1.384 . S
C238 C239 1.372 . S
C239 C238 1.372 . S
C239 C240 1.400 . S
C239 C244 1.490 . S
C240 H230 0.930 . S
C240 C239 1.400 . S
C240 C243 1.386 . S
H241 C257 0.930 . S
H242 C258 0.931 . S
C243 H231 0.929 . S
C243 C237 1.390 . S
C243 C240 1.386 . S
C244 C239 1.490 . S
C244 C246 1.395 . S
C244 C247 1.403 . S
H245 C251 0.930 . S
C246 H232 0.930 . S
C246 C244 1.395 . S
C246 C249 1.403 . S
C247 C244 1.403 . S
C247 C248 1.524 . S
C247 C251 1.400 . S
C248 H233 0.960 . S
C248 H234 0.960 . S
C248 H235 0.960 . S
C248 C247 1.524 . S
C249 C246 1.403 . S
C249 C250 1.392 . S
C249 C253 1.495 . S
C250 C249 1.392 . S
C250 C251 1.385 . S
C250 C252 1.478 . S
C251 H245 0.930 . S
C251 C247 1.400 . S
C251 C250 1.385 . S
C252 C250 1.478 . S
C252 C254 1.381 . S
C252 C258 1.383 . S
C253 C249 1.495 . S
C253 H259 0.959 . S
C253 H260 0.961 . S
C253 H261 0.960 . S
C254 C252 1.381 . S
C254 C255 1.394 . S
C254 H262 0.930 . S
C255 C254 1.394 . S
C255 C256 1.383 . S
C255 H263 0.929 . S
C256 C255 1.383 . S
C256 C257 1.377 . S
C257 H241 0.930 . S
C257 C256 1.377 . S
C257 C258 1.379 . S
C258 H242 0.931 . S
C258 C252 1.383 . S
C258 C257 1.379 . S
H259 C253 0.959 . S
H260 C253 0.961 . S
H261 C253 0.960 . S
H262 C254 0.930 . S
H263 C255 0.929 . S
H264 C272 0.929 . S
H265 C274 0.930 . S
H266 C276 0.930 . S
H267 C279 0.929 . S
H268 C282 0.930 . S
H269 C284 0.960 . S
H270 C284 0.960 . S
H271 C284 0.960 . S
C272 H264 0.929 . S
C272 C273 1.377 . S
C272 C274 1.384 . S
C273 C272 1.377 . S
C273 C279 1.390 . S
C274 H265 0.930 . S
C274 C272 1.384 . S
C274 C275 1.372 . S
C275 C274 1.372 . S
C275 C276 1.400 . S
C275 C280 1.490 . S
C276 H266 0.930 . S
C276 C275 1.400 . S
C276 C279 1.386 . S
H277 C293 0.930 . S
H278 C294 0.931 . S
C279 H267 0.929 . S
C279 C273 1.390 . S
C279 C276 1.386 . S
C280 C275 1.490 . S
C280 C282 1.395 . S
C280 C283 1.403 . S
H281 C287 0.930 . S
C282 H268 0.930 . S
C282 C280 1.395 . S
C282 C285 1.403 . S
C283 C280 1.403 . S
C283 C284 1.524 . S
C283 C287 1.400 . S
C284 H269 0.960 . S
C284 H270 0.960 . S
C284 H271 0.960 . S
C284 C283 1.524 . S
C285 C282 1.403 . S
C285 C286 1.392 . S
C285 C289 1.495 . S
C286 C285 1.392 . S
C286 C287 1.385 . S
C286 C288 1.478 . S
C287 H281 0.930 . S
C287 C283 1.400 . S
C287 C286 1.385 . S
C288 C286 1.478 . S
C288 C290 1.381 . S
C288 C294 1.383 . S
C289 C285 1.495 . S
C289 H295 0.959 . S
C289 H296 0.961 . S
C289 H297 0.960 . S
C290 C288 1.381 . S
C290 C291 1.394 . S
C290 H298 0.930 . S
C291 C290 1.394 . S
C291 C292 1.383 . S
C291 H299 0.929 . S
C292 C291 1.383 . S
C292 C293 1.377 . S
C293 H277 0.930 . S
C293 C292 1.377 . S
C293 C294 1.379 . S
C294 H278 0.931 . S
C294 C288 1.383 . S
C294 C293 1.379 . S
H295 C289 0.959 . S
H296 C289 0.961 . S
H297 C289 0.960 . S
H298 C290 0.930 . S
H299 C291 0.929 . S
H300 C308 0.929 . S
H301 C310 0.930 . S
H302 C312 0.930 . S
H303 C315 0.929 . S
H304 C318 0.930 . S
H305 C320 0.960 . S
H306 C320 0.960 . S
H307 C320 0.960 . S
C308 H300 0.929 . S
C308 C309 1.377 . S
C308 C310 1.384 . S
C309 C308 1.377 . S
C309 C315 1.390 . S
C310 H301 0.930 . S
C310 C308 1.384 . S
C310 C311 1.372 . S
C311 C310 1.372 . S
C311 C312 1.400 . S
C311 C316 1.490 . S
C312 H302 0.930 . S
C312 C311 1.400 . S
C312 C315 1.386 . S
H313 C329 0.930 . S
H314 C330 0.931 . S
C315 H303 0.929 . S
C315 C309 1.390 . S
C315 C312 1.386 . S
C316 C311 1.490 . S
C316 C318 1.395 . S
C316 C319 1.403 . S
H317 C323 0.930 . S
C318 H304 0.930 . S
C318 C316 1.395 . S
C318 C321 1.403 . S
C319 C316 1.403 . S
C319 C320 1.524 . S
C319 C323 1.400 . S
C320 H305 0.960 . S
C320 H306 0.960 . S
C320 H307 0.960 . S
C320 C319 1.524 . S
C321 C318 1.403 . S
C321 C322 1.392 . S
C321 C325 1.495 . S
C322 C321 1.392 . S
C322 C323 1.385 . S
C322 C324 1.478 . S
C323 H317 0.930 . S
C323 C319 1.400 . S
C323 C322 1.385 . S
C324 C322 1.478 . S
C324 C326 1.381 . S
C324 C330 1.383 . S
C325 C321 1.495 . S
C325 H331 0.959 . S
C325 H332 0.961 . S
C325 H333 0.960 . S
C326 C324 1.381 . S
C326 C327 1.394 . S
C326 H334 0.930 . S
C327 C326 1.394 . S
C327 C328 1.383 . S
C327 H335 0.929 . S
C328 C327 1.383 . S
C328 C329 1.377 . S
C329 H313 0.930 . S
C329 C328 1.377 . S
C329 C330 1.379 . S
C330 H314 0.931 . S
C330 C324 1.383 . S
C330 C329 1.379 . S
H331 C325 0.959 . S
H332 C325 0.961 . S
H333 C325 0.960 . S
H334 C326 0.930 . S
H335 C327 0.929 . S
H336 C344 0.929 . S
H337 C346 0.930 . S
H338 C348 0.930 . S
H339 C351 0.929 . S
H340 C354 0.930 . S
H341 C356 0.960 . S
H342 C356 0.960 . S
H343 C356 0.960 . S
C344 H336 0.929 . S
C344 C345 1.377 . S
C344 C346 1.384 . S
C345 C344 1.377 . S
C345 C351 1.390 . S
C346 H337 0.930 . S
C346 C344 1.384 . S
C346 C347 1.372 . S
C347 C346 1.372 . S
C347 C348 1.400 . S
C347 C352 1.490 . S
C348 H338 0.930 . S
C348 C347 1.400 . S
C348 C351 1.386 . S
H349 C365 0.930 . S
H350 C366 0.931 . S
C351 H339 0.929 . S
C351 C345 1.390 . S
C351 C348 1.386 . S
C352 C347 1.490 . S
C352 C354 1.395 . S
C352 C355 1.403 . S
H353 C359 0.930 . S
C354 H340 0.930 . S
C354 C352 1.395 . S
C354 C357 1.403 . S
C355 C352 1.403 . S
C355 C356 1.524 . S
C355 C359 1.400 . S
C356 H341 0.960 . S
C356 H342 0.960 . S
C356 H343 0.960 . S
C356 C355 1.524 . S
C357 C354 1.403 . S
C357 C358 1.392 . S
C357 C361 1.495 . S
C358 C357 1.392 . S
C358 C359 1.385 . S
C358 C360 1.478 . S
C359 H353 0.930 . S
C359 C355 1.400 . S
C359 C358 1.385 . S
C360 C358 1.478 . S
C360 C362 1.381 . S
C360 C366 1.383 . S
C361 C357 1.495 . S
C361 H367 0.959 . S
C361 H368 0.961 . S
C361 H369 0.960 . S
C362 C360 1.381 . S
C362 C363 1.394 . S
C362 H370 0.930 . S
C363 C362 1.394 . S
C363 C364 1.383 . S
C363 H371 0.929 . S
C364 C363 1.383 . S
C364 C365 1.377 . S
C365 H349 0.930 . S
C365 C364 1.377 . S
C365 C366 1.379 . S
C366 H350 0.931 . S
C366 C360 1.383 . S
C366 C365 1.379 . S
H367 C361 0.959 . S
H368 C361 0.961 . S
H369 C361 0.960 . S
H370 C362 0.930 . S
H371 C363 0.929 . S
H372 C380 0.929 . S
H373 C382 0.930 . S
H374 C384 0.930 . S
H375 C387 0.929 . S
H376 C390 0.930 . S
H377 C392 0.960 . S
H378 C392 0.960 . S
H379 C392 0.960 . S
C380 H372 0.929 . S
C380 C381 1.377 . S
C380 C382 1.384 . S
C381 C380 1.377 . S
C381 C387 1.390 . S
C382 H373 0.930 . S
C382 C380 1.384 . S
C382 C383 1.372 . S
C383 C382 1.372 . S
C383 C384 1.400 . S
C383 C388 1.490 . S
C384 H374 0.930 . S
C384 C383 1.400 . S
C384 C387 1.386 . S
H385 C401 0.930 . S
H386 C402 0.931 . S
C387 H375 0.929 . S
C387 C381 1.390 . S
C387 C384 1.386 . S
C388 C383 1.490 . S
C388 C390 1.395 . S
C388 C391 1.403 . S
H389 C395 0.930 . S
C390 H376 0.930 . S
C390 C388 1.395 . S
C390 C393 1.403 . S
C391 C388 1.403 . S
C391 C392 1.524 . S
C391 C395 1.400 . S
C392 H377 0.960 . S
C392 H378 0.960 . S
C392 H379 0.960 . S
C392 C391 1.524 . S
C393 C390 1.403 . S
C393 C394 1.392 . S
C393 C397 1.495 . S
C394 C393 1.392 . S
C394 C395 1.385 . S
C394 C396 1.478 . S
C395 H389 0.930 . S
C395 C391 1.400 . S
C395 C394 1.385 . S
C396 C394 1.478 . S
C396 C398 1.381 . S
C396 C402 1.383 . S
C397 C393 1.495 . S
C397 H403 0.959 . S
C397 H404 0.961 . S
C397 H405 0.960 . S
C398 C396 1.381 . S
C398 C399 1.394 . S
C398 H406 0.930 . S
C399 C398 1.394 . S
C399 C400 1.383 . S
C399 H407 0.929 . S
C400 C399 1.383 . S
C400 C401 1.377 . S
C401 H385 0.930 . S
C401 C400 1.377 . S
C401 C402 1.379 . S
C402 H386 0.931 . S
C402 C396 1.383 . S
C402 C401 1.379 . S
H403 C397 0.959 . S
H404 C397 0.961 . S
H405 C397 0.960 . S
H406 C398 0.930 . S
H407 C399 0.929 . S
H408 C416 0.929 . S
H409 C418 0.930 . S
H410 C420 0.930 . S
H411 C423 0.929 . S
H412 C426 0.930 . S
H413 C428 0.960 . S
H414 C428 0.960 . S
H415 C428 0.960 . S
C416 H408 0.929 . S
C416 C417 1.377 . S
C416 C418 1.384 . S
C417 C416 1.377 . S
C417 C423 1.390 . S
C418 H409 0.930 . S
C418 C416 1.384 . S
C418 C419 1.372 . S
C419 C418 1.372 . S
C419 C420 1.400 . S
C419 C424 1.490 . S
C420 H410 0.930 . S
C420 C419 1.400 . S
C420 C423 1.386 . S
H421 C437 0.930 . S
H422 C438 0.931 . S
C423 H411 0.929 . S
C423 C417 1.390 . S
C423 C420 1.386 . S
C424 C419 1.490 . S
C424 C426 1.395 . S
C424 C427 1.403 . S
H425 C431 0.930 . S
C426 H412 0.930 . S
C426 C424 1.395 . S
C426 C429 1.403 . S
C427 C424 1.403 . S
C427 C428 1.524 . S
C427 C431 1.400 . S
C428 H413 0.960 . S
C428 H414 0.960 . S
C428 H415 0.960 . S
C428 C427 1.524 . S
C429 C426 1.403 . S
C429 C430 1.392 . S
C429 C433 1.495 . S
C430 C429 1.392 . S
C430 C431 1.385 . S
C430 C432 1.478 . S
C431 H425 0.930 . S
C431 C427 1.400 . S
C431 C430 1.385 . S
C432 C430 1.478 . S
C432 C434 1.381 . S
C432 C438 1.383 . S
C433 C429 1.495 . S
C433 H439 0.959 . S
C433 H440 0.961 . S
C433 H441 0.960 . S
C434 C432 1.381 . S
C434 C435 1.394 . S
C434 H442 0.930 . S
C435 C434 1.394 . S
C435 C436 1.383 . S
C435 H443 0.929 . S
C436 C435 1.383 . S
C436 C437 1.377 . S
C437 H421 0.930 . S
C437 C436 1.377 . S
C437 C438 1.379 . S
C438 H422 0.931 . S
C438 C432 1.383 . S
C438 C437 1.379 . S
H439 C433 0.959 . S
H440 C433 0.961 . S
H441 C433 0.960 . S
H442 C434 0.930 . S
H443 C435 0.929 . S
H444 C452 0.929 . S
H445 C454 0.930 . S
H446 C456 0.930 . S
H447 C459 0.929 . S
H448 C462 0.930 . S
H449 C464 0.960 . S
H450 C464 0.960 . S
H451 C464 0.960 . S
C452 H444 0.929 . S
C452 C453 1.377 . S
C452 C454 1.384 . S
C453 C452 1.377 . S
C453 C459 1.390 . S
C454 H445 0.930 . S
C454 C452 1.384 . S
C454 C455 1.372 . S
C455 C454 1.372 . S
C455 C456 1.400 . S
C455 C460 1.490 . S
C456 H446 0.930 . S
C456 C455 1.400 . S
C456 C459 1.386 . S
H457 C473 0.930 . S
H458 C474 0.931 . S
C459 H447 0.929 . S
C459 C453 1.390 . S
C459 C456 1.386 . S
C460 C455 1.490 . S
C460 C462 1.395 . S
C460 C463 1.403 . S
H461 C467 0.930 . S
C462 H448 0.930 . S
C462 C460 1.395 . S
C462 C465 1.403 . S
C463 C460 1.403 . S
C463 C464 1.524 . S
C463 C467 1.400 . S
C464 H449 0.960 . S
C464 H450 0.960 . S
C464 H451 0.960 . S
C464 C463 1.524 . S
C465 C462 1.403 . S
C465 C466 1.392 . S
C465 C469 1.495 . S
C466 C465 1.392 . S
C466 C467 1.385 . S
C466 C468 1.478 . S
C467 H461 0.930 . S
C467 C463 1.400 . S
C467 C466 1.385 . S
C468 C466 1.478 . S
C468 C470 1.381 . S
C468 C474 1.383 . S
C469 C465 1.495 . S
C469 H475 0.959 . S
C469 H476 0.961 . S
C469 H477 0.960 . S
C470 C468 1.381 . S
C470 C471 1.394 . S
C470 H478 0.930 . S
C471 C470 1.394 . S
C471 C472 1.383 . S
C471 H479 0.929 . S
C472 C471 1.383 . S
C472 C473 1.377 . S
C473 H457 0.930 . S
C473 C472 1.377 . S
C473 C474 1.379 . S
C474 H458 0.931 . S
C474 C468 1.383 . S
C474 C473 1.379 . S
H475 C469 0.959 . S
H476 C469 0.961 . S
H477 C469 0.960 . S
H478 C470 0.930 . S
H479 C471 0.929 . S
H480 C488 0.929 . S
H481 C490 0.930 . S
H482 C492 0.930 . S
H483 C495 0.929 . S
H484 C498 0.930 . S
H485 C500 0.960 . S
H486 C500 0.960 . S
H487 C500 0.960 . S
C488 H480 0.929 . S
C488 C489 1.377 . S
C488 C490 1.384 . S
C489 C488 1.377 . S
C489 C495 1.390 . S
C490 H481 0.930 . S
C490 C488 1.384 . S
C490 C491 1.372 . S
C491 C490 1.372 . S
C491 C492 1.400 . S
C491 C496 1.490 . S
C492 H482 0.930 . S
C492 C491 1.400 . S
C492 C495 1.386 . S
H493 C509 0.930 . S
H494 C510 0.931 . S
C495 H483 0.929 . S
C495 C489 1.390 . S
C495 C492 1.386 . S
C496 C491 1.490 . S
C496 C498 1.395 . S
C496 C499 1.403 . S
H497 C503 0.930 . S
C498 H484 0.930 . S
C498 C496 1.395 . S
C498 C501 1.403 . S
C499 C496 1.403 . S
C499 C500 1.524 . S
C499 C503 1.400 . S
C500 H485 0.960 . S
C500 H486 0.960 . S
C500 H487 0.960 . S
C500 C499 1.524 . S
C501 C498 1.403 . S
C501 C502 1.392 . S
C501 C505 1.495 . S
C502 C501 1.392 . S
C502 C503 1.385 . S
C502 C504 1.478 . S
C503 H497 0.930 . S
C503 C499 1.400 . S
C503 C502 1.385 . S
C504 C502 1.478 . S
C504 C506 1.381 . S
C504 C510 1.383 . S
C505 C501 1.495 . S
C505 H511 0.959 . S
C505 H512 0.961 . S
C505 H513 0.960 . S
C506 C504 1.381 . S
C506 C507 1.394 . S
C506 H514 0.930 . S
C507 C506 1.394 . S
C507 C508 1.383 . S
C507 H515 0.929 . S
C508 C507 1.383 . S
C508 C509 1.377 . S
C509 H493 0.930 . S
C509 C508 1.377 . S
C509 C510 1.379 . S
C510 H494 0.931 . S
C510 C504 1.383 . S
C510 C509 1.379 . S
H511 C505 0.959 . S
H512 C505 0.961 . S
H513 C505 0.960 . S
H514 C506 0.930 . S
H515 C507 0.929 . S
H516 C524 0.929 . S
H517 C526 0.930 . S
H518 C528 0.930 . S
H519 C531 0.929 . S
H520 C534 0.930 . S
H521 C536 0.960 . S
H522 C536 0.960 . S
H523 C536 0.960 . S
C524 H516 0.929 . S
C524 C525 1.377 . S
C524 C526 1.384 . S
C525 C524 1.377 . S
C525 C531 1.390 . S
C526 H517 0.930 . S
C526 C524 1.384 . S
C526 C527 1.372 . S
C527 C526 1.372 . S
C527 C528 1.400 . S
C527 C532 1.490 . S
C528 H518 0.930 . S
C528 C527 1.400 . S
C528 C531 1.386 . S
H529 C545 0.930 . S
H530 C546 0.931 . S
C531 H519 0.929 . S
C531 C525 1.390 . S
C531 C528 1.386 . S
C532 C527 1.490 . S
C532 C534 1.395 . S
C532 C535 1.403 . S
H533 C539 0.930 . S
C534 H520 0.930 . S
C534 C532 1.395 . S
C534 C537 1.403 . S
C535 C532 1.403 . S
C535 C536 1.524 . S
C535 C539 1.400 . S
C536 H521 0.960 . S
C536 H522 0.960 . S
C536 H523 0.960 . S
C536 C535 1.524 . S
C537 C534 1.403 . S
C537 C538 1.392 . S
C537 C541 1.495 . S
C538 C537 1.392 . S
C538 C539 1.385 . S
C538 C540 1.478 . S
C539 H533 0.930 . S
C539 C535 1.400 . S
C539 C538 1.385 . S
C540 C538 1.478 . S
C540 C542 1.381 . S
C540 C546 1.383 . S
C541 C537 1.495 . S
C541 H547 0.959 . S
C541 H548 0.961 . S
C541 H549 0.960 . S
C542 C540 1.381 . S
C542 C543 1.394 . S
C542 H550 0.930 . S
C543 C542 1.394 . S
C543 C544 1.383 . S
C543 H551 0.929 . S
C544 C543 1.383 . S
C544 C545 1.377 . S
C545 H529 0.930 . S
C545 C544 1.377 . S
C545 C546 1.379 . S
C546 H530 0.931 . S
C546 C540 1.383 . S
C546 C545 1.379 . S
H547 C541 0.959 . S
H548 C541 0.961 . S
H549 C541 0.960 . S
H550 C542 0.930 . S
H551 C543 0.929 . S
H552 C560 0.929 . S
H553 C562 0.930 . S
H554 C564 0.930 . S
H555 C567 0.929 . S
H556 C570 0.930 . S
H557 C572 0.960 . S
H558 C572 0.960 . S
H559 C572 0.960 . S
C560 H552 0.929 . S
C560 C561 1.377 . S
C560 C562 1.384 . S
C561 C560 1.377 . S
C561 C567 1.390 . S
C562 H553 0.930 . S
C562 C560 1.384 . S
C562 C563 1.372 . S
C563 C562 1.372 . S
C563 C564 1.400 . S
C563 C568 1.490 . S
C564 H554 0.930 . S
C564 C563 1.400 . S
C564 C567 1.386 . S
H565 C581 0.930 . S
H566 C582 0.931 . S
C567 H555 0.929 . S
C567 C561 1.390 . S
C567 C564 1.386 . S
C568 C563 1.490 . S
C568 C570 1.395 . S
C568 C571 1.403 . S
H569 C575 0.930 . S
C570 H556 0.930 . S
C570 C568 1.395 . S
C570 C573 1.403 . S
C571 C568 1.403 . S
C571 C572 1.524 . S
C571 C575 1.400 . S
C572 H557 0.960 . S
C572 H558 0.960 . S
C572 H559 0.960 . S
C572 C571 1.524 . S
C573 C570 1.403 . S
C573 C574 1.392 . S
C573 C577 1.495 . S
C574 C573 1.392 . S
C574 C575 1.385 . S
C574 C576 1.478 . S
C575 H569 0.930 . S
C575 C571 1.400 . S
C575 C574 1.385 . S
C576 C574 1.478 . S
C576 C578 1.381 . S
C576 C582 1.383 . S
C577 C573 1.495 . S
C577 H583 0.959 . S
C577 H584 0.961 . S
C577 H585 0.960 . S
C578 C576 1.381 . S
C578 C579 1.394 . S
C578 H586 0.930 . S
C579 C578 1.394 . S
C579 C580 1.383 . S
C579 H587 0.929 . S
C580 C579 1.383 . S
C580 C581 1.377 . S
C581 H565 0.930 . S
C581 C580 1.377 . S
C581 C582 1.379 . S
C582 H566 0.931 . S
C582 C576 1.383 . S
C582 C581 1.379 . S
H583 C577 0.959 . S
H584 C577 0.961 . S
H585 C577 0.960 . S
H586 C578 0.930 . S
H587 C579 0.929 . S
H588 C596 0.929 . S
H589 C598 0.930 . S
H590 C600 0.930 . S
H591 C603 0.929 . S
H592 C606 0.930 . S
H593 C608 0.960 . S
H594 C608 0.960 . S
H595 C608 0.960 . S
C596 H588 0.929 . S
C596 C597 1.377 . S
C596 C598 1.384 . S
C597 C596 1.377 . S
C597 C603 1.390 . S
C598 H589 0.930 . S
C598 C596 1.384 . S
C598 C599 1.372 . S
C599 C598 1.372 . S
C599 C600 1.400 . S
C599 C604 1.490 . S
C600 H590 0.930 . S
C600 C599 1.400 . S
C600 C603 1.386 . S
H601 C617 0.930 . S
H602 C618 0.931 . S
C603 H591 0.929 . S
C603 C597 1.390 . S
C603 C600 1.386 . S
C604 C599 1.490 . S
C604 C606 1.395 . S
C604 C607 1.403 . S
H605 C611 0.930 . S
C606 H592 0.930 . S
C606 C604 1.395 . S
C606 C609 1.403 . S
C607 C604 1.403 . S
C607 C608 1.524 . S
C607 C611 1.400 . S
C608 H593 0.960 . S
C608 H594 0.960 . S
C608 H595 0.960 . S
C608 C607 1.524 . S
C609 C606 1.403 . S
C609 C610 1.392 . S
C609 C613 1.495 . S
C610 C609 1.392 . S
C610 C611 1.385 . S
C610 C612 1.478 . S
C611 H605 0.930 . S
C611 C607 1.400 . S
C611 C610 1.385 . S
C612 C610 1.478 . S
C612 C614 1.381 . S
C612 C618 1.383 . S
C613 C609 1.495 . S
C613 H619 0.959 . S
C613 H620 0.961 . S
C613 H621 0.960 . S
C614 C612 1.381 . S
C614 C615 1.394 . S
C614 H622 0.930 . S
C615 C614 1.394 . S
C615 C616 1.383 . S
C615 H623 0.929 . S
C616 C615 1.383 . S
C616 C617 1.377 . S
C617 H601 0.930 . S
C617 C616 1.377 . S
C617 C618 1.379 . S
C618 H602 0.931 . S
C618 C612 1.383 . S
C618 C617 1.379 . S
H619 C613 0.959 . S
H620 C613 0.961 . S
H621 C613 0.960 . S
H622 C614 0.930 . S
H623 C615 0.929 . S
H624 C632 0.929 . S
H625 C634 0.930 . S
H626 C636 0.930 . S
H627 C639 0.929 . S
H628 C642 0.930 . S
H629 C644 0.960 . S
H630 C644 0.960 . S
H631 C644 0.960 . S
C632 H624 0.929 . S
C632 C633 1.377 . S
C632 C634 1.384 . S
C633 C632 1.377 . S
C633 C639 1.390 . S
C634 H625 0.930 . S
C634 C632 1.384 . S
C634 C635 1.372 . S
C635 C634 1.372 . S
C635 C636 1.400 . S
C635 C640 1.490 . S
C636 H626 0.930 . S
C636 C635 1.400 . S
C636 C639 1.386 . S
H637 C653 0.930 . S
H638 C654 0.931 . S
C639 H627 0.929 . S
C639 C633 1.390 . S
C639 C636 1.386 . S
C640 C635 1.490 . S
C640 C642 1.395 . S
C640 C643 1.403 . S
H641 C647 0.930 . S
C642 H628 0.930 . S
C642 C640 1.395 . S
C642 C645 1.403 . S
C643 C640 1.403 . S
C643 C644 1.524 . S
C643 C647 1.400 . S
C644 H629 0.960 . S
C644 H630 0.960 . S
C644 H631 0.960 . S
C644 C643 1.524 . S
C645 C642 1.403 . S
C645 C646 1.392 . S
C645 C649 1.495 . S
C646 C645 1.392 . S
C646 C647 1.385 . S
C646 C648 1.478 . S
C647 H641 0.930 . S
C647 C643 1.400 . S
C647 C646 1.385 . S
C648 C646 1.478 . S
C648 C650 1.381 . S
C648 C654 1.383 . S
C649 C645 1.495 . S
C649 H655 0.959 . S
C649 H656 0.961 . S
C649 H657 0.960 . S
C650 C648 1.381 . S
C650 C651 1.394 . S
C650 H658 0.930 . S
C651 C650 1.394 . S
C651 C652 1.383 . S
C651 H659 0.929 . S
C652 C651 1.383 . S
C652 C653 1.377 . S
C653 H637 0.930 . S
C653 C652 1.377 . S
C653 C654 1.379 . S
C654 H638 0.931 . S
C654 C648 1.383 . S
C654 C653 1.379 . S
H655 C649 0.959 . S
H656 C649 0.961 . S
H657 C649 0.960 . S
H658 C650 0.930 . S
H659 C651 0.929 . S
H660 C668 0.929 . S
H661 C670 0.930 . S
H662 C672 0.930 . S
H663 C675 0.929 . S
H664 C678 0.930 . S
H665 C680 0.960 . S
H666 C680 0.960 . S
H667 C680 0.960 . S
C668 H660 0.929 . S
C668 C669 1.377 . S
C668 C670 1.384 . S
C669 C668 1.377 . S
C669 C675 1.390 . S
C670 H661 0.930 . S
C670 C668 1.384 . S
C670 C671 1.372 . S
C671 C670 1.372 . S
C671 C672 1.400 . S
C671 C676 1.490 . S
C672 H662 0.930 . S
C672 C671 1.400 . S
C672 C675 1.386 . S
H673 C689 0.930 . S
H674 C690 0.931 . S
C675 H663 0.929 . S
C675 C669 1.390 . S
C675 C672 1.386 . S
C676 C671 1.490 . S
C676 C678 1.395 . S
C676 C679 1.403 . S
H677 C683 0.930 . S
C678 H664 0.930 . S
C678 C676 1.395 . S
C678 C681 1.403 . S
C679 C676 1.403 . S
C679 C680 1.524 . S
C679 C683 1.400 . S
C680 H665 0.960 . S
C680 H666 0.960 . S
C680 H667 0.960 . S
C680 C679 1.524 . S
C681 C678 1.403 . S
C681 C682 1.392 . S
C681 C685 1.495 . S
C682 C681 1.392 . S
C682 C683 1.385 . S
C682 C684 1.478 . S
C683 H677 0.930 . S
C683 C679 1.400 . S
C683 C682 1.385 . S
C684 C682 1.478 . S
C684 C686 1.381 . S
C684 C690 1.383 . S
C685 C681 1.495 . S
C685 H691 0.959 . S
C685 H692 0.961 . S
C685 H693 0.960 . S
C686 C684 1.381 . S
C686 C687 1.394 . S
C686 H694 0.930 . S
C687 C686 1.394 . S
C687 C688 1.383 . S
C687 H695 0.929 . S
C688 C687 1.383 . S
C688 C689 1.377 . S
C689 H673 0.930 . S
C689 C688 1.377 . S
C689 C690 1.379 . S
C690 H674 0.931 . S
C690 C684 1.383 . S
C690 C689 1.379 . S
H691 C685 0.959 . S
H692 C685 0.961 . S
H693 C685 0.960 . S
H694 C686 0.930 . S
H695 C687 0.929 . S
H696 C704 0.929 . S
H697 C706 0.930 . S
H698 C708 0.930 . S
H699 C711 0.929 . S
H700 C714 0.930 . S
H701 C716 0.960 . S
H702 C716 0.960 . S
H703 C716 0.960 . S
C704 H696 0.929 . S
C704 C705 1.377 . S
C704 C706 1.384 . S
C705 C704 1.377 . S
C705 C711 1.390 . S
C706 H697 0.930 . S
C706 C704 1.384 . S
C706 C707 1.372 . S
C707 C706 1.372 . S
C707 C708 1.400 . S
C707 C712 1.490 . S
C708 H698 0.930 . S
C708 C707 1.400 . S
C708 C711 1.386 . S
H709 C725 0.930 . S
H710 C726 0.931 . S
C711 H699 0.929 . S
C711 C705 1.390 . S
C711 C708 1.386 . S
C712 C707 1.490 . S
C712 C714 1.395 . S
C712 C715 1.403 . S
H713 C719 0.930 . S
C714 H700 0.930 . S
C714 C712 1.395 . S
C714 C717 1.403 . S
C715 C712 1.403 . S
C715 C716 1.524 . S
C715 C719 1.400 . S
C716 H701 0.960 . S
C716 H702 0.960 . S
C716 H703 0.960 . S
C716 C715 1.524 . S
C717 C714 1.403 . S
C717 C718 1.392 . S
C717 C721 1.495 . S
C718 C717 1.392 . S
C718 C719 1.385 . S
C718 C720 1.478 . S
C719 H713 0.930 . S
C719 C715 1.400 . S
C719 C718 1.385 . S
C720 C718 1.478 . S
C720 C722 1.381 . S
C720 C726 1.383 . S
C721 C717 1.495 . S
C721 H727 0.959 . S
C721 H728 0.961 . S
C721 H729 0.960 . S
C722 C720 1.381 . S
C722 C723 1.394 . S
C722 H730 0.930 . S
C723 C722 1.394 . S
C723 C724 1.383 . S
C723 H731 0.929 . S
C724 C723 1.383 . S
C724 C725 1.377 . S
C725 H709 0.930 . S
C725 C724 1.377 . S
C725 C726 1.379 . S
C726 H710 0.931 . S
C726 C720 1.383 . S
C726 C725 1.379 . S
H727 C721 0.959 . S
H728 C721 0.961 . S
H729 C721 0.960 . S
H730 C722 0.930 . S
H731 C723 0.929 . S
H732 C740 0.929 . S
H733 C742 0.930 . S
H734 C744 0.930 . S
H735 C747 0.929 . S
H736 C750 0.930 . S
H737 C752 0.960 . S
H738 C752 0.960 . S
H739 C752 0.960 . S
C740 H732 0.929 . S
C740 C741 1.377 . S
C740 C742 1.384 . S
C741 C740 1.377 . S
C741 C747 1.390 . S
C742 H733 0.930 . S
C742 C740 1.384 . S
C742 C743 1.372 . S
C743 C742 1.372 . S
C743 C744 1.400 . S
C743 C748 1.490 . S
C744 H734 0.930 . S
C744 C743 1.400 . S
C744 C747 1.386 . S
H745 C761 0.930 . S
H746 C762 0.931 . S
C747 H735 0.929 . S
C747 C741 1.390 . S
C747 C744 1.386 . S
C748 C743 1.490 . S
C748 C750 1.395 . S
C748 C751 1.403 . S
H749 C755 0.930 . S
C750 H736 0.930 . S
C750 C748 1.395 . S
C750 C753 1.403 . S
C751 C748 1.403 . S
C751 C752 1.524 . S
C751 C755 1.400 . S
C752 H737 0.960 . S
C752 H738 0.960 . S
C752 H739 0.960 . S
C752 C751 1.524 . S
C753 C750 1.403 . S
C753 C754 1.392 . S
C753 C757 1.495 . S
C754 C753 1.392 . S
C754 C755 1.385 . S
C754 C756 1.478 . S
C755 H749 0.930 . S
C755 C751 1.400 . S
C755 C754 1.385 . S
C756 C754 1.478 . S
C756 C758 1.381 . S
C756 C762 1.383 . S
C757 C753 1.495 . S
C757 H763 0.959 . S
C757 H764 0.961 . S
C757 H765 0.960 . S
C758 C756 1.381 . S
C758 C759 1.394 . S
C758 H766 0.930 . S
C759 C758 1.394 . S
C759 C760 1.383 . S
C759 H767 0.929 . S
C760 C759 1.383 . S
C760 C761 1.377 . S
C761 H745 0.930 . S
C761 C760 1.377 . S
C761 C762 1.379 . S
C762 H746 0.931 . S
C762 C756 1.383 . S
C762 C761 1.379 . S
H763 C757 0.959 . S
H764 C757 0.961 . S
H765 C757 0.960 . S
H766 C758 0.930 . S
H767 C759 0.929 . S
H768 C776 0.929 . S
H769 C778 0.930 . S
H770 C780 0.930 . S
H771 C783 0.929 . S
H772 C786 0.930 . S
H773 C788 0.960 . S
H774 C788 0.960 . S
H775 C788 0.960 . S
C776 H768 0.929 . S
C776 C777 1.377 . S
C776 C778 1.384 . S
C777 C776 1.377 . S
C777 C783 1.390 1_554 S
C778 H769 0.930 . S
C778 C776 1.384 . S
C778 C779 1.372 . S
C779 C778 1.372 . S
C779 C780 1.400 1_554 S
C779 C784 1.490 . S
C780 H770 0.930 . S
C780 C779 1.400 1_556 S
C780 C783 1.386 . S
H781 C797 0.930 . S
H782 C798 0.931 . S
C783 H771 0.929 . S
C783 C777 1.390 1_556 S
C783 C780 1.386 . S
C784 C779 1.490 . S
C784 C786 1.395 . S
C784 C787 1.403 1_554 S
H785 C791 0.930 . S
C786 H772 0.930 . S
C786 C784 1.395 . S
C786 C789 1.403 . S
C787 C784 1.403 1_556 S
C787 C788 1.524 . S
C787 C791 1.400 . S
C788 H773 0.960 . S
C788 H774 0.960 . S
C788 H775 0.960 . S
C788 C787 1.524 . S
C789 C786 1.403 . S
C789 C790 1.392 . S
C789 C793 1.495 . S
C790 C789 1.392 . S
C790 C791 1.385 1_554 S
C790 C792 1.478 . S
C791 H785 0.930 . S
C791 C787 1.400 . S
C791 C790 1.385 1_556 S
C792 C790 1.478 . S
C792 C794 1.381 . S
C792 C798 1.383 1_554 S
C793 C789 1.495 . S
C793 H799 0.959 . S
C793 H800 0.961 . S
C793 H801 0.960 . S
C794 C792 1.381 . S
C794 C795 1.394 . S
C794 H802 0.930 . S
C795 C794 1.394 . S
C795 C796 1.383 . S
C795 H803 0.929 . S
C796 C795 1.383 . S
C796 C797 1.377 1_554 S
C797 H781 0.930 . S
C797 C796 1.377 1_556 S
C797 C798 1.379 . S
C798 H782 0.931 . S
C798 C792 1.383 1_556 S
C798 C797 1.379 . S
H799 C793 0.959 . S
H800 C793 0.961 . S
H801 C793 0.960 . S
H802 C794 0.930 . S
H803 C795 0.929 . S
H804 C812 0.929 . S
H805 C814 0.930 . S
H806 C816 0.930 . S
H807 C819 0.929 . S
H808 C822 0.930 . S
H809 C824 0.960 . S
H810 C824 0.960 . S
H811 C824 0.960 . S
C812 H804 0.929 . S
C812 C813 1.377 . S
C812 C814 1.384 . S
C813 C812 1.377 . S
C813 C819 1.390 . S
C814 H805 0.930 . S
C814 C812 1.384 . S
C814 C815 1.372 . S
C815 C814 1.372 . S
C815 C816 1.400 . S
C815 C820 1.490 . S
C816 H806 0.930 . S
C816 C815 1.400 . S
C816 C819 1.386 . S
H817 C833 0.930 . S
H818 C834 0.931 . S
C819 H807 0.929 . S
C819 C813 1.390 . S
C819 C816 1.386 . S
C820 C815 1.490 . S
C820 C822 1.395 . S
C820 C823 1.403 . S
H821 C827 0.930 . S
C822 H808 0.930 . S
C822 C820 1.395 . S
C822 C825 1.403 . S
C823 C820 1.403 . S
C823 C824 1.524 . S
C823 C827 1.400 . S
C824 H809 0.960 . S
C824 H810 0.960 . S
C824 H811 0.960 . S
C824 C823 1.524 . S
C825 C822 1.403 . S
C825 C826 1.392 . S
C825 C829 1.495 . S
C826 C825 1.392 . S
C826 C827 1.385 . S
C826 C828 1.478 . S
C827 H821 0.930 . S
C827 C823 1.400 . S
C827 C826 1.385 . S
C828 C826 1.478 . S
C828 C830 1.381 . S
C828 C834 1.383 . S
C829 C825 1.495 . S
C829 H835 0.959 . S
C829 H836 0.961 . S
C829 H837 0.960 . S
C830 C828 1.381 . S
C830 C831 1.394 . S
C830 H838 0.930 . S
C831 C830 1.394 . S
C831 C832 1.383 . S
C831 H839 0.929 . S
C832 C831 1.383 . S
C832 C833 1.377 . S
C833 H817 0.930 . S
C833 C832 1.377 . S
C833 C834 1.379 . S
C834 H818 0.931 . S
C834 C828 1.383 . S
C834 C833 1.379 . S
H835 C829 0.959 . S
H836 C829 0.961 . S
H837 C829 0.960 . S
H838 C830 0.930 . S
H839 C831 0.929 . S
H840 C848 0.929 . S
H841 C850 0.930 . S
H842 C852 0.930 . S
H843 C855 0.929 . S
H844 C858 0.930 . S
H845 C860 0.960 . S
H846 C860 0.960 . S
H847 C860 0.960 . S
C848 H840 0.929 . S
C848 C849 1.377 . S
C848 C850 1.384 . S
C849 C848 1.377 . S
C849 C855 1.390 1_554 S
C850 H841 0.930 . S
C850 C848 1.384 . S
C850 C851 1.372 . S
C851 C850 1.372 . S
C851 C852 1.400 1_554 S
C851 C856 1.490 . S
C852 H842 0.930 . S
C852 C851 1.400 1_556 S
C852 C855 1.386 . S
H853 C869 0.930 . S
H854 C870 0.931 . S
C855 H843 0.929 . S
C855 C849 1.390 1_556 S
C855 C852 1.386 . S
C856 C851 1.490 . S
C856 C858 1.395 . S
C856 C859 1.403 1_554 S
H857 C863 0.930 . S
C858 H844 0.930 . S
C858 C856 1.395 . S
C858 C861 1.403 . S
C859 C856 1.403 1_556 S
C859 C860 1.524 . S
C859 C863 1.400 . S
C860 H845 0.960 . S
C860 H846 0.960 . S
C860 H847 0.960 . S
C860 C859 1.524 . S
C861 C858 1.403 . S
C861 C862 1.392 . S
C861 C865 1.495 . S
C862 C861 1.392 . S
C862 C863 1.385 1_554 S
C862 C864 1.478 . S
C863 H857 0.930 . S
C863 C859 1.400 . S
C863 C862 1.385 1_556 S
C864 C862 1.478 . S
C864 C866 1.381 . S
C864 C870 1.383 1_554 S
C865 C861 1.495 . S
C865 H871 0.959 . S
C865 H872 0.961 . S
C865 H873 0.960 . S
C866 C864 1.381 . S
C866 C867 1.394 . S
C866 H874 0.930 . S
C867 C866 1.394 . S
C867 C868 1.383 . S
C867 H875 0.929 . S
C868 C867 1.383 . S
C868 C869 1.377 1_554 S
C869 H853 0.930 . S
C869 C868 1.377 1_556 S
C869 C870 1.379 . S
C870 H854 0.931 . S
C870 C864 1.383 1_556 S
C870 C869 1.379 . S
H871 C865 0.959 . S
H872 C865 0.961 . S
H873 C865 0.960 . S
H874 C866 0.930 . S
H875 C867 0.929 . S
H876 C884 0.929 . S
H877 C886 0.930 . S
H878 C888 0.930 . S
H879 C891 0.929 . S
H880 C894 0.930 . S
H881 C896 0.960 . S
H882 C896 0.960 . S
H883 C896 0.960 . S
C884 H876 0.929 . S
C884 C885 1.377 . S
C884 C886 1.384 . S
C885 C884 1.377 . S
C885 C891 1.390 . S
C886 H877 0.930 . S
C886 C884 1.384 . S
C886 C887 1.372 . S
C887 C886 1.372 . S
C887 C888 1.400 . S
C887 C892 1.490 . S
C888 H878 0.930 . S
C888 C887 1.400 . S
C888 C891 1.386 . S
H889 C905 0.930 . S
H890 C906 0.931 . S
C891 H879 0.929 . S
C891 C885 1.390 . S
C891 C888 1.386 . S
C892 C887 1.490 . S
C892 C894 1.395 . S
C892 C895 1.403 . S
H893 C899 0.930 . S
C894 H880 0.930 . S
C894 C892 1.395 . S
C894 C897 1.403 . S
C895 C892 1.403 . S
C895 C896 1.524 . S
C895 C899 1.400 . S
C896 H881 0.960 . S
C896 H882 0.960 . S
C896 H883 0.960 . S
C896 C895 1.524 . S
C897 C894 1.403 . S
C897 C898 1.392 . S
C897 C901 1.495 . S
C898 C897 1.392 . S
C898 C899 1.385 . S
C898 C900 1.478 . S
C899 H893 0.930 . S
C899 C895 1.400 . S
C899 C898 1.385 . S
C900 C898 1.478 . S
C900 C902 1.381 . S
C900 C906 1.383 . S
C901 C897 1.495 . S
C901 H907 0.959 . S
C901 H908 0.961 . S
C901 H909 0.960 . S
C902 C900 1.381 . S
C902 C903 1.394 . S
C902 H910 0.930 . S
C903 C902 1.394 . S
C903 C904 1.383 . S
C903 H911 0.929 . S
C904 C903 1.383 . S
C904 C905 1.377 . S
C905 H889 0.930 . S
C905 C904 1.377 . S
C905 C906 1.379 . S
C906 H890 0.931 . S
C906 C900 1.383 . S
C906 C905 1.379 . S
H907 C901 0.959 . S
H908 C901 0.961 . S
H909 C901 0.960 . S
H910 C902 0.930 . S
H911 C903 0.929 . S
H912 C920 0.929 . S
H913 C922 0.930 . S
H914 C924 0.930 . S
H915 C927 0.929 . S
H916 C930 0.930 . S
H917 C932 0.960 . S
H918 C932 0.960 . S
H919 C932 0.960 . S
C920 H912 0.929 . S
C920 C921 1.377 . S
C920 C922 1.384 . S
C921 C920 1.377 . S
C921 C927 1.390 . S
C922 H913 0.930 . S
C922 C920 1.384 . S
C922 C923 1.372 . S
C923 C922 1.372 . S
C923 C924 1.400 . S
C923 C928 1.490 . S
C924 H914 0.930 . S
C924 C923 1.400 . S
C924 C927 1.386 . S
H925 C941 0.930 . S
H926 C942 0.931 . S
C927 H915 0.929 . S
C927 C921 1.390 . S
C927 C924 1.386 . S
C928 C923 1.490 . S
C928 C930 1.395 . S
C928 C931 1.403 . S
H929 C935 0.930 . S
C930 H916 0.930 . S
C930 C928 1.395 . S
C930 C933 1.403 . S
C931 C928 1.403 . S
C931 C932 1.524 . S
C931 C935 1.400 . S
C932 H917 0.960 . S
C932 H918 0.960 . S
C932 H919 0.960 . S
C932 C931 1.524 . S
C933 C930 1.403 . S
C933 C934 1.392 . S
C933 C937 1.495 . S
C934 C933 1.392 . S
C934 C935 1.385 . S
C934 C936 1.478 . S
C935 H929 0.930 . S
C935 C931 1.400 . S
C935 C934 1.385 . S
C936 C934 1.478 . S
C936 C938 1.381 . S
C936 C942 1.383 . S
C937 C933 1.495 . S
C937 H943 0.959 . S
C937 H944 0.961 . S
C937 H945 0.960 . S
C938 C936 1.381 . S
C938 C939 1.394 . S
C938 H946 0.930 . S
C939 C938 1.394 . S
C939 C940 1.383 . S
C939 H947 0.929 . S
C940 C939 1.383 . S
C940 C941 1.377 . S
C941 H925 0.930 . S
C941 C940 1.377 . S
C941 C942 1.379 . S
C942 H926 0.931 . S
C942 C936 1.383 . S
C942 C941 1.379 . S
H943 C937 0.959 . S
H944 C937 0.961 . S
H945 C937 0.960 . S
H946 C938 0.930 . S
H947 C939 0.929 . S
H948 C956 0.929 . S
H949 C958 0.930 . S
H950 C960 0.930 . S
H951 C963 0.929 . S
H952 C966 0.930 . S
H953 C968 0.960 . S
H954 C968 0.960 . S
H955 C968 0.960 . S
C956 H948 0.929 . S
C956 C957 1.377 . S
C956 C958 1.384 . S
C957 C956 1.377 . S
C957 C963 1.390 1_554 S
C958 H949 0.930 . S
C958 C956 1.384 . S
C958 C959 1.372 . S
C959 C958 1.372 . S
C959 C960 1.400 1_554 S
C959 C964 1.490 . S
C960 H950 0.930 . S
C960 C959 1.400 1_556 S
C960 C963 1.386 . S
H961 C977 0.930 . S
H962 C978 0.931 . S
C963 H951 0.929 . S
C963 C957 1.390 1_556 S
C963 C960 1.386 . S
C964 C959 1.490 . S
C964 C966 1.395 . S
C964 C967 1.403 1_554 S
H965 C971 0.930 . S
C966 H952 0.930 . S
C966 C964 1.395 . S
C966 C969 1.403 . S
C967 C964 1.403 1_556 S
C967 C968 1.524 . S
C967 C971 1.400 . S
C968 H953 0.960 . S
C968 H954 0.960 . S
C968 H955 0.960 . S
C968 C967 1.524 . S
C969 C966 1.403 . S
C969 C970 1.392 . S
C969 C973 1.495 . S
C970 C969 1.392 . S
C970 C971 1.385 1_554 S
C970 C972 1.478 . S
C971 H965 0.930 . S
C971 C967 1.400 . S
C971 C970 1.385 1_556 S
C972 C970 1.478 . S
C972 C974 1.381 . S
C972 C978 1.383 1_554 S
C973 C969 1.495 . S
C973 H979 0.959 . S
C973 H980 0.961 . S
C973 H981 0.960 . S
C974 C972 1.381 . S
C974 C975 1.394 . S
C974 H982 0.930 . S
C975 C974 1.394 . S
C975 C976 1.383 . S
C975 H983 0.929 . S
C976 C975 1.383 . S
C976 C977 1.377 1_554 S
C977 H961 0.930 . S
C977 C976 1.377 1_556 S
C977 C978 1.379 . S
C978 H962 0.931 . S
C978 C972 1.383 1_556 S
C978 C977 1.379 . S
H979 C973 0.959 . S
H980 C973 0.961 . S
H981 C973 0.960 . S
H982 C974 0.930 . S
H983 C975 0.929 . S
H984 C992 0.929 . S
H985 C994 0.930 . S
H986 C996 0.930 . S
H987 C999 0.929 . S
H988 C1002 0.930 . S
H989 C1004 0.960 . S
H990 C1004 0.960 . S
H991 C1004 0.960 . S
C992 H984 0.929 . S
C992 C993 1.377 . S
C992 C994 1.384 . S
C993 C992 1.377 . S
C993 C999 1.390 . S
C994 H985 0.930 . S
C994 C992 1.384 . S
C994 C995 1.372 . S
C995 C994 1.372 . S
C995 C996 1.400 . S
C995 C1000 1.490 . S
C996 H986 0.930 . S
C996 C995 1.400 . S
C996 C999 1.386 . S
H997 C1013 0.930 . S
H998 C1014 0.931 . S
C999 H987 0.929 . S
C999 C993 1.390 . S
C999 C996 1.386 . S
C1000 C995 1.490 . S
C1000 C1002 1.395 . S
C1000 C1003 1.403 . S
H1001 C1007 0.930 . S
C1002 H988 0.930 . S
C1002 C1000 1.395 . S
C1002 C1005 1.403 . S
C1003 C1000 1.403 . S
C1003 C1004 1.524 . S
C1003 C1007 1.400 . S
C1004 H989 0.960 . S
C1004 H990 0.960 . S
C1004 H991 0.960 . S
C1004 C1003 1.524 . S
C1005 C1002 1.403 . S
C1005 C1006 1.392 . S
C1005 C1009 1.495 . S
C1006 C1005 1.392 . S
C1006 C1007 1.385 . S
C1006 C1008 1.478 . S
C1007 H1001 0.930 . S
C1007 C1003 1.400 . S
C1007 C1006 1.385 . S
C1008 C1006 1.478 . S
C1008 C1010 1.381 . S
C1008 C1014 1.383 . S
C1009 C1005 1.495 . S
C1009 H1015 0.959 . S
C1009 H1016 0.961 . S
C1009 H1017 0.960 . S
C1010 C1008 1.381 . S
C1010 C1011 1.394 . S
C1010 H1018 0.930 . S
C1011 C1010 1.394 . S
C1011 C1012 1.383 . S
C1011 H1019 0.929 . S
C1012 C1011 1.383 . S
C1012 C1013 1.377 . S
C1013 H997 0.930 . S
C1013 C1012 1.377 . S
C1013 C1014 1.379 . S
C1014 H998 0.931 . S
C1014 C1008 1.383 . S
C1014 C1013 1.379 . S
H1015 C1009 0.959 . S
H1016 C1009 0.961 . S
H1017 C1009 0.960 . S
H1018 C1010 0.930 . S
H1019 C1011 0.929 . S
H1020 C1028 0.929 . S
H1021 C1030 0.930 . S
H1022 C1032 0.930 . S
H1023 C1035 0.929 . S
H1024 C1038 0.930 . S
H1025 C1040 0.960 . S
H1026 C1040 0.960 . S
H1027 C1040 0.960 . S
C1028 H1020 0.929 . S
C1028 C1029 1.377 1_556 S
C1028 C1030 1.384 . S
C1029 C1028 1.377 1_554 S
C1029 C1035 1.390 . S
C1030 H1021 0.930 . S
C1030 C1028 1.384 . S
C1030 C1031 1.372 1_556 S
C1031 C1030 1.372 1_554 S
C1031 C1032 1.400 . S
C1031 C1036 1.490 . S
C1032 H1022 0.930 . S
C1032 C1031 1.400 . S
C1032 C1035 1.386 . S
H1033 C1049 0.930 . S
H1034 C1050 0.931 . S
C1035 H1023 0.929 . S
C1035 C1029 1.390 . S
C1035 C1032 1.386 . S
C1036 C1031 1.490 . S
C1036 C1038 1.395 1_554 S
C1036 C1039 1.403 . S
H1037 C1043 0.930 . S
C1038 H1024 0.930 . S
C1038 C1036 1.395 1_556 S
C1038 C1041 1.403 . S
C1039 C1036 1.403 . S
C1039 C1040 1.524 . S
C1039 C1043 1.400 . S
C1040 H1025 0.960 . S
C1040 H1026 0.960 . S
C1040 H1027 0.960 . S
C1040 C1039 1.524 . S
C1041 C1038 1.403 . S
C1041 C1042 1.392 1_556 S
C1041 C1045 1.495 . S
C1042 C1041 1.392 1_554 S
C1042 C1043 1.385 . S
C1042 C1044 1.478 . S
C1043 H1037 0.930 . S
C1043 C1039 1.400 . S
C1043 C1042 1.385 . S
C1044 C1042 1.478 . S
C1044 C1046 1.381 1_554 S
C1044 C1050 1.383 . S
C1045 C1041 1.495 . S
C1045 H1051 0.959 . S
C1045 H1052 0.961 . S
C1045 H1053 0.960 . S
C1046 C1044 1.381 1_556 S
C1046 C1047 1.394 . S
C1046 H1054 0.930 . S
C1047 C1046 1.394 . S
C1047 C1048 1.383 1_556 S
C1047 H1055 0.929 . S
C1048 C1047 1.383 1_554 S
C1048 C1049 1.377 . S
C1049 H1033 0.930 . S
C1049 C1048 1.377 . S
C1049 C1050 1.379 . S
C1050 H1034 0.931 . S
C1050 C1044 1.383 . S
C1050 C1049 1.379 . S
H1051 C1045 0.959 . S
H1052 C1045 0.961 . S
H1053 C1045 0.960 . S
H1054 C1046 0.930 . S
H1055 C1047 0.929 . S
C201 C5 1.449 . S
C220 C135 1.457 . S
C237 C31 1.474 . S
C256 C97 1.454 . S
C292 C110 1.471 . S
C273 C53 1.461 . S
C309 C71 1.440 . S
C328 C122 1.445 . S
C364 C162 1.448 . S
C345 C75 1.480 . S
C400 C174 1.462 . S
C381 C9 1.449 . S
C436 C187 1.435 . S
C417 C27 1.438 . S
C472 C149 1.449 . S
C453 C49 1.458 . S
C489 C51 1.456 . S
C508 C109 1.449 . S
C525 C72 1.474 . S
C544 C123 1.477 . S
C561 C6 1.459 . S
C580 C136 1.472 . S
C616 C96 1.457 . S
C597 C29 1.435 . S
C633 C28 1.475 . S
C652 C188 1.484 . S
C688 C148 1.443 . S
C669 C50 1.454 . S
C724 C161 1.440 . S
C705 C73 1.434 . S
C741 C7 1.459 . S
C760 C175 1.472 . S
C796 C92 1.467 1_554 S
C777 C4 1.504 . S
C832 C105 1.435 . S
C813 C30 1.503 . S
C849 C52 1.504 . S
C868 C118 1.464 . S
C885 C70 1.498 . S
C904 C131 1.479 . S
C940 C144 1.445 . S
C921 C74 1.498 . S
C957 C8 1.499 . S
C976 C157 1.459 . S
C993 C26 1.500 . S
C1012 C170 1.460 . S
C1029 C48 1.504 . S
C1048 C183 1.472 1_554 S
