# Generated by pormake.
# Topology pto, (3,4)-cn, num edge types: 1
# Building blocks:
#     Node 0, Type 0, BuildingBlock: OLANEW_clean_sbu_2, # of connection points: 3
#     Node 1, Type 0, BuildingBlock: OLANEW_clean_sbu_2, # of connection points: 3
#     Node 2, Type 0, BuildingBlock: OLANEW_clean_sbu_2, # of connection points: 3
#     Node 3, Type 0, BuildingBlock: OLANEW_clean_sbu_2, # of connection points: 3
#     Node 4, Type 0, BuildingBlock: OLANEW_clean_sbu_2, # of connection points: 3
#     Node 5, Type 0, BuildingBlock: OLANEW_clean_sbu_2, # of connection points: 3
#     Node 6, Type 0, BuildingBlock: OLANEW_clean_sbu_2, # of connection points: 3
#     Node 7, Type 0, BuildingBlock: OLANEW_clean_sbu_2, # of connection points: 3
#     Node 8, Type 1, BuildingBlock: MIFKUJ_clean_linker_1, # of connection points: 4
#     Node 9, Type 1, BuildingBlock: MIFKUJ_clean_linker_1, # of connection points: 4
#     Node 10, Type 1, BuildingBlock: MIFKUJ_clean_linker_1, # of connection points: 4
#     Node 11, Type 1, BuildingBlock: MIFKUJ_clean_linker_1, # of connection points: 4
#     Node 12, Type 1, BuildingBlock: MIFKUJ_clean_linker_1, # of connection points: 4
#     Node 13, Type 1, BuildingBlock: MIFKUJ_clean_linker_1, # of connection points: 4
#     Edge 14, Type (0, 1), BuildingBlock: EZIPEK_clean_linker_0, # of connection points: 2
#     Edge 15, Type (0, 1), BuildingBlock: EZIPEK_clean_linker_0, # of connection points: 2
#     Edge 16, Type (0, 1), BuildingBlock: EZIPEK_clean_linker_0, # of connection points: 2
#     Edge 17, Type (0, 1), BuildingBlock: EZIPEK_clean_linker_0, # of connection points: 2
#     Edge 18, Type (0, 1), BuildingBlock: EZIPEK_clean_linker_0, # of connection points: 2
#     Edge 19, Type (0, 1), BuildingBlock: EZIPEK_clean_linker_0, # of connection points: 2
#     Edge 20, Type (0, 1), BuildingBlock: EZIPEK_clean_linker_0, # of connection points: 2
#     Edge 21, Type (0, 1), BuildingBlock: EZIPEK_clean_linker_0, # of connection points: 2
#     Edge 22, Type (0, 1), BuildingBlock: EZIPEK_clean_linker_0, # of connection points: 2
#     Edge 23, Type (0, 1), BuildingBlock: EZIPEK_clean_linker_0, # of connection points: 2
#     Edge 24, Type (0, 1), BuildingBlock: EZIPEK_clean_linker_0, # of connection points: 2
#     Edge 25, Type (0, 1), BuildingBlock: EZIPEK_clean_linker_0, # of connection points: 2
#     Edge 26, Type (0, 1), BuildingBlock: EZIPEK_clean_linker_0, # of connection points: 2
#     Edge 27, Type (0, 1), BuildingBlock: EZIPEK_clean_linker_0, # of connection points: 2
#     Edge 28, Type (0, 1), BuildingBlock: EZIPEK_clean_linker_0, # of connection points: 2
#     Edge 29, Type (0, 1), BuildingBlock: EZIPEK_clean_linker_0, # of connection points: 2
#     Edge 30, Type (0, 1), BuildingBlock: EZIPEK_clean_linker_0, # of connection points: 2
#     Edge 31, Type (0, 1), BuildingBlock: EZIPEK_clean_linker_0, # of connection points: 2
#     Edge 32, Type (0, 1), BuildingBlock: EZIPEK_clean_linker_0, # of connection points: 2
#     Edge 33, Type (0, 1), BuildingBlock: EZIPEK_clean_linker_0, # of connection points: 2
#     Edge 34, Type (0, 1), BuildingBlock: EZIPEK_clean_linker_0, # of connection points: 2
#     Edge 35, Type (0, 1), BuildingBlock: EZIPEK_clean_linker_0, # of connection points: 2
#     Edge 36, Type (0, 1), BuildingBlock: EZIPEK_clean_linker_0, # of connection points: 2
#     Edge 37, Type (0, 1), BuildingBlock: EZIPEK_clean_linker_0, # of connection points: 2
# Relax obj value: 0.009
# Max RMSD: 0.120
# Mean RMSD: 0.052
data_MOF--net-pto--node1-OLANEW_clean_sbu_2--node2-MIFKUJ_clean_linker_1--edge1-EZIPEK_clean_linker_0
_symmetry_space_group_name_H-M    P1
_symmetry_Int_Tables_number       1
_symmetry_cell_setting            triclinic
loop_
_symmetry_equiv_pos_as_xyz
'x, y, z'
_cell_length_a     31.025254
_cell_length_b     48.822109
_cell_length_c     39.65807
_cell_angle_alpha  92.608335
_cell_angle_beta   89.613018
_cell_angle_gamma 106.57528
loop_
_atom_site_label
_atom_site_type_symbol
_atom_site_fract_x
_atom_site_fract_y
_atom_site_fract_z
_atom_type_partial_charge
O0 O 0.31128 0.3268 0.27356 0.0
Cd1 Cd 0.25168 0.31551 0.31547 0.0
O2 O 0.36382 0.35375 0.30769 0.0
Cd3 Cd 0.31169 0.35687 0.34347 0.0
O4 O 0.25526 0.37444 0.35271 0.0
C5 C 0.2644 0.40136 0.35051 0.0
O6 O 0.30616 0.41626 0.3451 0.0
C7 C 0.35196 0.34104 0.27914 0.0
C8 C 0.26612 0.2739 0.35616 0.0
O9 O 0.24648 0.26711 0.32741 0.0
O10 O 0.27817 0.30034 0.36608 0.0
O11 O 0.32086 0.86003 0.76829 0.0
Cd12 Cd 0.27119 0.85805 0.71976 0.0
O13 O 0.37661 0.85199 0.73857 0.0
Cd14 Cd 0.33173 0.8387 0.69526 0.0
O15 O 0.27173 0.80562 0.67792 0.0
C16 C 0.27434 0.78026 0.6798 0.0
O17 O 0.3124 0.77628 0.6896 0.0
C18 C 0.36053 0.85749 0.76681 0.0
C19 C 0.29562 0.90589 0.68028 0.0
O20 O 0.27013 0.90522 0.70598 0.0
O21 O 0.31035 0.88431 0.67349 0.0
O22 O 0.86114 0.81217 0.34337 0.0
Cd23 Cd 0.83465 0.7725 0.30157 0.0
O24 O 0.79925 0.82518 0.33714 0.0
Cd25 Cd 0.76686 0.79331 0.2981 0.0
O26 O 0.72365 0.78577 0.25361 0.0
C27 C 0.68274 0.7852 0.25754 0.0
O28 O 0.66682 0.78644 0.28818 0.0
C29 C 0.83751 0.82897 0.35084 0.0
C30 C 0.87338 0.72823 0.30881 0.0
O31 O 0.89244 0.74953 0.29097 0.0
O32 O 0.83631 0.72787 0.32348 0.0
O33 O 0.76364 0.31616 0.62715 0.0
Cd34 Cd 0.70281 0.27256 0.63563 0.0
O35 O 0.75906 0.33573 0.67789 0.0
Cd36 Cd 0.70219 0.3032 0.69774 0.0
O37 O 0.65724 0.29782 0.74105 0.0
C38 C 0.67022 0.29007 0.76841 0.0
O39 O 0.70795 0.28293 0.76891 0.0
C40 C 0.77724 0.33661 0.64903 0.0
C41 C 0.72541 0.22476 0.60851 0.0
O42 O 0.70929 0.24025 0.58984 0.0
O43 O 0.73051 0.23167 0.64011 0.0
O44 O 0.77836 0.80802 0.62606 0.0
Cd45 Cd 0.76991 0.77139 0.66772 0.0
O46 O 0.75432 0.83553 0.66284 0.0
Cd47 Cd 0.73406 0.80555 0.70301 0.0
O48 O 0.69548 0.79429 0.7491 0.0
C49 C 0.68468 0.81492 0.76409 0.0
O50 O 0.69717 0.84028 0.75117 0.0
C51 C 0.77008 0.83155 0.63396 0.0
C52 C 0.82283 0.7343 0.65593 0.0
O53 O 0.83919 0.75895 0.67077 0.0
O54 O 0.78178 0.72741 0.64592 0.0
O55 O 0.81092 0.30479 0.30531 0.0
Cd56 Cd 0.76479 0.25721 0.28588 0.0
O57 O 0.76851 0.30774 0.34935 0.0
Cd58 Cd 0.71443 0.2727 0.32747 0.0
O59 O 0.66821 0.26333 0.28446 0.0
C60 C 0.67949 0.28146 0.26166 0.0
O61 O 0.71618 0.30291 0.26574 0.0
C62 C 0.80369 0.31804 0.33215 0.0
C63 C 0.78108 0.21437 0.32353 0.0
O64 O 0.8032 0.22217 0.29652 0.0
O65 O 0.75139 0.22671 0.33283 0.0
O66 O 0.29345 0.3761 0.78764 0.0
Cd67 Cd 0.25941 0.37073 0.73112 0.0
O68 O 0.34765 0.35911 0.76763 0.0
Cd69 Cd 0.32241 0.34945 0.71612 0.0
O70 O 0.31133 0.31627 0.67599 0.0
C71 C 0.34454 0.30642 0.67038 0.0
O72 O 0.38246 0.31794 0.68685 0.0
C73 C 0.3292 0.36888 0.79225 0.0
C74 C 0.20684 0.40675 0.71791 0.0
O75 O 0.18916 0.38217 0.72997 0.0
O76 O 0.24937 0.41466 0.71292 0.0
O77 O 0.482 0.87323 0.30758 0.0
Cd78 Cd 0.49028 0.87987 0.36883 0.0
O79 O 0.41072 0.85091 0.3148 0.0
Cd80 Cd 0.34479 0.82432 0.29775 0.0
O81 O 0.28415 0.78833 0.29937 0.0
C82 C 0.29045 0.76405 0.30302 0.0
O83 O 0.33178 0.76211 0.30436 0.0
C84 C 0.44381 0.85977 0.29521 0.0
C85 C 0.44317 0.91596 0.39631 0.0
O86 O 0.48385 0.9259 0.38651 0.0
O87 O 0.42431 0.88897 0.39295 0.0
H88 H 0.94775 0.48799 0.29772 0.0
H89 H 0.89989 0.43862 0.30026 0.0
H90 H 0.95522 0.43226 0.3981 0.0
H91 H 0.00365 0.48185 0.3955 0.0
H92 H 0.95192 0.53514 0.3392 0.0
H93 H 0.0472 0.47592 0.30527 0.0
H94 H 0.09254 0.44228 0.30805 0.0
H95 H 0.16607 0.49151 0.39308 0.0
H96 H 0.11985 0.52465 0.39114 0.0
H97 H 0.06446 0.62453 0.37204 0.0
H98 H 0.11569 0.67247 0.36402 0.0
H99 H 0.17777 0.63873 0.28061 0.0
H100 H 0.12601 0.59099 0.28796 0.0
H101 H 0.11829 0.55816 0.34073 0.0
H102 H 0.95849 0.58605 0.37874 0.0
H103 H 0.92371 0.62484 0.37159 0.0
H104 H 0.98367 0.63924 0.27319 0.0
H105 H 0.01867 0.60054 0.2803 0.0
C106 C 0.97926 0.48852 0.34638 0.0
C107 C 0.94955 0.47604 0.31977 0.0
C108 C 0.92248 0.44791 0.32113 0.0
C109 C 0.92438 0.43185 0.34923 0.0
C110 C 0.95367 0.44433 0.37611 0.0
C111 C 0.98112 0.47251 0.37463 0.0
C112 C 0.00853 0.51819 0.34399 0.0
C113 C 0.98831 0.54016 0.33972 0.0
C114 C 0.05597 0.52479 0.34472 0.0
C115 C 0.07988 0.50271 0.34819 0.0
C116 C 0.07215 0.47906 0.32512 0.0
C117 C 0.0981 0.45996 0.32657 0.0
C118 C 0.13261 0.46455 0.35072 0.0
C119 C 0.1395 0.48765 0.37435 0.0
C120 C 0.1133 0.50656 0.37312 0.0
C121 C 0.09131 0.6042 0.33049 0.0
C122 C 0.08857 0.62752 0.35168 0.0
C123 C 0.11777 0.65478 0.34721 0.0
C124 C 0.15036 0.65896 0.32177 0.0
C125 C 0.15272 0.63582 0.30032 0.0
C126 C 0.12343 0.60864 0.30466 0.0
C127 C 0.06176 0.57495 0.33565 0.0
C128 C 0.08189 0.55311 0.3406 0.0
C129 C 0.01435 0.56843 0.33544 0.0
C130 C 0.99132 0.5906 0.33013 0.0
C131 C 0.96383 0.5974 0.35552 0.0
C132 C 0.9442 0.6195 0.35154 0.0
C133 C 0.95139 0.6348 0.32195 0.0
C134 C 0.97793 0.6276 0.29619 0.0
C135 C 0.99783 0.60563 0.30026 0.0
H136 H 0.11168 0.61597 0.60926 0.0
H137 H 0.16483 0.66375 0.61735 0.0
H138 H 0.0831 0.68363 0.69794 0.0
H139 H 0.03061 0.63539 0.69077 0.0
H140 H 0.09432 0.57591 0.65534 0.0
H141 H 0.00698 0.63122 0.60114 0.0
H142 H 0.96876 0.66899 0.60278 0.0
H143 H 0.87917 0.62507 0.67922 0.0
H144 H 0.91846 0.58817 0.67892 0.0
H145 H 0.90907 0.51033 0.67759 0.0
H146 H 0.86248 0.46039 0.67388 0.0
H147 H 0.95385 0.43977 0.60133 0.0
H148 H 1.0001 0.48995 0.60422 0.0
H149 H 0.92982 0.55031 0.63527 0.0
H150 H 0.01291 0.50517 0.70183 0.0
H151 H 0.05322 0.47135 0.71888 0.0
H152 H 0.14595 0.49631 0.63683 0.0
H153 H 0.10568 0.53015 0.61961 0.0
C154 C 0.06703 0.62214 0.64925 0.0
C155 C 0.10494 0.63066 0.6285 0.0
C156 C 0.13511 0.65789 0.63298 0.0
C157 C 0.12777 0.67708 0.65821 0.0
C158 C 0.08912 0.66905 0.67827 0.0
C159 C 0.05917 0.64163 0.67407 0.0
C160 C 0.03795 0.59219 0.64639 0.0
C161 C 0.05845 0.57031 0.65027 0.0
C162 C 0.99071 0.58499 0.64175 0.0
C163 C 0.9661 0.607 0.64029 0.0
C164 C 0.97933 0.62978 0.61843 0.0
C165 C 0.95739 0.65121 0.61915 0.0
C166 C 0.92121 0.64977 0.64114 0.0
C167 C 0.90701 0.62653 0.66209 0.0
C168 C 0.92933 0.60543 0.66177 0.0
C169 C 0.95826 0.50388 0.64136 0.0
C170 C 0.919 0.49518 0.66068 0.0
C171 C 0.89256 0.46675 0.65869 0.0
C172 C 0.90497 0.44661 0.63741 0.0
C173 C 0.944 0.45514 0.61794 0.0
C174 C 0.97036 0.48366 0.61976 0.0
C175 C 0.98638 0.53413 0.6438 0.0
C176 C 0.96578 0.55597 0.63987 0.0
C177 C 0.03318 0.54149 0.65004 0.0
C178 C 0.05606 0.51999 0.65924 0.0
C179 C 0.04154 0.50312 0.68722 0.0
C180 C 0.06456 0.48398 0.69706 0.0
C181 C 0.10239 0.48146 0.67905 0.0
C182 C 0.11673 0.49803 0.65092 0.0
C183 C 0.09385 0.51729 0.64118 0.0
H184 H 0.26122 0.04636 0.57653 0.0
H185 H 0.25859 0.00529 0.61076 0.0
H186 H 0.39386 0.00884 0.58081 0.0
H187 H 0.39667 0.0501 0.54643 0.0
H188 H 0.32272 0.10216 0.58063 0.0
H189 H 0.28306 0.01751 0.49985 0.0
H190 H 0.30363 0.97631 0.47365 0.0
H191 H 0.42741 0.0331 0.43838 0.0
H192 H 0.40718 0.07416 0.46461 0.0
H193 H 0.37205 0.14524 0.44374 0.0
H194 H 0.35794 0.18185 0.40847 0.0
H195 H 0.24573 0.18578 0.47136 0.0
H196 H 0.25756 0.14786 0.50509 0.0
H197 H 0.33233 0.09469 0.45577 0.0
H198 H 0.38337 0.17614 0.52738 0.0
H199 H 0.38637 0.22108 0.55893 0.0
H200 H 0.26871 0.17787 0.61472 0.0
H201 H 0.26538 0.13284 0.58306 0.0
C202 C 0.32899 0.0511 0.5588 0.0
C203 C 0.29042 0.03842 0.57745 0.0
C204 C 0.28885 0.01503 0.59685 0.0
C205 C 0.32598 0.00416 0.59814 0.0
C206 C 0.36494 0.01705 0.58 0.0
C207 C 0.36645 0.04043 0.56041 0.0
C208 C 0.32924 0.0753 0.53753 0.0
C209 C 0.32426 0.10048 0.55329 0.0
C210 C 0.33398 0.07368 0.50207 0.0
C211 C 0.34384 0.04883 0.48436 0.0
C212 C 0.31451 0.02107 0.48636 0.0
C213 C 0.32612 0.99765 0.47144 0.0
C214 C 0.3671 0.00182 0.45436 0.0
C215 C 0.39573 0.02959 0.45157 0.0
C216 C 0.38413 0.05293 0.46639 0.0
C217 C 0.31634 0.14399 0.4775 0.0
C218 C 0.34413 0.15373 0.4498 0.0
C219 C 0.33631 0.17472 0.42981 0.0
C220 C 0.30102 0.18663 0.43751 0.0
C221 C 0.2733 0.17697 0.46515 0.0
C222 C 0.28038 0.15552 0.48457 0.0
C223 C 0.32414 0.12147 0.49876 0.0
C224 C 0.3307 0.09659 0.48307 0.0
C225 C 0.32316 0.1239 0.53446 0.0
C226 C 0.324 0.15119 0.55278 0.0
C227 C 0.35787 0.17638 0.54609 0.0
C228 C 0.35964 0.20195 0.56402 0.0
C229 C 0.32765 0.20265 0.58892 0.0
C230 C 0.29351 0.17762 0.59543 0.0
C231 C 0.29179 0.15201 0.57757 0.0
H232 H 0.53761 0.87405 0.94417 0.0
H233 H 0.50874 0.88323 0.88957 0.0
H234 H 0.3794 0.82504 0.91133 0.0
H235 H 0.40845 0.81524 0.96558 0.0
H236 H 0.44849 0.8474 0.02313 0.0
H237 H 0.6168 0.84772 0.96662 0.0
H238 H 0.65046 0.84229 0.91146 0.0
H239 H 0.52563 0.78262 0.8772 0.0
H240 H 0.4916 0.78835 0.93236 0.0
H241 H 0.49123 0.77923 0.09238 0.0
H242 H 0.52437 0.76784 0.14425 0.0
H243 H 0.65071 0.82877 0.12126 0.0
H244 H 0.61779 0.84019 0.06945 0.0
H245 H 0.5776 0.80637 0.01337 0.0
H246 H 0.41317 0.80673 0.07814 0.0
H247 H 0.39148 0.81251 0.13741 0.0
H248 H 0.51936 0.87513 0.15684 0.0
H249 H 0.54097 0.86947 0.09791 0.0
C250 C 0.47531 0.84361 0.95867 0.0
C251 C 0.50289 0.86349 0.93736 0.0
C252 C 0.48648 0.86885 0.90638 0.0
C253 C 0.44209 0.85475 0.8966 0.0
C254 C 0.41375 0.83613 0.91865 0.0
C255 C 0.43025 0.83062 0.94954 0.0
C256 C 0.49445 0.83459 0.98896 0.0
C257 C 0.47626 0.83808 0.0209 0.0
C258 C 0.53133 0.82297 0.98631 0.0
C259 C 0.55172 0.81856 0.95342 0.0
C260 C 0.59675 0.83336 0.94731 0.0
C261 C 0.61587 0.83032 0.91593 0.0
C262 C 0.59039 0.81217 0.89037 0.0
C263 C 0.54565 0.79679 0.89666 0.0
C264 C 0.52633 0.80008 0.92799 0.0
C265 C 0.55207 0.81068 0.07728 0.0
C266 C 0.52613 0.78999 0.09843 0.0
C267 C 0.54494 0.78344 0.12783 0.0
C268 C 0.58981 0.79753 0.13633 0.0
C269 C 0.61602 0.8177 0.11488 0.0
C270 C 0.59733 0.82414 0.08542 0.0
C271 C 0.53165 0.81908 0.04727 0.0
C272 C 0.54953 0.81544 0.01548 0.0
C273 C 0.49511 0.83093 0.05015 0.0
C274 C 0.47869 0.83761 0.08379 0.0
C275 C 0.436 0.82219 0.09498 0.0
C276 C 0.42374 0.82538 0.12867 0.0
C277 C 0.45398 0.84418 0.15129 0.0
C278 C 0.49566 0.8606 0.13964 0.0
C279 C 0.50791 0.85738 0.10612 0.0
H280 H 0.76445 0.95623 0.48323 0.0
H281 H 0.75335 0.91142 0.51208 0.0
H282 H 0.84571 0.95619 0.59054 0.0
H283 H 0.85807 0.00106 0.56107 0.0
H284 H 0.80055 0.03146 0.54367 0.0
H285 H 0.79551 0.97926 0.41137 0.0
H286 H 0.80773 0.93485 0.38751 0.0
H287 H 0.91232 0.94141 0.46106 0.0
H288 H 0.90011 0.98595 0.48515 0.0
H289 H 0.88669 0.09245 0.42691 0.0
H290 H 0.8784 0.13119 0.39215 0.0
H291 H 0.73842 0.11176 0.41915 0.0
H292 H 0.74654 0.07315 0.45391 0.0
H293 H 0.84399 0.03463 0.42284 0.0
H294 H 0.85833 0.1135 0.49998 0.0
H295 H 0.83667 0.15394 0.52629 0.0
H296 H 0.71883 0.09558 0.56777 0.0
H297 H 0.73883 0.0551 0.53976 0.0
C298 C 0.81256 0.98192 0.5198 0.0
C299 C 0.78274 0.95641 0.50644 0.0
C300 C 0.7763 0.93089 0.52286 0.0
C301 C 0.79887 0.9306 0.55327 0.0
C302 C 0.82822 0.95609 0.56696 0.0
C303 C 0.835 0.98163 0.55034 0.0
C304 C 0.82042 0.00869 0.50143 0.0
C305 C 0.81034 0.03235 0.51734 0.0
C306 C 0.8346 0.01006 0.46742 0.0
C307 C 0.84676 0.9858 0.45008 0.0
C308 C 0.8217 0.97151 0.42195 0.0
C309 C 0.8284 0.94613 0.40854 0.0
C310 C 0.86052 0.93487 0.42286 0.0
C311 C 0.88723 0.94981 0.44991 0.0
C312 C 0.88031 0.97514 0.4635 0.0
C313 C 0.81733 0.08013 0.44319 0.0
C314 C 0.85422 0.09649 0.42526 0.0
C315 C 0.84958 0.11855 0.40559 0.0
C316 C 0.80786 0.12422 0.4033 0.0
C317 C 0.77084 0.10764 0.42078 0.0
C318 C 0.77553 0.08574 0.44059 0.0
C319 C 0.82222 0.0571 0.46465 0.0
C320 C 0.83501 0.03415 0.44934 0.0
C321 C 0.81121 0.05669 0.49942 0.0
C322 C 0.79983 0.08118 0.51732 0.0
C323 C 0.8275 0.10932 0.51433 0.0
C324 C 0.81539 0.1324 0.52954 0.0
C325 C 0.7761 0.12771 0.54884 0.0
C326 C 0.74921 0.09959 0.55287 0.0
C327 C 0.76081 0.07653 0.53706 0.0
H328 H 0.47524 0.38143 0.98588 0.0
H329 H 0.43519 0.39541 0.93937 0.0
H330 H 0.40732 0.31025 0.89379 0.0
H331 H 0.44632 0.29597 0.94056 0.0
H332 H 0.44659 0.34361 0.03195 0.0
H333 H 0.55476 0.35589 0.94272 0.0
H334 H 0.58732 0.34855 0.88765 0.0
H335 H 0.56591 0.25942 0.90671 0.0
H336 H 0.53215 0.26645 0.96141 0.0
H337 H 0.48703 0.27187 0.09594 0.0
H338 H 0.52013 0.26033 0.14771 0.0
H339 H 0.64786 0.31896 0.12297 0.0
H340 H 0.61492 0.3305 0.07119 0.0
H341 H 0.56915 0.29773 0.01463 0.0
H342 H 0.40873 0.30507 0.08035 0.0
H343 H 0.38256 0.31196 0.13783 0.0
H344 H 0.51549 0.36443 0.16597 0.0
H345 H 0.54179 0.35779 0.10832 0.0
C346 C 0.46428 0.33774 0.96651 0.0
C347 C 0.46045 0.36573 0.96592 0.0
C348 C 0.43777 0.37374 0.93945 0.0
C349 C 0.41867 0.35388 0.91318 0.0
C350 C 0.42215 0.32587 0.91381 0.0
C351 C 0.4446 0.31781 0.94034 0.0
C352 C 0.48764 0.32919 0.99504 0.0
C353 C 0.47345 0.33366 0.028 0.0
C354 C 0.52272 0.31613 0.99008 0.0
C355 C 0.54066 0.31167 0.95611 0.0
C356 C 0.55623 0.33465 0.93484 0.0
C357 C 0.57493 0.33052 0.90354 0.0
C358 C 0.57883 0.30344 0.89324 0.0
C359 C 0.56295 0.28041 0.91426 0.0
C360 C 0.54396 0.28449 0.94545 0.0
C361 C 0.54854 0.30217 0.07991 0.0
C362 C 0.52231 0.28192 0.10143 0.0
C363 C 0.54108 0.27531 0.13083 0.0
C364 C 0.58626 0.28892 0.13902 0.0
C365 C 0.61292 0.30831 0.11691 0.0
C366 C 0.59423 0.31478 0.08742 0.0
C367 C 0.52754 0.31185 0.05104 0.0
C368 C 0.5422 0.30765 0.01824 0.0
C369 C 0.49316 0.32533 0.05599 0.0
C370 C 0.47718 0.3308 0.09019 0.0
C371 C 0.43215 0.31825 0.09878 0.0
C372 C 0.41733 0.32203 0.13148 0.0
C373 C 0.44725 0.33856 0.15591 0.0
C374 C 0.49211 0.35154 0.14732 0.0
C375 C 0.50699 0.34773 0.11457 0.0
C376 C 0.19831 0.41402 0.37746 0.0
C377 C 0.22804 0.4155 0.34979 0.0
C378 C 0.19588 0.4496 0.32327 0.0
C379 C 0.16405 0.44662 0.3497 0.0
N380 N 0.12896 0.42193 0.39842 0.0
N381 N 0.2468 0.42854 0.29236 0.0
C382 C 0.1634 0.42753 0.37575 0.0
C383 C 0.22438 0.43148 0.32149 0.0
N384 N 0.20466 0.40092 0.40599 0.0
N385 N 0.20027 0.47051 0.30062 0.0
H386 H 0.26673 0.41463 0.28952 0.0
H387 H 0.24175 0.43749 0.26989 0.0
H388 H 0.18045 0.48455 0.30114 0.0
H389 H 0.22633 0.47564 0.28322 0.0
H390 H 0.18714 0.4019 0.42829 0.0
H391 H 0.23012 0.39106 0.40838 0.0
H392 H 0.12412 0.40604 0.41588 0.0
H393 H 0.10285 0.43145 0.3978 0.0
C394 C 0.20907 0.75037 0.64441 0.0
C395 C 0.23389 0.7554 0.67514 0.0
C396 C 0.18919 0.70909 0.69469 0.0
C397 C 0.16247 0.70482 0.66496 0.0
N398 N 0.14054 0.72385 0.61493 0.0
N399 N 0.23902 0.74341 0.73311 0.0
C400 C 0.17039 0.72628 0.64086 0.0
C401 C 0.22137 0.73591 0.70138 0.0
N402 N 0.2236 0.76768 0.61803 0.0
N403 N 0.18538 0.68718 0.71583 0.0
H404 H 0.26137 0.76337 0.73945 0.0
H405 H 0.22769 0.73112 0.75392 0.0
H406 H 0.16274 0.66694 0.71172 0.0
H407 H 0.20758 0.68828 0.73578 0.0
H408 H 0.20965 0.76319 0.59389 0.0
H409 H 0.25208 0.7853 0.61941 0.0
H410 H 0.14208 0.74014 0.5985 0.0
H411 H 0.11176 0.70653 0.61176 0.0
C412 C 0.86987 0.67652 0.29921 0.0
C413 C 0.89348 0.70435 0.31203 0.0
C414 C 0.95681 0.687 0.32843 0.0
C415 C 0.93159 0.65878 0.3182 0.0
N416 N 0.86239 0.62564 0.2977 0.0
N417 N 0.95611 0.73558 0.34341 0.0
C418 C 0.88754 0.65323 0.30474 0.0
C419 C 0.9362 0.70952 0.32775 0.0
N420 N 0.83161 0.67257 0.28039 0.0
N421 N 0.00068 0.6923 0.33837 0.0
H422 H 0.94186 0.75253 0.34377 0.0
H423 H 0.9848 0.73976 0.35848 0.0
H424 H 0.01648 0.67621 0.34033 0.0
H425 H 0.02246 0.71279 0.34233 0.0
H426 H 0.81555 0.65348 0.26723 0.0
H427 H 0.81784 0.68914 0.27543 0.0
H428 H 0.82829 0.61991 0.29164 0.0
H429 H 0.87481 0.60809 0.3002 0.0
C430 C 0.85483 0.3689 0.65909 0.0
C431 C 0.81365 0.36243 0.64097 0.0
C432 C 0.83867 0.40842 0.61394 0.0
C433 C 0.87655 0.41651 0.63583 0.0
N434 N 0.92133 0.40538 0.67975 0.0
N435 N 0.76445 0.37614 0.6024 0.0
C436 C 0.88512 0.39688 0.65832 0.0
C437 C 0.80529 0.38202 0.61826 0.0
N438 N 0.86512 0.34804 0.67654 0.0
N439 N 0.83478 0.42605 0.58902 0.0
H440 H 0.73927 0.35691 0.60454 0.0
H441 H 0.75423 0.39098 0.58883 0.0
H442 H 0.85834 0.44577 0.58559 0.0
H443 H 0.81046 0.42018 0.57002 0.0
H444 H 0.89628 0.35043 0.68775 0.0
H445 H 0.84363 0.32728 0.67726 0.0
H446 H 0.9266 0.39335 0.6995 0.0
H447 H 0.94515 0.42534 0.67897 0.0
C448 C 0.31853 0.25577 0.39144 0.0
C449 C 0.27511 0.25169 0.37719 0.0
C450 C 0.25122 0.20337 0.39844 0.0
C451 C 0.29247 0.20895 0.41637 0.0
N452 N 0.36167 0.24308 0.43564 0.0
N453 N 0.19696 0.22386 0.37414 0.0
C454 C 0.3251 0.23594 0.41457 0.0
C455 C 0.2405 0.2261 0.3826 0.0
N456 N 0.35411 0.27766 0.3817 0.0
N457 N 0.22283 0.17622 0.39559 0.0
H458 H 0.18709 0.24053 0.36413 0.0
H459 H 0.17 0.20666 0.38059 0.0
H460 H 0.23003 0.15877 0.40599 0.0
H461 H 0.19448 0.17057 0.37999 0.0
H462 H 0.38716 0.27978 0.38898 0.0
H463 H 0.35155 0.29181 0.36343 0.0
H464 H 0.38401 0.26358 0.4376 0.0
H465 H 0.3672 0.22944 0.45356 0.0
C466 C 0.40063 0.83441 0.80671 0.0
C467 C 0.38609 0.8584 0.79851 0.0
C468 C 0.41082 0.88113 0.85437 0.0
C469 C 0.42616 0.85738 0.86206 0.0
N470 N 0.44095 0.81289 0.84317 0.0
N471 N 0.38615 0.90717 0.81124 0.0
C472 C 0.42325 0.83484 0.83755 0.0
C473 C 0.39372 0.88255 0.82144 0.0
N474 N 0.39177 0.81045 0.78568 0.0
N475 N 0.41101 0.90175 0.87892 0.0
H476 H 0.37463 0.90911 0.78706 0.0
H477 H 0.39517 0.92641 0.82546 0.0
H478 H 0.42418 0.90171 0.90305 0.0
H479 H 0.39547 0.91782 0.87621 0.0
H480 H 0.40211 0.79257 0.79118 0.0
H481 H 0.37249 0.80771 0.76372 0.0
H482 H 0.45896 0.81145 0.86484 0.0
H483 H 0.45896 0.81145 0.86484 0.0
C484 C 0.83104 0.85492 0.40547 0.0
C485 C 0.85416 0.85395 0.37466 0.0
C486 C 0.89043 0.90558 0.38027 0.0
C487 C 0.86465 0.90684 0.40965 0.0
N488 N 0.81935 0.88301 0.4551 0.0
N489 N 0.91372 0.87615 0.33683 0.0
C490 C 0.83806 0.88149 0.42399 0.0
C491 C 0.88684 0.87858 0.3636 0.0
N492 N 0.80112 0.83052 0.41616 0.0
N493 N 0.91659 0.93041 0.36755 0.0
H494 H 0.9112 0.85681 0.32363 0.0
H495 H 0.94082 0.89268 0.32918 0.0
H496 H 0.92148 0.95032 0.38011 0.0
H497 H 0.93212 0.93163 0.34412 0.0
H498 H 0.77901 0.83001 0.43611 0.0
H499 H 0.79756 0.8105 0.40418 0.0
H500 H 0.80265 0.86525 0.46843 0.0
H501 H 0.82336 0.90226 0.46894 0.0
C502 C 0.67045 0.31097 0.82737 0.0
C503 C 0.64652 0.29306 0.80036 0.0
C504 C 0.5769 0.2842 0.83312 0.0
C505 C 0.60194 0.29958 0.86124 0.0
N506 N 0.67394 0.3227 0.88739 0.0
N507 N 0.57852 0.25887 0.77931 0.0
C508 C 0.64916 0.3115 0.85904 0.0
C509 C 0.60008 0.27864 0.80367 0.0
N510 N 0.71268 0.3287 0.82236 0.0
N511 N 0.53097 0.27564 0.83418 0.0
H512 H 0.59455 0.25393 0.75764 0.0
H513 H 0.54597 0.24554 0.78198 0.0
H514 H 0.51288 0.27935 0.85533 0.0
H515 H 0.51075 0.26707 0.81323 0.0
H516 H 0.72962 0.34432 0.8402 0.0
H517 H 0.729 0.33004 0.79917 0.0
H518 H 0.70897 0.32883 0.88785 0.0
H519 H 0.65969 0.32338 0.9112 0.0
C520 C 0.29389 0.92717 0.62398 0.0
C521 C 0.30697 0.93083 0.65855 0.0
C522 C 0.33466 0.98277 0.65316 0.0
C523 C 0.32323 0.97892 0.61835 0.0
N524 N 0.30058 0.94764 0.5689 0.0
N525 N 0.34818 0.96101 0.70433 0.0
C526 C 0.30572 0.95112 0.60319 0.0
C527 C 0.32978 0.95835 0.67268 0.0
N528 N 0.26786 0.90119 0.61145 0.0
N529 N 0.34916 0.00978 0.6677 0.0
H530 H 0.34591 0.94354 0.71913 0.0
H531 H 0.36913 0.98008 0.71475 0.0
H532 H 0.35496 0.02817 0.65391 0.0
H533 H 0.35281 0.01403 0.69365 0.0
H534 H 0.25306 0.89801 0.58757 0.0
H535 H 0.25762 0.88317 0.62589 0.0
H536 H 0.29269 0.92777 0.55598 0.0
H537 H 0.30795 0.96477 0.55295 0.0
C538 C 0.64764 0.76508 0.20166 0.0
C539 C 0.6551 0.78677 0.22781 0.0
C540 C 0.61143 0.81195 0.19643 0.0
C541 C 0.6092 0.79236 0.16859 0.0
N542 N 0.62786 0.75154 0.14292 0.0
N543 N 0.6503 0.83334 0.24794 0.0
C544 C 0.62785 0.76914 0.17074 0.0
C545 C 0.63826 0.81076 0.22485 0.0
N546 N 0.65827 0.74027 0.2068 0.0
N547 N 0.58771 0.83162 0.19574 0.0
H548 H 0.67119 0.83399 0.2686 0.0
H549 H 0.6431 0.85266 0.24494 0.0
H550 H 0.5684 0.83351 0.175 0.0
H551 H 0.58386 0.84428 0.21676 0.0
H552 H 0.64956 0.72248 0.19006 0.0
H553 H 0.6723 0.73647 0.22933 0.0
H554 H 0.64552 0.73631 0.14168 0.0
H555 H 0.61258 0.75343 0.12013 0.0
C556 C 0.70789 0.17953 0.57164 0.0
C557 C 0.7381 0.19961 0.59379 0.0
C558 C 0.79034 0.1702 0.58996 0.0
C559 C 0.76283 0.15234 0.56454 0.0
N560 N 0.69998 0.14383 0.52598 0.0
N561 N 0.81296 0.2172 0.6178 0.0
C562 C 0.72288 0.1581 0.55384 0.0
C563 C 0.7807 0.19582 0.60134 0.0
N564 N 0.66424 0.18001 0.56869 0.0
N565 N 0.82496 0.16239 0.60393 0.0
H566 H 0.80839 0.23696 0.62507 0.0
H567 H 0.84595 0.21651 0.62089 0.0
H568 H 0.8326 0.1435 0.59674 0.0
H569 H 0.84315 0.17321 0.62491 0.0
H570 H 0.63989 0.16411 0.55536 0.0
H571 H 0.6511 0.19439 0.58255 0.0
H572 H 0.67325 0.14933 0.51516 0.0
H573 H 0.71043 0.12845 0.51168 0.0
C574 C 0.40211 0.31991 0.24339 0.0
C575 C 0.38477 0.34328 0.25156 0.0
C576 C 0.41461 0.36584 0.19914 0.0
C577 C 0.43089 0.34209 0.19052 0.0
N578 N 0.44981 0.3 0.20678 0.0
N579 N 0.38254 0.39122 0.24196 0.0
C580 C 0.42784 0.32024 0.21354 0.0
C581 C 0.39392 0.36725 0.231 0.0
N582 N 0.39262 0.29705 0.26367 0.0
N583 N 0.41704 0.38629 0.17616 0.0
H584 H 0.36649 0.39266 0.26489 0.0
H585 H 0.39207 0.41046 0.2298 0.0
H586 H 0.43319 0.38639 0.15299 0.0
H587 H 0.40107 0.40231 0.17909 0.0
H588 H 0.39955 0.27784 0.25727 0.0
H589 H 0.37583 0.29684 0.2866 0.0
H590 H 0.45262 0.28503 0.22386 0.0
H591 H 0.46848 0.29956 0.18488 0.0
C592 C 0.85201 0.70004 0.6193 0.0
C593 C 0.85024 0.7139 0.65136 0.0
C594 C 0.90264 0.68998 0.67399 0.0
C595 C 0.89894 0.67304 0.64356 0.0
N596 N 0.86443 0.6589 0.58871 0.0
N597 N 0.86693 0.7173 0.71121 0.0
C598 C 0.87214 0.67725 0.61652 0.0
C599 C 0.87388 0.70773 0.67927 0.0
N600 N 0.83609 0.70931 0.59124 0.0
N601 N 0.93421 0.6895 0.69766 0.0
H602 H 0.84435 0.72907 0.71674 0.0
H603 H 0.87989 0.71089 0.73269 0.0
H604 H 0.95648 0.67712 0.69442 0.0
H605 H 0.94132 0.70355 0.7188 0.0
H606 H 0.84052 0.70179 0.56683 0.0
H607 H 0.8227 0.72665 0.59197 0.0
H608 H 0.84121 0.65913 0.56994 0.0
H609 H 0.87824 0.64181 0.58579 0.0
C610 C 0.81732 0.37079 0.3447 0.0
C611 C 0.8344 0.3467 0.34146 0.0
C612 C 0.91152 0.37843 0.34549 0.0
C613 C 0.89418 0.40224 0.35043 0.0
N614 N 0.83127 0.42036 0.36388 0.0
N615 N 0.89682 0.32697 0.34692 0.0
C616 C 0.84724 0.39812 0.35314 0.0
C617 C 0.8813 0.35034 0.34441 0.0
N618 N 0.77326 0.36812 0.33735 0.0
N619 N 0.95649 0.38264 0.34028 0.0
H620 H 0.87546 0.30614 0.34694 0.0
H621 H 0.93022 0.3284 0.35233 0.0
H622 H 0.97975 0.40286 0.34102 0.0
H623 H 0.97029 0.36625 0.33274 0.0
H624 H 0.76055 0.3856 0.33572 0.0
H625 H 0.75021 0.34887 0.32948 0.0
H626 H 0.79756 0.41789 0.36952 0.0
H627 H 0.85239 0.44068 0.37045 0.0
C628 C 0.18663 0.45289 0.72533 0.0
C629 C 0.17867 0.42538 0.70909 0.0
C630 C 0.11678 0.4334 0.67642 0.0
C631 C 0.12783 0.46189 0.69012 0.0
N632 N 0.17593 0.50019 0.72478 0.0
N633 N 0.14087 0.3908 0.6656 0.0
C634 C 0.16353 0.47205 0.71381 0.0
C635 C 0.14478 0.41588 0.68381 0.0
N636 N 0.21493 0.46026 0.75263 0.0
N637 N 0.07918 0.423 0.65667 0.0
H638 H 0.1611 0.37751 0.66981 0.0
H639 H 0.12029 0.38432 0.64438 0.0
H640 H 0.05854 0.43546 0.65 0.0
H641 H 0.06641 0.40151 0.64908 0.0
H642 H 0.21854 0.47876 0.7678 0.0
H643 H 0.23196 0.44664 0.76208 0.0
H644 H 0.20494 0.50973 0.73888 0.0
H645 H 0.15886 0.51465 0.7178 0.0
C646 C 0.2514 0.72373 0.33897 0.0
C647 C 0.25212 0.7386 0.30895 0.0
C648 C 0.18095 0.70411 0.29087 0.0
C649 C 0.18385 0.68723 0.31847 0.0
N650 N 0.22508 0.67878 0.36644 0.0
N651 N 0.22049 0.74136 0.25418 0.0
C652 C 0.21988 0.69647 0.34198 0.0
C653 C 0.21745 0.72853 0.28438 0.0
N654 N 0.27976 0.73612 0.36516 0.0
N655 N 0.143 0.69702 0.27122 0.0
H656 H 0.24692 0.75909 0.24828 0.0
H657 H 0.19886 0.73305 0.2339 0.0
H658 H 0.11569 0.67924 0.27532 0.0
H659 H 0.13691 0.71007 0.25287 0.0
H660 H 0.27756 0.72754 0.3889 0.0
H661 H 0.30243 0.75649 0.36437 0.0
H662 H 0.25361 0.68309 0.38174 0.0
H663 H 0.20271 0.65862 0.36965 0.0
C664 C 0.81945 0.86676 0.59505 0.0
C665 C 0.77661 0.85441 0.60942 0.0
C666 C 0.74868 0.89223 0.58733 0.0
C667 C 0.79062 0.90367 0.57141 0.0
N668 N 0.86206 0.89809 0.55324 0.0
N669 N 0.69737 0.85069 0.61111 0.0
C670 C 0.82483 0.88973 0.57308 0.0
C671 C 0.74025 0.86572 0.60303 0.0
N672 N 0.85556 0.85777 0.60378 0.0
N673 N 0.71754 0.90721 0.58872 0.0
H674 H 0.68967 0.83064 0.62156 0.0
H675 H 0.66909 0.85659 0.60408 0.0
H676 H 0.7225 0.92692 0.57786 0.0
H677 H 0.68851 0.90132 0.60323 0.0
H678 H 0.88845 0.86821 0.59699 0.0
H679 H 0.8534 0.84136 0.62017 0.0
H680 H 0.88592 0.88684 0.55081 0.0
H681 H 0.86695 0.91476 0.53675 0.0
C682 C 0.64985 0.26057 0.20467 0.0
C683 C 0.65009 0.28029 0.23212 0.0
C684 C 0.6012 0.30174 0.2005 0.0
C685 C 0.60533 0.28429 0.17175 0.0
N686 N 0.63378 0.24767 0.14519 0.0
N687 N 0.62715 0.31984 0.25702 0.0
C688 C 0.62937 0.26363 0.17357 0.0
C689 C 0.62576 0.30079 0.23035 0.0
N690 N 0.66928 0.23902 0.20843 0.0
N691 N 0.57345 0.31901 0.19923 0.0
H692 H 0.64229 0.31861 0.28009 0.0
H693 H 0.61511 0.33761 0.25602 0.0
H694 H 0.55623 0.32103 0.17743 0.0
H695 H 0.56486 0.32989 0.22019 0.0
H696 H 0.66666 0.22224 0.19071 0.0
H697 H 0.6857 0.23673 0.23054 0.0
H698 H 0.65496 0.23456 0.14349 0.0
H699 H 0.61775 0.24862 0.1224 0.0
C700 C 0.34607 0.25555 0.66425 0.0
C701 C 0.33886 0.27979 0.64938 0.0
C702 C 0.31943 0.25235 0.59555 0.0
C703 C 0.33141 0.22929 0.60958 0.0
N704 N 0.36403 0.21072 0.65526 0.0
N705 N 0.32478 0.30293 0.59986 0.0
C706 C 0.34702 0.23139 0.64337 0.0
C707 C 0.32702 0.27865 0.61474 0.0
N708 N 0.34994 0.25503 0.69854 0.0
N709 N 0.29982 0.24886 0.56428 0.0
H710 H 0.33035 0.3226 0.61307 0.0
H711 H 0.32111 0.30417 0.57394 0.0
H712 H 0.29406 0.22994 0.54945 0.0
H713 H 0.286 0.26379 0.55415 0.0
H714 H 0.35049 0.23678 0.71094 0.0
H715 H 0.34787 0.27189 0.71498 0.0
H716 H 0.38049 0.21277 0.67844 0.0
H717 H 0.36544 0.19264 0.64074 0.0
C718 C 0.42673 0.87238 0.23721 0.0
C719 C 0.43906 0.8532 0.25845 0.0
C720 C 0.45605 0.82605 0.2092 0.0
C721 C 0.44404 0.84533 0.18788 0.0
N722 N 0.40977 0.88309 0.18038 0.0
N723 N 0.45575 0.80858 0.26556 0.0
C724 C 0.42664 0.86731 0.20157 0.0
C725 C 0.45058 0.82896 0.24466 0.0
N726 N 0.41671 0.89593 0.25119 0.0
N727 N 0.4744 0.80572 0.19558 0.0
H728 H 0.45227 0.81023 0.29171 0.0
H729 H 0.45976 0.78899 0.25699 0.0
H730 H 0.47735 0.80223 0.16964 0.0
H731 H 0.48921 0.79342 0.20984 0.0
H732 H 0.41244 0.91254 0.23727 0.0
H733 H 0.41484 0.89965 0.2772 0.0
H734 H 0.39275 0.89768 0.18858 0.0
H735 H 0.4097 0.87998 0.15417 0.0
C736 C 0.78053 0.16327 0.32912 0.0
C737 C 0.78943 0.1915 0.34356 0.0
C738 C 0.80872 0.17533 0.39764 0.0
C739 C 0.8027 0.14759 0.38252 0.0
N740 N 0.78942 0.11573 0.33302 0.0
N741 N 0.81943 0.22575 0.38935 0.0
C742 C 0.79068 0.14176 0.34794 0.0
C743 C 0.8055 0.19791 0.37728 0.0
N744 N 0.76028 0.15669 0.2981 0.0
N745 N 0.81668 0.17994 0.43161 0.0
H746 H 0.81813 0.24291 0.37505 0.0
H747 H 0.83591 0.23214 0.4124 0.0
H748 H 0.82088 0.16419 0.44714 0.0
H749 H 0.81606 0.19872 0.44487 0.0
H750 H 0.74831 0.1359 0.28782 0.0
H751 H 0.75186 0.17175 0.28363 0.0
H752 H 0.786 0.11124 0.30709 0.0
H753 H 0.79518 0.09912 0.34625 0.0
C754 C 0.39533 0.38505 0.83117 0.0
C755 C 0.34918 0.37017 0.82636 0.0
C756 C 0.34701 0.35138 0.88285 0.0
C757 C 0.3945 0.36207 0.88489 0.0
N758 N 0.46497 0.38751 0.86008 0.0
N759 N 0.28141 0.33679 0.84646 0.0
C760 C 0.41901 0.3788 0.85899 0.0
C761 C 0.32479 0.35305 0.8521 0.0
N762 N 0.41628 0.40541 0.80926 0.0
N763 N 0.32318 0.33975 0.91039 0.0
H764 H 0.26367 0.33707 0.82435 0.0
H765 H 0.26402 0.3213 0.8627 0.0
H766 H 0.33853 0.33817 0.93327 0.0
H767 H 0.28822 0.33421 0.91158 0.0
H768 H 0.44873 0.41888 0.81307 0.0
H769 H 0.39944 0.41076 0.78899 0.0
H770 H 0.48475 0.39688 0.84003 0.0
H771 H 0.4836 0.38346 0.88007 0.0
C772 C 0.41456 0.93795 0.4467 0.0
C773 C 0.41867 0.93543 0.41113 0.0
C774 C 0.37995 0.97213 0.40424 0.0
C775 C 0.38108 0.97719 0.43977 0.0
N776 N 0.40231 0.9669 0.49518 0.0
N777 N 0.40738 0.95034 0.35556 0.0
C778 C 0.39868 0.96041 0.46118 0.0
C779 C 0.40177 0.95252 0.38972 0.0
N780 N 0.42591 0.91889 0.46659 0.0
N781 N 0.35711 0.98567 0.38455 0.0
H782 H 0.42106 0.93515 0.34391 0.0
H783 H 0.40078 0.96449 0.33884 0.0
H784 H 0.34063 8e-05 0.3945 0.0
H785 H 0.35116 0.98095 0.35885 0.0
H786 H 0.41912 0.91758 0.4923 0.0
H787 H 0.43915 0.90278 0.45694 0.0
H788 H 0.41957 0.95774 0.51167 0.0
H789 H 0.39066 0.98299 0.50684 0.0
C790 C 0.61765 0.81952 0.79682 0.0
C791 C 0.65753 0.81076 0.79534 0.0
C792 C 0.64639 0.79672 0.85402 0.0
C793 C 0.61098 0.8097 0.8569 0.0
N794 N 0.56616 0.83683 0.83215 0.0
N795 N 0.71354 0.79447 0.82405 0.0
C796 C 0.59723 0.82189 0.82854 0.0
C797 C 0.67274 0.79999 0.82424 0.0
N798 N 0.59854 0.82478 0.76776 0.0
N799 N 0.65441 0.78093 0.87958 0.0
H800 H 0.73457 0.79718 0.80311 0.0
H801 H 0.72843 0.78967 0.84561 0.0
H802 H 0.63547 0.77791 0.90165 0.0
H803 H 0.6768 0.76859 0.87752 0.0
H804 H 0.56714 0.82851 0.76699 0.0
H805 H 0.6118 0.82242 0.74392 0.0
H806 H 0.55857 0.84877 0.81314 0.0
H807 H 0.55065 0.83936 0.85502 0.0
loop_
_geom_bond_atom_site_label_1
_geom_bond_atom_site_label_2
_geom_bond_distance
_geom_bond_site_symmetry_2
_ccdc_geom_bond_type
O0 Cd1 2.300 . S
O0 C7 1.275 . S
Cd1 O0 2.300 . S
Cd1 O9 2.381 . S
Cd1 O10 2.378 . S
O2 Cd3 2.385 . S
O2 C7 1.255 . S
Cd3 O2 2.385 . S
Cd3 O4 2.317 . S
O4 Cd3 2.317 . S
O4 C5 1.232 . S
C5 O4 1.232 . S
C5 O6 1.218 . S
O6 C5 1.218 . S
C7 O0 1.275 . S
C7 O2 1.255 . S
C8 O9 1.258 . S
C8 O10 1.256 . S
O9 Cd1 2.381 . S
O9 C8 1.258 . S
O10 Cd1 2.378 . S
O10 C8 1.256 . S
O11 Cd12 2.300 . S
O11 C18 1.275 . S
Cd12 O11 2.300 . S
Cd12 O20 2.381 . S
Cd12 O21 2.378 . S
O13 Cd14 2.385 . S
O13 C18 1.255 . S
Cd14 O13 2.385 . S
Cd14 O15 2.317 . S
O15 Cd14 2.317 . S
O15 C16 1.232 . S
C16 O15 1.232 . S
C16 O17 1.218 . S
O17 C16 1.218 . S
C18 O11 1.275 . S
C18 O13 1.255 . S
C19 O20 1.258 . S
C19 O21 1.256 . S
O20 Cd12 2.381 . S
O20 C19 1.258 . S
O21 Cd12 2.378 . S
O21 C19 1.256 . S
O22 Cd23 2.300 . S
O22 C29 1.275 . S
Cd23 O22 2.300 . S
Cd23 O31 2.381 . S
Cd23 O32 2.378 . S
O24 Cd25 2.385 . S
O24 C29 1.255 . S
Cd25 O24 2.385 . S
Cd25 O26 2.317 . S
O26 Cd25 2.317 . S
O26 C27 1.232 . S
C27 O26 1.232 . S
C27 O28 1.218 . S
O28 C27 1.218 . S
C29 O22 1.275 . S
C29 O24 1.255 . S
C30 O31 1.258 . S
C30 O32 1.256 . S
O31 Cd23 2.381 . S
O31 C30 1.258 . S
O32 Cd23 2.378 . S
O32 C30 1.256 . S
O33 Cd34 2.300 . S
O33 C40 1.275 . S
Cd34 O33 2.300 . S
Cd34 O42 2.381 . S
Cd34 O43 2.378 . S
O35 Cd36 2.385 . S
O35 C40 1.255 . S
Cd36 O35 2.385 . S
Cd36 O37 2.317 . S
O37 Cd36 2.317 . S
O37 C38 1.232 . S
C38 O37 1.232 . S
C38 O39 1.218 . S
O39 C38 1.218 . S
C40 O33 1.275 . S
C40 O35 1.255 . S
C41 O42 1.258 . S
C41 O43 1.256 . S
O42 Cd34 2.381 . S
O42 C41 1.258 . S
O43 Cd34 2.378 . S
O43 C41 1.256 . S
O44 Cd45 2.300 . S
O44 C51 1.275 . S
Cd45 O44 2.300 . S
Cd45 O53 2.381 . S
Cd45 O54 2.378 . S
O46 Cd47 2.385 . S
O46 C51 1.255 . S
Cd47 O46 2.385 . S
Cd47 O48 2.317 . S
O48 Cd47 2.317 . S
O48 C49 1.232 . S
C49 O48 1.232 . S
C49 O50 1.218 . S
O50 C49 1.218 . S
C51 O44 1.275 . S
C51 O46 1.255 . S
C52 O53 1.258 . S
C52 O54 1.256 . S
O53 Cd45 2.381 . S
O53 C52 1.258 . S
O54 Cd45 2.378 . S
O54 C52 1.256 . S
O55 Cd56 2.300 . S
O55 C62 1.275 . S
Cd56 O55 2.300 . S
Cd56 O64 2.381 . S
Cd56 O65 2.378 . S
O57 Cd58 2.385 . S
O57 C62 1.255 . S
Cd58 O57 2.385 . S
Cd58 O59 2.317 . S
O59 Cd58 2.317 . S
O59 C60 1.232 . S
C60 O59 1.232 . S
C60 O61 1.218 . S
O61 C60 1.218 . S
C62 O55 1.275 . S
C62 O57 1.255 . S
C63 O64 1.258 . S
C63 O65 1.256 . S
O64 Cd56 2.381 . S
O64 C63 1.258 . S
O65 Cd56 2.378 . S
O65 C63 1.256 . S
O66 Cd67 2.300 . S
O66 C73 1.275 . S
Cd67 O66 2.300 . S
Cd67 O75 2.381 . S
Cd67 O76 2.378 . S
O68 Cd69 2.385 . S
O68 C73 1.255 . S
Cd69 O68 2.385 . S
Cd69 O70 2.317 . S
O70 Cd69 2.317 . S
O70 C71 1.232 . S
C71 O70 1.232 . S
C71 O72 1.218 . S
O72 C71 1.218 . S
C73 O66 1.275 . S
C73 O68 1.255 . S
C74 O75 1.258 . S
C74 O76 1.256 . S
O75 Cd67 2.381 . S
O75 C74 1.258 . S
O76 Cd67 2.378 . S
O76 C74 1.256 . S
O77 Cd78 2.300 . S
O77 C84 1.275 . S
Cd78 O77 2.300 . S
Cd78 O86 2.381 . S
Cd78 O87 2.378 . S
O79 Cd80 2.385 . S
O79 C84 1.255 . S
Cd80 O79 2.385 . S
Cd80 O81 2.317 . S
O81 Cd80 2.317 . S
O81 C82 1.232 . S
C82 O81 1.232 . S
C82 O83 1.218 . S
O83 C82 1.218 . S
C84 O77 1.275 . S
C84 O79 1.255 . S
C85 O86 1.258 . S
C85 O87 1.256 . S
O86 Cd78 2.381 . S
O86 C85 1.258 . S
O87 Cd78 2.378 . S
O87 C85 1.256 . S
H88 C107 0.949 . S
H89 C108 0.950 . S
H90 C110 0.950 . S
H91 C111 0.950 1_455 S
H92 C113 0.950 1_655 S
H93 C116 0.950 . S
H94 C117 0.950 . S
H95 C119 0.951 . S
H96 C120 0.949 . S
H97 C122 0.949 . S
H98 C123 0.950 . S
H99 C125 0.950 . S
H100 C126 0.950 . S
H101 C128 0.950 . S
H102 C131 0.949 . S
H103 C132 0.950 . S
H104 C134 0.951 . S
H105 C135 0.949 . S
C106 C107 1.376 . S
C106 C111 1.386 . S
C106 C112 1.483 1_655 S
C107 H88 0.949 . S
C107 C106 1.376 . S
C107 C108 1.397 . S
C108 H89 0.950 . S
C108 C107 1.397 . S
C108 C109 1.391 . S
C109 C108 1.391 . S
C109 C110 1.405 . S
C110 H90 0.950 . S
C110 C109 1.405 . S
C110 C111 1.367 . S
C111 H91 0.950 1_655 S
C111 C106 1.386 . S
C111 C110 1.367 . S
C112 C106 1.483 1_455 S
C112 C113 1.382 . S
C112 C114 1.403 . S
C113 H92 0.950 1_455 S
C113 C112 1.382 . S
C113 C129 1.411 . S
C114 C112 1.403 . S
C114 C115 1.489 . S
C114 C128 1.411 . S
C115 C114 1.489 . S
C115 C116 1.383 . S
C115 C120 1.382 . S
C116 H93 0.950 . S
C116 C115 1.383 . S
C116 C117 1.395 . S
C117 H94 0.950 . S
C117 C116 1.395 . S
C117 C118 1.288 . S
C118 C117 1.288 . S
C118 C119 1.392 . S
C119 H95 0.951 . S
C119 C118 1.392 . S
C119 C120 1.392 . S
C120 H96 0.949 . S
C120 C115 1.382 . S
C120 C119 1.392 . S
C121 C122 1.376 . S
C121 C126 1.386 . S
C121 C127 1.483 . S
C122 H97 0.949 . S
C122 C121 1.376 . S
C122 C123 1.397 . S
C123 H98 0.950 . S
C123 C122 1.397 . S
C123 C124 1.391 . S
C124 C123 1.391 . S
C124 C125 1.405 . S
C125 H99 0.950 . S
C125 C124 1.405 . S
C125 C126 1.367 . S
C126 H100 0.950 . S
C126 C121 1.386 . S
C126 C125 1.367 . S
C127 C121 1.483 . S
C127 C128 1.382 . S
C127 C129 1.403 . S
C128 H101 0.950 . S
C128 C114 1.411 . S
C128 C127 1.382 . S
C129 C113 1.411 . S
C129 C127 1.403 . S
C129 C130 1.489 1_455 S
C130 C129 1.489 1_655 S
C130 C131 1.383 1_655 S
C130 C135 1.382 . S
C131 H102 0.949 . S
C131 C130 1.383 1_455 S
C131 C132 1.396 1_455 S
C132 H103 0.950 . S
C132 C131 1.396 1_655 S
C132 C133 1.288 . S
C133 C132 1.288 . S
C133 C134 1.392 . S
C134 H104 0.951 . S
C134 C133 1.392 . S
C134 C135 1.392 . S
C135 H105 0.949 . S
C135 C130 1.382 . S
C135 C134 1.392 . S
H136 C155 0.949 . S
H137 C156 0.950 . S
H138 C158 0.950 . S
H139 C159 0.950 . S
H140 C161 0.950 . S
H141 C164 0.950 . S
H142 C165 0.950 . S
H143 C167 0.951 . S
H144 C168 0.949 . S
H145 C170 0.949 . S
H146 C171 0.950 . S
H147 C173 0.950 . S
H148 C174 0.950 . S
H149 C176 0.950 . S
H150 C179 0.950 . S
H151 C180 0.950 . S
H152 C182 0.951 . S
H153 C183 0.949 . S
C154 C155 1.376 . S
C154 C159 1.386 . S
C154 C160 1.483 . S
C155 H136 0.949 . S
C155 C154 1.376 . S
C155 C156 1.397 . S
C156 H137 0.950 . S
C156 C155 1.397 . S
C156 C157 1.391 . S
C157 C156 1.391 . S
C157 C158 1.405 . S
C158 H138 0.950 . S
C158 C157 1.405 . S
C158 C159 1.367 . S
C159 H139 0.950 . S
C159 C154 1.386 . S
C159 C158 1.367 . S
C160 C154 1.483 . S
C160 C161 1.382 . S
C160 C162 1.403 1_455 S
C161 H140 0.950 . S
C161 C160 1.382 . S
C161 C177 1.411 . S
C162 C160 1.403 1_655 S
C162 C163 1.489 . S
C162 C176 1.411 . S
C163 C162 1.489 . S
C163 C164 1.383 . S
C163 C168 1.382 . S
C164 H141 0.950 . S
C164 C163 1.383 . S
C164 C165 1.395 . S
C165 H142 0.950 . S
C165 C164 1.395 . S
C165 C166 1.288 . S
C166 C165 1.288 . S
C166 C167 1.392 . S
C167 H143 0.951 . S
C167 C166 1.392 . S
C167 C168 1.392 . S
C168 H144 0.949 . S
C168 C163 1.382 . S
C168 C167 1.392 . S
C169 C170 1.376 . S
C169 C174 1.386 . S
C169 C175 1.483 . S
C170 H145 0.949 . S
C170 C169 1.376 . S
C170 C171 1.397 . S
C171 H146 0.950 . S
C171 C170 1.397 . S
C171 C172 1.391 . S
C172 C171 1.391 . S
C172 C173 1.405 . S
C173 H147 0.950 . S
C173 C172 1.405 . S
C173 C174 1.367 . S
C174 H148 0.950 . S
C174 C169 1.386 . S
C174 C173 1.367 . S
C175 C169 1.483 . S
C175 C176 1.382 . S
C175 C177 1.403 1_655 S
C176 H149 0.950 . S
C176 C162 1.411 . S
C176 C175 1.382 . S
C177 C161 1.411 . S
C177 C175 1.403 1_455 S
C177 C178 1.489 . S
C178 C177 1.489 . S
C178 C179 1.383 . S
C178 C183 1.382 . S
C179 H150 0.950 . S
C179 C178 1.383 . S
C179 C180 1.395 . S
C180 H151 0.950 . S
C180 C179 1.395 . S
C180 C181 1.288 . S
C181 C180 1.288 . S
C181 C182 1.392 . S
C182 H152 0.951 . S
C182 C181 1.392 . S
C182 C183 1.392 . S
C183 H153 0.949 . S
C183 C178 1.382 . S
C183 C182 1.392 . S
H184 C203 0.949 . S
H185 C204 0.950 . S
H186 C206 0.950 . S
H187 C207 0.950 . S
H188 C209 0.950 . S
H189 C212 0.950 . S
H190 C213 0.981 . S
H191 C215 0.951 . S
H192 C216 0.949 . S
H193 C218 0.949 . S
H194 C219 0.950 . S
H195 C221 0.950 . S
H196 C222 0.950 . S
H197 C224 0.950 . S
H198 C227 0.950 . S
H199 C228 0.950 . S
H200 C230 0.951 . S
H201 C231 0.949 . S
C202 C203 1.376 . S
C202 C207 1.386 . S
C202 C208 1.483 . S
C203 H184 0.949 . S
C203 C202 1.376 . S
C203 C204 1.397 . S
C204 H185 0.950 . S
C204 C203 1.397 . S
C204 C205 1.391 . S
C205 C204 1.391 . S
C205 C206 1.405 . S
C206 H186 0.950 . S
C206 C205 1.405 . S
C206 C207 1.367 . S
C207 H187 0.950 . S
C207 C202 1.386 . S
C207 C206 1.367 . S
C208 C202 1.483 . S
C208 C209 1.382 . S
C208 C210 1.403 . S
C209 H188 0.950 . S
C209 C208 1.382 . S
C209 C225 1.411 . S
C210 C208 1.403 . S
C210 C211 1.489 . S
C210 C224 1.411 . S
C211 C210 1.489 . S
C211 C212 1.383 . S
C211 C216 1.382 . S
C212 H189 0.950 . S
C212 C211 1.383 . S
C212 C213 1.395 . S
C213 H190 0.981 . S
C213 C212 1.395 . S
C213 C214 1.288 . S
C214 C213 1.288 . S
C214 C215 1.392 . S
C215 H191 0.951 . S
C215 C214 1.392 . S
C215 C216 1.392 . S
C216 H192 0.949 . S
C216 C211 1.382 . S
C216 C215 1.392 . S
C217 C218 1.376 . S
C217 C222 1.386 . S
C217 C223 1.483 . S
C218 H193 0.949 . S
C218 C217 1.376 . S
C218 C219 1.397 . S
C219 H194 0.950 . S
C219 C218 1.397 . S
C219 C220 1.391 . S
C220 C219 1.391 . S
C220 C221 1.405 . S
C221 H195 0.950 . S
C221 C220 1.405 . S
C221 C222 1.367 . S
C222 H196 0.950 . S
C222 C217 1.386 . S
C222 C221 1.367 . S
C223 C217 1.483 . S
C223 C224 1.382 . S
C223 C225 1.403 . S
C224 H197 0.950 . S
C224 C210 1.411 . S
C224 C223 1.382 . S
C225 C209 1.411 . S
C225 C223 1.403 . S
C225 C226 1.489 . S
C226 C225 1.489 . S
C226 C227 1.383 . S
C226 C231 1.382 . S
C227 H198 0.950 . S
C227 C226 1.383 . S
C227 C228 1.395 . S
C228 H199 0.950 . S
C228 C227 1.395 . S
C228 C229 1.288 . S
C229 C228 1.288 . S
C229 C230 1.392 . S
C230 H200 0.951 . S
C230 C229 1.392 . S
C230 C231 1.392 . S
C231 H201 0.949 . S
C231 C226 1.382 . S
C231 C230 1.392 . S
H232 C251 0.949 . S
H233 C252 0.950 . S
H234 C254 0.950 . S
H235 C255 0.950 . S
H236 C257 0.950 . S
H237 C260 0.950 . S
H238 C261 0.950 . S
H239 C263 0.951 . S
H240 C264 0.949 . S
H241 C266 0.949 . S
H242 C267 0.950 . S
H243 C269 0.950 . S
H244 C270 0.950 . S
H245 C272 0.950 . S
H246 C275 0.950 . S
H247 C276 0.950 . S
H248 C278 0.951 . S
H249 C279 0.949 . S
C250 C251 1.376 . S
C250 C255 1.386 . S
C250 C256 1.483 . S
C251 H232 0.949 . S
C251 C250 1.376 . S
C251 C252 1.397 . S
C252 H233 0.950 . S
C252 C251 1.397 . S
C252 C253 1.391 . S
C253 C252 1.391 . S
C253 C254 1.405 . S
C254 H234 0.950 . S
C254 C253 1.405 . S
C254 C255 1.367 . S
C255 H235 0.950 . S
C255 C250 1.386 . S
C255 C254 1.367 . S
C256 C250 1.483 . S
C256 C257 1.382 1_556 S
C256 C258 1.403 . S
C257 H236 0.950 . S
C257 C256 1.382 1_554 S
C257 C273 1.411 . S
C258 C256 1.403 . S
C258 C259 1.489 . S
C258 C272 1.411 1_556 S
C259 C258 1.489 . S
C259 C260 1.383 . S
C259 C264 1.382 . S
C260 H237 0.950 . S
C260 C259 1.383 . S
C260 C261 1.395 . S
C261 H238 0.950 . S
C261 C260 1.395 . S
C261 C262 1.288 . S
C262 C261 1.288 . S
C262 C263 1.392 . S
C263 H239 0.951 . S
C263 C262 1.392 . S
C263 C264 1.392 . S
C264 H240 0.949 . S
C264 C259 1.382 . S
C264 C263 1.392 . S
C265 C266 1.376 . S
C265 C270 1.386 . S
C265 C271 1.483 . S
C266 H241 0.949 . S
C266 C265 1.376 . S
C266 C267 1.397 . S
C267 H242 0.950 . S
C267 C266 1.397 . S
C267 C268 1.391 . S
C268 C267 1.391 . S
C268 C269 1.405 . S
C269 H243 0.950 . S
C269 C268 1.405 . S
C269 C270 1.367 . S
C270 H244 0.950 . S
C270 C265 1.386 . S
C270 C269 1.367 . S
C271 C265 1.483 . S
C271 C272 1.382 . S
C271 C273 1.403 . S
C272 H245 0.950 . S
C272 C258 1.411 1_554 S
C272 C271 1.382 . S
C273 C257 1.411 . S
C273 C271 1.403 . S
C273 C274 1.489 . S
C274 C273 1.489 . S
C274 C275 1.383 . S
C274 C279 1.382 . S
C275 H246 0.950 . S
C275 C274 1.383 . S
C275 C276 1.395 . S
C276 H247 0.950 . S
C276 C275 1.395 . S
C276 C277 1.288 . S
C277 C276 1.288 . S
C277 C278 1.392 . S
C278 H248 0.951 . S
C278 C277 1.392 . S
C278 C279 1.392 . S
C279 H249 0.949 . S
C279 C274 1.382 . S
C279 C278 1.392 . S
H280 C299 0.949 . S
H281 C300 0.950 . S
H282 C302 0.950 . S
H283 C303 0.950 . S
H284 C305 0.950 . S
H285 C308 0.950 . S
H286 C309 0.950 . S
H287 C311 0.951 . S
H288 C312 0.949 . S
H289 C314 0.949 . S
H290 C315 0.950 . S
H291 C317 0.950 . S
H292 C318 0.950 . S
H293 C320 0.950 . S
H294 C323 0.950 . S
H295 C324 0.950 . S
H296 C326 0.951 . S
H297 C327 0.949 . S
C298 C299 1.376 . S
C298 C303 1.386 . S
C298 C304 1.483 . S
C299 H280 0.949 . S
C299 C298 1.376 . S
C299 C300 1.397 . S
C300 H281 0.950 . S
C300 C299 1.397 . S
C300 C301 1.391 . S
C301 C300 1.391 . S
C301 C302 1.405 . S
C302 H282 0.950 . S
C302 C301 1.405 . S
C302 C303 1.367 . S
C303 H283 0.950 . S
C303 C298 1.386 . S
C303 C302 1.367 . S
C304 C298 1.483 . S
C304 C305 1.382 1_565 S
C304 C306 1.403 . S
C305 H284 0.950 . S
C305 C304 1.382 1_545 S
C305 C321 1.411 . S
C306 C304 1.403 . S
C306 C307 1.489 . S
C306 C320 1.411 1_565 S
C307 C306 1.489 . S
C307 C308 1.383 . S
C307 C312 1.382 . S
C308 H285 0.950 . S
C308 C307 1.383 . S
C308 C309 1.395 . S
C309 H286 0.950 . S
C309 C308 1.395 . S
C309 C310 1.288 . S
C310 C309 1.288 . S
C310 C311 1.392 . S
C311 H287 0.951 . S
C311 C310 1.392 . S
C311 C312 1.392 . S
C312 H288 0.949 . S
C312 C307 1.382 . S
C312 C311 1.392 . S
C313 C314 1.376 . S
C313 C318 1.386 . S
C313 C319 1.483 . S
C314 H289 0.949 . S
C314 C313 1.376 . S
C314 C315 1.397 . S
C315 H290 0.950 . S
C315 C314 1.397 . S
C315 C316 1.391 . S
C316 C315 1.391 . S
C316 C317 1.405 . S
C317 H291 0.950 . S
C317 C316 1.405 . S
C317 C318 1.367 . S
C318 H292 0.950 . S
C318 C313 1.386 . S
C318 C317 1.367 . S
C319 C313 1.483 . S
C319 C320 1.382 . S
C319 C321 1.403 . S
C320 H293 0.950 . S
C320 C306 1.411 1_545 S
C320 C319 1.382 . S
C321 C305 1.411 . S
C321 C319 1.403 . S
C321 C322 1.489 . S
C322 C321 1.489 . S
C322 C323 1.383 . S
C322 C327 1.382 . S
C323 H294 0.950 . S
C323 C322 1.383 . S
C323 C324 1.395 . S
C324 H295 0.950 . S
C324 C323 1.395 . S
C324 C325 1.288 . S
C325 C324 1.288 . S
C325 C326 1.392 . S
C326 H296 0.951 . S
C326 C325 1.392 . S
C326 C327 1.392 . S
C327 H297 0.949 . S
C327 C322 1.382 . S
C327 C326 1.392 . S
H328 C347 0.949 . S
H329 C348 0.950 . S
H330 C350 0.950 . S
H331 C351 0.950 . S
H332 C353 0.950 . S
H333 C356 0.950 . S
H334 C357 0.950 . S
H335 C359 0.951 . S
H336 C360 0.949 . S
H337 C362 0.949 . S
H338 C363 0.950 . S
H339 C365 0.950 . S
H340 C366 0.950 . S
H341 C368 0.950 . S
H342 C371 0.950 . S
H343 C372 0.950 . S
H344 C374 0.951 . S
H345 C375 0.949 . S
C346 C347 1.376 . S
C346 C351 1.386 . S
C346 C352 1.483 . S
C347 H328 0.949 . S
C347 C346 1.376 . S
C347 C348 1.397 . S
C348 H329 0.950 . S
C348 C347 1.397 . S
C348 C349 1.391 . S
C349 C348 1.391 . S
C349 C350 1.405 . S
C350 H330 0.950 . S
C350 C349 1.405 . S
C350 C351 1.367 . S
C351 H331 0.950 . S
C351 C346 1.386 . S
C351 C350 1.367 . S
C352 C346 1.483 . S
C352 C353 1.382 1_556 S
C352 C354 1.403 . S
C353 H332 0.950 . S
C353 C352 1.382 1_554 S
C353 C369 1.411 . S
C354 C352 1.403 . S
C354 C355 1.489 . S
C354 C368 1.411 1_556 S
C355 C354 1.489 . S
C355 C356 1.383 . S
C355 C360 1.382 . S
C356 H333 0.950 . S
C356 C355 1.383 . S
C356 C357 1.395 . S
C357 H334 0.950 . S
C357 C356 1.395 . S
C357 C358 1.288 . S
C358 C357 1.288 . S
C358 C359 1.392 . S
C359 H335 0.951 . S
C359 C358 1.392 . S
C359 C360 1.392 . S
C360 H336 0.949 . S
C360 C355 1.382 . S
C360 C359 1.392 . S
C361 C362 1.376 . S
C361 C366 1.386 . S
C361 C367 1.483 . S
C362 H337 0.949 . S
C362 C361 1.376 . S
C362 C363 1.397 . S
C363 H338 0.950 . S
C363 C362 1.397 . S
C363 C364 1.391 . S
C364 C363 1.391 . S
C364 C365 1.405 . S
C365 H339 0.950 . S
C365 C364 1.405 . S
C365 C366 1.367 . S
C366 H340 0.950 . S
C366 C361 1.386 . S
C366 C365 1.367 . S
C367 C361 1.483 . S
C367 C368 1.382 . S
C367 C369 1.403 . S
C368 H341 0.950 . S
C368 C354 1.411 1_554 S
C368 C367 1.382 . S
C369 C353 1.411 . S
C369 C367 1.403 . S
C369 C370 1.489 . S
C370 C369 1.489 . S
C370 C371 1.383 . S
C370 C375 1.382 . S
C371 H342 0.950 . S
C371 C370 1.383 . S
C371 C372 1.395 . S
C372 H343 0.950 . S
C372 C371 1.395 . S
C372 C373 1.288 . S
C373 C372 1.288 . S
C373 C374 1.392 . S
C374 H344 0.951 . S
C374 C373 1.392 . S
C374 C375 1.392 . S
C375 H345 0.949 . S
C375 C370 1.382 . S
C375 C374 1.392 . S
C376 C377 1.363 . S
C376 C382 1.379 . S
C376 N384 1.356 . S
C377 C376 1.363 . S
C377 C383 1.363 . S
C378 C379 1.363 . S
C378 C383 1.379 . S
C378 N385 1.356 . S
C379 C378 1.363 . S
C379 C382 1.363 . S
N380 C382 1.356 . S
N380 H392 0.984 . S
N380 H393 0.985 . S
N381 C383 1.356 . S
N381 H386 0.984 . S
N381 H387 0.985 . S
C382 C376 1.379 . S
C382 C379 1.363 . S
C382 N380 1.356 . S
C383 C377 1.363 . S
C383 C378 1.379 . S
C383 N381 1.356 . S
N384 C376 1.356 . S
N384 H390 0.984 . S
N384 H391 0.984 . S
N385 C378 1.356 . S
N385 H388 0.984 . S
N385 H389 0.985 . S
H386 N381 0.984 . S
H387 N381 0.985 . S
H388 N385 0.984 . S
H389 N385 0.985 . S
H390 N384 0.984 . S
H391 N384 0.984 . S
H392 N380 0.984 . S
H393 N380 0.985 . S
C394 C395 1.363 . S
C394 C400 1.379 . S
C394 N402 1.356 . S
C395 C394 1.363 . S
C395 C401 1.363 . S
C396 C397 1.363 . S
C396 C401 1.379 . S
C396 N403 1.356 . S
C397 C396 1.363 . S
C397 C400 1.363 . S
N398 C400 1.356 . S
N398 H410 0.984 . S
N398 H411 0.985 . S
N399 C401 1.356 . S
N399 H404 0.984 . S
N399 H405 0.985 . S
C400 C394 1.379 . S
C400 C397 1.363 . S
C400 N398 1.356 . S
C401 C395 1.363 . S
C401 C396 1.379 . S
C401 N399 1.356 . S
N402 C394 1.356 . S
N402 H408 0.984 . S
N402 H409 0.984 . S
N403 C396 1.356 . S
N403 H406 0.984 . S
N403 H407 0.985 . S
H404 N399 0.984 . S
H405 N399 0.985 . S
H406 N403 0.984 . S
H407 N403 0.985 . S
H408 N402 0.984 . S
H409 N402 0.984 . S
H410 N398 0.984 . S
H411 N398 0.985 . S
C412 C413 1.363 . S
C412 C418 1.379 . S
C412 N420 1.356 . S
C413 C412 1.363 . S
C413 C419 1.363 . S
C414 C415 1.363 . S
C414 C419 1.379 . S
C414 N421 1.356 . S
C415 C414 1.363 . S
C415 C418 1.363 . S
N416 C418 1.356 . S
N416 H428 0.984 . S
N416 H429 0.985 . S
N417 C419 1.356 . S
N417 H422 0.984 . S
N417 H423 0.985 . S
C418 C412 1.379 . S
C418 C415 1.363 . S
C418 N416 1.356 . S
C419 C413 1.363 . S
C419 C414 1.379 . S
C419 N417 1.356 . S
N420 C412 1.356 . S
N420 H426 0.984 . S
N420 H427 0.984 . S
N421 C414 1.356 . S
N421 H424 0.984 . S
N421 H425 0.985 . S
H422 N417 0.984 . S
H423 N417 0.985 . S
H424 N421 0.984 . S
H425 N421 0.985 . S
H426 N420 0.984 . S
H427 N420 0.984 . S
H428 N416 0.984 . S
H429 N416 0.985 . S
C430 C431 1.363 . S
C430 C436 1.379 . S
C430 N438 1.356 . S
C431 C430 1.363 . S
C431 C437 1.363 . S
C432 C433 1.363 . S
C432 C437 1.379 . S
C432 N439 1.356 . S
C433 C432 1.363 . S
C433 C436 1.363 . S
N434 C436 1.356 . S
N434 H446 0.984 . S
N434 H447 0.985 . S
N435 C437 1.356 . S
N435 H440 0.984 . S
N435 H441 0.985 . S
C436 C430 1.379 . S
C436 C433 1.363 . S
C436 N434 1.356 . S
C437 C431 1.363 . S
C437 C432 1.379 . S
C437 N435 1.356 . S
N438 C430 1.356 . S
N438 H444 0.984 . S
N438 H445 0.984 . S
N439 C432 1.356 . S
N439 H442 0.984 . S
N439 H443 0.985 . S
H440 N435 0.984 . S
H441 N435 0.985 . S
H442 N439 0.984 . S
H443 N439 0.985 . S
H444 N438 0.984 . S
H445 N438 0.984 . S
H446 N434 0.984 . S
H447 N434 0.985 . S
C448 C449 1.363 . S
C448 C454 1.379 . S
C448 N456 1.356 . S
C449 C448 1.363 . S
C449 C455 1.363 . S
C450 C451 1.363 . S
C450 C455 1.379 . S
C450 N457 1.356 . S
C451 C450 1.363 . S
C451 C454 1.363 . S
N452 C454 1.356 . S
N452 H464 0.984 . S
N452 H465 0.985 . S
N453 C455 1.356 . S
N453 H458 0.984 . S
N453 H459 0.985 . S
C454 C448 1.379 . S
C454 C451 1.363 . S
C454 N452 1.356 . S
C455 C449 1.363 . S
C455 C450 1.379 . S
C455 N453 1.356 . S
N456 C448 1.356 . S
N456 H462 0.984 . S
N456 H463 0.984 . S
N457 C450 1.356 . S
N457 H460 0.984 . S
N457 H461 0.985 . S
H458 N453 0.984 . S
H459 N453 0.985 . S
H460 N457 0.984 . S
H461 N457 0.985 . S
H462 N456 0.984 . S
H463 N456 0.984 . S
H464 N452 0.984 . S
H465 N452 0.985 . S
C466 C467 1.363 . S
C466 C472 1.379 . S
C466 N474 1.356 . S
C467 C466 1.363 . S
C467 C473 1.363 . S
C468 C469 1.363 . S
C468 C473 1.379 . S
C468 N475 1.356 . S
C469 C468 1.363 . S
C469 C472 1.363 . S
N470 C472 1.356 . S
N470 H482 0.984 . S
N470 H483 0.985 . S
N471 C473 1.356 . S
N471 H476 0.984 . S
N471 H477 0.985 . S
C472 C466 1.379 . S
C472 C469 1.363 . S
C472 N470 1.356 . S
C473 C467 1.363 . S
C473 C468 1.379 . S
C473 N471 1.356 . S
N474 C466 1.356 . S
N474 H480 0.984 . S
N474 H481 0.984 . S
N475 C468 1.356 . S
N475 H478 0.984 . S
N475 H479 0.985 . S
H476 N471 0.984 . S
H477 N471 0.985 . S
H478 N475 0.984 . S
H479 N475 0.985 . S
H480 N474 0.984 . S
H481 N474 0.984 . S
H482 N470 0.984 . S
H483 N470 0.985 . S
C484 C485 1.363 . S
C484 C490 1.379 . S
C484 N492 1.356 . S
C485 C484 1.363 . S
C485 C491 1.363 . S
C486 C487 1.363 . S
C486 C491 1.379 . S
C486 N493 1.356 . S
C487 C486 1.363 . S
C487 C490 1.363 . S
N488 C490 1.356 . S
N488 H500 0.984 . S
N488 H501 0.985 . S
N489 C491 1.356 . S
N489 H494 0.984 . S
N489 H495 0.985 . S
C490 C484 1.379 . S
C490 C487 1.363 . S
C490 N488 1.356 . S
C491 C485 1.363 . S
C491 C486 1.379 . S
C491 N489 1.356 . S
N492 C484 1.356 . S
N492 H498 0.984 . S
N492 H499 0.984 . S
N493 C486 1.356 . S
N493 H496 0.984 . S
N493 H497 0.985 . S
H494 N489 0.984 . S
H495 N489 0.985 . S
H496 N493 0.984 . S
H497 N493 0.985 . S
H498 N492 0.984 . S
H499 N492 0.984 . S
H500 N488 0.984 . S
H501 N488 0.985 . S
C502 C503 1.363 . S
C502 C508 1.379 . S
C502 N510 1.356 . S
C503 C502 1.363 . S
C503 C509 1.363 . S
C504 C505 1.363 . S
C504 C509 1.379 . S
C504 N511 1.356 . S
C505 C504 1.363 . S
C505 C508 1.363 . S
N506 C508 1.356 . S
N506 H518 0.984 . S
N506 H519 0.985 . S
N507 C509 1.356 . S
N507 H512 0.984 . S
N507 H513 0.985 . S
C508 C502 1.379 . S
C508 C505 1.363 . S
C508 N506 1.356 . S
C509 C503 1.363 . S
C509 C504 1.379 . S
C509 N507 1.356 . S
N510 C502 1.356 . S
N510 H516 0.984 . S
N510 H517 0.984 . S
N511 C504 1.356 . S
N511 H514 0.984 . S
N511 H515 0.985 . S
H512 N507 0.984 . S
H513 N507 0.985 . S
H514 N511 0.984 . S
H515 N511 0.985 . S
H516 N510 0.984 . S
H517 N510 0.984 . S
H518 N506 0.984 . S
H519 N506 0.985 . S
C520 C521 1.363 . S
C520 C526 1.379 . S
C520 N528 1.356 . S
C521 C520 1.363 . S
C521 C527 1.363 . S
C522 C523 1.363 . S
C522 C527 1.379 . S
C522 N529 1.356 1_565 S
C523 C522 1.363 . S
C523 C526 1.363 . S
N524 C526 1.356 . S
N524 H536 0.984 . S
N524 H537 0.985 . S
N525 C527 1.356 . S
N525 H530 0.984 . S
N525 H531 0.985 . S
C526 C520 1.379 . S
C526 C523 1.363 . S
C526 N524 1.356 . S
C527 C521 1.363 . S
C527 C522 1.379 . S
C527 N525 1.356 . S
N528 C520 1.356 . S
N528 H534 0.984 . S
N528 H535 0.984 . S
N529 C522 1.356 1_545 S
N529 H532 0.984 . S
N529 H533 0.985 . S
H530 N525 0.984 . S
H531 N525 0.985 . S
H532 N529 0.984 . S
H533 N529 0.985 . S
H534 N528 0.984 . S
H535 N528 0.984 . S
H536 N524 0.984 . S
H537 N524 0.985 . S
C538 C539 1.363 . S
C538 C544 1.379 . S
C538 N546 1.356 . S
C539 C538 1.363 . S
C539 C545 1.363 . S
C540 C541 1.363 . S
C540 C545 1.379 . S
C540 N547 1.356 . S
C541 C540 1.363 . S
C541 C544 1.363 . S
N542 C544 1.356 . S
N542 H554 0.984 . S
N542 H555 0.985 . S
N543 C545 1.356 . S
N543 H548 0.984 . S
N543 H549 0.985 . S
C544 C538 1.379 . S
C544 C541 1.363 . S
C544 N542 1.356 . S
C545 C539 1.363 . S
C545 C540 1.379 . S
C545 N543 1.356 . S
N546 C538 1.356 . S
N546 H552 0.984 . S
N546 H553 0.984 . S
N547 C540 1.356 . S
N547 H550 0.984 . S
N547 H551 0.985 . S
H548 N543 0.984 . S
H549 N543 0.985 . S
H550 N547 0.984 . S
H551 N547 0.985 . S
H552 N546 0.984 . S
H553 N546 0.984 . S
H554 N542 0.984 . S
H555 N542 0.985 . S
C556 C557 1.363 . S
C556 C562 1.379 . S
C556 N564 1.356 . S
C557 C556 1.363 . S
C557 C563 1.363 . S
C558 C559 1.363 . S
C558 C563 1.379 . S
C558 N565 1.356 . S
C559 C558 1.363 . S
C559 C562 1.363 . S
N560 C562 1.356 . S
N560 H572 0.984 . S
N560 H573 0.985 . S
N561 C563 1.356 . S
N561 H566 0.984 . S
N561 H567 0.985 . S
C562 C556 1.379 . S
C562 C559 1.363 . S
C562 N560 1.356 . S
C563 C557 1.363 . S
C563 C558 1.379 . S
C563 N561 1.356 . S
N564 C556 1.356 . S
N564 H570 0.984 . S
N564 H571 0.984 . S
N565 C558 1.356 . S
N565 H568 0.984 . S
N565 H569 0.985 . S
H566 N561 0.984 . S
H567 N561 0.985 . S
H568 N565 0.984 . S
H569 N565 0.985 . S
H570 N564 0.984 . S
H571 N564 0.984 . S
H572 N560 0.984 . S
H573 N560 0.985 . S
C574 C575 1.363 . S
C574 C580 1.379 . S
C574 N582 1.356 . S
C575 C574 1.363 . S
C575 C581 1.363 . S
C576 C577 1.363 . S
C576 C581 1.379 . S
C576 N583 1.356 . S
C577 C576 1.363 . S
C577 C580 1.363 . S
N578 C580 1.356 . S
N578 H590 0.984 . S
N578 H591 0.985 . S
N579 C581 1.356 . S
N579 H584 0.984 . S
N579 H585 0.985 . S
C580 C574 1.379 . S
C580 C577 1.363 . S
C580 N578 1.356 . S
C581 C575 1.363 . S
C581 C576 1.379 . S
C581 N579 1.356 . S
N582 C574 1.356 . S
N582 H588 0.984 . S
N582 H589 0.984 . S
N583 C576 1.356 . S
N583 H586 0.984 . S
N583 H587 0.985 . S
H584 N579 0.984 . S
H585 N579 0.985 . S
H586 N583 0.984 . S
H587 N583 0.985 . S
H588 N582 0.984 . S
H589 N582 0.984 . S
H590 N578 0.984 . S
H591 N578 0.985 . S
C592 C593 1.363 . S
C592 C598 1.379 . S
C592 N600 1.356 . S
C593 C592 1.363 . S
C593 C599 1.363 . S
C594 C595 1.363 . S
C594 C599 1.379 . S
C594 N601 1.356 . S
C595 C594 1.363 . S
C595 C598 1.363 . S
N596 C598 1.356 . S
N596 H608 0.984 . S
N596 H609 0.985 . S
N597 C599 1.356 . S
N597 H602 0.984 . S
N597 H603 0.985 . S
C598 C592 1.379 . S
C598 C595 1.363 . S
C598 N596 1.356 . S
C599 C593 1.363 . S
C599 C594 1.379 . S
C599 N597 1.356 . S
N600 C592 1.356 . S
N600 H606 0.984 . S
N600 H607 0.984 . S
N601 C594 1.356 . S
N601 H604 0.984 . S
N601 H605 0.985 . S
H602 N597 0.984 . S
H603 N597 0.985 . S
H604 N601 0.984 . S
H605 N601 0.985 . S
H606 N600 0.984 . S
H607 N600 0.984 . S
H608 N596 0.984 . S
H609 N596 0.985 . S
C610 C611 1.363 . S
C610 C616 1.379 . S
C610 N618 1.356 . S
C611 C610 1.363 . S
C611 C617 1.363 . S
C612 C613 1.363 . S
C612 C617 1.379 . S
C612 N619 1.356 . S
C613 C612 1.363 . S
C613 C616 1.363 . S
N614 C616 1.356 . S
N614 H626 0.984 . S
N614 H627 0.985 . S
N615 C617 1.356 . S
N615 H620 0.984 . S
N615 H621 0.985 . S
C616 C610 1.379 . S
C616 C613 1.363 . S
C616 N614 1.356 . S
C617 C611 1.363 . S
C617 C612 1.379 . S
C617 N615 1.356 . S
N618 C610 1.356 . S
N618 H624 0.984 . S
N618 H625 0.984 . S
N619 C612 1.356 . S
N619 H622 0.984 . S
N619 H623 0.985 . S
H620 N615 0.984 . S
H621 N615 0.985 . S
H622 N619 0.984 . S
H623 N619 0.985 . S
H624 N618 0.984 . S
H625 N618 0.984 . S
H626 N614 0.984 . S
H627 N614 0.985 . S
C628 C629 1.363 . S
C628 C634 1.379 . S
C628 N636 1.356 . S
C629 C628 1.363 . S
C629 C635 1.363 . S
C630 C631 1.363 . S
C630 C635 1.379 . S
C630 N637 1.356 . S
C631 C630 1.363 . S
C631 C634 1.363 . S
N632 C634 1.356 . S
N632 H644 0.984 . S
N632 H645 0.985 . S
N633 C635 1.356 . S
N633 H638 0.984 . S
N633 H639 0.985 . S
C634 C628 1.379 . S
C634 C631 1.363 . S
C634 N632 1.356 . S
C635 C629 1.363 . S
C635 C630 1.379 . S
C635 N633 1.356 . S
N636 C628 1.356 . S
N636 H642 0.984 . S
N636 H643 0.984 . S
N637 C630 1.356 . S
N637 H640 0.984 . S
N637 H641 0.985 . S
H638 N633 0.984 . S
H639 N633 0.985 . S
H640 N637 0.984 . S
H641 N637 0.985 . S
H642 N636 0.984 . S
H643 N636 0.984 . S
H644 N632 0.984 . S
H645 N632 0.985 . S
C646 C647 1.363 . S
C646 C652 1.379 . S
C646 N654 1.356 . S
C647 C646 1.363 . S
C647 C653 1.363 . S
C648 C649 1.363 . S
C648 C653 1.379 . S
C648 N655 1.356 . S
C649 C648 1.363 . S
C649 C652 1.363 . S
N650 C652 1.356 . S
N650 H662 0.984 . S
N650 H663 0.985 . S
N651 C653 1.356 . S
N651 H656 0.984 . S
N651 H657 0.985 . S
C652 C646 1.379 . S
C652 C649 1.363 . S
C652 N650 1.356 . S
C653 C647 1.363 . S
C653 C648 1.379 . S
C653 N651 1.356 . S
N654 C646 1.356 . S
N654 H660 0.984 . S
N654 H661 0.984 . S
N655 C648 1.356 . S
N655 H658 0.984 . S
N655 H659 0.985 . S
H656 N651 0.984 . S
H657 N651 0.985 . S
H658 N655 0.984 . S
H659 N655 0.985 . S
H660 N654 0.984 . S
H661 N654 0.984 . S
H662 N650 0.984 . S
H663 N650 0.985 . S
C664 C665 1.363 . S
C664 C670 1.379 . S
C664 N672 1.356 . S
C665 C664 1.363 . S
C665 C671 1.363 . S
C666 C667 1.363 . S
C666 C671 1.379 . S
C666 N673 1.356 . S
C667 C666 1.363 . S
C667 C670 1.363 . S
N668 C670 1.356 . S
N668 H680 0.984 . S
N668 H681 0.985 . S
N669 C671 1.356 . S
N669 H674 0.984 . S
N669 H675 0.985 . S
C670 C664 1.379 . S
C670 C667 1.363 . S
C670 N668 1.356 . S
C671 C665 1.363 . S
C671 C666 1.379 . S
C671 N669 1.356 . S
N672 C664 1.356 . S
N672 H678 0.984 . S
N672 H679 0.984 . S
N673 C666 1.356 . S
N673 H676 0.984 . S
N673 H677 0.985 . S
H674 N669 0.984 . S
H675 N669 0.985 . S
H676 N673 0.984 . S
H677 N673 0.985 . S
H678 N672 0.984 . S
H679 N672 0.984 . S
H680 N668 0.984 . S
H681 N668 0.985 . S
C682 C683 1.363 . S
C682 C688 1.379 . S
C682 N690 1.356 . S
C683 C682 1.363 . S
C683 C689 1.363 . S
C684 C685 1.363 . S
C684 C689 1.379 . S
C684 N691 1.356 . S
C685 C684 1.363 . S
C685 C688 1.363 . S
N686 C688 1.356 . S
N686 H698 0.984 . S
N686 H699 0.985 . S
N687 C689 1.356 . S
N687 H692 0.984 . S
N687 H693 0.985 . S
C688 C682 1.379 . S
C688 C685 1.363 . S
C688 N686 1.356 . S
C689 C683 1.363 . S
C689 C684 1.379 . S
C689 N687 1.356 . S
N690 C682 1.356 . S
N690 H696 0.984 . S
N690 H697 0.984 . S
N691 C684 1.356 . S
N691 H694 0.984 . S
N691 H695 0.985 . S
H692 N687 0.984 . S
H693 N687 0.985 . S
H694 N691 0.984 . S
H695 N691 0.985 . S
H696 N690 0.984 . S
H697 N690 0.984 . S
H698 N686 0.984 . S
H699 N686 0.985 . S
C700 C701 1.363 . S
C700 C706 1.379 . S
C700 N708 1.356 . S
C701 C700 1.363 . S
C701 C707 1.363 . S
C702 C703 1.363 . S
C702 C707 1.379 . S
C702 N709 1.356 . S
C703 C702 1.363 . S
C703 C706 1.363 . S
N704 C706 1.356 . S
N704 H716 0.984 . S
N704 H717 0.985 . S
N705 C707 1.356 . S
N705 H710 0.984 . S
N705 H711 0.985 . S
C706 C700 1.379 . S
C706 C703 1.363 . S
C706 N704 1.356 . S
C707 C701 1.363 . S
C707 C702 1.379 . S
C707 N705 1.356 . S
N708 C700 1.356 . S
N708 H714 0.984 . S
N708 H715 0.984 . S
N709 C702 1.356 . S
N709 H712 0.984 . S
N709 H713 0.985 . S
H710 N705 0.984 . S
H711 N705 0.985 . S
H712 N709 0.984 . S
H713 N709 0.985 . S
H714 N708 0.984 . S
H715 N708 0.984 . S
H716 N704 0.984 . S
H717 N704 0.985 . S
C718 C719 1.363 . S
C718 C724 1.379 . S
C718 N726 1.356 . S
C719 C718 1.363 . S
C719 C725 1.363 . S
C720 C721 1.363 . S
C720 C725 1.379 . S
C720 N727 1.356 . S
C721 C720 1.363 . S
C721 C724 1.363 . S
N722 C724 1.356 . S
N722 H734 0.984 . S
N722 H735 0.985 . S
N723 C725 1.356 . S
N723 H728 0.984 . S
N723 H729 0.985 . S
C724 C718 1.379 . S
C724 C721 1.363 . S
C724 N722 1.356 . S
C725 C719 1.363 . S
C725 C720 1.379 . S
C725 N723 1.356 . S
N726 C718 1.356 . S
N726 H732 0.984 . S
N726 H733 0.984 . S
N727 C720 1.356 . S
N727 H730 0.984 . S
N727 H731 0.985 . S
H728 N723 0.984 . S
H729 N723 0.985 . S
H730 N727 0.984 . S
H731 N727 0.985 . S
H732 N726 0.984 . S
H733 N726 0.984 . S
H734 N722 0.984 . S
H735 N722 0.985 . S
C736 C737 1.363 . S
C736 C742 1.379 . S
C736 N744 1.356 . S
C737 C736 1.363 . S
C737 C743 1.363 . S
C738 C739 1.363 . S
C738 C743 1.379 . S
C738 N745 1.356 . S
C739 C738 1.363 . S
C739 C742 1.363 . S
N740 C742 1.356 . S
N740 H752 0.984 . S
N740 H753 0.985 . S
N741 C743 1.356 . S
N741 H746 0.984 . S
N741 H747 0.985 . S
C742 C736 1.379 . S
C742 C739 1.363 . S
C742 N740 1.356 . S
C743 C737 1.363 . S
C743 C738 1.379 . S
C743 N741 1.356 . S
N744 C736 1.356 . S
N744 H750 0.984 . S
N744 H751 0.984 . S
N745 C738 1.356 . S
N745 H748 0.984 . S
N745 H749 0.985 . S
H746 N741 0.984 . S
H747 N741 0.985 . S
H748 N745 0.984 . S
H749 N745 0.985 . S
H750 N744 0.984 . S
H751 N744 0.984 . S
H752 N740 0.984 . S
H753 N740 0.985 . S
C754 C755 1.363 . S
C754 C760 1.379 . S
C754 N762 1.356 . S
C755 C754 1.363 . S
C755 C761 1.363 . S
C756 C757 1.363 . S
C756 C761 1.379 . S
C756 N763 1.356 . S
C757 C756 1.363 . S
C757 C760 1.363 . S
N758 C760 1.356 . S
N758 H770 0.984 . S
N758 H771 0.985 . S
N759 C761 1.356 . S
N759 H764 0.984 . S
N759 H765 0.985 . S
C760 C754 1.379 . S
C760 C757 1.363 . S
C760 N758 1.356 . S
C761 C755 1.363 . S
C761 C756 1.379 . S
C761 N759 1.356 . S
N762 C754 1.356 . S
N762 H768 0.984 . S
N762 H769 0.984 . S
N763 C756 1.356 . S
N763 H766 0.984 . S
N763 H767 0.985 . S
H764 N759 0.984 . S
H765 N759 0.985 . S
H766 N763 0.984 . S
H767 N763 0.985 . S
H768 N762 0.984 . S
H769 N762 0.984 . S
H770 N758 0.984 . S
H771 N758 0.985 . S
C772 C773 1.363 . S
C772 C778 1.379 . S
C772 N780 1.356 . S
C773 C772 1.363 . S
C773 C779 1.363 . S
C774 C775 1.363 . S
C774 C779 1.379 . S
C774 N781 1.356 1_565 S
C775 C774 1.363 . S
C775 C778 1.363 . S
N776 C778 1.356 . S
N776 H788 0.984 . S
N776 H789 0.985 . S
N777 C779 1.356 . S
N777 H782 0.984 . S
N777 H783 0.985 . S
C778 C772 1.379 . S
C778 C775 1.363 . S
C778 N776 1.356 . S
C779 C773 1.363 . S
C779 C774 1.379 . S
C779 N777 1.356 . S
N780 C772 1.356 . S
N780 H786 0.984 . S
N780 H787 0.984 . S
N781 C774 1.356 1_545 S
N781 H784 0.984 . S
N781 H785 0.985 . S
H782 N777 0.984 . S
H783 N777 0.985 . S
H784 N781 0.984 . S
H785 N781 0.985 . S
H786 N780 0.984 . S
H787 N780 0.984 . S
H788 N776 0.984 . S
H789 N776 0.985 . S
C790 C791 1.363 . S
C790 C796 1.379 . S
C790 N798 1.356 . S
C791 C790 1.363 . S
C791 C797 1.363 . S
C792 C793 1.363 . S
C792 C797 1.379 . S
C792 N799 1.356 . S
C793 C792 1.363 . S
C793 C796 1.363 . S
N794 C796 1.356 . S
N794 H806 0.984 . S
N794 H807 0.985 . S
N795 C797 1.356 . S
N795 H800 0.984 . S
N795 H801 0.985 . S
C796 C790 1.379 . S
C796 C793 1.363 . S
C796 N794 1.356 . S
C797 C791 1.363 . S
C797 C792 1.379 . S
C797 N795 1.356 . S
N798 C790 1.356 . S
N798 H804 0.984 . S
N798 H805 0.984 . S
N799 C792 1.356 . S
N799 H802 0.984 . S
N799 H803 0.985 . S
H800 N795 0.984 . S
H801 N795 0.985 . S
H802 N799 0.984 . S
H803 N799 0.985 . S
H804 N798 0.984 . S
H805 N798 0.984 . S
H806 N794 0.984 . S
H807 N794 0.985 . S
C379 C118 1.538 . S
C377 C5 1.401 . S
C397 C157 1.593 . S
C395 C16 1.325 . S
C415 C133 1.676 . S
C413 C30 1.679 . S
C433 C172 1.669 . S
C431 C40 1.619 . S
C451 C220 1.512 . S
C449 C8 1.503 . S
C469 C253 1.517 . S
C467 C18 1.436 . S
C485 C29 1.753 . S
C487 C310 1.782 . S
C505 C358 1.543 . S
C503 C38 1.292 . S
C523 C205 1.493 1_565 S
C521 C19 1.484 . S
C539 C27 1.496 . S
C541 C268 1.616 . S
C559 C325 1.611 . S
C557 C41 1.600 . S
C577 C373 1.554 . S
C575 C7 1.515 . S
C593 C52 1.600 . S
C595 C166 1.615 . S
C613 C109 1.594 . S
C611 C62 1.556 . S
C629 C74 1.480 . S
C631 C181 1.502 . S
C647 C82 1.244 . S
C649 C124 1.426 . S
C667 C301 1.821 . S
C665 C51 1.704 . S
C685 C364 1.609 . S
C683 C60 1.342 . S
C703 C229 1.521 . S
C701 C71 1.248 . S
C719 C84 1.460 . S
C721 C277 1.549 . S
C739 C316 1.682 . S
C737 C63 1.688 . S
C757 C349 1.520 . S
C755 C73 1.454 . S
C775 C214 1.588 1_565 S
C773 C85 1.596 . S
C791 C49 1.325 . S
C793 C262 1.642 . S
