# Generated by pormake.
# Topology rtl, (3,6)-cn, num edge types: 1
# Building blocks:
#     Node 0, Type 0, BuildingBlock: BETDIP_clean_linker_0, # of connection points: 3
#     Node 1, Type 0, BuildingBlock: BETDIP_clean_linker_0, # of connection points: 3
#     Node 2, Type 0, BuildingBlock: BETDIP_clean_linker_0, # of connection points: 3
#     Node 3, Type 0, BuildingBlock: BETDIP_clean_linker_0, # of connection points: 3
#     Node 4, Type 1, BuildingBlock: KUMBOL_clean_sbu_1, # of connection points: 6
#     Node 5, Type 1, BuildingBlock: KUMBOL_clean_sbu_1, # of connection points: 6
#     Edge 6, Type (0, 1), BuildingBlock: OJICUG_clean_linker_0, # of connection points: 2
#     Edge 7, Type (0, 1), BuildingBlock: OJICUG_clean_linker_0, # of connection points: 2
#     Edge 8, Type (0, 1), BuildingBlock: OJICUG_clean_linker_0, # of connection points: 2
#     Edge 9, Type (0, 1), BuildingBlock: OJICUG_clean_linker_0, # of connection points: 2
#     Edge 10, Type (0, 1), BuildingBlock: OJICUG_clean_linker_0, # of connection points: 2
#     Edge 11, Type (0, 1), BuildingBlock: OJICUG_clean_linker_0, # of connection points: 2
#     Edge 12, Type (0, 1), BuildingBlock: OJICUG_clean_linker_0, # of connection points: 2
#     Edge 13, Type (0, 1), BuildingBlock: OJICUG_clean_linker_0, # of connection points: 2
#     Edge 14, Type (0, 1), BuildingBlock: OJICUG_clean_linker_0, # of connection points: 2
#     Edge 15, Type (0, 1), BuildingBlock: OJICUG_clean_linker_0, # of connection points: 2
#     Edge 16, Type (0, 1), BuildingBlock: OJICUG_clean_linker_0, # of connection points: 2
#     Edge 17, Type (0, 1), BuildingBlock: OJICUG_clean_linker_0, # of connection points: 2
# Relax obj value: 0.054
# Max RMSD: 0.240
# Mean RMSD: 0.172
data_MOF--net-rtl--node1-KUMBOL_clean_sbu_1--node2-BETDIP_clean_linker_0--edge1-OJICUG_clean_linker_0
_symmetry_space_group_name_H-M    P1
_symmetry_Int_Tables_number       1
_symmetry_cell_setting            triclinic
loop_
_symmetry_equiv_pos_as_xyz
'x, y, z'
_cell_length_a     25.949851
_cell_length_b     26.40136
_cell_length_c     20.60544
_cell_angle_alpha  74.143552
_cell_angle_beta   99.75286
_cell_angle_gamma 92.456067
loop_
_atom_site_label
_atom_site_type_symbol
_atom_site_fract_x
_atom_site_fract_y
_atom_site_fract_z
_atom_type_partial_charge
H0 H 0.22618 0.82891 0.90284 0.0
H1 H 0.256 0.81613 0.11924 0.0
H2 H 0.14863 0.93263 0.9829 0.0
H3 H 0.32467 0.76826 0.12091 0.0
C4 C 0.3201 0.75424 0.07546 0.0
C5 C 0.21979 0.84246 0.94602 0.0
C6 C 0.18525 0.88418 0.93579 0.0
C7 C 0.24678 0.81842 0.01143 0.0
C8 C 0.23722 0.83529 0.06786 0.0
C9 C 0.20221 0.87718 0.0577 0.0
C10 C 0.17701 0.90153 0.9913 0.0
N11 N 0.28223 0.77713 0.01751 0.0
H12 H 0.73287 0.7267 0.79588 0.0
H13 H 0.72206 0.72122 0.58651 0.0
H14 H 0.6394 0.60872 0.7233 0.0
H15 H 0.8015 0.75289 0.59612 0.0
C16 C 0.80163 0.78052 0.62666 0.0
C17 C 0.71783 0.70894 0.75491 0.0
C18 C 0.68371 0.66563 0.76673 0.0
C19 C 0.73401 0.72803 0.69064 0.0
C20 C 0.71298 0.7052 0.63743 0.0
C21 C 0.67901 0.66207 0.64893 0.0
C22 C 0.66507 0.64252 0.71372 0.0
N23 N 0.77124 0.76978 0.68051 0.0
H24 H 0.77144 0.20927 0.99168 0.0
H25 H 0.80119 0.2022 0.20651 0.0
H26 H 0.88665 0.10207 0.13082 0.0
H27 H 0.71694 0.22737 0.18532 0.0
C28 C 0.71296 0.25586 0.13549 0.0
C29 C 0.79201 0.19225 0.04299 0.0
C30 C 0.83001 0.1529 0.05467 0.0
C31 C 0.77976 0.20906 0.09774 0.0
C32 C 0.80792 0.18808 0.16403 0.0
C33 C 0.84568 0.14886 0.17579 0.0
C34 C 0.8561 0.13124 0.12138 0.0
N35 N 0.74008 0.24788 0.08453 0.0
H36 H 0.33631 0.30655 0.36707 0.0
H37 H 0.30299 0.32736 0.55601 0.0
H38 H 0.41175 0.42986 0.44807 0.0
H39 H 0.2869 0.24121 0.57868 0.0
C40 C 0.26658 0.23624 0.53024 0.0
C41 C 0.34303 0.32681 0.40694 0.0
C42 C 0.37752 0.36976 0.4015 0.0
C43 C 0.3172 0.30982 0.46373 0.0
C44 C 0.32453 0.33797 0.51368 0.0
C45 C 0.35884 0.38099 0.5088 0.0
C46 C 0.38593 0.39609 0.45306 0.0
N47 N 0.28252 0.26599 0.46807 0.0
C48 C 0.93286 0.1782 0.48018 0.0
C49 C 0.84688 0.15774 0.42604 0.0
C50 C 0.8932 0.14188 0.47334 0.0
C51 C 0.8412 0.21011 0.38565 0.0
C52 C 0.9273 0.23077 0.43954 0.0
C53 C 0.88127 0.2465 0.3924 0.0
N54 N 0.97775 0.16158 0.52453 0.0
C55 C 0.01788 0.1956 0.5324 0.0
C56 C 0.96859 0.26579 0.4467 0.0
C57 C 1.014 0.24814 0.49348 0.0
Gd58 Gd 0.06008 0.97172 0.52332 0.0
Gd59 Gd 0.9807 0.07295 0.58693 0.0
N60 N 0.90049 0.09089 0.51146 0.0
C61 C 0.8077 0.12042 0.42038 0.0
C62 C 0.86105 0.05523 0.50884 0.0
C63 C 0.81459 0.06914 0.46255 0.0
H64 H 0.86419 0.01637 0.54319 0.0
H65 H 0.78382 0.0404 0.46006 0.0
H66 H 0.17768 0.03327 0.54195 0.0
H67 H 0.0526 0.18244 0.56946 0.0
H68 H 0.26051 0.01984 0.62186 0.0
H69 H 0.77167 0.13101 0.38449 0.0
H70 H 0.80604 0.22282 0.34878 0.0
H71 H 0.99752 0.85701 0.55569 0.0
H72 H 0.96583 0.30648 0.41635 0.0
H73 H 0.04598 0.27502 0.49968 0.0
H74 H 0.24809 0.84417 0.76391 0.0
H75 H 0.8764 0.28667 0.36056 0.0
H76 H 0.09349 0.74573 0.71654 0.0
H77 H 1.01091 0.76764 0.63455 0.0
N78 N 0.0707 0.88545 0.5941 0.0
C79 C 0.11696 0.8739 0.6373 0.0
C80 C 0.03318 0.84792 0.59199 0.0
C81 C 0.0877 0.78496 0.68211 0.0
C82 C 0.04095 0.79722 0.63611 0.0
C83 C 0.1265 0.8234 0.68305 0.0
H84 H 0.18169 0.77478 0.76485 0.0
N85 N 0.14349 0.96186 0.59266 0.0
C86 C 0.15408 0.91342 0.63727 0.0
C87 C 0.23998 0.94242 0.67834 0.0
C88 C 0.20221 0.90279 0.68224 0.0
C89 C 0.18235 0.99843 0.58411 0.0
C90 C 0.23042 0.99003 0.62799 0.0
O91 O 0.98949 0.09192 0.4756 0.0
O92 O 0.98835 0.01146 0.45325 0.0
O93 O 0.1104 0.98248 0.44663 0.0
O94 O 0.05865 0.91574 0.46284 0.0
O95 O 0.95146 0.98855 0.60523 0.0
O96 O 0.97314 0.95688 0.51865 0.0
O97 O 0.0483 0.95121 0.63346 0.0
O98 O 0.05153 0.03116 0.6572 0.0
O99 O 0.9275 0.0595 0.66046 0.0
O100 O 0.98014 0.12575 0.65126 0.0
O101 O 0.08656 0.05755 0.50383 0.0
O102 O 0.06789 0.08356 0.59576 0.0
C103 C 0.97643 0.06171 0.43461 0.0
C104 C 0.94534 0.95488 0.56742 0.0
C105 C 0.0778 0.95108 0.35184 0.0
C106 C 0.09973 0.94475 0.24415 0.0
C107 C 0.02096 0.99098 0.2452 0.0
C108 C 0.03261 0.97977 0.31629 0.0
C109 C 0.0545 0.97391 0.20914 0.0
C110 C 0.111 0.93302 0.31574 0.0
C111 C 0.09202 0.94189 0.42604 0.0
C112 C 0.21156 0.85279 0.72858 0.0
C113 C 0.17385 0.81318 0.72891 0.0
H114 H 0.27741 0.93585 0.71196 0.0
C115 C 0.06109 0.9804 0.67569 0.0
C116 C 0.09495 0.08801 0.54591 0.0
C117 C 0.95853 0.08565 0.75983 0.0
C118 C 0.93508 0.08724 0.86865 0.0
C119 C 1.01393 0.0418 0.86597 0.0
C120 C 1.00328 0.05594 0.79471 0.0
C121 C 0.97993 0.05709 0.9029 0.0
C122 C 0.92475 0.10172 0.79686 0.0
C123 C 0.9457 0.09834 0.68513 0.0
H124 H 0.9861 0.01326 0.21799 0.0
H125 H 1.00665 0.99382 0.34335 0.0
H126 H 0.04496 0.98313 0.1539 0.0
H127 H 0.14613 0.9111 0.34305 0.0
H128 H 0.0485 0.01881 0.89261 0.0
H129 H 0.02977 0.04349 0.76696 0.0
H130 H 0.98896 0.0459 0.95824 0.0
H131 H 0.89 0.12448 0.76997 0.0
C132 C 0.68845 0.56986 0.09087 0.0
C133 C 0.69025 0.66458 0.0425 0.0
C134 C 0.66478 0.61874 0.07487 0.0
C135 C 0.73906 0.66021 0.02366 0.0
C136 C 0.73854 0.56559 0.07484 0.0
C137 C 0.76309 0.6108 0.03963 0.0
N138 N 0.66379 0.52702 0.12545 0.0
C139 C 0.68989 0.48018 0.15252 0.0
C140 C 0.76319 0.51632 0.09675 0.0
C141 C 0.73918 0.47367 0.137 0.0
Gd142 Gd 0.47264 0.49373 1.00463 0.0
Gd143 Gd 0.57903 0.5418 0.14386 0.0
N144 N 0.61686 0.6215 0.09172 0.0
C145 C 0.66597 0.71341 0.03054 0.0
C146 C 0.59406 0.66902 0.08342 0.0
C147 C 0.61797 0.71566 0.05191 0.0
H148 H 0.55684 0.67054 0.09978 0.0
H149 H 0.59933 0.75326 0.04393 0.0
H150 H 0.52683 0.38554 0.98485 0.0
H151 H 0.67332 0.44782 0.18714 0.0
H152 H 0.51728 0.28917 0.02295 0.0
H153 H 0.68428 0.74956 0.00578 0.0
H154 H 0.75894 0.69488 0.9978 0.0
H155 H 0.36005 0.54489 0.01286 0.0
H156 H 0.80164 0.51134 0.08543 0.0
H157 H 0.75898 0.43599 0.15708 0.0
H158 H 0.36103 0.26474 0.12351 0.0
H159 H 0.8013 0.60816 0.02618 0.0
H160 H 0.26221 0.41942 0.10312 0.0
H161 H 0.27667 0.51459 0.0541 0.0
N162 N 0.39212 0.46788 0.04001 0.0
C163 C 0.38377 0.41543 0.06278 0.0
C164 C 0.35373 0.50339 0.03416 0.0
C165 C 0.29865 0.43255 0.08504 0.0
C166 C 0.30663 0.48632 0.05734 0.0
C167 C 0.33715 0.39626 0.08711 0.0
H168 H 0.29468 0.32612 0.13051 0.0
N169 N 0.4637 0.40139 0.03037 0.0
C170 C 0.42117 0.38108 0.05882 0.0
C171 C 0.44904 0.29286 0.06827 0.0
C172 C 0.41287 0.32627 0.07912 0.0
C173 C 0.49634 0.36922 0.01408 0.0
C174 C 0.4904 0.31452 0.03437 0.0
O175 O 0.56221 0.58591 0.03143 0.0
O176 O 0.55224 0.51998 0.97943 0.0
O177 O 0.44046 0.46926 0.91247 0.0
O178 O 0.44057 0.55234 0.91166 0.0
O179 O 0.49862 0.57669 0.12592 0.0
O180 O 0.45945 0.57556 0.01589 0.0
O181 O 0.45346 0.48678 0.11041 0.0
O182 O 0.53216 0.46852 0.18252 0.0
O183 O 0.56241 0.57918 0.21935 0.0
O184 O 0.63438 0.53572 0.23756 0.0
O185 O 0.55476 0.4592 0.03062 0.0
O186 O 0.58085 0.4559 0.14434 0.0
C187 C 0.57204 0.5656 0.98365 0.0
C188 C 0.46414 0.59428 0.07004 0.0
C189 C 0.4029 0.53226 0.80517 0.0
C190 C 0.37479 0.51128 0.69607 0.0
C191 C 0.35288 0.59598 0.70952 0.0
C192 C 0.37884 0.58188 0.77696 0.0
C193 C 0.35055 0.56088 0.66938 0.0
C194 C 0.40121 0.49713 0.76412 0.0
C195 C 0.42847 0.51746 0.87755 0.0
C196 C 0.3678 0.30674 0.10693 0.0
C197 C 0.32996 0.34169 0.11082 0.0
H198 H 0.44414 0.25051 0.08319 0.0
C199 C 0.48098 0.46394 0.17029 0.0
C200 C 0.58059 0.43648 0.09182 0.0
C201 C 0.59739 0.5388 0.33314 0.0
C202 C 0.6056 0.54786 0.4487 0.0
C203 C 0.56111 0.4721 0.41965 0.0
C204 C 0.57073 0.49121 0.35259 0.0
C205 C 0.5782 0.50037 0.46756 0.0
C206 C 0.61502 0.56677 0.38121 0.0
C207 C 0.6046 0.56159 0.2622 0.0
H208 H 0.33425 0.6342 0.68838 0.0
H209 H 0.37951 0.60964 0.8073 0.0
H210 H 0.33012 0.57261 0.61714 0.0
H211 H 0.4196 0.45872 0.78518 0.0
H212 H 0.5402 0.43548 0.43442 0.0
H213 H 0.55713 0.46936 0.31574 0.0
H214 H 0.57055 0.48492 0.5194 0.0
H215 H 0.63499 0.60397 0.36558 0.0
C216 C 0.1987 0.18316 0.47381 0.0
C217 C 0.22249 0.19854 0.53199 0.0
H218 H 0.13965 0.13555 0.43266 0.0
C219 C 0.20394 0.17753 0.59398 0.0
H220 H 0.21228 0.19863 0.42534 0.0
C221 C 0.16227 0.1422 0.59798 0.0
C222 C 0.13849 0.12643 0.54018 0.0
H223 H 0.22161 0.18868 0.63961 0.0
H224 H 0.14913 0.12668 0.64677 0.0
C225 C 0.15725 0.14704 0.47803 0.0
C226 C 0.39476 0.69259 0.12985 0.0
C227 C 0.35657 0.71344 0.0729 0.0
H228 H 0.45856 0.63906 0.1737 0.0
C229 C 0.35409 0.69538 0.01421 0.0
H230 H 0.39756 0.70589 0.17563 0.0
C231 C 0.38921 0.65702 0.01276 0.0
C232 C 0.4274 0.63588 0.07003 0.0
H233 H 0.3251 0.71079 0.9693 0.0
H234 H 0.38626 0.64391 0.96685 0.0
C235 C 0.42977 0.6543 0.12851 0.0
C236 C 0.84775 0.85984 0.65543 0.0
C237 C 0.83588 0.8272 0.6114 0.0
H238 H 0.89198 0.92571 0.67633 0.0
C239 C 0.85817 0.83835 0.55152 0.0
H240 H 0.83106 0.85224 0.70191 0.0
C241 C 0.89236 0.88065 0.5363 0.0
C242 C 0.90595 0.91235 0.5813 0.0
H243 H 0.84933 0.81403 0.51638 0.0
H244 H 0.90878 0.88791 0.48966 0.0
C245 C 0.88261 0.90195 0.64062 0.0
C246 C 0.65517 0.30918 0.17601 0.0
C247 C 0.67813 0.30172 0.12234 0.0
H248 H 0.60615 0.35764 0.20827 0.0
C249 C 0.66794 0.33835 0.05777 0.0
H250 H 0.66242 0.28149 0.22626 0.0
C251 C 0.63552 0.38186 0.04738 0.0
C252 C 0.61309 0.38957 0.10146 0.0
H253 H 0.68513 0.33362 0.01541 0.0
H254 H 0.62874 0.40994 0.99741 0.0
C255 C 0.6231 0.35274 0.16577 0.0
C256 C 0.17189 0.85713 0.17151 0.0
C257 C 0.18769 0.89415 0.1152 0.0
H258 H 0.13132 0.8445 0.25726 0.0
C259 C 0.18095 0.94809 0.10808 0.0
H260 H 0.17626 0.81534 0.17801 0.0
C261 C 0.15438 0.96452 0.15215 0.0
C262 C 0.13501 0.92742 0.20512 0.0
H263 H 0.19352 0.97755 0.06581 0.0
H264 H 0.14716 1.00618 0.14324 0.0
C265 C 0.14588 0.87374 0.21644 0.0
C266 C 0.63462 0.67304 0.85848 0.0
C267 C 0.66564 0.64307 0.83308 0.0
H268 H 0.57959 0.67151 0.92608 0.0
C269 C 0.66984 0.58843 0.86293 0.0
H270 H 0.63024 0.71508 0.83569 0.0
C271 C 0.64038 0.56359 0.91326 0.0
C272 C 0.60671 0.59299 0.93546 0.0
H273 H 0.69354 0.5645 0.84416 0.0
H274 H 0.64289 0.52117 0.93354 0.0
C275 C 0.60528 0.64808 0.90944 0.0
C276 C 0.87753 0.0726 0.27429 0.0
C277 C 0.87653 0.12714 0.2441 0.0
H278 H 0.90969 0.0091 0.35892 0.0
C279 C 0.9089 0.16006 0.27623 0.0
H280 H 0.85307 0.04657 0.24979 0.0
C281 C 0.94245 0.13857 0.33739 0.0
C282 C 0.94312 0.08403 0.36817 0.0
H283 H 0.90936 0.20214 0.25299 0.0
H284 H 0.96806 0.16463 0.36041 0.0
C285 C 0.91029 0.05123 0.33611 0.0
C286 C 0.31837 0.43022 0.57545 0.0
C287 C 0.36359 0.41212 0.55965 0.0
H288 H 0.28673 0.47588 0.63097 0.0
C289 C 0.41284 0.42494 0.59151 0.0
H290 H 0.27995 0.4213 0.55125 0.0
C291 C 0.41667 0.45552 0.63809 0.0
C292 C 0.37133 0.47466 0.65233 0.0
H293 H 0.44829 0.41133 0.58033 0.0
H294 H 0.45497 0.46556 0.66137 0.0
C295 C 0.32222 0.4615 0.62084 0.0
C296 C 0.60755 0.61693 0.58746 0.0
C297 C 0.65921 0.63577 0.59451 0.0
H298 H 0.55028 0.57406 0.53609 0.0
C299 C 0.69265 0.62645 0.55201 0.0
H300 H 0.5805 0.62426 0.61857 0.0
C301 C 0.67511 0.59811 0.50443 0.0
C302 C 0.62393 0.57822 0.49875 0.0
H303 H 0.73284 0.63973 0.55682 0.0
H304 H 0.70196 0.59072 0.47308 0.0
C305 C 0.59021 0.58815 0.54038 0.0
C306 C 0.85572 0.08195 0.00741 0.0
C307 C 0.84596 0.13564 0.99831 0.0
H308 H 0.89185 0.02472 0.97336 0.0
C309 C 0.85943 0.1727 0.94047 0.0
H310 H 0.84496 0.05244 0.05095 0.0
C311 C 0.88599 0.15665 0.89566 0.0
C312 C 0.89965 0.10346 0.90849 0.0
H313 H 0.85266 0.21432 0.93245 0.0
H314 H 0.89867 0.18616 0.85354 0.0
C315 C 0.88264 0.06608 0.96327 0.0
C316 C 0.37569 0.42523 0.28192 0.0
C317 C 0.4026 0.38968 0.34017 0.0
H318 H 0.37982 0.47756 0.18333 0.0
C319 C 0.45465 0.37666 0.34132 0.0
H320 H 0.33565 0.43616 0.28041 0.0
C321 C 0.47968 0.39949 0.28518 0.0
C322 C 0.45339 0.43654 0.22754 0.0
H323 H 0.47612 0.34949 0.38605 0.0
H324 H 0.5199 0.38882 0.28739 0.0
C325 C 0.40092 0.44863 0.22628 0.0
C326 C 0.15802 0.963 0.8388 0.0
C327 C 0.15525 0.9085 0.86786 0.0
H328 H 0.13044 0.02864 0.75426 0.0
C329 C 0.12048 0.87804 0.83457 0.0
H330 H 0.18437 0.98714 0.86431 0.0
C331 C 0.08859 0.90187 0.77301 0.0
C332 C 0.09204 0.95622 0.74302 0.0
H333 H 0.11712 0.83608 0.85701 0.0
H334 H 0.06124 0.87774 0.74882 0.0
C335 C 0.12687 0.98669 0.7765 0.0
loop_
_geom_bond_atom_site_label_1
_geom_bond_atom_site_label_2
_geom_bond_distance
_geom_bond_site_symmetry_2
_ccdc_geom_bond_type
H0 C5 0.930 . S
H1 C8 0.930 . S
H2 C10 0.930 . S
H3 C4 1.016 . S
C4 H3 1.016 . S
C4 N11 1.286 . S
C5 H0 0.930 . S
C5 C6 1.397 . S
C5 C7 1.361 1_556 S
C6 C5 1.397 . S
C6 C10 1.390 1_556 S
C7 C5 1.361 1_554 S
C7 C8 1.393 . S
C7 N11 1.413 . S
C8 H1 0.930 . S
C8 C7 1.393 . S
C8 C9 1.399 . S
C9 C8 1.399 . S
C9 C10 1.381 . S
C10 H2 0.930 . S
C10 C6 1.390 1_554 S
C10 C9 1.381 . S
N11 C4 1.286 . S
N11 C7 1.413 . S
H12 C17 0.930 . S
H13 C20 0.930 . S
H14 C22 0.930 . S
H15 C16 1.016 . S
C16 H15 1.016 . S
C16 N23 1.286 . S
C17 H12 0.930 . S
C17 C18 1.397 . S
C17 C19 1.361 . S
C18 C17 1.397 . S
C18 C22 1.390 . S
C19 C17 1.361 . S
C19 C20 1.393 . S
C19 N23 1.413 . S
C20 H13 0.930 . S
C20 C19 1.393 . S
C20 C21 1.399 . S
C21 C20 1.399 . S
C21 C22 1.381 . S
C22 H14 0.930 . S
C22 C18 1.390 . S
C22 C21 1.381 . S
N23 C16 1.286 . S
N23 C19 1.413 . S
H24 C29 0.930 1_556 S
H25 C32 0.930 . S
H26 C34 0.930 . S
H27 C28 1.016 . S
C28 H27 1.016 . S
C28 N35 1.286 . S
C29 H24 0.930 1_554 S
C29 C30 1.397 . S
C29 C31 1.361 . S
C30 C29 1.397 . S
C30 C34 1.390 . S
C31 C29 1.361 . S
C31 C32 1.393 . S
C31 N35 1.413 . S
C32 H25 0.930 . S
C32 C31 1.393 . S
C32 C33 1.399 . S
C33 C32 1.399 . S
C33 C34 1.381 . S
C34 H26 0.930 . S
C34 C30 1.390 . S
C34 C33 1.381 . S
N35 C28 1.286 . S
N35 C31 1.413 . S
H36 C41 0.930 . S
H37 C44 0.930 . S
H38 C46 0.930 . S
H39 C40 1.016 . S
C40 H39 1.016 . S
C40 N47 1.286 . S
C41 H36 0.930 . S
C41 C42 1.397 . S
C41 C43 1.361 . S
C42 C41 1.397 . S
C42 C46 1.390 . S
C43 C41 1.361 . S
C43 C44 1.393 . S
C43 N47 1.413 . S
C44 H37 0.930 . S
C44 C43 1.393 . S
C44 C45 1.399 . S
C45 C44 1.399 . S
C45 C46 1.381 . S
C46 H38 0.930 . S
C46 C42 1.390 . S
C46 C45 1.381 . S
N47 C40 1.286 . S
N47 C43 1.413 . S
C48 C50 1.422 . S
C48 C52 1.415 . S
C48 N54 1.369 . S
C49 C50 1.421 . S
C49 C51 1.417 . S
C49 C61 1.422 . S
C50 C48 1.422 . S
C50 C49 1.421 . S
C50 N60 1.359 . S
C51 C49 1.417 . S
C51 C53 1.329 . S
C51 H70 0.930 . S
C52 C48 1.415 . S
C52 C53 1.437 . S
C52 C56 1.413 . S
C53 C51 1.329 . S
C53 C52 1.437 . S
C53 H75 0.929 . S
N54 C48 1.369 . S
N54 C55 1.338 1_655 S
N54 Gd59 2.622 . S
C55 N54 1.338 1_455 S
C55 C57 1.378 . S
C55 H67 0.929 . S
C56 C52 1.413 . S
C56 C57 1.348 1_655 S
C56 H72 0.931 . S
C57 C55 1.378 . S
C57 C56 1.348 1_455 S
C57 H73 0.930 . S
Gd58 N78 2.622 . S
Gd58 N85 2.570 . S
Gd58 O92 2.353 1_465 S
Gd58 O93 2.468 . S
Gd58 O94 2.427 . S
Gd58 O96 2.388 1_455 S
Gd58 O97 2.386 . S
Gd58 O101 2.307 1_565 S
Gd58 C111 2.805 . S
Gd59 N54 2.622 . S
Gd59 N60 2.570 . S
Gd59 O91 2.386 . S
Gd59 O95 2.307 1_545 S
Gd59 O98 2.353 1_655 S
Gd59 O99 2.468 . S
Gd59 O100 2.427 . S
Gd59 O102 2.388 1_655 S
Gd59 C123 2.805 . S
N60 C50 1.359 . S
N60 Gd59 2.570 . S
N60 C62 1.343 . S
C61 C49 1.422 . S
C61 C63 1.321 . S
C61 H69 0.931 . S
C62 N60 1.343 . S
C62 C63 1.390 . S
C62 H64 0.931 . S
C63 C61 1.321 . S
C63 C62 1.390 . S
C63 H65 0.930 . S
H64 C62 0.931 . S
H65 C63 0.930 . S
H66 C89 0.931 . S
H67 C55 0.929 . S
H68 C90 0.930 . S
H69 C61 0.931 . S
H70 C51 0.930 . S
H71 C80 0.929 1_655 S
H72 C56 0.931 . S
H73 C57 0.930 . S
H74 C112 0.930 . S
H75 C53 0.929 . S
H76 C81 0.931 . S
H77 C82 0.930 1_655 S
N78 Gd58 2.622 . S
N78 C79 1.369 . S
N78 C80 1.338 . S
C79 N78 1.369 . S
C79 C83 1.415 . S
C79 C86 1.422 . S
C80 H71 0.929 1_455 S
C80 N78 1.338 . S
C80 C82 1.378 . S
C81 H76 0.931 . S
C81 C82 1.348 . S
C81 C83 1.413 . S
C82 H77 0.930 1_455 S
C82 C80 1.378 . S
C82 C81 1.348 . S
C83 C79 1.415 . S
C83 C81 1.413 . S
C83 C113 1.437 . S
H84 C113 0.929 . S
N85 Gd58 2.570 . S
N85 C86 1.359 . S
N85 C89 1.343 . S
C86 C79 1.422 . S
C86 N85 1.359 . S
C86 C88 1.421 . S
C87 C88 1.422 . S
C87 C90 1.321 . S
C87 H114 0.931 . S
C88 C86 1.421 . S
C88 C87 1.422 . S
C88 C112 1.417 . S
C89 H66 0.931 . S
C89 N85 1.343 . S
C89 C90 1.390 . S
C90 H68 0.930 . S
C90 C87 1.321 . S
C90 C89 1.390 . S
O91 Gd59 2.386 . S
O91 C103 1.265 . S
O92 Gd58 2.353 1_645 S
O92 C103 1.242 . S
O93 Gd58 2.468 . S
O93 C111 1.263 . S
O94 Gd58 2.427 . S
O94 C111 1.252 . S
O95 Gd59 2.307 1_565 S
O95 C104 1.261 . S
O96 Gd58 2.388 1_655 S
O96 C104 1.252 . S
O97 Gd58 2.386 . S
O97 C115 1.265 . S
O98 Gd59 2.353 1_455 S
O98 C115 1.242 1_545 S
O99 Gd59 2.468 . S
O99 C123 1.263 . S
O100 Gd59 2.427 . S
O100 C123 1.252 . S
O101 Gd58 2.307 1_545 S
O101 C116 1.261 . S
O102 Gd59 2.388 1_455 S
O102 C116 1.252 . S
C103 O91 1.265 . S
C103 O92 1.242 . S
C104 O95 1.261 . S
C104 O96 1.252 . S
C105 C108 1.394 . S
C105 C110 1.370 . S
C105 C111 1.500 . S
C106 C109 1.383 . S
C106 C110 1.395 . S
C107 C108 1.396 . S
C107 C109 1.365 . S
C107 H124 0.929 . S
C108 C105 1.394 . S
C108 C107 1.396 . S
C108 H125 0.930 . S
C109 C106 1.383 . S
C109 C107 1.365 . S
C109 H126 0.931 . S
C110 C105 1.370 . S
C110 C106 1.395 . S
C110 H127 0.930 . S
C111 Gd58 2.805 . S
C111 O93 1.263 . S
C111 O94 1.252 . S
C111 C105 1.500 . S
C112 H74 0.930 . S
C112 C88 1.417 . S
C112 C113 1.329 . S
C113 C83 1.437 . S
C113 H84 0.929 . S
C113 C112 1.329 . S
H114 C87 0.931 . S
C115 O97 1.265 . S
C115 O98 1.242 1_565 S
C116 O101 1.261 . S
C116 O102 1.252 . S
C117 C120 1.394 . S
C117 C122 1.370 . S
C117 C123 1.500 . S
C118 C121 1.383 . S
C118 C122 1.395 . S
C119 C120 1.396 . S
C119 C121 1.365 . S
C119 H128 0.929 . S
C120 C117 1.394 . S
C120 C119 1.396 . S
C120 H129 0.930 . S
C121 C118 1.383 . S
C121 C119 1.365 . S
C121 H130 0.931 . S
C122 C117 1.370 . S
C122 C118 1.395 . S
C122 H131 0.930 . S
C123 Gd59 2.805 . S
C123 O99 1.263 . S
C123 O100 1.252 . S
C123 C117 1.500 . S
H124 C107 0.929 . S
H125 C108 0.930 . S
H126 C109 0.931 . S
H127 C110 0.930 . S
H128 C119 0.929 . S
H129 C120 0.930 . S
H130 C121 0.931 . S
H131 C122 0.930 . S
C132 C134 1.422 . S
C132 C136 1.415 . S
C132 N138 1.369 . S
C133 C134 1.421 . S
C133 C135 1.417 . S
C133 C145 1.422 . S
C134 C132 1.422 . S
C134 C133 1.421 . S
C134 N144 1.359 . S
C135 C133 1.417 . S
C135 C137 1.329 . S
C135 H154 0.930 . S
C136 C132 1.415 . S
C136 C137 1.437 . S
C136 C140 1.413 . S
C137 C135 1.329 . S
C137 C136 1.437 . S
C137 H159 0.929 . S
N138 C132 1.369 . S
N138 C139 1.338 . S
N138 Gd143 2.622 . S
C139 N138 1.338 . S
C139 C141 1.378 . S
C139 H151 0.929 . S
C140 C136 1.413 . S
C140 C141 1.348 . S
C140 H156 0.931 . S
C141 C139 1.378 . S
C141 C140 1.348 . S
C141 H157 0.930 . S
Gd142 N162 2.622 . S
Gd142 N169 2.570 . S
Gd142 O176 2.353 1_554 S
Gd142 O177 2.468 1_554 S
Gd142 O178 2.427 1_554 S
Gd142 O180 2.388 . S
Gd142 O181 2.386 . S
Gd142 O185 2.307 . S
Gd142 C195 2.805 1_554 S
Gd143 N138 2.622 . S
Gd143 N144 2.570 . S
Gd143 O175 2.386 . S
Gd143 O179 2.307 . S
Gd143 O182 2.353 . S
Gd143 O183 2.468 . S
Gd143 O184 2.427 . S
Gd143 O186 2.388 . S
Gd143 C207 2.805 . S
N144 C134 1.359 . S
N144 Gd143 2.570 . S
N144 C146 1.343 . S
C145 C133 1.422 . S
C145 C147 1.321 . S
C145 H153 0.931 . S
C146 N144 1.343 . S
C146 C147 1.390 . S
C146 H148 0.931 . S
C147 C145 1.321 . S
C147 C146 1.390 . S
C147 H149 0.930 . S
H148 C146 0.931 . S
H149 C147 0.930 . S
H150 C173 0.931 . S
H151 C139 0.929 . S
H152 C174 0.930 . S
H153 C145 0.931 . S
H154 C135 0.930 . S
H155 C164 0.929 . S
H156 C140 0.931 . S
H157 C141 0.930 . S
H158 C196 0.930 . S
H159 C137 0.929 . S
H160 C165 0.931 . S
H161 C166 0.930 . S
N162 Gd142 2.622 . S
N162 C163 1.369 . S
N162 C164 1.338 1_554 S
C163 N162 1.369 . S
C163 C167 1.415 . S
C163 C170 1.422 . S
C164 H155 0.929 . S
C164 N162 1.338 1_556 S
C164 C166 1.378 . S
C165 H160 0.931 . S
C165 C166 1.348 1_554 S
C165 C167 1.413 . S
C166 H161 0.930 . S
C166 C164 1.378 . S
C166 C165 1.348 1_556 S
C167 C163 1.415 . S
C167 C165 1.413 . S
C167 C197 1.437 . S
H168 C197 0.929 . S
N169 Gd142 2.570 . S
N169 C170 1.359 . S
N169 C173 1.343 . S
C170 C163 1.422 . S
C170 N169 1.359 . S
C170 C172 1.421 . S
C171 C172 1.422 . S
C171 C174 1.321 . S
C171 H198 0.931 . S
C172 C170 1.421 . S
C172 C171 1.422 . S
C172 C196 1.417 . S
C173 H150 0.931 . S
C173 N169 1.343 . S
C173 C174 1.390 . S
C174 H152 0.930 . S
C174 C171 1.321 . S
C174 C173 1.390 . S
O175 Gd143 2.386 . S
O175 C187 1.265 1_554 S
O176 Gd142 2.353 1_556 S
O176 C187 1.242 . S
O177 Gd142 2.468 1_556 S
O177 C195 1.263 . S
O178 Gd142 2.427 1_556 S
O178 C195 1.252 . S
O179 Gd143 2.307 . S
O179 C188 1.261 . S
O180 Gd142 2.388 . S
O180 C188 1.252 . S
O181 Gd142 2.386 . S
O181 C199 1.265 . S
O182 Gd143 2.353 . S
O182 C199 1.242 . S
O183 Gd143 2.468 . S
O183 C207 1.263 . S
O184 Gd143 2.427 . S
O184 C207 1.252 . S
O185 Gd142 2.307 . S
O185 C200 1.261 . S
O186 Gd143 2.388 . S
O186 C200 1.252 . S
C187 O175 1.265 1_556 S
C187 O176 1.242 . S
C188 O179 1.261 . S
C188 O180 1.252 . S
C189 C192 1.394 . S
C189 C194 1.370 . S
C189 C195 1.500 . S
C190 C193 1.383 . S
C190 C194 1.395 . S
C191 C192 1.396 . S
C191 C193 1.365 . S
C191 H208 0.929 . S
C192 C189 1.394 . S
C192 C191 1.396 . S
C192 H209 0.930 . S
C193 C190 1.383 . S
C193 C191 1.365 . S
C193 H210 0.931 . S
C194 C189 1.370 . S
C194 C190 1.395 . S
C194 H211 0.930 . S
C195 Gd142 2.805 1_556 S
C195 O177 1.263 . S
C195 O178 1.252 . S
C195 C189 1.500 . S
C196 H158 0.930 . S
C196 C172 1.417 . S
C196 C197 1.329 . S
C197 C167 1.437 . S
C197 H168 0.929 . S
C197 C196 1.329 . S
H198 C171 0.931 . S
C199 O181 1.265 . S
C199 O182 1.242 . S
C200 O185 1.261 . S
C200 O186 1.252 . S
C201 C204 1.394 . S
C201 C206 1.370 . S
C201 C207 1.500 . S
C202 C205 1.383 . S
C202 C206 1.395 . S
C203 C204 1.396 . S
C203 C205 1.365 . S
C203 H212 0.929 . S
C204 C201 1.394 . S
C204 C203 1.396 . S
C204 H213 0.930 . S
C205 C202 1.383 . S
C205 C203 1.365 . S
C205 H214 0.931 . S
C206 C201 1.370 . S
C206 C202 1.395 . S
C206 H215 0.930 . S
C207 Gd143 2.805 . S
C207 O183 1.263 . S
C207 O184 1.252 . S
C207 C201 1.500 . S
H208 C191 0.929 . S
H209 C192 0.930 . S
H210 C193 0.931 . S
H211 C194 0.930 . S
H212 C203 0.929 . S
H213 C204 0.930 . S
H214 C205 0.931 . S
H215 C206 0.930 . S
C216 C217 1.387 . S
C216 H220 0.950 . S
C216 C225 1.390 . S
C217 C216 1.387 . S
C217 C219 1.387 . S
H218 C225 0.950 . S
C219 C217 1.387 . S
C219 C221 1.390 . S
C219 H223 0.950 . S
H220 C216 0.950 . S
C221 C219 1.390 . S
C221 C222 1.387 . S
C221 H224 0.950 . S
C222 C221 1.387 . S
C222 C225 1.387 . S
H223 C219 0.950 . S
H224 C221 0.950 . S
C225 C216 1.390 . S
C225 H218 0.950 . S
C225 C222 1.387 . S
C226 C227 1.387 . S
C226 H230 0.950 . S
C226 C235 1.390 . S
C227 C226 1.387 . S
C227 C229 1.387 . S
H228 C235 0.950 . S
C229 C227 1.387 . S
C229 C231 1.390 . S
C229 H233 0.950 1_554 S
H230 C226 0.950 . S
C231 C229 1.390 . S
C231 C232 1.387 . S
C231 H234 0.950 1_554 S
C232 C231 1.387 . S
C232 C235 1.387 . S
H233 C229 0.950 1_556 S
H234 C231 0.950 1_556 S
C235 C226 1.390 . S
C235 H228 0.950 . S
C235 C232 1.387 . S
C236 C237 1.387 . S
C236 H240 0.950 . S
C236 C245 1.390 . S
C237 C236 1.387 . S
C237 C239 1.387 . S
H238 C245 0.950 . S
C239 C237 1.387 . S
C239 C241 1.390 . S
C239 H243 0.950 . S
H240 C236 0.950 . S
C241 C239 1.390 . S
C241 C242 1.387 . S
C241 H244 0.950 . S
C242 C241 1.387 . S
C242 C245 1.387 . S
H243 C239 0.950 . S
H244 C241 0.950 . S
C245 C236 1.390 . S
C245 H238 0.950 . S
C245 C242 1.387 . S
C246 C247 1.387 . S
C246 H250 0.950 . S
C246 C255 1.390 . S
C247 C246 1.387 . S
C247 C249 1.387 . S
H248 C255 0.950 . S
C249 C247 1.387 . S
C249 C251 1.390 . S
C249 H253 0.950 1_554 S
H250 C246 0.950 . S
C251 C249 1.390 . S
C251 C252 1.387 . S
C251 H254 0.950 1_554 S
C252 C251 1.387 . S
C252 C255 1.387 . S
H253 C249 0.950 1_556 S
H254 C251 0.950 1_556 S
C255 C246 1.390 . S
C255 H248 0.950 . S
C255 C252 1.387 . S
C256 C257 1.387 . S
C256 H260 0.950 . S
C256 C265 1.390 . S
C257 C256 1.387 . S
C257 C259 1.387 . S
H258 C265 0.950 . S
C259 C257 1.387 . S
C259 C261 1.390 . S
C259 H263 0.950 . S
H260 C256 0.950 . S
C261 C259 1.390 . S
C261 C262 1.387 . S
C261 H264 0.950 . S
C262 C261 1.387 . S
C262 C265 1.387 . S
H263 C259 0.950 . S
H264 C261 0.950 . S
C265 C256 1.390 . S
C265 H258 0.950 . S
C265 C262 1.387 . S
C266 C267 1.387 . S
C266 H270 0.950 . S
C266 C275 1.390 . S
C267 C266 1.387 . S
C267 C269 1.387 . S
H268 C275 0.950 . S
C269 C267 1.387 . S
C269 C271 1.390 . S
C269 H273 0.950 . S
H270 C266 0.950 . S
C271 C269 1.390 . S
C271 C272 1.387 . S
C271 H274 0.950 . S
C272 C271 1.387 . S
C272 C275 1.387 . S
H273 C269 0.950 . S
H274 C271 0.950 . S
C275 C266 1.390 . S
C275 H268 0.950 . S
C275 C272 1.387 . S
C276 C277 1.387 . S
C276 H280 0.950 . S
C276 C285 1.390 . S
C277 C276 1.387 . S
C277 C279 1.387 . S
H278 C285 0.948 1_565 S
C279 C277 1.387 . S
C279 C281 1.390 . S
C279 H283 0.950 . S
H280 C276 0.950 . S
C281 C279 1.390 . S
C281 C282 1.387 . S
C281 H284 0.950 . S
C282 C281 1.387 . S
C282 C285 1.387 . S
H283 C279 0.950 . S
H284 C281 0.950 . S
C285 C276 1.390 . S
C285 H278 0.948 1_545 S
C285 C282 1.387 . S
C286 C287 1.387 . S
C286 H290 0.950 . S
C286 C295 1.390 . S
C287 C286 1.387 . S
C287 C289 1.387 . S
H288 C295 0.950 . S
C289 C287 1.387 . S
C289 C291 1.390 . S
C289 H293 0.950 . S
H290 C286 0.950 . S
C291 C289 1.390 . S
C291 C292 1.387 . S
C291 H294 0.950 . S
C292 C291 1.387 . S
C292 C295 1.387 . S
H293 C289 0.950 . S
H294 C291 0.950 . S
C295 C286 1.390 . S
C295 H288 0.950 . S
C295 C292 1.387 . S
C296 C297 1.387 . S
C296 H300 0.950 . S
C296 C305 1.390 . S
C297 C296 1.387 . S
C297 C299 1.387 . S
H298 C305 0.950 . S
C299 C297 1.387 . S
C299 C301 1.390 . S
C299 H303 0.950 . S
H300 C296 0.950 . S
C301 C299 1.390 . S
C301 C302 1.387 . S
C301 H304 0.950 . S
C302 C301 1.387 . S
C302 C305 1.387 . S
H303 C299 0.950 . S
H304 C301 0.950 . S
C305 C296 1.390 . S
C305 H298 0.950 . S
C305 C302 1.387 . S
C306 C307 1.387 1_554 S
C306 H310 0.950 . S
C306 C315 1.390 1_554 S
C307 C306 1.387 1_556 S
C307 C309 1.387 . S
H308 C315 0.950 . S
C309 C307 1.387 . S
C309 C311 1.390 . S
C309 H313 0.950 . S
H310 C306 0.950 . S
C311 C309 1.390 . S
C311 C312 1.387 . S
C311 H314 0.950 . S
C312 C311 1.387 . S
C312 C315 1.387 . S
H313 C309 0.950 . S
H314 C311 0.950 . S
C315 C306 1.390 1_556 S
C315 H308 0.950 . S
C315 C312 1.387 . S
C316 C317 1.387 . S
C316 H320 0.950 . S
C316 C325 1.390 . S
C317 C316 1.387 . S
C317 C319 1.387 . S
H318 C325 0.950 . S
C319 C317 1.387 . S
C319 C321 1.390 . S
C319 H323 0.950 . S
H320 C316 0.950 . S
C321 C319 1.390 . S
C321 C322 1.387 . S
C321 H324 0.950 . S
C322 C321 1.387 . S
C322 C325 1.387 . S
H323 C319 0.950 . S
H324 C321 0.950 . S
C325 C316 1.390 . S
C325 H318 0.950 . S
C325 C322 1.387 . S
C326 C327 1.387 . S
C326 H330 0.950 . S
C326 C335 1.390 . S
C327 C326 1.387 . S
C327 C329 1.387 . S
H328 C335 0.950 1_545 S
C329 C327 1.387 . S
C329 C331 1.390 . S
C329 H333 0.950 . S
H330 C326 0.950 . S
C331 C329 1.390 . S
C331 C332 1.387 . S
C331 H334 0.950 . S
C332 C331 1.387 . S
C332 C335 1.387 . S
H333 C329 0.950 . S
H334 C331 0.950 . S
C335 C326 1.390 . S
C335 H328 0.950 1_565 S
C335 C332 1.387 . S
C222 C116 1.634 . S
C217 C40 1.635 . S
C227 C4 1.642 . S
C232 C188 1.635 . S
C237 C16 1.631 . S
C242 C104 1.652 . S
C247 C28 1.600 . S
C252 C200 1.608 . S
C262 C106 1.408 . S
C257 C9 1.588 . S
C272 C187 1.688 . S
C267 C18 1.684 . S
C277 C33 1.625 . S
C282 C103 1.649 . S
C287 C45 1.590 . S
C292 C190 1.425 . S
C302 C202 1.395 . S
C297 C21 1.562 . S
C312 C118 1.362 . S
C307 C30 1.550 1_556 S
C322 C199 1.627 . S
C317 C42 1.613 . S
C327 C6 1.572 . S
C332 C115 1.599 . S
