# Generated by pormake.
# Topology pyr, (3,6)-cn, num edge types: 1
# Building blocks:
#     Node 0, Type 0, BuildingBlock: VETTIZ_charged_linker_0, # of connection points: 3
#     Node 1, Type 0, BuildingBlock: VETTIZ_charged_linker_0, # of connection points: 3
#     Node 2, Type 0, BuildingBlock: VETTIZ_charged_linker_0, # of connection points: 3
#     Node 3, Type 0, BuildingBlock: VETTIZ_charged_linker_0, # of connection points: 3
#     Node 4, Type 0, BuildingBlock: VETTIZ_charged_linker_0, # of connection points: 3
#     Node 5, Type 0, BuildingBlock: VETTIZ_charged_linker_0, # of connection points: 3
#     Node 6, Type 0, BuildingBlock: VETTIZ_charged_linker_0, # of connection points: 3
#     Node 7, Type 0, BuildingBlock: VETTIZ_charged_linker_0, # of connection points: 3
#     Node 8, Type 1, BuildingBlock: MIDCAF_clean_sbu_0, # of connection points: 6
#     Node 9, Type 1, BuildingBlock: MIDCAF_clean_sbu_0, # of connection points: 6
#     Node 10, Type 1, BuildingBlock: MIDCAF_clean_sbu_0, # of connection points: 6
#     Node 11, Type 1, BuildingBlock: MIDCAF_clean_sbu_0, # of connection points: 6
#     Edge 12, Type (0, 1), BuildingBlock: AJUNOK_clean_linker_0, # of connection points: 2
#     Edge 13, Type (0, 1), BuildingBlock: AJUNOK_clean_linker_0, # of connection points: 2
#     Edge 14, Type (0, 1), BuildingBlock: AJUNOK_clean_linker_0, # of connection points: 2
#     Edge 15, Type (0, 1), BuildingBlock: AJUNOK_clean_linker_0, # of connection points: 2
#     Edge 16, Type (0, 1), BuildingBlock: AJUNOK_clean_linker_0, # of connection points: 2
#     Edge 17, Type (0, 1), BuildingBlock: AJUNOK_clean_linker_0, # of connection points: 2
#     Edge 18, Type (0, 1), BuildingBlock: AJUNOK_clean_linker_0, # of connection points: 2
#     Edge 19, Type (0, 1), BuildingBlock: AJUNOK_clean_linker_0, # of connection points: 2
#     Edge 20, Type (0, 1), BuildingBlock: AJUNOK_clean_linker_0, # of connection points: 2
#     Edge 21, Type (0, 1), BuildingBlock: AJUNOK_clean_linker_0, # of connection points: 2
#     Edge 22, Type (0, 1), BuildingBlock: AJUNOK_clean_linker_0, # of connection points: 2
#     Edge 23, Type (0, 1), BuildingBlock: AJUNOK_clean_linker_0, # of connection points: 2
#     Edge 24, Type (0, 1), BuildingBlock: AJUNOK_clean_linker_0, # of connection points: 2
#     Edge 25, Type (0, 1), BuildingBlock: AJUNOK_clean_linker_0, # of connection points: 2
#     Edge 26, Type (0, 1), BuildingBlock: AJUNOK_clean_linker_0, # of connection points: 2
#     Edge 27, Type (0, 1), BuildingBlock: AJUNOK_clean_linker_0, # of connection points: 2
#     Edge 28, Type (0, 1), BuildingBlock: AJUNOK_clean_linker_0, # of connection points: 2
#     Edge 29, Type (0, 1), BuildingBlock: AJUNOK_clean_linker_0, # of connection points: 2
#     Edge 30, Type (0, 1), BuildingBlock: AJUNOK_clean_linker_0, # of connection points: 2
#     Edge 31, Type (0, 1), BuildingBlock: AJUNOK_clean_linker_0, # of connection points: 2
#     Edge 32, Type (0, 1), BuildingBlock: AJUNOK_clean_linker_0, # of connection points: 2
#     Edge 33, Type (0, 1), BuildingBlock: AJUNOK_clean_linker_0, # of connection points: 2
#     Edge 34, Type (0, 1), BuildingBlock: AJUNOK_clean_linker_0, # of connection points: 2
#     Edge 35, Type (0, 1), BuildingBlock: AJUNOK_clean_linker_0, # of connection points: 2
# Relax obj value: 0.019
# Max RMSD: 0.063
# Mean RMSD: 0.021
data_MOF--net-pry--node1-MIDCAF_clean_sbu_0--node2-VETTIZ_charged_linker_0--edge1-AJUNOK_clean_linker_0
_symmetry_space_group_name_H-M    P1
_symmetry_Int_Tables_number       1
_symmetry_cell_setting            triclinic
loop_
_symmetry_equiv_pos_as_xyz
'x, y, z'
_cell_length_a     34.142488
_cell_length_b     34.197628
_cell_length_c     34.176289
_cell_angle_alpha  89.946478
_cell_angle_beta   90.040423
_cell_angle_gamma 90.078555
loop_
_atom_site_label
_atom_site_type_symbol
_atom_site_fract_x
_atom_site_fract_y
_atom_site_fract_z
_atom_type_partial_charge
C0 C 0.17713 0.16037 0.33804 0.0
C1 C 0.14692 0.17672 0.36042 0.0
C2 C 0.13542 0.2156 0.3536 0.0
C3 C 0.18232 0.22027 0.30031 0.0
C4 C 0.1946 0.18265 0.30847 0.0
C5 C 0.22615 0.16895 0.2811 0.0
H6 H 0.3571 0.2111 0.1396 0.0
C7 C 0.20507 0.23449 0.26627 0.0
C8 C 0.23149 0.20493 0.2556 0.0
H9 H 0.32954 0.09808 0.19049 0.0
H10 H 0.2814 0.12761 0.23092 0.0
H11 H 0.33557 0.27425 0.21221 0.0
H12 H 0.27426 0.21982 0.11752 0.0
H13 H 0.24485 0.26004 0.12976 0.0
H14 H 0.29417 0.26792 0.11237 0.0
H15 H 0.34461 0.28119 0.16082 0.0
H16 H 0.30775 0.30929 0.18567 0.0
C17 C 0.26313 0.15993 0.30566 0.0
C18 C 0.21027 0.13351 0.25747 0.0
C19 C 0.16311 0.35693 0.19417 0.0
C20 C 0.1758 0.37369 0.1589 0.0
C21 C 0.21139 0.36144 0.14228 0.0
C22 C 0.23309 0.33113 0.15956 0.0
C23 C 0.21837 0.31235 0.1931 0.0
C24 C 0.18463 0.32618 0.21066 0.0
C25 C 0.17278 0.30188 0.24549 0.0
C26 C 0.20311 0.26948 0.24392 0.0
C27 C 0.22987 0.27587 0.2133 0.0
C28 C 0.17716 0.32723 0.28279 0.0
C29 C 0.13075 0.2862 0.23849 0.0
C30 C 0.34115 0.19236 0.15949 0.0
C31 C 0.35013 0.1521 0.16315 0.0
C32 C 0.3268 0.12947 0.18889 0.0
C33 C 0.29754 0.14656 0.21184 0.0
C34 C 0.28934 0.18647 0.20773 0.0
C35 C 0.3098 0.20835 0.18067 0.0
C36 C 0.29111 0.24779 0.174 0.0
C37 C 0.25825 0.24689 0.20409 0.0
C38 C 0.25811 0.2112 0.22433 0.0
C39 C 0.32134 0.28006 0.1835 0.0
C40 C 0.2754 0.24927 0.13129 0.0
H41 H 0.14266 0.2668 0.31905 0.0
H42 H 0.18613 0.13034 0.34269 0.0
H43 H 0.17769 0.13246 0.25739 0.0
H44 H 0.21837 0.13504 0.22611 0.0
H45 H 0.22081 0.10539 0.26988 0.0
H46 H 0.26941 0.18435 0.32624 0.0
H47 H 0.25894 0.13291 0.32324 0.0
H48 H 0.28973 0.15634 0.28776 0.0
H49 H 0.13556 0.36581 0.2071 0.0
H50 H 0.22139 0.37407 0.11497 0.0
H51 H 0.25972 0.32245 0.14543 0.0
H52 H 0.19983 0.35032 0.27892 0.0
H53 H 0.14922 0.34205 0.29025 0.0
H54 H 0.18727 0.31003 0.30831 0.0
H55 H 0.12776 0.27479 0.20816 0.0
H56 H 0.12283 0.26172 0.25792 0.0
H57 H 0.10871 0.30971 0.2425 0.0
H58 H 0.1119 0.2284 0.37054 0.0
C59 C 0.15312 0.2376 0.32366 0.0
C60 C 0.19585 0.84842 0.65869 0.0
C61 C 0.18599 0.88834 0.6629 0.0
C62 C 0.20843 0.9111 0.68927 0.0
C63 C 0.24766 0.85477 0.707 0.0
C64 C 0.22742 0.83278 0.67983 0.0
C65 C 0.24621 0.79344 0.67334 0.0
H66 H 0.40508 0.67918 0.70107 0.0
C67 C 0.27978 0.83057 0.72288 0.0
C68 C 0.27979 0.79487 0.70258 0.0
H69 H 0.30745 0.65813 0.62303 0.0
H70 H 0.27363 0.71397 0.64999 0.0
H71 H 0.41016 0.77243 0.69975 0.0
H72 H 0.3489 0.69158 0.7741 0.0
H73 H 0.35588 0.73378 0.80258 0.0
H74 H 0.39788 0.70684 0.78509 0.0
H75 H 0.43293 0.73733 0.73168 0.0
H76 H 0.41831 0.78432 0.74956 0.0
C77 C 0.26083 0.79207 0.63041 0.0
C78 C 0.21619 0.76121 0.68381 0.0
C79 C 0.36015 0.88019 0.8379 0.0
C80 C 0.39027 0.86353 0.86062 0.0
C81 C 0.40457 0.82629 0.85027 0.0
C82 C 0.38891 0.80593 0.81815 0.0
C83 C 0.35858 0.82291 0.79607 0.0
C84 C 0.34443 0.85927 0.80637 0.0
C85 C 0.31183 0.87268 0.77989 0.0
C86 C 0.30745 0.83743 0.75319 0.0
C87 C 0.33554 0.80887 0.76216 0.0
C88 C 0.32587 0.90954 0.75731 0.0
C89 C 0.27486 0.87937 0.80515 0.0
C90 C 0.37629 0.68618 0.68982 0.0
C91 C 0.35997 0.66507 0.65835 0.0
C92 C 0.3219 0.67502 0.64559 0.0
C93 C 0.30214 0.70735 0.66145 0.0
C94 C 0.32034 0.72979 0.69075 0.0
C95 C 0.3559 0.71785 0.7058 0.0
C96 C 0.3691 0.74286 0.73957 0.0
C97 C 0.33756 0.77408 0.73962 0.0
C98 C 0.30927 0.76659 0.71065 0.0
C99 C 0.40988 0.76016 0.7299 0.0
C100 C 0.36819 0.71763 0.77734 0.0
H101 H 0.25401 0.91336 0.73128 0.0
H102 H 0.18025 0.82974 0.63843 0.0
H103 H 0.19935 0.7694 0.71042 0.0
H104 H 0.23021 0.73299 0.69092 0.0
H105 H 0.19492 0.7567 0.65961 0.0
H106 H 0.2722 0.82113 0.62106 0.0
H107 H 0.23672 0.78392 0.61014 0.0
H108 H 0.28554 0.77192 0.62593 0.0
H109 H 0.34942 0.90933 0.84399 0.0
H110 H 0.42786 0.81286 0.86708 0.0
H111 H 0.40123 0.77789 0.81152 0.0
H112 H 0.35838 0.91194 0.7569 0.0
H113 H 0.31436 0.93674 0.77079 0.0
H114 H 0.31733 0.90876 0.72603 0.0
H115 H 0.2697 0.85391 0.82478 0.0
H116 H 0.24797 0.88282 0.78762 0.0
H117 H 0.2783 0.90578 0.82375 0.0
H118 H 0.20429 0.94231 0.69163 0.0
C119 C 0.23836 0.8944 0.71182 0.0
C120 C 0.69417 0.18456 0.87775 0.0
C121 C 0.65991 0.16543 0.86501 0.0
C122 C 0.64247 0.17737 0.82952 0.0
C123 C 0.69143 0.22803 0.82146 0.0
C124 C 0.70937 0.2157 0.85558 0.0
C125 C 0.7443 0.24068 0.86582 0.0
H126 H 0.8438 0.41001 0.84008 0.0
C127 C 0.71208 0.26332 0.8073 0.0
C128 C 0.74324 0.27089 0.83311 0.0
H129 H 0.8679 0.31811 0.92328 0.0
H130 H 0.81749 0.27762 0.89402 0.0
H131 H 0.75249 0.40512 0.84165 0.0
H132 H 0.83575 0.34987 0.76526 0.0
H133 H 0.79584 0.36395 0.73609 0.0
H134 H 0.82385 0.40082 0.76156 0.0
H135 H 0.77853 0.43148 0.80439 0.0
H136 H 0.73284 0.40701 0.79421 0.0
C137 C 0.73684 0.2593 0.90641 0.0
C138 C 0.78156 0.21491 0.86385 0.0
C139 C 0.6578 0.33866 0.69054 0.0
C140 C 0.66662 0.3757 0.6747 0.0
C141 C 0.69851 0.39683 0.69047 0.0
C142 C 0.72064 0.38191 0.72155 0.0
C143 C 0.71068 0.34557 0.73781 0.0
C144 C 0.67975 0.32454 0.72232 0.0
C145 C 0.67186 0.28767 0.74515 0.0
C146 C 0.70382 0.28966 0.77616 0.0
C147 C 0.7265 0.3236 0.77158 0.0
C148 C 0.63018 0.29072 0.76306 0.0
C149 C 0.6777 0.25238 0.71746 0.0
C150 C 0.83844 0.38092 0.85149 0.0
C151 C 0.85952 0.36702 0.8839 0.0
C152 C 0.85202 0.3291 0.89811 0.0
C153 C 0.82257 0.30587 0.88133 0.0
C154 C 0.80042 0.32076 0.85 0.0
C155 C 0.80949 0.35711 0.83469 0.0
C156 C 0.78421 0.36728 0.8001 0.0
C157 C 0.75786 0.33151 0.79779 0.0
C158 C 0.76689 0.30474 0.82767 0.0
C159 C 0.76086 0.4048 0.81018 0.0
C160 C 0.81105 0.37102 0.76373 0.0
H161 H 0.64312 0.21618 0.78124 0.0
H162 H 0.70827 0.17605 0.90484 0.0
H163 H 0.77777 0.19023 0.84298 0.0
H164 H 0.8073 0.23118 0.85275 0.0
H165 H 0.78866 0.20217 0.89291 0.0
H166 H 0.7066 0.27128 0.908 0.0
H167 H 0.74007 0.23726 0.93009 0.0
H168 H 0.7565 0.28401 0.91292 0.0
H169 H 0.634 0.3212 0.679 0.0
H170 H 0.70577 0.42569 0.67957 0.0
H171 H 0.74409 0.39981 0.73234 0.0
H172 H 0.62132 0.32172 0.7674 0.0
H173 H 0.60793 0.27688 0.74379 0.0
H174 H 0.62822 0.27765 0.79259 0.0
H175 H 0.70398 0.2568 0.69871 0.0
H176 H 0.68299 0.22473 0.73331 0.0
H177 H 0.65202 0.24855 0.69785 0.0
H178 H 0.61556 0.16394 0.81942 0.0
C179 C 0.65818 0.20822 0.80761 0.0
C180 C 0.87608 0.84707 0.35106 0.0
C181 C 0.86198 0.86832 0.38342 0.0
C182 C 0.82505 0.85826 0.39904 0.0
C183 C 0.81836 0.8056 0.35184 0.0
C184 C 0.85362 0.81657 0.33541 0.0
C185 C 0.86426 0.79177 0.30066 0.0
H186 H 0.83052 0.63157 0.1898 0.0
C187 C 0.80364 0.77114 0.33008 0.0
C188 C 0.82996 0.76349 0.29947 0.0
H189 H 0.925 0.71483 0.17963 0.0
H190 H 0.89604 0.75472 0.23045 0.0
H191 H 0.83001 0.63004 0.28226 0.0
H192 H 0.75932 0.69621 0.20138 0.0
H193 H 0.72862 0.68011 0.23943 0.0
H194 H 0.75261 0.64463 0.20858 0.0
H195 H 0.7933 0.60775 0.25194 0.0
H196 H 0.78137 0.6285 0.29879 0.0
C197 C 0.90336 0.77072 0.30992 0.0
C198 C 0.86553 0.81843 0.26396 0.0
C199 C 0.69046 0.69236 0.38552 0.0
C200 C 0.67307 0.65675 0.37457 0.0
C201 C 0.68331 0.63971 0.33854 0.0
C202 C 0.71241 0.65667 0.3149 0.0
C203 C 0.7315 0.69094 0.32756 0.0
C204 C 0.7195 0.70885 0.36175 0.0
C205 C 0.74267 0.74524 0.3706 0.0
C206 C 0.77159 0.74547 0.33686 0.0
C207 C 0.7652 0.7134 0.31191 0.0
C208 C 0.76327 0.73943 0.41059 0.0
C209 C 0.71458 0.78079 0.36904 0.0
C210 C 0.84427 0.65892 0.19807 0.0
C211 C 0.87965 0.67062 0.1807 0.0
C212 C 0.89744 0.70577 0.19251 0.0
C213 C 0.88069 0.72863 0.22214 0.0
C214 C 0.84608 0.71585 0.24053 0.0
C215 C 0.82801 0.68191 0.22789 0.0
C216 C 0.79209 0.6723 0.2516 0.0
C217 C 0.79147 0.70611 0.28044 0.0
C218 C 0.82342 0.73126 0.27406 0.0
C219 C 0.79912 0.6325 0.27217 0.0
C220 C 0.75612 0.67299 0.224 0.0
H221 H 0.77567 0.82054 0.39702 0.0
H222 H 0.90465 0.85305 0.33872 0.0
H223 H 0.8448 0.84335 0.26675 0.0
H224 H 0.85615 0.80309 0.23706 0.0
H225 H 0.89526 0.83086 0.25944 0.0
H226 H 0.90385 0.76047 0.34083 0.0
H227 H 0.9287 0.79068 0.30571 0.0
H228 H 0.90803 0.74422 0.2922 0.0
H229 H 0.6826 0.70628 0.41287 0.0
H230 H 0.67009 0.61232 0.32958 0.0
H231 H 0.71981 0.64178 0.2883 0.0
H232 H 0.7766 0.70981 0.41237 0.0
H233 H 0.74208 0.74226 0.43507 0.0
H234 H 0.78747 0.76013 0.4157 0.0
H235 H 0.6893 0.77519 0.34925 0.0
H236 H 0.72883 0.80722 0.35687 0.0
H237 H 0.70262 0.78762 0.39846 0.0
H238 H 0.81318 0.87427 0.42364 0.0
C239 C 0.80323 0.8271 0.38345 0.0
C240 C 0.9127 0.78624 0.97585 0.0
C241 C 0.94082 0.76025 0.96107 0.0
C242 C 0.96571 0.77247 0.93058 0.0
C243 C 0.93222 0.83454 0.92723 0.0
C244 C 0.90882 0.82325 0.95834 0.0
C245 C 0.87895 0.85402 0.96836 0.0
H246 H 0.78346 0.01993 0.91705 0.0
C247 C 0.91875 0.87308 0.91331 0.0
C248 C 0.88763 0.88488 0.9374 0.0
H249 H 0.76389 0.94653 0.0181 0.0
H250 H 0.81956 0.90673 1.00095 0.0
H251 H 0.80452 0.95098 0.8561 0.0
H252 H 0.87485 0.02546 0.92894 0.0
H253 H 0.90331 0.01653 0.8872 0.0
H254 H 0.85699 0.04159 0.88231 0.0
H255 H 0.81041 0.00256 0.84812 0.0
H256 H 0.84416 0.96769 0.8278 0.0
C257 C 0.83772 0.83579 0.96316 0.0
C258 C 0.88757 0.86912 0.01024 0.0
C259 C 0.97808 0.9325 0.79 0.0
C260 C 0.96932 0.96667 0.76886 0.0
C261 C 0.93981 0.99188 0.78281 0.0
C262 C 0.919 0.98315 0.81685 0.0
C263 C 0.92742 0.94864 0.8373 0.0
C264 C 0.95679 0.92415 0.82416 0.0
C265 C 0.96131 0.88873 0.84993 0.0
C266 C 0.92998 0.89628 0.88066 0.0
C267 C 0.91007 0.93125 0.87276 0.0
C268 C 0.95208 0.85209 0.82483 0.0
C269 C 0.00304 0.88943 0.86779 0.0
C270 C 0.79142 0.99533 0.93538 0.0
C271 C 0.76951 0.98622 0.96886 0.0
C272 C 0.78073 0.95421 0.99234 0.0
C273 C 0.81283 0.93097 0.9822 0.0
C274 C 0.83394 0.93969 0.9481 0.0
C275 C 0.82382 0.97201 0.92591 0.0
C276 C 0.85103 0.97786 0.89188 0.0
C277 C 0.87841 0.94318 0.8968 0.0
C278 C 0.86779 0.92052 0.92937 0.0
C279 C 0.82651 0.97492 0.85381 0.0
C280 C 0.8726 0.01745 0.89746 0.0
H281 H 0.98121 0.81672 0.89024 0.0
H282 H 0.89328 0.77738 0.9993 0.0
H283 H 0.91923 0.86654 0.01755 0.0
H284 H 0.88098 0.9006 0.01363 0.0
H285 H 0.87095 0.85221 0.03251 0.0
H286 H 0.83632 0.81838 0.93571 0.0
H287 H 0.83058 0.81595 0.98791 0.0
H288 H 0.81423 0.85769 0.96057 0.0
H289 H 1.00079 0.91274 0.78019 0.0
H290 H 0.93216 0.01814 0.76679 0.0
H291 H 0.89671 0.0034 0.82552 0.0
H292 H 0.92841 0.85834 0.80331 0.0
H293 H 0.97826 0.84252 0.80813 0.0
H294 H 0.94091 0.82724 0.84215 0.0
H295 H 0.01273 0.91995 0.87364 0.0
H296 H 0.00466 0.87463 0.8965 0.0
H297 H 0.02468 0.87601 0.84762 0.0
H298 H 0.98779 0.75282 0.91913 0.0
C299 C 0.96174 0.80948 0.91376 0.0
C300 C 0.74983 0.08201 0.46359 0.0
C301 C 0.76777 0.0502 0.44472 0.0
C302 C 0.7501 0.03425 0.41112 0.0
C303 C 0.69798 0.08242 0.41513 0.0
C304 C 0.71525 0.09768 0.44833 0.0
C305 C 0.69366 0.1327 0.4639 0.0
H306 H 0.54452 0.26164 0.44545 0.0
C307 C 0.66307 0.10644 0.40621 0.0
C308 C 0.66038 0.13591 0.43466 0.0
H309 H 0.63623 0.26147 0.53254 0.0
H310 H 0.66334 0.20233 0.50439 0.0
H311 H 0.52832 0.16642 0.44549 0.0
H312 H 0.59912 0.24313 0.37464 0.0
H313 H 0.57819 0.20836 0.3432 0.0
H314 H 0.5468 0.2412 0.36997 0.0
H315 H 0.50769 0.20111 0.41186 0.0
H316 H 0.52212 0.15291 0.39621 0.0
C317 C 0.67865 0.12271 0.50547 0.0
C318 C 0.7215 0.16852 0.46206 0.0
C319 C 0.58145 0.07525 0.28635 0.0
C320 C 0.54827 0.09256 0.2693 0.0
C321 C 0.531 0.12511 0.28762 0.0
C322 C 0.5468 0.14021 0.32249 0.0
C323 C 0.58032 0.12268 0.33897 0.0
C324 C 0.5969 0.09065 0.32087 0.0
C325 C 0.63269 0.07598 0.3418 0.0
C326 C 0.63502 0.10447 0.37562 0.0
C327 C 0.60436 0.13176 0.3739 0.0
C328 C 0.62442 0.03369 0.35592 0.0
C329 C 0.6682 0.07996 0.31379 0.0
C330 C 0.57009 0.24844 0.4588 0.0
C331 C 0.58823 0.26588 0.49133 0.0
C332 C 0.62192 0.24845 0.50743 0.0
C333 C 0.63752 0.21419 0.491 0.0
C334 C 0.61945 0.19751 0.4579 0.0
C335 C 0.5862 0.21463 0.44249 0.0
C336 C 0.57167 0.19398 0.40645 0.0
C337 C 0.60157 0.16149 0.40274 0.0
C338 C 0.62943 0.16358 0.43297 0.0
C339 C 0.53015 0.17786 0.41505 0.0
C340 C 0.57367 0.223 0.37161 0.0
H341 H 0.70321 0.03683 0.37048 0.0
H342 H 0.76314 0.09525 0.48916 0.0
H343 H 0.74169 0.16642 0.4366 0.0
H344 H 0.70582 0.19641 0.45769 0.0
H345 H 0.73975 0.17063 0.4889 0.0
H346 H 0.66786 0.09202 0.50677 0.0
H347 H 0.70241 0.12581 0.52748 0.0
H348 H 0.65351 0.14083 0.5145 0.0
H349 H 0.59569 0.05051 0.27261 0.0
H350 H 0.50524 0.1387 0.27508 0.0
H351 H 0.53244 0.16506 0.33515 0.0
H352 H 0.59345 0.03049 0.36554 0.0
H353 H 0.62955 0.01223 0.3321 0.0
H354 H 0.64205 0.0253 0.38168 0.0
H355 H 0.66503 0.106 0.29449 0.0
H356 H 0.69617 0.08471 0.32933 0.0
H357 H 0.67098 0.05388 0.29465 0.0
H358 H 0.76339 0.00963 0.3963 0.0
C359 C 0.71519 0.0501 0.39629 0.0
C360 C 0.48778 0.60177 0.24456 0.0
C361 C 0.47645 0.56934 0.26705 0.0
C362 C 0.44492 0.54592 0.25455 0.0
C363 C 0.43447 0.58874 0.19916 0.0
C364 C 0.46673 0.61055 0.21037 0.0
C365 C 0.47506 0.64334 0.18218 0.0
H366 H 0.41783 0.75279 0.02714 0.0
C367 C 0.41756 0.60679 0.16375 0.0
C368 C 0.44168 0.63832 0.15308 0.0
H369 H 0.52212 0.76507 0.09796 0.0
H370 H 0.50525 0.70706 0.13404 0.0
H371 H 0.36135 0.73248 0.09796 0.0
H372 H 0.42336 0.65916 0.01694 0.0
H373 H 0.37756 0.63701 0.02461 0.0
H374 H 0.37991 0.68535 0.00338 0.0
H375 H 0.34693 0.72727 0.04775 0.0
H376 H 0.32939 0.69444 0.08512 0.0
C377 C 0.472 0.6824 0.20487 0.0
C378 C 0.5156 0.63594 0.16312 0.0
C379 C 0.28263 0.56451 0.11633 0.0
C380 C 0.25805 0.57942 0.08701 0.0
C381 C 0.27231 0.60817 0.06119 0.0
C382 C 0.31006 0.62335 0.06553 0.0
C383 C 0.33371 0.60999 0.09635 0.0
C384 C 0.32038 0.58036 0.12055 0.0
C385 C 0.34983 0.57011 0.15171 0.0
C386 C 0.3823 0.59939 0.14289 0.0
C387 C 0.37245 0.62279 0.1106 0.0
C388 C 0.33062 0.5776 0.19206 0.0
C389 C 0.36333 0.52734 0.14518 0.0
C390 C 0.43697 0.74286 0.05038 0.0
C391 C 0.47128 0.76361 0.05975 0.0
C392 C 0.49571 0.74942 0.0899 0.0
C393 C 0.48573 0.71586 0.11109 0.0
C394 C 0.45077 0.69616 0.10233 0.0
C395 C 0.42739 0.70926 0.07198 0.0
C396 C 0.39135 0.68443 0.06701 0.0
C397 C 0.39715 0.65428 0.09925 0.0
C398 C 0.43177 0.66167 0.12013 0.0
C399 C 0.35517 0.71076 0.07452 0.0
C400 C 0.39268 0.66559 0.02581 0.0
H401 H 0.39976 0.53685 0.21302 0.0
H402 H 0.51225 0.61988 0.25351 0.0
H403 H 0.52293 0.60425 0.16274 0.0
H404 H 0.51648 0.64487 0.132 0.0
H405 H 0.5393 0.65124 0.17932 0.0
H406 H 0.44601 0.68215 0.2245 0.0
H407 H 0.49837 0.68724 0.22331 0.0
H408 H 0.46805 0.70802 0.18568 0.0
H409 H 0.27211 0.54234 0.13642 0.0
H410 H 0.25365 0.61969 0.03826 0.0
H411 H 0.3189 0.64574 0.04539 0.0
H412 H 0.31498 0.60612 0.19207 0.0
H413 H 0.30894 0.55438 0.19911 0.0
H414 H 0.35185 0.57931 0.21627 0.0
H415 H 0.36005 0.51843 0.11404 0.0
H416 H 0.39485 0.52325 0.15161 0.0
H417 H 0.34592 0.50658 0.16316 0.0
H418 H 0.43589 0.52079 0.27168 0.0
C419 C 0.42389 0.55541 0.2207 0.0
C420 C 0.0771 0.28769 0.58653 0.0
C421 C 0.09359 0.27161 0.55254 0.0
C422 C 0.12207 0.29301 0.53185 0.0
C423 C 0.11999 0.34395 0.58147 0.0
C424 C 0.09067 0.32358 0.60047 0.0
C425 C 0.07803 0.34296 0.63783 0.0
H426 H 0.11139 0.47871 0.77697 0.0
C427 C 0.12994 0.37834 0.60591 0.0
C428 C 0.10529 0.37794 0.63881 0.0
H429 H 0.02221 0.38899 0.77613 0.0
H430 H 0.04162 0.36999 0.71067 0.0
H431 H 0.09779 0.5069 0.68535 0.0
H432 H 0.17845 0.42791 0.74149 0.0
H433 H 0.20488 0.45429 0.70621 0.0
H434 H 0.18244 0.48002 0.74635 0.0
H435 H 0.13687 0.5236 0.7163 0.0
H436 H 0.14438 0.51469 0.66482 0.0
C437 C 0.03462 0.35539 0.63343 0.0
C438 C 0.08598 0.31421 0.67205 0.0
C439 C 0.24575 0.46375 0.56887 0.0
C440 C 0.26511 0.49481 0.58765 0.0
C441 C 0.25015 0.50909 0.62325 0.0
C442 C 0.21637 0.49248 0.63992 0.0
C443 C 0.19782 0.46081 0.62113 0.0
C444 C 0.21245 0.44724 0.586 0.0
C445 C 0.19034 0.4123 0.57094 0.0
C446 C 0.15965 0.40726 0.60258 0.0
C447 C 0.16418 0.43563 0.63198 0.0
C448 C 0.17172 0.42328 0.53111 0.0
C449 C 0.21903 0.3772 0.56923 0.0
C450 C 0.09597 0.45506 0.76252 0.0
C451 C 0.06548 0.43503 0.78165 0.0
C452 C 0.04569 0.40484 0.76184 0.0
C453 C 0.05722 0.39375 0.724 0.0
C454 C 0.08896 0.41297 0.70593 0.0
C455 C 0.10712 0.4437 0.72486 0.0
C456 C 0.14013 0.46095 0.70129 0.0
C457 C 0.13921 0.43515 0.66522 0.0
C458 C 0.1095 0.40686 0.66829 0.0
C459 C 0.12966 0.50389 0.69149 0.0
C460 C 0.1786 0.45593 0.7249 0.0
H461 H 0.15778 0.34388 0.52971 0.0
H462 H 0.05485 0.27188 0.60273 0.0
H463 H 0.11399 0.29827 0.66743 0.0
H464 H 0.08944 0.32882 0.70057 0.0
H465 H 0.06224 0.29209 0.67447 0.0
H466 H 0.02773 0.3633 0.6026 0.0
H467 H 0.01451 0.33135 0.64212 0.0
H468 H 0.0275 0.38191 0.65048 0.0
H469 H 0.25726 0.45137 0.54207 0.0
H470 H 0.26485 0.5328 0.63831 0.0
H471 H 0.20649 0.5044 0.66721 0.0
H472 H 0.16088 0.45395 0.5315 0.0
H473 H 0.1934 0.42082 0.50702 0.0
H474 H 0.1458 0.4053 0.52394 0.0
H475 H 0.2408 0.37869 0.59344 0.0
H476 H 0.20442 0.34868 0.57319 0.0
H477 H 0.23551 0.3769 0.54123 0.0
H478 H 0.13509 0.281 0.50558 0.0
C479 C 0.13532 0.32925 0.54612 0.0
Zn480 Zn 0.96902 0.07364 0.5622 0.0
Zn481 Zn 0.05488 0.98293 0.47527 0.0
Zn482 Zn 0.01352 0.0268 0.52353 0.0
C483 C 0.07375 0.06022 0.45829 0.0
C484 C 0.9782 0.96527 0.45891 0.0
O485 O 0.01924 0.00749 0.58506 0.0
O486 O 0.98072 0.0511 0.61343 0.0
C487 C 0.02288 0.12216 0.53044 0.0
O488 O 0.05258 0.06576 0.489 0.0
O489 O 0.07813 0.02627 0.44459 0.0
O490 O 0.01194 0.95347 0.44975 0.0
O491 O 0.97383 0.99262 0.48453 0.0
O492 O 0.99239 0.12467 0.55098 0.0
O493 O 0.03456 0.08863 0.51767 0.0
O494 O 0.95103 0.01987 0.50427 0.0
O495 O 0.91748 0.06151 0.54064 0.0
C496 C 0.91826 0.03576 0.51434 0.0
O497 O 0.04911 0.98801 0.56248 0.0
O498 O 0.08582 0.95848 0.51824 0.0
C499 C 0.00285 0.02173 0.61588 0.0
C500 C 0.07745 0.96461 0.55375 0.0
Zn501 Zn 0.47808 0.05333 0.97671 0.0
Zn502 Zn 0.56846 0.97272 0.06898 0.0
Zn503 Zn 0.52381 0.0128 0.02592 0.0
C504 C 0.61901 0.01532 0.02476 0.0
C505 C 0.5258 0.91748 0.03132 0.0
O506 O 0.48534 0.05078 0.06283 0.0
O507 O 0.45033 0.08245 0.01851 0.0
C508 C 0.55532 0.07036 0.95654 0.0
O509 O 0.58599 0.0246 0.00897 0.0
O510 O 0.61974 0.99332 0.05431 0.0
O511 O 0.55597 0.91926 0.0525 0.0
O512 O 0.50918 0.94924 0.01951 0.0
O513 O 0.52087 0.07881 0.94614 0.0
O514 O 0.56145 0.04663 0.98521 0.0
O515 O 0.48712 0.97077 0.99249 0.0
O516 O 0.45054 0.00767 0.95367 0.0
C517 C 0.46057 0.97431 0.96587 0.0
O518 O 0.51553 0.03356 0.08712 0.0
O519 O 0.54993 0.98988 0.12016 0.0
C520 C 0.45798 0.07531 0.05399 0.0
C521 C 0.52862 0.01993 0.11985 0.0
Zn522 Zn 0.5528 0.55286 0.56472 0.0
Zn523 Zn 0.46726 0.46598 0.47164 0.0
Zn524 Zn 0.51119 0.51068 0.51395 0.0
C525 C 0.51574 0.4151 0.50937 0.0
C526 C 0.50752 0.51515 0.42026 0.0
O527 O 0.47138 0.54371 0.55348 0.0
O528 O 0.50903 0.57663 0.59474 0.0
C529 C 0.57597 0.47609 0.57525 0.0
O530 O 0.52978 0.44829 0.52073 0.0
O531 O 0.48509 0.41404 0.48881 0.0
O532 O 0.48622 0.485 0.42072 0.0
O533 O 0.51966 0.53051 0.45254 0.0
O534 O 0.58275 0.50972 0.58876 0.0
O535 O 0.55063 0.47116 0.54768 0.0
O536 O 0.54697 0.55109 0.47731 0.0
O537 O 0.58005 0.58281 0.52306 0.0
C538 C 0.57337 0.57623 0.4873 0.0
O539 O 0.4485 0.51858 0.53083 0.0
O540 O 0.41489 0.48348 0.48814 0.0
C541 C 0.47535 0.56745 0.58255 0.0
C542 C 0.4155 0.50655 0.51688 0.0
Zn543 Zn 0.05314 0.56137 0.98011 0.0
Zn544 Zn 0.97592 0.47787 0.06525 0.0
Zn545 Zn 0.01579 0.52161 0.02055 0.0
C546 C 0.0537 0.46042 0.08023 0.0
C547 C 0.95354 0.45949 0.98941 0.0
O548 O 0.98965 0.5814 0.02074 0.0
O549 O 0.01224 0.5981 0.96275 0.0
C550 C 0.10015 0.55317 0.04106 0.0
O551 O 0.05757 0.49255 0.0609 0.0
O552 O 0.0205 0.44433 0.08294 0.0
O553 O 0.93994 0.45787 0.02372 0.0
O554 O 0.98501 0.4791 0.9824 0.0
O555 O 0.09216 0.58087 0.01809 0.0
O556 O 0.07698 0.52347 0.04317 0.0
O557 O 0.01484 0.49616 0.96035 0.0
O558 O 0.07095 0.52206 0.94193 0.0
C559 C 0.04352 0.49812 0.93588 0.0
O560 O 0.97449 0.56039 0.05231 0.0
O561 O 0.95736 0.52061 0.10036 0.0
C562 C 0.98975 0.60482 0.99117 0.0
C563 C 0.95723 0.55435 0.0853 0.0
C564 C 0.0996 0.12307 0.37149 0.0
C565 C 0.12485 0.15128 0.38739 0.0
C566 C 0.08226 0.09462 0.39523 0.0
C567 C 0.08955 0.09337 0.43569 0.0
H568 H 0.09418 0.12232 0.34025 0.0
H569 H 0.06359 0.07285 0.38165 0.0
S570 S 0.15417 0.16041 0.49128 0.0
N571 N 0.1563 0.17674 0.44578 0.0
N572 N 0.12415 0.12243 0.4906 0.0
C573 C 0.11412 0.12192 0.45216 0.0
C574 C 0.13171 0.15114 0.42789 0.0
C575 C 0.44904 0.88897 0.89717 0.0
C576 C 0.40798 0.8861 0.89351 0.0
C577 C 0.4663 0.91535 0.9236 0.0
C578 C 0.44304 0.93987 0.94688 0.0
H579 H 0.46799 0.87255 0.87784 0.0
H580 H 0.49788 0.91853 0.92378 0.0
S581 S 0.33492 0.93845 0.95438 0.0
N582 N 0.34499 0.90557 0.9205 0.0
N583 N 0.37756 0.95636 0.96858 0.0
C584 C 0.40228 0.93526 0.94572 0.0
C585 C 0.3847 0.90803 0.91945 0.0
C586 C 0.65993 0.41704 0.61437 0.0
C587 C 0.64194 0.39405 0.64356 0.0
C588 C 0.63789 0.44156 0.59003 0.0
C589 C 0.59696 0.44294 0.59287 0.0
H590 H 0.69153 0.41772 0.61164 0.0
H591 H 0.65311 0.46092 0.57002 0.0
S592 S 0.53468 0.38582 0.66054 0.0
N593 N 0.57986 0.3727 0.67174 0.0
N594 N 0.53868 0.41726 0.62406 0.0
C595 C 0.57818 0.41783 0.61927 0.0
C596 C 0.6006 0.39356 0.64497 0.0
C597 C 0.92802 0.6176 0.17094 0.0
C598 C 0.90072 0.64352 0.15459 0.0
C599 C 0.94671 0.58948 0.14786 0.0
C600 C 0.93908 0.58657 0.10752 0.0
H601 H 0.93434 0.61858 0.20201 0.0
H602 H 0.9671 0.56958 0.16178 0.0
S603 S 0.86971 0.64772 0.05084 0.0
N604 N 0.86687 0.66497 0.09593 0.0
N605 N 0.90196 0.61172 0.05229 0.0
C606 C 0.91222 0.61274 0.09066 0.0
C607 C 0.89299 0.64134 0.11432 0.0
C608 C 0.38853 0.14856 0.10007 0.0
C609 C 0.38092 0.13336 0.13772 0.0
C610 C 0.41475 0.13043 0.07439 0.0
C611 C 0.4338 0.09531 0.08423 0.0
H612 H 0.37324 0.17404 0.08929 0.0
H613 H 0.41917 0.14365 0.0459 0.0
S614 S 0.42352 0.04156 0.17796 0.0
N615 N 0.39747 0.08162 0.18417 0.0
N616 N 0.44082 0.04422 0.13297 0.0
C617 C 0.4262 0.07919 0.12126 0.0
C618 C 0.40126 0.09892 0.14857 0.0
C619 C 0.1498 0.89321 0.59873 0.0
C620 C 0.15516 0.90672 0.63733 0.0
C621 C 0.12346 0.91124 0.57303 0.0
C622 C 0.10179 0.94449 0.58398 0.0
H623 H 0.16698 0.86922 0.58742 0.0
H624 H 0.12095 0.8994 0.54371 0.0
S625 S 0.10512 0.9927 0.68112 0.0
N626 N 0.13413 0.9545 0.68586 0.0
N627 N 0.08918 0.9915 0.63554 0.0
C628 C 0.10687 0.95865 0.62225 0.0
C629 C 0.13243 0.93913 0.64925 0.0
C630 C 0.86889 0.42388 0.92801 0.0
C631 C 0.88559 0.39349 0.90607 0.0
C632 C 0.89165 0.44613 0.95384 0.0
C633 C 0.93202 0.43929 0.95798 0.0
H634 H 0.83766 0.42932 0.92648 0.0
H635 H 0.87739 0.46827 0.97144 0.0
S636 S 0.99022 0.36499 0.90494 0.0
N637 N 0.94505 0.35877 0.8886 0.0
N638 N 0.98814 0.40122 0.93686 0.0
C639 C 0.94944 0.41013 0.93496 0.0
C640 C 0.9261 0.38702 0.90904 0.0
C641 C 0.60911 0.62488 0.39309 0.0
C642 C 0.64772 0.63557 0.40273 0.0
C643 C 0.58502 0.6056 0.42045 0.0
C644 C 0.59884 0.59588 0.45796 0.0
H645 H 0.59723 0.6322 0.36462 0.0
H646 H 0.55517 0.59932 0.41267 0.0
S647 S 0.69928 0.61445 0.49582 0.0
N648 N 0.69947 0.63328 0.45136 0.0
N649 N 0.65481 0.59661 0.50224 0.0
C650 C 0.63784 0.60572 0.46739 0.0
C651 C 0.66211 0.62556 0.43986 0.0
C652 C 0.12234 0.37936 0.11037 0.0
C653 C 0.1483 0.39802 0.13619 0.0
C654 C 0.09249 0.40023 0.09165 0.0
C655 C 0.08783 0.4406 0.09775 0.0
H656 H 0.12441 0.3481 0.10558 0.0
H657 H 0.07249 0.38454 0.07266 0.0
S658 S 0.1483 0.50293 0.1628 0.0
N659 N 0.16786 0.45892 0.16698 0.0
N660 N 0.1115 0.49844 0.13165 0.0
C661 C 0.11417 0.45983 0.12286 0.0
C662 C 0.14448 0.43841 0.14221 0.0
C663 C 0.63284 0.14439 0.92997 0.0
C664 C 0.6398 0.13604 0.89018 0.0
C665 C 0.60745 0.1211 0.95244 0.0
C666 C 0.58821 0.08885 0.9358 0.0
H667 H 0.64508 0.17046 0.94319 0.0
H668 H 0.60102 0.12973 0.98225 0.0
S669 S 0.60147 0.05041 0.83553 0.0
N670 N 0.62955 0.08976 0.83708 0.0
N671 N 0.58089 0.04694 0.87913 0.0
C672 C 0.59693 0.07855 0.89713 0.0
C673 C 0.62303 0.10189 0.87436 0.0
C674 C 0.89021 0.90002 0.44367 0.0
C675 C 0.88703 0.89867 0.40249 0.0
C676 C 0.91809 0.92396 0.46215 0.0
C677 C 0.94414 0.94678 0.44007 0.0
H678 H 0.87253 0.88091 0.46177 0.0
H679 H 0.92086 0.92279 0.49371 0.0
S680 S 0.94378 0.95959 0.33252 0.0
N681 N 0.9085 0.92759 0.34094 0.0
N682 N 0.9626 0.97025 0.37574 0.0
C683 C 0.9399 0.9476 0.3993 0.0
C684 C 0.91088 0.92417 0.3805 0.0
C685 C 0.4098 0.61098 0.65998 0.0
C686 C 0.38393 0.63455 0.63808 0.0
C687 C 0.43817 0.58776 0.64168 0.0
C688 C 0.44099 0.58611 0.60077 0.0
H689 H 0.40925 0.6116 0.69165 0.0
H690 H 0.45882 0.57182 0.65972 0.0
S691 S 0.37847 0.63845 0.5294 0.0
N692 N 0.3621 0.65269 0.57254 0.0
N693 N 0.41418 0.60727 0.53858 0.0
C694 C 0.41367 0.60696 0.57834 0.0
C695 C 0.38532 0.63148 0.59688 0.0
C696 C 0.00134 0.01512 0.72504 0.0
C697 C 0.98907 0.9764 0.73145 0.0
C698 C 0.0095 0.02863 0.68738 0.0
C699 C 0.00653 0.00374 0.65483 0.0
H700 H 0.00186 0.03589 0.74897 0.0
H701 H 0.01581 0.05945 0.6834 0.0
S702 S 0.98249 0.89821 0.65653 0.0
N703 N 0.97912 0.91203 0.70273 0.0
N704 N 0.99579 0.93752 0.6317 0.0
C705 C 0.99861 0.96399 0.66117 0.0
C706 C 0.98965 0.95022 0.69966 0.0
C707 C 0.52817 0.03574 0.22865 0.0
C708 C 0.5331 0.07638 0.23201 0.0
C709 C 0.52348 0.01807 0.19214 0.0
C710 C 0.52321 0.04037 0.15753 0.0
H711 H 0.53028 0.0172 0.2543 0.0
H712 H 0.52209 0.98644 0.19085 0.0
S713 S 0.52936 0.14837 0.15089 0.0
N714 N 0.53317 0.13897 0.19817 0.0
N715 N 0.52404 0.10556 0.12917 0.0
C716 C 0.52459 0.08132 0.16066 0.0
C717 C 0.52953 0.09941 0.19806 0.0
C718 C 0.48599 0.58395 0.33768 0.0
C719 C 0.4951 0.56073 0.30503 0.0
C720 C 0.4941 0.5708 0.37574 0.0
C721 C 0.51242 0.53454 0.38215 0.0
H722 H 0.46958 0.61079 0.33393 0.0
H723 H 0.48326 0.58763 0.40029 0.0
S724 S 0.546 0.46526 0.30601 0.0
N725 N 0.52601 0.50158 0.28115 0.0
N726 N 0.54219 0.47729 0.35267 0.0
C727 C 0.52432 0.51264 0.34953 0.0
C728 C 0.51554 0.5257 0.31091 0.0
C729 C 0.08757 0.44593 0.85002 0.0
C730 C 0.0566 0.44455 0.82299 0.0
C731 C 0.08202 0.4606 0.88771 0.0
C732 C 0.04526 0.47439 0.89994 0.0
H733 H 0.11677 0.43701 0.84143 0.0
H734 H 0.10721 0.46285 0.9069 0.0
S735 S 0.95382 0.47412 0.8415 0.0
N736 N 0.98708 0.45533 0.81187 0.0
N737 N 0.97681 0.48375 0.88297 0.0
C738 C 0.0134 0.471 0.87414 0.0
C739 C 0.01903 0.4558 0.83557 0.0
C740 C 0.70083 0.00576 0.95323 0.0
C741 C 0.73329 0.00769 0.9786 0.0
C742 C 0.66294 0.01415 0.96689 0.0
C743 C 0.65681 0.02446 0.00622 0.0
H744 H 0.70419 0.99401 0.924 0.0
H745 H 0.6382 0.00817 0.94793 0.0
S746 S 0.7333 0.04327 0.08083 0.0
N747 N 0.75777 0.02807 0.04205 0.0
N748 N 0.68671 0.04366 0.06778 0.0
C749 C 0.6896 0.03155 0.03002 0.0
C750 C 0.72792 0.02306 0.0162 0.0
C751 C 0.80993 0.02773 0.49976 0.0
C752 C 0.80581 0.03561 0.45962 0.0
C753 C 0.84697 0.02358 0.51672 0.0
C754 C 0.88119 0.02699 0.49412 0.0
H755 H 0.78443 0.02732 0.51862 0.0
H756 H 0.84895 0.02043 0.54821 0.0
S757 S 0.88619 0.04349 0.38715 0.0
N758 N 0.83884 0.0431 0.39705 0.0
N759 N 0.9087 0.03555 0.42921 0.0
C760 C 0.87747 0.03147 0.45347 0.0
C761 C 0.83963 0.03572 0.43611 0.0
C762 C 0.20493 0.53228 0.06863 0.0
C763 C 0.21638 0.56836 0.08471 0.0
C764 C 0.16574 0.52563 0.05771 0.0
C765 C 0.13735 0.55501 0.06261 0.0
H766 H 0.22672 0.51026 0.06205 0.0
H767 H 0.15826 0.49868 0.04282 0.0
S768 S 0.15183 0.65174 0.10907 0.0
N769 N 0.19575 0.63155 0.10941 0.0
N770 N 0.12237 0.61924 0.08873 0.0
C771 C 0.14804 0.58975 0.08158 0.0
C772 C 0.18759 0.59639 0.09272 0.0
C773 C 0.33703 0.50773 0.59432 0.0
C774 C 0.30274 0.50921 0.57143 0.0
C775 C 0.37419 0.51089 0.57695 0.0
C776 C 0.37801 0.51559 0.53626 0.0
H777 H 0.33526 0.50089 0.62523 0.0
H778 H 0.3999 0.50626 0.59495 0.0
S779 S 0.29732 0.53016 0.46517 0.0
N780 N 0.27498 0.52256 0.50735 0.0
N781 N 0.34471 0.52805 0.4747 0.0
C782 C 0.34398 0.52119 0.51387 0.0
C783 C 0.30632 0.51814 0.53148 0.0
C784 C 0.93698 0.6895 0.94673 0.0
C785 C 0.94312 0.71922 0.97438 0.0
C786 C 0.94856 0.6511 0.95435 0.0
C787 C 0.96663 0.64105 0.98989 0.0
H788 H 0.92562 0.69655 0.91796 0.0
H789 H 0.94594 0.62968 0.93113 0.0
S790 S 0.9842 0.70707 0.07397 0.0
N791 N 0.9641 0.73547 0.04033 0.0
N792 N 0.9865 0.66288 0.05457 0.0
C793 C 0.9698 0.66971 0.01915 0.0
C794 C 0.95782 0.70901 0.01139 0.0
C795 C 0.52009 0.8083 0.02898 0.0
C796 C 0.48121 0.80132 0.04058 0.0
C797 C 0.53338 0.84624 0.02142 0.0
C798 C 0.50824 0.87857 0.02491 0.0
H799 H 0.54111 0.78459 0.02855 0.0
H800 H 0.56432 0.85061 0.01581 0.0
S801 S 0.40218 0.87537 0.04752 0.0
N802 N 0.41638 0.82927 0.04995 0.0
N803 N 0.44153 0.90076 0.03542 0.0
C804 C 0.46833 0.87164 0.03207 0.0
C805 C 0.45474 0.83287 0.04001 0.0
C806 C 0.08631 0.20164 0.56989 0.0
C807 C 0.08283 0.2312 0.5415 0.0
C808 C 0.06951 0.16488 0.56412 0.0
C809 C 0.04875 0.15633 0.52975 0.0
H810 H 0.10039 0.20769 0.59767 0.0
H811 H 0.07072 0.14373 0.58774 0.0
S812 S 0.03591 0.22141 0.44419 0.0
N813 N 0.06086 0.24811 0.47594 0.0
N814 N 0.02868 0.1785 0.46534 0.0
C815 C 0.04737 0.18444 0.49991 0.0
C816 C 0.06478 0.22204 0.50566 0.0
C817 C 0.53253 0.30663 0.51466 0.0
C818 C 0.57268 0.30341 0.50631 0.0
C819 C 0.51493 0.34323 0.51949 0.0
C820 C 0.53679 0.37796 0.51604 0.0
H821 H 0.51418 0.28076 0.51513 0.0
H822 H 0.48346 0.34443 0.52343 0.0
S823 S 0.64359 0.38512 0.49776 0.0
N824 N 0.63451 0.33767 0.49806 0.0
N825 N 0.60122 0.40668 0.5064 0.0
C826 C 0.5775 0.37505 0.51072 0.0
C827 C 0.59552 0.33765 0.506 0.0
loop_
_geom_bond_atom_site_label_1
_geom_bond_atom_site_label_2
_geom_bond_distance
_geom_bond_site_symmetry_2
_ccdc_geom_bond_type
C0 C1 1.391 . S
C0 C4 1.391 . S
C0 H42 0.948 . S
C1 C0 1.391 . S
C1 C2 1.391 . S
C2 C1 1.391 . S
C2 H58 0.947 . S
C2 C59 1.392 . S
C3 C4 1.391 . S
C3 C7 1.397 . S
C3 C59 1.419 . S
C4 C0 1.391 . S
C4 C3 1.391 . S
C4 C5 1.399 . S
C5 C4 1.399 . S
C5 C8 1.396 . S
C5 C17 1.453 . S
C5 C18 1.684 . S
H6 C30 0.948 . S
C7 C3 1.397 . S
C7 C8 1.394 . S
C7 C26 1.723 . S
C8 C5 1.396 . S
C8 C7 1.394 . S
C8 C38 1.723 . S
H9 C32 0.947 . S
H10 C33 0.948 . S
H11 C39 0.982 . S
H12 C40 0.979 . S
H13 C40 0.980 . S
H14 C40 0.983 . S
H15 C39 0.979 . S
H16 C39 0.977 . S
C17 C5 1.453 . S
C17 H46 0.982 . S
C17 H47 0.979 . S
C17 H48 0.977 . S
C18 C5 1.684 . S
C18 H43 0.979 . S
C18 H44 0.980 . S
C18 H45 0.983 . S
C19 C20 1.391 . S
C19 C24 1.391 . S
C19 H49 0.948 . S
C20 C19 1.391 . S
C20 C21 1.391 . S
C21 C20 1.391 . S
C21 C22 1.392 . S
C21 H50 0.947 . S
C22 C21 1.392 . S
C22 C23 1.419 . S
C22 H51 0.948 . S
C23 C22 1.419 . S
C23 C24 1.391 . S
C23 C27 1.397 . S
C24 C19 1.391 . S
C24 C23 1.391 . S
C24 C25 1.399 . S
C25 C24 1.399 . S
C25 C26 1.396 . S
C25 C28 1.453 . S
C25 C29 1.684 . S
C26 C7 1.723 . S
C26 C25 1.396 . S
C26 C27 1.394 . S
C27 C23 1.397 . S
C27 C26 1.394 . S
C27 C37 1.723 . S
C28 C25 1.453 . S
C28 H52 0.982 . S
C28 H53 0.979 . S
C28 H54 0.977 . S
C29 C25 1.684 . S
C29 H55 0.979 . S
C29 H56 0.980 . S
C29 H57 0.983 . S
C30 H6 0.948 . S
C30 C31 1.391 . S
C30 C35 1.391 . S
C31 C30 1.391 . S
C31 C32 1.391 . S
C32 H9 0.947 . S
C32 C31 1.391 . S
C32 C33 1.392 . S
C33 H10 0.948 . S
C33 C32 1.392 . S
C33 C34 1.419 . S
C34 C33 1.419 . S
C34 C35 1.391 . S
C34 C38 1.397 . S
C35 C30 1.391 . S
C35 C34 1.391 . S
C35 C36 1.399 . S
C36 C35 1.399 . S
C36 C37 1.396 . S
C36 C39 1.453 . S
C36 C40 1.684 . S
C37 C27 1.723 . S
C37 C36 1.396 . S
C37 C38 1.394 . S
C38 C8 1.723 . S
C38 C34 1.397 . S
C38 C37 1.394 . S
C39 H11 0.982 . S
C39 H15 0.979 . S
C39 H16 0.977 . S
C39 C36 1.453 . S
C40 H12 0.979 . S
C40 H13 0.980 . S
C40 H14 0.983 . S
C40 C36 1.684 . S
H41 C59 0.948 . S
H42 C0 0.948 . S
H43 C18 0.979 . S
H44 C18 0.980 . S
H45 C18 0.983 . S
H46 C17 0.982 . S
H47 C17 0.979 . S
H48 C17 0.977 . S
H49 C19 0.948 . S
H50 C21 0.947 . S
H51 C22 0.948 . S
H52 C28 0.982 . S
H53 C28 0.979 . S
H54 C28 0.977 . S
H55 C29 0.979 . S
H56 C29 0.980 . S
H57 C29 0.983 . S
H58 C2 0.947 . S
C59 C2 1.392 . S
C59 C3 1.419 . S
C59 H41 0.948 . S
C60 C61 1.391 . S
C60 C64 1.391 . S
C60 H102 0.948 . S
C61 C60 1.391 . S
C61 C62 1.391 . S
C62 C61 1.391 . S
C62 H118 0.947 . S
C62 C119 1.392 . S
C63 C64 1.391 . S
C63 C67 1.397 . S
C63 C119 1.419 . S
C64 C60 1.391 . S
C64 C63 1.391 . S
C64 C65 1.399 . S
C65 C64 1.399 . S
C65 C68 1.396 . S
C65 C77 1.453 . S
C65 C78 1.684 . S
H66 C90 0.948 . S
C67 C63 1.397 . S
C67 C68 1.394 . S
C67 C86 1.723 . S
C68 C65 1.396 . S
C68 C67 1.394 . S
C68 C98 1.723 . S
H69 C92 0.947 . S
H70 C93 0.948 . S
H71 C99 0.982 . S
H72 C100 0.979 . S
H73 C100 0.980 . S
H74 C100 0.983 . S
H75 C99 0.979 . S
H76 C99 0.977 . S
C77 C65 1.453 . S
C77 H106 0.982 . S
C77 H107 0.979 . S
C77 H108 0.977 . S
C78 C65 1.684 . S
C78 H103 0.979 . S
C78 H104 0.980 . S
C78 H105 0.983 . S
C79 C80 1.391 . S
C79 C84 1.391 . S
C79 H109 0.948 . S
C80 C79 1.391 . S
C80 C81 1.391 . S
C81 C80 1.391 . S
C81 C82 1.392 . S
C81 H110 0.947 . S
C82 C81 1.392 . S
C82 C83 1.419 . S
C82 H111 0.948 . S
C83 C82 1.419 . S
C83 C84 1.391 . S
C83 C87 1.397 . S
C84 C79 1.391 . S
C84 C83 1.391 . S
C84 C85 1.399 . S
C85 C84 1.399 . S
C85 C86 1.396 . S
C85 C88 1.453 . S
C85 C89 1.684 . S
C86 C67 1.723 . S
C86 C85 1.396 . S
C86 C87 1.394 . S
C87 C83 1.397 . S
C87 C86 1.394 . S
C87 C97 1.723 . S
C88 C85 1.453 . S
C88 H112 0.982 . S
C88 H113 0.979 . S
C88 H114 0.977 . S
C89 C85 1.684 . S
C89 H115 0.979 . S
C89 H116 0.980 . S
C89 H117 0.983 . S
C90 H66 0.948 . S
C90 C91 1.391 . S
C90 C95 1.391 . S
C91 C90 1.391 . S
C91 C92 1.391 . S
C92 H69 0.947 . S
C92 C91 1.391 . S
C92 C93 1.392 . S
C93 H70 0.948 . S
C93 C92 1.392 . S
C93 C94 1.419 . S
C94 C93 1.419 . S
C94 C95 1.391 . S
C94 C98 1.397 . S
C95 C90 1.391 . S
C95 C94 1.391 . S
C95 C96 1.399 . S
C96 C95 1.399 . S
C96 C97 1.396 . S
C96 C99 1.453 . S
C96 C100 1.684 . S
C97 C87 1.723 . S
C97 C96 1.396 . S
C97 C98 1.394 . S
C98 C68 1.723 . S
C98 C94 1.397 . S
C98 C97 1.394 . S
C99 H71 0.982 . S
C99 H75 0.979 . S
C99 H76 0.977 . S
C99 C96 1.453 . S
C100 H72 0.979 . S
C100 H73 0.980 . S
C100 H74 0.983 . S
C100 C96 1.684 . S
H101 C119 0.948 . S
H102 C60 0.948 . S
H103 C78 0.979 . S
H104 C78 0.980 . S
H105 C78 0.983 . S
H106 C77 0.982 . S
H107 C77 0.979 . S
H108 C77 0.977 . S
H109 C79 0.948 . S
H110 C81 0.947 . S
H111 C82 0.948 . S
H112 C88 0.982 . S
H113 C88 0.979 . S
H114 C88 0.977 . S
H115 C89 0.979 . S
H116 C89 0.980 . S
H117 C89 0.983 . S
H118 C62 0.947 . S
C119 C62 1.392 . S
C119 C63 1.419 . S
C119 H101 0.948 . S
C120 C121 1.391 . S
C120 C124 1.391 . S
C120 H162 0.948 . S
C121 C120 1.391 . S
C121 C122 1.391 . S
C122 C121 1.391 . S
C122 H178 0.947 . S
C122 C179 1.392 . S
C123 C124 1.391 . S
C123 C127 1.397 . S
C123 C179 1.419 . S
C124 C120 1.391 . S
C124 C123 1.391 . S
C124 C125 1.399 . S
C125 C124 1.399 . S
C125 C128 1.396 . S
C125 C137 1.453 . S
C125 C138 1.684 . S
H126 C150 0.948 . S
C127 C123 1.397 . S
C127 C128 1.394 . S
C127 C146 1.723 . S
C128 C125 1.396 . S
C128 C127 1.394 . S
C128 C158 1.723 . S
H129 C152 0.947 . S
H130 C153 0.948 . S
H131 C159 0.982 . S
H132 C160 0.979 . S
H133 C160 0.980 . S
H134 C160 0.983 . S
H135 C159 0.979 . S
H136 C159 0.977 . S
C137 C125 1.453 . S
C137 H166 0.982 . S
C137 H167 0.979 . S
C137 H168 0.977 . S
C138 C125 1.684 . S
C138 H163 0.979 . S
C138 H164 0.980 . S
C138 H165 0.983 . S
C139 C140 1.391 . S
C139 C144 1.391 . S
C139 H169 0.948 . S
C140 C139 1.391 . S
C140 C141 1.391 . S
C141 C140 1.391 . S
C141 C142 1.392 . S
C141 H170 0.947 . S
C142 C141 1.392 . S
C142 C143 1.419 . S
C142 H171 0.948 . S
C143 C142 1.419 . S
C143 C144 1.391 . S
C143 C147 1.397 . S
C144 C139 1.391 . S
C144 C143 1.391 . S
C144 C145 1.399 . S
C145 C144 1.399 . S
C145 C146 1.396 . S
C145 C148 1.453 . S
C145 C149 1.684 . S
C146 C127 1.723 . S
C146 C145 1.396 . S
C146 C147 1.394 . S
C147 C143 1.397 . S
C147 C146 1.394 . S
C147 C157 1.723 . S
C148 C145 1.453 . S
C148 H172 0.982 . S
C148 H173 0.979 . S
C148 H174 0.977 . S
C149 C145 1.684 . S
C149 H175 0.979 . S
C149 H176 0.980 . S
C149 H177 0.983 . S
C150 H126 0.948 . S
C150 C151 1.391 . S
C150 C155 1.391 . S
C151 C150 1.391 . S
C151 C152 1.391 . S
C152 H129 0.947 . S
C152 C151 1.391 . S
C152 C153 1.392 . S
C153 H130 0.948 . S
C153 C152 1.392 . S
C153 C154 1.419 . S
C154 C153 1.419 . S
C154 C155 1.391 . S
C154 C158 1.397 . S
C155 C150 1.391 . S
C155 C154 1.391 . S
C155 C156 1.399 . S
C156 C155 1.399 . S
C156 C157 1.396 . S
C156 C159 1.453 . S
C156 C160 1.684 . S
C157 C147 1.723 . S
C157 C156 1.396 . S
C157 C158 1.394 . S
C158 C128 1.723 . S
C158 C154 1.397 . S
C158 C157 1.394 . S
C159 H131 0.982 . S
C159 H135 0.979 . S
C159 H136 0.977 . S
C159 C156 1.453 . S
C160 H132 0.979 . S
C160 H133 0.980 . S
C160 H134 0.983 . S
C160 C156 1.684 . S
H161 C179 0.948 . S
H162 C120 0.948 . S
H163 C138 0.979 . S
H164 C138 0.980 . S
H165 C138 0.983 . S
H166 C137 0.982 . S
H167 C137 0.979 . S
H168 C137 0.977 . S
H169 C139 0.948 . S
H170 C141 0.947 . S
H171 C142 0.948 . S
H172 C148 0.982 . S
H173 C148 0.979 . S
H174 C148 0.977 . S
H175 C149 0.979 . S
H176 C149 0.980 . S
H177 C149 0.983 . S
H178 C122 0.947 . S
C179 C122 1.392 . S
C179 C123 1.419 . S
C179 H161 0.948 . S
C180 C181 1.391 . S
C180 C184 1.391 . S
C180 H222 0.948 . S
C181 C180 1.391 . S
C181 C182 1.391 . S
C182 C181 1.391 . S
C182 H238 0.947 . S
C182 C239 1.392 . S
C183 C184 1.391 . S
C183 C187 1.397 . S
C183 C239 1.419 . S
C184 C180 1.391 . S
C184 C183 1.391 . S
C184 C185 1.399 . S
C185 C184 1.399 . S
C185 C188 1.396 . S
C185 C197 1.453 . S
C185 C198 1.684 . S
H186 C210 0.948 . S
C187 C183 1.397 . S
C187 C188 1.394 . S
C187 C206 1.723 . S
C188 C185 1.396 . S
C188 C187 1.394 . S
C188 C218 1.723 . S
H189 C212 0.947 . S
H190 C213 0.948 . S
H191 C219 0.982 . S
H192 C220 0.979 . S
H193 C220 0.980 . S
H194 C220 0.983 . S
H195 C219 0.979 . S
H196 C219 0.977 . S
C197 C185 1.453 . S
C197 H226 0.982 . S
C197 H227 0.979 . S
C197 H228 0.977 . S
C198 C185 1.684 . S
C198 H223 0.979 . S
C198 H224 0.980 . S
C198 H225 0.983 . S
C199 C200 1.391 . S
C199 C204 1.391 . S
C199 H229 0.948 . S
C200 C199 1.391 . S
C200 C201 1.391 . S
C201 C200 1.391 . S
C201 C202 1.392 . S
C201 H230 0.947 . S
C202 C201 1.392 . S
C202 C203 1.419 . S
C202 H231 0.948 . S
C203 C202 1.419 . S
C203 C204 1.391 . S
C203 C207 1.397 . S
C204 C199 1.391 . S
C204 C203 1.391 . S
C204 C205 1.399 . S
C205 C204 1.399 . S
C205 C206 1.396 . S
C205 C208 1.453 . S
C205 C209 1.684 . S
C206 C187 1.723 . S
C206 C205 1.396 . S
C206 C207 1.394 . S
C207 C203 1.397 . S
C207 C206 1.394 . S
C207 C217 1.723 . S
C208 C205 1.453 . S
C208 H232 0.982 . S
C208 H233 0.979 . S
C208 H234 0.977 . S
C209 C205 1.684 . S
C209 H235 0.979 . S
C209 H236 0.980 . S
C209 H237 0.983 . S
C210 H186 0.948 . S
C210 C211 1.391 . S
C210 C215 1.391 . S
C211 C210 1.391 . S
C211 C212 1.391 . S
C212 H189 0.947 . S
C212 C211 1.391 . S
C212 C213 1.392 . S
C213 H190 0.948 . S
C213 C212 1.392 . S
C213 C214 1.419 . S
C214 C213 1.419 . S
C214 C215 1.391 . S
C214 C218 1.397 . S
C215 C210 1.391 . S
C215 C214 1.391 . S
C215 C216 1.399 . S
C216 C215 1.399 . S
C216 C217 1.396 . S
C216 C219 1.453 . S
C216 C220 1.684 . S
C217 C207 1.723 . S
C217 C216 1.396 . S
C217 C218 1.394 . S
C218 C188 1.723 . S
C218 C214 1.397 . S
C218 C217 1.394 . S
C219 H191 0.982 . S
C219 H195 0.979 . S
C219 H196 0.977 . S
C219 C216 1.453 . S
C220 H192 0.979 . S
C220 H193 0.980 . S
C220 H194 0.983 . S
C220 C216 1.684 . S
H221 C239 0.948 . S
H222 C180 0.948 . S
H223 C198 0.979 . S
H224 C198 0.980 . S
H225 C198 0.983 . S
H226 C197 0.982 . S
H227 C197 0.979 . S
H228 C197 0.977 . S
H229 C199 0.948 . S
H230 C201 0.947 . S
H231 C202 0.948 . S
H232 C208 0.982 . S
H233 C208 0.979 . S
H234 C208 0.977 . S
H235 C209 0.979 . S
H236 C209 0.980 . S
H237 C209 0.983 . S
H238 C182 0.947 . S
C239 C182 1.392 . S
C239 C183 1.419 . S
C239 H221 0.948 . S
C240 C241 1.391 1_654 S
C240 C244 1.391 1_554 S
C240 H282 0.948 . S
C241 C240 1.391 1_456 S
C241 C242 1.391 . S
C242 C241 1.391 . S
C242 H298 0.947 . S
C242 C299 1.392 . S
C243 C244 1.391 . S
C243 C247 1.397 . S
C243 C299 1.419 1_655 S
C244 C240 1.391 1_556 S
C244 C243 1.391 . S
C244 C245 1.406 . S
C245 C244 1.406 . S
C245 C248 1.420 . S
C245 C257 1.451 1_556 S
C245 C258 1.655 1_556 S
H246 C270 0.948 . S
C247 C243 1.397 . S
C247 C248 1.394 . S
C247 C266 1.723 . S
C248 C245 1.420 . S
C248 C247 1.394 . S
C248 C278 1.723 . S
H249 C272 0.947 . S
H250 C273 0.948 . S
H251 C279 0.961 1_565 S
H252 C280 0.979 . S
H253 C280 0.980 . S
H254 C280 0.983 . S
H255 C279 0.996 . S
H256 C279 0.982 . S
C257 C245 1.451 1_554 S
C257 H286 0.982 1_554 S
C257 H287 0.979 . S
C257 H288 0.977 . S
C258 C245 1.655 1_554 S
C258 H283 0.979 . S
C258 H284 0.980 . S
C258 H285 0.983 . S
C259 C260 1.391 1_465 S
C259 C264 1.391 1_455 S
C259 H289 0.948 . S
C260 C259 1.391 1_645 S
C260 C261 1.391 . S
C261 C260 1.391 . S
C261 C262 1.392 . S
C261 H290 0.947 . S
C262 C261 1.392 . S
C262 C263 1.419 1_545 S
C262 H291 0.948 . S
C263 C262 1.419 1_565 S
C263 C264 1.391 . S
C263 C267 1.397 . S
C264 C259 1.391 1_655 S
C264 C263 1.391 . S
C264 C265 1.399 . S
C265 C264 1.399 . S
C265 C266 1.396 . S
C265 C268 1.453 . S
C265 C269 1.684 1_655 S
C266 C247 1.723 . S
C266 C265 1.396 . S
C266 C267 1.394 . S
C267 C263 1.397 . S
C267 C266 1.394 . S
C267 C277 1.723 . S
C268 C265 1.453 . S
C268 H292 0.982 . S
C268 H293 0.979 1_655 S
C268 H294 0.977 1_655 S
C269 C265 1.684 1_455 S
C269 H295 0.979 . S
C269 H296 0.980 . S
C269 H297 0.983 . S
C270 H246 0.948 . S
C270 C271 1.391 1_546 S
C270 C275 1.391 1_545 S
C271 C270 1.391 1_564 S
C271 C272 1.391 . S
C272 H249 0.947 . S
C272 C271 1.391 . S
C272 C273 1.392 . S
C273 H250 0.948 . S
C273 C272 1.392 . S
C273 C274 1.419 1_554 S
C274 C273 1.419 1_556 S
C274 C275 1.391 . S
C274 C278 1.397 . S
C275 C270 1.391 1_565 S
C275 C274 1.391 . S
C275 C276 1.399 . S
C276 C275 1.399 . S
C276 C277 1.396 . S
C276 C279 1.452 1_565 S
C276 C280 1.684 1_565 S
C277 C267 1.723 . S
C277 C276 1.396 . S
C277 C278 1.394 . S
C278 C248 1.723 . S
C278 C274 1.397 . S
C278 C277 1.394 . S
C279 H251 0.961 1_545 S
C279 H255 0.996 . S
C279 H256 0.982 . S
C279 C276 1.452 1_545 S
C280 H252 0.979 . S
C280 H253 0.980 . S
C280 H254 0.983 . S
C280 C276 1.684 1_545 S
H281 C299 0.948 . S
H282 C240 0.948 . S
H283 C258 0.979 . S
H284 C258 0.980 . S
H285 C258 0.983 . S
H286 C257 0.982 1_556 S
H287 C257 0.979 . S
H288 C257 0.977 . S
H289 C259 0.948 . S
H290 C261 0.947 . S
H291 C262 0.948 . S
H292 C268 0.982 . S
H293 C268 0.979 1_455 S
H294 C268 0.977 1_455 S
H295 C269 0.979 . S
H296 C269 0.980 . S
H297 C269 0.983 . S
H298 C242 0.947 . S
C299 C242 1.392 . S
C299 C243 1.419 1_455 S
C299 H281 0.948 . S
C300 C301 1.391 . S
C300 C304 1.391 . S
C300 H342 0.948 . S
C301 C300 1.391 . S
C301 C302 1.391 . S
C302 C301 1.391 . S
C302 H358 0.947 . S
C302 C359 1.392 . S
C303 C304 1.391 . S
C303 C307 1.397 . S
C303 C359 1.419 . S
C304 C300 1.391 . S
C304 C303 1.391 . S
C304 C305 1.399 . S
C305 C304 1.399 . S
C305 C308 1.396 . S
C305 C317 1.453 . S
C305 C318 1.684 . S
H306 C330 0.948 . S
C307 C303 1.397 . S
C307 C308 1.394 . S
C307 C326 1.723 . S
C308 C305 1.396 . S
C308 C307 1.394 . S
C308 C338 1.723 . S
H309 C332 0.947 . S
H310 C333 0.948 . S
H311 C339 0.982 . S
H312 C340 0.979 . S
H313 C340 0.980 . S
H314 C340 0.983 . S
H315 C339 0.979 . S
H316 C339 0.977 . S
C317 C305 1.453 . S
C317 H346 0.982 . S
C317 H347 0.979 . S
C317 H348 0.977 . S
C318 C305 1.684 . S
C318 H343 0.979 . S
C318 H344 0.980 . S
C318 H345 0.983 . S
C319 C320 1.391 . S
C319 C324 1.391 . S
C319 H349 0.948 . S
C320 C319 1.391 . S
C320 C321 1.391 . S
C321 C320 1.391 . S
C321 C322 1.392 . S
C321 H350 0.947 . S
C322 C321 1.392 . S
C322 C323 1.419 . S
C322 H351 0.948 . S
C323 C322 1.419 . S
C323 C324 1.391 . S
C323 C327 1.397 . S
C324 C319 1.391 . S
C324 C323 1.391 . S
C324 C325 1.399 . S
C325 C324 1.399 . S
C325 C326 1.396 . S
C325 C328 1.453 . S
C325 C329 1.684 . S
C326 C307 1.723 . S
C326 C325 1.396 . S
C326 C327 1.394 . S
C327 C323 1.397 . S
C327 C326 1.394 . S
C327 C337 1.723 . S
C328 C325 1.453 . S
C328 H352 0.982 . S
C328 H353 0.979 1_545 S
C328 H354 0.977 . S
C329 C325 1.684 . S
C329 H355 0.979 . S
C329 H356 0.980 . S
C329 H357 0.983 . S
C330 H306 0.948 . S
C330 C331 1.391 . S
C330 C335 1.391 . S
C331 C330 1.391 . S
C331 C332 1.391 . S
C332 H309 0.947 . S
C332 C331 1.391 . S
C332 C333 1.392 . S
C333 H310 0.948 . S
C333 C332 1.392 . S
C333 C334 1.419 . S
C334 C333 1.419 . S
C334 C335 1.391 . S
C334 C338 1.397 . S
C335 C330 1.391 . S
C335 C334 1.391 . S
C335 C336 1.399 . S
C336 C335 1.399 . S
C336 C337 1.396 . S
C336 C339 1.453 . S
C336 C340 1.684 . S
C337 C327 1.723 . S
C337 C336 1.396 . S
C337 C338 1.394 . S
C338 C308 1.723 . S
C338 C334 1.397 . S
C338 C337 1.394 . S
C339 H311 0.982 . S
C339 H315 0.979 . S
C339 H316 0.977 . S
C339 C336 1.453 . S
C340 H312 0.979 . S
C340 H313 0.980 . S
C340 H314 0.983 . S
C340 C336 1.684 . S
H341 C359 0.948 . S
H342 C300 0.948 . S
H343 C318 0.979 . S
H344 C318 0.980 . S
H345 C318 0.983 . S
H346 C317 0.982 . S
H347 C317 0.979 . S
H348 C317 0.977 . S
H349 C319 0.948 . S
H350 C321 0.947 . S
H351 C322 0.948 . S
H352 C328 0.982 . S
H353 C328 0.979 1_565 S
H354 C328 0.977 . S
H355 C329 0.979 . S
H356 C329 0.980 . S
H357 C329 0.983 . S
H358 C302 0.947 . S
C359 C302 1.392 . S
C359 C303 1.419 . S
C359 H341 0.948 . S
C360 C361 1.391 . S
C360 C364 1.391 . S
C360 H402 0.948 . S
C361 C360 1.391 . S
C361 C362 1.391 . S
C362 C361 1.391 . S
C362 H418 0.947 . S
C362 C419 1.392 . S
C363 C364 1.391 . S
C363 C367 1.397 . S
C363 C419 1.419 . S
C364 C360 1.391 . S
C364 C363 1.391 . S
C364 C365 1.399 . S
C365 C364 1.399 . S
C365 C368 1.396 . S
C365 C377 1.453 . S
C365 C378 1.684 . S
H366 C390 0.948 . S
C367 C363 1.397 . S
C367 C368 1.394 . S
C367 C386 1.723 . S
C368 C365 1.396 . S
C368 C367 1.394 . S
C368 C398 1.723 . S
H369 C392 0.947 . S
H370 C393 0.948 . S
H371 C399 0.982 . S
H372 C400 0.979 . S
H373 C400 0.980 . S
H374 C400 0.983 . S
H375 C399 0.979 . S
H376 C399 0.977 . S
C377 C365 1.453 . S
C377 H406 0.982 . S
C377 H407 0.979 . S
C377 H408 0.977 . S
C378 C365 1.684 . S
C378 H403 0.979 . S
C378 H404 0.980 . S
C378 H405 0.983 . S
C379 C380 1.391 . S
C379 C384 1.391 . S
C379 H409 0.948 . S
C380 C379 1.391 . S
C380 C381 1.391 . S
C381 C380 1.391 . S
C381 C382 1.392 . S
C381 H410 0.947 1_554 S
C382 C381 1.392 . S
C382 C383 1.419 . S
C382 H411 0.948 . S
C383 C382 1.419 . S
C383 C384 1.391 . S
C383 C387 1.397 . S
C384 C379 1.391 . S
C384 C383 1.391 . S
C384 C385 1.399 . S
C385 C384 1.399 . S
C385 C386 1.396 . S
C385 C388 1.453 . S
C385 C389 1.684 . S
C386 C367 1.723 . S
C386 C385 1.396 . S
C386 C387 1.394 . S
C387 C383 1.397 . S
C387 C386 1.394 . S
C387 C397 1.723 . S
C388 C385 1.453 . S
C388 H412 0.982 . S
C388 H413 0.979 . S
C388 H414 0.977 . S
C389 C385 1.684 . S
C389 H415 0.979 . S
C389 H416 0.980 . S
C389 H417 0.983 . S
C390 H366 0.948 . S
C390 C391 1.391 . S
C390 C395 1.391 . S
C391 C390 1.391 . S
C391 C392 1.391 . S
C392 H369 0.947 . S
C392 C391 1.391 . S
C392 C393 1.392 . S
C393 H370 0.948 . S
C393 C392 1.392 . S
C393 C394 1.419 . S
C394 C393 1.419 . S
C394 C395 1.391 . S
C394 C398 1.397 . S
C395 C390 1.391 . S
C395 C394 1.391 . S
C395 C396 1.399 . S
C396 C395 1.399 . S
C396 C397 1.396 . S
C396 C399 1.453 . S
C396 C400 1.684 1_554 S
C397 C387 1.723 . S
C397 C396 1.396 . S
C397 C398 1.394 . S
C398 C368 1.723 . S
C398 C394 1.397 . S
C398 C397 1.394 . S
C399 H371 0.982 . S
C399 H375 0.979 . S
C399 H376 0.977 . S
C399 C396 1.453 . S
C400 H372 0.979 . S
C400 H373 0.980 . S
C400 H374 0.983 . S
C400 C396 1.684 1_556 S
H401 C419 0.948 . S
H402 C360 0.948 . S
H403 C378 0.979 . S
H404 C378 0.980 . S
H405 C378 0.983 . S
H406 C377 0.982 . S
H407 C377 0.979 . S
H408 C377 0.977 . S
H409 C379 0.948 . S
H410 C381 0.947 1_556 S
H411 C382 0.948 . S
H412 C388 0.982 . S
H413 C388 0.979 . S
H414 C388 0.977 . S
H415 C389 0.979 . S
H416 C389 0.980 . S
H417 C389 0.983 . S
H418 C362 0.947 . S
C419 C362 1.392 . S
C419 C363 1.419 . S
C419 H401 0.948 . S
C420 C421 1.391 . S
C420 C424 1.391 . S
C420 H462 0.948 . S
C421 C420 1.391 . S
C421 C422 1.391 . S
C422 C421 1.391 . S
C422 H478 0.947 . S
C422 C479 1.392 . S
C423 C424 1.391 . S
C423 C427 1.397 . S
C423 C479 1.419 . S
C424 C420 1.391 . S
C424 C423 1.391 . S
C424 C425 1.399 . S
C425 C424 1.399 . S
C425 C428 1.396 . S
C425 C437 1.469 . S
C425 C438 1.684 . S
H426 C450 0.948 . S
C427 C423 1.397 . S
C427 C428 1.394 . S
C427 C446 1.723 . S
C428 C425 1.396 . S
C428 C427 1.394 . S
C428 C458 1.723 . S
H429 C452 0.947 1_655 S
H430 C453 0.948 . S
H431 C459 0.982 . S
H432 C460 0.979 . S
H433 C460 0.980 . S
H434 C460 0.983 . S
H435 C459 0.979 . S
H436 C459 0.977 . S
C437 C425 1.469 . S
C437 H466 0.980 1_455 S
C437 H467 0.967 1_455 S
C437 H468 0.975 1_455 S
C438 C425 1.684 . S
C438 H463 0.979 . S
C438 H464 0.980 . S
C438 H465 0.983 . S
C439 C440 1.391 . S
C439 C444 1.391 . S
C439 H469 0.948 . S
C440 C439 1.391 . S
C440 C441 1.391 . S
C441 C440 1.391 . S
C441 C442 1.392 . S
C441 H470 0.947 . S
C442 C441 1.392 . S
C442 C443 1.419 . S
C442 H471 0.948 . S
C443 C442 1.419 . S
C443 C444 1.391 . S
C443 C447 1.397 . S
C444 C439 1.391 . S
C444 C443 1.391 . S
C444 C445 1.399 . S
C445 C444 1.399 . S
C445 C446 1.396 . S
C445 C448 1.453 . S
C445 C449 1.684 . S
C446 C427 1.723 . S
C446 C445 1.396 . S
C446 C447 1.394 . S
C447 C443 1.397 . S
C447 C446 1.394 . S
C447 C457 1.723 . S
C448 C445 1.453 . S
C448 H472 0.982 . S
C448 H473 0.979 . S
C448 H474 0.977 . S
C449 C445 1.684 . S
C449 H475 0.979 . S
C449 H476 0.980 . S
C449 H477 0.983 . S
C450 H426 0.948 . S
C450 C451 1.391 . S
C450 C455 1.391 . S
C451 C450 1.391 . S
C451 C452 1.391 . S
C452 H429 0.947 1_455 S
C452 C451 1.391 . S
C452 C453 1.392 . S
C453 H430 0.948 . S
C453 C452 1.392 . S
C453 C454 1.419 . S
C454 C453 1.419 . S
C454 C455 1.391 . S
C454 C458 1.397 . S
C455 C450 1.391 . S
C455 C454 1.391 . S
C455 C456 1.399 . S
C456 C455 1.399 . S
C456 C457 1.396 . S
C456 C459 1.453 . S
C456 C460 1.684 . S
C457 C447 1.723 . S
C457 C456 1.396 . S
C457 C458 1.394 . S
C458 C428 1.723 . S
C458 C454 1.397 . S
C458 C457 1.394 . S
C459 H431 0.982 . S
C459 H435 0.979 . S
C459 H436 0.977 . S
C459 C456 1.453 . S
C460 H432 0.979 . S
C460 H433 0.980 . S
C460 H434 0.983 . S
C460 C456 1.684 . S
H461 C479 0.948 . S
H462 C420 0.948 . S
H463 C438 0.979 . S
H464 C438 0.980 . S
H465 C438 0.983 . S
H466 C437 0.980 1_655 S
H467 C437 0.967 1_655 S
H468 C437 0.975 1_655 S
H469 C439 0.948 . S
H470 C441 0.947 . S
H471 C442 0.948 . S
H472 C448 0.982 . S
H473 C448 0.979 . S
H474 C448 0.977 . S
H475 C449 0.979 . S
H476 C449 0.980 . S
H477 C449 0.983 . S
H478 C422 0.947 . S
C479 C422 1.392 . S
C479 C423 1.419 . S
C479 H461 0.948 . S
Zn480 O486 1.920 . S
Zn480 O492 1.898 . S
Zn480 O495 1.905 . S
Zn481 O489 1.905 1_565 S
Zn481 O490 1.898 . S
Zn481 O498 1.920 . S
Zn482 O485 2.080 1_455 S
Zn482 O488 2.114 . S
Zn482 O491 2.120 1_445 S
Zn482 O493 2.120 . S
Zn482 O494 2.114 1_455 S
Zn482 O497 2.080 . S
C483 O488 1.166 . S
C483 O489 1.182 . S
C484 O490 1.167 1_655 S
C484 O491 1.299 . S
O485 Zn482 2.080 1_655 S
O485 C499 1.305 . S
O486 Zn480 1.920 . S
O486 C499 1.234 . S
C487 O492 1.167 1_455 S
C487 O493 1.299 . S
O488 Zn482 2.114 . S
O488 C483 1.166 . S
O489 Zn481 1.905 1_545 S
O489 C483 1.182 . S
O490 Zn481 1.898 . S
O490 C484 1.167 1_455 S
O491 Zn482 2.120 1_665 S
O491 C484 1.299 . S
O492 Zn480 1.898 . S
O492 C487 1.167 1_655 S
O493 Zn482 2.120 . S
O493 C487 1.299 . S
O494 Zn482 2.114 1_655 S
O494 C496 1.166 . S
O495 Zn480 1.905 . S
O495 C496 1.182 . S
C496 O494 1.166 . S
C496 O495 1.182 . S
O497 Zn482 2.080 . S
O497 C500 1.305 1_545 S
O498 Zn481 1.920 . S
O498 C500 1.234 . S
C499 O485 1.305 . S
C499 O486 1.234 . S
C500 O497 1.305 1_565 S
C500 O498 1.234 . S
Zn501 O507 1.920 1_556 S
Zn501 O513 1.898 . S
Zn501 O516 1.905 . S
Zn502 O510 1.905 . S
Zn502 O511 1.898 . S
Zn502 O519 1.920 . S
Zn503 O506 2.080 . S
Zn503 O509 2.114 1_545 S
Zn503 O512 2.120 1_545 S
Zn503 O514 2.120 . S
Zn503 O515 2.114 1_544 S
Zn503 O518 2.080 . S
C504 O509 1.166 . S
C504 O510 1.182 . S
C505 O511 1.167 . S
C505 O512 1.299 . S
O506 Zn503 2.080 . S
O506 C520 1.305 . S
O507 Zn501 1.920 1_554 S
O507 C520 1.234 . S
C508 O513 1.167 . S
C508 O514 1.299 1_556 S
O509 Zn503 2.114 1_565 S
O509 C504 1.166 . S
O510 Zn502 1.905 . S
O510 C504 1.182 . S
O511 Zn502 1.898 . S
O511 C505 1.167 . S
O512 Zn503 2.120 1_565 S
O512 C505 1.299 . S
O513 Zn501 1.898 . S
O513 C508 1.167 . S
O514 Zn503 2.120 . S
O514 C508 1.299 1_554 S
O515 Zn503 2.114 1_566 S
O515 C517 1.166 . S
O516 Zn501 1.905 . S
O516 C517 1.182 1_545 S
C517 O515 1.166 . S
C517 O516 1.182 1_565 S
O518 Zn503 2.080 . S
O518 C521 1.305 . S
O519 Zn502 1.920 . S
O519 C521 1.234 1_565 S
C520 O506 1.305 . S
C520 O507 1.234 . S
C521 O518 1.305 . S
C521 O519 1.234 1_545 S
Zn522 O528 1.920 . S
Zn522 O534 1.898 . S
Zn522 O537 1.905 . S
Zn523 O531 1.905 . S
Zn523 O532 1.898 . S
Zn523 O540 1.920 . S
Zn524 O527 2.080 . S
Zn524 O530 2.114 . S
Zn524 O533 2.120 . S
Zn524 O535 2.120 . S
Zn524 O536 2.114 . S
Zn524 O539 2.080 . S
C525 O530 1.166 . S
C525 O531 1.182 . S
C526 O532 1.167 . S
C526 O533 1.299 . S
O527 Zn524 2.080 . S
O527 C541 1.305 . S
O528 Zn522 1.920 . S
O528 C541 1.234 . S
C529 O534 1.167 . S
C529 O535 1.299 . S
O530 Zn524 2.114 . S
O530 C525 1.166 . S
O531 Zn523 1.905 . S
O531 C525 1.182 . S
O532 Zn523 1.898 . S
O532 C526 1.167 . S
O533 Zn524 2.120 . S
O533 C526 1.299 . S
O534 Zn522 1.898 . S
O534 C529 1.167 . S
O535 Zn524 2.120 . S
O535 C529 1.299 . S
O536 Zn524 2.114 . S
O536 C538 1.166 . S
O537 Zn522 1.905 . S
O537 C538 1.182 . S
C538 O536 1.166 . S
C538 O537 1.182 . S
O539 Zn524 2.080 . S
O539 C542 1.305 . S
O540 Zn523 1.920 . S
O540 C542 1.234 . S
C541 O527 1.305 . S
C541 O528 1.234 . S
C542 O539 1.305 . S
C542 O540 1.234 . S
Zn543 O549 1.920 . S
Zn543 O555 1.898 . S
Zn543 O558 1.905 . S
Zn544 O552 1.905 1_655 S
Zn544 O553 1.898 . S
Zn544 O561 1.920 . S
Zn545 O548 2.080 1_554 S
Zn545 O551 2.114 . S
Zn545 O554 2.120 1_454 S
Zn545 O556 2.120 . S
Zn545 O557 2.114 1_554 S
Zn545 O560 2.080 . S
C546 O551 1.166 . S
C546 O552 1.182 . S
C547 O553 1.167 1_556 S
C547 O554 1.299 . S
O548 Zn545 2.080 1_556 S
O548 C562 1.305 . S
O549 Zn543 1.920 . S
O549 C562 1.234 . S
C550 O555 1.167 1_554 S
C550 O556 1.299 . S
O551 Zn545 2.114 . S
O551 C546 1.166 . S
O552 Zn544 1.905 1_455 S
O552 C546 1.182 . S
O553 Zn544 1.898 . S
O553 C547 1.167 1_554 S
O554 Zn545 2.120 1_656 S
O554 C547 1.299 . S
O555 Zn543 1.898 . S
O555 C550 1.167 1_556 S
O556 Zn545 2.120 . S
O556 C550 1.299 . S
O557 Zn545 2.114 1_556 S
O557 C559 1.166 . S
O558 Zn543 1.905 . S
O558 C559 1.182 . S
C559 O557 1.166 . S
C559 O558 1.182 . S
O560 Zn545 2.080 . S
O560 C563 1.305 1_455 S
O561 Zn544 1.920 . S
O561 C563 1.234 . S
C562 O548 1.305 . S
C562 O549 1.234 . S
C563 O560 1.305 1_655 S
C563 O561 1.234 . S
C564 C565 1.369 . S
C564 C566 1.419 . S
C564 H568 0.930 . S
C565 C564 1.369 . S
C565 C574 1.429 . S
C566 C564 1.419 . S
C566 C567 1.363 . S
C566 H569 0.929 . S
C567 C566 1.363 . S
C567 C573 1.428 . S
H568 C564 0.930 . S
H569 C566 0.929 . S
S570 N571 1.613 . S
S570 N572 1.610 . S
N571 S570 1.613 . S
N571 C574 1.350 . S
N572 S570 1.610 . S
N572 C573 1.351 . S
C573 C567 1.428 . S
C573 N572 1.351 . S
C573 C574 1.434 . S
C574 C565 1.429 . S
C574 N571 1.350 . S
C574 C573 1.434 . S
C575 C576 1.369 . S
C575 C577 1.419 . S
C575 H579 0.930 . S
C576 C575 1.369 . S
C576 C585 1.429 . S
C577 C575 1.419 . S
C577 C578 1.363 . S
C577 H580 0.929 . S
C578 C577 1.363 . S
C578 C584 1.428 . S
H579 C575 0.930 . S
H580 C577 0.929 . S
S581 N582 1.613 . S
S581 N583 1.610 . S
N582 S581 1.613 . S
N582 C585 1.350 . S
N583 S581 1.610 . S
N583 C584 1.351 . S
C584 C578 1.428 . S
C584 N583 1.351 . S
C584 C585 1.434 . S
C585 C576 1.429 . S
C585 N582 1.350 . S
C585 C584 1.434 . S
C586 C587 1.369 . S
C586 C588 1.419 . S
C586 H590 0.930 . S
C587 C586 1.369 . S
C587 C596 1.429 . S
C588 C586 1.419 . S
C588 C589 1.363 . S
C588 H591 0.929 . S
C589 C588 1.363 . S
C589 C595 1.428 . S
H590 C586 0.930 . S
H591 C588 0.929 . S
S592 N593 1.613 . S
S592 N594 1.610 . S
N593 S592 1.613 . S
N593 C596 1.350 . S
N594 S592 1.610 . S
N594 C595 1.351 . S
C595 C589 1.428 . S
C595 N594 1.351 . S
C595 C596 1.434 . S
C596 C587 1.429 . S
C596 N593 1.350 . S
C596 C595 1.434 . S
C597 C598 1.369 . S
C597 C599 1.419 . S
C597 H601 0.930 . S
C598 C597 1.369 . S
C598 C607 1.429 . S
C599 C597 1.419 . S
C599 C600 1.363 . S
C599 H602 0.929 1_655 S
C600 C599 1.363 . S
C600 C606 1.428 . S
H601 C597 0.930 . S
H602 C599 0.929 1_455 S
S603 N604 1.613 . S
S603 N605 1.610 . S
N604 S603 1.613 . S
N604 C607 1.350 . S
N605 S603 1.610 . S
N605 C606 1.351 . S
C606 C600 1.428 . S
C606 N605 1.351 . S
C606 C607 1.434 . S
C607 C598 1.429 . S
C607 N604 1.350 . S
C607 C606 1.434 . S
C608 C609 1.369 . S
C608 C610 1.419 . S
C608 H612 0.930 . S
C609 C608 1.369 . S
C609 C618 1.429 . S
C610 C608 1.419 . S
C610 C611 1.363 . S
C610 H613 0.929 . S
C611 C610 1.363 . S
C611 C617 1.428 . S
H612 C608 0.930 . S
H613 C610 0.929 . S
S614 N615 1.613 . S
S614 N616 1.610 . S
N615 S614 1.613 . S
N615 C618 1.350 . S
N616 S614 1.610 . S
N616 C617 1.351 . S
C617 C611 1.428 . S
C617 N616 1.351 . S
C617 C618 1.434 . S
C618 C609 1.429 . S
C618 N615 1.350 . S
C618 C617 1.434 . S
C619 C620 1.369 . S
C619 C621 1.419 . S
C619 H623 0.930 . S
C620 C619 1.369 . S
C620 C629 1.429 . S
C621 C619 1.419 . S
C621 C622 1.363 . S
C621 H624 0.929 . S
C622 C621 1.363 . S
C622 C628 1.428 . S
H623 C619 0.930 . S
H624 C621 0.929 . S
S625 N626 1.613 . S
S625 N627 1.610 . S
N626 S625 1.613 . S
N626 C629 1.350 . S
N627 S625 1.610 . S
N627 C628 1.351 . S
C628 C622 1.428 . S
C628 N627 1.351 . S
C628 C629 1.434 . S
C629 C620 1.429 . S
C629 N626 1.350 . S
C629 C628 1.434 . S
C630 C631 1.369 . S
C630 C632 1.419 . S
C630 H634 0.930 . S
C631 C630 1.369 . S
C631 C640 1.429 . S
C632 C630 1.419 . S
C632 C633 1.363 . S
C632 H635 0.929 . S
C633 C632 1.363 . S
C633 C639 1.428 . S
H634 C630 0.930 . S
H635 C632 0.929 . S
S636 N637 1.613 . S
S636 N638 1.610 . S
N637 S636 1.613 . S
N637 C640 1.350 . S
N638 S636 1.610 . S
N638 C639 1.351 . S
C639 C633 1.428 . S
C639 N638 1.351 . S
C639 C640 1.434 . S
C640 C631 1.429 . S
C640 N637 1.350 . S
C640 C639 1.434 . S
C641 C642 1.369 . S
C641 C643 1.419 . S
C641 H645 0.930 . S
C642 C641 1.369 . S
C642 C651 1.429 . S
C643 C641 1.419 . S
C643 C644 1.363 . S
C643 H646 0.929 . S
C644 C643 1.363 . S
C644 C650 1.428 . S
H645 C641 0.930 . S
H646 C643 0.929 . S
S647 N648 1.613 . S
S647 N649 1.610 . S
N648 S647 1.613 . S
N648 C651 1.350 . S
N649 S647 1.610 . S
N649 C650 1.351 . S
C650 C644 1.428 . S
C650 N649 1.351 . S
C650 C651 1.434 . S
C651 C642 1.429 . S
C651 N648 1.350 . S
C651 C650 1.434 . S
C652 C653 1.369 . S
C652 C654 1.419 . S
C652 H656 0.930 . S
C653 C652 1.369 . S
C653 C662 1.429 . S
C654 C652 1.419 . S
C654 C655 1.363 . S
C654 H657 0.929 . S
C655 C654 1.363 . S
C655 C661 1.428 . S
H656 C652 0.930 . S
H657 C654 0.929 . S
S658 N659 1.613 . S
S658 N660 1.610 . S
N659 S658 1.613 . S
N659 C662 1.350 . S
N660 S658 1.610 . S
N660 C661 1.351 . S
C661 C655 1.428 . S
C661 N660 1.351 . S
C661 C662 1.434 . S
C662 C653 1.429 . S
C662 N659 1.350 . S
C662 C661 1.434 . S
C663 C664 1.369 . S
C663 C665 1.419 . S
C663 H667 0.930 . S
C664 C663 1.369 . S
C664 C673 1.429 . S
C665 C663 1.419 . S
C665 C666 1.363 . S
C665 H668 0.929 1_556 S
C666 C665 1.363 . S
C666 C672 1.428 . S
H667 C663 0.930 . S
H668 C665 0.929 1_554 S
S669 N670 1.613 . S
S669 N671 1.610 . S
N670 S669 1.613 . S
N670 C673 1.350 . S
N671 S669 1.610 . S
N671 C672 1.351 . S
C672 C666 1.428 . S
C672 N671 1.351 . S
C672 C673 1.434 . S
C673 C664 1.429 . S
C673 N670 1.350 . S
C673 C672 1.434 . S
C674 C675 1.369 . S
C674 C676 1.419 . S
C674 H678 0.930 . S
C675 C674 1.369 . S
C675 C684 1.429 . S
C676 C674 1.419 . S
C676 C677 1.363 . S
C676 H679 0.929 . S
C677 C676 1.363 . S
C677 C683 1.428 . S
H678 C674 0.930 . S
H679 C676 0.929 . S
S680 N681 1.613 . S
S680 N682 1.610 . S
N681 S680 1.613 . S
N681 C684 1.350 . S
N682 S680 1.610 . S
N682 C683 1.351 . S
C683 C677 1.428 . S
C683 N682 1.351 . S
C683 C684 1.434 . S
C684 C675 1.429 . S
C684 N681 1.350 . S
C684 C683 1.434 . S
C685 C686 1.369 . S
C685 C687 1.419 . S
C685 H689 0.930 . S
C686 C685 1.369 . S
C686 C695 1.429 . S
C687 C685 1.419 . S
C687 C688 1.363 . S
C687 H690 0.929 . S
C688 C687 1.363 . S
C688 C694 1.428 . S
H689 C685 0.930 . S
H690 C687 0.929 . S
S691 N692 1.613 . S
S691 N693 1.610 . S
N692 S691 1.613 . S
N692 C695 1.350 . S
N693 S691 1.610 . S
N693 C694 1.351 . S
C694 C688 1.428 . S
C694 N693 1.351 . S
C694 C695 1.434 . S
C695 C686 1.429 . S
C695 N692 1.350 . S
C695 C694 1.434 . S
C696 C697 1.369 . S
C696 C698 1.419 . S
C696 H700 0.930 . S
C697 C696 1.369 . S
C697 C706 1.429 1_645 S
C698 C696 1.419 . S
C698 C699 1.363 . S
C698 H701 0.929 . S
C699 C698 1.363 . S
C699 C705 1.428 1_645 S
H700 C696 0.930 . S
H701 C698 0.929 . S
S702 N703 1.613 . S
S702 N704 1.610 . S
N703 S702 1.613 . S
N703 C706 1.350 . S
N704 S702 1.610 . S
N704 C705 1.351 . S
C705 C699 1.428 1_465 S
C705 N704 1.351 . S
C705 C706 1.434 . S
C706 C697 1.429 1_465 S
C706 N703 1.350 . S
C706 C705 1.434 . S
C707 C708 1.369 1_565 S
C707 C709 1.419 . S
C707 H711 0.930 . S
C708 C707 1.369 1_545 S
C708 C717 1.429 . S
C709 C707 1.419 . S
C709 C710 1.363 1_565 S
C709 H712 0.929 . S
C710 C709 1.363 1_545 S
C710 C716 1.428 . S
H711 C707 0.930 . S
H712 C709 0.929 . S
S713 N714 1.613 . S
S713 N715 1.610 . S
N714 S713 1.613 . S
N714 C717 1.350 . S
N715 S713 1.610 . S
N715 C716 1.351 . S
C716 C710 1.428 . S
C716 N715 1.351 . S
C716 C717 1.434 . S
C717 C708 1.429 . S
C717 N714 1.350 . S
C717 C716 1.434 . S
C718 C719 1.369 . S
C718 C720 1.419 . S
C718 H722 0.930 . S
C719 C718 1.369 . S
C719 C728 1.429 . S
C720 C718 1.419 . S
C720 C721 1.363 . S
C720 H723 0.929 . S
C721 C720 1.363 . S
C721 C727 1.428 . S
H722 C718 0.930 . S
H723 C720 0.929 . S
S724 N725 1.613 . S
S724 N726 1.610 . S
N725 S724 1.613 . S
N725 C728 1.350 . S
N726 S724 1.610 . S
N726 C727 1.351 . S
C727 C721 1.428 . S
C727 N726 1.351 . S
C727 C728 1.434 . S
C728 C719 1.429 . S
C728 N725 1.350 . S
C728 C727 1.434 . S
C729 C730 1.369 . S
C729 C731 1.419 . S
C729 H733 0.930 . S
C730 C729 1.369 . S
C730 C739 1.429 . S
C731 C729 1.419 . S
C731 C732 1.363 . S
C731 H734 0.929 . S
C732 C731 1.363 . S
C732 C738 1.428 . S
H733 C729 0.930 . S
H734 C731 0.929 . S
S735 N736 1.613 . S
S735 N737 1.610 . S
N736 S735 1.613 . S
N736 C739 1.350 1_655 S
N737 S735 1.610 . S
N737 C738 1.351 1_655 S
C738 C732 1.428 . S
C738 N737 1.351 1_455 S
C738 C739 1.434 . S
C739 C730 1.429 . S
C739 N736 1.350 1_455 S
C739 C738 1.434 . S
C740 C741 1.369 . S
C740 C742 1.419 . S
C740 H744 0.930 . S
C741 C740 1.369 . S
C741 C750 1.429 1_564 S
C742 C740 1.419 . S
C742 C743 1.363 . S
C742 H745 0.929 . S
C743 C742 1.363 . S
C743 C749 1.428 1_564 S
H744 C740 0.930 . S
H745 C742 0.929 . S
S746 N747 1.613 . S
S746 N748 1.610 . S
N747 S746 1.613 . S
N747 C750 1.350 . S
N748 S746 1.610 . S
N748 C749 1.351 . S
C749 C743 1.428 1_546 S
C749 N748 1.351 . S
C749 C750 1.434 . S
C750 C741 1.429 1_546 S
C750 N747 1.350 . S
C750 C749 1.434 . S
C751 C752 1.369 . S
C751 C753 1.419 . S
C751 H755 0.930 . S
C752 C751 1.369 . S
C752 C761 1.429 . S
C753 C751 1.419 . S
C753 C754 1.363 . S
C753 H756 0.929 . S
C754 C753 1.363 . S
C754 C760 1.428 . S
H755 C751 0.930 . S
H756 C753 0.929 . S
S757 N758 1.613 . S
S757 N759 1.610 . S
N758 S757 1.613 . S
N758 C761 1.350 . S
N759 S757 1.610 . S
N759 C760 1.351 . S
C760 C754 1.428 . S
C760 N759 1.351 . S
C760 C761 1.434 . S
C761 C752 1.429 . S
C761 N758 1.350 . S
C761 C760 1.434 . S
C762 C763 1.369 1_556 S
C762 C764 1.419 . S
C762 H766 0.930 . S
C763 C762 1.369 1_554 S
C763 C772 1.429 . S
C764 C762 1.419 . S
C764 C765 1.363 1_556 S
C764 H767 0.929 . S
C765 C764 1.363 1_554 S
C765 C771 1.428 . S
H766 C762 0.930 . S
H767 C764 0.929 . S
S768 N769 1.613 . S
S768 N770 1.610 . S
N769 S768 1.613 . S
N769 C772 1.350 . S
N770 S768 1.610 . S
N770 C771 1.351 . S
C771 C765 1.428 . S
C771 N770 1.351 . S
C771 C772 1.434 . S
C772 C763 1.429 . S
C772 N769 1.350 . S
C772 C771 1.434 . S
C773 C774 1.369 . S
C773 C775 1.419 . S
C773 H777 0.930 . S
C774 C773 1.369 . S
C774 C783 1.429 . S
C775 C773 1.419 . S
C775 C776 1.363 . S
C775 H778 0.929 . S
C776 C775 1.363 . S
C776 C782 1.428 . S
H777 C773 0.930 . S
H778 C775 0.929 . S
S779 N780 1.613 . S
S779 N781 1.610 . S
N780 S779 1.613 . S
N780 C783 1.350 . S
N781 S779 1.610 . S
N781 C782 1.351 . S
C782 C776 1.428 . S
C782 N781 1.351 . S
C782 C783 1.434 . S
C783 C774 1.429 . S
C783 N780 1.350 . S
C783 C782 1.434 . S
C784 C785 1.389 . S
C784 C786 1.419 . S
C784 H788 0.930 . S
C785 C784 1.389 . S
C785 C794 1.411 1_456 S
C786 C784 1.419 . S
C786 C787 1.363 . S
C786 H789 0.929 . S
C787 C786 1.363 . S
C787 C793 1.428 1_456 S
H788 C784 0.930 . S
H789 C786 0.929 . S
S790 N791 1.613 . S
S790 N792 1.610 . S
N791 S790 1.613 . S
N791 C794 1.350 . S
N792 S790 1.610 . S
N792 C793 1.351 . S
C793 C787 1.428 1_654 S
C793 N792 1.351 . S
C793 C794 1.434 . S
C794 C785 1.411 1_654 S
C794 N791 1.350 . S
C794 C793 1.434 . S
C795 C796 1.369 . S
C795 C797 1.419 . S
C795 H799 0.930 . S
C796 C795 1.369 . S
C796 C805 1.429 . S
C797 C795 1.419 . S
C797 C798 1.363 . S
C797 H800 0.929 . S
C798 C797 1.363 . S
C798 C804 1.428 . S
H799 C795 0.930 . S
H800 C797 0.929 . S
S801 N802 1.613 1_556 S
S801 N803 1.610 1_556 S
N802 S801 1.613 1_554 S
N802 C805 1.350 . S
N803 S801 1.610 1_554 S
N803 C804 1.351 . S
C804 C798 1.428 . S
C804 N803 1.351 . S
C804 C805 1.434 . S
C805 C796 1.429 . S
C805 N802 1.350 . S
C805 C804 1.434 . S
C806 C807 1.369 . S
C806 C808 1.419 . S
C806 H810 0.930 1_455 S
C807 C806 1.369 . S
C807 C816 1.429 . S
C808 C806 1.419 . S
C808 C809 1.363 . S
C808 H811 0.929 1_455 S
C809 C808 1.363 . S
C809 C815 1.428 . S
H810 C806 0.930 1_655 S
H811 C808 0.929 1_655 S
S812 N813 1.613 . S
S812 N814 1.610 . S
N813 S812 1.613 . S
N813 C816 1.350 . S
N814 S812 1.610 . S
N814 C815 1.351 . S
C815 C809 1.428 . S
C815 N814 1.351 . S
C815 C816 1.434 . S
C816 C807 1.429 . S
C816 N813 1.350 . S
C816 C815 1.434 . S
C817 C818 1.369 . S
C817 C819 1.419 . S
C817 H821 0.930 . S
C818 C817 1.369 . S
C818 C827 1.429 . S
C819 C817 1.419 . S
C819 C820 1.363 . S
C819 H822 0.929 . S
C820 C819 1.363 . S
C820 C826 1.428 . S
H821 C817 0.930 . S
H822 C819 0.929 . S
S823 N824 1.613 . S
S823 N825 1.610 . S
N824 S823 1.613 . S
N824 C827 1.350 . S
N825 S823 1.610 . S
N825 C826 1.351 . S
C826 C820 1.428 . S
C826 N825 1.351 . S
C826 C827 1.434 . S
C827 C818 1.429 . S
C827 N824 1.350 . S
C827 C826 1.434 . S
C565 C1 1.517 . S
C567 C483 1.434 . S
C576 C80 1.498 . S
C578 C517 1.414 . S
C589 C529 1.404 . S
C587 C140 1.476 . S
C598 C211 1.498 . S
C600 C563 1.410 . S
C611 C520 1.425 . S
C609 C31 1.506 . S
C622 C500 1.415 . S
C620 C61 1.492 . S
C633 C547 1.397 . S
C631 C151 1.466 . S
C644 C538 1.420 . S
C642 C200 1.502 . S
C653 C20 1.511 . S
C655 C546 1.429 . S
C666 C508 1.404 . S
C664 C121 1.476 . S
C675 C181 1.494 . S
C677 C484 1.409 . S
C686 C91 1.493 . S
C688 C541 1.417 . S
C699 C499 1.671 . S
C697 C260 1.763 . S
C708 C320 1.650 . S
C710 C521 1.668 . S
C719 C361 1.782 . S
C721 C526 1.684 . S
C730 C451 1.687 . S
C732 C559 1.706 . S
C741 C271 1.777 . S
C743 C504 1.690 . S
C754 C496 1.687 . S
C752 C301 1.675 . S
C765 C550 1.696 . S
C763 C380 1.787 . S
C776 C542 1.671 . S
C774 C440 1.669 . S
C785 C241 1.760 . S
C787 C562 1.666 . S
C798 C505 1.696 . S
C796 C391 1.788 . S
C809 C487 1.666 . S
C807 C421 1.659 . S
C818 C331 1.668 . S
C820 C525 1.688 . S
