# Generated by pormake.
# Topology nom, (4,4)-cn, num edge types: 1
# Building blocks:
#     Node 0, Type 0, BuildingBlock: NAWXER_clean_linker_0, # of connection points: 4
#     Node 1, Type 0, BuildingBlock: NAWXER_clean_linker_0, # of connection points: 4
#     Node 2, Type 0, BuildingBlock: NAWXER_clean_linker_0, # of connection points: 4
#     Node 3, Type 0, BuildingBlock: NAWXER_clean_linker_0, # of connection points: 4
#     Node 4, Type 0, BuildingBlock: NAWXER_clean_linker_0, # of connection points: 4
#     Node 5, Type 0, BuildingBlock: NAWXER_clean_linker_0, # of connection points: 4
#     Node 6, Type 1, BuildingBlock: QUQFOY_clean_sbu_3, # of connection points: 4
#     Node 7, Type 1, BuildingBlock: QUQFOY_clean_sbu_3, # of connection points: 4
#     Node 8, Type 1, BuildingBlock: QUQFOY_clean_sbu_3, # of connection points: 4
#     Node 9, Type 1, BuildingBlock: QUQFOY_clean_sbu_3, # of connection points: 4
#     Node 10, Type 1, BuildingBlock: QUQFOY_clean_sbu_3, # of connection points: 4
#     Node 11, Type 1, BuildingBlock: QUQFOY_clean_sbu_3, # of connection points: 4
#     Edge 12, Type (0, 1), BuildingBlock: EZIPEK_clean_linker_0, # of connection points: 2
#     Edge 13, Type (0, 1), BuildingBlock: EZIPEK_clean_linker_0, # of connection points: 2
#     Edge 14, Type (0, 1), BuildingBlock: EZIPEK_clean_linker_0, # of connection points: 2
#     Edge 15, Type (0, 1), BuildingBlock: EZIPEK_clean_linker_0, # of connection points: 2
#     Edge 16, Type (0, 1), BuildingBlock: EZIPEK_clean_linker_0, # of connection points: 2
#     Edge 17, Type (0, 1), BuildingBlock: EZIPEK_clean_linker_0, # of connection points: 2
#     Edge 18, Type (0, 1), BuildingBlock: EZIPEK_clean_linker_0, # of connection points: 2
#     Edge 19, Type (0, 1), BuildingBlock: EZIPEK_clean_linker_0, # of connection points: 2
#     Edge 20, Type (0, 1), BuildingBlock: EZIPEK_clean_linker_0, # of connection points: 2
#     Edge 21, Type (0, 1), BuildingBlock: EZIPEK_clean_linker_0, # of connection points: 2
#     Edge 22, Type (0, 1), BuildingBlock: EZIPEK_clean_linker_0, # of connection points: 2
#     Edge 23, Type (0, 1), BuildingBlock: EZIPEK_clean_linker_0, # of connection points: 2
#     Edge 24, Type (0, 1), BuildingBlock: EZIPEK_clean_linker_0, # of connection points: 2
#     Edge 25, Type (0, 1), BuildingBlock: EZIPEK_clean_linker_0, # of connection points: 2
#     Edge 26, Type (0, 1), BuildingBlock: EZIPEK_clean_linker_0, # of connection points: 2
#     Edge 27, Type (0, 1), BuildingBlock: EZIPEK_clean_linker_0, # of connection points: 2
#     Edge 28, Type (0, 1), BuildingBlock: EZIPEK_clean_linker_0, # of connection points: 2
#     Edge 29, Type (0, 1), BuildingBlock: EZIPEK_clean_linker_0, # of connection points: 2
#     Edge 30, Type (0, 1), BuildingBlock: EZIPEK_clean_linker_0, # of connection points: 2
#     Edge 31, Type (0, 1), BuildingBlock: EZIPEK_clean_linker_0, # of connection points: 2
#     Edge 32, Type (0, 1), BuildingBlock: EZIPEK_clean_linker_0, # of connection points: 2
#     Edge 33, Type (0, 1), BuildingBlock: EZIPEK_clean_linker_0, # of connection points: 2
#     Edge 34, Type (0, 1), BuildingBlock: EZIPEK_clean_linker_0, # of connection points: 2
#     Edge 35, Type (0, 1), BuildingBlock: EZIPEK_clean_linker_0, # of connection points: 2
# Relax obj value: 0.007
# Max RMSD: 0.111
# Mean RMSD: 0.075
data_MOF--net-nom--node1-QUQFOY_clean_sbu_3--node2-NAWXER_clean_linker_0--edge1-EZIPEK_clean_linker_0
_symmetry_space_group_name_H-M    P1
_symmetry_Int_Tables_number       1
_symmetry_cell_setting            triclinic
loop_
_symmetry_equiv_pos_as_xyz
'x, y, z'
_cell_length_a     41.366999
_cell_length_b     42.427453
_cell_length_c     45.675734
_cell_angle_alpha  89.936117
_cell_angle_beta   90.131332
_cell_angle_gamma 120.05389
loop_
_atom_site_label
_atom_site_type_symbol
_atom_site_fract_x
_atom_site_fract_y
_atom_site_fract_z
_atom_type_partial_charge
C0 C 0.86135 0.47641 0.33076 0.0
C1 C 0.84625 0.45179 0.35408 0.0
C2 C 0.89626 0.48559 0.31949 0.0
C3 C 0.91656 0.47011 0.33128 0.0
C4 C 0.86597 0.43556 0.36548 0.0
C5 C 0.90113 0.44498 0.35432 0.0
C6 C 0.95563 0.48396 0.32221 0.0
C7 C 0.88665 0.42381 0.24403 0.0
C8 C 0.89194 0.44572 0.21946 0.0
C9 C 0.9108 0.43794 0.26803 0.0
C10 C 0.9404 0.47421 0.26778 0.0
C11 C 0.92163 0.48174 0.21903 0.0
C12 C 0.94576 0.49582 0.24294 0.0
C13 C 0.96691 0.48945 0.29262 0.0
C14 C 0.13636 0.57442 0.30181 0.0
C15 C 0.14238 0.60212 0.28199 0.0
C16 C 0.09994 0.54842 0.30983 0.0
C17 C 0.06934 0.55038 0.29851 0.0
C18 C 0.11189 0.60331 0.26991 0.0
C19 C 0.07566 0.57761 0.27807 0.0
C20 C 0.03052 0.52489 0.30769 0.0
C21 C 0.09241 0.58386 0.38991 0.0
C22 C 0.09414 0.55998 0.41031 0.0
C23 C 0.06821 0.57009 0.36593 0.0
C24 C 0.04561 0.5323 0.36207 0.0
C25 C 0.07129 0.52226 0.40659 0.0
C26 C 0.04697 0.50853 0.38274 0.0
C27 C 0.01935 0.51727 0.33726 0.0
H28 H 0.84653 0.4893 0.32185 0.0
H29 H 0.90803 0.50595 0.30238 0.0
H30 H 0.85462 0.41652 0.38353 0.0
H31 H 0.9166 0.4332 0.36402 0.0
H32 H 0.86399 0.39584 0.24452 0.0
H33 H 0.90665 0.42038 0.28657 0.0
H34 H 0.92611 0.4989 0.20013 0.0
H35 H 0.9685 0.52375 0.24212 0.0
H36 H 0.15977 0.57312 0.31112 0.0
H37 H 0.09575 0.52706 0.32499 0.0
H38 H 0.11622 0.62452 0.25451 0.0
H39 H 0.05253 0.57956 0.2689 0.0
H40 H 0.1097 0.61305 0.39263 0.0
H41 H 0.06696 0.58888 0.35053 0.0
H42 H 0.07221 0.50353 0.42225 0.0
H43 H 0.02942 0.47932 0.38026 0.0
N44 N 0.98231 0.49734 0.34339 0.0
N45 N 0.00387 0.5103 0.28654 0.0
C46 C 0.38671 0.87253 0.49634 0.0
C47 C 0.40046 0.85602 0.51539 0.0
C48 C 0.40999 0.90803 0.48661 0.0
C49 C 0.44737 0.92767 0.49587 0.0
C50 C 0.43781 0.87559 0.52476 0.0
C51 C 0.46102 0.91144 0.51533 0.0
C52 C 0.47116 0.96585 0.48658 0.0
C53 C 0.45989 0.89873 0.40741 0.0
C54 C 0.44144 0.90375 0.38363 0.0
C55 C 0.47035 0.92207 0.43153 0.0
C56 C 0.46221 0.95054 0.43226 0.0
C57 C 0.43344 0.93217 0.38422 0.0
C58 C 0.44387 0.95548 0.40831 0.0
C59 C 0.47474 0.97663 0.45697 0.0
C60 C 0.56744 0.14082 0.46349 0.0
C61 C 0.54439 0.14954 0.44691 0.0
C62 C 0.55496 0.10467 0.47135 0.0
C63 C 0.51929 0.07697 0.46273 0.0
C64 C 0.50923 0.12183 0.43766 0.0
C65 C 0.49689 0.08574 0.44533 0.0
C66 C 0.5046 0.03879 0.47179 0.0
C67 C 0.51418 0.1017 0.55405 0.0
C68 C 0.53979 0.10154 0.57415 0.0
C69 C 0.50233 0.07805 0.53009 0.0
C70 C 0.5161 0.05409 0.52591 0.0
C71 C 0.55344 0.07754 0.57005 0.0
C72 C 0.54144 0.05376 0.5462 0.0
C73 C 0.50289 0.02807 0.50129 0.0
H74 H 0.35793 0.85783 0.48898 0.0
H75 H 0.39864 0.92037 0.47215 0.0
H76 H 0.44882 0.86317 0.53944 0.0
H77 H 0.48966 0.92636 0.52297 0.0
H78 H 0.46655 0.87708 0.40708 0.0
H79 H 0.48549 0.91833 0.44929 0.0
H80 H 0.41936 0.93643 0.36592 0.0
H81 H 0.4376 0.9774 0.40824 0.0
H82 H 0.5947 0.16204 0.47072 0.0
H83 H 0.57295 0.09838 0.48433 0.0
H84 H 0.49121 0.12825 0.42484 0.0
H85 H 0.46938 0.06473 0.43833 0.0
H86 H 0.50321 0.11991 0.55706 0.0
H87 H 0.48207 0.07813 0.51507 0.0
H88 H 0.5731 0.07702 0.58548 0.0
H89 H 0.55205 0.03522 0.54348 0.0
N90 N 0.48598 -0.00804 0.50761 0.0
N91 N 0.49073 0.01268 0.45075 0.0
C92 C 0.55407 0.45775 0.58453 0.0
C93 C 0.52896 0.43648 0.56248 0.0
C94 C 0.54162 0.46929 0.60839 0.0
C95 C 0.50395 0.45989 0.61037 0.0
C96 C 0.49123 0.42663 0.5646 0.0
C97 C 0.47888 0.43862 0.58825 0.0
C98 C 0.49103 0.4737 0.63468 0.0
C99 C 0.50694 0.38626 0.67287 0.0
C100 C 0.53975 0.39968 0.68949 0.0
C101 C 0.49344 0.40924 0.66483 0.0
C102 C 0.51246 0.44595 0.6734 0.0
C103 C 0.55855 0.43627 0.69849 0.0
C104 C 0.5447 0.45922 0.69074 0.0
C105 C 0.4981 0.47 0.66425 0.0
C106 C 0.41116 0.52708 0.72979 0.0
C107 C 0.43571 0.54245 0.75362 0.0
C108 C 0.42142 0.51411 0.70549 0.0
C109 C 0.4574 0.51846 0.70365 0.0
C110 C 0.47123 0.54592 0.75219 0.0
C111 C 0.48208 0.53442 0.72735 0.0
C112 C 0.4689 0.50386 0.67867 0.0
C113 C 0.42249 0.57027 0.63701 0.0
C114 C 0.39148 0.54852 0.61918 0.0
C115 C 0.44569 0.55707 0.64656 0.0
C116 C 0.43755 0.52179 0.63874 0.0
C117 C 0.38416 0.5139 0.61064 0.0
C118 C 0.40705 0.50068 0.62028 0.0
C119 C 0.46038 0.50612 0.6489 0.0
H120 H 0.58331 0.46566 0.58307 0.0
H121 H 0.56156 0.48624 0.62494 0.0
H122 H 0.47159 0.41031 0.54765 0.0
H123 H 0.44977 0.43125 0.58934 0.0
H124 H 0.49206 0.35808 0.66585 0.0
H125 H 0.46812 0.39835 0.65187 0.0
H126 H 0.58394 0.44698 0.71133 0.0
H127 H 0.55953 0.48742 0.69768 0.0
H128 H 0.38343 0.52372 0.73058 0.0
H129 H 0.40077 0.49996 0.6886 0.0
H130 H 0.49047 0.5573 0.77044 0.0
H131 H 0.50973 0.53756 0.72684 0.0
H132 H 0.42848 0.59718 0.64361 0.0
H133 H 0.46959 0.57409 0.66026 0.0
H134 H 0.36034 0.4969 0.59684 0.0
H135 H 0.40047 0.47354 0.61376 0.0
N136 N 0.472 0.49109 0.62816 0.0
N137 N 0.48735 0.48564 0.6851 0.0
C138 C 0.86544 0.39072 0.80281 0.0
C139 C 0.84785 0.39933 0.78051 0.0
C140 C 0.90075 0.41679 0.81271 0.0
C141 C 0.91891 0.45199 0.80063 0.0
C142 C 0.86572 0.43451 0.76848 0.0
C143 C 0.90126 0.46062 0.77831 0.0
C144 C 0.95747 0.47849 0.80969 0.0
C145 C 0.8855 0.46519 0.88718 0.0
C146 C 0.89245 0.44963 0.91175 0.0
C147 C 0.91006 0.47672 0.86345 0.0
C148 C 0.94168 0.4725 0.86394 0.0
C149 C 0.92412 0.44571 0.91245 0.0
C150 C 0.94865 0.45721 0.88876 0.0
C151 C 0.96845 0.4852 0.8393 0.0
C152 C 0.13718 0.57762 0.8348 0.0
C153 C 0.14454 0.55585 0.85374 0.0
C154 C 0.1005 0.56585 0.8257 0.0
C155 C 0.07123 0.53187 0.83499 0.0
C156 C 0.11515 0.52279 0.86391 0.0
C157 C 0.07881 0.51092 0.85465 0.0
C158 C 0.0324 0.51692 0.82479 0.0
C159 C 0.10259 0.53274 0.74424 0.0
C160 C 0.09418 0.54774 0.71995 0.0
C161 C 0.07892 0.52064 0.76853 0.0
C162 C 0.04773 0.52556 0.76986 0.0
C163 C 0.06238 0.55152 0.72082 0.0
C164 C 0.03965 0.5409 0.74562 0.0
C165 C 0.02142 0.51235 0.79497 0.0
H166 H 0.8521 0.3636 0.81213 0.0
H167 H 0.91427 0.40911 0.82931 0.0
H168 H 0.85246 0.44143 0.75113 0.0
H169 H 0.91503 0.48744 0.76844 0.0
H170 H 0.86126 0.46861 0.8865 0.0
H171 H 0.90459 0.48932 0.84492 0.0
H172 H 0.92984 0.43383 0.93136 0.0
H173 H 0.97296 0.4539 0.88972 0.0
H174 H 0.15976 0.60333 0.82691 0.0
H175 H 0.0951 0.58277 0.81104 0.0
H176 H 0.1205 0.5058 0.87856 0.0
H177 H 0.05663 0.48478 0.86229 0.0
H178 H 0.12672 0.52913 0.74389 0.0
H179 H 0.08479 0.50691 0.78593 0.0
H180 H 0.05509 0.56259 0.70221 0.0
H181 H 0.0154 0.54434 0.74573 0.0
N182 N 0.98425 0.49302 0.7887 0.0
N183 N 0.00543 0.50352 0.84564 0.0
C184 C 0.47461 0.87518 0.96486 0.0
C185 C 0.44289 0.8554 0.94728 0.0
C186 C 0.48554 0.91071 0.97315 0.0
C187 C 0.46502 0.9271 0.96389 0.0
C188 C 0.42254 0.87183 0.93765 0.0
C189 C 0.43385 0.90773 0.94565 0.0
C190 C 0.47734 0.96488 0.97266 0.0
C191 C 0.42288 0.89665 0.05165 0.0
C192 C 0.44718 0.9023 0.07505 0.0
C193 C 0.43502 0.92044 0.0278 0.0
C194 C 0.47175 0.95011 0.02695 0.0
C195 C 0.48378 0.93194 0.07436 0.0
C196 C 0.4959 0.95582 0.05055 0.0
C197 C 0.4845 0.97612 0.00218 0.0
C198 C 0.55244 0.13929 -0.00443 0.0
C199 C 0.58517 0.14941 0.01163 0.0
C200 C 0.52922 0.10295 0.98742 0.0
C201 C 0.53851 0.07648 -0.00457 0.0
C202 C 0.59416 0.12293 0.01992 0.0
C203 C 0.57081 0.08665 0.01208 0.0
C204 C 0.515 0.03803 0.98686 0.0
C205 C 0.56718 0.09826 0.90249 0.0
C206 C 0.54055 0.09786 0.88316 0.0
C207 C 0.55582 0.07579 0.92717 0.0
C208 C 0.51766 0.05254 0.93277 0.0
C209 C 0.50239 0.07523 0.88914 0.0
C210 C 0.49104 0.05239 0.91361 0.0
C211 C 0.5055 0.02675 0.9575 0.0
H212 H 0.49067 0.86292 0.97237 0.0
H213 H 0.51018 0.92551 0.98672 0.0
H214 H 0.39796 0.85683 0.92407 0.0
H215 H 0.41796 0.92013 0.93807 0.0
H216 H 0.39445 0.87404 0.05202 0.0
H217 H 0.41551 0.916 0.01028 0.0
H218 H 0.50279 0.93669 0.09236 0.0
H219 H 0.52422 0.97864 0.05047 0.0
H220 H 0.54518 0.15956 0.98915 0.0
H221 H 0.50408 0.0955 0.97498 0.0
H222 H 0.61931 0.13042 0.03239 0.0
H223 H 0.57834 0.06657 0.01854 0.0
H224 H 0.59674 0.11544 0.89813 0.0
H225 H 0.57679 0.07588 0.94147 0.0
H226 H 0.48149 0.07458 0.87442 0.0
H227 H 0.46149 0.03445 0.91753 0.0
N228 N 0.48738 0.99053 0.9514 0.0
N229 N 0.50378 0.01231 0.00814 0.0
C230 C 0.47884 0.61404 0.17185 0.0
C231 C 0.44681 0.60219 0.18908 0.0
C232 C 0.49094 0.58988 0.16417 0.0
C233 C 0.4713 0.55357 0.17375 0.0
C234 C 0.42741 0.56602 0.19907 0.0
C235 C 0.43988 0.54191 0.1917 0.0
C236 C 0.48408 0.52821 0.16502 0.0
C237 C 0.42757 0.54271 0.08654 0.0
C238 C 0.45172 0.56053 0.06306 0.0
C239 C 0.43967 0.53043 0.11024 0.0
C240 C 0.47617 0.53602 0.11084 0.0
C241 C 0.48809 0.56604 0.06353 0.0
C242 C 0.50015 0.55367 0.08718 0.0
C243 C 0.48909 0.52238 0.13545 0.0
C244 C 0.55784 0.4256 0.14151 0.0
C245 C 0.58775 0.44604 0.12243 0.0
C246 C 0.53453 0.43901 0.15018 0.0
C247 C 0.54158 0.47327 0.14026 0.0
C248 C 0.59365 0.47935 0.11156 0.0
C249 C 0.57072 0.49282 0.12036 0.0
C250 C 0.51952 0.48982 0.15019 0.0
C251 C 0.57461 0.47516 0.23059 0.0
C252 C 0.55131 0.46049 0.25511 0.0
C253 C 0.56276 0.4867 0.20624 0.0
C254 C 0.52645 0.48165 0.20516 0.0
C255 C 0.51552 0.45651 0.25446 0.0
C256 C 0.50312 0.46666 0.22965 0.0
C257 C 0.51324 0.49446 0.17999 0.0
H258 H 0.49417 0.64189 0.16408 0.0
H259 H 0.51564 0.5995 0.15069 0.0
H260 H 0.40263 0.55653 0.21242 0.0
H261 H 0.4246 0.51404 0.19942 0.0
H262 H 0.3993 0.538 0.08632 0.0
H263 H 0.42032 0.51606 0.12785 0.0
H264 H 0.50697 0.57963 0.04546 0.0
H265 H 0.52831 0.55807 0.08709 0.0
H266 H 0.55296 0.3997 0.14993 0.0
H267 H 0.51165 0.42311 0.16501 0.0
H268 H 0.61662 0.49533 0.09678 0.0
H269 H 0.57645 0.51914 0.11223 0.0
H270 H 0.60251 0.47888 0.23075 0.0
H271 H 0.58234 0.50011 0.18859 0.0
H272 H 0.49723 0.44563 0.27324 0.0
H273 H 0.47529 0.46311 0.22971 0.0
N274 N 0.49576 0.51362 0.18615 0.0
N275 N 0.50704 0.50386 0.1292 0.0
C276 C 0.70789 0.4319 0.40149 0.0
O277 O 0.70714 0.45985 0.41042 0.0
Cd278 Cd 0.65071 0.45757 0.4266 0.0
O279 O 0.67847 0.40075 0.40136 0.0
Cd280 Cd 0.6121 0.37391 0.41406 0.0
C281 C 0.60135 0.42577 0.36299 0.0
O282 O 0.61846 0.40706 0.45924 0.0
O283 O 0.56276 0.37737 0.44072 0.0
O284 O 0.61558 0.32381 0.43619 0.0
C285 C 0.58378 0.39533 0.46191 0.0
O286 O 0.61532 0.45108 0.38203 0.0
C287 C 0.58933 0.29912 0.42117 0.0
O288 O 0.59941 0.39527 0.36776 0.0
O289 O 0.57354 0.30894 0.40226 0.0
C290 C 0.27778 0.576 0.57525 0.0
O291 O 0.24843 0.54771 0.56661 0.0
Cd292 Cd 0.19419 0.5488 0.54904 0.0
O293 O 0.28041 0.60715 0.57459 0.0
Cd294 Cd 0.24178 0.63357 0.55981 0.0
C295 C 0.17852 0.58321 0.61165 0.0
O296 O 0.21463 0.59816 0.51534 0.0
O297 O 0.1898 0.6293 0.53104 0.0
O298 O 0.30009 0.68143 0.54014 0.0
C299 C 0.19195 0.60959 0.51117 0.0
O300 O 0.16638 0.55743 0.59302 0.0
C301 C 0.29658 0.70759 0.54976 0.0
O302 O 0.20774 0.61372 0.60646 0.0
O303 O 0.26798 0.69952 0.5653 0.0
C304 C 0.70731 0.2802 0.73976 0.0
O305 O 0.70715 0.25149 0.73174 0.0
Cd306 Cd 0.65151 0.19784 0.71612 0.0
O307 O 0.67764 0.28224 0.73899 0.0
Cd308 Cd 0.61145 0.24419 0.7243 0.0
C309 C 0.59648 0.18212 0.77678 0.0
O310 O 0.62218 0.21733 0.68074 0.0
O311 O 0.56465 0.19483 0.6941 0.0
O312 O 0.61943 0.30076 0.70436 0.0
C313 C 0.58785 0.19598 0.67546 0.0
O314 O 0.61474 0.17225 0.76049 0.0
C315 C 0.58973 0.29742 0.71531 0.0
O316 O 0.59216 0.20884 0.76976 0.0
O317 O 0.57021 0.26954 0.73108 0.0
C318 C 0.28402 0.57601 0.8971 0.0
O319 O 0.28334 0.54732 0.90596 0.0
Cd320 Cd 0.33796 0.5474 0.92437 0.0
O321 O 0.3139 0.60672 0.89783 0.0
Cd322 Cd 0.37926 0.63206 0.91279 0.0
C323 C 0.38964 0.57989 0.86195 0.0
O324 O 0.36874 0.59721 0.95774 0.0
O325 O 0.42594 0.62747 0.94258 0.0
O326 O 0.3706 0.68059 0.93129 0.0
C327 C 0.40301 0.60837 0.96238 0.0
O328 O 0.37489 0.55446 0.88084 0.0
C329 C 0.40055 0.70636 0.92072 0.0
O330 O 0.39232 0.61072 0.86669 0.0
O331 O 0.42079 0.69775 0.90565 0.0
C332 C 0.70551 0.42415 0.0807 0.0
O333 O 0.73504 0.45375 0.07466 0.0
Cd334 Cd 0.79085 0.45624 0.05703 0.0
O335 O 0.70357 0.39355 0.07703 0.0
Cd336 Cd 0.74372 0.37025 0.05905 0.0
C337 C 0.80532 0.4125 0.1141 0.0
O338 O 0.77326 0.41237 0.01837 0.0
O339 O 0.7958 0.37738 0.02936 0.0
O340 O 0.68978 0.32395 0.03281 0.0
C341 C 0.79523 0.40063 0.01224 0.0
O342 O 0.81616 0.44188 0.09985 0.0
C343 C 0.6902 0.29725 0.04491 0.0
O344 O 0.77828 0.38235 0.10516 0.0
O345 O 0.71535 0.30423 0.06395 0.0
C346 C 0.28226 0.72154 0.24247 0.0
O347 O 0.28132 0.74986 0.23491 0.0
Cd348 Cd 0.33558 0.80389 0.21777 0.0
O349 O 0.31216 0.72011 0.24058 0.0
Cd350 Cd 0.37726 0.75899 0.2243 0.0
C351 C 0.39157 0.8196 0.27765 0.0
O352 O 0.3647 0.78554 0.18132 0.0
O353 O 0.42271 0.80911 0.19415 0.0
O354 O 0.36948 0.7028 0.20399 0.0
C355 C 0.39885 0.80726 0.17577 0.0
O356 O 0.37317 0.82977 0.26177 0.0
C357 C 0.39964 0.70655 0.21447 0.0
O358 O 0.39612 0.7932 0.27016 0.0
O359 O 0.41947 0.73465 0.22997 0.0
C360 C 0.19703 0.62687 0.2481 0.0
C361 C 0.18061 0.63079 0.27402 0.0
C362 C 0.23408 0.692 0.28158 0.0
C363 C 0.24813 0.68974 0.25384 0.0
N364 N 0.24222 0.65675 0.20929 0.0
N365 N 0.18147 0.66705 0.31495 0.0
C366 C 0.22963 0.65749 0.23681 0.0
C367 C 0.1987 0.66328 0.29077 0.0
N368 N 0.18151 0.59375 0.23448 0.0
N369 N 0.2551 0.72113 0.29943 0.0
H370 H 0.15626 0.64604 0.32305 0.0
H371 H 0.19094 0.69154 0.32606 0.0
H372 H 0.28114 0.74271 0.29334 0.0
H373 H 0.24834 0.72264 0.32112 0.0
H374 H 0.19414 0.58799 0.21724 0.0
H375 H 0.15729 0.57093 0.24201 0.0
H376 H 0.22765 0.63562 0.19448 0.0
H377 H 0.2661 0.67859 0.20028 0.0
C378 C 0.54888 0.20864 0.46067 0.0
C379 C 0.55626 0.18797 0.44015 0.0
C380 C 0.58599 0.24049 0.40709 0.0
C381 C 0.57655 0.26038 0.42683 0.0
N382 N 0.54391 0.26235 0.46981 0.0
N383 N 0.57765 0.18183 0.39259 0.0
C384 C 0.55663 0.24418 0.45296 0.0
C385 C 0.57358 0.2032 0.41294 0.0
N386 N 0.53497 0.19444 0.48771 0.0
N387 N 0.60797 0.25768 0.38337 0.0
H388 H 0.57032 0.15484 0.39661 0.0
H389 H 0.5861 0.18996 0.37111 0.0
H390 H 0.61697 0.28478 0.37816 0.0
H391 H 0.61941 0.24601 0.36991 0.0
H392 H 0.53311 0.20958 0.50486 0.0
H393 H 0.52763 0.16798 0.49383 0.0
H394 H 0.52591 0.25069 0.48747 0.0
H395 H 0.54876 0.28831 0.46463 0.0
C396 C 0.36966 0.57659 0.58161 0.0
C397 C 0.36546 0.56095 0.60978 0.0
C398 C 0.30693 0.56121 0.61694 0.0
C399 C 0.30886 0.57255 0.58747 0.0
N400 N 0.34033 0.58966 0.54091 0.0
N401 N 0.32998 0.53646 0.6541 0.0
C402 C 0.33995 0.58022 0.56961 0.0
C403 C 0.33421 0.55304 0.62755 0.0
N404 N 0.40223 0.58816 0.56655 0.0
N405 N 0.27938 0.55894 0.63485 0.0
H406 H 0.35012 0.53137 0.66312 0.0
H407 H 0.30571 0.52588 0.66655 0.0
H408 H 0.25869 0.56436 0.62766 0.0
H409 H 0.27856 0.55452 0.65732 0.0
H410 H 0.40869 0.60293 0.54713 0.0
H411 H 0.42433 0.58552 0.57474 0.0
H412 H 0.36003 0.59168 0.52577 0.0
H413 H 0.31941 0.59338 0.53163 0.0
C414 C 0.80912 0.35472 0.74141 0.0
C415 C 0.81122 0.37068 0.76914 0.0
C416 C 0.74546 0.32619 0.77829 0.0
C417 C 0.74267 0.31202 0.74966 0.0
N418 N 0.76939 0.31805 0.70162 0.0
N419 N 0.78021 0.37659 0.81165 0.0
C420 C 0.77381 0.32781 0.73051 0.0
C421 C 0.77896 0.35794 0.78687 0.0
N422 N 0.84099 0.36416 0.72598 0.0
N423 N 0.71686 0.30834 0.79777 0.0
H424 H 0.80434 0.40002 0.81855 0.0
H425 H 0.75665 0.37081 0.82386 0.0
H426 H 0.69211 0.28457 0.79257 0.0
H427 H 0.71894 0.31518 0.81986 0.0
H428 H 0.84148 0.35039 0.70728 0.0
H429 H 0.86752 0.3837 0.73318 0.0
H430 H 0.79023 0.33144 0.68602 0.0
H431 H 0.74376 0.29897 0.69261 0.0
C432 C 0.41794 0.79065 0.96251 0.0
C433 C 0.43069 0.81702 0.93986 0.0
C434 C 0.42047 0.77005 0.90391 0.0
C435 C 0.41187 0.74474 0.92707 0.0
N436 N 0.41078 0.7334 0.97905 0.0
N437 N 0.45048 0.83355 0.88976 0.0
C438 C 0.41285 0.75567 0.95658 0.0
C439 C 0.43375 0.80724 0.91072 0.0
N440 N 0.40985 0.79873 0.98953 0.0
N441 N 0.41448 0.75843 0.87548 0.0
H442 H 0.46076 0.86113 0.89389 0.0
H443 H 0.45708 0.8284 0.86897 0.0
H444 H 0.40398 0.73129 0.86957 0.0
H445 H 0.41654 0.77506 0.85795 0.0
H446 H 0.39693 0.77935 0.00596 0.0
H447 H 0.41265 0.82395 -0.00536 0.0
H448 H 0.41513 0.7416 0.00089 0.0
H449 H 0.40879 0.70818 0.97575 0.0
C450 C 0.6473 0.44603 0.13163 0.0
C451 C 0.61457 0.43411 0.11449 0.0
C452 C 0.64037 0.41328 0.07586 0.0
C453 C 0.67317 0.42529 0.09297 0.0
N454 N 0.7049 0.4452 0.13939 0.0
N455 N 0.57601 0.39983 0.07377 0.0
C456 C 0.67571 0.43925 0.12161 0.0
C457 C 0.60981 0.41544 0.08772 0.0
N458 N 0.65176 0.46507 0.15691 0.0
N459 N 0.63924 0.40159 0.04778 0.0
H460 H 0.55328 0.40138 0.08188 0.0
H461 H 0.56941 0.38285 0.05564 0.0
H462 H 0.661 0.39942 0.03839 0.0
H463 H 0.61791 0.39635 0.03302 0.0
H464 H 0.67679 0.4785 0.16849 0.0
H465 H 0.63084 0.46914 0.16563 0.0
H466 H 0.70643 0.45173 0.1615 0.0
H467 H 0.72628 0.44061 0.13267 0.0
C468 C 0.362 0.78961 0.50379 0.0
C469 C 0.3755 0.81786 0.52491 0.0
C470 C 0.34067 0.77307 0.56322 0.0
C471 C 0.32362 0.74567 0.54146 0.0
N472 N 0.31186 0.73005 0.49009 0.0
N473 N 0.37279 0.83765 0.57394 0.0
C474 C 0.33263 0.75447 0.51145 0.0
C475 C 0.36353 0.80996 0.55447 0.0
N476 N 0.37773 0.79614 0.47656 0.0
N477 N 0.33629 0.76381 0.5922 0.0
H478 H 0.38917 0.86505 0.56834 0.0
H479 H 0.36148 0.83355 0.5949 0.0
H480 H 0.32056 0.73701 0.59951 0.0
H481 H 0.3512 0.78226 0.60883 0.0
H482 H 0.37143 0.77558 0.46132 0.0
H483 H 0.3998 0.82146 0.47024 0.0
H484 H 0.315 0.73657 0.46789 0.0
H485 H 0.28873 0.70463 0.49453 0.0
C486 C 0.55364 0.36341 0.72587 0.0
C487 C 0.55464 0.37524 0.69665 0.0
C488 C 0.57529 0.33358 0.67952 0.0
C489 C 0.57783 0.32436 0.70902 0.0
N490 N 0.577 0.33641 0.7606 0.0
N491 N 0.57407 0.37764 0.64652 0.0
C492 C 0.56912 0.34093 0.73235 0.0
C493 C 0.56788 0.3622 0.67372 0.0
N494 N 0.53671 0.37251 0.74726 0.0
N495 N 0.57793 0.31377 0.657 0.0
H496 H 0.56945 0.39906 0.6415 0.0
H497 H 0.58721 0.37164 0.62978 0.0
H498 H 0.58169 0.29148 0.66017 0.0
H499 H 0.57242 0.31701 0.63527 0.0
H500 H 0.53156 0.36133 0.76822 0.0
H501 H 0.52482 0.38876 0.7434 0.0
H502 H 0.57477 0.35087 0.77815 0.0
H503 H 0.58931 0.32098 0.76624 0.0
C504 C 0.2026 0.5526 0.84611 0.0
C505 C 0.18308 0.56625 0.86239 0.0
C506 C 0.23026 0.58713 0.90122 0.0
C507 C 0.24994 0.57374 0.88482 0.0
N508 N 0.25986 0.55085 0.83946 0.0
N509 N 0.18085 0.60223 0.9022 0.0
C510 C 0.23759 0.55858 0.85656 0.0
C511 C 0.19785 0.58548 0.88893 0.0
N512 N 0.18703 0.53292 0.82115 0.0
N513 N 0.24168 0.59992 0.92902 0.0
H514 H 0.15675 0.60102 0.89387 0.0
H515 H 0.19207 0.61967 0.92004 0.0
H516 H 0.26552 0.60185 0.93861 0.0
H517 H 0.22637 0.60636 0.94339 0.0
H518 H 0.1974 0.51833 0.81025 0.0
H519 H 0.16234 0.52954 0.81203 0.0
H520 H 0.25437 0.54331 0.81754 0.0
H521 H 0.28564 0.55479 0.8465 0.0
C522 C 0.63814 0.21131 -0.00065 0.0
C523 C 0.61065 0.1879 0.01966 0.0
C524 C 0.63366 0.23713 0.05584 0.0
C525 C 0.66299 0.25954 0.03643 0.0
N526 N 0.69669 0.26736 -0.0085 0.0
N527 N 0.58343 0.17649 0.06788 0.0
C528 C 0.66609 0.24656 0.00857 0.0
C529 C 0.60872 0.20025 0.04812 0.0
N530 N 0.6373 0.19989 0.97121 0.0
N531 N 0.62893 0.25155 0.08115 0.0
H532 H 0.56343 0.14978 0.06254 0.0
H533 H 0.58351 0.18242 0.08999 0.0
H534 H 0.64692 0.27839 0.08763 0.0
H535 H 0.60579 0.23795 0.09474 0.0
H536 H 0.6538 0.21699 0.95445 0.0
H537 H 0.61815 0.17375 0.96394 0.0
H538 H 0.70277 0.25804 0.97239 0.0
H539 H 0.71787 0.29324 -0.00237 0.0
C540 C 0.43555 0.64042 0.22511 0.0
C541 C 0.43336 0.6278 0.19602 0.0
C542 C 0.41306 0.66975 0.17879 0.0
C543 C 0.41144 0.67958 0.20823 0.0
N544 N 0.41367 0.6685 0.2599 0.0
N545 N 0.41269 0.62472 0.14609 0.0
C546 C 0.42063 0.66334 0.23159 0.0
C547 C 0.41986 0.64072 0.17311 0.0
N548 N 0.45301 0.63161 0.24634 0.0
N549 N 0.41002 0.68927 0.15618 0.0
H550 H 0.41679 0.60297 0.14116 0.0
H551 H 0.39932 0.63067 0.12944 0.0
H552 H 0.40661 0.71177 0.15929 0.0
H553 H 0.41483 0.68556 0.13441 0.0
H554 H 0.45895 0.6433 0.26712 0.0
H555 H 0.4646 0.61513 0.24244 0.0
H556 H 0.41625 0.65427 0.2775 0.0
H557 H 0.40174 0.68422 0.26559 0.0
C558 C 0.81016 0.45894 0.39517 0.0
C559 C 0.81041 0.44447 0.36722 0.0
C560 C 0.74408 0.42418 0.36092 0.0
C561 C 0.74304 0.43569 0.38993 0.0
N562 N 0.77314 0.45696 0.43685 0.0
N563 N 0.77645 0.40697 0.32596 0.0
C564 C 0.77554 0.45106 0.40772 0.0
C565 C 0.77695 0.42506 0.35086 0.0
N566 N 0.84302 0.48144 0.40923 0.0
N567 N 0.71448 0.41427 0.34242 0.0
H568 H 0.80004 0.4069 0.31801 0.0
H569 H 0.75199 0.38931 0.31477 0.0
H570 H 0.69029 0.41447 0.34848 0.0
H571 H 0.71535 0.40935 0.32017 0.0
H572 H 0.84463 0.49596 0.42808 0.0
H573 H 0.86909 0.4882 0.40073 0.0
H574 H 0.79519 0.46455 0.45148 0.0
H575 H 0.74812 0.45086 0.44702 0.0
C576 C 0.10415 0.57092 0.46432 0.0
C577 C 0.11947 0.57432 0.43597 0.0
C578 C 0.18259 0.60523 0.45677 0.0
C579 C 0.16699 0.59796 0.48532 0.0
N580 N 0.11267 0.5677 0.51643 0.0
N581 N 0.17274 0.58968 0.40524 0.0
C582 C 0.12767 0.57924 0.4892 0.0
C583 C 0.15859 0.59015 0.43216 0.0
N584 N 0.06728 0.56055 0.46746 0.0
N585 N 0.22017 0.62766 0.45309 0.0
H586 H 0.15609 0.5789 0.38664 0.0
H587 H 0.20057 0.59719 0.40182 0.0
H588 H 0.23863 0.63974 0.47055 0.0
H589 H 0.23258 0.63703 0.43272 0.0
H590 H 0.05551 0.56131 0.48739 0.0
H591 H 0.04918 0.55444 0.4497 0.0
H592 H 0.08421 0.55059 0.52005 0.0
H593 H 0.12882 0.57214 0.53519 0.0
C594 C 0.53901 0.11097 0.62827 0.0
C595 C 0.55173 0.12594 0.60002 0.0
C596 C 0.58505 0.1873 0.62103 0.0
C597 C 0.57553 0.17192 0.6495 0.0
N598 N 0.54964 0.11872 0.68056 0.0
N599 N 0.59159 0.17751 0.56963 0.0
C600 C 0.55412 0.13362 0.65326 0.0
C601 C 0.57611 0.16392 0.5964 0.0
N602 N 0.51169 0.07533 0.6312 0.0
N603 N 0.60122 0.22413 0.6174 0.0
H604 H 0.5857 0.16125 0.55104 0.0
H605 H 0.61265 0.20436 0.56636 0.0
H606 H 0.60766 0.24217 0.63484 0.0
H607 H 0.6051 0.23653 0.59701 0.0
H608 H 0.49851 0.06401 0.651 0.0
H609 H 0.4997 0.05787 0.61338 0.0
H610 H 0.53766 0.09085 0.68421 0.0
H611 H 0.56116 0.13429 0.69939 0.0
C612 C 0.39129 0.52673 0.79591 0.0
C613 C 0.4235 0.553 0.78076 0.0
C614 C 0.43567 0.59692 0.8201 0.0
C615 C 0.40101 0.57195 0.83326 0.0
N616 N 0.34063 0.51749 0.82738 0.0
N617 N 0.47111 0.61614 0.77506 0.0
C618 C 0.37721 0.53814 0.81929 0.0
C619 C 0.44415 0.58909 0.79181 0.0
N620 N 0.37492 0.49061 0.78899 0.0
N621 N 0.46135 0.62709 0.83498 0.0
H622 H 0.47721 0.61175 0.75382 0.0
H623 H 0.48453 0.6435 0.78111 0.0
H624 H 0.45724 0.63302 0.85631 0.0
H625 H 0.48835 0.64413 0.82727 0.0
H626 H 0.35336 0.47033 0.80135 0.0
H627 H 0.38552 0.48057 0.77314 0.0
H628 H 0.32163 0.49416 0.816 0.0
H629 H 0.32818 0.52597 0.84294 0.0
C630 C 0.87704 0.45975 0.96262 0.0
C631 C 0.86677 0.43772 0.93711 0.0
C632 C 0.80765 0.39344 0.95993 0.0
C633 C 0.81953 0.41378 0.98628 0.0
N634 N 0.8668 0.46368 0.01444 0.0
N635 N 0.82492 0.38173 0.91215 0.0
C636 C 0.85458 0.44628 0.98812 0.0
C637 C 0.8327 0.40405 0.93589 0.0
N638 N 0.90772 0.49393 0.96214 0.0
N639 N 0.77212 0.36448 0.95773 0.0
H640 H 0.84238 0.38879 0.89395 0.0
H641 H 0.80261 0.35513 0.91129 0.0
H642 H 0.75319 0.35574 0.97506 0.0
H643 H 0.76035 0.35084 0.93821 0.0
H644 H 0.91449 0.51283 0.97892 0.0
H645 H 0.92494 0.50463 0.94387 0.0
H646 H 0.89379 0.48514 0.01802 0.0
H647 H 0.85074 0.45495 0.03347 0.0
C648 C 0.42608 0.88957 0.12731 0.0
C649 C 0.43402 0.87755 0.1007 0.0
C650 C 0.41497 0.81798 0.12261 0.0
C651 C 0.4103 0.8312 0.14985 0.0
N652 N 0.41513 0.8803 0.17959 0.0
N653 N 0.4407 0.83245 0.07351 0.0
C654 C 0.41696 0.86725 0.15263 0.0
C655 C 0.42962 0.84224 0.09842 0.0
N656 N 0.42594 0.92173 0.12804 0.0
N657 N 0.40499 0.78213 0.11983 0.0
H658 H 0.45142 0.84944 0.05531 0.0
H659 H 0.44197 0.80865 0.07155 0.0
H660 H 0.39522 0.76387 0.13732 0.0
H661 H 0.40381 0.76978 0.09987 0.0
H662 H 0.41649 0.93017 0.14582 0.0
H663 H 0.4324 0.9388 0.1099 0.0
H664 H 0.42394 0.90756 0.18368 0.0
H665 H 0.40713 0.86431 0.19847 0.0
C666 C 0.54502 0.41476 0.29338 0.0
C667 C 0.56485 0.45072 0.282 0.0
C668 C 0.61222 0.46689 0.32008 0.0
C669 C 0.5892 0.43312 0.33435 0.0
N670 N 0.52941 0.37742 0.33685 0.0
N671 N 0.61314 0.51346 0.28919 0.0
C672 C 0.55441 0.40757 0.3216 0.0
C673 C 0.59732 0.47754 0.29665 0.0
N674 N 0.51791 0.38724 0.27701 0.0
N675 N 0.64882 0.48824 0.328 0.0
H676 H 0.60206 0.5229 0.27319 0.0
H677 H 0.63482 0.5342 0.30119 0.0
H678 H 0.66175 0.48035 0.34368 0.0
H679 H 0.66736 0.51157 0.31644 0.0
H680 H 0.50509 0.35998 0.28328 0.0
H681 H 0.51111 0.39117 0.25584 0.0
H682 H 0.50231 0.35997 0.32946 0.0
H683 H 0.53413 0.37192 0.35817 0.0
C684 C 0.45337 0.89324 0.33188 0.0
C685 C 0.43123 0.87994 0.3575 0.0
C686 C 0.38782 0.82343 0.33203 0.0
C687 C 0.40732 0.83878 0.30556 0.0
N688 N 0.45748 0.88835 0.27925 0.0
N689 N 0.37647 0.83377 0.38229 0.0
C690 C 0.43993 0.87365 0.30522 0.0
C691 C 0.39839 0.84519 0.35779 0.0
N692 N 0.48757 0.92423 0.33329 0.0
N693 N 0.35919 0.78811 0.33245 0.0
H694 H 0.38367 0.84868 0.40172 0.0
H695 H 0.35004 0.8107 0.38296 0.0
H696 H 0.35004 0.77175 0.3138 0.0
H697 H 0.34627 0.77404 0.35153 0.0
H698 H 0.50676 0.9335 0.31622 0.0
H699 H 0.49819 0.93924 0.35251 0.0
H700 H 0.47858 0.91533 0.27686 0.0
H701 H 0.44957 0.87402 0.25953 0.0
C702 C 0.54834 0.39535 0.53856 0.0
C703 C 0.54253 0.42555 0.53657 0.0
C704 C 0.56499 0.43661 0.48585 0.0
C705 C 0.56907 0.40541 0.48742 0.0
N706 N 0.56127 0.35253 0.51326 0.0
N707 N 0.54182 0.47328 0.5083 0.0
C708 C 0.55987 0.38408 0.51326 0.0
C709 C 0.54981 0.44569 0.51016 0.0
N710 N 0.54338 0.3779 0.56479 0.0
N711 N 0.57673 0.45813 0.46139 0.0
H712 H 0.53273 0.48216 0.52608 0.0
H713 H 0.54215 0.48621 0.48885 0.0
H714 H 0.58678 0.45164 0.44279 0.0
H715 H 0.57871 0.48351 0.45994 0.0
H716 H 0.55122 0.35851 0.56877 0.0
H717 H 0.53319 0.38423 0.58341 0.0
H718 H 0.55111 0.33352 0.53013 0.0
H719 H 0.5706 0.34405 0.49536 0.0
C720 C 0.1342 0.59386 0.68166 0.0
C721 C 0.11758 0.55788 0.693 0.0
C722 C 0.14856 0.54239 0.65484 0.0
C723 C 0.15952 0.576 0.64052 0.0
N724 N 0.15627 0.63135 0.63823 0.0
N725 N 0.10209 0.49537 0.68555 0.0
C726 C 0.15074 0.60127 0.65338 0.0
C727 C 0.12281 0.53137 0.67826 0.0
N728 N 0.13514 0.62117 0.69812 0.0
N729 N 0.16376 0.52152 0.64696 0.0
H730 H 0.08124 0.48559 0.70144 0.0
H731 H 0.10277 0.47487 0.67347 0.0
H732 H 0.18477 0.52972 0.6313 0.0
H733 H 0.1588 0.49834 0.65856 0.0
H734 H 0.14996 0.64845 0.69187 0.0
H735 H 0.12453 0.61708 0.71935 0.0
H736 H 0.14689 0.64857 0.64569 0.0
H737 H 0.1666 0.63705 0.61692 0.0
C738 C 0.57213 0.15841 0.8574 0.0
C739 C 0.55278 0.11982 0.85585 0.0
C740 C 0.55567 0.12309 0.80232 0.0
C741 C 0.57951 0.16137 0.80402 0.0
N742 N 0.61518 0.2152 0.83361 0.0
N743 N 0.53183 0.06524 0.827 0.0
C744 C 0.58887 0.1791 0.83168 0.0
C745 C 0.54598 0.10205 0.82834 0.0
N746 N 0.5739 0.17528 0.88332 0.0
N747 N 0.54133 0.1069 0.77591 0.0
H748 H 0.5251 0.04876 0.84553 0.0
H749 H 0.53014 0.05155 0.80763 0.0
H750 H 0.54686 0.12155 0.75643 0.0
H751 H 0.5209 0.07958 0.77379 0.0
H752 H 0.58435 0.20322 0.88513 0.0
H753 H 0.56173 0.16098 0.90256 0.0
H754 H 0.62604 0.22848 0.85343 0.0
H755 H 0.62871 0.23126 0.81542 0.0
C756 C 0.43024 0.55261 0.01086 0.0
C757 C 0.43858 0.57254 0.03743 0.0
C758 C 0.42024 0.61403 0.01542 0.0
C759 C 0.41513 0.59602 0.98821 0.0
N760 N 0.41884 0.5509 0.95862 0.0
N761 N 0.44621 0.62461 0.06452 0.0
C762 C 0.42125 0.56612 0.9855 0.0
C763 C 0.43475 0.60388 0.03964 0.0
N764 N 0.42953 0.52003 0.01021 0.0
N765 N 0.41082 0.64052 0.01814 0.0
H766 H 0.4568 0.61792 0.08275 0.0
H767 H 0.44789 0.64983 0.06644 0.0
H768 H 0.40129 0.64946 0.00061 0.0
H769 H 0.40992 0.65192 0.03808 0.0
H770 H 0.41974 0.50225 -0.00752 0.0
H771 H 0.43582 0.50916 0.02838 0.0
H772 H 0.42726 0.53195 0.95456 0.0
H773 H 0.41071 0.55898 0.93973 0.0
C774 C 0.87958 0.42207 0.16809 0.0
C775 C 0.86677 0.4312 0.19374 0.0
C776 C 0.80897 0.4181 0.16855 0.0
C777 C 0.82425 0.4142 0.14196 0.0
N778 N 0.87395 0.41311 0.11545 0.0
N779 N 0.82057 0.44005 0.21866 0.0
C780 C 0.85942 0.41605 0.14149 0.0
C781 C 0.83155 0.42933 0.19419 0.0
N782 N 0.91072 0.41867 0.16941 0.0
N783 N 0.77294 0.41116 0.16917 0.0
H784 H 0.83608 0.4479 0.23801 0.0
H785 H 0.79736 0.44345 0.21932 0.0
H786 H 0.75591 0.40346 0.15062 0.0
H787 H 0.75885 0.41006 0.18833 0.0
H788 H 0.91963 0.40874 0.15228 0.0
H789 H 0.92606 0.4229 0.18863 0.0
H790 H 0.9013 0.41861 0.11296 0.0
H791 H 0.85909 0.40688 0.09579 0.0
loop_
_geom_bond_atom_site_label_1
_geom_bond_atom_site_label_2
_geom_bond_distance
_geom_bond_site_symmetry_2
_ccdc_geom_bond_type
C0 C1 1.384 . S
C0 C2 1.384 . S
C0 H28 0.931 . S
C1 C0 1.384 . S
C1 C4 1.382 . S
C2 C0 1.384 . S
C2 C3 1.381 . S
C2 H29 0.930 . S
C3 C2 1.381 . S
C3 C5 1.381 . S
C3 C6 1.487 . S
C4 C1 1.382 . S
C4 C5 1.387 . S
C4 H30 0.930 . S
C5 C3 1.381 . S
C5 C4 1.387 . S
C5 H31 0.931 . S
C6 C3 1.487 . S
C6 C13 1.399 . S
C6 N44 1.343 . S
C7 C8 1.384 . S
C7 C9 1.384 . S
C7 H32 0.931 . S
C8 C7 1.384 . S
C8 C11 1.382 . S
C9 C7 1.384 . S
C9 C10 1.381 . S
C9 H33 0.930 . S
C10 C9 1.381 . S
C10 C12 1.381 . S
C10 C13 1.487 . S
C11 C8 1.382 . S
C11 C12 1.387 . S
C11 H34 0.930 . S
C12 C10 1.381 . S
C12 C11 1.387 . S
C12 H35 0.931 . S
C13 C6 1.399 . S
C13 C10 1.487 . S
C13 N45 1.343 1_655 S
C14 C15 1.384 . S
C14 C16 1.384 . S
C14 H36 0.931 . S
C15 C14 1.384 . S
C15 C18 1.382 . S
C16 C14 1.384 . S
C16 C17 1.381 . S
C16 H37 0.930 . S
C17 C16 1.381 . S
C17 C19 1.381 . S
C17 C20 1.487 . S
C18 C15 1.382 . S
C18 C19 1.387 . S
C18 H38 0.930 . S
C19 C17 1.381 . S
C19 C18 1.387 . S
C19 H39 0.931 . S
C20 C17 1.487 . S
C20 C27 1.399 . S
C20 N45 1.343 . S
C21 C22 1.384 . S
C21 C23 1.384 . S
C21 H40 0.931 . S
C22 C21 1.384 . S
C22 C25 1.382 . S
C23 C21 1.384 . S
C23 C24 1.381 . S
C23 H41 0.930 . S
C24 C23 1.381 . S
C24 C26 1.381 . S
C24 C27 1.487 . S
C25 C22 1.382 . S
C25 C26 1.387 . S
C25 H42 0.930 . S
C26 C24 1.381 . S
C26 C25 1.387 . S
C26 H43 0.931 . S
C27 C20 1.399 . S
C27 C24 1.487 . S
C27 N44 1.343 1_455 S
H28 C0 0.931 . S
H29 C2 0.930 . S
H30 C4 0.930 . S
H31 C5 0.931 . S
H32 C7 0.931 . S
H33 C9 0.930 . S
H34 C11 0.930 . S
H35 C12 0.931 . S
H36 C14 0.931 . S
H37 C16 0.930 . S
H38 C18 0.930 . S
H39 C19 0.931 . S
H40 C21 0.931 . S
H41 C23 0.930 . S
H42 C25 0.930 . S
H43 C26 0.931 . S
N44 C6 1.343 . S
N44 C27 1.343 1_655 S
N45 C13 1.343 1_455 S
N45 C20 1.343 . S
C46 C47 1.384 . S
C46 C48 1.384 . S
C46 H74 0.931 . S
C47 C46 1.384 . S
C47 C50 1.382 . S
C48 C46 1.384 . S
C48 C49 1.381 . S
C48 H75 0.930 . S
C49 C48 1.381 . S
C49 C51 1.381 . S
C49 C52 1.487 . S
C50 C47 1.382 . S
C50 C51 1.387 . S
C50 H76 0.930 . S
C51 C49 1.381 . S
C51 C50 1.387 . S
C51 H77 0.931 . S
C52 C49 1.487 . S
C52 C59 1.399 . S
C52 N90 1.343 1_565 S
C53 C54 1.384 . S
C53 C55 1.384 . S
C53 H78 0.931 . S
C54 C53 1.384 . S
C54 C57 1.382 . S
C55 C53 1.384 . S
C55 C56 1.381 . S
C55 H79 0.930 . S
C56 C55 1.381 . S
C56 C58 1.381 . S
C56 C59 1.487 . S
C57 C54 1.382 . S
C57 C58 1.387 . S
C57 H80 0.930 . S
C58 C56 1.381 . S
C58 C57 1.387 . S
C58 H81 0.931 . S
C59 C52 1.399 . S
C59 C56 1.487 . S
C59 N91 1.343 1_565 S
C60 C61 1.384 . S
C60 C62 1.384 . S
C60 H82 0.931 . S
C61 C60 1.384 . S
C61 C64 1.382 . S
C62 C60 1.384 . S
C62 C63 1.381 . S
C62 H83 0.930 . S
C63 C62 1.381 . S
C63 C65 1.381 . S
C63 C66 1.487 . S
C64 C61 1.382 . S
C64 C65 1.387 . S
C64 H84 0.930 . S
C65 C63 1.381 . S
C65 C64 1.387 . S
C65 H85 0.931 . S
C66 C63 1.487 . S
C66 C73 1.399 . S
C66 N91 1.343 . S
C67 C68 1.384 . S
C67 C69 1.384 . S
C67 H86 0.931 . S
C68 C67 1.384 . S
C68 C71 1.382 . S
C69 C67 1.384 . S
C69 C70 1.381 . S
C69 H87 0.930 . S
C70 C69 1.381 . S
C70 C72 1.381 . S
C70 C73 1.487 . S
C71 C68 1.382 . S
C71 C72 1.387 . S
C71 H88 0.930 . S
C72 C70 1.381 . S
C72 C71 1.387 . S
C72 H89 0.931 . S
C73 C66 1.399 . S
C73 C70 1.487 . S
C73 N90 1.344 . S
H74 C46 0.931 . S
H75 C48 0.930 . S
H76 C50 0.930 . S
H77 C51 0.931 . S
H78 C53 0.931 . S
H79 C55 0.930 . S
H80 C57 0.930 . S
H81 C58 0.931 . S
H82 C60 0.931 . S
H83 C62 0.930 . S
H84 C64 0.930 . S
H85 C65 0.931 . S
H86 C67 0.931 . S
H87 C69 0.930 . S
H88 C71 0.930 . S
H89 C72 0.931 . S
N90 C52 1.343 1_545 S
N90 C73 1.344 . S
N91 C59 1.343 1_545 S
N91 C66 1.343 . S
C92 C93 1.384 . S
C92 C94 1.384 . S
C92 H120 0.931 . S
C93 C92 1.384 . S
C93 C96 1.382 . S
C94 C92 1.384 . S
C94 C95 1.381 . S
C94 H121 0.930 . S
C95 C94 1.381 . S
C95 C97 1.381 . S
C95 C98 1.487 . S
C96 C93 1.382 . S
C96 C97 1.387 . S
C96 H122 0.930 . S
C97 C95 1.381 . S
C97 C96 1.387 . S
C97 H123 0.931 . S
C98 C95 1.487 . S
C98 C105 1.399 . S
C98 N136 1.343 . S
C99 C100 1.384 . S
C99 C101 1.384 . S
C99 H124 0.931 . S
C100 C99 1.384 . S
C100 C103 1.382 . S
C101 C99 1.384 . S
C101 C102 1.381 . S
C101 H125 0.930 . S
C102 C101 1.381 . S
C102 C104 1.381 . S
C102 C105 1.487 . S
C103 C100 1.382 . S
C103 C104 1.387 . S
C103 H126 0.930 . S
C104 C102 1.381 . S
C104 C103 1.387 . S
C104 H127 0.931 . S
C105 C98 1.399 . S
C105 C102 1.487 . S
C105 N137 1.343 . S
C106 C107 1.384 . S
C106 C108 1.384 . S
C106 H128 0.931 . S
C107 C106 1.384 . S
C107 C110 1.382 . S
C108 C106 1.384 . S
C108 C109 1.381 . S
C108 H129 0.930 . S
C109 C108 1.381 . S
C109 C111 1.381 . S
C109 C112 1.487 . S
C110 C107 1.382 . S
C110 C111 1.387 . S
C110 H130 0.930 . S
C111 C109 1.381 . S
C111 C110 1.387 . S
C111 H131 0.931 . S
C112 C109 1.487 . S
C112 C119 1.399 . S
C112 N137 1.343 . S
C113 C114 1.384 . S
C113 C115 1.384 . S
C113 H132 0.931 . S
C114 C113 1.384 . S
C114 C117 1.382 . S
C115 C113 1.384 . S
C115 C116 1.381 . S
C115 H133 0.930 . S
C116 C115 1.381 . S
C116 C118 1.381 . S
C116 C119 1.487 . S
C117 C114 1.382 . S
C117 C118 1.387 . S
C117 H134 0.930 . S
C118 C116 1.381 . S
C118 C117 1.387 . S
C118 H135 0.931 . S
C119 C112 1.399 . S
C119 C116 1.487 . S
C119 N136 1.343 . S
H120 C92 0.931 . S
H121 C94 0.930 . S
H122 C96 0.930 . S
H123 C97 0.931 . S
H124 C99 0.931 . S
H125 C101 0.930 . S
H126 C103 0.930 . S
H127 C104 0.931 . S
H128 C106 0.931 . S
H129 C108 0.930 . S
H130 C110 0.930 . S
H131 C111 0.931 . S
H132 C113 0.931 . S
H133 C115 0.930 . S
H134 C117 0.930 . S
H135 C118 0.931 . S
N136 C98 1.343 . S
N136 C119 1.343 . S
N137 C105 1.343 . S
N137 C112 1.343 . S
C138 C139 1.384 . S
C138 C140 1.384 . S
C138 H166 0.931 . S
C139 C138 1.384 . S
C139 C142 1.382 . S
C140 C138 1.384 . S
C140 C141 1.381 . S
C140 H167 0.930 . S
C141 C140 1.381 . S
C141 C143 1.381 . S
C141 C144 1.487 . S
C142 C139 1.382 . S
C142 C143 1.387 . S
C142 H168 0.930 . S
C143 C141 1.381 . S
C143 C142 1.387 . S
C143 H169 0.931 . S
C144 C141 1.487 . S
C144 C151 1.399 . S
C144 N182 1.343 . S
C145 C146 1.384 . S
C145 C147 1.384 . S
C145 H170 0.931 . S
C146 C145 1.384 . S
C146 C149 1.382 . S
C147 C145 1.384 . S
C147 C148 1.381 . S
C147 H171 0.930 . S
C148 C147 1.381 . S
C148 C150 1.381 . S
C148 C151 1.487 . S
C149 C146 1.382 . S
C149 C150 1.387 . S
C149 H172 0.930 . S
C150 C148 1.381 . S
C150 C149 1.387 . S
C150 H173 0.931 . S
C151 C144 1.399 . S
C151 C148 1.487 . S
C151 N183 1.343 1_655 S
C152 C153 1.384 . S
C152 C154 1.384 . S
C152 H174 0.931 . S
C153 C152 1.384 . S
C153 C156 1.382 . S
C154 C152 1.384 . S
C154 C155 1.381 . S
C154 H175 0.930 . S
C155 C154 1.381 . S
C155 C157 1.381 . S
C155 C158 1.487 . S
C156 C153 1.382 . S
C156 C157 1.387 . S
C156 H176 0.930 . S
C157 C155 1.381 . S
C157 C156 1.387 . S
C157 H177 0.931 . S
C158 C155 1.487 . S
C158 C165 1.399 . S
C158 N183 1.343 . S
C159 C160 1.384 . S
C159 C161 1.384 . S
C159 H178 0.931 . S
C160 C159 1.384 . S
C160 C163 1.382 . S
C161 C159 1.384 . S
C161 C162 1.381 . S
C161 H179 0.930 . S
C162 C161 1.381 . S
C162 C164 1.381 . S
C162 C165 1.487 . S
C163 C160 1.382 . S
C163 C164 1.387 . S
C163 H180 0.930 . S
C164 C162 1.381 . S
C164 C163 1.387 . S
C164 H181 0.931 . S
C165 C158 1.399 . S
C165 C162 1.487 . S
C165 N182 1.343 1_455 S
H166 C138 0.931 . S
H167 C140 0.930 . S
H168 C142 0.930 . S
H169 C143 0.931 . S
H170 C145 0.931 . S
H171 C147 0.930 . S
H172 C149 0.930 . S
H173 C150 0.931 . S
H174 C152 0.931 . S
H175 C154 0.930 . S
H176 C156 0.930 . S
H177 C157 0.931 . S
H178 C159 0.931 . S
H179 C161 0.930 . S
H180 C163 0.930 . S
H181 C164 0.931 . S
N182 C144 1.343 . S
N182 C165 1.343 1_655 S
N183 C151 1.343 1_455 S
N183 C158 1.343 . S
C184 C185 1.384 . S
C184 C186 1.384 . S
C184 H212 0.931 . S
C185 C184 1.384 . S
C185 C188 1.382 . S
C186 C184 1.384 . S
C186 C187 1.381 . S
C186 H213 0.930 1_556 S
C187 C186 1.381 . S
C187 C189 1.381 . S
C187 C190 1.487 . S
C188 C185 1.382 . S
C188 C189 1.387 . S
C188 H214 0.930 . S
C189 C187 1.381 . S
C189 C188 1.387 . S
C189 H215 0.931 . S
C190 C187 1.487 . S
C190 C197 1.399 1_556 S
C190 N228 1.343 . S
C191 C192 1.384 . S
C191 C193 1.384 . S
C191 H216 0.931 . S
C192 C191 1.384 . S
C192 C195 1.382 . S
C193 C191 1.384 . S
C193 C194 1.381 . S
C193 H217 0.930 . S
C194 C193 1.381 . S
C194 C196 1.381 . S
C194 C197 1.487 . S
C195 C192 1.382 . S
C195 C196 1.387 . S
C195 H218 0.930 . S
C196 C194 1.381 . S
C196 C195 1.387 . S
C196 H219 0.931 . S
C197 C190 1.399 1_554 S
C197 C194 1.487 . S
C197 N229 1.343 1_565 S
C198 C199 1.384 . S
C198 C200 1.377 1_554 S
C198 H220 0.931 . S
C199 C198 1.384 . S
C199 C202 1.382 . S
C200 C198 1.377 1_556 S
C200 C201 1.374 1_556 S
C200 H221 0.945 . S
C201 C200 1.374 1_554 S
C201 C203 1.381 . S
C201 C204 1.498 . S
C202 C199 1.382 . S
C202 C203 1.387 . S
C202 H222 0.930 . S
C203 C201 1.381 . S
C203 C202 1.387 . S
C203 H223 0.931 . S
C204 C201 1.498 . S
C204 C211 1.363 1_554 S
C204 N229 1.372 . S
C205 C206 1.384 . S
C205 C207 1.384 . S
C205 H224 0.931 . S
C206 C205 1.384 . S
C206 C209 1.382 . S
C207 C205 1.384 . S
C207 C208 1.381 . S
C207 H225 0.930 . S
C208 C207 1.381 . S
C208 C210 1.381 . S
C208 C211 1.487 . S
C209 C206 1.382 . S
C209 C210 1.387 . S
C209 H226 0.930 . S
C210 C208 1.381 . S
C210 C209 1.387 . S
C210 H227 0.931 . S
C211 C204 1.363 1_556 S
C211 C208 1.487 . S
C211 N228 1.343 1_545 S
H212 C184 0.931 . S
H213 C186 0.930 1_554 S
H214 C188 0.930 . S
H215 C189 0.931 . S
H216 C191 0.931 . S
H217 C193 0.930 . S
H218 C195 0.930 . S
H219 C196 0.931 . S
H220 C198 0.931 . S
H221 C200 0.945 . S
H222 C202 0.930 . S
H223 C203 0.931 . S
H224 C205 0.931 . S
H225 C207 0.930 . S
H226 C209 0.930 . S
H227 C210 0.931 . S
N228 C190 1.343 . S
N228 C211 1.343 1_565 S
N229 C197 1.343 1_545 S
N229 C204 1.372 . S
C230 C231 1.384 . S
C230 C232 1.384 . S
C230 H258 0.931 . S
C231 C230 1.384 . S
C231 C234 1.382 . S
C232 C230 1.384 . S
C232 C233 1.381 . S
C232 H259 0.930 . S
C233 C232 1.381 . S
C233 C235 1.381 . S
C233 C236 1.487 . S
C234 C231 1.382 . S
C234 C235 1.387 . S
C234 H260 0.930 . S
C235 C233 1.381 . S
C235 C234 1.387 . S
C235 H261 0.931 . S
C236 C233 1.487 . S
C236 C243 1.399 . S
C236 N274 1.343 . S
C237 C238 1.384 . S
C237 C239 1.384 . S
C237 H262 0.931 . S
C238 C237 1.384 . S
C238 C241 1.382 . S
C239 C237 1.384 . S
C239 C240 1.381 . S
C239 H263 0.930 . S
C240 C239 1.381 . S
C240 C242 1.381 . S
C240 C243 1.487 . S
C241 C238 1.382 . S
C241 C242 1.387 . S
C241 H264 0.930 . S
C242 C240 1.381 . S
C242 C241 1.387 . S
C242 H265 0.931 . S
C243 C236 1.399 . S
C243 C240 1.487 . S
C243 N275 1.343 . S
C244 C245 1.384 . S
C244 C246 1.384 . S
C244 H266 0.931 . S
C245 C244 1.384 . S
C245 C248 1.382 . S
C246 C244 1.384 . S
C246 C247 1.381 . S
C246 H267 0.930 . S
C247 C246 1.381 . S
C247 C249 1.381 . S
C247 C250 1.487 . S
C248 C245 1.382 . S
C248 C249 1.387 . S
C248 H268 0.930 . S
C249 C247 1.381 . S
C249 C248 1.387 . S
C249 H269 0.931 . S
C250 C247 1.487 . S
C250 C257 1.399 . S
C250 N275 1.343 . S
C251 C252 1.384 . S
C251 C253 1.384 . S
C251 H270 0.931 . S
C252 C251 1.384 . S
C252 C255 1.382 . S
C253 C251 1.384 . S
C253 C254 1.381 . S
C253 H271 0.930 . S
C254 C253 1.381 . S
C254 C256 1.381 . S
C254 C257 1.487 . S
C255 C252 1.382 . S
C255 C256 1.387 . S
C255 H272 0.930 . S
C256 C254 1.381 . S
C256 C255 1.387 . S
C256 H273 0.931 . S
C257 C250 1.399 . S
C257 C254 1.487 . S
C257 N274 1.343 . S
H258 C230 0.931 . S
H259 C232 0.930 . S
H260 C234 0.930 . S
H261 C235 0.931 . S
H262 C237 0.931 . S
H263 C239 0.930 . S
H264 C241 0.930 . S
H265 C242 0.931 . S
H266 C244 0.931 . S
H267 C246 0.930 . S
H268 C248 0.930 . S
H269 C249 0.931 . S
H270 C251 0.931 . S
H271 C253 0.930 . S
H272 C255 0.930 . S
H273 C256 0.931 . S
N274 C236 1.343 . S
N274 C257 1.343 . S
N275 C243 1.343 . S
N275 C250 1.343 . S
C276 O277 1.306 . S
C276 O279 1.160 . S
O277 C276 1.306 . S
O277 Cd278 2.228 . S
Cd278 O277 2.228 . S
Cd278 O282 2.273 . S
Cd278 O286 2.277 . S
O279 C276 1.160 . S
O279 Cd280 2.203 . S
Cd280 O279 2.203 . S
Cd280 O282 2.411 . S
Cd280 O283 2.333 . S
Cd280 O284 2.352 . S
Cd280 O288 2.277 . S
Cd280 O289 2.356 . S
C281 O286 1.209 . S
C281 O288 1.226 . S
O282 Cd278 2.273 . S
O282 Cd280 2.411 . S
O282 C285 1.320 . S
O283 Cd280 2.333 . S
O283 C285 1.214 . S
O284 Cd280 2.352 . S
O284 C287 1.258 . S
C285 O282 1.320 . S
C285 O283 1.214 . S
O286 Cd278 2.277 . S
O286 C281 1.209 . S
C287 O284 1.258 . S
C287 O289 1.282 . S
O288 Cd280 2.277 . S
O288 C281 1.226 . S
O289 Cd280 2.356 . S
O289 C287 1.282 . S
C290 O291 1.306 . S
C290 O293 1.160 . S
O291 C290 1.306 . S
O291 Cd292 2.228 . S
Cd292 O291 2.228 . S
Cd292 O296 2.273 . S
Cd292 O300 2.277 . S
O293 C290 1.160 . S
O293 Cd294 2.203 . S
Cd294 O293 2.203 . S
Cd294 O296 2.411 . S
Cd294 O297 2.333 . S
Cd294 O298 2.352 . S
Cd294 O302 2.277 . S
Cd294 O303 2.356 . S
C295 O300 1.209 . S
C295 O302 1.226 . S
O296 Cd292 2.273 . S
O296 Cd294 2.411 . S
O296 C299 1.320 . S
O297 Cd294 2.333 . S
O297 C299 1.214 . S
O298 Cd294 2.352 . S
O298 C301 1.258 . S
C299 O296 1.320 . S
C299 O297 1.214 . S
O300 Cd292 2.277 . S
O300 C295 1.209 . S
C301 O298 1.258 . S
C301 O303 1.282 . S
O302 Cd294 2.277 . S
O302 C295 1.226 . S
O303 Cd294 2.356 . S
O303 C301 1.282 . S
C304 O305 1.306 . S
C304 O307 1.160 . S
O305 C304 1.306 . S
O305 Cd306 2.228 . S
Cd306 O305 2.228 . S
Cd306 O310 2.273 . S
Cd306 O314 2.277 . S
O307 C304 1.160 . S
O307 Cd308 2.203 . S
Cd308 O307 2.203 . S
Cd308 O310 2.411 . S
Cd308 O311 2.333 . S
Cd308 O312 2.352 . S
Cd308 O316 2.277 . S
Cd308 O317 2.356 . S
C309 O314 1.209 . S
C309 O316 1.226 . S
O310 Cd306 2.273 . S
O310 Cd308 2.411 . S
O310 C313 1.320 . S
O311 Cd308 2.333 . S
O311 C313 1.214 . S
O312 Cd308 2.352 . S
O312 C315 1.258 . S
C313 O310 1.320 . S
C313 O311 1.214 . S
O314 Cd306 2.277 . S
O314 C309 1.209 . S
C315 O312 1.258 . S
C315 O317 1.282 . S
O316 Cd308 2.277 . S
O316 C309 1.226 . S
O317 Cd308 2.356 . S
O317 C315 1.282 . S
C318 O319 1.306 . S
C318 O321 1.160 . S
O319 C318 1.306 . S
O319 Cd320 2.228 . S
Cd320 O319 2.228 . S
Cd320 O324 2.273 . S
Cd320 O328 2.277 . S
O321 C318 1.160 . S
O321 Cd322 2.203 . S
Cd322 O321 2.203 . S
Cd322 O324 2.411 . S
Cd322 O325 2.333 . S
Cd322 O326 2.352 . S
Cd322 O330 2.277 . S
Cd322 O331 2.356 . S
C323 O328 1.209 . S
C323 O330 1.226 . S
O324 Cd320 2.273 . S
O324 Cd322 2.411 . S
O324 C327 1.320 . S
O325 Cd322 2.333 . S
O325 C327 1.214 . S
O326 Cd322 2.352 . S
O326 C329 1.258 . S
C327 O324 1.320 . S
C327 O325 1.214 . S
O328 Cd320 2.277 . S
O328 C323 1.209 . S
C329 O326 1.258 . S
C329 O331 1.282 . S
O330 Cd322 2.277 . S
O330 C323 1.226 . S
O331 Cd322 2.356 . S
O331 C329 1.282 . S
C332 O333 1.306 . S
C332 O335 1.160 . S
O333 C332 1.306 . S
O333 Cd334 2.228 . S
Cd334 O333 2.228 . S
Cd334 O338 2.273 . S
Cd334 O342 2.277 . S
O335 C332 1.160 . S
O335 Cd336 2.203 . S
Cd336 O335 2.203 . S
Cd336 O338 2.411 . S
Cd336 O339 2.333 . S
Cd336 O340 2.352 . S
Cd336 O344 2.277 . S
Cd336 O345 2.356 . S
C337 O342 1.209 . S
C337 O344 1.226 . S
O338 Cd334 2.273 . S
O338 Cd336 2.411 . S
O338 C341 1.320 . S
O339 Cd336 2.333 . S
O339 C341 1.214 . S
O340 Cd336 2.352 . S
O340 C343 1.258 . S
C341 O338 1.320 . S
C341 O339 1.214 . S
O342 Cd334 2.277 . S
O342 C337 1.209 . S
C343 O340 1.258 . S
C343 O345 1.282 . S
O344 Cd336 2.277 . S
O344 C337 1.226 . S
O345 Cd336 2.356 . S
O345 C343 1.282 . S
C346 O347 1.306 . S
C346 O349 1.160 . S
O347 C346 1.306 . S
O347 Cd348 2.228 . S
Cd348 O347 2.228 . S
Cd348 O352 2.273 . S
Cd348 O356 2.277 . S
O349 C346 1.160 . S
O349 Cd350 2.203 . S
Cd350 O349 2.203 . S
Cd350 O352 2.411 . S
Cd350 O353 2.333 . S
Cd350 O354 2.352 . S
Cd350 O358 2.277 . S
Cd350 O359 2.356 . S
C351 O356 1.209 . S
C351 O358 1.226 . S
O352 Cd348 2.273 . S
O352 Cd350 2.411 . S
O352 C355 1.320 . S
O353 Cd350 2.333 . S
O353 C355 1.214 . S
O354 Cd350 2.352 . S
O354 C357 1.258 . S
C355 O352 1.320 . S
C355 O353 1.214 . S
O356 Cd348 2.277 . S
O356 C351 1.209 . S
C357 O354 1.258 . S
C357 O359 1.282 . S
O358 Cd350 2.277 . S
O358 C351 1.226 . S
O359 Cd350 2.356 . S
O359 C357 1.282 . S
C360 C361 1.363 . S
C360 C366 1.379 . S
C360 N368 1.356 . S
C361 C360 1.363 . S
C361 C367 1.363 . S
C362 C363 1.363 . S
C362 C367 1.379 . S
C362 N369 1.356 . S
C363 C362 1.363 . S
C363 C366 1.363 . S
N364 C366 1.356 . S
N364 H376 0.984 . S
N364 H377 0.985 . S
N365 C367 1.356 . S
N365 H370 0.984 . S
N365 H371 0.985 . S
C366 C360 1.379 . S
C366 C363 1.363 . S
C366 N364 1.356 . S
C367 C361 1.363 . S
C367 C362 1.379 . S
C367 N365 1.356 . S
N368 C360 1.356 . S
N368 H374 0.984 . S
N368 H375 0.984 . S
N369 C362 1.356 . S
N369 H372 0.984 . S
N369 H373 0.985 . S
H370 N365 0.984 . S
H371 N365 0.985 . S
H372 N369 0.984 . S
H373 N369 0.985 . S
H374 N368 0.984 . S
H375 N368 0.984 . S
H376 N364 0.984 . S
H377 N364 0.985 . S
C378 C379 1.363 . S
C378 C384 1.379 . S
C378 N386 1.356 . S
C379 C378 1.363 . S
C379 C385 1.363 . S
C380 C381 1.363 . S
C380 C385 1.379 . S
C380 N387 1.356 . S
C381 C380 1.363 . S
C381 C384 1.363 . S
N382 C384 1.356 . S
N382 H394 0.984 . S
N382 H395 0.985 . S
N383 C385 1.356 . S
N383 H388 0.984 . S
N383 H389 0.985 . S
C384 C378 1.379 . S
C384 C381 1.363 . S
C384 N382 1.356 . S
C385 C379 1.363 . S
C385 C380 1.379 . S
C385 N383 1.356 . S
N386 C378 1.356 . S
N386 H392 0.984 . S
N386 H393 0.984 . S
N387 C380 1.356 . S
N387 H390 0.984 . S
N387 H391 0.985 . S
H388 N383 0.984 . S
H389 N383 0.985 . S
H390 N387 0.984 . S
H391 N387 0.985 . S
H392 N386 0.984 . S
H393 N386 0.984 . S
H394 N382 0.984 . S
H395 N382 0.985 . S
C396 C397 1.363 . S
C396 C402 1.379 . S
C396 N404 1.356 . S
C397 C396 1.363 . S
C397 C403 1.363 . S
C398 C399 1.363 . S
C398 C403 1.379 . S
C398 N405 1.356 . S
C399 C398 1.363 . S
C399 C402 1.363 . S
N400 C402 1.356 . S
N400 H412 0.984 . S
N400 H413 0.985 . S
N401 C403 1.356 . S
N401 H406 0.984 . S
N401 H407 0.985 . S
C402 C396 1.379 . S
C402 C399 1.363 . S
C402 N400 1.356 . S
C403 C397 1.363 . S
C403 C398 1.379 . S
C403 N401 1.356 . S
N404 C396 1.356 . S
N404 H410 0.984 . S
N404 H411 0.984 . S
N405 C398 1.356 . S
N405 H408 0.984 . S
N405 H409 0.985 . S
H406 N401 0.984 . S
H407 N401 0.985 . S
H408 N405 0.984 . S
H409 N405 0.985 . S
H410 N404 0.984 . S
H411 N404 0.984 . S
H412 N400 0.984 . S
H413 N400 0.985 . S
C414 C415 1.363 . S
C414 C420 1.379 . S
C414 N422 1.356 . S
C415 C414 1.363 . S
C415 C421 1.363 . S
C416 C417 1.363 . S
C416 C421 1.379 . S
C416 N423 1.356 . S
C417 C416 1.363 . S
C417 C420 1.363 . S
N418 C420 1.356 . S
N418 H430 0.984 . S
N418 H431 0.985 . S
N419 C421 1.356 . S
N419 H424 0.984 . S
N419 H425 0.985 . S
C420 C414 1.379 . S
C420 C417 1.363 . S
C420 N418 1.356 . S
C421 C415 1.363 . S
C421 C416 1.379 . S
C421 N419 1.356 . S
N422 C414 1.356 . S
N422 H428 0.984 . S
N422 H429 0.984 . S
N423 C416 1.356 . S
N423 H426 0.984 . S
N423 H427 0.985 . S
H424 N419 0.984 . S
H425 N419 0.985 . S
H426 N423 0.984 . S
H427 N423 0.985 . S
H428 N422 0.984 . S
H429 N422 0.984 . S
H430 N418 0.984 . S
H431 N418 0.985 . S
C432 C433 1.363 . S
C432 C438 1.379 . S
C432 N440 1.356 . S
C433 C432 1.363 . S
C433 C439 1.363 . S
C434 C435 1.363 . S
C434 C439 1.379 . S
C434 N441 1.356 . S
C435 C434 1.363 . S
C435 C438 1.363 . S
N436 C438 1.356 . S
N436 H448 0.984 . S
N436 H449 0.985 . S
N437 C439 1.356 . S
N437 H442 0.984 . S
N437 H443 0.985 . S
C438 C432 1.379 . S
C438 C435 1.363 . S
C438 N436 1.356 . S
C439 C433 1.363 . S
C439 C434 1.379 . S
C439 N437 1.356 . S
N440 C432 1.356 . S
N440 H446 0.984 1_556 S
N440 H447 0.984 . S
N441 C434 1.356 . S
N441 H444 0.984 . S
N441 H445 0.985 . S
H442 N437 0.984 . S
H443 N437 0.985 . S
H444 N441 0.984 . S
H445 N441 0.985 . S
H446 N440 0.984 1_554 S
H447 N440 0.984 . S
H448 N436 0.984 . S
H449 N436 0.985 . S
C450 C451 1.363 . S
C450 C456 1.379 . S
C450 N458 1.356 . S
C451 C450 1.363 . S
C451 C457 1.363 . S
C452 C453 1.363 . S
C452 C457 1.379 . S
C452 N459 1.356 . S
C453 C452 1.363 . S
C453 C456 1.363 . S
N454 C456 1.356 . S
N454 H466 0.984 . S
N454 H467 0.985 . S
N455 C457 1.356 . S
N455 H460 0.984 . S
N455 H461 0.985 . S
C456 C450 1.379 . S
C456 C453 1.363 . S
C456 N454 1.356 . S
C457 C451 1.363 . S
C457 C452 1.379 . S
C457 N455 1.356 . S
N458 C450 1.356 . S
N458 H464 0.984 . S
N458 H465 0.984 . S
N459 C452 1.356 . S
N459 H462 0.984 . S
N459 H463 0.985 . S
H460 N455 0.984 . S
H461 N455 0.985 . S
H462 N459 0.984 . S
H463 N459 0.985 . S
H464 N458 0.984 . S
H465 N458 0.984 . S
H466 N454 0.984 . S
H467 N454 0.985 . S
C468 C469 1.363 . S
C468 C474 1.379 . S
C468 N476 1.356 . S
C469 C468 1.363 . S
C469 C475 1.363 . S
C470 C471 1.363 . S
C470 C475 1.379 . S
C470 N477 1.356 . S
C471 C470 1.363 . S
C471 C474 1.363 . S
N472 C474 1.356 . S
N472 H484 0.984 . S
N472 H485 0.985 . S
N473 C475 1.356 . S
N473 H478 0.984 . S
N473 H479 0.985 . S
C474 C468 1.379 . S
C474 C471 1.363 . S
C474 N472 1.356 . S
C475 C469 1.363 . S
C475 C470 1.379 . S
C475 N473 1.356 . S
N476 C468 1.356 . S
N476 H482 0.984 . S
N476 H483 0.984 . S
N477 C470 1.356 . S
N477 H480 0.984 . S
N477 H481 0.985 . S
H478 N473 0.984 . S
H479 N473 0.985 . S
H480 N477 0.984 . S
H481 N477 0.985 . S
H482 N476 0.984 . S
H483 N476 0.984 . S
H484 N472 0.984 . S
H485 N472 0.985 . S
C486 C487 1.363 . S
C486 C492 1.379 . S
C486 N494 1.356 . S
C487 C486 1.363 . S
C487 C493 1.363 . S
C488 C489 1.363 . S
C488 C493 1.379 . S
C488 N495 1.356 . S
C489 C488 1.363 . S
C489 C492 1.363 . S
N490 C492 1.356 . S
N490 H502 0.984 . S
N490 H503 0.985 . S
N491 C493 1.356 . S
N491 H496 0.984 . S
N491 H497 0.985 . S
C492 C486 1.379 . S
C492 C489 1.363 . S
C492 N490 1.356 . S
C493 C487 1.363 . S
C493 C488 1.379 . S
C493 N491 1.356 . S
N494 C486 1.356 . S
N494 H500 0.984 . S
N494 H501 0.984 . S
N495 C488 1.356 . S
N495 H498 0.984 . S
N495 H499 0.985 . S
H496 N491 0.984 . S
H497 N491 0.985 . S
H498 N495 0.984 . S
H499 N495 0.985 . S
H500 N494 0.984 . S
H501 N494 0.984 . S
H502 N490 0.984 . S
H503 N490 0.985 . S
C504 C505 1.363 . S
C504 C510 1.379 . S
C504 N512 1.356 . S
C505 C504 1.363 . S
C505 C511 1.363 . S
C506 C507 1.363 . S
C506 C511 1.379 . S
C506 N513 1.356 . S
C507 C506 1.363 . S
C507 C510 1.363 . S
N508 C510 1.356 . S
N508 H520 0.984 . S
N508 H521 0.985 . S
N509 C511 1.356 . S
N509 H514 0.984 . S
N509 H515 0.985 . S
C510 C504 1.379 . S
C510 C507 1.363 . S
C510 N508 1.356 . S
C511 C505 1.363 . S
C511 C506 1.379 . S
C511 N509 1.356 . S
N512 C504 1.356 . S
N512 H518 0.984 . S
N512 H519 0.984 . S
N513 C506 1.356 . S
N513 H516 0.984 . S
N513 H517 0.985 . S
H514 N509 0.984 . S
H515 N509 0.985 . S
H516 N513 0.984 . S
H517 N513 0.985 . S
H518 N512 0.984 . S
H519 N512 0.984 . S
H520 N508 0.984 . S
H521 N508 0.985 . S
C522 C523 1.363 . S
C522 C528 1.379 . S
C522 N530 1.372 . S
C523 C522 1.363 . S
C523 C529 1.363 . S
C524 C525 1.363 . S
C524 C529 1.379 . S
C524 N531 1.356 . S
C525 C524 1.363 . S
C525 C528 1.363 . S
N526 C528 1.356 . S
N526 H538 0.984 1_554 S
N526 H539 0.985 . S
N527 C529 1.356 . S
N527 H532 0.984 . S
N527 H533 0.985 . S
C528 C522 1.379 . S
C528 C525 1.363 . S
C528 N526 1.356 . S
C529 C523 1.363 . S
C529 C524 1.379 . S
C529 N527 1.356 . S
N530 C522 1.372 . S
N530 H536 0.967 1_554 S
N530 H537 0.987 . S
N531 C524 1.356 . S
N531 H534 0.984 . S
N531 H535 0.985 . S
H532 N527 0.984 . S
H533 N527 0.985 . S
H534 N531 0.984 . S
H535 N531 0.985 . S
H536 N530 0.967 1_556 S
H537 N530 0.987 . S
H538 N526 0.984 1_556 S
H539 N526 0.985 . S
C540 C541 1.363 . S
C540 C546 1.379 . S
C540 N548 1.356 . S
C541 C540 1.363 . S
C541 C547 1.363 . S
C542 C543 1.363 . S
C542 C547 1.379 . S
C542 N549 1.356 . S
C543 C542 1.363 . S
C543 C546 1.363 . S
N544 C546 1.356 . S
N544 H556 0.984 . S
N544 H557 0.985 . S
N545 C547 1.356 . S
N545 H550 0.984 . S
N545 H551 0.985 . S
C546 C540 1.379 . S
C546 C543 1.363 . S
C546 N544 1.356 . S
C547 C541 1.363 . S
C547 C542 1.379 . S
C547 N545 1.356 . S
N548 C540 1.356 . S
N548 H554 0.984 . S
N548 H555 0.984 . S
N549 C542 1.356 . S
N549 H552 0.984 . S
N549 H553 0.985 . S
H550 N545 0.984 . S
H551 N545 0.985 . S
H552 N549 0.984 . S
H553 N549 0.985 . S
H554 N548 0.984 . S
H555 N548 0.984 . S
H556 N544 0.984 . S
H557 N544 0.985 . S
C558 C559 1.363 . S
C558 C564 1.379 . S
C558 N566 1.356 . S
C559 C558 1.363 . S
C559 C565 1.363 . S
C560 C561 1.363 . S
C560 C565 1.379 . S
C560 N567 1.356 . S
C561 C560 1.363 . S
C561 C564 1.363 . S
N562 C564 1.356 . S
N562 H574 0.984 . S
N562 H575 0.985 . S
N563 C565 1.356 . S
N563 H568 0.984 . S
N563 H569 0.985 . S
C564 C558 1.379 . S
C564 C561 1.363 . S
C564 N562 1.356 . S
C565 C559 1.363 . S
C565 C560 1.379 . S
C565 N563 1.356 . S
N566 C558 1.356 . S
N566 H572 0.984 . S
N566 H573 0.984 . S
N567 C560 1.356 . S
N567 H570 0.984 . S
N567 H571 0.985 . S
H568 N563 0.984 . S
H569 N563 0.985 . S
H570 N567 0.984 . S
H571 N567 0.985 . S
H572 N566 0.984 . S
H573 N566 0.984 . S
H574 N562 0.984 . S
H575 N562 0.985 . S
C576 C577 1.363 . S
C576 C582 1.379 . S
C576 N584 1.356 . S
C577 C576 1.363 . S
C577 C583 1.363 . S
C578 C579 1.363 . S
C578 C583 1.379 . S
C578 N585 1.356 . S
C579 C578 1.363 . S
C579 C582 1.363 . S
N580 C582 1.356 . S
N580 H592 0.984 . S
N580 H593 0.985 . S
N581 C583 1.356 . S
N581 H586 0.984 . S
N581 H587 0.985 . S
C582 C576 1.379 . S
C582 C579 1.363 . S
C582 N580 1.356 . S
C583 C577 1.363 . S
C583 C578 1.379 . S
C583 N581 1.356 . S
N584 C576 1.356 . S
N584 H590 0.984 . S
N584 H591 0.984 . S
N585 C578 1.356 . S
N585 H588 0.984 . S
N585 H589 0.985 . S
H586 N581 0.984 . S
H587 N581 0.985 . S
H588 N585 0.984 . S
H589 N585 0.985 . S
H590 N584 0.984 . S
H591 N584 0.984 . S
H592 N580 0.984 . S
H593 N580 0.985 . S
C594 C595 1.363 . S
C594 C600 1.379 . S
C594 N602 1.356 . S
C595 C594 1.363 . S
C595 C601 1.363 . S
C596 C597 1.363 . S
C596 C601 1.379 . S
C596 N603 1.356 . S
C597 C596 1.363 . S
C597 C600 1.363 . S
N598 C600 1.356 . S
N598 H610 0.984 . S
N598 H611 0.985 . S
N599 C601 1.356 . S
N599 H604 0.984 . S
N599 H605 0.985 . S
C600 C594 1.379 . S
C600 C597 1.363 . S
C600 N598 1.356 . S
C601 C595 1.363 . S
C601 C596 1.379 . S
C601 N599 1.356 . S
N602 C594 1.356 . S
N602 H608 0.984 . S
N602 H609 0.984 . S
N603 C596 1.356 . S
N603 H606 0.984 . S
N603 H607 0.985 . S
H604 N599 0.984 . S
H605 N599 0.985 . S
H606 N603 0.984 . S
H607 N603 0.985 . S
H608 N602 0.984 . S
H609 N602 0.984 . S
H610 N598 0.984 . S
H611 N598 0.985 . S
C612 C613 1.363 . S
C612 C618 1.379 . S
C612 N620 1.356 . S
C613 C612 1.363 . S
C613 C619 1.363 . S
C614 C615 1.363 . S
C614 C619 1.379 . S
C614 N621 1.356 . S
C615 C614 1.363 . S
C615 C618 1.363 . S
N616 C618 1.356 . S
N616 H628 0.984 . S
N616 H629 0.985 . S
N617 C619 1.356 . S
N617 H622 0.984 . S
N617 H623 0.985 . S
C618 C612 1.379 . S
C618 C615 1.363 . S
C618 N616 1.356 . S
C619 C613 1.363 . S
C619 C614 1.379 . S
C619 N617 1.356 . S
N620 C612 1.356 . S
N620 H626 0.984 . S
N620 H627 0.984 . S
N621 C614 1.356 . S
N621 H624 0.984 . S
N621 H625 0.985 . S
H622 N617 0.984 . S
H623 N617 0.985 . S
H624 N621 0.984 . S
H625 N621 0.985 . S
H626 N620 0.984 . S
H627 N620 0.984 . S
H628 N616 0.984 . S
H629 N616 0.985 . S
C630 C631 1.363 . S
C630 C636 1.379 1_556 S
C630 N638 1.356 . S
C631 C630 1.363 . S
C631 C637 1.363 . S
C632 C633 1.363 1_556 S
C632 C637 1.379 . S
C632 N639 1.356 . S
C633 C632 1.363 1_554 S
C633 C636 1.363 . S
N634 C636 1.356 . S
N634 H646 0.984 . S
N634 H647 0.985 . S
N635 C637 1.356 . S
N635 H640 0.984 . S
N635 H641 0.985 . S
C636 C630 1.379 1_554 S
C636 C633 1.363 . S
C636 N634 1.356 . S
C637 C631 1.363 . S
C637 C632 1.379 . S
C637 N635 1.356 . S
N638 C630 1.356 . S
N638 H644 0.984 . S
N638 H645 0.984 . S
N639 C632 1.356 . S
N639 H642 0.984 1_556 S
N639 H643 0.985 . S
H640 N635 0.984 . S
H641 N635 0.985 . S
H642 N639 0.984 1_554 S
H643 N639 0.985 . S
H644 N638 0.984 . S
H645 N638 0.984 . S
H646 N634 0.984 . S
H647 N634 0.985 . S
C648 C649 1.363 . S
C648 C654 1.379 . S
C648 N656 1.356 . S
C649 C648 1.363 . S
C649 C655 1.363 . S
C650 C651 1.363 . S
C650 C655 1.379 . S
C650 N657 1.356 . S
C651 C650 1.363 . S
C651 C654 1.363 . S
N652 C654 1.356 . S
N652 H664 0.984 . S
N652 H665 0.985 . S
N653 C655 1.356 . S
N653 H658 0.984 . S
N653 H659 0.985 . S
C654 C648 1.379 . S
C654 C651 1.363 . S
C654 N652 1.356 . S
C655 C649 1.363 . S
C655 C650 1.379 . S
C655 N653 1.356 . S
N656 C648 1.356 . S
N656 H662 0.984 . S
N656 H663 0.984 . S
N657 C650 1.356 . S
N657 H660 0.984 . S
N657 H661 0.985 . S
H658 N653 0.984 . S
H659 N653 0.985 . S
H660 N657 0.984 . S
H661 N657 0.985 . S
H662 N656 0.984 . S
H663 N656 0.984 . S
H664 N652 0.984 . S
H665 N652 0.985 . S
C666 C667 1.363 . S
C666 C672 1.379 . S
C666 N674 1.356 . S
C667 C666 1.363 . S
C667 C673 1.363 . S
C668 C669 1.363 . S
C668 C673 1.379 . S
C668 N675 1.356 . S
C669 C668 1.363 . S
C669 C672 1.363 . S
N670 C672 1.356 . S
N670 H682 0.984 . S
N670 H683 0.985 . S
N671 C673 1.356 . S
N671 H676 0.984 . S
N671 H677 0.985 . S
C672 C666 1.379 . S
C672 C669 1.363 . S
C672 N670 1.356 . S
C673 C667 1.363 . S
C673 C668 1.379 . S
C673 N671 1.356 . S
N674 C666 1.356 . S
N674 H680 0.984 . S
N674 H681 0.984 . S
N675 C668 1.356 . S
N675 H678 0.984 . S
N675 H679 0.985 . S
H676 N671 0.984 . S
H677 N671 0.985 . S
H678 N675 0.984 . S
H679 N675 0.985 . S
H680 N674 0.984 . S
H681 N674 0.984 . S
H682 N670 0.984 . S
H683 N670 0.985 . S
C684 C685 1.363 . S
C684 C690 1.379 . S
C684 N692 1.356 . S
C685 C684 1.363 . S
C685 C691 1.363 . S
C686 C687 1.363 . S
C686 C691 1.379 . S
C686 N693 1.356 . S
C687 C686 1.363 . S
C687 C690 1.363 . S
N688 C690 1.356 . S
N688 H700 0.984 . S
N688 H701 0.985 . S
N689 C691 1.356 . S
N689 H694 0.984 . S
N689 H695 0.985 . S
C690 C684 1.379 . S
C690 C687 1.363 . S
C690 N688 1.356 . S
C691 C685 1.363 . S
C691 C686 1.379 . S
C691 N689 1.356 . S
N692 C684 1.356 . S
N692 H698 0.984 . S
N692 H699 0.984 . S
N693 C686 1.356 . S
N693 H696 0.984 . S
N693 H697 0.985 . S
H694 N689 0.984 . S
H695 N689 0.985 . S
H696 N693 0.984 . S
H697 N693 0.985 . S
H698 N692 0.984 . S
H699 N692 0.984 . S
H700 N688 0.984 . S
H701 N688 0.985 . S
C702 C703 1.363 . S
C702 C708 1.379 . S
C702 N710 1.356 . S
C703 C702 1.363 . S
C703 C709 1.363 . S
C704 C705 1.363 . S
C704 C709 1.379 . S
C704 N711 1.356 . S
C705 C704 1.363 . S
C705 C708 1.363 . S
N706 C708 1.356 . S
N706 H718 0.984 . S
N706 H719 0.985 . S
N707 C709 1.356 . S
N707 H712 0.984 . S
N707 H713 0.985 . S
C708 C702 1.379 . S
C708 C705 1.363 . S
C708 N706 1.356 . S
C709 C703 1.363 . S
C709 C704 1.379 . S
C709 N707 1.356 . S
N710 C702 1.356 . S
N710 H716 0.984 . S
N710 H717 0.984 . S
N711 C704 1.356 . S
N711 H714 0.984 . S
N711 H715 0.985 . S
H712 N707 0.984 . S
H713 N707 0.985 . S
H714 N711 0.984 . S
H715 N711 0.985 . S
H716 N710 0.984 . S
H717 N710 0.984 . S
H718 N706 0.984 . S
H719 N706 0.985 . S
C720 C721 1.363 . S
C720 C726 1.379 . S
C720 N728 1.356 . S
C721 C720 1.363 . S
C721 C727 1.363 . S
C722 C723 1.363 . S
C722 C727 1.379 . S
C722 N729 1.356 . S
C723 C722 1.363 . S
C723 C726 1.363 . S
N724 C726 1.356 . S
N724 H736 0.984 . S
N724 H737 0.985 . S
N725 C727 1.356 . S
N725 H730 0.984 . S
N725 H731 0.985 . S
C726 C720 1.379 . S
C726 C723 1.363 . S
C726 N724 1.356 . S
C727 C721 1.363 . S
C727 C722 1.379 . S
C727 N725 1.356 . S
N728 C720 1.356 . S
N728 H734 0.984 . S
N728 H735 0.984 . S
N729 C722 1.356 . S
N729 H732 0.984 . S
N729 H733 0.985 . S
H730 N725 0.984 . S
H731 N725 0.985 . S
H732 N729 0.984 . S
H733 N729 0.985 . S
H734 N728 0.984 . S
H735 N728 0.984 . S
H736 N724 0.984 . S
H737 N724 0.985 . S
C738 C739 1.363 . S
C738 C744 1.379 . S
C738 N746 1.356 . S
C739 C738 1.363 . S
C739 C745 1.363 . S
C740 C741 1.363 . S
C740 C745 1.379 . S
C740 N747 1.356 . S
C741 C740 1.363 . S
C741 C744 1.363 . S
N742 C744 1.356 . S
N742 H754 0.984 . S
N742 H755 0.985 . S
N743 C745 1.356 . S
N743 H748 0.984 . S
N743 H749 0.985 . S
C744 C738 1.379 . S
C744 C741 1.363 . S
C744 N742 1.356 . S
C745 C739 1.363 . S
C745 C740 1.379 . S
C745 N743 1.356 . S
N746 C738 1.356 . S
N746 H752 0.984 . S
N746 H753 0.984 . S
N747 C740 1.356 . S
N747 H750 0.984 . S
N747 H751 0.985 . S
H748 N743 0.984 . S
H749 N743 0.985 . S
H750 N747 0.984 . S
H751 N747 0.985 . S
H752 N746 0.984 . S
H753 N746 0.984 . S
H754 N742 0.984 . S
H755 N742 0.985 . S
C756 C757 1.333 1_556 S
C756 C762 1.405 . S
C756 N764 1.351 1_556 S
C757 C756 1.333 1_554 S
C757 C763 1.363 . S
C758 C759 1.363 1_554 S
C758 C763 1.379 . S
C758 N765 1.356 . S
C759 C758 1.363 1_556 S
C759 C762 1.363 . S
N760 C762 1.356 . S
N760 H772 0.984 . S
N760 H773 0.985 . S
N761 C763 1.356 . S
N761 H766 0.984 . S
N761 H767 0.985 . S
C762 C756 1.405 . S
C762 C759 1.363 . S
C762 N760 1.356 . S
C763 C757 1.363 . S
C763 C758 1.379 . S
C763 N761 1.356 . S
N764 C756 1.351 1_554 S
N764 H770 0.984 1_554 S
N764 H771 0.984 . S
N765 C758 1.356 . S
N765 H768 0.988 1_554 S
N765 H769 0.982 . S
H766 N761 0.984 . S
H767 N761 0.985 . S
H768 N765 0.988 1_556 S
H769 N765 0.982 . S
H770 N764 0.984 1_556 S
H771 N764 0.984 . S
H772 N760 0.984 . S
H773 N760 0.985 . S
C774 C775 1.363 . S
C774 C780 1.379 . S
C774 N782 1.356 . S
C775 C774 1.363 . S
C775 C781 1.363 . S
C776 C777 1.363 . S
C776 C781 1.379 . S
C776 N783 1.356 . S
C777 C776 1.363 . S
C777 C780 1.363 . S
N778 C780 1.356 . S
N778 H790 0.984 . S
N778 H791 0.985 . S
N779 C781 1.356 . S
N779 H784 0.984 . S
N779 H785 0.985 . S
C780 C774 1.379 . S
C780 C777 1.363 . S
C780 N778 1.356 . S
C781 C775 1.363 . S
C781 C776 1.379 . S
C781 N779 1.356 . S
N782 C774 1.356 . S
N782 H788 0.984 . S
N782 H789 0.984 . S
N783 C776 1.356 . S
N783 H786 0.984 . S
N783 H787 0.985 . S
H784 N779 0.984 . S
H785 N779 0.985 . S
H786 N783 0.984 . S
H787 N783 0.985 . S
H788 N782 0.984 . S
H789 N782 0.984 . S
H790 N778 0.984 . S
H791 N778 0.985 . S
C363 C346 1.634 . S
C361 C15 1.593 . S
C379 C61 1.601 . S
C381 C287 1.647 . S
C397 C114 1.582 . S
C399 C290 1.630 . S
C415 C139 1.608 . S
C417 C304 1.634 . S
C435 C329 1.647 . S
C433 C185 1.618 . S
C451 C245 1.582 . S
C453 C332 1.630 . S
C469 C47 1.586 . S
C471 C301 1.616 . S
C487 C100 1.594 . S
C489 C315 1.618 . S
C505 C153 1.560 . S
C507 C318 1.602 . S
C525 C343 1.615 . S
C523 C199 1.569 . S
C543 C357 1.618 . S
C541 C231 1.594 . S
C561 C276 1.601 . S
C559 C1 1.575 . S
C577 C22 1.480 . S
C579 C299 1.476 . S
C595 C68 1.487 . S
C597 C313 1.483 . S
C615 C323 1.492 . S
C613 C107 1.489 . S
C631 C146 1.485 . S
C633 C341 1.476 . S
C651 C355 1.484 . S
C649 C192 1.488 . S
C669 C281 1.491 . S
C667 C252 1.489 . S
C687 C351 1.510 . S
C685 C54 1.507 . S
C703 C93 1.496 . S
C705 C285 1.491 . S
C723 C295 1.504 . S
C721 C160 1.498 . S
C739 C206 1.507 . S
C741 C309 1.510 . S
C757 C238 1.496 . S
C759 C327 1.491 . S
C775 C8 1.502 . S
C777 C337 1.504 . S
