# Generated by pormake.
# Topology anh, (6,3)-cn, num edge types: 1
# Building blocks:
#     Node 0, Type 0, BuildingBlock: BETFAJ_clean_sbu_0, # of connection points: 6
#     Node 1, Type 0, BuildingBlock: BETFAJ_clean_sbu_0, # of connection points: 6
#     Node 2, Type 0, BuildingBlock: BETFAJ_clean_sbu_0, # of connection points: 6
#     Node 3, Type 1, BuildingBlock: BETDIP_clean_linker_0, # of connection points: 3
#     Node 4, Type 1, BuildingBlock: BETDIP_clean_linker_0, # of connection points: 3
#     Node 5, Type 1, BuildingBlock: BETDIP_clean_linker_0, # of connection points: 3
#     Node 6, Type 1, BuildingBlock: BETDIP_clean_linker_0, # of connection points: 3
#     Node 7, Type 1, BuildingBlock: BETDIP_clean_linker_0, # of connection points: 3
#     Node 8, Type 1, BuildingBlock: BETDIP_clean_linker_0, # of connection points: 3
#     Edge 9, Type (0, 1), BuildingBlock: OJICUG_clean_linker_0, # of connection points: 2
#     Edge 10, Type (0, 1), BuildingBlock: OJICUG_clean_linker_0, # of connection points: 2
#     Edge 11, Type (0, 1), BuildingBlock: OJICUG_clean_linker_0, # of connection points: 2
#     Edge 12, Type (0, 1), BuildingBlock: OJICUG_clean_linker_0, # of connection points: 2
#     Edge 13, Type (0, 1), BuildingBlock: OJICUG_clean_linker_0, # of connection points: 2
#     Edge 14, Type (0, 1), BuildingBlock: OJICUG_clean_linker_0, # of connection points: 2
#     Edge 15, Type (0, 1), BuildingBlock: OJICUG_clean_linker_0, # of connection points: 2
#     Edge 16, Type (0, 1), BuildingBlock: OJICUG_clean_linker_0, # of connection points: 2
#     Edge 17, Type (0, 1), BuildingBlock: OJICUG_clean_linker_0, # of connection points: 2
#     Edge 18, Type (0, 1), BuildingBlock: OJICUG_clean_linker_0, # of connection points: 2
#     Edge 19, Type (0, 1), BuildingBlock: OJICUG_clean_linker_0, # of connection points: 2
#     Edge 20, Type (0, 1), BuildingBlock: OJICUG_clean_linker_0, # of connection points: 2
#     Edge 21, Type (0, 1), BuildingBlock: OJICUG_clean_linker_0, # of connection points: 2
#     Edge 22, Type (0, 1), BuildingBlock: OJICUG_clean_linker_0, # of connection points: 2
#     Edge 23, Type (0, 1), BuildingBlock: OJICUG_clean_linker_0, # of connection points: 2
#     Edge 24, Type (0, 1), BuildingBlock: OJICUG_clean_linker_0, # of connection points: 2
#     Edge 25, Type (0, 1), BuildingBlock: OJICUG_clean_linker_0, # of connection points: 2
#     Edge 26, Type (0, 1), BuildingBlock: OJICUG_clean_linker_0, # of connection points: 2
# Relax obj value: 0.223
# Max RMSD: 0.209
# Mean RMSD: 0.136
data_MOF--net-anh--node1-BETFAJ_clean_sbu_0--node2-BETDIP_clean_linker_0--edge1-OJICUG_clean_linker_0
_symmetry_space_group_name_H-M    P1
_symmetry_Int_Tables_number       1
_symmetry_cell_setting            triclinic
loop_
_symmetry_equiv_pos_as_xyz
'x, y, z'
_cell_length_a     22.248944
_cell_length_b     29.766806
_cell_length_c     36.30589
_cell_angle_alpha  93.979938
_cell_angle_beta   89.196219
_cell_angle_gamma 133.28266
loop_
_atom_site_label
_atom_site_type_symbol
_atom_site_fract_x
_atom_site_fract_y
_atom_site_fract_z
_atom_type_partial_charge
Sm0 Sm 0.259 0.61267 0.14624 0.0
Sm1 Sm 0.1427 0.62778 0.16211 0.0
C2 C 0.3755 0.61559 0.1247 0.0
C3 C 0.39434 0.57814 0.13028 0.0
C4 C 0.46581 0.59557 0.11598 0.0
C5 C 0.48387 0.55973 0.12062 0.0
C6 C 0.43068 0.50586 0.13977 0.0
C7 C 0.35998 0.4895 0.15494 0.0
C8 C 0.342 0.5255 0.15025 0.0
C9 C 0.22635 0.60832 0.21949 0.0
C10 C 0.32846 0.75295 0.15634 0.0
C11 C 1.01924 0.61339 0.18772 0.0
C12 C 0.92929 0.55805 0.1837 0.0
C13 C 0.89247 0.50805 0.20551 0.0
C14 C 0.81394 0.45022 0.19554 0.0
C15 C 0.77116 0.44152 0.16363 0.0
C16 C 0.80418 0.49294 0.14417 0.0
C17 C 0.88237 0.55072 0.15419 0.0
C18 C 0.16737 0.62274 0.0877 0.0
C19 C 1.07023 0.4853 0.15278 0.0
O20 O 0.38337 0.64697 0.15435 0.0
O21 O 0.30886 0.5889 0.10429 0.0
O22 O 0.23988 0.64661 0.19877 0.0
O23 O 0.23222 0.57213 0.20195 0.0
O24 O 0.33464 0.71656 0.1376 0.0
O25 O 0.26131 0.72878 0.17414 0.0
O26 O 1.06265 0.60866 0.20793 0.0
O27 O 1.05553 0.64032 0.15741 0.0
O28 O 0.1577 0.58893 0.11083 0.0
O29 O 0.16116 0.65999 0.10323 0.0
O30 O 1.05915 0.5223 0.16391 0.0
O31 O 0.14247 0.50798 0.14134 0.0
H32 H 0.50689 0.63629 0.10065 0.0
H33 H 0.53779 0.57292 0.10783 0.0
H34 H 0.318 0.4484 0.16985 0.0
H35 H 0.2868 0.51192 0.16177 0.0
H36 H 0.9264 0.51227 0.22879 0.0
H37 H 0.78959 0.41142 0.21116 0.0
H38 H 0.77119 0.48775 0.12003 0.0
H39 H 0.9082 0.58856 0.13729 0.0
Sm40 Sm 0.78631 0.11255 0.47557 0.0
Sm41 Sm 0.65717 0.11638 0.46757 0.0
C42 C 0.86911 0.08285 0.49482 0.0
C43 C 0.84596 0.02508 0.50432 0.0
C44 C 0.83244 1.00943 0.54112 0.0
C45 C 0.80659 0.9536 0.54992 0.0
C46 C 0.79394 0.91209 0.52217 0.0
C47 C 0.80957 0.92845 0.48549 0.0
C48 C 0.83541 0.98435 0.47667 0.0
C49 C 0.75785 0.12153 0.4043 0.0
C50 C 0.58856 0.98168 0.46377 0.0
C51 C 0.57036 0.1446 0.45297 0.0
C52 C 0.58467 0.20013 0.46288 0.0
C53 C 0.6568 0.25112 0.48333 0.0
C54 C 0.67044 0.30364 0.49366 0.0
C55 C 0.61115 0.30555 0.48448 0.0
C56 C 0.53867 0.2543 0.46404 0.0
C57 C 0.52582 0.20208 0.45309 0.0
C58 C 0.68368 0.10479 0.53831 0.0
C59 C 0.85631 0.24866 0.47471 0.0
O60 O 0.85084 0.10692 0.51837 0.0
O61 O 0.85541 0.0854 0.46047 0.0
O62 O 0.70257 0.0863 0.42659 0.0
O63 O 0.8311 0.15211 0.41881 0.0
O64 O 0.66135 1.00999 0.47972 0.0
O65 O 0.57517 1.01401 0.44984 0.0
O66 O 0.62183 0.15175 0.43008 0.0
O67 O 0.55641 0.11307 0.4806 0.0
O68 O 0.73982 0.14158 0.51673 0.0
O69 O 0.61095 0.07392 0.5233 0.0
O70 O 0.77906 0.21854 0.46496 0.0
O71 O 0.87718 0.21874 0.48419 0.0
H72 H 0.841 0.04003 0.5632 0.0
H73 H 0.79669 0.94301 0.57856 0.0
H74 H 0.79999 0.89741 0.46342 0.0
H75 H 0.84592 0.99515 0.44806 0.0
H76 H 0.70189 0.24983 0.49198 0.0
H77 H 0.72601 0.34188 0.51002 0.0
H78 H 0.49188 0.25456 0.45674 0.0
H79 H 0.46953 0.16295 0.4375 0.0
Sm80 Sm 0.7017 0.57645 0.84457 0.0
Sm81 Sm 0.56983 0.43695 0.83281 0.0
C82 C 0.79117 0.69617 0.84026 0.0
C83 C 0.77344 0.73225 0.82782 0.0
C84 C 0.70168 0.70307 0.80604 0.0
C85 C 0.6853 0.73731 0.79371 0.0
C86 C 0.74075 0.80167 0.80262 0.0
C87 C 0.81222 0.83064 0.82488 0.0
C88 C 0.82833 0.79614 0.83739 0.0
C89 C 0.65598 0.51476 0.90718 0.0
C90 C 0.50178 0.50404 0.84167 0.0
C91 C 0.48823 0.31853 0.83453 0.0
C92 C 0.51489 0.28574 0.82464 0.0
C93 C 0.49488 0.24036 0.84651 0.0
C94 C 0.52685 0.21346 0.83909 0.0
C95 C 0.5796 0.23166 0.80967 0.0
C96 C 0.59877 0.2769 0.78773 0.0
C97 C 0.56737 0.30391 0.7953 0.0
C98 C 0.6113 0.49557 0.76945 0.0
C99 C 0.77287 0.51158 0.83886 0.0
O100 O 0.78701 0.66108 0.81443 0.0
O101 O 0.75656 0.66836 0.87049 0.0
O102 O 0.60831 0.50229 0.88143 0.0
O103 O 0.73227 0.56426 0.90175 0.0
O104 O 0.57919 0.55371 0.83473 0.0
O105 O 0.48132 0.45142 0.84715 0.0
O106 O 0.52711 0.35808 0.86362 0.0
O107 O 0.47887 0.34022 0.80732 0.0
O108 O 0.66239 0.51065 0.79455 0.0
O109 O 0.5362 0.44661 0.77657 0.0
O110 O 0.69375 0.45893 0.83867 0.0
O111 O 0.79366 0.56508 0.8382 0.0
H112 H 0.65851 0.65379 0.79829 0.0
H113 H 0.62901 0.71325 0.77718 0.0
H114 H 0.85666 0.88016 0.83195 0.0
H115 H 0.88409 0.81944 0.85417 0.0
H116 H 0.4558 0.2266 0.86974 0.0
H117 H 0.51141 0.17926 0.85679 0.0
H118 H 0.63769 0.29129 0.76439 0.0
H119 H 0.58505 0.33966 0.77838 0.0
H120 H 0.65628 0.0553 0.13841 0.0
H121 H 0.80138 0.17859 0.23483 0.0
H122 H 0.58292 0.98709 0.2462 0.0
H123 H 0.73914 0.21584 0.18478 0.0
C124 C 0.78922 0.22483 0.17028 0.0
C125 C 0.66737 0.06292 0.16813 0.0
C126 C 0.61243 1.0137 0.1906 0.0
C127 C 0.7338 0.12298 0.18448 0.0
C128 C 0.748 0.13262 0.223 0.0
C129 C 0.69511 0.0838 0.24582 0.0
C130 C 0.62651 0.02492 0.22917 0.0
N131 N 0.78435 0.17478 0.16281 0.0
H132 H 0.68824 0.56212 0.51184 0.0
H133 H 0.69585 0.63552 0.62025 0.0
H134 H 0.65062 0.47009 0.60821 0.0
H135 H 0.63179 0.65658 0.58413 0.0
C136 C 0.67683 0.67929 0.56282 0.0
C137 C 0.68511 0.55993 0.54156 0.0
C138 C 0.66819 0.51066 0.5574 0.0
C139 C 0.69316 0.60444 0.56391 0.0
C140 C 0.68826 0.601 0.60249 0.0
C141 C 0.67432 0.55323 0.61844 0.0
C142 C 0.66381 0.50807 0.59585 0.0
N143 N 0.70546 0.65194 0.54725 0.0
H144 H 1.06287 0.488 0.82683 0.0
H145 H 0.21167 0.54663 0.92653 0.0
H146 H 1.02518 0.55358 0.92569 0.0
H147 H 0.31125 0.59016 0.87625 0.0
C148 C 0.27763 0.54364 0.86382 0.0
C149 C 1.07875 0.5057 0.8556 0.0
C150 C 1.03631 0.52034 0.87406 0.0
C151 C 0.14412 0.51642 0.8743 0.0
C152 C 0.16332 0.53936 0.91174 0.0
C153 C 1.12082 0.55275 0.93046 0.0
C154 C 1.05841 0.54361 0.91128 0.0
N155 N 0.19029 0.50412 0.85611 0.0
H156 H 0.30496 0.67655 0.48526 0.0
H157 H 0.16322 0.54675 0.39018 0.0
H158 H 0.35219 0.74168 0.37676 0.0
H159 H 1.06539 0.52919 0.44735 0.0
C160 C 1.09199 0.51328 0.45936 0.0
C161 C 0.29239 0.66716 0.45563 0.0
C162 C 0.33529 0.71655 0.43267 0.0
C163 C 0.22914 0.60571 0.44025 0.0
C164 C 0.2119 0.59406 0.40187 0.0
C165 C 0.25614 0.64273 0.37868 0.0
C166 C 0.31733 0.70365 0.39441 0.0
N167 N 0.17968 0.55548 0.46315 0.0
H168 H 0.67716 0.06432 0.79723 0.0
H169 H 0.71909 0.01951 0.69024 0.0
H170 H 0.70124 0.15407 0.70241 0.0
H171 H 0.6521 0.92879 0.71462 0.0
C172 C 0.67938 0.94321 0.74254 0.0
C173 C 0.68809 0.07156 0.76812 0.0
C174 C 0.68952 0.11425 0.75259 0.0
C175 C 0.69883 0.03704 0.746 0.0
C176 C 0.71078 0.04552 0.70795 0.0
C177 C 0.71228 0.08801 0.69234 0.0
C178 C 0.70314 0.12292 0.71484 0.0
N179 N 0.69743 0.99436 0.76259 0.0
H180 H 0.42764 0.27697 0.11569 0.0
H181 H 0.50769 0.27823 0.00661 0.0
H182 H 0.55841 0.43779 0.0549 0.0
H183 H 0.43641 0.16262 0.10892 0.0
C184 C 0.47382 0.20745 0.09785 0.0
C185 C 0.45926 0.30088 0.09122 0.0
C186 C 0.49303 0.36108 0.08886 0.0
C187 C 0.46672 0.2715 0.06203 0.0
C188 C 0.5038 0.30135 0.02953 0.0
C189 C 0.53882 0.36216 0.0275 0.0
C190 C 0.5345 0.39186 0.05737 0.0
N191 N 0.44305 0.21424 0.06671 0.0
C192 C 0.37842 0.39994 0.12992 0.0
C193 C 0.44443 0.46365 0.13953 0.0
H194 H 0.34298 0.31606 0.10696 0.0
C195 C 0.5252 0.48787 0.14214 0.0
H196 H 0.31547 0.3798 0.12767 0.0
C197 C 0.54078 0.45128 0.13012 0.0
C198 C 0.47568 0.38992 0.11572 0.0
H199 H 0.57705 0.53645 0.15039 0.0
H200 H 0.60425 0.47256 0.12857 0.0
C201 C 0.39403 0.36322 0.11819 0.0
C202 C 0.89312 0.34687 0.46379 0.0
C203 C 0.91917 0.31732 0.47345 0.0
H204 H 0.92712 0.43103 0.45238 0.0
C205 C 1.0044 0.35388 0.48036 0.0
H206 H 0.8285 0.32087 0.45801 0.0
C207 C 1.06189 0.41822 0.47683 0.0
C208 C 1.03483 0.44682 0.46647 0.0
H209 H 1.02673 0.33273 0.48779 0.0
H210 H 1.12717 0.44515 0.4815 0.0
C211 C 0.94991 0.41043 0.46047 0.0
C212 C 0.69268 0.82462 0.75138 0.0
C213 C 0.72493 0.83836 0.78779 0.0
H214 H 0.65319 0.84712 0.70894 0.0
C215 C 0.74211 0.88738 0.80956 0.0
H216 H 0.6801 0.78801 0.73357 0.0
C217 C 0.72721 0.92167 0.79522 0.0
C218 C 0.69481 0.90751 0.75885 0.0
H219 H 0.76621 0.89883 0.83783 0.0
H220 H 0.741 0.95908 0.81262 0.0
C221 C 0.6777 0.8587 0.73715 0.0
C222 C 0.63201 0.33457 0.17046 0.0
C223 C 0.69715 0.3785 0.14819 0.0
H224 H 0.50903 0.24448 0.17163 0.0
C225 C 0.69202 0.36203 0.11039 0.0
H226 H 0.63495 0.34599 0.19976 0.0
C227 C 0.62133 0.30437 0.09467 0.0
C228 C 0.55399 0.26219 0.11632 0.0
H229 H 0.74238 0.39417 0.09279 0.0
H230 H 0.61794 0.29362 0.06521 0.0
C231 C 0.5606 0.27656 0.15454 0.0
C232 C 0.53476 0.87533 0.47044 0.0
C233 C 0.52137 0.91293 0.46048 0.0
H234 H 0.48515 0.78264 0.46996 0.0
C235 C 0.44294 0.88413 0.44578 0.0
H236 H 0.59433 0.89598 0.482 0.0
C237 C 0.38104 0.81988 0.43928 0.0
C238 C 0.39556 0.78249 0.44737 0.0
H239 H 0.42977 0.91128 0.43818 0.0
H240 H 0.32249 0.79936 0.42641 0.0
C241 C 0.47222 0.8105 0.46391 0.0
C242 C 0.56383 0.13906 0.80324 0.0
C243 C 0.61314 0.20289 0.80089 0.0
H244 H 0.55044 0.06104 0.79022 0.0
C245 C 0.69292 0.23833 0.7874 0.0
H246 H 0.50199 0.11021 0.81326 0.0
C247 C 0.71996 0.20995 0.77381 0.0
C248 C 0.66859 0.14572 0.77409 0.0
H249 H 0.73364 0.28787 0.78618 0.0
H250 H 0.77985 0.23784 0.76173 0.0
C251 C 0.59152 0.1108 0.7901 0.0
C252 C 0.79523 0.82785 0.5152 0.0
C253 C 0.76311 0.85158 0.53153 0.0
H254 H 0.79354 0.75473 0.51218 0.0
C255 C 0.7012 0.81711 0.55719 0.0
H256 H 0.84342 0.85347 0.49556 0.0
C257 C 0.67307 0.76093 0.56676 0.0
C258 C 0.70588 0.73772 0.55086 0.0
H259 H 0.67399 0.83338 0.56978 0.0
H260 H 0.62572 0.73568 0.58683 0.0
C261 C 0.76691 0.77143 0.52481 0.0
C262 C 0.82288 0.45652 0.84637 0.0
C263 C 0.84045 0.51133 0.84199 0.0
H264 H 0.87077 0.41588 0.85902 0.0
C265 C 0.92442 0.56724 0.84302 0.0
H266 H 0.75939 0.41245 0.84583 0.0
C267 C 0.98801 0.5689 0.85014 0.0
C268 C 0.97047 0.51473 0.85613 0.0
H269 H 0.94132 0.61056 0.83979 0.0
H270 H 1.05126 0.61337 0.8529 0.0
C271 C 0.88692 0.45827 0.8535 0.0
C272 C 0.39156 0.85919 0.18017 0.0
C273 C 0.39917 0.82155 0.15965 0.0
H274 H 0.45285 0.94949 0.20536 0.0
C275 C 0.4763 0.84992 0.14506 0.0
H276 H 0.33328 0.83941 0.19163 0.0
C277 C 0.54511 0.91374 0.15274 0.0
C278 C 0.538 0.95017 0.17523 0.0
H279 H 0.48443 0.82245 0.12906 0.0
H280 H 0.60474 0.93384 0.14291 0.0
C281 C 0.46003 0.92249 0.18795 0.0
C282 C 0.55984 0.34893 0.51834 0.0
C283 C 0.62262 0.35899 0.49881 0.0
H284 H 0.52583 0.38967 0.55238 0.0
C285 C 0.69847 0.42013 0.49593 0.0
H286 H 0.50117 0.30233 0.52132 0.0
C287 C 0.71211 0.47016 0.5133 0.0
C288 C 0.65063 0.45959 0.53433 0.0
H289 H 0.74777 0.42907 0.48093 0.0
H290 H 0.77178 0.51675 0.51172 0.0
C291 C 0.574 0.39874 0.53619 0.0
C292 C 0.46859 0.57005 0.84608 0.0
C293 C 0.43998 0.51056 0.84474 0.0
H294 H 0.44052 0.62596 0.8529 0.0
C295 C 0.3539 0.45984 0.8473 0.0
H296 H 0.53378 0.61064 0.84436 0.0
C297 C 0.29904 0.46888 0.85161 0.0
C298 C 0.32916 0.52898 0.85402 0.0
H299 H 0.32902 0.41325 0.84639 0.0
H300 H 0.23386 0.42922 0.85439 0.0
C301 C 0.41462 0.57899 0.85093 0.0
C302 C 0.92048 0.39514 0.16195 0.0
C303 C 0.99853 0.41727 0.15388 0.0
H304 H 0.79459 0.31773 0.17313 0.0
C305 C 1.00629 0.3741 0.14843 0.0
H306 H 0.91135 0.42645 0.16577 0.0
C307 C 0.93795 0.31068 0.1523 0.0
C308 C 0.86103 0.28963 0.16177 0.0
H309 H 1.06538 0.38944 0.14209 0.0
H310 H 0.94599 0.27865 0.14903 0.0
C311 C 0.85308 0.33251 0.16599 0.0
C312 C 0.16149 0.56322 0.03343 0.0
C313 C 0.16256 0.60905 0.0473 0.0
H314 H 0.14707 0.50935 0.98586 0.0
C315 C 0.15463 0.63889 0.02237 0.0
H316 H 0.16749 0.5394 0.052 0.0
C317 C 0.14306 0.62172 0.98436 0.0
C318 C 1.13954 0.57453 0.97051 0.0
H319 H 0.15554 0.67453 0.03226 0.0
H320 H 1.13618 0.64505 0.96581 0.0
C321 C 0.15022 0.54621 -0.00451 0.0
C322 C 0.76586 0.16078 0.34433 0.0
C323 C 0.7411 0.11222 0.36425 0.0
H324 H 0.76723 0.18943 0.29176 0.0
C325 C 0.7014 0.05461 0.34562 0.0
H326 H 0.79635 0.20555 0.35846 0.0
C327 C 0.68773 0.04579 0.3073 0.0
C328 C 0.71101 0.0939 0.28685 0.0
H329 H 0.68271 1.01678 0.36063 0.0
H330 H 0.65997 1.00133 0.2938 0.0
C331 C 0.74983 0.1515 0.30606 0.0
C332 C 0.57518 0.51081 0.71025 0.0
C333 C 0.63356 0.51903 0.73258 0.0
H334 H 0.54385 0.51687 0.65639 0.0
C335 C 0.70922 0.54423 0.71808 0.0
H336 H 0.51652 0.4916 0.72094 0.0
C337 C 0.72399 0.55745 0.681 0.0
C338 C 0.66423 0.54719 0.65845 0.0
H339 H 0.75495 0.55067 0.73479 0.0
H340 H 0.78091 0.57406 0.66964 0.0
C341 C 0.59073 0.52533 0.67352 0.0
C342 C 0.63641 0.04343 0.59269 0.0
C343 C 0.69739 0.09933 0.57658 0.0
H344 H 0.59525 0.99585 0.64211 0.0
C345 C 0.76792 0.15017 0.59797 0.0
H346 H 0.58174 1.00351 0.5766 0.0
C347 C 0.77472 0.14613 0.63565 0.0
C348 C 0.7124 0.09061 0.65192 0.0
H349 H 0.8156 0.19374 0.58603 0.0
H350 H 0.82741 0.18664 0.65228 0.0
C351 C 0.64433 0.03888 0.62997 0.0
C352 C 0.54415 0.41924 0.93799 0.0
C353 C 0.62839 0.47324 0.93664 0.0
H354 H 0.45062 0.33977 0.96722 0.0
C355 C 0.68463 0.48647 0.96341 0.0
H356 H 0.49924 0.40817 0.91792 0.0
C357 C 0.65633 0.44741 -0.00812 0.0
C358 C 0.57186 0.39401 -0.00666 0.0
H359 H 0.74985 0.52778 0.96298 0.0
H360 H 0.69968 0.46008 0.01358 0.0
C361 C 0.5163 0.37964 0.96584 0.0
C362 C 0.23352 0.66066 0.2786 0.0
C363 C 0.22567 0.61379 0.2601 0.0
H364 H 0.24771 0.70589 0.3308 0.0
C365 C 0.22161 0.57369 0.28081 0.0
H366 H 0.23609 0.69185 0.26325 0.0
C367 C 0.22891 0.58193 0.31933 0.0
C368 C 0.24019 0.63036 0.33796 0.0
H369 H 0.21518 0.53693 0.26722 0.0
H370 H 0.22888 0.55178 0.33442 0.0
C371 C 0.24067 0.66885 0.31721 0.0
loop_
_geom_bond_atom_site_label_1
_geom_bond_atom_site_label_2
_geom_bond_distance
_geom_bond_site_symmetry_2
_ccdc_geom_bond_type
Sm0 C2 2.846 . S
Sm0 O20 2.543 . S
Sm0 O21 2.450 . S
Sm0 O22 2.681 . S
Sm0 O23 2.464 . S
Sm0 O24 2.396 . S
Sm0 O28 2.386 . S
Sm0 O31 2.408 1_455 S
Sm1 C11 2.846 1_455 S
Sm1 O22 2.386 . S
Sm1 O25 2.408 . S
Sm1 O26 2.543 1_455 S
Sm1 O27 2.450 1_455 S
Sm1 O28 2.681 . S
Sm1 O29 2.464 . S
Sm1 O30 2.396 1_455 S
C2 Sm0 2.846 . S
C2 C3 1.506 . S
C2 O20 1.261 . S
C2 O21 1.242 . S
C3 C2 1.506 . S
C3 C4 1.358 . S
C3 C8 1.382 . S
C4 C3 1.358 . S
C4 C5 1.385 . S
C4 H32 0.930 . S
C5 C4 1.385 . S
C5 C6 1.395 . S
C5 H33 0.929 . S
C6 C5 1.395 . S
C6 C7 1.335 . S
C7 C6 1.335 . S
C7 C8 1.398 . S
C7 H34 0.930 . S
C8 C3 1.382 . S
C8 C7 1.398 . S
C8 H35 0.929 . S
C9 O22 1.271 . S
C9 O23 1.251 . S
C10 O24 1.252 . S
C10 O25 1.272 . S
C11 Sm1 2.846 1_655 S
C11 C12 1.506 . S
C11 O26 1.261 . S
C11 O27 1.242 . S
C12 C11 1.506 . S
C12 C13 1.358 . S
C12 C17 1.382 . S
C13 C12 1.358 . S
C13 C14 1.385 . S
C13 H36 0.930 . S
C14 C13 1.385 . S
C14 C15 1.395 . S
C14 H37 0.929 . S
C15 C14 1.395 . S
C15 C16 1.335 . S
C16 C15 1.335 . S
C16 C17 1.398 . S
C16 H38 0.930 . S
C17 C12 1.382 . S
C17 C16 1.398 . S
C17 H39 0.929 . S
C18 O28 1.271 . S
C18 O29 1.251 . S
C19 O30 1.252 . S
C19 O31 1.272 . S
O20 Sm0 2.543 . S
O20 C2 1.261 . S
O21 Sm0 2.450 . S
O21 C2 1.242 . S
O22 Sm0 2.681 . S
O22 Sm1 2.386 . S
O22 C9 1.271 . S
O23 Sm0 2.464 . S
O23 C9 1.251 . S
O24 Sm0 2.396 . S
O24 C10 1.252 . S
O25 Sm1 2.408 . S
O25 C10 1.272 . S
O26 Sm1 2.543 1_655 S
O26 C11 1.261 . S
O27 Sm1 2.450 1_655 S
O27 C11 1.242 . S
O28 Sm0 2.386 . S
O28 Sm1 2.681 . S
O28 C18 1.271 . S
O29 Sm1 2.464 . S
O29 C18 1.251 . S
O30 Sm1 2.396 1_655 S
O30 C19 1.252 . S
O31 Sm0 2.408 1_655 S
O31 C19 1.272 . S
H32 C4 0.930 . S
H33 C5 0.929 . S
H34 C7 0.930 . S
H35 C8 0.929 . S
H36 C13 0.930 . S
H37 C14 0.929 . S
H38 C16 0.930 . S
H39 C17 0.929 . S
Sm40 C42 2.846 1_545 S
Sm40 O60 2.543 1_545 S
Sm40 O61 2.450 1_545 S
Sm40 O62 2.681 . S
Sm40 O63 2.464 . S
Sm40 O64 2.396 1_545 S
Sm40 O68 2.386 . S
Sm40 O71 2.408 . S
Sm41 C51 2.846 . S
Sm41 O62 2.386 . S
Sm41 O65 2.408 1_545 S
Sm41 O66 2.543 . S
Sm41 O67 2.450 . S
Sm41 O68 2.681 . S
Sm41 O69 2.464 . S
Sm41 O70 2.396 . S
C42 Sm40 2.846 1_565 S
C42 C43 1.506 . S
C42 O60 1.261 . S
C42 O61 1.242 . S
C43 C42 1.506 . S
C43 C44 1.358 . S
C43 C48 1.382 . S
C44 C43 1.358 . S
C44 C45 1.385 . S
C44 H72 0.930 . S
C45 C44 1.385 . S
C45 C46 1.395 . S
C45 H73 0.929 . S
C46 C45 1.395 . S
C46 C47 1.335 . S
C47 C46 1.335 . S
C47 C48 1.398 . S
C47 H74 0.930 . S
C48 C43 1.382 . S
C48 C47 1.398 . S
C48 H75 0.929 . S
C49 O62 1.271 . S
C49 O63 1.251 . S
C50 O64 1.252 . S
C50 O65 1.272 . S
C51 Sm41 2.846 . S
C51 C52 1.506 . S
C51 O66 1.261 . S
C51 O67 1.242 . S
C52 C51 1.506 . S
C52 C53 1.358 . S
C52 C57 1.382 . S
C53 C52 1.358 . S
C53 C54 1.385 . S
C53 H76 0.930 . S
C54 C53 1.385 . S
C54 C55 1.395 . S
C54 H77 0.929 . S
C55 C54 1.395 . S
C55 C56 1.335 . S
C56 C55 1.335 . S
C56 C57 1.398 . S
C56 H78 0.930 . S
C57 C52 1.382 . S
C57 C56 1.398 . S
C57 H79 0.929 . S
C58 O68 1.271 . S
C58 O69 1.251 . S
C59 O70 1.252 . S
C59 O71 1.272 . S
O60 Sm40 2.543 1_565 S
O60 C42 1.261 . S
O61 Sm40 2.450 1_565 S
O61 C42 1.242 . S
O62 Sm40 2.681 . S
O62 Sm41 2.386 . S
O62 C49 1.271 . S
O63 Sm40 2.464 . S
O63 C49 1.251 . S
O64 Sm40 2.396 1_565 S
O64 C50 1.252 . S
O65 Sm41 2.408 1_565 S
O65 C50 1.272 . S
O66 Sm41 2.543 . S
O66 C51 1.261 . S
O67 Sm41 2.450 . S
O67 C51 1.242 . S
O68 Sm40 2.386 . S
O68 Sm41 2.681 . S
O68 C58 1.271 . S
O69 Sm41 2.464 . S
O69 C58 1.251 . S
O70 Sm41 2.396 . S
O70 C59 1.252 . S
O71 Sm40 2.408 . S
O71 C59 1.272 . S
H72 C44 0.930 . S
H73 C45 0.929 . S
H74 C47 0.930 . S
H75 C48 0.929 . S
H76 C53 0.930 . S
H77 C54 0.929 . S
H78 C56 0.930 . S
H79 C57 0.929 . S
Sm80 C82 2.846 . S
Sm80 O100 2.543 . S
Sm80 O101 2.450 . S
Sm80 O102 2.681 . S
Sm80 O103 2.464 . S
Sm80 O104 2.396 . S
Sm80 O108 2.386 . S
Sm80 O111 2.408 . S
Sm81 C91 2.846 . S
Sm81 O102 2.386 . S
Sm81 O105 2.408 . S
Sm81 O106 2.543 . S
Sm81 O107 2.450 . S
Sm81 O108 2.681 . S
Sm81 O109 2.464 . S
Sm81 O110 2.396 . S
C82 Sm80 2.846 . S
C82 C83 1.506 . S
C82 O100 1.261 . S
C82 O101 1.242 . S
C83 C82 1.506 . S
C83 C84 1.358 . S
C83 C88 1.382 . S
C84 C83 1.358 . S
C84 C85 1.385 . S
C84 H112 0.930 . S
C85 C84 1.385 . S
C85 C86 1.395 . S
C85 H113 0.929 . S
C86 C85 1.395 . S
C86 C87 1.335 . S
C87 C86 1.335 . S
C87 C88 1.398 . S
C87 H114 0.930 . S
C88 C83 1.382 . S
C88 C87 1.398 . S
C88 H115 0.929 . S
C89 O102 1.271 . S
C89 O103 1.251 . S
C90 O104 1.252 . S
C90 O105 1.272 . S
C91 Sm81 2.846 . S
C91 C92 1.506 . S
C91 O106 1.261 . S
C91 O107 1.242 . S
C92 C91 1.506 . S
C92 C93 1.358 . S
C92 C97 1.382 . S
C93 C92 1.358 . S
C93 C94 1.385 . S
C93 H116 0.930 . S
C94 C93 1.385 . S
C94 C95 1.395 . S
C94 H117 0.929 . S
C95 C94 1.395 . S
C95 C96 1.335 . S
C96 C95 1.335 . S
C96 C97 1.398 . S
C96 H118 0.930 . S
C97 C92 1.382 . S
C97 C96 1.398 . S
C97 H119 0.929 . S
C98 O108 1.271 . S
C98 O109 1.251 . S
C99 O110 1.252 . S
C99 O111 1.272 . S
O100 Sm80 2.543 . S
O100 C82 1.261 . S
O101 Sm80 2.450 . S
O101 C82 1.242 . S
O102 Sm80 2.681 . S
O102 Sm81 2.386 . S
O102 C89 1.271 . S
O103 Sm80 2.464 . S
O103 C89 1.251 . S
O104 Sm80 2.396 . S
O104 C90 1.252 . S
O105 Sm81 2.408 . S
O105 C90 1.272 . S
O106 Sm81 2.543 . S
O106 C91 1.261 . S
O107 Sm81 2.450 . S
O107 C91 1.242 . S
O108 Sm80 2.386 . S
O108 Sm81 2.681 . S
O108 C98 1.271 . S
O109 Sm81 2.464 . S
O109 C98 1.251 . S
O110 Sm81 2.396 . S
O110 C99 1.252 . S
O111 Sm80 2.408 . S
O111 C99 1.272 . S
H112 C84 0.930 . S
H113 C85 0.929 . S
H114 C87 0.930 . S
H115 C88 0.929 . S
H116 C93 0.930 . S
H117 C94 0.929 . S
H118 C96 0.930 . S
H119 C97 0.929 . S
H120 C125 0.930 . S
H121 C128 0.930 . S
H122 C130 0.930 . S
H123 C124 1.016 . S
C124 H123 1.016 . S
C124 N131 1.286 . S
C125 H120 0.930 . S
C125 C126 1.397 1_545 S
C125 C127 1.361 . S
C126 C125 1.397 1_565 S
C126 C130 1.390 . S
C127 C125 1.361 . S
C127 C128 1.393 . S
C127 N131 1.413 . S
C128 H121 0.930 . S
C128 C127 1.393 . S
C128 C129 1.399 . S
C129 C128 1.399 . S
C129 C130 1.381 1_545 S
C130 H122 0.930 . S
C130 C126 1.390 . S
C130 C129 1.381 1_565 S
N131 C124 1.286 . S
N131 C127 1.413 . S
H132 C137 0.930 . S
H133 C140 0.930 . S
H134 C142 0.930 . S
H135 C136 1.016 . S
C136 H135 1.016 . S
C136 N143 1.286 . S
C137 H132 0.930 . S
C137 C138 1.397 . S
C137 C139 1.361 . S
C138 C137 1.397 . S
C138 C142 1.390 . S
C139 C137 1.361 . S
C139 C140 1.393 . S
C139 N143 1.413 . S
C140 H133 0.930 . S
C140 C139 1.393 . S
C140 C141 1.399 . S
C141 C140 1.399 . S
C141 C142 1.381 . S
C142 H134 0.930 . S
C142 C138 1.390 . S
C142 C141 1.381 . S
N143 C136 1.286 . S
N143 C139 1.413 . S
H144 C149 0.928 1_655 S
H145 C152 0.930 . S
H146 C154 0.930 . S
H147 C148 1.016 . S
C148 H147 1.016 . S
C148 N155 1.286 . S
C149 H144 0.928 1_455 S
C149 C150 1.385 1_455 S
C149 C151 1.375 . S
C150 C149 1.385 1_655 S
C150 C154 1.390 . S
C151 C149 1.375 . S
C151 C152 1.393 . S
C151 N155 1.413 . S
C152 H145 0.930 . S
C152 C151 1.393 . S
C152 C153 1.399 . S
C153 C152 1.399 . S
C153 C154 1.381 1_455 S
C154 H146 0.930 . S
C154 C150 1.390 . S
C154 C153 1.381 1_655 S
N155 C148 1.286 . S
N155 C151 1.413 . S
H156 C161 0.930 . S
H157 C164 0.930 . S
H158 C166 0.930 . S
H159 C160 1.016 . S
C160 H159 1.016 . S
C160 N167 1.286 . S
C161 H156 0.930 . S
C161 C162 1.397 . S
C161 C163 1.361 1_455 S
C162 C161 1.397 . S
C162 C166 1.390 . S
C163 C161 1.361 1_655 S
C163 C164 1.393 . S
C163 N167 1.413 . S
C164 H157 0.930 . S
C164 C163 1.393 . S
C164 C165 1.399 1_655 S
C165 C164 1.399 1_455 S
C165 C166 1.381 . S
C166 H158 0.930 . S
C166 C162 1.390 . S
C166 C165 1.381 . S
N167 C160 1.286 . S
N167 C163 1.413 . S
H168 C173 0.930 . S
H169 C176 0.930 1_565 S
H170 C178 0.930 . S
H171 C172 1.016 . S
C172 H171 1.016 . S
C172 N179 1.286 . S
C173 H168 0.930 . S
C173 C174 1.397 . S
C173 C175 1.361 . S
C174 C173 1.397 . S
C174 C178 1.390 . S
C175 C173 1.361 . S
C175 C176 1.393 . S
C175 N179 1.413 1_545 S
C176 H169 0.930 1_545 S
C176 C175 1.393 . S
C176 C177 1.399 . S
C177 C176 1.399 . S
C177 C178 1.381 . S
C178 H170 0.930 . S
C178 C174 1.390 . S
C178 C177 1.381 . S
N179 C172 1.286 . S
N179 C175 1.413 1_565 S
H180 C185 0.930 . S
H181 C188 0.930 . S
H182 C190 0.930 . S
H183 C184 1.016 . S
C184 H183 1.016 . S
C184 N191 1.286 . S
C185 H180 0.930 . S
C185 C186 1.397 . S
C185 C187 1.361 . S
C186 C185 1.397 . S
C186 C190 1.390 . S
C187 C185 1.361 . S
C187 C188 1.393 . S
C187 N191 1.413 . S
C188 H181 0.930 . S
C188 C187 1.393 . S
C188 C189 1.399 . S
C189 C188 1.399 . S
C189 C190 1.381 . S
C190 H182 0.930 . S
C190 C186 1.390 . S
C190 C189 1.381 . S
N191 C184 1.286 . S
N191 C187 1.413 . S
C192 C193 1.387 . S
C192 H196 0.950 . S
C192 C201 1.390 . S
C193 C192 1.387 . S
C193 C195 1.387 . S
H194 C201 0.950 . S
C195 C193 1.387 . S
C195 C197 1.390 . S
C195 H199 0.950 . S
H196 C192 0.950 . S
C197 C195 1.390 . S
C197 C198 1.387 . S
C197 H200 0.950 . S
C198 C197 1.387 . S
C198 C201 1.387 . S
H199 C195 0.950 . S
H200 C197 0.950 . S
C201 C192 1.390 . S
C201 H194 0.950 . S
C201 C198 1.387 . S
C202 C203 1.387 . S
C202 H206 0.950 . S
C202 C211 1.390 . S
C203 C202 1.387 . S
C203 C205 1.387 . S
H204 C211 0.950 . S
C205 C203 1.387 . S
C205 C207 1.390 . S
C205 H209 0.950 . S
H206 C202 0.950 . S
C207 C205 1.390 . S
C207 C208 1.387 . S
C207 H210 0.950 . S
C208 C207 1.387 . S
C208 C211 1.387 . S
H209 C205 0.950 . S
H210 C207 0.950 . S
C211 C202 1.390 . S
C211 H204 0.950 . S
C211 C208 1.387 . S
C212 C213 1.387 . S
C212 H216 0.950 . S
C212 C221 1.390 . S
C213 C212 1.387 . S
C213 C215 1.387 . S
H214 C221 0.950 . S
C215 C213 1.387 . S
C215 C217 1.390 . S
C215 H219 0.950 . S
H216 C212 0.950 . S
C217 C215 1.390 . S
C217 C218 1.387 . S
C217 H220 0.950 . S
C218 C217 1.387 . S
C218 C221 1.387 . S
H219 C215 0.950 . S
H220 C217 0.950 . S
C221 C212 1.390 . S
C221 H214 0.950 . S
C221 C218 1.387 . S
C222 C223 1.387 . S
C222 H226 0.950 . S
C222 C231 1.390 . S
C223 C222 1.387 . S
C223 C225 1.387 . S
H224 C231 0.950 . S
C225 C223 1.387 . S
C225 C227 1.390 . S
C225 H229 0.950 . S
H226 C222 0.950 . S
C227 C225 1.390 . S
C227 C228 1.387 . S
C227 H230 0.950 . S
C228 C227 1.387 . S
C228 C231 1.387 . S
H229 C225 0.950 . S
H230 C227 0.950 . S
C231 C222 1.390 . S
C231 H224 0.950 . S
C231 C228 1.387 . S
C232 C233 1.387 . S
C232 H236 0.950 . S
C232 C241 1.390 . S
C233 C232 1.387 . S
C233 C235 1.387 . S
H234 C241 0.950 . S
C235 C233 1.387 . S
C235 C237 1.390 . S
C235 H239 0.950 . S
H236 C232 0.950 . S
C237 C235 1.390 . S
C237 C238 1.387 . S
C237 H240 0.950 . S
C238 C237 1.387 . S
C238 C241 1.387 . S
H239 C235 0.950 . S
H240 C237 0.950 . S
C241 C232 1.390 . S
C241 H234 0.950 . S
C241 C238 1.387 . S
C242 C243 1.387 . S
C242 H246 0.950 . S
C242 C251 1.390 . S
C243 C242 1.387 . S
C243 C245 1.387 . S
H244 C251 0.950 . S
C245 C243 1.387 . S
C245 C247 1.390 . S
C245 H249 0.950 . S
H246 C242 0.950 . S
C247 C245 1.390 . S
C247 C248 1.387 . S
C247 H250 0.950 . S
C248 C247 1.387 . S
C248 C251 1.387 . S
H249 C245 0.950 . S
H250 C247 0.950 . S
C251 C242 1.390 . S
C251 H244 0.950 . S
C251 C248 1.387 . S
C252 C253 1.387 . S
C252 H256 0.950 . S
C252 C261 1.390 . S
C253 C252 1.387 . S
C253 C255 1.387 . S
H254 C261 0.950 . S
C255 C253 1.387 . S
C255 C257 1.390 . S
C255 H259 0.950 . S
H256 C252 0.950 . S
C257 C255 1.390 . S
C257 C258 1.387 . S
C257 H260 0.950 . S
C258 C257 1.387 . S
C258 C261 1.387 . S
H259 C255 0.950 . S
H260 C257 0.950 . S
C261 C252 1.390 . S
C261 H254 0.950 . S
C261 C258 1.387 . S
C262 C263 1.387 . S
C262 H266 0.950 . S
C262 C271 1.390 . S
C263 C262 1.387 . S
C263 C265 1.387 . S
H264 C271 0.950 . S
C265 C263 1.387 . S
C265 C267 1.390 . S
C265 H269 0.950 . S
H266 C262 0.950 . S
C267 C265 1.390 . S
C267 C268 1.387 . S
C267 H270 0.950 . S
C268 C267 1.387 . S
C268 C271 1.387 . S
H269 C265 0.950 . S
H270 C267 0.950 . S
C271 C262 1.390 . S
C271 H264 0.950 . S
C271 C268 1.387 . S
C272 C273 1.387 . S
C272 H276 0.950 . S
C272 C281 1.390 . S
C273 C272 1.387 . S
C273 C275 1.387 . S
H274 C281 0.950 . S
C275 C273 1.387 . S
C275 C277 1.390 . S
C275 H279 0.950 . S
H276 C272 0.950 . S
C277 C275 1.390 . S
C277 C278 1.387 . S
C277 H280 0.950 . S
C278 C277 1.387 . S
C278 C281 1.387 . S
H279 C275 0.950 . S
H280 C277 0.950 . S
C281 C272 1.390 . S
C281 H274 0.950 . S
C281 C278 1.387 . S
C282 C283 1.387 . S
C282 H286 0.950 . S
C282 C291 1.390 . S
C283 C282 1.387 . S
C283 C285 1.387 . S
H284 C291 0.950 . S
C285 C283 1.387 . S
C285 C287 1.390 . S
C285 H289 0.950 . S
H286 C282 0.950 . S
C287 C285 1.390 . S
C287 C288 1.387 . S
C287 H290 0.950 . S
C288 C287 1.387 . S
C288 C291 1.387 . S
H289 C285 0.950 . S
H290 C287 0.950 . S
C291 C282 1.390 . S
C291 H284 0.950 . S
C291 C288 1.387 . S
C292 C293 1.387 . S
C292 H296 0.950 . S
C292 C301 1.390 . S
C293 C292 1.387 . S
C293 C295 1.387 . S
H294 C301 0.950 . S
C295 C293 1.387 . S
C295 C297 1.390 . S
C295 H299 0.950 . S
H296 C292 0.950 . S
C297 C295 1.390 . S
C297 C298 1.387 . S
C297 H300 0.950 . S
C298 C297 1.387 . S
C298 C301 1.387 . S
H299 C295 0.950 . S
H300 C297 0.950 . S
C301 C292 1.390 . S
C301 H294 0.950 . S
C301 C298 1.387 . S
C302 C303 1.387 . S
C302 H306 0.950 . S
C302 C311 1.390 . S
C303 C302 1.387 . S
C303 C305 1.387 . S
H304 C311 0.950 . S
C305 C303 1.387 . S
C305 C307 1.390 . S
C305 H309 0.950 . S
H306 C302 0.950 . S
C307 C305 1.390 . S
C307 C308 1.387 . S
C307 H310 0.950 . S
C308 C307 1.387 . S
C308 C311 1.387 . S
H309 C305 0.950 . S
H310 C307 0.950 . S
C311 C302 1.390 . S
C311 H304 0.950 . S
C311 C308 1.387 . S
C312 C313 1.387 . S
C312 H316 0.950 1_455 S
C312 C321 1.390 1_554 S
C313 C312 1.387 . S
C313 C315 1.387 . S
H314 C321 0.950 1_655 S
C315 C313 1.387 . S
C315 C317 1.390 . S
C315 H319 0.950 . S
H316 C312 0.950 1_655 S
C317 C315 1.390 . S
C317 C318 1.387 1_554 S
C317 H320 0.950 1_554 S
C318 C317 1.387 1_556 S
C318 C321 1.387 . S
H319 C315 0.950 . S
H320 C317 0.950 1_556 S
C321 C312 1.390 1_556 S
C321 H314 0.950 1_455 S
C321 C318 1.387 . S
C322 C323 1.387 . S
C322 H326 0.950 . S
C322 C331 1.390 . S
C323 C322 1.387 . S
C323 C325 1.387 1_545 S
H324 C331 0.950 . S
C325 C323 1.387 1_565 S
C325 C327 1.390 . S
C325 H329 0.950 . S
H326 C322 0.950 . S
C327 C325 1.390 . S
C327 C328 1.387 1_565 S
C327 H330 0.950 . S
C328 C327 1.387 1_545 S
C328 C331 1.387 . S
H329 C325 0.950 . S
H330 C327 0.950 . S
C331 C322 1.390 . S
C331 H324 0.950 . S
C331 C328 1.387 . S
C332 C333 1.387 . S
C332 H336 0.950 . S
C332 C341 1.390 . S
C333 C332 1.387 . S
C333 C335 1.387 . S
H334 C341 0.950 . S
C335 C333 1.387 . S
C335 C337 1.390 . S
C335 H339 0.950 . S
H336 C332 0.950 . S
C337 C335 1.390 . S
C337 C338 1.387 . S
C337 H340 0.950 . S
C338 C337 1.387 . S
C338 C341 1.387 . S
H339 C335 0.950 . S
H340 C337 0.950 . S
C341 C332 1.390 . S
C341 H334 0.950 . S
C341 C338 1.387 . S
C342 C343 1.387 1_565 S
C342 H346 0.950 . S
C342 C351 1.390 . S
C343 C342 1.387 1_545 S
C343 C345 1.387 . S
H344 C351 0.950 . S
C345 C343 1.387 . S
C345 C347 1.390 . S
C345 H349 0.950 . S
H346 C342 0.950 . S
C347 C345 1.390 . S
C347 C348 1.387 . S
C347 H350 0.950 . S
C348 C347 1.387 . S
C348 C351 1.387 1_545 S
H349 C345 0.950 . S
H350 C347 0.950 . S
C351 C342 1.390 . S
C351 H344 0.950 . S
C351 C348 1.387 1_565 S
C352 C353 1.387 . S
C352 H356 0.950 . S
C352 C361 1.390 . S
C353 C352 1.387 . S
C353 C355 1.387 . S
H354 C361 0.950 . S
C355 C353 1.387 . S
C355 C357 1.390 1_556 S
C355 H359 0.950 . S
H356 C352 0.950 . S
C357 C355 1.390 1_554 S
C357 C358 1.387 . S
C357 H360 0.950 . S
C358 C357 1.387 . S
C358 C361 1.387 1_554 S
H359 C355 0.950 . S
H360 C357 0.950 . S
C361 C352 1.390 . S
C361 H354 0.950 . S
C361 C358 1.387 1_556 S
C362 C363 1.387 . S
C362 H366 0.950 . S
C362 C371 1.390 . S
C363 C362 1.387 . S
C363 C365 1.387 . S
H364 C371 0.950 . S
C365 C363 1.387 . S
C365 C367 1.390 . S
C365 H369 0.950 1_455 S
H366 C362 0.950 . S
C367 C365 1.390 . S
C367 C368 1.387 . S
C367 H370 0.950 1_455 S
C368 C367 1.387 . S
C368 C371 1.387 . S
H369 C365 0.950 1_655 S
H370 C367 0.950 1_655 S
C371 C362 1.390 . S
C371 H364 0.950 . S
C371 C368 1.387 . S
C193 C6 1.175 . S
C198 C186 1.293 . S
C203 C59 1.970 . S
C208 C160 1.896 . S
C213 C86 1.388 . S
C218 C172 1.429 . S
C223 C15 0.652 . S
C228 C184 0.506 . S
C238 C162 1.871 . S
C233 C50 1.916 . S
C248 C174 1.288 . S
C243 C95 1.256 . S
C253 C46 1.374 . S
C258 C136 1.398 . S
C263 C99 3.325 . S
C268 C150 3.299 . S
C273 C10 1.942 . S
C278 C126 1.925 . S
C288 C138 1.274 . S
C283 C55 1.236 . S
C298 C148 2.808 . S
C293 C90 2.925 . S
C303 C19 1.984 . S
C308 C124 1.928 . S
C318 C153 1.820 . S
C313 C18 1.717 . S
C323 C49 1.388 . S
C328 C129 1.458 . S
C333 C98 1.504 . S
C338 C141 1.525 . S
C348 C177 1.513 . S
C343 C58 1.503 . S
C358 C189 1.182 . S
C353 C89 1.160 . S
C363 C9 1.386 . S
C368 C165 1.422 . S
