# Generated by pormake.
# Topology rtl, (3,6)-cn, num edge types: 1
# Building blocks:
#     Node 0, Type 0, BuildingBlock: CUQRIR_clean_linker_1, # of connection points: 3
#     Node 1, Type 0, BuildingBlock: CUQRIR_clean_linker_1, # of connection points: 3
#     Node 2, Type 0, BuildingBlock: CUQRIR_clean_linker_1, # of connection points: 3
#     Node 3, Type 0, BuildingBlock: CUQRIR_clean_linker_1, # of connection points: 3
#     Node 4, Type 1, BuildingBlock: LEVNOQ01_clean_sbu_1, # of connection points: 6
#     Node 5, Type 1, BuildingBlock: LEVNOQ01_clean_sbu_1, # of connection points: 6
#     Edge 6, Type (0, 1), BuildingBlock: FUNLAD_clean_linker_1, # of connection points: 2
#     Edge 7, Type (0, 1), BuildingBlock: FUNLAD_clean_linker_1, # of connection points: 2
#     Edge 8, Type (0, 1), BuildingBlock: FUNLAD_clean_linker_1, # of connection points: 2
#     Edge 9, Type (0, 1), BuildingBlock: FUNLAD_clean_linker_1, # of connection points: 2
#     Edge 10, Type (0, 1), BuildingBlock: FUNLAD_clean_linker_1, # of connection points: 2
#     Edge 11, Type (0, 1), BuildingBlock: FUNLAD_clean_linker_1, # of connection points: 2
#     Edge 12, Type (0, 1), BuildingBlock: FUNLAD_clean_linker_1, # of connection points: 2
#     Edge 13, Type (0, 1), BuildingBlock: FUNLAD_clean_linker_1, # of connection points: 2
#     Edge 14, Type (0, 1), BuildingBlock: FUNLAD_clean_linker_1, # of connection points: 2
#     Edge 15, Type (0, 1), BuildingBlock: FUNLAD_clean_linker_1, # of connection points: 2
#     Edge 16, Type (0, 1), BuildingBlock: FUNLAD_clean_linker_1, # of connection points: 2
#     Edge 17, Type (0, 1), BuildingBlock: FUNLAD_clean_linker_1, # of connection points: 2
# Relax obj value: 0.023
# Max RMSD: 0.124
# Mean RMSD: 0.103
data_MOF--net-rtl--node1-LEVNOQ01_clean_sbu_1--node2-CUQRIR_clean_linker_1--edge1-FUNLAD_clean_linker_1
_symmetry_space_group_name_H-M    P1
_symmetry_Int_Tables_number       1
_symmetry_cell_setting            triclinic
loop_
_symmetry_equiv_pos_as_xyz
'x, y, z'
_cell_length_a     34.688876
_cell_length_b     34.67687
_cell_length_c     21.415261
_cell_angle_alpha  90.1278
_cell_angle_beta   97.390682
_cell_angle_gamma 90.01614
loop_
_atom_site_label
_atom_site_type_symbol
_atom_site_fract_x
_atom_site_fract_y
_atom_site_fract_z
_atom_type_partial_charge
C0 C 0.22655 0.81284 0.04776 0.0
N1 N 0.20275 0.84213 0.06042 0.0
N2 N 0.25065 0.80295 0.10009 0.0
C3 C 0.23097 0.79828 0.98287 0.0
C4 C 0.24203 0.82812 0.14432 0.0
N5 N 0.213 0.85189 0.12036 0.0
C6 C 0.26108 0.82887 0.21143 0.0
H7 H 0.20909 0.77538 0.96977 0.0
H8 H 0.26032 0.78601 0.98098 0.0
H9 H 0.22642 0.82196 0.948 0.0
H10 H 0.27949 0.85505 0.21894 0.0
H11 H 0.27937 0.80298 0.22301 0.0
H12 H 0.23859 0.83068 0.24381 0.0
C13 C 0.71976 0.71262 0.63967 0.0
N14 N 0.6894 0.69102 0.61244 0.0
N15 N 0.73388 0.73508 0.59633 0.0
C16 C 0.73911 0.70841 0.70648 0.0
C17 C 0.71226 0.72533 0.54149 0.0
N18 N 0.68548 0.69837 0.551 0.0
C19 C 0.71956 0.73951 0.47775 0.0
H20 H 0.72607 0.72937 0.73688 0.0
H21 H 0.77064 0.71476 0.71027 0.0
H22 H 0.73532 0.67883 0.72434 0.0
H23 H 0.74513 0.72421 0.4635 0.0
H24 H 0.72583 0.77087 0.47953 0.0
H25 H 0.69412 0.73413 0.44176 0.0
C26 C 0.81686 0.23546 0.05733 0.0
N27 N 0.84196 0.20813 0.04274 0.0
N28 N 0.79322 0.24658 0.00544 0.0
C29 C 0.81471 0.25101 0.12244 0.0
C30 C 0.80539 0.22559 0.95822 0.0
N31 N 0.83447 0.20126 0.9813 0.0
C32 C 0.7946 0.23461 0.88954 0.0
H33 H 0.78392 0.25242 0.13139 0.0
H34 H 0.82645 0.28082 0.12549 0.0
H35 H 0.83149 0.23317 0.15933 0.0
H36 H 0.82033 0.23173 0.86411 0.0
H37 H 0.78349 0.26446 0.88268 0.0
H38 H 0.77163 0.21435 0.86897 0.0
C39 C 0.27268 0.31417 0.44144 0.0
N40 N 0.30048 0.34065 0.46052 0.0
N41 N 0.2632 0.29393 0.49133 0.0
C42 C 0.25381 0.30901 0.37462 0.0
C43 C 0.28562 0.3096 0.54132 0.0
N44 N 0.3089 0.33745 0.52261 0.0
C45 C 0.28281 0.29899 0.60869 0.0
H46 H 0.22304 0.30004 0.37347 0.0
H47 H 0.26956 0.28617 0.35183 0.0
H48 H 0.25487 0.3358 0.34682 0.0
H49 H 0.28349 0.26715 0.61385 0.0
H50 H 0.25451 0.30919 0.62139 0.0
H51 H 0.30649 0.31191 0.6418 0.0
O52 O 0.00279 0.06699 0.66575 0.0
Mg53 Mg 0.0466 0.04377 0.61994 0.0
O54 O 0.96207 0.03485 0.59784 0.0
Mg55 Mg -0.00016 0.0015 0.53031 0.0
O56 O 0.04801 0.05079 0.52446 0.0
O57 O 0.0816 0.08626 0.60155 0.0
O58 O 0.03521 0.96652 0.46043 0.0
O59 O 0.96509 0.03581 0.44456 0.0
Mg60 Mg 0.94589 0.94672 0.44025 0.0
O61 O 0.95239 0.955 0.5346 0.0
O62 O 0.99561 0.92279 0.41065 0.0
O63 O 0.92271 0.99546 0.39238 0.0
O64 O 0.91025 0.91287 0.48479 0.0
C65 C 0.06143 0.96784 0.65874 0.0
C66 C 0.96851 0.05704 0.64566 0.0
C67 C 0.07297 0.07814 0.54263 0.0
C68 C 0.02887 0.93808 0.42206 0.0
C69 C 0.93735 0.02878 0.40038 0.0
C70 C 0.92574 0.92887 0.53645 0.0
O71 O 0.07823 -5e-05 0.66767 0.0
O72 O 0.03301 0.96424 0.61474 0.0
O73 O 0.58693 0.53403 0.16113 0.0
Mg74 Mg 0.56072 0.48075 0.13662 0.0
O75 O 0.52547 0.54627 0.13422 0.0
Mg76 Mg 0.50328 0.50471 0.04871 0.0
O77 O 0.55524 0.45996 0.04672 0.0
O78 O 0.60155 0.44171 0.1243 0.0
O79 O 0.47789 0.46333 0.96166 0.0
O80 O 0.53978 0.5418 0.98637 0.0
Mg81 Mg 0.45438 0.53313 0.95916 0.0
O82 O 0.45215 0.55059 0.05057 0.0
O83 O 0.42034 0.48638 0.92754 0.0
O84 O 0.4972 0.54903 0.90265 0.0
O85 O 0.42168 0.58014 0.96442 0.0
C86 C 0.48407 0.4547 0.17134 0.0
C87 C 0.55805 0.55544 0.16502 0.0
C88 C 0.58573 0.43928 0.06652 0.0
C89 C 0.44526 0.46008 0.92646 0.0
C90 C 0.53155 0.55253 0.92951 0.0
C91 C 0.42881 0.57716 0.02474 0.0
O92 O 0.51976 0.4584 0.19185 0.0
O93 O 0.47052 0.46727 0.11675 0.0
H94 H 0.21662 0.26605 0.53345 0.0
C95 C 0.23343 0.26524 0.49396 0.0
H96 H 0.2462 0.2328 0.41544 0.0
H97 H 0.15667 0.11878 0.60536 0.0
H98 H 0.21558 0.12594 0.67863 0.0
H99 H 0.26935 0.16702 0.65262 0.0
H100 H 0.26418 0.2015 0.55348 0.0
C101 C 0.22888 0.23512 0.454 0.0
C102 C 0.2006 0.20389 0.46318 0.0
C103 C 0.20496 0.18231 0.51981 0.0
C104 C 0.17438 0.15796 0.53405 0.0
C105 C 0.17889 0.13788 0.59215 0.0
C106 C 0.21268 0.14152 0.63453 0.0
C107 C 0.24292 0.16467 0.61993 0.0
C108 C 0.23939 0.18465 0.56314 0.0
H109 H 0.10282 0.08518 0.45745 0.0
C110 C 0.09338 0.09995 0.49759 0.0
H111 H 0.09549 0.14988 0.55378 0.0
H112 H 0.18638 0.23537 0.34552 0.0
H113 H 0.12901 0.22514 0.26942 0.0
H114 H 0.07606 0.18242 0.29393 0.0
H115 H 0.08017 0.14961 0.3948 0.0
C116 C 0.10551 0.13602 0.51316 0.0
C117 C 0.13996 0.15427 0.4908 0.0
C118 C 0.13732 0.17264 0.43146 0.0
C119 C 0.16783 0.19743 0.41749 0.0
C120 C 0.16408 0.21629 0.35851 0.0
C121 C 0.13132 0.21064 0.31446 0.0
C122 C 0.10149 0.18657 0.32826 0.0
C123 C 0.10419 0.16789 0.38621 0.0
H124 H 0.31096 0.78386 0.11722 0.0
C125 C 0.28099 0.77455 0.10548 0.0
H126 H 0.24228 0.72894 0.08163 0.0
H127 H 0.35745 0.63273 0.93868 0.0
H128 H 0.30415 0.64546 0.85713 0.0
H129 H 0.2493 0.68663 0.87811 0.0
H130 H 0.24753 0.71505 0.98065 0.0
C131 C 0.27255 0.73736 0.09294 0.0
C132 C 0.30343 0.70888 0.08365 0.0
C133 C 0.30343 0.69157 0.02356 0.0
C134 C 0.33513 0.66806 0.01136 0.0
C135 C 0.33454 0.65142 0.9506 0.0
C136 C 0.30396 0.6583 0.90321 0.0
C137 C 0.27311 0.68144 0.91502 0.0
C138 C 0.27261 0.6978 0.97433 0.0
H139 H 0.39513 0.59167 0.10264 0.0
C140 C 0.40822 0.60332 0.06328 0.0
H141 H 0.41434 0.65026 1.0036 0.0
H142 H 0.30842 0.73081 0.20731 0.0
H143 H 0.36216 0.7183 0.28917 0.0
H144 H 0.41912 0.68071 0.26622 0.0
H145 H 0.42232 0.65477 0.16159 0.0
C146 C 0.40066 0.63953 0.04312 0.0
C147 C 0.36664 0.66157 0.05937 0.0
C148 C 0.36585 0.67733 0.12026 0.0
C149 C 0.3338 0.70046 0.13275 0.0
C150 C 0.33284 0.71449 0.19464 0.0
C151 C 0.36334 0.70724 0.24214 0.0
C152 C 0.39534 0.68596 0.22927 0.0
C153 C 0.39676 0.67111 0.16909 0.0
H154 H 0.79675 0.74057 0.61904 0.0
C155 C 0.76991 0.75603 0.60401 0.0
H156 H 0.74396 0.81002 0.58208 0.0
H157 H 0.89271 0.89904 0.71937 0.0
H158 H 0.84889 0.90575 0.7987 0.0
H159 H 0.78623 0.8711 0.78793 0.0
H160 H 0.76693 0.82951 0.69787 0.0
C161 C 0.77085 0.7941 0.59392 0.0
C162 C 0.80847 0.81527 0.60016 0.0
C163 C 0.81914 0.83968 0.65271 0.0
C164 C 0.85514 0.85992 0.6587 0.0
C165 C 0.86537 0.88361 0.71213 0.0
C166 C 0.8406 0.88753 0.75807 0.0
C167 C 0.80532 0.86798 0.75204 0.0
C168 C 0.79458 0.84425 0.70012 0.0
H169 H 0.88388 0.93206 0.60185 0.0
C170 C 0.91081 0.91767 0.59477 0.0
H171 H 0.94238 0.86649 0.60496 0.0
H172 H 0.79576 0.77283 0.49154 0.0
H173 H 0.83919 0.76558 0.41271 0.0
H174 H 0.9028 0.79837 0.42478 0.0
H175 H 0.92285 0.83866 0.51487 0.0
C176 C 0.91547 0.88071 0.61265 0.0
C177 C 0.8803 0.85586 0.61194 0.0
C178 C 0.87003 0.83051 0.56008 0.0
C179 C 0.83378 0.81083 0.55369 0.0
C180 C 0.82323 0.78767 0.4996 0.0
C181 C 0.84788 0.78337 0.45372 0.0
C182 C 0.88361 0.80187 0.46047 0.0
C183 C 0.89471 0.82511 0.51278 0.0
H184 H 0.7676 0.29954 0.0364 0.0
C185 C 0.76362 0.27584 1.00283 0.0
H186 H 0.72319 0.24742 0.93563 0.0
H187 H 0.60438 0.33629 0.09816 0.0
H188 H 0.60363 0.27253 0.14505 0.0
H189 H 0.64554 0.22055 0.11282 0.0
H190 H 0.68846 0.23202 0.03347 0.0
C191 C 0.72944 0.27237 0.96592 0.0
C192 C 0.69783 0.30014 0.97323 0.0
C193 C 0.67212 0.29251 0.01787 0.0
C194 C 0.64815 0.32244 0.03655 0.0
C195 C 0.62351 0.31455 0.08279 0.0
C196 C 0.62269 0.27809 0.10984 0.0
C197 C 0.64627 0.24882 0.09167 0.0
C198 C 0.6708 0.25578 0.04625 0.0
H199 H 0.5858 0.40519 0.97834 0.0
C200 C 0.60176 0.41149 0.02426 0.0
H201 H 0.65044 0.39863 0.09065 0.0
H202 H 0.73792 0.32114 0.87722 0.0
H203 H 0.73686 0.38416 0.82705 0.0
H204 H 0.69599 0.43665 0.86058 0.0
H205 H 0.65576 0.42644 0.94408 0.0
C206 C 0.63496 0.3927 0.0442 0.0
C207 C 0.64996 0.35978 0.01035 0.0
C208 C 0.67264 0.36624 0.96091 0.0
C209 C 0.69655 0.33618 0.94211 0.0
C210 C 0.71962 0.34329 0.89353 0.0
C211 C 0.71917 0.37921 0.86437 0.0
C212 C 0.69611 0.40876 0.88322 0.0
C213 C 0.67319 0.40257 0.93117 0.0
H214 H 0.21387 0.89886 0.18791 0.0
C215 C 0.19511 0.88053 0.15579 0.0
H216 H 0.13941 0.85635 0.13615 0.0
H217 H 0.11896 0.87529 0.4251 0.0
H218 H 0.13667 0.80762 0.42176 0.0
H219 H 0.15706 0.77912 0.32556 0.0
H220 H 0.16049 0.81813 0.23268 0.0
C221 C 0.15746 0.87776 0.16309 0.0
C222 C 0.14319 0.89506 0.21953 0.0
C223 C 0.14044 0.87158 0.27291 0.0
C224 C 0.12741 0.88766 0.32762 0.0
C225 C 0.12698 0.86404 0.3814 0.0
C226 C 0.13745 0.82529 0.38032 0.0
C227 C 0.14902 0.80927 0.32623 0.0
C228 C 0.15078 0.83202 0.27317 0.0
H229 H 0.05047 0.89756 0.35685 0.0
C230 C 0.05862 0.92311 0.38513 0.0
H231 H 0.10004 0.96763 0.40275 0.0
H232 H 0.1471 0.94809 0.12657 0.0
H233 H 0.12992 0.0159 0.13016 0.0
H234 H 0.10579 0.04362 0.224 0.0
H235 H 0.09875 0.00391 0.31481 0.0
C236 C 0.09214 0.94088 0.3779 0.0
C237 C 0.1151 0.92672 0.32781 0.0
C238 C 0.11975 0.95066 0.27554 0.0
C239 C 0.13377 0.93474 0.22131 0.0
C240 C 0.13706 0.95891 0.1691 0.0
C241 C 0.12716 0.9978 0.17046 0.0
C242 C 0.11353 0.01339 0.22329 0.0
C243 C 0.10961 0.99022 0.27519 0.0
H244 H 0.65404 0.63887 0.61675 0.0
C245 C 0.66599 0.66403 0.64257 0.0
H246 H 0.66475 0.69813 0.72349 0.0
H247 H 0.51708 0.64136 0.82757 0.0
H248 H 0.49983 0.70694 0.79686 0.0
H249 H 0.54103 0.74506 0.73431 0.0
H250 H 0.59984 0.71795 0.70259 0.0
C251 C 0.65623 0.67107 0.70028 0.0
C252 C 0.6297 0.64591 0.73152 0.0
C253 C 0.59475 0.66189 0.74814 0.0
C254 C 0.57049 0.63965 0.78283 0.0
C255 C 0.53629 0.65672 0.80027 0.0
C256 C 0.52605 0.6944 0.78308 0.0
C257 C 0.54928 0.71587 0.74801 0.0
C258 C 0.58315 0.69996 0.73044 0.0
H259 H 0.58942 0.57776 0.92125 0.0
C260 C 0.56144 0.57012 0.89532 0.0
H261 H 0.52572 0.57106 0.8076 0.0
H262 H 0.69653 0.60718 0.71307 0.0
H263 H 0.71224 0.54086 0.74066 0.0
H264 H 0.66766 0.50098 0.79427 0.0
H265 H 0.60728 0.52757 0.82156 0.0
C266 C 0.55393 0.57799 0.83345 0.0
C267 C 0.58077 0.60121 0.79991 0.0
C268 C 0.6153 0.58489 0.78252 0.0
C269 C 0.64024 0.60748 0.74928 0.0
C270 C 0.67563 0.59105 0.73577 0.0
C271 C 0.6852 0.553 0.75183 0.0
C272 C 0.66015 0.53058 0.78218 0.0
C273 C 0.62562 0.54621 0.79764 0.0
H274 H 0.89202 0.20967 0.115 0.0
C275 C 0.87187 0.19075 0.08637 0.0
H276 H 0.84559 0.13622 0.07996 0.0
H277 H 0.00122 0.09806 0.28612 0.0
H278 H 0.03823 0.104 0.19797 0.0
H279 H 0.00704 0.12662 0.09447 0.0
H280 H 0.93852 0.1435 0.07851 0.0
C281 C 0.86862 0.15404 0.10418 0.0
C282 C 0.88821 0.141 0.16658 0.0
C283 C 0.92828 0.13156 0.17533 0.0
C284 C 0.94619 0.11825 0.23506 0.0
C285 C 0.98608 0.10826 0.24196 0.0
C286 C 0.0077 0.11157 0.19171 0.0
C287 C 0.99015 0.12437 0.13344 0.0
C288 C 0.95087 0.13411 0.12497 0.0
H289 H 0.89561 0.04999 0.32341 0.0
C290 C 0.92181 0.0581 0.35422 0.0
H291 H 0.96698 0.09913 0.36997 0.0
H292 H 0.81138 0.15941 0.1672 0.0
H293 H 0.77552 0.15767 0.25707 0.0
H294 H 0.80752 0.13798 0.36172 0.0
H295 H 0.87559 0.11938 0.37673 0.0
C296 C 0.93952 0.09128 0.34267 0.0
C297 C 0.92384 0.11415 0.28574 0.0
C298 C 0.88458 0.12675 0.27818 0.0
C299 C 0.8665 0.13924 0.21829 0.0
C300 C 0.82677 0.15002 0.21172 0.0
C301 C 0.80581 0.14923 0.26298 0.0
C302 C 0.8238 0.13807 0.32184 0.0
C303 C 0.86274 0.1271 0.32969 0.0
H304 H 0.31639 0.38913 0.58027 0.0
C305 C 0.33129 0.36424 0.56389 0.0
H306 H 0.37992 0.32822 0.57752 0.0
H307 H 0.41102 0.48857 0.7607 0.0
H308 H 0.40287 0.52553 0.66395 0.0
H309 H 0.38785 0.49317 0.56094 0.0
H310 H 0.38057 0.42363 0.55431 0.0
C311 C 0.36655 0.35428 0.59289 0.0
C312 C 0.38353 0.37332 0.65304 0.0
C313 C 0.38932 0.41381 0.65609 0.0
C314 C 0.39878 0.43233 0.71547 0.0
C315 C 0.40349 0.47295 0.71703 0.0
C316 C 0.39916 0.49453 0.66177 0.0
C317 C 0.39066 0.47633 0.6038 0.0
C318 C 0.3861 0.43644 0.60069 0.0
H319 H 0.4636 0.41191 0.86842 0.0
C320 C 0.43954 0.43076 0.87562 0.0
H321 H 0.3837 0.45094 0.8398 0.0
H322 H 0.38026 0.29434 0.66422 0.0
H323 H 0.39088 0.2575 0.76033 0.0
H324 H 0.40662 0.28979 0.86312 0.0
H325 H 0.41197 0.35927 0.87009 0.0
C326 C 0.40703 0.43095 0.83352 0.0
C327 C 0.40344 0.41031 0.77182 0.0
C328 C 0.40062 0.36957 0.76847 0.0
C329 C 0.39101 0.351 0.709 0.0
C330 C 0.3876 0.31025 0.70751 0.0
C331 C 0.39354 0.28859 0.76257 0.0
C332 C 0.40243 0.30677 0.82041 0.0
C333 C 0.40565 0.34675 0.82367 0.0
H334 H 0.68475 0.66213 0.4681 0.0
C335 C 0.66695 0.6736 0.50212 0.0
H336 H 0.60964 0.68167 0.52263 0.0
H337 H 0.55909 0.66111 0.22507 0.0
H338 H 0.53674 0.72584 0.24345 0.0
H339 H 0.54795 0.75506 0.34936 0.0
H340 H 0.58183 0.71965 0.43758 0.0
C341 C 0.6284 0.66798 0.49227 0.0
C342 C 0.61144 0.64681 0.43442 0.0
C343 C 0.59024 0.66723 0.38394 0.0
C344 C 0.58303 0.65 0.32304 0.0
C345 C 0.56418 0.67212 0.27264 0.0
C346 C 0.55146 0.7095 0.28245 0.0
C347 C 0.55784 0.72599 0.34207 0.0
C348 C 0.57732 0.70537 0.39227 0.0
H349 H 0.53259 0.59452 0.23027 0.0
C350 C 0.55979 0.58468 0.21558 0.0
H351 H 0.62071 0.5836 0.23528 0.0
H352 H 0.64477 0.5972 0.52438 0.0
H353 H 0.66326 0.5307 0.50862 0.0
H354 H 0.65032 0.50029 0.40374 0.0
H355 H 0.61894 0.53606 0.31429 0.0
C356 C 0.59374 0.59449 0.24942 0.0
C357 C 0.59606 0.61189 0.31354 0.0
C358 C 0.61388 0.59025 0.36566 0.0
C359 C 0.62145 0.6077 0.42607 0.0
C360 C 0.63922 0.58549 0.47725 0.0
C361 C 0.64967 0.54723 0.46894 0.0
C362 C 0.64237 0.53012 0.40992 0.0
C363 C 0.62455 0.55113 0.35882 0.0
H364 H 0.88829 0.17564 0.95761 0.0
C365 C 0.85687 0.17625 0.94582 0.0
H366 H 0.80822 0.15416 0.88793 0.0
H367 H 0.90404 0.13744 0.65622 0.0
H368 H 0.85436 0.18347 0.61768 0.0
H369 H 0.80599 0.20528 0.68497 0.0
H370 H 0.80779 0.18172 0.79145 0.0
C371 C 0.83968 0.15435 0.89811 0.0
C372 C 0.86268 0.13381 0.85398 0.0
C373 C 0.85887 0.14496 0.78966 0.0
C374 C 0.88532 0.13065 0.74961 0.0
C375 C 0.8836 0.1457 0.68782 0.0
C376 C 0.85534 0.17246 0.66512 0.0
C377 C 0.82824 0.18487 0.70307 0.0
C378 C 0.82986 0.17138 0.76453 0.0
H379 H 0.90677 0.062 0.66222 0.0
C380 C 0.93648 0.06992 0.68003 0.0
H381 H 0.97388 0.0969 0.75294 0.0
H382 H 0.87245 0.10041 0.97066 0.0
H383 H 0.9197 0.05132 0.0077 0.0
H384 H 0.96408 0.02463 0.93729 0.0
H385 H 0.96159 0.04703 0.82959 0.0
C386 C 0.94401 0.09044 0.73381 0.0
C387 C 0.91356 0.10284 0.77259 0.0
C388 C 0.91521 0.08928 0.83539 0.0
C389 C 0.88982 0.10482 0.87616 0.0
C390 C 0.89182 0.0904 0.93832 0.0
C391 C 0.91856 0.06196 0.96 0.0
C392 C 0.94352 0.04692 0.92035 0.0
C393 C 0.94191 0.06019 0.85871 0.0
H394 H 0.29792 0.38271 0.38449 0.0
C395 C 0.31707 0.36775 0.42068 0.0
H396 H 0.3747 0.35165 0.45142 0.0
H397 H 0.42264 0.36576 0.17751 0.0
H398 H 0.42241 0.29638 0.19198 0.0
H399 H 0.39861 0.26775 0.28521 0.0
H400 H 0.37486 0.3082 0.36437 0.0
C401 C 0.35552 0.36929 0.41908 0.0
C402 C 0.37126 0.3872 0.36439 0.0
C403 C 0.38544 0.36309 0.31882 0.0
C404 C 0.39957 0.37958 0.26538 0.0
C405 C 0.41256 0.35477 0.2198 0.0
C406 C 0.4123 0.31489 0.22727 0.0
C407 C 0.39886 0.29877 0.27971 0.0
C408 C 0.3854 0.3224 0.32493 0.0
H409 H 0.47484 0.41957 0.25282 0.0
C410 C 0.45963 0.43515 0.21297 0.0
H411 H 0.40475 0.4551 0.17122 0.0
H412 H 0.34699 0.44163 0.44333 0.0
H413 H 0.34675 0.51097 0.42822 0.0
H414 H 0.37044 0.53951 0.33479 0.0
H415 H 0.39479 0.49889 0.25608 0.0
C416 C 0.42079 0.43773 0.20793 0.0
C417 C 0.40019 0.42022 0.25804 0.0
C418 C 0.38498 0.44427 0.30264 0.0
C419 C 0.37081 0.42777 0.35615 0.0
C420 C 0.35732 0.45258 0.40124 0.0
C421 C 0.3572 0.49244 0.39328 0.0
C422 C 0.37061 0.50851 0.34072 0.0
C423 C 0.3845 0.48487 0.2959 0.0
H424 H 0.17961 0.89512 0.01541 0.0
C425 C 0.17704 0.86389 0.01519 0.0
H426 H 0.14928 0.81506 0.97237 0.0
H427 H 0.06165 0.97471 0.83841 0.0
H428 H 0.04465 0.99038 0.94192 0.0
H429 H 0.06649 0.9492 0.03351 0.0
H430 H 0.10534 0.8921 0.02203 0.0
C431 C 0.15211 0.84618 0.97066 0.0
C432 C 0.13251 0.86725 0.91435 0.0
C433 C 0.10894 0.89998 0.92151 0.0
C434 C 0.09588 0.9234 0.86847 0.0
C435 C 0.07267 0.95611 0.87715 0.0
C436 C 0.06251 0.96532 0.93625 0.0
C437 C 0.07481 0.94216 0.98782 0.0
C438 C 0.09751 0.9097 0.98072 0.0
H439 H 0.05738 0.90856 0.69684 0.0
C440 C 0.07221 0.93614 0.70388 0.0
H441 H 0.1112 0.97049 0.76428 0.0
H442 H 0.16866 0.80128 0.88025 0.0
H443 H 0.1847 0.78518 0.77698 0.0
H444 H 0.16577 0.82807 0.68654 0.0
H445 H 0.13025 0.88699 0.69915 0.0
C446 C 0.09786 0.94227 0.75592 0.0
C447 C 0.10598 0.91389 0.80812 0.0
C448 C 0.12716 0.87971 0.80006 0.0
C449 C 0.13949 0.85579 0.8529 0.0
C450 C 0.15983 0.82137 0.84288 0.0
C451 C 0.16899 0.81155 0.78345 0.0
C452 C 0.15823 0.83562 0.73253 0.0
C453 C 0.13762 0.86933 0.74044 0.0
loop_
_geom_bond_atom_site_label_1
_geom_bond_atom_site_label_2
_geom_bond_distance
_geom_bond_site_symmetry_2
_ccdc_geom_bond_type
C0 N1 1.317 . S
C0 N2 1.348 . S
C0 C3 1.485 1_554 S
N1 C0 1.317 . S
N1 N5 1.370 . S
N2 C0 1.348 . S
N2 C4 1.346 . S
C3 C0 1.485 1_556 S
C3 H7 0.960 . S
C3 H8 0.961 . S
C3 H9 0.960 . S
C4 N2 1.346 . S
C4 N5 1.307 . S
C4 C6 1.486 . S
N5 N1 1.370 . S
N5 C4 1.307 . S
C6 C4 1.486 . S
C6 H10 0.960 . S
C6 H11 0.960 . S
C6 H12 0.959 . S
H7 C3 0.960 . S
H8 C3 0.961 . S
H9 C3 0.960 . S
H10 C6 0.960 . S
H11 C6 0.960 . S
H12 C6 0.959 . S
C13 N14 1.317 . S
C13 N15 1.348 . S
C13 C16 1.485 . S
N14 C13 1.317 . S
N14 N18 1.370 . S
N15 C13 1.348 . S
N15 C17 1.346 . S
C16 C13 1.485 . S
C16 H20 0.960 . S
C16 H21 0.961 . S
C16 H22 0.960 . S
C17 N15 1.346 . S
C17 N18 1.307 . S
C17 C19 1.486 . S
N18 N14 1.370 . S
N18 C17 1.307 . S
C19 C17 1.486 . S
C19 H23 0.960 . S
C19 H24 0.960 . S
C19 H25 0.959 . S
H20 C16 0.960 . S
H21 C16 0.961 . S
H22 C16 0.960 . S
H23 C19 0.960 . S
H24 C19 0.960 . S
H25 C19 0.959 . S
C26 N27 1.317 . S
C26 N28 1.355 . S
C26 C29 1.485 . S
N27 C26 1.317 . S
N27 N31 1.370 1_554 S
N28 C26 1.355 . S
N28 C30 1.339 1_554 S
C29 C26 1.485 . S
C29 H33 0.960 . S
C29 H34 0.961 . S
C29 H35 0.960 . S
C30 N28 1.339 1_556 S
C30 N31 1.307 . S
C30 C32 1.486 . S
N31 N27 1.370 1_556 S
N31 C30 1.307 . S
C32 C30 1.486 . S
C32 H36 0.960 . S
C32 H37 0.960 . S
C32 H38 0.959 . S
H33 C29 0.960 . S
H34 C29 0.961 . S
H35 C29 0.960 . S
H36 C32 0.960 . S
H37 C32 0.960 . S
H38 C32 0.959 . S
C39 N40 1.317 . S
C39 N41 1.348 . S
C39 C42 1.485 . S
N40 C39 1.317 . S
N40 N44 1.370 . S
N41 C39 1.348 . S
N41 C43 1.346 . S
C42 C39 1.485 . S
C42 H46 0.960 . S
C42 H47 0.961 . S
C42 H48 0.960 . S
C43 N41 1.346 . S
C43 N44 1.307 . S
C43 C45 1.486 . S
N44 N40 1.370 . S
N44 C43 1.307 . S
C45 C43 1.486 . S
C45 H49 0.960 . S
C45 H50 0.960 . S
C45 H51 0.959 . S
H46 C42 0.960 . S
H47 C42 0.961 . S
H48 C42 0.960 . S
H49 C45 0.960 . S
H50 C45 0.960 . S
H51 C45 0.959 . S
O52 Mg53 1.990 . S
O52 C66 1.253 1_455 S
Mg53 O52 1.990 . S
Mg53 O56 2.180 . S
Mg53 O57 2.117 . S
Mg53 O71 2.030 . S
O54 Mg55 2.072 1_655 S
O54 C66 1.260 . S
Mg55 O54 2.072 1_455 S
Mg55 O56 2.099 . S
Mg55 O58 2.079 1_545 S
Mg55 O59 2.072 1_455 S
Mg55 O61 2.099 1_445 S
Mg55 O72 2.079 1_545 S
O56 Mg53 2.180 . S
O56 Mg55 2.099 . S
O56 C67 1.279 . S
O57 Mg53 2.117 . S
O57 C67 1.250 . S
O58 Mg55 2.079 1_565 S
O58 C68 1.264 . S
O59 Mg55 2.072 1_655 S
O59 C69 1.260 . S
Mg60 O61 2.180 . S
Mg60 O62 2.030 1_655 S
Mg60 O63 1.990 1_565 S
Mg60 O64 2.117 . S
O61 Mg55 2.099 1_665 S
O61 Mg60 2.180 . S
O61 C70 1.279 . S
O62 Mg60 2.030 1_455 S
O62 C68 1.248 . S
O63 Mg60 1.990 1_545 S
O63 C69 1.253 . S
O64 Mg60 2.117 . S
O64 C70 1.250 . S
C65 O71 1.248 1_565 S
C65 O72 1.264 . S
C66 O52 1.253 1_655 S
C66 O54 1.260 . S
C67 O56 1.279 . S
C67 O57 1.250 . S
C68 O58 1.264 . S
C68 O62 1.248 . S
C69 O59 1.260 . S
C69 O63 1.253 . S
C70 O61 1.279 . S
C70 O64 1.250 . S
O71 Mg53 2.030 . S
O71 C65 1.248 1_545 S
O72 Mg55 2.079 1_565 S
O72 C65 1.264 . S
O73 Mg74 1.990 . S
O73 C87 1.253 . S
Mg74 O73 1.990 . S
Mg74 O77 2.180 . S
Mg74 O78 2.117 . S
Mg74 O92 2.030 . S
O75 Mg76 2.072 . S
O75 C87 1.260 . S
Mg76 O75 2.072 . S
Mg76 O77 2.099 . S
Mg76 O79 2.079 1_554 S
Mg76 O80 2.072 1_554 S
Mg76 O82 2.099 . S
Mg76 O93 2.079 . S
O77 Mg74 2.180 . S
O77 Mg76 2.099 . S
O77 C88 1.279 . S
O78 Mg74 2.117 . S
O78 C88 1.250 . S
O79 Mg76 2.079 1_556 S
O79 C89 1.264 . S
O80 Mg76 2.072 1_556 S
O80 C90 1.260 . S
Mg81 O82 2.180 1_556 S
Mg81 O83 2.030 . S
Mg81 O84 1.990 . S
Mg81 O85 2.117 . S
O82 Mg76 2.099 . S
O82 Mg81 2.180 1_554 S
O82 C91 1.279 . S
O83 Mg81 2.030 . S
O83 C89 1.248 . S
O84 Mg81 1.990 . S
O84 C90 1.253 . S
O85 Mg81 2.117 . S
O85 C91 1.250 1_556 S
C86 O92 1.248 . S
C86 O93 1.264 . S
C87 O73 1.253 . S
C87 O75 1.260 . S
C88 O77 1.279 . S
C88 O78 1.250 . S
C89 O79 1.264 . S
C89 O83 1.248 . S
C90 O80 1.260 . S
C90 O84 1.253 . S
C91 O82 1.279 . S
C91 O85 1.250 1_554 S
O92 Mg74 2.030 . S
O92 C86 1.248 . S
O93 Mg76 2.079 . S
O93 C86 1.264 . S
H94 C95 0.951 . S
C95 H94 0.951 . S
C95 C101 1.265 . S
H96 C101 0.950 . S
H97 C105 0.949 . S
H98 C106 0.950 . S
H99 C107 0.951 . S
H100 C108 0.951 . S
C101 C95 1.265 . S
C101 H96 0.950 . S
C101 C102 1.478 . S
C102 C101 1.478 . S
C102 C103 1.397 . S
C102 C119 1.394 . S
C103 C102 1.397 . S
C103 C104 1.438 . S
C103 C108 1.429 . S
C104 C103 1.438 . S
C104 C105 1.428 . S
C104 C117 1.394 . S
C105 H97 0.949 . S
C105 C104 1.428 . S
C105 C106 1.345 . S
C106 H98 0.950 . S
C106 C105 1.345 . S
C106 C107 1.424 . S
C107 H99 0.951 . S
C107 C106 1.424 . S
C107 C108 1.347 . S
C108 H100 0.951 . S
C108 C103 1.429 . S
C108 C107 1.347 . S
H109 C110 0.951 . S
C110 H109 0.951 . S
C110 C116 1.265 . S
H111 C116 0.950 . S
H112 C120 0.949 . S
H113 C121 0.950 . S
H114 C122 0.951 . S
H115 C123 0.951 . S
C116 C110 1.265 . S
C116 H111 0.950 . S
C116 C117 1.478 . S
C117 C104 1.394 . S
C117 C116 1.478 . S
C117 C118 1.397 . S
C118 C117 1.397 . S
C118 C119 1.438 . S
C118 C123 1.429 . S
C119 C102 1.394 . S
C119 C118 1.438 . S
C119 C120 1.428 . S
C120 H112 0.949 . S
C120 C119 1.428 . S
C120 C121 1.345 . S
C121 H113 0.950 . S
C121 C120 1.345 . S
C121 C122 1.424 . S
C122 H114 0.951 . S
C122 C121 1.424 . S
C122 C123 1.347 . S
C123 H115 0.951 . S
C123 C118 1.429 . S
C123 C122 1.347 . S
H124 C125 0.951 . S
C125 H124 0.951 . S
C125 C131 1.265 . S
H126 C131 0.950 . S
H127 C135 0.949 . S
H128 C136 0.950 . S
H129 C137 0.951 . S
H130 C138 0.951 . S
C131 C125 1.265 . S
C131 H126 0.950 . S
C131 C132 1.478 . S
C132 C131 1.478 . S
C132 C133 1.397 . S
C132 C149 1.394 . S
C133 C132 1.397 . S
C133 C134 1.438 . S
C133 C138 1.429 1_554 S
C134 C133 1.438 . S
C134 C135 1.428 1_554 S
C134 C147 1.394 . S
C135 H127 0.949 . S
C135 C134 1.428 1_556 S
C135 C136 1.345 . S
C136 H128 0.950 . S
C136 C135 1.345 . S
C136 C137 1.424 . S
C137 H129 0.951 . S
C137 C136 1.424 . S
C137 C138 1.347 . S
C138 H130 0.951 . S
C138 C133 1.429 1_556 S
C138 C137 1.347 . S
H139 C140 0.951 . S
C140 H139 0.951 . S
C140 C146 1.265 . S
H141 C146 0.950 . S
H142 C150 0.949 . S
H143 C151 0.950 . S
H144 C152 0.951 . S
H145 C153 0.951 . S
C146 C140 1.265 . S
C146 H141 0.950 . S
C146 C147 1.478 . S
C147 C134 1.394 . S
C147 C146 1.478 . S
C147 C148 1.397 . S
C148 C147 1.397 . S
C148 C149 1.438 . S
C148 C153 1.429 . S
C149 C132 1.394 . S
C149 C148 1.438 . S
C149 C150 1.428 . S
C150 H142 0.949 . S
C150 C149 1.428 . S
C150 C151 1.345 . S
C151 H143 0.950 . S
C151 C150 1.345 . S
C151 C152 1.424 . S
C152 H144 0.951 . S
C152 C151 1.424 . S
C152 C153 1.347 . S
C153 H145 0.951 . S
C153 C148 1.429 . S
C153 C152 1.347 . S
H154 C155 0.951 . S
C155 H154 0.951 . S
C155 C161 1.265 . S
H156 C161 0.950 . S
H157 C165 0.949 . S
H158 C166 0.950 . S
H159 C167 0.951 . S
H160 C168 0.951 . S
C161 C155 1.265 . S
C161 H156 0.950 . S
C161 C162 1.478 . S
C162 C161 1.478 . S
C162 C163 1.397 . S
C162 C179 1.394 . S
C163 C162 1.397 . S
C163 C164 1.438 . S
C163 C168 1.429 . S
C164 C163 1.438 . S
C164 C165 1.428 . S
C164 C177 1.394 . S
C165 H157 0.949 . S
C165 C164 1.428 . S
C165 C166 1.345 . S
C166 H158 0.950 . S
C166 C165 1.345 . S
C166 C167 1.424 . S
C167 H159 0.951 . S
C167 C166 1.424 . S
C167 C168 1.347 . S
C168 H160 0.951 . S
C168 C163 1.429 . S
C168 C167 1.347 . S
H169 C170 0.951 . S
C170 H169 0.951 . S
C170 C176 1.265 . S
H171 C176 0.950 . S
H172 C180 0.949 . S
H173 C181 0.950 . S
H174 C182 0.951 . S
H175 C183 0.951 . S
C176 C170 1.265 . S
C176 H171 0.950 . S
C176 C177 1.478 . S
C177 C164 1.394 . S
C177 C176 1.478 . S
C177 C178 1.397 . S
C178 C177 1.397 . S
C178 C179 1.438 . S
C178 C183 1.429 . S
C179 C162 1.394 . S
C179 C178 1.438 . S
C179 C180 1.428 . S
C180 H172 0.949 . S
C180 C179 1.428 . S
C180 C181 1.345 . S
C181 H173 0.950 . S
C181 C180 1.345 . S
C181 C182 1.424 . S
C182 H174 0.951 . S
C182 C181 1.424 . S
C182 C183 1.347 . S
C183 H175 0.951 . S
C183 C178 1.429 . S
C183 C182 1.347 . S
H184 C185 0.951 . S
C185 H184 0.951 . S
C185 C191 1.265 1_554 S
H186 C191 0.950 . S
H187 C195 0.949 . S
H188 C196 0.950 . S
H189 C197 0.951 . S
H190 C198 0.951 . S
C191 C185 1.265 1_556 S
C191 H186 0.950 . S
C191 C192 1.478 1_556 S
C192 C191 1.478 1_554 S
C192 C193 1.397 . S
C192 C209 1.394 1_554 S
C193 C192 1.397 . S
C193 C194 1.438 . S
C193 C198 1.429 . S
C194 C193 1.438 . S
C194 C195 1.428 . S
C194 C207 1.394 . S
C195 H187 0.949 . S
C195 C194 1.428 . S
C195 C196 1.345 . S
C196 H188 0.950 . S
C196 C195 1.345 . S
C196 C197 1.424 . S
C197 H189 0.951 . S
C197 C196 1.424 . S
C197 C198 1.347 . S
C198 H190 0.951 . S
C198 C193 1.429 . S
C198 C197 1.347 . S
H199 C200 0.951 . S
C200 H199 0.951 . S
C200 C206 1.265 . S
H201 C206 0.950 . S
H202 C210 0.949 . S
H203 C211 0.950 . S
H204 C212 0.951 . S
H205 C213 0.951 . S
C206 C200 1.265 . S
C206 H201 0.950 . S
C206 C207 1.478 . S
C207 C194 1.394 . S
C207 C206 1.478 . S
C207 C208 1.397 1_554 S
C208 C207 1.397 1_556 S
C208 C209 1.438 . S
C208 C213 1.429 . S
C209 C192 1.394 1_556 S
C209 C208 1.438 . S
C209 C210 1.428 . S
C210 H202 0.949 . S
C210 C209 1.428 . S
C210 C211 1.345 . S
C211 H203 0.950 . S
C211 C210 1.345 . S
C211 C212 1.424 . S
C212 H204 0.951 . S
C212 C211 1.424 . S
C212 C213 1.347 . S
C213 H205 0.951 . S
C213 C208 1.429 . S
C213 C212 1.347 . S
H214 C215 0.951 . S
C215 H214 0.951 . S
C215 C221 1.265 . S
H216 C221 0.950 . S
H217 C225 0.949 . S
H218 C226 0.950 . S
H219 C227 0.951 . S
H220 C228 0.951 . S
C221 C215 1.265 . S
C221 H216 0.950 . S
C221 C222 1.478 . S
C222 C221 1.478 . S
C222 C223 1.397 . S
C222 C239 1.394 . S
C223 C222 1.397 . S
C223 C224 1.438 . S
C223 C228 1.429 . S
C224 C223 1.438 . S
C224 C225 1.428 . S
C224 C237 1.394 . S
C225 H217 0.949 . S
C225 C224 1.428 . S
C225 C226 1.345 . S
C226 H218 0.950 . S
C226 C225 1.345 . S
C226 C227 1.424 . S
C227 H219 0.951 . S
C227 C226 1.424 . S
C227 C228 1.347 . S
C228 H220 0.951 . S
C228 C223 1.429 . S
C228 C227 1.347 . S
H229 C230 0.951 . S
C230 H229 0.951 . S
C230 C236 1.265 . S
H231 C236 0.950 . S
H232 C240 0.949 . S
H233 C241 0.950 . S
H234 C242 0.951 . S
H235 C243 0.952 . S
C236 C230 1.265 . S
C236 H231 0.950 . S
C236 C237 1.478 . S
C237 C224 1.394 . S
C237 C236 1.478 . S
C237 C238 1.397 . S
C238 C237 1.397 . S
C238 C239 1.438 . S
C238 C243 1.429 . S
C239 C222 1.394 . S
C239 C238 1.438 . S
C239 C240 1.428 . S
C240 H232 0.949 . S
C240 C239 1.428 . S
C240 C241 1.345 . S
C241 H233 0.950 . S
C241 C240 1.345 . S
C241 C242 1.424 1_565 S
C242 H234 0.951 . S
C242 C241 1.424 1_545 S
C242 C243 1.347 1_545 S
C243 H235 0.952 . S
C243 C238 1.429 . S
C243 C242 1.347 1_565 S
H244 C245 0.951 . S
C245 H244 0.951 . S
C245 C251 1.265 . S
H246 C251 0.950 . S
H247 C255 0.949 . S
H248 C256 0.950 . S
H249 C257 0.951 . S
H250 C258 0.951 . S
C251 C245 1.265 . S
C251 H246 0.950 . S
C251 C252 1.478 . S
C252 C251 1.478 . S
C252 C253 1.397 . S
C252 C269 1.394 . S
C253 C252 1.397 . S
C253 C254 1.438 . S
C253 C258 1.429 . S
C254 C253 1.438 . S
C254 C255 1.428 . S
C254 C267 1.394 . S
C255 H247 0.949 . S
C255 C254 1.428 . S
C255 C256 1.345 . S
C256 H248 0.950 . S
C256 C255 1.345 . S
C256 C257 1.424 . S
C257 H249 0.951 . S
C257 C256 1.424 . S
C257 C258 1.347 . S
C258 H250 0.951 . S
C258 C253 1.429 . S
C258 C257 1.347 . S
H259 C260 0.951 . S
C260 H259 0.951 . S
C260 C266 1.265 . S
H261 C266 0.950 . S
H262 C270 0.949 . S
H263 C271 0.950 . S
H264 C272 0.951 . S
H265 C273 0.951 . S
C266 C260 1.265 . S
C266 H261 0.950 . S
C266 C267 1.478 . S
C267 C254 1.394 . S
C267 C266 1.478 . S
C267 C268 1.397 . S
C268 C267 1.397 . S
C268 C269 1.438 . S
C268 C273 1.429 . S
C269 C252 1.394 . S
C269 C268 1.438 . S
C269 C270 1.428 . S
C270 H262 0.949 . S
C270 C269 1.428 . S
C270 C271 1.345 . S
C271 H263 0.950 . S
C271 C270 1.345 . S
C271 C272 1.424 . S
C272 H264 0.951 . S
C272 C271 1.424 . S
C272 C273 1.347 . S
C273 H265 0.951 . S
C273 C268 1.429 . S
C273 C272 1.347 . S
H274 C275 0.951 . S
C275 H274 0.951 . S
C275 C281 1.265 . S
H276 C281 0.950 . S
H277 C285 0.949 . S
H278 C286 0.950 . S
H279 C287 0.951 1_455 S
H280 C288 0.951 . S
C281 C275 1.265 . S
C281 H276 0.950 . S
C281 C282 1.478 . S
C282 C281 1.478 . S
C282 C283 1.397 . S
C282 C299 1.394 . S
C283 C282 1.397 . S
C283 C284 1.438 . S
C283 C288 1.429 . S
C284 C283 1.438 . S
C284 C285 1.428 . S
C284 C297 1.394 . S
C285 H277 0.949 . S
C285 C284 1.428 . S
C285 C286 1.345 1_655 S
C286 H278 0.950 . S
C286 C285 1.345 1_455 S
C286 C287 1.424 1_455 S
C287 H279 0.951 1_655 S
C287 C286 1.424 1_655 S
C287 C288 1.347 . S
C288 H280 0.951 . S
C288 C283 1.429 . S
C288 C287 1.347 . S
H289 C290 0.951 . S
C290 H289 0.951 . S
C290 C296 1.265 . S
H291 C296 0.950 . S
H292 C300 0.949 . S
H293 C301 0.950 . S
H294 C302 0.951 . S
H295 C303 0.951 . S
C296 C290 1.265 . S
C296 H291 0.950 . S
C296 C297 1.478 . S
C297 C284 1.394 . S
C297 C296 1.478 . S
C297 C298 1.397 . S
C298 C297 1.397 . S
C298 C299 1.438 . S
C298 C303 1.429 . S
C299 C282 1.394 . S
C299 C298 1.438 . S
C299 C300 1.428 . S
C300 H292 0.949 . S
C300 C299 1.428 . S
C300 C301 1.345 . S
C301 H293 0.950 . S
C301 C300 1.345 . S
C301 C302 1.424 . S
C302 H294 0.951 . S
C302 C301 1.424 . S
C302 C303 1.347 . S
C303 H295 0.951 . S
C303 C298 1.429 . S
C303 C302 1.347 . S
H304 C305 0.951 . S
C305 H304 0.951 . S
C305 C311 1.265 . S
H306 C311 0.950 . S
H307 C315 0.949 . S
H308 C316 0.950 . S
H309 C317 0.951 . S
H310 C318 0.951 . S
C311 C305 1.265 . S
C311 H306 0.950 . S
C311 C312 1.478 . S
C312 C311 1.478 . S
C312 C313 1.397 . S
C312 C329 1.394 . S
C313 C312 1.397 . S
C313 C314 1.438 . S
C313 C318 1.429 . S
C314 C313 1.438 . S
C314 C315 1.428 . S
C314 C327 1.394 . S
C315 H307 0.949 . S
C315 C314 1.428 . S
C315 C316 1.345 . S
C316 H308 0.950 . S
C316 C315 1.345 . S
C316 C317 1.424 . S
C317 H309 0.951 . S
C317 C316 1.424 . S
C317 C318 1.347 . S
C318 H310 0.951 . S
C318 C313 1.429 . S
C318 C317 1.347 . S
H319 C320 0.951 . S
C320 H319 0.951 . S
C320 C326 1.265 . S
H321 C326 0.950 . S
H322 C330 0.949 . S
H323 C331 0.950 . S
H324 C332 0.951 . S
H325 C333 0.951 . S
C326 C320 1.265 . S
C326 H321 0.950 . S
C326 C327 1.478 . S
C327 C314 1.394 . S
C327 C326 1.478 . S
C327 C328 1.397 . S
C328 C327 1.397 . S
C328 C329 1.438 . S
C328 C333 1.429 . S
C329 C312 1.394 . S
C329 C328 1.438 . S
C329 C330 1.428 . S
C330 H322 0.949 . S
C330 C329 1.428 . S
C330 C331 1.345 . S
C331 H323 0.950 . S
C331 C330 1.345 . S
C331 C332 1.424 . S
C332 H324 0.951 . S
C332 C331 1.424 . S
C332 C333 1.347 . S
C333 H325 0.951 . S
C333 C328 1.429 . S
C333 C332 1.347 . S
H334 C335 0.951 . S
C335 H334 0.951 . S
C335 C341 1.265 . S
H336 C341 0.950 . S
H337 C345 0.949 . S
H338 C346 0.950 . S
H339 C347 0.951 . S
H340 C348 0.951 . S
C341 C335 1.265 . S
C341 H336 0.950 . S
C341 C342 1.478 . S
C342 C341 1.478 . S
C342 C343 1.397 . S
C342 C359 1.394 . S
C343 C342 1.397 . S
C343 C344 1.438 . S
C343 C348 1.429 . S
C344 C343 1.438 . S
C344 C345 1.428 . S
C344 C357 1.394 . S
C345 H337 0.949 . S
C345 C344 1.428 . S
C345 C346 1.345 . S
C346 H338 0.950 . S
C346 C345 1.345 . S
C346 C347 1.424 . S
C347 H339 0.951 . S
C347 C346 1.424 . S
C347 C348 1.347 . S
C348 H340 0.951 . S
C348 C343 1.429 . S
C348 C347 1.347 . S
H349 C350 0.951 . S
C350 H349 0.951 . S
C350 C356 1.265 . S
H351 C356 0.950 . S
H352 C360 0.949 . S
H353 C361 0.950 . S
H354 C362 0.951 . S
H355 C363 0.951 . S
C356 C350 1.265 . S
C356 H351 0.950 . S
C356 C357 1.478 . S
C357 C344 1.394 . S
C357 C356 1.478 . S
C357 C358 1.397 . S
C358 C357 1.397 . S
C358 C359 1.438 . S
C358 C363 1.429 . S
C359 C342 1.394 . S
C359 C358 1.438 . S
C359 C360 1.428 . S
C360 H352 0.949 . S
C360 C359 1.428 . S
C360 C361 1.345 . S
C361 H353 0.950 . S
C361 C360 1.345 . S
C361 C362 1.424 . S
C362 H354 0.951 . S
C362 C361 1.424 . S
C362 C363 1.347 . S
C363 H355 0.951 . S
C363 C358 1.429 . S
C363 C362 1.347 . S
H364 C365 0.951 . S
C365 H364 0.951 . S
C365 C371 1.265 . S
H366 C371 0.950 . S
H367 C375 0.949 . S
H368 C376 0.950 . S
H369 C377 0.951 . S
H370 C378 0.951 . S
C371 C365 1.265 . S
C371 H366 0.950 . S
C371 C372 1.478 . S
C372 C371 1.478 . S
C372 C373 1.397 . S
C372 C389 1.394 . S
C373 C372 1.397 . S
C373 C374 1.438 . S
C373 C378 1.429 . S
C374 C373 1.438 . S
C374 C375 1.428 . S
C374 C387 1.394 . S
C375 H367 0.949 . S
C375 C374 1.428 . S
C375 C376 1.345 . S
C376 H368 0.950 . S
C376 C375 1.345 . S
C376 C377 1.424 . S
C377 H369 0.951 . S
C377 C376 1.424 . S
C377 C378 1.347 . S
C378 H370 0.951 . S
C378 C373 1.429 . S
C378 C377 1.347 . S
H379 C380 0.951 . S
C380 H379 0.951 . S
C380 C386 1.265 . S
H381 C386 0.950 . S
H382 C390 0.949 . S
H383 C391 0.950 . S
H384 C392 0.951 . S
H385 C393 0.951 . S
C386 C380 1.265 . S
C386 H381 0.950 . S
C386 C387 1.478 . S
C387 C374 1.394 . S
C387 C386 1.478 . S
C387 C388 1.397 . S
C388 C387 1.397 . S
C388 C389 1.438 . S
C388 C393 1.429 . S
C389 C372 1.394 . S
C389 C388 1.438 . S
C389 C390 1.428 . S
C390 H382 0.949 . S
C390 C389 1.428 . S
C390 C391 1.345 . S
C391 H383 0.950 . S
C391 C390 1.345 . S
C391 C392 1.424 . S
C392 H384 0.951 . S
C392 C391 1.424 . S
C392 C393 1.347 . S
C393 H385 0.951 . S
C393 C388 1.429 . S
C393 C392 1.347 . S
H394 C395 0.951 . S
C395 H394 0.951 . S
C395 C401 1.265 . S
H396 C401 0.950 . S
H397 C405 0.949 . S
H398 C406 0.950 . S
H399 C407 0.951 . S
H400 C408 0.951 . S
C401 C395 1.265 . S
C401 H396 0.950 . S
C401 C402 1.478 . S
C402 C401 1.478 . S
C402 C403 1.397 . S
C402 C419 1.394 . S
C403 C402 1.397 . S
C403 C404 1.438 . S
C403 C408 1.429 . S
C404 C403 1.438 . S
C404 C405 1.428 . S
C404 C417 1.394 . S
C405 H397 0.949 . S
C405 C404 1.428 . S
C405 C406 1.345 . S
C406 H398 0.950 . S
C406 C405 1.345 . S
C406 C407 1.424 . S
C407 H399 0.951 . S
C407 C406 1.424 . S
C407 C408 1.347 . S
C408 H400 0.951 . S
C408 C403 1.429 . S
C408 C407 1.347 . S
H409 C410 0.951 . S
C410 H409 0.951 . S
C410 C416 1.265 . S
H411 C416 0.950 . S
H412 C420 0.949 . S
H413 C421 0.950 . S
H414 C422 0.951 . S
H415 C423 0.951 . S
C416 C410 1.265 . S
C416 H411 0.950 . S
C416 C417 1.478 . S
C417 C404 1.394 . S
C417 C416 1.478 . S
C417 C418 1.397 . S
C418 C417 1.397 . S
C418 C419 1.438 . S
C418 C423 1.429 . S
C419 C402 1.394 . S
C419 C418 1.438 . S
C419 C420 1.428 . S
C420 H412 0.949 . S
C420 C419 1.428 . S
C420 C421 1.345 . S
C421 H413 0.950 . S
C421 C420 1.345 . S
C421 C422 1.424 . S
C422 H414 0.951 . S
C422 C421 1.424 . S
C422 C423 1.347 . S
C423 H415 0.951 . S
C423 C418 1.429 . S
C423 C422 1.347 . S
H424 C425 0.951 . S
C425 H424 0.951 . S
C425 C431 1.265 . S
H426 C431 0.950 . S
H427 C435 0.949 . S
H428 C436 0.950 . S
H429 C437 0.951 1_554 S
H430 C438 0.951 1_554 S
C431 C425 1.265 . S
C431 H426 0.950 . S
C431 C432 1.478 . S
C432 C431 1.478 . S
C432 C433 1.397 . S
C432 C449 1.394 . S
C433 C432 1.397 . S
C433 C434 1.438 . S
C433 C438 1.429 . S
C434 C433 1.438 . S
C434 C435 1.428 . S
C434 C447 1.394 . S
C435 H427 0.949 . S
C435 C434 1.428 . S
C435 C436 1.345 . S
C436 H428 0.950 . S
C436 C435 1.345 . S
C436 C437 1.424 . S
C437 H429 0.951 1_556 S
C437 C436 1.424 . S
C437 C438 1.347 . S
C438 H430 0.951 1_556 S
C438 C433 1.429 . S
C438 C437 1.347 . S
H439 C440 0.951 . S
C440 H439 0.951 . S
C440 C446 1.265 . S
H441 C446 0.950 . S
H442 C450 0.949 . S
H443 C451 0.950 . S
H444 C452 0.951 . S
H445 C453 0.951 . S
C446 C440 1.265 . S
C446 H441 0.950 . S
C446 C447 1.478 . S
C447 C434 1.394 . S
C447 C446 1.478 . S
C447 C448 1.397 . S
C448 C447 1.397 . S
C448 C449 1.438 . S
C448 C453 1.429 . S
C449 C432 1.394 . S
C449 C448 1.438 . S
C449 C450 1.428 . S
C450 H442 0.949 . S
C450 C449 1.428 . S
C450 C451 1.345 . S
C451 H443 0.950 . S
C451 C450 1.345 . S
C451 C452 1.424 . S
C452 H444 0.951 . S
C452 C451 1.424 . S
C452 C453 1.347 . S
C453 H445 0.951 . S
C453 C448 1.429 . S
C453 C452 1.347 . S
C110 C67 1.277 . S
C95 N41 1.472 . S
C125 N2 1.464 . S
C140 C91 1.263 . S
C155 N15 1.597 . S
C170 C70 1.393 . S
C185 N28 1.593 . S
C200 C88 1.405 . S
C230 C68 1.404 . S
C215 N5 1.479 . S
C260 C90 1.506 . S
C245 N14 1.582 . S
C275 N27 1.518 . S
C290 C69 1.471 . S
C305 N44 1.454 . S
C320 C89 1.424 . S
C350 C87 1.521 . S
C335 N18 1.522 . S
C380 C66 1.550 . S
C365 N31 1.583 . S
C410 C86 1.404 . S
C395 N40 1.482 . S
C425 N1 1.464 1_556 S
C440 C65 1.464 . S
