# Generated by pormake.
# Topology ssa, (4,4)-cn, num edge types: 1
# Building blocks:
#     Node 0, Type 0, BuildingBlock: NAWXER_clean_sbu_0, # of connection points: 4
#     Node 1, Type 0, BuildingBlock: NAWXER_clean_sbu_0, # of connection points: 4
#     Node 2, Type 0, BuildingBlock: NAWXER_clean_sbu_0, # of connection points: 4
#     Node 3, Type 0, BuildingBlock: NAWXER_clean_sbu_0, # of connection points: 4
#     Node 4, Type 0, BuildingBlock: NAWXER_clean_sbu_0, # of connection points: 4
#     Node 5, Type 0, BuildingBlock: NAWXER_clean_sbu_0, # of connection points: 4
#     Node 6, Type 1, BuildingBlock: AZAVOO_clean_linker_0, # of connection points: 4
#     Node 7, Type 1, BuildingBlock: AZAVOO_clean_linker_0, # of connection points: 4
#     Node 8, Type 1, BuildingBlock: AZAVOO_clean_linker_0, # of connection points: 4
#     Node 9, Type 1, BuildingBlock: AZAVOO_clean_linker_0, # of connection points: 4
#     Node 10, Type 1, BuildingBlock: AZAVOO_clean_linker_0, # of connection points: 4
#     Node 11, Type 1, BuildingBlock: AZAVOO_clean_linker_0, # of connection points: 4
#     Edge 12, Type (0, 1), BuildingBlock: UVAHIK_clean_linker_0, # of connection points: 2
#     Edge 13, Type (0, 1), BuildingBlock: UVAHIK_clean_linker_0, # of connection points: 2
#     Edge 14, Type (0, 1), BuildingBlock: UVAHIK_clean_linker_0, # of connection points: 2
#     Edge 15, Type (0, 1), BuildingBlock: UVAHIK_clean_linker_0, # of connection points: 2
#     Edge 16, Type (0, 1), BuildingBlock: UVAHIK_clean_linker_0, # of connection points: 2
#     Edge 17, Type (0, 1), BuildingBlock: UVAHIK_clean_linker_0, # of connection points: 2
#     Edge 18, Type (0, 1), BuildingBlock: UVAHIK_clean_linker_0, # of connection points: 2
#     Edge 19, Type (0, 1), BuildingBlock: UVAHIK_clean_linker_0, # of connection points: 2
#     Edge 20, Type (0, 1), BuildingBlock: UVAHIK_clean_linker_0, # of connection points: 2
#     Edge 21, Type (0, 1), BuildingBlock: UVAHIK_clean_linker_0, # of connection points: 2
#     Edge 22, Type (0, 1), BuildingBlock: UVAHIK_clean_linker_0, # of connection points: 2
#     Edge 23, Type (0, 1), BuildingBlock: UVAHIK_clean_linker_0, # of connection points: 2
#     Edge 24, Type (0, 1), BuildingBlock: UVAHIK_clean_linker_0, # of connection points: 2
#     Edge 25, Type (0, 1), BuildingBlock: UVAHIK_clean_linker_0, # of connection points: 2
#     Edge 26, Type (0, 1), BuildingBlock: UVAHIK_clean_linker_0, # of connection points: 2
#     Edge 27, Type (0, 1), BuildingBlock: UVAHIK_clean_linker_0, # of connection points: 2
#     Edge 28, Type (0, 1), BuildingBlock: UVAHIK_clean_linker_0, # of connection points: 2
#     Edge 29, Type (0, 1), BuildingBlock: UVAHIK_clean_linker_0, # of connection points: 2
#     Edge 30, Type (0, 1), BuildingBlock: UVAHIK_clean_linker_0, # of connection points: 2
#     Edge 31, Type (0, 1), BuildingBlock: UVAHIK_clean_linker_0, # of connection points: 2
#     Edge 32, Type (0, 1), BuildingBlock: UVAHIK_clean_linker_0, # of connection points: 2
#     Edge 33, Type (0, 1), BuildingBlock: UVAHIK_clean_linker_0, # of connection points: 2
#     Edge 34, Type (0, 1), BuildingBlock: UVAHIK_clean_linker_0, # of connection points: 2
#     Edge 35, Type (0, 1), BuildingBlock: UVAHIK_clean_linker_0, # of connection points: 2
# Relax obj value: 0.078
# Max RMSD: 0.233
# Mean RMSD: 0.129
data_MOF--net-ssa--node1-NAWXER_clean_sbu_0--node2-AZAVOO_clean_linker_0--edge1-UVAHIK_clean_linker_0
_symmetry_space_group_name_H-M    P1
_symmetry_Int_Tables_number       1
_symmetry_cell_setting            triclinic
loop_
_symmetry_equiv_pos_as_xyz
'x, y, z'
_cell_length_a     60.614205
_cell_length_b     61.084634
_cell_length_c     57.35508
_cell_angle_alpha  89.973418
_cell_angle_beta   92.460418
_cell_angle_gamma 120.10268
loop_
_atom_site_label
_atom_site_type_symbol
_atom_site_fract_x
_atom_site_fract_y
_atom_site_fract_z
_atom_type_partial_charge
C0 C 0.16494 0.59575 0.02561 0.0
C1 C 0.12056 0.51664 0.97998 0.0
O2 O 0.1444 0.57899 0.0346 0.0
Zn3 Zn 0.11552 0.54054 0.028 0.0
O4 O 0.17246 0.59037 0.00726 0.0
Zn5 Zn 0.14379 0.55605 0.00288 0.0
O6 O 0.1113 0.56178 0.99711 0.0
O7 O 0.08531 0.54298 0.02565 0.0
O8 O 0.1413 0.53639 0.97524 0.0
O9 O 0.1097 0.51618 0.99881 0.0
O10 O 0.11949 0.52318 0.05421 0.0
O11 O 0.15104 0.53606 0.03035 0.0
C12 C 0.09046 0.55568 0.00713 0.0
C13 C 0.14024 0.52458 0.04887 0.0
C14 C 0.55458 0.00771 0.58221 0.0
C15 C 0.59243 0.96798 0.53797 0.0
O16 O 0.5534 0.98662 0.58569 0.0
Zn17 Zn 0.57341 0.98781 0.56012 0.0
O18 O 0.5675 0.02153 0.56547 0.0
Zn19 Zn 0.59045 0.01967 0.53859 0.0
O20 O 0.5731 0.02131 0.51026 0.0
O21 O 0.55019 0.98678 0.53018 0.0
O22 O 0.59848 0.99002 0.53054 0.0
O23 O 0.57763 0.95899 0.55475 0.0
O24 O 0.61124 0.01685 0.57158 0.0
O25 O 0.62396 0.04791 0.54664 0.0
C26 C 0.55239 0.00064 0.51262 0.0
C27 C 0.62834 0.0387 0.56494 0.0
C28 C 0.58264 0.46248 0.06147 0.0
C29 C 0.62184 0.5269 0.12373 0.0
O30 O 0.57924 0.48135 0.05804 0.0
Zn31 Zn 0.5887 0.51632 0.07545 0.0
O32 O 0.5948 0.46202 0.0799 0.0
Zn33 Zn 0.60256 0.49451 0.09278 0.0
O34 O 0.56571 0.48741 0.10278 0.0
O35 O 0.5558 0.51193 0.08194 0.0
O36 O 0.62331 0.50697 0.12162 0.0
O37 O 0.60969 0.53216 0.10796 0.0
O38 O 0.60904 0.54112 0.05297 0.0
O39 O 0.62726 0.52038 0.06771 0.0
C40 C 0.55014 0.49529 0.09743 0.0
C41 C 0.62761 0.53698 0.05378 0.0
C42 C 0.06451 0.51842 0.52937 0.0
C43 C 0.0367 0.4441 0.57711 0.0
O44 O 0.07637 0.51547 0.54678 0.0
Zn45 Zn 0.05071 0.48153 0.55359 0.0
O46 O 0.04212 0.50043 0.5229 0.0
Zn47 Zn 0.01542 0.46263 0.53359 0.0
O48 O 0.98667 0.46587 0.54294 0.0
O49 O 0.02113 0.48679 0.56619 0.0
O50 O 0.01987 0.441 0.56109 0.0
O51 O 0.05757 0.46502 0.57911 0.0
O52 O 0.05029 0.46072 0.52338 0.0
O53 O 0.01172 0.44237 0.50608 0.0
C54 C 0.99782 0.48006 0.56085 0.0
C55 C 0.0346 0.44675 0.50681 0.0
C56 C 0.61158 0.03344 0.12122 0.0
C57 C 0.57572 0.07956 0.08089 0.0
O58 O 0.61551 0.0554 0.12637 0.0
Zn59 Zn 0.59433 0.05704 0.101 0.0
O60 O 0.59677 0.02117 0.10352 0.0
Zn61 Zn 0.57406 0.02645 0.07678 0.0
O62 O 0.58926 0.02494 0.0485 0.0
O63 O 0.61506 0.05788 0.07121 0.0
O64 O 0.56757 0.0575 0.07183 0.0
O65 O 0.59222 0.08752 0.09785 0.0
O66 O 0.55625 0.02862 0.11028 0.0
O67 O 0.54055 0.99928 0.08214 0.0
C68 C 0.61094 0.04456 0.05254 0.0
C69 C 0.53798 0.00762 0.10151 0.0
C70 C 0.58366 0.56561 0.62224 0.0
C71 C 0.51696 0.51283 0.56384 0.0
O72 O 0.56154 0.56299 0.61951 0.0
Zn73 Zn 0.54987 0.53889 0.59362 0.0
O74 O 0.59014 0.55301 0.60909 0.0
Zn75 Zn 0.57352 0.52562 0.58087 0.0
O76 O 0.59664 0.54272 0.5565 0.0
O77 O 0.57405 0.5604 0.56594 0.0
O78 O 0.53691 0.51073 0.56271 0.0
O79 O 0.51623 0.52712 0.57951 0.0
O80 O 0.54624 0.50589 0.61024 0.0
O81 O 0.57235 0.4959 0.59382 0.0
C82 C 0.59082 0.55986 0.55339 0.0
C83 C 0.55584 0.49144 0.60879 0.0
H84 H 0.2659 0.40177 0.45766 0.0
H85 H 0.10844 0.35115 0.22427 0.0
H86 H 0.3111 0.44174 0.32908 0.0
H87 H 0.34423 0.45499 0.36025 0.0
H88 H 0.32748 0.37772 0.36654 0.0
H89 H 0.2945 0.36465 0.33475 0.0
H90 H 0.26605 0.42475 0.35862 0.0
H91 H 0.26787 0.42249 0.40123 0.0
H92 H 0.24446 0.3431 0.39505 0.0
H93 H 0.24281 0.34571 0.35243 0.0
H94 H 0.22502 0.42323 0.32169 0.0
H95 H 0.19238 0.42447 0.34405 0.0
H96 H 0.16035 0.34514 0.35892 0.0
H97 H 0.19317 0.34398 0.33584 0.0
H98 H 0.22511 0.4248 0.27327 0.0
H99 H 0.1878 0.42049 0.25091 0.0
H100 H 0.15096 0.33909 0.25589 0.0
H101 H 0.18859 0.34368 0.27799 0.0
H102 H 0.28024 0.44223 0.26417 0.0
H103 H 0.27261 0.45824 0.22758 0.0
H104 H 0.2241 0.38173 0.20126 0.0
H105 H 0.23207 0.36559 0.2381 0.0
H106 H 0.31868 0.44449 0.28706 0.0
H107 H 0.35508 0.45696 0.26263 0.0
H108 H 0.32389 0.37889 0.2406 0.0
H109 H 0.28767 0.36658 0.26532 0.0
O110 O 0.26484 0.40219 0.4408 0.0
O111 O 0.25247 0.36137 0.43668 0.0
O112 O 0.14335 0.39533 0.23079 0.0
O113 O 0.12341 0.3534 0.23315 0.0
C114 C 0.27681 0.39411 0.31511 0.0
C115 C 0.25419 0.38709 0.32677 0.0
C116 C 0.23228 0.38404 0.31424 0.0
C117 C 0.23261 0.38705 0.28988 0.0
C118 C 0.2552 0.39406 0.27812 0.0
C119 C 0.27725 0.39735 0.29073 0.0
C120 C 0.30074 0.40233 0.32937 0.0
C121 C 0.31532 0.42784 0.33646 0.0
C122 C 0.33392 0.43529 0.35455 0.0
C123 C 0.33816 0.41732 0.36602 0.0
C124 C 0.32468 0.39198 0.35791 0.0
C125 C 0.30597 0.38451 0.33972 0.0
C126 C 0.25428 0.38538 0.35257 0.0
C127 C 0.26122 0.40689 0.36656 0.0
C128 C 0.26228 0.40554 0.39086 0.0
C129 C 0.25633 0.38262 0.40155 0.0
C130 C 0.24916 0.36104 0.38738 0.0
C131 C 0.24815 0.36245 0.36307 0.0
C132 C 0.21135 0.38352 0.32711 0.0
C133 C 0.2108 0.40604 0.32956 0.0
C134 C 0.19228 0.40674 0.34249 0.0
C135 C 0.17398 0.38495 0.35343 0.0
C136 C 0.17417 0.36217 0.35059 0.0
C137 C 0.19288 0.36149 0.33755 0.0
C138 C 0.20964 0.38452 0.27696 0.0
C139 C 0.20901 0.40605 0.26939 0.0
C140 C 0.18766 0.40354 0.25669 0.0
C141 C 0.16643 0.37942 0.25152 0.0
C142 C 0.167 0.35792 0.2595 0.0
C143 C 0.18843 0.36048 0.27214 0.0
C144 C 0.25685 0.40275 0.25376 0.0
C145 C 0.26909 0.42887 0.25011 0.0
C146 C 0.26451 0.43801 0.22932 0.0
C147 C 0.24767 0.42116 0.21183 0.0
C148 C 0.23732 0.39501 0.21451 0.0
C149 C 0.24188 0.38581 0.23545 0.0
C150 C 0.30072 0.40459 0.27817 0.0
C151 C 0.32001 0.43003 0.27738 0.0
C152 C 0.34061 0.43714 0.2632 0.0
C153 C 0.34229 0.41891 0.24963 0.0
C154 C 0.32327 0.39332 0.25103 0.0
C155 C 0.30258 0.38626 0.2651 0.0
C156 C 0.25772 0.38131 0.42738 0.0
C157 C 0.14376 0.37664 0.23787 0.0
H158 H 0.89647 0.23573 0.97179 0.0
H159 H 0.75328 0.03288 0.78415 0.0
H160 H 0.89671 0.2511 0.84618 0.0
H161 H 0.93062 0.2924 0.86072 0.0
H162 H 0.98701 0.27219 0.84363 0.0
H163 H 0.95262 0.2307 0.82863 0.0
H164 H 0.8588 0.20911 0.87446 0.0
H165 H 0.86843 0.22122 0.9159 0.0
H166 H 0.9341 0.21117 0.91442 0.0
H167 H 0.92406 0.19881 0.87304 0.0
H168 H 0.81508 0.1649 0.84066 0.0
H169 H 0.78363 0.14078 0.86931 0.0
H170 H 0.8369 0.12264 0.90403 0.0
H171 H 0.86824 0.14628 0.87464 0.0
H172 H 0.81425 0.15908 0.79111 0.0
H173 H 0.77681 0.11902 0.7781 0.0
H174 H 0.81206 0.0784 0.80822 0.0
H175 H 0.84958 0.11864 0.82081 0.0
H176 H 0.85668 0.20664 0.76847 0.0
H177 H 0.83549 0.19198 0.72987 0.0
H178 H 0.85181 0.13073 0.73173 0.0
H179 H 0.87289 0.14553 0.77054 0.0
H180 H 0.90177 0.25258 0.79596 0.0
H181 H 0.92758 0.28223 0.76642 0.0
H182 H 0.94987 0.22917 0.74324 0.0
H183 H 0.92468 0.19985 0.77351 0.0
O184 O 0.89293 0.23076 0.95543 0.0
O185 O 0.92652 0.22541 0.95372 0.0
O186 O 0.75075 0.07081 0.77359 0.0
O187 O 0.76788 0.049 0.78904 0.0
C188 C 0.90108 0.21248 0.82887 0.0
C189 C 0.88491 0.19575 0.8456 0.0
C190 C 0.86295 0.17279 0.83826 0.0
C191 C 0.85771 0.16612 0.81426 0.0
C192 C 0.87388 0.18286 0.79751 0.0
C193 C 0.89555 0.20609 0.80481 0.0
C194 C 0.92222 0.23785 0.83664 0.0
C195 C 0.91638 0.25558 0.84557 0.0
C196 C 0.93579 0.27912 0.85394 0.0
C197 C 0.9615 0.28541 0.85365 0.0
C198 C 0.96739 0.26788 0.84403 0.0
C199 C 0.94784 0.24421 0.83557 0.0
C200 C 0.89061 0.20288 0.87083 0.0
C201 C 0.87513 0.20935 0.88318 0.0
C202 C 0.88074 0.21635 0.90682 0.0
C203 C 0.90202 0.21713 0.91849 0.0
C204 C 0.91754 0.21073 0.90598 0.0
C205 C 0.91187 0.20367 0.88236 0.0
C206 C 0.84385 0.15712 0.8554 0.0
C207 C 0.81981 0.15529 0.85414 0.0
C208 C 0.80189 0.14154 0.87051 0.0
C209 C 0.80781 0.12973 0.88875 0.0
C210 C 0.83191 0.13159 0.8901 0.0
C211 C 0.84975 0.14503 0.87339 0.0
C212 C 0.83474 0.14176 0.80667 0.0
C213 C 0.81393 0.14152 0.79472 0.0
C214 C 0.79252 0.11861 0.78739 0.0
C215 C 0.79147 0.09549 0.79207 0.0
C216 C 0.81227 0.09584 0.80428 0.0
C217 C 0.83371 0.11878 0.81152 0.0
C218 C 0.86621 0.17708 0.77233 0.0
C219 C 0.8564 0.19054 0.76022 0.0
C220 C 0.84429 0.18211 0.73815 0.0
C221 C 0.84172 0.16002 0.72785 0.0
C222 C 0.85315 0.14759 0.73938 0.0
C223 C 0.86535 0.15609 0.76144 0.0
C224 C 0.91166 0.22422 0.78714 0.0
C225 C 0.91265 0.24756 0.78487 0.0
C226 C 0.92733 0.26443 0.76798 0.0
C227 C 0.9408 0.258 0.75271 0.0
C228 C 0.93963 0.23453 0.75484 0.0
C229 C 0.92531 0.21783 0.77206 0.0
C230 C 0.90798 0.22466 0.94359 0.0
C231 C 0.76877 0.07109 0.78431 0.0
H232 H 0.71859 0.80203 0.15825 0.0
H233 H 0.73363 0.97344 0.3613 0.0
H234 H 0.67422 0.76885 0.27583 0.0
H235 H 0.66798 0.72884 0.26063 0.0
H236 H 0.7378 0.74293 0.29752 0.0
H237 H 0.74448 0.78383 0.3118 0.0
H238 H 0.68323 0.80808 0.25 0.0
H239 H 0.69077 0.80344 0.20924 0.0
H240 H 0.76923 0.8263 0.2288 0.0
H241 H 0.76145 0.83111 0.26952 0.0
H242 H 0.67406 0.83792 0.27353 0.0
H243 H 0.66828 0.8666 0.24775 0.0
H244 H 0.74941 0.91962 0.25372 0.0
H245 H 0.7551 0.89026 0.27944 0.0
H246 H 0.67289 0.85158 0.3278 0.0
H247 H 0.67138 0.88858 0.34199 0.0
H248 H 0.75375 0.93308 0.34164 0.0
H249 H 0.75494 0.89583 0.32765 0.0
H250 H 0.66549 0.80532 0.35473 0.0
H251 H 0.65419 0.81736 0.391 0.0
H252 H 0.73346 0.87348 0.40563 0.0
H253 H 0.74456 0.86129 0.36918 0.0
H254 H 0.66489 0.76335 0.328 0.0
H255 H 0.65184 0.72942 0.35614 0.0
H256 H 0.72651 0.76993 0.39134 0.0
H257 H 0.73948 0.80385 0.36292 0.0
O258 O 0.71606 0.80409 0.17447 0.0
O259 O 0.7562 0.81587 0.18544 0.0
O260 O 0.69136 0.9348 0.3556 0.0
O261 O 0.73366 0.95856 0.35558 0.0
C262 C 0.71345 0.80386 0.30334 0.0
C263 C 0.71744 0.82303 0.2874 0.0
C264 C 0.71729 0.84488 0.29508 0.0
C265 C 0.71491 0.84841 0.31891 0.0
C266 C 0.71139 0.82952 0.33499 0.0
C267 C 0.71017 0.80702 0.32713 0.0
C268 C 0.70998 0.7794 0.29461 0.0
C269 C 0.68833 0.76344 0.28041 0.0
C270 C 0.68462 0.74038 0.27203 0.0
C271 C 0.70231 0.73252 0.27797 0.0
C272 C 0.72395 0.74851 0.29242 0.0
C273 C 0.72774 0.77178 0.30069 0.0
C274 C 0.72189 0.82025 0.26263 0.0
C275 C 0.7021 0.81235 0.24541 0.0
C276 C 0.70643 0.80958 0.22215 0.0
C277 C 0.73063 0.81457 0.21574 0.0
C278 C 0.75039 0.82236 0.23313 0.0
C279 C 0.74601 0.82514 0.25638 0.0
C280 C 0.71503 0.86184 0.27792 0.0
C281 C 0.69067 0.85546 0.26885 0.0
C282 C 0.68742 0.87186 0.25417 0.0
C283 C 0.70844 0.89521 0.24858 0.0
C284 C 0.73292 0.90169 0.25774 0.0
C285 C 0.73622 0.88497 0.27225 0.0
C286 C 0.71402 0.8711 0.32677 0.0
C287 C 0.69056 0.86936 0.33079 0.0
C288 C 0.68977 0.89051 0.33889 0.0
C289 C 0.71247 0.9138 0.34299 0.0
C290 C 0.73593 0.91545 0.33869 0.0
C291 C 0.73668 0.89426 0.33065 0.0
C292 C 0.70584 0.83241 0.35938 0.0
C293 C 0.68053 0.81954 0.36621 0.0
C294 C 0.67411 0.8265 0.38692 0.0
C295 C 0.69291 0.84657 0.40104 0.0
C296 C 0.71853 0.85818 0.39494 0.0
C297 C 0.72494 0.85112 0.37427 0.0
C298 C 0.70313 0.78594 0.34342 0.0
C299 C 0.6785 0.76474 0.34163 0.0
C300 C 0.67105 0.74551 0.35778 0.0
C301 C 0.68815 0.74713 0.37596 0.0
C302 C 0.71304 0.76814 0.37739 0.0
C303 C 0.72043 0.78751 0.36129 0.0
C304 C 0.73517 0.81158 0.19101 0.0
C305 C 0.71175 0.93628 0.35176 0.0
H306 H 0.8256 0.65638 0.6576 0.0
H307 H 0.97678 0.56218 0.80157 0.0
H308 H 0.84946 0.6682 0.78298 0.0
H309 H 0.81392 0.67498 0.77185 0.0
H310 H 0.76054 0.59916 0.79286 0.0
H311 H 0.79618 0.59253 0.80387 0.0
H312 H 0.88128 0.65821 0.74414 0.0
H313 H 0.86463 0.66376 0.70633 0.0
H314 H 0.79254 0.59582 0.71679 0.0
H315 H 0.80957 0.5903 0.75438 0.0
H316 H 0.92219 0.63987 0.75626 0.0
H317 H 0.93603 0.62507 0.72318 0.0
H318 H 0.86109 0.55834 0.71594 0.0
H319 H 0.84751 0.57328 0.74885 0.0
H320 H 0.93629 0.6451 0.81101 0.0
H321 H 0.97096 0.63555 0.81433 0.0
H322 H 0.91801 0.55808 0.79233 0.0
H323 H 0.88346 0.56784 0.7894 0.0
H324 H 0.909 0.65345 0.84916 0.0
H325 H 0.93375 0.64986 0.88245 0.0
H326 H 0.89254 0.56855 0.87268 0.0
H327 H 0.86813 0.57234 0.83938 0.0
H328 H 0.85075 0.6576 0.84017 0.0
H329 H 0.82289 0.65212 0.87219 0.0
H330 H 0.80103 0.5731 0.875 0.0
H331 H 0.82789 0.5785 0.84261 0.0
O332 O 0.83187 0.65371 0.67251 0.0
O333 O 0.7951 0.61881 0.67885 0.0
O334 O 0.98981 0.60645 0.81185 0.0
O335 O 0.96343 0.56647 0.8004 0.0
C336 C 0.8464 0.62408 0.79595 0.0
C337 C 0.85663 0.6211 0.77523 0.0
C338 C 0.87606 0.61479 0.7765 0.0
C339 C 0.88637 0.61298 0.79847 0.0
C340 C 0.87601 0.61572 0.81914 0.0
C341 C 0.85543 0.62042 0.81791 0.0
C342 C 0.82536 0.62986 0.79412 0.0
C343 C 0.8301 0.65333 0.78576 0.0
C344 C 0.80982 0.65712 0.77933 0.0
C345 C 0.78448 0.63752 0.78129 0.0
C346 C 0.77986 0.61469 0.79135 0.0
C347 C 0.80018 0.61085 0.79764 0.0
C348 C 0.84657 0.62398 0.75205 0.0
C349 C 0.86194 0.6445 0.73817 0.0
C350 C 0.85235 0.64765 0.71662 0.0
C351 C 0.82721 0.63029 0.70857 0.0
C352 C 0.81195 0.60959 0.72249 0.0
C353 C 0.8216 0.60642 0.74399 0.0
C354 C 0.88388 0.60762 0.75494 0.0
C355 C 0.90873 0.62223 0.74729 0.0
C356 C 0.91659 0.6137 0.72849 0.0
C357 C 0.89966 0.59048 0.717 0.0
C358 C 0.87449 0.57644 0.72419 0.0
C359 C 0.86671 0.58491 0.74303 0.0
C360 C 0.90743 0.60718 0.79992 0.0
C361 C 0.93224 0.62609 0.80694 0.0
C362 C 0.952 0.62058 0.8088 0.0
C363 C 0.94726 0.59604 0.80357 0.0
C364 C 0.92233 0.57716 0.79647 0.0
C365 C 0.90257 0.58269 0.79471 0.0
C366 C 0.88676 0.61315 0.84198 0.0
C367 C 0.90485 0.63486 0.85467 0.0
C368 C 0.91907 0.63279 0.8735 0.0
C369 C 0.9151 0.60894 0.88004 0.0
C370 C 0.8958 0.58713 0.86817 0.0
C371 C 0.88185 0.58925 0.84919 0.0
C372 C 0.84142 0.61847 0.83912 0.0
C373 C 0.8401 0.63921 0.84791 0.0
C374 C 0.82426 0.63605 0.86622 0.0
C375 C 0.80951 0.6121 0.87595 0.0
C376 C 0.81172 0.59168 0.86761 0.0
C377 C 0.82738 0.59481 0.84932 0.0
C378 C 0.81701 0.63383 0.68578 0.0
C379 C 0.96817 0.59007 0.80555 0.0
H380 H 0.2594 0.84422 0.45671 0.0
H381 H 0.13367 0.63684 0.27141 0.0
H382 H 0.27649 0.86155 0.33597 0.0
H383 H 0.3136 0.89686 0.35664 0.0
H384 H 0.36088 0.86688 0.33519 0.0
H385 H 0.32372 0.83133 0.31534 0.0
H386 H 0.22777 0.81467 0.35859 0.0
H387 H 0.23455 0.82753 0.39988 0.0
H388 H 0.30306 0.82211 0.40369 0.0
H389 H 0.29584 0.8089 0.36249 0.0
H390 H 0.18655 0.76202 0.33351 0.0
H391 H 0.16135 0.7319 0.3633 0.0
H392 H 0.22716 0.72596 0.38558 0.0
H393 H 0.25202 0.75598 0.35603 0.0
H394 H 0.1904 0.76294 0.27508 0.0
H395 H 0.15442 0.72187 0.26192 0.0
H396 H 0.19064 0.68437 0.2967 0.0
H397 H 0.22659 0.72557 0.30954 0.0
H398 H 0.23551 0.80503 0.24598 0.0
H399 H 0.23329 0.79131 0.20522 0.0
H400 H 0.25705 0.73859 0.22819 0.0
H401 H 0.25917 0.75233 0.26871 0.0
H402 H 0.28005 0.85827 0.27687 0.0
H403 H 0.31133 0.88518 0.24874 0.0
H404 H 0.33477 0.82948 0.2415 0.0
H405 H 0.30392 0.80303 0.26981 0.0
O406 O 0.257 0.83895 0.44044 0.0
O407 O 0.29221 0.83613 0.44141 0.0
O408 O 0.12993 0.67353 0.25864 0.0
O409 O 0.14767 0.65332 0.27633 0.0
C410 C 0.27434 0.81989 0.31591 0.0
C411 C 0.2573 0.80352 0.33236 0.0
C412 C 0.23676 0.77957 0.32504 0.0
C413 C 0.23275 0.7722 0.3012 0.0
C414 C 0.24987 0.78843 0.2848 0.0
C415 C 0.27071 0.81223 0.29215 0.0
C416 C 0.29738 0.84383 0.32419 0.0
C417 C 0.29498 0.86294 0.33533 0.0
C418 C 0.31612 0.88302 0.34712 0.0
C419 C 0.34004 0.88453 0.3475 0.0
C420 C 0.34273 0.86635 0.33492 0.0
C421 C 0.32153 0.84605 0.32353 0.0
C422 C 0.26141 0.81104 0.35753 0.0
C423 C 0.24418 0.8162 0.36841 0.0
C424 C 0.24813 0.82359 0.39197 0.0
C425 C 0.2694 0.82593 0.40507 0.0
C426 C 0.28653 0.82055 0.3941 0.0
C427 C 0.2825 0.81308 0.37057 0.0
C428 C 0.22111 0.76127 0.34277 0.0
C429 C 0.19542 0.75416 0.34487 0.0
C430 C 0.1811 0.73696 0.36182 0.0
C431 C 0.19235 0.72674 0.37693 0.0
C432 C 0.21808 0.73387 0.37457 0.0
C433 C 0.23227 0.75092 0.35763 0.0
C434 C 0.21097 0.74719 0.29338 0.0
C435 C 0.1905 0.74582 0.27982 0.0
C436 C 0.16999 0.72235 0.27235 0.0
C437 C 0.16962 0.69982 0.27831 0.0
C438 C 0.19027 0.70133 0.29185 0.0
C439 C 0.21079 0.72482 0.29927 0.0
C440 C 0.24733 0.77954 0.26023 0.0
C441 C 0.24009 0.79044 0.24214 0.0
C442 C 0.23886 0.78262 0.21896 0.0
C443 C 0.24519 0.76404 0.21359 0.0
C444 C 0.25241 0.75319 0.23181 0.0
C445 C 0.25336 0.7608 0.25493 0.0
C446 C 0.28951 0.82857 0.27512 0.0
C447 C 0.29197 0.85195 0.26918 0.0
C448 C 0.30982 0.86726 0.25319 0.0
C449 C 0.32527 0.85927 0.24281 0.0
C450 C 0.32278 0.83588 0.2489 0.0
C451 C 0.30519 0.82077 0.26504 0.0
C452 C 0.27364 0.83396 0.43006 0.0
C453 C 0.14785 0.67483 0.27046 0.0
H454 H 0.48847 0.21965 0.65538 0.0
H455 H 0.4397 0.04375 0.85586 0.0
H456 H 0.52147 0.25542 0.78242 0.0
H457 H 0.52896 0.2935 0.76197 0.0
H458 H 0.45194 0.27579 0.77413 0.0
H459 H 0.44469 0.23765 0.79496 0.0
H460 H 0.50917 0.207 0.75353 0.0
H461 H 0.50741 0.21289 0.71142 0.0
H462 H 0.43332 0.20629 0.71641 0.0
H463 H 0.43521 0.20013 0.75846 0.0
H464 H 0.50732 0.16371 0.7886 0.0
H465 H 0.50696 0.13334 0.76067 0.0
H466 H 0.4332 0.11768 0.73225 0.0
H467 H 0.43318 0.14751 0.76102 0.0
H468 H 0.51033 0.16806 0.83976 0.0
H469 H 0.50661 0.12889 0.85474 0.0
H470 H 0.42724 0.08802 0.83039 0.0
H471 H 0.43115 0.12737 0.81573 0.0
H472 H 0.52116 0.22384 0.85931 0.0
H473 H 0.53089 0.21939 0.89998 0.0
H474 H 0.45532 0.15392 0.90415 0.0
H475 H 0.44498 0.16037 0.86413 0.0
H476 H 0.52167 0.26384 0.82911 0.0
H477 H 0.53143 0.29624 0.85917 0.0
H478 H 0.45839 0.24808 0.88839 0.0
H479 H 0.44819 0.21607 0.8576 0.0
O480 O 0.48873 0.21719 0.67204 0.0
O481 O 0.45076 0.21381 0.67558 0.0
O482 O 0.48254 0.08143 0.86247 0.0
O483 O 0.44169 0.05953 0.85016 0.0
C484 C 0.47766 0.21955 0.80006 0.0
C485 C 0.47346 0.19969 0.78458 0.0
C486 C 0.47143 0.17718 0.79337 0.0
C487 C 0.47314 0.17436 0.81774 0.0
C488 C 0.47743 0.19428 0.83329 0.0
C489 C 0.47937 0.21682 0.82443 0.0
C490 C 0.48264 0.24398 0.7903 0.0
C491 C 0.5064 0.26006 0.78109 0.0
C492 C 0.51064 0.28177 0.76946 0.0
C493 C 0.49103 0.28758 0.76653 0.0
C494 C 0.46733 0.27166 0.77614 0.0
C495 C 0.46322 0.25006 0.78812 0.0
C496 C 0.47228 0.20304 0.75898 0.0
C497 C 0.49253 0.2067 0.74545 0.0
C498 C 0.4915 0.21012 0.72142 0.0
C499 C 0.47022 0.21006 0.71054 0.0
C500 C 0.44998 0.20643 0.72422 0.0
C501 C 0.45101 0.20294 0.74823 0.0
C502 C 0.47019 0.15768 0.777 0.0
C503 C 0.49081 0.15332 0.77673 0.0
C504 C 0.49059 0.13602 0.76076 0.0
C505 C 0.46999 0.12312 0.74443 0.0
C506 C 0.44929 0.12742 0.74469 0.0
C507 C 0.44928 0.1444 0.76105 0.0
C508 C 0.47095 0.15058 0.82683 0.0
C509 C 0.49212 0.15066 0.83782 0.0
C510 C 0.48996 0.12825 0.84629 0.0
C511 C 0.4666 0.10531 0.84379 0.0
C512 C 0.44548 0.10533 0.83263 0.0
C513 C 0.44766 0.12776 0.82422 0.0
C514 C 0.48235 0.19244 0.85867 0.0
C515 C 0.50645 0.20901 0.86923 0.0
C516 C 0.51212 0.20612 0.89245 0.0
C517 C 0.49411 0.18598 0.90546 0.0
C518 C 0.46966 0.16986 0.89497 0.0
C519 C 0.46375 0.17328 0.87192 0.0
C520 C 0.48402 0.23771 0.84086 0.0
C521 C 0.50735 0.26062 0.84142 0.0
C522 C 0.51301 0.27901 0.85872 0.0
C523 C 0.49566 0.27457 0.87607 0.0
C524 C 0.4721 0.25187 0.87525 0.0
C525 C 0.46623 0.23368 0.85765 0.0
C526 C 0.46922 0.21379 0.68502 0.0
C527 C 0.4642 0.08144 0.85273 0.0
C528 C 0.17006 0.5077 0.05527 0.0
C529 C 0.15206 0.5133 0.06398 0.0
C530 C 0.1814 0.49726 0.06973 0.0
C531 C 0.19988 0.49563 0.13012 0.0
H532 H 0.19659 0.43214 0.11495 0.0
C533 C 0.22505 0.44382 0.19949 0.0
C534 C 0.2376 0.43086 0.1932 0.0
C535 C 0.2156 0.45363 0.18247 0.0
C536 C 0.1981 0.45012 0.11928 0.0
H537 H 0.13184 0.5124 0.09458 0.0
H538 H 0.1522 0.49482 0.11996 0.0
H539 H 0.17851 0.45009 0.08715 0.0
H540 H 0.24975 0.41734 0.16436 0.0
H541 H 0.23395 0.43539 0.13421 0.0
H542 H 0.21987 0.49628 0.16186 0.0
C543 C 0.1573 0.4983 0.10191 0.0
C544 C 0.18765 0.46028 0.1034 0.0
C545 C 0.1456 0.50825 0.08737 0.0
C546 C 0.2402 0.42741 0.16951 0.0
C547 C 0.23104 0.43763 0.15235 0.0
C548 C 0.21068 0.48575 0.14577 0.0
C549 C 0.17531 0.49276 0.09322 0.0
C550 C 0.18801 0.48284 0.10896 0.0
C551 C 0.21884 0.45109 0.15868 0.0
C552 C 0.20938 0.46255 0.14085 0.0
H553 H 0.1753 0.51128 0.03726 0.0
H554 H 0.19531 0.49319 0.06271 0.0
H555 H 0.20076 0.51329 0.13459 0.0
H556 H 0.22239 0.44621 0.21769 0.0
H557 H 0.2056 0.46309 0.18804 0.0
C558 C 0.65874 0.04075 0.59683 0.0
C559 C 0.65303 0.05264 0.57848 0.0
C560 C 0.68197 0.05355 0.60969 0.0
C561 C 0.73334 0.11694 0.62737 0.0
H562 H 0.76908 0.08136 0.6457 0.0
C563 C 0.82452 0.16368 0.68821 0.0
C564 C 0.82483 0.14854 0.70656 0.0
C565 C 0.80648 0.15302 0.6695 0.0
C566 C 0.75929 0.09153 0.6408 0.0
H567 H 0.66731 0.08736 0.55922 0.0
H568 H 0.70801 0.10987 0.58193 0.0
H569 H 0.73166 0.06088 0.61879 0.0
H570 H 0.80658 0.1103 0.71949 0.0
H571 H 0.77531 0.09178 0.68699 0.0
H572 H 0.76046 0.14729 0.64997 0.0
C573 C 0.69438 0.0906 0.58629 0.0
C574 C 0.73788 0.07981 0.62538 0.0
C575 C 0.67114 0.07769 0.57327 0.0
C576 C 0.80724 0.12242 0.70542 0.0
C577 C 0.78925 0.11179 0.68676 0.0
C578 C 0.75474 0.12866 0.64289 0.0
C579 C 0.70005 0.0786 0.60459 0.0
C580 C 0.72435 0.09217 0.6189 0.0
C581 C 0.78838 0.12701 0.66875 0.0
C582 C 0.76762 0.11586 0.65017 0.0
H583 H 0.64526 0.02148 0.60133 0.0
H584 H 0.6856 0.04393 0.62392 0.0
H585 H 0.72319 0.12686 0.62284 0.0
H586 H 0.83798 0.18384 0.6885 0.0
H587 H 0.80651 0.16519 0.65575 0.0
C588 C 0.65616 0.54828 0.15555 0.0
C589 C 0.63305 0.54377 0.1445 0.0
C590 C 0.66727 0.56584 0.17425 0.0
C591 C 0.65417 0.59514 0.22181 0.0
H592 H 0.71247 0.65997 0.20771 0.0
C593 C 0.67326 0.68685 0.26655 0.0
C594 C 0.69808 0.70789 0.26871 0.0
C595 C 0.66865 0.6645 0.25555 0.0
C596 C 0.69666 0.64186 0.21236 0.0
H597 H 0.6029 0.55303 0.14478 0.0
H598 H 0.62181 0.58286 0.17788 0.0
H599 H 0.6984 0.62391 0.18087 0.0
H600 H 0.73778 0.72134 0.26207 0.0
H601 H 0.72987 0.68191 0.24363 0.0
H602 H 0.65202 0.61279 0.2531 0.0
C603 C 0.6315 0.57321 0.17188 0.0
C604 C 0.6886 0.62125 0.1969 0.0
C605 C 0.6208 0.55629 0.15291 0.0
C606 C 0.71842 0.7055 0.26074 0.0
C607 C 0.71383 0.68296 0.2499 0.0
C608 C 0.66248 0.61556 0.2375 0.0
C609 C 0.65494 0.57838 0.18248 0.0
C610 C 0.66678 0.59805 0.20113 0.0
C611 C 0.68879 0.66235 0.24667 0.0
C612 C 0.68316 0.6395 0.23249 0.0
H613 H 0.66598 0.5389 0.14928 0.0
H614 H 0.68546 0.56973 0.18218 0.0
H615 H 0.63728 0.57733 0.22537 0.0
H616 H 0.65719 0.6878 0.27293 0.0
H617 H 0.64905 0.64929 0.25318 0.0
C618 C 0.96013 0.48514 0.56944 0.0
C619 C 0.98457 0.48914 0.57577 0.0
C620 C 0.94837 0.4945 0.58376 0.0
C621 C 0.95075 0.516 0.6445 0.0
H622 H 0.9204 0.55396 0.61845 0.0
C623 C 0.93222 0.58098 0.70203 0.0
C624 C 0.90861 0.57993 0.69875 0.0
C625 C 0.93976 0.56909 0.68604 0.0
C626 C 0.92854 0.54315 0.62594 0.0
H627 H 0.01572 0.50598 0.60216 0.0
H628 H 0.99541 0.52214 0.62678 0.0
H629 H 0.93567 0.53324 0.59233 0.0
H630 H 0.87482 0.56641 0.67565 0.0
H631 H 0.88798 0.54542 0.64772 0.0
H632 H 0.94405 0.52608 0.67804 0.0
C633 C 0.98515 0.51163 0.61097 0.0
C634 C 0.93721 0.53124 0.611 0.0
C635 C 0.99687 0.50248 0.5967 0.0
C636 C 0.89303 0.56734 0.67874 0.0
C637 C 0.90063 0.55549 0.66267 0.0
C638 C 0.94215 0.52786 0.65937 0.0
C639 C 0.96078 0.50775 0.60473 0.0
C640 C 0.9489 0.518 0.62017 0.0
C641 C 0.92389 0.55587 0.66639 0.0
C642 C 0.93143 0.54201 0.6503 0.0
H643 H 0.95019 0.47498 0.55339 0.0
H644 H 0.92952 0.49117 0.57857 0.0
H645 H 0.95919 0.50548 0.65208 0.0
H646 H 0.94454 0.59028 0.71737 0.0
H647 H 0.95798 0.57006 0.68919 0.0
C648 C 0.51043 0.0032 0.13456 0.0
C649 C 0.51424 0.99311 0.1141 0.0
C650 C 0.48834 0.9892 0.14684 0.0
C651 C 0.43888 0.92385 0.15685 0.0
H652 H 0.40247 0.95456 0.18277 0.0
C653 C 0.34688 0.86467 0.20531 0.0
C654 C 0.34437 0.87537 0.22598 0.0
C655 C 0.36599 0.87941 0.19015 0.0
C656 C 0.41256 0.94577 0.17582 0.0
H657 H 0.49763 0.96055 0.09029 0.0
H658 H 0.45912 0.93611 0.11179 0.0
H659 H 0.4391 0.97973 0.15912 0.0
H660 H 0.35954 0.90992 0.24685 0.0
H661 H 0.39324 0.93566 0.22057 0.0
H662 H 0.41288 0.8901 0.17389 0.0
C663 C 0.47332 0.9548 0.11838 0.0
C664 C 0.4335 0.96017 0.16226 0.0
C665 C 0.49533 0.96885 0.10602 0.0
C666 C 0.36092 0.90126 0.23091 0.0
C667 C 0.38017 0.91598 0.21583 0.0
C668 C 0.41807 0.9095 0.17049 0.0
C669 C 0.46968 0.96476 0.13899 0.0
C670 C 0.44692 0.94937 0.15271 0.0
C671 C 0.38315 0.90514 0.19542 0.0
C672 C 0.4047 0.9203 0.18022 0.0
H673 H 0.5246 0.02186 0.14123 0.0
H674 H 0.48617 0.99727 0.16279 0.0
H675 H 0.44911 0.91512 0.15004 0.0
H676 H 0.33409 0.84484 0.2009 0.0
H677 H 0.3674 0.87058 0.17435 0.0
C678 C 0.55523 0.45186 0.62175 0.0
C679 C 0.54791 0.47011 0.62489 0.0
C680 C 0.5478 0.43194 0.63726 0.0
C681 C 0.52845 0.41455 0.69726 0.0
H682 H 0.50151 0.34561 0.67441 0.0
C683 C 0.51761 0.33291 0.75564 0.0
C684 C 0.49511 0.30939 0.75228 0.0
C685 C 0.52267 0.3528 0.74072 0.0
C686 C 0.50882 0.36475 0.68103 0.0
H687 H 0.52708 0.48177 0.64677 0.0
H688 H 0.51435 0.44718 0.67381 0.0
H689 H 0.51335 0.37967 0.64663 0.0
H690 H 0.46008 0.2883 0.73097 0.0
H691 H 0.46897 0.32315 0.7048 0.0
H692 H 0.52409 0.39967 0.73166 0.0
C693 C 0.52584 0.44829 0.65941 0.0
C694 C 0.51584 0.38425 0.66515 0.0
C695 C 0.53303 0.46802 0.64383 0.0
C696 C 0.47746 0.30632 0.73406 0.0
C697 C 0.48267 0.32614 0.71897 0.0
C698 C 0.52168 0.3951 0.71314 0.0
C699 C 0.53317 0.43007 0.65632 0.0
C700 C 0.52572 0.40934 0.67311 0.0
C701 C 0.50547 0.34948 0.72199 0.0
C702 C 0.51182 0.37001 0.70518 0.0
H703 H 0.56668 0.45294 0.60733 0.0
H704 H 0.55388 0.41824 0.63457 0.0
H705 H 0.53619 0.43375 0.70389 0.0
H706 H 0.53147 0.33578 0.76961 0.0
H707 H 0.54047 0.37053 0.74338 0.0
C708 C 0.6231 0.96561 0.51181 0.0
C709 C 0.60325 0.95362 0.52724 0.0
C710 C 0.63369 0.95243 0.50175 0.0
C711 C 0.61966 0.88904 0.48475 0.0
H712 H 0.69306 0.92177 0.48004 0.0
C713 C 0.66634 0.84142 0.43539 0.0
C714 C 0.68537 0.85725 0.42034 0.0
C715 C 0.65747 0.8517 0.45187 0.0
C716 C 0.67252 0.9124 0.4811 0.0
H717 H 0.57887 0.91828 0.54417 0.0
H718 H 0.59728 0.89506 0.52623 0.0
H719 H 0.67492 0.9425 0.50218 0.0
H720 H 0.71002 0.89626 0.41082 0.0
H721 H 0.69459 0.9141 0.43933 0.0
H722 H 0.61715 0.85938 0.46295 0.0
C723 C 0.60461 0.91474 0.52205 0.0
C724 C 0.66215 0.92426 0.49382 0.0
C725 C 0.59415 0.92805 0.53234 0.0
C726 C 0.69576 0.88357 0.4225 0.0
C727 C 0.68687 0.89381 0.43887 0.0
C728 C 0.63003 0.87723 0.47187 0.0
C729 C 0.62457 0.92686 0.50672 0.0
C730 C 0.6356 0.91296 0.49536 0.0
C731 C 0.66738 0.87801 0.45356 0.0
C732 C 0.65656 0.88903 0.46948 0.0
H733 H 0.63059 0.98529 0.50752 0.0
H734 H 0.6488 0.96216 0.48974 0.0
H735 H 0.59911 0.87998 0.48551 0.0
H736 H 0.65809 0.82108 0.43421 0.0
H737 H 0.64267 0.83902 0.46311 0.0
C738 C 0.66921 0.54494 0.03925 0.0
C739 C 0.64885 0.5498 0.03785 0.0
C740 C 0.688 0.55471 0.02288 0.0
C741 C 0.71688 0.60203 0.97711 0.0
H742 H 0.73194 0.55255 0.95129 0.0
C743 C 0.79754 0.62536 0.91276 0.0
C744 C 0.79113 0.60789 0.89415 0.0
C745 C 0.7805 0.62034 0.93046 0.0
C746 C 0.72788 0.56657 0.95824 0.0
H747 H 0.63296 0.56978 0.01874 0.0
H748 H 0.6659 0.58683 0.98996 0.0
H749 H 0.70226 0.54061 0.98241 0.0
H750 H 0.76116 0.57228 0.87877 0.0
H751 H 0.73175 0.56345 0.90965 0.0
H752 H 0.74247 0.62791 0.95255 0.0
C753 C 0.66727 0.57549 0.00385 0.0
C754 C 0.71108 0.55981 0.97625 0.0
C755 C 0.64836 0.56564 0.02028 0.0
C756 C 0.767 0.5858 0.89319 0.0
C757 C 0.7501 0.58076 0.91084 0.0
C758 C 0.73393 0.60888 0.95912 0.0
C759 C 0.68693 0.5696 0.00468 0.0
C760 C 0.70532 0.5774 0.98587 0.0
C761 C 0.7568 0.59773 0.92987 0.0
C762 C 0.7394 0.59112 0.94939 0.0
H763 H 0.67036 0.53303 0.05268 0.0
H764 H 0.70317 0.55022 0.02422 0.0
H765 H 0.71288 0.616 0.98427 0.0
H766 H 0.81601 0.64251 0.91403 0.0
H767 H 0.7862 0.63371 0.94498 0.0
C768 C 0.06437 0.54422 0.49553 0.0
C769 C 0.07658 0.54207 0.51608 0.0
C770 C 0.07615 0.56601 0.48231 0.0
C771 C 0.13975 0.61981 0.47118 0.0
H772 H 0.10085 0.64651 0.43929 0.0
C773 C 0.18861 0.70979 0.41725 0.0
C774 C 0.17744 0.70833 0.39489 0.0
C775 C 0.17555 0.69124 0.43354 0.0
C776 C 0.11192 0.63918 0.448 0.0
H777 H 0.11044 0.56145 0.53921 0.0
H778 H 0.13085 0.59967 0.5163 0.0
H779 H 0.07956 0.611 0.46538 0.0
H780 H 0.14346 0.68668 0.37236 0.0
H781 H 0.12056 0.65425 0.40091 0.0
H782 H 0.17203 0.64782 0.4537 0.0
C783 C 0.11234 0.58429 0.51019 0.0
C784 C 0.09975 0.61883 0.46292 0.0
C785 C 0.1006 0.56243 0.52339 0.0
C786 C 0.15249 0.68844 0.3895 0.0
C787 C 0.13939 0.66987 0.40585 0.0
C788 C 0.15192 0.64019 0.45636 0.0
C789 C 0.10037 0.58623 0.48936 0.0
C790 C 0.11348 0.60876 0.47453 0.0
C791 C 0.15099 0.67083 0.42789 0.0
C792 C 0.13811 0.64998 0.44447 0.0
H793 H 0.04588 0.52886 0.48936 0.0
H794 H 0.06654 0.5667 0.4662 0.0
H795 H 0.15082 0.61226 0.47949 0.0
H796 H 0.20761 0.72517 0.42208 0.0
H797 H 0.18479 0.69275 0.45053 0.0
C798 C 0.53948 0.08497 0.06711 0.0
C799 C 0.56586 0.09535 0.07107 0.0
C800 C 0.52989 0.09828 0.05468 0.0
C801 C 0.54926 0.16035 0.02579 0.0
H802 H 0.4911 0.11729 0.98409 0.0
C803 C 0.5265 0.1857 0.93424 0.0
C804 C 0.50143 0.18072 0.92909 0.0
C805 C 0.533 0.17884 0.95553 0.0
C806 C 0.50708 0.12955 0.9959 0.0
H807 H 0.60301 0.12784 0.06596 0.0
H808 H 0.58658 0.15059 0.04289 0.0
H809 H 0.505 0.09828 0.01411 0.0
H810 H 0.46391 0.16557 0.94318 0.0
H811 H 0.47509 0.15223 0.97983 0.0
H812 H 0.5523 0.19142 0.00581 0.0
C813 C 0.57302 0.13268 0.05011 0.0
C814 C 0.51506 0.11871 0.01329 0.0
C815 C 0.58255 0.11964 0.06323 0.0
C816 C 0.48324 0.16925 0.94619 0.0
C817 C 0.48964 0.16184 0.9673 0.0
C818 C 0.5416 0.17112 0.00797 0.0
C819 C 0.54654 0.12187 0.04511 0.0
C820 C 0.53652 0.13389 0.02831 0.0
C821 C 0.5145 0.16635 0.97199 0.0
C822 C 0.52066 0.15573 0.99272 0.0
H823 H 0.52629 0.06627 0.07324 0.0
H824 H 0.50939 0.08963 0.052 0.0
H825 H 0.56548 0.17278 0.03725 0.0
H826 H 0.54099 0.19391 0.92148 0.0
H827 H 0.5522 0.18212 0.95864 0.0
C828 C 0.49637 0.48309 0.5295 0.0
C829 C 0.49572 0.49969 0.54608 0.0
C830 C 0.47752 0.47216 0.51152 0.0
C831 C 0.43176 0.4835 0.47762 0.0
H832 H 0.40407 0.41413 0.45567 0.0
C833 C 0.35281 0.43992 0.40475 0.0
C834 C 0.35496 0.4248 0.38756 0.0
C835 C 0.36871 0.44756 0.42496 0.0
C836 C 0.41182 0.43361 0.46145 0.0
H837 H 0.47426 0.51717 0.55719 0.0
H838 H 0.44123 0.49796 0.52578 0.0
H839 H 0.43354 0.42979 0.49001 0.0
H840 H 0.37503 0.40533 0.37826 0.0
H841 H 0.40327 0.41903 0.41356 0.0
H842 H 0.4105 0.48756 0.44895 0.0
C843 C 0.45653 0.49365 0.5266 0.0
C844 C 0.42863 0.44256 0.48115 0.0
C845 C 0.47536 0.50452 0.54467 0.0
C846 C 0.37298 0.41698 0.39125 0.0
C847 C 0.38905 0.42475 0.41149 0.0
C848 C 0.41505 0.47461 0.45792 0.0
C849 C 0.45761 0.47762 0.50964 0.0
C850 C 0.43883 0.46763 0.48941 0.0
C851 C 0.38724 0.44034 0.42847 0.0
C852 C 0.40489 0.44957 0.44957 0.0
H853 H 0.51176 0.47891 0.53008 0.0
H854 H 0.47904 0.4601 0.49862 0.0
H855 H 0.43966 0.50305 0.48326 0.0
H856 H 0.33862 0.4457 0.40266 0.0
H857 H 0.36638 0.45904 0.43791 0.0
C858 C 0.08393 0.47406 0.96888 0.0
C859 C 0.10804 0.49435 0.96383 0.0
C860 C 0.07103 0.45336 0.95356 0.0
C861 C 0.07748 0.41608 0.90814 0.0
H862 H 0.0056 0.39318 0.89594 0.0
C863 C 0.00474 0.32501 0.85303 0.0
C864 C 0.98172 0.30997 0.86407 0.0
C865 C 0.02274 0.34897 0.86237 0.0
C866 C 0.02565 0.39935 0.89915 0.0
H867 H 0.13786 0.5084 0.93893 0.0
H868 H 0.11507 0.4716 0.91198 0.0
H869 H 0.03275 0.43312 0.917 0.0
H870 H 0.96038 0.3075 0.89434 0.0
H871 H 0.99141 0.34912 0.91031 0.0
H872 H 0.06992 0.38164 0.89079 0.0
C873 C 0.1063 0.47208 0.92789 0.0
C874 C 0.04118 0.42221 0.91115 0.0
C875 C 0.11926 0.4931 0.94325 0.0
C876 C 0.97756 0.3189 0.88504 0.0
C877 C 0.99535 0.34272 0.89422 0.0
C878 C 0.06182 0.39305 0.89603 0.0
C879 C 0.08186 0.45226 0.93279 0.0
C880 C 0.06701 0.43037 0.91651 0.0
C881 C 0.01787 0.35822 0.88278 0.0
C882 C 0.03557 0.38411 0.89219 0.0
H883 H 0.07471 0.47423 0.98459 0.0
H884 H 0.05242 0.43812 0.95799 0.0
H885 H 0.09736 0.422 0.91208 0.0
H886 H 0.00846 0.31863 0.83683 0.0
H887 H 0.04002 0.36055 0.85326 0.0
C888 C 0.07975 0.58074 0.97899 0.0
C889 C 0.07242 0.56314 0.99696 0.0
C890 C 0.06252 0.58738 0.96905 0.0
C891 C 0.99429 0.56289 0.95831 0.0
H892 H 0.0144 0.63267 0.94577 0.0
C893 C 0.92311 0.58848 0.91478 0.0
C894 C 0.93262 0.60682 0.8975 0.0
C895 C 0.93981 0.58477 0.9296 0.0
C896 C 0.00853 0.61307 0.94895 0.0
H897 H 0.04132 0.53885 0.01874 0.0
H898 H 0.01116 0.55024 0.00114 0.0
H899 H 0.04454 0.62297 0.96615 0.0
H900 H 0.96698 0.63581 0.88224 0.0
H901 H 0.99609 0.62905 0.90766 0.0
H902 H 0.9587 0.55276 0.94043 0.0
C903 C 0.03025 0.55889 0.99479 0.0
C904 C 0.02579 0.60755 0.96068 0.0
C905 C 0.04756 0.55246 0.00491 0.0
C906 C 0.95914 0.62182 0.89569 0.0
C907 C 0.97583 0.61794 0.91031 0.0
C908 C 0.97713 0.56836 0.94637 0.0
C909 C 0.03754 0.57634 0.97671 0.0
C910 C 0.01889 0.58239 0.96531 0.0
C911 C 0.96637 0.5991 0.92723 0.0
C912 C 0.98408 0.59351 0.94135 0.0
H913 H 0.09879 0.58936 0.97252 0.0
H914 H 0.06857 0.60071 0.95499 0.0
H915 H 0.98858 0.54329 0.9614 0.0
H916 H 0.90273 0.57679 0.91663 0.0
H917 H 0.93186 0.57043 0.94272 0.0
C918 C 0.50574 0.97602 0.50233 0.0
C919 C 0.53063 0.99247 0.49553 0.0
C920 C 0.48501 0.96749 0.48626 0.0
C921 C 0.46544 0.97836 0.42667 0.0
H922 H 0.41063 0.90921 0.43313 0.0
C923 C 0.38632 0.91658 0.35554 0.0
C924 C 0.36134 0.90288 0.36325 0.0
C925 C 0.40688 0.93087 0.37141 0.0
C926 C 0.42568 0.92864 0.43126 0.0
H927 H 0.55344 0.01321 0.46669 0.0
H928 H 0.51734 0.99737 0.43819 0.0
H929 H 0.44695 0.92694 0.46104 0.0
H930 H 0.33812 0.89392 0.39337 0.0
H931 H 0.37409 0.91866 0.42113 0.0
H932 H 0.44426 0.97924 0.39601 0.0
C933 C 0.51366 0.99159 0.45611 0.0
C934 C 0.4465 0.93891 0.44733 0.0
C935 C 0.5344 0.00055 0.47239 0.0
C936 C 0.35715 0.90455 0.38692 0.0
C937 C 0.3777 0.9185 0.40281 0.0
C938 C 0.44472 0.96785 0.4103 0.0
C939 C 0.48869 0.97472 0.4628 0.0
C940 C 0.46661 0.96398 0.4454 0.0
C941 C 0.40278 0.9313 0.39528 0.0
C942 C 0.42461 0.94296 0.41259 0.0
H943 H 0.50222 0.9698 0.52017 0.0
H944 H 0.46607 0.95515 0.4923 0.0
H945 H 0.48036 0.9978 0.42474 0.0
H946 H 0.38999 0.91557 0.33736 0.0
H947 H 0.42607 0.9405 0.36524 0.0
C948 C 0.57012 0.41821 0.04863 0.0
C949 C 0.57317 0.44205 0.04345 0.0
C950 C 0.56125 0.39918 0.03124 0.0
C951 C 0.55917 0.39003 0.96831 0.0
H952 H 0.5005 0.32359 0.97683 0.0
C953 C 0.51259 0.31881 0.8913 0.0
C954 C 0.50282 0.29304 0.89564 0.0
C955 C 0.52058 0.33641 0.9098 0.0
C956 C 0.51717 0.34188 0.97425 0.0
H957 H 0.56956 0.46469 0.016 0.0
H958 H 0.55469 0.43172 0.9857 0.0
H959 H 0.51644 0.35507 0.00874 0.0
H960 H 0.49381 0.26538 0.92259 0.0
H961 H 0.50851 0.29612 0.95495 0.0
H962 H 0.56057 0.37698 0.9342 0.0
C963 C 0.55894 0.4277 0.00319 0.0
C964 C 0.52621 0.3599 0.99253 0.0
C965 C 0.56732 0.4465 0.02058 0.0
C966 C 0.50099 0.28514 0.91882 0.0
C967 C 0.50936 0.30278 0.93734 0.0
C968 C 0.55043 0.37194 0.95019 0.0
C969 C 0.55583 0.40388 0.00832 0.0
C970 C 0.5471 0.38422 0.9896 0.0
C971 C 0.51943 0.32871 0.93309 0.0
C972 C 0.5291 0.3477 0.95276 0.0
H973 H 0.57442 0.41423 0.0661 0.0
H974 H 0.55906 0.38095 0.03557 0.0
H975 H 0.57553 0.40858 0.96574 0.0
H976 H 0.51398 0.32531 0.87356 0.0
H977 H 0.52761 0.35607 0.90579 0.0
C978 C 0.02714 0.41686 0.47315 0.0
C979 C 0.04393 0.43698 0.48839 0.0
C980 C 0.03675 0.4081 0.45586 0.0
C981 C 0.09238 0.4298 0.42082 0.0
H982 H 0.07964 0.36091 0.41888 0.0
C983 C 0.16408 0.40752 0.38375 0.0
C984 C 0.15549 0.38671 0.3683 0.0
C985 C 0.14684 0.41096 0.39625 0.0
C986 C 0.083 0.38008 0.41893 0.0
H987 H 0.08385 0.46375 0.49734 0.0
H988 H 0.10034 0.44885 0.46718 0.0
H989 H 0.05483 0.37206 0.44418 0.0
H990 H 0.12215 0.35245 0.35466 0.0
H991 H 0.0917 0.35844 0.37689 0.0
H992 H 0.12092 0.4382 0.39626 0.0
C993 C 0.07985 0.43976 0.46859 0.0
C994 C 0.06881 0.38642 0.43333 0.0
C995 C 0.07036 0.44818 0.48596 0.0
C996 C 0.12928 0.36867 0.36646 0.0
C997 C 0.11189 0.37212 0.3791 0.0
C998 C 0.10639 0.4235 0.40646 0.0
C999 C 0.0632 0.41975 0.45334 0.0
C1000 C 0.07411 0.41156 0.43499 0.0
C1001 C 0.12053 0.39366 0.39367 0.0
C1002 C 0.10257 0.39884 0.40604 0.0
H1003 H 0.00668 0.40782 0.47469 0.0
H1004 H 0.02358 0.39259 0.44427 0.0
H1005 H 0.09653 0.44924 0.42157 0.0
H1006 H 0.18423 0.42139 0.38599 0.0
H1007 H 0.15415 0.42736 0.40787 0.0
C1008 C 0.65697 0.06955 0.04344 0.0
C1009 C 0.63168 0.05173 0.03633 0.0
C1010 C 0.67677 0.07616 0.02843 0.0
C1011 C 0.69302 0.05522 0.97413 0.0
H1012 H 0.74728 0.12535 0.97386 0.0
C1013 C 0.7634 0.09965 0.90027 0.0
C1014 C 0.78911 0.11662 0.90679 0.0
C1015 C 0.74512 0.0895 0.91713 0.0
C1016 C 0.73245 0.10563 0.97397 0.0
H1017 H 0.6073 0.02692 0.00784 0.0
H1018 H 0.64175 0.03907 0.98129 0.0
H1019 H 0.71316 0.11257 0.00075 0.0
H1020 H 0.81607 0.13575 0.936 0.0
H1021 H 0.78399 0.11811 0.96557 0.0
H1022 H 0.71206 0.04866 0.94664 0.0
C1023 C 0.64641 0.04749 0.9987 0.0
C1024 C 0.71288 0.09826 0.9894 0.0
C1025 C 0.62661 0.04066 0.01384 0.0
C1026 C 0.79639 0.12258 0.93055 0.0
C1027 C 0.77804 0.11267 0.9474 0.0
C1028 C 0.71249 0.06268 0.9585 0.0
C1029 C 0.67175 0.06534 0.00581 0.0
C1030 C 0.69284 0.07298 0.98964 0.0
C1031 C 0.75217 0.09638 0.94079 0.0
C1032 C 0.73234 0.08798 0.95824 0.0
H1033 H 0.66157 0.07823 0.06076 0.0
H1034 H 0.69607 0.08958 0.0347 0.0
H1035 H 0.67817 0.03551 0.9741 0.0
H1036 H 0.75736 0.09468 0.88205 0.0
H1037 H 0.7253 0.07712 0.91153 0.0
C1038 C 0.62399 0.58164 0.5237 0.0
C1039 C 0.60256 0.57871 0.53499 0.0
C1040 C 0.63454 0.59925 0.506 0.0
C1041 C 0.61745 0.6325 0.46227 0.0
H1042 H 0.68977 0.68187 0.46302 0.0
C1043 C 0.65598 0.71882 0.40386 0.0
C1044 C 0.67956 0.72735 0.39383 0.0
C1045 C 0.64753 0.70006 0.42054 0.0
C1046 C 0.6696 0.66796 0.46232 0.0
H1047 H 0.57546 0.59199 0.53661 0.0
H1048 H 0.59366 0.62234 0.50565 0.0
H1049 H 0.67338 0.6498 0.49305 0.0
H1050 H 0.71289 0.72302 0.39339 0.0
H1051 H 0.69792 0.68974 0.42233 0.0
H1052 H 0.61348 0.65024 0.43157 0.0
C1053 C 0.60229 0.61106 0.51046 0.0
C1054 C 0.66024 0.64966 0.47955 0.0
C1055 C 0.59197 0.59376 0.52829 0.0
C1056 C 0.69468 0.71687 0.40097 0.0
C1057 C 0.68612 0.69787 0.41757 0.0
C1058 C 0.6268 0.65056 0.44496 0.0
C1059 C 0.62359 0.61391 0.49907 0.0
C1060 C 0.634 0.63207 0.47991 0.0
C1061 C 0.66236 0.68915 0.42747 0.0
C1062 C 0.6529 0.66885 0.44501 0.0
H1063 H 0.63261 0.57036 0.52852 0.0
H1064 H 0.65094 0.60107 0.49742 0.0
H1065 H 0.59719 0.61886 0.46192 0.0
H1066 H 0.64415 0.72692 0.39901 0.0
H1067 H 0.62945 0.69431 0.42821 0.0
C1068 C 0.53397 0.00652 0.61951 0.0
C1069 C 0.54121 0.01647 0.59725 0.0
C1070 C 0.52234 0.01572 0.63404 0.0
C1071 C 0.51439 0.07169 0.64207 0.0
H1072 H 0.46562 0.02912 0.68687 0.0
C1073 C 0.46764 0.11001 0.7027 0.0
C1074 C 0.47106 0.10637 0.72646 0.0
C1075 C 0.47215 0.0966 0.68561 0.0
C1076 C 0.47918 0.04117 0.67438 0.0
H1077 H 0.54094 0.04303 0.57232 0.0
H1078 H 0.51985 0.05839 0.59719 0.0
H1079 H 0.48118 0.01034 0.65905 0.0
H1080 H 0.48039 0.08499 0.75109 0.0
H1081 H 0.48789 0.06123 0.72119 0.0
H1082 H 0.5122 0.10245 0.65736 0.0
C1083 C 0.52391 0.04414 0.60387 0.0
C1084 C 0.48825 0.03049 0.65855 0.0
C1085 C 0.53591 0.03524 0.58953 0.0
C1086 C 0.47774 0.08817 0.73285 0.0
C1087 C 0.48188 0.07451 0.71578 0.0
C1088 C 0.50504 0.08225 0.65765 0.0
C1089 C 0.51733 0.03482 0.62648 0.0
C1090 C 0.50628 0.04569 0.64239 0.0
C1091 C 0.47977 0.07907 0.69201 0.0
C1092 C 0.48762 0.06718 0.67416 0.0
H1093 H 0.5379 0.99208 0.62595 0.0
H1094 H 0.51794 0.00833 0.65143 0.0
H1095 H 0.52863 0.08415 0.63028 0.0
H1096 H 0.46267 0.12406 0.69734 0.0
H1097 H 0.47026 0.10035 0.66738 0.0
C1098 C 0.51182 0.49783 0.1085 0.0
C1099 C 0.52645 0.48584 0.11023 0.0
C1100 C 0.49062 0.49001 0.1221 0.0
C1101 C 0.44436 0.43678 0.15646 0.0
H1102 H 0.43896 0.48872 0.19026 0.0
C1103 C 0.37586 0.41285 0.23142 0.0
C1104 C 0.36317 0.42666 0.23331 0.0
C1105 C 0.39513 0.4199 0.21564 0.0
C1106 C 0.43993 0.47396 0.18071 0.0
H1107 H 0.5298 0.45572 0.12705 0.0
H1108 H 0.49284 0.44209 0.15062 0.0
H1109 H 0.47287 0.50089 0.16313 0.0
H1110 H 0.3604 0.4584 0.21983 0.0
H1111 H 0.39378 0.47056 0.19214 0.0
H1112 H 0.41142 0.40983 0.17394 0.0
C1113 C 0.4977 0.45748 0.13874 0.0
C1114 C 0.45939 0.48096 0.16515 0.0
C1115 C 0.51898 0.46541 0.12531 0.0
C1116 C 0.37014 0.44765 0.21906 0.0
C1117 C 0.38929 0.45461 0.20319 0.0
C1118 C 0.42481 0.42978 0.17191 0.0
C1119 C 0.4835 0.46991 0.13753 0.0
C1120 C 0.46194 0.46245 0.153 0.0
C1121 C 0.40203 0.44082 0.20126 0.0
C1122 C 0.42247 0.44828 0.18438 0.0
H1123 H 0.51708 0.51363 0.09705 0.0
H1124 H 0.47987 0.49978 0.12064 0.0
H1125 H 0.44566 0.42209 0.14712 0.0
H1126 H 0.37108 0.39674 0.24234 0.0
H1127 H 0.40484 0.40911 0.21493 0.0
C1128 C 0.04298 0.42894 0.61604 0.0
C1129 C 0.03116 0.42358 0.59355 0.0
C1130 C 0.03581 0.4097 0.63226 0.0
C1131 C 0.98171 0.34567 0.64366 0.0
H1132 H 0.02821 0.34677 0.69287 0.0
C1133 C 0.9508 0.26663 0.71073 0.0
C1134 C 0.95511 0.27541 0.73403 0.0
C1135 C 0.9624 0.28355 0.6928 0.0
C1136 C 0.01508 0.34627 0.67917 0.0
H1137 H 0.00374 0.39376 0.56987 0.0
H1138 H 0.99206 0.36006 0.59767 0.0
H1139 H 0.0445 0.37823 0.66235 0.0
H1140 H 0.97568 0.30835 0.75706 0.0
H1141 H 0.99633 0.33794 0.72566 0.0
H1142 H 0.9524 0.31353 0.66041 0.0
C1143 C 0.0061 0.3792 0.60324 0.0
C1144 C 0.02433 0.36435 0.66176 0.0
C1145 C 0.01291 0.39849 0.58722 0.0
C1146 C 0.97199 0.30119 0.7392 0.0
C1147 C 0.98391 0.31803 0.7213 0.0
C1148 C 0.9726 0.32741 0.66082 0.0
C1149 C 0.01697 0.38462 0.62617 0.0
C1150 C 0.00769 0.36448 0.64392 0.0
C1151 C 0.9788 0.30944 0.69792 0.0
C1152 C 0.98911 0.32771 0.67887 0.0
H1153 H 0.05703 0.44816 0.62141 0.0
H1154 H 0.04439 0.41473 0.64979 0.0
H1155 H 0.96815 0.34542 0.6306 0.0
H1156 H 0.93773 0.24686 0.70632 0.0
H1157 H 0.95826 0.27647 0.6749 0.0
C1158 C 0.64105 0.03472 0.15423 0.0
C1159 C 0.62384 0.02173 0.13522 0.0
C1160 C 0.6523 0.02312 0.16726 0.0
C1161 C 0.64172 0.95983 0.18123 0.0
H1162 H 0.7142 0.994 0.19825 0.0
C1163 C 0.68805 0.90366 0.21371 0.0
C1164 C 0.70415 0.91284 0.23396 0.0
C1165 C 0.68063 0.91895 0.20175 0.0
C1166 C 0.6939 0.98433 0.19379 0.0
H1167 H 0.60527 0.98653 0.11483 0.0
H1168 H 0.62481 0.96658 0.13733 0.0
H1169 H 0.69603 0.01718 0.17802 0.0
H1170 H 0.72622 0.94561 0.25691 0.0
H1171 H 0.71313 0.97253 0.23589 0.0
H1172 H 0.63941 0.92703 0.19675 0.0
C1173 C 0.62941 0.98554 0.14242 0.0
C1174 C 0.6835 0.99759 0.18228 0.0
C1175 C 0.6183 0.99708 0.12943 0.0
C1176 C 0.71389 0.93814 0.24126 0.0
C1177 C 0.70637 0.9535 0.22927 0.0
C1178 C 0.65205 0.94665 0.19264 0.0
C1179 C 0.64637 0.9983 0.16157 0.0
C1180 C 0.65737 0.98529 0.17551 0.0
C1181 C 0.68903 0.94376 0.2098 0.0
C1182 C 0.67831 0.95857 0.19867 0.0
H1183 H 0.64576 0.05377 0.15908 0.0
H1184 H 0.66524 0.03336 0.182 0.0
H1185 H 0.62141 0.95 0.17673 0.0
H1186 H 0.68061 0.88436 0.2075 0.0
H1187 H 0.66776 0.91113 0.18645 0.0
C1188 C 0.59345 0.58447 0.66275 0.0
C1189 C 0.60185 0.58222 0.64091 0.0
C1190 C 0.61116 0.59714 0.6814 0.0
C1191 C 0.67891 0.64181 0.69681 0.0
H1192 H 0.67185 0.59662 0.74707 0.0
C1193 C 0.76509 0.64832 0.74722 0.0
C1194 C 0.7631 0.63955 0.77009 0.0
C1195 C 0.74404 0.64708 0.73512 0.0
C1196 C 0.67394 0.60989 0.73363 0.0
H1197 H 0.63509 0.59271 0.62087 0.0
H1198 H 0.66594 0.61542 0.65311 0.0
H1199 H 0.63647 0.58474 0.71864 0.0
H1200 H 0.73791 0.62386 0.79872 0.0
H1201 H 0.70106 0.62216 0.7777 0.0
H1202 H 0.71654 0.66672 0.71134 0.0
C1203 C 0.64578 0.60725 0.65597 0.0
C1204 C 0.65361 0.603 0.7173 0.0
C1205 C 0.62815 0.59412 0.63758 0.0
C1206 C 0.73989 0.63058 0.78102 0.0
C1207 C 0.7188 0.62954 0.76895 0.0
C1208 C 0.69909 0.64889 0.71332 0.0
C1209 C 0.63747 0.60829 0.6782 0.0
C1210 C 0.65634 0.61841 0.69822 0.0
C1211 C 0.72044 0.63719 0.74562 0.0
C1212 C 0.6973 0.63247 0.73132 0.0
H1213 H 0.57324 0.5753 0.66575 0.0
H1214 H 0.60434 0.59765 0.69842 0.0
H1215 H 0.68134 0.6541 0.68234 0.0
H1216 H 0.78256 0.65486 0.73815 0.0
H1217 H 0.746 0.65262 0.71705 0.0
C1218 C 0.16582 0.63075 0.04822 0.0
C1219 C 0.1793 0.62098 0.03703 0.0
C1220 C 0.17877 0.65293 0.06177 0.0
C1221 C 0.23406 0.68517 0.10045 0.0
H1222 H 0.21394 0.73615 0.10344 0.0
C1223 C 0.26326 0.75225 0.18054 0.0
C1224 C 0.24359 0.7553 0.18916 0.0
C1225 C 0.2607 0.74178 0.15823 0.0
C1226 C 0.21975 0.72205 0.1029 0.0
H1227 H 0.21686 0.6271 0.03042 0.0
H1228 H 0.23974 0.66586 0.055 0.0
H1229 H 0.19993 0.70703 0.06978 0.0
H1230 H 0.20618 0.7505 0.18104 0.0
H1231 H 0.2013 0.73162 0.14245 0.0
H1232 H 0.25232 0.69878 0.13419 0.0
C1233 C 0.21912 0.65641 0.05289 0.0
C1234 C 0.21189 0.70554 0.08353 0.0
C1235 C 0.2061 0.63437 0.03882 0.0
C1236 C 0.22172 0.74856 0.17475 0.0
C1237 C 0.21903 0.73784 0.15255 0.0
C1238 C 0.24168 0.70149 0.11995 0.0
C1239 C 0.20548 0.6656 0.0648 0.0
C1240 C 0.21829 0.68643 0.08248 0.0
C1241 C 0.23828 0.73388 0.14416 0.0
C1242 C 0.23389 0.71958 0.12178 0.0
H1243 H 0.14513 0.6208 0.047 0.0
H1244 H 0.16775 0.65939 0.07095 0.0
H1245 H 0.23901 0.67043 0.10021 0.0
H1246 H 0.2805 0.75767 0.19119 0.0
H1247 H 0.27611 0.73946 0.1522 0.0
loop_
_geom_bond_atom_site_label_1
_geom_bond_atom_site_label_2
_geom_bond_distance
_geom_bond_site_symmetry_2
_ccdc_geom_bond_type
C0 O2 1.247 . S
C0 O4 1.258 . S
C1 O8 1.247 . S
C1 O9 1.258 . S
O2 C0 1.247 . S
O2 Zn3 2.028 . S
Zn3 O2 2.028 . S
Zn3 O7 2.035 1_554 S
Zn3 O9 2.035 1_554 S
Zn3 O10 2.028 . S
O4 C0 1.258 . S
O4 Zn5 2.035 1_554 S
Zn5 O4 2.035 1_556 S
Zn5 O6 2.028 . S
Zn5 O8 2.028 . S
Zn5 O11 2.035 1_556 S
O6 Zn5 2.028 . S
O6 C12 1.247 . S
O7 Zn3 2.035 1_556 S
O7 C12 1.258 . S
O8 C1 1.247 . S
O8 Zn5 2.028 . S
O9 C1 1.258 . S
O9 Zn3 2.035 1_556 S
O10 Zn3 2.028 . S
O10 C13 1.247 . S
O11 Zn5 2.035 1_554 S
O11 C13 1.258 . S
C12 O6 1.247 . S
C12 O7 1.258 . S
C13 O10 1.247 . S
C13 O11 1.258 . S
C14 O16 1.247 1_545 S
C14 O18 1.258 . S
C15 O22 1.247 1_565 S
C15 O23 1.258 . S
O16 C14 1.247 1_565 S
O16 Zn17 2.028 . S
Zn17 O16 2.028 . S
Zn17 O21 2.035 . S
Zn17 O23 2.035 . S
Zn17 O24 2.028 . S
O18 C14 1.258 . S
O18 Zn19 2.035 . S
Zn19 O18 2.035 . S
Zn19 O20 2.028 . S
Zn19 O22 2.028 . S
Zn19 O25 2.035 . S
O20 Zn19 2.028 . S
O20 C26 1.247 1_545 S
O21 Zn17 2.035 . S
O21 C26 1.258 . S
O22 C15 1.247 1_545 S
O22 Zn19 2.028 . S
O23 C15 1.258 . S
O23 Zn17 2.035 . S
O24 Zn17 2.028 . S
O24 C27 1.247 1_565 S
O25 Zn19 2.035 . S
O25 C27 1.258 . S
C26 O20 1.247 1_565 S
C26 O21 1.258 . S
C27 O24 1.247 1_545 S
C27 O25 1.258 . S
C28 O30 1.247 . S
C28 O32 1.258 . S
C29 O36 1.247 . S
C29 O37 1.258 . S
O30 C28 1.247 . S
O30 Zn31 2.028 . S
Zn31 O30 2.028 . S
Zn31 O35 2.035 . S
Zn31 O37 2.035 . S
Zn31 O38 2.028 . S
O32 C28 1.258 . S
O32 Zn33 2.035 . S
Zn33 O32 2.035 . S
Zn33 O34 2.028 . S
Zn33 O36 2.028 . S
Zn33 O39 2.035 . S
O34 Zn33 2.028 . S
O34 C40 1.247 . S
O35 Zn31 2.035 . S
O35 C40 1.258 . S
O36 C29 1.247 . S
O36 Zn33 2.028 . S
O37 C29 1.258 . S
O37 Zn31 2.035 . S
O38 Zn31 2.028 . S
O38 C41 1.247 . S
O39 Zn33 2.035 . S
O39 C41 1.258 . S
C40 O34 1.247 . S
C40 O35 1.258 . S
C41 O38 1.247 . S
C41 O39 1.258 . S
C42 O44 1.247 . S
C42 O46 1.258 1_455 S
C43 O50 1.247 . S
C43 O51 1.258 1_655 S
O44 C42 1.247 . S
O44 Zn45 2.028 . S
Zn45 O44 2.028 . S
Zn45 O49 2.035 . S
Zn45 O51 2.035 . S
Zn45 O52 2.028 . S
O46 C42 1.258 1_655 S
O46 Zn47 2.035 . S
Zn47 O46 2.035 . S
Zn47 O48 2.028 . S
Zn47 O50 2.028 . S
Zn47 O53 2.035 . S
O48 Zn47 2.028 . S
O48 C54 1.247 . S
O49 Zn45 2.035 . S
O49 C54 1.258 1_455 S
O50 C43 1.247 . S
O50 Zn47 2.028 . S
O51 C43 1.258 1_455 S
O51 Zn45 2.035 . S
O52 Zn45 2.028 . S
O52 C55 1.247 . S
O53 Zn47 2.035 . S
O53 C55 1.258 1_655 S
C54 O48 1.247 . S
C54 O49 1.258 1_655 S
C55 O52 1.247 . S
C55 O53 1.258 1_455 S
C56 O58 1.247 . S
C56 O60 1.258 . S
C57 O64 1.247 . S
C57 O65 1.258 . S
O58 C56 1.247 . S
O58 Zn59 2.028 . S
Zn59 O58 2.028 . S
Zn59 O63 2.035 . S
Zn59 O65 2.035 . S
Zn59 O66 2.028 . S
O60 C56 1.258 . S
O60 Zn61 2.035 . S
Zn61 O60 2.035 . S
Zn61 O62 2.028 . S
Zn61 O64 2.028 . S
Zn61 O67 2.035 . S
O62 Zn61 2.028 . S
O62 C68 1.247 . S
O63 Zn59 2.035 . S
O63 C68 1.258 . S
O64 C57 1.247 . S
O64 Zn61 2.028 . S
O65 C57 1.258 . S
O65 Zn59 2.035 . S
O66 Zn59 2.028 . S
O66 C69 1.247 . S
O67 Zn61 2.035 . S
O67 C69 1.258 . S
C68 O62 1.247 . S
C68 O63 1.258 . S
C69 O66 1.247 . S
C69 O67 1.258 . S
C70 O72 1.247 . S
C70 O74 1.258 . S
C71 O78 1.247 . S
C71 O79 1.258 . S
O72 C70 1.247 . S
O72 Zn73 2.028 . S
Zn73 O72 2.028 . S
Zn73 O77 2.035 . S
Zn73 O79 2.035 . S
Zn73 O80 2.028 . S
O74 C70 1.258 . S
O74 Zn75 2.035 . S
Zn75 O74 2.035 . S
Zn75 O76 2.028 . S
Zn75 O78 2.028 . S
Zn75 O81 2.035 . S
O76 Zn75 2.028 . S
O76 C82 1.247 . S
O77 Zn73 2.035 . S
O77 C82 1.258 . S
O78 C71 1.247 . S
O78 Zn75 2.028 . S
O79 C71 1.258 . S
O79 Zn73 2.035 . S
O80 Zn73 2.028 . S
O80 C83 1.247 . S
O81 Zn75 2.035 . S
O81 C83 1.258 . S
C82 O76 1.247 . S
C82 O77 1.258 . S
C83 O80 1.247 . S
C83 O81 1.258 . S
H84 O110 0.856 . S
H85 O113 0.854 . S
H86 C121 0.930 . S
H87 C122 0.930 . S
H88 C124 0.930 . S
H89 C125 0.930 . S
H90 C127 0.931 . S
H91 C128 0.930 . S
H92 C130 0.930 . S
H93 C131 0.929 . S
H94 C133 0.930 . S
H95 C134 0.931 . S
H96 C136 0.930 . S
H97 C137 0.929 . S
H98 C139 0.931 . S
H99 C140 0.930 . S
H100 C142 0.930 . S
H101 C143 0.932 . S
H102 C145 0.930 . S
H103 C146 0.929 . S
H104 C148 0.931 . S
H105 C149 0.930 . S
H106 C151 0.929 . S
H107 C152 0.931 . S
H108 C154 0.930 . S
H109 C155 0.929 . S
O110 H84 0.856 . S
O110 C156 1.300 . S
O111 C156 1.209 . S
O112 C157 1.199 . S
O113 H85 0.854 . S
O113 C157 1.297 . S
C114 C115 1.404 . S
C114 C119 1.397 . S
C114 C120 1.492 . S
C115 C114 1.404 . S
C115 C116 1.396 . S
C115 C126 1.492 . S
C116 C115 1.396 . S
C116 C117 1.397 . S
C116 C132 1.509 . S
C117 C116 1.397 . S
C117 C118 1.412 . S
C117 C138 1.485 . S
C118 C117 1.412 . S
C118 C119 1.388 . S
C118 C144 1.490 . S
C119 C114 1.397 . S
C119 C118 1.388 . S
C119 C150 1.519 . S
C120 C114 1.492 . S
C120 C121 1.363 . S
C120 C125 1.390 . S
C121 H86 0.930 . S
C121 C120 1.363 . S
C121 C122 1.372 . S
C122 H87 0.930 . S
C122 C121 1.372 . S
C122 C123 1.383 . S
C123 C122 1.383 . S
C123 C124 1.395 . S
C124 H88 0.930 . S
C124 C123 1.395 . S
C124 C125 1.362 . S
C125 H89 0.930 . S
C125 C120 1.390 . S
C125 C124 1.362 . S
C126 C115 1.492 . S
C126 C127 1.377 . S
C126 C131 1.397 . S
C127 H90 0.931 . S
C127 C126 1.377 . S
C127 C128 1.376 . S
C128 H91 0.930 . S
C128 C127 1.376 . S
C128 C129 1.376 . S
C129 C128 1.376 . S
C129 C130 1.378 . S
C129 C156 1.486 . S
C130 H92 0.930 . S
C130 C129 1.378 . S
C130 C131 1.376 . S
C131 H93 0.929 . S
C131 C126 1.397 . S
C131 C130 1.376 . S
C132 C116 1.509 . S
C132 C133 1.391 . S
C132 C137 1.386 . S
C133 H94 0.930 . S
C133 C132 1.391 . S
C133 C134 1.375 . S
C134 H95 0.931 . S
C134 C133 1.375 . S
C134 C135 1.375 . S
C135 C134 1.375 . S
C135 C136 1.361 . S
C136 H96 0.930 . S
C136 C135 1.361 . S
C136 C137 1.399 . S
C137 H97 0.929 . S
C137 C132 1.386 . S
C137 C136 1.399 . S
C138 C117 1.485 . S
C138 C139 1.394 . S
C138 C143 1.360 . S
C139 H98 0.931 . S
C139 C138 1.394 . S
C139 C140 1.372 . S
C140 H99 0.930 . S
C140 C139 1.372 . S
C140 C141 1.397 . S
C141 C140 1.397 . S
C141 C142 1.390 . S
C141 C157 1.476 . S
C142 H100 0.930 . S
C142 C141 1.390 . S
C142 C143 1.366 . S
C143 H101 0.932 . S
C143 C138 1.360 . S
C143 C142 1.366 . S
C144 C118 1.490 . S
C144 C145 1.380 . S
C144 C149 1.386 . S
C145 H102 0.930 . S
C145 C144 1.380 . S
C145 C146 1.381 . S
C146 H103 0.929 . S
C146 C145 1.381 . S
C146 C147 1.371 . S
C147 C146 1.371 . S
C147 C148 1.380 . S
C148 H104 0.931 . S
C148 C147 1.380 . S
C148 C149 1.387 . S
C149 H105 0.930 . S
C149 C144 1.386 . S
C149 C148 1.387 . S
C150 C119 1.519 . S
C150 C151 1.377 . S
C150 C155 1.361 . S
C151 H106 0.929 . S
C151 C150 1.377 . S
C151 C152 1.386 . S
C152 H107 0.931 . S
C152 C151 1.386 . S
C152 C153 1.363 . S
C153 C152 1.363 . S
C153 C154 1.385 . S
C154 H108 0.930 . S
C154 C153 1.385 . S
C154 C155 1.396 . S
C155 H109 0.929 . S
C155 C150 1.361 . S
C155 C154 1.396 . S
C156 O110 1.300 . S
C156 O111 1.209 . S
C156 C129 1.486 . S
C157 O112 1.199 . S
C157 O113 1.297 . S
C157 C141 1.476 . S
H158 O184 0.856 . S
H159 O187 0.854 . S
H160 C195 0.930 . S
H161 C196 0.930 . S
H162 C198 0.930 . S
H163 C199 0.930 . S
H164 C201 0.931 . S
H165 C202 0.930 . S
H166 C204 0.930 . S
H167 C205 0.929 . S
H168 C207 0.930 . S
H169 C208 0.931 . S
H170 C210 0.930 . S
H171 C211 0.929 . S
H172 C213 0.931 . S
H173 C214 0.930 . S
H174 C216 0.930 . S
H175 C217 0.932 . S
H176 C219 0.930 . S
H177 C220 0.929 . S
H178 C222 0.931 . S
H179 C223 0.930 . S
H180 C225 0.929 . S
H181 C226 0.931 . S
H182 C228 0.930 . S
H183 C229 0.929 . S
O184 H158 0.856 . S
O184 C230 1.300 . S
O185 C230 1.209 . S
O186 C231 1.199 . S
O187 H159 0.854 . S
O187 C231 1.297 . S
C188 C189 1.404 . S
C188 C193 1.397 . S
C188 C194 1.492 . S
C189 C188 1.404 . S
C189 C190 1.396 . S
C189 C200 1.492 . S
C190 C189 1.396 . S
C190 C191 1.397 . S
C190 C206 1.509 . S
C191 C190 1.397 . S
C191 C192 1.412 . S
C191 C212 1.485 . S
C192 C191 1.412 . S
C192 C193 1.388 . S
C192 C218 1.490 . S
C193 C188 1.397 . S
C193 C192 1.388 . S
C193 C224 1.519 . S
C194 C188 1.492 . S
C194 C195 1.363 . S
C194 C199 1.390 . S
C195 H160 0.930 . S
C195 C194 1.363 . S
C195 C196 1.372 . S
C196 H161 0.930 . S
C196 C195 1.372 . S
C196 C197 1.383 . S
C197 C196 1.383 . S
C197 C198 1.395 . S
C198 H162 0.930 . S
C198 C197 1.395 . S
C198 C199 1.362 . S
C199 H163 0.930 . S
C199 C194 1.390 . S
C199 C198 1.362 . S
C200 C189 1.492 . S
C200 C201 1.377 . S
C200 C205 1.397 . S
C201 H164 0.931 . S
C201 C200 1.377 . S
C201 C202 1.376 . S
C202 H165 0.930 . S
C202 C201 1.376 . S
C202 C203 1.376 . S
C203 C202 1.376 . S
C203 C204 1.378 . S
C203 C230 1.486 . S
C204 H166 0.930 . S
C204 C203 1.378 . S
C204 C205 1.376 . S
C205 H167 0.929 . S
C205 C200 1.397 . S
C205 C204 1.376 . S
C206 C190 1.509 . S
C206 C207 1.391 . S
C206 C211 1.386 . S
C207 H168 0.930 . S
C207 C206 1.391 . S
C207 C208 1.375 . S
C208 H169 0.931 . S
C208 C207 1.375 . S
C208 C209 1.375 . S
C209 C208 1.375 . S
C209 C210 1.361 . S
C210 H170 0.930 . S
C210 C209 1.361 . S
C210 C211 1.399 . S
C211 H171 0.929 . S
C211 C206 1.386 . S
C211 C210 1.399 . S
C212 C191 1.485 . S
C212 C213 1.394 . S
C212 C217 1.360 . S
C213 H172 0.931 . S
C213 C212 1.394 . S
C213 C214 1.372 . S
C214 H173 0.930 . S
C214 C213 1.372 . S
C214 C215 1.397 . S
C215 C214 1.397 . S
C215 C216 1.390 . S
C215 C231 1.476 . S
C216 H174 0.930 . S
C216 C215 1.390 . S
C216 C217 1.366 . S
C217 H175 0.932 . S
C217 C212 1.360 . S
C217 C216 1.366 . S
C218 C192 1.490 . S
C218 C219 1.380 . S
C218 C223 1.386 . S
C219 H176 0.930 . S
C219 C218 1.380 . S
C219 C220 1.381 . S
C220 H177 0.929 . S
C220 C219 1.381 . S
C220 C221 1.371 . S
C221 C220 1.371 . S
C221 C222 1.380 . S
C222 H178 0.931 . S
C222 C221 1.380 . S
C222 C223 1.387 . S
C223 H179 0.930 . S
C223 C218 1.386 . S
C223 C222 1.387 . S
C224 C193 1.519 . S
C224 C225 1.377 . S
C224 C229 1.361 . S
C225 H180 0.929 . S
C225 C224 1.377 . S
C225 C226 1.386 . S
C226 H181 0.931 . S
C226 C225 1.386 . S
C226 C227 1.363 . S
C227 C226 1.363 . S
C227 C228 1.385 . S
C228 H182 0.930 . S
C228 C227 1.385 . S
C228 C229 1.396 . S
C229 H183 0.929 . S
C229 C224 1.361 . S
C229 C228 1.396 . S
C230 O184 1.300 . S
C230 O185 1.209 . S
C230 C203 1.486 . S
C231 O186 1.199 . S
C231 O187 1.297 . S
C231 C215 1.476 . S
H232 O258 0.856 . S
H233 O261 0.854 . S
H234 C269 0.930 . S
H235 C270 0.930 . S
H236 C272 0.930 . S
H237 C273 0.930 . S
H238 C275 0.931 . S
H239 C276 0.930 . S
H240 C278 0.930 . S
H241 C279 0.929 . S
H242 C281 0.930 . S
H243 C282 0.931 . S
H244 C284 0.930 . S
H245 C285 0.929 . S
H246 C287 0.931 . S
H247 C288 0.930 . S
H248 C290 0.930 . S
H249 C291 0.932 . S
H250 C293 0.930 . S
H251 C294 0.929 . S
H252 C296 0.931 . S
H253 C297 0.930 . S
H254 C299 0.929 . S
H255 C300 0.931 . S
H256 C302 0.930 . S
H257 C303 0.929 . S
O258 H232 0.856 . S
O258 C304 1.300 . S
O259 C304 1.209 . S
O260 C305 1.199 . S
O261 H233 0.854 . S
O261 C305 1.297 . S
C262 C263 1.404 . S
C262 C267 1.397 . S
C262 C268 1.492 . S
C263 C262 1.404 . S
C263 C264 1.396 . S
C263 C274 1.492 . S
C264 C263 1.396 . S
C264 C265 1.397 . S
C264 C280 1.509 . S
C265 C264 1.397 . S
C265 C266 1.412 . S
C265 C286 1.485 . S
C266 C265 1.412 . S
C266 C267 1.388 . S
C266 C292 1.490 . S
C267 C262 1.397 . S
C267 C266 1.388 . S
C267 C298 1.519 . S
C268 C262 1.492 . S
C268 C269 1.363 . S
C268 C273 1.390 . S
C269 H234 0.930 . S
C269 C268 1.363 . S
C269 C270 1.372 . S
C270 H235 0.930 . S
C270 C269 1.372 . S
C270 C271 1.383 . S
C271 C270 1.383 . S
C271 C272 1.395 . S
C272 H236 0.930 . S
C272 C271 1.395 . S
C272 C273 1.362 . S
C273 H237 0.930 . S
C273 C268 1.390 . S
C273 C272 1.362 . S
C274 C263 1.492 . S
C274 C275 1.377 . S
C274 C279 1.397 . S
C275 H238 0.931 . S
C275 C274 1.377 . S
C275 C276 1.376 . S
C276 H239 0.930 . S
C276 C275 1.376 . S
C276 C277 1.376 . S
C277 C276 1.376 . S
C277 C278 1.378 . S
C277 C304 1.486 . S
C278 H240 0.930 . S
C278 C277 1.378 . S
C278 C279 1.376 . S
C279 H241 0.929 . S
C279 C274 1.397 . S
C279 C278 1.376 . S
C280 C264 1.509 . S
C280 C281 1.391 . S
C280 C285 1.386 . S
C281 H242 0.930 . S
C281 C280 1.391 . S
C281 C282 1.375 . S
C282 H243 0.931 . S
C282 C281 1.375 . S
C282 C283 1.375 . S
C283 C282 1.375 . S
C283 C284 1.361 . S
C284 H244 0.930 . S
C284 C283 1.361 . S
C284 C285 1.399 . S
C285 H245 0.929 . S
C285 C280 1.386 . S
C285 C284 1.399 . S
C286 C265 1.485 . S
C286 C287 1.394 . S
C286 C291 1.360 . S
C287 H246 0.931 . S
C287 C286 1.394 . S
C287 C288 1.372 . S
C288 H247 0.930 . S
C288 C287 1.372 . S
C288 C289 1.397 . S
C289 C288 1.397 . S
C289 C290 1.390 . S
C289 C305 1.476 . S
C290 H248 0.930 . S
C290 C289 1.390 . S
C290 C291 1.366 . S
C291 H249 0.932 . S
C291 C286 1.360 . S
C291 C290 1.366 . S
C292 C266 1.490 . S
C292 C293 1.380 . S
C292 C297 1.386 . S
C293 H250 0.930 . S
C293 C292 1.380 . S
C293 C294 1.381 . S
C294 H251 0.929 . S
C294 C293 1.381 . S
C294 C295 1.371 . S
C295 C294 1.371 . S
C295 C296 1.380 . S
C296 H252 0.931 . S
C296 C295 1.380 . S
C296 C297 1.387 . S
C297 H253 0.930 . S
C297 C292 1.386 . S
C297 C296 1.387 . S
C298 C267 1.519 . S
C298 C299 1.377 . S
C298 C303 1.361 . S
C299 H254 0.929 . S
C299 C298 1.377 . S
C299 C300 1.386 . S
C300 H255 0.931 . S
C300 C299 1.386 . S
C300 C301 1.363 . S
C301 C300 1.363 . S
C301 C302 1.385 . S
C302 H256 0.930 . S
C302 C301 1.385 . S
C302 C303 1.396 . S
C303 H257 0.929 . S
C303 C298 1.361 . S
C303 C302 1.396 . S
C304 O258 1.300 . S
C304 O259 1.209 . S
C304 C277 1.486 . S
C305 O260 1.199 . S
C305 O261 1.297 . S
C305 C289 1.476 . S
H306 O332 0.856 . S
H307 O335 0.854 . S
H308 C343 0.930 . S
H309 C344 0.930 . S
H310 C346 0.930 . S
H311 C347 0.930 . S
H312 C349 0.931 . S
H313 C350 0.930 . S
H314 C352 0.930 . S
H315 C353 0.929 . S
H316 C355 0.930 . S
H317 C356 0.931 . S
H318 C358 0.930 . S
H319 C359 0.929 . S
H320 C361 0.931 . S
H321 C362 0.930 1_455 S
H322 C364 0.930 . S
H323 C365 0.932 . S
H324 C367 0.930 . S
H325 C368 0.929 . S
H326 C370 0.931 . S
H327 C371 0.930 . S
H328 C373 0.929 . S
H329 C374 0.931 . S
H330 C376 0.930 . S
H331 C377 0.929 . S
O332 H306 0.856 . S
O332 C378 1.300 . S
O333 C378 1.209 . S
O334 C379 1.199 . S
O335 H307 0.854 . S
O335 C379 1.297 . S
C336 C337 1.404 . S
C336 C341 1.397 . S
C336 C342 1.492 . S
C337 C336 1.404 . S
C337 C338 1.396 . S
C337 C348 1.492 . S
C338 C337 1.396 . S
C338 C339 1.397 . S
C338 C354 1.509 . S
C339 C338 1.397 . S
C339 C340 1.412 . S
C339 C360 1.485 . S
C340 C339 1.412 . S
C340 C341 1.388 . S
C340 C366 1.490 . S
C341 C336 1.397 . S
C341 C340 1.388 . S
C341 C372 1.519 . S
C342 C336 1.492 . S
C342 C343 1.363 . S
C342 C347 1.390 . S
C343 H308 0.930 . S
C343 C342 1.363 . S
C343 C344 1.372 . S
C344 H309 0.930 . S
C344 C343 1.372 . S
C344 C345 1.383 . S
C345 C344 1.383 . S
C345 C346 1.395 . S
C346 H310 0.930 . S
C346 C345 1.395 . S
C346 C347 1.362 . S
C347 H311 0.930 . S
C347 C342 1.390 . S
C347 C346 1.362 . S
C348 C337 1.492 . S
C348 C349 1.377 . S
C348 C353 1.397 . S
C349 H312 0.931 . S
C349 C348 1.377 . S
C349 C350 1.376 . S
C350 H313 0.930 . S
C350 C349 1.376 . S
C350 C351 1.376 . S
C351 C350 1.376 . S
C351 C352 1.378 . S
C351 C378 1.486 . S
C352 H314 0.930 . S
C352 C351 1.378 . S
C352 C353 1.376 . S
C353 H315 0.929 . S
C353 C348 1.397 . S
C353 C352 1.376 . S
C354 C338 1.509 . S
C354 C355 1.391 . S
C354 C359 1.386 . S
C355 H316 0.930 . S
C355 C354 1.391 . S
C355 C356 1.375 . S
C356 H317 0.931 . S
C356 C355 1.375 . S
C356 C357 1.375 . S
C357 C356 1.375 . S
C357 C358 1.361 . S
C358 H318 0.930 . S
C358 C357 1.361 . S
C358 C359 1.399 . S
C359 H319 0.929 . S
C359 C354 1.386 . S
C359 C358 1.399 . S
C360 C339 1.485 . S
C360 C361 1.394 . S
C360 C365 1.360 . S
C361 H320 0.931 . S
C361 C360 1.394 . S
C361 C362 1.372 . S
C362 H321 0.930 1_655 S
C362 C361 1.372 . S
C362 C363 1.397 . S
C363 C362 1.397 . S
C363 C364 1.390 . S
C363 C379 1.476 1_655 S
C364 H322 0.930 . S
C364 C363 1.390 . S
C364 C365 1.366 . S
C365 H323 0.932 . S
C365 C360 1.360 . S
C365 C364 1.366 . S
C366 C340 1.490 . S
C366 C367 1.380 . S
C366 C371 1.386 . S
C367 H324 0.930 . S
C367 C366 1.380 . S
C367 C368 1.381 . S
C368 H325 0.929 . S
C368 C367 1.381 . S
C368 C369 1.371 . S
C369 C368 1.371 . S
C369 C370 1.380 . S
C370 H326 0.931 . S
C370 C369 1.380 . S
C370 C371 1.387 . S
C371 H327 0.930 . S
C371 C366 1.386 . S
C371 C370 1.387 . S
C372 C341 1.519 . S
C372 C373 1.377 . S
C372 C377 1.361 . S
C373 H328 0.929 . S
C373 C372 1.377 . S
C373 C374 1.386 . S
C374 H329 0.931 . S
C374 C373 1.386 . S
C374 C375 1.363 . S
C375 C374 1.363 . S
C375 C376 1.385 . S
C376 H330 0.930 . S
C376 C375 1.385 . S
C376 C377 1.396 . S
C377 H331 0.929 . S
C377 C372 1.361 . S
C377 C376 1.396 . S
C378 O332 1.300 . S
C378 O333 1.209 . S
C378 C351 1.486 . S
C379 O334 1.199 . S
C379 O335 1.297 . S
C379 C363 1.476 1_455 S
H380 O406 0.856 . S
H381 O409 0.854 . S
H382 C417 0.930 . S
H383 C418 0.930 . S
H384 C420 0.930 . S
H385 C421 0.930 . S
H386 C423 0.931 . S
H387 C424 0.930 . S
H388 C426 0.930 . S
H389 C427 0.929 . S
H390 C429 0.930 . S
H391 C430 0.931 . S
H392 C432 0.930 . S
H393 C433 0.929 . S
H394 C435 0.931 . S
H395 C436 0.930 . S
H396 C438 0.930 . S
H397 C439 0.932 . S
H398 C441 0.930 . S
H399 C442 0.929 . S
H400 C444 0.931 . S
H401 C445 0.930 . S
H402 C447 0.929 . S
H403 C448 0.931 . S
H404 C450 0.930 . S
H405 C451 0.929 . S
O406 H380 0.856 . S
O406 C452 1.300 . S
O407 C452 1.209 . S
O408 C453 1.199 . S
O409 H381 0.854 . S
O409 C453 1.297 . S
C410 C411 1.404 . S
C410 C415 1.397 . S
C410 C416 1.492 . S
C411 C410 1.404 . S
C411 C412 1.396 . S
C411 C422 1.492 . S
C412 C411 1.396 . S
C412 C413 1.397 . S
C412 C428 1.509 . S
C413 C412 1.397 . S
C413 C414 1.412 . S
C413 C434 1.485 . S
C414 C413 1.412 . S
C414 C415 1.388 . S
C414 C440 1.490 . S
C415 C410 1.397 . S
C415 C414 1.388 . S
C415 C446 1.519 . S
C416 C410 1.492 . S
C416 C417 1.363 . S
C416 C421 1.390 . S
C417 H382 0.930 . S
C417 C416 1.363 . S
C417 C418 1.372 . S
C418 H383 0.930 . S
C418 C417 1.372 . S
C418 C419 1.383 . S
C419 C418 1.383 . S
C419 C420 1.395 . S
C420 H384 0.930 . S
C420 C419 1.395 . S
C420 C421 1.362 . S
C421 H385 0.930 . S
C421 C416 1.390 . S
C421 C420 1.362 . S
C422 C411 1.492 . S
C422 C423 1.377 . S
C422 C427 1.397 . S
C423 H386 0.931 . S
C423 C422 1.377 . S
C423 C424 1.376 . S
C424 H387 0.930 . S
C424 C423 1.376 . S
C424 C425 1.376 . S
C425 C424 1.376 . S
C425 C426 1.378 . S
C425 C452 1.486 . S
C426 H388 0.930 . S
C426 C425 1.378 . S
C426 C427 1.376 . S
C427 H389 0.929 . S
C427 C422 1.397 . S
C427 C426 1.376 . S
C428 C412 1.509 . S
C428 C429 1.391 . S
C428 C433 1.386 . S
C429 H390 0.930 . S
C429 C428 1.391 . S
C429 C430 1.375 . S
C430 H391 0.931 . S
C430 C429 1.375 . S
C430 C431 1.375 . S
C431 C430 1.375 . S
C431 C432 1.361 . S
C432 H392 0.930 . S
C432 C431 1.361 . S
C432 C433 1.399 . S
C433 H393 0.929 . S
C433 C428 1.386 . S
C433 C432 1.399 . S
C434 C413 1.485 . S
C434 C435 1.394 . S
C434 C439 1.360 . S
C435 H394 0.931 . S
C435 C434 1.394 . S
C435 C436 1.372 . S
C436 H395 0.930 . S
C436 C435 1.372 . S
C436 C437 1.397 . S
C437 C436 1.397 . S
C437 C438 1.390 . S
C437 C453 1.476 . S
C438 H396 0.930 . S
C438 C437 1.390 . S
C438 C439 1.366 . S
C439 H397 0.932 . S
C439 C434 1.360 . S
C439 C438 1.366 . S
C440 C414 1.490 . S
C440 C441 1.380 . S
C440 C445 1.386 . S
C441 H398 0.930 . S
C441 C440 1.380 . S
C441 C442 1.381 . S
C442 H399 0.929 . S
C442 C441 1.381 . S
C442 C443 1.371 . S
C443 C442 1.371 . S
C443 C444 1.380 . S
C444 H400 0.931 . S
C444 C443 1.380 . S
C444 C445 1.387 . S
C445 H401 0.930 . S
C445 C440 1.386 . S
C445 C444 1.387 . S
C446 C415 1.519 . S
C446 C447 1.377 . S
C446 C451 1.361 . S
C447 H402 0.929 . S
C447 C446 1.377 . S
C447 C448 1.386 . S
C448 H403 0.931 . S
C448 C447 1.386 . S
C448 C449 1.363 . S
C449 C448 1.363 . S
C449 C450 1.385 . S
C450 H404 0.930 . S
C450 C449 1.385 . S
C450 C451 1.396 . S
C451 H405 0.929 . S
C451 C446 1.361 . S
C451 C450 1.396 . S
C452 O406 1.300 . S
C452 O407 1.209 . S
C452 C425 1.486 . S
C453 O408 1.199 . S
C453 O409 1.297 . S
C453 C437 1.476 . S
H454 O480 0.856 . S
H455 O483 0.854 . S
H456 C491 0.930 . S
H457 C492 0.930 . S
H458 C494 0.930 . S
H459 C495 0.930 . S
H460 C497 0.931 . S
H461 C498 0.930 . S
H462 C500 0.930 . S
H463 C501 0.929 . S
H464 C503 0.930 . S
H465 C504 0.931 . S
H466 C506 0.930 . S
H467 C507 0.929 . S
H468 C509 0.931 . S
H469 C510 0.930 . S
H470 C512 0.930 . S
H471 C513 0.932 . S
H472 C515 0.930 . S
H473 C516 0.929 . S
H474 C518 0.931 . S
H475 C519 0.930 . S
H476 C521 0.929 . S
H477 C522 0.931 . S
H478 C524 0.930 . S
H479 C525 0.929 . S
O480 H454 0.856 . S
O480 C526 1.300 . S
O481 C526 1.209 . S
O482 C527 1.199 . S
O483 H455 0.854 . S
O483 C527 1.297 . S
C484 C485 1.404 . S
C484 C489 1.397 . S
C484 C490 1.492 . S
C485 C484 1.404 . S
C485 C486 1.396 . S
C485 C496 1.492 . S
C486 C485 1.396 . S
C486 C487 1.397 . S
C486 C502 1.509 . S
C487 C486 1.397 . S
C487 C488 1.412 . S
C487 C508 1.485 . S
C488 C487 1.412 . S
C488 C489 1.388 . S
C488 C514 1.490 . S
C489 C484 1.397 . S
C489 C488 1.388 . S
C489 C520 1.519 . S
C490 C484 1.492 . S
C490 C491 1.363 . S
C490 C495 1.390 . S
C491 H456 0.930 . S
C491 C490 1.363 . S
C491 C492 1.372 . S
C492 H457 0.930 . S
C492 C491 1.372 . S
C492 C493 1.383 . S
C493 C492 1.383 . S
C493 C494 1.395 . S
C494 H458 0.930 . S
C494 C493 1.395 . S
C494 C495 1.362 . S
C495 H459 0.930 . S
C495 C490 1.390 . S
C495 C494 1.362 . S
C496 C485 1.492 . S
C496 C497 1.377 . S
C496 C501 1.397 . S
C497 H460 0.931 . S
C497 C496 1.377 . S
C497 C498 1.376 . S
C498 H461 0.930 . S
C498 C497 1.376 . S
C498 C499 1.376 . S
C499 C498 1.376 . S
C499 C500 1.378 . S
C499 C526 1.486 . S
C500 H462 0.930 . S
C500 C499 1.378 . S
C500 C501 1.376 . S
C501 H463 0.929 . S
C501 C496 1.397 . S
C501 C500 1.376 . S
C502 C486 1.509 . S
C502 C503 1.391 . S
C502 C507 1.386 . S
C503 H464 0.930 . S
C503 C502 1.391 . S
C503 C504 1.375 . S
C504 H465 0.931 . S
C504 C503 1.375 . S
C504 C505 1.375 . S
C505 C504 1.375 . S
C505 C506 1.361 . S
C506 H466 0.930 . S
C506 C505 1.361 . S
C506 C507 1.399 . S
C507 H467 0.929 . S
C507 C502 1.386 . S
C507 C506 1.399 . S
C508 C487 1.485 . S
C508 C509 1.394 . S
C508 C513 1.360 . S
C509 H468 0.931 . S
C509 C508 1.394 . S
C509 C510 1.372 . S
C510 H469 0.930 . S
C510 C509 1.372 . S
C510 C511 1.397 . S
C511 C510 1.397 . S
C511 C512 1.390 . S
C511 C527 1.476 . S
C512 H470 0.930 . S
C512 C511 1.390 . S
C512 C513 1.366 . S
C513 H471 0.932 . S
C513 C508 1.360 . S
C513 C512 1.366 . S
C514 C488 1.490 . S
C514 C515 1.380 . S
C514 C519 1.386 . S
C515 H472 0.930 . S
C515 C514 1.380 . S
C515 C516 1.381 . S
C516 H473 0.929 . S
C516 C515 1.381 . S
C516 C517 1.371 . S
C517 C516 1.371 . S
C517 C518 1.380 . S
C518 H474 0.931 . S
C518 C517 1.380 . S
C518 C519 1.387 . S
C519 H475 0.930 . S
C519 C514 1.386 . S
C519 C518 1.387 . S
C520 C489 1.519 . S
C520 C521 1.377 . S
C520 C525 1.361 . S
C521 H476 0.929 . S
C521 C520 1.377 . S
C521 C522 1.386 . S
C522 H477 0.931 . S
C522 C521 1.386 . S
C522 C523 1.363 . S
C523 C522 1.363 . S
C523 C524 1.385 . S
C524 H478 0.930 . S
C524 C523 1.385 . S
C524 C525 1.396 . S
C525 H479 0.929 . S
C525 C520 1.361 . S
C525 C524 1.396 . S
C526 O480 1.300 . S
C526 O481 1.209 . S
C526 C499 1.486 . S
C527 O482 1.199 . S
C527 O483 1.297 . S
C527 C511 1.476 . S
C528 C529 1.349 . S
C528 C530 1.327 . S
C528 H553 0.950 . S
C529 C528 1.349 . S
C529 C545 1.349 . S
C530 C528 1.327 . S
C530 C549 1.429 . S
C530 H554 0.950 . S
C531 C548 1.574 . S
C531 C550 1.368 . S
C531 H555 0.949 . S
H532 C536 0.949 . S
C533 C534 1.349 . S
C533 C535 1.327 . S
C533 H556 0.950 . S
C534 C533 1.349 . S
C534 C546 1.349 . S
C535 C533 1.327 . S
C535 C551 1.429 . S
C535 H557 0.950 . S
C536 H532 0.949 . S
C536 C544 1.574 . S
C536 C552 1.368 . S
H537 C545 0.950 . S
H538 C543 0.950 . S
H539 C544 0.949 . S
H540 C546 0.950 . S
H541 C547 0.950 . S
H542 C548 0.949 . S
C543 H538 0.950 . S
C543 C545 1.327 . S
C543 C549 1.429 . S
C544 C536 1.574 . S
C544 H539 0.949 . S
C544 C550 1.368 . S
C545 C529 1.349 . S
C545 H537 0.950 . S
C545 C543 1.327 . S
C546 C534 1.349 . S
C546 H540 0.950 . S
C546 C547 1.327 . S
C547 H541 0.950 . S
C547 C546 1.327 . S
C547 C551 1.429 . S
C548 C531 1.574 . S
C548 H542 0.949 . S
C548 C552 1.368 . S
C549 C530 1.429 . S
C549 C543 1.429 . S
C549 C550 1.523 . S
C550 C531 1.368 . S
C550 C544 1.368 . S
C550 C549 1.523 . S
C551 C535 1.429 . S
C551 C547 1.429 . S
C551 C552 1.523 . S
C552 C536 1.368 . S
C552 C548 1.368 . S
C552 C551 1.523 . S
H553 C528 0.950 . S
H554 C530 0.950 . S
H555 C531 0.949 . S
H556 C533 0.950 . S
H557 C535 0.950 . S
C558 C559 1.349 . S
C558 C560 1.327 . S
C558 H583 0.950 . S
C559 C558 1.349 . S
C559 C575 1.349 . S
C560 C558 1.327 . S
C560 C579 1.429 . S
C560 H584 0.950 . S
C561 C578 1.574 . S
C561 C580 1.368 . S
C561 H585 0.949 . S
H562 C566 0.949 . S
C563 C564 1.349 . S
C563 C565 1.327 . S
C563 H586 0.950 . S
C564 C563 1.349 . S
C564 C576 1.349 . S
C565 C563 1.327 . S
C565 C581 1.429 . S
C565 H587 0.950 . S
C566 H562 0.949 . S
C566 C574 1.574 . S
C566 C582 1.368 . S
H567 C575 0.950 . S
H568 C573 0.950 . S
H569 C574 0.949 . S
H570 C576 0.950 . S
H571 C577 0.950 . S
H572 C578 0.949 . S
C573 H568 0.950 . S
C573 C575 1.327 . S
C573 C579 1.429 . S
C574 C566 1.574 . S
C574 H569 0.949 . S
C574 C580 1.368 . S
C575 C559 1.349 . S
C575 H567 0.950 . S
C575 C573 1.327 . S
C576 C564 1.349 . S
C576 H570 0.950 . S
C576 C577 1.327 . S
C577 H571 0.950 . S
C577 C576 1.327 . S
C577 C581 1.429 . S
C578 C561 1.574 . S
C578 H572 0.949 . S
C578 C582 1.368 . S
C579 C560 1.429 . S
C579 C573 1.429 . S
C579 C580 1.523 . S
C580 C561 1.368 . S
C580 C574 1.368 . S
C580 C579 1.523 . S
C581 C565 1.429 . S
C581 C577 1.429 . S
C581 C582 1.523 . S
C582 C566 1.368 . S
C582 C578 1.368 . S
C582 C581 1.523 . S
H583 C558 0.950 . S
H584 C560 0.950 . S
H585 C561 0.949 . S
H586 C563 0.950 . S
H587 C565 0.950 . S
C588 C589 1.349 . S
C588 C590 1.327 . S
C588 H613 0.950 . S
C589 C588 1.349 . S
C589 C605 1.349 . S
C590 C588 1.327 . S
C590 C609 1.429 . S
C590 H614 0.950 . S
C591 C608 1.574 . S
C591 C610 1.368 . S
C591 H615 0.949 . S
H592 C596 0.949 . S
C593 C594 1.349 . S
C593 C595 1.327 . S
C593 H616 0.950 . S
C594 C593 1.349 . S
C594 C606 1.349 . S
C595 C593 1.327 . S
C595 C611 1.429 . S
C595 H617 0.950 . S
C596 H592 0.949 . S
C596 C604 1.574 . S
C596 C612 1.368 . S
H597 C605 0.950 . S
H598 C603 0.950 . S
H599 C604 0.949 . S
H600 C606 0.950 . S
H601 C607 0.950 . S
H602 C608 0.949 . S
C603 H598 0.950 . S
C603 C605 1.327 . S
C603 C609 1.429 . S
C604 C596 1.574 . S
C604 H599 0.949 . S
C604 C610 1.368 . S
C605 C589 1.349 . S
C605 H597 0.950 . S
C605 C603 1.327 . S
C606 C594 1.349 . S
C606 H600 0.950 . S
C606 C607 1.327 . S
C607 H601 0.950 . S
C607 C606 1.327 . S
C607 C611 1.429 . S
C608 C591 1.574 . S
C608 H602 0.949 . S
C608 C612 1.368 . S
C609 C590 1.429 . S
C609 C603 1.429 . S
C609 C610 1.523 . S
C610 C591 1.368 . S
C610 C604 1.368 . S
C610 C609 1.523 . S
C611 C595 1.429 . S
C611 C607 1.429 . S
C611 C612 1.523 . S
C612 C596 1.368 . S
C612 C608 1.368 . S
C612 C611 1.523 . S
H613 C588 0.950 . S
H614 C590 0.950 . S
H615 C591 0.949 . S
H616 C593 0.950 . S
H617 C595 0.950 . S
C618 C619 1.349 . S
C618 C620 1.327 . S
C618 H643 0.950 . S
C619 C618 1.349 . S
C619 C635 1.349 . S
C620 C618 1.327 . S
C620 C639 1.429 . S
C620 H644 0.950 . S
C621 C638 1.574 . S
C621 C640 1.368 . S
C621 H645 0.949 . S
H622 C626 0.949 . S
C623 C624 1.349 . S
C623 C625 1.327 . S
C623 H646 0.950 . S
C624 C623 1.349 . S
C624 C636 1.349 . S
C625 C623 1.327 . S
C625 C641 1.429 . S
C625 H647 0.950 . S
C626 H622 0.949 . S
C626 C634 1.574 . S
C626 C642 1.368 . S
H627 C635 0.950 . S
H628 C633 0.950 . S
H629 C634 0.949 . S
H630 C636 0.950 . S
H631 C637 0.950 . S
H632 C638 0.949 . S
C633 H628 0.950 . S
C633 C635 1.327 . S
C633 C639 1.429 . S
C634 C626 1.574 . S
C634 H629 0.949 . S
C634 C640 1.368 . S
C635 C619 1.349 . S
C635 H627 0.950 . S
C635 C633 1.327 . S
C636 C624 1.349 . S
C636 H630 0.950 . S
C636 C637 1.327 . S
C637 H631 0.950 . S
C637 C636 1.327 . S
C637 C641 1.429 . S
C638 C621 1.574 . S
C638 H632 0.949 . S
C638 C642 1.368 . S
C639 C620 1.429 . S
C639 C633 1.429 . S
C639 C640 1.523 . S
C640 C621 1.368 . S
C640 C634 1.368 . S
C640 C639 1.523 . S
C641 C625 1.429 . S
C641 C637 1.429 . S
C641 C642 1.523 . S
C642 C626 1.368 . S
C642 C638 1.368 . S
C642 C641 1.523 . S
H643 C618 0.950 . S
H644 C620 0.950 . S
H645 C621 0.949 . S
H646 C623 0.950 . S
H647 C625 0.950 . S
C648 C649 1.349 . S
C648 C650 1.327 . S
C648 H673 0.950 . S
C649 C648 1.349 . S
C649 C665 1.349 1_545 S
C650 C648 1.327 . S
C650 C669 1.429 1_545 S
C650 H674 0.950 . S
C651 C668 1.574 . S
C651 C670 1.368 . S
C651 H675 0.949 . S
H652 C656 0.949 . S
C653 C654 1.349 . S
C653 C655 1.327 . S
C653 H676 0.950 . S
C654 C653 1.349 . S
C654 C666 1.349 . S
C655 C653 1.327 . S
C655 C671 1.429 . S
C655 H677 0.950 . S
C656 H652 0.949 . S
C656 C664 1.574 . S
C656 C672 1.368 . S
H657 C665 0.950 . S
H658 C663 0.950 . S
H659 C664 0.949 . S
H660 C666 0.950 . S
H661 C667 0.950 . S
H662 C668 0.949 . S
C663 H658 0.950 . S
C663 C665 1.327 . S
C663 C669 1.429 . S
C664 C656 1.574 . S
C664 H659 0.949 . S
C664 C670 1.368 . S
C665 C649 1.349 1_565 S
C665 H657 0.950 . S
C665 C663 1.327 . S
C666 C654 1.349 . S
C666 H660 0.950 . S
C666 C667 1.327 . S
C667 H661 0.950 . S
C667 C666 1.327 . S
C667 C671 1.429 . S
C668 C651 1.574 . S
C668 H662 0.949 . S
C668 C672 1.368 . S
C669 C650 1.429 1_565 S
C669 C663 1.429 . S
C669 C670 1.523 . S
C670 C651 1.368 . S
C670 C664 1.368 . S
C670 C669 1.523 . S
C671 C655 1.429 . S
C671 C667 1.429 . S
C671 C672 1.523 . S
C672 C656 1.368 . S
C672 C668 1.368 . S
C672 C671 1.523 . S
H673 C648 0.950 . S
H674 C650 0.950 . S
H675 C651 0.949 . S
H676 C653 0.950 . S
H677 C655 0.950 . S
C678 C679 1.349 . S
C678 C680 1.327 . S
C678 H703 0.950 . S
C679 C678 1.349 . S
C679 C695 1.349 . S
C680 C678 1.327 . S
C680 C699 1.429 . S
C680 H704 0.950 . S
C681 C698 1.574 . S
C681 C700 1.368 . S
C681 H705 0.949 . S
H682 C686 0.949 . S
C683 C684 1.349 . S
C683 C685 1.327 . S
C683 H706 0.950 . S
C684 C683 1.349 . S
C684 C696 1.349 . S
C685 C683 1.327 . S
C685 C701 1.429 . S
C685 H707 0.950 . S
C686 H682 0.949 . S
C686 C694 1.574 . S
C686 C702 1.368 . S
H687 C695 0.950 . S
H688 C693 0.950 . S
H689 C694 0.949 . S
H690 C696 0.950 . S
H691 C697 0.950 . S
H692 C698 0.949 . S
C693 H688 0.950 . S
C693 C695 1.327 . S
C693 C699 1.429 . S
C694 C686 1.574 . S
C694 H689 0.949 . S
C694 C700 1.368 . S
C695 C679 1.349 . S
C695 H687 0.950 . S
C695 C693 1.327 . S
C696 C684 1.349 . S
C696 H690 0.950 . S
C696 C697 1.327 . S
C697 H691 0.950 . S
C697 C696 1.327 . S
C697 C701 1.429 . S
C698 C681 1.574 . S
C698 H692 0.949 . S
C698 C702 1.368 . S
C699 C680 1.429 . S
C699 C693 1.429 . S
C699 C700 1.523 . S
C700 C681 1.368 . S
C700 C694 1.368 . S
C700 C699 1.523 . S
C701 C685 1.429 . S
C701 C697 1.429 . S
C701 C702 1.523 . S
C702 C686 1.368 . S
C702 C698 1.368 . S
C702 C701 1.523 . S
H703 C678 0.950 . S
H704 C680 0.950 . S
H705 C681 0.949 . S
H706 C683 0.950 . S
H707 C685 0.950 . S
C708 C709 1.349 . S
C708 C710 1.327 . S
C708 H733 0.950 1_565 S
C709 C708 1.349 . S
C709 C725 1.349 . S
C710 C708 1.327 . S
C710 C729 1.429 . S
C710 H734 0.950 . S
C711 C728 1.574 . S
C711 C730 1.368 . S
C711 H735 0.949 . S
H712 C716 0.949 . S
C713 C714 1.349 . S
C713 C715 1.327 . S
C713 H736 0.950 . S
C714 C713 1.349 . S
C714 C726 1.349 . S
C715 C713 1.327 . S
C715 C731 1.429 . S
C715 H737 0.950 . S
C716 H712 0.949 . S
C716 C724 1.574 . S
C716 C732 1.368 . S
H717 C725 0.950 . S
H718 C723 0.950 . S
H719 C724 0.949 . S
H720 C726 0.950 . S
H721 C727 0.950 . S
H722 C728 0.949 . S
C723 H718 0.950 . S
C723 C725 1.327 . S
C723 C729 1.429 . S
C724 C716 1.574 . S
C724 H719 0.949 . S
C724 C730 1.368 . S
C725 C709 1.349 . S
C725 H717 0.950 . S
C725 C723 1.327 . S
C726 C714 1.349 . S
C726 H720 0.950 . S
C726 C727 1.327 . S
C727 H721 0.950 . S
C727 C726 1.327 . S
C727 C731 1.429 . S
C728 C711 1.574 . S
C728 H722 0.949 . S
C728 C732 1.368 . S
C729 C710 1.429 . S
C729 C723 1.429 . S
C729 C730 1.523 . S
C730 C711 1.368 . S
C730 C724 1.368 . S
C730 C729 1.523 . S
C731 C715 1.429 . S
C731 C727 1.429 . S
C731 C732 1.523 . S
C732 C716 1.368 . S
C732 C728 1.368 . S
C732 C731 1.523 . S
H733 C708 0.950 1_545 S
H734 C710 0.950 . S
H735 C711 0.949 . S
H736 C713 0.950 . S
H737 C715 0.950 . S
C738 C739 1.349 . S
C738 C740 1.327 . S
C738 H763 0.950 . S
C739 C738 1.349 . S
C739 C755 1.349 . S
C740 C738 1.327 . S
C740 C759 1.429 . S
C740 H764 0.950 1_554 S
C741 C758 1.574 . S
C741 C760 1.368 . S
C741 H765 0.949 1_556 S
H742 C746 0.949 . S
C743 C744 1.349 . S
C743 C745 1.327 . S
C743 H766 0.950 . S
C744 C743 1.349 . S
C744 C756 1.349 . S
C745 C743 1.327 . S
C745 C761 1.429 . S
C745 H767 0.950 . S
C746 H742 0.949 . S
C746 C754 1.574 . S
C746 C762 1.368 . S
H747 C755 0.950 . S
H748 C753 0.950 . S
H749 C754 0.949 . S
H750 C756 0.950 . S
H751 C757 0.950 . S
H752 C758 0.949 . S
C753 H748 0.950 . S
C753 C755 1.327 . S
C753 C759 1.429 . S
C754 C746 1.574 . S
C754 H749 0.949 . S
C754 C760 1.368 . S
C755 C739 1.349 . S
C755 H747 0.950 . S
C755 C753 1.327 . S
C756 C744 1.349 . S
C756 H750 0.950 . S
C756 C757 1.327 . S
C757 H751 0.950 . S
C757 C756 1.327 . S
C757 C761 1.429 . S
C758 C741 1.574 . S
C758 H752 0.949 . S
C758 C762 1.368 . S
C759 C740 1.429 . S
C759 C753 1.429 . S
C759 C760 1.523 1_554 S
C760 C741 1.368 . S
C760 C754 1.368 . S
C760 C759 1.523 1_556 S
C761 C745 1.429 . S
C761 C757 1.429 . S
C761 C762 1.523 . S
C762 C746 1.368 . S
C762 C758 1.368 . S
C762 C761 1.523 . S
H763 C738 0.950 . S
H764 C740 0.950 1_556 S
H765 C741 0.949 1_554 S
H766 C743 0.950 . S
H767 C745 0.950 . S
C768 C769 1.349 . S
C768 C770 1.327 . S
C768 H793 0.950 . S
C769 C768 1.349 . S
C769 C785 1.349 . S
C770 C768 1.327 . S
C770 C789 1.429 . S
C770 H794 0.950 . S
C771 C788 1.574 . S
C771 C790 1.368 . S
C771 H795 0.949 . S
H772 C776 0.949 . S
C773 C774 1.349 . S
C773 C775 1.327 . S
C773 H796 0.950 . S
C774 C773 1.349 . S
C774 C786 1.349 . S
C775 C773 1.327 . S
C775 C791 1.429 . S
C775 H797 0.950 . S
C776 H772 0.949 . S
C776 C784 1.574 . S
C776 C792 1.368 . S
H777 C785 0.950 . S
H778 C783 0.950 . S
H779 C784 0.949 . S
H780 C786 0.950 . S
H781 C787 0.950 . S
H782 C788 0.949 . S
C783 H778 0.950 . S
C783 C785 1.327 . S
C783 C789 1.429 . S
C784 C776 1.574 . S
C784 H779 0.949 . S
C784 C790 1.368 . S
C785 C769 1.349 . S
C785 H777 0.950 . S
C785 C783 1.327 . S
C786 C774 1.349 . S
C786 H780 0.950 . S
C786 C787 1.327 . S
C787 H781 0.950 . S
C787 C786 1.327 . S
C787 C791 1.429 . S
C788 C771 1.574 . S
C788 H782 0.949 . S
C788 C792 1.368 . S
C789 C770 1.429 . S
C789 C783 1.429 . S
C789 C790 1.523 . S
C790 C771 1.368 . S
C790 C784 1.368 . S
C790 C789 1.523 . S
C791 C775 1.429 . S
C791 C787 1.429 . S
C791 C792 1.523 . S
C792 C776 1.368 . S
C792 C788 1.368 . S
C792 C791 1.523 . S
H793 C768 0.950 . S
H794 C770 0.950 . S
H795 C771 0.949 . S
H796 C773 0.950 . S
H797 C775 0.950 . S
C798 C799 1.349 . S
C798 C800 1.327 . S
C798 H823 0.950 . S
C799 C798 1.349 . S
C799 C815 1.349 . S
C800 C798 1.327 . S
C800 C819 1.429 . S
C800 H824 0.950 . S
C801 C818 1.574 . S
C801 C820 1.368 . S
C801 H825 0.949 . S
H802 C806 0.949 . S
C803 C804 1.349 . S
C803 C805 1.327 . S
C803 H826 0.950 . S
C804 C803 1.349 . S
C804 C816 1.349 . S
C805 C803 1.327 . S
C805 C821 1.429 . S
C805 H827 0.950 . S
C806 H802 0.949 . S
C806 C814 1.543 1_556 S
C806 C822 1.368 . S
H807 C815 0.950 . S
H808 C813 0.950 . S
H809 C814 0.986 . S
H810 C816 0.950 . S
H811 C817 0.950 . S
H812 C818 0.949 . S
C813 H808 0.950 . S
C813 C815 1.327 . S
C813 C819 1.429 . S
C814 C806 1.543 1_554 S
C814 H809 0.986 . S
C814 C820 1.359 1_554 S
C815 C799 1.349 . S
C815 H807 0.950 . S
C815 C813 1.327 . S
C816 C804 1.349 . S
C816 H810 0.950 . S
C816 C817 1.327 . S
C817 H811 0.950 . S
C817 C816 1.327 . S
C817 C821 1.429 . S
C818 C801 1.574 . S
C818 H812 0.949 . S
C818 C822 1.368 . S
C819 C800 1.429 . S
C819 C813 1.429 . S
C819 C820 1.523 1_554 S
C820 C801 1.368 . S
C820 C814 1.359 1_556 S
C820 C819 1.523 1_556 S
C821 C805 1.429 . S
C821 C817 1.429 . S
C821 C822 1.523 . S
C822 C806 1.368 . S
C822 C818 1.368 . S
C822 C821 1.523 . S
H823 C798 0.950 . S
H824 C800 0.950 . S
H825 C801 0.949 . S
H826 C803 0.950 . S
H827 C805 0.950 . S
C828 C829 1.349 . S
C828 C830 1.327 . S
C828 H853 0.950 . S
C829 C828 1.349 . S
C829 C845 1.349 . S
C830 C828 1.327 . S
C830 C849 1.429 . S
C830 H854 0.950 . S
C831 C848 1.574 . S
C831 C850 1.368 . S
C831 H855 0.949 . S
H832 C836 0.949 . S
C833 C834 1.349 . S
C833 C835 1.327 . S
C833 H856 0.950 . S
C834 C833 1.349 . S
C834 C846 1.349 . S
C835 C833 1.327 . S
C835 C851 1.429 . S
C835 H857 0.950 . S
C836 H832 0.949 . S
C836 C844 1.574 . S
C836 C852 1.368 . S
H837 C845 0.950 . S
H838 C843 0.950 . S
H839 C844 0.949 . S
H840 C846 0.950 . S
H841 C847 0.950 . S
H842 C848 0.949 . S
C843 H838 0.950 . S
C843 C845 1.327 . S
C843 C849 1.429 . S
C844 C836 1.574 . S
C844 H839 0.949 . S
C844 C850 1.368 . S
C845 C829 1.349 . S
C845 H837 0.950 . S
C845 C843 1.327 . S
C846 C834 1.349 . S
C846 H840 0.950 . S
C846 C847 1.327 . S
C847 H841 0.950 . S
C847 C846 1.327 . S
C847 C851 1.429 . S
C848 C831 1.574 . S
C848 H842 0.949 . S
C848 C852 1.368 . S
C849 C830 1.429 . S
C849 C843 1.429 . S
C849 C850 1.523 . S
C850 C831 1.368 . S
C850 C844 1.368 . S
C850 C849 1.523 . S
C851 C835 1.429 . S
C851 C847 1.429 . S
C851 C852 1.523 . S
C852 C836 1.368 . S
C852 C848 1.368 . S
C852 C851 1.523 . S
H853 C828 0.950 . S
H854 C830 0.950 . S
H855 C831 0.949 . S
H856 C833 0.950 . S
H857 C835 0.950 . S
C858 C859 1.349 . S
C858 C860 1.327 . S
C858 H883 0.950 . S
C859 C858 1.349 . S
C859 C875 1.349 . S
C860 C858 1.327 . S
C860 C879 1.429 . S
C860 H884 0.950 . S
C861 C878 1.574 . S
C861 C880 1.368 . S
C861 H885 0.949 . S
H862 C866 0.949 . S
C863 C864 1.349 1_455 S
C863 C865 1.327 . S
C863 H886 0.950 . S
C864 C863 1.349 1_655 S
C864 C876 1.349 . S
C865 C863 1.327 . S
C865 C881 1.429 . S
C865 H887 0.950 . S
C866 H862 0.949 . S
C866 C874 1.574 . S
C866 C882 1.368 . S
H867 C875 0.950 . S
H868 C873 0.950 . S
H869 C874 0.949 . S
H870 C876 0.950 . S
H871 C877 0.949 . S
H872 C878 0.949 . S
C873 H868 0.950 . S
C873 C875 1.327 . S
C873 C879 1.429 . S
C874 C866 1.574 . S
C874 H869 0.949 . S
C874 C880 1.368 . S
C875 C859 1.349 . S
C875 H867 0.950 . S
C875 C873 1.327 . S
C876 C864 1.349 . S
C876 H870 0.950 . S
C876 C877 1.327 . S
C877 H871 0.949 . S
C877 C876 1.327 . S
C877 C881 1.429 1_655 S
C878 C861 1.574 . S
C878 H872 0.949 . S
C878 C882 1.368 . S
C879 C860 1.429 . S
C879 C873 1.429 . S
C879 C880 1.523 . S
C880 C861 1.368 . S
C880 C874 1.368 . S
C880 C879 1.523 . S
C881 C865 1.429 . S
C881 C877 1.429 1_455 S
C881 C882 1.523 . S
C882 C866 1.368 . S
C882 C878 1.368 . S
C882 C881 1.523 . S
H883 C858 0.950 . S
H884 C860 0.950 . S
H885 C861 0.949 . S
H886 C863 0.950 . S
H887 C865 0.950 . S
C888 C889 1.349 . S
C888 C890 1.327 . S
C888 H913 0.950 . S
C889 C888 1.349 . S
C889 C905 1.349 . S
C890 C888 1.327 . S
C890 C909 1.429 . S
C890 H914 0.950 . S
C891 C908 1.574 . S
C891 C910 1.368 . S
C891 H915 0.949 . S
H892 C896 0.949 . S
C893 C894 1.349 . S
C893 C895 1.327 . S
C893 H916 0.950 . S
C894 C893 1.349 . S
C894 C906 1.349 1_655 S
C895 C893 1.327 . S
C895 C911 1.429 1_655 S
C895 H917 0.950 . S
C896 H892 0.949 . S
C896 C904 1.574 . S
C896 C912 1.368 . S
H897 C905 0.950 . S
H898 C903 0.950 . S
H899 C904 0.949 . S
H900 C906 0.950 . S
H901 C907 0.950 . S
H902 C908 0.949 . S
C903 H898 0.950 . S
C903 C905 1.327 . S
C903 C909 1.429 . S
C904 C896 1.574 . S
C904 H899 0.949 . S
C904 C910 1.368 . S
C905 C889 1.349 . S
C905 H897 0.950 . S
C905 C903 1.327 . S
C906 C894 1.349 1_455 S
C906 H900 0.950 . S
C906 C907 1.327 . S
C907 H901 0.950 . S
C907 C906 1.327 . S
C907 C911 1.429 . S
C908 C891 1.574 . S
C908 H902 0.949 . S
C908 C912 1.368 . S
C909 C890 1.429 . S
C909 C903 1.429 . S
C909 C910 1.523 . S
C910 C891 1.368 . S
C910 C904 1.368 . S
C910 C909 1.523 . S
C911 C895 1.429 1_455 S
C911 C907 1.429 . S
C911 C912 1.523 . S
C912 C896 1.368 . S
C912 C908 1.368 . S
C912 C911 1.523 . S
H913 C888 0.950 . S
H914 C890 0.950 . S
H915 C891 0.949 . S
H916 C893 0.950 . S
H917 C895 0.950 . S
C918 C919 1.349 . S
C918 C920 1.327 . S
C918 H943 0.950 . S
C919 C918 1.349 . S
C919 C935 1.349 . S
C920 C918 1.327 . S
C920 C939 1.429 . S
C920 H944 0.950 . S
C921 C938 1.574 . S
C921 C940 1.368 . S
C921 H945 0.949 . S
H922 C926 0.949 . S
C923 C924 1.349 . S
C923 C925 1.327 . S
C923 H946 0.950 . S
C924 C923 1.349 . S
C924 C936 1.349 . S
C925 C923 1.327 . S
C925 C941 1.429 . S
C925 H947 0.950 . S
C926 H922 0.949 . S
C926 C934 1.574 . S
C926 C942 1.368 . S
H927 C935 0.950 . S
H928 C933 0.950 . S
H929 C934 0.949 . S
H930 C936 0.950 . S
H931 C937 0.950 . S
H932 C938 0.949 . S
C933 H928 0.950 . S
C933 C935 1.327 . S
C933 C939 1.429 . S
C934 C926 1.574 . S
C934 H929 0.949 . S
C934 C940 1.368 . S
C935 C919 1.349 . S
C935 H927 0.950 . S
C935 C933 1.327 . S
C936 C924 1.349 . S
C936 H930 0.950 . S
C936 C937 1.327 . S
C937 H931 0.950 . S
C937 C936 1.327 . S
C937 C941 1.429 . S
C938 C921 1.574 . S
C938 H932 0.949 . S
C938 C942 1.368 . S
C939 C920 1.429 . S
C939 C933 1.429 . S
C939 C940 1.523 . S
C940 C921 1.368 . S
C940 C934 1.368 . S
C940 C939 1.523 . S
C941 C925 1.429 . S
C941 C937 1.429 . S
C941 C942 1.523 . S
C942 C926 1.368 . S
C942 C938 1.368 . S
C942 C941 1.523 . S
H943 C918 0.950 . S
H944 C920 0.950 . S
H945 C921 0.949 . S
H946 C923 0.950 . S
H947 C925 0.950 . S
C948 C949 1.349 . S
C948 C950 1.327 . S
C948 H973 0.950 . S
C949 C948 1.349 . S
C949 C965 1.349 . S
C950 C948 1.327 . S
C950 C969 1.429 . S
C950 H974 0.950 . S
C951 C968 1.574 . S
C951 C970 1.368 . S
C951 H975 0.949 . S
H952 C956 0.949 . S
C953 C954 1.349 . S
C953 C955 1.327 . S
C953 H976 0.950 . S
C954 C953 1.349 . S
C954 C966 1.349 . S
C955 C953 1.327 . S
C955 C971 1.429 . S
C955 H977 0.950 . S
C956 H952 0.949 . S
C956 C964 1.574 . S
C956 C972 1.368 . S
H957 C965 0.950 . S
H958 C963 0.953 1_556 S
H959 C964 0.949 1_554 S
H960 C966 0.950 . S
H961 C967 0.950 . S
H962 C968 0.949 . S
C963 H958 0.953 1_554 S
C963 C965 1.324 . S
C963 C969 1.428 . S
C964 C956 1.574 . S
C964 H959 0.949 1_556 S
C964 C970 1.368 . S
C965 C949 1.349 . S
C965 H957 0.950 . S
C965 C963 1.324 . S
C966 C954 1.349 . S
C966 H960 0.950 . S
C966 C967 1.327 . S
C967 H961 0.950 . S
C967 C966 1.327 . S
C967 C971 1.429 . S
C968 C951 1.574 . S
C968 H962 0.949 . S
C968 C972 1.368 . S
C969 C950 1.429 . S
C969 C963 1.428 . S
C969 C970 1.523 1_554 S
C970 C951 1.368 . S
C970 C964 1.368 . S
C970 C969 1.523 1_556 S
C971 C955 1.429 . S
C971 C967 1.429 . S
C971 C972 1.523 . S
C972 C956 1.368 . S
C972 C968 1.368 . S
C972 C971 1.523 . S
H973 C948 0.950 . S
H974 C950 0.950 . S
H975 C951 0.949 . S
H976 C953 0.950 . S
H977 C955 0.950 . S
C978 C979 1.349 . S
C978 C980 1.327 . S
C978 H1003 0.950 . S
C979 C978 1.349 . S
C979 C995 1.349 . S
C980 C978 1.327 . S
C980 C999 1.429 . S
C980 H1004 0.950 . S
C981 C998 1.574 . S
C981 C1000 1.368 . S
C981 H1005 0.949 . S
H982 C986 0.949 . S
C983 C984 1.349 . S
C983 C985 1.327 . S
C983 H1006 0.950 . S
C984 C983 1.349 . S
C984 C996 1.349 . S
C985 C983 1.327 . S
C985 C1001 1.429 . S
C985 H1007 0.950 . S
C986 H982 0.949 . S
C986 C994 1.574 . S
C986 C1002 1.368 . S
H987 C995 0.950 . S
H988 C993 0.950 . S
H989 C994 0.949 . S
H990 C996 0.950 . S
H991 C997 0.950 . S
H992 C998 0.949 . S
C993 H988 0.950 . S
C993 C995 1.327 . S
C993 C999 1.429 . S
C994 C986 1.574 . S
C994 H989 0.949 . S
C994 C1000 1.368 . S
C995 C979 1.349 . S
C995 H987 0.950 . S
C995 C993 1.327 . S
C996 C984 1.349 . S
C996 H990 0.950 . S
C996 C997 1.327 . S
C997 H991 0.950 . S
C997 C996 1.327 . S
C997 C1001 1.429 . S
C998 C981 1.574 . S
C998 H992 0.949 . S
C998 C1002 1.368 . S
C999 C980 1.429 . S
C999 C993 1.429 . S
C999 C1000 1.523 . S
C1000 C981 1.368 . S
C1000 C994 1.368 . S
C1000 C999 1.523 . S
C1001 C985 1.429 . S
C1001 C997 1.429 . S
C1001 C1002 1.523 . S
C1002 C986 1.368 . S
C1002 C998 1.368 . S
C1002 C1001 1.523 . S
H1003 C978 0.950 . S
H1004 C980 0.950 . S
H1005 C981 0.949 . S
H1006 C983 0.950 . S
H1007 C985 0.950 . S
C1008 C1009 1.349 . S
C1008 C1010 1.327 . S
C1008 H1033 0.950 . S
C1009 C1008 1.349 . S
C1009 C1025 1.349 . S
C1010 C1008 1.327 . S
C1010 C1029 1.429 . S
C1010 H1034 0.950 . S
C1011 C1028 1.574 . S
C1011 C1030 1.368 1_556 S
C1011 H1035 0.949 . S
H1012 C1016 0.949 . S
C1013 C1014 1.349 . S
C1013 C1015 1.327 . S
C1013 H1036 0.950 . S
C1014 C1013 1.349 . S
C1014 C1026 1.349 . S
C1015 C1013 1.327 . S
C1015 C1031 1.429 . S
C1015 H1037 0.950 . S
C1016 H1012 0.949 . S
C1016 C1024 1.574 1_556 S
C1016 C1032 1.368 . S
H1017 C1025 0.950 . S
H1018 C1023 0.950 . S
H1019 C1024 0.949 . S
H1020 C1026 0.950 . S
H1021 C1027 0.950 . S
H1022 C1028 0.949 . S
C1023 H1018 0.950 . S
C1023 C1025 1.327 . S
C1023 C1029 1.429 . S
C1024 C1016 1.574 1_554 S
C1024 H1019 0.949 . S
C1024 C1030 1.368 . S
C1025 C1009 1.349 . S
C1025 H1017 0.950 . S
C1025 C1023 1.327 . S
C1026 C1014 1.349 . S
C1026 H1020 0.950 . S
C1026 C1027 1.327 . S
C1027 H1021 0.950 . S
C1027 C1026 1.327 . S
C1027 C1031 1.429 . S
C1028 C1011 1.574 . S
C1028 H1022 0.949 . S
C1028 C1032 1.368 . S
C1029 C1010 1.429 . S
C1029 C1023 1.429 . S
C1029 C1030 1.523 . S
C1030 C1011 1.368 1_554 S
C1030 C1024 1.368 . S
C1030 C1029 1.523 . S
C1031 C1015 1.429 . S
C1031 C1027 1.429 . S
C1031 C1032 1.523 . S
C1032 C1016 1.368 . S
C1032 C1028 1.368 . S
C1032 C1031 1.523 . S
H1033 C1008 0.950 . S
H1034 C1010 0.950 . S
H1035 C1011 0.949 . S
H1036 C1013 0.950 . S
H1037 C1015 0.950 . S
C1038 C1039 1.349 . S
C1038 C1040 1.327 . S
C1038 H1063 0.950 . S
C1039 C1038 1.349 . S
C1039 C1055 1.349 . S
C1040 C1038 1.327 . S
C1040 C1059 1.429 . S
C1040 H1064 0.950 . S
C1041 C1058 1.574 . S
C1041 C1060 1.368 . S
C1041 H1065 0.949 . S
H1042 C1046 0.949 . S
C1043 C1044 1.349 . S
C1043 C1045 1.327 . S
C1043 H1066 0.950 . S
C1044 C1043 1.349 . S
C1044 C1056 1.349 . S
C1045 C1043 1.327 . S
C1045 C1061 1.429 . S
C1045 H1067 0.950 . S
C1046 H1042 0.949 . S
C1046 C1054 1.574 . S
C1046 C1062 1.368 . S
H1047 C1055 0.950 . S
H1048 C1053 0.950 . S
H1049 C1054 0.949 . S
H1050 C1056 0.950 . S
H1051 C1057 0.950 . S
H1052 C1058 0.949 . S
C1053 H1048 0.950 . S
C1053 C1055 1.327 . S
C1053 C1059 1.429 . S
C1054 C1046 1.574 . S
C1054 H1049 0.949 . S
C1054 C1060 1.368 . S
C1055 C1039 1.349 . S
C1055 H1047 0.950 . S
C1055 C1053 1.327 . S
C1056 C1044 1.349 . S
C1056 H1050 0.950 . S
C1056 C1057 1.327 . S
C1057 H1051 0.950 . S
C1057 C1056 1.327 . S
C1057 C1061 1.429 . S
C1058 C1041 1.574 . S
C1058 H1052 0.949 . S
C1058 C1062 1.368 . S
C1059 C1040 1.429 . S
C1059 C1053 1.429 . S
C1059 C1060 1.523 . S
C1060 C1041 1.368 . S
C1060 C1054 1.368 . S
C1060 C1059 1.523 . S
C1061 C1045 1.429 . S
C1061 C1057 1.429 . S
C1061 C1062 1.523 . S
C1062 C1046 1.368 . S
C1062 C1058 1.368 . S
C1062 C1061 1.523 . S
H1063 C1038 0.950 . S
H1064 C1040 0.950 . S
H1065 C1041 0.949 . S
H1066 C1043 0.950 . S
H1067 C1045 0.950 . S
C1068 C1069 1.349 . S
C1068 C1070 1.327 . S
C1068 H1093 0.950 . S
C1069 C1068 1.349 . S
C1069 C1085 1.349 . S
C1070 C1068 1.327 . S
C1070 C1089 1.429 . S
C1070 H1094 0.950 . S
C1071 C1088 1.574 . S
C1071 C1090 1.368 . S
C1071 H1095 0.949 . S
H1072 C1076 0.949 . S
C1073 C1074 1.349 . S
C1073 C1075 1.327 . S
C1073 H1096 0.950 . S
C1074 C1073 1.349 . S
C1074 C1086 1.349 . S
C1075 C1073 1.327 . S
C1075 C1091 1.429 . S
C1075 H1097 0.950 . S
C1076 H1072 0.949 . S
C1076 C1084 1.574 . S
C1076 C1092 1.368 . S
H1077 C1085 0.950 . S
H1078 C1083 0.950 . S
H1079 C1084 0.949 . S
H1080 C1086 0.950 . S
H1081 C1087 0.950 . S
H1082 C1088 0.949 . S
C1083 H1078 0.950 . S
C1083 C1085 1.327 . S
C1083 C1089 1.429 . S
C1084 C1076 1.574 . S
C1084 H1079 0.949 . S
C1084 C1090 1.368 . S
C1085 C1069 1.349 . S
C1085 H1077 0.950 . S
C1085 C1083 1.327 . S
C1086 C1074 1.349 . S
C1086 H1080 0.950 . S
C1086 C1087 1.327 . S
C1087 H1081 0.950 . S
C1087 C1086 1.327 . S
C1087 C1091 1.429 . S
C1088 C1071 1.574 . S
C1088 H1082 0.949 . S
C1088 C1092 1.368 . S
C1089 C1070 1.429 . S
C1089 C1083 1.429 . S
C1089 C1090 1.523 . S
C1090 C1071 1.368 . S
C1090 C1084 1.368 . S
C1090 C1089 1.523 . S
C1091 C1075 1.429 . S
C1091 C1087 1.429 . S
C1091 C1092 1.523 . S
C1092 C1076 1.368 . S
C1092 C1088 1.368 . S
C1092 C1091 1.523 . S
H1093 C1068 0.950 . S
H1094 C1070 0.950 . S
H1095 C1071 0.949 . S
H1096 C1073 0.950 . S
H1097 C1075 0.950 . S
C1098 C1099 1.349 . S
C1098 C1100 1.327 . S
C1098 H1123 0.950 . S
C1099 C1098 1.349 . S
C1099 C1115 1.349 . S
C1100 C1098 1.327 . S
C1100 C1119 1.429 . S
C1100 H1124 0.950 . S
C1101 C1118 1.574 . S
C1101 C1120 1.368 . S
C1101 H1125 0.949 . S
H1102 C1106 0.949 . S
C1103 C1104 1.349 . S
C1103 C1105 1.327 . S
C1103 H1126 0.950 . S
C1104 C1103 1.349 . S
C1104 C1116 1.349 . S
C1105 C1103 1.327 . S
C1105 C1121 1.429 . S
C1105 H1127 0.950 . S
C1106 H1102 0.949 . S
C1106 C1114 1.574 . S
C1106 C1122 1.368 . S
H1107 C1115 0.950 . S
H1108 C1113 0.950 . S
H1109 C1114 0.949 . S
H1110 C1116 0.950 . S
H1111 C1117 0.950 . S
H1112 C1118 0.949 . S
C1113 H1108 0.950 . S
C1113 C1115 1.327 . S
C1113 C1119 1.429 . S
C1114 C1106 1.574 . S
C1114 H1109 0.949 . S
C1114 C1120 1.368 . S
C1115 C1099 1.349 . S
C1115 H1107 0.950 . S
C1115 C1113 1.327 . S
C1116 C1104 1.349 . S
C1116 H1110 0.950 . S
C1116 C1117 1.327 . S
C1117 H1111 0.950 . S
C1117 C1116 1.327 . S
C1117 C1121 1.429 . S
C1118 C1101 1.574 . S
C1118 H1112 0.949 . S
C1118 C1122 1.368 . S
C1119 C1100 1.429 . S
C1119 C1113 1.429 . S
C1119 C1120 1.523 . S
C1120 C1101 1.368 . S
C1120 C1114 1.368 . S
C1120 C1119 1.523 . S
C1121 C1105 1.429 . S
C1121 C1117 1.429 . S
C1121 C1122 1.523 . S
C1122 C1106 1.368 . S
C1122 C1118 1.368 . S
C1122 C1121 1.523 . S
H1123 C1098 0.950 . S
H1124 C1100 0.950 . S
H1125 C1101 0.949 . S
H1126 C1103 0.950 . S
H1127 C1105 0.950 . S
C1128 C1129 1.349 . S
C1128 C1130 1.327 . S
C1128 H1153 0.950 1_655 S
C1129 C1128 1.349 . S
C1129 C1145 1.349 . S
C1130 C1128 1.327 . S
C1130 C1149 1.429 . S
C1130 H1154 0.950 1_655 S
C1131 C1148 1.574 . S
C1131 C1150 1.368 . S
C1131 H1155 0.949 . S
H1132 C1136 0.949 . S
C1133 C1134 1.349 . S
C1133 C1135 1.327 . S
C1133 H1156 0.950 . S
C1134 C1133 1.349 . S
C1134 C1146 1.349 . S
C1135 C1133 1.327 . S
C1135 C1151 1.429 . S
C1135 H1157 0.950 . S
C1136 H1132 0.949 . S
C1136 C1144 1.574 . S
C1136 C1152 1.368 . S
H1137 C1145 0.950 . S
H1138 C1143 0.950 . S
H1139 C1144 0.949 1_455 S
H1140 C1146 0.950 . S
H1141 C1147 0.950 . S
H1142 C1148 0.949 . S
C1143 H1138 0.950 . S
C1143 C1145 1.327 . S
C1143 C1149 1.429 . S
C1144 C1136 1.574 . S
C1144 H1139 0.949 1_655 S
C1144 C1150 1.368 . S
C1145 C1129 1.349 . S
C1145 H1137 0.950 . S
C1145 C1143 1.327 . S
C1146 C1134 1.349 . S
C1146 H1140 0.950 . S
C1146 C1147 1.327 . S
C1147 H1141 0.950 . S
C1147 C1146 1.327 . S
C1147 C1151 1.429 . S
C1148 C1131 1.574 . S
C1148 H1142 0.949 . S
C1148 C1152 1.368 . S
C1149 C1130 1.429 . S
C1149 C1143 1.429 . S
C1149 C1150 1.523 . S
C1150 C1131 1.368 . S
C1150 C1144 1.368 . S
C1150 C1149 1.523 . S
C1151 C1135 1.429 . S
C1151 C1147 1.429 . S
C1151 C1152 1.523 . S
C1152 C1136 1.368 . S
C1152 C1148 1.368 . S
C1152 C1151 1.523 . S
H1153 C1128 0.950 1_455 S
H1154 C1130 0.950 1_455 S
H1155 C1131 0.949 . S
H1156 C1133 0.950 . S
H1157 C1135 0.950 . S
C1158 C1159 1.349 . S
C1158 C1160 1.327 . S
C1158 H1183 0.950 . S
C1159 C1158 1.349 . S
C1159 C1175 1.349 1_545 S
C1160 C1158 1.327 . S
C1160 C1179 1.429 1_545 S
C1160 H1184 0.950 . S
C1161 C1178 1.574 . S
C1161 C1180 1.368 . S
C1161 H1185 0.949 . S
H1162 C1166 0.949 1_545 S
C1163 C1164 1.349 . S
C1163 C1165 1.327 . S
C1163 H1186 0.950 . S
C1164 C1163 1.349 . S
C1164 C1176 1.349 . S
C1165 C1163 1.327 . S
C1165 C1181 1.429 . S
C1165 H1187 0.950 . S
C1166 H1162 0.949 1_565 S
C1166 C1174 1.574 1_565 S
C1166 C1182 1.368 . S
H1167 C1175 0.950 . S
H1168 C1173 0.950 . S
H1169 C1174 0.949 . S
H1170 C1176 0.950 . S
H1171 C1177 0.950 . S
H1172 C1178 0.949 . S
C1173 H1168 0.950 . S
C1173 C1175 1.327 . S
C1173 C1179 1.429 . S
C1174 C1166 1.574 1_545 S
C1174 H1169 0.949 . S
C1174 C1180 1.368 1_545 S
C1175 C1159 1.349 1_565 S
C1175 H1167 0.950 . S
C1175 C1173 1.327 . S
C1176 C1164 1.349 . S
C1176 H1170 0.950 . S
C1176 C1177 1.327 . S
C1177 H1171 0.950 . S
C1177 C1176 1.327 . S
C1177 C1181 1.429 . S
C1178 C1161 1.574 . S
C1178 H1172 0.949 . S
C1178 C1182 1.368 . S
C1179 C1160 1.429 1_565 S
C1179 C1173 1.429 . S
C1179 C1180 1.523 . S
C1180 C1161 1.368 . S
C1180 C1174 1.368 1_565 S
C1180 C1179 1.523 . S
C1181 C1165 1.429 . S
C1181 C1177 1.429 . S
C1181 C1182 1.523 . S
C1182 C1166 1.368 . S
C1182 C1178 1.368 . S
C1182 C1181 1.523 . S
H1183 C1158 0.950 . S
H1184 C1160 0.950 . S
H1185 C1161 0.949 . S
H1186 C1163 0.950 . S
H1187 C1165 0.950 . S
C1188 C1189 1.349 . S
C1188 C1190 1.327 . S
C1188 H1213 0.950 . S
C1189 C1188 1.349 . S
C1189 C1205 1.349 . S
C1190 C1188 1.327 . S
C1190 C1209 1.429 . S
C1190 H1214 0.950 . S
C1191 C1208 1.574 . S
C1191 C1210 1.368 . S
C1191 H1215 0.949 . S
H1192 C1196 0.949 . S
C1193 C1194 1.349 . S
C1193 C1195 1.327 . S
C1193 H1216 0.950 . S
C1194 C1193 1.349 . S
C1194 C1206 1.349 . S
C1195 C1193 1.327 . S
C1195 C1211 1.429 . S
C1195 H1217 0.950 . S
C1196 H1192 0.949 . S
C1196 C1204 1.574 . S
C1196 C1212 1.368 . S
H1197 C1205 0.950 . S
H1198 C1203 0.950 . S
H1199 C1204 0.949 . S
H1200 C1206 0.950 . S
H1201 C1207 0.950 . S
H1202 C1208 0.949 . S
C1203 H1198 0.950 . S
C1203 C1205 1.327 . S
C1203 C1209 1.429 . S
C1204 C1196 1.574 . S
C1204 H1199 0.949 . S
C1204 C1210 1.368 . S
C1205 C1189 1.349 . S
C1205 H1197 0.950 . S
C1205 C1203 1.327 . S
C1206 C1194 1.349 . S
C1206 H1200 0.950 . S
C1206 C1207 1.327 . S
C1207 H1201 0.950 . S
C1207 C1206 1.327 . S
C1207 C1211 1.429 . S
C1208 C1191 1.574 . S
C1208 H1202 0.949 . S
C1208 C1212 1.368 . S
C1209 C1190 1.429 . S
C1209 C1203 1.429 . S
C1209 C1210 1.523 . S
C1210 C1191 1.368 . S
C1210 C1204 1.368 . S
C1210 C1209 1.523 . S
C1211 C1195 1.429 . S
C1211 C1207 1.429 . S
C1211 C1212 1.523 . S
C1212 C1196 1.368 . S
C1212 C1208 1.368 . S
C1212 C1211 1.523 . S
H1213 C1188 0.950 . S
H1214 C1190 0.950 . S
H1215 C1191 0.949 . S
H1216 C1193 0.950 . S
H1217 C1195 0.950 . S
C1218 C1219 1.349 . S
C1218 C1220 1.327 . S
C1218 H1243 0.950 . S
C1219 C1218 1.349 . S
C1219 C1235 1.349 . S
C1220 C1218 1.327 . S
C1220 C1239 1.429 . S
C1220 H1244 0.950 . S
C1221 C1238 1.574 . S
C1221 C1240 1.368 . S
C1221 H1245 0.949 . S
H1222 C1226 0.949 . S
C1223 C1224 1.349 . S
C1223 C1225 1.327 . S
C1223 H1246 0.950 . S
C1224 C1223 1.349 . S
C1224 C1236 1.349 . S
C1225 C1223 1.327 . S
C1225 C1241 1.429 . S
C1225 H1247 0.950 . S
C1226 H1222 0.949 . S
C1226 C1234 1.574 . S
C1226 C1242 1.368 . S
H1227 C1235 0.950 . S
H1228 C1233 0.950 . S
H1229 C1234 0.949 . S
H1230 C1236 0.950 . S
H1231 C1237 0.950 . S
H1232 C1238 0.949 . S
C1233 H1228 0.950 . S
C1233 C1235 1.327 . S
C1233 C1239 1.429 . S
C1234 C1226 1.574 . S
C1234 H1229 0.949 . S
C1234 C1240 1.368 . S
C1235 C1219 1.349 . S
C1235 H1227 0.950 . S
C1235 C1233 1.327 . S
C1236 C1224 1.349 . S
C1236 H1230 0.950 . S
C1236 C1237 1.327 . S
C1237 H1231 0.950 . S
C1237 C1236 1.327 . S
C1237 C1241 1.429 . S
C1238 C1221 1.574 . S
C1238 H1232 0.949 . S
C1238 C1242 1.368 . S
C1239 C1220 1.429 . S
C1239 C1233 1.429 . S
C1239 C1240 1.523 . S
C1240 C1221 1.368 . S
C1240 C1234 1.368 . S
C1240 C1239 1.523 . S
C1241 C1225 1.429 . S
C1241 C1237 1.429 . S
C1241 C1242 1.523 . S
C1242 C1226 1.368 . S
C1242 C1238 1.368 . S
C1242 C1241 1.523 . S
H1243 C1218 0.950 . S
H1244 C1220 0.950 . S
H1245 C1221 0.949 . S
H1246 C1223 0.950 . S
H1247 C1225 0.950 . S
C529 C13 2.197 . S
C534 C147 2.144 . S
C559 C27 1.351 . S
C564 C221 1.318 . S
C594 C271 1.805 . S
C589 C29 1.857 . S
C624 C357 1.223 . S
C619 C54 1.233 . S
C654 C449 1.940 . S
C649 C69 1.938 . S
C684 C493 1.889 . S
C679 C83 1.936 . S
C709 C15 1.174 . S
C714 C295 1.128 . S
C739 C41 2.597 . S
C744 C375 2.565 . S
C774 C431 1.393 . S
C769 C42 1.396 . S
C804 C517 1.461 . S
C799 C57 1.494 . S
C829 C71 2.153 . S
C834 C123 2.071 . S
C864 C197 1.915 . S
C859 C1 1.940 . S
C894 C369 1.864 . S
C889 C12 2.021 . S
C919 C26 2.169 . S
C924 C419 2.019 . S
C954 C523 2.348 . S
C949 C28 2.447 . S
C979 C55 1.427 . S
C984 C135 1.387 . S
C1009 C68 1.936 . S
C1014 C209 1.850 . S
C1039 C82 2.475 . S
C1044 C301 2.381 . S
C1069 C14 1.937 . S
C1074 C505 1.848 . S
C1104 C153 2.245 . S
C1099 C40 2.280 . S
C1129 C43 2.421 . S
C1134 C227 2.313 . S
C1159 C56 1.664 . S
C1164 C283 1.570 . S
C1189 C70 1.625 . S
C1194 C345 1.495 . S
C1219 C0 2.109 . S
C1224 C443 1.974 . S
