# Generated by pormake.
# Topology ptr, (4,4)-cn, num edge types: 1
# Building blocks:
#     Node 0, Type 0, BuildingBlock: NAHDIM_clean_sbu_0, # of connection points: 4
#     Node 1, Type 0, BuildingBlock: NAHDIM_clean_sbu_0, # of connection points: 4
#     Node 2, Type 0, BuildingBlock: NAHDIM_clean_sbu_0, # of connection points: 4
#     Node 3, Type 0, BuildingBlock: NAHDIM_clean_sbu_0, # of connection points: 4
#     Node 4, Type 0, BuildingBlock: NAHDIM_clean_sbu_0, # of connection points: 4
#     Node 5, Type 0, BuildingBlock: NAHDIM_clean_sbu_0, # of connection points: 4
#     Node 6, Type 0, BuildingBlock: NAHDIM_clean_sbu_0, # of connection points: 4
#     Node 7, Type 0, BuildingBlock: NAHDIM_clean_sbu_0, # of connection points: 4
#     Node 8, Type 0, BuildingBlock: NAHDIM_clean_sbu_0, # of connection points: 4
#     Node 9, Type 0, BuildingBlock: NAHDIM_clean_sbu_0, # of connection points: 4
#     Node 10, Type 0, BuildingBlock: NAHDIM_clean_sbu_0, # of connection points: 4
#     Node 11, Type 0, BuildingBlock: NAHDIM_clean_sbu_0, # of connection points: 4
#     Node 12, Type 0, BuildingBlock: NAHDIM_clean_sbu_0, # of connection points: 4
#     Node 13, Type 0, BuildingBlock: NAHDIM_clean_sbu_0, # of connection points: 4
#     Node 14, Type 0, BuildingBlock: NAHDIM_clean_sbu_0, # of connection points: 4
#     Node 15, Type 0, BuildingBlock: NAHDIM_clean_sbu_0, # of connection points: 4
#     Node 16, Type 0, BuildingBlock: NAHDIM_clean_sbu_0, # of connection points: 4
#     Node 17, Type 0, BuildingBlock: NAHDIM_clean_sbu_0, # of connection points: 4
#     Node 18, Type 1, BuildingBlock: MIFKUJ_clean_linker_1, # of connection points: 4
#     Node 19, Type 1, BuildingBlock: MIFKUJ_clean_linker_1, # of connection points: 4
#     Node 20, Type 1, BuildingBlock: MIFKUJ_clean_linker_1, # of connection points: 4
#     Node 21, Type 1, BuildingBlock: MIFKUJ_clean_linker_1, # of connection points: 4
#     Node 22, Type 1, BuildingBlock: MIFKUJ_clean_linker_1, # of connection points: 4
#     Node 23, Type 1, BuildingBlock: MIFKUJ_clean_linker_1, # of connection points: 4
#     Node 24, Type 1, BuildingBlock: MIFKUJ_clean_linker_1, # of connection points: 4
#     Node 25, Type 1, BuildingBlock: MIFKUJ_clean_linker_1, # of connection points: 4
#     Node 26, Type 1, BuildingBlock: MIFKUJ_clean_linker_1, # of connection points: 4
#     Node 27, Type 1, BuildingBlock: MIFKUJ_clean_linker_1, # of connection points: 4
#     Node 28, Type 1, BuildingBlock: MIFKUJ_clean_linker_1, # of connection points: 4
#     Node 29, Type 1, BuildingBlock: MIFKUJ_clean_linker_1, # of connection points: 4
#     Node 30, Type 1, BuildingBlock: MIFKUJ_clean_linker_1, # of connection points: 4
#     Node 31, Type 1, BuildingBlock: MIFKUJ_clean_linker_1, # of connection points: 4
#     Node 32, Type 1, BuildingBlock: MIFKUJ_clean_linker_1, # of connection points: 4
#     Node 33, Type 1, BuildingBlock: MIFKUJ_clean_linker_1, # of connection points: 4
#     Node 34, Type 1, BuildingBlock: MIFKUJ_clean_linker_1, # of connection points: 4
#     Node 35, Type 1, BuildingBlock: MIFKUJ_clean_linker_1, # of connection points: 4
#     Edge 36, Type (0, 1), BuildingBlock: OJICUG_clean_linker_0, # of connection points: 2
#     Edge 37, Type (0, 1), BuildingBlock: OJICUG_clean_linker_0, # of connection points: 2
#     Edge 38, Type (0, 1), BuildingBlock: OJICUG_clean_linker_0, # of connection points: 2
#     Edge 39, Type (0, 1), BuildingBlock: OJICUG_clean_linker_0, # of connection points: 2
#     Edge 40, Type (0, 1), BuildingBlock: OJICUG_clean_linker_0, # of connection points: 2
#     Edge 41, Type (0, 1), BuildingBlock: OJICUG_clean_linker_0, # of connection points: 2
#     Edge 42, Type (0, 1), BuildingBlock: OJICUG_clean_linker_0, # of connection points: 2
#     Edge 43, Type (0, 1), BuildingBlock: OJICUG_clean_linker_0, # of connection points: 2
#     Edge 44, Type (0, 1), BuildingBlock: OJICUG_clean_linker_0, # of connection points: 2
#     Edge 45, Type (0, 1), BuildingBlock: OJICUG_clean_linker_0, # of connection points: 2
#     Edge 46, Type (0, 1), BuildingBlock: OJICUG_clean_linker_0, # of connection points: 2
#     Edge 47, Type (0, 1), BuildingBlock: OJICUG_clean_linker_0, # of connection points: 2
#     Edge 48, Type (0, 1), BuildingBlock: OJICUG_clean_linker_0, # of connection points: 2
#     Edge 49, Type (0, 1), BuildingBlock: OJICUG_clean_linker_0, # of connection points: 2
#     Edge 50, Type (0, 1), BuildingBlock: OJICUG_clean_linker_0, # of connection points: 2
#     Edge 51, Type (0, 1), BuildingBlock: OJICUG_clean_linker_0, # of connection points: 2
#     Edge 52, Type (0, 1), BuildingBlock: OJICUG_clean_linker_0, # of connection points: 2
#     Edge 53, Type (0, 1), BuildingBlock: OJICUG_clean_linker_0, # of connection points: 2
#     Edge 54, Type (0, 1), BuildingBlock: OJICUG_clean_linker_0, # of connection points: 2
#     Edge 55, Type (0, 1), BuildingBlock: OJICUG_clean_linker_0, # of connection points: 2
#     Edge 56, Type (0, 1), BuildingBlock: OJICUG_clean_linker_0, # of connection points: 2
#     Edge 57, Type (0, 1), BuildingBlock: OJICUG_clean_linker_0, # of connection points: 2
#     Edge 58, Type (0, 1), BuildingBlock: OJICUG_clean_linker_0, # of connection points: 2
#     Edge 59, Type (0, 1), BuildingBlock: OJICUG_clean_linker_0, # of connection points: 2
#     Edge 60, Type (0, 1), BuildingBlock: OJICUG_clean_linker_0, # of connection points: 2
#     Edge 61, Type (0, 1), BuildingBlock: OJICUG_clean_linker_0, # of connection points: 2
#     Edge 62, Type (0, 1), BuildingBlock: OJICUG_clean_linker_0, # of connection points: 2
#     Edge 63, Type (0, 1), BuildingBlock: OJICUG_clean_linker_0, # of connection points: 2
#     Edge 64, Type (0, 1), BuildingBlock: OJICUG_clean_linker_0, # of connection points: 2
#     Edge 65, Type (0, 1), BuildingBlock: OJICUG_clean_linker_0, # of connection points: 2
#     Edge 66, Type (0, 1), BuildingBlock: OJICUG_clean_linker_0, # of connection points: 2
#     Edge 67, Type (0, 1), BuildingBlock: OJICUG_clean_linker_0, # of connection points: 2
#     Edge 68, Type (0, 1), BuildingBlock: OJICUG_clean_linker_0, # of connection points: 2
#     Edge 69, Type (0, 1), BuildingBlock: OJICUG_clean_linker_0, # of connection points: 2
#     Edge 70, Type (0, 1), BuildingBlock: OJICUG_clean_linker_0, # of connection points: 2
#     Edge 71, Type (0, 1), BuildingBlock: OJICUG_clean_linker_0, # of connection points: 2
#     Edge 72, Type (0, 1), BuildingBlock: OJICUG_clean_linker_0, # of connection points: 2
#     Edge 73, Type (0, 1), BuildingBlock: OJICUG_clean_linker_0, # of connection points: 2
#     Edge 74, Type (0, 1), BuildingBlock: OJICUG_clean_linker_0, # of connection points: 2
#     Edge 75, Type (0, 1), BuildingBlock: OJICUG_clean_linker_0, # of connection points: 2
#     Edge 76, Type (0, 1), BuildingBlock: OJICUG_clean_linker_0, # of connection points: 2
#     Edge 77, Type (0, 1), BuildingBlock: OJICUG_clean_linker_0, # of connection points: 2
#     Edge 78, Type (0, 1), BuildingBlock: OJICUG_clean_linker_0, # of connection points: 2
#     Edge 79, Type (0, 1), BuildingBlock: OJICUG_clean_linker_0, # of connection points: 2
#     Edge 80, Type (0, 1), BuildingBlock: OJICUG_clean_linker_0, # of connection points: 2
#     Edge 81, Type (0, 1), BuildingBlock: OJICUG_clean_linker_0, # of connection points: 2
#     Edge 82, Type (0, 1), BuildingBlock: OJICUG_clean_linker_0, # of connection points: 2
#     Edge 83, Type (0, 1), BuildingBlock: OJICUG_clean_linker_0, # of connection points: 2
#     Edge 84, Type (0, 1), BuildingBlock: OJICUG_clean_linker_0, # of connection points: 2
#     Edge 85, Type (0, 1), BuildingBlock: OJICUG_clean_linker_0, # of connection points: 2
#     Edge 86, Type (0, 1), BuildingBlock: OJICUG_clean_linker_0, # of connection points: 2
#     Edge 87, Type (0, 1), BuildingBlock: OJICUG_clean_linker_0, # of connection points: 2
#     Edge 88, Type (0, 1), BuildingBlock: OJICUG_clean_linker_0, # of connection points: 2
#     Edge 89, Type (0, 1), BuildingBlock: OJICUG_clean_linker_0, # of connection points: 2
#     Edge 90, Type (0, 1), BuildingBlock: OJICUG_clean_linker_0, # of connection points: 2
#     Edge 91, Type (0, 1), BuildingBlock: OJICUG_clean_linker_0, # of connection points: 2
#     Edge 92, Type (0, 1), BuildingBlock: OJICUG_clean_linker_0, # of connection points: 2
#     Edge 93, Type (0, 1), BuildingBlock: OJICUG_clean_linker_0, # of connection points: 2
#     Edge 94, Type (0, 1), BuildingBlock: OJICUG_clean_linker_0, # of connection points: 2
#     Edge 95, Type (0, 1), BuildingBlock: OJICUG_clean_linker_0, # of connection points: 2
#     Edge 96, Type (0, 1), BuildingBlock: OJICUG_clean_linker_0, # of connection points: 2
#     Edge 97, Type (0, 1), BuildingBlock: OJICUG_clean_linker_0, # of connection points: 2
#     Edge 98, Type (0, 1), BuildingBlock: OJICUG_clean_linker_0, # of connection points: 2
#     Edge 99, Type (0, 1), BuildingBlock: OJICUG_clean_linker_0, # of connection points: 2
#     Edge 100, Type (0, 1), BuildingBlock: OJICUG_clean_linker_0, # of connection points: 2
#     Edge 101, Type (0, 1), BuildingBlock: OJICUG_clean_linker_0, # of connection points: 2
#     Edge 102, Type (0, 1), BuildingBlock: OJICUG_clean_linker_0, # of connection points: 2
#     Edge 103, Type (0, 1), BuildingBlock: OJICUG_clean_linker_0, # of connection points: 2
#     Edge 104, Type (0, 1), BuildingBlock: OJICUG_clean_linker_0, # of connection points: 2
#     Edge 105, Type (0, 1), BuildingBlock: OJICUG_clean_linker_0, # of connection points: 2
#     Edge 106, Type (0, 1), BuildingBlock: OJICUG_clean_linker_0, # of connection points: 2
#     Edge 107, Type (0, 1), BuildingBlock: OJICUG_clean_linker_0, # of connection points: 2
# Relax obj value: 0.072
# Max RMSD: 0.247
# Mean RMSD: 0.110
data_MOF--net-ptr--node1-NAHDIM_clean_sbu_0--node2-MIFKUJ_clean_linker_1--edge1-OJICUG_clean_linker_0
_symmetry_space_group_name_H-M    P1
_symmetry_Int_Tables_number       1
_symmetry_cell_setting            triclinic
loop_
_symmetry_equiv_pos_as_xyz
'x, y, z'
_cell_length_a     71.306715
_cell_length_b     69.927841
_cell_length_c     46.990365
_cell_angle_alpha  92.002608
_cell_angle_beta   88.966414
_cell_angle_gamma 121.91549
loop_
_atom_site_label
_atom_site_type_symbol
_atom_site_fract_x
_atom_site_fract_y
_atom_site_fract_z
_atom_type_partial_charge
C0 C 0.02539 0.33451 0.04472 0.0
O1 O 0.00422 0.32192 0.05039 0.0
O2 O 0.98356 0.32605 0.99814 0.0
Zn3 Zn 0.00842 0.35591 0.01395 0.0
O4 O -0.00019 0.36995 0.04581 0.0
C5 C 0.00353 0.37744 0.96881 0.0
O6 O 0.98315 0.36368 0.97731 0.0
O7 O 0.0321 0.35123 0.02873 0.0
C8 C 0.98128 0.3681 0.0503 0.0
O9 O 0.96438 0.35473 0.03374 0.0
C10 C 0.96613 0.31072 0.01004 0.0
O11 O 0.96215 0.31341 0.03681 0.0
O12 O 0.01914 0.37746 0.98152 0.0
C13 C 0.69638 0.66602 0.9823 0.0
O14 O 0.68915 0.67967 0.97945 0.0
O15 O 0.66353 0.67418 0.02878 0.0
Zn16 Zn 0.65682 0.64417 0.01293 0.0
O17 O 0.6345 0.63278 0.9812 0.0
C18 C 0.62427 0.61498 0.05106 0.0
O19 O 0.61378 0.62227 0.03664 0.0
O20 O 0.68502 0.64841 0.99674 0.0
C21 C 0.62945 0.61387 0.96995 0.0
O22 O 0.63925 0.60379 0.97923 0.0
C23 C 0.64962 0.68026 0.02979 0.0
O24 O 0.62958 0.66658 0.01981 0.0
O25 O 0.64421 0.62184 0.04458 0.0
C26 C 0.33638 0.0344 0.97779 0.0
O27 O 0.32979 0.0151 0.96431 0.0
O28 O 0.322 0.98981 0.03166 0.0
Zn29 Zn 0.35057 0.01372 0.01415 0.0
O30 O 0.36032 0.00293 0.97986 0.0
C31 C 0.37576 0.00777 0.05269 0.0
O32 O 0.36149 0.98728 0.04302 0.0
O33 O 0.34661 0.0386 0.00131 0.0
C34 C 0.35615 0.98335 0.97275 0.0
O35 O 0.34296 0.96617 0.9886 0.0
C36 C 0.30505 0.97422 0.01861 0.0
O37 O 0.30537 0.9723 0.99073 0.0
O38 O 0.37453 0.02403 0.04373 0.0
C39 C 0.96398 0.65788 0.96493 0.0
O40 O 0.98234 0.66237 0.95211 0.0
O41 O 0.00866 0.67886 0.01693 0.0
Zn42 Zn 0.98438 0.64723 0.00611 0.0
O43 O 0.99443 0.63355 0.97546 0.0
C44 C 0.98889 0.63207 0.05991 0.0
O45 O 0.00855 0.6504 0.05784 0.0
O46 O 0.9601 0.65007 0.98984 0.0
C47 C 0.004 0.62306 0.98087 0.0
O48 O 0.00827 0.62143 0.00743 0.0
C49 C 0.02916 0.68615 0.01538 0.0
O50 O 0.03563 0.6727 0.00575 0.0
O51 O 0.97463 0.62733 0.04063 0.0
C52 C 0.2997 0.33194 0.04651 0.0
O53 O 0.30523 0.31678 0.04734 0.0
O54 O 0.33642 0.32702 0.00262 0.0
Zn55 Zn 0.34202 0.35599 0.02107 0.0
O56 O 0.3631 0.36524 0.05403 0.0
C57 C 0.35098 0.3769 0.96612 0.0
O58 O 0.33543 0.35664 0.95723 0.0
O59 O 0.31313 0.3509 0.03575 0.0
C60 C 0.38376 0.37562 0.04936 0.0
O61 O 0.3909 0.37962 0.02298 0.0
C62 C 0.35009 0.32593 0.98598 0.0
O63 O 0.3691 0.34437 0.9807 0.0
O64 O 0.3557 0.38061 0.99248 0.0
C65 C 0.66214 0.96449 0.01228 0.0
O66 O 0.67825 0.98031 0.99725 0.0
O67 O 0.67004 0.01442 0.98755 0.0
Zn68 Zn 0.64104 0.98954 0.00263 0.0
O69 O 0.62926 -0.00099 0.03581 0.0
C70 C 0.61938 0.99577 0.95884 0.0
O71 O 0.63436 0.0165 0.96695 0.0
O72 O 0.6444 0.96446 0.01587 0.0
C73 C 0.63389 0.01855 0.04398 0.0
O74 O 0.64904 0.0363 0.03045 0.0
C75 C 0.68712 0.02858 0.00164 0.0
O76 O 0.6867 0.02836 0.0296 0.0
O77 O 0.61869 0.97952 0.97119 0.0
C78 C 0.69391 0.67826 0.38096 0.0
O79 O 0.67358 0.66934 0.39042 0.0
O80 O 0.65198 0.66133 0.33033 0.0
Zn81 Zn 0.67502 0.69287 0.34381 0.0
O82 O 0.66486 0.7054 0.3758 0.0
C83 C 0.66896 0.71053 0.29414 0.0
O84 O 0.64885 0.69331 0.29823 0.0
O85 O 0.69977 0.69062 0.35934 0.0
C86 C 0.64925 0.70912 0.37496 0.0
O87 O 0.63739 0.70414 0.35174 0.0
C88 C 0.63156 0.65031 0.33645 0.0
O89 O 0.6234 0.65927 0.35369 0.0
O90 O 0.6843 0.71381 0.31082 0.0
C91 C 0.35056 0.98887 0.30669 0.0
O92 O 0.33991 -0.00241 0.29599 0.0
O93 O 0.32429 0.00619 0.3571 0.0
Zn94 Zn 0.31539 0.97483 0.34405 0.0
O95 O 0.29338 0.96361 0.31172 0.0
C96 C 0.29117 0.95675 0.39564 0.0
O97 O 0.28868 0.97394 0.39343 0.0
O98 O 0.34288 0.97713 0.32879 0.0
C99 C 0.27257 0.95315 0.31521 0.0
O100 O 0.26447 0.94956 0.34113 0.0
C101 C 0.312 0.0142 0.3555 0.0
O102 O 0.29208 0.00166 0.34464 0.0
O103 O 0.30259 0.95367 0.37705 0.0
C104 C 0.00478 0.36996 0.31123 0.0
O105 O -0.00192 0.35042 0.29832 0.0
O106 O 0.9889 0.32637 0.36574 0.0
Zn107 Zn 0.01812 0.34965 0.34932 0.0
O108 O 0.02826 0.338 0.3165 0.0
C109 C 0.03927 0.34465 0.39551 0.0
O110 O 0.02254 0.32397 0.39093 0.0
O111 O 0.01484 0.37445 0.33491 0.0
C112 C 0.02584 0.31871 0.31322 0.0
O113 O 0.01479 0.30333 0.33228 0.0
C114 C 0.9727 0.30983 0.3527 0.0
O115 O 0.97427 0.30644 0.32532 0.0
O116 O 0.04114 0.36022 0.3802 0.0
C117 C 0.63204 0.00101 0.33007 0.0
O118 O 0.64801 0.01827 0.34438 0.0
O119 O 0.68041 0.01082 0.35873 0.0
Zn120 Zn 0.65653 0.98026 0.34398 0.0
O121 O 0.66776 0.96895 0.31211 0.0
C122 C 0.65928 0.95198 0.38278 0.0
O123 O 0.67738 0.95899 0.36781 0.0
O124 O 0.63174 0.98266 0.32813 0.0
C125 C 0.65355 0.94994 0.30097 0.0
O126 O 0.63321 0.93951 0.31072 0.0
C127 C 0.70064 0.01733 0.36125 0.0
O128 O 0.70737 0.00376 0.35317 0.0
O129 O 0.64637 0.95856 0.37632 0.0
C130 C 0.97081 0.68058 0.37844 0.0
O131 O 0.98409 0.6757 0.3908 0.0
O132 O -0.00184 0.66514 0.31928 0.0
Zn133 Zn 0.00433 0.69433 0.33736 0.0
O134 O 0.02628 0.70412 0.36922 0.0
C135 C 0.01599 0.71348 0.28147 0.0
O136 O 0.00439 0.6922 0.27302 0.0
O137 O 0.97595 0.68936 0.35408 0.0
C138 C 0.04664 0.71155 0.36524 0.0
O139 O 0.054 0.7127 0.33913 0.0
C140 C -0.0001 0.65047 0.33211 0.0
O141 O 0.00637 0.65428 0.35881 0.0
O142 O 0.01738 0.71846 0.30796 0.0
C143 C 0.32678 0.3038 0.37707 0.0
O144 O 0.33279 0.323 0.39047 0.0
O145 O 0.34136 0.34708 0.32254 0.0
Zn146 Zn 0.31243 0.32341 0.33914 0.0
O147 O 0.30188 0.33455 0.37196 0.0
C148 C 0.2901 0.32695 0.29316 0.0
O149 O 0.30643 0.34793 0.29716 0.0
O150 O 0.3167 0.29927 0.35341 0.0
C151 C 0.3037 0.35358 0.3752 0.0
O152 O 0.31447 0.36905 0.35616 0.0
C153 C 0.35749 0.3634 0.33597 0.0
O154 O 0.35571 0.36638 0.3634 0.0
O155 O 0.2891 0.31189 0.30866 0.0
C156 C 0.35247 -0.00229 0.704 0.0
O157 O 0.33133 0.98347 0.70853 0.0
O158 O 0.30955 0.98695 0.66142 0.0
Zn159 Zn 0.33374 0.01803 0.67495 0.0
O160 O 0.32528 0.03179 0.70738 0.0
C161 C 0.32873 0.03716 0.62569 0.0
O162 O 0.30806 0.02131 0.63027 0.0
O163 O 0.35835 0.01493 0.68928 0.0
C164 C 0.30977 0.0357 0.70769 0.0
O165 O 0.2966 0.0298 0.68563 0.0
C166 C 0.28937 0.97598 0.66876 0.0
O167 O 0.28192 0.9848 0.68739 0.0
O168 O 0.34367 0.03897 0.64198 0.0
C169 C 0.02885 0.3325 0.65012 0.0
O170 O 0.02212 0.3465 0.64671 0.0
O171 O 0.99474 0.34016 0.69598 0.0
Zn172 Zn 0.98804 0.31049 0.67854 0.0
O173 O 0.96713 0.3007 0.64509 0.0
C174 C 0.96216 0.28961 0.7275 0.0
O175 O 0.96026 0.30724 0.72629 0.0
O176 O 0.01668 0.31467 0.66389 0.0
C177 C 0.94709 0.29509 0.64768 0.0
O178 O 0.93956 0.29629 0.67296 0.0
C179 C 0.99017 0.35359 0.68513 0.0
O180 O 0.98042 0.34854 0.66016 0.0
O181 O 0.97406 0.28708 0.7091 0.0
C182 C 0.66103 0.69167 0.64339 0.0
O183 O 0.65283 0.67172 0.63088 0.0
O184 O 0.64885 0.6487 0.69676 0.0
Zn185 Zn 0.67734 0.67227 0.67915 0.0
O186 O 0.68628 0.65987 0.6458 0.0
C187 C 0.69924 0.67125 0.72871 0.0
O188 O 0.68099 0.65131 0.72991 0.0
O189 O 0.67298 0.69651 0.66543 0.0
C190 C 0.69072 0.64466 0.64854 0.0
O191 O 0.68827 0.63579 0.67355 0.0
C192 C 0.63402 0.63026 0.6851 0.0
O193 O 0.63657 0.62534 0.65864 0.0
O194 O 0.70151 0.68421 0.70883 0.0
C195 C 0.30299 0.33317 0.64347 0.0
O196 O 0.32438 0.34784 0.64291 0.0
O197 O 0.34225 0.33835 0.69024 0.0
Zn198 Zn 0.31853 0.30926 0.67173 0.0
O199 O 0.33122 0.29956 0.63979 0.0
C200 C 0.30471 0.28905 0.72716 0.0
O201 O 0.31083 0.3096 0.73587 0.0
O202 O 0.29582 0.31445 0.65531 0.0
C203 C 0.34017 0.28843 0.645 0.0
O204 O 0.34164 0.284 0.67151 0.0
C205 C 0.35701 0.33967 0.70636 0.0
O206 O 0.35737 0.32144 0.71093 0.0
O207 O 0.30546 0.28492 0.70074 0.0
C208 C 0.63428 0.00342 0.70671 0.0
O209 O 0.6401 0.98874 0.71052 0.0
O210 O 0.66883 0.99502 0.66234 0.0
Zn211 Zn 0.67587 0.02476 0.67984 0.0
O212 O 0.69636 0.03436 0.71372 0.0
C213 C 0.70256 0.0457 0.63144 0.0
O214 O 0.70439 0.02802 0.63274 0.0
O215 O 0.64731 0.02127 0.69344 0.0
C216 C 0.71624 0.03936 0.71155 0.0
O217 O 0.72369 0.03733 0.68661 0.0
C218 C 0.67252 0.98097 0.67328 0.0
O219 O 0.68165 0.98537 0.69861 0.0
O220 O 0.69044 0.04817 0.64951 0.0
C221 C 0.9857 0.63071 0.70646 0.0
O222 O 0.99083 0.64985 0.71932 0.0
O223 O -0.00264 0.67131 0.64517 0.0
Zn224 Zn 0.97026 0.6482 0.66598 0.0
O225 O 0.9619 0.66175 0.69839 0.0
C226 C 0.94514 0.63412 0.61271 0.0
O227 O 0.96457 0.64337 0.60032 0.0
O228 O 0.97621 0.62568 0.68231 0.0
C229 C 0.96347 0.68072 0.69937 0.0
O230 O 0.97231 0.69424 0.67786 0.0
C231 C 0.01401 0.68747 0.65804 0.0
O232 O 0.01337 0.68978 0.68584 0.0
O233 O 0.94401 0.63348 0.63971 0.0
H234 H 0.13486 0.33535 0.21634 0.0
H235 H 0.10804 0.33836 0.24608 0.0
H236 H 0.05529 0.27578 0.20885 0.0
H237 H 0.08238 0.2729 0.1788 0.0
H238 H 0.14383 0.30147 0.21576 0.0
H239 H 0.12525 0.33983 0.15123 0.0
H240 H 0.10105 0.34751 0.12419 0.0
H241 H 0.07197 0.28202 0.08206 0.0
H242 H 0.09631 0.27443 0.10929 0.0
H243 H 0.16401 0.27481 0.1071 0.0
H244 H 0.19681 0.28176 0.08028 0.0
H245 H 0.23583 0.34614 0.12472 0.0
H246 H 0.20305 0.33926 0.15096 0.0
H247 H 0.14496 0.30281 0.11021 0.0
H248 H 0.17795 0.27445 0.17477 0.0
H249 H 0.2099 0.27934 0.20073 0.0
H250 H 0.21807 0.33902 0.24339 0.0
H251 H 0.18649 0.33423 0.21736 0.0
C252 C 0.11057 0.30391 0.19544 0.0
C253 C 0.11751 0.32232 0.21449 0.0
C254 C 0.10218 0.32409 0.23131 0.0
C255 C 0.0796 0.30733 0.22966 0.0
C256 C 0.07261 0.28887 0.21055 0.0
C257 C 0.08801 0.28727 0.19336 0.0
C258 C 0.12722 0.3021 0.17834 0.0
C259 C 0.14397 0.30154 0.19267 0.0
C260 C 0.12747 0.30235 0.1483 0.0
C261 C 0.1123 0.30645 0.13245 0.0
C262 C 0.11356 0.32709 0.13629 0.0
C263 C 0.09992 0.33154 0.12065 0.0
C264 C 0.08472 0.31539 0.101 0.0
C265 C 0.08348 0.2947 0.0972 0.0
C266 C 0.09733 0.29035 0.11266 0.0
C267 C 0.18123 0.3064 0.1312 0.0
C268 C 0.17965 0.29042 0.11093 0.0
C269 C 0.19837 0.29437 0.09577 0.0
C270 C 0.21887 0.3145 0.10044 0.0
C271 C 0.22024 0.3306 0.12044 0.0
C272 C 0.20159 0.32659 0.13564 0.0
C273 C 0.16166 0.30233 0.14766 0.0
C274 C 0.14432 0.30176 0.13322 0.0
C275 C 0.16139 0.30203 0.17773 0.0
C276 C 0.17992 0.30402 0.19412 0.0
C277 C 0.18665 0.28855 0.18976 0.0
C278 C 0.20479 0.29129 0.20463 0.0
C279 C 0.21653 0.30966 0.22385 0.0
C280 C 0.20952 0.3249 0.2284 0.0
C281 C 0.19136 0.32206 0.21375 0.0
H282 H 0.71651 0.89361 0.19904 0.0
H283 H 0.70876 0.9165 0.23192 0.0
H284 H 0.6471 0.89297 0.1883 0.0
H285 H 0.65442 0.86939 0.15653 0.0
H286 H 0.69206 0.84864 0.19582 0.0
H287 H 0.71327 0.90747 0.12582 0.0
H288 H 0.70715 0.9323 0.09703 0.0
H289 H 0.64721 0.87437 0.06335 0.0
H290 H 0.65321 0.84979 0.09233 0.0
H291 H 0.65499 0.80159 0.09023 0.0
H292 H 0.64699 0.76738 0.06456 0.0
H293 H 0.70277 0.77101 0.10528 0.0
H294 H 0.71174 0.80642 0.1293 0.0
H295 H 0.68564 0.84218 0.09064 0.0
H296 H 0.65688 0.78436 0.15787 0.0
H297 H 0.65343 0.75486 0.18747 0.0
H298 H 0.71402 0.80363 0.23095 0.0
H299 H 0.71832 0.83269 0.19939 0.0
C300 C 0.68619 0.87996 0.1751 0.0
C301 C 0.70148 0.89365 0.19635 0.0
C302 C 0.69708 0.90683 0.21502 0.0
C303 C 0.67723 0.90646 0.21285 0.0
C304 C 0.66239 0.89341 0.19081 0.0
C305 C 0.66673 0.88017 0.1723 0.0
C306 C 0.68922 0.86351 0.15808 0.0
C307 C 0.69128 0.84755 0.17274 0.0
C308 C 0.68719 0.86149 0.12809 0.0
C309 C 0.68369 0.87682 0.11121 0.0
C310 C 0.69879 0.90019 0.11233 0.0
C311 C 0.69536 0.9143 0.09574 0.0
C312 C 0.67671 0.90522 0.07796 0.0
C313 C 0.66161 0.88184 0.07704 0.0
C314 C 0.66511 0.86778 0.09342 0.0
C315 C 0.68388 0.80655 0.11193 0.0
C316 C 0.66579 0.7953 0.09326 0.0
C317 C 0.66101 0.77547 0.0789 0.0
C318 C 0.67398 0.76615 0.08317 0.0
C319 C 0.69248 0.77774 0.10131 0.0
C320 C 0.69751 0.79789 0.11533 0.0
C321 C 0.68762 0.82678 0.12841 0.0
C322 C 0.68708 0.84357 0.11367 0.0
C323 C 0.68982 0.82882 0.15846 0.0
C324 C 0.68812 0.81068 0.17594 0.0
C325 C 0.66977 0.78859 0.1732 0.0
C326 C 0.66762 0.77177 0.19058 0.0
C327 C 0.68336 0.7768 0.21187 0.0
C328 C 0.70176 0.79897 0.21454 0.0
C329 C 0.70413 0.8157 0.19669 0.0
H330 H 0.09891 0.83627 0.1862 0.0
H331 H 0.06911 0.80746 0.21523 0.0
H332 H 0.08682 0.7596 0.18685 0.0
H333 H 0.11661 0.78846 0.15807 0.0
H334 H 0.14255 0.85252 0.19252 0.0
H335 H 0.08741 0.80924 0.11909 0.0
H336 H 0.06278 0.7747 0.09176 0.0
H337 H 0.11931 0.77303 0.06023 0.0
H338 H 0.14347 0.80614 0.0896 0.0
H339 H 0.19395 0.85683 0.09376 0.0
H340 H 0.22694 0.88328 0.06732 0.0
H341 H 0.22262 0.93869 0.10258 0.0
H342 H 0.1892 0.91207 0.12863 0.0
H343 H 0.15437 0.84631 0.08927 0.0
H344 H 0.2063 0.87574 0.16418 0.0
H345 H 0.23337 0.89972 0.2005 0.0
H346 H 0.18983 0.9214 0.2312 0.0
H347 H 0.16273 0.89728 0.19471 0.0
C348 C 0.10981 0.81445 0.16969 0.0
C349 C 0.09622 0.8195 0.18606 0.0
C350 C 0.07926 0.80306 0.20268 0.0
C351 C 0.07559 0.78126 0.20328 0.0
C352 C 0.08899 0.77613 0.18648 0.0
C353 C 0.10603 0.79262 0.17001 0.0
C354 C 0.12893 0.83248 0.15402 0.0
C355 C 0.14494 0.85142 0.16978 0.0
C356 C 0.13254 0.83039 0.12465 0.0
C357 C 0.1173 0.81014 0.10687 0.0
C358 C 0.09444 0.80121 0.10664 0.0
C359 C 0.08039 0.78162 0.09057 0.0
C360 C 0.08898 0.77088 0.07379 0.0
C361 C 0.11197 0.7804 0.07335 0.0
C362 C 0.1259 0.79962 0.08989 0.0
C363 C 0.18905 0.88243 0.11323 0.0
C364 C 0.20001 0.87466 0.09575 0.0
C365 C 0.21884 0.88976 0.08062 0.0
C366 C 0.22724 0.91299 0.0828 0.0
C367 C 0.21655 0.92086 0.10069 0.0
C368 C 0.19751 0.90568 0.11563 0.0
C369 C 0.16834 0.86596 0.12794 0.0
C370 C 0.15188 0.84756 0.11194 0.0
C371 C 0.1649 0.86782 0.15738 0.0
C372 C 0.18255 0.88485 0.17656 0.0
C373 C 0.20283 0.88613 0.17818 0.0
C374 C 0.21829 0.89984 0.19902 0.0
C375 C 0.21369 0.91238 0.21881 0.0
C376 C 0.19373 0.91172 0.21647 0.0
C377 C 0.17829 0.89805 0.19556 0.0
H378 H 0.26887 0.16933 0.8238 0.0
H379 H 0.26614 0.19616 0.79472 0.0
H380 H 0.33237 0.24824 0.81958 0.0
H381 H 0.33526 0.22131 0.848 0.0
H382 H 0.29705 0.15516 0.81753 0.0
H383 H 0.28362 0.19692 0.89311 0.0
H384 H 0.29314 0.23228 0.9181 0.0
H385 H 0.35804 0.245 0.93637 0.0
H386 H 0.34864 0.21005 0.91077 0.0
H387 H 0.34532 0.15382 0.91379 0.0
H388 H 0.35113 0.12718 0.93839 0.0
H389 H 0.28593 0.0729 0.91286 0.0
H390 H 0.28031 0.09966 0.88804 0.0
H391 H 0.31722 0.16683 0.9198 0.0
H392 H 0.33401 0.1283 0.85093 0.0
H393 H 0.33346 0.09958 0.82009 0.0
H394 H 0.27333 0.08711 0.78087 0.0
H395 H 0.27249 0.11374 0.81454 0.0
C396 C 0.30215 0.19336 0.83842 0.0
C397 C 0.28276 0.18656 0.82309 0.0
C398 C 0.28121 0.20187 0.80651 0.0
C399 C 0.29898 0.2243 0.80508 0.0
C400 C 0.31826 0.23116 0.82072 0.0
C401 C 0.31992 0.21579 0.83699 0.0
C402 C 0.30412 0.17667 0.85467 0.0
C403 C 0.30086 0.1573 0.84009 0.0
C404 C 0.31045 0.18029 0.88366 0.0
C405 C 0.31549 0.20099 0.89992 0.0
C406 C 0.29989 0.20737 0.90248 0.0
C407 C 0.3053 0.22747 0.91691 0.0
C408 C 0.32638 0.24145 0.92905 0.0
C409 C 0.34179 0.23476 0.92687 0.0
C410 C 0.33637 0.21469 0.9125 0.0
C411 C 0.31247 0.12868 0.89884 0.0
C412 C 0.33219 0.13621 0.91374 0.0
C413 C 0.33547 0.12098 0.92787 0.0
C414 C 0.31903 0.09791 0.92749 0.0
C415 C 0.29905 0.09051 0.91316 0.0
C416 C 0.29579 0.10577 0.89902 0.0
C417 C 0.30959 0.14486 0.88284 0.0
C418 C 0.31281 0.16422 0.89741 0.0
C419 C 0.30397 0.14152 0.85352 0.0
C420 C 0.30305 0.12301 0.83564 0.0
C421 C 0.32019 0.11875 0.83654 0.0
C422 C 0.32014 0.10259 0.81819 0.0
C423 C 0.30352 0.091 0.7974 0.0
C424 C 0.28627 0.09521 0.79673 0.0
C425 C 0.28591 0.11079 0.81582 0.0
H426 H 0.82811 0.10192 0.82936 0.0
H427 H 0.80006 0.0754 0.79536 0.0
H428 H 0.75786 0.1 0.82142 0.0
H429 H 0.78569 0.12586 0.85593 0.0
H430 H 0.84735 0.14891 0.82666 0.0
H431 H 0.80356 0.08953 0.89294 0.0
H432 H 0.7704 0.06327 0.91967 0.0
H433 H 0.76752 0.11921 0.95608 0.0
H434 H 0.80015 0.14533 0.92879 0.0
H435 H 0.85134 0.19709 0.92968 0.0
H436 H 0.87721 0.23016 0.95845 0.0
H437 H 0.93112 0.22391 0.92702 0.0
H438 H 0.90502 0.19059 0.89822 0.0
H439 H 0.83986 0.15562 0.93097 0.0
H440 H 0.875 0.21381 0.866 0.0
H441 H 0.9018 0.2436 0.83601 0.0
H442 H 0.91444 0.19617 0.79188 0.0
H443 H 0.8891 0.16689 0.82404 0.0
C444 C 0.80891 0.11573 0.84523 0.0
C445 C 0.81263 0.10126 0.82803 0.0
C446 C 0.79663 0.08624 0.80848 0.0
C447 C 0.77673 0.08566 0.80543 0.0
C448 C 0.7728 0.0997 0.82343 0.0
C449 C 0.78874 0.11458 0.84314 0.0
C450 C 0.8269 0.13355 0.86325 0.0
C451 C 0.84605 0.15018 0.84961 0.0
C452 C 0.82449 0.13566 0.89291 0.0
C453 C 0.80428 0.11942 0.90864 0.0
C454 C 0.79563 0.09613 0.90635 0.0
C455 C 0.77678 0.08116 0.92172 0.0
C456 C 0.76653 0.08928 0.94 0.0
C457 C 0.77529 0.11256 0.94243 0.0
C458 C 0.7939 0.12746 0.9268 0.0
C459 C 0.87624 0.19138 0.91173 0.0
C460 C 0.86871 0.2027 0.92915 0.0
C461 C 0.88349 0.22157 0.94564 0.0
C462 C 0.90616 0.22957 0.94506 0.0
C463 C 0.91374 0.21822 0.92768 0.0
C464 C 0.89888 0.19921 0.91124 0.0
C465 C 0.86016 0.17137 0.89435 0.0
C466 C 0.84146 0.15423 0.90809 0.0
C467 C 0.86248 0.16945 0.86455 0.0
C468 C 0.88024 0.18809 0.84777 0.0
C469 C 0.88412 0.20995 0.85064 0.0
C470 C 0.89918 0.22694 0.83292 0.0
C471 C 0.91015 0.22233 0.81107 0.0
C472 C 0.90657 0.20053 0.80859 0.0
C473 C 0.89188 0.18365 0.82683 0.0
H474 H 0.80345 0.66493 0.80293 0.0
H475 H 0.77117 0.65979 0.77823 0.0
H476 H 0.78159 0.72115 0.81848 0.0
H477 H 0.81401 0.72615 0.84356 0.0
H478 H 0.84734 0.70077 0.80094 0.0
H479 H 0.78939 0.65949 0.86887 0.0
H480 H 0.75749 0.6521 0.89782 0.0
H481 H 0.79711 0.71728 0.94017 0.0
H482 H 0.82901 0.72463 0.91091 0.0
H483 H 0.89099 0.71858 0.91299 0.0
H484 H 0.91464 0.70871 0.93775 0.0
H485 H 0.89571 0.65361 0.87722 0.0
H486 H 0.8715 0.66282 0.85336 0.0
H487 H 0.84758 0.69482 0.90581 0.0
H488 H 0.90967 0.72794 0.83656 0.0
H489 H 0.93662 0.72569 0.80527 0.0
H490 H 0.88339 0.66556 0.76421 0.0
H491 H 0.85667 0.66804 0.79487 0.0
C492 C 0.81106 0.6959 0.82502 0.0
C493 C 0.79884 0.67732 0.80639 0.0
C494 C 0.78036 0.67433 0.79247 0.0
C495 C 0.7739 0.69003 0.79662 0.0
C496 C 0.78632 0.70886 0.81493 0.0
C497 C 0.80472 0.71169 0.82926 0.0
C498 C 0.83024 0.69828 0.84011 0.0
C499 C 0.8476 0.69978 0.82391 0.0
C500 C 0.83051 0.69697 0.86998 0.0
C501 C 0.8114 0.6927 0.88761 0.0
C502 C 0.79116 0.67219 0.88435 0.0
C503 C 0.77304 0.66792 0.90104 0.0
C504 C 0.77486 0.68411 0.92125 0.0
C505 C 0.79523 0.70459 0.92459 0.0
C506 C 0.81343 0.70878 0.90802 0.0
C507 C 0.87996 0.69188 0.88078 0.0
C508 C 0.89199 0.70442 0.90502 0.0
C509 C 0.90539 0.69874 0.9192 0.0
C510 C 0.90707 0.68053 0.90919 0.0
C511 C 0.89496 0.66795 0.88505 0.0
C512 C 0.88131 0.67337 0.87124 0.0
C513 C 0.86471 0.69694 0.8666 0.0
C514 C 0.84802 0.6969 0.88299 0.0
C515 C 0.86471 0.69888 0.8367 0.0
C516 C 0.88122 0.69815 0.81796 0.0
C517 C 0.90388 0.71436 0.82072 0.0
C518 C 0.91919 0.71311 0.8029 0.0
C519 C 0.91197 0.69539 0.78259 0.0
C520 C 0.88931 0.67927 0.7799 0.0
C521 C 0.87407 0.68075 0.79725 0.0
H522 H 0.78398 0.66671 0.51787 0.0
H523 H 0.75677 0.66705 0.54959 0.0
H524 H 0.72888 0.59648 0.56548 0.0
H525 H 0.75646 0.59636 0.53372 0.0
H526 H 0.80083 0.62094 0.54058 0.0
H527 H 0.80608 0.67942 0.45362 0.0
H528 H 0.78211 0.68908 0.42984 0.0
H529 H 0.72613 0.62197 0.44365 0.0
H530 H 0.75018 0.61254 0.46773 0.0
H531 H 0.83357 0.6248 0.42496 0.0
H532 H 0.86829 0.63579 0.40039 0.0
H533 H 0.90488 0.67921 0.47226 0.0
H534 H 0.87019 0.66857 0.49647 0.0
H535 H 0.81699 0.64946 0.44241 0.0
H536 H 0.8418 0.60578 0.48853 0.0
H537 H 0.86983 0.60269 0.51388 0.0
H538 H 0.86746 0.64316 0.58373 0.0
H539 H 0.8401 0.64675 0.5582 0.0
C540 C 0.77211 0.63145 0.52317 0.0
C541 C 0.77172 0.65118 0.52768 0.0
C542 C 0.75609 0.65132 0.54583 0.0
C543 C 0.74057 0.63176 0.56005 0.0
C544 C 0.74073 0.61188 0.55508 0.0
C545 C 0.75641 0.61176 0.53687 0.0
C546 C 0.78998 0.63201 0.50584 0.0
C547 C 0.80424 0.62688 0.51896 0.0
C548 C 0.79442 0.63982 0.4777 0.0
C549 C 0.77987 0.64532 0.4626 0.0
C550 C 0.78866 0.66676 0.45134 0.0
C551 C 0.77495 0.67224 0.43769 0.0
C552 C 0.7522 0.65632 0.43493 0.0
C553 C 0.74352 0.63473 0.44586 0.0
C554 C 0.75723 0.62929 0.45955 0.0
C555 C 0.8493 0.64554 0.46276 0.0
C556 C 0.84908 0.63674 0.43537 0.0
C557 C 0.86888 0.64307 0.42133 0.0
C558 C 0.88923 0.65825 0.43451 0.0
C559 C 0.88941 0.66723 0.46179 0.0
C560 C 0.86962 0.66111 0.47567 0.0
C561 C 0.82826 0.63904 0.47744 0.0
C562 C 0.81338 0.64302 0.46378 0.0
C563 C 0.8235 0.63052 0.5053 0.0
C564 C 0.83896 0.62669 0.52132 0.0
C565 C 0.84733 0.61398 0.50931 0.0
C566 C 0.86329 0.61218 0.52378 0.0
C567 C 0.87077 0.62264 0.55077 0.0
C568 C 0.86179 0.63465 0.56314 0.0
C569 C 0.84613 0.63671 0.54854 0.0
H570 H 0.39391 0.22567 0.53386 0.0
H571 H 0.39151 0.25141 0.56833 0.0
H572 H 0.32721 0.231 0.53513 0.0
H573 H 0.32966 0.20534 0.50097 0.0
H574 H 0.36516 0.1798 0.5315 0.0
H575 H 0.38667 0.24155 0.46565 0.0
H576 H 0.3797 0.26821 0.4429 0.0
H577 H 0.31712 0.21262 0.41152 0.0
H578 H 0.32429 0.18621 0.43392 0.0
H579 H 0.32442 0.13746 0.42385 0.0
H580 H 0.31489 0.10408 0.39502 0.0
H581 H 0.36848 0.10203 0.4334 0.0
H582 H 0.37919 0.13678 0.46037 0.0
H583 H 0.35548 0.17693 0.42696 0.0
H584 H 0.32521 0.11691 0.49015 0.0
H585 H 0.31899 0.08567 0.51852 0.0
H586 H 0.3809 0.12974 0.56231 0.0
H587 H 0.38788 0.16044 0.53201 0.0
C588 C 0.36211 0.21382 0.5146 0.0
C589 C 0.37945 0.227 0.5338 0.0
C590 C 0.37802 0.24162 0.55351 0.0
C591 C 0.35919 0.24326 0.5544 0.0
C592 C 0.3421 0.23044 0.53465 0.0
C593 C 0.34349 0.21576 0.51508 0.0
C594 C 0.36257 0.19663 0.49576 0.0
C595 C 0.36363 0.17939 0.50852 0.0
C596 C 0.35938 0.19556 0.46602 0.0
C597 C 0.35598 0.21193 0.4515 0.0
C598 C 0.3715 0.23517 0.45379 0.0
C599 C 0.36745 0.25035 0.44087 0.0
C600 C 0.34784 0.2425 0.42541 0.0
C601 C 0.33253 0.21919 0.42286 0.0
C602 C 0.33658 0.20408 0.43572 0.0
C603 C 0.35244 0.1396 0.44455 0.0
C604 C 0.33444 0.13012 0.42569 0.0
C605 C 0.32876 0.11074 0.40948 0.0
C606 C 0.34065 0.10005 0.41213 0.0
C607 C 0.35902 0.10986 0.43056 0.0
C608 C 0.36501 0.1296 0.44634 0.0
C609 C 0.35738 0.15955 0.46272 0.0
C610 C 0.3576 0.17747 0.44985 0.0
C611 C 0.36027 0.16044 0.49262 0.0
C612 C 0.35723 0.14099 0.50851 0.0
C613 C 0.33781 0.11969 0.50519 0.0
C614 C 0.33408 0.10188 0.52188 0.0
C615 C 0.34932 0.10513 0.54302 0.0
C616 C 0.36892 0.12642 0.54602 0.0
C617 C 0.37285 0.14411 0.52888 0.0
H618 H 0.77452 0.16847 0.53494 0.0
H619 H 0.74964 0.13905 0.56722 0.0
H620 H 0.76545 0.09319 0.52536 0.0
H621 H 0.79179 0.12324 0.49525 0.0
H622 H 0.81695 0.18797 0.53243 0.0
H623 H 0.75849 0.1416 0.46369 0.0
H624 H 0.73356 0.10602 0.43826 0.0
H625 H 0.78989 0.1064 0.40179 0.0
H626 H 0.81454 0.14089 0.42876 0.0
H627 H 0.86387 0.19268 0.43013 0.0
H628 H 0.89567 0.21934 0.40208 0.0
H629 H 0.88958 0.27392 0.43647 0.0
H630 H 0.85745 0.24706 0.46435 0.0
H631 H 0.82326 0.18066 0.42799 0.0
H632 H 0.87831 0.21227 0.50089 0.0
H633 H 0.90616 0.23782 0.53551 0.0
H634 H 0.86318 0.26076 0.56441 0.0
H635 H 0.83511 0.23456 0.53019 0.0
C636 C 0.78486 0.14807 0.51233 0.0
C637 C 0.77256 0.15204 0.53272 0.0
C638 C 0.75813 0.13507 0.55101 0.0
C639 C 0.75548 0.11363 0.54911 0.0
C640 C 0.76731 0.10955 0.52799 0.0
C641 C 0.78212 0.12666 0.51023 0.0
C642 C 0.80188 0.1668 0.495 0.0
C643 C 0.81797 0.18656 0.50946 0.0
C644 C 0.80387 0.16462 0.46516 0.0
C645 C 0.7884 0.14382 0.44844 0.0
C646 C 0.76543 0.13389 0.45039 0.0
C647 C 0.7512 0.11366 0.43555 0.0
C648 C 0.7597 0.10321 0.41806 0.0
C649 C 0.78272 0.11364 0.4155 0.0
C650 C 0.79688 0.1336 0.43064 0.0
C651 C 0.8583 0.21787 0.44942 0.0
C652 C 0.86928 0.21037 0.43154 0.0
C653 C 0.8874 0.22559 0.41545 0.0
C654 C 0.89501 0.24866 0.41699 0.0
C655 C 0.88415 0.25623 0.43506 0.0
C656 C 0.86585 0.24093 0.45104 0.0
C657 C 0.83861 0.20126 0.46561 0.0
C658 C 0.82189 0.18218 0.45088 0.0
C659 C 0.83659 0.20351 0.49531 0.0
C660 C 0.8547 0.2216 0.51292 0.0
C661 C 0.87511 0.22319 0.51424 0.0
C662 C 0.89105 0.23787 0.53406 0.0
C663 C 0.88688 0.25127 0.55295 0.0
C664 C 0.86679 0.2504 0.55057 0.0
C665 C 0.85079 0.23558 0.53089 0.0
H666 H 0.94322 0.50826 0.14898 0.0
H667 H 0.94624 0.53768 0.11936 0.0
H668 H 0.0043 0.58731 0.16669 0.0
H669 H 0.00254 0.55759 0.19387 0.0
H670 H 0.96892 0.49335 0.15131 0.0
H671 H 0.9464 0.52889 0.22347 0.0
H672 H 0.95118 0.56123 0.25189 0.0
H673 H 0.01245 0.57265 0.28537 0.0
H674 H 0.00768 0.54052 0.25693 0.0
H675 H 0.01035 0.48861 0.25043 0.0
H676 H 0.01705 0.46225 0.27406 0.0
H677 H 0.95434 0.4067 0.24292 0.0
H678 H 0.94792 0.43325 0.21892 0.0
H679 H 0.97837 0.49775 0.25607 0.0
H680 H 0.00421 0.46666 0.18566 0.0
H681 H 0.0051 0.43817 0.1556 0.0
H682 H 0.94427 0.42248 0.1153 0.0
H683 H 0.94251 0.44967 0.14734 0.0
C684 C 0.97248 0.53062 0.17398 0.0
C685 C 0.95662 0.5255 0.15292 0.0
C686 C 0.95822 0.54246 0.1362 0.0
C687 C 0.97557 0.56503 0.14041 0.0
C688 C 0.99095 0.57015 0.16225 0.0
C689 C 0.9897 0.55313 0.17837 0.0
C690 C 0.9719 0.5123 0.18994 0.0
C691 C 0.97041 0.49403 0.17431 0.0
C692 C 0.97469 0.51355 0.21988 0.0
C693 C 0.97676 0.5324 0.23792 0.0
C694 C 0.96085 0.53838 0.23693 0.0
C695 C 0.96361 0.55685 0.25314 0.0
C696 C 0.98221 0.56946 0.27083 0.0
C697 C -0.00218 0.56309 0.27225 0.0
C698 C 0.99512 0.54475 0.25596 0.0
C699 C 0.97872 0.46285 0.23277 0.0
C700 C -0.00204 0.47076 0.24892 0.0
C701 C 0.00173 0.45567 0.26249 0.0
C702 C 0.98626 0.43237 0.26031 0.0
C703 C 0.96675 0.42453 0.24462 0.0
C704 C 0.963 0.43965 0.23099 0.0
C705 C 0.97553 0.47905 0.2174 0.0
C706 C 0.9763 0.49682 0.23313 0.0
C707 C 0.97252 0.47755 0.18753 0.0
C708 C 0.97303 0.46003 0.16927 0.0
C709 C 0.99073 0.45667 0.17092 0.0
C710 C 0.99142 0.44058 0.15325 0.0
C711 C 0.9748 0.42795 0.1328 0.0
C712 C 0.95716 0.43149 0.13108 0.0
C713 C 0.95625 0.44727 0.1492 0.0
H714 H 0.49907 0.4348 0.1612 0.0
H715 H 0.47027 0.40921 0.12727 0.0
H716 H 0.42775 0.43133 0.1608 0.0
H717 H 0.4565 0.45673 0.19458 0.0
H718 H 0.51825 0.48034 0.16114 0.0
H719 H 0.47546 0.42152 0.22949 0.0
H720 H 0.44201 0.39581 0.25621 0.0
H721 H 0.43918 0.45254 0.28975 0.0
H722 H 0.47224 0.47804 0.26285 0.0
H723 H 0.52021 0.52636 0.26637 0.0
H724 H 0.5442 0.56019 0.29434 0.0
H725 H 0.60122 0.56478 0.25322 0.0
H726 H 0.577 0.52922 0.22767 0.0
H727 H 0.5121 0.48805 0.2655 0.0
H728 H 0.5403 0.54353 0.19417 0.0
H729 H 0.56479 0.57257 0.1611 0.0
H730 H 0.58744 0.52966 0.1285 0.0
H731 H 0.56332 0.50088 0.16232 0.0
C732 C 0.47986 0.4475 0.1806 0.0
C733 C 0.48338 0.4338 0.16154 0.0
C734 C 0.46696 0.41928 0.14211 0.0
C735 C 0.44676 0.4183 0.14128 0.0
C736 C 0.44298 0.43141 0.16116 0.0
C737 C 0.45941 0.44595 0.18052 0.0
C738 C 0.49831 0.46522 0.19823 0.0
C739 C 0.51718 0.48182 0.1841 0.0
C740 C 0.49642 0.46761 0.22795 0.0
C741 C 0.47634 0.45171 0.24411 0.0
C742 C 0.46755 0.42838 0.24246 0.0
C743 C 0.44848 0.41374 0.25773 0.0
C744 C 0.43809 0.42223 0.27513 0.0
C745 C 0.44703 0.44557 0.27687 0.0
C746 C 0.46591 0.46013 0.26147 0.0
C747 C 0.54668 0.52514 0.24467 0.0
C748 C 0.5379 0.53437 0.26368 0.0
C749 C 0.55173 0.5541 0.27938 0.0
C750 C 0.57479 0.56562 0.27591 0.0
C751 C 0.58361 0.55635 0.25685 0.0
C752 C 0.56972 0.53614 0.24174 0.0
C753 C 0.53142 0.50403 0.22821 0.0
C754 C 0.51342 0.48651 0.24261 0.0
C755 C 0.53337 0.50155 0.19845 0.0
C756 C 0.55015 0.52014 0.1809 0.0
C757 C 0.55095 0.5406 0.18043 0.0
C758 C 0.56479 0.55709 0.16131 0.0
C759 C 0.57792 0.55333 0.14204 0.0
C760 C 0.57769 0.53314 0.14324 0.0
C761 C 0.56383 0.51665 0.16243 0.0
H762 H 0.55842 0.05889 0.14839 0.0
H763 H 0.58531 0.05794 0.11647 0.0
H764 H 0.56986 0.99496 0.15197 0.0
H765 H 0.54187 0.99515 0.18204 0.0
H766 H 0.51591 0.03116 0.14714 0.0
H767 H 0.5713 0.05105 0.22098 0.0
H768 H 0.59664 0.04575 0.24931 0.0
H769 H 0.54221 0.98059 0.27401 0.0
H770 H 0.51716 0.98571 0.24513 0.0
H771 H 0.46312 0.98382 0.24267 0.0
H772 H 0.42902 0.97609 0.26597 0.0
H773 H 0.4424 0.04127 0.24174 0.0
H774 H 0.47628 0.04865 0.21795 0.0
H775 H 0.50576 0.01579 0.25029 0.0
H776 H 0.45209 0.99029 0.1788 0.0
H777 H 0.42305 0.98758 0.14936 0.0
H778 H 0.4692 0.05343 0.11659 0.0
H779 H 0.49802 0.0566 0.14764 0.0
C780 C 0.54821 0.02722 0.16788 0.0
C781 C 0.56093 0.04494 0.14939 0.0
C782 C 0.57649 0.04448 0.13132 0.0
C783 C 0.57975 0.02631 0.13147 0.0
C784 C 0.56757 0.00904 0.15084 0.0
C785 C 0.55177 0.00932 0.16851 0.0
C786 C 0.52992 0.02645 0.18456 0.0
C787 C 0.51406 0.02844 0.16987 0.0
C788 C 0.5268 0.0217 0.21394 0.0
C789 C 0.54238 0.01874 0.23085 0.0
C790 C 0.5649 0.03557 0.23234 0.0
C791 C 0.5793 0.0326 0.24872 0.0
C792 C 0.5714 0.01274 0.2639 0.0
C793 C 0.54884 0.99595 0.26232 0.0
C794 C 0.53448 -0.00106 0.24602 0.0
C795 C 0.47212 0.01673 0.22844 0.0
C796 C 0.45878 0.99652 0.24263 0.0
C797 C 0.43933 0.99215 0.25599 0.0
C798 C 0.43293 0.00802 0.25561 0.0
C799 C 0.44664 0.02852 0.24197 0.0
C800 C 0.46606 0.03282 0.2285 0.0
C801 C 0.492 0.02058 0.21286 0.0
C802 C 0.50803 0.01914 0.22771 0.0
C803 C 0.49488 0.02504 0.18346 0.0
C804 C 0.47718 0.02381 0.16583 0.0
C805 C 0.45589 0.00439 0.1658 0.0
C806 C 0.43934 0.00273 0.14858 0.0
C807 C 0.4438 0.02023 0.13041 0.0
C808 C 0.46512 0.03976 0.13056 0.0
C809 C 0.48166 0.04151 0.14809 0.0
H810 H 0.46759 0.00683 0.87601 0.0
H811 H 0.43982 0.00795 0.90587 0.0
H812 H 0.38871 0.946 0.86528 0.0
H813 H 0.41679 0.9449 0.83537 0.0
H814 H 0.47845 0.97504 0.87378 0.0
H815 H 0.45642 0.01091 0.80968 0.0
H816 H 0.43034 0.01618 0.78318 0.0
H817 H 0.40547 0.95155 0.74019 0.0
H818 H 0.43163 0.94633 0.76695 0.0
H819 H 0.49875 0.94889 0.76539 0.0
H820 H 0.53149 0.95543 0.73884 0.0
H821 H 0.57078 0.02012 0.78248 0.0
H822 H 0.53803 0.01357 0.80863 0.0
H823 H 0.47944 0.97632 0.76823 0.0
H824 H 0.51341 0.94921 0.83214 0.0
H825 H 0.54442 0.95328 0.85945 0.0
H826 H 0.55115 0.01168 0.90409 0.0
H827 H 0.52067 0.00785 0.87648 0.0
C828 C 0.44424 0.9758 0.85351 0.0
C829 C 0.45041 0.99352 0.87346 0.0
C830 C 0.4345 0.99422 0.89034 0.0
C831 C 0.41209 0.97711 0.88777 0.0
C832 C 0.40588 0.95935 0.86772 0.0
C833 C 0.42184 0.95877 0.85058 0.0
C834 C 0.46149 0.97507 0.83638 0.0
C835 C 0.47864 0.97525 0.85069 0.0
C836 C 0.46169 0.97527 0.80634 0.0
C837 C 0.4457 0.97812 0.79045 0.0
C838 C 0.44526 -0.00216 0.79464 0.0
C839 C 0.43054 0.00092 0.77932 0.0
C840 C 0.41595 0.98428 0.75962 0.0
C841 C 0.41645 0.96455 0.7554 0.0
C842 C 0.43137 0.96158 0.77056 0.0
C843 C 0.51609 0.98063 0.78915 0.0
C844 C 0.51442 0.96449 0.76907 0.0
C845 C 0.53311 0.96821 0.75406 0.0
C846 C 0.55366 0.98827 0.75865 0.0
C847 C 0.55512 0.00461 0.77831 0.0
C848 C 0.5365 0.00081 0.79343 0.0
C849 C 0.49656 0.97658 0.80569 0.0
C850 C 0.47893 0.97542 0.79126 0.0
C851 C 0.49633 0.97631 0.83576 0.0
C852 C 0.51483 0.9783 0.85222 0.0
C853 C 0.5217 0.96295 0.84771 0.0
C854 C 0.53928 0.96519 0.86341 0.0
C855 C 0.55028 0.98288 0.88375 0.0
C856 C 0.54324 -0.0019 0.88825 0.0
C857 C 0.52568 0.99581 0.87269 0.0
H858 H 0.05481 0.55776 0.86954 0.0
H859 H 0.05235 0.58356 0.90378 0.0
H860 H 0.98643 0.56003 0.87388 0.0
H861 H 0.98898 0.53433 0.83984 0.0
H862 H 0.02851 0.51227 0.86856 0.0
H863 H 0.04496 0.57119 0.80201 0.0
H864 H 0.03759 0.59699 0.7778 0.0
H865 H 0.97495 0.54038 0.74826 0.0
H866 H 0.98251 0.51476 0.77224 0.0
H867 H 0.98452 0.46319 0.7662 0.0
H868 H 0.97849 0.43081 0.73723 0.0
H869 H 0.04149 0.44288 0.76475 0.0
H870 H 0.04737 0.4753 0.79396 0.0
H871 H 0.01399 0.50601 0.76485 0.0
H872 H 0.99143 0.44802 0.82898 0.0
H873 H 0.98847 0.41876 0.85864 0.0
H874 H 0.05055 0.46738 0.89902 0.0
H875 H 0.0542 0.49631 0.86766 0.0
C876 C 0.0222 0.54432 0.8519 0.0
C877 C 0.03994 0.55837 0.87018 0.0
C878 C 0.03847 0.57302 0.88978 0.0
C879 C 0.01919 0.57383 0.89152 0.0
C880 C 0.00164 0.56008 0.87275 0.0
C881 C 0.00308 0.54539 0.85325 0.0
C882 C 0.02292 0.52726 0.83308 0.0
C883 C 0.02598 0.51122 0.84572 0.0
C884 C 0.01843 0.52527 0.80359 0.0
C885 C 0.01425 0.54109 0.789 0.0
C886 C 0.02962 0.56439 0.79039 0.0
C887 C 0.02536 0.57909 0.77659 0.0
C888 C 0.00569 0.5707 0.76108 0.0
C889 C 0.99041 0.54734 0.75964 0.0
C890 C 0.99467 0.53269 0.77341 0.0
C891 C 0.01635 0.47159 0.78233 0.0
C892 C -0.00287 0.45899 0.7658 0.0
C893 C 0.99374 0.44053 0.74917 0.0
C894 C 0.00952 0.4343 0.74866 0.0
C895 C 0.0289 0.4471 0.76498 0.0
C896 C 0.0323 0.46563 0.78163 0.0
C897 C 0.01942 0.49086 0.80034 0.0
C898 C 0.01715 0.50734 0.78756 0.0
C899 C 0.02372 0.49268 0.82993 0.0
C900 C 0.0232 0.47437 0.84574 0.0
C901 C 0.00483 0.45226 0.84345 0.0
C902 C 0.00296 0.43558 0.86085 0.0
C903 C 0.01912 0.44075 0.88156 0.0
C904 C 0.0379 0.46272 0.88316 0.0
C905 C 0.03992 0.47935 0.8654 0.0
H906 H 0.44019 0.49744 0.86994 0.0
H907 H 0.41009 0.47058 0.90048 0.0
H908 H 0.42104 0.41813 0.87067 0.0
H909 H 0.45137 0.44507 0.84076 0.0
H910 H 0.48387 0.51071 0.8716 0.0
H911 H 0.42307 0.46864 0.80054 0.0
H912 H 0.39571 0.43288 0.77683 0.0
H913 H 0.44777 0.42154 0.75181 0.0
H914 H 0.4748 0.45683 0.77596 0.0
H915 H 0.52703 0.51181 0.765 0.0
H916 H 0.55807 0.53827 0.73566 0.0
H917 H 0.55389 0.59329 0.77296 0.0
H918 H 0.5229 0.56672 0.80241 0.0
H919 H 0.48644 0.49981 0.7671 0.0
H920 H 0.54431 0.53028 0.83018 0.0
H921 H 0.57619 0.55465 0.86022 0.0
H922 H 0.53859 0.57802 0.9061 0.0
H923 H 0.50696 0.55438 0.8748 0.0
C924 C 0.44779 0.47319 0.8527 0.0
C925 C 0.43605 0.48013 0.86994 0.0
C926 C 0.41889 0.46481 0.88735 0.0
C927 C 0.41312 0.44225 0.88773 0.0
C928 C 0.42485 0.43531 0.87038 0.0
C929 C 0.44217 0.45069 0.85326 0.0
C930 C 0.46646 0.48973 0.835 0.0
C931 C 0.48424 0.50872 0.84864 0.0
C932 C 0.46763 0.4862 0.80536 0.0
C933 C 0.4509 0.46528 0.79011 0.0
C934 C 0.42851 0.4584 0.78994 0.0
C935 C 0.41296 0.43808 0.77629 0.0
C936 C 0.41962 0.42438 0.76264 0.0
C937 C 0.44211 0.43156 0.76251 0.0
C938 C 0.45758 0.45182 0.77605 0.0
C939 C 0.52272 0.5373 0.78601 0.0
C940 C 0.53273 0.52956 0.76676 0.0
C941 C 0.55041 0.54469 0.74992 0.0
C942 C 0.55841 0.56786 0.75196 0.0
C943 C 0.54829 0.57557 0.77117 0.0
C944 C 0.53058 0.56042 0.78801 0.0
C945 C 0.50377 0.5211 0.80359 0.0
C946 C 0.48594 0.50225 0.78997 0.0
C947 C 0.50328 0.52398 0.83351 0.0
C948 C 0.52326 0.54067 0.84994 0.0
C949 C 0.54308 0.54115 0.84609 0.0
C950 C 0.56123 0.55486 0.86362 0.0
C951 C 0.55988 0.56812 0.88578 0.0
C952 C 0.54026 0.56818 0.88907 0.0
C953 C 0.52211 0.55455 0.87133 0.0
H954 H 0.60273 0.83807 0.49316 0.0
H955 H 0.60815 0.867 0.46032 0.0
H956 H 0.67341 0.9121 0.49509 0.0
H957 H 0.66815 0.88295 0.52722 0.0
H958 H 0.62848 0.82016 0.49039 0.0
H959 H 0.61146 0.85984 0.56358 0.0
H960 H 0.61921 0.89309 0.59238 0.0
H961 H 0.67988 0.90053 0.62179 0.0
H962 H 0.67197 0.86728 0.5932 0.0
H963 H 0.66917 0.81287 0.58916 0.0
H964 H 0.67462 0.78521 0.6114 0.0
H965 H 0.61084 0.73176 0.58008 0.0
H966 H 0.60574 0.75964 0.55728 0.0
H967 H 0.63985 0.82491 0.59473 0.0
H968 H 0.66186 0.79081 0.52569 0.0
H969 H 0.66378 0.76435 0.49312 0.0
H970 H 0.6065 0.75425 0.44835 0.0
H971 H 0.60301 0.77844 0.48351 0.0
C972 C 0.63497 0.85837 0.51275 0.0
C973 C 0.61803 0.85435 0.49405 0.0
C974 C 0.6211 0.87093 0.47541 0.0
C975 C 0.64127 0.89176 0.47498 0.0
C976 C 0.65778 0.89612 0.4947 0.0
C977 C 0.6547 0.87955 0.51332 0.0
C978 C 0.63317 0.83963 0.52892 0.0
C979 C 0.63023 0.82076 0.51335 0.0
C980 C 0.63686 0.84122 0.5586 0.0
C981 C 0.64119 0.86116 0.57615 0.0
C982 C 0.62645 0.8687 0.57618 0.0
C983 C 0.63091 0.8877 0.59261 0.0
C984 C 0.65016 0.89943 0.60937 0.0
C985 C 0.66476 0.89167 0.60947 0.0
C986 C 0.66029 0.87272 0.59306 0.0
C987 C 0.63712 0.7883 0.57143 0.0
C988 C 0.65624 0.79521 0.58738 0.0
C989 C 0.6593 0.77936 0.60016 0.0
C990 C 0.6432 0.75623 0.59747 0.0
C991 C 0.62374 0.7494 0.58216 0.0
C992 C 0.62073 0.7653 0.56925 0.0
C993 C 0.63495 0.80523 0.5562 0.0
C994 C 0.63729 0.82381 0.57189 0.0
C995 C 0.63165 0.80378 0.52637 0.0
C996 C 0.63196 0.78634 0.50763 0.0
C997 C 0.6491 0.78215 0.50968 0.0
C998 C 0.65053 0.76736 0.49037 0.0
C999 C 0.63553 0.75722 0.46753 0.0
C1000 C 0.61821 0.76127 0.46575 0.0
C1001 C 0.61633 0.77543 0.48573 0.0
H1002 H 0.15799 0.76792 0.48387 0.0
H1003 H 0.13087 0.74396 0.4473 0.0
H1004 H 0.08679 0.76445 0.47968 0.0
H1005 H 0.1138 0.78807 0.51624 0.0
H1006 H 0.17654 0.81385 0.48726 0.0
H1007 H 0.13083 0.75052 0.5493 0.0
H1008 H 0.09688 0.72352 0.57427 0.0
H1009 H 0.09343 0.77867 0.61243 0.0
H1010 H 0.12697 0.80545 0.58728 0.0
H1011 H 0.17659 0.85316 0.59789 0.0
H1012 H 0.20075 0.88559 0.62799 0.0
H1013 H 0.25761 0.89042 0.58604 0.0
H1014 H 0.23319 0.85612 0.55842 0.0
H1015 H 0.16671 0.81442 0.5918 0.0
H1016 H 0.20151 0.87626 0.53063 0.0
H1017 H 0.22881 0.90773 0.50296 0.0
H1018 H 0.24468 0.8633 0.4571 0.0
H1019 H 0.21883 0.83242 0.48688 0.0
C1020 C 0.1378 0.77957 0.50295 0.0
C1021 C 0.1423 0.76689 0.48334 0.0
C1022 C 0.12686 0.75334 0.46237 0.0
C1023 C 0.1067 0.75236 0.46049 0.0
C1024 C 0.10198 0.76453 0.48078 0.0
C1025 C 0.11742 0.77805 0.50174 0.0
C1026 C 0.15534 0.79631 0.52245 0.0
C1027 C 0.1747 0.8138 0.51024 0.0
C1028 C 0.15226 0.79676 0.55219 0.0
C1029 C 0.13147 0.78002 0.56643 0.0
C1030 C 0.12261 0.75676 0.56279 0.0
C1031 C 0.10326 0.74137 0.57706 0.0
C1032 C 0.09265 0.74905 0.59542 0.0
C1033 C 0.10145 0.7723 0.59878 0.0
C1034 C 0.12061 0.7876 0.58439 0.0
C1035 C 0.20297 0.85221 0.57548 0.0
C1036 C 0.19428 0.86084 0.59558 0.0
C1037 C 0.20822 0.8798 0.6125 0.0
C1038 C 0.23129 0.89115 0.60924 0.0
C1039 C 0.24 0.88217 0.58953 0.0
C1040 C 0.226 0.86268 0.57325 0.0
C1041 C 0.18769 0.83268 0.55661 0.0
C1042 C 0.16887 0.81446 0.56889 0.0
C1043 C 0.19057 0.83239 0.52668 0.0
C1044 C 0.20834 0.85199 0.51126 0.0
C1045 C 0.21139 0.87344 0.51529 0.0
C1046 C 0.22678 0.89139 0.49898 0.0
C1047 C 0.2389 0.88814 0.47742 0.0
C1048 C 0.236 0.86667 0.47372 0.0
C1049 C 0.221 0.84886 0.49056 0.0
H1050 H 0.13914 0.33235 0.4734 0.0
H1051 H 0.10805 0.32867 0.44731 0.0
H1052 H 0.11719 0.38826 0.49143 0.0
H1053 H 0.14857 0.39196 0.51754 0.0
H1054 H 0.18215 0.36588 0.47419 0.0
H1055 H 0.12375 0.3263 0.54049 0.0
H1056 H 0.09146 0.31878 0.5686 0.0
H1057 H 0.1309 0.38307 0.61304 0.0
H1058 H 0.16319 0.39057 0.58459 0.0
H1059 H 0.22975 0.3915 0.58142 0.0
H1060 H 0.25479 0.38423 0.6075 0.0
H1061 H 0.22965 0.32145 0.55968 0.0
H1062 H 0.2046 0.32866 0.53405 0.0
H1063 H 0.18254 0.36294 0.57953 0.0
H1064 H 0.24426 0.39538 0.51038 0.0
H1065 H 0.27185 0.39387 0.47981 0.0
H1066 H 0.22005 0.33174 0.44048 0.0
H1067 H 0.19269 0.33339 0.47074 0.0
C1068 C 0.14611 0.36239 0.4974 0.0
C1069 C 0.1345 0.34466 0.47742 0.0
C1070 C 0.11665 0.34248 0.46271 0.0
C1071 C 0.11015 0.35811 0.4675 0.0
C1072 C 0.12192 0.37604 0.48731 0.0
C1073 C 0.13972 0.37809 0.50228 0.0
C1074 C 0.16488 0.36423 0.51299 0.0
C1075 C 0.18232 0.3654 0.49724 0.0
C1076 C 0.16506 0.36352 0.54299 0.0
C1077 C 0.14572 0.35912 0.56025 0.0
C1078 C 0.1254 0.33879 0.55623 0.0
C1079 C 0.10705 0.33442 0.57248 0.0
C1080 C 0.1087 0.35034 0.59301 0.0
C1081 C 0.12915 0.3706 0.5972 0.0
C1082 C 0.14757 0.37488 0.58107 0.0
C1083 C 0.21558 0.36076 0.55561 0.0
C1084 C 0.22977 0.37625 0.57653 0.0
C1085 C 0.24406 0.37211 0.5913 0.0
C1086 C 0.24411 0.35225 0.58562 0.0
C1087 C 0.22982 0.33678 0.56468 0.0
C1088 C 0.21568 0.34099 0.54983 0.0
C1089 C 0.19976 0.36448 0.54069 0.0
C1090 C 0.18282 0.3643 0.55657 0.0
C1091 C 0.19959 0.36522 0.5107 0.0
C1092 C 0.21648 0.36449 0.49276 0.0
C1093 C 0.23893 0.38145 0.49519 0.0
C1094 C 0.25461 0.38062 0.47771 0.0
C1095 C 0.24804 0.36263 0.45795 0.0
C1096 C 0.22557 0.34565 0.45576 0.0
C1097 C 0.20993 0.34666 0.47287 0.0
C1098 C 0.95877 0.37762 0.08257 0.0
C1099 C 0.97948 0.38256 0.07249 0.0
H1100 H 0.94101 0.38751 0.11022 0.0
C1101 C -0.0014 0.40206 0.08297 0.0
H1102 H 0.94375 0.36262 0.075 0.0
C1103 C -0.00295 0.41664 0.10255 0.0
C1104 C 0.97634 0.41188 0.11262 0.0
H1105 H 0.01481 0.40647 0.0754 0.0
H1106 H 0.01214 0.43195 0.10916 0.0
C1107 C 0.95722 0.39201 0.10261 0.0
C1108 C 0.59141 0.59359 0.08236 0.0
C1109 C 0.61288 0.59938 0.0746 0.0
H1110 H 0.56364 0.57451 0.10945 0.0
C1111 C 0.62305 0.59017 0.08952 0.0
H1112 H 0.58305 0.60033 0.07132 0.0
C1113 C 0.61185 0.57533 0.11163 0.0
C1114 C 0.59037 0.56959 0.11933 0.0
H1115 H 0.63959 0.59433 0.08406 0.0
H1116 H 0.62004 0.56845 0.12282 0.0
C1117 C 0.58032 0.57891 0.10443 0.0
C1118 C 0.3959 0.99345 0.07846 0.0
C1119 C 0.39324 0.01145 0.07269 0.0
H1120 H 0.41413 0.98224 0.10036 0.0
C1121 C 0.40747 0.03262 0.08589 0.0
H1122 H 0.3854 0.97696 0.06845 0.0
C1123 C 0.42393 0.03559 0.10469 0.0
C1124 C 0.42648 0.01748 0.11051 0.0
H1125 H 0.40582 0.04681 0.08186 0.0
H1126 H 0.43444 0.05198 0.11492 0.0
C1127 C 0.41234 0.99644 0.09698 0.0
C1128 C 0.38286 -0.00048 0.93243 0.0
C1129 C 0.36824 0.98073 0.94851 0.0
H1130 H 0.40792 0.01296 0.90036 0.0
C1131 C 0.36658 0.96006 0.94243 0.0
H1132 H 0.3844 0.01565 0.93631 0.0
C1133 C 0.38013 0.95855 0.92169 0.0
C1134 C 0.3956 0.9777 0.9068 0.0
H1135 H 0.35542 0.94525 0.95436 0.0
H1136 H 0.37922 0.94268 0.91826 0.0
C1137 C 0.39641 -0.00197 0.91186 0.0
C1138 C 0.99035 0.39449 0.93499 0.0
C1139 C 0.00785 0.39313 0.94573 0.0
H1140 H 0.98024 0.41073 0.90707 0.0
C1141 C 0.02918 0.40711 0.93463 0.0
H1142 H 0.97373 0.38408 0.94316 0.0
C1143 C 0.03289 0.4223 0.91336 0.0
C1144 C 0.01536 0.42384 0.90291 0.0
H1145 H 0.04298 0.40638 0.94242 0.0
H1146 H 0.04947 0.43282 0.90512 0.0
C1147 C 0.99407 0.4097 0.91401 0.0
C1148 C 0.60127 0.61309 0.93776 0.0
C1149 C 0.61222 0.60279 0.94768 0.0
H1150 H 0.57634 0.61039 0.91009 0.0
C1151 C 0.6062 0.58137 0.93659 0.0
H1152 H 0.60556 0.62962 0.94586 0.0
C1153 C 0.58944 0.57035 0.91634 0.0
C1154 C 0.57831 0.5805 0.90653 0.0
H1155 H 0.61422 0.5729 0.94383 0.0
H1156 H 0.58485 0.5536 0.90888 0.0
C1157 C 0.58446 0.60204 0.91738 0.0
C1158 C 0.00302 0.61183 0.9294 0.0
C1159 C 0.00925 0.61182 0.95762 0.0
H1160 H 0.00152 0.60006 0.8863 0.0
C1161 C 0.01983 0.60023 0.96359 0.0
H1162 H 0.99492 0.62067 0.92405 0.0
C1163 C 0.02358 0.58842 0.94198 0.0
C1164 C 0.01679 0.58789 0.91391 0.0
H1165 H 0.02487 0.59991 0.98509 0.0
H1166 H 0.03116 0.57909 0.94746 0.0
C1167 C 0.00671 0.59994 0.90779 0.0
C1168 C 0.36458 0.38847 0.91642 0.0
C1169 C 0.36508 0.3943 0.94545 0.0
H1170 H 0.37945 0.39915 0.87535 0.0
C1171 C 0.38045 0.41648 0.9549 0.0
H1172 H 0.35296 0.37152 0.90847 0.0
C1173 C 0.39552 0.43229 0.9359 0.0
C1174 C 0.39567 0.42617 0.90714 0.0
H1175 H 0.38123 0.4215 0.97713 0.0
H1176 H 0.40764 0.44904 0.94396 0.0
C1177 C 0.37983 0.40422 0.89749 0.0
C1178 C 0.60439 0.0102 0.92369 0.0
C1179 C 0.60268 0.99181 0.93741 0.0
H1180 H 0.58938 0.02169 0.8956 0.0
C1181 C 0.58436 0.97007 0.93157 0.0
H1182 H 0.6184 0.02715 0.92744 0.0
C1183 C 0.56762 0.96697 0.9133 0.0
C1184 C 0.56893 0.98556 0.90063 0.0
H1185 H 0.58261 0.95557 0.94178 0.0
H1186 H 0.55327 0.95018 0.90999 0.0
C1187 C 0.58772 0.00711 0.90551 0.0
C1188 C 0.62717 0.04193 0.0797 0.0
C1189 C 0.62092 0.02078 0.06736 0.0
H1190 H 0.6195 0.06028 0.11023 0.0
C1191 C 0.60157 0.00154 0.07694 0.0
H1192 H 0.64206 0.05705 0.07286 0.0
C1193 C 0.58849 0.0034 0.09788 0.0
C1194 C 0.59453 0.02452 0.11017 0.0
H1195 H 0.59615 0.98499 0.06775 0.0
H1196 H 0.57327 0.98824 0.1038 0.0
C1197 C 0.61417 0.04377 0.101 0.0
C1198 C 0.00307 0.6168 0.09487 0.0
C1199 C 0.98494 0.61567 0.08181 0.0
H1200 H 0.01446 0.6015 0.1223 0.0
C1201 C 0.96351 0.59823 0.08885 0.0
H1202 H 0.01983 0.62985 0.08964 0.0
C1203 C 0.96033 0.58213 0.10847 0.0
C1204 C 0.97855 0.58289 0.121 0.0
H1205 H 0.94923 0.59701 0.07916 0.0
H1206 H 0.9436 0.56907 0.11369 0.0
C1207 C -6e-05 0.60053 0.1139 0.0
C1208 C 0.39242 0.383 0.10158 0.0
C1209 C 0.3997 0.38464 0.07326 0.0
H1210 H 0.40161 0.39208 0.14542 0.0
C1211 C 0.4225 0.39602 0.06779 0.0
H1212 H 0.37496 0.37425 0.10652 0.0
C1213 C 0.43771 0.40621 0.09003 0.0
C1214 C 0.43049 0.4053 0.11826 0.0
H1215 H 0.42867 0.39755 0.04623 0.0
H1216 H 0.45516 0.41558 0.08493 0.0
C1217 C 0.40767 0.39327 0.12386 0.0
C1218 C 0.62408 0.71517 0.40632 0.0
C1219 C 0.64545 0.72035 0.39944 0.0
H1220 H 0.60393 0.72163 0.43414 0.0
C1221 C 0.66339 0.73691 0.41561 0.0
H1222 H 0.60996 0.70225 0.39426 0.0
C1223 C 0.66015 0.74872 0.43769 0.0
C1224 C 0.63875 0.74373 0.4448 0.0
H1225 H 0.68008 0.74136 0.41048 0.0
H1226 H 0.67461 0.76222 0.44852 0.0
C1227 C 0.62071 0.72647 0.42906 0.0
C1228 C 0.28495 0.92489 0.42563 0.0
C1229 C 0.27882 0.94 0.41766 0.0
H1230 H 0.27782 0.89731 0.45163 0.0
C1231 C 0.26012 0.93855 0.43021 0.0
H1232 H 0.29941 0.92575 0.41642 0.0
C1233 C 0.24741 0.92193 0.44972 0.0
C1234 C 0.25332 0.9066 0.45772 0.0
H1235 H 0.25483 0.94981 0.42426 0.0
H1236 H 0.23254 0.92078 0.45782 0.0
C1237 C 0.27246 0.9085 0.44568 0.0
C1238 C 0.05459 0.33101 0.43134 0.0
C1239 C 0.05656 0.34899 0.41625 0.0
H1240 H 0.06989 0.31993 0.45958 0.0
C1241 C 0.07566 0.37055 0.41999 0.0
H1242 H 0.04003 0.31422 0.42917 0.0
C1243 C 0.09282 0.3738 0.43759 0.0
C1244 C 0.09119 0.35552 0.45153 0.0
H1245 H 0.07764 0.38476 0.40872 0.0
H1246 H 0.1077 0.39039 0.43936 0.0
C1247 C 0.07172 0.33423 0.44871 0.0
C1248 C 0.05165 0.33239 0.27172 0.0
C1249 C 0.03751 0.3147 0.28963 0.0
H1250 H 0.07587 0.34378 0.23857 0.0
C1251 C 0.03584 0.29381 0.28582 0.0
H1252 H 0.05324 0.34866 0.27389 0.0
C1253 C 0.04878 0.29102 0.26535 0.0
C1254 C 0.06373 0.30913 0.24855 0.0
H1255 H 0.02503 0.27983 0.29918 0.0
H1256 H 0.04782 0.27504 0.26353 0.0
C1257 C 0.06467 0.32965 0.25151 0.0
C1258 C 0.65501 0.72709 0.26071 0.0
C1259 C 0.67295 0.72689 0.27218 0.0
H1260 H 0.64421 0.74327 0.23376 0.0
C1261 C 0.69443 0.74286 0.26323 0.0
H1262 H 0.63825 0.71517 0.26742 0.0
C1263 C 0.69787 0.75879 0.24322 0.0
C1264 C 0.67991 0.75927 0.23211 0.0
H1265 H 0.70857 0.74304 0.27165 0.0
H1266 H 0.71461 0.77068 0.23646 0.0
C1267 C 0.65845 0.74317 0.24117 0.0
C1268 C 0.2346 0.9326 0.2941 0.0
C1269 C 0.25761 0.94422 0.29029 0.0
H1270 H 0.20275 0.91339 0.27455 0.0
C1271 C 0.26612 0.94651 0.26254 0.0
H1272 H 0.22751 0.93056 0.31518 0.0
C1273 C 0.25189 0.93674 0.2392 0.0
C1274 C 0.22888 0.92458 0.24311 0.0
H1275 H 0.28377 0.95547 0.25885 0.0
H1276 H 0.25891 0.93852 0.2181 0.0
C1277 C 0.2204 0.9229 0.27077 0.0
C1278 C 0.68141 0.95016 0.26721 0.0
C1279 C 0.65972 0.93935 0.27789 0.0
H1280 H 0.70393 0.94844 0.23794 0.0
C1281 C 0.64385 0.918 0.26657 0.0
H1282 H 0.69401 0.96666 0.27545 0.0
C1283 C 0.64954 0.90756 0.24528 0.0
C1284 C 0.67124 0.91823 0.23467 0.0
H1285 H 0.62702 0.90915 0.27437 0.0
H1286 H 0.63699 0.89085 0.23762 0.0
C1287 C 0.68712 0.9397 0.24581 0.0
C1288 C 0.03065 0.72527 0.23216 0.0
C1289 C 0.02944 0.73116 0.26076 0.0
H1290 H 0.04604 0.73652 0.1915 0.0
C1291 C 0.04243 0.75391 0.26975 0.0
H1292 H 0.02083 0.70792 0.2245 0.0
C1293 C 0.05687 0.77027 0.25082 0.0
C1294 C 0.05872 0.76423 0.22253 0.0
H1295 H 0.0419 0.75903 0.29163 0.0
H1296 H 0.06722 0.78753 0.25866 0.0
C1297 C 0.04518 0.74162 0.21328 0.0
C1298 C 0.27306 0.33905 0.25777 0.0
C1299 C 0.27215 0.32167 0.27307 0.0
H1300 H 0.25628 0.34875 0.23001 0.0
C1301 C 0.2534 0.29976 0.27025 0.0
H1302 H 0.28732 0.35608 0.25924 0.0
C1303 C 0.23555 0.29558 0.25337 0.0
C1304 C 0.23614 0.31326 0.23923 0.0
H1305 H 0.25223 0.286 0.28171 0.0
H1306 H 0.22098 0.27873 0.2523 0.0
C1307 C 0.25525 0.3349 0.2411 0.0
C1308 C 0.29263 0.37764 0.40253 0.0
C1309 C 0.29151 0.35703 0.39859 0.0
H1310 H 0.27976 0.39564 0.42475 0.0
C1311 C 0.27739 0.33903 0.41611 0.0
H1312 H 0.3034 0.39184 0.38945 0.0
C1313 C 0.26387 0.34119 0.43606 0.0
C1314 C 0.26429 0.36144 0.43917 0.0
H1315 H 0.2762 0.32296 0.41382 0.0
H1316 H 0.25271 0.32683 0.44871 0.0
C1317 C 0.27919 0.37986 0.42278 0.0
C1318 C 0.63425 0.92717 0.42153 0.0
C1319 C 0.65449 0.93698 0.40689 0.0
H1320 H 0.61418 0.90523 0.45479 0.0
C1321 C 0.67041 0.9323 0.41539 0.0
H1322 H 0.62166 0.93049 0.4155 0.0
C1323 C 0.66619 0.91802 0.43782 0.0
C1324 C 0.6459 0.90797 0.4523 0.0
H1325 H 0.68619 0.93958 0.40463 0.0
H1326 H 0.67867 0.91442 0.44335 0.0
C1327 C 0.62995 0.91269 0.44396 0.0
C1328 C 0.05383 0.71824 0.41768 0.0
C1329 C 0.06199 0.72024 0.38976 0.0
H1330 H 0.06152 0.72636 0.46195 0.0
C1331 C 0.08493 0.73152 0.38551 0.0
H1332 H 0.03623 0.70947 0.42173 0.0
C1333 C 0.09942 0.74134 0.40858 0.0
C1334 C 0.09129 0.74001 0.43642 0.0
H1335 H 0.09174 0.73336 0.36428 0.0
H1336 H 0.11702 0.7507 0.40445 0.0
C1337 C 0.06832 0.72799 0.44074 0.0
C1338 C 0.32702 0.06609 0.74518 0.0
C1339 C 0.3079 0.04868 0.73171 0.0
H1340 H 0.34084 0.09367 0.77512 0.0
C1341 C 0.28722 0.0445 0.74059 0.0
H1342 H 0.3432 0.06981 0.73844 0.0
C1343 C 0.28569 0.05759 0.76262 0.0
C1344 C 0.30488 0.07569 0.77557 0.0
H1345 H 0.27222 0.031 0.73062 0.0
H1346 H 0.26941 0.05349 0.76932 0.0
C1347 C 0.32557 0.07965 0.7665 0.0
C1348 C 0.93081 0.27132 0.76157 0.0
C1349 C 0.94935 0.27245 0.74895 0.0
H1350 H 0.9036 0.25434 0.7899 0.0
C1351 C 0.95518 0.2571 0.75693 0.0
H1352 H 0.9257 0.28272 0.75558 0.0
C1353 C 0.94277 0.24105 0.77743 0.0
C1354 C 0.92405 0.2398 0.78997 0.0
H1355 H 0.96947 0.25767 0.74761 0.0
H1356 H 0.94797 0.22977 0.78356 0.0
C1357 C 0.91822 0.2551 0.78153 0.0
C1358 C 0.71629 0.66082 0.76621 0.0
C1359 C 0.71768 0.67721 0.7483 0.0
H1360 H 0.73304 0.65217 0.79558 0.0
C1361 C 0.73723 0.69862 0.74819 0.0
H1362 H 0.70147 0.64418 0.76693 0.0
C1363 C 0.7553 0.70323 0.76492 0.0
C1364 C 0.75415 0.6864 0.78169 0.0
H1365 H 0.73877 0.71162 0.7347 0.0
H1366 H 0.77045 0.71959 0.76385 0.0
C1367 C 0.73437 0.66533 0.78258 0.0
C1368 C 0.70953 0.62524 0.62902 0.0
C1369 C 0.70102 0.63903 0.62472 0.0
H1370 H 0.72886 0.61232 0.61213 0.0
C1371 C 0.70387 0.64869 0.59803 0.0
H1372 H 0.7076 0.61752 0.64932 0.0
C1373 C 0.7159 0.64553 0.57659 0.0
C1374 C 0.7254 0.6327 0.58137 0.0
H1375 H 0.69734 0.65923 0.59391 0.0
H1376 H 0.71814 0.65354 0.55643 0.0
C1377 C 0.72162 0.62215 0.60761 0.0
C1378 C 0.3173 0.05585 0.59191 0.0
C1379 C 0.3341 0.05371 0.60342 0.0
H1380 H 0.30892 0.07401 0.56479 0.0
C1381 C 0.35595 0.06801 0.59419 0.0
H1382 H 0.30032 0.04522 0.59877 0.0
C1383 C 0.36088 0.0843 0.57403 0.0
C1384 C 0.34411 0.08685 0.563 0.0
H1385 H 0.36923 0.06664 0.60258 0.0
H1386 H 0.37785 0.09492 0.56717 0.0
C1387 C 0.32225 0.07231 0.57217 0.0
C1388 C 0.90913 0.2758 0.62677 0.0
C1389 C 0.93199 0.28576 0.62291 0.0
H1390 H 0.87704 0.25686 0.60798 0.0
C1391 C 0.94008 0.28573 0.59542 0.0
H1392 H 0.90233 0.2755 0.64767 0.0
C1393 C 0.92555 0.2753 0.57246 0.0
C1394 C 0.90259 0.26455 0.57652 0.0
H1395 H 0.95764 0.29344 0.59169 0.0
H1396 H 0.9323 0.27541 0.5516 0.0
C1397 C 0.8946 0.26525 0.60389 0.0
C1398 C 0.34258 0.28064 0.59299 0.0
C1399 C 0.34706 0.27886 0.62147 0.0
H1400 H 0.34317 0.27099 0.54936 0.0
C1401 C 0.3571 0.26673 0.62741 0.0
H1402 H 0.33495 0.28995 0.58769 0.0
C1403 C 0.36179 0.2559 0.60548 0.0
C1404 C 0.35649 0.25689 0.57713 0.0
H1405 H 0.36083 0.2651 0.6491 0.0
H1406 H 0.36875 0.24597 0.61089 0.0
C1407 C 0.3472 0.26971 0.57105 0.0
C1408 C 0.70948 0.0779 0.60157 0.0
C1409 C 0.71564 0.06298 0.61029 0.0
H1410 H 0.71663 0.105 0.5746 0.0
C1411 C 0.73474 0.0647 0.59874 0.0
H1412 H 0.69474 0.07684 0.61005 0.0
C1413 C 0.74759 0.08113 0.5791 0.0
C1414 C 0.74142 0.09599 0.56993 0.0
H1415 H 0.74008 0.05362 0.60534 0.0
H1416 H 0.76262 0.08237 0.57156 0.0
C1417 C 0.72212 0.0941 0.58137 0.0
C1418 C 0.92635 0.63038 0.56635 0.0
C1419 C 0.92515 0.62778 0.59599 0.0
H1420 H 0.90994 0.63068 0.52871 0.0
C1421 C 0.90507 0.62104 0.60998 0.0
H1422 H 0.94154 0.63548 0.55491 0.0
C1423 C 0.88707 0.61835 0.595 0.0
C1424 C 0.88866 0.62217 0.56568 0.0
H1425 H 0.90349 0.61872 0.63276 0.0
H1426 H 0.87206 0.6139 0.60653 0.0
C1427 C 0.90823 0.62754 0.55131 0.0
C1428 C 0.93976 0.66939 0.74281 0.0
C1429 C 0.95279 0.68599 0.72304 0.0
H1430 H 0.91665 0.65952 0.7772 0.0
C1431 C 0.95409 0.70678 0.72502 0.0
H1432 H 0.93847 0.65324 0.74206 0.0
C1433 C 0.94172 0.71043 0.74554 0.0
C1434 C 0.92772 0.69324 0.76405 0.0
H1435 H 0.96408 0.71993 0.71021 0.0
H1436 H 0.94226 0.72621 0.74603 0.0
C1437 C 0.92724 0.67293 0.76295 0.0
C1438 C 0.29224 0.24939 0.73884 0.0
C1439 C 0.30049 0.27181 0.74797 0.0
H1440 H 0.28522 0.21677 0.74984 0.0
C1441 C 0.30658 0.27802 0.77667 0.0
H1442 H 0.2874 0.24407 0.71687 0.0
C1443 C 0.30549 0.26242 0.79548 0.0
C1444 C 0.29802 0.24023 0.78605 0.0
H1445 H 0.31303 0.29517 0.78437 0.0
H1446 H 0.31087 0.2678 0.81729 0.0
C1447 C 0.29091 0.23373 0.75773 0.0
C1448 C 0.75419 0.05883 0.73252 0.0
C1449 C 0.73137 0.04926 0.73626 0.0
H1450 H 0.78633 0.0781 0.7511 0.0
C1451 C 0.72338 0.05037 0.76344 0.0
H1452 H 0.7609 0.05833 0.71184 0.0
C1453 C 0.73799 0.06146 0.78618 0.0
C1454 C 0.76092 0.07182 0.78219 0.0
H1455 H 0.70586 0.043 0.76708 0.0
H1456 H 0.73132 0.06215 0.80681 0.0
C1457 C 0.76879 0.07005 0.75516 0.0
C1458 C 0.06374 0.34531 0.05816 0.0
C1459 C 0.04092 0.32938 0.05759 0.0
H1460 H 0.09557 0.35333 0.07249 0.0
C1461 C 0.03279 0.30853 0.07036 0.0
H1462 H 0.07048 0.36151 0.0485 0.0
C1463 C 0.0471 0.30381 0.08384 0.0
C1464 C 0.06983 0.31994 0.08511 0.0
H1465 H 0.01528 0.29585 0.07018 0.0
H1466 H 0.04031 0.28777 0.09397 0.0
C1467 C 0.07806 0.34068 0.07199 0.0
C1468 C 0.67823 0.71928 0.04656 0.0
C1469 C 0.65587 0.70232 0.04289 0.0
H1470 H 0.70153 0.75291 0.06135 0.0
C1471 C 0.63955 0.70646 0.0524 0.0
H1472 H 0.69118 0.71658 0.03926 0.0
C1473 C 0.64546 0.72707 0.06564 0.0
C1474 C 0.66784 0.74418 0.0692 0.0
H1475 H 0.62218 0.69361 0.05014 0.0
H1476 H 0.63241 0.72941 0.07348 0.0
C1477 C 0.68416 0.74005 0.0594 0.0
C1478 C 0.2833 0.96312 0.06391 0.0
C1479 C 0.28505 0.9586 0.0349 0.0
H1480 H 0.26357 0.95225 0.10175 0.0
C1481 C 0.26752 0.93911 0.02169 0.0
H1482 H 0.2965 0.97804 0.0747 0.0
C1483 C 0.24874 0.92432 0.03727 0.0
C1484 C 0.24702 0.92886 0.06625 0.0
H1485 H 0.26836 0.93517 0.99939 0.0
H1486 H 0.23546 0.9094 0.02657 0.0
C1487 C 0.26442 0.94846 0.07939 0.0
C1488 C 0.32086 0.04562 0.93915 0.0
C1489 C 0.33182 0.05071 0.96546 0.0
H1490 H 0.30849 0.05656 0.90649 0.0
C1491 C 0.33828 0.07135 0.97953 0.0
H1492 H 0.31569 0.02989 0.92768 0.0
C1493 C 0.33396 0.08662 0.9674 0.0
C1494 C 0.32308 0.08154 0.94099 0.0
H1495 H 0.34669 0.07572 0.99988 0.0
H1496 H 0.33901 0.10235 0.97879 0.0
C1497 C 0.31656 0.06084 0.92707 0.0
C1498 C 0.95603 0.28652 0.96565 0.0
C1499 C 0.95086 0.28977 0.99373 0.0
H1500 H 0.94596 0.26501 0.92829 0.0
C1501 C 0.93108 0.27283 0.00592 0.0
H1502 H 0.97115 0.29923 0.95559 0.0
C1503 C 0.91668 0.25316 0.99024 0.0
C1504 C 0.92181 0.25001 0.9621 0.0
H1505 H 0.92666 0.27478 0.02753 0.0
H1506 H 0.90156 0.24035 0.00019 0.0
C1507 C 0.94169 0.26684 0.95004 0.0
C1508 C 0.7309 0.6919 0.95569 0.0
C1509 C 0.71701 0.67088 0.96801 0.0
H1510 H 0.76009 0.71253 0.9313 0.0
C1511 C 0.72272 0.6545 0.96577 0.0
H1512 H 0.72699 0.70491 0.95711 0.0
C1513 C 0.74167 0.65887 0.95086 0.0
C1514 C 0.75537 0.67979 0.93821 0.0
H1515 H 0.71235 0.63815 0.97505 0.0
H1516 H 0.74561 0.64589 0.9492 0.0
C1517 C 0.74993 0.69634 0.94105 0.0
C1518 C 0.9334 0.66561 0.96669 0.0
C1519 C 0.9488 0.66292 0.95084 0.0
H1520 H 0.90825 0.67368 0.96585 0.0
C1521 C 0.95027 0.66597 0.92131 0.0
H1522 H 0.932 0.66348 0.9895 0.0
C1523 C 0.93661 0.67157 0.90785 0.0
C1524 C 0.92145 0.67459 0.92369 0.0
H1525 H 0.96198 0.664 0.90854 0.0
H1526 H 0.93812 0.67387 0.88505 0.0
C1527 C 0.91996 0.67161 0.95324 0.0
C1528 C 0.35904 0.30295 0.95306 0.0
C1529 C 0.34414 0.30427 0.97175 0.0
H1530 H 0.36498 0.28213 0.92466 0.0
C1531 C 0.32333 0.28476 0.97633 0.0
H1532 H 0.37516 0.31769 0.94898 0.0
C1533 C 0.31753 0.26438 0.96243 0.0
C1534 C 0.33244 0.26307 0.94375 0.0
H1535 H 0.31147 0.2852 0.99062 0.0
H1536 H 0.30147 0.24958 0.96657 0.0
C1537 C 0.35325 0.28256 0.93922 0.0
C1538 C 0.72546 0.06278 0.00029 0.0
C1539 C 0.7076 0.04416 0.98621 0.0
H1540 H 0.75821 0.09177 0.99655 0.0
C1541 C 0.70945 0.04032 0.95699 0.0
H1542 H 0.72451 0.06614 0.02278 0.0
C1543 C 0.72873 0.05478 0.94215 0.0
C1544 C 0.74646 0.07354 0.95611 0.0
H1545 H 0.69601 0.02605 0.94554 0.0
H1546 H 0.72962 0.05153 0.91961 0.0
C1547 C 0.74468 0.07745 0.9853 0.0
C1548 C 0.68654 0.95125 0.02842 0.0
C1549 C 0.66553 0.94846 0.02759 0.0
H1550 H 0.70656 0.93977 0.04511 0.0
C1551 C 0.64815 0.93105 0.04297 0.0
H1552 H 0.7003 0.96453 0.01686 0.0
C1553 C 0.65177 0.91695 0.05916 0.0
C1554 C 0.67287 0.92002 0.06043 0.0
H1555 H 0.63178 0.9285 0.04284 0.0
H1556 H 0.63814 0.90391 0.07117 0.0
C1557 C 0.6902 0.93723 0.04479 0.0
C1558 C 0.03998 0.72515 0.03108 0.0
C1559 C 0.04517 0.70841 0.02819 0.0
H1560 H 0.05002 0.75828 0.04673 0.0
C1561 C 0.06511 0.71256 0.03943 0.0
H1562 H 0.02472 0.7224 0.02245 0.0
C1563 C 0.07929 0.7328 0.05412 0.0
C1564 C 0.07409 0.74959 0.05737 0.0
H1565 H 0.06938 0.69981 0.03784 0.0
H1566 H 0.09403 0.73495 0.06361 0.0
C1567 C 0.05439 0.74562 0.04525 0.0
C1568 C 0.2633 0.3058 0.06943 0.0
C1569 C 0.27851 0.32721 0.05891 0.0
H1570 H 0.23256 0.28504 0.09084 0.0
C1571 C 0.27349 0.34412 0.06103 0.0
H1572 H 0.26664 0.29238 0.06807 0.0
C1573 C 0.25393 0.33987 0.07406 0.0
C1574 C 0.23894 0.31859 0.08507 0.0
H1575 H 0.28481 0.36075 0.05303 0.0
H1576 H 0.25056 0.35326 0.07559 0.0
C1577 C 0.2437 0.30152 0.08232 0.0
C1578 C 0.70255 0.66053 0.41963 0.0
C1579 C 0.70919 0.67327 0.3949 0.0
H1580 H 0.711 0.64553 0.45184 0.0
C1581 C 0.73023 0.68068 0.38353 0.0
H1582 H 0.68649 0.65465 0.42905 0.0
C1583 C 0.74424 0.67522 0.3965 0.0
C1584 C 0.7375 0.6623 0.42112 0.0
H1585 H 0.73579 0.69046 0.36443 0.0
H1586 H 0.76021 0.68081 0.38697 0.0
C1587 C 0.71655 0.65514 0.43261 0.0
C1588 C 0.34199 0.05244 0.3726 0.0
C1589 C 0.31939 0.0366 0.36836 0.0
H1590 H 0.36651 0.08516 0.38878 0.0
C1591 C 0.30388 0.04193 0.37778 0.0
H1592 H 0.35431 0.04878 0.36535 0.0
C1593 C 0.3108 0.06249 0.39191 0.0
C1594 C 0.33343 0.0784 0.3964 0.0
H1595 H 0.28634 0.02992 0.37508 0.0
H1596 H 0.29829 0.0656 0.39993 0.0
C1597 C 0.34895 0.0732 0.38624 0.0
C1598 C 0.93535 0.27444 0.35582 0.0
C1599 C 0.95244 0.29445 0.36867 0.0
H1600 H 0.90367 0.2443 0.36105 0.0
C1601 C 0.95017 0.29959 0.39726 0.0
H1602 H 0.93659 0.27004 0.33384 0.0
C1603 C 0.93134 0.28492 0.41276 0.0
C1604 C 0.91445 0.26473 0.40008 0.0
H1605 H 0.96301 0.31491 0.40779 0.0
H1606 H 0.93024 0.28914 0.43488 0.0
C1607 C 0.91657 0.25967 0.37142 0.0
C1608 C 0.00532 0.40614 0.31303 0.0
C1609 C 0.00021 0.38608 0.29842 0.0
H1610 H 0.0045 0.4363 0.31271 0.0
C1611 C 0.99035 0.3813 0.27137 0.0
H1612 H 0.01281 0.41024 0.33397 0.0
C1613 C 0.98573 0.39625 0.25914 0.0
C1614 C 0.99079 0.41631 0.27371 0.0
H1615 H 0.98627 0.36602 0.25949 0.0
H1616 H 0.97851 0.39225 0.23804 0.0
C1617 C 0.00062 0.42109 0.30081 0.0
C1618 C 0.59546 0.62209 0.31433 0.0
C1619 C 0.61688 0.62835 0.32214 0.0
H1620 H 0.56592 0.59822 0.29233 0.0
C1621 C 0.6245 0.61397 0.31496 0.0
H1622 H 0.58937 0.63312 0.31923 0.0
C1623 C 0.61079 0.59348 0.30038 0.0
C1624 C 0.58938 0.58726 0.29196 0.0
H1625 H 0.64099 0.61847 0.32089 0.0
H1626 H 0.617 0.58252 0.29596 0.0
C1627 C 0.58199 0.60196 0.29903 0.0
C1628 C 0.38469 0.98697 0.30699 0.0
C1629 C 0.37143 0.99332 0.29358 0.0
H1630 H 0.41476 0.98707 0.30585 0.0
C1631 C 0.37847 0.00442 0.26763 0.0
H1632 H 0.37976 0.9785 0.32708 0.0
C1633 C 0.39838 0.00914 0.25535 0.0
C1634 C 0.41179 0.00299 0.26883 0.0
H1635 H 0.36857 0.00942 0.25667 0.0
H1636 H 0.40313 0.01737 0.23509 0.0
C1637 C 0.4047 0.99181 0.29477 0.0
C1638 C 0.61711 0.02439 0.31492 0.0
C1639 C 0.61579 0.00359 0.31429 0.0
H1640 H 0.60405 0.04353 0.29965 0.0
C1641 C 0.59949 0.9857 0.29736 0.0
H1642 H 0.62945 0.03852 0.32776 0.0
C1643 C 0.58503 0.98864 0.28112 0.0
C1644 C 0.58657 0.00954 0.28143 0.0
H1645 H 0.59809 0.96949 0.2963 0.0
H1646 H 0.57292 0.97466 0.26787 0.0
C1647 C 0.60268 0.02733 0.29863 0.0
C1648 C -0.00215 0.61356 0.33009 0.0
C1649 C 0.99476 0.6294 0.31685 0.0
H1650 H -0.00397 0.58202 0.32601 0.0
C1651 C 0.98687 0.62503 0.2887 0.0
H1652 H 0.00384 0.61639 0.35179 0.0
C1653 C 0.9824 0.60537 0.27398 0.0
C1654 C 0.9858 0.58969 0.28705 0.0
H1655 H 0.98429 0.63688 0.27787 0.0
H1656 H 0.97678 0.60271 0.25211 0.0
C1657 C 0.99346 0.59392 0.31531 0.0
C1658 C 0.38085 0.37339 0.29215 0.0
C1659 C 0.37824 0.37843 0.32065 0.0
H1660 H 0.40183 0.38329 0.25549 0.0
C1661 C 0.39565 0.39776 0.33426 0.0
H1662 H 0.36776 0.35859 0.28104 0.0
C1663 C 0.41518 0.4119 0.31955 0.0
C1664 C 0.41772 0.40687 0.29104 0.0
H1665 H 0.39417 0.40206 0.35621 0.0
H1666 H 0.42837 0.42671 0.33053 0.0
C1667 C 0.40042 0.38742 0.27754 0.0
C1668 C 0.34228 0.29286 0.41611 0.0
C1669 C 0.33221 0.28811 0.3892 0.0
H1670 H 0.35489 0.28209 0.44873 0.0
C1671 C 0.3277 0.26847 0.374 0.0
H1672 H 0.34595 0.30785 0.42839 0.0
C1673 C 0.33306 0.25383 0.38556 0.0
C1674 C 0.34298 0.25849 0.41259 0.0
H1675 H 0.3201 0.26443 0.35313 0.0
H1676 H 0.32956 0.23891 0.37325 0.0
C1677 C 0.34758 0.2782 0.42769 0.0
C1678 C 0.73636 0.04437 0.3857 0.0
C1679 C 0.71611 0.03957 0.37472 0.0
H1680 H 0.7656 0.06779 0.40882 0.0
C1681 C 0.71036 0.05591 0.37765 0.0
H1682 H 0.74113 0.03201 0.38402 0.0
C1683 C 0.72456 0.07663 0.3914 0.0
C1684 C 0.74471 0.08136 0.40286 0.0
H1685 H 0.69488 0.05272 0.36923 0.0
H1686 H 0.71979 0.08898 0.39287 0.0
C1687 C 0.75043 0.06495 0.39981 0.0
C1688 C 0.94661 0.66945 0.42142 0.0
C1689 C 0.9501 0.67547 0.39271 0.0
H1690 H 0.92462 0.6593 0.45706 0.0
C1691 C 0.9335 0.67607 0.37786 0.0
H1692 H 0.95909 0.66884 0.43347 0.0
C1693 C 0.91367 0.67046 0.3914 0.0
C1694 C 0.91023 0.66442 0.42009 0.0
H1695 H 0.93571 0.68061 0.35571 0.0
H1696 H 0.9011 0.671 0.3795 0.0
C1697 C 0.92693 0.66409 0.435 0.0
C1698 C 0.39144 0.01124 0.71773 0.0
C1699 C 0.369 0.99402 0.71683 0.0
H1700 H 0.42394 0.02161 0.73203 0.0
C1701 C 0.3623 0.97331 0.72915 0.0
H1702 H 0.3971 0.02737 0.70842 0.0
C1703 C 0.37765 0.97 0.74247 0.0
C1704 C 0.39997 0.98739 0.744 0.0
H1705 H 0.34513 0.95968 0.72872 0.0
H1706 H 0.37195 0.95402 0.75225 0.0
C1707 C 0.40676 0.00799 0.73135 0.0
C1708 C 0.99113 0.38993 0.68915 0.0
C1709 C -0.00428 0.37462 0.70084 0.0
H1710 H 0.99227 0.42102 0.6949 0.0
C1711 C 0.00546 0.37942 0.72798 0.0
H1712 H 0.98374 0.38677 0.66824 0.0
C1713 C 0.01024 0.39895 0.74328 0.0
C1714 C 0.00541 0.41413 0.73178 0.0
H1715 H 0.00918 0.36796 0.73764 0.0
H1716 H 0.01725 0.40188 0.76441 0.0
C1717 C -0.00406 0.4095 0.70447 0.0
C1718 C 0.59761 0.59385 0.68956 0.0
C1719 C 0.61438 0.61438 0.70177 0.0
H1720 H 0.56659 0.56314 0.69574 0.0
C1721 C 0.61243 0.6196 0.73043 0.0
H1722 H 0.5986 0.58937 0.66753 0.0
C1723 C 0.59421 0.60457 0.74658 0.0
C1724 C 0.5775 0.58398 0.73447 0.0
H1725 H 0.6251 0.63524 0.74056 0.0
H1726 H 0.59344 0.60893 0.76873 0.0
C1727 C 0.57934 0.57879 0.70576 0.0
C1728 C 0.66227 0.72816 0.64722 0.0
C1729 C 0.65621 0.70806 0.63198 0.0
H1730 H 0.66239 0.75882 0.64869 0.0
C1731 C 0.64539 0.70367 0.60568 0.0
H1732 H 0.67048 0.73194 0.66766 0.0
C1733 C 0.64096 0.71917 0.59467 0.0
C1734 C 0.64712 0.73936 0.60979 0.0
H1735 H 0.64056 0.68836 0.59337 0.0
H1736 H 0.63313 0.71552 0.57399 0.0
C1737 C 0.6577 0.7436 0.63629 0.0
C1738 C 0.28165 0.93939 0.64743 0.0
C1739 C 0.27425 0.95388 0.65505 0.0
H1740 H 0.27372 0.90782 0.62841 0.0
C1741 C 0.25262 0.94754 0.64834 0.0
H1742 H 0.29829 0.94392 0.65262 0.0
C1743 C 0.23878 0.9273 0.63341 0.0
C1744 C 0.24603 0.91257 0.62567 0.0
H1745 H 0.24667 0.95862 0.65369 0.0
H1746 H 0.22258 0.92359 0.62739 0.0
C1747 C 0.2676 0.9188 0.63328 0.0
C1748 C 0.06447 0.35851 0.62572 0.0
C1749 C 0.04986 0.33727 0.6371 0.0
H1750 H 0.09452 0.37925 0.60295 0.0
C1751 C 0.05521 0.32061 0.63498 0.0
H1752 H 0.06087 0.37174 0.62709 0.0
C1753 C 0.07451 0.32493 0.62102 0.0
C1754 C 0.0889 0.34607 0.60924 0.0
H1755 H 0.04429 0.30409 0.64356 0.0
H1756 H 0.07814 0.31172 0.61936 0.0
C1757 C 0.08383 0.36289 0.61205 0.0
C1758 C 0.29553 0.35981 0.61935 0.0
C1759 C 0.28768 0.33822 0.62969 0.0
H1760 H 0.28788 0.38115 0.59729 0.0
C1761 C 0.26525 0.32145 0.62615 0.0
H1762 H 0.31272 0.37311 0.62179 0.0
C1763 C 0.25107 0.32608 0.61204 0.0
C1764 C 0.25899 0.34759 0.60142 0.0
H1765 H 0.25869 0.30467 0.63392 0.0
H1766 H 0.23386 0.31282 0.60951 0.0
C1767 C 0.2813 0.36447 0.60545 0.0
C1768 C 0.6574 0.9558 0.62985 0.0
C1769 C 0.66646 0.95988 0.65735 0.0
H1770 H 0.64538 0.9337 0.59311 0.0
C1771 C 0.66974 0.94371 0.66921 0.0
H1772 H 0.6547 0.96794 0.62003 0.0
C1773 C 0.66422 0.92395 0.65379 0.0
C1774 C 0.65533 0.91999 0.6262 0.0
H1775 H 0.6766 0.9463 0.69039 0.0
H1776 H 0.66681 0.91172 0.66355 0.0
C1777 C 0.6519 0.9361 0.61446 0.0
C1778 C 0.03603 0.699 0.61287 0.0
C1779 C 0.03409 0.70318 0.64195 0.0
H1780 H 0.05615 0.71024 0.57536 0.0
C1781 C 0.05164 0.72236 0.65561 0.0
H1782 H 0.0228 0.68432 0.60175 0.0
C1783 C 0.07066 0.73716 0.64049 0.0
C1784 C 0.0726 0.73301 0.61144 0.0
H1785 H 0.0507 0.72602 0.678 0.0
H1786 H 0.08397 0.75178 0.65161 0.0
C1787 C 0.05515 0.71373 0.5978 0.0
C1788 C 0.98632 0.5952 0.70633 0.0
C1789 C 0.99095 0.61538 0.72013 0.0
H1790 H 0.98769 0.56542 0.70825 0.0
C1791 C 0.00071 0.62089 0.74729 0.0
H1792 H 0.9789 0.59053 0.68534 0.0
C1793 C 0.00563 0.60648 0.76046 0.0
C1794 C 0.00092 0.58624 0.74676 0.0
H1795 H 0.00445 0.6363 0.75855 0.0
H1796 H 0.01276 0.61101 0.78162 0.0
C1797 C 0.99127 0.58078 0.71951 0.0
C1798 C 0.38953 0.36299 0.73835 0.0
C1799 C 0.37299 0.36133 0.72076 0.0
H1800 H 0.41704 0.38417 0.76567 0.0
C1801 C 0.37166 0.38048 0.71737 0.0
H1802 H 0.39093 0.34853 0.74152 0.0
C1803 C 0.38663 0.40091 0.73122 0.0
C1804 C 0.40328 0.4026 0.74861 0.0
H1805 H 0.35906 0.37974 0.704 0.0
H1806 H 0.38541 0.41547 0.72793 0.0
C1807 C 0.40454 0.38342 0.7521 0.0
C1808 C 0.59782 0.97835 0.72995 0.0
C1809 C 0.61318 -0.00064 0.71857 0.0
H1810 H 0.56699 0.95841 0.75148 0.0
C1811 C 0.60841 0.01646 0.71941 0.0
H1812 H 0.60097 0.96479 0.72956 0.0
C1813 C 0.58891 0.01278 0.73205 0.0
C1814 C 0.57374 0.99187 0.74381 0.0
H1815 H 0.6199 0.03281 0.71079 0.0
H1816 H 0.58571 0.02631 0.7327 0.0
C1817 C 0.57827 0.97462 0.74234 0.0
loop_
_geom_bond_atom_site_label_1
_geom_bond_atom_site_label_2
_geom_bond_distance
_geom_bond_site_symmetry_2
_ccdc_geom_bond_type
C0 O1 1.160 . S
C0 O7 1.185 . S
O1 C0 1.160 . S
O2 Zn3 1.899 1_656 S
O2 C10 1.284 . S
Zn3 O2 1.899 1_454 S
Zn3 O4 2.032 . S
Zn3 O7 2.086 . S
Zn3 O12 1.977 1_554 S
O4 Zn3 2.032 . S
O4 C8 1.278 1_455 S
C5 O6 1.203 1_455 S
C5 O12 1.267 . S
O6 C5 1.203 1_655 S
O7 C0 1.185 . S
O7 Zn3 2.086 . S
C8 O4 1.278 1_655 S
C8 O9 1.211 . S
O9 C8 1.211 . S
C10 O2 1.284 . S
C10 O11 1.273 1_556 S
O11 C10 1.273 1_554 S
O12 Zn3 1.977 1_556 S
O12 C5 1.267 . S
C13 O14 1.160 . S
C13 O20 1.185 1_556 S
O14 C13 1.160 . S
O15 Zn16 1.899 . S
O15 C23 1.284 . S
Zn16 O15 1.899 . S
Zn16 O17 2.032 1_554 S
Zn16 O20 2.086 . S
Zn16 O25 1.977 . S
O17 Zn16 2.032 1_556 S
O17 C21 1.278 . S
C18 O19 1.203 . S
C18 O25 1.267 . S
O19 C18 1.203 . S
O20 C13 1.185 1_554 S
O20 Zn16 2.086 . S
C21 O17 1.278 . S
C21 O22 1.211 . S
O22 C21 1.211 . S
C23 O15 1.284 . S
C23 O24 1.273 . S
O24 C23 1.273 . S
O25 Zn16 1.977 . S
O25 C18 1.267 . S
C26 O27 1.160 . S
C26 O33 1.185 1_556 S
O27 C26 1.160 . S
O28 Zn29 1.899 1_565 S
O28 C36 1.284 . S
Zn29 O28 1.899 1_545 S
Zn29 O30 2.032 1_554 S
Zn29 O33 2.086 . S
Zn29 O38 1.977 . S
O30 Zn29 2.032 1_556 S
O30 C34 1.278 1_545 S
C31 O32 1.203 1_545 S
C31 O38 1.267 . S
O32 C31 1.203 1_565 S
O33 C26 1.185 1_554 S
O33 Zn29 2.086 . S
C34 O30 1.278 1_565 S
C34 O35 1.211 . S
O35 C34 1.211 . S
C36 O28 1.284 . S
C36 O37 1.273 . S
O37 C36 1.273 . S
O38 Zn29 1.977 . S
O38 C31 1.267 . S
C39 O40 1.160 . S
C39 O46 1.185 1_556 S
O40 C39 1.160 . S
O41 Zn42 1.899 1_455 S
O41 C49 1.284 . S
Zn42 O41 1.899 1_655 S
Zn42 O43 2.033 1_654 S
Zn42 O46 2.086 . S
Zn42 O51 1.977 . S
O43 Zn42 2.033 1_456 S
O43 C47 1.274 . S
C44 O45 1.203 1_655 S
C44 O51 1.267 . S
O45 C44 1.203 1_455 S
O46 C39 1.185 1_554 S
O46 Zn42 2.086 . S
C47 O43 1.274 . S
C47 O48 1.211 . S
O48 C47 1.211 . S
C49 O41 1.284 . S
C49 O50 1.273 . S
O50 C49 1.273 . S
O51 Zn42 1.977 . S
O51 C44 1.267 . S
C52 O53 1.160 . S
C52 O59 1.185 . S
O53 C52 1.160 . S
O54 Zn55 1.899 1_556 S
O54 C62 1.284 . S
Zn55 O54 1.899 1_554 S
Zn55 O56 2.032 . S
Zn55 O59 2.086 . S
Zn55 O64 1.977 1_554 S
O56 Zn55 2.032 . S
O56 C60 1.278 . S
C57 O58 1.203 . S
C57 O64 1.267 . S
O58 C57 1.203 . S
O59 C52 1.185 . S
O59 Zn55 2.086 . S
C60 O56 1.278 . S
C60 O61 1.211 . S
O61 C60 1.211 . S
C62 O54 1.284 . S
C62 O63 1.273 1_556 S
O63 C62 1.273 1_554 S
O64 Zn55 1.977 1_556 S
O64 C57 1.267 . S
C65 O66 1.160 . S
C65 O72 1.185 . S
O66 C65 1.160 . S
O67 Zn68 1.899 1_546 S
O67 C75 1.284 . S
Zn68 O67 1.899 1_564 S
Zn68 O69 2.020 1_565 S
Zn68 O72 2.086 . S
Zn68 O77 1.977 1_554 S
O69 Zn68 2.020 1_545 S
O69 C73 1.311 . S
C70 O71 1.203 1_565 S
C70 O77 1.267 . S
O71 C70 1.203 1_545 S
O72 C65 1.185 . S
O72 Zn68 2.086 . S
C73 O69 1.311 . S
C73 O74 1.211 . S
O74 C73 1.211 . S
C75 O67 1.284 . S
C75 O76 1.273 1_556 S
O76 C75 1.273 1_554 S
O77 Zn68 1.977 1_556 S
O77 C70 1.267 . S
C78 O79 1.160 . S
C78 O85 1.185 . S
O79 C78 1.160 . S
O80 Zn81 1.899 . S
O80 C88 1.284 . S
Zn81 O80 1.899 . S
Zn81 O82 2.032 . S
Zn81 O85 2.086 . S
Zn81 O90 1.977 . S
O82 Zn81 2.032 . S
O82 C86 1.278 . S
C83 O84 1.203 . S
C83 O90 1.267 . S
O84 C83 1.203 . S
O85 C78 1.185 . S
O85 Zn81 2.086 . S
C86 O82 1.278 . S
C86 O87 1.211 . S
O87 C86 1.211 . S
C88 O80 1.284 . S
C88 O89 1.273 . S
O89 C88 1.273 . S
O90 Zn81 1.977 . S
O90 C83 1.267 . S
C91 O92 1.160 1_565 S
C91 O98 1.185 . S
O92 C91 1.160 1_545 S
O93 Zn94 1.899 1_545 S
O93 C101 1.284 . S
Zn94 O93 1.899 1_565 S
Zn94 O95 2.032 . S
Zn94 O98 2.086 . S
Zn94 O103 1.977 . S
O95 Zn94 2.032 . S
O95 C99 1.278 . S
C96 O97 1.203 . S
C96 O103 1.267 . S
O97 C96 1.203 . S
O98 C91 1.185 . S
O98 Zn94 2.086 . S
C99 O95 1.278 . S
C99 O100 1.211 . S
O100 C99 1.211 . S
C101 O93 1.284 . S
C101 O102 1.273 . S
O102 C101 1.273 . S
O103 Zn94 1.977 . S
O103 C96 1.267 . S
C104 O105 1.160 1_455 S
C104 O111 1.185 . S
O105 C104 1.160 1_655 S
O106 Zn107 1.899 1_655 S
O106 C114 1.284 . S
Zn107 O106 1.899 1_455 S
Zn107 O108 2.032 . S
Zn107 O111 2.086 . S
Zn107 O116 1.977 . S
O108 Zn107 2.032 . S
O108 C112 1.278 . S
C109 O110 1.203 . S
C109 O116 1.267 . S
O110 C109 1.203 . S
O111 C104 1.185 . S
O111 Zn107 2.086 . S
C112 O108 1.278 . S
C112 O113 1.211 . S
O113 C112 1.211 . S
C114 O106 1.284 . S
C114 O115 1.273 . S
O115 C114 1.273 . S
O116 Zn107 1.977 . S
O116 C109 1.267 . S
C117 O118 1.160 1_565 S
C117 O124 1.185 . S
O118 C117 1.160 1_545 S
O119 Zn120 1.899 1_545 S
O119 C127 1.284 . S
Zn120 O119 1.899 1_565 S
Zn120 O121 2.032 . S
Zn120 O124 2.086 . S
Zn120 O129 1.977 . S
O121 Zn120 2.032 . S
O121 C125 1.278 . S
C122 O123 1.203 . S
C122 O129 1.267 . S
O123 C122 1.203 . S
O124 C117 1.185 . S
O124 Zn120 2.086 . S
C125 O121 1.278 . S
C125 O126 1.211 . S
O126 C125 1.211 . S
C127 O119 1.284 . S
C127 O128 1.273 . S
O128 C127 1.273 . S
O129 Zn120 1.977 . S
O129 C122 1.267 . S
C130 O131 1.160 . S
C130 O137 1.185 . S
O131 C130 1.160 . S
O132 Zn133 1.891 . S
O132 C140 1.318 . S
Zn133 O132 1.891 . S
Zn133 O134 2.032 . S
Zn133 O137 2.086 1_455 S
Zn133 O142 1.977 . S
O134 Zn133 2.032 . S
O134 C138 1.278 . S
C135 O136 1.203 . S
C135 O142 1.267 . S
O136 C135 1.203 . S
O137 C130 1.185 . S
O137 Zn133 2.086 1_655 S
C138 O134 1.278 . S
C138 O139 1.211 . S
O139 C138 1.211 . S
C140 O132 1.318 . S
C140 O141 1.273 . S
O141 C140 1.273 . S
O142 Zn133 1.977 . S
O142 C135 1.267 . S
C143 O144 1.160 . S
C143 O150 1.185 . S
O144 C143 1.160 . S
O145 Zn146 1.899 . S
O145 C153 1.284 . S
Zn146 O145 1.899 . S
Zn146 O147 2.032 . S
Zn146 O150 2.086 . S
Zn146 O155 1.977 . S
O147 Zn146 2.032 . S
O147 C151 1.278 . S
C148 O149 1.203 . S
C148 O155 1.267 . S
O149 C148 1.203 . S
O150 C143 1.185 . S
O150 Zn146 2.086 . S
C151 O147 1.278 . S
C151 O152 1.211 . S
O152 C151 1.211 . S
C153 O145 1.284 . S
C153 O154 1.273 . S
O154 C153 1.273 . S
O155 Zn146 1.977 . S
O155 C148 1.267 . S
C156 O157 1.160 1_545 S
C156 O163 1.185 . S
O157 C156 1.160 1_565 S
O158 Zn159 1.899 1_565 S
O158 C166 1.284 . S
Zn159 O158 1.899 1_545 S
Zn159 O160 2.032 . S
Zn159 O163 2.086 . S
Zn159 O168 1.977 . S
O160 Zn159 2.032 . S
O160 C164 1.278 . S
C161 O162 1.203 . S
C161 O168 1.267 . S
O162 C161 1.203 . S
O163 C156 1.185 . S
O163 Zn159 2.086 . S
C164 O160 1.278 . S
C164 O165 1.211 . S
O165 C164 1.211 . S
C166 O158 1.284 . S
C166 O167 1.273 . S
O167 C166 1.273 . S
O168 Zn159 1.977 . S
O168 C161 1.267 . S
C169 O170 1.160 . S
C169 O176 1.185 . S
O170 C169 1.160 . S
O171 Zn172 1.898 . S
O171 C179 1.288 . S
Zn172 O171 1.898 . S
Zn172 O173 2.032 . S
Zn172 O176 2.086 1_655 S
Zn172 O181 1.977 . S
O173 Zn172 2.032 . S
O173 C177 1.278 . S
C174 O175 1.203 . S
C174 O181 1.267 . S
O175 C174 1.203 . S
O176 C169 1.185 . S
O176 Zn172 2.086 1_455 S
C177 O173 1.278 . S
C177 O178 1.211 . S
O178 C177 1.211 . S
C179 O171 1.288 . S
C179 O180 1.273 . S
O180 C179 1.273 . S
O181 Zn172 1.977 . S
O181 C174 1.267 . S
C182 O183 1.160 . S
C182 O189 1.185 . S
O183 C182 1.160 . S
O184 Zn185 1.899 . S
O184 C192 1.284 . S
Zn185 O184 1.899 . S
Zn185 O186 2.032 . S
Zn185 O189 2.086 . S
Zn185 O194 1.977 . S
O186 Zn185 2.032 . S
O186 C190 1.278 . S
C187 O188 1.203 . S
C187 O194 1.267 . S
O188 C187 1.203 . S
O189 C182 1.185 . S
O189 Zn185 2.086 . S
C190 O186 1.278 . S
C190 O191 1.211 . S
O191 C190 1.211 . S
C192 O184 1.284 . S
C192 O193 1.273 . S
O193 C192 1.273 . S
O194 Zn185 1.977 . S
O194 C187 1.267 . S
C195 O196 1.160 . S
C195 O202 1.185 . S
O196 C195 1.160 . S
O197 Zn198 1.899 . S
O197 C205 1.284 . S
Zn198 O197 1.899 . S
Zn198 O199 2.032 . S
Zn198 O202 2.086 . S
Zn198 O207 1.977 . S
O199 Zn198 2.032 . S
O199 C203 1.278 . S
C200 O201 1.203 . S
C200 O207 1.267 . S
O201 C200 1.203 . S
O202 C195 1.185 . S
O202 Zn198 2.086 . S
C203 O199 1.278 . S
C203 O204 1.211 . S
O204 C203 1.211 . S
C205 O197 1.284 . S
C205 O206 1.273 . S
O206 C205 1.273 . S
O207 Zn198 1.977 . S
O207 C200 1.267 . S
C208 O209 1.160 1_545 S
C208 O215 1.185 . S
O209 C208 1.160 1_565 S
O210 Zn211 1.899 1_565 S
O210 C218 1.284 . S
Zn211 O210 1.899 1_545 S
Zn211 O212 2.032 . S
Zn211 O215 2.086 . S
Zn211 O220 1.977 . S
O212 Zn211 2.032 . S
O212 C216 1.278 . S
C213 O214 1.203 . S
C213 O220 1.267 . S
O214 C213 1.203 . S
O215 C208 1.185 . S
O215 Zn211 2.086 . S
C216 O212 1.278 . S
C216 O217 1.211 . S
O217 C216 1.211 . S
C218 O210 1.284 . S
C218 O219 1.273 . S
O219 C218 1.273 . S
O220 Zn211 1.977 . S
O220 C213 1.267 . S
C221 O222 1.160 1_655 S
C221 O228 1.185 . S
O222 C221 1.160 1_455 S
O223 Zn224 1.899 1_455 S
O223 C231 1.284 . S
Zn224 O223 1.899 1_655 S
Zn224 O225 2.032 . S
Zn224 O228 2.086 . S
Zn224 O233 1.977 . S
O225 Zn224 2.032 . S
O225 C229 1.278 . S
C226 O227 1.203 . S
C226 O233 1.267 . S
O227 C226 1.203 . S
O228 C221 1.185 . S
O228 Zn224 2.086 . S
C229 O225 1.278 . S
C229 O230 1.211 . S
O230 C229 1.211 . S
C231 O223 1.284 . S
C231 O232 1.273 . S
O232 C231 1.273 . S
O233 Zn224 1.977 . S
O233 C226 1.267 . S
H234 C253 0.949 . S
H235 C254 0.950 . S
H236 C256 0.950 . S
H237 C257 0.950 . S
H238 C259 0.950 . S
H239 C262 0.950 . S
H240 C263 0.950 . S
H241 C265 0.951 . S
H242 C266 0.949 . S
H243 C268 0.949 . S
H244 C269 0.950 . S
H245 C271 0.950 . S
H246 C272 0.950 . S
H247 C274 0.950 . S
H248 C277 0.950 . S
H249 C278 0.950 . S
H250 C280 0.951 . S
H251 C281 0.949 . S
C252 C253 1.376 . S
C252 C257 1.386 . S
C252 C258 1.483 . S
C253 H234 0.949 . S
C253 C252 1.376 . S
C253 C254 1.397 . S
C254 H235 0.950 . S
C254 C253 1.397 . S
C254 C255 1.391 . S
C255 C254 1.391 . S
C255 C256 1.405 . S
C256 H236 0.950 . S
C256 C255 1.405 . S
C256 C257 1.367 . S
C257 H237 0.950 . S
C257 C252 1.386 . S
C257 C256 1.367 . S
C258 C252 1.483 . S
C258 C259 1.382 . S
C258 C260 1.403 . S
C259 H238 0.950 . S
C259 C258 1.382 . S
C259 C275 1.411 . S
C260 C258 1.403 . S
C260 C261 1.489 . S
C260 C274 1.411 . S
C261 C260 1.489 . S
C261 C262 1.383 . S
C261 C266 1.382 . S
C262 H239 0.950 . S
C262 C261 1.383 . S
C262 C263 1.395 . S
C263 H240 0.950 . S
C263 C262 1.395 . S
C263 C264 1.288 . S
C264 C263 1.288 . S
C264 C265 1.392 . S
C265 H241 0.951 . S
C265 C264 1.392 . S
C265 C266 1.392 . S
C266 H242 0.949 . S
C266 C261 1.382 . S
C266 C265 1.392 . S
C267 C268 1.376 . S
C267 C272 1.386 . S
C267 C273 1.483 . S
C268 H243 0.949 . S
C268 C267 1.376 . S
C268 C269 1.397 . S
C269 H244 0.950 . S
C269 C268 1.397 . S
C269 C270 1.391 . S
C270 C269 1.391 . S
C270 C271 1.405 . S
C271 H245 0.950 . S
C271 C270 1.405 . S
C271 C272 1.367 . S
C272 H246 0.950 . S
C272 C267 1.386 . S
C272 C271 1.367 . S
C273 C267 1.483 . S
C273 C274 1.382 . S
C273 C275 1.403 . S
C274 H247 0.950 . S
C274 C260 1.411 . S
C274 C273 1.382 . S
C275 C259 1.411 . S
C275 C273 1.403 . S
C275 C276 1.489 . S
C276 C275 1.489 . S
C276 C277 1.383 . S
C276 C281 1.382 . S
C277 H248 0.950 . S
C277 C276 1.383 . S
C277 C278 1.395 . S
C278 H249 0.950 . S
C278 C277 1.395 . S
C278 C279 1.288 . S
C279 C278 1.288 . S
C279 C280 1.392 . S
C280 H250 0.951 . S
C280 C279 1.392 . S
C280 C281 1.392 . S
C281 H251 0.949 . S
C281 C276 1.382 . S
C281 C280 1.392 . S
H282 C301 0.949 . S
H283 C302 0.950 . S
H284 C304 0.950 . S
H285 C305 0.950 . S
H286 C307 0.950 . S
H287 C310 0.950 . S
H288 C311 0.950 . S
H289 C313 0.951 . S
H290 C314 0.949 . S
H291 C316 0.949 . S
H292 C317 0.950 . S
H293 C319 0.950 . S
H294 C320 0.950 . S
H295 C322 0.950 . S
H296 C325 0.950 . S
H297 C326 0.950 . S
H298 C328 0.951 . S
H299 C329 0.949 . S
C300 C301 1.376 . S
C300 C305 1.386 . S
C300 C306 1.483 . S
C301 H282 0.949 . S
C301 C300 1.376 . S
C301 C302 1.397 . S
C302 H283 0.950 . S
C302 C301 1.397 . S
C302 C303 1.391 . S
C303 C302 1.391 . S
C303 C304 1.405 . S
C304 H284 0.950 . S
C304 C303 1.405 . S
C304 C305 1.367 . S
C305 H285 0.950 . S
C305 C300 1.386 . S
C305 C304 1.367 . S
C306 C300 1.483 . S
C306 C307 1.382 . S
C306 C308 1.403 . S
C307 H286 0.950 . S
C307 C306 1.382 . S
C307 C323 1.411 . S
C308 C306 1.403 . S
C308 C309 1.489 . S
C308 C322 1.411 . S
C309 C308 1.489 . S
C309 C310 1.383 . S
C309 C314 1.382 . S
C310 H287 0.950 . S
C310 C309 1.383 . S
C310 C311 1.395 . S
C311 H288 0.950 . S
C311 C310 1.395 . S
C311 C312 1.288 . S
C312 C311 1.288 . S
C312 C313 1.392 . S
C313 H289 0.951 . S
C313 C312 1.392 . S
C313 C314 1.392 . S
C314 H290 0.949 . S
C314 C309 1.382 . S
C314 C313 1.392 . S
C315 C316 1.376 . S
C315 C320 1.386 . S
C315 C321 1.483 . S
C316 H291 0.949 . S
C316 C315 1.376 . S
C316 C317 1.397 . S
C317 H292 0.950 . S
C317 C316 1.397 . S
C317 C318 1.391 . S
C318 C317 1.391 . S
C318 C319 1.405 . S
C319 H293 0.950 . S
C319 C318 1.405 . S
C319 C320 1.367 . S
C320 H294 0.950 . S
C320 C315 1.386 . S
C320 C319 1.367 . S
C321 C315 1.483 . S
C321 C322 1.382 . S
C321 C323 1.403 . S
C322 H295 0.950 . S
C322 C308 1.411 . S
C322 C321 1.382 . S
C323 C307 1.411 . S
C323 C321 1.403 . S
C323 C324 1.489 . S
C324 C323 1.489 . S
C324 C325 1.383 . S
C324 C329 1.382 . S
C325 H296 0.950 . S
C325 C324 1.383 . S
C325 C326 1.395 . S
C326 H297 0.950 . S
C326 C325 1.395 . S
C326 C327 1.288 . S
C327 C326 1.288 . S
C327 C328 1.392 . S
C328 H298 0.951 . S
C328 C327 1.392 . S
C328 C329 1.392 . S
C329 H299 0.949 . S
C329 C324 1.382 . S
C329 C328 1.392 . S
H330 C349 0.949 . S
H331 C350 0.950 . S
H332 C352 0.950 . S
H333 C353 0.950 . S
H334 C355 0.950 . S
H335 C358 0.950 . S
H336 C359 0.950 . S
H337 C361 0.951 . S
H338 C362 0.949 . S
H339 C364 0.949 . S
H340 C365 0.950 . S
H341 C367 0.950 . S
H342 C368 0.950 . S
H343 C370 0.950 . S
H344 C373 0.950 . S
H345 C374 0.950 . S
H346 C376 0.951 . S
H347 C377 0.949 . S
C348 C349 1.376 . S
C348 C353 1.386 . S
C348 C354 1.483 . S
C349 H330 0.949 . S
C349 C348 1.376 . S
C349 C350 1.397 . S
C350 H331 0.950 . S
C350 C349 1.397 . S
C350 C351 1.391 . S
C351 C350 1.391 . S
C351 C352 1.405 . S
C352 H332 0.950 . S
C352 C351 1.405 . S
C352 C353 1.367 . S
C353 H333 0.950 . S
C353 C348 1.386 . S
C353 C352 1.367 . S
C354 C348 1.483 . S
C354 C355 1.382 . S
C354 C356 1.403 . S
C355 H334 0.950 . S
C355 C354 1.382 . S
C355 C371 1.411 . S
C356 C354 1.403 . S
C356 C357 1.489 . S
C356 C370 1.411 . S
C357 C356 1.489 . S
C357 C358 1.383 . S
C357 C362 1.382 . S
C358 H335 0.950 . S
C358 C357 1.383 . S
C358 C359 1.395 . S
C359 H336 0.950 . S
C359 C358 1.395 . S
C359 C360 1.288 . S
C360 C359 1.288 . S
C360 C361 1.392 . S
C361 H337 0.951 . S
C361 C360 1.392 . S
C361 C362 1.392 . S
C362 H338 0.949 . S
C362 C357 1.382 . S
C362 C361 1.392 . S
C363 C364 1.376 . S
C363 C368 1.386 . S
C363 C369 1.483 . S
C364 H339 0.949 . S
C364 C363 1.376 . S
C364 C365 1.397 . S
C365 H340 0.950 . S
C365 C364 1.397 . S
C365 C366 1.391 . S
C366 C365 1.391 . S
C366 C367 1.405 . S
C367 H341 0.950 . S
C367 C366 1.405 . S
C367 C368 1.367 . S
C368 H342 0.950 . S
C368 C363 1.386 . S
C368 C367 1.367 . S
C369 C363 1.483 . S
C369 C370 1.382 . S
C369 C371 1.403 . S
C370 H343 0.950 . S
C370 C356 1.411 . S
C370 C369 1.382 . S
C371 C355 1.411 . S
C371 C369 1.403 . S
C371 C372 1.489 . S
C372 C371 1.489 . S
C372 C373 1.383 . S
C372 C377 1.382 . S
C373 H344 0.950 . S
C373 C372 1.383 . S
C373 C374 1.395 . S
C374 H345 0.950 . S
C374 C373 1.395 . S
C374 C375 1.288 . S
C375 C374 1.288 . S
C375 C376 1.392 . S
C376 H346 0.951 . S
C376 C375 1.392 . S
C376 C377 1.392 . S
C377 H347 0.949 . S
C377 C372 1.382 . S
C377 C376 1.392 . S
H378 C397 0.949 . S
H379 C398 0.950 . S
H380 C400 0.950 . S
H381 C401 0.950 . S
H382 C403 0.950 . S
H383 C406 0.950 . S
H384 C407 0.950 . S
H385 C409 0.951 . S
H386 C410 0.949 . S
H387 C412 0.949 . S
H388 C413 0.950 . S
H389 C415 0.950 . S
H390 C416 0.950 . S
H391 C418 0.950 . S
H392 C421 0.950 . S
H393 C422 0.950 . S
H394 C424 0.951 . S
H395 C425 0.949 . S
C396 C397 1.376 . S
C396 C401 1.386 . S
C396 C402 1.483 . S
C397 H378 0.949 . S
C397 C396 1.376 . S
C397 C398 1.397 . S
C398 H379 0.950 . S
C398 C397 1.397 . S
C398 C399 1.391 . S
C399 C398 1.391 . S
C399 C400 1.405 . S
C400 H380 0.950 . S
C400 C399 1.405 . S
C400 C401 1.367 . S
C401 H381 0.950 . S
C401 C396 1.386 . S
C401 C400 1.367 . S
C402 C396 1.483 . S
C402 C403 1.382 . S
C402 C404 1.403 . S
C403 H382 0.950 . S
C403 C402 1.382 . S
C403 C419 1.411 . S
C404 C402 1.403 . S
C404 C405 1.489 . S
C404 C418 1.411 . S
C405 C404 1.489 . S
C405 C406 1.383 . S
C405 C410 1.382 . S
C406 H383 0.950 . S
C406 C405 1.383 . S
C406 C407 1.395 . S
C407 H384 0.950 . S
C407 C406 1.395 . S
C407 C408 1.288 . S
C408 C407 1.288 . S
C408 C409 1.392 . S
C409 H385 0.951 . S
C409 C408 1.392 . S
C409 C410 1.392 . S
C410 H386 0.949 . S
C410 C405 1.382 . S
C410 C409 1.392 . S
C411 C412 1.376 . S
C411 C416 1.386 . S
C411 C417 1.483 . S
C412 H387 0.949 . S
C412 C411 1.376 . S
C412 C413 1.397 . S
C413 H388 0.950 . S
C413 C412 1.397 . S
C413 C414 1.391 . S
C414 C413 1.391 . S
C414 C415 1.405 . S
C415 H389 0.950 . S
C415 C414 1.405 . S
C415 C416 1.367 . S
C416 H390 0.950 . S
C416 C411 1.386 . S
C416 C415 1.367 . S
C417 C411 1.483 . S
C417 C418 1.382 . S
C417 C419 1.403 . S
C418 H391 0.950 . S
C418 C404 1.411 . S
C418 C417 1.382 . S
C419 C403 1.411 . S
C419 C417 1.403 . S
C419 C420 1.489 . S
C420 C419 1.489 . S
C420 C421 1.383 . S
C420 C425 1.382 . S
C421 H392 0.950 . S
C421 C420 1.383 . S
C421 C422 1.395 . S
C422 H393 0.950 . S
C422 C421 1.395 . S
C422 C423 1.288 . S
C423 C422 1.288 . S
C423 C424 1.392 . S
C424 H394 0.951 . S
C424 C423 1.392 . S
C424 C425 1.392 . S
C425 H395 0.949 . S
C425 C420 1.382 . S
C425 C424 1.392 . S
H426 C445 0.949 . S
H427 C446 0.950 . S
H428 C448 0.950 . S
H429 C449 0.950 . S
H430 C451 0.950 . S
H431 C454 0.950 . S
H432 C455 0.950 . S
H433 C457 0.951 . S
H434 C458 0.949 . S
H435 C460 0.949 . S
H436 C461 0.950 . S
H437 C463 0.950 . S
H438 C464 0.950 . S
H439 C466 0.950 . S
H440 C469 0.950 . S
H441 C470 0.950 . S
H442 C472 0.951 . S
H443 C473 0.949 . S
C444 C445 1.376 . S
C444 C449 1.386 . S
C444 C450 1.483 . S
C445 H426 0.949 . S
C445 C444 1.376 . S
C445 C446 1.397 . S
C446 H427 0.950 . S
C446 C445 1.397 . S
C446 C447 1.391 . S
C447 C446 1.391 . S
C447 C448 1.405 . S
C448 H428 0.950 . S
C448 C447 1.405 . S
C448 C449 1.367 . S
C449 H429 0.950 . S
C449 C444 1.386 . S
C449 C448 1.367 . S
C450 C444 1.483 . S
C450 C451 1.382 . S
C450 C452 1.403 . S
C451 H430 0.950 . S
C451 C450 1.382 . S
C451 C467 1.411 . S
C452 C450 1.403 . S
C452 C453 1.489 . S
C452 C466 1.411 . S
C453 C452 1.489 . S
C453 C454 1.383 . S
C453 C458 1.382 . S
C454 H431 0.950 . S
C454 C453 1.383 . S
C454 C455 1.395 . S
C455 H432 0.950 . S
C455 C454 1.395 . S
C455 C456 1.288 . S
C456 C455 1.288 . S
C456 C457 1.392 . S
C457 H433 0.951 . S
C457 C456 1.392 . S
C457 C458 1.392 . S
C458 H434 0.949 . S
C458 C453 1.382 . S
C458 C457 1.392 . S
C459 C460 1.376 . S
C459 C464 1.386 . S
C459 C465 1.483 . S
C460 H435 0.949 . S
C460 C459 1.376 . S
C460 C461 1.397 . S
C461 H436 0.950 . S
C461 C460 1.397 . S
C461 C462 1.391 . S
C462 C461 1.391 . S
C462 C463 1.405 . S
C463 H437 0.950 . S
C463 C462 1.405 . S
C463 C464 1.367 . S
C464 H438 0.950 . S
C464 C459 1.386 . S
C464 C463 1.367 . S
C465 C459 1.483 . S
C465 C466 1.382 . S
C465 C467 1.403 . S
C466 H439 0.950 . S
C466 C452 1.411 . S
C466 C465 1.382 . S
C467 C451 1.411 . S
C467 C465 1.403 . S
C467 C468 1.489 . S
C468 C467 1.489 . S
C468 C469 1.383 . S
C468 C473 1.382 . S
C469 H440 0.950 . S
C469 C468 1.383 . S
C469 C470 1.395 . S
C470 H441 0.950 . S
C470 C469 1.395 . S
C470 C471 1.288 . S
C471 C470 1.288 . S
C471 C472 1.392 . S
C472 H442 0.951 . S
C472 C471 1.392 . S
C472 C473 1.392 . S
C473 H443 0.949 . S
C473 C468 1.382 . S
C473 C472 1.392 . S
H474 C493 0.949 . S
H475 C494 0.950 . S
H476 C496 0.950 . S
H477 C497 0.950 . S
H478 C499 0.950 . S
H479 C502 0.950 . S
H480 C503 0.950 . S
H481 C505 0.951 . S
H482 C506 0.949 . S
H483 C508 0.949 . S
H484 C509 0.950 . S
H485 C511 0.950 . S
H486 C512 0.950 . S
H487 C514 0.950 . S
H488 C517 0.950 . S
H489 C518 0.950 . S
H490 C520 0.951 . S
H491 C521 0.949 . S
C492 C493 1.376 . S
C492 C497 1.386 . S
C492 C498 1.483 . S
C493 H474 0.949 . S
C493 C492 1.376 . S
C493 C494 1.397 . S
C494 H475 0.950 . S
C494 C493 1.397 . S
C494 C495 1.391 . S
C495 C494 1.391 . S
C495 C496 1.405 . S
C496 H476 0.950 . S
C496 C495 1.405 . S
C496 C497 1.367 . S
C497 H477 0.950 . S
C497 C492 1.386 . S
C497 C496 1.367 . S
C498 C492 1.483 . S
C498 C499 1.382 . S
C498 C500 1.403 . S
C499 H478 0.950 . S
C499 C498 1.382 . S
C499 C515 1.411 . S
C500 C498 1.403 . S
C500 C501 1.489 . S
C500 C514 1.411 . S
C501 C500 1.489 . S
C501 C502 1.383 . S
C501 C506 1.382 . S
C502 H479 0.950 . S
C502 C501 1.383 . S
C502 C503 1.395 . S
C503 H480 0.950 . S
C503 C502 1.395 . S
C503 C504 1.288 . S
C504 C503 1.288 . S
C504 C505 1.392 . S
C505 H481 0.951 . S
C505 C504 1.392 . S
C505 C506 1.392 . S
C506 H482 0.949 . S
C506 C501 1.382 . S
C506 C505 1.392 . S
C507 C508 1.376 . S
C507 C512 1.386 . S
C507 C513 1.483 . S
C508 H483 0.949 . S
C508 C507 1.376 . S
C508 C509 1.397 . S
C509 H484 0.950 . S
C509 C508 1.397 . S
C509 C510 1.391 . S
C510 C509 1.391 . S
C510 C511 1.405 . S
C511 H485 0.950 . S
C511 C510 1.405 . S
C511 C512 1.367 . S
C512 H486 0.950 . S
C512 C507 1.386 . S
C512 C511 1.367 . S
C513 C507 1.483 . S
C513 C514 1.382 . S
C513 C515 1.403 . S
C514 H487 0.950 . S
C514 C500 1.411 . S
C514 C513 1.382 . S
C515 C499 1.411 . S
C515 C513 1.403 . S
C515 C516 1.489 . S
C516 C515 1.489 . S
C516 C517 1.383 . S
C516 C521 1.382 . S
C517 H488 0.950 . S
C517 C516 1.383 . S
C517 C518 1.395 . S
C518 H489 0.950 . S
C518 C517 1.395 . S
C518 C519 1.288 . S
C519 C518 1.288 . S
C519 C520 1.392 . S
C520 H490 0.951 . S
C520 C519 1.392 . S
C520 C521 1.392 . S
C521 H491 0.949 . S
C521 C516 1.382 . S
C521 C520 1.392 . S
H522 C541 0.949 . S
H523 C542 0.950 . S
H524 C544 0.950 . S
H525 C545 0.950 . S
H526 C547 0.950 . S
H527 C550 0.950 . S
H528 C551 0.950 . S
H529 C553 0.951 . S
H530 C554 0.949 . S
H531 C556 0.949 . S
H532 C557 0.950 . S
H533 C559 0.950 . S
H534 C560 0.950 . S
H535 C562 0.950 . S
H536 C565 0.950 . S
H537 C566 0.950 . S
H538 C568 0.951 . S
H539 C569 0.949 . S
C540 C541 1.376 . S
C540 C545 1.386 . S
C540 C546 1.483 . S
C541 H522 0.949 . S
C541 C540 1.376 . S
C541 C542 1.397 . S
C542 H523 0.950 . S
C542 C541 1.397 . S
C542 C543 1.391 . S
C543 C542 1.391 . S
C543 C544 1.405 . S
C544 H524 0.950 . S
C544 C543 1.405 . S
C544 C545 1.367 . S
C545 H525 0.950 . S
C545 C540 1.386 . S
C545 C544 1.367 . S
C546 C540 1.483 . S
C546 C547 1.382 . S
C546 C548 1.403 . S
C547 H526 0.950 . S
C547 C546 1.382 . S
C547 C563 1.411 . S
C548 C546 1.403 . S
C548 C549 1.489 . S
C548 C562 1.411 . S
C549 C548 1.489 . S
C549 C550 1.383 . S
C549 C554 1.382 . S
C550 H527 0.950 . S
C550 C549 1.383 . S
C550 C551 1.395 . S
C551 H528 0.950 . S
C551 C550 1.395 . S
C551 C552 1.288 . S
C552 C551 1.288 . S
C552 C553 1.392 . S
C553 H529 0.951 . S
C553 C552 1.392 . S
C553 C554 1.392 . S
C554 H530 0.949 . S
C554 C549 1.382 . S
C554 C553 1.392 . S
C555 C556 1.376 . S
C555 C560 1.386 . S
C555 C561 1.483 . S
C556 H531 0.949 . S
C556 C555 1.376 . S
C556 C557 1.397 . S
C557 H532 0.950 . S
C557 C556 1.397 . S
C557 C558 1.391 . S
C558 C557 1.391 . S
C558 C559 1.405 . S
C559 H533 0.950 . S
C559 C558 1.405 . S
C559 C560 1.367 . S
C560 H534 0.950 . S
C560 C555 1.386 . S
C560 C559 1.367 . S
C561 C555 1.483 . S
C561 C562 1.382 . S
C561 C563 1.403 . S
C562 H535 0.950 . S
C562 C548 1.411 . S
C562 C561 1.382 . S
C563 C547 1.411 . S
C563 C561 1.403 . S
C563 C564 1.489 . S
C564 C563 1.489 . S
C564 C565 1.383 . S
C564 C569 1.382 . S
C565 H536 0.950 . S
C565 C564 1.383 . S
C565 C566 1.395 . S
C566 H537 0.950 . S
C566 C565 1.395 . S
C566 C567 1.288 . S
C567 C566 1.288 . S
C567 C568 1.392 . S
C568 H538 0.951 . S
C568 C567 1.392 . S
C568 C569 1.392 . S
C569 H539 0.949 . S
C569 C564 1.382 . S
C569 C568 1.392 . S
H570 C589 0.949 . S
H571 C590 0.950 . S
H572 C592 0.950 . S
H573 C593 0.950 . S
H574 C595 0.950 . S
H575 C598 0.950 . S
H576 C599 0.950 . S
H577 C601 0.951 . S
H578 C602 0.949 . S
H579 C604 0.949 . S
H580 C605 0.950 . S
H581 C607 0.950 . S
H582 C608 0.950 . S
H583 C610 0.950 . S
H584 C613 0.950 . S
H585 C614 0.950 . S
H586 C616 0.951 . S
H587 C617 0.949 . S
C588 C589 1.376 . S
C588 C593 1.386 . S
C588 C594 1.483 . S
C589 H570 0.949 . S
C589 C588 1.376 . S
C589 C590 1.397 . S
C590 H571 0.950 . S
C590 C589 1.397 . S
C590 C591 1.391 . S
C591 C590 1.391 . S
C591 C592 1.405 . S
C592 H572 0.950 . S
C592 C591 1.405 . S
C592 C593 1.367 . S
C593 H573 0.950 . S
C593 C588 1.386 . S
C593 C592 1.367 . S
C594 C588 1.483 . S
C594 C595 1.382 . S
C594 C596 1.403 . S
C595 H574 0.950 . S
C595 C594 1.382 . S
C595 C611 1.411 . S
C596 C594 1.403 . S
C596 C597 1.489 . S
C596 C610 1.411 . S
C597 C596 1.489 . S
C597 C598 1.383 . S
C597 C602 1.382 . S
C598 H575 0.950 . S
C598 C597 1.383 . S
C598 C599 1.395 . S
C599 H576 0.950 . S
C599 C598 1.395 . S
C599 C600 1.288 . S
C600 C599 1.288 . S
C600 C601 1.392 . S
C601 H577 0.951 . S
C601 C600 1.392 . S
C601 C602 1.392 . S
C602 H578 0.949 . S
C602 C597 1.382 . S
C602 C601 1.392 . S
C603 C604 1.376 . S
C603 C608 1.386 . S
C603 C609 1.483 . S
C604 H579 0.949 . S
C604 C603 1.376 . S
C604 C605 1.397 . S
C605 H580 0.950 . S
C605 C604 1.397 . S
C605 C606 1.391 . S
C606 C605 1.391 . S
C606 C607 1.405 . S
C607 H581 0.950 . S
C607 C606 1.405 . S
C607 C608 1.367 . S
C608 H582 0.950 . S
C608 C603 1.386 . S
C608 C607 1.367 . S
C609 C603 1.483 . S
C609 C610 1.382 . S
C609 C611 1.403 . S
C610 H583 0.950 . S
C610 C596 1.411 . S
C610 C609 1.382 . S
C611 C595 1.411 . S
C611 C609 1.403 . S
C611 C612 1.489 . S
C612 C611 1.489 . S
C612 C613 1.383 . S
C612 C617 1.382 . S
C613 H584 0.950 . S
C613 C612 1.383 . S
C613 C614 1.395 . S
C614 H585 0.950 . S
C614 C613 1.395 . S
C614 C615 1.288 . S
C615 C614 1.288 . S
C615 C616 1.392 . S
C616 H586 0.951 . S
C616 C615 1.392 . S
C616 C617 1.392 . S
C617 H587 0.949 . S
C617 C612 1.382 . S
C617 C616 1.392 . S
H618 C637 0.949 . S
H619 C638 0.950 . S
H620 C640 0.950 . S
H621 C641 0.950 . S
H622 C643 0.950 . S
H623 C646 0.950 . S
H624 C647 0.950 . S
H625 C649 0.951 . S
H626 C650 0.949 . S
H627 C652 0.949 . S
H628 C653 0.950 . S
H629 C655 0.950 . S
H630 C656 0.950 . S
H631 C658 0.950 . S
H632 C661 0.950 . S
H633 C662 0.950 . S
H634 C664 0.951 . S
H635 C665 0.949 . S
C636 C637 1.376 . S
C636 C641 1.386 . S
C636 C642 1.483 . S
C637 H618 0.949 . S
C637 C636 1.376 . S
C637 C638 1.397 . S
C638 H619 0.950 . S
C638 C637 1.397 . S
C638 C639 1.391 . S
C639 C638 1.391 . S
C639 C640 1.405 . S
C640 H620 0.950 . S
C640 C639 1.405 . S
C640 C641 1.367 . S
C641 H621 0.950 . S
C641 C636 1.386 . S
C641 C640 1.367 . S
C642 C636 1.483 . S
C642 C643 1.382 . S
C642 C644 1.403 . S
C643 H622 0.950 . S
C643 C642 1.382 . S
C643 C659 1.411 . S
C644 C642 1.403 . S
C644 C645 1.489 . S
C644 C658 1.411 . S
C645 C644 1.489 . S
C645 C646 1.383 . S
C645 C650 1.382 . S
C646 H623 0.950 . S
C646 C645 1.383 . S
C646 C647 1.395 . S
C647 H624 0.950 . S
C647 C646 1.395 . S
C647 C648 1.288 . S
C648 C647 1.288 . S
C648 C649 1.392 . S
C649 H625 0.951 . S
C649 C648 1.392 . S
C649 C650 1.392 . S
C650 H626 0.949 . S
C650 C645 1.382 . S
C650 C649 1.392 . S
C651 C652 1.376 . S
C651 C656 1.386 . S
C651 C657 1.483 . S
C652 H627 0.949 . S
C652 C651 1.376 . S
C652 C653 1.397 . S
C653 H628 0.950 . S
C653 C652 1.397 . S
C653 C654 1.391 . S
C654 C653 1.391 . S
C654 C655 1.405 . S
C655 H629 0.950 . S
C655 C654 1.405 . S
C655 C656 1.367 . S
C656 H630 0.950 . S
C656 C651 1.386 . S
C656 C655 1.367 . S
C657 C651 1.483 . S
C657 C658 1.382 . S
C657 C659 1.403 . S
C658 H631 0.950 . S
C658 C644 1.411 . S
C658 C657 1.382 . S
C659 C643 1.411 . S
C659 C657 1.403 . S
C659 C660 1.489 . S
C660 C659 1.489 . S
C660 C661 1.383 . S
C660 C665 1.382 . S
C661 H632 0.950 . S
C661 C660 1.383 . S
C661 C662 1.395 . S
C662 H633 0.950 . S
C662 C661 1.395 . S
C662 C663 1.288 . S
C663 C662 1.288 . S
C663 C664 1.392 . S
C664 H634 0.951 . S
C664 C663 1.392 . S
C664 C665 1.392 . S
C665 H635 0.949 . S
C665 C660 1.382 . S
C665 C664 1.392 . S
H666 C685 0.949 . S
H667 C686 0.950 . S
H668 C688 0.950 . S
H669 C689 0.950 . S
H670 C691 0.950 . S
H671 C694 0.950 . S
H672 C695 0.950 . S
H673 C697 0.951 . S
H674 C698 0.949 . S
H675 C700 0.949 . S
H676 C701 0.950 . S
H677 C703 0.950 . S
H678 C704 0.950 . S
H679 C706 0.950 . S
H680 C709 0.950 . S
H681 C710 0.950 . S
H682 C712 0.951 . S
H683 C713 0.949 . S
C684 C685 1.376 . S
C684 C689 1.386 1_655 S
C684 C690 1.483 . S
C685 H666 0.949 . S
C685 C684 1.376 . S
C685 C686 1.397 . S
C686 H667 0.950 . S
C686 C685 1.397 . S
C686 C687 1.391 . S
C687 C686 1.391 . S
C687 C688 1.405 1_655 S
C688 H668 0.950 . S
C688 C687 1.405 1_455 S
C688 C689 1.367 . S
C689 H669 0.950 . S
C689 C684 1.386 1_455 S
C689 C688 1.367 . S
C690 C684 1.483 . S
C690 C691 1.382 . S
C690 C692 1.403 1_655 S
C691 H670 0.950 . S
C691 C690 1.382 . S
C691 C707 1.411 . S
C692 C690 1.403 1_455 S
C692 C693 1.489 . S
C692 C706 1.411 . S
C693 C692 1.489 . S
C693 C694 1.383 1_455 S
C693 C698 1.382 . S
C694 H671 0.950 . S
C694 C693 1.383 1_655 S
C694 C695 1.395 . S
C695 H672 0.950 . S
C695 C694 1.395 . S
C695 C696 1.288 1_655 S
C696 C695 1.288 1_455 S
C696 C697 1.392 . S
C697 H673 0.951 . S
C697 C696 1.392 . S
C697 C698 1.392 . S
C698 H674 0.949 . S
C698 C693 1.382 . S
C698 C697 1.392 . S
C699 C700 1.376 . S
C699 C704 1.386 1_455 S
C699 C705 1.483 . S
C700 H675 0.949 . S
C700 C699 1.376 . S
C700 C701 1.397 . S
C701 H676 0.950 . S
C701 C700 1.397 . S
C701 C702 1.391 . S
C702 C701 1.391 . S
C702 C703 1.405 1_455 S
C703 H677 0.950 . S
C703 C702 1.405 1_655 S
C703 C704 1.367 . S
C704 H678 0.950 . S
C704 C699 1.386 1_655 S
C704 C703 1.367 . S
C705 C699 1.483 . S
C705 C706 1.382 . S
C705 C707 1.403 1_455 S
C706 H679 0.950 . S
C706 C692 1.411 . S
C706 C705 1.382 . S
C707 C691 1.411 . S
C707 C705 1.403 1_655 S
C707 C708 1.489 . S
C708 C707 1.489 . S
C708 C709 1.383 1_655 S
C708 C713 1.382 . S
C709 H680 0.950 . S
C709 C708 1.383 1_455 S
C709 C710 1.395 . S
C710 H681 0.950 . S
C710 C709 1.395 . S
C710 C711 1.288 1_455 S
C711 C710 1.288 1_655 S
C711 C712 1.392 . S
C712 H682 0.951 . S
C712 C711 1.392 . S
C712 C713 1.392 . S
C713 H683 0.949 . S
C713 C708 1.382 . S
C713 C712 1.392 . S
H714 C733 0.949 . S
H715 C734 0.950 . S
H716 C736 0.950 . S
H717 C737 0.950 . S
H718 C739 0.950 . S
H719 C742 0.950 . S
H720 C743 0.950 . S
H721 C745 0.951 . S
H722 C746 0.949 . S
H723 C748 0.949 . S
H724 C749 0.950 . S
H725 C751 0.950 . S
H726 C752 0.950 . S
H727 C754 0.950 . S
H728 C757 0.950 . S
H729 C758 0.950 . S
H730 C760 0.951 . S
H731 C761 0.949 . S
C732 C733 1.376 . S
C732 C737 1.386 . S
C732 C738 1.483 . S
C733 H714 0.949 . S
C733 C732 1.376 . S
C733 C734 1.397 . S
C734 H715 0.950 . S
C734 C733 1.397 . S
C734 C735 1.391 . S
C735 C734 1.391 . S
C735 C736 1.405 . S
C736 H716 0.950 . S
C736 C735 1.405 . S
C736 C737 1.367 . S
C737 H717 0.950 . S
C737 C732 1.386 . S
C737 C736 1.367 . S
C738 C732 1.483 . S
C738 C739 1.382 . S
C738 C740 1.403 . S
C739 H718 0.950 . S
C739 C738 1.382 . S
C739 C755 1.411 . S
C740 C738 1.403 . S
C740 C741 1.489 . S
C740 C754 1.411 . S
C741 C740 1.489 . S
C741 C742 1.383 . S
C741 C746 1.382 . S
C742 H719 0.950 . S
C742 C741 1.383 . S
C742 C743 1.395 . S
C743 H720 0.950 . S
C743 C742 1.395 . S
C743 C744 1.288 . S
C744 C743 1.288 . S
C744 C745 1.392 . S
C745 H721 0.951 . S
C745 C744 1.392 . S
C745 C746 1.392 . S
C746 H722 0.949 . S
C746 C741 1.382 . S
C746 C745 1.392 . S
C747 C748 1.376 . S
C747 C752 1.386 . S
C747 C753 1.483 . S
C748 H723 0.949 . S
C748 C747 1.376 . S
C748 C749 1.397 . S
C749 H724 0.950 . S
C749 C748 1.397 . S
C749 C750 1.391 . S
C750 C749 1.391 . S
C750 C751 1.405 . S
C751 H725 0.950 . S
C751 C750 1.405 . S
C751 C752 1.367 . S
C752 H726 0.950 . S
C752 C747 1.386 . S
C752 C751 1.367 . S
C753 C747 1.483 . S
C753 C754 1.382 . S
C753 C755 1.403 . S
C754 H727 0.950 . S
C754 C740 1.411 . S
C754 C753 1.382 . S
C755 C739 1.411 . S
C755 C753 1.403 . S
C755 C756 1.489 . S
C756 C755 1.489 . S
C756 C757 1.383 . S
C756 C761 1.382 . S
C757 H728 0.950 . S
C757 C756 1.383 . S
C757 C758 1.395 . S
C758 H729 0.950 . S
C758 C757 1.395 . S
C758 C759 1.288 . S
C759 C758 1.288 . S
C759 C760 1.392 . S
C760 H730 0.951 . S
C760 C759 1.392 . S
C760 C761 1.392 . S
C761 H731 0.949 . S
C761 C756 1.382 . S
C761 C760 1.392 . S
H762 C781 0.949 . S
H763 C782 0.950 . S
H764 C784 0.950 . S
H765 C785 0.950 . S
H766 C787 0.950 . S
H767 C790 0.950 . S
H768 C791 0.950 . S
H769 C793 0.951 . S
H770 C794 0.949 . S
H771 C796 0.949 . S
H772 C797 0.950 . S
H773 C799 0.950 . S
H774 C800 0.950 . S
H775 C802 0.950 . S
H776 C805 0.950 . S
H777 C806 0.950 . S
H778 C808 0.951 . S
H779 C809 0.949 . S
C780 C781 1.376 . S
C780 C785 1.386 1_545 S
C780 C786 1.483 . S
C781 H762 0.949 . S
C781 C780 1.376 . S
C781 C782 1.397 . S
C782 H763 0.950 . S
C782 C781 1.397 . S
C782 C783 1.391 . S
C783 C782 1.391 . S
C783 C784 1.405 1_545 S
C784 H764 0.950 . S
C784 C783 1.405 1_565 S
C784 C785 1.367 . S
C785 H765 0.950 . S
C785 C780 1.386 1_565 S
C785 C784 1.367 . S
C786 C780 1.483 . S
C786 C787 1.382 . S
C786 C788 1.403 1_545 S
C787 H766 0.950 . S
C787 C786 1.382 . S
C787 C803 1.411 . S
C788 C786 1.403 1_565 S
C788 C789 1.489 . S
C788 C802 1.411 . S
C789 C788 1.489 . S
C789 C790 1.383 1_565 S
C789 C794 1.382 . S
C790 H767 0.950 . S
C790 C789 1.383 1_545 S
C790 C791 1.395 . S
C791 H768 0.950 . S
C791 C790 1.395 . S
C791 C792 1.288 1_545 S
C792 C791 1.288 1_565 S
C792 C793 1.392 . S
C793 H769 0.951 . S
C793 C792 1.392 . S
C793 C794 1.392 . S
C794 H770 0.949 . S
C794 C789 1.382 . S
C794 C793 1.392 . S
C795 C796 1.376 . S
C795 C800 1.386 1_565 S
C795 C801 1.483 . S
C796 H771 0.949 . S
C796 C795 1.376 . S
C796 C797 1.397 . S
C797 H772 0.950 . S
C797 C796 1.397 . S
C797 C798 1.391 . S
C798 C797 1.391 . S
C798 C799 1.405 1_565 S
C799 H773 0.950 . S
C799 C798 1.405 1_545 S
C799 C800 1.367 . S
C800 H774 0.950 . S
C800 C795 1.386 1_545 S
C800 C799 1.367 . S
C801 C795 1.483 . S
C801 C802 1.382 . S
C801 C803 1.403 1_565 S
C802 H775 0.950 . S
C802 C788 1.411 . S
C802 C801 1.382 . S
C803 C787 1.411 . S
C803 C801 1.403 1_545 S
C803 C804 1.489 . S
C804 C803 1.489 . S
C804 C805 1.383 1_545 S
C804 C809 1.382 . S
C805 H776 0.950 . S
C805 C804 1.383 1_565 S
C805 C806 1.395 . S
C806 H777 0.950 . S
C806 C805 1.395 . S
C806 C807 1.288 1_565 S
C807 C806 1.288 1_545 S
C807 C808 1.392 . S
C808 H778 0.951 . S
C808 C807 1.392 . S
C808 C809 1.392 . S
C809 H779 0.949 . S
C809 C804 1.382 . S
C809 C808 1.392 . S
H810 C829 0.949 . S
H811 C830 0.950 . S
H812 C832 0.950 . S
H813 C833 0.950 . S
H814 C835 0.950 . S
H815 C838 0.950 . S
H816 C839 0.950 . S
H817 C841 0.951 . S
H818 C842 0.949 . S
H819 C844 0.949 . S
H820 C845 0.950 . S
H821 C847 0.950 . S
H822 C848 0.950 . S
H823 C850 0.950 . S
H824 C853 0.950 . S
H825 C854 0.950 . S
H826 C856 0.951 . S
H827 C857 0.949 . S
C828 C829 1.400 . S
C828 C833 1.376 1_545 S
C828 C834 1.469 . S
C829 H810 0.949 . S
C829 C828 1.400 . S
C829 C830 1.397 . S
C830 H811 0.950 . S
C830 C829 1.397 . S
C830 C831 1.391 1_545 S
C831 C830 1.391 1_565 S
C831 C832 1.405 . S
C832 H812 0.950 . S
C832 C831 1.405 . S
C832 C833 1.367 . S
C833 H813 0.950 . S
C833 C828 1.376 1_565 S
C833 C832 1.367 . S
C834 C828 1.469 . S
C834 C835 1.382 . S
C834 C836 1.402 1_545 S
C835 H814 0.950 . S
C835 C834 1.382 . S
C835 C851 1.439 . S
C836 C834 1.402 1_565 S
C836 C837 1.476 . S
C836 C850 1.431 . S
C837 C836 1.476 . S
C837 C838 1.371 1_565 S
C837 C842 1.387 . S
C838 H815 0.950 . S
C838 C837 1.371 1_545 S
C838 C839 1.395 . S
C839 H816 0.950 . S
C839 C838 1.395 . S
C839 C840 1.288 . S
C840 C839 1.288 . S
C840 C841 1.392 1_545 S
C841 H817 0.951 . S
C841 C840 1.392 1_565 S
C841 C842 1.392 . S
C842 H818 0.949 . S
C842 C837 1.387 . S
C842 C841 1.392 . S
C843 C844 1.390 . S
C843 C848 1.380 1_565 S
C843 C849 1.500 . S
C844 H819 0.949 . S
C844 C843 1.390 . S
C844 C845 1.397 . S
C845 H820 0.950 . S
C845 C844 1.397 . S
C845 C846 1.391 1_565 S
C846 C845 1.391 1_545 S
C846 C847 1.405 . S
C847 H821 0.950 . S
C847 C846 1.405 . S
C847 C848 1.367 . S
C848 H822 0.950 . S
C848 C843 1.380 1_545 S
C848 C847 1.367 . S
C849 C843 1.500 . S
C849 C850 1.356 . S
C849 C851 1.402 1_565 S
C850 H823 0.950 . S
C850 C836 1.431 . S
C850 C849 1.356 . S
C851 C835 1.439 . S
C851 C849 1.402 1_545 S
C851 C852 1.476 . S
C852 C851 1.476 . S
C852 C853 1.358 1_545 S
C852 C857 1.394 . S
C853 H824 0.950 . S
C853 C852 1.358 1_565 S
C853 C854 1.395 . S
C854 H825 0.950 . S
C854 C853 1.395 . S
C854 C855 1.288 . S
C855 C854 1.288 . S
C855 C856 1.392 1_565 S
C856 H826 0.951 . S
C856 C855 1.392 1_545 S
C856 C857 1.392 . S
C857 H827 0.949 . S
C857 C852 1.394 . S
C857 C856 1.392 . S
H858 C877 0.949 . S
H859 C878 0.950 . S
H860 C880 0.950 . S
H861 C881 0.950 . S
H862 C883 0.950 . S
H863 C886 0.950 . S
H864 C887 0.950 . S
H865 C889 0.951 . S
H866 C890 0.949 . S
H867 C892 0.949 . S
H868 C893 0.950 . S
H869 C895 0.950 . S
H870 C896 0.950 . S
H871 C898 0.950 . S
H872 C901 0.950 . S
H873 C902 0.950 . S
H874 C904 0.951 . S
H875 C905 0.949 . S
C876 C877 1.376 . S
C876 C881 1.386 1_455 S
C876 C882 1.483 . S
C877 H858 0.949 . S
C877 C876 1.376 . S
C877 C878 1.397 . S
C878 H859 0.950 . S
C878 C877 1.397 . S
C878 C879 1.391 . S
C879 C878 1.391 . S
C879 C880 1.405 1_455 S
C880 H860 0.950 . S
C880 C879 1.405 1_655 S
C880 C881 1.367 . S
C881 H861 0.950 . S
C881 C876 1.386 1_655 S
C881 C880 1.367 . S
C882 C876 1.483 . S
C882 C883 1.382 . S
C882 C884 1.403 1_455 S
C883 H862 0.950 . S
C883 C882 1.382 . S
C883 C899 1.411 . S
C884 C882 1.403 1_655 S
C884 C885 1.489 . S
C884 C898 1.411 . S
C885 C884 1.489 . S
C885 C886 1.383 1_655 S
C885 C890 1.382 . S
C886 H863 0.950 . S
C886 C885 1.383 1_455 S
C886 C887 1.395 . S
C887 H864 0.950 . S
C887 C886 1.395 . S
C887 C888 1.288 1_455 S
C888 C887 1.288 1_655 S
C888 C889 1.392 . S
C889 H865 0.951 . S
C889 C888 1.392 . S
C889 C890 1.392 . S
C890 H866 0.949 . S
C890 C885 1.382 . S
C890 C889 1.392 . S
C891 C892 1.376 . S
C891 C896 1.386 1_655 S
C891 C897 1.483 . S
C892 H867 0.949 . S
C892 C891 1.376 . S
C892 C893 1.397 . S
C893 H868 0.950 . S
C893 C892 1.397 . S
C893 C894 1.391 . S
C894 C893 1.391 . S
C894 C895 1.405 1_655 S
C895 H869 0.950 . S
C895 C894 1.405 1_455 S
C895 C896 1.367 . S
C896 H870 0.950 . S
C896 C891 1.386 1_455 S
C896 C895 1.367 . S
C897 C891 1.483 . S
C897 C898 1.382 . S
C897 C899 1.403 1_655 S
C898 H871 0.950 . S
C898 C884 1.411 . S
C898 C897 1.382 . S
C899 C883 1.411 . S
C899 C897 1.403 1_455 S
C899 C900 1.489 . S
C900 C899 1.489 . S
C900 C901 1.383 1_455 S
C900 C905 1.382 . S
C901 H872 0.950 . S
C901 C900 1.383 1_655 S
C901 C902 1.395 . S
C902 H873 0.950 . S
C902 C901 1.395 . S
C902 C903 1.288 1_655 S
C903 C902 1.288 1_455 S
C903 C904 1.392 . S
C904 H874 0.951 . S
C904 C903 1.392 . S
C904 C905 1.392 . S
C905 H875 0.949 . S
C905 C900 1.382 . S
C905 C904 1.392 . S
H906 C925 0.949 . S
H907 C926 0.950 . S
H908 C928 0.950 . S
H909 C929 0.950 . S
H910 C931 0.950 . S
H911 C934 0.950 . S
H912 C935 0.950 . S
H913 C937 0.951 . S
H914 C938 0.949 . S
H915 C940 0.949 . S
H916 C941 0.950 . S
H917 C943 0.950 . S
H918 C944 0.950 . S
H919 C946 0.950 . S
H920 C949 0.950 . S
H921 C950 0.950 . S
H922 C952 0.951 . S
H923 C953 0.949 . S
C924 C925 1.376 . S
C924 C929 1.386 . S
C924 C930 1.483 . S
C925 H906 0.949 . S
C925 C924 1.376 . S
C925 C926 1.397 . S
C926 H907 0.950 . S
C926 C925 1.397 . S
C926 C927 1.391 . S
C927 C926 1.391 . S
C927 C928 1.405 . S
C928 H908 0.950 . S
C928 C927 1.405 . S
C928 C929 1.367 . S
C929 H909 0.950 . S
C929 C924 1.386 . S
C929 C928 1.367 . S
C930 C924 1.483 . S
C930 C931 1.382 . S
C930 C932 1.403 . S
C931 H910 0.950 . S
C931 C930 1.382 . S
C931 C947 1.411 . S
C932 C930 1.403 . S
C932 C933 1.489 . S
C932 C946 1.411 . S
C933 C932 1.489 . S
C933 C934 1.383 . S
C933 C938 1.382 . S
C934 H911 0.950 . S
C934 C933 1.383 . S
C934 C935 1.395 . S
C935 H912 0.950 . S
C935 C934 1.395 . S
C935 C936 1.288 . S
C936 C935 1.288 . S
C936 C937 1.392 . S
C937 H913 0.951 . S
C937 C936 1.392 . S
C937 C938 1.392 . S
C938 H914 0.949 . S
C938 C933 1.382 . S
C938 C937 1.392 . S
C939 C940 1.376 . S
C939 C944 1.386 . S
C939 C945 1.483 . S
C940 H915 0.949 . S
C940 C939 1.376 . S
C940 C941 1.397 . S
C941 H916 0.950 . S
C941 C940 1.397 . S
C941 C942 1.391 . S
C942 C941 1.391 . S
C942 C943 1.405 . S
C943 H917 0.950 . S
C943 C942 1.405 . S
C943 C944 1.367 . S
C944 H918 0.950 . S
C944 C939 1.386 . S
C944 C943 1.367 . S
C945 C939 1.483 . S
C945 C946 1.382 . S
C945 C947 1.403 . S
C946 H919 0.950 . S
C946 C932 1.411 . S
C946 C945 1.382 . S
C947 C931 1.411 . S
C947 C945 1.403 . S
C947 C948 1.489 . S
C948 C947 1.489 . S
C948 C949 1.383 . S
C948 C953 1.382 . S
C949 H920 0.950 . S
C949 C948 1.383 . S
C949 C950 1.395 . S
C950 H921 0.950 . S
C950 C949 1.395 . S
C950 C951 1.288 . S
C951 C950 1.288 . S
C951 C952 1.392 . S
C952 H922 0.951 . S
C952 C951 1.392 . S
C952 C953 1.392 . S
C953 H923 0.949 . S
C953 C948 1.382 . S
C953 C952 1.392 . S
H954 C973 0.949 . S
H955 C974 0.950 . S
H956 C976 0.950 . S
H957 C977 0.950 . S
H958 C979 0.950 . S
H959 C982 0.950 . S
H960 C983 0.950 . S
H961 C985 0.951 . S
H962 C986 0.949 . S
H963 C988 0.949 . S
H964 C989 0.950 . S
H965 C991 0.950 . S
H966 C992 0.950 . S
H967 C994 0.950 . S
H968 C997 0.950 . S
H969 C998 0.950 . S
H970 C1000 0.951 . S
H971 C1001 0.949 . S
C972 C973 1.376 . S
C972 C977 1.386 . S
C972 C978 1.483 . S
C973 H954 0.949 . S
C973 C972 1.376 . S
C973 C974 1.397 . S
C974 H955 0.950 . S
C974 C973 1.397 . S
C974 C975 1.391 . S
C975 C974 1.391 . S
C975 C976 1.405 . S
C976 H956 0.950 . S
C976 C975 1.405 . S
C976 C977 1.367 . S
C977 H957 0.950 . S
C977 C972 1.386 . S
C977 C976 1.367 . S
C978 C972 1.483 . S
C978 C979 1.382 . S
C978 C980 1.403 . S
C979 H958 0.950 . S
C979 C978 1.382 . S
C979 C995 1.411 . S
C980 C978 1.403 . S
C980 C981 1.489 . S
C980 C994 1.411 . S
C981 C980 1.489 . S
C981 C982 1.383 . S
C981 C986 1.382 . S
C982 H959 0.950 . S
C982 C981 1.383 . S
C982 C983 1.395 . S
C983 H960 0.950 . S
C983 C982 1.395 . S
C983 C984 1.288 . S
C984 C983 1.288 . S
C984 C985 1.392 . S
C985 H961 0.951 . S
C985 C984 1.392 . S
C985 C986 1.392 . S
C986 H962 0.949 . S
C986 C981 1.382 . S
C986 C985 1.392 . S
C987 C988 1.376 . S
C987 C992 1.386 . S
C987 C993 1.483 . S
C988 H963 0.949 . S
C988 C987 1.376 . S
C988 C989 1.397 . S
C989 H964 0.950 . S
C989 C988 1.397 . S
C989 C990 1.391 . S
C990 C989 1.391 . S
C990 C991 1.405 . S
C991 H965 0.950 . S
C991 C990 1.405 . S
C991 C992 1.367 . S
C992 H966 0.950 . S
C992 C987 1.386 . S
C992 C991 1.367 . S
C993 C987 1.483 . S
C993 C994 1.382 . S
C993 C995 1.403 . S
C994 H967 0.950 . S
C994 C980 1.411 . S
C994 C993 1.382 . S
C995 C979 1.411 . S
C995 C993 1.403 . S
C995 C996 1.489 . S
C996 C995 1.489 . S
C996 C997 1.383 . S
C996 C1001 1.382 . S
C997 H968 0.950 . S
C997 C996 1.383 . S
C997 C998 1.395 . S
C998 H969 0.950 . S
C998 C997 1.395 . S
C998 C999 1.288 . S
C999 C998 1.288 . S
C999 C1000 1.392 . S
C1000 H970 0.951 . S
C1000 C999 1.392 . S
C1000 C1001 1.392 . S
C1001 H971 0.949 . S
C1001 C996 1.382 . S
C1001 C1000 1.392 . S
H1002 C1021 0.949 . S
H1003 C1022 0.950 . S
H1004 C1024 0.950 . S
H1005 C1025 0.950 . S
H1006 C1027 0.950 . S
H1007 C1030 0.950 . S
H1008 C1031 0.950 . S
H1009 C1033 0.951 . S
H1010 C1034 0.949 . S
H1011 C1036 0.949 . S
H1012 C1037 0.950 . S
H1013 C1039 0.950 . S
H1014 C1040 0.950 . S
H1015 C1042 0.950 . S
H1016 C1045 0.950 . S
H1017 C1046 0.950 . S
H1018 C1048 0.951 . S
H1019 C1049 0.949 . S
C1020 C1021 1.376 . S
C1020 C1025 1.386 . S
C1020 C1026 1.483 . S
C1021 H1002 0.949 . S
C1021 C1020 1.376 . S
C1021 C1022 1.397 . S
C1022 H1003 0.950 . S
C1022 C1021 1.397 . S
C1022 C1023 1.391 . S
C1023 C1022 1.391 . S
C1023 C1024 1.405 . S
C1024 H1004 0.950 . S
C1024 C1023 1.405 . S
C1024 C1025 1.367 . S
C1025 H1005 0.950 . S
C1025 C1020 1.386 . S
C1025 C1024 1.367 . S
C1026 C1020 1.483 . S
C1026 C1027 1.382 . S
C1026 C1028 1.403 . S
C1027 H1006 0.950 . S
C1027 C1026 1.382 . S
C1027 C1043 1.411 . S
C1028 C1026 1.403 . S
C1028 C1029 1.489 . S
C1028 C1042 1.411 . S
C1029 C1028 1.489 . S
C1029 C1030 1.383 . S
C1029 C1034 1.382 . S
C1030 H1007 0.950 . S
C1030 C1029 1.383 . S
C1030 C1031 1.395 . S
C1031 H1008 0.950 . S
C1031 C1030 1.395 . S
C1031 C1032 1.288 . S
C1032 C1031 1.288 . S
C1032 C1033 1.392 . S
C1033 H1009 0.951 . S
C1033 C1032 1.392 . S
C1033 C1034 1.392 . S
C1034 H1010 0.949 . S
C1034 C1029 1.382 . S
C1034 C1033 1.392 . S
C1035 C1036 1.376 . S
C1035 C1040 1.386 . S
C1035 C1041 1.483 . S
C1036 H1011 0.949 . S
C1036 C1035 1.376 . S
C1036 C1037 1.397 . S
C1037 H1012 0.950 . S
C1037 C1036 1.397 . S
C1037 C1038 1.391 . S
C1038 C1037 1.391 . S
C1038 C1039 1.405 . S
C1039 H1013 0.950 . S
C1039 C1038 1.405 . S
C1039 C1040 1.367 . S
C1040 H1014 0.950 . S
C1040 C1035 1.386 . S
C1040 C1039 1.367 . S
C1041 C1035 1.483 . S
C1041 C1042 1.382 . S
C1041 C1043 1.403 . S
C1042 H1015 0.950 . S
C1042 C1028 1.411 . S
C1042 C1041 1.382 . S
C1043 C1027 1.411 . S
C1043 C1041 1.403 . S
C1043 C1044 1.489 . S
C1044 C1043 1.489 . S
C1044 C1045 1.383 . S
C1044 C1049 1.382 . S
C1045 H1016 0.950 . S
C1045 C1044 1.383 . S
C1045 C1046 1.395 . S
C1046 H1017 0.950 . S
C1046 C1045 1.395 . S
C1046 C1047 1.288 . S
C1047 C1046 1.288 . S
C1047 C1048 1.392 . S
C1048 H1018 0.951 . S
C1048 C1047 1.392 . S
C1048 C1049 1.392 . S
C1049 H1019 0.949 . S
C1049 C1044 1.382 . S
C1049 C1048 1.392 . S
H1050 C1069 0.949 . S
H1051 C1070 0.950 . S
H1052 C1072 0.950 . S
H1053 C1073 0.950 . S
H1054 C1075 0.950 . S
H1055 C1078 0.950 . S
H1056 C1079 0.950 . S
H1057 C1081 0.951 . S
H1058 C1082 0.949 . S
H1059 C1084 0.949 . S
H1060 C1085 0.950 . S
H1061 C1087 0.950 . S
H1062 C1088 0.950 . S
H1063 C1090 0.950 . S
H1064 C1093 0.950 . S
H1065 C1094 0.950 . S
H1066 C1096 0.951 . S
H1067 C1097 0.949 . S
C1068 C1069 1.376 . S
C1068 C1073 1.386 . S
C1068 C1074 1.483 . S
C1069 H1050 0.949 . S
C1069 C1068 1.376 . S
C1069 C1070 1.397 . S
C1070 H1051 0.950 . S
C1070 C1069 1.397 . S
C1070 C1071 1.391 . S
C1071 C1070 1.391 . S
C1071 C1072 1.405 . S
C1072 H1052 0.950 . S
C1072 C1071 1.405 . S
C1072 C1073 1.367 . S
C1073 H1053 0.950 . S
C1073 C1068 1.386 . S
C1073 C1072 1.367 . S
C1074 C1068 1.483 . S
C1074 C1075 1.382 . S
C1074 C1076 1.403 . S
C1075 H1054 0.950 . S
C1075 C1074 1.382 . S
C1075 C1091 1.411 . S
C1076 C1074 1.403 . S
C1076 C1077 1.489 . S
C1076 C1090 1.411 . S
C1077 C1076 1.489 . S
C1077 C1078 1.383 . S
C1077 C1082 1.382 . S
C1078 H1055 0.950 . S
C1078 C1077 1.383 . S
C1078 C1079 1.395 . S
C1079 H1056 0.950 . S
C1079 C1078 1.395 . S
C1079 C1080 1.288 . S
C1080 C1079 1.288 . S
C1080 C1081 1.392 . S
C1081 H1057 0.951 . S
C1081 C1080 1.392 . S
C1081 C1082 1.392 . S
C1082 H1058 0.949 . S
C1082 C1077 1.382 . S
C1082 C1081 1.392 . S
C1083 C1084 1.376 . S
C1083 C1088 1.386 . S
C1083 C1089 1.483 . S
C1084 H1059 0.949 . S
C1084 C1083 1.376 . S
C1084 C1085 1.397 . S
C1085 H1060 0.950 . S
C1085 C1084 1.397 . S
C1085 C1086 1.391 . S
C1086 C1085 1.391 . S
C1086 C1087 1.405 . S
C1087 H1061 0.950 . S
C1087 C1086 1.405 . S
C1087 C1088 1.367 . S
C1088 H1062 0.950 . S
C1088 C1083 1.386 . S
C1088 C1087 1.367 . S
C1089 C1083 1.483 . S
C1089 C1090 1.382 . S
C1089 C1091 1.403 . S
C1090 H1063 0.950 . S
C1090 C1076 1.411 . S
C1090 C1089 1.382 . S
C1091 C1075 1.411 . S
C1091 C1089 1.403 . S
C1091 C1092 1.489 . S
C1092 C1091 1.489 . S
C1092 C1093 1.383 . S
C1092 C1097 1.382 . S
C1093 H1064 0.950 . S
C1093 C1092 1.383 . S
C1093 C1094 1.395 . S
C1094 H1065 0.950 . S
C1094 C1093 1.395 . S
C1094 C1095 1.288 . S
C1095 C1094 1.288 . S
C1095 C1096 1.392 . S
C1096 H1066 0.951 . S
C1096 C1095 1.392 . S
C1096 C1097 1.392 . S
C1097 H1067 0.949 . S
C1097 C1092 1.382 . S
C1097 C1096 1.392 . S
C1098 C1099 1.387 . S
C1098 H1102 0.950 . S
C1098 C1107 1.390 . S
C1099 C1098 1.387 . S
C1099 C1101 1.387 1_655 S
H1100 C1107 0.950 . S
C1101 C1099 1.387 1_455 S
C1101 C1103 1.390 . S
C1101 H1105 0.950 . S
H1102 C1098 0.950 . S
C1103 C1101 1.390 . S
C1103 C1104 1.387 1_455 S
C1103 H1106 0.950 . S
C1104 C1103 1.387 1_655 S
C1104 C1107 1.387 . S
H1105 C1101 0.950 . S
H1106 C1103 0.950 . S
C1107 C1098 1.390 . S
C1107 H1100 0.950 . S
C1107 C1104 1.387 . S
C1108 C1109 1.387 . S
C1108 H1112 0.950 . S
C1108 C1117 1.390 . S
C1109 C1108 1.387 . S
C1109 C1111 1.387 . S
H1110 C1117 0.950 . S
C1111 C1109 1.387 . S
C1111 C1113 1.390 . S
C1111 H1115 0.950 . S
H1112 C1108 0.950 . S
C1113 C1111 1.390 . S
C1113 C1114 1.387 . S
C1113 H1116 0.950 . S
C1114 C1113 1.387 . S
C1114 C1117 1.387 . S
H1115 C1111 0.950 . S
H1116 C1113 0.950 . S
C1117 C1108 1.390 . S
C1117 H1110 0.950 . S
C1117 C1114 1.387 . S
C1118 C1119 1.387 1_565 S
C1118 H1122 0.950 . S
C1118 C1127 1.390 . S
C1119 C1118 1.387 1_545 S
C1119 C1121 1.387 . S
H1120 C1127 0.950 . S
C1121 C1119 1.387 . S
C1121 C1123 1.390 . S
C1121 H1125 0.950 . S
H1122 C1118 0.950 . S
C1123 C1121 1.390 . S
C1123 C1124 1.387 . S
C1123 H1126 0.950 . S
C1124 C1123 1.387 . S
C1124 C1127 1.387 1_545 S
H1125 C1121 0.950 . S
H1126 C1123 0.950 . S
C1127 C1118 1.390 . S
C1127 H1120 0.950 . S
C1127 C1124 1.387 1_565 S
C1128 C1129 1.387 1_545 S
C1128 H1132 0.950 . S
C1128 C1137 1.390 . S
C1129 C1128 1.387 1_565 S
C1129 C1131 1.387 . S
H1130 C1137 0.950 . S
C1131 C1129 1.387 . S
C1131 C1133 1.390 . S
C1131 H1135 0.950 . S
H1132 C1128 0.950 . S
C1133 C1131 1.390 . S
C1133 C1134 1.387 . S
C1133 H1136 0.950 . S
C1134 C1133 1.387 . S
C1134 C1137 1.387 1_565 S
H1135 C1131 0.950 . S
H1136 C1133 0.950 . S
C1137 C1128 1.390 . S
C1137 H1130 0.950 . S
C1137 C1134 1.387 1_545 S
C1138 C1139 1.387 1_655 S
C1138 H1142 0.950 . S
C1138 C1147 1.390 . S
C1139 C1138 1.387 1_455 S
C1139 C1141 1.387 . S
H1140 C1147 0.950 . S
C1141 C1139 1.387 . S
C1141 C1143 1.390 . S
C1141 H1145 0.950 . S
H1142 C1138 0.950 . S
C1143 C1141 1.390 . S
C1143 C1144 1.387 . S
C1143 H1146 0.950 . S
C1144 C1143 1.387 . S
C1144 C1147 1.387 1_455 S
H1145 C1141 0.950 . S
H1146 C1143 0.950 . S
C1147 C1138 1.390 . S
C1147 H1140 0.950 . S
C1147 C1144 1.387 1_655 S
C1148 C1149 1.387 . S
C1148 H1152 0.950 . S
C1148 C1157 1.390 . S
C1149 C1148 1.387 . S
C1149 C1151 1.387 . S
H1150 C1157 0.950 . S
C1151 C1149 1.387 . S
C1151 C1153 1.390 . S
C1151 H1155 0.950 . S
H1152 C1148 0.950 . S
C1153 C1151 1.390 . S
C1153 C1154 1.387 . S
C1153 H1156 0.950 . S
C1154 C1153 1.387 . S
C1154 C1157 1.387 . S
H1155 C1151 0.950 . S
H1156 C1153 0.950 . S
C1157 C1148 1.390 . S
C1157 H1150 0.950 . S
C1157 C1154 1.387 . S
C1158 C1159 1.387 . S
C1158 H1162 0.950 . S
C1158 C1167 1.390 . S
C1159 C1158 1.387 . S
C1159 C1161 1.383 . S
H1160 C1167 0.950 . S
C1161 C1159 1.383 . S
C1161 C1163 1.403 1_455 S
C1161 H1165 0.943 1_455 S
H1162 C1158 0.950 . S
C1163 C1161 1.403 1_655 S
C1163 C1164 1.387 1_655 S
C1163 H1166 0.950 . S
C1164 C1163 1.387 1_455 S
C1164 C1167 1.387 . S
H1165 C1161 0.943 1_655 S
H1166 C1163 0.950 . S
C1167 C1158 1.390 . S
C1167 H1160 0.950 . S
C1167 C1164 1.387 . S
C1168 C1169 1.387 . S
C1168 H1172 0.950 . S
C1168 C1177 1.390 . S
C1169 C1168 1.387 . S
C1169 C1171 1.387 . S
H1170 C1177 0.950 . S
C1171 C1169 1.387 . S
C1171 C1173 1.390 . S
C1171 H1175 0.950 . S
H1172 C1168 0.950 . S
C1173 C1171 1.390 . S
C1173 C1174 1.387 . S
C1173 H1176 0.950 . S
C1174 C1173 1.387 . S
C1174 C1177 1.387 . S
H1175 C1171 0.950 . S
H1176 C1173 0.950 . S
C1177 C1168 1.390 . S
C1177 H1170 0.950 . S
C1177 C1174 1.387 . S
C1178 C1179 1.387 1_545 S
C1178 H1182 0.950 . S
C1178 C1187 1.390 . S
C1179 C1178 1.387 1_565 S
C1179 C1181 1.387 . S
H1180 C1187 0.950 . S
C1181 C1179 1.387 . S
C1181 C1183 1.390 . S
C1181 H1185 0.950 . S
H1182 C1178 0.950 . S
C1183 C1181 1.390 . S
C1183 C1184 1.387 . S
C1183 H1186 0.950 . S
C1184 C1183 1.387 . S
C1184 C1187 1.387 1_565 S
H1185 C1181 0.950 . S
H1186 C1183 0.950 . S
C1187 C1178 1.390 . S
C1187 H1180 0.950 . S
C1187 C1184 1.387 1_545 S
C1188 C1189 1.387 . S
C1188 H1192 0.950 . S
C1188 C1197 1.390 . S
C1189 C1188 1.387 . S
C1189 C1191 1.387 1_545 S
H1190 C1197 0.950 . S
C1191 C1189 1.387 1_565 S
C1191 C1193 1.390 . S
C1191 H1195 0.950 . S
H1192 C1188 0.950 . S
C1193 C1191 1.390 . S
C1193 C1194 1.387 1_565 S
C1193 H1196 0.950 . S
C1194 C1193 1.387 1_545 S
C1194 C1197 1.387 . S
H1195 C1191 0.950 . S
H1196 C1193 0.950 . S
C1197 C1188 1.390 . S
C1197 H1190 0.950 . S
C1197 C1194 1.387 . S
C1198 C1199 1.387 1_455 S
C1198 H1202 0.950 . S
C1198 C1207 1.390 . S
C1199 C1198 1.387 1_655 S
C1199 C1201 1.387 . S
H1200 C1207 0.950 . S
C1201 C1199 1.387 . S
C1201 C1203 1.390 . S
C1201 H1205 0.950 . S
H1202 C1198 0.950 . S
C1203 C1201 1.390 . S
C1203 C1204 1.387 . S
C1203 H1206 0.950 . S
C1204 C1203 1.387 . S
C1204 C1207 1.387 1_655 S
H1205 C1201 0.950 . S
H1206 C1203 0.950 . S
C1207 C1198 1.390 . S
C1207 H1200 0.950 . S
C1207 C1204 1.387 1_455 S
C1208 C1209 1.387 . S
C1208 H1212 0.950 . S
C1208 C1217 1.390 . S
C1209 C1208 1.387 . S
C1209 C1211 1.387 . S
H1210 C1217 0.950 . S
C1211 C1209 1.387 . S
C1211 C1213 1.390 . S
C1211 H1215 0.950 . S
H1212 C1208 0.950 . S
C1213 C1211 1.390 . S
C1213 C1214 1.387 . S
C1213 H1216 0.950 . S
C1214 C1213 1.387 . S
C1214 C1217 1.387 . S
H1215 C1211 0.950 . S
H1216 C1213 0.950 . S
C1217 C1208 1.390 . S
C1217 H1210 0.950 . S
C1217 C1214 1.387 . S
C1218 C1219 1.387 . S
C1218 H1222 0.950 . S
C1218 C1227 1.390 . S
C1219 C1218 1.387 . S
C1219 C1221 1.387 . S
H1220 C1227 0.950 . S
C1221 C1219 1.387 . S
C1221 C1223 1.390 . S
C1221 H1225 0.950 . S
H1222 C1218 0.950 . S
C1223 C1221 1.390 . S
C1223 C1224 1.387 . S
C1223 H1226 0.950 . S
C1224 C1223 1.387 . S
C1224 C1227 1.387 . S
H1225 C1221 0.950 . S
H1226 C1223 0.950 . S
C1227 C1218 1.390 . S
C1227 H1220 0.950 . S
C1227 C1224 1.387 . S
C1228 C1229 1.387 . S
C1228 H1232 0.950 . S
C1228 C1237 1.390 . S
C1229 C1228 1.387 . S
C1229 C1231 1.387 . S
H1230 C1237 0.950 . S
C1231 C1229 1.387 . S
C1231 C1233 1.390 . S
C1231 H1235 0.950 . S
H1232 C1228 0.950 . S
C1233 C1231 1.390 . S
C1233 C1234 1.387 . S
C1233 H1236 0.950 . S
C1234 C1233 1.387 . S
C1234 C1237 1.387 . S
H1235 C1231 0.950 . S
H1236 C1233 0.950 . S
C1237 C1228 1.390 . S
C1237 H1230 0.950 . S
C1237 C1234 1.387 . S
C1238 C1239 1.387 . S
C1238 H1242 0.950 . S
C1238 C1247 1.390 . S
C1239 C1238 1.387 . S
C1239 C1241 1.387 . S
H1240 C1247 0.950 . S
C1241 C1239 1.387 . S
C1241 C1243 1.390 . S
C1241 H1245 0.950 . S
H1242 C1238 0.950 . S
C1243 C1241 1.390 . S
C1243 C1244 1.387 . S
C1243 H1246 0.950 . S
C1244 C1243 1.387 . S
C1244 C1247 1.387 . S
H1245 C1241 0.950 . S
H1246 C1243 0.950 . S
C1247 C1238 1.390 . S
C1247 H1240 0.950 . S
C1247 C1244 1.387 . S
C1248 C1249 1.387 . S
C1248 H1252 0.950 . S
C1248 C1257 1.390 . S
C1249 C1248 1.387 . S
C1249 C1251 1.387 . S
H1250 C1257 0.950 . S
C1251 C1249 1.387 . S
C1251 C1253 1.390 . S
C1251 H1255 0.950 . S
H1252 C1248 0.950 . S
C1253 C1251 1.390 . S
C1253 C1254 1.387 . S
C1253 H1256 0.950 . S
C1254 C1253 1.387 . S
C1254 C1257 1.387 . S
H1255 C1251 0.950 . S
H1256 C1253 0.950 . S
C1257 C1248 1.390 . S
C1257 H1250 0.950 . S
C1257 C1254 1.387 . S
C1258 C1259 1.387 . S
C1258 H1262 0.950 . S
C1258 C1267 1.390 . S
C1259 C1258 1.387 . S
C1259 C1261 1.387 . S
H1260 C1267 0.950 . S
C1261 C1259 1.387 . S
C1261 C1263 1.390 . S
C1261 H1265 0.950 . S
H1262 C1258 0.950 . S
C1263 C1261 1.390 . S
C1263 C1264 1.387 . S
C1263 H1266 0.950 . S
C1264 C1263 1.387 . S
C1264 C1267 1.387 . S
H1265 C1261 0.950 . S
H1266 C1263 0.950 . S
C1267 C1258 1.390 . S
C1267 H1260 0.950 . S
C1267 C1264 1.387 . S
C1268 C1269 1.387 . S
C1268 H1272 0.950 . S
C1268 C1277 1.390 . S
C1269 C1268 1.387 . S
C1269 C1271 1.387 . S
H1270 C1277 0.950 . S
C1271 C1269 1.387 . S
C1271 C1273 1.390 . S
C1271 H1275 0.950 . S
H1272 C1268 0.950 . S
C1273 C1271 1.390 . S
C1273 C1274 1.387 . S
C1273 H1276 0.950 . S
C1274 C1273 1.387 . S
C1274 C1277 1.387 . S
H1275 C1271 0.950 . S
H1276 C1273 0.950 . S
C1277 C1268 1.390 . S
C1277 H1270 0.950 . S
C1277 C1274 1.387 . S
C1278 C1279 1.387 . S
C1278 H1282 0.950 . S
C1278 C1287 1.390 . S
C1279 C1278 1.387 . S
C1279 C1281 1.387 . S
H1280 C1287 0.950 . S
C1281 C1279 1.387 . S
C1281 C1283 1.390 . S
C1281 H1285 0.950 . S
H1282 C1278 0.950 . S
C1283 C1281 1.390 . S
C1283 C1284 1.387 . S
C1283 H1286 0.950 . S
C1284 C1283 1.387 . S
C1284 C1287 1.387 . S
H1285 C1281 0.950 . S
H1286 C1283 0.950 . S
C1287 C1278 1.390 . S
C1287 H1280 0.950 . S
C1287 C1284 1.387 . S
C1288 C1289 1.387 . S
C1288 H1292 0.950 . S
C1288 C1297 1.390 . S
C1289 C1288 1.387 . S
C1289 C1291 1.387 . S
H1290 C1297 0.950 . S
C1291 C1289 1.387 . S
C1291 C1293 1.390 . S
C1291 H1295 0.950 . S
H1292 C1288 0.950 . S
C1293 C1291 1.390 . S
C1293 C1294 1.387 . S
C1293 H1296 0.950 . S
C1294 C1293 1.387 . S
C1294 C1297 1.387 . S
H1295 C1291 0.950 . S
H1296 C1293 0.950 . S
C1297 C1288 1.390 . S
C1297 H1290 0.950 . S
C1297 C1294 1.387 . S
C1298 C1299 1.387 . S
C1298 H1302 0.950 . S
C1298 C1307 1.390 . S
C1299 C1298 1.387 . S
C1299 C1301 1.387 . S
H1300 C1307 0.950 . S
C1301 C1299 1.387 . S
C1301 C1303 1.390 . S
C1301 H1305 0.950 . S
H1302 C1298 0.950 . S
C1303 C1301 1.390 . S
C1303 C1304 1.387 . S
C1303 H1306 0.950 . S
C1304 C1303 1.387 . S
C1304 C1307 1.387 . S
H1305 C1301 0.950 . S
H1306 C1303 0.950 . S
C1307 C1298 1.390 . S
C1307 H1300 0.950 . S
C1307 C1304 1.387 . S
C1308 C1309 1.387 . S
C1308 H1312 0.950 . S
C1308 C1317 1.390 . S
C1309 C1308 1.387 . S
C1309 C1311 1.387 . S
H1310 C1317 0.950 . S
C1311 C1309 1.387 . S
C1311 C1313 1.390 . S
C1311 H1315 0.950 . S
H1312 C1308 0.950 . S
C1313 C1311 1.390 . S
C1313 C1314 1.387 . S
C1313 H1316 0.950 . S
C1314 C1313 1.387 . S
C1314 C1317 1.387 . S
H1315 C1311 0.950 . S
H1316 C1313 0.950 . S
C1317 C1308 1.390 . S
C1317 H1310 0.950 . S
C1317 C1314 1.387 . S
C1318 C1319 1.387 . S
C1318 H1322 0.950 . S
C1318 C1327 1.390 . S
C1319 C1318 1.387 . S
C1319 C1321 1.387 . S
H1320 C1327 0.950 . S
C1321 C1319 1.387 . S
C1321 C1323 1.390 . S
C1321 H1325 0.950 . S
H1322 C1318 0.950 . S
C1323 C1321 1.390 . S
C1323 C1324 1.387 . S
C1323 H1326 0.950 . S
C1324 C1323 1.387 . S
C1324 C1327 1.387 . S
H1325 C1321 0.950 . S
H1326 C1323 0.950 . S
C1327 C1318 1.390 . S
C1327 H1320 0.950 . S
C1327 C1324 1.387 . S
C1328 C1329 1.387 . S
C1328 H1332 0.950 . S
C1328 C1337 1.390 . S
C1329 C1328 1.387 . S
C1329 C1331 1.387 . S
H1330 C1337 0.950 . S
C1331 C1329 1.387 . S
C1331 C1333 1.390 . S
C1331 H1335 0.950 . S
H1332 C1328 0.950 . S
C1333 C1331 1.390 . S
C1333 C1334 1.387 . S
C1333 H1336 0.950 . S
C1334 C1333 1.387 . S
C1334 C1337 1.387 . S
H1335 C1331 0.950 . S
H1336 C1333 0.950 . S
C1337 C1328 1.390 . S
C1337 H1330 0.950 . S
C1337 C1334 1.387 . S
C1338 C1339 1.387 . S
C1338 H1342 0.950 . S
C1338 C1347 1.390 . S
C1339 C1338 1.387 . S
C1339 C1341 1.387 . S
H1340 C1347 0.950 . S
C1341 C1339 1.387 . S
C1341 C1343 1.390 . S
C1341 H1345 0.950 . S
H1342 C1338 0.950 . S
C1343 C1341 1.390 . S
C1343 C1344 1.387 . S
C1343 H1346 0.950 . S
C1344 C1343 1.387 . S
C1344 C1347 1.387 . S
H1345 C1341 0.950 . S
H1346 C1343 0.950 . S
C1347 C1338 1.390 . S
C1347 H1340 0.950 . S
C1347 C1344 1.387 . S
C1348 C1349 1.387 . S
C1348 H1352 0.950 . S
C1348 C1357 1.390 . S
C1349 C1348 1.387 . S
C1349 C1351 1.387 . S
H1350 C1357 0.950 . S
C1351 C1349 1.387 . S
C1351 C1353 1.390 . S
C1351 H1355 0.950 . S
H1352 C1348 0.950 . S
C1353 C1351 1.390 . S
C1353 C1354 1.387 . S
C1353 H1356 0.950 . S
C1354 C1353 1.387 . S
C1354 C1357 1.387 . S
H1355 C1351 0.950 . S
H1356 C1353 0.950 . S
C1357 C1348 1.390 . S
C1357 H1350 0.950 . S
C1357 C1354 1.387 . S
C1358 C1359 1.387 . S
C1358 H1362 0.950 . S
C1358 C1367 1.390 . S
C1359 C1358 1.387 . S
C1359 C1361 1.387 . S
H1360 C1367 0.950 . S
C1361 C1359 1.387 . S
C1361 C1363 1.390 . S
C1361 H1365 0.950 . S
H1362 C1358 0.950 . S
C1363 C1361 1.390 . S
C1363 C1364 1.387 . S
C1363 H1366 0.950 . S
C1364 C1363 1.387 . S
C1364 C1367 1.387 . S
H1365 C1361 0.950 . S
H1366 C1363 0.950 . S
C1367 C1358 1.390 . S
C1367 H1360 0.950 . S
C1367 C1364 1.387 . S
C1368 C1369 1.387 . S
C1368 H1372 0.950 . S
C1368 C1377 1.390 . S
C1369 C1368 1.387 . S
C1369 C1371 1.387 . S
H1370 C1377 0.950 . S
C1371 C1369 1.387 . S
C1371 C1373 1.390 . S
C1371 H1375 0.950 . S
H1372 C1368 0.950 . S
C1373 C1371 1.390 . S
C1373 C1374 1.387 . S
C1373 H1376 0.950 . S
C1374 C1373 1.387 . S
C1374 C1377 1.387 . S
H1375 C1371 0.950 . S
H1376 C1373 0.950 . S
C1377 C1368 1.390 . S
C1377 H1370 0.950 . S
C1377 C1374 1.387 . S
C1378 C1379 1.387 . S
C1378 H1382 0.950 . S
C1378 C1387 1.390 . S
C1379 C1378 1.387 . S
C1379 C1381 1.387 . S
H1380 C1387 0.950 . S
C1381 C1379 1.387 . S
C1381 C1383 1.390 . S
C1381 H1385 0.950 . S
H1382 C1378 0.950 . S
C1383 C1381 1.390 . S
C1383 C1384 1.387 . S
C1383 H1386 0.950 . S
C1384 C1383 1.387 . S
C1384 C1387 1.387 . S
H1385 C1381 0.950 . S
H1386 C1383 0.950 . S
C1387 C1378 1.390 . S
C1387 H1380 0.950 . S
C1387 C1384 1.387 . S
C1388 C1389 1.387 . S
C1388 H1392 0.950 . S
C1388 C1397 1.390 . S
C1389 C1388 1.387 . S
C1389 C1391 1.387 . S
H1390 C1397 0.950 . S
C1391 C1389 1.387 . S
C1391 C1393 1.390 . S
C1391 H1395 0.950 . S
H1392 C1388 0.950 . S
C1393 C1391 1.390 . S
C1393 C1394 1.387 . S
C1393 H1396 0.950 . S
C1394 C1393 1.387 . S
C1394 C1397 1.387 . S
H1395 C1391 0.950 . S
H1396 C1393 0.950 . S
C1397 C1388 1.390 . S
C1397 H1390 0.950 . S
C1397 C1394 1.387 . S
C1398 C1399 1.387 . S
C1398 H1402 0.950 . S
C1398 C1407 1.390 . S
C1399 C1398 1.387 . S
C1399 C1401 1.387 . S
H1400 C1407 0.950 . S
C1401 C1399 1.387 . S
C1401 C1403 1.390 . S
C1401 H1405 0.950 . S
H1402 C1398 0.950 . S
C1403 C1401 1.390 . S
C1403 C1404 1.387 . S
C1403 H1406 0.950 . S
C1404 C1403 1.387 . S
C1404 C1407 1.387 . S
H1405 C1401 0.950 . S
H1406 C1403 0.950 . S
C1407 C1398 1.390 . S
C1407 H1400 0.950 . S
C1407 C1404 1.387 . S
C1408 C1409 1.387 . S
C1408 H1412 0.950 . S
C1408 C1417 1.390 . S
C1409 C1408 1.387 . S
C1409 C1411 1.387 . S
H1410 C1417 0.950 . S
C1411 C1409 1.387 . S
C1411 C1413 1.390 . S
C1411 H1415 0.950 . S
H1412 C1408 0.950 . S
C1413 C1411 1.390 . S
C1413 C1414 1.387 . S
C1413 H1416 0.950 . S
C1414 C1413 1.387 . S
C1414 C1417 1.387 . S
H1415 C1411 0.950 . S
H1416 C1413 0.950 . S
C1417 C1408 1.390 . S
C1417 H1410 0.950 . S
C1417 C1414 1.387 . S
C1418 C1419 1.387 . S
C1418 H1422 0.950 . S
C1418 C1427 1.390 . S
C1419 C1418 1.387 . S
C1419 C1421 1.387 . S
H1420 C1427 0.950 . S
C1421 C1419 1.387 . S
C1421 C1423 1.390 . S
C1421 H1425 0.950 . S
H1422 C1418 0.950 . S
C1423 C1421 1.390 . S
C1423 C1424 1.387 . S
C1423 H1426 0.950 . S
C1424 C1423 1.387 . S
C1424 C1427 1.387 . S
H1425 C1421 0.950 . S
H1426 C1423 0.950 . S
C1427 C1418 1.390 . S
C1427 H1420 0.950 . S
C1427 C1424 1.387 . S
C1428 C1429 1.387 . S
C1428 H1432 0.950 . S
C1428 C1437 1.390 . S
C1429 C1428 1.387 . S
C1429 C1431 1.387 . S
H1430 C1437 0.950 . S
C1431 C1429 1.387 . S
C1431 C1433 1.390 . S
C1431 H1435 0.950 . S
H1432 C1428 0.950 . S
C1433 C1431 1.390 . S
C1433 C1434 1.387 . S
C1433 H1436 0.950 . S
C1434 C1433 1.387 . S
C1434 C1437 1.387 . S
H1435 C1431 0.950 . S
H1436 C1433 0.950 . S
C1437 C1428 1.390 . S
C1437 H1430 0.950 . S
C1437 C1434 1.387 . S
C1438 C1439 1.387 . S
C1438 H1442 0.950 . S
C1438 C1447 1.390 . S
C1439 C1438 1.387 . S
C1439 C1441 1.387 . S
H1440 C1447 0.950 . S
C1441 C1439 1.387 . S
C1441 C1443 1.390 . S
C1441 H1445 0.950 . S
H1442 C1438 0.950 . S
C1443 C1441 1.390 . S
C1443 C1444 1.387 . S
C1443 H1446 0.950 . S
C1444 C1443 1.387 . S
C1444 C1447 1.387 . S
H1445 C1441 0.950 . S
H1446 C1443 0.950 . S
C1447 C1438 1.390 . S
C1447 H1440 0.950 . S
C1447 C1444 1.387 . S
C1448 C1449 1.387 . S
C1448 H1452 0.950 . S
C1448 C1457 1.390 . S
C1449 C1448 1.387 . S
C1449 C1451 1.387 . S
H1450 C1457 0.950 . S
C1451 C1449 1.387 . S
C1451 C1453 1.390 . S
C1451 H1455 0.950 . S
H1452 C1448 0.950 . S
C1453 C1451 1.390 . S
C1453 C1454 1.387 . S
C1453 H1456 0.950 . S
C1454 C1453 1.387 . S
C1454 C1457 1.387 . S
H1455 C1451 0.950 . S
H1456 C1453 0.950 . S
C1457 C1448 1.390 . S
C1457 H1450 0.950 . S
C1457 C1454 1.387 . S
C1458 C1459 1.387 . S
C1458 H1462 0.950 . S
C1458 C1467 1.390 . S
C1459 C1458 1.387 . S
C1459 C1461 1.387 . S
H1460 C1467 0.950 . S
C1461 C1459 1.387 . S
C1461 C1463 1.390 . S
C1461 H1465 0.950 . S
H1462 C1458 0.950 . S
C1463 C1461 1.390 . S
C1463 C1464 1.387 . S
C1463 H1466 0.950 . S
C1464 C1463 1.387 . S
C1464 C1467 1.387 . S
H1465 C1461 0.950 . S
H1466 C1463 0.950 . S
C1467 C1458 1.390 . S
C1467 H1460 0.950 . S
C1467 C1464 1.387 . S
C1468 C1469 1.387 . S
C1468 H1472 0.950 . S
C1468 C1477 1.390 . S
C1469 C1468 1.387 . S
C1469 C1471 1.387 . S
H1470 C1477 0.950 . S
C1471 C1469 1.387 . S
C1471 C1473 1.390 . S
C1471 H1475 0.950 . S
H1472 C1468 0.950 . S
C1473 C1471 1.390 . S
C1473 C1474 1.387 . S
C1473 H1476 0.950 . S
C1474 C1473 1.387 . S
C1474 C1477 1.387 . S
H1475 C1471 0.950 . S
H1476 C1473 0.950 . S
C1477 C1468 1.390 . S
C1477 H1470 0.950 . S
C1477 C1474 1.387 . S
C1478 C1479 1.387 . S
C1478 H1482 0.950 . S
C1478 C1487 1.390 . S
C1479 C1478 1.387 . S
C1479 C1481 1.387 . S
H1480 C1487 0.950 . S
C1481 C1479 1.387 . S
C1481 C1483 1.390 . S
C1481 H1485 0.950 . S
H1482 C1478 0.950 . S
C1483 C1481 1.390 . S
C1483 C1484 1.387 . S
C1483 H1486 0.950 . S
C1484 C1483 1.387 . S
C1484 C1487 1.387 . S
H1485 C1481 0.950 . S
H1486 C1483 0.950 . S
C1487 C1478 1.390 . S
C1487 H1480 0.950 . S
C1487 C1484 1.387 . S
C1488 C1489 1.387 . S
C1488 H1492 0.950 . S
C1488 C1497 1.390 . S
C1489 C1488 1.387 . S
C1489 C1491 1.387 . S
H1490 C1497 0.950 . S
C1491 C1489 1.387 . S
C1491 C1493 1.390 . S
C1491 H1495 0.950 1_556 S
H1492 C1488 0.950 . S
C1493 C1491 1.390 . S
C1493 C1494 1.387 . S
C1493 H1496 0.950 . S
C1494 C1493 1.387 . S
C1494 C1497 1.387 . S
H1495 C1491 0.950 1_554 S
H1496 C1493 0.950 . S
C1497 C1488 1.390 . S
C1497 H1490 0.950 . S
C1497 C1494 1.387 . S
C1498 C1499 1.387 . S
C1498 H1502 0.950 . S
C1498 C1507 1.390 . S
C1499 C1498 1.387 . S
C1499 C1501 1.387 . S
H1500 C1507 0.950 . S
C1501 C1499 1.387 . S
C1501 C1503 1.390 . S
C1501 H1505 0.950 1_556 S
H1502 C1498 0.950 . S
C1503 C1501 1.390 . S
C1503 C1504 1.387 . S
C1503 H1506 0.950 . S
C1504 C1503 1.387 . S
C1504 C1507 1.387 . S
H1505 C1501 0.950 1_554 S
H1506 C1503 0.950 . S
C1507 C1498 1.390 . S
C1507 H1500 0.950 . S
C1507 C1504 1.387 . S
C1508 C1509 1.387 . S
C1508 H1512 0.950 1_556 S
C1508 C1517 1.390 . S
C1509 C1508 1.387 . S
C1509 C1511 1.387 . S
H1510 C1517 0.950 . S
C1511 C1509 1.387 . S
C1511 C1513 1.390 . S
C1511 H1515 0.950 . S
H1512 C1508 0.950 1_554 S
C1513 C1511 1.390 . S
C1513 C1514 1.387 . S
C1513 H1516 0.950 . S
C1514 C1513 1.387 . S
C1514 C1517 1.387 . S
H1515 C1511 0.950 . S
H1516 C1513 0.950 . S
C1517 C1508 1.390 . S
C1517 H1510 0.950 . S
C1517 C1514 1.387 . S
C1518 C1519 1.387 . S
C1518 H1522 0.950 1_556 S
C1518 C1527 1.390 . S
C1519 C1518 1.387 . S
C1519 C1521 1.387 . S
H1520 C1527 0.950 . S
C1521 C1519 1.387 . S
C1521 C1523 1.390 . S
C1521 H1525 0.950 . S
H1522 C1518 0.950 1_554 S
C1523 C1521 1.390 . S
C1523 C1524 1.387 . S
C1523 H1526 0.950 . S
C1524 C1523 1.387 . S
C1524 C1527 1.387 . S
H1525 C1521 0.950 . S
H1526 C1523 0.950 . S
C1527 C1518 1.390 . S
C1527 H1520 0.950 . S
C1527 C1524 1.387 . S
C1528 C1529 1.387 . S
C1528 H1532 0.950 . S
C1528 C1537 1.390 . S
C1529 C1528 1.387 . S
C1529 C1531 1.387 . S
H1530 C1537 0.950 . S
C1531 C1529 1.387 . S
C1531 C1533 1.390 . S
C1531 H1535 0.950 . S
H1532 C1528 0.950 . S
C1533 C1531 1.390 . S
C1533 C1534 1.387 . S
C1533 H1536 0.950 . S
C1534 C1533 1.387 . S
C1534 C1537 1.387 . S
H1535 C1531 0.950 . S
H1536 C1533 0.950 . S
C1537 C1528 1.390 . S
C1537 H1530 0.950 . S
C1537 C1534 1.387 . S
C1538 C1539 1.387 . S
C1538 H1542 0.950 1_556 S
C1538 C1547 1.390 . S
C1539 C1538 1.387 . S
C1539 C1541 1.387 . S
H1540 C1547 0.950 . S
C1541 C1539 1.387 . S
C1541 C1543 1.390 . S
C1541 H1545 0.950 . S
H1542 C1538 0.950 1_554 S
C1543 C1541 1.390 . S
C1543 C1544 1.387 . S
C1543 H1546 0.950 . S
C1544 C1543 1.387 . S
C1544 C1547 1.387 . S
H1545 C1541 0.950 . S
H1546 C1543 0.950 . S
C1547 C1538 1.390 . S
C1547 H1540 0.950 . S
C1547 C1544 1.387 . S
C1548 C1549 1.387 . S
C1548 H1552 0.950 . S
C1548 C1557 1.390 . S
C1549 C1548 1.387 . S
C1549 C1551 1.387 . S
H1550 C1557 0.950 . S
C1551 C1549 1.387 . S
C1551 C1553 1.390 . S
C1551 H1555 0.950 . S
H1552 C1548 0.950 . S
C1553 C1551 1.390 . S
C1553 C1554 1.387 . S
C1553 H1556 0.950 . S
C1554 C1553 1.387 . S
C1554 C1557 1.387 . S
H1555 C1551 0.950 . S
H1556 C1553 0.950 . S
C1557 C1548 1.390 . S
C1557 H1550 0.950 . S
C1557 C1554 1.387 . S
C1558 C1559 1.387 . S
C1558 H1562 0.950 . S
C1558 C1567 1.390 . S
C1559 C1558 1.387 . S
C1559 C1561 1.387 . S
H1560 C1567 0.950 . S
C1561 C1559 1.387 . S
C1561 C1563 1.390 . S
C1561 H1565 0.950 . S
H1562 C1558 0.950 . S
C1563 C1561 1.390 . S
C1563 C1564 1.387 . S
C1563 H1566 0.950 . S
C1564 C1563 1.387 . S
C1564 C1567 1.387 . S
H1565 C1561 0.950 . S
H1566 C1563 0.950 . S
C1567 C1558 1.390 . S
C1567 H1560 0.950 . S
C1567 C1564 1.387 . S
C1568 C1569 1.387 . S
C1568 H1572 0.950 . S
C1568 C1577 1.390 . S
C1569 C1568 1.387 . S
C1569 C1571 1.387 . S
H1570 C1577 0.950 . S
C1571 C1569 1.387 . S
C1571 C1573 1.390 . S
C1571 H1575 0.950 . S
H1572 C1568 0.950 . S
C1573 C1571 1.390 . S
C1573 C1574 1.387 . S
C1573 H1576 0.950 . S
C1574 C1573 1.387 . S
C1574 C1577 1.387 . S
H1575 C1571 0.950 . S
H1576 C1573 0.950 . S
C1577 C1568 1.390 . S
C1577 H1570 0.950 . S
C1577 C1574 1.387 . S
C1578 C1579 1.387 . S
C1578 H1582 0.950 . S
C1578 C1587 1.390 . S
C1579 C1578 1.387 . S
C1579 C1581 1.387 . S
H1580 C1587 0.950 . S
C1581 C1579 1.387 . S
C1581 C1583 1.390 . S
C1581 H1585 0.950 . S
H1582 C1578 0.950 . S
C1583 C1581 1.390 . S
C1583 C1584 1.387 . S
C1583 H1586 0.950 . S
C1584 C1583 1.387 . S
C1584 C1587 1.387 . S
H1585 C1581 0.950 . S
H1586 C1583 0.950 . S
C1587 C1578 1.390 . S
C1587 H1580 0.950 . S
C1587 C1584 1.387 . S
C1588 C1589 1.387 . S
C1588 H1592 0.950 . S
C1588 C1597 1.390 . S
C1589 C1588 1.387 . S
C1589 C1591 1.387 . S
H1590 C1597 0.950 . S
C1591 C1589 1.387 . S
C1591 C1593 1.390 . S
C1591 H1595 0.950 . S
H1592 C1588 0.950 . S
C1593 C1591 1.390 . S
C1593 C1594 1.387 . S
C1593 H1596 0.950 . S
C1594 C1593 1.387 . S
C1594 C1597 1.387 . S
H1595 C1591 0.950 . S
H1596 C1593 0.950 . S
C1597 C1588 1.390 . S
C1597 H1590 0.950 . S
C1597 C1594 1.387 . S
C1598 C1599 1.387 . S
C1598 H1602 0.950 . S
C1598 C1607 1.390 . S
C1599 C1598 1.387 . S
C1599 C1601 1.387 . S
H1600 C1607 0.950 . S
C1601 C1599 1.387 . S
C1601 C1603 1.390 . S
C1601 H1605 0.950 . S
H1602 C1598 0.950 . S
C1603 C1601 1.390 . S
C1603 C1604 1.387 . S
C1603 H1606 0.950 . S
C1604 C1603 1.387 . S
C1604 C1607 1.387 . S
H1605 C1601 0.950 . S
H1606 C1603 0.950 . S
C1607 C1598 1.390 . S
C1607 H1600 0.950 . S
C1607 C1604 1.387 . S
C1608 C1609 1.387 . S
C1608 H1612 0.950 . S
C1608 C1617 1.390 . S
C1609 C1608 1.387 . S
C1609 C1611 1.387 . S
H1610 C1617 0.950 . S
C1611 C1609 1.387 . S
C1611 C1613 1.390 . S
C1611 H1615 0.939 . S
H1612 C1608 0.950 . S
C1613 C1611 1.390 . S
C1613 C1614 1.387 . S
C1613 H1616 0.950 1_455 S
C1614 C1613 1.387 . S
C1614 C1617 1.387 . S
H1615 C1611 0.939 . S
H1616 C1613 0.950 1_655 S
C1617 C1608 1.390 . S
C1617 H1610 0.950 . S
C1617 C1614 1.387 . S
C1618 C1619 1.387 . S
C1618 H1622 0.950 . S
C1618 C1627 1.390 . S
C1619 C1618 1.387 . S
C1619 C1621 1.387 . S
H1620 C1627 0.950 . S
C1621 C1619 1.387 . S
C1621 C1623 1.390 . S
C1621 H1625 0.950 . S
H1622 C1618 0.950 . S
C1623 C1621 1.390 . S
C1623 C1624 1.387 . S
C1623 H1626 0.950 . S
C1624 C1623 1.387 . S
C1624 C1627 1.387 . S
H1625 C1621 0.950 . S
H1626 C1623 0.950 . S
C1627 C1618 1.390 . S
C1627 H1620 0.950 . S
C1627 C1624 1.387 . S
C1628 C1629 1.387 . S
C1628 H1632 0.950 . S
C1628 C1637 1.390 . S
C1629 C1628 1.387 . S
C1629 C1631 1.387 1_565 S
H1630 C1637 0.950 . S
C1631 C1629 1.387 1_545 S
C1631 C1633 1.390 . S
C1631 H1635 0.950 . S
H1632 C1628 0.950 . S
C1633 C1631 1.390 . S
C1633 C1634 1.387 1_545 S
C1633 H1636 0.950 . S
C1634 C1633 1.387 1_565 S
C1634 C1637 1.387 . S
H1635 C1631 0.950 . S
H1636 C1633 0.950 . S
C1637 C1628 1.390 . S
C1637 H1630 0.950 . S
C1637 C1634 1.387 . S
C1638 C1639 1.387 1_545 S
C1638 H1642 0.950 . S
C1638 C1647 1.390 . S
C1639 C1638 1.387 1_565 S
C1639 C1641 1.387 . S
H1640 C1647 0.950 . S
C1641 C1639 1.387 . S
C1641 C1643 1.390 . S
C1641 H1645 0.950 . S
H1642 C1638 0.950 . S
C1643 C1641 1.390 . S
C1643 C1644 1.387 . S
C1643 H1646 0.950 . S
C1644 C1643 1.387 . S
C1644 C1647 1.387 1_565 S
H1645 C1641 0.950 . S
H1646 C1643 0.950 . S
C1647 C1638 1.390 . S
C1647 H1640 0.950 . S
C1647 C1644 1.387 1_545 S
C1648 C1649 1.387 . S
C1648 H1652 0.950 . S
C1648 C1657 1.390 . S
C1649 C1648 1.387 . S
C1649 C1651 1.387 . S
H1650 C1657 0.950 1_655 S
C1651 C1649 1.387 . S
C1651 C1653 1.390 . S
C1651 H1655 0.950 . S
H1652 C1648 0.950 . S
C1653 C1651 1.390 . S
C1653 C1654 1.387 . S
C1653 H1656 0.950 . S
C1654 C1653 1.387 . S
C1654 C1657 1.387 . S
H1655 C1651 0.950 . S
H1656 C1653 0.950 . S
C1657 C1648 1.390 . S
C1657 H1650 0.950 1_455 S
C1657 C1654 1.387 . S
C1658 C1659 1.387 . S
C1658 H1662 0.950 . S
C1658 C1667 1.390 . S
C1659 C1658 1.387 . S
C1659 C1661 1.387 . S
H1660 C1667 0.950 . S
C1661 C1659 1.387 . S
C1661 C1663 1.390 . S
C1661 H1665 0.950 . S
H1662 C1658 0.950 . S
C1663 C1661 1.390 . S
C1663 C1664 1.387 . S
C1663 H1666 0.950 . S
C1664 C1663 1.387 . S
C1664 C1667 1.387 . S
H1665 C1661 0.950 . S
H1666 C1663 0.950 . S
C1667 C1658 1.390 . S
C1667 H1660 0.950 . S
C1667 C1664 1.387 . S
C1668 C1669 1.387 . S
C1668 H1672 0.950 . S
C1668 C1677 1.390 . S
C1669 C1668 1.387 . S
C1669 C1671 1.387 . S
H1670 C1677 0.950 . S
C1671 C1669 1.387 . S
C1671 C1673 1.390 . S
C1671 H1675 0.950 . S
H1672 C1668 0.950 . S
C1673 C1671 1.390 . S
C1673 C1674 1.387 . S
C1673 H1676 0.950 . S
C1674 C1673 1.387 . S
C1674 C1677 1.387 . S
H1675 C1671 0.950 . S
H1676 C1673 0.950 . S
C1677 C1668 1.390 . S
C1677 H1670 0.950 . S
C1677 C1674 1.387 . S
C1678 C1679 1.387 . S
C1678 H1682 0.950 . S
C1678 C1687 1.390 . S
C1679 C1678 1.387 . S
C1679 C1681 1.387 . S
H1680 C1687 0.950 . S
C1681 C1679 1.387 . S
C1681 C1683 1.390 . S
C1681 H1685 0.950 . S
H1682 C1678 0.950 . S
C1683 C1681 1.390 . S
C1683 C1684 1.387 . S
C1683 H1686 0.950 . S
C1684 C1683 1.387 . S
C1684 C1687 1.387 . S
H1685 C1681 0.950 . S
H1686 C1683 0.950 . S
C1687 C1678 1.390 . S
C1687 H1680 0.950 . S
C1687 C1684 1.387 . S
C1688 C1689 1.387 . S
C1688 H1692 0.950 . S
C1688 C1697 1.390 . S
C1689 C1688 1.387 . S
C1689 C1691 1.387 . S
H1690 C1697 0.950 . S
C1691 C1689 1.387 . S
C1691 C1693 1.390 . S
C1691 H1695 0.950 . S
H1692 C1688 0.950 . S
C1693 C1691 1.390 . S
C1693 C1694 1.387 . S
C1693 H1696 0.950 . S
C1694 C1693 1.387 . S
C1694 C1697 1.387 . S
H1695 C1691 0.950 . S
H1696 C1693 0.950 . S
C1697 C1688 1.390 . S
C1697 H1690 0.950 . S
C1697 C1694 1.387 . S
C1698 C1699 1.387 . S
C1698 H1702 0.950 . S
C1698 C1707 1.390 . S
C1699 C1698 1.387 . S
C1699 C1701 1.387 1_545 S
H1700 C1707 0.950 . S
C1701 C1699 1.387 1_565 S
C1701 C1703 1.390 . S
C1701 H1705 0.950 . S
H1702 C1698 0.950 . S
C1703 C1701 1.390 . S
C1703 C1704 1.387 1_565 S
C1703 H1706 0.950 . S
C1704 C1703 1.387 1_545 S
C1704 C1707 1.387 . S
H1705 C1701 0.950 . S
H1706 C1703 0.950 . S
C1707 C1698 1.390 . S
C1707 H1700 0.950 . S
C1707 C1704 1.387 . S
C1708 C1709 1.387 . S
C1708 H1712 0.950 . S
C1708 C1717 1.390 . S
C1709 C1708 1.387 . S
C1709 C1711 1.387 . S
H1710 C1717 0.950 . S
C1711 C1709 1.387 . S
C1711 C1713 1.414 1_655 S
C1711 H1715 0.950 1_655 S
H1712 C1708 0.950 . S
C1713 C1711 1.414 1_455 S
C1713 C1714 1.352 1_455 S
C1713 H1716 0.964 . S
C1714 C1713 1.352 1_655 S
C1714 C1717 1.387 . S
H1715 C1711 0.950 1_455 S
H1716 C1713 0.964 . S
C1717 C1708 1.390 . S
C1717 H1710 0.950 . S
C1717 C1714 1.387 . S
C1718 C1719 1.387 . S
C1718 H1722 0.950 . S
C1718 C1727 1.390 . S
C1719 C1718 1.387 . S
C1719 C1721 1.387 . S
H1720 C1727 0.950 . S
C1721 C1719 1.387 . S
C1721 C1723 1.390 . S
C1721 H1725 0.950 . S
H1722 C1718 0.950 . S
C1723 C1721 1.390 . S
C1723 C1724 1.387 . S
C1723 H1726 0.950 . S
C1724 C1723 1.387 . S
C1724 C1727 1.387 . S
H1725 C1721 0.950 . S
H1726 C1723 0.950 . S
C1727 C1718 1.390 . S
C1727 H1720 0.950 . S
C1727 C1724 1.387 . S
C1728 C1729 1.387 . S
C1728 H1732 0.950 . S
C1728 C1737 1.390 . S
C1729 C1728 1.387 . S
C1729 C1731 1.387 . S
H1730 C1737 0.950 . S
C1731 C1729 1.387 . S
C1731 C1733 1.390 . S
C1731 H1735 0.950 . S
H1732 C1728 0.950 . S
C1733 C1731 1.390 . S
C1733 C1734 1.387 . S
C1733 H1736 0.950 . S
C1734 C1733 1.387 . S
C1734 C1737 1.387 . S
H1735 C1731 0.950 . S
H1736 C1733 0.950 . S
C1737 C1728 1.390 . S
C1737 H1730 0.950 . S
C1737 C1734 1.387 . S
C1738 C1739 1.387 . S
C1738 H1742 0.950 . S
C1738 C1747 1.390 . S
C1739 C1738 1.387 . S
C1739 C1741 1.387 . S
H1740 C1747 0.950 . S
C1741 C1739 1.387 . S
C1741 C1743 1.390 . S
C1741 H1745 0.950 . S
H1742 C1738 0.950 . S
C1743 C1741 1.390 . S
C1743 C1744 1.387 . S
C1743 H1746 0.950 . S
C1744 C1743 1.387 . S
C1744 C1747 1.387 . S
H1745 C1741 0.950 . S
H1746 C1743 0.950 . S
C1747 C1738 1.390 . S
C1747 H1740 0.950 . S
C1747 C1744 1.387 . S
C1748 C1749 1.387 . S
C1748 H1752 0.950 . S
C1748 C1757 1.390 . S
C1749 C1748 1.387 . S
C1749 C1751 1.387 . S
H1750 C1757 0.950 . S
C1751 C1749 1.387 . S
C1751 C1753 1.390 . S
C1751 H1755 0.950 . S
H1752 C1748 0.950 . S
C1753 C1751 1.390 . S
C1753 C1754 1.387 . S
C1753 H1756 0.950 . S
C1754 C1753 1.387 . S
C1754 C1757 1.387 . S
H1755 C1751 0.950 . S
H1756 C1753 0.950 . S
C1757 C1748 1.390 . S
C1757 H1750 0.950 . S
C1757 C1754 1.387 . S
C1758 C1759 1.387 . S
C1758 H1762 0.950 . S
C1758 C1767 1.390 . S
C1759 C1758 1.387 . S
C1759 C1761 1.387 . S
H1760 C1767 0.950 . S
C1761 C1759 1.387 . S
C1761 C1763 1.390 . S
C1761 H1765 0.950 . S
H1762 C1758 0.950 . S
C1763 C1761 1.390 . S
C1763 C1764 1.387 . S
C1763 H1766 0.950 . S
C1764 C1763 1.387 . S
C1764 C1767 1.387 . S
H1765 C1761 0.950 . S
H1766 C1763 0.950 . S
C1767 C1758 1.390 . S
C1767 H1760 0.950 . S
C1767 C1764 1.387 . S
C1768 C1769 1.387 . S
C1768 H1772 0.950 . S
C1768 C1777 1.390 . S
C1769 C1768 1.387 . S
C1769 C1771 1.387 . S
H1770 C1777 0.950 . S
C1771 C1769 1.387 . S
C1771 C1773 1.390 . S
C1771 H1775 0.950 . S
H1772 C1768 0.950 . S
C1773 C1771 1.390 . S
C1773 C1774 1.387 . S
C1773 H1776 0.950 . S
C1774 C1773 1.387 . S
C1774 C1777 1.387 . S
H1775 C1771 0.950 . S
H1776 C1773 0.950 . S
C1777 C1768 1.390 . S
C1777 H1770 0.950 . S
C1777 C1774 1.387 . S
C1778 C1779 1.387 . S
C1778 H1782 0.950 . S
C1778 C1787 1.390 . S
C1779 C1778 1.387 . S
C1779 C1781 1.387 . S
H1780 C1787 0.950 . S
C1781 C1779 1.387 . S
C1781 C1783 1.390 . S
C1781 H1785 0.950 . S
H1782 C1778 0.950 . S
C1783 C1781 1.390 . S
C1783 C1784 1.387 . S
C1783 H1786 0.950 . S
C1784 C1783 1.387 . S
C1784 C1787 1.387 . S
H1785 C1781 0.950 . S
H1786 C1783 0.950 . S
C1787 C1778 1.390 . S
C1787 H1780 0.950 . S
C1787 C1784 1.387 . S
C1788 C1789 1.387 . S
C1788 H1792 0.950 . S
C1788 C1797 1.390 . S
C1789 C1788 1.387 . S
C1789 C1791 1.387 . S
H1790 C1797 0.950 . S
C1791 C1789 1.387 . S
C1791 C1793 1.390 . S
C1791 H1795 0.950 . S
H1792 C1788 0.950 . S
C1793 C1791 1.390 . S
C1793 C1794 1.387 . S
C1793 H1796 0.950 1_655 S
C1794 C1793 1.387 . S
C1794 C1797 1.387 . S
H1795 C1791 0.950 . S
H1796 C1793 0.950 1_455 S
C1797 C1788 1.390 . S
C1797 H1790 0.950 . S
C1797 C1794 1.387 . S
C1798 C1799 1.387 . S
C1798 H1802 0.950 . S
C1798 C1807 1.390 . S
C1799 C1798 1.387 . S
C1799 C1801 1.387 . S
H1800 C1807 0.950 . S
C1801 C1799 1.387 . S
C1801 C1803 1.390 . S
C1801 H1805 0.950 . S
H1802 C1798 0.950 . S
C1803 C1801 1.390 . S
C1803 C1804 1.387 . S
C1803 H1806 0.950 . S
C1804 C1803 1.387 . S
C1804 C1807 1.387 . S
H1805 C1801 0.950 . S
H1806 C1803 0.950 . S
C1807 C1798 1.390 . S
C1807 H1800 0.950 . S
C1807 C1804 1.387 . S
C1808 C1809 1.387 1_565 S
C1808 H1812 0.950 . S
C1808 C1817 1.390 . S
C1809 C1808 1.387 1_545 S
C1809 C1811 1.387 . S
H1810 C1817 0.950 . S
C1811 C1809 1.387 . S
C1811 C1813 1.390 . S
C1811 H1815 0.950 . S
H1812 C1808 0.950 . S
C1813 C1811 1.390 . S
C1813 C1814 1.387 . S
C1813 H1816 0.950 . S
C1814 C1813 1.387 . S
C1814 C1817 1.387 1_545 S
H1815 C1811 0.950 . S
H1816 C1813 0.950 . S
C1817 C1808 1.390 . S
C1817 H1810 0.950 . S
C1817 C1814 1.387 1_565 S
C1099 C8 1.455 . S
C1104 C711 1.512 . S
C1109 C18 1.509 . S
C1114 C759 1.546 . S
C1124 C807 1.534 . S
C1119 C31 1.450 . S
C1129 C34 1.466 . S
C1134 C831 1.536 . S
C1139 C5 1.453 . S
C1144 C903 1.528 . S
C1149 C21 1.532 . S
C1154 C951 1.569 . S
C1159 C47 1.454 . S
C1164 C879 1.523 . S
C1174 C927 1.553 . S
C1169 C57 1.511 . S
C1184 C855 1.545 . S
C1179 C70 1.468 . S
C1189 C73 1.448 . S
C1194 C783 1.523 . S
C1204 C687 1.546 . S
C1199 C44 1.469 . S
C1209 C60 1.532 . S
C1214 C735 1.571 . S
C1219 C86 1.592 . S
C1224 C999 1.625 . S
C1229 C96 1.571 . S
C1234 C1047 1.584 . S
C1244 C1071 1.617 . S
C1239 C109 1.628 . S
C1249 C112 1.619 . S
C1254 C255 1.626 . S
C1259 C83 1.616 . S
C1264 C327 1.633 . S
C1269 C99 1.595 . S
C1274 C375 1.612 . S
C1279 C125 1.544 . S
C1284 C303 1.575 . S
C1289 C135 1.564 . S
C1294 C351 1.593 . S
C1304 C279 1.595 . S
C1299 C148 1.614 . S
C1314 C1095 1.640 . S
C1309 C151 1.663 . S
C1324 C975 1.617 . S
C1319 C122 1.612 . S
C1334 C1023 1.634 . S
C1329 C138 1.615 . S
C1339 C164 1.544 . S
C1344 C423 1.575 . S
C1349 C174 1.554 . S
C1354 C471 1.579 . S
C1359 C187 1.614 . S
C1364 C495 1.616 . S
C1369 C190 1.665 . S
C1374 C543 1.673 . S
C1384 C615 1.629 . S
C1379 C161 1.622 . S
C1394 C663 1.634 . S
C1389 C177 1.617 . S
C1404 C591 1.638 . S
C1399 C203 1.605 . S
C1414 C639 1.599 . S
C1409 C213 1.583 . S
C1419 C226 1.620 . S
C1424 C567 1.587 . S
C1434 C519 1.590 . S
C1429 C229 1.606 . S
C1439 C200 1.613 . S
C1444 C399 1.630 . S
C1454 C447 1.619 . S
C1449 C216 1.598 . S
C1464 C264 1.561 . S
C1459 C0 1.462 . S
C1469 C23 1.504 . S
C1474 C318 1.452 . S
C1484 C366 1.522 . S
C1479 C36 1.567 . S
C1494 C414 1.548 . S
C1489 C26 1.485 . S
C1504 C462 1.497 . S
C1499 C10 1.552 . S
C1514 C504 1.527 . S
C1509 C13 1.438 . S
C1519 C39 1.469 . S
C1524 C510 1.552 . S
C1529 C62 1.495 . S
C1534 C408 1.429 . S
C1539 C75 1.545 . S
C1544 C456 1.482 . S
C1549 C65 1.502 . S
C1554 C312 1.543 . S
C1564 C360 1.482 . S
C1559 C49 1.558 . S
C1569 C52 1.445 . S
C1574 C270 1.510 . S
C1584 C552 1.531 . S
C1579 C78 1.446 . S
C1589 C101 1.567 . S
C1594 C606 1.515 . S
C1599 C114 1.572 . S
C1604 C654 1.529 . S
C1614 C702 1.359 . S
C1609 C104 1.333 . S
C1619 C88 1.487 . S
C1624 C750 1.444 . S
C1629 C91 1.274 . S
C1634 C798 1.290 . S
C1639 C117 1.304 . S
C1644 C792 1.315 . S
C1649 C140 1.324 . S
C1654 C696 1.320 . S
C1664 C744 1.446 . S
C1659 C153 1.491 . S
C1669 C143 1.464 . S
C1674 C600 1.489 . S
C1679 C127 1.576 . S
C1684 C648 1.511 . S
C1694 C558 1.558 . S
C1689 C130 1.508 . S
C1704 C840 1.338 . S
C1699 C156 1.307 . S
C1709 C179 1.318 . S
C1714 C894 1.314 . S
C1719 C192 1.493 . S
C1724 C942 1.458 . S
C1734 C990 1.494 . S
C1729 C182 1.452 . S
C1744 C1038 1.523 . S
C1739 C166 1.575 . S
C1749 C169 1.507 . S
C1754 C1080 1.578 . S
C1759 C195 1.456 . S
C1764 C1086 1.519 . S
C1769 C218 1.562 . S
C1774 C984 1.497 . S
C1784 C1032 1.498 . S
C1779 C231 1.551 . S
C1794 C888 1.342 . S
C1789 C221 1.321 . S
C1804 C936 1.439 . S
C1799 C205 1.496 . S
C1809 C208 1.287 . S
C1814 C846 1.313 . S
