# Generated by pormake.
# Topology tsx, (6,3)-cn, num edge types: 1
# Building blocks:
#     Node 0, Type 0, BuildingBlock: VOLQOD_clean_sbu_1, # of connection points: 6
#     Node 1, Type 0, BuildingBlock: VOLQOD_clean_sbu_1, # of connection points: 6
#     Node 2, Type 1, BuildingBlock: ESEHIV_clean_linker_0, # of connection points: 3
#     Node 3, Type 1, BuildingBlock: ESEHIV_clean_linker_0, # of connection points: 3
#     Node 4, Type 1, BuildingBlock: ESEHIV_clean_linker_0, # of connection points: 3
#     Node 5, Type 1, BuildingBlock: ESEHIV_clean_linker_0, # of connection points: 3
#     Edge 6, Type (0, 1), BuildingBlock: FUNLAD_clean_linker_1, # of connection points: 2
#     Edge 7, Type (0, 1), BuildingBlock: FUNLAD_clean_linker_1, # of connection points: 2
#     Edge 8, Type (0, 1), BuildingBlock: FUNLAD_clean_linker_1, # of connection points: 2
#     Edge 9, Type (0, 1), BuildingBlock: FUNLAD_clean_linker_1, # of connection points: 2
#     Edge 10, Type (0, 1), BuildingBlock: FUNLAD_clean_linker_1, # of connection points: 2
#     Edge 11, Type (0, 1), BuildingBlock: FUNLAD_clean_linker_1, # of connection points: 2
#     Edge 12, Type (0, 1), BuildingBlock: FUNLAD_clean_linker_1, # of connection points: 2
#     Edge 13, Type (0, 1), BuildingBlock: FUNLAD_clean_linker_1, # of connection points: 2
#     Edge 14, Type (0, 1), BuildingBlock: FUNLAD_clean_linker_1, # of connection points: 2
#     Edge 15, Type (0, 1), BuildingBlock: FUNLAD_clean_linker_1, # of connection points: 2
#     Edge 16, Type (0, 1), BuildingBlock: FUNLAD_clean_linker_1, # of connection points: 2
#     Edge 17, Type (0, 1), BuildingBlock: FUNLAD_clean_linker_1, # of connection points: 2
# Relax obj value: 0.075
# Max RMSD: 0.108
# Mean RMSD: 0.082
data_MOF--net-tsx--node1-VOLQOD_clean_sbu_1--node2-ESEHIV_clean_linker_0--edge1-FUNLAD_clean_linker_1
_symmetry_space_group_name_H-M    P1
_symmetry_Int_Tables_number       1
_symmetry_cell_setting            triclinic
loop_
_symmetry_equiv_pos_as_xyz
'x, y, z'
_cell_length_a     20.073613
_cell_length_b     20.769767
_cell_length_c     39.973609
_cell_angle_alpha  90.51316
_cell_angle_beta   89.745806
_cell_angle_gamma 89.991541
loop_
_atom_site_label
_atom_site_type_symbol
_atom_site_fract_x
_atom_site_fract_y
_atom_site_fract_z
_atom_type_partial_charge
O0 O 0.04946 0.00071 0.08057 0.0
Zn1 Zn 0.0756 0.99951 0.03152 0.0
O2 O 0.99719 0.99742 0.00248 0.0
Zn3 Zn 0.99722 0.91601 0.97701 0.0
Zn4 Zn 0.91693 0.00279 0.02998 0.0
Zn5 Zn 0.99772 0.07163 0.97226 0.0
O6 O 0.99437 0.93455 0.92737 0.0
O7 O 0.00349 0.04125 0.92412 0.0
O8 O 0.13607 0.9233 0.02314 0.0
O9 O 0.08144 0.8648 0.9854 0.0
O10 O 0.91845 0.85966 0.98985 0.0
O11 O 0.86118 0.92412 0.02414 0.0
O12 O 0.8595 0.07842 0.01891 0.0
O13 O 0.12859 0.07977 0.02298 0.0
O14 O 0.91343 0.12497 0.97703 0.0
O15 O 0.0747 0.13145 0.9828 0.0
C16 C 0.99304 0.00592 0.0951 0.0
C17 C -0.00064 0.98583 0.91025 0.0
C18 C 0.86804 0.87102 0.0085 0.0
C19 C 0.13164 0.87378 0.0043 0.0
C20 C 0.86395 0.12218 0.99705 0.0
C21 C 0.12265 0.12753 0.00343 0.0
O22 O 0.93915 0.00866 0.07863 0.0
O23 O 0.53808 0.52248 0.5809 0.0
Zn24 Zn 0.56881 0.52026 0.5328 0.0
O25 O 0.49394 0.53092 0.50219 0.0
Zn26 Zn 0.48544 0.4544 0.4737 0.0
Zn27 Zn 0.41219 0.54322 0.52802 0.0
Zn28 Zn 0.50891 0.60616 0.47433 0.0
O29 O 0.4893 0.47724 0.42466 0.0
O30 O 0.52015 0.58016 0.42595 0.0
O31 O 0.61928 0.43814 0.52348 0.0
O32 O 0.56239 0.39481 0.48137 0.0
O33 O 0.4021 0.40403 0.48475 0.0
O34 O 0.35298 0.466 0.52323 0.0
O35 O 0.36147 0.62178 0.51352 0.0
O36 O 0.63323 0.5935 0.52815 0.0
O37 O 0.43045 0.66588 0.47661 0.0
O38 O 0.58917 0.65659 0.48946 0.0
C39 C 0.48296 0.53876 0.59445 0.0
C40 C 0.50763 0.52845 0.40984 0.0
C41 C 0.35495 0.41488 0.50551 0.0
C42 C 0.61081 0.39369 0.50181 0.0
C43 C 0.37599 0.66615 0.49296 0.0
C44 C 0.63441 0.64441 0.51066 0.0
O45 O 0.4317 0.55129 0.57709 0.0
H46 H 0.92393 0.08507 0.34951 0.0
H47 H 0.0733 0.94161 0.36786 0.0
H48 H 0.95253 0.01384 0.44904 0.0
C49 C 0.94966 0.05319 0.36642 0.0
C50 C 0.93281 0.05476 0.40051 0.0
C51 C 0.0007 0.01257 0.3545 0.0
C52 C 0.03503 0.97391 0.37724 0.0
C53 C 0.01822 0.97456 0.41147 0.0
C54 C 0.96654 0.0145 0.42283 0.0
H55 H 0.97169 0.92584 0.65057 0.0
H56 H 0.10093 0.08961 0.64071 0.0
H57 H 0.04257 0.97938 0.55363 0.0
C58 C 8e-05 0.95882 0.63534 0.0
C59 C 0.00198 0.94848 0.60063 0.0
C60 C 0.03638 0.00959 0.65004 0.0
C61 C 0.07448 0.04985 0.62929 0.0
C62 C 0.07721 0.03941 0.59434 0.0
C63 C 0.04126 0.98797 0.58046 0.0
H64 H 0.44361 0.59258 0.85767 0.0
H65 H 0.60581 0.45818 0.85707 0.0
H66 H 0.50288 0.50176 0.94922 0.0
C67 C 0.47524 0.55893 0.87072 0.0
C68 C 0.46713 0.55151 0.90541 0.0
C69 C 0.52488 0.52511 0.85311 0.0
C70 C 0.56719 0.48421 0.87064 0.0
C71 C 0.55919 0.47448 0.90509 0.0
C72 C 0.50899 0.50848 0.92261 0.0
H73 H 0.44233 0.40491 0.14258 0.0
H74 H 0.61131 0.53189 0.15042 0.0
H75 H 0.54474 0.46735 0.0539 0.0
C76 C 0.48135 0.43311 0.13093 0.0
C77 C 0.48779 0.43284 0.0959 0.0
C78 C 0.52608 0.46755 0.15118 0.0
C79 C 0.57721 0.50308 0.13571 0.0
C80 C 0.58327 0.50412 0.10072 0.0
C81 C 0.53917 0.46802 0.0809 0.0
H82 H 0.15155 0.22986 0.99931 0.0
C83 C 0.16834 0.18271 0.00733 0.0
H84 H 0.24254 0.12953 0.03178 0.0
H85 H 0.37931 0.42267 0.0182 0.0
H86 H 0.37112 0.40958 0.958 0.0
H87 H 0.31572 0.31435 0.93338 0.0
H88 H 0.26684 0.23253 0.96885 0.0
C89 C 0.22642 0.1768 0.02359 0.0
C90 C 0.26256 0.2336 0.03742 0.0
C91 C 0.29316 0.2795 0.01621 0.0
C92 C 0.32822 0.33268 0.03037 0.0
C93 C 0.35488 0.37987 0.00875 0.0
C94 C 0.35006 0.37319 0.97415 0.0
C95 C 0.31864 0.31971 0.9603 0.0
C96 C 0.29046 0.27324 0.98095 0.0
H97 H 0.46582 0.36301 0.05538 0.0
C98 C 0.44346 0.39243 0.07506 0.0
H99 H 0.35543 0.41966 0.10022 0.0
H100 H 0.20457 0.15758 0.08534 0.0
H101 H 0.21625 0.16871 0.14524 0.0
H102 H 0.28332 0.25656 0.16971 0.0
H103 H 0.33873 0.33386 0.13436 0.0
C104 C 0.37758 0.38922 0.08091 0.0
C105 C 0.33563 0.33783 0.0656 0.0
C106 C 0.3043 0.29235 0.08677 0.0
C107 C 0.26715 0.24069 0.07268 0.0
C108 C 0.23496 0.19689 0.0945 0.0
C109 C 0.24087 0.20286 0.12906 0.0
C110 C 0.27855 0.25233 0.14282 0.0
C111 C 0.31002 0.29659 0.1221 0.0
H112 H 0.23235 0.8401 0.01775 0.0
C113 C 0.18821 0.82816 0.0033 0.0
H114 H 0.1445 0.76144 0.96974 0.0
H115 H 0.46315 0.71317 0.93636 0.0
H116 H 0.46324 0.8228 0.91582 0.0
H117 H 0.36453 0.89237 0.92312 0.0
H118 H 0.26594 0.8534 0.95146 0.0
C119 C 0.18869 0.77523 0.98367 0.0
C120 C 0.24928 0.73419 0.97981 0.0
C121 C 0.30591 0.75756 0.96227 0.0
C122 C 0.36168 0.71657 0.95663 0.0
C123 C 0.41856 0.74164 0.94019 0.0
C124 C 0.41943 0.80455 0.92846 0.0
C125 C 0.36396 0.84377 0.93268 0.0
C126 C 0.30771 0.82081 0.94926 0.0
H127 H 0.3766 0.6115 0.90581 0.0
C128 C 0.4139 0.59012 0.922 0.0
H129 H 0.44721 0.58654 0.97239 0.0
H130 H 0.15146 0.67578 0.01644 0.0
H131 H 0.15199 0.56561 0.03648 0.0
H132 H 0.24752 0.49377 0.02493 0.0
H133 H 0.3433 0.5318 0.99336 0.0
C134 C 0.4114 0.60537 0.95475 0.0
C135 C 0.35952 0.65143 0.96693 0.0
C136 C 0.30441 0.6289 0.98565 0.0
C137 C 0.24916 0.67027 0.99208 0.0
C138 C 0.19446 0.64623 0.01062 0.0
C139 C 0.19421 0.58317 0.0223 0.0
C140 C 0.248 0.54271 0.01581 0.0
C141 C 0.30256 0.56502 0.99764 0.0
H142 H 0.77043 0.83712 0.02563 0.0
C143 C 0.81723 0.8214 0.0144 0.0
H144 H 0.87582 0.74076 0.00041 0.0
H145 H 0.6424 0.65757 0.11306 0.0
H146 H 0.70468 0.7247 0.15158 0.0
H147 H 0.80565 0.78213 0.13294 0.0
H148 H 0.8429 0.77472 0.07526 0.0
C149 C 0.82932 0.75807 0.01122 0.0
C150 C 0.77996 0.7106 0.02405 0.0
C151 C 0.76265 0.71071 0.05853 0.0
C152 C 0.70834 0.67287 0.06996 0.0
C153 C 0.68674 0.68074 0.10358 0.0
C154 C 0.72151 0.71996 0.12591 0.0
C155 C 0.77802 0.75262 0.11537 0.0
C156 C 0.7985 0.74835 0.0821 0.0
H157 H 0.68459 0.5446 0.09759 0.0
C158 C 0.63615 0.54379 0.08552 0.0
H159 H 0.57519 0.58483 0.04853 0.0
H160 H 0.80274 0.69694 0.95692 0.0
H161 H 0.74435 0.62526 0.91877 0.0
H162 H 0.65432 0.55503 0.93905 0.0
H163 H 0.62154 0.55579 0.99746 0.0
C164 C 0.62399 0.58424 0.06018 0.0
C165 C 0.67609 0.62939 0.04764 0.0
C166 C 0.69453 0.62816 0.01331 0.0
C167 C 0.74661 0.66875 0.00155 0.0
C168 C 0.76368 0.66699 0.96715 0.0
C169 C 0.73063 0.62607 0.94499 0.0
C170 C 0.67993 0.5864 0.95643 0.0
C171 C 0.66181 0.58721 0.99011 0.0
H172 H 0.76832 0.1655 0.01276 0.0
C173 C 0.80933 0.16951 0.99503 0.0
H174 H 0.84668 0.21928 0.95305 0.0
H175 H 0.55399 0.30323 0.91134 0.0
H176 H 0.56572 0.20762 0.87635 0.0
H177 H 0.66133 0.1343 0.88326 0.0
H178 H 0.74548 0.15584 0.92533 0.0
C179 C 0.80746 0.21555 0.97175 0.0
C180 C 0.74858 0.25847 0.96877 0.0
C181 C 0.70015 0.24522 0.94398 0.0
C182 C 0.64572 0.28799 0.93961 0.0
C183 C 0.59728 0.2731 0.91508 0.0
C184 C 0.60316 0.2182 0.89501 0.0
C185 C 0.65694 0.17687 0.89894 0.0
C186 C 0.70494 0.18987 0.92314 0.0
H187 H 0.65039 0.41594 0.90705 0.0
C188 C 0.60544 0.42839 0.92105 0.0
H189 H 0.54951 0.40553 0.96469 0.0
H190 H 0.83097 0.29627 0.01967 0.0
H191 H 0.81789 0.39117 0.05507 0.0
H192 H 0.72308 0.46492 0.04745 0.0
H193 H 0.63968 0.4436 0.00473 0.0
C194 C 0.59358 0.39649 0.94955 0.0
C195 C 0.6408 0.3448 0.95944 0.0
C196 C 0.68685 0.35595 0.98555 0.0
C197 C 0.74127 0.31303 0.99006 0.0
C198 C 0.78828 0.32687 0.0154 0.0
C199 C 0.78143 0.38121 0.03584 0.0
C200 C 0.72794 0.42277 0.03157 0.0
C201 C 0.68088 0.4104 0.00682 0.0
H202 H 0.67553 0.74272 0.50986 0.0
C203 C 0.68558 0.69352 0.51741 0.0
H204 H 0.7506 0.63085 0.54248 0.0
H205 H 0.89907 0.92161 0.52909 0.0
H206 H 0.8917 0.90751 0.46901 0.0
H207 H 0.83919 0.81066 0.44459 0.0
H208 H 0.79134 0.72863 0.48025 0.0
C209 C 0.7409 0.68002 0.53479 0.0
C210 C 0.78369 0.73211 0.54878 0.0
C211 C 0.81566 0.77706 0.52753 0.0
C212 C 0.85058 0.83028 0.54159 0.0
C213 C 0.87598 0.87799 0.51983 0.0
C214 C 0.8715 0.87085 0.48524 0.0
C215 C 0.84157 0.81653 0.4715 0.0
C216 C 0.81382 0.77006 0.49226 0.0
H217 H 0.98682 0.86647 0.56586 0.0
C218 C 0.96301 0.89627 0.58495 0.0
H219 H 0.87408 0.91917 0.61057 0.0
H220 H 0.72709 0.65541 0.59694 0.0
H221 H 0.74121 0.66541 0.65676 0.0
H222 H 0.81029 0.75211 0.68095 0.0
H223 H 0.8652 0.82961 0.64533 0.0
C224 C 0.89813 0.88831 0.59201 0.0
C225 C 0.85848 0.8352 0.57683 0.0
C226 C 0.82831 0.78911 0.59802 0.0
C227 C 0.79008 0.73807 0.58403 0.0
C228 C 0.75821 0.69428 0.60595 0.0
C229 C 0.7656 0.69958 0.64048 0.0
C230 C 0.80441 0.7484 0.65409 0.0
C231 C 0.83553 0.79273 0.63327 0.0
H232 H 0.70424 0.34431 0.5153 0.0
C233 C 0.66126 0.3424 0.49886 0.0
H234 H 0.6171 0.29625 0.45714 0.0
H235 H 0.90303 0.22242 0.40057 0.0
H236 H 0.87853 0.31581 0.36688 0.0
H237 H 0.77884 0.38207 0.37829 0.0
H238 H 0.70395 0.35599 0.42393 0.0
C239 C 0.65834 0.29727 0.47466 0.0
C240 C 0.71629 0.25517 0.46728 0.0
C241 C 0.7583 0.27 0.43984 0.0
C242 C 0.81426 0.23045 0.43247 0.0
C243 C 0.85791 0.24883 0.40627 0.0
C244 C 0.84486 0.30282 0.38694 0.0
C245 C 0.78887 0.34022 0.39342 0.0
C246 C 0.74618 0.32454 0.41967 0.0
H247 H 0.8395 0.10953 0.39435 0.0
C248 C 0.87903 0.09845 0.41192 0.0
H249 H 0.91956 0.11982 0.45955 0.0
H250 H 0.64555 0.21406 0.52171 0.0
H251 H 0.66914 0.11976 0.55515 0.0
H252 H 0.76454 0.04917 0.54146 0.0
H253 H 0.83696 0.07243 0.49438 0.0
C254 C 0.87994 0.12873 0.44177 0.0
C255 C 0.82599 0.17426 0.45155 0.0
C256 C 0.7847 0.16019 0.47941 0.0
C257 C 0.72972 0.20082 0.48732 0.0
C258 C 0.68838 0.18511 0.51485 0.0
C259 C 0.70123 0.13103 0.53416 0.0
C260 C 0.75492 0.09127 0.52646 0.0
C261 C 0.7962 0.10528 0.49937 0.0
H262 H 0.2687 0.37523 0.53216 0.0
C263 C 0.30507 0.36477 0.5126 0.0
H264 H 0.34569 0.29309 0.4808 0.0
H265 H 0.27309 0.07452 0.58428 0.0
H266 H 0.3929 0.06367 0.57848 0.0
H267 H 0.45731 0.13946 0.54388 0.0
H268 H 0.40233 0.22588 0.51456 0.0
C269 C 0.30803 0.30507 0.49943 0.0
C270 C 0.26822 0.25236 0.51479 0.0
C271 C 0.30147 0.20201 0.5317 0.0
C272 C 0.26461 0.1591 0.5522 0.0
C273 C 0.29886 0.10914 0.56884 0.0
C274 C 0.3676 0.10222 0.56565 0.0
C275 C 0.40382 0.14483 0.54613 0.0
C276 C 0.37151 0.19433 0.5294 0.0
H277 H 0.10577 0.0758 0.54439 0.0
C278 C 0.11455 0.08194 0.57108 0.0
H279 H 0.1727 0.13259 0.60676 0.0
H280 H 0.18832 0.33262 0.47902 0.0
H281 H 0.06799 0.34259 0.48391 0.0
H282 H 0.00471 0.27414 0.52292 0.0
H283 H 0.06086 0.19475 0.5567 0.0
C284 C 0.1585 0.12705 0.58078 0.0
C285 C 0.19486 0.16698 0.55598 0.0
C286 C 0.16102 0.21464 0.53732 0.0
C287 C 0.19772 0.25625 0.51603 0.0
C288 C 0.16284 0.30164 0.49654 0.0
C289 C 0.09386 0.30754 0.49895 0.0
C290 C 0.05823 0.26884 0.52083 0.0
C291 C 0.09114 0.22307 0.53995 0.0
H292 H 0.342 0.75353 0.46762 0.0
C293 C 0.32804 0.71789 0.48617 0.0
H294 H 0.25041 0.68432 0.51765 0.0
H295 H 0.15203 0.98053 0.48242 0.0
H296 H 0.21459 0.0078 0.53253 0.0
H297 H 0.27798 0.9248 0.56259 0.0
H298 H 0.28 0.81374 0.5424 0.0
C299 C 0.26689 0.72018 0.49981 0.0
C300 C 0.21791 0.76684 0.48667 0.0
C301 C 0.21614 0.83077 0.49923 0.0
C302 C 0.17923 0.8785 0.48207 0.0
C303 C 0.17935 0.94246 0.49458 0.0
C304 C 0.2148 0.95867 0.52335 0.0
C305 C 0.25066 0.9119 0.54023 0.0
C306 C 0.25162 0.84856 0.52837 0.0
H307 H 0.02318 0.91386 0.45677 0.0
C308 C 0.05153 0.93124 0.43542 0.0
H309 H 0.1455 0.93087 0.41119 0.0
H310 H 0.20348 0.64652 0.45924 0.0
H311 H 0.13902 0.61854 0.4099 0.0
H312 H 0.07593 0.70158 0.37965 0.0
H313 H 0.07679 0.81297 0.39856 0.0
C314 C 0.11498 0.91244 0.43144 0.0
C315 C 0.14436 0.86177 0.45254 0.0
C316 C 0.14231 0.79689 0.44137 0.0
C317 C 0.17883 0.7492 0.45865 0.0
C318 C 0.17689 0.68475 0.44681 0.0
C319 C 0.13998 0.66803 0.4186 0.0
C320 C 0.10445 0.71478 0.40158 0.0
C321 C 0.10543 0.77855 0.41269 0.0
H322 H 0.93874 0.0134 0.1428 0.0
C323 C 0.98817 0.00801 0.13185 0.0
H324 H 0.09106 0.99855 0.14198 0.0
H325 H 0.05157 0.12552 0.28662 0.0
H326 H 0.11953 0.20587 0.25896 0.0
H327 H 0.14801 0.19494 0.1991 0.0
H328 H 0.10885 0.10342 0.16648 0.0
C329 C 0.0409 0.00226 0.15215 0.0
C330 C 0.03139 0.00427 0.1891 0.0
C331 C 0.05593 0.05732 0.20788 0.0
C332 C 0.03965 0.06356 0.24244 0.0
C333 C 0.06307 0.11802 0.26041 0.0
C334 C 0.10196 0.16461 0.24482 0.0
C335 C 0.11799 0.15845 0.2111 0.0
C336 C 0.09521 0.10566 0.19268 0.0
H337 H 0.06975 0.99205 0.31232 0.0
C338 C 0.02021 0.00979 0.31861 0.0
H339 H 0.92715 0.03763 0.29854 0.0
H340 H 0.9867 0.89074 0.16183 0.0
H341 H 0.91982 0.80982 0.18965 0.0
H342 H 0.88834 0.82261 0.24908 0.0
H343 H 0.924 0.9162 0.28107 0.0
C344 C 0.97861 0.02455 0.29359 0.0
C345 C -0.00072 0.0165 0.25808 0.0
C346 C 0.9771 0.9621 0.23965 0.0
C347 C 0.99402 0.95544 0.20524 0.0
C348 C 0.97331 0.89936 0.18772 0.0
C349 C 0.93539 0.85224 0.20347 0.0
C350 C 0.91776 0.85939 0.23694 0.0
C351 C 0.93842 0.91344 0.25498 0.0
H352 H 0.99502 0.93215 0.8624 0.0
C353 C 0.00028 0.97996 0.87339 0.0
H354 H 0.0109 0.07931 0.86368 0.0
H355 H 0.10052 0.92924 0.72136 0.0
H356 H 0.19377 0.88796 0.75284 0.0
H357 H 0.2041 0.9107 0.81327 0.0
H358 H 0.12036 0.97372 0.84266 0.0
C359 C 0.0075 0.03098 0.8532 0.0
C360 C 0.006 0.02359 0.81606 0.0
C361 C 0.05716 0.98932 0.79893 0.0
C362 C 0.05299 0.97908 0.76374 0.0
C363 C 0.10251 0.94101 0.74773 0.0
C364 C 0.15619 0.91658 0.76556 0.0
C365 C 0.16187 0.92916 0.7996 0.0
C366 C 0.11314 0.96507 0.81621 0.0
H367 H 0.07743 0.05102 0.69694 0.0
C368 C 0.03799 0.02059 0.68697 0.0
H369 H 0.95109 0.96814 0.69989 0.0
H370 H 0.90057 0.093 0.84096 0.0
H371 H 0.81001 0.13882 0.80907 0.0
H372 H 0.80546 0.12527 0.74775 0.0
H373 H 0.89125 0.06542 0.71796 0.0
C374 C 0.99402 0.99493 0.70865 0.0
C375 C -0.00058 0.00597 0.74545 0.0
C376 C 0.94937 0.04183 0.76247 0.0
C377 C 0.95255 0.0505 0.79778 0.0
C378 C 0.90115 0.08555 0.81414 0.0
C379 C 0.84876 0.11207 0.79614 0.0
C380 C 0.84616 0.10437 0.76162 0.0
C381 C 0.89569 0.06975 0.74485 0.0
H382 H 0.42836 0.5544 0.64173 0.0
C383 C 0.47684 0.54237 0.63113 0.0
H384 H 0.57742 0.52034 0.64175 0.0
H385 H 0.55891 0.64882 0.78649 0.0
H386 H 0.62949 0.72557 0.75772 0.0
H387 H 0.65033 0.71548 0.69705 0.0
H388 H 0.60083 0.62847 0.66473 0.0
C389 C 0.52799 0.53042 0.65168 0.0
C390 C 0.51887 0.53379 0.68857 0.0
C391 C 0.54932 0.58416 0.70713 0.0
C392 C 0.53779 0.58967 0.74216 0.0
C393 C 0.5671 0.6416 0.75995 0.0
C394 C 0.60743 0.68621 0.74372 0.0
C395 C 0.61914 0.68054 0.70954 0.0
C396 C 0.59043 0.63033 0.6913 0.0
H397 H 0.5824 0.51666 0.80592 0.0
C398 C 0.53451 0.53112 0.81642 0.0
H399 H 0.43572 0.55786 0.80432 0.0
H400 H 0.45943 0.4269 0.66107 0.0
H401 H 0.38928 0.35009 0.68986 0.0
H402 H 0.36697 0.36129 0.75037 0.0
H403 H 0.41509 0.44916 0.78246 0.0
C404 C 0.48582 0.54815 0.79531 0.0
C405 C 0.49655 0.54425 0.75855 0.0
C406 C 0.46663 0.49352 0.74005 0.0
C407 C 0.47849 0.48775 0.70508 0.0
C408 C 0.4504 0.43489 0.68748 0.0
C409 C 0.41043 0.39007 0.70375 0.0
C410 C 0.39796 0.39632 0.73782 0.0
C411 C 0.42581 0.44713 0.75592 0.0
H412 H 0.53125 0.57348 0.3615 0.0
C413 C 0.51569 0.52877 0.37314 0.0
H414 H 0.49244 0.43061 0.36509 0.0
H415 H 0.46571 0.57326 0.21583 0.0
H416 H 0.37236 0.6311 0.2402 0.0
H417 H 0.34219 0.61727 0.2996 0.0
H418 H 0.40629 0.54667 0.33511 0.0
C419 C 0.5056 0.47636 0.35386 0.0
C420 C 0.51779 0.47819 0.31709 0.0
C421 C 0.47757 0.51704 0.29625 0.0
C422 C 0.49264 0.52215 0.26157 0.0
C423 C 0.4546 0.56497 0.24193 0.0
C424 C 0.40112 0.59894 0.25567 0.0
C425 C 0.38432 0.59138 0.28913 0.0
C426 C 0.42188 0.551 0.3093 0.0
H427 H 0.4695 0.44586 0.19738 0.0
C428 C 0.51591 0.4663 0.18813 0.0
H429 H 0.60872 0.50555 0.20327 0.0
H430 H 0.60447 0.39909 0.34991 0.0
H431 H 0.6948 0.33737 0.32507 0.0
H432 H 0.71718 0.34163 0.2644 0.0
H433 H 0.64978 0.40817 0.22823 0.0
C434 C 0.55999 0.48838 0.21079 0.0
C435 C 0.54547 0.48538 0.24736 0.0
C436 C 0.58476 0.44549 0.26809 0.0
C437 C 0.57109 0.44211 0.30299 0.0
C438 C 0.61202 0.40285 0.32318 0.0
C439 C 0.66414 0.36719 0.30926 0.0
C440 C 0.67679 0.36966 0.27511 0.0
C441 C 0.63774 0.40819 0.25464 0.0
loop_
_geom_bond_atom_site_label_1
_geom_bond_atom_site_label_2
_geom_bond_distance
_geom_bond_site_symmetry_2
_ccdc_geom_bond_type
O0 Zn1 1.953 . S
O0 C16 1.225 1_565 S
Zn1 O0 1.953 . S
Zn1 O2 1.949 1_565 S
Zn1 O8 1.919 . S
Zn1 O13 1.924 1_565 S
O2 Zn1 1.949 1_545 S
O2 Zn3 1.923 1_444 S
O2 Zn4 1.950 1_455 S
O2 Zn5 1.945 1_554 S
Zn3 O2 1.923 1_666 S
Zn3 O6 1.933 . S
Zn3 O9 1.941 1_655 S
Zn3 O10 1.965 . S
Zn4 O2 1.950 1_655 S
Zn4 O11 1.938 1_545 S
Zn4 O12 1.906 . S
Zn4 O22 1.953 . S
Zn5 O2 1.945 1_556 S
Zn5 O7 1.932 . S
Zn5 O14 1.977 1_455 S
Zn5 O15 1.910 . S
O6 Zn3 1.933 . S
O6 C17 1.226 1_665 S
O7 Zn5 1.932 . S
O7 C17 1.307 . S
O8 Zn1 1.919 . S
O8 C19 1.253 1_554 S
O9 Zn3 1.941 1_455 S
O9 C19 1.283 . S
O10 Zn3 1.965 . S
O10 C18 1.303 1_556 S
O11 Zn4 1.938 1_565 S
O11 C18 1.247 . S
O12 Zn4 1.906 . S
O12 C20 1.304 1_554 S
O13 Zn1 1.924 1_545 S
O13 C21 1.311 . S
O14 Zn5 1.977 1_655 S
O14 C20 1.272 . S
O15 Zn5 1.910 . S
O15 C21 1.231 1_556 S
C16 O0 1.225 1_545 S
C16 O22 1.298 1_455 S
C17 O6 1.226 1_445 S
C17 O7 1.307 . S
C18 O10 1.303 1_554 S
C18 O11 1.247 . S
C19 O8 1.253 1_556 S
C19 O9 1.283 . S
C20 O12 1.304 1_556 S
C20 O14 1.272 . S
C21 O13 1.311 . S
C21 O15 1.231 1_554 S
O22 Zn4 1.953 . S
O22 C16 1.298 1_655 S
O23 Zn24 1.953 . S
O23 C39 1.225 . S
Zn24 O23 1.953 . S
Zn24 O25 1.949 . S
Zn24 O31 1.919 . S
Zn24 O36 1.924 . S
O25 Zn24 1.949 . S
O25 Zn26 1.923 . S
O25 Zn27 1.950 . S
O25 Zn28 1.945 . S
Zn26 O25 1.923 . S
Zn26 O29 1.933 . S
Zn26 O32 1.941 . S
Zn26 O33 1.965 . S
Zn27 O25 1.950 . S
Zn27 O34 1.938 . S
Zn27 O35 1.906 . S
Zn27 O45 1.953 . S
Zn28 O25 1.945 . S
Zn28 O30 1.932 . S
Zn28 O37 1.977 . S
Zn28 O38 1.910 . S
O29 Zn26 1.933 . S
O29 C40 1.226 . S
O30 Zn28 1.932 . S
O30 C40 1.307 . S
O31 Zn24 1.919 . S
O31 C42 1.253 . S
O32 Zn26 1.941 . S
O32 C42 1.283 . S
O33 Zn26 1.965 . S
O33 C41 1.303 . S
O34 Zn27 1.938 . S
O34 C41 1.247 . S
O35 Zn27 1.906 . S
O35 C43 1.304 . S
O36 Zn24 1.924 . S
O36 C44 1.311 . S
O37 Zn28 1.977 . S
O37 C43 1.272 . S
O38 Zn28 1.910 . S
O38 C44 1.231 . S
C39 O23 1.225 . S
C39 O45 1.298 . S
C40 O29 1.226 . S
C40 O30 1.307 . S
C41 O33 1.303 . S
C41 O34 1.247 . S
C42 O31 1.253 . S
C42 O32 1.283 . S
C43 O35 1.304 . S
C43 O37 1.272 . S
C44 O36 1.311 . S
C44 O38 1.231 . S
O45 Zn27 1.953 . S
O45 C39 1.298 . S
H46 C49 0.931 . S
H47 C52 0.928 . S
H48 C54 0.930 1_545 S
C49 H46 0.931 . S
C49 C50 1.413 . S
C49 C51 1.357 1_545 S
C50 C49 1.413 . S
C50 C54 1.422 1_645 S
C51 C49 1.357 1_565 S
C51 C52 1.375 1_655 S
C52 H47 0.928 . S
C52 C51 1.375 1_455 S
C52 C53 1.404 . S
C53 C52 1.404 . S
C53 C54 1.398 . S
C54 H48 0.930 1_565 S
C54 C50 1.422 1_465 S
C54 C53 1.398 . S
H55 C58 0.931 . S
H56 C61 0.928 . S
H57 C63 0.930 . S
C58 H55 0.931 . S
C58 C59 1.413 . S
C58 C60 1.360 1_665 S
C59 C58 1.413 . S
C59 C63 1.429 1_665 S
C60 C58 1.360 1_445 S
C60 C61 1.372 . S
C61 H56 0.928 . S
C61 C60 1.372 . S
C61 C62 1.404 . S
C62 C61 1.404 . S
C62 C63 1.391 . S
C63 H57 0.930 . S
C63 C59 1.429 1_445 S
C63 C62 1.391 . S
H64 C67 0.931 . S
H65 C70 0.928 . S
H66 C72 0.930 . S
C67 H64 0.931 . S
C67 C68 1.413 . S
C67 C69 1.360 . S
C68 C67 1.413 . S
C68 C72 1.429 . S
C69 C67 1.360 . S
C69 C70 1.372 . S
C70 H65 0.928 . S
C70 C69 1.372 . S
C70 C71 1.404 . S
C71 C70 1.404 . S
C71 C72 1.391 . S
C72 H66 0.930 . S
C72 C68 1.429 . S
C72 C71 1.391 . S
H73 C76 0.931 . S
H74 C79 0.928 . S
H75 C81 0.930 . S
C76 H73 0.931 . S
C76 C77 1.413 . S
C76 C78 1.360 . S
C77 C76 1.413 . S
C77 C81 1.429 . S
C78 C76 1.360 . S
C78 C79 1.372 . S
C79 H74 0.928 . S
C79 C78 1.372 . S
C79 C80 1.404 . S
C80 C79 1.404 . S
C80 C81 1.391 . S
C81 H75 0.930 . S
C81 C77 1.429 . S
C81 C80 1.391 . S
H82 C83 0.951 . S
C83 H82 0.951 . S
C83 C89 1.265 . S
H84 C89 0.950 . S
H85 C93 0.949 . S
H86 C94 0.950 . S
H87 C95 0.951 . S
H88 C96 0.951 . S
C89 C83 1.265 . S
C89 H84 0.950 . S
C89 C90 1.478 . S
C90 C89 1.478 . S
C90 C91 1.397 . S
C90 C107 1.394 . S
C91 C90 1.397 . S
C91 C92 1.438 . S
C91 C96 1.429 1_554 S
C92 C91 1.438 . S
C92 C93 1.428 . S
C92 C105 1.394 . S
C93 H85 0.949 . S
C93 C92 1.428 . S
C93 C94 1.345 1_554 S
C94 H86 0.950 . S
C94 C93 1.345 1_556 S
C94 C95 1.424 . S
C95 H87 0.951 . S
C95 C94 1.424 . S
C95 C96 1.347 . S
C96 H88 0.951 . S
C96 C91 1.429 1_556 S
C96 C95 1.347 . S
H97 C98 0.951 . S
C98 H97 0.951 . S
C98 C104 1.265 . S
H99 C104 0.950 . S
H100 C108 0.949 . S
H101 C109 0.950 . S
H102 C110 0.951 . S
H103 C111 0.951 . S
C104 C98 1.265 . S
C104 H99 0.950 . S
C104 C105 1.478 . S
C105 C92 1.394 . S
C105 C104 1.478 . S
C105 C106 1.397 . S
C106 C105 1.397 . S
C106 C107 1.438 . S
C106 C111 1.429 . S
C107 C90 1.394 . S
C107 C106 1.438 . S
C107 C108 1.428 . S
C108 H100 0.949 . S
C108 C107 1.428 . S
C108 C109 1.345 . S
C109 H101 0.950 . S
C109 C108 1.345 . S
C109 C110 1.424 . S
C110 H102 0.951 . S
C110 C109 1.424 . S
C110 C111 1.347 . S
C111 H103 0.951 . S
C111 C106 1.429 . S
C111 C110 1.347 . S
H112 C113 0.951 . S
C113 H112 0.951 . S
C113 C119 1.265 . S
H114 C119 0.950 . S
H115 C123 0.949 . S
H116 C124 0.950 . S
H117 C125 0.951 . S
H118 C126 0.951 . S
C119 C113 1.265 . S
C119 H114 0.950 . S
C119 C120 1.478 . S
C120 C119 1.478 . S
C120 C121 1.397 . S
C120 C137 1.394 . S
C121 C120 1.397 . S
C121 C122 1.438 . S
C121 C126 1.429 . S
C122 C121 1.438 . S
C122 C123 1.428 . S
C122 C135 1.394 . S
C123 H115 0.949 . S
C123 C122 1.428 . S
C123 C124 1.345 . S
C124 H116 0.950 . S
C124 C123 1.345 . S
C124 C125 1.424 . S
C125 H117 0.951 . S
C125 C124 1.424 . S
C125 C126 1.347 . S
C126 H118 0.951 . S
C126 C121 1.429 . S
C126 C125 1.347 . S
H127 C128 0.951 . S
C128 H127 0.951 . S
C128 C134 1.265 . S
H129 C134 0.950 . S
H130 C138 0.949 . S
H131 C139 0.950 . S
H132 C140 0.951 . S
H133 C141 0.951 1_556 S
C134 C128 1.265 . S
C134 H129 0.950 . S
C134 C135 1.478 . S
C135 C122 1.394 . S
C135 C134 1.478 . S
C135 C136 1.397 . S
C136 C135 1.397 . S
C136 C137 1.438 . S
C136 C141 1.429 1_556 S
C137 C120 1.394 . S
C137 C136 1.438 . S
C137 C138 1.428 1_556 S
C138 H130 0.949 . S
C138 C137 1.428 1_554 S
C138 C139 1.345 . S
C139 H131 0.950 . S
C139 C138 1.345 . S
C139 C140 1.424 . S
C140 H132 0.951 . S
C140 C139 1.424 . S
C140 C141 1.347 . S
C141 H133 0.951 1_554 S
C141 C136 1.429 1_554 S
C141 C140 1.347 . S
H142 C143 0.951 . S
C143 H142 0.951 . S
C143 C149 1.265 . S
H144 C149 0.950 . S
H145 C153 0.949 . S
H146 C154 0.950 . S
H147 C155 0.951 . S
H148 C156 0.951 . S
C149 C143 1.265 . S
C149 H144 0.950 . S
C149 C150 1.478 . S
C150 C149 1.478 . S
C150 C151 1.397 . S
C150 C167 1.394 . S
C151 C150 1.397 . S
C151 C152 1.438 . S
C151 C156 1.429 . S
C152 C151 1.438 . S
C152 C153 1.428 . S
C152 C165 1.394 . S
C153 H145 0.949 . S
C153 C152 1.428 . S
C153 C154 1.345 . S
C154 H146 0.950 . S
C154 C153 1.345 . S
C154 C155 1.424 . S
C155 H147 0.951 . S
C155 C154 1.424 . S
C155 C156 1.347 . S
C156 H148 0.951 . S
C156 C151 1.429 . S
C156 C155 1.347 . S
H157 C158 0.951 . S
C158 H157 0.951 . S
C158 C164 1.265 . S
H159 C164 0.950 . S
H160 C168 0.949 . S
H161 C169 0.950 . S
H162 C170 0.951 . S
H163 C171 0.951 . S
C164 C158 1.265 . S
C164 H159 0.950 . S
C164 C165 1.478 . S
C165 C152 1.394 . S
C165 C164 1.478 . S
C165 C166 1.397 . S
C166 C165 1.397 . S
C166 C167 1.438 . S
C166 C171 1.429 . S
C167 C150 1.394 . S
C167 C166 1.438 . S
C167 C168 1.428 1_554 S
C168 H160 0.949 . S
C168 C167 1.428 1_556 S
C168 C169 1.345 . S
C169 H161 0.950 . S
C169 C168 1.345 . S
C169 C170 1.424 . S
C170 H162 0.951 . S
C170 C169 1.424 . S
C170 C171 1.347 1_556 S
C171 H163 0.951 . S
C171 C166 1.429 . S
C171 C170 1.347 1_554 S
H172 C173 0.951 . S
C173 H172 0.951 . S
C173 C179 1.265 . S
H174 C179 0.950 . S
H175 C183 0.949 . S
H176 C184 0.950 . S
H177 C185 0.951 . S
H178 C186 0.951 . S
C179 C173 1.265 . S
C179 H174 0.950 . S
C179 C180 1.478 . S
C180 C179 1.478 . S
C180 C181 1.397 . S
C180 C197 1.394 . S
C181 C180 1.397 . S
C181 C182 1.438 . S
C181 C186 1.429 . S
C182 C181 1.438 . S
C182 C183 1.428 . S
C182 C195 1.394 . S
C183 H175 0.949 . S
C183 C182 1.428 . S
C183 C184 1.345 . S
C184 H176 0.950 . S
C184 C183 1.345 . S
C184 C185 1.424 . S
C185 H177 0.951 . S
C185 C184 1.424 . S
C185 C186 1.347 . S
C186 H178 0.951 . S
C186 C181 1.429 . S
C186 C185 1.347 . S
H187 C188 0.951 . S
C188 H187 0.951 . S
C188 C194 1.265 . S
H189 C194 0.950 . S
H190 C198 0.949 . S
H191 C199 0.950 . S
H192 C200 0.951 . S
H193 C201 0.952 . S
C194 C188 1.265 . S
C194 H189 0.950 . S
C194 C195 1.478 . S
C195 C182 1.394 . S
C195 C194 1.478 . S
C195 C196 1.397 . S
C196 C195 1.397 . S
C196 C197 1.438 . S
C196 C201 1.429 1_556 S
C197 C180 1.394 . S
C197 C196 1.438 . S
C197 C198 1.428 1_556 S
C198 H190 0.949 . S
C198 C197 1.428 1_554 S
C198 C199 1.345 . S
C199 H191 0.950 . S
C199 C198 1.345 . S
C199 C200 1.424 . S
C200 H192 0.951 . S
C200 C199 1.424 . S
C200 C201 1.347 . S
C201 H193 0.952 . S
C201 C196 1.429 1_554 S
C201 C200 1.347 . S
H202 C203 0.951 . S
C203 H202 0.951 . S
C203 C209 1.265 . S
H204 C209 0.950 . S
H205 C213 0.949 . S
H206 C214 0.950 . S
H207 C215 0.951 . S
H208 C216 0.951 . S
C209 C203 1.265 . S
C209 H204 0.950 . S
C209 C210 1.478 . S
C210 C209 1.478 . S
C210 C211 1.397 . S
C210 C227 1.394 . S
C211 C210 1.397 . S
C211 C212 1.438 . S
C211 C216 1.429 . S
C212 C211 1.438 . S
C212 C213 1.428 . S
C212 C225 1.394 . S
C213 H205 0.949 . S
C213 C212 1.428 . S
C213 C214 1.345 . S
C214 H206 0.950 . S
C214 C213 1.345 . S
C214 C215 1.424 . S
C215 H207 0.951 . S
C215 C214 1.424 . S
C215 C216 1.347 . S
C216 H208 0.951 . S
C216 C211 1.429 . S
C216 C215 1.347 . S
H217 C218 0.951 . S
C218 H217 0.951 . S
C218 C224 1.265 . S
H219 C224 0.950 . S
H220 C228 0.949 . S
H221 C229 0.950 . S
H222 C230 0.951 . S
H223 C231 0.951 . S
C224 C218 1.265 . S
C224 H219 0.950 . S
C224 C225 1.478 . S
C225 C212 1.394 . S
C225 C224 1.478 . S
C225 C226 1.397 . S
C226 C225 1.397 . S
C226 C227 1.438 . S
C226 C231 1.429 . S
C227 C210 1.394 . S
C227 C226 1.438 . S
C227 C228 1.428 . S
C228 H220 0.949 . S
C228 C227 1.428 . S
C228 C229 1.345 . S
C229 H221 0.950 . S
C229 C228 1.345 . S
C229 C230 1.424 . S
C230 H222 0.951 . S
C230 C229 1.424 . S
C230 C231 1.347 . S
C231 H223 0.951 . S
C231 C226 1.429 . S
C231 C230 1.347 . S
H232 C233 0.951 . S
C233 H232 0.951 . S
C233 C239 1.265 . S
H234 C239 0.950 . S
H235 C243 0.949 . S
H236 C244 0.950 . S
H237 C245 0.951 . S
H238 C246 0.951 . S
C239 C233 1.265 . S
C239 H234 0.950 . S
C239 C240 1.478 . S
C240 C239 1.478 . S
C240 C241 1.397 . S
C240 C257 1.394 . S
C241 C240 1.397 . S
C241 C242 1.438 . S
C241 C246 1.429 . S
C242 C241 1.438 . S
C242 C243 1.428 . S
C242 C255 1.394 . S
C243 H235 0.949 . S
C243 C242 1.428 . S
C243 C244 1.345 . S
C244 H236 0.950 . S
C244 C243 1.345 . S
C244 C245 1.424 . S
C245 H237 0.951 . S
C245 C244 1.424 . S
C245 C246 1.347 . S
C246 H238 0.951 . S
C246 C241 1.429 . S
C246 C245 1.347 . S
H247 C248 0.951 . S
C248 H247 0.951 . S
C248 C254 1.265 . S
H249 C254 0.950 . S
H250 C258 0.949 . S
H251 C259 0.950 . S
H252 C260 0.951 . S
H253 C261 0.951 . S
C254 C248 1.265 . S
C254 H249 0.950 . S
C254 C255 1.478 . S
C255 C242 1.394 . S
C255 C254 1.478 . S
C255 C256 1.397 . S
C256 C255 1.397 . S
C256 C257 1.438 . S
C256 C261 1.429 . S
C257 C240 1.394 . S
C257 C256 1.438 . S
C257 C258 1.428 . S
C258 H250 0.949 . S
C258 C257 1.428 . S
C258 C259 1.345 . S
C259 H251 0.950 . S
C259 C258 1.345 . S
C259 C260 1.424 . S
C260 H252 0.951 . S
C260 C259 1.424 . S
C260 C261 1.347 . S
C261 H253 0.951 . S
C261 C256 1.429 . S
C261 C260 1.347 . S
H262 C263 0.951 . S
C263 H262 0.951 . S
C263 C269 1.265 . S
H264 C269 0.950 . S
H265 C273 0.949 . S
H266 C274 0.950 . S
H267 C275 0.951 . S
H268 C276 0.951 . S
C269 C263 1.265 . S
C269 H264 0.950 . S
C269 C270 1.478 . S
C270 C269 1.478 . S
C270 C271 1.397 . S
C270 C287 1.394 . S
C271 C270 1.397 . S
C271 C272 1.438 . S
C271 C276 1.429 . S
C272 C271 1.438 . S
C272 C273 1.428 . S
C272 C285 1.394 . S
C273 H265 0.949 . S
C273 C272 1.428 . S
C273 C274 1.345 . S
C274 H266 0.950 . S
C274 C273 1.345 . S
C274 C275 1.424 . S
C275 H267 0.951 . S
C275 C274 1.424 . S
C275 C276 1.347 . S
C276 H268 0.951 . S
C276 C271 1.429 . S
C276 C275 1.347 . S
H277 C278 0.951 . S
C278 H277 0.951 . S
C278 C284 1.265 . S
H279 C284 0.950 . S
H280 C288 0.949 . S
H281 C289 0.950 . S
H282 C290 0.951 . S
H283 C291 0.951 . S
C284 C278 1.265 . S
C284 H279 0.950 . S
C284 C285 1.478 . S
C285 C272 1.394 . S
C285 C284 1.478 . S
C285 C286 1.397 . S
C286 C285 1.397 . S
C286 C287 1.438 . S
C286 C291 1.429 . S
C287 C270 1.394 . S
C287 C286 1.438 . S
C287 C288 1.428 . S
C288 H280 0.949 . S
C288 C287 1.428 . S
C288 C289 1.345 . S
C289 H281 0.950 . S
C289 C288 1.345 . S
C289 C290 1.424 . S
C290 H282 0.951 . S
C290 C289 1.424 . S
C290 C291 1.347 . S
C291 H283 0.951 . S
C291 C286 1.429 . S
C291 C290 1.347 . S
H292 C293 0.951 . S
C293 H292 0.951 . S
C293 C299 1.265 . S
H294 C299 0.950 . S
H295 C303 0.949 . S
H296 C304 0.950 . S
H297 C305 0.951 . S
H298 C306 0.951 . S
C299 C293 1.265 . S
C299 H294 0.950 . S
C299 C300 1.478 . S
C300 C299 1.478 . S
C300 C301 1.397 . S
C300 C317 1.394 . S
C301 C300 1.397 . S
C301 C302 1.438 . S
C301 C306 1.429 . S
C302 C301 1.438 . S
C302 C303 1.428 . S
C302 C315 1.394 . S
C303 H295 0.949 . S
C303 C302 1.428 . S
C303 C304 1.345 . S
C304 H296 0.950 . S
C304 C303 1.345 . S
C304 C305 1.424 . S
C305 H297 0.951 . S
C305 C304 1.424 . S
C305 C306 1.347 . S
C306 H298 0.951 . S
C306 C301 1.429 . S
C306 C305 1.347 . S
H307 C308 0.951 . S
C308 H307 0.951 . S
C308 C314 1.265 . S
H309 C314 0.950 . S
H310 C318 0.949 . S
H311 C319 0.950 . S
H312 C320 0.951 . S
H313 C321 0.951 . S
C314 C308 1.265 . S
C314 H309 0.950 . S
C314 C315 1.478 . S
C315 C302 1.394 . S
C315 C314 1.478 . S
C315 C316 1.397 . S
C316 C315 1.397 . S
C316 C317 1.438 . S
C316 C321 1.429 . S
C317 C300 1.394 . S
C317 C316 1.438 . S
C317 C318 1.428 . S
C318 H310 0.949 . S
C318 C317 1.428 . S
C318 C319 1.345 . S
C319 H311 0.950 . S
C319 C318 1.345 . S
C319 C320 1.424 . S
C320 H312 0.951 . S
C320 C319 1.424 . S
C320 C321 1.347 . S
C321 H313 0.951 . S
C321 C316 1.429 . S
C321 C320 1.347 . S
H322 C323 0.950 1_565 S
C323 H322 0.950 1_545 S
C323 C329 1.265 1_655 S
H324 C329 0.950 . S
H325 C333 0.949 . S
H326 C334 0.950 . S
H327 C335 0.951 . S
H328 C336 0.951 . S
C329 C323 1.265 1_455 S
C329 H324 0.950 . S
C329 C330 1.478 . S
C330 C329 1.478 . S
C330 C331 1.397 . S
C330 C347 1.394 1_445 S
C331 C330 1.397 . S
C331 C332 1.438 . S
C331 C336 1.429 . S
C332 C331 1.438 . S
C332 C333 1.428 . S
C332 C345 1.394 1_455 S
C333 H325 0.949 . S
C333 C332 1.428 . S
C333 C334 1.345 . S
C334 H326 0.950 . S
C334 C333 1.345 . S
C334 C335 1.424 . S
C335 H327 0.951 . S
C335 C334 1.424 . S
C335 C336 1.347 . S
C336 H328 0.951 . S
C336 C331 1.429 . S
C336 C335 1.347 . S
H337 C338 0.951 . S
C338 H337 0.951 . S
C338 C344 1.265 1_445 S
H339 C344 0.950 . S
H340 C348 0.949 . S
H341 C349 0.950 . S
H342 C350 0.951 . S
H343 C351 0.951 . S
C344 C338 1.265 1_665 S
C344 H339 0.950 . S
C344 C345 1.478 1_565 S
C345 C332 1.394 1_655 S
C345 C344 1.478 1_545 S
C345 C346 1.397 1_545 S
C346 C345 1.397 1_565 S
C346 C347 1.438 . S
C346 C351 1.429 . S
C347 C330 1.394 1_665 S
C347 C346 1.438 . S
C347 C348 1.428 . S
C348 H340 0.949 . S
C348 C347 1.428 . S
C348 C349 1.345 . S
C349 H341 0.950 . S
C349 C348 1.345 . S
C349 C350 1.424 . S
C350 H342 0.951 . S
C350 C349 1.424 . S
C350 C351 1.347 . S
C351 H343 0.951 . S
C351 C346 1.429 . S
C351 C350 1.347 . S
H352 C353 0.951 1_655 S
C353 H352 0.951 1_455 S
C353 C359 1.263 1_545 S
H354 C359 0.952 . S
H355 C363 0.949 . S
H356 C364 0.950 . S
H357 C365 0.951 . S
H358 C366 0.951 . S
C359 C353 1.263 1_565 S
C359 H354 0.952 . S
C359 C360 1.478 1_565 S
C360 C359 1.478 1_545 S
C360 C361 1.397 1_545 S
C360 C377 1.394 . S
C361 C360 1.397 1_565 S
C361 C362 1.438 . S
C361 C366 1.429 . S
C362 C361 1.438 . S
C362 C363 1.428 . S
C362 C375 1.394 1_465 S
C363 H355 0.949 . S
C363 C362 1.428 . S
C363 C364 1.345 . S
C364 H356 0.950 . S
C364 C363 1.345 . S
C364 C365 1.424 . S
C365 H357 0.951 . S
C365 C364 1.424 . S
C365 C366 1.347 . S
C366 H358 0.951 . S
C366 C361 1.429 . S
C366 C365 1.347 . S
H367 C368 0.951 1_565 S
C368 H367 0.951 1_545 S
C368 C374 1.265 1_455 S
H369 C374 0.950 . S
H370 C378 0.949 1_455 S
H371 C379 0.950 . S
H372 C380 0.951 . S
H373 C381 0.951 . S
C374 C368 1.265 1_655 S
C374 H369 0.950 . S
C374 C375 1.478 . S
C375 C362 1.394 1_645 S
C375 C374 1.478 . S
C375 C376 1.397 . S
C376 C375 1.397 . S
C376 C377 1.438 1_655 S
C376 C381 1.429 . S
C377 C360 1.394 . S
C377 C376 1.438 1_455 S
C377 C378 1.428 1_455 S
C378 H370 0.949 1_655 S
C378 C377 1.428 1_655 S
C378 C379 1.345 . S
C379 H371 0.950 . S
C379 C378 1.345 . S
C379 C380 1.424 . S
C380 H372 0.951 . S
C380 C379 1.424 . S
C380 C381 1.347 . S
C381 H373 0.951 . S
C381 C376 1.429 . S
C381 C380 1.347 . S
H382 C383 0.951 . S
C383 H382 0.951 . S
C383 C389 1.265 . S
H384 C389 0.950 . S
H385 C393 0.949 . S
H386 C394 0.950 . S
H387 C395 0.951 . S
H388 C396 0.951 . S
C389 C383 1.265 . S
C389 H384 0.950 . S
C389 C390 1.478 . S
C390 C389 1.478 . S
C390 C391 1.397 . S
C390 C407 1.394 . S
C391 C390 1.397 . S
C391 C392 1.438 . S
C391 C396 1.429 . S
C392 C391 1.438 . S
C392 C393 1.428 . S
C392 C405 1.394 . S
C393 H385 0.949 . S
C393 C392 1.428 . S
C393 C394 1.345 . S
C394 H386 0.950 . S
C394 C393 1.345 . S
C394 C395 1.424 . S
C395 H387 0.951 . S
C395 C394 1.424 . S
C395 C396 1.347 . S
C396 H388 0.951 . S
C396 C391 1.429 . S
C396 C395 1.347 . S
H397 C398 0.951 . S
C398 H397 0.951 . S
C398 C404 1.265 . S
H399 C404 0.950 . S
H400 C408 0.949 . S
H401 C409 0.950 . S
H402 C410 0.951 . S
H403 C411 0.951 . S
C404 C398 1.265 . S
C404 H399 0.950 . S
C404 C405 1.478 . S
C405 C392 1.394 . S
C405 C404 1.478 . S
C405 C406 1.397 . S
C406 C405 1.397 . S
C406 C407 1.438 . S
C406 C411 1.429 . S
C407 C390 1.394 . S
C407 C406 1.438 . S
C407 C408 1.428 . S
C408 H400 0.949 . S
C408 C407 1.428 . S
C408 C409 1.345 . S
C409 H401 0.950 . S
C409 C408 1.345 . S
C409 C410 1.424 . S
C410 H402 0.951 . S
C410 C409 1.424 . S
C410 C411 1.347 . S
C411 H403 0.951 . S
C411 C406 1.429 . S
C411 C410 1.347 . S
H412 C413 0.951 . S
C413 H412 0.951 . S
C413 C419 1.265 . S
H414 C419 0.950 . S
H415 C423 0.949 . S
H416 C424 0.950 . S
H417 C425 0.951 . S
H418 C426 0.951 . S
C419 C413 1.265 . S
C419 H414 0.950 . S
C419 C420 1.478 . S
C420 C419 1.478 . S
C420 C421 1.397 . S
C420 C437 1.394 . S
C421 C420 1.397 . S
C421 C422 1.438 . S
C421 C426 1.429 . S
C422 C421 1.438 . S
C422 C423 1.428 . S
C422 C435 1.394 . S
C423 H415 0.949 . S
C423 C422 1.428 . S
C423 C424 1.345 . S
C424 H416 0.950 . S
C424 C423 1.345 . S
C424 C425 1.424 . S
C425 H417 0.951 . S
C425 C424 1.424 . S
C425 C426 1.347 . S
C426 H418 0.951 . S
C426 C421 1.429 . S
C426 C425 1.347 . S
H427 C428 0.951 . S
C428 H427 0.951 . S
C428 C434 1.265 . S
H429 C434 0.950 . S
H430 C438 0.949 . S
H431 C439 0.950 . S
H432 C440 0.951 . S
H433 C441 0.951 . S
C434 C428 1.265 . S
C434 H429 0.950 . S
C434 C435 1.478 . S
C435 C422 1.394 . S
C435 C434 1.478 . S
C435 C436 1.397 . S
C436 C435 1.397 . S
C436 C437 1.438 . S
C436 C441 1.429 . S
C437 C420 1.394 . S
C437 C436 1.438 . S
C437 C438 1.428 . S
C438 H430 0.949 . S
C438 C437 1.428 . S
C438 C439 1.345 . S
C439 H431 0.950 . S
C439 C438 1.345 . S
C439 C440 1.424 . S
C440 H432 0.951 . S
C440 C439 1.424 . S
C440 C441 1.347 . S
C441 H433 0.951 . S
C441 C436 1.429 . S
C441 C440 1.347 . S
C98 C77 1.411 . S
C83 C21 1.422 . S
C113 C19 1.406 . S
C128 C68 1.394 . S
C143 C18 1.347 . S
C158 C80 1.378 . S
C173 C20 1.407 . S
C188 C71 1.382 . S
C203 C44 1.425 . S
C218 C59 1.418 . S
C233 C42 1.412 . S
C248 C50 1.398 . S
C278 C62 1.402 . S
C263 C41 1.374 . S
C308 C53 1.391 . S
C293 C43 1.377 . S
C323 C16 1.487 1_655 S
C338 C51 1.482 1_445 S
C353 C17 1.447 . S
C368 C60 1.456 . S
C398 C69 1.484 . S
C383 C39 1.487 . S
C413 C40 1.461 . S
C428 C78 1.453 . S
