# Generated by pormake.
# Topology apo, (3,6)-cn, num edge types: 1
# Building blocks:
#     Node 0, Type 0, BuildingBlock: BETDAH_clean_linker_0, # of connection points: 3
#     Node 1, Type 0, BuildingBlock: BETDAH_clean_linker_0, # of connection points: 3
#     Node 2, Type 0, BuildingBlock: BETDAH_clean_linker_0, # of connection points: 3
#     Node 3, Type 0, BuildingBlock: BETDAH_clean_linker_0, # of connection points: 3
#     Node 4, Type 0, BuildingBlock: BETDAH_clean_linker_0, # of connection points: 3
#     Node 5, Type 0, BuildingBlock: BETDAH_clean_linker_0, # of connection points: 3
#     Node 6, Type 0, BuildingBlock: BETDAH_clean_linker_0, # of connection points: 3
#     Node 7, Type 0, BuildingBlock: BETDAH_clean_linker_0, # of connection points: 3
#     Node 8, Type 1, BuildingBlock: MIDCAF_clean_sbu_0, # of connection points: 6
#     Node 9, Type 1, BuildingBlock: MIDCAF_clean_sbu_0, # of connection points: 6
#     Node 10, Type 1, BuildingBlock: MIDCAF_clean_sbu_0, # of connection points: 6
#     Node 11, Type 1, BuildingBlock: MIDCAF_clean_sbu_0, # of connection points: 6
#     Edge 12, Type (0, 1), BuildingBlock: EZIPEK_clean_linker_0, # of connection points: 2
#     Edge 13, Type (0, 1), BuildingBlock: EZIPEK_clean_linker_0, # of connection points: 2
#     Edge 14, Type (0, 1), BuildingBlock: EZIPEK_clean_linker_0, # of connection points: 2
#     Edge 15, Type (0, 1), BuildingBlock: EZIPEK_clean_linker_0, # of connection points: 2
#     Edge 16, Type (0, 1), BuildingBlock: EZIPEK_clean_linker_0, # of connection points: 2
#     Edge 17, Type (0, 1), BuildingBlock: EZIPEK_clean_linker_0, # of connection points: 2
#     Edge 18, Type (0, 1), BuildingBlock: EZIPEK_clean_linker_0, # of connection points: 2
#     Edge 19, Type (0, 1), BuildingBlock: EZIPEK_clean_linker_0, # of connection points: 2
#     Edge 20, Type (0, 1), BuildingBlock: EZIPEK_clean_linker_0, # of connection points: 2
#     Edge 21, Type (0, 1), BuildingBlock: EZIPEK_clean_linker_0, # of connection points: 2
#     Edge 22, Type (0, 1), BuildingBlock: EZIPEK_clean_linker_0, # of connection points: 2
#     Edge 23, Type (0, 1), BuildingBlock: EZIPEK_clean_linker_0, # of connection points: 2
#     Edge 24, Type (0, 1), BuildingBlock: EZIPEK_clean_linker_0, # of connection points: 2
#     Edge 25, Type (0, 1), BuildingBlock: EZIPEK_clean_linker_0, # of connection points: 2
#     Edge 26, Type (0, 1), BuildingBlock: EZIPEK_clean_linker_0, # of connection points: 2
#     Edge 27, Type (0, 1), BuildingBlock: EZIPEK_clean_linker_0, # of connection points: 2
#     Edge 28, Type (0, 1), BuildingBlock: EZIPEK_clean_linker_0, # of connection points: 2
#     Edge 29, Type (0, 1), BuildingBlock: EZIPEK_clean_linker_0, # of connection points: 2
#     Edge 30, Type (0, 1), BuildingBlock: EZIPEK_clean_linker_0, # of connection points: 2
#     Edge 31, Type (0, 1), BuildingBlock: EZIPEK_clean_linker_0, # of connection points: 2
#     Edge 32, Type (0, 1), BuildingBlock: EZIPEK_clean_linker_0, # of connection points: 2
#     Edge 33, Type (0, 1), BuildingBlock: EZIPEK_clean_linker_0, # of connection points: 2
#     Edge 34, Type (0, 1), BuildingBlock: EZIPEK_clean_linker_0, # of connection points: 2
#     Edge 35, Type (0, 1), BuildingBlock: EZIPEK_clean_linker_0, # of connection points: 2
# Relax obj value: 0.013
# Max RMSD: 0.063
# Mean RMSD: 0.050
data_MOF--net-apo--node1-MIDCAF_clean_sbu_0--node2-BETDAH_clean_linker_0--edge1-EZIPEK_clean_linker_0
_symmetry_space_group_name_H-M    P1
_symmetry_Int_Tables_number       1
_symmetry_cell_setting            triclinic
loop_
_symmetry_equiv_pos_as_xyz
'x, y, z'
_cell_length_a     26.702963
_cell_length_b     30.273301
_cell_length_c     24.706588
_cell_angle_alpha  88.606495
_cell_angle_beta   89.801773
_cell_angle_gamma 89.998577
loop_
_atom_site_label
_atom_site_type_symbol
_atom_site_fract_x
_atom_site_fract_y
_atom_site_fract_z
_atom_type_partial_charge
H0 H 0.4398 0.36783 0.48132 0.0
H1 H 0.33381 0.34013 0.35561 0.0
H2 H 0.34574 0.25314 0.49549 0.0
C3 C 0.41149 0.34659 0.46433 0.0
C4 C 0.39498 0.30953 0.49446 0.0
C5 C 0.38885 0.35865 0.41475 0.0
C6 C 0.35186 0.33091 0.39342 0.0
C7 C 0.33758 0.2919 0.4216 0.0
C8 C 0.35845 0.28202 0.47257 0.0
N9 N 0.30126 0.26246 0.40114 0.0
C10 C 0.27898 0.26548 0.3503 0.0
H11 H 0.13633 0.08778 0.9364 0.0
H12 H 0.1879 0.12335 0.77693 0.0
H13 H 0.19616 0.21813 0.90352 0.0
C14 C 0.15466 0.11149 0.90929 0.0
C15 C 0.16526 0.15431 0.92739 0.0
C16 C 0.16098 0.10069 0.85497 0.0
C17 C 0.18345 0.13127 0.81923 0.0
C18 C 0.1992 0.17252 0.83738 0.0
C19 C 0.18889 0.18464 0.89122 0.0
N20 N 0.21904 0.20311 0.79862 0.0
C21 C 0.26418 0.22521 0.80493 0.0
H22 H 0.94026 0.09841 0.60115 0.0
H23 H 0.89617 0.1648 0.74516 0.0
H24 H 0.92245 0.23985 0.59767 0.0
C25 C 0.92996 0.12876 0.62085 0.0
C26 C 0.93271 0.16923 0.59173 0.0
C27 C 0.91965 0.12722 0.67651 0.0
C28 C 0.90464 0.16585 0.70223 0.0
C29 C 0.90303 0.20622 0.67287 0.0
C30 C 0.91977 0.20811 0.61869 0.0
N31 N 0.88793 0.24582 0.69787 0.0
C32 C 0.84799 0.24826 0.7342 0.0
H33 H 0.61525 0.36832 0.1075 0.0
H34 H 0.62678 0.31989 0.27181 0.0
H35 H 0.70201 0.25145 0.14411 0.0
C36 C 0.63019 0.34457 0.13681 0.0
C37 C 0.6587 0.30881 0.11872 0.0
C38 C 0.61919 0.34936 0.19192 0.0
C39 C 0.63664 0.31747 0.22938 0.0
C40 C 0.66807 0.28322 0.21281 0.0
C41 C 0.67949 0.27897 0.15731 0.0
N42 N 0.68351 0.25111 0.25206 0.0
C43 C 0.73343 0.24298 0.26479 0.0
H44 H 0.60187 0.59933 0.56232 0.0
H45 H 0.66928 0.65766 0.70154 0.0
H46 H 0.65782 0.73248 0.55166 0.0
C47 C 0.62009 0.62716 0.58085 0.0
C48 C 0.62797 0.66632 0.55035 0.0
C49 C 0.63531 0.62369 0.63522 0.0
C50 C 0.65838 0.65996 0.65937 0.0
C51 C 0.66657 0.69923 0.62911 0.0
C52 C 0.65162 0.70207 0.57478 0.0
N53 N 0.68768 0.73721 0.6525 0.0
C54 C 0.72185 0.73637 0.69484 0.0
H55 H 0.90825 0.88808 0.06878 0.0
H56 H 0.79102 0.79367 0.10401 0.0
H57 H 0.82436 0.89606 0.21656 0.0
C58 C 0.87966 0.8749 0.09601 0.0
C59 C 0.86963 0.89654 0.14427 0.0
C60 C 0.8506 0.8388 0.08023 0.0
C61 C 0.81337 0.82169 0.11575 0.0
C62 C 0.80525 0.84172 0.16621 0.0
C63 C 0.83255 0.87952 0.17911 0.0
N64 N 0.76989 0.82612 0.20535 0.0
C65 C 0.73652 0.79125 0.20038 0.0
H66 H 0.09818 0.88193 0.43643 0.0
H67 H 0.12945 0.82137 0.2838 0.0
H68 H 0.14152 0.74539 0.43243 0.0
C69 C 0.1102 0.85364 0.41361 0.0
C70 C 0.11896 0.81333 0.44115 0.0
C71 C 0.11327 0.85707 0.3567 0.0
C72 C 0.12821 0.81979 0.32765 0.0
C73 C 0.14024 0.78002 0.35511 0.0
C74 C 0.13484 0.77676 0.41164 0.0
N75 N 0.15245 0.74161 0.32613 0.0
C76 C 0.19319 0.73909 0.29102 0.0
H77 H 0.43091 0.60801 0.92877 0.0
H78 H 0.32959 0.71579 0.89505 0.0
H79 H 0.40219 0.64897 0.76419 0.0
C80 C 0.41266 0.63029 0.89996 0.0
C81 C 0.42002 0.62453 0.84448 0.0
C82 C 0.38071 0.66343 0.91872 0.0
C83 C 0.35506 0.69064 0.88102 0.0
C84 C 0.36311 0.6855 0.82505 0.0
C85 C 0.39672 0.65337 0.80722 0.0
N86 N 0.33791 0.71203 0.78574 0.0
C87 C 0.28627 0.7179 0.78571 0.0
Zn88 Zn 0.09923 0.11837 0.31518 0.0
Zn89 Zn 0.97503 0.15927 0.18247 0.0
Zn90 Zn 0.03125 0.13147 0.25157 0.0
C91 C 0.06154 0.17665 0.13215 0.0
C92 C 0.9647 0.06499 0.18996 0.0
O93 O 0.99882 0.1543 0.32998 0.0
O94 O 0.06666 0.14371 0.3789 0.0
C95 C 0.14416 0.17668 0.25246 0.0
O96 O 0.07517 0.1611 0.17912 0.0
O97 O 0.01577 0.18395 0.12376 0.0
O98 O 0.94349 0.0995 0.17147 0.0
O99 O 1.00343 0.06869 0.22051 0.0
O100 O 0.15677 0.1512 0.29093 0.0
O101 O 0.10012 0.17314 0.23118 0.0
O102 O 0.04109 0.05777 0.26108 0.0
O103 O 0.10611 0.05427 0.31618 0.0
C104 C 0.07355 0.03504 0.28861 0.0
O105 O 0.96372 0.16694 0.28691 0.0
O106 O 0.93131 0.2012 0.21536 0.0
C107 C 0.02107 0.15439 0.37626 0.0
C108 C 0.93037 0.19297 0.26544 0.0
Zn109 Zn 0.60385 0.35875 0.69951 0.0
Zn110 Zn 0.50834 0.37494 0.88085 0.0
Zn111 Zn 0.55705 0.36426 0.79061 0.0
C112 C 0.51309 0.45763 0.83252 0.0
C113 C 0.44957 0.31932 0.81993 0.0
O114 O 0.62916 0.32891 0.8078 0.0
O115 O 0.65699 0.31865 0.72444 0.0
C116 C 0.601 0.44735 0.71765 0.0
O117 O 0.53994 0.43557 0.79916 0.0
O118 O 0.49338 0.43862 0.87323 0.0
O119 O 0.45192 0.33461 0.86689 0.0
O120 O 0.48463 0.3277 0.78502 0.0
O121 O 0.62229 0.42132 0.68583 0.0
O122 O 0.57395 0.432 0.75724 0.0
O123 O 0.50684 0.32891 0.73329 0.0
O124 O 0.54896 0.33508 0.65618 0.0
C125 C 0.50985 0.32374 0.68161 0.0
O126 O 0.60471 0.33578 0.85846 0.0
O127 O 0.56111 0.35476 0.93078 0.0
C128 C 0.66176 0.31292 0.77485 0.0
C129 C 0.59944 0.33726 0.91045 0.0
Zn130 Zn 0.05034 0.84707 0.85726 0.0
Zn131 Zn 0.9528 0.86705 0.69321 0.0
Zn132 Zn 1.00414 0.85386 0.77163 0.0
C133 C 0.95964 0.94822 0.73183 0.0
C134 C 0.89828 0.80782 0.75045 0.0
O135 O 0.06751 0.80684 0.75351 0.0
O136 O 0.0867 0.79324 0.83882 0.0
C137 C 0.07068 0.93104 0.82361 0.0
O138 O 0.99466 0.92685 0.75724 0.0
O139 O 0.92887 0.92754 0.7034 0.0
O140 O 0.9034 0.81951 0.70151 0.0
O141 O 0.92976 0.82118 0.78607 0.0
O142 O 0.08907 0.90286 0.85625 0.0
O143 O 0.03476 0.91997 0.79181 0.0
O144 O 0.95118 0.82773 0.83629 0.0
O145 O 0.99532 0.84026 0.90994 0.0
C146 C 0.95475 0.82883 0.88846 0.0
O147 O 0.0446 0.82347 0.70219 0.0
O148 O 1.00378 0.85967 0.63726 0.0
C149 C 0.09176 0.78384 0.78963 0.0
C150 C 0.03957 0.8351 0.65175 0.0
Zn151 Zn 0.52753 0.59732 0.15803 0.0
Zn152 Zn 0.42998 0.6207 0.32675 0.0
Zn153 Zn 0.47923 0.61013 0.24617 0.0
C154 C 0.52412 0.64811 0.35438 0.0
C155 C 0.4287 0.53217 0.31839 0.0
O156 O 0.43157 0.63544 0.17786 0.0
O157 O 0.47356 0.61192 0.10667 0.0
C158 C 0.58109 0.66103 0.21245 0.0
O159 O 0.5291 0.64622 0.30251 0.0
O160 O 0.48392 0.63561 0.37671 0.0
O161 O 0.40068 0.56139 0.33775 0.0
O162 O 0.46376 0.54362 0.28474 0.0
O163 O 0.57946 0.64285 0.16713 0.0
O164 O 0.5484 0.65139 0.24953 0.0
O165 O 0.49703 0.53813 0.24102 0.0
O166 O 0.54646 0.53511 0.16902 0.0
C167 C 0.52573 0.51621 0.20918 0.0
O168 O 0.40691 0.6463 0.22613 0.0
O169 O 0.38355 0.66791 0.30711 0.0
C170 C 0.43586 0.63094 0.12622 0.0
C171 C 0.37713 0.66851 0.25667 0.0
C172 C 0.12956 0.92227 0.29142 0.0
C173 C 0.09738 0.89922 0.3285 0.0
C174 C 0.04341 0.96444 0.33216 0.0
C175 C 0.07329 0.9862 0.2923 0.0
N176 N 0.13738 0.98178 0.22417 0.0
N177 N 0.01433 0.89397 0.36755 0.0
C178 C 0.11344 0.96331 0.26807 0.0
C179 C 0.05103 0.9188 0.34311 0.0
N180 N 0.17703 0.90742 0.28201 0.0
N181 N 0.01059 0.98777 0.36287 0.0
H182 H 0.01763 0.85987 0.37371 0.0
H183 H 0.97883 0.90654 0.37584 0.0
H184 H 1.00449 0.02159 0.35699 0.0
H185 H 0.99213 0.9739 0.39644 0.0
H186 H 0.20331 0.9254 0.25932 0.0
H187 H 0.19211 0.87962 0.30147 0.0
H188 H 0.16446 0.9651 0.20209 0.0
H189 H 0.12625 0.01204 0.20691 0.0
C190 C 0.42054 0.5478 0.80836 0.0
C191 C 0.44775 0.58494 0.82639 0.0
C192 C 0.52417 0.54009 0.83355 0.0
C193 C 0.49599 0.50285 0.81851 0.0
N194 N 0.42402 0.47373 0.77343 0.0
N195 N 0.52708 0.61997 0.84219 0.0
C196 C 0.44638 0.50776 0.79952 0.0
C197 C 0.50037 0.58224 0.83412 0.0
N198 N 0.36956 0.54965 0.80357 0.0
N199 N 0.57281 0.53464 0.84925 0.0
H200 H 0.5102 0.65107 0.84252 0.0
H201 H 0.56599 0.62102 0.8441 0.0
H202 H 0.59124 0.50435 0.84668 0.0
H203 H 0.59428 0.55941 0.86618 0.0
H204 H 0.34737 0.52199 0.79711 0.0
H205 H 0.34867 0.57812 0.80997 0.0
H206 H 0.38948 0.47648 0.7542 0.0
H207 H 0.4427 0.44418 0.76608 0.0
C208 C 0.66731 0.55388 0.68109 0.0
C209 C 0.62647 0.58167 0.66642 0.0
C210 C 0.56735 0.52287 0.69248 0.0
C211 C 0.60813 0.4955 0.70826 0.0
N212 N 0.69519 0.48913 0.73227 0.0
N213 N 0.53822 0.59743 0.67334 0.0
C214 C 0.65759 0.51253 0.70748 0.0
C215 C 0.57661 0.56772 0.67729 0.0
N216 N 0.71513 0.56566 0.66708 0.0
N217 N 0.52036 0.50548 0.68826 0.0
H218 H 0.54394 0.63062 0.66264 0.0
H219 H 0.5018 0.59018 0.68599 0.0
H220 H 0.51211 0.47255 0.69782 0.0
H221 H 0.49032 0.52285 0.67139 0.0
H222 H 0.74561 0.54441 0.6714 0.0
H223 H 0.72401 0.59532 0.647 0.0
H224 H 0.73115 0.50164 0.73743 0.0
H225 H 0.68895 0.45897 0.75258 0.0
C226 C 0.91945 0.94554 0.20602 0.0
C227 C 0.89503 0.93923 0.15592 0.0
C228 C 0.92326 0.0126 0.1252 0.0
C229 C 0.94229 0.02104 0.17777 0.0
N230 N 0.93819 -0.00023 0.27251 0.0
N231 N 0.86052 0.97373 0.07491 0.0
C232 C 0.93509 0.98865 0.21954 0.0
C233 C 0.89313 0.97474 0.1174 0.0
N234 N 0.92854 0.91064 0.24057 0.0
N235 N 0.93427 0.04 0.08218 0.0
H236 H 0.83488 0.94823 0.06972 0.0
H237 H 0.85471 0.00074 0.0487 0.0
H238 H 0.95649 0.06786 0.08532 0.0
H239 H 0.92536 0.03243 0.0424 0.0
H240 H 0.94956 0.91386 0.27574 0.0
H241 H 0.9197 0.87815 0.23124 0.0
H242 H 0.92736 0.97807 0.30383 0.0
H243 H 0.94471 0.03203 0.28454 0.0
C244 C 0.89264 0.05718 0.72635 0.0
C245 C 0.93126 0.08569 0.7075 0.0
C246 C 0.99255 0.02583 0.71649 0.0
C247 C 0.95379 0.99688 0.73434 0.0
N248 N 0.87163 0.98858 0.77391 0.0
N249 N 0.01946 0.10193 0.70517 0.0
C250 C 0.90535 0.01395 0.74541 0.0
C251 C 0.98184 0.07154 0.70982 0.0
N252 N 0.84381 0.07032 0.72315 0.0
N253 N 0.03832 0.00969 0.70198 0.0
H254 H 0.01223 0.13579 0.70214 0.0
H255 H 0.05712 0.094 0.71049 0.0
H256 H 0.04768 0.97635 0.70485 0.0
H257 H 0.06585 0.02911 0.68321 0.0
H258 H 0.81375 0.04907 0.73061 0.0
H259 H 0.8333 0.10184 0.70962 0.0
H260 H 0.83712 0.0004 0.78699 0.0
H261 H 0.88055 0.95712 0.78924 0.0
C262 C 0.5402 0.39403 0.18537 0.0
C263 C 0.58807 0.38763 0.20907 0.0
C264 C 0.57935 0.45898 0.25326 0.0
C265 C 0.53802 0.46915 0.21954 0.0
N266 N 0.48056 0.44745 0.15005 0.0
N267 N 0.65574 0.41664 0.26273 0.0
C268 C 0.51833 0.43675 0.18513 0.0
C269 C 0.608 0.42036 0.24336 0.0
N270 N 0.51583 0.3593 0.16301 0.0
N271 N 0.5923 0.48714 0.29323 0.0
H272 H 0.67916 0.39009 0.25466 0.0
H273 H 0.67382 0.44188 0.28288 0.0
H274 H 0.5721 0.51588 0.30069 0.0
H275 H 0.61959 0.47974 0.3221 0.0
H276 H 0.47907 0.36131 0.14913 0.0
H277 H 0.5306 0.32736 0.16372 0.0
H278 H 0.46875 0.42666 0.11961 0.0
H279 H 0.4629 0.47821 0.14967 0.0
C280 C 0.41439 0.40642 0.33276 0.0
C281 C 0.40076 0.40251 0.38844 0.0
C282 C 0.41922 0.48092 0.39818 0.0
C283 C 0.424 0.48645 0.34124 0.0
N284 N 0.41394 0.45474 0.25334 0.0
N285 N 0.37532 0.44097 0.46896 0.0
C286 C 0.41849 0.44926 0.308 0.0
C287 C 0.39893 0.44118 0.41981 0.0
N288 N 0.42492 0.36972 0.30381 0.0
N289 N 0.43473 0.51325 0.43193 0.0
H290 H 0.3555 0.41376 0.48434 0.0
H291 H 0.37008 0.46958 0.49098 0.0
H292 H 0.45261 0.54198 0.41788 0.0
H293 H 0.4352 0.50889 0.47394 0.0
H294 H 0.43898 0.37153 0.26438 0.0
H295 H 0.42474 0.33794 0.32106 0.0
H296 H 0.40472 0.4288 0.22821 0.0
H297 H 0.41429 0.48577 0.23411 0.0
C298 C 0.16826 0.02187 0.82454 0.0
C299 C 0.13816 0.05917 0.83527 0.0
C300 C 0.06259 0.01335 0.83385 0.0
C301 C 0.09238 0.97613 0.82171 0.0
N302 N 0.17141 0.94747 0.79048 0.0
N303 N 0.05673 0.09313 0.83076 0.0
C304 C 0.14464 0.98123 0.81222 0.0
C305 C 0.08522 0.05575 0.83363 0.0
N306 N 0.21918 0.02474 0.82822 0.0
N307 N 0.01351 0.00818 0.84846 0.0
H308 H 0.07277 0.12442 0.82629 0.0
H309 H 0.01799 0.09275 0.82587 0.0
H310 H 0.99569 0.97754 0.85034 0.0
H311 H 0.99164 0.03387 0.86293 0.0
H312 H 0.24275 0.99737 0.82697 0.0
H313 H 0.23771 0.05422 0.83605 0.0
H314 H 0.2086 0.95062 0.77812 0.0
H315 H 0.15496 0.91768 0.77971 0.0
C316 C 0.08992 0.15688 0.98644 0.0
C317 C 0.14097 0.16787 0.97949 0.0
C318 C 0.14055 0.19278 0.07389 0.0
C319 C 0.09325 0.17219 0.08239 0.0
N320 N 0.03395 0.11967 0.0478 0.0
N321 N 0.21752 0.193 0.02077 0.0
C322 C 0.0713 0.14966 0.03891 0.0
C323 C 0.16739 0.18509 0.02443 0.0
N324 N 0.05898 0.15348 0.94298 0.0
N325 N 0.15855 0.22099 0.11116 0.0
H326 H 0.23803 0.18718 0.98567 0.0
H327 H 0.23893 0.20206 0.05391 0.0
H328 H 0.13741 0.22931 0.14492 0.0
H329 H 0.19131 0.23924 0.10534 0.0
H330 H 0.02075 0.14697 0.94711 0.0
H331 H 0.07061 0.16307 0.90412 0.0
H332 H 0.01909 0.10086 0.01685 0.0
H333 H 0.02354 0.10961 0.08688 0.0
C334 C 0.45222 0.27181 0.5625 0.0
C335 C 0.41344 0.30256 0.55095 0.0
C336 C 0.42567 0.33667 0.63903 0.0
C337 C 0.46719 0.30829 0.64858 0.0
N338 N 0.50912 0.24033 0.62983 0.0
N339 N 0.35215 0.35337 0.58459 0.0
C340 C 0.47634 0.27265 0.61378 0.0
C341 C 0.39628 0.33118 0.59169 0.0
N342 N 0.46791 0.24375 0.52343 0.0
N343 N 0.41673 0.37098 0.67263 0.0
H344 H 0.32999 0.34972 0.55027 0.0
H345 H 0.33524 0.37183 0.6146 0.0
H346 H 0.4365 0.37543 0.70829 0.0
H347 H 0.39129 0.39623 0.66399 0.0
H348 H 0.49968 0.22398 0.52708 0.0
H349 H 0.45035 0.24181 0.48592 0.0
H350 H 0.51517 0.21155 0.60853 0.0
H351 H 0.52665 0.24074 0.66755 0.0
C352 C 0.63305 0.27194 0.03209 0.0
C353 C 0.6633 0.30337 0.05873 0.0
C354 C 0.67077 0.34704 0.97404 0.0
C355 C 0.63629 0.31829 0.94944 0.0
N356 N 0.59955 0.24637 0.9467 0.0
N357 N 0.72455 0.36122 0.05105 0.0
C358 C 0.62331 0.2779 0.97566 0.0
C359 C 0.68734 0.33737 0.02783 0.0
N360 N 0.61022 0.23874 0.06131 0.0
N361 N 0.68428 0.38528 0.94747 0.0
H362 H 0.7367 0.35435 0.09051 0.0
H363 H 0.74608 0.38465 0.03001 0.0
H364 H 0.67283 0.39245 0.90788 0.0
H365 H 0.70477 0.41036 0.9651 0.0
H366 H 0.58298 0.21817 0.04548 0.0
H367 H 0.61678 0.23292 0.10239 0.0
H368 H 0.59187 0.21468 0.96184 0.0
H369 H 0.59202 0.25106 0.90549 0.0
C370 C 0.93223 0.19195 0.49021 0.0
C371 C 0.95492 0.16982 0.53554 0.0
C372 C 0.00979 0.13162 0.47334 0.0
C373 C 0.99409 0.15907 0.42914 0.0
N374 N 0.948 0.22418 0.40092 0.0
N375 N 0.02998 0.13298 0.56771 0.0
C376 C 0.95726 0.19185 0.43883 0.0
C377 C 0.99841 0.14424 0.52634 0.0
N378 N 0.88648 0.21147 0.49505 0.0
N379 N 0.03397 0.09256 0.46527 0.0
H380 H 0.02584 0.14572 0.60628 0.0
H381 H 0.06347 0.11605 0.56143 0.0
H382 H 0.0384 0.07917 0.42703 0.0
H383 H 0.04331 0.07098 0.49727 0.0
H384 H 0.86725 0.22483 0.46183 0.0
H385 H 0.8657 0.21009 0.53082 0.0
H386 H 0.92393 0.25057 0.40796 0.0
H387 H 0.96879 0.22713 0.36527 0.0
C388 C 0.89114 0.7873 1.0144 0.0
C389 C 0.85843 0.82313 0.02398 0.0
C390 C 0.87593 0.85427 0.93345 0.0
C391 C 0.91157 0.82032 0.92527 0.0
N392 N 0.94206 0.74795 0.9493 0.0
N393 N 0.80595 0.88056 0.98687 0.0
C394 C 0.91487 0.78426 0.9628 0.0
C395 C 0.84563 0.85267 0.98089 0.0
N396 N 0.90208 0.75814 0.05569 0.0
N397 N 0.87451 0.89019 0.89894 0.0
H398 H 0.78387 0.87989 0.02186 0.0
H399 H 0.79227 0.90083 0.95562 0.0
H400 H 0.89695 0.89296 0.86441 0.0
H401 H 0.85348 0.91841 0.90631 0.0
H402 H 0.93003 0.73428 0.05356 0.0
H403 H 0.88399 0.75905 0.09315 0.0
H404 H 0.94351 0.71908 0.97302 0.0
H405 H 0.95953 0.74559 0.91158 0.0
C406 C 0.63037 0.64055 0.4541 0.0
C407 C 0.6104 0.66966 0.49298 0.0
C408 C 0.55251 0.69904 0.42423 0.0
C409 C 0.56427 0.6633 0.39072 0.0
N410 N 0.61445 0.59916 0.37308 0.0
N411 N 0.5491 0.72518 0.51581 0.0
C412 C 0.60412 0.63437 0.40477 0.0
C413 C 0.57126 0.69933 0.47797 0.0
N414 N 0.67427 0.61885 0.4645 0.0
N415 N 0.52182 0.7318 0.40486 0.0
H416 H 0.55986 0.72517 0.55629 0.0
H417 H 0.517 0.74381 0.50817 0.0
H418 H 0.50775 0.73165 0.36545 0.0
H419 H 0.51479 0.76077 0.42548 0.0
H420 H 0.69286 0.6001 0.4359 0.0
H421 H 0.69453 0.62317 0.50003 0.0
H422 H 0.63881 0.57377 0.38455 0.0
H423 H 0.59645 0.59422 0.33634 0.0
C424 C 0.40167 0.69896 1.00707 0.0
C425 C 0.37412 0.667 0.97841 0.0
C426 C 0.36665 0.6207 0.06066 0.0
C427 C 0.39942 0.6498 0.0871 0.0
N428 N 0.433 0.72275 0.09419 0.0
N429 N 0.31571 0.60672 0.98142 0.0
C430 C 0.411 0.69148 0.06328 0.0
C431 C 0.35101 0.63125 1.00691 0.0
N432 N 0.4221 0.73437 0.97976 0.0
N433 N 0.35394 0.58153 0.08559 0.0
H434 H 0.30425 0.61432 0.94189 0.0
H435 H 0.29494 0.58178 1.00062 0.0
H436 H 0.36455 0.57384 0.12535 0.0
H437 H 0.33475 0.55633 0.06662 0.0
H438 H 0.4474 0.7561 0.99688 0.0
H439 H 0.41505 0.74112 0.93893 0.0
H440 H 0.43985 0.75504 0.08072 0.0
H441 H 0.44011 0.71704 0.13532 0.0
C442 C 0.13507 0.83351 0.53811 0.0
C443 C 0.10676 0.80928 0.50025 0.0
C444 C 0.04882 0.78661 0.57312 0.0
C445 C 0.07097 0.81779 0.60736 0.0
N446 N 0.13619 0.87007 0.6248 0.0
N447 N 0.03385 0.76491 0.48105 0.0
C448 C 0.11499 0.84051 0.59084 0.0
C449 C 0.06341 0.78555 0.51778 0.0
N450 N 0.18102 0.84968 0.5234 0.0
N451 N 0.01296 0.75866 0.59366 0.0
H452 H 0.04204 0.76409 0.43985 0.0
H453 H 0.99888 0.75161 0.49064 0.0
H454 H 1.00184 0.75913 0.63422 0.0
H455 H 0.99828 0.7324 0.57235 0.0
H456 H 0.20543 0.86456 0.55019 0.0
H457 H 0.19652 0.84467 0.4852 0.0
H458 H 0.16488 0.89164 0.61331 0.0
H459 H 0.12346 0.87395 0.66441 0.0
C460 C 0.2004 0.27624 0.29885 0.0
C461 C 0.24965 0.25909 0.30161 0.0
C462 C 0.22916 0.20441 0.23411 0.0
C463 C 0.17803 0.21461 0.24179 0.0
N464 N 0.11697 0.27027 0.25967 0.0
N465 N 0.31575 0.21804 0.26026 0.0
C466 C 0.16458 0.25474 0.26598 0.0
C467 C 0.26587 0.22737 0.26427 0.0
N468 N 0.18762 0.311 0.33029 0.0
N469 N 0.24113 0.17027 0.20144 0.0
H470 H 0.3425 0.23529 0.28213 0.0
H471 H 0.33086 0.19528 0.23391 0.0
H472 H 0.21348 0.15403 0.17962 0.0
H473 H 0.27726 0.15859 0.19527 0.0
H474 H 0.15133 0.32298 0.33432 0.0
H475 H 0.21422 0.32769 0.353 0.0
H476 H 0.10431 0.30005 0.2748 0.0
H477 H 0.09127 0.25447 0.23497 0.0
C478 C 0.3113 0.29534 0.81183 0.0
C479 C 0.31149 0.24909 0.80457 0.0
C480 C 0.4034 0.24936 0.79815 0.0
C481 C 0.40307 0.2957 0.80524 0.0
N482 N 0.35745 0.36429 0.8051 0.0
N483 N 0.3556 0.18292 0.78041 0.0
C484 C 0.3571 0.31912 0.80775 0.0
C485 C 0.35695 0.22635 0.79431 0.0
N486 N 0.26752 0.31637 0.82418 0.0
N487 N 0.44797 0.22717 0.79767 0.0
H488 H 0.32238 0.16484 0.77876 0.0
H489 H 0.38672 0.1656 0.76692 0.0
H490 H 0.48251 0.24321 0.7987 0.0
H491 H 0.45089 0.19288 0.79906 0.0
H492 H 0.2657 0.34911 0.83597 0.0
H493 H 0.23306 0.30016 0.82644 0.0
H494 H 0.32528 0.38351 0.80124 0.0
H495 H 0.39046 0.38256 0.80154 0.0
C496 C 0.76101 0.22946 0.76352 0.0
C497 C 0.80321 0.25772 0.76585 0.0
C498 C 0.75123 0.31687 0.80183 0.0
C499 C 0.70825 0.29058 0.79306 0.0
N500 N 0.67224 0.21888 0.7835 0.0
N501 N 0.8422 0.32136 0.80388 0.0
C502 C 0.71349 0.24547 0.78065 0.0
C503 C 0.79953 0.29901 0.79127 0.0
N504 N 0.76604 0.18848 0.74226 0.0
N505 N 0.74538 0.35997 0.81564 0.0
H506 H 0.87779 0.30861 0.79621 0.0
H507 H 0.8425 0.35019 0.82599 0.0
H508 H 0.71033 0.37333 0.82423 0.0
H509 H 0.77453 0.38275 0.81653 0.0
H510 H 0.73612 0.16768 0.73414 0.0
H511 H 0.8008 0.17575 0.73131 0.0
H512 H 0.6731 0.18492 0.77797 0.0
H513 H 0.63752 0.2309 0.79609 0.0
C514 C 0.79701 0.18906 0.29884 0.0
C515 C 0.78437 0.23282 0.282 0.0
C516 C 0.8726 0.25437 0.28535 0.0
C517 C 0.8856 0.2094 0.29449 0.0
N518 N 0.86178 0.13851 0.33148 0.0
N519 N 0.80689 0.30973 0.27505 0.0
C520 C 0.84813 0.17832 0.30902 0.0
C521 C 0.82119 0.26652 0.28098 0.0
N522 N 0.76048 0.15749 0.30277 0.0
N523 N 0.91009 0.28454 0.27738 0.0
H524 H 0.76943 0.31918 0.27133 0.0
H525 H 0.83134 0.33634 0.27738 0.0
H526 H 0.94768 0.27593 0.28268 0.0
H527 H 0.90449 0.31721 0.26484 0.0
H528 H 0.76769 0.12397 0.30896 0.0
H529 H 0.72258 0.1647 0.29743 0.0
H530 H 0.83641 0.11503 0.34623 0.0
H531 H 0.89896 0.13105 0.34061 0.0
C532 C 0.8068 0.71895 0.72928 0.0
C533 C 0.76256 0.7445 0.73209 0.0
C534 C 0.80787 0.8045 0.77426 0.0
C535 C 0.85322 0.78166 0.76458 0.0
N536 N 0.89582 0.71334 0.7501 0.0
N537 N 0.71677 0.80267 0.7741 0.0
C538 C 0.85238 0.73709 0.74866 0.0
C539 C 0.76171 0.7841 0.76113 0.0
N540 N 0.80541 0.67879 0.70532 0.0
N541 N 0.80946 0.84709 0.79109 0.0
H542 H 0.68279 0.78782 0.76428 0.0
H543 H 0.71314 0.83007 0.79846 0.0
H544 H 0.84306 0.86254 0.80055 0.0
H545 H 0.77826 0.86758 0.79332 0.0
H546 H 0.83699 0.65998 0.69699 0.0
H547 H 0.77184 0.66463 0.69285 0.0
H548 H 0.89819 0.67994 0.74145 0.0
H549 H 0.92913 0.7269 0.76432 0.0
C550 C 0.64892 0.7682 0.18441 0.0
C551 C 0.69718 0.75812 0.20499 0.0
C552 C 0.66743 0.68553 0.23789 0.0
C553 C 0.61874 0.69632 0.21906 0.0
N554 N 0.56028 0.75012 0.18379 0.0
N555 N 0.75115 0.71111 0.25913 0.0
C556 C 0.60864 0.7385 0.19537 0.0
C557 C 0.70605 0.71796 0.23426 0.0
N558 N 0.64198 0.80559 0.15313 0.0
N559 N 0.67713 0.64371 0.25716 0.0
H560 H 0.78082 0.73345 0.25567 0.0
H561 H 0.75816 0.68483 0.286 0.0
H562 H 0.64932 0.61967 0.26147 0.0
H563 H 0.71292 0.63201 0.26591 0.0
H564 H 0.60911 0.81262 0.13211 0.0
H565 H 0.6706 0.82823 0.14469 0.0
H566 H 0.54949 0.78171 0.17103 0.0
H567 H 0.53003 0.72903 0.19158 0.0
C568 C 0.28139 0.7553 0.26452 0.0
C569 C 0.23819 0.72855 0.26038 0.0
C570 C 0.28849 0.66802 0.22494 0.0
C571 C 0.33231 0.69248 0.23633 0.0
N572 N 0.37108 0.76286 0.2479 0.0
N573 N 0.19745 0.66694 0.21972 0.0
C574 C 0.32864 0.73772 0.24898 0.0
C575 C 0.24074 0.68749 0.23425 0.0
N576 N 0.27741 0.79631 0.286 0.0
N577 N 0.29273 0.62513 0.20972 0.0
H578 H 0.1623 0.68095 0.22644 0.0
H579 H 0.19636 0.63842 0.19709 0.0
H580 H 0.32726 0.61076 0.20132 0.0
H581 H 0.26262 0.60351 0.20695 0.0
H582 H 0.30793 0.81603 0.29538 0.0
H583 H 0.24284 0.81015 0.29577 0.0
H584 H 0.37153 0.79677 0.25381 0.0
H585 H 0.4056 0.7497 0.23642 0.0
C586 C 0.19974 0.70916 0.82219 0.0
C587 C 0.23253 0.72424 0.78039 0.0
C588 C 0.16097 0.75431 0.73017 0.0
C589 C 0.13172 0.75054 0.77746 0.0
N590 N 0.11401 0.70548 0.85638 0.0
N591 N 0.24421 0.75804 0.69157 0.0
C592 C 0.14833 0.72173 0.81992 0.0
C593 C 0.21307 0.74548 0.73312 0.0
N594 N 0.21809 0.6841 0.86438 0.0
N595 N 0.13786 0.76076 0.68183 0.0
H596 H 0.28241 0.75075 0.69137 0.0
H597 H 0.23234 0.77775 0.65887 0.0
H598 H 0.09905 0.75798 0.67956 0.0
H599 H 0.15663 0.76037 0.64479 0.0
H600 H 0.19779 0.67557 0.89907 0.0
H601 H 0.25458 0.67189 0.86479 0.0
H602 H 0.12209 0.6829 0.8875 0.0
H603 H 0.0758 0.71207 0.85209 0.0
loop_
_geom_bond_atom_site_label_1
_geom_bond_atom_site_label_2
_geom_bond_distance
_geom_bond_site_symmetry_2
_ccdc_geom_bond_type
H0 C3 0.929 . S
H1 C6 0.929 . S
H2 C8 0.930 . S
C3 H0 0.929 . S
C3 C4 1.398 . S
C3 C5 1.396 . S
C4 C3 1.398 . S
C4 C8 1.407 . S
C5 C3 1.396 . S
C5 C6 1.394 . S
C6 H1 0.929 . S
C6 C5 1.394 . S
C6 C7 1.382 . S
C7 C6 1.382 . S
C7 C8 1.392 . S
C7 N9 1.420 . S
C8 H2 0.930 . S
C8 C4 1.407 . S
C8 C7 1.392 . S
N9 C7 1.420 . S
N9 C10 1.244 . S
C10 N9 1.244 . S
H11 C14 0.929 . S
H12 C17 0.929 . S
H13 C19 0.930 . S
C14 H11 0.929 . S
C14 C15 1.398 . S
C14 C16 1.396 . S
C15 C14 1.398 . S
C15 C19 1.407 . S
C16 C14 1.396 . S
C16 C17 1.394 . S
C17 H12 0.929 . S
C17 C16 1.394 . S
C17 C18 1.382 . S
C18 C17 1.382 . S
C18 C19 1.392 . S
C18 N20 1.420 . S
C19 H13 0.930 . S
C19 C15 1.407 . S
C19 C18 1.392 . S
N20 C18 1.420 . S
N20 C21 1.244 . S
C21 N20 1.244 . S
H22 C25 0.929 . S
H23 C28 0.929 . S
H24 C30 0.930 . S
C25 H22 0.929 . S
C25 C26 1.398 . S
C25 C27 1.396 . S
C26 C25 1.398 . S
C26 C30 1.407 . S
C27 C25 1.396 . S
C27 C28 1.394 . S
C28 H23 0.929 . S
C28 C27 1.394 . S
C28 C29 1.382 . S
C29 C28 1.382 . S
C29 C30 1.392 . S
C29 N31 1.420 . S
C30 H24 0.930 . S
C30 C26 1.407 . S
C30 C29 1.392 . S
N31 C29 1.420 . S
N31 C32 1.244 . S
C32 N31 1.244 . S
H33 C36 0.929 . S
H34 C39 0.929 . S
H35 C41 0.930 . S
C36 H33 0.929 . S
C36 C37 1.398 . S
C36 C38 1.396 . S
C37 C36 1.398 . S
C37 C41 1.407 . S
C38 C36 1.396 . S
C38 C39 1.394 . S
C39 H34 0.929 . S
C39 C38 1.394 . S
C39 C40 1.382 . S
C40 C39 1.382 . S
C40 C41 1.392 . S
C40 N42 1.420 . S
C41 H35 0.930 . S
C41 C37 1.407 . S
C41 C40 1.392 . S
N42 C40 1.420 . S
N42 C43 1.244 . S
C43 N42 1.244 . S
H44 C47 0.929 . S
H45 C50 0.929 . S
H46 C52 0.930 . S
C47 H44 0.929 . S
C47 C48 1.398 . S
C47 C49 1.396 . S
C48 C47 1.398 . S
C48 C52 1.407 . S
C49 C47 1.396 . S
C49 C50 1.394 . S
C50 H45 0.929 . S
C50 C49 1.394 . S
C50 C51 1.382 . S
C51 C50 1.382 . S
C51 C52 1.392 . S
C51 N53 1.420 . S
C52 H46 0.930 . S
C52 C48 1.407 . S
C52 C51 1.392 . S
N53 C51 1.420 . S
N53 C54 1.244 . S
C54 N53 1.244 . S
H55 C58 0.929 . S
H56 C61 0.929 . S
H57 C63 0.930 . S
C58 H55 0.929 . S
C58 C59 1.398 . S
C58 C60 1.396 . S
C59 C58 1.398 . S
C59 C63 1.407 . S
C60 C58 1.396 . S
C60 C61 1.394 . S
C61 H56 0.929 . S
C61 C60 1.394 . S
C61 C62 1.382 . S
C62 C61 1.382 . S
C62 C63 1.392 . S
C62 N64 1.420 . S
C63 H57 0.930 . S
C63 C59 1.407 . S
C63 C62 1.392 . S
N64 C62 1.420 . S
N64 C65 1.244 . S
C65 N64 1.244 . S
H66 C69 0.929 . S
H67 C72 0.929 . S
H68 C74 0.930 . S
C69 H66 0.929 . S
C69 C70 1.398 . S
C69 C71 1.396 . S
C70 C69 1.398 . S
C70 C74 1.407 . S
C71 C69 1.396 . S
C71 C72 1.394 . S
C72 H67 0.929 . S
C72 C71 1.394 . S
C72 C73 1.382 . S
C73 C72 1.382 . S
C73 C74 1.392 . S
C73 N75 1.420 . S
C74 H68 0.930 . S
C74 C70 1.407 . S
C74 C73 1.392 . S
N75 C73 1.420 . S
N75 C76 1.244 . S
C76 N75 1.244 . S
H77 C80 0.929 . S
H78 C83 0.929 . S
H79 C85 0.930 . S
C80 H77 0.929 . S
C80 C81 1.398 . S
C80 C82 1.396 . S
C81 C80 1.398 . S
C81 C85 1.407 . S
C82 C80 1.396 . S
C82 C83 1.394 . S
C83 H78 0.929 . S
C83 C82 1.394 . S
C83 C84 1.382 . S
C84 C83 1.382 . S
C84 C85 1.392 . S
C84 N86 1.420 . S
C85 H79 0.930 . S
C85 C81 1.407 . S
C85 C84 1.392 . S
N86 C84 1.420 . S
N86 C87 1.244 . S
C87 N86 1.244 . S
Zn88 O94 1.920 . S
Zn88 O100 1.898 . S
Zn88 O103 1.905 . S
Zn89 O97 1.905 1_655 S
Zn89 O98 1.898 . S
Zn89 O106 1.920 . S
Zn90 O93 2.080 1_455 S
Zn90 O96 2.114 . S
Zn90 O99 2.120 1_455 S
Zn90 O101 2.120 . S
Zn90 O102 2.114 . S
Zn90 O105 2.080 1_455 S
C91 O96 1.166 . S
C91 O97 1.182 . S
C92 O98 1.167 . S
C92 O99 1.299 . S
O93 Zn90 2.080 1_655 S
O93 C107 1.305 . S
O94 Zn88 1.920 . S
O94 C107 1.234 1_455 S
C95 O100 1.167 . S
C95 O101 1.299 . S
O96 Zn90 2.114 . S
O96 C91 1.166 . S
O97 Zn89 1.905 1_455 S
O97 C91 1.182 . S
O98 Zn89 1.898 . S
O98 C92 1.167 . S
O99 Zn90 2.120 1_655 S
O99 C92 1.299 . S
O100 Zn88 1.898 . S
O100 C95 1.167 . S
O101 Zn90 2.120 . S
O101 C95 1.299 . S
O102 Zn90 2.114 . S
O102 C104 1.166 . S
O103 Zn88 1.905 . S
O103 C104 1.182 . S
C104 O102 1.166 . S
C104 O103 1.182 . S
O105 Zn90 2.080 1_655 S
O105 C108 1.305 . S
O106 Zn89 1.920 . S
O106 C108 1.234 . S
C107 O93 1.305 . S
C107 O94 1.234 1_655 S
C108 O105 1.305 . S
C108 O106 1.234 . S
Zn109 O115 1.920 . S
Zn109 O121 1.898 . S
Zn109 O124 1.905 . S
Zn110 O118 1.905 . S
Zn110 O119 1.898 . S
Zn110 O127 1.920 . S
Zn111 O114 2.080 . S
Zn111 O117 2.114 . S
Zn111 O120 2.120 . S
Zn111 O122 2.120 . S
Zn111 O123 2.114 . S
Zn111 O126 2.080 . S
C112 O117 1.166 . S
C112 O118 1.182 . S
C113 O119 1.167 . S
C113 O120 1.299 . S
O114 Zn111 2.080 . S
O114 C128 1.305 . S
O115 Zn109 1.920 . S
O115 C128 1.234 . S
C116 O121 1.167 . S
C116 O122 1.299 . S
O117 Zn111 2.114 . S
O117 C112 1.166 . S
O118 Zn110 1.905 . S
O118 C112 1.182 . S
O119 Zn110 1.898 . S
O119 C113 1.167 . S
O120 Zn111 2.120 . S
O120 C113 1.299 . S
O121 Zn109 1.898 . S
O121 C116 1.167 . S
O122 Zn111 2.120 . S
O122 C116 1.299 . S
O123 Zn111 2.114 . S
O123 C125 1.166 . S
O124 Zn109 1.905 . S
O124 C125 1.182 . S
C125 O123 1.166 . S
C125 O124 1.182 . S
O126 Zn111 2.080 . S
O126 C129 1.305 . S
O127 Zn110 1.920 . S
O127 C129 1.234 . S
C128 O114 1.305 . S
C128 O115 1.234 . S
C129 O126 1.305 . S
C129 O127 1.234 . S
Zn130 O136 1.920 . S
Zn130 O142 1.898 . S
Zn130 O145 1.905 1_455 S
Zn131 O139 1.905 . S
Zn131 O140 1.898 . S
Zn131 O148 1.920 1_655 S
Zn132 O135 2.080 . S
Zn132 O138 2.114 1_455 S
Zn132 O141 2.120 1_455 S
Zn132 O143 2.120 . S
Zn132 O144 2.114 1_455 S
Zn132 O147 2.080 . S
C133 O138 1.166 . S
C133 O139 1.182 . S
C134 O140 1.167 . S
C134 O141 1.299 . S
O135 Zn132 2.080 . S
O135 C149 1.305 . S
O136 Zn130 1.920 . S
O136 C149 1.234 . S
C137 O142 1.167 . S
C137 O143 1.299 . S
O138 Zn132 2.114 1_655 S
O138 C133 1.166 . S
O139 Zn131 1.905 . S
O139 C133 1.182 . S
O140 Zn131 1.898 . S
O140 C134 1.167 . S
O141 Zn132 2.120 1_655 S
O141 C134 1.299 . S
O142 Zn130 1.898 . S
O142 C137 1.167 . S
O143 Zn132 2.120 . S
O143 C137 1.299 . S
O144 Zn132 2.114 1_655 S
O144 C146 1.166 . S
O145 Zn130 1.905 1_655 S
O145 C146 1.182 . S
C146 O144 1.166 . S
C146 O145 1.182 . S
O147 Zn132 2.080 . S
O147 C150 1.305 . S
O148 Zn131 1.920 1_455 S
O148 C150 1.234 . S
C149 O135 1.305 . S
C149 O136 1.234 . S
C150 O147 1.305 . S
C150 O148 1.234 . S
Zn151 O157 1.920 . S
Zn151 O163 1.898 . S
Zn151 O166 1.905 . S
Zn152 O160 1.905 . S
Zn152 O161 1.898 . S
Zn152 O169 1.920 . S
Zn153 O156 2.080 . S
Zn153 O159 2.114 . S
Zn153 O162 2.120 . S
Zn153 O164 2.120 . S
Zn153 O165 2.114 . S
Zn153 O168 2.080 . S
C154 O159 1.166 . S
C154 O160 1.182 . S
C155 O161 1.167 . S
C155 O162 1.299 . S
O156 Zn153 2.080 . S
O156 C170 1.305 . S
O157 Zn151 1.920 . S
O157 C170 1.234 . S
C158 O163 1.167 . S
C158 O164 1.299 . S
O159 Zn153 2.114 . S
O159 C154 1.166 . S
O160 Zn152 1.905 . S
O160 C154 1.182 . S
O161 Zn152 1.898 . S
O161 C155 1.167 . S
O162 Zn153 2.120 . S
O162 C155 1.299 . S
O163 Zn151 1.898 . S
O163 C158 1.167 . S
O164 Zn153 2.120 . S
O164 C158 1.299 . S
O165 Zn153 2.114 . S
O165 C167 1.166 . S
O166 Zn151 1.905 . S
O166 C167 1.182 . S
C167 O165 1.166 . S
C167 O166 1.182 . S
O168 Zn153 2.080 . S
O168 C171 1.305 . S
O169 Zn152 1.920 . S
O169 C171 1.234 . S
C170 O156 1.305 . S
C170 O157 1.234 . S
C171 O168 1.305 . S
C171 O169 1.234 . S
C172 C173 1.363 . S
C172 C178 1.379 . S
C172 N180 1.356 . S
C173 C172 1.363 . S
C173 C179 1.363 . S
C174 C175 1.363 . S
C174 C179 1.379 . S
C174 N181 1.356 . S
C175 C174 1.363 . S
C175 C178 1.363 . S
N176 C178 1.356 1_545 S
N176 H188 0.984 . S
N176 H189 0.985 . S
N177 C179 1.356 . S
N177 H182 0.984 . S
N177 H183 0.985 . S
C178 C172 1.379 . S
C178 C175 1.363 . S
C178 N176 1.356 1_565 S
C179 C173 1.363 . S
C179 C174 1.379 . S
C179 N177 1.356 . S
N180 C172 1.356 . S
N180 H186 0.984 . S
N180 H187 0.984 . S
N181 C174 1.356 . S
N181 H184 0.984 . S
N181 H185 0.985 1_455 S
H182 N177 0.984 . S
H183 N177 0.985 . S
H184 N181 0.984 . S
H185 N181 0.985 1_655 S
H186 N180 0.984 . S
H187 N180 0.984 . S
H188 N176 0.984 . S
H189 N176 0.985 . S
C190 C191 1.363 . S
C190 C196 1.379 . S
C190 N198 1.356 . S
C191 C190 1.363 . S
C191 C197 1.363 . S
C192 C193 1.363 . S
C192 C197 1.379 . S
C192 N199 1.356 . S
C193 C192 1.363 . S
C193 C196 1.363 . S
N194 C196 1.356 . S
N194 H206 0.984 . S
N194 H207 0.985 . S
N195 C197 1.356 . S
N195 H200 0.984 . S
N195 H201 0.985 . S
C196 C190 1.379 . S
C196 C193 1.363 . S
C196 N194 1.356 . S
C197 C191 1.363 . S
C197 C192 1.379 . S
C197 N195 1.356 . S
N198 C190 1.356 . S
N198 H204 0.984 . S
N198 H205 0.984 . S
N199 C192 1.356 . S
N199 H202 0.984 . S
N199 H203 0.985 . S
H200 N195 0.984 . S
H201 N195 0.985 . S
H202 N199 0.984 . S
H203 N199 0.985 . S
H204 N198 0.984 . S
H205 N198 0.984 . S
H206 N194 0.984 . S
H207 N194 0.985 . S
C208 C209 1.363 . S
C208 C214 1.379 . S
C208 N216 1.356 . S
C209 C208 1.363 . S
C209 C215 1.363 . S
C210 C211 1.363 . S
C210 C215 1.379 . S
C210 N217 1.356 . S
C211 C210 1.363 . S
C211 C214 1.363 . S
N212 C214 1.356 . S
N212 H224 0.984 . S
N212 H225 0.985 . S
N213 C215 1.356 . S
N213 H218 0.984 . S
N213 H219 0.985 . S
C214 C208 1.379 . S
C214 C211 1.363 . S
C214 N212 1.356 . S
C215 C209 1.363 . S
C215 C210 1.379 . S
C215 N213 1.356 . S
N216 C208 1.356 . S
N216 H222 0.984 . S
N216 H223 0.984 . S
N217 C210 1.356 . S
N217 H220 0.984 . S
N217 H221 0.985 . S
H218 N213 0.984 . S
H219 N213 0.985 . S
H220 N217 0.984 . S
H221 N217 0.985 . S
H222 N216 0.984 . S
H223 N216 0.984 . S
H224 N212 0.984 . S
H225 N212 0.985 . S
C226 C227 1.363 . S
C226 C232 1.379 . S
C226 N234 1.356 . S
C227 C226 1.363 . S
C227 C233 1.363 . S
C228 C229 1.363 . S
C228 C233 1.379 . S
C228 N235 1.356 1_565 S
C229 C228 1.363 . S
C229 C232 1.363 . S
N230 C232 1.356 . S
N230 H242 0.984 . S
N230 H243 0.985 1_565 S
N231 C233 1.356 . S
N231 H236 0.984 . S
N231 H237 0.985 . S
C232 C226 1.379 . S
C232 C229 1.363 . S
C232 N230 1.356 . S
C233 C227 1.363 . S
C233 C228 1.379 . S
C233 N231 1.356 . S
N234 C226 1.356 . S
N234 H240 0.984 . S
N234 H241 0.984 . S
N235 C228 1.356 1_545 S
N235 H238 0.984 . S
N235 H239 0.985 . S
H236 N231 0.984 . S
H237 N231 0.985 . S
H238 N235 0.984 . S
H239 N235 0.985 . S
H240 N234 0.984 . S
H241 N234 0.984 . S
H242 N230 0.984 . S
H243 N230 0.985 1_545 S
C244 C245 1.363 . S
C244 C250 1.379 . S
C244 N252 1.356 . S
C245 C244 1.363 . S
C245 C251 1.363 . S
C246 C247 1.378 . S
C246 C251 1.379 . S
C246 N253 1.356 . S
C247 C246 1.378 . S
C247 C250 1.364 . S
N248 C250 1.356 1_565 S
N248 H260 0.984 . S
N248 H261 0.985 . S
N249 C251 1.356 . S
N249 H254 0.984 . S
N249 H255 0.985 . S
C250 C244 1.379 . S
C250 C247 1.364 . S
C250 N248 1.356 1_545 S
C251 C245 1.363 . S
C251 C246 1.379 . S
C251 N249 1.356 . S
N252 C244 1.356 . S
N252 H258 0.984 . S
N252 H259 0.984 . S
N253 C246 1.356 . S
N253 H256 0.984 1_545 S
N253 H257 0.985 . S
H254 N249 0.984 . S
H255 N249 0.985 . S
H256 N253 0.984 1_565 S
H257 N253 0.985 . S
H258 N252 0.984 . S
H259 N252 0.984 . S
H260 N248 0.984 . S
H261 N248 0.985 . S
C262 C263 1.363 . S
C262 C268 1.379 . S
C262 N270 1.356 . S
C263 C262 1.363 . S
C263 C269 1.363 . S
C264 C265 1.363 . S
C264 C269 1.379 . S
C264 N271 1.356 . S
C265 C264 1.363 . S
C265 C268 1.363 . S
N266 C268 1.356 . S
N266 H278 0.984 . S
N266 H279 0.985 . S
N267 C269 1.356 . S
N267 H272 0.984 . S
N267 H273 0.985 . S
C268 C262 1.379 . S
C268 C265 1.363 . S
C268 N266 1.356 . S
C269 C263 1.363 . S
C269 C264 1.379 . S
C269 N267 1.356 . S
N270 C262 1.356 . S
N270 H276 0.984 . S
N270 H277 0.984 . S
N271 C264 1.356 . S
N271 H274 0.984 . S
N271 H275 0.985 . S
H272 N267 0.984 . S
H273 N267 0.985 . S
H274 N271 0.984 . S
H275 N271 0.985 . S
H276 N270 0.984 . S
H277 N270 0.984 . S
H278 N266 0.984 . S
H279 N266 0.985 . S
C280 C281 1.363 . S
C280 C286 1.379 . S
C280 N288 1.356 . S
C281 C280 1.363 . S
C281 C287 1.363 . S
C282 C283 1.363 . S
C282 C287 1.379 . S
C282 N289 1.356 . S
C283 C282 1.363 . S
C283 C286 1.363 . S
N284 C286 1.356 . S
N284 H296 0.984 . S
N284 H297 0.985 . S
N285 C287 1.356 . S
N285 H290 0.984 . S
N285 H291 0.985 . S
C286 C280 1.379 . S
C286 C283 1.363 . S
C286 N284 1.356 . S
C287 C281 1.363 . S
C287 C282 1.379 . S
C287 N285 1.356 . S
N288 C280 1.356 . S
N288 H294 0.984 . S
N288 H295 0.984 . S
N289 C282 1.356 . S
N289 H292 0.984 . S
N289 H293 0.985 . S
H290 N285 0.984 . S
H291 N285 0.985 . S
H292 N289 0.984 . S
H293 N289 0.985 . S
H294 N288 0.984 . S
H295 N288 0.984 . S
H296 N284 0.984 . S
H297 N284 0.985 . S
C298 C299 1.363 . S
C298 C304 1.379 . S
C298 N306 1.356 . S
C299 C298 1.363 . S
C299 C305 1.363 . S
C300 C301 1.363 . S
C300 C305 1.379 . S
C300 N307 1.356 . S
C301 C300 1.363 . S
C301 C304 1.363 . S
N302 C304 1.356 1_565 S
N302 H314 0.984 . S
N302 H315 0.985 . S
N303 C305 1.356 . S
N303 H308 0.984 . S
N303 H309 0.985 . S
C304 C298 1.379 . S
C304 C301 1.363 . S
C304 N302 1.356 1_545 S
C305 C299 1.363 . S
C305 C300 1.379 . S
C305 N303 1.356 . S
N306 C298 1.356 . S
N306 H312 0.984 . S
N306 H313 0.984 . S
N307 C300 1.356 . S
N307 H310 0.984 1_545 S
N307 H311 0.985 1_455 S
H308 N303 0.984 . S
H309 N303 0.985 . S
H310 N307 0.984 1_565 S
H311 N307 0.985 1_655 S
H312 N306 0.984 . S
H313 N306 0.984 . S
H314 N302 0.984 . S
H315 N302 0.985 . S
C316 C317 1.363 . S
C316 C322 1.379 . S
C316 N324 1.356 1_554 S
C317 C316 1.363 . S
C317 C323 1.363 . S
C318 C319 1.363 . S
C318 C323 1.379 . S
C318 N325 1.356 . S
C319 C318 1.363 . S
C319 C322 1.363 . S
N320 C322 1.356 . S
N320 H332 0.984 . S
N320 H333 0.985 . S
N321 C323 1.356 . S
N321 H326 0.984 1_554 S
N321 H327 0.985 . S
C322 C316 1.379 . S
C322 C319 1.363 . S
C322 N320 1.356 . S
C323 C317 1.363 . S
C323 C318 1.379 . S
C323 N321 1.356 . S
N324 C316 1.356 1_556 S
N324 H330 0.984 . S
N324 H331 0.984 . S
N325 C318 1.356 . S
N325 H328 0.984 . S
N325 H329 0.985 . S
H326 N321 0.984 1_556 S
H327 N321 0.985 . S
H328 N325 0.984 . S
H329 N325 0.985 . S
H330 N324 0.984 . S
H331 N324 0.984 . S
H332 N320 0.984 . S
H333 N320 0.985 . S
C334 C335 1.363 . S
C334 C340 1.379 . S
C334 N342 1.356 . S
C335 C334 1.363 . S
C335 C341 1.363 . S
C336 C337 1.363 . S
C336 C341 1.379 . S
C336 N343 1.356 . S
C337 C336 1.363 . S
C337 C340 1.363 . S
N338 C340 1.356 . S
N338 H350 0.984 . S
N338 H351 0.985 . S
N339 C341 1.356 . S
N339 H344 0.984 . S
N339 H345 0.985 . S
C340 C334 1.379 . S
C340 C337 1.363 . S
C340 N338 1.356 . S
C341 C335 1.363 . S
C341 C336 1.379 . S
C341 N339 1.356 . S
N342 C334 1.356 . S
N342 H348 0.984 . S
N342 H349 0.984 . S
N343 C336 1.356 . S
N343 H346 0.984 . S
N343 H347 0.985 . S
H344 N339 0.984 . S
H345 N339 0.985 . S
H346 N343 0.984 . S
H347 N343 0.985 . S
H348 N342 0.984 . S
H349 N342 0.984 . S
H350 N338 0.984 . S
H351 N338 0.985 . S
C352 C353 1.363 . S
C352 C358 1.379 . S
C352 N360 1.356 . S
C353 C352 1.363 . S
C353 C359 1.363 . S
C354 C355 1.363 . S
C354 C359 1.379 . S
C354 N361 1.356 . S
C355 C354 1.363 . S
C355 C358 1.363 . S
N356 C358 1.356 . S
N356 H368 0.984 . S
N356 H369 0.985 . S
N357 C359 1.356 1_554 S
N357 H362 0.984 . S
N357 H363 0.985 . S
C358 C352 1.379 . S
C358 C355 1.363 . S
C358 N356 1.356 . S
C359 C353 1.363 . S
C359 C354 1.379 . S
C359 N357 1.356 1_556 S
N360 C352 1.356 . S
N360 H366 0.984 . S
N360 H367 0.984 1_556 S
N361 C354 1.356 . S
N361 H364 0.984 . S
N361 H365 0.985 . S
H362 N357 0.984 . S
H363 N357 0.985 . S
H364 N361 0.984 . S
H365 N361 0.985 . S
H366 N360 0.984 . S
H367 N360 0.984 1_554 S
H368 N356 0.984 . S
H369 N356 0.985 . S
C370 C371 1.363 . S
C370 C376 1.379 . S
C370 N378 1.356 . S
C371 C370 1.363 . S
C371 C377 1.363 . S
C372 C373 1.363 . S
C372 C377 1.379 . S
C372 N379 1.356 . S
C373 C372 1.363 . S
C373 C376 1.363 . S
N374 C376 1.356 . S
N374 H386 0.984 . S
N374 H387 0.985 . S
N375 C377 1.356 . S
N375 H380 0.984 . S
N375 H381 0.985 . S
C376 C370 1.379 . S
C376 C373 1.363 . S
C376 N374 1.356 . S
C377 C371 1.363 . S
C377 C372 1.379 . S
C377 N375 1.356 . S
N378 C370 1.356 . S
N378 H384 0.984 . S
N378 H385 0.984 . S
N379 C372 1.356 . S
N379 H382 0.984 . S
N379 H383 0.985 1_655 S
H380 N375 0.984 . S
H381 N375 0.985 . S
H382 N379 0.984 . S
H383 N379 0.985 1_455 S
H384 N378 0.984 . S
H385 N378 0.984 . S
H386 N374 0.984 . S
H387 N374 0.985 . S
C388 C389 1.371 . S
C388 C394 1.379 . S
C388 N396 1.356 1_556 S
C389 C388 1.371 . S
C389 C395 1.376 . S
C390 C391 1.363 . S
C390 C395 1.379 . S
C390 N397 1.356 . S
C391 C390 1.363 . S
C391 C394 1.363 . S
N392 C394 1.356 . S
N392 H404 0.984 . S
N392 H405 0.985 . S
N393 C395 1.356 . S
N393 H398 0.984 1_556 S
N393 H399 0.985 . S
C394 C388 1.379 . S
C394 C391 1.363 . S
C394 N392 1.356 . S
C395 C389 1.376 . S
C395 C390 1.379 . S
C395 N393 1.356 . S
N396 C388 1.356 1_554 S
N396 H402 0.984 . S
N396 H403 0.984 . S
N397 C390 1.356 . S
N397 H400 0.984 . S
N397 H401 0.985 . S
H398 N393 0.984 1_554 S
H399 N393 0.985 . S
H400 N397 0.984 . S
H401 N397 0.985 . S
H402 N396 0.984 . S
H403 N396 0.984 . S
H404 N392 0.984 . S
H405 N392 0.985 . S
C406 C407 1.363 . S
C406 C412 1.379 . S
C406 N414 1.356 . S
C407 C406 1.363 . S
C407 C413 1.363 . S
C408 C409 1.363 . S
C408 C413 1.379 . S
C408 N415 1.356 . S
C409 C408 1.363 . S
C409 C412 1.363 . S
N410 C412 1.356 . S
N410 H422 0.984 . S
N410 H423 0.985 . S
N411 C413 1.356 . S
N411 H416 0.984 . S
N411 H417 0.985 . S
C412 C406 1.379 . S
C412 C409 1.363 . S
C412 N410 1.356 . S
C413 C407 1.363 . S
C413 C408 1.379 . S
C413 N411 1.356 . S
N414 C406 1.356 . S
N414 H420 0.984 . S
N414 H421 0.984 . S
N415 C408 1.356 . S
N415 H418 0.984 . S
N415 H419 0.985 . S
H416 N411 0.984 . S
H417 N411 0.985 . S
H418 N415 0.984 . S
H419 N415 0.985 . S
H420 N414 0.984 . S
H421 N414 0.984 . S
H422 N410 0.984 . S
H423 N410 0.985 . S
C424 C425 1.363 1_554 S
C424 C430 1.379 . S
C424 N432 1.356 1_554 S
C425 C424 1.363 1_556 S
C425 C431 1.363 1_556 S
C426 C427 1.363 . S
C426 C431 1.379 . S
C426 N433 1.356 . S
C427 C426 1.363 . S
C427 C430 1.363 . S
N428 C430 1.356 . S
N428 H440 0.984 . S
N428 H441 0.985 . S
N429 C431 1.356 . S
N429 H434 0.984 1_554 S
N429 H435 0.985 . S
C430 C424 1.379 . S
C430 C427 1.363 . S
C430 N428 1.356 . S
C431 C425 1.363 1_554 S
C431 C426 1.379 . S
C431 N429 1.356 . S
N432 C424 1.356 1_556 S
N432 H438 0.984 . S
N432 H439 0.984 . S
N433 C426 1.356 . S
N433 H436 0.984 . S
N433 H437 0.985 . S
H434 N429 0.984 1_556 S
H435 N429 0.985 . S
H436 N433 0.984 . S
H437 N433 0.985 . S
H438 N432 0.984 . S
H439 N432 0.984 . S
H440 N428 0.984 . S
H441 N428 0.985 . S
C442 C443 1.363 . S
C442 C448 1.379 . S
C442 N450 1.356 . S
C443 C442 1.363 . S
C443 C449 1.363 . S
C444 C445 1.363 . S
C444 C449 1.379 . S
C444 N451 1.356 . S
C445 C444 1.363 . S
C445 C448 1.363 . S
N446 C448 1.356 . S
N446 H458 0.984 . S
N446 H459 0.985 . S
N447 C449 1.356 . S
N447 H452 0.984 . S
N447 H453 0.985 . S
C448 C442 1.379 . S
C448 C445 1.363 . S
C448 N446 1.356 . S
C449 C443 1.363 . S
C449 C444 1.379 . S
C449 N447 1.356 . S
N450 C442 1.356 . S
N450 H456 0.984 . S
N450 H457 0.984 . S
N451 C444 1.356 . S
N451 H454 0.984 . S
N451 H455 0.985 . S
H452 N447 0.984 . S
H453 N447 0.985 . S
H454 N451 0.984 . S
H455 N451 0.985 . S
H456 N450 0.984 . S
H457 N450 0.984 . S
H458 N446 0.984 . S
H459 N446 0.985 . S
C460 C461 1.363 . S
C460 C466 1.379 . S
C460 N468 1.356 . S
C461 C460 1.363 . S
C461 C467 1.363 . S
C462 C463 1.363 . S
C462 C467 1.379 . S
C462 N469 1.356 . S
C463 C462 1.363 . S
C463 C466 1.363 . S
N464 C466 1.356 . S
N464 H476 0.984 . S
N464 H477 0.985 . S
N465 C467 1.356 . S
N465 H470 0.984 . S
N465 H471 0.985 . S
C466 C460 1.379 . S
C466 C463 1.363 . S
C466 N464 1.356 . S
C467 C461 1.363 . S
C467 C462 1.379 . S
C467 N465 1.356 . S
N468 C460 1.356 . S
N468 H474 0.984 . S
N468 H475 0.984 . S
N469 C462 1.356 . S
N469 H472 0.984 . S
N469 H473 0.985 . S
H470 N465 0.984 . S
H471 N465 0.985 . S
H472 N469 0.984 . S
H473 N469 0.985 . S
H474 N468 0.984 . S
H475 N468 0.984 . S
H476 N464 0.984 . S
H477 N464 0.985 . S
C478 C479 1.363 . S
C478 C484 1.379 . S
C478 N486 1.356 . S
C479 C478 1.363 . S
C479 C485 1.363 . S
C480 C481 1.363 . S
C480 C485 1.379 . S
C480 N487 1.356 . S
C481 C480 1.363 . S
C481 C484 1.363 . S
N482 C484 1.356 . S
N482 H494 0.984 . S
N482 H495 0.985 . S
N483 C485 1.356 . S
N483 H488 0.984 . S
N483 H489 0.985 . S
C484 C478 1.379 . S
C484 C481 1.363 . S
C484 N482 1.356 . S
C485 C479 1.363 . S
C485 C480 1.379 . S
C485 N483 1.356 . S
N486 C478 1.356 . S
N486 H492 0.984 . S
N486 H493 0.984 . S
N487 C480 1.356 . S
N487 H490 0.984 . S
N487 H491 0.985 . S
H488 N483 0.984 . S
H489 N483 0.985 . S
H490 N487 0.984 . S
H491 N487 0.985 . S
H492 N486 0.984 . S
H493 N486 0.984 . S
H494 N482 0.984 . S
H495 N482 0.985 . S
C496 C497 1.363 . S
C496 C502 1.379 . S
C496 N504 1.356 . S
C497 C496 1.363 . S
C497 C503 1.363 . S
C498 C499 1.363 . S
C498 C503 1.379 . S
C498 N505 1.356 . S
C499 C498 1.363 . S
C499 C502 1.363 . S
N500 C502 1.356 . S
N500 H512 0.984 . S
N500 H513 0.985 . S
N501 C503 1.356 . S
N501 H506 0.984 . S
N501 H507 0.985 . S
C502 C496 1.379 . S
C502 C499 1.363 . S
C502 N500 1.356 . S
C503 C497 1.363 . S
C503 C498 1.379 . S
C503 N501 1.356 . S
N504 C496 1.356 . S
N504 H510 0.984 . S
N504 H511 0.984 . S
N505 C498 1.356 . S
N505 H508 0.984 . S
N505 H509 0.985 . S
H506 N501 0.984 . S
H507 N501 0.985 . S
H508 N505 0.984 . S
H509 N505 0.985 . S
H510 N504 0.984 . S
H511 N504 0.984 . S
H512 N500 0.984 . S
H513 N500 0.985 . S
C514 C515 1.363 . S
C514 C520 1.379 . S
C514 N522 1.356 . S
C515 C514 1.363 . S
C515 C521 1.363 . S
C516 C517 1.363 . S
C516 C521 1.379 . S
C516 N523 1.356 . S
C517 C516 1.363 . S
C517 C520 1.363 . S
N518 C520 1.356 . S
N518 H530 0.984 . S
N518 H531 0.985 . S
N519 C521 1.356 . S
N519 H524 0.984 . S
N519 H525 0.985 . S
C520 C514 1.379 . S
C520 C517 1.363 . S
C520 N518 1.356 . S
C521 C515 1.363 . S
C521 C516 1.379 . S
C521 N519 1.356 . S
N522 C514 1.356 . S
N522 H528 0.984 . S
N522 H529 0.984 . S
N523 C516 1.356 . S
N523 H526 0.984 . S
N523 H527 0.985 . S
H524 N519 0.984 . S
H525 N519 0.985 . S
H526 N523 0.984 . S
H527 N523 0.985 . S
H528 N522 0.984 . S
H529 N522 0.984 . S
H530 N518 0.984 . S
H531 N518 0.985 . S
C532 C533 1.363 . S
C532 C538 1.379 . S
C532 N540 1.356 . S
C533 C532 1.363 . S
C533 C539 1.363 . S
C534 C535 1.363 . S
C534 C539 1.379 . S
C534 N541 1.356 . S
C535 C534 1.363 . S
C535 C538 1.363 . S
N536 C538 1.356 . S
N536 H548 0.984 . S
N536 H549 0.985 . S
N537 C539 1.356 . S
N537 H542 0.984 . S
N537 H543 0.985 . S
C538 C532 1.379 . S
C538 C535 1.363 . S
C538 N536 1.356 . S
C539 C533 1.363 . S
C539 C534 1.379 . S
C539 N537 1.356 . S
N540 C532 1.356 . S
N540 H546 0.984 . S
N540 H547 0.984 . S
N541 C534 1.356 . S
N541 H544 0.984 . S
N541 H545 0.985 . S
H542 N537 0.984 . S
H543 N537 0.985 . S
H544 N541 0.984 . S
H545 N541 0.985 . S
H546 N540 0.984 . S
H547 N540 0.984 . S
H548 N536 0.984 . S
H549 N536 0.985 . S
C550 C551 1.363 . S
C550 C556 1.379 . S
C550 N558 1.356 . S
C551 C550 1.363 . S
C551 C557 1.363 . S
C552 C553 1.363 . S
C552 C557 1.379 . S
C552 N559 1.356 . S
C553 C552 1.363 . S
C553 C556 1.363 . S
N554 C556 1.356 . S
N554 H566 0.984 . S
N554 H567 0.985 . S
N555 C557 1.356 . S
N555 H560 0.984 . S
N555 H561 0.985 . S
C556 C550 1.379 . S
C556 C553 1.363 . S
C556 N554 1.356 . S
C557 C551 1.363 . S
C557 C552 1.379 . S
C557 N555 1.356 . S
N558 C550 1.356 . S
N558 H564 0.984 . S
N558 H565 0.984 . S
N559 C552 1.356 . S
N559 H562 0.984 . S
N559 H563 0.985 . S
H560 N555 0.984 . S
H561 N555 0.985 . S
H562 N559 0.984 . S
H563 N559 0.985 . S
H564 N558 0.984 . S
H565 N558 0.984 . S
H566 N554 0.984 . S
H567 N554 0.985 . S
C568 C569 1.363 . S
C568 C574 1.379 . S
C568 N576 1.356 . S
C569 C568 1.363 . S
C569 C575 1.363 . S
C570 C571 1.363 . S
C570 C575 1.379 . S
C570 N577 1.356 . S
C571 C570 1.363 . S
C571 C574 1.363 . S
N572 C574 1.356 . S
N572 H584 0.984 . S
N572 H585 0.985 . S
N573 C575 1.356 . S
N573 H578 0.984 . S
N573 H579 0.985 . S
C574 C568 1.379 . S
C574 C571 1.363 . S
C574 N572 1.356 . S
C575 C569 1.363 . S
C575 C570 1.379 . S
C575 N573 1.356 . S
N576 C568 1.356 . S
N576 H582 0.984 . S
N576 H583 0.984 . S
N577 C570 1.356 . S
N577 H580 0.984 . S
N577 H581 0.985 . S
H578 N573 0.984 . S
H579 N573 0.985 . S
H580 N577 0.984 . S
H581 N577 0.985 . S
H582 N576 0.984 . S
H583 N576 0.984 . S
H584 N572 0.984 . S
H585 N572 0.985 . S
C586 C587 1.363 . S
C586 C592 1.379 . S
C586 N594 1.356 . S
C587 C586 1.363 . S
C587 C593 1.363 . S
C588 C589 1.363 . S
C588 C593 1.379 . S
C588 N595 1.356 . S
C589 C588 1.363 . S
C589 C592 1.363 . S
N590 C592 1.356 . S
N590 H602 0.984 . S
N590 H603 0.985 . S
N591 C593 1.356 . S
N591 H596 0.984 . S
N591 H597 0.985 . S
C592 C586 1.379 . S
C592 C589 1.363 . S
C592 N590 1.356 . S
C593 C587 1.363 . S
C593 C588 1.379 . S
C593 N591 1.356 . S
N594 C586 1.356 . S
N594 H600 0.984 . S
N594 H601 0.984 . S
N595 C588 1.356 . S
N595 H598 0.984 . S
N595 H599 0.985 . S
H596 N591 0.984 . S
H597 N591 0.985 . S
H598 N595 0.984 . S
H599 N595 0.985 . S
H600 N594 0.984 . S
H601 N594 0.984 . S
H602 N590 0.984 . S
H603 N590 0.985 . S
C173 C71 1.447 . S
C175 C104 1.407 1_565 S
C193 C112 1.314 . S
C191 C81 1.392 . S
C211 C116 1.399 . S
C209 C49 1.447 . S
C227 C59 1.392 . S
C229 C92 1.306 1_565 S
C247 C133 1.364 1_545 S
C245 C27 1.426 . S
C265 C167 1.428 . S
C263 C38 1.465 . S
C281 C5 1.427 . S
C283 C155 1.373 . S
C299 C16 1.464 . S
C301 C137 1.418 1_545 S
C319 C91 1.298 . S
C317 C15 1.443 1_554 S
C337 C125 1.323 . S
C335 C4 1.467 . S
C355 C129 1.296 . S
C353 C37 1.442 1_556 S
C373 C107 1.319 . S
C371 C26 1.466 . S
C391 C146 1.386 . S
C389 C60 1.478 1_556 S
C407 C48 1.506 . S
C409 C154 1.366 . S
C427 C170 1.384 . S
C425 C82 1.499 . S
C443 C70 1.504 . S
C445 C150 1.362 . S
C463 C95 1.333 . S
C461 C10 1.485 . S
C481 C113 1.371 . S
C479 C21 1.529 . S
C497 C32 1.483 . S
C499 C128 1.338 . S
C517 C108 1.376 . S
C515 C43 1.527 . S
C535 C134 1.376 . S
C533 C54 1.554 . S
C551 C65 1.515 . S
C553 C158 1.336 . S
C569 C76 1.550 . S
C571 C171 1.381 . S
C587 C87 1.508 . S
C589 C149 1.339 . S
