# Generated by pormake.
# Topology ctn, (3,4)-cn, num edge types: 1
# Building blocks:
#     Node 0, Type 0, BuildingBlock: CUQRIR_clean_linker_1, # of connection points: 3
#     Node 1, Type 0, BuildingBlock: CUQRIR_clean_linker_1, # of connection points: 3
#     Node 2, Type 0, BuildingBlock: CUQRIR_clean_linker_1, # of connection points: 3
#     Node 3, Type 0, BuildingBlock: CUQRIR_clean_linker_1, # of connection points: 3
#     Node 4, Type 0, BuildingBlock: CUQRIR_clean_linker_1, # of connection points: 3
#     Node 5, Type 0, BuildingBlock: CUQRIR_clean_linker_1, # of connection points: 3
#     Node 6, Type 0, BuildingBlock: CUQRIR_clean_linker_1, # of connection points: 3
#     Node 7, Type 0, BuildingBlock: CUQRIR_clean_linker_1, # of connection points: 3
#     Node 8, Type 0, BuildingBlock: CUQRIR_clean_linker_1, # of connection points: 3
#     Node 9, Type 0, BuildingBlock: CUQRIR_clean_linker_1, # of connection points: 3
#     Node 10, Type 0, BuildingBlock: CUQRIR_clean_linker_1, # of connection points: 3
#     Node 11, Type 0, BuildingBlock: CUQRIR_clean_linker_1, # of connection points: 3
#     Node 12, Type 0, BuildingBlock: CUQRIR_clean_linker_1, # of connection points: 3
#     Node 13, Type 0, BuildingBlock: CUQRIR_clean_linker_1, # of connection points: 3
#     Node 14, Type 0, BuildingBlock: CUQRIR_clean_linker_1, # of connection points: 3
#     Node 15, Type 0, BuildingBlock: CUQRIR_clean_linker_1, # of connection points: 3
#     Node 16, Type 1, BuildingBlock: KUFVIS_clean_sbu_0, # of connection points: 4
#     Node 17, Type 1, BuildingBlock: KUFVIS_clean_sbu_0, # of connection points: 4
#     Node 18, Type 1, BuildingBlock: KUFVIS_clean_sbu_0, # of connection points: 4
#     Node 19, Type 1, BuildingBlock: KUFVIS_clean_sbu_0, # of connection points: 4
#     Node 20, Type 1, BuildingBlock: KUFVIS_clean_sbu_0, # of connection points: 4
#     Node 21, Type 1, BuildingBlock: KUFVIS_clean_sbu_0, # of connection points: 4
#     Node 22, Type 1, BuildingBlock: KUFVIS_clean_sbu_0, # of connection points: 4
#     Node 23, Type 1, BuildingBlock: KUFVIS_clean_sbu_0, # of connection points: 4
#     Node 24, Type 1, BuildingBlock: KUFVIS_clean_sbu_0, # of connection points: 4
#     Node 25, Type 1, BuildingBlock: KUFVIS_clean_sbu_0, # of connection points: 4
#     Node 26, Type 1, BuildingBlock: KUFVIS_clean_sbu_0, # of connection points: 4
#     Node 27, Type 1, BuildingBlock: KUFVIS_clean_sbu_0, # of connection points: 4
#     Edge 28, Type (0, 1), BuildingBlock: TEMPAE_clean_linker_10, # of connection points: 2
#     Edge 29, Type (0, 1), BuildingBlock: TEMPAE_clean_linker_10, # of connection points: 2
#     Edge 30, Type (0, 1), BuildingBlock: TEMPAE_clean_linker_10, # of connection points: 2
#     Edge 31, Type (0, 1), BuildingBlock: TEMPAE_clean_linker_10, # of connection points: 2
#     Edge 32, Type (0, 1), BuildingBlock: TEMPAE_clean_linker_10, # of connection points: 2
#     Edge 33, Type (0, 1), BuildingBlock: TEMPAE_clean_linker_10, # of connection points: 2
#     Edge 34, Type (0, 1), BuildingBlock: TEMPAE_clean_linker_10, # of connection points: 2
#     Edge 35, Type (0, 1), BuildingBlock: TEMPAE_clean_linker_10, # of connection points: 2
#     Edge 36, Type (0, 1), BuildingBlock: TEMPAE_clean_linker_10, # of connection points: 2
#     Edge 37, Type (0, 1), BuildingBlock: TEMPAE_clean_linker_10, # of connection points: 2
#     Edge 38, Type (0, 1), BuildingBlock: TEMPAE_clean_linker_10, # of connection points: 2
#     Edge 39, Type (0, 1), BuildingBlock: TEMPAE_clean_linker_10, # of connection points: 2
#     Edge 40, Type (0, 1), BuildingBlock: TEMPAE_clean_linker_10, # of connection points: 2
#     Edge 41, Type (0, 1), BuildingBlock: TEMPAE_clean_linker_10, # of connection points: 2
#     Edge 42, Type (0, 1), BuildingBlock: TEMPAE_clean_linker_10, # of connection points: 2
#     Edge 43, Type (0, 1), BuildingBlock: TEMPAE_clean_linker_10, # of connection points: 2
#     Edge 44, Type (0, 1), BuildingBlock: TEMPAE_clean_linker_10, # of connection points: 2
#     Edge 45, Type (0, 1), BuildingBlock: TEMPAE_clean_linker_10, # of connection points: 2
#     Edge 46, Type (0, 1), BuildingBlock: TEMPAE_clean_linker_10, # of connection points: 2
#     Edge 47, Type (0, 1), BuildingBlock: TEMPAE_clean_linker_10, # of connection points: 2
#     Edge 48, Type (0, 1), BuildingBlock: TEMPAE_clean_linker_10, # of connection points: 2
#     Edge 49, Type (0, 1), BuildingBlock: TEMPAE_clean_linker_10, # of connection points: 2
#     Edge 50, Type (0, 1), BuildingBlock: TEMPAE_clean_linker_10, # of connection points: 2
#     Edge 51, Type (0, 1), BuildingBlock: TEMPAE_clean_linker_10, # of connection points: 2
#     Edge 52, Type (0, 1), BuildingBlock: TEMPAE_clean_linker_10, # of connection points: 2
#     Edge 53, Type (0, 1), BuildingBlock: TEMPAE_clean_linker_10, # of connection points: 2
#     Edge 54, Type (0, 1), BuildingBlock: TEMPAE_clean_linker_10, # of connection points: 2
#     Edge 55, Type (0, 1), BuildingBlock: TEMPAE_clean_linker_10, # of connection points: 2
#     Edge 56, Type (0, 1), BuildingBlock: TEMPAE_clean_linker_10, # of connection points: 2
#     Edge 57, Type (0, 1), BuildingBlock: TEMPAE_clean_linker_10, # of connection points: 2
#     Edge 58, Type (0, 1), BuildingBlock: TEMPAE_clean_linker_10, # of connection points: 2
#     Edge 59, Type (0, 1), BuildingBlock: TEMPAE_clean_linker_10, # of connection points: 2
#     Edge 60, Type (0, 1), BuildingBlock: TEMPAE_clean_linker_10, # of connection points: 2
#     Edge 61, Type (0, 1), BuildingBlock: TEMPAE_clean_linker_10, # of connection points: 2
#     Edge 62, Type (0, 1), BuildingBlock: TEMPAE_clean_linker_10, # of connection points: 2
#     Edge 63, Type (0, 1), BuildingBlock: TEMPAE_clean_linker_10, # of connection points: 2
#     Edge 64, Type (0, 1), BuildingBlock: TEMPAE_clean_linker_10, # of connection points: 2
#     Edge 65, Type (0, 1), BuildingBlock: TEMPAE_clean_linker_10, # of connection points: 2
#     Edge 66, Type (0, 1), BuildingBlock: TEMPAE_clean_linker_10, # of connection points: 2
#     Edge 67, Type (0, 1), BuildingBlock: TEMPAE_clean_linker_10, # of connection points: 2
#     Edge 68, Type (0, 1), BuildingBlock: TEMPAE_clean_linker_10, # of connection points: 2
#     Edge 69, Type (0, 1), BuildingBlock: TEMPAE_clean_linker_10, # of connection points: 2
#     Edge 70, Type (0, 1), BuildingBlock: TEMPAE_clean_linker_10, # of connection points: 2
#     Edge 71, Type (0, 1), BuildingBlock: TEMPAE_clean_linker_10, # of connection points: 2
#     Edge 72, Type (0, 1), BuildingBlock: TEMPAE_clean_linker_10, # of connection points: 2
#     Edge 73, Type (0, 1), BuildingBlock: TEMPAE_clean_linker_10, # of connection points: 2
#     Edge 74, Type (0, 1), BuildingBlock: TEMPAE_clean_linker_10, # of connection points: 2
#     Edge 75, Type (0, 1), BuildingBlock: TEMPAE_clean_linker_10, # of connection points: 2
# Relax obj value: 0.092
# Max RMSD: 0.206
# Mean RMSD: 0.137
data_MOF--net-ctn--node1-KUFVIS_clean_sbu_0--node2-CUQRIR_clean_linker_1--edge1-TEMPAE_clean_linker_10
_symmetry_space_group_name_H-M    P1
_symmetry_Int_Tables_number       1
_symmetry_cell_setting            triclinic
loop_
_symmetry_equiv_pos_as_xyz
'x, y, z'
_cell_length_a     51.546858
_cell_length_b     47.783131
_cell_length_c     49.401414
_cell_angle_alpha  97.272125
_cell_angle_beta   89.326052
_cell_angle_gamma 93.930054
loop_
_atom_site_label
_atom_site_type_symbol
_atom_site_fract_x
_atom_site_fract_y
_atom_site_fract_z
_atom_type_partial_charge
C0 C 0.05571 0.02649 0.09141 0.0
N1 N 0.06571 0.03959 0.07043 0.0
N2 N 0.03719 0.04161 0.10473 0.0
C3 C 0.06486 0.99959 0.09971 0.0
C4 C 0.03626 0.06446 0.09128 0.0
N5 N 0.05383 0.0635 0.07058 0.0
C6 C 0.01693 0.08669 0.09715 0.0
H7 H 0.0561 0.98138 0.08587 0.0
H8 H 0.05903 0.99696 0.12098 0.0
H9 H 0.08632 0.99936 0.09781 0.0
H10 H 0.02698 0.10617 0.10787 0.0
H11 H 1.0007 0.07967 0.11018 0.0
H12 H 1.00891 0.09204 0.07784 0.0
C13 C 0.32461 0.72168 0.19607 0.0
N14 N 0.3316 0.70999 0.21822 0.0
N15 N 0.33741 0.74723 0.19507 0.0
C16 C 0.30465 0.70804 0.17562 0.0
C17 C 0.35317 0.75036 0.21721 0.0
N18 N 0.34965 0.72773 0.23133 0.0
C19 C 0.36963 0.77692 0.22677 0.0
H20 H 0.30815 0.71544 0.1554 0.0
H21 H 0.28495 0.71345 0.18287 0.0
H22 H 0.30515 0.68467 0.17352 0.0
H23 H 0.36041 0.79583 0.22153 0.0
H24 H 0.3888 0.776 0.21635 0.0
H25 H 0.37279 0.77919 0.24914 0.0
C26 C 0.97958 0.5157 0.08531 0.0
N27 N 0.99648 0.49503 0.08399 0.0
N28 N 0.96415 0.51222 0.06301 0.0
C29 C 0.97901 0.54015 0.10768 0.0
C30 C 0.97224 0.4887 0.04801 0.0
N31 N 0.99225 0.47838 0.06052 0.0
C32 C 0.95867 0.47433 0.02262 0.0
H33 H 0.96671 0.53359 0.12466 0.0
H34 H 0.97071 0.55862 0.10033 0.0
H35 H 0.99885 0.54647 0.11573 0.0
H36 H 0.96902 0.48099 1.00444 0.0
H37 H 0.93828 0.48027 0.02196 0.0
H38 H 0.95865 0.451 0.02157 0.0
C39 C 0.66484 0.80957 0.22099 0.0
N40 N 0.68653 0.81951 0.20849 0.0
N41 N 0.65916 0.82737 0.24355 0.0
C42 C 0.64991 0.78178 0.21198 0.0
C43 C 0.67801 0.84865 0.24416 0.0
N44 N 0.69453 0.84407 0.22269 0.0
C45 C 0.68114 0.87321 0.26657 0.0
H46 H 0.62899 0.78265 0.21699 0.0
H47 H 0.65764 0.76515 0.22279 0.0
H48 H 0.65186 0.77565 0.18967 0.0
H49 H 0.70142 0.87545 0.27425 0.0
H50 H 0.66751 0.8711 0.28377 0.0
H51 H 0.67718 0.89298 0.25829 0.0
C52 C 0.03377 0.98361 0.50477 0.0
N53 N 0.05454 0.98617 0.52168 0.0
N54 N 0.03636 1.00265 0.48664 0.0
C55 C 0.01113 0.96212 0.50563 0.0
C56 C 0.05957 0.01683 0.49303 0.0
N57 N 0.07065 1.00689 0.51438 0.0
C58 C 0.07098 0.04141 0.47945 0.0
H59 H 0.01732 0.94253 0.51283 0.0
H60 H 1.002 0.95676 0.48524 0.0
H61 H 0.99636 0.9711 0.52014 0.0
H62 H 0.06185 0.04265 0.45951 0.0
H63 H 0.09225 0.03992 0.47662 0.0
H64 H 0.0679 0.06136 0.49286 0.0
C65 C 0.17306 0.70967 0.84235 0.0
N66 N 0.19416 0.70067 0.85389 0.0
N67 N 0.16659 0.69279 0.81899 0.0
C68 C 0.16028 0.73651 0.85245 0.0
C69 C 0.18464 0.67331 0.81664 0.0
N70 N 0.20177 0.67837 0.83765 0.0
C71 C 0.1843 0.64832 0.79477 0.0
H72 H 0.15448 0.74728 0.83506 0.0
H73 H 0.17317 0.75142 0.86613 0.0
H74 H 0.14247 0.73108 0.86404 0.0
H75 H 0.19628 0.65394 0.7772 0.0
H76 H 0.16418 0.64233 0.78741 0.0
H77 H 0.19238 0.62992 0.80252 0.0
C78 C 0.97273 0.53645 0.4693 0.0
N79 N 0.99254 0.55626 0.46734 0.0
N80 N 0.95416 0.54669 0.48679 0.0
C81 C 0.97262 0.5064 0.45575 0.0
C82 C 0.96341 0.57356 0.49524 0.0
N83 N 0.98666 0.57938 0.48347 0.0
C84 C 0.94955 0.59465 0.51443 0.0
H85 H 0.96234 0.50458 0.43593 0.0
H86 H 0.96241 0.49169 0.46864 0.0
H87 H 0.99276 0.50008 0.45174 0.0
H88 H 0.95689 0.59452 0.53544 0.0
H89 H 0.92823 0.5896 0.51417 0.0
H90 H 0.95354 0.61625 0.50876 0.0
C91 C 0.81193 0.84687 0.85969 0.0
N92 N 0.83112 0.82899 0.8534 0.0
N93 N 0.80899 0.86322 0.83951 0.0
C94 C 0.79557 0.84771 0.88521 0.0
C95 C 0.82702 0.85448 0.82066 0.0
N96 N 0.84029 0.83362 0.82898 0.0
C97 C 0.83122 0.86582 0.79372 0.0
H98 H 0.78126 0.82913 0.88322 0.0
H99 H 0.78511 0.86734 0.88894 0.0
H100 H 0.80778 0.84649 0.90326 0.0
H101 H 0.84522 0.88463 0.79664 0.0
H102 H 0.81272 0.87225 0.78592 0.0
H103 H 0.83938 0.85004 0.77814 0.0
C104 C 0.31791 0.34488 0.3579 0.0
N105 N 0.33715 0.32698 0.35213 0.0
N106 N 0.31592 0.3617 0.33795 0.0
C107 C 0.30065 0.3454 0.38277 0.0
C108 C 0.33462 0.35326 0.31978 0.0
N109 N 0.34736 0.3321 0.32826 0.0
C110 C 0.33996 0.36509 0.29325 0.0
H111 H 0.28598 0.32718 0.3798 0.0
H112 H 0.29058 0.36529 0.3866 0.0
H113 H 0.3121 0.34336 0.40116 0.0
H114 H 0.35417 0.38367 0.29695 0.0
H115 H 0.3219 0.37199 0.28491 0.0
H116 H 0.34839 0.34938 0.27778 0.0
C117 C 0.47375 1.01179 0.5802 0.0
N118 N 0.49089 0.99139 0.57943 0.0
N119 N 0.45847 1.00766 0.55777 0.0
C120 C 0.47285 0.03663 0.60212 0.0
C121 C 0.46691 0.98405 0.54325 0.0
N122 N 0.48696 0.97429 0.55618 0.0
C123 C 0.45365 0.96903 0.51795 0.0
H124 H 0.4604 0.03035 0.61911 0.0
H125 H 0.46452 0.05481 0.59426 0.0
H126 H 0.49258 0.04326 0.61031 0.0
H127 H 0.46408 0.97542 0.4997 0.0
H128 H 0.43319 0.97466 0.51695 0.0
H129 H 0.45387 0.94576 0.51736 0.0
C130 C 0.17011 0.31193 0.72373 0.0
N131 N 0.19203 0.32181 0.71157 0.0
N132 N 0.16384 0.33006 0.74582 0.0
C133 C 0.15543 0.28398 0.71479 0.0
C134 C 0.18256 0.35148 0.74651 0.0
N135 N 0.19955 0.34668 0.72549 0.0
C136 C 0.18506 0.37639 0.76859 0.0
H137 H 0.13445 0.28471 0.71953 0.0
H138 H 0.16315 0.26754 0.72586 0.0
H139 H 0.15766 0.27767 0.69253 0.0
H140 H 0.20526 0.37927 0.7765 0.0
H141 H 0.17134 0.37426 0.78572 0.0
H142 H 0.18074 0.39584 0.75992 0.0
C143 C 0.81879 0.22253 0.70625 0.0
N144 N 0.82748 0.21031 0.72735 0.0
N145 N 0.83117 0.24831 0.70513 0.0
C146 C 0.79773 0.20913 0.68697 0.0
C147 C 0.84815 0.25112 0.72627 0.0
N148 N 0.84586 0.22805 0.73988 0.0
C149 C 0.8648 0.27765 0.73544 0.0
H150 H 0.79872 0.18582 0.68375 0.0
H151 H 0.79946 0.21735 0.66696 0.0
H152 H 0.77846 0.21374 0.69607 0.0
H153 H 0.85525 0.29663 0.73089 0.0
H154 H 0.88359 0.27689 0.72427 0.0
H155 H 0.8688 0.27965 0.75765 0.0
C156 C 0.54919 0.52882 0.59764 0.0
N157 N 0.5587 0.54021 0.57549 0.0
N158 N 0.53149 0.54521 0.6108 0.0
C159 C 0.55793 0.50226 0.60711 0.0
C160 C 0.53057 0.56709 0.59605 0.0
N161 N 0.54739 0.56433 0.5747 0.0
C162 C 0.512 0.59014 0.60148 0.0
H163 H 0.54865 0.48368 0.59417 0.0
H164 H 0.55242 0.50085 0.62869 0.0
H165 H 0.57933 0.50142 0.60486 0.0
H166 H 0.5229 0.60987 0.61052 0.0
H167 H 0.49631 0.5846 0.61582 0.0
H168 H 0.50322 0.59432 0.5821 0.0
C169 C 0.53324 0.49203 0.01663 0.0
N170 N 0.55654 0.49223 0.02916 0.0
N171 N 0.53342 0.51254 1.00006 0.0
C172 C 0.5109 0.47044 0.01906 0.0
C173 C 0.55768 0.52524 1.003 0.0
N174 N 0.57206 0.5126 0.02027 0.0
C175 C 0.56651 0.55153 0.99057 0.0
H176 H 0.51749 0.45092 0.026 0.0
H177 H 0.50078 0.46481 0.99922 0.0
H178 H 0.49675 0.47962 0.03418 0.0
H179 H 0.5497 0.56409 0.98746 0.0
H180 H 0.57557 0.54556 0.97038 0.0
H181 H 0.58101 0.56483 1.00382 0.0
C182 C 0.69583 0.21864 0.32237 0.0
N183 N 0.70939 0.20986 0.34282 0.0
N184 N 0.6863 0.19663 0.30478 0.0
C185 C 0.69422 0.24896 0.31737 0.0
C186 C 0.69542 0.17393 0.31422 0.0
N187 N 0.70992 0.18182 0.33708 0.0
C188 C 0.69118 0.14407 0.30037 0.0
H189 H 0.67437 0.25576 0.32223 0.0
H190 H 0.69767 0.25071 0.29541 0.0
H191 H 0.70876 0.26325 0.32967 0.0
H192 H 0.67915 0.14284 0.28176 0.0
H193 H 0.68141 0.13068 0.31475 0.0
H194 H 0.71023 0.13543 0.29475 0.0
C195 C 0.4872 0.02733 0.97883 0.0
N196 N 0.50463 0.04959 0.97699 0.0
N197 N 0.47556 0.02953 1.00366 0.0
C198 C 0.4798 1.00484 0.95552 0.0
C199 C 0.48696 0.05367 0.01689 0.0
N200 N 0.50433 0.06631 1.00065 0.0
C201 C 0.48044 0.06538 0.04573 0.0
H202 H 0.46345 1.01181 0.9442 0.0
H203 H 0.47337 0.98459 0.96298 0.0
H204 H 0.49634 1.00121 0.94124 0.0
H205 H 0.47456 0.04793 0.05784 0.0
H206 H 0.46394 0.07911 0.04572 0.0
H207 H 0.49738 0.07821 0.05549 0.0
Mn208 Mn 0.25775 0.89269 0.02843 0.0
Mn209 Mn 0.25596 0.91217 0.96534 0.0
C210 C 0.23662 0.86282 0.99321 0.0
C211 C 0.27872 0.87072 0.06102 0.0
C212 C 0.22319 0.93769 0.01262 0.0
O213 O 0.28709 0.92381 0.02918 0.0
O214 O 0.28689 0.93112 0.98503 0.0
C215 C 0.30321 0.88682 0.94144 0.0
N216 N 0.27707 0.88932 0.94075 0.0
C217 C 0.27351 0.86075 0.8971 0.0
C218 C 0.30041 0.85796 0.89723 0.0
C219 C 0.31528 0.87081 0.91965 0.0
C220 C 0.26246 0.87622 0.91976 0.0
H221 H 0.31478 0.89711 0.95839 0.0
C222 C 0.297 0.93496 1.00889 0.0
O223 O 0.26249 0.88997 0.06816 0.0
O224 O 0.2831 0.86466 0.03512 0.0
N225 N 0.22718 0.89485 0.94381 0.0
C226 C 0.20148 0.89967 0.94674 0.0
C227 C 0.18384 0.88764 0.92638 0.0
C228 C 0.19287 0.87134 0.90295 0.0
C229 C 0.21946 0.8671 0.90015 0.0
C230 C 0.23607 0.87924 0.92131 0.0
H231 H 0.19445 0.91268 0.96439 0.0
O232 O 0.23092 0.86057 0.01855 0.0
O233 O 0.25414 0.88274 0.98952 0.0
O234 O 0.22993 0.92181 0.02989 0.0
O235 O 0.23293 0.93667 0.98864 0.0
C236 C 0.23022 0.85185 0.87692 0.0
C237 C 0.25727 0.84901 0.87526 0.0
H238 H 0.30984 0.84599 0.88026 0.0
H239 H 0.33605 0.86872 0.91994 0.0
H240 H 0.16337 0.89118 0.92861 0.0
H241 H 0.17925 0.86232 0.88717 0.0
H242 H 0.2179 0.8424 0.86014 0.0
H243 H 0.26537 0.83748 0.85719 0.0
Mn244 Mn 0.165 0.53205 0.27627 0.0
Mn245 Mn 0.14153 0.59606 0.27559 0.0
C246 C 0.18968 0.56816 0.25826 0.0
C247 C 0.18817 0.4994 0.29572 0.0
C248 C 0.12359 0.54454 0.23616 0.0
O249 O 0.13579 0.53175 0.305 0.0
O250 O 0.12356 0.5759 0.30369 0.0
C251 C 0.1589 0.62304 0.33026 0.0
N252 N 0.15822 0.62312 0.30272 0.0
C253 C 0.1779 0.67052 0.30653 0.0
C254 C 0.17881 0.67101 0.33495 0.0
C255 C 0.16954 0.64703 0.34683 0.0
C256 C 0.168 0.64563 0.29101 0.0
H257 H 0.15115 0.60492 0.3395 0.0
C258 C 0.12215 0.55247 0.31379 0.0
O259 O 0.17075 0.49151 0.27711 0.0
O260 O 0.19142 0.52629 0.30407 0.0
N261 N 0.15749 0.61838 0.24969 0.0
C262 C 0.15623 0.61397 0.22193 0.0
C263 C 0.16551 0.63558 0.20681 0.0
C264 C 0.17506 0.6618 0.22042 0.0
C265 C 0.17585 0.66592 0.24902 0.0
C266 C 0.16737 0.64323 0.26293 0.0
H267 H 0.14801 0.59421 0.21144 0.0
O268 O 0.19387 0.54185 0.25072 0.0
O269 O 0.1711 0.57256 0.27587 0.0
O270 O 0.13851 0.52768 0.24513 0.0
O271 O 0.12298 0.57038 0.24641 0.0
C272 C 0.18432 0.69179 0.26432 0.0
C273 C 0.18583 0.69393 0.29302 0.0
H274 H 0.18647 0.68972 0.34784 0.0
H275 H 0.17014 0.64723 0.36875 0.0
H276 H 0.16476 0.63226 0.18475 0.0
H277 H 0.18167 0.67864 0.20871 0.0
H278 H 0.19037 0.70997 0.25416 0.0
H279 H 0.19308 0.71369 0.30449 0.0
Mn280 Mn 0.77803 0.65126 0.02044 0.0
Mn281 Mn 0.72454 0.66583 0.98742 0.0
C282 C 0.73868 0.62547 0.02616 0.0
C283 C 0.81626 0.62787 0.02314 0.0
C284 C 0.74247 0.69938 0.04044 0.0
O285 O 0.79394 0.67506 0.99188 0.0
O286 O 0.75648 0.68594 0.97475 0.0
C287 C 0.74094 0.63546 0.93466 0.0
N288 N 0.72276 0.63959 0.95477 0.0
C289 C 0.69248 0.60526 0.9303 0.0
C290 C 0.71084 0.60067 0.90932 0.0
C291 C 0.73526 0.61569 0.91163 0.0
C292 C 0.69963 0.62443 0.95327 0.0
H293 H 0.75962 0.6472 0.93611 0.0
C294 C 0.78126 0.6884 0.97625 0.0
O295 O 0.81266 0.6516 0.03818 0.0
O296 O 0.79802 0.6182 1.00586 0.0
N297 N 0.69113 0.649 0.99589 0.0
C298 C 0.67403 0.65976 0.01507 0.0
C299 C 0.64808 0.64871 0.01463 0.0
C300 C 0.63962 0.62733 0.99393 0.0
C301 C 0.65693 0.61812 0.97317 0.0
C302 C 0.68266 0.62981 0.97477 0.0
H303 H 0.68013 0.67676 0.03059 0.0
O304 O 0.75731 0.62667 0.0437 0.0
O305 O 0.74379 0.63863 1.00487 0.0
O306 O 0.76349 0.6868 0.04165 0.0
O307 O 0.7255 0.69262 0.02155 0.0
C308 C 0.64918 0.59914 0.95007 0.0
C309 C 0.6671 0.59224 0.92891 0.0
H310 H 0.70629 0.58591 0.89124 0.0
H311 H 0.74954 0.61231 0.89552 0.0
H312 H 0.63454 0.65691 0.03007 0.0
H313 H 0.61952 0.619 0.99354 0.0
H314 H 0.6294 0.58986 0.94829 0.0
H315 H 0.66093 0.57753 0.91129 0.0
Mn316 Mn 0.87165 1.01008 0.29355 0.0
Mn317 Mn 0.89559 0.94554 0.28709 0.0
C318 C 0.85 0.97187 0.2673 0.0
C319 C 0.84589 0.04448 0.3155 0.0
C320 C 0.91749 0.99312 0.25652 0.0
O321 O 0.89793 0.01385 0.32501 0.0
O322 O 0.91001 0.969 0.3201 0.0
C323 C 0.87051 0.92499 0.33578 0.0
N324 N 0.87513 0.92154 0.30841 0.0
C325 C 0.85053 0.87658 0.3028 0.0
C326 C 0.84575 0.87947 0.33098 0.0
C327 C 0.85563 0.90389 0.34751 0.0
C328 C 0.86521 0.89847 0.29224 0.0
H329 H 0.87807 0.94372 0.34854 0.0
C330 C 0.91061 0.99414 0.33275 0.0
O331 O 0.86512 0.051 0.29982 0.0
O332 O 0.84218 0.01817 0.31945 0.0
N333 N 0.88298 0.92037 0.25614 0.0
C334 C 0.88801 0.92165 0.22917 0.0
C335 C 0.87878 0.89925 0.20977 0.0
C336 C 0.86494 0.87556 0.21834 0.0
C337 C 0.86017 0.87465 0.24623 0.0
C338 C 0.86958 0.89773 0.26458 0.0
H339 H 0.899 0.93961 0.22251 0.0
O340 O 0.84598 0.99758 0.26348 0.0
O341 O 0.86624 0.96932 0.28657 0.0
O342 O 0.90119 1.0109 0.26563 0.0
O343 O 0.91766 0.96841 0.26381 0.0
C344 C 0.84651 0.85172 0.25656 0.0
C345 C 0.84131 0.85287 0.28476 0.0
H346 H 0.83439 0.86317 0.34012 0.0
H347 H 0.85187 0.90637 0.36925 0.0
H348 H 0.88251 0.90013 0.18828 0.0
H349 H 0.858 0.85824 0.20332 0.0
H350 H 0.83973 0.83318 0.24295 0.0
H351 H 0.83024 0.83539 0.29236 0.0
Mn352 Mn 0.27485 0.1509 0.51832 0.0
Mn353 Mn 0.22104 0.1707 0.48945 0.0
C354 C 0.23483 0.12628 0.52408 0.0
C355 C 0.31224 0.12566 0.51869 0.0
C356 C 0.24288 0.20049 0.54252 0.0
O357 O 0.29056 0.17516 0.49015 0.0
O358 O 0.25329 0.18913 0.47507 0.0
C359 C 0.23107 0.14278 0.43363 0.0
N360 N 0.2149 0.1473 0.45551 0.0
C361 C 0.17937 0.12059 0.43101 0.0
C362 C 0.19561 0.11571 0.40817 0.0
C363 C 0.22163 0.12668 0.40956 0.0
C364 C 0.19003 0.13633 0.45458 0.0
H365 H 0.25096 0.15153 0.43448 0.0
C366 C 0.27815 0.1897 0.47536 0.0
O367 O 0.30971 0.14905 0.5346 0.0
O368 O 0.29332 0.11724 0.5018 0.0
N369 N 0.18782 0.15545 0.50021 0.0
C370 C 0.17493 0.16153 0.52423 0.0
C371 C 0.14859 0.15244 0.52619 0.0
C372 C 0.13576 0.13712 0.50348 0.0
C373 C 0.1494 0.13112 0.47897 0.0
C374 C 0.17554 0.14105 0.47813 0.0
H375 H 0.1846 0.17351 0.54165 0.0
O376 O 0.2538 0.12624 0.54109 0.0
O377 O 0.23974 0.14061 0.50347 0.0
O378 O 0.26308 0.18641 0.5421 0.0
O379 O 0.22525 0.1957 0.52429 0.0
C380 C 0.13802 0.11591 0.45526 0.0
C381 C 0.15305 0.11048 0.43134 0.0
H382 H 0.18833 0.10354 0.38948 0.0
H383 H 0.2343 0.12298 0.39203 0.0
H384 H 0.13813 0.1574 0.54512 0.0
H385 H 0.11542 0.13019 0.50503 0.0
H386 H 0.11782 0.10797 0.45531 0.0
H387 H 0.1442 0.0984 0.41337 0.0
Mn388 Mn 0.37146 0.51467 0.80416 0.0
Mn389 Mn 0.39696 0.45094 0.79721 0.0
C390 C 0.35169 0.47669 0.77601 0.0
C391 C 0.34435 0.54785 0.82579 0.0
C392 C 0.41882 0.49987 0.76854 0.0
O393 O 0.39608 0.51814 0.83685 0.0
O394 O 0.41012 0.47415 0.83101 0.0
C395 C 0.37117 0.42876 0.84477 0.0
N396 N 0.37639 0.42603 0.81751 0.0
C397 C 0.35265 0.38061 0.81049 0.0
C398 C 0.34718 0.38281 0.83852 0.0
C399 C 0.35634 0.40708 0.8557 0.0
C400 C 0.36722 0.40305 0.80072 0.0
H401 H 0.37824 0.44734 0.85805 0.0
C402 C 0.40932 0.49885 0.84441 0.0
O403 O 0.36441 0.55539 0.81164 0.0
O404 O 0.34063 0.52116 0.82835 0.0
N405 N 0.38565 0.42598 0.76558 0.0
C406 C 0.3915 0.4278 0.73886 0.0
C407 C 0.38318 0.40551 0.7189 0.0
C408 C 0.36944 0.38138 0.72667 0.0
C409 C 0.36384 0.37991 0.75432 0.0
C410 C 0.37234 0.4029 0.77325 0.0
H411 H 0.40242 0.4461 0.73281 0.0
O412 O 0.34742 0.50246 0.77258 0.0
O413 O 0.36712 0.47395 0.79594 0.0
O414 O 0.40221 0.51715 0.77796 0.0
O415 O 0.4191 0.4748 0.77493 0.0
C416 C 0.35026 0.35649 0.76387 0.0
C417 C 0.34429 0.35701 0.79186 0.0
H418 H 0.33589 0.36605 0.84705 0.0
H419 H 0.35209 0.40901 0.87734 0.0
H420 H 0.38756 0.40682 0.6976 0.0
H421 H 0.36323 0.36414 0.71123 0.0
H422 H 0.34417 0.33801 0.74982 0.0
H423 H 0.33332 0.33912 0.79884 0.0
Mn424 Mn 0.75273 0.39201 0.53644 0.0
Mn425 Mn 0.74975 0.41194 0.47333 0.0
C426 C 0.73482 0.36045 0.50093 0.0
C427 C 0.77397 0.37134 0.56978 0.0
C428 C 0.71373 0.43257 0.51942 0.0
O429 O 0.7801 0.42486 0.53806 0.0
O430 O 0.77693 0.43606 0.4952 0.0
C431 C 0.80159 0.39816 0.4511 0.0
N432 N 0.77518 0.39513 0.44923 0.0
C433 C 0.7774 0.3698 0.40404 0.0
C434 C 0.80463 0.37267 0.40546 0.0
C435 C 0.81676 0.38674 0.42917 0.0
C436 C 0.76331 0.38138 0.42663 0.0
H437 H 0.81099 0.40943 0.46907 0.0
C438 C 0.7871 0.43949 0.51903 0.0
O439 O 0.75659 0.38946 0.57632 0.0
O440 O 0.77952 0.36587 0.54408 0.0
N441 N 0.72462 0.39012 0.44987 0.0
C442 C 0.69825 0.38789 0.45247 0.0
C443 C 0.68315 0.37334 0.43101 0.0
C444 C 0.69531 0.36155 0.40704 0.0
C445 C 0.72251 0.36385 0.40499 0.0
C446 C 0.73652 0.37851 0.42707 0.0
H447 H 0.68882 0.39737 0.47067 0.0
O448 O 0.72808 0.35852 0.52609 0.0
O449 O 0.75106 0.38176 0.4971 0.0
O450 O 0.72295 0.41914 0.5375 0.0
O451 O 0.72251 0.43095 0.49515 0.0
C452 C 0.73625 0.35224 0.3819 0.0
C453 C 0.76368 0.35532 0.38138 0.0
H454 H 0.81641 0.36393 0.38857 0.0
H455 H 0.83777 0.38901 0.43043 0.0
H456 H 0.66218 0.37146 0.43281 0.0
H457 H 0.68359 0.35057 0.39044 0.0
H458 H 0.72594 0.34076 0.36451 0.0
H459 H 0.77404 0.34606 0.36363 0.0
Mn460 Mn 0.65893 0.03077 0.77215 0.0
Mn461 Mn 0.63696 0.09515 0.76958 0.0
C462 C 0.6851 0.06585 0.75413 0.0
C463 C 0.68072 0.99835 0.7935 0.0
C464 C 0.61811 0.04278 0.73152 0.0
O465 O 0.62879 0.03199 0.79986 0.0
O466 O 0.61897 0.0772 0.79924 0.0
C467 C 0.65582 0.12469 0.82275 0.0
N468 N 0.65485 0.12305 0.79506 0.0
C469 C 0.67676 0.1692 0.79585 0.0
C470 C 0.67778 0.17155 0.82441 0.0
C471 C 0.66757 0.14902 0.83789 0.0
C472 C 0.66563 0.14405 0.78183 0.0
H473 H 0.64756 0.10763 0.83319 0.0
C474 C 0.6164 0.05359 0.80905 0.0
O475 O 0.66378 0.99024 0.77443 0.0
O476 O 0.68418 0.02534 0.80122 0.0
N477 N 0.65311 0.11517 0.742 0.0
C478 C 0.65079 0.10945 0.71436 0.0
C479 C 0.6612 0.12926 0.69777 0.0
C480 C 0.67317 0.15508 0.70977 0.0
C481 C 0.67478 0.16075 0.73827 0.0
C482 C 0.66471 0.13989 0.75373 0.0
H483 H 0.64103 0.08997 0.70503 0.0
O484 O 0.68895 0.03931 0.74749 0.0
O485 O 0.66592 0.07093 0.77083 0.0
O486 O 0.6335 0.02617 0.74011 0.0
O487 O 0.61724 0.06855 0.74192 0.0
C488 C 0.68535 0.18659 0.75197 0.0
C489 C 0.68607 0.19092 0.78076 0.0
H490 H 0.68641 0.1905 0.83618 0.0
H491 H 0.66838 0.1506 0.85992 0.0
H492 H 0.65968 0.12481 0.6758 0.0
H493 H 0.68084 0.17048 0.69693 0.0
H494 H 0.69299 0.20328 0.74057 0.0
H495 H 0.69435 0.21083 0.79106 0.0
Mn496 Mn 1.0088 0.24772 0.91429 0.0
Mn497 Mn 0.95264 0.24081 0.94881 0.0
C498 C 0.97152 0.22613 0.8921 0.0
C499 C 0.0381 0.27137 0.88751 0.0
C500 C 0.99882 0.20586 0.95574 0.0
O501 O 0.01439 0.27748 0.94806 0.0
O502 O 0.97432 0.27381 0.96688 0.0
C503 C 0.92917 0.29334 0.93846 0.0
N504 N 0.92774 0.26464 0.9372 0.0
C505 C 0.88508 0.26096 0.91729 0.0
C506 C 0.88586 0.29051 0.91893 0.0
C507 C 0.9081 0.30676 0.92937 0.0
C508 C 0.90666 0.24878 0.92667 0.0
H509 H 0.94636 0.30588 0.94604 0.0
C510 C 0.99728 0.28592 0.96577 0.0
O511 O 0.04536 0.25254 0.902 0.0
O512 O 0.01396 0.27763 0.88946 0.0
N513 N 0.93002 0.21 0.93247 0.0
C514 C 0.93347 0.18176 0.92964 0.0
C515 C 0.91372 0.16254 0.9178 0.0
C516 C 0.89056 0.17253 0.90923 0.0
C517 C 0.88748 0.20169 0.91234 0.0
C518 C 0.90788 0.21983 0.92413 0.0
H519 H 0.95119 0.17395 0.93627 0.0
O520 O 0.99444 0.22047 0.88268 0.0
O521 O 0.97135 0.24348 0.91451 0.0
O522 O 0.01264 0.21556 0.93714 0.0
O523 O 0.97644 0.21457 0.96239 0.0
C524 C 0.86508 0.21347 0.9039 0.0
C525 C 0.86394 0.24309 0.90621 0.0
H526 H 0.8697 0.30092 0.91181 0.0
H527 H 0.90903 0.32955 0.93032 0.0
H528 H 0.9163 0.14008 0.91536 0.0
H529 H 0.87538 0.15765 0.90007 0.0
H530 H 0.84879 0.19994 0.89518 0.0
H531 H 0.84687 0.2519 0.89903 0.0
Mn532 Mn 0.50505 0.74343 0.41212 0.0
Mn533 Mn 0.44814 0.73688 0.44533 0.0
C534 C 0.46807 0.72233 0.38902 0.0
C535 C 0.53495 0.7672 0.38605 0.0
C536 C 0.49386 0.7016 0.45337 0.0
O537 O 0.51018 0.77297 0.44609 0.0
O538 O 0.46964 0.76976 0.46391 0.0
C539 C 0.42523 0.78957 0.43454 0.0
N540 N 0.4237 0.76085 0.43307 0.0
C541 C 0.3818 0.75739 0.41149 0.0
C542 C 0.38269 0.78696 0.4133 0.0
C543 C 0.40459 0.8031 0.42471 0.0
C544 C 0.40292 0.74509 0.42171 0.0
H545 H 0.44218 0.80204 0.44284 0.0
C546 C 0.49276 0.7816 0.46336 0.0
O547 O 0.54187 0.74817 0.40051 0.0
O548 O 0.51083 0.77352 0.38762 0.0
N549 N 0.42576 0.70618 0.42836 0.0
C550 C 0.42912 0.67792 0.4256 0.0
C551 C 0.40971 0.65881 0.41293 0.0
C552 C 0.38701 0.66892 0.40338 0.0
C553 C 0.38401 0.69809 0.40643 0.0
C554 C 0.40403 0.71613 0.41916 0.0
H555 H 0.44651 0.67002 0.43291 0.0
O556 O 0.4911 0.71647 0.38009 0.0
O557 O 0.46763 0.73951 0.41152 0.0
O558 O 0.50813 0.71106 0.43496 0.0
O559 O 0.47147 0.71055 0.45953 0.0
C560 C 0.36211 0.70999 0.39699 0.0
C561 C 0.36105 0.73963 0.39941 0.0
H562 H 0.36688 0.79745 0.40557 0.0
H563 H 0.40561 0.82591 0.4258 0.0
H564 H 0.41223 0.63633 0.41053 0.0
H565 H 0.37212 0.65412 0.39353 0.0
H566 H 0.34614 0.69655 0.38743 0.0
H567 H 0.34435 0.74853 0.39154 0.0
Mn568 Mn 0.01754 0.78317 0.64892 0.0
Mn569 Mn 0.98529 0.72089 0.65824 0.0
C570 C 0.02006 0.74393 0.61587 0.0
C571 C 0.0221 0.82778 0.63314 0.0
C572 C 0.03675 0.73999 0.68444 0.0
O573 O 0.99149 0.79581 0.67907 0.0
O574 O 0.9748 0.75239 0.68518 0.0
C575 C 0.93351 0.7368 0.6426 0.0
N576 N 0.95267 0.71838 0.63987 0.0
C577 C 0.92582 0.68406 0.61097 0.0
C578 C 0.90577 0.70264 0.61347 0.0
C579 C 0.90972 0.72922 0.62916 0.0
C580 C 0.94932 0.6931 0.62424 0.0
H581 H 0.93631 0.757 0.65509 0.0
C582 C 0.97698 0.77913 0.69191 0.0
O583 O 0.03633 0.82149 0.65268 0.0
O584 O 1.0042 0.80868 0.62371 0.0
N585 N 0.99239 0.68736 0.63476 0.0
C586 C 0.01352 0.67177 0.63491 0.0
C587 C 0.01247 0.64423 0.62102 0.0
C588 C 0.98981 0.63302 0.60695 0.0
C589 C 0.96817 0.64927 0.60738 0.0
C590 C 0.9702 0.67643 0.62195 0.0
H591 H 0.03082 0.68004 0.64611 0.0
O592 O 0.03794 0.76452 0.61808 0.0
O593 O 1.0006 0.74669 0.63302 0.0
O594 O 0.03818 0.76447 0.67647 0.0
O595 O 0.0184 0.72126 0.67757 0.0
C596 C 0.94447 0.63937 0.59445 0.0
C597 C 0.92338 0.65686 0.59603 0.0
H598 H 0.88726 0.6967 0.60346 0.0
H599 H 0.89433 0.74367 0.63121 0.0
H600 H 0.02905 0.63156 0.62137 0.0
H601 H 0.9891 0.61176 0.59622 0.0
H602 H 0.94231 0.61843 0.58308 0.0
H603 H 0.90537 0.64916 0.58572 0.0
Mn604 Mn 0.52582 0.28346 0.14909 0.0
Mn605 Mn 0.4907 0.22285 0.15845 0.0
C606 C 0.52733 0.24413 0.11632 0.0
C607 C 0.53158 0.32811 0.13373 0.0
C608 C 0.54351 0.23801 0.18316 0.0
O609 O 0.50091 0.29733 0.17999 0.0
O610 O 0.48281 0.25467 0.18616 0.0
C611 C 0.44152 0.24538 0.14329 0.0
N612 N 0.45869 0.22475 0.13981 0.0
C613 C 0.43094 0.19646 0.10671 0.0
C614 C 0.41296 0.21736 0.10995 0.0
C615 C 0.41839 0.24205 0.12816 0.0
C616 C 0.45421 0.20153 0.12145 0.0
H617 H 0.44538 0.26421 0.15754 0.0
C618 C 0.48618 0.28124 0.19318 0.0
O619 O 0.54596 0.32102 0.1528 0.0
O620 O 0.51294 0.30981 0.12458 0.0
N621 N 0.49445 0.18849 0.13469 0.0
C622 C 0.51046 0.16786 0.13887 0.0
C623 C 0.50644 0.14074 0.12432 0.0
C624 C 0.4854 0.13461 0.10636 0.0
C625 C 0.46776 0.15522 0.10427 0.0
C626 C 0.47284 0.182 0.11919 0.0
H627 H 0.52609 0.172 0.15347 0.0
O628 O 0.54529 0.26453 0.11772 0.0
O629 O 0.50791 0.24759 0.13341 0.0
O630 O 0.5457 0.26273 0.17557 0.0
O631 O 0.52406 0.22025 0.17702 0.0
C632 C 0.44436 0.14951 0.08955 0.0
C633 C 0.42624 0.17037 0.09023 0.0
H634 H 0.39478 0.21452 0.09884 0.0
H635 H 0.4046 0.25827 0.13084 0.0
H636 H 0.51934 0.12444 0.12727 0.0
H637 H 0.4822 0.11356 0.09543 0.0
H638 H 0.43997 0.12899 0.07788 0.0
H639 H 0.40831 0.16572 0.07881 0.0
C640 C 0.19928 0.71634 0.90273 0.0
C641 C 0.20856 0.71649 0.87606 0.0
C642 C 0.20772 0.73776 0.92347 0.0
C643 C 0.2247 0.76054 0.91686 0.0
C644 C 0.23605 0.75902 0.89044 0.0
C645 C 0.22791 0.7368 0.8704 0.0
C646 C 0.19734 0.73679 0.95205 0.0
C647 C 0.25568 0.78116 0.88215 0.0
C648 C 0.21053 0.83074 0.95809 0.0
C649 C 0.2334 0.83738 0.97307 0.0
C650 C 0.20798 0.80637 0.93887 0.0
C651 C 0.22787 0.78703 0.93641 0.0
C652 C 0.2505 0.79312 0.95262 0.0
C653 C 0.25327 0.81863 0.97019 0.0
C654 C 0.18437 0.80179 0.92062 0.0
C655 C 0.27178 0.77284 0.95135 0.0
H656 H 0.18434 0.70037 0.90692 0.0
H657 H 0.23501 0.73663 0.84964 0.0
H658 H 0.21279 0.74398 0.96733 0.0
H659 H 0.18131 0.75112 0.95591 0.0
H660 H 0.18965 0.71513 0.95516 0.0
H661 H 0.24895 0.78887 0.86333 0.0
H662 H 0.25952 0.79932 0.89813 0.0
H663 H 0.27431 0.77134 0.87699 0.0
H664 H 0.1949 0.84484 0.96101 0.0
H665 H 0.27079 0.82363 0.9823 0.0
H666 H 0.1732 0.78176 0.92361 0.0
H667 H 0.19067 0.80002 0.89893 0.0
H668 H 0.17115 0.81927 0.92453 0.0
H669 H 0.2634 0.75086 0.95178 0.0
H670 H 0.2857 0.77827 0.96852 0.0
H671 H 0.28273 0.77342 0.93195 0.0
C672 C 1.00565 0.54842 0.41933 0.0
C673 C 0.01265 0.55478 0.44682 0.0
C674 C 0.02452 0.54565 0.39872 0.0
C675 C 0.05118 0.54966 0.40574 0.0
C676 C 0.05841 0.556 0.43359 0.0
C677 C 0.03897 0.55849 0.45388 0.0
C678 C 0.01586 0.53918 0.36935 0.0
C679 C 0.0866 0.5606 0.44187 0.0
C680 C 0.09892 0.5257 0.34914 0.0
C681 C 0.10466 0.55094 0.33786 0.0
C682 C 0.08215 0.525 0.37186 0.0
C683 C 0.07107 0.55012 0.38362 0.0
C684 C 0.07737 0.5757 0.37276 0.0
C685 C 0.09392 0.57577 0.35012 0.0
C686 C 0.07579 0.49731 0.38291 0.0
C687 C 0.06607 0.60301 0.3846 0.0
H688 H 0.98522 0.54579 0.41401 0.0
H689 H 0.04428 0.56304 0.47521 0.0
H690 H 0.02157 0.55744 0.35824 0.0
H691 H 0.0256 0.52069 0.3591 0.0
H692 H 0.99448 0.53467 0.36751 0.0
H693 H 0.08904 0.56356 0.46439 0.0
H694 H 0.09747 0.54232 0.43306 0.0
H695 H 0.09553 0.57958 0.43365 0.0
H696 H 0.10722 0.50647 0.34002 0.0
H697 H 0.09836 0.59559 0.34201 0.0
H698 H 0.05483 0.49087 0.37982 0.0
H699 H 0.07944 0.49977 0.4052 0.0
H700 H 0.08736 0.48013 0.37284 0.0
H701 H 0.04467 0.6012 0.38178 0.0
H702 H 0.07424 0.62144 0.37489 0.0
H703 H 0.06982 0.60724 0.40685 0.0
C704 C 0.82602 0.77826 0.85746 0.0
C705 C 0.83606 0.80542 0.86772 0.0
C706 C 0.82275 0.75677 0.87449 0.0
C707 C 0.82945 0.76278 0.9025 0.0
C708 C 0.84223 0.78936 0.91208 0.0
C709 C 0.8455 0.8103 0.89448 0.0
C710 C 0.80956 0.72865 0.86315 0.0
C711 C 0.84979 0.79687 0.94164 0.0
C712 C 0.78161 0.73015 0.95061 0.0
C713 C 0.795 0.70802 0.9588 0.0
C714 C 0.79289 0.74821 0.93283 0.0
C715 C 0.81826 0.74405 0.92247 0.0
C716 C 0.83218 0.72206 0.93094 0.0
C717 C 0.82045 0.7044 0.9492 0.0
C718 C 0.77738 0.77162 0.92486 0.0
C719 C 0.85913 0.71675 0.92018 0.0
H720 H 0.81865 0.77459 0.83676 0.0
H721 H 0.85334 0.83137 0.90228 0.0
H722 H 0.81878 0.71103 0.87107 0.0
H723 H 0.78888 0.72782 0.8697 0.0
H724 H 0.8102 0.72533 0.84048 0.0
H725 H 0.86376 0.81575 0.94468 0.0
H726 H 0.83211 0.80158 0.95397 0.0
H727 H 0.85853 0.77895 0.94953 0.0
H728 H 0.76206 0.73339 0.95813 0.0
H729 H 0.83088 0.68729 0.95528 0.0
H730 H 0.77386 0.76837 0.90254 0.0
H731 H 0.78848 0.79235 0.92971 0.0
H732 H 0.75829 0.77265 0.93549 0.0
H733 H 0.85819 0.70968 0.89792 0.0
H734 H 0.86818 0.70037 0.9303 0.0
H735 H 0.87187 0.73656 0.92313 0.0
C736 C 0.02586 1.00256 0.43815 0.0
C737 C 0.01839 1.00671 0.46559 0.0
C738 C 1.00804 1.00451 0.41729 0.0
C739 C 0.98198 1.01026 0.4241 0.0
C740 C 0.97456 0.01524 0.45192 0.0
C741 C 0.99291 0.01341 0.47235 0.0
C742 C 0.01682 0.99908 0.38795 0.0
C743 C 0.94697 0.02114 0.46009 0.0
C744 C 0.93824 0.02667 0.36695 0.0
C745 C 0.92698 0.99965 0.35767 0.0
C746 C 0.95583 0.03074 0.389 0.0
C747 C 0.96193 1.00732 0.40218 0.0
C748 C 0.94972 0.98031 0.39357 0.0
C749 C 0.93261 0.97681 0.37143 0.0
C750 C 0.96858 0.05984 0.39755 0.0
C751 C 0.95531 0.95479 0.40723 0.0
H752 H 0.04553 0.99704 0.43307 0.0
H753 H 0.98728 0.0166 0.49366 0.0
H754 H 1.00746 0.97871 0.37827 0.0
H755 H 0.01074 0.01591 0.37632 0.0
H756 H 0.03825 0.99807 0.38613 0.0
H757 H 0.94502 0.02754 0.48239 0.0
H758 H 0.94009 0.03807 0.4491 0.0
H759 H 0.93399 1.00186 0.4543 0.0
H760 H 0.93406 0.04439 0.35639 0.0
H761 H 0.92383 0.95587 0.36466 0.0
H762 H 0.98975 0.05975 0.39324 0.0
H763 H 0.96625 0.06581 0.41984 0.0
H764 H 0.96038 0.07618 0.38667 0.0
H765 H 0.97601 0.9502 0.40408 0.0
H766 H 0.943 0.93563 0.39914 0.0
H767 H 0.95199 0.9591 0.42955 0.0
C768 C 0.21084 0.3215 0.66532 0.0
C769 C 0.20516 0.30771 0.68826 0.0
C770 C 0.22065 0.30679 0.6413 0.0
C771 C 0.22422 0.2775 0.64015 0.0
C772 C 0.21989 0.26398 0.66387 0.0
C773 C 0.21093 0.27944 0.68777 0.0
C774 C 0.22599 0.32226 0.61682 0.0
C775 C 0.22308 0.23276 0.66357 0.0
C776 C 0.21354 0.23018 0.57295 0.0
C777 C 0.23875 0.22227 0.56617 0.0
C778 C 0.20869 0.24856 0.59665 0.0
C779 C 0.22968 0.26021 0.61364 0.0
C780 C 0.25538 0.25358 0.60618 0.0
C781 C 0.25958 0.23432 0.58277 0.0
C782 C 0.18092 0.25453 0.60411 0.0
C783 C 0.27835 0.26633 0.62323 0.0
H784 H 0.20666 0.34349 0.66587 0.0
H785 H 0.20737 0.26912 0.70588 0.0
H786 H 0.24479 0.31662 0.60718 0.0
H787 H 0.21055 0.31593 0.60138 0.0
H788 H 0.2265 0.34557 0.62233 0.0
H789 H 0.22015 0.2258 0.68408 0.0
H790 H 0.20877 0.22049 0.64932 0.0
H791 H 0.24273 0.22748 0.6561 0.0
H792 H 0.19731 0.22117 0.56027 0.0
H793 H 0.27917 0.22863 0.57752 0.0
H794 H 0.17864 0.27761 0.60642 0.0
H795 H 0.17588 0.24708 0.62402 0.0
H796 H 0.16683 0.244 0.58858 0.0
H797 H 0.27718 0.28953 0.62805 0.0
H798 H 0.29715 0.26211 0.61279 0.0
H799 H 0.27814 0.2574 0.64289 0.0
C800 C 0.49606 0.51839 0.63158 0.0
C801 C 0.51617 0.53966 0.63419 0.0
C802 C 0.48092 0.51255 0.65424 0.0
C803 C 0.48648 0.52809 0.68015 0.0
C804 C 0.50709 0.54945 0.68282 0.0
C805 C 0.52158 0.55516 0.65965 0.0
C806 C 0.45884 0.48997 0.65041 0.0
C807 C 0.51389 0.56613 0.71012 0.0
C808 C 0.43195 0.53055 0.73257 0.0
C809 C 0.43745 0.50858 0.74755 0.0
C810 C 0.44797 0.53739 0.71087 0.0
C811 C 0.47032 0.52227 0.70425 0.0
C812 C 0.47653 0.50077 0.71988 0.0
C813 C 0.45988 0.49398 0.74117 0.0
C814 C 0.44042 0.56012 0.6944 0.0
C815 C 0.50049 0.48456 0.71376 0.0
H816 H 0.49213 0.50657 0.61169 0.0
H817 H 0.53735 0.57148 0.66134 0.0
H818 H 0.4619 0.47319 0.66341 0.0
H819 H 0.44025 0.4992 0.65693 0.0
H820 H 0.45693 0.48009 0.62887 0.0
H821 H 0.53097 0.58141 0.70885 0.0
H822 H 0.49709 0.57794 0.71822 0.0
H823 H 0.51818 0.55153 0.72501 0.0
H824 H 0.41455 0.5418 0.73716 0.0
H825 H 0.46434 0.47708 0.75271 0.0
H826 H 0.43647 0.55078 0.673 0.0
H827 H 0.45667 0.57651 0.6939 0.0
H828 H 0.42288 0.57051 0.70272 0.0
H829 H 0.4987 0.47201 0.69331 0.0
H830 H 0.50359 0.46995 0.72905 0.0
H831 H 0.51795 0.49943 0.71329 0.0
C832 C 0.7989 0.27512 0.68468 0.0
C833 C 0.82486 0.26921 0.68792 0.0
C834 C 0.79196 0.29318 0.66607 0.0
C835 C 0.81162 0.30684 0.6512 0.0
C836 C 0.83806 0.30234 0.65565 0.0
C837 C 0.84434 0.2832 0.67364 0.0
C838 C 0.7635 0.29675 0.66159 0.0
C839 C 0.85967 0.31728 0.641 0.0
C840 C 0.79188 0.32789 0.583 0.0
C841 C 0.78551 0.35589 0.59032 0.0
C842 C 0.80072 0.31184 0.60254 0.0
C843 C 0.80422 0.32442 0.62992 0.0
C844 C 0.79894 0.35315 0.63714 0.0
C845 C 0.78912 0.36838 0.61736 0.0
C846 C 0.80522 0.28105 0.5941 0.0
C847 C 0.80332 0.36767 0.66583 0.0
H848 H 0.78389 0.26506 0.69637 0.0
H849 H 0.86443 0.27874 0.67619 0.0
H850 H 0.75942 0.31935 0.66599 0.0
H851 H 0.75843 0.28977 0.6399 0.0
H852 H 0.75064 0.28441 0.67462 0.0
H853 H 0.87913 0.31417 0.64911 0.0
H854 H 0.8592 0.30917 0.61895 0.0
H855 H 0.85695 0.34029 0.64287 0.0
H856 H 0.78889 0.31809 0.56215 0.0
H857 H 0.78437 0.39011 0.62301 0.0
H858 H 0.79201 0.26764 0.60579 0.0
H859 H 0.82542 0.27679 0.59892 0.0
H860 H 0.80181 0.27453 0.57197 0.0
H861 H 0.78911 0.35858 0.6799 0.0
H862 H 0.80121 0.3908 0.66737 0.0
H863 H 0.82304 0.3641 0.6729 0.0
C864 C 0.53693 0.99532 0.59295 0.0
C865 C 0.51072 0.99006 0.59944 0.0
C866 C 0.55587 1.00076 0.61362 0.0
C867 C 0.54828 1.0008 0.64133 0.0
C868 C 0.522 0.99345 0.64765 0.0
C869 C 0.50356 0.98827 0.62661 0.0
C870 C 0.58363 1.00838 0.60592 0.0
C871 C 0.513 0.99295 0.67678 0.0
C872 C 0.59888 1.00307 0.69757 0.0
C873 C 0.6006 0.03188 0.70813 0.0
C874 C 0.58224 0.99264 0.67563 0.0
C875 C 0.56699 1.01143 0.66381 0.0
C876 C 0.56886 0.04054 0.67414 0.0
C877 C 0.58553 0.05037 0.69612 0.0
C878 C 0.58074 0.96146 0.66531 0.0
C879 C 0.55301 0.06137 0.66212 0.0
H880 H 0.54229 0.99696 0.5719 0.0
H881 H 0.48319 0.98423 0.63144 0.0
H882 H 0.58836 0.03125 0.61233 0.0
H883 H 0.59723 0.99656 0.61665 0.0
H884 H 0.58701 1.00392 0.58359 0.0
H885 H 0.49272 0.98369 0.67803 0.0
H886 H 0.52593 0.98063 0.68779 0.0
H887 H 0.51395 0.01484 0.68752 0.0
H888 H 0.61038 0.98852 0.7066 0.0
H889 H 0.58674 0.07268 0.70387 0.0
H890 H 0.58507 0.95825 0.64313 0.0
H891 H 0.56071 0.95218 0.66811 0.0
H892 H 0.59448 0.94976 0.67605 0.0
H893 H 0.55702 0.0606 0.63994 0.0
H894 H 0.5572 0.08341 0.67195 0.0
H895 H 0.53197 0.05556 0.66452 0.0
C896 C 0.88906 0.22548 0.75988 0.0
C897 C 0.86191 0.22262 0.76225 0.0
C898 C 0.90525 0.22301 0.78203 0.0
C899 C 0.89408 0.21678 0.80712 0.0
C900 C 0.86668 0.2123 0.80911 0.0
C901 C 0.85094 0.21585 0.78687 0.0
C902 C 0.93428 0.22826 0.77887 0.0
C903 C 0.85371 0.20502 0.83501 0.0
C904 C 0.943 0.19609 0.85735 0.0
C905 C 0.94897 0.22204 0.87335 0.0
C906 C 0.92392 0.19352 0.83678 0.0
C907 C 0.9111 0.21765 0.83165 0.0
C908 C 0.91652 0.24363 0.84848 0.0
C909 C 0.93548 0.24551 0.86892 0.0
C910 C 0.91807 0.16524 0.81996 0.0
C911 C 0.90316 0.26983 0.84409 0.0
H912 H 0.89757 0.23041 0.74075 0.0
H913 H 0.83005 0.2143 0.78922 0.0
H914 H 0.94121 0.24721 0.79293 0.0
H915 H 0.94441 0.21009 0.7845 0.0
H916 H 0.93995 0.23168 0.75772 0.0
H917 H 0.83432 0.19374 0.83086 0.0
H918 H 0.86577 0.19165 0.84585 0.0
H919 H 0.8508 0.22486 0.84859 0.0
H920 H 0.95359 0.17797 0.8606 0.0
H921 H 0.94056 0.2658 0.88074 0.0
H922 H 0.9251 0.16616 0.79876 0.0
H923 H 0.89675 0.16004 0.81898 0.0
H924 H 0.92746 0.14797 0.82838 0.0
H925 H 0.90767 0.27544 0.82334 0.0
H926 H 0.9092 0.28823 0.85928 0.0
H927 H 0.88178 0.26572 0.84549 0.0
C928 C 0.50018 0.92732 0.56452 0.0
C929 C 0.49955 0.94854 0.54744 0.0
C930 C 0.50587 0.89963 0.55389 0.0
C931 C 0.50985 0.89289 0.52541 0.0
C932 C 0.51191 0.91499 0.50875 0.0
C933 C 0.50737 0.94265 0.52017 0.0
C934 C 0.50553 0.87715 0.57275 0.0
C935 C 0.51613 0.90903 0.47834 0.0
C936 C 0.5234 0.82017 0.48784 0.0
C937 C 0.49804 0.80852 0.48188 0.0
C938 C 0.52778 0.84687 0.50357 0.0
C939 C 0.50634 0.86288 0.51233 0.0
C940 C 0.48076 0.85094 0.50669 0.0
C941 C 0.477 0.82378 0.4923 0.0
C942 C 0.55541 0.85798 0.51 0.0
C943 C 0.45719 0.86738 0.51461 0.0
H944 H 0.49444 0.93181 0.5857 0.0
H945 H 0.5077 0.95935 0.50721 0.0
H946 H 0.48647 0.86481 0.57131 0.0
H947 H 0.52084 0.86226 0.56685 0.0
H948 H 0.50853 0.88654 0.59432 0.0
H949 H 0.51855 0.92871 0.4685 0.0
H950 H 0.53362 0.89696 0.47395 0.0
H951 H 0.49923 0.89585 0.46891 0.0
H952 H 0.53984 0.80852 0.48018 0.0
H953 H 0.45729 0.81509 0.48816 0.0
H954 H 0.55669 0.87322 0.52892 0.0
H955 H 0.56342 0.86881 0.49284 0.0
H956 H 0.56787 0.84036 0.51229 0.0
H957 H 0.45617 0.87254 0.5371 0.0
H958 H 0.43871 0.85552 0.50753 0.0
H959 H 0.45871 0.88766 0.50576 0.0
C960 C 0.15331 0.32214 0.79304 0.0
C961 C 0.14502 0.32484 0.76668 0.0
C962 C 0.13538 0.31637 0.81351 0.0
C963 C 0.10861 0.31181 0.80704 0.0
C964 C 0.10013 0.31457 0.78038 0.0
C965 C 0.11845 0.32169 0.76066 0.0
C966 C 0.14517 0.31455 0.84188 0.0
C967 C 0.07192 0.30883 0.77235 0.0
C968 C 0.07049 0.26336 0.85052 0.0
C969 C 0.05587 0.28233 0.86721 0.0
C970 C 0.08705 0.27263 0.83031 0.0
C971 C 0.08991 0.30181 0.82752 0.0
C972 C 0.07542 0.32117 0.84465 0.0
C973 C 0.05804 0.31107 0.86395 0.0
C974 C 0.10135 0.25113 0.81183 0.0
C975 C 0.07874 0.35254 0.84302 0.0
H976 H 0.17394 0.32448 0.79752 0.0
H977 H 0.11215 0.32413 0.74029 0.0
H978 H 0.13347 0.32719 0.85729 0.0
H979 H 0.14306 0.2923 0.84624 0.0
H980 H 0.16595 0.3222 0.84439 0.0
H981 H 0.06843 0.31263 0.75101 0.0
H982 H 0.06563 0.28652 0.77442 0.0
H983 H 0.0595 0.32237 0.78617 0.0
H984 H 0.06846 0.24105 0.85287 0.0
H985 H 0.04671 0.32566 0.87698 0.0
H986 H 0.1226 0.25482 0.81526 0.0
H987 H 0.09771 0.25339 0.79014 0.0
H988 H 0.09541 0.22907 0.81531 0.0
H989 H 0.09937 0.36012 0.84681 0.0
H990 H 0.06632 0.3648 0.85804 0.0
H991 H 0.07386 0.35699 0.82226 0.0
C992 C 0.53758 0.57101 0.52749 0.0
C993 C 0.54855 0.58166 0.55281 0.0
C994 C 0.53093 0.58934 0.50885 0.0
C995 C 0.53541 0.61901 0.51579 0.0
C996 C 0.54842 0.62958 0.54048 0.0
C997 C 0.55479 0.61076 0.55866 0.0
C998 C 0.51733 0.57707 0.48272 0.0
C999 C 0.55384 0.66093 0.5487 0.0
C1000 C 0.52897 0.66988 0.46286 0.0
C1001 C 0.50404 0.67952 0.46857 0.0
C1002 C 0.53925 0.64986 0.47763 0.0
C1003 C 0.52435 0.63908 0.49872 0.0
C1004 C 0.49904 0.64831 0.5043 0.0
C1005 C 0.48922 0.66833 0.48921 0.0
C1006 C 0.56625 0.6406 0.47097 0.0
C1007 C 0.48244 0.63735 0.52659 0.0
H1008 H 0.53238 0.54853 0.52325 0.0
H1009 H 0.56305 0.61889 0.57841 0.0
H1010 H 0.49654 0.58175 0.48414 0.0
H1011 H 0.52587 0.58686 0.46516 0.0
H1012 H 0.51847 0.55378 0.47859 0.0
H1013 H 0.56662 0.66553 0.5669 0.0
H1014 H 0.56315 0.67098 0.53167 0.0
H1015 H 0.53523 0.67088 0.55351 0.0
H1016 H 0.54068 0.6782 0.44697 0.0
H1017 H 0.46995 0.67542 0.49382 0.0
H1018 H 0.5658 0.61722 0.46659 0.0
H1019 H 0.57915 0.64697 0.48883 0.0
H1020 H 0.57489 0.64991 0.45315 0.0
H1021 H 0.4799 0.61394 0.52295 0.0
H1022 H 0.46293 0.64599 0.52792 0.0
H1023 H 0.49228 0.64309 0.54658 0.0
C1024 C 0.88726 0.83357 0.82093 0.0
C1025 C 0.86221 0.82135 0.815 0.0
C1026 C 0.90818 0.82743 0.80309 0.0
C1027 C 0.90375 0.80887 0.7786 0.0
C1028 C 0.8786 0.79541 0.7733 0.0
C1029 C 0.85816 0.80177 0.79166 0.0
C1030 C 0.93469 0.84185 0.80981 0.0
C1031 C 0.87296 0.77544 0.74753 0.0
C1032 C 0.94732 0.81407 0.71603 0.0
C1033 C 0.96143 0.79003 0.71593 0.0
C1034 C 0.92901 0.82104 0.73684 0.0
C1035 C 0.92511 0.80383 0.75817 0.0
C1036 C 0.94051 0.78057 0.75891 0.0
C1037 C 0.95826 0.77385 0.73772 0.0
C1038 C 0.91288 0.84597 0.73525 0.0
C1039 C 0.93744 0.76197 0.78145 0.0
H1040 H 0.89009 0.84914 0.83878 0.0
H1041 H 0.83858 0.79289 0.78697 0.0
H1042 H 0.94969 0.82612 0.80792 0.0
H1043 H 0.93981 0.85704 0.79506 0.0
H1044 H 0.93548 0.85351 0.83075 0.0
H1045 H 0.85266 0.76593 0.74697 0.0
H1046 H 0.87619 0.78698 0.72952 0.0
H1047 H 0.88644 0.75817 0.74564 0.0
H1048 H 0.94954 0.82646 0.69912 0.0
H1049 H 0.96928 0.75532 0.73782 0.0
H1050 H 0.91393 0.86027 0.75478 0.0
H1051 H 0.89218 0.83841 0.73192 0.0
H1052 H 0.91931 0.85825 0.71843 0.0
H1053 H 0.93833 0.77503 0.80169 0.0
H1054 H 0.95264 0.74648 0.78055 0.0
H1055 H 0.91812 0.75015 0.77985 0.0
C1056 C 0.04119 0.97351 0.56655 0.0
C1057 C 0.05753 0.96961 0.54373 0.0
C1058 C 0.03712 0.95253 0.58402 0.0
C1059 C 0.04953 0.92685 0.57835 0.0
C1060 C 0.06748 0.92372 0.55634 0.0
C1061 C 0.0712 0.94514 0.53926 0.0
C1062 C 0.01797 0.957 0.60725 0.0
C1063 C 0.08122 0.89683 0.54951 0.0
C1064 C 0.04805 0.87394 0.63042 0.0
C1065 C 0.02772 0.85433 0.62054 0.0
C1066 C 0.05515 0.89783 0.61723 0.0
C1067 C 0.04168 0.90228 0.59347 0.0
C1068 C 0.02078 0.88288 0.58376 0.0
C1069 C 0.01405 0.85924 0.59739 0.0
C1070 C 0.07739 0.91801 0.62839 0.0
C1071 C 1.00582 0.88679 0.55855 0.0
H1072 H 0.03017 0.99218 0.5695 0.0
H1073 H 0.08321 0.94185 0.52114 0.0
H1074 H 0.99994 0.94337 0.60225 0.0
H1075 H 0.02601 0.95085 0.62621 0.0
H1076 H 0.01277 0.97933 0.61123 0.0
H1077 H 0.09679 0.89901 0.53402 0.0
H1078 H 0.08991 0.89057 0.56809 0.0
H1079 H 0.06694 0.87945 0.54137 0.0
H1080 H 0.05879 0.87038 0.64826 0.0
H1081 H 0.99839 0.84423 0.5895 0.0
H1082 H 0.07096 0.93986 0.63222 0.0
H1083 H 0.09336 0.91813 0.61315 0.0
H1084 H 0.08519 0.91229 0.64768 0.0
H1085 H 0.99749 0.90777 0.56118 0.0
H1086 H 0.98976 0.8702 0.55393 0.0
H1087 H 0.01914 0.88624 0.54071 0.0
C1088 C 0.15589 0.70002 0.77208 0.0
C1089 C 0.14793 0.69772 0.79895 0.0
C1090 C 0.13837 0.70658 0.75267 0.0
C1091 C 0.11238 0.71137 0.76052 0.0
C1092 C 0.10424 0.70893 0.78767 0.0
C1093 C 0.12212 0.70194 0.80652 0.0
C1094 C 0.14773 0.70869 0.72388 0.0
C1095 C 0.07674 0.71404 0.79686 0.0
C1096 C 0.07294 0.75411 0.71802 0.0
C1097 C 0.05699 0.73282 0.70303 0.0
C1098 C 0.09112 0.74744 0.73678 0.0
C1099 C 0.09366 0.71879 0.74032 0.0
C1100 C 0.07805 0.6972 0.7248 0.0
C1101 C 0.05981 0.70447 0.70651 0.0
C1102 C 0.10728 0.77106 0.75317 0.0
C1103 C 0.08047 0.66639 0.72768 0.0
H1104 H 0.17601 0.69729 0.76645 0.0
H1105 H 0.11607 0.70001 0.82732 0.0
H1106 H 0.13545 0.69417 0.70921 0.0
H1107 H 0.1459 0.73045 0.71886 0.0
H1108 H 0.16832 0.70344 0.72088 0.0
H1109 H 0.07362 0.7116 0.81875 0.0
H1110 H 0.07211 0.7357 0.79359 0.0
H1111 H 0.06284 0.69902 0.7845 0.0
H1112 H 0.0708 0.77606 0.71559 0.0
H1113 H 0.04771 0.68783 0.69493 0.0
H1114 H 0.12827 0.76807 0.74973 0.0
H1115 H 0.10343 0.77064 0.77527 0.0
H1116 H 0.10313 0.79221 0.74785 0.0
H1117 H 0.10084 0.66082 0.72378 0.0
H1118 H 0.06753 0.65211 0.71341 0.0
H1119 H 0.07554 0.66245 0.74884 0.0
C1120 C 1.00284 0.62898 0.48322 0.0
C1121 C 1.00424 0.60304 0.4932 0.0
C1122 C 0.01222 0.65428 0.49884 0.0
C1123 C 0.02183 0.65348 0.52557 0.0
C1124 C 0.0267 0.6268 0.53364 0.0
C1125 C 0.0178 0.60198 0.51726 0.0
C1126 C 0.01062 0.6816 0.48683 0.0
C1127 C 0.04044 0.62356 0.55973 0.0
C1128 C 0.04443 0.71332 0.58075 0.0
C1129 C 0.02063 0.72155 0.59217 0.0
C1130 C 0.04533 0.69286 0.55764 0.0
C1131 C 0.02185 0.67916 0.5465 0.0
C1132 C 0.9978 0.68887 0.557 0.0
C1133 C 0.99763 0.71056 0.57903 0.0
C1134 C 0.07153 0.68566 0.54587 0.0
C1135 C 0.97204 0.67607 0.54549 0.0
H1136 H 0.99282 0.62966 0.46417 0.0
H1137 H 0.01935 0.58164 0.52445 0.0
H1138 H 0.99012 0.68452 0.48182 0.0
H1139 H 0.01866 0.70038 0.50043 0.0
H1140 H 0.0216 0.68031 0.46728 0.0
H1141 H 0.06083 0.61874 0.55473 0.0
H1142 H 0.0409 0.64268 0.57481 0.0
H1143 H 0.03137 0.60544 0.56927 0.0
H1144 H 0.06246 0.72288 0.58989 0.0
H1145 H 0.97937 0.71872 0.58626 0.0
H1146 H 0.07022 0.67572 0.52433 0.0
H1147 H 0.08025 0.67089 0.55821 0.0
H1148 H 0.08496 0.70497 0.54693 0.0
H1149 H 0.96955 0.68158 0.52464 0.0
H1150 H 0.95534 0.68396 0.55785 0.0
H1151 H 0.97134 0.6527 0.5443 0.0
C1152 C 0.71996 0.8893 0.22057 0.0
C1153 C 0.71901 0.85983 0.21938 0.0
C1154 C 0.74362 0.90561 0.22443 0.0
C1155 C 0.76708 0.89195 0.22549 0.0
C1156 C 0.76637 0.86203 0.22077 0.0
C1157 C 0.7423 0.84632 0.21854 0.0
C1158 C 0.74319 0.9374 0.22966 0.0
C1159 C 0.79064 0.8462 0.21999 0.0
C1160 C 0.82683 0.94354 0.22769 0.0
C1161 C 0.8318 0.9484 0.25576 0.0
C1162 C 0.80717 0.92335 0.21714 0.0
C1163 C 0.79131 0.90894 0.23527 0.0
C1164 C 0.79697 0.91319 0.26357 0.0
C1165 C 0.81719 0.93283 0.27343 0.0
C1166 C 0.803 0.91787 0.18672 0.0
C1167 C 0.7809 0.89797 0.28365 0.0
H1168 H 0.70196 0.89964 0.22015 0.0
H1169 H 0.7417 0.82352 0.21762 0.0
H1170 H 0.74961 0.94486 0.25088 0.0
H1171 H 0.7569 0.9475 0.21578 0.0
H1172 H 0.72351 0.94472 0.2269 0.0
H1173 H 0.7886 0.82676 0.20505 0.0
H1174 H 0.80803 0.85928 0.21452 0.0
H1175 H 0.79347 0.83949 0.24037 0.0
H1176 H 0.83824 0.95563 0.21407 0.0
H1177 H 0.82086 0.93693 0.29519 0.0
H1178 H 0.78471 0.92679 0.18138 0.0
H1179 H 0.80102 0.89477 0.17996 0.0
H1180 H 0.81926 0.92747 0.17527 0.0
H1181 H 0.76028 0.90316 0.28273 0.0
H1182 H 0.78791 0.90363 0.30495 0.0
H1183 H 0.78151 0.87479 0.2782 0.0
C1184 C 0.75624 0.17331 0.33714 0.0
C1185 C 0.73066 0.16549 0.34439 0.0
C1186 C 0.77605 0.15463 0.33749 0.0
C1187 C 0.76995 0.12704 0.34439 0.0
C1188 C 0.74444 0.11968 0.35338 0.0
C1189 C 0.72513 0.13913 0.35345 0.0
C1190 C 0.80302 0.16366 0.32829 0.0
C1191 C 0.73694 0.09045 0.36059 0.0
C1192 C 0.80845 0.07049 0.30451 0.0
C1193 C 0.82629 0.0649 0.32389 0.0
C1194 C 0.78963 0.09009 0.31124 0.0
C1195 C 0.78894 0.10488 0.33797 0.0
C1196 C 0.80694 0.09914 0.35773 0.0
C1197 C 0.82537 0.07896 0.35049 0.0
C1198 C 0.77067 0.09521 0.28958 0.0
C1199 C 0.80708 0.11474 0.38626 0.0
H1200 H 0.76036 0.19357 0.32975 0.0
H1201 H 0.70527 0.13308 0.35881 0.0
H1202 H 0.81794 0.15719 0.34182 0.0
H1203 H 0.80653 0.15314 0.30736 0.0
H1204 H 0.80563 0.18691 0.32804 0.0
H1205 H 0.71776 0.08941 0.37104 0.0
H1206 H 0.73587 0.07522 0.34165 0.0
H1207 H 0.75181 0.08356 0.37391 0.0
H1208 H 0.80924 0.05943 0.28397 0.0
H1209 H 0.8393 0.07454 0.36539 0.0
H1210 H 0.77364 0.11736 0.28505 0.0
H1211 H 0.7504 0.09219 0.29704 0.0
H1212 H 0.77289 0.08085 0.27029 0.0
H1213 H 0.81158 0.13766 0.38547 0.0
H1214 H 0.8216 0.10707 0.39953 0.0
H1215 H 0.78756 0.11235 0.39572 0.0
C1216 C 0.4473 0.9875 0.01157 0.0
C1217 C 0.45062 0.01657 0.01016 0.0
C1218 C 0.42239 0.97443 0.0149 0.0
C1219 C 0.4005 0.99103 0.01737 0.0
C1220 C 0.4041 0.02069 0.01764 0.0
C1221 C 0.42908 0.03302 0.01368 0.0
C1222 C 0.41934 0.94271 0.01416 0.0
C1223 C 0.38141 0.03924 0.02054 0.0
C1224 C 0.33638 0.95755 0.98847 0.0
C1225 C 0.32278 0.95097 0.01191 0.0
C1226 C 0.36168 0.97027 0.99009 0.0
C1227 C 0.37371 0.97719 0.01587 0.0
C1228 C 0.36001 0.97129 0.03975 0.0
C1229 C 0.33474 0.95801 0.03749 0.0
C1230 C 0.37566 0.97596 0.96406 0.0
C1231 C 0.3721 0.9789 0.06761 0.0
H1232 H 0.4641 0.97497 1.00919 0.0
H1233 H 0.43171 0.05549 0.01231 0.0
H1234 H 0.40717 0.93685 0.03151 0.0
H1235 H 0.40924 0.93331 0.9951 0.0
H1236 H 0.43837 0.93323 0.01491 0.0
H1237 H 0.38786 0.06207 0.0243 0.0
H1238 H 0.36969 0.03557 1.00158 0.0
H1239 H 0.36852 0.03388 0.03754 0.0
H1240 H 0.32753 0.95214 0.96854 0.0
H1241 H 0.32445 0.95302 0.05571 0.0
H1242 H 0.39416 0.96527 0.96228 0.0
H1243 H 0.38065 0.99896 0.96449 0.0
H1244 H 0.36381 0.96852 0.94558 0.0
H1245 H 0.39007 0.96762 0.06882 0.0
H1246 H 0.35869 0.97348 0.08423 0.0
H1247 H 0.37779 1.00189 0.07108 0.0
C1248 C 0.30533 0.40927 0.32898 0.0
C1249 C 0.29716 0.38233 0.33541 0.0
C1250 C 0.28724 0.42873 0.32411 0.0
C1251 C 0.2603 0.42149 0.32689 0.0
C1252 C 0.252 0.39478 0.3347 0.0
C1253 C 0.2705 0.37529 0.33823 0.0
C1254 C 0.29692 0.45657 0.31493 0.0
C1255 C 0.22356 0.38653 0.33873 0.0
C1256 C 0.2156 0.48232 0.33109 0.0
C1257 C 0.20541 0.47887 0.30463 0.0
C1258 C 0.23281 0.46321 0.339 0.0
C1259 C 0.24082 0.44097 0.3196 0.0
C1260 C 0.23066 0.43763 0.29279 0.0
C1261 C 0.21269 0.45627 0.28582 0.0
C1262 C 0.24241 0.46679 0.36806 0.0
C1263 C 0.23932 0.41487 0.27119 0.0
H1264 H 0.32594 0.41484 0.32715 0.0
H1265 H 0.26412 0.35432 0.3428 0.0
H1266 H 0.28908 0.45813 0.29439 0.0
H1267 H 0.28987 0.47442 0.329 0.0
H1268 H 0.31849 0.45905 0.31399 0.0
H1269 H 0.2206 0.36666 0.3482 0.0
H1270 H 0.21422 0.40364 0.35184 0.0
H1271 H 0.21346 0.38346 0.31877 0.0
H1272 H 0.20988 0.49975 0.34566 0.0
H1273 H 0.20508 0.4538 0.26523 0.0
H1274 H 0.26371 0.47196 0.36852 0.0
H1275 H 0.23874 0.44668 0.37695 0.0
H1276 H 0.23286 0.4838 0.38112 0.0
H1277 H 0.26076 0.41715 0.26869 0.0
H1278 H 0.23015 0.41569 0.25109 0.0
H1279 H 0.23441 0.3937 0.27753 0.0
C1280 C 0.09545 0.04709 0.53949 0.0
C1281 C 0.09433 0.0189 0.52765 0.0
C1282 C 0.11925 0.06316 0.54323 0.0
C1283 C 0.14281 0.05041 0.53554 0.0
C1284 C 0.14178 0.02068 0.5275 0.0
C1285 C 0.11749 1.00543 0.52296 0.0
C1286 C 0.11816 0.09393 0.55436 0.0
C1287 C 0.16599 1.00469 0.52263 0.0
C1288 C 0.19873 0.09221 0.50382 0.0
C1289 C 0.21112 0.10717 0.52679 0.0
C1290 C 0.17659 0.07371 0.50637 0.0
C1291 C 0.16754 0.06846 0.53268 0.0
C1292 C 0.18161 0.08154 0.55593 0.0
C1293 C 0.20276 0.10117 0.55273 0.0
C1294 C 0.16285 0.05999 0.48078 0.0
C1295 C 0.17431 0.07522 0.5843 0.0
H1296 H 0.07741 0.05729 0.54357 0.0
H1297 H 0.11667 0.98345 0.51411 0.0
H1298 H 0.13681 0.10645 0.55297 0.0
H1299 H 0.10298 0.10364 0.54358 0.0
H1300 H 0.11229 0.09546 0.57616 0.0
H1301 H 0.16738 0.99628 0.5007 0.0
H1302 H 0.18407 0.0177 0.52893 0.0
H1303 H 0.16452 0.98611 0.53412 0.0
H1304 H 0.20638 0.09497 0.48376 0.0
H1305 H 0.21294 0.1117 0.57067 0.0
H1306 H 0.14169 0.06302 0.48237 0.0
H1307 H 0.1653 0.03698 0.47803 0.0
H1308 H 0.17071 0.06852 0.46226 0.0
H1309 H 0.15961 0.08978 0.59293 0.0
H1310 H 0.19143 0.07854 0.59807 0.0
H1311 H 0.16595 0.05317 0.58419 0.0
C1312 C 0.81632 0.15981 0.7303 0.0
C1313 C 0.81259 0.18825 0.73898 0.0
C1314 C 0.79741 0.1385 0.73574 0.0
C1315 C 0.77399 0.14611 0.7493 0.0
C1316 C 0.77141 0.17476 0.75992 0.0
C1317 C 0.79064 0.19538 0.75444 0.0
C1318 C 0.80209 0.10801 0.72618 0.0
C1319 C 0.74814 0.18467 0.77612 0.0
C1320 C 0.7135 0.0981 0.72841 0.0
C1321 C 0.70713 0.08697 0.75263 0.0
C1322 C 0.73484 0.11794 0.72728 0.0
C1323 C 0.7515 0.12477 0.75021 0.0
C1324 C 0.74573 0.11235 0.77432 0.0
C1325 C 0.72322 0.09421 0.77545 0.0
C1326 C 0.73897 0.13233 0.70193 0.0
C1327 C 0.76304 0.11862 0.79906 0.0
H1328 H 0.83332 0.15446 0.71813 0.0
H1329 H 0.78787 0.21752 0.76091 0.0
H1330 H 0.79616 0.09451 0.74221 0.0
H1331 H 0.7902 0.10043 0.70782 0.0
H1332 H 0.82284 0.10522 0.7209 0.0
H1333 H 0.75452 0.19406 0.79689 0.0
H1334 H 0.73977 0.20175 0.76644 0.0
H1335 H 0.73288 0.16767 0.77818 0.0
H1336 H 0.70149 0.09178 0.71056 0.0
H1337 H 0.71852 0.08504 0.79405 0.0
H1338 H 0.75809 0.12766 0.69258 0.0
H1339 H 0.73909 0.15561 0.70744 0.0
H1340 H 0.7236 0.1256 0.68644 0.0
H1341 H 0.7838 0.1176 0.79302 0.0
H1342 H 0.75851 0.10364 0.8142 0.0
H1343 H 0.76035 0.14035 0.80909 0.0
C1344 C 0.4165 0.02835 0.56841 0.0
C1345 C 0.43784 0.02438 0.55092 0.0
C1346 C 0.39614 0.04442 0.56188 0.0
C1347 C 0.39736 0.0571 0.5374 0.0
C1348 C 0.419 0.0531 0.51969 0.0
C1349 C 0.4389 0.03662 0.52661 0.0
C1350 C 0.37334 0.04785 0.58118 0.0
C1351 C 0.42127 0.06653 0.49363 0.0
C1352 C 0.33412 0.07997 0.51044 0.0
C1353 C 0.33491 0.10861 0.52123 0.0
C1354 C 0.35446 0.06301 0.51519 0.0
C1355 C 0.3763 0.07508 0.53075 0.0
C1356 C 0.37759 0.10423 0.54084 0.0
C1357 C 0.35682 0.12056 0.53614 0.0
C1358 C 0.35221 0.03197 0.5043 0.0
C1359 C 0.40067 0.11807 0.55713 0.0
H1360 H 0.41572 0.01859 0.58707 0.0
H1361 H 0.45555 0.03351 0.51323 0.0
H1362 H 0.37194 0.07053 0.5889 0.0
H1363 H 0.35498 0.04044 0.57024 0.0
H1364 H 0.37495 0.03591 0.59891 0.0
H1365 H 0.4392 0.06115 0.48197 0.0
H1366 H 0.40417 0.05956 0.48044 0.0
H1367 H 0.42141 0.08987 0.49839 0.0
H1368 H 0.31719 0.07054 0.49904 0.0
H1369 H 0.35764 0.14272 0.54445 0.0
H1370 H 0.35161 0.01915 0.52155 0.0
H1371 H 0.36951 0.02633 0.49174 0.0
H1372 H 0.3345 0.02603 0.49171 0.0
H1373 H 0.40198 0.10871 0.57646 0.0
H1374 H 0.39941 0.14127 0.56213 0.0
H1375 H 0.41893 0.11412 0.54559 0.0
C1376 C 0.60493 0.54372 0.56331 0.0
C1377 C 0.58019 0.52997 0.55916 0.0
C1378 C 0.62743 0.5297 0.55515 0.0
C1379 C 0.62499 0.50126 0.54257 0.0
C1380 C 0.59988 0.48814 0.5365 0.0
C1381 C 0.57781 0.50269 0.54489 0.0
C1382 C 0.65375 0.54463 0.56174 0.0
C1383 C 0.59626 0.45802 0.5229 0.0
C1384 C 0.68264 0.4669 0.50654 0.0
C1385 C 0.69155 0.45084 0.52614 0.0
C1386 C 0.6614 0.48373 0.51176 0.0
C1387 C 0.64847 0.48462 0.53722 0.0
C1388 C 0.65746 0.46881 0.55727 0.0
C1389 C 0.67889 0.45216 0.55153 0.0
C1390 C 0.65255 0.50025 0.48984 0.0
C1391 C 0.64417 0.46916 0.58469 0.0
H1392 H 0.60666 0.56461 0.57487 0.0
H1393 H 0.5586 0.49204 0.54212 0.0
H1394 H 0.66292 0.53497 0.5782 0.0
H1395 H 0.66677 0.54215 0.54367 0.0
H1396 H 0.65242 0.56755 0.56861 0.0
H1397 H 0.57566 0.45185 0.51734 0.0
H1398 H 0.60839 0.45504 0.5042 0.0
H1399 H 0.60272 0.4435 0.53693 0.0
H1400 H 0.69218 0.46627 0.48683 0.0
H1401 H 0.6855 0.43994 0.56684 0.0
H1402 H 0.65224 0.52298 0.49789 0.0
H1403 H 0.63241 0.49273 0.48356 0.0
H1404 H 0.66529 0.49818 0.4715 0.0
H1405 H 0.64402 0.4912 0.59494 0.0
H1406 H 0.65382 0.45627 0.59831 0.0
H1407 H 0.6236 0.46087 0.58189 0.0
C1408 C 0.7321 0.22193 0.38804 0.0
C1409 C 0.71221 0.22577 0.36994 0.0
C1410 C 0.73499 0.23906 0.41342 0.0
C1411 C 0.71918 0.26229 0.41978 0.0
C1412 C 0.69815 0.265 0.40231 0.0
C1413 C 0.69404 0.24556 0.37895 0.0
C1414 C 0.75468 0.23143 0.43316 0.0
C1415 C 0.67973 0.28843 0.40733 0.0
C1416 C 0.71027 0.31498 0.48311 0.0
C1417 C 0.73102 0.335 0.48049 0.0
C1418 C 0.70763 0.2896 0.46525 0.0
C1419 C 0.72529 0.28487 0.44312 0.0
C1420 C 0.74722 0.30425 0.44156 0.0
C1421 C 0.75021 0.32843 0.46089 0.0
C1422 C 0.68556 0.26841 0.47018 0.0
C1423 C 0.76743 0.29985 0.41933 0.0
H1424 H 0.74558 0.20584 0.38286 0.0
H1425 H 0.67669 0.24671 0.36717 0.0
H1426 H 0.75584 0.24592 0.45256 0.0
H1427 H 0.74944 0.20969 0.43804 0.0
H1428 H 0.77416 0.23096 0.42335 0.0
H1429 H 0.6739 0.29525 0.38773 0.0
H1430 H 0.66175 0.2803 0.41709 0.0
H1431 H 0.68809 0.30725 0.42048 0.0
H1432 H 0.69616 0.31895 0.49936 0.0
H1433 H 0.76777 0.34214 0.46076 0.0
H1434 H 0.68741 0.24742 0.4581 0.0
H1435 H 0.66686 0.27672 0.46518 0.0
H1436 H 0.68468 0.2656 0.49216 0.0
H1437 H 0.77805 0.28101 0.42177 0.0
H1438 H 0.7822 0.31788 0.42002 0.0
H1439 H 0.75805 0.2964 0.39896 0.0
C1440 C 0.54751 0.05145 0.95504 0.0
C1441 C 0.52072 0.054 0.95371 0.0
C1442 C 0.56318 0.05149 0.9316 0.0
C1443 C 0.55155 0.05313 0.90605 0.0
C1444 C 0.5244 0.05582 0.90468 0.0
C1445 C 0.50935 0.05651 0.92862 0.0
C1446 C 0.59211 0.0493 0.93411 0.0
C1447 C 0.51116 0.05723 0.87784 0.0
C1448 C 0.5933 0.07824 0.84895 0.0
C1449 C 0.59933 0.05271 0.83347 0.0
C1450 C 0.57806 0.07859 0.87264 0.0
C1451 C 0.56788 0.05279 0.8809 0.0
C1452 C 0.57347 0.02688 0.86525 0.0
C1453 C 0.58942 0.02712 0.84188 0.0
C1454 C 0.57315 0.10665 0.88904 0.0
C1455 C 0.56249 0.99894 0.87314 0.0
H1456 H 0.556 0.04846 0.97433 0.0
H1457 H 0.4885 0.05798 0.92771 0.0
H1458 H 0.59789 0.02939 0.92227 0.0
H1459 H 0.60284 0.06704 0.92542 0.0
H1460 H 0.59824 0.04965 0.95564 0.0
H1461 H 0.48982 0.05878 0.88021 0.0
H1462 H 0.5194 0.07579 0.86844 0.0
H1463 H 0.51475 0.0381 0.86344 0.0
H1464 H 0.60089 0.09822 0.84285 0.0
H1465 H 0.59387 1.00733 0.83006 0.0
H1466 H 0.58004 0.10701 0.91029 0.0
H1467 H 0.55198 0.10956 0.89009 0.0
H1468 H 0.58306 0.12481 0.88022 0.0
H1469 H 0.56969 0.99606 0.89361 0.0
H1470 H 0.56786 0.98075 0.85834 0.0
H1471 H 0.54097 0.99874 0.87447 0.0
C1472 C 0.32981 0.27637 0.3558 0.0
C1473 C 0.34103 0.30297 0.36624 0.0
C1474 C 0.32468 0.25511 0.37283 0.0
C1475 C 0.33065 0.26083 0.40104 0.0
C1476 C 0.34458 0.28667 0.41089 0.0
C1477 C 0.34977 0.30733 0.39327 0.0
C1478 C 0.31038 0.22772 0.36118 0.0
C1479 C 0.35137 0.29389 0.44069 0.0
C1480 C 0.28029 0.23075 0.44841 0.0
C1481 C 0.29259 0.20823 0.45729 0.0
C1482 C 0.29268 0.24805 0.43053 0.0
C1483 C 0.31803 0.24264 0.42074 0.0
C1484 C 0.33073 0.22007 0.42972 0.0
C1485 C 0.31795 0.20326 0.44807 0.0
C1486 C 0.27846 0.27214 0.422 0.0
C1487 C 0.35757 0.21335 0.41951 0.0
H1488 H 0.3229 0.27313 0.33492 0.0
H1489 H 0.35836 0.32802 0.40128 0.0
H1490 H 0.31822 0.20953 0.3695 0.0
H1491 H 0.28955 0.22821 0.36703 0.0
H1492 H 0.31167 0.22425 0.33855 0.0
H1493 H 0.36611 0.31205 0.44414 0.0
H1494 H 0.33357 0.2996 0.45239 0.0
H1495 H 0.35885 0.2755 0.44896 0.0
H1496 H 0.26081 0.235 0.45554 0.0
H1497 H 0.32757 0.18583 0.45465 0.0
H1498 H 0.27549 0.26894 0.39958 0.0
H1499 H 0.29025 0.29241 0.42702 0.0
H1500 H 0.25919 0.27409 0.4321 0.0
H1501 H 0.35705 0.20715 0.3971 0.0
H1502 H 0.36528 0.19592 0.42926 0.0
H1503 H 0.37124 0.23236 0.42347 0.0
C1504 C 0.48839 0.51897 0.98651 0.0
C1505 C 0.51456 0.51595 0.97959 0.0
C1506 C 0.46962 0.51973 0.96621 0.0
C1507 C 0.47733 0.51755 0.93842 0.0
C1508 C 0.50396 0.51575 0.93154 0.0
C1509 C 0.52218 0.51476 0.95219 0.0
C1510 C 0.44143 0.52153 0.97438 0.0
C1511 C 0.5131 0.51338 0.90223 0.0
C1512 C 0.43226 0.48165 0.88266 0.0
C1513 C 0.4247 0.50452 0.87001 0.0
C1514 C 0.44839 0.48581 0.90562 0.0
C1515 C 0.45752 0.51357 0.91626 0.0
C1516 C 0.44928 0.53689 0.90428 0.0
C1517 C 0.43281 0.53211 0.88133 0.0
C1518 C 0.45644 0.46031 0.91787 0.0
C1519 C 0.4587 0.56679 0.915 0.0
H1520 H 0.48261 0.52008 1.00775 0.0
H1521 H 0.54235 0.51194 0.94682 0.0
H1522 H 0.43256 0.53805 0.96436 0.0
H1523 H 0.43052 0.5011 0.96745 0.0
H1524 H 0.43898 0.52631 0.99682 0.0
H1525 H 0.53465 0.51521 0.90056 0.0
H1526 H 0.50587 0.49263 0.89132 0.0
H1527 H 0.50511 0.53005 0.89168 0.0
H1528 H 0.42584 0.46024 0.87436 0.0
H1529 H 0.42706 0.54989 0.87173 0.0
H1530 H 0.45259 0.46281 0.94015 0.0
H1531 H 0.47765 0.45838 0.91494 0.0
H1532 H 0.44607 0.44034 0.90849 0.0
H1533 H 0.45576 0.57073 0.9374 0.0
H1534 H 0.44859 0.58268 0.90523 0.0
H1535 H 0.47988 0.56989 0.91109 0.0
C1536 C 0.70459 0.81983 0.16198 0.0
C1537 C 0.69918 0.80565 0.18473 0.0
C1538 C 0.71445 0.80555 0.13777 0.0
C1539 C 0.71842 0.77632 0.13624 0.0
C1540 C 0.7141 0.76235 0.15969 0.0
C1541 C 0.70503 0.77736 0.18377 0.0
C1542 C 0.71971 0.82147 0.11357 0.0
C1543 C 0.71783 0.73119 0.15901 0.0
C1544 C 0.71114 0.72877 0.06872 0.0
C1545 C 0.7368 0.72174 0.06311 0.0
C1546 C 0.70501 0.74717 0.09202 0.0
C1547 C 0.72513 0.75964 0.1098 0.0
C1548 C 0.75127 0.7541 0.10336 0.0
C1549 C 0.75677 0.73492 0.08032 0.0
C1550 C 0.67682 0.75209 0.09835 0.0
C1551 C 0.77336 0.76768 0.12128 0.0
H1552 H 0.70033 0.84182 0.16292 0.0
H1553 H 0.70165 0.76674 0.20173 0.0
H1554 H 0.73896 0.81682 0.10446 0.0
H1555 H 0.70483 0.81453 0.09764 0.0
H1556 H 0.71922 0.84469 0.1192 0.0
H1557 H 0.71422 0.7237 0.17919 0.0
H1558 H 0.70432 0.71883 0.14394 0.0
H1559 H 0.73789 0.7266 0.15238 0.0
H1560 H 0.69558 0.71899 0.05554 0.0
H1561 H 0.77673 0.72998 0.07599 0.0
H1562 H 0.67392 0.77506 0.10118 0.0
H1563 H 0.67121 0.74383 0.11775 0.0
H1564 H 0.66357 0.7416 0.08199 0.0
H1565 H 0.77127 0.79073 0.12623 0.0
H1566 H 0.79262 0.76442 0.11149 0.0
H1567 H 0.77292 0.75853 0.14084 0.0
C1568 C 1.00253 1.01162 0.12324 0.0
C1569 C 0.02121 0.03436 0.12716 0.0
C1570 C 0.98612 1.00486 0.14469 0.0
C1571 C 0.9889 0.02096 0.17076 0.0
C1572 C 1.00821 0.04367 0.17485 0.0
C1573 C 0.02398 0.05028 0.15283 0.0
C1574 C 0.96549 0.98085 0.13933 0.0
C1575 C 0.01213 0.06101 0.2024 0.0
C1576 C 0.93085 0.02174 0.21898 0.0
C1577 C 0.9364 1.00104 0.23545 0.0
C1578 C 0.94777 0.02842 0.19791 0.0
C1579 C 0.97112 0.01451 0.19351 0.0
C1580 C 0.97716 0.99407 0.21046 0.0
C1581 C 0.95958 0.98734 0.23102 0.0
C1582 C 0.94037 0.04994 0.17996 0.0
C1583 C 1.00211 0.97921 0.20677 0.0
H1584 H 1.00053 0.99955 0.10318 0.0
H1585 H 0.0386 0.06781 0.15558 0.0
H1586 H 0.96814 0.96476 0.1532 0.0
H1587 H 0.94597 0.98888 0.1436 0.0
H1588 H 0.96592 0.97042 0.11793 0.0
H1589 H 0.02879 0.07706 0.20246 0.0
H1590 H 0.99432 0.07204 0.20848 0.0
H1591 H 0.01556 0.04699 0.21807 0.0
H1592 H 0.91286 0.03222 0.22207 0.0
H1593 H 0.96408 0.97143 0.24374 0.0
H1594 H 0.9389 0.04 0.15843 0.0
H1595 H 0.95566 0.06752 0.18075 0.0
H1596 H 0.92154 0.05889 0.18609 0.0
H1597 H 1.00249 0.96665 0.1863 0.0
H1598 H 1.0045 0.96484 0.22244 0.0
H1599 H 0.01902 0.99499 0.20786 0.0
C1600 C 0.35069 0.7822 0.16366 0.0
C1601 C 0.33121 0.76824 0.17796 0.0
C1602 C 0.34436 0.80134 0.14567 0.0
C1603 C 0.3179 0.80596 0.14139 0.0
C1604 C 0.29829 0.79239 0.15638 0.0
C1605 C 0.30526 0.77426 0.17487 0.0
C1606 C 0.3659 0.81615 0.13084 0.0
C1607 C 0.26982 0.79618 0.15219 0.0
C1608 C 0.2949 0.86763 0.10818 0.0
C1609 C 0.2906 0.85513 0.08124 0.0
C1610 C 0.3052 0.85238 0.12767 0.0
C1611 C 0.31036 0.82365 0.12027 0.0
C1612 C 0.30628 0.81109 0.09297 0.0
C1613 C 0.29688 0.82713 0.07371 0.0
C1614 C 0.31009 0.86685 0.15629 0.0
C1615 C 0.31071 0.78031 0.08435 0.0
H1616 H 0.37077 0.7777 0.1662 0.0
H1617 H 0.29028 0.76425 0.18665 0.0
H1618 H 0.36514 0.80816 0.10877 0.0
H1619 H 0.36336 0.8392 0.13287 0.0
H1620 H 0.38542 0.8128 0.13868 0.0
H1621 H 0.25699 0.78392 0.16532 0.0
H1622 H 0.26589 0.81883 0.15668 0.0
H1623 H 0.26453 0.78927 0.13054 0.0
H1624 H 0.29029 0.88938 0.114 0.0
H1625 H 0.29343 0.81734 0.05293 0.0
H1626 H 0.32989 0.86311 0.16303 0.0
H1627 H 0.29604 0.85787 0.17059 0.0
H1628 H 0.30813 0.89001 0.1579 0.0
H1629 H 0.33092 0.77598 0.08902 0.0
H1630 H 0.30719 0.77391 0.06221 0.0
H1631 H 0.29754 0.76687 0.09603 0.0
C1632 C 0.04258 0.49837 0.09723 0.0
C1633 C 0.01639 0.49307 0.10376 0.0
C1634 C 0.06159 0.50347 0.11784 0.0
C1635 C 0.05408 0.50316 0.14554 0.0
C1636 C 0.02783 0.4957 0.15186 0.0
C1637 C 1.00932 0.49082 0.13088 0.0
C1638 C 0.08933 0.51118 0.11014 0.0
C1639 C 0.0189 0.49486 0.18098 0.0
C1640 C 0.10461 0.50506 0.20179 0.0
C1641 C 0.10625 0.53382 0.21257 0.0
C1642 C 0.08808 0.49479 0.17973 0.0
C1643 C 0.07281 0.51366 0.16805 0.0
C1644 C 0.07461 0.54272 0.17858 0.0
C1645 C 0.09123 0.5524 0.20064 0.0
C1646 C 0.08667 0.46367 0.16915 0.0
C1647 C 0.05872 0.56362 0.16674 0.0
H1648 H 0.04786 0.50037 0.07623 0.0
H1649 H 0.98896 0.48677 0.13574 0.0
H1650 H 0.09402 0.53404 0.11662 0.0
H1651 H 0.10298 0.49934 0.12079 0.0
H1652 H 0.09268 0.50681 0.08779 0.0
H1653 H 0.99865 0.4855 0.18218 0.0
H1654 H 0.03191 0.48245 0.19181 0.0
H1655 H 0.0198 0.51666 0.19191 0.0
H1656 H 0.1161 0.49045 0.21073 0.0
H1657 H 0.09237 0.57466 0.20857 0.0
H1658 H 0.09091 0.46068 0.14694 0.0
H1659 H 0.06669 0.45426 0.17197 0.0
H1660 H 0.10052 0.45193 0.17969 0.0
H1661 H 0.06274 0.56305 0.14457 0.0
H1662 H 0.06287 0.58561 0.17672 0.0
H1663 H 0.03769 0.55773 0.16909 0.0
C1664 C 0.35183 0.71591 0.27881 0.0
C1665 C 0.36428 0.72258 0.25484 0.0
C1666 C 0.36626 0.71203 0.30192 0.0
C1667 C 0.39378 0.71596 0.30145 0.0
C1668 C 0.40638 0.7222 0.27705 0.0
C1669 C 0.39151 0.72506 0.25405 0.0
C1670 C 0.35183 0.70478 0.32706 0.0
C1671 C 0.43561 0.72686 0.2755 0.0
C1672 C 0.43328 0.74289 0.36502 0.0
C1673 C 0.44601 0.71896 0.36966 0.0
C1674 C 0.41501 0.74171 0.34399 0.0
C1675 C 0.40953 0.71601 0.32676 0.0
C1676 C 0.42151 0.69142 0.33211 0.0
C1677 C 0.43992 0.69327 0.35328 0.0
C1678 C 0.40256 0.7684 0.33937 0.0
C1679 C 0.41562 0.66343 0.3148 0.0
H1680 H 0.33081 0.71452 0.27986 0.0
H1681 H 0.40114 0.72984 0.23541 0.0
H1682 H 0.36272 0.69045 0.33802 0.0
H1683 H 0.34937 0.72451 0.34098 0.0
H1684 H 0.33218 0.69456 0.32196 0.0
H1685 H 0.44245 0.73061 0.25477 0.0
H1686 H 0.44228 0.74542 0.29019 0.0
H1687 H 0.44495 0.70826 0.28131 0.0
H1688 H 0.43848 0.76297 0.37715 0.0
H1689 H 0.44993 0.67481 0.35669 0.0
H1690 H 0.38108 0.76477 0.33967 0.0
H1691 H 0.40819 0.77429 0.31897 0.0
H1692 H 0.40832 0.78645 0.35506 0.0
H1693 H 0.39428 0.65892 0.31261 0.0
H1694 H 0.42392 0.64571 0.32358 0.0
H1695 H 0.42382 0.66434 0.29405 0.0
C1696 C 1.00527 0.43102 0.06792 0.0
C1697 C 1.00453 0.45255 0.05119 0.0
C1698 C 0.01081 0.40342 0.05685 0.0
C1699 C 0.01452 0.39705 0.02829 0.0
C1700 C 0.01637 0.41942 0.01194 0.0
C1701 C 0.01202 0.44699 0.02378 0.0
C1702 C 0.01069 0.38064 0.07537 0.0
C1703 C 0.02027 0.41385 0.98145 0.0
C1704 C 0.02803 0.32464 0.9899 0.0
C1705 C 1.00266 0.31288 0.98421 0.0
C1706 C 0.03245 0.35128 1.00573 0.0
C1707 C 0.01101 0.36714 0.01488 0.0
C1708 C 0.98543 0.35513 1.00943 0.0
C1709 C 0.98165 0.32802 0.99495 0.0
C1710 C 0.06009 0.36246 0.01191 0.0
C1711 C 0.96185 0.37142 0.01774 0.0
H1712 H 0.99979 0.43523 0.08921 0.0
H1713 H 0.01227 0.4639 0.01109 0.0
H1714 H 0.99165 0.36826 0.07395 0.0
H1715 H 0.026 0.36584 0.06914 0.0
H1716 H 0.01385 0.38974 0.09701 0.0
H1717 H 0.02245 0.43369 0.97185 0.0
H1718 H 0.03778 0.40191 0.97669 0.0
H1719 H 1.00332 0.40069 0.97209 0.0
H1720 H 0.04444 0.31309 0.98198 0.0
H1721 H 0.96193 0.31924 0.99102 0.0
H1722 H 0.06151 0.37756 0.03093 0.0
H1723 H 0.06785 0.3735 0.99478 0.0
H1724 H 0.07269 0.34487 0.01388 0.0
H1725 H 0.96096 0.37627 0.04026 0.0
H1726 H 0.94336 0.35959 0.01065 0.0
H1727 H 0.96325 0.39186 1.00917 0.0
C1728 C 0.64963 0.81883 0.29083 0.0
C1729 C 0.64079 0.82188 0.26475 0.0
C1730 C 0.63213 0.81279 0.3116 0.0
C1731 C 0.60524 0.80827 0.3057 0.0
C1732 C 0.59621 0.81136 0.27932 0.0
C1733 C 0.6141 0.81879 0.25933 0.0
C1734 C 0.6425 0.8107 0.33968 0.0
C1735 C 0.56786 0.80566 0.27186 0.0
C1736 C 0.5676 0.75947 0.34925 0.0
C1737 C 0.55303 0.77834 0.36611 0.0
C1738 C 0.58408 0.7689 0.32904 0.0
C1739 C 0.58694 0.79813 0.32646 0.0
C1740 C 0.57263 0.8174 0.3439 0.0
C1741 C 0.5553 0.80714 0.36316 0.0
C1742 C 0.59817 0.7475 0.31021 0.0
C1743 C 0.57599 0.84882 0.34254 0.0
H1744 H 0.67034 0.82113 0.29486 0.0
H1745 H 0.60736 0.82154 0.2392 0.0
H1746 H 0.63106 0.82321 0.35546 0.0
H1747 H 0.64053 0.78839 0.34386 0.0
H1748 H 0.66331 0.81835 0.3418 0.0
H1749 H 0.56397 0.80944 0.2506 0.0
H1750 H 0.56161 0.78336 0.27407 0.0
H1751 H 0.5557 0.81925 0.28594 0.0
H1752 H 0.56549 0.73711 0.35135 0.0
H1753 H 0.544 0.82166 0.37632 0.0
H1754 H 0.61946 0.75125 0.31323 0.0
H1755 H 0.59412 0.74983 0.28862 0.0
H1756 H 0.5924 0.72541 0.31371 0.0
H1757 H 0.59674 0.85624 0.34567 0.0
H1758 H 0.56408 0.86103 0.35812 0.0
H1759 H 0.57045 0.85353 0.32206 0.0
C1760 C 0.0607 0.11115 0.05722 0.0
C1761 C 0.05509 0.08214 0.04978 0.0
C1762 C 0.05419 0.13094 0.04009 0.0
C1763 C 0.04163 0.12143 0.0149 0.0
C1764 C 0.0378 0.09195 1.0064 0.0
C1765 C 0.04462 0.07264 0.02399 0.0
C1766 C 0.05894 0.16206 0.04994 0.0
C1767 C 0.02466 0.08081 0.9797 0.0
C1768 C 0.99468 0.17116 0.99029 0.0
C1769 C 1.00945 0.18361 0.97035 0.0
C1770 C 1.0048 0.15065 1.00456 0.0
C1771 C 0.03038 0.14226 0.99887 0.0
C1772 C 0.04528 0.15445 0.97858 0.0
C1773 C 0.03468 0.17488 0.96459 0.0
C1774 C 0.98819 0.13816 0.026 0.0
C1775 C 0.07259 0.14617 0.97189 0.0
H1776 H 0.06853 0.11837 0.07736 0.0
H1777 H 0.03988 0.0502 0.01854 0.0
H1778 H 0.06816 0.17334 0.03365 0.0
H1779 H 0.04008 0.17134 0.05511 0.0
H1780 H 0.07153 0.16593 0.06831 0.0
H1781 H 0.02621 0.05768 0.97443 0.0
H1782 H 1.00376 0.08505 0.9811 0.0
H1783 H 0.03325 0.09177 0.96287 0.0
H1784 H 0.97518 0.17753 0.9949 0.0
H1785 H 0.04637 0.18422 0.94926 0.0
H1786 H 0.99777 0.14305 0.0462 0.0
H1787 H 0.98607 0.11479 0.02122 0.0
H1788 H 0.9685 0.14636 0.02756 0.0
H1789 H 0.08511 0.15173 0.99016 0.0
H1790 H 0.08133 0.15682 0.95491 0.0
H1791 H 0.07262 0.12296 0.96621 0.0
C1792 C 0.39453 0.3338 0.32128 0.0
C1793 C 0.36995 0.32034 0.31514 0.0
C1794 C 0.41591 0.32847 0.30386 0.0
C1795 C 0.41248 0.30945 0.27952 0.0
C1796 C 0.38787 0.29474 0.27402 0.0
C1797 C 0.36692 0.30037 0.29195 0.0
C1798 C 0.4418 0.3443 0.31077 0.0
C1799 C 0.38327 0.27422 0.24842 0.0
C1800 C 0.45612 0.31576 0.21711 0.0
C1801 C 0.47124 0.29257 0.21749 0.0
C1802 C 0.43752 0.32222 0.23778 0.0
C1803 C 0.43429 0.30529 0.25941 0.0
C1804 C 0.45077 0.28302 0.26069 0.0
C1805 C 0.46882 0.27682 0.23966 0.0
C1806 C 0.4203 0.34613 0.23562 0.0
C1807 C 0.44841 0.26473 0.2835 0.0
H1808 H 0.39656 0.34975 0.33893 0.0
H1809 H 0.34768 0.2906 0.28698 0.0
H1810 H 0.45754 0.32946 0.30925 0.0
H1811 H 0.44632 0.35952 0.2959 0.0
H1812 H 0.44194 0.35616 0.33163 0.0
H1813 H 0.36338 0.26363 0.24773 0.0
H1814 H 0.38605 0.2856 0.23025 0.0
H1815 H 0.3976 0.2578 0.24693 0.0
H1816 H 0.45766 0.32771 0.19985 0.0
H1817 H 0.48052 0.25884 0.24002 0.0
H1818 H 0.42043 0.36056 0.25507 0.0
H1819 H 0.39995 0.33746 0.23187 0.0
H1820 H 0.42645 0.35856 0.21882 0.0
H1821 H 0.44842 0.27806 0.3036 0.0
H1822 H 0.46444 0.25029 0.28313 0.0
H1823 H 0.42966 0.25178 0.2817 0.0
C1824 C 0.55027 0.47692 0.07421 0.0
C1825 C 0.56244 0.47361 0.04864 0.0
C1826 C 0.54798 0.45472 0.09039 0.0
C1827 C 0.55808 0.42846 0.08067 0.0
C1828 C 0.57224 0.42583 0.05575 0.0
C1829 C 0.57416 0.44847 0.03995 0.0
C1830 C 0.53279 0.45864 0.11675 0.0
C1831 C 0.58355 0.39838 0.04469 0.0
C1832 C 0.56016 0.37203 0.12884 0.0
C1833 C 0.5376 0.35469 0.12138 0.0
C1834 C 0.56716 0.39604 0.1158 0.0
C1835 C 0.55118 0.40304 0.09486 0.0
C1836 C 0.52817 0.38586 0.08756 0.0
C1837 C 0.52172 0.36192 0.10082 0.0
C1838 C 0.59183 0.41372 0.12418 0.0
C1839 C 0.51041 0.39266 0.06553 0.0
H1840 H 0.54076 0.49624 0.08051 0.0
H1841 H 0.58303 0.44581 0.01988 0.0
H1842 H 0.51371 0.4464 0.11407 0.0
H1843 H 0.54319 0.4505 0.13333 0.0
H1844 H 0.52925 0.48119 0.12319 0.0
H1845 H 0.59699 0.40092 0.02729 0.0
H1846 H 0.59419 0.38986 0.06089 0.0
H1847 H 0.56757 0.38249 0.03758 0.0
H1848 H 0.57267 0.36657 0.14458 0.0
H1849 H 0.50431 0.34867 0.09484 0.0
H1850 H 0.58735 0.43591 0.13088 0.0
H1851 H 0.60521 0.41398 0.10644 0.0
H1852 H 0.60203 0.40565 0.14099 0.0
H1853 H 0.50362 0.41421 0.07088 0.0
H1854 H 0.49314 0.37738 0.06241 0.0
H1855 H 0.52119 0.39249 0.04595 0.0
C1856 C 0.66956 0.19261 0.25781 0.0
C1857 C 0.66543 0.19747 0.28597 0.0
C1858 C 0.64984 0.19673 0.23954 0.0
C1859 C 0.62571 0.20609 0.24991 0.0
C1860 C 0.62136 0.21012 0.27844 0.0
C1861 C 0.64131 0.20573 0.29609 0.0
C1862 C 0.65513 0.19209 0.20926 0.0
C1863 C 0.59603 0.2202 0.29039 0.0
C1864 C 0.58524 0.24919 0.2091 0.0
C1865 C 0.56489 0.22946 0.19963 0.0
C1866 C 0.60548 0.24162 0.22486 0.0
C1867 C 0.60554 0.21358 0.23126 0.0
C1868 C 0.5854 0.19338 0.22136 0.0
C1869 C 0.56526 0.20158 0.20578 0.0
C1870 C 0.6265 0.26386 0.23523 0.0
C1871 C 0.58487 0.16325 0.22767 0.0
H1872 H 0.68841 0.18644 0.25024 0.0
H1873 H 0.63845 0.20952 0.31799 0.0
H1874 H 0.63928 0.17819 0.19866 0.0
H1875 H 0.65563 0.21261 0.20091 0.0
H1876 H 0.67393 0.18246 0.20448 0.0
H1877 H 0.59531 0.2208 0.31295 0.0
H1878 H 0.59337 0.24177 0.28527 0.0
H1879 H 0.57943 0.2062 0.28146 0.0
H1880 H 0.58526 0.27078 0.2045 0.0
H1881 H 0.54977 0.18608 0.19849 0.0
H1882 H 0.64593 0.25658 0.22904 0.0
H1883 H 0.62605 0.26734 0.25786 0.0
H1884 H 0.62425 0.28439 0.22748 0.0
H1885 H 0.60363 0.15407 0.2218 0.0
H1886 H 0.56888 0.14964 0.21691 0.0
H1887 H 0.58236 0.16281 0.24995 0.0
C1888 C 0.49198 0.11498 0.01056 0.0
C1889 C 0.51154 0.09628 1.00457 0.0
C1890 C 0.49764 0.14251 0.02334 0.0
C1891 C 0.52402 0.15249 0.02826 0.0
C1892 C 0.54389 0.13541 0.01663 0.0
C1893 C 0.53751 0.10695 1.00619 0.0
C1894 C 0.47492 0.15991 0.03213 0.0
C1895 C 0.57185 0.14663 0.01506 0.0
C1896 C 0.51966 0.2257 0.06755 0.0
C1897 C 0.52792 0.2212 0.09344 0.0
C1898 C 0.52177 0.20491 0.04493 0.0
C1899 C 0.53017 0.17799 0.04885 0.0
C1900 C 0.5411 0.17474 0.07455 0.0
C1901 C 0.54102 0.1971 0.09598 0.0
C1902 C 0.51505 0.21229 0.01718 0.0
C1903 C 0.55256 0.14774 0.08003 0.0
H1904 H 0.47188 0.10705 1.00747 0.0
H1905 H 0.55286 0.09303 1.00045 0.0
H1906 H 0.47839 0.1732 0.05194 0.0
H1907 H 0.47146 0.17386 0.01644 0.0
H1908 H 0.4567 0.1464 0.03371 0.0
H1909 H 0.57753 0.14607 0.99325 0.0
H1910 H 0.57533 0.16868 0.02505 0.0
H1911 H 0.58474 0.13261 0.0241 0.0
H1912 H 0.51203 0.24576 0.06483 0.0
H1913 H 0.55036 0.19532 0.11517 0.0
H1914 H 0.49484 0.21902 0.01736 0.0
H1915 H 0.51731 0.19475 1.00052 0.0
H1916 H 0.52793 0.23073 0.01266 0.0
H1917 H 0.53967 0.12893 0.07232 0.0
H1918 H 0.55615 0.14733 0.10208 0.0
H1919 H 0.57169 0.14605 0.0698 0.0
C1920 C 0.22451 0.39217 0.7233 0.0
C1921 C 0.22392 0.36274 0.72239 0.0
C1922 C 0.24787 0.40889 0.72784 0.0
C1923 C 0.27146 0.39567 0.72977 0.0
C1924 C 0.27123 0.36578 0.72509 0.0
C1925 C 0.24739 0.34966 0.72224 0.0
C1926 C 0.24688 0.44063 0.73304 0.0
C1927 C 0.29571 0.35042 0.72508 0.0
C1928 C 0.33035 0.44859 0.7351 0.0
C1929 C 0.33419 0.4531 0.76336 0.0
C1930 C 0.31142 0.42809 0.72348 0.0
C1931 C 0.29508 0.41303 0.74073 0.0
C1932 C 0.2996 0.41697 0.76925 0.0
C1933 C 0.31918 0.43687 0.78017 0.0
C1934 C 0.30857 0.42289 0.69288 0.0
C1935 C 0.28299 0.40111 0.78844 0.0
H1936 H 0.20639 0.40217 0.72229 0.0
H1937 H 0.2471 0.32688 0.72148 0.0
H1938 H 0.25245 0.44813 0.75452 0.0
H1939 H 0.26096 0.45103 0.71974 0.0
H1940 H 0.22721 0.44758 0.72948 0.0
H1941 H 0.29438 0.33112 0.7099 0.0
H1942 H 0.31313 0.36388 0.72037 0.0
H1943 H 0.29796 0.34347 0.74545 0.0
H1944 H 0.3421 0.46115 0.72214 0.0
H1945 H 0.32201 0.44067 0.80208 0.0
H1946 H 0.29051 0.43174 0.68675 0.0
H1947 H 0.30693 0.39983 0.68586 0.0
H1948 H 0.32528 0.43277 0.6823 0.0
H1949 H 0.2623 0.40564 0.78651 0.0
H1950 H 0.28896 0.40681 0.81008 0.0
H1951 H 0.28435 0.37803 0.78296 0.0
C1952 C 0.23072 0.65434 0.86553 0.0
C1953 C 0.22503 0.66386 0.84072 0.0
C1954 C 0.25183 0.63754 0.86767 0.0
C1955 C 0.26695 0.62939 0.84419 0.0
C1956 C 0.26185 0.64001 0.81943 0.0
C1957 C 0.24138 0.65765 0.81825 0.0
C1958 C 0.25733 0.62774 0.89475 0.0
C1959 C 0.27713 0.63161 0.79374 0.0
C1960 C 0.3323 0.59696 0.84227 0.0
C1961 C 0.32488 0.5682 0.83536 0.0
C1962 C 0.31354 0.617 0.84754 0.0
C1963 C 0.28681 0.60816 0.84458 0.0
C1964 C 0.27927 0.57896 0.83863 0.0
C1965 C 0.29841 0.55929 0.8346 0.0
C1966 C 0.32237 0.64775 0.85503 0.0
C1967 C 0.25107 0.56863 0.83451 0.0
H1968 H 0.21814 0.65921 0.88296 0.0
H1969 H 0.23756 0.6659 0.79937 0.0
H1970 H 0.25096 0.60503 0.89412 0.0
H1971 H 0.27851 0.62999 0.89903 0.0
H1972 H 0.24698 0.6398 0.9118 0.0
H1973 H 0.27059 0.64166 0.77615 0.0
H1974 H 0.29811 0.63762 0.79712 0.0
H1975 H 0.27504 0.6083 0.78831 0.0
H1976 H 0.35279 0.60386 0.84305 0.0
H1977 H 0.29264 0.53707 0.82901 0.0
H1978 H 0.31015 0.65767 0.87173 0.0
H1979 H 0.32029 0.6593 0.83716 0.0
H1980 H 0.34305 0.65046 0.86155 0.0
H1981 H 0.23926 0.57666 0.85235 0.0
H1982 H 0.24834 0.54518 0.83134 0.0
H1983 H 0.24339 0.57691 0.81641 0.0
C1984 C 0.91391 0.51718 0.47467 0.0
C1985 C 0.93023 0.53236 0.49461 0.0
C1986 C 0.89073 0.50282 0.48189 0.0
C1987 C 0.88309 0.50479 0.50967 0.0
C1988 C 0.89922 0.52062 0.52989 0.0
C1989 C 0.92292 0.53365 0.52215 0.0
C1990 C 0.87449 0.48545 0.45975 0.0
C1991 C 0.89134 0.52401 0.55958 0.0
C1992 C 0.81093 0.48624 0.51711 0.0
C1993 C 0.81087 0.45827 0.5227 0.0
C1994 C 0.83444 0.50252 0.51506 0.0
C1995 C 0.8583 0.48993 0.5173 0.0
C1996 C 0.85821 0.46195 0.52398 0.0
C1997 C 0.8344 0.44661 0.52707 0.0
C1998 C 0.83372 0.53265 0.50905 0.0
C1999 C 0.88313 0.44738 0.52557 0.0
H2000 H 0.91931 0.5166 0.45337 0.0
H2001 H 0.93574 0.545 0.53762 0.0
H2002 H 0.87067 0.46353 0.46472 0.0
H2003 H 0.8554 0.49455 0.45841 0.0
H2004 H 0.88408 0.48458 0.43943 0.0
H2005 H 0.90532 0.53847 0.5725 0.0
H2006 H 0.87179 0.53243 0.56191 0.0
H2007 H 0.89001 0.50315 0.5673 0.0
H2008 H 0.79263 0.49507 0.51355 0.0
H2009 H 0.83422 0.42471 0.53082 0.0
H2010 H 0.83937 0.53394 0.48749 0.0
H2011 H 0.84783 0.54675 0.52209 0.0
H2012 H 0.81405 0.54063 0.5124 0.0
H2013 H 0.89203 0.44401 0.50494 0.0
H2014 H 0.87984 0.42654 0.53324 0.0
H2015 H 0.89736 0.46073 0.53905 0.0
C2016 C 0.7977 0.91036 0.83001 0.0
C2017 C 0.78996 0.88364 0.8373 0.0
C2018 C 0.77929 0.92936 0.82484 0.0
C2019 C 0.75246 0.92193 0.8282 0.0
C2020 C 0.74462 0.89558 0.83709 0.0
C2021 C 0.76342 0.87649 0.84091 0.0
C2022 C 0.78852 0.9568 0.81457 0.0
C2023 C 0.71632 0.88719 0.84182 0.0
C2024 C 0.70758 0.9824 0.83001 0.0
C2025 C 0.69742 0.97791 0.80351 0.0
C2026 C 0.72469 0.96366 0.8388 0.0
C2027 C 0.73265 0.9407 0.82023 0.0
C2028 C 0.72237 0.93618 0.79345 0.0
C2029 C 0.70451 0.95451 0.78562 0.0
C2030 C 0.73438 0.96852 0.86783 0.0
C2031 C 0.73096 0.9126 0.77269 0.0
H2032 H 0.81823 0.91603 0.8276 0.0
H2033 H 0.75736 0.85571 0.8462 0.0
H2034 H 0.78048 0.9574 0.79392 0.0
H2035 H 0.78132 0.97498 0.82807 0.0
H2036 H 0.81006 0.95957 0.81343 0.0
H2037 H 0.71378 0.86795 0.85233 0.0
H2038 H 0.70689 0.9047 0.85425 0.0
H2039 H 0.70601 0.88292 0.822 0.0
H2040 H 0.70202 1.00045 0.84388 0.0
H2041 H 0.69693 0.9512 0.765 0.0
H2042 H 0.75558 0.97429 0.86807 0.0
H2043 H 0.73125 0.94879 0.87746 0.0
H2044 H 0.72448 0.98563 0.88037 0.0
H2045 H 0.75235 0.91495 0.76984 0.0
H2046 H 0.72149 0.91231 0.75256 0.0
H2047 H 0.72636 0.89186 0.78008 0.0
C2048 C 0.61112 0.52321 0.04996 0.0
C2049 C 0.59985 0.51769 0.02404 0.0
C2050 C 0.63707 0.53472 0.05315 0.0
C2051 C 0.65114 0.54306 0.03013 0.0
C2052 C 0.64047 0.53446 1.00373 0.0
C2053 C 0.61556 0.5208 1.0012 0.0
C2054 C 0.64893 0.53754 0.0812 0.0
C2055 C 0.65442 0.54005 0.9777 0.0
C2056 C 0.69448 0.61156 0.04347 0.0
C2057 C 0.71642 0.60453 0.0279 0.0
C2058 C 0.67319 0.59171 0.04505 0.0
C2059 C 0.67509 0.56312 0.03326 0.0
C2060 C 0.69925 0.55515 0.02156 0.0
C2061 C 0.71912 0.5761 0.018 0.0
C2062 C 0.64869 0.60181 0.05901 0.0
C2063 C 0.70467 0.52472 0.01268 0.0
H2064 H 0.59952 0.51955 0.06776 0.0
H2065 H 0.60741 0.51448 0.98106 0.0
H2066 H 0.6691 0.54728 0.08205 0.0
H2067 H 0.63655 0.54998 0.09611 0.0
H2068 H 0.64919 0.5162 0.08781 0.0
H2069 H 0.64044 0.54166 0.96113 0.0
H2070 H 0.66743 0.55959 0.98036 0.0
H2071 H 0.6662 0.52195 0.97065 0.0
H2072 H 0.69368 0.63288 0.05379 0.0
H2073 H 0.73714 0.57007 1.00806 0.0
H2074 H 0.64663 0.59389 0.07907 0.0
H2075 H 0.63127 0.59396 0.04658 0.0
H2076 H 0.64912 0.62521 0.06309 0.0
H2077 H 0.68864 0.50947 0.0176 0.0
H2078 H 0.72261 0.51981 0.02285 0.0
H2079 H 0.70862 0.52165 0.9904 0.0
C2080 C 0.29003 0.69838 0.23913 0.0
C2081 C 0.31451 0.69006 0.23045 0.0
C2082 C 0.27038 0.67862 0.24535 0.0
C2083 C 0.27544 0.64975 0.24371 0.0
C2084 C 0.30091 0.64149 0.23698 0.0
C2085 C 0.32018 0.6618 0.22995 0.0
C2086 C 0.24368 0.68847 0.25155 0.0
C2087 C 0.3075 0.61114 0.2362 0.0
C2088 C 0.22374 0.60439 0.27703 0.0
C2089 C 0.21018 0.59035 0.2543 0.0
C2090 C 0.2457 0.62282 0.27387 0.0
C2091 C 0.25354 0.62835 0.24737 0.0
C2092 C 0.23929 0.6148 0.22439 0.0
C2093 C 0.21826 0.59527 0.22811 0.0
C2094 C 0.26067 0.63611 0.29886 0.0
C2095 C 0.246 0.62124 0.19591 0.0
H2096 H 0.28588 0.72034 0.23927 0.0
H2097 H 0.33922 0.65552 0.22313 0.0
H2098 H 0.23072 0.6801 0.23421 0.0
H2099 H 0.23578 0.68014 0.27009 0.0
H2100 H 0.24346 0.7119 0.25463 0.0
H2101 H 0.32878 0.60888 0.23442 0.0
H2102 H 0.30021 0.60249 0.2549 0.0
H2103 H 0.2978 0.59817 0.21849 0.0
H2104 H 0.21774 0.60007 0.29729 0.0
H2105 H 0.20786 0.58413 0.21058 0.0
H2106 H 0.25874 0.65927 0.30191 0.0
H2107 H 0.28168 0.63273 0.29608 0.0
H2108 H 0.2537 0.62734 0.31763 0.0
H2109 H 0.24534 0.64427 0.19492 0.0
H2110 H 0.23248 0.60964 0.18037 0.0
H2111 H 0.26609 0.61554 0.19059 0.0
C2112 C 0.92227 0.53285 0.07433 0.0
C2113 C 0.94361 0.52934 0.05676 0.0
C2114 C 0.90185 0.54904 0.06821 0.0
C2115 C 0.90302 0.56234 0.0441 0.0
C2116 C 0.92476 0.55901 0.02642 0.0
C2117 C 0.9447 0.54235 0.03289 0.0
C2118 C 0.8789 0.55169 0.08742 0.0
C2119 C 0.92698 0.5731 1.00075 0.0
C2120 C 0.83949 0.5831 0.01604 0.0
C2121 C 0.83928 0.6117 0.02685 0.0
C2122 C 0.86019 0.56687 0.02129 0.0
C2123 C 0.88143 0.57961 0.03737 0.0
C2124 C 0.88168 0.60869 0.04765 0.0
C2125 C 0.86052 0.62431 0.04245 0.0
C2126 C 0.859 0.53587 0.01022 0.0
C2127 C 0.90413 0.62321 0.06449 0.0
H2128 H 0.92149 0.52252 0.09266 0.0
H2129 H 0.96136 0.5396 0.01946 0.0
H2130 H 0.87683 0.57425 0.09516 0.0
H2131 H 0.86074 0.54368 0.07636 0.0
H2132 H 0.88084 0.53979 0.10513 0.0
H2133 H 0.94534 0.56883 0.98946 0.0
H2134 H 0.91036 0.56557 0.98706 0.0
H2135 H 0.92612 0.59631 1.0059 0.0
H2136 H 0.82309 0.57315 1.0041 0.0
H2137 H 0.86055 0.64641 0.0508 0.0
H2138 H 0.85894 0.52293 0.02736 0.0
H2139 H 0.87647 0.53107 0.99762 0.0
H2140 H 0.84141 0.52928 0.99759 0.0
H2141 H 0.90556 0.61362 0.08368 0.0
H2142 H 0.90202 0.64625 0.06977 0.0
H2143 H 0.92268 0.62019 0.05322 0.0
C2144 C 0.08677 1.00431 0.03876 0.0
C2145 C 0.08789 0.03101 0.05423 0.0
C2146 C 0.10956 0.99146 0.02971 0.0
C2147 C 0.13414 1.00567 0.03638 0.0
C2148 C 0.13524 0.03362 0.05021 0.0
C2149 C 0.11204 0.04597 0.05897 0.0
C2150 C 0.10732 0.9618 0.01482 0.0
C2151 C 0.16093 0.04968 0.05756 0.0
C2152 C 0.18882 0.95759 0.04492 0.0
C2153 C 0.20186 0.95704 0.01976 0.0
C2154 C 0.16725 0.97392 0.05082 0.0
C2155 C 0.15838 0.99022 0.03113 0.0
C2156 C 0.17188 0.99046 1.00605 0.0
C2157 C 0.19337 0.97393 1.00067 0.0
C2158 C 0.15347 0.9731 0.07788 0.0
C2159 C 0.16316 1.00753 0.98453 0.0
H2160 H 0.06802 0.99274 0.03542 0.0
H2161 H 0.11282 0.06642 0.07135 0.0
H2162 H 0.11984 0.96028 0.99635 0.0
H2163 H 0.11415 0.94689 0.02826 0.0
H2164 H 0.08699 0.95492 1.00862 0.0
H2165 H 0.15855 0.07233 0.06485 0.0
H2166 H 0.17027 0.04012 0.07397 0.0
H2167 H 0.17431 0.04827 0.03976 0.0
H2168 H 0.19509 0.94474 0.05987 0.0
H2169 H 0.20318 0.97382 0.98114 0.0
H2170 H 0.13326 0.96385 0.07445 0.0
H2171 H 0.15227 0.99487 0.0885 0.0
H2172 H 0.16341 0.96042 0.09147 0.0
H2173 H 0.14366 0.99901 0.97691 0.0
H2174 H 0.1768 1.00714 0.96693 0.0
H2175 H 0.16133 0.02983 0.9934 0.0
loop_
_geom_bond_atom_site_label_1
_geom_bond_atom_site_label_2
_geom_bond_distance
_geom_bond_site_symmetry_2
_ccdc_geom_bond_type
C0 N1 1.317 . S
C0 N2 1.348 . S
C0 C3 1.485 1_545 S
N1 C0 1.317 . S
N1 N5 1.370 . S
N2 C0 1.348 . S
N2 C4 1.347 . S
C3 C0 1.485 1_565 S
C3 H7 0.960 . S
C3 H8 0.961 . S
C3 H9 0.960 . S
C4 N2 1.347 . S
C4 N5 1.310 . S
C4 C6 1.483 1_455 S
N5 N1 1.370 . S
N5 C4 1.310 . S
C6 C4 1.483 1_655 S
C6 H10 0.960 . S
C6 H11 0.960 . S
C6 H12 0.959 . S
H7 C3 0.960 . S
H8 C3 0.961 . S
H9 C3 0.960 . S
H10 C6 0.960 . S
H11 C6 0.960 . S
H12 C6 0.959 . S
C13 N14 1.317 . S
C13 N15 1.348 . S
C13 C16 1.485 . S
N14 C13 1.317 . S
N14 N18 1.370 . S
N15 C13 1.348 . S
N15 C17 1.346 . S
C16 C13 1.485 . S
C16 H20 0.960 . S
C16 H21 0.961 . S
C16 H22 0.960 . S
C17 N15 1.346 . S
C17 N18 1.307 . S
C17 C19 1.486 . S
N18 N14 1.370 . S
N18 C17 1.307 . S
C19 C17 1.486 . S
C19 H23 0.960 . S
C19 H24 0.960 . S
C19 H25 0.959 . S
H20 C16 0.960 . S
H21 C16 0.961 . S
H22 C16 0.960 . S
H23 C19 0.960 . S
H24 C19 0.960 . S
H25 C19 0.959 . S
C26 N27 1.317 . S
C26 N28 1.348 . S
C26 C29 1.485 . S
N27 C26 1.317 . S
N27 N31 1.370 . S
N28 C26 1.348 . S
N28 C30 1.346 . S
C29 C26 1.485 . S
C29 H33 0.960 . S
C29 H34 0.961 . S
C29 H35 0.960 . S
C30 N28 1.346 . S
C30 N31 1.307 . S
C30 C32 1.486 . S
N31 N27 1.370 . S
N31 C30 1.307 . S
C32 C30 1.486 . S
C32 H36 0.957 1_554 S
C32 H37 0.960 . S
C32 H38 0.959 . S
H33 C29 0.960 . S
H34 C29 0.961 . S
H35 C29 0.960 . S
H36 C32 0.957 1_556 S
H37 C32 0.960 . S
H38 C32 0.959 . S
C39 N40 1.317 . S
C39 N41 1.348 . S
C39 C42 1.485 . S
N40 C39 1.317 . S
N40 N44 1.370 . S
N41 C39 1.348 . S
N41 C43 1.346 . S
C42 C39 1.485 . S
C42 H46 0.960 . S
C42 H47 0.961 . S
C42 H48 0.960 . S
C43 N41 1.346 . S
C43 N44 1.307 . S
C43 C45 1.486 . S
N44 N40 1.370 . S
N44 C43 1.307 . S
C45 C43 1.486 . S
C45 H49 0.960 . S
C45 H50 0.960 . S
C45 H51 0.959 . S
H46 C42 0.960 . S
H47 C42 0.961 . S
H48 C42 0.960 . S
H49 C45 0.960 . S
H50 C45 0.960 . S
H51 C45 0.959 . S
C52 N53 1.317 . S
C52 N54 1.348 . S
C52 C55 1.453 1_455 S
N53 C52 1.317 . S
N53 N57 1.370 . S
N54 C52 1.348 . S
N54 C56 1.346 1_565 S
C55 C52 1.453 1_655 S
C55 H59 0.953 1_655 S
C55 H60 1.003 . S
C55 H61 0.958 . S
C56 N54 1.346 1_545 S
C56 N57 1.307 1_545 S
C56 C58 1.486 . S
N57 N53 1.370 . S
N57 C56 1.307 1_565 S
C58 C56 1.486 . S
C58 H62 0.960 . S
C58 H63 0.960 . S
C58 H64 0.959 . S
H59 C55 0.953 1_455 S
H60 C55 1.003 . S
H61 C55 0.958 . S
H62 C58 0.960 . S
H63 C58 0.960 . S
H64 C58 0.959 . S
C65 N66 1.317 . S
C65 N67 1.348 . S
C65 C68 1.485 . S
N66 C65 1.317 . S
N66 N70 1.370 . S
N67 C65 1.348 . S
N67 C69 1.346 . S
C68 C65 1.485 . S
C68 H72 0.960 . S
C68 H73 0.961 . S
C68 H74 0.960 . S
C69 N67 1.346 . S
C69 N70 1.307 . S
C69 C71 1.486 . S
N70 N66 1.370 . S
N70 C69 1.307 . S
C71 C69 1.486 . S
C71 H75 0.960 . S
C71 H76 0.960 . S
C71 H77 0.959 . S
H72 C68 0.960 . S
H73 C68 0.961 . S
H74 C68 0.960 . S
H75 C71 0.960 . S
H76 C71 0.960 . S
H77 C71 0.959 . S
C78 N79 1.317 . S
C78 N80 1.348 . S
C78 C81 1.485 . S
N79 C78 1.317 . S
N79 N83 1.370 . S
N80 C78 1.348 . S
N80 C82 1.346 . S
C81 C78 1.485 . S
C81 H85 0.960 . S
C81 H86 0.961 . S
C81 H87 0.960 . S
C82 N80 1.346 . S
C82 N83 1.307 . S
C82 C84 1.486 . S
N83 N79 1.370 . S
N83 C82 1.307 . S
C84 C82 1.486 . S
C84 H88 0.960 . S
C84 H89 0.960 . S
C84 H90 0.959 . S
H85 C81 0.960 . S
H86 C81 0.961 . S
H87 C81 0.960 . S
H88 C84 0.960 . S
H89 C84 0.960 . S
H90 C84 0.959 . S
C91 N92 1.317 . S
C91 N93 1.348 . S
C91 C94 1.485 . S
N92 C91 1.317 . S
N92 N96 1.370 . S
N93 C91 1.348 . S
N93 C95 1.346 . S
C94 C91 1.485 . S
C94 H98 0.960 . S
C94 H99 0.961 . S
C94 H100 0.960 . S
C95 N93 1.346 . S
C95 N96 1.307 . S
C95 C97 1.486 . S
N96 N92 1.370 . S
N96 C95 1.307 . S
C97 C95 1.486 . S
C97 H101 0.960 . S
C97 H102 0.960 . S
C97 H103 0.959 . S
H98 C94 0.960 . S
H99 C94 0.961 . S
H100 C94 0.960 . S
H101 C97 0.960 . S
H102 C97 0.960 . S
H103 C97 0.959 . S
C104 N105 1.317 . S
C104 N106 1.348 . S
C104 C107 1.485 . S
N105 C104 1.317 . S
N105 N109 1.370 . S
N106 C104 1.348 . S
N106 C108 1.346 . S
C107 C104 1.485 . S
C107 H111 0.960 . S
C107 H112 0.961 . S
C107 H113 0.960 . S
C108 N106 1.346 . S
C108 N109 1.307 . S
C108 C110 1.486 . S
N109 N105 1.370 . S
N109 C108 1.307 . S
C110 C108 1.486 . S
C110 H114 0.960 . S
C110 H115 0.960 . S
C110 H116 0.959 . S
H111 C107 0.960 . S
H112 C107 0.961 . S
H113 C107 0.960 . S
H114 C110 0.960 . S
H115 C110 0.960 . S
H116 C110 0.959 . S
C117 N118 1.317 . S
C117 N119 1.348 . S
C117 C120 1.485 1_565 S
N118 C117 1.317 . S
N118 N122 1.370 . S
N119 C117 1.348 . S
N119 C121 1.346 . S
C120 C117 1.485 1_545 S
C120 H124 0.960 . S
C120 H125 0.961 . S
C120 H126 0.960 . S
C121 N119 1.346 . S
C121 N122 1.307 . S
C121 C123 1.486 . S
N122 N118 1.370 . S
N122 C121 1.307 . S
C123 C121 1.486 . S
C123 H127 0.960 . S
C123 H128 0.960 . S
C123 H129 0.959 . S
H124 C120 0.960 . S
H125 C120 0.961 . S
H126 C120 0.960 . S
H127 C123 0.960 . S
H128 C123 0.960 . S
H129 C123 0.959 . S
C130 N131 1.317 . S
C130 N132 1.348 . S
C130 C133 1.485 . S
N131 C130 1.317 . S
N131 N135 1.370 . S
N132 C130 1.348 . S
N132 C134 1.346 . S
C133 C130 1.485 . S
C133 H137 0.960 . S
C133 H138 0.961 . S
C133 H139 0.960 . S
C134 N132 1.346 . S
C134 N135 1.307 . S
C134 C136 1.486 . S
N135 N131 1.370 . S
N135 C134 1.307 . S
C136 C134 1.486 . S
C136 H140 0.960 . S
C136 H141 0.960 . S
C136 H142 0.959 . S
H137 C133 0.960 . S
H138 C133 0.961 . S
H139 C133 0.960 . S
H140 C136 0.960 . S
H141 C136 0.960 . S
H142 C136 0.959 . S
C143 N144 1.317 . S
C143 N145 1.348 . S
C143 C146 1.485 . S
N144 C143 1.317 . S
N144 N148 1.370 . S
N145 C143 1.348 . S
N145 C147 1.346 . S
C146 C143 1.485 . S
C146 H150 0.960 . S
C146 H151 0.961 . S
C146 H152 0.960 . S
C147 N145 1.346 . S
C147 N148 1.307 . S
C147 C149 1.486 . S
N148 N144 1.370 . S
N148 C147 1.307 . S
C149 C147 1.486 . S
C149 H153 0.960 . S
C149 H154 0.960 . S
C149 H155 0.959 . S
H150 C146 0.960 . S
H151 C146 0.961 . S
H152 C146 0.960 . S
H153 C149 0.960 . S
H154 C149 0.960 . S
H155 C149 0.959 . S
C156 N157 1.317 . S
C156 N158 1.348 . S
C156 C159 1.485 . S
N157 C156 1.317 . S
N157 N161 1.370 . S
N158 C156 1.348 . S
N158 C160 1.346 . S
C159 C156 1.485 . S
C159 H163 0.960 . S
C159 H164 0.961 . S
C159 H165 0.960 . S
C160 N158 1.346 . S
C160 N161 1.307 . S
C160 C162 1.486 . S
N161 N157 1.370 . S
N161 C160 1.307 . S
C162 C160 1.486 . S
C162 H166 0.960 . S
C162 H167 0.960 . S
C162 H168 0.959 . S
H163 C159 0.960 . S
H164 C159 0.961 . S
H165 C159 0.960 . S
H166 C162 0.960 . S
H167 C162 0.960 . S
H168 C162 0.959 . S
C169 N170 1.317 . S
C169 N171 1.348 . S
C169 C172 1.485 . S
N170 C169 1.317 . S
N170 N174 1.370 . S
N171 C169 1.348 . S
N171 C173 1.346 . S
C172 C169 1.485 . S
C172 H176 0.960 . S
C172 H177 0.961 . S
C172 H178 0.960 . S
C173 N171 1.346 . S
C173 N174 1.307 . S
C173 C175 1.486 . S
N174 N170 1.370 . S
N174 C173 1.307 . S
C175 C173 1.486 . S
C175 H179 0.960 . S
C175 H180 0.960 . S
C175 H181 0.959 . S
H176 C172 0.960 . S
H177 C172 0.961 . S
H178 C172 0.960 . S
H179 C175 0.960 . S
H180 C175 0.960 . S
H181 C175 0.959 . S
C182 N183 1.317 . S
C182 N184 1.348 . S
C182 C185 1.485 . S
N183 C182 1.317 . S
N183 N187 1.370 . S
N184 C182 1.348 . S
N184 C186 1.346 . S
C185 C182 1.485 . S
C185 H189 0.960 . S
C185 H190 0.961 . S
C185 H191 0.960 . S
C186 N184 1.346 . S
C186 N187 1.307 . S
C186 C188 1.486 . S
N187 N183 1.370 . S
N187 C186 1.307 . S
C188 C186 1.486 . S
C188 H192 0.960 . S
C188 H193 0.960 . S
C188 H194 0.959 . S
H189 C185 0.960 . S
H190 C185 0.961 . S
H191 C185 0.960 . S
H192 C188 0.960 . S
H193 C188 0.960 . S
H194 C188 0.959 . S
C195 N196 1.317 . S
C195 N197 1.348 . S
C195 C198 1.485 . S
N196 C195 1.317 . S
N196 N200 1.370 . S
N197 C195 1.348 . S
N197 C199 1.346 1_556 S
C198 C195 1.485 . S
C198 H202 0.960 . S
C198 H203 0.961 1_545 S
C198 H204 0.964 . S
C199 N197 1.346 1_554 S
C199 N200 1.307 1_554 S
C199 C201 1.486 . S
N200 N196 1.370 . S
N200 C199 1.307 1_556 S
C201 C199 1.486 . S
C201 H205 0.960 . S
C201 H206 0.960 . S
C201 H207 0.959 . S
H202 C198 0.960 . S
H203 C198 0.961 1_565 S
H204 C198 0.964 . S
H205 C201 0.960 . S
H206 C201 0.960 . S
H207 C201 0.959 . S
Mn208 O213 2.095 . S
Mn208 O223 2.162 . S
Mn208 O224 2.297 . S
Mn208 O232 2.385 . S
Mn208 O233 2.209 1_554 S
Mn208 O234 2.094 . S
Mn209 O214 2.121 . S
Mn209 N216 2.257 . S
Mn209 N225 2.282 . S
Mn209 O233 2.215 . S
Mn209 O235 2.117 . S
C210 O232 1.234 1_556 S
C210 O233 1.283 . S
C211 O223 1.281 . S
C211 O224 1.236 . S
C212 O234 1.240 . S
C212 O235 1.264 1_554 S
O213 Mn208 2.095 . S
O213 C222 1.250 . S
O214 Mn209 2.121 . S
O214 C222 1.258 1_556 S
C215 N216 1.326 . S
C215 C219 1.460 . S
C215 H221 0.929 . S
N216 Mn209 2.257 . S
N216 C215 1.326 . S
N216 C220 1.362 . S
C217 C218 1.258 . S
C217 C220 1.431 . S
C217 C237 1.449 . S
C218 C217 1.258 . S
C218 C219 1.477 . S
C218 H238 0.931 . S
C219 C215 1.460 . S
C219 C218 1.477 . S
C219 H239 0.930 . S
C220 N216 1.362 . S
C220 C217 1.431 . S
C220 C230 1.476 . S
H221 C215 0.929 . S
C222 O213 1.250 . S
C222 O214 1.258 1_554 S
O223 Mn208 2.162 . S
O223 C211 1.281 . S
O224 Mn208 2.297 . S
O224 C211 1.236 . S
N225 Mn209 2.282 . S
N225 C226 1.328 . S
N225 C230 1.318 . S
C226 N225 1.328 . S
C226 C227 1.457 . S
C226 H231 0.929 . S
C227 C226 1.457 . S
C227 C228 1.291 . S
C227 H240 0.931 . S
C228 C227 1.291 . S
C228 C229 1.373 . S
C228 H241 0.929 . S
C229 C228 1.373 . S
C229 C230 1.396 . S
C229 C236 1.403 . S
C230 C220 1.476 . S
C230 N225 1.318 . S
C230 C229 1.396 . S
H231 C226 0.929 . S
O232 Mn208 2.385 . S
O232 C210 1.234 1_554 S
O233 Mn208 2.209 1_556 S
O233 Mn209 2.215 . S
O233 C210 1.283 . S
O234 Mn208 2.094 . S
O234 C212 1.240 . S
O235 Mn209 2.117 . S
O235 C212 1.264 1_556 S
C236 C229 1.403 . S
C236 C237 1.399 . S
C236 H242 0.929 . S
C237 C217 1.449 . S
C237 C236 1.399 . S
C237 H243 0.930 . S
H238 C218 0.931 . S
H239 C219 0.930 . S
H240 C227 0.931 . S
H241 C228 0.929 . S
H242 C236 0.929 . S
H243 C237 0.930 . S
Mn244 O249 2.095 . S
Mn244 O259 2.162 . S
Mn244 O260 2.297 . S
Mn244 O268 2.385 . S
Mn244 O269 2.209 . S
Mn244 O270 2.094 . S
Mn245 O250 2.121 . S
Mn245 N252 2.257 . S
Mn245 N261 2.282 . S
Mn245 O269 2.215 . S
Mn245 O271 2.117 . S
C246 O268 1.234 . S
C246 O269 1.283 . S
C247 O259 1.281 . S
C247 O260 1.236 . S
C248 O270 1.240 . S
C248 O271 1.264 . S
O249 Mn244 2.095 . S
O249 C258 1.250 . S
O250 Mn245 2.121 . S
O250 C258 1.258 . S
C251 N252 1.326 . S
C251 C255 1.460 . S
C251 H257 0.929 . S
N252 Mn245 2.257 . S
N252 C251 1.326 . S
N252 C256 1.362 . S
C253 C254 1.258 . S
C253 C256 1.431 . S
C253 C273 1.449 . S
C254 C253 1.258 . S
C254 C255 1.477 . S
C254 H274 0.931 . S
C255 C251 1.460 . S
C255 C254 1.477 . S
C255 H275 0.930 . S
C256 N252 1.362 . S
C256 C253 1.431 . S
C256 C266 1.476 . S
H257 C251 0.929 . S
C258 O249 1.250 . S
C258 O250 1.258 . S
O259 Mn244 2.162 . S
O259 C247 1.281 . S
O260 Mn244 2.297 . S
O260 C247 1.236 . S
N261 Mn245 2.282 . S
N261 C262 1.328 . S
N261 C266 1.318 . S
C262 N261 1.328 . S
C262 C263 1.457 . S
C262 H267 0.929 . S
C263 C262 1.457 . S
C263 C264 1.291 . S
C263 H276 0.931 . S
C264 C263 1.291 . S
C264 C265 1.373 . S
C264 H277 0.929 . S
C265 C264 1.373 . S
C265 C266 1.396 . S
C265 C272 1.403 . S
C266 C256 1.476 . S
C266 N261 1.318 . S
C266 C265 1.396 . S
H267 C262 0.929 . S
O268 Mn244 2.385 . S
O268 C246 1.234 . S
O269 Mn244 2.209 . S
O269 Mn245 2.215 . S
O269 C246 1.283 . S
O270 Mn244 2.094 . S
O270 C248 1.240 . S
O271 Mn245 2.117 . S
O271 C248 1.264 . S
C272 C265 1.403 . S
C272 C273 1.399 . S
C272 H278 0.929 . S
C273 C253 1.449 . S
C273 C272 1.399 . S
C273 H279 0.930 . S
H274 C254 0.931 . S
H275 C255 0.930 . S
H276 C263 0.931 . S
H277 C264 0.929 . S
H278 C272 0.929 . S
H279 C273 0.930 . S
Mn280 O285 2.095 1_554 S
Mn280 O295 2.162 . S
Mn280 O296 2.297 1_554 S
Mn280 O304 2.385 . S
Mn280 O305 2.209 1_554 S
Mn280 O306 2.094 . S
Mn281 O286 2.121 . S
Mn281 N288 2.257 . S
Mn281 N297 2.282 1_556 S
Mn281 O305 2.215 . S
Mn281 O307 2.117 1_556 S
C282 O304 1.234 . S
C282 O305 1.283 1_554 S
C283 O295 1.281 . S
C283 O296 1.236 1_554 S
C284 O306 1.240 . S
C284 O307 1.264 . S
O285 Mn280 2.095 1_556 S
O285 C294 1.250 . S
O286 Mn281 2.121 . S
O286 C294 1.258 . S
C287 N288 1.326 . S
C287 C291 1.460 . S
C287 H293 0.929 . S
N288 Mn281 2.257 . S
N288 C287 1.326 . S
N288 C292 1.362 . S
C289 C290 1.258 . S
C289 C292 1.431 . S
C289 C309 1.449 . S
C290 C289 1.258 . S
C290 C291 1.477 . S
C290 H310 0.931 . S
C291 C287 1.460 . S
C291 C290 1.477 . S
C291 H311 0.930 . S
C292 N288 1.362 . S
C292 C289 1.431 . S
C292 C302 1.476 . S
H293 C287 0.929 . S
C294 O285 1.250 . S
C294 O286 1.258 . S
O295 Mn280 2.162 . S
O295 C283 1.281 . S
O296 Mn280 2.297 1_556 S
O296 C283 1.236 1_556 S
N297 Mn281 2.282 1_554 S
N297 C298 1.328 . S
N297 C302 1.318 1_554 S
C298 N297 1.328 . S
C298 C299 1.457 . S
C298 H303 0.929 . S
C299 C298 1.457 . S
C299 C300 1.291 . S
C299 H312 0.931 . S
C300 C299 1.291 . S
C300 C301 1.373 1_554 S
C300 H313 0.929 . S
C301 C300 1.373 1_556 S
C301 C302 1.396 . S
C301 C308 1.403 . S
C302 C292 1.476 . S
C302 N297 1.318 1_556 S
C302 C301 1.396 . S
H303 C298 0.929 . S
O304 Mn280 2.385 . S
O304 C282 1.234 . S
O305 Mn280 2.209 1_556 S
O305 Mn281 2.215 . S
O305 C282 1.283 1_556 S
O306 Mn280 2.094 . S
O306 C284 1.240 . S
O307 Mn281 2.117 1_554 S
O307 C284 1.264 . S
C308 C301 1.403 . S
C308 C309 1.399 . S
C308 H314 0.929 . S
C309 C289 1.449 . S
C309 C308 1.399 . S
C309 H315 0.930 . S
H310 C290 0.931 . S
H311 C291 0.930 . S
H312 C299 0.931 . S
H313 C300 0.929 . S
H314 C308 0.929 . S
H315 C309 0.930 . S
Mn316 O321 2.095 . S
Mn316 O331 2.162 . S
Mn316 O332 2.297 . S
Mn316 O340 2.385 1_545 S
Mn316 O341 2.209 1_545 S
Mn316 O342 2.094 . S
Mn317 O322 2.121 . S
Mn317 N324 2.257 . S
Mn317 N333 2.282 . S
Mn317 O341 2.215 . S
Mn317 O343 2.117 . S
C318 O340 1.234 . S
C318 O341 1.283 . S
C319 O331 1.281 . S
C319 O332 1.236 . S
C320 O342 1.240 . S
C320 O343 1.264 1_545 S
O321 Mn316 2.095 . S
O321 C330 1.250 . S
O322 Mn317 2.121 . S
O322 C330 1.258 1_565 S
C323 N324 1.326 . S
C323 C327 1.460 . S
C323 H329 0.929 . S
N324 Mn317 2.257 . S
N324 C323 1.326 . S
N324 C328 1.362 . S
C325 C326 1.258 . S
C325 C328 1.431 . S
C325 C345 1.449 . S
C326 C325 1.258 . S
C326 C327 1.477 . S
C326 H346 0.931 . S
C327 C323 1.460 . S
C327 C326 1.477 . S
C327 H347 0.930 . S
C328 N324 1.362 . S
C328 C325 1.431 . S
C328 C338 1.476 . S
H329 C323 0.929 . S
C330 O321 1.250 . S
C330 O322 1.258 1_545 S
O331 Mn316 2.162 . S
O331 C319 1.281 . S
O332 Mn316 2.297 . S
O332 C319 1.236 . S
N333 Mn317 2.282 . S
N333 C334 1.328 . S
N333 C338 1.318 . S
C334 N333 1.328 . S
C334 C335 1.457 . S
C334 H339 0.929 . S
C335 C334 1.457 . S
C335 C336 1.291 . S
C335 H348 0.931 . S
C336 C335 1.291 . S
C336 C337 1.373 . S
C336 H349 0.929 . S
C337 C336 1.373 . S
C337 C338 1.396 . S
C337 C344 1.403 . S
C338 C328 1.476 . S
C338 N333 1.318 . S
C338 C337 1.396 . S
H339 C334 0.929 . S
O340 Mn316 2.385 1_565 S
O340 C318 1.234 . S
O341 Mn316 2.209 1_565 S
O341 Mn317 2.215 . S
O341 C318 1.283 . S
O342 Mn316 2.094 . S
O342 C320 1.240 . S
O343 Mn317 2.117 . S
O343 C320 1.264 1_565 S
C344 C337 1.403 . S
C344 C345 1.399 . S
C344 H350 0.929 . S
C345 C325 1.449 . S
C345 C344 1.399 . S
C345 H351 0.930 . S
H346 C326 0.931 . S
H347 C327 0.930 . S
H348 C335 0.931 . S
H349 C336 0.929 . S
H350 C344 0.929 . S
H351 C345 0.930 . S
Mn352 O357 2.095 . S
Mn352 O367 2.162 . S
Mn352 O368 2.297 . S
Mn352 O376 2.385 . S
Mn352 O377 2.209 . S
Mn352 O378 2.094 . S
Mn353 O358 2.121 . S
Mn353 N360 2.257 . S
Mn353 N369 2.282 . S
Mn353 O377 2.215 . S
Mn353 O379 2.117 . S
C354 O376 1.234 . S
C354 O377 1.283 . S
C355 O367 1.281 . S
C355 O368 1.236 . S
C356 O378 1.240 . S
C356 O379 1.264 . S
O357 Mn352 2.095 . S
O357 C366 1.250 . S
O358 Mn353 2.121 . S
O358 C366 1.258 . S
C359 N360 1.326 . S
C359 C363 1.460 . S
C359 H365 0.929 . S
N360 Mn353 2.257 . S
N360 C359 1.326 . S
N360 C364 1.362 . S
C361 C362 1.258 . S
C361 C364 1.431 . S
C361 C381 1.449 . S
C362 C361 1.258 . S
C362 C363 1.477 . S
C362 H382 0.931 . S
C363 C359 1.460 . S
C363 C362 1.477 . S
C363 H383 0.930 . S
C364 N360 1.362 . S
C364 C361 1.431 . S
C364 C374 1.476 . S
H365 C359 0.929 . S
C366 O357 1.250 . S
C366 O358 1.258 . S
O367 Mn352 2.162 . S
O367 C355 1.281 . S
O368 Mn352 2.297 . S
O368 C355 1.236 . S
N369 Mn353 2.282 . S
N369 C370 1.328 . S
N369 C374 1.318 . S
C370 N369 1.328 . S
C370 C371 1.457 . S
C370 H375 0.929 . S
C371 C370 1.457 . S
C371 C372 1.291 . S
C371 H384 0.931 . S
C372 C371 1.291 . S
C372 C373 1.373 . S
C372 H385 0.929 . S
C373 C372 1.373 . S
C373 C374 1.396 . S
C373 C380 1.403 . S
C374 C364 1.476 . S
C374 N369 1.318 . S
C374 C373 1.396 . S
H375 C370 0.929 . S
O376 Mn352 2.385 . S
O376 C354 1.234 . S
O377 Mn352 2.209 . S
O377 Mn353 2.215 . S
O377 C354 1.283 . S
O378 Mn352 2.094 . S
O378 C356 1.240 . S
O379 Mn353 2.117 . S
O379 C356 1.264 . S
C380 C373 1.403 . S
C380 C381 1.399 . S
C380 H386 0.929 . S
C381 C361 1.449 . S
C381 C380 1.399 . S
C381 H387 0.930 . S
H382 C362 0.931 . S
H383 C363 0.930 . S
H384 C371 0.931 . S
H385 C372 0.929 . S
H386 C380 0.929 . S
H387 C381 0.930 . S
Mn388 O393 2.095 . S
Mn388 O403 2.162 . S
Mn388 O404 2.297 . S
Mn388 O412 2.385 . S
Mn388 O413 2.209 . S
Mn388 O414 2.094 . S
Mn389 O394 2.121 . S
Mn389 N396 2.257 . S
Mn389 N405 2.282 . S
Mn389 O413 2.215 . S
Mn389 O415 2.117 . S
C390 O412 1.234 . S
C390 O413 1.283 . S
C391 O403 1.281 . S
C391 O404 1.236 . S
C392 O414 1.240 . S
C392 O415 1.264 . S
O393 Mn388 2.095 . S
O393 C402 1.250 . S
O394 Mn389 2.121 . S
O394 C402 1.258 . S
C395 N396 1.326 . S
C395 C399 1.460 . S
C395 H401 0.929 . S
N396 Mn389 2.257 . S
N396 C395 1.326 . S
N396 C400 1.362 . S
C397 C398 1.258 . S
C397 C400 1.431 . S
C397 C417 1.449 . S
C398 C397 1.258 . S
C398 C399 1.477 . S
C398 H418 0.931 . S
C399 C395 1.460 . S
C399 C398 1.477 . S
C399 H419 0.930 . S
C400 N396 1.362 . S
C400 C397 1.431 . S
C400 C410 1.476 . S
H401 C395 0.929 . S
C402 O393 1.250 . S
C402 O394 1.258 . S
O403 Mn388 2.162 . S
O403 C391 1.281 . S
O404 Mn388 2.297 . S
O404 C391 1.236 . S
N405 Mn389 2.282 . S
N405 C406 1.328 . S
N405 C410 1.318 . S
C406 N405 1.328 . S
C406 C407 1.457 . S
C406 H411 0.929 . S
C407 C406 1.457 . S
C407 C408 1.291 . S
C407 H420 0.931 . S
C408 C407 1.291 . S
C408 C409 1.373 . S
C408 H421 0.929 . S
C409 C408 1.373 . S
C409 C410 1.396 . S
C409 C416 1.403 . S
C410 C400 1.476 . S
C410 N405 1.318 . S
C410 C409 1.396 . S
H411 C406 0.929 . S
O412 Mn388 2.385 . S
O412 C390 1.234 . S
O413 Mn388 2.209 . S
O413 Mn389 2.215 . S
O413 C390 1.283 . S
O414 Mn388 2.094 . S
O414 C392 1.240 . S
O415 Mn389 2.117 . S
O415 C392 1.264 . S
C416 C409 1.403 . S
C416 C417 1.399 . S
C416 H422 0.929 . S
C417 C397 1.449 . S
C417 C416 1.399 . S
C417 H423 0.930 . S
H418 C398 0.931 . S
H419 C399 0.930 . S
H420 C407 0.931 . S
H421 C408 0.929 . S
H422 C416 0.929 . S
H423 C417 0.930 . S
Mn424 O429 2.095 . S
Mn424 O439 2.162 . S
Mn424 O440 2.297 . S
Mn424 O448 2.385 . S
Mn424 O449 2.209 . S
Mn424 O450 2.094 . S
Mn425 O430 2.121 . S
Mn425 N432 2.257 . S
Mn425 N441 2.282 . S
Mn425 O449 2.215 . S
Mn425 O451 2.117 . S
C426 O448 1.234 . S
C426 O449 1.283 . S
C427 O439 1.281 . S
C427 O440 1.236 . S
C428 O450 1.240 . S
C428 O451 1.264 . S
O429 Mn424 2.095 . S
O429 C438 1.250 . S
O430 Mn425 2.121 . S
O430 C438 1.258 . S
C431 N432 1.326 . S
C431 C435 1.460 . S
C431 H437 0.929 . S
N432 Mn425 2.257 . S
N432 C431 1.326 . S
N432 C436 1.362 . S
C433 C434 1.258 . S
C433 C436 1.431 . S
C433 C453 1.449 . S
C434 C433 1.258 . S
C434 C435 1.477 . S
C434 H454 0.931 . S
C435 C431 1.460 . S
C435 C434 1.477 . S
C435 H455 0.930 . S
C436 N432 1.362 . S
C436 C433 1.431 . S
C436 C446 1.476 . S
H437 C431 0.929 . S
C438 O429 1.250 . S
C438 O430 1.258 . S
O439 Mn424 2.162 . S
O439 C427 1.281 . S
O440 Mn424 2.297 . S
O440 C427 1.236 . S
N441 Mn425 2.282 . S
N441 C442 1.328 . S
N441 C446 1.318 . S
C442 N441 1.328 . S
C442 C443 1.457 . S
C442 H447 0.929 . S
C443 C442 1.457 . S
C443 C444 1.291 . S
C443 H456 0.931 . S
C444 C443 1.291 . S
C444 C445 1.373 . S
C444 H457 0.929 . S
C445 C444 1.373 . S
C445 C446 1.396 . S
C445 C452 1.403 . S
C446 C436 1.476 . S
C446 N441 1.318 . S
C446 C445 1.396 . S
H447 C442 0.929 . S
O448 Mn424 2.385 . S
O448 C426 1.234 . S
O449 Mn424 2.209 . S
O449 Mn425 2.215 . S
O449 C426 1.283 . S
O450 Mn424 2.094 . S
O450 C428 1.240 . S
O451 Mn425 2.117 . S
O451 C428 1.264 . S
C452 C445 1.403 . S
C452 C453 1.399 . S
C452 H458 0.929 . S
C453 C433 1.449 . S
C453 C452 1.399 . S
C453 H459 0.930 . S
H454 C434 0.931 . S
H455 C435 0.930 . S
H456 C443 0.931 . S
H457 C444 0.929 . S
H458 C452 0.929 . S
H459 C453 0.930 . S
Mn460 O465 2.095 . S
Mn460 O475 2.162 1_545 S
Mn460 O476 2.297 . S
Mn460 O484 2.385 . S
Mn460 O485 2.209 . S
Mn460 O486 2.094 1_545 S
Mn461 O466 2.121 . S
Mn461 N468 2.257 . S
Mn461 N477 2.282 . S
Mn461 O485 2.215 . S
Mn461 O487 2.117 . S
C462 O484 1.234 . S
C462 O485 1.283 . S
C463 O475 1.281 . S
C463 O476 1.236 1_565 S
C464 O486 1.240 1_545 S
C464 O487 1.264 . S
O465 Mn460 2.095 . S
O465 C474 1.250 . S
O466 Mn461 2.121 . S
O466 C474 1.258 . S
C467 N468 1.326 . S
C467 C471 1.460 . S
C467 H473 0.929 . S
N468 Mn461 2.257 . S
N468 C467 1.326 . S
N468 C472 1.362 . S
C469 C470 1.258 . S
C469 C472 1.431 . S
C469 C489 1.449 . S
C470 C469 1.258 . S
C470 C471 1.477 . S
C470 H490 0.931 . S
C471 C467 1.460 . S
C471 C470 1.477 . S
C471 H491 0.930 . S
C472 N468 1.362 . S
C472 C469 1.431 . S
C472 C482 1.476 . S
H473 C467 0.929 . S
C474 O465 1.250 . S
C474 O466 1.258 . S
O475 Mn460 2.162 1_565 S
O475 C463 1.281 . S
O476 Mn460 2.297 . S
O476 C463 1.236 1_545 S
N477 Mn461 2.282 . S
N477 C478 1.328 . S
N477 C482 1.318 . S
C478 N477 1.328 . S
C478 C479 1.457 . S
C478 H483 0.929 . S
C479 C478 1.457 . S
C479 C480 1.291 . S
C479 H492 0.931 . S
C480 C479 1.291 . S
C480 C481 1.373 . S
C480 H493 0.929 . S
C481 C480 1.373 . S
C481 C482 1.396 . S
C481 C488 1.403 . S
C482 C472 1.476 . S
C482 N477 1.318 . S
C482 C481 1.396 . S
H483 C478 0.929 . S
O484 Mn460 2.385 . S
O484 C462 1.234 . S
O485 Mn460 2.209 . S
O485 Mn461 2.215 . S
O485 C462 1.283 . S
O486 Mn460 2.094 1_565 S
O486 C464 1.240 1_565 S
O487 Mn461 2.117 . S
O487 C464 1.264 . S
C488 C481 1.403 . S
C488 C489 1.399 . S
C488 H494 0.929 . S
C489 C469 1.449 . S
C489 C488 1.399 . S
C489 H495 0.930 . S
H490 C470 0.931 . S
H491 C471 0.930 . S
H492 C479 0.931 . S
H493 C480 0.929 . S
H494 C488 0.929 . S
H495 C489 0.930 . S
Mn496 O501 2.095 . S
Mn496 O511 2.162 . S
Mn496 O512 2.297 . S
Mn496 O520 2.385 1_455 S
Mn496 O521 2.209 1_455 S
Mn496 O522 2.094 . S
Mn497 O502 2.121 . S
Mn497 N504 2.257 . S
Mn497 N513 2.282 . S
Mn497 O521 2.215 . S
Mn497 O523 2.117 . S
C498 O520 1.234 . S
C498 O521 1.283 . S
C499 O511 1.281 . S
C499 O512 1.236 . S
C500 O522 1.240 . S
C500 O523 1.264 1_455 S
O501 Mn496 2.095 . S
O501 C510 1.231 1_455 S
O502 Mn497 2.121 . S
O502 C510 1.283 . S
C503 N504 1.326 . S
C503 C507 1.460 . S
C503 H509 0.929 . S
N504 Mn497 2.257 . S
N504 C503 1.326 . S
N504 C508 1.362 . S
C505 C506 1.258 . S
C505 C508 1.431 . S
C505 C525 1.449 . S
C506 C505 1.258 . S
C506 C507 1.477 . S
C506 H526 0.931 . S
C507 C503 1.460 . S
C507 C506 1.477 . S
C507 H527 0.930 . S
C508 N504 1.362 . S
C508 C505 1.431 . S
C508 C518 1.476 . S
H509 C503 0.929 . S
C510 O501 1.231 1_655 S
C510 O502 1.283 . S
O511 Mn496 2.162 . S
O511 C499 1.281 . S
O512 Mn496 2.297 . S
O512 C499 1.236 . S
N513 Mn497 2.282 . S
N513 C514 1.328 . S
N513 C518 1.318 . S
C514 N513 1.328 . S
C514 C515 1.457 . S
C514 H519 0.929 . S
C515 C514 1.457 . S
C515 C516 1.291 . S
C515 H528 0.931 . S
C516 C515 1.291 . S
C516 C517 1.373 . S
C516 H529 0.929 . S
C517 C516 1.373 . S
C517 C518 1.396 . S
C517 C524 1.403 . S
C518 C508 1.476 . S
C518 N513 1.318 . S
C518 C517 1.396 . S
H519 C514 0.929 . S
O520 Mn496 2.385 1_655 S
O520 C498 1.234 . S
O521 Mn496 2.209 1_655 S
O521 Mn497 2.215 . S
O521 C498 1.283 . S
O522 Mn496 2.094 . S
O522 C500 1.240 . S
O523 Mn497 2.117 . S
O523 C500 1.264 1_655 S
C524 C517 1.403 . S
C524 C525 1.399 . S
C524 H530 0.929 . S
C525 C505 1.449 . S
C525 C524 1.399 . S
C525 H531 0.930 . S
H526 C506 0.931 . S
H527 C507 0.930 . S
H528 C515 0.931 . S
H529 C516 0.929 . S
H530 C524 0.929 . S
H531 C525 0.930 . S
Mn532 O537 2.095 . S
Mn532 O547 2.162 . S
Mn532 O548 2.297 . S
Mn532 O556 2.385 . S
Mn532 O557 2.209 . S
Mn532 O558 2.094 . S
Mn533 O538 2.121 . S
Mn533 N540 2.257 . S
Mn533 N549 2.282 . S
Mn533 O557 2.215 . S
Mn533 O559 2.117 . S
C534 O556 1.234 . S
C534 O557 1.283 . S
C535 O547 1.281 . S
C535 O548 1.236 . S
C536 O558 1.240 . S
C536 O559 1.264 . S
O537 Mn532 2.095 . S
O537 C546 1.250 . S
O538 Mn533 2.121 . S
O538 C546 1.258 . S
C539 N540 1.326 . S
C539 C543 1.460 . S
C539 H545 0.929 . S
N540 Mn533 2.257 . S
N540 C539 1.326 . S
N540 C544 1.362 . S
C541 C542 1.258 . S
C541 C544 1.431 . S
C541 C561 1.449 . S
C542 C541 1.258 . S
C542 C543 1.477 . S
C542 H562 0.931 . S
C543 C539 1.460 . S
C543 C542 1.477 . S
C543 H563 0.930 . S
C544 N540 1.362 . S
C544 C541 1.431 . S
C544 C554 1.476 . S
H545 C539 0.929 . S
C546 O537 1.250 . S
C546 O538 1.258 . S
O547 Mn532 2.162 . S
O547 C535 1.281 . S
O548 Mn532 2.297 . S
O548 C535 1.236 . S
N549 Mn533 2.282 . S
N549 C550 1.328 . S
N549 C554 1.318 . S
C550 N549 1.328 . S
C550 C551 1.457 . S
C550 H555 0.929 . S
C551 C550 1.457 . S
C551 C552 1.291 . S
C551 H564 0.931 . S
C552 C551 1.291 . S
C552 C553 1.373 . S
C552 H565 0.929 . S
C553 C552 1.373 . S
C553 C554 1.396 . S
C553 C560 1.403 . S
C554 C544 1.476 . S
C554 N549 1.318 . S
C554 C553 1.396 . S
H555 C550 0.929 . S
O556 Mn532 2.385 . S
O556 C534 1.234 . S
O557 Mn532 2.209 . S
O557 Mn533 2.215 . S
O557 C534 1.283 . S
O558 Mn532 2.094 . S
O558 C536 1.240 . S
O559 Mn533 2.117 . S
O559 C536 1.264 . S
C560 C553 1.403 . S
C560 C561 1.399 . S
C560 H566 0.929 . S
C561 C541 1.449 . S
C561 C560 1.399 . S
C561 H567 0.930 . S
H562 C542 0.931 . S
H563 C543 0.930 . S
H564 C551 0.931 . S
H565 C552 0.929 . S
H566 C560 0.929 . S
H567 C561 0.930 . S
Mn568 O573 2.095 . S
Mn568 O583 2.162 . S
Mn568 O584 2.297 . S
Mn568 O592 2.385 . S
Mn568 O593 2.209 . S
Mn568 O594 2.094 . S
Mn569 O574 2.121 1_455 S
Mn569 N576 2.257 1_455 S
Mn569 N585 2.282 . S
Mn569 O593 2.215 . S
Mn569 O595 2.117 . S
C570 O592 1.234 . S
C570 O593 1.283 . S
C571 O583 1.281 . S
C571 O584 1.236 . S
C572 O594 1.240 . S
C572 O595 1.264 . S
O573 Mn568 2.095 . S
O573 C582 1.250 1_455 S
O574 Mn569 2.121 1_655 S
O574 C582 1.258 . S
C575 N576 1.326 . S
C575 C579 1.460 . S
C575 H581 0.929 . S
N576 Mn569 2.257 1_655 S
N576 C575 1.326 . S
N576 C580 1.362 . S
C577 C578 1.258 . S
C577 C580 1.431 . S
C577 C597 1.449 . S
C578 C577 1.258 . S
C578 C579 1.477 . S
C578 H598 0.931 . S
C579 C575 1.460 . S
C579 C578 1.477 . S
C579 H599 0.930 . S
C580 N576 1.362 . S
C580 C577 1.431 . S
C580 C590 1.476 . S
H581 C575 0.929 . S
C582 O573 1.250 1_655 S
C582 O574 1.258 . S
O583 Mn568 2.162 . S
O583 C571 1.281 . S
O584 Mn568 2.297 . S
O584 C571 1.236 . S
N585 Mn569 2.282 . S
N585 C586 1.328 . S
N585 C590 1.318 1_455 S
C586 N585 1.328 . S
C586 C587 1.457 . S
C586 H591 0.929 . S
C587 C586 1.457 . S
C587 C588 1.291 . S
C587 H600 0.931 . S
C588 C587 1.291 . S
C588 C589 1.407 . S
C588 H601 0.929 . S
C589 C588 1.407 . S
C589 C590 1.388 1_455 S
C589 C596 1.377 1_455 S
C590 C580 1.476 . S
C590 N585 1.318 1_655 S
C590 C589 1.388 1_655 S
H591 C586 0.929 . S
O592 Mn568 2.385 . S
O592 C570 1.234 . S
O593 Mn568 2.209 . S
O593 Mn569 2.215 . S
O593 C570 1.283 . S
O594 Mn568 2.094 . S
O594 C572 1.240 . S
O595 Mn569 2.117 . S
O595 C572 1.264 . S
C596 C589 1.377 1_655 S
C596 C597 1.399 . S
C596 H602 0.929 . S
C597 C577 1.449 . S
C597 C596 1.399 . S
C597 H603 0.930 . S
H598 C578 0.931 . S
H599 C579 0.930 . S
H600 C587 0.931 . S
H601 C588 0.929 . S
H602 C596 0.929 . S
H603 C597 0.930 . S
Mn604 O609 2.095 . S
Mn604 O619 2.162 . S
Mn604 O620 2.297 . S
Mn604 O628 2.385 . S
Mn604 O629 2.209 . S
Mn604 O630 2.094 . S
Mn605 O610 2.121 . S
Mn605 N612 2.257 . S
Mn605 N621 2.282 . S
Mn605 O629 2.215 . S
Mn605 O631 2.117 . S
C606 O628 1.234 . S
C606 O629 1.283 . S
C607 O619 1.281 . S
C607 O620 1.236 . S
C608 O630 1.240 . S
C608 O631 1.264 . S
O609 Mn604 2.095 . S
O609 C618 1.250 . S
O610 Mn605 2.121 . S
O610 C618 1.258 . S
C611 N612 1.326 . S
C611 C615 1.460 . S
C611 H617 0.929 . S
N612 Mn605 2.257 . S
N612 C611 1.326 . S
N612 C616 1.362 . S
C613 C614 1.258 . S
C613 C616 1.431 . S
C613 C633 1.449 . S
C614 C613 1.258 . S
C614 C615 1.477 . S
C614 H634 0.931 . S
C615 C611 1.460 . S
C615 C614 1.477 . S
C615 H635 0.930 . S
C616 N612 1.362 . S
C616 C613 1.431 . S
C616 C626 1.476 . S
H617 C611 0.929 . S
C618 O609 1.250 . S
C618 O610 1.258 . S
O619 Mn604 2.162 . S
O619 C607 1.281 . S
O620 Mn604 2.297 . S
O620 C607 1.236 . S
N621 Mn605 2.282 . S
N621 C622 1.328 . S
N621 C626 1.318 . S
C622 N621 1.328 . S
C622 C623 1.457 . S
C622 H627 0.929 . S
C623 C622 1.457 . S
C623 C624 1.291 . S
C623 H636 0.931 . S
C624 C623 1.291 . S
C624 C625 1.373 . S
C624 H637 0.929 . S
C625 C624 1.373 . S
C625 C626 1.396 . S
C625 C632 1.403 . S
C626 C616 1.476 . S
C626 N621 1.318 . S
C626 C625 1.396 . S
H627 C622 0.929 . S
O628 Mn604 2.385 . S
O628 C606 1.234 . S
O629 Mn604 2.209 . S
O629 Mn605 2.215 . S
O629 C606 1.283 . S
O630 Mn604 2.094 . S
O630 C608 1.240 . S
O631 Mn605 2.117 . S
O631 C608 1.264 . S
C632 C625 1.403 . S
C632 C633 1.399 . S
C632 H638 0.929 . S
C633 C613 1.449 . S
C633 C632 1.399 . S
C633 H639 0.930 . S
H634 C614 0.931 . S
H635 C615 0.930 . S
H636 C623 0.931 . S
H637 C624 0.929 . S
H638 C632 0.929 . S
H639 C633 0.930 . S
C640 C641 1.391 . S
C640 C642 1.394 . S
C640 H656 0.931 . S
C641 C640 1.391 . S
C641 C645 1.376 . S
C642 C640 1.394 . S
C642 C643 1.369 . S
C642 C646 1.531 . S
C643 C642 1.369 . S
C643 C644 1.410 . S
C643 C651 1.503 . S
C644 C643 1.410 . S
C644 C645 1.392 . S
C644 C647 1.511 . S
C645 C641 1.376 . S
C645 C644 1.392 . S
C645 H657 0.929 . S
C646 C642 1.531 . S
C646 H658 0.960 . S
C646 H659 0.962 . S
C646 H660 0.960 . S
C647 C644 1.511 . S
C647 H661 0.961 . S
C647 H662 0.961 . S
C647 H663 0.961 . S
C648 C649 1.370 . S
C648 C650 1.363 . S
C648 H664 0.931 . S
C649 C648 1.370 . S
C649 C653 1.408 . S
C650 C648 1.363 . S
C650 C651 1.370 . S
C650 C654 1.524 . S
C651 C643 1.503 . S
C651 C650 1.370 . S
C651 C652 1.403 . S
C652 C651 1.403 . S
C652 C653 1.404 . S
C652 C655 1.539 . S
C653 C649 1.408 . S
C653 C652 1.404 . S
C653 H665 0.930 . S
C654 C650 1.524 . S
C654 H666 0.956 . S
C654 H667 0.961 . S
C654 H668 0.961 . S
C655 C652 1.539 . S
C655 H669 0.958 . S
C655 H670 0.961 . S
C655 H671 0.960 . S
H656 C640 0.931 . S
H657 C645 0.929 . S
H658 C646 0.960 . S
H659 C646 0.962 . S
H660 C646 0.960 . S
H661 C647 0.961 . S
H662 C647 0.961 . S
H663 C647 0.961 . S
H664 C648 0.931 . S
H665 C653 0.930 . S
H666 C654 0.956 . S
H667 C654 0.961 . S
H668 C654 0.961 . S
H669 C655 0.958 . S
H670 C655 0.961 . S
H671 C655 0.960 . S
C672 C673 1.389 1_655 S
C672 C674 1.394 1_655 S
C672 H688 0.931 . S
C673 C672 1.389 1_455 S
C673 C677 1.387 . S
C674 C672 1.394 1_455 S
C674 C675 1.369 . S
C674 C678 1.531 . S
C675 C674 1.369 . S
C675 C676 1.410 . S
C675 C683 1.503 . S
C676 C675 1.410 . S
C676 C677 1.392 . S
C676 C679 1.511 . S
C677 C673 1.387 . S
C677 C676 1.392 . S
C677 H689 0.929 . S
C678 C674 1.531 . S
C678 H690 0.960 . S
C678 H691 0.962 . S
C678 H692 0.960 . S
C679 C676 1.511 . S
C679 H693 0.961 . S
C679 H694 0.961 . S
C679 H695 0.961 . S
C680 C681 1.370 . S
C680 C682 1.363 . S
C680 H696 0.931 . S
C681 C680 1.370 . S
C681 C685 1.408 . S
C682 C680 1.363 . S
C682 C683 1.370 . S
C682 C686 1.524 . S
C683 C675 1.503 . S
C683 C682 1.370 . S
C683 C684 1.403 . S
C684 C683 1.403 . S
C684 C685 1.404 . S
C684 C687 1.539 . S
C685 C681 1.408 . S
C685 C684 1.404 . S
C685 H697 0.930 . S
C686 C682 1.524 . S
C686 H698 0.956 . S
C686 H699 0.961 . S
C686 H700 0.961 . S
C687 C684 1.539 . S
C687 H701 0.958 . S
C687 H702 0.961 . S
C687 H703 0.960 . S
H688 C672 0.931 . S
H689 C677 0.929 . S
H690 C678 0.960 . S
H691 C678 0.962 . S
H692 C678 0.960 . S
H693 C679 0.961 . S
H694 C679 0.961 . S
H695 C679 0.961 . S
H696 C680 0.931 . S
H697 C685 0.930 . S
H698 C686 0.956 . S
H699 C686 0.961 . S
H700 C686 0.961 . S
H701 C687 0.958 . S
H702 C687 0.961 . S
H703 C687 0.960 . S
C704 C705 1.391 . S
C704 C706 1.394 . S
C704 H720 0.931 . S
C705 C704 1.391 . S
C705 C709 1.376 . S
C706 C704 1.394 . S
C706 C707 1.369 . S
C706 C710 1.531 . S
C707 C706 1.369 . S
C707 C708 1.410 . S
C707 C715 1.503 . S
C708 C707 1.410 . S
C708 C709 1.392 . S
C708 C711 1.511 . S
C709 C705 1.376 . S
C709 C708 1.392 . S
C709 H721 0.929 . S
C710 C706 1.531 . S
C710 H722 0.960 . S
C710 H723 0.962 . S
C710 H724 0.960 . S
C711 C708 1.511 . S
C711 H725 0.961 . S
C711 H726 0.961 . S
C711 H727 0.961 . S
C712 C713 1.370 . S
C712 C714 1.363 . S
C712 H728 0.931 . S
C713 C712 1.370 . S
C713 C717 1.408 . S
C714 C712 1.363 . S
C714 C715 1.370 . S
C714 C718 1.524 . S
C715 C707 1.503 . S
C715 C714 1.370 . S
C715 C716 1.403 . S
C716 C715 1.403 . S
C716 C717 1.404 . S
C716 C719 1.539 . S
C717 C713 1.408 . S
C717 C716 1.404 . S
C717 H729 0.930 . S
C718 C714 1.524 . S
C718 H730 0.956 . S
C718 H731 0.961 . S
C718 H732 0.961 . S
C719 C716 1.539 . S
C719 H733 0.958 . S
C719 H734 0.961 . S
C719 H735 0.960 . S
H720 C704 0.931 . S
H721 C709 0.929 . S
H722 C710 0.960 . S
H723 C710 0.962 . S
H724 C710 0.960 . S
H725 C711 0.961 . S
H726 C711 0.961 . S
H727 C711 0.961 . S
H728 C712 0.931 . S
H729 C717 0.930 . S
H730 C718 0.956 . S
H731 C718 0.961 . S
H732 C718 0.961 . S
H733 C719 0.958 . S
H734 C719 0.961 . S
H735 C719 0.960 . S
C736 C737 1.391 . S
C736 C738 1.394 1_455 S
C736 H752 0.931 . S
C737 C736 1.391 . S
C737 C741 1.376 1_455 S
C738 C736 1.394 1_655 S
C738 C739 1.369 . S
C738 C742 1.531 . S
C739 C738 1.369 . S
C739 C740 1.410 . S
C739 C747 1.504 1_565 S
C740 C739 1.410 . S
C740 C741 1.392 . S
C740 C743 1.511 . S
C741 C737 1.376 1_655 S
C741 C740 1.392 . S
C741 H753 0.929 . S
C742 C738 1.531 . S
C742 H754 0.960 . S
C742 H755 0.962 1_665 S
C742 H756 0.960 1_655 S
C743 C740 1.511 . S
C743 H757 0.961 1_565 S
C743 H758 0.961 1_565 S
C743 H759 0.961 . S
C744 C745 1.370 . S
C744 C746 1.363 . S
C744 H760 0.931 . S
C745 C744 1.370 . S
C745 C749 1.408 1_545 S
C746 C744 1.363 . S
C746 C747 1.368 . S
C746 C750 1.524 . S
C747 C739 1.504 1_545 S
C747 C746 1.368 . S
C747 C748 1.404 1_545 S
C748 C747 1.404 1_565 S
C748 C749 1.404 . S
C748 C751 1.539 . S
C749 C745 1.408 1_565 S
C749 C748 1.404 . S
C749 H761 0.930 . S
C750 C746 1.524 . S
C750 H762 0.956 . S
C750 H763 0.961 . S
C750 H764 0.961 . S
C751 C748 1.539 . S
C751 H765 0.958 . S
C751 H766 0.961 . S
C751 H767 0.960 . S
H752 C736 0.931 . S
H753 C741 0.929 . S
H754 C742 0.960 . S
H755 C742 0.962 1_445 S
H756 C742 0.960 1_455 S
H757 C743 0.961 1_545 S
H758 C743 0.961 1_545 S
H759 C743 0.961 . S
H760 C744 0.931 . S
H761 C749 0.930 . S
H762 C750 0.956 . S
H763 C750 0.961 . S
H764 C750 0.961 . S
H765 C751 0.958 . S
H766 C751 0.961 . S
H767 C751 0.960 . S
C768 C769 1.391 . S
C768 C770 1.394 . S
C768 H784 0.931 . S
C769 C768 1.391 . S
C769 C773 1.376 . S
C770 C768 1.394 . S
C770 C771 1.369 . S
C770 C774 1.531 . S
C771 C770 1.369 . S
C771 C772 1.410 . S
C771 C779 1.503 . S
C772 C771 1.410 . S
C772 C773 1.392 . S
C772 C775 1.511 . S
C773 C769 1.376 . S
C773 C772 1.392 . S
C773 H785 0.929 . S
C774 C770 1.531 . S
C774 H786 0.960 . S
C774 H787 0.962 . S
C774 H788 0.960 . S
C775 C772 1.511 . S
C775 H789 0.961 . S
C775 H790 0.961 . S
C775 H791 0.961 . S
C776 C777 1.370 . S
C776 C778 1.363 . S
C776 H792 0.931 . S
C777 C776 1.370 . S
C777 C781 1.408 . S
C778 C776 1.363 . S
C778 C779 1.370 . S
C778 C782 1.524 . S
C779 C771 1.503 . S
C779 C778 1.370 . S
C779 C780 1.403 . S
C780 C779 1.403 . S
C780 C781 1.404 . S
C780 C783 1.539 . S
C781 C777 1.408 . S
C781 C780 1.404 . S
C781 H793 0.930 . S
C782 C778 1.524 . S
C782 H794 0.956 . S
C782 H795 0.961 . S
C782 H796 0.961 . S
C783 C780 1.539 . S
C783 H797 0.958 . S
C783 H798 0.961 . S
C783 H799 0.960 . S
H784 C768 0.931 . S
H785 C773 0.929 . S
H786 C774 0.960 . S
H787 C774 0.962 . S
H788 C774 0.960 . S
H789 C775 0.961 . S
H790 C775 0.961 . S
H791 C775 0.961 . S
H792 C776 0.931 . S
H793 C781 0.930 . S
H794 C782 0.956 . S
H795 C782 0.961 . S
H796 C782 0.961 . S
H797 C783 0.958 . S
H798 C783 0.961 . S
H799 C783 0.960 . S
C800 C801 1.391 . S
C800 C802 1.394 . S
C800 H816 0.931 . S
C801 C800 1.391 . S
C801 C805 1.376 . S
C802 C800 1.394 . S
C802 C803 1.369 . S
C802 C806 1.531 . S
C803 C802 1.369 . S
C803 C804 1.410 . S
C803 C811 1.503 . S
C804 C803 1.410 . S
C804 C805 1.392 . S
C804 C807 1.511 . S
C805 C801 1.376 . S
C805 C804 1.392 . S
C805 H817 0.929 . S
C806 C802 1.531 . S
C806 H818 0.960 . S
C806 H819 0.962 . S
C806 H820 0.960 . S
C807 C804 1.511 . S
C807 H821 0.961 . S
C807 H822 0.961 . S
C807 H823 0.961 . S
C808 C809 1.370 . S
C808 C810 1.363 . S
C808 H824 0.931 . S
C809 C808 1.370 . S
C809 C813 1.408 . S
C810 C808 1.363 . S
C810 C811 1.370 . S
C810 C814 1.524 . S
C811 C803 1.503 . S
C811 C810 1.370 . S
C811 C812 1.403 . S
C812 C811 1.403 . S
C812 C813 1.404 . S
C812 C815 1.539 . S
C813 C809 1.408 . S
C813 C812 1.404 . S
C813 H825 0.930 . S
C814 C810 1.524 . S
C814 H826 0.956 . S
C814 H827 0.961 . S
C814 H828 0.961 . S
C815 C812 1.539 . S
C815 H829 0.958 . S
C815 H830 0.961 . S
C815 H831 0.960 . S
H816 C800 0.931 . S
H817 C805 0.929 . S
H818 C806 0.960 . S
H819 C806 0.962 . S
H820 C806 0.960 . S
H821 C807 0.961 . S
H822 C807 0.961 . S
H823 C807 0.961 . S
H824 C808 0.931 . S
H825 C813 0.930 . S
H826 C814 0.956 . S
H827 C814 0.961 . S
H828 C814 0.961 . S
H829 C815 0.958 . S
H830 C815 0.961 . S
H831 C815 0.960 . S
C832 C833 1.391 . S
C832 C834 1.394 . S
C832 H848 0.931 . S
C833 C832 1.391 . S
C833 C837 1.376 . S
C834 C832 1.394 . S
C834 C835 1.369 . S
C834 C838 1.531 . S
C835 C834 1.369 . S
C835 C836 1.410 . S
C835 C843 1.503 . S
C836 C835 1.410 . S
C836 C837 1.392 . S
C836 C839 1.511 . S
C837 C833 1.376 . S
C837 C836 1.392 . S
C837 H849 0.929 . S
C838 C834 1.531 . S
C838 H850 0.960 . S
C838 H851 0.962 . S
C838 H852 0.960 . S
C839 C836 1.511 . S
C839 H853 0.961 . S
C839 H854 0.961 . S
C839 H855 0.961 . S
C840 C841 1.370 . S
C840 C842 1.363 . S
C840 H856 0.931 . S
C841 C840 1.370 . S
C841 C845 1.408 . S
C842 C840 1.363 . S
C842 C843 1.370 . S
C842 C846 1.524 . S
C843 C835 1.503 . S
C843 C842 1.370 . S
C843 C844 1.403 . S
C844 C843 1.403 . S
C844 C845 1.404 . S
C844 C847 1.539 . S
C845 C841 1.408 . S
C845 C844 1.404 . S
C845 H857 0.930 . S
C846 C842 1.524 . S
C846 H858 0.956 . S
C846 H859 0.961 . S
C846 H860 0.961 . S
C847 C844 1.539 . S
C847 H861 0.958 . S
C847 H862 0.961 . S
C847 H863 0.960 . S
H848 C832 0.931 . S
H849 C837 0.929 . S
H850 C838 0.960 . S
H851 C838 0.962 . S
H852 C838 0.960 . S
H853 C839 0.961 . S
H854 C839 0.961 . S
H855 C839 0.961 . S
H856 C840 0.931 . S
H857 C845 0.930 . S
H858 C846 0.956 . S
H859 C846 0.961 . S
H860 C846 0.961 . S
H861 C847 0.958 . S
H862 C847 0.961 . S
H863 C847 0.960 . S
C864 C865 1.391 . S
C864 C866 1.394 . S
C864 H880 0.931 . S
C865 C864 1.391 . S
C865 C869 1.376 . S
C866 C864 1.394 . S
C866 C867 1.369 . S
C866 C870 1.531 . S
C867 C866 1.369 . S
C867 C868 1.410 . S
C867 C875 1.503 . S
C868 C867 1.410 . S
C868 C869 1.392 . S
C868 C871 1.511 . S
C869 C865 1.376 . S
C869 C868 1.392 . S
C869 H881 0.929 . S
C870 C866 1.531 . S
C870 H882 0.960 1_565 S
C870 H883 0.962 . S
C870 H884 0.960 1_565 S
C871 C868 1.511 . S
C871 H885 0.961 . S
C871 H886 0.961 . S
C871 H887 0.961 1_565 S
C872 C873 1.370 1_565 S
C872 C874 1.363 . S
C872 H888 0.931 . S
C873 C872 1.370 1_545 S
C873 C877 1.408 . S
C874 C872 1.363 . S
C874 C875 1.370 . S
C874 C878 1.524 . S
C875 C867 1.503 . S
C875 C874 1.370 . S
C875 C876 1.403 1_565 S
C876 C875 1.403 1_545 S
C876 C877 1.404 . S
C876 C879 1.539 . S
C877 C873 1.408 . S
C877 C876 1.404 . S
C877 H889 0.930 . S
C878 C874 1.524 . S
C878 H890 0.956 . S
C878 H891 0.961 . S
C878 H892 0.961 . S
C879 C876 1.539 . S
C879 H893 0.958 . S
C879 H894 0.961 . S
C879 H895 0.960 . S
H880 C864 0.931 . S
H881 C869 0.929 . S
H882 C870 0.960 1_545 S
H883 C870 0.962 . S
H884 C870 0.960 1_545 S
H885 C871 0.961 . S
H886 C871 0.961 . S
H887 C871 0.961 1_545 S
H888 C872 0.931 . S
H889 C877 0.930 . S
H890 C878 0.956 . S
H891 C878 0.961 . S
H892 C878 0.961 . S
H893 C879 0.958 . S
H894 C879 0.961 . S
H895 C879 0.960 . S
C896 C897 1.391 . S
C896 C898 1.394 . S
C896 H912 0.931 . S
C897 C896 1.391 . S
C897 C901 1.376 . S
C898 C896 1.394 . S
C898 C899 1.369 . S
C898 C902 1.531 . S
C899 C898 1.369 . S
C899 C900 1.410 . S
C899 C907 1.503 . S
C900 C899 1.410 . S
C900 C901 1.392 . S
C900 C903 1.511 . S
C901 C897 1.376 . S
C901 C900 1.392 . S
C901 H913 0.929 . S
C902 C898 1.531 . S
C902 H914 0.960 . S
C902 H915 0.962 . S
C902 H916 0.960 . S
C903 C900 1.511 . S
C903 H917 0.961 . S
C903 H918 0.961 . S
C903 H919 0.961 . S
C904 C905 1.370 . S
C904 C906 1.363 . S
C904 H920 0.931 . S
C905 C904 1.370 . S
C905 C909 1.408 . S
C906 C904 1.363 . S
C906 C907 1.370 . S
C906 C910 1.524 . S
C907 C899 1.503 . S
C907 C906 1.370 . S
C907 C908 1.403 . S
C908 C907 1.403 . S
C908 C909 1.404 . S
C908 C911 1.539 . S
C909 C905 1.408 . S
C909 C908 1.404 . S
C909 H921 0.930 . S
C910 C906 1.524 . S
C910 H922 0.956 . S
C910 H923 0.961 . S
C910 H924 0.961 . S
C911 C908 1.539 . S
C911 H925 0.958 . S
C911 H926 0.961 . S
C911 H927 0.960 . S
H912 C896 0.931 . S
H913 C901 0.929 . S
H914 C902 0.960 . S
H915 C902 0.962 . S
H916 C902 0.960 . S
H917 C903 0.961 . S
H918 C903 0.961 . S
H919 C903 0.961 . S
H920 C904 0.931 . S
H921 C909 0.930 . S
H922 C910 0.956 . S
H923 C910 0.961 . S
H924 C910 0.961 . S
H925 C911 0.958 . S
H926 C911 0.961 . S
H927 C911 0.960 . S
C928 C929 1.391 . S
C928 C930 1.394 . S
C928 H944 0.931 . S
C929 C928 1.391 . S
C929 C933 1.376 . S
C930 C928 1.394 . S
C930 C931 1.369 . S
C930 C934 1.531 . S
C931 C930 1.369 . S
C931 C932 1.410 . S
C931 C939 1.503 . S
C932 C931 1.410 . S
C932 C933 1.392 . S
C932 C935 1.511 . S
C933 C929 1.376 . S
C933 C932 1.392 . S
C933 H945 0.929 . S
C934 C930 1.531 . S
C934 H946 0.960 . S
C934 H947 0.962 . S
C934 H948 0.960 . S
C935 C932 1.511 . S
C935 H949 0.961 . S
C935 H950 0.961 . S
C935 H951 0.961 . S
C936 C937 1.370 . S
C936 C938 1.363 . S
C936 H952 0.931 . S
C937 C936 1.370 . S
C937 C941 1.408 . S
C938 C936 1.363 . S
C938 C939 1.370 . S
C938 C942 1.524 . S
C939 C931 1.503 . S
C939 C938 1.370 . S
C939 C940 1.403 . S
C940 C939 1.403 . S
C940 C941 1.404 . S
C940 C943 1.539 . S
C941 C937 1.408 . S
C941 C940 1.404 . S
C941 H953 0.930 . S
C942 C938 1.524 . S
C942 H954 0.956 . S
C942 H955 0.961 . S
C942 H956 0.961 . S
C943 C940 1.539 . S
C943 H957 0.958 . S
C943 H958 0.961 . S
C943 H959 0.960 . S
H944 C928 0.931 . S
H945 C933 0.929 . S
H946 C934 0.960 . S
H947 C934 0.962 . S
H948 C934 0.960 . S
H949 C935 0.961 . S
H950 C935 0.961 . S
H951 C935 0.961 . S
H952 C936 0.931 . S
H953 C941 0.930 . S
H954 C942 0.956 . S
H955 C942 0.961 . S
H956 C942 0.961 . S
H957 C943 0.958 . S
H958 C943 0.961 . S
H959 C943 0.960 . S
C960 C961 1.391 . S
C960 C962 1.394 . S
C960 H976 0.931 . S
C961 C960 1.391 . S
C961 C965 1.376 . S
C962 C960 1.394 . S
C962 C963 1.369 . S
C962 C966 1.531 . S
C963 C962 1.369 . S
C963 C964 1.410 . S
C963 C971 1.503 . S
C964 C963 1.410 . S
C964 C965 1.392 . S
C964 C967 1.511 . S
C965 C961 1.376 . S
C965 C964 1.392 . S
C965 H977 0.929 . S
C966 C962 1.531 . S
C966 H978 0.960 . S
C966 H979 0.962 . S
C966 H980 0.960 . S
C967 C964 1.511 . S
C967 H981 0.961 . S
C967 H982 0.961 . S
C967 H983 0.961 . S
C968 C969 1.370 . S
C968 C970 1.363 . S
C968 H984 0.931 . S
C969 C968 1.370 . S
C969 C973 1.408 . S
C970 C968 1.363 . S
C970 C971 1.370 . S
C970 C974 1.524 . S
C971 C963 1.503 . S
C971 C970 1.370 . S
C971 C972 1.403 . S
C972 C971 1.403 . S
C972 C973 1.404 . S
C972 C975 1.539 . S
C973 C969 1.408 . S
C973 C972 1.404 . S
C973 H985 0.930 . S
C974 C970 1.524 . S
C974 H986 0.956 . S
C974 H987 0.961 . S
C974 H988 0.961 . S
C975 C972 1.539 . S
C975 H989 0.958 . S
C975 H990 0.961 . S
C975 H991 0.960 . S
H976 C960 0.931 . S
H977 C965 0.929 . S
H978 C966 0.960 . S
H979 C966 0.962 . S
H980 C966 0.960 . S
H981 C967 0.961 . S
H982 C967 0.961 . S
H983 C967 0.961 . S
H984 C968 0.931 . S
H985 C973 0.930 . S
H986 C974 0.956 . S
H987 C974 0.961 . S
H988 C974 0.961 . S
H989 C975 0.958 . S
H990 C975 0.961 . S
H991 C975 0.960 . S
C992 C993 1.391 . S
C992 C994 1.394 . S
C992 H1008 0.931 . S
C993 C992 1.391 . S
C993 C997 1.376 . S
C994 C992 1.394 . S
C994 C995 1.369 . S
C994 C998 1.531 . S
C995 C994 1.369 . S
C995 C996 1.410 . S
C995 C1003 1.503 . S
C996 C995 1.410 . S
C996 C997 1.392 . S
C996 C999 1.511 . S
C997 C993 1.376 . S
C997 C996 1.392 . S
C997 H1009 0.929 . S
C998 C994 1.531 . S
C998 H1010 0.960 . S
C998 H1011 0.962 . S
C998 H1012 0.960 . S
C999 C996 1.511 . S
C999 H1013 0.961 . S
C999 H1014 0.961 . S
C999 H1015 0.961 . S
C1000 C1001 1.370 . S
C1000 C1002 1.363 . S
C1000 H1016 0.931 . S
C1001 C1000 1.370 . S
C1001 C1005 1.408 . S
C1002 C1000 1.363 . S
C1002 C1003 1.370 . S
C1002 C1006 1.524 . S
C1003 C995 1.503 . S
C1003 C1002 1.370 . S
C1003 C1004 1.403 . S
C1004 C1003 1.403 . S
C1004 C1005 1.404 . S
C1004 C1007 1.539 . S
C1005 C1001 1.408 . S
C1005 C1004 1.404 . S
C1005 H1017 0.930 . S
C1006 C1002 1.524 . S
C1006 H1018 0.956 . S
C1006 H1019 0.961 . S
C1006 H1020 0.961 . S
C1007 C1004 1.539 . S
C1007 H1021 0.958 . S
C1007 H1022 0.961 . S
C1007 H1023 0.960 . S
H1008 C992 0.931 . S
H1009 C997 0.929 . S
H1010 C998 0.960 . S
H1011 C998 0.962 . S
H1012 C998 0.960 . S
H1013 C999 0.961 . S
H1014 C999 0.961 . S
H1015 C999 0.961 . S
H1016 C1000 0.931 . S
H1017 C1005 0.930 . S
H1018 C1006 0.956 . S
H1019 C1006 0.961 . S
H1020 C1006 0.961 . S
H1021 C1007 0.958 . S
H1022 C1007 0.961 . S
H1023 C1007 0.960 . S
C1024 C1025 1.391 . S
C1024 C1026 1.394 . S
C1024 H1040 0.931 . S
C1025 C1024 1.391 . S
C1025 C1029 1.376 . S
C1026 C1024 1.394 . S
C1026 C1027 1.369 . S
C1026 C1030 1.531 . S
C1027 C1026 1.369 . S
C1027 C1028 1.410 . S
C1027 C1035 1.503 . S
C1028 C1027 1.410 . S
C1028 C1029 1.392 . S
C1028 C1031 1.511 . S
C1029 C1025 1.376 . S
C1029 C1028 1.392 . S
C1029 H1041 0.929 . S
C1030 C1026 1.531 . S
C1030 H1042 0.960 . S
C1030 H1043 0.962 . S
C1030 H1044 0.960 . S
C1031 C1028 1.511 . S
C1031 H1045 0.961 . S
C1031 H1046 0.961 . S
C1031 H1047 0.961 . S
C1032 C1033 1.370 . S
C1032 C1034 1.363 . S
C1032 H1048 0.931 . S
C1033 C1032 1.370 . S
C1033 C1037 1.408 . S
C1034 C1032 1.363 . S
C1034 C1035 1.370 . S
C1034 C1038 1.524 . S
C1035 C1027 1.503 . S
C1035 C1034 1.370 . S
C1035 C1036 1.403 . S
C1036 C1035 1.403 . S
C1036 C1037 1.404 . S
C1036 C1039 1.539 . S
C1037 C1033 1.408 . S
C1037 C1036 1.404 . S
C1037 H1049 0.930 . S
C1038 C1034 1.524 . S
C1038 H1050 0.956 . S
C1038 H1051 0.961 . S
C1038 H1052 0.961 . S
C1039 C1036 1.539 . S
C1039 H1053 0.958 . S
C1039 H1054 0.961 . S
C1039 H1055 0.960 . S
H1040 C1024 0.931 . S
H1041 C1029 0.929 . S
H1042 C1030 0.960 . S
H1043 C1030 0.962 . S
H1044 C1030 0.960 . S
H1045 C1031 0.961 . S
H1046 C1031 0.961 . S
H1047 C1031 0.961 . S
H1048 C1032 0.931 . S
H1049 C1037 0.930 . S
H1050 C1038 0.956 . S
H1051 C1038 0.961 . S
H1052 C1038 0.961 . S
H1053 C1039 0.958 . S
H1054 C1039 0.961 . S
H1055 C1039 0.960 . S
C1056 C1057 1.391 . S
C1056 C1058 1.394 . S
C1056 H1072 0.931 . S
C1057 C1056 1.391 . S
C1057 C1061 1.376 . S
C1058 C1056 1.394 . S
C1058 C1059 1.369 . S
C1058 C1062 1.531 . S
C1059 C1058 1.369 . S
C1059 C1060 1.410 . S
C1059 C1067 1.503 . S
C1060 C1059 1.410 . S
C1060 C1061 1.392 . S
C1060 C1063 1.511 1_455 S
C1061 C1057 1.376 . S
C1061 C1060 1.392 . S
C1061 H1073 0.929 . S
C1062 C1058 1.531 . S
C1062 H1074 0.960 . S
C1062 H1075 0.962 . S
C1062 H1076 0.960 . S
C1063 C1060 1.511 1_655 S
C1063 H1077 0.961 . S
C1063 H1078 0.961 . S
C1063 H1079 0.961 . S
C1064 C1065 1.370 . S
C1064 C1066 1.363 . S
C1064 H1080 0.931 . S
C1065 C1064 1.370 . S
C1065 C1069 1.408 . S
C1066 C1064 1.363 . S
C1066 C1067 1.370 . S
C1066 C1070 1.524 . S
C1067 C1059 1.503 . S
C1067 C1066 1.370 . S
C1067 C1068 1.403 . S
C1068 C1067 1.403 . S
C1068 C1069 1.404 . S
C1068 C1071 1.539 . S
C1069 C1065 1.408 . S
C1069 C1068 1.404 . S
C1069 H1081 0.930 . S
C1070 C1066 1.524 . S
C1070 H1082 0.956 . S
C1070 H1083 0.961 . S
C1070 H1084 0.961 . S
C1071 C1068 1.539 . S
C1071 H1085 0.958 . S
C1071 H1086 0.934 1_455 S
C1071 H1087 0.960 . S
H1072 C1056 0.931 . S
H1073 C1061 0.929 . S
H1074 C1062 0.960 . S
H1075 C1062 0.962 . S
H1076 C1062 0.960 . S
H1077 C1063 0.961 . S
H1078 C1063 0.961 . S
H1079 C1063 0.961 . S
H1080 C1064 0.931 . S
H1081 C1069 0.930 . S
H1082 C1070 0.956 . S
H1083 C1070 0.961 . S
H1084 C1070 0.961 . S
H1085 C1071 0.958 . S
H1086 C1071 0.934 1_655 S
H1087 C1071 0.960 . S
C1088 C1089 1.391 . S
C1088 C1090 1.394 . S
C1088 H1104 0.931 . S
C1089 C1088 1.391 . S
C1089 C1093 1.376 . S
C1090 C1088 1.394 . S
C1090 C1091 1.369 . S
C1090 C1094 1.531 . S
C1091 C1090 1.369 . S
C1091 C1092 1.410 . S
C1091 C1099 1.503 . S
C1092 C1091 1.410 . S
C1092 C1093 1.392 . S
C1092 C1095 1.511 . S
C1093 C1089 1.376 . S
C1093 C1092 1.392 . S
C1093 H1105 0.929 . S
C1094 C1090 1.531 . S
C1094 H1106 0.960 . S
C1094 H1107 0.962 . S
C1094 H1108 0.960 . S
C1095 C1092 1.511 . S
C1095 H1109 0.961 . S
C1095 H1110 0.961 . S
C1095 H1111 0.961 . S
C1096 C1097 1.370 . S
C1096 C1098 1.363 . S
C1096 H1112 0.931 . S
C1097 C1096 1.370 . S
C1097 C1101 1.408 . S
C1098 C1096 1.363 . S
C1098 C1099 1.370 . S
C1098 C1102 1.524 . S
C1099 C1091 1.503 . S
C1099 C1098 1.370 . S
C1099 C1100 1.403 . S
C1100 C1099 1.403 . S
C1100 C1101 1.404 . S
C1100 C1103 1.539 . S
C1101 C1097 1.408 . S
C1101 C1100 1.404 . S
C1101 H1113 0.930 . S
C1102 C1098 1.524 . S
C1102 H1114 0.956 . S
C1102 H1115 0.961 . S
C1102 H1116 0.961 . S
C1103 C1100 1.539 . S
C1103 H1117 0.958 . S
C1103 H1118 0.961 . S
C1103 H1119 0.960 . S
H1104 C1088 0.931 . S
H1105 C1093 0.929 . S
H1106 C1094 0.960 . S
H1107 C1094 0.962 . S
H1108 C1094 0.960 . S
H1109 C1095 0.961 . S
H1110 C1095 0.961 . S
H1111 C1095 0.961 . S
H1112 C1096 0.931 . S
H1113 C1101 0.930 . S
H1114 C1102 0.956 . S
H1115 C1102 0.961 . S
H1116 C1102 0.961 . S
H1117 C1103 0.958 . S
H1118 C1103 0.961 . S
H1119 C1103 0.960 . S
C1120 C1121 1.391 . S
C1120 C1122 1.394 1_655 S
C1120 H1136 0.931 1_655 S
C1121 C1120 1.391 . S
C1121 C1125 1.376 . S
C1122 C1120 1.394 1_455 S
C1122 C1123 1.369 1_455 S
C1122 C1126 1.531 . S
C1123 C1122 1.369 1_655 S
C1123 C1124 1.410 . S
C1123 C1131 1.503 . S
C1124 C1123 1.410 . S
C1124 C1125 1.392 . S
C1124 C1127 1.511 . S
C1125 C1121 1.376 . S
C1125 C1124 1.392 . S
C1125 H1137 0.929 . S
C1126 C1122 1.531 . S
C1126 H1138 0.960 . S
C1126 H1139 0.962 . S
C1126 H1140 0.960 . S
C1127 C1124 1.511 . S
C1127 H1141 0.961 . S
C1127 H1142 0.961 . S
C1127 H1143 0.961 . S
C1128 C1129 1.370 . S
C1128 C1130 1.363 . S
C1128 H1144 0.931 . S
C1129 C1128 1.370 . S
C1129 C1133 1.408 1_455 S
C1130 C1128 1.363 . S
C1130 C1131 1.370 1_455 S
C1130 C1134 1.524 . S
C1131 C1123 1.503 . S
C1131 C1130 1.370 1_655 S
C1131 C1132 1.403 . S
C1132 C1131 1.403 . S
C1132 C1133 1.404 . S
C1132 C1135 1.539 . S
C1133 C1129 1.408 1_655 S
C1133 C1132 1.404 . S
C1133 H1145 0.930 . S
C1134 C1130 1.524 . S
C1134 H1146 0.956 . S
C1134 H1147 0.961 . S
C1134 H1148 0.961 . S
C1135 C1132 1.539 . S
C1135 H1149 0.958 . S
C1135 H1150 0.961 . S
C1135 H1151 0.960 . S
H1136 C1120 0.931 1_455 S
H1137 C1125 0.929 . S
H1138 C1126 0.960 . S
H1139 C1126 0.962 . S
H1140 C1126 0.960 . S
H1141 C1127 0.961 . S
H1142 C1127 0.961 . S
H1143 C1127 0.961 . S
H1144 C1128 0.931 . S
H1145 C1133 0.930 . S
H1146 C1134 0.956 . S
H1147 C1134 0.961 . S
H1148 C1134 0.961 . S
H1149 C1135 0.958 . S
H1150 C1135 0.961 . S
H1151 C1135 0.960 . S
C1152 C1153 1.391 . S
C1152 C1154 1.394 . S
C1152 H1168 0.931 . S
C1153 C1152 1.391 . S
C1153 C1157 1.376 . S
C1154 C1152 1.394 . S
C1154 C1155 1.369 . S
C1154 C1158 1.531 . S
C1155 C1154 1.369 . S
C1155 C1156 1.410 . S
C1155 C1163 1.503 . S
C1156 C1155 1.410 . S
C1156 C1157 1.392 . S
C1156 C1159 1.511 . S
C1157 C1153 1.376 . S
C1157 C1156 1.392 . S
C1157 H1169 0.929 . S
C1158 C1154 1.531 . S
C1158 H1170 0.960 . S
C1158 H1171 0.962 . S
C1158 H1172 0.960 . S
C1159 C1156 1.511 . S
C1159 H1173 0.961 . S
C1159 H1174 0.961 . S
C1159 H1175 0.961 . S
C1160 C1161 1.370 . S
C1160 C1162 1.363 . S
C1160 H1176 0.931 . S
C1161 C1160 1.370 . S
C1161 C1165 1.408 . S
C1162 C1160 1.363 . S
C1162 C1163 1.370 . S
C1162 C1166 1.524 . S
C1163 C1155 1.503 . S
C1163 C1162 1.370 . S
C1163 C1164 1.403 . S
C1164 C1163 1.403 . S
C1164 C1165 1.404 . S
C1164 C1167 1.539 . S
C1165 C1161 1.408 . S
C1165 C1164 1.404 . S
C1165 H1177 0.930 . S
C1166 C1162 1.524 . S
C1166 H1178 0.956 . S
C1166 H1179 0.961 . S
C1166 H1180 0.961 . S
C1167 C1164 1.539 . S
C1167 H1181 0.958 . S
C1167 H1182 0.961 . S
C1167 H1183 0.960 . S
H1168 C1152 0.931 . S
H1169 C1157 0.929 . S
H1170 C1158 0.960 . S
H1171 C1158 0.962 . S
H1172 C1158 0.960 . S
H1173 C1159 0.961 . S
H1174 C1159 0.961 . S
H1175 C1159 0.961 . S
H1176 C1160 0.931 . S
H1177 C1165 0.930 . S
H1178 C1166 0.956 . S
H1179 C1166 0.961 . S
H1180 C1166 0.961 . S
H1181 C1167 0.958 . S
H1182 C1167 0.961 . S
H1183 C1167 0.960 . S
C1184 C1185 1.391 . S
C1184 C1186 1.394 . S
C1184 H1200 0.931 . S
C1185 C1184 1.391 . S
C1185 C1189 1.376 . S
C1186 C1184 1.394 . S
C1186 C1187 1.369 . S
C1186 C1190 1.531 . S
C1187 C1186 1.369 . S
C1187 C1188 1.410 . S
C1187 C1195 1.503 . S
C1188 C1187 1.410 . S
C1188 C1189 1.392 . S
C1188 C1191 1.511 . S
C1189 C1185 1.376 . S
C1189 C1188 1.392 . S
C1189 H1201 0.929 . S
C1190 C1186 1.531 . S
C1190 H1202 0.960 . S
C1190 H1203 0.962 . S
C1190 H1204 0.960 . S
C1191 C1188 1.511 . S
C1191 H1205 0.961 . S
C1191 H1206 0.961 . S
C1191 H1207 0.961 . S
C1192 C1193 1.370 . S
C1192 C1194 1.363 . S
C1192 H1208 0.931 . S
C1193 C1192 1.370 . S
C1193 C1197 1.408 . S
C1194 C1192 1.363 . S
C1194 C1195 1.370 . S
C1194 C1198 1.524 . S
C1195 C1187 1.503 . S
C1195 C1194 1.370 . S
C1195 C1196 1.403 . S
C1196 C1195 1.403 . S
C1196 C1197 1.404 . S
C1196 C1199 1.539 . S
C1197 C1193 1.408 . S
C1197 C1196 1.404 . S
C1197 H1209 0.930 . S
C1198 C1194 1.524 . S
C1198 H1210 0.956 . S
C1198 H1211 0.961 . S
C1198 H1212 0.961 . S
C1199 C1196 1.539 . S
C1199 H1213 0.958 . S
C1199 H1214 0.961 . S
C1199 H1215 0.960 . S
H1200 C1184 0.931 . S
H1201 C1189 0.929 . S
H1202 C1190 0.960 . S
H1203 C1190 0.962 . S
H1204 C1190 0.960 . S
H1205 C1191 0.961 . S
H1206 C1191 0.961 . S
H1207 C1191 0.961 . S
H1208 C1192 0.931 . S
H1209 C1197 0.930 . S
H1210 C1198 0.956 . S
H1211 C1198 0.961 . S
H1212 C1198 0.961 . S
H1213 C1199 0.958 . S
H1214 C1199 0.961 . S
H1215 C1199 0.960 . S
C1216 C1217 1.391 1_565 S
C1216 C1218 1.394 . S
C1216 H1232 0.931 . S
C1217 C1216 1.391 1_545 S
C1217 C1221 1.376 1_556 S
C1218 C1216 1.394 . S
C1218 C1219 1.369 1_556 S
C1218 C1222 1.531 . S
C1219 C1218 1.369 1_554 S
C1219 C1220 1.378 1_565 S
C1219 C1227 1.503 . S
C1220 C1219 1.378 1_545 S
C1220 C1221 1.416 . S
C1220 C1223 1.521 . S
C1221 C1217 1.376 1_554 S
C1221 C1220 1.416 . S
C1221 H1233 0.929 . S
C1222 C1218 1.531 . S
C1222 H1234 0.960 . S
C1222 H1235 0.962 . S
C1222 H1236 0.960 . S
C1223 C1220 1.521 . S
C1223 H1237 0.961 . S
C1223 H1238 0.961 . S
C1223 H1239 0.961 . S
C1224 C1225 1.370 1_556 S
C1224 C1226 1.363 . S
C1224 H1240 0.931 . S
C1225 C1224 1.370 1_554 S
C1225 C1229 1.408 . S
C1226 C1224 1.363 . S
C1226 C1227 1.370 1_556 S
C1226 C1230 1.524 . S
C1227 C1219 1.503 . S
C1227 C1226 1.370 1_554 S
C1227 C1228 1.403 . S
C1228 C1227 1.403 . S
C1228 C1229 1.404 . S
C1228 C1231 1.539 . S
C1229 C1225 1.408 . S
C1229 C1228 1.404 . S
C1229 H1241 0.930 . S
C1230 C1226 1.524 . S
C1230 H1242 0.956 . S
C1230 H1243 0.961 1_565 S
C1230 H1244 0.961 . S
C1231 C1228 1.539 . S
C1231 H1245 0.958 . S
C1231 H1246 0.961 . S
C1231 H1247 0.960 . S
H1232 C1216 0.931 . S
H1233 C1221 0.929 . S
H1234 C1222 0.960 . S
H1235 C1222 0.962 . S
H1236 C1222 0.960 . S
H1237 C1223 0.961 . S
H1238 C1223 0.961 . S
H1239 C1223 0.961 . S
H1240 C1224 0.931 . S
H1241 C1229 0.930 . S
H1242 C1230 0.956 . S
H1243 C1230 0.961 1_545 S
H1244 C1230 0.961 . S
H1245 C1231 0.958 . S
H1246 C1231 0.961 . S
H1247 C1231 0.960 . S
C1248 C1249 1.391 . S
C1248 C1250 1.394 . S
C1248 H1264 0.931 . S
C1249 C1248 1.391 . S
C1249 C1253 1.376 . S
C1250 C1248 1.394 . S
C1250 C1251 1.369 . S
C1250 C1254 1.531 . S
C1251 C1250 1.369 . S
C1251 C1252 1.410 . S
C1251 C1259 1.503 . S
C1252 C1251 1.410 . S
C1252 C1253 1.392 . S
C1252 C1255 1.511 . S
C1253 C1249 1.376 . S
C1253 C1252 1.392 . S
C1253 H1265 0.929 . S
C1254 C1250 1.531 . S
C1254 H1266 0.960 . S
C1254 H1267 0.962 . S
C1254 H1268 0.960 . S
C1255 C1252 1.511 . S
C1255 H1269 0.961 . S
C1255 H1270 0.961 . S
C1255 H1271 0.961 . S
C1256 C1257 1.370 . S
C1256 C1258 1.363 . S
C1256 H1272 0.931 . S
C1257 C1256 1.370 . S
C1257 C1261 1.408 . S
C1258 C1256 1.363 . S
C1258 C1259 1.370 . S
C1258 C1262 1.524 . S
C1259 C1251 1.503 . S
C1259 C1258 1.370 . S
C1259 C1260 1.403 . S
C1260 C1259 1.403 . S
C1260 C1261 1.404 . S
C1260 C1263 1.539 . S
C1261 C1257 1.408 . S
C1261 C1260 1.404 . S
C1261 H1273 0.930 . S
C1262 C1258 1.524 . S
C1262 H1274 0.956 . S
C1262 H1275 0.961 . S
C1262 H1276 0.961 . S
C1263 C1260 1.539 . S
C1263 H1277 0.958 . S
C1263 H1278 0.961 . S
C1263 H1279 0.960 . S
H1264 C1248 0.931 . S
H1265 C1253 0.929 . S
H1266 C1254 0.960 . S
H1267 C1254 0.962 . S
H1268 C1254 0.960 . S
H1269 C1255 0.961 . S
H1270 C1255 0.961 . S
H1271 C1255 0.961 . S
H1272 C1256 0.931 . S
H1273 C1261 0.930 . S
H1274 C1262 0.956 . S
H1275 C1262 0.961 . S
H1276 C1262 0.961 . S
H1277 C1263 0.958 . S
H1278 C1263 0.961 . S
H1279 C1263 0.960 . S
C1280 C1281 1.391 . S
C1280 C1282 1.394 . S
C1280 H1296 0.931 . S
C1281 C1280 1.391 . S
C1281 C1285 1.376 . S
C1282 C1280 1.394 . S
C1282 C1283 1.369 . S
C1282 C1286 1.531 . S
C1283 C1282 1.369 . S
C1283 C1284 1.410 . S
C1283 C1291 1.503 . S
C1284 C1283 1.410 . S
C1284 C1285 1.392 . S
C1284 C1287 1.511 . S
C1285 C1281 1.376 . S
C1285 C1284 1.392 . S
C1285 H1297 0.929 1_545 S
C1286 C1282 1.531 . S
C1286 H1298 0.960 . S
C1286 H1299 0.962 . S
C1286 H1300 0.960 . S
C1287 C1284 1.511 . S
C1287 H1301 0.961 1_545 S
C1287 H1302 0.961 . S
C1287 H1303 0.961 1_545 S
C1288 C1289 1.370 . S
C1288 C1290 1.363 . S
C1288 H1304 0.931 . S
C1289 C1288 1.370 . S
C1289 C1293 1.408 . S
C1290 C1288 1.363 . S
C1290 C1291 1.370 . S
C1290 C1294 1.524 . S
C1291 C1283 1.503 . S
C1291 C1290 1.370 . S
C1291 C1292 1.403 . S
C1292 C1291 1.403 . S
C1292 C1293 1.404 . S
C1292 C1295 1.539 . S
C1293 C1289 1.408 . S
C1293 C1292 1.404 . S
C1293 H1305 0.930 . S
C1294 C1290 1.524 . S
C1294 H1306 0.956 . S
C1294 H1307 0.961 . S
C1294 H1308 0.961 . S
C1295 C1292 1.539 . S
C1295 H1309 0.958 . S
C1295 H1310 0.961 . S
C1295 H1311 0.960 . S
H1296 C1280 0.931 . S
H1297 C1285 0.929 1_565 S
H1298 C1286 0.960 . S
H1299 C1286 0.962 . S
H1300 C1286 0.960 . S
H1301 C1287 0.961 1_565 S
H1302 C1287 0.961 . S
H1303 C1287 0.961 1_565 S
H1304 C1288 0.931 . S
H1305 C1293 0.930 . S
H1306 C1294 0.956 . S
H1307 C1294 0.961 . S
H1308 C1294 0.961 . S
H1309 C1295 0.958 . S
H1310 C1295 0.961 . S
H1311 C1295 0.960 . S
C1312 C1313 1.391 . S
C1312 C1314 1.394 . S
C1312 H1328 0.931 . S
C1313 C1312 1.391 . S
C1313 C1317 1.376 . S
C1314 C1312 1.394 . S
C1314 C1315 1.369 . S
C1314 C1318 1.531 . S
C1315 C1314 1.369 . S
C1315 C1316 1.410 . S
C1315 C1323 1.503 . S
C1316 C1315 1.410 . S
C1316 C1317 1.392 . S
C1316 C1319 1.511 . S
C1317 C1313 1.376 . S
C1317 C1316 1.392 . S
C1317 H1329 0.929 . S
C1318 C1314 1.531 . S
C1318 H1330 0.960 . S
C1318 H1331 0.962 . S
C1318 H1332 0.960 . S
C1319 C1316 1.511 . S
C1319 H1333 0.961 . S
C1319 H1334 0.961 . S
C1319 H1335 0.961 . S
C1320 C1321 1.370 . S
C1320 C1322 1.363 . S
C1320 H1336 0.931 . S
C1321 C1320 1.370 . S
C1321 C1325 1.408 . S
C1322 C1320 1.363 . S
C1322 C1323 1.370 . S
C1322 C1326 1.524 . S
C1323 C1315 1.503 . S
C1323 C1322 1.370 . S
C1323 C1324 1.403 . S
C1324 C1323 1.403 . S
C1324 C1325 1.404 . S
C1324 C1327 1.539 . S
C1325 C1321 1.408 . S
C1325 C1324 1.404 . S
C1325 H1337 0.930 . S
C1326 C1322 1.524 . S
C1326 H1338 0.956 . S
C1326 H1339 0.961 . S
C1326 H1340 0.961 . S
C1327 C1324 1.539 . S
C1327 H1341 0.958 . S
C1327 H1342 0.961 . S
C1327 H1343 0.960 . S
H1328 C1312 0.931 . S
H1329 C1317 0.929 . S
H1330 C1318 0.960 . S
H1331 C1318 0.962 . S
H1332 C1318 0.960 . S
H1333 C1319 0.961 . S
H1334 C1319 0.961 . S
H1335 C1319 0.961 . S
H1336 C1320 0.931 . S
H1337 C1325 0.930 . S
H1338 C1326 0.956 . S
H1339 C1326 0.961 . S
H1340 C1326 0.961 . S
H1341 C1327 0.958 . S
H1342 C1327 0.961 . S
H1343 C1327 0.960 . S
C1344 C1345 1.391 . S
C1344 C1346 1.394 . S
C1344 H1360 0.931 . S
C1345 C1344 1.391 . S
C1345 C1349 1.376 . S
C1346 C1344 1.394 . S
C1346 C1347 1.369 . S
C1346 C1350 1.531 . S
C1347 C1346 1.369 . S
C1347 C1348 1.410 . S
C1347 C1355 1.503 . S
C1348 C1347 1.410 . S
C1348 C1349 1.392 . S
C1348 C1351 1.511 . S
C1349 C1345 1.376 . S
C1349 C1348 1.392 . S
C1349 H1361 0.929 . S
C1350 C1346 1.531 . S
C1350 H1362 0.960 . S
C1350 H1363 0.962 . S
C1350 H1364 0.960 . S
C1351 C1348 1.511 . S
C1351 H1365 0.961 . S
C1351 H1366 0.961 . S
C1351 H1367 0.961 . S
C1352 C1353 1.370 . S
C1352 C1354 1.363 . S
C1352 H1368 0.931 . S
C1353 C1352 1.370 . S
C1353 C1357 1.408 . S
C1354 C1352 1.363 . S
C1354 C1355 1.370 . S
C1354 C1358 1.524 . S
C1355 C1347 1.503 . S
C1355 C1354 1.370 . S
C1355 C1356 1.403 . S
C1356 C1355 1.403 . S
C1356 C1357 1.404 . S
C1356 C1359 1.539 . S
C1357 C1353 1.408 . S
C1357 C1356 1.404 . S
C1357 H1369 0.930 . S
C1358 C1354 1.524 . S
C1358 H1370 0.956 . S
C1358 H1371 0.961 . S
C1358 H1372 0.961 . S
C1359 C1356 1.539 . S
C1359 H1373 0.958 . S
C1359 H1374 0.961 . S
C1359 H1375 0.960 . S
H1360 C1344 0.931 . S
H1361 C1349 0.929 . S
H1362 C1350 0.960 . S
H1363 C1350 0.962 . S
H1364 C1350 0.960 . S
H1365 C1351 0.961 . S
H1366 C1351 0.961 . S
H1367 C1351 0.961 . S
H1368 C1352 0.931 . S
H1369 C1357 0.930 . S
H1370 C1358 0.956 . S
H1371 C1358 0.961 . S
H1372 C1358 0.961 . S
H1373 C1359 0.958 . S
H1374 C1359 0.961 . S
H1375 C1359 0.960 . S
C1376 C1377 1.391 . S
C1376 C1378 1.394 . S
C1376 H1392 0.931 . S
C1377 C1376 1.391 . S
C1377 C1381 1.376 . S
C1378 C1376 1.394 . S
C1378 C1379 1.369 . S
C1378 C1382 1.531 . S
C1379 C1378 1.369 . S
C1379 C1380 1.410 . S
C1379 C1387 1.503 . S
C1380 C1379 1.410 . S
C1380 C1381 1.392 . S
C1380 C1383 1.511 . S
C1381 C1377 1.376 . S
C1381 C1380 1.392 . S
C1381 H1393 0.929 . S
C1382 C1378 1.531 . S
C1382 H1394 0.960 . S
C1382 H1395 0.962 . S
C1382 H1396 0.960 . S
C1383 C1380 1.511 . S
C1383 H1397 0.961 . S
C1383 H1398 0.961 . S
C1383 H1399 0.961 . S
C1384 C1385 1.370 . S
C1384 C1386 1.363 . S
C1384 H1400 0.931 . S
C1385 C1384 1.370 . S
C1385 C1389 1.408 . S
C1386 C1384 1.363 . S
C1386 C1387 1.370 . S
C1386 C1390 1.524 . S
C1387 C1379 1.503 . S
C1387 C1386 1.370 . S
C1387 C1388 1.403 . S
C1388 C1387 1.403 . S
C1388 C1389 1.404 . S
C1388 C1391 1.539 . S
C1389 C1385 1.408 . S
C1389 C1388 1.404 . S
C1389 H1401 0.930 . S
C1390 C1386 1.524 . S
C1390 H1402 0.956 . S
C1390 H1403 0.961 . S
C1390 H1404 0.961 . S
C1391 C1388 1.539 . S
C1391 H1405 0.958 . S
C1391 H1406 0.961 . S
C1391 H1407 0.960 . S
H1392 C1376 0.931 . S
H1393 C1381 0.929 . S
H1394 C1382 0.960 . S
H1395 C1382 0.962 . S
H1396 C1382 0.960 . S
H1397 C1383 0.961 . S
H1398 C1383 0.961 . S
H1399 C1383 0.961 . S
H1400 C1384 0.931 . S
H1401 C1389 0.930 . S
H1402 C1390 0.956 . S
H1403 C1390 0.961 . S
H1404 C1390 0.961 . S
H1405 C1391 0.958 . S
H1406 C1391 0.961 . S
H1407 C1391 0.960 . S
C1408 C1409 1.391 . S
C1408 C1410 1.394 . S
C1408 H1424 0.931 . S
C1409 C1408 1.391 . S
C1409 C1413 1.376 . S
C1410 C1408 1.394 . S
C1410 C1411 1.369 . S
C1410 C1414 1.531 . S
C1411 C1410 1.369 . S
C1411 C1412 1.410 . S
C1411 C1419 1.503 . S
C1412 C1411 1.410 . S
C1412 C1413 1.392 . S
C1412 C1415 1.511 . S
C1413 C1409 1.376 . S
C1413 C1412 1.392 . S
C1413 H1425 0.929 . S
C1414 C1410 1.531 . S
C1414 H1426 0.960 . S
C1414 H1427 0.962 . S
C1414 H1428 0.960 . S
C1415 C1412 1.511 . S
C1415 H1429 0.961 . S
C1415 H1430 0.961 . S
C1415 H1431 0.961 . S
C1416 C1417 1.370 . S
C1416 C1418 1.363 . S
C1416 H1432 0.931 . S
C1417 C1416 1.370 . S
C1417 C1421 1.408 . S
C1418 C1416 1.363 . S
C1418 C1419 1.370 . S
C1418 C1422 1.524 . S
C1419 C1411 1.503 . S
C1419 C1418 1.370 . S
C1419 C1420 1.403 . S
C1420 C1419 1.403 . S
C1420 C1421 1.404 . S
C1420 C1423 1.539 . S
C1421 C1417 1.408 . S
C1421 C1420 1.404 . S
C1421 H1433 0.930 . S
C1422 C1418 1.524 . S
C1422 H1434 0.956 . S
C1422 H1435 0.961 . S
C1422 H1436 0.961 . S
C1423 C1420 1.539 . S
C1423 H1437 0.958 . S
C1423 H1438 0.961 . S
C1423 H1439 0.960 . S
H1424 C1408 0.931 . S
H1425 C1413 0.929 . S
H1426 C1414 0.960 . S
H1427 C1414 0.962 . S
H1428 C1414 0.960 . S
H1429 C1415 0.961 . S
H1430 C1415 0.961 . S
H1431 C1415 0.961 . S
H1432 C1416 0.931 . S
H1433 C1421 0.930 . S
H1434 C1422 0.956 . S
H1435 C1422 0.961 . S
H1436 C1422 0.961 . S
H1437 C1423 0.958 . S
H1438 C1423 0.961 . S
H1439 C1423 0.960 . S
C1440 C1441 1.391 . S
C1440 C1442 1.394 . S
C1440 H1456 0.931 . S
C1441 C1440 1.391 . S
C1441 C1445 1.376 . S
C1442 C1440 1.394 . S
C1442 C1443 1.369 . S
C1442 C1446 1.531 . S
C1443 C1442 1.369 . S
C1443 C1444 1.410 . S
C1443 C1451 1.503 . S
C1444 C1443 1.410 . S
C1444 C1445 1.392 . S
C1444 C1447 1.511 . S
C1445 C1441 1.376 . S
C1445 C1444 1.392 . S
C1445 H1457 0.929 . S
C1446 C1442 1.531 . S
C1446 H1458 0.946 1_545 S
C1446 H1459 0.962 . S
C1446 H1460 0.960 1_545 S
C1447 C1444 1.511 . S
C1447 H1461 0.961 . S
C1447 H1462 0.961 . S
C1447 H1463 0.961 . S
C1448 C1449 1.370 . S
C1448 C1450 1.363 . S
C1448 H1464 0.931 . S
C1449 C1448 1.370 . S
C1449 C1453 1.408 . S
C1450 C1448 1.363 . S
C1450 C1451 1.370 . S
C1450 C1454 1.524 . S
C1451 C1443 1.503 . S
C1451 C1450 1.370 . S
C1451 C1452 1.403 . S
C1452 C1451 1.403 . S
C1452 C1453 1.404 . S
C1452 C1455 1.539 1_545 S
C1453 C1449 1.408 . S
C1453 C1452 1.404 . S
C1453 H1465 0.930 1_545 S
C1454 C1450 1.524 . S
C1454 H1466 0.956 . S
C1454 H1467 0.961 . S
C1454 H1468 0.961 . S
C1455 C1452 1.539 1_565 S
C1455 H1469 0.958 . S
C1455 H1470 0.961 . S
C1455 H1471 0.960 . S
H1456 C1440 0.931 . S
H1457 C1445 0.929 . S
H1458 C1446 0.946 1_565 S
H1459 C1446 0.962 . S
H1460 C1446 0.960 1_565 S
H1461 C1447 0.961 . S
H1462 C1447 0.961 . S
H1463 C1447 0.961 . S
H1464 C1448 0.931 . S
H1465 C1453 0.930 1_565 S
H1466 C1454 0.956 . S
H1467 C1454 0.961 . S
H1468 C1454 0.961 . S
H1469 C1455 0.958 . S
H1470 C1455 0.961 . S
H1471 C1455 0.960 . S
C1472 C1473 1.391 . S
C1472 C1474 1.394 . S
C1472 H1488 0.931 . S
C1473 C1472 1.391 . S
C1473 C1477 1.376 . S
C1474 C1472 1.394 . S
C1474 C1475 1.369 . S
C1474 C1478 1.531 . S
C1475 C1474 1.369 . S
C1475 C1476 1.410 . S
C1475 C1483 1.503 . S
C1476 C1475 1.410 . S
C1476 C1477 1.392 . S
C1476 C1479 1.511 . S
C1477 C1473 1.376 . S
C1477 C1476 1.392 . S
C1477 H1489 0.929 . S
C1478 C1474 1.531 . S
C1478 H1490 0.960 . S
C1478 H1491 0.962 . S
C1478 H1492 0.960 . S
C1479 C1476 1.511 . S
C1479 H1493 0.961 . S
C1479 H1494 0.961 . S
C1479 H1495 0.961 . S
C1480 C1481 1.370 . S
C1480 C1482 1.363 . S
C1480 H1496 0.931 . S
C1481 C1480 1.370 . S
C1481 C1485 1.408 . S
C1482 C1480 1.363 . S
C1482 C1483 1.370 . S
C1482 C1486 1.524 . S
C1483 C1475 1.503 . S
C1483 C1482 1.370 . S
C1483 C1484 1.403 . S
C1484 C1483 1.403 . S
C1484 C1485 1.404 . S
C1484 C1487 1.539 . S
C1485 C1481 1.408 . S
C1485 C1484 1.404 . S
C1485 H1497 0.930 . S
C1486 C1482 1.524 . S
C1486 H1498 0.956 . S
C1486 H1499 0.961 . S
C1486 H1500 0.961 . S
C1487 C1484 1.539 . S
C1487 H1501 0.958 . S
C1487 H1502 0.961 . S
C1487 H1503 0.960 . S
H1488 C1472 0.931 . S
H1489 C1477 0.929 . S
H1490 C1478 0.960 . S
H1491 C1478 0.962 . S
H1492 C1478 0.960 . S
H1493 C1479 0.961 . S
H1494 C1479 0.961 . S
H1495 C1479 0.961 . S
H1496 C1480 0.931 . S
H1497 C1485 0.930 . S
H1498 C1486 0.956 . S
H1499 C1486 0.961 . S
H1500 C1486 0.961 . S
H1501 C1487 0.958 . S
H1502 C1487 0.961 . S
H1503 C1487 0.960 . S
C1504 C1505 1.391 . S
C1504 C1506 1.394 . S
C1504 H1520 0.931 . S
C1505 C1504 1.391 . S
C1505 C1509 1.376 . S
C1506 C1504 1.394 . S
C1506 C1507 1.369 . S
C1506 C1510 1.531 . S
C1507 C1506 1.369 . S
C1507 C1508 1.410 . S
C1507 C1515 1.503 . S
C1508 C1507 1.410 . S
C1508 C1509 1.392 . S
C1508 C1511 1.511 . S
C1509 C1505 1.376 . S
C1509 C1508 1.392 . S
C1509 H1521 0.929 . S
C1510 C1506 1.531 . S
C1510 H1522 0.960 . S
C1510 H1523 0.962 . S
C1510 H1524 0.960 . S
C1511 C1508 1.511 . S
C1511 H1525 0.961 . S
C1511 H1526 0.961 . S
C1511 H1527 0.961 . S
C1512 C1513 1.370 . S
C1512 C1514 1.363 . S
C1512 H1528 0.931 . S
C1513 C1512 1.370 . S
C1513 C1517 1.408 . S
C1514 C1512 1.363 . S
C1514 C1515 1.370 . S
C1514 C1518 1.524 . S
C1515 C1507 1.503 . S
C1515 C1514 1.370 . S
C1515 C1516 1.403 . S
C1516 C1515 1.403 . S
C1516 C1517 1.404 . S
C1516 C1519 1.539 . S
C1517 C1513 1.408 . S
C1517 C1516 1.404 . S
C1517 H1529 0.930 . S
C1518 C1514 1.524 . S
C1518 H1530 0.956 . S
C1518 H1531 0.961 . S
C1518 H1532 0.961 . S
C1519 C1516 1.539 . S
C1519 H1533 0.958 . S
C1519 H1534 0.961 . S
C1519 H1535 0.960 . S
H1520 C1504 0.931 . S
H1521 C1509 0.929 . S
H1522 C1510 0.960 . S
H1523 C1510 0.962 . S
H1524 C1510 0.960 . S
H1525 C1511 0.961 . S
H1526 C1511 0.961 . S
H1527 C1511 0.961 . S
H1528 C1512 0.931 . S
H1529 C1517 0.930 . S
H1530 C1518 0.956 . S
H1531 C1518 0.961 . S
H1532 C1518 0.961 . S
H1533 C1519 0.958 . S
H1534 C1519 0.961 . S
H1535 C1519 0.960 . S
C1536 C1537 1.391 . S
C1536 C1538 1.394 . S
C1536 H1552 0.931 . S
C1537 C1536 1.391 . S
C1537 C1541 1.376 . S
C1538 C1536 1.394 . S
C1538 C1539 1.369 . S
C1538 C1542 1.531 . S
C1539 C1538 1.369 . S
C1539 C1540 1.410 . S
C1539 C1547 1.503 . S
C1540 C1539 1.410 . S
C1540 C1541 1.392 . S
C1540 C1543 1.511 . S
C1541 C1537 1.376 . S
C1541 C1540 1.392 . S
C1541 H1553 0.929 . S
C1542 C1538 1.531 . S
C1542 H1554 0.960 . S
C1542 H1555 0.962 . S
C1542 H1556 0.960 . S
C1543 C1540 1.511 . S
C1543 H1557 0.961 . S
C1543 H1558 0.961 . S
C1543 H1559 0.961 . S
C1544 C1545 1.370 . S
C1544 C1546 1.363 . S
C1544 H1560 0.931 . S
C1545 C1544 1.370 . S
C1545 C1549 1.408 . S
C1546 C1544 1.363 . S
C1546 C1547 1.370 . S
C1546 C1550 1.524 . S
C1547 C1539 1.503 . S
C1547 C1546 1.370 . S
C1547 C1548 1.403 . S
C1548 C1547 1.403 . S
C1548 C1549 1.404 . S
C1548 C1551 1.539 . S
C1549 C1545 1.408 . S
C1549 C1548 1.404 . S
C1549 H1561 0.930 . S
C1550 C1546 1.524 . S
C1550 H1562 0.956 . S
C1550 H1563 0.961 . S
C1550 H1564 0.961 . S
C1551 C1548 1.539 . S
C1551 H1565 0.958 . S
C1551 H1566 0.961 . S
C1551 H1567 0.960 . S
H1552 C1536 0.931 . S
H1553 C1541 0.929 . S
H1554 C1542 0.960 . S
H1555 C1542 0.962 . S
H1556 C1542 0.960 . S
H1557 C1543 0.961 . S
H1558 C1543 0.961 . S
H1559 C1543 0.961 . S
H1560 C1544 0.931 . S
H1561 C1549 0.930 . S
H1562 C1550 0.956 . S
H1563 C1550 0.961 . S
H1564 C1550 0.961 . S
H1565 C1551 0.958 . S
H1566 C1551 0.961 . S
H1567 C1551 0.960 . S
C1568 C1569 1.391 1_565 S
C1568 C1570 1.394 . S
C1568 H1584 0.931 . S
C1569 C1568 1.391 1_545 S
C1569 C1573 1.376 . S
C1570 C1568 1.394 . S
C1570 C1571 1.369 1_565 S
C1570 C1574 1.531 . S
C1571 C1570 1.369 1_545 S
C1571 C1572 1.410 . S
C1571 C1579 1.503 . S
C1572 C1571 1.410 . S
C1572 C1573 1.392 . S
C1572 C1575 1.511 . S
C1573 C1569 1.376 . S
C1573 C1572 1.392 . S
C1573 H1585 0.929 . S
C1574 C1570 1.531 . S
C1574 H1586 0.960 . S
C1574 H1587 0.962 . S
C1574 H1588 0.960 . S
C1575 C1572 1.511 . S
C1575 H1589 0.961 . S
C1575 H1590 0.961 . S
C1575 H1591 0.961 . S
C1576 C1577 1.370 . S
C1576 C1578 1.363 . S
C1576 H1592 0.931 . S
C1577 C1576 1.370 . S
C1577 C1581 1.408 . S
C1578 C1576 1.363 . S
C1578 C1579 1.370 . S
C1578 C1582 1.524 . S
C1579 C1571 1.503 . S
C1579 C1578 1.370 . S
C1579 C1580 1.403 . S
C1580 C1579 1.403 . S
C1580 C1581 1.404 . S
C1580 C1583 1.539 . S
C1581 C1577 1.408 . S
C1581 C1580 1.404 . S
C1581 H1593 0.930 . S
C1582 C1578 1.524 . S
C1582 H1594 0.934 1_545 S
C1582 H1595 0.961 . S
C1582 H1596 0.961 . S
C1583 C1580 1.539 . S
C1583 H1597 0.958 1_545 S
C1583 H1598 0.961 . S
C1583 H1599 0.960 . S
H1584 C1568 0.931 . S
H1585 C1573 0.929 . S
H1586 C1574 0.960 . S
H1587 C1574 0.962 . S
H1588 C1574 0.960 . S
H1589 C1575 0.961 . S
H1590 C1575 0.961 . S
H1591 C1575 0.961 . S
H1592 C1576 0.931 . S
H1593 C1581 0.930 . S
H1594 C1582 0.934 1_565 S
H1595 C1582 0.961 . S
H1596 C1582 0.961 . S
H1597 C1583 0.958 1_565 S
H1598 C1583 0.961 . S
H1599 C1583 0.960 . S
C1600 C1601 1.391 . S
C1600 C1602 1.394 . S
C1600 H1616 0.931 . S
C1601 C1600 1.391 . S
C1601 C1605 1.376 . S
C1602 C1600 1.394 . S
C1602 C1603 1.369 . S
C1602 C1606 1.531 . S
C1603 C1602 1.369 . S
C1603 C1604 1.410 . S
C1603 C1611 1.503 . S
C1604 C1603 1.410 . S
C1604 C1605 1.392 . S
C1604 C1607 1.511 . S
C1605 C1601 1.376 . S
C1605 C1604 1.392 . S
C1605 H1617 0.929 . S
C1606 C1602 1.531 . S
C1606 H1618 0.960 . S
C1606 H1619 0.962 . S
C1606 H1620 0.960 . S
C1607 C1604 1.511 . S
C1607 H1621 0.961 . S
C1607 H1622 0.961 . S
C1607 H1623 0.961 . S
C1608 C1609 1.370 . S
C1608 C1610 1.363 . S
C1608 H1624 0.931 . S
C1609 C1608 1.370 . S
C1609 C1613 1.408 . S
C1610 C1608 1.363 . S
C1610 C1611 1.370 . S
C1610 C1614 1.524 . S
C1611 C1603 1.503 . S
C1611 C1610 1.370 . S
C1611 C1612 1.403 . S
C1612 C1611 1.403 . S
C1612 C1613 1.404 . S
C1612 C1615 1.539 . S
C1613 C1609 1.408 . S
C1613 C1612 1.404 . S
C1613 H1625 0.930 . S
C1614 C1610 1.524 . S
C1614 H1626 0.956 . S
C1614 H1627 0.961 . S
C1614 H1628 0.961 . S
C1615 C1612 1.539 . S
C1615 H1629 0.958 . S
C1615 H1630 0.961 . S
C1615 H1631 0.960 . S
H1616 C1600 0.931 . S
H1617 C1605 0.929 . S
H1618 C1606 0.960 . S
H1619 C1606 0.962 . S
H1620 C1606 0.960 . S
H1621 C1607 0.961 . S
H1622 C1607 0.961 . S
H1623 C1607 0.961 . S
H1624 C1608 0.931 . S
H1625 C1613 0.930 . S
H1626 C1614 0.956 . S
H1627 C1614 0.961 . S
H1628 C1614 0.961 . S
H1629 C1615 0.958 . S
H1630 C1615 0.961 . S
H1631 C1615 0.960 . S
C1632 C1633 1.391 . S
C1632 C1634 1.394 . S
C1632 H1648 0.931 . S
C1633 C1632 1.391 . S
C1633 C1637 1.376 1_455 S
C1634 C1632 1.394 . S
C1634 C1635 1.369 . S
C1634 C1638 1.531 . S
C1635 C1634 1.369 . S
C1635 C1636 1.410 . S
C1635 C1643 1.503 . S
C1636 C1635 1.410 . S
C1636 C1637 1.392 1_455 S
C1636 C1639 1.500 1_455 S
C1637 C1633 1.376 1_655 S
C1637 C1636 1.392 1_655 S
C1637 H1649 0.929 . S
C1638 C1634 1.531 . S
C1638 H1650 0.960 . S
C1638 H1651 0.962 . S
C1638 H1652 0.960 . S
C1639 C1636 1.500 1_655 S
C1639 H1653 0.982 . S
C1639 H1654 0.942 1_655 S
C1639 H1655 0.969 . S
C1640 C1641 1.370 . S
C1640 C1642 1.363 . S
C1640 H1656 0.931 . S
C1641 C1640 1.370 . S
C1641 C1645 1.408 . S
C1642 C1640 1.363 . S
C1642 C1643 1.370 . S
C1642 C1646 1.524 . S
C1643 C1635 1.503 . S
C1643 C1642 1.370 . S
C1643 C1644 1.403 . S
C1644 C1643 1.403 . S
C1644 C1645 1.404 . S
C1644 C1647 1.539 . S
C1645 C1641 1.408 . S
C1645 C1644 1.404 . S
C1645 H1657 0.930 . S
C1646 C1642 1.524 . S
C1646 H1658 0.956 . S
C1646 H1659 0.961 . S
C1646 H1660 0.961 . S
C1647 C1644 1.539 . S
C1647 H1661 0.958 . S
C1647 H1662 0.961 . S
C1647 H1663 0.960 . S
H1648 C1632 0.931 . S
H1649 C1637 0.929 . S
H1650 C1638 0.960 . S
H1651 C1638 0.962 . S
H1652 C1638 0.960 . S
H1653 C1639 0.982 . S
H1654 C1639 0.942 1_455 S
H1655 C1639 0.969 . S
H1656 C1640 0.931 . S
H1657 C1645 0.930 . S
H1658 C1646 0.956 . S
H1659 C1646 0.961 . S
H1660 C1646 0.961 . S
H1661 C1647 0.958 . S
H1662 C1647 0.961 . S
H1663 C1647 0.960 . S
C1664 C1665 1.391 . S
C1664 C1666 1.394 . S
C1664 H1680 0.931 . S
C1665 C1664 1.391 . S
C1665 C1669 1.376 . S
C1666 C1664 1.394 . S
C1666 C1667 1.369 . S
C1666 C1670 1.531 . S
C1667 C1666 1.369 . S
C1667 C1668 1.410 . S
C1667 C1675 1.503 . S
C1668 C1667 1.410 . S
C1668 C1669 1.392 . S
C1668 C1671 1.511 . S
C1669 C1665 1.376 . S
C1669 C1668 1.392 . S
C1669 H1681 0.929 . S
C1670 C1666 1.531 . S
C1670 H1682 0.960 . S
C1670 H1683 0.962 . S
C1670 H1684 0.960 . S
C1671 C1668 1.511 . S
C1671 H1685 0.961 . S
C1671 H1686 0.961 . S
C1671 H1687 0.961 . S
C1672 C1673 1.370 . S
C1672 C1674 1.363 . S
C1672 H1688 0.931 . S
C1673 C1672 1.370 . S
C1673 C1677 1.408 . S
C1674 C1672 1.363 . S
C1674 C1675 1.370 . S
C1674 C1678 1.524 . S
C1675 C1667 1.503 . S
C1675 C1674 1.370 . S
C1675 C1676 1.403 . S
C1676 C1675 1.403 . S
C1676 C1677 1.404 . S
C1676 C1679 1.539 . S
C1677 C1673 1.408 . S
C1677 C1676 1.404 . S
C1677 H1689 0.930 . S
C1678 C1674 1.524 . S
C1678 H1690 0.956 . S
C1678 H1691 0.961 . S
C1678 H1692 0.961 . S
C1679 C1676 1.539 . S
C1679 H1693 0.958 . S
C1679 H1694 0.961 . S
C1679 H1695 0.960 . S
H1680 C1664 0.931 . S
H1681 C1669 0.929 . S
H1682 C1670 0.960 . S
H1683 C1670 0.962 . S
H1684 C1670 0.960 . S
H1685 C1671 0.961 . S
H1686 C1671 0.961 . S
H1687 C1671 0.961 . S
H1688 C1672 0.931 . S
H1689 C1677 0.930 . S
H1690 C1678 0.956 . S
H1691 C1678 0.961 . S
H1692 C1678 0.961 . S
H1693 C1679 0.958 . S
H1694 C1679 0.961 . S
H1695 C1679 0.960 . S
C1696 C1697 1.391 . S
C1696 C1698 1.394 1_655 S
C1696 H1712 0.931 1_655 S
C1697 C1696 1.391 . S
C1697 C1701 1.376 . S
C1698 C1696 1.394 1_455 S
C1698 C1699 1.369 1_455 S
C1698 C1702 1.531 . S
C1699 C1698 1.369 1_655 S
C1699 C1700 1.410 1_554 S
C1699 C1707 1.503 1_554 S
C1700 C1699 1.410 1_556 S
C1700 C1701 1.392 1_556 S
C1700 C1703 1.511 . S
C1701 C1697 1.376 . S
C1701 C1700 1.392 1_554 S
C1701 H1713 0.929 . S
C1702 C1698 1.531 . S
C1702 H1714 0.960 . S
C1702 H1715 0.962 . S
C1702 H1716 0.960 . S
C1703 C1700 1.511 . S
C1703 H1717 0.961 . S
C1703 H1718 0.961 . S
C1703 H1719 0.961 . S
C1704 C1705 1.390 . S
C1704 C1706 1.363 . S
C1704 H1720 0.931 . S
C1705 C1704 1.390 . S
C1705 C1709 1.379 1_455 S
C1706 C1704 1.363 . S
C1706 C1707 1.370 1_455 S
C1706 C1710 1.524 . S
C1707 C1699 1.503 1_556 S
C1707 C1706 1.370 1_655 S
C1707 C1708 1.403 . S
C1708 C1707 1.403 . S
C1708 C1709 1.404 . S
C1708 C1711 1.539 1_556 S
C1709 C1705 1.379 1_655 S
C1709 C1708 1.404 . S
C1709 H1721 0.930 . S
C1710 C1706 1.524 . S
C1710 H1722 0.956 . S
C1710 H1723 0.961 . S
C1710 H1724 0.961 . S
C1711 C1708 1.539 1_554 S
C1711 H1725 0.958 . S
C1711 H1726 0.961 . S
C1711 H1727 0.960 . S
H1712 C1696 0.931 1_455 S
H1713 C1701 0.929 . S
H1714 C1702 0.960 . S
H1715 C1702 0.962 . S
H1716 C1702 0.960 . S
H1717 C1703 0.961 . S
H1718 C1703 0.961 . S
H1719 C1703 0.961 . S
H1720 C1704 0.931 . S
H1721 C1709 0.930 . S
H1722 C1710 0.956 . S
H1723 C1710 0.961 . S
H1724 C1710 0.961 . S
H1725 C1711 0.958 . S
H1726 C1711 0.961 . S
H1727 C1711 0.960 . S
C1728 C1729 1.391 . S
C1728 C1730 1.394 . S
C1728 H1744 0.931 . S
C1729 C1728 1.391 . S
C1729 C1733 1.376 . S
C1730 C1728 1.394 . S
C1730 C1731 1.369 . S
C1730 C1734 1.531 . S
C1731 C1730 1.369 . S
C1731 C1732 1.410 . S
C1731 C1739 1.503 . S
C1732 C1731 1.410 . S
C1732 C1733 1.392 . S
C1732 C1735 1.511 . S
C1733 C1729 1.376 . S
C1733 C1732 1.392 . S
C1733 H1745 0.929 . S
C1734 C1730 1.531 . S
C1734 H1746 0.960 . S
C1734 H1747 0.962 . S
C1734 H1748 0.960 . S
C1735 C1732 1.511 . S
C1735 H1749 0.961 . S
C1735 H1750 0.961 . S
C1735 H1751 0.961 . S
C1736 C1737 1.370 . S
C1736 C1738 1.363 . S
C1736 H1752 0.931 . S
C1737 C1736 1.370 . S
C1737 C1741 1.408 . S
C1738 C1736 1.363 . S
C1738 C1739 1.370 . S
C1738 C1742 1.524 . S
C1739 C1731 1.503 . S
C1739 C1738 1.370 . S
C1739 C1740 1.403 . S
C1740 C1739 1.403 . S
C1740 C1741 1.404 . S
C1740 C1743 1.539 . S
C1741 C1737 1.408 . S
C1741 C1740 1.404 . S
C1741 H1753 0.930 . S
C1742 C1738 1.524 . S
C1742 H1754 0.956 . S
C1742 H1755 0.961 . S
C1742 H1756 0.961 . S
C1743 C1740 1.539 . S
C1743 H1757 0.958 . S
C1743 H1758 0.961 . S
C1743 H1759 0.960 . S
H1744 C1728 0.931 . S
H1745 C1733 0.929 . S
H1746 C1734 0.960 . S
H1747 C1734 0.962 . S
H1748 C1734 0.960 . S
H1749 C1735 0.961 . S
H1750 C1735 0.961 . S
H1751 C1735 0.961 . S
H1752 C1736 0.931 . S
H1753 C1741 0.930 . S
H1754 C1742 0.956 . S
H1755 C1742 0.961 . S
H1756 C1742 0.961 . S
H1757 C1743 0.958 . S
H1758 C1743 0.961 . S
H1759 C1743 0.960 . S
C1760 C1761 1.391 . S
C1760 C1762 1.394 . S
C1760 H1776 0.948 . S
C1761 C1760 1.391 . S
C1761 C1765 1.376 . S
C1762 C1760 1.394 . S
C1762 C1763 1.341 1_554 S
C1762 C1766 1.531 1_455 S
C1763 C1762 1.341 1_556 S
C1763 C1764 1.419 . S
C1763 C1771 1.525 . S
C1764 C1763 1.419 . S
C1764 C1765 1.392 1_556 S
C1764 C1767 1.511 . S
C1765 C1761 1.376 . S
C1765 C1764 1.392 1_554 S
C1765 H1777 0.929 1_554 S
C1766 C1762 1.531 1_655 S
C1766 H1778 0.961 . S
C1766 H1779 0.962 . S
C1766 H1780 0.960 . S
C1767 C1764 1.511 . S
C1767 H1781 0.961 . S
C1767 H1782 0.961 . S
C1767 H1783 0.961 . S
C1768 C1769 1.370 1_655 S
C1768 C1770 1.363 . S
C1768 H1784 0.931 . S
C1769 C1768 1.370 1_455 S
C1769 C1773 1.408 . S
C1770 C1768 1.363 . S
C1770 C1771 1.370 1_655 S
C1770 C1774 1.524 . S
C1771 C1763 1.525 . S
C1771 C1770 1.370 1_455 S
C1771 C1772 1.403 . S
C1772 C1771 1.403 . S
C1772 C1773 1.404 . S
C1772 C1775 1.539 1_556 S
C1773 C1769 1.408 . S
C1773 C1772 1.404 . S
C1773 H1785 0.930 . S
C1774 C1770 1.524 . S
C1774 H1786 0.956 . S
C1774 H1787 0.961 . S
C1774 H1788 0.961 . S
C1775 C1772 1.539 1_554 S
C1775 H1789 0.958 . S
C1775 H1790 0.961 1_554 S
C1775 H1791 0.960 . S
H1776 C1760 0.948 . S
H1777 C1765 0.929 1_556 S
H1778 C1766 0.961 . S
H1779 C1766 0.962 . S
H1780 C1766 0.960 . S
H1781 C1767 0.961 . S
H1782 C1767 0.961 . S
H1783 C1767 0.961 . S
H1784 C1768 0.931 . S
H1785 C1773 0.930 . S
H1786 C1774 0.956 . S
H1787 C1774 0.961 . S
H1788 C1774 0.961 . S
H1789 C1775 0.958 . S
H1790 C1775 0.961 1_556 S
H1791 C1775 0.960 . S
C1792 C1793 1.391 . S
C1792 C1794 1.394 . S
C1792 H1808 0.931 . S
C1793 C1792 1.391 . S
C1793 C1797 1.376 . S
C1794 C1792 1.394 . S
C1794 C1795 1.369 . S
C1794 C1798 1.531 . S
C1795 C1794 1.369 . S
C1795 C1796 1.410 . S
C1795 C1803 1.503 . S
C1796 C1795 1.410 . S
C1796 C1797 1.392 . S
C1796 C1799 1.511 . S
C1797 C1793 1.376 . S
C1797 C1796 1.392 . S
C1797 H1809 0.929 . S
C1798 C1794 1.531 . S
C1798 H1810 0.960 . S
C1798 H1811 0.962 . S
C1798 H1812 0.960 . S
C1799 C1796 1.511 . S
C1799 H1813 0.961 . S
C1799 H1814 0.961 . S
C1799 H1815 0.961 . S
C1800 C1801 1.370 . S
C1800 C1802 1.363 . S
C1800 H1816 0.931 . S
C1801 C1800 1.370 . S
C1801 C1805 1.408 . S
C1802 C1800 1.363 . S
C1802 C1803 1.370 . S
C1802 C1806 1.524 . S
C1803 C1795 1.503 . S
C1803 C1802 1.370 . S
C1803 C1804 1.403 . S
C1804 C1803 1.403 . S
C1804 C1805 1.404 . S
C1804 C1807 1.539 . S
C1805 C1801 1.408 . S
C1805 C1804 1.404 . S
C1805 H1817 0.930 . S
C1806 C1802 1.524 . S
C1806 H1818 0.956 . S
C1806 H1819 0.961 . S
C1806 H1820 0.961 . S
C1807 C1804 1.539 . S
C1807 H1821 0.958 . S
C1807 H1822 0.961 . S
C1807 H1823 0.960 . S
H1808 C1792 0.931 . S
H1809 C1797 0.929 . S
H1810 C1798 0.960 . S
H1811 C1798 0.962 . S
H1812 C1798 0.960 . S
H1813 C1799 0.961 . S
H1814 C1799 0.961 . S
H1815 C1799 0.961 . S
H1816 C1800 0.931 . S
H1817 C1805 0.930 . S
H1818 C1806 0.956 . S
H1819 C1806 0.961 . S
H1820 C1806 0.961 . S
H1821 C1807 0.958 . S
H1822 C1807 0.961 . S
H1823 C1807 0.960 . S
C1824 C1825 1.391 . S
C1824 C1826 1.394 . S
C1824 H1840 0.931 . S
C1825 C1824 1.391 . S
C1825 C1829 1.376 . S
C1826 C1824 1.394 . S
C1826 C1827 1.369 . S
C1826 C1830 1.531 . S
C1827 C1826 1.369 . S
C1827 C1828 1.410 . S
C1827 C1835 1.503 . S
C1828 C1827 1.410 . S
C1828 C1829 1.392 . S
C1828 C1831 1.511 . S
C1829 C1825 1.376 . S
C1829 C1828 1.392 . S
C1829 H1841 0.929 . S
C1830 C1826 1.531 . S
C1830 H1842 0.960 . S
C1830 H1843 0.962 . S
C1830 H1844 0.960 . S
C1831 C1828 1.511 . S
C1831 H1845 0.961 . S
C1831 H1846 0.961 . S
C1831 H1847 0.961 . S
C1832 C1833 1.370 . S
C1832 C1834 1.363 . S
C1832 H1848 0.931 . S
C1833 C1832 1.370 . S
C1833 C1837 1.408 . S
C1834 C1832 1.363 . S
C1834 C1835 1.370 . S
C1834 C1838 1.524 . S
C1835 C1827 1.503 . S
C1835 C1834 1.370 . S
C1835 C1836 1.403 . S
C1836 C1835 1.403 . S
C1836 C1837 1.404 . S
C1836 C1839 1.539 . S
C1837 C1833 1.408 . S
C1837 C1836 1.404 . S
C1837 H1849 0.930 . S
C1838 C1834 1.524 . S
C1838 H1850 0.956 . S
C1838 H1851 0.961 . S
C1838 H1852 0.961 . S
C1839 C1836 1.539 . S
C1839 H1853 0.958 . S
C1839 H1854 0.961 . S
C1839 H1855 0.960 . S
H1840 C1824 0.931 . S
H1841 C1829 0.929 . S
H1842 C1830 0.960 . S
H1843 C1830 0.962 . S
H1844 C1830 0.960 . S
H1845 C1831 0.961 . S
H1846 C1831 0.961 . S
H1847 C1831 0.961 . S
H1848 C1832 0.931 . S
H1849 C1837 0.930 . S
H1850 C1838 0.956 . S
H1851 C1838 0.961 . S
H1852 C1838 0.961 . S
H1853 C1839 0.958 . S
H1854 C1839 0.961 . S
H1855 C1839 0.960 . S
C1856 C1857 1.391 . S
C1856 C1858 1.394 . S
C1856 H1872 0.931 . S
C1857 C1856 1.391 . S
C1857 C1861 1.376 . S
C1858 C1856 1.394 . S
C1858 C1859 1.369 . S
C1858 C1862 1.531 . S
C1859 C1858 1.369 . S
C1859 C1860 1.410 . S
C1859 C1867 1.503 . S
C1860 C1859 1.410 . S
C1860 C1861 1.392 . S
C1860 C1863 1.511 . S
C1861 C1857 1.376 . S
C1861 C1860 1.392 . S
C1861 H1873 0.929 . S
C1862 C1858 1.531 . S
C1862 H1874 0.960 . S
C1862 H1875 0.962 . S
C1862 H1876 0.960 . S
C1863 C1860 1.511 . S
C1863 H1877 0.961 . S
C1863 H1878 0.961 . S
C1863 H1879 0.961 . S
C1864 C1865 1.370 . S
C1864 C1866 1.363 . S
C1864 H1880 0.931 . S
C1865 C1864 1.370 . S
C1865 C1869 1.408 . S
C1866 C1864 1.363 . S
C1866 C1867 1.370 . S
C1866 C1870 1.524 . S
C1867 C1859 1.503 . S
C1867 C1866 1.370 . S
C1867 C1868 1.403 . S
C1868 C1867 1.403 . S
C1868 C1869 1.404 . S
C1868 C1871 1.539 . S
C1869 C1865 1.408 . S
C1869 C1868 1.404 . S
C1869 H1881 0.930 . S
C1870 C1866 1.524 . S
C1870 H1882 0.956 . S
C1870 H1883 0.961 . S
C1870 H1884 0.961 . S
C1871 C1868 1.539 . S
C1871 H1885 0.958 . S
C1871 H1886 0.961 . S
C1871 H1887 0.960 . S
H1872 C1856 0.931 . S
H1873 C1861 0.929 . S
H1874 C1862 0.960 . S
H1875 C1862 0.962 . S
H1876 C1862 0.960 . S
H1877 C1863 0.961 . S
H1878 C1863 0.961 . S
H1879 C1863 0.961 . S
H1880 C1864 0.931 . S
H1881 C1869 0.930 . S
H1882 C1870 0.956 . S
H1883 C1870 0.961 . S
H1884 C1870 0.961 . S
H1885 C1871 0.958 . S
H1886 C1871 0.961 . S
H1887 C1871 0.960 . S
C1888 C1889 1.391 . S
C1888 C1890 1.394 . S
C1888 H1904 0.931 . S
C1889 C1888 1.391 . S
C1889 C1893 1.376 . S
C1890 C1888 1.394 . S
C1890 C1891 1.369 . S
C1890 C1894 1.531 . S
C1891 C1890 1.369 . S
C1891 C1892 1.410 . S
C1891 C1899 1.503 . S
C1892 C1891 1.410 . S
C1892 C1893 1.392 . S
C1892 C1895 1.511 . S
C1893 C1889 1.376 . S
C1893 C1892 1.392 . S
C1893 H1905 0.929 1_554 S
C1894 C1890 1.531 . S
C1894 H1906 0.960 . S
C1894 H1907 0.962 . S
C1894 H1908 0.960 . S
C1895 C1892 1.511 . S
C1895 H1909 0.961 . S
C1895 H1910 0.961 . S
C1895 H1911 0.961 . S
C1896 C1897 1.370 . S
C1896 C1898 1.363 . S
C1896 H1912 0.931 . S
C1897 C1896 1.370 . S
C1897 C1901 1.408 . S
C1898 C1896 1.363 . S
C1898 C1899 1.370 . S
C1898 C1902 1.524 . S
C1899 C1891 1.503 . S
C1899 C1898 1.370 . S
C1899 C1900 1.403 . S
C1900 C1899 1.403 . S
C1900 C1901 1.404 . S
C1900 C1903 1.539 . S
C1901 C1897 1.408 . S
C1901 C1900 1.404 . S
C1901 H1913 0.930 . S
C1902 C1898 1.524 . S
C1902 H1914 0.956 . S
C1902 H1915 0.961 . S
C1902 H1916 0.961 . S
C1903 C1900 1.539 . S
C1903 H1917 0.958 . S
C1903 H1918 0.961 . S
C1903 H1919 0.960 . S
H1904 C1888 0.931 . S
H1905 C1893 0.929 1_556 S
H1906 C1894 0.960 . S
H1907 C1894 0.962 . S
H1908 C1894 0.960 . S
H1909 C1895 0.961 . S
H1910 C1895 0.961 . S
H1911 C1895 0.961 . S
H1912 C1896 0.931 . S
H1913 C1901 0.930 . S
H1914 C1902 0.956 . S
H1915 C1902 0.961 . S
H1916 C1902 0.961 . S
H1917 C1903 0.958 . S
H1918 C1903 0.961 . S
H1919 C1903 0.960 . S
C1920 C1921 1.391 . S
C1920 C1922 1.394 . S
C1920 H1936 0.931 . S
C1921 C1920 1.391 . S
C1921 C1925 1.376 . S
C1922 C1920 1.394 . S
C1922 C1923 1.369 . S
C1922 C1926 1.531 . S
C1923 C1922 1.369 . S
C1923 C1924 1.410 . S
C1923 C1931 1.503 . S
C1924 C1923 1.410 . S
C1924 C1925 1.392 . S
C1924 C1927 1.511 . S
C1925 C1921 1.376 . S
C1925 C1924 1.392 . S
C1925 H1937 0.929 . S
C1926 C1922 1.531 . S
C1926 H1938 0.960 . S
C1926 H1939 0.962 . S
C1926 H1940 0.960 . S
C1927 C1924 1.511 . S
C1927 H1941 0.961 . S
C1927 H1942 0.961 . S
C1927 H1943 0.961 . S
C1928 C1929 1.370 . S
C1928 C1930 1.363 . S
C1928 H1944 0.931 . S
C1929 C1928 1.370 . S
C1929 C1933 1.408 . S
C1930 C1928 1.363 . S
C1930 C1931 1.370 . S
C1930 C1934 1.524 . S
C1931 C1923 1.503 . S
C1931 C1930 1.370 . S
C1931 C1932 1.403 . S
C1932 C1931 1.403 . S
C1932 C1933 1.404 . S
C1932 C1935 1.539 . S
C1933 C1929 1.408 . S
C1933 C1932 1.404 . S
C1933 H1945 0.930 . S
C1934 C1930 1.524 . S
C1934 H1946 0.956 . S
C1934 H1947 0.961 . S
C1934 H1948 0.961 . S
C1935 C1932 1.539 . S
C1935 H1949 0.958 . S
C1935 H1950 0.961 . S
C1935 H1951 0.960 . S
H1936 C1920 0.931 . S
H1937 C1925 0.929 . S
H1938 C1926 0.960 . S
H1939 C1926 0.962 . S
H1940 C1926 0.960 . S
H1941 C1927 0.961 . S
H1942 C1927 0.961 . S
H1943 C1927 0.961 . S
H1944 C1928 0.931 . S
H1945 C1933 0.930 . S
H1946 C1934 0.956 . S
H1947 C1934 0.961 . S
H1948 C1934 0.961 . S
H1949 C1935 0.958 . S
H1950 C1935 0.961 . S
H1951 C1935 0.960 . S
C1952 C1953 1.391 . S
C1952 C1954 1.394 . S
C1952 H1968 0.931 . S
C1953 C1952 1.391 . S
C1953 C1957 1.376 . S
C1954 C1952 1.394 . S
C1954 C1955 1.369 . S
C1954 C1958 1.531 . S
C1955 C1954 1.369 . S
C1955 C1956 1.410 . S
C1955 C1963 1.503 . S
C1956 C1955 1.410 . S
C1956 C1957 1.392 . S
C1956 C1959 1.511 . S
C1957 C1953 1.376 . S
C1957 C1956 1.392 . S
C1957 H1969 0.929 . S
C1958 C1954 1.531 . S
C1958 H1970 0.960 . S
C1958 H1971 0.962 . S
C1958 H1972 0.960 . S
C1959 C1956 1.511 . S
C1959 H1973 0.961 . S
C1959 H1974 0.961 . S
C1959 H1975 0.961 . S
C1960 C1961 1.370 . S
C1960 C1962 1.363 . S
C1960 H1976 0.931 . S
C1961 C1960 1.370 . S
C1961 C1965 1.408 . S
C1962 C1960 1.363 . S
C1962 C1963 1.370 . S
C1962 C1966 1.524 . S
C1963 C1955 1.503 . S
C1963 C1962 1.370 . S
C1963 C1964 1.403 . S
C1964 C1963 1.403 . S
C1964 C1965 1.404 . S
C1964 C1967 1.539 . S
C1965 C1961 1.408 . S
C1965 C1964 1.404 . S
C1965 H1977 0.930 . S
C1966 C1962 1.524 . S
C1966 H1978 0.956 . S
C1966 H1979 0.961 . S
C1966 H1980 0.961 . S
C1967 C1964 1.539 . S
C1967 H1981 0.958 . S
C1967 H1982 0.961 . S
C1967 H1983 0.960 . S
H1968 C1952 0.931 . S
H1969 C1957 0.929 . S
H1970 C1958 0.960 . S
H1971 C1958 0.962 . S
H1972 C1958 0.960 . S
H1973 C1959 0.961 . S
H1974 C1959 0.961 . S
H1975 C1959 0.961 . S
H1976 C1960 0.931 . S
H1977 C1965 0.930 . S
H1978 C1966 0.956 . S
H1979 C1966 0.961 . S
H1980 C1966 0.961 . S
H1981 C1967 0.958 . S
H1982 C1967 0.961 . S
H1983 C1967 0.960 . S
C1984 C1985 1.391 . S
C1984 C1986 1.394 . S
C1984 H2000 0.931 . S
C1985 C1984 1.391 . S
C1985 C1989 1.376 . S
C1986 C1984 1.394 . S
C1986 C1987 1.369 . S
C1986 C1990 1.531 . S
C1987 C1986 1.369 . S
C1987 C1988 1.410 . S
C1987 C1995 1.503 . S
C1988 C1987 1.410 . S
C1988 C1989 1.392 . S
C1988 C1991 1.511 . S
C1989 C1985 1.376 . S
C1989 C1988 1.392 . S
C1989 H2001 0.929 . S
C1990 C1986 1.531 . S
C1990 H2002 0.960 . S
C1990 H2003 0.962 . S
C1990 H2004 0.960 . S
C1991 C1988 1.511 . S
C1991 H2005 0.961 . S
C1991 H2006 0.961 . S
C1991 H2007 0.961 . S
C1992 C1993 1.370 . S
C1992 C1994 1.363 . S
C1992 H2008 0.931 . S
C1993 C1992 1.370 . S
C1993 C1997 1.408 . S
C1994 C1992 1.363 . S
C1994 C1995 1.370 . S
C1994 C1998 1.524 . S
C1995 C1987 1.503 . S
C1995 C1994 1.370 . S
C1995 C1996 1.403 . S
C1996 C1995 1.403 . S
C1996 C1997 1.404 . S
C1996 C1999 1.539 . S
C1997 C1993 1.408 . S
C1997 C1996 1.404 . S
C1997 H2009 0.930 . S
C1998 C1994 1.524 . S
C1998 H2010 0.956 . S
C1998 H2011 0.961 . S
C1998 H2012 0.961 . S
C1999 C1996 1.539 . S
C1999 H2013 0.958 . S
C1999 H2014 0.961 . S
C1999 H2015 0.960 . S
H2000 C1984 0.931 . S
H2001 C1989 0.929 . S
H2002 C1990 0.960 . S
H2003 C1990 0.962 . S
H2004 C1990 0.960 . S
H2005 C1991 0.961 . S
H2006 C1991 0.961 . S
H2007 C1991 0.961 . S
H2008 C1992 0.931 . S
H2009 C1997 0.930 . S
H2010 C1998 0.956 . S
H2011 C1998 0.961 . S
H2012 C1998 0.961 . S
H2013 C1999 0.958 . S
H2014 C1999 0.961 . S
H2015 C1999 0.960 . S
C2016 C2017 1.391 . S
C2016 C2018 1.394 . S
C2016 H2032 0.931 . S
C2017 C2016 1.391 . S
C2017 C2021 1.376 . S
C2018 C2016 1.394 . S
C2018 C2019 1.369 . S
C2018 C2022 1.531 . S
C2019 C2018 1.369 . S
C2019 C2020 1.410 . S
C2019 C2027 1.503 . S
C2020 C2019 1.410 . S
C2020 C2021 1.392 . S
C2020 C2023 1.511 . S
C2021 C2017 1.376 . S
C2021 C2020 1.392 . S
C2021 H2033 0.929 . S
C2022 C2018 1.531 . S
C2022 H2034 0.960 . S
C2022 H2035 0.962 . S
C2022 H2036 0.960 . S
C2023 C2020 1.511 . S
C2023 H2037 0.961 . S
C2023 H2038 0.961 . S
C2023 H2039 0.961 . S
C2024 C2025 1.370 . S
C2024 C2026 1.363 . S
C2024 H2040 0.931 . S
C2025 C2024 1.370 . S
C2025 C2029 1.408 . S
C2026 C2024 1.363 . S
C2026 C2027 1.370 . S
C2026 C2030 1.524 . S
C2027 C2019 1.503 . S
C2027 C2026 1.370 . S
C2027 C2028 1.403 . S
C2028 C2027 1.403 . S
C2028 C2029 1.404 . S
C2028 C2031 1.539 . S
C2029 C2025 1.408 . S
C2029 C2028 1.404 . S
C2029 H2041 0.930 . S
C2030 C2026 1.524 . S
C2030 H2042 0.956 . S
C2030 H2043 0.961 . S
C2030 H2044 0.961 . S
C2031 C2028 1.539 . S
C2031 H2045 0.958 . S
C2031 H2046 0.961 . S
C2031 H2047 0.960 . S
H2032 C2016 0.931 . S
H2033 C2021 0.929 . S
H2034 C2022 0.960 . S
H2035 C2022 0.962 . S
H2036 C2022 0.960 . S
H2037 C2023 0.961 . S
H2038 C2023 0.961 . S
H2039 C2023 0.961 . S
H2040 C2024 0.931 . S
H2041 C2029 0.930 . S
H2042 C2030 0.956 . S
H2043 C2030 0.961 . S
H2044 C2030 0.961 . S
H2045 C2031 0.958 . S
H2046 C2031 0.961 . S
H2047 C2031 0.960 . S
C2048 C2049 1.391 1_554 S
C2048 C2050 1.394 . S
C2048 H2064 0.931 . S
C2049 C2048 1.391 1_556 S
C2049 C2053 1.376 . S
C2050 C2048 1.394 . S
C2050 C2051 1.369 1_554 S
C2050 C2054 1.531 . S
C2051 C2050 1.369 1_556 S
C2051 C2052 1.410 . S
C2051 C2059 1.503 . S
C2052 C2051 1.410 . S
C2052 C2053 1.392 . S
C2052 C2055 1.511 . S
C2053 C2049 1.376 . S
C2053 C2052 1.392 . S
C2053 H2065 0.929 . S
C2054 C2050 1.531 . S
C2054 H2066 0.960 . S
C2054 H2067 0.962 . S
C2054 H2068 0.960 . S
C2055 C2052 1.511 . S
C2055 H2069 0.961 . S
C2055 H2070 0.961 . S
C2055 H2071 0.961 . S
C2056 C2057 1.370 1_554 S
C2056 C2058 1.363 . S
C2056 H2072 0.931 . S
C2057 C2056 1.370 1_556 S
C2057 C2061 1.408 . S
C2058 C2056 1.363 . S
C2058 C2059 1.370 1_554 S
C2058 C2062 1.524 . S
C2059 C2051 1.503 . S
C2059 C2058 1.370 1_556 S
C2059 C2060 1.403 . S
C2060 C2059 1.403 . S
C2060 C2061 1.404 . S
C2060 C2063 1.539 . S
C2061 C2057 1.408 . S
C2061 C2060 1.404 . S
C2061 H2073 0.930 . S
C2062 C2058 1.524 . S
C2062 H2074 0.956 . S
C2062 H2075 0.961 . S
C2062 H2076 0.961 . S
C2063 C2060 1.539 . S
C2063 H2077 0.958 . S
C2063 H2078 0.961 . S
C2063 H2079 0.960 . S
H2064 C2048 0.931 . S
H2065 C2053 0.929 . S
H2066 C2054 0.960 . S
H2067 C2054 0.962 . S
H2068 C2054 0.960 . S
H2069 C2055 0.961 . S
H2070 C2055 0.961 . S
H2071 C2055 0.961 . S
H2072 C2056 0.931 . S
H2073 C2061 0.930 . S
H2074 C2062 0.956 . S
H2075 C2062 0.961 . S
H2076 C2062 0.961 . S
H2077 C2063 0.958 . S
H2078 C2063 0.961 . S
H2079 C2063 0.960 . S
C2080 C2081 1.391 . S
C2080 C2082 1.394 . S
C2080 H2096 0.931 . S
C2081 C2080 1.391 . S
C2081 C2085 1.376 . S
C2082 C2080 1.394 . S
C2082 C2083 1.369 . S
C2082 C2086 1.531 . S
C2083 C2082 1.369 . S
C2083 C2084 1.410 . S
C2083 C2091 1.503 . S
C2084 C2083 1.410 . S
C2084 C2085 1.392 . S
C2084 C2087 1.511 . S
C2085 C2081 1.376 . S
C2085 C2084 1.392 . S
C2085 H2097 0.929 . S
C2086 C2082 1.531 . S
C2086 H2098 0.960 . S
C2086 H2099 0.962 . S
C2086 H2100 0.960 . S
C2087 C2084 1.511 . S
C2087 H2101 0.961 . S
C2087 H2102 0.961 . S
C2087 H2103 0.961 . S
C2088 C2089 1.370 . S
C2088 C2090 1.363 . S
C2088 H2104 0.931 . S
C2089 C2088 1.370 . S
C2089 C2093 1.408 . S
C2090 C2088 1.363 . S
C2090 C2091 1.370 . S
C2090 C2094 1.524 . S
C2091 C2083 1.503 . S
C2091 C2090 1.370 . S
C2091 C2092 1.403 . S
C2092 C2091 1.403 . S
C2092 C2093 1.404 . S
C2092 C2095 1.539 . S
C2093 C2089 1.408 . S
C2093 C2092 1.404 . S
C2093 H2105 0.930 . S
C2094 C2090 1.524 . S
C2094 H2106 0.956 . S
C2094 H2107 0.961 . S
C2094 H2108 0.961 . S
C2095 C2092 1.539 . S
C2095 H2109 0.958 . S
C2095 H2110 0.961 . S
C2095 H2111 0.960 . S
H2096 C2080 0.931 . S
H2097 C2085 0.929 . S
H2098 C2086 0.960 . S
H2099 C2086 0.962 . S
H2100 C2086 0.960 . S
H2101 C2087 0.961 . S
H2102 C2087 0.961 . S
H2103 C2087 0.961 . S
H2104 C2088 0.931 . S
H2105 C2093 0.930 . S
H2106 C2094 0.956 . S
H2107 C2094 0.961 . S
H2108 C2094 0.961 . S
H2109 C2095 0.958 . S
H2110 C2095 0.961 . S
H2111 C2095 0.960 . S
C2112 C2113 1.391 . S
C2112 C2114 1.394 . S
C2112 H2128 0.931 . S
C2113 C2112 1.391 . S
C2113 C2117 1.376 . S
C2114 C2112 1.394 . S
C2114 C2115 1.369 . S
C2114 C2118 1.531 . S
C2115 C2114 1.369 . S
C2115 C2116 1.410 . S
C2115 C2123 1.503 . S
C2116 C2115 1.410 . S
C2116 C2117 1.392 . S
C2116 C2119 1.511 . S
C2117 C2113 1.376 . S
C2117 C2116 1.392 . S
C2117 H2129 0.929 . S
C2118 C2114 1.531 . S
C2118 H2130 0.960 . S
C2118 H2131 0.962 . S
C2118 H2132 0.960 . S
C2119 C2116 1.511 . S
C2119 H2133 0.961 . S
C2119 H2134 0.961 . S
C2119 H2135 0.961 . S
C2120 C2121 1.350 1_556 S
C2120 C2122 1.347 1_556 S
C2120 H2136 0.970 . S
C2121 C2120 1.350 1_554 S
C2121 C2125 1.408 . S
C2122 C2120 1.347 1_554 S
C2122 C2123 1.370 . S
C2122 C2126 1.524 1_554 S
C2123 C2115 1.503 . S
C2123 C2122 1.370 . S
C2123 C2124 1.403 . S
C2124 C2123 1.403 . S
C2124 C2125 1.404 . S
C2124 C2127 1.539 . S
C2125 C2121 1.408 . S
C2125 C2124 1.404 . S
C2125 H2137 0.930 . S
C2126 C2122 1.524 1_556 S
C2126 H2138 0.956 . S
C2126 H2139 0.961 . S
C2126 H2140 0.961 . S
C2127 C2124 1.539 . S
C2127 H2141 0.958 . S
C2127 H2142 0.961 . S
C2127 H2143 0.960 . S
H2128 C2112 0.931 . S
H2129 C2117 0.929 . S
H2130 C2118 0.960 . S
H2131 C2118 0.962 . S
H2132 C2118 0.960 . S
H2133 C2119 0.961 . S
H2134 C2119 0.961 . S
H2135 C2119 0.961 . S
H2136 C2120 0.970 . S
H2137 C2125 0.930 . S
H2138 C2126 0.956 . S
H2139 C2126 0.961 . S
H2140 C2126 0.961 . S
H2141 C2127 0.958 . S
H2142 C2127 0.961 . S
H2143 C2127 0.960 . S
C2144 C2145 1.391 . S
C2144 C2146 1.394 . S
C2144 H2160 0.931 . S
C2145 C2144 1.391 . S
C2145 C2149 1.376 1_565 S
C2146 C2144 1.394 . S
C2146 C2147 1.369 . S
C2146 C2150 1.531 . S
C2147 C2146 1.369 . S
C2147 C2148 1.410 . S
C2147 C2155 1.503 . S
C2148 C2147 1.410 . S
C2148 C2149 1.392 1_565 S
C2148 C2151 1.511 1_565 S
C2149 C2145 1.376 1_545 S
C2149 C2148 1.392 1_545 S
C2149 H2161 0.929 . S
C2150 C2146 1.531 . S
C2150 H2162 0.960 . S
C2150 H2163 0.962 . S
C2150 H2164 0.960 . S
C2151 C2148 1.511 1_545 S
C2151 H2165 0.961 . S
C2151 H2166 0.961 . S
C2151 H2167 0.961 . S
C2152 C2153 1.370 . S
C2152 C2154 1.363 . S
C2152 H2168 0.931 . S
C2153 C2152 1.370 . S
C2153 C2157 1.408 . S
C2154 C2152 1.363 . S
C2154 C2155 1.370 . S
C2154 C2158 1.524 . S
C2155 C2147 1.503 . S
C2155 C2154 1.370 . S
C2155 C2156 1.403 . S
C2156 C2155 1.403 . S
C2156 C2157 1.404 . S
C2156 C2159 1.539 1_554 S
C2157 C2153 1.408 . S
C2157 C2156 1.404 . S
C2157 H2169 0.930 1_554 S
C2158 C2154 1.524 . S
C2158 H2170 0.956 . S
C2158 H2171 0.961 . S
C2158 H2172 0.961 . S
C2159 C2156 1.539 1_556 S
C2159 H2173 0.958 . S
C2159 H2174 0.961 . S
C2159 H2175 0.960 . S
H2160 C2144 0.931 . S
H2161 C2149 0.929 . S
H2162 C2150 0.960 . S
H2163 C2150 0.962 . S
H2164 C2150 0.960 . S
H2165 C2151 0.961 . S
H2166 C2151 0.961 . S
H2167 C2151 0.961 . S
H2168 C2152 0.931 . S
H2169 C2157 0.930 1_556 S
H2170 C2158 0.956 . S
H2171 C2158 0.961 . S
H2172 C2158 0.961 . S
H2173 C2159 0.958 . S
H2174 C2159 0.961 . S
H2175 C2159 0.960 . S
C649 C210 1.175 . S
C641 N66 1.173 . S
C681 C258 1.604 . S
C673 N79 1.647 1_455 S
C705 N92 1.769 . S
C713 C294 1.705 . S
C745 C330 1.374 . S
C737 N54 1.461 . S
C777 C356 1.398 . S
C769 N131 1.398 . S
C809 C392 1.280 . S
C801 N158 1.269 . S
C833 N145 1.532 . S
C841 C427 1.549 . S
C873 C464 1.802 . S
C865 N118 1.759 . S
C897 N148 1.844 . S
C905 C498 1.860 . S
C937 C546 1.658 . S
C929 N122 1.677 . S
C961 N132 1.175 . S
C969 C499 1.166 . S
C1001 C536 1.550 . S
C993 N161 1.480 . S
C1025 N96 1.851 . S
C1033 C582 1.777 . S
C1057 N53 1.736 . S
C1065 C571 1.768 . S
C1089 N67 1.113 . S
C1097 C572 1.106 . S
C1121 N83 1.504 . S
C1129 C570 1.532 . S
C1153 N44 1.278 . S
C1161 C318 1.320 . S
C1185 N187 1.456 . S
C1193 C319 1.456 . S
C1225 C222 1.296 . S
C1217 N197 1.316 . S
C1257 C247 1.308 . S
C1249 N106 1.296 . S
C1281 N57 1.909 1_545 S
C1289 C354 1.900 . S
C1321 C462 1.384 . S
C1313 N144 1.393 . S
C1353 C355 1.437 . S
C1345 N119 1.453 1_545 S
C1385 C428 1.865 . S
C1377 N157 1.816 . S
C1417 C426 1.180 . S
C1409 N183 1.104 . S
C1441 N196 1.623 . S
C1449 C474 1.602 . S
C1473 N105 1.764 . S
C1481 C366 1.702 . S
C1513 C402 1.387 . S
C1505 N171 1.461 . S
C1537 N40 1.394 . S
C1545 C284 1.401 . S
C1577 C320 1.281 . S
C1569 N2 1.266 1_655 S
C1609 C211 1.548 . S
C1601 N15 1.535 . S
C1641 C248 1.802 . S
C1633 N27 1.759 1_455 S
C1665 N18 1.862 . S
C1673 C534 1.862 . S
C1697 N31 1.688 . S
C1705 C510 1.660 1_455 S
C1729 N41 1.174 . S
C1737 C535 1.166 . S
C1761 N5 1.509 . S
C1769 C500 1.552 . S
C1801 C618 1.784 . S
C1793 N109 1.837 . S
C1833 C607 1.768 . S
C1825 N170 1.737 1_554 S
C1865 C608 1.111 . S
C1857 N184 1.101 . S
C1889 N200 1.502 1_554 S
C1897 C606 1.528 . S
C1921 N135 1.280 . S
C1929 C390 1.322 . S
C1961 C391 1.448 . S
C1953 N70 1.425 . S
C1993 C438 1.296 . S
C1985 N80 1.316 . S
C2025 C463 1.308 . S
C2017 N93 1.297 . S
C2049 N174 1.892 . S
C2057 C282 1.908 1_556 S
C2089 C246 1.375 . S
C2081 N14 1.368 . S
C2113 N28 1.455 . S
C2121 C283 1.434 . S
C2153 C212 1.857 . S
C2145 N1 1.849 1_565 S
