# Generated by pormake.
# Topology ptr, (4,4)-cn, num edge types: 1
# Building blocks:
#     Node 0, Type 0, BuildingBlock: NAHDIM_clean_sbu_0, # of connection points: 4
#     Node 1, Type 0, BuildingBlock: NAHDIM_clean_sbu_0, # of connection points: 4
#     Node 2, Type 0, BuildingBlock: NAHDIM_clean_sbu_0, # of connection points: 4
#     Node 3, Type 0, BuildingBlock: NAHDIM_clean_sbu_0, # of connection points: 4
#     Node 4, Type 0, BuildingBlock: NAHDIM_clean_sbu_0, # of connection points: 4
#     Node 5, Type 0, BuildingBlock: NAHDIM_clean_sbu_0, # of connection points: 4
#     Node 6, Type 0, BuildingBlock: NAHDIM_clean_sbu_0, # of connection points: 4
#     Node 7, Type 0, BuildingBlock: NAHDIM_clean_sbu_0, # of connection points: 4
#     Node 8, Type 0, BuildingBlock: NAHDIM_clean_sbu_0, # of connection points: 4
#     Node 9, Type 0, BuildingBlock: NAHDIM_clean_sbu_0, # of connection points: 4
#     Node 10, Type 0, BuildingBlock: NAHDIM_clean_sbu_0, # of connection points: 4
#     Node 11, Type 0, BuildingBlock: NAHDIM_clean_sbu_0, # of connection points: 4
#     Node 12, Type 0, BuildingBlock: NAHDIM_clean_sbu_0, # of connection points: 4
#     Node 13, Type 0, BuildingBlock: NAHDIM_clean_sbu_0, # of connection points: 4
#     Node 14, Type 0, BuildingBlock: NAHDIM_clean_sbu_0, # of connection points: 4
#     Node 15, Type 0, BuildingBlock: NAHDIM_clean_sbu_0, # of connection points: 4
#     Node 16, Type 0, BuildingBlock: NAHDIM_clean_sbu_0, # of connection points: 4
#     Node 17, Type 0, BuildingBlock: NAHDIM_clean_sbu_0, # of connection points: 4
#     Node 18, Type 1, BuildingBlock: NAWXER_clean_linker_0, # of connection points: 4
#     Node 19, Type 1, BuildingBlock: NAWXER_clean_linker_0, # of connection points: 4
#     Node 20, Type 1, BuildingBlock: NAWXER_clean_linker_0, # of connection points: 4
#     Node 21, Type 1, BuildingBlock: NAWXER_clean_linker_0, # of connection points: 4
#     Node 22, Type 1, BuildingBlock: NAWXER_clean_linker_0, # of connection points: 4
#     Node 23, Type 1, BuildingBlock: NAWXER_clean_linker_0, # of connection points: 4
#     Node 24, Type 1, BuildingBlock: NAWXER_clean_linker_0, # of connection points: 4
#     Node 25, Type 1, BuildingBlock: NAWXER_clean_linker_0, # of connection points: 4
#     Node 26, Type 1, BuildingBlock: NAWXER_clean_linker_0, # of connection points: 4
#     Node 27, Type 1, BuildingBlock: NAWXER_clean_linker_0, # of connection points: 4
#     Node 28, Type 1, BuildingBlock: NAWXER_clean_linker_0, # of connection points: 4
#     Node 29, Type 1, BuildingBlock: NAWXER_clean_linker_0, # of connection points: 4
#     Node 30, Type 1, BuildingBlock: NAWXER_clean_linker_0, # of connection points: 4
#     Node 31, Type 1, BuildingBlock: NAWXER_clean_linker_0, # of connection points: 4
#     Node 32, Type 1, BuildingBlock: NAWXER_clean_linker_0, # of connection points: 4
#     Node 33, Type 1, BuildingBlock: NAWXER_clean_linker_0, # of connection points: 4
#     Node 34, Type 1, BuildingBlock: NAWXER_clean_linker_0, # of connection points: 4
#     Node 35, Type 1, BuildingBlock: NAWXER_clean_linker_0, # of connection points: 4
#     Edge 36, Type (0, 1), BuildingBlock: MIFKUJ_clean_linker_0, # of connection points: 2
#     Edge 37, Type (0, 1), BuildingBlock: MIFKUJ_clean_linker_0, # of connection points: 2
#     Edge 38, Type (0, 1), BuildingBlock: MIFKUJ_clean_linker_0, # of connection points: 2
#     Edge 39, Type (0, 1), BuildingBlock: MIFKUJ_clean_linker_0, # of connection points: 2
#     Edge 40, Type (0, 1), BuildingBlock: MIFKUJ_clean_linker_0, # of connection points: 2
#     Edge 41, Type (0, 1), BuildingBlock: MIFKUJ_clean_linker_0, # of connection points: 2
#     Edge 42, Type (0, 1), BuildingBlock: MIFKUJ_clean_linker_0, # of connection points: 2
#     Edge 43, Type (0, 1), BuildingBlock: MIFKUJ_clean_linker_0, # of connection points: 2
#     Edge 44, Type (0, 1), BuildingBlock: MIFKUJ_clean_linker_0, # of connection points: 2
#     Edge 45, Type (0, 1), BuildingBlock: MIFKUJ_clean_linker_0, # of connection points: 2
#     Edge 46, Type (0, 1), BuildingBlock: MIFKUJ_clean_linker_0, # of connection points: 2
#     Edge 47, Type (0, 1), BuildingBlock: MIFKUJ_clean_linker_0, # of connection points: 2
#     Edge 48, Type (0, 1), BuildingBlock: MIFKUJ_clean_linker_0, # of connection points: 2
#     Edge 49, Type (0, 1), BuildingBlock: MIFKUJ_clean_linker_0, # of connection points: 2
#     Edge 50, Type (0, 1), BuildingBlock: MIFKUJ_clean_linker_0, # of connection points: 2
#     Edge 51, Type (0, 1), BuildingBlock: MIFKUJ_clean_linker_0, # of connection points: 2
#     Edge 52, Type (0, 1), BuildingBlock: MIFKUJ_clean_linker_0, # of connection points: 2
#     Edge 53, Type (0, 1), BuildingBlock: MIFKUJ_clean_linker_0, # of connection points: 2
#     Edge 54, Type (0, 1), BuildingBlock: MIFKUJ_clean_linker_0, # of connection points: 2
#     Edge 55, Type (0, 1), BuildingBlock: MIFKUJ_clean_linker_0, # of connection points: 2
#     Edge 56, Type (0, 1), BuildingBlock: MIFKUJ_clean_linker_0, # of connection points: 2
#     Edge 57, Type (0, 1), BuildingBlock: MIFKUJ_clean_linker_0, # of connection points: 2
#     Edge 58, Type (0, 1), BuildingBlock: MIFKUJ_clean_linker_0, # of connection points: 2
#     Edge 59, Type (0, 1), BuildingBlock: MIFKUJ_clean_linker_0, # of connection points: 2
#     Edge 60, Type (0, 1), BuildingBlock: MIFKUJ_clean_linker_0, # of connection points: 2
#     Edge 61, Type (0, 1), BuildingBlock: MIFKUJ_clean_linker_0, # of connection points: 2
#     Edge 62, Type (0, 1), BuildingBlock: MIFKUJ_clean_linker_0, # of connection points: 2
#     Edge 63, Type (0, 1), BuildingBlock: MIFKUJ_clean_linker_0, # of connection points: 2
#     Edge 64, Type (0, 1), BuildingBlock: MIFKUJ_clean_linker_0, # of connection points: 2
#     Edge 65, Type (0, 1), BuildingBlock: MIFKUJ_clean_linker_0, # of connection points: 2
#     Edge 66, Type (0, 1), BuildingBlock: MIFKUJ_clean_linker_0, # of connection points: 2
#     Edge 67, Type (0, 1), BuildingBlock: MIFKUJ_clean_linker_0, # of connection points: 2
#     Edge 68, Type (0, 1), BuildingBlock: MIFKUJ_clean_linker_0, # of connection points: 2
#     Edge 69, Type (0, 1), BuildingBlock: MIFKUJ_clean_linker_0, # of connection points: 2
#     Edge 70, Type (0, 1), BuildingBlock: MIFKUJ_clean_linker_0, # of connection points: 2
#     Edge 71, Type (0, 1), BuildingBlock: MIFKUJ_clean_linker_0, # of connection points: 2
#     Edge 72, Type (0, 1), BuildingBlock: MIFKUJ_clean_linker_0, # of connection points: 2
#     Edge 73, Type (0, 1), BuildingBlock: MIFKUJ_clean_linker_0, # of connection points: 2
#     Edge 74, Type (0, 1), BuildingBlock: MIFKUJ_clean_linker_0, # of connection points: 2
#     Edge 75, Type (0, 1), BuildingBlock: MIFKUJ_clean_linker_0, # of connection points: 2
#     Edge 76, Type (0, 1), BuildingBlock: MIFKUJ_clean_linker_0, # of connection points: 2
#     Edge 77, Type (0, 1), BuildingBlock: MIFKUJ_clean_linker_0, # of connection points: 2
#     Edge 78, Type (0, 1), BuildingBlock: MIFKUJ_clean_linker_0, # of connection points: 2
#     Edge 79, Type (0, 1), BuildingBlock: MIFKUJ_clean_linker_0, # of connection points: 2
#     Edge 80, Type (0, 1), BuildingBlock: MIFKUJ_clean_linker_0, # of connection points: 2
#     Edge 81, Type (0, 1), BuildingBlock: MIFKUJ_clean_linker_0, # of connection points: 2
#     Edge 82, Type (0, 1), BuildingBlock: MIFKUJ_clean_linker_0, # of connection points: 2
#     Edge 83, Type (0, 1), BuildingBlock: MIFKUJ_clean_linker_0, # of connection points: 2
#     Edge 84, Type (0, 1), BuildingBlock: MIFKUJ_clean_linker_0, # of connection points: 2
#     Edge 85, Type (0, 1), BuildingBlock: MIFKUJ_clean_linker_0, # of connection points: 2
#     Edge 86, Type (0, 1), BuildingBlock: MIFKUJ_clean_linker_0, # of connection points: 2
#     Edge 87, Type (0, 1), BuildingBlock: MIFKUJ_clean_linker_0, # of connection points: 2
#     Edge 88, Type (0, 1), BuildingBlock: MIFKUJ_clean_linker_0, # of connection points: 2
#     Edge 89, Type (0, 1), BuildingBlock: MIFKUJ_clean_linker_0, # of connection points: 2
#     Edge 90, Type (0, 1), BuildingBlock: MIFKUJ_clean_linker_0, # of connection points: 2
#     Edge 91, Type (0, 1), BuildingBlock: MIFKUJ_clean_linker_0, # of connection points: 2
#     Edge 92, Type (0, 1), BuildingBlock: MIFKUJ_clean_linker_0, # of connection points: 2
#     Edge 93, Type (0, 1), BuildingBlock: MIFKUJ_clean_linker_0, # of connection points: 2
#     Edge 94, Type (0, 1), BuildingBlock: MIFKUJ_clean_linker_0, # of connection points: 2
#     Edge 95, Type (0, 1), BuildingBlock: MIFKUJ_clean_linker_0, # of connection points: 2
#     Edge 96, Type (0, 1), BuildingBlock: MIFKUJ_clean_linker_0, # of connection points: 2
#     Edge 97, Type (0, 1), BuildingBlock: MIFKUJ_clean_linker_0, # of connection points: 2
#     Edge 98, Type (0, 1), BuildingBlock: MIFKUJ_clean_linker_0, # of connection points: 2
#     Edge 99, Type (0, 1), BuildingBlock: MIFKUJ_clean_linker_0, # of connection points: 2
#     Edge 100, Type (0, 1), BuildingBlock: MIFKUJ_clean_linker_0, # of connection points: 2
#     Edge 101, Type (0, 1), BuildingBlock: MIFKUJ_clean_linker_0, # of connection points: 2
#     Edge 102, Type (0, 1), BuildingBlock: MIFKUJ_clean_linker_0, # of connection points: 2
#     Edge 103, Type (0, 1), BuildingBlock: MIFKUJ_clean_linker_0, # of connection points: 2
#     Edge 104, Type (0, 1), BuildingBlock: MIFKUJ_clean_linker_0, # of connection points: 2
#     Edge 105, Type (0, 1), BuildingBlock: MIFKUJ_clean_linker_0, # of connection points: 2
#     Edge 106, Type (0, 1), BuildingBlock: MIFKUJ_clean_linker_0, # of connection points: 2
#     Edge 107, Type (0, 1), BuildingBlock: MIFKUJ_clean_linker_0, # of connection points: 2
# Relax obj value: 0.073
# Max RMSD: 0.264
# Mean RMSD: 0.108
data_MOF--net-ptr--node1-NAHDIM_clean_sbu_0--node2-NAWXER_clean_linker_0--edge1-MIFKUJ_clean_linker_0
_symmetry_space_group_name_H-M    P1
_symmetry_Int_Tables_number       1
_symmetry_cell_setting            triclinic
loop_
_symmetry_equiv_pos_as_xyz
'x, y, z'
_cell_length_a     110.47593
_cell_length_b     108.4025
_cell_length_c     78.653809
_cell_angle_alpha  91.609673
_cell_angle_beta   89.165608
_cell_angle_gamma 121.84388
loop_
_atom_site_label
_atom_site_type_symbol
_atom_site_fract_x
_atom_site_fract_y
_atom_site_fract_z
_atom_type_partial_charge
C0 C 0.02526 0.34467 0.03454 0.0
O1 O 0.01336 0.34219 0.04166 0.0
O2 O 0.99723 0.33059 0.00052 0.0
Zn3 Zn 0.01283 0.35075 0.00764 0.0
O4 O 0.00546 0.35977 0.02425 0.0
C5 C 0.01538 0.35957 0.97253 0.0
O6 O 0.00546 0.34587 0.96981 0.0
O7 O 0.0279 0.34893 0.01929 0.0
C8 C 0.00107 0.36782 0.01936 0.0
O9 O 0.00076 0.36983 0.00301 0.0
C10 C 0.98446 0.32695 0.9976 0.0
O11 O 0.98086 0.33668 0.99951 0.0
O12 O 0.02067 0.36379 0.98736 0.0
C13 C 0.68133 0.66033 0.98412 0.0
O14 O 0.67231 0.66347 0.97793 0.0
O15 O 0.66721 0.67125 0.02133 0.0
Zn16 Zn 0.66158 0.65179 0.01091 0.0
O17 O 0.64546 0.64416 0.99405 0.0
C18 C 0.64739 0.63778 0.0409 0.0
O19 O 0.64347 0.64724 0.03956 0.0
O20 O 0.67885 0.65454 0.9986 0.0
C21 C 0.63483 0.64572 0.9946 0.0
O22 O 0.63355 0.65309 0.00729 0.0
C23 C 0.66636 0.68121 0.01442 0.0
O24 O 0.6609 0.67905 0.99911 0.0
O25 O 0.65567 0.6375 0.02972 0.0
C26 C 0.33887 0.02057 0.98625 0.0
O27 O 0.33498 0.00796 0.97895 0.0
O28 O 0.32787 0.99378 0.02221 0.0
Zn29 Zn 0.34664 0.00799 0.01148 0.0
O30 O 0.35207 0.99837 0.99319 0.0
C31 C 0.36006 0.00794 0.04208 0.0
O32 O 0.34815 0.99521 0.04287 0.0
O33 O 0.34468 0.02357 0.00086 0.0
C34 C 0.3549 0.98872 0.9963 0.0
O35 O 0.35368 0.98425 0.01193 0.0
C36 C 0.3172 0.98306 0.01484 0.0
O37 O 0.31791 0.98049 0.99855 0.0
O38 O 0.36193 0.01609 0.02971 0.0
C39 C 0.98407 0.66609 0.98289 0.0
O40 O 0.99483 0.66678 0.97466 0.0
O41 O 0.01059 0.67616 0.02175 0.0
Zn42 Zn 0.99563 0.65806 0.00956 0.0
O43 O 0.00439 0.65141 0.99182 0.0
C44 C 0.9841 0.64493 0.04206 0.0
O45 O 0.98796 0.65824 0.04676 0.0
O46 O 0.98195 0.66226 0.99832 0.0
C47 C 0.00899 0.64327 0.99552 0.0
O48 O 0.0087 0.63976 0.01144 0.0
C49 C 0.01923 0.68782 0.01422 0.0
O50 O 0.01889 0.6881 0.99755 0.0
O51 O 0.98575 0.64228 0.02664 0.0
C52 C 0.31508 0.33977 0.02449 0.0
O53 O 0.31976 0.33087 0.02463 0.0
O54 O 0.33664 0.33749 0.99323 0.0
Zn55 Zn 0.34059 0.35567 0.00589 0.0
O56 O 0.35502 0.36087 0.02433 0.0
C57 C 0.34748 0.36989 0.9736 0.0
O58 O 0.34062 0.35642 0.96772 0.0
O59 O 0.32235 0.35174 0.0169 0.0
C60 C 0.36822 0.36705 0.02094 0.0
O61 O 0.37244 0.36993 0.00506 0.0
C62 C 0.34012 0.32882 0.99855 0.0
O63 O 0.34695 0.33171 0.01307 0.0
O64 O 0.34838 0.37226 0.98959 0.0
C65 C 0.64574 0.9641 0.0267 0.0
O66 O 0.63777 0.96796 0.03491 0.0
O67 O 0.66793 0.00112 0.99463 0.0
Zn68 Zn 0.64884 0.98561 0.00335 0.0
O69 O 0.64116 0.9929 0.02183 0.0
C70 C 0.63534 0.98947 0.97662 0.0
O71 O 0.64427 0.00275 0.98235 0.0
O72 O 0.65103 0.96967 0.01241 0.0
C73 C 0.6454 0.00586 0.02659 0.0
O74 O 0.65657 0.01674 0.01929 0.0
C75 C 0.6793 0.00797 0.00335 0.0
O76 O 0.67888 0.00556 0.01969 0.0
O77 O 0.63509 0.97896 0.98376 0.0
C78 C 0.68013 0.67343 0.3675 0.0
O79 O 0.66783 0.67065 0.37363 0.0
O80 O 0.65501 0.66742 0.33325 0.0
Zn81 Zn 0.67209 0.68583 0.34241 0.0
O82 O 0.66579 0.69522 0.35983 0.0
C83 C 0.68245 0.69612 0.30819 0.0
O84 O 0.67587 0.68224 0.304 0.0
O85 O 0.68468 0.68032 0.35374 0.0
C86 C 0.66104 0.7031 0.3555 0.0
O87 O 0.66017 0.7051 0.33928 0.0
C88 C 0.64664 0.66705 0.32206 0.0
O89 O 0.64881 0.67927 0.31611 0.0
O90 O 0.68257 0.69996 0.32364 0.0
C91 C 0.3435 0.99358 0.32329 0.0
O92 O 0.33696 -0.00018 0.31754 0.0
O93 O 0.32705 0.0043 0.3574 0.0
Zn94 Zn 0.3215 0.98479 0.34727 0.0
O95 O 0.30672 0.97849 0.32885 0.0
C96 C 0.31779 0.97225 0.38064 0.0
O97 O 0.32893 0.98502 0.38481 0.0
O98 O 0.33883 0.98619 0.33669 0.0
C99 C 0.30205 0.98602 0.323 0.0
O100 O 0.30686 0.99918 0.32922 0.0
C101 C 0.31844 0.00606 0.36649 0.0
O102 O 0.30552 0.9949 0.36909 0.0
O103 O 0.31318 0.96979 0.36544 0.0
C104 C 0.00934 0.35987 0.32315 0.0
O105 O 0.9984 0.34653 0.32464 0.0
O106 O 0.00364 0.336 0.35597 0.0
Zn107 Zn 0.0223 0.34877 0.34388 0.0
O108 O 0.02662 0.33694 0.32751 0.0
C109 C 0.03695 0.35959 0.37656 0.0
O110 O 0.02406 0.35384 0.3829 0.0
O111 O 0.02097 0.36353 0.33052 0.0
C112 C 0.03383 0.3316 0.3323 0.0
O113 O 0.03804 0.33349 0.34821 0.0
C114 C -0.0006 0.32308 0.36012 0.0
O115 O 0.00745 0.31777 0.35662 0.0
O116 O 0.03851 0.35894 0.36058 0.0
C117 C 0.6419 0.99385 0.33777 0.0
O118 O 0.65063 0.00477 0.34785 0.0
O119 O 0.67433 0.00258 0.35559 0.0
Zn120 Zn 0.65979 0.98271 0.34626 0.0
O121 O 0.66852 0.97651 0.32794 0.0
C122 C 0.65229 0.97144 0.38043 0.0
O123 O 0.6568 0.98498 0.38478 0.0
O124 O 0.64361 0.9832 0.33563 0.0
C125 C 0.67406 0.96912 0.33114 0.0
O126 O 0.67451 0.96575 0.34694 0.0
C127 C 0.68638 0.00568 0.36113 0.0
O128 O 0.68966 0.99566 0.36068 0.0
O129 O 0.65241 0.96807 0.36485 0.0
C130 C 0.98399 0.67544 0.36297 0.0
O131 O 0.99253 0.67173 0.3693 0.0
O132 O 0.00714 0.67351 0.33027 0.0
Zn133 Zn 0.00791 0.69072 0.34184 0.0
O134 O 0.0216 0.69856 0.36153 0.0
C135 C 0.01026 0.70413 0.30965 0.0
O136 O 0.00108 0.69071 0.30458 0.0
O137 O 0.98831 0.68407 0.35061 0.0
C138 C 0.03467 0.70275 0.35985 0.0
O139 O 0.03947 0.70169 0.34483 0.0
C140 C 0.01205 0.66627 0.33632 0.0
O141 O 0.01843 0.67003 0.35118 0.0
O142 O 0.01435 0.70665 0.32506 0.0
C143 C 0.33114 0.31969 0.35701 0.0
O144 O 0.34067 0.33367 0.35655 0.0
O145 O 0.33333 0.34399 0.32743 0.0
Zn146 Zn 0.31548 0.32913 0.33919 0.0
O147 O 0.30986 0.33843 0.35755 0.0
C148 C 0.30147 0.31649 0.30693 0.0
O149 O 0.31428 0.3199 0.30208 0.0
O150 O 0.31909 0.3148 0.35004 0.0
C151 C 0.29957 0.32973 0.36697 0.0
O152 O 0.29356 0.31569 0.36414 0.0
C153 C 0.33475 0.35511 0.32049 0.0
O154 O 0.32416 0.35734 0.32108 0.0
O155 O 0.2995 0.31917 0.32221 0.0
C156 C 0.35434 0.01933 0.70147 0.0
O157 O 0.34226 0.01628 0.70857 0.0
O158 O 0.32729 0.00437 0.66495 0.0
Zn159 Zn 0.34163 0.02448 0.67376 0.0
O160 O 0.33316 0.03256 0.6901 0.0
C161 C 0.34181 0.03697 0.64245 0.0
O162 O 0.32814 0.02719 0.64363 0.0
O163 O 0.35676 0.02337 0.68614 0.0
C164 C 0.32099 0.0311 0.68927 0.0
O165 O 0.31236 0.02351 0.67664 0.0
C166 C 0.31618 0.99503 0.67278 0.0
O167 O 0.3132 0.99834 0.68781 0.0
O168 O 0.35014 0.03789 0.65406 0.0
C169 C 0.01107 0.32127 0.65163 0.0
O170 O 0.00082 0.32095 0.64297 0.0
O171 O 0.99284 0.33027 0.69016 0.0
Zn172 Zn 0.99015 0.31254 0.67781 0.0
O173 O 0.97519 0.3057 0.65951 0.0
C174 C 0.97206 0.29379 0.70266 0.0
O175 O 0.96589 0.3009 0.69875 0.0
O176 O 0.00894 0.31768 0.66715 0.0
C177 C 0.96685 0.31032 0.65763 0.0
O178 O 0.9674 0.32005 0.66847 0.0
C179 C 0.99793 0.34246 0.68314 0.0
O180 O 0.00142 0.34366 0.66697 0.0
O181 O 0.98345 0.29676 0.69495 0.0
C182 C 0.68033 0.68925 0.65005 0.0
O183 O 0.67704 0.6766 0.6434 0.0
O184 O 0.67365 0.66572 0.68952 0.0
Zn185 Zn 0.691 0.67983 0.67622 0.0
O186 O 0.69595 0.66924 0.65881 0.0
C187 C 0.70623 0.69154 0.70805 0.0
O188 O 0.69332 0.68529 0.71446 0.0
O189 O 0.6867 0.69329 0.66432 0.0
C190 C 0.70151 0.66211 0.66314 0.0
O191 O 0.70374 0.66138 0.67935 0.0
C192 C 0.66342 0.65402 0.68305 0.0
O193 O 0.66417 0.65066 0.66706 0.0
O194 O 0.70777 0.69099 0.69205 0.0
C195 C 0.31446 0.33459 0.65778 0.0
O196 O 0.32823 0.34403 0.65682 0.0
O197 O 0.33959 0.33809 0.68755 0.0
Zn198 Zn 0.32504 0.31966 0.67517 0.0
O199 O 0.33416 0.31479 0.65581 0.0
C200 C 0.32385 0.30393 0.70438 0.0
O201 O 0.33674 0.31542 0.7063 0.0
O202 O 0.3101 0.32274 0.66536 0.0
C203 C 0.34228 0.31002 0.65845 0.0
O204 O 0.34497 0.30842 0.67417 0.0
C205 C 0.35188 0.34714 0.68174 0.0
O206 O 0.3556 0.34471 0.66667 0.0
O207 O 0.31634 0.30321 0.69184 0.0
C208 C 0.65211 0.01714 0.68195 0.0
O209 O 0.6501 0.01172 0.66637 0.0
O210 O 0.67341 0.00317 0.66651 0.0
Zn211 Zn 0.6806 0.02305 0.67672 0.0
O212 O 0.69568 0.02803 0.69434 0.0
C213 C 0.69395 0.03534 0.64507 0.0
O214 O 0.69422 0.02337 0.64415 0.0
O215 O 0.66436 0.02285 0.68867 0.0
C216 C 0.70881 0.03345 0.69104 0.0
O217 O 0.71316 0.0359 0.67518 0.0
C218 C 0.67247 0.99283 0.67483 0.0
O219 O 0.67636 0.99504 0.69088 0.0
O220 O 0.68848 0.03776 0.65809 0.0
C221 C 0.98778 0.64289 0.68813 0.0
O222 O 0.99889 0.65622 0.68764 0.0
O223 O 0.99471 0.67026 0.66054 0.0
Zn224 Zn 0.97541 0.65629 0.67068 0.0
O225 O 0.97045 0.66619 0.68925 0.0
C226 C 0.96169 0.65616 0.63982 0.0
O227 O 0.9731 0.66926 0.63892 0.0
O228 O 0.97616 0.64003 0.68138 0.0
C229 C 0.96397 0.67273 0.68633 0.0
O230 O 0.96049 0.67337 0.67063 0.0
C231 C 0.00076 0.68399 0.66182 0.0
O232 O 0.99427 0.68963 0.66996 0.0
O233 O 0.96033 0.64829 0.65227 0.0
C234 C 0.19152 0.30838 0.13747 0.0
C235 C 0.18956 0.30017 0.12249 0.0
C236 C 0.18 0.30495 0.1481 0.0
C237 C 0.16631 0.29324 0.14396 0.0
C238 C 0.17586 0.2884 0.11838 0.0
C239 C 0.16428 0.28507 0.12896 0.0
C240 C 0.15405 0.29019 0.15476 0.0
C241 C 0.18048 0.27795 0.18444 0.0
C242 C 0.18639 0.28639 0.19939 0.0
C243 C 0.16983 0.27844 0.17562 0.0
C244 C 0.16503 0.28749 0.18152 0.0
C245 C 0.18144 0.29531 0.20531 0.0
C246 C 0.17083 0.29578 0.19652 0.0
C247 C 0.15383 0.28828 0.17245 0.0
C248 C 0.09771 0.28136 0.19463 0.0
C249 C 0.1026 0.28923 0.21011 0.0
C250 C 0.10733 0.28107 0.18307 0.0
C251 C 0.12202 0.28895 0.18665 0.0
C252 C 0.11724 0.29686 0.21376 0.0
C253 C 0.12682 0.29672 0.20218 0.0
C254 C 0.1326 0.28894 0.17485 0.0
C255 C 0.11265 0.30865 0.14492 0.0
C256 C 0.10647 0.30148 0.12938 0.0
C257 C 0.12095 0.30498 0.15417 0.0
C258 C 0.12297 0.29384 0.14825 0.0
C259 C 0.10852 0.29036 0.12346 0.0
C260 C 0.11673 0.28661 0.13279 0.0
C261 C 0.13278 0.29074 0.15708 0.0
H262 H 0.20198 0.31744 0.14099 0.0
H263 H 0.18175 0.31161 0.15943 0.0
H264 H 0.17406 0.282 0.10681 0.0
H265 H 0.15376 0.27611 0.12546 0.0
H266 H 0.18393 0.27082 0.17969 0.0
H267 H 0.16528 0.27165 0.1643 0.0
H268 H 0.18592 0.30213 0.21662 0.0
H269 H 0.1673 0.30284 0.20132 0.0
H270 H 0.08645 0.27526 0.1916 0.0
H271 H 0.10328 0.27462 0.17144 0.0
H272 H 0.12133 0.30317 0.22549 0.0
H273 H 0.13807 0.30285 0.2053 0.0
H274 H 0.11148 0.31745 0.14963 0.0
H275 H 0.12611 0.31114 0.16571 0.0
H276 H 0.10382 0.2846 0.11157 0.0
H277 H 0.11833 0.27814 0.12786 0.0
N278 N 0.14347 0.29121 0.14774 0.0
N279 N 0.14316 0.28779 0.18177 0.0
C280 C 0.68769 0.88055 0.13442 0.0
C281 C 0.69697 0.88952 0.12165 0.0
C282 C 0.69107 0.87215 0.144 0.0
C283 C 0.70383 0.87253 0.14107 0.0
C284 C 0.70976 0.88987 0.11874 0.0
C285 C 0.71309 0.88135 0.12828 0.0
C286 C 0.70682 0.86281 0.15043 0.0
C287 C 0.71087 0.89648 0.18841 0.0
C288 C 0.7004 0.89088 0.2012 0.0
C289 C 0.71271 0.88711 0.17764 0.0
C290 C 0.70411 0.872 0.17948 0.0
C291 C 0.69193 0.87576 0.20309 0.0
C292 C 0.69382 0.86643 0.1924 0.0
C293 C 0.70593 0.86187 0.16834 0.0
C294 C 0.7181 0.81529 0.18308 0.0
C295 C 0.70646 0.8065 0.19365 0.0
C296 C 0.71848 0.8264 0.17399 0.0
C297 C 0.70733 0.829 0.17562 0.0
C298 C 0.69527 0.80904 0.19509 0.0
C299 C 0.69578 0.82031 0.1863 0.0
C300 C 0.70773 0.84094 0.16654 0.0
C301 C 0.69444 0.80577 0.12643 0.0
C302 C 0.7055 0.80868 0.11507 0.0
C303 C 0.69579 0.81657 0.13771 0.0
C304 C 0.70817 0.83047 0.1377 0.0
C305 C 0.71802 0.82251 0.11528 0.0
C306 C 0.71926 0.83343 0.12639 0.0
C307 C 0.70892 0.84205 0.14872 0.0
H308 H 0.67759 0.87969 0.13673 0.0
H309 H 0.68353 0.86504 0.15342 0.0
H310 H 0.71721 0.89674 0.10911 0.0
H311 H 0.7229 0.88165 0.1257 0.0
H312 H 0.71754 0.90809 0.18666 0.0
H313 H 0.72093 0.89168 0.16798 0.0
H314 H 0.68395 0.87114 0.21302 0.0
H315 H 0.68714 0.85482 0.19414 0.0
H316 H 0.72685 0.81351 0.18181 0.0
H317 H 0.72755 0.83309 0.16592 0.0
H318 H 0.68625 0.80248 0.2033 0.0
H319 H 0.68711 0.82218 0.18772 0.0
H320 H 0.68472 0.79515 0.1265 0.0
H321 H 0.68703 0.81417 0.14619 0.0
H322 H 0.72664 0.82495 0.10654 0.0
H323 H 0.72883 0.84416 0.12615 0.0
N324 N 0.70839 0.85292 0.14128 0.0
N325 N 0.70629 0.85089 0.1757 0.0
C326 C 0.11163 0.81262 0.13401 0.0
C327 C 0.10582 0.81475 0.11939 0.0
C328 C 0.12086 0.82438 0.14456 0.0
C329 C 0.12437 0.83848 0.14082 0.0
C330 C 0.10937 0.8289 0.11567 0.0
C331 C 0.11863 0.84066 0.12624 0.0
C332 C 0.13497 0.85107 0.15121 0.0
C333 C 0.09694 0.8246 0.18445 0.0
C334 C 0.09978 0.81927 0.19898 0.0
C335 C 0.10813 0.83529 0.17482 0.0
C336 C 0.12236 0.84062 0.17933 0.0
C337 C 0.11402 0.82489 0.2037 0.0
C338 C 0.12517 0.83547 0.194 0.0
C339 C 0.13443 0.85172 0.16915 0.0
C340 C 0.18734 0.91003 0.18673 0.0
C341 C 0.19223 0.9057 0.20039 0.0
C342 C 0.17591 0.89966 0.17671 0.0
C343 C 0.16927 0.88481 0.18012 0.0
C344 C 0.18526 0.89085 0.20403 0.0
C345 C 0.17388 0.88054 0.19404 0.0
C346 C 0.15742 0.87353 0.16951 0.0
C347 C 0.19572 0.89403 0.1349 0.0
C348 C 0.19406 0.89994 0.12008 0.0
C349 C 0.18405 0.88549 0.14536 0.0
C350 C 0.17054 0.88295 0.14139 0.0
C351 C 0.18053 0.89733 0.11608 0.0
C352 C 0.16888 0.88888 0.12663 0.0
C353 C 0.15787 0.87295 0.15155 0.0
H354 H 0.10937 0.80192 0.13704 0.0
H355 H 0.12554 0.82249 0.15541 0.0
H356 H 0.10499 0.83088 0.10459 0.0
H357 H 0.12135 0.85149 0.12302 0.0
H358 H 0.08607 0.82062 0.18068 0.0
H359 H 0.10564 0.83942 0.16389 0.0
H360 H 0.11654 0.82091 0.21473 0.0
H361 H 0.13604 0.83945 0.19781 0.0
H362 H 0.19248 0.92138 0.18362 0.0
H363 H 0.17232 0.90325 0.16627 0.0
H364 H 0.18857 0.88719 0.21468 0.0
H365 H 0.16882 0.86917 0.19705 0.0
H366 H 0.20596 0.89562 0.13812 0.0
H367 H 0.18552 0.88056 0.15629 0.0
H368 H 0.17896 0.90181 0.10478 0.0
H369 H 0.15852 0.88688 0.12318 0.0
N370 N 0.14658 0.86178 0.14313 0.0
N371 N 0.14573 0.86287 0.17757 0.0
C372 C 0.30336 0.11449 0.83352 0.0
C373 C 0.29323 0.10739 0.82046 0.0
C374 C 0.30269 0.12436 0.84465 0.0
C375 C 0.2916 0.12703 0.84337 0.0
C376 C 0.28217 0.11013 0.81916 0.0
C377 C 0.28138 0.11985 0.83049 0.0
C378 C 0.29138 0.13831 0.85421 0.0
C379 C 0.28947 0.10566 0.89015 0.0
C380 C 0.3014 0.11149 0.90096 0.0
C381 C 0.28687 0.11481 0.88077 0.0
C382 C 0.29625 0.12994 0.88191 0.0
C383 C 0.31056 0.12666 0.9023 0.0
C384 C 0.30796 0.13577 0.89295 0.0
C385 C 0.29399 0.13992 0.87192 0.0
C386 C 0.28707 0.19009 0.89219 0.0
C387 C 0.29869 0.19743 0.90345 0.0
C388 C 0.28525 0.17841 0.88205 0.0
C389 C 0.2951 0.17398 0.8829 0.0
C390 C 0.30841 0.19282 0.90435 0.0
C391 C 0.30657 0.18118 0.89427 0.0
C392 C 0.2935 0.16168 0.87239 0.0
C393 C 0.30272 0.1964 0.83521 0.0
C394 C 0.29275 0.19227 0.822 0.0
C395 C 0.30201 0.18607 0.84606 0.0
C396 C 0.29105 0.1714 0.8443 0.0
C397 C 0.28175 0.17758 0.82031 0.0
C398 C 0.28094 0.16727 0.83132 0.0
C399 C 0.29098 0.16015 0.85467 0.0
H400 H 0.31196 0.11257 0.83505 0.0
H401 H 0.31108 0.13016 0.85399 0.0
H402 H 0.27434 0.10512 0.80907 0.0
H403 H 0.27289 0.12193 0.82902 0.0
H404 H 0.28208 0.09403 0.88904 0.0
H405 H 0.27757 0.11008 0.87264 0.0
H406 H 0.31994 0.13151 0.9103 0.0
H407 H 0.31531 0.14741 0.89408 0.0
H408 H 0.2793 0.19325 0.89137 0.0
H409 H 0.27613 0.17279 0.87365 0.0
H410 H 0.3176 0.19838 0.91266 0.0
H411 H 0.31429 0.17794 0.89516 0.0
H412 H 0.31126 0.20762 0.83702 0.0
H413 H 0.31029 0.18953 0.8555 0.0
H414 H 0.27402 0.17395 0.81012 0.0
H415 H 0.27255 0.15598 0.8295 0.0
N416 N 0.28989 0.14845 0.84634 0.0
N417 N 0.29498 0.15156 0.88025 0.0
C418 C 0.89702 0.1861 0.89713 0.0
C419 C 0.89147 0.19228 0.90829 0.0
C420 C 0.88789 0.17358 0.88746 0.0
C421 C 0.87306 0.16714 0.88865 0.0
C422 C 0.87662 0.18551 0.90981 0.0
C423 C 0.86752 0.17307 0.90013 0.0
C424 C 0.86309 0.15414 0.87827 0.0
C425 C 0.8878 0.18956 0.84079 0.0
C426 C 0.89533 0.1866 0.82843 0.0
C427 C 0.87799 0.17866 0.85142 0.0
C428 C 0.87572 0.16464 0.85021 0.0
C429 C 0.89303 0.17254 0.82723 0.0
C430 C 0.88326 0.16166 0.83797 0.0
C431 C 0.8646 0.15277 0.86057 0.0
C432 C 0.80735 0.10495 0.83839 0.0
C433 C 0.81107 0.09816 0.82567 0.0
C434 C 0.81753 0.11483 0.85001 0.0
C435 C 0.83159 0.11796 0.8493 0.0
C436 C 0.8251 0.10115 0.82515 0.0
C437 C 0.83527 0.11101 0.8368 0.0
C438 C 0.84281 0.12965 0.86017 0.0
C439 C 0.81202 0.09517 0.89594 0.0
C440 C 0.80638 0.1001 0.90864 0.0
C441 C 0.82342 0.1051 0.88588 0.0
C442 C 0.82909 0.1201 0.88807 0.0
C443 C 0.81222 0.11508 0.91101 0.0
C444 C 0.82343 0.12496 0.90082 0.0
C445 C 0.84133 0.13099 0.8779 0.0
H446 H 0.90842 0.19107 0.89564 0.0
H447 H 0.89242 0.169 0.87902 0.0
H448 H 0.87199 0.18981 0.91855 0.0
H449 H 0.85612 0.1682 0.90142 0.0
H450 H 0.88939 0.20028 0.84215 0.0
H451 H 0.87197 0.18115 0.86034 0.0
H452 H 0.89845 0.16983 0.81767 0.0
H453 H 0.88148 0.15085 0.83661 0.0
H454 H 0.79673 0.10313 0.83891 0.0
H455 H 0.81453 0.12042 0.85913 0.0
H456 H 0.82827 0.09602 0.81558 0.0
H457 H 0.8461 0.1134 0.83589 0.0
H458 H 0.80779 0.08367 0.89402 0.0
H459 H 0.82788 0.10104 0.87658 0.0
H460 H 0.80798 0.11915 0.92061 0.0
H461 H 0.82763 0.13645 0.90286 0.0
N462 N 0.85153 0.14321 0.88617 0.0
N463 N 0.85445 0.14053 0.85227 0.0
C464 C 0.8206 0.72181 0.88662 0.0
C465 C 0.81351 0.70945 0.89675 0.0
C466 C 0.83266 0.72475 0.87724 0.0
C467 C 0.83766 0.71523 0.87764 0.0
C468 C 0.81878 0.70017 0.89742 0.0
C469 C 0.83075 0.70307 0.88801 0.0
C470 C 0.85013 0.71775 0.86755 0.0
C471 C 0.81657 0.70978 0.82966 0.0
C472 C 0.82048 0.72148 0.81895 0.0
C473 C 0.82672 0.70963 0.83986 0.0
C474 C 0.84095 0.72129 0.83978 0.0
C475 C 0.83477 0.73306 0.81873 0.0
C476 C 0.84493 0.73293 0.82901 0.0
C477 C 0.85186 0.72092 0.85006 0.0
C478 C 0.89514 0.70687 0.82852 0.0
C479 C 0.90309 0.71775 0.81667 0.0
C480 C 0.88562 0.70786 0.83946 0.0
C481 C 0.88403 0.71988 0.839 0.0
C482 C 0.90146 0.72975 0.81617 0.0
C483 C 0.89197 0.73077 0.82721 0.0
C484 C 0.87322 0.72044 0.84973 0.0
C485 C 0.9053 0.72165 0.88534 0.0
C486 C 0.89959 0.70994 0.89648 0.0
C487 C 0.8963 0.72431 0.87593 0.0
C488 C 0.88143 0.71512 0.87725 0.0
C489 C 0.88473 0.70101 0.89808 0.0
C490 C 0.87576 0.70359 0.88859 0.0
C491 C 0.87159 0.71749 0.86728 0.0
H492 H 0.8169 0.72926 0.88606 0.0
H493 H 0.83805 0.73443 0.86969 0.0
H494 H 0.81345 0.69047 0.90492 0.0
H495 H 0.83443 0.6956 0.88857 0.0
H496 H 0.80573 0.70054 0.82983 0.0
H497 H 0.82349 0.70028 0.8476 0.0
H498 H 0.8381 0.74225 0.81066 0.0
H499 H 0.85589 0.74194 0.82859 0.0
H500 H 0.8959 0.69732 0.82893 0.0
H501 H 0.87922 0.69902 0.84796 0.0
H502 H 0.90746 0.7383 0.80719 0.0
H503 H 0.89076 0.74003 0.82648 0.0
H504 H 0.91673 0.72883 0.88406 0.0
H505 H 0.90096 0.73355 0.86768 0.0
H506 H 0.88001 0.69182 0.90642 0.0
H507 H 0.86433 0.69639 0.88991 0.0
N508 N 0.86006 0.71617 0.87542 0.0
N509 N 0.86337 0.72221 0.84185 0.0
C510 C 0.75869 0.61516 0.46172 0.0
C511 C 0.76372 0.62698 0.45082 0.0
C512 C 0.76826 0.61284 0.47039 0.0
C513 C 0.78302 0.62238 0.46844 0.0
C514 C 0.7785 0.63635 0.44875 0.0
C515 C 0.78802 0.63402 0.45738 0.0
C516 C 0.79343 0.62029 0.4775 0.0
C517 C 0.77152 0.63107 0.51889 0.0
C518 C 0.76444 0.62029 0.53111 0.0
C519 C 0.78044 0.63012 0.50686 0.0
C520 C 0.78233 0.61829 0.50668 0.0
C521 C 0.76624 0.60837 0.53077 0.0
C522 C 0.77517 0.60743 0.51873 0.0
C523 C 0.79284 0.61793 0.49514 0.0
C524 C 0.85135 0.63128 0.51031 0.0
C525 C 0.84835 0.62168 0.52364 0.0
C526 C 0.84041 0.62992 0.5002 0.0
C527 C 0.82624 0.61862 0.50278 0.0
C528 C 0.83415 0.61035 0.52618 0.0
C529 C 0.82322 0.60887 0.51588 0.0
C530 C 0.81442 0.6179 0.49319 0.0
C531 C 0.84226 0.61355 0.45452 0.0
C532 C 0.84919 0.62541 0.44361 0.0
C533 C 0.83091 0.61155 0.46472 0.0
C534 C 0.82637 0.62144 0.46427 0.0
C535 C 0.84431 0.63503 0.44287 0.0
C536 C 0.83297 0.633 0.453 0.0
C537 C 0.81484 0.61999 0.47547 0.0
H538 H 0.74737 0.60762 0.46339 0.0
H539 H 0.76413 0.60356 0.47853 0.0
H540 H 0.78274 0.64568 0.44067 0.0
H541 H 0.79936 0.6415 0.45565 0.0
H542 H 0.77062 0.64055 0.51902 0.0
H543 H 0.78623 0.6389 0.49809 0.0
H544 H 0.76086 0.59983 0.53992 0.0
H545 H 0.77661 0.5983 0.51893 0.0
H546 H 0.86216 0.64004 0.50782 0.0
H547 H 0.84305 0.63799 0.49069 0.0
H548 H 0.83137 0.60291 0.5365 0.0
H549 H 0.81234 0.60024 0.51835 0.0
H550 H 0.8456 0.60581 0.45518 0.0
H551 H 0.82575 0.60235 0.47303 0.0
H552 H 0.84952 0.6444 0.43481 0.0
H553 H 0.82961 0.64074 0.45241 0.0
N554 N 0.80441 0.62123 0.46839 0.0
N555 N 0.80333 0.61678 0.50226 0.0
C556 C 0.35596 0.2234 0.46775 0.0
C557 C 0.36405 0.23032 0.45324 0.0
C558 C 0.35899 0.21466 0.47725 0.0
C559 C 0.37019 0.21275 0.47244 0.0
C560 C 0.37526 0.22839 0.44846 0.0
C561 C 0.37822 0.21956 0.4579 0.0
C562 C 0.3729 0.20288 0.48188 0.0
C563 C 0.38403 0.24113 0.51663 0.0
C564 C 0.37645 0.23743 0.53205 0.0
C565 C 0.38377 0.23038 0.50609 0.0
C566 C 0.37564 0.2157 0.5106 0.0
C567 C 0.3686 0.2228 0.53669 0.0
C568 C 0.36821 0.21207 0.5261 0.0
C569 C 0.37494 0.20396 0.49969 0.0
C570 C 0.38314 0.154 0.51283 0.0
C571 C 0.3738 0.14788 0.52666 0.0
C572 C 0.38363 0.16521 0.50383 0.0
C573 C 0.37484 0.17048 0.50862 0.0
C574 C 0.36533 0.15348 0.53169 0.0
C575 C 0.36594 0.16475 0.52283 0.0
C576 C 0.37455 0.18174 0.49879 0.0
C577 C 0.3542 0.14127 0.46625 0.0
C578 C 0.36137 0.14234 0.45093 0.0
C579 C 0.3578 0.15367 0.47602 0.0
C580 C 0.36886 0.16741 0.47089 0.0
C581 C 0.3723 0.15614 0.44566 0.0
C582 C 0.37595 0.16857 0.45552 0.0
C583 C 0.37236 0.18058 0.48103 0.0
H584 H 0.34731 0.22476 0.47177 0.0
H585 H 0.35244 0.20923 0.48821 0.0
H586 H 0.38154 0.23345 0.43721 0.0
H587 H 0.38677 0.21803 0.45387 0.0
H588 H 0.3903 0.25236 0.51287 0.0
H589 H 0.39 0.23356 0.4945 0.0
H590 H 0.36253 0.21961 0.54841 0.0
H591 H 0.3619 0.20086 0.52993 0.0
H592 H 0.38979 0.14988 0.50873 0.0
H593 H 0.39076 0.16966 0.49305 0.0
H594 H 0.35821 0.14911 0.54248 0.0
H595 H 0.35914 0.16873 0.5268 0.0
H596 H 0.34583 0.13082 0.47077 0.0
H597 H 0.35183 0.15252 0.48753 0.0
H598 H 0.37787 0.15735 0.43379 0.0
H599 H 0.38433 0.1791 0.45118 0.0
N600 N 0.37177 0.19128 0.47322 0.0
N601 N 0.37565 0.19331 0.50742 0.0
C602 C 0.78766 0.14119 0.46002 0.0
C603 C 0.78065 0.1423 0.44593 0.0
C604 C 0.79663 0.15339 0.47009 0.0
C605 C 0.79862 0.16695 0.46649 0.0
C606 C 0.7827 0.15591 0.44224 0.0
C607 C 0.79172 0.16816 0.45238 0.0
C608 C 0.8087 0.17996 0.47673 0.0
C609 C 0.77213 0.15158 0.51163 0.0
C610 C 0.77608 0.14518 0.52389 0.0
C611 C 0.78256 0.16304 0.502 0.0
C612 C 0.79706 0.16834 0.50473 0.0
C613 C 0.79059 0.15058 0.52664 0.0
C614 C 0.80098 0.16215 0.51727 0.0
C615 C 0.80832 0.1803 0.49468 0.0
C616 C 0.85922 0.23968 0.51314 0.0
C617 C 0.86473 0.23552 0.52629 0.0
C618 C 0.84805 0.22914 0.50295 0.0
C619 C 0.84223 0.21431 0.50581 0.0
C620 C 0.85871 0.22067 0.52923 0.0
C621 C 0.84753 0.21019 0.51916 0.0
C622 C 0.83052 0.20289 0.49519 0.0
C623 C 0.86889 0.22402 0.46145 0.0
C624 C 0.86782 0.23154 0.44788 0.0
C625 C 0.85693 0.21475 0.47109 0.0
C626 C 0.84366 0.21293 0.46747 0.0
C627 C 0.85452 0.22968 0.44423 0.0
C628 C 0.8425 0.22033 0.45386 0.0
C629 C 0.83091 0.20259 0.47723 0.0
H630 H 0.7862 0.13085 0.46331 0.0
H631 H 0.8022 0.15225 0.48057 0.0
H632 H 0.77757 0.15713 0.43135 0.0
H633 H 0.79331 0.17859 0.44921 0.0
H634 H 0.76099 0.1476 0.50935 0.0
H635 H 0.77934 0.16779 0.49251 0.0
H636 H 0.79389 0.14593 0.53619 0.0
H637 H 0.81211 0.16611 0.5196 0.0
H638 H 0.86365 0.25106 0.51064 0.0
H639 H 0.84394 0.23257 0.49291 0.0
H640 H 0.86256 0.21715 0.53947 0.0
H641 H 0.84314 0.19881 0.52166 0.0
H642 H 0.87901 0.22531 0.46466 0.0
H643 H 0.85801 0.20885 0.48125 0.0
H644 H 0.85335 0.23522 0.43371 0.0
H645 H 0.83231 0.21889 0.45072 0.0
N646 N 0.81994 0.19117 0.46866 0.0
N647 N 0.81927 0.19171 0.5032 0.0
C648 C 0.9745 0.53747 0.16902 0.0
C649 C 0.98247 0.54372 0.15421 0.0
C650 C 0.97623 0.52754 0.17798 0.0
C651 C 0.98613 0.52388 0.17247 0.0
C652 C 0.99237 0.54005 0.14875 0.0
C653 C 0.99414 0.5302 0.15776 0.0
C654 C 0.98751 0.51275 0.1812 0.0
C655 C 0.00311 0.54934 0.21983 0.0
C656 C 0.99333 0.54623 0.23308 0.0
C657 C 0.00135 0.53832 0.20857 0.0
C658 C 0.98988 0.52401 0.21054 0.0
C659 C 0.98181 0.53192 0.23499 0.0
C660 C 0.98021 0.52084 0.22392 0.0
C661 C 0.98833 0.5123 0.19902 0.0
C662 C 0.00366 0.46768 0.20915 0.0
C663 C 0.99456 0.45997 0.2227 0.0
C664 C 0.00185 0.47761 0.20035 0.0
C665 C 0.99084 0.47993 0.20487 0.0
C666 C 0.98363 0.46241 0.22726 0.0
C667 C 0.98186 0.47237 0.2185 0.0
C668 C 0.9891 0.49078 0.19612 0.0
C669 C 0.97944 0.45542 0.15722 0.0
C670 C 0.98784 0.46023 0.14244 0.0
C671 C 0.97956 0.46543 0.16894 0.0
C672 C 0.98835 0.48043 0.16629 0.0
C673 C 0.99644 0.47521 0.13969 0.0
C674 C 0.99668 0.48519 0.15149 0.0
C675 C 0.98843 0.49129 0.17823 0.0
H676 H 0.96663 0.5399 0.17338 0.0
H677 H 0.96953 0.52245 0.18894 0.0
H678 H 0.99878 0.54482 0.13749 0.0
H679 H 0.00178 0.52748 0.15319 0.0
H680 H 0.01204 0.56032 0.2181 0.0
H681 H 0.00904 0.54093 0.19845 0.0
H682 H 0.9742 0.5293 0.2452 0.0
H683 H 0.97137 0.50983 0.22569 0.0
H684 H 0.01214 0.46599 0.20531 0.0
H685 H 0.00913 0.48359 0.19013 0.0
H686 H 0.97661 0.45681 0.23782 0.0
H687 H 0.97343 0.47416 0.22234 0.0
H688 H 0.97255 0.44392 0.1595 0.0
H689 H 0.97262 0.46141 0.17991 0.0
H690 H 0.00309 0.47922 0.12846 0.0
H691 H 0.00346 0.49669 0.14907 0.0
N692 N 0.98769 0.50228 0.17151 0.0
N693 N 0.98897 0.50128 0.20582 0.0
C694 C 0.47692 0.43445 0.1646 0.0
C695 C 0.47406 0.43844 0.14901 0.0
C696 C 0.48711 0.44504 0.17573 0.0
C697 C 0.49434 0.45981 0.17162 0.0
C698 C 0.48152 0.45317 0.14479 0.0
C699 C 0.49155 0.46372 0.15596 0.0
C700 C 0.50513 0.47137 0.18309 0.0
C701 C 0.46417 0.45125 0.21264 0.0
C702 C 0.4643 0.44493 0.22795 0.0
C703 C 0.47678 0.45989 0.20367 0.0
C704 C 0.48975 0.46221 0.20968 0.0
C705 C 0.47732 0.44733 0.23398 0.0
C706 C 0.48993 0.45597 0.22497 0.0
C707 C 0.50325 0.47212 0.20085 0.0
C708 C 0.54606 0.53306 0.21927 0.0
C709 C 0.55375 0.53238 0.23294 0.0
C710 C 0.53704 0.52067 0.20947 0.0
C711 C 0.53546 0.50731 0.21316 0.0
C712 C 0.55199 0.51889 0.23671 0.0
C713 C 0.5428 0.50643 0.22698 0.0
C714 C 0.52582 0.4943 0.20274 0.0
C715 C 0.56536 0.52188 0.17201 0.0
C716 C 0.5628 0.52812 0.15818 0.0
C717 C 0.55396 0.51057 0.18079 0.0
C718 C 0.53987 0.50533 0.17577 0.0
C719 C 0.54869 0.52268 0.15306 0.0
C720 C 0.53735 0.51132 0.1617 0.0
C721 C 0.52762 0.49364 0.18503 0.0
H722 H 0.47142 0.42315 0.16806 0.0
H723 H 0.48938 0.44167 0.18748 0.0
H724 H 0.47941 0.45658 0.13296 0.0
H725 H 0.49699 0.47501 0.15243 0.0
H726 H 0.45431 0.44953 0.20758 0.0
H727 H 0.47642 0.46497 0.19218 0.0
H728 H 0.47781 0.44282 0.24587 0.0
H729 H 0.49986 0.45784 0.22999 0.0
H730 H 0.54682 0.54313 0.21625 0.0
H731 H 0.5312 0.52148 0.19907 0.0
H732 H 0.55783 0.51798 0.24703 0.0
H733 H 0.54161 0.49616 0.23004 0.0
H734 H 0.57615 0.52588 0.17618 0.0
H735 H 0.55615 0.50593 0.19145 0.0
H736 H 0.54644 0.52716 0.14228 0.0
H737 H 0.52656 0.50737 0.15757 0.0
N738 N 0.51721 0.48223 0.17591 0.0
N739 N 0.51374 0.4835 0.21001 0.0
C740 C 0.47144 0.02207 0.2185 0.0
C741 C 0.46309 0.00965 0.22827 0.0
C742 C 0.48264 0.02343 0.20853 0.0
C743 C 0.48564 0.01236 0.20807 0.0
C744 C 0.46632 0.99871 0.22798 0.0
C745 C 0.47755 0.00011 0.21807 0.0
C746 C 0.49739 0.01355 0.19755 0.0
C747 C 0.46401 0.00895 0.16192 0.0
C748 C 0.46855 0.02015 0.1502 0.0
C749 C 0.47388 0.00777 0.17148 0.0
C750 C 0.48853 0.01808 0.17006 0.0
C751 C 0.48327 0.03023 0.14847 0.0
C752 C 0.49313 0.0292 0.1583 0.0
C753 C 0.49912 0.01688 0.18009 0.0
C754 C 0.54547 0.00638 0.15874 0.0
C755 C 0.553 0.01777 0.14732 0.0
C756 C 0.535 0.00595 0.16934 0.0
C757 C 0.53202 0.01703 0.16901 0.0
C758 C 0.54995 0.02882 0.14697 0.0
C759 C 0.53953 0.02842 0.15766 0.0
C760 C 0.52046 0.01633 0.17957 0.0
C761 C 0.55264 0.02002 0.21744 0.0
C762 C 0.54746 0.00776 0.2276 0.0
C763 C 0.54336 0.02164 0.2072 0.0
C764 C 0.52874 0.01101 0.20695 0.0
C765 C 0.53284 0.99713 0.22727 0.0
C766 C 0.52356 0.9988 0.21713 0.0
C767 C 0.51862 0.01289 0.19698 0.0
H768 H 0.46942 0.03082 0.21869 0.0
H769 H 0.48898 0.03314 0.20123 0.0
H770 H 0.46002 0.98893 0.23517 0.0
H771 H 0.47975 0.99148 0.21797 0.0
H772 H 0.4528 0.00105 0.16379 0.0
H773 H 0.47001 0.99871 0.17989 0.0
H774 H 0.48722 0.03881 0.13933 0.0
H775 H 0.50439 0.03712 0.15672 0.0
H776 H 0.54759 0.99774 0.15944 0.0
H777 H 0.52906 0.99677 0.17756 0.0
H778 H 0.55535 0.03761 0.13812 0.0
H779 H 0.53727 0.03698 0.15698 0.0
H780 H 0.56388 0.02836 0.21741 0.0
H781 H 0.54755 0.0313 0.19971 0.0
H782 H 0.52851 0.98767 0.23514 0.0
H783 H 0.51229 0.99055 0.21726 0.0
N784 N 0.50714 0.01158 0.20524 0.0
N785 N 0.51066 0.01826 0.17183 0.0
C786 C 0.5354 0.00109 0.80046 0.0
C787 C 0.53344 0.99206 0.78621 0.0
C788 C 0.52393 0.99815 0.81097 0.0
C789 C 0.51026 0.98618 0.8074 0.0
C790 C 0.51966 0.98013 0.78265 0.0
C791 C 0.50816 0.97731 0.79306 0.0
C792 C 0.49811 0.98315 0.81836 0.0
C793 C 0.52547 0.97181 0.84757 0.0
C794 C 0.53123 0.98025 0.86255 0.0
C795 C 0.51458 0.97192 0.83885 0.0
C796 C 0.50936 0.98057 0.84491 0.0
C797 C 0.52577 0.98867 0.86871 0.0
C798 C 0.51493 0.98878 0.86001 0.0
C799 C 0.49787 0.98092 0.83596 0.0
C800 C 0.43904 0.96743 0.85647 0.0
C801 C 0.44258 0.97411 0.87271 0.0
C802 C 0.44974 0.9691 0.84527 0.0
C803 C 0.46417 0.97787 0.84995 0.0
C804 C 0.45697 0.98254 0.87753 0.0
C805 C 0.46764 0.98441 0.86626 0.0
C806 C 0.47579 0.97988 0.83841 0.0
C807 C 0.45347 0.99786 0.81032 0.0
C808 C 0.44783 0.99113 0.79443 0.0
C809 C 0.46259 0.99495 0.81903 0.0
C810 C 0.46595 0.985 0.81219 0.0
C811 C 0.45133 0.98131 0.78752 0.0
C812 C 0.46033 0.9783 0.79631 0.0
C813 C 0.4762 0.98242 0.8208 0.0
H814 H 0.54575 0.01056 0.80341 0.0
H815 H 0.52569 0.0053 0.82181 0.0
H816 H 0.51775 0.97281 0.77196 0.0
H817 H 0.49765 0.96806 0.79008 0.0
H818 H 0.52944 0.96521 0.84251 0.0
H819 H 0.51019 0.96518 0.82747 0.0
H820 H 0.52977 0.99505 0.8804 0.0
H821 H 0.51096 0.9954 0.86502 0.0
H822 H 0.428 0.96072 0.85257 0.0
H823 H 0.4467 0.96346 0.83304 0.0
H824 H 0.45998 0.98788 0.88994 0.0
H825 H 0.47866 0.99112 0.87026 0.0
H826 H 0.45115 0.00567 0.81579 0.0
H827 H 0.46721 0.00069 0.83095 0.0
H828 H 0.44706 0.97591 0.77534 0.0
H829 H 0.46294 0.97074 0.7907 0.0
N830 N 0.48727 0.98378 0.81144 0.0
N831 N 0.48673 0.97937 0.84528 0.0
C832 C 0.99667 0.53757 0.80177 0.0
C833 C 0.00528 0.54421 0.78748 0.0
C834 C 0.99891 0.5285 0.81177 0.0
C835 C 0.0099 0.52602 0.80778 0.0
C836 C 0.01619 0.5416 0.78344 0.0
C837 C 0.01841 0.53252 0.79344 0.0
C838 C 0.012 0.51595 0.81781 0.0
C839 C 0.02292 0.55351 0.85369 0.0
C840 C 0.01463 0.54984 0.86856 0.0
C841 C 0.02205 0.54264 0.84283 0.0
C842 C 0.01268 0.52791 0.84647 0.0
C843 C 0.00526 0.53511 0.87216 0.0
C844 C 0.00433 0.52426 0.86125 0.0
C845 C 0.01233 0.51627 0.83579 0.0
C846 C 0.0281 0.47306 0.8526 0.0
C847 C 0.01753 0.46446 0.86446 0.0
C848 C 0.02682 0.48293 0.84291 0.0
C849 C 0.01504 0.48445 0.84511 0.0
C850 C 0.00573 0.46598 0.8666 0.0
C851 C 0.00459 0.47604 0.85715 0.0
C852 C 0.01373 0.49506 0.83521 0.0
C853 C 0.00348 0.45786 0.79948 0.0
C854 C 0.0133 0.46152 0.78609 0.0
C855 C 0.00367 0.46869 0.80971 0.0
C856 C 0.01372 0.48339 0.80683 0.0
C857 C 0.02328 0.47627 0.78316 0.0
C858 C 0.02342 0.4871 0.79338 0.0
C859 C 0.01371 0.49491 0.81728 0.0
H860 H 0.98822 0.53942 0.80526 0.0
H861 H 0.99193 0.52329 0.82249 0.0
H862 H 0.02285 0.54637 0.77237 0.0
H863 H 0.02681 0.53059 0.78998 0.0
H864 H 0.0304 0.56477 0.85075 0.0
H865 H 0.02898 0.54578 0.83183 0.0
H866 H 0.99863 0.53196 0.88344 0.0
H867 H 0.99711 0.51299 0.8644 0.0
H868 H 0.03727 0.47204 0.85073 0.0
H869 H 0.03508 0.48946 0.83382 0.0
H870 H 0.99751 0.45954 0.87578 0.0
H871 H 0.99547 0.47714 0.85907 0.0
H872 H 0.99544 0.44663 0.80184 0.0
H873 H 0.99577 0.46557 0.81967 0.0
H874 H 0.03106 0.47945 0.77304 0.0
H875 H 0.03119 0.4984 0.79087 0.0
N876 N 0.01285 0.50536 0.80925 0.0
N877 N 0.01304 0.50571 0.84379 0.0
C878 C 0.531 0.56911 0.7926 0.0
C879 C 0.53741 0.56378 0.78151 0.0
C880 C 0.51916 0.55956 0.80236 0.0
C881 C 0.51366 0.54455 0.80137 0.0
C882 C 0.53171 0.54873 0.78037 0.0
C883 C 0.51993 0.53923 0.79014 0.0
C884 C 0.50117 0.53416 0.81154 0.0
C885 C 0.53565 0.56144 0.8498 0.0
C886 C 0.53208 0.56821 0.86274 0.0
C887 C 0.52524 0.55117 0.83869 0.0
C888 C 0.5111 0.54776 0.83988 0.0
C889 C 0.51791 0.56478 0.8639 0.0
C890 C 0.50755 0.55466 0.8526 0.0
C891 C 0.49972 0.53599 0.82918 0.0
C892 C 0.45164 0.47756 0.84928 0.0
C893 C 0.44448 0.48148 0.86108 0.0
C894 C 0.46212 0.4879 0.83867 0.0
C895 C 0.4655 0.50234 0.83941 0.0
C896 C 0.44791 0.49596 0.86182 0.0
C897 C 0.45838 0.5063 0.85115 0.0
C898 C 0.47722 0.51356 0.829 0.0
C899 C 0.44371 0.48206 0.79199 0.0
C900 C 0.44833 0.47487 0.78104 0.0
C901 C 0.45351 0.49407 0.8019 0.0
C902 C 0.46809 0.499 0.80116 0.0
C903 C 0.46295 0.47997 0.7802 0.0
C904 C 0.47272 0.49194 0.79009 0.0
C905 C 0.47872 0.51173 0.8114 0.0
H906 H 0.53501 0.58063 0.79355 0.0
H907 H 0.51427 0.5639 0.81058 0.0
H908 H 0.53649 0.5443 0.77212 0.0
H909 H 0.51584 0.52769 0.78911 0.0
H910 H 0.54646 0.5639 0.84836 0.0
H911 H 0.52823 0.54563 0.82948 0.0
H912 H 0.51469 0.56954 0.87388 0.0
H913 H 0.49667 0.55202 0.85399 0.0
H914 H 0.44919 0.46648 0.84829 0.0
H915 H 0.46775 0.48464 0.83011 0.0
H916 H 0.44276 0.49939 0.87094 0.0
H917 H 0.46099 0.51744 0.85213 0.0
H918 H 0.43254 0.47854 0.79271 0.0
H919 H 0.44972 0.49958 0.81 0.0
H920 H 0.46684 0.47457 0.77206 0.0
H921 H 0.48392 0.49559 0.78926 0.0
N922 N 0.49064 0.52207 0.80342 0.0
N923 N 0.48774 0.52566 0.83715 0.0
C924 C 0.6435 0.78736 0.49841 0.0
C925 C 0.63272 0.77993 0.48614 0.0
C926 C 0.64258 0.79637 0.51072 0.0
C927 C 0.63075 0.79795 0.51118 0.0
C928 C 0.62088 0.78151 0.48664 0.0
C929 C 0.61995 0.7905 0.499 0.0
C930 C 0.63021 0.80835 0.52328 0.0
C931 C 0.62923 0.77407 0.55537 0.0
C932 C 0.64115 0.77942 0.56609 0.0
C933 C 0.62654 0.78363 0.54708 0.0
C934 C 0.63579 0.79871 0.54928 0.0
C935 C 0.65029 0.79453 0.56834 0.0
C936 C 0.64757 0.80405 0.56012 0.0
C937 C 0.63312 0.80907 0.54083 0.0
C938 C 0.62349 0.85639 0.56679 0.0
C939 C 0.63483 0.86332 0.57846 0.0
C940 C 0.62223 0.84545 0.55572 0.0
C941 C 0.63244 0.84147 0.55588 0.0
C942 C 0.64478 0.85901 0.57893 0.0
C943 C 0.64357 0.84817 0.56779 0.0
C944 C 0.63154 0.83014 0.54406 0.0
C945 C 0.63858 0.86625 0.51034 0.0
C946 C 0.62769 0.86237 0.49844 0.0
C947 C 0.63879 0.85562 0.51973 0.0
C948 C 0.62799 0.84093 0.51762 0.0
C949 C 0.61686 0.84766 0.4964 0.0
C950 C 0.61706 0.83704 0.50584 0.0
C951 C 0.62875 0.82949 0.52647 0.0
H952 H 0.6529 0.78661 0.49815 0.0
H953 H 0.65132 0.80241 0.51957 0.0
H954 H 0.61234 0.77584 0.47745 0.0
H955 H 0.61081 0.79169 0.49899 0.0
H956 H 0.62186 0.76249 0.55358 0.0
H957 H 0.61718 0.77925 0.53911 0.0
H958 H 0.65967 0.79903 0.5763 0.0
H959 H 0.65482 0.81565 0.56203 0.0
H960 H 0.61554 0.85934 0.56634 0.0
H961 H 0.61326 0.84012 0.54705 0.0
H962 H 0.65371 0.86425 0.58766 0.0
H963 H 0.65153 0.84522 0.56825 0.0
H964 H 0.64723 0.87744 0.51196 0.0
H965 H 0.64762 0.85886 0.5283 0.0
H966 H 0.60828 0.84435 0.48742 0.0
H967 H 0.60872 0.82575 0.50387 0.0
N968 N 0.62807 0.81855 0.51682 0.0
N969 N 0.6337 0.81995 0.5505 0.0
C970 C 0.14098 0.77275 0.50606 0.0
C971 C 0.13452 0.77762 0.4951 0.0
C972 C 0.15201 0.78261 0.51689 0.0
C973 C 0.15686 0.79747 0.51664 0.0
C974 C 0.1393 0.79245 0.49501 0.0
C975 C 0.15049 0.80232 0.50555 0.0
C976 C 0.16879 0.80814 0.52751 0.0
C977 C 0.13111 0.78589 0.5621 0.0
C978 C 0.13208 0.7773 0.57439 0.0
C979 C 0.14298 0.79536 0.55246 0.0
C980 C 0.15605 0.79638 0.55483 0.0
C981 C 0.14514 0.77823 0.5767 0.0
C982 C 0.15709 0.78783 0.5671 0.0
C983 C 0.16877 0.80715 0.54535 0.0
C984 C 0.21285 0.86618 0.56831 0.0
C985 C 0.22099 0.86393 0.57992 0.0
C986 C 0.20345 0.85497 0.55727 0.0
C987 C 0.20196 0.84131 0.55775 0.0
C988 C 0.21962 0.8503 0.58029 0.0
C989 C 0.21 0.83898 0.56942 0.0
C990 C 0.19138 0.8293 0.54676 0.0
C991 C 0.22791 0.85896 0.51244 0.0
C992 C 0.22419 0.86481 0.49922 0.0
C993 C 0.21733 0.84787 0.52233 0.0
C994 C 0.20286 0.84259 0.51932 0.0
C995 C 0.20972 0.85958 0.49636 0.0
C996 C 0.19919 0.84857 0.50625 0.0
C997 C 0.19137 0.83031 0.52889 0.0
H998 H 0.13746 0.76135 0.50628 0.0
H999 H 0.15691 0.7787 0.52525 0.0
H1000 H 0.13456 0.79645 0.48651 0.0
H1001 H 0.15412 0.81375 0.50514 0.0
H1002 H 0.12116 0.78532 0.55996 0.0
H1003 H 0.14201 0.80213 0.54339 0.0
H1004 H 0.14619 0.77181 0.58619 0.0
H1005 H 0.16714 0.78862 0.56927 0.0
H1006 H 0.2138 0.87663 0.56774 0.0
H1007 H 0.19715 0.85689 0.54853 0.0
H1008 H 0.22576 0.84833 0.58921 0.0
H1009 H 0.20885 0.82845 0.57006 0.0
H1010 H 0.23897 0.86264 0.51479 0.0
H1011 H 0.22046 0.84318 0.53201 0.0
H1012 H 0.20651 0.86401 0.48644 0.0
H1013 H 0.18812 0.8447 0.50367 0.0
N1014 N 0.18004 0.81968 0.51998 0.0
N1015 N 0.1801 0.81774 0.55433 0.0
C1016 C 0.23461 0.38236 0.50129 0.0
C1017 C 0.22911 0.37193 0.48792 0.0
C1018 C 0.22555 0.38521 0.51093 0.0
C1019 C 0.21089 0.37767 0.50732 0.0
C1020 C 0.2145 0.36467 0.48417 0.0
C1021 C 0.20551 0.36756 0.49371 0.0
C1022 C 0.2009 0.38011 0.51741 0.0
C1023 C 0.21682 0.35979 0.5527 0.0
C1024 C 0.22495 0.36907 0.56629 0.0
C1025 C 0.20881 0.36324 0.54253 0.0
C1026 C 0.20886 0.37608 0.5457 0.0
C1027 C 0.22489 0.38186 0.56952 0.0
C1028 C 0.21679 0.38526 0.55939 0.0
C1029 C 0.20003 0.3795 0.53531 0.0
C1030 C 0.14175 0.36725 0.54848 0.0
C1031 C 0.14365 0.37505 0.5638 0.0
C1032 C 0.15348 0.36966 0.53887 0.0
C1033 C 0.16737 0.38014 0.54419 0.0
C1034 C 0.15756 0.38542 0.56925 0.0
C1035 C 0.16932 0.3879 0.55954 0.0
C1036 C 0.1798 0.38195 0.53461 0.0
C1037 C 0.15645 0.39476 0.5 0.0
C1038 C 0.15169 0.38659 0.48471 0.0
C1039 C 0.16617 0.39391 0.51035 0.0
C1040 C 0.17098 0.38456 0.50581 0.0
C1041 C 0.15685 0.37761 0.47994 0.0
C1042 C 0.16638 0.37661 0.49037 0.0
C1043 C 0.18097 0.38305 0.5167 0.0
H1044 H 0.24584 0.38813 0.50442 0.0
H1045 H 0.22999 0.39327 0.52117 0.0
H1046 H 0.21 0.3568 0.47373 0.0
H1047 H 0.19426 0.3617 0.4906 0.0
H1048 H 0.21673 0.34991 0.54984 0.0
H1049 H 0.20248 0.35582 0.53228 0.0
H1050 H 0.23091 0.38911 0.58004 0.0
H1051 H 0.21679 0.3951 0.56217 0.0
H1052 H 0.1312 0.35892 0.54417 0.0
H1053 H 0.15168 0.36307 0.52748 0.0
H1054 H 0.15933 0.39157 0.58102 0.0
H1055 H 0.17995 0.39585 0.56403 0.0
H1056 H 0.15276 0.4019 0.50384 0.0
H1057 H 0.16991 0.40056 0.52188 0.0
H1058 H 0.15326 0.3711 0.46829 0.0
H1059 H 0.16995 0.36937 0.48649 0.0
N1060 N 0.19139 0.38192 0.50885 0.0
N1061 N 0.18952 0.38046 0.54323 0.0
H1062 H 0.99248 0.38675 0.01321 0.0
H1063 H 0.98832 0.40127 0.03401 0.0
H1064 H 0.99738 0.38151 0.07478 0.0
H1065 H 0.00142 0.36682 0.05405 0.0
H1066 H 0.97478 0.3845 0.08227 0.0
H1067 H 0.02279 0.41446 0.06123 0.0
H1068 H 0.04103 0.42604 0.03886 0.0
H1069 H 0.02127 0.44859 0.02183 0.0
H1070 H 0.0028 0.437 0.04399 0.0
H1071 H 0.99002 0.43677 0.14832 0.0
H1072 H 0.99057 0.42003 0.12723 0.0
H1073 H 0.98536 0.44314 0.087 0.0
H1074 H 0.98516 0.46008 0.10803 0.0
H1075 H 0.00527 0.43813 0.07873 0.0
H1076 H 0.95772 0.40905 0.10027 0.0
H1077 H 0.93921 0.39733 0.12232 0.0
H1078 H 0.95748 0.37299 0.138 0.0
H1079 H 0.97622 0.3847 0.11618 0.0
C1080 C 0.99348 0.38539 0.02659 0.0
C1081 C 0.99741 0.37573 0.03196 0.0
C1082 C 0.99112 0.39373 0.03847 0.0
C1083 C 0.99274 0.39261 0.05592 0.0
C1084 C 0.99611 0.38256 0.06136 0.0
C1085 C 0.99846 0.37421 0.04949 0.0
C1086 C 0.99154 0.40236 0.06846 0.0
C1087 C 0.98152 0.39622 0.08163 0.0
C1088 C 0.00015 0.41765 0.06736 0.0
C1089 C 0.01135 0.42478 0.05418 0.0
C1090 C 0.02229 0.42183 0.05265 0.0
C1091 C 0.03268 0.4284 0.04003 0.0
C1092 C 0.03231 0.43804 0.02894 0.0
C1093 C 0.02155 0.44114 0.03045 0.0
C1094 C 0.01113 0.43458 0.04305 0.0
C1095 C 0.98886 0.43817 0.13498 0.0
C1096 C 0.98756 0.44971 0.12979 0.0
C1097 C 0.98914 0.42859 0.12294 0.0
C1098 C 0.98783 0.43021 0.10552 0.0
C1099 C 0.98641 0.44168 0.10035 0.0
C1100 C 0.9863 0.45135 0.11236 0.0
C1101 C 0.98846 0.4203 0.09262 0.0
C1102 C 0.99843 0.42641 0.07937 0.0
C1103 C 0.97975 0.40499 0.09362 0.0
C1104 C 0.96844 0.39785 0.10668 0.0
C1105 C 0.95785 0.40127 0.10849 0.0
C1106 C 0.94731 0.39462 0.12094 0.0
C1107 C 0.94719 0.38445 0.13158 0.0
C1108 C 0.95759 0.38088 0.12976 0.0
C1109 C 0.96816 0.3875 0.11734 0.0
H1110 H 0.93903 0.37931 0.14121 0.0
H1111 H 0.04036 0.44312 0.01917 0.0
H1112 H 0.65401 0.61745 0.04849 0.0
H1113 H 0.64372 0.59956 0.07102 0.0
H1114 H 0.61757 0.61643 0.08708 0.0
H1115 H 0.62798 0.63446 0.06496 0.0
H1116 H 0.6278 0.61068 0.11395 0.0
H1117 H 0.60468 0.58572 0.06109 0.0
H1118 H 0.60396 0.57717 0.03152 0.0
H1119 H 0.62358 0.55407 0.04708 0.0
H1120 H 0.62456 0.56265 0.07674 0.0
H1121 H 0.56519 0.55342 0.14954 0.0
H1122 H 0.5838 0.57275 0.1324 0.0
H1123 H 0.60585 0.54971 0.12886 0.0
H1124 H 0.58711 0.5302 0.14601 0.0
H1125 H 0.60188 0.55831 0.09763 0.0
H1126 H 0.62047 0.58012 0.15196 0.0
H1127 H 0.61966 0.58815 0.18137 0.0
H1128 H 0.60732 0.61688 0.16301 0.0
H1129 H 0.60784 0.60886 0.1335 0.0
C1130 C 0.64613 0.61739 0.0569 0.0
C1131 C 0.64174 0.62731 0.05487 0.0
C1132 C 0.64025 0.60715 0.06974 0.0
C1133 C 0.62976 0.60656 0.08062 0.0
C1134 C 0.62566 0.6167 0.07887 0.0
C1135 C 0.63158 0.62696 0.06614 0.0
C1136 C 0.62254 0.59508 0.09343 0.0
C1137 C 0.62211 0.59923 0.11039 0.0
C1138 C 0.61545 0.58012 0.08887 0.0
C1139 C 0.61486 0.57498 0.07107 0.0
C1140 C 0.60894 0.57892 0.05817 0.0
C1141 C 0.60847 0.57405 0.04141 0.0
C1142 C 0.61377 0.56512 0.03741 0.0
C1143 C 0.61951 0.56101 0.05019 0.0
C1144 C 0.62003 0.56587 0.06698 0.0
C1145 C 0.57406 0.55253 0.1452 0.0
C1146 C 0.57471 0.54031 0.14901 0.0
C1147 C 0.58473 0.56362 0.13554 0.0
C1148 C 0.59625 0.56271 0.12949 0.0
C1149 C 0.59707 0.55063 0.1335 0.0
C1150 C 0.58643 0.53956 0.14333 0.0
C1151 C 0.6068 0.57394 0.11802 0.0
C1152 C 0.60785 0.56975 0.1013 0.0
C1153 C 0.61433 0.58885 0.12276 0.0
C1154 C 0.61413 0.59382 0.1405 0.0
C1155 C 0.61749 0.58808 0.15419 0.0
C1156 C 0.61709 0.59264 0.17089 0.0
C1157 C 0.61342 0.603 0.17406 0.0
C1158 C 0.61016 0.60885 0.16054 0.0
C1159 C 0.61053 0.60432 0.14382 0.0
H1160 H 0.61311 0.60651 0.18699 0.0
H1161 H 0.61339 0.56136 0.02443 0.0
H1162 H 0.36101 0.99052 0.06549 0.0
H1163 H 0.38017 0.99626 0.08506 0.0
H1164 H 0.40413 0.04019 0.06717 0.0
H1165 H 0.38503 0.03429 0.04688 0.0
H1166 H 0.42104 0.03053 0.06966 0.0
H1167 H 0.38817 0.03192 0.10761 0.0
H1168 H 0.365 0.02391 0.12121 0.0
H1169 H 0.36297 0.98573 0.13881 0.0
H1170 H 0.38603 0.99339 0.12511 0.0
H1171 H 0.46959 0.04471 0.13958 0.0
H1172 H 0.45215 0.046 0.12211 0.0
H1173 H 0.42586 0.99927 0.12019 0.0
H1174 H 0.44348 0.99776 0.13675 0.0
H1175 H 0.41159 0.01514 0.12968 0.0
H1176 H 0.44356 0.01346 0.08746 0.0
H1177 H 0.46715 0.02266 0.07437 0.0
H1178 H 0.47128 0.06372 0.06613 0.0
H1179 H 0.44778 0.05481 0.07941 0.0
C1180 C 0.37027 0.00146 0.06578 0.0
C1181 C 0.37146 0.01197 0.05466 0.0
C1182 C 0.38122 0.00477 0.0771 0.0
C1183 C 0.3935 0.01875 0.07789 0.0
C1184 C 0.39472 0.02934 0.06687 0.0
C1185 C 0.38379 0.02598 0.05532 0.0
C1186 C 0.40528 0.02188 0.08961 0.0
C1187 C 0.41901 0.02748 0.08289 0.0
C1188 C 0.40269 0.01787 0.1069 0.0
C1189 C 0.38882 0.01321 0.11524 0.0
C1190 C 0.38274 0.02177 0.11428 0.0
C1191 C 0.36963 0.01729 0.12202 0.0
C1192 C 0.36251 0.00431 0.13085 0.0
C1193 C 0.3685 0.99578 0.13197 0.0
C1194 C 0.38161 0.0002 0.12424 0.0
C1195 C 0.46021 0.03468 0.13525 0.0
C1196 C 0.45798 0.02111 0.13968 0.0
C1197 C 0.45021 0.03547 0.12539 0.0
C1198 C 0.43773 0.02273 0.11997 0.0
C1199 C 0.4354 0.00922 0.12441 0.0
C1200 C 0.44546 0.0084 0.134 0.0
C1201 C 0.42705 0.02332 0.10952 0.0
C1202 C 0.41358 0.01845 0.11653 0.0
C1203 C 0.42993 0.02823 0.09264 0.0
C1204 C 0.44401 0.03354 0.08462 0.0
C1205 C 0.44956 0.0245 0.08301 0.0
C1206 C 0.4629 0.02965 0.07553 0.0
C1207 C 0.47073 0.04378 0.06948 0.0
C1208 C 0.46522 0.05278 0.07086 0.0
C1209 C 0.45189 0.04769 0.07835 0.0
H1210 H 0.48105 0.04775 0.06368 0.0
H1211 H 0.35235 0.00087 0.13683 0.0
H1212 H 0.36731 0.97283 -4e-05 0.0
H1213 H 0.37995 0.9673 0.97825 0.0
H1214 H 0.36908 0.98803 0.94057 0.0
H1215 H 0.35645 0.99367 0.9622 0.0
H1216 H 0.36717 0.96182 0.92871 0.0
H1217 H 0.39999 0.0072 0.9579 0.0
H1218 H 0.41167 0.02277 0.98326 0.0
H1219 H 0.42732 0.99559 0.99694 0.0
H1220 H 0.41554 0.97972 0.97177 0.0
H1221 H 0.42086 0.9784 0.86653 0.0
H1222 H 0.40376 0.97791 0.88708 0.0
H1223 H 0.42192 0.9654 0.92626 0.0
H1224 H 0.43931 0.96639 0.90586 0.0
H1225 H 0.41931 0.98623 0.9378 0.0
H1226 H 0.38795 0.94147 0.9081 0.0
H1227 H 0.37607 0.92536 0.88318 0.0
H1228 H 0.35743 0.95013 0.87084 0.0
H1229 H 0.36936 0.96652 0.89557 0.0
C1230 C 0.36742 0.97603 0.98701 0.0
C1231 C 0.36101 0.98382 0.98283 0.0
C1232 C 0.37466 0.97287 0.97464 0.0
C1233 C 0.37554 0.97739 0.95788 0.0
C1234 C 0.36851 0.98446 0.95345 0.0
C1235 C 0.36136 0.98773 0.96584 0.0
C1236 C 0.38474 0.97577 0.94532 0.0
C1237 C 0.37859 0.96722 0.93056 0.0
C1238 C 0.39957 0.98259 0.94801 0.0
C1239 C 0.40675 0.99219 0.96306 0.0
C1240 C 0.40582 0.00448 0.96639 0.0
C1241 C 0.41248 0.01337 0.98071 0.0
C1242 C 0.4202 0.01015 0.99173 0.0
C1243 C 0.42132 0.99806 0.98841 0.0
C1244 C 0.41466 0.98911 0.97412 0.0
C1245 C 0.42103 0.97535 0.87948 0.0
C1246 C 0.43139 0.97247 0.88466 0.0
C1247 C 0.41123 0.97501 0.8912 0.0
C1248 C 0.41144 0.97148 0.90822 0.0
C1249 C 0.42156 0.9682 0.91324 0.0
C1250 C 0.43148 0.96876 0.9016 0.0
C1251 C 0.40179 0.97215 0.92105 0.0
C1252 C 0.40787 0.98064 0.9359 0.0
C1253 C 0.38689 0.96516 0.91846 0.0
C1254 C 0.37966 0.9553 0.90361 0.0
C1255 C 0.38141 0.94355 0.90001 0.0
C1256 C 0.37465 0.93435 0.88593 0.0
C1257 C 0.36603 0.93674 0.87541 0.0
C1258 C 0.36412 0.9483 0.87899 0.0
C1259 C 0.37086 0.95754 0.89304 0.0
H1260 H 0.3608 0.92961 0.86452 0.0
H1261 H 0.42535 0.01705 0.00281 0.0
H1262 H 0.03612 0.38849 0.97311 0.0
H1263 H 0.03894 0.40685 0.95336 0.0
H1264 H 0.00411 0.3736 0.92306 0.0
H1265 H 0.00154 0.35516 0.9424 0.0
H1266 H 0.02329 0.3929 0.90293 0.0
H1267 H 0.99904 0.39431 0.95285 0.0
H1268 H 0.99523 0.39582 0.98359 0.0
H1269 H 0.03311 0.43836 0.98658 0.0
H1270 H 0.03724 0.43702 0.95583 0.0
H1271 H 0.99794 0.43566 0.86801 0.0
H1272 H -2e-05 0.41835 0.88532 0.0
H1273 H 0.04189 0.45247 0.90163 0.0
H1274 H 0.04001 0.46978 0.88404 0.0
H1275 H 0.02066 0.43381 0.92852 0.0
H1276 H 0.04249 0.43136 0.87568 0.0
H1277 H 0.04306 0.4283 0.84455 0.0
H1278 H 0.00548 0.38562 0.84703 0.0
H1279 H 0.00457 0.38851 0.87816 0.0
C1280 C 0.02922 0.38506 0.96208 0.0
C1281 C 0.01851 0.37039 0.95942 0.0
C1282 C 0.03079 0.39558 0.95085 0.0
C1283 C 0.02152 0.39165 0.93694 0.0
C1284 C 0.01135 0.37691 0.93374 0.0
C1285 C 0.00988 0.36637 0.94485 0.0
C1286 C 0.02183 0.40291 0.92631 0.0
C1287 C 0.02265 0.40179 0.90855 0.0
C1288 C 0.021 0.41456 0.9336 0.0
C1289 C 0.01854 0.41549 0.95208 0.0
C1290 C 0.00662 0.40394 0.96009 0.0
C1291 C 0.0044 0.40477 0.97751 0.0
C1292 C 0.01396 0.41714 0.98707 0.0
C1293 C 0.02574 0.42875 0.97918 0.0
C1294 C 0.02802 0.42798 0.96174 0.0
C1295 C 0.00758 0.43943 0.87528 0.0
C1296 C 0.01883 0.454 0.87472 0.0
C1297 C 0.00875 0.42956 0.88509 0.0
C1298 C 0.02109 0.43418 0.89468 0.0
C1299 C 0.0323 0.44875 0.89427 0.0
C1300 C 0.03124 0.45856 0.8842 0.0
C1301 C 0.02219 0.42376 0.90527 0.0
C1302 C 0.02152 0.42501 0.92299 0.0
C1303 C 0.02275 0.41203 0.89793 0.0
C1304 C 0.02339 0.41021 0.87924 0.0
C1305 C 0.03428 0.42137 0.86957 0.0
C1306 C 0.03468 0.41966 0.85193 0.0
C1307 C 0.02429 0.40679 0.84381 0.0
C1308 C 0.01351 0.39559 0.85333 0.0
C1309 C 0.01306 0.39725 0.87098 0.0
H1310 H 0.02461 0.40548 0.83015 0.0
H1311 H 0.01221 0.41774 0.00056 0.0
H1312 H 0.61369 0.65096 0.98777 0.0
H1313 H 0.59625 0.64037 0.96461 0.0
H1314 H 0.61406 0.61502 0.94762 0.0
H1315 H 0.63173 0.62588 0.97028 0.0
H1316 H 0.60929 0.62585 0.92145 0.0
H1317 H 0.58221 0.60058 0.97113 0.0
H1318 H 0.57238 0.59858 -2e-05 0.0
H1319 H 0.55076 0.61955 0.98392 0.0
H1320 H 0.56062 0.62183 0.95501 0.0
H1321 H 0.55338 0.56597 0.87676 0.0
H1322 H 0.57092 0.58202 0.89793 0.0
H1323 H 0.55259 0.60864 0.89977 0.0
H1324 H 0.53526 0.59296 0.87794 0.0
H1325 H 0.55729 0.60028 0.9324 0.0
H1326 H 0.58257 0.62234 0.88121 0.0
H1327 H 0.5919 0.62272 0.85244 0.0
H1328 H 0.61659 0.6061 0.87166 0.0
H1329 H 0.60724 0.60541 0.90051 0.0
C1330 C 0.61386 0.64312 0.97909 0.0
C1331 C 0.62407 0.63924 0.98087 0.0
C1332 C 0.60386 0.63704 0.96589 0.0
C1333 C 0.60375 0.62678 0.95445 0.0
C1334 C 0.61396 0.62295 0.95623 0.0
C1335 C 0.62404 0.62913 0.96925 0.0
C1336 C 0.59306 0.61995 0.94055 0.0
C1337 C 0.59792 0.62019 0.9239 0.0
C1338 C 0.57821 0.6129 0.94361 0.0
C1339 C 0.57229 0.61154 0.96098 0.0
C1340 C 0.57546 0.60487 0.97379 0.0
C1341 C 0.56986 0.60366 0.99014 0.0
C1342 C 0.56099 0.60898 0.99379 0.0
C1343 C 0.55766 0.61547 0.98108 0.0
C1344 C 0.56324 0.61672 0.96471 0.0
C1345 C 0.55321 0.57539 0.88133 0.0
C1346 C 0.54293 0.5782 0.87548 0.0
C1347 C 0.5632 0.5845 0.89355 0.0
C1348 C 0.56308 0.59653 0.90031 0.0
C1349 C 0.55282 0.59937 0.89468 0.0
C1350 C 0.54289 0.59035 0.88227 0.0
C1351 C 0.57358 0.60589 0.91351 0.0
C1352 C 0.56867 0.60614 0.92998 0.0
C1353 C 0.58838 0.61323 0.91034 0.0
C1354 C 0.59412 0.61373 0.89302 0.0
C1355 C 0.5899 0.61866 0.87929 0.0
C1356 C 0.59521 0.61895 0.86296 0.0
C1357 C 0.60481 0.61441 0.86022 0.0
C1358 C 0.60915 0.6096 0.8738 0.0
C1359 C 0.60386 0.60928 0.89015 0.0
H1360 H 0.60891 0.61464 0.84757 0.0
H1361 H 0.55667 0.60803 0.00646 0.0
H1362 H 0.01194 0.64913 0.9616 0.0
H1363 H 0.01591 0.63601 0.93863 0.0
H1364 H 0.01861 0.60869 0.9753 0.0
H1365 H 0.01498 0.62196 0.99837 0.0
H1366 H 0.03763 0.61513 0.95034 0.0
H1367 H 0.98748 0.59776 0.95415 0.0
H1368 H 0.96655 0.60027 0.95452 0.0
H1369 H 0.97686 0.6176 0.90433 0.0
H1370 H 0.99797 0.61536 0.90376 0.0
H1371 H 0.01665 0.55057 0.90313 0.0
H1372 H 0.01846 0.56914 0.9231 0.0
H1373 H 0.01792 0.59373 0.88125 0.0
H1374 H 0.01584 0.57499 0.86115 0.0
H1375 H -0.00045 0.59093 0.9067 0.0
H1376 H 0.04845 0.60548 0.902 0.0
H1377 H 0.06888 0.60218 0.90196 0.0
H1378 H 0.06055 0.58939 0.95408 0.0
H1379 H 0.03992 0.59241 0.95437 0.0
C1380 C 0.01356 0.64045 0.9648 0.0
C1381 C 0.01299 0.63648 0.9818 0.0
C1382 C 0.01578 0.63293 0.95165 0.0
C1383 C 0.01728 0.6212 0.95524 0.0
C1384 C 0.01743 0.61768 0.97224 0.0
C1385 C 0.01531 0.62526 0.98541 0.0
C1386 C 0.01787 0.61202 0.94131 0.0
C1387 C 0.02927 0.60977 0.94086 0.0
C1388 C 0.00711 0.60528 0.92871 0.0
C1389 C 0.99438 0.60655 0.92899 0.0
C1390 C 0.98534 0.6022 0.94324 0.0
C1391 C 0.97343 0.60356 0.94348 0.0
C1392 C 0.9704 0.60913 0.92948 0.0
C1393 C 0.97924 0.61331 0.91518 0.0
C1394 C 0.99117 0.612 0.91489 0.0
C1395 C 0.01686 0.5599 0.89818 0.0
C1396 C 0.01605 0.56131 0.88059 0.0
C1397 C 0.01804 0.57057 0.90958 0.0
C1398 C 0.01849 0.58288 0.90363 0.0
C1399 C 0.01767 0.58434 0.88608 0.0
C1400 C 0.01655 0.57368 0.87463 0.0
C1401 C 0.01921 0.59389 0.91587 0.0
C1402 C 0.00803 0.59646 0.91603 0.0
C1403 C 0.03012 0.60083 0.92825 0.0
C1404 C 0.04256 0.59907 0.92816 0.0
C1405 C 0.0509 0.60186 0.91342 0.0
C1406 C 0.06253 0.60006 0.91336 0.0
C1407 C 0.066 0.59555 0.928 0.0
C1408 C 0.05785 0.59288 0.94275 0.0
C1409 C 0.0462 0.59465 0.94287 0.0
H1410 H 0.075 0.59416 0.92793 0.0
H1411 H 0.96118 0.61018 0.92969 0.0
H1412 H 0.35199 0.36819 0.93965 0.0
H1413 H 0.36731 0.38809 0.92091 0.0
H1414 H 0.37597 0.41902 0.96185 0.0
H1415 H 0.36099 0.39908 0.98089 0.0
H1416 H 0.3681 0.41067 0.90878 0.0
H1417 H 0.41026 0.44709 0.95929 0.0
H1418 H 0.41928 0.44479 0.9868 0.0
H1419 H 0.40685 0.40098 0.97328 0.0
H1420 H 0.39795 0.4031 0.94561 0.0
H1421 H 0.41886 0.47772 0.87106 0.0
H1422 H 0.40146 0.45978 0.89067 0.0
H1423 H 0.42843 0.44253 0.89708 0.0
H1424 H 0.44607 0.46072 0.87805 0.0
H1425 H 0.41819 0.44467 0.92679 0.0
H1426 H 0.39923 0.42547 0.87117 0.0
H1427 H 0.3909 0.42581 0.84237 0.0
H1428 H 0.35829 0.43178 0.86372 0.0
H1429 H 0.36656 0.43167 0.89267 0.0
C1430 C 0.35704 0.37923 0.94466 0.0
C1431 C 0.3554 0.38205 0.96182 0.0
C1432 C 0.36577 0.39061 0.93389 0.0
C1433 C 0.37298 0.40504 0.94003 0.0
C1434 C 0.37075 0.40795 0.95692 0.0
C1435 C 0.36214 0.39654 0.96777 0.0
C1436 C 0.3834 0.41689 0.92896 0.0
C1437 C 0.37902 0.41817 0.91277 0.0
C1438 C 0.39773 0.42652 0.93401 0.0
C1439 C 0.4033 0.42521 0.95047 0.0
C1440 C 0.40951 0.43699 0.96217 0.0
C1441 C 0.41459 0.43571 0.97779 0.0
C1442 C 0.41359 0.42273 0.98181 0.0
C1443 C 0.40757 0.41102 0.97018 0.0
C1444 C 0.4025 0.41225 0.95453 0.0
C1445 C 0.42114 0.47019 0.87678 0.0
C1446 C 0.43382 0.4706 0.87291 0.0
C1447 C 0.41114 0.45987 0.88787 0.0
C1448 C 0.41359 0.44972 0.89522 0.0
C1449 C 0.42631 0.45023 0.89155 0.0
C1450 C 0.43631 0.46055 0.88051 0.0
C1451 C 0.40289 0.43845 0.90662 0.0
C1452 C 0.40721 0.43729 0.92288 0.0
C1453 C 0.38862 0.42868 0.90145 0.0
C1454 C 0.38361 0.42873 0.88407 0.0
C1455 C 0.39036 0.42697 0.86972 0.0
C1456 C 0.38564 0.42711 0.85337 0.0
C1457 C 0.3741 0.42886 0.85121 0.0
C1458 C 0.36724 0.43045 0.86541 0.0
C1459 C 0.37194 0.43035 0.88179 0.0
H1460 H 0.37046 0.42896 0.83854 0.0
H1461 H 0.4175 0.42175 0.99392 0.0
H1462 H 0.63332 0.00994 0.95998 0.0
H1463 H 0.61565 0.00618 0.93896 0.0
H1464 H 0.59681 0.95984 0.94087 0.0
H1465 H 0.61458 0.96349 0.9621 0.0
H1466 H 0.59917 0.97105 0.90694 0.0
H1467 H 0.58091 0.9723 0.96227 0.0
H1468 H 0.58201 0.98218 0.99121 0.0
H1469 H 0.58936 0.02181 0.97049 0.0
H1470 H 0.58853 0.01224 0.94141 0.0
H1471 H 0.53358 0.95693 0.86943 0.0
H1472 H 0.5517 0.95683 0.88691 0.0
H1473 H 0.57279 0.00324 0.89458 0.0
H1474 H 0.55487 0.00346 0.87703 0.0
H1475 H 0.56793 0.98936 0.92423 0.0
H1476 H 0.58725 0.98894 0.86922 0.0
H1477 H 0.58669 0.97967 0.84006 0.0
H1478 H 0.57767 0.93911 0.85971 0.0
H1479 H 0.57797 0.94806 0.889 0.0
C1480 C 0.62552 0.99893 0.95588 0.0
C1481 C 0.62526 0.987 0.96286 0.0
C1482 C 0.61543 0.99682 0.94384 0.0
C1483 C 0.60487 0.98274 0.93853 0.0
C1484 C 0.6049 0.97079 0.94486 0.0
C1485 C 0.61501 0.97289 0.95701 0.0
C1486 C 0.59335 0.98071 0.92721 0.0
C1487 C 0.59214 0.9748 0.91077 0.0
C1488 C 0.5844 0.98585 0.93218 0.0
C1489 C 0.58477 0.99159 0.94966 0.0
C1490 C 0.58287 0.98316 0.96388 0.0
C1491 C 0.58343 0.9887 0.98031 0.0
C1492 C 0.58578 0.00263 0.98269 0.0
C1493 C 0.58755 0.01103 0.96863 0.0
C1494 C 0.58702 0.00555 0.95217 0.0
C1495 C 0.54222 0.96714 0.8746 0.0
C1496 C 0.54274 0.9802 0.87197 0.0
C1497 C 0.55255 0.96706 0.88459 0.0
C1498 C 0.56357 0.98003 0.89204 0.0
C1499 C 0.56431 0.9931 0.88904 0.0
C1500 C 0.55403 0.9932 0.87907 0.0
C1501 C 0.5739 0.97998 0.90378 0.0
C1502 C 0.57485 0.98547 0.92038 0.0
C1503 C 0.5826 0.97449 0.89889 0.0
C1504 C 0.58246 0.96911 0.8813 0.0
C1505 C 0.58501 0.97799 0.86732 0.0
C1506 C 0.58477 0.97281 0.85077 0.0
C1507 C 0.5821 0.9588 0.84803 0.0
C1508 C 0.57971 0.94995 0.86185 0.0
C1509 C 0.57993 0.95508 0.87843 0.0
H1510 H 0.58192 0.95481 0.83521 0.0
H1511 H 0.58621 0.0069 0.99542 0.0
H1512 H 0.65124 0.03193 0.04075 0.0
H1513 H 0.6368 0.03589 0.06158 0.0
H1514 H 0.6066 0.9897 0.06271 0.0
H1515 H 0.62083 0.98564 0.04203 0.0
H1516 H 0.59368 0.00508 0.05868 0.0
H1517 H 0.62953 0.00672 0.09492 0.0
H1518 H 0.6541 0.01596 0.10445 0.0
H1519 H 0.66097 0.05856 0.11231 0.0
H1520 H 0.63648 0.04961 0.1026 0.0
H1521 H 0.55108 0.99455 0.13003 0.0
H1522 H 0.56809 0.99454 0.10997 0.0
H1523 H 0.59556 0.04098 0.11669 0.0
H1524 H 0.57882 0.041 0.13744 0.0
H1525 H 0.61085 0.02825 0.11571 0.0
H1526 H 0.5747 0.02655 0.08147 0.0
H1527 H 0.55023 0.01763 0.07186 0.0
H1528 H 0.54408 0.97584 0.05965 0.0
H1529 H 0.56846 0.98444 0.06942 0.0
C1530 C 0.64156 0.02262 0.04551 0.0
C1531 C 0.63718 0.00847 0.0397 0.0
C1532 C 0.63335 0.0249 0.05743 0.0
C1533 C 0.62064 0.01308 0.0637 0.0
C1534 C 0.61634 0.99897 0.058 0.0
C1535 C 0.62453 0.99668 0.0462 0.0
C1536 C 0.61152 0.01524 0.07589 0.0
C1537 C 0.59739 0.01003 0.07121 0.0
C1538 C 0.61653 0.02215 0.09199 0.0
C1539 C 0.63124 0.02753 0.09784 0.0
C1540 C 0.63632 0.01809 0.09853 0.0
C1541 C 0.65022 0.02327 0.104 0.0
C1542 C 0.6591 0.03785 0.10893 0.0
C1543 C 0.65409 0.04728 0.10845 0.0
C1544 C 0.6402 0.04215 0.10297 0.0
C1545 C 0.56083 0.00475 0.12747 0.0
C1546 C 0.56356 0.01779 0.13535 0.0
C1547 C 0.57048 0.00475 0.11583 0.0
C1548 C 0.58299 0.01779 0.1116 0.0
C1549 C 0.58593 0.0308 0.11968 0.0
C1550 C 0.57629 0.03081 0.13142 0.0
C1551 C 0.59288 0.01776 0.09865 0.0
C1552 C 0.60716 0.02341 0.10314 0.0
C1553 C 0.58804 0.01132 0.08229 0.0
C1554 C 0.57338 0.00612 0.07631 0.0
C1555 C 0.5681 0.01543 0.07685 0.0
C1556 C 0.55425 0.01043 0.07136 0.0
C1557 C 0.54559 0.99617 0.06518 0.0
C1558 C 0.55079 0.98688 0.06445 0.0
C1559 C 0.56463 0.99182 0.06995 0.0
H1560 H 0.53487 0.99232 0.06093 0.0
H1561 H 0.66986 0.04184 0.11316 0.0
H1562 H 0.97792 0.61718 0.03683 0.0
H1563 H 0.97398 0.59966 0.05827 0.0
H1564 H 0.97662 0.62937 0.09784 0.0
H1565 H 0.98089 0.64717 0.0764 0.0
H1566 H 0.99331 0.61965 0.10497 0.0
H1567 H 0.94483 0.59745 0.08865 0.0
H1568 H 0.92435 0.58756 0.06912 0.0
H1569 H 0.93287 0.55528 0.05048 0.0
H1570 H 0.95353 0.56509 0.06972 0.0
H1571 H 0.97963 0.56609 0.16603 0.0
H1572 H 0.97641 0.58286 0.14922 0.0
H1573 H 0.97714 0.56078 0.10308 0.0
H1574 H 0.98006 0.54385 0.11977 0.0
H1575 H 0.95617 0.56711 0.10257 0.0
H1576 H 0.00651 0.59184 0.11613 0.0
H1577 H 0.02705 0.60182 0.1356 0.0
H1578 H 0.01456 0.62948 0.15964 0.0
H1579 H 0.99383 0.61951 0.14043 0.0
C1580 C 0.97744 0.61993 0.05006 0.0
C1581 C 0.97979 0.63361 0.0549 0.0
C1582 C 0.9751 0.60984 0.06233 0.0
C1583 C 0.97488 0.61314 0.07968 0.0
C1584 C 0.97673 0.62659 0.08453 0.0
C1585 C 0.97913 0.63673 0.07225 0.0
C1586 C 0.97396 0.60301 0.09268 0.0
C1587 C 0.98499 0.60822 0.10469 0.0
C1588 C 0.96325 0.58806 0.09216 0.0
C1589 C 0.9508 0.58208 0.08057 0.0
C1590 C 0.9424 0.5883 0.0803 0.0
C1591 C 0.93075 0.5827 0.06929 0.0
C1592 C 0.92732 0.57081 0.05855 0.0
C1593 C 0.93554 0.56449 0.05881 0.0
C1594 C 0.94721 0.57005 0.06978 0.0
C1595 C 0.97896 0.56474 0.15231 0.0
C1596 C 0.98021 0.55374 0.1442 0.0
C1597 C 0.97719 0.57435 0.14274 0.0
C1598 C 0.97664 0.57311 0.12491 0.0
C1599 C 0.97754 0.56193 0.11683 0.0
C1600 C 0.97936 0.55236 0.12637 0.0
C1601 C 0.97565 0.58373 0.11451 0.0
C1602 C 0.9643 0.5786 0.10301 0.0
C1603 C 0.98604 0.59877 0.11551 0.0
C1604 C 0.99853 0.60481 0.12699 0.0
C1605 C 0.00808 0.59996 0.12566 0.0
C1606 C 0.01977 0.60563 0.13663 0.0
C1607 C 0.02208 0.61624 0.14889 0.0
C1608 C 0.01274 0.62124 0.15016 0.0
C1609 C 0.00102 0.61559 0.13923 0.0
H1610 H 0.03113 0.62062 0.15737 0.0
H1611 H 0.91829 0.56649 0.05003 0.0
H1612 H 0.36288 0.36098 0.05469 0.0
H1613 H 0.38019 0.36947 0.07784 0.0
H1614 H 0.41451 0.39176 0.0419 0.0
H1615 H 0.39728 0.3831 0.01861 0.0
H1616 H 0.42117 0.37879 0.06566 0.0
H1617 H 0.40213 0.4099 0.06497 0.0
H1618 H 0.38309 0.41535 0.06563 0.0
H1619 H 0.36964 0.39607 0.11463 0.0
H1620 H 0.3885 0.39033 0.11415 0.0
H1621 H 0.47643 0.43591 0.11474 0.0
H1622 H 0.45761 0.4198 0.0947 0.0
H1623 H 0.42823 0.40007 0.13638 0.0
H1624 H 0.44704 0.41639 0.15653 0.0
H1625 H 0.41763 0.40884 0.11189 0.0
H1626 H 0.43911 0.38069 0.11389 0.0
H1627 H 0.4587 0.37606 0.11304 0.0
H1628 H 0.46815 0.39046 0.06156 0.0
H1629 H 0.44875 0.39538 0.06217 0.0
C1630 C 0.37412 0.36761 0.05169 0.0
C1631 C 0.37871 0.37148 0.03483 0.0
C1632 C 0.38399 0.37247 0.06494 0.0
C1633 C 0.39862 0.38141 0.06161 0.0
C1634 C 0.40326 0.38488 0.04474 0.0
C1635 C 0.3934 0.37997 0.03146 0.0
C1636 C 0.40907 0.38771 0.07575 0.0
C1637 C 0.42046 0.38544 0.07572 0.0
C1638 C 0.40793 0.39606 0.08911 0.0
C1639 C 0.39661 0.39953 0.08943 0.0
C1640 C 0.39504 0.40672 0.07582 0.0
C1641 C 0.38429 0.40988 0.07617 0.0
C1642 C 0.37513 0.40601 0.09014 0.0
C1643 C 0.37673 0.39902 0.1038 0.0
C1644 C 0.38744 0.39582 0.1035 0.0
C1645 C 0.46599 0.42804 0.11964 0.0
C1646 C 0.46315 0.42745 0.13717 0.0
C1647 C 0.45529 0.41875 0.1082 0.0
C1648 C 0.44155 0.40867 0.11406 0.0
C1649 C 0.43879 0.40774 0.13161 0.0
C1650 C 0.44954 0.41699 0.1431 0.0
C1651 C 0.42986 0.40011 0.1017 0.0
C1652 C 0.41823 0.40199 0.10201 0.0
C1653 C 0.43085 0.39148 0.08858 0.0
C1654 C 0.44252 0.3885 0.08812 0.0
C1655 C 0.44543 0.38298 0.10243 0.0
C1656 C 0.45649 0.38028 0.10198 0.0
C1657 C 0.46468 0.38299 0.08726 0.0
C1658 C 0.4618 0.38837 0.07295 0.0
C1659 C 0.45076 0.3911 0.07333 0.0
H1660 H 0.47323 0.38089 0.08694 0.0
H1661 H 0.36682 0.40847 0.09039 0.0
H1662 H 0.64924 0.71947 0.35071 0.0
H1663 H 0.64286 0.73162 0.37245 0.0
H1664 H 0.65726 0.71522 0.41163 0.0
H1665 H 0.66335 0.70276 0.39001 0.0
H1666 H 0.63279 0.71299 0.42061 0.0
H1667 H 0.67793 0.75029 0.39803 0.0
H1668 H 0.69444 0.76471 0.37508 0.0
H1669 H 0.66699 0.7798 0.36156 0.0
H1670 H 0.6502 0.76529 0.38428 0.0
H1671 H 0.642 0.76113 0.48909 0.0
H1672 H 0.64541 0.74742 0.46634 0.0
H1673 H 0.62985 0.76465 0.42964 0.0
H1674 H 0.62681 0.77874 0.45227 0.0
H1675 H 0.6538 0.76623 0.41864 0.0
H1676 H 0.60916 0.72978 0.44205 0.0
H1677 H 0.59246 0.71507 0.4647 0.0
H1678 H 0.61885 0.69831 0.4766 0.0
H1679 H 0.63582 0.71309 0.45416 0.0
C1680 C 0.65101 0.7184 0.36395 0.0
C1681 C 0.65687 0.71021 0.36863 0.0
C1682 C 0.6474 0.7254 0.37636 0.0
C1683 C 0.64976 0.72448 0.39365 0.0
C1684 C 0.65536 0.71608 0.39836 0.0
C1685 C 0.65888 0.70901 0.38598 0.0
C1686 C 0.64664 0.73246 0.40686 0.0
C1687 C 0.6375 0.72465 0.42029 0.0
C1688 C 0.65252 0.74763 0.40619 0.0
C1689 C 0.66275 0.75659 0.39275 0.0
C1690 C 0.67538 0.75662 0.3901 0.0
C1691 C 0.68479 0.76481 0.37714 0.0
C1692 C 0.68175 0.77313 0.36684 0.0
C1693 C 0.66932 0.77333 0.36953 0.0
C1694 C 0.65986 0.76513 0.38246 0.0
C1695 C 0.63934 0.76203 0.47617 0.0
C1696 C 0.63411 0.77101 0.47249 0.0
C1697 C 0.64118 0.75409 0.46321 0.0
C1698 C 0.63775 0.75491 0.44632 0.0
C1699 C 0.63251 0.76383 0.4426 0.0
C1700 C 0.63066 0.77176 0.45556 0.0
C1701 C 0.64003 0.74677 0.43249 0.0
C1702 C 0.64903 0.75455 0.41893 0.0
C1703 C 0.63403 0.73158 0.43305 0.0
C1704 C 0.62382 0.72265 0.44652 0.0
C1705 C 0.61146 0.72305 0.44958 0.0
C1706 C 0.60194 0.71468 0.46237 0.0
C1707 C 0.60461 0.70579 0.47211 0.0
C1708 C 0.6168 0.70522 0.46905 0.0
C1709 C 0.62637 0.71357 0.45629 0.0
H1710 H 0.59722 0.69932 0.482 0.0
H1711 H 0.68903 0.77945 0.35679 0.0
H1712 H 0.29413 0.94516 0.37612 0.0
H1713 H 0.27998 0.92769 0.39788 0.0
H1714 H 0.30918 0.9567 0.43657 0.0
H1715 H 0.32356 0.97431 0.41477 0.0
H1716 H 0.30036 0.92775 0.44158 0.0
H1717 H 0.27915 0.9556 0.43164 0.0
H1718 H 0.26931 0.9669 0.41432 0.0
H1719 H 0.23659 0.92484 0.39549 0.0
H1720 H 0.24636 0.91329 0.4125 0.0
H1721 H 0.24985 0.88898 0.50838 0.0
H1722 H 0.26743 0.90788 0.4897 0.0
H1723 H 0.24099 0.8847 0.44619 0.0
H1724 H 0.22347 0.86588 0.46471 0.0
H1725 H 0.24953 0.91272 0.44583 0.0
H1726 H 0.27157 0.885 0.45458 0.0
H1727 H 0.28152 0.87372 0.47174 0.0
H1728 H 0.31259 0.91551 0.493 0.0
H1729 H 0.3027 0.92703 0.47613 0.0
C1730 C 0.29765 0.94782 0.38922 0.0
C1731 C 0.30992 0.9612 0.39372 0.0
C1732 C 0.28951 0.93782 0.40166 0.0
C1733 C 0.29342 0.941 0.41885 0.0
C1734 C 0.30597 0.95407 0.42336 0.0
C1735 C 0.31414 0.96413 0.4109 0.0
C1736 C 0.284 0.93087 0.43207 0.0
C1737 C 0.2893 0.92461 0.44272 0.0
C1738 C 0.26955 0.92669 0.4334 0.0
C1739 C 0.26356 0.93359 0.42324 0.0
C1740 C 0.26992 0.94876 0.42371 0.0
C1741 C 0.26435 0.95521 0.41396 0.0
C1742 C 0.25235 0.94659 0.40378 0.0
C1743 C 0.24588 0.9315 0.40337 0.0
C1744 C 0.25143 0.925 0.41307 0.0
C1745 C 0.24789 0.88786 0.49481 0.0
C1746 C 0.23523 0.87601 0.48802 0.0
C1747 C 0.25793 0.89866 0.48416 0.0
C1748 C 0.25554 0.89768 0.46654 0.0
C1749 C 0.24302 0.88573 0.45975 0.0
C1750 C 0.23299 0.875 0.47036 0.0
C1751 C 0.26575 0.90927 0.45508 0.0
C1752 C 0.2606 0.91589 0.44479 0.0
C1753 C 0.28032 0.91376 0.45413 0.0
C1754 C 0.28629 0.90685 0.46424 0.0
C1755 C 0.28045 0.89177 0.46302 0.0
C1756 C 0.28609 0.88533 0.47267 0.0
C1757 C 0.29766 0.89389 0.48349 0.0
C1758 C 0.30362 0.9089 0.48464 0.0
C1759 C 0.29801 0.91539 0.47503 0.0
H1760 H 0.30201 0.88888 0.49095 0.0
H1761 H 0.24805 0.95161 0.39624 0.0
H1762 H 0.06489 0.37208 0.36737 0.0
H1763 H 0.08527 0.37963 0.38593 0.0
H1764 H 0.0579 0.36792 0.42988 0.0
H1765 H 0.0374 0.36049 0.4114 0.0
H1766 H 0.08419 0.39344 0.43515 0.0
H1767 H 0.06611 0.34442 0.41382 0.0
H1768 H 0.05854 0.32572 0.39099 0.0
H1769 H 0.10037 0.34935 0.36898 0.0
H1770 H 0.10814 0.36829 0.39159 0.0
H1771 H 0.12665 0.384 0.49447 0.0
H1772 H 0.10809 0.38225 0.47608 0.0
H1773 H 0.13437 0.38852 0.43206 0.0
H1774 H 0.15277 0.38992 0.45039 0.0
H1775 H 0.10894 0.36662 0.42634 0.0
H1776 H 0.12781 0.41509 0.44765 0.0
H1777 H 0.13572 0.4347 0.46936 0.0
H1778 H 0.0935 0.41348 0.49032 0.0
H1779 H 0.08537 0.39363 0.46887 0.0
C1780 C 0.0632 0.37125 0.38099 0.0
C1781 C 0.04948 0.36553 0.3879 0.0
C1782 C 0.07487 0.37556 0.39158 0.0
C1783 C 0.07304 0.37411 0.40925 0.0
C1784 C 0.05951 0.36908 0.41626 0.0
C1785 C 0.04781 0.36479 0.40567 0.0
C1786 C 0.08505 0.37695 0.42027 0.0
C1787 C 0.08954 0.3875 0.43338 0.0
C1788 C 0.09221 0.36942 0.41764 0.0
C1789 C 0.08766 0.35783 0.40431 0.0
C1790 C 0.07367 0.34566 0.40407 0.0
C1791 C 0.06935 0.33501 0.39118 0.0
C1792 C 0.07896 0.33636 0.37852 0.0
C1793 C 0.09294 0.34832 0.37879 0.0
C1794 C 0.09731 0.35901 0.39165 0.0
C1795 C 0.12853 0.38525 0.48089 0.0
C1796 C 0.14111 0.38705 0.47383 0.0
C1797 C 0.11794 0.38427 0.47039 0.0
C1798 C 0.11986 0.38535 0.45267 0.0
C1799 C 0.13262 0.38759 0.44568 0.0
C1800 C 0.14312 0.3884 0.45614 0.0
C1801 C 0.10823 0.38321 0.44131 0.0
C1802 C 0.10372 0.37269 0.42813 0.0
C1803 C 0.10117 0.39087 0.44382 0.0
C1804 C 0.10601 0.4028 0.45674 0.0
C1805 C 0.12024 0.41454 0.45697 0.0
C1806 C 0.12476 0.42571 0.46922 0.0
C1807 C 0.11513 0.42532 0.48124 0.0
C1808 C 0.10095 0.41376 0.48101 0.0
C1809 C 0.09637 0.40255 0.4688 0.0
H1810 H 0.11865 0.43398 0.49071 0.0
H1811 H 0.07558 0.32813 0.36853 0.0
H1812 H 0.0478 0.31765 0.33878 0.0
H1813 H 0.05683 0.3072 0.31813 0.0
H1814 H 0.03915 0.31849 0.2772 0.0
H1815 H 0.02979 0.32871 0.29781 0.0
H1816 H 0.03609 0.29207 0.2713 0.0
H1817 H 0.07394 0.34046 0.28784 0.0
H1818 H 0.08923 0.35982 0.30866 0.0
H1819 H 0.10445 0.33355 0.32726 0.0
H1820 H 0.08912 0.31395 0.30667 0.0
H1821 H 0.08149 0.29453 0.20383 0.0
H1822 H 0.06723 0.29854 0.22482 0.0
H1823 H 0.08712 0.2893 0.26522 0.0
H1824 H 0.10149 0.28549 0.24432 0.0
H1825 H 0.08844 0.31381 0.27178 0.0
H1826 H 0.05171 0.26586 0.25415 0.0
H1827 H 0.0361 0.24624 0.2338 0.0
H1828 H 0.01864 0.27115 0.21743 0.0
H1829 H 0.0343 0.29102 0.23753 0.0
C1830 C 0.04569 0.31779 0.3254 0.0
C1831 C 0.03822 0.32417 0.31992 0.0
C1832 C 0.05088 0.31182 0.31361 0.0
C1833 C 0.04887 0.3123 0.29612 0.0
C1834 C 0.04085 0.31805 0.29064 0.0
C1835 C 0.03556 0.32394 0.30244 0.0
C1836 C 0.0559 0.30766 0.28353 0.0
C1837 C 0.04755 0.29689 0.27127 0.0
C1838 C 0.07081 0.31379 0.28372 0.0
C1839 C 0.08029 0.3257 0.29582 0.0
C1840 C 0.0805 0.33879 0.29642 0.0
C1841 C 0.08918 0.3498 0.30818 0.0
C1842 C 0.09777 0.3479 0.31931 0.0
C1843 C 0.09777 0.335 0.31864 0.0
C1844 C 0.08911 0.32395 0.30692 0.0
C1845 C 0.08259 0.29308 0.21717 0.0
C1846 C 0.09265 0.28981 0.22248 0.0
C1847 C 0.07444 0.29535 0.22916 0.0
C1848 C 0.07608 0.29419 0.24661 0.0
C1849 C 0.08572 0.29033 0.25184 0.0
C1850 C 0.09393 0.28817 0.2399 0.0
C1851 C 0.06865 0.29809 0.25952 0.0
C1852 C 0.07696 0.30885 0.27182 0.0
C1853 C 0.05372 0.29192 0.25933 0.0
C1854 C 0.04428 0.27999 0.24724 0.0
C1855 C 0.04463 0.26721 0.24612 0.0
C1856 C 0.03576 0.25603 0.23464 0.0
C1857 C 0.02641 0.25746 0.2243 0.0
C1858 C 0.0259 0.27006 0.22544 0.0
C1859 C 0.03476 0.28128 0.23688 0.0
H1860 H 0.01955 0.24879 0.21543 0.0
H1861 H 0.10446 0.35642 0.32843 0.0
H1862 H 0.70387 0.72454 0.31092 0.0
H1863 H 0.71083 0.74339 0.28995 0.0
H1864 H 0.67927 0.71154 0.25507 0.0
H1865 H 0.67292 0.69255 0.27563 0.0
H1866 H 0.70043 0.72969 0.23751 0.0
H1867 H 0.67344 0.7347 0.28223 0.0
H1868 H 0.6673 0.73741 0.31181 0.0
H1869 H 0.70705 0.77812 0.31719 0.0
H1870 H 0.71353 0.77554 0.28771 0.0
H1871 H 0.68537 0.77796 0.19438 0.0
H1872 H 0.684 0.75919 0.21252 0.0
H1873 H 0.72506 0.79048 0.23398 0.0
H1874 H 0.72661 0.80922 0.21558 0.0
H1875 H 0.70062 0.77353 0.2579 0.0
H1876 H 0.72558 0.76771 0.21028 0.0
H1877 H 0.72873 0.76411 0.17982 0.0
H1878 H 0.68854 0.72356 0.1791 0.0
H1879 H 0.68507 0.72701 0.20953 0.0
C1880 C 0.6986 0.72156 0.29866 0.0
C1881 C 0.6878 0.70713 0.29491 0.0
C1882 C 0.70251 0.73234 0.28672 0.0
C1883 C 0.6953 0.72899 0.27108 0.0
C1884 C 0.68496 0.71444 0.26705 0.0
C1885 C 0.68132 0.70358 0.27881 0.0
C1886 C 0.69797 0.74069 0.25934 0.0
C1887 C 0.70037 0.73921 0.242 0.0
C1888 C 0.69795 0.7532 0.26511 0.0
C1889 C 0.69404 0.75484 0.28282 0.0
C1890 C 0.68092 0.74418 0.28976 0.0
C1891 C 0.67737 0.7457 0.3065 0.0
C1892 C 0.6868 0.75791 0.31639 0.0
C1893 C 0.69977 0.76865 0.30953 0.0
C1894 C 0.70339 0.76717 0.2928 0.0
C1895 C 0.69414 0.78075 0.20286 0.0
C1896 C 0.7061 0.79497 0.20364 0.0
C1897 C 0.69337 0.77006 0.21314 0.0
C1898 C 0.70444 0.7735 0.22452 0.0
C1899 C 0.71645 0.78766 0.22522 0.0
C1900 C 0.71735 0.79829 0.21469 0.0
C1901 C 0.70309 0.76246 0.23628 0.0
C1902 C 0.70084 0.76406 0.25357 0.0
C1903 C 0.70283 0.74989 0.23038 0.0
C1904 C 0.70502 0.74768 0.21216 0.0
C1905 C 0.71737 0.75807 0.2036 0.0
C1906 C 0.71922 0.75605 0.18635 0.0
C1907 C 0.70883 0.74363 0.17752 0.0
C1908 C 0.69658 0.73318 0.18595 0.0
C1909 C 0.69468 0.73515 0.20321 0.0
H1910 H 0.71029 0.74208 0.16416 0.0
H1911 H 0.68403 0.75906 0.32935 0.0
H1912 H 0.2932 0.96119 0.30418 0.0
H1913 H 0.2756 0.95104 0.28136 0.0
H1914 H 0.26911 0.98682 0.28746 0.0
H1915 H 0.28681 0.99713 0.31042 0.0
H1916 H 0.24375 0.95975 0.28545 0.0
H1917 H 0.28688 0.98636 0.25397 0.0
H1918 H 0.31159 0.99453 0.24581 0.0
H1919 H 0.29869 0.95084 0.23103 0.0
H1920 H 0.27393 0.94235 0.23935 0.0
H1921 H 0.19815 0.93226 0.21272 0.0
H1922 H 0.21789 0.94928 0.23138 0.0
H1923 H 0.23361 0.92032 0.23066 0.0
H1924 H 0.21426 0.90356 0.21165 0.0
H1925 H 0.25512 0.94792 0.22832 0.0
H1926 H 0.21327 0.9209 0.26356 0.0
H1927 H 0.18857 0.91203 0.27255 0.0
H1928 H 0.19913 0.95595 0.28081 0.0
H1929 H 0.22386 0.96508 0.27164 0.0
C1930 C 0.28807 0.96694 0.30069 0.0
C1931 C 0.29142 0.97998 0.30911 0.0
C1932 C 0.27806 0.96116 0.28757 0.0
C1933 C 0.27118 0.96827 0.28262 0.0
C1934 C 0.27437 0.98122 0.29107 0.0
C1935 C 0.2845 0.9871 0.30414 0.0
C1936 C 0.26039 0.96184 0.26888 0.0
C1937 C 0.24627 0.95744 0.27283 0.0
C1938 C 0.26368 0.95864 0.25253 0.0
C1939 C 0.27855 0.9637 0.2474 0.0
C1940 C 0.28933 0.97847 0.2491 0.0
C1941 C 0.30334 0.98316 0.24442 0.0
C1942 C 0.30671 0.97321 0.23793 0.0
C1943 C 0.29607 0.95854 0.23606 0.0
C1944 C 0.28203 0.95378 0.24074 0.0
C1945 C 0.20594 0.92964 0.21635 0.0
C1946 C 0.20457 0.9165 0.21087 0.0
C1947 C 0.21715 0.93932 0.2271 0.0
C1948 C 0.22711 0.93597 0.23258 0.0
C1949 C 0.22602 0.9231 0.22664 0.0
C1950 C 0.21487 0.91346 0.21591 0.0
C1951 C 0.23841 0.9455 0.24502 0.0
C1952 C 0.25263 0.95047 0.24083 0.0
C1953 C 0.2352 0.94915 0.26118 0.0
C1954 C 0.22035 0.94367 0.26671 0.0
C1955 C 0.21029 0.92866 0.26716 0.0
C1956 C 0.19629 0.92359 0.27231 0.0
C1957 C 0.19227 0.93342 0.27719 0.0
C1958 C 0.20225 0.94835 0.27698 0.0
C1959 C 0.21626 0.95348 0.27181 0.0
H1960 H 0.18143 0.92947 0.28118 0.0
H1961 H 0.31757 0.97687 0.23432 0.0
H1962 H 0.67178 0.97136 0.29694 0.0
H1963 H 0.67757 0.95975 0.27387 0.0
H1964 H 0.6933 0.94255 0.31039 0.0
H1965 H 0.68727 0.95387 0.33356 0.0
H1966 H 0.70108 0.96096 0.26206 0.0
H1967 H 0.68321 0.90828 0.29817 0.0
H1968 H 0.66682 0.89404 0.32133 0.0
H1969 H 0.64046 0.91101 0.31031 0.0
H1970 H 0.65658 0.9252 0.28696 0.0
H1971 H 0.72093 0.9158 0.21738 0.0
H1972 H 0.71741 0.93089 0.23813 0.0
H1973 H 0.67186 0.90312 0.23192 0.0
H1974 H 0.67532 0.88799 0.21126 0.0
H1975 H 0.67856 0.90751 0.26438 0.0
H1976 H 0.69029 0.93727 0.21572 0.0
H1977 H 0.70468 0.9511 0.19111 0.0
H1978 H 0.73967 0.97916 0.22427 0.0
H1979 H 0.72555 0.96537 0.24907 0.0
C1980 C 0.67659 0.96521 0.30007 0.0
C1981 C 0.6789 0.96337 0.3171 0.0
C1982 C 0.67994 0.95864 0.28685 0.0
C1983 C 0.68567 0.95012 0.29044 0.0
C1984 C 0.68866 0.94888 0.30737 0.0
C1985 C 0.68523 0.95537 0.3206 0.0
C1986 C 0.68768 0.94182 0.27657 0.0
C1987 C 0.69621 0.94928 0.26257 0.0
C1988 C 0.68106 0.92655 0.27708 0.0
C1989 C 0.67119 0.91791 0.29095 0.0
C1990 C 0.67389 0.90893 0.30066 0.0
C1991 C 0.66465 0.90087 0.31382 0.0
C1992 C 0.65263 0.90166 0.31733 0.0
C1993 C 0.6498 0.91046 0.30763 0.0
C1994 C 0.65899 0.91852 0.29444 0.0
C1995 C 0.71018 0.91306 0.22026 0.0
C1996 C 0.6984 0.90068 0.21278 0.0
C1997 C 0.70818 0.92168 0.23211 0.0
C1998 C 0.69437 0.91815 0.23654 0.0
C1999 C 0.68261 0.90599 0.22877 0.0
C2000 C 0.6846 0.89735 0.217 0.0
C2001 C 0.69208 0.92664 0.24989 0.0
C2002 C 0.6835 0.9192 0.26386 0.0
C2003 C 0.69839 0.94186 0.24912 0.0
C2004 C 0.7069 0.9502 0.23424 0.0
C2005 C 0.70109 0.94632 0.21776 0.0
C2006 C 0.70919 0.95416 0.20377 0.0
C2007 C 0.72309 0.96598 0.20612 0.0
C2008 C 0.72891 0.96999 0.22247 0.0
C2009 C 0.72085 0.96218 0.2365 0.0
H2010 H 0.72935 0.97204 0.19528 0.0
H2011 H 0.6455 0.89543 0.32753 0.0
H2012 H 0.00494 0.70247 0.27548 0.0
H2013 H 0.017 0.72189 0.25493 0.0
H2014 H 0.04229 0.75199 0.29533 0.0
H2015 H 0.03017 0.73276 0.31596 0.0
H2016 H 0.03394 0.76459 0.27324 0.0
H2017 H 0.05536 0.73554 0.2702 0.0
H2018 H 0.05532 0.71287 0.26619 0.0
H2019 H 0.03852 0.70735 0.21576 0.0
H2020 H 0.03829 0.72991 0.21957 0.0
H2021 H 0.09711 0.81817 0.23353 0.0
H2022 H 0.07868 0.7984 0.25037 0.0
H2023 H 0.05739 0.77464 0.20432 0.0
H2024 H 0.076 0.79433 0.18736 0.0
H2025 H 0.06085 0.75794 0.22657 0.0
H2026 H 0.04264 0.78918 0.22866 0.0
H2027 H 0.04349 0.81224 0.23295 0.0
H2028 H 0.05487 0.81407 0.28533 0.0
H2029 H 0.0543 0.79112 0.2813 0.0
C2030 C 0.01297 0.71326 0.28002 0.0
C2031 C 0.01668 0.71604 0.29734 0.0
C2032 C 0.01988 0.72433 0.26825 0.0
C2033 C 0.03067 0.73834 0.27358 0.0
C2034 C 0.034 0.74126 0.29094 0.0
C2035 C 0.02709 0.73023 0.30271 0.0
C2036 C 0.03903 0.74983 0.26108 0.0
C2037 C 0.03989 0.76318 0.26308 0.0
C2038 C 0.04649 0.74785 0.24756 0.0
C2039 C 0.04665 0.73431 0.24525 0.0
C2040 C 0.05155 0.72943 0.25831 0.0
C2041 C 0.05159 0.71661 0.25606 0.0
C2042 C 0.04687 0.70865 0.24075 0.0
C2043 C 0.04214 0.71351 0.22763 0.0
C2044 C 0.04206 0.72631 0.22982 0.0
C2045 C 0.08848 0.80875 0.22699 0.0
C2046 C 0.08802 0.80776 0.20913 0.0
C2047 C 0.07788 0.79753 0.23662 0.0
C2048 C 0.06659 0.78511 0.22859 0.0
C2049 C 0.06598 0.78416 0.21076 0.0
C2050 C 0.07656 0.79544 0.2011 0.0
C2051 C 0.05597 0.7728 0.23891 0.0
C2052 C 0.05472 0.7593 0.23653 0.0
C2053 C 0.04821 0.77468 0.25212 0.0
C2054 C 0.04852 0.78847 0.25464 0.0
C2055 C 0.04543 0.79455 0.24106 0.0
C2056 C 0.04585 0.8076 0.24345 0.0
C2057 C 0.04926 0.81463 0.25939 0.0
C2058 C 0.05224 0.80862 0.27299 0.0
C2059 C 0.05185 0.79558 0.27066 0.0
H2060 H 0.04957 0.82473 0.26122 0.0
H2061 H 0.04692 0.69873 0.23903 0.0
H2062 H 0.27395 0.30876 0.31289 0.0
H2063 H 0.25474 0.30018 0.29225 0.0
H2064 H 0.2827 0.30182 0.25231 0.0
H2065 H 0.30214 0.31066 0.27291 0.0
H2066 H 0.26858 0.3143 0.24279 0.0
H2067 H 0.25582 0.26917 0.26656 0.0
H2068 H 0.25094 0.25186 0.28922 0.0
H2069 H 0.2163 0.2559 0.30732 0.0
H2070 H 0.2211 0.2734 0.28492 0.0
H2071 H 0.20938 0.28599 0.1864 0.0
H2072 H 0.22893 0.28724 0.20226 0.0
H2073 H 0.20889 0.28788 0.24949 0.0
H2074 H 0.18908 0.28599 0.2338 0.0
H2075 H 0.22009 0.27141 0.25191 0.0
H2076 H 0.23571 0.31947 0.2309 0.0
H2077 H 0.2405 0.3367 0.20816 0.0
H2078 H 0.26979 0.32676 0.18469 0.0
H2079 H 0.26506 0.30934 0.20721 0.0
C2080 C 0.27602 0.30719 0.29975 0.0
C2081 C 0.28959 0.3104 0.29455 0.0
C2082 C 0.26498 0.30219 0.28797 0.0
C2083 C 0.26723 0.30018 0.27076 0.0
C2084 C 0.28072 0.30324 0.26553 0.0
C2085 C 0.2918 0.30826 0.27733 0.0
C2086 C 0.25563 0.29563 0.25822 0.0
C2087 C 0.25805 0.30474 0.24457 0.0
C2088 C 0.24186 0.28325 0.26063 0.0
C2089 C 0.23888 0.27267 0.2741 0.0
C2090 C 0.24722 0.26645 0.27544 0.0
C2091 C 0.24446 0.25659 0.28823 0.0
C2092 C 0.23334 0.2528 0.29972 0.0
C2093 C 0.22492 0.25885 0.29841 0.0
C2094 C 0.22764 0.26872 0.28565 0.0
C2095 C 0.20901 0.28612 0.20016 0.0
C2096 C 0.19776 0.28607 0.20884 0.0
C2097 C 0.22025 0.28696 0.2092 0.0
C2098 C 0.22048 0.2879 0.22706 0.0
C2099 C 0.20897 0.28724 0.23572 0.0
C2100 C 0.19773 0.28632 0.22673 0.0
C2101 C 0.23295 0.29032 0.23686 0.0
C2102 C 0.23069 0.28081 0.24998 0.0
C2103 C 0.24687 0.30233 0.23396 0.0
C2104 C 0.24992 0.313 0.22063 0.0
C2105 C 0.24312 0.32091 0.22084 0.0
C2106 C 0.24583 0.33072 0.208 0.0
C2107 C 0.25541 0.33279 0.19495 0.0
C2108 C 0.26235 0.32512 0.19478 0.0
C2109 C 0.25968 0.3153 0.20759 0.0
H2110 H 0.25746 0.34036 0.185 0.0
H2111 H 0.23122 0.24517 0.30961 0.0
H2112 H 0.27697 0.31377 0.38791 0.0
H2113 H 0.26704 0.32262 0.40939 0.0
H2114 H 0.29953 0.36683 0.39832 0.0
H2115 H 0.30965 0.35804 0.37674 0.0
H2116 H 0.29431 0.36191 0.43336 0.0
H2117 H 0.26793 0.35398 0.3822 0.0
H2118 H 0.25401 0.34022 0.35681 0.0
H2119 H 0.22182 0.30739 0.38857 0.0
H2120 H 0.23566 0.32086 0.41416 0.0
H2121 H 0.25536 0.391 0.47441 0.0
H2122 H 0.26941 0.38522 0.45509 0.0
H2123 H 0.23785 0.33953 0.45904 0.0
H2124 H 0.22383 0.34522 0.47828 0.0
H2125 H 0.2438 0.34724 0.42657 0.0
H2126 H 0.27045 0.35464 0.4777 0.0
H2127 H 0.28437 0.36821 0.50317 0.0
H2128 H 0.3159 0.40195 0.47174 0.0
H2129 H 0.30206 0.38866 0.44607 0.0
C2130 C 0.28208 0.32538 0.39006 0.0
C2131 C 0.29404 0.33521 0.38051 0.0
C2132 C 0.27637 0.33042 0.40234 0.0
C2133 C 0.28246 0.34538 0.40529 0.0
C2134 C 0.29467 0.35524 0.39619 0.0
C2135 C 0.30039 0.3502 0.38383 0.0
C2136 C 0.27566 0.35058 0.41745 0.0
C2137 C 0.28334 0.35892 0.43179 0.0
C2138 C 0.26129 0.34647 0.41545 0.0
C2139 C 0.2529 0.33837 0.40009 0.0
C2140 C 0.25794 0.34377 0.38377 0.0
C2141 C 0.25005 0.33604 0.36934 0.0
C2142 C 0.23705 0.32292 0.37108 0.0
C2143 C 0.2319 0.31754 0.38725 0.0
C2144 C 0.23975 0.32523 0.40172 0.0
C2145 C 0.25157 0.37972 0.47138 0.0
C2146 C 0.23844 0.36856 0.4777 0.0
C2147 C 0.2596 0.37643 0.46034 0.0
C2148 C 0.25466 0.36194 0.45561 0.0
C2149 C 0.2418 0.35079 0.46242 0.0
C2150 C 0.23379 0.35406 0.47337 0.0
C2151 C 0.26231 0.35831 0.44275 0.0
C2152 C 0.2548 0.35031 0.42817 0.0
C2153 C 0.2768 0.36274 0.44457 0.0
C2154 C 0.28514 0.37073 0.45998 0.0
C2155 C 0.28029 0.36501 0.47623 0.0
C2156 C 0.28817 0.37264 0.4907 0.0
C2157 C 0.30099 0.38595 0.48908 0.0
C2158 C 0.30596 0.39165 0.47297 0.0
C2159 C 0.29811 0.38407 0.45846 0.0
H2160 H 0.30708 0.39184 0.5003 0.0
H2161 H 0.23096 0.31695 0.35989 0.0
H2162 H 0.65273 0.97523 0.41503 0.0
H2163 H 0.64662 0.95701 0.43662 0.0
H2164 H 0.63592 0.9244 0.39716 0.0
H2165 H 0.64187 0.94247 0.37552 0.0
H2166 H 0.61656 0.91412 0.42306 0.0
H2167 H 0.66769 0.94034 0.41667 0.0
H2168 H 0.69188 0.96222 0.41631 0.0
H2169 H 0.68721 0.97197 0.4684 0.0
H2170 H 0.66289 0.95023 0.469 0.0
H2171 H 0.62238 0.8604 0.46435 0.0
H2172 H 0.62444 0.87924 0.44609 0.0
H2173 H 0.63623 0.90861 0.48947 0.0
H2174 H 0.63418 0.88974 0.50788 0.0
H2175 H 0.65396 0.92147 0.46355 0.0
H2176 H 0.60349 0.89384 0.47072 0.0
H2177 H 0.57942 0.87179 0.471 0.0
H2178 H 0.58272 0.86453 0.41765 0.0
H2179 H 0.6069 0.88642 0.41709 0.0
C2180 C 0.64898 0.96416 0.41094 0.0
C2181 C 0.64786 0.96032 0.39356 0.0
C2182 C 0.64553 0.95378 0.4233 0.0
C2183 C 0.64095 0.93939 0.41847 0.0
C2184 C 0.63943 0.93544 0.40115 0.0
C2185 C 0.64289 0.94581 0.3888 0.0
C2186 C 0.6382 0.92852 0.43141 0.0
C2187 C 0.62475 0.91566 0.43185 0.0
C2188 C 0.6488 0.93072 0.44314 0.0
C2189 C 0.66342 0.94376 0.44282 0.0
C2190 C 0.67178 0.94722 0.42801 0.0
C2191 C 0.68552 0.95958 0.42777 0.0
C2192 C 0.69106 0.9685 0.44231 0.0
C2193 C 0.68289 0.96506 0.45714 0.0
C2194 C 0.66913 0.95272 0.45744 0.0
C2195 C 0.62515 0.87077 0.47008 0.0
C2196 C 0.62808 0.87356 0.48758 0.0
C2197 C 0.62634 0.88155 0.45961 0.0
C2198 C 0.63034 0.89529 0.46644 0.0
C2199 C 0.63312 0.89808 0.48394 0.0
C2200 C 0.63198 0.8873 0.49442 0.0
C2201 C 0.63234 0.90695 0.45512 0.0
C2202 C 0.64568 0.91997 0.45495 0.0
C2203 C 0.62163 0.90488 0.44364 0.0
C2204 C 0.60706 0.89172 0.4439 0.0
C2205 C 0.59913 0.88749 0.45907 0.0
C2206 C 0.58545 0.87502 0.45928 0.0
C2207 C 0.57955 0.86675 0.44436 0.0
C2208 C 0.5873 0.87094 0.42919 0.0
C2209 C 0.60099 0.88339 0.42892 0.0
H2210 H 0.56896 0.8571 0.44454 0.0
H2211 H 0.7017 0.97807 0.4421 0.0
H2212 H 0.06127 0.70705 0.36299 0.0
H2213 H 0.07746 0.71788 0.38737 0.0
H2214 H 0.04628 0.72342 0.41424 0.0
H2215 H 0.02996 0.71243 0.3901 0.0
H2216 H 0.0745 0.74885 0.41289 0.0
H2217 H 0.05039 0.69813 0.42671 0.0
H2218 H 0.04203 0.67235 0.42099 0.0
H2219 H 0.08523 0.6834 0.41419 0.0
H2220 H 0.09385 0.70928 0.41962 0.0
H2221 H 0.10814 0.77341 0.49187 0.0
H2222 H 0.0902 0.75858 0.47024 0.0
H2223 H 0.11768 0.74476 0.44951 0.0
H2224 H 0.13538 0.75913 0.47166 0.0
H2225 H 0.0913 0.72311 0.44742 0.0
H2226 H 0.11595 0.77304 0.43229 0.0
H2227 H 0.12548 0.79923 0.43651 0.0
H2228 H 0.08304 0.79048 0.44343 0.0
H2229 H 0.07327 0.76421 0.4395 0.0
C2230 C 0.05784 0.71052 0.37412 0.0
C2231 C 0.04436 0.70892 0.37463 0.0
C2232 C 0.06707 0.71663 0.38804 0.0
C2233 C 0.063 0.72138 0.40257 0.0
C2234 C 0.04956 0.71978 0.40312 0.0
C2235 C 0.04026 0.71349 0.38934 0.0
C2236 C 0.07298 0.72853 0.41698 0.0
C2237 C 0.07804 0.74319 0.42062 0.0
C2238 C 0.07791 0.72122 0.4266 0.0
C2239 C 0.07275 0.70566 0.4234 0.0
C2240 C 0.0581 0.69508 0.42384 0.0
C2241 C 0.05331 0.68044 0.42068 0.0
C2242 C 0.06309 0.67624 0.41718 0.0
C2243 C 0.07767 0.68667 0.41688 0.0
C2244 C 0.08251 0.70132 0.42001 0.0
C2245 C 0.11022 0.76704 0.48281 0.0
C2246 C 0.12312 0.76745 0.48327 0.0
C2247 C 0.10003 0.75863 0.47042 0.0
C2248 C 0.10275 0.75085 0.45797 0.0
C2249 C 0.11538 0.75072 0.45892 0.0
C2250 C 0.12547 0.75892 0.47154 0.0
C2251 C 0.09277 0.74347 0.4435 0.0
C2252 C 0.08776 0.72879 0.43976 0.0
C2253 C 0.08806 0.75084 0.43353 0.0
C2254 C 0.09389 0.76665 0.43576 0.0
C2255 C 0.10866 0.77669 0.43483 0.0
C2256 C 0.1141 0.79155 0.43716 0.0
C2257 C 0.10487 0.79651 0.44028 0.0
C2258 C 0.09018 0.78662 0.44104 0.0
C2259 C 0.08468 0.77175 0.43875 0.0
H2260 H 0.10911 0.80802 0.44208 0.0
H2261 H 0.05936 0.66491 0.41474 0.0
H2262 H 0.33796 0.05178 0.71281 0.0
H2263 H 0.33091 0.06246 0.73548 0.0
H2264 H 0.28703 0.03585 0.71945 0.0
H2265 H 0.29414 0.02542 0.69621 0.0
H2266 H 0.29299 0.06214 0.72707 0.0
H2267 H 0.29946 0.02788 0.75535 0.0
H2268 H 0.31166 0.01529 0.76325 0.0
H2269 H 0.34603 0.05496 0.7852 0.0
H2270 H 0.33413 0.06785 0.77722 0.0
H2271 H 0.27189 0.08218 0.80511 0.0
H2272 H 0.2744 0.06716 0.78323 0.0
H2273 H 0.3201 0.09542 0.78553 0.0
H2274 H 0.31776 0.11082 0.80677 0.0
H2275 H 0.30997 0.06513 0.78599 0.0
H2276 H 0.30371 0.09935 0.75457 0.0
H2277 H 0.2908 0.11124 0.74681 0.0
H2278 H 0.25458 0.06995 0.73146 0.0
H2279 H 0.26722 0.05778 0.73937 0.0
C2280 C 0.3268 0.04817 0.71408 0.0
C2281 C 0.31659 0.03769 0.70278 0.0
C2282 C 0.32277 0.05423 0.72714 0.0
C2283 C 0.30839 0.04972 0.72944 0.0
C2284 C 0.29817 0.03943 0.71799 0.0
C2285 C 0.30224 0.03348 0.70473 0.0
C2286 C 0.3042 0.05599 0.74368 0.0
C2287 C 0.29646 0.06252 0.74001 0.0
C2288 C 0.30879 0.05659 0.76058 0.0
C2289 C 0.31593 0.04885 0.76558 0.0
C2290 C 0.30966 0.03394 0.76177 0.0
C2291 C 0.31652 0.02675 0.76628 0.0
C2292 C 0.32962 0.03433 0.7747 0.0
C2293 C 0.33588 0.04911 0.77868 0.0
C2294 C 0.32907 0.05636 0.77418 0.0
C2295 C 0.28248 0.08529 0.80088 0.0
C2296 C 0.29462 0.09775 0.80776 0.0
C2297 C 0.28388 0.07664 0.78845 0.0
C2298 C 0.29743 0.08022 0.7828 0.0
C2299 C 0.30955 0.09243 0.78984 0.0
C2300 C 0.30817 0.10118 0.80208 0.0
C2301 C 0.2991 0.0715 0.76924 0.0
C2302 C 0.30634 0.06451 0.77308 0.0
C2303 C 0.2939 0.07031 0.75258 0.0
C2304 C 0.28634 0.07764 0.74776 0.0
C2305 C 0.29294 0.09279 0.74969 0.0
C2306 C 0.28569 0.09959 0.74523 0.0
C2307 C 0.27186 0.09135 0.7387 0.0
C2308 C 0.26528 0.07631 0.73656 0.0
C2309 C 0.27249 0.06946 0.74102 0.0
H2310 H 0.26626 0.09663 0.73525 0.0
H2311 H 0.33492 0.02874 0.77816 0.0
H2312 H 0.94784 0.28525 0.72082 0.0
H2313 H 0.93762 0.26746 0.74319 0.0
H2314 H 0.97188 0.25956 0.73746 0.0
H2315 H 0.98217 0.27735 0.71474 0.0
H2316 H 0.94607 0.23434 0.74032 0.0
H2317 H 0.97189 0.2793 0.7711 0.0
H2318 H 0.97992 0.30472 0.77869 0.0
H2319 H 0.93707 0.29197 0.7919 0.0
H2320 H 0.92873 0.2665 0.78414 0.0
H2321 H 0.92133 0.19254 0.81647 0.0
H2322 H 0.93686 0.21099 0.79603 0.0
H2323 H 0.90682 0.22479 0.79279 0.0
H2324 H 0.89118 0.20631 0.81288 0.0
H2325 H 0.93421 0.24775 0.7962 0.0
H2326 H 0.90832 0.20336 0.7621 0.0
H2327 H 0.90033 0.17799 0.75429 0.0
H2328 H 0.94381 0.18988 0.74759 0.0
H2329 H 0.95206 0.21531 0.75559 0.0
C2330 C 0.95325 0.27976 0.72427 0.0
C2331 C 0.96587 0.28278 0.71605 0.0
C2332 C 0.94741 0.26963 0.73714 0.0
C2333 C 0.95412 0.26237 0.74218 0.0
C2334 C 0.96659 0.26512 0.73381 0.0
C2335 C 0.97246 0.27529 0.72087 0.0
C2336 C 0.94787 0.25181 0.7561 0.0
C2337 C 0.94374 0.23733 0.75267 0.0
C2338 C 0.94471 0.25568 0.77214 0.0
C2339 C 0.94968 0.27099 0.77693 0.0
C2340 C 0.96416 0.28193 0.77551 0.0
C2341 C 0.96877 0.29634 0.77986 0.0
C2342 C 0.95901 0.29996 0.78575 0.0
C2343 C 0.94462 0.28915 0.78733 0.0
C2344 C 0.93995 0.27472 0.78298 0.0
C2345 C 0.918 0.19945 0.81132 0.0
C2346 C 0.90502 0.19796 0.81635 0.0
C2347 C 0.9269 0.21 0.79969 0.0
C2348 C 0.92296 0.21921 0.79287 0.0
C2349 C 0.91011 0.21785 0.798 0.0
C2350 C 0.90121 0.20731 0.80955 0.0
C2351 C 0.93206 0.23024 0.78024 0.0
C2352 C 0.93675 0.24482 0.78394 0.0
C2353 C 0.93577 0.22646 0.76449 0.0
C2354 C 0.93081 0.21119 0.75964 0.0
C2355 C 0.91618 0.20054 0.7591 0.0
C2356 C 0.9116 0.18615 0.75462 0.0
C2357 C 0.92155 0.18232 0.7505 0.0
C2358 C 0.93611 0.19287 0.75082 0.0
C2359 C 0.94074 0.20727 0.75532 0.0
H2360 H 0.91799 0.17117 0.74703 0.0
H2361 H 0.9626 0.31113 0.78911 0.0
H2362 H 0.73438 0.70605 0.69903 0.0
H2363 H 0.75491 0.7143 0.71765 0.0
H2364 H 0.72705 0.69924 0.76127 0.0
H2365 H 0.7065 0.69124 0.74279 0.0
H2366 H 0.75131 0.72453 0.7686 0.0
H2367 H 0.7385 0.67847 0.74252 0.0
H2368 H 0.73328 0.66131 0.71844 0.0
H2369 H 0.77545 0.68933 0.69879 0.0
H2370 H 0.78084 0.70677 0.72264 0.0
H2371 H 0.79303 0.71327 0.82671 0.0
H2372 H 0.77483 0.71121 0.80748 0.0
H2373 H 0.8054 0.72734 0.76651 0.0
H2374 H 0.82356 0.72904 0.78556 0.0
H2375 H 0.78089 0.70322 0.75695 0.0
H2376 H 0.79419 0.74845 0.78485 0.0
H2377 H 0.79906 0.76515 0.80933 0.0
H2378 H 0.75578 0.73823 0.82616 0.0
H2379 H 0.7507 0.72125 0.80191 0.0
C2380 C 0.73263 0.70464 0.71261 0.0
C2381 C 0.71879 0.69785 0.71941 0.0
C2382 C 0.74437 0.70933 0.72323 0.0
C2383 C 0.74248 0.70715 0.74082 0.0
C2384 C 0.72875 0.70099 0.74773 0.0
C2385 C 0.71701 0.69638 0.73713 0.0
C2386 C 0.75466 0.71052 0.7519 0.0
C2387 C 0.75772 0.71979 0.76615 0.0
C2388 C 0.76319 0.70454 0.7485 0.0
C2389 C 0.76002 0.694 0.73426 0.0
C2390 C 0.74662 0.68102 0.733 0.0
C2391 C 0.74364 0.67124 0.7194 0.0
C2392 C 0.75402 0.67425 0.70707 0.0
C2393 C 0.76742 0.68703 0.70834 0.0
C2394 C 0.77044 0.69686 0.72189 0.0
C2395 C 0.79588 0.7164 0.8136 0.0
C2396 C 0.80973 0.72129 0.80764 0.0
C2397 C 0.78551 0.71535 0.80268 0.0
C2398 C 0.78879 0.71925 0.7856 0.0
C2399 C 0.80266 0.72434 0.77966 0.0
C2400 C 0.81305 0.7254 0.79059 0.0
C2401 C 0.77754 0.71721 0.77372 0.0
C2402 C 0.77461 0.70811 0.75933 0.0
C2403 C 0.7691 0.72328 0.77706 0.0
C2404 C 0.7721 0.73351 0.79163 0.0
C2405 C 0.78574 0.74603 0.79384 0.0
C2406 C 0.78853 0.75555 0.80767 0.0
C2407 C 0.77775 0.75273 0.81931 0.0
C2408 C 0.76413 0.74039 0.81714 0.0
C2409 C 0.76129 0.73082 0.80334 0.0
H2410 H 0.77993 0.76012 0.83001 0.0
H2411 H 0.75168 0.66667 0.69654 0.0
H2412 H 0.69831 0.66157 0.62869 0.0
H2413 H 0.70727 0.65189 0.60692 0.0
H2414 H 0.72413 0.63785 0.64591 0.0
H2415 H 0.71537 0.6477 0.66782 0.0
H2416 H 0.74354 0.65223 0.62169 0.0
H2417 H 0.69477 0.61327 0.623 0.0
H2418 H 0.6687 0.60199 0.62227 0.0
H2419 H 0.67154 0.61751 0.57186 0.0
H2420 H 0.69766 0.62907 0.57237 0.0
H2421 H 0.76374 0.6147 0.56493 0.0
H2422 H 0.75116 0.61916 0.5877 0.0
H2423 H 0.73383 0.63474 0.55119 0.0
H2424 H 0.74601 0.62982 0.52822 0.0
H2425 H 0.71412 0.61818 0.57495 0.0
H2426 H 0.76274 0.65839 0.57436 0.0
H2427 H 0.78887 0.67003 0.57495 0.0
H2428 H 0.7862 0.6524 0.62405 0.0
H2429 H 0.76003 0.64049 0.62364 0.0
C2430 C 0.70383 0.65632 0.63266 0.0
C2431 C 0.70615 0.65543 0.65 0.0
C2432 C 0.70887 0.65072 0.62019 0.0
C2433 C 0.71625 0.64402 0.62479 0.0
C2434 C 0.71844 0.64295 0.64208 0.0
C2435 C 0.71339 0.64856 0.65459 0.0
C2436 C 0.72232 0.63883 0.61151 0.0
C2437 C 0.73705 0.64457 0.61165 0.0
C2438 C 0.71392 0.62913 0.59817 0.0
C2439 C 0.6982 0.62215 0.59779 0.0
C2440 C 0.68985 0.61438 0.61181 0.0
C2441 C 0.67506 0.60791 0.61143 0.0
C2442 C 0.66847 0.60906 0.59704 0.0
C2443 C 0.67666 0.61664 0.58299 0.0
C2444 C 0.69146 0.62314 0.58332 0.0
C2445 C 0.75703 0.6188 0.56167 0.0
C2446 C 0.75594 0.62198 0.54475 0.0
C2447 C 0.74995 0.62147 0.57473 0.0
C2448 C 0.74174 0.62749 0.57116 0.0
C2449 C 0.74017 0.63015 0.55423 0.0
C2450 C 0.74723 0.62746 0.54114 0.0
C2451 C 0.73531 0.63161 0.58515 0.0
C2452 C 0.72055 0.62572 0.5851 0.0
C2453 C 0.74368 0.64121 0.59858 0.0
C2454 C 0.75942 0.64842 0.59888 0.0
C2455 C 0.76772 0.6569 0.58522 0.0
C2456 C 0.78254 0.66356 0.58553 0.0
C2457 C 0.78919 0.66192 0.59951 0.0
C2458 C 0.78104 0.65365 0.61322 0.0
C2459 C 0.76621 0.64694 0.61296 0.0
H2460 H 0.80066 0.66709 0.59973 0.0
H2461 H 0.65702 0.60405 0.59677 0.0
H2462 H 0.32634 0.03949 0.61761 0.0
H2463 H 0.335 0.05743 0.59539 0.0
H2464 H 0.37818 0.07559 0.61273 0.0
H2465 H 0.36953 0.05782 0.63536 0.0
H2466 H 0.37322 0.09638 0.60818 0.0
H2467 H 0.36651 0.05629 0.57447 0.0
H2468 H 0.35412 0.0311 0.56313 0.0
H2469 H 0.3213 0.03618 0.5424 0.0
H2470 H 0.33338 0.06133 0.55382 0.0
H2471 H 0.39537 0.14526 0.53895 0.0
H2472 H 0.39306 0.12546 0.55596 0.0
H2473 H 0.34729 0.10306 0.5519 0.0
H2474 H 0.34954 0.12271 0.53491 0.0
H2475 H 0.35774 0.08457 0.54791 0.0
H2476 H 0.36299 0.12323 0.5861 0.0
H2477 H 0.37555 0.14842 0.59749 0.0
H2478 H 0.41186 0.14571 0.60949 0.0
H2479 H 0.39957 0.12055 0.59794 0.0
C2480 C 0.3377 0.0472 0.61662 0.0
C2481 C 0.34724 0.04725 0.62828 0.0
C2482 C 0.34265 0.0574 0.60381 0.0
C2483 C 0.35727 0.06774 0.60222 0.0
C2484 C 0.36686 0.06768 0.61368 0.0
C2485 C 0.3619 0.05751 0.62659 0.0
C2486 C 0.3623 0.07918 0.58934 0.0
C2487 C 0.37013 0.09377 0.59492 0.0
C2488 C 0.35814 0.07582 0.57205 0.0
C2489 C 0.35083 0.06069 0.5651 0.0
C2490 C 0.3566 0.05201 0.56759 0.0
C2491 C 0.34964 0.03774 0.56114 0.0
C2492 C 0.33692 0.03204 0.55207 0.0
C2493 C 0.33115 0.04061 0.54942 0.0
C2494 C 0.33807 0.05488 0.55586 0.0
C2495 C 0.38485 0.136 0.54151 0.0
C2496 C 0.37262 0.13555 0.53579 0.0
C2497 C 0.38354 0.12475 0.55125 0.0
C2498 C 0.37 0.11287 0.55525 0.0
C2499 C 0.35783 0.11214 0.54893 0.0
C2500 C 0.35912 0.12341 0.53936 0.0
C2501 C 0.36831 0.1016 0.56692 0.0
C2502 C 0.36109 0.08709 0.56111 0.0
C2503 C 0.3731 0.10502 0.58396 0.0
C2504 C 0.38045 0.1201 0.59096 0.0
C2505 C 0.3737 0.12806 0.59103 0.0
C2506 C 0.38076 0.14231 0.59754 0.0
C2507 C 0.39451 0.14868 0.60416 0.0
C2508 C 0.40122 0.14078 0.60433 0.0
C2509 C 0.39422 0.12652 0.5978 0.0
H2510 H 0.39996 0.15971 0.6092 0.0
H2511 H 0.33154 0.02099 0.54708 0.0
H2512 H 0.96319 0.2903 0.63315 0.0
H2513 H 0.94678 0.2814 0.60915 0.0
H2514 H 0.93155 0.3093 0.62488 0.0
H2515 H 0.94786 0.31816 0.64921 0.0
H2516 H 0.90987 0.28244 0.61684 0.0
H2517 H 0.9531 0.31758 0.59035 0.0
H2518 H 0.97865 0.33018 0.58318 0.0
H2519 H 0.97239 0.29108 0.55942 0.0
H2520 H 0.94684 0.27817 0.56667 0.0
H2521 H 0.86776 0.26006 0.54142 0.0
H2522 H 0.88623 0.2767 0.56173 0.0
H2523 H 0.90662 0.25211 0.55621 0.0
H2524 H 0.8884 0.23566 0.53575 0.0
H2525 H 0.92603 0.28136 0.55792 0.0
H2526 H 0.88392 0.24571 0.58849 0.0
H2527 H 0.85843 0.23281 0.59605 0.0
H2528 H 0.86286 0.27317 0.61224 0.0
H2529 H 0.88836 0.28633 0.60455 0.0
C2530 C 0.95639 0.29459 0.63153 0.0
C2531 C 0.95685 0.30496 0.6431 0.0
C2532 C 0.94707 0.28956 0.61772 0.0
C2533 C 0.93811 0.29487 0.61507 0.0
C2534 C 0.93844 0.30513 0.62665 0.0
C2535 C 0.94776 0.31017 0.64053 0.0
C2536 C 0.92805 0.28921 0.60052 0.0
C2537 C 0.91343 0.28251 0.6039 0.0
C2538 C 0.93269 0.28913 0.58367 0.0
C2539 C 0.94805 0.29688 0.57915 0.0
C2540 C 0.95718 0.31163 0.58369 0.0
C2541 C 0.97167 0.31884 0.5796 0.0
C2542 C 0.97714 0.31143 0.57088 0.0
C2543 C 0.96814 0.2968 0.56619 0.0
C2544 C 0.95364 0.28954 0.57026 0.0
C2545 C 0.87634 0.25839 0.54432 0.0
C2546 C 0.87658 0.24649 0.53717 0.0
C2547 C 0.88682 0.26784 0.55597 0.0
C2548 C 0.89768 0.26551 0.56061 0.0
C2549 C 0.89831 0.25407 0.55284 0.0
C2550 C 0.88784 0.24461 0.54127 0.0
C2551 C 0.90789 0.27432 0.57435 0.0
C2552 C 0.92253 0.28159 0.57082 0.0
C2553 C 0.90328 0.27493 0.59106 0.0
C2554 C 0.88799 0.26702 0.59575 0.0
C2555 C 0.87943 0.25184 0.59353 0.0
C2556 C 0.86499 0.24448 0.59786 0.0
C2557 C 0.85902 0.25217 0.60457 0.0
C2558 C 0.86749 0.26723 0.60701 0.0
C2559 C 0.88194 0.27464 0.60267 0.0
H2560 H 0.84783 0.24645 0.60792 0.0
H2561 H 0.98836 0.31702 0.56773 0.0
H2562 H 0.35699 0.29627 0.65977 0.0
H2563 H 0.36562 0.2881 0.636 0.0
H2564 H 0.34986 0.30617 0.6007 0.0
H2565 H 0.34083 0.31408 0.6245 0.0
H2566 H 0.34241 0.27996 0.59055 0.0
H2567 H 0.38611 0.32189 0.60779 0.0
H2568 H 0.40507 0.339 0.62754 0.0
H2569 H 0.41327 0.30587 0.64053 0.0
H2570 H 0.39421 0.28847 0.62104 0.0
H2571 H 0.37222 0.25908 0.52313 0.0
H2572 H 0.36955 0.27575 0.54231 0.0
H2573 H 0.37773 0.25742 0.5854 0.0
H2574 H 0.38055 0.2409 0.56633 0.0
H2575 H 0.39077 0.28748 0.58837 0.0
H2576 H 0.34428 0.24506 0.57405 0.0
H2577 H 0.32547 0.22828 0.55389 0.0
H2578 H 0.32316 0.26368 0.53469 0.0
H2579 H 0.34209 0.2807 0.55461 0.0
C2580 C 0.35545 0.29863 0.64697 0.0
C2581 C 0.3482 0.30581 0.64403 0.0
C2582 C 0.36049 0.29403 0.63337 0.0
C2583 C 0.35859 0.2967 0.61655 0.0
C2584 C 0.35149 0.30403 0.61357 0.0
C2585 C 0.34635 0.30855 0.62718 0.0
C2586 C 0.36324 0.29102 0.60213 0.0
C2587 C 0.35309 0.28191 0.58987 0.0
C2588 C 0.37713 0.29341 0.60129 0.0
C2589 C 0.38865 0.30384 0.61301 0.0
C2590 C 0.39188 0.31821 0.61494 0.0
C2591 C 0.40266 0.32797 0.62608 0.0
C2592 C 0.41036 0.32352 0.63531 0.0
C2593 C 0.4073 0.3093 0.63338 0.0
C2594 C 0.39652 0.29949 0.62227 0.0
C2595 C 0.37372 0.25883 0.53667 0.0
C2596 C 0.37645 0.24862 0.54329 0.0
C2597 C 0.37213 0.26829 0.54759 0.0
C2598 C 0.3733 0.2677 0.56527 0.0
C2599 C 0.37677 0.25804 0.5718 0.0
C2600 C 0.37826 0.24854 0.56092 0.0
C2601 C 0.36985 0.27626 0.57715 0.0
C2602 C 0.3802 0.28585 0.58891 0.0
C2603 C 0.35619 0.27442 0.57747 0.0
C2604 C 0.3447 0.26417 0.56566 0.0
C2605 C 0.33983 0.24928 0.56544 0.0
C2606 C 0.32913 0.23972 0.55408 0.0
C2607 C 0.32315 0.24492 0.54298 0.0
C2608 C 0.32782 0.25967 0.54327 0.0
C2609 C 0.33852 0.26928 0.5546 0.0
H2610 H 0.31488 0.23751 0.53419 0.0
H2611 H 0.4187 0.33109 0.64393 0.0
H2612 H 0.69321 0.06 0.64108 0.0
H2613 H 0.70529 0.0783 0.61919 0.0
H2614 H 0.72196 0.0535 0.59677 0.0
H2615 H 0.70994 0.03518 0.61845 0.0
H2616 H 0.74257 0.0826 0.60271 0.0
H2617 H 0.69582 0.0538 0.57739 0.0
H2618 H 0.66969 0.04208 0.57674 0.0
H2619 H 0.674 0.08362 0.58414 0.0
H2620 H 0.70017 0.09557 0.58507 0.0
H2621 H 0.77341 0.11907 0.52791 0.0
H2622 H 0.75737 0.0999 0.54721 0.0
H2623 H 0.73873 0.12483 0.5626 0.0
H2624 H 0.75452 0.14387 0.54279 0.0
H2625 H 0.71875 0.09659 0.5612 0.0
H2626 H 0.76481 0.12566 0.58647 0.0
H2627 H 0.79099 0.13812 0.58789 0.0
H2628 H 0.78813 0.09714 0.58224 0.0
H2629 H 0.76193 0.08446 0.58053 0.0
C2630 C 0.69938 0.05841 0.63142 0.0
C2631 C 0.70065 0.04616 0.63153 0.0
C2632 C 0.70621 0.06883 0.6189 0.0
C2633 C 0.71447 0.0672 0.60636 0.0
C2634 C 0.71563 0.05494 0.60636 0.0
C2635 C 0.70873 0.04447 0.61874 0.0
C2636 C 0.72248 0.07857 0.59366 0.0
C2637 C 0.73736 0.08554 0.59349 0.0
C2638 C 0.71567 0.08273 0.58208 0.0
C2639 C 0.69995 0.07556 0.58149 0.0
C2640 C 0.6912 0.06042 0.57904 0.0
C2641 C 0.67638 0.05374 0.57858 0.0
C2642 C 0.67019 0.0621 0.58045 0.0
C2643 C 0.67881 0.07716 0.58272 0.0
C2644 C 0.69363 0.08389 0.5832 0.0
C2645 C 0.76576 0.12035 0.53528 0.0
C2646 C 0.76526 0.13297 0.53406 0.0
C2647 C 0.75665 0.10944 0.54632 0.0
C2648 C 0.7471 0.1111 0.55666 0.0
C2649 C 0.74607 0.12336 0.55481 0.0
C2650 C 0.75507 0.13422 0.54353 0.0
C2651 C 0.73885 0.10042 0.57002 0.0
C2652 C 0.72396 0.09366 0.57042 0.0
C2653 C 0.74566 0.09655 0.58202 0.0
C2654 C 0.76141 0.10412 0.58323 0.0
C2655 C 0.76977 0.11932 0.58543 0.0
C2656 C 0.78461 0.12642 0.58629 0.0
C2657 C 0.79122 0.11843 0.58512 0.0
C2658 C 0.78299 0.10332 0.58313 0.0
C2659 C 0.76815 0.09616 0.58223 0.0
H2660 H 0.80271 0.12394 0.58579 0.0
H2661 H 0.65872 0.0569 0.58009 0.0
H2662 H 0.93867 0.6286 0.63432 0.0
H2663 H 0.91888 0.62097 0.61445 0.0
H2664 H 0.93843 0.66503 0.59773 0.0
H2665 H 0.95828 0.6727 0.61726 0.0
H2666 H 0.909 0.65134 0.60729 0.0
H2667 H 0.9403 0.64238 0.57254 0.0
H2668 H 0.9545 0.63132 0.56616 0.0
H2669 H 0.91696 0.58874 0.57002 0.0
H2670 H 0.90256 0.59957 0.57667 0.0
H2671 H 0.87093 0.64756 0.53548 0.0
H2672 H 0.88956 0.6515 0.55501 0.0
H2673 H 0.87017 0.60519 0.55907 0.0
H2674 H 0.85188 0.60111 0.53857 0.0
H2675 H 0.89802 0.61777 0.55768 0.0
H2676 H 0.86621 0.62563 0.59071 0.0
H2677 H 0.85132 0.63575 0.598 0.0
H2678 H 0.88847 0.67885 0.59917 0.0
H2679 H 0.90358 0.66901 0.59165 0.0
C2680 C 0.93879 0.63663 0.62632 0.0
C2681 C 0.95003 0.65125 0.62735 0.0
C2682 C 0.92751 0.63225 0.61498 0.0
C2683 C 0.92724 0.64246 0.60466 0.0
C2684 C 0.93847 0.65701 0.60561 0.0
C2685 C 0.94982 0.66135 0.61674 0.0
C2686 C 0.91508 0.63815 0.59318 0.0
C2687 C 0.90665 0.6441 0.59635 0.0
C2688 C 0.91175 0.62829 0.57933 0.0
C2689 C 0.92039 0.62178 0.57531 0.0
C2690 C 0.9351 0.63066 0.5722 0.0
C2691 C 0.94318 0.62444 0.56849 0.0
C2692 C 0.93664 0.60934 0.56774 0.0
C2693 C 0.92201 0.60044 0.57064 0.0
C2694 C 0.91388 0.60661 0.57437 0.0
C2695 C 0.87072 0.63817 0.54023 0.0
C2696 C 0.85986 0.62399 0.53539 0.0
C2697 C 0.88129 0.64045 0.55164 0.0
C2698 C 0.88111 0.62865 0.55881 0.0
C2699 C 0.87047 0.61447 0.5538 0.0
C2700 C 0.85994 0.61216 0.5422 0.0
C2701 C 0.89206 0.63122 0.57153 0.0
C2702 C 0.90024 0.62491 0.56868 0.0
C2703 C 0.89504 0.6406 0.58587 0.0
C2704 C 0.88601 0.64658 0.59048 0.0
C2705 C 0.87119 0.63728 0.59241 0.0
C2706 C 0.86272 0.64296 0.5966 0.0
C2707 C 0.86894 0.65793 0.59901 0.0
C2708 C 0.88367 0.66725 0.59729 0.0
C2709 C 0.89219 0.66162 0.59308 0.0
H2710 H 0.86236 0.66231 0.60226 0.0
H2711 H 0.94292 0.60454 0.56486 0.0
H2712 H 0.95062 0.68786 0.68427 0.0
H2713 H 0.9433 0.69777 0.70766 0.0
H2714 H 0.96124 0.68251 0.74376 0.0
H2715 H 0.96849 0.67239 0.72041 0.0
H2716 H 0.93471 0.67526 0.75263 0.0
H2717 H 0.97754 0.71848 0.73604 0.0
H2718 H 0.99449 0.73694 0.71621 0.0
H2719 H 0.9633 0.74737 0.70343 0.0
H2720 H 0.94608 0.72882 0.72301 0.0
H2721 H 0.92162 0.70884 0.8227 0.0
H2722 H 0.93491 0.70353 0.80169 0.0
H2723 H 0.91866 0.71725 0.76162 0.0
H2724 H 0.90539 0.72262 0.78255 0.0
H2725 H 0.94634 0.72618 0.75622 0.0
H2726 H 0.903 0.68161 0.7705 0.0
H2727 H 0.88572 0.66301 0.78997 0.0
H2728 H 0.91775 0.65499 0.80664 0.0
H2729 H 0.93528 0.67371 0.78743 0.0
C2730 C 0.95311 0.68668 0.69717 0.0
C2731 C 0.96012 0.67931 0.70048 0.0
C2732 C 0.94898 0.69244 0.71053 0.0
C2733 C 0.95186 0.69101 0.72744 0.0
C2734 C 0.95895 0.68376 0.73079 0.0
C2735 C 0.9631 0.67801 0.71743 0.0
C2736 C 0.94677 0.69643 0.74163 0.0
C2737 C 0.93748 0.68647 0.75361 0.0
C2738 C 0.95014 0.71097 0.74266 0.0
C2739 C 0.96048 0.72217 0.7309 0.0
C2740 C 0.97425 0.72463 0.7289 0.0
C2741 C 0.98392 0.73512 0.71773 0.0
C2742 C 0.97996 0.7433 0.70854 0.0
C2743 C 0.96634 0.74102 0.71054 0.0
C2744 C 0.95663 0.73053 0.7217 0.0
C2745 C 0.92096 0.7108 0.80942 0.0
C2746 C 0.91237 0.71603 0.80425 0.0
C2747 C 0.92856 0.70778 0.79744 0.0
C2748 C 0.92759 0.70978 0.78007 0.0
C2749 C 0.91956 0.71563 0.77496 0.0
C2750 C 0.912 0.71872 0.78694 0.0
C2751 C 0.93422 0.70498 0.76711 0.0
C2752 C 0.94374 0.71503 0.75534 0.0
C2753 C 0.93104 0.6905 0.76621 0.0
C2754 C 0.92048 0.67917 0.77767 0.0
C2755 C 0.90638 0.67595 0.77841 0.0
C2756 C 0.89654 0.66538 0.78939 0.0
C2757 C 0.90065 0.65785 0.79957 0.0
C2758 C 0.9146 0.66085 0.79877 0.0
C2759 C 0.92448 0.67143 0.78783 0.0
H2760 H 0.89302 0.64966 0.80806 0.0
H2761 H 0.98746 0.75142 0.69989 0.0
H2762 H 0.33949 0.29969 0.72721 0.0
H2763 H 0.33144 0.27916 0.74583 0.0
H2764 H 0.28857 0.25992 0.72697 0.0
H2765 H 0.29659 0.28047 0.70797 0.0
H2766 H 0.29189 0.26029 0.76439 0.0
H2767 H 0.30439 0.2453 0.71255 0.0
H2768 H 0.3198 0.24832 0.68803 0.0
H2769 H 0.35257 0.25375 0.72177 0.0
H2770 H 0.33743 0.251 0.74652 0.0
H2771 H 0.27165 0.19448 0.80695 0.0
H2772 H 0.27445 0.21187 0.78572 0.0
H2773 H 0.32012 0.23225 0.78812 0.0
H2774 H 0.3174 0.21449 0.80851 0.0
H2775 H 0.31228 0.22925 0.75654 0.0
H2776 H 0.30178 0.24702 0.80807 0.0
H2777 H 0.28761 0.24547 0.83335 0.0
H2778 H 0.25245 0.23614 0.80136 0.0
H2779 H 0.26636 0.23745 0.77588 0.0
C2780 C 0.32832 0.29115 0.72703 0.0
C2781 C 0.31868 0.29168 0.71607 0.0
C2782 C 0.32376 0.27941 0.73766 0.0
C2783 C 0.30945 0.26802 0.73767 0.0
C2784 C 0.29967 0.26863 0.72709 0.0
C2785 C 0.30428 0.28033 0.71624 0.0
C2786 C 0.30496 0.25542 0.74857 0.0
C2787 C 0.29608 0.25328 0.76253 0.0
C2788 C 0.31072 0.24653 0.74627 0.0
C2789 C 0.31981 0.24806 0.7314 0.0
C2790 C 0.31492 0.24726 0.71475 0.0
C2791 C 0.3236 0.2489 0.70081 0.0
C2792 C 0.33716 0.25125 0.70334 0.0
C2793 C 0.34206 0.25194 0.71982 0.0
C2794 C 0.33343 0.25032 0.73382 0.0
C2795 C 0.28228 0.20259 0.80285 0.0
C2796 C 0.2943 0.20311 0.80955 0.0
C2797 C 0.28387 0.21262 0.79084 0.0
C2798 C 0.29751 0.22349 0.78544 0.0
C2799 C 0.30949 0.224 0.79209 0.0
C2800 C 0.30791 0.21392 0.80395 0.0
C2801 C 0.29946 0.23427 0.77273 0.0
C2802 C 0.30788 0.23608 0.75835 0.0
C2803 C 0.2934 0.24294 0.77479 0.0
C2804 C 0.28504 0.24216 0.79009 0.0
C2805 C 0.29098 0.24452 0.80643 0.0
C2806 C 0.28301 0.24371 0.8208 0.0
C2807 C 0.26913 0.24066 0.81897 0.0
C2808 C 0.2632 0.23847 0.80276 0.0
C2809 C 0.27112 0.23925 0.78835 0.0
H2810 H 0.26297 0.24004 0.8301 0.0
H2811 H 0.34387 0.25253 0.69252 0.0
H2812 H 0.7379 0.04796 0.68894 0.0
H2813 H 0.75493 0.05636 0.71239 0.0
H2814 H 0.72022 0.03687 0.7483 0.0
H2815 H 0.70313 0.02866 0.72496 0.0
H2816 H 0.73932 0.06385 0.75789 0.0
H2817 H 0.74079 0.02219 0.73945 0.0
H2818 H 0.74337 0.00614 0.71887 0.0
H2819 H 0.78612 0.04051 0.70783 0.0
H2820 H 0.78373 0.05684 0.72818 0.0
H2821 H 0.78276 0.07756 0.82966 0.0
H2822 H 0.76511 0.06403 0.80728 0.0
H2823 H 0.79799 0.08415 0.76921 0.0
H2824 H 0.81567 0.09775 0.79147 0.0
H2825 H 0.77925 0.05551 0.76152 0.0
H2826 H 0.77718 0.09745 0.77832 0.0
H2827 H 0.77474 0.11371 0.7987 0.0
H2828 H 0.73303 0.07874 0.81251 0.0
H2829 H 0.73531 0.06221 0.79237 0.0
C2830 C 0.73388 0.04535 0.70181 0.0
C2831 C 0.71915 0.03769 0.70508 0.0
C2832 C 0.74364 0.05009 0.71521 0.0
C2833 C 0.73885 0.04714 0.7321 0.0
C2834 C 0.72415 0.03927 0.73536 0.0
C2835 C 0.7144 0.03458 0.722 0.0
C2836 C 0.74914 0.05296 0.74643 0.0
C2837 C 0.74789 0.06179 0.75884 0.0
C2838 C 0.76054 0.05059 0.74745 0.0
C2839 C 0.76203 0.04078 0.73523 0.0
C2840 C 0.7507 0.02637 0.73253 0.0
C2841 C 0.75214 0.01721 0.72093 0.0
C2842 C 0.76489 0.02232 0.71202 0.0
C2843 C 0.77624 0.03658 0.71473 0.0
C2844 C 0.77486 0.04578 0.72631 0.0
C2845 C 0.78623 0.07905 0.81652 0.0
C2846 C 0.80059 0.0888 0.81233 0.0
C2847 C 0.77615 0.07129 0.80376 0.0
C2848 C 0.78022 0.07324 0.78658 0.0
C2849 C 0.79463 0.08247 0.78239 0.0
C2850 C 0.80473 0.09021 0.79514 0.0
C2851 C 0.76937 0.06633 0.77291 0.0
C2852 C 0.77057 0.0574 0.76062 0.0
C2853 C 0.75791 0.06861 0.77195 0.0
C2854 C 0.75648 0.07856 0.78398 0.0
C2855 C 0.76753 0.0932 0.7858 0.0
C2856 C 0.76617 0.10247 0.79729 0.0
C2857 C 0.75375 0.09725 0.80693 0.0
C2858 C 0.74265 0.08276 0.80506 0.0
C2859 C 0.74397 0.07344 0.7936 0.0
H2860 H 0.75272 0.10445 0.81582 0.0
H2861 H 0.76598 0.01521 0.70304 0.0
H2862 H 0.04807 0.34369 0.02215 0.0
H2863 H 0.06302 0.3373 0.03764 0.0
H2864 H 0.03924 0.33259 0.08352 0.0
H2865 H 0.02427 0.33895 0.06821 0.0
H2866 H 0.06841 0.34754 0.08896 0.0
H2867 H 0.03197 0.30321 0.06106 0.0
H2868 H 0.01813 0.28797 0.03637 0.0
H2869 H 0.0564 0.29443 0.01311 0.0
H2870 H 0.07051 0.3099 0.03758 0.0
H2871 H 0.08624 0.30712 0.14033 0.0
H2872 H 0.07349 0.31533 0.12346 0.0
H2873 H 0.09585 0.31446 0.07843 0.0
H2874 H 0.10848 0.30606 0.09521 0.0
H2875 H 0.0687 0.30337 0.07137 0.0
H2876 H 0.10519 0.34663 0.09938 0.0
H2877 H 0.11944 0.36216 0.12369 0.0
H2878 H 0.08201 0.35844 0.14612 0.0
H2879 H 0.06749 0.3427 0.12205 0.0
C2880 C 0.0461 0.3414 0.03557 0.0
C2881 C 0.03494 0.34174 0.04394 0.0
C2882 C 0.05461 0.33771 0.04437 0.0
C2883 C 0.05213 0.33436 0.06167 0.0
C2884 C 0.0413 0.33513 0.07016 0.0
C2885 C 0.03273 0.33871 0.06137 0.0
C2886 C 0.06054 0.32965 0.07091 0.0
C2887 C 0.06839 0.33782 0.08523 0.0
C2888 C 0.06079 0.31718 0.06573 0.0
C2889 C 0.05231 0.30784 0.05106 0.0
C2890 C 0.03745 0.30148 0.05062 0.0
C2891 C 0.02955 0.29278 0.03667 0.0
C2892 C 0.03639 0.29027 0.02316 0.0
C2893 C 0.05113 0.29641 0.02358 0.0
C2894 C 0.05908 0.30514 0.03748 0.0
C2895 C 0.08846 0.30872 0.12684 0.0
C2896 C 0.09838 0.30599 0.11909 0.0
C2897 C 0.08119 0.31344 0.11722 0.0
C2898 C 0.08389 0.31574 0.09972 0.0
C2899 C 0.09361 0.31277 0.0919 0.0
C2900 C 0.10079 0.30794 0.1015 0.0
C2901 C 0.07651 0.32118 0.08958 0.0
C2902 C 0.06884 0.31316 0.07507 0.0
C2903 C 0.07652 0.33385 0.09452 0.0
C2904 C 0.08523 0.34338 0.10898 0.0
C2905 C 0.09998 0.34903 0.10956 0.0
C2906 C 0.10811 0.35788 0.12329 0.0
C2907 C 0.10163 0.36125 0.13646 0.0
C2908 C 0.08701 0.3558 0.13591 0.0
C2909 C 0.07883 0.34693 0.12222 0.0
H2910 H 0.10794 0.36811 0.14708 0.0
H2911 H 0.03025 0.28353 0.01238 0.0
H2912 H 0.65893 0.70126 0.0098 0.0
H2913 H 0.66756 0.7241 0.02575 0.0
H2914 H 0.69526 0.71588 0.055 0.0
H2915 H 0.68611 0.69273 0.03972 0.0
H2916 H 0.68379 0.72503 0.07533 0.0
H2917 H 0.70756 0.74207 0.02235 0.0
H2918 H 0.71005 0.74448 0.99122 0.0
H2919 H 0.68317 0.76208 0.99119 0.0
H2920 H 0.68036 0.75959 0.02231 0.0
H2921 H 0.72239 0.79745 0.11094 0.0
H2922 H 0.71789 0.77686 0.09224 0.0
H2923 H 0.68009 0.77395 0.07297 0.0
H2924 H 0.68438 0.79426 0.09185 0.0
H2925 H 0.69886 0.77152 0.0475 0.0
H2926 H 0.67472 0.75245 0.10154 0.0
H2927 H 0.67419 0.75088 0.13279 0.0
H2928 H 0.70492 0.73806 0.13039 0.0
H2929 H 0.7058 0.73978 0.09912 0.0
C2930 C 0.6669 0.70438 0.0196 0.0
C2931 C 0.67184 0.69523 0.02355 0.0
C2932 C 0.67191 0.71748 0.02863 0.0
C2933 C 0.68226 0.72186 0.04142 0.0
C2934 C 0.68728 0.71276 0.04523 0.0
C2935 C 0.68205 0.69953 0.03647 0.0
C2936 C 0.68745 0.73564 0.05131 0.0
C2937 C 0.68732 0.73522 0.06917 0.0
C2938 C 0.69197 0.74898 0.04337 0.0
C2939 C 0.69365 0.75052 0.02465 0.0
C2940 C 0.70209 0.74635 0.0157 0.0
C2941 C 0.70358 0.74775 0.99805 0.0
C2942 C 0.69675 0.7534 0.98923 0.0
C2943 C 0.68845 0.75769 0.99804 0.0
C2944 C 0.68691 0.75631 0.01569 0.0
C2945 C 0.71325 0.79249 0.10253 0.0
C2946 C 0.70367 0.79729 0.1028 0.0
C2947 C 0.71068 0.78078 0.09193 0.0
C2948 C 0.69865 0.77394 0.08131 0.0
C2949 C 0.68944 0.77915 0.08106 0.0
C2950 C 0.69185 0.79065 0.09186 0.0
C2951 C 0.69508 0.76074 0.07128 0.0
C2952 C 0.69548 0.7613 0.05349 0.0
C2953 C 0.6911 0.7476 0.07924 0.0
C2954 C 0.69045 0.74641 0.09802 0.0
C2955 C 0.68146 0.74943 0.10769 0.0
C2956 C 0.68108 0.74849 0.1254 0.0
C2957 C 0.68955 0.74442 0.13358 0.0
C2958 C 0.69839 0.74124 0.12405 0.0
C2959 C 0.69882 0.74219 0.10633 0.0
H2960 H 0.68924 0.74369 0.14729 0.0
H2961 H 0.69791 0.75447 0.97557 0.0
H2962 H 0.31342 0.98437 0.04901 0.0
H2963 H 0.29194 0.96915 0.0655 0.0
H2964 H 0.26989 0.94523 0.01988 0.0
H2965 H 0.29142 0.96055 0.00312 0.0
H2966 H 0.25395 0.95285 0.03996 0.0
H2967 H 0.28055 0.92996 0.04715 0.0
H2968 H 0.30178 0.92901 0.05379 0.0
H2969 H 0.30228 0.94477 0.10464 0.0
H2970 H 0.28116 0.94601 0.09823 0.0
H2971 H 0.19458 0.8975 0.08545 0.0
H2972 H 0.21499 0.91085 0.06651 0.0
H2973 H 0.2416 0.93469 0.10967 0.0
H2974 H 0.22124 0.92124 0.12869 0.0
H2975 H 0.25474 0.92571 0.08927 0.0
H2976 H 0.22931 0.95003 0.08201 0.0
H2977 H 0.20847 0.95177 0.07563 0.0
H2978 H 0.2061 0.93409 0.02537 0.0
H2979 H 0.22682 0.93207 0.03154 0.0
C2980 C 0.30403 0.97587 0.04243 0.0
C2981 C 0.30414 0.97365 0.02474 0.0
C2982 C 0.29177 0.96714 0.05191 0.0
C2983 C 0.27939 0.95597 0.04393 0.0
C2984 C 0.27938 0.95378 0.02626 0.0
C2985 C 0.29169 0.9625 0.01673 0.0
C2986 C 0.26645 0.94676 0.05416 0.0
C2987 C 0.25402 0.9467 0.05057 0.0
C2988 C 0.26669 0.93904 0.06821 0.0
C2989 C 0.27933 0.93818 0.07216 0.0
C2990 C 0.28524 0.93332 0.05971 0.0
C2991 C 0.29725 0.93272 0.06344 0.0
C2992 C 0.30339 0.93686 0.07962 0.0
C2993 C 0.29752 0.94158 0.09211 0.0
C2994 C 0.28552 0.94222 0.08844 0.0
C2995 C 0.20475 0.90571 0.09087 0.0
C2996 C 0.20632 0.90837 0.10854 0.0
C2997 C 0.2164 0.91332 0.08004 0.0
C2998 C 0.22979 0.92388 0.08665 0.0
C2999 C 0.23137 0.92657 0.1043 0.0
C3000 C 0.21975 0.91888 0.11514 0.0
C3001 C 0.24225 0.93195 0.07526 0.0
C3002 C 0.25461 0.93178 0.07861 0.0
C3003 C 0.24196 0.93952 0.06105 0.0
C3004 C 0.22952 0.94076 0.05731 0.0
C3005 C 0.22427 0.94641 0.06965 0.0
C3006 C 0.2125 0.94746 0.06606 0.0
C3007 C 0.20594 0.943 0.05012 0.0
C3008 C 0.21117 0.93752 0.03772 0.0
C3009 C 0.22294 0.93643 0.04125 0.0
H3010 H 0.19683 0.94383 0.04737 0.0
H3011 H 0.31269 0.93639 0.08248 0.0
H3012 H 0.34292 0.04636 0.99884 0.0
H3013 H 0.33696 0.06244 0.98494 0.0
H3014 H 0.32206 0.03371 0.94081 0.0
H3015 H 0.32806 0.0177 0.95447 0.0
H3016 H 0.3383 0.06195 0.93204 0.0
H3017 H 0.29869 0.03306 0.9694 0.0
H3018 H 0.28731 0.02299 0.99697 0.0
H3019 H 0.30365 0.06608 0.01746 0.0
H3020 H 0.31529 0.07642 0.99005 0.0
H3021 H 0.29899 0.08612 0.88985 0.0
H3022 H 0.30542 0.07106 0.90513 0.0
H3023 H 0.3179 0.10033 0.94868 0.0
H3024 H 0.31095 0.11512 0.93374 0.0
H3025 H 0.30377 0.07281 0.95848 0.0
H3026 H 0.3428 0.10182 0.92116 0.0
H3027 H 0.35435 0.11213 0.89374 0.0
H3028 H 0.3396 0.0693 0.87342 0.0
H3029 H 0.32778 0.05871 0.90066 0.0
C3030 C 0.33844 0.04351 0.98614 0.0
C3031 C 0.33591 0.03072 0.97778 0.0
C3032 C 0.33499 0.05267 0.97826 0.0
C3033 C 0.32894 0.04918 0.96192 0.0
C3034 C 0.32671 0.0366 0.95343 0.0
C3035 C 0.33011 0.02744 0.96129 0.0
C3036 C 0.32474 0.05849 0.95364 0.0
C3037 C 0.33064 0.06421 0.93773 0.0
C3038 C 0.31502 0.06172 0.96128 0.0
C3039 C 0.30799 0.05551 0.97774 0.0
C3040 C 0.29995 0.04039 0.97982 0.0
C3041 C 0.29344 0.03463 0.99541 0.0
C3042 C 0.29479 0.04389 0.00897 0.0
C3043 C 0.30263 0.05892 0.00695 0.0
C3044 C 0.30918 0.06474 0.99139 0.0
C3045 C 0.30288 0.08923 0.90278 0.0
C3046 C 0.30454 0.10188 0.91053 0.0
C3047 C 0.3067 0.0807 0.91143 0.0
C3048 C 0.31238 0.08473 0.92794 0.0
C3049 C 0.31364 0.09708 0.93591 0.0
C3050 C 0.30977 0.10559 0.9273 0.0
C3051 C 0.31722 0.07617 0.93678 0.0
C3052 C 0.31147 0.07061 0.9528 0.0
C3053 C 0.32713 0.07313 0.92928 0.0
C3054 C 0.3343 0.07947 0.91291 0.0
C3055 C 0.34193 0.09459 0.91081 0.0
C3056 C 0.34854 0.10049 0.8953 0.0
C3057 C 0.34768 0.09137 0.88184 0.0
C3058 C 0.34024 0.07635 0.88386 0.0
C3059 C 0.3336 0.07039 0.89934 0.0
H3060 H 0.35281 0.09596 0.86984 0.0
H3061 H 0.28974 0.03941 0.02103 0.0
H3062 H 0.95765 0.3167 0.98533 0.0
H3063 H 0.94156 0.29303 0.97175 0.0
H3064 H 0.97192 0.28032 0.98055 0.0
H3065 H 0.98817 0.30404 0.99383 0.0
H3066 H 0.96276 0.2742 0.94878 0.0
H3067 H 0.94083 0.26614 0.00362 0.0
H3068 H 0.93026 0.27133 0.02851 0.0
H3069 H 0.89743 0.26836 0.99688 0.0
H3070 H 0.90792 0.26335 0.97174 0.0
H3071 H 0.91622 0.19974 0.92475 0.0
H3072 H 0.93186 0.22208 0.94117 0.0
H3073 H 0.90395 0.23759 0.93088 0.0
H3074 H 0.88838 0.21542 0.9143 0.0
H3075 H 0.91192 0.24166 0.96427 0.0
H3076 H 0.93451 0.25064 0.90937 0.0
H3077 H 0.94507 0.24534 0.88455 0.0
H3078 H 0.97673 0.24644 0.91668 0.0
H3079 H 0.96624 0.25156 0.94175 0.0
C3080 C 0.96084 0.30882 0.98453 0.0
C3081 C 0.9742 0.31226 0.99062 0.0
C3082 C 0.95161 0.29527 0.97682 0.0
C3083 C 0.9555 0.28486 0.97525 0.0
C3084 C 0.96871 0.28819 0.98161 0.0
C3085 C 0.97797 0.30174 0.98923 0.0
C3086 C 0.9461 0.27078 0.96624 0.0
C3087 C 0.95171 0.26697 0.95236 0.0
C3088 C 0.93159 0.26151 0.97066 0.0
C3089 C 0.92524 0.2645 0.98576 0.0
C3090 C 0.93142 0.26671 0.00194 0.0
C3091 C 0.92543 0.2696 0.0161 0.0
C3092 C 0.9132 0.27021 0.01427 0.0
C3093 C 0.90691 0.2679 0.99828 0.0
C3094 C 0.91287 0.26502 0.98407 0.0
C3095 C 0.91349 0.20797 0.92585 0.0
C3096 C 0.90106 0.20581 0.91822 0.0
C3097 C 0.9224 0.22069 0.93529 0.0
C3098 C 0.91908 0.2315 0.93716 0.0
C3099 C 0.90665 0.22934 0.92966 0.0
C3100 C 0.89776 0.21665 0.92022 0.0
C3101 C 0.9286 0.24514 0.94684 0.0
C3102 C 0.92301 0.24887 0.9608 0.0
C3103 C 0.94313 0.25433 0.94253 0.0
C3104 C 0.9495 0.25133 0.92746 0.0
C3105 C 0.94366 0.24964 0.91117 0.0
C3106 C 0.94964 0.24669 0.89705 0.0
C3107 C 0.96154 0.24551 0.89904 0.0
C3108 C 0.9675 0.24733 0.91516 0.0
C3109 C 0.96155 0.25027 0.92932 0.0
H3110 H 0.96616 0.24323 0.8881 0.0
H3111 H 0.90858 0.27245 0.02525 0.0
H3112 H 0.68892 0.67155 0.95242 0.0
H3113 H 0.71145 0.67985 0.93772 0.0
H3114 H 0.72642 0.66694 0.97999 0.0
H3115 H 0.70389 0.65868 0.9949 0.0
H3116 H 0.74606 0.69439 0.96962 0.0
H3117 H 0.71678 0.64708 0.94381 0.0
H3118 H 0.69561 0.62726 0.92899 0.0
H3119 H 0.70415 0.65459 0.88634 0.0
H3120 H 0.72528 0.67465 0.90101 0.0
H3121 H 0.8065 0.69982 0.92925 0.0
H3122 H 0.7841 0.69194 0.94411 0.0
H3123 H 0.76867 0.70342 0.90096 0.0
H3124 H 0.79093 0.7109 0.88578 0.0
H3125 H 0.74922 0.67679 0.91179 0.0
H3126 H 0.77853 0.72407 0.93739 0.0
H3127 H 0.79964 0.74401 0.95216 0.0
H3128 H 0.79104 0.71698 0.99513 0.0
H3129 H 0.76998 0.6968 0.98052 0.0
C3130 C 0.69695 0.67037 0.95856 0.0
C3131 C 0.69462 0.66445 0.97483 0.0
C3132 C 0.70981 0.67508 0.95011 0.0
C3133 C 0.72055 0.67392 0.95773 0.0
C3134 C 0.71824 0.66792 0.97391 0.0
C3135 C 0.70534 0.66315 0.98236 0.0
C3136 C 0.73437 0.6794 0.949 0.0
C3137 C 0.7468 0.6904 0.95708 0.0
C3138 C 0.73522 0.67447 0.93245 0.0
C3139 C 0.72253 0.66241 0.92358 0.0
C3140 C 0.71408 0.6489 0.93133 0.0
C3141 C 0.7021 0.63762 0.92295 0.0
C3142 C 0.69852 0.63968 0.90675 0.0
C3143 C 0.70693 0.65302 0.89889 0.0
C3144 C 0.71892 0.66434 0.90723 0.0
C3145 C 0.79834 0.70067 0.92293 0.0
C3146 C 0.80045 0.70593 0.90633 0.0
C3147 C 0.7856 0.69629 0.93149 0.0
C3148 C 0.77476 0.69719 0.92368 0.0
C3149 C 0.77692 0.70267 0.90722 0.0
C3150 C 0.78968 0.70705 0.89863 0.0
C3151 C 0.76095 0.69179 0.93241 0.0
C3152 C 0.7485 0.6808 0.92433 0.0
C3153 C 0.76008 0.69676 0.94895 0.0
C3154 C 0.77275 0.70887 0.95778 0.0
C3155 C 0.7812 0.72233 0.94993 0.0
C3156 C 0.79315 0.73369 0.95828 0.0
C3157 C 0.7967 0.73175 0.97455 0.0
C3158 C 0.78829 0.71846 0.98252 0.0
C3159 C 0.77634 0.70706 0.97421 0.0
H3160 H 0.80595 0.74055 0.981 0.0
H3161 H 0.68924 0.63092 0.90028 0.0
H3162 H 0.96216 0.66797 0.99671 0.0
H3163 H 0.94788 0.67596 0.98279 0.0
H3164 H 0.97112 0.68177 0.93611 0.0
H3165 H 0.98556 0.67402 0.94996 0.0
H3166 H 0.96853 0.70462 0.94308 0.0
H3167 H 0.93737 0.65255 0.94121 0.0
H3168 H 0.92384 0.6281 0.95329 0.0
H3169 H 0.90009 0.64099 0.98473 0.0
H3170 H 0.91361 0.66559 0.97299 0.0
H3171 H 0.92278 0.7095 0.8849 0.0
H3172 H 0.93738 0.70283 0.90057 0.0
H3173 H 0.9122 0.69657 0.94565 0.0
H3174 H 0.89749 0.70311 0.92998 0.0
H3175 H 0.91576 0.67444 0.94057 0.0
H3176 H 0.9463 0.72628 0.94183 0.0
H3177 H 0.95977 0.75074 0.92979 0.0
H3178 H 0.98469 0.73848 0.89972 0.0
H3179 H 0.97123 0.71387 0.91141 0.0
C3180 C 0.96419 0.67088 0.98346 0.0
C3181 C 0.97499 0.67035 0.97444 0.0
C3182 C 0.95599 0.67541 0.97551 0.0
C3183 C 0.95838 0.67936 0.95838 0.0
C3184 C 0.96912 0.67879 0.94935 0.0
C3185 C 0.97733 0.67431 0.95729 0.0
C3186 C 0.94983 0.68428 0.94985 0.0
C3187 C 0.957 0.69796 0.94235 0.0
C3188 C 0.93477 0.67574 0.94932 0.0
C3189 C 0.92661 0.66095 0.95635 0.0
C3190 C 0.92934 0.6502 0.9508 0.0
C3191 C 0.92166 0.63631 0.95757 0.0
C3192 C 0.91114 0.633 0.96981 0.0
C3193 C 0.90826 0.64357 0.97527 0.0
C3194 C 0.91592 0.65748 0.96855 0.0
C3195 C 0.9205 0.7069 0.89822 0.0
C3196 C 0.90901 0.70682 0.90623 0.0
C3197 C 0.92884 0.70309 0.90716 0.0
C3198 C 0.92596 0.69932 0.92433 0.0
C3199 C 0.91459 0.69941 0.9324 0.0
C3200 C 0.9062 0.70313 0.92344 0.0
C3201 C 0.93446 0.69476 0.93369 0.0
C3202 C 0.92728 0.68115 0.94136 0.0
C3203 C 0.94951 0.70337 0.9344 0.0
C3204 C 0.95767 0.71819 0.92739 0.0
C3205 C 0.95458 0.72876 0.93256 0.0
C3206 C 0.96223 0.74266 0.92581 0.0
C3207 C 0.97306 0.74615 0.91397 0.0
C3208 C 0.97629 0.73576 0.90888 0.0
C3209 C 0.96867 0.72183 0.91558 0.0
H3210 H 0.97897 0.75692 0.90876 0.0
H3211 H 0.90521 0.62224 0.97503 0.0
H3212 H 0.32673 0.32013 0.96773 0.0
H3213 H 0.31875 0.29726 0.95227 0.0
H3214 H 0.33524 0.28364 0.99216 0.0
H3215 H 0.3435 0.30663 0.00762 0.0
H3216 H 0.34199 0.27772 0.96163 0.0
H3217 H 0.29962 0.27005 0.98873 0.0
H3218 H 0.28133 0.27564 0.99671 0.0
H3219 H 0.27021 0.27338 0.94415 0.0
H3220 H 0.28859 0.26798 0.93582 0.0
H3221 H 0.30724 0.20375 0.93666 0.0
H3222 H 0.31324 0.22565 0.95323 0.0
H3223 H 0.30101 0.24137 0.91109 0.0
H3224 H 0.29524 0.21959 0.89424 0.0
H3225 H 0.29169 0.24586 0.94305 0.0
H3226 H 0.33476 0.25398 0.91635 0.0
H3227 H 0.35289 0.24801 0.90897 0.0
H3228 H 0.3624 0.24899 0.96192 0.0
H3229 H 0.34415 0.25474 0.96963 0.0
C3230 C 0.32869 0.31229 0.97322 0.0
C3231 C 0.33571 0.31517 0.98894 0.0
C3232 C 0.32405 0.29919 0.9644 0.0
C3233 C 0.3262 0.28866 0.97119 0.0
C3234 C 0.33343 0.29161 0.98673 0.0
C3235 C 0.33813 0.30474 0.99555 0.0
C3236 C 0.32107 0.27466 0.96196 0.0
C3237 C 0.33095 0.27066 0.9578 0.0
C3238 C 0.30671 0.26558 0.95667 0.0
C3239 C 0.29558 0.26875 0.96164 0.0
C3240 C 0.29335 0.27086 0.97886 0.0
C3241 C 0.28296 0.27398 0.98345 0.0
C3242 C 0.27464 0.27491 0.97095 0.0
C3243 C 0.27667 0.27268 0.95382 0.0
C3244 C 0.28707 0.26957 0.94916 0.0
C3245 C 0.30584 0.21187 0.93089 0.0
C3246 C 0.30094 0.21002 0.91405 0.0
C3247 C 0.3092 0.22433 0.9404 0.0
C3248 C 0.30773 0.23518 0.93328 0.0
C3249 C 0.30222 0.2331 0.91678 0.0
C3250 C 0.29889 0.22064 0.9072 0.0
C3251 C 0.31262 0.24899 0.94278 0.0
C3252 C 0.30271 0.25294 0.94696 0.0
C3253 C 0.32693 0.25799 0.94819 0.0
C3254 C 0.33799 0.25465 0.94357 0.0
C3255 C 0.34064 0.25281 0.92643 0.0
C3256 C 0.35095 0.24948 0.92218 0.0
C3257 C 0.35876 0.24808 0.93497 0.0
C3258 C 0.35632 0.25005 0.95203 0.0
C3259 C 0.346 0.25336 0.95634 0.0
H3260 H 0.36674 0.24551 0.93166 0.0
H3261 H 0.2666 0.27732 0.97453 0.0
H3262 H 0.70532 0.0269 0.01793 0.0
H3263 H 0.728 0.04249 0.00326 0.0
H3264 H 0.70684 0.0266 0.95481 0.0
H3265 H 0.68422 0.01115 0.96925 0.0
H3266 H 0.73216 0.02641 0.95742 0.0
H3267 H 0.71493 0.05876 0.96814 0.0
H3268 H 0.70636 0.07151 0.98632 0.0
H3269 H 0.7454 0.09209 0.01479 0.0
H3270 H 0.75412 0.07929 0.99691 0.0
H3271 H 0.78129 0.07616 0.89832 0.0
H3272 H 0.76072 0.06015 0.91596 0.0
H3273 H 0.7839 0.08462 0.96088 0.0
H3274 H 0.80431 0.1009 0.94317 0.0
H3275 H 0.7586 0.08019 0.96225 0.0
H3276 H 0.77689 0.04959 0.9511 0.0
H3277 H 0.78586 0.03677 0.93376 0.0
H3278 H 0.74579 0.01266 0.90754 0.0
H3279 H 0.73663 0.02548 0.92456 0.0
C3280 C 0.7055 0.02678 0.00416 0.0
C3281 C 0.69297 0.01781 0.99476 0.0
C3282 C 0.71844 0.03568 0.99582 0.0
C3283 C 0.71905 0.03565 0.97797 0.0
C3284 C 0.70658 0.02672 0.96859 0.0
C3285 C 0.69365 0.01796 0.97688 0.0
C3286 C 0.73265 0.04491 0.96893 0.0
C3287 C 0.73793 0.03818 0.95834 0.0
C3288 C 0.74033 0.06022 0.97061 0.0
C3289 C 0.73511 0.06794 0.98132 0.0
C3290 C 0.72163 0.0659 0.97838 0.0
C3291 C 0.71676 0.07316 0.9886 0.0
C3292 C 0.72532 0.08257 0.00174 0.0
C3293 C 0.73878 0.08477 0.00463 0.0
C3294 C 0.74369 0.07753 0.99445 0.0
C3295 C 0.78203 0.07798 0.91198 0.0
C3296 C 0.79435 0.08974 0.9194 0.0
C3297 C 0.7703 0.06882 0.92207 0.0
C3298 C 0.7708 0.07106 0.9398 0.0
C3299 C 0.78323 0.08267 0.94724 0.0
C3300 C 0.79488 0.09195 0.93713 0.0
C3301 C 0.75814 0.06173 0.95048 0.0
C3302 C 0.75299 0.06843 0.96141 0.0
C3303 C 0.75067 0.04637 0.94926 0.0
C3304 C 0.75612 0.03859 0.93902 0.0
C3305 C 0.77002 0.04163 0.94155 0.0
C3306 C 0.77513 0.03435 0.9318 0.0
C3307 C 0.76641 0.02393 0.91953 0.0
C3308 C 0.75254 0.02074 0.91703 0.0
C3309 C 0.74738 0.028 0.92675 0.0
H3310 H 0.77039 0.01831 0.91199 0.0
H3311 H 0.72153 0.08818 0.00964 0.0
H3312 H 0.66163 0.95351 0.0133 0.0
H3313 H 0.67068 0.94046 0.02823 0.0
H3314 H 0.64888 0.94114 0.07384 0.0
H3315 H 0.63976 0.95411 0.05907 0.0
H3316 H 0.6775 0.95119 0.07904 0.0
H3317 H 0.6364 0.91027 0.05191 0.0
H3318 H 0.62113 0.89616 0.0275 0.0
H3319 H 0.65568 0.8942 0.00479 0.0
H3320 H 0.67122 0.90847 0.02898 0.0
H3321 H 0.68368 0.90376 0.13207 0.0
H3322 H 0.67558 0.91621 0.11458 0.0
H3323 H 0.69378 0.90785 0.07013 0.0
H3324 H 0.70116 0.89455 0.08741 0.0
H3325 H 0.66847 0.90248 0.06277 0.0
H3326 H 0.70946 0.94225 0.08959 0.0
H3327 H 0.72543 0.95673 0.11336 0.0
H3328 H 0.69252 0.96178 0.1356 0.0
H3329 H 0.67628 0.94716 0.11207 0.0
C3330 C 0.65861 0.95072 0.02644 0.0
C3331 C 0.65001 0.95488 0.03501 0.0
C3332 C 0.66378 0.94326 0.03494 0.0
C3333 C 0.66045 0.93987 0.05213 0.0
C3334 C 0.6516 0.9437 0.06058 0.0
C3335 C 0.64635 0.95106 0.05209 0.0
C3336 C 0.66668 0.93291 0.06159 0.0
C3337 C 0.67542 0.94047 0.07562 0.0
C3338 C 0.66436 0.91918 0.05669 0.0
C3339 C 0.65502 0.91058 0.04216 0.0
C3340 C 0.64078 0.90694 0.04164 0.0
C3341 C 0.63207 0.89889 0.02786 0.0
C3342 C 0.63744 0.89432 0.01457 0.0
C3343 C 0.65153 0.89777 0.01507 0.0
C3344 C 0.6603 0.90583 0.02882 0.0
C3345 C 0.68589 0.90446 0.11856 0.0
C3346 C 0.69304 0.89809 0.11116 0.0
C3347 C 0.68141 0.91177 0.10859 0.0
C3348 C 0.68424 0.91316 0.09106 0.0
C3349 C 0.69152 0.90697 0.08364 0.0
C3350 C 0.69588 0.89951 0.09359 0.0
C3351 C 0.67916 0.92066 0.08046 0.0
C3352 C 0.67067 0.91324 0.06617 0.0
C3353 C 0.68185 0.93462 0.085 0.0
C3354 C 0.69161 0.94351 0.09913 0.0
C3355 C 0.70559 0.94636 0.09961 0.0
C3356 C 0.7147 0.95461 0.11303 0.0
C3357 C 0.70998 0.96015 0.126 0.0
C3358 C 0.69616 0.95748 0.12555 0.0
C3359 C 0.687 0.94923 0.11216 0.0
H3360 H 0.71705 0.96652 0.13638 0.0
H3361 H 0.63068 0.88809 0.00392 0.0
H3362 H 0.03871 0.71485 0.0025 0.0
H3363 H 0.05368 0.73708 0.01943 0.0
H3364 H 0.03649 0.71316 0.06553 0.0
H3365 H 0.02144 0.69096 0.04878 0.0
H3366 H 0.03644 0.73817 0.06631 0.0
H3367 H 0.06965 0.72333 0.05244 0.0
H3368 H 0.08289 0.71623 0.03319 0.0
H3369 H 0.10183 0.75722 0.00854 0.0
H3370 H 0.08854 0.76449 0.0275 0.0
H3371 H 0.08475 0.78733 0.12806 0.0
H3372 H 0.07026 0.76652 0.10905 0.0
H3373 H 0.09094 0.79318 0.06559 0.0
H3374 H 0.1059 0.81393 0.08457 0.0
H3375 H 0.08916 0.76775 0.06201 0.0
H3376 H 0.05693 0.78317 0.0765 0.0
H3377 H 0.04372 0.79043 0.09558 0.0
H3378 H 0.02283 0.74865 0.11863 0.0
H3379 H 0.03607 0.7412 0.09985 0.0
C3380 C 0.03819 0.71431 0.01624 0.0
C3381 C 0.02889 0.70114 0.02429 0.0
C3382 C 0.04676 0.72701 0.02589 0.0
C3383 C 0.04622 0.72674 0.04373 0.0
C3384 C 0.03704 0.7136 0.05177 0.0
C3385 C 0.02849 0.70091 0.04217 0.0
C3386 C 0.05496 0.74018 0.05409 0.0
C3387 C 0.04798 0.74456 0.06551 0.0
C3388 C 0.06997 0.74873 0.05265 0.0
C3389 C 0.07798 0.74439 0.04127 0.0
C3390 C 0.07654 0.73078 0.04282 0.0
C3391 C 0.08407 0.72673 0.03198 0.0
C3392 C 0.09316 0.73625 0.01962 0.0
C3393 C 0.09477 0.74985 0.0181 0.0
C3394 C 0.08725 0.75394 0.0289 0.0
C3395 C 0.08627 0.78876 0.11446 0.0
C3396 C 0.09648 0.8023 0.10783 0.0
C3397 C 0.07787 0.77689 0.10361 0.0
C3398 C 0.0794 0.77834 0.0859 0.0
C3399 C 0.08955 0.79184 0.07922 0.0
C3400 C 0.09799 0.80372 0.09008 0.0
C3401 C 0.07065 0.76565 0.0744 0.0
C3402 C 0.07762 0.76142 0.06274 0.0
C3403 C 0.05561 0.75726 0.07558 0.0
C3404 C 0.04758 0.76167 0.08686 0.0
C3405 C 0.0496 0.77556 0.08572 0.0
C3406 C 0.0421 0.77971 0.09647 0.0
C3407 C 0.03247 0.77002 0.10833 0.0
C3408 C 0.0303 0.75615 0.10944 0.0
C3409 C 0.03779 0.75195 0.09874 0.0
H3410 H 0.02667 0.77324 0.11664 0.0
H3411 H 0.09898 0.7331 0.01124 0.0
H3412 H 0.2953 0.31346 0.03714 0.0
H3413 H 0.27345 0.30703 0.0525 0.0
H3414 H 0.28265 0.35068 0.04748 0.0
H3415 H 0.3046 0.35725 0.03197 0.0
H3416 H 0.27511 0.33978 0.08086 0.0
H3417 H 0.25766 0.32505 0.02343 0.0
H3418 H 0.25479 0.31217 0.99601 0.0
H3419 H 0.23419 0.27139 0.02133 0.0
H3420 H 0.23713 0.28404 0.04894 0.0
H3421 H 0.20931 0.32703 0.11121 0.0
H3422 H 0.23011 0.33378 0.09339 0.0
H3423 H 0.21839 0.28897 0.09052 0.0
H3424 H 0.19735 0.28213 0.10809 0.0
H3425 H 0.22728 0.30075 0.06062 0.0
H3426 H 0.24503 0.31393 0.1174 0.0
H3427 H 0.24866 0.32556 0.14583 0.0
H3428 H 0.26936 0.36755 0.12331 0.0
H3429 H 0.26569 0.35616 0.09472 0.0
C3430 C 0.29268 0.32171 0.03923 0.0
C3431 C 0.30167 0.33587 0.03334 0.0
C3432 C 0.28016 0.31799 0.04797 0.0
C3433 C 0.27642 0.32836 0.05101 0.0
C3434 C 0.28537 0.34253 0.0452 0.0
C3435 C 0.29786 0.34624 0.03631 0.0
C3436 C 0.2633 0.32443 0.0606 0.0
C3437 C 0.26461 0.33143 0.07633 0.0
C3438 C 0.24971 0.31316 0.05491 0.0
C3439 C 0.24772 0.30551 0.03827 0.0
C3440 C 0.2526 0.31334 0.02316 0.0
C3441 C 0.25095 0.30608 0.00759 0.0
C3442 C 0.24434 0.29097 0.00694 0.0
C3443 C 0.23932 0.28309 0.02186 0.0
C3444 C 0.24096 0.2903 0.03747 0.0
C3445 C 0.2112 0.31863 0.10679 0.0
C3446 C 0.20182 0.30408 0.11113 0.0
C3447 C 0.22308 0.32249 0.09663 0.0
C3448 C 0.22596 0.31192 0.09088 0.0
C3449 C 0.2164 0.29731 0.09485 0.0
C3450 C 0.2044 0.29342 0.10486 0.0
C3451 C 0.23904 0.31615 0.08092 0.0
C3452 C 0.23775 0.30918 0.06514 0.0
C3453 C 0.2527 0.32727 0.08672 0.0
C3454 C 0.25496 0.33418 0.1039 0.0
C3455 C 0.25026 0.32564 0.1185 0.0
C3456 C 0.25234 0.33219 0.13465 0.0
C3457 C 0.2592 0.34728 0.13637 0.0
C3458 C 0.26403 0.35586 0.12195 0.0
C3459 C 0.26196 0.34936 0.10578 0.0
H3460 H 0.2608 0.35233 0.14888 0.0
H3461 H 0.24309 0.28537 0.99487 0.0
H3462 H 0.70412 0.67425 0.35633 0.0
H3463 H 0.71715 0.66497 0.37063 0.0
H3464 H 0.68763 0.65147 0.41261 0.0
H3465 H 0.67455 0.66073 0.39845 0.0
H3466 H 0.7156 0.6657 0.42308 0.0
H3467 H 0.68481 0.62668 0.38465 0.0
H3468 H 0.67404 0.6156 0.35679 0.0
H3469 H 0.71522 0.62796 0.33681 0.0
H3470 H 0.72628 0.63932 0.36449 0.0
H3471 H 0.73931 0.62466 0.46324 0.0
H3472 H 0.72376 0.63085 0.44897 0.0
H3473 H 0.75019 0.64236 0.40415 0.0
H3474 H 0.76543 0.63561 0.41806 0.0
H3475 H 0.72273 0.62826 0.39551 0.0
H3476 H 0.75372 0.66831 0.43301 0.0
H3477 H 0.76491 0.68004 0.46049 0.0
H3478 H 0.72381 0.66634 0.48181 0.0
H3479 H 0.71235 0.65435 0.4545 0.0
C3480 C 0.70042 0.66934 0.36862 0.0
C3481 C 0.68828 0.66819 0.37624 0.0
C3482 C 0.70783 0.66398 0.37673 0.0
C3483 C 0.70325 0.65741 0.39258 0.0
C3484 C 0.6913 0.65647 0.40035 0.0
C3485 C 0.68383 0.66174 0.39222 0.0
C3486 C 0.711 0.65159 0.40113 0.0
C3487 C 0.71698 0.65735 0.41719 0.0
C3488 C 0.71303 0.64093 0.39323 0.0
C3489 C 0.70639 0.63398 0.37661 0.0
C3490 C 0.69159 0.62714 0.37428 0.0
C3491 C 0.68543 0.62079 0.35853 0.0
C3492 C 0.69394 0.62111 0.34503 0.0
C3493 C 0.70864 0.62774 0.34728 0.0
C3494 C 0.71486 0.63412 0.363 0.0
C3495 C 0.74167 0.62826 0.45024 0.0
C3496 C 0.75369 0.62977 0.44184 0.0
C3497 C 0.73285 0.63193 0.44216 0.0
C3498 C 0.73596 0.63731 0.4256 0.0
C3499 C 0.74764 0.63831 0.41697 0.0
C3500 C 0.75641 0.63458 0.425 0.0
C3501 C 0.7274 0.64241 0.41746 0.0
C3502 C 0.72128 0.63654 0.40146 0.0
C3503 C 0.72529 0.65303 0.42537 0.0
C3504 C 0.73217 0.6603 0.44177 0.0
C3505 C 0.74706 0.6677 0.4436 0.0
C3506 C 0.75345 0.67441 0.45913 0.0
C3507 C 0.74507 0.6739 0.4729 0.0
C3508 C 0.73028 0.66671 0.47114 0.0
C3509 C 0.72383 0.65996 0.45563 0.0
H3510 H 0.75004 0.6791 0.48492 0.0
H3511 H 0.68915 0.61619 0.33284 0.0
H3512 H 0.34514 0.03047 0.36639 0.0
H3513 H 0.35278 0.05421 0.37944 0.0
H3514 H 0.30988 0.03815 0.39681 0.0
H3515 H 0.3021 0.01433 0.38377 0.0
H3516 H 0.32263 0.06547 0.38239 0.0
H3517 H 0.33368 0.04117 0.42417 0.0
H3518 H 0.34454 0.02789 0.43441 0.0
H3519 H 0.38611 0.06368 0.42165 0.0
H3520 H 0.37547 0.0771 0.41109 0.0
H3521 H 0.33457 0.11905 0.44444 0.0
H3522 H 0.32797 0.09667 0.4287 0.0
H3523 H 0.37225 0.1133 0.41747 0.0
H3524 H 0.37901 0.13553 0.43391 0.0
H3525 H 0.3596 0.0862 0.42753 0.0
H3526 H 0.34909 0.1111 0.38683 0.0
H3527 H 0.33855 0.12454 0.3761 0.0
H3528 H 0.29657 0.08814 0.38597 0.0
H3529 H 0.30686 0.07455 0.39699 0.0
C3530 C 0.3373 0.03198 0.37295 0.0
C3531 C 0.32301 0.0205 0.37411 0.0
C3532 C 0.34171 0.04554 0.38043 0.0
C3533 C 0.33191 0.04788 0.38918 0.0
C3534 C 0.3176 0.03654 0.3901 0.0
C3535 C 0.31319 0.02293 0.38271 0.0
C3536 C 0.33665 0.06211 0.39757 0.0
C3537 C 0.33059 0.06996 0.3924 0.0
C3538 C 0.34734 0.0681 0.41025 0.0
C3539 C 0.35376 0.06008 0.41667 0.0
C3540 C 0.34513 0.04616 0.42341 0.0
C3541 C 0.35124 0.03861 0.4293 0.0
C3542 C 0.366 0.04492 0.42864 0.0
C3543 C 0.37468 0.0588 0.42213 0.0
C3544 C 0.36861 0.06639 0.4162 0.0
C3545 C 0.34293 0.11793 0.43872 0.0
C3546 C 0.35734 0.12907 0.4405 0.0
C3547 C 0.33912 0.10519 0.42953 0.0
C3548 C 0.34959 0.10337 0.42172 0.0
C3549 C 0.36398 0.1145 0.42334 0.0
C3550 C 0.36782 0.12725 0.43261 0.0
C3551 C 0.34553 0.08961 0.41244 0.0
C3552 C 0.3517 0.08181 0.41745 0.0
C3553 C 0.335 0.08372 0.39953 0.0
C3554 C 0.32876 0.09185 0.39287 0.0
C3555 C 0.33761 0.106 0.38684 0.0
C3556 C 0.33168 0.11364 0.38068 0.0
C3557 C 0.3169 0.10721 0.38039 0.0
C3558 C 0.30802 0.09311 0.38622 0.0
C3559 C 0.31389 0.08543 0.3924 0.0
H3560 H 0.31233 0.11314 0.37562 0.0
H3561 H 0.37072 0.03906 0.43321 0.0
H3562 H 0.98698 0.29496 0.36994 0.0
H3563 H 0.96387 0.28 0.38366 0.0
H3564 H 0.95707 0.31568 0.38305 0.0
H3565 H 0.98028 0.33081 0.36947 0.0
H3566 H 0.95001 0.30254 0.41348 0.0
H3567 H 0.93986 0.28771 0.35496 0.0
H3568 H 0.94319 0.27913 0.32694 0.0
H3569 H 0.93553 0.23984 0.34902 0.0
H3570 H 0.93235 0.24829 0.37723 0.0
H3571 H 0.87678 0.25879 0.4368 0.0
H3572 H 0.89839 0.27484 0.42056 0.0
H3573 H 0.90926 0.24201 0.41955 0.0
H3574 H 0.88759 0.22585 0.43543 0.0
H3575 H 0.91347 0.25456 0.38879 0.0
H3576 H 0.92511 0.27005 0.44745 0.0
H3577 H 0.92191 0.2786 0.47556 0.0
H3578 H 0.92682 0.31666 0.45315 0.0
H3579 H 0.92984 0.30821 0.42484 0.0
C3580 C 0.98059 0.29964 0.37271 0.0
C3581 C 0.98546 0.31407 0.36856 0.0
C3582 C 0.96735 0.29105 0.38048 0.0
C3583 C 0.95868 0.29668 0.38417 0.0
C3584 C 0.96358 0.31113 0.38026 0.0
C3585 C 0.97683 0.31974 0.37247 0.0
C3586 C 0.94458 0.28749 0.3923 0.0
C3587 C 0.94192 0.29216 0.40794 0.0
C3588 C 0.93414 0.27384 0.3852 0.0
C3589 C 0.93599 0.2687 0.36824 0.0
C3590 C 0.93899 0.27729 0.35387 0.0
C3591 C 0.94083 0.27244 0.33794 0.0
C3592 C 0.9396 0.25896 0.33621 0.0
C3593 C 0.93649 0.25029 0.35039 0.0
C3594 C 0.93466 0.2551 0.36634 0.0
C3595 C 0.88371 0.25496 0.43294 0.0
C3596 C 0.88056 0.24111 0.43748 0.0
C3597 C 0.89608 0.26416 0.42378 0.0
C3598 C 0.90549 0.25966 0.41902 0.0
C3599 C 0.90216 0.2457 0.42315 0.0
C3600 C 0.88985 0.23654 0.43234 0.0
C3601 C 0.91897 0.26955 0.41004 0.0
C3602 C 0.92152 0.265 0.39424 0.0
C3603 C 0.9293 0.28331 0.41699 0.0
C3604 C 0.92753 0.28842 0.434 0.0
C3605 C 0.92538 0.28018 0.44849 0.0
C3606 C 0.92363 0.28502 0.46447 0.0
C3607 C 0.92412 0.29814 0.46613 0.0
C3608 C 0.92641 0.30648 0.45183 0.0
C3609 C 0.92815 0.30167 0.43582 0.0
H3610 H 0.92276 0.30187 0.47851 0.0
H3611 H 0.94103 0.25522 0.32387 0.0
H3612 H 0.03072 0.38697 0.31392 0.0
H3613 H 0.02877 0.40409 0.29636 0.0
H3614 H 0.98346 0.37379 0.29162 0.0
H3615 H 0.98537 0.35647 0.30881 0.0
H3616 H 0.99444 0.38501 0.26185 0.0
H3617 H 0.99759 0.40409 0.31863 0.0
H3618 H 0.00816 0.41309 0.3471 0.0
H3619 H 0.04636 0.4476 0.32458 0.0
H3620 H 0.03609 0.43868 0.29595 0.0
H3621 H 0.97409 0.43297 0.23323 0.0
H3622 H 0.97735 0.41618 0.2498 0.0
H3623 H 0.0228 0.44658 0.25017 0.0
H3624 H 0.01958 0.46358 0.23391 0.0
H3625 H 0.01257 0.4357 0.28161 0.0
H3626 H 0.00879 0.41689 0.22473 0.0
H3627 H 0.99782 0.40793 0.19644 0.0
H3628 H 0.9603 0.37286 0.21942 0.0
H3629 H 0.97097 0.38174 0.24788 0.0
C3630 C 0.02033 0.38396 0.30918 0.0
C3631 C 0.00819 0.37038 0.3128 0.0
C3632 C 0.01923 0.39378 0.29919 0.0
C3633 C 0.00594 0.39029 0.29285 0.0
C3634 C 0.99382 0.37671 0.29639 0.0
C3635 C 0.99493 0.36684 0.30625 0.0
C3636 C 0.00465 0.40071 0.28236 0.0
C3637 C 0.99825 0.39604 0.26627 0.0
C3638 C 0.00994 0.41522 0.28794 0.0
C3639 C 0.01612 0.42062 0.30514 0.0
C3640 C 0.00829 0.41353 0.31974 0.0
C3641 C 0.01422 0.41863 0.33591 0.0
C3642 C 0.02794 0.43089 0.33765 0.0
C3643 C 0.03574 0.43809 0.32321 0.0
C3644 C 0.02987 0.43303 0.30702 0.0
C3645 C 0.98477 0.4361 0.2369 0.0
C3646 C 0.99658 0.44958 0.23226 0.0
C3647 C 0.98663 0.42646 0.24624 0.0
C3648 C 0.00033 0.4301 0.25107 0.0
C3649 C 0.01214 0.44356 0.24651 0.0
C3650 C 0.0103 0.4532 0.23711 0.0
C3651 C 0.00227 0.41995 0.2612 0.0
C3652 C 0.00881 0.42468 0.2772 0.0
C3653 C 0.99705 0.40548 0.25557 0.0
C3654 C 0.99064 0.40006 0.23846 0.0
C3655 C 0.99816 0.40734 0.22377 0.0
C3656 C 0.992 0.40226 0.2077 0.0
C3657 C 0.97836 0.38986 0.20614 0.0
C3658 C 0.97086 0.38248 0.22065 0.0
C3659 C 0.97697 0.38752 0.23675 0.0
H3660 H 0.9736 0.38594 0.19368 0.0
H3661 H 0.03251 0.43482 0.35017 0.0
H3662 H 0.63469 0.64032 0.33595 0.0
H3663 H 0.61777 0.61682 0.32258 0.0
H3664 H 0.61733 0.63844 0.27753 0.0
H3665 H 0.63374 0.66199 0.29116 0.0
H3666 H 0.59189 0.61698 0.28308 0.0
H3667 H 0.63794 0.62236 0.28123 0.0
H3668 H 0.66041 0.62668 0.29319 0.0
H3669 H 0.63698 0.58916 0.32416 0.0
H3670 H 0.61435 0.58472 0.31254 0.0
H3671 H 0.57099 0.56013 0.22173 0.0
H3672 H 0.58563 0.58225 0.23876 0.0
H3673 H 0.57385 0.55714 0.28424 0.0
H3674 H 0.55859 0.53492 0.26743 0.0
H3675 H 0.60442 0.57922 0.27999 0.0
H3676 H 0.55816 0.57364 0.27942 0.0
H3677 H 0.53643 0.5697 0.26571 0.0
H3678 H 0.56154 0.60833 0.23696 0.0
H3679 H 0.58346 0.61238 0.25032 0.0
C3680 C 0.63087 0.64005 0.32325 0.0
C3681 C 0.63558 0.65296 0.31454 0.0
C3682 C 0.62127 0.62661 0.31558 0.0
C3683 C 0.61653 0.62582 0.29889 0.0
C3684 C 0.62087 0.63875 0.2904 0.0
C3685 C 0.63026 0.65221 0.29819 0.0
C3686 C 0.6073 0.61156 0.29008 0.0
C3687 C 0.59473 0.60881 0.28229 0.0
C3688 C 0.61084 0.60074 0.28927 0.0
C3689 C 0.62444 0.6033 0.29615 0.0
C3690 C 0.63757 0.61508 0.29067 0.0
C3691 C 0.65034 0.61755 0.29738 0.0
C3692 C 0.65012 0.60823 0.30947 0.0
C3693 C 0.63713 0.59639 0.31482 0.0
C3694 C 0.62433 0.59389 0.30817 0.0
C3695 C 0.57134 0.55927 0.23537 0.0
C3696 C 0.56344 0.54571 0.24321 0.0
C3697 C 0.57981 0.57193 0.24505 0.0
C3698 C 0.5807 0.57129 0.26272 0.0
C3699 C 0.57327 0.5578 0.27059 0.0
C3700 C 0.56462 0.54511 0.26093 0.0
C3701 C 0.5892 0.58482 0.27294 0.0
C3702 C 0.6016 0.58741 0.28094 0.0
C3703 C 0.58564 0.59558 0.27372 0.0
C3704 C 0.57246 0.59324 0.26576 0.0
C3705 C 0.55906 0.58123 0.27007 0.0
C3706 C 0.54671 0.57899 0.26238 0.0
C3707 C 0.54761 0.58874 0.25044 0.0
C3708 C 0.56086 0.60078 0.2462 0.0
C3709 C 0.57325 0.60306 0.25384 0.0
H3710 H 0.53803 0.58699 0.2445 0.0
H3711 H 0.66001 0.61016 0.31466 0.0
H3712 H 0.36077 0.98384 0.33272 0.0
H3713 H 0.38121 0.9862 0.31712 0.0
H3714 H 0.37473 0.00887 0.27752 0.0
H3715 H 0.3543 0.00652 0.29292 0.0
H3716 H 0.37913 0.98779 0.26479 0.0
H3717 H 0.40095 0.02743 0.30596 0.0
H3718 H 0.40581 0.0385 0.33481 0.0
H3719 H 0.42253 0.01246 0.34941 0.0
H3720 H 0.41758 0.00109 0.32069 0.0
H3721 H 0.44384 0.01711 0.21983 0.0
H3722 H 0.42379 0.01415 0.23669 0.0
H3723 H 0.4344 0.99493 0.2766 0.0
H3724 H 0.45491 0.99852 0.26017 0.0
H3725 H 0.42766 0.0132 0.2898 0.0
H3726 H 0.40665 0.97395 0.2489 0.0
H3727 H 0.40165 0.96238 0.22032 0.0
H3728 H 0.38311 0.9867 0.20552 0.0
H3729 H 0.38819 0.99858 0.23396 0.0
C3730 C 0.36371 0.98934 0.3207 0.0
C3731 C 0.35593 0.99502 0.31408 0.0
C3732 C 0.37541 0.99071 0.31184 0.0
C3733 C 0.37953 0.9978 0.29623 0.0
C3734 C 0.37172 0.00337 0.28955 0.0
C3735 C 0.36008 0.00205 0.29841 0.0
C3736 C 0.39193 0.99937 0.28675 0.0
C3737 C 0.38978 0.99349 0.27016 0.0
C3738 C 0.40572 0.00643 0.29399 0.0
C3739 C 0.40875 0.0133 0.31123 0.0
C3740 C 0.40555 0.02398 0.31536 0.0
C3741 C 0.40834 0.03032 0.33169 0.0
C3742 C 0.41444 0.02615 0.34395 0.0
C3743 C 0.41779 0.01566 0.33991 0.0
C3744 C 0.415 0.00927 0.32361 0.0
C3745 C 0.44204 0.01243 0.23229 0.0
C3746 C 0.45097 0.00801 0.23861 0.0
C3747 C 0.43046 0.01058 0.24183 0.0
C3748 C 0.42745 0.00409 0.25779 0.0
C3749 C 0.43647 -0.00011 0.26427 0.0
C3750 C 0.44812 0.00182 0.25478 0.0
C3751 C 0.41491 0.00174 0.26772 0.0
C3752 C 0.41702 0.00745 0.28441 0.0
C3753 C 0.40105 0.99442 0.26062 0.0
C3754 C 0.39792 0.98725 0.24352 0.0
C3755 C 0.40161 0.97691 0.23952 0.0
C3756 C 0.39874 0.97029 0.22335 0.0
C3757 C 0.3921 0.97383 0.2111 0.0
C3758 C 0.38827 0.98398 0.21502 0.0
C3759 C 0.39113 0.99065 0.23116 0.0
H3760 H 0.38989 0.96869 0.19859 0.0
H3761 H 0.41659 0.03108 0.35658 0.0
H3762 H 0.63751 0.01636 0.33626 0.0
H3763 H 0.62058 0.01797 0.31829 0.0
H3764 H 0.60445 0.97431 0.29916 0.0
H3765 H 0.62156 0.97272 0.31683 0.0
H3766 H 0.60939 0.99184 0.27382 0.0
H3767 H 0.58503 0.98218 0.32707 0.0
H3768 H 0.58218 0.98563 0.35766 0.0
H3769 H 0.59134 0.02865 0.34881 0.0
H3770 H 0.59444 0.02553 0.31818 0.0
H3771 H 0.5486 0.98351 0.2322 0.0
H3772 H 0.5641 0.98073 0.25159 0.0
H3773 H 0.58368 0.02561 0.26784 0.0
H3774 H 0.56808 0.02841 0.24864 0.0
H3775 H 0.57642 0.00693 0.29476 0.0
H3776 H 0.60112 0.01625 0.24126 0.0
H3777 H 0.60344 0.0122 0.2107 0.0
H3778 H 0.59288 0.96881 0.2203 0.0
H3779 H 0.59029 0.97254 0.25091 0.0
C3780 C 0.63027 0.00705 0.32836 0.0
C3781 C 0.6309 0.99442 0.32795 0.0
C3782 C 0.62055 0.00797 0.31814 0.0
C3783 C 0.61117 0.99622 0.30747 0.0
C3784 C 0.61161 0.98351 0.30727 0.0
C3785 C 0.62137 0.98261 0.31742 0.0
C3786 C 0.60136 0.99744 0.29595 0.0
C3787 C 0.60202 0.99491 0.27845 0.0
C3788 C 0.59197 0.00175 0.30193 0.0
C3789 C 0.5901 0.00367 0.32035 0.0
C3790 C 0.58655 0.99242 0.33166 0.0
C3791 C 0.58487 0.99431 0.34901 0.0
C3792 C 0.58661 0.00737 0.35518 0.0
C3793 C 0.59001 0.01855 0.34401 0.0
C3794 C 0.59172 0.01672 0.32666 0.0
C3795 C 0.55619 0.99277 0.23994 0.0
C3796 C 0.55717 0.00619 0.23889 0.0
C3797 C 0.56508 0.99119 0.25093 0.0
C3798 C 0.57508 0.00299 0.26106 0.0
C3799 C 0.57604 0.01638 0.2601 0.0
C3800 C 0.56722 0.018 0.24903 0.0
C3801 C 0.5845 0.00135 0.27271 0.0
C3802 C 0.58377 0.00381 0.2902 0.0
C3803 C 0.59376 0.99687 0.26675 0.0
C3804 C 0.59537 0.99463 0.24835 0.0
C3805 C 0.59917 0.00581 0.23684 0.0
C3806 C 0.60056 0.00357 0.21951 0.0
C3807 C 0.59827 0.99024 0.21355 0.0
C3808 C 0.59463 0.97912 0.22493 0.0
C3809 C 0.59321 0.98129 0.24227 0.0
H3810 H 0.59935 0.98853 0.20013 0.0
H3811 H 0.5853 0.0088 0.36861 0.0
H3812 H 0.99271 0.65042 0.3114 0.0
H3813 H 0.9898 0.6293 0.29547 0.0
H3814 H 0.02476 0.63248 0.32318 0.0
H3815 H 0.02755 0.65346 0.33953 0.0
H3816 H 0.02476 0.62994 0.28461 0.0
H3817 H 0.99618 0.60744 0.33457 0.0
H3818 H 0.97756 0.60294 0.35556 0.0
H3819 H 0.94623 0.58656 0.31578 0.0
H3820 H 0.96472 0.59117 0.29451 0.0
H3821 H 0.0168 0.56479 0.25184 0.0
H3822 H 0.02016 0.58457 0.27095 0.0
H3823 H 0.97762 0.57414 0.25935 0.0
H3824 H 0.97405 0.5539 0.24088 0.0
H3825 H 0.98204 0.58053 0.29105 0.0
H3826 H 0.00879 0.60338 0.24099 0.0
H3827 H 0.02645 0.60906 0.21824 0.0
H3828 H 0.05994 0.62602 0.25538 0.0
H3829 H 0.04244 0.62026 0.27839 0.0
C3830 C -0.00023 0.64662 0.31413 0.0
C3831 C 0.01036 0.65357 0.32671 0.0
C3832 C 0.99807 0.63456 0.30505 0.0
C3833 C 0.00705 0.62938 0.30824 0.0
C3834 C 0.01774 0.63637 0.32062 0.0
C3835 C 0.01928 0.64828 0.32995 0.0
C3836 C 0.0053 0.61674 0.29841 0.0
C3837 C 0.01557 0.61906 0.28616 0.0
C3838 C 0.99302 0.60274 0.30013 0.0
C3839 C 0.98186 0.59979 0.31293 0.0
C3840 C 0.98534 0.603 0.33028 0.0
C3841 C 0.97481 0.6004 0.34223 0.0
C3842 C 0.96073 0.5945 0.337 0.0
C3843 C 0.95714 0.59114 0.31981 0.0
C3844 C 0.96765 0.59373 0.30781 0.0
C3845 C 0.00819 0.56675 0.25345 0.0
C3846 C 0.99521 0.55794 0.24488 0.0
C3847 C 0.01012 0.57807 0.26429 0.0
C3848 C -0.00075 0.58106 0.26634 0.0
C3849 C 0.98617 0.57207 0.25797 0.0
C3850 C 0.98414 0.56055 0.24741 0.0
C3851 C 0.00153 0.59362 0.27707 0.0
C3852 C 0.99132 0.59134 0.28949 0.0
C3853 C 0.01373 0.60775 0.27523 0.0
C3854 C 0.02429 0.61125 0.26142 0.0
C3855 C 0.01991 0.60823 0.24432 0.0
C3856 C 0.02989 0.61147 0.23137 0.0
C3857 C 0.0443 0.61786 0.23537 0.0
C3858 C 0.04877 0.62105 0.25231 0.0
C3859 C 0.03883 0.61781 0.26531 0.0
H3860 H 0.05202 0.62037 0.22533 0.0
H3861 H 0.95259 0.59251 0.34627 0.0
H3862 H 0.3578 0.35249 0.31558 0.0
H3863 H 0.37975 0.36878 0.30043 0.0
H3864 H 0.36421 0.39692 0.29008 0.0
H3865 H 0.34199 0.38046 0.30501 0.0
H3866 H 0.37591 0.39256 0.26225 0.0
H3867 H 0.3897 0.40637 0.32035 0.0
H3868 H 0.39216 0.4025 0.35053 0.0
H3869 H 0.41774 0.38476 0.33646 0.0
H3870 H 0.41528 0.38834 0.30616 0.0
H3871 H 0.44317 0.45053 0.23392 0.0
H3872 H 0.42114 0.43599 0.24996 0.0
H3873 H 0.43329 0.40513 0.26048 0.0
H3874 H 0.4553 0.41953 0.2443 0.0
H3875 H 0.42333 0.41209 0.28874 0.0
H3876 H 0.40865 0.39745 0.23058 0.0
H3877 H 0.40617 0.40138 0.20042 0.0
H3878 H 0.38226 0.42094 0.21483 0.0
H3879 H 0.38477 0.41731 0.2451 0.0
C3880 C 0.35903 0.36216 0.31015 0.0
C3881 C 0.34815 0.3652 0.31155 0.0
C3882 C 0.37163 0.37151 0.30155 0.0
C3883 C 0.3737 0.38417 0.29434 0.0
C3884 C 0.36284 0.38722 0.29561 0.0
C3885 C 0.35017 0.37783 0.30417 0.0
C3886 C 0.3871 0.39402 0.28516 0.0
C3887 C 0.38628 0.39704 0.26813 0.0
C3888 C 0.40062 0.39961 0.29274 0.0
C3889 C 0.4022 0.39752 0.31097 0.0
C3890 C 0.39577 0.40155 0.32368 0.0
C3891 C 0.39718 0.39942 0.34081 0.0
C3892 C 0.40508 0.39336 0.3454 0.0
C3893 C 0.41162 0.38945 0.33288 0.0
C3894 C 0.41023 0.39154 0.31572 0.0
C3895 C 0.44109 0.44056 0.23949 0.0
C3896 C 0.45095 0.43614 0.23776 0.0
C3897 C 0.42852 0.4323 0.24869 0.0
C3898 C 0.42554 0.41942 0.25627 0.0
C3899 C 0.43542 0.41506 0.25475 0.0
C3900 C 0.448 0.42331 0.24554 0.0
C3901 C 0.41212 0.41051 0.26582 0.0
C3902 C 0.41295 0.40767 0.28291 0.0
C3903 C 0.39861 0.40512 0.25831 0.0
C3904 C 0.39703 0.40725 0.24011 0.0
C3905 C 0.40296 0.4027 0.22732 0.0
C3906 C 0.40153 0.40485 0.21021 0.0
C3907 C 0.39409 0.41144 0.20571 0.0
C3908 C 0.38803 0.41585 0.21833 0.0
C3909 C 0.38945 0.41374 0.23547 0.0
H3910 H 0.39299 0.4131 0.19246 0.0
H3911 H 0.40615 0.39172 0.35867 0.0
H3912 H 0.35683 0.32603 0.36924 0.0
H3913 H 0.36203 0.31014 0.38476 0.0
H3914 H 0.31796 0.27547 0.38076 0.0
H3915 H 0.31263 0.2913 0.36516 0.0
H3916 H 0.32913 0.27973 0.41359 0.0
H3917 H 0.34142 0.2737 0.3564 0.0
H3918 H 0.35353 0.28203 0.32877 0.0
H3919 H 0.39424 0.30271 0.35361 0.0
H3920 H 0.38236 0.29468 0.38143 0.0
H3921 H 0.33781 0.22368 0.4427 0.0
H3922 H 0.33205 0.23847 0.42576 0.0
H3923 H 0.37665 0.27201 0.42367 0.0
H3924 H 0.38248 0.25712 0.44041 0.0
H3925 H 0.3648 0.268 0.3935 0.0
H3926 H 0.35328 0.27503 0.45045 0.0
H3927 H 0.3418 0.26758 0.47854 0.0
H3928 H 0.30054 0.24624 0.45499 0.0
H3929 H 0.31178 0.25339 0.42672 0.0
C3930 C 0.34824 0.31501 0.3716 0.0
C3931 C 0.33432 0.30991 0.36596 0.0
C3932 C 0.35125 0.30594 0.38042 0.0
C3933 C 0.34039 0.29163 0.38379 0.0
C3934 C 0.32647 0.28649 0.37824 0.0
C3935 C 0.32347 0.29553 0.36928 0.0
C3936 C 0.34356 0.28213 0.39343 0.0
C3937 C 0.33676 0.27695 0.40911 0.0
C3938 C 0.35382 0.27892 0.38775 0.0
C3939 C 0.36099 0.2837 0.37102 0.0
C3940 C 0.35295 0.28013 0.35599 0.0
C3941 C 0.35978 0.28477 0.34029 0.0
C3942 C 0.37465 0.29292 0.33944 0.0
C3943 C 0.38272 0.29641 0.35429 0.0
C3944 C 0.37595 0.2918 0.37002 0.0
C3945 C 0.34637 0.23425 0.43872 0.0
C3946 C 0.36059 0.2393 0.44295 0.0
C3947 C 0.34307 0.24269 0.42905 0.0
C3948 C 0.3539 0.25644 0.42366 0.0
C3949 C 0.36812 0.26143 0.4277 0.0
C3950 C 0.37145 0.25293 0.43725 0.0
C3951 C 0.35038 0.26558 0.41374 0.0
C3952 C 0.35713 0.27072 0.39801 0.0
C3953 C 0.34017 0.26888 0.41945 0.0
C3954 C 0.33337 0.26462 0.43645 0.0
C3955 C 0.34176 0.26865 0.45125 0.0
C3956 C 0.33529 0.2645 0.46721 0.0
C3957 C 0.32045 0.25641 0.46855 0.0
C3958 C 0.31204 0.25249 0.45393 0.0
C3959 C 0.31845 0.2566 0.43794 0.0
H3960 H 0.31547 0.2532 0.48092 0.0
H3961 H 0.37991 0.29651 0.32727 0.0
H3962 H 0.68209 0.02818 0.36588 0.0
H3963 H 0.69837 0.05204 0.37885 0.0
H3964 H 0.72963 0.04023 0.3858 0.0
H3965 H 0.7133 0.01623 0.37312 0.0
H3966 H 0.72671 0.05257 0.41398 0.0
H3967 H 0.73335 0.06363 0.35465 0.0
H3968 H 0.72581 0.06414 0.32545 0.0
H3969 H 0.70795 0.08903 0.34314 0.0
H3970 H 0.71521 0.0885 0.3725 0.0
H3971 H 0.7859 0.12149 0.4348 0.0
H3972 H 0.76988 0.09899 0.41904 0.0
H3973 H 0.7385 0.11108 0.41661 0.0
H3974 H 0.75447 0.13365 0.43258 0.0
H3975 H 0.74112 0.0989 0.38615 0.0
H3976 H 0.73459 0.08782 0.44544 0.0
H3977 H 0.7424 0.08753 0.47455 0.0
H3978 H 0.76019 0.0626 0.45673 0.0
H3979 H 0.75268 0.06295 0.42744 0.0
C3980 C 0.69246 0.03067 0.37009 0.0
C3981 C 0.69641 0.0203 0.36847 0.0
C3982 C 0.70177 0.04435 0.37743 0.0
C3983 C 0.71527 0.04797 0.38313 0.0
C3984 C 0.71926 0.03766 0.38147 0.0
C3985 C 0.70993 0.02396 0.37419 0.0
C3986 C 0.72505 0.06233 0.39135 0.0
C3987 C 0.73002 0.06269 0.40778 0.0
C3988 C 0.72904 0.07554 0.38345 0.0
C3989 C 0.7247 0.0759 0.3658 0.0
C3990 C 0.72771 0.06911 0.35234 0.0
C3991 C 0.72351 0.06942 0.33575 0.0
C3992 C 0.71638 0.07657 0.33245 0.0
C3993 C 0.71346 0.08347 0.34572 0.0
C3994 C 0.71763 0.08319 0.36234 0.0
C3995 C 0.77557 0.11936 0.43095 0.0
C3996 C 0.77136 0.12925 0.43514 0.0
C3997 C 0.76647 0.10653 0.4219 0.0
C3998 C 0.75294 0.10329 0.4169 0.0
C3999 C 0.7489 0.11339 0.4204 0.0
C4000 C 0.75803 0.12627 0.42949 0.0
C4001 C 0.74286 0.08908 0.40865 0.0
C4002 C 0.7378 0.08875 0.39229 0.0
C4003 C 0.73878 0.07588 0.41658 0.0
C4004 C 0.74319 0.07553 0.43422 0.0
C4005 C 0.74026 0.08237 0.4477 0.0
C4006 C 0.74462 0.08218 0.46424 0.0
C4007 C 0.75181 0.07508 0.46748 0.0
C4008 C 0.75463 0.06812 0.45419 0.0
C4009 C 0.75032 0.0683 0.43762 0.0
H4010 H 0.75518 0.07494 0.48029 0.0
H4011 H 0.71313 0.0768 0.3196 0.0
H4012 H 0.97274 0.65908 0.39121 0.0
H4013 H 0.9489 0.6492 0.40298 0.0
H4014 H 0.93854 0.66812 0.36245 0.0
H4015 H 0.96255 0.67836 0.3508 0.0
H4016 H 0.92966 0.67272 0.3918 0.0
H4017 H 0.92548 0.63134 0.36297 0.0
H4018 H 0.93219 0.61355 0.35514 0.0
H4019 H 0.92642 0.59987 0.40688 0.0
H4020 H 0.91987 0.61774 0.41508 0.0
H4021 H 0.85593 0.63483 0.41088 0.0
H4022 H 0.87795 0.64186 0.39549 0.0
H4023 H 0.89296 0.6291 0.43783 0.0
H4024 H 0.87112 0.62236 0.45351 0.0
H4025 H 0.89859 0.62068 0.40587 0.0
H4026 H 0.90416 0.66343 0.43446 0.0
H4027 H 0.89725 0.68116 0.44175 0.0
H4028 H 0.90006 0.69197 0.38915 0.0
H4029 H 0.90678 0.67412 0.38151 0.0
C4030 C 0.96539 0.66113 0.38476 0.0
C4031 C 0.96953 0.66948 0.37005 0.0
C4032 C 0.95173 0.65539 0.39146 0.0
C4033 C 0.94185 0.65772 0.38344 0.0
C4034 C 0.94598 0.66614 0.36881 0.0
C4035 C 0.9597 0.67198 0.36216 0.0
C4036 C 0.92737 0.6517 0.39065 0.0
C4037 C 0.92277 0.66129 0.39458 0.0
C4038 C 0.91848 0.63683 0.39457 0.0
C4039 C 0.9223 0.62598 0.38967 0.0
C4040 C 0.92574 0.62462 0.3727 0.0
C4041 C 0.9295 0.6145 0.36819 0.0
C4042 C 0.92976 0.60561 0.38051 0.0
C4043 C 0.92622 0.60678 0.39736 0.0
C4044 C 0.92247 0.61689 0.40194 0.0
C4045 C 0.86391 0.63352 0.41694 0.0
C4046 C 0.86182 0.62818 0.43351 0.0
C4047 C 0.87644 0.63746 0.40808 0.0
C4048 C 0.88711 0.63613 0.41561 0.0
C4049 C 0.88481 0.63018 0.43181 0.0
C4050 C 0.87231 0.62629 0.44072 0.0
C4051 C 0.901 0.64173 0.40703 0.0
C4052 C 0.90547 0.63207 0.4029 0.0
C4053 C 0.90975 0.65652 0.40281 0.0
C4054 C 0.90581 0.66733 0.4074 0.0
C4055 C 0.90319 0.6695 0.42443 0.0
C4056 C 0.89932 0.67958 0.42863 0.0
C4057 C 0.89817 0.68766 0.41591 0.0
C4058 C 0.90093 0.68569 0.39898 0.0
C4059 C 0.90477 0.6756 0.39471 0.0
H4060 H 0.89518 0.69546 0.41919 0.0
H4061 H 0.93268 0.59779 0.37699 0.0
H4062 H 0.35324 0.01296 0.735 0.0
H4063 H 0.36996 0.00928 0.75067 0.0
H4064 H 0.39561 0.01806 0.7055 0.0
H4065 H 0.37889 0.02171 0.68966 0.0
H4066 H 0.39033 0.99344 0.72147 0.0
H4067 H 0.40692 0.04308 0.73683 0.0
H4068 H 0.40449 0.06325 0.74758 0.0
H4069 H 0.39008 0.04265 0.79577 0.0
H4070 H 0.39224 0.02224 0.78522 0.0
H4071 H 0.44947 0.99745 0.76086 0.0
H4072 H 0.43416 0.00311 0.74508 0.0
H4073 H 0.40995 0.9982 0.79069 0.0
H4074 H 0.42542 0.99276 0.8066 0.0
H4075 H 0.41483 0.0213 0.77416 0.0
H4076 H 0.39736 0.97149 0.75916 0.0
H4077 H 0.39902 0.95077 0.74874 0.0
H4078 H 0.41406 0.9709 0.7004 0.0
H4079 H 0.41268 0.99185 0.71061 0.0
C4080 C 0.36247 0.01418 0.7284 0.0
C4081 C 0.36474 0.01762 0.71108 0.0
C4082 C 0.37204 0.01212 0.73739 0.0
C4083 C 0.38406 0.0135 0.72926 0.0
C4084 C 0.38639 0.01697 0.712 0.0
C4085 C 0.37686 0.01909 0.70299 0.0
C4086 C 0.39397 0.01088 0.73867 0.0
C4087 C 0.39587 -0.00032 0.73284 0.0
C4088 C 0.40084 0.01876 0.75376 0.0
C4089 C 0.39963 0.03107 0.76018 0.0
C4090 C 0.40313 0.0428 0.74967 0.0
C4091 C 0.40182 0.05428 0.75574 0.0
C4092 C 0.3971 0.05421 0.77233 0.0
C4093 C 0.39372 0.04268 0.78291 0.0
C4094 C 0.395 0.03116 0.7769 0.0
C4095 C 0.44082 0.99749 0.76748 0.0
C4096 C 0.43855 0.99457 0.78491 0.0
C4097 C 0.43208 0.00072 0.75846 0.0
C4098 C 0.42078 0.00086 0.76665 0.0
C4099 C 0.41861 0.99814 0.78412 0.0
C4100 C 0.42744 0.99504 0.79318 0.0
C4101 C 0.4112 0.00383 0.75698 0.0
C4102 C 0.40933 0.01509 0.76276 0.0
C4103 C 0.40426 0.99592 0.74191 0.0
C4104 C 0.40505 0.98331 0.73571 0.0
C4105 C 0.40112 0.97155 0.74635 0.0
C4106 C 0.402 0.95975 0.74047 0.0
C4107 C 0.40668 0.95953 0.72393 0.0
C4108 C 0.41046 0.97109 0.71321 0.0
C4109 C 0.40962 0.98293 0.71903 0.0
H4110 H 0.40735 0.95039 0.71941 0.0
H4111 H 0.39608 0.06311 0.77701 0.0
H4112 H 0.00634 0.36949 0.67178 0.0
H4113 H 0.00946 0.3903 0.68859 0.0
H4114 H 0.9973 0.36491 0.73396 0.0
H4115 H 0.99386 0.34401 0.71723 0.0
H4116 H 0.98441 0.37955 0.73285 0.0
H4117 H 0.03235 0.39066 0.72518 0.0
H4118 H 0.05316 0.39449 0.70865 0.0
H4119 H 0.05467 0.42962 0.68274 0.0
H4120 H 0.03373 0.42585 0.69895 0.0
H4121 H 0.00893 0.4354 0.7957 0.0
H4122 H 0.00682 0.41579 0.77735 0.0
H4123 H 0.01486 0.44186 0.73328 0.0
H4124 H 0.0167 0.46145 0.7515 0.0
H4125 H 0.02976 0.42749 0.73281 0.0
H4126 H 0.9819 0.4164 0.74139 0.0
H4127 H 0.96123 0.41237 0.75835 0.0
H4128 H 0.95992 0.37693 0.78323 0.0
H4129 H 0.98073 0.38089 0.76658 0.0
C4130 C 0.00434 0.36834 0.68534 0.0
C4131 C -0.00012 0.35511 0.69318 0.0
C4132 C 0.00619 0.38026 0.69494 0.0
C4133 C 0.00377 0.3792 0.71257 0.0
C4134 C -0.00077 0.36597 0.72038 0.0
C4135 C 0.9973 0.35404 0.71079 0.0
C4136 C 0.00579 0.39179 0.72292 0.0
C4137 C 0.99439 0.38998 0.73299 0.0
C4138 C 0.0187 0.40549 0.72279 0.0
C4139 C 0.03138 0.40787 0.71315 0.0
C4140 C 0.03705 0.39913 0.71587 0.0
C4141 C 0.04888 0.4013 0.70657 0.0
C4142 C 0.05521 0.41227 0.69462 0.0
C4143 C 0.04975 0.42112 0.69198 0.0
C4144 C 0.0379 0.41898 0.70123 0.0
C4145 C 0.01017 0.43695 0.78209 0.0
C4146 C 0.01287 0.44995 0.77505 0.0
C4147 C 0.00902 0.42576 0.77165 0.0
C4148 C 0.01054 0.42735 0.75397 0.0
C4149 C 0.01367 0.44046 0.74691 0.0
C4150 C 0.01477 0.45165 0.75735 0.0
C4151 C 0.00845 0.41515 0.74284 0.0
C4152 C 0.0198 0.41705 0.73261 0.0
C4153 C 0.99553 0.40149 0.74289 0.0
C4154 C 0.98296 0.39903 0.75285 0.0
C4155 C 0.97728 0.40782 0.75057 0.0
C4156 C 0.96552 0.40554 0.76012 0.0
C4157 C 0.95928 0.39443 0.77189 0.0
C4158 C 0.96477 0.38555 0.77412 0.0
C4159 C 0.97654 0.3878 0.76462 0.0
H4160 H 0.95018 0.39268 0.77927 0.0
H4161 H 0.06436 0.41392 0.68742 0.0
H4162 H 0.65827 0.65842 0.71607 0.0
H4163 H 0.63681 0.6433 0.73275 0.0
H4164 H 0.61809 0.6132 0.69015 0.0
H4165 H 0.63947 0.62841 0.67324 0.0
H4166 H 0.59941 0.61917 0.70436 0.0
H4167 H 0.6312 0.60512 0.72419 0.0
H4168 H 0.65359 0.60908 0.73594 0.0
H4169 H 0.64788 0.62848 0.78125 0.0
H4170 H 0.62555 0.62482 0.76967 0.0
H4171 H 0.5427 0.56033 0.74821 0.0
H4172 H 0.56407 0.57613 0.7317 0.0
H4173 H 0.58197 0.60584 0.77477 0.0
H4174 H 0.56076 0.58982 0.79156 0.0
H4175 H 0.60109 0.60041 0.76054 0.0
H4176 H 0.56905 0.61408 0.74083 0.0
H4177 H 0.54665 0.61005 0.72904 0.0
H4178 H 0.55278 0.59125 0.68346 0.0
H4179 H 0.57513 0.59499 0.69508 0.0
C4180 C 0.64962 0.64855 0.71024 0.0
C4181 C 0.65059 0.6446 0.69332 0.0
C4182 C 0.63737 0.6399 0.71983 0.0
C4183 C 0.62591 0.62705 0.71275 0.0
C4184 C 0.62683 0.62307 0.69586 0.0
C4185 C 0.63907 0.63175 0.68624 0.0
C4186 C 0.61286 0.6179 0.72288 0.0
C4187 C 0.59974 0.61489 0.71654 0.0
C4188 C 0.61337 0.61265 0.73897 0.0
C4189 C 0.62677 0.61483 0.74599 0.0
C4190 C 0.63478 0.61034 0.7366 0.0
C4191 C 0.64745 0.61251 0.74324 0.0
C4192 C 0.65218 0.61906 0.75931 0.0
C4193 C 0.64422 0.62343 0.7688 0.0
C4194 C 0.63155 0.62129 0.76221 0.0
C4195 C 0.5512 0.57021 0.75419 0.0
C4196 C 0.55005 0.57381 0.77121 0.0
C4197 C 0.56335 0.57929 0.74469 0.0
C4198 C 0.57456 0.59223 0.75196 0.0
C4199 C 0.57342 0.59592 0.7689 0.0
C4200 C 0.56125 0.58683 0.77843 0.0
C4201 C 0.58764 0.60165 0.742 0.0
C4202 C 0.60076 0.60471 0.74837 0.0
C4203 C 0.58713 0.60693 0.72593 0.0
C4204 C 0.57371 0.6047 0.7189 0.0
C4205 C 0.56557 0.60898 0.72835 0.0
C4206 C 0.55289 0.60677 0.72169 0.0
C4207 C 0.54828 0.60037 0.70553 0.0
C4208 C 0.55636 0.5962 0.69598 0.0
C4209 C 0.56904 0.59837 0.70259 0.0
H4210 H 0.53846 0.59866 0.70039 0.0
H4211 H 0.66199 0.62073 0.76443 0.0
H4212 H 0.68324 0.71478 0.66149 0.0
H4213 H 0.67593 0.72951 0.64703 0.0
H4214 H 0.66091 0.69922 0.60434 0.0
H4215 H 0.66824 0.68447 0.61862 0.0
H4216 H 0.67638 0.72744 0.59434 0.0
H4217 H 0.63749 0.69863 0.63216 0.0
H4218 H 0.62629 0.68856 0.65981 0.0
H4219 H 0.64176 0.73159 0.67994 0.0
H4220 H 0.65323 0.74194 0.65248 0.0
H4221 H 0.6384 0.75422 0.55347 0.0
H4222 H 0.64414 0.73819 0.56775 0.0
H4223 H 0.65695 0.7661 0.61257 0.0
H4224 H 0.65063 0.7818 0.59869 0.0
H4225 H 0.64214 0.73849 0.62123 0.0
H4226 H 0.68157 0.76746 0.58402 0.0
H4227 H 0.69311 0.77782 0.55661 0.0
H4228 H 0.67713 0.73494 0.53562 0.0
H4229 H 0.66533 0.72431 0.56286 0.0
C4230 C 0.67841 0.71126 0.649 0.0
C4231 C 0.67628 0.69842 0.64122 0.0
C4232 C 0.67419 0.71966 0.6408 0.0
C4233 C 0.66775 0.71536 0.6247 0.0
C4234 C 0.66584 0.7027 0.61678 0.0
C4235 C 0.67 0.69427 0.62499 0.0
C4236 C 0.663 0.72408 0.61609 0.0
C4237 C 0.66875 0.7297 0.6001 0.0
C4238 C 0.65328 0.72726 0.6238 0.0
C4239 C 0.64633 0.72106 0.64031 0.0
C4240 C 0.6386 0.70595 0.64253 0.0
C4241 C 0.63218 0.70019 0.65816 0.0
C4242 C 0.63334 0.70943 0.67164 0.0
C4243 C 0.64089 0.72445 0.6695 0.0
C4244 C 0.64734 0.73027 0.6539 0.0
C4245 C 0.64224 0.75683 0.56645 0.0
C4246 C 0.64415 0.76936 0.57489 0.0
C4247 C 0.64566 0.74774 0.57453 0.0
C4248 C 0.6512 0.75108 0.59113 0.0
C4249 C 0.65277 0.76336 0.59973 0.0
C4250 C 0.64928 0.7724 0.59171 0.0
C4251 C 0.65557 0.74193 0.59949 0.0
C4252 C 0.64976 0.73622 0.61544 0.0
C4253 C 0.66529 0.73872 0.59178 0.0
C4254 C 0.67245 0.74509 0.57542 0.0
C4255 C 0.68043 0.76023 0.57352 0.0
C4256 C 0.68703 0.76616 0.55802 0.0
C4257 C 0.68582 0.75705 0.54437 0.0
C4258 C 0.67804 0.74199 0.5462 0.0
C4259 C 0.6714 0.73601 0.56167 0.0
H4260 H 0.69094 0.76165 0.53238 0.0
H4261 H 0.62836 0.70495 0.68373 0.0
H4262 H 0.28779 0.97637 0.67859 0.0
H4263 H 0.27194 0.95295 0.6643 0.0
H4264 H 0.30755 0.95742 0.63542 0.0
H4265 H 0.3232 0.98116 0.649 0.0
H4266 H 0.28699 0.94846 0.61527 0.0
H4267 H 0.291 0.93305 0.67003 0.0
H4268 H 0.29029 0.93212 0.70133 0.0
H4269 H 0.24572 0.9171 0.70081 0.0
H4270 H 0.24621 0.91813 0.6695 0.0
H4271 H 0.2493 0.87479 0.58464 0.0
H4272 H 0.26596 0.89598 0.60234 0.0
H4273 H 0.23141 0.90093 0.61923 0.0
H4274 H 0.21478 0.87993 0.60135 0.0
H4275 H 0.25185 0.90408 0.64573 0.0
H4276 H 0.24943 0.92107 0.58999 0.0
H4277 H 0.25098 0.92101 0.55868 0.0
H4278 H 0.29438 0.93204 0.56168 0.0
H4279 H 0.293 0.93193 0.59303 0.0
C4280 C 0.29221 0.97228 0.66925 0.0
C4281 C 0.3067 0.98056 0.66487 0.0
C4282 C 0.28318 0.95885 0.66117 0.0
C4283 C 0.28856 0.95326 0.64893 0.0
C4284 C 0.30311 0.96147 0.64477 0.0
C4285 C 0.31206 0.97503 0.65255 0.0
C4286 C 0.27897 0.93918 0.63989 0.0
C4287 C 0.27951 0.93873 0.62203 0.0
C4288 C 0.26902 0.92645 0.64858 0.0
C4289 C 0.26868 0.92579 0.66742 0.0
C4290 C 0.28107 0.92965 0.67659 0.0
C4291 C 0.28071 0.92909 0.69434 0.0
C4292 C 0.26798 0.92459 0.70306 0.0
C4293 C 0.25558 0.9206 0.69404 0.0
C4294 C 0.25589 0.92116 0.67629 0.0
C4295 C 0.24528 0.88032 0.59231 0.0
C4296 C 0.23083 0.87586 0.59162 0.0
C4297 C 0.25476 0.89238 0.60236 0.0
C4298 C 0.24986 0.89997 0.61202 0.0
C4299 C 0.23534 0.89515 0.61188 0.0
C4300 C 0.2259 0.88326 0.60162 0.0
C4301 C 0.26 0.91352 0.62135 0.0
C4302 C 0.2595 0.91385 0.63916 0.0
C4303 C 0.27017 0.92606 0.61267 0.0
C4304 C 0.27106 0.92633 0.59384 0.0
C4305 C 0.25926 0.92335 0.58397 0.0
C4306 C 0.26011 0.92337 0.56622 0.0
C4307 C 0.27276 0.92647 0.55819 0.0
C4308 C 0.28458 0.92961 0.56791 0.0
C4309 C 0.28377 0.92958 0.58567 0.0
H4310 H 0.2734 0.92648 0.54445 0.0
H4311 H 0.26772 0.92416 0.7168 0.0
H4312 H 0.03578 0.32682 0.66663 0.0
H4313 H 0.05915 0.33661 0.65317 0.0
H4314 H 0.04141 0.33765 0.60512 0.0
H4315 H 0.01809 0.32781 0.61837 0.0
H4316 H 0.05819 0.32643 0.60171 0.0
H4317 H 0.06084 0.36828 0.62862 0.0
H4318 H 0.05939 0.3825 0.65271 0.0
H4319 H 0.09245 0.38092 0.67868 0.0
H4320 H 0.09395 0.3665 0.65483 0.0
H4321 H 0.11849 0.37121 0.55306 0.0
H4322 H 0.09679 0.36292 0.56971 0.0
H4323 H 0.11861 0.3631 0.61484 0.0
H4324 H 0.14041 0.3714 0.59821 0.0
H4325 H 0.10048 0.37312 0.62133 0.0
H4326 H 0.09839 0.332 0.59383 0.0
H4327 H 0.0999 0.31799 0.56955 0.0
H4328 H 0.06564 0.31817 0.5447 0.0
H4329 H 0.06407 0.33239 0.56874 0.0
C4330 C 0.03685 0.32906 0.65318 0.0
C4331 C 0.02509 0.32656 0.64357 0.0
C4332 C 0.05021 0.33473 0.64554 0.0
C4333 C 0.05202 0.33798 0.62819 0.0
C4334 C 0.04024 0.33523 0.61853 0.0
C4335 C 0.02692 0.32963 0.62614 0.0
C4336 C 0.06613 0.34422 0.61994 0.0
C4337 C 0.0674 0.33671 0.60591 0.0
C4338 C 0.07823 0.35743 0.62571 0.0
C4339 C 0.07739 0.36617 0.64002 0.0
C4340 C 0.06771 0.37086 0.63953 0.0
C4341 C 0.0669 0.37898 0.65313 0.0
C4342 C 0.07579 0.38258 0.66724 0.0
C4343 C 0.08555 0.3781 0.66776 0.0
C4344 C 0.08639 0.36996 0.6542 0.0
C4345 C 0.11869 0.36956 0.56655 0.0
C4346 C 0.13109 0.37178 0.5743 0.0
C4347 C 0.10631 0.36486 0.57604 0.0
C4348 C 0.10604 0.36216 0.59343 0.0
C4349 C 0.1186 0.3651 0.60142 0.0
C4350 C 0.13104 0.36986 0.59192 0.0
C4351 C 0.09243 0.35544 0.60293 0.0
C4352 C 0.09128 0.36281 0.61721 0.0
C4353 C 0.0804 0.34207 0.59741 0.0
C4354 C 0.0812 0.33336 0.58303 0.0
C4355 C 0.09124 0.32914 0.58314 0.0
C4356 C 0.0921 0.32115 0.56943 0.0
C4357 C 0.08289 0.31722 0.55557 0.0
C4358 C 0.07278 0.32123 0.55544 0.0
C4359 C 0.07189 0.32925 0.56911 0.0
H4360 H 0.08357 0.31103 0.54496 0.0
H4361 H 0.07514 0.38886 0.67776 0.0
H4362 H 0.32035 0.36012 0.64448 0.0
H4363 H 0.30389 0.36527 0.63071 0.0
H4364 H 0.26924 0.32143 0.63924 0.0
H4365 H 0.28569 0.31614 0.6531 0.0
H4366 H 0.27028 0.33033 0.60612 0.0
H4367 H 0.27111 0.34808 0.66287 0.0
H4368 H 0.28236 0.36227 0.6892 0.0
H4369 H 0.30199 0.4018 0.66136 0.0
H4370 H 0.29102 0.38782 0.63481 0.0
H4371 H 0.21666 0.34273 0.57957 0.0
H4372 H 0.23087 0.3364 0.59658 0.0
H4373 H 0.26657 0.38058 0.59428 0.0
H4374 H 0.25234 0.38701 0.5774 0.0
H4375 H 0.26393 0.37054 0.62543 0.0
H4376 H 0.26483 0.35346 0.56877 0.0
H4377 H 0.2545 0.33986 0.54185 0.0
H4378 H 0.23272 0.29982 0.56872 0.0
H4379 H 0.24278 0.31322 0.59585 0.0
C4380 C 0.30923 0.35157 0.6435 0.0
C4381 C 0.30432 0.33771 0.64989 0.0
C4382 C 0.29983 0.35456 0.63569 0.0
C4383 C 0.28534 0.34377 0.63409 0.0
C4384 C 0.28039 0.32991 0.64041 0.0
C4385 C 0.28978 0.32692 0.64835 0.0
C4386 C 0.27552 0.34692 0.62536 0.0
C4387 C 0.26867 0.33894 0.61049 0.0
C4388 C 0.27377 0.35843 0.63085 0.0
C4389 C 0.28033 0.36688 0.64682 0.0
C4390 C 0.27791 0.35979 0.66233 0.0
C4391 C 0.28423 0.3678 0.6773 0.0
C4392 C 0.29291 0.38292 0.67695 0.0
C4393 C 0.29527 0.39008 0.66162 0.0
C4394 C 0.289 0.38212 0.64661 0.0
C4395 C 0.22756 0.35108 0.58264 0.0
C4396 C 0.23343 0.36534 0.57706 0.0
C4397 C 0.23566 0.34745 0.59237 0.0
C4398 C 0.24985 0.35797 0.5965 0.0
C4399 C 0.25564 0.37229 0.59125 0.0
C4400 C 0.24751 0.37596 0.58162 0.0
C4401 C 0.25873 0.354 0.6061 0.0
C4402 C 0.26543 0.36185 0.62111 0.0
C4403 C 0.26045 0.34245 0.60066 0.0
C4404 C 0.25444 0.33436 0.58436 0.0
C4405 C 0.25775 0.34177 0.56895 0.0
C4406 C 0.25196 0.33409 0.55365 0.0
C4407 C 0.24292 0.31899 0.55358 0.0
C4408 C 0.2397 0.31152 0.5688 0.0
C4409 C 0.24545 0.31915 0.58414 0.0
H4410 H 0.23845 0.31306 0.54172 0.0
H4411 H 0.29779 0.38911 0.68855 0.0
H4412 H 0.66222 0.98447 0.64247 0.0
H4413 H 0.65403 0.9611 0.62819 0.0
H4414 H 0.66254 0.94541 0.6735 0.0
H4415 H 0.67088 0.96887 0.68793 0.0
H4416 H 0.67313 0.93954 0.64497 0.0
H4417 H 0.62874 0.93348 0.66271 0.0
H4418 H 0.61067 0.94018 0.66588 0.0
H4419 H 0.60681 0.93965 0.61159 0.0
H4420 H 0.62502 0.93315 0.60808 0.0
H4421 H 0.64136 0.86754 0.61234 0.0
H4422 H 0.64597 0.88826 0.63052 0.0
H4423 H 0.63696 0.90688 0.58843 0.0
H4424 H 0.63224 0.88613 0.57022 0.0
H4425 H 0.62572 0.91024 0.61735 0.0
H4426 H 0.67115 0.91833 0.59942 0.0
H4427 H 0.68958 0.91217 0.5957 0.0
H4428 H 0.6918 0.90946 0.64982 0.0
H4429 H 0.67323 0.91541 0.65384 0.0
C4430 C 0.66231 0.97604 0.64946 0.0
C4431 C 0.6672 0.97853 0.66636 0.0
C4432 C 0.65755 0.96266 0.64129 0.0
C4433 C 0.65753 0.95147 0.64985 0.0
C4434 C 0.66242 0.9539 0.6667 0.0
C4435 C 0.66716 0.96729 0.67493 0.0
C4436 C 0.65288 0.93745 0.64093 0.0
C4437 C 0.66266 0.93298 0.6392 0.0
C4438 C 0.63935 0.92911 0.63307 0.0
C4439 C 0.62834 0.93294 0.63513 0.0
C4440 C 0.62412 0.9349 0.65144 0.0
C4441 C 0.61384 0.93864 0.6533 0.0
C4442 C 0.60762 0.94037 0.63895 0.0
C4443 C 0.61165 0.93832 0.6227 0.0
C4444 C 0.62194 0.93459 0.62076 0.0
C4445 C 0.64034 0.87605 0.60698 0.0
C4446 C 0.63655 0.87529 0.58983 0.0
C4447 C 0.64296 0.88786 0.61738 0.0
C4448 C 0.64202 0.89922 0.61075 0.0
C4449 C 0.63775 0.89824 0.5938 0.0
C4450 C 0.63504 0.88638 0.58342 0.0
C4451 C 0.64601 0.91239 0.62128 0.0
C4452 C 0.63612 0.91672 0.62327 0.0
C4453 C 0.65948 0.92066 0.62931 0.0
C4454 C 0.6707 0.91716 0.62692 0.0
C4455 C 0.6755 0.91631 0.61052 0.0
C4456 C 0.68598 0.91287 0.60836 0.0
C4457 C 0.69183 0.91038 0.62251 0.0
C4458 C 0.68724 0.91137 0.63886 0.0
C4459 C 0.67675 0.91478 0.6411 0.0
H4460 H 0.69994 0.90773 0.62081 0.0
H4461 H 0.59966 0.94327 0.64041 0.0
H4462 H 0.01839 0.67609 0.64723 0.0
H4463 H 0.04137 0.69182 0.63345 0.0
H4464 H 0.03787 0.72902 0.64445 0.0
H4465 H 0.01488 0.7134 0.65824 0.0
H4466 H 0.04531 0.72762 0.61112 0.0
H4467 H 0.06011 0.72415 0.66713 0.0
H4468 H 0.06091 0.71127 0.69202 0.0
H4469 H 0.07811 0.69088 0.661 0.0
H4470 H 0.07722 0.70349 0.63585 0.0
H4471 H 0.1143 0.784 0.59066 0.0
H4472 H 0.09263 0.7678 0.60647 0.0
H4473 H 0.09962 0.73256 0.59761 0.0
H4474 H 0.12152 0.74887 0.58192 0.0
H4475 H 0.09032 0.73217 0.62946 0.0
H4476 H 0.07579 0.7353 0.57363 0.0
H4477 H 0.07481 0.7476 0.54826 0.0
H4478 H 0.05668 0.76767 0.57813 0.0
H4479 H 0.05775 0.75565 0.60374 0.0
C4480 C 0.02252 0.68763 0.64676 0.0
C4481 C 0.01481 0.6935 0.65382 0.0
C4482 C 0.03568 0.6966 0.63895 0.0
C4483 C 0.04134 0.71158 0.63804 0.0
C4484 C 0.03367 0.71748 0.64505 0.0
C4485 C 0.02056 0.70854 0.65296 0.0
C4486 C 0.05509 0.72108 0.62935 0.0
C4487 C 0.0552 0.72878 0.61526 0.0
C4488 C 0.06786 0.72219 0.63445 0.0
C4489 C 0.06846 0.71465 0.64957 0.0
C4490 C 0.06395 0.71682 0.66558 0.0
C4491 C 0.06444 0.70959 0.67974 0.0
C4492 C 0.06952 0.70023 0.67808 0.0
C4493 C 0.07416 0.69812 0.66226 0.0
C4494 C 0.07367 0.70531 0.64805 0.0
C4495 C 0.11121 0.7728 0.59208 0.0
C4496 C 0.11948 0.76763 0.58489 0.0
C4497 C 0.09884 0.76355 0.60111 0.0
C4498 C 0.09436 0.7489 0.60292 0.0
C4499 C 0.10286 0.74382 0.5963 0.0
C4500 C 0.11535 0.75313 0.58736 0.0
C4501 C 0.08059 0.73886 0.61133 0.0
C4502 C 0.08045 0.73101 0.62531 0.0
C4503 C 0.06773 0.7375 0.60605 0.0
C4504 C 0.06697 0.74467 0.59064 0.0
C4505 C 0.07169 0.74242 0.57481 0.0
C4506 C 0.0711 0.74933 0.56039 0.0
C4507 C 0.06572 0.75844 0.56159 0.0
C4508 C 0.06086 0.76063 0.57722 0.0
C4509 C 0.06145 0.75375 0.59169 0.0
H4510 H 0.06527 0.76378 0.55041 0.0
H4511 H 0.06989 0.69464 0.68906 0.0
H4512 H 0.01176 0.64455 0.69968 0.0
H4513 H 0.01341 0.62628 0.71514 0.0
H4514 H 0.96779 0.5974 0.71217 0.0
H4515 H 0.96602 0.61567 0.69661 0.0
H4516 H 0.97857 0.59988 0.74467 0.0
H4517 H 0.98778 0.59004 0.68794 0.0
H4518 H -0.00057 0.59593 0.65984 0.0
H4519 H 0.03996 0.61137 0.68337 0.0
H4520 H 0.02858 0.60577 0.71165 0.0
H4521 H 0.97975 0.53967 0.77671 0.0
H4522 H 0.97574 0.55531 0.75888 0.0
H4523 H 0.0211 0.5857 0.75593 0.0
H4524 H 0.0252 0.57013 0.77377 0.0
H4525 H 0.00887 0.58099 0.72528 0.0
H4526 H 0.00013 0.59237 0.78193 0.0
H4527 H 0.9888 0.58696 0.81023 0.0
H4528 H 0.94773 0.56911 0.78705 0.0
H4529 H 0.9588 0.57423 0.75859 0.0
C4530 C 0.00207 0.6343 0.70223 0.0
C4531 C 0.98875 0.63155 0.69692 0.0
C4532 C 0.00304 0.62384 0.71101 0.0
C4533 C 0.99073 0.61046 0.71469 0.0
C4534 C 0.97741 0.60766 0.70941 0.0
C4535 C 0.97643 0.61808 0.70048 0.0
C4536 C 0.99182 0.59962 0.72449 0.0
C4537 C 0.98498 0.59553 0.74031 0.0
C4538 C 0.00045 0.59424 0.71893 0.0
C4539 C 0.00734 0.5976 0.70193 0.0
C4540 C -0.00081 0.59481 0.68714 0.0
C4541 C 0.00574 0.59807 0.67117 0.0
C4542 C 0.02043 0.60405 0.66982 0.0
C4543 C 0.02859 0.60675 0.68444 0.0
C4544 C 0.02209 0.60352 0.70044 0.0
C4545 C 0.98887 0.54975 0.77239 0.0
C4546 C 0.0028 0.5537 0.7767 0.0
C4547 C 0.98655 0.55866 0.76217 0.0
C4548 C 0.99812 0.57173 0.7562 0.0
C4549 C 0.01203 0.57563 0.76036 0.0
C4550 C 0.01435 0.56672 0.77054 0.0
C4551 C 0.99576 0.58137 0.74559 0.0
C4552 C 0.00236 0.58524 0.7296 0.0
C4553 C 0.98696 0.5866 0.75103 0.0
C4554 C 0.98028 0.58353 0.76813 0.0
C4555 C 0.98867 0.58718 0.78286 0.0
C4556 C 0.9823 0.58418 0.79893 0.0
C4557 C 0.96755 0.57766 0.80044 0.0
C4558 C 0.95915 0.57414 0.78587 0.0
C4559 C 0.96547 0.5771 0.76977 0.0
H4560 H 0.96264 0.57535 0.81289 0.0
H4561 H 0.02548 0.60657 0.65745 0.0
H4562 H 0.37802 0.36981 0.67227 0.0
H4563 H 0.39422 0.39168 0.68903 0.0
H4564 H 0.36443 0.37615 0.73081 0.0
H4565 H 0.34806 0.3544 0.71405 0.0
H4566 H 0.37462 0.40416 0.72594 0.0
H4567 H 0.39444 0.37433 0.73133 0.0
H4568 H 0.40384 0.35927 0.72111 0.0
H4569 H 0.43739 0.39559 0.69455 0.0
H4570 H 0.42807 0.41082 0.70443 0.0
H4571 H 0.42213 0.45218 0.79041 0.0
H4572 H 0.4055 0.43078 0.77322 0.0
H4573 H 0.4346 0.44714 0.73082 0.0
H4574 H 0.45122 0.46861 0.74786 0.0
H4575 H 0.42476 0.41878 0.73601 0.0
H4576 H 0.40481 0.44863 0.73108 0.0
H4577 H 0.39536 0.46353 0.74178 0.0
H4578 H 0.36199 0.4269 0.76811 0.0
H4579 H 0.37136 0.41183 0.75775 0.0
C4580 C 0.37492 0.37104 0.68503 0.0
C4581 C 0.36177 0.36035 0.69184 0.0
C4582 C 0.38421 0.38352 0.69462 0.0
C4583 C 0.3806 0.38547 0.71124 0.0
C4584 C 0.36743 0.37487 0.71801 0.0
C4585 C 0.35811 0.36243 0.70842 0.0
C4586 C 0.39049 0.3986 0.72157 0.0
C4587 C 0.38553 0.40726 0.72833 0.0
C4588 C 0.40481 0.40279 0.72439 0.0
C4589 C 0.41047 0.39367 0.71848 0.0
C4590 C 0.40376 0.37907 0.7232 0.0
C4591 C 0.40908 0.37051 0.71749 0.0
C4592 C 0.42118 0.37646 0.70715 0.0
C4593 C 0.428 0.39099 0.70254 0.0
C4594 C 0.42271 0.39959 0.7082 0.0
C4595 C 0.4249 0.45131 0.77736 0.0
C4596 C 0.43799 0.46209 0.7705 0.0
C4597 C 0.41541 0.43906 0.76757 0.0
C4598 C 0.41879 0.43742 0.75071 0.0
C4599 C 0.43182 0.44817 0.74382 0.0
C4600 C 0.44131 0.46041 0.75359 0.0
C4601 C 0.40889 0.42434 0.74035 0.0
C4602 C 0.41385 0.41569 0.7336 0.0
C4603 C 0.39456 0.42012 0.7376 0.0
C4604 C 0.38887 0.42914 0.74378 0.0
C4605 C 0.39552 0.44379 0.73926 0.0
C4606 C 0.39017 0.45225 0.74524 0.0
C4607 C 0.3781 0.44617 0.75565 0.0
C4608 C 0.37135 0.4316 0.76006 0.0
C4609 C 0.37667 0.42308 0.75413 0.0
H4610 H 0.37397 0.45274 0.76027 0.0
H4611 H 0.42529 0.36981 0.70274 0.0
H4612 H 0.62459 0.00594 0.67161 0.0
H4613 H 0.60448 0.00239 0.68899 0.0
H4614 H 0.63223 0.02143 0.7325 0.0
H4615 H 0.65235 0.02498 0.7153 0.0
H4616 H 0.60779 0.99588 0.73991 0.0
H4617 H 0.62094 0.04037 0.71246 0.0
H4618 H 0.62632 0.05624 0.68802 0.0
H4619 H 0.58422 0.02729 0.66823 0.0
H4620 H 0.57865 0.01113 0.69244 0.0
H4621 H 0.56103 0.00242 0.79583 0.0
H4622 H 0.58116 0.00759 0.77772 0.0
H4623 H 0.55379 0.99285 0.73363 0.0
H4624 H 0.53378 0.98865 0.7515 0.0
H4625 H 0.57798 0.01604 0.72619 0.0
H4626 H 0.56468 0.9714 0.75328 0.0
H4627 H 0.55908 0.95539 0.77763 0.0
H4628 H 0.60112 0.98405 0.79774 0.0
H4629 H 0.60692 0.00033 0.7736 0.0
C4630 C 0.62643 0.00947 0.68485 0.0
C4631 C 0.64007 0.01574 0.69207 0.0
C4632 C 0.61494 0.00746 0.69474 0.0
C4633 C 0.61689 0.0117 0.71201 0.0
C4634 C 0.63051 0.01807 0.71921 0.0
C4635 C 0.642 0.02014 0.70933 0.0
C4636 C 0.60468 0.00912 0.72275 0.0
C4637 C 0.60136 0.00043 0.73704 0.0
C4638 C 0.59611 0.01475 0.71872 0.0
C4639 C 0.59943 0.02446 0.70417 0.0
C4640 C 0.61287 0.03732 0.70282 0.0
C4641 C 0.61594 0.04638 0.68903 0.0
C4642 C 0.60563 0.04275 0.67656 0.0
C4643 C 0.5922 0.03007 0.67789 0.0
C4644 C 0.58908 0.02097 0.69165 0.0
C4645 C 0.55929 0.00048 0.78226 0.0
C4646 C 0.54572 0.99506 0.77518 0.0
C4647 C 0.5708 0.00325 0.77193 0.0
C4648 C 0.56894 0.00033 0.75434 0.0
C4649 C 0.55546 0.99509 0.74718 0.0
C4650 C 0.54399 0.99252 0.75747 0.0
C4651 C 0.58105 0.00279 0.7434 0.0
C4652 C 0.58436 0.01145 0.72906 0.0
C4653 C 0.58957 0.99705 0.74732 0.0
C4654 C 0.58619 0.98715 0.7617 0.0
C4655 C 0.57271 0.97433 0.76294 0.0
C4656 C 0.5695 0.9652 0.7767 0.0
C4657 C 0.57973 0.96872 0.78924 0.0
C4658 C 0.59321 0.98134 0.78802 0.0
C4659 C 0.59647 0.99051 0.77429 0.0
H4660 H 0.57722 0.96165 0.79991 0.0
H4661 H 0.60803 0.04978 0.66589 0.0
loop_
_geom_bond_atom_site_label_1
_geom_bond_atom_site_label_2
_geom_bond_distance
_geom_bond_site_symmetry_2
_ccdc_geom_bond_type
C0 O1 1.160 . S
C0 O7 1.185 . S
O1 C0 1.160 . S
O2 Zn3 1.899 1_656 S
O2 C10 1.285 1_556 S
Zn3 O2 1.899 1_454 S
Zn3 O4 2.032 . S
Zn3 O7 2.086 . S
Zn3 O12 1.977 1_554 S
O4 Zn3 2.032 . S
O4 C8 1.278 1_455 S
C5 O6 1.203 1_455 S
C5 O12 1.267 . S
O6 C5 1.203 1_655 S
O7 C0 1.185 . S
O7 Zn3 2.086 . S
C8 O4 1.278 1_655 S
C8 O9 1.211 . S
O9 C8 1.211 . S
C10 O2 1.285 1_554 S
C10 O11 1.271 . S
O11 C10 1.271 . S
O12 Zn3 1.977 1_556 S
O12 C5 1.267 . S
C13 O14 1.160 . S
C13 O20 1.185 1_556 S
O14 C13 1.160 . S
O15 Zn16 1.899 . S
O15 C23 1.284 . S
Zn16 O15 1.899 . S
Zn16 O17 2.032 1_554 S
Zn16 O20 2.086 . S
Zn16 O25 1.977 . S
O17 Zn16 2.032 1_556 S
O17 C21 1.278 . S
C18 O19 1.203 . S
C18 O25 1.267 . S
O19 C18 1.203 . S
O20 C13 1.185 1_554 S
O20 Zn16 2.086 . S
C21 O17 1.278 . S
C21 O22 1.180 1_556 S
O22 C21 1.180 1_554 S
C23 O15 1.284 . S
C23 O24 1.273 . S
O24 C23 1.273 . S
O25 Zn16 1.977 . S
O25 C18 1.267 . S
C26 O27 1.152 1_554 S
C26 O33 1.204 . S
O27 C26 1.152 1_556 S
O28 Zn29 1.917 . S
O28 C36 1.205 1_545 S
Zn29 O28 1.917 . S
Zn29 O30 2.032 1_554 S
Zn29 O33 2.086 . S
Zn29 O38 1.977 . S
O30 Zn29 2.032 1_556 S
O30 C34 1.278 . S
C31 O32 1.256 . S
C31 O38 1.267 . S
O32 C31 1.256 . S
O33 C26 1.204 . S
O33 Zn29 2.086 . S
C34 O30 1.278 . S
C34 O35 1.191 1_546 S
O35 C34 1.191 1_564 S
C36 O28 1.205 1_565 S
C36 O37 1.273 . S
O37 C36 1.273 . S
O38 Zn29 1.977 . S
O38 C31 1.267 . S
C39 O40 1.160 . S
C39 O46 1.185 1_556 S
O40 C39 1.160 . S
O41 Zn42 1.899 1_455 S
O41 C49 1.284 . S
Zn42 O41 1.899 1_655 S
Zn42 O43 2.009 1_654 S
Zn42 O46 2.086 . S
Zn42 O51 1.977 . S
O43 Zn42 2.009 1_456 S
O43 C47 1.336 . S
C44 O45 1.203 1_655 S
C44 O51 1.267 . S
O45 C44 1.203 1_455 S
O46 C39 1.185 1_554 S
O46 Zn42 2.086 . S
C47 O43 1.336 . S
C47 O48 1.211 . S
O48 C47 1.211 . S
C49 O41 1.284 . S
C49 O50 1.273 . S
O50 C49 1.273 . S
O51 Zn42 1.977 . S
O51 C44 1.267 . S
C52 O53 1.160 . S
C52 O59 1.185 . S
O53 C52 1.160 . S
O54 Zn55 1.899 1_556 S
O54 C62 1.284 . S
Zn55 O54 1.899 1_554 S
Zn55 O56 2.032 . S
Zn55 O59 2.086 . S
Zn55 O64 1.977 1_554 S
O56 Zn55 2.032 . S
O56 C60 1.278 . S
C57 O58 1.203 . S
C57 O64 1.267 . S
O58 C57 1.203 . S
O59 C52 1.185 . S
O59 Zn55 2.086 . S
C60 O56 1.278 . S
C60 O61 1.211 . S
O61 C60 1.211 . S
C62 O54 1.284 . S
C62 O63 1.273 1_556 S
O63 C62 1.273 1_554 S
O64 Zn55 1.977 1_556 S
O64 C57 1.267 . S
C65 O66 1.160 . S
C65 O72 1.185 . S
O66 C65 1.160 . S
O67 Zn68 1.899 1_546 S
O67 C75 1.293 . S
Zn68 O67 1.899 1_564 S
Zn68 O69 2.032 1_565 S
Zn68 O72 2.086 . S
Zn68 O77 1.977 1_554 S
O69 Zn68 2.032 1_545 S
O69 C73 1.278 . S
C70 O71 1.203 1_565 S
C70 O77 1.267 . S
O71 C70 1.203 1_545 S
O72 C65 1.185 . S
O72 Zn68 2.086 . S
C73 O69 1.278 . S
C73 O74 1.211 . S
O74 C73 1.211 . S
C75 O67 1.293 . S
C75 O76 1.254 1_556 S
O76 C75 1.254 1_554 S
O77 Zn68 1.977 1_556 S
O77 C70 1.267 . S
C78 O79 1.160 . S
C78 O85 1.185 . S
O79 C78 1.160 . S
O80 Zn81 1.899 . S
O80 C88 1.284 . S
Zn81 O80 1.899 . S
Zn81 O82 2.032 . S
Zn81 O85 2.086 . S
Zn81 O90 1.977 . S
O82 Zn81 2.032 . S
O82 C86 1.278 . S
C83 O84 1.203 . S
C83 O90 1.267 . S
O84 C83 1.203 . S
O85 C78 1.185 . S
O85 Zn81 2.086 . S
C86 O82 1.278 . S
C86 O87 1.211 . S
O87 C86 1.211 . S
C88 O80 1.284 . S
C88 O89 1.273 . S
O89 C88 1.273 . S
O90 Zn81 1.977 . S
O90 C83 1.267 . S
C91 O92 1.160 1_565 S
C91 O98 1.185 . S
O92 C91 1.160 1_545 S
O93 Zn94 1.899 1_545 S
O93 C101 1.284 . S
Zn94 O93 1.899 1_565 S
Zn94 O95 2.032 . S
Zn94 O98 2.086 . S
Zn94 O103 1.977 . S
O95 Zn94 2.032 . S
O95 C99 1.278 . S
C96 O97 1.203 . S
C96 O103 1.267 . S
O97 C96 1.203 . S
O98 C91 1.185 . S
O98 Zn94 2.086 . S
C99 O95 1.278 . S
C99 O100 1.211 . S
O100 C99 1.211 . S
C101 O93 1.284 . S
C101 O102 1.273 . S
O102 C101 1.273 . S
O103 Zn94 1.977 . S
O103 C96 1.267 . S
C104 O105 1.160 . S
C104 O111 1.185 . S
O105 C104 1.160 . S
O106 Zn107 1.899 . S
O106 C114 1.284 1_455 S
Zn107 O106 1.899 . S
Zn107 O108 2.032 . S
Zn107 O111 2.086 . S
Zn107 O116 1.977 . S
O108 Zn107 2.032 . S
O108 C112 1.278 . S
C109 O110 1.203 . S
C109 O116 1.267 . S
O110 C109 1.203 . S
O111 C104 1.185 . S
O111 Zn107 2.086 . S
C112 O108 1.278 . S
C112 O113 1.211 . S
O113 C112 1.211 . S
C114 O106 1.284 1_655 S
C114 O115 1.278 1_655 S
O115 C114 1.278 1_455 S
O116 Zn107 1.977 . S
O116 C109 1.267 . S
C117 O118 1.143 1_565 S
C117 O124 1.185 . S
O118 C117 1.143 1_545 S
O119 Zn120 1.899 1_545 S
O119 C127 1.284 . S
Zn120 O119 1.899 1_565 S
Zn120 O121 2.032 . S
Zn120 O124 2.086 . S
Zn120 O129 1.977 . S
O121 Zn120 2.032 . S
O121 C125 1.278 . S
C122 O123 1.203 . S
C122 O129 1.267 . S
O123 C122 1.203 . S
O124 C117 1.185 . S
O124 Zn120 2.086 . S
C125 O121 1.278 . S
C125 O126 1.211 . S
O126 C125 1.211 . S
C127 O119 1.284 . S
C127 O128 1.273 . S
O128 C127 1.273 . S
O129 Zn120 1.977 . S
O129 C122 1.267 . S
C130 O131 1.160 . S
C130 O137 1.185 . S
O131 C130 1.160 . S
O132 Zn133 1.899 . S
O132 C140 1.284 . S
Zn133 O132 1.899 . S
Zn133 O134 2.032 . S
Zn133 O137 2.086 1_455 S
Zn133 O142 1.977 . S
O134 Zn133 2.032 . S
O134 C138 1.278 . S
C135 O136 1.203 . S
C135 O142 1.267 . S
O136 C135 1.203 . S
O137 C130 1.185 . S
O137 Zn133 2.086 1_655 S
C138 O134 1.278 . S
C138 O139 1.211 . S
O139 C138 1.211 . S
C140 O132 1.284 . S
C140 O141 1.273 . S
O141 C140 1.273 . S
O142 Zn133 1.977 . S
O142 C135 1.267 . S
C143 O144 1.160 . S
C143 O150 1.185 . S
O144 C143 1.160 . S
O145 Zn146 1.899 . S
O145 C153 1.284 . S
Zn146 O145 1.899 . S
Zn146 O147 2.032 . S
Zn146 O150 2.086 . S
Zn146 O155 1.977 . S
O147 Zn146 2.032 . S
O147 C151 1.278 . S
C148 O149 1.203 . S
C148 O155 1.267 . S
O149 C148 1.203 . S
O150 C143 1.185 . S
O150 Zn146 2.086 . S
C151 O147 1.278 . S
C151 O152 1.211 . S
O152 C151 1.211 . S
C153 O145 1.284 . S
C153 O154 1.273 . S
O154 C153 1.273 . S
O155 Zn146 1.977 . S
O155 C148 1.267 . S
C156 O157 1.160 . S
C156 O163 1.185 . S
O157 C156 1.160 . S
O158 Zn159 1.899 . S
O158 C166 1.284 1_545 S
Zn159 O158 1.899 . S
Zn159 O160 2.032 . S
Zn159 O163 2.086 . S
Zn159 O168 1.977 . S
O160 Zn159 2.032 . S
O160 C164 1.278 . S
C161 O162 1.203 . S
C161 O168 1.267 . S
O162 C161 1.203 . S
O163 C156 1.185 . S
O163 Zn159 2.086 . S
C164 O160 1.278 . S
C164 O165 1.211 . S
O165 C164 1.211 . S
C166 O158 1.284 1_565 S
C166 O167 1.273 1_565 S
O167 C166 1.273 1_545 S
O168 Zn159 1.977 . S
O168 C161 1.267 . S
C169 O170 1.160 . S
C169 O176 1.185 . S
O170 C169 1.160 . S
O171 Zn172 1.899 . S
O171 C179 1.284 . S
Zn172 O171 1.899 . S
Zn172 O173 2.032 . S
Zn172 O176 2.086 1_655 S
Zn172 O181 1.977 . S
O173 Zn172 2.032 . S
O173 C177 1.278 . S
C174 O175 1.203 . S
C174 O181 1.267 . S
O175 C174 1.203 . S
O176 C169 1.185 . S
O176 Zn172 2.086 1_455 S
C177 O173 1.278 . S
C177 O178 1.211 . S
O178 C177 1.211 . S
C179 O171 1.284 . S
C179 O180 1.273 . S
O180 C179 1.273 . S
O181 Zn172 1.977 . S
O181 C174 1.267 . S
C182 O183 1.160 . S
C182 O189 1.185 . S
O183 C182 1.160 . S
O184 Zn185 1.899 . S
O184 C192 1.284 . S
Zn185 O184 1.899 . S
Zn185 O186 2.032 . S
Zn185 O189 2.086 . S
Zn185 O194 1.977 . S
O186 Zn185 2.032 . S
O186 C190 1.278 . S
C187 O188 1.203 . S
C187 O194 1.267 . S
O188 C187 1.203 . S
O189 C182 1.185 . S
O189 Zn185 2.086 . S
C190 O186 1.278 . S
C190 O191 1.211 . S
O191 C190 1.211 . S
C192 O184 1.284 . S
C192 O193 1.273 . S
O193 C192 1.273 . S
O194 Zn185 1.977 . S
O194 C187 1.267 . S
C195 O196 1.160 . S
C195 O202 1.185 . S
O196 C195 1.160 . S
O197 Zn198 1.899 . S
O197 C205 1.284 . S
Zn198 O197 1.899 . S
Zn198 O199 2.032 . S
Zn198 O202 2.086 . S
Zn198 O207 1.977 . S
O199 Zn198 2.032 . S
O199 C203 1.278 . S
C200 O201 1.203 . S
C200 O207 1.267 . S
O201 C200 1.203 . S
O202 C195 1.185 . S
O202 Zn198 2.086 . S
C203 O199 1.278 . S
C203 O204 1.211 . S
O204 C203 1.211 . S
C205 O197 1.284 . S
C205 O206 1.273 . S
O206 C205 1.273 . S
O207 Zn198 1.977 . S
O207 C200 1.267 . S
C208 O209 1.160 . S
C208 O215 1.185 . S
O209 C208 1.160 . S
O210 Zn211 1.899 . S
O210 C218 1.284 1_545 S
Zn211 O210 1.899 . S
Zn211 O212 2.032 . S
Zn211 O215 2.086 . S
Zn211 O220 1.977 . S
O212 Zn211 2.032 . S
O212 C216 1.278 . S
C213 O214 1.203 . S
C213 O220 1.267 . S
O214 C213 1.203 . S
O215 C208 1.185 . S
O215 Zn211 2.086 . S
C216 O212 1.278 . S
C216 O217 1.211 . S
O217 C216 1.211 . S
C218 O210 1.284 1_565 S
C218 O219 1.273 1_565 S
O219 C218 1.273 1_545 S
O220 Zn211 1.977 . S
O220 C213 1.267 . S
C221 O222 1.160 . S
C221 O228 1.185 . S
O222 C221 1.160 . S
O223 Zn224 1.899 . S
O223 C231 1.284 1_655 S
Zn224 O223 1.899 . S
Zn224 O225 2.032 . S
Zn224 O228 2.086 . S
Zn224 O233 1.977 . S
O225 Zn224 2.032 . S
O225 C229 1.278 . S
C226 O227 1.203 . S
C226 O233 1.267 . S
O227 C226 1.203 . S
O228 C221 1.185 . S
O228 Zn224 2.086 . S
C229 O225 1.278 . S
C229 O230 1.211 . S
O230 C229 1.211 . S
C231 O223 1.284 1_455 S
C231 O232 1.273 1_455 S
O232 C231 1.273 1_655 S
O233 Zn224 1.977 . S
O233 C226 1.267 . S
C234 C235 1.384 . S
C234 C236 1.384 . S
C234 H262 0.931 . S
C235 C234 1.384 . S
C235 C238 1.382 . S
C236 C234 1.384 . S
C236 C237 1.381 . S
C236 H263 0.930 . S
C237 C236 1.381 . S
C237 C239 1.381 . S
C237 C240 1.487 . S
C238 C235 1.382 . S
C238 C239 1.387 . S
C238 H264 0.930 . S
C239 C237 1.381 . S
C239 C238 1.387 . S
C239 H265 0.931 . S
C240 C237 1.487 . S
C240 C247 1.399 . S
C240 N278 1.343 . S
C241 C242 1.384 . S
C241 C243 1.384 . S
C241 H266 0.931 . S
C242 C241 1.384 . S
C242 C245 1.382 . S
C243 C241 1.384 . S
C243 C244 1.381 . S
C243 H267 0.930 . S
C244 C243 1.381 . S
C244 C246 1.381 . S
C244 C247 1.487 . S
C245 C242 1.382 . S
C245 C246 1.387 . S
C245 H268 0.930 . S
C246 C244 1.381 . S
C246 C245 1.387 . S
C246 H269 0.931 . S
C247 C240 1.399 . S
C247 C244 1.487 . S
C247 N279 1.343 . S
C248 C249 1.384 . S
C248 C250 1.384 . S
C248 H270 0.931 . S
C249 C248 1.384 . S
C249 C252 1.382 . S
C250 C248 1.384 . S
C250 C251 1.381 . S
C250 H271 0.930 . S
C251 C250 1.381 . S
C251 C253 1.381 . S
C251 C254 1.487 . S
C252 C249 1.382 . S
C252 C253 1.387 . S
C252 H272 0.930 . S
C253 C251 1.381 . S
C253 C252 1.387 . S
C253 H273 0.931 . S
C254 C251 1.487 . S
C254 C261 1.399 . S
C254 N279 1.343 . S
C255 C256 1.384 . S
C255 C257 1.384 . S
C255 H274 0.931 . S
C256 C255 1.384 . S
C256 C259 1.382 . S
C257 C255 1.384 . S
C257 C258 1.381 . S
C257 H275 0.930 . S
C258 C257 1.381 . S
C258 C260 1.381 . S
C258 C261 1.487 . S
C259 C256 1.382 . S
C259 C260 1.387 . S
C259 H276 0.930 . S
C260 C258 1.381 . S
C260 C259 1.387 . S
C260 H277 0.931 . S
C261 C254 1.399 . S
C261 C258 1.487 . S
C261 N278 1.343 . S
H262 C234 0.931 . S
H263 C236 0.930 . S
H264 C238 0.930 . S
H265 C239 0.931 . S
H266 C241 0.931 . S
H267 C243 0.930 . S
H268 C245 0.930 . S
H269 C246 0.931 . S
H270 C248 0.931 . S
H271 C250 0.930 . S
H272 C252 0.930 . S
H273 C253 0.931 . S
H274 C255 0.931 . S
H275 C257 0.930 . S
H276 C259 0.930 . S
H277 C260 0.931 . S
N278 C240 1.343 . S
N278 C261 1.343 . S
N279 C247 1.343 . S
N279 C254 1.343 . S
C280 C281 1.384 . S
C280 C282 1.384 . S
C280 H308 0.931 . S
C281 C280 1.384 . S
C281 C284 1.382 . S
C282 C280 1.384 . S
C282 C283 1.381 . S
C282 H309 0.930 . S
C283 C282 1.381 . S
C283 C285 1.381 . S
C283 C286 1.487 . S
C284 C281 1.382 . S
C284 C285 1.387 . S
C284 H310 0.930 . S
C285 C283 1.381 . S
C285 C284 1.387 . S
C285 H311 0.931 . S
C286 C283 1.487 . S
C286 C293 1.399 . S
C286 N324 1.343 . S
C287 C288 1.384 . S
C287 C289 1.384 . S
C287 H312 0.931 . S
C288 C287 1.384 . S
C288 C291 1.382 . S
C289 C287 1.384 . S
C289 C290 1.381 . S
C289 H313 0.930 . S
C290 C289 1.381 . S
C290 C292 1.381 . S
C290 C293 1.487 . S
C291 C288 1.382 . S
C291 C292 1.387 . S
C291 H314 0.930 . S
C292 C290 1.381 . S
C292 C291 1.387 . S
C292 H315 0.931 . S
C293 C286 1.399 . S
C293 C290 1.487 . S
C293 N325 1.343 . S
C294 C295 1.384 . S
C294 C296 1.384 . S
C294 H316 0.931 . S
C295 C294 1.384 . S
C295 C298 1.382 . S
C296 C294 1.384 . S
C296 C297 1.381 . S
C296 H317 0.930 . S
C297 C296 1.381 . S
C297 C299 1.381 . S
C297 C300 1.487 . S
C298 C295 1.382 . S
C298 C299 1.387 . S
C298 H318 0.930 . S
C299 C297 1.381 . S
C299 C298 1.387 . S
C299 H319 0.931 . S
C300 C297 1.487 . S
C300 C307 1.399 . S
C300 N325 1.343 . S
C301 C302 1.384 . S
C301 C303 1.384 . S
C301 H320 0.931 . S
C302 C301 1.384 . S
C302 C305 1.382 . S
C303 C301 1.384 . S
C303 C304 1.381 . S
C303 H321 0.930 . S
C304 C303 1.381 . S
C304 C306 1.381 . S
C304 C307 1.487 . S
C305 C302 1.382 . S
C305 C306 1.387 . S
C305 H322 0.930 . S
C306 C304 1.381 . S
C306 C305 1.387 . S
C306 H323 0.931 . S
C307 C300 1.399 . S
C307 C304 1.487 . S
C307 N324 1.343 . S
H308 C280 0.931 . S
H309 C282 0.930 . S
H310 C284 0.930 . S
H311 C285 0.931 . S
H312 C287 0.931 . S
H313 C289 0.930 . S
H314 C291 0.930 . S
H315 C292 0.931 . S
H316 C294 0.931 . S
H317 C296 0.930 . S
H318 C298 0.930 . S
H319 C299 0.931 . S
H320 C301 0.931 . S
H321 C303 0.930 . S
H322 C305 0.930 . S
H323 C306 0.931 . S
N324 C286 1.343 . S
N324 C307 1.343 . S
N325 C293 1.343 . S
N325 C300 1.343 . S
C326 C327 1.384 . S
C326 C328 1.384 . S
C326 H354 0.931 . S
C327 C326 1.384 . S
C327 C330 1.382 . S
C328 C326 1.384 . S
C328 C329 1.381 . S
C328 H355 0.930 . S
C329 C328 1.381 . S
C329 C331 1.381 . S
C329 C332 1.487 . S
C330 C327 1.382 . S
C330 C331 1.387 . S
C330 H356 0.930 . S
C331 C329 1.381 . S
C331 C330 1.387 . S
C331 H357 0.931 . S
C332 C329 1.487 . S
C332 C339 1.399 . S
C332 N370 1.343 . S
C333 C334 1.384 . S
C333 C335 1.384 . S
C333 H358 0.931 . S
C334 C333 1.384 . S
C334 C337 1.382 . S
C335 C333 1.384 . S
C335 C336 1.381 . S
C335 H359 0.930 . S
C336 C335 1.381 . S
C336 C338 1.381 . S
C336 C339 1.487 . S
C337 C334 1.382 . S
C337 C338 1.387 . S
C337 H360 0.930 . S
C338 C336 1.381 . S
C338 C337 1.387 . S
C338 H361 0.931 . S
C339 C332 1.399 . S
C339 C336 1.487 . S
C339 N371 1.343 . S
C340 C341 1.384 . S
C340 C342 1.384 . S
C340 H362 0.931 . S
C341 C340 1.384 . S
C341 C344 1.382 . S
C342 C340 1.384 . S
C342 C343 1.381 . S
C342 H363 0.930 . S
C343 C342 1.381 . S
C343 C345 1.381 . S
C343 C346 1.487 . S
C344 C341 1.382 . S
C344 C345 1.387 . S
C344 H364 0.930 . S
C345 C343 1.381 . S
C345 C344 1.387 . S
C345 H365 0.931 . S
C346 C343 1.487 . S
C346 C353 1.399 . S
C346 N371 1.343 . S
C347 C348 1.384 . S
C347 C349 1.384 . S
C347 H366 0.931 . S
C348 C347 1.384 . S
C348 C351 1.382 . S
C349 C347 1.384 . S
C349 C350 1.381 . S
C349 H367 0.930 . S
C350 C349 1.381 . S
C350 C352 1.381 . S
C350 C353 1.487 . S
C351 C348 1.382 . S
C351 C352 1.387 . S
C351 H368 0.930 . S
C352 C350 1.381 . S
C352 C351 1.387 . S
C352 H369 0.931 . S
C353 C346 1.399 . S
C353 C350 1.487 . S
C353 N370 1.343 . S
H354 C326 0.931 . S
H355 C328 0.930 . S
H356 C330 0.930 . S
H357 C331 0.931 . S
H358 C333 0.931 . S
H359 C335 0.930 . S
H360 C337 0.930 . S
H361 C338 0.931 . S
H362 C340 0.931 . S
H363 C342 0.930 . S
H364 C344 0.930 . S
H365 C345 0.931 . S
H366 C347 0.931 . S
H367 C349 0.930 . S
H368 C351 0.930 . S
H369 C352 0.931 . S
N370 C332 1.343 . S
N370 C353 1.343 . S
N371 C339 1.343 . S
N371 C346 1.343 . S
C372 C373 1.384 . S
C372 C374 1.384 . S
C372 H400 0.931 . S
C373 C372 1.384 . S
C373 C376 1.382 . S
C374 C372 1.384 . S
C374 C375 1.381 . S
C374 H401 0.930 . S
C375 C374 1.381 . S
C375 C377 1.381 . S
C375 C378 1.487 . S
C376 C373 1.382 . S
C376 C377 1.387 . S
C376 H402 0.930 . S
C377 C375 1.381 . S
C377 C376 1.387 . S
C377 H403 0.931 . S
C378 C375 1.487 . S
C378 C385 1.399 . S
C378 N416 1.343 . S
C379 C380 1.384 . S
C379 C381 1.384 . S
C379 H404 0.931 . S
C380 C379 1.384 . S
C380 C383 1.382 . S
C381 C379 1.384 . S
C381 C382 1.381 . S
C381 H405 0.930 . S
C382 C381 1.381 . S
C382 C384 1.381 . S
C382 C385 1.487 . S
C383 C380 1.382 . S
C383 C384 1.387 . S
C383 H406 0.930 . S
C384 C382 1.381 . S
C384 C383 1.387 . S
C384 H407 0.931 . S
C385 C378 1.399 . S
C385 C382 1.487 . S
C385 N417 1.343 . S
C386 C387 1.384 . S
C386 C388 1.384 . S
C386 H408 0.931 . S
C387 C386 1.384 . S
C387 C390 1.382 . S
C388 C386 1.384 . S
C388 C389 1.381 . S
C388 H409 0.930 . S
C389 C388 1.381 . S
C389 C391 1.381 . S
C389 C392 1.487 . S
C390 C387 1.382 . S
C390 C391 1.387 . S
C390 H410 0.930 . S
C391 C389 1.381 . S
C391 C390 1.387 . S
C391 H411 0.931 . S
C392 C389 1.487 . S
C392 C399 1.399 . S
C392 N417 1.343 . S
C393 C394 1.384 . S
C393 C395 1.384 . S
C393 H412 0.931 . S
C394 C393 1.384 . S
C394 C397 1.382 . S
C395 C393 1.384 . S
C395 C396 1.381 . S
C395 H413 0.930 . S
C396 C395 1.381 . S
C396 C398 1.381 . S
C396 C399 1.487 . S
C397 C394 1.382 . S
C397 C398 1.387 . S
C397 H414 0.930 . S
C398 C396 1.381 . S
C398 C397 1.387 . S
C398 H415 0.931 . S
C399 C392 1.399 . S
C399 C396 1.487 . S
C399 N416 1.343 . S
H400 C372 0.931 . S
H401 C374 0.930 . S
H402 C376 0.930 . S
H403 C377 0.931 . S
H404 C379 0.931 . S
H405 C381 0.930 . S
H406 C383 0.930 . S
H407 C384 0.931 . S
H408 C386 0.931 . S
H409 C388 0.930 . S
H410 C390 0.930 . S
H411 C391 0.931 . S
H412 C393 0.931 . S
H413 C395 0.930 . S
H414 C397 0.930 . S
H415 C398 0.931 . S
N416 C378 1.343 . S
N416 C399 1.343 . S
N417 C385 1.343 . S
N417 C392 1.343 . S
C418 C419 1.384 . S
C418 C420 1.384 . S
C418 H446 0.931 . S
C419 C418 1.384 . S
C419 C422 1.382 . S
C420 C418 1.384 . S
C420 C421 1.381 . S
C420 H447 0.930 . S
C421 C420 1.381 . S
C421 C423 1.381 . S
C421 C424 1.487 . S
C422 C419 1.382 . S
C422 C423 1.387 . S
C422 H448 0.930 . S
C423 C421 1.381 . S
C423 C422 1.387 . S
C423 H449 0.931 . S
C424 C421 1.487 . S
C424 C431 1.399 . S
C424 N462 1.343 . S
C425 C426 1.384 . S
C425 C427 1.384 . S
C425 H450 0.931 . S
C426 C425 1.384 . S
C426 C429 1.382 . S
C427 C425 1.384 . S
C427 C428 1.381 . S
C427 H451 0.930 . S
C428 C427 1.381 . S
C428 C430 1.381 . S
C428 C431 1.487 . S
C429 C426 1.382 . S
C429 C430 1.387 . S
C429 H452 0.930 . S
C430 C428 1.381 . S
C430 C429 1.387 . S
C430 H453 0.931 . S
C431 C424 1.399 . S
C431 C428 1.487 . S
C431 N463 1.343 . S
C432 C433 1.384 . S
C432 C434 1.384 . S
C432 H454 0.931 . S
C433 C432 1.384 . S
C433 C436 1.382 . S
C434 C432 1.384 . S
C434 C435 1.381 . S
C434 H455 0.930 . S
C435 C434 1.381 . S
C435 C437 1.381 . S
C435 C438 1.487 . S
C436 C433 1.382 . S
C436 C437 1.387 . S
C436 H456 0.930 . S
C437 C435 1.381 . S
C437 C436 1.387 . S
C437 H457 0.931 . S
C438 C435 1.487 . S
C438 C445 1.399 . S
C438 N463 1.343 . S
C439 C440 1.384 . S
C439 C441 1.384 . S
C439 H458 0.931 . S
C440 C439 1.384 . S
C440 C443 1.382 . S
C441 C439 1.384 . S
C441 C442 1.381 . S
C441 H459 0.930 . S
C442 C441 1.381 . S
C442 C444 1.381 . S
C442 C445 1.487 . S
C443 C440 1.382 . S
C443 C444 1.387 . S
C443 H460 0.930 . S
C444 C442 1.381 . S
C444 C443 1.387 . S
C444 H461 0.931 . S
C445 C438 1.399 . S
C445 C442 1.487 . S
C445 N462 1.343 . S
H446 C418 0.931 . S
H447 C420 0.930 . S
H448 C422 0.930 . S
H449 C423 0.931 . S
H450 C425 0.931 . S
H451 C427 0.930 . S
H452 C429 0.930 . S
H453 C430 0.931 . S
H454 C432 0.931 . S
H455 C434 0.930 . S
H456 C436 0.930 . S
H457 C437 0.931 . S
H458 C439 0.931 . S
H459 C441 0.930 . S
H460 C443 0.930 . S
H461 C444 0.931 . S
N462 C424 1.343 . S
N462 C445 1.343 . S
N463 C431 1.343 . S
N463 C438 1.343 . S
C464 C465 1.384 . S
C464 C466 1.384 . S
C464 H492 0.931 . S
C465 C464 1.384 . S
C465 C468 1.382 . S
C466 C464 1.384 . S
C466 C467 1.381 . S
C466 H493 0.930 . S
C467 C466 1.381 . S
C467 C469 1.381 . S
C467 C470 1.487 . S
C468 C465 1.382 . S
C468 C469 1.387 . S
C468 H494 0.930 . S
C469 C467 1.381 . S
C469 C468 1.387 . S
C469 H495 0.931 . S
C470 C467 1.487 . S
C470 C477 1.399 . S
C470 N508 1.343 . S
C471 C472 1.384 . S
C471 C473 1.384 . S
C471 H496 0.931 . S
C472 C471 1.384 . S
C472 C475 1.382 . S
C473 C471 1.384 . S
C473 C474 1.381 . S
C473 H497 0.930 . S
C474 C473 1.381 . S
C474 C476 1.381 . S
C474 C477 1.487 . S
C475 C472 1.382 . S
C475 C476 1.387 . S
C475 H498 0.930 . S
C476 C474 1.381 . S
C476 C475 1.387 . S
C476 H499 0.931 . S
C477 C470 1.399 . S
C477 C474 1.487 . S
C477 N509 1.343 . S
C478 C479 1.384 . S
C478 C480 1.384 . S
C478 H500 0.931 . S
C479 C478 1.384 . S
C479 C482 1.382 . S
C480 C478 1.384 . S
C480 C481 1.381 . S
C480 H501 0.930 . S
C481 C480 1.381 . S
C481 C483 1.381 . S
C481 C484 1.487 . S
C482 C479 1.382 . S
C482 C483 1.387 . S
C482 H502 0.930 . S
C483 C481 1.381 . S
C483 C482 1.387 . S
C483 H503 0.931 . S
C484 C481 1.487 . S
C484 C491 1.399 . S
C484 N509 1.343 . S
C485 C486 1.384 . S
C485 C487 1.384 . S
C485 H504 0.931 . S
C486 C485 1.384 . S
C486 C489 1.382 . S
C487 C485 1.384 . S
C487 C488 1.381 . S
C487 H505 0.930 . S
C488 C487 1.381 . S
C488 C490 1.381 . S
C488 C491 1.487 . S
C489 C486 1.382 . S
C489 C490 1.387 . S
C489 H506 0.930 . S
C490 C488 1.381 . S
C490 C489 1.387 . S
C490 H507 0.931 . S
C491 C484 1.399 . S
C491 C488 1.487 . S
C491 N508 1.343 . S
H492 C464 0.931 . S
H493 C466 0.930 . S
H494 C468 0.930 . S
H495 C469 0.931 . S
H496 C471 0.931 . S
H497 C473 0.930 . S
H498 C475 0.930 . S
H499 C476 0.931 . S
H500 C478 0.931 . S
H501 C480 0.930 . S
H502 C482 0.930 . S
H503 C483 0.931 . S
H504 C485 0.931 . S
H505 C487 0.930 . S
H506 C489 0.930 . S
H507 C490 0.931 . S
N508 C470 1.343 . S
N508 C491 1.343 . S
N509 C477 1.343 . S
N509 C484 1.343 . S
C510 C511 1.384 . S
C510 C512 1.384 . S
C510 H538 0.931 . S
C511 C510 1.384 . S
C511 C514 1.382 . S
C512 C510 1.384 . S
C512 C513 1.381 . S
C512 H539 0.930 . S
C513 C512 1.381 . S
C513 C515 1.381 . S
C513 C516 1.487 . S
C514 C511 1.382 . S
C514 C515 1.387 . S
C514 H540 0.930 . S
C515 C513 1.381 . S
C515 C514 1.387 . S
C515 H541 0.931 . S
C516 C513 1.487 . S
C516 C523 1.399 . S
C516 N554 1.343 . S
C517 C518 1.384 . S
C517 C519 1.384 . S
C517 H542 0.931 . S
C518 C517 1.384 . S
C518 C521 1.382 . S
C519 C517 1.384 . S
C519 C520 1.381 . S
C519 H543 0.930 . S
C520 C519 1.381 . S
C520 C522 1.381 . S
C520 C523 1.487 . S
C521 C518 1.382 . S
C521 C522 1.387 . S
C521 H544 0.930 . S
C522 C520 1.381 . S
C522 C521 1.387 . S
C522 H545 0.931 . S
C523 C516 1.399 . S
C523 C520 1.487 . S
C523 N555 1.343 . S
C524 C525 1.384 . S
C524 C526 1.384 . S
C524 H546 0.931 . S
C525 C524 1.384 . S
C525 C528 1.382 . S
C526 C524 1.384 . S
C526 C527 1.381 . S
C526 H547 0.930 . S
C527 C526 1.381 . S
C527 C529 1.381 . S
C527 C530 1.487 . S
C528 C525 1.382 . S
C528 C529 1.387 . S
C528 H548 0.930 . S
C529 C527 1.381 . S
C529 C528 1.387 . S
C529 H549 0.931 . S
C530 C527 1.487 . S
C530 C537 1.399 . S
C530 N555 1.343 . S
C531 C532 1.384 . S
C531 C533 1.384 . S
C531 H550 0.931 . S
C532 C531 1.384 . S
C532 C535 1.382 . S
C533 C531 1.384 . S
C533 C534 1.381 . S
C533 H551 0.930 . S
C534 C533 1.381 . S
C534 C536 1.381 . S
C534 C537 1.487 . S
C535 C532 1.382 . S
C535 C536 1.387 . S
C535 H552 0.930 . S
C536 C534 1.381 . S
C536 C535 1.387 . S
C536 H553 0.931 . S
C537 C530 1.399 . S
C537 C534 1.487 . S
C537 N554 1.343 . S
H538 C510 0.931 . S
H539 C512 0.930 . S
H540 C514 0.930 . S
H541 C515 0.931 . S
H542 C517 0.931 . S
H543 C519 0.930 . S
H544 C521 0.930 . S
H545 C522 0.931 . S
H546 C524 0.931 . S
H547 C526 0.930 . S
H548 C528 0.930 . S
H549 C529 0.931 . S
H550 C531 0.931 . S
H551 C533 0.930 . S
H552 C535 0.930 . S
H553 C536 0.931 . S
N554 C516 1.343 . S
N554 C537 1.343 . S
N555 C523 1.343 . S
N555 C530 1.343 . S
C556 C557 1.384 . S
C556 C558 1.384 . S
C556 H584 0.931 . S
C557 C556 1.384 . S
C557 C560 1.382 . S
C558 C556 1.384 . S
C558 C559 1.381 . S
C558 H585 0.930 . S
C559 C558 1.381 . S
C559 C561 1.381 . S
C559 C562 1.487 . S
C560 C557 1.382 . S
C560 C561 1.387 . S
C560 H586 0.930 . S
C561 C559 1.381 . S
C561 C560 1.387 . S
C561 H587 0.931 . S
C562 C559 1.487 . S
C562 C569 1.399 . S
C562 N600 1.343 . S
C563 C564 1.384 . S
C563 C565 1.384 . S
C563 H588 0.931 . S
C564 C563 1.384 . S
C564 C567 1.382 . S
C565 C563 1.384 . S
C565 C566 1.381 . S
C565 H589 0.930 . S
C566 C565 1.381 . S
C566 C568 1.381 . S
C566 C569 1.487 . S
C567 C564 1.382 . S
C567 C568 1.387 . S
C567 H590 0.930 . S
C568 C566 1.381 . S
C568 C567 1.387 . S
C568 H591 0.931 . S
C569 C562 1.399 . S
C569 C566 1.487 . S
C569 N601 1.343 . S
C570 C571 1.384 . S
C570 C572 1.384 . S
C570 H592 0.931 . S
C571 C570 1.384 . S
C571 C574 1.382 . S
C572 C570 1.384 . S
C572 C573 1.381 . S
C572 H593 0.930 . S
C573 C572 1.381 . S
C573 C575 1.381 . S
C573 C576 1.487 . S
C574 C571 1.382 . S
C574 C575 1.387 . S
C574 H594 0.930 . S
C575 C573 1.381 . S
C575 C574 1.387 . S
C575 H595 0.931 . S
C576 C573 1.487 . S
C576 C583 1.399 . S
C576 N601 1.343 . S
C577 C578 1.384 . S
C577 C579 1.384 . S
C577 H596 0.931 . S
C578 C577 1.384 . S
C578 C581 1.382 . S
C579 C577 1.384 . S
C579 C580 1.381 . S
C579 H597 0.930 . S
C580 C579 1.381 . S
C580 C582 1.381 . S
C580 C583 1.487 . S
C581 C578 1.382 . S
C581 C582 1.387 . S
C581 H598 0.930 . S
C582 C580 1.381 . S
C582 C581 1.387 . S
C582 H599 0.931 . S
C583 C576 1.399 . S
C583 C580 1.487 . S
C583 N600 1.343 . S
H584 C556 0.931 . S
H585 C558 0.930 . S
H586 C560 0.930 . S
H587 C561 0.931 . S
H588 C563 0.931 . S
H589 C565 0.930 . S
H590 C567 0.930 . S
H591 C568 0.931 . S
H592 C570 0.931 . S
H593 C572 0.930 . S
H594 C574 0.930 . S
H595 C575 0.931 . S
H596 C577 0.931 . S
H597 C579 0.930 . S
H598 C581 0.930 . S
H599 C582 0.931 . S
N600 C562 1.343 . S
N600 C583 1.343 . S
N601 C569 1.343 . S
N601 C576 1.343 . S
C602 C603 1.384 . S
C602 C604 1.384 . S
C602 H630 0.931 . S
C603 C602 1.384 . S
C603 C606 1.382 . S
C604 C602 1.384 . S
C604 C605 1.381 . S
C604 H631 0.930 . S
C605 C604 1.381 . S
C605 C607 1.381 . S
C605 C608 1.487 . S
C606 C603 1.382 . S
C606 C607 1.387 . S
C606 H632 0.930 . S
C607 C605 1.381 . S
C607 C606 1.387 . S
C607 H633 0.931 . S
C608 C605 1.487 . S
C608 C615 1.399 . S
C608 N646 1.343 . S
C609 C610 1.384 . S
C609 C611 1.384 . S
C609 H634 0.931 . S
C610 C609 1.384 . S
C610 C613 1.382 . S
C611 C609 1.384 . S
C611 C612 1.381 . S
C611 H635 0.930 . S
C612 C611 1.381 . S
C612 C614 1.381 . S
C612 C615 1.487 . S
C613 C610 1.382 . S
C613 C614 1.387 . S
C613 H636 0.930 . S
C614 C612 1.381 . S
C614 C613 1.387 . S
C614 H637 0.931 . S
C615 C608 1.399 . S
C615 C612 1.487 . S
C615 N647 1.343 . S
C616 C617 1.384 . S
C616 C618 1.384 . S
C616 H638 0.931 . S
C617 C616 1.384 . S
C617 C620 1.382 . S
C618 C616 1.384 . S
C618 C619 1.381 . S
C618 H639 0.930 . S
C619 C618 1.381 . S
C619 C621 1.381 . S
C619 C622 1.487 . S
C620 C617 1.382 . S
C620 C621 1.387 . S
C620 H640 0.930 . S
C621 C619 1.381 . S
C621 C620 1.387 . S
C621 H641 0.931 . S
C622 C619 1.487 . S
C622 C629 1.399 . S
C622 N647 1.343 . S
C623 C624 1.384 . S
C623 C625 1.384 . S
C623 H642 0.931 . S
C624 C623 1.384 . S
C624 C627 1.382 . S
C625 C623 1.384 . S
C625 C626 1.381 . S
C625 H643 0.930 . S
C626 C625 1.381 . S
C626 C628 1.381 . S
C626 C629 1.487 . S
C627 C624 1.382 . S
C627 C628 1.387 . S
C627 H644 0.930 . S
C628 C626 1.381 . S
C628 C627 1.387 . S
C628 H645 0.931 . S
C629 C622 1.399 . S
C629 C626 1.487 . S
C629 N646 1.343 . S
H630 C602 0.931 . S
H631 C604 0.930 . S
H632 C606 0.930 . S
H633 C607 0.931 . S
H634 C609 0.931 . S
H635 C611 0.930 . S
H636 C613 0.930 . S
H637 C614 0.931 . S
H638 C616 0.931 . S
H639 C618 0.930 . S
H640 C620 0.930 . S
H641 C621 0.931 . S
H642 C623 0.931 . S
H643 C625 0.930 . S
H644 C627 0.930 . S
H645 C628 0.931 . S
N646 C608 1.343 . S
N646 C629 1.343 . S
N647 C615 1.343 . S
N647 C622 1.343 . S
C648 C649 1.384 . S
C648 C650 1.384 . S
C648 H676 0.931 . S
C649 C648 1.384 . S
C649 C652 1.382 1_655 S
C650 C648 1.384 . S
C650 C651 1.426 . S
C650 H677 0.930 . S
C651 C650 1.426 . S
C651 C653 1.360 1_655 S
C651 C654 1.468 1_655 S
C652 C649 1.382 1_455 S
C652 C653 1.387 . S
C652 H678 0.930 . S
C653 C651 1.360 1_455 S
C653 C652 1.387 . S
C653 H679 0.931 . S
C654 C651 1.468 1_455 S
C654 C661 1.399 1_455 S
C654 N692 1.304 . S
C655 C656 1.430 . S
C655 C657 1.384 . S
C655 H680 0.931 . S
C656 C655 1.430 . S
C656 C659 1.371 1_455 S
C657 C655 1.384 . S
C657 C658 1.379 1_455 S
C657 H681 0.930 . S
C658 C657 1.379 1_655 S
C658 C660 1.390 . S
C658 C661 1.491 . S
C659 C656 1.371 1_655 S
C659 C660 1.387 . S
C659 H682 0.930 . S
C660 C658 1.390 . S
C660 C659 1.387 . S
C660 H683 0.931 . S
C661 C654 1.399 1_655 S
C661 C658 1.491 . S
C661 N693 1.357 . S
C662 C663 1.384 . S
C662 C664 1.384 . S
C662 H684 0.931 . S
C663 C662 1.384 . S
C663 C666 1.382 1_455 S
C664 C662 1.384 . S
C664 C665 1.447 . S
C664 H685 0.930 . S
C665 C664 1.447 . S
C665 C667 1.350 1_455 S
C665 C668 1.459 . S
C666 C663 1.382 1_655 S
C666 C667 1.387 . S
C666 H686 0.930 . S
C667 C665 1.350 1_655 S
C667 C666 1.387 . S
C667 H687 0.931 . S
C668 C665 1.459 . S
C668 C675 1.399 . S
C668 N693 1.314 1_455 S
C669 C670 1.417 . S
C669 C671 1.384 . S
C669 H688 0.931 . S
C670 C669 1.417 . S
C670 C673 1.373 1_655 S
C671 C669 1.384 . S
C671 C672 1.376 1_655 S
C671 H689 0.930 . S
C672 C671 1.376 1_455 S
C672 C674 1.402 . S
C672 C675 1.491 . S
C673 C670 1.373 1_455 S
C673 C674 1.387 . S
C673 H690 0.930 . S
C674 C672 1.402 . S
C674 C673 1.387 . S
C674 H691 0.931 . S
C675 C668 1.399 . S
C675 C672 1.491 . S
C675 N692 1.357 . S
H676 C648 0.931 . S
H677 C650 0.930 . S
H678 C652 0.930 . S
H679 C653 0.931 . S
H680 C655 0.931 . S
H681 C657 0.930 . S
H682 C659 0.930 . S
H683 C660 0.931 . S
H684 C662 0.931 . S
H685 C664 0.930 . S
H686 C666 0.930 . S
H687 C667 0.931 . S
H688 C669 0.931 . S
H689 C671 0.930 . S
H690 C673 0.930 . S
H691 C674 0.931 . S
N692 C654 1.304 . S
N692 C675 1.357 . S
N693 C661 1.357 . S
N693 C668 1.314 1_655 S
C694 C695 1.384 . S
C694 C696 1.384 . S
C694 H722 0.931 . S
C695 C694 1.384 . S
C695 C698 1.382 . S
C696 C694 1.384 . S
C696 C697 1.381 . S
C696 H723 0.930 . S
C697 C696 1.381 . S
C697 C699 1.381 . S
C697 C700 1.487 . S
C698 C695 1.382 . S
C698 C699 1.387 . S
C698 H724 0.930 . S
C699 C697 1.381 . S
C699 C698 1.387 . S
C699 H725 0.931 . S
C700 C697 1.487 . S
C700 C707 1.399 . S
C700 N738 1.343 . S
C701 C702 1.384 . S
C701 C703 1.384 . S
C701 H726 0.931 . S
C702 C701 1.384 . S
C702 C705 1.382 . S
C703 C701 1.384 . S
C703 C704 1.381 . S
C703 H727 0.930 . S
C704 C703 1.381 . S
C704 C706 1.381 . S
C704 C707 1.487 . S
C705 C702 1.382 . S
C705 C706 1.387 . S
C705 H728 0.930 . S
C706 C704 1.381 . S
C706 C705 1.387 . S
C706 H729 0.931 . S
C707 C700 1.399 . S
C707 C704 1.487 . S
C707 N739 1.343 . S
C708 C709 1.384 . S
C708 C710 1.384 . S
C708 H730 0.931 . S
C709 C708 1.384 . S
C709 C712 1.382 . S
C710 C708 1.384 . S
C710 C711 1.381 . S
C710 H731 0.930 . S
C711 C710 1.381 . S
C711 C713 1.381 . S
C711 C714 1.487 . S
C712 C709 1.382 . S
C712 C713 1.387 . S
C712 H732 0.930 . S
C713 C711 1.381 . S
C713 C712 1.387 . S
C713 H733 0.931 . S
C714 C711 1.487 . S
C714 C721 1.399 . S
C714 N739 1.343 . S
C715 C716 1.384 . S
C715 C717 1.384 . S
C715 H734 0.931 . S
C716 C715 1.384 . S
C716 C719 1.382 . S
C717 C715 1.384 . S
C717 C718 1.381 . S
C717 H735 0.930 . S
C718 C717 1.381 . S
C718 C720 1.381 . S
C718 C721 1.487 . S
C719 C716 1.382 . S
C719 C720 1.387 . S
C719 H736 0.930 . S
C720 C718 1.381 . S
C720 C719 1.387 . S
C720 H737 0.931 . S
C721 C714 1.399 . S
C721 C718 1.487 . S
C721 N738 1.343 . S
H722 C694 0.931 . S
H723 C696 0.930 . S
H724 C698 0.930 . S
H725 C699 0.931 . S
H726 C701 0.931 . S
H727 C703 0.930 . S
H728 C705 0.930 . S
H729 C706 0.931 . S
H730 C708 0.931 . S
H731 C710 0.930 . S
H732 C712 0.930 . S
H733 C713 0.931 . S
H734 C715 0.931 . S
H735 C717 0.930 . S
H736 C719 0.930 . S
H737 C720 0.931 . S
N738 C700 1.343 . S
N738 C721 1.343 . S
N739 C707 1.343 . S
N739 C714 1.343 . S
C740 C741 1.384 1_545 S
C740 C742 1.384 . S
C740 H768 0.931 . S
C741 C740 1.384 1_565 S
C741 C744 1.382 . S
C742 C740 1.384 . S
C742 C743 1.381 1_545 S
C742 H769 0.930 . S
C743 C742 1.381 1_565 S
C743 C745 1.381 . S
C743 C746 1.487 . S
C744 C741 1.382 . S
C744 C745 1.387 . S
C744 H770 0.930 . S
C745 C743 1.381 . S
C745 C744 1.387 . S
C745 H771 0.931 . S
C746 C743 1.487 . S
C746 C753 1.399 1_565 S
C746 N784 1.343 . S
C747 C748 1.384 1_565 S
C747 C749 1.384 . S
C747 H772 0.931 . S
C748 C747 1.384 1_545 S
C748 C751 1.382 . S
C749 C747 1.384 . S
C749 C750 1.381 1_565 S
C749 H773 0.930 . S
C750 C749 1.381 1_545 S
C750 C752 1.381 . S
C750 C753 1.487 . S
C751 C748 1.382 . S
C751 C752 1.387 . S
C751 H774 0.930 . S
C752 C750 1.381 . S
C752 C751 1.387 . S
C752 H775 0.931 . S
C753 C746 1.399 1_545 S
C753 C750 1.487 . S
C753 N785 1.343 . S
C754 C755 1.384 1_565 S
C754 C756 1.384 . S
C754 H776 0.931 . S
C755 C754 1.384 1_545 S
C755 C758 1.382 . S
C756 C754 1.384 . S
C756 C757 1.381 1_565 S
C756 H777 0.930 . S
C757 C756 1.381 1_545 S
C757 C759 1.381 . S
C757 C760 1.456 . S
C758 C755 1.382 . S
C758 C759 1.387 . S
C758 H778 0.930 . S
C759 C757 1.381 . S
C759 C758 1.387 . S
C759 H779 0.931 . S
C760 C757 1.456 . S
C760 C767 1.388 1_545 S
C760 N785 1.395 . S
C761 C762 1.384 1_545 S
C761 C763 1.384 . S
C761 H780 0.931 . S
C762 C761 1.384 1_565 S
C762 C765 1.382 . S
C763 C761 1.384 . S
C763 C764 1.381 1_545 S
C763 H781 0.930 . S
C764 C763 1.381 1_565 S
C764 C766 1.381 . S
C764 C767 1.487 . S
C765 C762 1.382 . S
C765 C766 1.387 . S
C765 H782 0.930 . S
C766 C764 1.381 . S
C766 C765 1.387 . S
C766 H783 0.931 . S
C767 C760 1.388 1_565 S
C767 C764 1.487 . S
C767 N784 1.343 . S
H768 C740 0.931 . S
H769 C742 0.930 . S
H770 C744 0.930 . S
H771 C745 0.931 . S
H772 C747 0.931 . S
H773 C749 0.930 . S
H774 C751 0.930 . S
H775 C752 0.931 . S
H776 C754 0.931 . S
H777 C756 0.930 . S
H778 C758 0.930 . S
H779 C759 0.931 . S
H780 C761 0.931 . S
H781 C763 0.930 . S
H782 C765 0.930 . S
H783 C766 0.931 . S
N784 C746 1.343 . S
N784 C767 1.343 . S
N785 C753 1.343 . S
N785 C760 1.395 . S
C786 C787 1.384 . S
C786 C788 1.384 . S
C786 H814 0.931 . S
C787 C786 1.384 . S
C787 C790 1.382 1_545 S
C788 C786 1.384 . S
C788 C789 1.381 1_545 S
C788 H815 0.930 . S
C789 C788 1.381 1_565 S
C789 C791 1.381 . S
C789 C792 1.494 . S
C790 C787 1.382 1_565 S
C790 C791 1.387 . S
C790 H816 0.930 . S
C791 C789 1.381 . S
C791 C790 1.387 . S
C791 H817 0.931 . S
C792 C789 1.494 . S
C792 C799 1.399 1_565 S
C792 N830 1.359 . S
C793 C794 1.384 . S
C793 C795 1.384 . S
C793 H818 0.931 . S
C794 C793 1.384 . S
C794 C797 1.382 1_565 S
C795 C793 1.384 . S
C795 C796 1.416 . S
C795 H819 0.930 . S
C796 C795 1.416 . S
C796 C798 1.365 1_565 S
C796 C799 1.470 1_565 S
C797 C794 1.382 1_545 S
C797 C798 1.387 . S
C797 H820 0.930 . S
C798 C796 1.365 1_545 S
C798 C797 1.387 . S
C798 H821 0.931 . S
C799 C792 1.399 1_545 S
C799 C796 1.470 1_545 S
C799 N831 1.309 . S
C800 C801 1.434 . S
C800 C802 1.384 . S
C800 H822 0.931 . S
C801 C800 1.434 . S
C801 C804 1.369 1_565 S
C802 C800 1.384 . S
C802 C803 1.378 1_565 S
C802 H823 0.930 . S
C803 C802 1.378 1_545 S
C803 C805 1.393 . S
C803 C806 1.494 . S
C804 C801 1.369 1_545 S
C804 C805 1.387 . S
C804 H824 0.930 . S
C805 C803 1.393 . S
C805 C804 1.387 . S
C805 H825 0.931 . S
C806 C803 1.494 . S
C806 C813 1.400 . S
C806 N831 1.359 . S
C807 C808 1.384 . S
C807 C809 1.384 . S
C807 H826 0.931 . S
C808 C807 1.384 . S
C808 C811 1.382 1_545 S
C809 C807 1.384 . S
C809 C810 1.436 . S
C809 H827 0.930 . S
C810 C809 1.436 . S
C810 C812 1.356 1_545 S
C810 C813 1.460 . S
C811 C808 1.382 1_565 S
C811 C812 1.387 . S
C811 H828 0.930 . S
C812 C810 1.356 1_565 S
C812 C811 1.387 . S
C812 H829 0.931 . S
C813 C806 1.400 . S
C813 C810 1.460 . S
C813 N830 1.319 1_545 S
H814 C786 0.931 . S
H815 C788 0.930 . S
H816 C790 0.930 . S
H817 C791 0.931 . S
H818 C793 0.931 . S
H819 C795 0.930 . S
H820 C797 0.930 . S
H821 C798 0.931 . S
H822 C800 0.931 . S
H823 C802 0.930 . S
H824 C804 0.930 . S
H825 C805 0.931 . S
H826 C807 0.931 . S
H827 C809 0.930 . S
H828 C811 0.930 . S
H829 C812 0.931 . S
N830 C792 1.359 . S
N830 C813 1.319 1_565 S
N831 C799 1.309 . S
N831 C806 1.359 . S
C832 C833 1.384 . S
C832 C834 1.384 . S
C832 H860 0.931 . S
C833 C832 1.384 . S
C833 C836 1.382 1_655 S
C834 C832 1.384 . S
C834 C835 1.464 . S
C834 H861 0.930 . S
C835 C834 1.464 . S
C835 C837 1.343 1_655 S
C835 C838 1.454 . S
C836 C833 1.382 1_455 S
C836 C837 1.387 . S
C836 H862 0.930 . S
C837 C835 1.343 1_455 S
C837 C836 1.387 . S
C837 H863 0.931 . S
C838 C835 1.454 . S
C838 C845 1.399 . S
C838 N876 1.318 1_655 S
C839 C840 1.438 . S
C839 C841 1.384 . S
C839 H864 0.931 . S
C840 C839 1.438 . S
C840 C843 1.369 1_455 S
C841 C839 1.384 . S
C841 C842 1.378 1_455 S
C841 H865 0.930 . S
C842 C841 1.378 1_655 S
C842 C844 1.392 . S
C842 C845 1.495 . S
C843 C840 1.369 1_655 S
C843 C844 1.387 . S
C843 H866 0.930 . S
C844 C842 1.392 . S
C844 C843 1.387 . S
C844 H867 0.931 . S
C845 C838 1.399 . S
C845 C842 1.495 . S
C845 N877 1.353 . S
C846 C847 1.384 . S
C846 C848 1.384 . S
C846 H868 0.931 . S
C847 C846 1.384 . S
C847 C850 1.382 1_455 S
C848 C846 1.384 . S
C848 C849 1.442 . S
C848 H869 0.930 . S
C849 C848 1.442 . S
C849 C851 1.352 1_455 S
C849 C852 1.454 . S
C850 C847 1.382 1_655 S
C850 C851 1.387 . S
C850 H870 0.930 . S
C851 C849 1.352 1_655 S
C851 C850 1.387 . S
C851 H871 0.931 . S
C852 C849 1.454 . S
C852 C859 1.399 . S
C852 N877 1.318 1_455 S
C853 C854 1.384 . S
C853 C855 1.384 . S
C853 H872 0.931 . S
C854 C853 1.384 . S
C854 C857 1.382 1_655 S
C855 C853 1.384 . S
C855 C856 1.382 1_655 S
C855 H873 0.930 . S
C856 C855 1.382 1_455 S
C856 C858 1.380 . S
C856 C859 1.495 . S
C857 C854 1.382 1_455 S
C857 C858 1.387 . S
C857 H874 0.930 . S
C858 C856 1.380 . S
C858 C857 1.387 . S
C858 H875 0.931 . S
C859 C852 1.399 . S
C859 C856 1.495 . S
C859 N876 1.353 . S
H860 C832 0.931 . S
H861 C834 0.930 . S
H862 C836 0.930 . S
H863 C837 0.931 . S
H864 C839 0.931 . S
H865 C841 0.930 . S
H866 C843 0.930 . S
H867 C844 0.931 . S
H868 C846 0.931 . S
H869 C848 0.930 . S
H870 C850 0.930 . S
H871 C851 0.931 . S
H872 C853 0.931 . S
H873 C855 0.930 . S
H874 C857 0.930 . S
H875 C858 0.931 . S
N876 C838 1.318 1_455 S
N876 C859 1.353 . S
N877 C845 1.353 . S
N877 C852 1.318 1_655 S
C878 C879 1.384 . S
C878 C880 1.384 . S
C878 H906 0.931 . S
C879 C878 1.384 . S
C879 C882 1.382 . S
C880 C878 1.384 . S
C880 C881 1.381 . S
C880 H907 0.930 . S
C881 C880 1.381 . S
C881 C883 1.381 . S
C881 C884 1.487 . S
C882 C879 1.382 . S
C882 C883 1.387 . S
C882 H908 0.930 . S
C883 C881 1.381 . S
C883 C882 1.387 . S
C883 H909 0.931 . S
C884 C881 1.487 . S
C884 C891 1.399 . S
C884 N922 1.343 . S
C885 C886 1.384 . S
C885 C887 1.384 . S
C885 H910 0.931 . S
C886 C885 1.384 . S
C886 C889 1.382 . S
C887 C885 1.384 . S
C887 C888 1.381 . S
C887 H911 0.930 . S
C888 C887 1.381 . S
C888 C890 1.381 . S
C888 C891 1.487 . S
C889 C886 1.382 . S
C889 C890 1.387 . S
C889 H912 0.930 . S
C890 C888 1.381 . S
C890 C889 1.387 . S
C890 H913 0.931 . S
C891 C884 1.399 . S
C891 C888 1.487 . S
C891 N923 1.343 . S
C892 C893 1.384 . S
C892 C894 1.384 . S
C892 H914 0.931 . S
C893 C892 1.384 . S
C893 C896 1.382 . S
C894 C892 1.384 . S
C894 C895 1.381 . S
C894 H915 0.930 . S
C895 C894 1.381 . S
C895 C897 1.381 . S
C895 C898 1.487 . S
C896 C893 1.382 . S
C896 C897 1.387 . S
C896 H916 0.930 . S
C897 C895 1.381 . S
C897 C896 1.387 . S
C897 H917 0.931 . S
C898 C895 1.487 . S
C898 C905 1.399 . S
C898 N923 1.343 . S
C899 C900 1.384 . S
C899 C901 1.384 . S
C899 H918 0.931 . S
C900 C899 1.384 . S
C900 C903 1.382 . S
C901 C899 1.384 . S
C901 C902 1.381 . S
C901 H919 0.930 . S
C902 C901 1.381 . S
C902 C904 1.381 . S
C902 C905 1.487 . S
C903 C900 1.382 . S
C903 C904 1.387 . S
C903 H920 0.930 . S
C904 C902 1.381 . S
C904 C903 1.387 . S
C904 H921 0.931 . S
C905 C898 1.399 . S
C905 C902 1.487 . S
C905 N922 1.343 . S
H906 C878 0.931 . S
H907 C880 0.930 . S
H908 C882 0.930 . S
H909 C883 0.931 . S
H910 C885 0.931 . S
H911 C887 0.930 . S
H912 C889 0.930 . S
H913 C890 0.931 . S
H914 C892 0.931 . S
H915 C894 0.930 . S
H916 C896 0.930 . S
H917 C897 0.931 . S
H918 C899 0.931 . S
H919 C901 0.930 . S
H920 C903 0.930 . S
H921 C904 0.931 . S
N922 C884 1.343 . S
N922 C905 1.343 . S
N923 C891 1.343 . S
N923 C898 1.343 . S
C924 C925 1.384 . S
C924 C926 1.384 . S
C924 H952 0.931 . S
C925 C924 1.384 . S
C925 C928 1.382 . S
C926 C924 1.384 . S
C926 C927 1.381 . S
C926 H953 0.930 . S
C927 C926 1.381 . S
C927 C929 1.381 . S
C927 C930 1.487 . S
C928 C925 1.382 . S
C928 C929 1.387 . S
C928 H954 0.930 . S
C929 C927 1.381 . S
C929 C928 1.387 . S
C929 H955 0.931 . S
C930 C927 1.487 . S
C930 C937 1.399 . S
C930 N968 1.343 . S
C931 C932 1.384 . S
C931 C933 1.384 . S
C931 H956 0.931 . S
C932 C931 1.384 . S
C932 C935 1.382 . S
C933 C931 1.384 . S
C933 C934 1.381 . S
C933 H957 0.930 . S
C934 C933 1.381 . S
C934 C936 1.381 . S
C934 C937 1.487 . S
C935 C932 1.382 . S
C935 C936 1.387 . S
C935 H958 0.930 . S
C936 C934 1.381 . S
C936 C935 1.387 . S
C936 H959 0.931 . S
C937 C930 1.399 . S
C937 C934 1.487 . S
C937 N969 1.343 . S
C938 C939 1.384 . S
C938 C940 1.384 . S
C938 H960 0.931 . S
C939 C938 1.384 . S
C939 C942 1.382 . S
C940 C938 1.384 . S
C940 C941 1.381 . S
C940 H961 0.930 . S
C941 C940 1.381 . S
C941 C943 1.381 . S
C941 C944 1.487 . S
C942 C939 1.382 . S
C942 C943 1.387 . S
C942 H962 0.930 . S
C943 C941 1.381 . S
C943 C942 1.387 . S
C943 H963 0.931 . S
C944 C941 1.487 . S
C944 C951 1.399 . S
C944 N969 1.343 . S
C945 C946 1.384 . S
C945 C947 1.384 . S
C945 H964 0.931 . S
C946 C945 1.384 . S
C946 C949 1.382 . S
C947 C945 1.384 . S
C947 C948 1.381 . S
C947 H965 0.930 . S
C948 C947 1.381 . S
C948 C950 1.381 . S
C948 C951 1.487 . S
C949 C946 1.382 . S
C949 C950 1.387 . S
C949 H966 0.930 . S
C950 C948 1.381 . S
C950 C949 1.387 . S
C950 H967 0.931 . S
C951 C944 1.399 . S
C951 C948 1.487 . S
C951 N968 1.343 . S
H952 C924 0.931 . S
H953 C926 0.930 . S
H954 C928 0.930 . S
H955 C929 0.931 . S
H956 C931 0.931 . S
H957 C933 0.930 . S
H958 C935 0.930 . S
H959 C936 0.931 . S
H960 C938 0.931 . S
H961 C940 0.930 . S
H962 C942 0.930 . S
H963 C943 0.931 . S
H964 C945 0.931 . S
H965 C947 0.930 . S
H966 C949 0.930 . S
H967 C950 0.931 . S
N968 C930 1.343 . S
N968 C951 1.343 . S
N969 C937 1.343 . S
N969 C944 1.343 . S
C970 C971 1.384 . S
C970 C972 1.384 . S
C970 H998 0.931 . S
C971 C970 1.384 . S
C971 C974 1.382 . S
C972 C970 1.384 . S
C972 C973 1.381 . S
C972 H999 0.930 . S
C973 C972 1.381 . S
C973 C975 1.381 . S
C973 C976 1.487 . S
C974 C971 1.382 . S
C974 C975 1.387 . S
C974 H1000 0.930 . S
C975 C973 1.381 . S
C975 C974 1.387 . S
C975 H1001 0.931 . S
C976 C973 1.487 . S
C976 C983 1.399 . S
C976 N1014 1.343 . S
C977 C978 1.384 . S
C977 C979 1.384 . S
C977 H1002 0.931 . S
C978 C977 1.384 . S
C978 C981 1.382 . S
C979 C977 1.384 . S
C979 C980 1.381 . S
C979 H1003 0.930 . S
C980 C979 1.381 . S
C980 C982 1.381 . S
C980 C983 1.487 . S
C981 C978 1.382 . S
C981 C982 1.387 . S
C981 H1004 0.930 . S
C982 C980 1.381 . S
C982 C981 1.387 . S
C982 H1005 0.931 . S
C983 C976 1.399 . S
C983 C980 1.487 . S
C983 N1015 1.343 . S
C984 C985 1.384 . S
C984 C986 1.384 . S
C984 H1006 0.931 . S
C985 C984 1.384 . S
C985 C988 1.382 . S
C986 C984 1.384 . S
C986 C987 1.381 . S
C986 H1007 0.930 . S
C987 C986 1.381 . S
C987 C989 1.381 . S
C987 C990 1.487 . S
C988 C985 1.382 . S
C988 C989 1.387 . S
C988 H1008 0.930 . S
C989 C987 1.381 . S
C989 C988 1.387 . S
C989 H1009 0.931 . S
C990 C987 1.487 . S
C990 C997 1.399 . S
C990 N1015 1.343 . S
C991 C992 1.384 . S
C991 C993 1.384 . S
C991 H1010 0.931 . S
C992 C991 1.384 . S
C992 C995 1.382 . S
C993 C991 1.384 . S
C993 C994 1.381 . S
C993 H1011 0.930 . S
C994 C993 1.381 . S
C994 C996 1.381 . S
C994 C997 1.487 . S
C995 C992 1.382 . S
C995 C996 1.387 . S
C995 H1012 0.930 . S
C996 C994 1.381 . S
C996 C995 1.387 . S
C996 H1013 0.931 . S
C997 C990 1.399 . S
C997 C994 1.487 . S
C997 N1014 1.343 . S
H998 C970 0.931 . S
H999 C972 0.930 . S
H1000 C974 0.930 . S
H1001 C975 0.931 . S
H1002 C977 0.931 . S
H1003 C979 0.930 . S
H1004 C981 0.930 . S
H1005 C982 0.931 . S
H1006 C984 0.931 . S
H1007 C986 0.930 . S
H1008 C988 0.930 . S
H1009 C989 0.931 . S
H1010 C991 0.931 . S
H1011 C993 0.930 . S
H1012 C995 0.930 . S
H1013 C996 0.931 . S
N1014 C976 1.343 . S
N1014 C997 1.343 . S
N1015 C983 1.343 . S
N1015 C990 1.343 . S
C1016 C1017 1.384 . S
C1016 C1018 1.384 . S
C1016 H1044 0.931 . S
C1017 C1016 1.384 . S
C1017 C1020 1.382 . S
C1018 C1016 1.384 . S
C1018 C1019 1.381 . S
C1018 H1045 0.930 . S
C1019 C1018 1.381 . S
C1019 C1021 1.381 . S
C1019 C1022 1.487 . S
C1020 C1017 1.382 . S
C1020 C1021 1.387 . S
C1020 H1046 0.930 . S
C1021 C1019 1.381 . S
C1021 C1020 1.387 . S
C1021 H1047 0.931 . S
C1022 C1019 1.487 . S
C1022 C1029 1.399 . S
C1022 N1060 1.343 . S
C1023 C1024 1.384 . S
C1023 C1025 1.384 . S
C1023 H1048 0.931 . S
C1024 C1023 1.384 . S
C1024 C1027 1.382 . S
C1025 C1023 1.384 . S
C1025 C1026 1.381 . S
C1025 H1049 0.930 . S
C1026 C1025 1.381 . S
C1026 C1028 1.381 . S
C1026 C1029 1.487 . S
C1027 C1024 1.382 . S
C1027 C1028 1.387 . S
C1027 H1050 0.930 . S
C1028 C1026 1.381 . S
C1028 C1027 1.387 . S
C1028 H1051 0.931 . S
C1029 C1022 1.399 . S
C1029 C1026 1.487 . S
C1029 N1061 1.343 . S
C1030 C1031 1.384 . S
C1030 C1032 1.384 . S
C1030 H1052 0.931 . S
C1031 C1030 1.384 . S
C1031 C1034 1.382 . S
C1032 C1030 1.384 . S
C1032 C1033 1.381 . S
C1032 H1053 0.930 . S
C1033 C1032 1.381 . S
C1033 C1035 1.381 . S
C1033 C1036 1.487 . S
C1034 C1031 1.382 . S
C1034 C1035 1.387 . S
C1034 H1054 0.930 . S
C1035 C1033 1.381 . S
C1035 C1034 1.387 . S
C1035 H1055 0.931 . S
C1036 C1033 1.487 . S
C1036 C1043 1.399 . S
C1036 N1061 1.343 . S
C1037 C1038 1.384 . S
C1037 C1039 1.384 . S
C1037 H1056 0.931 . S
C1038 C1037 1.384 . S
C1038 C1041 1.382 . S
C1039 C1037 1.384 . S
C1039 C1040 1.381 . S
C1039 H1057 0.930 . S
C1040 C1039 1.381 . S
C1040 C1042 1.381 . S
C1040 C1043 1.487 . S
C1041 C1038 1.382 . S
C1041 C1042 1.387 . S
C1041 H1058 0.930 . S
C1042 C1040 1.381 . S
C1042 C1041 1.387 . S
C1042 H1059 0.931 . S
C1043 C1036 1.399 . S
C1043 C1040 1.487 . S
C1043 N1060 1.343 . S
H1044 C1016 0.931 . S
H1045 C1018 0.930 . S
H1046 C1020 0.930 . S
H1047 C1021 0.931 . S
H1048 C1023 0.931 . S
H1049 C1025 0.930 . S
H1050 C1027 0.930 . S
H1051 C1028 0.931 . S
H1052 C1030 0.931 . S
H1053 C1032 0.930 . S
H1054 C1034 0.930 . S
H1055 C1035 0.931 . S
H1056 C1037 0.931 . S
H1057 C1039 0.930 . S
H1058 C1041 0.930 . S
H1059 C1042 0.931 . S
N1060 C1022 1.343 . S
N1060 C1043 1.343 . S
N1061 C1029 1.343 . S
N1061 C1036 1.343 . S
H1062 C1080 0.951 . S
H1063 C1082 0.951 . S
H1064 C1084 0.950 . S
H1065 C1085 0.950 . S
H1066 C1087 0.950 . S
H1067 C1090 0.950 . S
H1068 C1091 0.950 . S
H1069 C1093 0.950 . S
H1070 C1094 0.950 . S
H1071 C1095 0.956 . S
H1072 C1097 0.951 . S
H1073 C1099 0.950 . S
H1074 C1100 0.950 . S
H1075 C1102 0.950 . S
H1076 C1105 0.950 . S
H1077 C1106 0.950 . S
H1078 C1108 0.950 . S
H1079 C1109 0.950 . S
C1080 H1062 0.951 . S
C1080 C1081 1.366 . S
C1080 C1082 1.388 . S
C1081 C1080 1.366 . S
C1081 C1085 1.385 . S
C1082 H1063 0.951 . S
C1082 C1080 1.388 . S
C1082 C1083 1.366 . S
C1083 C1082 1.366 . S
C1083 C1084 1.414 . S
C1083 C1086 1.499 . S
C1084 H1064 0.950 . S
C1084 C1083 1.414 . S
C1084 C1085 1.374 . S
C1085 H1065 0.950 . S
C1085 C1081 1.385 . S
C1085 C1084 1.374 . S
C1086 C1083 1.499 . S
C1086 C1087 1.373 . S
C1086 C1088 1.389 1_655 S
C1087 H1066 0.950 . S
C1087 C1086 1.373 . S
C1087 C1103 1.377 . S
C1088 C1086 1.389 1_455 S
C1088 C1089 1.524 . S
C1088 C1102 1.377 . S
C1089 C1088 1.524 . S
C1089 C1090 1.397 . S
C1089 C1094 1.363 . S
C1090 H1067 0.950 . S
C1090 C1089 1.397 . S
C1090 C1091 1.334 . S
C1091 H1068 0.950 . S
C1091 C1090 1.334 . S
C1091 C1092 1.287 . S
C1092 C1091 1.287 . S
C1092 C1093 1.524 . S
C1092 H1111 0.913 . S
C1093 H1069 0.950 . S
C1093 C1092 1.524 . S
C1093 C1094 1.415 . S
C1094 H1070 0.950 . S
C1094 C1089 1.363 . S
C1094 C1093 1.415 . S
C1095 H1071 0.956 . S
C1095 C1096 1.366 . S
C1095 C1097 1.388 . S
C1096 C1095 1.366 . S
C1096 C1100 1.385 . S
C1097 H1072 0.951 . S
C1097 C1095 1.388 . S
C1097 C1098 1.366 . S
C1098 C1097 1.366 . S
C1098 C1099 1.414 . S
C1098 C1101 1.499 . S
C1099 H1073 0.950 . S
C1099 C1098 1.414 . S
C1099 C1100 1.374 . S
C1100 H1074 0.950 . S
C1100 C1096 1.385 . S
C1100 C1099 1.374 . S
C1101 C1098 1.499 . S
C1101 C1102 1.373 1_655 S
C1101 C1103 1.389 . S
C1102 H1075 0.950 . S
C1102 C1088 1.377 . S
C1102 C1101 1.373 1_455 S
C1103 C1087 1.377 . S
C1103 C1101 1.389 . S
C1103 C1104 1.524 . S
C1104 C1103 1.524 . S
C1104 C1105 1.397 . S
C1104 C1109 1.363 . S
C1105 H1076 0.950 . S
C1105 C1104 1.397 . S
C1105 C1106 1.334 . S
C1106 H1077 0.950 . S
C1106 C1105 1.334 . S
C1106 C1107 1.287 . S
C1107 C1106 1.287 . S
C1107 C1108 1.524 . S
C1107 H1110 0.999 . S
C1108 H1078 0.950 . S
C1108 C1107 1.524 . S
C1108 C1109 1.415 . S
C1109 H1079 0.950 . S
C1109 C1104 1.363 . S
C1109 C1108 1.415 . S
H1110 C1107 0.999 . S
H1111 C1092 0.913 . S
H1112 C1130 0.951 . S
H1113 C1132 0.951 . S
H1114 C1134 0.950 . S
H1115 C1135 0.950 . S
H1116 C1137 0.950 . S
H1117 C1140 0.950 . S
H1118 C1141 0.950 . S
H1119 C1143 0.950 . S
H1120 C1144 0.950 . S
H1121 C1145 0.951 . S
H1122 C1147 0.951 . S
H1123 C1149 0.950 . S
H1124 C1150 0.950 . S
H1125 C1152 0.950 . S
H1126 C1155 0.950 . S
H1127 C1156 0.950 . S
H1128 C1158 0.950 . S
H1129 C1159 0.950 . S
C1130 H1112 0.951 . S
C1130 C1131 1.366 . S
C1130 C1132 1.388 . S
C1131 C1130 1.366 . S
C1131 C1135 1.385 . S
C1132 H1113 0.951 . S
C1132 C1130 1.388 . S
C1132 C1133 1.366 . S
C1133 C1132 1.366 . S
C1133 C1134 1.414 . S
C1133 C1136 1.499 . S
C1134 H1114 0.950 . S
C1134 C1133 1.414 . S
C1134 C1135 1.374 . S
C1135 H1115 0.950 . S
C1135 C1131 1.385 . S
C1135 C1134 1.374 . S
C1136 C1133 1.499 . S
C1136 C1137 1.373 . S
C1136 C1138 1.389 . S
C1137 H1116 0.950 . S
C1137 C1136 1.373 . S
C1137 C1153 1.377 . S
C1138 C1136 1.389 . S
C1138 C1139 1.524 . S
C1138 C1152 1.377 . S
C1139 C1138 1.524 . S
C1139 C1140 1.397 . S
C1139 C1144 1.363 . S
C1140 H1117 0.950 . S
C1140 C1139 1.397 . S
C1140 C1141 1.334 . S
C1141 H1118 0.950 . S
C1141 C1140 1.334 . S
C1141 C1142 1.287 . S
C1142 C1141 1.287 . S
C1142 C1143 1.524 . S
C1142 H1161 0.913 . S
C1143 H1119 0.950 . S
C1143 C1142 1.524 . S
C1143 C1144 1.415 . S
C1144 H1120 0.950 . S
C1144 C1139 1.363 . S
C1144 C1143 1.415 . S
C1145 H1121 0.951 . S
C1145 C1146 1.366 . S
C1145 C1147 1.388 . S
C1146 C1145 1.366 . S
C1146 C1150 1.385 . S
C1147 H1122 0.951 . S
C1147 C1145 1.388 . S
C1147 C1148 1.366 . S
C1148 C1147 1.366 . S
C1148 C1149 1.414 . S
C1148 C1151 1.499 . S
C1149 H1123 0.950 . S
C1149 C1148 1.414 . S
C1149 C1150 1.374 . S
C1150 H1124 0.950 . S
C1150 C1146 1.385 . S
C1150 C1149 1.374 . S
C1151 C1148 1.499 . S
C1151 C1152 1.373 . S
C1151 C1153 1.389 . S
C1152 H1125 0.950 . S
C1152 C1138 1.377 . S
C1152 C1151 1.373 . S
C1153 C1137 1.377 . S
C1153 C1151 1.389 . S
C1153 C1154 1.524 . S
C1154 C1153 1.524 . S
C1154 C1155 1.397 . S
C1154 C1159 1.363 . S
C1155 H1126 0.950 . S
C1155 C1154 1.397 . S
C1155 C1156 1.334 . S
C1156 H1127 0.950 . S
C1156 C1155 1.334 . S
C1156 C1157 1.287 . S
C1157 C1156 1.287 . S
C1157 C1158 1.524 . S
C1157 H1160 0.999 . S
C1158 H1128 0.950 . S
C1158 C1157 1.524 . S
C1158 C1159 1.415 . S
C1159 H1129 0.950 . S
C1159 C1154 1.363 . S
C1159 C1158 1.415 . S
H1160 C1157 0.999 . S
H1161 C1142 0.913 . S
H1162 C1180 0.951 1_565 S
H1163 C1182 0.951 1_565 S
H1164 C1184 0.950 . S
H1165 C1185 0.950 . S
H1166 C1187 0.950 . S
H1167 C1190 0.950 . S
H1168 C1191 0.945 1_545 S
H1169 C1193 0.950 . S
H1170 C1194 0.950 . S
H1171 C1195 0.951 . S
H1172 C1197 0.951 . S
H1173 C1199 0.950 . S
H1174 C1200 0.950 . S
H1175 C1202 0.950 1_565 S
H1176 C1205 0.950 . S
H1177 C1206 0.950 . S
H1178 C1208 0.950 . S
H1179 C1209 0.950 . S
C1180 H1162 0.951 1_545 S
C1180 C1181 1.366 . S
C1180 C1182 1.388 . S
C1181 C1180 1.366 . S
C1181 C1185 1.385 . S
C1182 H1163 0.951 1_545 S
C1182 C1180 1.388 . S
C1182 C1183 1.366 . S
C1183 C1182 1.366 . S
C1183 C1184 1.414 . S
C1183 C1186 1.499 . S
C1184 H1164 0.950 . S
C1184 C1183 1.414 . S
C1184 C1185 1.374 . S
C1185 H1165 0.950 . S
C1185 C1181 1.385 . S
C1185 C1184 1.374 . S
C1186 C1183 1.499 . S
C1186 C1187 1.373 . S
C1186 C1188 1.389 . S
C1187 H1166 0.950 . S
C1187 C1186 1.373 . S
C1187 C1203 1.377 . S
C1188 C1186 1.389 . S
C1188 C1189 1.524 1_545 S
C1188 C1202 1.377 . S
C1189 C1188 1.524 1_565 S
C1189 C1190 1.397 1_565 S
C1189 C1194 1.363 . S
C1190 H1167 0.950 . S
C1190 C1189 1.397 1_545 S
C1190 C1191 1.335 1_545 S
C1191 H1168 0.945 1_565 S
C1191 C1190 1.335 1_565 S
C1191 C1192 1.292 . S
C1192 C1191 1.292 . S
C1192 C1193 1.524 . S
C1192 H1211 0.913 . S
C1193 H1169 0.950 . S
C1193 C1192 1.524 . S
C1193 C1194 1.415 . S
C1194 H1170 0.950 . S
C1194 C1189 1.363 . S
C1194 C1193 1.415 . S
C1195 H1171 0.951 . S
C1195 C1196 1.366 . S
C1195 C1197 1.388 . S
C1196 C1195 1.366 . S
C1196 C1200 1.385 1_545 S
C1197 H1172 0.951 . S
C1197 C1195 1.388 . S
C1197 C1198 1.366 . S
C1198 C1197 1.366 . S
C1198 C1199 1.414 1_545 S
C1198 C1201 1.499 . S
C1199 H1173 0.950 . S
C1199 C1198 1.414 1_565 S
C1199 C1200 1.374 . S
C1200 H1174 0.950 . S
C1200 C1196 1.385 1_565 S
C1200 C1199 1.374 . S
C1201 C1198 1.499 . S
C1201 C1202 1.373 . S
C1201 C1203 1.389 . S
C1202 H1175 0.950 1_545 S
C1202 C1188 1.377 . S
C1202 C1201 1.373 . S
C1203 C1187 1.377 . S
C1203 C1201 1.389 . S
C1203 C1204 1.524 . S
C1204 C1203 1.524 . S
C1204 C1205 1.397 . S
C1204 C1209 1.363 . S
C1205 H1176 0.950 . S
C1205 C1204 1.397 . S
C1205 C1206 1.334 . S
C1206 H1177 0.950 . S
C1206 C1205 1.334 . S
C1206 C1207 1.287 . S
C1207 C1206 1.287 . S
C1207 C1208 1.524 . S
C1207 H1210 0.999 . S
C1208 H1178 0.950 . S
C1208 C1207 1.524 . S
C1208 C1209 1.415 . S
C1209 H1179 0.950 . S
C1209 C1204 1.363 . S
C1209 C1208 1.415 . S
H1210 C1207 0.999 . S
H1211 C1192 0.913 . S
H1212 C1230 0.951 . S
H1213 C1232 0.951 . S
H1214 C1234 0.950 . S
H1215 C1235 0.950 . S
H1216 C1237 0.950 . S
H1217 C1240 0.950 . S
H1218 C1241 0.950 . S
H1219 C1243 0.950 . S
H1220 C1244 0.867 1_565 S
H1221 C1245 0.951 . S
H1222 C1247 0.951 . S
H1223 C1249 0.950 . S
H1224 C1250 0.950 . S
H1225 C1252 0.950 . S
H1226 C1255 0.950 . S
H1227 C1256 0.950 . S
H1228 C1258 0.950 . S
H1229 C1259 0.963 . S
C1230 H1212 0.951 . S
C1230 C1231 1.343 1_565 S
C1230 C1232 1.388 . S
C1231 C1230 1.343 1_545 S
C1231 C1235 1.397 . S
C1232 H1213 0.951 . S
C1232 C1230 1.388 . S
C1232 C1233 1.342 1_565 S
C1233 C1232 1.342 1_545 S
C1233 C1234 1.459 . S
C1233 C1236 1.499 . S
C1234 H1214 0.950 . S
C1234 C1233 1.459 . S
C1234 C1235 1.374 . S
C1235 H1215 0.950 . S
C1235 C1231 1.397 . S
C1235 C1234 1.374 . S
C1236 C1233 1.499 . S
C1236 C1237 1.364 1_545 S
C1236 C1238 1.375 . S
C1237 H1216 0.950 . S
C1237 C1236 1.364 1_565 S
C1237 C1253 1.377 . S
C1238 C1236 1.375 . S
C1238 C1239 1.524 . S
C1238 C1252 1.377 . S
C1239 C1238 1.524 . S
C1239 C1240 1.397 . S
C1239 C1244 1.363 . S
C1240 H1217 0.950 . S
C1240 C1239 1.397 . S
C1240 C1241 1.334 . S
C1241 H1218 0.950 . S
C1241 C1240 1.334 . S
C1241 C1242 1.287 . S
C1242 C1241 1.287 . S
C1242 C1243 1.524 . S
C1242 H1261 0.913 . S
C1243 H1219 0.950 . S
C1243 C1242 1.524 . S
C1243 C1244 1.415 . S
C1244 H1220 0.867 1_545 S
C1244 C1239 1.363 . S
C1244 C1243 1.415 . S
C1245 H1221 0.951 . S
C1245 C1246 1.366 1_545 S
C1245 C1247 1.388 . S
C1246 C1245 1.366 1_565 S
C1246 C1250 1.385 . S
C1247 H1222 0.951 . S
C1247 C1245 1.388 . S
C1247 C1248 1.366 1_545 S
C1248 C1247 1.366 1_565 S
C1248 C1249 1.414 . S
C1248 C1251 1.499 . S
C1249 H1223 0.950 . S
C1249 C1248 1.414 . S
C1249 C1250 1.374 . S
C1250 H1224 0.950 . S
C1250 C1246 1.385 . S
C1250 C1249 1.374 . S
C1251 C1248 1.499 . S
C1251 C1252 1.373 1_565 S
C1251 C1253 1.389 . S
C1252 H1225 0.950 . S
C1252 C1238 1.377 . S
C1252 C1251 1.373 1_545 S
C1253 C1237 1.377 . S
C1253 C1251 1.389 . S
C1253 C1254 1.524 . S
C1254 C1253 1.524 . S
C1254 C1255 1.397 . S
C1254 C1259 1.363 . S
C1255 H1226 0.950 . S
C1255 C1254 1.397 . S
C1255 C1256 1.334 . S
C1256 H1227 0.950 . S
C1256 C1255 1.334 . S
C1256 C1257 1.287 . S
C1257 C1256 1.287 . S
C1257 C1258 1.524 . S
C1257 H1260 0.999 . S
C1258 H1228 0.950 . S
C1258 C1257 1.524 . S
C1258 C1259 1.415 . S
C1259 H1229 0.963 . S
C1259 C1254 1.363 . S
C1259 C1258 1.415 . S
H1260 C1257 0.999 . S
H1261 C1242 0.913 . S
H1262 C1280 0.951 . S
H1263 C1282 0.951 . S
H1264 C1284 0.950 . S
H1265 C1285 0.950 . S
H1266 C1287 0.950 . S
H1267 C1290 0.950 . S
H1268 C1291 0.950 . S
H1269 C1293 0.950 . S
H1270 C1294 0.950 . S
H1271 C1295 0.951 . S
H1272 C1297 0.951 . S
H1273 C1299 0.950 . S
H1274 C1300 0.950 . S
H1275 C1302 0.950 . S
H1276 C1305 1.019 . S
H1277 C1306 0.950 . S
H1278 C1308 0.950 . S
H1279 C1309 0.950 . S
C1280 H1262 0.951 . S
C1280 C1281 1.366 . S
C1280 C1282 1.388 . S
C1281 C1280 1.366 . S
C1281 C1285 1.385 1_455 S
C1282 H1263 0.951 . S
C1282 C1280 1.388 . S
C1282 C1283 1.366 . S
C1283 C1282 1.366 . S
C1283 C1284 1.414 1_455 S
C1283 C1286 1.499 . S
C1284 H1264 0.950 . S
C1284 C1283 1.414 1_655 S
C1284 C1285 1.374 . S
C1285 H1265 0.950 . S
C1285 C1281 1.385 1_655 S
C1285 C1284 1.374 . S
C1286 C1283 1.499 . S
C1286 C1287 1.373 1_455 S
C1286 C1288 1.389 . S
C1287 H1266 0.950 . S
C1287 C1286 1.373 1_655 S
C1287 C1303 1.377 . S
C1288 C1286 1.389 . S
C1288 C1289 1.524 . S
C1288 C1302 1.377 . S
C1289 C1288 1.524 . S
C1289 C1290 1.397 . S
C1289 C1294 1.363 . S
C1290 H1267 0.950 . S
C1290 C1289 1.397 . S
C1290 C1291 1.334 . S
C1291 H1268 0.950 . S
C1291 C1290 1.334 . S
C1291 C1292 1.287 . S
C1292 C1291 1.287 . S
C1292 C1293 1.524 . S
C1292 H1311 0.913 . S
C1293 H1269 0.950 . S
C1293 C1292 1.524 . S
C1293 C1294 1.415 . S
C1294 H1270 0.950 . S
C1294 C1289 1.363 . S
C1294 C1293 1.415 . S
C1295 H1271 0.951 . S
C1295 C1296 1.366 1_655 S
C1295 C1297 1.388 . S
C1296 C1295 1.366 1_455 S
C1296 C1300 1.385 . S
C1297 H1272 0.951 . S
C1297 C1295 1.388 . S
C1297 C1298 1.366 1_655 S
C1298 C1297 1.366 1_455 S
C1298 C1299 1.414 . S
C1298 C1301 1.499 . S
C1299 H1273 0.950 . S
C1299 C1298 1.414 . S
C1299 C1300 1.374 . S
C1300 H1274 0.950 . S
C1300 C1296 1.385 . S
C1300 C1299 1.374 . S
C1301 C1298 1.499 . S
C1301 C1302 1.373 . S
C1301 C1303 1.389 1_455 S
C1302 H1275 0.950 . S
C1302 C1288 1.377 . S
C1302 C1301 1.373 . S
C1303 C1287 1.377 . S
C1303 C1301 1.389 1_655 S
C1303 C1304 1.524 . S
C1304 C1303 1.524 . S
C1304 C1305 1.397 . S
C1304 C1309 1.363 . S
C1305 H1276 1.019 . S
C1305 C1304 1.397 . S
C1305 C1306 1.334 . S
C1306 H1277 0.950 . S
C1306 C1305 1.334 . S
C1306 C1307 1.287 . S
C1307 C1306 1.287 . S
C1307 C1308 1.524 . S
C1307 H1310 0.999 . S
C1308 H1278 0.950 . S
C1308 C1307 1.524 . S
C1308 C1309 1.415 . S
C1309 H1279 0.950 . S
C1309 C1304 1.363 . S
C1309 C1308 1.415 . S
H1310 C1307 0.999 . S
H1311 C1292 0.913 . S
H1312 C1330 0.951 . S
H1313 C1332 0.951 . S
H1314 C1334 0.950 . S
H1315 C1335 0.950 . S
H1316 C1337 0.950 . S
H1317 C1340 0.950 . S
H1318 C1341 0.950 . S
H1319 C1343 0.950 . S
H1320 C1344 0.950 . S
H1321 C1345 0.951 . S
H1322 C1347 0.951 . S
H1323 C1349 0.950 . S
H1324 C1350 0.950 . S
H1325 C1352 0.950 . S
H1326 C1355 0.950 . S
H1327 C1356 0.950 . S
H1328 C1358 0.950 . S
H1329 C1359 0.950 . S
C1330 H1312 0.951 . S
C1330 C1331 1.366 . S
C1330 C1332 1.388 . S
C1331 C1330 1.366 . S
C1331 C1335 1.385 . S
C1332 H1313 0.951 . S
C1332 C1330 1.388 . S
C1332 C1333 1.366 . S
C1333 C1332 1.366 . S
C1333 C1334 1.414 . S
C1333 C1336 1.499 . S
C1334 H1314 0.950 . S
C1334 C1333 1.414 . S
C1334 C1335 1.374 . S
C1335 H1315 0.950 . S
C1335 C1331 1.385 . S
C1335 C1334 1.374 . S
C1336 C1333 1.499 . S
C1336 C1337 1.373 . S
C1336 C1338 1.389 . S
C1337 H1316 0.950 . S
C1337 C1336 1.373 . S
C1337 C1353 1.377 . S
C1338 C1336 1.389 . S
C1338 C1339 1.524 . S
C1338 C1352 1.377 . S
C1339 C1338 1.524 . S
C1339 C1340 1.397 . S
C1339 C1344 1.363 . S
C1340 H1317 0.950 . S
C1340 C1339 1.397 . S
C1340 C1341 1.334 . S
C1341 H1318 0.950 . S
C1341 C1340 1.334 . S
C1341 C1342 1.287 . S
C1342 C1341 1.287 . S
C1342 C1343 1.524 . S
C1342 H1361 0.913 . S
C1343 H1319 0.950 . S
C1343 C1342 1.524 . S
C1343 C1344 1.415 . S
C1344 H1320 0.950 . S
C1344 C1339 1.363 . S
C1344 C1343 1.415 . S
C1345 H1321 0.951 . S
C1345 C1346 1.366 . S
C1345 C1347 1.388 . S
C1346 C1345 1.366 . S
C1346 C1350 1.385 . S
C1347 H1322 0.951 . S
C1347 C1345 1.388 . S
C1347 C1348 1.366 . S
C1348 C1347 1.366 . S
C1348 C1349 1.414 . S
C1348 C1351 1.499 . S
C1349 H1323 0.950 . S
C1349 C1348 1.414 . S
C1349 C1350 1.374 . S
C1350 H1324 0.950 . S
C1350 C1346 1.385 . S
C1350 C1349 1.374 . S
C1351 C1348 1.499 . S
C1351 C1352 1.373 . S
C1351 C1353 1.389 . S
C1352 H1325 0.950 . S
C1352 C1338 1.377 . S
C1352 C1351 1.373 . S
C1353 C1337 1.377 . S
C1353 C1351 1.389 . S
C1353 C1354 1.524 . S
C1354 C1353 1.524 . S
C1354 C1355 1.397 . S
C1354 C1359 1.363 . S
C1355 H1326 0.950 . S
C1355 C1354 1.397 . S
C1355 C1356 1.334 . S
C1356 H1327 0.950 . S
C1356 C1355 1.334 . S
C1356 C1357 1.287 . S
C1357 C1356 1.287 . S
C1357 C1358 1.524 . S
C1357 H1360 0.999 . S
C1358 H1328 0.950 . S
C1358 C1357 1.524 . S
C1358 C1359 1.415 . S
C1359 H1329 0.950 . S
C1359 C1354 1.363 . S
C1359 C1358 1.415 . S
H1360 C1357 0.999 . S
H1361 C1342 0.913 . S
H1362 C1380 0.951 . S
H1363 C1382 0.951 . S
H1364 C1384 0.950 . S
H1365 C1385 0.950 . S
H1366 C1387 0.950 . S
H1367 C1390 0.950 . S
H1368 C1391 0.950 . S
H1369 C1393 0.950 . S
H1370 C1394 0.950 . S
H1371 C1395 0.960 1_655 S
H1372 C1397 0.951 . S
H1373 C1399 0.950 . S
H1374 C1400 0.950 . S
H1375 C1402 0.950 . S
H1376 C1405 0.950 . S
H1377 C1406 0.950 . S
H1378 C1408 0.950 . S
H1379 C1409 0.950 . S
C1380 H1362 0.951 . S
C1380 C1381 1.366 . S
C1380 C1382 1.388 . S
C1381 C1380 1.366 . S
C1381 C1385 1.385 . S
C1382 H1363 0.951 . S
C1382 C1380 1.388 . S
C1382 C1383 1.366 . S
C1383 C1382 1.366 . S
C1383 C1384 1.414 . S
C1383 C1386 1.499 . S
C1384 H1364 0.950 . S
C1384 C1383 1.414 . S
C1384 C1385 1.374 . S
C1385 H1365 0.950 . S
C1385 C1381 1.385 . S
C1385 C1384 1.374 . S
C1386 C1383 1.499 . S
C1386 C1387 1.373 . S
C1386 C1388 1.389 1_455 S
C1387 H1366 0.950 . S
C1387 C1386 1.373 . S
C1387 C1403 1.377 . S
C1388 C1386 1.389 1_655 S
C1388 C1389 1.524 . S
C1388 C1402 1.377 . S
C1389 C1388 1.524 . S
C1389 C1390 1.397 . S
C1389 C1394 1.363 . S
C1390 H1367 0.950 . S
C1390 C1389 1.397 . S
C1390 C1391 1.334 . S
C1391 H1368 0.950 . S
C1391 C1390 1.334 . S
C1391 C1392 1.287 . S
C1392 C1391 1.287 . S
C1392 C1393 1.524 . S
C1392 H1411 0.913 . S
C1393 H1369 0.950 . S
C1393 C1392 1.524 . S
C1393 C1394 1.415 . S
C1394 H1370 0.950 . S
C1394 C1389 1.363 . S
C1394 C1393 1.415 . S
C1395 H1371 0.960 1_455 S
C1395 C1396 1.366 . S
C1395 C1397 1.379 . S
C1396 C1395 1.366 . S
C1396 C1400 1.385 . S
C1397 H1372 0.951 . S
C1397 C1395 1.379 . S
C1397 C1398 1.366 . S
C1398 C1397 1.366 . S
C1398 C1399 1.414 . S
C1398 C1401 1.499 . S
C1399 H1373 0.950 . S
C1399 C1398 1.414 . S
C1399 C1400 1.374 . S
C1400 H1374 0.950 . S
C1400 C1396 1.385 . S
C1400 C1399 1.374 . S
C1401 C1398 1.499 . S
C1401 C1402 1.373 1_455 S
C1401 C1403 1.389 . S
C1402 H1375 0.950 . S
C1402 C1388 1.377 . S
C1402 C1401 1.373 1_655 S
C1403 C1387 1.377 . S
C1403 C1401 1.389 . S
C1403 C1404 1.524 . S
C1404 C1403 1.524 . S
C1404 C1405 1.397 . S
C1404 C1409 1.363 . S
C1405 H1376 0.950 . S
C1405 C1404 1.397 . S
C1405 C1406 1.334 . S
C1406 H1377 0.950 . S
C1406 C1405 1.334 . S
C1406 C1407 1.287 . S
C1407 C1406 1.287 . S
C1407 C1408 1.524 . S
C1407 H1410 0.999 . S
C1408 H1378 0.950 . S
C1408 C1407 1.524 . S
C1408 C1409 1.415 . S
C1409 H1379 0.950 . S
C1409 C1404 1.363 . S
C1409 C1408 1.415 . S
H1410 C1407 0.999 . S
H1411 C1392 0.913 . S
H1412 C1430 0.951 . S
H1413 C1432 0.951 . S
H1414 C1434 0.950 . S
H1415 C1435 0.950 . S
H1416 C1437 0.950 . S
H1417 C1440 0.950 . S
H1418 C1441 0.950 . S
H1419 C1443 0.950 . S
H1420 C1444 0.950 . S
H1421 C1445 0.951 . S
H1422 C1447 0.951 . S
H1423 C1449 0.950 . S
H1424 C1450 0.950 . S
H1425 C1452 0.950 . S
H1426 C1455 0.950 . S
H1427 C1456 0.950 . S
H1428 C1458 0.950 . S
H1429 C1459 0.950 . S
C1430 H1412 0.951 . S
C1430 C1431 1.366 . S
C1430 C1432 1.388 . S
C1431 C1430 1.366 . S
C1431 C1435 1.385 . S
C1432 H1413 0.951 . S
C1432 C1430 1.388 . S
C1432 C1433 1.366 . S
C1433 C1432 1.366 . S
C1433 C1434 1.414 . S
C1433 C1436 1.499 . S
C1434 H1414 0.950 . S
C1434 C1433 1.414 . S
C1434 C1435 1.374 . S
C1435 H1415 0.950 . S
C1435 C1431 1.385 . S
C1435 C1434 1.374 . S
C1436 C1433 1.499 . S
C1436 C1437 1.373 . S
C1436 C1438 1.389 . S
C1437 H1416 0.950 . S
C1437 C1436 1.373 . S
C1437 C1453 1.377 . S
C1438 C1436 1.389 . S
C1438 C1439 1.524 . S
C1438 C1452 1.377 . S
C1439 C1438 1.524 . S
C1439 C1440 1.397 . S
C1439 C1444 1.363 . S
C1440 H1417 0.950 . S
C1440 C1439 1.397 . S
C1440 C1441 1.334 . S
C1441 H1418 0.950 . S
C1441 C1440 1.334 . S
C1441 C1442 1.287 . S
C1442 C1441 1.287 . S
C1442 C1443 1.524 . S
C1442 H1461 0.913 . S
C1443 H1419 0.950 . S
C1443 C1442 1.524 . S
C1443 C1444 1.415 . S
C1444 H1420 0.950 . S
C1444 C1439 1.363 . S
C1444 C1443 1.415 . S
C1445 H1421 0.951 . S
C1445 C1446 1.366 . S
C1445 C1447 1.388 . S
C1446 C1445 1.366 . S
C1446 C1450 1.385 . S
C1447 H1422 0.951 . S
C1447 C1445 1.388 . S
C1447 C1448 1.366 . S
C1448 C1447 1.366 . S
C1448 C1449 1.414 . S
C1448 C1451 1.499 . S
C1449 H1423 0.950 . S
C1449 C1448 1.414 . S
C1449 C1450 1.374 . S
C1450 H1424 0.950 . S
C1450 C1446 1.385 . S
C1450 C1449 1.374 . S
C1451 C1448 1.499 . S
C1451 C1452 1.373 . S
C1451 C1453 1.389 . S
C1452 H1425 0.950 . S
C1452 C1438 1.377 . S
C1452 C1451 1.373 . S
C1453 C1437 1.377 . S
C1453 C1451 1.389 . S
C1453 C1454 1.524 . S
C1454 C1453 1.524 . S
C1454 C1455 1.397 . S
C1454 C1459 1.363 . S
C1455 H1426 0.950 . S
C1455 C1454 1.397 . S
C1455 C1456 1.334 . S
C1456 H1427 0.950 . S
C1456 C1455 1.334 . S
C1456 C1457 1.287 . S
C1457 C1456 1.287 . S
C1457 C1458 1.524 . S
C1457 H1460 0.999 . S
C1458 H1428 0.950 . S
C1458 C1457 1.524 . S
C1458 C1459 1.415 . S
C1459 H1429 0.950 . S
C1459 C1454 1.363 . S
C1459 C1458 1.415 . S
H1460 C1457 0.999 . S
H1461 C1442 0.913 . S
H1462 C1480 0.951 . S
H1463 C1482 0.951 . S
H1464 C1484 0.950 . S
H1465 C1485 0.950 . S
H1466 C1487 0.950 . S
H1467 C1490 0.950 . S
H1468 C1491 0.950 . S
H1469 C1493 0.950 . S
H1470 C1494 0.950 . S
H1471 C1495 0.951 . S
H1472 C1497 0.951 . S
H1473 C1499 0.950 . S
H1474 C1500 0.950 . S
H1475 C1502 1.026 . S
H1476 C1505 0.950 1_545 S
H1477 C1506 0.950 . S
H1478 C1508 0.950 . S
H1479 C1509 0.950 . S
C1480 H1462 0.951 . S
C1480 C1481 1.366 1_545 S
C1480 C1482 1.388 . S
C1481 C1480 1.366 1_565 S
C1481 C1485 1.385 . S
C1482 H1463 0.951 . S
C1482 C1480 1.388 . S
C1482 C1483 1.366 1_545 S
C1483 C1482 1.366 1_565 S
C1483 C1484 1.414 . S
C1483 C1486 1.499 . S
C1484 H1464 0.950 . S
C1484 C1483 1.414 . S
C1484 C1485 1.374 . S
C1485 H1465 0.950 . S
C1485 C1481 1.385 . S
C1485 C1484 1.374 . S
C1486 C1483 1.499 . S
C1486 C1487 1.373 . S
C1486 C1488 1.411 . S
C1487 H1466 0.950 . S
C1487 C1486 1.373 . S
C1487 C1503 1.377 . S
C1488 C1486 1.411 . S
C1488 C1489 1.515 1_565 S
C1488 C1502 1.325 1_565 S
C1489 C1488 1.515 1_545 S
C1489 C1490 1.397 1_545 S
C1489 C1494 1.363 . S
C1490 H1467 0.950 . S
C1490 C1489 1.397 1_565 S
C1490 C1491 1.334 . S
C1491 H1468 0.950 . S
C1491 C1490 1.334 . S
C1491 C1492 1.287 1_565 S
C1492 C1491 1.287 1_545 S
C1492 C1493 1.524 . S
C1492 H1511 0.913 . S
C1493 H1469 0.950 . S
C1493 C1492 1.524 . S
C1493 C1494 1.415 . S
C1494 H1470 0.950 . S
C1494 C1489 1.363 . S
C1494 C1493 1.415 . S
C1495 H1471 0.951 . S
C1495 C1496 1.366 . S
C1495 C1497 1.388 . S
C1496 C1495 1.366 . S
C1496 C1500 1.385 1_565 S
C1497 H1472 0.951 . S
C1497 C1495 1.388 . S
C1497 C1498 1.366 . S
C1498 C1497 1.366 . S
C1498 C1499 1.414 1_565 S
C1498 C1501 1.499 . S
C1499 H1473 0.950 . S
C1499 C1498 1.414 1_545 S
C1499 C1500 1.374 . S
C1500 H1474 0.950 . S
C1500 C1496 1.385 1_545 S
C1500 C1499 1.374 . S
C1501 C1498 1.499 . S
C1501 C1502 1.345 1_565 S
C1501 C1503 1.389 . S
C1502 H1475 1.026 . S
C1502 C1488 1.325 1_545 S
C1502 C1501 1.345 1_545 S
C1503 C1487 1.377 . S
C1503 C1501 1.389 . S
C1503 C1504 1.524 . S
C1504 C1503 1.524 . S
C1504 C1505 1.397 . S
C1504 C1509 1.363 . S
C1505 H1476 0.950 1_565 S
C1505 C1504 1.397 . S
C1505 C1506 1.334 . S
C1506 H1477 0.950 . S
C1506 C1505 1.334 . S
C1506 C1507 1.287 . S
C1507 C1506 1.287 . S
C1507 C1508 1.524 . S
C1507 H1510 0.999 . S
C1508 H1478 0.950 . S
C1508 C1507 1.524 . S
C1508 C1509 1.415 . S
C1509 H1479 0.950 . S
C1509 C1504 1.363 . S
C1509 C1508 1.415 . S
H1510 C1507 0.999 . S
H1511 C1492 0.913 . S
H1512 C1530 0.951 . S
H1513 C1532 0.951 . S
H1514 C1534 0.950 . S
H1515 C1535 0.950 . S
H1516 C1537 0.950 . S
H1517 C1540 0.950 . S
H1518 C1541 0.950 . S
H1519 C1543 0.950 . S
H1520 C1544 0.950 . S
H1521 C1545 0.951 . S
H1522 C1547 0.951 . S
H1523 C1549 0.950 . S
H1524 C1550 0.950 . S
H1525 C1552 0.950 . S
H1526 C1555 0.950 . S
H1527 C1556 0.950 . S
H1528 C1558 0.950 . S
H1529 C1559 0.950 . S
C1530 H1512 0.951 . S
C1530 C1531 1.366 . S
C1530 C1532 1.388 . S
C1531 C1530 1.366 . S
C1531 C1535 1.385 1_545 S
C1532 H1513 0.951 . S
C1532 C1530 1.388 . S
C1532 C1533 1.366 . S
C1533 C1532 1.366 . S
C1533 C1534 1.414 1_545 S
C1533 C1536 1.499 . S
C1534 H1514 0.950 . S
C1534 C1533 1.414 1_565 S
C1534 C1535 1.374 . S
C1535 H1515 0.950 . S
C1535 C1531 1.385 1_565 S
C1535 C1534 1.374 . S
C1536 C1533 1.499 . S
C1536 C1537 1.373 1_545 S
C1536 C1538 1.389 . S
C1537 H1516 0.950 . S
C1537 C1536 1.373 1_565 S
C1537 C1553 1.377 . S
C1538 C1536 1.389 . S
C1538 C1539 1.524 . S
C1538 C1552 1.377 . S
C1539 C1538 1.524 . S
C1539 C1540 1.397 . S
C1539 C1544 1.363 . S
C1540 H1517 0.950 . S
C1540 C1539 1.397 . S
C1540 C1541 1.334 . S
C1541 H1518 0.950 . S
C1541 C1540 1.334 . S
C1541 C1542 1.287 . S
C1542 C1541 1.287 . S
C1542 C1543 1.524 . S
C1542 H1561 0.913 . S
C1543 H1519 0.950 . S
C1543 C1542 1.524 . S
C1543 C1544 1.415 . S
C1544 H1520 0.950 . S
C1544 C1539 1.363 . S
C1544 C1543 1.415 . S
C1545 H1521 0.951 . S
C1545 C1546 1.366 1_565 S
C1545 C1547 1.388 . S
C1546 C1545 1.366 1_545 S
C1546 C1550 1.385 . S
C1547 H1522 0.951 . S
C1547 C1545 1.388 . S
C1547 C1548 1.366 1_565 S
C1548 C1547 1.366 1_545 S
C1548 C1549 1.414 . S
C1548 C1551 1.499 . S
C1549 H1523 0.950 . S
C1549 C1548 1.414 . S
C1549 C1550 1.374 . S
C1550 H1524 0.950 . S
C1550 C1546 1.385 . S
C1550 C1549 1.374 . S
C1551 C1548 1.499 . S
C1551 C1552 1.373 . S
C1551 C1553 1.389 1_545 S
C1552 H1525 0.950 . S
C1552 C1538 1.377 . S
C1552 C1551 1.373 . S
C1553 C1537 1.377 . S
C1553 C1551 1.389 1_565 S
C1553 C1554 1.524 . S
C1554 C1553 1.524 . S
C1554 C1555 1.397 . S
C1554 C1559 1.363 . S
C1555 H1526 0.950 . S
C1555 C1554 1.397 . S
C1555 C1556 1.334 . S
C1556 H1527 0.950 . S
C1556 C1555 1.334 . S
C1556 C1557 1.287 . S
C1557 C1556 1.287 . S
C1557 C1558 1.524 . S
C1557 H1560 0.999 . S
C1558 H1528 0.950 . S
C1558 C1557 1.524 . S
C1558 C1559 1.415 . S
C1559 H1529 0.950 . S
C1559 C1554 1.363 . S
C1559 C1558 1.415 . S
H1560 C1557 0.999 . S
H1561 C1542 0.913 . S
H1562 C1580 0.951 . S
H1563 C1582 0.951 . S
H1564 C1584 0.950 1_455 S
H1565 C1585 0.970 1_455 S
H1566 C1587 0.950 . S
H1567 C1590 0.950 . S
H1568 C1591 0.950 . S
H1569 C1593 0.950 . S
H1570 C1594 0.950 . S
H1571 C1595 0.951 . S
H1572 C1597 0.951 . S
H1573 C1599 0.950 . S
H1574 C1600 0.950 . S
H1575 C1602 0.950 . S
H1576 C1605 0.950 . S
H1577 C1606 0.950 . S
H1578 C1608 0.950 . S
H1579 C1609 0.950 . S
C1580 H1562 0.951 . S
C1580 C1581 1.366 . S
C1580 C1582 1.388 . S
C1581 C1580 1.366 . S
C1581 C1585 1.385 . S
C1582 H1563 0.951 . S
C1582 C1580 1.388 . S
C1582 C1583 1.366 . S
C1583 C1582 1.366 . S
C1583 C1584 1.414 . S
C1583 C1586 1.499 . S
C1584 H1564 0.950 1_655 S
C1584 C1583 1.414 . S
C1584 C1585 1.374 . S
C1585 H1565 0.970 1_655 S
C1585 C1581 1.385 . S
C1585 C1584 1.374 . S
C1586 C1583 1.499 . S
C1586 C1587 1.373 1_655 S
C1586 C1588 1.389 . S
C1587 H1566 0.950 . S
C1587 C1586 1.373 1_455 S
C1587 C1603 1.377 . S
C1588 C1586 1.389 . S
C1588 C1589 1.524 . S
C1588 C1602 1.377 . S
C1589 C1588 1.524 . S
C1589 C1590 1.397 . S
C1589 C1594 1.363 . S
C1590 H1567 0.950 . S
C1590 C1589 1.397 . S
C1590 C1591 1.334 . S
C1591 H1568 0.950 . S
C1591 C1590 1.334 . S
C1591 C1592 1.287 . S
C1592 C1591 1.287 . S
C1592 C1593 1.524 . S
C1592 H1611 0.913 . S
C1593 H1569 0.950 . S
C1593 C1592 1.524 . S
C1593 C1594 1.415 . S
C1594 H1570 0.950 . S
C1594 C1589 1.363 . S
C1594 C1593 1.415 . S
C1595 H1571 0.951 . S
C1595 C1596 1.366 1_455 S
C1595 C1597 1.388 . S
C1596 C1595 1.366 1_655 S
C1596 C1600 1.385 . S
C1597 H1572 0.951 . S
C1597 C1595 1.388 . S
C1597 C1598 1.366 1_455 S
C1598 C1597 1.366 1_655 S
C1598 C1599 1.414 . S
C1598 C1601 1.499 . S
C1599 H1573 0.950 . S
C1599 C1598 1.414 . S
C1599 C1600 1.374 . S
C1600 H1574 0.950 . S
C1600 C1596 1.385 . S
C1600 C1599 1.374 . S
C1601 C1598 1.499 . S
C1601 C1602 1.373 . S
C1601 C1603 1.389 1_655 S
C1602 H1575 0.950 . S
C1602 C1588 1.377 . S
C1602 C1601 1.373 . S
C1603 C1587 1.377 . S
C1603 C1601 1.389 1_455 S
C1603 C1604 1.524 . S
C1604 C1603 1.524 . S
C1604 C1605 1.397 . S
C1604 C1609 1.363 . S
C1605 H1576 0.950 . S
C1605 C1604 1.397 . S
C1605 C1606 1.334 . S
C1606 H1577 0.950 . S
C1606 C1605 1.334 . S
C1606 C1607 1.287 . S
C1607 C1606 1.287 . S
C1607 C1608 1.524 . S
C1607 H1610 0.999 . S
C1608 H1578 0.950 . S
C1608 C1607 1.524 . S
C1608 C1609 1.415 . S
C1609 H1579 0.950 . S
C1609 C1604 1.363 . S
C1609 C1608 1.415 . S
H1610 C1607 0.999 . S
H1611 C1592 0.913 . S
H1612 C1630 0.951 . S
H1613 C1632 0.951 . S
H1614 C1634 0.950 . S
H1615 C1635 0.950 . S
H1616 C1637 0.950 . S
H1617 C1640 0.950 . S
H1618 C1641 0.950 . S
H1619 C1643 0.950 . S
H1620 C1644 0.950 . S
H1621 C1645 0.951 . S
H1622 C1647 0.951 . S
H1623 C1649 0.950 . S
H1624 C1650 0.950 . S
H1625 C1652 0.950 . S
H1626 C1655 0.950 . S
H1627 C1656 0.950 . S
H1628 C1658 0.950 . S
H1629 C1659 0.950 . S
C1630 H1612 0.951 . S
C1630 C1631 1.366 . S
C1630 C1632 1.388 . S
C1631 C1630 1.366 . S
C1631 C1635 1.385 . S
C1632 H1613 0.951 . S
C1632 C1630 1.388 . S
C1632 C1633 1.366 . S
C1633 C1632 1.366 . S
C1633 C1634 1.414 . S
C1633 C1636 1.499 . S
C1634 H1614 0.950 . S
C1634 C1633 1.414 . S
C1634 C1635 1.374 . S
C1635 H1615 0.950 . S
C1635 C1631 1.385 . S
C1635 C1634 1.374 . S
C1636 C1633 1.499 . S
C1636 C1637 1.373 . S
C1636 C1638 1.389 . S
C1637 H1616 0.950 . S
C1637 C1636 1.373 . S
C1637 C1653 1.377 . S
C1638 C1636 1.389 . S
C1638 C1639 1.524 . S
C1638 C1652 1.377 . S
C1639 C1638 1.524 . S
C1639 C1640 1.397 . S
C1639 C1644 1.363 . S
C1640 H1617 0.950 . S
C1640 C1639 1.397 . S
C1640 C1641 1.334 . S
C1641 H1618 0.950 . S
C1641 C1640 1.334 . S
C1641 C1642 1.287 . S
C1642 C1641 1.287 . S
C1642 C1643 1.524 . S
C1642 H1661 0.913 . S
C1643 H1619 0.950 . S
C1643 C1642 1.524 . S
C1643 C1644 1.415 . S
C1644 H1620 0.950 . S
C1644 C1639 1.363 . S
C1644 C1643 1.415 . S
C1645 H1621 0.951 . S
C1645 C1646 1.366 . S
C1645 C1647 1.388 . S
C1646 C1645 1.366 . S
C1646 C1650 1.385 . S
C1647 H1622 0.951 . S
C1647 C1645 1.388 . S
C1647 C1648 1.366 . S
C1648 C1647 1.366 . S
C1648 C1649 1.414 . S
C1648 C1651 1.499 . S
C1649 H1623 0.950 . S
C1649 C1648 1.414 . S
C1649 C1650 1.374 . S
C1650 H1624 0.950 . S
C1650 C1646 1.385 . S
C1650 C1649 1.374 . S
C1651 C1648 1.499 . S
C1651 C1652 1.373 . S
C1651 C1653 1.389 . S
C1652 H1625 0.950 . S
C1652 C1638 1.377 . S
C1652 C1651 1.373 . S
C1653 C1637 1.377 . S
C1653 C1651 1.389 . S
C1653 C1654 1.524 . S
C1654 C1653 1.524 . S
C1654 C1655 1.397 . S
C1654 C1659 1.363 . S
C1655 H1626 0.950 . S
C1655 C1654 1.397 . S
C1655 C1656 1.334 . S
C1656 H1627 0.950 . S
C1656 C1655 1.334 . S
C1656 C1657 1.287 . S
C1657 C1656 1.287 . S
C1657 C1658 1.524 . S
C1657 H1660 0.999 . S
C1658 H1628 0.950 . S
C1658 C1657 1.524 . S
C1658 C1659 1.415 . S
C1659 H1629 0.950 . S
C1659 C1654 1.363 . S
C1659 C1658 1.415 . S
H1660 C1657 0.999 . S
H1661 C1642 0.913 . S
H1662 C1680 0.951 . S
H1663 C1682 0.951 . S
H1664 C1684 0.950 . S
H1665 C1685 0.950 . S
H1666 C1687 0.950 . S
H1667 C1690 0.950 . S
H1668 C1691 0.950 . S
H1669 C1693 0.950 . S
H1670 C1694 0.950 . S
H1671 C1695 0.951 . S
H1672 C1697 0.951 . S
H1673 C1699 0.950 . S
H1674 C1700 0.950 . S
H1675 C1702 0.950 . S
H1676 C1705 0.950 . S
H1677 C1706 0.950 . S
H1678 C1708 0.950 . S
H1679 C1709 0.950 . S
C1680 H1662 0.951 . S
C1680 C1681 1.366 . S
C1680 C1682 1.388 . S
C1681 C1680 1.366 . S
C1681 C1685 1.385 . S
C1682 H1663 0.951 . S
C1682 C1680 1.388 . S
C1682 C1683 1.366 . S
C1683 C1682 1.366 . S
C1683 C1684 1.414 . S
C1683 C1686 1.499 . S
C1684 H1664 0.950 . S
C1684 C1683 1.414 . S
C1684 C1685 1.374 . S
C1685 H1665 0.950 . S
C1685 C1681 1.385 . S
C1685 C1684 1.374 . S
C1686 C1683 1.499 . S
C1686 C1687 1.373 . S
C1686 C1688 1.389 . S
C1687 H1666 0.950 . S
C1687 C1686 1.373 . S
C1687 C1703 1.377 . S
C1688 C1686 1.389 . S
C1688 C1689 1.524 . S
C1688 C1702 1.377 . S
C1689 C1688 1.524 . S
C1689 C1690 1.397 . S
C1689 C1694 1.363 . S
C1690 H1667 0.950 . S
C1690 C1689 1.397 . S
C1690 C1691 1.334 . S
C1691 H1668 0.950 . S
C1691 C1690 1.334 . S
C1691 C1692 1.287 . S
C1692 C1691 1.287 . S
C1692 C1693 1.524 . S
C1692 H1711 0.913 . S
C1693 H1669 0.950 . S
C1693 C1692 1.524 . S
C1693 C1694 1.415 . S
C1694 H1670 0.950 . S
C1694 C1689 1.363 . S
C1694 C1693 1.415 . S
C1695 H1671 0.951 . S
C1695 C1696 1.366 . S
C1695 C1697 1.388 . S
C1696 C1695 1.366 . S
C1696 C1700 1.385 . S
C1697 H1672 0.951 . S
C1697 C1695 1.388 . S
C1697 C1698 1.366 . S
C1698 C1697 1.366 . S
C1698 C1699 1.414 . S
C1698 C1701 1.499 . S
C1699 H1673 0.950 . S
C1699 C1698 1.414 . S
C1699 C1700 1.374 . S
C1700 H1674 0.950 . S
C1700 C1696 1.385 . S
C1700 C1699 1.374 . S
C1701 C1698 1.499 . S
C1701 C1702 1.373 . S
C1701 C1703 1.389 . S
C1702 H1675 0.950 . S
C1702 C1688 1.377 . S
C1702 C1701 1.373 . S
C1703 C1687 1.377 . S
C1703 C1701 1.389 . S
C1703 C1704 1.524 . S
C1704 C1703 1.524 . S
C1704 C1705 1.397 . S
C1704 C1709 1.363 . S
C1705 H1676 0.950 . S
C1705 C1704 1.397 . S
C1705 C1706 1.334 . S
C1706 H1677 0.950 . S
C1706 C1705 1.334 . S
C1706 C1707 1.287 . S
C1707 C1706 1.287 . S
C1707 C1708 1.524 . S
C1707 H1710 0.999 . S
C1708 H1678 0.950 . S
C1708 C1707 1.524 . S
C1708 C1709 1.415 . S
C1709 H1679 0.950 . S
C1709 C1704 1.363 . S
C1709 C1708 1.415 . S
H1710 C1707 0.999 . S
H1711 C1692 0.913 . S
H1712 C1730 0.951 . S
H1713 C1732 0.951 . S
H1714 C1734 0.950 . S
H1715 C1735 0.950 . S
H1716 C1737 0.950 . S
H1717 C1740 0.950 . S
H1718 C1741 0.950 . S
H1719 C1743 0.950 . S
H1720 C1744 0.950 . S
H1721 C1745 0.951 . S
H1722 C1747 0.951 . S
H1723 C1749 0.950 . S
H1724 C1750 0.950 . S
H1725 C1752 0.950 . S
H1726 C1755 0.950 . S
H1727 C1756 0.950 . S
H1728 C1758 0.950 . S
H1729 C1759 0.950 . S
C1730 H1712 0.951 . S
C1730 C1731 1.366 . S
C1730 C1732 1.388 . S
C1731 C1730 1.366 . S
C1731 C1735 1.385 . S
C1732 H1713 0.951 . S
C1732 C1730 1.388 . S
C1732 C1733 1.366 . S
C1733 C1732 1.366 . S
C1733 C1734 1.414 . S
C1733 C1736 1.499 . S
C1734 H1714 0.950 . S
C1734 C1733 1.414 . S
C1734 C1735 1.374 . S
C1735 H1715 0.950 . S
C1735 C1731 1.385 . S
C1735 C1734 1.374 . S
C1736 C1733 1.499 . S
C1736 C1737 1.373 . S
C1736 C1738 1.389 . S
C1737 H1716 0.950 . S
C1737 C1736 1.373 . S
C1737 C1753 1.377 . S
C1738 C1736 1.389 . S
C1738 C1739 1.524 . S
C1738 C1752 1.377 . S
C1739 C1738 1.524 . S
C1739 C1740 1.397 . S
C1739 C1744 1.363 . S
C1740 H1717 0.950 . S
C1740 C1739 1.397 . S
C1740 C1741 1.334 . S
C1741 H1718 0.950 . S
C1741 C1740 1.334 . S
C1741 C1742 1.287 . S
C1742 C1741 1.287 . S
C1742 C1743 1.524 . S
C1742 H1761 0.913 . S
C1743 H1719 0.950 . S
C1743 C1742 1.524 . S
C1743 C1744 1.415 . S
C1744 H1720 0.950 . S
C1744 C1739 1.363 . S
C1744 C1743 1.415 . S
C1745 H1721 0.951 . S
C1745 C1746 1.366 . S
C1745 C1747 1.388 . S
C1746 C1745 1.366 . S
C1746 C1750 1.385 . S
C1747 H1722 0.951 . S
C1747 C1745 1.388 . S
C1747 C1748 1.366 . S
C1748 C1747 1.366 . S
C1748 C1749 1.414 . S
C1748 C1751 1.499 . S
C1749 H1723 0.950 . S
C1749 C1748 1.414 . S
C1749 C1750 1.374 . S
C1750 H1724 0.950 . S
C1750 C1746 1.385 . S
C1750 C1749 1.374 . S
C1751 C1748 1.499 . S
C1751 C1752 1.373 . S
C1751 C1753 1.389 . S
C1752 H1725 0.950 . S
C1752 C1738 1.377 . S
C1752 C1751 1.373 . S
C1753 C1737 1.377 . S
C1753 C1751 1.389 . S
C1753 C1754 1.524 . S
C1754 C1753 1.524 . S
C1754 C1755 1.397 . S
C1754 C1759 1.363 . S
C1755 H1726 0.950 . S
C1755 C1754 1.397 . S
C1755 C1756 1.334 . S
C1756 H1727 0.950 . S
C1756 C1755 1.334 . S
C1756 C1757 1.287 . S
C1757 C1756 1.287 . S
C1757 C1758 1.524 . S
C1757 H1760 0.999 . S
C1758 H1728 0.950 . S
C1758 C1757 1.524 . S
C1758 C1759 1.415 . S
C1759 H1729 0.950 . S
C1759 C1754 1.363 . S
C1759 C1758 1.415 . S
H1760 C1757 0.999 . S
H1761 C1742 0.913 . S
H1762 C1780 0.951 . S
H1763 C1782 0.951 . S
H1764 C1784 0.950 . S
H1765 C1785 0.950 . S
H1766 C1787 0.950 . S
H1767 C1790 0.950 . S
H1768 C1791 0.950 . S
H1769 C1793 0.950 . S
H1770 C1794 0.950 . S
H1771 C1795 0.951 . S
H1772 C1797 0.951 . S
H1773 C1799 0.950 . S
H1774 C1800 0.950 . S
H1775 C1802 0.950 . S
H1776 C1805 0.950 . S
H1777 C1806 0.950 . S
H1778 C1808 0.950 . S
H1779 C1809 0.950 . S
C1780 H1762 0.951 . S
C1780 C1781 1.366 . S
C1780 C1782 1.388 . S
C1781 C1780 1.366 . S
C1781 C1785 1.385 . S
C1782 H1763 0.951 . S
C1782 C1780 1.388 . S
C1782 C1783 1.366 . S
C1783 C1782 1.366 . S
C1783 C1784 1.414 . S
C1783 C1786 1.499 . S
C1784 H1764 0.950 . S
C1784 C1783 1.414 . S
C1784 C1785 1.374 . S
C1785 H1765 0.950 . S
C1785 C1781 1.385 . S
C1785 C1784 1.374 . S
C1786 C1783 1.499 . S
C1786 C1787 1.373 . S
C1786 C1788 1.389 . S
C1787 H1766 0.950 . S
C1787 C1786 1.373 . S
C1787 C1803 1.377 . S
C1788 C1786 1.389 . S
C1788 C1789 1.524 . S
C1788 C1802 1.377 . S
C1789 C1788 1.524 . S
C1789 C1790 1.397 . S
C1789 C1794 1.363 . S
C1790 H1767 0.950 . S
C1790 C1789 1.397 . S
C1790 C1791 1.334 . S
C1791 H1768 0.950 . S
C1791 C1790 1.334 . S
C1791 C1792 1.287 . S
C1792 C1791 1.287 . S
C1792 C1793 1.524 . S
C1792 H1811 0.913 . S
C1793 H1769 0.950 . S
C1793 C1792 1.524 . S
C1793 C1794 1.415 . S
C1794 H1770 0.950 . S
C1794 C1789 1.363 . S
C1794 C1793 1.415 . S
C1795 H1771 0.951 . S
C1795 C1796 1.366 . S
C1795 C1797 1.388 . S
C1796 C1795 1.366 . S
C1796 C1800 1.385 . S
C1797 H1772 0.951 . S
C1797 C1795 1.388 . S
C1797 C1798 1.366 . S
C1798 C1797 1.366 . S
C1798 C1799 1.414 . S
C1798 C1801 1.499 . S
C1799 H1773 0.950 . S
C1799 C1798 1.414 . S
C1799 C1800 1.374 . S
C1800 H1774 0.950 . S
C1800 C1796 1.385 . S
C1800 C1799 1.374 . S
C1801 C1798 1.499 . S
C1801 C1802 1.373 . S
C1801 C1803 1.389 . S
C1802 H1775 0.950 . S
C1802 C1788 1.377 . S
C1802 C1801 1.373 . S
C1803 C1787 1.377 . S
C1803 C1801 1.389 . S
C1803 C1804 1.524 . S
C1804 C1803 1.524 . S
C1804 C1805 1.397 . S
C1804 C1809 1.363 . S
C1805 H1776 0.950 . S
C1805 C1804 1.397 . S
C1805 C1806 1.334 . S
C1806 H1777 0.950 . S
C1806 C1805 1.334 . S
C1806 C1807 1.287 . S
C1807 C1806 1.287 . S
C1807 C1808 1.524 . S
C1807 H1810 0.999 . S
C1808 H1778 0.950 . S
C1808 C1807 1.524 . S
C1808 C1809 1.415 . S
C1809 H1779 0.950 . S
C1809 C1804 1.363 . S
C1809 C1808 1.415 . S
H1810 C1807 0.999 . S
H1811 C1792 0.913 . S
H1812 C1830 0.951 . S
H1813 C1832 0.951 . S
H1814 C1834 0.950 . S
H1815 C1835 0.950 . S
H1816 C1837 0.950 . S
H1817 C1840 0.950 . S
H1818 C1841 0.950 . S
H1819 C1843 0.950 . S
H1820 C1844 0.950 . S
H1821 C1845 0.951 . S
H1822 C1847 0.951 . S
H1823 C1849 0.950 . S
H1824 C1850 0.950 . S
H1825 C1852 0.950 . S
H1826 C1855 0.950 . S
H1827 C1856 0.950 . S
H1828 C1858 0.950 . S
H1829 C1859 0.950 . S
C1830 H1812 0.951 . S
C1830 C1831 1.366 . S
C1830 C1832 1.388 . S
C1831 C1830 1.366 . S
C1831 C1835 1.385 . S
C1832 H1813 0.951 . S
C1832 C1830 1.388 . S
C1832 C1833 1.366 . S
C1833 C1832 1.366 . S
C1833 C1834 1.414 . S
C1833 C1836 1.499 . S
C1834 H1814 0.950 . S
C1834 C1833 1.414 . S
C1834 C1835 1.374 . S
C1835 H1815 0.950 . S
C1835 C1831 1.385 . S
C1835 C1834 1.374 . S
C1836 C1833 1.499 . S
C1836 C1837 1.373 . S
C1836 C1838 1.389 . S
C1837 H1816 0.950 . S
C1837 C1836 1.373 . S
C1837 C1853 1.377 . S
C1838 C1836 1.389 . S
C1838 C1839 1.524 . S
C1838 C1852 1.377 . S
C1839 C1838 1.524 . S
C1839 C1840 1.397 . S
C1839 C1844 1.363 . S
C1840 H1817 0.950 . S
C1840 C1839 1.397 . S
C1840 C1841 1.334 . S
C1841 H1818 0.950 . S
C1841 C1840 1.334 . S
C1841 C1842 1.287 . S
C1842 C1841 1.287 . S
C1842 C1843 1.524 . S
C1842 H1861 0.913 . S
C1843 H1819 0.950 . S
C1843 C1842 1.524 . S
C1843 C1844 1.415 . S
C1844 H1820 0.950 . S
C1844 C1839 1.363 . S
C1844 C1843 1.415 . S
C1845 H1821 0.951 . S
C1845 C1846 1.366 . S
C1845 C1847 1.388 . S
C1846 C1845 1.366 . S
C1846 C1850 1.385 . S
C1847 H1822 0.951 . S
C1847 C1845 1.388 . S
C1847 C1848 1.366 . S
C1848 C1847 1.366 . S
C1848 C1849 1.414 . S
C1848 C1851 1.499 . S
C1849 H1823 0.950 . S
C1849 C1848 1.414 . S
C1849 C1850 1.374 . S
C1850 H1824 0.950 . S
C1850 C1846 1.385 . S
C1850 C1849 1.374 . S
C1851 C1848 1.499 . S
C1851 C1852 1.373 . S
C1851 C1853 1.389 . S
C1852 H1825 0.950 . S
C1852 C1838 1.377 . S
C1852 C1851 1.373 . S
C1853 C1837 1.377 . S
C1853 C1851 1.389 . S
C1853 C1854 1.524 . S
C1854 C1853 1.524 . S
C1854 C1855 1.397 . S
C1854 C1859 1.363 . S
C1855 H1826 0.950 . S
C1855 C1854 1.397 . S
C1855 C1856 1.334 . S
C1856 H1827 0.950 . S
C1856 C1855 1.334 . S
C1856 C1857 1.287 . S
C1857 C1856 1.287 . S
C1857 C1858 1.524 . S
C1857 H1860 0.999 . S
C1858 H1828 0.950 . S
C1858 C1857 1.524 . S
C1858 C1859 1.415 . S
C1859 H1829 0.950 . S
C1859 C1854 1.363 . S
C1859 C1858 1.415 . S
H1860 C1857 0.999 . S
H1861 C1842 0.913 . S
H1862 C1880 0.951 . S
H1863 C1882 0.951 . S
H1864 C1884 0.950 . S
H1865 C1885 0.950 . S
H1866 C1887 0.950 . S
H1867 C1890 0.950 . S
H1868 C1891 0.950 . S
H1869 C1893 0.950 . S
H1870 C1894 0.950 . S
H1871 C1895 0.951 . S
H1872 C1897 0.951 . S
H1873 C1899 0.950 . S
H1874 C1900 0.950 . S
H1875 C1902 0.950 . S
H1876 C1905 0.950 . S
H1877 C1906 0.950 . S
H1878 C1908 0.950 . S
H1879 C1909 0.950 . S
C1880 H1862 0.951 . S
C1880 C1881 1.366 . S
C1880 C1882 1.388 . S
C1881 C1880 1.366 . S
C1881 C1885 1.385 . S
C1882 H1863 0.951 . S
C1882 C1880 1.388 . S
C1882 C1883 1.366 . S
C1883 C1882 1.366 . S
C1883 C1884 1.414 . S
C1883 C1886 1.499 . S
C1884 H1864 0.950 . S
C1884 C1883 1.414 . S
C1884 C1885 1.374 . S
C1885 H1865 0.950 . S
C1885 C1881 1.385 . S
C1885 C1884 1.374 . S
C1886 C1883 1.499 . S
C1886 C1887 1.373 . S
C1886 C1888 1.389 . S
C1887 H1866 0.950 . S
C1887 C1886 1.373 . S
C1887 C1903 1.377 . S
C1888 C1886 1.389 . S
C1888 C1889 1.524 . S
C1888 C1902 1.377 . S
C1889 C1888 1.524 . S
C1889 C1890 1.397 . S
C1889 C1894 1.363 . S
C1890 H1867 0.950 . S
C1890 C1889 1.397 . S
C1890 C1891 1.334 . S
C1891 H1868 0.950 . S
C1891 C1890 1.334 . S
C1891 C1892 1.287 . S
C1892 C1891 1.287 . S
C1892 C1893 1.524 . S
C1892 H1911 0.913 . S
C1893 H1869 0.950 . S
C1893 C1892 1.524 . S
C1893 C1894 1.415 . S
C1894 H1870 0.950 . S
C1894 C1889 1.363 . S
C1894 C1893 1.415 . S
C1895 H1871 0.951 . S
C1895 C1896 1.366 . S
C1895 C1897 1.388 . S
C1896 C1895 1.366 . S
C1896 C1900 1.385 . S
C1897 H1872 0.951 . S
C1897 C1895 1.388 . S
C1897 C1898 1.366 . S
C1898 C1897 1.366 . S
C1898 C1899 1.414 . S
C1898 C1901 1.499 . S
C1899 H1873 0.950 . S
C1899 C1898 1.414 . S
C1899 C1900 1.374 . S
C1900 H1874 0.950 . S
C1900 C1896 1.385 . S
C1900 C1899 1.374 . S
C1901 C1898 1.499 . S
C1901 C1902 1.373 . S
C1901 C1903 1.389 . S
C1902 H1875 0.950 . S
C1902 C1888 1.377 . S
C1902 C1901 1.373 . S
C1903 C1887 1.377 . S
C1903 C1901 1.389 . S
C1903 C1904 1.524 . S
C1904 C1903 1.524 . S
C1904 C1905 1.397 . S
C1904 C1909 1.363 . S
C1905 H1876 0.950 . S
C1905 C1904 1.397 . S
C1905 C1906 1.334 . S
C1906 H1877 0.950 . S
C1906 C1905 1.334 . S
C1906 C1907 1.287 . S
C1907 C1906 1.287 . S
C1907 C1908 1.524 . S
C1907 H1910 0.999 . S
C1908 H1878 0.950 . S
C1908 C1907 1.524 . S
C1908 C1909 1.415 . S
C1909 H1879 0.950 . S
C1909 C1904 1.363 . S
C1909 C1908 1.415 . S
H1910 C1907 0.999 . S
H1911 C1892 0.913 . S
H1912 C1930 0.951 . S
H1913 C1932 0.951 . S
H1914 C1934 0.950 . S
H1915 C1935 0.950 . S
H1916 C1937 0.950 . S
H1917 C1940 0.950 . S
H1918 C1941 0.950 . S
H1919 C1943 0.950 . S
H1920 C1944 0.950 . S
H1921 C1945 0.951 . S
H1922 C1947 0.951 . S
H1923 C1949 0.950 . S
H1924 C1950 0.950 . S
H1925 C1952 0.950 . S
H1926 C1955 0.950 . S
H1927 C1956 0.950 . S
H1928 C1958 0.950 . S
H1929 C1959 0.950 . S
C1930 H1912 0.951 . S
C1930 C1931 1.366 . S
C1930 C1932 1.388 . S
C1931 C1930 1.366 . S
C1931 C1935 1.385 . S
C1932 H1913 0.951 . S
C1932 C1930 1.388 . S
C1932 C1933 1.366 . S
C1933 C1932 1.366 . S
C1933 C1934 1.414 . S
C1933 C1936 1.499 . S
C1934 H1914 0.950 . S
C1934 C1933 1.414 . S
C1934 C1935 1.374 . S
C1935 H1915 0.950 . S
C1935 C1931 1.385 . S
C1935 C1934 1.374 . S
C1936 C1933 1.499 . S
C1936 C1937 1.373 . S
C1936 C1938 1.389 . S
C1937 H1916 0.950 . S
C1937 C1936 1.373 . S
C1937 C1953 1.377 . S
C1938 C1936 1.389 . S
C1938 C1939 1.524 . S
C1938 C1952 1.377 . S
C1939 C1938 1.524 . S
C1939 C1940 1.397 . S
C1939 C1944 1.363 . S
C1940 H1917 0.950 . S
C1940 C1939 1.397 . S
C1940 C1941 1.334 . S
C1941 H1918 0.950 . S
C1941 C1940 1.334 . S
C1941 C1942 1.287 . S
C1942 C1941 1.287 . S
C1942 C1943 1.524 . S
C1942 H1961 0.913 . S
C1943 H1919 0.950 . S
C1943 C1942 1.524 . S
C1943 C1944 1.415 . S
C1944 H1920 0.950 . S
C1944 C1939 1.363 . S
C1944 C1943 1.415 . S
C1945 H1921 0.951 . S
C1945 C1946 1.366 . S
C1945 C1947 1.388 . S
C1946 C1945 1.366 . S
C1946 C1950 1.385 . S
C1947 H1922 0.951 . S
C1947 C1945 1.388 . S
C1947 C1948 1.366 . S
C1948 C1947 1.366 . S
C1948 C1949 1.414 . S
C1948 C1951 1.499 . S
C1949 H1923 0.950 . S
C1949 C1948 1.414 . S
C1949 C1950 1.374 . S
C1950 H1924 0.950 . S
C1950 C1946 1.385 . S
C1950 C1949 1.374 . S
C1951 C1948 1.499 . S
C1951 C1952 1.373 . S
C1951 C1953 1.389 . S
C1952 H1925 0.950 . S
C1952 C1938 1.377 . S
C1952 C1951 1.373 . S
C1953 C1937 1.377 . S
C1953 C1951 1.389 . S
C1953 C1954 1.524 . S
C1954 C1953 1.524 . S
C1954 C1955 1.397 . S
C1954 C1959 1.363 . S
C1955 H1926 0.950 . S
C1955 C1954 1.397 . S
C1955 C1956 1.334 . S
C1956 H1927 0.950 . S
C1956 C1955 1.334 . S
C1956 C1957 1.287 . S
C1957 C1956 1.287 . S
C1957 C1958 1.524 . S
C1957 H1960 0.999 . S
C1958 H1928 0.950 . S
C1958 C1957 1.524 . S
C1958 C1959 1.415 . S
C1959 H1929 0.950 . S
C1959 C1954 1.363 . S
C1959 C1958 1.415 . S
H1960 C1957 0.999 . S
H1961 C1942 0.913 . S
H1962 C1980 0.951 . S
H1963 C1982 0.951 . S
H1964 C1984 0.950 . S
H1965 C1985 0.950 . S
H1966 C1987 0.950 . S
H1967 C1990 0.950 . S
H1968 C1991 0.950 . S
H1969 C1993 0.950 . S
H1970 C1994 0.950 . S
H1971 C1995 0.951 . S
H1972 C1997 0.951 . S
H1973 C1999 0.950 . S
H1974 C2000 0.950 . S
H1975 C2002 0.950 . S
H1976 C2005 0.950 . S
H1977 C2006 0.950 . S
H1978 C2008 0.950 . S
H1979 C2009 0.950 . S
C1980 H1962 0.951 . S
C1980 C1981 1.366 . S
C1980 C1982 1.388 . S
C1981 C1980 1.366 . S
C1981 C1985 1.385 . S
C1982 H1963 0.951 . S
C1982 C1980 1.388 . S
C1982 C1983 1.366 . S
C1983 C1982 1.366 . S
C1983 C1984 1.414 . S
C1983 C1986 1.499 . S
C1984 H1964 0.950 . S
C1984 C1983 1.414 . S
C1984 C1985 1.374 . S
C1985 H1965 0.950 . S
C1985 C1981 1.385 . S
C1985 C1984 1.374 . S
C1986 C1983 1.499 . S
C1986 C1987 1.373 . S
C1986 C1988 1.389 . S
C1987 H1966 0.950 . S
C1987 C1986 1.373 . S
C1987 C2003 1.377 . S
C1988 C1986 1.389 . S
C1988 C1989 1.524 . S
C1988 C2002 1.377 . S
C1989 C1988 1.524 . S
C1989 C1990 1.397 . S
C1989 C1994 1.363 . S
C1990 H1967 0.950 . S
C1990 C1989 1.397 . S
C1990 C1991 1.334 . S
C1991 H1968 0.950 . S
C1991 C1990 1.334 . S
C1991 C1992 1.287 . S
C1992 C1991 1.287 . S
C1992 C1993 1.524 . S
C1992 H2011 0.913 . S
C1993 H1969 0.950 . S
C1993 C1992 1.524 . S
C1993 C1994 1.415 . S
C1994 H1970 0.950 . S
C1994 C1989 1.363 . S
C1994 C1993 1.415 . S
C1995 H1971 0.951 . S
C1995 C1996 1.366 . S
C1995 C1997 1.388 . S
C1996 C1995 1.366 . S
C1996 C2000 1.385 . S
C1997 H1972 0.951 . S
C1997 C1995 1.388 . S
C1997 C1998 1.366 . S
C1998 C1997 1.366 . S
C1998 C1999 1.414 . S
C1998 C2001 1.499 . S
C1999 H1973 0.950 . S
C1999 C1998 1.414 . S
C1999 C2000 1.374 . S
C2000 H1974 0.950 . S
C2000 C1996 1.385 . S
C2000 C1999 1.374 . S
C2001 C1998 1.499 . S
C2001 C2002 1.373 . S
C2001 C2003 1.389 . S
C2002 H1975 0.950 . S
C2002 C1988 1.377 . S
C2002 C2001 1.373 . S
C2003 C1987 1.377 . S
C2003 C2001 1.389 . S
C2003 C2004 1.524 . S
C2004 C2003 1.524 . S
C2004 C2005 1.397 . S
C2004 C2009 1.363 . S
C2005 H1976 0.950 . S
C2005 C2004 1.397 . S
C2005 C2006 1.334 . S
C2006 H1977 0.950 . S
C2006 C2005 1.334 . S
C2006 C2007 1.287 . S
C2007 C2006 1.287 . S
C2007 C2008 1.524 . S
C2007 H2010 0.999 . S
C2008 H1978 0.950 . S
C2008 C2007 1.524 . S
C2008 C2009 1.415 . S
C2009 H1979 0.950 . S
C2009 C2004 1.363 . S
C2009 C2008 1.415 . S
H2010 C2007 0.999 . S
H2011 C1992 0.913 . S
H2012 C2030 0.951 . S
H2013 C2032 0.951 . S
H2014 C2034 0.950 . S
H2015 C2035 0.950 . S
H2016 C2037 0.950 . S
H2017 C2040 0.950 . S
H2018 C2041 0.950 . S
H2019 C2043 0.950 . S
H2020 C2044 0.950 . S
H2021 C2045 0.951 . S
H2022 C2047 0.951 . S
H2023 C2049 0.950 . S
H2024 C2050 0.950 . S
H2025 C2052 0.950 . S
H2026 C2055 0.950 . S
H2027 C2056 0.950 . S
H2028 C2058 0.950 . S
H2029 C2059 0.950 . S
C2030 H2012 0.951 . S
C2030 C2031 1.366 . S
C2030 C2032 1.388 . S
C2031 C2030 1.366 . S
C2031 C2035 1.385 . S
C2032 H2013 0.951 . S
C2032 C2030 1.388 . S
C2032 C2033 1.366 . S
C2033 C2032 1.366 . S
C2033 C2034 1.414 . S
C2033 C2036 1.499 . S
C2034 H2014 0.950 . S
C2034 C2033 1.414 . S
C2034 C2035 1.374 . S
C2035 H2015 0.950 . S
C2035 C2031 1.385 . S
C2035 C2034 1.374 . S
C2036 C2033 1.499 . S
C2036 C2037 1.373 . S
C2036 C2038 1.389 . S
C2037 H2016 0.950 . S
C2037 C2036 1.373 . S
C2037 C2053 1.377 . S
C2038 C2036 1.389 . S
C2038 C2039 1.524 . S
C2038 C2052 1.377 . S
C2039 C2038 1.524 . S
C2039 C2040 1.397 . S
C2039 C2044 1.363 . S
C2040 H2017 0.950 . S
C2040 C2039 1.397 . S
C2040 C2041 1.334 . S
C2041 H2018 0.950 . S
C2041 C2040 1.334 . S
C2041 C2042 1.287 . S
C2042 C2041 1.287 . S
C2042 C2043 1.524 . S
C2042 H2061 0.913 . S
C2043 H2019 0.950 . S
C2043 C2042 1.524 . S
C2043 C2044 1.415 . S
C2044 H2020 0.950 . S
C2044 C2039 1.363 . S
C2044 C2043 1.415 . S
C2045 H2021 0.951 . S
C2045 C2046 1.366 . S
C2045 C2047 1.388 . S
C2046 C2045 1.366 . S
C2046 C2050 1.385 . S
C2047 H2022 0.951 . S
C2047 C2045 1.388 . S
C2047 C2048 1.366 . S
C2048 C2047 1.366 . S
C2048 C2049 1.414 . S
C2048 C2051 1.499 . S
C2049 H2023 0.950 . S
C2049 C2048 1.414 . S
C2049 C2050 1.374 . S
C2050 H2024 0.950 . S
C2050 C2046 1.385 . S
C2050 C2049 1.374 . S
C2051 C2048 1.499 . S
C2051 C2052 1.373 . S
C2051 C2053 1.389 . S
C2052 H2025 0.950 . S
C2052 C2038 1.377 . S
C2052 C2051 1.373 . S
C2053 C2037 1.377 . S
C2053 C2051 1.389 . S
C2053 C2054 1.524 . S
C2054 C2053 1.524 . S
C2054 C2055 1.397 . S
C2054 C2059 1.363 . S
C2055 H2026 0.950 . S
C2055 C2054 1.397 . S
C2055 C2056 1.334 . S
C2056 H2027 0.950 . S
C2056 C2055 1.334 . S
C2056 C2057 1.287 . S
C2057 C2056 1.287 . S
C2057 C2058 1.524 . S
C2057 H2060 0.999 . S
C2058 H2028 0.950 . S
C2058 C2057 1.524 . S
C2058 C2059 1.415 . S
C2059 H2029 0.950 . S
C2059 C2054 1.363 . S
C2059 C2058 1.415 . S
H2060 C2057 0.999 . S
H2061 C2042 0.913 . S
H2062 C2080 0.951 . S
H2063 C2082 0.951 . S
H2064 C2084 0.950 . S
H2065 C2085 0.950 . S
H2066 C2087 0.950 . S
H2067 C2090 0.950 . S
H2068 C2091 0.950 . S
H2069 C2093 0.950 . S
H2070 C2094 0.950 . S
H2071 C2095 0.951 . S
H2072 C2097 0.951 . S
H2073 C2099 0.950 . S
H2074 C2100 0.950 . S
H2075 C2102 0.950 . S
H2076 C2105 0.950 . S
H2077 C2106 0.950 . S
H2078 C2108 0.950 . S
H2079 C2109 0.950 . S
C2080 H2062 0.951 . S
C2080 C2081 1.366 . S
C2080 C2082 1.388 . S
C2081 C2080 1.366 . S
C2081 C2085 1.385 . S
C2082 H2063 0.951 . S
C2082 C2080 1.388 . S
C2082 C2083 1.366 . S
C2083 C2082 1.366 . S
C2083 C2084 1.414 . S
C2083 C2086 1.499 . S
C2084 H2064 0.950 . S
C2084 C2083 1.414 . S
C2084 C2085 1.374 . S
C2085 H2065 0.950 . S
C2085 C2081 1.385 . S
C2085 C2084 1.374 . S
C2086 C2083 1.499 . S
C2086 C2087 1.373 . S
C2086 C2088 1.389 . S
C2087 H2066 0.950 . S
C2087 C2086 1.373 . S
C2087 C2103 1.377 . S
C2088 C2086 1.389 . S
C2088 C2089 1.524 . S
C2088 C2102 1.377 . S
C2089 C2088 1.524 . S
C2089 C2090 1.397 . S
C2089 C2094 1.363 . S
C2090 H2067 0.950 . S
C2090 C2089 1.397 . S
C2090 C2091 1.334 . S
C2091 H2068 0.950 . S
C2091 C2090 1.334 . S
C2091 C2092 1.287 . S
C2092 C2091 1.287 . S
C2092 C2093 1.524 . S
C2092 H2111 0.913 . S
C2093 H2069 0.950 . S
C2093 C2092 1.524 . S
C2093 C2094 1.415 . S
C2094 H2070 0.950 . S
C2094 C2089 1.363 . S
C2094 C2093 1.415 . S
C2095 H2071 0.951 . S
C2095 C2096 1.366 . S
C2095 C2097 1.388 . S
C2096 C2095 1.366 . S
C2096 C2100 1.385 . S
C2097 H2072 0.951 . S
C2097 C2095 1.388 . S
C2097 C2098 1.366 . S
C2098 C2097 1.366 . S
C2098 C2099 1.414 . S
C2098 C2101 1.499 . S
C2099 H2073 0.950 . S
C2099 C2098 1.414 . S
C2099 C2100 1.374 . S
C2100 H2074 0.950 . S
C2100 C2096 1.385 . S
C2100 C2099 1.374 . S
C2101 C2098 1.499 . S
C2101 C2102 1.373 . S
C2101 C2103 1.389 . S
C2102 H2075 0.950 . S
C2102 C2088 1.377 . S
C2102 C2101 1.373 . S
C2103 C2087 1.377 . S
C2103 C2101 1.389 . S
C2103 C2104 1.524 . S
C2104 C2103 1.524 . S
C2104 C2105 1.397 . S
C2104 C2109 1.363 . S
C2105 H2076 0.950 . S
C2105 C2104 1.397 . S
C2105 C2106 1.334 . S
C2106 H2077 0.950 . S
C2106 C2105 1.334 . S
C2106 C2107 1.287 . S
C2107 C2106 1.287 . S
C2107 C2108 1.524 . S
C2107 H2110 0.999 . S
C2108 H2078 0.950 . S
C2108 C2107 1.524 . S
C2108 C2109 1.415 . S
C2109 H2079 0.950 . S
C2109 C2104 1.363 . S
C2109 C2108 1.415 . S
H2110 C2107 0.999 . S
H2111 C2092 0.913 . S
H2112 C2130 0.951 . S
H2113 C2132 0.951 . S
H2114 C2134 0.950 . S
H2115 C2135 0.950 . S
H2116 C2137 0.950 . S
H2117 C2140 0.950 . S
H2118 C2141 0.950 . S
H2119 C2143 0.950 . S
H2120 C2144 0.950 . S
H2121 C2145 0.951 . S
H2122 C2147 0.951 . S
H2123 C2149 0.950 . S
H2124 C2150 0.950 . S
H2125 C2152 0.950 . S
H2126 C2155 0.950 . S
H2127 C2156 0.950 . S
H2128 C2158 0.950 . S
H2129 C2159 0.950 . S
C2130 H2112 0.951 . S
C2130 C2131 1.366 . S
C2130 C2132 1.388 . S
C2131 C2130 1.366 . S
C2131 C2135 1.385 . S
C2132 H2113 0.951 . S
C2132 C2130 1.388 . S
C2132 C2133 1.366 . S
C2133 C2132 1.366 . S
C2133 C2134 1.414 . S
C2133 C2136 1.499 . S
C2134 H2114 0.950 . S
C2134 C2133 1.414 . S
C2134 C2135 1.374 . S
C2135 H2115 0.950 . S
C2135 C2131 1.385 . S
C2135 C2134 1.374 . S
C2136 C2133 1.499 . S
C2136 C2137 1.373 . S
C2136 C2138 1.389 . S
C2137 H2116 0.950 . S
C2137 C2136 1.373 . S
C2137 C2153 1.377 . S
C2138 C2136 1.389 . S
C2138 C2139 1.524 . S
C2138 C2152 1.377 . S
C2139 C2138 1.524 . S
C2139 C2140 1.397 . S
C2139 C2144 1.363 . S
C2140 H2117 0.950 . S
C2140 C2139 1.397 . S
C2140 C2141 1.334 . S
C2141 H2118 0.950 . S
C2141 C2140 1.334 . S
C2141 C2142 1.287 . S
C2142 C2141 1.287 . S
C2142 C2143 1.524 . S
C2142 H2161 0.913 . S
C2143 H2119 0.950 . S
C2143 C2142 1.524 . S
C2143 C2144 1.415 . S
C2144 H2120 0.950 . S
C2144 C2139 1.363 . S
C2144 C2143 1.415 . S
C2145 H2121 0.951 . S
C2145 C2146 1.366 . S
C2145 C2147 1.388 . S
C2146 C2145 1.366 . S
C2146 C2150 1.385 . S
C2147 H2122 0.951 . S
C2147 C2145 1.388 . S
C2147 C2148 1.366 . S
C2148 C2147 1.366 . S
C2148 C2149 1.414 . S
C2148 C2151 1.499 . S
C2149 H2123 0.950 . S
C2149 C2148 1.414 . S
C2149 C2150 1.374 . S
C2150 H2124 0.950 . S
C2150 C2146 1.385 . S
C2150 C2149 1.374 . S
C2151 C2148 1.499 . S
C2151 C2152 1.373 . S
C2151 C2153 1.389 . S
C2152 H2125 0.950 . S
C2152 C2138 1.377 . S
C2152 C2151 1.373 . S
C2153 C2137 1.377 . S
C2153 C2151 1.389 . S
C2153 C2154 1.524 . S
C2154 C2153 1.524 . S
C2154 C2155 1.397 . S
C2154 C2159 1.363 . S
C2155 H2126 0.950 . S
C2155 C2154 1.397 . S
C2155 C2156 1.334 . S
C2156 H2127 0.950 . S
C2156 C2155 1.334 . S
C2156 C2157 1.287 . S
C2157 C2156 1.287 . S
C2157 C2158 1.524 . S
C2157 H2160 0.999 . S
C2158 H2128 0.950 . S
C2158 C2157 1.524 . S
C2158 C2159 1.415 . S
C2159 H2129 0.950 . S
C2159 C2154 1.363 . S
C2159 C2158 1.415 . S
H2160 C2157 0.999 . S
H2161 C2142 0.913 . S
H2162 C2180 0.951 . S
H2163 C2182 0.951 . S
H2164 C2184 0.950 . S
H2165 C2185 0.950 . S
H2166 C2187 0.950 . S
H2167 C2190 0.950 . S
H2168 C2191 0.950 . S
H2169 C2193 0.950 . S
H2170 C2194 0.950 . S
H2171 C2195 0.951 . S
H2172 C2197 0.951 . S
H2173 C2199 0.950 . S
H2174 C2200 0.950 . S
H2175 C2202 0.950 . S
H2176 C2205 0.950 . S
H2177 C2206 0.950 . S
H2178 C2208 0.950 . S
H2179 C2209 0.950 . S
C2180 H2162 0.951 . S
C2180 C2181 1.366 . S
C2180 C2182 1.388 . S
C2181 C2180 1.366 . S
C2181 C2185 1.385 . S
C2182 H2163 0.951 . S
C2182 C2180 1.388 . S
C2182 C2183 1.366 . S
C2183 C2182 1.366 . S
C2183 C2184 1.414 . S
C2183 C2186 1.499 . S
C2184 H2164 0.950 . S
C2184 C2183 1.414 . S
C2184 C2185 1.374 . S
C2185 H2165 0.950 . S
C2185 C2181 1.385 . S
C2185 C2184 1.374 . S
C2186 C2183 1.499 . S
C2186 C2187 1.373 . S
C2186 C2188 1.389 . S
C2187 H2166 0.950 . S
C2187 C2186 1.373 . S
C2187 C2203 1.377 . S
C2188 C2186 1.389 . S
C2188 C2189 1.524 . S
C2188 C2202 1.377 . S
C2189 C2188 1.524 . S
C2189 C2190 1.397 . S
C2189 C2194 1.363 . S
C2190 H2167 0.950 . S
C2190 C2189 1.397 . S
C2190 C2191 1.334 . S
C2191 H2168 0.950 . S
C2191 C2190 1.334 . S
C2191 C2192 1.287 . S
C2192 C2191 1.287 . S
C2192 C2193 1.524 . S
C2192 H2211 0.913 . S
C2193 H2169 0.950 . S
C2193 C2192 1.524 . S
C2193 C2194 1.415 . S
C2194 H2170 0.950 . S
C2194 C2189 1.363 . S
C2194 C2193 1.415 . S
C2195 H2171 0.951 . S
C2195 C2196 1.366 . S
C2195 C2197 1.388 . S
C2196 C2195 1.366 . S
C2196 C2200 1.385 . S
C2197 H2172 0.951 . S
C2197 C2195 1.388 . S
C2197 C2198 1.366 . S
C2198 C2197 1.366 . S
C2198 C2199 1.414 . S
C2198 C2201 1.499 . S
C2199 H2173 0.950 . S
C2199 C2198 1.414 . S
C2199 C2200 1.374 . S
C2200 H2174 0.950 . S
C2200 C2196 1.385 . S
C2200 C2199 1.374 . S
C2201 C2198 1.499 . S
C2201 C2202 1.373 . S
C2201 C2203 1.389 . S
C2202 H2175 0.950 . S
C2202 C2188 1.377 . S
C2202 C2201 1.373 . S
C2203 C2187 1.377 . S
C2203 C2201 1.389 . S
C2203 C2204 1.524 . S
C2204 C2203 1.524 . S
C2204 C2205 1.397 . S
C2204 C2209 1.363 . S
C2205 H2176 0.950 . S
C2205 C2204 1.397 . S
C2205 C2206 1.334 . S
C2206 H2177 0.950 . S
C2206 C2205 1.334 . S
C2206 C2207 1.287 . S
C2207 C2206 1.287 . S
C2207 C2208 1.524 . S
C2207 H2210 0.999 . S
C2208 H2178 0.950 . S
C2208 C2207 1.524 . S
C2208 C2209 1.415 . S
C2209 H2179 0.950 . S
C2209 C2204 1.363 . S
C2209 C2208 1.415 . S
H2210 C2207 0.999 . S
H2211 C2192 0.913 . S
H2212 C2230 0.951 . S
H2213 C2232 0.951 . S
H2214 C2234 0.950 . S
H2215 C2235 0.950 . S
H2216 C2237 0.950 . S
H2217 C2240 0.950 . S
H2218 C2241 0.950 . S
H2219 C2243 0.950 . S
H2220 C2244 0.950 . S
H2221 C2245 0.951 . S
H2222 C2247 0.951 . S
H2223 C2249 0.950 . S
H2224 C2250 0.950 . S
H2225 C2252 0.950 . S
H2226 C2255 0.950 . S
H2227 C2256 0.950 . S
H2228 C2258 0.950 . S
H2229 C2259 0.950 . S
C2230 H2212 0.951 . S
C2230 C2231 1.366 . S
C2230 C2232 1.388 . S
C2231 C2230 1.366 . S
C2231 C2235 1.385 . S
C2232 H2213 0.951 . S
C2232 C2230 1.388 . S
C2232 C2233 1.366 . S
C2233 C2232 1.366 . S
C2233 C2234 1.414 . S
C2233 C2236 1.499 . S
C2234 H2214 0.950 . S
C2234 C2233 1.414 . S
C2234 C2235 1.374 . S
C2235 H2215 0.950 . S
C2235 C2231 1.385 . S
C2235 C2234 1.374 . S
C2236 C2233 1.499 . S
C2236 C2237 1.373 . S
C2236 C2238 1.389 . S
C2237 H2216 0.950 . S
C2237 C2236 1.373 . S
C2237 C2253 1.377 . S
C2238 C2236 1.389 . S
C2238 C2239 1.524 . S
C2238 C2252 1.377 . S
C2239 C2238 1.524 . S
C2239 C2240 1.397 . S
C2239 C2244 1.363 . S
C2240 H2217 0.950 . S
C2240 C2239 1.397 . S
C2240 C2241 1.334 . S
C2241 H2218 0.950 . S
C2241 C2240 1.334 . S
C2241 C2242 1.287 . S
C2242 C2241 1.287 . S
C2242 C2243 1.524 . S
C2242 H2261 0.913 . S
C2243 H2219 0.950 . S
C2243 C2242 1.524 . S
C2243 C2244 1.415 . S
C2244 H2220 0.950 . S
C2244 C2239 1.363 . S
C2244 C2243 1.415 . S
C2245 H2221 0.951 . S
C2245 C2246 1.366 . S
C2245 C2247 1.388 . S
C2246 C2245 1.366 . S
C2246 C2250 1.385 . S
C2247 H2222 0.951 . S
C2247 C2245 1.388 . S
C2247 C2248 1.366 . S
C2248 C2247 1.366 . S
C2248 C2249 1.414 . S
C2248 C2251 1.499 . S
C2249 H2223 0.950 . S
C2249 C2248 1.414 . S
C2249 C2250 1.374 . S
C2250 H2224 0.950 . S
C2250 C2246 1.385 . S
C2250 C2249 1.374 . S
C2251 C2248 1.499 . S
C2251 C2252 1.373 . S
C2251 C2253 1.389 . S
C2252 H2225 0.950 . S
C2252 C2238 1.377 . S
C2252 C2251 1.373 . S
C2253 C2237 1.377 . S
C2253 C2251 1.389 . S
C2253 C2254 1.524 . S
C2254 C2253 1.524 . S
C2254 C2255 1.397 . S
C2254 C2259 1.363 . S
C2255 H2226 0.950 . S
C2255 C2254 1.397 . S
C2255 C2256 1.334 . S
C2256 H2227 0.950 . S
C2256 C2255 1.334 . S
C2256 C2257 1.287 . S
C2257 C2256 1.287 . S
C2257 C2258 1.524 . S
C2257 H2260 0.999 . S
C2258 H2228 0.950 . S
C2258 C2257 1.524 . S
C2258 C2259 1.415 . S
C2259 H2229 0.950 . S
C2259 C2254 1.363 . S
C2259 C2258 1.415 . S
H2260 C2257 0.999 . S
H2261 C2242 0.913 . S
H2262 C2280 0.951 . S
H2263 C2282 0.951 . S
H2264 C2284 0.950 . S
H2265 C2285 0.950 . S
H2266 C2287 0.950 . S
H2267 C2290 0.950 . S
H2268 C2291 0.950 . S
H2269 C2293 0.950 . S
H2270 C2294 0.950 . S
H2271 C2295 0.951 . S
H2272 C2297 0.951 . S
H2273 C2299 0.950 . S
H2274 C2300 0.950 . S
H2275 C2302 0.950 . S
H2276 C2305 0.950 . S
H2277 C2306 0.950 . S
H2278 C2308 0.950 . S
H2279 C2309 0.950 . S
C2280 H2262 0.951 . S
C2280 C2281 1.366 . S
C2280 C2282 1.388 . S
C2281 C2280 1.366 . S
C2281 C2285 1.385 . S
C2282 H2263 0.951 . S
C2282 C2280 1.388 . S
C2282 C2283 1.366 . S
C2283 C2282 1.366 . S
C2283 C2284 1.414 . S
C2283 C2286 1.499 . S
C2284 H2264 0.950 . S
C2284 C2283 1.414 . S
C2284 C2285 1.374 . S
C2285 H2265 0.950 . S
C2285 C2281 1.385 . S
C2285 C2284 1.374 . S
C2286 C2283 1.499 . S
C2286 C2287 1.373 . S
C2286 C2288 1.389 . S
C2287 H2266 0.950 . S
C2287 C2286 1.373 . S
C2287 C2303 1.377 . S
C2288 C2286 1.389 . S
C2288 C2289 1.524 . S
C2288 C2302 1.377 . S
C2289 C2288 1.524 . S
C2289 C2290 1.397 . S
C2289 C2294 1.363 . S
C2290 H2267 0.950 . S
C2290 C2289 1.397 . S
C2290 C2291 1.334 . S
C2291 H2268 0.950 . S
C2291 C2290 1.334 . S
C2291 C2292 1.287 . S
C2292 C2291 1.287 . S
C2292 C2293 1.524 . S
C2292 H2311 0.913 . S
C2293 H2269 0.950 . S
C2293 C2292 1.524 . S
C2293 C2294 1.415 . S
C2294 H2270 0.950 . S
C2294 C2289 1.363 . S
C2294 C2293 1.415 . S
C2295 H2271 0.951 . S
C2295 C2296 1.366 . S
C2295 C2297 1.388 . S
C2296 C2295 1.366 . S
C2296 C2300 1.385 . S
C2297 H2272 0.951 . S
C2297 C2295 1.388 . S
C2297 C2298 1.366 . S
C2298 C2297 1.366 . S
C2298 C2299 1.414 . S
C2298 C2301 1.499 . S
C2299 H2273 0.950 . S
C2299 C2298 1.414 . S
C2299 C2300 1.374 . S
C2300 H2274 0.950 . S
C2300 C2296 1.385 . S
C2300 C2299 1.374 . S
C2301 C2298 1.499 . S
C2301 C2302 1.373 . S
C2301 C2303 1.389 . S
C2302 H2275 0.950 . S
C2302 C2288 1.377 . S
C2302 C2301 1.373 . S
C2303 C2287 1.377 . S
C2303 C2301 1.389 . S
C2303 C2304 1.524 . S
C2304 C2303 1.524 . S
C2304 C2305 1.397 . S
C2304 C2309 1.363 . S
C2305 H2276 0.950 . S
C2305 C2304 1.397 . S
C2305 C2306 1.334 . S
C2306 H2277 0.950 . S
C2306 C2305 1.334 . S
C2306 C2307 1.287 . S
C2307 C2306 1.287 . S
C2307 C2308 1.524 . S
C2307 H2310 0.999 . S
C2308 H2278 0.950 . S
C2308 C2307 1.524 . S
C2308 C2309 1.415 . S
C2309 H2279 0.950 . S
C2309 C2304 1.363 . S
C2309 C2308 1.415 . S
H2310 C2307 0.999 . S
H2311 C2292 0.913 . S
H2312 C2330 0.951 . S
H2313 C2332 0.951 . S
H2314 C2334 0.950 . S
H2315 C2335 0.950 . S
H2316 C2337 0.950 . S
H2317 C2340 0.950 . S
H2318 C2341 0.950 . S
H2319 C2343 0.950 . S
H2320 C2344 0.950 . S
H2321 C2345 0.951 . S
H2322 C2347 0.951 . S
H2323 C2349 0.950 . S
H2324 C2350 0.950 . S
H2325 C2352 0.950 . S
H2326 C2355 0.950 . S
H2327 C2356 0.950 . S
H2328 C2358 0.950 . S
H2329 C2359 0.950 . S
C2330 H2312 0.951 . S
C2330 C2331 1.366 . S
C2330 C2332 1.388 . S
C2331 C2330 1.366 . S
C2331 C2335 1.385 . S
C2332 H2313 0.951 . S
C2332 C2330 1.388 . S
C2332 C2333 1.366 . S
C2333 C2332 1.366 . S
C2333 C2334 1.414 . S
C2333 C2336 1.499 . S
C2334 H2314 0.950 . S
C2334 C2333 1.414 . S
C2334 C2335 1.374 . S
C2335 H2315 0.950 . S
C2335 C2331 1.385 . S
C2335 C2334 1.374 . S
C2336 C2333 1.499 . S
C2336 C2337 1.373 . S
C2336 C2338 1.389 . S
C2337 H2316 0.950 . S
C2337 C2336 1.373 . S
C2337 C2353 1.377 . S
C2338 C2336 1.389 . S
C2338 C2339 1.524 . S
C2338 C2352 1.377 . S
C2339 C2338 1.524 . S
C2339 C2340 1.397 . S
C2339 C2344 1.363 . S
C2340 H2317 0.950 . S
C2340 C2339 1.397 . S
C2340 C2341 1.334 . S
C2341 H2318 0.950 . S
C2341 C2340 1.334 . S
C2341 C2342 1.287 . S
C2342 C2341 1.287 . S
C2342 C2343 1.524 . S
C2342 H2361 0.913 . S
C2343 H2319 0.950 . S
C2343 C2342 1.524 . S
C2343 C2344 1.415 . S
C2344 H2320 0.950 . S
C2344 C2339 1.363 . S
C2344 C2343 1.415 . S
C2345 H2321 0.951 . S
C2345 C2346 1.366 . S
C2345 C2347 1.388 . S
C2346 C2345 1.366 . S
C2346 C2350 1.385 . S
C2347 H2322 0.951 . S
C2347 C2345 1.388 . S
C2347 C2348 1.366 . S
C2348 C2347 1.366 . S
C2348 C2349 1.414 . S
C2348 C2351 1.499 . S
C2349 H2323 0.950 . S
C2349 C2348 1.414 . S
C2349 C2350 1.374 . S
C2350 H2324 0.950 . S
C2350 C2346 1.385 . S
C2350 C2349 1.374 . S
C2351 C2348 1.499 . S
C2351 C2352 1.373 . S
C2351 C2353 1.389 . S
C2352 H2325 0.950 . S
C2352 C2338 1.377 . S
C2352 C2351 1.373 . S
C2353 C2337 1.377 . S
C2353 C2351 1.389 . S
C2353 C2354 1.524 . S
C2354 C2353 1.524 . S
C2354 C2355 1.397 . S
C2354 C2359 1.363 . S
C2355 H2326 0.950 . S
C2355 C2354 1.397 . S
C2355 C2356 1.334 . S
C2356 H2327 0.950 . S
C2356 C2355 1.334 . S
C2356 C2357 1.287 . S
C2357 C2356 1.287 . S
C2357 C2358 1.524 . S
C2357 H2360 0.999 . S
C2358 H2328 0.950 . S
C2358 C2357 1.524 . S
C2358 C2359 1.415 . S
C2359 H2329 0.950 . S
C2359 C2354 1.363 . S
C2359 C2358 1.415 . S
H2360 C2357 0.999 . S
H2361 C2342 0.913 . S
H2362 C2380 0.951 . S
H2363 C2382 0.951 . S
H2364 C2384 0.950 . S
H2365 C2385 0.950 . S
H2366 C2387 0.950 . S
H2367 C2390 0.950 . S
H2368 C2391 0.950 . S
H2369 C2393 0.950 . S
H2370 C2394 0.950 . S
H2371 C2395 0.951 . S
H2372 C2397 0.951 . S
H2373 C2399 0.950 . S
H2374 C2400 0.950 . S
H2375 C2402 0.950 . S
H2376 C2405 0.950 . S
H2377 C2406 0.950 . S
H2378 C2408 0.950 . S
H2379 C2409 0.950 . S
C2380 H2362 0.951 . S
C2380 C2381 1.366 . S
C2380 C2382 1.388 . S
C2381 C2380 1.366 . S
C2381 C2385 1.385 . S
C2382 H2363 0.951 . S
C2382 C2380 1.388 . S
C2382 C2383 1.366 . S
C2383 C2382 1.366 . S
C2383 C2384 1.414 . S
C2383 C2386 1.499 . S
C2384 H2364 0.950 . S
C2384 C2383 1.414 . S
C2384 C2385 1.374 . S
C2385 H2365 0.950 . S
C2385 C2381 1.385 . S
C2385 C2384 1.374 . S
C2386 C2383 1.499 . S
C2386 C2387 1.373 . S
C2386 C2388 1.389 . S
C2387 H2366 0.950 . S
C2387 C2386 1.373 . S
C2387 C2403 1.377 . S
C2388 C2386 1.389 . S
C2388 C2389 1.524 . S
C2388 C2402 1.377 . S
C2389 C2388 1.524 . S
C2389 C2390 1.397 . S
C2389 C2394 1.363 . S
C2390 H2367 0.950 . S
C2390 C2389 1.397 . S
C2390 C2391 1.334 . S
C2391 H2368 0.950 . S
C2391 C2390 1.334 . S
C2391 C2392 1.287 . S
C2392 C2391 1.287 . S
C2392 C2393 1.524 . S
C2392 H2411 0.913 . S
C2393 H2369 0.950 . S
C2393 C2392 1.524 . S
C2393 C2394 1.415 . S
C2394 H2370 0.950 . S
C2394 C2389 1.363 . S
C2394 C2393 1.415 . S
C2395 H2371 0.951 . S
C2395 C2396 1.366 . S
C2395 C2397 1.388 . S
C2396 C2395 1.366 . S
C2396 C2400 1.385 . S
C2397 H2372 0.951 . S
C2397 C2395 1.388 . S
C2397 C2398 1.366 . S
C2398 C2397 1.366 . S
C2398 C2399 1.414 . S
C2398 C2401 1.499 . S
C2399 H2373 0.950 . S
C2399 C2398 1.414 . S
C2399 C2400 1.374 . S
C2400 H2374 0.950 . S
C2400 C2396 1.385 . S
C2400 C2399 1.374 . S
C2401 C2398 1.499 . S
C2401 C2402 1.373 . S
C2401 C2403 1.389 . S
C2402 H2375 0.950 . S
C2402 C2388 1.377 . S
C2402 C2401 1.373 . S
C2403 C2387 1.377 . S
C2403 C2401 1.389 . S
C2403 C2404 1.524 . S
C2404 C2403 1.524 . S
C2404 C2405 1.397 . S
C2404 C2409 1.363 . S
C2405 H2376 0.950 . S
C2405 C2404 1.397 . S
C2405 C2406 1.334 . S
C2406 H2377 0.950 . S
C2406 C2405 1.334 . S
C2406 C2407 1.287 . S
C2407 C2406 1.287 . S
C2407 C2408 1.524 . S
C2407 H2410 0.999 . S
C2408 H2378 0.950 . S
C2408 C2407 1.524 . S
C2408 C2409 1.415 . S
C2409 H2379 0.950 . S
C2409 C2404 1.363 . S
C2409 C2408 1.415 . S
H2410 C2407 0.999 . S
H2411 C2392 0.913 . S
H2412 C2430 0.951 . S
H2413 C2432 0.951 . S
H2414 C2434 0.950 . S
H2415 C2435 0.950 . S
H2416 C2437 0.950 . S
H2417 C2440 0.950 . S
H2418 C2441 0.950 . S
H2419 C2443 0.950 . S
H2420 C2444 0.950 . S
H2421 C2445 0.951 . S
H2422 C2447 0.951 . S
H2423 C2449 0.950 . S
H2424 C2450 0.950 . S
H2425 C2452 0.950 . S
H2426 C2455 0.950 . S
H2427 C2456 0.950 . S
H2428 C2458 0.950 . S
H2429 C2459 0.950 . S
C2430 H2412 0.951 . S
C2430 C2431 1.366 . S
C2430 C2432 1.388 . S
C2431 C2430 1.366 . S
C2431 C2435 1.385 . S
C2432 H2413 0.951 . S
C2432 C2430 1.388 . S
C2432 C2433 1.366 . S
C2433 C2432 1.366 . S
C2433 C2434 1.414 . S
C2433 C2436 1.499 . S
C2434 H2414 0.950 . S
C2434 C2433 1.414 . S
C2434 C2435 1.374 . S
C2435 H2415 0.950 . S
C2435 C2431 1.385 . S
C2435 C2434 1.374 . S
C2436 C2433 1.499 . S
C2436 C2437 1.373 . S
C2436 C2438 1.389 . S
C2437 H2416 0.950 . S
C2437 C2436 1.373 . S
C2437 C2453 1.377 . S
C2438 C2436 1.389 . S
C2438 C2439 1.524 . S
C2438 C2452 1.377 . S
C2439 C2438 1.524 . S
C2439 C2440 1.397 . S
C2439 C2444 1.363 . S
C2440 H2417 0.950 . S
C2440 C2439 1.397 . S
C2440 C2441 1.334 . S
C2441 H2418 0.950 . S
C2441 C2440 1.334 . S
C2441 C2442 1.287 . S
C2442 C2441 1.287 . S
C2442 C2443 1.524 . S
C2442 H2461 0.913 . S
C2443 H2419 0.950 . S
C2443 C2442 1.524 . S
C2443 C2444 1.415 . S
C2444 H2420 0.950 . S
C2444 C2439 1.363 . S
C2444 C2443 1.415 . S
C2445 H2421 0.951 . S
C2445 C2446 1.366 . S
C2445 C2447 1.388 . S
C2446 C2445 1.366 . S
C2446 C2450 1.385 . S
C2447 H2422 0.951 . S
C2447 C2445 1.388 . S
C2447 C2448 1.366 . S
C2448 C2447 1.366 . S
C2448 C2449 1.414 . S
C2448 C2451 1.499 . S
C2449 H2423 0.950 . S
C2449 C2448 1.414 . S
C2449 C2450 1.374 . S
C2450 H2424 0.950 . S
C2450 C2446 1.385 . S
C2450 C2449 1.374 . S
C2451 C2448 1.499 . S
C2451 C2452 1.373 . S
C2451 C2453 1.389 . S
C2452 H2425 0.950 . S
C2452 C2438 1.377 . S
C2452 C2451 1.373 . S
C2453 C2437 1.377 . S
C2453 C2451 1.389 . S
C2453 C2454 1.524 . S
C2454 C2453 1.524 . S
C2454 C2455 1.397 . S
C2454 C2459 1.363 . S
C2455 H2426 0.950 . S
C2455 C2454 1.397 . S
C2455 C2456 1.334 . S
C2456 H2427 0.950 . S
C2456 C2455 1.334 . S
C2456 C2457 1.287 . S
C2457 C2456 1.287 . S
C2457 C2458 1.524 . S
C2457 H2460 0.999 . S
C2458 H2428 0.950 . S
C2458 C2457 1.524 . S
C2458 C2459 1.415 . S
C2459 H2429 0.950 . S
C2459 C2454 1.363 . S
C2459 C2458 1.415 . S
H2460 C2457 0.999 . S
H2461 C2442 0.913 . S
H2462 C2480 0.951 . S
H2463 C2482 0.951 . S
H2464 C2484 0.950 . S
H2465 C2485 0.950 . S
H2466 C2487 0.950 . S
H2467 C2490 0.950 . S
H2468 C2491 0.950 . S
H2469 C2493 0.950 . S
H2470 C2494 0.950 . S
H2471 C2495 0.951 . S
H2472 C2497 0.951 . S
H2473 C2499 0.950 . S
H2474 C2500 0.950 . S
H2475 C2502 0.950 . S
H2476 C2505 0.950 . S
H2477 C2506 0.950 . S
H2478 C2508 0.950 . S
H2479 C2509 0.950 . S
C2480 H2462 0.951 . S
C2480 C2481 1.366 . S
C2480 C2482 1.388 . S
C2481 C2480 1.366 . S
C2481 C2485 1.385 . S
C2482 H2463 0.951 . S
C2482 C2480 1.388 . S
C2482 C2483 1.366 . S
C2483 C2482 1.366 . S
C2483 C2484 1.414 . S
C2483 C2486 1.499 . S
C2484 H2464 0.950 . S
C2484 C2483 1.414 . S
C2484 C2485 1.374 . S
C2485 H2465 0.950 . S
C2485 C2481 1.385 . S
C2485 C2484 1.374 . S
C2486 C2483 1.499 . S
C2486 C2487 1.373 . S
C2486 C2488 1.389 . S
C2487 H2466 0.950 . S
C2487 C2486 1.373 . S
C2487 C2503 1.377 . S
C2488 C2486 1.389 . S
C2488 C2489 1.524 . S
C2488 C2502 1.377 . S
C2489 C2488 1.524 . S
C2489 C2490 1.397 . S
C2489 C2494 1.363 . S
C2490 H2467 0.950 . S
C2490 C2489 1.397 . S
C2490 C2491 1.334 . S
C2491 H2468 0.950 . S
C2491 C2490 1.334 . S
C2491 C2492 1.287 . S
C2492 C2491 1.287 . S
C2492 C2493 1.524 . S
C2492 H2511 0.913 . S
C2493 H2469 0.950 . S
C2493 C2492 1.524 . S
C2493 C2494 1.415 . S
C2494 H2470 0.950 . S
C2494 C2489 1.363 . S
C2494 C2493 1.415 . S
C2495 H2471 0.951 . S
C2495 C2496 1.366 . S
C2495 C2497 1.388 . S
C2496 C2495 1.366 . S
C2496 C2500 1.385 . S
C2497 H2472 0.951 . S
C2497 C2495 1.388 . S
C2497 C2498 1.366 . S
C2498 C2497 1.366 . S
C2498 C2499 1.414 . S
C2498 C2501 1.499 . S
C2499 H2473 0.950 . S
C2499 C2498 1.414 . S
C2499 C2500 1.374 . S
C2500 H2474 0.950 . S
C2500 C2496 1.385 . S
C2500 C2499 1.374 . S
C2501 C2498 1.499 . S
C2501 C2502 1.373 . S
C2501 C2503 1.389 . S
C2502 H2475 0.950 . S
C2502 C2488 1.377 . S
C2502 C2501 1.373 . S
C2503 C2487 1.377 . S
C2503 C2501 1.389 . S
C2503 C2504 1.524 . S
C2504 C2503 1.524 . S
C2504 C2505 1.397 . S
C2504 C2509 1.363 . S
C2505 H2476 0.950 . S
C2505 C2504 1.397 . S
C2505 C2506 1.334 . S
C2506 H2477 0.950 . S
C2506 C2505 1.334 . S
C2506 C2507 1.287 . S
C2507 C2506 1.287 . S
C2507 C2508 1.524 . S
C2507 H2510 0.999 . S
C2508 H2478 0.950 . S
C2508 C2507 1.524 . S
C2508 C2509 1.415 . S
C2509 H2479 0.950 . S
C2509 C2504 1.363 . S
C2509 C2508 1.415 . S
H2510 C2507 0.999 . S
H2511 C2492 0.913 . S
H2512 C2530 0.951 . S
H2513 C2532 0.951 . S
H2514 C2534 0.950 . S
H2515 C2535 0.950 . S
H2516 C2537 0.950 . S
H2517 C2540 0.950 . S
H2518 C2541 0.950 . S
H2519 C2543 0.950 . S
H2520 C2544 0.950 . S
H2521 C2545 0.951 . S
H2522 C2547 0.951 . S
H2523 C2549 0.950 . S
H2524 C2550 0.950 . S
H2525 C2552 0.950 . S
H2526 C2555 0.950 . S
H2527 C2556 0.950 . S
H2528 C2558 0.950 . S
H2529 C2559 0.950 . S
C2530 H2512 0.951 . S
C2530 C2531 1.366 . S
C2530 C2532 1.388 . S
C2531 C2530 1.366 . S
C2531 C2535 1.385 . S
C2532 H2513 0.951 . S
C2532 C2530 1.388 . S
C2532 C2533 1.366 . S
C2533 C2532 1.366 . S
C2533 C2534 1.414 . S
C2533 C2536 1.499 . S
C2534 H2514 0.950 . S
C2534 C2533 1.414 . S
C2534 C2535 1.374 . S
C2535 H2515 0.950 . S
C2535 C2531 1.385 . S
C2535 C2534 1.374 . S
C2536 C2533 1.499 . S
C2536 C2537 1.373 . S
C2536 C2538 1.389 . S
C2537 H2516 0.950 . S
C2537 C2536 1.373 . S
C2537 C2553 1.377 . S
C2538 C2536 1.389 . S
C2538 C2539 1.524 . S
C2538 C2552 1.377 . S
C2539 C2538 1.524 . S
C2539 C2540 1.397 . S
C2539 C2544 1.363 . S
C2540 H2517 0.950 . S
C2540 C2539 1.397 . S
C2540 C2541 1.334 . S
C2541 H2518 0.950 . S
C2541 C2540 1.334 . S
C2541 C2542 1.287 . S
C2542 C2541 1.287 . S
C2542 C2543 1.524 . S
C2542 H2561 0.913 . S
C2543 H2519 0.950 . S
C2543 C2542 1.524 . S
C2543 C2544 1.415 . S
C2544 H2520 0.950 . S
C2544 C2539 1.363 . S
C2544 C2543 1.415 . S
C2545 H2521 0.951 . S
C2545 C2546 1.366 . S
C2545 C2547 1.388 . S
C2546 C2545 1.366 . S
C2546 C2550 1.385 . S
C2547 H2522 0.951 . S
C2547 C2545 1.388 . S
C2547 C2548 1.366 . S
C2548 C2547 1.366 . S
C2548 C2549 1.414 . S
C2548 C2551 1.499 . S
C2549 H2523 0.950 . S
C2549 C2548 1.414 . S
C2549 C2550 1.374 . S
C2550 H2524 0.950 . S
C2550 C2546 1.385 . S
C2550 C2549 1.374 . S
C2551 C2548 1.499 . S
C2551 C2552 1.373 . S
C2551 C2553 1.389 . S
C2552 H2525 0.950 . S
C2552 C2538 1.377 . S
C2552 C2551 1.373 . S
C2553 C2537 1.377 . S
C2553 C2551 1.389 . S
C2553 C2554 1.524 . S
C2554 C2553 1.524 . S
C2554 C2555 1.397 . S
C2554 C2559 1.363 . S
C2555 H2526 0.950 . S
C2555 C2554 1.397 . S
C2555 C2556 1.334 . S
C2556 H2527 0.950 . S
C2556 C2555 1.334 . S
C2556 C2557 1.287 . S
C2557 C2556 1.287 . S
C2557 C2558 1.524 . S
C2557 H2560 0.999 . S
C2558 H2528 0.950 . S
C2558 C2557 1.524 . S
C2558 C2559 1.415 . S
C2559 H2529 0.950 . S
C2559 C2554 1.363 . S
C2559 C2558 1.415 . S
H2560 C2557 0.999 . S
H2561 C2542 0.913 . S
H2562 C2580 0.951 . S
H2563 C2582 0.951 . S
H2564 C2584 0.950 . S
H2565 C2585 0.950 . S
H2566 C2587 0.950 . S
H2567 C2590 0.950 . S
H2568 C2591 0.950 . S
H2569 C2593 0.950 . S
H2570 C2594 0.950 . S
H2571 C2595 0.951 . S
H2572 C2597 0.951 . S
H2573 C2599 0.950 . S
H2574 C2600 0.950 . S
H2575 C2602 0.950 . S
H2576 C2605 0.950 . S
H2577 C2606 0.950 . S
H2578 C2608 0.950 . S
H2579 C2609 0.950 . S
C2580 H2562 0.951 . S
C2580 C2581 1.366 . S
C2580 C2582 1.388 . S
C2581 C2580 1.366 . S
C2581 C2585 1.385 . S
C2582 H2563 0.951 . S
C2582 C2580 1.388 . S
C2582 C2583 1.366 . S
C2583 C2582 1.366 . S
C2583 C2584 1.414 . S
C2583 C2586 1.499 . S
C2584 H2564 0.950 . S
C2584 C2583 1.414 . S
C2584 C2585 1.374 . S
C2585 H2565 0.950 . S
C2585 C2581 1.385 . S
C2585 C2584 1.374 . S
C2586 C2583 1.499 . S
C2586 C2587 1.373 . S
C2586 C2588 1.389 . S
C2587 H2566 0.950 . S
C2587 C2586 1.373 . S
C2587 C2603 1.377 . S
C2588 C2586 1.389 . S
C2588 C2589 1.524 . S
C2588 C2602 1.377 . S
C2589 C2588 1.524 . S
C2589 C2590 1.397 . S
C2589 C2594 1.363 . S
C2590 H2567 0.950 . S
C2590 C2589 1.397 . S
C2590 C2591 1.334 . S
C2591 H2568 0.950 . S
C2591 C2590 1.334 . S
C2591 C2592 1.287 . S
C2592 C2591 1.287 . S
C2592 C2593 1.524 . S
C2592 H2611 0.913 . S
C2593 H2569 0.950 . S
C2593 C2592 1.524 . S
C2593 C2594 1.415 . S
C2594 H2570 0.950 . S
C2594 C2589 1.363 . S
C2594 C2593 1.415 . S
C2595 H2571 0.951 . S
C2595 C2596 1.366 . S
C2595 C2597 1.388 . S
C2596 C2595 1.366 . S
C2596 C2600 1.385 . S
C2597 H2572 0.951 . S
C2597 C2595 1.388 . S
C2597 C2598 1.366 . S
C2598 C2597 1.366 . S
C2598 C2599 1.414 . S
C2598 C2601 1.499 . S
C2599 H2573 0.950 . S
C2599 C2598 1.414 . S
C2599 C2600 1.374 . S
C2600 H2574 0.950 . S
C2600 C2596 1.385 . S
C2600 C2599 1.374 . S
C2601 C2598 1.499 . S
C2601 C2602 1.373 . S
C2601 C2603 1.389 . S
C2602 H2575 0.950 . S
C2602 C2588 1.377 . S
C2602 C2601 1.373 . S
C2603 C2587 1.377 . S
C2603 C2601 1.389 . S
C2603 C2604 1.524 . S
C2604 C2603 1.524 . S
C2604 C2605 1.397 . S
C2604 C2609 1.363 . S
C2605 H2576 0.950 . S
C2605 C2604 1.397 . S
C2605 C2606 1.334 . S
C2606 H2577 0.950 . S
C2606 C2605 1.334 . S
C2606 C2607 1.287 . S
C2607 C2606 1.287 . S
C2607 C2608 1.524 . S
C2607 H2610 0.999 . S
C2608 H2578 0.950 . S
C2608 C2607 1.524 . S
C2608 C2609 1.415 . S
C2609 H2579 0.950 . S
C2609 C2604 1.363 . S
C2609 C2608 1.415 . S
H2610 C2607 0.999 . S
H2611 C2592 0.913 . S
H2612 C2630 0.951 . S
H2613 C2632 0.951 . S
H2614 C2634 0.950 . S
H2615 C2635 0.950 . S
H2616 C2637 0.950 . S
H2617 C2640 0.950 . S
H2618 C2641 0.950 . S
H2619 C2643 0.950 . S
H2620 C2644 0.950 . S
H2621 C2645 0.951 . S
H2622 C2647 0.951 . S
H2623 C2649 0.950 . S
H2624 C2650 0.950 . S
H2625 C2652 0.950 . S
H2626 C2655 0.950 . S
H2627 C2656 0.950 . S
H2628 C2658 0.950 . S
H2629 C2659 0.950 . S
C2630 H2612 0.951 . S
C2630 C2631 1.366 . S
C2630 C2632 1.388 . S
C2631 C2630 1.366 . S
C2631 C2635 1.385 . S
C2632 H2613 0.951 . S
C2632 C2630 1.388 . S
C2632 C2633 1.366 . S
C2633 C2632 1.366 . S
C2633 C2634 1.414 . S
C2633 C2636 1.499 . S
C2634 H2614 0.950 . S
C2634 C2633 1.414 . S
C2634 C2635 1.374 . S
C2635 H2615 0.950 . S
C2635 C2631 1.385 . S
C2635 C2634 1.374 . S
C2636 C2633 1.499 . S
C2636 C2637 1.373 . S
C2636 C2638 1.389 . S
C2637 H2616 0.950 . S
C2637 C2636 1.373 . S
C2637 C2653 1.377 . S
C2638 C2636 1.389 . S
C2638 C2639 1.524 . S
C2638 C2652 1.377 . S
C2639 C2638 1.524 . S
C2639 C2640 1.397 . S
C2639 C2644 1.363 . S
C2640 H2617 0.950 . S
C2640 C2639 1.397 . S
C2640 C2641 1.334 . S
C2641 H2618 0.950 . S
C2641 C2640 1.334 . S
C2641 C2642 1.287 . S
C2642 C2641 1.287 . S
C2642 C2643 1.524 . S
C2642 H2661 0.913 . S
C2643 H2619 0.950 . S
C2643 C2642 1.524 . S
C2643 C2644 1.415 . S
C2644 H2620 0.950 . S
C2644 C2639 1.363 . S
C2644 C2643 1.415 . S
C2645 H2621 0.951 . S
C2645 C2646 1.366 . S
C2645 C2647 1.388 . S
C2646 C2645 1.366 . S
C2646 C2650 1.385 . S
C2647 H2622 0.951 . S
C2647 C2645 1.388 . S
C2647 C2648 1.366 . S
C2648 C2647 1.366 . S
C2648 C2649 1.414 . S
C2648 C2651 1.499 . S
C2649 H2623 0.950 . S
C2649 C2648 1.414 . S
C2649 C2650 1.374 . S
C2650 H2624 0.950 . S
C2650 C2646 1.385 . S
C2650 C2649 1.374 . S
C2651 C2648 1.499 . S
C2651 C2652 1.373 . S
C2651 C2653 1.389 . S
C2652 H2625 0.950 . S
C2652 C2638 1.377 . S
C2652 C2651 1.373 . S
C2653 C2637 1.377 . S
C2653 C2651 1.389 . S
C2653 C2654 1.524 . S
C2654 C2653 1.524 . S
C2654 C2655 1.397 . S
C2654 C2659 1.363 . S
C2655 H2626 0.950 . S
C2655 C2654 1.397 . S
C2655 C2656 1.334 . S
C2656 H2627 0.950 . S
C2656 C2655 1.334 . S
C2656 C2657 1.287 . S
C2657 C2656 1.287 . S
C2657 C2658 1.524 . S
C2657 H2660 0.999 . S
C2658 H2628 0.950 . S
C2658 C2657 1.524 . S
C2658 C2659 1.415 . S
C2659 H2629 0.950 . S
C2659 C2654 1.363 . S
C2659 C2658 1.415 . S
H2660 C2657 0.999 . S
H2661 C2642 0.913 . S
H2662 C2680 0.951 . S
H2663 C2682 0.951 . S
H2664 C2684 0.950 . S
H2665 C2685 0.950 . S
H2666 C2687 0.950 . S
H2667 C2690 0.950 . S
H2668 C2691 0.950 . S
H2669 C2693 0.950 . S
H2670 C2694 0.950 . S
H2671 C2695 0.951 . S
H2672 C2697 0.951 . S
H2673 C2699 0.950 . S
H2674 C2700 0.950 . S
H2675 C2702 0.950 . S
H2676 C2705 0.950 . S
H2677 C2706 0.950 . S
H2678 C2708 0.950 . S
H2679 C2709 0.950 . S
C2680 H2662 0.951 . S
C2680 C2681 1.366 . S
C2680 C2682 1.388 . S
C2681 C2680 1.366 . S
C2681 C2685 1.385 . S
C2682 H2663 0.951 . S
C2682 C2680 1.388 . S
C2682 C2683 1.366 . S
C2683 C2682 1.366 . S
C2683 C2684 1.414 . S
C2683 C2686 1.499 . S
C2684 H2664 0.950 . S
C2684 C2683 1.414 . S
C2684 C2685 1.374 . S
C2685 H2665 0.950 . S
C2685 C2681 1.385 . S
C2685 C2684 1.374 . S
C2686 C2683 1.499 . S
C2686 C2687 1.373 . S
C2686 C2688 1.389 . S
C2687 H2666 0.950 . S
C2687 C2686 1.373 . S
C2687 C2703 1.377 . S
C2688 C2686 1.389 . S
C2688 C2689 1.524 . S
C2688 C2702 1.377 . S
C2689 C2688 1.524 . S
C2689 C2690 1.397 . S
C2689 C2694 1.363 . S
C2690 H2667 0.950 . S
C2690 C2689 1.397 . S
C2690 C2691 1.334 . S
C2691 H2668 0.950 . S
C2691 C2690 1.334 . S
C2691 C2692 1.287 . S
C2692 C2691 1.287 . S
C2692 C2693 1.524 . S
C2692 H2711 0.913 . S
C2693 H2669 0.950 . S
C2693 C2692 1.524 . S
C2693 C2694 1.415 . S
C2694 H2670 0.950 . S
C2694 C2689 1.363 . S
C2694 C2693 1.415 . S
C2695 H2671 0.951 . S
C2695 C2696 1.366 . S
C2695 C2697 1.388 . S
C2696 C2695 1.366 . S
C2696 C2700 1.385 . S
C2697 H2672 0.951 . S
C2697 C2695 1.388 . S
C2697 C2698 1.366 . S
C2698 C2697 1.366 . S
C2698 C2699 1.414 . S
C2698 C2701 1.499 . S
C2699 H2673 0.950 . S
C2699 C2698 1.414 . S
C2699 C2700 1.374 . S
C2700 H2674 0.950 . S
C2700 C2696 1.385 . S
C2700 C2699 1.374 . S
C2701 C2698 1.499 . S
C2701 C2702 1.373 . S
C2701 C2703 1.389 . S
C2702 H2675 0.950 . S
C2702 C2688 1.377 . S
C2702 C2701 1.373 . S
C2703 C2687 1.377 . S
C2703 C2701 1.389 . S
C2703 C2704 1.524 . S
C2704 C2703 1.524 . S
C2704 C2705 1.397 . S
C2704 C2709 1.363 . S
C2705 H2676 0.950 . S
C2705 C2704 1.397 . S
C2705 C2706 1.334 . S
C2706 H2677 0.950 . S
C2706 C2705 1.334 . S
C2706 C2707 1.287 . S
C2707 C2706 1.287 . S
C2707 C2708 1.524 . S
C2707 H2710 0.999 . S
C2708 H2678 0.950 . S
C2708 C2707 1.524 . S
C2708 C2709 1.415 . S
C2709 H2679 0.950 . S
C2709 C2704 1.363 . S
C2709 C2708 1.415 . S
H2710 C2707 0.999 . S
H2711 C2692 0.913 . S
H2712 C2730 0.951 . S
H2713 C2732 0.951 . S
H2714 C2734 0.950 . S
H2715 C2735 0.950 . S
H2716 C2737 0.950 . S
H2717 C2740 0.950 . S
H2718 C2741 0.950 . S
H2719 C2743 0.950 . S
H2720 C2744 0.950 . S
H2721 C2745 0.951 . S
H2722 C2747 0.951 . S
H2723 C2749 0.950 . S
H2724 C2750 0.950 . S
H2725 C2752 0.950 . S
H2726 C2755 0.950 . S
H2727 C2756 0.950 . S
H2728 C2758 0.950 . S
H2729 C2759 0.950 . S
C2730 H2712 0.951 . S
C2730 C2731 1.366 . S
C2730 C2732 1.388 . S
C2731 C2730 1.366 . S
C2731 C2735 1.385 . S
C2732 H2713 0.951 . S
C2732 C2730 1.388 . S
C2732 C2733 1.366 . S
C2733 C2732 1.366 . S
C2733 C2734 1.414 . S
C2733 C2736 1.499 . S
C2734 H2714 0.950 . S
C2734 C2733 1.414 . S
C2734 C2735 1.374 . S
C2735 H2715 0.950 . S
C2735 C2731 1.385 . S
C2735 C2734 1.374 . S
C2736 C2733 1.499 . S
C2736 C2737 1.373 . S
C2736 C2738 1.389 . S
C2737 H2716 0.950 . S
C2737 C2736 1.373 . S
C2737 C2753 1.377 . S
C2738 C2736 1.389 . S
C2738 C2739 1.524 . S
C2738 C2752 1.377 . S
C2739 C2738 1.524 . S
C2739 C2740 1.397 . S
C2739 C2744 1.363 . S
C2740 H2717 0.950 . S
C2740 C2739 1.397 . S
C2740 C2741 1.334 . S
C2741 H2718 0.950 . S
C2741 C2740 1.334 . S
C2741 C2742 1.287 . S
C2742 C2741 1.287 . S
C2742 C2743 1.524 . S
C2742 H2761 0.913 . S
C2743 H2719 0.950 . S
C2743 C2742 1.524 . S
C2743 C2744 1.415 . S
C2744 H2720 0.950 . S
C2744 C2739 1.363 . S
C2744 C2743 1.415 . S
C2745 H2721 0.951 . S
C2745 C2746 1.366 . S
C2745 C2747 1.388 . S
C2746 C2745 1.366 . S
C2746 C2750 1.385 . S
C2747 H2722 0.951 . S
C2747 C2745 1.388 . S
C2747 C2748 1.366 . S
C2748 C2747 1.366 . S
C2748 C2749 1.414 . S
C2748 C2751 1.499 . S
C2749 H2723 0.950 . S
C2749 C2748 1.414 . S
C2749 C2750 1.374 . S
C2750 H2724 0.950 . S
C2750 C2746 1.385 . S
C2750 C2749 1.374 . S
C2751 C2748 1.499 . S
C2751 C2752 1.373 . S
C2751 C2753 1.389 . S
C2752 H2725 0.950 . S
C2752 C2738 1.377 . S
C2752 C2751 1.373 . S
C2753 C2737 1.377 . S
C2753 C2751 1.389 . S
C2753 C2754 1.524 . S
C2754 C2753 1.524 . S
C2754 C2755 1.397 . S
C2754 C2759 1.363 . S
C2755 H2726 0.950 . S
C2755 C2754 1.397 . S
C2755 C2756 1.334 . S
C2756 H2727 0.950 . S
C2756 C2755 1.334 . S
C2756 C2757 1.287 . S
C2757 C2756 1.287 . S
C2757 C2758 1.524 . S
C2757 H2760 0.999 . S
C2758 H2728 0.950 . S
C2758 C2757 1.524 . S
C2758 C2759 1.415 . S
C2759 H2729 0.950 . S
C2759 C2754 1.363 . S
C2759 C2758 1.415 . S
H2760 C2757 0.999 . S
H2761 C2742 0.913 . S
H2762 C2780 0.951 . S
H2763 C2782 0.951 . S
H2764 C2784 0.950 . S
H2765 C2785 0.950 . S
H2766 C2787 0.950 . S
H2767 C2790 0.950 . S
H2768 C2791 0.950 . S
H2769 C2793 0.950 . S
H2770 C2794 0.950 . S
H2771 C2795 0.951 . S
H2772 C2797 0.951 . S
H2773 C2799 0.950 . S
H2774 C2800 0.950 . S
H2775 C2802 0.950 . S
H2776 C2805 0.950 . S
H2777 C2806 0.950 . S
H2778 C2808 0.950 . S
H2779 C2809 0.950 . S
C2780 H2762 0.951 . S
C2780 C2781 1.366 . S
C2780 C2782 1.388 . S
C2781 C2780 1.366 . S
C2781 C2785 1.385 . S
C2782 H2763 0.951 . S
C2782 C2780 1.388 . S
C2782 C2783 1.366 . S
C2783 C2782 1.366 . S
C2783 C2784 1.414 . S
C2783 C2786 1.499 . S
C2784 H2764 0.950 . S
C2784 C2783 1.414 . S
C2784 C2785 1.374 . S
C2785 H2765 0.950 . S
C2785 C2781 1.385 . S
C2785 C2784 1.374 . S
C2786 C2783 1.499 . S
C2786 C2787 1.373 . S
C2786 C2788 1.389 . S
C2787 H2766 0.950 . S
C2787 C2786 1.373 . S
C2787 C2803 1.377 . S
C2788 C2786 1.389 . S
C2788 C2789 1.524 . S
C2788 C2802 1.377 . S
C2789 C2788 1.524 . S
C2789 C2790 1.397 . S
C2789 C2794 1.363 . S
C2790 H2767 0.950 . S
C2790 C2789 1.397 . S
C2790 C2791 1.334 . S
C2791 H2768 0.950 . S
C2791 C2790 1.334 . S
C2791 C2792 1.287 . S
C2792 C2791 1.287 . S
C2792 C2793 1.524 . S
C2792 H2811 0.913 . S
C2793 H2769 0.950 . S
C2793 C2792 1.524 . S
C2793 C2794 1.415 . S
C2794 H2770 0.950 . S
C2794 C2789 1.363 . S
C2794 C2793 1.415 . S
C2795 H2771 0.951 . S
C2795 C2796 1.366 . S
C2795 C2797 1.388 . S
C2796 C2795 1.366 . S
C2796 C2800 1.385 . S
C2797 H2772 0.951 . S
C2797 C2795 1.388 . S
C2797 C2798 1.366 . S
C2798 C2797 1.366 . S
C2798 C2799 1.414 . S
C2798 C2801 1.499 . S
C2799 H2773 0.950 . S
C2799 C2798 1.414 . S
C2799 C2800 1.374 . S
C2800 H2774 0.950 . S
C2800 C2796 1.385 . S
C2800 C2799 1.374 . S
C2801 C2798 1.499 . S
C2801 C2802 1.373 . S
C2801 C2803 1.389 . S
C2802 H2775 0.950 . S
C2802 C2788 1.377 . S
C2802 C2801 1.373 . S
C2803 C2787 1.377 . S
C2803 C2801 1.389 . S
C2803 C2804 1.524 . S
C2804 C2803 1.524 . S
C2804 C2805 1.397 . S
C2804 C2809 1.363 . S
C2805 H2776 0.950 . S
C2805 C2804 1.397 . S
C2805 C2806 1.334 . S
C2806 H2777 0.950 . S
C2806 C2805 1.334 . S
C2806 C2807 1.287 . S
C2807 C2806 1.287 . S
C2807 C2808 1.524 . S
C2807 H2810 0.999 . S
C2808 H2778 0.950 . S
C2808 C2807 1.524 . S
C2808 C2809 1.415 . S
C2809 H2779 0.950 . S
C2809 C2804 1.363 . S
C2809 C2808 1.415 . S
H2810 C2807 0.999 . S
H2811 C2792 0.913 . S
H2812 C2830 0.951 . S
H2813 C2832 0.951 . S
H2814 C2834 0.950 . S
H2815 C2835 0.950 . S
H2816 C2837 0.950 . S
H2817 C2840 0.950 . S
H2818 C2841 0.950 . S
H2819 C2843 0.950 . S
H2820 C2844 0.950 . S
H2821 C2845 0.951 . S
H2822 C2847 0.951 . S
H2823 C2849 0.950 . S
H2824 C2850 0.950 . S
H2825 C2852 0.950 . S
H2826 C2855 0.950 . S
H2827 C2856 0.950 . S
H2828 C2858 0.950 . S
H2829 C2859 0.950 . S
C2830 H2812 0.951 . S
C2830 C2831 1.366 . S
C2830 C2832 1.388 . S
C2831 C2830 1.366 . S
C2831 C2835 1.385 . S
C2832 H2813 0.951 . S
C2832 C2830 1.388 . S
C2832 C2833 1.366 . S
C2833 C2832 1.366 . S
C2833 C2834 1.414 . S
C2833 C2836 1.499 . S
C2834 H2814 0.950 . S
C2834 C2833 1.414 . S
C2834 C2835 1.374 . S
C2835 H2815 0.950 . S
C2835 C2831 1.385 . S
C2835 C2834 1.374 . S
C2836 C2833 1.499 . S
C2836 C2837 1.373 . S
C2836 C2838 1.389 . S
C2837 H2816 0.950 . S
C2837 C2836 1.373 . S
C2837 C2853 1.377 . S
C2838 C2836 1.389 . S
C2838 C2839 1.524 . S
C2838 C2852 1.377 . S
C2839 C2838 1.524 . S
C2839 C2840 1.397 . S
C2839 C2844 1.363 . S
C2840 H2817 0.950 . S
C2840 C2839 1.397 . S
C2840 C2841 1.334 . S
C2841 H2818 0.950 . S
C2841 C2840 1.334 . S
C2841 C2842 1.287 . S
C2842 C2841 1.287 . S
C2842 C2843 1.524 . S
C2842 H2861 0.913 . S
C2843 H2819 0.950 . S
C2843 C2842 1.524 . S
C2843 C2844 1.415 . S
C2844 H2820 0.950 . S
C2844 C2839 1.363 . S
C2844 C2843 1.415 . S
C2845 H2821 0.951 . S
C2845 C2846 1.366 . S
C2845 C2847 1.388 . S
C2846 C2845 1.366 . S
C2846 C2850 1.385 . S
C2847 H2822 0.951 . S
C2847 C2845 1.388 . S
C2847 C2848 1.366 . S
C2848 C2847 1.366 . S
C2848 C2849 1.414 . S
C2848 C2851 1.499 . S
C2849 H2823 0.950 . S
C2849 C2848 1.414 . S
C2849 C2850 1.374 . S
C2850 H2824 0.950 . S
C2850 C2846 1.385 . S
C2850 C2849 1.374 . S
C2851 C2848 1.499 . S
C2851 C2852 1.373 . S
C2851 C2853 1.389 . S
C2852 H2825 0.950 . S
C2852 C2838 1.377 . S
C2852 C2851 1.373 . S
C2853 C2837 1.377 . S
C2853 C2851 1.389 . S
C2853 C2854 1.524 . S
C2854 C2853 1.524 . S
C2854 C2855 1.397 . S
C2854 C2859 1.363 . S
C2855 H2826 0.950 . S
C2855 C2854 1.397 . S
C2855 C2856 1.334 . S
C2856 H2827 0.950 . S
C2856 C2855 1.334 . S
C2856 C2857 1.287 . S
C2857 C2856 1.287 . S
C2857 C2858 1.524 . S
C2857 H2860 0.999 . S
C2858 H2828 0.950 . S
C2858 C2857 1.524 . S
C2858 C2859 1.415 . S
C2859 H2829 0.950 . S
C2859 C2854 1.363 . S
C2859 C2858 1.415 . S
H2860 C2857 0.999 . S
H2861 C2842 0.913 . S
H2862 C2880 0.951 . S
H2863 C2882 0.951 . S
H2864 C2884 0.950 . S
H2865 C2885 0.950 . S
H2866 C2887 0.950 . S
H2867 C2890 0.950 . S
H2868 C2891 0.950 . S
H2869 C2893 0.950 1_556 S
H2870 C2894 0.950 . S
H2871 C2895 0.951 . S
H2872 C2897 0.951 . S
H2873 C2899 0.950 . S
H2874 C2900 0.950 . S
H2875 C2902 0.950 . S
H2876 C2905 0.950 . S
H2877 C2906 0.950 . S
H2878 C2908 0.950 . S
H2879 C2909 0.950 . S
C2880 H2862 0.951 . S
C2880 C2881 1.366 . S
C2880 C2882 1.388 . S
C2881 C2880 1.366 . S
C2881 C2885 1.385 . S
C2882 H2863 0.951 . S
C2882 C2880 1.388 . S
C2882 C2883 1.366 . S
C2883 C2882 1.366 . S
C2883 C2884 1.414 . S
C2883 C2886 1.499 . S
C2884 H2864 0.950 . S
C2884 C2883 1.414 . S
C2884 C2885 1.374 . S
C2885 H2865 0.950 . S
C2885 C2881 1.385 . S
C2885 C2884 1.374 . S
C2886 C2883 1.499 . S
C2886 C2887 1.373 . S
C2886 C2888 1.389 . S
C2887 H2866 0.950 . S
C2887 C2886 1.373 . S
C2887 C2903 1.377 . S
C2888 C2886 1.389 . S
C2888 C2889 1.524 . S
C2888 C2902 1.377 . S
C2889 C2888 1.524 . S
C2889 C2890 1.397 . S
C2889 C2894 1.363 . S
C2890 H2867 0.950 . S
C2890 C2889 1.397 . S
C2890 C2891 1.334 . S
C2891 H2868 0.950 . S
C2891 C2890 1.334 . S
C2891 C2892 1.287 . S
C2892 C2891 1.287 . S
C2892 C2893 1.524 . S
C2892 H2911 0.913 1_554 S
C2893 H2869 0.950 1_554 S
C2893 C2892 1.524 . S
C2893 C2894 1.415 . S
C2894 H2870 0.950 . S
C2894 C2889 1.363 . S
C2894 C2893 1.415 . S
C2895 H2871 0.951 . S
C2895 C2896 1.366 . S
C2895 C2897 1.388 . S
C2896 C2895 1.366 . S
C2896 C2900 1.385 . S
C2897 H2872 0.951 . S
C2897 C2895 1.388 . S
C2897 C2898 1.366 . S
C2898 C2897 1.366 . S
C2898 C2899 1.414 . S
C2898 C2901 1.499 . S
C2899 H2873 0.950 . S
C2899 C2898 1.414 . S
C2899 C2900 1.374 . S
C2900 H2874 0.950 . S
C2900 C2896 1.385 . S
C2900 C2899 1.374 . S
C2901 C2898 1.499 . S
C2901 C2902 1.373 . S
C2901 C2903 1.389 . S
C2902 H2875 0.950 . S
C2902 C2888 1.377 . S
C2902 C2901 1.373 . S
C2903 C2887 1.377 . S
C2903 C2901 1.389 . S
C2903 C2904 1.524 . S
C2904 C2903 1.524 . S
C2904 C2905 1.397 . S
C2904 C2909 1.363 . S
C2905 H2876 0.950 . S
C2905 C2904 1.397 . S
C2905 C2906 1.334 . S
C2906 H2877 0.950 . S
C2906 C2905 1.334 . S
C2906 C2907 1.287 . S
C2907 C2906 1.287 . S
C2907 C2908 1.524 . S
C2907 H2910 0.999 . S
C2908 H2878 0.950 . S
C2908 C2907 1.524 . S
C2908 C2909 1.415 . S
C2909 H2879 0.950 . S
C2909 C2904 1.363 . S
C2909 C2908 1.415 . S
H2910 C2907 0.999 . S
H2911 C2892 0.913 1_556 S
H2912 C2930 0.951 . S
H2913 C2932 0.951 . S
H2914 C2934 0.950 . S
H2915 C2935 0.950 . S
H2916 C2937 0.950 . S
H2917 C2940 0.950 . S
H2918 C2941 0.950 1_556 S
H2919 C2943 0.950 1_556 S
H2920 C2944 0.950 . S
H2921 C2945 0.951 . S
H2922 C2947 0.951 . S
H2923 C2949 0.950 . S
H2924 C2950 0.950 . S
H2925 C2952 0.950 . S
H2926 C2955 0.950 . S
H2927 C2956 0.950 . S
H2928 C2958 0.950 . S
H2929 C2959 0.950 . S
C2930 H2912 0.951 . S
C2930 C2931 1.366 . S
C2930 C2932 1.388 . S
C2931 C2930 1.366 . S
C2931 C2935 1.385 . S
C2932 H2913 0.951 . S
C2932 C2930 1.388 . S
C2932 C2933 1.366 . S
C2933 C2932 1.366 . S
C2933 C2934 1.414 . S
C2933 C2936 1.499 . S
C2934 H2914 0.950 . S
C2934 C2933 1.414 . S
C2934 C2935 1.374 . S
C2935 H2915 0.950 . S
C2935 C2931 1.385 . S
C2935 C2934 1.374 . S
C2936 C2933 1.499 . S
C2936 C2937 1.373 . S
C2936 C2938 1.389 . S
C2937 H2916 0.950 . S
C2937 C2936 1.373 . S
C2937 C2953 1.377 . S
C2938 C2936 1.389 . S
C2938 C2939 1.524 . S
C2938 C2952 1.377 . S
C2939 C2938 1.524 . S
C2939 C2940 1.397 . S
C2939 C2944 1.363 . S
C2940 H2917 0.950 . S
C2940 C2939 1.397 . S
C2940 C2941 1.334 . S
C2941 H2918 0.950 1_554 S
C2941 C2940 1.334 . S
C2941 C2942 1.287 1_554 S
C2942 C2941 1.287 1_556 S
C2942 C2943 1.524 1_556 S
C2942 H2961 0.913 . S
C2943 H2919 0.950 1_554 S
C2943 C2942 1.524 1_554 S
C2943 C2944 1.415 . S
C2944 H2920 0.950 . S
C2944 C2939 1.363 . S
C2944 C2943 1.415 . S
C2945 H2921 0.951 . S
C2945 C2946 1.366 . S
C2945 C2947 1.388 . S
C2946 C2945 1.366 . S
C2946 C2950 1.385 . S
C2947 H2922 0.951 . S
C2947 C2945 1.388 . S
C2947 C2948 1.366 . S
C2948 C2947 1.366 . S
C2948 C2949 1.414 . S
C2948 C2951 1.499 . S
C2949 H2923 0.950 . S
C2949 C2948 1.414 . S
C2949 C2950 1.374 . S
C2950 H2924 0.950 . S
C2950 C2946 1.385 . S
C2950 C2949 1.374 . S
C2951 C2948 1.499 . S
C2951 C2952 1.373 . S
C2951 C2953 1.389 . S
C2952 H2925 0.950 . S
C2952 C2938 1.377 . S
C2952 C2951 1.373 . S
C2953 C2937 1.377 . S
C2953 C2951 1.389 . S
C2953 C2954 1.524 . S
C2954 C2953 1.524 . S
C2954 C2955 1.397 . S
C2954 C2959 1.363 . S
C2955 H2926 0.950 . S
C2955 C2954 1.397 . S
C2955 C2956 1.334 . S
C2956 H2927 0.950 . S
C2956 C2955 1.334 . S
C2956 C2957 1.287 . S
C2957 C2956 1.287 . S
C2957 C2958 1.524 . S
C2957 H2960 0.999 . S
C2958 H2928 0.950 . S
C2958 C2957 1.524 . S
C2958 C2959 1.415 . S
C2959 H2929 0.950 . S
C2959 C2954 1.363 . S
C2959 C2958 1.415 . S
H2960 C2957 0.999 . S
H2961 C2942 0.913 . S
H2962 C2980 0.951 . S
H2963 C2982 0.951 . S
H2964 C2984 0.950 . S
H2965 C2985 0.950 . S
H2966 C2987 0.950 . S
H2967 C2990 0.950 . S
H2968 C2991 0.950 . S
H2969 C2993 0.950 . S
H2970 C2994 0.950 . S
H2971 C2995 0.951 . S
H2972 C2997 0.951 . S
H2973 C2999 0.950 . S
H2974 C3000 0.950 . S
H2975 C3002 0.950 . S
H2976 C3005 0.950 . S
H2977 C3006 0.950 . S
H2978 C3008 0.950 . S
H2979 C3009 0.950 . S
C2980 H2962 0.951 . S
C2980 C2981 1.366 . S
C2980 C2982 1.388 . S
C2981 C2980 1.366 . S
C2981 C2985 1.385 . S
C2982 H2963 0.951 . S
C2982 C2980 1.388 . S
C2982 C2983 1.366 . S
C2983 C2982 1.366 . S
C2983 C2984 1.414 . S
C2983 C2986 1.499 . S
C2984 H2964 0.950 . S
C2984 C2983 1.414 . S
C2984 C2985 1.374 . S
C2985 H2965 0.950 . S
C2985 C2981 1.385 . S
C2985 C2984 1.374 . S
C2986 C2983 1.499 . S
C2986 C2987 1.373 . S
C2986 C2988 1.389 . S
C2987 H2966 0.950 . S
C2987 C2986 1.373 . S
C2987 C3003 1.377 . S
C2988 C2986 1.389 . S
C2988 C2989 1.524 . S
C2988 C3002 1.377 . S
C2989 C2988 1.524 . S
C2989 C2990 1.397 . S
C2989 C2994 1.363 . S
C2990 H2967 0.950 . S
C2990 C2989 1.397 . S
C2990 C2991 1.334 . S
C2991 H2968 0.950 . S
C2991 C2990 1.334 . S
C2991 C2992 1.287 . S
C2992 C2991 1.287 . S
C2992 C2993 1.524 . S
C2992 H3011 0.913 . S
C2993 H2969 0.950 . S
C2993 C2992 1.524 . S
C2993 C2994 1.415 . S
C2994 H2970 0.950 . S
C2994 C2989 1.363 . S
C2994 C2993 1.415 . S
C2995 H2971 0.951 . S
C2995 C2996 1.366 . S
C2995 C2997 1.388 . S
C2996 C2995 1.366 . S
C2996 C3000 1.385 . S
C2997 H2972 0.951 . S
C2997 C2995 1.388 . S
C2997 C2998 1.366 . S
C2998 C2997 1.366 . S
C2998 C2999 1.414 . S
C2998 C3001 1.499 . S
C2999 H2973 0.950 . S
C2999 C2998 1.414 . S
C2999 C3000 1.374 . S
C3000 H2974 0.950 . S
C3000 C2996 1.385 . S
C3000 C2999 1.374 . S
C3001 C2998 1.499 . S
C3001 C3002 1.373 . S
C3001 C3003 1.389 . S
C3002 H2975 0.950 . S
C3002 C2988 1.377 . S
C3002 C3001 1.373 . S
C3003 C2987 1.377 . S
C3003 C3001 1.389 . S
C3003 C3004 1.524 . S
C3004 C3003 1.524 . S
C3004 C3005 1.397 . S
C3004 C3009 1.363 . S
C3005 H2976 0.950 . S
C3005 C3004 1.397 . S
C3005 C3006 1.334 . S
C3006 H2977 0.950 . S
C3006 C3005 1.334 . S
C3006 C3007 1.287 . S
C3007 C3006 1.287 . S
C3007 C3008 1.524 . S
C3007 H3010 0.999 . S
C3008 H2978 0.950 . S
C3008 C3007 1.524 . S
C3008 C3009 1.415 . S
C3009 H2979 0.950 . S
C3009 C3004 1.363 . S
C3009 C3008 1.415 . S
H3010 C3007 0.999 . S
H3011 C2992 0.913 . S
H3012 C3030 0.951 1_554 S
H3013 C3032 0.951 . S
H3014 C3034 0.950 . S
H3015 C3035 0.950 . S
H3016 C3037 0.950 . S
H3017 C3040 0.950 . S
H3018 C3041 0.950 . S
H3019 C3043 0.950 . S
H3020 C3044 0.950 1_556 S
H3021 C3045 0.951 . S
H3022 C3047 0.951 . S
H3023 C3049 0.950 . S
H3024 C3050 0.950 . S
H3025 C3052 0.950 . S
H3026 C3055 0.950 . S
H3027 C3056 0.950 . S
H3028 C3058 0.950 . S
H3029 C3059 0.950 . S
C3030 H3012 0.951 1_556 S
C3030 C3031 1.366 . S
C3030 C3032 1.388 . S
C3031 C3030 1.366 . S
C3031 C3035 1.385 . S
C3032 H3013 0.951 . S
C3032 C3030 1.388 . S
C3032 C3033 1.366 . S
C3033 C3032 1.366 . S
C3033 C3034 1.414 . S
C3033 C3036 1.499 . S
C3034 H3014 0.950 . S
C3034 C3033 1.414 . S
C3034 C3035 1.374 . S
C3035 H3015 0.950 . S
C3035 C3031 1.385 . S
C3035 C3034 1.374 . S
C3036 C3033 1.499 . S
C3036 C3037 1.373 . S
C3036 C3038 1.389 . S
C3037 H3016 0.950 . S
C3037 C3036 1.373 . S
C3037 C3053 1.377 . S
C3038 C3036 1.389 . S
C3038 C3039 1.524 . S
C3038 C3052 1.377 . S
C3039 C3038 1.524 . S
C3039 C3040 1.397 . S
C3039 C3044 1.363 1_556 S
C3040 H3017 0.950 . S
C3040 C3039 1.397 . S
C3040 C3041 1.334 1_556 S
C3041 H3018 0.950 . S
C3041 C3040 1.334 1_554 S
C3041 C3042 1.287 . S
C3042 C3041 1.287 . S
C3042 C3043 1.524 . S
C3042 H3061 0.913 . S
C3043 H3019 0.950 . S
C3043 C3042 1.524 . S
C3043 C3044 1.415 . S
C3044 H3020 0.950 1_554 S
C3044 C3039 1.363 1_554 S
C3044 C3043 1.415 . S
C3045 H3021 0.951 . S
C3045 C3046 1.366 . S
C3045 C3047 1.388 . S
C3046 C3045 1.366 . S
C3046 C3050 1.385 . S
C3047 H3022 0.951 . S
C3047 C3045 1.388 . S
C3047 C3048 1.366 . S
C3048 C3047 1.366 . S
C3048 C3049 1.414 . S
C3048 C3051 1.499 . S
C3049 H3023 0.950 . S
C3049 C3048 1.414 . S
C3049 C3050 1.374 . S
C3050 H3024 0.950 . S
C3050 C3046 1.385 . S
C3050 C3049 1.374 . S
C3051 C3048 1.499 . S
C3051 C3052 1.373 . S
C3051 C3053 1.389 . S
C3052 H3025 0.950 . S
C3052 C3038 1.377 . S
C3052 C3051 1.373 . S
C3053 C3037 1.377 . S
C3053 C3051 1.389 . S
C3053 C3054 1.524 . S
C3054 C3053 1.524 . S
C3054 C3055 1.397 . S
C3054 C3059 1.363 . S
C3055 H3026 0.950 . S
C3055 C3054 1.397 . S
C3055 C3056 1.334 . S
C3056 H3027 0.950 . S
C3056 C3055 1.334 . S
C3056 C3057 1.287 . S
C3057 C3056 1.287 . S
C3057 C3058 1.524 . S
C3057 H3060 0.999 . S
C3058 H3028 0.950 . S
C3058 C3057 1.524 . S
C3058 C3059 1.415 . S
C3059 H3029 0.950 . S
C3059 C3054 1.363 . S
C3059 C3058 1.415 . S
H3060 C3057 0.999 . S
H3061 C3042 0.913 . S
H3062 C3080 0.951 . S
H3063 C3082 0.951 . S
H3064 C3084 0.950 . S
H3065 C3085 0.950 1_554 S
H3066 C3087 0.950 . S
H3067 C3090 0.950 . S
H3068 C3091 0.950 1_554 S
H3069 C3093 0.950 . S
H3070 C3094 0.950 . S
H3071 C3095 0.951 . S
H3072 C3097 0.951 . S
H3073 C3099 0.950 . S
H3074 C3100 0.950 . S
H3075 C3102 0.950 . S
H3076 C3105 0.950 . S
H3077 C3106 0.950 . S
H3078 C3108 0.950 . S
H3079 C3109 0.950 . S
C3080 H3062 0.951 . S
C3080 C3081 1.366 . S
C3080 C3082 1.388 . S
C3081 C3080 1.366 . S
C3081 C3085 1.385 . S
C3082 H3063 0.951 . S
C3082 C3080 1.388 . S
C3082 C3083 1.366 . S
C3083 C3082 1.366 . S
C3083 C3084 1.414 . S
C3083 C3086 1.499 . S
C3084 H3064 0.950 . S
C3084 C3083 1.414 . S
C3084 C3085 1.374 . S
C3085 H3065 0.950 1_556 S
C3085 C3081 1.385 . S
C3085 C3084 1.374 . S
C3086 C3083 1.499 . S
C3086 C3087 1.373 . S
C3086 C3088 1.389 . S
C3087 H3066 0.950 . S
C3087 C3086 1.373 . S
C3087 C3103 1.377 . S
C3088 C3086 1.389 . S
C3088 C3089 1.524 . S
C3088 C3102 1.377 . S
C3089 C3088 1.524 . S
C3089 C3090 1.397 . S
C3089 C3094 1.363 . S
C3090 H3067 0.950 . S
C3090 C3089 1.397 . S
C3090 C3091 1.334 . S
C3091 H3068 0.950 1_556 S
C3091 C3090 1.334 . S
C3091 C3092 1.287 . S
C3092 C3091 1.287 . S
C3092 C3093 1.524 . S
C3092 H3111 0.913 . S
C3093 H3069 0.950 . S
C3093 C3092 1.524 . S
C3093 C3094 1.415 . S
C3094 H3070 0.950 . S
C3094 C3089 1.363 . S
C3094 C3093 1.415 . S
C3095 H3071 0.951 . S
C3095 C3096 1.366 . S
C3095 C3097 1.388 . S
C3096 C3095 1.366 . S
C3096 C3100 1.385 . S
C3097 H3072 0.951 . S
C3097 C3095 1.388 . S
C3097 C3098 1.366 . S
C3098 C3097 1.366 . S
C3098 C3099 1.414 . S
C3098 C3101 1.499 . S
C3099 H3073 0.950 . S
C3099 C3098 1.414 . S
C3099 C3100 1.374 . S
C3100 H3074 0.950 . S
C3100 C3096 1.385 . S
C3100 C3099 1.374 . S
C3101 C3098 1.499 . S
C3101 C3102 1.373 . S
C3101 C3103 1.389 . S
C3102 H3075 0.950 . S
C3102 C3088 1.377 . S
C3102 C3101 1.373 . S
C3103 C3087 1.377 . S
C3103 C3101 1.389 . S
C3103 C3104 1.524 . S
C3104 C3103 1.524 . S
C3104 C3105 1.397 . S
C3104 C3109 1.363 . S
C3105 H3076 0.950 . S
C3105 C3104 1.397 . S
C3105 C3106 1.334 . S
C3106 H3077 0.950 . S
C3106 C3105 1.334 . S
C3106 C3107 1.287 . S
C3107 C3106 1.287 . S
C3107 C3108 1.524 . S
C3107 H3110 0.999 . S
C3108 H3078 0.950 . S
C3108 C3107 1.524 . S
C3108 C3109 1.415 . S
C3109 H3079 0.950 . S
C3109 C3104 1.363 . S
C3109 C3108 1.415 . S
H3110 C3107 0.999 . S
H3111 C3092 0.913 . S
H3112 C3130 0.951 . S
H3113 C3132 0.951 . S
H3114 C3134 0.950 . S
H3115 C3135 0.950 1_554 S
H3116 C3137 0.950 . S
H3117 C3140 0.950 . S
H3118 C3141 0.950 . S
H3119 C3143 0.950 . S
H3120 C3144 0.950 . S
H3121 C3145 0.951 . S
H3122 C3147 0.951 . S
H3123 C3149 0.950 . S
H3124 C3150 0.950 . S
H3125 C3152 0.950 . S
H3126 C3155 0.950 . S
H3127 C3156 0.950 . S
H3128 C3158 0.950 . S
H3129 C3159 0.950 . S
C3130 H3112 0.951 . S
C3130 C3131 1.366 . S
C3130 C3132 1.388 . S
C3131 C3130 1.366 . S
C3131 C3135 1.385 . S
C3132 H3113 0.951 . S
C3132 C3130 1.388 . S
C3132 C3133 1.366 . S
C3133 C3132 1.366 . S
C3133 C3134 1.414 . S
C3133 C3136 1.499 . S
C3134 H3114 0.950 . S
C3134 C3133 1.414 . S
C3134 C3135 1.374 . S
C3135 H3115 0.950 1_556 S
C3135 C3131 1.385 . S
C3135 C3134 1.374 . S
C3136 C3133 1.499 . S
C3136 C3137 1.373 . S
C3136 C3138 1.389 . S
C3137 H3116 0.950 . S
C3137 C3136 1.373 . S
C3137 C3153 1.377 . S
C3138 C3136 1.389 . S
C3138 C3139 1.524 . S
C3138 C3152 1.377 . S
C3139 C3138 1.524 . S
C3139 C3140 1.397 . S
C3139 C3144 1.363 . S
C3140 H3117 0.950 . S
C3140 C3139 1.397 . S
C3140 C3141 1.334 . S
C3141 H3118 0.950 . S
C3141 C3140 1.334 . S
C3141 C3142 1.287 . S
C3142 C3141 1.287 . S
C3142 C3143 1.524 . S
C3142 H3161 0.913 . S
C3143 H3119 0.950 . S
C3143 C3142 1.524 . S
C3143 C3144 1.415 . S
C3144 H3120 0.950 . S
C3144 C3139 1.363 . S
C3144 C3143 1.415 . S
C3145 H3121 0.951 . S
C3145 C3146 1.366 . S
C3145 C3147 1.388 . S
C3146 C3145 1.366 . S
C3146 C3150 1.385 . S
C3147 H3122 0.951 . S
C3147 C3145 1.388 . S
C3147 C3148 1.366 . S
C3148 C3147 1.366 . S
C3148 C3149 1.414 . S
C3148 C3151 1.499 . S
C3149 H3123 0.950 . S
C3149 C3148 1.414 . S
C3149 C3150 1.374 . S
C3150 H3124 0.950 . S
C3150 C3146 1.385 . S
C3150 C3149 1.374 . S
C3151 C3148 1.499 . S
C3151 C3152 1.373 . S
C3151 C3153 1.389 . S
C3152 H3125 0.950 . S
C3152 C3138 1.377 . S
C3152 C3151 1.373 . S
C3153 C3137 1.377 . S
C3153 C3151 1.389 . S
C3153 C3154 1.524 . S
C3154 C3153 1.524 . S
C3154 C3155 1.397 . S
C3154 C3159 1.363 . S
C3155 H3126 0.950 . S
C3155 C3154 1.397 . S
C3155 C3156 1.334 . S
C3156 H3127 0.950 . S
C3156 C3155 1.334 . S
C3156 C3157 1.287 . S
C3157 C3156 1.287 . S
C3157 C3158 1.524 . S
C3157 H3160 0.999 . S
C3158 H3128 0.950 . S
C3158 C3157 1.524 . S
C3158 C3159 1.415 . S
C3159 H3129 0.950 . S
C3159 C3154 1.363 . S
C3159 C3158 1.415 . S
H3160 C3157 0.999 . S
H3161 C3142 0.913 . S
H3162 C3180 0.951 1_554 S
H3163 C3182 0.951 . S
H3164 C3184 0.950 . S
H3165 C3185 0.950 . S
H3166 C3187 0.950 . S
H3167 C3190 0.950 . S
H3168 C3191 0.945 1_554 S
H3169 C3193 0.950 . S
H3170 C3194 0.950 . S
H3171 C3195 0.951 . S
H3172 C3197 0.951 . S
H3173 C3199 0.950 . S
H3174 C3200 0.950 . S
H3175 C3202 0.950 . S
H3176 C3205 0.950 . S
H3177 C3206 0.950 . S
H3178 C3208 0.950 . S
H3179 C3209 0.950 . S
C3180 H3162 0.951 1_556 S
C3180 C3181 1.366 . S
C3180 C3182 1.388 . S
C3181 C3180 1.366 . S
C3181 C3185 1.385 . S
C3182 H3163 0.951 . S
C3182 C3180 1.388 . S
C3182 C3183 1.366 . S
C3183 C3182 1.366 . S
C3183 C3184 1.414 . S
C3183 C3186 1.499 . S
C3184 H3164 0.950 . S
C3184 C3183 1.414 . S
C3184 C3185 1.374 . S
C3185 H3165 0.950 . S
C3185 C3181 1.385 . S
C3185 C3184 1.374 . S
C3186 C3183 1.499 . S
C3186 C3187 1.373 . S
C3186 C3188 1.389 . S
C3187 H3166 0.950 . S
C3187 C3186 1.373 . S
C3187 C3203 1.377 . S
C3188 C3186 1.389 . S
C3188 C3189 1.524 . S
C3188 C3202 1.377 . S
C3189 C3188 1.524 . S
C3189 C3190 1.397 . S
C3189 C3194 1.363 . S
C3190 H3167 0.950 . S
C3190 C3189 1.397 . S
C3190 C3191 1.337 . S
C3191 H3168 0.945 1_556 S
C3191 C3190 1.337 . S
C3191 C3192 1.284 1_556 S
C3192 C3191 1.284 1_554 S
C3192 C3193 1.524 . S
C3192 H3211 0.913 . S
C3193 H3169 0.950 . S
C3193 C3192 1.524 . S
C3193 C3194 1.415 1_554 S
C3194 H3170 0.950 . S
C3194 C3189 1.363 . S
C3194 C3193 1.415 1_556 S
C3195 H3171 0.951 . S
C3195 C3196 1.366 . S
C3195 C3197 1.388 . S
C3196 C3195 1.366 . S
C3196 C3200 1.385 . S
C3197 H3172 0.951 . S
C3197 C3195 1.388 . S
C3197 C3198 1.366 . S
C3198 C3197 1.366 . S
C3198 C3199 1.414 . S
C3198 C3201 1.499 . S
C3199 H3173 0.950 . S
C3199 C3198 1.414 . S
C3199 C3200 1.374 . S
C3200 H3174 0.950 . S
C3200 C3196 1.385 . S
C3200 C3199 1.374 . S
C3201 C3198 1.499 . S
C3201 C3202 1.373 . S
C3201 C3203 1.389 . S
C3202 H3175 0.950 . S
C3202 C3188 1.377 . S
C3202 C3201 1.373 . S
C3203 C3187 1.377 . S
C3203 C3201 1.389 . S
C3203 C3204 1.524 . S
C3204 C3203 1.524 . S
C3204 C3205 1.397 . S
C3204 C3209 1.363 . S
C3205 H3176 0.950 . S
C3205 C3204 1.397 . S
C3205 C3206 1.334 . S
C3206 H3177 0.950 . S
C3206 C3205 1.334 . S
C3206 C3207 1.287 . S
C3207 C3206 1.287 . S
C3207 C3208 1.524 . S
C3207 H3210 0.999 . S
C3208 H3178 0.950 . S
C3208 C3207 1.524 . S
C3208 C3209 1.415 . S
C3209 H3179 0.950 . S
C3209 C3204 1.363 . S
C3209 C3208 1.415 . S
H3210 C3207 0.999 . S
H3211 C3192 0.913 . S
H3212 C3230 0.951 . S
H3213 C3232 0.951 . S
H3214 C3234 0.950 . S
H3215 C3235 0.950 . S
H3216 C3237 0.950 . S
H3217 C3240 0.950 . S
H3218 C3241 0.950 . S
H3219 C3243 0.950 . S
H3220 C3244 0.950 . S
H3221 C3245 0.951 . S
H3222 C3247 0.951 . S
H3223 C3249 0.950 . S
H3224 C3250 0.950 . S
H3225 C3252 0.950 . S
H3226 C3255 0.950 . S
H3227 C3256 0.950 . S
H3228 C3258 0.950 . S
H3229 C3259 0.950 . S
C3230 H3212 0.951 . S
C3230 C3231 1.366 . S
C3230 C3232 1.388 . S
C3231 C3230 1.366 . S
C3231 C3235 1.385 . S
C3232 H3213 0.951 . S
C3232 C3230 1.388 . S
C3232 C3233 1.366 . S
C3233 C3232 1.366 . S
C3233 C3234 1.414 . S
C3233 C3236 1.499 . S
C3234 H3214 0.950 . S
C3234 C3233 1.414 . S
C3234 C3235 1.374 . S
C3235 H3215 0.950 . S
C3235 C3231 1.385 . S
C3235 C3234 1.374 . S
C3236 C3233 1.499 . S
C3236 C3237 1.373 . S
C3236 C3238 1.389 . S
C3237 H3216 0.950 . S
C3237 C3236 1.373 . S
C3237 C3253 1.377 . S
C3238 C3236 1.389 . S
C3238 C3239 1.524 . S
C3238 C3252 1.377 . S
C3239 C3238 1.524 . S
C3239 C3240 1.397 . S
C3239 C3244 1.363 . S
C3240 H3217 0.950 . S
C3240 C3239 1.397 . S
C3240 C3241 1.334 1_556 S
C3241 H3218 0.950 . S
C3241 C3240 1.334 1_554 S
C3241 C3242 1.287 1_554 S
C3242 C3241 1.287 1_556 S
C3242 C3243 1.524 . S
C3242 H3261 0.913 1_556 S
C3243 H3219 0.950 . S
C3243 C3242 1.524 . S
C3243 C3244 1.415 . S
C3244 H3220 0.950 . S
C3244 C3239 1.363 . S
C3244 C3243 1.415 . S
C3245 H3221 0.951 . S
C3245 C3246 1.366 . S
C3245 C3247 1.388 . S
C3246 C3245 1.366 . S
C3246 C3250 1.385 . S
C3247 H3222 0.951 . S
C3247 C3245 1.388 . S
C3247 C3248 1.366 . S
C3248 C3247 1.366 . S
C3248 C3249 1.414 . S
C3248 C3251 1.499 . S
C3249 H3223 0.950 . S
C3249 C3248 1.414 . S
C3249 C3250 1.374 . S
C3250 H3224 0.950 . S
C3250 C3246 1.385 . S
C3250 C3249 1.374 . S
C3251 C3248 1.499 . S
C3251 C3252 1.373 . S
C3251 C3253 1.389 . S
C3252 H3225 0.950 . S
C3252 C3238 1.377 . S
C3252 C3251 1.373 . S
C3253 C3237 1.377 . S
C3253 C3251 1.389 . S
C3253 C3254 1.524 . S
C3254 C3253 1.524 . S
C3254 C3255 1.397 . S
C3254 C3259 1.363 . S
C3255 H3226 0.950 . S
C3255 C3254 1.397 . S
C3255 C3256 1.334 . S
C3256 H3227 0.950 . S
C3256 C3255 1.334 . S
C3256 C3257 1.287 . S
C3257 C3256 1.287 . S
C3257 C3258 1.524 . S
C3257 H3260 0.999 . S
C3258 H3228 0.950 . S
C3258 C3257 1.524 . S
C3258 C3259 1.415 . S
C3259 H3229 0.950 . S
C3259 C3254 1.363 . S
C3259 C3258 1.415 . S
H3260 C3257 0.999 . S
H3261 C3242 0.913 1_554 S
H3262 C3280 0.890 1_554 S
H3263 C3282 0.951 . S
H3264 C3284 0.950 . S
H3265 C3285 0.950 . S
H3266 C3287 0.950 . S
H3267 C3290 0.950 . S
H3268 C3291 0.950 . S
H3269 C3293 0.950 . S
H3270 C3294 0.950 . S
H3271 C3295 0.951 . S
H3272 C3297 0.951 . S
H3273 C3299 0.950 . S
H3274 C3300 0.950 . S
H3275 C3302 0.950 . S
H3276 C3305 0.950 . S
H3277 C3306 0.950 . S
H3278 C3308 0.950 . S
H3279 C3309 0.950 . S
C3280 H3262 0.890 1_556 S
C3280 C3281 1.397 . S
C3280 C3282 1.418 . S
C3281 C3280 1.397 . S
C3281 C3285 1.385 . S
C3282 H3263 0.951 . S
C3282 C3280 1.418 . S
C3282 C3283 1.366 . S
C3283 C3282 1.366 . S
C3283 C3284 1.414 . S
C3283 C3286 1.499 . S
C3284 H3264 0.950 . S
C3284 C3283 1.414 . S
C3284 C3285 1.374 . S
C3285 H3265 0.950 . S
C3285 C3281 1.385 . S
C3285 C3284 1.374 . S
C3286 C3283 1.499 . S
C3286 C3287 1.373 . S
C3286 C3288 1.389 . S
C3287 H3266 0.950 . S
C3287 C3286 1.373 . S
C3287 C3303 1.377 . S
C3288 C3286 1.389 . S
C3288 C3289 1.524 . S
C3288 C3302 1.377 . S
C3289 C3288 1.524 . S
C3289 C3290 1.397 . S
C3289 C3294 1.363 . S
C3290 H3267 0.950 . S
C3290 C3289 1.397 . S
C3290 C3291 1.334 . S
C3291 H3268 0.950 . S
C3291 C3290 1.334 . S
C3291 C3292 1.287 1_556 S
C3292 C3291 1.287 1_554 S
C3292 C3293 1.524 . S
C3292 H3311 0.913 . S
C3293 H3269 0.950 . S
C3293 C3292 1.524 . S
C3293 C3294 1.415 1_554 S
C3294 H3270 0.950 . S
C3294 C3289 1.363 . S
C3294 C3293 1.415 1_556 S
C3295 H3271 0.951 . S
C3295 C3296 1.366 . S
C3295 C3297 1.388 . S
C3296 C3295 1.366 . S
C3296 C3300 1.385 . S
C3297 H3272 0.951 . S
C3297 C3295 1.388 . S
C3297 C3298 1.366 . S
C3298 C3297 1.366 . S
C3298 C3299 1.414 . S
C3298 C3301 1.499 . S
C3299 H3273 0.950 . S
C3299 C3298 1.414 . S
C3299 C3300 1.374 . S
C3300 H3274 0.950 . S
C3300 C3296 1.385 . S
C3300 C3299 1.374 . S
C3301 C3298 1.499 . S
C3301 C3302 1.373 . S
C3301 C3303 1.389 . S
C3302 H3275 0.950 . S
C3302 C3288 1.377 . S
C3302 C3301 1.373 . S
C3303 C3287 1.377 . S
C3303 C3301 1.389 . S
C3303 C3304 1.524 . S
C3304 C3303 1.524 . S
C3304 C3305 1.397 . S
C3304 C3309 1.363 . S
C3305 H3276 0.950 . S
C3305 C3304 1.397 . S
C3305 C3306 1.334 . S
C3306 H3277 0.950 . S
C3306 C3305 1.334 . S
C3306 C3307 1.287 . S
C3307 C3306 1.287 . S
C3307 C3308 1.524 . S
C3307 H3310 0.999 . S
C3308 H3278 0.950 . S
C3308 C3307 1.524 . S
C3308 C3309 1.415 . S
C3309 H3279 0.950 . S
C3309 C3304 1.363 . S
C3309 C3308 1.415 . S
H3310 C3307 0.999 . S
H3311 C3292 0.913 . S
H3312 C3330 0.951 . S
H3313 C3332 0.951 . S
H3314 C3334 0.950 . S
H3315 C3335 0.950 . S
H3316 C3337 0.950 . S
H3317 C3340 0.950 . S
H3318 C3341 0.950 . S
H3319 C3343 0.929 1_556 S
H3320 C3344 0.950 . S
H3321 C3345 0.951 . S
H3322 C3347 0.951 . S
H3323 C3349 0.950 . S
H3324 C3350 0.950 . S
H3325 C3352 0.950 . S
H3326 C3355 0.950 . S
H3327 C3356 0.950 . S
H3328 C3358 0.950 . S
H3329 C3359 0.950 . S
C3330 H3312 0.951 . S
C3330 C3331 1.366 . S
C3330 C3332 1.388 . S
C3331 C3330 1.366 . S
C3331 C3335 1.385 . S
C3332 H3313 0.951 . S
C3332 C3330 1.388 . S
C3332 C3333 1.366 . S
C3333 C3332 1.366 . S
C3333 C3334 1.414 . S
C3333 C3336 1.499 . S
C3334 H3314 0.950 . S
C3334 C3333 1.414 . S
C3334 C3335 1.374 . S
C3335 H3315 0.950 . S
C3335 C3331 1.385 . S
C3335 C3334 1.374 . S
C3336 C3333 1.499 . S
C3336 C3337 1.373 . S
C3336 C3338 1.389 . S
C3337 H3316 0.950 . S
C3337 C3336 1.373 . S
C3337 C3353 1.377 . S
C3338 C3336 1.389 . S
C3338 C3339 1.524 . S
C3338 C3352 1.377 . S
C3339 C3338 1.524 . S
C3339 C3340 1.397 . S
C3339 C3344 1.363 . S
C3340 H3317 0.950 . S
C3340 C3339 1.397 . S
C3340 C3341 1.334 . S
C3341 H3318 0.950 . S
C3341 C3340 1.334 . S
C3341 C3342 1.287 1_554 S
C3342 C3341 1.287 1_556 S
C3342 C3343 1.521 1_556 S
C3342 H3361 0.913 . S
C3343 H3319 0.929 1_554 S
C3343 C3342 1.521 1_554 S
C3343 C3344 1.442 . S
C3344 H3320 0.950 . S
C3344 C3339 1.363 . S
C3344 C3343 1.442 . S
C3345 H3321 0.951 . S
C3345 C3346 1.366 . S
C3345 C3347 1.388 . S
C3346 C3345 1.366 . S
C3346 C3350 1.385 . S
C3347 H3322 0.951 . S
C3347 C3345 1.388 . S
C3347 C3348 1.366 . S
C3348 C3347 1.366 . S
C3348 C3349 1.414 . S
C3348 C3351 1.499 . S
C3349 H3323 0.950 . S
C3349 C3348 1.414 . S
C3349 C3350 1.374 . S
C3350 H3324 0.950 . S
C3350 C3346 1.385 . S
C3350 C3349 1.374 . S
C3351 C3348 1.499 . S
C3351 C3352 1.373 . S
C3351 C3353 1.389 . S
C3352 H3325 0.950 . S
C3352 C3338 1.377 . S
C3352 C3351 1.373 . S
C3353 C3337 1.377 . S
C3353 C3351 1.389 . S
C3353 C3354 1.524 . S
C3354 C3353 1.524 . S
C3354 C3355 1.397 . S
C3354 C3359 1.363 . S
C3355 H3326 0.950 . S
C3355 C3354 1.397 . S
C3355 C3356 1.334 . S
C3356 H3327 0.950 . S
C3356 C3355 1.334 . S
C3356 C3357 1.287 . S
C3357 C3356 1.287 . S
C3357 C3358 1.524 . S
C3357 H3360 0.999 . S
C3358 H3328 0.950 . S
C3358 C3357 1.524 . S
C3358 C3359 1.415 . S
C3359 H3329 0.950 . S
C3359 C3354 1.363 . S
C3359 C3358 1.415 . S
H3360 C3357 0.999 . S
H3361 C3342 0.913 . S
H3362 C3380 0.951 . S
H3363 C3382 0.951 . S
H3364 C3384 0.950 . S
H3365 C3385 0.950 . S
H3366 C3387 0.950 . S
H3367 C3390 0.950 . S
H3368 C3391 0.950 . S
H3369 C3393 0.950 . S
H3370 C3394 0.950 . S
H3371 C3395 0.951 . S
H3372 C3397 0.951 . S
H3373 C3399 0.950 . S
H3374 C3400 0.950 . S
H3375 C3402 0.950 . S
H3376 C3405 0.950 . S
H3377 C3406 0.950 . S
H3378 C3408 0.950 . S
H3379 C3409 0.950 . S
C3380 H3362 0.951 . S
C3380 C3381 1.366 . S
C3380 C3382 1.388 . S
C3381 C3380 1.366 . S
C3381 C3385 1.385 . S
C3382 H3363 0.951 . S
C3382 C3380 1.388 . S
C3382 C3383 1.366 . S
C3383 C3382 1.366 . S
C3383 C3384 1.414 . S
C3383 C3386 1.499 . S
C3384 H3364 0.950 . S
C3384 C3383 1.414 . S
C3384 C3385 1.374 . S
C3385 H3365 0.950 . S
C3385 C3381 1.385 . S
C3385 C3384 1.374 . S
C3386 C3383 1.499 . S
C3386 C3387 1.373 . S
C3386 C3388 1.389 . S
C3387 H3366 0.950 . S
C3387 C3386 1.373 . S
C3387 C3403 1.377 . S
C3388 C3386 1.389 . S
C3388 C3389 1.524 . S
C3388 C3402 1.377 . S
C3389 C3388 1.524 . S
C3389 C3390 1.397 . S
C3389 C3394 1.363 . S
C3390 H3367 0.950 . S
C3390 C3389 1.397 . S
C3390 C3391 1.334 . S
C3391 H3368 0.950 . S
C3391 C3390 1.334 . S
C3391 C3392 1.287 . S
C3392 C3391 1.287 . S
C3392 C3393 1.524 . S
C3392 H3411 0.913 . S
C3393 H3369 0.950 . S
C3393 C3392 1.524 . S
C3393 C3394 1.415 . S
C3394 H3370 0.950 . S
C3394 C3389 1.363 . S
C3394 C3393 1.415 . S
C3395 H3371 0.951 . S
C3395 C3396 1.366 . S
C3395 C3397 1.388 . S
C3396 C3395 1.366 . S
C3396 C3400 1.385 . S
C3397 H3372 0.951 . S
C3397 C3395 1.388 . S
C3397 C3398 1.366 . S
C3398 C3397 1.366 . S
C3398 C3399 1.414 . S
C3398 C3401 1.499 . S
C3399 H3373 0.950 . S
C3399 C3398 1.414 . S
C3399 C3400 1.374 . S
C3400 H3374 0.950 . S
C3400 C3396 1.385 . S
C3400 C3399 1.374 . S
C3401 C3398 1.499 . S
C3401 C3402 1.373 . S
C3401 C3403 1.389 . S
C3402 H3375 0.950 . S
C3402 C3388 1.377 . S
C3402 C3401 1.373 . S
C3403 C3387 1.377 . S
C3403 C3401 1.389 . S
C3403 C3404 1.524 . S
C3404 C3403 1.524 . S
C3404 C3405 1.397 . S
C3404 C3409 1.363 . S
C3405 H3376 0.950 . S
C3405 C3404 1.397 . S
C3405 C3406 1.334 . S
C3406 H3377 0.950 . S
C3406 C3405 1.334 . S
C3406 C3407 1.287 . S
C3407 C3406 1.287 . S
C3407 C3408 1.524 . S
C3407 H3410 0.999 . S
C3408 H3378 0.950 . S
C3408 C3407 1.524 . S
C3408 C3409 1.415 . S
C3409 H3379 0.950 . S
C3409 C3404 1.363 . S
C3409 C3408 1.415 . S
H3410 C3407 0.999 . S
H3411 C3392 0.913 . S
H3412 C3430 0.951 . S
H3413 C3432 0.951 . S
H3414 C3434 0.950 . S
H3415 C3435 0.950 . S
H3416 C3437 0.950 . S
H3417 C3440 0.950 . S
H3418 C3441 0.950 . S
H3419 C3443 0.950 . S
H3420 C3444 0.950 . S
H3421 C3445 0.951 . S
H3422 C3447 0.951 . S
H3423 C3449 0.950 . S
H3424 C3450 0.950 . S
H3425 C3452 0.950 . S
H3426 C3455 0.950 . S
H3427 C3456 0.950 . S
H3428 C3458 0.950 . S
H3429 C3459 0.950 . S
C3430 H3412 0.951 . S
C3430 C3431 1.366 . S
C3430 C3432 1.388 . S
C3431 C3430 1.366 . S
C3431 C3435 1.385 . S
C3432 H3413 0.951 . S
C3432 C3430 1.388 . S
C3432 C3433 1.366 . S
C3433 C3432 1.366 . S
C3433 C3434 1.414 . S
C3433 C3436 1.499 . S
C3434 H3414 0.950 . S
C3434 C3433 1.414 . S
C3434 C3435 1.374 . S
C3435 H3415 0.950 . S
C3435 C3431 1.385 . S
C3435 C3434 1.374 . S
C3436 C3433 1.499 . S
C3436 C3437 1.373 . S
C3436 C3438 1.389 . S
C3437 H3416 0.950 . S
C3437 C3436 1.373 . S
C3437 C3453 1.377 . S
C3438 C3436 1.389 . S
C3438 C3439 1.524 . S
C3438 C3452 1.377 . S
C3439 C3438 1.524 . S
C3439 C3440 1.397 . S
C3439 C3444 1.363 . S
C3440 H3417 0.950 . S
C3440 C3439 1.397 . S
C3440 C3441 1.334 . S
C3441 H3418 0.950 . S
C3441 C3440 1.334 . S
C3441 C3442 1.287 . S
C3442 C3441 1.287 . S
C3442 C3443 1.524 . S
C3442 H3461 0.913 . S
C3443 H3419 0.950 . S
C3443 C3442 1.524 . S
C3443 C3444 1.415 . S
C3444 H3420 0.950 . S
C3444 C3439 1.363 . S
C3444 C3443 1.415 . S
C3445 H3421 0.951 . S
C3445 C3446 1.366 . S
C3445 C3447 1.388 . S
C3446 C3445 1.366 . S
C3446 C3450 1.385 . S
C3447 H3422 0.951 . S
C3447 C3445 1.388 . S
C3447 C3448 1.366 . S
C3448 C3447 1.366 . S
C3448 C3449 1.414 . S
C3448 C3451 1.499 . S
C3449 H3423 0.950 . S
C3449 C3448 1.414 . S
C3449 C3450 1.374 . S
C3450 H3424 0.950 . S
C3450 C3446 1.385 . S
C3450 C3449 1.374 . S
C3451 C3448 1.499 . S
C3451 C3452 1.373 . S
C3451 C3453 1.389 . S
C3452 H3425 0.950 . S
C3452 C3438 1.377 . S
C3452 C3451 1.373 . S
C3453 C3437 1.377 . S
C3453 C3451 1.389 . S
C3453 C3454 1.524 . S
C3454 C3453 1.524 . S
C3454 C3455 1.397 . S
C3454 C3459 1.363 . S
C3455 H3426 0.950 . S
C3455 C3454 1.397 . S
C3455 C3456 1.334 . S
C3456 H3427 0.950 . S
C3456 C3455 1.334 . S
C3456 C3457 1.287 . S
C3457 C3456 1.287 . S
C3457 C3458 1.524 . S
C3457 H3460 0.999 . S
C3458 H3428 0.950 . S
C3458 C3457 1.524 . S
C3458 C3459 1.415 . S
C3459 H3429 0.950 . S
C3459 C3454 1.363 . S
C3459 C3458 1.415 . S
H3460 C3457 0.999 . S
H3461 C3442 0.913 . S
H3462 C3480 0.951 . S
H3463 C3482 0.951 . S
H3464 C3484 0.950 . S
H3465 C3485 0.950 . S
H3466 C3487 0.950 . S
H3467 C3490 0.950 . S
H3468 C3491 0.950 . S
H3469 C3493 0.950 . S
H3470 C3494 0.950 . S
H3471 C3495 0.951 . S
H3472 C3497 0.951 . S
H3473 C3499 0.950 . S
H3474 C3500 0.950 . S
H3475 C3502 0.950 . S
H3476 C3505 0.950 . S
H3477 C3506 0.950 . S
H3478 C3508 0.950 . S
H3479 C3509 0.950 . S
C3480 H3462 0.951 . S
C3480 C3481 1.366 . S
C3480 C3482 1.388 . S
C3481 C3480 1.366 . S
C3481 C3485 1.385 . S
C3482 H3463 0.951 . S
C3482 C3480 1.388 . S
C3482 C3483 1.366 . S
C3483 C3482 1.366 . S
C3483 C3484 1.414 . S
C3483 C3486 1.499 . S
C3484 H3464 0.950 . S
C3484 C3483 1.414 . S
C3484 C3485 1.374 . S
C3485 H3465 0.950 . S
C3485 C3481 1.385 . S
C3485 C3484 1.374 . S
C3486 C3483 1.499 . S
C3486 C3487 1.373 . S
C3486 C3488 1.389 . S
C3487 H3466 0.950 . S
C3487 C3486 1.373 . S
C3487 C3503 1.377 . S
C3488 C3486 1.389 . S
C3488 C3489 1.524 . S
C3488 C3502 1.377 . S
C3489 C3488 1.524 . S
C3489 C3490 1.397 . S
C3489 C3494 1.363 . S
C3490 H3467 0.950 . S
C3490 C3489 1.397 . S
C3490 C3491 1.334 . S
C3491 H3468 0.950 . S
C3491 C3490 1.334 . S
C3491 C3492 1.287 . S
C3492 C3491 1.287 . S
C3492 C3493 1.524 . S
C3492 H3511 0.913 . S
C3493 H3469 0.950 . S
C3493 C3492 1.524 . S
C3493 C3494 1.415 . S
C3494 H3470 0.950 . S
C3494 C3489 1.363 . S
C3494 C3493 1.415 . S
C3495 H3471 0.951 . S
C3495 C3496 1.366 . S
C3495 C3497 1.388 . S
C3496 C3495 1.366 . S
C3496 C3500 1.385 . S
C3497 H3472 0.951 . S
C3497 C3495 1.388 . S
C3497 C3498 1.366 . S
C3498 C3497 1.366 . S
C3498 C3499 1.414 . S
C3498 C3501 1.499 . S
C3499 H3473 0.950 . S
C3499 C3498 1.414 . S
C3499 C3500 1.374 . S
C3500 H3474 0.950 . S
C3500 C3496 1.385 . S
C3500 C3499 1.374 . S
C3501 C3498 1.499 . S
C3501 C3502 1.373 . S
C3501 C3503 1.389 . S
C3502 H3475 0.950 . S
C3502 C3488 1.377 . S
C3502 C3501 1.373 . S
C3503 C3487 1.377 . S
C3503 C3501 1.389 . S
C3503 C3504 1.524 . S
C3504 C3503 1.524 . S
C3504 C3505 1.397 . S
C3504 C3509 1.363 . S
C3505 H3476 0.950 . S
C3505 C3504 1.397 . S
C3505 C3506 1.334 . S
C3506 H3477 0.950 . S
C3506 C3505 1.334 . S
C3506 C3507 1.287 . S
C3507 C3506 1.287 . S
C3507 C3508 1.524 . S
C3507 H3510 0.999 . S
C3508 H3478 0.950 . S
C3508 C3507 1.524 . S
C3508 C3509 1.415 . S
C3509 H3479 0.950 . S
C3509 C3504 1.363 . S
C3509 C3508 1.415 . S
H3510 C3507 0.999 . S
H3511 C3492 0.913 . S
H3512 C3530 0.951 . S
H3513 C3532 0.951 . S
H3514 C3534 0.950 . S
H3515 C3535 0.950 . S
H3516 C3537 0.950 . S
H3517 C3540 0.950 . S
H3518 C3541 0.950 . S
H3519 C3543 0.950 . S
H3520 C3544 0.950 . S
H3521 C3545 0.951 . S
H3522 C3547 0.951 . S
H3523 C3549 0.950 . S
H3524 C3550 0.950 . S
H3525 C3552 0.950 . S
H3526 C3555 0.950 . S
H3527 C3556 0.950 . S
H3528 C3558 0.950 . S
H3529 C3559 0.950 . S
C3530 H3512 0.951 . S
C3530 C3531 1.366 . S
C3530 C3532 1.388 . S
C3531 C3530 1.366 . S
C3531 C3535 1.385 . S
C3532 H3513 0.951 . S
C3532 C3530 1.388 . S
C3532 C3533 1.366 . S
C3533 C3532 1.366 . S
C3533 C3534 1.414 . S
C3533 C3536 1.499 . S
C3534 H3514 0.950 . S
C3534 C3533 1.414 . S
C3534 C3535 1.374 . S
C3535 H3515 0.950 . S
C3535 C3531 1.385 . S
C3535 C3534 1.374 . S
C3536 C3533 1.499 . S
C3536 C3537 1.373 . S
C3536 C3538 1.389 . S
C3537 H3516 0.950 . S
C3537 C3536 1.373 . S
C3537 C3553 1.377 . S
C3538 C3536 1.389 . S
C3538 C3539 1.524 . S
C3538 C3552 1.377 . S
C3539 C3538 1.524 . S
C3539 C3540 1.397 . S
C3539 C3544 1.363 . S
C3540 H3517 0.950 . S
C3540 C3539 1.397 . S
C3540 C3541 1.334 . S
C3541 H3518 0.950 . S
C3541 C3540 1.334 . S
C3541 C3542 1.287 . S
C3542 C3541 1.287 . S
C3542 C3543 1.524 . S
C3542 H3561 0.913 . S
C3543 H3519 0.950 . S
C3543 C3542 1.524 . S
C3543 C3544 1.415 . S
C3544 H3520 0.950 . S
C3544 C3539 1.363 . S
C3544 C3543 1.415 . S
C3545 H3521 0.951 . S
C3545 C3546 1.366 . S
C3545 C3547 1.388 . S
C3546 C3545 1.366 . S
C3546 C3550 1.385 . S
C3547 H3522 0.951 . S
C3547 C3545 1.388 . S
C3547 C3548 1.366 . S
C3548 C3547 1.366 . S
C3548 C3549 1.414 . S
C3548 C3551 1.499 . S
C3549 H3523 0.950 . S
C3549 C3548 1.414 . S
C3549 C3550 1.374 . S
C3550 H3524 0.950 . S
C3550 C3546 1.385 . S
C3550 C3549 1.374 . S
C3551 C3548 1.499 . S
C3551 C3552 1.373 . S
C3551 C3553 1.389 . S
C3552 H3525 0.950 . S
C3552 C3538 1.377 . S
C3552 C3551 1.373 . S
C3553 C3537 1.377 . S
C3553 C3551 1.389 . S
C3553 C3554 1.524 . S
C3554 C3553 1.524 . S
C3554 C3555 1.397 . S
C3554 C3559 1.363 . S
C3555 H3526 0.950 . S
C3555 C3554 1.397 . S
C3555 C3556 1.334 . S
C3556 H3527 0.950 . S
C3556 C3555 1.334 . S
C3556 C3557 1.287 . S
C3557 C3556 1.287 . S
C3557 C3558 1.524 . S
C3557 H3560 0.999 . S
C3558 H3528 0.950 . S
C3558 C3557 1.524 . S
C3558 C3559 1.415 . S
C3559 H3529 0.950 . S
C3559 C3554 1.363 . S
C3559 C3558 1.415 . S
H3560 C3557 0.999 . S
H3561 C3542 0.913 . S
H3562 C3580 0.951 . S
H3563 C3582 0.951 . S
H3564 C3584 0.950 . S
H3565 C3585 0.950 . S
H3566 C3587 0.950 . S
H3567 C3590 0.950 . S
H3568 C3591 0.950 . S
H3569 C3593 0.950 . S
H3570 C3594 0.950 . S
H3571 C3595 0.951 . S
H3572 C3597 0.951 . S
H3573 C3599 0.950 . S
H3574 C3600 0.950 . S
H3575 C3602 0.950 . S
H3576 C3605 0.950 . S
H3577 C3606 0.950 . S
H3578 C3608 0.950 . S
H3579 C3609 0.950 . S
C3580 H3562 0.951 . S
C3580 C3581 1.366 . S
C3580 C3582 1.388 . S
C3581 C3580 1.366 . S
C3581 C3585 1.385 . S
C3582 H3563 0.951 . S
C3582 C3580 1.388 . S
C3582 C3583 1.366 . S
C3583 C3582 1.366 . S
C3583 C3584 1.414 . S
C3583 C3586 1.499 . S
C3584 H3564 0.950 . S
C3584 C3583 1.414 . S
C3584 C3585 1.374 . S
C3585 H3565 0.950 . S
C3585 C3581 1.385 . S
C3585 C3584 1.374 . S
C3586 C3583 1.499 . S
C3586 C3587 1.373 . S
C3586 C3588 1.389 . S
C3587 H3566 0.950 . S
C3587 C3586 1.373 . S
C3587 C3603 1.377 . S
C3588 C3586 1.389 . S
C3588 C3589 1.524 . S
C3588 C3602 1.377 . S
C3589 C3588 1.524 . S
C3589 C3590 1.397 . S
C3589 C3594 1.363 . S
C3590 H3567 0.950 . S
C3590 C3589 1.397 . S
C3590 C3591 1.334 . S
C3591 H3568 0.950 . S
C3591 C3590 1.334 . S
C3591 C3592 1.287 . S
C3592 C3591 1.287 . S
C3592 C3593 1.524 . S
C3592 H3611 0.913 . S
C3593 H3569 0.950 . S
C3593 C3592 1.524 . S
C3593 C3594 1.415 . S
C3594 H3570 0.950 . S
C3594 C3589 1.363 . S
C3594 C3593 1.415 . S
C3595 H3571 0.951 . S
C3595 C3596 1.366 . S
C3595 C3597 1.388 . S
C3596 C3595 1.366 . S
C3596 C3600 1.385 . S
C3597 H3572 0.951 . S
C3597 C3595 1.388 . S
C3597 C3598 1.366 . S
C3598 C3597 1.366 . S
C3598 C3599 1.414 . S
C3598 C3601 1.499 . S
C3599 H3573 0.950 . S
C3599 C3598 1.414 . S
C3599 C3600 1.374 . S
C3600 H3574 0.950 . S
C3600 C3596 1.385 . S
C3600 C3599 1.374 . S
C3601 C3598 1.499 . S
C3601 C3602 1.373 . S
C3601 C3603 1.389 . S
C3602 H3575 0.950 . S
C3602 C3588 1.377 . S
C3602 C3601 1.373 . S
C3603 C3587 1.377 . S
C3603 C3601 1.389 . S
C3603 C3604 1.524 . S
C3604 C3603 1.524 . S
C3604 C3605 1.397 . S
C3604 C3609 1.363 . S
C3605 H3576 0.950 . S
C3605 C3604 1.397 . S
C3605 C3606 1.334 . S
C3606 H3577 0.950 . S
C3606 C3605 1.334 . S
C3606 C3607 1.287 . S
C3607 C3606 1.287 . S
C3607 C3608 1.524 . S
C3607 H3610 0.999 . S
C3608 H3578 0.950 . S
C3608 C3607 1.524 . S
C3608 C3609 1.415 . S
C3609 H3579 0.950 . S
C3609 C3604 1.363 . S
C3609 C3608 1.415 . S
H3610 C3607 0.999 . S
H3611 C3592 0.913 . S
H3612 C3630 0.951 . S
H3613 C3632 0.951 . S
H3614 C3634 0.950 1_655 S
H3615 C3635 0.954 1_655 S
H3616 C3637 0.950 1_655 S
H3617 C3640 0.950 . S
H3618 C3641 0.950 . S
H3619 C3643 0.950 . S
H3620 C3644 0.950 . S
H3621 C3645 0.951 . S
H3622 C3647 0.951 . S
H3623 C3649 0.950 . S
H3624 C3650 0.950 . S
H3625 C3652 0.950 . S
H3626 C3655 0.950 . S
H3627 C3656 0.950 . S
H3628 C3658 0.950 . S
H3629 C3659 0.950 . S
C3630 H3612 0.951 . S
C3630 C3631 1.366 . S
C3630 C3632 1.388 . S
C3631 C3630 1.366 . S
C3631 C3635 1.385 . S
C3632 H3613 0.951 . S
C3632 C3630 1.388 . S
C3632 C3633 1.366 . S
C3633 C3632 1.366 . S
C3633 C3634 1.414 . S
C3633 C3636 1.499 . S
C3634 H3614 0.950 1_455 S
C3634 C3633 1.414 . S
C3634 C3635 1.374 . S
C3635 H3615 0.954 1_455 S
C3635 C3631 1.385 . S
C3635 C3634 1.374 . S
C3636 C3633 1.499 . S
C3636 C3637 1.373 . S
C3636 C3638 1.389 . S
C3637 H3616 0.950 1_455 S
C3637 C3636 1.373 . S
C3637 C3653 1.364 1_455 S
C3638 C3636 1.389 . S
C3638 C3639 1.524 . S
C3638 C3652 1.377 . S
C3639 C3638 1.524 . S
C3639 C3640 1.397 . S
C3639 C3644 1.363 . S
C3640 H3617 0.950 . S
C3640 C3639 1.397 . S
C3640 C3641 1.334 . S
C3641 H3618 0.950 . S
C3641 C3640 1.334 . S
C3641 C3642 1.287 . S
C3642 C3641 1.287 . S
C3642 C3643 1.524 . S
C3642 H3661 0.913 . S
C3643 H3619 0.950 . S
C3643 C3642 1.524 . S
C3643 C3644 1.415 . S
C3644 H3620 0.950 . S
C3644 C3639 1.363 . S
C3644 C3643 1.415 . S
C3645 H3621 0.951 . S
C3645 C3646 1.366 1_655 S
C3645 C3647 1.388 . S
C3646 C3645 1.366 1_455 S
C3646 C3650 1.385 . S
C3647 H3622 0.951 . S
C3647 C3645 1.388 . S
C3647 C3648 1.366 1_655 S
C3648 C3647 1.366 1_455 S
C3648 C3649 1.414 . S
C3648 C3651 1.499 . S
C3649 H3623 0.950 . S
C3649 C3648 1.414 . S
C3649 C3650 1.374 . S
C3650 H3624 0.950 . S
C3650 C3646 1.385 . S
C3650 C3649 1.374 . S
C3651 C3648 1.499 . S
C3651 C3652 1.373 . S
C3651 C3653 1.384 1_455 S
C3652 H3625 0.950 . S
C3652 C3638 1.377 . S
C3652 C3651 1.373 . S
C3653 C3637 1.364 1_655 S
C3653 C3651 1.384 1_655 S
C3653 C3654 1.542 . S
C3654 C3653 1.542 . S
C3654 C3655 1.397 . S
C3654 C3659 1.363 . S
C3655 H3626 0.950 . S
C3655 C3654 1.397 . S
C3655 C3656 1.334 . S
C3656 H3627 0.950 . S
C3656 C3655 1.334 . S
C3656 C3657 1.287 . S
C3657 C3656 1.287 . S
C3657 C3658 1.524 . S
C3657 H3660 0.999 . S
C3658 H3628 0.950 . S
C3658 C3657 1.524 . S
C3658 C3659 1.415 . S
C3659 H3629 0.950 . S
C3659 C3654 1.363 . S
C3659 C3658 1.415 . S
H3660 C3657 0.999 . S
H3661 C3642 0.913 . S
H3662 C3680 0.951 . S
H3663 C3682 0.951 . S
H3664 C3684 0.950 . S
H3665 C3685 0.950 . S
H3666 C3687 0.950 . S
H3667 C3690 0.950 . S
H3668 C3691 0.950 . S
H3669 C3693 0.950 . S
H3670 C3694 0.950 . S
H3671 C3695 0.951 . S
H3672 C3697 0.951 . S
H3673 C3699 0.950 . S
H3674 C3700 0.950 . S
H3675 C3702 0.950 . S
H3676 C3705 0.950 . S
H3677 C3706 0.950 . S
H3678 C3708 0.950 . S
H3679 C3709 0.950 . S
C3680 H3662 0.951 . S
C3680 C3681 1.366 . S
C3680 C3682 1.388 . S
C3681 C3680 1.366 . S
C3681 C3685 1.385 . S
C3682 H3663 0.951 . S
C3682 C3680 1.388 . S
C3682 C3683 1.366 . S
C3683 C3682 1.366 . S
C3683 C3684 1.414 . S
C3683 C3686 1.499 . S
C3684 H3664 0.950 . S
C3684 C3683 1.414 . S
C3684 C3685 1.374 . S
C3685 H3665 0.950 . S
C3685 C3681 1.385 . S
C3685 C3684 1.374 . S
C3686 C3683 1.499 . S
C3686 C3687 1.373 . S
C3686 C3688 1.389 . S
C3687 H3666 0.950 . S
C3687 C3686 1.373 . S
C3687 C3703 1.377 . S
C3688 C3686 1.389 . S
C3688 C3689 1.524 . S
C3688 C3702 1.377 . S
C3689 C3688 1.524 . S
C3689 C3690 1.397 . S
C3689 C3694 1.363 . S
C3690 H3667 0.950 . S
C3690 C3689 1.397 . S
C3690 C3691 1.334 . S
C3691 H3668 0.950 . S
C3691 C3690 1.334 . S
C3691 C3692 1.287 . S
C3692 C3691 1.287 . S
C3692 C3693 1.524 . S
C3692 H3711 0.913 . S
C3693 H3669 0.950 . S
C3693 C3692 1.524 . S
C3693 C3694 1.415 . S
C3694 H3670 0.950 . S
C3694 C3689 1.363 . S
C3694 C3693 1.415 . S
C3695 H3671 0.951 . S
C3695 C3696 1.366 . S
C3695 C3697 1.388 . S
C3696 C3695 1.366 . S
C3696 C3700 1.385 . S
C3697 H3672 0.951 . S
C3697 C3695 1.388 . S
C3697 C3698 1.366 . S
C3698 C3697 1.366 . S
C3698 C3699 1.414 . S
C3698 C3701 1.499 . S
C3699 H3673 0.950 . S
C3699 C3698 1.414 . S
C3699 C3700 1.374 . S
C3700 H3674 0.950 . S
C3700 C3696 1.385 . S
C3700 C3699 1.374 . S
C3701 C3698 1.499 . S
C3701 C3702 1.373 . S
C3701 C3703 1.389 . S
C3702 H3675 0.950 . S
C3702 C3688 1.377 . S
C3702 C3701 1.373 . S
C3703 C3687 1.377 . S
C3703 C3701 1.389 . S
C3703 C3704 1.524 . S
C3704 C3703 1.524 . S
C3704 C3705 1.397 . S
C3704 C3709 1.363 . S
C3705 H3676 0.950 . S
C3705 C3704 1.397 . S
C3705 C3706 1.334 . S
C3706 H3677 0.950 . S
C3706 C3705 1.334 . S
C3706 C3707 1.287 . S
C3707 C3706 1.287 . S
C3707 C3708 1.524 . S
C3707 H3710 0.999 . S
C3708 H3678 0.950 . S
C3708 C3707 1.524 . S
C3708 C3709 1.415 . S
C3709 H3679 0.950 . S
C3709 C3704 1.363 . S
C3709 C3708 1.415 . S
H3710 C3707 0.999 . S
H3711 C3692 0.913 . S
H3712 C3730 0.951 . S
H3713 C3732 0.951 . S
H3714 C3734 0.950 1_545 S
H3715 C3735 0.947 . S
H3716 C3737 0.950 . S
H3717 C3740 0.950 . S
H3718 C3741 0.950 . S
H3719 C3743 0.932 1_565 S
H3720 C3744 0.950 . S
H3721 C3745 0.951 . S
H3722 C3747 0.951 . S
H3723 C3749 0.950 . S
H3724 C3750 0.950 . S
H3725 C3752 0.943 . S
H3726 C3755 0.950 . S
H3727 C3756 0.950 . S
H3728 C3758 0.950 . S
H3729 C3759 0.950 . S
C3730 H3712 0.951 . S
C3730 C3731 1.366 . S
C3730 C3732 1.388 . S
C3731 C3730 1.366 . S
C3731 C3735 1.385 . S
C3732 H3713 0.951 . S
C3732 C3730 1.388 . S
C3732 C3733 1.366 . S
C3733 C3732 1.366 . S
C3733 C3734 1.414 . S
C3733 C3736 1.499 . S
C3734 H3714 0.950 1_565 S
C3734 C3733 1.414 . S
C3734 C3735 1.374 . S
C3735 H3715 0.947 . S
C3735 C3731 1.385 . S
C3735 C3734 1.374 . S
C3736 C3733 1.499 . S
C3736 C3737 1.373 . S
C3736 C3738 1.389 . S
C3737 H3716 0.950 . S
C3737 C3736 1.373 . S
C3737 C3753 1.377 . S
C3738 C3736 1.389 . S
C3738 C3739 1.524 1_565 S
C3738 C3752 1.377 . S
C3739 C3738 1.524 1_545 S
C3739 C3740 1.397 . S
C3739 C3744 1.363 1_545 S
C3740 H3717 0.950 . S
C3740 C3739 1.397 . S
C3740 C3741 1.334 . S
C3741 H3718 0.950 . S
C3741 C3740 1.334 . S
C3741 C3742 1.287 . S
C3742 C3741 1.287 . S
C3742 C3743 1.524 . S
C3742 H3761 0.913 . S
C3743 H3719 0.932 1_545 S
C3743 C3742 1.524 . S
C3743 C3744 1.415 1_545 S
C3744 H3720 0.950 . S
C3744 C3739 1.363 1_565 S
C3744 C3743 1.415 1_565 S
C3745 H3721 0.951 . S
C3745 C3746 1.366 1_545 S
C3745 C3747 1.388 . S
C3746 C3745 1.366 1_565 S
C3746 C3750 1.385 . S
C3747 H3722 0.951 . S
C3747 C3745 1.388 . S
C3747 C3748 1.366 1_545 S
C3748 C3747 1.366 1_565 S
C3748 C3749 1.414 . S
C3748 C3751 1.499 . S
C3749 H3723 0.950 . S
C3749 C3748 1.414 . S
C3749 C3750 1.374 . S
C3750 H3724 0.950 . S
C3750 C3746 1.385 . S
C3750 C3749 1.374 . S
C3751 C3748 1.499 . S
C3751 C3752 1.373 . S
C3751 C3753 1.389 . S
C3752 H3725 0.943 . S
C3752 C3738 1.377 . S
C3752 C3751 1.373 . S
C3753 C3737 1.377 . S
C3753 C3751 1.389 . S
C3753 C3754 1.524 . S
C3754 C3753 1.524 . S
C3754 C3755 1.397 . S
C3754 C3759 1.363 . S
C3755 H3726 0.950 . S
C3755 C3754 1.397 . S
C3755 C3756 1.334 . S
C3756 H3727 0.950 . S
C3756 C3755 1.334 . S
C3756 C3757 1.287 . S
C3757 C3756 1.287 . S
C3757 C3758 1.524 . S
C3757 H3760 0.999 . S
C3758 H3728 0.950 . S
C3758 C3757 1.524 . S
C3758 C3759 1.415 . S
C3759 H3729 0.950 . S
C3759 C3754 1.363 . S
C3759 C3758 1.415 . S
H3760 C3757 0.999 . S
H3761 C3742 0.913 . S
H3762 C3780 0.951 1_545 S
H3763 C3782 0.951 1_545 S
H3764 C3784 0.950 . S
H3765 C3785 0.950 . S
H3766 C3787 0.950 . S
H3767 C3790 0.950 . S
H3768 C3791 0.950 . S
H3769 C3793 0.950 1_545 S
H3770 C3794 0.953 . S
H3771 C3795 0.951 . S
H3772 C3797 0.951 . S
H3773 C3799 0.950 . S
H3774 C3800 0.950 . S
H3775 C3802 0.950 . S
H3776 C3805 0.950 . S
H3777 C3806 0.950 . S
H3778 C3808 0.950 . S
H3779 C3809 0.950 . S
C3780 H3762 0.951 1_565 S
C3780 C3781 1.366 . S
C3780 C3782 1.388 . S
C3781 C3780 1.366 . S
C3781 C3785 1.385 . S
C3782 H3763 0.951 1_565 S
C3782 C3780 1.388 . S
C3782 C3783 1.366 . S
C3783 C3782 1.366 . S
C3783 C3784 1.414 . S
C3783 C3786 1.499 . S
C3784 H3764 0.950 . S
C3784 C3783 1.414 . S
C3784 C3785 1.374 . S
C3785 H3765 0.950 . S
C3785 C3781 1.385 . S
C3785 C3784 1.374 . S
C3786 C3783 1.499 . S
C3786 C3787 1.373 . S
C3786 C3788 1.389 . S
C3787 H3766 0.950 . S
C3787 C3786 1.373 . S
C3787 C3803 1.377 . S
C3788 C3786 1.389 . S
C3788 C3789 1.524 . S
C3788 C3802 1.377 . S
C3789 C3788 1.524 . S
C3789 C3790 1.397 . S
C3789 C3794 1.361 1_565 S
C3790 H3767 0.950 . S
C3790 C3789 1.397 . S
C3790 C3791 1.334 . S
C3791 H3768 0.950 . S
C3791 C3790 1.334 . S
C3791 C3792 1.287 . S
C3792 C3791 1.287 . S
C3792 C3793 1.524 . S
C3792 H3811 0.913 . S
C3793 H3769 0.950 1_565 S
C3793 C3792 1.524 . S
C3793 C3794 1.415 1_565 S
C3794 H3770 0.953 . S
C3794 C3789 1.361 1_545 S
C3794 C3793 1.415 1_545 S
C3795 H3771 0.951 . S
C3795 C3796 1.366 . S
C3795 C3797 1.388 . S
C3796 C3795 1.366 . S
C3796 C3800 1.385 1_565 S
C3797 H3772 0.951 . S
C3797 C3795 1.388 . S
C3797 C3798 1.366 . S
C3798 C3797 1.366 . S
C3798 C3799 1.414 1_565 S
C3798 C3801 1.499 . S
C3799 H3773 0.950 . S
C3799 C3798 1.414 1_545 S
C3799 C3800 1.374 . S
C3800 H3774 0.950 . S
C3800 C3796 1.385 1_545 S
C3800 C3799 1.374 . S
C3801 C3798 1.499 . S
C3801 C3802 1.373 . S
C3801 C3803 1.389 . S
C3802 H3775 0.950 . S
C3802 C3788 1.377 . S
C3802 C3801 1.373 . S
C3803 C3787 1.377 . S
C3803 C3801 1.389 . S
C3803 C3804 1.524 . S
C3804 C3803 1.524 . S
C3804 C3805 1.397 1_565 S
C3804 C3809 1.363 . S
C3805 H3776 0.950 . S
C3805 C3804 1.397 1_545 S
C3805 C3806 1.334 . S
C3806 H3777 0.950 . S
C3806 C3805 1.334 . S
C3806 C3807 1.287 1_545 S
C3807 C3806 1.287 1_565 S
C3807 C3808 1.524 . S
C3807 H3810 0.999 . S
C3808 H3778 0.950 . S
C3808 C3807 1.524 . S
C3808 C3809 1.415 . S
C3809 H3779 0.950 . S
C3809 C3804 1.363 . S
C3809 C3808 1.415 . S
H3810 C3807 0.999 . S
H3811 C3792 0.913 . S
H3812 C3830 0.951 . S
H3813 C3832 0.951 . S
H3814 C3834 0.950 . S
H3815 C3835 0.950 . S
H3816 C3837 0.950 . S
H3817 C3840 0.888 1_455 S
H3818 C3841 0.950 . S
H3819 C3843 0.950 . S
H3820 C3844 0.950 . S
H3821 C3845 0.951 . S
H3822 C3847 0.951 . S
H3823 C3849 0.950 . S
H3824 C3850 0.950 . S
H3825 C3852 0.950 . S
H3826 C3855 0.950 . S
H3827 C3856 0.950 . S
H3828 C3858 0.950 . S
H3829 C3859 0.950 . S
C3830 H3812 0.951 . S
C3830 C3831 1.366 1_655 S
C3830 C3832 1.388 . S
C3831 C3830 1.366 1_455 S
C3831 C3835 1.385 . S
C3832 H3813 0.951 . S
C3832 C3830 1.388 . S
C3832 C3833 1.366 1_655 S
C3833 C3832 1.366 1_455 S
C3833 C3834 1.414 . S
C3833 C3836 1.499 . S
C3834 H3814 0.950 . S
C3834 C3833 1.414 . S
C3834 C3835 1.374 . S
C3835 H3815 0.950 . S
C3835 C3831 1.385 . S
C3835 C3834 1.374 . S
C3836 C3833 1.499 . S
C3836 C3837 1.373 . S
C3836 C3838 1.389 1_455 S
C3837 H3816 0.950 . S
C3837 C3836 1.373 . S
C3837 C3853 1.377 . S
C3838 C3836 1.389 1_655 S
C3838 C3839 1.524 . S
C3838 C3852 1.377 . S
C3839 C3838 1.524 . S
C3839 C3840 1.397 . S
C3839 C3844 1.363 . S
C3840 H3817 0.888 1_655 S
C3840 C3839 1.397 . S
C3840 C3841 1.334 . S
C3841 H3818 0.950 . S
C3841 C3840 1.334 . S
C3841 C3842 1.287 . S
C3842 C3841 1.287 . S
C3842 C3843 1.524 . S
C3842 H3861 0.913 . S
C3843 H3819 0.950 . S
C3843 C3842 1.524 . S
C3843 C3844 1.415 . S
C3844 H3820 0.950 . S
C3844 C3839 1.363 . S
C3844 C3843 1.415 . S
C3845 H3821 0.951 . S
C3845 C3846 1.366 . S
C3845 C3847 1.388 . S
C3846 C3845 1.366 . S
C3846 C3850 1.385 1_455 S
C3847 H3822 0.951 . S
C3847 C3845 1.388 . S
C3847 C3848 1.366 . S
C3848 C3847 1.366 . S
C3848 C3849 1.414 1_455 S
C3848 C3851 1.499 . S
C3849 H3823 0.950 . S
C3849 C3848 1.414 1_655 S
C3849 C3850 1.374 . S
C3850 H3824 0.950 . S
C3850 C3846 1.385 1_655 S
C3850 C3849 1.374 . S
C3851 C3848 1.499 . S
C3851 C3852 1.373 1_455 S
C3851 C3853 1.389 . S
C3852 H3825 0.950 . S
C3852 C3838 1.377 . S
C3852 C3851 1.373 1_655 S
C3853 C3837 1.377 . S
C3853 C3851 1.389 . S
C3853 C3854 1.524 . S
C3854 C3853 1.524 . S
C3854 C3855 1.397 . S
C3854 C3859 1.363 . S
C3855 H3826 0.950 . S
C3855 C3854 1.397 . S
C3855 C3856 1.334 . S
C3856 H3827 0.950 . S
C3856 C3855 1.334 . S
C3856 C3857 1.287 . S
C3857 C3856 1.287 . S
C3857 C3858 1.524 . S
C3857 H3860 0.999 . S
C3858 H3828 0.950 . S
C3858 C3857 1.524 . S
C3858 C3859 1.415 . S
C3859 H3829 0.950 . S
C3859 C3854 1.363 . S
C3859 C3858 1.415 . S
H3860 C3857 0.999 . S
H3861 C3842 0.913 . S
H3862 C3880 0.951 . S
H3863 C3882 0.951 . S
H3864 C3884 0.950 . S
H3865 C3885 0.950 . S
H3866 C3887 0.950 . S
H3867 C3890 0.950 . S
H3868 C3891 0.950 . S
H3869 C3893 0.950 . S
H3870 C3894 0.950 . S
H3871 C3895 0.951 . S
H3872 C3897 0.951 . S
H3873 C3899 0.950 . S
H3874 C3900 0.950 . S
H3875 C3902 0.950 . S
H3876 C3905 0.950 . S
H3877 C3906 0.950 . S
H3878 C3908 0.950 . S
H3879 C3909 0.950 . S
C3880 H3862 0.951 . S
C3880 C3881 1.366 . S
C3880 C3882 1.388 . S
C3881 C3880 1.366 . S
C3881 C3885 1.385 . S
C3882 H3863 0.951 . S
C3882 C3880 1.388 . S
C3882 C3883 1.366 . S
C3883 C3882 1.366 . S
C3883 C3884 1.414 . S
C3883 C3886 1.499 . S
C3884 H3864 0.950 . S
C3884 C3883 1.414 . S
C3884 C3885 1.374 . S
C3885 H3865 0.950 . S
C3885 C3881 1.385 . S
C3885 C3884 1.374 . S
C3886 C3883 1.499 . S
C3886 C3887 1.373 . S
C3886 C3888 1.389 . S
C3887 H3866 0.950 . S
C3887 C3886 1.373 . S
C3887 C3903 1.377 . S
C3888 C3886 1.389 . S
C3888 C3889 1.524 . S
C3888 C3902 1.377 . S
C3889 C3888 1.524 . S
C3889 C3890 1.397 . S
C3889 C3894 1.363 . S
C3890 H3867 0.950 . S
C3890 C3889 1.397 . S
C3890 C3891 1.334 . S
C3891 H3868 0.950 . S
C3891 C3890 1.334 . S
C3891 C3892 1.287 . S
C3892 C3891 1.287 . S
C3892 C3893 1.524 . S
C3892 H3911 0.913 . S
C3893 H3869 0.950 . S
C3893 C3892 1.524 . S
C3893 C3894 1.415 . S
C3894 H3870 0.950 . S
C3894 C3889 1.363 . S
C3894 C3893 1.415 . S
C3895 H3871 0.951 . S
C3895 C3896 1.366 . S
C3895 C3897 1.388 . S
C3896 C3895 1.366 . S
C3896 C3900 1.385 . S
C3897 H3872 0.951 . S
C3897 C3895 1.388 . S
C3897 C3898 1.366 . S
C3898 C3897 1.366 . S
C3898 C3899 1.414 . S
C3898 C3901 1.499 . S
C3899 H3873 0.950 . S
C3899 C3898 1.414 . S
C3899 C3900 1.374 . S
C3900 H3874 0.950 . S
C3900 C3896 1.385 . S
C3900 C3899 1.374 . S
C3901 C3898 1.499 . S
C3901 C3902 1.373 . S
C3901 C3903 1.389 . S
C3902 H3875 0.950 . S
C3902 C3888 1.377 . S
C3902 C3901 1.373 . S
C3903 C3887 1.377 . S
C3903 C3901 1.389 . S
C3903 C3904 1.524 . S
C3904 C3903 1.524 . S
C3904 C3905 1.397 . S
C3904 C3909 1.363 . S
C3905 H3876 0.950 . S
C3905 C3904 1.397 . S
C3905 C3906 1.334 . S
C3906 H3877 0.950 . S
C3906 C3905 1.334 . S
C3906 C3907 1.287 . S
C3907 C3906 1.287 . S
C3907 C3908 1.524 . S
C3907 H3910 0.999 . S
C3908 H3878 0.950 . S
C3908 C3907 1.524 . S
C3908 C3909 1.415 . S
C3909 H3879 0.950 . S
C3909 C3904 1.363 . S
C3909 C3908 1.415 . S
H3910 C3907 0.999 . S
H3911 C3892 0.913 . S
H3912 C3930 0.951 . S
H3913 C3932 0.951 . S
H3914 C3934 0.950 . S
H3915 C3935 0.950 . S
H3916 C3937 0.950 . S
H3917 C3940 0.950 . S
H3918 C3941 0.950 . S
H3919 C3943 0.950 . S
H3920 C3944 0.950 . S
H3921 C3945 0.951 . S
H3922 C3947 0.951 . S
H3923 C3949 0.950 . S
H3924 C3950 0.950 . S
H3925 C3952 0.950 . S
H3926 C3955 0.950 . S
H3927 C3956 0.950 . S
H3928 C3958 0.950 . S
H3929 C3959 0.950 . S
C3930 H3912 0.951 . S
C3930 C3931 1.366 . S
C3930 C3932 1.388 . S
C3931 C3930 1.366 . S
C3931 C3935 1.385 . S
C3932 H3913 0.951 . S
C3932 C3930 1.388 . S
C3932 C3933 1.366 . S
C3933 C3932 1.366 . S
C3933 C3934 1.414 . S
C3933 C3936 1.499 . S
C3934 H3914 0.950 . S
C3934 C3933 1.414 . S
C3934 C3935 1.374 . S
C3935 H3915 0.950 . S
C3935 C3931 1.385 . S
C3935 C3934 1.374 . S
C3936 C3933 1.499 . S
C3936 C3937 1.373 . S
C3936 C3938 1.389 . S
C3937 H3916 0.950 . S
C3937 C3936 1.373 . S
C3937 C3953 1.377 . S
C3938 C3936 1.389 . S
C3938 C3939 1.524 . S
C3938 C3952 1.377 . S
C3939 C3938 1.524 . S
C3939 C3940 1.397 . S
C3939 C3944 1.363 . S
C3940 H3917 0.950 . S
C3940 C3939 1.397 . S
C3940 C3941 1.334 . S
C3941 H3918 0.950 . S
C3941 C3940 1.334 . S
C3941 C3942 1.287 . S
C3942 C3941 1.287 . S
C3942 C3943 1.524 . S
C3942 H3961 0.913 . S
C3943 H3919 0.950 . S
C3943 C3942 1.524 . S
C3943 C3944 1.415 . S
C3944 H3920 0.950 . S
C3944 C3939 1.363 . S
C3944 C3943 1.415 . S
C3945 H3921 0.951 . S
C3945 C3946 1.366 . S
C3945 C3947 1.388 . S
C3946 C3945 1.366 . S
C3946 C3950 1.385 . S
C3947 H3922 0.951 . S
C3947 C3945 1.388 . S
C3947 C3948 1.366 . S
C3948 C3947 1.366 . S
C3948 C3949 1.414 . S
C3948 C3951 1.499 . S
C3949 H3923 0.950 . S
C3949 C3948 1.414 . S
C3949 C3950 1.374 . S
C3950 H3924 0.950 . S
C3950 C3946 1.385 . S
C3950 C3949 1.374 . S
C3951 C3948 1.499 . S
C3951 C3952 1.373 . S
C3951 C3953 1.389 . S
C3952 H3925 0.950 . S
C3952 C3938 1.377 . S
C3952 C3951 1.373 . S
C3953 C3937 1.377 . S
C3953 C3951 1.389 . S
C3953 C3954 1.524 . S
C3954 C3953 1.524 . S
C3954 C3955 1.397 . S
C3954 C3959 1.363 . S
C3955 H3926 0.950 . S
C3955 C3954 1.397 . S
C3955 C3956 1.334 . S
C3956 H3927 0.950 . S
C3956 C3955 1.334 . S
C3956 C3957 1.287 . S
C3957 C3956 1.287 . S
C3957 C3958 1.524 . S
C3957 H3960 0.999 . S
C3958 H3928 0.950 . S
C3958 C3957 1.524 . S
C3958 C3959 1.415 . S
C3959 H3929 0.950 . S
C3959 C3954 1.363 . S
C3959 C3958 1.415 . S
H3960 C3957 0.999 . S
H3961 C3942 0.913 . S
H3962 C3980 0.951 . S
H3963 C3982 0.951 . S
H3964 C3984 0.950 . S
H3965 C3985 0.950 . S
H3966 C3987 0.950 . S
H3967 C3990 0.950 . S
H3968 C3991 0.950 . S
H3969 C3993 0.950 . S
H3970 C3994 0.950 . S
H3971 C3995 0.951 . S
H3972 C3997 0.951 . S
H3973 C3999 0.950 . S
H3974 C4000 0.950 . S
H3975 C4002 0.950 . S
H3976 C4005 0.950 . S
H3977 C4006 0.950 . S
H3978 C4008 0.950 . S
H3979 C4009 0.950 . S
C3980 H3962 0.951 . S
C3980 C3981 1.366 . S
C3980 C3982 1.388 . S
C3981 C3980 1.366 . S
C3981 C3985 1.385 . S
C3982 H3963 0.951 . S
C3982 C3980 1.388 . S
C3982 C3983 1.366 . S
C3983 C3982 1.366 . S
C3983 C3984 1.414 . S
C3983 C3986 1.499 . S
C3984 H3964 0.950 . S
C3984 C3983 1.414 . S
C3984 C3985 1.374 . S
C3985 H3965 0.950 . S
C3985 C3981 1.385 . S
C3985 C3984 1.374 . S
C3986 C3983 1.499 . S
C3986 C3987 1.373 . S
C3986 C3988 1.389 . S
C3987 H3966 0.950 . S
C3987 C3986 1.373 . S
C3987 C4003 1.377 . S
C3988 C3986 1.389 . S
C3988 C3989 1.524 . S
C3988 C4002 1.377 . S
C3989 C3988 1.524 . S
C3989 C3990 1.397 . S
C3989 C3994 1.363 . S
C3990 H3967 0.950 . S
C3990 C3989 1.397 . S
C3990 C3991 1.334 . S
C3991 H3968 0.950 . S
C3991 C3990 1.334 . S
C3991 C3992 1.287 . S
C3992 C3991 1.287 . S
C3992 C3993 1.524 . S
C3992 H4011 0.913 . S
C3993 H3969 0.950 . S
C3993 C3992 1.524 . S
C3993 C3994 1.415 . S
C3994 H3970 0.950 . S
C3994 C3989 1.363 . S
C3994 C3993 1.415 . S
C3995 H3971 0.951 . S
C3995 C3996 1.366 . S
C3995 C3997 1.388 . S
C3996 C3995 1.366 . S
C3996 C4000 1.385 . S
C3997 H3972 0.951 . S
C3997 C3995 1.388 . S
C3997 C3998 1.366 . S
C3998 C3997 1.366 . S
C3998 C3999 1.414 . S
C3998 C4001 1.499 . S
C3999 H3973 0.950 . S
C3999 C3998 1.414 . S
C3999 C4000 1.374 . S
C4000 H3974 0.950 . S
C4000 C3996 1.385 . S
C4000 C3999 1.374 . S
C4001 C3998 1.499 . S
C4001 C4002 1.373 . S
C4001 C4003 1.389 . S
C4002 H3975 0.950 . S
C4002 C3988 1.377 . S
C4002 C4001 1.373 . S
C4003 C3987 1.377 . S
C4003 C4001 1.389 . S
C4003 C4004 1.524 . S
C4004 C4003 1.524 . S
C4004 C4005 1.397 . S
C4004 C4009 1.363 . S
C4005 H3976 0.950 . S
C4005 C4004 1.397 . S
C4005 C4006 1.334 . S
C4006 H3977 0.950 . S
C4006 C4005 1.334 . S
C4006 C4007 1.287 . S
C4007 C4006 1.287 . S
C4007 C4008 1.524 . S
C4007 H4010 0.999 . S
C4008 H3978 0.950 . S
C4008 C4007 1.524 . S
C4008 C4009 1.415 . S
C4009 H3979 0.950 . S
C4009 C4004 1.363 . S
C4009 C4008 1.415 . S
H4010 C4007 0.999 . S
H4011 C3992 0.913 . S
H4012 C4030 0.951 . S
H4013 C4032 0.951 . S
H4014 C4034 0.950 . S
H4015 C4035 0.950 . S
H4016 C4037 0.950 . S
H4017 C4040 0.950 . S
H4018 C4041 0.950 . S
H4019 C4043 0.950 . S
H4020 C4044 0.950 . S
H4021 C4045 0.951 . S
H4022 C4047 0.951 . S
H4023 C4049 0.950 . S
H4024 C4050 0.950 . S
H4025 C4052 0.950 . S
H4026 C4055 0.950 . S
H4027 C4056 0.950 . S
H4028 C4058 0.950 . S
H4029 C4059 0.950 . S
C4030 H4012 0.951 . S
C4030 C4031 1.366 . S
C4030 C4032 1.388 . S
C4031 C4030 1.366 . S
C4031 C4035 1.385 . S
C4032 H4013 0.951 . S
C4032 C4030 1.388 . S
C4032 C4033 1.366 . S
C4033 C4032 1.366 . S
C4033 C4034 1.414 . S
C4033 C4036 1.499 . S
C4034 H4014 0.950 . S
C4034 C4033 1.414 . S
C4034 C4035 1.374 . S
C4035 H4015 0.950 . S
C4035 C4031 1.385 . S
C4035 C4034 1.374 . S
C4036 C4033 1.499 . S
C4036 C4037 1.373 . S
C4036 C4038 1.389 . S
C4037 H4016 0.950 . S
C4037 C4036 1.373 . S
C4037 C4053 1.377 . S
C4038 C4036 1.389 . S
C4038 C4039 1.524 . S
C4038 C4052 1.377 . S
C4039 C4038 1.524 . S
C4039 C4040 1.397 . S
C4039 C4044 1.363 . S
C4040 H4017 0.950 . S
C4040 C4039 1.397 . S
C4040 C4041 1.334 . S
C4041 H4018 0.950 . S
C4041 C4040 1.334 . S
C4041 C4042 1.287 . S
C4042 C4041 1.287 . S
C4042 C4043 1.524 . S
C4042 H4061 0.913 . S
C4043 H4019 0.950 . S
C4043 C4042 1.524 . S
C4043 C4044 1.415 . S
C4044 H4020 0.950 . S
C4044 C4039 1.363 . S
C4044 C4043 1.415 . S
C4045 H4021 0.951 . S
C4045 C4046 1.366 . S
C4045 C4047 1.388 . S
C4046 C4045 1.366 . S
C4046 C4050 1.385 . S
C4047 H4022 0.951 . S
C4047 C4045 1.388 . S
C4047 C4048 1.366 . S
C4048 C4047 1.366 . S
C4048 C4049 1.414 . S
C4048 C4051 1.499 . S
C4049 H4023 0.950 . S
C4049 C4048 1.414 . S
C4049 C4050 1.374 . S
C4050 H4024 0.950 . S
C4050 C4046 1.385 . S
C4050 C4049 1.374 . S
C4051 C4048 1.499 . S
C4051 C4052 1.373 . S
C4051 C4053 1.389 . S
C4052 H4025 0.950 . S
C4052 C4038 1.377 . S
C4052 C4051 1.373 . S
C4053 C4037 1.377 . S
C4053 C4051 1.389 . S
C4053 C4054 1.524 . S
C4054 C4053 1.524 . S
C4054 C4055 1.397 . S
C4054 C4059 1.363 . S
C4055 H4026 0.950 . S
C4055 C4054 1.397 . S
C4055 C4056 1.334 . S
C4056 H4027 0.950 . S
C4056 C4055 1.334 . S
C4056 C4057 1.287 . S
C4057 C4056 1.287 . S
C4057 C4058 1.524 . S
C4057 H4060 0.999 . S
C4058 H4028 0.950 . S
C4058 C4057 1.524 . S
C4058 C4059 1.415 . S
C4059 H4029 0.950 . S
C4059 C4054 1.363 . S
C4059 C4058 1.415 . S
H4060 C4057 0.999 . S
H4061 C4042 0.913 . S
H4062 C4080 0.951 . S
H4063 C4082 0.951 . S
H4064 C4084 0.950 . S
H4065 C4085 0.950 . S
H4066 C4087 0.951 . S
H4067 C4090 0.950 . S
H4068 C4091 0.950 . S
H4069 C4093 0.950 . S
H4070 C4094 0.950 . S
H4071 C4095 0.951 . S
H4072 C4097 0.951 . S
H4073 C4099 0.950 . S
H4074 C4100 0.947 1_565 S
H4075 C4102 0.950 . S
H4076 C4105 0.950 . S
H4077 C4106 0.950 . S
H4078 C4108 0.950 . S
H4079 C4109 0.973 . S
C4080 H4062 0.951 . S
C4080 C4081 1.366 . S
C4080 C4082 1.388 . S
C4081 C4080 1.366 . S
C4081 C4085 1.385 . S
C4082 H4063 0.951 . S
C4082 C4080 1.388 . S
C4082 C4083 1.366 . S
C4083 C4082 1.366 . S
C4083 C4084 1.414 . S
C4083 C4086 1.499 . S
C4084 H4064 0.950 . S
C4084 C4083 1.414 . S
C4084 C4085 1.374 . S
C4085 H4065 0.950 . S
C4085 C4081 1.385 . S
C4085 C4084 1.374 . S
C4086 C4083 1.499 . S
C4086 C4087 1.373 . S
C4086 C4088 1.389 . S
C4087 H4066 0.951 . S
C4087 C4086 1.373 . S
C4087 C4103 1.377 . S
C4088 C4086 1.389 . S
C4088 C4089 1.524 . S
C4088 C4102 1.377 . S
C4089 C4088 1.524 . S
C4089 C4090 1.397 . S
C4089 C4094 1.363 . S
C4090 H4067 0.950 . S
C4090 C4089 1.397 . S
C4090 C4091 1.334 . S
C4091 H4068 0.950 . S
C4091 C4090 1.334 . S
C4091 C4092 1.287 . S
C4092 C4091 1.287 . S
C4092 C4093 1.524 . S
C4092 H4111 0.913 . S
C4093 H4069 0.950 . S
C4093 C4092 1.524 . S
C4093 C4094 1.415 . S
C4094 H4070 0.950 . S
C4094 C4089 1.363 . S
C4094 C4093 1.415 . S
C4095 H4071 0.951 . S
C4095 C4096 1.366 . S
C4095 C4097 1.388 . S
C4096 C4095 1.366 . S
C4096 C4100 1.385 . S
C4097 H4072 0.951 . S
C4097 C4095 1.388 . S
C4097 C4098 1.366 . S
C4098 C4097 1.366 . S
C4098 C4099 1.414 . S
C4098 C4101 1.499 . S
C4099 H4073 0.950 . S
C4099 C4098 1.414 . S
C4099 C4100 1.374 . S
C4100 H4074 0.947 1_545 S
C4100 C4096 1.385 . S
C4100 C4099 1.374 . S
C4101 C4098 1.499 . S
C4101 C4102 1.373 . S
C4101 C4103 1.389 . S
C4102 H4075 0.950 . S
C4102 C4088 1.377 . S
C4102 C4101 1.373 . S
C4103 C4087 1.377 . S
C4103 C4101 1.389 . S
C4103 C4104 1.524 1_545 S
C4104 C4103 1.524 1_565 S
C4104 C4105 1.397 . S
C4104 C4109 1.363 . S
C4105 H4076 0.950 . S
C4105 C4104 1.397 . S
C4105 C4106 1.334 . S
C4106 H4077 0.950 . S
C4106 C4105 1.334 . S
C4106 C4107 1.287 . S
C4107 C4106 1.287 . S
C4107 C4108 1.524 . S
C4107 H4110 0.999 . S
C4108 H4078 0.950 . S
C4108 C4107 1.524 . S
C4108 C4109 1.415 . S
C4109 H4079 0.973 . S
C4109 C4104 1.363 . S
C4109 C4108 1.415 . S
H4110 C4107 0.999 . S
H4111 C4092 0.913 . S
H4112 C4130 0.977 . S
H4113 C4132 0.951 . S
H4114 C4134 0.950 . S
H4115 C4135 0.950 . S
H4116 C4137 0.950 . S
H4117 C4140 0.950 . S
H4118 C4141 0.950 . S
H4119 C4143 0.950 . S
H4120 C4144 0.950 . S
H4121 C4145 0.951 . S
H4122 C4147 0.951 . S
H4123 C4149 0.950 . S
H4124 C4150 0.950 . S
H4125 C4152 0.950 . S
H4126 C4155 0.950 . S
H4127 C4156 0.950 . S
H4128 C4158 0.950 . S
H4129 C4159 0.950 . S
C4130 H4112 0.977 . S
C4130 C4131 1.358 1_455 S
C4130 C4132 1.371 . S
C4131 C4130 1.358 1_655 S
C4131 C4135 1.385 . S
C4132 H4113 0.951 . S
C4132 C4130 1.371 . S
C4132 C4133 1.366 1_455 S
C4133 C4132 1.366 1_655 S
C4133 C4134 1.414 . S
C4133 C4136 1.499 . S
C4134 H4114 0.950 . S
C4134 C4133 1.414 . S
C4134 C4135 1.374 . S
C4135 H4115 0.950 . S
C4135 C4131 1.385 . S
C4135 C4134 1.374 . S
C4136 C4133 1.499 . S
C4136 C4137 1.373 . S
C4136 C4138 1.389 1_655 S
C4137 H4116 0.950 . S
C4137 C4136 1.373 . S
C4137 C4153 1.377 . S
C4138 C4136 1.389 1_455 S
C4138 C4139 1.524 . S
C4138 C4152 1.377 . S
C4139 C4138 1.524 . S
C4139 C4140 1.397 . S
C4139 C4144 1.363 . S
C4140 H4117 0.950 . S
C4140 C4139 1.397 . S
C4140 C4141 1.334 . S
C4141 H4118 0.950 . S
C4141 C4140 1.334 . S
C4141 C4142 1.287 . S
C4142 C4141 1.287 . S
C4142 C4143 1.524 . S
C4142 H4161 0.913 . S
C4143 H4119 0.950 . S
C4143 C4142 1.524 . S
C4143 C4144 1.415 . S
C4144 H4120 0.950 . S
C4144 C4139 1.363 . S
C4144 C4143 1.415 . S
C4145 H4121 0.951 . S
C4145 C4146 1.366 . S
C4145 C4147 1.388 . S
C4146 C4145 1.366 . S
C4146 C4150 1.385 1_655 S
C4147 H4122 0.951 . S
C4147 C4145 1.388 . S
C4147 C4148 1.366 . S
C4148 C4147 1.366 . S
C4148 C4149 1.414 1_655 S
C4148 C4151 1.499 . S
C4149 H4123 0.950 . S
C4149 C4148 1.414 1_455 S
C4149 C4150 1.374 . S
C4150 H4124 0.950 . S
C4150 C4146 1.385 1_455 S
C4150 C4149 1.374 . S
C4151 C4148 1.499 . S
C4151 C4152 1.373 1_655 S
C4151 C4153 1.389 . S
C4152 H4125 0.950 . S
C4152 C4138 1.377 . S
C4152 C4151 1.373 1_455 S
C4153 C4137 1.377 . S
C4153 C4151 1.389 . S
C4153 C4154 1.524 . S
C4154 C4153 1.524 . S
C4154 C4155 1.397 . S
C4154 C4159 1.363 . S
C4155 H4126 0.950 . S
C4155 C4154 1.397 . S
C4155 C4156 1.334 . S
C4156 H4127 0.950 . S
C4156 C4155 1.334 . S
C4156 C4157 1.287 . S
C4157 C4156 1.287 . S
C4157 C4158 1.524 . S
C4157 H4160 0.999 . S
C4158 H4128 0.950 . S
C4158 C4157 1.524 . S
C4158 C4159 1.415 . S
C4159 H4129 0.950 . S
C4159 C4154 1.363 . S
C4159 C4158 1.415 . S
H4160 C4157 0.999 . S
H4161 C4142 0.913 . S
H4162 C4180 0.951 . S
H4163 C4182 0.951 . S
H4164 C4184 0.950 . S
H4165 C4185 0.950 . S
H4166 C4187 0.950 . S
H4167 C4190 0.950 . S
H4168 C4191 0.950 . S
H4169 C4193 0.950 . S
H4170 C4194 0.950 . S
H4171 C4195 0.951 . S
H4172 C4197 0.951 . S
H4173 C4199 0.950 . S
H4174 C4200 0.950 . S
H4175 C4202 0.950 . S
H4176 C4205 0.950 . S
H4177 C4206 0.950 . S
H4178 C4208 0.950 . S
H4179 C4209 0.950 . S
C4180 H4162 0.951 . S
C4180 C4181 1.366 . S
C4180 C4182 1.388 . S
C4181 C4180 1.366 . S
C4181 C4185 1.385 . S
C4182 H4163 0.951 . S
C4182 C4180 1.388 . S
C4182 C4183 1.366 . S
C4183 C4182 1.366 . S
C4183 C4184 1.414 . S
C4183 C4186 1.499 . S
C4184 H4164 0.950 . S
C4184 C4183 1.414 . S
C4184 C4185 1.374 . S
C4185 H4165 0.950 . S
C4185 C4181 1.385 . S
C4185 C4184 1.374 . S
C4186 C4183 1.499 . S
C4186 C4187 1.373 . S
C4186 C4188 1.389 . S
C4187 H4166 0.950 . S
C4187 C4186 1.373 . S
C4187 C4203 1.377 . S
C4188 C4186 1.389 . S
C4188 C4189 1.524 . S
C4188 C4202 1.377 . S
C4189 C4188 1.524 . S
C4189 C4190 1.397 . S
C4189 C4194 1.363 . S
C4190 H4167 0.950 . S
C4190 C4189 1.397 . S
C4190 C4191 1.334 . S
C4191 H4168 0.950 . S
C4191 C4190 1.334 . S
C4191 C4192 1.287 . S
C4192 C4191 1.287 . S
C4192 C4193 1.524 . S
C4192 H4211 0.913 . S
C4193 H4169 0.950 . S
C4193 C4192 1.524 . S
C4193 C4194 1.415 . S
C4194 H4170 0.950 . S
C4194 C4189 1.363 . S
C4194 C4193 1.415 . S
C4195 H4171 0.951 . S
C4195 C4196 1.366 . S
C4195 C4197 1.388 . S
C4196 C4195 1.366 . S
C4196 C4200 1.385 . S
C4197 H4172 0.951 . S
C4197 C4195 1.388 . S
C4197 C4198 1.366 . S
C4198 C4197 1.366 . S
C4198 C4199 1.414 . S
C4198 C4201 1.499 . S
C4199 H4173 0.950 . S
C4199 C4198 1.414 . S
C4199 C4200 1.374 . S
C4200 H4174 0.950 . S
C4200 C4196 1.385 . S
C4200 C4199 1.374 . S
C4201 C4198 1.499 . S
C4201 C4202 1.373 . S
C4201 C4203 1.389 . S
C4202 H4175 0.950 . S
C4202 C4188 1.377 . S
C4202 C4201 1.373 . S
C4203 C4187 1.377 . S
C4203 C4201 1.389 . S
C4203 C4204 1.524 . S
C4204 C4203 1.524 . S
C4204 C4205 1.397 . S
C4204 C4209 1.363 . S
C4205 H4176 0.950 . S
C4205 C4204 1.397 . S
C4205 C4206 1.334 . S
C4206 H4177 0.950 . S
C4206 C4205 1.334 . S
C4206 C4207 1.287 . S
C4207 C4206 1.287 . S
C4207 C4208 1.524 . S
C4207 H4210 0.999 . S
C4208 H4178 0.950 . S
C4208 C4207 1.524 . S
C4208 C4209 1.415 . S
C4209 H4179 0.950 . S
C4209 C4204 1.363 . S
C4209 C4208 1.415 . S
H4210 C4207 0.999 . S
H4211 C4192 0.913 . S
H4212 C4230 0.951 . S
H4213 C4232 0.951 . S
H4214 C4234 0.950 . S
H4215 C4235 0.950 . S
H4216 C4237 0.950 . S
H4217 C4240 0.950 . S
H4218 C4241 0.950 . S
H4219 C4243 0.950 . S
H4220 C4244 0.950 . S
H4221 C4245 0.951 . S
H4222 C4247 0.951 . S
H4223 C4249 0.950 . S
H4224 C4250 0.950 . S
H4225 C4252 0.950 . S
H4226 C4255 0.950 . S
H4227 C4256 0.950 . S
H4228 C4258 0.950 . S
H4229 C4259 0.950 . S
C4230 H4212 0.951 . S
C4230 C4231 1.366 . S
C4230 C4232 1.388 . S
C4231 C4230 1.366 . S
C4231 C4235 1.385 . S
C4232 H4213 0.951 . S
C4232 C4230 1.388 . S
C4232 C4233 1.366 . S
C4233 C4232 1.366 . S
C4233 C4234 1.414 . S
C4233 C4236 1.499 . S
C4234 H4214 0.950 . S
C4234 C4233 1.414 . S
C4234 C4235 1.374 . S
C4235 H4215 0.950 . S
C4235 C4231 1.385 . S
C4235 C4234 1.374 . S
C4236 C4233 1.499 . S
C4236 C4237 1.373 . S
C4236 C4238 1.389 . S
C4237 H4216 0.950 . S
C4237 C4236 1.373 . S
C4237 C4253 1.377 . S
C4238 C4236 1.389 . S
C4238 C4239 1.524 . S
C4238 C4252 1.377 . S
C4239 C4238 1.524 . S
C4239 C4240 1.397 . S
C4239 C4244 1.363 . S
C4240 H4217 0.950 . S
C4240 C4239 1.397 . S
C4240 C4241 1.334 . S
C4241 H4218 0.950 . S
C4241 C4240 1.334 . S
C4241 C4242 1.287 . S
C4242 C4241 1.287 . S
C4242 C4243 1.524 . S
C4242 H4261 0.913 . S
C4243 H4219 0.950 . S
C4243 C4242 1.524 . S
C4243 C4244 1.415 . S
C4244 H4220 0.950 . S
C4244 C4239 1.363 . S
C4244 C4243 1.415 . S
C4245 H4221 0.951 . S
C4245 C4246 1.366 . S
C4245 C4247 1.388 . S
C4246 C4245 1.366 . S
C4246 C4250 1.385 . S
C4247 H4222 0.951 . S
C4247 C4245 1.388 . S
C4247 C4248 1.366 . S
C4248 C4247 1.366 . S
C4248 C4249 1.414 . S
C4248 C4251 1.499 . S
C4249 H4223 0.950 . S
C4249 C4248 1.414 . S
C4249 C4250 1.374 . S
C4250 H4224 0.950 . S
C4250 C4246 1.385 . S
C4250 C4249 1.374 . S
C4251 C4248 1.499 . S
C4251 C4252 1.373 . S
C4251 C4253 1.389 . S
C4252 H4225 0.950 . S
C4252 C4238 1.377 . S
C4252 C4251 1.373 . S
C4253 C4237 1.377 . S
C4253 C4251 1.389 . S
C4253 C4254 1.524 . S
C4254 C4253 1.524 . S
C4254 C4255 1.397 . S
C4254 C4259 1.363 . S
C4255 H4226 0.950 . S
C4255 C4254 1.397 . S
C4255 C4256 1.334 . S
C4256 H4227 0.950 . S
C4256 C4255 1.334 . S
C4256 C4257 1.287 . S
C4257 C4256 1.287 . S
C4257 C4258 1.524 . S
C4257 H4260 0.999 . S
C4258 H4228 0.950 . S
C4258 C4257 1.524 . S
C4258 C4259 1.415 . S
C4259 H4229 0.950 . S
C4259 C4254 1.363 . S
C4259 C4258 1.415 . S
H4260 C4257 0.999 . S
H4261 C4242 0.913 . S
H4262 C4280 0.951 . S
H4263 C4282 0.951 . S
H4264 C4284 0.950 . S
H4265 C4285 0.950 . S
H4266 C4287 0.950 . S
H4267 C4290 0.950 . S
H4268 C4291 0.950 . S
H4269 C4293 0.950 . S
H4270 C4294 0.950 . S
H4271 C4295 0.951 . S
H4272 C4297 0.951 . S
H4273 C4299 0.950 . S
H4274 C4300 0.950 . S
H4275 C4302 0.950 . S
H4276 C4305 0.950 . S
H4277 C4306 0.950 . S
H4278 C4308 0.950 . S
H4279 C4309 0.950 . S
C4280 H4262 0.951 . S
C4280 C4281 1.366 . S
C4280 C4282 1.388 . S
C4281 C4280 1.366 . S
C4281 C4285 1.385 . S
C4282 H4263 0.951 . S
C4282 C4280 1.388 . S
C4282 C4283 1.366 . S
C4283 C4282 1.366 . S
C4283 C4284 1.414 . S
C4283 C4286 1.499 . S
C4284 H4264 0.950 . S
C4284 C4283 1.414 . S
C4284 C4285 1.374 . S
C4285 H4265 0.950 . S
C4285 C4281 1.385 . S
C4285 C4284 1.374 . S
C4286 C4283 1.499 . S
C4286 C4287 1.373 . S
C4286 C4288 1.389 . S
C4287 H4266 0.950 . S
C4287 C4286 1.373 . S
C4287 C4303 1.377 . S
C4288 C4286 1.389 . S
C4288 C4289 1.524 . S
C4288 C4302 1.377 . S
C4289 C4288 1.524 . S
C4289 C4290 1.397 . S
C4289 C4294 1.363 . S
C4290 H4267 0.950 . S
C4290 C4289 1.397 . S
C4290 C4291 1.334 . S
C4291 H4268 0.950 . S
C4291 C4290 1.334 . S
C4291 C4292 1.287 . S
C4292 C4291 1.287 . S
C4292 C4293 1.524 . S
C4292 H4311 0.913 . S
C4293 H4269 0.950 . S
C4293 C4292 1.524 . S
C4293 C4294 1.415 . S
C4294 H4270 0.950 . S
C4294 C4289 1.363 . S
C4294 C4293 1.415 . S
C4295 H4271 0.951 . S
C4295 C4296 1.366 . S
C4295 C4297 1.388 . S
C4296 C4295 1.366 . S
C4296 C4300 1.385 . S
C4297 H4272 0.951 . S
C4297 C4295 1.388 . S
C4297 C4298 1.366 . S
C4298 C4297 1.366 . S
C4298 C4299 1.414 . S
C4298 C4301 1.499 . S
C4299 H4273 0.950 . S
C4299 C4298 1.414 . S
C4299 C4300 1.374 . S
C4300 H4274 0.950 . S
C4300 C4296 1.385 . S
C4300 C4299 1.374 . S
C4301 C4298 1.499 . S
C4301 C4302 1.373 . S
C4301 C4303 1.389 . S
C4302 H4275 0.950 . S
C4302 C4288 1.377 . S
C4302 C4301 1.373 . S
C4303 C4287 1.377 . S
C4303 C4301 1.389 . S
C4303 C4304 1.524 . S
C4304 C4303 1.524 . S
C4304 C4305 1.397 . S
C4304 C4309 1.363 . S
C4305 H4276 0.950 . S
C4305 C4304 1.397 . S
C4305 C4306 1.334 . S
C4306 H4277 0.950 . S
C4306 C4305 1.334 . S
C4306 C4307 1.287 . S
C4307 C4306 1.287 . S
C4307 C4308 1.524 . S
C4307 H4310 0.999 . S
C4308 H4278 0.950 . S
C4308 C4307 1.524 . S
C4308 C4309 1.415 . S
C4309 H4279 0.950 . S
C4309 C4304 1.363 . S
C4309 C4308 1.415 . S
H4310 C4307 0.999 . S
H4311 C4292 0.913 . S
H4312 C4330 0.951 . S
H4313 C4332 0.951 . S
H4314 C4334 0.950 . S
H4315 C4335 0.950 . S
H4316 C4337 0.950 . S
H4317 C4340 0.950 . S
H4318 C4341 0.950 . S
H4319 C4343 0.950 . S
H4320 C4344 0.950 . S
H4321 C4345 0.951 . S
H4322 C4347 0.951 . S
H4323 C4349 0.950 . S
H4324 C4350 0.950 . S
H4325 C4352 0.950 . S
H4326 C4355 0.950 . S
H4327 C4356 0.950 . S
H4328 C4358 0.950 . S
H4329 C4359 0.950 . S
C4330 H4312 0.951 . S
C4330 C4331 1.366 . S
C4330 C4332 1.388 . S
C4331 C4330 1.366 . S
C4331 C4335 1.385 . S
C4332 H4313 0.951 . S
C4332 C4330 1.388 . S
C4332 C4333 1.366 . S
C4333 C4332 1.366 . S
C4333 C4334 1.414 . S
C4333 C4336 1.499 . S
C4334 H4314 0.950 . S
C4334 C4333 1.414 . S
C4334 C4335 1.374 . S
C4335 H4315 0.950 . S
C4335 C4331 1.385 . S
C4335 C4334 1.374 . S
C4336 C4333 1.499 . S
C4336 C4337 1.373 . S
C4336 C4338 1.389 . S
C4337 H4316 0.950 . S
C4337 C4336 1.373 . S
C4337 C4353 1.377 . S
C4338 C4336 1.389 . S
C4338 C4339 1.524 . S
C4338 C4352 1.377 . S
C4339 C4338 1.524 . S
C4339 C4340 1.397 . S
C4339 C4344 1.363 . S
C4340 H4317 0.950 . S
C4340 C4339 1.397 . S
C4340 C4341 1.334 . S
C4341 H4318 0.950 . S
C4341 C4340 1.334 . S
C4341 C4342 1.287 . S
C4342 C4341 1.287 . S
C4342 C4343 1.524 . S
C4342 H4361 0.913 . S
C4343 H4319 0.950 . S
C4343 C4342 1.524 . S
C4343 C4344 1.415 . S
C4344 H4320 0.950 . S
C4344 C4339 1.363 . S
C4344 C4343 1.415 . S
C4345 H4321 0.951 . S
C4345 C4346 1.366 . S
C4345 C4347 1.388 . S
C4346 C4345 1.366 . S
C4346 C4350 1.385 . S
C4347 H4322 0.951 . S
C4347 C4345 1.388 . S
C4347 C4348 1.366 . S
C4348 C4347 1.366 . S
C4348 C4349 1.414 . S
C4348 C4351 1.499 . S
C4349 H4323 0.950 . S
C4349 C4348 1.414 . S
C4349 C4350 1.374 . S
C4350 H4324 0.950 . S
C4350 C4346 1.385 . S
C4350 C4349 1.374 . S
C4351 C4348 1.499 . S
C4351 C4352 1.373 . S
C4351 C4353 1.389 . S
C4352 H4325 0.950 . S
C4352 C4338 1.377 . S
C4352 C4351 1.373 . S
C4353 C4337 1.377 . S
C4353 C4351 1.389 . S
C4353 C4354 1.524 . S
C4354 C4353 1.524 . S
C4354 C4355 1.397 . S
C4354 C4359 1.363 . S
C4355 H4326 0.950 . S
C4355 C4354 1.397 . S
C4355 C4356 1.334 . S
C4356 H4327 0.950 . S
C4356 C4355 1.334 . S
C4356 C4357 1.287 . S
C4357 C4356 1.287 . S
C4357 C4358 1.524 . S
C4357 H4360 0.999 . S
C4358 H4328 0.950 . S
C4358 C4357 1.524 . S
C4358 C4359 1.415 . S
C4359 H4329 0.950 . S
C4359 C4354 1.363 . S
C4359 C4358 1.415 . S
H4360 C4357 0.999 . S
H4361 C4342 0.913 . S
H4362 C4380 0.951 . S
H4363 C4382 0.951 . S
H4364 C4384 0.950 . S
H4365 C4385 0.950 . S
H4366 C4387 0.950 . S
H4367 C4390 0.950 . S
H4368 C4391 0.950 . S
H4369 C4393 0.950 . S
H4370 C4394 0.950 . S
H4371 C4395 0.951 . S
H4372 C4397 0.951 . S
H4373 C4399 0.950 . S
H4374 C4400 0.950 . S
H4375 C4402 0.950 . S
H4376 C4405 0.950 . S
H4377 C4406 0.950 . S
H4378 C4408 0.950 . S
H4379 C4409 0.950 . S
C4380 H4362 0.951 . S
C4380 C4381 1.366 . S
C4380 C4382 1.388 . S
C4381 C4380 1.366 . S
C4381 C4385 1.385 . S
C4382 H4363 0.951 . S
C4382 C4380 1.388 . S
C4382 C4383 1.366 . S
C4383 C4382 1.366 . S
C4383 C4384 1.414 . S
C4383 C4386 1.499 . S
C4384 H4364 0.950 . S
C4384 C4383 1.414 . S
C4384 C4385 1.374 . S
C4385 H4365 0.950 . S
C4385 C4381 1.385 . S
C4385 C4384 1.374 . S
C4386 C4383 1.499 . S
C4386 C4387 1.373 . S
C4386 C4388 1.389 . S
C4387 H4366 0.950 . S
C4387 C4386 1.373 . S
C4387 C4403 1.377 . S
C4388 C4386 1.389 . S
C4388 C4389 1.524 . S
C4388 C4402 1.377 . S
C4389 C4388 1.524 . S
C4389 C4390 1.397 . S
C4389 C4394 1.363 . S
C4390 H4367 0.950 . S
C4390 C4389 1.397 . S
C4390 C4391 1.334 . S
C4391 H4368 0.950 . S
C4391 C4390 1.334 . S
C4391 C4392 1.287 . S
C4392 C4391 1.287 . S
C4392 C4393 1.524 . S
C4392 H4411 0.913 . S
C4393 H4369 0.950 . S
C4393 C4392 1.524 . S
C4393 C4394 1.415 . S
C4394 H4370 0.950 . S
C4394 C4389 1.363 . S
C4394 C4393 1.415 . S
C4395 H4371 0.951 . S
C4395 C4396 1.366 . S
C4395 C4397 1.388 . S
C4396 C4395 1.366 . S
C4396 C4400 1.385 . S
C4397 H4372 0.951 . S
C4397 C4395 1.388 . S
C4397 C4398 1.366 . S
C4398 C4397 1.366 . S
C4398 C4399 1.414 . S
C4398 C4401 1.499 . S
C4399 H4373 0.950 . S
C4399 C4398 1.414 . S
C4399 C4400 1.374 . S
C4400 H4374 0.950 . S
C4400 C4396 1.385 . S
C4400 C4399 1.374 . S
C4401 C4398 1.499 . S
C4401 C4402 1.373 . S
C4401 C4403 1.389 . S
C4402 H4375 0.950 . S
C4402 C4388 1.377 . S
C4402 C4401 1.373 . S
C4403 C4387 1.377 . S
C4403 C4401 1.389 . S
C4403 C4404 1.524 . S
C4404 C4403 1.524 . S
C4404 C4405 1.397 . S
C4404 C4409 1.363 . S
C4405 H4376 0.950 . S
C4405 C4404 1.397 . S
C4405 C4406 1.334 . S
C4406 H4377 0.950 . S
C4406 C4405 1.334 . S
C4406 C4407 1.287 . S
C4407 C4406 1.287 . S
C4407 C4408 1.524 . S
C4407 H4410 0.999 . S
C4408 H4378 0.950 . S
C4408 C4407 1.524 . S
C4408 C4409 1.415 . S
C4409 H4379 0.950 . S
C4409 C4404 1.363 . S
C4409 C4408 1.415 . S
H4410 C4407 0.999 . S
H4411 C4392 0.913 . S
H4412 C4430 0.951 . S
H4413 C4432 0.951 . S
H4414 C4434 0.950 . S
H4415 C4435 0.950 . S
H4416 C4437 0.950 . S
H4417 C4440 0.950 . S
H4418 C4441 0.950 . S
H4419 C4443 0.950 . S
H4420 C4444 0.950 . S
H4421 C4445 0.951 . S
H4422 C4447 0.951 . S
H4423 C4449 0.950 . S
H4424 C4450 0.950 . S
H4425 C4452 0.950 . S
H4426 C4455 0.950 . S
H4427 C4456 0.950 . S
H4428 C4458 0.950 . S
H4429 C4459 0.950 . S
C4430 H4412 0.951 . S
C4430 C4431 1.366 . S
C4430 C4432 1.388 . S
C4431 C4430 1.366 . S
C4431 C4435 1.385 . S
C4432 H4413 0.951 . S
C4432 C4430 1.388 . S
C4432 C4433 1.366 . S
C4433 C4432 1.366 . S
C4433 C4434 1.414 . S
C4433 C4436 1.499 . S
C4434 H4414 0.950 . S
C4434 C4433 1.414 . S
C4434 C4435 1.374 . S
C4435 H4415 0.950 . S
C4435 C4431 1.385 . S
C4435 C4434 1.374 . S
C4436 C4433 1.499 . S
C4436 C4437 1.373 . S
C4436 C4438 1.389 . S
C4437 H4416 0.950 . S
C4437 C4436 1.373 . S
C4437 C4453 1.377 . S
C4438 C4436 1.389 . S
C4438 C4439 1.524 . S
C4438 C4452 1.377 . S
C4439 C4438 1.524 . S
C4439 C4440 1.397 . S
C4439 C4444 1.363 . S
C4440 H4417 0.950 . S
C4440 C4439 1.397 . S
C4440 C4441 1.334 . S
C4441 H4418 0.950 . S
C4441 C4440 1.334 . S
C4441 C4442 1.287 . S
C4442 C4441 1.287 . S
C4442 C4443 1.524 . S
C4442 H4461 0.913 . S
C4443 H4419 0.950 . S
C4443 C4442 1.524 . S
C4443 C4444 1.415 . S
C4444 H4420 0.950 . S
C4444 C4439 1.363 . S
C4444 C4443 1.415 . S
C4445 H4421 0.951 . S
C4445 C4446 1.366 . S
C4445 C4447 1.388 . S
C4446 C4445 1.366 . S
C4446 C4450 1.385 . S
C4447 H4422 0.951 . S
C4447 C4445 1.388 . S
C4447 C4448 1.366 . S
C4448 C4447 1.366 . S
C4448 C4449 1.414 . S
C4448 C4451 1.499 . S
C4449 H4423 0.950 . S
C4449 C4448 1.414 . S
C4449 C4450 1.374 . S
C4450 H4424 0.950 . S
C4450 C4446 1.385 . S
C4450 C4449 1.374 . S
C4451 C4448 1.499 . S
C4451 C4452 1.373 . S
C4451 C4453 1.389 . S
C4452 H4425 0.950 . S
C4452 C4438 1.377 . S
C4452 C4451 1.373 . S
C4453 C4437 1.377 . S
C4453 C4451 1.389 . S
C4453 C4454 1.524 . S
C4454 C4453 1.524 . S
C4454 C4455 1.397 . S
C4454 C4459 1.363 . S
C4455 H4426 0.950 . S
C4455 C4454 1.397 . S
C4455 C4456 1.334 . S
C4456 H4427 0.950 . S
C4456 C4455 1.334 . S
C4456 C4457 1.287 . S
C4457 C4456 1.287 . S
C4457 C4458 1.524 . S
C4457 H4460 0.999 . S
C4458 H4428 0.950 . S
C4458 C4457 1.524 . S
C4458 C4459 1.415 . S
C4459 H4429 0.950 . S
C4459 C4454 1.363 . S
C4459 C4458 1.415 . S
H4460 C4457 0.999 . S
H4461 C4442 0.913 . S
H4462 C4480 0.951 . S
H4463 C4482 0.951 . S
H4464 C4484 0.950 . S
H4465 C4485 0.950 . S
H4466 C4487 0.950 . S
H4467 C4490 0.950 . S
H4468 C4491 0.950 . S
H4469 C4493 0.950 . S
H4470 C4494 0.950 . S
H4471 C4495 0.951 . S
H4472 C4497 0.951 . S
H4473 C4499 0.950 . S
H4474 C4500 0.950 . S
H4475 C4502 0.950 . S
H4476 C4505 0.950 . S
H4477 C4506 0.950 . S
H4478 C4508 0.950 . S
H4479 C4509 0.950 . S
C4480 H4462 0.951 . S
C4480 C4481 1.366 . S
C4480 C4482 1.388 . S
C4481 C4480 1.366 . S
C4481 C4485 1.385 . S
C4482 H4463 0.951 . S
C4482 C4480 1.388 . S
C4482 C4483 1.366 . S
C4483 C4482 1.366 . S
C4483 C4484 1.414 . S
C4483 C4486 1.499 . S
C4484 H4464 0.950 . S
C4484 C4483 1.414 . S
C4484 C4485 1.374 . S
C4485 H4465 0.950 . S
C4485 C4481 1.385 . S
C4485 C4484 1.374 . S
C4486 C4483 1.499 . S
C4486 C4487 1.373 . S
C4486 C4488 1.389 . S
C4487 H4466 0.950 . S
C4487 C4486 1.373 . S
C4487 C4503 1.377 . S
C4488 C4486 1.389 . S
C4488 C4489 1.524 . S
C4488 C4502 1.377 . S
C4489 C4488 1.524 . S
C4489 C4490 1.397 . S
C4489 C4494 1.363 . S
C4490 H4467 0.950 . S
C4490 C4489 1.397 . S
C4490 C4491 1.334 . S
C4491 H4468 0.950 . S
C4491 C4490 1.334 . S
C4491 C4492 1.287 . S
C4492 C4491 1.287 . S
C4492 C4493 1.524 . S
C4492 H4511 0.913 . S
C4493 H4469 0.950 . S
C4493 C4492 1.524 . S
C4493 C4494 1.415 . S
C4494 H4470 0.950 . S
C4494 C4489 1.363 . S
C4494 C4493 1.415 . S
C4495 H4471 0.951 . S
C4495 C4496 1.366 . S
C4495 C4497 1.388 . S
C4496 C4495 1.366 . S
C4496 C4500 1.385 . S
C4497 H4472 0.951 . S
C4497 C4495 1.388 . S
C4497 C4498 1.366 . S
C4498 C4497 1.366 . S
C4498 C4499 1.414 . S
C4498 C4501 1.499 . S
C4499 H4473 0.950 . S
C4499 C4498 1.414 . S
C4499 C4500 1.374 . S
C4500 H4474 0.950 . S
C4500 C4496 1.385 . S
C4500 C4499 1.374 . S
C4501 C4498 1.499 . S
C4501 C4502 1.373 . S
C4501 C4503 1.389 . S
C4502 H4475 0.950 . S
C4502 C4488 1.377 . S
C4502 C4501 1.373 . S
C4503 C4487 1.377 . S
C4503 C4501 1.389 . S
C4503 C4504 1.524 . S
C4504 C4503 1.524 . S
C4504 C4505 1.397 . S
C4504 C4509 1.363 . S
C4505 H4476 0.950 . S
C4505 C4504 1.397 . S
C4505 C4506 1.334 . S
C4506 H4477 0.950 . S
C4506 C4505 1.334 . S
C4506 C4507 1.287 . S
C4507 C4506 1.287 . S
C4507 C4508 1.524 . S
C4507 H4510 0.999 . S
C4508 H4478 0.950 . S
C4508 C4507 1.524 . S
C4508 C4509 1.415 . S
C4509 H4479 0.950 . S
C4509 C4504 1.363 . S
C4509 C4508 1.415 . S
H4510 C4507 0.999 . S
H4511 C4492 0.913 . S
H4512 C4530 0.926 1_455 S
H4513 C4532 0.951 1_455 S
H4514 C4534 0.950 . S
H4515 C4535 0.950 . S
H4516 C4537 0.950 . S
H4517 C4540 0.950 . S
H4518 C4541 0.950 . S
H4519 C4543 0.950 . S
H4520 C4544 0.950 . S
H4521 C4545 0.951 . S
H4522 C4547 0.951 . S
H4523 C4549 0.950 . S
H4524 C4550 0.950 . S
H4525 C4552 0.950 . S
H4526 C4555 0.950 1_455 S
H4527 C4556 0.950 1_455 S
H4528 C4558 0.950 . S
H4529 C4559 0.950 . S
C4530 H4512 0.926 1_655 S
C4530 C4531 1.366 . S
C4530 C4532 1.388 . S
C4531 C4530 1.366 . S
C4531 C4535 1.385 . S
C4532 H4513 0.951 1_655 S
C4532 C4530 1.388 . S
C4532 C4533 1.366 . S
C4533 C4532 1.366 . S
C4533 C4534 1.414 . S
C4533 C4536 1.499 . S
C4534 H4514 0.950 . S
C4534 C4533 1.414 . S
C4534 C4535 1.374 . S
C4535 H4515 0.950 . S
C4535 C4531 1.385 . S
C4535 C4534 1.374 . S
C4536 C4533 1.499 . S
C4536 C4537 1.373 . S
C4536 C4538 1.389 . S
C4537 H4516 0.950 . S
C4537 C4536 1.373 . S
C4537 C4553 1.377 . S
C4538 C4536 1.389 . S
C4538 C4539 1.524 . S
C4538 C4552 1.377 . S
C4539 C4538 1.524 . S
C4539 C4540 1.397 . S
C4539 C4544 1.363 1_655 S
C4540 H4517 0.950 . S
C4540 C4539 1.397 . S
C4540 C4541 1.334 . S
C4541 H4518 0.950 . S
C4541 C4540 1.334 . S
C4541 C4542 1.287 . S
C4542 C4541 1.287 . S
C4542 C4543 1.524 1_655 S
C4542 H4561 0.913 . S
C4543 H4519 0.950 . S
C4543 C4542 1.524 1_455 S
C4543 C4544 1.415 . S
C4544 H4520 0.950 . S
C4544 C4539 1.363 1_455 S
C4544 C4543 1.415 . S
C4545 H4521 0.951 . S
C4545 C4546 1.366 . S
C4545 C4547 1.388 . S
C4546 C4545 1.366 . S
C4546 C4550 1.385 1_655 S
C4547 H4522 0.951 . S
C4547 C4545 1.388 . S
C4547 C4548 1.366 . S
C4548 C4547 1.366 . S
C4548 C4549 1.414 1_655 S
C4548 C4551 1.499 . S
C4549 H4523 0.950 . S
C4549 C4548 1.414 1_455 S
C4549 C4550 1.374 . S
C4550 H4524 0.950 . S
C4550 C4546 1.385 1_455 S
C4550 C4549 1.374 . S
C4551 C4548 1.499 . S
C4551 C4552 1.373 . S
C4551 C4553 1.389 . S
C4552 H4525 0.950 . S
C4552 C4538 1.377 . S
C4552 C4551 1.373 . S
C4553 C4537 1.377 . S
C4553 C4551 1.389 . S
C4553 C4554 1.524 . S
C4554 C4553 1.524 . S
C4554 C4555 1.397 . S
C4554 C4559 1.363 . S
C4555 H4526 0.950 1_655 S
C4555 C4554 1.397 . S
C4555 C4556 1.334 . S
C4556 H4527 0.950 1_655 S
C4556 C4555 1.334 . S
C4556 C4557 1.287 . S
C4557 C4556 1.287 . S
C4557 C4558 1.524 . S
C4557 H4560 0.999 . S
C4558 H4528 0.950 . S
C4558 C4557 1.524 . S
C4558 C4559 1.415 . S
C4559 H4529 0.950 . S
C4559 C4554 1.363 . S
C4559 C4558 1.415 . S
H4560 C4557 0.999 . S
H4561 C4542 0.913 . S
H4562 C4580 0.951 . S
H4563 C4582 0.951 . S
H4564 C4584 0.950 . S
H4565 C4585 0.950 . S
H4566 C4587 0.950 . S
H4567 C4590 0.950 . S
H4568 C4591 0.950 . S
H4569 C4593 0.950 . S
H4570 C4594 0.950 . S
H4571 C4595 0.951 . S
H4572 C4597 0.951 . S
H4573 C4599 0.950 . S
H4574 C4600 0.950 . S
H4575 C4602 0.950 . S
H4576 C4605 0.950 . S
H4577 C4606 0.950 . S
H4578 C4608 0.950 . S
H4579 C4609 0.950 . S
C4580 H4562 0.951 . S
C4580 C4581 1.366 . S
C4580 C4582 1.388 . S
C4581 C4580 1.366 . S
C4581 C4585 1.385 . S
C4582 H4563 0.951 . S
C4582 C4580 1.388 . S
C4582 C4583 1.366 . S
C4583 C4582 1.366 . S
C4583 C4584 1.414 . S
C4583 C4586 1.499 . S
C4584 H4564 0.950 . S
C4584 C4583 1.414 . S
C4584 C4585 1.374 . S
C4585 H4565 0.950 . S
C4585 C4581 1.385 . S
C4585 C4584 1.374 . S
C4586 C4583 1.499 . S
C4586 C4587 1.373 . S
C4586 C4588 1.389 . S
C4587 H4566 0.950 . S
C4587 C4586 1.373 . S
C4587 C4603 1.377 . S
C4588 C4586 1.389 . S
C4588 C4589 1.524 . S
C4588 C4602 1.377 . S
C4589 C4588 1.524 . S
C4589 C4590 1.397 . S
C4589 C4594 1.363 . S
C4590 H4567 0.950 . S
C4590 C4589 1.397 . S
C4590 C4591 1.334 . S
C4591 H4568 0.950 . S
C4591 C4590 1.334 . S
C4591 C4592 1.287 . S
C4592 C4591 1.287 . S
C4592 C4593 1.524 . S
C4592 H4611 0.913 . S
C4593 H4569 0.950 . S
C4593 C4592 1.524 . S
C4593 C4594 1.415 . S
C4594 H4570 0.950 . S
C4594 C4589 1.363 . S
C4594 C4593 1.415 . S
C4595 H4571 0.951 . S
C4595 C4596 1.366 . S
C4595 C4597 1.388 . S
C4596 C4595 1.366 . S
C4596 C4600 1.385 . S
C4597 H4572 0.951 . S
C4597 C4595 1.388 . S
C4597 C4598 1.366 . S
C4598 C4597 1.366 . S
C4598 C4599 1.414 . S
C4598 C4601 1.499 . S
C4599 H4573 0.950 . S
C4599 C4598 1.414 . S
C4599 C4600 1.374 . S
C4600 H4574 0.950 . S
C4600 C4596 1.385 . S
C4600 C4599 1.374 . S
C4601 C4598 1.499 . S
C4601 C4602 1.373 . S
C4601 C4603 1.389 . S
C4602 H4575 0.950 . S
C4602 C4588 1.377 . S
C4602 C4601 1.373 . S
C4603 C4587 1.377 . S
C4603 C4601 1.389 . S
C4603 C4604 1.524 . S
C4604 C4603 1.524 . S
C4604 C4605 1.397 . S
C4604 C4609 1.363 . S
C4605 H4576 0.950 . S
C4605 C4604 1.397 . S
C4605 C4606 1.334 . S
C4606 H4577 0.950 . S
C4606 C4605 1.334 . S
C4606 C4607 1.287 . S
C4607 C4606 1.287 . S
C4607 C4608 1.524 . S
C4607 H4610 0.999 . S
C4608 H4578 0.950 . S
C4608 C4607 1.524 . S
C4608 C4609 1.415 . S
C4609 H4579 0.950 . S
C4609 C4604 1.363 . S
C4609 C4608 1.415 . S
H4610 C4607 0.999 . S
H4611 C4592 0.913 . S
H4612 C4630 0.951 . S
H4613 C4632 0.951 . S
H4614 C4634 0.950 . S
H4615 C4635 0.950 . S
H4616 C4637 0.950 . S
H4617 C4640 0.950 . S
H4618 C4641 0.950 . S
H4619 C4643 0.950 . S
H4620 C4644 0.950 . S
H4621 C4645 0.951 . S
H4622 C4647 0.951 . S
H4623 C4649 0.950 . S
H4624 C4650 0.950 . S
H4625 C4652 0.950 . S
H4626 C4655 0.950 . S
H4627 C4656 0.950 . S
H4628 C4658 0.950 . S
H4629 C4659 0.950 . S
C4630 H4612 0.951 . S
C4630 C4631 1.366 . S
C4630 C4632 1.388 . S
C4631 C4630 1.366 . S
C4631 C4635 1.385 . S
C4632 H4613 0.951 . S
C4632 C4630 1.388 . S
C4632 C4633 1.366 . S
C4633 C4632 1.366 . S
C4633 C4634 1.414 . S
C4633 C4636 1.499 . S
C4634 H4614 0.950 . S
C4634 C4633 1.414 . S
C4634 C4635 1.374 . S
C4635 H4615 0.950 . S
C4635 C4631 1.385 . S
C4635 C4634 1.374 . S
C4636 C4633 1.499 . S
C4636 C4637 1.373 . S
C4636 C4638 1.389 . S
C4637 H4616 0.950 . S
C4637 C4636 1.373 . S
C4637 C4653 1.377 . S
C4638 C4636 1.389 . S
C4638 C4639 1.524 . S
C4638 C4652 1.377 . S
C4639 C4638 1.524 . S
C4639 C4640 1.397 . S
C4639 C4644 1.363 . S
C4640 H4617 0.950 . S
C4640 C4639 1.397 . S
C4640 C4641 1.334 . S
C4641 H4618 0.950 . S
C4641 C4640 1.334 . S
C4641 C4642 1.287 . S
C4642 C4641 1.287 . S
C4642 C4643 1.524 . S
C4642 H4661 0.913 . S
C4643 H4619 0.950 . S
C4643 C4642 1.524 . S
C4643 C4644 1.415 . S
C4644 H4620 0.950 . S
C4644 C4639 1.363 . S
C4644 C4643 1.415 . S
C4645 H4621 0.951 . S
C4645 C4646 1.366 . S
C4645 C4647 1.388 . S
C4646 C4645 1.366 . S
C4646 C4650 1.385 1_545 S
C4647 H4622 0.951 . S
C4647 C4645 1.388 . S
C4647 C4648 1.366 . S
C4648 C4647 1.366 . S
C4648 C4649 1.414 1_545 S
C4648 C4651 1.499 . S
C4649 H4623 0.950 . S
C4649 C4648 1.414 1_565 S
C4649 C4650 1.374 . S
C4650 H4624 0.950 . S
C4650 C4646 1.385 1_565 S
C4650 C4649 1.374 . S
C4651 C4648 1.499 . S
C4651 C4652 1.373 . S
C4651 C4653 1.389 . S
C4652 H4625 0.950 . S
C4652 C4638 1.377 . S
C4652 C4651 1.373 . S
C4653 C4637 1.377 . S
C4653 C4651 1.389 . S
C4653 C4654 1.524 1_545 S
C4654 C4653 1.524 1_565 S
C4654 C4655 1.397 . S
C4654 C4659 1.363 1_565 S
C4655 H4626 0.950 . S
C4655 C4654 1.397 . S
C4655 C4656 1.334 . S
C4656 H4627 0.950 . S
C4656 C4655 1.334 . S
C4656 C4657 1.287 . S
C4657 C4656 1.287 . S
C4657 C4658 1.524 . S
C4657 H4660 0.999 . S
C4658 H4628 0.950 . S
C4658 C4657 1.524 . S
C4658 C4659 1.415 1_565 S
C4659 H4629 0.950 . S
C4659 C4654 1.363 1_545 S
C4659 C4658 1.415 1_545 S
H4660 C4657 0.999 . S
H4661 C4642 0.913 . S
C1081 C8 1.349 . S
C1096 C670 1.395 . S
C1131 C18 1.461 . S
C1146 C716 1.501 . S
C1196 C748 1.458 . S
C1181 C31 1.378 . S
C1231 C34 1.378 . S
C1246 C801 1.403 . S
C1281 C5 1.375 . S
C1296 C847 1.456 . S
C1331 C21 1.471 . S
C1346 C886 1.521 . S
C1381 C47 1.337 . S
C1396 C840 1.373 . S
C1446 C893 1.502 . S
C1431 C57 1.457 . S
C1496 C794 1.483 . S
C1481 C70 1.411 . S
C1531 C73 1.330 . S
C1546 C755 1.398 . S
C1596 C649 1.469 . S
C1581 C44 1.398 . S
C1631 C60 1.465 . S
C1646 C695 1.507 . S
C1681 C86 1.562 . S
C1696 C925 1.610 . S
C1731 C96 1.531 . S
C1746 C992 1.550 . S
C1796 C1038 1.605 . S
C1781 C109 1.589 . S
C1831 C112 1.554 . S
C1846 C249 1.586 . S
C1881 C83 1.588 . S
C1896 C295 1.615 . S
C1931 C99 1.533 . S
C1946 C341 1.563 . S
C1981 C125 1.458 . S
C1996 C288 1.492 . S
C2031 C135 1.521 . S
C2046 C334 1.552 . S
C2096 C242 1.620 . S
C2081 C148 1.592 . S
C2146 C1017 1.688 . S
C2131 C151 1.655 . S
C2196 C946 1.585 . S
C2181 C122 1.562 . S
C2246 C971 1.601 . S
C2231 C138 1.570 . S
C2281 C164 1.465 . S
C2296 C373 1.511 . S
C2331 C174 1.508 . S
C2346 C426 1.547 . S
C2381 C187 1.585 . S
C2396 C472 1.621 . S
C2431 C190 1.647 . S
C2446 C518 1.692 . S
C2496 C571 1.599 . S
C2481 C161 1.584 . S
C2546 C617 1.605 . S
C2531 C177 1.574 . S
C2596 C564 1.617 . S
C2581 C203 1.577 . S
C2646 C610 1.566 . S
C2631 C213 1.545 . S
C2681 C226 1.578 . S
C2696 C525 1.602 . S
C2746 C479 1.585 . S
C2731 C229 1.543 . S
C2781 C200 1.584 . S
C2796 C394 1.621 . S
C2846 C433 1.583 . S
C2831 C216 1.543 . S
C2896 C256 1.472 . S
C2881 C0 1.417 . S
C2931 C23 1.386 . S
C2946 C302 1.370 . S
C2996 C348 1.477 . S
C2981 C36 1.492 . S
C3046 C380 1.494 . S
C3031 C26 1.429 1_556 S
C3096 C419 1.432 . S
C3081 C10 1.464 1_556 S
C3146 C465 1.385 . S
C3131 C13 1.358 . S
C3181 C39 1.431 . S
C3196 C486 1.481 . S
C3231 C62 1.373 . S
C3246 C387 1.349 . S
C3281 C75 1.471 . S
C3296 C440 1.423 . S
C3331 C65 1.484 . S
C3346 C281 1.547 . S
C3396 C327 1.434 . S
C3381 C49 1.452 . S
C3431 C52 1.358 . S
C3446 C235 1.396 . S
C3496 C511 1.406 . S
C3481 C78 1.377 . S
C3531 C101 1.526 . S
C3546 C578 1.511 . S
C3581 C114 1.532 . S
C3596 C624 1.523 . S
C3646 C663 1.239 . S
C3631 C104 1.214 . S
C3681 C88 1.393 . S
C3696 C709 1.380 . S
C3731 C91 1.128 . S
C3746 C741 1.144 . S
C3781 C117 1.166 . S
C3796 C762 1.176 . S
C3831 C140 1.182 . S
C3846 C656 1.160 . S
C3896 C702 1.410 . S
C3881 C153 1.420 . S
C3931 C143 1.415 . S
C3946 C557 1.457 . S
C3981 C127 1.526 . S
C3996 C603 1.508 . S
C4046 C532 1.508 . S
C4031 C130 1.491 . S
C4096 C808 1.206 . S
C4081 C156 1.183 . S
C4131 C179 1.173 . S
C4146 C854 1.179 . S
C4181 C192 1.409 . S
C4196 C879 1.391 . S
C4246 C932 1.416 . S
C4231 C182 1.386 . S
C4296 C985 1.515 . S
C4281 C166 1.533 . S
C4331 C169 1.496 . S
C4346 C1031 1.525 . S
C4381 C195 1.393 . S
C4396 C1024 1.434 . S
C4431 C218 1.519 . S
C4446 C939 1.493 . S
C4496 C978 1.497 . S
C4481 C231 1.509 . S
C4546 C833 1.216 . S
C4531 C221 1.193 . S
C4596 C900 1.381 . S
C4581 C205 1.404 . S
C4631 C208 1.147 . S
C4646 C787 1.168 . S
