# Generated by pormake.
# Topology cml, (3,6)-cn, num edge types: 1
# Building blocks:
#     Node 0, Type 0, BuildingBlock: VETTIZ_charged_linker_0, # of connection points: 3
#     Node 1, Type 0, BuildingBlock: VETTIZ_charged_linker_0, # of connection points: 3
#     Node 2, Type 0, BuildingBlock: VETTIZ_charged_linker_0, # of connection points: 3
#     Node 3, Type 0, BuildingBlock: VETTIZ_charged_linker_0, # of connection points: 3
#     Node 4, Type 0, BuildingBlock: VETTIZ_charged_linker_0, # of connection points: 3
#     Node 5, Type 0, BuildingBlock: VETTIZ_charged_linker_0, # of connection points: 3
#     Node 6, Type 0, BuildingBlock: VETTIZ_charged_linker_0, # of connection points: 3
#     Node 7, Type 0, BuildingBlock: VETTIZ_charged_linker_0, # of connection points: 3
#     Node 8, Type 1, BuildingBlock: IZENUY_clean_sbu_0, # of connection points: 6
#     Node 9, Type 1, BuildingBlock: IZENUY_clean_sbu_0, # of connection points: 6
#     Node 10, Type 1, BuildingBlock: IZENUY_clean_sbu_0, # of connection points: 6
#     Node 11, Type 1, BuildingBlock: IZENUY_clean_sbu_0, # of connection points: 6
#     Edge 12, Type (0, 1), None
#     Edge 13, Type (0, 1), None
#     Edge 14, Type (0, 1), None
#     Edge 15, Type (0, 1), None
#     Edge 16, Type (0, 1), None
#     Edge 17, Type (0, 1), None
#     Edge 18, Type (0, 1), None
#     Edge 19, Type (0, 1), None
#     Edge 20, Type (0, 1), None
#     Edge 21, Type (0, 1), None
#     Edge 22, Type (0, 1), None
#     Edge 23, Type (0, 1), None
#     Edge 24, Type (0, 1), None
#     Edge 25, Type (0, 1), None
#     Edge 26, Type (0, 1), None
#     Edge 27, Type (0, 1), None
#     Edge 28, Type (0, 1), None
#     Edge 29, Type (0, 1), None
#     Edge 30, Type (0, 1), None
#     Edge 31, Type (0, 1), None
#     Edge 32, Type (0, 1), None
#     Edge 33, Type (0, 1), None
#     Edge 34, Type (0, 1), None
#     Edge 35, Type (0, 1), None
# Relax obj value: 0.059
# Max RMSD: 0.075
# Mean RMSD: 0.071
data_MOF--net-cml--node1-IZENUY_clean_sbu_0--node2-VETTIZ_charged_linker_0--edge1-none
_symmetry_space_group_name_H-M    P1
_symmetry_Int_Tables_number       1
_symmetry_cell_setting            triclinic
loop_
_symmetry_equiv_pos_as_xyz
'x, y, z'
_cell_length_a     22.747575
_cell_length_b     27.409203
_cell_length_c     25.740466
_cell_angle_alpha  90.335948
_cell_angle_beta   90.002291
_cell_angle_gamma 89.144411
loop_
_atom_site_label
_atom_site_type_symbol
_atom_site_fract_x
_atom_site_fract_y
_atom_site_fract_z
_atom_type_partial_charge
C0 C 0.37873 0.31764 0.16515 0.0
C1 C 0.42036 0.34508 0.19301 0.0
C2 C 0.44311 0.38752 0.17068 0.0
C3 C 0.3834 0.37624 0.09459 0.0
C4 C 0.36048 0.33435 0.11572 0.0
C5 C 0.31399 0.313 0.08048 0.0
H6 H 0.16044 0.32511 0.85277 0.0
C7 C 0.35595 0.38482 0.04373 0.0
C8 C 0.31521 0.34818 0.03449 0.0
H9 H 0.13679 0.22706 0.98195 0.0
H10 H 0.21695 0.26407 0.02755 0.0
H11 H 0.18083 0.42431 0.92615 0.0
H12 H 0.30675 0.32359 0.85604 0.0
H13 H 0.32997 0.38409 0.84794 0.0
H14 H 0.26287 0.36456 0.81736 0.0
H15 H 0.18612 0.41561 0.857 0.0
H16 H 0.235 0.45563 0.89068 0.0
C17 C 0.25429 0.31503 0.10957 0.0
C18 C 0.33426 0.26098 0.06447 0.0
C19 C 0.42209 0.53109 0.94427 0.0
C20 C 0.41493 0.54728 0.89327 0.0
C21 C 0.37703 0.52154 0.85972 0.0
C22 C 0.34682 0.48014 0.8775 0.0
C23 C 0.35571 0.46405 0.9289 0.0
C24 C 0.39366 0.48944 0.96059 0.0
C25 C 0.40471 0.46526 0.01137 0.0
C26 C 0.36532 0.42169 0.00662 0.0
C27 C 0.33562 0.42111 0.95882 0.0
C28 C 0.38397 0.50099 0.05502 0.0
C29 C 0.47097 0.45022 0.0132 0.0
C30 C 0.17277 0.31172 0.8908 0.0
C31 C 0.14189 0.27336 0.91388 0.0
C32 C 0.15922 0.25698 0.96355 0.0
C33 C 0.20594 0.27839 0.99007 0.0
C34 C 0.23557 0.31723 0.96726 0.0
C35 C 0.21888 0.3336 0.91854 0.0
C36 C 0.25448 0.37675 0.90174 0.0
C37 C 0.29382 0.38408 0.94888 0.0
C38 C 0.28313 0.34835 0.98685 0.0
C39 C 0.21215 0.42057 0.89312 0.0
C40 C 0.2903 0.3619 0.85297 0.0
H41 H 0.44405 0.4361 0.10856 0.0
H42 H 0.35987 0.28526 0.18185 0.0
H43 H 0.38122 0.26088 0.05236 0.0
H44 H 0.30959 0.24644 0.03104 0.0
H45 H 0.33001 0.23533 0.09747 0.0
H46 H 0.2531 0.3448 0.13915 0.0
H47 H 0.24581 0.28027 0.13004 0.0
H48 H 0.21692 0.3235 0.08348 0.0
H49 H 0.45227 0.54877 0.97071 0.0
H50 H 0.37129 0.53311 0.81985 0.0
H51 H 0.31872 0.46174 0.85047 0.0
H52 H 0.34563 0.52355 0.04215 0.0
H53 H 0.41948 0.52635 0.06624 0.0
H54 H 0.36816 0.48217 0.0901 0.0
H55 H 0.48965 0.44469 0.9736 0.0
H56 H 0.47898 0.41481 0.03256 0.0
H57 H 0.49725 0.47883 0.03263 0.0
H58 H 0.47482 0.4095 0.19129 0.0
C59 C 0.42509 0.40307 0.12209 0.0
C60 C 0.86613 0.70195 0.39224 0.0
C61 C 0.89634 0.74078 0.41573 0.0
C62 C 0.87879 0.75692 0.46567 0.0
C63 C 0.80606 0.694 0.46999 0.0
C64 C 0.82144 0.67877 0.42035 0.0
C65 C 0.78611 0.63534 0.40323 0.0
H66 H 0.60096 0.45543 0.47449 0.0
C67 C 0.76268 0.6601 0.49105 0.0
C68 C 0.75154 0.62478 0.45246 0.0
H69 H 0.65988 0.48557 0.31835 0.0
H70 H 0.71777 0.55323 0.3513 0.0
H71 H 0.72078 0.47488 0.53386 0.0
H72 H 0.56531 0.55714 0.49751 0.0
H73 H 0.58457 0.57759 0.55947 0.0
H74 H 0.56857 0.51409 0.54963 0.0
H75 H 0.65399 0.46956 0.57018 0.0
H76 H 0.70973 0.51288 0.58816 0.0
C77 C 0.82876 0.59302 0.38873 0.0
C78 C 0.74538 0.6515 0.35817 0.0
C79 C 0.67588 0.68353 0.6736 0.0
C80 C 0.64267 0.65191 0.70469 0.0
C81 C 0.63222 0.60412 0.68692 0.0
C82 C 0.65133 0.58859 0.63824 0.0
C83 C 0.68174 0.62087 0.60646 0.0
C84 C 0.69634 0.66657 0.62485 0.0
C85 C 0.73583 0.69248 0.58693 0.0
C86 C 0.73682 0.65646 0.54124 0.0
C87 C 0.70387 0.61542 0.55308 0.0
C88 C 0.79734 0.69803 0.61235 0.0
C89 C 0.70628 0.74149 0.57178 0.0
C90 C 0.62672 0.47588 0.44695 0.0
C91 C 0.62558 0.46503 0.39371 0.0
C92 C 0.65972 0.49329 0.35966 0.0
C93 C 0.69296 0.53264 0.37879 0.0
C94 C 0.69136 0.54397 0.43229 0.0
C95 C 0.65833 0.51551 0.46497 0.0
C96 C 0.65594 0.53448 0.51945 0.0
C97 C 0.6923 0.57985 0.51452 0.0
C98 C 0.7145 0.5849 0.46394 0.0
C99 C 0.68617 0.49607 0.55512 0.0
C100 C 0.59048 0.54628 0.53278 0.0
H101 H 0.8227 0.74798 0.53037 0.0
H102 H 0.87807 0.68912 0.35374 0.0
H103 H 0.73071 0.69016 0.36317 0.0
H104 H 0.70435 0.6305 0.35655 0.0
H105 H 0.76836 0.64841 0.32018 0.0
H106 H 0.86219 0.5877 0.4198 0.0
H107 H 0.85226 0.60084 0.35195 0.0
H108 H 0.80637 0.55787 0.38409 0.0
H109 H 0.68568 0.72006 0.68694 0.0
H110 H 0.60676 0.57903 0.70991 0.0
H111 H 0.64001 0.55233 0.62677 0.0
H112 H 0.80285 0.67466 0.64726 0.0
H113 H 0.80495 0.73626 0.62494 0.0
H114 H 0.83333 0.68634 0.58581 0.0
H115 H 0.65961 0.73584 0.56064 0.0
H116 H 0.72769 0.75862 0.53812 0.0
H117 H 0.70699 0.76768 0.60487 0.0
H118 H 0.90014 0.78748 0.48428 0.0
C119 C 0.83386 0.73396 0.49266 0.0
C120 C 0.67464 0.53248 0.9086 0.0
C121 C 0.6395 0.56851 0.93335 0.0
C122 C 0.63496 0.56853 0.98785 0.0
C123 C 0.69091 0.49269 0.99128 0.0
C124 C 0.70081 0.49534 0.9385 0.0
C125 C 0.73936 0.45357 0.91939 0.0
H126 H 0.86976 0.23411 0.96843 0.0
C127 C 0.71489 0.44555 0.00973 0.0
C128 C 0.74421 0.4226 0.96828 0.0
H129 H 0.89599 0.3282 0.83626 0.0
H130 H 0.82536 0.38622 0.87145 0.0
H131 H 0.86939 0.31848 0.05892 0.0
H132 H 0.7236 0.25538 0.97506 0.0
H133 H 0.70456 0.26347 0.04078 0.0
H134 H 0.76346 0.22157 0.02351 0.0
H135 H 0.85279 0.25458 0.06165 0.0
H136 H 0.81389 0.29797 0.10167 0.0
C137 C 0.79959 0.47437 0.90281 0.0
C138 C 0.70704 0.42633 0.8753 0.0
C139 C 0.6436 0.38712 0.18311 0.0
C140 C 0.63793 0.34085 0.20543 0.0
C141 C 0.66919 0.30112 0.18302 0.0
C142 C 0.70244 0.30745 0.13707 0.0
C143 C 0.70348 0.35372 0.11317 0.0
C144 C 0.67425 0.39239 0.13681 0.0
C145 C 0.67232 0.43743 0.10426 0.0
C146 C 0.70521 0.41992 0.05653 0.0
C147 C 0.72505 0.37135 0.06201 0.0
C148 C 0.70652 0.47776 0.13327 0.0
C149 C 0.60675 0.45065 0.09261 0.0
C150 C 0.86005 0.26705 0.94685 0.0
C151 C 0.88899 0.27658 0.89949 0.0
C152 C 0.87488 0.32001 0.87285 0.0
C153 C 0.83417 0.35387 0.89346 0.0
C154 C 0.80735 0.34461 0.94148 0.0
C155 C 0.82007 0.30169 0.96738 0.0
C156 C 0.7879 0.29895 0.01866 0.0
C157 C 0.7581 0.34897 0.02105 0.0
C158 C 0.76838 0.37488 0.97489 0.0
C159 C 0.83317 0.29193 0.06282 0.0
C160 C 0.74264 0.25753 0.01481 0.0
H161 H 0.6531 0.53154 0.05803 0.0
H162 H 0.67997 0.53245 0.86679 0.0
H163 H 0.66132 0.41796 0.88728 0.0
H164 H 0.72848 0.39117 0.86509 0.0
H165 H 0.70477 0.44889 0.83963 0.0
H166 H 0.80618 0.51202 0.9179 0.0
H167 H 0.80372 0.47593 0.85985 0.0
H168 H 0.83699 0.45272 0.91863 0.0
H169 H 0.62057 0.41868 0.19914 0.0
H170 H 0.66584 0.26502 0.19953 0.0
H171 H 0.72443 0.27592 0.12092 0.0
H172 H 0.74642 0.46224 0.15243 0.0
H173 H 0.67889 0.49527 0.16392 0.0
H174 H 0.72301 0.50618 0.10693 0.0
H175 H 0.57689 0.41966 0.10006 0.0
H176 H 0.59915 0.4593 0.05127 0.0
H177 H 0.59094 0.4818 0.11689 0.0
H178 H 0.60848 0.59598 0.00777 0.0
C179 C 0.66038 0.53076 0.01691 0.0
C180 C 0.1704 0.70129 0.4029 0.0
C181 C 0.15014 0.74692 0.42165 0.0
C182 C 0.17475 0.76566 0.46799 0.0
C183 C 0.2347 0.6928 0.47803 0.0
C184 C 0.21279 0.675 0.43158 0.0
C185 C 0.24012 0.62619 0.41749 0.0
H186 H 0.41821 0.43659 0.48794 0.0
C187 C 0.27347 0.65514 0.50098 0.0
C188 C 0.27605 0.61547 0.46612 0.0
H189 H 0.35216 0.46984 0.33495 0.0
H190 H 0.29504 0.53803 0.37005 0.0
H191 H 0.45246 0.54922 0.51166 0.0
H192 H 0.31048 0.45742 0.55545 0.0
H193 H 0.30805 0.50507 0.60177 0.0
H194 H 0.37204 0.46534 0.59772 0.0
H195 H 0.45748 0.49329 0.54774 0.0
H196 H 0.44294 0.54958 0.57991 0.0
C197 C 0.27962 0.63287 0.36892 0.0
C198 C 0.19091 0.5886 0.40963 0.0
C199 C 0.38463 0.68264 0.67167 0.0
C200 C 0.41555 0.64913 0.70343 0.0
C201 C 0.40838 0.59867 0.69458 0.0
C202 C 0.37804 0.5817 0.65146 0.0
C203 C 0.35494 0.61524 0.61617 0.0
C204 C 0.35339 0.6644 0.62835 0.0
C205 C 0.31557 0.69225 0.58986 0.0
C206 C 0.30211 0.65219 0.55003 0.0
C207 C 0.32769 0.60778 0.56524 0.0
C208 C 0.3523 0.73324 0.56562 0.0
C209 C 0.25943 0.71111 0.61832 0.0
C210 C 0.39014 0.45785 0.46238 0.0
C211 C 0.38902 0.44782 0.40898 0.0
C212 C 0.35338 0.47697 0.37639 0.0
C213 C 0.32102 0.51681 0.39663 0.0
C214 C 0.32605 0.5286 0.44964 0.0
C215 C 0.36005 0.49913 0.48157 0.0
C216 C 0.36678 0.52032 0.53516 0.0
C217 C 0.33237 0.56811 0.52969 0.0
C218 C 0.30778 0.57235 0.4799 0.0
C219 C 0.43326 0.52862 0.54451 0.0
C220 C 0.33819 0.48533 0.57473 0.0
H221 H 0.23336 0.75484 0.53119 0.0
H222 H 0.15346 0.68633 0.36696 0.0
H223 H 0.15994 0.58967 0.44307 0.0
H224 H 0.20818 0.55081 0.40674 0.0
H225 H 0.16542 0.59656 0.37377 0.0
H226 H 0.28974 0.67188 0.36191 0.0
H227 H 0.25812 0.61876 0.33322 0.0
H228 H 0.32315 0.61465 0.37335 0.0
H229 H 0.3868 0.72151 0.67896 0.0
H230 H 0.42882 0.57189 0.71991 0.0
H231 H 0.37586 0.54305 0.64592 0.0
H232 H 0.39513 0.71839 0.5513 0.0
H233 H 0.36143 0.76222 0.59475 0.0
H234 H 0.33008 0.75034 0.53202 0.0
H235 H 0.25319 0.69304 0.65648 0.0
H236 H 0.21891 0.70318 0.59606 0.0
H237 H 0.26119 0.751 0.62593 0.0
H238 H 0.16073 0.80084 0.48329 0.0
C239 C 0.21661 0.73884 0.4962 0.0
C240 C 0.87873 0.81764 0.16515 0.0
C241 C 0.92036 0.84508 0.19301 0.0
C242 C 0.94311 0.88752 0.17068 0.0
C243 C 0.8834 0.87624 0.09458 0.0
C244 C 0.86048 0.83435 0.11572 0.0
C245 C 0.81399 0.813 0.08048 0.0
H246 H 0.66044 0.82511 0.85277 0.0
C247 C 0.85595 0.88482 0.04373 0.0
C248 C 0.81521 0.84818 0.03449 0.0
H249 H 0.63679 0.72706 0.98195 0.0
H250 H 0.71695 0.76407 0.02755 0.0
H251 H 0.68083 0.92431 0.92615 0.0
H252 H 0.80675 0.82359 0.85604 0.0
H253 H 0.82997 0.88409 0.84794 0.0
H254 H 0.76287 0.86456 0.81736 0.0
H255 H 0.68612 0.91561 0.857 0.0
H256 H 0.735 0.95563 0.89068 0.0
C257 C 0.75429 0.81503 0.10957 0.0
C258 C 0.83426 0.76098 0.06447 0.0
C259 C 0.92209 0.03109 0.94427 0.0
C260 C 0.91493 0.04728 0.89327 0.0
C261 C 0.87703 0.02154 0.85972 0.0
C262 C 0.84682 0.98014 0.8775 0.0
C263 C 0.85571 0.96405 0.9289 0.0
C264 C 0.89366 0.98944 0.96059 0.0
C265 C 0.90471 0.96526 0.01137 0.0
C266 C 0.86532 0.92169 0.00662 0.0
C267 C 0.83562 0.92111 0.95882 0.0
C268 C 0.88397 1.00099 0.05502 0.0
C269 C 0.97097 0.95022 0.0132 0.0
C270 C 0.67277 0.81172 0.8908 0.0
C271 C 0.64189 0.77336 0.91388 0.0
C272 C 0.65922 0.75698 0.96355 0.0
C273 C 0.70594 0.77839 0.99007 0.0
C274 C 0.73557 0.81723 0.96726 0.0
C275 C 0.71888 0.8336 0.91854 0.0
C276 C 0.75448 0.87675 0.90174 0.0
C277 C 0.79382 0.88408 0.94888 0.0
C278 C 0.78313 0.84835 0.98685 0.0
C279 C 0.71215 0.92057 0.89312 0.0
C280 C 0.7903 0.8619 0.85297 0.0
H281 H 0.94405 0.9361 0.10856 0.0
H282 H 0.85987 0.78526 0.18185 0.0
H283 H 0.88122 0.76088 0.05236 0.0
H284 H 0.80959 0.74644 0.03104 0.0
H285 H 0.83001 0.73533 0.09747 0.0
H286 H 0.7531 0.8448 0.13915 0.0
H287 H 0.74581 0.78027 0.13004 0.0
H288 H 0.71692 0.8235 0.08348 0.0
H289 H 0.95227 0.04877 0.97071 0.0
H290 H 0.87129 0.03311 0.81985 0.0
H291 H 0.81872 0.96174 0.85047 0.0
H292 H 0.84563 0.02355 0.04215 0.0
H293 H 0.91948 0.02635 0.06624 0.0
H294 H 0.86816 0.98217 0.0901 0.0
H295 H 0.98965 0.94469 0.9736 0.0
H296 H 0.97898 0.91481 0.03256 0.0
H297 H 0.99725 0.97882 0.03263 0.0
H298 H 0.97482 0.9095 0.19129 0.0
C299 C 0.92509 0.90307 0.12209 0.0
C300 C 0.36613 0.20195 0.39224 0.0
C301 C 0.39634 0.24078 0.41573 0.0
C302 C 0.37879 0.25692 0.46567 0.0
C303 C 0.30606 0.194 0.46999 0.0
C304 C 0.32144 0.17877 0.42035 0.0
C305 C 0.28611 0.13534 0.40323 0.0
H306 H 0.10096 0.95543 0.47449 0.0
C307 C 0.26268 0.1601 0.49105 0.0
C308 C 0.25154 0.12478 0.45246 0.0
H309 H 0.15988 0.98557 0.31835 0.0
H310 H 0.21777 0.05323 0.3513 0.0
H311 H 0.22078 0.97488 0.53386 0.0
H312 H 0.06531 0.05714 0.49751 0.0
H313 H 0.08457 0.07759 0.55947 0.0
H314 H 0.06857 0.01409 0.54963 0.0
H315 H 0.15399 0.96956 0.57018 0.0
H316 H 0.20973 0.01288 0.58816 0.0
C317 C 0.32876 0.09302 0.38873 0.0
C318 C 0.24538 0.1515 0.35817 0.0
C319 C 0.17588 0.18353 0.6736 0.0
C320 C 0.14267 0.15191 0.70469 0.0
C321 C 0.13222 0.10412 0.68692 0.0
C322 C 0.15133 0.08859 0.63824 0.0
C323 C 0.18174 0.12087 0.60646 0.0
C324 C 0.19634 0.16657 0.62485 0.0
C325 C 0.23583 0.19248 0.58693 0.0
C326 C 0.23682 0.15646 0.54124 0.0
C327 C 0.20387 0.11542 0.55308 0.0
C328 C 0.29734 0.19803 0.61235 0.0
C329 C 0.20628 0.24149 0.57178 0.0
C330 C 0.12671 0.97588 0.44695 0.0
C331 C 0.12558 0.96503 0.39371 0.0
C332 C 0.15972 0.99329 0.35966 0.0
C333 C 0.19296 0.03264 0.37879 0.0
C334 C 0.19136 0.04397 0.43229 0.0
C335 C 0.15833 0.01551 0.46497 0.0
C336 C 0.15594 0.03448 0.51945 0.0
C337 C 0.1923 0.07985 0.51452 0.0
C338 C 0.2145 0.0849 0.46394 0.0
C339 C 0.18617 0.99607 0.55512 0.0
C340 C 0.09048 0.04628 0.53278 0.0
H341 H 0.3227 0.24798 0.53037 0.0
H342 H 0.37807 0.18912 0.35375 0.0
H343 H 0.23071 0.19016 0.36317 0.0
H344 H 0.20435 0.1305 0.35655 0.0
H345 H 0.26836 0.14841 0.32018 0.0
H346 H 0.36219 0.0877 0.4198 0.0
H347 H 0.35226 0.10084 0.35195 0.0
H348 H 0.30637 0.05787 0.38409 0.0
H349 H 0.18568 0.22006 0.68694 0.0
H350 H 0.10676 0.07903 0.70991 0.0
H351 H 0.14001 0.05233 0.62677 0.0
H352 H 0.30285 0.17466 0.64726 0.0
H353 H 0.30495 0.23626 0.62495 0.0
H354 H 0.33333 0.18634 0.58581 0.0
H355 H 0.15961 0.23584 0.56064 0.0
H356 H 0.22769 0.25862 0.53812 0.0
H357 H 0.20699 0.26768 0.60487 0.0
H358 H 0.40014 0.28748 0.48428 0.0
C359 C 0.33386 0.23396 0.49266 0.0
C360 C 0.17464 0.03248 0.9086 0.0
C361 C 0.1395 0.06851 0.93335 0.0
C362 C 0.13496 0.06853 0.98785 0.0
C363 C 0.19091 0.99269 0.99128 0.0
C364 C 0.20081 0.99534 0.9385 0.0
C365 C 0.23936 0.95357 0.91939 0.0
H366 H 0.36976 0.73411 0.96843 0.0
C367 C 0.21489 0.94555 0.00973 0.0
C368 C 0.24421 0.9226 0.96828 0.0
H369 H 0.39599 0.8282 0.83626 0.0
H370 H 0.32536 0.88622 0.87145 0.0
H371 H 0.36939 0.81848 0.05892 0.0
H372 H 0.2236 0.75538 0.97506 0.0
H373 H 0.20456 0.76347 0.04078 0.0
H374 H 0.26346 0.72157 0.02351 0.0
H375 H 0.35279 0.75458 0.06165 0.0
H376 H 0.31389 0.79797 0.10167 0.0
C377 C 0.29959 0.97437 0.90281 0.0
C378 C 0.20704 0.92633 0.8753 0.0
C379 C 0.1436 0.88712 0.18311 0.0
C380 C 0.13793 0.84085 0.20543 0.0
C381 C 0.16919 0.80112 0.18302 0.0
C382 C 0.20244 0.80745 0.13707 0.0
C383 C 0.20348 0.85372 0.11317 0.0
C384 C 0.17425 0.89239 0.13681 0.0
C385 C 0.17232 0.93743 0.10426 0.0
C386 C 0.20521 0.91992 0.05653 0.0
C387 C 0.22505 0.87135 0.06201 0.0
C388 C 0.20652 0.97776 0.13327 0.0
C389 C 0.10675 0.95065 0.09261 0.0
C390 C 0.36005 0.76705 0.94685 0.0
C391 C 0.38899 0.77658 0.89949 0.0
C392 C 0.37488 0.82001 0.87285 0.0
C393 C 0.33417 0.85387 0.89346 0.0
C394 C 0.30735 0.84461 0.94148 0.0
C395 C 0.32007 0.80169 0.96738 0.0
C396 C 0.2879 0.79895 0.01866 0.0
C397 C 0.2581 0.84897 0.02105 0.0
C398 C 0.26838 0.87488 0.97489 0.0
C399 C 0.33317 0.79193 0.06282 0.0
C400 C 0.24264 0.75753 0.01481 0.0
H401 H 0.1531 0.03154 0.05803 0.0
H402 H 0.17997 0.03245 0.86679 0.0
H403 H 0.16132 0.91796 0.88728 0.0
H404 H 0.22848 0.89117 0.8651 0.0
H405 H 0.20477 0.94889 0.83963 0.0
H406 H 0.30618 0.01202 0.9179 0.0
H407 H 0.30372 0.97593 0.85985 0.0
H408 H 0.33699 0.95272 0.91863 0.0
H409 H 0.12057 0.91868 0.19914 0.0
H410 H 0.16584 0.76502 0.19953 0.0
H411 H 0.22443 0.77592 0.12092 0.0
H412 H 0.24642 0.96224 0.15243 0.0
H413 H 0.17889 0.99527 0.16392 0.0
H414 H 0.22301 0.00618 0.10693 0.0
H415 H 0.07689 0.91966 0.10006 0.0
H416 H 0.09915 0.9593 0.05127 0.0
H417 H 0.09094 0.9818 0.11689 0.0
H418 H 0.10848 0.09598 0.00777 0.0
C419 C 0.16038 0.03076 0.01691 0.0
C420 C 0.6704 0.20129 0.4029 0.0
C421 C 0.65014 0.24692 0.42165 0.0
C422 C 0.67475 0.26566 0.46799 0.0
C423 C 0.7347 0.1928 0.47803 0.0
C424 C 0.71279 0.175 0.43158 0.0
C425 C 0.74012 0.12619 0.41749 0.0
H426 H 0.91821 0.93659 0.48794 0.0
C427 C 0.77347 0.15514 0.50098 0.0
C428 C 0.77605 0.11547 0.46612 0.0
H429 H 0.85216 0.96984 0.33495 0.0
H430 H 0.79504 0.03803 0.37005 0.0
H431 H 0.95246 0.04922 0.51166 0.0
H432 H 0.81048 0.95742 0.55545 0.0
H433 H 0.80805 1.00507 0.60177 0.0
H434 H 0.87204 0.96534 0.59772 0.0
H435 H 0.95748 0.99329 0.54774 0.0
H436 H 0.94294 0.04958 0.57991 0.0
C437 C 0.77962 0.13287 0.36892 0.0
C438 C 0.69091 0.0886 0.40963 0.0
C439 C 0.88463 0.18264 0.67167 0.0
C440 C 0.91555 0.14913 0.70343 0.0
C441 C 0.90838 0.09867 0.69458 0.0
C442 C 0.87804 0.0817 0.65146 0.0
C443 C 0.85494 0.11524 0.61617 0.0
C444 C 0.85339 0.1644 0.62835 0.0
C445 C 0.81557 0.19225 0.58986 0.0
C446 C 0.80211 0.15219 0.55003 0.0
C447 C 0.82769 0.10778 0.56524 0.0
C448 C 0.8523 0.23324 0.56562 0.0
C449 C 0.75943 0.21111 0.61832 0.0
C450 C 0.89014 0.95785 0.46238 0.0
C451 C 0.88902 0.94782 0.40898 0.0
C452 C 0.85338 0.97697 0.37639 0.0
C453 C 0.82102 0.01681 0.39663 0.0
C454 C 0.82605 0.0286 0.44964 0.0
C455 C 0.86005 0.99913 0.48157 0.0
C456 C 0.86678 0.02032 0.53515 0.0
C457 C 0.83237 0.06811 0.52969 0.0
C458 C 0.80778 0.07235 0.4799 0.0
C459 C 0.93326 0.02862 0.54451 0.0
C460 C 0.83819 0.98533 0.57473 0.0
H461 H 0.73336 0.25484 0.53119 0.0
H462 H 0.65346 0.18633 0.36696 0.0
H463 H 0.65994 0.08967 0.44307 0.0
H464 H 0.70818 0.05081 0.40674 0.0
H465 H 0.66542 0.09656 0.37377 0.0
H466 H 0.78974 0.17188 0.36191 0.0
H467 H 0.75812 0.11876 0.33322 0.0
H468 H 0.82315 0.11465 0.37335 0.0
H469 H 0.8868 0.22151 0.67896 0.0
H470 H 0.92882 0.07189 0.71991 0.0
H471 H 0.87586 0.04305 0.64592 0.0
H472 H 0.89513 0.21839 0.5513 0.0
H473 H 0.86143 0.26222 0.59475 0.0
H474 H 0.83008 0.25034 0.53202 0.0
H475 H 0.75319 0.19304 0.65648 0.0
H476 H 0.71891 0.20318 0.59606 0.0
H477 H 0.7612 0.251 0.62593 0.0
H478 H 0.66073 0.30084 0.48329 0.0
C479 C 0.71661 0.23884 0.4962 0.0
Fe480 Fe 0.02268 0.78175 0.30973 0.0
Fe481 Fe 1.01853 0.84558 0.40861 0.0
O482 O 1.01746 0.84023 0.34042 0.0
Fe483 Fe 1.009 0.89305 0.30262 0.0
O484 O 0.94132 0.86945 0.27654 0.0
O485 O 0.97754 0.79895 0.25216 0.0
O486 O 0.95516 0.76231 0.34186 0.0
C487 C 0.94655 0.76504 0.39042 0.0
C488 C 0.09332 0.83583 0.24718 0.0
O489 O 0.9819 0.78776 0.41939 0.0
C490 C 0.08563 0.92629 0.37547 0.0
O491 O 0.07003 0.7545 0.36109 0.0
O492 O 0.09045 0.81718 0.41126 0.0
O493 O 0.05357 0.86864 0.2493 0.0
O494 O 0.09019 0.79822 0.27538 0.0
C495 C 0.93241 0.9131 0.38668 0.0
O496 O 0.05546 0.90431 0.40919 0.0
O497 O 0.0761 0.91986 0.32767 0.0
C498 C 0.10257 0.77483 0.39488 0.0
O499 O 0.94626 0.87486 0.41107 0.0
O500 O 0.96328 0.92722 0.34907 0.0
C501 C 0.94049 0.83354 0.246 0.0
Fe502 Fe 1.01496 0.17226 0.9081 0.0
Fe503 Fe 0.0384 0.11383 0.80886 0.0
O504 O 0.02531 0.17022 0.84025 0.0
Fe505 Fe 0.02447 0.22487 0.80302 0.0
O506 O 0.08822 0.24744 0.83863 0.0
O507 O 0.05322 0.23008 0.91623 0.0
O508 O 0.0851 0.14204 0.92117 0.0
C509 C 0.10124 0.10136 0.90262 0.0
C510 C 0.93621 0.24315 0.87976 0.0
O511 O 0.07666 0.08418 0.86277 0.0
C512 C 0.96024 0.1631 0.74244 0.0
O513 O 0.97563 0.1145 0.91032 0.0
O514 O 0.96824 0.08959 0.82913 0.0
O515 O 0.97284 0.2582 0.84647 0.0
O516 O 0.94407 0.2025 0.90139 0.0
C517 C 0.11389 0.16727 0.75361 0.0
O518 O 1.00198 0.1328 0.74916 0.0
O519 O 0.96044 0.20409 0.7656 0.0
C520 C 0.95185 0.08796 0.87585 0.0
O521 O 0.10935 0.13479 0.78761 0.0
O522 O 0.07585 0.20162 0.75214 0.0
C523 C 0.09189 0.24935 0.88776 0.0
Fe524 Fe 0.52268 0.28175 0.30973 0.0
Fe525 Fe 0.51853 0.34558 0.40861 0.0
O526 O 0.51746 0.34023 0.34042 0.0
Fe527 Fe 0.509 0.39305 0.30262 0.0
O528 O 0.44132 0.36945 0.27654 0.0
O529 O 0.47754 0.29895 0.25216 0.0
O530 O 0.45516 0.26231 0.34186 0.0
C531 C 0.44655 0.26504 0.39042 0.0
C532 C 0.59332 0.33583 0.24718 0.0
O533 O 0.4819 0.28776 0.41939 0.0
C534 C 0.58563 0.42629 0.37547 0.0
O535 O 0.57003 0.2545 0.36109 0.0
O536 O 0.59045 0.31718 0.41126 0.0
O537 O 0.55357 0.36864 0.2493 0.0
O538 O 0.59019 0.29822 0.27538 0.0
C539 C 0.43241 0.4131 0.38668 0.0
O540 O 0.55546 0.40431 0.40919 0.0
O541 O 0.5761 0.41986 0.32767 0.0
C542 C 0.60257 0.27483 0.39488 0.0
O543 O 0.44626 0.37486 0.41107 0.0
O544 O 0.46328 0.42722 0.34907 0.0
C545 C 0.44049 0.33354 0.246 0.0
Fe546 Fe 0.51496 0.67226 0.9081 0.0
Fe547 Fe 0.5384 0.61383 0.80886 0.0
O548 O 0.52531 0.67022 0.84025 0.0
Fe549 Fe 0.52447 0.72487 0.80302 0.0
O550 O 0.58822 0.74744 0.83863 0.0
O551 O 0.55322 0.73008 0.91623 0.0
O552 O 0.5851 0.64204 0.92117 0.0
C553 C 0.60124 0.60136 0.90262 0.0
C554 C 0.43621 0.74315 0.87976 0.0
O555 O 0.57666 0.58418 0.86277 0.0
C556 C 0.46024 0.6631 0.74244 0.0
O557 O 0.47563 0.6145 0.91032 0.0
O558 O 0.46824 0.58959 0.82913 0.0
O559 O 0.47284 0.7582 0.84647 0.0
O560 O 0.44407 0.7025 0.90139 0.0
C561 C 0.61389 0.66727 0.75361 0.0
O562 O 0.50198 0.6328 0.74916 0.0
O563 O 0.46044 0.70409 0.7656 0.0
C564 C 0.45185 0.58796 0.87585 0.0
O565 O 0.60935 0.63479 0.78761 0.0
O566 O 0.57585 0.70162 0.75214 0.0
C567 C 0.59189 0.74935 0.88776 0.0
loop_
_geom_bond_atom_site_label_1
_geom_bond_atom_site_label_2
_geom_bond_distance
_geom_bond_site_symmetry_2
_ccdc_geom_bond_type
C0 C1 1.391 . S
C0 C4 1.391 . S
C0 H42 0.948 . S
C1 C0 1.391 . S
C1 C2 1.391 . S
C2 C1 1.391 . S
C2 H58 0.947 . S
C2 C59 1.392 . S
C3 C4 1.391 . S
C3 C7 1.397 . S
C3 C59 1.419 . S
C4 C0 1.391 . S
C4 C3 1.391 . S
C4 C5 1.399 . S
C5 C4 1.399 . S
C5 C8 1.396 . S
C5 C17 1.453 . S
C5 C18 1.684 . S
H6 C30 0.948 . S
C7 C3 1.397 . S
C7 C8 1.394 . S
C7 C26 1.723 . S
C8 C5 1.396 . S
C8 C7 1.394 . S
C8 C38 1.723 1_554 S
H9 C32 0.947 . S
H10 C33 0.948 . S
H11 C39 0.982 . S
H12 C40 0.979 . S
H13 C40 0.980 . S
H14 C40 0.983 . S
H15 C39 0.979 . S
H16 C39 0.977 . S
C17 C5 1.453 . S
C17 H46 0.982 . S
C17 H47 0.979 . S
C17 H48 0.977 . S
C18 C5 1.684 . S
C18 H43 0.979 . S
C18 H44 0.980 . S
C18 H45 0.983 . S
C19 C20 1.391 . S
C19 C24 1.391 . S
C19 H49 0.948 . S
C20 C19 1.391 . S
C20 C21 1.391 . S
C21 C20 1.391 . S
C21 C22 1.392 . S
C21 H50 0.947 . S
C22 C21 1.392 . S
C22 C23 1.419 . S
C22 H51 0.948 . S
C23 C22 1.419 . S
C23 C24 1.391 . S
C23 C27 1.397 . S
C24 C19 1.391 . S
C24 C23 1.391 . S
C24 C25 1.399 1_556 S
C25 C24 1.399 1_554 S
C25 C26 1.396 . S
C25 C28 1.453 . S
C25 C29 1.684 . S
C26 C7 1.723 . S
C26 C25 1.396 . S
C26 C27 1.394 1_554 S
C27 C23 1.397 . S
C27 C26 1.394 1_556 S
C27 C37 1.723 . S
C28 C25 1.453 . S
C28 H52 0.982 . S
C28 H53 0.979 . S
C28 H54 0.977 . S
C29 C25 1.684 . S
C29 H55 0.979 . S
C29 H56 0.980 . S
C29 H57 0.983 . S
C30 H6 0.948 . S
C30 C31 1.391 . S
C30 C35 1.391 . S
C31 C30 1.391 . S
C31 C32 1.391 . S
C32 H9 0.947 . S
C32 C31 1.391 . S
C32 C33 1.392 1_556 S
C33 H10 0.948 . S
C33 C32 1.392 1_554 S
C33 C34 1.419 1_554 S
C34 C33 1.419 1_556 S
C34 C35 1.391 . S
C34 C38 1.397 . S
C35 C30 1.391 . S
C35 C34 1.391 . S
C35 C36 1.399 . S
C36 C35 1.399 . S
C36 C37 1.396 . S
C36 C39 1.453 . S
C36 C40 1.684 . S
C37 C27 1.723 . S
C37 C36 1.396 . S
C37 C38 1.394 . S
C38 C8 1.723 1_556 S
C38 C34 1.397 . S
C38 C37 1.394 . S
C39 H11 0.982 . S
C39 H15 0.979 . S
C39 H16 0.977 . S
C39 C36 1.453 . S
C40 H12 0.979 . S
C40 H13 0.980 . S
C40 H14 0.983 . S
C40 C36 1.684 . S
H41 C59 0.948 . S
H42 C0 0.948 . S
H43 C18 0.979 . S
H44 C18 0.980 . S
H45 C18 0.983 . S
H46 C17 0.982 . S
H47 C17 0.979 . S
H48 C17 0.977 . S
H49 C19 0.948 . S
H50 C21 0.947 . S
H51 C22 0.948 . S
H52 C28 0.982 . S
H53 C28 0.979 . S
H54 C28 0.977 . S
H55 C29 0.979 . S
H56 C29 0.980 . S
H57 C29 0.983 . S
H58 C2 0.947 . S
C59 C2 1.392 . S
C59 C3 1.419 . S
C59 H41 0.948 . S
C60 C61 1.391 . S
C60 C64 1.391 . S
C60 H102 0.948 . S
C61 C60 1.391 . S
C61 C62 1.391 . S
C62 C61 1.391 . S
C62 H118 0.947 . S
C62 C119 1.392 . S
C63 C64 1.391 . S
C63 C67 1.397 . S
C63 C119 1.419 . S
C64 C60 1.391 . S
C64 C63 1.391 . S
C64 C65 1.399 . S
C65 C64 1.399 . S
C65 C68 1.396 . S
C65 C77 1.453 . S
C65 C78 1.684 . S
H66 C90 0.948 . S
C67 C63 1.397 . S
C67 C68 1.394 . S
C67 C86 1.723 . S
C68 C65 1.396 . S
C68 C67 1.394 . S
C68 C98 1.723 . S
H69 C92 0.947 . S
H70 C93 0.948 . S
H71 C99 0.982 . S
H72 C100 0.979 . S
H73 C100 0.980 . S
H74 C100 0.983 . S
H75 C99 0.979 . S
H76 C99 0.977 . S
C77 C65 1.453 . S
C77 H106 0.982 . S
C77 H107 0.979 . S
C77 H108 0.977 . S
C78 C65 1.684 . S
C78 H103 0.979 . S
C78 H104 0.980 . S
C78 H105 0.983 . S
C79 C80 1.391 . S
C79 C84 1.391 . S
C79 H109 0.948 . S
C80 C79 1.391 . S
C80 C81 1.391 . S
C81 C80 1.391 . S
C81 C82 1.392 . S
C81 H110 0.947 . S
C82 C81 1.392 . S
C82 C83 1.419 . S
C82 H111 0.948 . S
C83 C82 1.419 . S
C83 C84 1.391 . S
C83 C87 1.397 . S
C84 C79 1.391 . S
C84 C83 1.391 . S
C84 C85 1.399 . S
C85 C84 1.399 . S
C85 C86 1.396 . S
C85 C88 1.453 . S
C85 C89 1.684 . S
C86 C67 1.723 . S
C86 C85 1.396 . S
C86 C87 1.394 . S
C87 C83 1.397 . S
C87 C86 1.394 . S
C87 C97 1.723 . S
C88 C85 1.453 . S
C88 H112 0.982 . S
C88 H113 0.979 . S
C88 H114 0.977 . S
C89 C85 1.684 . S
C89 H115 0.979 . S
C89 H116 0.980 . S
C89 H117 0.983 . S
C90 H66 0.948 . S
C90 C91 1.391 . S
C90 C95 1.391 . S
C91 C90 1.391 . S
C91 C92 1.391 . S
C92 H69 0.947 . S
C92 C91 1.391 . S
C92 C93 1.392 . S
C93 H70 0.948 . S
C93 C92 1.392 . S
C93 C94 1.419 . S
C94 C93 1.419 . S
C94 C95 1.391 . S
C94 C98 1.397 . S
C95 C90 1.391 . S
C95 C94 1.391 . S
C95 C96 1.399 . S
C96 C95 1.399 . S
C96 C97 1.396 . S
C96 C99 1.453 . S
C96 C100 1.684 . S
C97 C87 1.723 . S
C97 C96 1.396 . S
C97 C98 1.394 . S
C98 C68 1.723 . S
C98 C94 1.397 . S
C98 C97 1.394 . S
C99 H71 0.982 . S
C99 H75 0.979 . S
C99 H76 0.977 . S
C99 C96 1.453 . S
C100 H72 0.979 . S
C100 H73 0.980 . S
C100 H74 0.983 . S
C100 C96 1.684 . S
H101 C119 0.948 . S
H102 C60 0.948 . S
H103 C78 0.979 . S
H104 C78 0.980 . S
H105 C78 0.983 . S
H106 C77 0.982 . S
H107 C77 0.979 . S
H108 C77 0.977 . S
H109 C79 0.948 . S
H110 C81 0.947 . S
H111 C82 0.948 . S
H112 C88 0.982 . S
H113 C88 0.979 . S
H114 C88 0.977 . S
H115 C89 0.979 . S
H116 C89 0.980 . S
H117 C89 0.983 . S
H118 C62 0.947 . S
C119 C62 1.392 . S
C119 C63 1.419 . S
C119 H101 0.948 . S
C120 C121 1.391 . S
C120 C124 1.391 . S
C120 H162 0.948 . S
C121 C120 1.391 . S
C121 C122 1.391 . S
C122 C121 1.391 . S
C122 H178 0.947 . S
C122 C179 1.392 . S
C123 C124 1.391 . S
C123 C127 1.397 . S
C123 C179 1.419 . S
C124 C120 1.391 . S
C124 C123 1.391 . S
C124 C125 1.399 . S
C125 C124 1.399 . S
C125 C128 1.396 . S
C125 C137 1.453 . S
C125 C138 1.684 . S
H126 C150 0.948 . S
C127 C123 1.397 . S
C127 C128 1.394 . S
C127 C146 1.723 1_556 S
C128 C125 1.396 . S
C128 C127 1.394 . S
C128 C158 1.723 . S
H129 C152 0.947 . S
H130 C153 0.948 . S
H131 C159 0.982 . S
H132 C160 0.979 . S
H133 C160 0.980 . S
H134 C160 0.983 . S
H135 C159 0.979 . S
H136 C159 0.977 . S
C137 C125 1.453 . S
C137 H166 0.982 . S
C137 H167 0.979 . S
C137 H168 0.977 . S
C138 C125 1.684 . S
C138 H163 0.979 . S
C138 H164 0.980 . S
C138 H165 0.983 . S
C139 C140 1.391 . S
C139 C144 1.391 . S
C139 H169 0.948 . S
C140 C139 1.391 . S
C140 C141 1.391 . S
C141 C140 1.391 . S
C141 C142 1.392 . S
C141 H170 0.947 . S
C142 C141 1.392 . S
C142 C143 1.419 . S
C142 H171 0.948 . S
C143 C142 1.419 . S
C143 C144 1.391 . S
C143 C147 1.397 . S
C144 C139 1.391 . S
C144 C143 1.391 . S
C144 C145 1.399 . S
C145 C144 1.399 . S
C145 C146 1.396 . S
C145 C148 1.453 . S
C145 C149 1.684 . S
C146 C127 1.723 1_554 S
C146 C145 1.396 . S
C146 C147 1.394 . S
C147 C143 1.397 . S
C147 C146 1.394 . S
C147 C157 1.723 . S
C148 C145 1.453 . S
C148 H172 0.982 . S
C148 H173 0.979 . S
C148 H174 0.977 . S
C149 C145 1.684 . S
C149 H175 0.979 . S
C149 H176 0.980 . S
C149 H177 0.983 . S
C150 H126 0.948 . S
C150 C151 1.391 . S
C150 C155 1.391 . S
C151 C150 1.391 . S
C151 C152 1.391 . S
C152 H129 0.947 . S
C152 C151 1.391 . S
C152 C153 1.392 . S
C153 H130 0.948 . S
C153 C152 1.392 . S
C153 C154 1.419 . S
C154 C153 1.419 . S
C154 C155 1.391 . S
C154 C158 1.397 . S
C155 C150 1.391 . S
C155 C154 1.391 . S
C155 C156 1.399 1_556 S
C156 C155 1.399 1_554 S
C156 C157 1.396 . S
C156 C159 1.453 . S
C156 C160 1.684 . S
C157 C147 1.723 . S
C157 C156 1.396 . S
C157 C158 1.394 1_554 S
C158 C128 1.723 . S
C158 C154 1.397 . S
C158 C157 1.394 1_556 S
C159 H131 0.982 . S
C159 H135 0.979 . S
C159 H136 0.977 . S
C159 C156 1.453 . S
C160 H132 0.979 . S
C160 H133 0.980 . S
C160 H134 0.983 . S
C160 C156 1.684 . S
H161 C179 0.948 1_554 S
H162 C120 0.948 . S
H163 C138 0.979 . S
H164 C138 0.980 . S
H165 C138 0.983 . S
H166 C137 0.982 . S
H167 C137 0.979 . S
H168 C137 0.977 . S
H169 C139 0.948 . S
H170 C141 0.947 . S
H171 C142 0.948 . S
H172 C148 0.982 . S
H173 C148 0.979 . S
H174 C148 0.977 . S
H175 C149 0.979 . S
H176 C149 0.980 . S
H177 C149 0.983 . S
H178 C122 0.947 . S
C179 C122 1.392 . S
C179 C123 1.419 . S
C179 H161 0.948 1_556 S
C180 C181 1.391 . S
C180 C184 1.391 . S
C180 H222 0.948 . S
C181 C180 1.391 . S
C181 C182 1.391 . S
C182 C181 1.391 . S
C182 H238 0.947 . S
C182 C239 1.392 . S
C183 C184 1.391 . S
C183 C187 1.397 . S
C183 C239 1.419 . S
C184 C180 1.391 . S
C184 C183 1.391 . S
C184 C185 1.399 . S
C185 C184 1.399 . S
C185 C188 1.396 . S
C185 C197 1.453 . S
C185 C198 1.684 . S
H186 C210 0.948 . S
C187 C183 1.397 . S
C187 C188 1.394 . S
C187 C206 1.723 . S
C188 C185 1.396 . S
C188 C187 1.394 . S
C188 C218 1.723 . S
H189 C212 0.947 . S
H190 C213 0.948 . S
H191 C219 0.982 . S
H192 C220 0.979 . S
H193 C220 0.980 . S
H194 C220 0.983 . S
H195 C219 0.979 . S
H196 C219 0.977 . S
C197 C185 1.453 . S
C197 H226 0.982 . S
C197 H227 0.979 . S
C197 H228 0.977 . S
C198 C185 1.684 . S
C198 H223 0.979 . S
C198 H224 0.980 . S
C198 H225 0.983 . S
C199 C200 1.391 . S
C199 C204 1.391 . S
C199 H229 0.948 . S
C200 C199 1.391 . S
C200 C201 1.391 . S
C201 C200 1.391 . S
C201 C202 1.392 . S
C201 H230 0.947 . S
C202 C201 1.392 . S
C202 C203 1.419 . S
C202 H231 0.948 . S
C203 C202 1.419 . S
C203 C204 1.391 . S
C203 C207 1.397 . S
C204 C199 1.391 . S
C204 C203 1.391 . S
C204 C205 1.399 . S
C205 C204 1.399 . S
C205 C206 1.396 . S
C205 C208 1.453 . S
C205 C209 1.684 . S
C206 C187 1.723 . S
C206 C205 1.396 . S
C206 C207 1.394 . S
C207 C203 1.397 . S
C207 C206 1.394 . S
C207 C217 1.723 . S
C208 C205 1.453 . S
C208 H232 0.982 . S
C208 H233 0.979 . S
C208 H234 0.977 . S
C209 C205 1.684 . S
C209 H235 0.979 . S
C209 H236 0.980 . S
C209 H237 0.983 . S
C210 H186 0.948 . S
C210 C211 1.391 . S
C210 C215 1.391 . S
C211 C210 1.391 . S
C211 C212 1.391 . S
C212 H189 0.947 . S
C212 C211 1.391 . S
C212 C213 1.392 . S
C213 H190 0.948 . S
C213 C212 1.392 . S
C213 C214 1.419 . S
C214 C213 1.419 . S
C214 C215 1.391 . S
C214 C218 1.397 . S
C215 C210 1.391 . S
C215 C214 1.391 . S
C215 C216 1.399 . S
C216 C215 1.399 . S
C216 C217 1.396 . S
C216 C219 1.453 . S
C216 C220 1.684 . S
C217 C207 1.723 . S
C217 C216 1.396 . S
C217 C218 1.394 . S
C218 C188 1.723 . S
C218 C214 1.397 . S
C218 C217 1.394 . S
C219 H191 0.982 . S
C219 H195 0.979 . S
C219 H196 0.977 . S
C219 C216 1.453 . S
C220 H192 0.979 . S
C220 H193 0.980 . S
C220 H194 0.983 . S
C220 C216 1.684 . S
H221 C239 0.948 . S
H222 C180 0.948 . S
H223 C198 0.979 . S
H224 C198 0.980 . S
H225 C198 0.983 . S
H226 C197 0.982 . S
H227 C197 0.979 . S
H228 C197 0.977 . S
H229 C199 0.948 . S
H230 C201 0.947 . S
H231 C202 0.948 . S
H232 C208 0.982 . S
H233 C208 0.979 . S
H234 C208 0.977 . S
H235 C209 0.979 . S
H236 C209 0.980 . S
H237 C209 0.983 . S
H238 C182 0.947 . S
C239 C182 1.392 . S
C239 C183 1.419 . S
C239 H221 0.948 . S
C240 C241 1.391 . S
C240 C244 1.391 . S
C240 H282 0.948 . S
C241 C240 1.391 . S
C241 C242 1.391 . S
C242 C241 1.391 . S
C242 H298 0.947 . S
C242 C299 1.392 . S
C243 C244 1.391 . S
C243 C247 1.397 . S
C243 C299 1.419 . S
C244 C240 1.391 . S
C244 C243 1.391 . S
C244 C245 1.399 . S
C245 C244 1.399 . S
C245 C248 1.396 . S
C245 C257 1.453 . S
C245 C258 1.684 . S
H246 C270 0.948 . S
C247 C243 1.397 . S
C247 C248 1.394 . S
C247 C266 1.723 . S
C248 C245 1.396 . S
C248 C247 1.394 . S
C248 C278 1.723 1_554 S
H249 C272 0.947 . S
H250 C273 0.948 . S
H251 C279 0.982 . S
H252 C280 0.979 . S
H253 C280 0.980 . S
H254 C280 0.983 . S
H255 C279 0.979 . S
H256 C279 0.977 . S
C257 C245 1.453 . S
C257 H286 0.982 . S
C257 H287 0.979 . S
C257 H288 0.977 . S
C258 C245 1.684 . S
C258 H283 0.979 . S
C258 H284 0.980 . S
C258 H285 0.983 . S
C259 C260 1.391 . S
C259 C264 1.391 1_545 S
C259 H289 0.948 . S
C260 C259 1.391 . S
C260 C261 1.391 . S
C261 C260 1.391 . S
C261 C262 1.392 1_545 S
C261 H290 0.947 . S
C262 C261 1.392 1_565 S
C262 C263 1.419 . S
C262 H291 0.948 . S
C263 C262 1.419 . S
C263 C264 1.391 . S
C263 C267 1.397 . S
C264 C259 1.391 1_565 S
C264 C263 1.391 . S
C264 C265 1.399 1_556 S
C265 C264 1.399 1_554 S
C265 C266 1.396 . S
C265 C268 1.453 1_565 S
C265 C269 1.684 . S
C266 C247 1.723 . S
C266 C265 1.396 . S
C266 C267 1.394 1_554 S
C267 C263 1.397 . S
C267 C266 1.394 1_556 S
C267 C277 1.723 . S
C268 C265 1.453 1_545 S
C268 H292 0.982 . S
C268 H293 0.979 . S
C268 H294 0.977 1_545 S
C269 C265 1.684 . S
C269 H295 0.979 . S
C269 H296 0.980 . S
C269 H297 0.965 1_565 S
C270 H246 0.948 . S
C270 C271 1.391 . S
C270 C275 1.391 . S
C271 C270 1.391 . S
C271 C272 1.391 . S
C272 H249 0.947 . S
C272 C271 1.391 . S
C272 C273 1.392 1_556 S
C273 H250 0.948 . S
C273 C272 1.392 1_554 S
C273 C274 1.419 1_554 S
C274 C273 1.419 1_556 S
C274 C275 1.391 . S
C274 C278 1.397 . S
C275 C270 1.391 . S
C275 C274 1.391 . S
C275 C276 1.399 . S
C276 C275 1.399 . S
C276 C277 1.396 . S
C276 C279 1.453 . S
C276 C280 1.684 . S
C277 C267 1.723 . S
C277 C276 1.396 . S
C277 C278 1.394 . S
C278 C248 1.723 1_556 S
C278 C274 1.397 . S
C278 C277 1.394 . S
C279 H251 0.982 . S
C279 H255 0.979 . S
C279 H256 0.977 . S
C279 C276 1.453 . S
C280 H252 0.979 . S
C280 H253 0.980 . S
C280 H254 0.983 . S
C280 C276 1.684 . S
H281 C299 0.948 . S
H282 C240 0.948 . S
H283 C258 0.979 . S
H284 C258 0.980 . S
H285 C258 0.983 . S
H286 C257 0.982 . S
H287 C257 0.979 . S
H288 C257 0.977 . S
H289 C259 0.948 . S
H290 C261 0.947 . S
H291 C262 0.948 . S
H292 C268 0.982 . S
H293 C268 0.979 . S
H294 C268 0.977 1_565 S
H295 C269 0.979 . S
H296 C269 0.980 . S
H297 C269 0.965 1_545 S
H298 C242 0.947 . S
C299 C242 1.392 . S
C299 C243 1.419 . S
C299 H281 0.948 . S
C300 C301 1.391 . S
C300 C304 1.391 . S
C300 H342 0.948 . S
C301 C300 1.391 . S
C301 C302 1.391 . S
C302 C301 1.391 . S
C302 H358 0.947 . S
C302 C359 1.392 . S
C303 C304 1.391 . S
C303 C307 1.397 . S
C303 C359 1.419 . S
C304 C300 1.391 . S
C304 C303 1.391 . S
C304 C305 1.399 . S
C305 C304 1.399 . S
C305 C308 1.396 . S
C305 C317 1.453 . S
C305 C318 1.684 . S
H306 C330 0.948 . S
C307 C303 1.397 . S
C307 C308 1.394 . S
C307 C326 1.723 . S
C308 C305 1.396 . S
C308 C307 1.394 . S
C308 C338 1.723 . S
H309 C332 0.947 . S
H310 C333 0.948 . S
H311 C339 0.982 . S
H312 C340 0.979 . S
H313 C340 0.980 . S
H314 C340 0.965 1_565 S
H315 C339 0.979 . S
H316 C339 0.977 1_545 S
C317 C305 1.453 . S
C317 H346 0.982 . S
C317 H347 0.979 . S
C317 H348 0.977 . S
C318 C305 1.684 . S
C318 H343 0.979 . S
C318 H344 0.980 . S
C318 H345 0.983 . S
C319 C320 1.391 . S
C319 C324 1.391 . S
C319 H349 0.948 . S
C320 C319 1.391 . S
C320 C321 1.391 . S
C321 C320 1.391 . S
C321 C322 1.392 . S
C321 H350 0.947 . S
C322 C321 1.392 . S
C322 C323 1.419 . S
C322 H351 0.948 . S
C323 C322 1.419 . S
C323 C324 1.391 . S
C323 C327 1.397 . S
C324 C319 1.391 . S
C324 C323 1.391 . S
C324 C325 1.399 . S
C325 C324 1.399 . S
C325 C326 1.396 . S
C325 C328 1.453 . S
C325 C329 1.684 . S
C326 C307 1.723 . S
C326 C325 1.396 . S
C326 C327 1.394 . S
C327 C323 1.397 . S
C327 C326 1.394 . S
C327 C337 1.723 . S
C328 C325 1.453 . S
C328 H352 0.982 . S
C328 H353 0.979 . S
C328 H354 0.977 . S
C329 C325 1.684 . S
C329 H355 0.979 . S
C329 H356 0.980 . S
C329 H357 0.983 . S
C330 H306 0.948 . S
C330 C331 1.391 . S
C330 C335 1.391 1_565 S
C331 C330 1.391 . S
C331 C332 1.391 . S
C332 H309 0.947 . S
C332 C331 1.391 . S
C332 C333 1.392 1_565 S
C333 H310 0.948 . S
C333 C332 1.392 1_545 S
C333 C334 1.419 . S
C334 C333 1.419 . S
C334 C335 1.391 . S
C334 C338 1.397 . S
C335 C330 1.391 1_545 S
C335 C334 1.391 . S
C335 C336 1.399 . S
C336 C335 1.399 . S
C336 C337 1.396 . S
C336 C339 1.453 1_545 S
C336 C340 1.684 . S
C337 C327 1.723 . S
C337 C336 1.396 . S
C337 C338 1.394 . S
C338 C308 1.723 . S
C338 C334 1.397 . S
C338 C337 1.394 . S
C339 H311 0.982 . S
C339 H315 0.979 . S
C339 H316 0.977 1_565 S
C339 C336 1.453 1_565 S
C340 H312 0.979 . S
C340 H313 0.980 . S
C340 H314 0.965 1_545 S
C340 C336 1.684 . S
H341 C359 0.948 . S
H342 C300 0.948 . S
H343 C318 0.979 . S
H344 C318 0.980 . S
H345 C318 0.983 . S
H346 C317 0.982 . S
H347 C317 0.979 . S
H348 C317 0.977 . S
H349 C319 0.948 . S
H350 C321 0.947 . S
H351 C322 0.948 . S
H352 C328 0.982 . S
H353 C328 0.979 . S
H354 C328 0.977 . S
H355 C329 0.979 . S
H356 C329 0.980 . S
H357 C329 0.983 . S
H358 C302 0.947 . S
C359 C302 1.392 . S
C359 C303 1.419 . S
C359 H341 0.948 . S
C360 C361 1.391 . S
C360 C364 1.391 1_545 S
C360 H402 0.948 . S
C361 C360 1.391 . S
C361 C362 1.391 . S
C362 C361 1.391 . S
C362 H418 0.947 . S
C362 C419 1.392 . S
C363 C364 1.391 . S
C363 C367 1.397 . S
C363 C419 1.419 1_565 S
C364 C360 1.391 1_565 S
C364 C363 1.391 . S
C364 C365 1.399 . S
C365 C364 1.399 . S
C365 C368 1.396 . S
C365 C377 1.453 . S
C365 C378 1.684 . S
H366 C390 0.948 . S
C367 C363 1.397 . S
C367 C368 1.394 . S
C367 C386 1.723 1_556 S
C368 C365 1.396 . S
C368 C367 1.394 . S
C368 C398 1.723 . S
H369 C392 0.947 . S
H370 C393 0.948 . S
H371 C399 0.982 . S
H372 C400 0.979 . S
H373 C400 0.980 . S
H374 C400 0.983 . S
H375 C399 0.979 . S
H376 C399 0.977 . S
C377 C365 1.453 . S
C377 H406 0.982 . S
C377 H407 0.979 . S
C377 H408 0.977 . S
C378 C365 1.684 . S
C378 H403 0.979 . S
C378 H404 0.980 . S
C378 H405 0.983 . S
C379 C380 1.391 . S
C379 C384 1.391 . S
C379 H409 0.948 . S
C380 C379 1.391 . S
C380 C381 1.391 . S
C381 C380 1.391 . S
C381 C382 1.392 . S
C381 H410 0.947 . S
C382 C381 1.392 . S
C382 C383 1.419 . S
C382 H411 0.948 . S
C383 C382 1.419 . S
C383 C384 1.391 . S
C383 C387 1.397 . S
C384 C379 1.391 . S
C384 C383 1.391 . S
C384 C385 1.399 . S
C385 C384 1.399 . S
C385 C386 1.396 . S
C385 C388 1.453 . S
C385 C389 1.684 . S
C386 C367 1.723 1_554 S
C386 C385 1.396 . S
C386 C387 1.394 . S
C387 C383 1.397 . S
C387 C386 1.394 . S
C387 C397 1.723 . S
C388 C385 1.453 . S
C388 H412 0.982 . S
C388 H413 0.979 . S
C388 H414 0.977 1_565 S
C389 C385 1.684 . S
C389 H415 0.979 . S
C389 H416 0.980 . S
C389 H417 0.983 . S
C390 H366 0.948 . S
C390 C391 1.391 . S
C390 C395 1.391 . S
C391 C390 1.391 . S
C391 C392 1.391 . S
C392 H369 0.947 . S
C392 C391 1.391 . S
C392 C393 1.392 . S
C393 H370 0.948 . S
C393 C392 1.392 . S
C393 C394 1.419 . S
C394 C393 1.419 . S
C394 C395 1.391 . S
C394 C398 1.397 . S
C395 C390 1.391 . S
C395 C394 1.391 . S
C395 C396 1.399 1_556 S
C396 C395 1.399 1_554 S
C396 C397 1.396 . S
C396 C399 1.453 . S
C396 C400 1.684 . S
C397 C387 1.723 . S
C397 C396 1.396 . S
C397 C398 1.394 1_554 S
C398 C368 1.723 . S
C398 C394 1.397 . S
C398 C397 1.394 1_556 S
C399 H371 0.982 . S
C399 H375 0.979 . S
C399 H376 0.977 . S
C399 C396 1.453 . S
C400 H372 0.979 . S
C400 H373 0.980 . S
C400 H374 0.983 . S
C400 C396 1.684 . S
H401 C419 0.948 1_554 S
H402 C360 0.948 . S
H403 C378 0.979 . S
H404 C378 0.980 . S
H405 C378 0.983 . S
H406 C377 0.982 . S
H407 C377 0.979 . S
H408 C377 0.977 . S
H409 C379 0.948 . S
H410 C381 0.947 . S
H411 C382 0.948 . S
H412 C388 0.982 . S
H413 C388 0.979 . S
H414 C388 0.977 1_545 S
H415 C389 0.979 . S
H416 C389 0.980 . S
H417 C389 0.983 . S
H418 C362 0.947 . S
C419 C362 1.392 . S
C419 C363 1.419 1_545 S
C419 H401 0.948 1_556 S
C420 C421 1.391 . S
C420 C424 1.391 . S
C420 H462 0.948 . S
C421 C420 1.391 . S
C421 C422 1.391 . S
C422 C421 1.391 . S
C422 H478 0.947 . S
C422 C479 1.392 . S
C423 C424 1.391 . S
C423 C427 1.397 . S
C423 C479 1.419 . S
C424 C420 1.391 . S
C424 C423 1.391 . S
C424 C425 1.399 . S
C425 C424 1.399 . S
C425 C428 1.396 . S
C425 C437 1.453 . S
C425 C438 1.684 . S
H426 C450 0.948 . S
C427 C423 1.397 . S
C427 C428 1.394 . S
C427 C446 1.723 . S
C428 C425 1.396 . S
C428 C427 1.394 . S
C428 C458 1.723 . S
H429 C452 0.947 . S
H430 C453 0.948 . S
H431 C459 0.982 . S
H432 C460 0.979 . S
H433 C460 0.980 . S
H434 C460 0.983 . S
H435 C459 0.979 1_565 S
H436 C459 0.977 . S
C437 C425 1.453 . S
C437 H466 0.982 . S
C437 H467 0.979 . S
C437 H468 0.977 . S
C438 C425 1.684 . S
C438 H463 0.979 . S
C438 H464 0.980 . S
C438 H465 0.983 . S
C439 C440 1.391 . S
C439 C444 1.391 . S
C439 H469 0.948 . S
C440 C439 1.391 . S
C440 C441 1.391 . S
C441 C440 1.391 . S
C441 C442 1.392 . S
C441 H470 0.947 . S
C442 C441 1.392 . S
C442 C443 1.419 . S
C442 H471 0.948 . S
C443 C442 1.419 . S
C443 C444 1.391 . S
C443 C447 1.397 . S
C444 C439 1.391 . S
C444 C443 1.391 . S
C444 C445 1.399 . S
C445 C444 1.399 . S
C445 C446 1.396 . S
C445 C448 1.453 . S
C445 C449 1.684 . S
C446 C427 1.723 . S
C446 C445 1.396 . S
C446 C447 1.394 . S
C447 C443 1.397 . S
C447 C446 1.394 . S
C447 C457 1.723 . S
C448 C445 1.453 . S
C448 H472 0.982 . S
C448 H473 0.979 . S
C448 H474 0.977 . S
C449 C445 1.684 . S
C449 H475 0.979 . S
C449 H476 0.980 . S
C449 H477 0.983 . S
C450 H426 0.948 . S
C450 C451 1.391 . S
C450 C455 1.391 . S
C451 C450 1.391 . S
C451 C452 1.391 . S
C452 H429 0.947 . S
C452 C451 1.391 . S
C452 C453 1.392 1_565 S
C453 H430 0.948 . S
C453 C452 1.392 1_545 S
C453 C454 1.419 . S
C454 C453 1.419 . S
C454 C455 1.391 1_545 S
C454 C458 1.397 . S
C455 C450 1.391 . S
C455 C454 1.391 1_565 S
C455 C456 1.399 1_565 S
C456 C455 1.399 1_545 S
C456 C457 1.396 . S
C456 C459 1.453 . S
C456 C460 1.684 1_545 S
C457 C447 1.723 . S
C457 C456 1.396 . S
C457 C458 1.394 . S
C458 C428 1.723 . S
C458 C454 1.397 . S
C458 C457 1.394 . S
C459 H431 0.982 . S
C459 H435 0.979 1_545 S
C459 H436 0.977 . S
C459 C456 1.453 . S
C460 H432 0.979 . S
C460 H433 0.980 . S
C460 H434 0.983 . S
C460 C456 1.684 1_565 S
H461 C479 0.948 . S
H462 C420 0.948 . S
H463 C438 0.979 . S
H464 C438 0.980 . S
H465 C438 0.983 . S
H466 C437 0.982 . S
H467 C437 0.979 . S
H468 C437 0.977 . S
H469 C439 0.948 . S
H470 C441 0.947 . S
H471 C442 0.948 . S
H472 C448 0.982 . S
H473 C448 0.979 . S
H474 C448 0.977 . S
H475 C449 0.979 . S
H476 C449 0.980 . S
H477 C449 0.983 . S
H478 C422 0.947 . S
C479 C422 1.392 . S
C479 C423 1.419 . S
C479 H461 0.948 . S
Fe480 O482 1.918 . S
Fe480 O485 1.997 1_455 S
Fe480 O486 2.002 1_455 S
Fe480 O491 1.976 . S
Fe480 O494 1.996 . S
Fe481 O482 1.918 . S
Fe481 O489 1.997 1_455 S
Fe481 O492 1.996 . S
Fe481 O496 1.976 . S
Fe481 O499 2.002 1_455 S
O482 Fe480 1.918 . S
O482 Fe481 1.918 . S
O482 Fe483 1.918 . S
Fe483 O482 1.918 . S
Fe483 O484 2.002 1_455 S
Fe483 O493 1.976 . S
Fe483 O497 1.996 . S
Fe483 O500 1.997 1_455 S
O484 Fe483 2.002 1_655 S
O484 C501 1.295 . S
O485 Fe480 1.997 1_655 S
O485 C501 1.235 . S
O486 Fe480 2.002 1_655 S
O486 C487 1.295 . S
C487 O486 1.295 . S
C487 O489 1.235 . S
C488 O493 1.287 . S
C488 O494 1.255 . S
O489 Fe481 1.997 1_655 S
O489 C487 1.235 . S
C490 O496 1.287 . S
C490 O497 1.255 . S
O491 Fe480 1.976 . S
O491 C498 1.287 . S
O492 Fe481 1.996 . S
O492 C498 1.255 . S
O493 Fe483 1.976 . S
O493 C488 1.287 . S
O494 Fe480 1.996 . S
O494 C488 1.255 . S
C495 O499 1.295 . S
C495 O500 1.235 . S
O496 Fe481 1.976 . S
O496 C490 1.287 . S
O497 Fe483 1.996 . S
O497 C490 1.255 . S
C498 O491 1.287 . S
C498 O492 1.255 . S
O499 Fe481 2.002 1_655 S
O499 C495 1.295 . S
O500 Fe483 1.997 1_655 S
O500 C495 1.235 . S
C501 O484 1.295 . S
C501 O485 1.235 . S
Fe502 O504 1.918 . S
Fe502 O507 1.997 1_655 S
Fe502 O508 2.002 1_655 S
Fe502 O513 1.976 . S
Fe502 O516 1.996 . S
Fe503 O504 1.918 . S
Fe503 O511 1.997 1_655 S
Fe503 O514 1.996 . S
Fe503 O518 1.976 . S
Fe503 O521 2.002 1_655 S
O504 Fe502 1.918 . S
O504 Fe503 1.918 . S
O504 Fe505 1.918 . S
Fe505 O504 1.918 . S
Fe505 O506 2.002 1_655 S
Fe505 O515 1.976 . S
Fe505 O519 1.996 . S
Fe505 O522 1.997 1_655 S
O506 Fe505 2.002 1_455 S
O506 C523 1.295 . S
O507 Fe502 1.997 1_455 S
O507 C523 1.235 . S
O508 Fe502 2.002 1_455 S
O508 C509 1.295 . S
C509 O508 1.295 . S
C509 O511 1.235 . S
C510 O515 1.287 . S
C510 O516 1.255 . S
O511 Fe503 1.997 1_455 S
O511 C509 1.235 . S
C512 O518 1.287 . S
C512 O519 1.255 . S
O513 Fe502 1.976 . S
O513 C520 1.287 . S
O514 Fe503 1.996 . S
O514 C520 1.255 . S
O515 Fe505 1.976 . S
O515 C510 1.287 . S
O516 Fe502 1.996 . S
O516 C510 1.255 . S
C517 O521 1.295 . S
C517 O522 1.235 . S
O518 Fe503 1.976 . S
O518 C512 1.287 . S
O519 Fe505 1.996 . S
O519 C512 1.255 . S
C520 O513 1.287 . S
C520 O514 1.255 . S
O521 Fe503 2.002 1_455 S
O521 C517 1.295 . S
O522 Fe505 1.997 1_455 S
O522 C517 1.235 . S
C523 O506 1.295 . S
C523 O507 1.235 . S
Fe524 O526 1.918 . S
Fe524 O529 1.997 . S
Fe524 O530 2.002 . S
Fe524 O535 1.976 . S
Fe524 O538 1.996 . S
Fe525 O526 1.918 . S
Fe525 O533 1.997 . S
Fe525 O536 1.996 . S
Fe525 O540 1.976 . S
Fe525 O543 2.002 . S
O526 Fe524 1.918 . S
O526 Fe525 1.918 . S
O526 Fe527 1.918 . S
Fe527 O526 1.918 . S
Fe527 O528 2.002 . S
Fe527 O537 1.976 . S
Fe527 O541 1.996 . S
Fe527 O544 1.997 . S
O528 Fe527 2.002 . S
O528 C545 1.295 . S
O529 Fe524 1.997 . S
O529 C545 1.235 . S
O530 Fe524 2.002 . S
O530 C531 1.295 . S
C531 O530 1.295 . S
C531 O533 1.235 . S
C532 O537 1.287 . S
C532 O538 1.255 . S
O533 Fe525 1.997 . S
O533 C531 1.235 . S
C534 O540 1.287 . S
C534 O541 1.255 . S
O535 Fe524 1.976 . S
O535 C542 1.287 . S
O536 Fe525 1.996 . S
O536 C542 1.255 . S
O537 Fe527 1.976 . S
O537 C532 1.287 . S
O538 Fe524 1.996 . S
O538 C532 1.255 . S
C539 O543 1.295 . S
C539 O544 1.235 . S
O540 Fe525 1.976 . S
O540 C534 1.287 . S
O541 Fe527 1.996 . S
O541 C534 1.255 . S
C542 O535 1.287 . S
C542 O536 1.255 . S
O543 Fe525 2.002 . S
O543 C539 1.295 . S
O544 Fe527 1.997 . S
O544 C539 1.235 . S
C545 O528 1.295 . S
C545 O529 1.235 . S
Fe546 O548 1.918 . S
Fe546 O551 1.997 . S
Fe546 O552 2.002 . S
Fe546 O557 1.976 . S
Fe546 O560 1.996 . S
Fe547 O548 1.918 . S
Fe547 O555 1.997 . S
Fe547 O558 1.996 . S
Fe547 O562 1.976 . S
Fe547 O565 2.002 . S
O548 Fe546 1.918 . S
O548 Fe547 1.918 . S
O548 Fe549 1.918 . S
Fe549 O548 1.918 . S
Fe549 O550 2.002 . S
Fe549 O559 1.976 . S
Fe549 O563 1.996 . S
Fe549 O566 1.997 . S
O550 Fe549 2.002 . S
O550 C567 1.295 . S
O551 Fe546 1.997 . S
O551 C567 1.235 . S
O552 Fe546 2.002 . S
O552 C553 1.295 . S
C553 O552 1.295 . S
C553 O555 1.235 . S
C554 O559 1.287 . S
C554 O560 1.255 . S
O555 Fe547 1.997 . S
O555 C553 1.235 . S
C556 O562 1.287 . S
C556 O563 1.255 . S
O557 Fe546 1.976 . S
O557 C564 1.287 . S
O558 Fe547 1.996 . S
O558 C564 1.255 . S
O559 Fe549 1.976 . S
O559 C554 1.287 . S
O560 Fe546 1.996 . S
O560 C554 1.255 . S
C561 O565 1.295 . S
C561 O566 1.235 . S
O562 Fe547 1.976 . S
O562 C556 1.287 . S
O563 Fe549 1.996 . S
O563 C556 1.255 . S
C564 O557 1.287 . S
C564 O558 1.255 . S
O565 Fe547 2.002 . S
O565 C561 1.295 . S
O566 Fe549 1.997 . S
O566 C561 1.235 . S
C567 O550 1.295 . S
C567 O551 1.235 . S
C31 C523 1.717 . S
C487 C61 1.717 . S
C510 C151 1.595 . S
C498 C181 1.819 . S
C567 C271 1.717 . S
C531 C301 1.717 . S
C391 C554 1.595 . S
C542 C421 1.819 . S
C20 C564 1.894 . S
C534 C91 1.894 . S
C121 C553 1.719 . S
C211 C539 2.118 . S
C520 C260 1.894 . S
C331 C490 1.895 . S
C509 C361 1.719 . S
C495 C451 2.118 . S
C545 C1 1.708 . S
C561 C80 1.708 . S
C140 C532 1.866 . S
C556 C200 1.882 . S
C501 C241 1.708 . S
C320 C517 1.708 . S
C380 C488 1.866 . S
C440 C512 1.882 . S
