# Generated by pormake.
# Topology pyr, (3,6)-cn, num edge types: 1
# Building blocks:
#     Node 0, Type 0, BuildingBlock: BETDIP_clean_linker_0, # of connection points: 3
#     Node 1, Type 0, BuildingBlock: BETDIP_clean_linker_0, # of connection points: 3
#     Node 2, Type 0, BuildingBlock: BETDIP_clean_linker_0, # of connection points: 3
#     Node 3, Type 0, BuildingBlock: BETDIP_clean_linker_0, # of connection points: 3
#     Node 4, Type 0, BuildingBlock: BETDIP_clean_linker_0, # of connection points: 3
#     Node 5, Type 0, BuildingBlock: BETDIP_clean_linker_0, # of connection points: 3
#     Node 6, Type 0, BuildingBlock: BETDIP_clean_linker_0, # of connection points: 3
#     Node 7, Type 0, BuildingBlock: BETDIP_clean_linker_0, # of connection points: 3
#     Node 8, Type 1, BuildingBlock: FUNLAD_clean_sbu_0, # of connection points: 6
#     Node 9, Type 1, BuildingBlock: FUNLAD_clean_sbu_0, # of connection points: 6
#     Node 10, Type 1, BuildingBlock: FUNLAD_clean_sbu_0, # of connection points: 6
#     Node 11, Type 1, BuildingBlock: FUNLAD_clean_sbu_0, # of connection points: 6
#     Edge 12, Type (0, 1), BuildingBlock: TEMPAE_clean_linker_10, # of connection points: 2
#     Edge 13, Type (0, 1), BuildingBlock: TEMPAE_clean_linker_10, # of connection points: 2
#     Edge 14, Type (0, 1), BuildingBlock: TEMPAE_clean_linker_10, # of connection points: 2
#     Edge 15, Type (0, 1), BuildingBlock: TEMPAE_clean_linker_10, # of connection points: 2
#     Edge 16, Type (0, 1), BuildingBlock: TEMPAE_clean_linker_10, # of connection points: 2
#     Edge 17, Type (0, 1), BuildingBlock: TEMPAE_clean_linker_10, # of connection points: 2
#     Edge 18, Type (0, 1), BuildingBlock: TEMPAE_clean_linker_10, # of connection points: 2
#     Edge 19, Type (0, 1), BuildingBlock: TEMPAE_clean_linker_10, # of connection points: 2
#     Edge 20, Type (0, 1), BuildingBlock: TEMPAE_clean_linker_10, # of connection points: 2
#     Edge 21, Type (0, 1), BuildingBlock: TEMPAE_clean_linker_10, # of connection points: 2
#     Edge 22, Type (0, 1), BuildingBlock: TEMPAE_clean_linker_10, # of connection points: 2
#     Edge 23, Type (0, 1), BuildingBlock: TEMPAE_clean_linker_10, # of connection points: 2
#     Edge 24, Type (0, 1), BuildingBlock: TEMPAE_clean_linker_10, # of connection points: 2
#     Edge 25, Type (0, 1), BuildingBlock: TEMPAE_clean_linker_10, # of connection points: 2
#     Edge 26, Type (0, 1), BuildingBlock: TEMPAE_clean_linker_10, # of connection points: 2
#     Edge 27, Type (0, 1), BuildingBlock: TEMPAE_clean_linker_10, # of connection points: 2
#     Edge 28, Type (0, 1), BuildingBlock: TEMPAE_clean_linker_10, # of connection points: 2
#     Edge 29, Type (0, 1), BuildingBlock: TEMPAE_clean_linker_10, # of connection points: 2
#     Edge 30, Type (0, 1), BuildingBlock: TEMPAE_clean_linker_10, # of connection points: 2
#     Edge 31, Type (0, 1), BuildingBlock: TEMPAE_clean_linker_10, # of connection points: 2
#     Edge 32, Type (0, 1), BuildingBlock: TEMPAE_clean_linker_10, # of connection points: 2
#     Edge 33, Type (0, 1), BuildingBlock: TEMPAE_clean_linker_10, # of connection points: 2
#     Edge 34, Type (0, 1), BuildingBlock: TEMPAE_clean_linker_10, # of connection points: 2
#     Edge 35, Type (0, 1), BuildingBlock: TEMPAE_clean_linker_10, # of connection points: 2
# Relax obj value: 0.197
# Max RMSD: 0.198
# Mean RMSD: 0.134
data_MOF--net-pry--node1-FUNLAD_clean_sbu_0--node2-BETDIP_clean_linker_0--edge1-TEMPAE_clean_linker_10
_symmetry_space_group_name_H-M    P1
_symmetry_Int_Tables_number       1
_symmetry_cell_setting            triclinic
loop_
_symmetry_equiv_pos_as_xyz
'x, y, z'
_cell_length_a     35.107275
_cell_length_b     37.053062
_cell_length_c     39.325644
_cell_angle_alpha  93.412375
_cell_angle_beta   86.037575
_cell_angle_gamma 90.787986
loop_
_atom_site_label
_atom_site_type_symbol
_atom_site_fract_x
_atom_site_fract_y
_atom_site_fract_z
_atom_type_partial_charge
H0 H 0.11319 0.19537 0.25057 0.0
H1 H 0.19431 0.18974 0.16343 0.0
H2 H 0.20025 0.11334 0.24078 0.0
H3 H 0.18385 0.25133 0.16767 0.0
C4 C 0.15294 0.2524 0.17154 0.0
C5 C 0.13743 0.18232 0.23667 0.0
C6 C 0.15475 0.15242 0.25018 0.0
C7 C 0.15187 0.19657 0.2058 0.0
C8 C 0.18347 0.17975 0.18758 0.0
C9 C 0.20133 0.14991 0.20014 0.0
C10 C 0.18694 0.13671 0.23152 0.0
N11 N 0.1338 0.22729 0.19336 0.0
H12 H 0.35219 0.91612 0.74663 0.0
H13 H 0.3571 0.83772 0.66194 0.0
H14 H 0.43584 0.83097 0.74072 0.0
H15 H 0.33431 0.88699 0.6353 0.0
C16 C 0.31277 0.89742 0.65441 0.0
C17 C 0.36523 0.89219 0.73389 0.0
C18 C 0.39582 0.87546 0.7483 0.0
C19 C 0.35158 0.87934 0.70264 0.0
C20 C 0.36816 0.84832 0.68559 0.0
C21 C 0.39858 0.83038 0.69892 0.0
C22 C 0.41274 0.84465 0.73008 0.0
N23 N 0.32028 0.89747 0.68967 0.0
H24 H 0.67959 0.50483 0.95616 0.0
H25 H 0.57732 0.44131 0.95354 0.0
H26 H 0.65537 0.42623 0.03115 0.0
H27 H 0.67506 0.4695 0.89796 0.0
C28 C 0.64831 0.48213 0.89314 0.0
C29 C 0.66024 0.48565 0.96826 0.0
C30 C 0.67107 0.46776 0.99647 0.0
C31 C 0.62627 0.47635 0.95316 0.0
C32 C 0.60212 0.44995 0.96697 0.0
C33 C 0.61285 0.43103 0.99462 0.0
C34 C 0.64676 0.44097 1.01 0.0
N35 N 0.61998 0.48779 0.92039 0.0
H36 H 0.8811 0.52208 0.45009 0.0
H37 H 0.9788 0.58774 0.47254 0.0
H38 H 0.86739 0.63492 0.48194 0.0
H39 H 0.96181 0.47165 0.42288 0.0
C40 C 0.95692 0.50044 0.42206 0.0
C41 C 0.89282 0.54805 0.45842 0.0
C42 C 0.86868 0.57786 0.46653 0.0
C43 C 0.93238 0.55159 0.46126 0.0
C44 C 0.94812 0.58502 0.47135 0.0
C45 C 0.92485 0.61539 0.47734 0.0
C46 C 0.88521 0.61143 0.47608 0.0
N47 N 0.95695 0.52184 0.45326 0.0
H48 H 0.82855 0.86887 0.9115 0.0
H49 H 0.91257 0.86086 0.82663 0.0
H50 H 0.82628 0.94374 0.83253 0.0
H51 H 0.94666 0.83064 0.86772 0.0
C52 C 0.92464 0.81667 0.8828 0.0
C53 C 0.84067 0.879 0.88777 0.0
C54 C 0.82364 0.90848 0.87409 0.0
C55 C 0.8729 0.86192 0.87138 0.0
C56 C 0.88843 0.8746 0.83995 0.0
C57 C 0.87145 0.90398 0.82497 0.0
C58 C 0.83912 0.92062 0.8427 0.0
N59 N 0.88699 0.83111 0.88687 0.0
H60 H 0.67315 0.14263 0.32087 0.0
H61 H 0.66868 0.2252 0.40215 0.0
H62 H 0.5907 0.22832 0.32236 0.0
H63 H 0.69105 0.17691 0.43127 0.0
C64 C 0.71232 0.1651 0.41267 0.0
C65 C 0.66038 0.16721 0.3325 0.0
C66 C 0.63004 0.18332 0.3172 0.0
C67 C 0.67403 0.18152 0.36332 0.0
C68 C 0.65771 0.21349 0.37887 0.0
C69 C 0.62757 0.23085 0.36443 0.0
C70 C 0.61351 0.21508 0.33384 0.0
N71 N 0.705 0.16376 0.37728 0.0
H72 H 0.38523 0.52408 0.09468 0.0
H73 H 0.48091 0.59266 0.11671 0.0
H74 H 0.37677 0.63974 0.09072 0.0
H75 H 0.51331 0.50708 0.12042 0.0
C76 C 0.48802 0.52206 0.12991 0.0
C77 C 0.39744 0.55103 0.09691 0.0
C78 C 0.37525 0.58157 0.09247 0.0
C79 C 0.43542 0.55487 0.10541 0.0
C80 C 0.45159 0.58956 0.10999 0.0
C81 C 0.43007 0.62028 0.10555 0.0
C82 C 0.39241 0.61596 0.09604 0.0
N83 N 0.45721 0.52336 0.10843 0.0
H84 H 0.04491 0.46909 0.6 0.0
H85 H 0.14322 0.53709 0.61285 0.0
H86 H 0.1569 0.4241 0.5815 0.0
H87 H 0.06504 0.58698 0.64486 0.0
C88 C 0.07029 0.55833 0.64631 0.0
C89 C 0.0757 0.47241 0.59853 0.0
C90 C 0.09924 0.44242 0.59102 0.0
C91 C 0.09157 0.50632 0.60665 0.0
C92 C 0.1314 0.51074 0.60592 0.0
C93 C 0.15562 0.48138 0.59605 0.0
C94 C 0.13901 0.44728 0.58861 0.0
N95 N 0.06693 0.53568 0.61622 0.0
C96 C 0.04732 0.05177 0.47546 0.0
N97 N 0.02354 0.10598 0.57134 0.0
C98 C 0.05875 0.1214 0.56674 0.0
C99 C 0.06422 0.15797 0.57562 0.0
C100 C 0.03305 0.17888 0.58899 0.0
C101 C 0.99744 0.16193 0.59502 0.0
C102 C 0.99333 0.12512 0.5861 0.0
Zn103 Zn 0.01501 0.05561 0.54981 0.0
C104 C 0.94135 0.05332 0.51271 0.0
N105 N 0.99648 0.95209 0.50193 0.0
C106 C 0.02701 0.93338 0.48721 0.0
C107 C 0.96149 0.9362 0.50638 0.0
C108 C 0.95662 0.89955 0.49743 0.0
C109 C 0.98819 0.87911 0.48421 0.0
C110 C 0.02353 0.89654 0.4783 0.0
Zn111 Zn 1.00468 1.00244 0.52355 0.0
O112 O 0.04404 0.07233 0.50262 0.0
C113 C 0.07839 1.00498 0.56036 0.0
O114 O 0.03401 0.01963 0.47652 0.0
H115 H 0.93776 0.95152 0.5185 0.0
H116 H 0.08221 0.10577 0.55456 0.0
H117 H 0.05454 0.94663 0.48388 0.0
O118 O 0.06809 0.0375 0.56757 0.0
O119 O 0.05762 0.98471 0.54185 0.0
H120 H 0.96561 0.11225 0.5895 0.0
O121 O 0.97592 0.98555 0.57077 0.0
O122 O 0.98583 0.0382 0.59703 0.0
O123 O 0.95145 0.02069 0.50564 0.0
O124 O 0.9621 0.07346 0.53138 0.0
C125 C 0.97292 1.00589 0.59809 0.0
H126 H 0.09202 0.17019 0.57022 0.0
H127 H 0.97284 0.17721 0.60552 0.0
H128 H 0.929 0.8869 0.50266 0.0
H129 H 0.04841 0.88159 0.46792 0.0
C130 C 0.58274 1.0072 1.00523 0.0
N131 N 0.51981 0.10334 1.00377 0.0
C132 C 0.55276 0.12151 1.00998 0.0
C133 C 0.55537 0.1586 1.00651 0.0
C134 C 0.52394 0.17693 0.99622 0.0
C135 C 0.49126 0.15738 0.98748 0.0
C136 C 0.48971 0.12015 0.99163 0.0
Zn137 Zn 0.51366 0.05351 1.02237 0.0
C138 C 0.48012 0.99766 0.97369 0.0
N139 N 0.50082 0.95215 0.06649 0.0
C140 C 0.53073 0.936 0.07953 0.0
C141 C 0.46692 0.93457 0.06322 0.0
C142 C 0.46254 0.89886 0.07203 0.0
C143 C 0.49346 0.88083 0.08396 0.0
C144 C 0.52765 0.90008 0.0885 0.0
Zn145 Zn 0.5071 1.00157 0.04694 0.0
O146 O 0.56966 0.03822 1.00038 0.0
C147 C 0.54092 0.05737 0.09544 0.0
O148 O 0.5629 0.98649 1.02437 0.0
H149 H 0.44359 0.94788 0.05267 0.0
H150 H 0.57617 0.10769 1.01988 0.0
H151 H 0.55744 0.95054 0.08182 0.0
O152 O 0.53733 0.07537 0.06926 0.0
O153 O 0.53129 0.02402 0.09372 0.0
H154 H 0.46368 0.10516 0.98723 0.0
O155 O 0.45107 1.01717 0.06917 0.0
O156 O 0.45793 0.0686 0.04479 0.0
O157 O 0.48328 0.97957 0.99995 0.0
O158 O 0.48976 0.03105 0.97554 0.0
C159 C 0.4381 0.0482 0.06418 0.0
H160 H 0.581 0.17313 1.01331 0.0
H161 H 0.46657 0.17102 0.97951 0.0
H162 H 0.43542 0.88523 0.06879 0.0
H163 H 0.55222 0.88713 0.09749 0.0
C164 C 0.53054 0.46585 0.49152 0.0
N165 N 0.53962 0.51022 0.59263 0.0
C166 C 0.53463 0.47656 0.60435 0.0
C167 C 0.54919 0.46842 0.63519 0.0
C168 C 0.56858 0.49538 0.65418 0.0
C169 C 0.57295 0.52984 0.64133 0.0
C170 C 0.55873 0.53651 0.61029 0.0
Zn171 Zn 0.52 0.52422 0.54793 0.0
C172 C 0.58415 0.55751 0.50546 0.0
N173 N 0.4842 0.5583 0.45375 0.0
C174 C 0.45975 0.53486 0.43826 0.0
C175 C 0.50089 0.58607 0.43687 0.0
C176 C 0.49559 0.58922 0.40223 0.0
C177 C 0.47266 0.5637 0.38504 0.0
C178 C 0.45317 0.53739 0.40399 0.0
Zn179 Zn 0.50219 0.54457 0.49963 0.0
O180 O 0.53501 0.47147 0.52331 0.0
C181 C 0.43831 0.51107 0.54281 0.0
O182 O 0.51676 0.49125 0.47579 0.0
H183 H 0.5203 0.60438 0.4496 0.0
H184 H 0.5195 0.45603 0.58974 0.0
H185 H 0.44715 0.51263 0.45179 0.0
O186 O 0.46461 0.50565 0.56248 0.0
O187 O 0.44627 0.52626 0.51501 0.0
H188 H 0.56296 0.56295 0.60037 0.0
O189 O 0.48809 0.59834 0.52444 0.0
O190 O 0.50424 0.57647 0.57179 0.0
O191 O 0.55843 0.5619 0.485 0.0
O192 O 0.57544 0.54341 0.53359 0.0
C193 C 0.49157 0.60272 0.55659 0.0
H194 H 0.54549 0.44134 0.64388 0.0
H195 H 0.58677 0.55182 0.65528 0.0
H196 H 0.51128 0.6099 0.38865 0.0
H197 H 0.43454 0.51765 0.39201 0.0
C198 C 1.00494 0.59941 1.00958 0.0
N199 N 0.99807 0.56188 0.11093 0.0
C200 C 0.01552 0.5897 0.1282 0.0
C201 C 1.00823 0.59534 0.16358 0.0
C202 C 0.98207 0.57269 0.18085 0.0
C203 C 0.96299 0.54564 0.16215 0.0
C204 C 0.97188 0.5403 0.12724 0.0
Zn205 Zn 0.0152 0.54546 0.06153 0.0
C206 C 0.94958 0.51013 0.02701 0.0
N207 N 0.04816 0.50385 0.96029 0.0
C208 C 0.07398 0.52532 0.94341 0.0
C209 C 0.03018 0.47603 0.94349 0.0
C210 C 0.03624 0.47049 0.90801 0.0
C211 C 0.06167 0.49325 0.89007 0.0
C212 C 0.08158 0.52012 0.90828 0.0
Zn213 Zn 0.03155 0.52047 1.00972 0.0
O214 O 1.00193 0.59759 0.04201 0.0
C215 C 0.09713 0.55495 0.04564 0.0
O216 O 0.01689 0.57178 0.99135 0.0
H217 H 1.00961 0.45937 0.95724 0.0
H218 H 0.03651 0.60636 0.11492 0.0
H219 H 0.08711 0.54805 0.95672 0.0
O220 O 0.07141 0.56203 0.06924 0.0
O221 O 0.08829 0.53887 1.01782 0.0
H222 H 0.95931 0.51742 0.11372 0.0
O223 O 0.04567 0.469 0.02888 0.0
O224 O 0.02898 0.4935 0.07975 0.0
O225 O 0.97464 0.50227 1.00295 0.0
O226 O 0.95931 0.52804 0.0535 0.0
C227 C 0.04174 0.46638 0.06115 0.0
H228 H 0.02373 0.61626 0.17745 0.0
H229 H 0.94333 0.52713 0.17481 0.0
H230 H 0.02022 0.44961 0.8946 0.0
H231 H 0.1008 0.53865 0.89516 0.0
C232 C 0.09989 0.13671 0.29284 0.0
C233 C 0.13936 0.13755 0.28357 0.0
C234 C 0.08519 0.12271 0.32384 0.0
C235 C 0.1103 0.10877 0.34653 0.0
C236 C 0.1501 0.10944 0.33738 0.0
C237 C 0.16405 0.12383 0.30635 0.0
C238 C 0.04261 0.1228 0.3323 0.0
C239 C 0.17813 0.09499 0.3605 0.0
C240 C 0.07566 0.10243 0.44098 0.0
C241 C 0.06481 0.06584 0.4427 0.0
C242 C 0.09048 0.1166 0.41013 0.0
C243 C 0.09497 0.0938 0.37984 0.0
C244 C 0.08452 0.05674 0.38149 0.0
C245 C 0.06954 0.04331 0.41267 0.0
C246 C 0.10094 0.15624 0.40988 0.0
C247 C 0.08895 0.03121 0.35015 0.0
H248 H 0.0802 0.14655 0.27557 0.0
H249 H 0.19459 0.12472 0.30018 0.0
H250 H 0.03203 0.09473 0.33527 0.0
H251 H 0.03592 0.13822 0.357 0.0
H252 H 0.02682 0.1349 0.31233 0.0
H253 H 0.2081 0.09671 0.34959 0.0
H254 H 0.17588 0.11039 0.38562 0.0
H255 H 0.17121 0.06633 0.36521 0.0
H256 H 0.07214 0.12031 0.46379 0.0
H257 H 0.06133 1.01505 0.41343 0.0
H258 H 0.08375 0.16961 0.3917 0.0
H259 H 0.1314 0.1595 0.401 0.0
H260 H 0.09613 0.1704 0.43549 0.0
H261 H 0.07134 0.04049 0.33006 0.0
H262 H 0.08032 1.00307 0.3556 0.0
H263 H 0.11911 0.03119 0.33963 0.0
C264 C 0.38252 0.90482 0.80809 0.0
C265 C 0.40909 0.89066 0.78234 0.0
C266 C 0.39402 0.92167 0.83901 0.0
C267 C 0.43331 0.92453 0.8452 0.0
C268 C 0.46033 0.9095 0.8198 0.0
C269 C 0.448 0.89285 0.78891 0.0
C270 C 0.36389 0.93683 0.86502 0.0
C271 C 0.50247 0.91153 0.82503 0.0
C272 C 0.46411 0.99854 0.91148 0.0
C273 C 0.46731 0.9793 0.94094 0.0
C274 C 0.45347 0.98117 0.88038 0.0
C275 C 0.44584 0.94335 0.87811 0.0
C276 C 0.44907 0.9238 0.90776 0.0
C277 C 0.4596 0.94185 0.93854 0.0
C278 C 0.4503 1.00344 0.84982 0.0
C279 C 0.44138 0.8836 0.907 0.0
H280 H 0.35232 0.90278 0.80412 0.0
H281 H 0.46905 0.8824 0.76949 0.0
H282 H 0.36598 0.92415 0.88966 0.0
H283 H 0.36865 0.96631 0.86978 0.0
H284 H 0.33453 0.93235 0.85665 0.0
H285 H 0.5199 0.89768 0.80359 0.0
H286 H 0.51181 0.94023 0.82759 0.0
H287 H 0.5083 0.89905 0.84908 0.0
H288 H 0.47004 0.02735 0.91265 0.0
H289 H 0.46206 0.92638 0.9608 0.0
H290 H 0.42079 1.00156 0.8414 0.0
H291 H 0.46964 0.99263 0.82821 0.0
H292 H 0.45756 0.03237 0.85535 0.0
H293 H 0.41158 0.87784 0.90046 0.0
H294 H 0.44574 0.87202 0.93184 0.0
H295 H 0.46045 0.86958 0.8869 0.0
C296 C 0.61068 0.50711 0.8487 0.0
C297 C 0.63815 0.48308 0.85763 0.0
C298 C 0.60055 0.50748 0.81488 0.0
C299 C 0.61752 0.48242 0.78991 0.0
C300 C 0.64496 0.45779 0.79902 0.0
C301 C 0.65547 0.45887 0.83278 0.0
C302 C 0.57204 0.53489 0.8058 0.0
C303 C 0.66279 0.43003 0.77327 0.0
C304 C 0.56279 0.46666 0.71059 0.0
C305 C 0.58336 0.4885 0.68769 0.0
C306 C 0.5746 0.46308 0.74356 0.0
C307 C 0.60707 0.48263 0.75409 0.0
C308 C 0.62863 0.50378 0.73084 0.0
C309 C 0.61695 0.50585 0.69773 0.0
C310 C 0.55165 0.43935 0.76746 0.0
C311 C 0.6631 0.52547 0.74134 0.0
H312 H 0.59755 0.52594 0.86806 0.0
H313 H 0.67653 0.44012 0.84 0.0
H314 H 0.58491 0.55155 0.78537 0.0
H315 H 0.5467 0.52088 0.79571 0.0
H316 H 0.56237 0.55315 0.82807 0.0
H317 H 0.68271 0.41202 0.78485 0.0
H318 H 0.64013 0.41315 0.76174 0.0
H319 H 0.67869 0.44367 0.75224 0.0
H320 H 0.5367 0.4533 0.70327 0.0
H321 H 0.63377 0.52186 0.67992 0.0
H322 H 0.53693 0.45637 0.78838 0.0
H323 H 0.57076 0.42087 0.77934 0.0
H324 H 0.52982 0.42292 0.7542 0.0
H325 H 0.6544 0.54553 0.76244 0.0
H326 H 0.67711 0.54011 0.71994 0.0
H327 H 0.68438 0.50753 0.75107 0.0
C328 C 0.96578 0.55305 0.384 0.0
C329 C 0.95778 0.51626 0.38814 0.0
C330 C 0.96781 0.56716 0.3516 0.0
C331 C 0.96362 0.54361 0.32246 0.0
C332 C 0.95595 0.5064 0.32637 0.0
C333 C 0.95282 0.49327 0.3592 0.0
C334 C 0.97551 0.6071 0.34858 0.0
C335 C 0.95202 0.48025 0.29582 0.0
C336 C 0.94203 0.57476 0.23583 0.0
C337 C 0.97823 0.57311 0.21847 0.0
C338 C 0.93714 0.56746 0.27046 0.0
C339 C 0.96908 0.5573 0.28768 0.0
C340 C 1.00597 0.55738 0.27064 0.0
C341 C 1.01013 0.56566 0.23624 0.0
C342 C 0.89758 0.56882 0.28812 0.0
C343 C 0.04067 0.54624 0.28796 0.0
H344 H 0.97172 0.57092 0.40567 0.0
H345 H 0.94716 0.46475 0.36222 0.0
H346 H 1.00529 0.6113 0.33813 0.0
H347 H 0.95631 0.61842 0.33073 0.0
H348 H 0.9716 0.62253 0.37364 0.0
H349 H 0.94589 0.45219 0.30326 0.0
H350 H 0.9287 0.48889 0.28057 0.0
H351 H 0.97877 0.48023 0.27903 0.0
H352 H 0.91739 0.58045 0.22191 0.0
H353 H 0.03802 0.56385 0.22257 0.0
H354 H 0.898 0.58424 0.31317 0.0
H355 H 0.88752 0.54099 0.29312 0.0
H356 H 0.87673 0.58144 0.27256 0.0
H357 H 0.04277 0.56202 0.31262 0.0
H358 H 0.06757 0.55006 0.27191 0.0
H359 H 0.03795 0.5173 0.29363 0.0
C360 C 0.23403 0.12373 0.1451 0.0
C361 C 0.23505 0.13265 0.18026 0.0
C362 C 0.26587 0.10854 0.12578 0.0
C363 C 0.30012 0.10266 0.1417 0.0
C364 C 0.30125 0.11149 0.17725 0.0
C365 C 0.2687 0.12597 0.19609 0.0
C366 C 0.26288 0.09896 0.08821 0.0
C367 C 0.3372 0.10641 0.19529 0.0
C368 C 0.37593 0.03787 0.09895 0.0
C369 C 0.40178 0.06162 0.08262 0.0
C370 C 0.34256 0.05069 0.11772 0.0
C371 C 0.33501 0.08832 0.12101 0.0
C372 C 0.36103 0.11238 0.10456 0.0
C373 C 0.39371 0.09878 0.08539 0.0
C374 C 0.31538 0.02391 0.13414 0.0
C375 C 0.35473 0.1527 0.10771 0.0
H376 H 0.20808 0.12843 0.13267 0.0
H377 H 0.26991 0.13304 0.22315 0.0
H378 H 0.28347 0.11552 0.07297 0.0
H379 H 0.27045 0.07019 0.08225 0.0
H380 H 0.23376 0.10343 0.07998 0.0
H381 H 0.33346 0.11423 0.22302 0.0
H382 H 0.34619 0.07777 0.19206 0.0
H383 H 0.36071 0.12297 0.18373 0.0
H384 H 0.38175 1.00914 0.09702 0.0
H385 H 0.41354 0.1175 0.07321 0.0
H386 H 0.28633 0.02713 0.12533 0.0
H387 H 0.31337 0.02923 0.16226 0.0
H388 H 0.32445 0.9955 0.12818 0.0
H389 H 0.32704 0.15913 0.09761 0.0
H390 H 0.37775 0.16788 0.09374 0.0
H391 H 0.35332 0.16239 0.13501 0.0
C392 C 0.24619 0.92364 0.66431 0.0
C393 C 0.27839 0.91493 0.64232 0.0
C394 C 0.21343 0.93883 0.65198 0.0
C395 C 0.21298 0.94613 0.61694 0.0
C396 C 0.24578 0.93793 0.59489 0.0
C397 C 0.27774 0.92217 0.60774 0.0
C398 C 0.17899 0.94646 0.67634 0.0
C399 C 0.2471 0.94566 0.55756 0.0
C400 C 0.11847 0.95268 0.5745 0.0
C401 C 0.11311 0.99021 0.57456 0.0
C402 C 0.15024 0.93809 0.58877 0.0
C403 C 0.17807 0.96146 0.60302 0.0
C404 C 0.17298 0.99939 0.60293 0.0
C405 C 0.1405 1.01326 0.58907 0.0
C406 C 0.15395 0.89754 0.58866 0.0
C407 C 0.20213 0.0254 0.61717 0.0
H408 H 0.24626 0.91794 0.69101 0.0
H409 H 0.3025 0.91557 0.5906 0.0
H410 H 0.17149 0.97546 0.67667 0.0
H411 H 0.15407 0.93065 0.66756 0.0
H412 H 0.18382 0.93955 0.7028 0.0
H413 H 0.27528 0.93927 0.54411 0.0
H414 H 0.22482 0.92948 0.54475 0.0
H415 H 0.24088 0.97458 0.5548 0.0
H416 H 0.09743 0.93452 0.56368 0.0
H417 H 0.13677 0.04226 0.58928 0.0
H418 H 0.1565 0.88928 0.61506 0.0
H419 H 0.18032 0.8888 0.57339 0.0
H420 H 0.12919 0.88304 0.57791 0.0
H421 H 0.20546 0.0206 0.64438 0.0
H422 H 0.19414 0.05408 0.61526 0.0
H423 H 0.23035 0.02076 0.60321 0.0
C424 C 0.72704 0.50756 1.00931 0.0
C425 C 0.71041 0.47295 1.00754 0.0
C426 C 0.76602 0.51226 1.01408 0.0
C427 C 0.78875 0.48161 1.01755 0.0
C428 C 0.77179 0.44677 1.01754 0.0
C429 C 0.73283 0.44282 1.01232 0.0
C430 C 0.78316 0.54987 1.01405 0.0
C431 C 0.79508 0.41354 1.02164 0.0
C432 C 0.89459 0.49129 0.99265 0.0
C433 C 0.90914 0.49976 1.02444 0.0
C434 C 0.8554 0.48467 0.99007 0.0
C435 C 0.83052 0.48605 1.02007 0.0
C436 C 0.84535 0.49315 0.05232 0.0
C437 C 0.88445 0.50017 0.0541 0.0
C438 C 0.84045 0.47739 0.9552 0.0
C439 C 0.81979 0.49418 0.08488 0.0
H440 H 0.70974 0.53093 1.00595 0.0
H441 H 0.72038 0.41591 1.01039 0.0
H442 H 0.79816 0.55594 0.03767 0.0
H443 H 0.80468 0.55158 0.99215 0.0
H444 H 0.76131 0.57094 1.01219 0.0
H445 H 0.77697 0.38887 1.02406 0.0
H446 H 0.81576 0.40911 0.99919 0.0
H447 H 0.81181 0.41734 0.04453 0.0
H448 H 0.91359 0.49103 0.9697 0.0
H449 H 0.89566 0.50634 0.07881 0.0
H450 H 0.82053 0.49913 0.95011 0.0
H451 H 0.82413 0.45155 0.95426 0.0
H452 H 0.86371 0.476 0.93454 0.0
H453 H 0.79944 0.51684 0.08507 0.0
H454 H 0.83622 0.49769 0.10802 0.0
H455 H 0.80266 0.46886 0.0863 0.0
C456 C 0.80738 0.54293 0.47649 0.0
C457 C 0.82637 0.57427 0.46572 0.0
C458 C 0.76735 0.54074 0.47918 0.0
C459 C 0.74573 0.57097 0.47187 0.0
C460 C 0.76456 0.60215 0.45981 0.0
C461 C 0.80458 0.60315 0.45626 0.0
C462 C 0.74823 0.50657 0.49119 0.0
C463 C 0.74255 0.63515 0.45226 0.0
C464 C 0.63939 0.55761 0.46218 0.0
C465 C 0.6245 0.5654 0.49574 0.0
C466 C 0.67888 0.55968 0.45379 0.0
C467 C 0.70366 0.57088 0.47942 0.0
C468 C 0.68837 0.58061 0.51294 0.0
C469 C 0.64901 0.57712 0.52083 0.0
C470 C 0.69418 0.54809 0.41805 0.0
C471 C 0.71371 0.59377 0.54072 0.0
H472 H 0.82369 0.52051 0.48409 0.0
H473 H 0.81877 0.62705 0.44678 0.0
H474 H 0.73457 0.51181 0.51728 0.0
H475 H 0.7254 0.49777 0.47428 0.0
H476 H 0.76878 0.48412 0.4918 0.0
H477 H 0.76134 0.65648 0.44127 0.0
H478 H 0.72042 0.62774 0.43422 0.0
H479 H 0.72756 0.64659 0.47619 0.0
H480 H 0.6204 0.54801 0.44291 0.0
H481 H 0.63737 0.58318 0.54678 0.0
H482 H 0.71131 0.52322 0.41876 0.0
H483 H 0.71344 0.56919 0.40739 0.0
H484 H 0.67101 0.54246 0.40055 0.0
H485 H 0.73257 0.5716 0.54679 0.0
H486 H 0.697 0.60326 0.56452 0.0
H487 H 0.73235 0.61626 0.53189 0.0
C488 C 0.09344 0.28433 0.15544 0.0
C489 C 0.13329 0.28273 0.15639 0.0
C490 C 0.076 0.31278 0.13983 0.0
C491 C 0.09882 0.34067 0.12524 0.0
C492 C 0.13902 0.33918 0.12654 0.0
C493 C 0.15562 0.31026 0.14173 0.0
C494 C 0.03315 0.31288 0.13871 0.0
C495 C 0.16467 0.36833 0.11198 0.0
C496 C 0.06363 0.40118 0.05798 0.0
C497 C 0.05379 0.43312 0.07751 0.0
C498 C 0.07685 0.37052 0.07328 0.0
C499 C 0.08106 0.37173 0.109 0.0
C500 C 0.07061 0.40372 0.12886 0.0
C501 C 0.05694 0.43372 0.11302 0.0
C502 C 0.08707 0.337 0.05104 0.0
C503 C 0.07507 0.40677 0.16684 0.0
H504 H 0.0759 0.26312 0.16643 0.0
H505 H 0.18642 0.30928 0.14231 0.0
H506 H 0.02135 0.33784 0.15222 0.0
H507 H 0.02539 0.31295 0.11184 0.0
H508 H 0.01939 0.28909 0.15058 0.0
H509 H 0.1953 0.36363 0.11549 0.0
H510 H 0.16099 0.36969 0.0843 0.0
H511 H 0.15663 0.39506 0.12444 0.0
H512 H 0.06126 0.40018 0.03061 0.0
H513 H 0.04964 0.45814 0.12851 0.0
H514 H 0.07231 0.31302 0.06159 0.0
H515 H 0.11822 0.33223 0.05078 0.0
H516 H 0.07935 0.33916 1.02432 0.0
H517 H 0.05979 0.38419 0.17934 0.0
H518 H 0.06405 0.43274 0.179 0.0
H519 H 0.10571 0.40468 0.1717 0.0
C520 C 0.55346 0.39313 1.00308 0.0
C521 C 0.59338 0.39637 1.00205 0.0
C522 C 0.53549 0.35907 1.00431 0.0
C523 C 0.55812 0.32773 1.00409 0.0
C524 C 0.5983 0.33104 1.00442 0.0
C525 C 0.61539 0.36528 1.00345 0.0
C526 C 0.49254 0.35652 1.0045 0.0
C527 C 0.6235 0.29824 1.00414 0.0
C528 C 0.52503 0.23547 0.02976 0.0
C529 C 0.5247 0.21662 0.99787 0.0
C530 C 0.53255 0.27269 0.03224 0.0
C531 C 0.54059 0.2911 1.00203 0.0
C532 C 0.5377 0.2725 0.96971 0.0
C533 C 0.5296 0.23527 0.96803 0.0
C534 C 0.53482 0.29163 0.06711 0.0
C535 C 0.54623 0.29121 0.93694 0.0
H536 H 0.53639 0.41715 1.00202 0.0
H537 H 0.64628 0.36747 1.00188 0.0
H538 H 0.48429 0.34385 0.97977 0.0
H539 H 0.48102 0.33906 0.02483 0.0
H540 H 0.47894 0.38347 1.0085 0.0
H541 H 0.65415 0.30563 1.00557 0.0
H542 H 0.61471 0.28169 0.02598 0.0
H543 H 0.6203 0.28105 0.9804 0.0
H544 H 0.52105 0.2207 0.05277 0.0
H545 H 0.52938 0.22037 0.94346 0.0
H546 H 0.5205 0.31823 0.06837 0.0
H547 H 0.5652 0.29669 0.07215 0.0
H548 H 0.5216 0.27525 0.08765 0.0
H549 H 0.531 0.31731 0.9378 0.0
H550 H 0.53801 0.27431 0.91427 0.0
H551 H 0.57728 0.29726 0.93375 0.0
C552 C 0.96867 0.6634 0.45574 0.0
C553 C 0.94181 0.65197 0.48097 0.0
C554 C 0.98032 0.6997 0.45525 0.0
C555 C 0.9651 0.72486 0.48094 0.0
C556 C 0.93964 0.71297 0.50759 0.0
C557 C 0.928 0.67663 0.50711 0.0
C558 C 1.00717 0.71144 0.42622 0.0
C559 C 0.92335 0.73894 0.53576 0.0
C560 C 1.01041 0.81749 0.49493 0.0
C561 C 0.98484 0.83936 0.47983 0.0
C562 C 1.00499 0.77993 0.49473 0.0
C563 C 0.97349 0.76401 0.47873 0.0
C564 C 0.94855 0.78583 0.46215 0.0
C565 C 0.95437 0.82336 0.46314 0.0
C566 C 0.03189 0.75754 0.51295 0.0
C567 C 0.91501 0.76969 0.44432 0.0
H568 H 0.97899 0.64432 0.43532 0.0
H569 H 0.90733 0.66763 0.52666 0.0
H570 H 0.99183 0.72921 0.41011 0.0
H571 H 0.03137 0.7274 0.43621 0.0
H572 H 0.01873 0.6881 0.40984 0.0
H573 H 0.90672 0.72482 0.55614 0.0
H574 H 0.9466 0.75488 0.54739 0.0
H575 H 0.90429 0.75833 0.52501 0.0
H576 H 0.03371 0.82996 0.50822 0.0
H577 H 0.93478 0.84032 0.45131 0.0
H578 H 0.04286 0.73453 0.49589 0.0
H579 H 0.01628 0.746 0.53536 0.0
H580 H 0.05655 0.77368 0.52194 0.0
H581 H 0.92465 0.74737 0.42579 0.0
H582 H 0.90008 0.79002 0.43054 0.0
H583 H 0.89424 0.75801 0.4633 0.0
C584 C 0.45351 0.79155 0.67209 0.0
C585 C 0.41417 0.79637 0.68002 0.0
C586 C 0.46763 0.7611 0.65167 0.0
C587 C 0.44202 0.73416 0.63914 0.0
C588 C 0.40238 0.73853 0.64786 0.0
C589 C 0.38907 0.7694 0.6678 0.0
C590 C 0.51002 0.75805 0.64298 0.0
C591 C 0.3738 0.71052 0.63605 0.0
C592 C 0.47028 0.66863 0.56157 0.0
C593 C 0.48 0.6371 0.57709 0.0
C594 C 0.45887 0.7005 0.58127 0.0
C595 C 0.45641 0.70109 0.61758 0.0
C596 C 0.46628 0.66935 0.63329 0.0
C597 C 0.47809 0.63816 0.61306 0.0
C598 C 0.44914 0.73357 0.56317 0.0
C599 C 0.46365 0.66803 0.67167 0.0
H600 H 0.47324 0.8122 0.681 0.0
H601 H 0.35866 0.77245 0.67394 0.0
H602 H 0.52071 0.73262 0.65222 0.0
H603 H 0.51591 0.75686 0.61485 0.0
H604 H 0.52626 0.78116 0.65435 0.0
H605 H 0.34406 0.7174 0.64541 0.0
H606 H 0.37534 0.70781 0.60774 0.0
H607 H 0.38073 0.68375 0.64514 0.0
H608 H 0.47164 0.66846 0.53395 0.0
H609 H 0.48529 0.61417 0.62565 0.0
H610 H 0.46638 0.75707 0.57229 0.0
H611 H 0.41866 0.74041 0.56922 0.0
H612 H 0.4543 0.72962 0.53501 0.0
H613 H 0.48154 0.6898 0.68314 0.0
H614 H 0.47297 0.64166 0.68011 0.0
H615 H 0.43376 0.6728 0.68186 0.0
C616 C 0.86172 0.93045 0.76795 0.0
C617 C 0.88672 0.9175 0.79091 0.0
C618 C 0.87524 0.94483 0.73682 0.0
C619 C 0.91498 0.94617 0.72758 0.0
C620 C 0.94042 0.93254 0.7502 0.0
C621 C 0.92611 0.91855 0.7814 0.0
C622 C 0.8468 0.95882 0.71381 0.0
C623 C 0.98296 0.93302 0.74155 0.0
C624 C 0.94721 0.95421 0.6327 0.0
C625 C 0.9568 0.99113 0.63107 0.0
C626 C 0.93396 0.93933 0.6637 0.0
C627 C 0.92972 0.9617 0.69428 0.0
C628 C 0.93901 0.99905 0.69277 0.0
C629 C 0.95249 1.0132 0.66143 0.0
C630 C 0.92472 0.89943 0.66373 0.0
C631 C 0.93473 0.02417 0.7244 0.0
H632 H 0.83121 0.92919 0.77416 0.0
H633 H 0.94601 0.90909 0.79869 0.0
H634 H 0.85296 0.98769 0.70941 0.0
H635 H 0.84943 0.94372 0.68856 0.0
H636 H 0.81688 0.95632 0.72467 0.0
H637 H 0.99902 0.92071 0.76123 0.0
H638 H 0.9897 0.91811 0.71659 0.0
H639 H 0.99314 0.96127 0.73902 0.0
H640 H 0.95052 0.93664 0.60967 0.0
H641 H 0.95981 0.04167 0.66078 0.0
H642 H 0.89439 0.89532 0.67265 0.0
H643 H 0.94238 0.88642 0.68179 0.0
H644 H 0.92982 0.88552 0.63803 0.0
H645 H 0.9047 0.02375 0.73521 0.0
H646 H 0.94293 0.05247 0.71918 0.0
H647 H 0.95276 1.01482 0.74416 0.0
C648 C 0.57737 0.16494 0.27757 0.0
C649 C 0.61637 0.16665 0.2839 0.0
C650 C 0.56451 0.14758 0.24724 0.0
C651 C 0.59106 0.13134 0.22215 0.0
C652 C 0.63045 0.13351 0.22813 0.0
C653 C 0.64249 0.15102 0.25856 0.0
C654 C 0.52229 0.14625 0.24223 0.0
C655 C 0.66007 0.11707 0.20236 0.0
C656 C 0.55765 0.05699 0.15747 0.0
C657 C 0.55452 0.07585 0.12778 0.0
C658 C 0.56919 0.07459 0.18815 0.0
C659 C 0.57789 0.11222 0.18967 0.0
C660 C 0.5748 0.13136 0.15977 0.0
C661 C 0.56329 0.1131 0.12946 0.0
C662 C 0.57209 0.05281 0.21906 0.0
C663 C 0.58367 0.17133 0.15974 0.0
H664 H 0.55666 0.17647 0.29673 0.0
H665 H 0.67274 0.1526 0.26239 0.0
H666 H 0.51661 0.15859 0.21808 0.0
H667 H 0.51235 0.1177 0.24 0.0
H668 H 0.50525 0.16061 0.26361 0.0
H669 H 0.68956 0.12095 0.2106 0.0
H670 H 0.65443 0.08767 0.19815 0.0
H671 H 0.65833 0.12933 0.17746 0.0
H672 H 0.55092 0.02834 0.15682 0.0
H673 H 0.56096 0.12826 0.10697 0.0
H674 H 0.5532 0.0644 0.24064 0.0
H675 H 0.60172 0.0542 0.22723 0.0
H676 H 0.56407 0.02397 0.21407 0.0
H677 H 0.56514 0.18619 0.17971 0.0
H678 H 0.57948 0.18255 0.13471 0.0
H679 H 0.61367 0.17644 0.166 0.0
C680 C 0.44848 0.53939 0.18399 0.0
C681 C 0.48439 0.53515 0.16633 0.0
C682 C 0.44526 0.54848 0.2192 0.0
C683 C 0.47873 0.55321 0.23714 0.0
C684 C 0.51503 0.5504 0.21914 0.0
C685 C 0.51739 0.54113 0.18394 0.0
C686 C 0.40604 0.5509 0.2375 0.0
C687 C 0.55139 0.55547 0.23733 0.0
C688 C 0.47211 0.59308 0.32885 0.0
C689 C 0.47239 0.56172 0.34717 0.0
C690 C 0.47387 0.59088 0.29294 0.0
C691 C 0.47588 0.55655 0.27508 0.0
C692 C 0.47578 0.52487 0.29345 0.0
C693 C 0.4743 0.52786 0.32914 0.0
C694 C 0.474 0.62521 0.2741 0.0
C695 C 0.47781 0.4877 0.2754 0.0
H696 H 0.42278 0.53404 0.17075 0.0
H697 H 0.54513 0.53783 0.17025 0.0
H698 H 0.40128 0.52745 0.25362 0.0
H699 H 0.40368 0.57573 0.25468 0.0
H700 H 0.38306 0.55094 0.21944 0.0
H701 H 0.57706 0.5564 0.21921 0.0
H702 H 0.55029 0.58081 0.25386 0.0
H703 H 0.55452 0.53279 0.25409 0.0
H704 H 0.47047 0.61931 0.34257 0.0
H705 H 0.47559 0.50349 0.34294 0.0
H706 H 0.44998 0.62473 0.25717 0.0
H707 H 0.50078 0.62718 0.25757 0.0
H708 H 0.47159 0.64975 0.29174 0.0
H709 H 0.45406 0.48385 0.25829 0.0
H710 H 0.47624 0.46576 0.29351 0.0
H711 H 0.5049 0.48499 0.25923 0.0
C712 C 0.06624 0.50719 0.68638 0.0
C713 C 0.0724 0.54395 0.68064 0.0
C714 C 0.06673 0.49448 0.71923 0.0
C715 C 0.07178 0.51933 0.74729 0.0
C716 C 0.07777 0.55647 0.74176 0.0
C717 C 0.07833 0.56823 0.70847 0.0
C718 C 0.06079 0.45458 0.72397 0.0
C719 C 0.08251 0.58397 0.77113 0.0
C720 C 0.03063 0.49902 0.83583 0.0
C721 C 0.06377 0.49296 0.85242 0.0
C722 C 0.03269 0.50642 0.8012 0.0
C723 C 0.06874 0.50704 0.78267 0.0
C724 C 0.10204 0.49853 0.79881 0.0
C725 C 0.09922 0.49208 0.83371 0.0
C726 C 0.99659 0.51589 0.78508 0.0
C727 C 0.14079 0.49783 0.77961 0.0
H728 H 0.05982 0.48821 0.66567 0.0
H729 H 0.08263 0.5967 0.70424 0.0
H730 H 0.0823 0.44459 0.74045 0.0
H731 H 0.03221 0.44996 0.7369 0.0
H732 H 0.06272 0.43831 0.69926 0.0
H733 H 0.08733 0.61176 0.76247 0.0
H734 H 0.05662 0.58398 0.789 0.0
H735 H 0.10698 0.57668 0.78567 0.0
H736 H 1.00331 0.50024 0.8505 0.0
H737 H 0.12482 0.48742 0.84667 0.0
H738 H 0.99361 0.49907 0.76111 0.0
H739 H 0.99809 0.54455 0.77831 0.0
H740 H 0.97065 0.51207 0.80237 0.0
H741 H 0.13966 0.48139 0.75516 0.0
H742 H 0.16303 0.48664 0.79467 0.0
H743 H 0.14945 0.52568 0.77328 0.0
C744 C 0.75625 0.9322 0.87604 0.0
C745 C 0.78941 0.92609 0.8928 0.0
C746 C 0.723 0.94633 0.89404 0.0
C747 C 0.72293 0.95531 0.92966 0.0
C748 C 0.75675 0.95018 0.94646 0.0
C749 C 0.78929 0.93538 0.92797 0.0
C750 C 0.68757 0.95071 0.87509 0.0
C751 C 0.75846 0.95997 0.98413 0.0
C752 C 0.64508 0.01858 0.97119 0.0
C753 C 0.61943 0.99434 0.98709 0.0
C754 C 0.67895 1.0064 0.95283 0.0
C755 C 0.68725 0.96893 0.94956 0.0
C756 C 0.6614 0.94437 0.96553 0.0
C757 C 0.62817 0.95734 0.98427 0.0
C758 C 0.70589 0.0337 0.93691 0.0
C759 C 0.66857 0.90419 0.96241 0.0
H760 H 0.75592 0.92483 0.84897 0.0
H761 H 0.81486 0.9311 0.9411 0.0
H762 H 0.66418 0.93353 0.88594 0.0
H763 H 0.67778 0.97912 0.87829 0.0
H764 H 0.69236 0.94318 0.84737 0.0
H765 H 0.78742 0.95627 0.99305 0.0
H766 H 0.74997 0.98854 0.98989 0.0
H767 H 0.73796 0.94293 0.99896 0.0
H768 H 0.63875 0.04721 0.97317 0.0
H769 H 0.60851 0.93826 0.99613 0.0
H770 H 0.70884 0.02827 0.90881 0.0
H771 H 0.73471 0.03121 0.94645 0.0
H772 H 0.696 0.06191 0.94253 0.0
H773 H 0.671 0.89459 0.93508 0.0
H774 H 0.64548 0.88854 0.97578 0.0
H775 H 0.69602 0.89827 0.9732 0.0
C776 C 0.77814 0.13674 0.4044 0.0
C777 C 0.74581 0.1468 0.4257 0.0
C778 C 0.81006 0.12088 0.41761 0.0
C779 C 0.80951 0.11419 0.45286 0.0
C780 C 0.77652 0.1237 0.47421 0.0
C781 C 0.74547 0.14017 0.4605 0.0
C782 C 0.84474 0.11194 0.39394 0.0
C783 C 0.77405 0.11664 0.51172 0.0
C784 C 0.87951 0.0459 0.4832 0.0
C785 C 0.90716 0.06854 0.49786 0.0
C786 C 0.84772 0.06026 0.46855 0.0
C787 C 0.84363 0.09827 0.46776 0.0
C788 C 0.87173 0.1212 0.48218 0.0
C789 C 0.90273 0.10615 0.49727 0.0
C790 C 0.81825 0.03468 0.45422 0.0
C791 C 0.86918 0.16179 0.48153 0.0
H792 H 0.77888 0.14195 0.37754 0.0
H793 H 0.72061 0.14778 0.47715 0.0
H794 H 0.86989 0.12727 0.40289 0.0
H795 H 0.85135 0.08279 0.39426 0.0
H796 H 0.84074 0.11848 0.36722 0.0
H797 H 0.74576 0.12386 0.52454 0.0
H798 H 0.77939 0.08766 0.51507 0.0
H799 H 0.79639 0.13253 0.52472 0.0
H800 H 0.8825 1.01684 0.48344 0.0
H801 H 0.92398 0.12402 0.50815 0.0
H802 H 0.81579 0.03898 0.42679 0.0
H803 H 0.78986 0.04027 0.46755 0.0
H804 H 0.82531 1.00589 0.45687 0.0
H805 H 0.8675 0.16963 0.45488 0.0
H806 H 0.89404 0.1759 0.49251 0.0
H807 H 0.84276 0.17139 0.4962 0.0
C808 C 0.30813 0.6053 0.09598 0.0
C809 C 0.33426 0.57801 0.08454 0.0
C810 C 0.26985 0.6031 0.08805 0.0
C811 C 0.2566 0.57194 0.06984 0.0
C812 C 0.2823 0.54385 0.05885 0.0
C813 C 0.32095 0.54757 0.06564 0.0
C814 C 0.24355 0.63413 0.09937 0.0
C815 C 0.26886 0.50959 0.04041 0.0
C816 C 0.15062 0.55215 0.08316 0.0
C817 C 0.13745 0.56129 0.05204 0.0
C818 C 0.18951 0.55473 0.08896 0.0
C819 C 0.21548 0.56822 0.0635 0.0
C820 C 0.20207 0.57846 0.03233 0.0
C821 C 0.16318 0.57405 0.02664 0.0
C822 C 0.20287 0.54226 0.12199 0.0
C823 C 0.22868 0.59431 1.00519 0.0
H824 H 0.31731 0.62847 0.11153 0.0
H825 H 0.34063 0.52654 0.056 0.0
H826 H 0.22814 0.6426 0.0775 0.0
H827 H 0.22176 0.62541 0.11904 0.0
H828 H 0.25918 0.65793 0.11021 0.0
H829 H 0.29218 0.48973 0.03468 0.0
H830 H 0.24557 0.49677 0.05617 0.0
H831 H 0.257 0.51596 1.01608 0.0
H832 H 0.13064 0.54165 0.10251 0.0
H833 H 0.15277 0.58101 1.00257 0.0
H834 H 0.2159 0.56519 0.13659 0.0
H835 H 0.2252 0.5214 0.11648 0.0
H836 H 0.17921 0.53076 0.13836 0.0
H837 H 0.24368 0.61837 1.01619 0.0
H838 H 0.21337 0.60243 0.9831 0.0
H839 H 0.25081 0.57438 0.99581 0.0
C840 C 0.22203 0.45784 0.60027 0.0
C841 C 0.19802 0.48606 0.59301 0.0
C842 C 0.26175 0.46027 0.59385 0.0
C843 C 0.27816 0.49229 0.58121 0.0
C844 C 0.25446 0.5217 0.57575 0.0
C845 C 0.2147 0.51803 0.58115 0.0
C846 C 0.286 0.42805 0.59939 0.0
C847 C 0.27103 0.55675 0.56326 0.0
C848 C 0.38447 0.50958 0.5873 0.0
C849 C 0.39825 0.50279 0.55327 0.0
C850 C 0.34538 0.50615 0.5969 0.0
C851 C 0.31988 0.49446 0.57203 0.0
C852 C 0.33407 0.48598 0.53793 0.0
C853 C 0.37303 0.49095 0.52881 0.0
C854 C 0.33119 0.5166 0.63323 0.0
C855 C 0.308 0.47227 0.51093 0.0
H856 H 0.20981 0.43343 0.61051 0.0
H857 H 0.1967 0.53994 0.57507 0.0
H858 H 0.3008 0.4183 0.57477 0.0
H859 H 0.30837 0.43587 0.61707 0.0
H860 H 0.26889 0.40536 0.60997 0.0
H861 H 0.24921 0.57824 0.56378 0.0
H862 H 0.29439 0.5665 0.57919 0.0
H863 H 0.2835 0.55227 0.53668 0.0
H864 H 0.40399 0.51927 0.60609 0.0
H865 H 0.38384 0.48565 0.5025 0.0
H866 H 0.31434 0.49415 0.6444 0.0
H867 H 0.31192 0.54013 0.63353 0.0
H868 H 0.3549 0.52383 0.64974 0.0
H869 H 0.29103 0.44874 0.51988 0.0
H870 H 0.32402 0.46406 0.4864 0.0
H871 H 0.28755 0.49365 0.50617 0.0
C872 C 0.90816 0.76332 0.91904 0.0
C873 C 0.9357 0.78546 0.9027 0.0
C874 C 0.91881 0.73372 0.93736 0.0
C875 C 0.95801 0.72616 0.94006 0.0
C876 C 0.98587 0.74881 0.92398 0.0
C877 C 0.97442 0.7778 0.90533 0.0
C878 C 0.88799 0.7101 0.95335 0.0
C879 C 0.02792 0.74235 0.92634 0.0
C880 C 0.9862 0.66566 1.01058 0.0
C881 C 0.99322 0.63234 0.99239 0.0
C882 C 0.97501 0.69636 0.994 0.0
C883 C 0.96992 0.69378 0.95838 0.0
C884 C 0.97661 0.66009 0.94005 0.0
C885 C 0.98839 0.63013 0.95708 0.0
C886 C 0.96887 0.7317 1.0146 0.0
C887 C 0.97108 0.65553 0.90229 0.0
H888 H 0.87817 0.76875 0.91711 0.0
H889 H 0.99593 0.79475 0.89293 0.0
H890 H 0.89094 0.68195 0.94226 0.0
H891 H 0.89114 0.70939 0.98117 0.0
H892 H 0.85887 0.71968 0.94941 0.0
H893 H 0.04602 0.76335 0.91399 0.0
H894 H 0.03454 0.74196 0.9535 0.0
H895 H 0.03572 0.71556 0.91392 0.0
H896 H 0.98981 0.66788 0.03778 0.0
H897 H 0.99335 0.60463 0.9426 0.0
H898 H 0.9391 0.74082 1.01312 0.0
H899 H 0.98799 0.75286 1.00379 0.0
H900 H 0.97442 0.72959 0.04188 0.0
H901 H 0.94149 0.66286 0.8974 0.0
H902 H 0.97647 0.62742 0.8918 0.0
H903 H 0.99064 0.67404 0.88816 0.0
C904 C 0.48268 0.66538 0.09441 0.0
C905 C 0.44661 0.65716 0.10974 0.0
C906 C 0.49575 0.70133 0.09372 0.0
C907 C 0.472 0.72948 0.10849 0.0
C908 C 0.43685 0.72101 0.12618 0.0
C909 C 0.42468 0.68492 0.12671 0.0
C910 C 0.53368 0.70931 0.07509 0.0
C911 C 0.4107 0.75022 0.1423 0.0
C912 C 0.50508 0.82741 0.11831 0.0
C913 C 0.49035 0.84168 0.08972 0.0
C914 C 0.50063 0.79052 0.12428 0.0
C915 C 0.48084 0.76764 0.10121 0.0
C916 C 0.467 0.78173 0.07181 0.0
C917 C 0.47211 0.81848 0.06636 0.0
C918 C 0.51608 0.77627 0.15569 0.0
C919 C 0.44577 0.75822 0.04652 0.0
H920 H 0.49975 0.64399 0.08129 0.0
H921 H 0.39716 0.6785 0.13927 0.0
H922 H 0.52875 0.72029 0.05014 0.0
H923 H 0.5499 0.73005 0.08982 0.0
H924 H 0.55139 0.68467 0.07029 0.0
H925 H 0.38656 0.73902 0.15831 0.0
H926 H 0.42674 0.7699 0.15834 0.0
H927 H 0.39879 0.76528 0.12196 0.0
H928 H 0.5192 0.84524 0.13645 0.0
H929 H 0.46159 0.82915 0.04374 0.0
H930 H 0.53307 0.75155 0.14879 0.0
H931 H 0.49204 0.76862 0.17373 0.0
H932 H 0.53427 0.79656 0.16903 0.0
H933 H 0.46346 0.73475 0.03683 0.0
H934 H 0.43796 0.77319 1.02439 0.0
H935 H 0.41922 0.74743 0.05934 0.0
C936 C 0.0575 0.39447 0.61586 0.0
C937 C 0.08276 0.4055 0.5892 0.0
C938 C 0.04565 0.35829 0.61727 0.0
C939 C 0.05917 0.33275 0.5912 0.0
C940 C 0.08331 0.3441 0.56341 0.0
C941 C 0.09502 0.38038 0.56286 0.0
C942 C 0.02016 0.34712 0.64743 0.0
C943 C 0.09791 0.31767 0.53492 0.0
C944 C 0.06865 0.23408 0.60899 0.0
C945 C 0.03716 0.21862 0.59339 0.0
C946 C 0.07532 0.27148 0.6096 0.0
C947 C 0.05008 0.29377 0.5939 0.0
C948 C 0.01749 0.27845 0.57916 0.0
C949 C 1.01134 0.24099 0.5792 0.0
C950 C 0.11009 0.28696 0.626 0.0
C951 C 0.99013 0.30137 0.562 0.0
H952 H 0.04842 0.41385 0.63648 0.0
H953 H 0.11441 0.38903 0.54218 0.0
H954 H 0.99497 0.3318 0.63859 0.0
H955 H 0.03599 0.32891 0.66273 0.0
H956 H 1.01006 0.37069 0.66427 0.0
H957 H 0.11415 0.33131 0.514 0.0
H958 H 0.11687 0.29781 0.54511 0.0
H959 H 0.07376 0.30231 0.52412 0.0
H960 H 0.08845 0.21678 0.62018 0.0
H961 H 0.98723 0.22899 0.56672 0.0
H962 H 0.10179 0.3095 0.64477 0.0
H963 H 0.13022 0.29818 0.60624 0.0
H964 H 0.12529 0.26635 0.6392 0.0
H965 H 0.98043 0.32462 0.57936 0.0
H966 H 0.96468 0.28573 0.55406 0.0
H967 H 1.00492 0.31256 0.53903 0.0
C968 C 0.57227 0.27126 0.38736 0.0
C969 C 0.61178 0.26578 0.38133 0.0
C970 C 0.55759 0.3031 0.40511 0.0
C971 C 0.58281 0.33082 0.41671 0.0
C972 C 0.62268 0.32572 0.40994 0.0
C973 C 0.63655 0.29342 0.39274 0.0
C974 C 0.51498 0.30677 0.41201 0.0
C975 C 0.65089 0.35448 0.42094 0.0
C976 C 0.54574 0.42779 0.4366 0.0
C977 C 0.54249 0.43076 0.47254 0.0
C978 C 0.55847 0.39566 0.41827 0.0
C979 C 0.56778 0.36502 0.436 0.0
C980 C 0.56383 0.36762 0.47228 0.0
C981 C 0.55166 0.40033 0.48999 0.0
C982 C 0.56274 0.39479 0.37978 0.0
C983 C 0.57273 0.33581 0.4925 0.0
H984 H 0.55276 0.25014 0.37902 0.0
H985 H 0.66709 0.28989 0.38798 0.0
H986 H 0.5078 0.30989 0.43995 0.0
H987 H 0.50505 0.33143 0.40076 0.0
H988 H 0.49907 0.28304 0.40141 0.0
H989 H 0.68085 0.34709 0.41284 0.0
H990 H 0.64443 0.38046 0.41001 0.0
H991 H 0.64835 0.35905 0.44913 0.0
H992 H 0.53903 0.45096 0.42262 0.0
H993 H 0.54925 0.402 0.51766 0.0
H994 H 0.54538 0.37234 0.36877 0.0
H995 H 0.59296 0.38965 0.37085 0.0
H996 H 0.55384 0.4205 0.36964 0.0
H997 H 0.5559 0.31177 0.48399 0.0
H998 H 0.56641 0.34132 0.52038 0.0
H999 H 0.60335 0.32885 0.48784 0.0
loop_
_geom_bond_atom_site_label_1
_geom_bond_atom_site_label_2
_geom_bond_distance
_geom_bond_site_symmetry_2
_ccdc_geom_bond_type
H0 C5 0.930 . S
H1 C8 0.930 . S
H2 C10 0.930 . S
H3 C4 1.016 . S
C4 H3 1.016 . S
C4 N11 1.286 . S
C5 H0 0.930 . S
C5 C6 1.397 . S
C5 C7 1.361 . S
C6 C5 1.397 . S
C6 C10 1.390 . S
C7 C5 1.361 . S
C7 C8 1.393 . S
C7 N11 1.413 . S
C8 H1 0.930 . S
C8 C7 1.393 . S
C8 C9 1.399 . S
C9 C8 1.399 . S
C9 C10 1.381 . S
C10 H2 0.930 . S
C10 C6 1.390 . S
C10 C9 1.381 . S
N11 C4 1.286 . S
N11 C7 1.413 . S
H12 C17 0.930 . S
H13 C20 0.930 . S
H14 C22 0.930 . S
H15 C16 1.016 . S
C16 H15 1.016 . S
C16 N23 1.286 . S
C17 H12 0.930 . S
C17 C18 1.397 . S
C17 C19 1.361 . S
C18 C17 1.397 . S
C18 C22 1.390 . S
C19 C17 1.361 . S
C19 C20 1.393 . S
C19 N23 1.413 . S
C20 H13 0.930 . S
C20 C19 1.393 . S
C20 C21 1.399 . S
C21 C20 1.399 . S
C21 C22 1.381 . S
C22 H14 0.930 . S
C22 C18 1.390 . S
C22 C21 1.381 . S
N23 C16 1.286 . S
N23 C19 1.413 . S
H24 C29 0.930 . S
H25 C32 0.930 . S
H26 C34 0.930 . S
H27 C28 1.016 . S
C28 H27 1.016 . S
C28 N35 1.286 . S
C29 H24 0.930 . S
C29 C30 1.397 . S
C29 C31 1.361 . S
C30 C29 1.397 . S
C30 C34 1.390 . S
C31 C29 1.361 . S
C31 C32 1.393 . S
C31 N35 1.413 . S
C32 H25 0.930 . S
C32 C31 1.393 . S
C32 C33 1.399 . S
C33 C32 1.399 . S
C33 C34 1.381 . S
C34 H26 0.930 . S
C34 C30 1.390 . S
C34 C33 1.381 . S
N35 C28 1.286 . S
N35 C31 1.413 . S
H36 C41 0.930 . S
H37 C44 0.930 . S
H38 C46 0.930 . S
H39 C40 1.016 . S
C40 H39 1.016 . S
C40 N47 1.286 . S
C41 H36 0.930 . S
C41 C42 1.397 . S
C41 C43 1.361 . S
C42 C41 1.397 . S
C42 C46 1.390 . S
C43 C41 1.361 . S
C43 C44 1.393 . S
C43 N47 1.413 . S
C44 H37 0.930 . S
C44 C43 1.393 . S
C44 C45 1.399 . S
C45 C44 1.399 . S
C45 C46 1.381 . S
C46 H38 0.930 . S
C46 C42 1.390 . S
C46 C45 1.381 . S
N47 C40 1.286 . S
N47 C43 1.413 . S
H48 C53 0.930 . S
H49 C56 0.930 . S
H50 C58 0.930 . S
H51 C52 1.016 . S
C52 H51 1.016 . S
C52 N59 1.286 . S
C53 H48 0.930 . S
C53 C54 1.397 . S
C53 C55 1.361 . S
C54 C53 1.397 . S
C54 C58 1.390 . S
C55 C53 1.361 . S
C55 C56 1.393 . S
C55 N59 1.413 . S
C56 H49 0.930 . S
C56 C55 1.393 . S
C56 C57 1.399 . S
C57 C56 1.399 . S
C57 C58 1.381 . S
C58 H50 0.930 . S
C58 C54 1.390 . S
C58 C57 1.381 . S
N59 C52 1.286 . S
N59 C55 1.413 . S
H60 C65 0.930 . S
H61 C68 0.930 . S
H62 C70 0.930 . S
H63 C64 1.016 . S
C64 H63 1.016 . S
C64 N71 1.286 . S
C65 H60 0.930 . S
C65 C66 1.397 . S
C65 C67 1.361 . S
C66 C65 1.397 . S
C66 C70 1.390 . S
C67 C65 1.361 . S
C67 C68 1.393 . S
C67 N71 1.413 . S
C68 H61 0.930 . S
C68 C67 1.393 . S
C68 C69 1.399 . S
C69 C68 1.399 . S
C69 C70 1.381 . S
C70 H62 0.930 . S
C70 C66 1.390 . S
C70 C69 1.381 . S
N71 C64 1.286 . S
N71 C67 1.413 . S
H72 C77 0.930 . S
H73 C80 0.930 . S
H74 C82 0.930 . S
H75 C76 1.016 . S
C76 H75 1.016 . S
C76 N83 1.286 . S
C77 H72 0.930 . S
C77 C78 1.397 . S
C77 C79 1.361 . S
C78 C77 1.397 . S
C78 C82 1.390 . S
C79 C77 1.361 . S
C79 C80 1.393 . S
C79 N83 1.413 . S
C80 H73 0.930 . S
C80 C79 1.393 . S
C80 C81 1.399 . S
C81 C80 1.399 . S
C81 C82 1.381 . S
C82 H74 0.930 . S
C82 C78 1.390 . S
C82 C81 1.381 . S
N83 C76 1.286 . S
N83 C79 1.413 . S
H84 C89 0.930 . S
H85 C92 0.930 . S
H86 C94 0.930 . S
H87 C88 1.016 . S
C88 H87 1.016 . S
C88 N95 1.286 . S
C89 H84 0.930 . S
C89 C90 1.397 . S
C89 C91 1.361 . S
C90 C89 1.397 . S
C90 C94 1.390 . S
C91 C89 1.361 . S
C91 C92 1.393 . S
C91 N95 1.413 . S
C92 H85 0.930 . S
C92 C91 1.393 . S
C92 C93 1.399 . S
C93 C92 1.399 . S
C93 C94 1.381 . S
C94 H86 0.930 . S
C94 C90 1.390 . S
C94 C93 1.381 . S
N95 C88 1.286 . S
N95 C91 1.413 . S
C96 O112 1.251 . S
C96 O114 1.254 1_545 S
N97 C98 1.333 . S
N97 C102 1.307 . S
N97 Zn103 2.020 . S
C98 N97 1.333 . S
C98 C99 1.379 . S
C98 H116 0.952 . S
C99 C98 1.379 . S
C99 C100 1.390 . S
C99 H126 0.949 . S
C100 C99 1.390 . S
C100 C101 1.357 . S
C101 C100 1.357 . S
C101 C102 1.370 . S
C101 H127 0.950 . S
C102 N97 1.307 . S
C102 C101 1.370 . S
C102 H120 0.948 1_455 S
Zn103 N97 2.020 . S
Zn103 O112 2.039 . S
Zn103 O118 2.034 . S
Zn103 O122 2.025 1_455 S
Zn103 O124 2.024 1_455 S
C104 O123 1.246 1_545 S
C104 O124 1.249 . S
N105 C106 1.307 . S
N105 C107 1.333 . S
N105 Zn111 2.020 . S
C106 N105 1.307 . S
C106 C110 1.370 . S
C106 H117 0.948 1_655 S
C107 N105 1.333 . S
C107 C108 1.379 . S
C107 H115 0.952 . S
C108 C107 1.379 . S
C108 C109 1.390 . S
C108 H128 0.949 . S
C109 C108 1.390 . S
C109 C110 1.357 . S
C110 C106 1.370 . S
C110 C109 1.357 . S
C110 H129 0.950 . S
Zn111 N105 2.020 . S
Zn111 O114 2.025 1_655 S
Zn111 O119 2.024 1_655 S
Zn111 O121 2.039 . S
Zn111 O123 2.034 . S
O112 C96 1.251 . S
O112 Zn103 2.039 . S
C113 O118 1.246 1_565 S
C113 O119 1.249 . S
O114 C96 1.254 1_565 S
O114 Zn111 2.025 1_455 S
H115 C107 0.952 . S
H116 C98 0.952 . S
H117 C106 0.948 1_455 S
O118 Zn103 2.034 . S
O118 C113 1.246 1_545 S
O119 Zn111 2.024 1_455 S
O119 C113 1.249 . S
H120 C102 0.948 1_655 S
O121 Zn111 2.039 . S
O121 C125 1.251 . S
O122 Zn103 2.025 1_655 S
O122 C125 1.254 1_545 S
O123 C104 1.246 1_565 S
O123 Zn111 2.034 . S
O124 Zn103 2.024 1_655 S
O124 C104 1.249 . S
C125 O121 1.251 . S
C125 O122 1.254 1_565 S
H126 C99 0.949 . S
H127 C101 0.950 . S
H128 C108 0.949 . S
H129 C110 0.950 . S
C130 O146 1.251 1_565 S
C130 O148 1.254 1_556 S
N131 C132 1.333 . S
N131 C136 1.307 . S
N131 Zn137 2.020 . S
C132 N131 1.333 . S
C132 C133 1.379 . S
C132 H150 0.952 . S
C133 C132 1.379 . S
C133 C134 1.390 . S
C133 H160 0.949 . S
C134 C133 1.390 . S
C134 C135 1.357 . S
C135 C134 1.357 . S
C135 C136 1.370 . S
C135 H161 0.950 . S
C136 N131 1.307 . S
C136 C135 1.370 . S
C136 H154 0.948 . S
Zn137 N131 2.020 . S
Zn137 O146 2.039 . S
Zn137 O152 2.034 1_556 S
Zn137 O156 2.025 1_556 S
Zn137 O158 2.024 . S
C138 O157 1.246 . S
C138 O158 1.249 1_565 S
N139 C140 1.307 . S
N139 C141 1.333 . S
N139 Zn145 2.020 . S
C140 N139 1.307 . S
C140 C144 1.370 . S
C140 H151 0.948 . S
C141 N139 1.333 . S
C141 C142 1.379 . S
C141 H149 0.952 . S
C142 C141 1.379 . S
C142 C143 1.390 . S
C142 H162 0.949 . S
C143 C142 1.390 . S
C143 C144 1.357 . S
C144 C140 1.370 . S
C144 C143 1.357 . S
C144 H163 0.950 . S
Zn145 N139 2.020 . S
Zn145 O148 2.025 . S
Zn145 O153 2.024 . S
Zn145 O155 2.039 1_565 S
Zn145 O157 2.034 1_554 S
O146 C130 1.251 1_545 S
O146 Zn137 2.039 . S
C147 O152 1.246 . S
C147 O153 1.249 1_545 S
O148 C130 1.254 1_554 S
O148 Zn145 2.025 . S
H149 C141 0.952 . S
H150 C132 0.952 . S
H151 C140 0.948 . S
O152 Zn137 2.034 1_554 S
O152 C147 1.246 . S
O153 Zn145 2.024 . S
O153 C147 1.249 1_565 S
H154 C136 0.948 . S
O155 Zn145 2.039 1_545 S
O155 C159 1.251 . S
O156 Zn137 2.025 1_554 S
O156 C159 1.254 . S
O157 C138 1.246 . S
O157 Zn145 2.034 1_556 S
O158 Zn137 2.024 . S
O158 C138 1.249 1_545 S
C159 O155 1.251 . S
C159 O156 1.254 . S
H160 C133 0.949 . S
H161 C135 0.950 . S
H162 C142 0.949 . S
H163 C144 0.950 . S
C164 O180 1.251 . S
C164 O182 1.254 . S
N165 C166 1.333 . S
N165 C170 1.307 . S
N165 Zn171 2.020 . S
C166 N165 1.333 . S
C166 C167 1.379 . S
C166 H184 0.952 . S
C167 C166 1.379 . S
C167 C168 1.390 . S
C167 H194 0.949 . S
C168 C167 1.390 . S
C168 C169 1.357 . S
C169 C168 1.357 . S
C169 C170 1.370 . S
C169 H195 0.950 . S
C170 N165 1.307 . S
C170 C169 1.370 . S
C170 H188 0.948 . S
Zn171 N165 2.020 . S
Zn171 O180 2.039 . S
Zn171 O186 2.034 . S
Zn171 O190 2.025 . S
Zn171 O192 2.024 . S
C172 O191 1.246 . S
C172 O192 1.249 . S
N173 C174 1.307 . S
N173 C175 1.333 . S
N173 Zn179 2.020 . S
C174 N173 1.307 . S
C174 C178 1.370 . S
C174 H185 0.948 . S
C175 N173 1.333 . S
C175 C176 1.379 . S
C175 H183 0.952 . S
C176 C175 1.379 . S
C176 C177 1.390 . S
C176 H196 0.949 . S
C177 C176 1.390 . S
C177 C178 1.357 . S
C178 C174 1.370 . S
C178 C177 1.357 . S
C178 H197 0.950 . S
Zn179 N173 2.020 . S
Zn179 O182 2.025 . S
Zn179 O187 2.024 . S
Zn179 O189 2.039 . S
Zn179 O191 2.034 . S
O180 C164 1.251 . S
O180 Zn171 2.039 . S
C181 O186 1.246 . S
C181 O187 1.249 . S
O182 C164 1.254 . S
O182 Zn179 2.025 . S
H183 C175 0.952 . S
H184 C166 0.952 . S
H185 C174 0.948 . S
O186 Zn171 2.034 . S
O186 C181 1.246 . S
O187 Zn179 2.024 . S
O187 C181 1.249 . S
H188 C170 0.948 . S
O189 Zn179 2.039 . S
O189 C193 1.251 . S
O190 Zn171 2.025 . S
O190 C193 1.254 . S
O191 C172 1.246 . S
O191 Zn179 2.034 . S
O192 Zn171 2.024 . S
O192 C172 1.249 . S
C193 O189 1.251 . S
C193 O190 1.254 . S
H194 C167 0.949 . S
H195 C169 0.950 . S
H196 C176 0.949 . S
H197 C178 0.950 . S
C198 O214 1.251 1_556 S
C198 O216 1.254 1_655 S
N199 C200 1.333 . S
N199 C204 1.307 . S
N199 Zn205 2.020 . S
C200 N199 1.333 . S
C200 C201 1.379 . S
C200 H218 0.952 . S
C201 C200 1.379 . S
C201 C202 1.390 . S
C201 H228 0.949 . S
C202 C201 1.390 . S
C202 C203 1.357 . S
C203 C202 1.357 . S
C203 C204 1.370 . S
C203 H229 0.950 . S
C204 N199 1.307 . S
C204 C203 1.370 . S
C204 H222 0.948 . S
Zn205 N199 2.020 . S
Zn205 O214 2.039 . S
Zn205 O220 2.034 1_655 S
Zn205 O224 2.025 1_655 S
Zn205 O226 2.024 . S
C206 O225 1.246 . S
C206 O226 1.249 1_556 S
N207 C208 1.307 . S
N207 C209 1.333 . S
N207 Zn213 2.020 . S
C208 N207 1.307 . S
C208 C212 1.370 . S
C208 H219 0.948 . S
C209 N207 1.333 . S
C209 C210 1.379 . S
C209 H217 0.952 . S
C210 C209 1.379 . S
C210 C211 1.390 . S
C210 H230 0.949 . S
C211 C210 1.390 . S
C211 C212 1.357 . S
C212 C208 1.370 . S
C212 C211 1.357 . S
C212 H231 0.950 . S
Zn213 N207 2.020 . S
Zn213 O216 2.025 . S
Zn213 O221 2.024 . S
Zn213 O223 2.039 . S
Zn213 O225 2.034 1_455 S
O214 C198 1.251 1_554 S
O214 Zn205 2.039 . S
C215 O220 1.246 . S
C215 O221 1.249 1_554 S
O216 C198 1.254 1_455 S
O216 Zn213 2.025 . S
H217 C209 0.952 . S
H218 C200 0.952 . S
H219 C208 0.948 . S
O220 Zn205 2.034 1_455 S
O220 C215 1.246 . S
O221 Zn213 2.024 . S
O221 C215 1.249 1_556 S
H222 C204 0.948 . S
O223 Zn213 2.039 . S
O223 C227 1.251 1_556 S
O224 Zn205 2.025 1_455 S
O224 C227 1.254 . S
O225 C206 1.246 . S
O225 Zn213 2.034 1_655 S
O226 Zn205 2.024 . S
O226 C206 1.249 1_554 S
C227 O223 1.251 1_554 S
C227 O224 1.254 . S
H228 C201 0.949 . S
H229 C203 0.950 . S
H230 C210 0.949 . S
H231 C212 0.950 . S
C232 C233 1.391 . S
C232 C234 1.394 . S
C232 H248 0.931 . S
C233 C232 1.391 . S
C233 C237 1.376 . S
C234 C232 1.394 . S
C234 C235 1.369 . S
C234 C238 1.531 . S
C235 C234 1.369 . S
C235 C236 1.410 . S
C235 C243 1.503 . S
C236 C235 1.410 . S
C236 C237 1.392 . S
C236 C239 1.511 . S
C237 C233 1.376 . S
C237 C236 1.392 . S
C237 H249 0.929 . S
C238 C234 1.531 . S
C238 H250 0.960 . S
C238 H251 0.962 . S
C238 H252 0.960 1_455 S
C239 C236 1.511 . S
C239 H253 0.961 . S
C239 H254 0.961 . S
C239 H255 0.958 . S
C240 C241 1.370 . S
C240 C242 1.363 . S
C240 H256 0.931 . S
C241 C240 1.370 . S
C241 C245 1.408 . S
C242 C240 1.363 . S
C242 C243 1.370 . S
C242 C246 1.524 . S
C243 C235 1.503 . S
C243 C242 1.370 . S
C243 C244 1.403 . S
C244 C243 1.403 . S
C244 C245 1.404 . S
C244 C247 1.539 1_545 S
C245 C241 1.408 . S
C245 C244 1.404 . S
C245 H257 0.930 1_545 S
C246 C242 1.524 . S
C246 H258 0.956 . S
C246 H259 0.961 . S
C246 H260 0.961 . S
C247 C244 1.539 1_565 S
C247 H261 0.958 1_465 S
C247 H262 0.961 . S
C247 H263 0.960 . S
H248 C232 0.931 . S
H249 C237 0.929 . S
H250 C238 0.960 . S
H251 C238 0.962 . S
H252 C238 0.960 1_655 S
H253 C239 0.961 . S
H254 C239 0.961 . S
H255 C239 0.958 . S
H256 C240 0.931 . S
H257 C245 0.930 1_565 S
H258 C246 0.956 . S
H259 C246 0.961 . S
H260 C246 0.961 . S
H261 C247 0.958 1_645 S
H262 C247 0.961 . S
H263 C247 0.960 . S
C264 C265 1.391 . S
C264 C266 1.394 . S
C264 H280 0.931 . S
C265 C264 1.391 . S
C265 C269 1.376 . S
C266 C264 1.394 . S
C266 C267 1.369 . S
C266 C270 1.531 . S
C267 C266 1.369 . S
C267 C268 1.410 . S
C267 C275 1.503 . S
C268 C267 1.410 . S
C268 C269 1.392 . S
C268 C271 1.511 . S
C269 C265 1.376 . S
C269 C268 1.392 . S
C269 H281 0.929 . S
C270 C266 1.531 . S
C270 H282 0.960 . S
C270 H283 0.962 . S
C270 H284 0.960 . S
C271 C268 1.511 . S
C271 H285 0.961 . S
C271 H286 0.961 . S
C271 H287 0.961 . S
C272 C273 1.370 . S
C272 C274 1.363 . S
C272 H288 0.931 1_565 S
C273 C272 1.370 . S
C273 C277 1.408 . S
C274 C272 1.363 . S
C274 C275 1.370 . S
C274 C278 1.524 1_565 S
C275 C267 1.503 . S
C275 C274 1.370 . S
C275 C276 1.403 . S
C276 C275 1.403 . S
C276 C277 1.404 . S
C276 C279 1.539 . S
C277 C273 1.408 . S
C277 C276 1.404 . S
C277 H289 0.930 . S
C278 C274 1.524 1_545 S
C278 H290 0.956 . S
C278 H291 0.961 1_545 S
C278 H292 0.961 . S
C279 C276 1.539 . S
C279 H293 0.958 . S
C279 H294 0.961 . S
C279 H295 0.960 . S
H280 C264 0.931 . S
H281 C269 0.929 . S
H282 C270 0.960 . S
H283 C270 0.962 . S
H284 C270 0.960 . S
H285 C271 0.961 . S
H286 C271 0.961 . S
H287 C271 0.961 . S
H288 C272 0.931 1_545 S
H289 C277 0.930 . S
H290 C278 0.956 . S
H291 C278 0.961 1_565 S
H292 C278 0.961 . S
H293 C279 0.958 . S
H294 C279 0.961 . S
H295 C279 0.960 . S
C296 C297 1.391 . S
C296 C298 1.394 . S
C296 H312 0.931 . S
C297 C296 1.391 . S
C297 C301 1.376 . S
C298 C296 1.394 . S
C298 C299 1.369 . S
C298 C302 1.531 . S
C299 C298 1.369 . S
C299 C300 1.410 . S
C299 C307 1.503 . S
C300 C299 1.410 . S
C300 C301 1.392 . S
C300 C303 1.511 . S
C301 C297 1.376 . S
C301 C300 1.392 . S
C301 H313 0.929 . S
C302 C298 1.531 . S
C302 H314 0.960 . S
C302 H315 0.962 . S
C302 H316 0.960 . S
C303 C300 1.511 . S
C303 H317 0.961 . S
C303 H318 0.961 . S
C303 H319 0.961 . S
C304 C305 1.370 . S
C304 C306 1.363 . S
C304 H320 0.931 . S
C305 C304 1.370 . S
C305 C309 1.408 . S
C306 C304 1.363 . S
C306 C307 1.370 . S
C306 C310 1.524 . S
C307 C299 1.503 . S
C307 C306 1.370 . S
C307 C308 1.403 . S
C308 C307 1.403 . S
C308 C309 1.404 . S
C308 C311 1.539 . S
C309 C305 1.408 . S
C309 C308 1.404 . S
C309 H321 0.930 . S
C310 C306 1.524 . S
C310 H322 0.956 . S
C310 H323 0.961 . S
C310 H324 0.961 . S
C311 C308 1.539 . S
C311 H325 0.958 . S
C311 H326 0.961 . S
C311 H327 0.960 . S
H312 C296 0.931 . S
H313 C301 0.929 . S
H314 C302 0.960 . S
H315 C302 0.962 . S
H316 C302 0.960 . S
H317 C303 0.961 . S
H318 C303 0.961 . S
H319 C303 0.961 . S
H320 C304 0.931 . S
H321 C309 0.930 . S
H322 C310 0.956 . S
H323 C310 0.961 . S
H324 C310 0.961 . S
H325 C311 0.958 . S
H326 C311 0.961 . S
H327 C311 0.960 . S
C328 C329 1.391 . S
C328 C330 1.394 . S
C328 H344 0.931 . S
C329 C328 1.391 . S
C329 C333 1.376 . S
C330 C328 1.394 . S
C330 C331 1.369 . S
C330 C334 1.531 . S
C331 C330 1.369 . S
C331 C332 1.410 . S
C331 C339 1.503 . S
C332 C331 1.410 . S
C332 C333 1.392 . S
C332 C335 1.511 . S
C333 C329 1.376 . S
C333 C332 1.392 . S
C333 H345 0.929 . S
C334 C330 1.531 . S
C334 H346 0.960 . S
C334 H347 0.962 . S
C334 H348 0.960 . S
C335 C332 1.511 . S
C335 H349 0.961 . S
C335 H350 0.961 . S
C335 H351 0.961 . S
C336 C337 1.370 . S
C336 C338 1.363 . S
C336 H352 0.931 . S
C337 C336 1.370 . S
C337 C341 1.408 . S
C338 C336 1.363 . S
C338 C339 1.370 . S
C338 C342 1.524 . S
C339 C331 1.503 . S
C339 C338 1.370 . S
C339 C340 1.403 . S
C340 C339 1.403 . S
C340 C341 1.404 . S
C340 C343 1.539 . S
C341 C337 1.408 . S
C341 C340 1.404 . S
C341 H353 0.930 . S
C342 C338 1.524 . S
C342 H354 0.956 . S
C342 H355 0.961 . S
C342 H356 0.961 . S
C343 C340 1.539 . S
C343 H357 0.958 . S
C343 H358 0.961 . S
C343 H359 0.960 . S
H344 C328 0.931 . S
H345 C333 0.929 . S
H346 C334 0.960 . S
H347 C334 0.962 . S
H348 C334 0.960 . S
H349 C335 0.961 . S
H350 C335 0.961 . S
H351 C335 0.961 . S
H352 C336 0.931 . S
H353 C341 0.930 . S
H354 C342 0.956 . S
H355 C342 0.961 . S
H356 C342 0.961 . S
H357 C343 0.958 . S
H358 C343 0.961 . S
H359 C343 0.960 . S
C360 C361 1.391 . S
C360 C362 1.394 . S
C360 H376 0.931 . S
C361 C360 1.391 . S
C361 C365 1.376 . S
C362 C360 1.394 . S
C362 C363 1.369 . S
C362 C366 1.531 . S
C363 C362 1.369 . S
C363 C364 1.410 . S
C363 C371 1.503 . S
C364 C363 1.410 . S
C364 C365 1.392 . S
C364 C367 1.511 . S
C365 C361 1.376 . S
C365 C364 1.392 . S
C365 H377 0.929 . S
C366 C362 1.531 . S
C366 H378 0.960 . S
C366 H379 0.962 . S
C366 H380 0.960 . S
C367 C364 1.511 . S
C367 H381 0.961 . S
C367 H382 0.961 . S
C367 H383 0.961 . S
C368 C369 1.370 . S
C368 C370 1.363 . S
C368 H384 0.931 . S
C369 C368 1.370 . S
C369 C373 1.408 . S
C370 C368 1.363 . S
C370 C371 1.370 . S
C370 C374 1.524 . S
C371 C363 1.503 . S
C371 C370 1.370 . S
C371 C372 1.403 . S
C372 C371 1.403 . S
C372 C373 1.404 . S
C372 C375 1.539 . S
C373 C369 1.408 . S
C373 C372 1.404 . S
C373 H385 0.930 . S
C374 C370 1.524 . S
C374 H386 0.956 . S
C374 H387 0.961 . S
C374 H388 0.961 1_545 S
C375 C372 1.539 . S
C375 H389 0.958 . S
C375 H390 0.961 . S
C375 H391 0.960 . S
H376 C360 0.931 . S
H377 C365 0.929 . S
H378 C366 0.960 . S
H379 C366 0.962 . S
H380 C366 0.960 . S
H381 C367 0.961 . S
H382 C367 0.961 . S
H383 C367 0.961 . S
H384 C368 0.931 . S
H385 C373 0.930 . S
H386 C374 0.956 . S
H387 C374 0.961 . S
H388 C374 0.961 1_565 S
H389 C375 0.958 . S
H390 C375 0.961 . S
H391 C375 0.960 . S
C392 C393 1.391 . S
C392 C394 1.394 . S
C392 H408 0.931 . S
C393 C392 1.391 . S
C393 C397 1.376 . S
C394 C392 1.394 . S
C394 C395 1.369 . S
C394 C398 1.531 . S
C395 C394 1.369 . S
C395 C396 1.410 . S
C395 C403 1.503 . S
C396 C395 1.410 . S
C396 C397 1.392 . S
C396 C399 1.511 . S
C397 C393 1.376 . S
C397 C396 1.392 . S
C397 H409 0.929 . S
C398 C394 1.531 . S
C398 H410 0.954 1_565 S
C398 H411 0.962 . S
C398 H412 0.964 . S
C399 C396 1.511 . S
C399 H413 0.961 . S
C399 H414 0.961 . S
C399 H415 0.961 . S
C400 C401 1.370 . S
C400 C402 1.363 . S
C400 H416 0.931 . S
C401 C400 1.370 . S
C401 C405 1.408 . S
C402 C400 1.363 . S
C402 C403 1.370 . S
C402 C406 1.524 . S
C403 C395 1.503 . S
C403 C402 1.370 . S
C403 C404 1.403 . S
C404 C403 1.403 . S
C404 C405 1.404 . S
C404 C407 1.539 1_565 S
C405 C401 1.408 . S
C405 C404 1.404 . S
C405 H417 0.930 1_565 S
C406 C402 1.524 . S
C406 H418 0.956 . S
C406 H419 0.961 . S
C406 H420 0.961 . S
C407 C404 1.539 1_545 S
C407 H421 0.958 . S
C407 H422 0.961 . S
C407 H423 0.960 . S
H408 C392 0.931 . S
H409 C397 0.929 . S
H410 C398 0.954 1_545 S
H411 C398 0.962 . S
H412 C398 0.964 . S
H413 C399 0.961 . S
H414 C399 0.961 . S
H415 C399 0.961 . S
H416 C400 0.931 . S
H417 C405 0.930 1_545 S
H418 C406 0.956 . S
H419 C406 0.961 . S
H420 C406 0.961 . S
H421 C407 0.958 . S
H422 C407 0.961 . S
H423 C407 0.960 . S
C424 C425 1.391 . S
C424 C426 1.394 . S
C424 H440 0.931 . S
C425 C424 1.391 . S
C425 C429 1.376 . S
C426 C424 1.394 . S
C426 C427 1.369 . S
C426 C430 1.531 . S
C427 C426 1.369 . S
C427 C428 1.410 . S
C427 C435 1.503 . S
C428 C427 1.410 . S
C428 C429 1.392 . S
C428 C431 1.511 . S
C429 C425 1.376 . S
C429 C428 1.392 . S
C429 H441 0.929 . S
C430 C426 1.531 . S
C430 H442 0.960 . S
C430 H443 0.962 . S
C430 H444 0.960 . S
C431 C428 1.511 . S
C431 H445 0.961 . S
C431 H446 0.961 . S
C431 H447 0.961 . S
C432 C433 1.370 . S
C432 C434 1.363 . S
C432 H448 0.931 . S
C433 C432 1.370 . S
C433 C437 1.408 1_556 S
C434 C432 1.363 . S
C434 C435 1.370 . S
C434 C438 1.524 . S
C435 C427 1.503 . S
C435 C434 1.370 . S
C435 C436 1.403 1_556 S
C436 C435 1.403 1_554 S
C436 C437 1.404 . S
C436 C439 1.539 . S
C437 C433 1.408 1_554 S
C437 C436 1.404 . S
C437 H449 0.930 . S
C438 C434 1.524 . S
C438 H450 0.956 . S
C438 H451 0.961 . S
C438 H452 0.961 . S
C439 C436 1.539 . S
C439 H453 0.958 . S
C439 H454 0.961 . S
C439 H455 0.960 . S
H440 C424 0.931 . S
H441 C429 0.929 . S
H442 C430 0.960 . S
H443 C430 0.962 . S
H444 C430 0.960 . S
H445 C431 0.961 . S
H446 C431 0.961 . S
H447 C431 0.961 . S
H448 C432 0.931 . S
H449 C437 0.930 . S
H450 C438 0.956 . S
H451 C438 0.961 . S
H452 C438 0.961 . S
H453 C439 0.958 . S
H454 C439 0.961 . S
H455 C439 0.960 . S
C456 C457 1.391 . S
C456 C458 1.394 . S
C456 H472 0.931 . S
C457 C456 1.391 . S
C457 C461 1.376 . S
C458 C456 1.394 . S
C458 C459 1.369 . S
C458 C462 1.531 . S
C459 C458 1.369 . S
C459 C460 1.410 . S
C459 C467 1.503 . S
C460 C459 1.410 . S
C460 C461 1.392 . S
C460 C463 1.511 . S
C461 C457 1.376 . S
C461 C460 1.392 . S
C461 H473 0.929 . S
C462 C458 1.531 . S
C462 H474 0.960 . S
C462 H475 0.962 . S
C462 H476 0.960 . S
C463 C460 1.511 . S
C463 H477 0.961 . S
C463 H478 0.961 . S
C463 H479 0.961 . S
C464 C465 1.370 . S
C464 C466 1.363 . S
C464 H480 0.931 . S
C465 C464 1.370 . S
C465 C469 1.408 . S
C466 C464 1.363 . S
C466 C467 1.370 . S
C466 C470 1.524 . S
C467 C459 1.503 . S
C467 C466 1.370 . S
C467 C468 1.403 . S
C468 C467 1.403 . S
C468 C469 1.404 . S
C468 C471 1.539 . S
C469 C465 1.408 . S
C469 C468 1.404 . S
C469 H481 0.930 . S
C470 C466 1.524 . S
C470 H482 0.956 . S
C470 H483 0.961 . S
C470 H484 0.961 . S
C471 C468 1.539 . S
C471 H485 0.958 . S
C471 H486 0.961 . S
C471 H487 0.960 . S
H472 C456 0.931 . S
H473 C461 0.929 . S
H474 C462 0.960 . S
H475 C462 0.962 . S
H476 C462 0.960 . S
H477 C463 0.961 . S
H478 C463 0.961 . S
H479 C463 0.961 . S
H480 C464 0.931 . S
H481 C469 0.930 . S
H482 C470 0.956 . S
H483 C470 0.961 . S
H484 C470 0.961 . S
H485 C471 0.958 . S
H486 C471 0.961 . S
H487 C471 0.960 . S
C488 C489 1.391 . S
C488 C490 1.394 . S
C488 H504 0.931 . S
C489 C488 1.391 . S
C489 C493 1.376 . S
C490 C488 1.394 . S
C490 C491 1.369 . S
C490 C494 1.531 . S
C491 C490 1.369 . S
C491 C492 1.410 . S
C491 C499 1.503 . S
C492 C491 1.410 . S
C492 C493 1.392 . S
C492 C495 1.511 . S
C493 C489 1.376 . S
C493 C492 1.392 . S
C493 H505 0.929 . S
C494 C490 1.531 . S
C494 H506 0.960 . S
C494 H507 0.962 1_455 S
C494 H508 0.960 . S
C495 C492 1.511 . S
C495 H509 0.961 . S
C495 H510 0.961 . S
C495 H511 0.961 . S
C496 C497 1.370 . S
C496 C498 1.363 . S
C496 H512 0.931 . S
C497 C496 1.370 . S
C497 C501 1.408 . S
C498 C496 1.363 . S
C498 C499 1.370 . S
C498 C502 1.524 . S
C499 C491 1.503 . S
C499 C498 1.370 . S
C499 C500 1.403 . S
C500 C499 1.403 . S
C500 C501 1.404 . S
C500 C503 1.539 . S
C501 C497 1.408 . S
C501 C500 1.404 . S
C501 H513 0.930 . S
C502 C498 1.524 . S
C502 H514 0.956 . S
C502 H515 0.961 . S
C502 H516 0.961 . S
C503 C500 1.539 . S
C503 H517 0.958 . S
C503 H518 0.961 . S
C503 H519 0.960 . S
H504 C488 0.931 . S
H505 C493 0.929 . S
H506 C494 0.960 . S
H507 C494 0.962 1_655 S
H508 C494 0.960 . S
H509 C495 0.961 . S
H510 C495 0.961 . S
H511 C495 0.961 . S
H512 C496 0.931 . S
H513 C501 0.930 . S
H514 C502 0.956 . S
H515 C502 0.961 . S
H516 C502 0.961 . S
H517 C503 0.958 . S
H518 C503 0.961 . S
H519 C503 0.960 . S
C520 C521 1.391 . S
C520 C522 1.394 . S
C520 H536 0.931 . S
C521 C520 1.391 . S
C521 C525 1.376 . S
C522 C520 1.394 . S
C522 C523 1.369 . S
C522 C526 1.531 . S
C523 C522 1.369 . S
C523 C524 1.410 . S
C523 C531 1.503 . S
C524 C523 1.410 . S
C524 C525 1.392 . S
C524 C527 1.511 . S
C525 C521 1.376 . S
C525 C524 1.392 . S
C525 H537 0.929 . S
C526 C522 1.531 . S
C526 H538 0.960 . S
C526 H539 0.962 . S
C526 H540 0.960 . S
C527 C524 1.511 . S
C527 H541 0.961 . S
C527 H542 0.961 . S
C527 H543 0.961 . S
C528 C529 1.370 . S
C528 C530 1.363 . S
C528 H544 0.931 1_556 S
C529 C528 1.370 . S
C529 C533 1.408 . S
C530 C528 1.363 . S
C530 C531 1.370 . S
C530 C534 1.524 1_556 S
C531 C523 1.503 . S
C531 C530 1.370 . S
C531 C532 1.403 . S
C532 C531 1.403 . S
C532 C533 1.404 . S
C532 C535 1.539 . S
C533 C529 1.408 . S
C533 C532 1.404 . S
C533 H545 0.930 . S
C534 C530 1.524 1_554 S
C534 H546 0.956 . S
C534 H547 0.961 . S
C534 H548 0.961 . S
C535 C532 1.539 . S
C535 H549 0.958 . S
C535 H550 0.961 . S
C535 H551 0.960 . S
H536 C520 0.931 . S
H537 C525 0.929 . S
H538 C526 0.960 . S
H539 C526 0.962 . S
H540 C526 0.960 . S
H541 C527 0.961 . S
H542 C527 0.961 . S
H543 C527 0.961 . S
H544 C528 0.931 1_554 S
H545 C533 0.930 . S
H546 C534 0.956 . S
H547 C534 0.961 . S
H548 C534 0.961 . S
H549 C535 0.958 . S
H550 C535 0.961 . S
H551 C535 0.960 . S
C552 C553 1.391 . S
C552 C554 1.394 . S
C552 H568 0.931 . S
C553 C552 1.391 . S
C553 C557 1.376 . S
C554 C552 1.394 . S
C554 C555 1.369 . S
C554 C558 1.531 . S
C555 C554 1.369 . S
C555 C556 1.410 . S
C555 C563 1.503 . S
C556 C555 1.410 . S
C556 C557 1.392 . S
C556 C559 1.511 . S
C557 C553 1.376 . S
C557 C556 1.392 . S
C557 H569 0.929 . S
C558 C554 1.531 . S
C558 H570 0.960 . S
C558 H571 0.962 . S
C558 H572 0.960 . S
C559 C556 1.511 . S
C559 H573 0.961 . S
C559 H574 0.961 . S
C559 H575 0.961 . S
C560 C561 1.370 . S
C560 C562 1.363 . S
C560 H576 0.931 . S
C561 C560 1.370 . S
C561 C565 1.408 . S
C562 C560 1.363 . S
C562 C563 1.370 . S
C562 C566 1.524 . S
C563 C555 1.503 . S
C563 C562 1.370 . S
C563 C564 1.403 . S
C564 C563 1.403 . S
C564 C565 1.404 . S
C564 C567 1.539 . S
C565 C561 1.408 . S
C565 C564 1.404 . S
C565 H577 0.930 . S
C566 C562 1.524 . S
C566 H578 0.956 . S
C566 H579 0.961 . S
C566 H580 0.961 . S
C567 C564 1.539 . S
C567 H581 0.958 . S
C567 H582 0.961 . S
C567 H583 0.960 . S
H568 C552 0.931 . S
H569 C557 0.929 . S
H570 C558 0.960 . S
H571 C558 0.962 . S
H572 C558 0.960 . S
H573 C559 0.961 . S
H574 C559 0.961 . S
H575 C559 0.961 . S
H576 C560 0.931 . S
H577 C565 0.930 . S
H578 C566 0.956 . S
H579 C566 0.961 . S
H580 C566 0.961 . S
H581 C567 0.958 . S
H582 C567 0.961 . S
H583 C567 0.960 . S
C584 C585 1.391 . S
C584 C586 1.394 . S
C584 H600 0.931 . S
C585 C584 1.391 . S
C585 C589 1.376 . S
C586 C584 1.394 . S
C586 C587 1.369 . S
C586 C590 1.531 . S
C587 C586 1.369 . S
C587 C588 1.410 . S
C587 C595 1.503 . S
C588 C587 1.410 . S
C588 C589 1.392 . S
C588 C591 1.511 . S
C589 C585 1.376 . S
C589 C588 1.392 . S
C589 H601 0.929 . S
C590 C586 1.531 . S
C590 H602 0.960 . S
C590 H603 0.962 . S
C590 H604 0.960 . S
C591 C588 1.511 . S
C591 H605 0.961 . S
C591 H606 0.961 . S
C591 H607 0.961 . S
C592 C593 1.370 . S
C592 C594 1.363 . S
C592 H608 0.931 . S
C593 C592 1.370 . S
C593 C597 1.408 . S
C594 C592 1.363 . S
C594 C595 1.370 . S
C594 C598 1.524 . S
C595 C587 1.503 . S
C595 C594 1.370 . S
C595 C596 1.403 . S
C596 C595 1.403 . S
C596 C597 1.404 . S
C596 C599 1.539 . S
C597 C593 1.408 . S
C597 C596 1.404 . S
C597 H609 0.930 . S
C598 C594 1.524 . S
C598 H610 0.956 . S
C598 H611 0.961 . S
C598 H612 0.961 . S
C599 C596 1.539 . S
C599 H613 0.958 . S
C599 H614 0.961 . S
C599 H615 0.960 . S
H600 C584 0.931 . S
H601 C589 0.929 . S
H602 C590 0.960 . S
H603 C590 0.962 . S
H604 C590 0.960 . S
H605 C591 0.961 . S
H606 C591 0.961 . S
H607 C591 0.961 . S
H608 C592 0.931 . S
H609 C597 0.930 . S
H610 C598 0.956 . S
H611 C598 0.961 . S
H612 C598 0.961 . S
H613 C599 0.958 . S
H614 C599 0.961 . S
H615 C599 0.960 . S
C616 C617 1.391 . S
C616 C618 1.394 . S
C616 H632 0.931 . S
C617 C616 1.391 . S
C617 C621 1.376 . S
C618 C616 1.394 . S
C618 C619 1.369 . S
C618 C622 1.531 . S
C619 C618 1.369 . S
C619 C620 1.410 . S
C619 C627 1.503 . S
C620 C619 1.410 . S
C620 C621 1.392 . S
C620 C623 1.511 . S
C621 C617 1.376 . S
C621 C620 1.392 . S
C621 H633 0.929 . S
C622 C618 1.531 . S
C622 H634 0.960 1_565 S
C622 H635 0.962 . S
C622 H636 0.960 1_565 S
C623 C620 1.511 . S
C623 H637 0.961 . S
C623 H638 0.961 . S
C623 H639 0.961 1_655 S
C624 C625 1.370 . S
C624 C626 1.363 . S
C624 H640 0.931 . S
C625 C624 1.370 . S
C625 C629 1.408 . S
C626 C624 1.363 . S
C626 C627 1.370 . S
C626 C630 1.524 . S
C627 C619 1.503 . S
C627 C626 1.370 . S
C627 C628 1.403 . S
C628 C627 1.403 . S
C628 C629 1.404 . S
C628 C631 1.552 1_565 S
C629 C625 1.408 . S
C629 C628 1.404 . S
C629 H641 0.930 1_665 S
C630 C626 1.524 . S
C630 H642 0.956 . S
C630 H643 0.961 . S
C630 H644 0.961 . S
C631 C628 1.552 1_545 S
C631 H645 0.968 . S
C631 H646 0.942 1_655 S
C631 H647 0.954 1_645 S
H632 C616 0.931 . S
H633 C621 0.929 . S
H634 C622 0.960 1_545 S
H635 C622 0.962 . S
H636 C622 0.960 1_545 S
H637 C623 0.961 . S
H638 C623 0.961 . S
H639 C623 0.961 1_455 S
H640 C624 0.931 . S
H641 C629 0.930 1_445 S
H642 C630 0.956 . S
H643 C630 0.961 . S
H644 C630 0.961 . S
H645 C631 0.968 . S
H646 C631 0.942 1_455 S
H647 C631 0.954 1_465 S
C648 C649 1.391 . S
C648 C650 1.394 . S
C648 H664 0.931 . S
C649 C648 1.391 . S
C649 C653 1.376 . S
C650 C648 1.394 . S
C650 C651 1.369 . S
C650 C654 1.531 . S
C651 C650 1.369 . S
C651 C652 1.410 . S
C651 C659 1.503 . S
C652 C651 1.410 . S
C652 C653 1.392 . S
C652 C655 1.511 . S
C653 C649 1.376 . S
C653 C652 1.392 . S
C653 H665 0.929 . S
C654 C650 1.531 . S
C654 H666 0.960 . S
C654 H667 0.962 . S
C654 H668 0.960 . S
C655 C652 1.511 . S
C655 H669 0.961 . S
C655 H670 0.961 . S
C655 H671 0.961 . S
C656 C657 1.370 . S
C656 C658 1.363 . S
C656 H672 0.931 . S
C657 C656 1.370 . S
C657 C661 1.408 . S
C658 C656 1.363 . S
C658 C659 1.370 . S
C658 C662 1.524 . S
C659 C651 1.503 . S
C659 C658 1.370 . S
C659 C660 1.403 . S
C660 C659 1.403 . S
C660 C661 1.404 . S
C660 C663 1.539 . S
C661 C657 1.408 . S
C661 C660 1.404 . S
C661 H673 0.930 . S
C662 C658 1.524 . S
C662 H674 0.956 . S
C662 H675 0.961 . S
C662 H676 0.961 1_545 S
C663 C660 1.539 . S
C663 H677 0.958 . S
C663 H678 0.961 . S
C663 H679 0.960 . S
H664 C648 0.931 . S
H665 C653 0.929 . S
H666 C654 0.960 . S
H667 C654 0.962 . S
H668 C654 0.960 . S
H669 C655 0.961 . S
H670 C655 0.961 . S
H671 C655 0.961 . S
H672 C656 0.931 . S
H673 C661 0.930 . S
H674 C662 0.956 . S
H675 C662 0.961 . S
H676 C662 0.961 1_565 S
H677 C663 0.958 . S
H678 C663 0.961 . S
H679 C663 0.960 . S
C680 C681 1.391 . S
C680 C682 1.394 . S
C680 H696 0.931 . S
C681 C680 1.391 . S
C681 C685 1.376 . S
C682 C680 1.394 . S
C682 C683 1.369 . S
C682 C686 1.531 . S
C683 C682 1.369 . S
C683 C684 1.410 . S
C683 C691 1.503 . S
C684 C683 1.410 . S
C684 C685 1.392 . S
C684 C687 1.511 . S
C685 C681 1.376 . S
C685 C684 1.392 . S
C685 H697 0.929 . S
C686 C682 1.531 . S
C686 H698 0.960 . S
C686 H699 0.962 . S
C686 H700 0.960 . S
C687 C684 1.511 . S
C687 H701 0.961 . S
C687 H702 0.961 . S
C687 H703 0.961 . S
C688 C689 1.370 . S
C688 C690 1.363 . S
C688 H704 0.931 . S
C689 C688 1.370 . S
C689 C693 1.408 . S
C690 C688 1.363 . S
C690 C691 1.370 . S
C690 C694 1.524 . S
C691 C683 1.503 . S
C691 C690 1.370 . S
C691 C692 1.403 . S
C692 C691 1.403 . S
C692 C693 1.404 . S
C692 C695 1.539 . S
C693 C689 1.408 . S
C693 C692 1.404 . S
C693 H705 0.930 . S
C694 C690 1.524 . S
C694 H706 0.956 . S
C694 H707 0.961 . S
C694 H708 0.961 . S
C695 C692 1.539 . S
C695 H709 0.958 . S
C695 H710 0.961 . S
C695 H711 0.960 . S
H696 C680 0.931 . S
H697 C685 0.929 . S
H698 C686 0.960 . S
H699 C686 0.962 . S
H700 C686 0.960 . S
H701 C687 0.961 . S
H702 C687 0.961 . S
H703 C687 0.961 . S
H704 C688 0.931 . S
H705 C693 0.930 . S
H706 C694 0.956 . S
H707 C694 0.961 . S
H708 C694 0.961 . S
H709 C695 0.958 . S
H710 C695 0.961 . S
H711 C695 0.960 . S
C712 C713 1.391 . S
C712 C714 1.394 . S
C712 H728 0.931 . S
C713 C712 1.391 . S
C713 C717 1.376 . S
C714 C712 1.394 . S
C714 C715 1.369 . S
C714 C718 1.531 . S
C715 C714 1.369 . S
C715 C716 1.410 . S
C715 C723 1.503 . S
C716 C715 1.410 . S
C716 C717 1.392 . S
C716 C719 1.511 . S
C717 C713 1.376 . S
C717 C716 1.392 . S
C717 H729 0.929 . S
C718 C714 1.531 . S
C718 H730 0.960 . S
C718 H731 0.962 . S
C718 H732 0.960 . S
C719 C716 1.511 . S
C719 H733 0.961 . S
C719 H734 0.961 . S
C719 H735 0.961 . S
C720 C721 1.370 . S
C720 C722 1.363 . S
C720 H736 0.931 . S
C721 C720 1.370 . S
C721 C725 1.408 . S
C722 C720 1.363 . S
C722 C723 1.370 . S
C722 C726 1.524 . S
C723 C715 1.503 . S
C723 C722 1.370 . S
C723 C724 1.403 . S
C724 C723 1.403 . S
C724 C725 1.404 . S
C724 C727 1.539 . S
C725 C721 1.408 . S
C725 C724 1.404 . S
C725 H737 0.930 . S
C726 C722 1.524 . S
C726 H738 0.956 . S
C726 H739 0.961 . S
C726 H740 0.961 . S
C727 C724 1.539 . S
C727 H741 0.958 . S
C727 H742 0.961 . S
C727 H743 0.960 . S
H728 C712 0.931 . S
H729 C717 0.929 . S
H730 C718 0.960 . S
H731 C718 0.962 . S
H732 C718 0.960 . S
H733 C719 0.961 . S
H734 C719 0.961 . S
H735 C719 0.961 . S
H736 C720 0.931 . S
H737 C725 0.930 . S
H738 C726 0.956 . S
H739 C726 0.961 . S
H740 C726 0.961 . S
H741 C727 0.958 . S
H742 C727 0.961 . S
H743 C727 0.960 . S
C744 C745 1.391 . S
C744 C746 1.394 . S
C744 H760 0.931 . S
C745 C744 1.391 . S
C745 C749 1.376 . S
C746 C744 1.394 . S
C746 C747 1.369 . S
C746 C750 1.531 . S
C747 C746 1.369 . S
C747 C748 1.410 . S
C747 C755 1.503 . S
C748 C747 1.410 . S
C748 C749 1.392 . S
C748 C751 1.511 . S
C749 C745 1.376 . S
C749 C748 1.392 . S
C749 H761 0.929 . S
C750 C746 1.531 . S
C750 H762 0.960 . S
C750 H763 0.962 . S
C750 H764 0.960 . S
C751 C748 1.511 . S
C751 H765 0.961 . S
C751 H766 0.961 . S
C751 H767 0.958 1_556 S
C752 C753 1.370 1_545 S
C752 C754 1.363 1_545 S
C752 H768 0.931 . S
C753 C752 1.370 1_565 S
C753 C757 1.408 . S
C754 C752 1.363 1_565 S
C754 C755 1.370 . S
C754 C758 1.524 1_565 S
C755 C747 1.503 . S
C755 C754 1.370 . S
C755 C756 1.403 . S
C756 C755 1.403 . S
C756 C757 1.404 . S
C756 C759 1.539 . S
C757 C753 1.408 . S
C757 C756 1.404 . S
C757 H769 0.930 . S
C758 C754 1.524 1_545 S
C758 H770 0.956 . S
C758 H771 0.961 . S
C758 H772 0.961 . S
C759 C756 1.539 . S
C759 H773 0.958 . S
C759 H774 0.961 . S
C759 H775 0.960 . S
H760 C744 0.931 . S
H761 C749 0.929 . S
H762 C750 0.960 . S
H763 C750 0.962 . S
H764 C750 0.960 . S
H765 C751 0.961 . S
H766 C751 0.961 . S
H767 C751 0.958 1_554 S
H768 C752 0.931 . S
H769 C757 0.930 . S
H770 C758 0.956 . S
H771 C758 0.961 . S
H772 C758 0.961 . S
H773 C759 0.958 . S
H774 C759 0.961 . S
H775 C759 0.960 . S
C776 C777 1.391 . S
C776 C778 1.394 . S
C776 H792 0.931 . S
C777 C776 1.391 . S
C777 C781 1.376 . S
C778 C776 1.394 . S
C778 C779 1.369 . S
C778 C782 1.531 . S
C779 C778 1.369 . S
C779 C780 1.410 . S
C779 C787 1.503 . S
C780 C779 1.410 . S
C780 C781 1.392 . S
C780 C783 1.511 . S
C781 C777 1.376 . S
C781 C780 1.392 . S
C781 H793 0.929 . S
C782 C778 1.531 . S
C782 H794 0.960 . S
C782 H795 0.962 . S
C782 H796 0.960 . S
C783 C780 1.511 . S
C783 H797 0.961 . S
C783 H798 0.961 . S
C783 H799 0.961 . S
C784 C785 1.370 . S
C784 C786 1.363 . S
C784 H800 0.931 . S
C785 C784 1.370 . S
C785 C789 1.408 . S
C786 C784 1.363 . S
C786 C787 1.370 . S
C786 C790 1.524 . S
C787 C779 1.503 . S
C787 C786 1.370 . S
C787 C788 1.403 . S
C788 C787 1.403 . S
C788 C789 1.404 . S
C788 C791 1.539 . S
C789 C785 1.408 . S
C789 C788 1.404 . S
C789 H801 0.930 . S
C790 C786 1.524 . S
C790 H802 0.956 . S
C790 H803 0.961 . S
C790 H804 0.961 1_545 S
C791 C788 1.539 . S
C791 H805 0.958 . S
C791 H806 0.961 . S
C791 H807 0.960 . S
H792 C776 0.931 . S
H793 C781 0.929 . S
H794 C782 0.960 . S
H795 C782 0.962 . S
H796 C782 0.960 . S
H797 C783 0.961 . S
H798 C783 0.961 . S
H799 C783 0.961 . S
H800 C784 0.931 . S
H801 C789 0.930 . S
H802 C790 0.956 . S
H803 C790 0.961 . S
H804 C790 0.961 1_565 S
H805 C791 0.958 . S
H806 C791 0.961 . S
H807 C791 0.960 . S
C808 C809 1.391 . S
C808 C810 1.394 . S
C808 H824 0.931 . S
C809 C808 1.391 . S
C809 C813 1.376 . S
C810 C808 1.394 . S
C810 C811 1.369 . S
C810 C814 1.531 . S
C811 C810 1.369 . S
C811 C812 1.410 . S
C811 C819 1.503 . S
C812 C811 1.410 . S
C812 C813 1.392 . S
C812 C815 1.511 . S
C813 C809 1.376 . S
C813 C812 1.392 . S
C813 H825 0.929 . S
C814 C810 1.531 . S
C814 H826 0.960 . S
C814 H827 0.962 . S
C814 H828 0.960 . S
C815 C812 1.511 . S
C815 H829 0.961 . S
C815 H830 0.961 . S
C815 H831 0.961 . S
C816 C817 1.370 . S
C816 C818 1.363 . S
C816 H832 0.931 . S
C817 C816 1.370 . S
C817 C821 1.408 . S
C818 C816 1.363 . S
C818 C819 1.370 . S
C818 C822 1.524 . S
C819 C811 1.503 . S
C819 C818 1.370 . S
C819 C820 1.403 . S
C820 C819 1.403 . S
C820 C821 1.404 . S
C820 C823 1.539 1_554 S
C821 C817 1.408 . S
C821 C820 1.404 . S
C821 H833 0.930 1_554 S
C822 C818 1.524 . S
C822 H834 0.956 . S
C822 H835 0.961 . S
C822 H836 0.961 . S
C823 C820 1.539 1_556 S
C823 H837 0.958 . S
C823 H838 0.961 . S
C823 H839 0.960 . S
H824 C808 0.931 . S
H825 C813 0.929 . S
H826 C814 0.960 . S
H827 C814 0.962 . S
H828 C814 0.960 . S
H829 C815 0.961 . S
H830 C815 0.961 . S
H831 C815 0.961 . S
H832 C816 0.931 . S
H833 C821 0.930 1_556 S
H834 C822 0.956 . S
H835 C822 0.961 . S
H836 C822 0.961 . S
H837 C823 0.958 . S
H838 C823 0.961 . S
H839 C823 0.960 . S
C840 C841 1.391 . S
C840 C842 1.394 . S
C840 H856 0.931 . S
C841 C840 1.391 . S
C841 C845 1.376 . S
C842 C840 1.394 . S
C842 C843 1.369 . S
C842 C846 1.531 . S
C843 C842 1.369 . S
C843 C844 1.410 . S
C843 C851 1.503 . S
C844 C843 1.410 . S
C844 C845 1.392 . S
C844 C847 1.511 . S
C845 C841 1.376 . S
C845 C844 1.392 . S
C845 H857 0.929 . S
C846 C842 1.531 . S
C846 H858 0.960 . S
C846 H859 0.962 . S
C846 H860 0.960 . S
C847 C844 1.511 . S
C847 H861 0.961 . S
C847 H862 0.961 . S
C847 H863 0.961 . S
C848 C849 1.370 . S
C848 C850 1.363 . S
C848 H864 0.931 . S
C849 C848 1.370 . S
C849 C853 1.408 . S
C850 C848 1.363 . S
C850 C851 1.370 . S
C850 C854 1.524 . S
C851 C843 1.503 . S
C851 C850 1.370 . S
C851 C852 1.403 . S
C852 C851 1.403 . S
C852 C853 1.404 . S
C852 C855 1.539 . S
C853 C849 1.408 . S
C853 C852 1.404 . S
C853 H865 0.930 . S
C854 C850 1.524 . S
C854 H866 0.956 . S
C854 H867 0.961 . S
C854 H868 0.961 . S
C855 C852 1.539 . S
C855 H869 0.958 . S
C855 H870 0.961 . S
C855 H871 0.960 . S
H856 C840 0.931 . S
H857 C845 0.929 . S
H858 C846 0.960 . S
H859 C846 0.962 . S
H860 C846 0.960 . S
H861 C847 0.961 . S
H862 C847 0.961 . S
H863 C847 0.961 . S
H864 C848 0.931 . S
H865 C853 0.930 . S
H866 C854 0.956 . S
H867 C854 0.961 . S
H868 C854 0.961 . S
H869 C855 0.958 . S
H870 C855 0.961 . S
H871 C855 0.960 . S
C872 C873 1.391 . S
C872 C874 1.394 . S
C872 H888 0.931 . S
C873 C872 1.391 . S
C873 C877 1.376 . S
C874 C872 1.394 . S
C874 C875 1.369 . S
C874 C878 1.531 . S
C875 C874 1.369 . S
C875 C876 1.410 . S
C875 C883 1.503 . S
C876 C875 1.410 . S
C876 C877 1.392 . S
C876 C879 1.511 1_655 S
C877 C873 1.376 . S
C877 C876 1.392 . S
C877 H889 0.929 . S
C878 C874 1.531 . S
C878 H890 0.960 . S
C878 H891 0.962 . S
C878 H892 0.960 . S
C879 C876 1.511 1_455 S
C879 H893 0.961 . S
C879 H894 0.961 . S
C879 H895 0.961 . S
C880 C881 1.370 . S
C880 C882 1.363 . S
C880 H896 0.931 1_556 S
C881 C880 1.370 . S
C881 C885 1.408 . S
C882 C880 1.363 . S
C882 C883 1.370 . S
C882 C886 1.524 1_556 S
C883 C875 1.503 . S
C883 C882 1.370 . S
C883 C884 1.403 . S
C884 C883 1.403 . S
C884 C885 1.404 . S
C884 C887 1.538 . S
C885 C881 1.408 . S
C885 C884 1.404 . S
C885 H897 0.930 1_655 S
C886 C882 1.524 1_554 S
C886 H898 0.956 1_554 S
C886 H899 0.961 . S
C886 H900 0.961 . S
C887 C884 1.538 . S
C887 H901 0.956 . S
C887 H902 0.964 1_655 S
C887 H903 0.960 1_655 S
H888 C872 0.931 . S
H889 C877 0.929 . S
H890 C878 0.960 . S
H891 C878 0.962 . S
H892 C878 0.960 . S
H893 C879 0.961 . S
H894 C879 0.961 . S
H895 C879 0.961 . S
H896 C880 0.931 1_554 S
H897 C885 0.930 1_455 S
H898 C886 0.956 1_556 S
H899 C886 0.961 . S
H900 C886 0.961 . S
H901 C887 0.956 . S
H902 C887 0.964 1_455 S
H903 C887 0.960 1_455 S
C904 C905 1.391 . S
C904 C906 1.394 . S
C904 H920 0.931 . S
C905 C904 1.391 . S
C905 C909 1.376 . S
C906 C904 1.394 . S
C906 C907 1.369 . S
C906 C910 1.531 . S
C907 C906 1.369 . S
C907 C908 1.410 . S
C907 C915 1.503 . S
C908 C907 1.410 . S
C908 C909 1.392 . S
C908 C911 1.511 . S
C909 C905 1.376 . S
C909 C908 1.392 . S
C909 H921 0.929 . S
C910 C906 1.531 . S
C910 H922 0.960 . S
C910 H923 0.962 . S
C910 H924 0.960 . S
C911 C908 1.511 . S
C911 H925 0.961 . S
C911 H926 0.961 . S
C911 H927 0.961 . S
C912 C913 1.370 . S
C912 C914 1.363 . S
C912 H928 0.931 . S
C913 C912 1.370 . S
C913 C917 1.408 . S
C914 C912 1.363 . S
C914 C915 1.370 . S
C914 C918 1.524 . S
C915 C907 1.503 . S
C915 C914 1.370 . S
C915 C916 1.403 . S
C916 C915 1.403 . S
C916 C917 1.404 . S
C916 C919 1.539 . S
C917 C913 1.408 . S
C917 C916 1.404 . S
C917 H929 0.930 . S
C918 C914 1.524 . S
C918 H930 0.956 . S
C918 H931 0.961 . S
C918 H932 0.961 . S
C919 C916 1.539 . S
C919 H933 0.958 . S
C919 H934 0.961 1_554 S
C919 H935 0.960 . S
H920 C904 0.931 . S
H921 C909 0.929 . S
H922 C910 0.960 . S
H923 C910 0.962 . S
H924 C910 0.960 . S
H925 C911 0.961 . S
H926 C911 0.961 . S
H927 C911 0.961 . S
H928 C912 0.931 . S
H929 C917 0.930 . S
H930 C918 0.956 . S
H931 C918 0.961 . S
H932 C918 0.961 . S
H933 C919 0.958 . S
H934 C919 0.961 1_556 S
H935 C919 0.960 . S
C936 C937 1.391 . S
C936 C938 1.394 . S
C936 H952 0.931 . S
C937 C936 1.391 . S
C937 C941 1.376 . S
C938 C936 1.394 . S
C938 C939 1.369 . S
C938 C942 1.531 . S
C939 C938 1.369 . S
C939 C940 1.410 . S
C939 C947 1.503 . S
C940 C939 1.410 . S
C940 C941 1.392 . S
C940 C943 1.511 . S
C941 C937 1.376 . S
C941 C940 1.392 . S
C941 H953 0.929 . S
C942 C938 1.531 . S
C942 H954 0.960 . S
C942 H955 0.962 . S
C942 H956 0.960 . S
C943 C940 1.511 . S
C943 H957 0.961 . S
C943 H958 0.961 . S
C943 H959 0.961 . S
C944 C945 1.370 . S
C944 C946 1.363 . S
C944 H960 0.931 . S
C945 C944 1.370 . S
C945 C949 1.408 . S
C946 C944 1.363 . S
C946 C947 1.370 . S
C946 C950 1.524 . S
C947 C939 1.503 . S
C947 C946 1.370 . S
C947 C948 1.403 . S
C948 C947 1.403 . S
C948 C949 1.404 . S
C948 C951 1.539 . S
C949 C945 1.408 . S
C949 C948 1.404 . S
C949 H961 0.930 . S
C950 C946 1.524 . S
C950 H962 0.956 . S
C950 H963 0.961 . S
C950 H964 0.961 . S
C951 C948 1.539 . S
C951 H965 0.958 . S
C951 H966 0.961 . S
C951 H967 0.960 . S
H952 C936 0.931 . S
H953 C941 0.929 . S
H954 C942 0.960 . S
H955 C942 0.962 . S
H956 C942 0.960 . S
H957 C943 0.961 . S
H958 C943 0.961 . S
H959 C943 0.961 . S
H960 C944 0.931 . S
H961 C949 0.930 . S
H962 C950 0.956 . S
H963 C950 0.961 . S
H964 C950 0.961 . S
H965 C951 0.958 . S
H966 C951 0.961 . S
H967 C951 0.960 . S
C968 C969 1.391 . S
C968 C970 1.394 . S
C968 H984 0.931 . S
C969 C968 1.391 . S
C969 C973 1.376 . S
C970 C968 1.394 . S
C970 C971 1.369 . S
C970 C974 1.531 . S
C971 C970 1.369 . S
C971 C972 1.410 . S
C971 C979 1.503 . S
C972 C971 1.410 . S
C972 C973 1.392 . S
C972 C975 1.511 . S
C973 C969 1.376 . S
C973 C972 1.392 . S
C973 H985 0.929 . S
C974 C970 1.531 . S
C974 H986 0.960 . S
C974 H987 0.962 . S
C974 H988 0.960 . S
C975 C972 1.511 . S
C975 H989 0.961 . S
C975 H990 0.961 . S
C975 H991 0.961 . S
C976 C977 1.370 . S
C976 C978 1.363 . S
C976 H992 0.931 . S
C977 C976 1.370 . S
C977 C981 1.408 . S
C978 C976 1.363 . S
C978 C979 1.370 . S
C978 C982 1.524 . S
C979 C971 1.503 . S
C979 C978 1.370 . S
C979 C980 1.403 . S
C980 C979 1.403 . S
C980 C981 1.404 . S
C980 C983 1.539 . S
C981 C977 1.408 . S
C981 C980 1.404 . S
C981 H993 0.930 . S
C982 C978 1.524 . S
C982 H994 0.956 . S
C982 H995 0.961 . S
C982 H996 0.961 . S
C983 C980 1.539 . S
C983 H997 0.958 . S
C983 H998 0.961 . S
C983 H999 0.960 . S
H984 C968 0.931 . S
H985 C973 0.929 . S
H986 C974 0.960 . S
H987 C974 0.962 . S
H988 C974 0.960 . S
H989 C975 0.961 . S
H990 C975 0.961 . S
H991 C975 0.961 . S
H992 C976 0.931 . S
H993 C981 0.930 . S
H994 C982 0.956 . S
H995 C982 0.961 . S
H996 C982 0.961 . S
H997 C983 0.958 . S
H998 C983 0.961 . S
H999 C983 0.960 . S
C233 C6 2.494 . S
C241 C96 2.499 . S
C265 C18 2.551 . S
C273 C138 2.588 . S
C305 C168 0.941 . S
C297 C28 0.958 . S
C329 C40 0.726 . S
C337 C202 0.636 . S
C369 C159 2.111 . S
C361 C9 2.095 . S
C401 C113 1.847 . S
C393 C16 1.839 . S
C433 C206 1.289 . S
C425 C30 1.293 . S
C465 C172 0.980 . S
C457 C42 0.983 . S
C489 C4 2.115 . S
C497 C227 2.155 . S
C529 C134 1.146 . S
C521 C33 1.120 . S
C553 C45 0.926 . S
C561 C109 0.956 . S
C585 C21 2.396 . S
C593 C193 2.425 . S
C625 C125 2.556 . S
C617 C57 2.548 . S
C649 C66 2.558 . S
C657 C147 2.570 . S
C681 C76 0.983 . S
C689 C177 0.962 . S
C713 C88 0.550 . S
C721 C211 0.619 . S
C745 C54 2.062 . S
C753 C130 2.083 . S
C785 C104 1.882 . S
C777 C64 1.841 . S
C817 C215 1.154 . S
C809 C78 1.161 . S
C849 C181 0.989 . S
C841 C93 0.988 . S
C873 C52 2.083 . S
C881 C198 2.110 . S
C913 C143 1.123 . S
C905 C81 1.145 . S
C945 C100 0.967 . S
C937 C90 0.932 . S
C969 C69 2.445 . S
C977 C164 2.453 . S
