# Generated by pormake.
# Topology eea, (3,6)-cn, num edge types: 1
# Building blocks:
#     Node 0, Type 0, BuildingBlock: BELTOD_clean_linker_0, # of connection points: 3
#     Node 1, Type 0, BuildingBlock: BELTOD_clean_linker_0, # of connection points: 3
#     Node 2, Type 0, BuildingBlock: BELTOD_clean_linker_0, # of connection points: 3
#     Node 3, Type 0, BuildingBlock: BELTOD_clean_linker_0, # of connection points: 3
#     Node 4, Type 0, BuildingBlock: BELTOD_clean_linker_0, # of connection points: 3
#     Node 5, Type 0, BuildingBlock: BELTOD_clean_linker_0, # of connection points: 3
#     Node 6, Type 0, BuildingBlock: BELTOD_clean_linker_0, # of connection points: 3
#     Node 7, Type 0, BuildingBlock: BELTOD_clean_linker_0, # of connection points: 3
#     Node 8, Type 0, BuildingBlock: BELTOD_clean_linker_0, # of connection points: 3
#     Node 9, Type 0, BuildingBlock: BELTOD_clean_linker_0, # of connection points: 3
#     Node 10, Type 0, BuildingBlock: BELTOD_clean_linker_0, # of connection points: 3
#     Node 11, Type 0, BuildingBlock: BELTOD_clean_linker_0, # of connection points: 3
#     Node 12, Type 0, BuildingBlock: BELTOD_clean_linker_0, # of connection points: 3
#     Node 13, Type 0, BuildingBlock: BELTOD_clean_linker_0, # of connection points: 3
#     Node 14, Type 0, BuildingBlock: BELTOD_clean_linker_0, # of connection points: 3
#     Node 15, Type 0, BuildingBlock: BELTOD_clean_linker_0, # of connection points: 3
#     Node 16, Type 0, BuildingBlock: BELTOD_clean_linker_0, # of connection points: 3
#     Node 17, Type 0, BuildingBlock: BELTOD_clean_linker_0, # of connection points: 3
#     Node 18, Type 1, BuildingBlock: KUMBUR_clean_sbu_0, # of connection points: 6
#     Node 19, Type 1, BuildingBlock: KUMBUR_clean_sbu_0, # of connection points: 6
#     Node 20, Type 1, BuildingBlock: KUMBUR_clean_sbu_0, # of connection points: 6
#     Node 21, Type 1, BuildingBlock: KUMBUR_clean_sbu_0, # of connection points: 6
#     Node 22, Type 1, BuildingBlock: KUMBUR_clean_sbu_0, # of connection points: 6
#     Node 23, Type 1, BuildingBlock: KUMBUR_clean_sbu_0, # of connection points: 6
#     Node 24, Type 1, BuildingBlock: KUMBUR_clean_sbu_0, # of connection points: 6
#     Node 25, Type 1, BuildingBlock: KUMBUR_clean_sbu_0, # of connection points: 6
#     Node 26, Type 1, BuildingBlock: KUMBUR_clean_sbu_0, # of connection points: 6
#     Edge 27, Type (0, 1), BuildingBlock: XUDNAN_clean_linker_2, # of connection points: 2
#     Edge 28, Type (0, 1), BuildingBlock: XUDNAN_clean_linker_2, # of connection points: 2
#     Edge 29, Type (0, 1), BuildingBlock: XUDNAN_clean_linker_2, # of connection points: 2
#     Edge 30, Type (0, 1), BuildingBlock: XUDNAN_clean_linker_2, # of connection points: 2
#     Edge 31, Type (0, 1), BuildingBlock: XUDNAN_clean_linker_2, # of connection points: 2
#     Edge 32, Type (0, 1), BuildingBlock: XUDNAN_clean_linker_2, # of connection points: 2
#     Edge 33, Type (0, 1), BuildingBlock: XUDNAN_clean_linker_2, # of connection points: 2
#     Edge 34, Type (0, 1), BuildingBlock: XUDNAN_clean_linker_2, # of connection points: 2
#     Edge 35, Type (0, 1), BuildingBlock: XUDNAN_clean_linker_2, # of connection points: 2
#     Edge 36, Type (0, 1), BuildingBlock: XUDNAN_clean_linker_2, # of connection points: 2
#     Edge 37, Type (0, 1), BuildingBlock: XUDNAN_clean_linker_2, # of connection points: 2
#     Edge 38, Type (0, 1), BuildingBlock: XUDNAN_clean_linker_2, # of connection points: 2
#     Edge 39, Type (0, 1), BuildingBlock: XUDNAN_clean_linker_2, # of connection points: 2
#     Edge 40, Type (0, 1), BuildingBlock: XUDNAN_clean_linker_2, # of connection points: 2
#     Edge 41, Type (0, 1), BuildingBlock: XUDNAN_clean_linker_2, # of connection points: 2
#     Edge 42, Type (0, 1), BuildingBlock: XUDNAN_clean_linker_2, # of connection points: 2
#     Edge 43, Type (0, 1), BuildingBlock: XUDNAN_clean_linker_2, # of connection points: 2
#     Edge 44, Type (0, 1), BuildingBlock: XUDNAN_clean_linker_2, # of connection points: 2
#     Edge 45, Type (0, 1), BuildingBlock: XUDNAN_clean_linker_2, # of connection points: 2
#     Edge 46, Type (0, 1), BuildingBlock: XUDNAN_clean_linker_2, # of connection points: 2
#     Edge 47, Type (0, 1), BuildingBlock: XUDNAN_clean_linker_2, # of connection points: 2
#     Edge 48, Type (0, 1), BuildingBlock: XUDNAN_clean_linker_2, # of connection points: 2
#     Edge 49, Type (0, 1), BuildingBlock: XUDNAN_clean_linker_2, # of connection points: 2
#     Edge 50, Type (0, 1), BuildingBlock: XUDNAN_clean_linker_2, # of connection points: 2
#     Edge 51, Type (0, 1), BuildingBlock: XUDNAN_clean_linker_2, # of connection points: 2
#     Edge 52, Type (0, 1), BuildingBlock: XUDNAN_clean_linker_2, # of connection points: 2
#     Edge 53, Type (0, 1), BuildingBlock: XUDNAN_clean_linker_2, # of connection points: 2
#     Edge 54, Type (0, 1), BuildingBlock: XUDNAN_clean_linker_2, # of connection points: 2
#     Edge 55, Type (0, 1), BuildingBlock: XUDNAN_clean_linker_2, # of connection points: 2
#     Edge 56, Type (0, 1), BuildingBlock: XUDNAN_clean_linker_2, # of connection points: 2
#     Edge 57, Type (0, 1), BuildingBlock: XUDNAN_clean_linker_2, # of connection points: 2
#     Edge 58, Type (0, 1), BuildingBlock: XUDNAN_clean_linker_2, # of connection points: 2
#     Edge 59, Type (0, 1), BuildingBlock: XUDNAN_clean_linker_2, # of connection points: 2
#     Edge 60, Type (0, 1), BuildingBlock: XUDNAN_clean_linker_2, # of connection points: 2
#     Edge 61, Type (0, 1), BuildingBlock: XUDNAN_clean_linker_2, # of connection points: 2
#     Edge 62, Type (0, 1), BuildingBlock: XUDNAN_clean_linker_2, # of connection points: 2
#     Edge 63, Type (0, 1), BuildingBlock: XUDNAN_clean_linker_2, # of connection points: 2
#     Edge 64, Type (0, 1), BuildingBlock: XUDNAN_clean_linker_2, # of connection points: 2
#     Edge 65, Type (0, 1), BuildingBlock: XUDNAN_clean_linker_2, # of connection points: 2
#     Edge 66, Type (0, 1), BuildingBlock: XUDNAN_clean_linker_2, # of connection points: 2
#     Edge 67, Type (0, 1), BuildingBlock: XUDNAN_clean_linker_2, # of connection points: 2
#     Edge 68, Type (0, 1), BuildingBlock: XUDNAN_clean_linker_2, # of connection points: 2
#     Edge 69, Type (0, 1), BuildingBlock: XUDNAN_clean_linker_2, # of connection points: 2
#     Edge 70, Type (0, 1), BuildingBlock: XUDNAN_clean_linker_2, # of connection points: 2
#     Edge 71, Type (0, 1), BuildingBlock: XUDNAN_clean_linker_2, # of connection points: 2
#     Edge 72, Type (0, 1), BuildingBlock: XUDNAN_clean_linker_2, # of connection points: 2
#     Edge 73, Type (0, 1), BuildingBlock: XUDNAN_clean_linker_2, # of connection points: 2
#     Edge 74, Type (0, 1), BuildingBlock: XUDNAN_clean_linker_2, # of connection points: 2
#     Edge 75, Type (0, 1), BuildingBlock: XUDNAN_clean_linker_2, # of connection points: 2
#     Edge 76, Type (0, 1), BuildingBlock: XUDNAN_clean_linker_2, # of connection points: 2
#     Edge 77, Type (0, 1), BuildingBlock: XUDNAN_clean_linker_2, # of connection points: 2
#     Edge 78, Type (0, 1), BuildingBlock: XUDNAN_clean_linker_2, # of connection points: 2
#     Edge 79, Type (0, 1), BuildingBlock: XUDNAN_clean_linker_2, # of connection points: 2
#     Edge 80, Type (0, 1), BuildingBlock: XUDNAN_clean_linker_2, # of connection points: 2
# Relax obj value: 0.008
# Max RMSD: 0.087
# Mean RMSD: 0.067
data_MOF--net-eea--node1-KUMBUR_clean_sbu_0--node2-BELTOD_clean_linker_0--edge1-XUDNAN_clean_linker_2
_symmetry_space_group_name_H-M    P1
_symmetry_Int_Tables_number       1
_symmetry_cell_setting            triclinic
loop_
_symmetry_equiv_pos_as_xyz
'x, y, z'
_cell_length_a     58.616955
_cell_length_b     59.572612
_cell_length_c     81.925523
_cell_angle_alpha  90.736763
_cell_angle_beta   90.171581
_cell_angle_gamma 120.11807
loop_
_atom_site_label
_atom_site_type_symbol
_atom_site_fract_x
_atom_site_fract_y
_atom_site_fract_z
_atom_type_partial_charge
P0 P 0.29469 0.14801 0.4131 0.0
H1 H 0.27724 0.13092 0.37985 0.0
H2 H 0.25322 0.08826 0.36664 0.0
H3 H 0.24494 0.0521 0.41334 0.0
H4 H 0.26956 0.09506 0.42645 0.0
H5 H 0.32156 0.19918 0.39813 0.0
H6 H 0.30519 0.22492 0.38477 0.0
H7 H 0.22565 0.16845 0.39799 0.0
H8 H 0.24194 0.14209 0.41082 0.0
H9 H 0.3332 0.14967 0.43639 0.0
H10 H 0.25764 0.14548 0.43836 0.0
O11 O 0.32536 0.15919 0.40645 0.0
H12 H 0.33596 0.15165 0.46608 0.0
H13 H 0.25999 0.14691 0.46818 0.0
C14 C 0.27483 0.11616 0.40414 0.0
C15 C 0.26997 0.1138 0.38728 0.0
C16 C 0.25613 0.08936 0.37975 0.0
C17 C 0.24699 0.06671 0.38893 0.0
C18 C 0.25186 0.06916 0.4059 0.0
C19 C 0.26576 0.09371 0.41343 0.0
C20 C 0.28297 0.16872 0.4055 0.0
C21 C 0.30063 0.19239 0.39833 0.0
C22 C 0.2913 0.2071 0.39069 0.0
C23 C 0.26421 0.19859 0.39039 0.0
C24 C 0.24665 0.17548 0.39821 0.0
C25 C 0.25596 0.16049 0.40558 0.0
C26 C 0.29549 0.14802 0.43511 0.0
C27 C 0.31712 0.1491 0.4432 0.0
C28 C 0.31856 0.14998 0.46024 0.0
C29 C 0.29824 0.14956 0.46956 0.0
C30 C 0.27619 0.14772 0.46138 0.0
C31 C 0.27479 0.14684 0.4443 0.0
P32 P 0.91092 0.09992 0.432 0.0
H33 H 0.88722 0.04335 0.43013 0.0
H34 H 0.84863 0.0092 0.41574 0.0
H35 H 0.83246 0.06682 0.3961 0.0
H36 H 0.87122 0.10103 0.41071 0.0
H37 H 0.93226 0.0937 0.40158 0.0
H38 H 0.96614 0.12413 0.38336 0.0
H39 H 0.97242 0.18817 0.41242 0.0
H40 H 0.93707 0.15759 0.42974 0.0
H41 H 0.8606 0.08715 0.44792 0.0
H42 H 0.9435 0.14118 0.45529 0.0
O43 O 0.92764 0.08648 0.4396 0.0
H44 H 0.85094 0.10149 0.47368 0.0
H45 H 0.93398 0.15707 0.48032 0.0
C46 C 0.8821 0.07476 0.42148 0.0
C47 C 0.87546 0.04871 0.42271 0.0
C48 C 0.85346 0.02917 0.41435 0.0
C49 C 0.83751 0.03525 0.40468 0.0
C50 C 0.84422 0.06144 0.40352 0.0
C51 C 0.86637 0.08102 0.41183 0.0
C52 C 0.93243 0.12323 0.41726 0.0
C53 C 0.94056 0.11432 0.40383 0.0
C54 C 0.96024 0.13183 0.39352 0.0
C55 C 0.9727 0.15876 0.39659 0.0
C56 C 0.96342 0.16765 0.40958 0.0
C57 C 0.94333 0.15005 0.41973 0.0
C58 C 0.90277 0.11357 0.44937 0.0
C59 C 0.87669 0.1027 0.45478 0.0
C60 C 0.87116 0.11102 0.46959 0.0
C61 C 0.89163 0.13044 0.4793 0.0
C62 C 0.91764 0.14172 0.47349 0.0
C63 C 0.92313 0.13302 0.45892 0.0
P64 P 0.86603 0.73608 0.41186 0.0
H65 H 0.84131 0.72614 0.37983 0.0
H66 H 0.81018 0.73695 0.36746 0.0
H67 H 0.81669 0.78352 0.40996 0.0
H68 H 0.84832 0.77282 0.42225 0.0
H69 H 0.9047 0.7193 0.40942 0.0
H70 H 0.94985 0.73979 0.39957 0.0
H71 H 0.94647 0.80876 0.38822 0.0
H72 H 0.90139 0.78822 0.39866 0.0
H73 H 0.82236 0.72183 0.43431 0.0
H74 H 0.90543 0.74811 0.43798 0.0
O75 O 0.85244 0.70493 0.4062 0.0
H76 H 0.81814 0.71513 0.46375 0.0
H77 H 0.90122 0.74027 0.46713 0.0
C78 C 0.84654 0.74804 0.40215 0.0
C79 C 0.83628 0.73889 0.38645 0.0
C80 C 0.81841 0.74504 0.3794 0.0
C81 C 0.81053 0.76068 0.38786 0.0
C82 C 0.8223 0.77137 0.40315 0.0
C83 C 0.84023 0.76512 0.41023 0.0
C84 C 0.89956 0.7521 0.40459 0.0
C85 C 0.91366 0.73882 0.40477 0.0
C86 C 0.93949 0.75054 0.39901 0.0
C87 C 0.95188 0.77589 0.39289 0.0
C88 C 0.93772 0.7893 0.39294 0.0
C89 C 0.91184 0.77754 0.39881 0.0
C90 C 0.86431 0.73604 0.4339 0.0
C91 C 0.83982 0.72664 0.44148 0.0
C92 C 0.83736 0.72241 0.45833 0.0
C93 C 0.8593 0.727 0.46795 0.0
C94 C 0.88393 0.73691 0.46029 0.0
C95 C 0.88638 0.74136 0.44348 0.0
P96 P 0.12218 0.25648 0.60106 0.0
H97 H 0.08849 0.27839 0.5971 0.0
H98 H 0.04664 0.26887 0.60905 0.0
H99 H 0.03898 0.19951 0.63034 0.0
H100 H 0.0806 0.20859 0.61759 0.0
H101 H 0.16013 0.24336 0.5868 0.0
H102 H 0.18677 0.22645 0.59869 0.0
H103 H 0.14667 0.21551 0.64446 0.0
H104 H 0.12103 0.23374 0.63286 0.0
H105 H 0.16036 0.29956 0.58142 0.0
H106 H 0.09326 0.22341 0.57252 0.0
O107 O 0.13921 0.28582 0.60987 0.0
H108 H 0.16649 0.30646 0.55216 0.0
H109 H 0.09915 0.23027 0.54294 0.0
C110 C 0.08821 0.24472 0.60683 0.0
C111 C 0.07761 0.26082 0.60405 0.0
C112 C 0.05372 0.25544 0.61103 0.0
C113 C 0.03981 0.23385 0.62113 0.0
C114 C 0.04932 0.21646 0.6228 0.0
C115 C 0.07332 0.22182 0.61564 0.0
C116 C 0.13755 0.23875 0.60867 0.0
C117 C 0.15655 0.23682 0.59928 0.0
C118 C 0.17201 0.22741 0.60612 0.0
C119 C 0.16862 0.21953 0.62244 0.0
C120 C 0.14939 0.2211 0.63177 0.0
C121 C 0.13442 0.23115 0.62505 0.0
C122 C 0.12606 0.26111 0.5792 0.0
C123 C 0.14672 0.28436 0.57316 0.0
C124 C 0.15017 0.28835 0.55635 0.0
C125 C 0.13316 0.26906 0.54511 0.0
C126 C 0.11268 0.24553 0.55122 0.0
C127 C 0.10918 0.24161 0.56812 0.0
P128 P 0.82486 0.91295 0.57965 0.0
H129 H 0.84871 0.9424 0.60964 0.0
H130 H 0.84188 0.97356 0.62556 0.0
H131 H 0.78168 0.96416 0.59098 0.0
H132 H 0.78773 0.93242 0.57574 0.0
H133 H 0.85734 0.88851 0.58279 0.0
H134 H 0.85225 0.85182 0.59879 0.0
H135 H 0.78203 0.84479 0.62059 0.0
H136 H 0.78744 0.88175 0.60475 0.0
H137 H 0.8203 0.93477 0.54899 0.0
H138 H 0.77901 0.86076 0.57273 0.0
O139 O 0.85537 0.92974 0.57234 0.0
H140 H 0.78916 0.91696 0.52594 0.0
H141 H 0.74808 0.84298 0.54981 0.0
C142 C 0.81876 0.93504 0.59151 0.0
C143 C 0.83389 0.94694 0.60561 0.0
C144 C 0.8301 0.96491 0.61462 0.0
C145 C 0.81119 0.97142 0.6096 0.0
C146 C 0.79607 0.95932 0.59543 0.0
C147 C 0.79972 0.94124 0.58654 0.0
C148 C 0.82284 0.8879 0.59268 0.0
C149 C 0.84114 0.8794 0.59124 0.0
C150 C 0.83828 0.85851 0.60042 0.0
C151 C 0.81676 0.84552 0.61092 0.0
C152 C 0.79876 0.85445 0.61256 0.0
C153 C 0.80187 0.87557 0.60357 0.0
C154 C 0.80218 0.89913 0.56256 0.0
C155 C 0.80464 0.91469 0.54922 0.0
C156 C 0.78672 0.90456 0.53613 0.0
C157 C 0.7662 0.87856 0.53607 0.0
C158 C 0.76385 0.86301 0.54944 0.0
C159 C 0.78157 0.87324 0.5626 0.0
P160 P 0.12685 0.86174 0.60354 0.0
H161 H 0.11516 0.88606 0.63121 0.0
H162 H 0.13732 0.93026 0.64211 0.0
H163 H 0.19062 0.95535 0.60129 0.0
H164 H 0.16869 0.91068 0.59068 0.0
H165 H 0.11337 0.83566 0.63465 0.0
H166 H 0.07185 0.80437 0.64703 0.0
H167 H 0.02912 0.80913 0.60545 0.0
H168 H 0.07112 0.84088 0.59307 0.0
H169 H 0.14229 0.83275 0.58168 0.0
H170 H 0.10941 0.8829 0.57701 0.0
O171 O 0.14836 0.85351 0.61058 0.0
H172 H 0.14492 0.83051 0.55207 0.0
H173 H 0.11179 0.88052 0.5471 0.0
C174 C 0.13979 0.8951 0.60989 0.0
C175 C 0.13123 0.90108 0.62439 0.0
C176 C 0.144 0.9265 0.63064 0.0
C177 C 0.16576 0.9465 0.62256 0.0
C178 C 0.1741 0.94045 0.60791 0.0
C179 C 0.16132 0.91496 0.6017 0.0
C180 C 0.09544 0.8401 0.61274 0.0
C181 C 0.09512 0.83004 0.62815 0.0
C182 C 0.07133 0.81213 0.63524 0.0
C183 C 0.04718 0.80394 0.62711 0.0
C184 C 0.04739 0.81505 0.61201 0.0
C185 C 0.07139 0.83304 0.60487 0.0
C186 C 0.12601 0.85832 0.58157 0.0
C187 C 0.13554 0.84325 0.57428 0.0
C188 C 0.13714 0.84205 0.55732 0.0
C189 C 0.1289 0.85562 0.54725 0.0
C190 C 0.11829 0.86987 0.55455 0.0
C191 C 0.11696 0.87127 0.57161 0.0
P192 P 0.9442 0.47395 0.74738 0.0
H193 H 0.95389 0.44295 0.72331 0.0
H194 H 0.93015 0.39671 0.71622 0.0
H195 H 0.87187 0.38383 0.75271 0.0
H196 H 0.89596 0.43011 0.75985 0.0
H197 H 0.94449 0.52154 0.75716 0.0
H198 H 0.92013 0.54215 0.74729 0.0
H199 H 0.88043 0.48032 0.71142 0.0
H200 H 0.90418 0.45953 0.72167 0.0
H201 H 0.98844 0.48114 0.76763 0.0
H202 H 0.91243 0.47438 0.77493 0.0
O203 O 0.97317 0.48855 0.7379 0.0
H204 H 0.99689 0.48662 0.79705 0.0
H205 H 0.92056 0.47949 0.80443 0.0
C206 C 0.92694 0.43984 0.74232 0.0
C207 C 0.93608 0.43016 0.72984 0.0
C208 C 0.92234 0.40375 0.72569 0.0
C209 C 0.89914 0.38657 0.73393 0.0
C210 C 0.88987 0.39648 0.74629 0.0
C211 C 0.90362 0.42292 0.7504 0.0
C212 C 0.92554 0.48859 0.74051 0.0
C213 C 0.93022 0.51224 0.74735 0.0
C214 C 0.91647 0.52414 0.74157 0.0
C215 C 0.89811 0.51277 0.72865 0.0
C216 C 0.89391 0.48929 0.72165 0.0
C217 C 0.90757 0.47738 0.72749 0.0
C218 C 0.9501 0.47799 0.76909 0.0
C219 C 0.9736 0.48092 0.77558 0.0
C220 C 0.9783 0.48382 0.79241 0.0
C221 C 0.95945 0.48363 0.80309 0.0
C222 C 0.93566 0.48017 0.79653 0.0
C223 C 0.93097 0.4772 0.77967 0.0
P224 P 0.57973 0.43905 0.76467 0.0
H225 H 0.55707 0.38256 0.76228 0.0
H226 H 0.51888 0.34826 0.74754 0.0
H227 H 0.50271 0.40573 0.72762 0.0
H228 H 0.54076 0.4399 0.74265 0.0
H229 H 0.61761 0.44352 0.74002 0.0
H230 H 0.64673 0.47836 0.72189 0.0
H231 H 0.61639 0.52611 0.74122 0.0
H232 H 0.58611 0.49052 0.7582 0.0
H233 H 0.52964 0.41952 0.78259 0.0
H234 H 0.60893 0.48465 0.78582 0.0
O235 O 0.59776 0.42678 0.77191 0.0
H236 H 0.5174 0.43634 0.80649 0.0
H237 H 0.59667 0.50174 0.80941 0.0
C238 C 0.55181 0.41382 0.75351 0.0
C239 C 0.54539 0.38782 0.75468 0.0
C240 C 0.52363 0.3682 0.74613 0.0
C241 C 0.50771 0.37418 0.73633 0.0
C242 C 0.51436 0.40036 0.73516 0.0
C243 C 0.53617 0.41996 0.74369 0.0
C244 C 0.60023 0.46466 0.75082 0.0
C245 C 0.61718 0.46149 0.74024 0.0
C246 C 0.63403 0.4816 0.72995 0.0
C247 C 0.6344 0.50545 0.73011 0.0
C248 C 0.61668 0.50811 0.74047 0.0
C249 C 0.59951 0.4878 0.75048 0.0
C250 C 0.57001 0.45129 0.78205 0.0
C251 C 0.54436 0.43754 0.78831 0.0
C252 C 0.53742 0.44704 0.80205 0.0
C253 C 0.556 0.47051 0.80971 0.0
C254 C 0.58181 0.48384 0.80362 0.0
C255 C 0.58881 0.47412 0.7901 0.0
P256 P 0.54324 0.09542 0.74934 0.0
H257 H 0.4884 0.0749 0.75729 0.0
H258 H 0.45381 0.08207 0.74662 0.0
H259 H 0.51056 0.14318 0.71625 0.0
H260 H 0.5456 0.13619 0.72737 0.0
H261 H 0.55311 0.09116 0.71512 0.0
H262 H 0.59297 0.10016 0.70043 0.0
H263 H 0.64013 0.13935 0.74318 0.0
H264 H 0.60001 0.13038 0.75789 0.0
H265 H 0.52271 0.1119 0.77743 0.0
H266 H 0.5741 0.08053 0.76967 0.0
O267 O 0.52844 0.06381 0.74468 0.0
H268 H 0.52289 0.10469 0.80676 0.0
H269 H 0.57499 0.07407 0.79902 0.0
C270 C 0.51963 0.10499 0.74319 0.0
C271 C 0.49362 0.09025 0.7486 0.0
C272 C 0.47377 0.09425 0.74238 0.0
C273 C 0.4793 0.11295 0.73039 0.0
C274 C 0.50566 0.12868 0.7255 0.0
C275 C 0.5257 0.12464 0.73182 0.0
C276 C 0.57344 0.10971 0.73768 0.0
C277 C 0.57206 0.10236 0.72122 0.0
C278 C 0.59487 0.10741 0.71285 0.0
C279 C 0.61966 0.12011 0.72072 0.0
C280 C 0.62133 0.12954 0.73678 0.0
C281 C 0.59835 0.12431 0.74522 0.0
C282 C 0.54849 0.09685 0.77124 0.0
C283 C 0.53447 0.10395 0.78199 0.0
C284 C 0.53449 0.09974 0.7988 0.0
C285 C 0.54885 0.08869 0.80522 0.0
C286 C 0.56392 0.08283 0.79451 0.0
C287 C 0.56351 0.08663 0.77771 0.0
P288 P 0.79883 0.59145 0.93252 0.0
H289 H 0.76702 0.61597 0.9357 0.0
H290 H 0.72656 0.60475 0.95012 0.0
H291 H 0.71969 0.53209 0.96439 0.0
H292 H 0.76033 0.54331 0.94948 0.0
H293 H 0.83938 0.61104 0.95807 0.0
H294 H 0.86514 0.59401 0.97065 0.0
H295 H 0.82277 0.52368 0.94158 0.0
H296 H 0.79677 0.54098 0.92897 0.0
H297 H 0.76546 0.5962 0.90765 0.0
H298 H 0.83075 0.58213 0.9087 0.0
O299 O 0.8165 0.62341 0.93607 0.0
H300 H 0.77056 0.60287 0.87836 0.0
H301 H 0.83505 0.58725 0.87925 0.0
C302 C 0.76699 0.5807 0.94166 0.0
C303 C 0.75676 0.59748 0.94177 0.0
C304 C 0.73365 0.5911 0.95015 0.0
C305 C 0.72015 0.56776 0.95874 0.0
C306 C 0.72966 0.55026 0.95795 0.0
C307 C 0.75296 0.55671 0.94948 0.0
C308 C 0.81647 0.5775 0.94231 0.0
C309 C 0.83558 0.59197 0.95432 0.0
C310 C 0.85042 0.58223 0.9615 0.0
C311 C 0.8463 0.55762 0.95699 0.0
C312 C 0.82643 0.5427 0.94536 0.0
C313 C 0.81163 0.55258 0.93809 0.0
C314 C 0.79733 0.5881 0.91048 0.0
C315 C 0.78025 0.5935 0.90152 0.0
C316 C 0.7832 0.59732 0.88464 0.0
C317 C 0.80342 0.59588 0.87628 0.0
C318 C 0.81958 0.58906 0.88521 0.0
C319 C 0.81682 0.5856 0.90212 0.0
P320 P 0.47846 0.23537 0.90973 0.0
H321 H 0.51824 0.28838 0.91949 0.0
H322 H 0.51504 0.32394 0.93224 0.0
H323 H 0.43071 0.27368 0.93654 0.0
H324 H 0.43407 0.23853 0.92319 0.0
H325 H 0.49116 0.19433 0.90583 0.0
H326 H 0.49173 0.16311 0.92469 0.0
H327 H 0.46246 0.19226 0.96296 0.0
H328 H 0.46225 0.22357 0.94413 0.0
H329 H 0.46642 0.25827 0.88252 0.0
H330 H 0.43401 0.18218 0.90322 0.0
O331 O 0.50728 0.24819 0.90013 0.0
H332 H 0.43295 0.24043 0.86085 0.0
H333 H 0.40036 0.1642 0.88161 0.0
C334 C 0.47633 0.26098 0.92021 0.0
C335 C 0.49907 0.28504 0.92318 0.0
C336 C 0.49722 0.30532 0.9306 0.0
C337 C 0.47258 0.30178 0.93535 0.0
C338 C 0.44993 0.27729 0.93275 0.0
C339 C 0.45181 0.25711 0.92521 0.0
C340 C 0.47701 0.21149 0.92361 0.0
C341 C 0.48477 0.19391 0.91827 0.0
C342 C 0.4849 0.17595 0.92903 0.0
C343 C 0.47727 0.17531 0.94535 0.0
C344 C 0.46881 0.19254 0.95053 0.0
C345 C 0.4686 0.21042 0.93973 0.0
C346 C 0.45281 0.22157 0.89439 0.0
C347 C 0.45198 0.23773 0.88244 0.0
C348 C 0.43273 0.22754 0.87013 0.0
C349 C 0.41397 0.2009 0.86953 0.0
C350 C 0.4147 0.18476 0.88166 0.0
C351 C 0.43393 0.19504 0.89405 0.0
P352 P 0.80391 0.19983 0.93826 0.0
H353 H 0.81722 0.21923 0.97156 0.0
H354 H 0.8405 0.26285 0.98378 0.0
H355 H 0.855 0.29596 0.93577 0.0
H356 H 0.83095 0.2521 0.92352 0.0
H357 H 0.76034 0.14755 0.93189 0.0
H358 H 0.71575 0.12288 0.94267 0.0
H359 H 0.72852 0.19079 0.97015 0.0
H360 H 0.77217 0.21554 0.95852 0.0
H361 H 0.8394 0.19173 0.91729 0.0
H362 H 0.77451 0.20557 0.91099 0.0
O363 O 0.8172 0.18338 0.94634 0.0
H364 H 0.84141 0.18678 0.88787 0.0
H365 H 0.77691 0.20157 0.88131 0.0
C366 C 0.82213 0.23239 0.94666 0.0
C367 C 0.82537 0.23585 0.96364 0.0
C368 C 0.83863 0.26075 0.97061 0.0
C369 C 0.84944 0.28272 0.9607 0.0
C370 C 0.84688 0.27929 0.94365 0.0
C371 C 0.83308 0.25426 0.93666 0.0
C372 C 0.76979 0.18333 0.94446 0.0
C373 C 0.75331 0.15721 0.94002 0.0
C374 C 0.72789 0.14302 0.9464 0.0
C375 C 0.71849 0.15461 0.95757 0.0
C376 C 0.73483 0.18112 0.96153 0.0
C377 C 0.76011 0.19535 0.95497 0.0
C378 C 0.80648 0.19852 0.91634 0.0
C379 C 0.82569 0.19392 0.90953 0.0
C380 C 0.82697 0.19134 0.89262 0.0
C381 C 0.80924 0.19363 0.8821 0.0
C382 C 0.79057 0.19918 0.889 0.0
C383 C 0.78924 0.20163 0.90598 0.0
P384 P 0.61088 0.80774 0.08145 0.0
H385 H 0.64162 0.78478 0.07006 0.0
H386 H 0.6296 0.74146 0.06013 0.0
H387 H 0.54707 0.71727 0.06509 0.0
H388 H 0.55938 0.76118 0.07479 0.0
H389 H 0.58269 0.83124 0.09771 0.0
H390 H 0.55813 0.85104 0.08688 0.0
H391 H 0.57038 0.83223 0.03783 0.0
H392 H 0.59434 0.8117 0.04874 0.0
H393 H 0.65439 0.82781 0.10506 0.0
H394 H 0.56951 0.78255 0.10605 0.0
O395 O 0.64118 0.82867 0.07504 0.0
H396 H 0.65629 0.82514 0.13458 0.0
H397 H 0.5711 0.78061 0.13588 0.0
C398 C 0.60139 0.77624 0.07294 0.0
C399 C 0.62093 0.7703 0.06881 0.0
C400 C 0.61401 0.74544 0.06324 0.0
C401 C 0.58737 0.72587 0.0619 0.0
C402 C 0.56775 0.732 0.06583 0.0
C403 C 0.57474 0.757 0.07142 0.0
C404 C 0.58982 0.8194 0.07404 0.0
C405 C 0.5795 0.83065 0.08466 0.0
C406 C 0.56556 0.8421 0.07847 0.0
C407 C 0.56235 0.8431 0.06153 0.0
C408 C 0.57263 0.83175 0.05093 0.0
C409 C 0.58614 0.81989 0.05715 0.0
C410 C 0.61177 0.80592 0.10339 0.0
C411 C 0.63609 0.81755 0.11166 0.0
C412 C 0.63713 0.81609 0.12862 0.0
C413 C 0.61384 0.80297 0.13772 0.0
C414 C 0.58946 0.79076 0.1293 0.0
C415 C 0.58847 0.79206 0.11226 0.0
P416 P 0.24089 0.78629 0.10081 0.0
H417 H 0.21501 0.72972 0.10242 0.0
H418 H 0.18013 0.69471 0.08606 0.0
H419 H 0.16937 0.75091 0.05943 0.0
H420 H 0.20445 0.786 0.07596 0.0
H421 H 0.28219 0.84094 0.10575 0.0
H422 H 0.31655 0.87218 0.08785 0.0
H423 H 0.28424 0.81665 0.0479 0.0
H424 H 0.25032 0.78558 0.06577 0.0
H425 H 0.22219 0.7652 0.13288 0.0
H426 H 0.23402 0.83191 0.10603 0.0
O427 O 0.25842 0.77383 0.10859 0.0
H428 H 0.20965 0.78102 0.15693 0.0
H429 H 0.22184 0.84816 0.13024 0.0
C430 C 0.21277 0.76051 0.09012 0.0
C431 C 0.20503 0.73455 0.09316 0.0
C432 C 0.18493 0.71449 0.08386 0.0
C433 C 0.17217 0.72004 0.07131 0.0
C434 C 0.17913 0.74605 0.06883 0.0
C435 C 0.19908 0.76609 0.07829 0.0
C436 C 0.26288 0.8112 0.08701 0.0
C437 C 0.28191 0.83581 0.093 0.0
C438 C 0.30163 0.85366 0.08276 0.0
C439 C 0.30308 0.84693 0.06642 0.0
C440 C 0.28372 0.82243 0.06041 0.0
C441 C 0.26402 0.80471 0.07062 0.0
C442 C 0.22979 0.79775 0.11783 0.0
C443 C 0.22208 0.78328 0.13216 0.0
C444 C 0.21476 0.79227 0.14589 0.0
C445 C 0.21503 0.81599 0.14555 0.0
C446 C 0.22189 0.83004 0.13095 0.0
C447 C 0.22888 0.8208 0.11712 0.0
P448 P 0.21275 0.41898 0.08025 0.0
H449 H 0.17188 0.402 0.05486 0.0
H450 H 0.14546 0.42009 0.0446 0.0
H451 H 0.1868 0.48608 0.07735 0.0
H452 H 0.2132 0.46764 0.08771 0.0
H453 H 0.25188 0.40265 0.08024 0.0
H454 H 0.29564 0.42044 0.06857 0.0
H455 H 0.28987 0.48504 0.04996 0.0
H456 H 0.24658 0.46767 0.06243 0.0
H457 H 0.17021 0.40787 0.10285 0.0
H458 H 0.25137 0.42677 0.10629 0.0
O459 O 0.19756 0.388 0.074 0.0
H460 H 0.16531 0.40019 0.13216 0.0
H461 H 0.24635 0.41799 0.13536 0.0
C462 C 0.19436 0.43336 0.07217 0.0
C463 C 0.17531 0.42034 0.05988 0.0
C464 C 0.16012 0.43067 0.05405 0.0
C465 C 0.16389 0.45443 0.06024 0.0
C466 C 0.1835 0.46779 0.07228 0.0
C467 C 0.19852 0.45726 0.07825 0.0
C468 C 0.24593 0.43383 0.07235 0.0
C469 C 0.26018 0.42083 0.07382 0.0
C470 C 0.28516 0.43091 0.06692 0.0
C471 C 0.29639 0.45412 0.05809 0.0
C472 C 0.28211 0.4673 0.0568 0.0
C473 C 0.25717 0.45729 0.0639 0.0
C474 C 0.21123 0.41822 0.1023 0.0
C475 C 0.18712 0.41076 0.10994 0.0
C476 C 0.18424 0.406 0.12671 0.0
C477 C 0.20535 0.40822 0.13623 0.0
C478 C 0.22971 0.41638 0.12857 0.0
C479 C 0.2326 0.4213 0.1118 0.0
P480 P 0.4656 0.92793 0.2723 0.0
H481 H 0.4472 0.94382 0.30077 0.0
H482 H 0.40366 0.93261 0.31056 0.0
H483 H 0.36768 0.87614 0.27139 0.0
H484 H 0.4118 0.88763 0.26145 0.0
H485 H 0.51066 0.92513 0.2602 0.0
H486 H 0.53433 0.90409 0.27043 0.0
H487 H 0.47512 0.86635 0.30734 0.0
H488 H 0.45141 0.88745 0.29696 0.0
H489 H 0.48706 0.97546 0.25346 0.0
H490 H 0.44921 0.89322 0.24321 0.0
O491 O 0.4858 0.95642 0.28144 0.0
H492 H 0.49436 0.98426 0.2244 0.0
H493 H 0.45599 0.90205 0.21379 0.0
C494 C 0.43287 0.91704 0.28011 0.0
C495 C 0.43007 0.92899 0.29422 0.0
C496 C 0.40509 0.92257 0.29984 0.0
C497 C 0.38222 0.90377 0.29162 0.0
C498 C 0.38496 0.89074 0.27796 0.0
C499 C 0.41015 0.89739 0.27222 0.0
C500 C 0.47893 0.90743 0.27756 0.0
C501 C 0.50235 0.91177 0.27021 0.0
C502 C 0.51607 0.89999 0.27621 0.0
C503 C 0.50673 0.88368 0.28978 0.0
C504 C 0.48272 0.87861 0.29678 0.0
C505 C 0.46908 0.8906 0.29081 0.0
C506 C 0.46775 0.93365 0.25057 0.0
C507 C 0.48008 0.95922 0.24497 0.0
C508 C 0.48435 0.96428 0.22832 0.0
C509 C 0.47601 0.94387 0.21684 0.0
C510 C 0.46261 0.91816 0.22238 0.0
C511 C 0.45869 0.9131 0.23915 0.0
P512 P 0.15247 0.57659 0.25333 0.0
H513 H 0.15957 0.58895 0.28833 0.0
H514 H 0.15412 0.62001 0.30525 0.0
H515 H 0.12699 0.64291 0.26301 0.0
H516 H 0.13198 0.61158 0.24619 0.0
H517 H 0.18483 0.55195 0.25576 0.0
H518 H 0.17967 0.51454 0.27084 0.0
H519 H 0.10691 0.50369 0.29107 0.0
H520 H 0.11221 0.54118 0.27593 0.0
H521 H 0.15515 0.60177 0.22254 0.0
H522 H 0.10424 0.5274 0.2441 0.0
O523 O 0.18379 0.5942 0.24749 0.0
H524 H 0.12776 0.58757 0.19772 0.0
H525 H 0.07722 0.51303 0.21924 0.0
C526 C 0.14554 0.59736 0.26603 0.0
C527 C 0.15183 0.60016 0.28275 0.0
C528 C 0.14879 0.61797 0.29243 0.0
C529 C 0.14006 0.63379 0.28544 0.0
C530 C 0.13382 0.631 0.26869 0.0
C531 C 0.13653 0.61294 0.25908 0.0
C532 C 0.14899 0.54944 0.26483 0.0
C533 C 0.16789 0.54168 0.26355 0.0
C534 C 0.165 0.52038 0.27224 0.0
C535 C 0.14295 0.50625 0.2822 0.0
C536 C 0.12405 0.51413 0.28345 0.0
C537 C 0.12708 0.53556 0.27485 0.0
C538 C 0.13191 0.56566 0.23518 0.0
C539 C 0.13812 0.5824 0.22195 0.0
C540 C 0.12241 0.57433 0.20781 0.0
C541 C 0.10042 0.54918 0.20656 0.0
C542 C 0.0942 0.53245 0.21984 0.0
C543 C 0.10967 0.5407 0.23409 0.0
P544 P 0.46148 0.52398 0.26421 0.0
H545 H 0.49594 0.53923 0.29271 0.0
H546 H 0.52177 0.57999 0.30762 0.0
H547 H 0.49162 0.61671 0.27586 0.0
H548 H 0.46595 0.57546 0.26063 0.0
H549 H 0.42562 0.46836 0.2625 0.0
H550 H 0.38483 0.4394 0.27643 0.0
H551 H 0.38509 0.50543 0.29903 0.0
H552 H 0.42586 0.53459 0.28454 0.0
H553 H 0.50001 0.56372 0.24282 0.0
H554 H 0.42592 0.49215 0.23729 0.0
O555 O 0.47784 0.50813 0.26722 0.0
H556 H 0.50608 0.56503 0.21334 0.0
H557 H 0.4322 0.49313 0.20776 0.0
C558 C 0.47938 0.5544 0.27538 0.0
C559 C 0.49488 0.55601 0.28887 0.0
C560 C 0.50954 0.57937 0.29749 0.0
C561 C 0.50881 0.60171 0.29297 0.0
C562 C 0.49291 0.59998 0.27953 0.0
C563 C 0.47813 0.57642 0.27088 0.0
C564 C 0.42894 0.50365 0.2725 0.0
C565 C 0.4167 0.47672 0.27019 0.0
C566 C 0.39346 0.46014 0.27833 0.0
C567 C 0.38195 0.47005 0.28917 0.0
C568 C 0.39346 0.49716 0.29082 0.0
C569 C 0.41682 0.51385 0.28255 0.0
C570 C 0.46213 0.52822 0.24236 0.0
C571 C 0.48456 0.54873 0.23526 0.0
C572 C 0.48812 0.54938 0.21836 0.0
C573 C 0.46964 0.52915 0.2082 0.0
C574 C 0.44686 0.50893 0.21527 0.0
C575 C 0.44315 0.50849 0.23219 0.0
Tb576 Tb 0.49645 0.98959 0.98773 0.0
C577 C 0.54898 0.07269 0.04022 0.0
C578 C 0.59488 0.08494 0.03718 0.0
C579 C 0.58348 0.11696 0.04643 0.0
C580 C 0.56782 0.06619 0.03586 0.0
C581 C 0.55667 0.09784 0.04616 0.0
C582 C 0.60255 0.11054 0.04189 0.0
C583 C 0.51118 0.08243 0.05313 0.0
N584 N 0.52322 0.05375 0.03987 0.0
C585 C 0.50448 0.05782 0.04702 0.0
C586 C 0.53728 0.10269 0.05235 0.0
Tb587 Tb 0.51473 0.01485 0.02894 0.0
N588 N 0.5597 0.04108 0.03165 0.0
C589 C 0.57785 0.03303 0.03052 0.0
C590 C 0.61345 0.07716 0.03446 0.0
C591 C 0.60487 0.051 0.03153 0.0
H592 H 0.48425 0.04234 0.04764 0.0
H593 H 0.61909 0.04463 0.02998 0.0
H594 H 0.62323 0.12526 0.04273 0.0
H595 H 0.49619 0.08579 0.05836 0.0
H596 H 0.5721 0.01304 0.02832 0.0
H597 H 0.39357 0.96265 0.9846 0.0
H598 H 0.6344 0.09098 0.03527 0.0
H599 H 0.52707 0.95868 0.97509 0.0
H600 H 0.44108 0.99257 0.98843 0.0
H601 H 0.51504 0.91463 0.9654 0.0
H602 H 0.58974 0.13652 0.05071 0.0
H603 H 0.377 0.91657 0.97723 0.0
H604 H 0.38713 0.88135 0.96983 0.0
H605 H 0.54241 0.12174 0.0571 0.0
H606 H 0.42021 0.86826 0.96454 0.0
N607 N 0.45177 0.96373 0.98382 0.0
C608 C 0.43437 0.97259 0.98522 0.0
C609 C 0.39799 0.92964 0.97892 0.0
C610 C 0.41598 0.921 0.97663 0.0
C611 C 0.40727 0.95564 0.98306 0.0
C612 C 0.44305 0.9388 0.9791 0.0
H613 H 0.46803 0.88062 0.9627 0.0
N614 N 0.48728 0.94954 0.97824 0.0
C615 C 0.49976 0.91906 0.96845 0.0
C616 C 0.46149 0.93142 0.9762 0.0
C617 C 0.5065 0.94402 0.9739 0.0
C618 C 0.47321 0.89991 0.96698 0.0
C619 C 0.45366 0.90606 0.97066 0.0
O620 O 0.51725 0.99818 0.96556 0.0
O621 O 0.5264 0.01863 1.00368 0.0
O622 O 0.50834 0.04324 0.01613 0.0
O623 O 0.4878 0.02123 0.99174 0.0
O624 O 0.53871 0.0031 0.98598 0.0
O625 O 0.48568 0.00629 0.96896 0.0
O626 O 0.49486 0.98211 0.04398 0.0
O627 O 0.4844 0.98731 0.0128 0.0
O628 O 0.49792 0.96037 1.00291 0.0
O629 O 0.52785 0.98702 0.02304 0.0
O630 O 0.47323 0.00475 0.02983 0.0
O631 O 0.52385 0.01842 0.05421 0.0
C632 C 0.54683 0.0204 0.99743 0.0
C633 C 0.49362 0.99777 0.94194 0.0
C634 C 0.49711 0.00653 0.91261 0.0
C635 C 0.50634 0.01439 0.92879 0.0
C636 C 0.47508 0.98168 0.90986 0.0
C637 C 0.47172 0.97315 0.93883 0.0
C638 C 0.46257 0.96517 0.92288 0.0
C639 C 0.49616 0.04126 1.00206 0.0
C640 C 0.50296 0.0067 0.95881 0.0
C641 C 0.42668 0.88793 0.96867 0.0
C642 C 0.40785 0.89538 0.97167 0.0
C643 C 0.46429 0.9869 0.01862 0.0
C644 C 0.48856 0.99084 0.07135 0.0
C645 C 0.49463 0.9851 0.08687 0.0
C646 C 0.47779 0.98079 0.10025 0.0
C647 C 0.45502 0.98263 0.09785 0.0
C648 C 0.46561 0.99243 0.06939 0.0
C649 C 0.44909 0.98846 0.08256 0.0
C650 C 0.51467 0.96458 0.015 0.0
C651 C 0.50605 0.99474 0.05735 0.0
H652 H 0.52311 0.03355 0.93121 0.0
H653 H 0.46772 0.9748 0.8976 0.0
H654 H 0.46159 0.96015 0.94871 0.0
H655 H 0.44568 0.94608 0.92059 0.0
H656 H 0.51223 0.98369 0.08846 0.0
H657 H 0.44199 0.98006 0.10789 0.0
H658 H 0.46025 0.99673 0.05777 0.0
H659 H 0.43163 0.99005 0.08094 0.0
Tb660 Tb 0.02058 0.50947 0.99122 0.0
C661 C 0.93028 0.48117 0.0397 0.0
C662 C 0.91739 0.51325 0.03494 0.0
C663 C 0.88517 0.47063 0.04476 0.0
C664 C 0.93654 0.50555 0.0347 0.0
C665 C 0.90471 0.46356 0.04515 0.0
C666 C 0.8915 0.49544 0.03963 0.0
C667 C 0.92033 0.43428 0.05217 0.0
N668 N 0.94971 0.47518 0.0399 0.0
C669 C 0.9454 0.45245 0.0466 0.0
C670 C 0.89979 0.43971 0.05124 0.0
Tb671 Tb 0.99 0.50587 0.03036 0.0
N672 N 0.96182 0.52216 0.03042 0.0
C673 C 0.96971 0.54762 0.02755 0.0
C674 C 0.92503 0.5388 0.03095 0.0
C675 C 0.95141 0.55617 0.02751 0.0
H676 H 0.9611 0.448 0.04726 0.0
H677 H 0.95769 0.57615 0.02475 0.0
H678 H 0.87642 0.5009 0.03975 0.0
H679 H 0.91687 0.41609 0.05712 0.0
H680 H 0.98992 0.56139 0.02474 0.0
H681 H 0.04983 0.43686 0.9971 0.0
H682 H 0.91091 0.54549 0.03091 0.0
H683 H 0.05089 0.56564 0.97254 0.0
H684 H 0.01859 0.45275 0.99626 0.0
H685 H 0.09602 0.59699 0.96357 0.0
H686 H 0.86531 0.45729 0.04875 0.0
H687 H 0.09743 0.46708 0.99303 0.0
H688 H 0.13352 0.51184 0.98564 0.0
H689 H 0.88041 0.42563 0.05557 0.0
H690 H 0.14621 0.55574 0.97638 0.0
N691 N 0.04795 0.49217 0.99201 0.0
C692 C 0.03916 0.46638 0.99433 0.0
C693 C 0.08374 0.47427 0.99259 0.0
C694 C 0.0924 0.50021 0.98908 0.0
C695 C 0.0569 0.45716 0.99486 0.0
C696 C 0.07373 0.50854 0.98871 0.0
H697 H 0.13219 0.58752 0.96771 0.0
N698 N 0.06167 0.53924 0.98221 0.0
C699 C 0.09209 0.57915 0.96931 0.0
C700 C 0.08087 0.53305 0.98359 0.0
C701 C 0.06655 0.56133 0.97435 0.0
C702 C 0.11247 0.57379 0.97172 0.0
C703 C 0.10687 0.5502 0.9786 0.0
O704 O 0.01149 0.51671 0.96765 0.0
O705 O 0.9894 0.51046 1.0044 0.0
O706 O 0.96172 0.47181 0.01622 0.0
O707 O 0.98935 0.46929 0.99666 0.0
O708 O 0.00489 0.53515 0.98545 0.0
O709 O 0.00698 0.47959 0.9735 0.0
O710 O 0.99985 0.4989 0.0538 0.0
O711 O 0.02138 0.50515 0.01721 0.0
O712 O 0.04792 0.54518 1.00462 0.0
O713 O 0.0204 0.54613 0.02503 0.0
O714 O 0.00514 0.47968 0.03574 0.0
O715 O 0.00418 0.53602 0.04784 0.0
C716 C 0.98697 0.52708 0.99642 0.0
C717 C 0.01928 0.49428 0.94656 0.0
C718 C 0.01959 0.4951 0.91674 0.0
C719 C 0.00758 0.49473 0.93168 0.0
C720 C 0.04363 0.49515 0.91698 0.0
C721 C 0.04314 0.49413 0.94649 0.0
C722 C 0.05524 0.49463 0.93176 0.0
C723 C 0.96663 0.45918 1.00458 0.0
C724 C 0.00641 0.49416 0.96198 0.0
C725 C 0.12602 0.54273 0.97995 0.0
C726 C 0.11879 0.51773 0.98521 0.0
C727 C 0.02341 0.48816 0.02501 0.0
C728 C 0.99531 0.523 0.07536 0.0
C729 C 0.00809 0.52129 0.08941 0.0
C730 C 0.99978 0.52397 0.10503 0.0
C731 C 0.97834 0.52819 0.10644 0.0
C732 C 0.97366 0.52683 0.07697 0.0
C733 C 0.96525 0.52939 0.09247 0.0
C734 C 0.04259 0.55704 0.01658 0.0
C735 C 0.00574 0.52181 0.05927 0.0
H736 H 0.98894 0.49444 0.93179 0.0
H737 H 0.05367 0.49591 0.90574 0.0
H738 H 0.05239 0.49355 0.95775 0.0
H739 H 0.07372 0.49466 0.93181 0.0
H740 H 0.02492 0.51849 0.08817 0.0
H741 H 0.97155 0.53025 0.11835 0.0
H742 H 0.96349 0.52816 0.06631 0.0
H743 H 0.94864 0.53247 0.09366 0.0
Tb744 Tb 0.51361 0.491 0.02231 0.0
C745 C 0.47142 0.55023 0.98273 0.0
C746 C 0.42408 0.52255 0.9834 0.0
C747 C 0.44327 0.56929 0.98147 0.0
C748 C 0.44966 0.52592 0.98386 0.0
C749 C 0.4686 0.57223 0.98109 0.0
C750 C 0.42101 0.54444 0.98264 0.0
C751 C 0.51571 0.59777 0.97731 0.0
N752 N 0.49537 0.55206 0.98225 0.0
C753 C 0.51741 0.5753 0.97898 0.0
C754 C 0.49123 0.5963 0.9786 0.0
Tb755 Tb 0.49657 0.51455 0.98567 0.0
N756 N 0.4536 0.50541 0.98434 0.0
C757 C 0.43259 0.4807 0.983 0.0
C758 C 0.40246 0.49728 0.98315 0.0
C759 C 0.40677 0.47627 0.98265 0.0
H760 H 0.53644 0.57666 0.97813 0.0
H761 H 0.39022 0.45663 0.98209 0.0
H762 H 0.40154 0.54232 0.98246 0.0
H763 H 0.53329 0.61621 0.97511 0.0
H764 H 0.4355 0.4642 0.98274 0.0
H765 H 0.6189 0.54201 0.03363 0.0
H766 H 0.38246 0.49381 0.98287 0.0
H767 H 0.46931 0.42778 0.02431 0.0
H768 H 0.57516 0.53768 0.03053 0.0
H769 H 0.46922 0.38665 0.02602 0.0
H770 H 0.44066 0.58597 0.98041 0.0
H771 H 0.62374 0.50313 0.03177 0.0
H772 H 0.60193 0.4545 0.02935 0.0
H773 H 0.48995 0.61371 0.97727 0.0
H774 H 0.56098 0.41204 0.02779 0.0
N775 N 0.55516 0.4969 0.02604 0.0
C776 C 0.57682 0.52053 0.02952 0.0
C777 C 0.60443 0.50113 0.03027 0.0
C778 C 0.58195 0.47674 0.02796 0.0
C779 C 0.60176 0.52309 0.03137 0.0
C780 C 0.55731 0.47529 0.02606 0.0
H781 H 0.51134 0.38658 0.02715 0.0
N782 N 0.5113 0.45139 0.02428 0.0
C783 C 0.48775 0.4048 0.02582 0.0
C784 C 0.53449 0.45161 0.02532 0.0
C785 C 0.48794 0.42833 0.02493 0.0
C786 C 0.51156 0.40483 0.02641 0.0
C787 C 0.53535 0.42843 0.02623 0.0
O788 O 0.49189 0.47798 0.04397 0.0
O789 O 0.48637 0.49979 0.01003 0.0
O790 O 0.50736 0.54418 1.00511 0.0
O791 O 0.53277 0.53365 0.02215 0.0
O792 O 0.47046 0.46822 0.02438 0.0
O793 O 0.52929 0.51351 0.04381 0.0
O794 O 0.51629 0.52652 0.96326 0.0
O795 O 0.52474 0.50868 0.99886 0.0
O796 O 0.51013 0.4662 1.00148 0.0
O797 O 0.48031 0.47213 0.98599 0.0
O798 O 0.53927 0.53626 0.98132 0.0
O799 O 0.47943 0.49064 0.96488 0.0
C800 C 0.46473 0.4822 0.01541 0.0
C801 C 0.51591 0.4912 0.06875 0.0
C802 C 0.51437 0.49408 0.09852 0.0
C803 C 0.50939 0.50033 0.08288 0.0
C804 C 0.52611 0.47854 0.09974 0.0
C805 C 0.52766 0.47583 0.07023 0.0
C806 C 0.53273 0.46957 0.08568 0.0
C807 C 0.52467 0.54975 0.01723 0.0
C808 C 0.50956 0.49742 0.05267 0.0
C809 C 0.55987 0.42963 0.02727 0.0
C810 C 0.58317 0.45379 0.02812 0.0
C811 C 0.54568 0.52448 0.99176 0.0
C812 C 0.48954 0.51212 0.93959 0.0
C813 C 0.4999 0.50873 0.92487 0.0
C814 C 0.49314 0.51529 0.90987 0.0
C815 C 0.47552 0.52482 0.9098 0.0
C816 C 0.47192 0.52155 0.93922 0.0
C817 C 0.46489 0.52775 0.92437 0.0
C818 C 0.4922 0.45884 0.98968 0.0
C819 C 0.49799 0.50656 0.95522 0.0
H820 H 0.5 0.51195 0.08165 0.0
H821 H 0.53051 0.47361 0.11156 0.0
H822 H 0.53275 0.4686 0.05948 0.0
H823 H 0.54184 0.45771 0.08678 0.0
H824 H 0.51375 0.50171 0.92514 0.0
H825 H 0.46993 0.52995 0.89844 0.0
H826 H 0.46375 0.52426 0.95039 0.0
H827 H 0.45132 0.53507 0.92416 0.0
Tb828 Tb 0.1565 0.31203 0.31835 0.0
C829 C 0.20789 0.40575 0.36469 0.0
C830 C 0.25481 0.42201 0.36484 0.0
C831 C 0.23835 0.45204 0.36787 0.0
C832 C 0.22865 0.4013 0.36324 0.0
C833 C 0.21235 0.43105 0.36734 0.0
C834 C 0.25959 0.44751 0.36667 0.0
C835 C 0.16528 0.41258 0.37017 0.0
N836 N 0.18317 0.3849 0.3642 0.0
C837 C 0.16192 0.38781 0.36762 0.0
C838 C 0.19058 0.43434 0.3698 0.0
Tb839 Tb 0.17943 0.34543 0.35819 0.0
N840 N 0.22308 0.37638 0.3616 0.0
C841 C 0.2428 0.37063 0.36331 0.0
C842 C 0.27523 0.41633 0.36527 0.0
C843 C 0.26913 0.39047 0.36489 0.0
H844 H 0.14227 0.37114 0.36769 0.0
H845 H 0.28469 0.38578 0.36571 0.0
H846 H 0.27956 0.46375 0.36766 0.0
H847 H 0.14836 0.41486 0.37235 0.0
H848 H 0.23852 0.35077 0.36302 0.0
H849 H 0.05064 0.2693 0.32296 0.0
H850 H 0.29562 0.43165 0.36648 0.0
H851 H 0.19076 0.28901 0.30001 0.0
H852 H 0.09661 0.30495 0.32242 0.0
H853 H 0.18437 0.24644 0.29118 0.0
H854 H 0.24225 0.47171 0.36971 0.0
H855 H 0.0402 0.22399 0.31833 0.0
H856 H 0.05627 0.19315 0.31071 0.0
H857 H 0.19313 0.45349 0.37181 0.0
H858 H 0.09292 0.18685 0.30197 0.0
N859 N 0.11268 0.2803 0.31802 0.0
C860 C 0.09258 0.2854 0.32029 0.0
C861 C 0.06052 0.23962 0.31807 0.0
C862 C 0.08096 0.2347 0.31456 0.0
C863 C 0.06633 0.26517 0.32063 0.0
C864 C 0.10705 0.25576 0.31451 0.0
H865 H 0.14085 0.20675 0.29433 0.0
N866 N 0.15168 0.27349 0.30886 0.0
C867 C 0.16819 0.24773 0.29651 0.0
C868 C 0.12741 0.25221 0.30974 0.0
C869 C 0.17175 0.27183 0.30155 0.0
C870 C 0.14363 0.22537 0.29835 0.0
C871 C 0.12266 0.22751 0.3047 0.0
O872 O 0.17535 0.32649 0.29592 0.0
O873 O 0.18732 0.3424 0.33299 0.0
O874 O 0.17527 0.37075 0.34071 0.0
O875 O 0.14215 0.33882 0.32447 0.0
O876 O 0.19855 0.33079 0.31244 0.0
O877 O 0.13698 0.32135 0.30032 0.0
O878 O 0.15999 0.33784 0.38077 0.0
O879 O 0.14987 0.3127 0.34423 0.0
O880 O 0.16954 0.28929 0.33224 0.0
O881 O 0.19421 0.31824 0.35385 0.0
O882 O 0.13664 0.32708 0.36203 0.0
O883 O 0.19365 0.33288 0.37761 0.0
C884 C 0.20715 0.34678 0.32462 0.0
C885 C 0.14776 0.31711 0.27301 0.0
C886 C 0.15255 0.32397 0.24346 0.0
C887 C 0.15844 0.33376 0.25966 0.0
C888 C 0.13547 0.2971 0.24099 0.0
C889 C 0.13073 0.29051 0.27021 0.0
C890 C 0.12459 0.28062 0.25426 0.0
C891 C 0.15569 0.36302 0.33002 0.0
C892 C 0.15565 0.32775 0.28971 0.0
C893 C 0.09698 0.20608 0.30559 0.0
C894 C 0.07613 0.20967 0.31055 0.0
C895 C 0.12924 0.30856 0.35145 0.0
C896 C 0.18599 0.34346 0.40423 0.0
C897 C 0.17521 0.32814 0.41817 0.0
C898 C 0.18432 0.33864 0.43401 0.0
C899 C 0.20451 0.36478 0.43551 0.0
C900 C 0.20587 0.36945 0.40613 0.0
C901 C 0.21507 0.37999 0.42169 0.0
C902 C 0.18626 0.2967 0.34485 0.0
C903 C 0.17625 0.33203 0.38784 0.0
H904 H 0.17135 0.35434 0.26198 0.0
H905 H 0.13085 0.28862 0.22882 0.0
H906 H 0.12238 0.2774 0.28031 0.0
H907 H 0.11159 0.26002 0.25217 0.0
H908 H 0.15954 0.30816 0.41662 0.0
H909 H 0.21252 0.37347 0.44736 0.0
H910 H 0.21433 0.38156 0.3956 0.0
H911 H 0.23057 0.40004 0.42306 0.0
Tb912 Tb 0.67649 0.83208 0.32781 0.0
C913 C 0.57891 0.79197 0.3716 0.0
C914 C 0.56348 0.822 0.36678 0.0
C915 C 0.5322 0.7774 0.37379 0.0
C916 C 0.58402 0.81621 0.36744 0.0
C917 C 0.5531 0.77237 0.37533 0.0
C918 C 0.5374 0.80224 0.3695 0.0
C919 C 0.57118 0.74574 0.38374 0.0
N920 N 0.59973 0.78825 0.37319 0.0
C921 C 0.59643 0.766 0.38001 0.0
C922 C 0.54932 0.74876 0.38111 0.0
Tb923 Tb 0.64034 0.82138 0.36571 0.0
N924 N 0.6095 0.83461 0.36515 0.0
C925 C 0.616 0.86001 0.36364 0.0
C926 C 0.56992 0.84762 0.36401 0.0
C927 C 0.59637 0.86679 0.36273 0.0
H928 H 0.61323 0.76359 0.38223 0.0
H929 H 0.60168 0.8868 0.36096 0.0
H930 H 0.52127 0.80618 0.36884 0.0
H931 H 0.56863 0.72787 0.38868 0.0
H932 H 0.63622 0.87517 0.36251 0.0
H933 H 0.71113 0.76364 0.32003 0.0
H934 H 0.55475 0.85291 0.36333 0.0
H935 H 0.70749 0.89585 0.31922 0.0
H936 H 0.67762 0.77654 0.3214 0.0
H937 H 0.7533 0.93112 0.31623 0.0
H938 H 0.51215 0.76253 0.3764 0.0
H939 H 0.75842 0.79673 0.32194 0.0
H940 H 0.79319 0.84376 0.32232 0.0
H941 H 0.52981 0.73315 0.38412 0.0
H942 H 0.80471 0.88944 0.32123 0.0
N943 N 0.70525 0.81678 0.32587 0.0
C944 C 0.69799 0.79139 0.32286 0.0
C945 C 0.74372 0.80262 0.32288 0.0
C946 C 0.75112 0.82884 0.32411 0.0
C947 C 0.71705 0.78389 0.3218 0.0
C948 C 0.7312 0.83547 0.32537 0.0
H949 H 0.78997 0.9221 0.31857 0.0
N950 N 0.71789 0.86688 0.32385 0.0
C951 C 0.74918 0.91159 0.31854 0.0
C952 C 0.73773 0.8613 0.32431 0.0
C953 C 0.72316 0.89142 0.32011 0.0
C954 C 0.76984 0.90644 0.31996 0.0
C955 C 0.76424 0.88099 0.32248 0.0
O956 O 0.6476 0.81684 0.30896 0.0
O957 O 0.64324 0.83058 0.34 0.0
O958 O 0.61749 0.78707 0.34996 0.0
O959 O 0.64951 0.7901 0.33133 0.0
O960 O 0.6633 0.86025 0.32429 0.0
O961 O 0.68834 0.83355 0.30339 0.0
O962 O 0.64877 0.81376 0.38935 0.0
O963 O 0.67196 0.82072 0.35274 0.0
O964 O 0.70115 0.86259 0.3458 0.0
O965 O 0.66894 0.86257 0.36217 0.0
O966 O 0.65794 0.79766 0.37257 0.0
O967 O 0.653 0.85087 0.38361 0.0
C968 C 0.6427 0.84923 0.33328 0.0
C969 C 0.66167 0.83849 0.28384 0.0
C970 C 0.64966 0.84014 0.2554 0.0
C971 C 0.65204 0.82626 0.26852 0.0
C972 C 0.65614 0.86608 0.25809 0.0
C973 C 0.66898 0.86469 0.2859 0.0
C974 C 0.6658 0.87822 0.2732 0.0
C975 C 0.62602 0.77719 0.33843 0.0
C976 C 0.66476 0.82404 0.29737 0.0
C977 C 0.78421 0.87454 0.32246 0.0
C978 C 0.77765 0.84852 0.32314 0.0
C979 C 0.67539 0.80528 0.36137 0.0
C980 C 0.6439 0.83742 0.41104 0.0
C981 C 0.65754 0.8369 0.42498 0.0
C982 C 0.64946 0.83963 0.44064 0.0
C983 C 0.62733 0.84272 0.44222 0.0
C984 C 0.62152 0.84002 0.41277 0.0
C985 C 0.61332 0.84265 0.42834 0.0
C986 C 0.69331 0.8738 0.35667 0.0
C987 C 0.65442 0.8365 0.39496 0.0
H988 H 0.64715 0.80627 0.26672 0.0
H989 H 0.65388 0.87711 0.24845 0.0
H990 H 0.67744 0.87497 0.2972 0.0
H991 H 0.67114 0.89831 0.27502 0.0
H992 H 0.67494 0.83505 0.42363 0.0
H993 H 0.62076 0.84489 0.45418 0.0
H994 H 0.61067 0.84036 0.40214 0.0
H995 H 0.59616 0.84484 0.42965 0.0
Tb996 Tb 0.17902 0.83862 0.35932 0.0
C997 C 0.0904 0.81168 0.31512 0.0
C998 C 0.07817 0.77481 0.29713 0.0
C999 C 0.04436 0.78322 0.30751 0.0
C1000 C 0.09735 0.79645 0.30614 0.0
C1001 C 0.0639 0.80578 0.31548 0.0
C1002 C 0.05149 0.7677 0.29834 0.0
C1003 C 0.07858 0.84678 0.32936 0.0
N1004 N 0.11003 0.83374 0.32209 0.0
C1005 C 0.10458 0.85182 0.32855 0.0
C1006 C 0.05808 0.82344 0.32307 0.0
Tb1007 Tb 0.15216 0.84053 0.32007 0.0
N1008 N 0.12336 0.80444 0.30497 0.0
C1009 C 0.13176 0.79354 0.29335 0.0
C1010 C 0.08657 0.762 0.28642 0.0
C1011 C 0.11353 0.77181 0.28424 0.0
H1012 H 0.12006 0.87003 0.33345 0.0
H1013 H 0.12025 0.76288 0.27536 0.0
H1014 H 0.03639 0.75096 0.29167 0.0
H1015 H 0.0744 0.86092 0.33487 0.0
H1016 H 0.15257 0.80134 0.29134 0.0
H1017 H 0.28411 0.90467 0.35515 0.0
H1018 H 0.07249 0.74537 0.2792 0.0
H1019 H 0.14771 0.78116 0.37713 0.0
H1020 H 0.23741 0.89249 0.35607 0.0
H1021 H 0.15672 0.74635 0.38452 0.0
H1022 H 0.02385 0.77818 0.3078 0.0
H1023 H 0.29691 0.87117 0.35797 0.0
H1024 H 0.28321 0.82466 0.36376 0.0
H1025 H 0.038 0.8197 0.3236 0.0
H1026 H 0.24823 0.78116 0.37178 0.0
N1027 N 0.22329 0.85207 0.35879 0.0
C1028 C 0.24247 0.87751 0.35727 0.0
C1029 C 0.27626 0.86562 0.3583 0.0
C1030 C 0.25673 0.83992 0.361 0.0
C1031 C 0.26912 0.88459 0.35678 0.0
C1032 C 0.23018 0.83382 0.36135 0.0
H1033 H 0.20094 0.75186 0.37991 0.0
N1034 N 0.18597 0.80563 0.36742 0.0
C1035 C 0.17206 0.76397 0.37914 0.0
C1036 C 0.21075 0.80962 0.36591 0.0
C1037 C 0.16702 0.78377 0.37491 0.0
C1038 C 0.19701 0.76711 0.37647 0.0
C1039 C 0.21696 0.79045 0.37018 0.0
O1040 O 0.15949 0.83474 0.38166 0.0
O1041 O 0.14683 0.83881 0.34614 0.0
O1042 O 0.16382 0.87736 0.33303 0.0
O1043 O 0.19144 0.87919 0.35412 0.0
O1044 O 0.13736 0.81142 0.36358 0.0
O1045 O 0.19939 0.86467 0.37881 0.0
O1046 O 0.14746 0.86727 0.30592 0.0
O1047 O 0.18763 0.8515 0.3344 0.0
O1048 O 0.17036 0.80354 0.34528 0.0
O1049 O 0.13946 0.79993 0.32557 0.0
O1050 O 0.18411 0.83438 0.31202 0.0
O1051 O 0.17372 0.85429 0.29828 0.0
C1052 C 0.12753 0.82034 0.35326 0.0
C1053 C 0.18661 0.84669 0.40502 0.0
C1054 C 0.18035 0.84306 0.43466 0.0
C1055 C 0.17514 0.85003 0.41925 0.0
C1056 C 0.1971 0.83248 0.43543 0.0
C1057 C 0.20362 0.8366 0.40625 0.0
C1058 C 0.20871 0.82946 0.42136 0.0
C1059 C 0.1809 0.88995 0.34505 0.0
C1060 C 0.18015 0.85312 0.38897 0.0
C1061 C 0.24307 0.79572 0.36875 0.0
C1062 C 0.26297 0.82048 0.36418 0.0
C1063 C 0.19945 0.84447 0.32446 0.0
C1064 C 0.14792 0.85804 0.27766 0.0
C1065 C 0.16237 0.85875 0.26375 0.0
C1066 C 0.14951 0.84871 0.2486 0.0
C1067 C 0.12208 0.83833 0.24749 0.0
C1068 C 0.12052 0.84774 0.27614 0.0
C1069 C 0.10777 0.838 0.26115 0.0
C1070 C 0.15188 0.7904 0.33406 0.0
C1071 C 0.16111 0.86592 0.29388 0.0
H1072 H 0.16238 0.85825 0.41827 0.0
H1073 H 0.20105 0.82618 0.4469 0.0
H1074 H 0.21292 0.83417 0.39554 0.0
H1075 H 0.22161 0.8214 0.42216 0.0
H1076 H 0.18343 0.86632 0.26485 0.0
H1077 H 0.11171 0.83069 0.23598 0.0
H1078 H 0.10877 0.84677 0.28656 0.0
H1079 H 0.08666 0.82997 0.26014 0.0
Tb1080 Tb 0.81685 0.64299 0.65281 0.0
C1081 C 0.87798 0.74046 0.69439 0.0
C1082 C 0.92323 0.74969 0.69478 0.0
C1083 C 0.91402 0.78514 0.69639 0.0
C1084 C 0.89595 0.7318 0.69339 0.0
C1085 C 0.88685 0.76718 0.69626 0.0
C1086 C 0.93216 0.7764 0.69581 0.0
C1087 C 0.84161 0.7563 0.70002 0.0
N1088 N 0.85184 0.72253 0.6948 0.0
C1089 C 0.83375 0.72999 0.69845 0.0
C1090 C 0.86822 0.77499 0.69868 0.0
Tb1091 Tb 0.84183 0.68041 0.69054 0.0
N1092 N 0.88665 0.70577 0.69282 0.0
C1093 C 0.90336 0.69651 0.69583 0.0
C1094 C 0.94064 0.74018 0.69604 0.0
C1095 C 0.93059 0.71349 0.69703 0.0
H1096 H 0.81309 0.71587 0.6995 0.0
H1097 H 0.9438 0.70596 0.69878 0.0
H1098 H 0.95305 0.79042 0.6967 0.0
H1099 H 0.82714 0.76213 0.70232 0.0
H1100 H 0.89613 0.67609 0.69703 0.0
H1101 H 0.71317 0.61239 0.64878 0.0
H1102 H 0.96173 0.75328 0.69707 0.0
H1103 H 0.84809 0.61002 0.64578 0.0
H1104 H 0.76067 0.64385 0.65043 0.0
H1105 H 0.83671 0.56455 0.64223 0.0
H1106 H 0.9212 0.80576 0.69766 0.0
H1107 H 0.69738 0.5653 0.64777 0.0
H1108 H 0.70838 0.52958 0.64604 0.0
H1109 H 0.87427 0.79535 0.70009 0.0
H1110 H 0.74208 0.51652 0.64421 0.0
N1111 N 0.77213 0.61513 0.65083 0.0
C1112 C 0.75427 0.62346 0.64995 0.0
C1113 C 0.71835 0.57908 0.6485 0.0
C1114 C 0.73676 0.5707 0.64838 0.0
C1115 C 0.72719 0.60562 0.64902 0.0
C1116 C 0.7638 0.58947 0.64946 0.0
H1117 H 0.79003 0.52947 0.64262 0.0
N1118 N 0.80824 0.60119 0.6485 0.0
C1119 C 0.82125 0.56924 0.64392 0.0
C1120 C 0.78256 0.5822 0.64821 0.0
C1121 C 0.8276 0.59511 0.64587 0.0
C1122 C 0.7949 0.54949 0.6442 0.0
C1123 C 0.77512 0.55586 0.64613 0.0
O1124 O 0.8362 0.64817 0.63043 0.0
O1125 O 0.85008 0.67457 0.66575 0.0
O1126 O 0.83804 0.70522 0.67238 0.0
O1127 O 0.80769 0.67448 0.6539 0.0
O1128 O 0.85819 0.65402 0.64898 0.0
O1129 O 0.80264 0.6536 0.63237 0.0
O1130 O 0.82505 0.65215 0.70885 0.0
O1131 O 0.8088 0.65033 0.6774 0.0
O1132 O 0.81796 0.61848 0.67197 0.0
O1133 O 0.85255 0.64989 0.68797 0.0
O1134 O 0.80095 0.67192 0.69336 0.0
O1135 O 0.85231 0.69163 0.71523 0.0
C1136 C 0.86871 0.67307 0.6592 0.0
C1137 C 0.81135 0.64171 0.6064 0.0
C1138 C 0.81403 0.64664 0.57667 0.0
C1139 C 0.82054 0.6575 0.5926 0.0
C1140 C 0.79761 0.61953 0.57497 0.0
C1141 C 0.79495 0.61486 0.60439 0.0
C1142 C 0.78806 0.60388 0.58871 0.0
C1143 C 0.82085 0.69832 0.66016 0.0
C1144 C 0.82028 0.65372 0.62269 0.0
C1145 C 0.74823 0.53689 0.6457 0.0
C1146 C 0.72906 0.54432 0.64675 0.0
C1147 C 0.79016 0.65254 0.68326 0.0
C1148 C 0.82049 0.66656 0.73495 0.0
C1149 C 0.82378 0.65643 0.74964 0.0
C1150 C 0.80846 0.65426 0.76345 0.0
C1151 C 0.78956 0.66215 0.76216 0.0
C1152 C 0.80174 0.67454 0.73407 0.0
C1153 C 0.78628 0.67218 0.74758 0.0
C1154 C 0.83701 0.62541 0.683 0.0
C1155 C 0.8368 0.66857 0.72075 0.0
H1156 H 0.83286 0.6783 0.59437 0.0
H1157 H 0.79253 0.61023 0.56303 0.0
H1158 H 0.78776 0.60242 0.61488 0.0
H1159 H 0.77556 0.58308 0.5872 0.0
H1160 H 0.83821 0.65017 0.75027 0.0
H1161 H 0.77773 0.6612 0.77254 0.0
H1162 H 0.7991 0.68273 0.72303 0.0
H1163 H 0.77186 0.67842 0.74682 0.0
Tb1164 Tb 0.34298 0.17124 0.66018 0.0
C1165 C 0.24522 0.13757 0.70387 0.0
C1166 C 0.23242 0.16981 0.69957 0.0
C1167 C 0.19937 0.12598 0.70694 0.0
C1168 C 0.25181 0.16241 0.69987 0.0
C1169 C 0.219 0.11908 0.70772 0.0
C1170 C 0.20607 0.15133 0.70285 0.0
C1171 C 0.23393 0.08894 0.71372 0.0
N1172 N 0.26477 0.13175 0.70443 0.0
C1173 C 0.25964 0.10801 0.70985 0.0
C1174 C 0.21345 0.09439 0.71249 0.0
Tb1175 Tb 0.30623 0.16393 0.6974 0.0
N1176 N 0.27745 0.17955 0.69673 0.0
C1177 C 0.28527 0.20509 0.69426 0.0
C1178 C 0.24017 0.1956 0.6962 0.0
C1179 C 0.26678 0.21338 0.69372 0.0
H1180 H 0.27519 0.10341 0.71076 0.0
H1181 H 0.27308 0.23347 0.69131 0.0
H1182 H 0.19084 0.15656 0.70254 0.0
H1183 H 0.22993 0.07003 0.71763 0.0
H1184 H 0.30563 0.21916 0.69218 0.0
H1185 H 0.37682 0.10196 0.65882 0.0
H1186 H 0.22588 0.20205 0.69575 0.0
H1187 H 0.37371 0.23348 0.65026 0.0
H1188 H 0.34378 0.11587 0.65986 0.0
H1189 H 0.4194 0.26864 0.64583 0.0
H1190 H 0.17906 0.11201 0.70973 0.0
H1191 H 0.42428 0.13464 0.65735 0.0
H1192 H 0.4594 0.18146 0.65442 0.0
H1193 H 0.19356 0.07961 0.71553 0.0
H1194 H 0.47107 0.22699 0.65101 0.0
N1195 N 0.37216 0.15626 0.65982 0.0
C1196 C 0.3644 0.13044 0.65936 0.0
C1197 C 0.40986 0.14091 0.65792 0.0
C1198 C 0.41759 0.16722 0.65722 0.0
C1199 C 0.38309 0.12242 0.65872 0.0
C1200 C 0.398 0.17431 0.65811 0.0
H1201 H 0.45624 0.25971 0.64768 0.0
N1202 N 0.3846 0.20505 0.65523 0.0
C1203 C 0.41548 0.24932 0.64862 0.0
C1204 C 0.40447 0.19966 0.6557 0.0
C1205 C 0.38959 0.22931 0.65107 0.0
C1206 C 0.43623 0.24423 0.64973 0.0
C1207 C 0.43081 0.21902 0.65296 0.0
O1208 O 0.33915 0.18216 0.63643 0.0
O1209 O 0.31011 0.17146 0.67166 0.0
O1210 O 0.28063 0.13193 0.68112 0.0
O1211 O 0.31118 0.13015 0.66349 0.0
O1212 O 0.32774 0.19719 0.65361 0.0
O1213 O 0.33112 0.14334 0.64125 0.0
O1214 O 0.31449 0.15625 0.72103 0.0
O1215 O 0.33811 0.16201 0.68562 0.0
O1216 O 0.36887 0.20126 0.67805 0.0
O1217 O 0.33657 0.20432 0.69255 0.0
O1218 O 0.31963 0.13679 0.70407 0.0
O1219 O 0.31809 0.19319 0.71544 0.0
C1220 C 0.30832 0.1883 0.66351 0.0
C1221 C 0.34695 0.16005 0.61504 0.0
C1222 C 0.34822 0.15997 0.58521 0.0
C1223 C 0.33555 0.15967 0.59986 0.0
C1224 C 0.37261 0.16076 0.58604 0.0
C1225 C 0.3712 0.16072 0.61556 0.0
C1226 C 0.38394 0.16111 0.60113 0.0
C1227 C 0.28708 0.12 0.66982 0.0
C1228 C 0.33314 0.15965 0.63011 0.0
C1229 C 0.45067 0.21239 0.65301 0.0
C1230 C 0.44403 0.18648 0.65498 0.0
C1231 C 0.33816 0.14411 0.69363 0.0
C1232 C 0.3063 0.17789 0.74241 0.0
C1233 C 0.31697 0.17417 0.75676 0.0
C1234 C 0.3062 0.17428 0.77203 0.0
C1235 C 0.28442 0.17806 0.77279 0.0
C1236 C 0.28429 0.18126 0.7433 0.0
C1237 C 0.27343 0.18133 0.75846 0.0
C1238 C 0.36135 0.21406 0.68793 0.0
C1239 C 0.31894 0.17853 0.72682 0.0
H1240 H 0.31663 0.1588 0.5995 0.0
H1241 H 0.38313 0.16146 0.57504 0.0
H1242 H 0.38027 0.16086 0.62704 0.0
H1243 H 0.40271 0.16173 0.60163 0.0
H1244 H 0.33411 0.17176 0.75606 0.0
H1245 H 0.27579 0.17825 0.78443 0.0
H1246 H 0.27565 0.18404 0.73237 0.0
H1247 H 0.25654 0.18405 0.75912 0.0
Tb1248 Tb 0.84096 0.16069 0.69301 0.0
C1249 C 0.78437 0.20454 0.65062 0.0
C1250 C 0.73857 0.17092 0.6497 0.0
C1251 C 0.75029 0.21605 0.64721 0.0
C1252 C 0.76552 0.17882 0.65152 0.0
C1253 C 0.77712 0.22352 0.6481 0.0
C1254 C 0.73102 0.18973 0.64793 0.0
C1255 C 0.8233 0.2552 0.64563 0.0
N1256 N 0.80995 0.21072 0.65112 0.0
C1257 C 0.82941 0.23557 0.64799 0.0
C1258 C 0.79705 0.24923 0.64594 0.0
Tb1259 Tb 0.81846 0.17767 0.65604 0.0
N1260 N 0.7738 0.16139 0.65285 0.0
C1261 C 0.75603 0.13548 0.65091 0.0
C1262 C 0.72018 0.14437 0.64902 0.0
C1263 C 0.72902 0.12658 0.64928 0.0
H1264 H 0.84983 0.24067 0.64771 0.0
H1265 H 0.71506 0.10599 0.64827 0.0
H1266 H 0.7104 0.18407 0.64668 0.0
H1267 H 0.83887 0.27492 0.64357 0.0
H1268 H 0.76234 0.12135 0.65106 0.0
H1269 H 0.94324 0.23371 0.70288 0.0
H1270 H 0.69928 0.13746 0.6477 0.0
H1271 H 0.81085 0.09661 0.69651 0.0
H1272 H 0.89561 0.21731 0.70014 0.0
H1273 H 0.82329 0.06275 0.69737 0.0
H1274 H 0.74429 0.23034 0.64542 0.0
H1275 H 0.96042 0.20339 0.70087 0.0
H1276 H 0.95083 0.15723 0.69866 0.0
H1277 H 0.79235 0.26443 0.64401 0.0
H1278 H 0.91807 0.11053 0.69718 0.0
N1279 N 0.88562 0.17798 0.69612 0.0
C1280 C 0.90266 0.20373 0.6993 0.0
C1281 C 0.93942 0.19603 0.69966 0.0
C1282 C 0.92171 0.16947 0.69757 0.0
C1283 C 0.92979 0.21318 0.70086 0.0
C1284 C 0.89461 0.16098 0.69598 0.0
H1285 H 0.87036 0.07505 0.69691 0.0
N1286 N 0.85048 0.12785 0.69509 0.0
C1287 C 0.83843 0.08299 0.69683 0.0
C1288 C 0.87634 0.1349 0.69546 0.0
C1289 C 0.83146 0.10227 0.69642 0.0
C1290 C 0.86501 0.09 0.6965 0.0
C1291 C 0.88439 0.11627 0.69611 0.0
O1292 O 0.82211 0.14284 0.71487 0.0
O1293 O 0.80933 0.16209 0.68036 0.0
O1294 O 0.82058 0.20467 0.67522 0.0
O1295 O 0.84889 0.20101 0.69405 0.0
O1296 O 0.79909 0.13114 0.69505 0.0
O1297 O 0.8518 0.1834 0.71454 0.0
O1298 O 0.84072 0.19174 0.63463 0.0
O1299 O 0.85029 0.17714 0.66912 0.0
O1300 O 0.84105 0.13679 0.67255 0.0
O1301 O 0.80796 0.13656 0.65674 0.0
O1302 O 0.86003 0.208 0.65457 0.0
O1303 O 0.80621 0.1538 0.63489 0.0
C1304 C 0.78979 0.14189 0.68576 0.0
C1305 C 0.8466 0.1615 0.73923 0.0
C1306 C 0.84687 0.16384 0.7691 0.0
C1307 C 0.83667 0.16564 0.75386 0.0
C1308 C 0.86724 0.15785 0.76936 0.0
C1309 C 0.86684 0.15551 0.73979 0.0
C1310 C 0.87709 0.15372 0.7548 0.0
C1311 C 0.83625 0.21263 0.68834 0.0
C1312 C 0.83584 0.16402 0.72355 0.0
C1313 C 0.91143 0.12452 0.69681 0.0
C1314 C 0.93007 0.1511 0.69763 0.0
C1315 C 0.8696 0.19799 0.66424 0.0
C1316 C 0.8193 0.17451 0.60936 0.0
C1317 C 0.83124 0.16865 0.59644 0.0
C1318 C 0.82728 0.1732 0.58009 0.0
C1319 C 0.81045 0.18319 0.57699 0.0
C1320 C 0.80264 0.18444 0.60601 0.0
C1321 C 0.79817 0.18862 0.58985 0.0
C1322 C 0.82231 0.12615 0.66124 0.0
C1323 C 0.82547 0.17085 0.62617 0.0
H1324 H 0.82124 0.1706 0.75334 0.0
H1325 H 0.87531 0.15593 0.78082 0.0
H1326 H 0.87471 0.15226 0.72867 0.0
H1327 H 0.89269 0.14903 0.75517 0.0
H1328 H 0.84369 0.16054 0.59924 0.0
H1329 H 0.80715 0.18737 0.56467 0.0
H1330 H 0.79332 0.18909 0.61584 0.0
H1331 H 0.7854 0.19643 0.58729 0.0
H1332 H 0.32653 0.90007 0.06269 0.0
H1333 H 0.33196 0.83294 0.04726 0.0
H1334 H 0.37136 0.86115 0.03122 0.0
H1335 H 0.34925 0.9352 0.02373 0.0
H1336 H 0.36749 0.96648 0.03377 0.0
H1337 H 0.33835 0.94088 0.0431 0.0
H1338 H 0.36539 0.94557 0.06936 0.0
H1339 H 0.39437 0.97124 0.06005 0.0
H1340 H 0.39484 0.94328 0.06782 0.0
H1341 H 0.41268 0.89651 0.01967 0.0
H1342 H 0.45242 0.93675 0.01228 0.0
H1343 H 0.41994 0.98179 0.03314 0.0
C1344 C 0.33589 0.89133 0.05579 0.0
C1345 C 0.32598 0.86422 0.05612 0.0
C1346 C 0.33884 0.85354 0.04697 0.0
C1347 C 0.36131 0.86942 0.03785 0.0
C1348 C 0.37062 0.896 0.03783 0.0
C1349 C 0.35826 0.90693 0.04643 0.0
C1350 C 0.37305 0.93623 0.04474 0.0
C1351 C 0.35601 0.94522 0.0358 0.0
C1352 C 0.38247 0.94987 0.06149 0.0
C1353 C 0.39607 0.94006 0.03432 0.0
C1354 C 0.39413 0.91653 0.03045 0.0
C1355 C 0.41402 0.91501 0.02219 0.0
C1356 C 0.43658 0.93813 0.01788 0.0
C1357 C 0.43895 0.96256 0.02138 0.0
C1358 C 0.41828 0.96341 0.02971 0.0
H1359 H 0.11024 0.42804 0.05569 0.0
H1360 H 0.17948 0.50439 0.05138 0.0
H1361 H 0.15137 0.52141 0.04112 0.0
H1362 H 0.07662 0.43036 0.01972 0.0
H1363 H 0.0442 0.41378 0.02854 0.0
H1364 H 0.06934 0.40715 0.0356 0.0
H1365 H 0.06417 0.41886 0.06528 0.0
H1366 H 0.0384 0.42485 0.05866 0.0
H1367 H 0.06662 0.44972 0.06973 0.0
H1368 H 0.11522 0.52991 0.03125 0.0
H1369 H 0.07405 0.5295 0.02381 0.0
H1370 H 0.02869 0.44775 0.03506 0.0
C1371 C 0.11954 0.4483 0.05247 0.0
C1372 C 0.14709 0.46488 0.05426 0.0
C1373 C 0.1584 0.49139 0.0502 0.0
C1374 C 0.14261 0.50117 0.04427 0.0
C1375 C 0.11551 0.48425 0.04261 0.0
C1376 C 0.10407 0.45841 0.04671 0.0
C1377 C 0.07443 0.44438 0.04422 0.0
C1378 C 0.06563 0.42264 0.03125 0.0
C1379 C 0.06007 0.43384 0.06044 0.0
C1380 C 0.0709 0.46635 0.03815 0.0
C1381 C 0.09483 0.48917 0.03715 0.0
C1382 C 0.09642 0.51211 0.03192 0.0
C1383 C 0.07297 0.51168 0.02762 0.0
C1384 C 0.04833 0.48843 0.02849 0.0
C1385 C 0.04735 0.46566 0.03405 0.0
H1386 H 0.54824 0.69151 0.0406 0.0
H1387 H 0.6108 0.69934 0.07291 0.0
H1388 H 0.60124 0.65553 0.06481 0.0
H1389 H 0.50298 0.62278 0.04807 0.0
H1390 H 0.49128 0.61539 0.02723 0.0
H1391 H 0.50252 0.64737 0.0357 0.0
H1392 H 0.5362 0.66771 0.01221 0.0
H1393 H 0.52444 0.63571 1.00374 0.0
H1394 H 0.55903 0.65636 0.00834 0.0
H1395 H 0.58597 0.61193 0.05336 0.0
H1396 H 0.56535 0.56977 0.03927 0.0
H1397 H 0.51167 0.58842 0.01411 0.0
C1398 C 0.55972 0.68386 0.04606 0.0
C1399 C 0.58047 0.69898 0.05728 0.0
C1400 C 0.59517 0.68835 0.06408 0.0
C1401 C 0.58979 0.66341 0.05964 0.0
C1402 C 0.56955 0.64921 0.04842 0.0
C1403 C 0.55461 0.65886 0.04173 0.0
C1404 C 0.53419 0.63936 0.02977 0.0
C1405 C 0.50607 0.63071 0.03554 0.0
C1406 C 0.53877 0.65046 0.01249 0.0
C1407 C 0.54016 0.61737 0.03078 0.0
C1408 C 0.56061 0.62362 0.04166 0.0
C1409 C 0.56991 0.60675 0.04481 0.0
C1410 C 0.55797 0.58274 0.03667 0.0
C1411 C 0.53691 0.57564 0.02541 0.0
C1412 C 0.52789 0.59329 0.02247 0.0
H1413 H 0.89932 0.3235 0.95507 0.0
H1414 H 0.82928 0.30083 0.98382 0.0
H1415 H 0.85132 0.34378 0.99772 0.0
H1416 H 0.94553 0.35793 0.98742 0.0
H1417 H 0.96938 0.3831 0.97461 0.0
H1418 H 0.94768 0.35122 0.96614 0.0
H1419 H 0.9315 0.37109 0.94416 0.0
H1420 H 0.95324 0.40306 0.95254 0.0
H1421 H 0.91846 0.39154 0.95042 0.0
H1422 H 0.88069 0.38896 0.00841 0.0
H1423 H 0.91606 0.43288 0.01608 0.0
H1424 H 0.96843 0.42564 0.98174 0.0
C1425 C 0.8886 0.32779 0.96415 0.0
C1426 C 0.86258 0.30899 0.96835 0.0
C1427 C 0.84925 0.31502 0.98048 0.0
C1428 C 0.86157 0.33934 0.98839 0.0
C1429 C 0.88733 0.35736 0.98414 0.0
C1430 C 0.90079 0.35191 0.97237 0.0
C1431 C 0.92875 0.3744 0.97066 0.0
C1432 C 0.94903 0.36616 0.97497 0.0
C1433 C 0.93324 0.38569 0.95342 0.0
C1434 C 0.92886 0.39326 0.98331 0.0
C1435 C 0.9047 0.38311 0.99083 0.0
C1436 C 0.8998 0.39702 1.00273 0.0
C1437 C 0.92017 0.42194 0.00712 0.0
C1438 C 0.94534 0.43266 0.99984 0.0
C1439 C 0.94957 0.41802 0.98771 0.0
H1440 H 0.67182 0.52235 0.96152 0.0
H1441 H 0.71633 0.60216 0.97907 0.0
H1442 H 0.67725 0.59678 0.99352 0.0
H1443 H 0.61372 0.52105 0.95324 0.0
H1444 H 0.59165 0.48863 0.96015 0.0
H1445 H 0.62405 0.49718 0.95322 0.0
H1446 H 0.63324 0.4822 0.98067 0.0
H1447 H 0.60108 0.4742 0.98803 0.0
H1448 H 0.63026 0.49639 0.99952 0.0
H1449 H 0.63263 0.58635 1.00117 0.0
H1450 H 0.58487 0.57 1.00326 0.0
H1451 H 0.56822 0.4955 0.98352 0.0
C1452 C 0.67349 0.5384 0.96881 0.0
C1453 C 0.69713 0.56279 0.96899 0.0
C1454 C 0.69838 0.58345 0.97848 0.0
C1455 C 0.67633 0.58051 0.98689 0.0
C1456 C 0.65313 0.5566 0.98603 0.0
C1457 C 0.65154 0.53571 0.97746 0.0
C1458 C 0.62344 0.51284 0.9775 0.0
C1459 C 0.61259 0.50445 0.95999 0.0
C1460 C 0.62192 0.49005 0.987 0.0
C1461 C 0.60938 0.52476 0.98656 0.0
C1462 C 0.62706 0.54996 0.99152 0.0
C1463 C 0.61868 0.56633 0.998 0.0
C1464 C 0.59156 0.55691 0.99918 0.0
C1465 C 0.57311 0.53111 0.99446 0.0
C1466 C 0.58209 0.51473 0.98821 0.0
H1467 H 0.46315 0.1241 0.94049 0.0
H1468 H 0.49657 0.18665 0.97663 0.0
H1469 H 0.50241 0.15819 0.99574 0.0
H1470 H 0.42841 0.07118 0.96917 0.0
H1471 H 0.43541 0.04923 0.95785 0.0
H1472 H 0.43229 0.07396 0.94734 0.0
H1473 H 0.47869 0.09117 0.93497 0.0
H1474 H 0.48192 0.06651 0.94544 0.0
H1475 H 0.50653 0.10021 0.94837 0.0
H1476 H 0.5083 0.12446 0.00993 0.0
H1477 H 0.51212 0.08717 0.01868 0.0
H1478 H 0.47326 0.04575 0.97383 0.0
C1479 C 0.47158 0.13176 0.95246 0.0
C1480 C 0.4793 0.15758 0.9571 0.0
C1481 C 0.49013 0.16683 0.9729 0.0
C1482 C 0.49365 0.15086 0.98381 0.0
C1483 C 0.48607 0.12562 0.97879 0.0
C1484 C 0.47509 0.11603 0.96354 0.0
C1485 C 0.46933 0.08841 0.96102 0.0
C1486 C 0.43959 0.06959 0.95871 0.0
C1487 C 0.48506 0.08648 0.9466 0.0
C1488 C 0.47922 0.08416 0.97714 0.0
C1489 C 0.48878 0.10586 0.9872 0.0
C1490 C 0.50037 0.10715 1.0023 0.0
C1491 C 0.5023 0.08572 0.00723 0.0
C1492 C 0.49246 0.06313 0.9972 0.0
C1493 C 0.48062 0.06245 0.98198 0.0
H1494 H 0.69398 0.10333 0.96671 0.0
H1495 H 0.6829 0.17016 0.96614 0.0
H1496 H 0.63971 0.1443 0.97927 0.0
H1497 H 0.62857 0.05729 0.95543 0.0
H1498 H 0.62702 0.03196 0.96801 0.0
H1499 H 0.65823 0.05658 0.96028 0.0
H1500 H 0.67713 0.06773 0.98985 0.0
H1501 H 0.64581 0.04323 0.99764 0.0
H1502 H 0.6605 0.07624 1.00509 0.0
H1503 H 0.59643 0.11029 0.99146 0.0
H1504 H 0.55567 0.07023 0.99916 0.0
H1505 H 0.59412 0.02539 0.99005 0.0
C1506 C 0.68253 0.11263 0.96923 0.0
C1507 C 0.69215 0.13898 0.9654 0.0
C1508 C 0.67641 0.15023 0.9692 0.0
C1509 C 0.65174 0.13566 0.97664 0.0
C1510 C 0.64293 0.10978 0.9802 0.0
C1511 C 0.6578 0.09833 0.97649 0.0
C1512 C 0.64316 0.06975 0.9805 0.0
C1513 C 0.639 0.05291 0.96514 0.0
C1514 C 0.65752 0.06391 0.99407 0.0
C1515 C 0.61741 0.06669 0.98655 0.0
C1516 C 0.61783 0.0901 0.98668 0.0
C1517 C 0.59599 0.0919 0.99151 0.0
C1518 C 0.57296 0.0691 0.99594 0.0
C1519 C 0.572 0.04487 0.99542 0.0
C1520 C 0.59456 0.04378 0.99076 0.0
H1521 H 0.89988 0.58474 0.96225 0.0
H1522 H 0.8308 0.50863 0.96806 0.0
H1523 H 0.85886 0.49291 0.98019 0.0
H1524 H 0.94393 0.563 0.95079 0.0
H1525 H 0.97189 0.58862 0.96162 0.0
H1526 H 0.94615 0.59401 0.95415 0.0
H1527 H 0.94003 0.60727 0.98333 0.0
H1528 H 0.96555 0.60165 0.99101 0.0
H1529 H 0.93319 0.5852 0.99989 0.0
H1530 H 0.89498 0.48541 0.99127 0.0
H1531 H 0.9361 0.48615 0.99886 0.0
H1532 H 0.9815 0.5671 0.98571 0.0
C1533 C 0.89056 0.56484 0.96625 0.0
C1534 C 0.86306 0.54795 0.96426 0.0
C1535 C 0.85181 0.52189 0.96935 0.0
C1536 C 0.86757 0.51285 0.97636 0.0
C1537 C 0.89459 0.53007 0.97818 0.0
C1538 C 0.90599 0.55549 0.97319 0.0
C1539 C 0.93561 0.56983 0.97589 0.0
C1540 C 0.95025 0.57942 0.95964 0.0
C1541 C 0.94409 0.59232 0.98826 0.0
C1542 C 0.93921 0.54842 0.98291 0.0
C1543 C 0.9153 0.52571 0.98436 0.0
C1544 C 0.91376 0.50317 0.99031 0.0
C1545 C 0.93726 0.50381 0.99473 0.0
C1546 C 0.96196 0.52687 0.99329 0.0
C1547 C 0.96283 0.54934 0.9872 0.0
H1548 H 0.50669 0.33977 0.95704 0.0
H1549 H 0.43382 0.31382 0.92971 0.0
H1550 H 0.4304 0.35042 0.94124 0.0
H1551 H 0.48953 0.3631 0.99348 0.0
H1552 H 0.52265 0.39023 0.99573 0.0
H1553 H 0.51715 0.36073 0.98594 0.0
H1554 H 0.54326 0.38877 0.96106 0.0
H1555 H 0.5469 0.41758 0.97096 0.0
H1556 H 0.53174 0.40802 0.951 0.0
H1557 H 0.43547 0.39046 0.95497 0.0
H1558 H 0.44842 0.43104 0.97034 0.0
H1559 H 0.51827 0.43133 0.98852 0.0
C1560 C 0.49005 0.3418 0.9534 0.0
C1561 C 0.47042 0.32371 0.94254 0.0
C1562 C 0.44886 0.32705 0.93825 0.0
C1563 C 0.44682 0.3479 0.94464 0.0
C1564 C 0.46653 0.36535 0.95526 0.0
C1565 C 0.48776 0.36257 0.95961 0.0
C1566 C 0.50658 0.38442 0.97095 0.0
C1567 C 0.50906 0.37396 0.98751 0.0
C1568 C 0.53372 0.40065 0.96302 0.0
C1569 C 0.49238 0.3997 0.97249 0.0
C1570 C 0.46943 0.38845 0.96324 0.0
C1571 C 0.45333 0.3994 0.96232 0.0
C1572 C 0.4609 0.42248 0.97108 0.0
C1573 C 0.48427 0.43429 0.98071 0.0
C1574 C 0.50013 0.42263 0.98142 0.0
H1575 H 0.13209 0.67147 0.07963 0.0
H1576 H 0.16914 0.72057 0.038 0.0
H1577 H 0.13945 0.68458 0.0194 0.0
H1578 H 0.12398 0.61305 0.06192 0.0
H1579 H 0.09233 0.59234 0.07099 0.0
H1580 H 0.11568 0.62227 0.08108 0.0
H1581 H 0.08088 0.63694 0.0815 0.0
H1582 H 0.05741 0.60699 0.07146 0.0
H1583 H 0.06526 0.63759 0.06266 0.0
H1584 H 0.10744 0.64231 1.00524 0.0
H1585 H 0.07348 0.59786 0.99679 0.0
H1586 H 0.05701 0.57651 0.04754 0.0
C1587 C 0.13386 0.67468 0.0666 0.0
C1588 C 0.15291 0.69889 0.06027 0.0
C1589 C 0.15447 0.70234 0.04314 0.0
C1590 C 0.1378 0.68195 0.03247 0.0
C1591 C 0.1195 0.65826 0.03911 0.0
C1592 C 0.11722 0.6546 0.05578 0.0
C1593 C 0.09601 0.62718 0.05976 0.0
C1594 C 0.10771 0.61287 0.06898 0.0
C1595 C 0.07356 0.62719 0.06941 0.0
C1596 C 0.08695 0.61591 0.04272 0.0
C1597 C 0.10081 0.6341 0.03097 0.0
C1598 C 0.09643 0.62794 0.01434 0.0
C1599 C 0.07733 0.60256 0.00963 0.0
C1600 C 0.06282 0.58372 0.02147 0.0
C1601 C 0.06766 0.59061 0.03821 0.0
H1602 H 0.31686 0.42603 0.04366 0.0
H1603 H 0.33592 0.50512 0.05464 0.0
H1604 H 0.37979 0.52139 0.04237 0.0
H1605 H 0.3789 0.43477 0.05464 0.0
H1606 H 0.37897 0.41345 0.03886 0.0
H1607 H 0.3482 0.40838 0.04681 0.0
H1608 H 0.33283 0.41085 0.01753 0.0
H1609 H 0.36373 0.41628 0.00945 0.0
H1610 H 0.35277 0.43906 0.00544 0.0
H1611 H 0.42313 0.52888 0.03032 0.0
H1612 H 0.462 0.52647 0.02095 0.0
H1613 H 0.41491 0.44256 0.0192 0.0
C1614 C 0.33017 0.4468 0.04357 0.0
C1615 C 0.32269 0.46422 0.05017 0.0
C1616 C 0.34082 0.49128 0.04947 0.0
C1617 C 0.3659 0.50074 0.04256 0.0
C1618 C 0.37266 0.48296 0.03637 0.0
C1619 C 0.35528 0.45654 0.03686 0.0
C1620 C 0.36775 0.44135 0.03034 0.0
C1621 C 0.3685 0.42344 0.04345 0.0
C1622 C 0.35341 0.42597 0.01476 0.0
C1623 C 0.39514 0.46327 0.02654 0.0
C1624 C 0.39752 0.48719 0.02978 0.0
C1625 C 0.42134 0.51024 0.02759 0.0
C1626 C 0.44329 0.50872 0.02218 0.0
C1627 C 0.4412 0.48434 0.01901 0.0
C1628 C 0.41683 0.46143 0.02126 0.0
H1629 H 0.58129 0.88101 0.03857 0.0
H1630 H 0.51454 0.83692 0.07009 0.0
H1631 H 0.49362 0.86137 0.05996 0.0
H1632 H 0.5847 0.94133 0.04502 0.0
H1633 H 0.59397 0.95234 0.02442 0.0
H1634 H 0.60245 0.92974 0.03292 0.0
H1635 H 0.57858 0.89773 0.00876 0.0
H1636 H 0.57003 0.92028 1.00018 0.0
H1637 H 0.54457 0.88752 1.00431 0.0
H1638 H 0.4806 0.89126 0.04696 0.0
H1639 H 0.47788 0.92686 0.03355 0.0
H1640 H 0.55416 0.9532 0.01164 0.0
C1641 C 0.56206 0.87624 0.0431 0.0
C1642 C 0.54931 0.85693 0.05496 0.0
C1643 C 0.52451 0.85162 0.06096 0.0
C1644 C 0.51247 0.8653 0.05523 0.0
C1645 C 0.52563 0.88435 0.0436 0.0
C1646 C 0.54996 0.88997 0.03768 0.0
C1647 C 0.56074 0.91259 0.02609 0.0
C1648 C 0.58702 0.93534 0.0325 0.0
C1649 C 0.56365 0.90401 0.00881 0.0
C1650 C 0.5389 0.91913 0.02663 0.0
C1651 C 0.5186 0.90227 0.03657 0.0
C1652 C 0.4963 0.90448 0.0391 0.0
C1653 C 0.49487 0.92463 0.03142 0.0
C1654 C 0.51572 0.94239 0.02157 0.0
C1655 C 0.53795 0.93961 0.01908 0.0
H1656 H 0.98836 0.20926 0.38763 0.0
H1657 H 0.01162 0.15061 0.38439 0.0
H1658 H 0.05191 0.18132 0.3701 0.0
H1659 H 0.01646 0.24066 0.34847 0.0
H1660 H 0.02749 0.27279 0.35661 0.0
H1661 H 0.99861 0.24531 0.3648 0.0
H1662 H 0.01943 0.2575 0.39384 0.0
H1663 H 0.04829 0.28501 0.38576 0.0
H1664 H 0.05155 0.2612 0.39731 0.0
H1665 H 0.09154 0.21918 0.35814 0.0
H1666 H 0.12792 0.26196 0.35002 0.0
H1667 H 0.08047 0.29687 0.36192 0.0
C1668 C 1.00178 0.20274 0.38386 0.0
C1669 C 0.99635 0.17719 0.38703 0.0
C1670 C 0.01467 0.16968 0.38177 0.0
C1671 C 0.03783 0.18709 0.37371 0.0
C1672 C 0.04264 0.2121 0.37098 0.0
C1673 C 0.02518 0.21996 0.37589 0.0
C1674 C 0.03597 0.24849 0.37244 0.0
C1675 C 0.01859 0.25201 0.35983 0.0
C1676 C 0.03899 0.26395 0.38828 0.0
C1677 C 0.06257 0.25557 0.36534 0.0
C1678 C 0.06581 0.23417 0.36433 0.0
C1679 C 0.08907 0.236 0.35867 0.0
C1680 C 0.10962 0.26038 0.35401 0.0
C1681 C 0.10674 0.28256 0.35496 0.0
C1682 C 0.08295 0.28008 0.3608 0.0
H1683 H 0.80673 0.80525 0.38627 0.0
H1684 H 0.76407 0.72268 0.3749 0.0
H1685 H 0.72668 0.72629 0.3644 0.0
H1686 H 0.75057 0.80952 0.39964 0.0
H1687 H 0.76165 0.84089 0.39086 0.0
H1688 H 0.78533 0.83183 0.3972 0.0
H1689 H 0.80488 0.84217 0.36854 0.0
H1690 H 0.78029 0.8493 0.36104 0.0
H1691 H 0.78482 0.82457 0.35113 0.0
H1692 H 0.69204 0.73733 0.35831 0.0
H1693 H 0.66319 0.75617 0.35492 0.0
H1694 H 0.72857 0.83238 0.3674 0.0
C1695 C 0.78953 0.78799 0.38152 0.0
C1696 C 0.78847 0.76369 0.38129 0.0
C1697 C 0.76559 0.74156 0.37495 0.0
C1698 C 0.74416 0.74339 0.36902 0.0
C1699 C 0.74585 0.76754 0.36934 0.0
C1700 C 0.76793 0.78951 0.37534 0.0
C1701 C 0.76428 0.81299 0.37442 0.0
C1702 C 0.76553 0.82447 0.39155 0.0
C1703 C 0.78477 0.8335 0.3631 0.0
C1704 C 0.73661 0.80066 0.36713 0.0
C1705 C 0.72631 0.77432 0.36451 0.0
C1706 C 0.70011 0.75804 0.35977 0.0
C1707 C 0.68391 0.76888 0.3578 0.0
C1708 C 0.69414 0.79585 0.35993 0.0
C1709 C 0.72083 0.81197 0.36467 0.0
H1710 H 0.25278 0.02445 0.39476 0.0
H1711 H 0.20998 0.05034 0.3643 0.0
H1712 H 0.18894 0.00827 0.34945 0.0
H1713 H 0.2651 0.98947 0.36389 0.0
H1714 H 0.26037 0.96345 0.37702 0.0
H1715 H 0.27178 0.99543 0.38549 0.0
H1716 H 0.23281 0.9767 0.40572 0.0
H1717 H 0.22142 0.94463 0.39739 0.0
H1718 H 0.19953 0.95766 0.39796 0.0
H1719 H 0.17314 0.96358 0.33756 0.0
H1720 H 0.1626 0.91905 0.3302 0.0
H1721 H 0.2153 0.92231 0.36876 0.0
C1722 C 0.2387 0.02117 0.38514 0.0
C1723 C 0.23312 0.04078 0.38068 0.0
C1724 C 0.21486 0.03578 0.3678 0.0
C1725 C 0.20271 0.0119 0.35933 0.0
C1726 C 0.20893 0.99315 0.36391 0.0
C1727 C 0.22636 0.99744 0.37657 0.0
C1728 C 0.22973 0.9741 0.37902 0.0
C1729 C 0.25845 0.98104 0.37618 0.0
C1730 C 0.2203 0.96259 0.39603 0.0
C1731 C 0.21157 0.95608 0.3657 0.0
C1732 C 0.19976 0.96741 0.35711 0.0
C1733 C 0.18223 0.95448 0.34423 0.0
C1734 C 0.17641 0.9292 0.34011 0.0
C1735 C 0.1881 0.91711 0.34887 0.0
C1736 C 0.20602 0.93092 0.36178 0.0
H1737 H 0.53803 0.65185 0.28148 0.0
H1738 H 0.51498 0.60747 0.32609 0.0
H1739 H 0.54325 0.64729 0.34209 0.0
H1740 H 0.60532 0.69536 0.29286 0.0
H1741 H 0.60699 0.72354 0.28377 0.0
H1742 H 0.58461 0.69166 0.27552 0.0
H1743 H 0.54546 0.69981 0.27919 0.0
H1744 H 0.56778 0.73181 0.2873 0.0
H1745 H 0.53962 0.70944 0.29897 0.0
H1746 H 0.57514 0.6909 0.35327 0.0
H1747 H 0.60668 0.73699 0.35925 0.0
H1748 H 0.60815 0.75471 0.30804 0.0
C1749 C 0.53868 0.65059 0.29463 0.0
C1750 C 0.52445 0.62638 0.30249 0.0
C1751 C 0.52605 0.6256 0.31973 0.0
C1752 C 0.54198 0.64816 0.32895 0.0
C1753 C 0.55614 0.67151 0.32083 0.0
C1754 C 0.55451 0.67305 0.30409 0.0
C1755 C 0.57186 0.70082 0.29853 0.0
C1756 C 0.59348 0.70296 0.28699 0.0
C1757 C 0.55518 0.71107 0.29053 0.0
C1758 C 0.58351 0.71452 0.31476 0.0
C1759 C 0.57415 0.69711 0.32741 0.0
C1760 C 0.58221 0.7048 0.34352 0.0
C1761 C 0.59985 0.73108 0.34685 0.0
C1762 C 0.60902 0.74944 0.33424 0.0
C1763 C 0.60119 0.741 0.31792 0.0
H1764 H 0.33631 0.85707 0.2969 0.0
H1765 H 0.3688 0.9405 0.29813 0.0
H1766 H 0.32612 0.93432 0.3075 0.0
H1767 H 0.27064 0.83994 0.28277 0.0
H1768 H 0.25416 0.81159 0.29528 0.0
H1769 H 0.28719 0.8225 0.28835 0.0
H1770 H 0.30203 0.82411 0.31816 0.0
H1771 H 0.26952 0.81443 0.32559 0.0
H1772 H 0.29761 0.84414 0.33296 0.0
H1773 H 0.2797 0.91945 0.31555 0.0
H1774 H 0.23252 0.89645 0.32304 0.0
H1775 H 0.22993 0.82272 0.3181 0.0
C1776 C 0.33431 0.87398 0.29905 0.0
C1777 C 0.35594 0.89931 0.29683 0.0
C1778 C 0.35262 0.92096 0.29991 0.0
C1779 C 0.32843 0.91765 0.30519 0.0
C1780 C 0.30762 0.89253 0.30745 0.0
C1781 C 0.31024 0.87102 0.30453 0.0
C1782 C 0.28469 0.8462 0.30817 0.0
C1783 C 0.27351 0.82905 0.29272 0.0
C1784 C 0.28869 0.83134 0.32205 0.0
C1785 C 0.26739 0.85718 0.3135 0.0
C1786 C 0.28102 0.88396 0.31287 0.0
C1787 C 0.26896 0.89852 0.31639 0.0
C1788 C 0.24227 0.88537 0.32072 0.0
C1789 C 0.22814 0.85802 0.32187 0.0
C1790 C 0.24073 0.84374 0.31795 0.0
H1791 H 0.1795 0.4997 0.29952 0.0
H1792 H 0.09765 0.45929 0.28343 0.0
H1793 H 0.09134 0.41904 0.2958 0.0
H1794 H 0.19206 0.4487 0.29152 0.0
H1795 H 0.21278 0.45464 0.30923 0.0
H1796 H 0.21053 0.48093 0.30031 0.0
H1797 H 0.19629 0.49081 0.32823 0.0
H1798 H 0.19883 0.46463 0.33714 0.0
H1799 H 0.16845 0.4652 0.33858 0.0
H1800 H 0.09484 0.38248 0.30735 0.0
H1801 H 0.10745 0.352 0.3186 0.0
H1802 H 0.18663 0.41597 0.32826 0.0
C1803 C 0.16021 0.48242 0.29874 0.0
C1804 C 0.13901 0.48263 0.29057 0.0
C1805 C 0.11404 0.45966 0.28983 0.0
C1806 C 0.11029 0.4367 0.29677 0.0
C1807 C 0.13162 0.43707 0.30458 0.0
C1808 C 0.15604 0.45935 0.30577 0.0
C1809 C 0.17586 0.45415 0.31437 0.0
C1810 C 0.19918 0.45994 0.30319 0.0
C1811 C 0.18541 0.46962 0.33054 0.0
C1812 C 0.15893 0.42534 0.31738 0.0
C1813 C 0.13346 0.41593 0.31167 0.0
C1814 C 0.1146 0.38966 0.3121 0.0
C1815 C 0.12198 0.37249 0.31844 0.0
C1816 C 0.14794 0.38167 0.32437 0.0
C1817 C 0.16652 0.4085 0.32404 0.0
H1818 H 0.33628 0.47129 0.29646 0.0
H1819 H 0.37592 0.42738 0.3048 0.0
H1820 H 0.33702 0.39429 0.31916 0.0
H1821 H 0.29957 0.45393 0.3365 0.0
H1822 H 0.27031 0.45148 0.32746 0.0
H1823 H 0.30237 0.47415 0.31957 0.0
H1824 H 0.288 0.45378 0.29065 0.0
H1825 H 0.25576 0.4315 0.29825 0.0
H1826 H 0.27448 0.41931 0.28782 0.0
H1827 H 0.29229 0.36243 0.32761 0.0
H1828 H 0.24434 0.33456 0.33122 0.0
H1829 H 0.23299 0.39919 0.32032 0.0
C1830 C 0.33698 0.45506 0.30171 0.0
C1831 C 0.35912 0.45183 0.2993 0.0
C1832 C 0.35908 0.43009 0.30616 0.0
C1833 C 0.33715 0.41129 0.31453 0.0
C1834 C 0.3154 0.41458 0.31628 0.0
C1835 C 0.31514 0.43604 0.31028 0.0
C1836 C 0.28826 0.43358 0.31279 0.0
C1837 C 0.29025 0.45453 0.32479 0.0
C1838 C 0.2759 0.43459 0.2964 0.0
C1839 C 0.27319 0.4068 0.32024 0.0
C1840 C 0.28944 0.3964 0.3223 0.0
C1841 C 0.27956 0.37067 0.32673 0.0
C1842 C 0.25234 0.35499 0.32882 0.0
C1843 C 0.23534 0.36522 0.32705 0.0
C1844 C 0.2459 0.39151 0.32285 0.0
H1845 H 0.56007 0.90957 0.29573 0.0
H1846 H 0.48959 0.83421 0.30051 0.0
H1847 H 0.51645 0.81708 0.31265 0.0
H1848 H 0.60418 0.8866 0.28481 0.0
H1849 H 0.63165 0.91165 0.29628 0.0
H1850 H 0.60681 0.91781 0.28808 0.0
H1851 H 0.59898 0.93064 0.31704 0.0
H1852 H 0.62375 0.92442 0.32532 0.0
H1853 H 0.59089 0.90813 0.33349 0.0
H1854 H 0.55173 0.80785 0.32324 0.0
H1855 H 0.59201 0.80795 0.33251 0.0
H1856 H 0.63887 0.88976 0.32167 0.0
C1857 C 0.55028 0.88939 0.2992 0.0
C1858 C 0.52272 0.87316 0.29706 0.0
C1859 C 0.51064 0.84702 0.30209 0.0
C1860 C 0.52575 0.83711 0.30894 0.0
C1861 C 0.55289 0.85364 0.31081 0.0
C1862 C 0.56501 0.87927 0.30615 0.0
C1863 C 0.59442 0.89312 0.30961 0.0
C1864 C 0.61018 0.90286 0.29375 0.0
C1865 C 0.60247 0.9154 0.32211 0.0
C1866 C 0.59706 0.87126 0.3168 0.0
C1867 C 0.57292 0.84859 0.31736 0.0
C1868 C 0.57064 0.82559 0.32305 0.0
C1869 C 0.59358 0.82586 0.32838 0.0
C1870 C 0.61835 0.84907 0.32829 0.0
C1871 C 0.62006 0.87191 0.32222 0.0
H1872 H 0.15978 0.68478 0.27805 0.0
H1873 H 0.11744 0.62829 0.31545 0.0
H1874 H 0.11542 0.66222 0.33214 0.0
H1875 H 0.19899 0.73796 0.30586 0.0
H1876 H 0.1984 0.76198 0.293 0.0
H1877 H 0.19614 0.73318 0.28401 0.0
H1878 H 0.15212 0.7222 0.26944 0.0
H1879 H 0.15515 0.75146 0.27816 0.0
H1880 H 0.1256 0.72071 0.28137 0.0
H1881 H 0.11805 0.70267 0.34465 0.0
H1882 H 0.1257 0.74653 0.35198 0.0
H1883 H 0.16713 0.77614 0.30662 0.0
C1884 C 0.14985 0.67951 0.28968 0.0
C1885 C 0.13855 0.65391 0.29543 0.0
C1886 C 0.12625 0.64784 0.31087 0.0
C1887 C 0.12495 0.66694 0.32039 0.0
C1888 C 0.13628 0.69202 0.31433 0.0
C1889 C 0.14864 0.69835 0.29937 0.0
C1890 C 0.1599 0.72683 0.29581 0.0
C1891 C 0.19015 0.7408 0.29461 0.0
C1892 C 0.14741 0.73049 0.28028 0.0
C1893 C 0.15143 0.73544 0.31092 0.0
C1894 C 0.13795 0.71516 0.32153 0.0
C1895 C 0.12852 0.71865 0.33642 0.0
C1896 C 0.13296 0.74351 0.3405 0.0
C1897 C 0.14659 0.7643 0.3297 0.0
C1898 C 0.15604 0.76026 0.31483 0.0
H1899 H 0.83164 0.99201 0.38804 0.0
H1900 H 0.78873 0.03062 0.40289 0.0
H1901 H 0.74803 0.99476 0.39062 0.0
H1902 H 0.79584 0.96475 0.34907 0.0
H1903 H 0.7966 0.93506 0.35121 0.0
H1904 H 0.82265 0.96487 0.36 0.0
H1905 H 0.81374 0.94254 0.38816 0.0
H1906 H 0.78738 0.91301 0.3793 0.0
H1907 H 0.78108 0.92804 0.3966 0.0
H1908 H 0.71143 0.95348 0.37897 0.0
H1909 H 0.68126 0.90989 0.3676 0.0
H1910 H 0.74746 0.89778 0.35941 0.0
C1911 C 0.81371 0.99298 0.38862 0.0
C1912 C 0.81343 0.01424 0.39639 0.0
C1913 C 0.78957 0.0148 0.39681 0.0
C1914 C 0.76631 0.99446 0.38993 0.0
C1915 C 0.76721 0.97373 0.38253 0.0
C1916 C 0.7903 0.97288 0.38169 0.0
C1917 C 0.78558 0.94789 0.37345 0.0
C1918 C 0.80109 0.9535 0.35748 0.0
C1919 C 0.79234 0.93193 0.38507 0.0
C1920 C 0.75614 0.93463 0.3701 0.0
C1921 C 0.74601 0.94995 0.37545 0.0
C1922 C 0.71916 0.94144 0.37456 0.0
C1923 C 0.70216 0.91657 0.36814 0.0
C1924 C 0.712 0.90048 0.36255 0.0
C1925 C 0.73943 0.90981 0.36337 0.0
H1926 H 0.97515 0.7529 0.37538 0.0
H1927 H 0.99149 0.82681 0.39651 0.0
H1928 H 0.03742 0.84683 0.38701 0.0
H1929 H 0.03702 0.75888 0.38684 0.0
H1930 H 0.03939 0.7431 0.36853 0.0
H1931 H 0.00751 0.73506 0.37629 0.0
H1932 H 0.99552 0.74581 0.34839 0.0
H1933 H 0.02766 0.75527 0.34041 0.0
H1934 H 0.01542 0.77766 0.34012 0.0
H1935 H 0.08256 0.85812 0.37701 0.0
H1936 H 0.12301 0.85994 0.36644 0.0
H1937 H 0.07745 0.77898 0.35173 0.0
C1938 C 0.98833 0.77329 0.37808 0.0
C1939 C 0.97948 0.78824 0.38669 0.0
C1940 C 0.9975 0.81496 0.38972 0.0
C1941 C 0.02373 0.8265 0.38445 0.0
C1942 C 0.03177 0.81113 0.37613 0.0
C1943 C 0.0146 0.7851 0.37296 0.0
C1944 C 0.02839 0.77268 0.36424 0.0
C1945 C 0.02806 0.75116 0.3746 0.0
C1946 C 0.01603 0.76225 0.34727 0.0
C1947 C 0.05604 0.79579 0.36301 0.0
C1948 C 0.05759 0.81779 0.37 0.0
C1949 C 0.08145 0.84116 0.37123 0.0
C1950 C 0.10427 0.84207 0.36515 0.0
C1951 C 0.10297 0.8199 0.35769 0.0
C1952 C 0.07864 0.79642 0.35682 0.0
H1953 H 0.23391 0.21899 0.40108 0.0
H1954 H 0.27214 0.2101 0.35826 0.0
H1955 H 0.25515 0.23315 0.34178 0.0
H1956 H 0.17555 0.21147 0.38081 0.0
H1957 H 0.17405 0.23605 0.39305 0.0
H1958 H 0.18837 0.21804 0.40143 0.0
H1959 H 0.23153 0.26107 0.40813 0.0
H1960 H 0.21728 0.27917 0.39981 0.0
H1961 H 0.24814 0.28393 0.39209 0.0
H1962 H 0.23357 0.25631 0.32988 0.0
H1963 H 0.21161 0.28143 0.32375 0.0
H1964 H 0.18912 0.27755 0.37441 0.0
C1965 C 0.23855 0.22189 0.38822 0.0
C1966 C 0.25421 0.21279 0.38085 0.0
C1967 C 0.26024 0.21708 0.36407 0.0
C1968 C 0.2506 0.23002 0.35463 0.0
C1969 C 0.23523 0.2388 0.36222 0.0
C1970 C 0.22947 0.23522 0.37866 0.0
C1971 C 0.21343 0.24758 0.3839 0.0
C1972 C 0.18624 0.22705 0.39016 0.0
C1973 C 0.2285 0.26922 0.39674 0.0
C1974 C 0.21103 0.25857 0.36782 0.0
C1975 C 0.22348 0.25298 0.35544 0.0
C1976 C 0.22368 0.26074 0.33945 0.0
C1977 C 0.21093 0.27472 0.33603 0.0
C1978 C 0.19839 0.28093 0.34854 0.0
C1979 C 0.19857 0.2729 0.36464 0.0
H1980 H 0.68509 0.51833 0.72104 0.0
H1981 H 0.62733 0.54326 0.71579 0.0
H1982 H 0.66006 0.58203 0.7014 0.0
H1983 H 0.7409 0.57895 0.7277 0.0
H1984 H 0.7628 0.57261 0.71564 0.0
H1985 H 0.73448 0.54619 0.72499 0.0
H1986 H 0.71953 0.52365 0.69679 0.0
H1987 H 0.74692 0.55039 0.68684 0.0
H1988 H 0.71356 0.5399 0.68038 0.0
H1989 H 0.70076 0.62106 0.6912 0.0
H1990 H 0.74545 0.65523 0.6831 0.0
H1991 H 0.77494 0.60264 0.69141 0.0
C1992 C 0.67893 0.53148 0.71654 0.0
C1993 C 0.65348 0.52763 0.71989 0.0
C1994 C 0.64677 0.54587 0.71391 0.0
C1995 C 0.66518 0.56792 0.70551 0.0
C1996 C 0.69013 0.57129 0.70275 0.0
C1997 C 0.69689 0.55334 0.70781 0.0
C1998 C 0.72523 0.56185 0.70348 0.0
C1999 C 0.74182 0.5651 0.71887 0.0
C2000 C 0.7264 0.54282 0.69114 0.0
C2001 C 0.73357 0.5878 0.69575 0.0
C2002 C 0.71303 0.59293 0.69553 0.0
C2003 C 0.71675 0.61694 0.6908 0.0
C2004 C 0.74212 0.63622 0.68626 0.0
C2005 C 0.76318 0.63109 0.68601 0.0
C2006 C 0.75881 0.60654 0.69073 0.0
H2007 H 0.47444 0.15602 0.7231 0.0
H2008 H 0.43363 0.07194 0.71903 0.0
H2009 H 0.39503 0.07174 0.70706 0.0
H2010 H 0.41777 0.16069 0.73429 0.0
H2011 H 0.42696 0.18953 0.72275 0.0
H2012 H 0.45205 0.18332 0.73045 0.0
H2013 H 0.46978 0.18803 0.70149 0.0
H2014 H 0.44382 0.1921 0.69278 0.0
H2015 H 0.44918 0.16637 0.68548 0.0
H2016 H 0.35921 0.07945 0.69885 0.0
H2017 H 0.32852 0.09524 0.69263 0.0
H2018 H 0.3919 0.17466 0.69936 0.0
C2019 C 0.45749 0.13765 0.71947 0.0
C2020 C 0.45703 0.11394 0.72218 0.0
C2021 C 0.43436 0.0903 0.71737 0.0
C2022 C 0.41234 0.08998 0.71045 0.0
C2023 C 0.41316 0.11348 0.70824 0.0
C2024 C 0.43509 0.13694 0.71251 0.0
C2025 C 0.43008 0.15924 0.70923 0.0
C2026 C 0.43181 0.17406 0.72513 0.0
C2027 C 0.44934 0.17755 0.69647 0.0
C2028 C 0.40189 0.14451 0.70259 0.0
C2029 C 0.3926 0.1181 0.70232 0.0
C2030 C 0.36641 0.10009 0.69852 0.0
C2031 C 0.34913 0.1092 0.695 0.0
C2032 C 0.35817 0.13609 0.69473 0.0
C2033 C 0.38492 0.15405 0.69859 0.0
H2034 H 0.88895 0.36298 0.70357 0.0
H2035 H 0.87814 0.34636 0.75531 0.0
H2036 H 0.85699 0.29951 0.74893 0.0
H2037 H 0.82722 0.30547 0.68951 0.0
H2038 H 0.84223 0.30095 0.67155 0.0
H2039 H 0.85434 0.33307 0.68003 0.0
H2040 H 0.9014 0.33947 0.68217 0.0
H2041 H 0.8894 0.30745 0.67365 0.0
H2042 H 0.90637 0.31616 0.6931 0.0
H2043 H 0.84117 0.25513 0.73726 0.0
H2044 H 0.83079 0.21594 0.72087 0.0
H2045 H 0.85158 0.2611 0.67678 0.0
C2046 C 0.88197 0.34947 0.71355 0.0
C2047 C 0.8851 0.35834 0.72995 0.0
C2048 C 0.87559 0.34002 0.74265 0.0
C2049 C 0.86362 0.31337 0.73915 0.0
C2050 C 0.8611 0.30531 0.72288 0.0
C2051 C 0.86985 0.32278 0.71026 0.0
C2052 C 0.86587 0.30908 0.69389 0.0
C2053 C 0.84625 0.31234 0.68311 0.0
C2054 C 0.89234 0.3186 0.6852 0.0
C2055 C 0.85424 0.28128 0.69933 0.0
C2056 C 0.85148 0.27954 0.7161 0.0
C2057 C 0.84283 0.25618 0.7241 0.0
C2058 C 0.83709 0.23409 0.71473 0.0
C2059 C 0.8399 0.23552 0.69757 0.0
C2060 C 0.84831 0.25932 0.68978 0.0
H2061 H 0.21951 0.98129 0.6236 0.0
H2062 H 0.14414 0.9726 0.63773 0.0
H2063 H 0.16725 0.0157 0.65114 0.0
H2064 H 0.25525 0.01395 0.65973 0.0
H2065 H 0.28537 0.03582 0.64946 0.0
H2066 H 0.26315 0.00441 0.64055 0.0
H2067 H 0.26065 0.0261 0.61393 0.0
H2068 H 0.283 0.05759 0.62273 0.0
H2069 H 0.25131 0.05068 0.61491 0.0
H2070 H 0.1979 0.05844 0.66391 0.0
H2071 H 0.23433 0.09983 0.67419 0.0
H2072 H 0.29072 0.08265 0.6512 0.0
C2073 C 0.20782 0.98859 0.62929 0.0
C2074 C 0.17991 0.97333 0.62969 0.0
C2075 C 0.16548 0.98359 0.63749 0.0
C2076 C 0.17843 0.00815 0.64507 0.0
C2077 C 0.20586 0.02243 0.64466 0.0
C2078 C 0.22045 0.01323 0.63686 0.0
C2079 C 0.24981 0.03265 0.63836 0.0
C2080 C 0.26424 0.02101 0.64758 0.0
C2081 C 0.2619 0.04233 0.62148 0.0
C2082 C 0.24936 0.05407 0.64835 0.0
C2083 C 0.22375 0.04761 0.65184 0.0
C2084 C 0.21804 0.06378 0.66119 0.0
C2085 C 0.23901 0.08727 0.66706 0.0
C2086 C 0.26555 0.0946 0.66358 0.0
C2087 C 0.27071 0.0777 0.65404 0.0
H2088 H 0.99108 0.18968 0.62715 0.0
H2089 H 0.03736 0.27249 0.63751 0.0
H2090 H 1.00013 0.27057 0.65236 0.0
H2091 H 0.93021 0.1869 0.62013 0.0
H2092 H 0.91004 0.15632 0.62998 0.0
H2093 H 0.94102 0.16345 0.62119 0.0
H2094 H 0.95538 0.15436 0.64891 0.0
H2095 H 0.92501 0.14827 0.65826 0.0
H2096 H 0.95628 0.17273 0.66677 0.0
H2097 H 0.95731 0.26177 0.66271 0.0
H2098 H 0.91066 0.24568 0.66928 0.0
H2099 H 0.89106 0.16777 0.65478 0.0
C2100 C 0.99345 0.20728 0.63279 0.0
C2101 C 0.01716 0.23135 0.63091 0.0
C2102 C 0.01933 0.25395 0.63841 0.0
C2103 C 0.99835 0.25303 0.64704 0.0
C2104 C 0.97518 0.22928 0.64836 0.0
C2105 C 0.9725 0.20671 0.64159 0.0
C2106 C 0.94472 0.18407 0.64429 0.0
C2107 C 0.93068 0.17199 0.62792 0.0
C2108 C 0.94537 0.16363 0.65521 0.0
C2109 C 0.93213 0.19776 0.65307 0.0
C2110 C 0.95028 0.22384 0.65533 0.0
C2111 C 0.94308 0.24128 0.66148 0.0
C2112 C 0.91658 0.23199 0.6652 0.0
C2113 C 0.89762 0.2054 0.66324 0.0
C2114 C 0.90549 0.18796 0.6572 0.0
H2115 H 0.85159 0.83745 0.62909 0.0
H2116 H 0.77105 0.7992 0.6107 0.0
H2117 H 0.76291 0.758 0.62257 0.0
H2118 H 0.86359 0.78562 0.62183 0.0
H2119 H 0.88242 0.79048 0.6403 0.0
H2120 H 0.88178 0.81749 0.63117 0.0
H2121 H 0.86516 0.82691 0.65835 0.0
H2122 H 0.86637 0.80015 0.66745 0.0
H2123 H 0.83617 0.80121 0.66775 0.0
H2124 H 0.76443 0.72055 0.63414 0.0
H2125 H 0.77459 0.68902 0.64639 0.0
H2126 H 0.85352 0.75125 0.6588 0.0
C2127 C 0.8322 0.8204 0.62773 0.0
C2128 C 0.81186 0.82145 0.61906 0.0
C2129 C 0.78674 0.79884 0.61749 0.0
C2130 C 0.78198 0.77536 0.62413 0.0
C2131 C 0.80244 0.7749 0.63251 0.0
C2132 C 0.82697 0.79682 0.63454 0.0
C2133 C 0.84554 0.79075 0.64394 0.0
C2134 C 0.86976 0.79642 0.63369 0.0
C2135 C 0.85378 0.80564 0.66035 0.0
C2136 C 0.82779 0.76187 0.64645 0.0
C2137 C 0.80303 0.7532 0.63973 0.0
C2138 C 0.78361 0.72712 0.63965 0.0
C2139 C 0.78962 0.70934 0.64656 0.0
C2140 C 0.81478 0.71771 0.6536 0.0
C2141 C 0.834 0.74438 0.6537 0.0
H2142 H 0.99828 0.80045 0.63005 0.0
H2143 H 0.03987 0.75872 0.6395 0.0
H2144 H 0.99958 0.72281 0.65112 0.0
H2145 H 0.95979 0.78125 0.66651 0.0
H2146 H 0.92941 0.7765 0.65761 0.0
H2147 H 0.96072 0.80003 0.64925 0.0
H2148 H 0.94872 0.77891 0.62072 0.0
H2149 H 0.91637 0.75618 0.62807 0.0
H2150 H 0.93611 0.74452 0.61838 0.0
H2151 H 0.95459 0.68977 0.659 0.0
H2152 H 0.90699 0.6618 0.66408 0.0
H2153 H 0.89388 0.72509 0.65209 0.0
C2154 C 0.99883 0.78374 0.63458 0.0
C2155 C 0.02236 0.78253 0.63399 0.0
C2156 C 0.02228 0.76033 0.64007 0.0
C2157 C 0.99945 0.73976 0.64665 0.0
C2158 C 0.97674 0.74163 0.6472 0.0
C2159 C 0.97613 0.76299 0.64138 0.0
C2160 C 0.94879 0.75964 0.64332 0.0
C2161 C 0.94969 0.78059 0.65487 0.0
C2162 C 0.93679 0.75982 0.62663 0.0
C2163 C 0.93415 0.73292 0.6509 0.0
C2164 C 0.95076 0.72292 0.65289 0.0
C2165 C 0.94152 0.69759 0.65795 0.0
C2166 C 0.91453 0.68189 0.66085 0.0
C2167 C 0.89718 0.69175 0.65924 0.0
C2168 C 0.90709 0.71764 0.65428 0.0
H2169 H 0.22261 0.24552 0.62506 0.0
H2170 H 0.15261 0.17293 0.63677 0.0
H2171 H 0.18059 0.15708 0.64894 0.0
H2172 H 0.26466 0.22019 0.61482 0.0
H2173 H 0.29375 0.24649 0.62432 0.0
H2174 H 0.26828 0.25203 0.6165 0.0
H2175 H 0.26452 0.26956 0.6449 0.0
H2176 H 0.28999 0.26405 0.65281 0.0
H2177 H 0.25837 0.24969 0.6626 0.0
H2178 H 0.21641 0.14814 0.65799 0.0
H2179 H 0.25693 0.14808 0.66555 0.0
H2180 H 0.30393 0.22789 0.65044 0.0
C2181 C 0.21326 0.22627 0.63016 0.0
C2182 C 0.1855 0.21027 0.62986 0.0
C2183 C 0.17385 0.18538 0.63687 0.0
C2184 C 0.18958 0.17625 0.64377 0.0
C2185 C 0.21691 0.19245 0.64384 0.0
C2186 C 0.22866 0.21707 0.63742 0.0
C2187 C 0.25844 0.23081 0.63945 0.0
C2188 C 0.27208 0.23778 0.62278 0.0
C2189 C 0.26841 0.25496 0.6506 0.0
C2190 C 0.26165 0.20987 0.64765 0.0
C2191 C 0.23744 0.18787 0.65 0.0
C2192 C 0.23541 0.16549 0.65655 0.0
C2193 C 0.25865 0.16571 0.661 0.0
C2194 C 0.28365 0.18834 0.65936 0.0
C2195 C 0.28506 0.21055 0.65232 0.0
H2196 H 0.84905 0.01682 0.62467 0.0
H2197 H 0.76465 0.97041 0.61547 0.0
H2198 H 0.75848 0.00441 0.62849 0.0
H2199 H 0.84342 0.04249 0.66515 0.0
H2200 H 0.87229 0.07365 0.66181 0.0
H2201 H 0.86975 0.04483 0.65261 0.0
H2202 H 0.87768 0.06632 0.62422 0.0
H2203 H 0.87962 0.09482 0.63346 0.0
H2204 H 0.85614 0.07773 0.61722 0.0
H2205 H 0.76163 0.04459 0.64015 0.0
H2206 H 0.77364 0.08753 0.65182 0.0
H2207 H 0.85546 0.10704 0.65537 0.0
C2208 C 0.82919 0.0135 0.6257 0.0
C2209 C 0.80737 0.99096 0.61883 0.0
C2210 C 0.78178 0.98769 0.62027 0.0
C2211 C 0.77801 0.0068 0.62778 0.0
C2212 C 0.79995 0.02895 0.63407 0.0
C2213 C 0.82501 0.03227 0.63337 0.0
C2214 C 0.84526 0.05826 0.64082 0.0
C2215 C 0.85845 0.05457 0.656 0.0
C2216 C 0.86589 0.07528 0.62817 0.0
C2217 C 0.82769 0.06918 0.64543 0.0
C2218 C 0.80164 0.05193 0.64139 0.0
C2219 C 0.7819 0.05814 0.64356 0.0
C2220 C 0.78893 0.08264 0.65006 0.0
C2221 C 0.81543 0.10051 0.65444 0.0
C2222 C 0.835 0.09358 0.65225 0.0
H2223 H 0.50101 0.32997 0.72024 0.0
H2224 H 0.45938 0.37037 0.73407 0.0
H2225 H 0.41866 0.33516 0.72154 0.0
H2226 H 0.466 0.30327 0.68108 0.0
H2227 H 0.46523 0.27284 0.68327 0.0
H2228 H 0.49186 0.30208 0.69231 0.0
H2229 H 0.48158 0.27999 0.72053 0.0
H2230 H 0.45492 0.25082 0.7115 0.0
H2231 H 0.44876 0.26632 0.72859 0.0
H2232 H 0.3819 0.29482 0.7095 0.0
H2233 H 0.35097 0.25163 0.69804 0.0
H2234 H 0.41548 0.23645 0.69125 0.0
C2235 C 0.48334 0.33145 0.72056 0.0
C2236 C 0.48353 0.35315 0.72807 0.0
C2237 C 0.45997 0.35431 0.72816 0.0
C2238 C 0.43666 0.33431 0.72113 0.0
C2239 C 0.43713 0.31324 0.71394 0.0
C2240 C 0.45982 0.31164 0.71349 0.0
C2241 C 0.4545 0.28632 0.70537 0.0
C2242 C 0.47034 0.29145 0.68957 0.0
C2243 C 0.46028 0.2699 0.7172 0.0
C2244 C 0.42518 0.27378 0.70169 0.0
C2245 C 0.41569 0.28979 0.70671 0.0
C2246 C 0.38912 0.28221 0.70538 0.0
C2247 C 0.37167 0.25754 0.69889 0.0
C2248 C 0.38076 0.24063 0.69371 0.0
C2249 C 0.40799 0.24906 0.69493 0.0
H2250 H 0.67103 0.16107 0.71686 0.0
H2251 H 0.62022 0.07854 0.70747 0.0
H2252 H 0.65758 0.07625 0.69564 0.0
H2253 H 0.70847 0.1732 0.67945 0.0
H2254 H 0.74015 0.19647 0.68809 0.0
H2255 H 0.71033 0.19354 0.69642 0.0
H2256 H 0.72087 0.18431 0.72514 0.0
H2257 H 0.75176 0.18882 0.71772 0.0
H2258 H 0.72917 0.15926 0.72787 0.0
H2259 H 0.70069 0.08131 0.68805 0.0
H2260 H 0.7471 0.0945 0.68249 0.0
H2261 H 0.77056 0.17456 0.69362 0.0
C2262 C 0.66784 0.14261 0.71219 0.0
C2263 C 0.6426 0.11997 0.71299 0.0
C2264 C 0.6392 0.09617 0.70677 0.0
C2265 C 0.66035 0.09465 0.70008 0.0
C2266 C 0.68487 0.11718 0.69943 0.0
C2267 C 0.68878 0.14081 0.70512 0.0
C2268 C 0.71738 0.16196 0.70288 0.0
C2269 C 0.71922 0.18254 0.691 0.0
C2270 C 0.73057 0.17431 0.71939 0.0
C2271 C 0.72894 0.14631 0.69548 0.0
C2272 C 0.70973 0.12047 0.69375 0.0
C2273 C 0.71578 0.10158 0.68888 0.0
C2274 C 0.74214 0.10921 0.68575 0.0
C2275 C 0.76209 0.13559 0.68695 0.0
C2276 C 0.75542 0.15445 0.69183 0.0
H2277 H 0.91722 0.5649 0.72401 0.0
H2278 H 0.84632 0.48941 0.71878 0.0
H2279 H 0.82286 0.51016 0.70696 0.0
H2280 H 0.88377 0.60033 0.73552 0.0
H2281 H 0.90635 0.62889 0.7245 0.0
H2282 H 0.91748 0.60814 0.73284 0.0
H2283 H 0.93308 0.60306 0.70415 0.0
H2284 H 0.92191 0.6237 0.69574 0.0
H2285 H 0.90997 0.59159 0.68727 0.0
H2286 H 0.80764 0.53877 0.69467 0.0
H2287 H 0.80123 0.57358 0.68367 0.0
H2288 H 0.88154 0.63058 0.6978 0.0
C2289 C 0.89665 0.55274 0.72063 0.0
C2290 C 0.88367 0.52547 0.72227 0.0
C2291 C 0.85683 0.51027 0.71741 0.0
C2292 C 0.84328 0.52189 0.71078 0.0
C2293 C 0.85674 0.54875 0.7092 0.0
C2294 C 0.88277 0.56402 0.71408 0.0
C2295 C 0.89275 0.59243 0.71086 0.0
C2296 C 0.90054 0.60838 0.72689 0.0
C2297 C 0.91578 0.60332 0.69879 0.0
C2298 C 0.86832 0.5907 0.70327 0.0
C2299 C 0.8478 0.56532 0.7024 0.0
C2300 C 0.82351 0.55874 0.69539 0.0
C2301 C 0.82011 0.57864 0.68912 0.0
C2302 C 0.84087 0.60481 0.68994 0.0
C2303 C 0.86521 0.61084 0.69719 0.0
H2304 H 0.44218 0.92411 0.19037 0.0
H2305 H 0.52372 0.97751 0.20378 0.0
H2306 H 0.53402 0.98991 0.17492 0.0
H2307 H 0.45487 0.90385 0.15022 0.0
H2308 H 0.42659 0.90289 0.14075 0.0
H2309 H 0.4262 0.89628 0.16219 0.0
H2310 H 0.41536 0.93248 0.16903 0.0
H2311 H 0.41574 0.9392 0.14765 0.0
H2312 H 0.43672 0.96486 0.16178 0.0
H2313 H 0.53493 0.99847 0.14481 0.0
H2314 H 0.52578 0.00411 0.11613 0.0
H2315 H 0.4436 0.94548 0.12224 0.0
C2316 C 0.46228 0.93802 0.18714 0.0
C2317 C 0.4822 0.94977 0.19928 0.0
C2318 C 0.50817 0.96834 0.19466 0.0
C2319 C 0.51423 0.97539 0.17829 0.0
C2320 C 0.4941 0.96376 0.16663 0.0
C2321 C 0.46862 0.9455 0.17084 0.0
C2322 C 0.45026 0.93736 0.15613 0.0
C2323 C 0.43881 0.90837 0.15208 0.0
C2324 C 0.42823 0.94387 0.15881 0.0
C2325 C 0.46927 0.95422 0.1431 0.0
C2326 C 0.49453 0.96905 0.14934 0.0
C2327 C 0.51526 0.98676 0.13974 0.0
C2328 C 0.50992 0.98974 0.12342 0.0
C2329 C 0.484 0.97526 0.11688 0.0
C2330 C 0.4636 0.95696 0.12686 0.0
H2331 H 0.07982 0.57426 0.18937 0.0
H2332 H 0.0849 0.5041 0.18941 0.0
H2333 H 0.05922 0.48966 0.16357 0.0
H2334 H 0.01283 0.544 0.17361 0.0
H2335 H 0.01896 0.57151 0.16153 0.0
H2336 H 0.03771 0.57626 0.18 0.0
H2337 H 0.08116 0.60036 0.16377 0.0
H2338 H 0.06255 0.59569 0.14525 0.0
H2339 H 0.08599 0.58456 0.14629 0.0
H2340 H 0.03493 0.484 0.13703 0.0
H2341 H 0.01117 0.48614 0.11259 0.0
H2342 H 0.02012 0.55897 0.13051 0.0
C2343 C 0.07552 0.55588 0.1839 0.0
C2344 C 0.08436 0.54028 0.19132 0.0
C2345 C 0.07813 0.51622 0.18395 0.0
C2346 C 0.06367 0.50793 0.16926 0.0
C2347 C 0.05533 0.5238 0.16221 0.0
C2348 C 0.06079 0.54715 0.16937 0.0
C2349 C 0.04922 0.56038 0.15941 0.0
C2350 C 0.02844 0.56319 0.16923 0.0
C2351 C 0.07103 0.58681 0.15332 0.0
C2352 C 0.03663 0.54097 0.14545 0.0
C2353 C 0.04053 0.52009 0.14724 0.0
C2354 C 0.03155 0.50014 0.13557 0.0
C2355 C 0.01819 0.50154 0.12173 0.0
C2356 C 0.01369 0.52259 0.11978 0.0
C2357 C 0.02297 0.54247 0.13184 0.0
H2358 H 0.46477 0.48775 0.19021 0.0
H2359 H 0.48779 0.56896 0.18641 0.0
H2360 H 0.5001 0.56844 0.15759 0.0
H2361 H 0.51697 0.4912 0.16689 0.0
H2362 H 0.49755 0.45975 0.15722 0.0
H2363 H 0.48867 0.46594 0.1771 0.0
H2364 H 0.44176 0.45221 0.16636 0.0
H2365 H 0.45044 0.44579 0.14646 0.0
H2366 H 0.43798 0.46784 0.1487 0.0
H2367 H 0.51146 0.55936 0.12942 0.0
H2368 H 0.52178 0.54278 0.10437 0.0
H2369 H 0.49168 0.46756 0.12669 0.0
C2370 C 0.47189 0.50528 0.18322 0.0
C2371 C 0.47513 0.52837 0.19052 0.0
C2372 C 0.48518 0.55108 0.18107 0.0
C2373 C 0.49213 0.55093 0.16468 0.0
C2374 C 0.48903 0.52794 0.15792 0.0
C2375 C 0.47913 0.50553 0.1669 0.0
C2376 C 0.47891 0.48373 0.15701 0.0
C2377 C 0.49658 0.47463 0.16504 0.0
C2378 C 0.45059 0.46105 0.15448 0.0
C2379 C 0.49049 0.49743 0.14112 0.0
C2380 C 0.49598 0.52286 0.14184 0.0
C2381 C 0.50708 0.53943 0.1287 0.0
C2382 C 0.51277 0.5298 0.11449 0.0
C2383 C 0.50754 0.50386 0.11351 0.0
C2384 C 0.49615 0.48754 0.12706 0.0
H2385 H 0.98204 0.46238 0.82227 0.0
H2386 H 0.94915 0.51338 0.8243 0.0
H2387 H 0.95939 0.52065 0.85383 0.0
H2388 H 0.95938 0.43351 0.86193 0.0
H2389 H 0.98888 0.43224 0.86625 0.0
H2390 H 0.97786 0.43021 0.84545 0.0
H2391 H 0.02338 0.46931 0.83806 0.0
H2392 H 0.03451 0.47149 0.85884 0.0
H2393 H 0.03596 0.49937 0.84946 0.0
H2394 H 0.97515 0.52391 0.88295 0.0
H2395 H 0.99473 0.5225 0.90938 0.0
H2396 H 0.01672 0.46891 0.88823 0.0
C2397 C 0.97701 0.47512 0.82891 0.0
C2398 C 0.96477 0.4873 0.82096 0.0
C2399 C 0.95823 0.50357 0.83016 0.0
C2400 C 0.96408 0.50792 0.84692 0.0
C2401 C 0.97636 0.49577 0.85433 0.0
C2402 C 0.98265 0.47962 0.84563 0.0
C2403 C 0.99619 0.46925 0.8564 0.0
C2404 C 0.97958 0.43954 0.85757 0.0
C2405 C 0.02417 0.47788 0.85032 0.0
C2406 C 0.99689 0.4824 0.87247 0.0
C2407 C 0.98528 0.49753 0.87106 0.0
C2408 C 0.98409 0.51194 0.88423 0.0
C2409 C 0.99515 0.5109 0.89922 0.0
C2410 C 0.00725 0.49556 0.90094 0.0
C2411 C 0.0079 0.48105 0.88733 0.0
H2412 H 0.52962 0.44625 0.8378 0.0
H2413 H 0.5656 0.52005 0.81311 0.0
H2414 H 0.5539 0.5394 0.83612 0.0
H2415 H 0.47531 0.45012 0.8555 0.0
H2416 H 0.47626 0.43568 0.8745 0.0
H2417 H 0.48713 0.42742 0.856 0.0
H2418 H 0.53226 0.44121 0.8697 0.0
H2419 H 0.52155 0.44959 0.88822 0.0
H2420 H 0.55136 0.47337 0.87849 0.0
H2421 H 0.53732 0.55053 0.86126 0.0
H2422 H 0.51836 0.55326 0.8876 0.0
H2423 H 0.49473 0.47304 0.897 0.0
C2424 C 0.53488 0.46644 0.83724 0.0
C2425 C 0.54851 0.48168 0.82365 0.0
C2426 C 0.55534 0.5081 0.82344 0.0
C2427 C 0.54871 0.51923 0.83643 0.0
C2428 C 0.53544 0.50378 0.84967 0.0
C2429 C 0.52873 0.47801 0.85026 0.0
C2430 C 0.51492 0.46595 0.86614 0.0
C2431 C 0.48673 0.44346 0.86283 0.0
C2432 C 0.53099 0.45701 0.87623 0.0
C2433 C 0.51476 0.48891 0.87429 0.0
C2434 C 0.52658 0.51048 0.86449 0.0
C2435 C 0.52815 0.53382 0.86907 0.0
C2436 C 0.51728 0.53518 0.88402 0.0
C2437 C 0.50519 0.51342 0.89434 0.0
C2438 C 0.50413 0.49005 0.88943 0.0
H2439 H 0.50409 0.06298 0.82354 0.0
H2440 H 0.5891 0.09776 0.82638 0.0
H2441 H 0.58549 0.08315 0.8549 0.0
H2442 H 0.49396 0.07676 0.86596 0.0
H2443 H 0.4638 0.04614 0.86781 0.0
H2444 H 0.4734 0.06139 0.84822 0.0
H2445 H 0.47045 0.0197 0.83594 0.0
H2446 H 0.46098 0.00438 0.85548 0.0
H2447 H 0.48922 0.0067 0.84521 0.0
H2448 H 0.5722 0.06274 0.88284 0.0
H2449 H 0.55033 0.03684 0.90722 0.0
H2450 H 0.47399 0.01494 0.88587 0.0
C2451 C 0.52199 0.06803 0.83029 0.0
C2452 C 0.54692 0.08175 0.82278 0.0
C2453 C 0.56981 0.0873 0.83189 0.0
C2454 C 0.56795 0.07916 0.84811 0.0
C2455 C 0.54303 0.06536 0.85507 0.0
C2456 C 0.52045 0.05982 0.84643 0.0
C2457 C 0.49594 0.04327 0.85632 0.0
C2458 C 0.48089 0.05776 0.85978 0.0
C2459 C 0.47811 0.01696 0.84773 0.0
C2460 C 0.50819 0.04006 0.87179 0.0
C2461 C 0.53539 0.05319 0.87094 0.0
C2462 C 0.55092 0.05255 0.88367 0.0
C2463 C 0.53832 0.03787 0.89752 0.0
C2464 C 0.51043 0.02379 0.8985 0.0
C2465 C 0.49533 0.02527 0.88548 0.0
H2466 H 0.14627 0.31379 0.52847 0.0
H2467 H 0.12967 0.23472 0.52106 0.0
H2468 H 0.13876 0.24302 0.49162 0.0
H2469 H 0.11804 0.31888 0.48998 0.0
H2470 H 0.14302 0.35233 0.48729 0.0
H2471 H 0.1338 0.3396 0.50754 0.0
H2472 H 0.18258 0.35425 0.51427 0.0
H2473 H 0.19194 0.36696 0.49404 0.0
H2474 H 0.20013 0.34342 0.50134 0.0
H2475 H 0.15246 0.26111 0.46301 0.0
H2476 H 0.16868 0.28694 0.43798 0.0
H2477 H 0.17525 0.35381 0.46416 0.0
C2478 C 0.14451 0.29816 0.52068 0.0
C2479 C 0.13724 0.27356 0.52716 0.0
C2480 C 0.13488 0.25362 0.51642 0.0
C2481 C 0.14014 0.25821 0.49967 0.0
C2482 C 0.14759 0.28279 0.49375 0.0
C2483 C 0.14959 0.30237 0.50395 0.0
C2484 C 0.15844 0.32722 0.49467 0.0
C2485 C 0.13705 0.33495 0.49488 0.0
C2486 C 0.18484 0.34926 0.50148 0.0
C2487 C 0.16159 0.31875 0.4777 0.0
C2488 C 0.15514 0.29303 0.47738 0.0
C2489 C 0.15728 0.28118 0.46312 0.0
C2490 C 0.16638 0.29602 0.44889 0.0
C2491 C 0.17329 0.32252 0.44894 0.0
C2492 C 0.1705 0.33376 0.46362 0.0
H2493 H 0.74068 0.90015 0.52011 0.0
H2494 H 0.74966 0.83215 0.52027 0.0
H2495 H 0.71924 0.81394 0.49658 0.0
H2496 H 0.67108 0.86614 0.50896 0.0
H2497 H 0.67392 0.89184 0.49622 0.0
H2498 H 0.69595 0.89931 0.51342 0.0
H2499 H 0.73616 0.92268 0.49436 0.0
H2500 H 0.71427 0.91535 0.47712 0.0
H2501 H 0.73874 0.90548 0.47684 0.0
H2502 H 0.69002 0.80432 0.47195 0.0
H2503 H 0.66252 0.80322 0.44863 0.0
H2504 H 0.6711 0.87658 0.46501 0.0
C2505 C 0.73624 0.88144 0.51513 0.0
C2506 C 0.74753 0.86754 0.52201 0.0
C2507 C 0.74104 0.843 0.51528 0.0
C2508 C 0.72386 0.83254 0.5018 0.0
C2509 C 0.71313 0.84675 0.49529 0.0
C2510 C 0.71891 0.87059 0.50179 0.0
C2511 C 0.70481 0.88193 0.49242 0.0
C2512 C 0.68528 0.88498 0.50341 0.0
C2513 C 0.72468 0.90789 0.48473 0.0
C2514 C 0.6905 0.86092 0.47951 0.0
C2515 C 0.69563 0.84084 0.48137 0.0
C2516 C 0.68563 0.81979 0.47047 0.0
C2517 C 0.67012 0.81934 0.45727 0.0
C2518 C 0.66456 0.83967 0.45517 0.0
C2519 C 0.67469 0.86058 0.46653 0.0
H2520 H 0.17232 0.86252 0.53065 0.0
H2521 H 0.09264 0.84774 0.52321 0.0
H2522 H 0.09749 0.84482 0.49332 0.0
H2523 H 0.20043 0.9019 0.49457 0.0
H2524 H 0.22204 0.88914 0.49067 0.0
H2525 H 0.21243 0.89111 0.51126 0.0
H2526 H 0.19488 0.84191 0.51464 0.0
H2527 H 0.20435 0.83978 0.49405 0.0
H2528 H 0.17074 0.81907 0.5003 0.0
H2529 H 0.11045 0.8405 0.46421 0.0
H2530 H 0.13064 0.83673 0.43866 0.0
H2531 H 0.20261 0.85674 0.46546 0.0
C2532 C 0.15589 0.85872 0.52273 0.0
C2533 C 0.13204 0.85522 0.52925 0.0
C2534 C 0.11113 0.85063 0.51846 0.0
C2535 C 0.11369 0.84886 0.50149 0.0
C2536 C 0.13741 0.85207 0.4955 0.0
C2537 C 0.15821 0.85717 0.50582 0.0
C2538 C 0.18152 0.85959 0.49642 0.0
C2539 C 0.20552 0.88707 0.49835 0.0
C2540 C 0.18825 0.83885 0.50167 0.0
C2541 C 0.17045 0.85452 0.4792 0.0
C2542 C 0.14501 0.85026 0.47886 0.0
C2543 C 0.1305 0.84416 0.46433 0.0
C2544 C 0.14224 0.84222 0.44983 0.0
C2545 C 0.16832 0.84644 0.4499 0.0
C2546 C 0.18255 0.85301 0.46487 0.0
H2547 H 0.64779 0.84242 0.15837 0.0
H2548 H 0.5829 0.76284 0.15835 0.0
H2549 H 0.58541 0.76287 0.1885 0.0
H2550 H 0.68507 0.83523 0.19117 0.0
H2551 H 0.69636 0.86741 0.1993 0.0
H2552 H 0.68929 0.86081 0.17779 0.0
H2553 H 0.65668 0.87817 0.17939 0.0
H2554 H 0.6636 0.88478 0.20088 0.0
H2555 H 0.6301 0.86436 0.19382 0.0
H2556 H 0.59502 0.7723 0.21912 0.0
H2557 H 0.61021 0.79058 0.24699 0.0
H2558 H 0.66996 0.86292 0.22614 0.0
C2559 C 0.63431 0.8248 0.16461 0.0
C2560 C 0.61519 0.8026 0.15589 0.0
C2561 C 0.59755 0.78022 0.16471 0.0
C2562 C 0.59895 0.77998 0.18185 0.0
C2563 C 0.61817 0.80222 0.19 0.0
C2564 C 0.63554 0.82417 0.18162 0.0
C2565 C 0.65422 0.8457 0.19313 0.0
C2566 C 0.68293 0.85269 0.19017 0.0
C2567 C 0.65094 0.86966 0.19172 0.0
C2568 C 0.64449 0.83259 0.20935 0.0
C2569 C 0.62376 0.80749 0.20738 0.0
C2570 C 0.61134 0.7919 0.22077 0.0
C2571 C 0.62018 0.80239 0.23656 0.0
C2572 C 0.64117 0.82825 0.23879 0.0
C2573 C 0.65359 0.84324 0.22492 0.0
H2574 H 0.17431 0.78965 0.16689 0.0
H2575 H 0.24229 0.86546 0.15826 0.0
H2576 H 0.23373 0.88201 0.18402 0.0
H2577 H 0.13307 0.81286 0.1838 0.0
H2578 H 0.11815 0.78733 0.19851 0.0
H2579 H 0.12983 0.78163 0.17947 0.0
H2580 H 0.15905 0.76782 0.19529 0.0
H2581 H 0.14757 0.77362 0.21438 0.0
H2582 H 0.18241 0.7897 0.21033 0.0
H2583 H 0.21845 0.88977 0.21141 0.0
H2584 H 0.1954 0.88905 0.23688 0.0
H2585 H 0.13697 0.80846 0.2271 0.0
C2586 C 0.18741 0.80973 0.17043 0.0
C2587 C 0.209 0.82627 0.16058 0.0
C2588 C 0.22549 0.85251 0.16554 0.0
C2589 C 0.2209 0.86203 0.18021 0.0
C2590 C 0.1996 0.84512 0.18972 0.0
C2591 C 0.18296 0.81959 0.18494 0.0
C2592 C 0.16113 0.80555 0.19716 0.0
C2593 C 0.13394 0.79631 0.18926 0.0
C2594 C 0.16264 0.78283 0.20474 0.0
C2595 C 0.16807 0.82712 0.20959 0.0
C2596 C 0.19046 0.84974 0.20518 0.0
C2597 C 0.20083 0.87218 0.21493 0.0
C2598 C 0.18773 0.87157 0.22941 0.0
C2599 C 0.16436 0.84877 0.23391 0.0
C2600 C 0.15464 0.82626 0.22388 0.0
H2601 H 0.16152 0.36838 0.15076 0.0
H2602 H 0.24089 0.43117 0.16171 0.0
H2603 H 0.23574 0.41725 0.19036 0.0
H2604 H 0.13275 0.37272 0.18944 0.0
H2605 H 0.11119 0.33809 0.19043 0.0
H2606 H 0.12098 0.3535 0.1709 0.0
H2607 H 0.13865 0.32284 0.16286 0.0
H2608 H 0.1291 0.30747 0.18239 0.0
H2609 H 0.16277 0.32135 0.17581 0.0
H2610 H 0.22267 0.39487 0.21762 0.0
H2611 H 0.20241 0.36684 0.24131 0.0
H2612 H 0.13044 0.32061 0.21298 0.0
C2613 C 0.17769 0.3796 0.1592 0.0
C2614 C 0.20168 0.40091 0.15383 0.0
C2615 C 0.22246 0.41456 0.16535 0.0
C2616 C 0.21966 0.4069 0.18172 0.0
C2617 C 0.19587 0.38567 0.1865 0.0
C2618 C 0.17518 0.37236 0.1756 0.0
C2619 C 0.15181 0.34995 0.18377 0.0
C2620 C 0.12776 0.35381 0.18363 0.0
C2621 C 0.14521 0.32387 0.17573 0.0
C2622 C 0.16272 0.3525 0.20092 0.0
C2623 C 0.18815 0.37322 0.20225 0.0
C2624 C 0.20261 0.37882 0.21676 0.0
C2625 C 0.19079 0.36282 0.23023 0.0
C2626 C 0.16463 0.34145 0.22921 0.0
C2627 C 0.1505 0.33653 0.21428 0.0
H2628 H 0.76805 0.58833 0.85124 0.0
H2629 H 0.85181 0.62218 0.86157 0.0
H2630 H 0.86175 0.63759 0.83338 0.0
H2631 H 0.76935 0.56929 0.80869 0.0
H2632 H 0.74547 0.57793 0.802 0.0
H2633 H 0.74459 0.56722 0.82258 0.0
H2634 H 0.74749 0.60945 0.83379 0.0
H2635 H 0.74842 0.62029 0.81327 0.0
H2636 H 0.77432 0.64042 0.82761 0.0
H2637 H 0.8631 0.65207 0.80454 0.0
H2638 H 0.85558 0.66501 0.77747 0.0
H2639 H 0.77115 0.62268 0.78578 0.0
C2640 C 0.7885 0.59886 0.84761 0.0
C2641 C 0.80906 0.60364 0.85877 0.0
C2642 C 0.83553 0.61751 0.85331 0.0
C2643 C 0.84146 0.62659 0.83728 0.0
C2644 C 0.82078 0.62179 0.82673 0.0
C2645 C 0.79482 0.60823 0.83165 0.0
C2646 C 0.77639 0.60689 0.81812 0.0
C2647 C 0.75786 0.57865 0.81252 0.0
C2648 C 0.76074 0.62005 0.82352 0.0
C2649 C 0.79609 0.62224 0.80497 0.0
C2650 C 0.82157 0.63043 0.81013 0.0
C2651 C 0.84319 0.64553 0.80031 0.0
C2652 C 0.8387 0.65267 0.78487 0.0
C2653 C 0.81277 0.64485 0.77936 0.0
C2654 C 0.79124 0.62917 0.78959 0.0
H2655 H 0.38529 0.22121 0.85626 0.0
H2656 H 0.39913 0.15636 0.85173 0.0
H2657 H 0.36961 0.1402 0.82756 0.0
H2658 H 0.31571 0.18592 0.84262 0.0
H2659 H 0.3188 0.21343 0.83178 0.0
H2660 H 0.33886 0.21839 0.84967 0.0
H2661 H 0.38103 0.2467 0.83298 0.0
H2662 H 0.36115 0.24181 0.81507 0.0
H2663 H 0.38676 0.23348 0.81455 0.0
H2664 H 0.34262 0.13381 0.80226 0.0
H2665 H 0.31873 0.1368 0.7782 0.0
H2666 H 0.32195 0.20541 0.7994 0.0
C2667 C 0.38189 0.20346 0.85028 0.0
C2668 C 0.39445 0.18999 0.8559 0.0
C2669 C 0.38942 0.16678 0.84779 0.0
C2670 C 0.37277 0.15751 0.83401 0.0
C2671 C 0.36109 0.17153 0.82862 0.0
C2672 C 0.36523 0.19388 0.83658 0.0
C2673 C 0.35139 0.20602 0.82785 0.0
C2674 C 0.32991 0.20592 0.83862 0.0
C2675 C 0.37127 0.23363 0.82228 0.0
C2676 C 0.33942 0.18743 0.81345 0.0
C2677 C 0.34513 0.16758 0.81417 0.0
C2678 C 0.33768 0.14902 0.8017 0.0
C2679 C 0.32424 0.15092 0.78807 0.0
C2680 C 0.31834 0.17118 0.78707 0.0
C2681 C 0.32573 0.18942 0.80004 0.0
H2682 H 0.85248 0.2077 0.86245 0.0
H2683 H 0.76693 0.16892 0.86093 0.0
H2684 H 0.76737 0.15931 0.83159 0.0
H2685 H 0.86395 0.23515 0.82178 0.0
H2686 H 0.89107 0.22971 0.81793 0.0
H2687 H 0.88412 0.23535 0.8385 0.0
H2688 H 0.88069 0.19216 0.84736 0.0
H2689 H 0.88755 0.18637 0.82682 0.0
H2690 H 0.85806 0.16242 0.83675 0.0
H2691 H 0.777 0.15171 0.80263 0.0
H2692 H 0.79505 0.14663 0.77653 0.0
H2693 H 0.87421 0.18968 0.79708 0.0
C2694 C 0.83378 0.1972 0.856 0.0
C2695 C 0.80965 0.1892 0.86411 0.0
C2696 C 0.78573 0.17574 0.85503 0.0
C2697 C 0.78575 0.17001 0.83834 0.0
C2698 C 0.80985 0.17786 0.83083 0.0
C2699 C 0.83344 0.19122 0.83936 0.0
C2700 C 0.85657 0.19659 0.82859 0.0
C2701 C 0.87501 0.22595 0.82658 0.0
C2702 C 0.87159 0.1836 0.83528 0.0
C2703 C 0.84229 0.18379 0.81273 0.0
C2704 C 0.81537 0.17328 0.81423 0.0
C2705 C 0.79807 0.16005 0.80129 0.0
C2706 C 0.80854 0.15738 0.78647 0.0
C2707 C 0.83608 0.16777 0.78468 0.0
C2708 C 0.85307 0.18129 0.79804 0.0
H2709 H 0.31742 0.12673 0.49023 0.0
H2710 H 0.28491 0.17808 0.48989 0.0
H2711 H 0.29158 0.18425 0.51975 0.0
H2712 H 0.29084 0.09705 0.52959 0.0
H2713 H 0.32 0.09585 0.53509 0.0
H2714 H 0.31059 0.09383 0.51392 0.0
H2715 H 0.35666 0.13297 0.5076 0.0
H2716 H 0.36617 0.13518 0.52873 0.0
H2717 H 0.3683 0.16303 0.51885 0.0
H2718 H 0.30473 0.18722 0.54943 0.0
H2719 H 0.32294 0.18642 0.57651 0.0
H2720 H 0.3468 0.13312 0.55732 0.0
C2721 C 0.3116 0.13921 0.49642 0.0
C2722 C 0.30057 0.15187 0.48768 0.0
C2723 C 0.29301 0.16784 0.49632 0.0
C2724 C 0.29685 0.17158 0.51328 0.0
C2725 C 0.30817 0.15913 0.52145 0.0
C2726 C 0.31531 0.14317 0.51331 0.0
C2727 C 0.32803 0.13284 0.52481 0.0
C2728 C 0.31136 0.10313 0.52592 0.0
C2729 C 0.35648 0.14153 0.51969 0.0
C2730 C 0.32745 0.14594 0.54064 0.0
C2731 C 0.31575 0.16086 0.53849 0.0
C2732 C 0.31368 0.17537 0.55129 0.0
C2733 C 0.32398 0.17469 0.56665 0.0
C2734 C 0.33628 0.15968 0.56909 0.0
C2735 C 0.33775 0.14499 0.55586 0.0
H2736 H 0.84765 0.13286 0.48954 0.0
H2737 H 0.92311 0.1445 0.50683 0.0
H2738 H 0.91527 0.15771 0.53375 0.0
H2739 H 0.84827 0.18523 0.5121 0.0
H2740 H 0.81367 0.16736 0.51687 0.0
H2741 H 0.8254 0.15968 0.49852 0.0
H2742 H 0.80452 0.11181 0.50736 0.0
H2743 H 0.79261 0.11932 0.52569 0.0
H2744 H 0.81296 0.10463 0.52703 0.0
H2745 H 0.90003 0.17055 0.55874 0.0
H2746 H 0.8772 0.17972 0.58065 0.0
H2747 H 0.80956 0.15584 0.54839 0.0
C2748 C 0.86251 0.13799 0.49897 0.0
C2749 C 0.8863 0.13803 0.49576 0.0
C2750 C 0.90511 0.14505 0.50861 0.0
C2751 C 0.90075 0.15238 0.52408 0.0
C2752 C 0.87728 0.15229 0.52675 0.0
C2753 C 0.85832 0.14504 0.51463 0.0
C2754 C 0.83444 0.14592 0.52096 0.0
C2755 C 0.83021 0.16573 0.51155 0.0
C2756 C 0.80967 0.11881 0.52022 0.0
C2757 C 0.84306 0.15491 0.53848 0.0
C2758 C 0.86792 0.15861 0.54149 0.0
C2759 C 0.88039 0.16738 0.55661 0.0
C2760 C 0.86707 0.17232 0.56906 0.0
C2761 C 0.84126 0.16818 0.56649 0.0
C2762 C 0.82927 0.15941 0.55087 0.0
H2763 H 0.81735 0.68585 0.48313 0.0
H2764 H 0.89466 0.75284 0.49311 0.0
H2765 H 0.89126 0.74001 0.52188 0.0
H2766 H 0.78814 0.68916 0.52193 0.0
H2767 H 0.76862 0.65436 0.52342 0.0
H2768 H 0.77699 0.66917 0.50367 0.0
H2769 H 0.79758 0.64089 0.49592 0.0
H2770 H 0.7895 0.62617 0.51569 0.0
H2771 H 0.82311 0.64185 0.50876 0.0
H2772 H 0.88059 0.71831 0.54928 0.0
H2773 H 0.86259 0.69094 0.57342 0.0
H2774 H 0.79054 0.6402 0.54621 0.0
C2775 C 0.8334 0.6982 0.49137 0.0
C2776 C 0.85638 0.72036 0.48567 0.0
C2777 C 0.87705 0.73553 0.49697 0.0
C2778 C 0.87523 0.7285 0.51342 0.0
C2779 C 0.85249 0.70638 0.51851 0.0
C2780 C 0.83181 0.69163 0.50787 0.0
C2781 C 0.80962 0.66865 0.51643 0.0
C2782 C 0.78435 0.67045 0.51636 0.0
C2783 C 0.80467 0.64287 0.50874 0.0
C2784 C 0.82121 0.67258 0.5335 0.0
C2785 C 0.84597 0.69442 0.53443 0.0
C2786 C 0.86101 0.70142 0.54876 0.0
C2787 C 0.85044 0.68577 0.5625 0.0
C2788 C 0.82488 0.66338 0.56197 0.0
C2789 C 0.81018 0.65694 0.54717 0.0
loop_
_geom_bond_atom_site_label_1
_geom_bond_atom_site_label_2
_geom_bond_distance
_geom_bond_site_symmetry_2
_ccdc_geom_bond_type
P0 O11 1.490 . S
P0 C14 1.812 . S
P0 C20 1.803 . S
P0 C26 1.819 . S
H1 C15 0.941 . S
H2 C16 0.939 . S
H3 C18 0.940 . S
H4 C19 0.940 . S
H5 C21 0.939 . S
H6 C22 0.942 . S
H7 C24 0.940 . S
H8 C25 0.939 . S
H9 C27 0.941 . S
H10 C31 0.939 . S
O11 P0 1.490 . S
H12 C28 0.939 . S
H13 C30 0.940 . S
C14 P0 1.812 . S
C14 C15 1.389 . S
C14 C19 1.391 . S
C15 H1 0.941 . S
C15 C14 1.389 . S
C15 C16 1.397 . S
C16 H2 0.939 . S
C16 C15 1.397 . S
C16 C17 1.378 . S
C17 C16 1.378 . S
C17 C18 1.378 . S
C18 H3 0.940 . S
C18 C17 1.378 . S
C18 C19 1.396 . S
C19 H4 0.940 . S
C19 C14 1.391 . S
C19 C18 1.396 . S
C20 P0 1.803 . S
C20 C21 1.378 . S
C20 C25 1.400 . S
C21 H5 0.939 . S
C21 C20 1.378 . S
C21 C22 1.361 . S
C22 H6 0.942 . S
C22 C21 1.361 . S
C22 C23 1.369 . S
C23 C22 1.369 . S
C23 C24 1.404 . S
C24 H7 0.940 . S
C24 C23 1.404 . S
C24 C25 1.389 . S
C25 H8 0.939 . S
C25 C20 1.400 . S
C25 C24 1.389 . S
C26 P0 1.819 . S
C26 C27 1.391 . S
C26 C31 1.391 . S
C27 H9 0.941 . S
C27 C26 1.391 . S
C27 C28 1.396 . S
C28 H12 0.939 . S
C28 C27 1.396 . S
C28 C29 1.397 . S
C29 C28 1.397 . S
C29 C30 1.385 . S
C30 H13 0.940 . S
C30 C29 1.385 . S
C30 C31 1.388 . S
C31 H10 0.939 . S
C31 C26 1.391 . S
C31 C30 1.388 . S
P32 O43 1.490 . S
P32 C46 1.812 . S
P32 C52 1.803 . S
P32 C58 1.819 . S
H33 C47 0.941 . S
H34 C48 0.939 . S
H35 C50 0.940 . S
H36 C51 0.940 . S
H37 C53 0.939 . S
H38 C54 0.942 . S
H39 C56 0.940 . S
H40 C57 0.939 . S
H41 C59 0.941 . S
H42 C63 0.939 . S
O43 P32 1.490 . S
H44 C60 0.939 . S
H45 C62 0.940 . S
C46 P32 1.812 . S
C46 C47 1.389 . S
C46 C51 1.391 . S
C47 H33 0.941 . S
C47 C46 1.389 . S
C47 C48 1.397 . S
C48 H34 0.939 . S
C48 C47 1.397 . S
C48 C49 1.378 . S
C49 C48 1.378 . S
C49 C50 1.378 . S
C50 H35 0.940 . S
C50 C49 1.378 . S
C50 C51 1.396 . S
C51 H36 0.940 . S
C51 C46 1.391 . S
C51 C50 1.396 . S
C52 P32 1.803 . S
C52 C53 1.378 . S
C52 C57 1.400 . S
C53 H37 0.939 . S
C53 C52 1.378 . S
C53 C54 1.361 . S
C54 H38 0.942 . S
C54 C53 1.361 . S
C54 C55 1.369 . S
C55 C54 1.369 . S
C55 C56 1.404 . S
C56 H39 0.940 . S
C56 C55 1.404 . S
C56 C57 1.389 . S
C57 H40 0.939 . S
C57 C52 1.400 . S
C57 C56 1.389 . S
C58 P32 1.819 . S
C58 C59 1.391 . S
C58 C63 1.391 . S
C59 H41 0.941 . S
C59 C58 1.391 . S
C59 C60 1.396 . S
C60 H44 0.939 . S
C60 C59 1.396 . S
C60 C61 1.397 . S
C61 C60 1.397 . S
C61 C62 1.385 . S
C62 H45 0.940 . S
C62 C61 1.385 . S
C62 C63 1.388 . S
C63 H42 0.939 . S
C63 C58 1.391 . S
C63 C62 1.388 . S
P64 O75 1.490 . S
P64 C78 1.812 . S
P64 C84 1.803 . S
P64 C90 1.819 . S
H65 C79 0.941 . S
H66 C80 0.939 . S
H67 C82 0.940 . S
H68 C83 0.940 . S
H69 C85 0.939 . S
H70 C86 0.942 . S
H71 C88 0.940 . S
H72 C89 0.939 . S
H73 C91 0.941 . S
H74 C95 0.939 . S
O75 P64 1.490 . S
H76 C92 0.939 . S
H77 C94 0.940 . S
C78 P64 1.812 . S
C78 C79 1.389 . S
C78 C83 1.391 . S
C79 H65 0.941 . S
C79 C78 1.389 . S
C79 C80 1.397 . S
C80 H66 0.939 . S
C80 C79 1.397 . S
C80 C81 1.378 . S
C81 C80 1.378 . S
C81 C82 1.378 . S
C82 H67 0.940 . S
C82 C81 1.378 . S
C82 C83 1.396 . S
C83 H68 0.940 . S
C83 C78 1.391 . S
C83 C82 1.396 . S
C84 P64 1.803 . S
C84 C85 1.378 . S
C84 C89 1.400 . S
C85 H69 0.939 . S
C85 C84 1.378 . S
C85 C86 1.361 . S
C86 H70 0.942 . S
C86 C85 1.361 . S
C86 C87 1.369 . S
C87 C86 1.369 . S
C87 C88 1.404 . S
C88 H71 0.940 . S
C88 C87 1.404 . S
C88 C89 1.389 . S
C89 H72 0.939 . S
C89 C84 1.400 . S
C89 C88 1.389 . S
C90 P64 1.819 . S
C90 C91 1.391 . S
C90 C95 1.391 . S
C91 H73 0.941 . S
C91 C90 1.391 . S
C91 C92 1.396 . S
C92 H76 0.939 . S
C92 C91 1.396 . S
C92 C93 1.397 . S
C93 C92 1.397 . S
C93 C94 1.385 . S
C94 H77 0.940 . S
C94 C93 1.385 . S
C94 C95 1.388 . S
C95 H74 0.939 . S
C95 C90 1.391 . S
C95 C94 1.388 . S
P96 O107 1.490 . S
P96 C110 1.812 . S
P96 C116 1.803 . S
P96 C122 1.819 . S
H97 C111 0.941 . S
H98 C112 0.939 . S
H99 C114 0.940 . S
H100 C115 0.940 . S
H101 C117 0.939 . S
H102 C118 0.942 . S
H103 C120 0.940 . S
H104 C121 0.939 . S
H105 C123 0.941 . S
H106 C127 0.939 . S
O107 P96 1.490 . S
H108 C124 0.939 . S
H109 C126 0.940 . S
C110 P96 1.812 . S
C110 C111 1.389 . S
C110 C115 1.391 . S
C111 H97 0.941 . S
C111 C110 1.389 . S
C111 C112 1.397 . S
C112 H98 0.939 . S
C112 C111 1.397 . S
C112 C113 1.378 . S
C113 C112 1.378 . S
C113 C114 1.378 . S
C114 H99 0.940 . S
C114 C113 1.378 . S
C114 C115 1.396 . S
C115 H100 0.940 . S
C115 C110 1.391 . S
C115 C114 1.396 . S
C116 P96 1.803 . S
C116 C117 1.378 . S
C116 C121 1.400 . S
C117 H101 0.939 . S
C117 C116 1.378 . S
C117 C118 1.361 . S
C118 H102 0.942 . S
C118 C117 1.361 . S
C118 C119 1.369 . S
C119 C118 1.369 . S
C119 C120 1.404 . S
C120 H103 0.940 . S
C120 C119 1.404 . S
C120 C121 1.389 . S
C121 H104 0.939 . S
C121 C116 1.400 . S
C121 C120 1.389 . S
C122 P96 1.819 . S
C122 C123 1.391 . S
C122 C127 1.391 . S
C123 H105 0.941 . S
C123 C122 1.391 . S
C123 C124 1.396 . S
C124 H108 0.939 . S
C124 C123 1.396 . S
C124 C125 1.397 . S
C125 C124 1.397 . S
C125 C126 1.385 . S
C126 H109 0.940 . S
C126 C125 1.385 . S
C126 C127 1.388 . S
C127 H106 0.939 . S
C127 C122 1.391 . S
C127 C126 1.388 . S
P128 O139 1.490 . S
P128 C142 1.812 . S
P128 C148 1.803 . S
P128 C154 1.819 . S
H129 C143 0.941 . S
H130 C144 0.939 . S
H131 C146 0.940 . S
H132 C147 0.940 . S
H133 C149 0.939 . S
H134 C150 0.942 . S
H135 C152 0.940 . S
H136 C153 0.939 . S
H137 C155 0.941 . S
H138 C159 0.939 . S
O139 P128 1.490 . S
H140 C156 0.939 . S
H141 C158 0.940 . S
C142 P128 1.812 . S
C142 C143 1.389 . S
C142 C147 1.391 . S
C143 H129 0.941 . S
C143 C142 1.389 . S
C143 C144 1.397 . S
C144 H130 0.939 . S
C144 C143 1.397 . S
C144 C145 1.378 . S
C145 C144 1.378 . S
C145 C146 1.378 . S
C146 H131 0.940 . S
C146 C145 1.378 . S
C146 C147 1.396 . S
C147 H132 0.940 . S
C147 C142 1.391 . S
C147 C146 1.396 . S
C148 P128 1.803 . S
C148 C149 1.378 . S
C148 C153 1.400 . S
C149 H133 0.939 . S
C149 C148 1.378 . S
C149 C150 1.361 . S
C150 H134 0.942 . S
C150 C149 1.361 . S
C150 C151 1.369 . S
C151 C150 1.369 . S
C151 C152 1.404 . S
C152 H135 0.940 . S
C152 C151 1.404 . S
C152 C153 1.389 . S
C153 H136 0.939 . S
C153 C148 1.400 . S
C153 C152 1.389 . S
C154 P128 1.819 . S
C154 C155 1.391 . S
C154 C159 1.391 . S
C155 H137 0.941 . S
C155 C154 1.391 . S
C155 C156 1.396 . S
C156 H140 0.939 . S
C156 C155 1.396 . S
C156 C157 1.397 . S
C157 C156 1.397 . S
C157 C158 1.385 . S
C158 H141 0.940 . S
C158 C157 1.385 . S
C158 C159 1.388 . S
C159 H138 0.939 . S
C159 C154 1.391 . S
C159 C158 1.388 . S
P160 O171 1.490 . S
P160 C174 1.812 . S
P160 C180 1.803 . S
P160 C186 1.819 . S
H161 C175 0.941 . S
H162 C176 0.939 . S
H163 C178 0.940 . S
H164 C179 0.940 . S
H165 C181 0.939 . S
H166 C182 0.942 . S
H167 C184 0.940 . S
H168 C185 0.939 . S
H169 C187 0.941 . S
H170 C191 0.939 . S
O171 P160 1.490 . S
H172 C188 0.939 . S
H173 C190 0.940 . S
C174 P160 1.812 . S
C174 C175 1.389 . S
C174 C179 1.391 . S
C175 H161 0.941 . S
C175 C174 1.389 . S
C175 C176 1.397 . S
C176 H162 0.939 . S
C176 C175 1.397 . S
C176 C177 1.378 . S
C177 C176 1.378 . S
C177 C178 1.378 . S
C178 H163 0.940 . S
C178 C177 1.378 . S
C178 C179 1.396 . S
C179 H164 0.940 . S
C179 C174 1.391 . S
C179 C178 1.396 . S
C180 P160 1.803 . S
C180 C181 1.378 . S
C180 C185 1.400 . S
C181 H165 0.939 . S
C181 C180 1.378 . S
C181 C182 1.361 . S
C182 H166 0.942 . S
C182 C181 1.361 . S
C182 C183 1.369 . S
C183 C182 1.369 . S
C183 C184 1.404 . S
C184 H167 0.940 . S
C184 C183 1.404 . S
C184 C185 1.389 . S
C185 H168 0.939 . S
C185 C180 1.400 . S
C185 C184 1.389 . S
C186 P160 1.819 . S
C186 C187 1.391 . S
C186 C191 1.391 . S
C187 H169 0.941 . S
C187 C186 1.391 . S
C187 C188 1.396 . S
C188 H172 0.939 . S
C188 C187 1.396 . S
C188 C189 1.397 . S
C189 C188 1.397 . S
C189 C190 1.385 . S
C190 H173 0.940 . S
C190 C189 1.385 . S
C190 C191 1.388 . S
C191 H170 0.939 . S
C191 C186 1.391 . S
C191 C190 1.388 . S
P192 O203 1.490 . S
P192 C206 1.812 . S
P192 C212 1.803 . S
P192 C218 1.819 . S
H193 C207 0.941 . S
H194 C208 0.939 . S
H195 C210 0.940 . S
H196 C211 0.940 . S
H197 C213 0.939 . S
H198 C214 0.942 . S
H199 C216 0.940 . S
H200 C217 0.939 . S
H201 C219 0.941 . S
H202 C223 0.939 . S
O203 P192 1.490 . S
H204 C220 0.939 . S
H205 C222 0.940 . S
C206 P192 1.812 . S
C206 C207 1.389 . S
C206 C211 1.391 . S
C207 H193 0.941 . S
C207 C206 1.389 . S
C207 C208 1.397 . S
C208 H194 0.939 . S
C208 C207 1.397 . S
C208 C209 1.378 . S
C209 C208 1.378 . S
C209 C210 1.378 . S
C210 H195 0.940 . S
C210 C209 1.378 . S
C210 C211 1.396 . S
C211 H196 0.940 . S
C211 C206 1.391 . S
C211 C210 1.396 . S
C212 P192 1.803 . S
C212 C213 1.378 . S
C212 C217 1.400 . S
C213 H197 0.939 . S
C213 C212 1.378 . S
C213 C214 1.361 . S
C214 H198 0.942 . S
C214 C213 1.361 . S
C214 C215 1.369 . S
C215 C214 1.369 . S
C215 C216 1.404 . S
C216 H199 0.940 . S
C216 C215 1.404 . S
C216 C217 1.389 . S
C217 H200 0.939 . S
C217 C212 1.400 . S
C217 C216 1.389 . S
C218 P192 1.819 . S
C218 C219 1.391 . S
C218 C223 1.391 . S
C219 H201 0.941 . S
C219 C218 1.391 . S
C219 C220 1.396 . S
C220 H204 0.939 . S
C220 C219 1.396 . S
C220 C221 1.397 . S
C221 C220 1.397 . S
C221 C222 1.385 . S
C222 H205 0.940 . S
C222 C221 1.385 . S
C222 C223 1.388 . S
C223 H202 0.939 . S
C223 C218 1.391 . S
C223 C222 1.388 . S
P224 O235 1.490 . S
P224 C238 1.812 . S
P224 C244 1.803 . S
P224 C250 1.819 . S
H225 C239 0.941 . S
H226 C240 0.939 . S
H227 C242 0.940 . S
H228 C243 0.940 . S
H229 C245 0.939 . S
H230 C246 0.942 . S
H231 C248 0.940 . S
H232 C249 0.939 . S
H233 C251 0.941 . S
H234 C255 0.939 . S
O235 P224 1.490 . S
H236 C252 0.939 . S
H237 C254 0.940 . S
C238 P224 1.812 . S
C238 C239 1.389 . S
C238 C243 1.391 . S
C239 H225 0.941 . S
C239 C238 1.389 . S
C239 C240 1.397 . S
C240 H226 0.939 . S
C240 C239 1.397 . S
C240 C241 1.378 . S
C241 C240 1.378 . S
C241 C242 1.378 . S
C242 H227 0.940 . S
C242 C241 1.378 . S
C242 C243 1.396 . S
C243 H228 0.940 . S
C243 C238 1.391 . S
C243 C242 1.396 . S
C244 P224 1.803 . S
C244 C245 1.378 . S
C244 C249 1.400 . S
C245 H229 0.939 . S
C245 C244 1.378 . S
C245 C246 1.361 . S
C246 H230 0.942 . S
C246 C245 1.361 . S
C246 C247 1.369 . S
C247 C246 1.369 . S
C247 C248 1.404 . S
C248 H231 0.940 . S
C248 C247 1.404 . S
C248 C249 1.389 . S
C249 H232 0.939 . S
C249 C244 1.400 . S
C249 C248 1.389 . S
C250 P224 1.819 . S
C250 C251 1.391 . S
C250 C255 1.391 . S
C251 H233 0.941 . S
C251 C250 1.391 . S
C251 C252 1.396 . S
C252 H236 0.939 . S
C252 C251 1.396 . S
C252 C253 1.397 . S
C253 C252 1.397 . S
C253 C254 1.385 . S
C254 H237 0.940 . S
C254 C253 1.385 . S
C254 C255 1.388 . S
C255 H234 0.939 . S
C255 C250 1.391 . S
C255 C254 1.388 . S
P256 O267 1.490 . S
P256 C270 1.812 . S
P256 C276 1.803 . S
P256 C282 1.819 . S
H257 C271 0.941 . S
H258 C272 0.939 . S
H259 C274 0.940 . S
H260 C275 0.940 . S
H261 C277 0.939 . S
H262 C278 0.942 . S
H263 C280 0.940 . S
H264 C281 0.939 . S
H265 C283 0.941 . S
H266 C287 0.939 . S
O267 P256 1.490 . S
H268 C284 0.939 . S
H269 C286 0.940 . S
C270 P256 1.812 . S
C270 C271 1.389 . S
C270 C275 1.391 . S
C271 H257 0.941 . S
C271 C270 1.389 . S
C271 C272 1.397 . S
C272 H258 0.939 . S
C272 C271 1.397 . S
C272 C273 1.378 . S
C273 C272 1.378 . S
C273 C274 1.378 . S
C274 H259 0.940 . S
C274 C273 1.378 . S
C274 C275 1.396 . S
C275 H260 0.940 . S
C275 C270 1.391 . S
C275 C274 1.396 . S
C276 P256 1.803 . S
C276 C277 1.378 . S
C276 C281 1.400 . S
C277 H261 0.939 . S
C277 C276 1.378 . S
C277 C278 1.361 . S
C278 H262 0.942 . S
C278 C277 1.361 . S
C278 C279 1.369 . S
C279 C278 1.369 . S
C279 C280 1.404 . S
C280 H263 0.940 . S
C280 C279 1.404 . S
C280 C281 1.389 . S
C281 H264 0.939 . S
C281 C276 1.400 . S
C281 C280 1.389 . S
C282 P256 1.819 . S
C282 C283 1.391 . S
C282 C287 1.391 . S
C283 H265 0.941 . S
C283 C282 1.391 . S
C283 C284 1.396 . S
C284 H268 0.939 . S
C284 C283 1.396 . S
C284 C285 1.397 . S
C285 C284 1.397 . S
C285 C286 1.385 . S
C286 H269 0.940 . S
C286 C285 1.385 . S
C286 C287 1.388 . S
C287 H266 0.939 . S
C287 C282 1.391 . S
C287 C286 1.388 . S
P288 O299 1.490 . S
P288 C302 1.812 . S
P288 C308 1.803 . S
P288 C314 1.819 . S
H289 C303 0.941 . S
H290 C304 0.939 . S
H291 C306 0.940 . S
H292 C307 0.940 . S
H293 C309 0.939 . S
H294 C310 0.942 . S
H295 C312 0.940 . S
H296 C313 0.939 . S
H297 C315 0.941 . S
H298 C319 0.939 . S
O299 P288 1.490 . S
H300 C316 0.939 . S
H301 C318 0.940 . S
C302 P288 1.812 . S
C302 C303 1.389 . S
C302 C307 1.391 . S
C303 H289 0.941 . S
C303 C302 1.389 . S
C303 C304 1.397 . S
C304 H290 0.939 . S
C304 C303 1.397 . S
C304 C305 1.378 . S
C305 C304 1.378 . S
C305 C306 1.378 . S
C306 H291 0.940 . S
C306 C305 1.378 . S
C306 C307 1.396 . S
C307 H292 0.940 . S
C307 C302 1.391 . S
C307 C306 1.396 . S
C308 P288 1.803 . S
C308 C309 1.378 . S
C308 C313 1.400 . S
C309 H293 0.939 . S
C309 C308 1.378 . S
C309 C310 1.361 . S
C310 H294 0.942 . S
C310 C309 1.361 . S
C310 C311 1.369 . S
C311 C310 1.369 . S
C311 C312 1.404 . S
C312 H295 0.940 . S
C312 C311 1.404 . S
C312 C313 1.389 . S
C313 H296 0.939 . S
C313 C308 1.400 . S
C313 C312 1.389 . S
C314 P288 1.819 . S
C314 C315 1.391 . S
C314 C319 1.391 . S
C315 H297 0.941 . S
C315 C314 1.391 . S
C315 C316 1.396 . S
C316 H300 0.939 . S
C316 C315 1.396 . S
C316 C317 1.397 . S
C317 C316 1.397 . S
C317 C318 1.385 . S
C318 H301 0.940 . S
C318 C317 1.385 . S
C318 C319 1.388 . S
C319 H298 0.939 . S
C319 C314 1.391 . S
C319 C318 1.388 . S
P320 O331 1.490 . S
P320 C334 1.812 . S
P320 C340 1.803 . S
P320 C346 1.819 . S
H321 C335 0.941 . S
H322 C336 0.939 . S
H323 C338 0.940 . S
H324 C339 0.940 . S
H325 C341 0.939 . S
H326 C342 0.942 . S
H327 C344 0.940 . S
H328 C345 0.939 . S
H329 C347 0.941 . S
H330 C351 0.939 . S
O331 P320 1.490 . S
H332 C348 0.939 . S
H333 C350 0.940 . S
C334 P320 1.812 . S
C334 C335 1.389 . S
C334 C339 1.391 . S
C335 H321 0.941 . S
C335 C334 1.389 . S
C335 C336 1.397 . S
C336 H322 0.939 . S
C336 C335 1.397 . S
C336 C337 1.378 . S
C337 C336 1.378 . S
C337 C338 1.378 . S
C338 H323 0.940 . S
C338 C337 1.378 . S
C338 C339 1.396 . S
C339 H324 0.940 . S
C339 C334 1.391 . S
C339 C338 1.396 . S
C340 P320 1.803 . S
C340 C341 1.378 . S
C340 C345 1.400 . S
C341 H325 0.939 . S
C341 C340 1.378 . S
C341 C342 1.361 . S
C342 H326 0.942 . S
C342 C341 1.361 . S
C342 C343 1.369 . S
C343 C342 1.369 . S
C343 C344 1.404 . S
C344 H327 0.940 . S
C344 C343 1.404 . S
C344 C345 1.389 . S
C345 H328 0.939 . S
C345 C340 1.400 . S
C345 C344 1.389 . S
C346 P320 1.819 . S
C346 C347 1.391 . S
C346 C351 1.391 . S
C347 H329 0.941 . S
C347 C346 1.391 . S
C347 C348 1.396 . S
C348 H332 0.939 . S
C348 C347 1.396 . S
C348 C349 1.397 . S
C349 C348 1.397 . S
C349 C350 1.385 . S
C350 H333 0.940 . S
C350 C349 1.385 . S
C350 C351 1.388 . S
C351 H330 0.939 . S
C351 C346 1.391 . S
C351 C350 1.388 . S
P352 O363 1.490 . S
P352 C366 1.812 . S
P352 C372 1.803 . S
P352 C378 1.819 . S
H353 C367 0.941 . S
H354 C368 0.939 . S
H355 C370 0.940 . S
H356 C371 0.940 . S
H357 C373 0.939 . S
H358 C374 0.942 . S
H359 C376 0.940 . S
H360 C377 0.939 . S
H361 C379 0.941 . S
H362 C383 0.939 . S
O363 P352 1.490 . S
H364 C380 0.939 . S
H365 C382 0.940 . S
C366 P352 1.812 . S
C366 C367 1.389 . S
C366 C371 1.391 . S
C367 H353 0.941 . S
C367 C366 1.389 . S
C367 C368 1.397 . S
C368 H354 0.939 . S
C368 C367 1.397 . S
C368 C369 1.378 . S
C369 C368 1.378 . S
C369 C370 1.378 . S
C370 H355 0.940 . S
C370 C369 1.378 . S
C370 C371 1.396 . S
C371 H356 0.940 . S
C371 C366 1.391 . S
C371 C370 1.396 . S
C372 P352 1.803 . S
C372 C373 1.378 . S
C372 C377 1.400 . S
C373 H357 0.939 . S
C373 C372 1.378 . S
C373 C374 1.361 . S
C374 H358 0.942 . S
C374 C373 1.361 . S
C374 C375 1.369 . S
C375 C374 1.369 . S
C375 C376 1.404 . S
C376 H359 0.940 . S
C376 C375 1.404 . S
C376 C377 1.389 . S
C377 H360 0.939 . S
C377 C372 1.400 . S
C377 C376 1.389 . S
C378 P352 1.819 . S
C378 C379 1.391 . S
C378 C383 1.391 . S
C379 H361 0.941 . S
C379 C378 1.391 . S
C379 C380 1.396 . S
C380 H364 0.939 . S
C380 C379 1.396 . S
C380 C381 1.397 . S
C381 C380 1.397 . S
C381 C382 1.385 . S
C382 H365 0.940 . S
C382 C381 1.385 . S
C382 C383 1.388 . S
C383 H362 0.939 . S
C383 C378 1.391 . S
C383 C382 1.388 . S
P384 O395 1.490 . S
P384 C398 1.812 . S
P384 C404 1.803 . S
P384 C410 1.819 . S
H385 C399 0.941 . S
H386 C400 0.939 . S
H387 C402 0.940 . S
H388 C403 0.940 . S
H389 C405 0.939 . S
H390 C406 0.942 . S
H391 C408 0.940 . S
H392 C409 0.939 . S
H393 C411 0.941 . S
H394 C415 0.939 . S
O395 P384 1.490 . S
H396 C412 0.939 . S
H397 C414 0.940 . S
C398 P384 1.812 . S
C398 C399 1.389 . S
C398 C403 1.391 . S
C399 H385 0.941 . S
C399 C398 1.389 . S
C399 C400 1.397 . S
C400 H386 0.939 . S
C400 C399 1.397 . S
C400 C401 1.378 . S
C401 C400 1.378 . S
C401 C402 1.378 . S
C402 H387 0.940 . S
C402 C401 1.378 . S
C402 C403 1.396 . S
C403 H388 0.940 . S
C403 C398 1.391 . S
C403 C402 1.396 . S
C404 P384 1.803 . S
C404 C405 1.378 . S
C404 C409 1.400 . S
C405 H389 0.939 . S
C405 C404 1.378 . S
C405 C406 1.361 . S
C406 H390 0.942 . S
C406 C405 1.361 . S
C406 C407 1.369 . S
C407 C406 1.369 . S
C407 C408 1.404 . S
C408 H391 0.940 . S
C408 C407 1.404 . S
C408 C409 1.389 . S
C409 H392 0.939 . S
C409 C404 1.400 . S
C409 C408 1.389 . S
C410 P384 1.819 . S
C410 C411 1.391 . S
C410 C415 1.391 . S
C411 H393 0.941 . S
C411 C410 1.391 . S
C411 C412 1.396 . S
C412 H396 0.939 . S
C412 C411 1.396 . S
C412 C413 1.397 . S
C413 C412 1.397 . S
C413 C414 1.385 . S
C414 H397 0.940 . S
C414 C413 1.385 . S
C414 C415 1.388 . S
C415 H394 0.939 . S
C415 C410 1.391 . S
C415 C414 1.388 . S
P416 O427 1.490 . S
P416 C430 1.812 . S
P416 C436 1.803 . S
P416 C442 1.819 . S
H417 C431 0.941 . S
H418 C432 0.939 . S
H419 C434 0.940 . S
H420 C435 0.940 . S
H421 C437 0.939 . S
H422 C438 0.942 . S
H423 C440 0.940 . S
H424 C441 0.939 . S
H425 C443 0.941 . S
H426 C447 0.939 . S
O427 P416 1.490 . S
H428 C444 0.939 . S
H429 C446 0.940 . S
C430 P416 1.812 . S
C430 C431 1.389 . S
C430 C435 1.391 . S
C431 H417 0.941 . S
C431 C430 1.389 . S
C431 C432 1.397 . S
C432 H418 0.939 . S
C432 C431 1.397 . S
C432 C433 1.378 . S
C433 C432 1.378 . S
C433 C434 1.378 . S
C434 H419 0.940 . S
C434 C433 1.378 . S
C434 C435 1.396 . S
C435 H420 0.940 . S
C435 C430 1.391 . S
C435 C434 1.396 . S
C436 P416 1.803 . S
C436 C437 1.378 . S
C436 C441 1.400 . S
C437 H421 0.939 . S
C437 C436 1.378 . S
C437 C438 1.361 . S
C438 H422 0.942 . S
C438 C437 1.361 . S
C438 C439 1.369 . S
C439 C438 1.369 . S
C439 C440 1.404 . S
C440 H423 0.940 . S
C440 C439 1.404 . S
C440 C441 1.389 . S
C441 H424 0.939 . S
C441 C436 1.400 . S
C441 C440 1.389 . S
C442 P416 1.819 . S
C442 C443 1.391 . S
C442 C447 1.391 . S
C443 H425 0.941 . S
C443 C442 1.391 . S
C443 C444 1.396 . S
C444 H428 0.939 . S
C444 C443 1.396 . S
C444 C445 1.397 . S
C445 C444 1.397 . S
C445 C446 1.385 . S
C446 H429 0.940 . S
C446 C445 1.385 . S
C446 C447 1.388 . S
C447 H426 0.939 . S
C447 C442 1.391 . S
C447 C446 1.388 . S
P448 O459 1.490 . S
P448 C462 1.812 . S
P448 C468 1.803 . S
P448 C474 1.819 . S
H449 C463 0.941 . S
H450 C464 0.939 . S
H451 C466 0.940 . S
H452 C467 0.940 . S
H453 C469 0.939 . S
H454 C470 0.942 . S
H455 C472 0.940 . S
H456 C473 0.939 . S
H457 C475 0.941 . S
H458 C479 0.939 . S
O459 P448 1.490 . S
H460 C476 0.939 . S
H461 C478 0.940 . S
C462 P448 1.812 . S
C462 C463 1.389 . S
C462 C467 1.391 . S
C463 H449 0.941 . S
C463 C462 1.389 . S
C463 C464 1.397 . S
C464 H450 0.939 . S
C464 C463 1.397 . S
C464 C465 1.378 . S
C465 C464 1.378 . S
C465 C466 1.378 . S
C466 H451 0.940 . S
C466 C465 1.378 . S
C466 C467 1.396 . S
C467 H452 0.940 . S
C467 C462 1.391 . S
C467 C466 1.396 . S
C468 P448 1.803 . S
C468 C469 1.378 . S
C468 C473 1.400 . S
C469 H453 0.939 . S
C469 C468 1.378 . S
C469 C470 1.361 . S
C470 H454 0.942 . S
C470 C469 1.361 . S
C470 C471 1.369 . S
C471 C470 1.369 . S
C471 C472 1.404 . S
C472 H455 0.940 . S
C472 C471 1.404 . S
C472 C473 1.389 . S
C473 H456 0.939 . S
C473 C468 1.400 . S
C473 C472 1.389 . S
C474 P448 1.819 . S
C474 C475 1.391 . S
C474 C479 1.391 . S
C475 H457 0.941 . S
C475 C474 1.391 . S
C475 C476 1.396 . S
C476 H460 0.939 . S
C476 C475 1.396 . S
C476 C477 1.397 . S
C477 C476 1.397 . S
C477 C478 1.385 . S
C478 H461 0.940 . S
C478 C477 1.385 . S
C478 C479 1.388 . S
C479 H458 0.939 . S
C479 C474 1.391 . S
C479 C478 1.388 . S
P480 O491 1.490 . S
P480 C494 1.812 . S
P480 C500 1.803 . S
P480 C506 1.819 . S
H481 C495 0.941 . S
H482 C496 0.939 . S
H483 C498 0.940 . S
H484 C499 0.940 . S
H485 C501 0.939 . S
H486 C502 0.942 . S
H487 C504 0.940 . S
H488 C505 0.939 . S
H489 C507 0.941 . S
H490 C511 0.939 . S
O491 P480 1.490 . S
H492 C508 0.939 . S
H493 C510 0.940 . S
C494 P480 1.812 . S
C494 C495 1.389 . S
C494 C499 1.391 . S
C495 H481 0.941 . S
C495 C494 1.389 . S
C495 C496 1.397 . S
C496 H482 0.939 . S
C496 C495 1.397 . S
C496 C497 1.378 . S
C497 C496 1.378 . S
C497 C498 1.378 . S
C498 H483 0.940 . S
C498 C497 1.378 . S
C498 C499 1.396 . S
C499 H484 0.940 . S
C499 C494 1.391 . S
C499 C498 1.396 . S
C500 P480 1.803 . S
C500 C501 1.378 . S
C500 C505 1.400 . S
C501 H485 0.939 . S
C501 C500 1.378 . S
C501 C502 1.361 . S
C502 H486 0.942 . S
C502 C501 1.361 . S
C502 C503 1.369 . S
C503 C502 1.369 . S
C503 C504 1.404 . S
C504 H487 0.940 . S
C504 C503 1.404 . S
C504 C505 1.389 . S
C505 H488 0.939 . S
C505 C500 1.400 . S
C505 C504 1.389 . S
C506 P480 1.819 . S
C506 C507 1.391 . S
C506 C511 1.391 . S
C507 H489 0.941 . S
C507 C506 1.391 . S
C507 C508 1.396 . S
C508 H492 0.939 . S
C508 C507 1.396 . S
C508 C509 1.397 . S
C509 C508 1.397 . S
C509 C510 1.385 . S
C510 H493 0.940 . S
C510 C509 1.385 . S
C510 C511 1.388 . S
C511 H490 0.939 . S
C511 C506 1.391 . S
C511 C510 1.388 . S
P512 O523 1.490 . S
P512 C526 1.812 . S
P512 C532 1.803 . S
P512 C538 1.819 . S
H513 C527 0.941 . S
H514 C528 0.939 . S
H515 C530 0.940 . S
H516 C531 0.940 . S
H517 C533 0.939 . S
H518 C534 0.942 . S
H519 C536 0.940 . S
H520 C537 0.939 . S
H521 C539 0.941 . S
H522 C543 0.939 . S
O523 P512 1.490 . S
H524 C540 0.939 . S
H525 C542 0.940 . S
C526 P512 1.812 . S
C526 C527 1.389 . S
C526 C531 1.391 . S
C527 H513 0.941 . S
C527 C526 1.389 . S
C527 C528 1.397 . S
C528 H514 0.939 . S
C528 C527 1.397 . S
C528 C529 1.378 . S
C529 C528 1.378 . S
C529 C530 1.378 . S
C530 H515 0.940 . S
C530 C529 1.378 . S
C530 C531 1.396 . S
C531 H516 0.940 . S
C531 C526 1.391 . S
C531 C530 1.396 . S
C532 P512 1.803 . S
C532 C533 1.378 . S
C532 C537 1.400 . S
C533 H517 0.939 . S
C533 C532 1.378 . S
C533 C534 1.361 . S
C534 H518 0.942 . S
C534 C533 1.361 . S
C534 C535 1.369 . S
C535 C534 1.369 . S
C535 C536 1.404 . S
C536 H519 0.940 . S
C536 C535 1.404 . S
C536 C537 1.389 . S
C537 H520 0.939 . S
C537 C532 1.400 . S
C537 C536 1.389 . S
C538 P512 1.819 . S
C538 C539 1.391 . S
C538 C543 1.391 . S
C539 H521 0.941 . S
C539 C538 1.391 . S
C539 C540 1.396 . S
C540 H524 0.939 . S
C540 C539 1.396 . S
C540 C541 1.397 . S
C541 C540 1.397 . S
C541 C542 1.385 . S
C542 H525 0.940 . S
C542 C541 1.385 . S
C542 C543 1.388 . S
C543 H522 0.939 . S
C543 C538 1.391 . S
C543 C542 1.388 . S
P544 O555 1.490 . S
P544 C558 1.812 . S
P544 C564 1.803 . S
P544 C570 1.819 . S
H545 C559 0.941 . S
H546 C560 0.939 . S
H547 C562 0.940 . S
H548 C563 0.940 . S
H549 C565 0.939 . S
H550 C566 0.942 . S
H551 C568 0.940 . S
H552 C569 0.939 . S
H553 C571 0.941 . S
H554 C575 0.939 . S
O555 P544 1.490 . S
H556 C572 0.939 . S
H557 C574 0.940 . S
C558 P544 1.812 . S
C558 C559 1.389 . S
C558 C563 1.391 . S
C559 H545 0.941 . S
C559 C558 1.389 . S
C559 C560 1.397 . S
C560 H546 0.939 . S
C560 C559 1.397 . S
C560 C561 1.378 . S
C561 C560 1.378 . S
C561 C562 1.378 . S
C562 H547 0.940 . S
C562 C561 1.378 . S
C562 C563 1.396 . S
C563 H548 0.940 . S
C563 C558 1.391 . S
C563 C562 1.396 . S
C564 P544 1.803 . S
C564 C565 1.378 . S
C564 C569 1.400 . S
C565 H549 0.939 . S
C565 C564 1.378 . S
C565 C566 1.361 . S
C566 H550 0.942 . S
C566 C565 1.361 . S
C566 C567 1.369 . S
C567 C566 1.369 . S
C567 C568 1.404 . S
C568 H551 0.940 . S
C568 C567 1.404 . S
C568 C569 1.389 . S
C569 H552 0.939 . S
C569 C564 1.400 . S
C569 C568 1.389 . S
C570 P544 1.819 . S
C570 C571 1.391 . S
C570 C575 1.391 . S
C571 H553 0.941 . S
C571 C570 1.391 . S
C571 C572 1.396 . S
C572 H556 0.939 . S
C572 C571 1.396 . S
C572 C573 1.397 . S
C573 C572 1.397 . S
C573 C574 1.385 . S
C574 H557 0.940 . S
C574 C573 1.385 . S
C574 C575 1.388 . S
C575 H554 0.939 . S
C575 C570 1.391 . S
C575 C574 1.388 . S
Tb576 N607 2.660 . S
Tb576 N614 2.600 . S
Tb576 O620 2.546 . S
Tb576 O621 2.610 1_565 S
Tb576 O623 2.320 1_565 S
Tb576 O624 2.552 1_565 S
Tb576 O625 2.413 . S
Tb576 O627 2.362 1_556 S
Tb576 O628 2.421 . S
Tb576 C640 2.833 . S
C577 C580 1.432 . S
C577 C581 1.414 . S
C577 N584 1.359 . S
C578 C580 1.417 . S
C578 C582 1.432 . S
C578 C590 1.410 . S
C579 C581 1.444 . S
C579 C582 1.317 . S
C579 H602 0.929 . S
C580 C577 1.432 . S
C580 C578 1.417 . S
C580 N588 1.360 . S
C581 C577 1.414 . S
C581 C579 1.444 . S
C581 C586 1.385 . S
C582 C578 1.432 . S
C582 C579 1.317 . S
C582 H594 0.930 . S
C583 C585 1.392 . S
C583 C586 1.370 . S
C583 H595 0.931 . S
N584 C577 1.359 . S
N584 C585 1.327 . S
N584 Tb587 2.600 . S
C585 C583 1.392 . S
C585 N584 1.327 . S
C585 H592 0.930 . S
C586 C581 1.385 . S
C586 C583 1.370 . S
C586 H605 0.930 . S
Tb587 N584 2.600 . S
Tb587 N588 2.660 . S
Tb587 O621 2.362 1_554 S
Tb587 O622 2.421 . S
Tb587 O626 2.546 . S
Tb587 O627 2.610 1_545 S
Tb587 O629 2.320 1_545 S
Tb587 O630 2.552 1_545 S
Tb587 O631 2.413 . S
Tb587 C651 2.833 . S
N588 C580 1.360 . S
N588 Tb587 2.660 . S
N588 C589 1.305 . S
C589 N588 1.305 . S
C589 C591 1.407 . S
C589 H596 0.930 . S
C590 C578 1.410 . S
C590 C591 1.345 . S
C590 H598 0.930 . S
C591 C589 1.407 . S
C591 C590 1.345 . S
C591 H593 0.930 . S
H592 C585 0.930 . S
H593 C591 0.930 . S
H594 C582 0.930 . S
H595 C583 0.931 . S
H596 C589 0.930 . S
H597 C611 0.930 . S
H598 C590 0.930 . S
H599 C617 0.930 . S
H600 C608 0.930 . S
H601 C615 0.931 . S
H602 C579 0.929 . S
H603 C609 0.930 . S
H604 C642 0.930 . S
H605 C586 0.930 . S
H606 C641 0.929 . S
N607 Tb576 2.660 . S
N607 C608 1.305 . S
N607 C612 1.360 . S
C608 H600 0.930 . S
C608 N607 1.305 . S
C608 C611 1.407 . S
C609 H603 0.930 . S
C609 C610 1.410 . S
C609 C611 1.345 . S
C610 C609 1.410 . S
C610 C612 1.417 . S
C610 C642 1.432 . S
C611 H597 0.930 . S
C611 C608 1.407 . S
C611 C609 1.345 . S
C612 N607 1.360 . S
C612 C610 1.417 . S
C612 C616 1.432 . S
H613 C618 0.930 . S
N614 Tb576 2.600 . S
N614 C616 1.359 . S
N614 C617 1.327 . S
C615 H601 0.931 . S
C615 C617 1.392 . S
C615 C618 1.370 . S
C616 C612 1.432 . S
C616 N614 1.359 . S
C616 C619 1.414 . S
C617 H599 0.930 . S
C617 N614 1.327 . S
C617 C615 1.392 . S
C618 H613 0.930 . S
C618 C615 1.370 . S
C618 C619 1.385 . S
C619 C616 1.414 . S
C619 C618 1.385 . S
C619 C641 1.444 . S
O620 Tb576 2.546 . S
O620 C640 1.251 . S
O621 Tb576 2.610 1_545 S
O621 Tb587 2.362 1_556 S
O621 C632 1.283 . S
O622 Tb587 2.421 . S
O622 C639 1.262 1_554 S
O623 Tb576 2.320 1_545 S
O623 C639 1.260 . S
O624 Tb576 2.552 1_545 S
O624 C632 1.243 . S
O625 Tb576 2.413 . S
O625 C640 1.256 . S
O626 Tb587 2.546 . S
O626 C651 1.251 . S
O627 Tb576 2.362 1_554 S
O627 Tb587 2.610 1_565 S
O627 C643 1.283 . S
O628 Tb576 2.421 . S
O628 C650 1.262 1_556 S
O629 Tb587 2.320 1_565 S
O629 C650 1.260 . S
O630 Tb587 2.552 1_565 S
O630 C643 1.243 . S
O631 Tb587 2.413 . S
O631 C651 1.256 . S
C632 O621 1.283 . S
C632 O624 1.243 . S
C633 C635 1.382 1_565 S
C633 C637 1.393 . S
C633 C640 1.500 . S
C634 C635 1.400 . S
C634 C636 1.384 1_545 S
C635 C633 1.382 1_545 S
C635 C634 1.400 . S
C635 H652 0.930 . S
C636 C634 1.384 1_565 S
C636 C638 1.392 . S
C636 H653 0.931 . S
C637 C633 1.393 . S
C637 C638 1.401 . S
C637 H654 0.930 . S
C638 C636 1.392 . S
C638 C637 1.401 . S
C638 H655 0.930 . S
C639 O622 1.262 1_556 S
C639 O623 1.260 . S
C640 Tb576 2.833 . S
C640 O620 1.251 . S
C640 O625 1.256 . S
C640 C633 1.500 . S
C641 H606 0.929 . S
C641 C619 1.444 . S
C641 C642 1.317 . S
C642 H604 0.930 . S
C642 C610 1.432 . S
C642 C641 1.317 . S
C643 O627 1.283 . S
C643 O630 1.243 . S
C644 C645 1.382 1_545 S
C644 C648 1.393 . S
C644 C651 1.500 . S
C645 C644 1.382 1_565 S
C645 C646 1.400 . S
C645 H656 0.930 . S
C646 C645 1.400 . S
C646 C647 1.384 1_565 S
C647 C646 1.384 1_545 S
C647 C649 1.392 . S
C647 H657 0.931 . S
C648 C644 1.393 . S
C648 C649 1.401 . S
C648 H658 0.930 . S
C649 C647 1.392 . S
C649 C648 1.401 . S
C649 H659 0.930 . S
C650 O628 1.262 1_554 S
C650 O629 1.260 . S
C651 Tb587 2.833 . S
C651 O626 1.251 . S
C651 O631 1.256 . S
C651 C644 1.500 . S
H652 C635 0.930 . S
H653 C636 0.931 . S
H654 C637 0.930 . S
H655 C638 0.930 . S
H656 C645 0.930 . S
H657 C647 0.931 . S
H658 C648 0.930 . S
H659 C649 0.930 . S
Tb660 N691 2.660 . S
Tb660 N698 2.600 . S
Tb660 O704 2.546 . S
Tb660 O705 2.610 1_455 S
Tb660 O707 2.320 1_455 S
Tb660 O708 2.552 1_455 S
Tb660 O709 2.413 . S
Tb660 O711 2.362 1_556 S
Tb660 O712 2.421 . S
Tb660 C724 2.833 . S
C661 C664 1.432 . S
C661 C665 1.414 . S
C661 N668 1.359 . S
C662 C664 1.417 . S
C662 C666 1.432 . S
C662 C674 1.410 . S
C663 C665 1.444 . S
C663 C666 1.317 . S
C663 H686 0.929 . S
C664 C661 1.432 . S
C664 C662 1.417 . S
C664 N672 1.360 . S
C665 C661 1.414 . S
C665 C663 1.444 . S
C665 C670 1.385 . S
C666 C662 1.432 . S
C666 C663 1.317 . S
C666 H678 0.930 . S
C667 C669 1.392 . S
C667 C670 1.370 . S
C667 H679 0.931 . S
N668 C661 1.359 . S
N668 C669 1.327 . S
N668 Tb671 2.600 . S
C669 C667 1.392 . S
C669 N668 1.327 . S
C669 H676 0.930 . S
C670 C665 1.385 . S
C670 C667 1.370 . S
C670 H689 0.930 . S
Tb671 N668 2.600 . S
Tb671 N672 2.660 . S
Tb671 O705 2.362 1_554 S
Tb671 O706 2.421 . S
Tb671 O710 2.546 . S
Tb671 O711 2.610 1_655 S
Tb671 O713 2.320 1_655 S
Tb671 O714 2.552 1_655 S
Tb671 O715 2.413 . S
Tb671 C735 2.833 . S
N672 C664 1.360 . S
N672 Tb671 2.660 . S
N672 C673 1.305 . S
C673 N672 1.305 . S
C673 C675 1.407 . S
C673 H680 0.930 . S
C674 C662 1.410 . S
C674 C675 1.345 . S
C674 H682 0.930 . S
C675 C673 1.407 . S
C675 C674 1.345 . S
C675 H677 0.930 . S
H676 C669 0.930 . S
H677 C675 0.930 . S
H678 C666 0.930 . S
H679 C667 0.931 . S
H680 C673 0.930 . S
H681 C695 0.930 . S
H682 C674 0.930 . S
H683 C701 0.930 . S
H684 C692 0.930 . S
H685 C699 0.931 . S
H686 C663 0.929 . S
H687 C693 0.930 . S
H688 C726 0.930 . S
H689 C670 0.930 . S
H690 C725 0.929 . S
N691 Tb660 2.660 . S
N691 C692 1.305 . S
N691 C696 1.360 . S
C692 H684 0.930 . S
C692 N691 1.305 . S
C692 C695 1.407 . S
C693 H687 0.930 . S
C693 C694 1.410 . S
C693 C695 1.345 . S
C694 C693 1.410 . S
C694 C696 1.417 . S
C694 C726 1.432 . S
C695 H681 0.930 . S
C695 C692 1.407 . S
C695 C693 1.345 . S
C696 N691 1.360 . S
C696 C694 1.417 . S
C696 C700 1.432 . S
H697 C702 0.930 . S
N698 Tb660 2.600 . S
N698 C700 1.359 . S
N698 C701 1.327 . S
C699 H685 0.931 . S
C699 C701 1.392 . S
C699 C702 1.370 . S
C700 C696 1.432 . S
C700 N698 1.359 . S
C700 C703 1.414 . S
C701 H683 0.930 . S
C701 N698 1.327 . S
C701 C699 1.392 . S
C702 H697 0.930 . S
C702 C699 1.370 . S
C702 C703 1.385 . S
C703 C700 1.414 . S
C703 C702 1.385 . S
C703 C725 1.444 . S
O704 Tb660 2.546 . S
O704 C724 1.251 . S
O705 Tb660 2.610 1_655 S
O705 Tb671 2.362 1_556 S
O705 C716 1.283 . S
O706 Tb671 2.421 . S
O706 C723 1.262 1_554 S
O707 Tb660 2.320 1_655 S
O707 C723 1.260 . S
O708 Tb660 2.552 1_655 S
O708 C716 1.243 . S
O709 Tb660 2.413 . S
O709 C724 1.256 . S
O710 Tb671 2.546 . S
O710 C735 1.251 . S
O711 Tb660 2.362 1_554 S
O711 Tb671 2.610 1_455 S
O711 C727 1.283 . S
O712 Tb660 2.421 . S
O712 C734 1.262 1_556 S
O713 Tb671 2.320 1_455 S
O713 C734 1.260 . S
O714 Tb671 2.552 1_455 S
O714 C727 1.243 . S
O715 Tb671 2.413 . S
O715 C735 1.256 . S
C716 O705 1.283 . S
C716 O708 1.243 . S
C717 C719 1.382 1_455 S
C717 C721 1.393 . S
C717 C724 1.500 . S
C718 C719 1.400 . S
C718 C720 1.384 1_655 S
C719 C717 1.382 1_655 S
C719 C718 1.400 . S
C719 H736 0.930 . S
C720 C718 1.384 1_455 S
C720 C722 1.392 . S
C720 H737 0.931 . S
C721 C717 1.393 . S
C721 C722 1.401 . S
C721 H738 0.930 . S
C722 C720 1.392 . S
C722 C721 1.401 . S
C722 H739 0.930 . S
C723 O706 1.262 1_556 S
C723 O707 1.260 . S
C724 Tb660 2.833 . S
C724 O704 1.251 . S
C724 O709 1.256 . S
C724 C717 1.500 . S
C725 H690 0.929 . S
C725 C703 1.444 . S
C725 C726 1.317 . S
C726 H688 0.930 . S
C726 C694 1.432 . S
C726 C725 1.317 . S
C727 O711 1.283 . S
C727 O714 1.243 . S
C728 C729 1.382 1_655 S
C728 C732 1.393 . S
C728 C735 1.500 . S
C729 C728 1.382 1_455 S
C729 C730 1.400 . S
C729 H740 0.930 . S
C730 C729 1.400 . S
C730 C731 1.384 1_455 S
C731 C730 1.384 1_655 S
C731 C733 1.392 . S
C731 H741 0.931 . S
C732 C728 1.393 . S
C732 C733 1.401 . S
C732 H742 0.930 . S
C733 C731 1.392 . S
C733 C732 1.401 . S
C733 H743 0.930 . S
C734 O712 1.262 1_554 S
C734 O713 1.260 . S
C735 Tb671 2.833 . S
C735 O710 1.251 . S
C735 O715 1.256 . S
C735 C728 1.500 . S
H736 C719 0.930 . S
H737 C720 0.931 . S
H738 C721 0.930 . S
H739 C722 0.930 . S
H740 C729 0.930 . S
H741 C731 0.931 . S
H742 C732 0.930 . S
H743 C733 0.930 . S
Tb744 N775 2.660 . S
Tb744 N782 2.600 . S
Tb744 O788 2.546 . S
Tb744 O789 2.610 . S
Tb744 O791 2.320 . S
Tb744 O792 2.552 . S
Tb744 O793 2.413 . S
Tb744 O795 2.362 1_554 S
Tb744 O796 2.421 . S
Tb744 C808 2.833 . S
C745 C748 1.432 . S
C745 C749 1.414 . S
C745 N752 1.359 . S
C746 C748 1.417 . S
C746 C750 1.432 . S
C746 C758 1.410 . S
C747 C749 1.444 . S
C747 C750 1.317 . S
C747 H770 0.929 . S
C748 C745 1.432 . S
C748 C746 1.417 . S
C748 N756 1.360 . S
C749 C745 1.414 . S
C749 C747 1.444 . S
C749 C754 1.385 . S
C750 C746 1.432 . S
C750 C747 1.317 . S
C750 H762 0.930 . S
C751 C753 1.392 . S
C751 C754 1.370 . S
C751 H763 0.931 . S
N752 C745 1.359 . S
N752 C753 1.327 . S
N752 Tb755 2.600 . S
C753 C751 1.392 . S
C753 N752 1.327 . S
C753 H760 0.930 . S
C754 C749 1.385 . S
C754 C751 1.370 . S
C754 H773 0.930 . S
Tb755 N752 2.600 . S
Tb755 N756 2.660 . S
Tb755 O789 2.362 1_556 S
Tb755 O790 2.421 . S
Tb755 O794 2.546 . S
Tb755 O795 2.610 . S
Tb755 O797 2.320 . S
Tb755 O798 2.552 . S
Tb755 O799 2.413 . S
Tb755 C819 2.833 . S
N756 C748 1.360 . S
N756 Tb755 2.660 . S
N756 C757 1.305 . S
C757 N756 1.305 . S
C757 C759 1.407 . S
C757 H764 0.930 . S
C758 C746 1.410 . S
C758 C759 1.345 . S
C758 H766 0.930 . S
C759 C757 1.407 . S
C759 C758 1.345 . S
C759 H761 0.930 . S
H760 C753 0.930 . S
H761 C759 0.930 . S
H762 C750 0.930 . S
H763 C751 0.931 . S
H764 C757 0.930 . S
H765 C779 0.930 . S
H766 C758 0.930 . S
H767 C785 0.930 . S
H768 C776 0.930 . S
H769 C783 0.931 . S
H770 C747 0.929 . S
H771 C777 0.930 . S
H772 C810 0.930 . S
H773 C754 0.930 . S
H774 C809 0.929 . S
N775 Tb744 2.660 . S
N775 C776 1.305 . S
N775 C780 1.360 . S
C776 H768 0.930 . S
C776 N775 1.305 . S
C776 C779 1.407 . S
C777 H771 0.930 . S
C777 C778 1.410 . S
C777 C779 1.345 . S
C778 C777 1.410 . S
C778 C780 1.417 . S
C778 C810 1.432 . S
C779 H765 0.930 . S
C779 C776 1.407 . S
C779 C777 1.345 . S
C780 N775 1.360 . S
C780 C778 1.417 . S
C780 C784 1.432 . S
H781 C786 0.930 . S
N782 Tb744 2.600 . S
N782 C784 1.359 . S
N782 C785 1.327 . S
C783 H769 0.931 . S
C783 C785 1.392 . S
C783 C786 1.370 . S
C784 C780 1.432 . S
C784 N782 1.359 . S
C784 C787 1.414 . S
C785 H767 0.930 . S
C785 N782 1.327 . S
C785 C783 1.392 . S
C786 H781 0.930 . S
C786 C783 1.370 . S
C786 C787 1.385 . S
C787 C784 1.414 . S
C787 C786 1.385 . S
C787 C809 1.444 . S
O788 Tb744 2.546 . S
O788 C808 1.251 . S
O789 Tb744 2.610 . S
O789 Tb755 2.362 1_554 S
O789 C800 1.283 . S
O790 Tb755 2.421 . S
O790 C807 1.262 1_556 S
O791 Tb744 2.320 . S
O791 C807 1.260 . S
O792 Tb744 2.552 . S
O792 C800 1.243 . S
O793 Tb744 2.413 . S
O793 C808 1.256 . S
O794 Tb755 2.546 . S
O794 C819 1.251 . S
O795 Tb744 2.362 1_556 S
O795 Tb755 2.610 . S
O795 C811 1.283 . S
O796 Tb744 2.421 . S
O796 C818 1.262 1_554 S
O797 Tb755 2.320 . S
O797 C818 1.260 . S
O798 Tb755 2.552 . S
O798 C811 1.243 . S
O799 Tb755 2.413 . S
O799 C819 1.256 . S
C800 O789 1.283 . S
C800 O792 1.243 . S
C801 C803 1.382 . S
C801 C805 1.393 . S
C801 C808 1.500 . S
C802 C803 1.400 . S
C802 C804 1.384 . S
C803 C801 1.382 . S
C803 C802 1.400 . S
C803 H820 0.930 . S
C804 C802 1.384 . S
C804 C806 1.392 . S
C804 H821 0.931 . S
C805 C801 1.393 . S
C805 C806 1.401 . S
C805 H822 0.930 . S
C806 C804 1.392 . S
C806 C805 1.401 . S
C806 H823 0.930 . S
C807 O790 1.262 1_554 S
C807 O791 1.260 . S
C808 Tb744 2.833 . S
C808 O788 1.251 . S
C808 O793 1.256 . S
C808 C801 1.500 . S
C809 H774 0.929 . S
C809 C787 1.444 . S
C809 C810 1.317 . S
C810 H772 0.930 . S
C810 C778 1.432 . S
C810 C809 1.317 . S
C811 O795 1.283 . S
C811 O798 1.243 . S
C812 C813 1.382 . S
C812 C816 1.393 . S
C812 C819 1.500 . S
C813 C812 1.382 . S
C813 C814 1.400 . S
C813 H824 0.930 . S
C814 C813 1.400 . S
C814 C815 1.384 . S
C815 C814 1.384 . S
C815 C817 1.392 . S
C815 H825 0.931 . S
C816 C812 1.393 . S
C816 C817 1.401 . S
C816 H826 0.930 . S
C817 C815 1.392 . S
C817 C816 1.401 . S
C817 H827 0.930 . S
C818 O796 1.262 1_556 S
C818 O797 1.260 . S
C819 Tb755 2.833 . S
C819 O794 1.251 . S
C819 O799 1.256 . S
C819 C812 1.500 . S
H820 C803 0.930 . S
H821 C804 0.931 . S
H822 C805 0.930 . S
H823 C806 0.930 . S
H824 C813 0.930 . S
H825 C815 0.931 . S
H826 C816 0.930 . S
H827 C817 0.930 . S
Tb828 N859 2.660 . S
Tb828 N866 2.600 . S
Tb828 O872 2.546 . S
Tb828 O873 2.610 . S
Tb828 O875 2.320 . S
Tb828 O876 2.552 . S
Tb828 O877 2.413 . S
Tb828 O879 2.362 . S
Tb828 O880 2.421 . S
Tb828 C892 2.833 . S
C829 C832 1.432 . S
C829 C833 1.414 . S
C829 N836 1.359 . S
C830 C832 1.417 . S
C830 C834 1.432 . S
C830 C842 1.410 . S
C831 C833 1.444 . S
C831 C834 1.317 . S
C831 H854 0.929 . S
C832 C829 1.432 . S
C832 C830 1.417 . S
C832 N840 1.360 . S
C833 C829 1.414 . S
C833 C831 1.444 . S
C833 C838 1.385 . S
C834 C830 1.432 . S
C834 C831 1.317 . S
C834 H846 0.930 . S
C835 C837 1.392 . S
C835 C838 1.370 . S
C835 H847 0.931 . S
N836 C829 1.359 . S
N836 C837 1.327 . S
N836 Tb839 2.600 . S
C837 C835 1.392 . S
C837 N836 1.327 . S
C837 H844 0.930 . S
C838 C833 1.385 . S
C838 C835 1.370 . S
C838 H857 0.930 . S
Tb839 N836 2.600 . S
Tb839 N840 2.660 . S
Tb839 O873 2.362 . S
Tb839 O874 2.421 . S
Tb839 O878 2.546 . S
Tb839 O879 2.610 . S
Tb839 O881 2.320 . S
Tb839 O882 2.552 . S
Tb839 O883 2.413 . S
Tb839 C903 2.833 . S
N840 C832 1.360 . S
N840 Tb839 2.660 . S
N840 C841 1.305 . S
C841 N840 1.305 . S
C841 C843 1.407 . S
C841 H848 0.930 . S
C842 C830 1.410 . S
C842 C843 1.345 . S
C842 H850 0.930 . S
C843 C841 1.407 . S
C843 C842 1.345 . S
C843 H845 0.930 . S
H844 C837 0.930 . S
H845 C843 0.930 . S
H846 C834 0.930 . S
H847 C835 0.931 . S
H848 C841 0.930 . S
H849 C863 0.930 . S
H850 C842 0.930 . S
H851 C869 0.930 . S
H852 C860 0.930 . S
H853 C867 0.931 . S
H854 C831 0.929 . S
H855 C861 0.930 . S
H856 C894 0.930 . S
H857 C838 0.930 . S
H858 C893 0.929 . S
N859 Tb828 2.660 . S
N859 C860 1.305 . S
N859 C864 1.360 . S
C860 H852 0.930 . S
C860 N859 1.305 . S
C860 C863 1.407 . S
C861 H855 0.930 . S
C861 C862 1.410 . S
C861 C863 1.345 . S
C862 C861 1.410 . S
C862 C864 1.417 . S
C862 C894 1.432 . S
C863 H849 0.930 . S
C863 C860 1.407 . S
C863 C861 1.345 . S
C864 N859 1.360 . S
C864 C862 1.417 . S
C864 C868 1.432 . S
H865 C870 0.930 . S
N866 Tb828 2.600 . S
N866 C868 1.359 . S
N866 C869 1.327 . S
C867 H853 0.931 . S
C867 C869 1.392 . S
C867 C870 1.370 . S
C868 C864 1.432 . S
C868 N866 1.359 . S
C868 C871 1.414 . S
C869 H851 0.930 . S
C869 N866 1.327 . S
C869 C867 1.392 . S
C870 H865 0.930 . S
C870 C867 1.370 . S
C870 C871 1.385 . S
C871 C868 1.414 . S
C871 C870 1.385 . S
C871 C893 1.444 . S
O872 Tb828 2.546 . S
O872 C892 1.251 . S
O873 Tb828 2.610 . S
O873 Tb839 2.362 . S
O873 C884 1.283 . S
O874 Tb839 2.421 . S
O874 C891 1.262 . S
O875 Tb828 2.320 . S
O875 C891 1.260 . S
O876 Tb828 2.552 . S
O876 C884 1.243 . S
O877 Tb828 2.413 . S
O877 C892 1.256 . S
O878 Tb839 2.546 . S
O878 C903 1.251 . S
O879 Tb828 2.362 . S
O879 Tb839 2.610 . S
O879 C895 1.283 . S
O880 Tb828 2.421 . S
O880 C902 1.262 . S
O881 Tb839 2.320 . S
O881 C902 1.260 . S
O882 Tb839 2.552 . S
O882 C895 1.243 . S
O883 Tb839 2.413 . S
O883 C903 1.256 . S
C884 O873 1.283 . S
C884 O876 1.243 . S
C885 C887 1.382 . S
C885 C889 1.393 . S
C885 C892 1.500 . S
C886 C887 1.400 . S
C886 C888 1.384 . S
C887 C885 1.382 . S
C887 C886 1.400 . S
C887 H904 0.930 . S
C888 C886 1.384 . S
C888 C890 1.392 . S
C888 H905 0.931 . S
C889 C885 1.393 . S
C889 C890 1.401 . S
C889 H906 0.930 . S
C890 C888 1.392 . S
C890 C889 1.401 . S
C890 H907 0.930 . S
C891 O874 1.262 . S
C891 O875 1.260 . S
C892 Tb828 2.833 . S
C892 O872 1.251 . S
C892 O877 1.256 . S
C892 C885 1.500 . S
C893 H858 0.929 . S
C893 C871 1.444 . S
C893 C894 1.317 . S
C894 H856 0.930 . S
C894 C862 1.432 . S
C894 C893 1.317 . S
C895 O879 1.283 . S
C895 O882 1.243 . S
C896 C897 1.382 . S
C896 C900 1.393 . S
C896 C903 1.500 . S
C897 C896 1.382 . S
C897 C898 1.400 . S
C897 H908 0.930 . S
C898 C897 1.400 . S
C898 C899 1.384 . S
C899 C898 1.384 . S
C899 C901 1.392 . S
C899 H909 0.931 . S
C900 C896 1.393 . S
C900 C901 1.401 . S
C900 H910 0.930 . S
C901 C899 1.392 . S
C901 C900 1.401 . S
C901 H911 0.930 . S
C902 O880 1.262 . S
C902 O881 1.260 . S
C903 Tb839 2.833 . S
C903 O878 1.251 . S
C903 O883 1.256 . S
C903 C896 1.500 . S
H904 C887 0.930 . S
H905 C888 0.931 . S
H906 C889 0.930 . S
H907 C890 0.930 . S
H908 C897 0.930 . S
H909 C899 0.931 . S
H910 C900 0.930 . S
H911 C901 0.930 . S
Tb912 N943 2.660 . S
Tb912 N950 2.600 . S
Tb912 O956 2.546 . S
Tb912 O957 2.610 . S
Tb912 O959 2.320 . S
Tb912 O960 2.552 . S
Tb912 O961 2.413 . S
Tb912 O963 2.362 . S
Tb912 O964 2.421 . S
Tb912 C976 2.833 . S
C913 C916 1.432 . S
C913 C917 1.414 . S
C913 N920 1.359 . S
C914 C916 1.417 . S
C914 C918 1.432 . S
C914 C926 1.410 . S
C915 C917 1.444 . S
C915 C918 1.317 . S
C915 H938 0.929 . S
C916 C913 1.432 . S
C916 C914 1.417 . S
C916 N924 1.360 . S
C917 C913 1.414 . S
C917 C915 1.444 . S
C917 C922 1.385 . S
C918 C914 1.432 . S
C918 C915 1.317 . S
C918 H930 0.930 . S
C919 C921 1.392 . S
C919 C922 1.370 . S
C919 H931 0.931 . S
N920 C913 1.359 . S
N920 C921 1.327 . S
N920 Tb923 2.600 . S
C921 C919 1.392 . S
C921 N920 1.327 . S
C921 H928 0.930 . S
C922 C917 1.385 . S
C922 C919 1.370 . S
C922 H941 0.930 . S
Tb923 N920 2.600 . S
Tb923 N924 2.660 . S
Tb923 O957 2.362 . S
Tb923 O958 2.421 . S
Tb923 O962 2.546 . S
Tb923 O963 2.610 . S
Tb923 O965 2.320 . S
Tb923 O966 2.552 . S
Tb923 O967 2.413 . S
Tb923 C987 2.833 . S
N924 C916 1.360 . S
N924 Tb923 2.660 . S
N924 C925 1.305 . S
C925 N924 1.305 . S
C925 C927 1.407 . S
C925 H932 0.930 . S
C926 C914 1.410 . S
C926 C927 1.345 . S
C926 H934 0.930 . S
C927 C925 1.407 . S
C927 C926 1.345 . S
C927 H929 0.930 . S
H928 C921 0.930 . S
H929 C927 0.930 . S
H930 C918 0.930 . S
H931 C919 0.931 . S
H932 C925 0.930 . S
H933 C947 0.930 . S
H934 C926 0.930 . S
H935 C953 0.930 . S
H936 C944 0.930 . S
H937 C951 0.931 . S
H938 C915 0.929 . S
H939 C945 0.930 . S
H940 C978 0.930 . S
H941 C922 0.930 . S
H942 C977 0.929 . S
N943 Tb912 2.660 . S
N943 C944 1.305 . S
N943 C948 1.360 . S
C944 H936 0.930 . S
C944 N943 1.305 . S
C944 C947 1.407 . S
C945 H939 0.930 . S
C945 C946 1.410 . S
C945 C947 1.345 . S
C946 C945 1.410 . S
C946 C948 1.417 . S
C946 C978 1.432 . S
C947 H933 0.930 . S
C947 C944 1.407 . S
C947 C945 1.345 . S
C948 N943 1.360 . S
C948 C946 1.417 . S
C948 C952 1.432 . S
H949 C954 0.930 . S
N950 Tb912 2.600 . S
N950 C952 1.359 . S
N950 C953 1.327 . S
C951 H937 0.931 . S
C951 C953 1.392 . S
C951 C954 1.370 . S
C952 C948 1.432 . S
C952 N950 1.359 . S
C952 C955 1.414 . S
C953 H935 0.930 . S
C953 N950 1.327 . S
C953 C951 1.392 . S
C954 H949 0.930 . S
C954 C951 1.370 . S
C954 C955 1.385 . S
C955 C952 1.414 . S
C955 C954 1.385 . S
C955 C977 1.444 . S
O956 Tb912 2.546 . S
O956 C976 1.251 . S
O957 Tb912 2.610 . S
O957 Tb923 2.362 . S
O957 C968 1.283 . S
O958 Tb923 2.421 . S
O958 C975 1.262 . S
O959 Tb912 2.320 . S
O959 C975 1.260 . S
O960 Tb912 2.552 . S
O960 C968 1.243 . S
O961 Tb912 2.413 . S
O961 C976 1.256 . S
O962 Tb923 2.546 . S
O962 C987 1.251 . S
O963 Tb912 2.362 . S
O963 Tb923 2.610 . S
O963 C979 1.283 . S
O964 Tb912 2.421 . S
O964 C986 1.262 . S
O965 Tb923 2.320 . S
O965 C986 1.260 . S
O966 Tb923 2.552 . S
O966 C979 1.243 . S
O967 Tb923 2.413 . S
O967 C987 1.256 . S
C968 O957 1.283 . S
C968 O960 1.243 . S
C969 C971 1.382 . S
C969 C973 1.393 . S
C969 C976 1.500 . S
C970 C971 1.400 . S
C970 C972 1.384 . S
C971 C969 1.382 . S
C971 C970 1.400 . S
C971 H988 0.930 . S
C972 C970 1.384 . S
C972 C974 1.392 . S
C972 H989 0.931 . S
C973 C969 1.393 . S
C973 C974 1.401 . S
C973 H990 0.930 . S
C974 C972 1.392 . S
C974 C973 1.401 . S
C974 H991 0.930 . S
C975 O958 1.262 . S
C975 O959 1.260 . S
C976 Tb912 2.833 . S
C976 O956 1.251 . S
C976 O961 1.256 . S
C976 C969 1.500 . S
C977 H942 0.929 . S
C977 C955 1.444 . S
C977 C978 1.317 . S
C978 H940 0.930 . S
C978 C946 1.432 . S
C978 C977 1.317 . S
C979 O963 1.283 . S
C979 O966 1.243 . S
C980 C981 1.382 . S
C980 C984 1.393 . S
C980 C987 1.500 . S
C981 C980 1.382 . S
C981 C982 1.400 . S
C981 H992 0.930 . S
C982 C981 1.400 . S
C982 C983 1.384 . S
C983 C982 1.384 . S
C983 C985 1.392 . S
C983 H993 0.931 . S
C984 C980 1.393 . S
C984 C985 1.401 . S
C984 H994 0.930 . S
C985 C983 1.392 . S
C985 C984 1.401 . S
C985 H995 0.930 . S
C986 O964 1.262 . S
C986 O965 1.260 . S
C987 Tb923 2.833 . S
C987 O962 1.251 . S
C987 O967 1.256 . S
C987 C980 1.500 . S
H988 C971 0.930 . S
H989 C972 0.931 . S
H990 C973 0.930 . S
H991 C974 0.930 . S
H992 C981 0.930 . S
H993 C983 0.931 . S
H994 C984 0.930 . S
H995 C985 0.930 . S
Tb996 N1027 2.660 . S
Tb996 N1034 2.600 . S
Tb996 O1040 2.546 . S
Tb996 O1041 2.610 . S
Tb996 O1043 2.320 . S
Tb996 O1044 2.552 . S
Tb996 O1045 2.413 . S
Tb996 O1047 2.362 . S
Tb996 O1048 2.421 . S
Tb996 C1060 2.833 . S
C997 C1000 1.432 . S
C997 C1001 1.414 . S
C997 N1004 1.359 . S
C998 C1000 1.417 . S
C998 C1002 1.432 . S
C998 C1010 1.410 . S
C999 C1001 1.444 . S
C999 C1002 1.317 . S
C999 H1022 0.929 . S
C1000 C997 1.432 . S
C1000 C998 1.417 . S
C1000 N1008 1.360 . S
C1001 C997 1.414 . S
C1001 C999 1.444 . S
C1001 C1006 1.385 . S
C1002 C998 1.432 . S
C1002 C999 1.317 . S
C1002 H1014 0.930 . S
C1003 C1005 1.392 . S
C1003 C1006 1.370 . S
C1003 H1015 0.931 . S
N1004 C997 1.359 . S
N1004 C1005 1.327 . S
N1004 Tb1007 2.600 . S
C1005 C1003 1.392 . S
C1005 N1004 1.327 . S
C1005 H1012 0.930 . S
C1006 C1001 1.385 . S
C1006 C1003 1.370 . S
C1006 H1025 0.930 . S
Tb1007 N1004 2.600 . S
Tb1007 N1008 2.660 . S
Tb1007 O1041 2.362 . S
Tb1007 O1042 2.421 . S
Tb1007 O1046 2.546 . S
Tb1007 O1047 2.610 . S
Tb1007 O1049 2.320 . S
Tb1007 O1050 2.552 . S
Tb1007 O1051 2.413 . S
Tb1007 C1071 2.833 . S
N1008 C1000 1.360 . S
N1008 Tb1007 2.660 . S
N1008 C1009 1.305 . S
C1009 N1008 1.305 . S
C1009 C1011 1.407 . S
C1009 H1016 0.930 . S
C1010 C998 1.410 . S
C1010 C1011 1.345 . S
C1010 H1018 0.930 . S
C1011 C1009 1.407 . S
C1011 C1010 1.345 . S
C1011 H1013 0.930 . S
H1012 C1005 0.930 . S
H1013 C1011 0.930 . S
H1014 C1002 0.930 . S
H1015 C1003 0.931 . S
H1016 C1009 0.930 . S
H1017 C1031 0.930 . S
H1018 C1010 0.930 . S
H1019 C1037 0.930 . S
H1020 C1028 0.930 . S
H1021 C1035 0.931 . S
H1022 C999 0.929 . S
H1023 C1029 0.930 . S
H1024 C1062 0.930 . S
H1025 C1006 0.930 . S
H1026 C1061 0.929 . S
N1027 Tb996 2.660 . S
N1027 C1028 1.305 . S
N1027 C1032 1.360 . S
C1028 H1020 0.930 . S
C1028 N1027 1.305 . S
C1028 C1031 1.407 . S
C1029 H1023 0.930 . S
C1029 C1030 1.410 . S
C1029 C1031 1.345 . S
C1030 C1029 1.410 . S
C1030 C1032 1.417 . S
C1030 C1062 1.432 . S
C1031 H1017 0.930 . S
C1031 C1028 1.407 . S
C1031 C1029 1.345 . S
C1032 N1027 1.360 . S
C1032 C1030 1.417 . S
C1032 C1036 1.432 . S
H1033 C1038 0.930 . S
N1034 Tb996 2.600 . S
N1034 C1036 1.359 . S
N1034 C1037 1.327 . S
C1035 H1021 0.931 . S
C1035 C1037 1.392 . S
C1035 C1038 1.370 . S
C1036 C1032 1.432 . S
C1036 N1034 1.359 . S
C1036 C1039 1.414 . S
C1037 H1019 0.930 . S
C1037 N1034 1.327 . S
C1037 C1035 1.392 . S
C1038 H1033 0.930 . S
C1038 C1035 1.370 . S
C1038 C1039 1.385 . S
C1039 C1036 1.414 . S
C1039 C1038 1.385 . S
C1039 C1061 1.444 . S
O1040 Tb996 2.546 . S
O1040 C1060 1.251 . S
O1041 Tb996 2.610 . S
O1041 Tb1007 2.362 . S
O1041 C1052 1.283 . S
O1042 Tb1007 2.421 . S
O1042 C1059 1.262 . S
O1043 Tb996 2.320 . S
O1043 C1059 1.260 . S
O1044 Tb996 2.552 . S
O1044 C1052 1.243 . S
O1045 Tb996 2.413 . S
O1045 C1060 1.256 . S
O1046 Tb1007 2.546 . S
O1046 C1071 1.251 . S
O1047 Tb996 2.362 . S
O1047 Tb1007 2.610 . S
O1047 C1063 1.283 . S
O1048 Tb996 2.421 . S
O1048 C1070 1.262 . S
O1049 Tb1007 2.320 . S
O1049 C1070 1.260 . S
O1050 Tb1007 2.552 . S
O1050 C1063 1.243 . S
O1051 Tb1007 2.413 . S
O1051 C1071 1.256 . S
C1052 O1041 1.283 . S
C1052 O1044 1.243 . S
C1053 C1055 1.382 . S
C1053 C1057 1.393 . S
C1053 C1060 1.500 . S
C1054 C1055 1.400 . S
C1054 C1056 1.384 . S
C1055 C1053 1.382 . S
C1055 C1054 1.400 . S
C1055 H1072 0.930 . S
C1056 C1054 1.384 . S
C1056 C1058 1.392 . S
C1056 H1073 0.931 . S
C1057 C1053 1.393 . S
C1057 C1058 1.401 . S
C1057 H1074 0.930 . S
C1058 C1056 1.392 . S
C1058 C1057 1.401 . S
C1058 H1075 0.930 . S
C1059 O1042 1.262 . S
C1059 O1043 1.260 . S
C1060 Tb996 2.833 . S
C1060 O1040 1.251 . S
C1060 O1045 1.256 . S
C1060 C1053 1.500 . S
C1061 H1026 0.929 . S
C1061 C1039 1.444 . S
C1061 C1062 1.317 . S
C1062 H1024 0.930 . S
C1062 C1030 1.432 . S
C1062 C1061 1.317 . S
C1063 O1047 1.283 . S
C1063 O1050 1.243 . S
C1064 C1065 1.382 . S
C1064 C1068 1.393 . S
C1064 C1071 1.500 . S
C1065 C1064 1.382 . S
C1065 C1066 1.400 . S
C1065 H1076 0.930 . S
C1066 C1065 1.400 . S
C1066 C1067 1.384 . S
C1067 C1066 1.384 . S
C1067 C1069 1.392 . S
C1067 H1077 0.931 . S
C1068 C1064 1.393 . S
C1068 C1069 1.401 . S
C1068 H1078 0.930 . S
C1069 C1067 1.392 . S
C1069 C1068 1.401 . S
C1069 H1079 0.930 . S
C1070 O1048 1.262 . S
C1070 O1049 1.260 . S
C1071 Tb1007 2.833 . S
C1071 O1046 1.251 . S
C1071 O1051 1.256 . S
C1071 C1064 1.500 . S
H1072 C1055 0.930 . S
H1073 C1056 0.931 . S
H1074 C1057 0.930 . S
H1075 C1058 0.930 . S
H1076 C1065 0.930 . S
H1077 C1067 0.931 . S
H1078 C1068 0.930 . S
H1079 C1069 0.930 . S
Tb1080 N1111 2.660 . S
Tb1080 N1118 2.600 . S
Tb1080 O1124 2.546 . S
Tb1080 O1125 2.610 . S
Tb1080 O1127 2.320 . S
Tb1080 O1128 2.552 . S
Tb1080 O1129 2.413 . S
Tb1080 O1131 2.362 . S
Tb1080 O1132 2.421 . S
Tb1080 C1144 2.833 . S
C1081 C1084 1.432 . S
C1081 C1085 1.414 . S
C1081 N1088 1.359 . S
C1082 C1084 1.417 . S
C1082 C1086 1.432 . S
C1082 C1094 1.410 . S
C1083 C1085 1.444 . S
C1083 C1086 1.317 . S
C1083 H1106 0.929 . S
C1084 C1081 1.432 . S
C1084 C1082 1.417 . S
C1084 N1092 1.360 . S
C1085 C1081 1.414 . S
C1085 C1083 1.444 . S
C1085 C1090 1.385 . S
C1086 C1082 1.432 . S
C1086 C1083 1.317 . S
C1086 H1098 0.930 . S
C1087 C1089 1.392 . S
C1087 C1090 1.370 . S
C1087 H1099 0.931 . S
N1088 C1081 1.359 . S
N1088 C1089 1.327 . S
N1088 Tb1091 2.600 . S
C1089 C1087 1.392 . S
C1089 N1088 1.327 . S
C1089 H1096 0.930 . S
C1090 C1085 1.385 . S
C1090 C1087 1.370 . S
C1090 H1109 0.930 . S
Tb1091 N1088 2.600 . S
Tb1091 N1092 2.660 . S
Tb1091 O1125 2.362 . S
Tb1091 O1126 2.421 . S
Tb1091 O1130 2.546 . S
Tb1091 O1131 2.610 . S
Tb1091 O1133 2.320 . S
Tb1091 O1134 2.552 . S
Tb1091 O1135 2.413 . S
Tb1091 C1155 2.833 . S
N1092 C1084 1.360 . S
N1092 Tb1091 2.660 . S
N1092 C1093 1.305 . S
C1093 N1092 1.305 . S
C1093 C1095 1.407 . S
C1093 H1100 0.930 . S
C1094 C1082 1.410 . S
C1094 C1095 1.345 . S
C1094 H1102 0.930 . S
C1095 C1093 1.407 . S
C1095 C1094 1.345 . S
C1095 H1097 0.930 . S
H1096 C1089 0.930 . S
H1097 C1095 0.930 . S
H1098 C1086 0.930 . S
H1099 C1087 0.931 . S
H1100 C1093 0.930 . S
H1101 C1115 0.930 . S
H1102 C1094 0.930 . S
H1103 C1121 0.930 . S
H1104 C1112 0.930 . S
H1105 C1119 0.931 . S
H1106 C1083 0.929 . S
H1107 C1113 0.930 . S
H1108 C1146 0.930 . S
H1109 C1090 0.930 . S
H1110 C1145 0.929 . S
N1111 Tb1080 2.660 . S
N1111 C1112 1.305 . S
N1111 C1116 1.360 . S
C1112 H1104 0.930 . S
C1112 N1111 1.305 . S
C1112 C1115 1.407 . S
C1113 H1107 0.930 . S
C1113 C1114 1.410 . S
C1113 C1115 1.345 . S
C1114 C1113 1.410 . S
C1114 C1116 1.417 . S
C1114 C1146 1.432 . S
C1115 H1101 0.930 . S
C1115 C1112 1.407 . S
C1115 C1113 1.345 . S
C1116 N1111 1.360 . S
C1116 C1114 1.417 . S
C1116 C1120 1.432 . S
H1117 C1122 0.930 . S
N1118 Tb1080 2.600 . S
N1118 C1120 1.359 . S
N1118 C1121 1.327 . S
C1119 H1105 0.931 . S
C1119 C1121 1.392 . S
C1119 C1122 1.370 . S
C1120 C1116 1.432 . S
C1120 N1118 1.359 . S
C1120 C1123 1.414 . S
C1121 H1103 0.930 . S
C1121 N1118 1.327 . S
C1121 C1119 1.392 . S
C1122 H1117 0.930 . S
C1122 C1119 1.370 . S
C1122 C1123 1.385 . S
C1123 C1120 1.414 . S
C1123 C1122 1.385 . S
C1123 C1145 1.444 . S
O1124 Tb1080 2.546 . S
O1124 C1144 1.251 . S
O1125 Tb1080 2.610 . S
O1125 Tb1091 2.362 . S
O1125 C1136 1.283 . S
O1126 Tb1091 2.421 . S
O1126 C1143 1.262 . S
O1127 Tb1080 2.320 . S
O1127 C1143 1.260 . S
O1128 Tb1080 2.552 . S
O1128 C1136 1.243 . S
O1129 Tb1080 2.413 . S
O1129 C1144 1.256 . S
O1130 Tb1091 2.546 . S
O1130 C1155 1.251 . S
O1131 Tb1080 2.362 . S
O1131 Tb1091 2.610 . S
O1131 C1147 1.283 . S
O1132 Tb1080 2.421 . S
O1132 C1154 1.262 . S
O1133 Tb1091 2.320 . S
O1133 C1154 1.260 . S
O1134 Tb1091 2.552 . S
O1134 C1147 1.243 . S
O1135 Tb1091 2.413 . S
O1135 C1155 1.256 . S
C1136 O1125 1.283 . S
C1136 O1128 1.243 . S
C1137 C1139 1.382 . S
C1137 C1141 1.393 . S
C1137 C1144 1.500 . S
C1138 C1139 1.400 . S
C1138 C1140 1.384 . S
C1139 C1137 1.382 . S
C1139 C1138 1.400 . S
C1139 H1156 0.930 . S
C1140 C1138 1.384 . S
C1140 C1142 1.392 . S
C1140 H1157 0.931 . S
C1141 C1137 1.393 . S
C1141 C1142 1.401 . S
C1141 H1158 0.930 . S
C1142 C1140 1.392 . S
C1142 C1141 1.401 . S
C1142 H1159 0.930 . S
C1143 O1126 1.262 . S
C1143 O1127 1.260 . S
C1144 Tb1080 2.833 . S
C1144 O1124 1.251 . S
C1144 O1129 1.256 . S
C1144 C1137 1.500 . S
C1145 H1110 0.929 . S
C1145 C1123 1.444 . S
C1145 C1146 1.317 . S
C1146 H1108 0.930 . S
C1146 C1114 1.432 . S
C1146 C1145 1.317 . S
C1147 O1131 1.283 . S
C1147 O1134 1.243 . S
C1148 C1149 1.382 . S
C1148 C1152 1.393 . S
C1148 C1155 1.500 . S
C1149 C1148 1.382 . S
C1149 C1150 1.400 . S
C1149 H1160 0.930 . S
C1150 C1149 1.400 . S
C1150 C1151 1.384 . S
C1151 C1150 1.384 . S
C1151 C1153 1.392 . S
C1151 H1161 0.931 . S
C1152 C1148 1.393 . S
C1152 C1153 1.401 . S
C1152 H1162 0.930 . S
C1153 C1151 1.392 . S
C1153 C1152 1.401 . S
C1153 H1163 0.930 . S
C1154 O1132 1.262 . S
C1154 O1133 1.260 . S
C1155 Tb1091 2.833 . S
C1155 O1130 1.251 . S
C1155 O1135 1.256 . S
C1155 C1148 1.500 . S
H1156 C1139 0.930 . S
H1157 C1140 0.931 . S
H1158 C1141 0.930 . S
H1159 C1142 0.930 . S
H1160 C1149 0.930 . S
H1161 C1151 0.931 . S
H1162 C1152 0.930 . S
H1163 C1153 0.930 . S
Tb1164 N1195 2.660 . S
Tb1164 N1202 2.600 . S
Tb1164 O1208 2.546 . S
Tb1164 O1209 2.610 . S
Tb1164 O1211 2.320 . S
Tb1164 O1212 2.552 . S
Tb1164 O1213 2.413 . S
Tb1164 O1215 2.362 . S
Tb1164 O1216 2.421 . S
Tb1164 C1228 2.833 . S
C1165 C1168 1.432 . S
C1165 C1169 1.414 . S
C1165 N1172 1.359 . S
C1166 C1168 1.417 . S
C1166 C1170 1.432 . S
C1166 C1178 1.410 . S
C1167 C1169 1.444 . S
C1167 C1170 1.317 . S
C1167 H1190 0.929 . S
C1168 C1165 1.432 . S
C1168 C1166 1.417 . S
C1168 N1176 1.360 . S
C1169 C1165 1.414 . S
C1169 C1167 1.444 . S
C1169 C1174 1.385 . S
C1170 C1166 1.432 . S
C1170 C1167 1.317 . S
C1170 H1182 0.930 . S
C1171 C1173 1.392 . S
C1171 C1174 1.370 . S
C1171 H1183 0.931 . S
N1172 C1165 1.359 . S
N1172 C1173 1.327 . S
N1172 Tb1175 2.600 . S
C1173 C1171 1.392 . S
C1173 N1172 1.327 . S
C1173 H1180 0.930 . S
C1174 C1169 1.385 . S
C1174 C1171 1.370 . S
C1174 H1193 0.930 . S
Tb1175 N1172 2.600 . S
Tb1175 N1176 2.660 . S
Tb1175 O1209 2.362 . S
Tb1175 O1210 2.421 . S
Tb1175 O1214 2.546 . S
Tb1175 O1215 2.610 . S
Tb1175 O1217 2.320 . S
Tb1175 O1218 2.552 . S
Tb1175 O1219 2.413 . S
Tb1175 C1239 2.833 . S
N1176 C1168 1.360 . S
N1176 Tb1175 2.660 . S
N1176 C1177 1.305 . S
C1177 N1176 1.305 . S
C1177 C1179 1.407 . S
C1177 H1184 0.930 . S
C1178 C1166 1.410 . S
C1178 C1179 1.345 . S
C1178 H1186 0.930 . S
C1179 C1177 1.407 . S
C1179 C1178 1.345 . S
C1179 H1181 0.930 . S
H1180 C1173 0.930 . S
H1181 C1179 0.930 . S
H1182 C1170 0.930 . S
H1183 C1171 0.931 . S
H1184 C1177 0.930 . S
H1185 C1199 0.930 . S
H1186 C1178 0.930 . S
H1187 C1205 0.930 . S
H1188 C1196 0.930 . S
H1189 C1203 0.931 . S
H1190 C1167 0.929 . S
H1191 C1197 0.930 . S
H1192 C1230 0.930 . S
H1193 C1174 0.930 . S
H1194 C1229 0.929 . S
N1195 Tb1164 2.660 . S
N1195 C1196 1.305 . S
N1195 C1200 1.360 . S
C1196 H1188 0.930 . S
C1196 N1195 1.305 . S
C1196 C1199 1.407 . S
C1197 H1191 0.930 . S
C1197 C1198 1.410 . S
C1197 C1199 1.345 . S
C1198 C1197 1.410 . S
C1198 C1200 1.417 . S
C1198 C1230 1.432 . S
C1199 H1185 0.930 . S
C1199 C1196 1.407 . S
C1199 C1197 1.345 . S
C1200 N1195 1.360 . S
C1200 C1198 1.417 . S
C1200 C1204 1.432 . S
H1201 C1206 0.930 . S
N1202 Tb1164 2.600 . S
N1202 C1204 1.359 . S
N1202 C1205 1.327 . S
C1203 H1189 0.931 . S
C1203 C1205 1.392 . S
C1203 C1206 1.370 . S
C1204 C1200 1.432 . S
C1204 N1202 1.359 . S
C1204 C1207 1.414 . S
C1205 H1187 0.930 . S
C1205 N1202 1.327 . S
C1205 C1203 1.392 . S
C1206 H1201 0.930 . S
C1206 C1203 1.370 . S
C1206 C1207 1.385 . S
C1207 C1204 1.414 . S
C1207 C1206 1.385 . S
C1207 C1229 1.444 . S
O1208 Tb1164 2.546 . S
O1208 C1228 1.251 . S
O1209 Tb1164 2.610 . S
O1209 Tb1175 2.362 . S
O1209 C1220 1.283 . S
O1210 Tb1175 2.421 . S
O1210 C1227 1.262 . S
O1211 Tb1164 2.320 . S
O1211 C1227 1.260 . S
O1212 Tb1164 2.552 . S
O1212 C1220 1.243 . S
O1213 Tb1164 2.413 . S
O1213 C1228 1.256 . S
O1214 Tb1175 2.546 . S
O1214 C1239 1.251 . S
O1215 Tb1164 2.362 . S
O1215 Tb1175 2.610 . S
O1215 C1231 1.283 . S
O1216 Tb1164 2.421 . S
O1216 C1238 1.262 . S
O1217 Tb1175 2.320 . S
O1217 C1238 1.260 . S
O1218 Tb1175 2.552 . S
O1218 C1231 1.243 . S
O1219 Tb1175 2.413 . S
O1219 C1239 1.256 . S
C1220 O1209 1.283 . S
C1220 O1212 1.243 . S
C1221 C1223 1.382 . S
C1221 C1225 1.393 . S
C1221 C1228 1.500 . S
C1222 C1223 1.400 . S
C1222 C1224 1.384 . S
C1223 C1221 1.382 . S
C1223 C1222 1.400 . S
C1223 H1240 0.930 . S
C1224 C1222 1.384 . S
C1224 C1226 1.392 . S
C1224 H1241 0.931 . S
C1225 C1221 1.393 . S
C1225 C1226 1.401 . S
C1225 H1242 0.930 . S
C1226 C1224 1.392 . S
C1226 C1225 1.401 . S
C1226 H1243 0.930 . S
C1227 O1210 1.262 . S
C1227 O1211 1.260 . S
C1228 Tb1164 2.833 . S
C1228 O1208 1.251 . S
C1228 O1213 1.256 . S
C1228 C1221 1.500 . S
C1229 H1194 0.929 . S
C1229 C1207 1.444 . S
C1229 C1230 1.317 . S
C1230 H1192 0.930 . S
C1230 C1198 1.432 . S
C1230 C1229 1.317 . S
C1231 O1215 1.283 . S
C1231 O1218 1.243 . S
C1232 C1233 1.382 . S
C1232 C1236 1.393 . S
C1232 C1239 1.500 . S
C1233 C1232 1.382 . S
C1233 C1234 1.400 . S
C1233 H1244 0.930 . S
C1234 C1233 1.400 . S
C1234 C1235 1.384 . S
C1235 C1234 1.384 . S
C1235 C1237 1.392 . S
C1235 H1245 0.931 . S
C1236 C1232 1.393 . S
C1236 C1237 1.401 . S
C1236 H1246 0.930 . S
C1237 C1235 1.392 . S
C1237 C1236 1.401 . S
C1237 H1247 0.930 . S
C1238 O1216 1.262 . S
C1238 O1217 1.260 . S
C1239 Tb1175 2.833 . S
C1239 O1214 1.251 . S
C1239 O1219 1.256 . S
C1239 C1232 1.500 . S
H1240 C1223 0.930 . S
H1241 C1224 0.931 . S
H1242 C1225 0.930 . S
H1243 C1226 0.930 . S
H1244 C1233 0.930 . S
H1245 C1235 0.931 . S
H1246 C1236 0.930 . S
H1247 C1237 0.930 . S
Tb1248 N1279 2.660 . S
Tb1248 N1286 2.600 . S
Tb1248 O1292 2.546 . S
Tb1248 O1293 2.610 . S
Tb1248 O1295 2.320 . S
Tb1248 O1296 2.552 . S
Tb1248 O1297 2.413 . S
Tb1248 O1299 2.362 . S
Tb1248 O1300 2.421 . S
Tb1248 C1312 2.833 . S
C1249 C1252 1.432 . S
C1249 C1253 1.414 . S
C1249 N1256 1.359 . S
C1250 C1252 1.417 . S
C1250 C1254 1.432 . S
C1250 C1262 1.410 . S
C1251 C1253 1.444 . S
C1251 C1254 1.317 . S
C1251 H1274 0.929 . S
C1252 C1249 1.432 . S
C1252 C1250 1.417 . S
C1252 N1260 1.360 . S
C1253 C1249 1.414 . S
C1253 C1251 1.444 . S
C1253 C1258 1.385 . S
C1254 C1250 1.432 . S
C1254 C1251 1.317 . S
C1254 H1266 0.930 . S
C1255 C1257 1.392 . S
C1255 C1258 1.370 . S
C1255 H1267 0.931 . S
N1256 C1249 1.359 . S
N1256 C1257 1.327 . S
N1256 Tb1259 2.600 . S
C1257 C1255 1.392 . S
C1257 N1256 1.327 . S
C1257 H1264 0.930 . S
C1258 C1253 1.385 . S
C1258 C1255 1.370 . S
C1258 H1277 0.930 . S
Tb1259 N1256 2.600 . S
Tb1259 N1260 2.660 . S
Tb1259 O1293 2.362 . S
Tb1259 O1294 2.421 . S
Tb1259 O1298 2.546 . S
Tb1259 O1299 2.610 . S
Tb1259 O1301 2.320 . S
Tb1259 O1302 2.552 . S
Tb1259 O1303 2.413 . S
Tb1259 C1323 2.833 . S
N1260 C1252 1.360 . S
N1260 Tb1259 2.660 . S
N1260 C1261 1.305 . S
C1261 N1260 1.305 . S
C1261 C1263 1.407 . S
C1261 H1268 0.930 . S
C1262 C1250 1.410 . S
C1262 C1263 1.345 . S
C1262 H1270 0.930 . S
C1263 C1261 1.407 . S
C1263 C1262 1.345 . S
C1263 H1265 0.930 . S
H1264 C1257 0.930 . S
H1265 C1263 0.930 . S
H1266 C1254 0.930 . S
H1267 C1255 0.931 . S
H1268 C1261 0.930 . S
H1269 C1283 0.930 . S
H1270 C1262 0.930 . S
H1271 C1289 0.930 . S
H1272 C1280 0.930 . S
H1273 C1287 0.931 . S
H1274 C1251 0.929 . S
H1275 C1281 0.930 . S
H1276 C1314 0.930 . S
H1277 C1258 0.930 . S
H1278 C1313 0.929 . S
N1279 Tb1248 2.660 . S
N1279 C1280 1.305 . S
N1279 C1284 1.360 . S
C1280 H1272 0.930 . S
C1280 N1279 1.305 . S
C1280 C1283 1.407 . S
C1281 H1275 0.930 . S
C1281 C1282 1.410 . S
C1281 C1283 1.345 . S
C1282 C1281 1.410 . S
C1282 C1284 1.417 . S
C1282 C1314 1.432 . S
C1283 H1269 0.930 . S
C1283 C1280 1.407 . S
C1283 C1281 1.345 . S
C1284 N1279 1.360 . S
C1284 C1282 1.417 . S
C1284 C1288 1.432 . S
H1285 C1290 0.930 . S
N1286 Tb1248 2.600 . S
N1286 C1288 1.359 . S
N1286 C1289 1.327 . S
C1287 H1273 0.931 . S
C1287 C1289 1.392 . S
C1287 C1290 1.370 . S
C1288 C1284 1.432 . S
C1288 N1286 1.359 . S
C1288 C1291 1.414 . S
C1289 H1271 0.930 . S
C1289 N1286 1.327 . S
C1289 C1287 1.392 . S
C1290 H1285 0.930 . S
C1290 C1287 1.370 . S
C1290 C1291 1.385 . S
C1291 C1288 1.414 . S
C1291 C1290 1.385 . S
C1291 C1313 1.444 . S
O1292 Tb1248 2.546 . S
O1292 C1312 1.251 . S
O1293 Tb1248 2.610 . S
O1293 Tb1259 2.362 . S
O1293 C1304 1.283 . S
O1294 Tb1259 2.421 . S
O1294 C1311 1.262 . S
O1295 Tb1248 2.320 . S
O1295 C1311 1.260 . S
O1296 Tb1248 2.552 . S
O1296 C1304 1.243 . S
O1297 Tb1248 2.413 . S
O1297 C1312 1.256 . S
O1298 Tb1259 2.546 . S
O1298 C1323 1.251 . S
O1299 Tb1248 2.362 . S
O1299 Tb1259 2.610 . S
O1299 C1315 1.283 . S
O1300 Tb1248 2.421 . S
O1300 C1322 1.262 . S
O1301 Tb1259 2.320 . S
O1301 C1322 1.260 . S
O1302 Tb1259 2.552 . S
O1302 C1315 1.243 . S
O1303 Tb1259 2.413 . S
O1303 C1323 1.256 . S
C1304 O1293 1.283 . S
C1304 O1296 1.243 . S
C1305 C1307 1.382 . S
C1305 C1309 1.393 . S
C1305 C1312 1.500 . S
C1306 C1307 1.400 . S
C1306 C1308 1.384 . S
C1307 C1305 1.382 . S
C1307 C1306 1.400 . S
C1307 H1324 0.930 . S
C1308 C1306 1.384 . S
C1308 C1310 1.392 . S
C1308 H1325 0.931 . S
C1309 C1305 1.393 . S
C1309 C1310 1.401 . S
C1309 H1326 0.930 . S
C1310 C1308 1.392 . S
C1310 C1309 1.401 . S
C1310 H1327 0.930 . S
C1311 O1294 1.262 . S
C1311 O1295 1.260 . S
C1312 Tb1248 2.833 . S
C1312 O1292 1.251 . S
C1312 O1297 1.256 . S
C1312 C1305 1.500 . S
C1313 H1278 0.929 . S
C1313 C1291 1.444 . S
C1313 C1314 1.317 . S
C1314 H1276 0.930 . S
C1314 C1282 1.432 . S
C1314 C1313 1.317 . S
C1315 O1299 1.283 . S
C1315 O1302 1.243 . S
C1316 C1317 1.382 . S
C1316 C1320 1.393 . S
C1316 C1323 1.500 . S
C1317 C1316 1.382 . S
C1317 C1318 1.400 . S
C1317 H1328 0.930 . S
C1318 C1317 1.400 . S
C1318 C1319 1.384 . S
C1319 C1318 1.384 . S
C1319 C1321 1.392 . S
C1319 H1329 0.931 . S
C1320 C1316 1.393 . S
C1320 C1321 1.401 . S
C1320 H1330 0.930 . S
C1321 C1319 1.392 . S
C1321 C1320 1.401 . S
C1321 H1331 0.930 . S
C1322 O1300 1.262 . S
C1322 O1301 1.260 . S
C1323 Tb1259 2.833 . S
C1323 O1298 1.251 . S
C1323 O1303 1.256 . S
C1323 C1316 1.500 . S
H1324 C1307 0.930 . S
H1325 C1308 0.931 . S
H1326 C1309 0.930 . S
H1327 C1310 0.930 . S
H1328 C1317 0.930 . S
H1329 C1319 0.931 . S
H1330 C1320 0.930 . S
H1331 C1321 0.930 . S
H1332 C1344 0.930 . S
H1333 C1346 0.930 . S
H1334 C1347 0.930 . S
H1335 C1351 0.959 . S
H1336 C1351 0.959 . S
H1337 C1351 0.961 . S
H1338 C1352 0.960 . S
H1339 C1352 0.961 . S
H1340 C1352 0.959 . S
H1341 C1355 0.929 . S
H1342 C1356 0.931 . S
H1343 C1358 0.930 . S
C1344 H1332 0.930 . S
C1344 C1345 1.399 . S
C1344 C1349 1.399 . S
C1345 C1344 1.399 . S
C1345 C1346 1.376 . S
C1346 H1333 0.930 . S
C1346 C1345 1.376 . S
C1346 C1347 1.388 . S
C1347 H1334 0.930 . S
C1347 C1346 1.388 . S
C1347 C1348 1.390 . S
C1348 C1347 1.390 . S
C1348 C1349 1.394 . S
C1348 C1354 1.465 . S
C1349 C1344 1.399 . S
C1349 C1348 1.394 . S
C1349 C1350 1.516 . S
C1350 C1349 1.516 . S
C1350 C1351 1.502 . S
C1350 C1352 1.561 . S
C1350 C1353 1.526 . S
C1351 H1335 0.959 . S
C1351 H1336 0.959 . S
C1351 H1337 0.961 . S
C1351 C1350 1.502 . S
C1352 H1338 0.960 . S
C1352 H1339 0.961 . S
C1352 H1340 0.959 . S
C1352 C1350 1.561 . S
C1353 C1350 1.526 . S
C1353 C1354 1.396 . S
C1353 C1358 1.390 . S
C1354 C1348 1.465 . S
C1354 C1353 1.396 . S
C1354 C1355 1.399 . S
C1355 H1341 0.929 . S
C1355 C1354 1.399 . S
C1355 C1356 1.385 . S
C1356 H1342 0.931 . S
C1356 C1355 1.385 . S
C1356 C1357 1.389 . S
C1357 C1356 1.389 . S
C1357 C1358 1.387 . S
C1358 H1343 0.930 . S
C1358 C1353 1.390 . S
C1358 C1357 1.387 . S
H1359 C1371 0.930 . S
H1360 C1373 0.930 . S
H1361 C1374 0.930 . S
H1362 C1378 0.959 . S
H1363 C1378 0.959 . S
H1364 C1378 0.961 . S
H1365 C1379 0.960 . S
H1366 C1379 0.961 . S
H1367 C1379 0.959 . S
H1368 C1382 0.929 . S
H1369 C1383 0.931 . S
H1370 C1385 0.930 . S
C1371 H1359 0.930 . S
C1371 C1372 1.399 . S
C1371 C1376 1.399 . S
C1372 C1371 1.399 . S
C1372 C1373 1.376 . S
C1373 H1360 0.930 . S
C1373 C1372 1.376 . S
C1373 C1374 1.388 . S
C1374 H1361 0.930 . S
C1374 C1373 1.388 . S
C1374 C1375 1.390 . S
C1375 C1374 1.390 . S
C1375 C1376 1.394 . S
C1375 C1381 1.465 . S
C1376 C1371 1.399 . S
C1376 C1375 1.394 . S
C1376 C1377 1.516 . S
C1377 C1376 1.516 . S
C1377 C1378 1.502 . S
C1377 C1379 1.561 . S
C1377 C1380 1.526 . S
C1378 H1362 0.959 . S
C1378 H1363 0.959 . S
C1378 H1364 0.961 . S
C1378 C1377 1.502 . S
C1379 H1365 0.960 . S
C1379 H1366 0.961 . S
C1379 H1367 0.959 . S
C1379 C1377 1.561 . S
C1380 C1377 1.526 . S
C1380 C1381 1.396 . S
C1380 C1385 1.390 . S
C1381 C1375 1.465 . S
C1381 C1380 1.396 . S
C1381 C1382 1.399 . S
C1382 H1368 0.929 . S
C1382 C1381 1.399 . S
C1382 C1383 1.385 . S
C1383 H1369 0.931 . S
C1383 C1382 1.385 . S
C1383 C1384 1.389 . S
C1384 C1383 1.389 . S
C1384 C1385 1.387 . S
C1385 H1370 0.930 . S
C1385 C1380 1.390 . S
C1385 C1384 1.387 . S
H1386 C1398 0.930 . S
H1387 C1400 0.930 . S
H1388 C1401 0.930 . S
H1389 C1405 0.959 . S
H1390 C1405 0.959 . S
H1391 C1405 0.961 . S
H1392 C1406 0.960 . S
H1393 C1406 0.961 . S
H1394 C1406 0.959 . S
H1395 C1409 0.929 . S
H1396 C1410 0.931 . S
H1397 C1412 0.930 . S
C1398 H1386 0.930 . S
C1398 C1399 1.399 . S
C1398 C1403 1.399 . S
C1399 C1398 1.399 . S
C1399 C1400 1.376 . S
C1400 H1387 0.930 . S
C1400 C1399 1.376 . S
C1400 C1401 1.388 . S
C1401 H1388 0.930 . S
C1401 C1400 1.388 . S
C1401 C1402 1.390 . S
C1402 C1401 1.390 . S
C1402 C1403 1.394 . S
C1402 C1408 1.465 . S
C1403 C1398 1.399 . S
C1403 C1402 1.394 . S
C1403 C1404 1.516 . S
C1404 C1403 1.516 . S
C1404 C1405 1.502 . S
C1404 C1406 1.561 . S
C1404 C1407 1.526 . S
C1405 H1389 0.959 . S
C1405 H1390 0.959 . S
C1405 H1391 0.961 . S
C1405 C1404 1.502 . S
C1406 H1392 0.960 . S
C1406 H1393 0.961 . S
C1406 H1394 0.959 . S
C1406 C1404 1.561 . S
C1407 C1404 1.526 . S
C1407 C1408 1.396 . S
C1407 C1412 1.390 . S
C1408 C1402 1.465 . S
C1408 C1407 1.396 . S
C1408 C1409 1.399 . S
C1409 H1395 0.929 . S
C1409 C1408 1.399 . S
C1409 C1410 1.385 . S
C1410 H1396 0.931 . S
C1410 C1409 1.385 . S
C1410 C1411 1.389 . S
C1411 C1410 1.389 . S
C1411 C1412 1.387 . S
C1412 H1397 0.930 . S
C1412 C1407 1.390 . S
C1412 C1411 1.387 . S
H1413 C1425 0.930 . S
H1414 C1427 0.930 . S
H1415 C1428 0.930 . S
H1416 C1432 0.959 . S
H1417 C1432 0.959 . S
H1418 C1432 0.961 . S
H1419 C1433 0.960 . S
H1420 C1433 0.961 . S
H1421 C1433 0.959 . S
H1422 C1436 0.929 1_554 S
H1423 C1437 0.931 1_554 S
H1424 C1439 0.930 . S
C1425 H1413 0.930 . S
C1425 C1426 1.399 . S
C1425 C1430 1.399 . S
C1426 C1425 1.399 . S
C1426 C1427 1.376 . S
C1427 H1414 0.930 . S
C1427 C1426 1.376 . S
C1427 C1428 1.388 . S
C1428 H1415 0.930 . S
C1428 C1427 1.388 . S
C1428 C1429 1.390 . S
C1429 C1428 1.390 . S
C1429 C1430 1.394 . S
C1429 C1435 1.465 . S
C1430 C1425 1.399 . S
C1430 C1429 1.394 . S
C1430 C1431 1.516 . S
C1431 C1430 1.516 . S
C1431 C1432 1.502 . S
C1431 C1433 1.561 . S
C1431 C1434 1.526 . S
C1432 H1416 0.959 . S
C1432 H1417 0.959 . S
C1432 H1418 0.961 . S
C1432 C1431 1.502 . S
C1433 H1419 0.960 . S
C1433 H1420 0.961 . S
C1433 H1421 0.959 . S
C1433 C1431 1.561 . S
C1434 C1431 1.526 . S
C1434 C1435 1.396 . S
C1434 C1439 1.390 . S
C1435 C1429 1.465 . S
C1435 C1434 1.396 . S
C1435 C1436 1.399 . S
C1436 H1422 0.929 1_556 S
C1436 C1435 1.399 . S
C1436 C1437 1.385 . S
C1437 H1423 0.931 1_556 S
C1437 C1436 1.385 . S
C1437 C1438 1.389 . S
C1438 C1437 1.389 . S
C1438 C1439 1.387 . S
C1439 H1424 0.930 . S
C1439 C1434 1.390 . S
C1439 C1438 1.387 . S
H1440 C1452 0.930 . S
H1441 C1454 0.930 . S
H1442 C1455 0.930 . S
H1443 C1459 0.959 . S
H1444 C1459 0.959 . S
H1445 C1459 0.961 . S
H1446 C1460 0.960 . S
H1447 C1460 0.961 . S
H1448 C1460 0.959 . S
H1449 C1463 0.929 1_554 S
H1450 C1464 0.931 1_554 S
H1451 C1466 0.930 . S
C1452 H1440 0.930 . S
C1452 C1453 1.399 . S
C1452 C1457 1.399 . S
C1453 C1452 1.399 . S
C1453 C1454 1.376 . S
C1454 H1441 0.930 . S
C1454 C1453 1.376 . S
C1454 C1455 1.388 . S
C1455 H1442 0.930 . S
C1455 C1454 1.388 . S
C1455 C1456 1.390 . S
C1456 C1455 1.390 . S
C1456 C1457 1.394 . S
C1456 C1462 1.465 . S
C1457 C1452 1.399 . S
C1457 C1456 1.394 . S
C1457 C1458 1.516 . S
C1458 C1457 1.516 . S
C1458 C1459 1.502 . S
C1458 C1460 1.561 . S
C1458 C1461 1.526 . S
C1459 H1443 0.959 . S
C1459 H1444 0.959 . S
C1459 H1445 0.961 . S
C1459 C1458 1.502 . S
C1460 H1446 0.960 . S
C1460 H1447 0.961 . S
C1460 H1448 0.959 . S
C1460 C1458 1.561 . S
C1461 C1458 1.526 . S
C1461 C1462 1.396 . S
C1461 C1466 1.390 . S
C1462 C1456 1.465 . S
C1462 C1461 1.396 . S
C1462 C1463 1.399 . S
C1463 H1449 0.929 1_556 S
C1463 C1462 1.399 . S
C1463 C1464 1.385 . S
C1464 H1450 0.931 1_556 S
C1464 C1463 1.385 . S
C1464 C1465 1.389 . S
C1465 C1464 1.389 . S
C1465 C1466 1.387 . S
C1466 H1451 0.930 . S
C1466 C1461 1.390 . S
C1466 C1465 1.387 . S
H1467 C1479 0.930 . S
H1468 C1481 0.930 . S
H1469 C1482 0.930 . S
H1470 C1486 0.959 . S
H1471 C1486 0.959 . S
H1472 C1486 0.961 . S
H1473 C1487 0.960 . S
H1474 C1487 0.961 . S
H1475 C1487 0.959 . S
H1476 C1490 0.929 . S
H1477 C1491 0.931 . S
H1478 C1493 0.930 . S
C1479 H1467 0.930 . S
C1479 C1480 1.399 . S
C1479 C1484 1.399 . S
C1480 C1479 1.399 . S
C1480 C1481 1.376 . S
C1481 H1468 0.930 . S
C1481 C1480 1.376 . S
C1481 C1482 1.388 . S
C1482 H1469 0.930 . S
C1482 C1481 1.388 . S
C1482 C1483 1.390 . S
C1483 C1482 1.390 . S
C1483 C1484 1.394 . S
C1483 C1489 1.465 . S
C1484 C1479 1.399 . S
C1484 C1483 1.394 . S
C1484 C1485 1.516 . S
C1485 C1484 1.516 . S
C1485 C1486 1.502 . S
C1485 C1487 1.561 . S
C1485 C1488 1.526 . S
C1486 H1470 0.959 . S
C1486 H1471 0.959 . S
C1486 H1472 0.961 . S
C1486 C1485 1.502 . S
C1487 H1473 0.960 . S
C1487 H1474 0.961 . S
C1487 H1475 0.959 . S
C1487 C1485 1.561 . S
C1488 C1485 1.526 . S
C1488 C1489 1.396 . S
C1488 C1493 1.390 . S
C1489 C1483 1.465 . S
C1489 C1488 1.396 . S
C1489 C1490 1.399 . S
C1490 H1476 0.929 . S
C1490 C1489 1.399 . S
C1490 C1491 1.385 . S
C1491 H1477 0.931 . S
C1491 C1490 1.385 . S
C1491 C1492 1.389 . S
C1492 C1491 1.389 . S
C1492 C1493 1.387 . S
C1493 H1478 0.930 . S
C1493 C1488 1.390 . S
C1493 C1492 1.387 . S
H1494 C1506 0.930 . S
H1495 C1508 0.930 . S
H1496 C1509 0.930 . S
H1497 C1513 0.959 . S
H1498 C1513 0.959 . S
H1499 C1513 0.961 . S
H1500 C1514 0.960 . S
H1501 C1514 0.961 . S
H1502 C1514 0.959 . S
H1503 C1517 0.929 . S
H1504 C1518 0.931 . S
H1505 C1520 0.930 . S
C1506 H1494 0.930 . S
C1506 C1507 1.399 . S
C1506 C1511 1.399 . S
C1507 C1506 1.399 . S
C1507 C1508 1.376 . S
C1508 H1495 0.930 . S
C1508 C1507 1.376 . S
C1508 C1509 1.388 . S
C1509 H1496 0.930 . S
C1509 C1508 1.388 . S
C1509 C1510 1.390 . S
C1510 C1509 1.390 . S
C1510 C1511 1.394 . S
C1510 C1516 1.465 . S
C1511 C1506 1.399 . S
C1511 C1510 1.394 . S
C1511 C1512 1.516 . S
C1512 C1511 1.516 . S
C1512 C1513 1.502 . S
C1512 C1514 1.561 1_556 S
C1512 C1515 1.526 . S
C1513 H1497 0.959 . S
C1513 H1498 0.959 . S
C1513 H1499 0.961 . S
C1513 C1512 1.502 . S
C1514 H1500 0.960 . S
C1514 H1501 0.961 . S
C1514 H1502 0.959 . S
C1514 C1512 1.561 1_554 S
C1515 C1512 1.526 . S
C1515 C1516 1.396 . S
C1515 C1520 1.390 . S
C1516 C1510 1.465 . S
C1516 C1515 1.396 . S
C1516 C1517 1.399 . S
C1517 H1503 0.929 . S
C1517 C1516 1.399 . S
C1517 C1518 1.385 . S
C1518 H1504 0.931 . S
C1518 C1517 1.385 . S
C1518 C1519 1.389 . S
C1519 C1518 1.389 . S
C1519 C1520 1.387 . S
C1520 H1505 0.930 . S
C1520 C1515 1.390 . S
C1520 C1519 1.387 . S
H1521 C1533 0.930 . S
H1522 C1535 0.930 . S
H1523 C1536 0.930 . S
H1524 C1540 0.959 . S
H1525 C1540 0.959 . S
H1526 C1540 0.961 . S
H1527 C1541 0.960 . S
H1528 C1541 0.961 . S
H1529 C1541 0.959 . S
H1530 C1544 0.929 . S
H1531 C1545 0.931 . S
H1532 C1547 0.930 . S
C1533 H1521 0.930 . S
C1533 C1534 1.399 . S
C1533 C1538 1.399 . S
C1534 C1533 1.399 . S
C1534 C1535 1.376 . S
C1535 H1522 0.930 . S
C1535 C1534 1.376 . S
C1535 C1536 1.388 . S
C1536 H1523 0.930 . S
C1536 C1535 1.388 . S
C1536 C1537 1.390 . S
C1537 C1536 1.390 . S
C1537 C1538 1.394 . S
C1537 C1543 1.465 . S
C1538 C1533 1.399 . S
C1538 C1537 1.394 . S
C1538 C1539 1.516 . S
C1539 C1538 1.516 . S
C1539 C1540 1.502 . S
C1539 C1541 1.561 . S
C1539 C1542 1.526 . S
C1540 H1524 0.959 . S
C1540 H1525 0.959 . S
C1540 H1526 0.961 . S
C1540 C1539 1.502 . S
C1541 H1527 0.960 . S
C1541 H1528 0.961 . S
C1541 H1529 0.959 . S
C1541 C1539 1.561 . S
C1542 C1539 1.526 . S
C1542 C1543 1.396 . S
C1542 C1547 1.390 . S
C1543 C1537 1.465 . S
C1543 C1542 1.396 . S
C1543 C1544 1.399 . S
C1544 H1530 0.929 . S
C1544 C1543 1.399 . S
C1544 C1545 1.385 . S
C1545 H1531 0.931 . S
C1545 C1544 1.385 . S
C1545 C1546 1.389 . S
C1546 C1545 1.389 . S
C1546 C1547 1.387 . S
C1547 H1532 0.930 . S
C1547 C1542 1.390 . S
C1547 C1546 1.387 . S
H1548 C1560 0.930 . S
H1549 C1562 0.930 . S
H1550 C1563 0.930 . S
H1551 C1567 0.959 . S
H1552 C1567 0.959 1_554 S
H1553 C1567 0.961 . S
H1554 C1568 0.960 . S
H1555 C1568 0.961 . S
H1556 C1568 0.959 1_556 S
H1557 C1571 0.929 . S
H1558 C1572 0.931 . S
H1559 C1574 0.930 1_554 S
C1560 H1548 0.930 . S
C1560 C1561 1.399 . S
C1560 C1565 1.399 . S
C1561 C1560 1.399 . S
C1561 C1562 1.376 . S
C1562 H1549 0.930 . S
C1562 C1561 1.376 . S
C1562 C1563 1.388 . S
C1563 H1550 0.930 . S
C1563 C1562 1.388 . S
C1563 C1564 1.390 . S
C1564 C1563 1.390 . S
C1564 C1565 1.394 . S
C1564 C1570 1.465 . S
C1565 C1560 1.399 . S
C1565 C1564 1.394 . S
C1565 C1566 1.516 . S
C1566 C1565 1.516 . S
C1566 C1567 1.502 . S
C1566 C1568 1.561 1_556 S
C1566 C1569 1.526 . S
C1567 H1551 0.959 . S
C1567 H1552 0.959 1_556 S
C1567 H1553 0.961 . S
C1567 C1566 1.502 . S
C1568 H1554 0.960 . S
C1568 H1555 0.961 . S
C1568 H1556 0.959 1_554 S
C1568 C1566 1.561 1_554 S
C1569 C1566 1.526 . S
C1569 C1570 1.396 . S
C1569 C1574 1.390 . S
C1570 C1564 1.465 . S
C1570 C1569 1.396 . S
C1570 C1571 1.399 . S
C1571 H1557 0.929 . S
C1571 C1570 1.399 . S
C1571 C1572 1.385 . S
C1572 H1558 0.931 . S
C1572 C1571 1.385 . S
C1572 C1573 1.389 . S
C1573 C1572 1.389 . S
C1573 C1574 1.387 . S
C1574 H1559 0.930 1_556 S
C1574 C1569 1.390 . S
C1574 C1573 1.387 . S
H1575 C1587 0.930 . S
H1576 C1589 0.930 . S
H1577 C1590 0.930 . S
H1578 C1594 0.959 . S
H1579 C1594 0.959 . S
H1580 C1594 0.961 . S
H1581 C1595 0.960 . S
H1582 C1595 0.961 . S
H1583 C1595 0.959 . S
H1584 C1598 0.929 . S
H1585 C1599 0.931 1_556 S
H1586 C1601 0.930 . S
C1587 H1575 0.930 . S
C1587 C1588 1.399 . S
C1587 C1592 1.399 . S
C1588 C1587 1.399 . S
C1588 C1589 1.376 . S
C1589 H1576 0.930 . S
C1589 C1588 1.376 . S
C1589 C1590 1.388 . S
C1590 H1577 0.930 . S
C1590 C1589 1.388 . S
C1590 C1591 1.390 . S
C1591 C1590 1.390 . S
C1591 C1592 1.394 . S
C1591 C1597 1.465 . S
C1592 C1587 1.399 . S
C1592 C1591 1.394 . S
C1592 C1593 1.516 . S
C1593 C1592 1.516 . S
C1593 C1594 1.502 . S
C1593 C1595 1.561 . S
C1593 C1596 1.526 . S
C1594 H1578 0.959 . S
C1594 H1579 0.959 . S
C1594 H1580 0.961 . S
C1594 C1593 1.502 . S
C1595 H1581 0.960 . S
C1595 H1582 0.961 . S
C1595 H1583 0.959 . S
C1595 C1593 1.561 . S
C1596 C1593 1.526 . S
C1596 C1597 1.396 . S
C1596 C1601 1.390 . S
C1597 C1591 1.465 . S
C1597 C1596 1.396 . S
C1597 C1598 1.399 . S
C1598 H1584 0.929 . S
C1598 C1597 1.399 . S
C1598 C1599 1.385 . S
C1599 H1585 0.931 1_554 S
C1599 C1598 1.385 . S
C1599 C1600 1.389 . S
C1600 C1599 1.389 . S
C1600 C1601 1.387 . S
C1601 H1586 0.930 . S
C1601 C1596 1.390 . S
C1601 C1600 1.387 . S
H1602 C1614 0.930 . S
H1603 C1616 0.930 . S
H1604 C1617 0.930 . S
H1605 C1621 0.959 . S
H1606 C1621 0.959 . S
H1607 C1621 0.961 . S
H1608 C1622 0.960 . S
H1609 C1622 0.961 1_556 S
H1610 C1622 0.959 . S
H1611 C1625 0.929 . S
H1612 C1626 0.931 . S
H1613 C1628 0.930 . S
C1614 H1602 0.930 . S
C1614 C1615 1.399 . S
C1614 C1619 1.399 . S
C1615 C1614 1.399 . S
C1615 C1616 1.376 . S
C1616 H1603 0.930 . S
C1616 C1615 1.376 . S
C1616 C1617 1.388 . S
C1617 H1604 0.930 . S
C1617 C1616 1.388 . S
C1617 C1618 1.390 . S
C1618 C1617 1.390 . S
C1618 C1619 1.394 . S
C1618 C1624 1.465 . S
C1619 C1614 1.399 . S
C1619 C1618 1.394 . S
C1619 C1620 1.516 . S
C1620 C1619 1.516 . S
C1620 C1621 1.502 . S
C1620 C1622 1.561 . S
C1620 C1623 1.526 . S
C1621 H1605 0.959 . S
C1621 H1606 0.959 . S
C1621 H1607 0.961 . S
C1621 C1620 1.502 . S
C1622 H1608 0.960 . S
C1622 H1609 0.961 1_554 S
C1622 H1610 0.959 . S
C1622 C1620 1.561 . S
C1623 C1620 1.526 . S
C1623 C1624 1.396 . S
C1623 C1628 1.390 . S
C1624 C1618 1.465 . S
C1624 C1623 1.396 . S
C1624 C1625 1.399 . S
C1625 H1611 0.929 . S
C1625 C1624 1.399 . S
C1625 C1626 1.385 . S
C1626 H1612 0.931 . S
C1626 C1625 1.385 . S
C1626 C1627 1.389 . S
C1627 C1626 1.389 . S
C1627 C1628 1.387 . S
C1628 H1613 0.930 . S
C1628 C1623 1.390 . S
C1628 C1627 1.387 . S
H1629 C1641 0.930 . S
H1630 C1643 0.930 . S
H1631 C1644 0.930 . S
H1632 C1648 0.959 . S
H1633 C1648 0.959 1_556 S
H1634 C1648 0.961 . S
H1635 C1649 0.960 . S
H1636 C1649 0.961 . S
H1637 C1649 0.959 . S
H1638 C1652 0.929 . S
H1639 C1653 0.931 . S
H1640 C1655 0.930 . S
C1641 H1629 0.930 . S
C1641 C1642 1.399 . S
C1641 C1646 1.399 . S
C1642 C1641 1.399 . S
C1642 C1643 1.376 . S
C1643 H1630 0.930 . S
C1643 C1642 1.376 . S
C1643 C1644 1.388 . S
C1644 H1631 0.930 . S
C1644 C1643 1.388 . S
C1644 C1645 1.390 . S
C1645 C1644 1.390 . S
C1645 C1646 1.394 . S
C1645 C1651 1.465 . S
C1646 C1641 1.399 . S
C1646 C1645 1.394 . S
C1646 C1647 1.516 . S
C1647 C1646 1.516 . S
C1647 C1648 1.502 . S
C1647 C1649 1.561 . S
C1647 C1650 1.526 . S
C1648 H1632 0.959 . S
C1648 H1633 0.959 1_554 S
C1648 H1634 0.961 . S
C1648 C1647 1.502 . S
C1649 H1635 0.960 . S
C1649 H1636 0.961 . S
C1649 H1637 0.959 . S
C1649 C1647 1.561 . S
C1650 C1647 1.526 . S
C1650 C1651 1.396 . S
C1650 C1655 1.390 . S
C1651 C1645 1.465 . S
C1651 C1650 1.396 . S
C1651 C1652 1.399 . S
C1652 H1638 0.929 . S
C1652 C1651 1.399 . S
C1652 C1653 1.385 . S
C1653 H1639 0.931 . S
C1653 C1652 1.385 . S
C1653 C1654 1.389 . S
C1654 C1653 1.389 . S
C1654 C1655 1.387 . S
C1655 H1640 0.930 . S
C1655 C1650 1.390 . S
C1655 C1654 1.387 . S
H1656 C1668 0.930 . S
H1657 C1670 0.935 . S
H1658 C1671 0.930 . S
H1659 C1675 0.959 . S
H1660 C1675 0.959 . S
H1661 C1675 0.977 . S
H1662 C1676 0.948 1_655 S
H1663 C1676 0.961 . S
H1664 C1676 0.959 . S
H1665 C1679 0.929 . S
H1666 C1680 0.931 . S
H1667 C1682 0.930 . S
C1668 H1656 0.930 . S
C1668 C1669 1.399 . S
C1668 C1673 1.399 1_655 S
C1669 C1668 1.399 . S
C1669 C1670 1.409 . S
C1670 H1657 0.935 . S
C1670 C1669 1.409 . S
C1670 C1671 1.353 1_655 S
C1671 H1658 0.930 . S
C1671 C1670 1.353 1_455 S
C1671 C1672 1.390 . S
C1672 C1671 1.390 . S
C1672 C1673 1.394 . S
C1672 C1678 1.465 . S
C1673 C1668 1.399 1_455 S
C1673 C1672 1.394 . S
C1673 C1674 1.516 . S
C1674 C1673 1.516 . S
C1674 C1675 1.502 . S
C1674 C1676 1.561 . S
C1674 C1677 1.526 . S
C1675 H1659 0.959 . S
C1675 H1660 0.959 . S
C1675 H1661 0.977 . S
C1675 C1674 1.502 . S
C1676 H1662 0.948 1_455 S
C1676 H1663 0.961 . S
C1676 H1664 0.959 . S
C1676 C1674 1.561 . S
C1677 C1674 1.526 . S
C1677 C1678 1.396 . S
C1677 C1682 1.390 . S
C1678 C1672 1.465 . S
C1678 C1677 1.396 . S
C1678 C1679 1.399 . S
C1679 H1665 0.929 . S
C1679 C1678 1.399 . S
C1679 C1680 1.385 . S
C1680 H1666 0.931 . S
C1680 C1679 1.385 . S
C1680 C1681 1.389 . S
C1681 C1680 1.389 . S
C1681 C1682 1.387 . S
C1682 H1667 0.930 . S
C1682 C1677 1.390 . S
C1682 C1681 1.387 . S
H1683 C1695 0.930 . S
H1684 C1697 0.930 . S
H1685 C1698 0.930 . S
H1686 C1702 0.959 . S
H1687 C1702 0.959 . S
H1688 C1702 0.961 . S
H1689 C1703 0.960 . S
H1690 C1703 0.961 . S
H1691 C1703 0.959 . S
H1692 C1706 0.929 . S
H1693 C1707 0.931 . S
H1694 C1709 0.930 . S
C1695 H1683 0.930 . S
C1695 C1696 1.399 . S
C1695 C1700 1.399 . S
C1696 C1695 1.399 . S
C1696 C1697 1.376 . S
C1697 H1684 0.930 . S
C1697 C1696 1.376 . S
C1697 C1698 1.388 . S
C1698 H1685 0.930 . S
C1698 C1697 1.388 . S
C1698 C1699 1.390 . S
C1699 C1698 1.390 . S
C1699 C1700 1.394 . S
C1699 C1705 1.465 . S
C1700 C1695 1.399 . S
C1700 C1699 1.394 . S
C1700 C1701 1.516 . S
C1701 C1700 1.516 . S
C1701 C1702 1.502 . S
C1701 C1703 1.561 . S
C1701 C1704 1.526 . S
C1702 H1686 0.959 . S
C1702 H1687 0.959 . S
C1702 H1688 0.961 . S
C1702 C1701 1.502 . S
C1703 H1689 0.960 . S
C1703 H1690 0.961 . S
C1703 H1691 0.959 . S
C1703 C1701 1.561 . S
C1704 C1701 1.526 . S
C1704 C1705 1.396 . S
C1704 C1709 1.390 . S
C1705 C1699 1.465 . S
C1705 C1704 1.396 . S
C1705 C1706 1.399 . S
C1706 H1692 0.929 . S
C1706 C1705 1.399 . S
C1706 C1707 1.385 . S
C1707 H1693 0.931 . S
C1707 C1706 1.385 . S
C1707 C1708 1.389 . S
C1708 C1707 1.389 . S
C1708 C1709 1.387 . S
C1709 H1694 0.930 . S
C1709 C1704 1.390 . S
C1709 C1708 1.387 . S
H1710 C1722 0.930 . S
H1711 C1724 0.930 . S
H1712 C1725 0.930 . S
H1713 C1729 0.959 . S
H1714 C1729 0.959 . S
H1715 C1729 0.961 . S
H1716 C1730 0.960 . S
H1717 C1730 0.961 . S
H1718 C1730 0.959 . S
H1719 C1733 0.929 . S
H1720 C1734 0.931 . S
H1721 C1736 0.930 . S
C1722 H1710 0.930 . S
C1722 C1723 1.399 . S
C1722 C1727 1.399 1_545 S
C1723 C1722 1.399 . S
C1723 C1724 1.376 . S
C1724 H1711 0.930 . S
C1724 C1723 1.376 . S
C1724 C1725 1.388 . S
C1725 H1712 0.930 . S
C1725 C1724 1.388 . S
C1725 C1726 1.390 1_545 S
C1726 C1725 1.390 1_565 S
C1726 C1727 1.394 . S
C1726 C1732 1.465 . S
C1727 C1722 1.399 1_565 S
C1727 C1726 1.394 . S
C1727 C1728 1.516 . S
C1728 C1727 1.516 . S
C1728 C1729 1.502 . S
C1728 C1730 1.561 . S
C1728 C1731 1.526 . S
C1729 H1713 0.959 . S
C1729 H1714 0.959 . S
C1729 H1715 0.961 . S
C1729 C1728 1.502 . S
C1730 H1716 0.960 . S
C1730 H1717 0.961 . S
C1730 H1718 0.959 . S
C1730 C1728 1.561 . S
C1731 C1728 1.526 . S
C1731 C1732 1.396 . S
C1731 C1736 1.390 . S
C1732 C1726 1.465 . S
C1732 C1731 1.396 . S
C1732 C1733 1.399 . S
C1733 H1719 0.929 . S
C1733 C1732 1.399 . S
C1733 C1734 1.385 . S
C1734 H1720 0.931 . S
C1734 C1733 1.385 . S
C1734 C1735 1.389 . S
C1735 C1734 1.389 . S
C1735 C1736 1.387 . S
C1736 H1721 0.930 . S
C1736 C1731 1.390 . S
C1736 C1735 1.387 . S
H1737 C1749 0.930 . S
H1738 C1751 0.930 . S
H1739 C1752 0.930 . S
H1740 C1756 0.959 . S
H1741 C1756 0.959 . S
H1742 C1756 0.961 . S
H1743 C1757 0.960 . S
H1744 C1757 0.961 . S
H1745 C1757 0.959 . S
H1746 C1760 0.929 . S
H1747 C1761 0.931 . S
H1748 C1763 0.930 . S
C1749 H1737 0.930 . S
C1749 C1750 1.399 . S
C1749 C1754 1.399 . S
C1750 C1749 1.399 . S
C1750 C1751 1.376 . S
C1751 H1738 0.930 . S
C1751 C1750 1.376 . S
C1751 C1752 1.388 . S
C1752 H1739 0.930 . S
C1752 C1751 1.388 . S
C1752 C1753 1.390 . S
C1753 C1752 1.390 . S
C1753 C1754 1.394 . S
C1753 C1759 1.465 . S
C1754 C1749 1.399 . S
C1754 C1753 1.394 . S
C1754 C1755 1.516 . S
C1755 C1754 1.516 . S
C1755 C1756 1.502 . S
C1755 C1757 1.561 . S
C1755 C1758 1.526 . S
C1756 H1740 0.959 . S
C1756 H1741 0.959 . S
C1756 H1742 0.961 . S
C1756 C1755 1.502 . S
C1757 H1743 0.960 . S
C1757 H1744 0.961 . S
C1757 H1745 0.959 . S
C1757 C1755 1.561 . S
C1758 C1755 1.526 . S
C1758 C1759 1.396 . S
C1758 C1763 1.390 . S
C1759 C1753 1.465 . S
C1759 C1758 1.396 . S
C1759 C1760 1.399 . S
C1760 H1746 0.929 . S
C1760 C1759 1.399 . S
C1760 C1761 1.385 . S
C1761 H1747 0.931 . S
C1761 C1760 1.385 . S
C1761 C1762 1.389 . S
C1762 C1761 1.389 . S
C1762 C1763 1.387 . S
C1763 H1748 0.930 . S
C1763 C1758 1.390 . S
C1763 C1762 1.387 . S
H1764 C1776 0.930 . S
H1765 C1778 0.930 . S
H1766 C1779 0.930 . S
H1767 C1783 0.959 . S
H1768 C1783 0.959 . S
H1769 C1783 0.961 . S
H1770 C1784 0.960 . S
H1771 C1784 0.961 . S
H1772 C1784 0.959 . S
H1773 C1787 0.929 . S
H1774 C1788 0.931 . S
H1775 C1790 0.930 . S
C1776 H1764 0.930 . S
C1776 C1777 1.399 . S
C1776 C1781 1.399 . S
C1777 C1776 1.399 . S
C1777 C1778 1.376 . S
C1778 H1765 0.930 . S
C1778 C1777 1.376 . S
C1778 C1779 1.388 . S
C1779 H1766 0.930 . S
C1779 C1778 1.388 . S
C1779 C1780 1.390 . S
C1780 C1779 1.390 . S
C1780 C1781 1.394 . S
C1780 C1786 1.465 . S
C1781 C1776 1.399 . S
C1781 C1780 1.394 . S
C1781 C1782 1.516 . S
C1782 C1781 1.516 . S
C1782 C1783 1.502 . S
C1782 C1784 1.561 . S
C1782 C1785 1.526 . S
C1783 H1767 0.959 . S
C1783 H1768 0.959 . S
C1783 H1769 0.961 . S
C1783 C1782 1.502 . S
C1784 H1770 0.960 . S
C1784 H1771 0.961 . S
C1784 H1772 0.959 . S
C1784 C1782 1.561 . S
C1785 C1782 1.526 . S
C1785 C1786 1.396 . S
C1785 C1790 1.390 . S
C1786 C1780 1.465 . S
C1786 C1785 1.396 . S
C1786 C1787 1.399 . S
C1787 H1773 0.929 . S
C1787 C1786 1.399 . S
C1787 C1788 1.385 . S
C1788 H1774 0.931 . S
C1788 C1787 1.385 . S
C1788 C1789 1.389 . S
C1789 C1788 1.389 . S
C1789 C1790 1.387 . S
C1790 H1775 0.930 . S
C1790 C1785 1.390 . S
C1790 C1789 1.387 . S
H1791 C1803 0.930 . S
H1792 C1805 0.930 . S
H1793 C1806 0.930 . S
H1794 C1810 0.959 . S
H1795 C1810 0.959 . S
H1796 C1810 0.961 . S
H1797 C1811 0.960 . S
H1798 C1811 0.961 . S
H1799 C1811 0.959 . S
H1800 C1814 0.929 . S
H1801 C1815 0.931 . S
H1802 C1817 0.930 . S
C1803 H1791 0.930 . S
C1803 C1804 1.399 . S
C1803 C1808 1.399 . S
C1804 C1803 1.399 . S
C1804 C1805 1.376 . S
C1805 H1792 0.930 . S
C1805 C1804 1.376 . S
C1805 C1806 1.388 . S
C1806 H1793 0.930 . S
C1806 C1805 1.388 . S
C1806 C1807 1.390 . S
C1807 C1806 1.390 . S
C1807 C1808 1.394 . S
C1807 C1813 1.465 . S
C1808 C1803 1.399 . S
C1808 C1807 1.394 . S
C1808 C1809 1.516 . S
C1809 C1808 1.516 . S
C1809 C1810 1.502 . S
C1809 C1811 1.561 . S
C1809 C1812 1.526 . S
C1810 H1794 0.959 . S
C1810 H1795 0.959 . S
C1810 H1796 0.961 . S
C1810 C1809 1.502 . S
C1811 H1797 0.960 . S
C1811 H1798 0.961 . S
C1811 H1799 0.959 . S
C1811 C1809 1.561 . S
C1812 C1809 1.526 . S
C1812 C1813 1.396 . S
C1812 C1817 1.390 . S
C1813 C1807 1.465 . S
C1813 C1812 1.396 . S
C1813 C1814 1.399 . S
C1814 H1800 0.929 . S
C1814 C1813 1.399 . S
C1814 C1815 1.385 . S
C1815 H1801 0.931 . S
C1815 C1814 1.385 . S
C1815 C1816 1.389 . S
C1816 C1815 1.389 . S
C1816 C1817 1.387 . S
C1817 H1802 0.930 . S
C1817 C1812 1.390 . S
C1817 C1816 1.387 . S
H1818 C1830 0.930 . S
H1819 C1832 0.930 . S
H1820 C1833 0.930 . S
H1821 C1837 0.959 . S
H1822 C1837 0.959 . S
H1823 C1837 0.961 . S
H1824 C1838 0.960 . S
H1825 C1838 0.961 . S
H1826 C1838 0.959 . S
H1827 C1841 0.929 . S
H1828 C1842 0.931 . S
H1829 C1844 0.930 . S
C1830 H1818 0.930 . S
C1830 C1831 1.399 . S
C1830 C1835 1.399 . S
C1831 C1830 1.399 . S
C1831 C1832 1.376 . S
C1832 H1819 0.930 . S
C1832 C1831 1.376 . S
C1832 C1833 1.388 . S
C1833 H1820 0.930 . S
C1833 C1832 1.388 . S
C1833 C1834 1.390 . S
C1834 C1833 1.390 . S
C1834 C1835 1.394 . S
C1834 C1840 1.465 . S
C1835 C1830 1.399 . S
C1835 C1834 1.394 . S
C1835 C1836 1.516 . S
C1836 C1835 1.516 . S
C1836 C1837 1.502 . S
C1836 C1838 1.561 . S
C1836 C1839 1.526 . S
C1837 H1821 0.959 . S
C1837 H1822 0.959 . S
C1837 H1823 0.961 . S
C1837 C1836 1.502 . S
C1838 H1824 0.960 . S
C1838 H1825 0.961 . S
C1838 H1826 0.959 . S
C1838 C1836 1.561 . S
C1839 C1836 1.526 . S
C1839 C1840 1.396 . S
C1839 C1844 1.390 . S
C1840 C1834 1.465 . S
C1840 C1839 1.396 . S
C1840 C1841 1.399 . S
C1841 H1827 0.929 . S
C1841 C1840 1.399 . S
C1841 C1842 1.385 . S
C1842 H1828 0.931 . S
C1842 C1841 1.385 . S
C1842 C1843 1.389 . S
C1843 C1842 1.389 . S
C1843 C1844 1.387 . S
C1844 H1829 0.930 . S
C1844 C1839 1.390 . S
C1844 C1843 1.387 . S
H1845 C1857 0.930 . S
H1846 C1859 0.930 . S
H1847 C1860 0.930 . S
H1848 C1864 0.959 . S
H1849 C1864 0.959 . S
H1850 C1864 0.961 . S
H1851 C1865 0.960 . S
H1852 C1865 0.961 . S
H1853 C1865 0.959 . S
H1854 C1868 0.929 . S
H1855 C1869 0.931 . S
H1856 C1871 0.930 . S
C1857 H1845 0.930 . S
C1857 C1858 1.399 . S
C1857 C1862 1.399 . S
C1858 C1857 1.399 . S
C1858 C1859 1.376 . S
C1859 H1846 0.930 . S
C1859 C1858 1.376 . S
C1859 C1860 1.388 . S
C1860 H1847 0.930 . S
C1860 C1859 1.388 . S
C1860 C1861 1.390 . S
C1861 C1860 1.390 . S
C1861 C1862 1.394 . S
C1861 C1867 1.465 . S
C1862 C1857 1.399 . S
C1862 C1861 1.394 . S
C1862 C1863 1.516 . S
C1863 C1862 1.516 . S
C1863 C1864 1.502 . S
C1863 C1865 1.561 . S
C1863 C1866 1.526 . S
C1864 H1848 0.959 . S
C1864 H1849 0.959 . S
C1864 H1850 0.961 . S
C1864 C1863 1.502 . S
C1865 H1851 0.960 . S
C1865 H1852 0.961 . S
C1865 H1853 0.959 . S
C1865 C1863 1.561 . S
C1866 C1863 1.526 . S
C1866 C1867 1.396 . S
C1866 C1871 1.390 . S
C1867 C1861 1.465 . S
C1867 C1866 1.396 . S
C1867 C1868 1.399 . S
C1868 H1854 0.929 . S
C1868 C1867 1.399 . S
C1868 C1869 1.385 . S
C1869 H1855 0.931 . S
C1869 C1868 1.385 . S
C1869 C1870 1.389 . S
C1870 C1869 1.389 . S
C1870 C1871 1.387 . S
C1871 H1856 0.930 . S
C1871 C1866 1.390 . S
C1871 C1870 1.387 . S
H1872 C1884 0.930 . S
H1873 C1886 0.930 . S
H1874 C1887 0.930 . S
H1875 C1891 0.959 . S
H1876 C1891 0.959 . S
H1877 C1891 0.961 . S
H1878 C1892 0.960 . S
H1879 C1892 0.961 . S
H1880 C1892 0.959 . S
H1881 C1895 0.929 . S
H1882 C1896 0.931 . S
H1883 C1898 0.930 . S
C1884 H1872 0.930 . S
C1884 C1885 1.399 . S
C1884 C1889 1.399 . S
C1885 C1884 1.399 . S
C1885 C1886 1.376 . S
C1886 H1873 0.930 . S
C1886 C1885 1.376 . S
C1886 C1887 1.388 . S
C1887 H1874 0.930 . S
C1887 C1886 1.388 . S
C1887 C1888 1.390 . S
C1888 C1887 1.390 . S
C1888 C1889 1.394 . S
C1888 C1894 1.465 . S
C1889 C1884 1.399 . S
C1889 C1888 1.394 . S
C1889 C1890 1.516 . S
C1890 C1889 1.516 . S
C1890 C1891 1.502 . S
C1890 C1892 1.561 . S
C1890 C1893 1.526 . S
C1891 H1875 0.959 . S
C1891 H1876 0.959 . S
C1891 H1877 0.961 . S
C1891 C1890 1.502 . S
C1892 H1878 0.960 . S
C1892 H1879 0.961 . S
C1892 H1880 0.959 . S
C1892 C1890 1.561 . S
C1893 C1890 1.526 . S
C1893 C1894 1.396 . S
C1893 C1898 1.390 . S
C1894 C1888 1.465 . S
C1894 C1893 1.396 . S
C1894 C1895 1.399 . S
C1895 H1881 0.929 . S
C1895 C1894 1.399 . S
C1895 C1896 1.385 . S
C1896 H1882 0.931 . S
C1896 C1895 1.385 . S
C1896 C1897 1.389 . S
C1897 C1896 1.389 . S
C1897 C1898 1.387 . S
C1898 H1883 0.930 . S
C1898 C1893 1.390 . S
C1898 C1897 1.387 . S
H1899 C1911 0.930 . S
H1900 C1913 0.930 . S
H1901 C1914 0.930 . S
H1902 C1918 0.959 . S
H1903 C1918 0.959 . S
H1904 C1918 0.961 1_545 S
H1905 C1919 0.960 1_545 S
H1906 C1919 0.961 . S
H1907 C1919 0.959 . S
H1908 C1922 0.929 . S
H1909 C1923 0.931 . S
H1910 C1925 0.930 . S
C1911 H1899 0.930 . S
C1911 C1912 1.399 . S
C1911 C1916 1.399 1_545 S
C1912 C1911 1.399 . S
C1912 C1913 1.376 . S
C1913 H1900 0.930 . S
C1913 C1912 1.376 . S
C1913 C1914 1.388 1_545 S
C1914 H1901 0.930 . S
C1914 C1913 1.388 1_565 S
C1914 C1915 1.390 . S
C1915 C1914 1.390 . S
C1915 C1916 1.394 . S
C1915 C1921 1.465 . S
C1916 C1911 1.399 1_565 S
C1916 C1915 1.394 . S
C1916 C1917 1.516 . S
C1917 C1916 1.516 . S
C1917 C1918 1.502 . S
C1917 C1919 1.561 . S
C1917 C1920 1.526 . S
C1918 H1902 0.959 . S
C1918 H1903 0.959 . S
C1918 H1904 0.961 1_565 S
C1918 C1917 1.502 . S
C1919 H1905 0.960 1_565 S
C1919 H1906 0.961 . S
C1919 H1907 0.959 . S
C1919 C1917 1.561 . S
C1920 C1917 1.526 . S
C1920 C1921 1.396 . S
C1920 C1925 1.390 . S
C1921 C1915 1.465 . S
C1921 C1920 1.396 . S
C1921 C1922 1.399 . S
C1922 H1908 0.929 . S
C1922 C1921 1.399 . S
C1922 C1923 1.385 . S
C1923 H1909 0.931 . S
C1923 C1922 1.385 . S
C1923 C1924 1.389 . S
C1924 C1923 1.389 . S
C1924 C1925 1.387 . S
C1925 H1910 0.930 . S
C1925 C1920 1.390 . S
C1925 C1924 1.387 . S
H1926 C1938 0.930 . S
H1927 C1940 0.930 1_655 S
H1928 C1941 0.930 . S
H1929 C1945 0.959 . S
H1930 C1945 0.959 . S
H1931 C1945 0.961 . S
H1932 C1946 0.948 1_655 S
H1933 C1946 0.961 . S
H1934 C1946 0.959 . S
H1935 C1949 0.929 . S
H1936 C1950 0.931 . S
H1937 C1952 0.930 . S
C1938 H1926 0.930 . S
C1938 C1939 1.399 . S
C1938 C1943 1.399 1_655 S
C1939 C1938 1.399 . S
C1939 C1940 1.376 1_655 S
C1940 H1927 0.930 1_455 S
C1940 C1939 1.376 1_455 S
C1940 C1941 1.388 . S
C1941 H1928 0.930 . S
C1941 C1940 1.388 . S
C1941 C1942 1.390 . S
C1942 C1941 1.390 . S
C1942 C1943 1.394 . S
C1942 C1948 1.465 . S
C1943 C1938 1.399 1_455 S
C1943 C1942 1.394 . S
C1943 C1944 1.516 . S
C1944 C1943 1.516 . S
C1944 C1945 1.502 . S
C1944 C1946 1.561 . S
C1944 C1947 1.526 . S
C1945 H1929 0.959 . S
C1945 H1930 0.959 . S
C1945 H1931 0.961 . S
C1945 C1944 1.502 . S
C1946 H1932 0.948 1_455 S
C1946 H1933 0.961 . S
C1946 H1934 0.959 . S
C1946 C1944 1.561 . S
C1947 C1944 1.526 . S
C1947 C1948 1.396 . S
C1947 C1952 1.390 . S
C1948 C1942 1.465 . S
C1948 C1947 1.396 . S
C1948 C1949 1.399 . S
C1949 H1935 0.929 . S
C1949 C1948 1.399 . S
C1949 C1950 1.385 . S
C1950 H1936 0.931 . S
C1950 C1949 1.385 . S
C1950 C1951 1.389 . S
C1951 C1950 1.389 . S
C1951 C1952 1.387 . S
C1952 H1937 0.930 . S
C1952 C1947 1.390 . S
C1952 C1951 1.387 . S
H1953 C1965 0.930 . S
H1954 C1967 0.930 . S
H1955 C1968 0.930 . S
H1956 C1972 0.959 . S
H1957 C1972 0.959 . S
H1958 C1972 0.961 . S
H1959 C1973 0.960 . S
H1960 C1973 0.961 . S
H1961 C1973 0.959 . S
H1962 C1976 0.929 . S
H1963 C1977 0.931 . S
H1964 C1979 0.930 . S
C1965 H1953 0.930 . S
C1965 C1966 1.399 . S
C1965 C1970 1.399 . S
C1966 C1965 1.399 . S
C1966 C1967 1.376 . S
C1967 H1954 0.930 . S
C1967 C1966 1.376 . S
C1967 C1968 1.388 . S
C1968 H1955 0.930 . S
C1968 C1967 1.388 . S
C1968 C1969 1.390 . S
C1969 C1968 1.390 . S
C1969 C1970 1.394 . S
C1969 C1975 1.465 . S
C1970 C1965 1.399 . S
C1970 C1969 1.394 . S
C1970 C1971 1.516 . S
C1971 C1970 1.516 . S
C1971 C1972 1.502 . S
C1971 C1973 1.561 . S
C1971 C1974 1.526 . S
C1972 H1956 0.959 . S
C1972 H1957 0.959 . S
C1972 H1958 0.961 . S
C1972 C1971 1.502 . S
C1973 H1959 0.960 . S
C1973 H1960 0.961 . S
C1973 H1961 0.959 . S
C1973 C1971 1.561 . S
C1974 C1971 1.526 . S
C1974 C1975 1.396 . S
C1974 C1979 1.390 . S
C1975 C1969 1.465 . S
C1975 C1974 1.396 . S
C1975 C1976 1.399 . S
C1976 H1962 0.929 . S
C1976 C1975 1.399 . S
C1976 C1977 1.385 . S
C1977 H1963 0.931 . S
C1977 C1976 1.385 . S
C1977 C1978 1.389 . S
C1978 C1977 1.389 . S
C1978 C1979 1.387 . S
C1979 H1964 0.930 . S
C1979 C1974 1.390 . S
C1979 C1978 1.387 . S
H1980 C1992 0.930 . S
H1981 C1994 0.930 . S
H1982 C1995 0.930 . S
H1983 C1999 0.959 . S
H1984 C1999 0.959 . S
H1985 C1999 0.961 . S
H1986 C2000 0.960 . S
H1987 C2000 0.961 . S
H1988 C2000 0.959 . S
H1989 C2003 0.929 . S
H1990 C2004 0.931 . S
H1991 C2006 0.930 . S
C1992 H1980 0.930 . S
C1992 C1993 1.399 . S
C1992 C1997 1.399 . S
C1993 C1992 1.399 . S
C1993 C1994 1.376 . S
C1994 H1981 0.930 . S
C1994 C1993 1.376 . S
C1994 C1995 1.388 . S
C1995 H1982 0.930 . S
C1995 C1994 1.388 . S
C1995 C1996 1.390 . S
C1996 C1995 1.390 . S
C1996 C1997 1.394 . S
C1996 C2002 1.465 . S
C1997 C1992 1.399 . S
C1997 C1996 1.394 . S
C1997 C1998 1.516 . S
C1998 C1997 1.516 . S
C1998 C1999 1.502 . S
C1998 C2000 1.561 . S
C1998 C2001 1.526 . S
C1999 H1983 0.959 . S
C1999 H1984 0.959 . S
C1999 H1985 0.961 . S
C1999 C1998 1.502 . S
C2000 H1986 0.960 . S
C2000 H1987 0.961 . S
C2000 H1988 0.959 . S
C2000 C1998 1.561 . S
C2001 C1998 1.526 . S
C2001 C2002 1.396 . S
C2001 C2006 1.390 . S
C2002 C1996 1.465 . S
C2002 C2001 1.396 . S
C2002 C2003 1.399 . S
C2003 H1989 0.929 . S
C2003 C2002 1.399 . S
C2003 C2004 1.385 . S
C2004 H1990 0.931 . S
C2004 C2003 1.385 . S
C2004 C2005 1.389 . S
C2005 C2004 1.389 . S
C2005 C2006 1.387 . S
C2006 H1991 0.930 . S
C2006 C2001 1.390 . S
C2006 C2005 1.387 . S
H2007 C2019 0.930 . S
H2008 C2021 0.930 . S
H2009 C2022 0.930 . S
H2010 C2026 0.959 . S
H2011 C2026 0.959 . S
H2012 C2026 0.961 . S
H2013 C2027 0.960 . S
H2014 C2027 0.961 . S
H2015 C2027 0.959 . S
H2016 C2030 0.929 . S
H2017 C2031 0.931 . S
H2018 C2033 0.930 . S
C2019 H2007 0.930 . S
C2019 C2020 1.399 . S
C2019 C2024 1.399 . S
C2020 C2019 1.399 . S
C2020 C2021 1.376 . S
C2021 H2008 0.930 . S
C2021 C2020 1.376 . S
C2021 C2022 1.388 . S
C2022 H2009 0.930 . S
C2022 C2021 1.388 . S
C2022 C2023 1.390 . S
C2023 C2022 1.390 . S
C2023 C2024 1.394 . S
C2023 C2029 1.465 . S
C2024 C2019 1.399 . S
C2024 C2023 1.394 . S
C2024 C2025 1.516 . S
C2025 C2024 1.516 . S
C2025 C2026 1.502 . S
C2025 C2027 1.561 . S
C2025 C2028 1.526 . S
C2026 H2010 0.959 . S
C2026 H2011 0.959 . S
C2026 H2012 0.961 . S
C2026 C2025 1.502 . S
C2027 H2013 0.960 . S
C2027 H2014 0.961 . S
C2027 H2015 0.959 . S
C2027 C2025 1.561 . S
C2028 C2025 1.526 . S
C2028 C2029 1.396 . S
C2028 C2033 1.390 . S
C2029 C2023 1.465 . S
C2029 C2028 1.396 . S
C2029 C2030 1.399 . S
C2030 H2016 0.929 . S
C2030 C2029 1.399 . S
C2030 C2031 1.385 . S
C2031 H2017 0.931 . S
C2031 C2030 1.385 . S
C2031 C2032 1.389 . S
C2032 C2031 1.389 . S
C2032 C2033 1.387 . S
C2033 H2018 0.930 . S
C2033 C2028 1.390 . S
C2033 C2032 1.387 . S
H2034 C2046 0.930 . S
H2035 C2048 0.930 . S
H2036 C2049 0.930 . S
H2037 C2053 0.959 . S
H2038 C2053 0.959 . S
H2039 C2053 0.961 . S
H2040 C2054 0.960 . S
H2041 C2054 0.961 . S
H2042 C2054 0.959 . S
H2043 C2057 0.929 . S
H2044 C2058 0.931 . S
H2045 C2060 0.930 . S
C2046 H2034 0.930 . S
C2046 C2047 1.399 . S
C2046 C2051 1.399 . S
C2047 C2046 1.399 . S
C2047 C2048 1.376 . S
C2048 H2035 0.930 . S
C2048 C2047 1.376 . S
C2048 C2049 1.388 . S
C2049 H2036 0.930 . S
C2049 C2048 1.388 . S
C2049 C2050 1.390 . S
C2050 C2049 1.390 . S
C2050 C2051 1.394 . S
C2050 C2056 1.465 . S
C2051 C2046 1.399 . S
C2051 C2050 1.394 . S
C2051 C2052 1.516 . S
C2052 C2051 1.516 . S
C2052 C2053 1.502 . S
C2052 C2054 1.561 . S
C2052 C2055 1.526 . S
C2053 H2037 0.959 . S
C2053 H2038 0.959 . S
C2053 H2039 0.961 . S
C2053 C2052 1.502 . S
C2054 H2040 0.960 . S
C2054 H2041 0.961 . S
C2054 H2042 0.959 . S
C2054 C2052 1.561 . S
C2055 C2052 1.526 . S
C2055 C2056 1.396 . S
C2055 C2060 1.390 . S
C2056 C2050 1.465 . S
C2056 C2055 1.396 . S
C2056 C2057 1.399 . S
C2057 H2043 0.929 . S
C2057 C2056 1.399 . S
C2057 C2058 1.385 . S
C2058 H2044 0.931 . S
C2058 C2057 1.385 . S
C2058 C2059 1.389 . S
C2059 C2058 1.389 . S
C2059 C2060 1.387 . S
C2060 H2045 0.930 . S
C2060 C2055 1.390 . S
C2060 C2059 1.387 . S
H2061 C2073 0.930 . S
H2062 C2075 0.930 . S
H2063 C2076 0.930 . S
H2064 C2080 0.959 . S
H2065 C2080 0.959 . S
H2066 C2080 0.961 . S
H2067 C2081 0.960 . S
H2068 C2081 0.961 . S
H2069 C2081 0.959 . S
H2070 C2084 0.929 . S
H2071 C2085 0.931 . S
H2072 C2087 0.930 . S
C2073 H2061 0.930 . S
C2073 C2074 1.399 . S
C2073 C2078 1.399 1_565 S
C2074 C2073 1.399 . S
C2074 C2075 1.376 . S
C2075 H2062 0.930 . S
C2075 C2074 1.376 . S
C2075 C2076 1.388 1_565 S
C2076 H2063 0.930 . S
C2076 C2075 1.388 1_545 S
C2076 C2077 1.390 . S
C2077 C2076 1.390 . S
C2077 C2078 1.394 . S
C2077 C2083 1.465 . S
C2078 C2073 1.399 1_545 S
C2078 C2077 1.394 . S
C2078 C2079 1.516 . S
C2079 C2078 1.516 . S
C2079 C2080 1.502 . S
C2079 C2081 1.561 . S
C2079 C2082 1.526 . S
C2080 H2064 0.959 . S
C2080 H2065 0.959 . S
C2080 H2066 0.961 . S
C2080 C2079 1.502 . S
C2081 H2067 0.960 . S
C2081 H2068 0.961 . S
C2081 H2069 0.959 . S
C2081 C2079 1.561 . S
C2082 C2079 1.526 . S
C2082 C2083 1.396 . S
C2082 C2087 1.390 . S
C2083 C2077 1.465 . S
C2083 C2082 1.396 . S
C2083 C2084 1.399 . S
C2084 H2070 0.929 . S
C2084 C2083 1.399 . S
C2084 C2085 1.385 . S
C2085 H2071 0.931 . S
C2085 C2084 1.385 . S
C2085 C2086 1.389 . S
C2086 C2085 1.389 . S
C2086 C2087 1.387 . S
C2087 H2072 0.930 . S
C2087 C2082 1.390 . S
C2087 C2086 1.387 . S
H2088 C2100 0.930 . S
H2089 C2102 0.930 . S
H2090 C2103 0.930 . S
H2091 C2107 0.959 . S
H2092 C2107 0.959 . S
H2093 C2107 0.961 . S
H2094 C2108 0.960 . S
H2095 C2108 0.961 . S
H2096 C2108 0.959 . S
H2097 C2111 0.929 . S
H2098 C2112 0.931 . S
H2099 C2114 0.930 . S
C2100 H2088 0.930 . S
C2100 C2101 1.399 1_655 S
C2100 C2105 1.399 . S
C2101 C2100 1.399 1_455 S
C2101 C2102 1.376 . S
C2102 H2089 0.930 . S
C2102 C2101 1.376 . S
C2102 C2103 1.388 . S
C2103 H2090 0.930 . S
C2103 C2102 1.388 . S
C2103 C2104 1.390 1_455 S
C2104 C2103 1.390 1_655 S
C2104 C2105 1.394 . S
C2104 C2110 1.465 . S
C2105 C2100 1.399 . S
C2105 C2104 1.394 . S
C2105 C2106 1.516 . S
C2106 C2105 1.516 . S
C2106 C2107 1.502 . S
C2106 C2108 1.561 . S
C2106 C2109 1.526 . S
C2107 H2091 0.959 . S
C2107 H2092 0.959 . S
C2107 H2093 0.961 . S
C2107 C2106 1.502 . S
C2108 H2094 0.960 . S
C2108 H2095 0.961 . S
C2108 H2096 0.959 . S
C2108 C2106 1.561 . S
C2109 C2106 1.526 . S
C2109 C2110 1.396 . S
C2109 C2114 1.390 . S
C2110 C2104 1.465 . S
C2110 C2109 1.396 . S
C2110 C2111 1.399 . S
C2111 H2097 0.929 . S
C2111 C2110 1.399 . S
C2111 C2112 1.385 . S
C2112 H2098 0.931 . S
C2112 C2111 1.385 . S
C2112 C2113 1.389 . S
C2113 C2112 1.389 . S
C2113 C2114 1.387 . S
C2114 H2099 0.930 . S
C2114 C2109 1.390 . S
C2114 C2113 1.387 . S
H2115 C2127 0.930 . S
H2116 C2129 0.930 . S
H2117 C2130 0.930 . S
H2118 C2134 0.959 . S
H2119 C2134 0.959 . S
H2120 C2134 0.961 . S
H2121 C2135 0.960 . S
H2122 C2135 0.961 . S
H2123 C2135 0.959 . S
H2124 C2138 0.929 . S
H2125 C2139 0.931 . S
H2126 C2141 0.930 . S
C2127 H2115 0.930 . S
C2127 C2128 1.399 . S
C2127 C2132 1.399 . S
C2128 C2127 1.399 . S
C2128 C2129 1.376 . S
C2129 H2116 0.930 . S
C2129 C2128 1.376 . S
C2129 C2130 1.388 . S
C2130 H2117 0.930 . S
C2130 C2129 1.388 . S
C2130 C2131 1.390 . S
C2131 C2130 1.390 . S
C2131 C2132 1.394 . S
C2131 C2137 1.465 . S
C2132 C2127 1.399 . S
C2132 C2131 1.394 . S
C2132 C2133 1.516 . S
C2133 C2132 1.516 . S
C2133 C2134 1.502 . S
C2133 C2135 1.561 . S
C2133 C2136 1.526 . S
C2134 H2118 0.959 . S
C2134 H2119 0.959 . S
C2134 H2120 0.961 . S
C2134 C2133 1.502 . S
C2135 H2121 0.960 . S
C2135 H2122 0.961 . S
C2135 H2123 0.959 . S
C2135 C2133 1.561 . S
C2136 C2133 1.526 . S
C2136 C2137 1.396 . S
C2136 C2141 1.390 . S
C2137 C2131 1.465 . S
C2137 C2136 1.396 . S
C2137 C2138 1.399 . S
C2138 H2124 0.929 . S
C2138 C2137 1.399 . S
C2138 C2139 1.385 . S
C2139 H2125 0.931 . S
C2139 C2138 1.385 . S
C2139 C2140 1.389 . S
C2140 C2139 1.389 . S
C2140 C2141 1.387 . S
C2141 H2126 0.930 . S
C2141 C2136 1.390 . S
C2141 C2140 1.387 . S
H2142 C2154 0.930 . S
H2143 C2156 0.930 . S
H2144 C2157 0.930 . S
H2145 C2161 0.959 . S
H2146 C2161 0.959 . S
H2147 C2161 0.961 . S
H2148 C2162 0.960 . S
H2149 C2162 0.961 . S
H2150 C2162 0.959 . S
H2151 C2165 0.929 . S
H2152 C2166 0.931 . S
H2153 C2168 0.930 . S
C2154 H2142 0.930 . S
C2154 C2155 1.399 . S
C2154 C2159 1.399 1_455 S
C2155 C2154 1.399 . S
C2155 C2156 1.376 . S
C2156 H2143 0.930 . S
C2156 C2155 1.376 . S
C2156 C2157 1.388 1_455 S
C2157 H2144 0.930 . S
C2157 C2156 1.388 1_655 S
C2157 C2158 1.390 . S
C2158 C2157 1.390 . S
C2158 C2159 1.394 . S
C2158 C2164 1.465 . S
C2159 C2154 1.399 1_655 S
C2159 C2158 1.394 . S
C2159 C2160 1.516 . S
C2160 C2159 1.516 . S
C2160 C2161 1.502 . S
C2160 C2162 1.561 . S
C2160 C2163 1.526 . S
C2161 H2145 0.959 . S
C2161 H2146 0.959 . S
C2161 H2147 0.961 . S
C2161 C2160 1.502 . S
C2162 H2148 0.960 . S
C2162 H2149 0.961 . S
C2162 H2150 0.959 . S
C2162 C2160 1.561 . S
C2163 C2160 1.526 . S
C2163 C2164 1.396 . S
C2163 C2168 1.390 . S
C2164 C2158 1.465 . S
C2164 C2163 1.396 . S
C2164 C2165 1.399 . S
C2165 H2151 0.929 . S
C2165 C2164 1.399 . S
C2165 C2166 1.385 . S
C2166 H2152 0.931 . S
C2166 C2165 1.385 . S
C2166 C2167 1.389 . S
C2167 C2166 1.389 . S
C2167 C2168 1.387 . S
C2168 H2153 0.930 . S
C2168 C2163 1.390 . S
C2168 C2167 1.387 . S
H2169 C2181 0.930 . S
H2170 C2183 0.930 . S
H2171 C2184 0.930 . S
H2172 C2188 0.959 . S
H2173 C2188 0.959 . S
H2174 C2188 0.961 . S
H2175 C2189 0.960 . S
H2176 C2189 0.961 . S
H2177 C2189 0.959 . S
H2178 C2192 0.929 . S
H2179 C2193 0.931 . S
H2180 C2195 0.930 . S
C2181 H2169 0.930 . S
C2181 C2182 1.399 . S
C2181 C2186 1.399 . S
C2182 C2181 1.399 . S
C2182 C2183 1.376 . S
C2183 H2170 0.930 . S
C2183 C2182 1.376 . S
C2183 C2184 1.388 . S
C2184 H2171 0.930 . S
C2184 C2183 1.388 . S
C2184 C2185 1.390 . S
C2185 C2184 1.390 . S
C2185 C2186 1.394 . S
C2185 C2191 1.465 . S
C2186 C2181 1.399 . S
C2186 C2185 1.394 . S
C2186 C2187 1.516 . S
C2187 C2186 1.516 . S
C2187 C2188 1.502 . S
C2187 C2189 1.561 . S
C2187 C2190 1.526 . S
C2188 H2172 0.959 . S
C2188 H2173 0.959 . S
C2188 H2174 0.961 . S
C2188 C2187 1.502 . S
C2189 H2175 0.960 . S
C2189 H2176 0.961 . S
C2189 H2177 0.959 . S
C2189 C2187 1.561 . S
C2190 C2187 1.526 . S
C2190 C2191 1.396 . S
C2190 C2195 1.390 . S
C2191 C2185 1.465 . S
C2191 C2190 1.396 . S
C2191 C2192 1.399 . S
C2192 H2178 0.929 . S
C2192 C2191 1.399 . S
C2192 C2193 1.385 . S
C2193 H2179 0.931 . S
C2193 C2192 1.385 . S
C2193 C2194 1.389 . S
C2194 C2193 1.389 . S
C2194 C2195 1.387 . S
C2195 H2180 0.930 . S
C2195 C2190 1.390 . S
C2195 C2194 1.387 . S
H2196 C2208 0.930 . S
H2197 C2210 0.930 . S
H2198 C2211 0.930 . S
H2199 C2215 0.959 . S
H2200 C2215 0.959 . S
H2201 C2215 0.961 . S
H2202 C2216 0.960 . S
H2203 C2216 0.961 . S
H2204 C2216 0.959 . S
H2205 C2219 0.929 . S
H2206 C2220 0.931 . S
H2207 C2222 0.930 . S
C2208 H2196 0.930 . S
C2208 C2209 1.399 . S
C2208 C2213 1.399 1_565 S
C2209 C2208 1.399 . S
C2209 C2210 1.376 . S
C2210 H2197 0.930 . S
C2210 C2209 1.376 . S
C2210 C2211 1.388 1_565 S
C2211 H2198 0.930 . S
C2211 C2210 1.388 1_545 S
C2211 C2212 1.390 . S
C2212 C2211 1.390 . S
C2212 C2213 1.394 . S
C2212 C2218 1.465 . S
C2213 C2208 1.399 1_545 S
C2213 C2212 1.394 . S
C2213 C2214 1.516 . S
C2214 C2213 1.516 . S
C2214 C2215 1.502 . S
C2214 C2216 1.561 . S
C2214 C2217 1.526 . S
C2215 H2199 0.959 . S
C2215 H2200 0.959 . S
C2215 H2201 0.961 . S
C2215 C2214 1.502 . S
C2216 H2202 0.960 . S
C2216 H2203 0.961 . S
C2216 H2204 0.959 . S
C2216 C2214 1.561 . S
C2217 C2214 1.526 . S
C2217 C2218 1.396 . S
C2217 C2222 1.390 . S
C2218 C2212 1.465 . S
C2218 C2217 1.396 . S
C2218 C2219 1.399 . S
C2219 H2205 0.929 . S
C2219 C2218 1.399 . S
C2219 C2220 1.385 . S
C2220 H2206 0.931 . S
C2220 C2219 1.385 . S
C2220 C2221 1.389 . S
C2221 C2220 1.389 . S
C2221 C2222 1.387 . S
C2222 H2207 0.930 . S
C2222 C2217 1.390 . S
C2222 C2221 1.387 . S
H2223 C2235 0.930 . S
H2224 C2237 0.930 . S
H2225 C2238 0.930 . S
H2226 C2242 0.959 . S
H2227 C2242 0.959 . S
H2228 C2242 0.961 . S
H2229 C2243 0.960 . S
H2230 C2243 0.961 . S
H2231 C2243 0.959 . S
H2232 C2246 0.929 . S
H2233 C2247 0.931 . S
H2234 C2249 0.930 . S
C2235 H2223 0.930 . S
C2235 C2236 1.399 . S
C2235 C2240 1.399 . S
C2236 C2235 1.399 . S
C2236 C2237 1.376 . S
C2237 H2224 0.930 . S
C2237 C2236 1.376 . S
C2237 C2238 1.388 . S
C2238 H2225 0.930 . S
C2238 C2237 1.388 . S
C2238 C2239 1.390 . S
C2239 C2238 1.390 . S
C2239 C2240 1.394 . S
C2239 C2245 1.465 . S
C2240 C2235 1.399 . S
C2240 C2239 1.394 . S
C2240 C2241 1.516 . S
C2241 C2240 1.516 . S
C2241 C2242 1.502 . S
C2241 C2243 1.561 . S
C2241 C2244 1.526 . S
C2242 H2226 0.959 . S
C2242 H2227 0.959 . S
C2242 H2228 0.961 . S
C2242 C2241 1.502 . S
C2243 H2229 0.960 . S
C2243 H2230 0.961 . S
C2243 H2231 0.959 . S
C2243 C2241 1.561 . S
C2244 C2241 1.526 . S
C2244 C2245 1.396 . S
C2244 C2249 1.390 . S
C2245 C2239 1.465 . S
C2245 C2244 1.396 . S
C2245 C2246 1.399 . S
C2246 H2232 0.929 . S
C2246 C2245 1.399 . S
C2246 C2247 1.385 . S
C2247 H2233 0.931 . S
C2247 C2246 1.385 . S
C2247 C2248 1.389 . S
C2248 C2247 1.389 . S
C2248 C2249 1.387 . S
C2249 H2234 0.930 . S
C2249 C2244 1.390 . S
C2249 C2248 1.387 . S
H2250 C2262 0.930 . S
H2251 C2264 0.930 . S
H2252 C2265 0.930 . S
H2253 C2269 0.959 . S
H2254 C2269 0.959 . S
H2255 C2269 0.961 . S
H2256 C2270 0.960 . S
H2257 C2270 0.961 . S
H2258 C2270 0.959 . S
H2259 C2273 0.929 . S
H2260 C2274 0.931 . S
H2261 C2276 0.930 . S
C2262 H2250 0.930 . S
C2262 C2263 1.399 . S
C2262 C2267 1.399 . S
C2263 C2262 1.399 . S
C2263 C2264 1.376 . S
C2264 H2251 0.930 . S
C2264 C2263 1.376 . S
C2264 C2265 1.388 . S
C2265 H2252 0.930 . S
C2265 C2264 1.388 . S
C2265 C2266 1.390 . S
C2266 C2265 1.390 . S
C2266 C2267 1.394 . S
C2266 C2272 1.465 . S
C2267 C2262 1.399 . S
C2267 C2266 1.394 . S
C2267 C2268 1.516 . S
C2268 C2267 1.516 . S
C2268 C2269 1.502 . S
C2268 C2270 1.561 . S
C2268 C2271 1.526 . S
C2269 H2253 0.959 . S
C2269 H2254 0.959 . S
C2269 H2255 0.961 . S
C2269 C2268 1.502 . S
C2270 H2256 0.960 . S
C2270 H2257 0.961 . S
C2270 H2258 0.959 . S
C2270 C2268 1.561 . S
C2271 C2268 1.526 . S
C2271 C2272 1.396 . S
C2271 C2276 1.390 . S
C2272 C2266 1.465 . S
C2272 C2271 1.396 . S
C2272 C2273 1.399 . S
C2273 H2259 0.929 . S
C2273 C2272 1.399 . S
C2273 C2274 1.385 . S
C2274 H2260 0.931 . S
C2274 C2273 1.385 . S
C2274 C2275 1.389 . S
C2275 C2274 1.389 . S
C2275 C2276 1.387 . S
C2276 H2261 0.930 . S
C2276 C2271 1.390 . S
C2276 C2275 1.387 . S
H2277 C2289 0.930 . S
H2278 C2291 0.930 . S
H2279 C2292 0.930 . S
H2280 C2296 0.959 . S
H2281 C2296 0.959 . S
H2282 C2296 0.961 . S
H2283 C2297 0.960 . S
H2284 C2297 0.961 . S
H2285 C2297 0.959 . S
H2286 C2300 0.929 . S
H2287 C2301 0.931 . S
H2288 C2303 0.930 . S
C2289 H2277 0.930 . S
C2289 C2290 1.399 . S
C2289 C2294 1.399 . S
C2290 C2289 1.399 . S
C2290 C2291 1.376 . S
C2291 H2278 0.930 . S
C2291 C2290 1.376 . S
C2291 C2292 1.388 . S
C2292 H2279 0.930 . S
C2292 C2291 1.388 . S
C2292 C2293 1.390 . S
C2293 C2292 1.390 . S
C2293 C2294 1.394 . S
C2293 C2299 1.465 . S
C2294 C2289 1.399 . S
C2294 C2293 1.394 . S
C2294 C2295 1.516 . S
C2295 C2294 1.516 . S
C2295 C2296 1.502 . S
C2295 C2297 1.561 . S
C2295 C2298 1.526 . S
C2296 H2280 0.959 . S
C2296 H2281 0.959 . S
C2296 H2282 0.961 . S
C2296 C2295 1.502 . S
C2297 H2283 0.960 . S
C2297 H2284 0.961 . S
C2297 H2285 0.959 . S
C2297 C2295 1.561 . S
C2298 C2295 1.526 . S
C2298 C2299 1.396 . S
C2298 C2303 1.390 . S
C2299 C2293 1.465 . S
C2299 C2298 1.396 . S
C2299 C2300 1.399 . S
C2300 H2286 0.929 . S
C2300 C2299 1.399 . S
C2300 C2301 1.385 . S
C2301 H2287 0.931 . S
C2301 C2300 1.385 . S
C2301 C2302 1.389 . S
C2302 C2301 1.389 . S
C2302 C2303 1.387 . S
C2303 H2288 0.930 . S
C2303 C2298 1.390 . S
C2303 C2302 1.387 . S
H2304 C2316 0.930 . S
H2305 C2318 0.930 . S
H2306 C2319 0.930 . S
H2307 C2323 0.959 . S
H2308 C2323 0.959 . S
H2309 C2323 0.961 . S
H2310 C2324 0.960 . S
H2311 C2324 0.961 . S
H2312 C2324 0.959 . S
H2313 C2327 0.929 1_545 S
H2314 C2328 0.931 1_545 S
H2315 C2330 0.930 . S
C2316 H2304 0.930 . S
C2316 C2317 1.399 . S
C2316 C2321 1.399 . S
C2317 C2316 1.399 . S
C2317 C2318 1.376 . S
C2318 H2305 0.930 . S
C2318 C2317 1.376 . S
C2318 C2319 1.388 . S
C2319 H2306 0.930 . S
C2319 C2318 1.388 . S
C2319 C2320 1.390 . S
C2320 C2319 1.390 . S
C2320 C2321 1.394 . S
C2320 C2326 1.465 . S
C2321 C2316 1.399 . S
C2321 C2320 1.394 . S
C2321 C2322 1.516 . S
C2322 C2321 1.516 . S
C2322 C2323 1.502 . S
C2322 C2324 1.561 . S
C2322 C2325 1.526 . S
C2323 H2307 0.959 . S
C2323 H2308 0.959 . S
C2323 H2309 0.961 . S
C2323 C2322 1.502 . S
C2324 H2310 0.960 . S
C2324 H2311 0.961 . S
C2324 H2312 0.959 . S
C2324 C2322 1.561 . S
C2325 C2322 1.526 . S
C2325 C2326 1.396 . S
C2325 C2330 1.390 . S
C2326 C2320 1.465 . S
C2326 C2325 1.396 . S
C2326 C2327 1.399 . S
C2327 H2313 0.929 1_565 S
C2327 C2326 1.399 . S
C2327 C2328 1.385 . S
C2328 H2314 0.931 1_565 S
C2328 C2327 1.385 . S
C2328 C2329 1.389 . S
C2329 C2328 1.389 . S
C2329 C2330 1.387 . S
C2330 H2315 0.930 . S
C2330 C2325 1.390 . S
C2330 C2329 1.387 . S
H2331 C2343 0.930 . S
H2332 C2345 0.930 . S
H2333 C2346 0.930 . S
H2334 C2350 0.959 . S
H2335 C2350 0.959 . S
H2336 C2350 0.961 . S
H2337 C2351 0.960 . S
H2338 C2351 0.961 . S
H2339 C2351 0.959 . S
H2340 C2354 0.929 . S
H2341 C2355 0.931 . S
H2342 C2357 0.930 . S
C2343 H2331 0.930 . S
C2343 C2344 1.399 . S
C2343 C2348 1.399 . S
C2344 C2343 1.399 . S
C2344 C2345 1.376 . S
C2345 H2332 0.930 . S
C2345 C2344 1.376 . S
C2345 C2346 1.388 . S
C2346 H2333 0.930 . S
C2346 C2345 1.388 . S
C2346 C2347 1.390 . S
C2347 C2346 1.390 . S
C2347 C2348 1.394 . S
C2347 C2353 1.465 . S
C2348 C2343 1.399 . S
C2348 C2347 1.394 . S
C2348 C2349 1.516 . S
C2349 C2348 1.516 . S
C2349 C2350 1.502 . S
C2349 C2351 1.561 . S
C2349 C2352 1.526 . S
C2350 H2334 0.959 . S
C2350 H2335 0.959 . S
C2350 H2336 0.961 . S
C2350 C2349 1.502 . S
C2351 H2337 0.960 . S
C2351 H2338 0.961 . S
C2351 H2339 0.959 . S
C2351 C2349 1.561 . S
C2352 C2349 1.526 . S
C2352 C2353 1.396 . S
C2352 C2357 1.390 . S
C2353 C2347 1.465 . S
C2353 C2352 1.396 . S
C2353 C2354 1.399 . S
C2354 H2340 0.929 . S
C2354 C2353 1.399 . S
C2354 C2355 1.385 . S
C2355 H2341 0.931 . S
C2355 C2354 1.385 . S
C2355 C2356 1.389 . S
C2356 C2355 1.389 . S
C2356 C2357 1.387 . S
C2357 H2342 0.930 . S
C2357 C2352 1.390 . S
C2357 C2356 1.387 . S
H2358 C2370 0.930 . S
H2359 C2372 0.930 . S
H2360 C2373 0.930 . S
H2361 C2377 0.959 . S
H2362 C2377 0.959 . S
H2363 C2377 0.961 . S
H2364 C2378 0.960 . S
H2365 C2378 0.961 . S
H2366 C2378 0.959 . S
H2367 C2381 0.929 . S
H2368 C2382 0.931 . S
H2369 C2384 0.930 . S
C2370 H2358 0.930 . S
C2370 C2371 1.399 . S
C2370 C2375 1.399 . S
C2371 C2370 1.399 . S
C2371 C2372 1.376 . S
C2372 H2359 0.930 . S
C2372 C2371 1.376 . S
C2372 C2373 1.388 . S
C2373 H2360 0.930 . S
C2373 C2372 1.388 . S
C2373 C2374 1.390 . S
C2374 C2373 1.390 . S
C2374 C2375 1.394 . S
C2374 C2380 1.465 . S
C2375 C2370 1.399 . S
C2375 C2374 1.394 . S
C2375 C2376 1.516 . S
C2376 C2375 1.516 . S
C2376 C2377 1.502 . S
C2376 C2378 1.561 . S
C2376 C2379 1.526 . S
C2377 H2361 0.959 . S
C2377 H2362 0.959 . S
C2377 H2363 0.961 . S
C2377 C2376 1.502 . S
C2378 H2364 0.960 . S
C2378 H2365 0.961 . S
C2378 H2366 0.959 . S
C2378 C2376 1.561 . S
C2379 C2376 1.526 . S
C2379 C2380 1.396 . S
C2379 C2384 1.390 . S
C2380 C2374 1.465 . S
C2380 C2379 1.396 . S
C2380 C2381 1.399 . S
C2381 H2367 0.929 . S
C2381 C2380 1.399 . S
C2381 C2382 1.385 . S
C2382 H2368 0.931 . S
C2382 C2381 1.385 . S
C2382 C2383 1.389 . S
C2383 C2382 1.389 . S
C2383 C2384 1.387 . S
C2384 H2369 0.930 . S
C2384 C2379 1.390 . S
C2384 C2383 1.387 . S
H2385 C2397 0.930 . S
H2386 C2399 0.930 . S
H2387 C2400 0.930 . S
H2388 C2404 0.959 . S
H2389 C2404 0.959 . S
H2390 C2404 0.961 . S
H2391 C2405 0.960 . S
H2392 C2405 0.961 . S
H2393 C2405 0.959 . S
H2394 C2408 0.929 . S
H2395 C2409 0.931 . S
H2396 C2411 0.930 . S
C2397 H2385 0.930 . S
C2397 C2398 1.399 . S
C2397 C2402 1.399 . S
C2398 C2397 1.399 . S
C2398 C2399 1.376 . S
C2399 H2386 0.930 . S
C2399 C2398 1.376 . S
C2399 C2400 1.388 . S
C2400 H2387 0.930 . S
C2400 C2399 1.388 . S
C2400 C2401 1.390 . S
C2401 C2400 1.390 . S
C2401 C2402 1.394 . S
C2401 C2407 1.465 . S
C2402 C2397 1.399 . S
C2402 C2401 1.394 . S
C2402 C2403 1.516 . S
C2403 C2402 1.516 . S
C2403 C2404 1.502 . S
C2403 C2405 1.561 . S
C2403 C2406 1.526 . S
C2404 H2388 0.959 . S
C2404 H2389 0.959 . S
C2404 H2390 0.961 . S
C2404 C2403 1.502 . S
C2405 H2391 0.960 . S
C2405 H2392 0.961 . S
C2405 H2393 0.959 . S
C2405 C2403 1.561 . S
C2406 C2403 1.526 . S
C2406 C2407 1.396 . S
C2406 C2411 1.390 . S
C2407 C2401 1.465 . S
C2407 C2406 1.396 . S
C2407 C2408 1.399 . S
C2408 H2394 0.929 . S
C2408 C2407 1.399 . S
C2408 C2409 1.385 . S
C2409 H2395 0.931 . S
C2409 C2408 1.385 . S
C2409 C2410 1.389 . S
C2410 C2409 1.389 . S
C2410 C2411 1.387 . S
C2411 H2396 0.930 . S
C2411 C2406 1.390 . S
C2411 C2410 1.387 . S
H2412 C2424 0.930 . S
H2413 C2426 0.930 . S
H2414 C2427 0.930 . S
H2415 C2431 0.959 . S
H2416 C2431 0.959 . S
H2417 C2431 0.961 . S
H2418 C2432 0.960 . S
H2419 C2432 0.961 . S
H2420 C2432 0.959 . S
H2421 C2435 0.929 . S
H2422 C2436 0.931 . S
H2423 C2438 0.930 . S
C2424 H2412 0.930 . S
C2424 C2425 1.399 . S
C2424 C2429 1.399 . S
C2425 C2424 1.399 . S
C2425 C2426 1.376 . S
C2426 H2413 0.930 . S
C2426 C2425 1.376 . S
C2426 C2427 1.388 . S
C2427 H2414 0.930 . S
C2427 C2426 1.388 . S
C2427 C2428 1.390 . S
C2428 C2427 1.390 . S
C2428 C2429 1.394 . S
C2428 C2434 1.465 . S
C2429 C2424 1.399 . S
C2429 C2428 1.394 . S
C2429 C2430 1.516 . S
C2430 C2429 1.516 . S
C2430 C2431 1.502 . S
C2430 C2432 1.561 . S
C2430 C2433 1.526 . S
C2431 H2415 0.959 . S
C2431 H2416 0.959 . S
C2431 H2417 0.961 . S
C2431 C2430 1.502 . S
C2432 H2418 0.960 . S
C2432 H2419 0.961 . S
C2432 H2420 0.959 . S
C2432 C2430 1.561 . S
C2433 C2430 1.526 . S
C2433 C2434 1.396 . S
C2433 C2438 1.390 . S
C2434 C2428 1.465 . S
C2434 C2433 1.396 . S
C2434 C2435 1.399 . S
C2435 H2421 0.929 . S
C2435 C2434 1.399 . S
C2435 C2436 1.385 . S
C2436 H2422 0.931 . S
C2436 C2435 1.385 . S
C2436 C2437 1.389 . S
C2437 C2436 1.389 . S
C2437 C2438 1.387 . S
C2438 H2423 0.930 . S
C2438 C2433 1.390 . S
C2438 C2437 1.387 . S
H2439 C2451 0.930 . S
H2440 C2453 0.930 . S
H2441 C2454 0.930 . S
H2442 C2458 0.959 . S
H2443 C2458 0.959 1_565 S
H2444 C2458 0.961 . S
H2445 C2459 0.960 1_565 S
H2446 C2459 0.961 1_565 S
H2447 C2459 0.959 . S
H2448 C2462 0.929 . S
H2449 C2463 0.931 . S
H2450 C2465 0.930 . S
C2451 H2439 0.930 . S
C2451 C2452 1.399 . S
C2451 C2456 1.399 . S
C2452 C2451 1.399 . S
C2452 C2453 1.376 . S
C2453 H2440 0.930 . S
C2453 C2452 1.376 . S
C2453 C2454 1.388 . S
C2454 H2441 0.930 . S
C2454 C2453 1.388 . S
C2454 C2455 1.390 . S
C2455 C2454 1.390 . S
C2455 C2456 1.394 . S
C2455 C2461 1.465 . S
C2456 C2451 1.399 . S
C2456 C2455 1.394 . S
C2456 C2457 1.516 . S
C2457 C2456 1.516 . S
C2457 C2458 1.502 . S
C2457 C2459 1.561 . S
C2457 C2460 1.526 . S
C2458 H2442 0.959 . S
C2458 H2443 0.959 1_545 S
C2458 H2444 0.961 . S
C2458 C2457 1.502 . S
C2459 H2445 0.960 1_545 S
C2459 H2446 0.961 1_545 S
C2459 H2447 0.959 . S
C2459 C2457 1.561 . S
C2460 C2457 1.526 . S
C2460 C2461 1.396 . S
C2460 C2465 1.390 . S
C2461 C2455 1.465 . S
C2461 C2460 1.396 . S
C2461 C2462 1.399 . S
C2462 H2448 0.929 . S
C2462 C2461 1.399 . S
C2462 C2463 1.385 . S
C2463 H2449 0.931 . S
C2463 C2462 1.385 . S
C2463 C2464 1.389 . S
C2464 C2463 1.389 . S
C2464 C2465 1.387 . S
C2465 H2450 0.930 . S
C2465 C2460 1.390 . S
C2465 C2464 1.387 . S
H2466 C2478 0.930 . S
H2467 C2480 0.930 . S
H2468 C2481 0.930 . S
H2469 C2485 0.959 . S
H2470 C2485 0.959 . S
H2471 C2485 0.961 . S
H2472 C2486 0.960 . S
H2473 C2486 0.961 . S
H2474 C2486 0.959 . S
H2475 C2489 0.929 . S
H2476 C2490 0.931 . S
H2477 C2492 0.930 . S
C2478 H2466 0.930 . S
C2478 C2479 1.399 . S
C2478 C2483 1.399 . S
C2479 C2478 1.399 . S
C2479 C2480 1.376 . S
C2480 H2467 0.930 . S
C2480 C2479 1.376 . S
C2480 C2481 1.388 . S
C2481 H2468 0.930 . S
C2481 C2480 1.388 . S
C2481 C2482 1.390 . S
C2482 C2481 1.390 . S
C2482 C2483 1.394 . S
C2482 C2488 1.465 . S
C2483 C2478 1.399 . S
C2483 C2482 1.394 . S
C2483 C2484 1.516 . S
C2484 C2483 1.516 . S
C2484 C2485 1.502 . S
C2484 C2486 1.561 . S
C2484 C2487 1.526 . S
C2485 H2469 0.959 . S
C2485 H2470 0.959 . S
C2485 H2471 0.961 . S
C2485 C2484 1.502 . S
C2486 H2472 0.960 . S
C2486 H2473 0.961 . S
C2486 H2474 0.959 . S
C2486 C2484 1.561 . S
C2487 C2484 1.526 . S
C2487 C2488 1.396 . S
C2487 C2492 1.390 . S
C2488 C2482 1.465 . S
C2488 C2487 1.396 . S
C2488 C2489 1.399 . S
C2489 H2475 0.929 . S
C2489 C2488 1.399 . S
C2489 C2490 1.385 . S
C2490 H2476 0.931 . S
C2490 C2489 1.385 . S
C2490 C2491 1.389 . S
C2491 C2490 1.389 . S
C2491 C2492 1.387 . S
C2492 H2477 0.930 . S
C2492 C2487 1.390 . S
C2492 C2491 1.387 . S
H2493 C2505 0.930 . S
H2494 C2507 0.930 . S
H2495 C2508 0.930 . S
H2496 C2512 0.959 . S
H2497 C2512 0.959 . S
H2498 C2512 0.961 . S
H2499 C2513 0.960 . S
H2500 C2513 0.961 . S
H2501 C2513 0.959 . S
H2502 C2516 0.929 . S
H2503 C2517 0.931 . S
H2504 C2519 0.930 . S
C2505 H2493 0.930 . S
C2505 C2506 1.399 . S
C2505 C2510 1.399 . S
C2506 C2505 1.399 . S
C2506 C2507 1.376 . S
C2507 H2494 0.930 . S
C2507 C2506 1.376 . S
C2507 C2508 1.388 . S
C2508 H2495 0.930 . S
C2508 C2507 1.388 . S
C2508 C2509 1.390 . S
C2509 C2508 1.390 . S
C2509 C2510 1.394 . S
C2509 C2515 1.465 . S
C2510 C2505 1.399 . S
C2510 C2509 1.394 . S
C2510 C2511 1.516 . S
C2511 C2510 1.516 . S
C2511 C2512 1.502 . S
C2511 C2513 1.561 . S
C2511 C2514 1.526 . S
C2512 H2496 0.959 . S
C2512 H2497 0.959 . S
C2512 H2498 0.961 . S
C2512 C2511 1.502 . S
C2513 H2499 0.960 . S
C2513 H2500 0.961 . S
C2513 H2501 0.959 . S
C2513 C2511 1.561 . S
C2514 C2511 1.526 . S
C2514 C2515 1.396 . S
C2514 C2519 1.390 . S
C2515 C2509 1.465 . S
C2515 C2514 1.396 . S
C2515 C2516 1.399 . S
C2516 H2502 0.929 . S
C2516 C2515 1.399 . S
C2516 C2517 1.385 . S
C2517 H2503 0.931 . S
C2517 C2516 1.385 . S
C2517 C2518 1.389 . S
C2518 C2517 1.389 . S
C2518 C2519 1.387 . S
C2519 H2504 0.930 . S
C2519 C2514 1.390 . S
C2519 C2518 1.387 . S
H2520 C2532 0.930 . S
H2521 C2534 0.930 . S
H2522 C2535 0.930 . S
H2523 C2539 0.959 . S
H2524 C2539 0.959 . S
H2525 C2539 0.961 . S
H2526 C2540 0.960 . S
H2527 C2540 0.961 . S
H2528 C2540 0.959 . S
H2529 C2543 0.929 . S
H2530 C2544 0.931 . S
H2531 C2546 0.930 . S
C2532 H2520 0.930 . S
C2532 C2533 1.399 . S
C2532 C2537 1.399 . S
C2533 C2532 1.399 . S
C2533 C2534 1.376 . S
C2534 H2521 0.930 . S
C2534 C2533 1.376 . S
C2534 C2535 1.388 . S
C2535 H2522 0.930 . S
C2535 C2534 1.388 . S
C2535 C2536 1.390 . S
C2536 C2535 1.390 . S
C2536 C2537 1.394 . S
C2536 C2542 1.465 . S
C2537 C2532 1.399 . S
C2537 C2536 1.394 . S
C2537 C2538 1.516 . S
C2538 C2537 1.516 . S
C2538 C2539 1.502 . S
C2538 C2540 1.561 . S
C2538 C2541 1.526 . S
C2539 H2523 0.959 . S
C2539 H2524 0.959 . S
C2539 H2525 0.961 . S
C2539 C2538 1.502 . S
C2540 H2526 0.960 . S
C2540 H2527 0.961 . S
C2540 H2528 0.959 . S
C2540 C2538 1.561 . S
C2541 C2538 1.526 . S
C2541 C2542 1.396 . S
C2541 C2546 1.390 . S
C2542 C2536 1.465 . S
C2542 C2541 1.396 . S
C2542 C2543 1.399 . S
C2543 H2529 0.929 . S
C2543 C2542 1.399 . S
C2543 C2544 1.385 . S
C2544 H2530 0.931 . S
C2544 C2543 1.385 . S
C2544 C2545 1.389 . S
C2545 C2544 1.389 . S
C2545 C2546 1.387 . S
C2546 H2531 0.930 . S
C2546 C2541 1.390 . S
C2546 C2545 1.387 . S
H2547 C2559 0.930 . S
H2548 C2561 0.930 . S
H2549 C2562 0.930 . S
H2550 C2566 0.959 . S
H2551 C2566 0.959 . S
H2552 C2566 0.961 . S
H2553 C2567 0.960 . S
H2554 C2567 0.961 . S
H2555 C2567 0.959 . S
H2556 C2570 0.929 . S
H2557 C2571 0.931 . S
H2558 C2573 0.930 . S
C2559 H2547 0.930 . S
C2559 C2560 1.399 . S
C2559 C2564 1.399 . S
C2560 C2559 1.399 . S
C2560 C2561 1.376 . S
C2561 H2548 0.930 . S
C2561 C2560 1.376 . S
C2561 C2562 1.388 . S
C2562 H2549 0.930 . S
C2562 C2561 1.388 . S
C2562 C2563 1.390 . S
C2563 C2562 1.390 . S
C2563 C2564 1.394 . S
C2563 C2569 1.465 . S
C2564 C2559 1.399 . S
C2564 C2563 1.394 . S
C2564 C2565 1.516 . S
C2565 C2564 1.516 . S
C2565 C2566 1.502 . S
C2565 C2567 1.561 . S
C2565 C2568 1.526 . S
C2566 H2550 0.959 . S
C2566 H2551 0.959 . S
C2566 H2552 0.961 . S
C2566 C2565 1.502 . S
C2567 H2553 0.960 . S
C2567 H2554 0.961 . S
C2567 H2555 0.959 . S
C2567 C2565 1.561 . S
C2568 C2565 1.526 . S
C2568 C2569 1.396 . S
C2568 C2573 1.390 . S
C2569 C2563 1.465 . S
C2569 C2568 1.396 . S
C2569 C2570 1.399 . S
C2570 H2556 0.929 . S
C2570 C2569 1.399 . S
C2570 C2571 1.385 . S
C2571 H2557 0.931 . S
C2571 C2570 1.385 . S
C2571 C2572 1.389 . S
C2572 C2571 1.389 . S
C2572 C2573 1.387 . S
C2573 H2558 0.930 . S
C2573 C2568 1.390 . S
C2573 C2572 1.387 . S
H2574 C2586 0.930 . S
H2575 C2588 0.930 . S
H2576 C2589 0.930 . S
H2577 C2593 0.959 . S
H2578 C2593 0.959 . S
H2579 C2593 0.961 . S
H2580 C2594 0.960 . S
H2581 C2594 0.961 . S
H2582 C2594 0.959 . S
H2583 C2597 0.929 . S
H2584 C2598 0.931 . S
H2585 C2600 0.930 . S
C2586 H2574 0.930 . S
C2586 C2587 1.399 . S
C2586 C2591 1.399 . S
C2587 C2586 1.399 . S
C2587 C2588 1.376 . S
C2588 H2575 0.930 . S
C2588 C2587 1.376 . S
C2588 C2589 1.388 . S
C2589 H2576 0.930 . S
C2589 C2588 1.388 . S
C2589 C2590 1.390 . S
C2590 C2589 1.390 . S
C2590 C2591 1.394 . S
C2590 C2596 1.465 . S
C2591 C2586 1.399 . S
C2591 C2590 1.394 . S
C2591 C2592 1.516 . S
C2592 C2591 1.516 . S
C2592 C2593 1.502 . S
C2592 C2594 1.561 . S
C2592 C2595 1.526 . S
C2593 H2577 0.959 . S
C2593 H2578 0.959 . S
C2593 H2579 0.961 . S
C2593 C2592 1.502 . S
C2594 H2580 0.960 . S
C2594 H2581 0.961 . S
C2594 H2582 0.959 . S
C2594 C2592 1.561 . S
C2595 C2592 1.526 . S
C2595 C2596 1.396 . S
C2595 C2600 1.390 . S
C2596 C2590 1.465 . S
C2596 C2595 1.396 . S
C2596 C2597 1.399 . S
C2597 H2583 0.929 . S
C2597 C2596 1.399 . S
C2597 C2598 1.385 . S
C2598 H2584 0.931 . S
C2598 C2597 1.385 . S
C2598 C2599 1.389 . S
C2599 C2598 1.389 . S
C2599 C2600 1.387 . S
C2600 H2585 0.930 . S
C2600 C2595 1.390 . S
C2600 C2599 1.387 . S
H2601 C2613 0.930 . S
H2602 C2615 0.930 . S
H2603 C2616 0.930 . S
H2604 C2620 0.959 . S
H2605 C2620 0.959 . S
H2606 C2620 0.961 . S
H2607 C2621 0.960 . S
H2608 C2621 0.961 . S
H2609 C2621 0.959 . S
H2610 C2624 0.929 . S
H2611 C2625 0.931 . S
H2612 C2627 0.930 . S
C2613 H2601 0.930 . S
C2613 C2614 1.399 . S
C2613 C2618 1.399 . S
C2614 C2613 1.399 . S
C2614 C2615 1.376 . S
C2615 H2602 0.930 . S
C2615 C2614 1.376 . S
C2615 C2616 1.388 . S
C2616 H2603 0.930 . S
C2616 C2615 1.388 . S
C2616 C2617 1.390 . S
C2617 C2616 1.390 . S
C2617 C2618 1.394 . S
C2617 C2623 1.465 . S
C2618 C2613 1.399 . S
C2618 C2617 1.394 . S
C2618 C2619 1.516 . S
C2619 C2618 1.516 . S
C2619 C2620 1.502 . S
C2619 C2621 1.561 . S
C2619 C2622 1.526 . S
C2620 H2604 0.959 . S
C2620 H2605 0.959 . S
C2620 H2606 0.961 . S
C2620 C2619 1.502 . S
C2621 H2607 0.960 . S
C2621 H2608 0.961 . S
C2621 H2609 0.959 . S
C2621 C2619 1.561 . S
C2622 C2619 1.526 . S
C2622 C2623 1.396 . S
C2622 C2627 1.390 . S
C2623 C2617 1.465 . S
C2623 C2622 1.396 . S
C2623 C2624 1.399 . S
C2624 H2610 0.929 . S
C2624 C2623 1.399 . S
C2624 C2625 1.385 . S
C2625 H2611 0.931 . S
C2625 C2624 1.385 . S
C2625 C2626 1.389 . S
C2626 C2625 1.389 . S
C2626 C2627 1.387 . S
C2627 H2612 0.930 . S
C2627 C2622 1.390 . S
C2627 C2626 1.387 . S
H2628 C2640 0.930 . S
H2629 C2642 0.930 . S
H2630 C2643 0.930 . S
H2631 C2647 0.959 . S
H2632 C2647 0.959 . S
H2633 C2647 0.961 . S
H2634 C2648 0.960 . S
H2635 C2648 0.961 . S
H2636 C2648 0.959 . S
H2637 C2651 0.929 . S
H2638 C2652 0.931 . S
H2639 C2654 0.930 . S
C2640 H2628 0.930 . S
C2640 C2641 1.399 . S
C2640 C2645 1.399 . S
C2641 C2640 1.399 . S
C2641 C2642 1.376 . S
C2642 H2629 0.930 . S
C2642 C2641 1.376 . S
C2642 C2643 1.388 . S
C2643 H2630 0.930 . S
C2643 C2642 1.388 . S
C2643 C2644 1.390 . S
C2644 C2643 1.390 . S
C2644 C2645 1.394 . S
C2644 C2650 1.465 . S
C2645 C2640 1.399 . S
C2645 C2644 1.394 . S
C2645 C2646 1.516 . S
C2646 C2645 1.516 . S
C2646 C2647 1.502 . S
C2646 C2648 1.561 . S
C2646 C2649 1.526 . S
C2647 H2631 0.959 . S
C2647 H2632 0.959 . S
C2647 H2633 0.961 . S
C2647 C2646 1.502 . S
C2648 H2634 0.960 . S
C2648 H2635 0.961 . S
C2648 H2636 0.959 . S
C2648 C2646 1.561 . S
C2649 C2646 1.526 . S
C2649 C2650 1.396 . S
C2649 C2654 1.390 . S
C2650 C2644 1.465 . S
C2650 C2649 1.396 . S
C2650 C2651 1.399 . S
C2651 H2637 0.929 . S
C2651 C2650 1.399 . S
C2651 C2652 1.385 . S
C2652 H2638 0.931 . S
C2652 C2651 1.385 . S
C2652 C2653 1.389 . S
C2653 C2652 1.389 . S
C2653 C2654 1.387 . S
C2654 H2639 0.930 . S
C2654 C2649 1.390 . S
C2654 C2653 1.387 . S
H2655 C2667 0.930 . S
H2656 C2669 0.930 . S
H2657 C2670 0.930 . S
H2658 C2674 0.959 . S
H2659 C2674 0.959 . S
H2660 C2674 0.961 . S
H2661 C2675 0.960 . S
H2662 C2675 0.961 . S
H2663 C2675 0.959 . S
H2664 C2678 0.929 . S
H2665 C2679 0.931 . S
H2666 C2681 0.930 . S
C2667 H2655 0.930 . S
C2667 C2668 1.399 . S
C2667 C2672 1.399 . S
C2668 C2667 1.399 . S
C2668 C2669 1.376 . S
C2669 H2656 0.930 . S
C2669 C2668 1.376 . S
C2669 C2670 1.388 . S
C2670 H2657 0.930 . S
C2670 C2669 1.388 . S
C2670 C2671 1.390 . S
C2671 C2670 1.390 . S
C2671 C2672 1.394 . S
C2671 C2677 1.465 . S
C2672 C2667 1.399 . S
C2672 C2671 1.394 . S
C2672 C2673 1.516 . S
C2673 C2672 1.516 . S
C2673 C2674 1.502 . S
C2673 C2675 1.561 . S
C2673 C2676 1.526 . S
C2674 H2658 0.959 . S
C2674 H2659 0.959 . S
C2674 H2660 0.961 . S
C2674 C2673 1.502 . S
C2675 H2661 0.960 . S
C2675 H2662 0.961 . S
C2675 H2663 0.959 . S
C2675 C2673 1.561 . S
C2676 C2673 1.526 . S
C2676 C2677 1.396 . S
C2676 C2681 1.390 . S
C2677 C2671 1.465 . S
C2677 C2676 1.396 . S
C2677 C2678 1.399 . S
C2678 H2664 0.929 . S
C2678 C2677 1.399 . S
C2678 C2679 1.385 . S
C2679 H2665 0.931 . S
C2679 C2678 1.385 . S
C2679 C2680 1.389 . S
C2680 C2679 1.389 . S
C2680 C2681 1.387 . S
C2681 H2666 0.930 . S
C2681 C2676 1.390 . S
C2681 C2680 1.387 . S
H2682 C2694 0.930 . S
H2683 C2696 0.930 . S
H2684 C2697 0.930 . S
H2685 C2701 0.959 . S
H2686 C2701 0.959 . S
H2687 C2701 0.961 . S
H2688 C2702 0.960 . S
H2689 C2702 0.961 . S
H2690 C2702 0.959 . S
H2691 C2705 0.929 . S
H2692 C2706 0.931 . S
H2693 C2708 0.930 . S
C2694 H2682 0.930 . S
C2694 C2695 1.399 . S
C2694 C2699 1.399 . S
C2695 C2694 1.399 . S
C2695 C2696 1.376 . S
C2696 H2683 0.930 . S
C2696 C2695 1.376 . S
C2696 C2697 1.388 . S
C2697 H2684 0.930 . S
C2697 C2696 1.388 . S
C2697 C2698 1.390 . S
C2698 C2697 1.390 . S
C2698 C2699 1.394 . S
C2698 C2704 1.465 . S
C2699 C2694 1.399 . S
C2699 C2698 1.394 . S
C2699 C2700 1.516 . S
C2700 C2699 1.516 . S
C2700 C2701 1.502 . S
C2700 C2702 1.561 . S
C2700 C2703 1.526 . S
C2701 H2685 0.959 . S
C2701 H2686 0.959 . S
C2701 H2687 0.961 . S
C2701 C2700 1.502 . S
C2702 H2688 0.960 . S
C2702 H2689 0.961 . S
C2702 H2690 0.959 . S
C2702 C2700 1.561 . S
C2703 C2700 1.526 . S
C2703 C2704 1.396 . S
C2703 C2708 1.390 . S
C2704 C2698 1.465 . S
C2704 C2703 1.396 . S
C2704 C2705 1.399 . S
C2705 H2691 0.929 . S
C2705 C2704 1.399 . S
C2705 C2706 1.385 . S
C2706 H2692 0.931 . S
C2706 C2705 1.385 . S
C2706 C2707 1.389 . S
C2707 C2706 1.389 . S
C2707 C2708 1.387 . S
C2708 H2693 0.930 . S
C2708 C2703 1.390 . S
C2708 C2707 1.387 . S
H2709 C2721 0.930 . S
H2710 C2723 0.930 . S
H2711 C2724 0.930 . S
H2712 C2728 0.959 . S
H2713 C2728 0.959 . S
H2714 C2728 0.961 . S
H2715 C2729 0.960 . S
H2716 C2729 0.961 . S
H2717 C2729 0.959 . S
H2718 C2732 0.929 . S
H2719 C2733 0.931 . S
H2720 C2735 0.930 . S
C2721 H2709 0.930 . S
C2721 C2722 1.399 . S
C2721 C2726 1.399 . S
C2722 C2721 1.399 . S
C2722 C2723 1.376 . S
C2723 H2710 0.930 . S
C2723 C2722 1.376 . S
C2723 C2724 1.388 . S
C2724 H2711 0.930 . S
C2724 C2723 1.388 . S
C2724 C2725 1.390 . S
C2725 C2724 1.390 . S
C2725 C2726 1.394 . S
C2725 C2731 1.465 . S
C2726 C2721 1.399 . S
C2726 C2725 1.394 . S
C2726 C2727 1.516 . S
C2727 C2726 1.516 . S
C2727 C2728 1.502 . S
C2727 C2729 1.561 . S
C2727 C2730 1.526 . S
C2728 H2712 0.959 . S
C2728 H2713 0.959 . S
C2728 H2714 0.961 . S
C2728 C2727 1.502 . S
C2729 H2715 0.960 . S
C2729 H2716 0.961 . S
C2729 H2717 0.959 . S
C2729 C2727 1.561 . S
C2730 C2727 1.526 . S
C2730 C2731 1.396 . S
C2730 C2735 1.390 . S
C2731 C2725 1.465 . S
C2731 C2730 1.396 . S
C2731 C2732 1.399 . S
C2732 H2718 0.929 . S
C2732 C2731 1.399 . S
C2732 C2733 1.385 . S
C2733 H2719 0.931 . S
C2733 C2732 1.385 . S
C2733 C2734 1.389 . S
C2734 C2733 1.389 . S
C2734 C2735 1.387 . S
C2735 H2720 0.930 . S
C2735 C2730 1.390 . S
C2735 C2734 1.387 . S
H2736 C2748 0.930 . S
H2737 C2750 0.930 . S
H2738 C2751 0.930 . S
H2739 C2755 0.959 . S
H2740 C2755 0.959 . S
H2741 C2755 0.961 . S
H2742 C2756 0.960 . S
H2743 C2756 0.961 . S
H2744 C2756 0.959 . S
H2745 C2759 0.929 . S
H2746 C2760 0.931 . S
H2747 C2762 0.930 . S
C2748 H2736 0.930 . S
C2748 C2749 1.399 . S
C2748 C2753 1.399 . S
C2749 C2748 1.399 . S
C2749 C2750 1.376 . S
C2750 H2737 0.930 . S
C2750 C2749 1.376 . S
C2750 C2751 1.388 . S
C2751 H2738 0.930 . S
C2751 C2750 1.388 . S
C2751 C2752 1.390 . S
C2752 C2751 1.390 . S
C2752 C2753 1.394 . S
C2752 C2758 1.465 . S
C2753 C2748 1.399 . S
C2753 C2752 1.394 . S
C2753 C2754 1.516 . S
C2754 C2753 1.516 . S
C2754 C2755 1.502 . S
C2754 C2756 1.561 . S
C2754 C2757 1.526 . S
C2755 H2739 0.959 . S
C2755 H2740 0.959 . S
C2755 H2741 0.961 . S
C2755 C2754 1.502 . S
C2756 H2742 0.960 . S
C2756 H2743 0.961 . S
C2756 H2744 0.959 . S
C2756 C2754 1.561 . S
C2757 C2754 1.526 . S
C2757 C2758 1.396 . S
C2757 C2762 1.390 . S
C2758 C2752 1.465 . S
C2758 C2757 1.396 . S
C2758 C2759 1.399 . S
C2759 H2745 0.929 . S
C2759 C2758 1.399 . S
C2759 C2760 1.385 . S
C2760 H2746 0.931 . S
C2760 C2759 1.385 . S
C2760 C2761 1.389 . S
C2761 C2760 1.389 . S
C2761 C2762 1.387 . S
C2762 H2747 0.930 . S
C2762 C2757 1.390 . S
C2762 C2761 1.387 . S
H2763 C2775 0.930 . S
H2764 C2777 0.930 . S
H2765 C2778 0.930 . S
H2766 C2782 0.959 . S
H2767 C2782 0.959 . S
H2768 C2782 0.961 . S
H2769 C2783 0.960 . S
H2770 C2783 0.961 . S
H2771 C2783 0.959 . S
H2772 C2786 0.929 . S
H2773 C2787 0.931 . S
H2774 C2789 0.930 . S
C2775 H2763 0.930 . S
C2775 C2776 1.399 . S
C2775 C2780 1.399 . S
C2776 C2775 1.399 . S
C2776 C2777 1.376 . S
C2777 H2764 0.930 . S
C2777 C2776 1.376 . S
C2777 C2778 1.388 . S
C2778 H2765 0.930 . S
C2778 C2777 1.388 . S
C2778 C2779 1.390 . S
C2779 C2778 1.390 . S
C2779 C2780 1.394 . S
C2779 C2785 1.465 . S
C2780 C2775 1.399 . S
C2780 C2779 1.394 . S
C2780 C2781 1.516 . S
C2781 C2780 1.516 . S
C2781 C2782 1.502 . S
C2781 C2783 1.561 . S
C2781 C2784 1.526 . S
C2782 H2766 0.959 . S
C2782 H2767 0.959 . S
C2782 H2768 0.961 . S
C2782 C2781 1.502 . S
C2783 H2769 0.960 . S
C2783 H2770 0.961 . S
C2783 H2771 0.959 . S
C2783 C2781 1.561 . S
C2784 C2781 1.526 . S
C2784 C2785 1.396 . S
C2784 C2789 1.390 . S
C2785 C2779 1.465 . S
C2785 C2784 1.396 . S
C2785 C2786 1.399 . S
C2786 H2772 0.929 . S
C2786 C2785 1.399 . S
C2786 C2787 1.385 . S
C2787 H2773 0.931 . S
C2787 C2786 1.385 . S
C2787 C2788 1.389 . S
C2788 C2787 1.389 . S
C2788 C2789 1.387 . S
C2789 H2774 0.930 . S
C2789 C2784 1.390 . S
C2789 C2788 1.387 . S
C1345 C439 1.311 . S
C1357 C643 1.351 . S
C1372 C465 1.512 . S
C1384 C727 1.478 . S
C1399 C401 1.454 . S
C1411 C807 1.386 . S
C1426 C369 1.425 . S
C1438 C723 1.391 . S
C1465 C811 1.415 . S
C1453 C305 1.437 . S
C1480 C343 1.276 . S
C1492 C639 1.359 . S
C1519 C632 1.360 . S
C1507 C375 1.446 . S
C1546 C716 1.449 . S
C1534 C311 1.473 . S
C1561 C337 1.378 . S
C1573 C818 1.451 . S
C1588 C433 1.418 . S
C1600 C734 1.358 . S
C1615 C471 1.429 . S
C1627 C800 1.323 . S
C1654 C650 1.356 . S
C1642 C407 1.407 . S
C1681 C895 1.296 . S
C1669 C55 1.339 . S
C1696 C81 1.486 . S
C1708 C979 1.404 . S
C1723 C17 1.466 . S
C1735 C1059 1.420 . S
C1750 C561 1.420 . S
C1762 C975 1.380 . S
C1777 C497 1.428 . S
C1789 C1063 1.387 . S
C1804 C535 1.357 . S
C1816 C891 1.301 . S
C1831 C567 1.416 . S
C1843 C884 1.388 . S
C1858 C503 1.485 . S
C1870 C968 1.424 . S
C1897 C1070 1.396 . S
C1885 C529 1.449 . S
C1912 C49 1.347 . S
C1924 C986 1.420 . S
C1951 C1052 1.347 . S
C1939 C87 1.429 . S
C1966 C23 1.393 . S
C1978 C902 1.338 . S
C2005 C1147 1.367 . S
C1993 C247 1.351 . S
C2020 C273 1.491 . S
C2032 C1231 1.462 . S
C2059 C1311 1.445 . S
C2047 C209 1.471 . S
C2086 C1227 1.397 . S
C2074 C177 1.428 . S
C2113 C1315 1.403 . S
C2101 C113 1.432 . S
C2128 C151 1.318 . S
C2140 C1143 1.341 . S
C2155 C183 1.434 . S
C2167 C1136 1.310 . S
C2182 C119 1.486 . S
C2194 C1220 1.421 . S
C2221 C1322 1.392 . S
C2209 C145 1.441 . S
C2236 C241 1.346 . S
C2248 C1238 1.420 . S
C2263 C279 1.420 . S
C2275 C1304 1.296 . S
C2290 C215 1.415 . S
C2302 C1154 1.380 . S
C2317 C509 1.422 . S
C2329 C646 1.296 . S
C2356 C730 1.310 . S
C2344 C541 1.427 . S
C2371 C573 1.479 . S
C2383 C802 1.400 . S
C2398 C221 1.461 . S
C2410 C718 1.303 . S
C2425 C253 1.432 . S
C2437 C814 1.260 . S
C2464 C634 1.394 . S
C2452 C285 1.457 . S
C2479 C125 1.434 . S
C2491 C898 1.391 . S
C2506 C157 1.420 . S
C2518 C982 1.321 . S
C2533 C189 1.421 . S
C2545 C1054 1.281 . S
C2560 C413 1.510 . S
C2572 C970 1.420 . S
C2599 C1066 1.300 . S
C2587 C445 1.402 . S
C2614 C477 1.459 . S
C2626 C886 1.397 . S
C2641 C317 1.420 . S
C2653 C1150 1.296 . S
C2668 C349 1.425 . S
C2680 C1234 1.312 . S
C2707 C1306 1.280 . S
C2695 C381 1.421 . S
C2722 C29 1.461 . S
C2734 C1222 1.296 . S
C2749 C61 1.404 . S
C2761 C1318 1.294 . S
C2776 C93 1.458 . S
C2788 C1138 1.396 . S
