# Generated by pormake.
# Topology ptr, (4,4)-cn, num edge types: 1
# Building blocks:
#     Node 0, Type 0, BuildingBlock: CEKHIL_clean_sbu_0, # of connection points: 4
#     Node 1, Type 0, BuildingBlock: CEKHIL_clean_sbu_0, # of connection points: 4
#     Node 2, Type 0, BuildingBlock: CEKHIL_clean_sbu_0, # of connection points: 4
#     Node 3, Type 0, BuildingBlock: CEKHIL_clean_sbu_0, # of connection points: 4
#     Node 4, Type 0, BuildingBlock: CEKHIL_clean_sbu_0, # of connection points: 4
#     Node 5, Type 0, BuildingBlock: CEKHIL_clean_sbu_0, # of connection points: 4
#     Node 6, Type 0, BuildingBlock: CEKHIL_clean_sbu_0, # of connection points: 4
#     Node 7, Type 0, BuildingBlock: CEKHIL_clean_sbu_0, # of connection points: 4
#     Node 8, Type 0, BuildingBlock: CEKHIL_clean_sbu_0, # of connection points: 4
#     Node 9, Type 0, BuildingBlock: CEKHIL_clean_sbu_0, # of connection points: 4
#     Node 10, Type 0, BuildingBlock: CEKHIL_clean_sbu_0, # of connection points: 4
#     Node 11, Type 0, BuildingBlock: CEKHIL_clean_sbu_0, # of connection points: 4
#     Node 12, Type 0, BuildingBlock: CEKHIL_clean_sbu_0, # of connection points: 4
#     Node 13, Type 0, BuildingBlock: CEKHIL_clean_sbu_0, # of connection points: 4
#     Node 14, Type 0, BuildingBlock: CEKHIL_clean_sbu_0, # of connection points: 4
#     Node 15, Type 0, BuildingBlock: CEKHIL_clean_sbu_0, # of connection points: 4
#     Node 16, Type 0, BuildingBlock: CEKHIL_clean_sbu_0, # of connection points: 4
#     Node 17, Type 0, BuildingBlock: CEKHIL_clean_sbu_0, # of connection points: 4
#     Node 18, Type 1, BuildingBlock: NAWXER_clean_linker_0, # of connection points: 4
#     Node 19, Type 1, BuildingBlock: NAWXER_clean_linker_0, # of connection points: 4
#     Node 20, Type 1, BuildingBlock: NAWXER_clean_linker_0, # of connection points: 4
#     Node 21, Type 1, BuildingBlock: NAWXER_clean_linker_0, # of connection points: 4
#     Node 22, Type 1, BuildingBlock: NAWXER_clean_linker_0, # of connection points: 4
#     Node 23, Type 1, BuildingBlock: NAWXER_clean_linker_0, # of connection points: 4
#     Node 24, Type 1, BuildingBlock: NAWXER_clean_linker_0, # of connection points: 4
#     Node 25, Type 1, BuildingBlock: NAWXER_clean_linker_0, # of connection points: 4
#     Node 26, Type 1, BuildingBlock: NAWXER_clean_linker_0, # of connection points: 4
#     Node 27, Type 1, BuildingBlock: NAWXER_clean_linker_0, # of connection points: 4
#     Node 28, Type 1, BuildingBlock: NAWXER_clean_linker_0, # of connection points: 4
#     Node 29, Type 1, BuildingBlock: NAWXER_clean_linker_0, # of connection points: 4
#     Node 30, Type 1, BuildingBlock: NAWXER_clean_linker_0, # of connection points: 4
#     Node 31, Type 1, BuildingBlock: NAWXER_clean_linker_0, # of connection points: 4
#     Node 32, Type 1, BuildingBlock: NAWXER_clean_linker_0, # of connection points: 4
#     Node 33, Type 1, BuildingBlock: NAWXER_clean_linker_0, # of connection points: 4
#     Node 34, Type 1, BuildingBlock: NAWXER_clean_linker_0, # of connection points: 4
#     Node 35, Type 1, BuildingBlock: NAWXER_clean_linker_0, # of connection points: 4
#     Edge 36, Type (0, 1), BuildingBlock: EZIPEK_clean_linker_0, # of connection points: 2
#     Edge 37, Type (0, 1), BuildingBlock: EZIPEK_clean_linker_0, # of connection points: 2
#     Edge 38, Type (0, 1), BuildingBlock: EZIPEK_clean_linker_0, # of connection points: 2
#     Edge 39, Type (0, 1), BuildingBlock: EZIPEK_clean_linker_0, # of connection points: 2
#     Edge 40, Type (0, 1), BuildingBlock: EZIPEK_clean_linker_0, # of connection points: 2
#     Edge 41, Type (0, 1), BuildingBlock: EZIPEK_clean_linker_0, # of connection points: 2
#     Edge 42, Type (0, 1), BuildingBlock: EZIPEK_clean_linker_0, # of connection points: 2
#     Edge 43, Type (0, 1), BuildingBlock: EZIPEK_clean_linker_0, # of connection points: 2
#     Edge 44, Type (0, 1), BuildingBlock: EZIPEK_clean_linker_0, # of connection points: 2
#     Edge 45, Type (0, 1), BuildingBlock: EZIPEK_clean_linker_0, # of connection points: 2
#     Edge 46, Type (0, 1), BuildingBlock: EZIPEK_clean_linker_0, # of connection points: 2
#     Edge 47, Type (0, 1), BuildingBlock: EZIPEK_clean_linker_0, # of connection points: 2
#     Edge 48, Type (0, 1), BuildingBlock: EZIPEK_clean_linker_0, # of connection points: 2
#     Edge 49, Type (0, 1), BuildingBlock: EZIPEK_clean_linker_0, # of connection points: 2
#     Edge 50, Type (0, 1), BuildingBlock: EZIPEK_clean_linker_0, # of connection points: 2
#     Edge 51, Type (0, 1), BuildingBlock: EZIPEK_clean_linker_0, # of connection points: 2
#     Edge 52, Type (0, 1), BuildingBlock: EZIPEK_clean_linker_0, # of connection points: 2
#     Edge 53, Type (0, 1), BuildingBlock: EZIPEK_clean_linker_0, # of connection points: 2
#     Edge 54, Type (0, 1), BuildingBlock: EZIPEK_clean_linker_0, # of connection points: 2
#     Edge 55, Type (0, 1), BuildingBlock: EZIPEK_clean_linker_0, # of connection points: 2
#     Edge 56, Type (0, 1), BuildingBlock: EZIPEK_clean_linker_0, # of connection points: 2
#     Edge 57, Type (0, 1), BuildingBlock: EZIPEK_clean_linker_0, # of connection points: 2
#     Edge 58, Type (0, 1), BuildingBlock: EZIPEK_clean_linker_0, # of connection points: 2
#     Edge 59, Type (0, 1), BuildingBlock: EZIPEK_clean_linker_0, # of connection points: 2
#     Edge 60, Type (0, 1), BuildingBlock: EZIPEK_clean_linker_0, # of connection points: 2
#     Edge 61, Type (0, 1), BuildingBlock: EZIPEK_clean_linker_0, # of connection points: 2
#     Edge 62, Type (0, 1), BuildingBlock: EZIPEK_clean_linker_0, # of connection points: 2
#     Edge 63, Type (0, 1), BuildingBlock: EZIPEK_clean_linker_0, # of connection points: 2
#     Edge 64, Type (0, 1), BuildingBlock: EZIPEK_clean_linker_0, # of connection points: 2
#     Edge 65, Type (0, 1), BuildingBlock: EZIPEK_clean_linker_0, # of connection points: 2
#     Edge 66, Type (0, 1), BuildingBlock: EZIPEK_clean_linker_0, # of connection points: 2
#     Edge 67, Type (0, 1), BuildingBlock: EZIPEK_clean_linker_0, # of connection points: 2
#     Edge 68, Type (0, 1), BuildingBlock: EZIPEK_clean_linker_0, # of connection points: 2
#     Edge 69, Type (0, 1), BuildingBlock: EZIPEK_clean_linker_0, # of connection points: 2
#     Edge 70, Type (0, 1), BuildingBlock: EZIPEK_clean_linker_0, # of connection points: 2
#     Edge 71, Type (0, 1), BuildingBlock: EZIPEK_clean_linker_0, # of connection points: 2
#     Edge 72, Type (0, 1), BuildingBlock: EZIPEK_clean_linker_0, # of connection points: 2
#     Edge 73, Type (0, 1), BuildingBlock: EZIPEK_clean_linker_0, # of connection points: 2
#     Edge 74, Type (0, 1), BuildingBlock: EZIPEK_clean_linker_0, # of connection points: 2
#     Edge 75, Type (0, 1), BuildingBlock: EZIPEK_clean_linker_0, # of connection points: 2
#     Edge 76, Type (0, 1), BuildingBlock: EZIPEK_clean_linker_0, # of connection points: 2
#     Edge 77, Type (0, 1), BuildingBlock: EZIPEK_clean_linker_0, # of connection points: 2
#     Edge 78, Type (0, 1), BuildingBlock: EZIPEK_clean_linker_0, # of connection points: 2
#     Edge 79, Type (0, 1), BuildingBlock: EZIPEK_clean_linker_0, # of connection points: 2
#     Edge 80, Type (0, 1), BuildingBlock: EZIPEK_clean_linker_0, # of connection points: 2
#     Edge 81, Type (0, 1), BuildingBlock: EZIPEK_clean_linker_0, # of connection points: 2
#     Edge 82, Type (0, 1), BuildingBlock: EZIPEK_clean_linker_0, # of connection points: 2
#     Edge 83, Type (0, 1), BuildingBlock: EZIPEK_clean_linker_0, # of connection points: 2
#     Edge 84, Type (0, 1), BuildingBlock: EZIPEK_clean_linker_0, # of connection points: 2
#     Edge 85, Type (0, 1), BuildingBlock: EZIPEK_clean_linker_0, # of connection points: 2
#     Edge 86, Type (0, 1), BuildingBlock: EZIPEK_clean_linker_0, # of connection points: 2
#     Edge 87, Type (0, 1), BuildingBlock: EZIPEK_clean_linker_0, # of connection points: 2
#     Edge 88, Type (0, 1), BuildingBlock: EZIPEK_clean_linker_0, # of connection points: 2
#     Edge 89, Type (0, 1), BuildingBlock: EZIPEK_clean_linker_0, # of connection points: 2
#     Edge 90, Type (0, 1), BuildingBlock: EZIPEK_clean_linker_0, # of connection points: 2
#     Edge 91, Type (0, 1), BuildingBlock: EZIPEK_clean_linker_0, # of connection points: 2
#     Edge 92, Type (0, 1), BuildingBlock: EZIPEK_clean_linker_0, # of connection points: 2
#     Edge 93, Type (0, 1), BuildingBlock: EZIPEK_clean_linker_0, # of connection points: 2
#     Edge 94, Type (0, 1), BuildingBlock: EZIPEK_clean_linker_0, # of connection points: 2
#     Edge 95, Type (0, 1), BuildingBlock: EZIPEK_clean_linker_0, # of connection points: 2
#     Edge 96, Type (0, 1), BuildingBlock: EZIPEK_clean_linker_0, # of connection points: 2
#     Edge 97, Type (0, 1), BuildingBlock: EZIPEK_clean_linker_0, # of connection points: 2
#     Edge 98, Type (0, 1), BuildingBlock: EZIPEK_clean_linker_0, # of connection points: 2
#     Edge 99, Type (0, 1), BuildingBlock: EZIPEK_clean_linker_0, # of connection points: 2
#     Edge 100, Type (0, 1), BuildingBlock: EZIPEK_clean_linker_0, # of connection points: 2
#     Edge 101, Type (0, 1), BuildingBlock: EZIPEK_clean_linker_0, # of connection points: 2
#     Edge 102, Type (0, 1), BuildingBlock: EZIPEK_clean_linker_0, # of connection points: 2
#     Edge 103, Type (0, 1), BuildingBlock: EZIPEK_clean_linker_0, # of connection points: 2
#     Edge 104, Type (0, 1), BuildingBlock: EZIPEK_clean_linker_0, # of connection points: 2
#     Edge 105, Type (0, 1), BuildingBlock: EZIPEK_clean_linker_0, # of connection points: 2
#     Edge 106, Type (0, 1), BuildingBlock: EZIPEK_clean_linker_0, # of connection points: 2
#     Edge 107, Type (0, 1), BuildingBlock: EZIPEK_clean_linker_0, # of connection points: 2
# Relax obj value: 0.032
# Max RMSD: 0.132
# Mean RMSD: 0.053
data_MOF--net-ptr--node1-CEKHIL_clean_sbu_0--node2-NAWXER_clean_linker_0--edge1-EZIPEK_clean_linker_0
_symmetry_space_group_name_H-M    P1
_symmetry_Int_Tables_number       1
_symmetry_cell_setting            triclinic
loop_
_symmetry_equiv_pos_as_xyz
'x, y, z'
_cell_length_a     68.048798
_cell_length_b     67.231978
_cell_length_c     50.13194
_cell_angle_alpha  91.274805
_cell_angle_beta   89.302505
_cell_angle_gamma 121.08186
loop_
_atom_site_label
_atom_site_type_symbol
_atom_site_fract_x
_atom_site_fract_y
_atom_site_fract_z
_atom_type_partial_charge
Co0 Co 0.00895 0.34348 0.00581 0.0
O1 O 0.01611 0.32702 0.03107 0.0
O2 O 0.04145 0.36081 0.0137 0.0
C3 C 0.98696 0.31237 0.97939 0.0
O4 O 0.00808 0.36575 0.97915 0.0
Co5 Co 0.95959 0.33214 0.99616 0.0
O6 O 0.97271 0.34809 0.96204 0.0
C7 C 0.9857 0.36181 0.04257 0.0
C8 C 0.03723 0.34404 0.02966 0.0
C9 C 0.99356 0.36456 0.96196 0.0
O10 O 0.0028 0.35959 0.03608 0.0
O11 O 0.96685 0.35209 0.02941 0.0
O12 O 0.00913 0.32382 0.97668 0.0
O13 O 0.97891 0.31898 0.99887 0.0
Co14 Co 0.65927 0.66274 0.00855 0.0
O15 O 0.68339 0.68126 0.9836 0.0
O16 O 0.67818 0.64939 0.00269 0.0
C17 C 0.66348 0.69302 0.03406 0.0
O18 O 0.63758 0.63958 0.03595 0.0
Co19 Co 0.61599 0.6654 0.01278 0.0
O20 O 0.60577 0.64159 0.04066 0.0
C21 C 0.62046 0.64021 0.96746 0.0
C22 C 0.68986 0.66633 0.98639 0.0
C23 C 0.6181 0.63329 0.0469 0.0
O24 O 0.63898 0.64324 0.97787 0.0
O25 O 0.60938 0.64927 0.97721 0.0
O26 O 0.67628 0.68419 0.03764 0.0
O27 O 0.64949 0.68443 0.01394 0.0
Co28 Co 0.34086 0.99976 0.0104 0.0
O29 O 0.32483 0.00619 0.98358 0.0
O30 O 0.35645 0.03285 0.00436 0.0
C31 C 0.30905 0.97495 0.03436 0.0
O32 O 0.36183 0.00047 0.03964 0.0
Co33 Co 0.33326 0.95102 0.01577 0.0
O34 O 0.35697 0.96501 0.04419 0.0
C35 C 0.36131 0.97929 0.97177 0.0
C36 C 0.34052 0.0279 0.98691 0.0
C37 C 0.36661 0.9864 0.05069 0.0
O38 O 0.36046 0.99658 0.98189 0.0
O39 O 0.34975 0.95874 0.98083 0.0
O40 O 0.31913 0.99731 0.03776 0.0
O41 O 0.31735 0.96819 0.01518 0.0
Co42 Co 0.99807 0.65933 0.01218 0.0
O43 O 0.9918 0.67628 0.9865 0.0
O44 O 0.96549 0.64353 0.00537 0.0
C45 C 0.02234 0.69084 0.03774 0.0
O46 O 0.99723 0.63736 0.04006 0.0
Co47 Co 0.04629 0.66699 0.0184 0.0
O48 O 0.03214 0.64203 0.0452 0.0
C49 C 0.01912 0.64073 0.97216 0.0
C50 C 0.97038 0.6602 0.98902 0.0
C51 C 0.01095 0.63217 0.05097 0.0
O52 O 0.00165 0.64055 0.98252 0.0
O53 O 0.0393 0.65244 0.98197 0.0
O54 O 1.00024 0.6805 0.04078 0.0
O55 O 0.02911 0.68288 0.01819 0.0
Co56 Co 0.34104 0.34298 0.00678 0.0
O57 O 0.3204 0.32838 0.03619 0.0
O58 O 0.32534 0.35936 0.01535 0.0
C59 C 0.33098 0.31013 0.98323 0.0
O60 O 0.36039 0.36279 0.97574 0.0
Co61 Co 0.38016 0.33313 0.99455 0.0
O62 O 0.38706 0.35391 0.96389 0.0
C63 C 0.38398 0.36282 0.04066 0.0
C64 C 0.31495 0.34415 0.03392 0.0
C65 C 0.37713 0.3654 0.96094 0.0
O66 O 0.36632 0.36319 0.03262 0.0
O67 O 0.39104 0.35023 0.02974 0.0
O68 O 0.31866 0.31974 0.98192 0.0
O69 O 0.3475 0.31935 1.00039 0.0
Co70 Co 0.65969 0.99884 0.01022 0.0
O71 O 0.67647 0.99484 0.03824 0.0
O72 O 0.64795 0.96621 0.0152 0.0
C73 C 0.69052 0.02695 0.98802 0.0
O74 O 0.63861 0.99544 0.97968 0.0
Co75 Co 0.66025 0.04443 0.00519 0.0
O76 O 0.63764 0.02819 0.97605 0.0
C77 C 0.63456 0.01387 0.04876 0.0
C78 C 0.66316 0.97264 0.03399 0.0
C79 C 0.63121 0.00746 0.9688 0.0
O80 O 0.6372 0.998 0.03762 0.0
O81 O 0.6443 0.03465 0.04044 0.0
O82 O 0.6838 0.00516 0.98443 0.0
O83 O 0.67998 0.0314 0.00677 0.0
Co84 Co 0.67297 0.67563 0.3431 0.0
O85 O 0.67801 0.65802 0.36911 0.0
O86 O 0.70539 0.6902 0.35028 0.0
C87 C 0.64789 0.64455 0.31797 0.0
O88 O 0.67493 0.69845 0.31535 0.0
Co89 Co 0.62506 0.66944 0.33464 0.0
O90 O 0.63956 0.68995 0.30374 0.0
C91 C 0.65327 0.69708 0.38083 0.0
C92 C 0.69967 0.67348 0.36688 0.0
C93 C 0.66127 0.70167 0.30102 0.0
O94 O 0.66995 0.69477 0.37255 0.0
O95 O 0.63355 0.68716 0.3696 0.0
O96 O 0.66987 0.65362 0.31487 0.0
O97 O 0.64182 0.65345 0.3371 0.0
Co98 Co 0.32791 0.99769 0.34358 0.0
O99 O 0.35179 0.01583 0.31802 0.0
O100 O 0.34423 0.98216 0.3342 0.0
C101 C 0.33565 0.02808 0.3713 0.0
O102 O 0.30638 0.97407 0.37083 0.0
Co103 Co 0.28711 0.0038 0.35531 0.0
O104 O 0.27611 0.9778 0.38033 0.0
C105 C 0.28692 0.97958 0.30591 0.0
C106 C 0.35656 0.99944 0.31858 0.0
C107 C 0.28762 0.96802 0.38345 0.0
O108 O 0.30567 0.98099 0.3132 0.0
O109 O 0.27739 0.98865 0.31943 0.0
O110 O 0.34722 0.01766 0.37282 0.0
O111 O 0.32052 0.02063 0.35241 0.0
Co112 Co 0.01228 0.33843 0.34166 0.0
O113 O 0.99866 0.34618 0.31333 0.0
O114 O 0.03058 0.37134 0.33476 0.0
C115 C 0.9794 0.31638 0.36434 0.0
O116 O 0.03109 0.33728 0.37244 0.0
Co117 Co 0.99864 0.28728 0.35117 0.0
O118 O 0.01918 0.30026 0.3826 0.0
C119 C 0.02944 0.31287 0.30665 0.0
C120 C 0.01531 0.36749 0.31681 0.0
C121 C 0.03212 0.32207 0.3866 0.0
O122 O 0.03065 0.33174 0.3149 0.0
O123 O 0.01632 0.29302 0.31701 0.0
O124 O 0.99048 0.33886 0.36707 0.0
O125 O 0.98741 0.30823 0.34655 0.0
Co126 Co 0.65845 0.99045 0.35162 0.0
O127 O 0.65216 0.00544 0.32349 0.0
O128 O 0.62606 0.97305 0.34314 0.0
C129 C 0.68079 0.02334 0.37557 0.0
O130 O 0.6583 0.97022 0.38159 0.0
Co131 Co 0.70833 0.00251 0.36282 0.0
O132 O 0.69445 0.98099 0.39306 0.0
C133 C 0.68321 0.97319 0.31619 0.0
C134 C 0.6309 0.98889 0.32557 0.0
C135 C 0.6728 0.9683 0.39597 0.0
O136 O 0.66457 0.97171 0.32456 0.0
O137 O 0.70283 0.98636 0.32708 0.0
O138 O 0.65858 0.01264 0.37771 0.0
O139 O 0.6885 0.01483 0.35789 0.0
Co140 Co 0.00826 0.67503 0.34151 0.0
O141 O 0.98571 0.65848 0.36877 0.0
O142 O 0.99312 0.69175 0.35134 0.0
C143 C 0.99821 0.6435 0.31537 0.0
O144 O 0.02953 0.697 0.31296 0.0
Co145 Co 0.04651 0.66475 0.32648 0.0
O146 O 0.04837 0.68146 0.29339 0.0
C147 C 0.05104 0.69264 0.37519 0.0
C148 C 0.98115 0.67496 0.36774 0.0
C149 C 0.04257 0.69669 0.29436 0.0
O150 O 0.03262 0.69252 0.36937 0.0
O151 O 0.05863 0.68159 0.36166 0.0
O152 O 0.9868 0.6541 0.31413 0.0
O153 O 0.01412 0.6513 0.3332 0.0
Co154 Co 0.32872 0.335 0.34624 0.0
O155 O 0.3446 0.32742 0.37174 0.0
O156 O 0.31101 0.30212 0.35349 0.0
C157 C 0.35971 0.35704 0.32072 0.0
O158 O 0.30734 0.33639 0.31884 0.0
Co159 Co 0.34075 0.38535 0.33781 0.0
O160 O 0.32602 0.37234 0.30273 0.0
C161 C 0.31004 0.35859 0.38234 0.0
C162 C 0.32755 0.30618 0.36967 0.0
C163 C 0.30945 0.35137 0.30168 0.0
O164 O 0.31254 0.3414 0.37601 0.0
O165 O 0.31995 0.37776 0.36975 0.0
O166 O 0.34828 0.33457 0.3177 0.0
O167 O 0.35316 0.36524 0.34016 0.0
Co168 Co 0.34115 0.0098 0.67264 0.0
O169 O 0.34648 0.99274 0.69905 0.0
O170 O 0.3736 0.02413 0.67886 0.0
C171 C 0.31549 0.97844 0.64837 0.0
O172 O 0.34295 0.03226 0.64461 0.0
Co173 Co 0.29341 0.00411 0.66488 0.0
O174 O 0.30767 0.02453 0.63387 0.0
C175 C 0.32242 0.03205 0.71048 0.0
C176 C 0.36817 0.00801 0.69623 0.0
C177 C 0.32934 0.03583 0.6307 0.0
O178 O 0.33889 0.02954 0.70186 0.0
O179 O 0.30253 0.02212 0.69967 0.0
O180 O 0.33739 0.98724 0.64486 0.0
O181 O 0.30983 0.98776 0.66744 0.0
Co182 Co 0.9914 0.32451 0.67479 0.0
O183 O 0.0148 0.34324 0.64907 0.0
O184 O 0.00884 0.31014 0.6653 0.0
C185 C 0.99799 0.35432 0.70282 0.0
O186 O 0.97058 0.30079 0.70207 0.0
Co187 Co 0.94958 0.32947 0.68575 0.0
O188 O 0.93849 0.30197 0.7088 0.0
C189 C 0.95146 0.30751 0.636 0.0
C190 C 0.02072 0.32771 0.64986 0.0
C191 C 0.95095 0.29338 0.71314 0.0
O192 O 0.96875 0.3068 0.64498 0.0
O193 O 0.94292 0.31831 0.64789 0.0
O194 O 0.0105 0.34489 0.70394 0.0
O195 O 0.98298 0.34656 0.68382 0.0
Co196 Co 0.67809 0.67002 0.67772 0.0
O197 O 0.66136 0.67624 0.6518 0.0
O198 O 0.69347 0.70307 0.67168 0.0
C199 C 0.64701 0.64525 0.70187 0.0
O200 O 0.69999 0.67052 0.70569 0.0
Co201 Co 0.6698 0.62055 0.68378 0.0
O202 O 0.68964 0.63392 0.7157 0.0
C203 C 0.6985 0.64954 0.63951 0.0
C204 C 0.67705 0.69797 0.65485 0.0
C205 C 0.70212 0.6558 0.71949 0.0
O206 O 0.69667 0.66659 0.64841 0.0
O207 O 0.68804 0.62932 0.64969 0.0
O208 O 0.65677 0.66755 0.70575 0.0
O209 O 0.65513 0.63868 0.68244 0.0
Co210 Co 0.32345 0.32198 0.68511 0.0
O211 O 0.31772 0.33736 0.65688 0.0
O212 O 0.29106 0.30536 0.67652 0.0
C213 C 0.34635 0.35435 0.70935 0.0
O214 O 0.3224 0.30158 0.71545 0.0
Co215 Co 0.37237 0.33171 0.69683 0.0
O216 O 0.35786 0.3101 0.72684 0.0
C217 C 0.34723 0.30339 0.64984 0.0
C218 C 0.29624 0.32129 0.65895 0.0
C219 C 0.33617 0.29863 0.72998 0.0
O220 O 0.32894 0.30282 0.65791 0.0
O221 O 0.36674 0.31535 0.66131 0.0
O222 O 0.32417 0.34439 0.71116 0.0
O223 O 0.35387 0.34566 0.69163 0.0
Co224 Co 0.67625 0.01272 0.67407 0.0
O225 O 0.65523 0.99525 0.7024 0.0
O226 O 0.65778 0.02591 0.68336 0.0
C227 C 0.66994 0.98179 0.64843 0.0
O228 O 0.69455 0.03514 0.64441 0.0
Co229 Co 0.71902 0.00973 0.66118 0.0
O230 O 0.726 0.03362 0.63413 0.0
C231 C 0.71821 0.03411 0.70989 0.0
C232 C 0.64803 0.00974 0.70098 0.0
C233 C 0.71302 0.04182 0.63092 0.0
O234 O 0.70002 0.03333 0.70154 0.0
O235 O 0.72728 0.02378 0.69801 0.0
O236 O 0.65607 0.98964 0.64745 0.0
O237 O 0.68595 0.99144 0.66619 0.0
Co238 Co 0.99436 0.6679 0.67989 0.0
O239 O 0.00988 0.65981 0.70537 0.0
O240 O 0.97901 0.6344 0.68253 0.0
C241 C 0.02629 0.69476 0.65803 0.0
O242 O 0.9744 0.66978 0.65108 0.0
Co243 Co 0.00118 0.71631 0.68249 0.0
O244 O 0.97648 0.70408 0.65523 0.0
C245 C 0.97284 0.68407 0.72279 0.0
C246 C 0.99445 0.63829 0.7003 0.0
C247 C 0.96836 0.68417 0.64407 0.0
O248 O 0.9737 0.66811 0.70921 0.0
O249 O 0.98479 0.70554 0.71718 0.0
O250 O 0.01672 0.67273 0.65244 0.0
O251 O 0.01773 0.69982 0.67853 0.0
C252 C 0.24912 0.35627 0.12543 0.0
C253 C 0.24477 0.34437 0.10078 0.0
C254 C 0.231 0.35467 0.14069 0.0
C255 C 0.20816 0.33994 0.13232 0.0
C256 C 0.22209 0.33115 0.09152 0.0
C257 C 0.20398 0.32875 0.10725 0.0
C258 C 0.18835 0.33663 0.14853 0.0
C259 C 0.23239 0.32192 0.20206 0.0
C260 C 0.23585 0.33172 0.2279 0.0
C261 C 0.2152 0.32063 0.18561 0.0
C262 C 0.20249 0.33088 0.1939 0.0
C263 C 0.2213 0.33942 0.23719 0.0
C264 C 0.20522 0.33945 0.22029 0.0
C265 C 0.18575 0.33246 0.17636 0.0
C266 C 0.09039 0.30838 0.20346 0.0
C267 C 0.09519 0.32307 0.2259 0.0
C268 C 0.10814 0.31151 0.18631 0.0
C269 C 0.13083 0.32934 0.19154 0.0
C270 C 0.11778 0.34112 0.23074 0.0
C271 C 0.13548 0.34409 0.21383 0.0
C272 C 0.1502 0.33183 0.17537 0.0
C273 C 0.10859 0.35023 0.12306 0.0
C274 C 0.10481 0.34122 0.09684 0.0
C275 C 0.12436 0.34898 0.13954 0.0
C276 C 0.13575 0.33752 0.13066 0.0
C277 C 0.11706 0.33091 0.08744 0.0
C278 C 0.13212 0.32884 0.10424 0.0
C279 C 0.15254 0.33558 0.1476 0.0
H280 H 0.26651 0.36676 0.13284 0.0
H281 H 0.23481 0.36446 0.15929 0.0
H282 H 0.21835 0.32207 0.07242 0.0
H283 H 0.1866 0.31779 0.09995 0.0
H284 H 0.24315 0.31554 0.19451 0.0
H285 H 0.21239 0.31221 0.16623 0.0
H286 H 0.22329 0.34667 0.25719 0.0
H287 H 0.19531 0.34683 0.22781 0.0
H288 H 0.07304 0.29423 0.19961 0.0
H289 H 0.10429 0.29973 0.16944 0.0
H290 H 0.12178 0.3525 0.24806 0.0
H291 H 0.1529 0.35782 0.21829 0.0
H292 H 0.09957 0.35855 0.13063 0.0
H293 H 0.12775 0.35732 0.15901 0.0
H294 H 0.11464 0.32407 0.0672 0.0
H295 H 0.14091 0.32032 0.0965 0.0
N296 N 0.1715 0.33771 0.13547 0.0
N297 N 0.16684 0.3305 0.18842 0.0
C298 C 0.65838 0.89997 0.12439 0.0
C299 C 0.67071 0.90709 0.10036 0.0
C300 C 0.65982 0.88407 0.1405 0.0
C301 C 0.67465 0.87597 0.13371 0.0
C302 C 0.6847 0.89822 0.09288 0.0
C303 C 0.68684 0.88303 0.10951 0.0
C304 C 0.67649 0.85895 0.15041 0.0
C305 C 0.69252 0.91746 0.20994 0.0
C306 C 0.67691 0.91063 0.23124 0.0
C307 C 0.69179 0.90077 0.19212 0.0
C308 C 0.67532 0.87713 0.19535 0.0
C309 C 0.6602 0.88712 0.23412 0.0
C310 C 0.65946 0.87049 0.21638 0.0
C311 C 0.67566 0.85893 0.17864 0.0
C312 C 0.69732 0.78807 0.21289 0.0
C313 C 0.67815 0.77392 0.22889 0.0
C314 C 0.69704 0.8042 0.19592 0.0
C315 C 0.67781 0.80673 0.1953 0.0
C316 C 0.65886 0.77631 0.22786 0.0
C317 C 0.65885 0.79283 0.21153 0.0
C318 C 0.67753 0.82445 0.17876 0.0
C319 C 0.6647 0.76538 0.12369 0.0
C320 C 0.67774 0.77143 0.10015 0.0
C321 C 0.66506 0.7825 0.14024 0.0
C322 C 0.6793 0.80614 0.13428 0.0
C323 C 0.69177 0.79495 0.09387 0.0
C324 C 0.69267 0.81216 0.1109 0.0
C325 C 0.67876 0.82454 0.15062 0.0
H326 H 0.64722 0.90634 0.13037 0.0
H327 H 0.64901 0.87796 0.15802 0.0
H328 H 0.69416 0.90326 0.07427 0.0
H329 H 0.69805 0.87676 0.10339 0.0
H330 H 0.7057 0.93554 0.20771 0.0
H331 H 0.70451 0.90623 0.1764 0.0
H332 H 0.64819 0.8816 0.25063 0.0
H333 H 0.64675 0.85234 0.21935 0.0
H334 H 0.71247 0.78668 0.21367 0.0
H335 H 0.71193 0.81501 0.18372 0.0
H336 H 0.64397 0.76568 0.24015 0.0
H337 H 0.64392 0.79464 0.21139 0.0
H338 H 0.65343 0.74729 0.12862 0.0
H339 H 0.65343 0.77703 0.15704 0.0
H340 H 0.7017 0.79994 0.07558 0.0
H341 H 0.7035 0.83021 0.10553 0.0
N342 N 0.67822 0.84182 0.13765 0.0
N343 N 0.67598 0.84156 0.19157 0.0
C344 C 0.09589 0.77003 0.12205 0.0
C345 C 0.08597 0.77332 0.09942 0.0
C346 C 0.11199 0.78906 0.13723 0.0
C347 C 0.11734 0.81159 0.13105 0.0
C348 C 0.09228 0.79595 0.09238 0.0
C349 C 0.10769 0.81492 0.10822 0.0
C350 C 0.13417 0.83196 0.14701 0.0
C351 C 0.07924 0.78055 0.20164 0.0
C352 C 0.08765 0.77668 0.22524 0.0
C353 C 0.09329 0.80016 0.18628 0.0
C354 C 0.11655 0.81515 0.19307 0.0
C355 C 0.10992 0.79329 0.23369 0.0
C356 C 0.12428 0.81197 0.21762 0.0
C357 C 0.1336 0.83377 0.17522 0.0
C358 C 0.22018 0.92829 0.19785 0.0
C359 C 0.22451 0.92229 0.22287 0.0
C360 C 0.2016 0.91191 0.18239 0.0
C361 C 0.18826 0.8887 0.19061 0.0
C362 C 0.21023 0.89957 0.23183 0.0
C363 C 0.19262 0.88293 0.21575 0.0
C364 C 0.16952 0.87004 0.17402 0.0
C365 C 0.23101 0.90471 0.11971 0.0
C366 C 0.22742 0.91315 0.096 0.0
C367 C 0.21246 0.88964 0.13566 0.0
C368 C 0.19004 0.88371 0.129 0.0
C369 C 0.20491 0.90626 0.08858 0.0
C370 C 0.18641 0.8918 0.10504 0.0
C371 C 0.17017 0.86793 0.14589 0.0
H372 H 0.09154 0.75273 0.12759 0.0
H373 H 0.12005 0.78614 0.15397 0.0
H374 H 0.08517 0.79888 0.07471 0.0
H375 H 0.1121 0.83222 0.10264 0.0
H376 H 0.06199 0.76821 0.19487 0.0
H377 H 0.08614 0.80293 0.16858 0.0
H378 H 0.11669 0.79101 0.25207 0.0
H379 H 0.14185 0.82341 0.22406 0.0
H380 H 0.23089 0.94576 0.19057 0.0
H381 H 0.19797 0.9174 0.16392 0.0
H382 H 0.21302 0.89455 0.25116 0.0
H383 H 0.18256 0.86536 0.223 0.0
H384 H 0.24819 0.90949 0.12562 0.0
H385 H 0.21568 0.88276 0.15332 0.0
H386 H 0.20171 0.91221 0.07013 0.0
H387 H 0.16923 0.88697 0.09909 0.0
N388 N 0.15227 0.84921 0.13363 0.0
N389 N 0.15127 0.85286 0.18723 0.0
C390 C 0.3442 0.10457 0.81525 0.0
C391 C 0.32698 0.09278 0.79599 0.0
C392 C 0.34333 0.12051 0.8329 0.0
C393 C 0.32512 0.12467 0.83158 0.0
C394 C 0.30868 0.09668 0.79488 0.0
C395 C 0.30783 0.11261 0.81245 0.0
C396 C 0.32482 0.14285 0.84844 0.0
C397 C 0.31684 0.08784 0.90486 0.0
C398 C 0.33483 0.09568 0.92327 0.0
C399 C 0.31469 0.10371 0.88942 0.0
C400 C 0.3306 0.12768 0.89206 0.0
C401 C 0.35064 0.11958 0.9261 0.0
C402 C 0.34844 0.13547 0.91075 0.0
C403 C 0.32819 0.14478 0.87638 0.0
C404 C 0.30445 0.21702 0.9066 0.0
C405 C 0.32272 0.23173 0.92358 0.0
C406 C 0.305 0.19943 0.89188 0.0
C407 C 0.32387 0.1964 0.89387 0.0
C408 C 0.34125 0.22827 0.92622 0.0
C409 C 0.34174 0.21059 0.91158 0.0
C410 C 0.32514 0.17862 0.87733 0.0
C411 C 0.33276 0.23439 0.82337 0.0
C412 C 0.31503 0.22737 0.80433 0.0
C413 C 0.33514 0.21824 0.83788 0.0
C414 C 0.3202 0.19435 0.83361 0.0
C415 C 0.30188 0.20324 0.79823 0.0
C416 C 0.30411 0.18706 0.81299 0.0
C417 C 0.32222 0.17696 0.84933 0.0
H418 H 0.35853 0.10184 0.81614 0.0
H419 H 0.35718 0.13003 0.84702 0.0
H420 H 0.29534 0.08778 0.78 0.0
H421 H 0.29376 0.11571 0.81092 0.0
H422 H 0.30439 0.06945 0.9026 0.0
H423 H 0.30042 0.09727 0.87569 0.0
H424 H 0.36456 0.12592 0.94033 0.0
H425 H 0.36077 0.15385 0.91334 0.0
H426 H 0.28994 0.21935 0.90456 0.0
H427 H 0.2908 0.18834 0.87873 0.0
H428 H 0.3554 0.2394 0.9394 0.0
H429 H 0.35634 0.20839 0.91356 0.0
H430 H 0.34548 0.25248 0.8269 0.0
H431 H 0.34898 0.22453 0.8522 0.0
H432 H 0.29015 0.1962 0.78174 0.0
H433 H 0.29321 0.16874 0.80816 0.0
N434 N 0.32194 0.15897 0.83606 0.0
N435 N 0.32827 0.16267 0.88973 0.0
C436 C 0.92368 0.22082 0.89921 0.0
C437 C 0.91883 0.23296 0.91872 0.0
C438 C 0.90581 0.20178 0.88569 0.0
C439 C 0.88282 0.19473 0.89132 0.0
C440 C 0.89594 0.22572 0.92476 0.0
C441 C 0.87805 0.20667 0.91123 0.0
C442 C 0.86374 0.17479 0.87681 0.0
C443 C 0.89708 0.22905 0.81336 0.0
C444 C 0.90811 0.22355 0.79326 0.0
C445 C 0.8834 0.21257 0.83221 0.0
C446 C 0.88049 0.19031 0.83116 0.0
C447 C 0.9059 0.20159 0.79276 0.0
C448 C 0.89189 0.18495 0.81137 0.0
C449 C 0.86368 0.17201 0.84883 0.0
C450 C 0.76943 0.10069 0.81878 0.0
C451 C 0.77403 0.08836 0.79924 0.0
C452 C 0.78647 0.11536 0.83705 0.0
C453 C 0.80832 0.11792 0.83583 0.0
C454 C 0.7955 0.09013 0.79885 0.0
C455 C 0.81256 0.10494 0.81685 0.0
C456 C 0.82771 0.13649 0.85129 0.0
C457 C 0.78056 0.0833 0.90967 0.0
C458 C 0.77163 0.09188 0.92903 0.0
C459 C 0.79894 0.09864 0.89362 0.0
C460 C 0.80841 0.12277 0.8965 0.0
C461 C 0.78151 0.11593 0.93252 0.0
C462 C 0.79982 0.13126 0.91646 0.0
C463 C 0.82748 0.13937 0.87928 0.0
H464 H 0.94128 0.22605 0.89459 0.0
H465 H 0.90996 0.19246 0.87098 0.0
H466 H 0.89196 0.23483 0.93994 0.0
H467 H 0.86049 0.20145 0.91606 0.0
H468 H 0.89857 0.2459 0.814 0.0
H469 H 0.87439 0.21691 0.84699 0.0
H470 H 0.91435 0.1971 0.77738 0.0
H471 H 0.88966 0.1678 0.81012 0.0
H472 H 0.75303 0.09971 0.81915 0.0
H473 H 0.783 0.12561 0.85115 0.0
H474 H 0.79938 0.08085 0.78377 0.0
H475 H 0.82937 0.10689 0.81538 0.0
H476 H 0.77315 0.06476 0.90684 0.0
H477 H 0.80571 0.09164 0.879 0.0
H478 H 0.77478 0.1228 0.9474 0.0
H479 H 0.80697 0.14977 0.91924 0.0
N480 N 0.84553 0.15845 0.89096 0.0
N481 N 0.84581 0.15291 0.83721 0.0
C482 C 0.77734 0.68984 0.90699 0.0
C483 C 0.76546 0.67233 0.9257 0.0
C484 C 0.79504 0.69047 0.89186 0.0
C485 C 0.80087 0.67341 0.89504 0.0
C486 C 0.77161 0.65564 0.92939 0.0
C487 C 0.78928 0.65625 0.91426 0.0
C488 C 0.81939 0.67361 0.87903 0.0
C489 C 0.76426 0.65934 0.81895 0.0
C490 C 0.77149 0.67514 0.79805 0.0
C491 C 0.78027 0.66005 0.8368 0.0
C492 C 0.80373 0.67684 0.83423 0.0
C493 C 0.79479 0.69215 0.79567 0.0
C494 C 0.81079 0.69295 0.81358 0.0
C495 C 0.82124 0.67628 0.85104 0.0
C496 C 0.89504 0.65594 0.82124 0.0
C497 C 0.90646 0.6729 0.80183 0.0
C498 C 0.87858 0.65654 0.83768 0.0
C499 C 0.87362 0.67432 0.83514 0.0
C500 C 0.90144 0.69053 0.79916 0.0
C501 C 0.88511 0.69119 0.81563 0.0
C502 C 0.85556 0.67477 0.85144 0.0
C503 C 0.91048 0.68401 0.9077 0.0
C504 C 0.90292 0.66695 0.92722 0.0
C505 C 0.8946 0.68603 0.89236 0.0
C506 C 0.8709 0.67061 0.89585 0.0
C507 C 0.87932 0.65203 0.93138 0.0
C508 C 0.86343 0.65386 0.91581 0.0
C509 C 0.85376 0.67216 0.87943 0.0
H510 H 0.77285 0.70292 0.90407 0.0
H511 H 0.80417 0.70428 0.87773 0.0
H512 H 0.76261 0.64207 0.94384 0.0
H513 H 0.79365 0.64308 0.91725 0.0
H514 H 0.74636 0.64587 0.82078 0.0
H515 H 0.77438 0.64693 0.85193 0.0
H516 H 0.80066 0.7043 0.77944 0.0
H517 H 0.82878 0.70587 0.81097 0.0
H518 H 0.89856 0.64207 0.82327 0.0
H519 H 0.86947 0.64293 0.85204 0.0
H520 H 0.91002 0.70362 0.7841 0.0
H521 H 0.88139 0.70489 0.8131 0.0
H522 H 0.92866 0.69584 0.9045 0.0
H523 H 0.90086 0.69968 0.87783 0.0
H524 H 0.87324 0.63887 0.94651 0.0
H525 H 0.84528 0.64197 0.91914 0.0
N526 N 0.83565 0.67153 0.89206 0.0
N527 N 0.83933 0.67689 0.83846 0.0
C528 C 0.75926 0.64896 0.44877 0.0
C529 C 0.76645 0.6671 0.43072 0.0
C530 C 0.77535 0.64748 0.46435 0.0
C531 C 0.79883 0.66428 0.46229 0.0
C532 C 0.78989 0.68365 0.42828 0.0
C533 C 0.80597 0.68217 0.44385 0.0
C534 C 0.81618 0.66303 0.47857 0.0
C535 C 0.77309 0.67546 0.53867 0.0
C536 C 0.76179 0.65746 0.55696 0.0
C537 C 0.78978 0.67605 0.52156 0.0
C538 C 0.7953 0.6586 0.52256 0.0
C539 C 0.76703 0.63986 0.55768 0.0
C540 C 0.78377 0.64052 0.54073 0.0
C541 C 0.81425 0.65992 0.50639 0.0
C542 C 0.90787 0.67613 0.5363 0.0
C543 C 0.90124 0.66559 0.56133 0.0
C544 C 0.89154 0.67498 0.51867 0.0
C545 C 0.86792 0.66141 0.52446 0.0
C546 C 0.87776 0.65249 0.5675 0.0
C547 C 0.86134 0.65003 0.5491 0.0
C548 C 0.84993 0.66085 0.50702 0.0
C549 C 0.89422 0.64886 0.44898 0.0
C550 C 0.90612 0.66723 0.43125 0.0
C551 C 0.87617 0.64726 0.46435 0.0
C552 C 0.87007 0.66422 0.4624 0.0
C553 C 0.89963 0.68378 0.42875 0.0
C554 C 0.88166 0.68222 0.44412 0.0
C555 C 0.85146 0.66329 0.47888 0.0
H556 H 0.74122 0.63595 0.45072 0.0
H557 H 0.76945 0.63313 0.47786 0.0
H558 H 0.7957 0.69771 0.41436 0.0
H559 H 0.824 0.69518 0.44173 0.0
H560 H 0.76938 0.6893 0.53812 0.0
H561 H 0.79883 0.69046 0.50815 0.0
H562 H 0.75858 0.62598 0.57187 0.0
H563 H 0.78792 0.62703 0.542 0.0
H564 H 0.92588 0.68651 0.53108 0.0
H565 H 0.89776 0.68554 0.50112 0.0
H566 H 0.87213 0.64439 0.58674 0.0
H567 H 0.8434 0.63971 0.5546 0.0
H568 H 0.89894 0.63585 0.45091 0.0
H569 H 0.86713 0.63296 0.4779 0.0
H570 H 0.90858 0.69796 0.41501 0.0
H571 H 0.87706 0.69533 0.4421 0.0
N572 N 0.83471 0.6646 0.46595 0.0
N573 N 0.83116 0.65901 0.51939 0.0
C574 C 0.31845 0.22598 0.45249 0.0
C575 C 0.3346 0.2392 0.43289 0.0
C576 C 0.3218 0.21118 0.46837 0.0
C577 C 0.34137 0.20939 0.46492 0.0
C578 C 0.35393 0.2371 0.42903 0.0
C579 C 0.35719 0.22214 0.44481 0.0
C580 C 0.34486 0.1936 0.48164 0.0
C581 C 0.35718 0.25048 0.54221 0.0
C582 C 0.34029 0.24285 0.56217 0.0
C583 C 0.35718 0.23459 0.52375 0.0
C584 C 0.34042 0.21089 0.52528 0.0
C585 C 0.32274 0.21941 0.56261 0.0
C586 C 0.32298 0.20349 0.54449 0.0
C587 C 0.34282 0.19343 0.50965 0.0
C588 C 0.36778 0.12484 0.5458 0.0
C589 C 0.34845 0.11049 0.56146 0.0
C590 C 0.36769 0.14127 0.52918 0.0
C591 C 0.34847 0.14381 0.52853 0.0
C592 C 0.32931 0.11313 0.56072 0.0
C593 C 0.32945 0.12987 0.54469 0.0
C594 C 0.34778 0.16094 0.51132 0.0
C595 C 0.33867 0.10217 0.459 0.0
C596 C 0.352 0.10801 0.43572 0.0
C597 C 0.33789 0.11926 0.47433 0.0
C598 C 0.35161 0.14282 0.46777 0.0
C599 C 0.36552 0.13143 0.42874 0.0
C600 C 0.36548 0.14873 0.44481 0.0
C601 C 0.34994 0.16101 0.4832 0.0
H602 H 0.30336 0.22727 0.45558 0.0
H603 H 0.309 0.201 0.48323 0.0
H604 H 0.36651 0.24715 0.41391 0.0
H605 H 0.37224 0.2208 0.44161 0.0
H606 H 0.3709 0.26851 0.54171 0.0
H607 H 0.37098 0.24057 0.50933 0.0
H608 H 0.30961 0.21326 0.57791 0.0
H609 H 0.31 0.18525 0.54604 0.0
H610 H 0.38281 0.12324 0.54641 0.0
H611 H 0.38261 0.15208 0.51702 0.0
H612 H 0.31432 0.10236 0.57281 0.0
H613 H 0.31451 0.13164 0.5445 0.0
H614 H 0.32774 0.08415 0.46443 0.0
H615 H 0.32576 0.11373 0.49062 0.0
H616 H 0.3756 0.13624 0.41058 0.0
H617 H 0.37588 0.16669 0.43895 0.0
N618 N 0.3485 0.17748 0.46945 0.0
N619 N 0.34423 0.17706 0.52336 0.0
C620 C 0.76545 0.10026 0.44693 0.0
C621 C 0.75155 0.10472 0.43076 0.0
C622 C 0.7843 0.1185 0.46009 0.0
C623 C 0.78947 0.14147 0.45733 0.0
C624 C 0.75674 0.12767 0.42782 0.0
C625 C 0.77576 0.14598 0.44085 0.0
C626 C 0.80914 0.16064 0.47177 0.0
C627 C 0.7551 0.12064 0.53396 0.0
C628 C 0.76177 0.10997 0.55258 0.0
C629 C 0.77124 0.13677 0.51631 0.0
C630 C 0.7942 0.14235 0.51707 0.0
C631 C 0.78466 0.11557 0.5534 0.0
C632 C 0.80077 0.13173 0.53587 0.0
C633 C 0.81183 0.16025 0.4996 0.0
C634 C 0.89065 0.25336 0.52797 0.0
C635 C 0.90081 0.2468 0.54736 0.0
C636 C 0.8744 0.23669 0.51043 0.0
C637 C 0.8682 0.21331 0.51214 0.0
C638 C 0.89559 0.22373 0.54806 0.0
C639 C 0.87925 0.20706 0.53069 0.0
C640 C 0.84837 0.19495 0.49709 0.0
C641 C 0.90418 0.23436 0.43895 0.0
C642 C 0.89994 0.24833 0.42252 0.0
C643 C 0.88642 0.21686 0.45375 0.0
C644 C 0.86415 0.21316 0.45245 0.0
C645 C 0.87761 0.24437 0.42073 0.0
C646 C 0.85976 0.22673 0.43547 0.0
C647 C 0.8457 0.19549 0.46931 0.0
H648 H 0.76174 0.08267 0.44925 0.0
H649 H 0.7949 0.1147 0.47238 0.0
H650 H 0.74618 0.13135 0.4153 0.0
H651 H 0.77955 0.16359 0.43843 0.0
H652 H 0.73751 0.11664 0.53333 0.0
H653 H 0.7659 0.14522 0.50247 0.0
H654 H 0.79006 0.10758 0.56781 0.0
H655 H 0.81841 0.13594 0.53697 0.0
H656 H 0.89432 0.27106 0.52744 0.0
H657 H 0.86577 0.24182 0.49663 0.0
H658 H 0.90316 0.21841 0.56311 0.0
H659 H 0.8746 0.18911 0.53239 0.0
H660 H 0.92129 0.23711 0.4404 0.0
H661 H 0.89009 0.2063 0.46637 0.0
H662 H 0.87409 0.255 0.40805 0.0
H663 H 0.84268 0.22406 0.43414 0.0
N664 N 0.82612 0.17834 0.45758 0.0
N665 N 0.83138 0.17735 0.51114 0.0
C666 C 0.97546 0.55329 0.14844 0.0
C667 C 0.99162 0.56264 0.12773 0.0
C668 C 0.97505 0.53666 0.16515 0.0
C669 C 0.991 0.52945 0.16146 0.0
C670 C 0.00724 0.55519 0.12381 0.0
C671 C 0.0069 0.5387 0.14047 0.0
C672 C 0.99101 0.51169 0.17842 0.0
C673 C 0.00807 0.57212 0.23388 0.0
C674 C 0.98963 0.56703 0.25097 0.0
C675 C 0.0084 0.55436 0.21928 0.0
C676 C 0.99037 0.53125 0.22175 0.0
C677 C 0.97146 0.54393 0.2532 0.0
C678 C 0.97199 0.52612 0.23892 0.0
C679 C 0.99074 0.51245 0.20651 0.0
C680 C 0.02383 0.44884 0.23512 0.0
C681 C 0.00832 0.43533 0.25514 0.0
C682 C 0.01953 0.46325 0.21969 0.0
C683 C 0.99973 0.46444 0.22417 0.0
C684 C 0.98884 0.43697 0.26006 0.0
C685 C 0.98471 0.45161 0.24486 0.0
C686 C 0.99483 0.47925 0.20758 0.0
C687 C 0.98453 0.41945 0.15387 0.0
C688 C 0.99299 0.42507 0.1277 0.0
C689 C 0.98471 0.43632 0.17092 0.0
C690 C 0.99483 0.45954 0.16278 0.0
C691 C 0.00277 0.44808 0.11945 0.0
C692 C 0.00404 0.46513 0.13686 0.0
C693 C 0.99406 0.47784 0.17932 0.0
H694 H 0.96318 0.5588 0.15155 0.0
H695 H 0.96216 0.52929 0.18066 0.0
H696 H 0.01976 0.56222 0.10784 0.0
H697 H 0.01924 0.5333 0.13709 0.0
H698 H 0.02227 0.58982 0.23202 0.0
H699 H 0.0228 0.5586 0.20624 0.0
H700 H 0.95712 0.53971 0.26634 0.0
H701 H 0.95795 0.50837 0.24104 0.0
H702 H 0.03903 0.44792 0.2312 0.0
H703 H 0.03157 0.47337 0.20415 0.0
H704 H 0.97676 0.42675 0.27552 0.0
H705 H 0.96948 0.4525 0.2488 0.0
H706 H 0.97687 0.40178 0.16066 0.0
H707 H 0.97622 0.43083 0.19 0.0
H708 H 0.00937 0.45287 0.09935 0.0
H709 H 0.01182 0.48271 0.12971 0.0
N710 N 0.99245 0.49435 0.16608 0.0
N711 N 0.99272 0.49626 0.22007 0.0
C712 C 0.44657 0.41925 0.14712 0.0
C713 C 0.43752 0.42593 0.12655 0.0
C714 C 0.46201 0.43583 0.16541 0.0
C715 C 0.46841 0.45926 0.16343 0.0
C716 C 0.44333 0.44913 0.12501 0.0
C717 C 0.45872 0.46568 0.14327 0.0
C718 C 0.48708 0.47759 0.18007 0.0
C719 C 0.43028 0.43624 0.23771 0.0
C720 C 0.43488 0.42288 0.25478 0.0
C721 C 0.44779 0.45337 0.22224 0.0
C722 C 0.47019 0.45748 0.22371 0.0
C723 C 0.45724 0.42687 0.25615 0.0
C724 C 0.47486 0.44427 0.24095 0.0
C725 C 0.48881 0.47605 0.20788 0.0
C726 C 0.56417 0.57187 0.2386 0.0
C727 C 0.57768 0.56732 0.25538 0.0
C728 C 0.54684 0.55401 0.22317 0.0
C729 C 0.54275 0.53132 0.22431 0.0
C730 C 0.57352 0.54461 0.25671 0.0
C731 C 0.55599 0.52668 0.24146 0.0
C732 C 0.52427 0.51236 0.20819 0.0
C733 C 0.57869 0.55754 0.14782 0.0
C734 C 0.57098 0.56716 0.12903 0.0
C735 C 0.56308 0.54071 0.16534 0.0
C736 C 0.53965 0.53339 0.16422 0.0
C737 C 0.5477 0.56013 0.12823 0.0
C738 C 0.53215 0.54332 0.14559 0.0
C739 C 0.52239 0.51394 0.18041 0.0
H740 H 0.44242 0.40141 0.14833 0.0
H741 H 0.46973 0.43051 0.18024 0.0
H742 H 0.43658 0.45454 0.10911 0.0
H743 H 0.46352 0.48365 0.14121 0.0
H744 H 0.41315 0.43348 0.23652 0.0
H745 H 0.44391 0.46365 0.2094 0.0
H746 H 0.46108 0.41672 0.26926 0.0
H747 H 0.49206 0.44729 0.24244 0.0
H748 H 0.56708 0.58927 0.23744 0.0
H749 H 0.5365 0.55789 0.2105 0.0
H750 H 0.58379 0.54082 0.2696 0.0
H751 H 0.55297 0.50925 0.24277 0.0
H752 H 0.59661 0.56267 0.14847 0.0
H753 H 0.56918 0.53288 0.17908 0.0
H754 H 0.5415 0.56733 0.11373 0.0
H755 H 0.51415 0.53781 0.14423 0.0
N756 N 0.50388 0.49652 0.16751 0.0
N757 N 0.50742 0.49342 0.22092 0.0
C758 C 0.45129 0.01663 0.25923 0.0
C759 C 0.42821 0.99978 0.25437 0.0
C760 C 0.46869 0.01642 0.24437 0.0
C761 C 0.46326 0.99966 0.22409 0.0
C762 C 0.42275 0.98278 0.23433 0.0
C763 C 0.44017 0.98274 0.21925 0.0
C764 C 0.48194 -0.00012 0.2085 0.0
C765 C 0.44237 0.01802 0.15172 0.0
C766 C 0.43384 0.0029 0.12946 0.0
C767 C 0.45847 0.01766 0.16855 0.0
C768 C 0.466 0.00198 0.16345 0.0
C769 C 0.4416 0.98755 0.12416 0.0
C770 C 0.45758 0.98714 0.14095 0.0
C771 C 0.48337 0.00137 0.18041 0.0
C772 C 0.55894 0.98394 0.15021 0.0
C773 C 0.56988 0.0013 0.13108 0.0
C774 C 0.5424 0.98382 0.16725 0.0
C775 C 0.53675 0.00113 0.16536 0.0
C776 C 0.56444 0.01869 0.12947 0.0
C777 C 0.54796 0.01856 0.14638 0.0
C778 C 0.51799 0.00045 0.18134 0.0
C779 C 0.57256 0.01106 0.23992 0.0
C780 C 0.56472 0.993 0.25822 0.0
C781 C 0.55695 0.013 0.22391 0.0
C782 C 0.5333 0.99682 0.22591 0.0
C783 C 0.54113 0.97694 0.26039 0.0
C784 C 0.52553 0.97892 0.24447 0.0
C785 C 0.51643 0.99866 0.2094 0.0
H786 H 0.45581 0.02983 0.27465 0.0
H787 H 0.4864 0.02955 0.24848 0.0
H788 H 0.40503 0.96956 0.23043 0.0
H789 H 0.43564 0.96944 0.20395 0.0
H790 H 0.43664 0.0301 0.15594 0.0
H791 H 0.46521 0.02979 0.18529 0.0
H792 H 0.43522 0.97584 0.10701 0.0
H793 H 0.46326 0.97506 0.13644 0.0
H794 H 0.56279 0.97024 0.15145 0.0
H795 H 0.53359 0.96988 0.1813 0.0
H796 H 0.57262 0.0321 0.11467 0.0
H797 H 0.54375 0.03196 0.14442 0.0
H798 H 0.59072 0.02372 0.23821 0.0
H799 H 0.56333 0.02727 0.2102 0.0
H800 H 0.53483 0.96301 0.27457 0.0
H801 H 0.50737 0.96636 0.24648 0.0
N802 N 0.49849 0.99853 0.22189 0.0
N803 N 0.50138 0.00165 0.16803 0.0
C804 C 0.57947 0.01584 0.79257 0.0
C805 C 0.57513 0.0048 0.76739 0.0
C806 C 0.5616 0.01497 0.80754 0.0
C807 C 0.5388 0.00191 0.79834 0.0
C808 C 0.55257 0.99273 0.75758 0.0
C809 C 0.53458 0.99113 0.77299 0.0
C810 C 0.51934 0.00023 0.81411 0.0
C811 C 0.5551 0.97641 0.86864 0.0
C812 C 0.56436 0.99075 0.89138 0.0
C813 C 0.53943 0.97828 0.85264 0.0
C814 C 0.53326 0.99484 0.85899 0.0
C815 C 0.5576 0.00667 0.8982 0.0
C816 C 0.54211 0.00864 0.88219 0.0
C817 C 0.51724 0.99772 0.84212 0.0
C818 C 0.42353 0.97876 0.86902 0.0
C819 C 0.4289 0.99376 0.89125 0.0
C820 C 0.44098 0.98082 0.85209 0.0
C821 C 0.46397 0.99799 0.85717 0.0
C822 C 0.45178 0.01119 0.89596 0.0
C823 C 0.46919 0.01318 0.87916 0.0
C824 C 0.48293 0.99922 0.84115 0.0
C825 C 0.44178 0.01677 0.7877 0.0
C826 C 0.43605 0.00537 0.76269 0.0
C827 C 0.45799 0.0161 0.80388 0.0
C828 C 0.46783 0.0029 0.79604 0.0
C829 C 0.4468 0.99328 0.75416 0.0
C830 C 0.46232 0.99185 0.77078 0.0
C831 C 0.48463 0.00119 0.81306 0.0
H832 H 0.59679 0.02549 0.80039 0.0
H833 H 0.56573 0.02463 0.82624 0.0
H834 H 0.54887 0.98431 0.73808 0.0
H835 H 0.51729 0.98132 0.7651 0.0
H836 H 0.56012 0.96396 0.86324 0.0
H837 H 0.53233 0.96701 0.83523 0.0
H838 H 0.5646 0.01781 0.91575 0.0
H839 H 0.53738 0.02131 0.88764 0.0
H840 H 0.40597 0.96503 0.86533 0.0
H841 H 0.43664 0.96865 0.83551 0.0
H842 H 0.45622 0.02274 0.91319 0.0
H843 H 0.48681 0.0264 0.88355 0.0
H844 H 0.43394 0.0265 0.7945 0.0
H845 H 0.46285 0.02607 0.82237 0.0
H846 H 0.44284 0.98461 0.7348 0.0
H847 H 0.46992 0.98192 0.7639 0.0
N848 N 0.50279 0.0016 0.80079 0.0
N849 N 0.49933 0.99765 0.85445 0.0
C850 C 0.98466 0.55598 0.78053 0.0
C851 C 0.00083 0.56937 0.76098 0.0
C852 C 0.98804 0.54114 0.79634 0.0
C853 C 0.00757 0.53932 0.79273 0.0
C854 C 0.0201 0.56719 0.75698 0.0
C855 C 0.02333 0.55209 0.77257 0.0
C856 C 0.01142 0.52392 0.8097 0.0
C857 C 0.02438 0.58381 0.86559 0.0
C858 C 0.00899 0.57669 0.88713 0.0
C859 C 0.02472 0.56725 0.84849 0.0
C860 C 0.00972 0.54345 0.85289 0.0
C861 C 0.99321 0.55298 0.89062 0.0
C862 C 0.9937 0.53648 0.87375 0.0
C863 C 0.01197 0.52565 0.83773 0.0
C864 C 0.02777 0.44677 0.8679 0.0
C865 C 0.01617 0.44209 0.89248 0.0
C866 C 0.0297 0.46447 0.85172 0.0
C867 C 0.01823 0.47635 0.85863 0.0
C868 C 0.00753 0.45617 0.90095 0.0
C869 C 0.00806 0.47264 0.88406 0.0
C870 C 0.01634 0.4926 0.84027 0.0
C871 C 0.99732 0.42918 0.78971 0.0
C872 C 0.0103 0.4333 0.76626 0.0
C873 C 0.9983 0.4476 0.80421 0.0
C874 C 0.01351 0.47062 0.79663 0.0
C875 C 0.02462 0.45623 0.75788 0.0
C876 C 0.02638 0.47476 0.7731 0.0
C877 C 0.01495 0.49039 0.81196 0.0
H878 H 0.96963 0.55735 0.7838 0.0
H879 H 0.97542 0.53108 0.81142 0.0
H880 H 0.03275 0.57735 0.74196 0.0
H881 H 0.03838 0.55077 0.76932 0.0
H882 H 0.03683 0.60206 0.86285 0.0
H883 H 0.03743 0.573 0.83274 0.0
H884 H 0.98136 0.54723 0.90729 0.0
H885 H 0.98202 0.51821 0.87748 0.0
H886 H 0.03497 0.43649 0.86101 0.0
H887 H 0.03943 0.46812 0.8334 0.0
H888 H 0.99898 0.45337 0.92008 0.0
H889 H 0.99971 0.48191 0.89069 0.0
H890 H 0.98592 0.4116 0.79634 0.0
H891 H 0.98732 0.44385 0.82151 0.0
H892 H 0.03444 0.45977 0.73961 0.0
H893 H 0.03777 0.49233 0.76645 0.0
N894 N 0.01298 0.5064 0.7979 0.0
N895 N 0.01454 0.51011 0.85177 0.0
C896 C 0.55532 0.58567 0.77803 0.0
C897 C 0.56574 0.57837 0.7591 0.0
C898 C 0.53649 0.56932 0.79273 0.0
C899 C 0.52802 0.54545 0.78893 0.0
C900 C 0.55679 0.55456 0.75453 0.0
C901 C 0.53798 0.5382 0.76927 0.0
C902 C 0.5091 0.52798 0.80561 0.0
C903 C 0.56886 0.56861 0.86204 0.0
C904 C 0.56447 0.58029 0.88258 0.0
C905 C 0.55098 0.55253 0.84559 0.0
C906 C 0.52857 0.54815 0.84938 0.0
C907 C 0.54222 0.57617 0.88617 0.0
C908 C 0.52437 0.56011 0.86978 0.0
C909 C 0.5091 0.52978 0.83378 0.0
C910 C 0.44033 0.43625 0.86846 0.0
C911 C 0.42607 0.43958 0.88613 0.0
C912 C 0.45509 0.45389 0.85134 0.0
C913 C 0.45607 0.47525 0.85191 0.0
C914 C 0.42646 0.46069 0.88602 0.0
C915 C 0.44169 0.47859 0.86932 0.0
C916 C 0.47306 0.49435 0.83525 0.0
C917 C 0.41264 0.44865 0.78428 0.0
C918 C 0.41677 0.43518 0.76593 0.0
C919 C 0.43093 0.46752 0.79747 0.0
C920 C 0.4536 0.47319 0.79248 0.0
C921 C 0.43942 0.44107 0.76052 0.0
C922 C 0.45775 0.46007 0.77359 0.0
C923 C 0.47291 0.49259 0.8072 0.0
H924 H 0.56195 0.60401 0.78162 0.0
H925 H 0.52872 0.57533 0.80729 0.0
H926 H 0.56463 0.54869 0.73989 0.0
H927 H 0.53162 0.51989 0.76585 0.0
H928 H 0.58594 0.57148 0.85925 0.0
H929 H 0.55453 0.54306 0.83045 0.0
H930 H 0.53858 0.58496 0.9021 0.0
H931 H 0.50719 0.55681 0.87322 0.0
H932 H 0.4403 0.42011 0.86826 0.0
H933 H 0.46621 0.4511 0.83814 0.0
H934 H 0.41553 0.46353 0.89947 0.0
H935 H 0.4423 0.49501 0.87001 0.0
H936 H 0.39526 0.44447 0.78843 0.0
H937 H 0.42737 0.47772 0.81156 0.0
H938 H 0.44287 0.43091 0.74624 0.0
H939 H 0.47511 0.46423 0.76938 0.0
N940 N 0.49101 0.50935 0.79334 0.0
N941 N 0.49105 0.51289 0.84752 0.0
C942 C 0.67318 0.77009 0.48439 0.0
C943 C 0.65582 0.75762 0.46547 0.0
C944 C 0.67196 0.78595 0.50184 0.0
C945 C 0.65326 0.78936 0.50071 0.0
C946 C 0.63704 0.7608 0.46451 0.0
C947 C 0.63584 0.77666 0.4819 0.0
C948 C 0.65262 0.80746 0.51739 0.0
C949 C 0.64836 0.75434 0.57417 0.0
C950 C 0.66672 0.76325 0.59222 0.0
C951 C 0.6449 0.76938 0.55879 0.0
C952 C 0.65991 0.79355 0.56108 0.0
C953 C 0.68156 0.78735 0.59477 0.0
C954 C 0.67809 0.80238 0.57943 0.0
C955 C 0.65644 0.80986 0.54527 0.0
C956 C 0.63772 0.88644 0.57383 0.0
C957 C 0.65583 0.89954 0.59166 0.0
C958 C 0.63686 0.86814 0.55907 0.0
C959 C 0.65417 0.86281 0.56187 0.0
C960 C 0.67275 0.89384 0.59509 0.0
C961 C 0.67183 0.87547 0.58043 0.0
C962 C 0.65386 0.84395 0.54577 0.0
C963 C 0.67147 0.89978 0.48576 0.0
C964 C 0.65317 0.89468 0.4687 0.0
C965 C 0.67026 0.88275 0.50235 0.0
C966 C 0.65085 0.86024 0.50193 0.0
C967 C 0.63342 0.87234 0.46889 0.0
C968 C 0.63245 0.85512 0.48506 0.0
C969 C 0.65055 0.84184 0.51789 0.0
H970 H 0.68788 0.76796 0.48517 0.0
H971 H 0.68594 0.79601 0.51565 0.0
H972 H 0.6236 0.75139 0.44987 0.0
H973 H 0.62141 0.7792 0.48048 0.0
H974 H 0.63667 0.73576 0.57211 0.0
H975 H 0.6304 0.76214 0.54532 0.0
H976 H 0.69577 0.79448 0.60867 0.0
H977 H 0.68977 0.82094 0.58171 0.0
H978 H 0.62455 0.89069 0.57101 0.0
H979 H 0.62273 0.85821 0.54539 0.0
H980 H 0.68686 0.90388 0.60876 0.0
H981 H 0.68524 0.87153 0.58307 0.0
H982 H 0.68686 0.91686 0.4859 0.0
H983 H 0.68477 0.88698 0.51498 0.0
H984 H 0.61911 0.86808 0.45591 0.0
H985 H 0.61737 0.83782 0.48439 0.0
N986 N 0.64984 0.82357 0.5048 0.0
N987 N 0.65691 0.82804 0.55835 0.0
C988 C 0.11668 0.74836 0.48115 0.0
C989 C 0.10663 0.75434 0.46098 0.0
C990 C 0.13215 0.76537 0.49911 0.0
C991 C 0.1377 0.78853 0.49701 0.0
C992 C 0.11161 0.77728 0.45947 0.0
C993 C 0.12713 0.79426 0.47722 0.0
C994 C 0.1561 0.80738 0.51333 0.0
C995 C 0.09866 0.76505 0.57013 0.0
C996 C 0.10446 0.75811 0.59348 0.0
C997 C 0.11575 0.78081 0.55311 0.0
C998 C 0.13903 0.78923 0.55846 0.0
C999 C 0.12767 0.76682 0.59924 0.0
C1000 C 0.14479 0.78212 0.58179 0.0
C1001 C 0.1575 0.80713 0.54146 0.0
C1002 C 0.23202 0.90416 0.56886 0.0
C1003 C 0.24545 0.9003 0.58661 0.0
C1004 C 0.215 0.88577 0.55367 0.0
C1005 C 0.21115 0.86325 0.55606 0.0
C1006 C 0.24153 0.87777 0.58912 0.0
C1007 C 0.22431 0.85932 0.57414 0.0
C1008 C 0.19287 0.84365 0.54044 0.0
C1009 C 0.24752 0.88857 0.48043 0.0
C1010 C 0.23961 0.89726 0.46072 0.0
C1011 C 0.23194 0.87148 0.49774 0.0
C1012 C 0.20829 0.86301 0.49558 0.0
C1013 C 0.21606 0.88875 0.45851 0.0
C1014 C 0.20054 0.87171 0.4757 0.0
C1015 C 0.19121 0.84398 0.51245 0.0
H1016 H 0.11315 0.73074 0.48238 0.0
H1017 H 0.14043 0.76066 0.51391 0.0
H1018 H 0.10409 0.78219 0.44392 0.0
H1019 H 0.13126 0.81202 0.47516 0.0
H1020 H 0.08086 0.75884 0.56556 0.0
H1021 H 0.11064 0.78687 0.53626 0.0
H1022 H 0.13252 0.76193 0.61735 0.0
H1023 H 0.16258 0.78866 0.58673 0.0
H1024 H 0.23475 0.92142 0.56678 0.0
H1025 H 0.20471 0.88909 0.54024 0.0
H1026 H 0.25174 0.87451 0.60275 0.0
H1027 H 0.22145 0.84203 0.57642 0.0
H1028 H 0.26567 0.89488 0.48223 0.0
H1029 H 0.2383 0.86459 0.5124 0.0
H1030 H 0.20971 0.89525 0.44334 0.0
H1031 H 0.18239 0.8653 0.47348 0.0
N1032 N 0.1729 0.82585 0.5001 0.0
N1033 N 0.17601 0.82524 0.55384 0.0
C1034 C 0.24886 0.35678 0.49015 0.0
C1035 C 0.24408 0.34893 0.46348 0.0
C1036 C 0.23152 0.35533 0.50683 0.0
C1037 C 0.20865 0.3445 0.49775 0.0
C1038 C 0.22148 0.33879 0.45417 0.0
C1039 C 0.20399 0.33626 0.47115 0.0
C1040 C 0.18963 0.34322 0.51432 0.0
C1041 C 0.22039 0.31452 0.57033 0.0
C1042 C 0.23242 0.3299 0.59159 0.0
C1043 C 0.20617 0.3184 0.55407 0.0
C1044 C 0.20363 0.33761 0.55899 0.0
C1045 C 0.22972 0.349 0.59661 0.0
C1046 C 0.21522 0.35266 0.58062 0.0
C1047 C 0.18808 0.34145 0.54249 0.0
C1048 C 0.09317 0.31969 0.56778 0.0
C1049 C 0.09709 0.33628 0.58779 0.0
C1050 C 0.11144 0.32166 0.55263 0.0
C1051 C 0.13388 0.34021 0.55734 0.0
C1052 C 0.11954 0.35475 0.5926 0.0
C1053 C 0.13785 0.35656 0.57765 0.0
C1054 C 0.15335 0.3422 0.54177 0.0
C1055 C 0.1103 0.35601 0.48573 0.0
C1056 C 0.10234 0.34085 0.46348 0.0
C1057 C 0.1273 0.357 0.5022 0.0
C1058 C 0.13632 0.34261 0.49678 0.0
C1059 C 0.11163 0.32687 0.45778 0.0
C1060 C 0.12849 0.32778 0.47422 0.0
C1061 C 0.15438 0.34316 0.51368 0.0
H1062 H 0.2662 0.36477 0.49778 0.0
H1063 H 0.23635 0.36331 0.52645 0.0
H1064 H 0.21733 0.3327 0.43365 0.0
H1065 H 0.18674 0.32805 0.46321 0.0
H1066 H 0.22214 0.29961 0.56626 0.0
H1067 H 0.19702 0.30633 0.53778 0.0
H1068 H 0.23881 0.36101 0.61296 0.0
H1069 H 0.21328 0.36742 0.58492 0.0
H1070 H 0.07596 0.30527 0.56391 0.0
H1071 H 0.10809 0.30863 0.53736 0.0
H1072 H 0.12286 0.36767 0.608 0.0
H1073 H 0.15508 0.37087 0.58171 0.0
H1074 H 0.10342 0.36707 0.49025 0.0
H1075 H 0.1335 0.36913 0.51896 0.0
H1076 H 0.10574 0.31515 0.44062 0.0
H1077 H 0.13527 0.31666 0.46945 0.0
N1078 N 0.17251 0.34376 0.50123 0.0
N1079 N 0.17022 0.3414 0.55507 0.0
C1080 C 0.96918 0.37041 0.08348 0.0
C1081 C 0.9881 0.37686 0.06608 0.0
C1082 C 0.01138 0.41099 0.0947 0.0
C1083 C 0.99136 0.40711 0.10837 0.0
N1084 N 0.94985 0.38481 0.11123 0.0
N1085 N 0.02612 0.40723 0.05225 0.0
C1086 C 0.96982 0.38722 0.10164 0.0
C1087 C 0.00904 0.39817 0.07093 0.0
N1088 N 0.95091 0.34814 0.08341 0.0
N1089 N 0.03262 0.42684 0.1044 0.0
H1090 H 0.02449 0.39998 0.03323 0.0
H1091 H 0.04081 0.42364 0.05443 0.0
H1092 H 0.03497 0.43597 0.12235 0.0
H1093 H 0.04767 0.42885 0.09617 0.0
H1094 H 0.93762 0.34239 0.0973 0.0
H1095 H 0.95046 0.33483 0.07184 0.0
H1096 H 0.93376 0.37153 0.10475 0.0
H1097 H 0.94924 0.39731 0.12326 0.0
C1098 C 0.61385 0.62354 0.09517 0.0
C1099 C 0.60952 0.61589 0.06813 0.0
C1100 C 0.5853 0.57563 0.08214 0.0
C1101 C 0.58675 0.58366 0.10886 0.0
N1102 N 0.60155 0.61506 0.14131 0.0
N1103 N 0.5902 0.58519 0.03526 0.0
C1104 C 0.60107 0.60755 0.11562 0.0
C1105 C 0.59519 0.59202 0.06142 0.0
N1106 N 0.63015 0.64608 0.10118 0.0
N1107 N 0.57457 0.55231 0.07672 0.0
H1108 H 0.59738 0.59676 0.0196 0.0
H1109 H 0.57781 0.56844 0.02912 0.0
H1110 H 0.56719 0.53987 0.09155 0.0
H1111 H 0.57478 0.54535 0.05803 0.0
H1112 H 0.63572 0.65229 0.1205 0.0
H1113 H 0.63953 0.65825 0.08657 0.0
H1114 H 0.60949 0.6325 0.14702 0.0
H1115 H 0.59279 0.60378 0.15688 0.0
C1116 C 0.37657 0.98693 0.09853 0.0
C1117 C 0.38388 0.99501 0.07229 0.0
C1118 C 0.42405 0.01404 0.08646 0.0
C1119 C 0.41669 0.0028 0.11133 0.0
N1120 N 0.38619 0.9781 0.14138 0.0
N1121 N 0.41432 0.01581 0.0405 0.0
C1122 C 0.39299 0.98937 0.11763 0.0
C1123 C 0.40758 0.0088 0.06611 0.0
N1124 N 0.35392 0.9772 0.10515 0.0
N1125 N 0.44682 0.02979 0.08245 0.0
H1126 H 0.40277 0.01286 0.02526 0.0
H1127 H 0.43121 0.02337 0.03392 0.0
H1128 H 0.45925 0.03385 0.09699 0.0
H1129 H 0.45315 0.04025 0.06578 0.0
H1130 H 0.34767 0.97284 0.12452 0.0
H1131 H 0.34159 0.97545 0.09158 0.0
H1132 H 0.36922 0.96582 0.14589 0.0
H1133 H 0.39773 0.98002 0.15617 0.0
C1134 C 0.37759 0.99204 0.92558 0.0
C1135 C 0.37868 0.98373 0.95097 0.0
C1136 C 0.41085 0.97969 0.9359 0.0
C1137 C 0.41106 0.9898 0.91131 0.0
N1138 N 0.397 0.00873 0.88377 0.0
N1139 N 0.39971 0.97493 0.98235 0.0
C1140 C 0.39508 0.99688 0.9064 0.0
C1141 C 0.39626 0.97902 0.95671 0.0
N1142 N 0.35944 0.99451 0.91949 0.0
N1143 N 0.42415 0.97012 0.93917 0.0
H1144 H 0.38981 0.97486 0.99843 0.0
H1145 H 0.41385 0.97398 0.98813 0.0
H1146 H 0.43506 0.97013 0.92436 0.0
H1147 H 0.42278 0.96026 0.9556 0.0
H1148 H 0.35639 0.99822 0.90047 0.0
H1149 H 0.34639 0.99116 0.93307 0.0
H1150 H 0.38749 0.01657 0.88037 0.0
H1151 H 0.40939 0.01224 0.86918 0.0
C1152 C 0.9838 0.39086 0.93786 0.0
C1153 C 1.00011 0.38434 0.94362 0.0
C1154 C 0.02851 0.41749 0.9174 0.0
C1155 C 0.01101 0.42139 0.90855 0.0
N1156 N 0.97017 0.40542 0.90378 0.0
N1157 N 0.03693 0.38877 0.93272 0.0
C1158 C 0.98805 0.40597 0.91658 0.0
C1159 C 0.02222 0.39685 0.9316 0.0
N1160 N 0.96497 0.38416 0.95367 0.0
N1161 N 0.05108 0.43375 0.91342 0.0
H1162 H 0.03252 0.37303 0.94135 0.0
H1163 H 0.05244 0.3964 0.92235 0.0
H1164 H 0.05645 0.44955 0.90433 0.0
H1165 H 0.06439 0.4325 0.92166 0.0
H1166 H 0.95366 0.39003 0.95078 0.0
H1167 H 0.9625 0.37576 0.97172 0.0
H1168 H 0.95309 0.39318 0.90811 0.0
H1169 H 0.9724 0.41517 0.88689 0.0
C1170 C 0.60193 0.60104 0.94464 0.0
C1171 C 0.61101 0.62534 0.94315 0.0
C1172 C 0.59488 0.62005 0.89819 0.0
C1173 C 0.58268 0.59571 0.90179 0.0
N1174 N 0.57372 0.56253 0.92823 0.0
N1175 N 0.61803 0.65858 0.91815 0.0
C1176 C 0.58625 0.58604 0.92477 0.0
C1177 C 0.60821 0.63504 0.91964 0.0
N1178 N 0.60819 0.59226 0.965 0.0
N1179 N 0.59375 0.62867 0.87418 0.0
H1180 H 0.62941 0.67008 0.93256 0.0
H1181 H 0.61454 0.66678 0.90317 0.0
H1182 H 0.58398 0.61801 0.85824 0.0
H1183 H 0.60368 0.64609 0.86922 0.0
H1184 H 0.60401 0.57504 0.96563 0.0
H1185 H 0.61937 0.60249 0.98018 0.0
H1186 H 0.57315 0.55458 0.94604 0.0
H1187 H 0.56262 0.55087 0.91376 0.0
C1188 C 0.00753 0.62591 0.92487 0.0
C1189 C 0.01541 0.62407 0.95026 0.0
C1190 C 0.02132 0.59322 0.93309 0.0
C1191 C 0.01157 0.59356 0.90839 0.0
N1192 N 0.99242 0.60776 0.88154 0.0
N1193 N 0.02438 0.60223 0.98029 0.0
C1194 C 0.00379 0.60922 0.90446 0.0
C1195 C 0.02075 0.60664 0.95487 0.0
N1196 N 0.00443 0.64403 0.92001 0.0
N1197 N 0.03182 0.58064 0.93553 0.0
H1198 H 0.02358 0.61126 0.99704 0.0
H1199 H 0.02582 0.58803 0.98505 0.0
H1200 H 0.03295 0.57076 0.91993 0.0
H1201 H 0.04137 0.58182 0.95222 0.0
H1202 H 0.00095 0.64769 0.90118 0.0
H1203 H 0.00699 0.6565 0.93454 0.0
H1204 H 0.98421 0.61701 0.87864 0.0
H1205 H 0.98973 0.59596 0.8661 0.0
C1206 C 0.38431 0.38004 0.91393 0.0
C1207 C 0.38744 0.38468 0.94178 0.0
C1208 C 0.41619 0.42539 0.9333 0.0
C1209 C 0.41161 0.42118 0.90552 0.0
N1210 N 0.38752 0.3958 0.86999 0.0
N1211 N 0.40311 0.41265 0.97826 0.0
C1212 C 0.39444 0.39887 0.89601 0.0
C1213 C 0.40218 0.40769 0.95154 0.0
N1214 N 0.37233 0.35765 0.90453 0.0
N1215 N 0.43487 0.44566 0.94224 0.0
H1216 H 0.3938 0.4001 0.99249 0.0
H1217 H 0.41165 0.42953 0.9861 0.0
H1218 H 0.4462 0.4588 0.92961 0.0
H1219 H 0.44047 0.44852 0.96196 0.0
H1220 H 0.37144 0.35313 0.88438 0.0
H1221 H 0.365 0.34349 0.91712 0.0
H1222 H 0.37362 0.38042 0.86254 0.0
H1223 H 0.39424 0.40936 0.85648 0.0
C1224 C 0.62206 0.00753 0.92097 0.0
C1225 C 0.6148 0.99738 0.94634 0.0
C1226 C 0.57482 0.97632 0.93121 0.0
C1227 C 0.58183 0.98999 0.90798 0.0
N1228 N 0.61182 0.01796 0.8796 0.0
N1229 N 0.58489 0.9704 0.97546 0.0
C1230 C 0.60543 0.00513 0.90228 0.0
C1231 C 0.59136 0.98085 0.95124 0.0
N1232 N 0.64491 0.01918 0.91485 0.0
N1233 N 0.55235 0.95917 0.93402 0.0
H1234 H 0.59672 0.97223 0.98978 0.0
H1235 H 0.56793 0.96046 0.98178 0.0
H1236 H 0.53993 0.95571 0.91969 0.0
H1237 H 0.54625 0.94724 0.94935 0.0
H1238 H 0.65145 0.02562 0.89605 0.0
H1239 H 0.65719 0.02028 0.92805 0.0
H1240 H 0.62851 0.03134 0.87578 0.0
H1241 H 0.60012 0.01594 0.86496 0.0
C1242 C 0.62482 0.01144 0.09741 0.0
C1243 C 0.61752 0.00736 0.07044 0.0
C1244 C 0.578 0.99334 0.08466 0.0
C1245 C 0.58587 0.00068 0.11114 0.0
N1246 N 0.61672 0.01767 0.14314 0.0
N1247 N 0.58779 0.99652 0.03772 0.0
C1248 C 0.60925 0.00975 0.11775 0.0
C1249 C 0.59422 0.99864 0.06387 0.0
N1250 N 0.64656 0.01679 0.10349 0.0
N1251 N 0.55497 0.98113 0.07949 0.0
H1252 H 0.59923 0.00034 0.02193 0.0
H1253 H 0.57162 0.99274 0.03167 0.0
H1254 H 0.54263 0.97697 0.09434 0.0
H1255 H 0.54802 0.97329 0.06108 0.0
H1256 H 0.65233 0.01783 0.12289 0.0
H1257 H 0.65835 0.01835 0.08892 0.0
H1258 H 0.63395 0.02689 0.14858 0.0
H1259 H 0.60568 0.01619 0.15862 0.0
C1260 C 0.98865 0.59043 0.06428 0.0
C1261 C 0.00205 0.61427 0.07168 0.0
C1262 C 0.00561 0.60417 0.1173 0.0
C1263 C 0.99255 0.58033 0.10979 0.0
N1264 N 0.96723 0.5504 0.07869 0.0
N1265 N 0.01834 0.64399 0.10604 0.0
C1266 C 0.98258 0.57336 0.08405 0.0
C1267 C 0.00894 0.62118 0.09853 0.0
N1268 N 0.98273 0.58415 0.03814 0.0
N1269 N 0.01562 0.61054 0.14195 0.0
H1270 H 0.02074 0.65678 0.09272 0.0
H1271 H 0.02182 0.64994 0.12576 0.0
H1272 H 0.01293 0.59855 0.15653 0.0
H1273 H 0.02758 0.6276 0.14753 0.0
H1274 H 0.97546 0.56719 0.03082 0.0
H1275 H 0.98628 0.59617 0.02327 0.0
H1276 H 0.95767 0.54431 0.06119 0.0
H1277 H 0.96259 0.53752 0.09279 0.0
C1278 C 0.38729 0.37657 0.08833 0.0
C1279 C 0.39758 0.37867 0.06291 0.0
C1280 C 0.43448 0.40982 0.08036 0.0
C1281 C 0.42373 0.40918 0.105 0.0
N1282 N 0.38951 0.39431 0.13178 0.0
N1283 N 0.4297 0.40015 0.0332 0.0
C1284 C 0.39999 0.39321 0.10882 0.0
C1285 C 0.42086 0.39604 0.0585 0.0
N1286 N 0.36575 0.35819 0.09318 0.0
N1287 N 0.45783 0.42322 0.07802 0.0
H1288 H 0.42029 0.39068 0.01648 0.0
H1289 H 0.4457 0.41434 0.02838 0.0
H1290 H 0.46845 0.43376 0.09352 0.0
H1291 H 0.46685 0.42237 0.06154 0.0
H1292 H 0.35822 0.35436 0.11203 0.0
H1293 H 0.35604 0.34549 0.07879 0.0
H1294 H 0.3718 0.38493 0.13456 0.0
H1295 H 0.39841 0.40596 0.14741 0.0
C1296 C 0.67138 0.7369 0.40178 0.0
C1297 C 0.65698 0.71247 0.40425 0.0
C1298 C 0.64596 0.71791 0.44945 0.0
C1299 C 0.65782 0.7422 0.4454 0.0
N1300 N 0.68064 0.77516 0.41749 0.0
N1301 N 0.63075 0.67925 0.4301 0.0
C1302 C 0.67045 0.75183 0.42163 0.0
C1303 C 0.64441 0.70283 0.4281 0.0
N1304 N 0.68593 0.74588 0.38048 0.0
N1305 N 0.63653 0.70939 0.47387 0.0
H1306 H 0.63054 0.66769 0.4157 0.0
H1307 H 0.61898 0.67107 0.44541 0.0
H1308 H 0.63726 0.72003 0.48977 0.0
H1309 H 0.62951 0.69213 0.47913 0.0
H1310 H 0.69862 0.76333 0.37906 0.0
H1311 H 0.6867 0.73571 0.36502 0.0
H1312 H 0.68755 0.7829 0.39928 0.0
H1313 H 0.68087 0.78679 0.4318 0.0
C1314 C 0.28147 0.95604 0.43096 0.0
C1315 C 0.27932 0.94963 0.40354 0.0
C1316 C 0.2567 0.90852 0.41506 0.0
C1317 C 0.25571 0.91515 0.44189 0.0
N1318 N 0.26619 0.94505 0.47569 0.0
N1319 N 0.26471 0.92016 0.36881 0.0
C1320 C 0.2681 0.93887 0.45005 0.0
C1321 C 0.26715 0.92593 0.39538 0.0
N1322 N 0.29654 0.97853 0.43866 0.0
N1323 N 0.24777 0.88559 0.40855 0.0
H1324 H 0.27264 0.93247 0.35395 0.0
H1325 H 0.25382 0.9034 0.36136 0.0
H1326 H 0.24003 0.87248 0.42259 0.0
H1327 H 0.24976 0.8797 0.38992 0.0
H1328 H 0.30053 0.98397 0.45849 0.0
H1329 H 0.30676 0.99139 0.42508 0.0
H1330 H 0.27256 0.96215 0.48206 0.0
H1331 H 0.25691 0.93296 0.49039 0.0
C1332 C 0.04363 0.32163 0.43399 0.0
C1333 C 0.05007 0.32994 0.40758 0.0
C1334 C 0.09066 0.35041 0.42073 0.0
C1335 C 0.08427 0.33935 0.44573 0.0
N1336 N 0.05492 0.31334 0.4761 0.0
N1337 N 0.08006 0.34974 0.37471 0.0
C1338 C 0.0608 0.32484 0.45248 0.0
C1339 C 0.07368 0.34396 0.4007 0.0
N1340 N 0.02112 0.31098 0.44152 0.0
N1341 N 0.11302 0.36713 0.41619 0.0
H1342 H 0.06842 0.34502 0.35911 0.0
H1343 H 0.09697 0.35747 0.36813 0.0
H1344 H 0.12589 0.37209 0.4304 0.0
H1345 H 0.1184 0.37757 0.39944 0.0
H1346 H 0.01557 0.30682 0.46115 0.0
H1347 H 0.00807 0.30802 0.42844 0.0
H1348 H 0.03828 0.3003 0.48081 0.0
H1349 H 0.06697 0.31578 0.49048 0.0
C1350 C 0.06338 0.31045 0.29182 0.0
C1351 C 0.04541 0.31437 0.28542 0.0
C1352 C 0.05996 0.32409 0.23969 0.0
C1353 C 0.07704 0.31874 0.24567 0.0
N1354 N 0.09177 0.30175 0.27538 0.0
N1355 N 0.02341 0.31976 0.25215 0.0
C1356 C 0.07775 0.31037 0.27115 0.0
C1357 C 0.04276 0.31971 0.259 0.0
N1358 N 0.06729 0.3077 0.3178 0.0
N1359 N 0.06066 0.33412 0.21601 0.0
H1360 H 0.01035 0.31627 0.26577 0.0
H1361 H 0.01941 0.32126 0.23259 0.0
H1362 H 0.07292 0.33748 0.20132 0.0
H1363 H 0.0502 0.34075 0.21179 0.0
H1364 H 0.08177 0.30754 0.32397 0.0
H1365 H 0.05712 0.30754 0.33362 0.0
H1366 H 0.09128 0.29322 0.29268 0.0
H1367 H 0.10235 0.30111 0.26059 0.0
C1368 C 0.6696 0.74193 0.29322 0.0
C1369 C 0.67084 0.72248 0.2841 0.0
C1370 C 0.6793 0.73774 0.2389 0.0
C1371 C 0.67834 0.75739 0.24804 0.0
N1372 N 0.68003 0.78161 0.28523 0.0
N1373 N 0.68505 0.70644 0.25121 0.0
C1374 C 0.6759 0.76059 0.2757 0.0
C1375 C 0.67838 0.72186 0.25785 0.0
N1376 N 0.66184 0.74235 0.31839 0.0
N1377 N 0.67981 0.7335 0.2122 0.0
H1378 H 0.68627 0.69608 0.26545 0.0
H1379 H 0.69219 0.70622 0.23278 0.0
H1380 H 0.6799 0.74434 0.19759 0.0
H1381 H 0.67813 0.71816 0.20455 0.0
H1382 H 0.65803 0.75478 0.32501 0.0
H1383 H 0.65785 0.72941 0.33219 0.0
H1384 H 0.68056 0.78563 0.3055 0.0
H1385 H 0.68532 0.79586 0.27297 0.0
C1386 C 0.27249 0.94512 0.27338 0.0
C1387 C 0.27528 0.967 0.28074 0.0
C1388 C 0.24578 0.96059 0.24849 0.0
C1389 C 0.24386 0.93936 0.24012 0.0
N1390 N 0.26178 0.91635 0.23793 0.0
N1391 N 0.27126 0.99894 0.26688 0.0
C1392 C 0.25945 0.93333 0.25029 0.0
C1393 C 0.26417 0.97589 0.26542 0.0
N1394 N 0.28061 0.93457 0.28908 0.0
N1395 N 0.22941 0.96563 0.24203 0.0
H1396 H 0.2856 0.01093 0.27792 0.0
H1397 H 0.26464 0.0064 0.25458 0.0
H1398 H 0.21465 0.95428 0.23129 0.0
H1399 H 0.22933 0.98008 0.24992 0.0
H1400 H 0.27673 0.91759 0.2855 0.0
H1401 H 0.2891 0.94151 0.30706 0.0
H1402 H 0.27427 0.91264 0.24339 0.0
H1403 H 0.253 0.90792 0.22042 0.0
C1404 C 0.67303 0.95844 0.2688 0.0
C1405 C 0.68177 0.95756 0.29405 0.0
C1406 C 0.69016 0.92841 0.27658 0.0
C1407 C 0.67938 0.92762 0.25223 0.0
N1408 N 0.6579 0.93942 0.22588 0.0
N1409 N 0.69427 0.9383 0.32362 0.0
C1410 C 0.67005 0.94196 0.24851 0.0
C1411 C 0.68922 0.94166 0.29839 0.0
N1412 N 0.6684 0.97554 0.26389 0.0
N1413 N 0.70168 0.91682 0.27871 0.0
H1414 H 0.69337 0.94724 0.3404 0.0
H1415 H 0.69719 0.92504 0.32836 0.0
H1416 H 0.70264 0.90673 0.26322 0.0
H1417 H 0.71202 0.91888 0.29495 0.0
H1418 H 0.66416 0.97851 0.24512 0.0
H1419 H 0.67066 0.98809 0.27813 0.0
H1420 H 0.64846 0.94745 0.22329 0.0
H1421 H 0.65588 0.92791 0.21036 0.0
C1422 C 0.0405 0.72597 0.26511 0.0
C1423 C 0.0531 0.7161 0.27493 0.0
C1424 C 0.08495 0.74168 0.24575 0.0
C1425 C 0.07438 0.75463 0.24034 0.0
N1426 N 0.04303 0.76099 0.24936 0.0
N1427 N 0.09076 0.72073 0.27983 0.0
C1428 C 0.05233 0.74729 0.25117 0.0
C1429 C 0.07627 0.72553 0.26663 0.0
N1430 N 0.01724 0.71479 0.26819 0.0
N1431 N 0.10322 0.74467 0.23094 0.0
H1432 H 0.08639 0.71147 0.29747 0.0
H1433 H 0.1082 0.72881 0.27531 0.0
H1434 H 0.10942 0.75556 0.21454 0.0
H1435 H 0.11032 0.73427 0.23312 0.0
H1436 H 0.00725 0.72048 0.25941 0.0
H1437 H 0.00768 0.69848 0.27672 0.0
H1438 H 0.02796 0.75729 0.2592 0.0
H1439 H 0.05148 0.77715 0.24035 0.0
C1440 C 0.28455 0.36231 0.277 0.0
C1441 C 0.29058 0.34543 0.2823 0.0
C1442 C 0.25914 0.31799 0.25278 0.0
C1443 C 0.25576 0.33617 0.24476 0.0
N1444 N 0.27142 0.37761 0.24322 0.0
N1445 N 0.28632 0.30839 0.2699 0.0
C1446 C 0.27054 0.35899 0.25484 0.0
C1447 C 0.27868 0.32355 0.26864 0.0
N1448 N 0.2907 0.38075 0.29404 0.0
N1449 N 0.24337 0.29541 0.24638 0.0
H1450 H 0.30111 0.31215 0.28016 0.0
H1451 H 0.27934 0.29316 0.25835 0.0
H1452 H 0.22845 0.29054 0.2357 0.0
H1453 H 0.24404 0.28147 0.25396 0.0
H1454 H 0.28511 0.39241 0.29154 0.0
H1455 H 0.29842 0.38252 0.31248 0.0
H1456 H 0.28327 0.3947 0.24901 0.0
H1457 H 0.26231 0.37607 0.22593 0.0
C1458 C 0.27295 0.33439 0.40774 0.0
C1459 C 0.29413 0.35572 0.40469 0.0
C1460 C 0.28221 0.37327 0.43979 0.0
C1461 C 0.26245 0.35125 0.4449 0.0
N1462 N 0.24346 0.3096 0.43888 0.0
N1463 N 0.32145 0.39319 0.42422 0.0
C1464 C 0.25931 0.33138 0.4306 0.0
C1465 C 0.29959 0.3745 0.42269 0.0
N1466 N 0.26485 0.31757 0.38814 0.0
N1467 N 0.28403 0.39317 0.44994 0.0
H1468 H 0.33507 0.39407 0.41345 0.0
H1469 H 0.32648 0.40637 0.43861 0.0
H1470 H 0.27117 0.39334 0.46126 0.0
H1471 H 0.29725 0.40966 0.44461 0.0
H1472 H 0.24858 0.30265 0.38895 0.0
H1473 H 0.27279 0.31973 0.36966 0.0
H1474 H 0.24194 0.29463 0.4302 0.0
H1475 H 0.23377 0.30669 0.45622 0.0
C1476 C 0.65801 0.92635 0.40429 0.0
C1477 C 0.66428 0.94868 0.41463 0.0
C1478 C 0.65816 0.93382 0.46012 0.0
C1479 C 0.65533 0.91261 0.44991 0.0
N1480 N 0.65657 0.89026 0.41217 0.0
N1481 N 0.67304 0.97464 0.45247 0.0
C1482 C 0.65609 0.90916 0.42193 0.0
C1483 C 0.66506 0.95269 0.4426 0.0
N1484 N 0.65418 0.92161 0.37756 0.0
N1485 N 0.65381 0.93574 0.48644 0.0
H1486 H 0.67796 0.98874 0.44017 0.0
H1487 H 0.6764 0.97914 0.47262 0.0
H1488 H 0.64829 0.92211 0.4997 0.0
H1489 H 0.65352 0.95 0.49452 0.0
H1490 H 0.64729 0.90497 0.36931 0.0
H1491 H 0.65591 0.93385 0.36385 0.0
H1492 H 0.65973 0.88824 0.39221 0.0
H1493 H 0.65609 0.87763 0.4243 0.0
C1494 C 0.05656 0.70348 0.42402 0.0
C1495 C 0.06528 0.70775 0.39757 0.0
C1496 C 0.10215 0.73979 0.41383 0.0
C1497 C 0.09259 0.73731 0.43971 0.0
N1498 N 0.05991 0.71877 0.46912 0.0
N1499 N 0.09485 0.7326 0.36647 0.0
C1500 C 0.06956 0.71965 0.44478 0.0
C1501 C 0.0877 0.72659 0.39223 0.0
N1502 N 0.03629 0.68359 0.42944 0.0
N1503 N 0.12519 0.75442 0.41 0.0
H1504 H 0.08462 0.72377 0.34996 0.0
H1505 H 0.11005 0.74771 0.36146 0.0
H1506 H 0.13642 0.7643 0.4254 0.0
H1507 H 0.13349 0.75509 0.39215 0.0
H1508 H 0.03015 0.67836 0.4487 0.0
H1509 H 0.02645 0.67128 0.41474 0.0
H1510 H 0.04249 0.70795 0.47307 0.0
H1511 H 0.06902 0.73014 0.48488 0.0
C1512 C 0.31394 0.03784 0.75788 0.0
C1513 C 0.32654 0.04742 0.73403 0.0
C1514 C 0.34129 0.08684 0.75203 0.0
C1515 C 0.32858 0.07725 0.77576 0.0
N1516 N 0.30655 0.04436 0.80387 0.0
N1517 N 0.35612 0.08063 0.71051 0.0
C1518 C 0.31606 0.05292 0.77949 0.0
C1519 C 0.34158 0.0718 0.73185 0.0
N1520 N 0.29973 0.0143 0.75966 0.0
N1521 N 0.35219 0.11028 0.74826 0.0
H1522 H 0.35641 0.07044 0.69476 0.0
H1523 H 0.36924 0.09794 0.70931 0.0
H1524 H 0.35296 0.12197 0.76286 0.0
H1525 H 0.35921 0.11811 0.73012 0.0
H1526 H 0.28791 0.00626 0.77498 0.0
H1527 H 0.29911 0.00265 0.74512 0.0
H1528 H 0.29902 0.02699 0.8089 0.0
H1529 H 0.30771 0.05502 0.81998 0.0
C1530 C 0.92487 0.25202 0.72531 0.0
C1531 C 0.94268 0.27461 0.73271 0.0
C1532 C 0.94124 0.26186 0.77847 0.0
C1533 C 0.92096 0.24051 0.77196 0.0
N1534 N 0.89145 0.21648 0.7398 0.0
N1535 N 0.96744 0.30194 0.76647 0.0
C1536 C 0.91228 0.23579 0.74548 0.0
C1537 C 0.95093 0.27977 0.75932 0.0
N1538 N 0.92038 0.24596 0.69893 0.0
N1539 N 0.95144 0.26478 0.80273 0.0
H1540 H 0.97544 0.31531 0.75279 0.0
H1541 H 0.97221 0.30741 0.78617 0.0
H1542 H 0.94491 0.25188 0.81708 0.0
H1543 H 0.9674 0.27908 0.80772 0.0
H1544 H 0.90886 0.2291 0.6922 0.0
H1545 H 0.93021 0.25726 0.68381 0.0
H1546 H 0.8833 0.21357 0.72145 0.0
H1547 H 0.88127 0.20436 0.75407 0.0
C1548 C 0.72417 0.67786 0.76111 0.0
C1549 C 0.72188 0.66417 0.73801 0.0
C1550 C 0.75273 0.65873 0.75385 0.0
C1551 C 0.75501 0.67228 0.77697 0.0
N1552 N 0.74623 0.69819 0.80087 0.0
N1553 N 0.73843 0.64775 0.70868 0.0
C1554 C 0.74174 0.68295 0.78005 0.0
C1555 C 0.73752 0.65646 0.7333 0.0
N1556 N 0.70915 0.68536 0.76535 0.0
N1557 N 0.76458 0.64738 0.75187 0.0
H1558 H 0.72797 0.64638 0.69284 0.0
H1559 H 0.75107 0.64416 0.70306 0.0
H1560 H 0.77641 0.64905 0.76611 0.0
H1561 H 0.76148 0.63496 0.7371 0.0
H1562 H 0.70783 0.6927 0.78327 0.0
H1563 H 0.6973 0.68355 0.75111 0.0
H1564 H 0.7389 0.70843 0.80295 0.0
H1565 H 0.75862 0.70184 0.81531 0.0
C1566 C 0.73867 0.66747 0.62218 0.0
C1567 C 0.71469 0.65382 0.6173 0.0
C1568 C 0.72192 0.64627 0.57114 0.0
C1569 C 0.7457 0.65778 0.57696 0.0
N1570 N 0.77711 0.67842 0.60781 0.0
N1571 N 0.68299 0.62993 0.58786 0.0
C1572 C 0.75421 0.66834 0.60236 0.0
C1573 C 0.70617 0.64321 0.5919 0.0
N1574 N 0.7466 0.67956 0.64579 0.0
N1575 N 0.71454 0.63857 0.54564 0.0
H1576 H 0.67103 0.62852 0.60206 0.0
H1577 H 0.67547 0.61949 0.571 0.0
H1578 H 0.72565 0.64022 0.53016 0.0
H1579 H 0.69778 0.632 0.53924 0.0
H1580 H 0.76375 0.69193 0.64941 0.0
H1581 H 0.73591 0.67847 0.66146 0.0
H1582 H 0.78413 0.68376 0.62681 0.0
H1583 H 0.7892 0.68033 0.5935 0.0
C1584 C 0.34651 0.05661 0.58782 0.0
C1585 C 0.33914 0.0569 0.61426 0.0
C1586 C 0.3458 0.09588 0.60757 0.0
C1587 C 0.34816 0.09325 0.57978 0.0
N1588 N 0.34869 0.06982 0.54278 0.0
N1589 N 0.33116 0.07671 0.64967 0.0
C1590 C 0.34823 0.07338 0.56966 0.0
C1591 C 0.33879 0.07662 0.62433 0.0
N1592 N 0.35223 0.04065 0.58026 0.0
N1593 N 0.35064 0.11691 0.61794 0.0
H1594 H 0.32661 0.06328 0.66294 0.0
H1595 H 0.32799 0.08942 0.65696 0.0
H1596 H 0.35637 0.13153 0.6062 0.0
H1597 H 0.35127 0.12046 0.63835 0.0
H1598 H 0.35925 0.0406 0.56168 0.0
H1599 H 0.3528 0.0295 0.5939 0.0
H1600 H 0.34633 0.05441 0.53441 0.0
H1601 H 0.34945 0.08139 0.52872 0.0
C1602 C 0.9163 0.27303 0.61711 0.0
C1603 C 0.93862 0.29251 0.61292 0.0
C1604 C 0.93666 0.2817 0.56562 0.0
C1605 C 0.9139 0.26302 0.56958 0.0
N1606 N 0.88011 0.24416 0.59743 0.0
N1607 N 0.96763 0.31872 0.58243 0.0
C1608 C 0.90315 0.25961 0.59487 0.0
C1609 C 0.9482 0.2978 0.58694 0.0
N1610 N 0.90783 0.26698 0.64242 0.0
N1611 N 0.94737 0.28375 0.54173 0.0
H1612 H 0.97589 0.33122 0.59752 0.0
H1613 H 0.97429 0.32453 0.56347 0.0
H1614 H 0.93927 0.27239 0.5256 0.0
H1615 H 0.96474 0.29557 0.53859 0.0
H1616 H 0.89302 0.2513 0.64686 0.0
H1617 H 0.91645 0.27675 0.65934 0.0
H1618 H 0.87085 0.24285 0.61467 0.0
H1619 H 0.86968 0.23411 0.58156 0.0
C1620 C 0.34295 0.29365 0.60087 0.0
C1621 C 0.34541 0.28809 0.62725 0.0
C1622 C 0.34765 0.25493 0.61037 0.0
C1623 C 0.34233 0.25876 0.58439 0.0
N1624 N 0.33157 0.27974 0.55539 0.0
N1625 N 0.34652 0.26149 0.65788 0.0
C1626 C 0.33905 0.27759 0.57972 0.0
C1627 C 0.34672 0.26815 0.63224 0.0
N1628 N 0.34527 0.31466 0.59589 0.0
N1629 N 0.35456 0.23934 0.61402 0.0
H1630 H 0.34605 0.27084 0.67451 0.0
H1631 H 0.34482 0.24567 0.66261 0.0
H1632 H 0.35613 0.22973 0.59842 0.0
H1633 H 0.36093 0.23763 0.63206 0.0
H1634 H 0.34596 0.32066 0.57673 0.0
H1635 H 0.34842 0.32693 0.61093 0.0
H1636 H 0.3266 0.29171 0.55171 0.0
H1637 H 0.32845 0.26824 0.53945 0.0
C1638 C 0.73503 0.08378 0.61909 0.0
C1639 C 0.72016 0.06032 0.61115 0.0
C1640 C 0.72923 0.0702 0.56422 0.0
C1641 C 0.74517 0.09347 0.57214 0.0
N1642 N 0.75897 0.12393 0.6057 0.0
N1643 N 0.69663 0.03302 0.57698 0.0
C1644 C 0.74665 0.10077 0.59921 0.0
C1645 C 0.71517 0.05409 0.58389 0.0
N1646 N 0.73839 0.08958 0.64562 0.0
N1647 N 0.7283 0.06324 0.5382 0.0
H1648 H 0.68527 0.0218 0.59127 0.0
H1649 H 0.691 0.02795 0.55742 0.0
H1650 H 0.73813 0.0746 0.52313 0.0
H1651 H 0.7189 0.04593 0.53183 0.0
H1652 H 0.75113 0.10568 0.65306 0.0
H1653 H 0.72855 0.07783 0.66038 0.0
H1654 H 0.75929 0.13065 0.6247 0.0
H1655 H 0.7675 0.13673 0.59146 0.0
C1656 C 0.93239 0.65552 0.61773 0.0
C1657 C 0.95196 0.67819 0.62145 0.0
C1658 C 0.93663 0.69269 0.58821 0.0
C1659 C 0.91888 0.6697 0.58175 0.0
N1660 N 0.90419 0.6286 0.58595 0.0
N1661 N 0.976 0.71603 0.60197 0.0
C1662 C 0.91807 0.65086 0.59512 0.0
C1663 C 0.95513 0.69609 0.60415 0.0
N1664 N 0.92653 0.63873 0.63622 0.0
N1665 N 0.93549 0.71139 0.58036 0.0
H1666 H 0.99069 0.7183 0.61114 0.0
H1667 H 0.97921 0.72875 0.58815 0.0
H1668 H 0.92131 0.70983 0.57059 0.0
H1669 H 0.94743 0.72833 0.58655 0.0
H1670 H 0.91123 0.62271 0.63521 0.0
H1671 H 0.93536 0.64156 0.65404 0.0
H1672 H 0.90454 0.61455 0.5938 0.0
H1673 H 0.89433 0.62456 0.5687 0.0
C1674 C 0.96248 0.68369 0.77091 0.0
C1675 C 0.95538 0.6773 0.74404 0.0
C1676 C 0.9154 0.6622 0.75722 0.0
C1677 C 0.92297 0.67186 0.78313 0.0
N1678 N 0.95348 0.69232 0.8151 0.0
N1679 N 0.92544 0.66209 0.71075 0.0
C1680 C 0.94645 0.68253 0.79024 0.0
C1681 C 0.93187 0.66664 0.73698 0.0
N1682 N 0.98447 0.69052 0.7779 0.0
N1683 N 0.89242 0.64875 0.75205 0.0
H1684 H 0.93691 0.66505 0.69523 0.0
H1685 H 0.90904 0.65697 0.70407 0.0
H1686 H 0.8799 0.6454 0.76641 0.0
H1687 H 0.88576 0.63924 0.73439 0.0
H1688 H 0.99025 0.69335 0.79753 0.0
H1689 H 0.99649 0.69139 0.7641 0.0
H1690 H 0.97064 0.7027 0.82058 0.0
H1691 H 0.94209 0.69113 0.82998 0.0
C1692 C 0.33345 0.28686 0.77809 0.0
C1693 C 0.32646 0.28068 0.75098 0.0
C1694 C 0.30087 0.24046 0.7646 0.0
C1695 C 0.3128 0.24555 0.7891 0.0
N1696 N 0.32545 0.2745 0.82406 0.0
N1697 N 0.30328 0.25046 0.71838 0.0
C1698 C 0.32477 0.26917 0.79753 0.0
C1699 C 0.30986 0.25722 0.74423 0.0
N1700 N 0.34872 0.30939 0.78526 0.0
N1701 N 0.27913 0.22182 0.76245 0.0
H1702 H 0.30983 0.26177 0.70243 0.0
H1703 H 0.29274 0.23304 0.71273 0.0
H1704 H 0.27019 0.21241 0.77922 0.0
H1705 H 0.26898 0.21841 0.74556 0.0
H1706 H 0.35632 0.3143 0.80406 0.0
H1707 H 0.35487 0.32304 0.772 0.0
H1708 H 0.33201 0.29135 0.83154 0.0
H1709 H 0.31677 0.26155 0.83814 0.0
C1710 C 0.72287 0.04141 0.75939 0.0
C1711 C 0.7306 0.04921 0.73314 0.0
C1712 C 0.76335 0.08502 0.75118 0.0
C1713 C 0.75762 0.07567 0.77713 0.0
N1714 N 0.73285 0.04441 0.80627 0.0
N1715 N 0.7593 0.07737 0.70358 0.0
C1716 C 0.73745 0.0538 0.78143 0.0
C1717 C 0.75111 0.07078 0.72889 0.0
N1718 N 0.70171 0.02212 0.7632 0.0
N1719 N 0.78022 0.10772 0.74794 0.0
H1720 H 0.75065 0.06766 0.68662 0.0
H1721 H 0.77548 0.09157 0.69944 0.0
H1722 H 0.78935 0.11878 0.76391 0.0
H1723 H 0.78361 0.11622 0.72984 0.0
H1724 H 0.6941 0.01685 0.78187 0.0
H1725 H 0.69093 0.01231 0.74744 0.0
H1726 H 0.71986 0.02746 0.81015 0.0
H1727 H 0.74305 0.05308 0.82285 0.0
C1728 C 0.05536 0.32294 0.04841 0.0
C1729 C 0.05546 0.34398 0.04573 0.0
C1730 C 0.09023 0.36398 0.07321 0.0
C1731 C 0.08785 0.34229 0.07923 0.0
N1732 N 0.06427 0.30037 0.07723 0.0
N1733 N 0.07034 0.38361 0.06125 0.0
C1734 C 0.06928 0.32151 0.06818 0.0
C1735 C 0.0722 0.36433 0.05962 0.0
N1736 N 0.04276 0.30455 0.0314 0.0
N1737 N 0.10993 0.38426 0.07969 0.0
H1738 H 0.05668 0.38429 0.05315 0.0
H1739 H 0.08099 0.398 0.0733 0.0
H1740 H 0.12391 0.38478 0.08873 0.0
H1741 H 0.11326 0.40042 0.07348 0.0
H1742 H 0.04376 0.28959 0.03124 0.0
H1743 H 0.03355 0.30531 0.01537 0.0
H1744 H 0.04958 0.28488 0.07143 0.0
H1745 H 0.07331 0.29849 0.09264 0.0
C1746 C 0.69015 0.7322 0.0558 0.0
C1747 C 0.66739 0.71405 0.04953 0.0
C1748 C 0.65291 0.73728 0.07043 0.0
C1749 C 0.67491 0.75284 0.08115 0.0
N1750 N 0.7142 0.76297 0.08719 0.0
N1751 N 0.6268 0.69773 0.05715 0.0
C1752 C 0.69353 0.74976 0.07472 0.0
C1753 C 0.64865 0.71623 0.05832 0.0
N1754 N 0.70853 0.73348 0.04282 0.0
N1755 N 0.63606 0.74261 0.07163 0.0
H1756 H 0.62335 0.68138 0.05146 0.0
H1757 H 0.61279 0.69796 0.06543 0.0
H1758 H 0.63874 0.75826 0.07969 0.0
H1759 H 0.62032 0.73262 0.06198 0.0
H1760 H 0.72523 0.74748 0.04527 0.0
H1761 H 0.70686 0.72224 0.02718 0.0
H1762 H 0.72755 0.75972 0.08507 0.0
H1763 H 0.71727 0.77574 0.10152 0.0
C1764 C 0.27061 0.96469 0.05442 0.0
C1765 C 0.28746 0.95859 0.04907 0.0
C1766 C 0.26177 0.92061 0.06885 0.0
C1767 C 0.2473 0.92849 0.0786 0.0
N1768 N 0.24079 0.96042 0.08469 0.0
N1769 N 0.30066 0.93225 0.0582 0.0
C1770 C 0.25249 0.95124 0.07255 0.0
C1771 C 0.28342 0.93686 0.058 0.0
N1772 N 0.27106 0.9825 0.04127 0.0
N1773 N 0.25484 0.89761 0.06967 0.0
H1774 H 0.31737 0.94489 0.05382 0.0
H1775 H 0.299 0.91739 0.06654 0.0
H1776 H 0.23872 0.88499 0.07665 0.0
H1777 H 0.26412 0.89086 0.06067 0.0
H1778 H 0.25804 0.98627 0.04308 0.0
H1779 H 0.28265 0.99145 0.02601 0.0
H1780 H 0.24552 0.97774 0.08272 0.0
H1781 H 0.22793 0.9515 0.09879 0.0
C1782 C 0.32549 0.05447 0.97968 0.0
C1783 C 0.34005 0.04618 0.97141 0.0
C1784 C 0.35055 0.06965 0.93107 0.0
C1785 C 0.33688 0.07882 0.94001 0.0
N1786 N 0.31381 0.08271 0.9742 0.0
N1787 N 0.36887 0.04789 0.94155 0.0
C1788 C 0.32504 0.072 0.96474 0.0
C1789 C 0.35335 0.05442 0.94778 0.0
N1790 N 0.31175 0.04521 0.00159 0.0
N1791 N 0.36032 0.07505 0.90626 0.0
H1792 H 0.37105 0.03645 0.95308 0.0
H1793 H 0.38076 0.05498 0.92612 0.0
H1794 H 0.35911 0.08659 0.89378 0.0
H1795 H 0.36832 0.067 0.8972 0.0
H1796 H 0.29874 0.04833 0.00693 0.0
H1797 H 0.31246 0.03322 0.01376 0.0
H1798 H 0.307 0.08052 0.99334 0.0
H1799 H 0.31262 0.09519 0.9635 0.0
C1800 C 0.95903 0.26962 0.97508 0.0
C1801 C 0.97164 0.29161 0.96279 0.0
C1802 C 0.95011 0.275 0.92123 0.0
C1803 C 0.93776 0.25298 0.93341 0.0
N1804 N 0.93325 0.22799 0.96961 0.0
N1805 N 0.98283 0.3144 0.9229 0.0
C1806 C 0.94304 0.2499 0.9597 0.0
C1807 C 0.9684 0.29402 0.9354 0.0
N1808 N 0.9623 0.26763 0.00153 0.0
N1809 N 0.9437 0.27794 0.89656 0.0
H1810 H 0.99618 0.32881 0.93267 0.0
H1811 H 0.98287 0.3165 0.90239 0.0
H1812 H 0.93059 0.26437 0.88544 0.0
H1813 H 0.95018 0.29406 0.88783 0.0
H1814 H 0.9516 0.25298 0.01261 0.0
H1815 H 0.97529 0.28108 0.01289 0.0
H1816 H 0.93811 0.22418 0.98749 0.0
H1817 H 0.92141 0.21315 0.95892 0.0
C1818 C 0.70625 0.66168 0.94338 0.0
C1819 C 0.70929 0.66813 0.97085 0.0
C1820 C 0.74973 0.67934 0.96807 0.0
C1821 C 0.74619 0.67118 0.94118 0.0
N1822 N 0.72073 0.65171 0.90403 0.0
N1823 N 0.73281 0.68093 0.01039 0.0
C1824 C 0.72436 0.66161 0.929 0.0
C1825 C 0.73072 0.67628 0.98353 0.0
N1826 N 0.68611 0.6558 0.93097 0.0
N1827 N 0.77142 0.6907 0.97848 0.0
H1828 H 0.71958 0.67995 0.02212 0.0
H1829 H 0.74711 0.68435 0.02144 0.0
H1830 H 0.7857 0.6931 0.96777 0.0
H1831 H 0.77565 0.69929 0.99692 0.0
H1832 H 0.68377 0.65359 0.9104 0.0
H1833 H 0.67207 0.65464 0.94101 0.0
H1834 H 0.70463 0.64208 0.89519 0.0
H1835 H 0.73364 0.65155 0.89274 0.0
C1836 C 0.94503 0.67645 0.98253 0.0
C1837 C 0.95232 0.66104 0.97389 0.0
C1838 C 0.92587 0.64814 0.93587 0.0
C1839 C 0.9198 0.66476 0.94345 0.0
N1840 N 0.92466 0.69619 0.97225 0.0
N1841 N 0.95163 0.63362 0.94159 0.0
C1842 C 0.92969 0.67933 0.96632 0.0
C1843 C 0.94317 0.64715 0.95042 0.0
N1844 N 0.95226 0.68773 0.00668 0.0
N1845 N 0.91485 0.63314 0.91493 0.0
H1846 H 0.96367 0.63182 0.95226 0.0
H1847 H 0.94785 0.62521 0.92305 0.0
H1848 H 0.90287 0.63405 0.90305 0.0
H1849 H 0.91648 0.61892 0.91017 0.0
H1850 H 0.94583 0.69735 0.01558 0.0
H1851 H 0.96354 0.68605 0.019 0.0
H1852 H 0.93325 0.70917 0.98668 0.0
H1853 H 0.91271 0.69814 0.96159 0.0
C1854 C 0.32592 0.28903 0.93933 0.0
C1855 C 0.32562 0.28888 0.96766 0.0
C1856 C 0.31869 0.24919 0.9665 0.0
C1857 C 0.32258 0.25093 0.93857 0.0
N1858 N 0.33234 0.2733 0.89844 0.0
N1859 N 0.32075 0.26857 0.00863 0.0
C1860 C 0.32662 0.27096 0.92493 0.0
C1861 C 0.32173 0.26885 0.98136 0.0
N1862 N 0.32541 0.30629 0.92606 0.0
N1863 N 0.31131 0.22844 0.97858 0.0
H1864 H 0.32014 0.28135 0.02015 0.0
H1865 H 0.32123 0.25605 0.01998 0.0
H1866 H 0.30876 0.21366 0.96822 0.0
H1867 H 0.30587 0.22518 0.99834 0.0
H1868 H 0.32277 0.30569 0.90556 0.0
H1869 H 0.32595 0.32048 0.93556 0.0
H1870 H 0.33816 0.28866 0.88817 0.0
H1871 H 0.33315 0.26054 0.88713 0.0
C1872 C 0.71046 0.0594 0.95514 0.0
C1873 C 0.7118 0.04543 0.97499 0.0
C1874 C 0.75331 0.06401 0.96678 0.0
C1875 C 0.75113 0.0757 0.94485 0.0
N1876 N 0.72713 0.08189 0.91535 0.0
N1877 N 0.73442 0.03406 0.99993 0.0
C1878 C 0.72957 0.0727 0.93828 0.0
C1879 C 0.73324 0.04761 0.98083 0.0
N1880 N 0.69112 0.06047 0.95278 0.0
N1881 N 0.77463 0.06918 0.97468 0.0
H1882 H 0.72071 0.0237 0.01249 0.0
H1883 H 0.74865 0.03245 0.00278 0.0
H1884 H 0.78961 0.08093 0.96468 0.0
H1885 H 0.77775 0.06318 0.99214 0.0
H1886 H 0.68986 0.0721 0.94056 0.0
H1887 H 0.67714 0.05138 0.96522 0.0
H1888 H 0.71129 0.07799 0.90789 0.0
H1889 H 0.74073 0.09177 0.9024 0.0
C1890 C 0.64495 0.93557 0.06011 0.0
C1891 C 0.66501 0.95546 0.05031 0.0
C1892 C 0.68864 0.94508 0.07616 0.0
C1893 C 0.66878 0.92367 0.08289 0.0
N1894 N 0.62849 0.89619 0.07513 0.0
N1895 N 0.70607 0.97531 0.04352 0.0
C1896 C 0.64704 0.91817 0.073 0.0
C1897 C 0.68694 0.95916 0.05676 0.0
N1898 N 0.62404 0.93373 0.05853 0.0
N1899 N 0.70899 0.95247 0.08887 0.0
H1900 H 0.70537 0.98473 0.02772 0.0
H1901 H 0.72213 0.9772 0.04602 0.0
H1902 H 0.7108 0.94319 0.10406 0.0
H1903 H 0.72336 0.96897 0.08629 0.0
H1904 H 0.60937 0.92048 0.06763 0.0
H1905 H 0.62179 0.94675 0.05103 0.0
H1906 H 0.61281 0.89089 0.06601 0.0
H1907 H 0.62947 0.88264 0.08343 0.0
C1908 C 0.03289 0.72943 0.05984 0.0
C1909 C 0.03858 0.71227 0.05337 0.0
C1910 C 0.07696 0.73812 0.07177 0.0
C1911 C 0.06982 0.75301 0.08252 0.0
N1912 N 0.03874 0.75986 0.0912 0.0
N1913 N 0.06438 0.69839 0.06125 0.0
C1914 C 0.0471 0.74783 0.07788 0.0
C1915 C 0.06025 0.71613 0.06139 0.0
N1916 N 0.0148 0.72908 0.04783 0.0
N1917 N 0.09966 0.74492 0.07117 0.0
H1918 H 0.05131 0.68144 0.05786 0.0
H1919 H 0.0794 0.70005 0.06873 0.0
H1920 H 0.11262 0.76136 0.07762 0.0
H1921 H 0.10564 0.73516 0.06151 0.0
H1922 H 0.01131 0.74238 0.05052 0.0
H1923 H 0.00518 0.71731 0.03265 0.0
H1924 H 0.02157 0.75516 0.09018 0.0
H1925 H 0.04827 0.77291 0.10531 0.0
C1926 C 0.27716 0.32331 0.05818 0.0
C1927 C 0.2974 0.34448 0.05157 0.0
C1928 C 0.28234 0.36599 0.07555 0.0
C1929 C 0.26362 0.34478 0.08489 0.0
N1930 N 0.2473 0.30361 0.091 0.0
N1931 N 0.32176 0.38573 0.06064 0.0
C1932 C 0.26231 0.32353 0.07807 0.0
C1933 C 0.30077 0.36582 0.06216 0.0
N1934 N 0.27126 0.30316 0.04456 0.0
N1935 N 0.28223 0.38619 0.07847 0.0
H1936 H 0.3362 0.38615 0.05269 0.0
H1937 H 0.32544 0.40121 0.07018 0.0
H1938 H 0.26868 0.38698 0.08724 0.0
H1939 H 0.29452 0.40164 0.0697 0.0
H1940 H 0.25561 0.2878 0.04734 0.0
H1941 H 0.2805 0.30236 0.02827 0.0
H1942 H 0.24721 0.28814 0.08823 0.0
H1943 H 0.23683 0.30321 0.10661 0.0
C1944 C 0.73155 0.66536 0.37084 0.0
C1945 C 0.71704 0.67227 0.38309 0.0
C1946 C 0.73609 0.67743 0.42612 0.0
C1947 C 0.74938 0.66883 0.41431 0.0
N1948 N 0.75781 0.6515 0.3767 0.0
N1949 N 0.70346 0.68258 0.42264 0.0
C1950 C 0.74664 0.66201 0.38696 0.0
C1951 C 0.71867 0.67757 0.41085 0.0
N1952 N 0.73094 0.66207 0.34376 0.0
N1953 N 0.74072 0.68625 0.45165 0.0
H1954 H 0.69129 0.68414 0.41196 0.0
H1955 H 0.7019 0.68382 0.44321 0.0
H1956 H 0.75324 0.6863 0.46351 0.0
H1957 H 0.73348 0.69513 0.46048 0.0
H1958 H 0.74287 0.65969 0.33323 0.0
H1959 H 0.71934 0.66322 0.33144 0.0
H1960 H 0.75468 0.64378 0.35778 0.0
H1961 H 0.76904 0.64882 0.38788 0.0
C1962 C 0.36376 0.067 0.39358 0.0
C1963 C 0.3408 0.0488 0.38826 0.0
C1964 C 0.32693 0.07293 0.40775 0.0
C1965 C 0.34917 0.08906 0.41733 0.0
N1966 N 0.38859 0.09947 0.42284 0.0
N1967 N 0.30082 0.03249 0.39915 0.0
C1968 C 0.36763 0.08559 0.41126 0.0
C1969 C 0.32242 0.05128 0.39763 0.0
N1970 N 0.38182 0.06736 0.3809 0.0
N1971 N 0.31001 0.07816 0.40838 0.0
H1972 H 0.29792 0.0159 0.39634 0.0
H1973 H 0.28707 0.03316 0.40753 0.0
H1974 H 0.31288 0.09432 0.41483 0.0
H1975 H 0.29396 0.06736 0.39971 0.0
H1976 H 0.3986 0.08137 0.38249 0.0
H1977 H 0.37986 0.05506 0.36651 0.0
H1978 H 0.4019 0.09612 0.4211 0.0
H1979 H 0.392 0.11308 0.43605 0.0
C1980 C 0.93893 0.28289 0.36509 0.0
C1981 C 0.95805 0.30083 0.37929 0.0
C1982 C 0.93636 0.28716 0.42108 0.0
C1983 C 0.91912 0.26715 0.40731 0.0
N1984 N 0.9052 0.24437 0.36657 0.0
N1985 N 0.97578 0.31903 0.42153 0.0
C1986 C 0.92066 0.2646 0.37938 0.0
C1987 C 0.95694 0.30291 0.40749 0.0
N1988 N 0.93772 0.28386 0.33798 0.0
N1989 N 0.9329 0.29125 0.44706 0.0
H1990 H 0.99139 0.33065 0.41266 0.0
H1991 H 0.97668 0.31954 0.44227 0.0
H1992 H 0.91802 0.28004 0.45761 0.0
H1993 H 0.94373 0.3067 0.45737 0.0
H1994 H 0.92319 0.27239 0.32695 0.0
H1995 H 0.9501 0.2977 0.32688 0.0
H1996 H 0.90711 0.24062 0.34677 0.0
H1997 H 0.89149 0.2305 0.37627 0.0
C1998 C 0.01659 0.40558 0.31406 0.0
C1999 C 0.01632 0.38644 0.30106 0.0
C2000 C 0.01031 0.39907 0.25801 0.0
C2001 C 0.01216 0.41905 0.27071 0.0
N2002 N 0.0224 0.44409 0.3097 0.0
N2003 N 0.01912 0.36857 0.26015 0.0
C2004 C 0.01699 0.42318 0.29842 0.0
C2005 C 0.01504 0.38428 0.27284 0.0
N2006 N 0.01513 0.40636 0.34124 0.0
N2007 N 0.00307 0.39362 0.23212 0.0
H2008 H 0.02369 0.35827 0.27046 0.0
H2009 H 0.02052 0.36765 0.2395 0.0
H2010 H 0.999 0.40373 0.22061 0.0
H2011 H 0.9991 0.37796 0.22283 0.0
H2012 H 0.01267 0.41856 0.35149 0.0
H2013 H 0.01428 0.39364 0.35352 0.0
H2014 H 0.02834 0.44896 0.3292 0.0
H2015 H 0.02307 0.45747 0.2988 0.0
C2016 C 0.63165 0.62462 0.27349 0.0
C2017 C 0.63064 0.62427 0.30181 0.0
C2018 C 0.59416 0.58703 0.29966 0.0
C2019 C 0.59626 0.58649 0.27151 0.0
N2020 N 0.61947 0.60231 0.23207 0.0
N2021 N 0.6139 0.60214 0.34172 0.0
C2022 C 0.61579 0.60454 0.25855 0.0
C2023 C 0.61272 0.60461 0.31489 0.0
N2024 N 0.64692 0.64449 0.26076 0.0
N2025 N 0.57416 0.57125 0.31184 0.0
H2026 H 0.62773 0.61402 0.35347 0.0
H2027 H 0.60244 0.58707 0.35176 0.0
H2028 H 0.56005 0.55821 0.3014 0.0
H2029 H 0.57083 0.57243 0.33197 0.0
H2030 H 0.64677 0.64655 0.24024 0.0
H2031 H 0.65827 0.6597 0.27103 0.0
H2032 H 0.63461 0.61385 0.22223 0.0
H2033 H 0.60835 0.58774 0.22049 0.0
C2034 C 0.37548 0.00288 0.27402 0.0
C2035 C 0.37519 0.00022 0.30209 0.0
C2036 C 0.40797 0.99462 0.29824 0.0
C2037 C 0.40979 0.99975 0.2707 0.0
N2038 N 0.39792 0.01308 0.23332 0.0
N2039 N 0.39423 0.99859 0.34159 0.0
C2040 C 0.3943 0.00515 0.25884 0.0
C2041 C 0.39229 0.99748 0.31441 0.0
N2042 N 0.35729 0.00208 0.26164 0.0
N2043 N 0.42067 0.98626 0.30881 0.0
H2044 H 0.38361 0.00149 0.35419 0.0
H2045 H 0.40783 0.99906 0.35151 0.0
H2046 H 0.43209 0.98354 0.29754 0.0
H2047 H 0.41825 0.97993 0.3281 0.0
H2048 H 0.35552 0.00143 0.24097 0.0
H2049 H 0.34283 0.99974 0.27185 0.0
H2050 H 0.38859 0.0196 0.22466 0.0
H2051 H 0.41161 0.01517 0.2216 0.0
C2052 C 0.60525 0.00429 0.31598 0.0
C2053 C 0.61295 0.98882 0.30915 0.0
C2054 C 0.58979 0.97677 0.26828 0.0
C2055 C 0.58119 0.99135 0.27584 0.0
N2056 N 0.57782 0.01639 0.30835 0.0
N2057 N 0.61094 0.95834 0.28096 0.0
C2058 C 0.58811 0.00438 0.30013 0.0
C2059 C 0.60466 0.97439 0.28595 0.0
N2060 N 0.61467 0.01921 0.33737 0.0
N2061 N 0.58424 0.9658 0.24384 0.0
H2062 H 0.62232 0.95662 0.29307 0.0
H2063 H 0.60382 0.94567 0.26592 0.0
H2064 H 0.57307 0.96683 0.23065 0.0
H2065 H 0.59179 0.95695 0.23576 0.0
H2066 H 0.61199 0.03287 0.34151 0.0
H2067 H 0.62638 0.01886 0.35028 0.0
H2068 H 0.58011 0.02408 0.3272 0.0
H2069 H 0.56558 0.01731 0.297 0.0
C2070 C 0.9906 0.60311 0.31107 0.0
C2071 C 0.99305 0.62297 0.29849 0.0
C2072 C 0.98859 0.60388 0.25484 0.0
C2073 C 0.98986 0.58584 0.26736 0.0
N2074 N 0.99617 0.57048 0.30735 0.0
N2075 N 0.99725 0.6436 0.25792 0.0
C2076 C 0.9919 0.58599 0.2955 0.0
C2077 C 0.99262 0.6237 0.27021 0.0
N2078 N 0.98629 0.60022 0.33785 0.0
N2079 N 0.98309 0.60187 0.22839 0.0
H2080 H 1.00045 0.65855 0.26832 0.0
H2081 H 0.99979 0.64592 0.23743 0.0
H2082 H 0.9798 0.5875 0.21658 0.0
H2083 H 0.97969 0.61337 0.21881 0.0
H2084 H 0.98221 0.585 0.34754 0.0
H2085 H 0.9842 0.61191 0.3498 0.0
H2086 H 1.00024 0.57151 0.3275 0.0
H2087 H 0.9979 0.55797 0.29669 0.0
C2088 C 0.37784 0.37042 0.27525 0.0
C2089 C 0.3795 0.37257 0.30354 0.0
C2090 C 0.41706 0.40828 0.29976 0.0
C2091 C 0.41624 0.40507 0.27165 0.0
N2092 N 0.39825 0.38029 0.2331 0.0
N2093 N 0.40362 0.38987 0.34238 0.0
C2094 C 0.39735 0.38524 0.25953 0.0
C2095 C 0.39998 0.39043 0.31572 0.0
N2096 N 0.35741 0.35515 0.26326 0.0
N2097 N 0.43359 0.42871 0.31123 0.0
H2098 H 0.39212 0.37641 0.35459 0.0
H2099 H 0.4192 0.40127 0.35168 0.0
H2100 H 0.44622 0.44248 0.30027 0.0
H2101 H 0.43343 0.43282 0.33137 0.0
H2102 H 0.35469 0.35484 0.24281 0.0
H2103 H 0.34251 0.34422 0.2738 0.0
H2104 H 0.38598 0.36481 0.22386 0.0
H2105 H 0.41238 0.39061 0.22102 0.0
C2106 C 0.32959 0.29094 0.41391 0.0
C2107 C 0.32705 0.28773 0.38582 0.0
C2108 C 0.32582 0.25077 0.38928 0.0
C2109 C 0.33147 0.25564 0.41675 0.0
N2110 N 0.34217 0.28209 0.45455 0.0
N2111 N 0.32592 0.26622 0.34605 0.0
C2112 C 0.33425 0.27618 0.42893 0.0
C2113 C 0.32584 0.26799 0.37326 0.0
N2114 N 0.32678 0.3076 0.42637 0.0
N2115 N 0.31994 0.22952 0.37863 0.0
H2116 H 0.32621 0.27855 0.33354 0.0
H2117 H 0.32768 0.25356 0.33584 0.0
H2118 H 0.31971 0.21647 0.38977 0.0
H2119 H 0.31334 0.22409 0.35945 0.0
H2120 H 0.32614 0.30919 0.44703 0.0
H2121 H 0.32266 0.3183 0.41612 0.0
H2122 H 0.34691 0.29811 0.46341 0.0
H2123 H 0.346 0.27188 0.46622 0.0
C2124 C 0.69558 0.04777 0.41803 0.0
C2125 C 0.69654 0.04551 0.38985 0.0
C2126 C 0.73304 0.08258 0.38844 0.0
C2127 C 0.73185 0.0852 0.41643 0.0
N2128 N 0.70975 0.07334 0.45706 0.0
N2129 N 0.71189 0.06449 0.3479 0.0
C2130 C 0.71235 0.06873 0.43098 0.0
C2131 C 0.71398 0.06407 0.37494 0.0
N2132 N 0.67939 0.02963 0.43259 0.0
N2133 N 0.7527 0.09713 0.37482 0.0
H2134 H 0.69747 0.05191 0.33744 0.0
H2135 H 0.72306 0.07866 0.33638 0.0
H2136 H 0.76721 0.11087 0.38392 0.0
H2137 H 0.75531 0.0943 0.35491 0.0
H2138 H 0.67964 0.02926 0.45333 0.0
H2139 H 0.66654 0.01414 0.42403 0.0
H2140 H 0.69485 0.06318 0.46802 0.0
H2141 H 0.72172 0.08854 0.4671 0.0
C2142 C 0.96582 0.68029 0.41129 0.0
C2143 C 0.96232 0.67395 0.38382 0.0
C2144 C 0.92165 0.66163 0.38797 0.0
C2145 C 0.92544 0.66921 0.41506 0.0
N2146 N 0.95127 0.68845 0.45197 0.0
N2147 N 0.93815 0.66155 0.34481 0.0
C2148 C 0.94758 0.67926 0.42662 0.0
C2149 C 0.94059 0.66554 0.37179 0.0
N2150 N 0.98656 0.68709 0.42272 0.0
N2151 N 0.8998 0.64997 0.37802 0.0
H2152 H 0.95142 0.66347 0.33242 0.0
H2153 H 0.92352 0.65794 0.33433 0.0
H2154 H 0.88553 0.64696 0.38923 0.0
H2155 H 0.89546 0.6417 0.35939 0.0
H2156 H 0.98954 0.6893 0.44319 0.0
H2157 H 1.00067 0.6894 0.41172 0.0
H2158 H 0.96743 0.69823 0.46062 0.0
H2159 H 0.93824 0.68767 0.46392 0.0
C2160 C 0.4041 0.02827 0.72421 0.0
C2161 C 0.38583 0.00743 0.71277 0.0
C2162 C 0.3988 0.98513 0.73716 0.0
C2163 C 0.4188 0.00609 0.74538 0.0
N2164 N 0.44298 0.04766 0.74078 0.0
N2165 N 0.36959 0.96642 0.70326 0.0
C2166 C 0.42224 0.02771 0.7371 0.0
C2167 C 0.38422 0.98592 0.71777 0.0
N2168 N 0.40365 0.04836 0.72422 0.0
N2169 N 0.39318 0.96455 0.7485 0.0
H2170 H 0.35967 0.96646 0.6876 0.0
H2171 H 0.36939 0.95087 0.70469 0.0
H2172 H 0.40282 0.9633 0.76366 0.0
H2173 H 0.37763 0.9492 0.74486 0.0
H2174 H 0.41565 0.06337 0.73448 0.0
H2175 H 0.3899 0.04932 0.7169 0.0
H2176 H 0.44686 0.06349 0.73283 0.0
H2177 H 0.45706 0.04792 0.74918 0.0
C2178 C 0.98271 0.37489 0.73063 0.0
C2179 C 0.00187 0.37418 0.72049 0.0
C2180 C 0.02707 0.41122 0.7438 0.0
C2181 C 0.00781 0.41342 0.74985 0.0
N2182 N 0.9677 0.3995 0.74195 0.0
N2183 N 0.04297 0.39511 0.7129 0.0
C2184 C 0.98574 0.39596 0.741 0.0
C2185 C 0.02434 0.39328 0.72583 0.0
N2186 N 0.96184 0.35507 0.73229 0.0
N2187 N 0.04775 0.42568 0.75573 0.0
H2188 H 0.04181 0.38325 0.69836 0.0
H2189 H 0.05933 0.40984 0.71451 0.0
H2190 H 0.05026 0.43848 0.76974 0.0
H2191 H 0.06167 0.4233 0.75375 0.0
H2192 H 0.9476 0.35447 0.74118 0.0
H2193 H 0.96014 0.33901 0.72887 0.0
H2194 H 0.95173 0.38767 0.73371 0.0
H2195 H 0.96941 0.41523 0.74813 0.0
C2196 C 0.62783 0.62416 0.74397 0.0
C2197 C 0.62616 0.62845 0.71673 0.0
C2198 C 0.58446 0.60135 0.718 0.0
C2199 C 0.58649 0.59573 0.74452 0.0
N2200 N 0.61005 0.5992 0.78193 0.0
N2201 N 0.60344 0.62015 0.67686 0.0
C2202 C 0.60817 0.60649 0.75733 0.0
C2203 C 0.60462 0.61669 0.70344 0.0
N2204 N 0.64819 0.63713 0.75714 0.0
N2205 N 0.56315 0.59265 0.70712 0.0
H2206 H 0.61743 0.63246 0.66589 0.0
H2207 H 0.58892 0.61003 0.66521 0.0
H2208 H 0.54804 0.5812 0.71712 0.0
H2209 H 0.5602 0.598 0.68906 0.0
H2210 H 0.65002 0.63686 0.77768 0.0
H2211 H 0.6631 0.64946 0.74767 0.0
H2212 H 0.62565 0.60439 0.79112 0.0
H2213 H 0.59601 0.58651 0.79251 0.0
C2214 C 0.6814 0.71794 0.61167 0.0
C2215 C 0.67618 0.71598 0.63934 0.0
C2216 C 0.66408 0.74445 0.63599 0.0
C2217 C 0.67038 0.74728 0.60861 0.0
N2218 N 0.68857 0.73997 0.57128 0.0
N2219 N 0.66583 0.72948 0.67895 0.0
C2220 C 0.68005 0.73492 0.59668 0.0
C2221 C 0.66864 0.73 0.65187 0.0
N2222 N 0.68736 0.70333 0.59964 0.0
N2223 N 0.65283 0.7548 0.64648 0.0
H2224 H 0.66813 0.71845 0.69111 0.0
H2225 H 0.66285 0.7411 0.68968 0.0
H2226 H 0.64922 0.76554 0.6355 0.0
H2227 H 0.64546 0.75141 0.66541 0.0
H2228 H 0.68862 0.70185 0.57907 0.0
H2229 H 0.68983 0.69159 0.61018 0.0
H2230 H 0.69805 0.73344 0.56238 0.0
H2231 H 0.68777 0.75221 0.55966 0.0
C2232 C 0.27991 0.93871 0.64574 0.0
C2233 C 0.29795 0.95814 0.63247 0.0
C2234 C 0.28329 0.93788 0.58944 0.0
C2235 C 0.26372 0.91997 0.6025 0.0
N2236 N 0.2413 0.90543 0.64275 0.0
N2237 N 0.31425 0.97791 0.59118 0.0
C2238 C 0.26141 0.92096 0.63059 0.0
C2239 C 0.29902 0.95816 0.60415 0.0
N2240 N 0.28093 0.93656 0.67267 0.0
N2241 N 0.28718 0.9353 0.56312 0.0
H2242 H 0.32541 0.99329 0.60128 0.0
H2243 H 0.31415 0.97968 0.5706 0.0
H2244 H 0.27619 0.92056 0.55171 0.0
H2245 H 0.30238 0.94675 0.55333 0.0
H2246 H 0.26936 0.92163 0.68286 0.0
H2247 H 0.29471 0.94853 0.68441 0.0
H2248 H 0.23786 0.90692 0.66276 0.0
H2249 H 0.22721 0.89231 0.63234 0.0
C2250 C 0.04083 0.33258 0.60594 0.0
C2251 C 0.04032 0.32999 0.634 0.0
C2252 C 0.07585 0.32908 0.63131 0.0
C2253 C 0.07762 0.33426 0.60378 0.0
N2254 N 0.06406 0.34536 0.56592 0.0
N2255 N 0.0598 0.33047 0.67418 0.0
C2256 C 0.06077 0.33732 0.59137 0.0
C2257 C 0.0585 0.32951 0.64695 0.0
N2258 N 0.02183 0.32934 0.59299 0.0
N2259 N 0.09023 0.323 0.64237 0.0
H2260 H 0.04781 0.33147 0.6864 0.0
H2261 H 0.07395 0.33261 0.68457 0.0
H2262 H 0.10297 0.32217 0.63152 0.0
H2263 H 0.08812 0.31667 0.66163 0.0
H2264 H 0.02038 0.3287 0.57228 0.0
H2265 H 0.00659 0.32477 0.60293 0.0
H2266 H 0.05345 0.35016 0.55691 0.0
H2267 H 0.07858 0.3493 0.55465 0.0
C2268 C 0.28197 0.32295 0.61366 0.0
C2269 C 0.27863 0.3213 0.6417 0.0
C2270 C 0.24269 0.32096 0.63606 0.0
C2271 C 0.24795 0.32614 0.60865 0.0
N2272 N 0.27485 0.33596 0.57227 0.0
N2273 N 0.25747 0.32241 0.68019 0.0
C2274 C 0.26821 0.32817 0.59765 0.0
C2275 C 0.25935 0.32115 0.65312 0.0
N2276 N 0.2977 0.31858 0.60218 0.0
N2277 N 0.22158 0.31531 0.64567 0.0
H2278 H 0.26951 0.32316 0.69346 0.0
H2279 H 0.24508 0.32491 0.68941 0.0
H2280 H 0.20881 0.31462 0.63369 0.0
H2281 H 0.216 0.30911 0.66482 0.0
H2282 H 0.29943 0.31744 0.58161 0.0
H2283 H 0.30712 0.31342 0.61325 0.0
H2284 H 0.29069 0.34003 0.56432 0.0
H2285 H 0.26554 0.34047 0.55999 0.0
C2286 C 0.67676 0.96259 0.60862 0.0
C2287 C 0.66544 0.96059 0.63327 0.0
C2288 C 0.64756 0.91817 0.63076 0.0
C2289 C 0.65804 0.92029 0.60552 0.0
N2290 N 0.67906 0.94369 0.56796 0.0
N2291 N 0.63764 0.93658 0.6663 0.0
C2292 C 0.67154 0.94227 0.59369 0.0
C2293 C 0.65005 0.93837 0.64387 0.0
N2294 N 0.69311 0.98392 0.59988 0.0
N2295 N 0.63581 0.89694 0.64249 0.0
H2296 H 0.63964 0.951 0.67697 0.0
H2297 H 0.62431 0.92091 0.67342 0.0
H2298 H 0.63309 0.88172 0.63307 0.0
H2299 H 0.62995 0.8945 0.66211 0.0
H2300 H 0.70399 0.98658 0.58382 0.0
H2301 H 0.69692 0.99903 0.61012 0.0
H2302 H 0.68666 0.95894 0.55712 0.0
H2303 H 0.67602 0.92922 0.55653 0.0
C2304 C 0.05105 0.73406 0.63637 0.0
C2305 C 0.04769 0.71227 0.64402 0.0
C2306 C 0.0819 0.72041 0.61825 0.0
C2307 C 0.08609 0.74283 0.61251 0.0
N2308 N 0.07845 0.77336 0.62334 0.0
N2309 N 0.06495 0.68886 0.64933 0.0
C2310 C 0.07193 0.75044 0.624 0.0
C2311 C 0.06463 0.70665 0.6371 0.0
N2312 N 0.03384 0.73866 0.63897 0.0
N2313 N 0.0937 0.7118 0.60509 0.0
H2314 H 0.05382 0.67955 0.66484 0.0
H2315 H 0.07809 0.68538 0.64646 0.0
H2316 H 0.10614 0.72107 0.59068 0.0
H2317 H 0.08955 0.69462 0.60671 0.0
H2318 H 0.03476 0.75341 0.63133 0.0
H2319 H 0.01767 0.72637 0.64559 0.0
H2320 H 0.06967 0.78008 0.6336 0.0
H2321 H 0.09396 0.78601 0.61503 0.0
C2322 C 0.99418 0.6006 0.70217 0.0
C2323 C 0.99405 0.61938 0.71554 0.0
C2324 C 0.99974 0.6061 0.75836 0.0
C2325 C 0.99799 0.5863 0.74532 0.0
N2326 N 0.9887 0.56213 0.70567 0.0
N2327 N 0.99061 0.63638 0.75698 0.0
C2328 C 0.99373 0.58276 0.71745 0.0
C2329 C 0.99504 0.62106 0.74384 0.0
N2330 N 0.99591 0.60033 0.67499 0.0
N2331 N 0.00677 0.61119 0.78435 0.0
H2332 H 0.98614 0.64698 0.74717 0.0
H2333 H 0.98888 0.63672 0.77764 0.0
H2334 H 0.01086 0.60098 0.79564 0.0
H2335 H 0.01068 0.62673 0.79391 0.0
H2336 H 0.9986 0.58842 0.66444 0.0
H2337 H 0.99673 0.61324 0.66307 0.0
H2338 H 0.98314 0.55764 0.68599 0.0
H2339 H 0.98802 0.5486 0.71625 0.0
C2340 C 0.36374 0.37555 0.75261 0.0
C2341 C 0.36229 0.37588 0.72443 0.0
C2342 C 0.39375 0.41661 0.72446 0.0
C2343 C 0.39735 0.41506 0.75195 0.0
N2344 N 0.38748 0.3925 0.79195 0.0
N2345 N 0.37548 0.39659 0.68309 0.0
C2346 C 0.38266 0.39446 0.76606 0.0
C2347 C 0.3772 0.3964 0.71023 0.0
N2348 N 0.34707 0.35727 0.76656 0.0
N2349 N 0.40558 0.43764 0.71226 0.0
H2350 H 0.36212 0.3831 0.67217 0.0
H2351 H 0.38775 0.40975 0.67119 0.0
H2352 H 0.41768 0.45285 0.72216 0.0
H2353 H 0.40212 0.44054 0.69304 0.0
H2354 H 0.34582 0.35731 0.78728 0.0
H2355 H 0.33342 0.34264 0.75746 0.0
H2356 H 0.379 0.37702 0.80234 0.0
H2357 H 0.40126 0.40589 0.80249 0.0
C2358 C 0.60958 0.98647 0.72383 0.0
C2359 C 0.62974 0.00823 0.71888 0.0
C2360 C 0.61299 0.02787 0.7434 0.0
C2361 C 0.5942 0.00604 0.75111 0.0
N2362 N 0.57792 0.96459 0.75403 0.0
N2363 N 0.65298 0.04904 0.73084 0.0
C2364 C 0.59349 0.98531 0.74298 0.0
C2365 C 0.63217 0.0288 0.73066 0.0
N2366 N 0.60503 0.9671 0.70933 0.0
N2367 N 0.61228 0.04767 0.74723 0.0
H2368 H 0.6679 0.05019 0.72339 0.0
H2369 H 0.65593 0.06391 0.74128 0.0
H2370 H 0.59814 0.0477 0.75542 0.0
H2371 H 0.6247 0.06364 0.73962 0.0
H2372 H 0.58951 0.95137 0.71065 0.0
H2373 H 0.61547 0.96736 0.69382 0.0
H2374 H 0.57818 0.94939 0.75051 0.0
H2375 H 0.56638 0.96311 0.76886 0.0
loop_
_geom_bond_atom_site_label_1
_geom_bond_atom_site_label_2
_geom_bond_distance
_geom_bond_site_symmetry_2
_ccdc_geom_bond_type
Co0 O1 2.216 . S
Co0 O2 2.091 . S
Co0 O4 2.004 1_554 S
Co0 O10 2.021 . S
Co0 O12 2.137 1_454 S
Co0 O13 2.244 1_455 S
O1 Co0 2.216 . S
O1 C8 1.247 . S
O2 Co0 2.091 . S
O2 C8 1.261 . S
C3 O12 1.247 . S
C3 O13 1.272 1_556 S
O4 Co0 2.004 1_556 S
O4 C9 1.259 . S
Co5 O6 2.061 1_554 S
Co5 O11 2.052 . S
Co5 O13 2.135 . S
O6 Co5 2.061 1_556 S
O6 C9 1.235 1_655 S
C7 O10 1.238 1_655 S
C7 O11 1.241 . S
C8 O1 1.247 . S
C8 O2 1.261 . S
C9 O4 1.259 . S
C9 O6 1.235 1_455 S
O10 Co0 2.021 . S
O10 C7 1.238 1_455 S
O11 Co5 2.052 . S
O11 C7 1.241 . S
O12 Co0 2.137 1_656 S
O12 C3 1.247 . S
O13 Co0 2.244 1_655 S
O13 C3 1.272 1_554 S
O13 Co5 2.135 . S
Co14 O15 2.216 1_554 S
Co14 O16 2.091 . S
Co14 O18 2.004 . S
Co14 O24 2.021 1_554 S
Co14 O26 2.137 . S
Co14 O27 2.244 . S
O15 Co14 2.216 1_556 S
O15 C22 1.247 . S
O16 Co14 2.091 . S
O16 C22 1.261 1_554 S
C17 O26 1.247 . S
C17 O27 1.272 . S
O18 Co14 2.004 . S
O18 C23 1.259 . S
Co19 O20 2.061 . S
Co19 O25 2.052 1_554 S
Co19 O27 2.135 . S
O20 Co19 2.061 . S
O20 C23 1.235 . S
C21 O24 1.238 . S
C21 O25 1.241 . S
C22 O15 1.247 . S
C22 O16 1.261 1_556 S
C23 O18 1.259 . S
C23 O20 1.235 . S
O24 Co14 2.021 1_556 S
O24 C21 1.238 . S
O25 Co19 2.052 1_556 S
O25 C21 1.241 . S
O26 Co14 2.137 . S
O26 C17 1.247 . S
O27 Co14 2.244 . S
O27 C17 1.272 . S
O27 Co19 2.135 . S
Co28 O29 2.216 1_554 S
Co28 O30 2.091 . S
Co28 O32 2.004 . S
Co28 O38 2.021 1_554 S
Co28 O40 2.137 1_545 S
Co28 O41 2.244 1_545 S
O29 Co28 2.216 1_556 S
O29 C36 1.247 . S
O30 Co28 2.091 . S
O30 C36 1.261 1_554 S
C31 O40 1.247 . S
C31 O41 1.272 . S
O32 Co28 2.004 . S
O32 C37 1.259 . S
Co33 O34 2.061 . S
Co33 O39 2.052 1_554 S
Co33 O41 2.135 . S
O34 Co33 2.061 . S
O34 C37 1.235 1_565 S
C35 O38 1.238 1_565 S
C35 O39 1.241 . S
C36 O29 1.247 . S
C36 O30 1.261 1_556 S
C37 O32 1.259 . S
C37 O34 1.235 1_545 S
O38 Co28 2.021 1_556 S
O38 C35 1.238 1_545 S
O39 Co33 2.052 1_556 S
O39 C35 1.241 . S
O40 Co28 2.137 1_565 S
O40 C31 1.247 . S
O41 Co28 2.244 1_565 S
O41 C31 1.272 . S
O41 Co33 2.135 . S
Co42 O43 2.216 1_554 S
Co42 O44 2.091 . S
Co42 O46 2.004 . S
Co42 O52 2.021 1_554 S
Co42 O54 2.137 1_655 S
Co42 O55 2.244 1_655 S
O43 Co42 2.216 1_556 S
O43 C50 1.247 . S
O44 Co42 2.091 . S
O44 C50 1.261 1_554 S
C45 O54 1.247 . S
C45 O55 1.272 . S
O46 Co42 2.004 . S
O46 C51 1.309 . S
Co47 O48 2.061 . S
Co47 O53 2.052 1_554 S
Co47 O55 2.135 . S
O48 Co47 2.061 . S
O48 C51 1.185 1_455 S
C49 O52 1.238 1_455 S
C49 O53 1.241 . S
C50 O43 1.247 . S
C50 O44 1.261 1_556 S
C51 O46 1.309 . S
C51 O48 1.185 1_655 S
O52 Co42 2.021 1_556 S
O52 C49 1.238 1_655 S
O53 Co47 2.052 1_556 S
O53 C49 1.241 . S
O54 Co42 2.137 1_455 S
O54 C45 1.247 . S
O55 Co42 2.244 1_455 S
O55 C45 1.272 . S
O55 Co47 2.135 . S
Co56 O57 2.216 . S
Co56 O58 2.091 . S
Co56 O60 2.004 1_554 S
Co56 O66 2.021 . S
Co56 O68 2.137 1_554 S
Co56 O69 2.244 1_554 S
O57 Co56 2.216 . S
O57 C64 1.247 . S
O58 Co56 2.091 . S
O58 C64 1.261 . S
C59 O68 1.247 . S
C59 O69 1.272 . S
O60 Co56 2.004 1_556 S
O60 C65 1.259 . S
Co61 O62 2.061 . S
Co61 O67 2.052 1_556 S
Co61 O69 2.135 . S
O62 Co61 2.061 . S
O62 C65 1.235 . S
C63 O66 1.238 . S
C63 O67 1.241 . S
C64 O57 1.247 . S
C64 O58 1.261 . S
C65 O60 1.259 . S
C65 O62 1.235 . S
O66 Co56 2.021 . S
O66 C63 1.238 . S
O67 Co61 2.052 1_554 S
O67 C63 1.241 . S
O68 Co56 2.137 1_556 S
O68 C59 1.247 . S
O69 Co56 2.244 1_556 S
O69 C59 1.272 . S
O69 Co61 2.135 . S
Co70 O71 2.216 . S
Co70 O72 2.091 . S
Co70 O74 2.004 1_554 S
Co70 O80 2.021 . S
Co70 O82 2.137 1_564 S
Co70 O83 2.244 1_565 S
O71 Co70 2.216 . S
O71 C78 1.247 . S
O72 Co70 2.091 . S
O72 C78 1.261 . S
C73 O82 1.247 . S
C73 O83 1.272 1_556 S
O74 Co70 2.004 1_556 S
O74 C79 1.310 . S
Co75 O76 2.061 1_554 S
Co75 O81 2.052 . S
Co75 O83 2.135 . S
O76 Co75 2.061 1_556 S
O76 C79 1.185 1_545 S
C77 O80 1.238 1_545 S
C77 O81 1.241 . S
C78 O71 1.247 . S
C78 O72 1.261 . S
C79 O74 1.310 . S
C79 O76 1.185 1_565 S
O80 Co70 2.021 . S
O80 C77 1.238 1_565 S
O81 Co75 2.052 . S
O81 C77 1.241 . S
O82 Co70 2.137 1_546 S
O82 C73 1.247 . S
O83 Co70 2.244 1_545 S
O83 C73 1.272 1_554 S
O83 Co75 2.135 . S
Co84 O85 2.216 . S
Co84 O86 2.091 . S
Co84 O88 2.004 . S
Co84 O94 2.021 . S
Co84 O96 2.137 . S
Co84 O97 2.244 . S
O85 Co84 2.216 . S
O85 C92 1.247 . S
O86 Co84 2.091 . S
O86 C92 1.261 . S
C87 O96 1.247 . S
C87 O97 1.272 . S
O88 Co84 2.004 . S
O88 C93 1.259 . S
Co89 O90 2.061 . S
Co89 O95 2.052 . S
Co89 O97 2.135 . S
O90 Co89 2.061 . S
O90 C93 1.235 . S
C91 O94 1.238 . S
C91 O95 1.241 . S
C92 O85 1.247 . S
C92 O86 1.261 . S
C93 O88 1.259 . S
C93 O90 1.235 . S
O94 Co84 2.021 . S
O94 C91 1.238 . S
O95 Co89 2.052 . S
O95 C91 1.241 . S
O96 Co84 2.137 . S
O96 C87 1.247 . S
O97 Co84 2.244 . S
O97 C87 1.272 . S
O97 Co89 2.135 . S
Co98 O99 2.216 1_565 S
Co98 O100 2.091 . S
Co98 O102 2.004 . S
Co98 O108 2.021 . S
Co98 O110 2.137 1_565 S
Co98 O111 2.244 1_565 S
O99 Co98 2.216 1_545 S
O99 C106 1.247 1_545 S
O100 Co98 2.091 . S
O100 C106 1.261 . S
C101 O110 1.247 . S
C101 O111 1.272 . S
O102 Co98 2.004 . S
O102 C107 1.259 . S
Co103 O104 2.061 . S
Co103 O109 2.052 . S
Co103 O111 2.135 1_565 S
O104 Co103 2.061 . S
O104 C107 1.235 . S
C105 O108 1.238 . S
C105 O109 1.241 . S
C106 O99 1.247 1_565 S
C106 O100 1.261 . S
C107 O102 1.259 . S
C107 O104 1.235 . S
O108 Co98 2.021 . S
O108 C105 1.238 . S
O109 Co103 2.052 . S
O109 C105 1.241 . S
O110 Co98 2.137 1_545 S
O110 C101 1.247 . S
O111 Co98 2.244 1_545 S
O111 C101 1.272 . S
O111 Co103 2.135 1_545 S
Co112 O113 2.204 1_455 S
Co112 O114 2.091 . S
Co112 O116 2.004 . S
Co112 O122 2.021 . S
Co112 O124 2.137 1_455 S
Co112 O125 2.244 1_455 S
O113 Co112 2.204 1_655 S
O113 C120 1.246 1_655 S
O114 Co112 2.091 . S
O114 C120 1.261 . S
C115 O124 1.247 . S
C115 O125 1.272 . S
O116 Co112 2.004 . S
O116 C121 1.259 . S
Co117 O118 2.061 . S
Co117 O123 2.052 . S
Co117 O125 2.135 1_455 S
O118 Co117 2.061 . S
O118 C121 1.235 . S
C119 O122 1.238 . S
C119 O123 1.241 . S
C120 O113 1.246 1_455 S
C120 O114 1.261 . S
C121 O116 1.259 . S
C121 O118 1.235 . S
O122 Co112 2.021 . S
O122 C119 1.238 . S
O123 Co117 2.052 . S
O123 C119 1.241 . S
O124 Co112 2.137 1_655 S
O124 C115 1.247 . S
O125 Co112 2.244 1_655 S
O125 C115 1.272 . S
O125 Co117 2.135 1_655 S
Co126 O127 2.216 1_565 S
Co126 O128 2.091 . S
Co126 O130 2.004 . S
Co126 O136 2.021 . S
Co126 O138 2.137 1_565 S
Co126 O139 2.244 1_565 S
O127 Co126 2.216 1_545 S
O127 C134 1.247 1_545 S
O128 Co126 2.091 . S
O128 C134 1.261 . S
C129 O138 1.247 . S
C129 O139 1.272 . S
O130 Co126 2.004 . S
O130 C135 1.259 . S
Co131 O132 2.061 . S
Co131 O137 2.052 . S
Co131 O139 2.135 1_565 S
O132 Co131 2.061 . S
O132 C135 1.235 . S
C133 O136 1.238 . S
C133 O137 1.241 . S
C134 O127 1.247 1_565 S
C134 O128 1.261 . S
C135 O130 1.259 . S
C135 O132 1.235 . S
O136 Co126 2.021 . S
O136 C133 1.238 . S
O137 Co131 2.052 . S
O137 C133 1.241 . S
O138 Co126 2.137 1_545 S
O138 C129 1.247 . S
O139 Co126 2.244 1_545 S
O139 C129 1.272 . S
O139 Co131 2.135 1_545 S
Co140 O141 2.216 1_455 S
Co140 O142 2.091 1_455 S
Co140 O144 2.004 . S
Co140 O150 2.021 . S
Co140 O152 2.137 1_455 S
Co140 O153 2.244 . S
O141 Co140 2.216 1_655 S
O141 C148 1.247 . S
O142 Co140 2.091 1_655 S
O142 C148 1.261 . S
C143 O152 1.247 1_455 S
C143 O153 1.272 . S
O144 Co140 2.004 . S
O144 C149 1.259 . S
Co145 O146 2.061 . S
Co145 O151 2.052 . S
Co145 O153 2.135 . S
O146 Co145 2.061 . S
O146 C149 1.235 . S
C147 O150 1.238 . S
C147 O151 1.241 . S
C148 O141 1.247 . S
C148 O142 1.261 . S
C149 O144 1.259 . S
C149 O146 1.235 . S
O150 Co140 2.021 . S
O150 C147 1.238 . S
O151 Co145 2.052 . S
O151 C147 1.241 . S
O152 Co140 2.137 1_655 S
O152 C143 1.247 1_655 S
O153 Co140 2.244 . S
O153 C143 1.272 . S
O153 Co145 2.135 . S
Co154 O155 2.216 . S
Co154 O156 2.091 . S
Co154 O158 2.004 . S
Co154 O164 2.021 . S
Co154 O166 2.137 . S
Co154 O167 2.244 . S
O155 Co154 2.216 . S
O155 C162 1.247 . S
O156 Co154 2.091 . S
O156 C162 1.261 . S
C157 O166 1.247 . S
C157 O167 1.272 . S
O158 Co154 2.004 . S
O158 C163 1.259 . S
Co159 O160 2.061 . S
Co159 O165 2.052 . S
Co159 O167 2.135 . S
O160 Co159 2.061 . S
O160 C163 1.235 . S
C161 O164 1.238 . S
C161 O165 1.241 . S
C162 O155 1.247 . S
C162 O156 1.261 . S
C163 O158 1.259 . S
C163 O160 1.235 . S
O164 Co154 2.021 . S
O164 C161 1.238 . S
O165 Co159 2.052 . S
O165 C161 1.241 . S
O166 Co154 2.137 . S
O166 C157 1.247 . S
O167 Co154 2.244 . S
O167 C157 1.272 . S
O167 Co159 2.135 . S
Co168 O169 2.216 1_545 S
Co168 O170 2.091 . S
Co168 O172 2.004 . S
Co168 O178 2.021 . S
Co168 O180 2.137 1_545 S
Co168 O181 2.244 1_545 S
O169 Co168 2.216 1_565 S
O169 C176 1.247 1_565 S
O170 Co168 2.091 . S
O170 C176 1.261 . S
C171 O180 1.247 . S
C171 O181 1.272 . S
O172 Co168 2.004 . S
O172 C177 1.259 . S
Co173 O174 2.061 . S
Co173 O179 2.052 . S
Co173 O181 2.135 1_545 S
O174 Co173 2.061 . S
O174 C177 1.235 . S
C175 O178 1.238 . S
C175 O179 1.241 . S
C176 O169 1.247 1_545 S
C176 O170 1.261 . S
C177 O172 1.259 . S
C177 O174 1.235 . S
O178 Co168 2.021 . S
O178 C175 1.238 . S
O179 Co173 2.052 . S
O179 C175 1.241 . S
O180 Co168 2.137 1_565 S
O180 C171 1.247 . S
O181 Co168 2.244 1_565 S
O181 C171 1.272 . S
O181 Co173 2.135 1_565 S
Co182 O183 2.216 1_655 S
Co182 O184 2.091 1_655 S
Co182 O186 2.004 . S
Co182 O192 2.021 . S
Co182 O194 2.137 1_655 S
Co182 O195 2.244 . S
O183 Co182 2.216 1_455 S
O183 C190 1.247 . S
O184 Co182 2.091 1_455 S
O184 C190 1.261 . S
C185 O194 1.247 1_655 S
C185 O195 1.272 . S
O186 Co182 2.004 . S
O186 C191 1.259 . S
Co187 O188 2.061 . S
Co187 O193 2.052 . S
Co187 O195 2.135 . S
O188 Co187 2.061 . S
O188 C191 1.235 . S
C189 O192 1.238 . S
C189 O193 1.241 . S
C190 O183 1.247 . S
C190 O184 1.261 . S
C191 O186 1.259 . S
C191 O188 1.235 . S
O192 Co182 2.021 . S
O192 C189 1.238 . S
O193 Co187 2.052 . S
O193 C189 1.241 . S
O194 Co182 2.137 1_455 S
O194 C185 1.247 1_455 S
O195 Co182 2.244 . S
O195 C185 1.272 . S
O195 Co187 2.135 . S
Co196 O197 2.216 . S
Co196 O198 2.091 . S
Co196 O200 2.004 . S
Co196 O206 2.021 . S
Co196 O208 2.137 . S
Co196 O209 2.244 . S
O197 Co196 2.216 . S
O197 C204 1.247 . S
O198 Co196 2.091 . S
O198 C204 1.261 . S
C199 O208 1.247 . S
C199 O209 1.272 . S
O200 Co196 2.004 . S
O200 C205 1.259 . S
Co201 O202 2.061 . S
Co201 O207 2.052 . S
Co201 O209 2.135 . S
O202 Co201 2.061 . S
O202 C205 1.235 . S
C203 O206 1.238 . S
C203 O207 1.241 . S
C204 O197 1.247 . S
C204 O198 1.261 . S
C205 O200 1.259 . S
C205 O202 1.235 . S
O206 Co196 2.021 . S
O206 C203 1.238 . S
O207 Co201 2.052 . S
O207 C203 1.241 . S
O208 Co196 2.137 . S
O208 C199 1.247 . S
O209 Co196 2.244 . S
O209 C199 1.272 . S
O209 Co201 2.135 . S
Co210 O211 2.216 . S
Co210 O212 2.091 . S
Co210 O214 2.004 . S
Co210 O220 2.021 . S
Co210 O222 2.137 . S
Co210 O223 2.244 . S
O211 Co210 2.216 . S
O211 C218 1.247 . S
O212 Co210 2.091 . S
O212 C218 1.261 . S
C213 O222 1.247 . S
C213 O223 1.272 . S
O214 Co210 2.004 . S
O214 C219 1.259 . S
Co215 O216 2.061 . S
Co215 O221 2.052 . S
Co215 O223 2.135 . S
O216 Co215 2.061 . S
O216 C219 1.235 . S
C217 O220 1.238 . S
C217 O221 1.241 . S
C218 O211 1.247 . S
C218 O212 1.261 . S
C219 O214 1.259 . S
C219 O216 1.235 . S
O220 Co210 2.021 . S
O220 C217 1.238 . S
O221 Co215 2.052 . S
O221 C217 1.241 . S
O222 Co210 2.137 . S
O222 C213 1.247 . S
O223 Co210 2.244 . S
O223 C213 1.272 . S
O223 Co215 2.135 . S
Co224 O225 2.216 1_545 S
Co224 O226 2.091 . S
Co224 O228 2.004 . S
Co224 O234 2.021 . S
Co224 O236 2.137 1_545 S
Co224 O237 2.244 1_545 S
O225 Co224 2.216 1_565 S
O225 C232 1.247 1_565 S
O226 Co224 2.091 . S
O226 C232 1.261 . S
C227 O236 1.247 . S
C227 O237 1.272 . S
O228 Co224 2.004 . S
O228 C233 1.259 . S
Co229 O230 2.061 . S
Co229 O235 2.052 . S
Co229 O237 2.135 1_545 S
O230 Co229 2.061 . S
O230 C233 1.235 . S
C231 O234 1.238 . S
C231 O235 1.241 . S
C232 O225 1.247 1_545 S
C232 O226 1.261 . S
C233 O228 1.259 . S
C233 O230 1.235 . S
O234 Co224 2.021 . S
O234 C231 1.238 . S
O235 Co229 2.052 . S
O235 C231 1.241 . S
O236 Co224 2.137 1_565 S
O236 C227 1.247 . S
O237 Co224 2.244 1_565 S
O237 C227 1.272 . S
O237 Co229 2.135 1_565 S
Co238 O239 2.184 1_655 S
Co238 O240 2.091 . S
Co238 O242 2.004 . S
Co238 O248 2.021 . S
Co238 O250 2.137 1_655 S
Co238 O251 2.244 1_655 S
O239 Co238 2.184 1_455 S
O239 C246 1.246 1_455 S
O240 Co238 2.091 . S
O240 C246 1.261 . S
C241 O250 1.247 . S
C241 O251 1.272 . S
O242 Co238 2.004 . S
O242 C247 1.259 . S
Co243 O244 2.061 . S
Co243 O249 2.052 . S
Co243 O251 2.135 1_655 S
O244 Co243 2.061 . S
O244 C247 1.235 . S
C245 O248 1.238 . S
C245 O249 1.241 . S
C246 O239 1.246 1_655 S
C246 O240 1.261 . S
C247 O242 1.259 . S
C247 O244 1.235 . S
O248 Co238 2.021 . S
O248 C245 1.238 . S
O249 Co243 2.052 . S
O249 C245 1.241 . S
O250 Co238 2.137 1_455 S
O250 C241 1.247 . S
O251 Co238 2.244 1_455 S
O251 C241 1.272 . S
O251 Co243 2.135 1_455 S
C252 C253 1.384 . S
C252 C254 1.384 . S
C252 H280 0.931 . S
C253 C252 1.384 . S
C253 C256 1.382 . S
C254 C252 1.384 . S
C254 C255 1.381 . S
C254 H281 0.930 . S
C255 C254 1.381 . S
C255 C257 1.381 . S
C255 C258 1.487 . S
C256 C253 1.382 . S
C256 C257 1.387 . S
C256 H282 0.930 . S
C257 C255 1.381 . S
C257 C256 1.387 . S
C257 H283 0.931 . S
C258 C255 1.487 . S
C258 C265 1.399 . S
C258 N296 1.343 . S
C259 C260 1.384 . S
C259 C261 1.384 . S
C259 H284 0.931 . S
C260 C259 1.384 . S
C260 C263 1.382 . S
C261 C259 1.384 . S
C261 C262 1.381 . S
C261 H285 0.930 . S
C262 C261 1.381 . S
C262 C264 1.381 . S
C262 C265 1.487 . S
C263 C260 1.382 . S
C263 C264 1.387 . S
C263 H286 0.930 . S
C264 C262 1.381 . S
C264 C263 1.387 . S
C264 H287 0.931 . S
C265 C258 1.399 . S
C265 C262 1.487 . S
C265 N297 1.343 . S
C266 C267 1.384 . S
C266 C268 1.384 . S
C266 H288 0.931 . S
C267 C266 1.384 . S
C267 C270 1.382 . S
C268 C266 1.384 . S
C268 C269 1.381 . S
C268 H289 0.930 . S
C269 C268 1.381 . S
C269 C271 1.381 . S
C269 C272 1.487 . S
C270 C267 1.382 . S
C270 C271 1.387 . S
C270 H290 0.930 . S
C271 C269 1.381 . S
C271 C270 1.387 . S
C271 H291 0.931 . S
C272 C269 1.487 . S
C272 C279 1.399 . S
C272 N297 1.343 . S
C273 C274 1.384 . S
C273 C275 1.384 . S
C273 H292 0.931 . S
C274 C273 1.384 . S
C274 C277 1.382 . S
C275 C273 1.384 . S
C275 C276 1.381 . S
C275 H293 0.930 . S
C276 C275 1.381 . S
C276 C278 1.381 . S
C276 C279 1.487 . S
C277 C274 1.382 . S
C277 C278 1.387 . S
C277 H294 0.930 . S
C278 C276 1.381 . S
C278 C277 1.387 . S
C278 H295 0.931 . S
C279 C272 1.399 . S
C279 C276 1.487 . S
C279 N296 1.343 . S
H280 C252 0.931 . S
H281 C254 0.930 . S
H282 C256 0.930 . S
H283 C257 0.931 . S
H284 C259 0.931 . S
H285 C261 0.930 . S
H286 C263 0.930 . S
H287 C264 0.931 . S
H288 C266 0.931 . S
H289 C268 0.930 . S
H290 C270 0.930 . S
H291 C271 0.931 . S
H292 C273 0.931 . S
H293 C275 0.930 . S
H294 C277 0.930 . S
H295 C278 0.931 . S
N296 C258 1.343 . S
N296 C279 1.343 . S
N297 C265 1.343 . S
N297 C272 1.343 . S
C298 C299 1.384 . S
C298 C300 1.384 . S
C298 H326 0.931 . S
C299 C298 1.384 . S
C299 C302 1.382 . S
C300 C298 1.384 . S
C300 C301 1.381 . S
C300 H327 0.930 . S
C301 C300 1.381 . S
C301 C303 1.381 . S
C301 C304 1.487 . S
C302 C299 1.382 . S
C302 C303 1.387 . S
C302 H328 0.930 . S
C303 C301 1.381 . S
C303 C302 1.387 . S
C303 H329 0.931 . S
C304 C301 1.487 . S
C304 C311 1.399 . S
C304 N342 1.343 . S
C305 C306 1.384 . S
C305 C307 1.384 . S
C305 H330 0.931 . S
C306 C305 1.384 . S
C306 C309 1.382 . S
C307 C305 1.384 . S
C307 C308 1.381 . S
C307 H331 0.930 . S
C308 C307 1.381 . S
C308 C310 1.381 . S
C308 C311 1.487 . S
C309 C306 1.382 . S
C309 C310 1.387 . S
C309 H332 0.930 . S
C310 C308 1.381 . S
C310 C309 1.387 . S
C310 H333 0.931 . S
C311 C304 1.399 . S
C311 C308 1.487 . S
C311 N343 1.343 . S
C312 C313 1.384 . S
C312 C314 1.384 . S
C312 H334 0.931 . S
C313 C312 1.384 . S
C313 C316 1.382 . S
C314 C312 1.384 . S
C314 C315 1.381 . S
C314 H335 0.930 . S
C315 C314 1.381 . S
C315 C317 1.381 . S
C315 C318 1.487 . S
C316 C313 1.382 . S
C316 C317 1.387 . S
C316 H336 0.930 . S
C317 C315 1.381 . S
C317 C316 1.387 . S
C317 H337 0.931 . S
C318 C315 1.487 . S
C318 C325 1.399 . S
C318 N343 1.343 . S
C319 C320 1.384 . S
C319 C321 1.384 . S
C319 H338 0.931 . S
C320 C319 1.384 . S
C320 C323 1.382 . S
C321 C319 1.384 . S
C321 C322 1.381 . S
C321 H339 0.930 . S
C322 C321 1.381 . S
C322 C324 1.381 . S
C322 C325 1.487 . S
C323 C320 1.382 . S
C323 C324 1.387 . S
C323 H340 0.930 . S
C324 C322 1.381 . S
C324 C323 1.387 . S
C324 H341 0.931 . S
C325 C318 1.399 . S
C325 C322 1.487 . S
C325 N342 1.343 . S
H326 C298 0.931 . S
H327 C300 0.930 . S
H328 C302 0.930 . S
H329 C303 0.931 . S
H330 C305 0.931 . S
H331 C307 0.930 . S
H332 C309 0.930 . S
H333 C310 0.931 . S
H334 C312 0.931 . S
H335 C314 0.930 . S
H336 C316 0.930 . S
H337 C317 0.931 . S
H338 C319 0.931 . S
H339 C321 0.930 . S
H340 C323 0.930 . S
H341 C324 0.931 . S
N342 C304 1.343 . S
N342 C325 1.343 . S
N343 C311 1.343 . S
N343 C318 1.343 . S
C344 C345 1.384 . S
C344 C346 1.384 . S
C344 H372 0.931 . S
C345 C344 1.384 . S
C345 C348 1.382 . S
C346 C344 1.384 . S
C346 C347 1.381 . S
C346 H373 0.930 . S
C347 C346 1.381 . S
C347 C349 1.381 . S
C347 C350 1.487 . S
C348 C345 1.382 . S
C348 C349 1.387 . S
C348 H374 0.930 . S
C349 C347 1.381 . S
C349 C348 1.387 . S
C349 H375 0.931 . S
C350 C347 1.487 . S
C350 C357 1.399 . S
C350 N388 1.343 . S
C351 C352 1.384 . S
C351 C353 1.384 . S
C351 H376 0.931 . S
C352 C351 1.384 . S
C352 C355 1.382 . S
C353 C351 1.384 . S
C353 C354 1.381 . S
C353 H377 0.930 . S
C354 C353 1.381 . S
C354 C356 1.381 . S
C354 C357 1.487 . S
C355 C352 1.382 . S
C355 C356 1.387 . S
C355 H378 0.930 . S
C356 C354 1.381 . S
C356 C355 1.387 . S
C356 H379 0.931 . S
C357 C350 1.399 . S
C357 C354 1.487 . S
C357 N389 1.343 . S
C358 C359 1.384 . S
C358 C360 1.384 . S
C358 H380 0.931 . S
C359 C358 1.384 . S
C359 C362 1.382 . S
C360 C358 1.384 . S
C360 C361 1.381 . S
C360 H381 0.930 . S
C361 C360 1.381 . S
C361 C363 1.381 . S
C361 C364 1.487 . S
C362 C359 1.382 . S
C362 C363 1.387 . S
C362 H382 0.930 . S
C363 C361 1.381 . S
C363 C362 1.387 . S
C363 H383 0.931 . S
C364 C361 1.487 . S
C364 C371 1.399 . S
C364 N389 1.343 . S
C365 C366 1.384 . S
C365 C367 1.384 . S
C365 H384 0.931 . S
C366 C365 1.384 . S
C366 C369 1.382 . S
C367 C365 1.384 . S
C367 C368 1.381 . S
C367 H385 0.930 . S
C368 C367 1.381 . S
C368 C370 1.381 . S
C368 C371 1.487 . S
C369 C366 1.382 . S
C369 C370 1.387 . S
C369 H386 0.930 . S
C370 C368 1.381 . S
C370 C369 1.387 . S
C370 H387 0.931 . S
C371 C364 1.399 . S
C371 C368 1.487 . S
C371 N388 1.343 . S
H372 C344 0.931 . S
H373 C346 0.930 . S
H374 C348 0.930 . S
H375 C349 0.931 . S
H376 C351 0.931 . S
H377 C353 0.930 . S
H378 C355 0.930 . S
H379 C356 0.931 . S
H380 C358 0.931 . S
H381 C360 0.930 . S
H382 C362 0.930 . S
H383 C363 0.931 . S
H384 C365 0.931 . S
H385 C367 0.930 . S
H386 C369 0.930 . S
H387 C370 0.931 . S
N388 C350 1.343 . S
N388 C371 1.343 . S
N389 C357 1.343 . S
N389 C364 1.343 . S
C390 C391 1.384 . S
C390 C392 1.384 . S
C390 H418 0.931 . S
C391 C390 1.384 . S
C391 C394 1.382 . S
C392 C390 1.384 . S
C392 C393 1.381 . S
C392 H419 0.930 . S
C393 C392 1.381 . S
C393 C395 1.381 . S
C393 C396 1.487 . S
C394 C391 1.382 . S
C394 C395 1.387 . S
C394 H420 0.930 . S
C395 C393 1.381 . S
C395 C394 1.387 . S
C395 H421 0.931 . S
C396 C393 1.487 . S
C396 C403 1.399 . S
C396 N434 1.343 . S
C397 C398 1.384 . S
C397 C399 1.384 . S
C397 H422 0.931 . S
C398 C397 1.384 . S
C398 C401 1.382 . S
C399 C397 1.384 . S
C399 C400 1.381 . S
C399 H423 0.930 . S
C400 C399 1.381 . S
C400 C402 1.381 . S
C400 C403 1.487 . S
C401 C398 1.382 . S
C401 C402 1.387 . S
C401 H424 0.930 . S
C402 C400 1.381 . S
C402 C401 1.387 . S
C402 H425 0.931 . S
C403 C396 1.399 . S
C403 C400 1.487 . S
C403 N435 1.343 . S
C404 C405 1.384 . S
C404 C406 1.384 . S
C404 H426 0.931 . S
C405 C404 1.384 . S
C405 C408 1.382 . S
C406 C404 1.384 . S
C406 C407 1.381 . S
C406 H427 0.930 . S
C407 C406 1.381 . S
C407 C409 1.381 . S
C407 C410 1.487 . S
C408 C405 1.382 . S
C408 C409 1.387 . S
C408 H428 0.930 . S
C409 C407 1.381 . S
C409 C408 1.387 . S
C409 H429 0.931 . S
C410 C407 1.487 . S
C410 C417 1.399 . S
C410 N435 1.343 . S
C411 C412 1.384 . S
C411 C413 1.384 . S
C411 H430 0.931 . S
C412 C411 1.384 . S
C412 C415 1.382 . S
C413 C411 1.384 . S
C413 C414 1.381 . S
C413 H431 0.930 . S
C414 C413 1.381 . S
C414 C416 1.381 . S
C414 C417 1.487 . S
C415 C412 1.382 . S
C415 C416 1.387 . S
C415 H432 0.930 . S
C416 C414 1.381 . S
C416 C415 1.387 . S
C416 H433 0.931 . S
C417 C410 1.399 . S
C417 C414 1.487 . S
C417 N434 1.343 . S
H418 C390 0.931 . S
H419 C392 0.930 . S
H420 C394 0.930 . S
H421 C395 0.931 . S
H422 C397 0.931 . S
H423 C399 0.930 . S
H424 C401 0.930 . S
H425 C402 0.931 . S
H426 C404 0.931 . S
H427 C406 0.930 . S
H428 C408 0.930 . S
H429 C409 0.931 . S
H430 C411 0.931 . S
H431 C413 0.930 . S
H432 C415 0.930 . S
H433 C416 0.931 . S
N434 C396 1.343 . S
N434 C417 1.343 . S
N435 C403 1.343 . S
N435 C410 1.343 . S
C436 C437 1.384 . S
C436 C438 1.384 . S
C436 H464 0.931 . S
C437 C436 1.384 . S
C437 C440 1.382 . S
C438 C436 1.384 . S
C438 C439 1.381 . S
C438 H465 0.930 . S
C439 C438 1.381 . S
C439 C441 1.381 . S
C439 C442 1.487 . S
C440 C437 1.382 . S
C440 C441 1.387 . S
C440 H466 0.930 . S
C441 C439 1.381 . S
C441 C440 1.387 . S
C441 H467 0.931 . S
C442 C439 1.487 . S
C442 C449 1.399 . S
C442 N480 1.343 . S
C443 C444 1.384 . S
C443 C445 1.384 . S
C443 H468 0.931 . S
C444 C443 1.384 . S
C444 C447 1.382 . S
C445 C443 1.384 . S
C445 C446 1.381 . S
C445 H469 0.930 . S
C446 C445 1.381 . S
C446 C448 1.381 . S
C446 C449 1.487 . S
C447 C444 1.382 . S
C447 C448 1.387 . S
C447 H470 0.930 . S
C448 C446 1.381 . S
C448 C447 1.387 . S
C448 H471 0.931 . S
C449 C442 1.399 . S
C449 C446 1.487 . S
C449 N481 1.343 . S
C450 C451 1.384 . S
C450 C452 1.384 . S
C450 H472 0.931 . S
C451 C450 1.384 . S
C451 C454 1.382 . S
C452 C450 1.384 . S
C452 C453 1.381 . S
C452 H473 0.930 . S
C453 C452 1.381 . S
C453 C455 1.381 . S
C453 C456 1.487 . S
C454 C451 1.382 . S
C454 C455 1.387 . S
C454 H474 0.930 . S
C455 C453 1.381 . S
C455 C454 1.387 . S
C455 H475 0.931 . S
C456 C453 1.487 . S
C456 C463 1.399 . S
C456 N481 1.343 . S
C457 C458 1.384 . S
C457 C459 1.384 . S
C457 H476 0.931 . S
C458 C457 1.384 . S
C458 C461 1.382 . S
C459 C457 1.384 . S
C459 C460 1.381 . S
C459 H477 0.930 . S
C460 C459 1.381 . S
C460 C462 1.381 . S
C460 C463 1.487 . S
C461 C458 1.382 . S
C461 C462 1.387 . S
C461 H478 0.930 . S
C462 C460 1.381 . S
C462 C461 1.387 . S
C462 H479 0.931 . S
C463 C456 1.399 . S
C463 C460 1.487 . S
C463 N480 1.343 . S
H464 C436 0.931 . S
H465 C438 0.930 . S
H466 C440 0.930 . S
H467 C441 0.931 . S
H468 C443 0.931 . S
H469 C445 0.930 . S
H470 C447 0.930 . S
H471 C448 0.931 . S
H472 C450 0.931 . S
H473 C452 0.930 . S
H474 C454 0.930 . S
H475 C455 0.931 . S
H476 C457 0.931 . S
H477 C459 0.930 . S
H478 C461 0.930 . S
H479 C462 0.931 . S
N480 C442 1.343 . S
N480 C463 1.343 . S
N481 C449 1.343 . S
N481 C456 1.343 . S
C482 C483 1.384 . S
C482 C484 1.384 . S
C482 H510 0.931 . S
C483 C482 1.384 . S
C483 C486 1.382 . S
C484 C482 1.384 . S
C484 C485 1.381 . S
C484 H511 0.930 . S
C485 C484 1.381 . S
C485 C487 1.381 . S
C485 C488 1.487 . S
C486 C483 1.382 . S
C486 C487 1.387 . S
C486 H512 0.930 . S
C487 C485 1.381 . S
C487 C486 1.387 . S
C487 H513 0.931 . S
C488 C485 1.487 . S
C488 C495 1.399 . S
C488 N526 1.343 . S
C489 C490 1.384 . S
C489 C491 1.384 . S
C489 H514 0.931 . S
C490 C489 1.384 . S
C490 C493 1.382 . S
C491 C489 1.384 . S
C491 C492 1.381 . S
C491 H515 0.930 . S
C492 C491 1.381 . S
C492 C494 1.381 . S
C492 C495 1.487 . S
C493 C490 1.382 . S
C493 C494 1.387 . S
C493 H516 0.930 . S
C494 C492 1.381 . S
C494 C493 1.387 . S
C494 H517 0.931 . S
C495 C488 1.399 . S
C495 C492 1.487 . S
C495 N527 1.343 . S
C496 C497 1.384 . S
C496 C498 1.384 . S
C496 H518 0.931 . S
C497 C496 1.384 . S
C497 C500 1.382 . S
C498 C496 1.384 . S
C498 C499 1.381 . S
C498 H519 0.930 . S
C499 C498 1.381 . S
C499 C501 1.381 . S
C499 C502 1.487 . S
C500 C497 1.382 . S
C500 C501 1.387 . S
C500 H520 0.930 . S
C501 C499 1.381 . S
C501 C500 1.387 . S
C501 H521 0.931 . S
C502 C499 1.487 . S
C502 C509 1.399 . S
C502 N527 1.343 . S
C503 C504 1.384 . S
C503 C505 1.384 . S
C503 H522 0.931 . S
C504 C503 1.384 . S
C504 C507 1.382 . S
C505 C503 1.384 . S
C505 C506 1.381 . S
C505 H523 0.930 . S
C506 C505 1.381 . S
C506 C508 1.381 . S
C506 C509 1.487 . S
C507 C504 1.382 . S
C507 C508 1.387 . S
C507 H524 0.930 . S
C508 C506 1.381 . S
C508 C507 1.387 . S
C508 H525 0.931 . S
C509 C502 1.399 . S
C509 C506 1.487 . S
C509 N526 1.343 . S
H510 C482 0.931 . S
H511 C484 0.930 . S
H512 C486 0.930 . S
H513 C487 0.931 . S
H514 C489 0.931 . S
H515 C491 0.930 . S
H516 C493 0.930 . S
H517 C494 0.931 . S
H518 C496 0.931 . S
H519 C498 0.930 . S
H520 C500 0.930 . S
H521 C501 0.931 . S
H522 C503 0.931 . S
H523 C505 0.930 . S
H524 C507 0.930 . S
H525 C508 0.931 . S
N526 C488 1.343 . S
N526 C509 1.343 . S
N527 C495 1.343 . S
N527 C502 1.343 . S
C528 C529 1.384 . S
C528 C530 1.384 . S
C528 H556 0.931 . S
C529 C528 1.384 . S
C529 C532 1.382 . S
C530 C528 1.384 . S
C530 C531 1.381 . S
C530 H557 0.930 . S
C531 C530 1.381 . S
C531 C533 1.381 . S
C531 C534 1.487 . S
C532 C529 1.382 . S
C532 C533 1.387 . S
C532 H558 0.930 . S
C533 C531 1.381 . S
C533 C532 1.387 . S
C533 H559 0.931 . S
C534 C531 1.487 . S
C534 C541 1.399 . S
C534 N572 1.343 . S
C535 C536 1.384 . S
C535 C537 1.384 . S
C535 H560 0.931 . S
C536 C535 1.384 . S
C536 C539 1.382 . S
C537 C535 1.384 . S
C537 C538 1.381 . S
C537 H561 0.930 . S
C538 C537 1.381 . S
C538 C540 1.381 . S
C538 C541 1.487 . S
C539 C536 1.382 . S
C539 C540 1.387 . S
C539 H562 0.930 . S
C540 C538 1.381 . S
C540 C539 1.387 . S
C540 H563 0.931 . S
C541 C534 1.399 . S
C541 C538 1.487 . S
C541 N573 1.343 . S
C542 C543 1.384 . S
C542 C544 1.384 . S
C542 H564 0.931 . S
C543 C542 1.384 . S
C543 C546 1.382 . S
C544 C542 1.384 . S
C544 C545 1.381 . S
C544 H565 0.930 . S
C545 C544 1.381 . S
C545 C547 1.381 . S
C545 C548 1.487 . S
C546 C543 1.382 . S
C546 C547 1.387 . S
C546 H566 0.930 . S
C547 C545 1.381 . S
C547 C546 1.387 . S
C547 H567 0.931 . S
C548 C545 1.487 . S
C548 C555 1.399 . S
C548 N573 1.343 . S
C549 C550 1.384 . S
C549 C551 1.384 . S
C549 H568 0.931 . S
C550 C549 1.384 . S
C550 C553 1.382 . S
C551 C549 1.384 . S
C551 C552 1.381 . S
C551 H569 0.930 . S
C552 C551 1.381 . S
C552 C554 1.381 . S
C552 C555 1.487 . S
C553 C550 1.382 . S
C553 C554 1.387 . S
C553 H570 0.930 . S
C554 C552 1.381 . S
C554 C553 1.387 . S
C554 H571 0.931 . S
C555 C548 1.399 . S
C555 C552 1.487 . S
C555 N572 1.343 . S
H556 C528 0.931 . S
H557 C530 0.930 . S
H558 C532 0.930 . S
H559 C533 0.931 . S
H560 C535 0.931 . S
H561 C537 0.930 . S
H562 C539 0.930 . S
H563 C540 0.931 . S
H564 C542 0.931 . S
H565 C544 0.930 . S
H566 C546 0.930 . S
H567 C547 0.931 . S
H568 C549 0.931 . S
H569 C551 0.930 . S
H570 C553 0.930 . S
H571 C554 0.931 . S
N572 C534 1.343 . S
N572 C555 1.343 . S
N573 C541 1.343 . S
N573 C548 1.343 . S
C574 C575 1.384 . S
C574 C576 1.384 . S
C574 H602 0.931 . S
C575 C574 1.384 . S
C575 C578 1.382 . S
C576 C574 1.384 . S
C576 C577 1.381 . S
C576 H603 0.930 . S
C577 C576 1.381 . S
C577 C579 1.381 . S
C577 C580 1.487 . S
C578 C575 1.382 . S
C578 C579 1.387 . S
C578 H604 0.930 . S
C579 C577 1.381 . S
C579 C578 1.387 . S
C579 H605 0.931 . S
C580 C577 1.487 . S
C580 C587 1.399 . S
C580 N618 1.343 . S
C581 C582 1.384 . S
C581 C583 1.384 . S
C581 H606 0.931 . S
C582 C581 1.384 . S
C582 C585 1.382 . S
C583 C581 1.384 . S
C583 C584 1.381 . S
C583 H607 0.930 . S
C584 C583 1.381 . S
C584 C586 1.381 . S
C584 C587 1.487 . S
C585 C582 1.382 . S
C585 C586 1.387 . S
C585 H608 0.930 . S
C586 C584 1.381 . S
C586 C585 1.387 . S
C586 H609 0.931 . S
C587 C580 1.399 . S
C587 C584 1.487 . S
C587 N619 1.343 . S
C588 C589 1.384 . S
C588 C590 1.384 . S
C588 H610 0.931 . S
C589 C588 1.384 . S
C589 C592 1.382 . S
C590 C588 1.384 . S
C590 C591 1.381 . S
C590 H611 0.930 . S
C591 C590 1.381 . S
C591 C593 1.381 . S
C591 C594 1.487 . S
C592 C589 1.382 . S
C592 C593 1.387 . S
C592 H612 0.930 . S
C593 C591 1.381 . S
C593 C592 1.387 . S
C593 H613 0.931 . S
C594 C591 1.487 . S
C594 C601 1.399 . S
C594 N619 1.343 . S
C595 C596 1.384 . S
C595 C597 1.384 . S
C595 H614 0.931 . S
C596 C595 1.384 . S
C596 C599 1.382 . S
C597 C595 1.384 . S
C597 C598 1.381 . S
C597 H615 0.930 . S
C598 C597 1.381 . S
C598 C600 1.381 . S
C598 C601 1.487 . S
C599 C596 1.382 . S
C599 C600 1.387 . S
C599 H616 0.930 . S
C600 C598 1.381 . S
C600 C599 1.387 . S
C600 H617 0.931 . S
C601 C594 1.399 . S
C601 C598 1.487 . S
C601 N618 1.343 . S
H602 C574 0.931 . S
H603 C576 0.930 . S
H604 C578 0.930 . S
H605 C579 0.931 . S
H606 C581 0.931 . S
H607 C583 0.930 . S
H608 C585 0.930 . S
H609 C586 0.931 . S
H610 C588 0.931 . S
H611 C590 0.930 . S
H612 C592 0.930 . S
H613 C593 0.931 . S
H614 C595 0.931 . S
H615 C597 0.930 . S
H616 C599 0.930 . S
H617 C600 0.931 . S
N618 C580 1.343 . S
N618 C601 1.343 . S
N619 C587 1.343 . S
N619 C594 1.343 . S
C620 C621 1.384 . S
C620 C622 1.384 . S
C620 H648 0.931 . S
C621 C620 1.384 . S
C621 C624 1.382 . S
C622 C620 1.384 . S
C622 C623 1.381 . S
C622 H649 0.930 . S
C623 C622 1.381 . S
C623 C625 1.381 . S
C623 C626 1.487 . S
C624 C621 1.382 . S
C624 C625 1.387 . S
C624 H650 0.930 . S
C625 C623 1.381 . S
C625 C624 1.387 . S
C625 H651 0.931 . S
C626 C623 1.487 . S
C626 C633 1.399 . S
C626 N664 1.343 . S
C627 C628 1.384 . S
C627 C629 1.384 . S
C627 H652 0.931 . S
C628 C627 1.384 . S
C628 C631 1.382 . S
C629 C627 1.384 . S
C629 C630 1.381 . S
C629 H653 0.930 . S
C630 C629 1.381 . S
C630 C632 1.381 . S
C630 C633 1.487 . S
C631 C628 1.382 . S
C631 C632 1.387 . S
C631 H654 0.930 . S
C632 C630 1.381 . S
C632 C631 1.387 . S
C632 H655 0.931 . S
C633 C626 1.399 . S
C633 C630 1.487 . S
C633 N665 1.343 . S
C634 C635 1.384 . S
C634 C636 1.384 . S
C634 H656 0.931 . S
C635 C634 1.384 . S
C635 C638 1.382 . S
C636 C634 1.384 . S
C636 C637 1.381 . S
C636 H657 0.930 . S
C637 C636 1.381 . S
C637 C639 1.381 . S
C637 C640 1.487 . S
C638 C635 1.382 . S
C638 C639 1.387 . S
C638 H658 0.930 . S
C639 C637 1.381 . S
C639 C638 1.387 . S
C639 H659 0.931 . S
C640 C637 1.487 . S
C640 C647 1.399 . S
C640 N665 1.343 . S
C641 C642 1.384 . S
C641 C643 1.384 . S
C641 H660 0.931 . S
C642 C641 1.384 . S
C642 C645 1.382 . S
C643 C641 1.384 . S
C643 C644 1.381 . S
C643 H661 0.930 . S
C644 C643 1.381 . S
C644 C646 1.381 . S
C644 C647 1.487 . S
C645 C642 1.382 . S
C645 C646 1.387 . S
C645 H662 0.930 . S
C646 C644 1.381 . S
C646 C645 1.387 . S
C646 H663 0.931 . S
C647 C640 1.399 . S
C647 C644 1.487 . S
C647 N664 1.343 . S
H648 C620 0.931 . S
H649 C622 0.930 . S
H650 C624 0.930 . S
H651 C625 0.931 . S
H652 C627 0.931 . S
H653 C629 0.930 . S
H654 C631 0.930 . S
H655 C632 0.931 . S
H656 C634 0.931 . S
H657 C636 0.930 . S
H658 C638 0.930 . S
H659 C639 0.931 . S
H660 C641 0.931 . S
H661 C643 0.930 . S
H662 C645 0.930 . S
H663 C646 0.931 . S
N664 C626 1.343 . S
N664 C647 1.343 . S
N665 C633 1.343 . S
N665 C640 1.343 . S
C666 C667 1.384 . S
C666 C668 1.384 . S
C666 H694 0.931 . S
C667 C666 1.384 . S
C667 C670 1.382 1_655 S
C668 C666 1.384 . S
C668 C669 1.408 . S
C668 H695 0.930 . S
C669 C668 1.408 . S
C669 C671 1.368 1_655 S
C669 C672 1.471 1_655 S
C670 C667 1.382 1_455 S
C670 C671 1.387 . S
C670 H696 0.930 . S
C671 C669 1.368 1_455 S
C671 C670 1.387 . S
C671 H697 0.931 . S
C672 C669 1.471 1_455 S
C672 C679 1.399 1_455 S
C672 N710 1.347 . S
C673 C674 1.384 . S
C673 C675 1.384 . S
C673 H698 0.931 . S
C674 C673 1.384 . S
C674 C677 1.382 1_455 S
C675 C673 1.384 . S
C675 C676 1.383 1_455 S
C675 H699 0.930 . S
C676 C675 1.383 1_655 S
C676 C678 1.378 . S
C676 C679 1.497 . S
C677 C674 1.382 1_655 S
C677 C678 1.387 . S
C677 H700 0.930 . S
C678 C676 1.378 . S
C678 C677 1.387 . S
C678 H701 0.931 . S
C679 C672 1.399 1_655 S
C679 C676 1.497 . S
C679 N711 1.362 . S
C680 C681 1.384 . S
C680 C682 1.384 . S
C680 H702 0.931 . S
C681 C680 1.384 . S
C681 C684 1.382 1_455 S
C682 C680 1.384 . S
C682 C683 1.420 . S
C682 H703 0.930 . S
C683 C682 1.420 . S
C683 C685 1.362 1_455 S
C683 C686 1.471 1_455 S
C684 C681 1.382 1_655 S
C684 C685 1.387 . S
C684 H704 0.930 . S
C685 C683 1.362 1_655 S
C685 C684 1.387 . S
C685 H705 0.931 . S
C686 C683 1.471 1_655 S
C686 C693 1.399 1_655 S
C686 N711 1.312 . S
C687 C688 1.384 . S
C687 C689 1.384 . S
C687 H706 0.931 . S
C688 C687 1.384 . S
C688 C691 1.382 1_655 S
C689 C687 1.384 . S
C689 C690 1.380 1_655 S
C689 H707 0.930 . S
C690 C689 1.380 1_455 S
C690 C692 1.385 . S
C690 C693 1.497 . S
C691 C688 1.382 1_455 S
C691 C692 1.387 . S
C691 H708 0.930 . S
C692 C690 1.385 . S
C692 C691 1.387 . S
C692 H709 0.931 . S
C693 C686 1.399 1_455 S
C693 C690 1.497 . S
C693 N710 1.330 . S
H694 C666 0.931 . S
H695 C668 0.930 . S
H696 C670 0.930 . S
H697 C671 0.931 . S
H698 C673 0.931 . S
H699 C675 0.930 . S
H700 C677 0.930 . S
H701 C678 0.931 . S
H702 C680 0.931 . S
H703 C682 0.930 . S
H704 C684 0.930 . S
H705 C685 0.931 . S
H706 C687 0.931 . S
H707 C689 0.930 . S
H708 C691 0.930 . S
H709 C692 0.931 . S
N710 C672 1.347 . S
N710 C693 1.330 . S
N711 C679 1.362 . S
N711 C686 1.312 . S
C712 C713 1.384 . S
C712 C714 1.384 . S
C712 H740 0.931 . S
C713 C712 1.384 . S
C713 C716 1.382 . S
C714 C712 1.384 . S
C714 C715 1.381 . S
C714 H741 0.930 . S
C715 C714 1.381 . S
C715 C717 1.381 . S
C715 C718 1.487 . S
C716 C713 1.382 . S
C716 C717 1.387 . S
C716 H742 0.930 . S
C717 C715 1.381 . S
C717 C716 1.387 . S
C717 H743 0.931 . S
C718 C715 1.487 . S
C718 C725 1.399 . S
C718 N756 1.343 . S
C719 C720 1.384 . S
C719 C721 1.384 . S
C719 H744 0.931 . S
C720 C719 1.384 . S
C720 C723 1.382 . S
C721 C719 1.384 . S
C721 C722 1.381 . S
C721 H745 0.930 . S
C722 C721 1.381 . S
C722 C724 1.381 . S
C722 C725 1.487 . S
C723 C720 1.382 . S
C723 C724 1.387 . S
C723 H746 0.930 . S
C724 C722 1.381 . S
C724 C723 1.387 . S
C724 H747 0.931 . S
C725 C718 1.399 . S
C725 C722 1.487 . S
C725 N757 1.343 . S
C726 C727 1.384 . S
C726 C728 1.384 . S
C726 H748 0.931 . S
C727 C726 1.384 . S
C727 C730 1.382 . S
C728 C726 1.384 . S
C728 C729 1.381 . S
C728 H749 0.930 . S
C729 C728 1.381 . S
C729 C731 1.381 . S
C729 C732 1.487 . S
C730 C727 1.382 . S
C730 C731 1.387 . S
C730 H750 0.930 . S
C731 C729 1.381 . S
C731 C730 1.387 . S
C731 H751 0.931 . S
C732 C729 1.487 . S
C732 C739 1.399 . S
C732 N757 1.343 . S
C733 C734 1.384 . S
C733 C735 1.384 . S
C733 H752 0.931 . S
C734 C733 1.384 . S
C734 C737 1.382 . S
C735 C733 1.384 . S
C735 C736 1.381 . S
C735 H753 0.930 . S
C736 C735 1.381 . S
C736 C738 1.381 . S
C736 C739 1.487 . S
C737 C734 1.382 . S
C737 C738 1.387 . S
C737 H754 0.930 . S
C738 C736 1.381 . S
C738 C737 1.387 . S
C738 H755 0.931 . S
C739 C732 1.399 . S
C739 C736 1.487 . S
C739 N756 1.343 . S
H740 C712 0.931 . S
H741 C714 0.930 . S
H742 C716 0.930 . S
H743 C717 0.931 . S
H744 C719 0.931 . S
H745 C721 0.930 . S
H746 C723 0.930 . S
H747 C724 0.931 . S
H748 C726 0.931 . S
H749 C728 0.930 . S
H750 C730 0.930 . S
H751 C731 0.931 . S
H752 C733 0.931 . S
H753 C735 0.930 . S
H754 C737 0.930 . S
H755 C738 0.931 . S
N756 C718 1.343 . S
N756 C739 1.343 . S
N757 C725 1.343 . S
N757 C732 1.343 . S
C758 C759 1.384 1_545 S
C758 C760 1.384 . S
C758 H786 0.931 . S
C759 C758 1.384 1_565 S
C759 C762 1.382 . S
C760 C758 1.384 . S
C760 C761 1.381 1_545 S
C760 H787 0.930 . S
C761 C760 1.381 1_565 S
C761 C763 1.381 . S
C761 C764 1.487 . S
C762 C759 1.382 . S
C762 C763 1.387 . S
C762 H788 0.930 . S
C763 C761 1.381 . S
C763 C762 1.387 . S
C763 H789 0.931 . S
C764 C761 1.487 . S
C764 C771 1.399 1_565 S
C764 N802 1.343 . S
C765 C766 1.384 1_565 S
C765 C767 1.384 . S
C765 H790 0.931 . S
C766 C765 1.384 1_545 S
C766 C769 1.382 . S
C767 C765 1.384 . S
C767 C768 1.381 1_565 S
C767 H791 0.930 . S
C768 C767 1.381 1_545 S
C768 C770 1.381 . S
C768 C771 1.487 . S
C769 C766 1.382 . S
C769 C770 1.387 . S
C769 H792 0.930 . S
C770 C768 1.381 . S
C770 C769 1.387 . S
C770 H793 0.931 . S
C771 C764 1.399 1_545 S
C771 C768 1.487 . S
C771 N803 1.343 . S
C772 C773 1.384 1_565 S
C772 C774 1.384 . S
C772 H794 0.931 . S
C773 C772 1.384 1_545 S
C773 C776 1.382 . S
C774 C772 1.384 . S
C774 C775 1.381 1_565 S
C774 H795 0.930 . S
C775 C774 1.381 1_545 S
C775 C777 1.381 . S
C775 C778 1.487 . S
C776 C773 1.382 . S
C776 C777 1.387 . S
C776 H796 0.930 . S
C777 C775 1.381 . S
C777 C776 1.387 . S
C777 H797 0.931 . S
C778 C775 1.487 . S
C778 C785 1.399 1_545 S
C778 N803 1.343 . S
C779 C780 1.384 1_545 S
C779 C781 1.384 . S
C779 H798 0.931 . S
C780 C779 1.384 1_565 S
C780 C783 1.382 . S
C781 C779 1.384 . S
C781 C782 1.381 1_545 S
C781 H799 0.930 . S
C782 C781 1.381 1_565 S
C782 C784 1.381 . S
C782 C785 1.487 . S
C783 C780 1.382 . S
C783 C784 1.387 . S
C783 H800 0.930 . S
C784 C782 1.381 . S
C784 C783 1.387 . S
C784 H801 0.931 . S
C785 C778 1.399 1_565 S
C785 C782 1.487 . S
C785 N802 1.343 . S
H786 C758 0.931 . S
H787 C760 0.930 . S
H788 C762 0.930 . S
H789 C763 0.931 . S
H790 C765 0.931 . S
H791 C767 0.930 . S
H792 C769 0.930 . S
H793 C770 0.931 . S
H794 C772 0.931 . S
H795 C774 0.930 . S
H796 C776 0.930 . S
H797 C777 0.931 . S
H798 C779 0.931 . S
H799 C781 0.930 . S
H800 C783 0.930 . S
H801 C784 0.931 . S
N802 C764 1.343 . S
N802 C785 1.343 . S
N803 C771 1.343 . S
N803 C778 1.343 . S
C804 C805 1.384 . S
C804 C806 1.384 . S
C804 H832 0.931 . S
C805 C804 1.384 . S
C805 C808 1.382 1_545 S
C806 C804 1.384 . S
C806 C807 1.380 . S
C806 H833 0.930 . S
C807 C806 1.380 . S
C807 C809 1.384 1_545 S
C807 C810 1.492 1_545 S
C808 C805 1.382 1_565 S
C808 C809 1.387 . S
C808 H834 0.930 . S
C809 C807 1.384 1_565 S
C809 C808 1.387 . S
C809 H835 0.931 . S
C810 C807 1.492 1_565 S
C810 C817 1.399 1_565 S
C810 N848 1.336 . S
C811 C812 1.384 . S
C811 C813 1.384 . S
C811 H836 0.931 . S
C812 C811 1.384 . S
C812 C815 1.382 1_565 S
C813 C811 1.384 . S
C813 C814 1.402 . S
C813 H837 0.930 . S
C814 C813 1.402 . S
C814 C816 1.371 1_565 S
C814 C817 1.472 1_565 S
C815 C812 1.382 1_545 S
C815 C816 1.387 . S
C815 H838 0.930 . S
C816 C814 1.371 1_545 S
C816 C815 1.387 . S
C816 H839 0.931 . S
C817 C810 1.399 1_545 S
C817 C814 1.472 1_545 S
C817 N849 1.348 . S
C818 C819 1.384 . S
C818 C820 1.384 . S
C818 H840 0.931 . S
C819 C818 1.384 . S
C819 C822 1.382 1_565 S
C820 C818 1.384 . S
C820 C821 1.380 1_565 S
C820 H841 0.930 . S
C821 C820 1.380 1_545 S
C821 C823 1.384 . S
C821 C824 1.497 . S
C822 C819 1.382 1_545 S
C822 C823 1.387 . S
C822 H842 0.930 . S
C823 C821 1.384 . S
C823 C822 1.387 . S
C823 H843 0.931 . S
C824 C821 1.497 . S
C824 C831 1.399 1_545 S
C824 N849 1.330 . S
C825 C826 1.384 . S
C825 C827 1.384 . S
C825 H844 0.931 . S
C826 C825 1.384 . S
C826 C829 1.382 1_545 S
C827 C825 1.384 . S
C827 C828 1.415 . S
C827 H845 0.930 . S
C828 C827 1.415 . S
C828 C830 1.365 1_545 S
C828 C831 1.472 1_545 S
C829 C826 1.382 1_565 S
C829 C830 1.387 . S
C829 H846 0.930 . S
C830 C828 1.365 1_565 S
C830 C829 1.387 . S
C830 H847 0.931 . S
C831 C824 1.399 1_565 S
C831 C828 1.472 1_565 S
C831 N848 1.342 . S
H832 C804 0.931 . S
H833 C806 0.930 . S
H834 C808 0.930 . S
H835 C809 0.931 . S
H836 C811 0.931 . S
H837 C813 0.930 . S
H838 C815 0.930 . S
H839 C816 0.931 . S
H840 C818 0.931 . S
H841 C820 0.930 . S
H842 C822 0.930 . S
H843 C823 0.931 . S
H844 C825 0.931 . S
H845 C827 0.930 . S
H846 C829 0.930 . S
H847 C830 0.931 . S
N848 C810 1.336 . S
N848 C831 1.342 . S
N849 C817 1.348 . S
N849 C824 1.330 . S
C850 C851 1.384 . S
C850 C852 1.384 . S
C850 H878 0.931 . S
C851 C850 1.384 . S
C851 C854 1.382 1_655 S
C852 C850 1.384 . S
C852 C853 1.427 . S
C852 H879 0.930 . S
C853 C852 1.427 . S
C853 C855 1.359 1_655 S
C853 C856 1.464 . S
C854 C851 1.382 1_455 S
C854 C855 1.387 . S
C854 H880 0.930 . S
C855 C853 1.359 1_455 S
C855 C854 1.387 . S
C855 H881 0.931 . S
C856 C853 1.464 . S
C856 C863 1.399 . S
C856 N894 1.320 1_655 S
C857 C858 1.384 . S
C857 C859 1.384 . S
C857 H882 0.931 . S
C858 C857 1.384 . S
C858 C861 1.382 1_455 S
C859 C857 1.384 . S
C859 C860 1.381 1_455 S
C859 H883 0.930 . S
C860 C859 1.381 1_655 S
C860 C862 1.381 . S
C860 C863 1.499 . S
C861 C858 1.382 1_655 S
C861 C862 1.387 . S
C861 H884 0.930 . S
C862 C860 1.381 . S
C862 C861 1.387 . S
C862 H885 0.931 . S
C863 C856 1.399 . S
C863 C860 1.499 . S
C863 N895 1.331 . S
C864 C865 1.384 . S
C864 C866 1.384 . S
C864 H886 0.931 . S
C865 C864 1.384 . S
C865 C868 1.382 1_455 S
C866 C864 1.384 . S
C866 C867 1.414 . S
C866 H887 0.930 . S
C867 C866 1.414 . S
C867 C869 1.365 1_455 S
C867 C870 1.469 1_455 S
C868 C865 1.382 1_655 S
C868 C869 1.387 . S
C868 H888 0.930 . S
C869 C867 1.365 1_655 S
C869 C868 1.387 . S
C869 H889 0.931 . S
C870 C867 1.469 1_655 S
C870 C877 1.399 1_655 S
C870 N895 1.345 . S
C871 C872 1.384 . S
C871 C873 1.384 . S
C871 H890 0.931 . S
C872 C871 1.384 . S
C872 C875 1.382 1_655 S
C873 C871 1.384 . S
C873 C874 1.381 . S
C873 H891 0.930 . S
C874 C873 1.381 . S
C874 C876 1.381 1_655 S
C874 C877 1.493 1_655 S
C875 C872 1.382 1_455 S
C875 C876 1.387 . S
C875 H892 0.930 . S
C876 C874 1.381 1_455 S
C876 C875 1.387 . S
C876 H893 0.931 . S
C877 C870 1.399 1_455 S
C877 C874 1.493 1_455 S
C877 N894 1.361 . S
H878 C850 0.931 . S
H879 C852 0.930 . S
H880 C854 0.930 . S
H881 C855 0.931 . S
H882 C857 0.931 . S
H883 C859 0.930 . S
H884 C861 0.930 . S
H885 C862 0.931 . S
H886 C864 0.931 . S
H887 C866 0.930 . S
H888 C868 0.930 . S
H889 C869 0.931 . S
H890 C871 0.931 . S
H891 C873 0.930 . S
H892 C875 0.930 . S
H893 C876 0.931 . S
N894 C856 1.320 1_455 S
N894 C877 1.361 . S
N895 C863 1.331 . S
N895 C870 1.345 . S
C896 C897 1.384 . S
C896 C898 1.384 . S
C896 H924 0.931 . S
C897 C896 1.384 . S
C897 C900 1.382 . S
C898 C896 1.384 . S
C898 C899 1.381 . S
C898 H925 0.930 . S
C899 C898 1.381 . S
C899 C901 1.381 . S
C899 C902 1.487 . S
C900 C897 1.382 . S
C900 C901 1.387 . S
C900 H926 0.930 . S
C901 C899 1.381 . S
C901 C900 1.387 . S
C901 H927 0.931 . S
C902 C899 1.487 . S
C902 C909 1.399 . S
C902 N940 1.343 . S
C903 C904 1.384 . S
C903 C905 1.384 . S
C903 H928 0.931 . S
C904 C903 1.384 . S
C904 C907 1.382 . S
C905 C903 1.384 . S
C905 C906 1.381 . S
C905 H929 0.930 . S
C906 C905 1.381 . S
C906 C908 1.381 . S
C906 C909 1.487 . S
C907 C904 1.382 . S
C907 C908 1.387 . S
C907 H930 0.930 . S
C908 C906 1.381 . S
C908 C907 1.387 . S
C908 H931 0.931 . S
C909 C902 1.399 . S
C909 C906 1.487 . S
C909 N941 1.343 . S
C910 C911 1.384 . S
C910 C912 1.384 . S
C910 H932 0.931 . S
C911 C910 1.384 . S
C911 C914 1.382 . S
C912 C910 1.384 . S
C912 C913 1.381 . S
C912 H933 0.930 . S
C913 C912 1.381 . S
C913 C915 1.381 . S
C913 C916 1.487 . S
C914 C911 1.382 . S
C914 C915 1.387 . S
C914 H934 0.930 . S
C915 C913 1.381 . S
C915 C914 1.387 . S
C915 H935 0.931 . S
C916 C913 1.487 . S
C916 C923 1.399 . S
C916 N941 1.343 . S
C917 C918 1.384 . S
C917 C919 1.384 . S
C917 H936 0.931 . S
C918 C917 1.384 . S
C918 C921 1.382 . S
C919 C917 1.384 . S
C919 C920 1.381 . S
C919 H937 0.930 . S
C920 C919 1.381 . S
C920 C922 1.381 . S
C920 C923 1.487 . S
C921 C918 1.382 . S
C921 C922 1.387 . S
C921 H938 0.930 . S
C922 C920 1.381 . S
C922 C921 1.387 . S
C922 H939 0.931 . S
C923 C916 1.399 . S
C923 C920 1.487 . S
C923 N940 1.343 . S
H924 C896 0.931 . S
H925 C898 0.930 . S
H926 C900 0.930 . S
H927 C901 0.931 . S
H928 C903 0.931 . S
H929 C905 0.930 . S
H930 C907 0.930 . S
H931 C908 0.931 . S
H932 C910 0.931 . S
H933 C912 0.930 . S
H934 C914 0.930 . S
H935 C915 0.931 . S
H936 C917 0.931 . S
H937 C919 0.930 . S
H938 C921 0.930 . S
H939 C922 0.931 . S
N940 C902 1.343 . S
N940 C923 1.343 . S
N941 C909 1.343 . S
N941 C916 1.343 . S
C942 C943 1.384 . S
C942 C944 1.384 . S
C942 H970 0.931 . S
C943 C942 1.384 . S
C943 C946 1.382 . S
C944 C942 1.384 . S
C944 C945 1.381 . S
C944 H971 0.930 . S
C945 C944 1.381 . S
C945 C947 1.381 . S
C945 C948 1.487 . S
C946 C943 1.382 . S
C946 C947 1.387 . S
C946 H972 0.930 . S
C947 C945 1.381 . S
C947 C946 1.387 . S
C947 H973 0.931 . S
C948 C945 1.487 . S
C948 C955 1.399 . S
C948 N986 1.343 . S
C949 C950 1.384 . S
C949 C951 1.384 . S
C949 H974 0.931 . S
C950 C949 1.384 . S
C950 C953 1.382 . S
C951 C949 1.384 . S
C951 C952 1.381 . S
C951 H975 0.930 . S
C952 C951 1.381 . S
C952 C954 1.381 . S
C952 C955 1.487 . S
C953 C950 1.382 . S
C953 C954 1.387 . S
C953 H976 0.930 . S
C954 C952 1.381 . S
C954 C953 1.387 . S
C954 H977 0.931 . S
C955 C948 1.399 . S
C955 C952 1.487 . S
C955 N987 1.343 . S
C956 C957 1.384 . S
C956 C958 1.384 . S
C956 H978 0.931 . S
C957 C956 1.384 . S
C957 C960 1.382 . S
C958 C956 1.384 . S
C958 C959 1.381 . S
C958 H979 0.930 . S
C959 C958 1.381 . S
C959 C961 1.381 . S
C959 C962 1.487 . S
C960 C957 1.382 . S
C960 C961 1.387 . S
C960 H980 0.930 . S
C961 C959 1.381 . S
C961 C960 1.387 . S
C961 H981 0.931 . S
C962 C959 1.487 . S
C962 C969 1.399 . S
C962 N987 1.343 . S
C963 C964 1.384 . S
C963 C965 1.384 . S
C963 H982 0.931 . S
C964 C963 1.384 . S
C964 C967 1.382 . S
C965 C963 1.384 . S
C965 C966 1.381 . S
C965 H983 0.930 . S
C966 C965 1.381 . S
C966 C968 1.381 . S
C966 C969 1.487 . S
C967 C964 1.382 . S
C967 C968 1.387 . S
C967 H984 0.930 . S
C968 C966 1.381 . S
C968 C967 1.387 . S
C968 H985 0.931 . S
C969 C962 1.399 . S
C969 C966 1.487 . S
C969 N986 1.343 . S
H970 C942 0.931 . S
H971 C944 0.930 . S
H972 C946 0.930 . S
H973 C947 0.931 . S
H974 C949 0.931 . S
H975 C951 0.930 . S
H976 C953 0.930 . S
H977 C954 0.931 . S
H978 C956 0.931 . S
H979 C958 0.930 . S
H980 C960 0.930 . S
H981 C961 0.931 . S
H982 C963 0.931 . S
H983 C965 0.930 . S
H984 C967 0.930 . S
H985 C968 0.931 . S
N986 C948 1.343 . S
N986 C969 1.343 . S
N987 C955 1.343 . S
N987 C962 1.343 . S
C988 C989 1.384 . S
C988 C990 1.384 . S
C988 H1016 0.931 . S
C989 C988 1.384 . S
C989 C992 1.382 . S
C990 C988 1.384 . S
C990 C991 1.381 . S
C990 H1017 0.930 . S
C991 C990 1.381 . S
C991 C993 1.381 . S
C991 C994 1.487 . S
C992 C989 1.382 . S
C992 C993 1.387 . S
C992 H1018 0.930 . S
C993 C991 1.381 . S
C993 C992 1.387 . S
C993 H1019 0.931 . S
C994 C991 1.487 . S
C994 C1001 1.399 . S
C994 N1032 1.343 . S
C995 C996 1.384 . S
C995 C997 1.384 . S
C995 H1020 0.931 . S
C996 C995 1.384 . S
C996 C999 1.382 . S
C997 C995 1.384 . S
C997 C998 1.381 . S
C997 H1021 0.930 . S
C998 C997 1.381 . S
C998 C1000 1.381 . S
C998 C1001 1.487 . S
C999 C996 1.382 . S
C999 C1000 1.387 . S
C999 H1022 0.930 . S
C1000 C998 1.381 . S
C1000 C999 1.387 . S
C1000 H1023 0.931 . S
C1001 C994 1.399 . S
C1001 C998 1.487 . S
C1001 N1033 1.343 . S
C1002 C1003 1.384 . S
C1002 C1004 1.384 . S
C1002 H1024 0.931 . S
C1003 C1002 1.384 . S
C1003 C1006 1.382 . S
C1004 C1002 1.384 . S
C1004 C1005 1.381 . S
C1004 H1025 0.930 . S
C1005 C1004 1.381 . S
C1005 C1007 1.381 . S
C1005 C1008 1.487 . S
C1006 C1003 1.382 . S
C1006 C1007 1.387 . S
C1006 H1026 0.930 . S
C1007 C1005 1.381 . S
C1007 C1006 1.387 . S
C1007 H1027 0.931 . S
C1008 C1005 1.487 . S
C1008 C1015 1.399 . S
C1008 N1033 1.343 . S
C1009 C1010 1.384 . S
C1009 C1011 1.384 . S
C1009 H1028 0.931 . S
C1010 C1009 1.384 . S
C1010 C1013 1.382 . S
C1011 C1009 1.384 . S
C1011 C1012 1.381 . S
C1011 H1029 0.930 . S
C1012 C1011 1.381 . S
C1012 C1014 1.381 . S
C1012 C1015 1.487 . S
C1013 C1010 1.382 . S
C1013 C1014 1.387 . S
C1013 H1030 0.930 . S
C1014 C1012 1.381 . S
C1014 C1013 1.387 . S
C1014 H1031 0.931 . S
C1015 C1008 1.399 . S
C1015 C1012 1.487 . S
C1015 N1032 1.343 . S
H1016 C988 0.931 . S
H1017 C990 0.930 . S
H1018 C992 0.930 . S
H1019 C993 0.931 . S
H1020 C995 0.931 . S
H1021 C997 0.930 . S
H1022 C999 0.930 . S
H1023 C1000 0.931 . S
H1024 C1002 0.931 . S
H1025 C1004 0.930 . S
H1026 C1006 0.930 . S
H1027 C1007 0.931 . S
H1028 C1009 0.931 . S
H1029 C1011 0.930 . S
H1030 C1013 0.930 . S
H1031 C1014 0.931 . S
N1032 C994 1.343 . S
N1032 C1015 1.343 . S
N1033 C1001 1.343 . S
N1033 C1008 1.343 . S
C1034 C1035 1.384 . S
C1034 C1036 1.384 . S
C1034 H1062 0.931 . S
C1035 C1034 1.384 . S
C1035 C1038 1.382 . S
C1036 C1034 1.384 . S
C1036 C1037 1.381 . S
C1036 H1063 0.930 . S
C1037 C1036 1.381 . S
C1037 C1039 1.381 . S
C1037 C1040 1.487 . S
C1038 C1035 1.382 . S
C1038 C1039 1.387 . S
C1038 H1064 0.930 . S
C1039 C1037 1.381 . S
C1039 C1038 1.387 . S
C1039 H1065 0.931 . S
C1040 C1037 1.487 . S
C1040 C1047 1.399 . S
C1040 N1078 1.343 . S
C1041 C1042 1.384 . S
C1041 C1043 1.384 . S
C1041 H1066 0.931 . S
C1042 C1041 1.384 . S
C1042 C1045 1.382 . S
C1043 C1041 1.384 . S
C1043 C1044 1.381 . S
C1043 H1067 0.930 . S
C1044 C1043 1.381 . S
C1044 C1046 1.381 . S
C1044 C1047 1.487 . S
C1045 C1042 1.382 . S
C1045 C1046 1.387 . S
C1045 H1068 0.930 . S
C1046 C1044 1.381 . S
C1046 C1045 1.387 . S
C1046 H1069 0.931 . S
C1047 C1040 1.399 . S
C1047 C1044 1.487 . S
C1047 N1079 1.343 . S
C1048 C1049 1.384 . S
C1048 C1050 1.384 . S
C1048 H1070 0.931 . S
C1049 C1048 1.384 . S
C1049 C1052 1.382 . S
C1050 C1048 1.384 . S
C1050 C1051 1.381 . S
C1050 H1071 0.930 . S
C1051 C1050 1.381 . S
C1051 C1053 1.381 . S
C1051 C1054 1.487 . S
C1052 C1049 1.382 . S
C1052 C1053 1.387 . S
C1052 H1072 0.930 . S
C1053 C1051 1.381 . S
C1053 C1052 1.387 . S
C1053 H1073 0.931 . S
C1054 C1051 1.487 . S
C1054 C1061 1.399 . S
C1054 N1079 1.343 . S
C1055 C1056 1.384 . S
C1055 C1057 1.384 . S
C1055 H1074 0.931 . S
C1056 C1055 1.384 . S
C1056 C1059 1.382 . S
C1057 C1055 1.384 . S
C1057 C1058 1.381 . S
C1057 H1075 0.930 . S
C1058 C1057 1.381 . S
C1058 C1060 1.381 . S
C1058 C1061 1.487 . S
C1059 C1056 1.382 . S
C1059 C1060 1.387 . S
C1059 H1076 0.930 . S
C1060 C1058 1.381 . S
C1060 C1059 1.387 . S
C1060 H1077 0.931 . S
C1061 C1054 1.399 . S
C1061 C1058 1.487 . S
C1061 N1078 1.343 . S
H1062 C1034 0.931 . S
H1063 C1036 0.930 . S
H1064 C1038 0.930 . S
H1065 C1039 0.931 . S
H1066 C1041 0.931 . S
H1067 C1043 0.930 . S
H1068 C1045 0.930 . S
H1069 C1046 0.931 . S
H1070 C1048 0.931 . S
H1071 C1050 0.930 . S
H1072 C1052 0.930 . S
H1073 C1053 0.931 . S
H1074 C1055 0.931 . S
H1075 C1057 0.930 . S
H1076 C1059 0.930 . S
H1077 C1060 0.931 . S
N1078 C1040 1.343 . S
N1078 C1061 1.343 . S
N1079 C1047 1.343 . S
N1079 C1054 1.343 . S
C1080 C1081 1.363 . S
C1080 C1086 1.379 . S
C1080 N1088 1.356 . S
C1081 C1080 1.363 . S
C1081 C1087 1.363 1_655 S
C1082 C1083 1.363 1_455 S
C1082 C1087 1.379 . S
C1082 N1089 1.356 . S
C1083 C1082 1.363 1_655 S
C1083 C1086 1.363 . S
N1084 C1086 1.356 . S
N1084 H1096 0.984 . S
N1084 H1097 0.985 . S
N1085 C1087 1.356 . S
N1085 H1090 0.984 . S
N1085 H1091 0.985 . S
C1086 C1080 1.379 . S
C1086 C1083 1.363 . S
C1086 N1084 1.356 . S
C1087 C1081 1.363 1_455 S
C1087 C1082 1.379 . S
C1087 N1085 1.356 . S
N1088 C1080 1.356 . S
N1088 H1094 0.984 . S
N1088 H1095 0.984 . S
N1089 C1082 1.356 . S
N1089 H1092 0.984 . S
N1089 H1093 0.985 . S
H1090 N1085 0.984 . S
H1091 N1085 0.985 . S
H1092 N1089 0.984 . S
H1093 N1089 0.985 . S
H1094 N1088 0.984 . S
H1095 N1088 0.984 . S
H1096 N1084 0.984 . S
H1097 N1084 0.985 . S
C1098 C1099 1.363 . S
C1098 C1104 1.379 . S
C1098 N1106 1.356 . S
C1099 C1098 1.363 . S
C1099 C1105 1.363 . S
C1100 C1101 1.363 . S
C1100 C1105 1.379 . S
C1100 N1107 1.356 . S
C1101 C1100 1.363 . S
C1101 C1104 1.363 . S
N1102 C1104 1.356 . S
N1102 H1114 0.984 . S
N1102 H1115 0.985 . S
N1103 C1105 1.356 . S
N1103 H1108 0.984 . S
N1103 H1109 0.985 . S
C1104 C1098 1.379 . S
C1104 C1101 1.363 . S
C1104 N1102 1.356 . S
C1105 C1099 1.363 . S
C1105 C1100 1.379 . S
C1105 N1103 1.356 . S
N1106 C1098 1.356 . S
N1106 H1112 0.984 . S
N1106 H1113 0.984 . S
N1107 C1100 1.356 . S
N1107 H1110 0.984 . S
N1107 H1111 0.985 . S
H1108 N1103 0.984 . S
H1109 N1103 0.985 . S
H1110 N1107 0.984 . S
H1111 N1107 0.985 . S
H1112 N1106 0.984 . S
H1113 N1106 0.984 . S
H1114 N1102 0.984 . S
H1115 N1102 0.985 . S
C1116 C1117 1.363 1_565 S
C1116 C1122 1.379 . S
C1116 N1124 1.356 . S
C1117 C1116 1.363 1_545 S
C1117 C1123 1.363 . S
C1118 C1119 1.363 . S
C1118 C1123 1.379 . S
C1118 N1125 1.356 . S
C1119 C1118 1.363 . S
C1119 C1122 1.363 1_545 S
N1120 C1122 1.356 . S
N1120 H1132 0.984 . S
N1120 H1133 0.985 . S
N1121 C1123 1.356 . S
N1121 H1126 0.984 . S
N1121 H1127 0.985 . S
C1122 C1116 1.379 . S
C1122 C1119 1.363 1_565 S
C1122 N1120 1.356 . S
C1123 C1117 1.363 . S
C1123 C1118 1.379 . S
C1123 N1121 1.356 . S
N1124 C1116 1.356 . S
N1124 H1130 0.984 . S
N1124 H1131 0.984 . S
N1125 C1118 1.356 . S
N1125 H1128 0.984 . S
N1125 H1129 0.985 . S
H1126 N1121 0.984 . S
H1127 N1121 0.985 . S
H1128 N1125 0.984 . S
H1129 N1125 0.985 . S
H1130 N1124 0.984 . S
H1131 N1124 0.984 . S
H1132 N1120 0.984 . S
H1133 N1120 0.985 . S
C1134 C1135 1.363 1_545 S
C1134 C1140 1.379 . S
C1134 N1142 1.356 . S
C1135 C1134 1.363 1_565 S
C1135 C1141 1.363 . S
C1136 C1137 1.363 . S
C1136 C1141 1.379 . S
C1136 N1143 1.356 . S
C1137 C1136 1.363 . S
C1137 C1140 1.363 1_565 S
N1138 C1140 1.356 . S
N1138 H1150 0.984 . S
N1138 H1151 0.985 . S
N1139 C1141 1.356 . S
N1139 H1144 0.984 . S
N1139 H1145 0.985 . S
C1140 C1134 1.379 . S
C1140 C1137 1.363 1_545 S
C1140 N1138 1.356 . S
C1141 C1135 1.363 . S
C1141 C1136 1.379 . S
C1141 N1139 1.356 . S
N1142 C1134 1.356 . S
N1142 H1148 0.984 . S
N1142 H1149 0.984 . S
N1143 C1136 1.356 . S
N1143 H1146 0.984 . S
N1143 H1147 0.985 . S
H1144 N1139 0.984 . S
H1145 N1139 0.985 . S
H1146 N1143 0.984 . S
H1147 N1143 0.985 . S
H1148 N1142 0.984 . S
H1149 N1142 0.984 . S
H1150 N1138 0.984 . S
H1151 N1138 0.985 . S
C1152 C1153 1.363 1_655 S
C1152 C1158 1.379 . S
C1152 N1160 1.356 . S
C1153 C1152 1.363 1_455 S
C1153 C1159 1.363 . S
C1154 C1155 1.363 . S
C1154 C1159 1.379 . S
C1154 N1161 1.356 . S
C1155 C1154 1.363 . S
C1155 C1158 1.363 1_455 S
N1156 C1158 1.356 . S
N1156 H1168 0.984 . S
N1156 H1169 0.985 . S
N1157 C1159 1.356 . S
N1157 H1162 0.984 . S
N1157 H1163 0.985 . S
C1158 C1152 1.379 . S
C1158 C1155 1.363 1_655 S
C1158 N1156 1.356 . S
C1159 C1153 1.363 . S
C1159 C1154 1.379 . S
C1159 N1157 1.356 . S
N1160 C1152 1.356 . S
N1160 H1166 0.984 . S
N1160 H1167 0.984 . S
N1161 C1154 1.356 . S
N1161 H1164 0.984 . S
N1161 H1165 0.985 . S
H1162 N1157 0.984 . S
H1163 N1157 0.985 . S
H1164 N1161 0.984 . S
H1165 N1161 0.985 . S
H1166 N1160 0.984 . S
H1167 N1160 0.984 . S
H1168 N1156 0.984 . S
H1169 N1156 0.985 . S
C1170 C1171 1.363 . S
C1170 C1176 1.379 . S
C1170 N1178 1.356 . S
C1171 C1170 1.363 . S
C1171 C1177 1.363 . S
C1172 C1173 1.363 . S
C1172 C1177 1.379 . S
C1172 N1179 1.356 . S
C1173 C1172 1.363 . S
C1173 C1176 1.363 . S
N1174 C1176 1.356 . S
N1174 H1186 0.984 . S
N1174 H1187 0.985 . S
N1175 C1177 1.356 . S
N1175 H1180 0.984 . S
N1175 H1181 0.985 . S
C1176 C1170 1.379 . S
C1176 C1173 1.363 . S
C1176 N1174 1.356 . S
C1177 C1171 1.363 . S
C1177 C1172 1.379 . S
C1177 N1175 1.356 . S
N1178 C1170 1.356 . S
N1178 H1184 0.984 . S
N1178 H1185 0.984 . S
N1179 C1172 1.356 . S
N1179 H1182 0.984 . S
N1179 H1183 0.985 . S
H1180 N1175 0.984 . S
H1181 N1175 0.985 . S
H1182 N1179 0.984 . S
H1183 N1179 0.985 . S
H1184 N1178 0.984 . S
H1185 N1178 0.984 . S
H1186 N1174 0.984 . S
H1187 N1174 0.985 . S
C1188 C1189 1.351 1_655 S
C1188 C1194 1.367 . S
C1188 N1196 1.380 . S
C1189 C1188 1.351 1_455 S
C1189 C1195 1.363 . S
C1190 C1191 1.363 . S
C1190 C1195 1.379 . S
C1190 N1197 1.356 . S
C1191 C1190 1.363 . S
C1191 C1194 1.363 1_455 S
N1192 C1194 1.356 . S
N1192 H1204 0.984 . S
N1192 H1205 0.985 . S
N1193 C1195 1.356 . S
N1193 H1198 0.984 . S
N1193 H1199 0.985 . S
C1194 C1188 1.367 . S
C1194 C1191 1.363 1_655 S
C1194 N1192 1.356 . S
C1195 C1189 1.363 . S
C1195 C1190 1.379 . S
C1195 N1193 1.356 . S
N1196 C1188 1.380 . S
N1196 H1202 0.984 . S
N1196 H1203 0.984 . S
N1197 C1190 1.356 . S
N1197 H1200 0.984 . S
N1197 H1201 0.985 . S
H1198 N1193 0.984 . S
H1199 N1193 0.985 . S
H1200 N1197 0.984 . S
H1201 N1197 0.985 . S
H1202 N1196 0.984 . S
H1203 N1196 0.984 . S
H1204 N1192 0.984 . S
H1205 N1192 0.985 . S
C1206 C1207 1.363 . S
C1206 C1212 1.379 . S
C1206 N1214 1.356 . S
C1207 C1206 1.363 . S
C1207 C1213 1.363 . S
C1208 C1209 1.363 . S
C1208 C1213 1.379 . S
C1208 N1215 1.356 . S
C1209 C1208 1.363 . S
C1209 C1212 1.363 . S
N1210 C1212 1.356 . S
N1210 H1222 0.984 . S
N1210 H1223 0.985 . S
N1211 C1213 1.356 . S
N1211 H1216 0.984 . S
N1211 H1217 0.985 . S
C1212 C1206 1.379 . S
C1212 C1209 1.363 . S
C1212 N1210 1.356 . S
C1213 C1207 1.363 . S
C1213 C1208 1.379 . S
C1213 N1211 1.356 . S
N1214 C1206 1.356 . S
N1214 H1220 0.984 . S
N1214 H1221 0.984 . S
N1215 C1208 1.356 . S
N1215 H1218 0.984 . S
N1215 H1219 0.985 . S
H1216 N1211 0.984 . S
H1217 N1211 0.985 . S
H1218 N1215 0.984 . S
H1219 N1215 0.985 . S
H1220 N1214 0.984 . S
H1221 N1214 0.984 . S
H1222 N1210 0.984 . S
H1223 N1210 0.985 . S
C1224 C1225 1.363 1_545 S
C1224 C1230 1.379 . S
C1224 N1232 1.356 . S
C1225 C1224 1.363 1_565 S
C1225 C1231 1.363 . S
C1226 C1227 1.363 . S
C1226 C1231 1.379 . S
C1226 N1233 1.356 . S
C1227 C1226 1.363 . S
C1227 C1230 1.363 1_565 S
N1228 C1230 1.356 . S
N1228 H1240 0.984 . S
N1228 H1241 0.985 . S
N1229 C1231 1.356 . S
N1229 H1234 0.984 . S
N1229 H1235 0.985 . S
C1230 C1224 1.379 . S
C1230 C1227 1.363 1_545 S
C1230 N1228 1.356 . S
C1231 C1225 1.363 . S
C1231 C1226 1.379 . S
C1231 N1229 1.356 . S
N1232 C1224 1.356 . S
N1232 H1238 0.984 . S
N1232 H1239 0.984 . S
N1233 C1226 1.356 . S
N1233 H1236 0.984 . S
N1233 H1237 0.985 . S
H1234 N1229 0.984 . S
H1235 N1229 0.985 . S
H1236 N1233 0.984 . S
H1237 N1233 0.985 . S
H1238 N1232 0.984 . S
H1239 N1232 0.984 . S
H1240 N1228 0.984 . S
H1241 N1228 0.985 . S
C1242 C1243 1.363 . S
C1242 C1248 1.379 . S
C1242 N1250 1.356 . S
C1243 C1242 1.363 . S
C1243 C1249 1.363 1_545 S
C1244 C1245 1.363 1_565 S
C1244 C1249 1.379 . S
C1244 N1251 1.356 . S
C1245 C1244 1.363 1_545 S
C1245 C1248 1.363 . S
N1246 C1248 1.356 . S
N1246 H1258 0.984 . S
N1246 H1259 0.985 . S
N1247 C1249 1.356 . S
N1247 H1252 0.984 . S
N1247 H1253 0.985 . S
C1248 C1242 1.379 . S
C1248 C1245 1.363 . S
C1248 N1246 1.356 . S
C1249 C1243 1.363 1_565 S
C1249 C1244 1.379 . S
C1249 N1247 1.356 . S
N1250 C1242 1.356 . S
N1250 H1256 0.984 . S
N1250 H1257 0.984 . S
N1251 C1244 1.356 . S
N1251 H1254 0.984 . S
N1251 H1255 0.985 . S
H1252 N1247 0.984 . S
H1253 N1247 0.985 . S
H1254 N1251 0.984 . S
H1255 N1251 0.985 . S
H1256 N1250 0.984 . S
H1257 N1250 0.984 . S
H1258 N1246 0.984 . S
H1259 N1246 0.985 . S
C1260 C1261 1.363 . S
C1260 C1266 1.379 . S
C1260 N1268 1.356 . S
C1261 C1260 1.363 . S
C1261 C1267 1.363 1_655 S
C1262 C1263 1.363 1_455 S
C1262 C1267 1.379 . S
C1262 N1269 1.356 . S
C1263 C1262 1.363 1_655 S
C1263 C1266 1.363 . S
N1264 C1266 1.356 . S
N1264 H1276 0.984 . S
N1264 H1277 0.985 . S
N1265 C1267 1.356 . S
N1265 H1270 0.984 . S
N1265 H1271 0.985 . S
C1266 C1260 1.379 . S
C1266 C1263 1.363 . S
C1266 N1264 1.356 . S
C1267 C1261 1.363 1_455 S
C1267 C1262 1.379 . S
C1267 N1265 1.356 . S
N1268 C1260 1.356 . S
N1268 H1274 0.984 . S
N1268 H1275 0.984 . S
N1269 C1262 1.356 . S
N1269 H1272 0.984 . S
N1269 H1273 0.985 . S
H1270 N1265 0.984 . S
H1271 N1265 0.985 . S
H1272 N1269 0.984 . S
H1273 N1269 0.985 . S
H1274 N1268 0.984 . S
H1275 N1268 0.984 . S
H1276 N1264 0.984 . S
H1277 N1264 0.985 . S
C1278 C1279 1.363 . S
C1278 C1284 1.379 . S
C1278 N1286 1.356 . S
C1279 C1278 1.363 . S
C1279 C1285 1.363 . S
C1280 C1281 1.363 . S
C1280 C1285 1.379 . S
C1280 N1287 1.356 . S
C1281 C1280 1.363 . S
C1281 C1284 1.363 . S
N1282 C1284 1.356 . S
N1282 H1294 0.984 . S
N1282 H1295 0.985 . S
N1283 C1285 1.356 . S
N1283 H1288 0.984 . S
N1283 H1289 0.985 . S
C1284 C1278 1.379 . S
C1284 C1281 1.363 . S
C1284 N1282 1.356 . S
C1285 C1279 1.363 . S
C1285 C1280 1.379 . S
C1285 N1283 1.356 . S
N1286 C1278 1.356 . S
N1286 H1292 0.984 . S
N1286 H1293 0.984 . S
N1287 C1280 1.356 . S
N1287 H1290 0.984 . S
N1287 H1291 0.985 . S
H1288 N1283 0.984 . S
H1289 N1283 0.985 . S
H1290 N1287 0.984 . S
H1291 N1287 0.985 . S
H1292 N1286 0.984 . S
H1293 N1286 0.984 . S
H1294 N1282 0.984 . S
H1295 N1282 0.985 . S
C1296 C1297 1.363 . S
C1296 C1302 1.379 . S
C1296 N1304 1.356 . S
C1297 C1296 1.363 . S
C1297 C1303 1.363 . S
C1298 C1299 1.363 . S
C1298 C1303 1.379 . S
C1298 N1305 1.356 . S
C1299 C1298 1.363 . S
C1299 C1302 1.363 . S
N1300 C1302 1.356 . S
N1300 H1312 0.984 . S
N1300 H1313 0.985 . S
N1301 C1303 1.356 . S
N1301 H1306 0.984 . S
N1301 H1307 0.985 . S
C1302 C1296 1.379 . S
C1302 C1299 1.363 . S
C1302 N1300 1.356 . S
C1303 C1297 1.363 . S
C1303 C1298 1.379 . S
C1303 N1301 1.356 . S
N1304 C1296 1.356 . S
N1304 H1310 0.984 . S
N1304 H1311 0.984 . S
N1305 C1298 1.356 . S
N1305 H1308 0.984 . S
N1305 H1309 0.985 . S
H1306 N1301 0.984 . S
H1307 N1301 0.985 . S
H1308 N1305 0.984 . S
H1309 N1305 0.985 . S
H1310 N1304 0.984 . S
H1311 N1304 0.984 . S
H1312 N1300 0.984 . S
H1313 N1300 0.985 . S
C1314 C1315 1.363 . S
C1314 C1320 1.379 . S
C1314 N1322 1.356 . S
C1315 C1314 1.363 . S
C1315 C1321 1.363 . S
C1316 C1317 1.363 . S
C1316 C1321 1.379 . S
C1316 N1323 1.356 . S
C1317 C1316 1.363 . S
C1317 C1320 1.363 . S
N1318 C1320 1.356 . S
N1318 H1330 0.984 . S
N1318 H1331 0.985 . S
N1319 C1321 1.356 . S
N1319 H1324 0.984 . S
N1319 H1325 0.985 . S
C1320 C1314 1.379 . S
C1320 C1317 1.363 . S
C1320 N1318 1.356 . S
C1321 C1315 1.363 . S
C1321 C1316 1.379 . S
C1321 N1319 1.356 . S
N1322 C1314 1.356 . S
N1322 H1328 0.984 . S
N1322 H1329 0.984 . S
N1323 C1316 1.356 . S
N1323 H1326 0.984 . S
N1323 H1327 0.985 . S
H1324 N1319 0.984 . S
H1325 N1319 0.985 . S
H1326 N1323 0.984 . S
H1327 N1323 0.985 . S
H1328 N1322 0.984 . S
H1329 N1322 0.984 . S
H1330 N1318 0.984 . S
H1331 N1318 0.985 . S
C1332 C1333 1.363 . S
C1332 C1338 1.379 . S
C1332 N1340 1.356 . S
C1333 C1332 1.363 . S
C1333 C1339 1.363 . S
C1334 C1335 1.363 . S
C1334 C1339 1.379 . S
C1334 N1341 1.356 . S
C1335 C1334 1.363 . S
C1335 C1338 1.363 . S
N1336 C1338 1.356 . S
N1336 H1348 0.984 . S
N1336 H1349 0.985 . S
N1337 C1339 1.356 . S
N1337 H1342 0.984 . S
N1337 H1343 0.985 . S
C1338 C1332 1.379 . S
C1338 C1335 1.363 . S
C1338 N1336 1.356 . S
C1339 C1333 1.363 . S
C1339 C1334 1.379 . S
C1339 N1337 1.356 . S
N1340 C1332 1.356 . S
N1340 H1346 0.984 . S
N1340 H1347 0.984 . S
N1341 C1334 1.356 . S
N1341 H1344 0.984 . S
N1341 H1345 0.985 . S
H1342 N1337 0.984 . S
H1343 N1337 0.985 . S
H1344 N1341 0.984 . S
H1345 N1341 0.985 . S
H1346 N1340 0.984 . S
H1347 N1340 0.984 . S
H1348 N1336 0.984 . S
H1349 N1336 0.985 . S
C1350 C1351 1.363 . S
C1350 C1356 1.379 . S
C1350 N1358 1.356 . S
C1351 C1350 1.363 . S
C1351 C1357 1.363 . S
C1352 C1353 1.363 . S
C1352 C1357 1.379 . S
C1352 N1359 1.356 . S
C1353 C1352 1.363 . S
C1353 C1356 1.363 . S
N1354 C1356 1.356 . S
N1354 H1366 0.984 . S
N1354 H1367 0.985 . S
N1355 C1357 1.356 . S
N1355 H1360 0.984 . S
N1355 H1361 0.985 . S
C1356 C1350 1.379 . S
C1356 C1353 1.363 . S
C1356 N1354 1.356 . S
C1357 C1351 1.363 . S
C1357 C1352 1.379 . S
C1357 N1355 1.356 . S
N1358 C1350 1.356 . S
N1358 H1364 0.984 . S
N1358 H1365 0.984 . S
N1359 C1352 1.356 . S
N1359 H1362 0.984 . S
N1359 H1363 0.985 . S
H1360 N1355 0.984 . S
H1361 N1355 0.985 . S
H1362 N1359 0.984 . S
H1363 N1359 0.985 . S
H1364 N1358 0.984 . S
H1365 N1358 0.984 . S
H1366 N1354 0.984 . S
H1367 N1354 0.985 . S
C1368 C1369 1.363 . S
C1368 C1374 1.379 . S
C1368 N1376 1.356 . S
C1369 C1368 1.363 . S
C1369 C1375 1.363 . S
C1370 C1371 1.363 . S
C1370 C1375 1.379 . S
C1370 N1377 1.356 . S
C1371 C1370 1.363 . S
C1371 C1374 1.363 . S
N1372 C1374 1.356 . S
N1372 H1384 0.984 . S
N1372 H1385 0.985 . S
N1373 C1375 1.356 . S
N1373 H1378 0.984 . S
N1373 H1379 0.985 . S
C1374 C1368 1.379 . S
C1374 C1371 1.363 . S
C1374 N1372 1.356 . S
C1375 C1369 1.363 . S
C1375 C1370 1.379 . S
C1375 N1373 1.356 . S
N1376 C1368 1.356 . S
N1376 H1382 0.984 . S
N1376 H1383 0.984 . S
N1377 C1370 1.356 . S
N1377 H1380 0.984 . S
N1377 H1381 0.985 . S
H1378 N1373 0.984 . S
H1379 N1373 0.985 . S
H1380 N1377 0.984 . S
H1381 N1377 0.985 . S
H1382 N1376 0.984 . S
H1383 N1376 0.984 . S
H1384 N1372 0.984 . S
H1385 N1372 0.985 . S
C1386 C1387 1.363 . S
C1386 C1392 1.379 . S
C1386 N1394 1.356 . S
C1387 C1386 1.363 . S
C1387 C1393 1.363 . S
C1388 C1389 1.363 . S
C1388 C1393 1.379 . S
C1388 N1395 1.356 . S
C1389 C1388 1.363 . S
C1389 C1392 1.363 . S
N1390 C1392 1.356 . S
N1390 H1402 0.984 . S
N1390 H1403 0.985 . S
N1391 C1393 1.356 . S
N1391 H1396 0.984 . S
N1391 H1397 0.985 . S
C1392 C1386 1.379 . S
C1392 C1389 1.363 . S
C1392 N1390 1.356 . S
C1393 C1387 1.363 . S
C1393 C1388 1.379 . S
C1393 N1391 1.356 . S
N1394 C1386 1.356 . S
N1394 H1400 0.984 . S
N1394 H1401 0.984 . S
N1395 C1388 1.356 . S
N1395 H1398 0.984 . S
N1395 H1399 0.985 . S
H1396 N1391 0.984 . S
H1397 N1391 0.985 . S
H1398 N1395 0.984 . S
H1399 N1395 0.985 . S
H1400 N1394 0.984 . S
H1401 N1394 0.984 . S
H1402 N1390 0.984 . S
H1403 N1390 0.985 . S
C1404 C1405 1.363 . S
C1404 C1410 1.379 . S
C1404 N1412 1.356 . S
C1405 C1404 1.363 . S
C1405 C1411 1.363 . S
C1406 C1407 1.363 . S
C1406 C1411 1.379 . S
C1406 N1413 1.356 . S
C1407 C1406 1.363 . S
C1407 C1410 1.363 . S
N1408 C1410 1.356 . S
N1408 H1420 0.984 . S
N1408 H1421 0.985 . S
N1409 C1411 1.356 . S
N1409 H1414 0.984 . S
N1409 H1415 0.985 . S
C1410 C1404 1.379 . S
C1410 C1407 1.363 . S
C1410 N1408 1.356 . S
C1411 C1405 1.363 . S
C1411 C1406 1.379 . S
C1411 N1409 1.356 . S
N1412 C1404 1.356 . S
N1412 H1418 0.984 . S
N1412 H1419 0.984 . S
N1413 C1406 1.356 . S
N1413 H1416 0.984 . S
N1413 H1417 0.985 . S
H1414 N1409 0.984 . S
H1415 N1409 0.985 . S
H1416 N1413 0.984 . S
H1417 N1413 0.985 . S
H1418 N1412 0.984 . S
H1419 N1412 0.984 . S
H1420 N1408 0.984 . S
H1421 N1408 0.985 . S
C1422 C1423 1.363 . S
C1422 C1428 1.379 . S
C1422 N1430 1.356 . S
C1423 C1422 1.363 . S
C1423 C1429 1.363 . S
C1424 C1425 1.363 . S
C1424 C1429 1.379 . S
C1424 N1431 1.356 . S
C1425 C1424 1.363 . S
C1425 C1428 1.363 . S
N1426 C1428 1.356 . S
N1426 H1438 0.984 . S
N1426 H1439 0.985 . S
N1427 C1429 1.356 . S
N1427 H1432 0.984 . S
N1427 H1433 0.985 . S
C1428 C1422 1.379 . S
C1428 C1425 1.363 . S
C1428 N1426 1.356 . S
C1429 C1423 1.363 . S
C1429 C1424 1.379 . S
C1429 N1427 1.356 . S
N1430 C1422 1.356 . S
N1430 H1436 1.021 . S
N1430 H1437 0.984 . S
N1431 C1424 1.356 . S
N1431 H1434 0.984 . S
N1431 H1435 0.985 . S
H1432 N1427 0.984 . S
H1433 N1427 0.985 . S
H1434 N1431 0.984 . S
H1435 N1431 0.985 . S
H1436 N1430 1.021 . S
H1437 N1430 0.984 . S
H1438 N1426 0.984 . S
H1439 N1426 0.985 . S
C1440 C1441 1.363 . S
C1440 C1446 1.379 . S
C1440 N1448 1.356 . S
C1441 C1440 1.363 . S
C1441 C1447 1.363 . S
C1442 C1443 1.363 . S
C1442 C1447 1.379 . S
C1442 N1449 1.356 . S
C1443 C1442 1.363 . S
C1443 C1446 1.363 . S
N1444 C1446 1.356 . S
N1444 H1456 0.984 . S
N1444 H1457 0.985 . S
N1445 C1447 1.356 . S
N1445 H1450 0.984 . S
N1445 H1451 0.985 . S
C1446 C1440 1.379 . S
C1446 C1443 1.363 . S
C1446 N1444 1.356 . S
C1447 C1441 1.363 . S
C1447 C1442 1.379 . S
C1447 N1445 1.356 . S
N1448 C1440 1.356 . S
N1448 H1454 0.984 . S
N1448 H1455 0.984 . S
N1449 C1442 1.356 . S
N1449 H1452 0.984 . S
N1449 H1453 0.985 . S
H1450 N1445 0.984 . S
H1451 N1445 0.985 . S
H1452 N1449 0.984 . S
H1453 N1449 0.985 . S
H1454 N1448 0.984 . S
H1455 N1448 0.984 . S
H1456 N1444 0.984 . S
H1457 N1444 0.985 . S
C1458 C1459 1.363 . S
C1458 C1464 1.379 . S
C1458 N1466 1.356 . S
C1459 C1458 1.363 . S
C1459 C1465 1.363 . S
C1460 C1461 1.363 . S
C1460 C1465 1.379 . S
C1460 N1467 1.356 . S
C1461 C1460 1.363 . S
C1461 C1464 1.363 . S
N1462 C1464 1.356 . S
N1462 H1474 0.984 . S
N1462 H1475 0.985 . S
N1463 C1465 1.356 . S
N1463 H1468 0.984 . S
N1463 H1469 0.985 . S
C1464 C1458 1.379 . S
C1464 C1461 1.363 . S
C1464 N1462 1.356 . S
C1465 C1459 1.363 . S
C1465 C1460 1.379 . S
C1465 N1463 1.356 . S
N1466 C1458 1.356 . S
N1466 H1472 0.984 . S
N1466 H1473 0.984 . S
N1467 C1460 1.356 . S
N1467 H1470 0.984 . S
N1467 H1471 0.985 . S
H1468 N1463 0.984 . S
H1469 N1463 0.985 . S
H1470 N1467 0.984 . S
H1471 N1467 0.985 . S
H1472 N1466 0.984 . S
H1473 N1466 0.984 . S
H1474 N1462 0.984 . S
H1475 N1462 0.985 . S
C1476 C1477 1.363 . S
C1476 C1482 1.379 . S
C1476 N1484 1.356 . S
C1477 C1476 1.363 . S
C1477 C1483 1.363 . S
C1478 C1479 1.363 . S
C1478 C1483 1.379 . S
C1478 N1485 1.356 . S
C1479 C1478 1.363 . S
C1479 C1482 1.363 . S
N1480 C1482 1.356 . S
N1480 H1492 0.984 . S
N1480 H1493 0.985 . S
N1481 C1483 1.356 . S
N1481 H1486 0.984 . S
N1481 H1487 0.985 . S
C1482 C1476 1.379 . S
C1482 C1479 1.363 . S
C1482 N1480 1.356 . S
C1483 C1477 1.363 . S
C1483 C1478 1.379 . S
C1483 N1481 1.356 . S
N1484 C1476 1.356 . S
N1484 H1490 0.984 . S
N1484 H1491 0.984 . S
N1485 C1478 1.356 . S
N1485 H1488 0.984 . S
N1485 H1489 0.985 . S
H1486 N1481 0.984 . S
H1487 N1481 0.985 . S
H1488 N1485 0.984 . S
H1489 N1485 0.985 . S
H1490 N1484 0.984 . S
H1491 N1484 0.984 . S
H1492 N1480 0.984 . S
H1493 N1480 0.985 . S
C1494 C1495 1.363 . S
C1494 C1500 1.379 . S
C1494 N1502 1.356 . S
C1495 C1494 1.363 . S
C1495 C1501 1.363 . S
C1496 C1497 1.363 . S
C1496 C1501 1.379 . S
C1496 N1503 1.356 . S
C1497 C1496 1.363 . S
C1497 C1500 1.363 . S
N1498 C1500 1.356 . S
N1498 H1510 0.984 . S
N1498 H1511 0.985 . S
N1499 C1501 1.356 . S
N1499 H1504 0.984 . S
N1499 H1505 0.985 . S
C1500 C1494 1.379 . S
C1500 C1497 1.363 . S
C1500 N1498 1.356 . S
C1501 C1495 1.363 . S
C1501 C1496 1.379 . S
C1501 N1499 1.356 . S
N1502 C1494 1.356 . S
N1502 H1508 0.984 . S
N1502 H1509 0.984 . S
N1503 C1496 1.356 . S
N1503 H1506 0.984 . S
N1503 H1507 0.985 . S
H1504 N1499 0.984 . S
H1505 N1499 0.985 . S
H1506 N1503 0.984 . S
H1507 N1503 0.985 . S
H1508 N1502 0.984 . S
H1509 N1502 0.984 . S
H1510 N1498 0.984 . S
H1511 N1498 0.985 . S
C1512 C1513 1.363 . S
C1512 C1518 1.379 . S
C1512 N1520 1.356 . S
C1513 C1512 1.363 . S
C1513 C1519 1.363 . S
C1514 C1515 1.363 . S
C1514 C1519 1.379 . S
C1514 N1521 1.356 . S
C1515 C1514 1.363 . S
C1515 C1518 1.363 . S
N1516 C1518 1.356 . S
N1516 H1528 0.984 . S
N1516 H1529 0.985 . S
N1517 C1519 1.356 . S
N1517 H1522 0.984 . S
N1517 H1523 0.985 . S
C1518 C1512 1.379 . S
C1518 C1515 1.363 . S
C1518 N1516 1.356 . S
C1519 C1513 1.363 . S
C1519 C1514 1.379 . S
C1519 N1517 1.356 . S
N1520 C1512 1.356 . S
N1520 H1526 0.984 . S
N1520 H1527 0.984 . S
N1521 C1514 1.356 . S
N1521 H1524 0.984 . S
N1521 H1525 0.985 . S
H1522 N1517 0.984 . S
H1523 N1517 0.985 . S
H1524 N1521 0.984 . S
H1525 N1521 0.985 . S
H1526 N1520 0.984 . S
H1527 N1520 0.984 . S
H1528 N1516 0.984 . S
H1529 N1516 0.985 . S
C1530 C1531 1.363 . S
C1530 C1536 1.379 . S
C1530 N1538 1.356 . S
C1531 C1530 1.363 . S
C1531 C1537 1.363 . S
C1532 C1533 1.363 . S
C1532 C1537 1.379 . S
C1532 N1539 1.356 . S
C1533 C1532 1.363 . S
C1533 C1536 1.363 . S
N1534 C1536 1.356 . S
N1534 H1546 0.984 . S
N1534 H1547 0.985 . S
N1535 C1537 1.356 . S
N1535 H1540 0.984 . S
N1535 H1541 0.985 . S
C1536 C1530 1.379 . S
C1536 C1533 1.363 . S
C1536 N1534 1.356 . S
C1537 C1531 1.363 . S
C1537 C1532 1.379 . S
C1537 N1535 1.356 . S
N1538 C1530 1.356 . S
N1538 H1544 0.984 . S
N1538 H1545 0.984 . S
N1539 C1532 1.356 . S
N1539 H1542 0.984 . S
N1539 H1543 0.985 . S
H1540 N1535 0.984 . S
H1541 N1535 0.985 . S
H1542 N1539 0.984 . S
H1543 N1539 0.985 . S
H1544 N1538 0.984 . S
H1545 N1538 0.984 . S
H1546 N1534 0.984 . S
H1547 N1534 0.985 . S
C1548 C1549 1.363 . S
C1548 C1554 1.379 . S
C1548 N1556 1.356 . S
C1549 C1548 1.363 . S
C1549 C1555 1.363 . S
C1550 C1551 1.363 . S
C1550 C1555 1.379 . S
C1550 N1557 1.356 . S
C1551 C1550 1.363 . S
C1551 C1554 1.363 . S
N1552 C1554 1.356 . S
N1552 H1564 0.984 . S
N1552 H1565 0.985 . S
N1553 C1555 1.356 . S
N1553 H1558 0.984 . S
N1553 H1559 0.985 . S
C1554 C1548 1.379 . S
C1554 C1551 1.363 . S
C1554 N1552 1.356 . S
C1555 C1549 1.363 . S
C1555 C1550 1.379 . S
C1555 N1553 1.356 . S
N1556 C1548 1.356 . S
N1556 H1562 0.984 . S
N1556 H1563 0.984 . S
N1557 C1550 1.356 . S
N1557 H1560 0.984 . S
N1557 H1561 0.985 . S
H1558 N1553 0.984 . S
H1559 N1553 0.985 . S
H1560 N1557 0.984 . S
H1561 N1557 0.985 . S
H1562 N1556 0.984 . S
H1563 N1556 0.984 . S
H1564 N1552 0.984 . S
H1565 N1552 0.985 . S
C1566 C1567 1.363 . S
C1566 C1572 1.379 . S
C1566 N1574 1.356 . S
C1567 C1566 1.363 . S
C1567 C1573 1.363 . S
C1568 C1569 1.363 . S
C1568 C1573 1.379 . S
C1568 N1575 1.356 . S
C1569 C1568 1.363 . S
C1569 C1572 1.363 . S
N1570 C1572 1.356 . S
N1570 H1582 0.984 . S
N1570 H1583 0.985 . S
N1571 C1573 1.356 . S
N1571 H1576 0.984 . S
N1571 H1577 0.985 . S
C1572 C1566 1.379 . S
C1572 C1569 1.363 . S
C1572 N1570 1.356 . S
C1573 C1567 1.363 . S
C1573 C1568 1.379 . S
C1573 N1571 1.356 . S
N1574 C1566 1.356 . S
N1574 H1580 0.984 . S
N1574 H1581 0.984 . S
N1575 C1568 1.356 . S
N1575 H1578 0.984 . S
N1575 H1579 0.985 . S
H1576 N1571 0.984 . S
H1577 N1571 0.985 . S
H1578 N1575 0.984 . S
H1579 N1575 0.985 . S
H1580 N1574 0.984 . S
H1581 N1574 0.984 . S
H1582 N1570 0.984 . S
H1583 N1570 0.985 . S
C1584 C1585 1.363 . S
C1584 C1590 1.379 . S
C1584 N1592 1.356 . S
C1585 C1584 1.363 . S
C1585 C1591 1.363 . S
C1586 C1587 1.363 . S
C1586 C1591 1.379 . S
C1586 N1593 1.356 . S
C1587 C1586 1.363 . S
C1587 C1590 1.363 . S
N1588 C1590 1.356 . S
N1588 H1600 0.984 . S
N1588 H1601 0.985 . S
N1589 C1591 1.356 . S
N1589 H1594 0.984 . S
N1589 H1595 0.985 . S
C1590 C1584 1.379 . S
C1590 C1587 1.363 . S
C1590 N1588 1.356 . S
C1591 C1585 1.363 . S
C1591 C1586 1.379 . S
C1591 N1589 1.356 . S
N1592 C1584 1.356 . S
N1592 H1598 0.984 . S
N1592 H1599 0.984 . S
N1593 C1586 1.356 . S
N1593 H1596 0.984 . S
N1593 H1597 0.985 . S
H1594 N1589 0.984 . S
H1595 N1589 0.985 . S
H1596 N1593 0.984 . S
H1597 N1593 0.985 . S
H1598 N1592 0.984 . S
H1599 N1592 0.984 . S
H1600 N1588 0.984 . S
H1601 N1588 0.985 . S
C1602 C1603 1.363 . S
C1602 C1608 1.379 . S
C1602 N1610 1.356 . S
C1603 C1602 1.363 . S
C1603 C1609 1.363 . S
C1604 C1605 1.363 . S
C1604 C1609 1.379 . S
C1604 N1611 1.356 . S
C1605 C1604 1.363 . S
C1605 C1608 1.363 . S
N1606 C1608 1.356 . S
N1606 H1618 0.984 . S
N1606 H1619 0.985 . S
N1607 C1609 1.356 . S
N1607 H1612 0.984 . S
N1607 H1613 0.985 . S
C1608 C1602 1.379 . S
C1608 C1605 1.363 . S
C1608 N1606 1.356 . S
C1609 C1603 1.363 . S
C1609 C1604 1.379 . S
C1609 N1607 1.356 . S
N1610 C1602 1.356 . S
N1610 H1616 0.984 . S
N1610 H1617 0.984 . S
N1611 C1604 1.356 . S
N1611 H1614 0.984 . S
N1611 H1615 0.985 . S
H1612 N1607 0.984 . S
H1613 N1607 0.985 . S
H1614 N1611 0.984 . S
H1615 N1611 0.985 . S
H1616 N1610 0.984 . S
H1617 N1610 0.984 . S
H1618 N1606 0.984 . S
H1619 N1606 0.985 . S
C1620 C1621 1.363 . S
C1620 C1626 1.379 . S
C1620 N1628 1.356 . S
C1621 C1620 1.363 . S
C1621 C1627 1.363 . S
C1622 C1623 1.363 . S
C1622 C1627 1.379 . S
C1622 N1629 1.356 . S
C1623 C1622 1.363 . S
C1623 C1626 1.363 . S
N1624 C1626 1.356 . S
N1624 H1636 0.984 . S
N1624 H1637 0.985 . S
N1625 C1627 1.356 . S
N1625 H1630 0.984 . S
N1625 H1631 0.985 . S
C1626 C1620 1.379 . S
C1626 C1623 1.363 . S
C1626 N1624 1.356 . S
C1627 C1621 1.363 . S
C1627 C1622 1.379 . S
C1627 N1625 1.356 . S
N1628 C1620 1.356 . S
N1628 H1634 0.984 . S
N1628 H1635 0.984 . S
N1629 C1622 1.356 . S
N1629 H1632 0.984 . S
N1629 H1633 0.985 . S
H1630 N1625 0.984 . S
H1631 N1625 0.985 . S
H1632 N1629 0.984 . S
H1633 N1629 0.985 . S
H1634 N1628 0.984 . S
H1635 N1628 0.984 . S
H1636 N1624 0.984 . S
H1637 N1624 0.985 . S
C1638 C1639 1.363 . S
C1638 C1644 1.379 . S
C1638 N1646 1.356 . S
C1639 C1638 1.363 . S
C1639 C1645 1.363 . S
C1640 C1641 1.363 . S
C1640 C1645 1.379 . S
C1640 N1647 1.356 . S
C1641 C1640 1.363 . S
C1641 C1644 1.363 . S
N1642 C1644 1.356 . S
N1642 H1654 0.984 . S
N1642 H1655 0.985 . S
N1643 C1645 1.356 . S
N1643 H1648 0.984 . S
N1643 H1649 0.985 . S
C1644 C1638 1.379 . S
C1644 C1641 1.363 . S
C1644 N1642 1.356 . S
C1645 C1639 1.363 . S
C1645 C1640 1.379 . S
C1645 N1643 1.356 . S
N1646 C1638 1.356 . S
N1646 H1652 0.984 . S
N1646 H1653 0.984 . S
N1647 C1640 1.356 . S
N1647 H1650 0.984 . S
N1647 H1651 0.985 . S
H1648 N1643 0.984 . S
H1649 N1643 0.985 . S
H1650 N1647 0.984 . S
H1651 N1647 0.985 . S
H1652 N1646 0.984 . S
H1653 N1646 0.984 . S
H1654 N1642 0.984 . S
H1655 N1642 0.985 . S
C1656 C1657 1.363 . S
C1656 C1662 1.379 . S
C1656 N1664 1.356 . S
C1657 C1656 1.363 . S
C1657 C1663 1.363 . S
C1658 C1659 1.363 . S
C1658 C1663 1.379 . S
C1658 N1665 1.356 . S
C1659 C1658 1.363 . S
C1659 C1662 1.363 . S
N1660 C1662 1.356 . S
N1660 H1672 0.984 . S
N1660 H1673 0.985 . S
N1661 C1663 1.356 . S
N1661 H1666 0.984 . S
N1661 H1667 0.985 . S
C1662 C1656 1.379 . S
C1662 C1659 1.363 . S
C1662 N1660 1.356 . S
C1663 C1657 1.363 . S
C1663 C1658 1.379 . S
C1663 N1661 1.356 . S
N1664 C1656 1.356 . S
N1664 H1670 0.984 . S
N1664 H1671 0.984 . S
N1665 C1658 1.356 . S
N1665 H1668 0.984 . S
N1665 H1669 0.985 . S
H1666 N1661 0.984 . S
H1667 N1661 0.985 . S
H1668 N1665 0.984 . S
H1669 N1665 0.985 . S
H1670 N1664 0.984 . S
H1671 N1664 0.984 . S
H1672 N1660 0.984 . S
H1673 N1660 0.985 . S
C1674 C1675 1.363 . S
C1674 C1680 1.379 . S
C1674 N1682 1.356 . S
C1675 C1674 1.363 . S
C1675 C1681 1.363 . S
C1676 C1677 1.363 . S
C1676 C1681 1.379 . S
C1676 N1683 1.356 . S
C1677 C1676 1.363 . S
C1677 C1680 1.363 . S
N1678 C1680 1.356 . S
N1678 H1690 0.984 . S
N1678 H1691 0.985 . S
N1679 C1681 1.356 . S
N1679 H1684 0.984 . S
N1679 H1685 0.985 . S
C1680 C1674 1.379 . S
C1680 C1677 1.363 . S
C1680 N1678 1.356 . S
C1681 C1675 1.363 . S
C1681 C1676 1.379 . S
C1681 N1679 1.356 . S
N1682 C1674 1.356 . S
N1682 H1688 0.984 1_655 S
N1682 H1689 0.984 . S
N1683 C1676 1.356 . S
N1683 H1686 0.984 . S
N1683 H1687 0.985 . S
H1684 N1679 0.984 . S
H1685 N1679 0.985 . S
H1686 N1683 0.984 . S
H1687 N1683 0.985 . S
H1688 N1682 0.984 1_455 S
H1689 N1682 0.984 . S
H1690 N1678 0.984 . S
H1691 N1678 0.985 . S
C1692 C1693 1.363 . S
C1692 C1698 1.379 . S
C1692 N1700 1.356 . S
C1693 C1692 1.363 . S
C1693 C1699 1.363 . S
C1694 C1695 1.363 . S
C1694 C1699 1.379 . S
C1694 N1701 1.356 . S
C1695 C1694 1.363 . S
C1695 C1698 1.363 . S
N1696 C1698 1.356 . S
N1696 H1708 0.984 . S
N1696 H1709 0.985 . S
N1697 C1699 1.356 . S
N1697 H1702 0.984 . S
N1697 H1703 0.985 . S
C1698 C1692 1.379 . S
C1698 C1695 1.363 . S
C1698 N1696 1.356 . S
C1699 C1693 1.363 . S
C1699 C1694 1.379 . S
C1699 N1697 1.356 . S
N1700 C1692 1.356 . S
N1700 H1706 0.984 . S
N1700 H1707 0.984 . S
N1701 C1694 1.356 . S
N1701 H1704 0.984 . S
N1701 H1705 0.985 . S
H1702 N1697 0.984 . S
H1703 N1697 0.985 . S
H1704 N1701 0.984 . S
H1705 N1701 0.985 . S
H1706 N1700 0.984 . S
H1707 N1700 0.984 . S
H1708 N1696 0.984 . S
H1709 N1696 0.985 . S
C1710 C1711 1.363 . S
C1710 C1716 1.379 . S
C1710 N1718 1.356 . S
C1711 C1710 1.363 . S
C1711 C1717 1.363 . S
C1712 C1713 1.363 . S
C1712 C1717 1.379 . S
C1712 N1719 1.356 . S
C1713 C1712 1.363 . S
C1713 C1716 1.363 . S
N1714 C1716 1.356 . S
N1714 H1726 0.984 . S
N1714 H1727 0.985 . S
N1715 C1717 1.356 . S
N1715 H1720 0.984 . S
N1715 H1721 0.985 . S
C1716 C1710 1.379 . S
C1716 C1713 1.363 . S
C1716 N1714 1.356 . S
C1717 C1711 1.363 . S
C1717 C1712 1.379 . S
C1717 N1715 1.356 . S
N1718 C1710 1.356 . S
N1718 H1724 0.984 . S
N1718 H1725 0.984 . S
N1719 C1712 1.356 . S
N1719 H1722 0.984 . S
N1719 H1723 0.985 . S
H1720 N1715 0.984 . S
H1721 N1715 0.985 . S
H1722 N1719 0.984 . S
H1723 N1719 0.985 . S
H1724 N1718 0.984 . S
H1725 N1718 0.984 . S
H1726 N1714 0.984 . S
H1727 N1714 0.985 . S
C1728 C1729 1.363 . S
C1728 C1734 1.379 . S
C1728 N1736 1.356 . S
C1729 C1728 1.363 . S
C1729 C1735 1.363 . S
C1730 C1731 1.363 . S
C1730 C1735 1.379 . S
C1730 N1737 1.356 . S
C1731 C1730 1.363 . S
C1731 C1734 1.363 . S
N1732 C1734 1.356 . S
N1732 H1744 0.984 . S
N1732 H1745 0.985 . S
N1733 C1735 1.356 . S
N1733 H1738 0.984 . S
N1733 H1739 0.985 . S
C1734 C1728 1.379 . S
C1734 C1731 1.363 . S
C1734 N1732 1.356 . S
C1735 C1729 1.363 . S
C1735 C1730 1.379 . S
C1735 N1733 1.356 . S
N1736 C1728 1.356 . S
N1736 H1742 0.984 1_455 S
N1736 H1743 0.984 . S
N1737 C1730 1.356 . S
N1737 H1740 0.984 . S
N1737 H1741 0.985 . S
H1738 N1733 0.984 . S
H1739 N1733 0.985 . S
H1740 N1737 0.984 . S
H1741 N1737 0.985 . S
H1742 N1736 0.984 1_655 S
H1743 N1736 0.984 . S
H1744 N1732 0.984 . S
H1745 N1732 0.985 . S
C1746 C1747 1.363 . S
C1746 C1752 1.379 . S
C1746 N1754 1.356 . S
C1747 C1746 1.363 . S
C1747 C1753 1.363 . S
C1748 C1749 1.363 . S
C1748 C1753 1.379 . S
C1748 N1755 1.356 . S
C1749 C1748 1.363 . S
C1749 C1752 1.363 . S
N1750 C1752 1.356 . S
N1750 H1762 0.984 . S
N1750 H1763 0.985 . S
N1751 C1753 1.356 . S
N1751 H1756 0.984 . S
N1751 H1757 0.985 . S
C1752 C1746 1.379 . S
C1752 C1749 1.363 . S
C1752 N1750 1.356 . S
C1753 C1747 1.363 . S
C1753 C1748 1.379 . S
C1753 N1751 1.356 . S
N1754 C1746 1.356 . S
N1754 H1760 0.984 . S
N1754 H1761 0.984 . S
N1755 C1748 1.356 . S
N1755 H1758 0.984 . S
N1755 H1759 0.985 . S
H1756 N1751 0.984 . S
H1757 N1751 0.985 . S
H1758 N1755 0.984 . S
H1759 N1755 0.985 . S
H1760 N1754 0.984 . S
H1761 N1754 0.984 . S
H1762 N1750 0.984 . S
H1763 N1750 0.985 . S
C1764 C1765 1.363 . S
C1764 C1770 1.379 . S
C1764 N1772 1.356 . S
C1765 C1764 1.363 . S
C1765 C1771 1.363 . S
C1766 C1767 1.363 . S
C1766 C1771 1.379 . S
C1766 N1773 1.356 . S
C1767 C1766 1.363 . S
C1767 C1770 1.363 . S
N1768 C1770 1.356 . S
N1768 H1780 0.984 . S
N1768 H1781 0.985 . S
N1769 C1771 1.356 . S
N1769 H1774 0.984 . S
N1769 H1775 0.985 . S
C1770 C1764 1.379 . S
C1770 C1767 1.363 . S
C1770 N1768 1.356 . S
C1771 C1765 1.363 . S
C1771 C1766 1.379 . S
C1771 N1769 1.356 . S
N1772 C1764 1.356 . S
N1772 H1778 0.984 . S
N1772 H1779 0.984 . S
N1773 C1766 1.356 . S
N1773 H1776 0.984 . S
N1773 H1777 0.985 . S
H1774 N1769 0.984 . S
H1775 N1769 0.985 . S
H1776 N1773 0.984 . S
H1777 N1773 0.985 . S
H1778 N1772 0.984 . S
H1779 N1772 0.984 . S
H1780 N1768 0.984 . S
H1781 N1768 0.985 . S
C1782 C1783 1.363 . S
C1782 C1788 1.379 . S
C1782 N1790 1.356 . S
C1783 C1782 1.363 . S
C1783 C1789 1.363 . S
C1784 C1785 1.363 . S
C1784 C1789 1.379 . S
C1784 N1791 1.356 . S
C1785 C1784 1.363 . S
C1785 C1788 1.363 . S
N1786 C1788 1.356 . S
N1786 H1798 0.984 . S
N1786 H1799 0.985 . S
N1787 C1789 1.356 . S
N1787 H1792 0.984 . S
N1787 H1793 0.985 . S
C1788 C1782 1.379 . S
C1788 C1785 1.363 . S
C1788 N1786 1.356 . S
C1789 C1783 1.363 . S
C1789 C1784 1.379 . S
C1789 N1787 1.356 . S
N1790 C1782 1.356 . S
N1790 H1796 0.984 . S
N1790 H1797 0.984 . S
N1791 C1784 1.356 . S
N1791 H1794 0.984 . S
N1791 H1795 0.985 . S
H1792 N1787 0.984 . S
H1793 N1787 0.985 . S
H1794 N1791 0.984 . S
H1795 N1791 0.985 . S
H1796 N1790 0.984 . S
H1797 N1790 0.984 . S
H1798 N1786 0.984 . S
H1799 N1786 0.985 . S
C1800 C1801 1.363 . S
C1800 C1806 1.379 . S
C1800 N1808 1.356 1_556 S
C1801 C1800 1.363 . S
C1801 C1807 1.363 . S
C1802 C1803 1.363 . S
C1802 C1807 1.379 . S
C1802 N1809 1.356 . S
C1803 C1802 1.363 . S
C1803 C1806 1.363 . S
N1804 C1806 1.356 . S
N1804 H1816 0.984 . S
N1804 H1817 0.985 . S
N1805 C1807 1.356 . S
N1805 H1810 0.984 . S
N1805 H1811 0.985 . S
C1806 C1800 1.379 . S
C1806 C1803 1.363 . S
C1806 N1804 1.356 . S
C1807 C1801 1.363 . S
C1807 C1802 1.379 . S
C1807 N1805 1.356 . S
N1808 C1800 1.356 1_554 S
N1808 H1814 0.984 . S
N1808 H1815 0.984 . S
N1809 C1802 1.356 . S
N1809 H1812 0.984 . S
N1809 H1813 0.985 . S
H1810 N1805 0.984 . S
H1811 N1805 0.985 . S
H1812 N1809 0.984 . S
H1813 N1809 0.985 . S
H1814 N1808 0.984 . S
H1815 N1808 0.984 . S
H1816 N1804 0.984 . S
H1817 N1804 0.985 . S
C1818 C1819 1.363 . S
C1818 C1824 1.379 . S
C1818 N1826 1.356 . S
C1819 C1818 1.363 . S
C1819 C1825 1.363 . S
C1820 C1821 1.363 . S
C1820 C1825 1.379 . S
C1820 N1827 1.356 . S
C1821 C1820 1.363 . S
C1821 C1824 1.363 . S
N1822 C1824 1.356 . S
N1822 H1834 0.984 . S
N1822 H1835 0.985 . S
N1823 C1825 1.356 1_554 S
N1823 H1828 0.984 . S
N1823 H1829 0.985 . S
C1824 C1818 1.379 . S
C1824 C1821 1.363 . S
C1824 N1822 1.356 . S
C1825 C1819 1.363 . S
C1825 C1820 1.379 . S
C1825 N1823 1.356 1_556 S
N1826 C1818 1.356 . S
N1826 H1832 0.984 . S
N1826 H1833 0.984 . S
N1827 C1820 1.356 . S
N1827 H1830 0.984 . S
N1827 H1831 0.985 . S
H1828 N1823 0.984 . S
H1829 N1823 0.985 . S
H1830 N1827 0.984 . S
H1831 N1827 0.985 . S
H1832 N1826 0.984 . S
H1833 N1826 0.984 . S
H1834 N1822 0.984 . S
H1835 N1822 0.985 . S
C1836 C1837 1.363 . S
C1836 C1842 1.379 . S
C1836 N1844 1.337 1_556 S
C1837 C1836 1.363 . S
C1837 C1843 1.363 . S
C1838 C1839 1.363 . S
C1838 C1843 1.379 . S
C1838 N1845 1.356 . S
C1839 C1838 1.363 . S
C1839 C1842 1.363 . S
N1840 C1842 1.356 . S
N1840 H1852 0.984 . S
N1840 H1853 0.985 . S
N1841 C1843 1.356 . S
N1841 H1846 0.984 . S
N1841 H1847 0.985 . S
C1842 C1836 1.379 . S
C1842 C1839 1.363 . S
C1842 N1840 1.356 . S
C1843 C1837 1.363 . S
C1843 C1838 1.379 . S
C1843 N1841 1.356 . S
N1844 C1836 1.337 1_554 S
N1844 H1850 0.998 . S
N1844 H1851 0.991 . S
N1845 C1838 1.356 . S
N1845 H1848 0.984 . S
N1845 H1849 0.985 . S
H1846 N1841 0.984 . S
H1847 N1841 0.985 . S
H1848 N1845 0.984 . S
H1849 N1845 0.985 . S
H1850 N1844 0.998 . S
H1851 N1844 0.991 . S
H1852 N1840 0.984 . S
H1853 N1840 0.985 . S
C1854 C1855 1.363 . S
C1854 C1860 1.379 . S
C1854 N1862 1.356 . S
C1855 C1854 1.363 . S
C1855 C1861 1.363 . S
C1856 C1857 1.363 . S
C1856 C1861 1.379 . S
C1856 N1863 1.356 . S
C1857 C1856 1.363 . S
C1857 C1860 1.363 . S
N1858 C1860 1.356 . S
N1858 H1870 0.984 . S
N1858 H1871 0.985 . S
N1859 C1861 1.356 1_554 S
N1859 H1864 0.984 . S
N1859 H1865 0.985 . S
C1860 C1854 1.379 . S
C1860 C1857 1.363 . S
C1860 N1858 1.356 . S
C1861 C1855 1.363 . S
C1861 C1856 1.379 . S
C1861 N1859 1.356 1_556 S
N1862 C1854 1.356 . S
N1862 H1868 0.984 . S
N1862 H1869 0.984 . S
N1863 C1856 1.356 . S
N1863 H1866 0.984 . S
N1863 H1867 0.985 . S
H1864 N1859 0.984 . S
H1865 N1859 0.985 . S
H1866 N1863 0.984 . S
H1867 N1863 0.985 . S
H1868 N1862 0.984 . S
H1869 N1862 0.984 . S
H1870 N1858 0.984 . S
H1871 N1858 0.985 . S
C1872 C1873 1.363 . S
C1872 C1878 1.379 . S
C1872 N1880 1.356 . S
C1873 C1872 1.363 . S
C1873 C1879 1.363 . S
C1874 C1875 1.363 . S
C1874 C1879 1.379 . S
C1874 N1881 1.356 . S
C1875 C1874 1.363 . S
C1875 C1878 1.363 . S
N1876 C1878 1.356 . S
N1876 H1888 0.984 . S
N1876 H1889 0.985 . S
N1877 C1879 1.356 . S
N1877 H1882 0.984 . S
N1877 H1883 0.985 . S
C1878 C1872 1.379 . S
C1878 C1875 1.363 . S
C1878 N1876 1.356 . S
C1879 C1873 1.363 . S
C1879 C1874 1.379 . S
C1879 N1877 1.356 . S
N1880 C1872 1.356 . S
N1880 H1886 0.984 . S
N1880 H1887 0.984 . S
N1881 C1874 1.356 . S
N1881 H1884 0.984 . S
N1881 H1885 0.985 . S
H1882 N1877 0.984 . S
H1883 N1877 0.985 . S
H1884 N1881 0.984 . S
H1885 N1881 0.985 . S
H1886 N1880 0.984 . S
H1887 N1880 0.984 . S
H1888 N1876 0.984 . S
H1889 N1876 0.985 . S
C1890 C1891 1.363 . S
C1890 C1896 1.379 . S
C1890 N1898 1.356 . S
C1891 C1890 1.363 . S
C1891 C1897 1.363 . S
C1892 C1893 1.363 . S
C1892 C1897 1.379 . S
C1892 N1899 1.356 . S
C1893 C1892 1.363 . S
C1893 C1896 1.363 . S
N1894 C1896 1.356 . S
N1894 H1906 0.984 . S
N1894 H1907 0.985 . S
N1895 C1897 1.356 . S
N1895 H1900 0.984 . S
N1895 H1901 0.985 1_565 S
C1896 C1890 1.379 . S
C1896 C1893 1.363 . S
C1896 N1894 1.356 . S
C1897 C1891 1.363 . S
C1897 C1892 1.379 . S
C1897 N1895 1.356 . S
N1898 C1890 1.356 . S
N1898 H1904 0.984 . S
N1898 H1905 0.984 . S
N1899 C1892 1.356 . S
N1899 H1902 0.984 . S
N1899 H1903 0.985 . S
H1900 N1895 0.984 . S
H1901 N1895 0.985 1_545 S
H1902 N1899 0.984 . S
H1903 N1899 0.985 . S
H1904 N1898 0.984 . S
H1905 N1898 0.984 . S
H1906 N1894 0.984 . S
H1907 N1894 0.985 . S
C1908 C1909 1.363 . S
C1908 C1914 1.379 . S
C1908 N1916 1.356 . S
C1909 C1908 1.363 . S
C1909 C1915 1.363 . S
C1910 C1911 1.363 . S
C1910 C1915 1.379 . S
C1910 N1917 1.356 . S
C1911 C1910 1.363 . S
C1911 C1914 1.363 . S
N1912 C1914 1.356 . S
N1912 H1924 0.984 . S
N1912 H1925 0.985 . S
N1913 C1915 1.356 . S
N1913 H1918 0.984 . S
N1913 H1919 0.985 . S
C1914 C1908 1.379 . S
C1914 C1911 1.363 . S
C1914 N1912 1.356 . S
C1915 C1909 1.363 . S
C1915 C1910 1.379 . S
C1915 N1913 1.356 . S
N1916 C1908 1.356 . S
N1916 H1922 0.984 . S
N1916 H1923 0.984 . S
N1917 C1910 1.356 . S
N1917 H1920 0.984 . S
N1917 H1921 0.985 . S
H1918 N1913 0.984 . S
H1919 N1913 0.985 . S
H1920 N1917 0.984 . S
H1921 N1917 0.985 . S
H1922 N1916 0.984 . S
H1923 N1916 0.984 . S
H1924 N1912 0.984 . S
H1925 N1912 0.985 . S
C1926 C1927 1.363 . S
C1926 C1932 1.379 . S
C1926 N1934 1.356 . S
C1927 C1926 1.363 . S
C1927 C1933 1.363 . S
C1928 C1929 1.363 . S
C1928 C1933 1.379 . S
C1928 N1935 1.356 . S
C1929 C1928 1.363 . S
C1929 C1932 1.363 . S
N1930 C1932 1.356 . S
N1930 H1942 0.984 . S
N1930 H1943 0.985 . S
N1931 C1933 1.356 . S
N1931 H1936 0.984 . S
N1931 H1937 0.985 . S
C1932 C1926 1.379 . S
C1932 C1929 1.363 . S
C1932 N1930 1.356 . S
C1933 C1927 1.363 . S
C1933 C1928 1.379 . S
C1933 N1931 1.356 . S
N1934 C1926 1.356 . S
N1934 H1940 0.984 . S
N1934 H1941 0.984 . S
N1935 C1928 1.356 . S
N1935 H1938 0.984 . S
N1935 H1939 0.985 . S
H1936 N1931 0.984 . S
H1937 N1931 0.985 . S
H1938 N1935 0.984 . S
H1939 N1935 0.985 . S
H1940 N1934 0.984 . S
H1941 N1934 0.984 . S
H1942 N1930 0.984 . S
H1943 N1930 0.985 . S
C1944 C1945 1.363 . S
C1944 C1950 1.379 . S
C1944 N1952 1.356 . S
C1945 C1944 1.363 . S
C1945 C1951 1.363 . S
C1946 C1947 1.363 . S
C1946 C1951 1.379 . S
C1946 N1953 1.356 . S
C1947 C1946 1.363 . S
C1947 C1950 1.363 . S
N1948 C1950 1.356 . S
N1948 H1960 0.984 . S
N1948 H1961 0.985 . S
N1949 C1951 1.356 . S
N1949 H1954 0.984 . S
N1949 H1955 0.985 . S
C1950 C1944 1.379 . S
C1950 C1947 1.363 . S
C1950 N1948 1.356 . S
C1951 C1945 1.363 . S
C1951 C1946 1.379 . S
C1951 N1949 1.356 . S
N1952 C1944 1.356 . S
N1952 H1958 0.984 . S
N1952 H1959 0.984 . S
N1953 C1946 1.356 . S
N1953 H1956 0.984 . S
N1953 H1957 0.985 . S
H1954 N1949 0.984 . S
H1955 N1949 0.985 . S
H1956 N1953 0.984 . S
H1957 N1953 0.985 . S
H1958 N1952 0.984 . S
H1959 N1952 0.984 . S
H1960 N1948 0.984 . S
H1961 N1948 0.985 . S
C1962 C1963 1.363 . S
C1962 C1968 1.379 . S
C1962 N1970 1.356 . S
C1963 C1962 1.363 . S
C1963 C1969 1.363 . S
C1964 C1965 1.363 . S
C1964 C1969 1.379 . S
C1964 N1971 1.356 . S
C1965 C1964 1.363 . S
C1965 C1968 1.363 . S
N1966 C1968 1.356 . S
N1966 H1978 0.984 . S
N1966 H1979 0.985 . S
N1967 C1969 1.356 . S
N1967 H1972 0.984 . S
N1967 H1973 0.985 . S
C1968 C1962 1.379 . S
C1968 C1965 1.363 . S
C1968 N1966 1.356 . S
C1969 C1963 1.363 . S
C1969 C1964 1.379 . S
C1969 N1967 1.356 . S
N1970 C1962 1.356 . S
N1970 H1976 0.984 . S
N1970 H1977 0.984 . S
N1971 C1964 1.356 . S
N1971 H1974 0.984 . S
N1971 H1975 0.985 . S
H1972 N1967 0.984 . S
H1973 N1967 0.985 . S
H1974 N1971 0.984 . S
H1975 N1971 0.985 . S
H1976 N1970 0.984 . S
H1977 N1970 0.984 . S
H1978 N1966 0.984 . S
H1979 N1966 0.985 . S
C1980 C1981 1.363 . S
C1980 C1986 1.379 . S
C1980 N1988 1.356 . S
C1981 C1980 1.363 . S
C1981 C1987 1.363 . S
C1982 C1983 1.363 . S
C1982 C1987 1.379 . S
C1982 N1989 1.356 . S
C1983 C1982 1.363 . S
C1983 C1986 1.363 . S
N1984 C1986 1.356 . S
N1984 H1996 0.984 . S
N1984 H1997 0.985 . S
N1985 C1987 1.356 . S
N1985 H1990 0.984 . S
N1985 H1991 0.985 . S
C1986 C1980 1.379 . S
C1986 C1983 1.363 . S
C1986 N1984 1.356 . S
C1987 C1981 1.363 . S
C1987 C1982 1.379 . S
C1987 N1985 1.356 . S
N1988 C1980 1.356 . S
N1988 H1994 0.984 . S
N1988 H1995 0.984 . S
N1989 C1982 1.356 . S
N1989 H1992 0.984 . S
N1989 H1993 0.985 . S
H1990 N1985 0.984 . S
H1991 N1985 0.985 . S
H1992 N1989 0.984 . S
H1993 N1989 0.985 . S
H1994 N1988 0.984 . S
H1995 N1988 0.984 . S
H1996 N1984 0.984 . S
H1997 N1984 0.985 . S
C1998 C1999 1.363 1_655 S
C1998 C2004 1.379 . S
C1998 N2006 1.356 . S
C1999 C1998 1.363 1_455 S
C1999 C2005 1.363 . S
C2000 C2001 1.363 . S
C2000 C2005 1.379 . S
C2000 N2007 1.356 . S
C2001 C2000 1.363 . S
C2001 C2004 1.363 1_455 S
N2002 C2004 1.356 . S
N2002 H2014 0.984 . S
N2002 H2015 0.985 . S
N2003 C2005 1.356 . S
N2003 H2008 0.984 . S
N2003 H2009 0.985 . S
C2004 C1998 1.379 . S
C2004 C2001 1.363 1_655 S
C2004 N2002 1.356 . S
C2005 C1999 1.363 . S
C2005 C2000 1.379 . S
C2005 N2003 1.356 . S
N2006 C1998 1.356 . S
N2006 H2012 0.984 . S
N2006 H2013 0.984 . S
N2007 C2000 1.356 . S
N2007 H2010 0.984 . S
N2007 H2011 0.985 . S
H2008 N2003 0.984 . S
H2009 N2003 0.985 . S
H2010 N2007 0.984 . S
H2011 N2007 0.985 . S
H2012 N2006 0.984 . S
H2013 N2006 0.984 . S
H2014 N2002 0.984 . S
H2015 N2002 0.985 . S
C2016 C2017 1.363 . S
C2016 C2022 1.379 . S
C2016 N2024 1.356 . S
C2017 C2016 1.363 . S
C2017 C2023 1.363 . S
C2018 C2019 1.363 . S
C2018 C2023 1.379 . S
C2018 N2025 1.356 . S
C2019 C2018 1.363 . S
C2019 C2022 1.363 . S
N2020 C2022 1.356 . S
N2020 H2032 0.984 . S
N2020 H2033 0.985 . S
N2021 C2023 1.356 . S
N2021 H2026 0.984 . S
N2021 H2027 0.985 . S
C2022 C2016 1.379 . S
C2022 C2019 1.363 . S
C2022 N2020 1.356 . S
C2023 C2017 1.363 . S
C2023 C2018 1.379 . S
C2023 N2021 1.356 . S
N2024 C2016 1.356 . S
N2024 H2030 0.984 . S
N2024 H2031 0.984 . S
N2025 C2018 1.356 . S
N2025 H2028 0.984 . S
N2025 H2029 0.985 . S
H2026 N2021 0.984 . S
H2027 N2021 0.985 . S
H2028 N2025 0.984 . S
H2029 N2025 0.985 . S
H2030 N2024 0.984 . S
H2031 N2024 0.984 . S
H2032 N2020 0.984 . S
H2033 N2020 0.985 . S
C2034 C2035 1.363 1_545 S
C2034 C2040 1.379 . S
C2034 N2042 1.356 . S
C2035 C2034 1.363 1_565 S
C2035 C2041 1.363 . S
C2036 C2037 1.363 . S
C2036 C2041 1.379 . S
C2036 N2043 1.356 . S
C2037 C2036 1.363 . S
C2037 C2040 1.363 1_565 S
N2038 C2040 1.356 . S
N2038 H2050 0.984 . S
N2038 H2051 0.985 . S
N2039 C2041 1.356 . S
N2039 H2044 0.984 . S
N2039 H2045 0.985 . S
C2040 C2034 1.379 . S
C2040 C2037 1.363 1_545 S
C2040 N2038 1.356 . S
C2041 C2035 1.363 . S
C2041 C2036 1.379 . S
C2041 N2039 1.356 . S
N2042 C2034 1.356 . S
N2042 H2048 0.984 . S
N2042 H2049 0.984 . S
N2043 C2036 1.356 . S
N2043 H2046 0.984 . S
N2043 H2047 0.985 . S
H2044 N2039 0.984 . S
H2045 N2039 0.985 . S
H2046 N2043 0.984 . S
H2047 N2043 0.985 . S
H2048 N2042 0.984 . S
H2049 N2042 0.984 . S
H2050 N2038 0.984 . S
H2051 N2038 0.985 . S
C2052 C2053 1.363 1_545 S
C2052 C2058 1.379 . S
C2052 N2060 1.356 . S
C2053 C2052 1.363 1_565 S
C2053 C2059 1.363 . S
C2054 C2055 1.363 . S
C2054 C2059 1.379 . S
C2054 N2061 1.356 . S
C2055 C2054 1.363 . S
C2055 C2058 1.363 1_565 S
N2056 C2058 1.356 . S
N2056 H2068 0.984 . S
N2056 H2069 0.985 . S
N2057 C2059 1.356 . S
N2057 H2062 0.984 . S
N2057 H2063 0.985 . S
C2058 C2052 1.379 . S
C2058 C2055 1.363 1_545 S
C2058 N2056 1.356 . S
C2059 C2053 1.363 . S
C2059 C2054 1.379 . S
C2059 N2057 1.356 . S
N2060 C2052 1.356 . S
N2060 H2066 0.984 . S
N2060 H2067 0.984 . S
N2061 C2054 1.356 . S
N2061 H2064 0.984 . S
N2061 H2065 0.985 . S
H2062 N2057 0.984 . S
H2063 N2057 0.985 . S
H2064 N2061 0.984 . S
H2065 N2061 0.985 . S
H2066 N2060 0.984 . S
H2067 N2060 0.984 . S
H2068 N2056 0.984 . S
H2069 N2056 0.985 . S
C2070 C2071 1.363 . S
C2070 C2076 1.379 . S
C2070 N2078 1.356 . S
C2071 C2070 1.363 . S
C2071 C2077 1.363 1_455 S
C2072 C2073 1.363 1_655 S
C2072 C2077 1.379 . S
C2072 N2079 1.356 . S
C2073 C2072 1.363 1_455 S
C2073 C2076 1.363 . S
N2074 C2076 1.356 . S
N2074 H2086 0.984 . S
N2074 H2087 0.985 . S
N2075 C2077 1.356 . S
N2075 H2080 0.984 . S
N2075 H2081 0.985 . S
C2076 C2070 1.379 . S
C2076 C2073 1.363 . S
C2076 N2074 1.356 . S
C2077 C2071 1.363 1_655 S
C2077 C2072 1.379 . S
C2077 N2075 1.356 . S
N2078 C2070 1.356 . S
N2078 H2084 0.984 . S
N2078 H2085 0.984 . S
N2079 C2072 1.356 . S
N2079 H2082 0.984 . S
N2079 H2083 0.985 . S
H2080 N2075 0.984 . S
H2081 N2075 0.985 . S
H2082 N2079 0.984 . S
H2083 N2079 0.985 . S
H2084 N2078 0.984 . S
H2085 N2078 0.984 . S
H2086 N2074 0.984 . S
H2087 N2074 0.985 . S
C2088 C2089 1.363 . S
C2088 C2094 1.379 . S
C2088 N2096 1.356 . S
C2089 C2088 1.363 . S
C2089 C2095 1.363 . S
C2090 C2091 1.363 . S
C2090 C2095 1.379 . S
C2090 N2097 1.356 . S
C2091 C2090 1.363 . S
C2091 C2094 1.363 . S
N2092 C2094 1.356 . S
N2092 H2104 0.984 . S
N2092 H2105 0.985 . S
N2093 C2095 1.356 . S
N2093 H2098 0.984 . S
N2093 H2099 0.985 . S
C2094 C2088 1.379 . S
C2094 C2091 1.363 . S
C2094 N2092 1.356 . S
C2095 C2089 1.363 . S
C2095 C2090 1.379 . S
C2095 N2093 1.356 . S
N2096 C2088 1.356 . S
N2096 H2102 0.984 . S
N2096 H2103 0.984 . S
N2097 C2090 1.356 . S
N2097 H2100 0.984 . S
N2097 H2101 0.985 . S
H2098 N2093 0.984 . S
H2099 N2093 0.985 . S
H2100 N2097 0.984 . S
H2101 N2097 0.985 . S
H2102 N2096 0.984 . S
H2103 N2096 0.984 . S
H2104 N2092 0.984 . S
H2105 N2092 0.985 . S
C2106 C2107 1.363 . S
C2106 C2112 1.379 . S
C2106 N2114 1.356 . S
C2107 C2106 1.363 . S
C2107 C2113 1.363 . S
C2108 C2109 1.363 . S
C2108 C2113 1.379 . S
C2108 N2115 1.356 . S
C2109 C2108 1.363 . S
C2109 C2112 1.363 . S
N2110 C2112 1.356 . S
N2110 H2122 0.984 . S
N2110 H2123 0.985 . S
N2111 C2113 1.356 . S
N2111 H2116 0.984 . S
N2111 H2117 0.985 . S
C2112 C2106 1.379 . S
C2112 C2109 1.363 . S
C2112 N2110 1.356 . S
C2113 C2107 1.363 . S
C2113 C2108 1.379 . S
C2113 N2111 1.356 . S
N2114 C2106 1.356 . S
N2114 H2120 0.984 . S
N2114 H2121 0.984 . S
N2115 C2108 1.356 . S
N2115 H2118 0.984 . S
N2115 H2119 0.985 . S
H2116 N2111 0.984 . S
H2117 N2111 0.985 . S
H2118 N2115 0.984 . S
H2119 N2115 0.985 . S
H2120 N2114 0.984 . S
H2121 N2114 0.984 . S
H2122 N2110 0.984 . S
H2123 N2110 0.985 . S
C2124 C2125 1.363 . S
C2124 C2130 1.379 . S
C2124 N2132 1.356 . S
C2125 C2124 1.363 . S
C2125 C2131 1.363 . S
C2126 C2127 1.363 . S
C2126 C2131 1.379 . S
C2126 N2133 1.356 . S
C2127 C2126 1.363 . S
C2127 C2130 1.363 . S
N2128 C2130 1.356 . S
N2128 H2140 0.984 . S
N2128 H2141 0.985 . S
N2129 C2131 1.356 . S
N2129 H2134 0.984 . S
N2129 H2135 0.985 . S
C2130 C2124 1.379 . S
C2130 C2127 1.363 . S
C2130 N2128 1.356 . S
C2131 C2125 1.363 . S
C2131 C2126 1.379 . S
C2131 N2129 1.356 . S
N2132 C2124 1.356 . S
N2132 H2138 0.984 . S
N2132 H2139 0.984 . S
N2133 C2126 1.356 . S
N2133 H2136 0.984 . S
N2133 H2137 0.985 . S
H2134 N2129 0.984 . S
H2135 N2129 0.985 . S
H2136 N2133 0.984 . S
H2137 N2133 0.985 . S
H2138 N2132 0.984 . S
H2139 N2132 0.984 . S
H2140 N2128 0.984 . S
H2141 N2128 0.985 . S
C2142 C2143 1.363 . S
C2142 C2148 1.379 . S
C2142 N2150 1.356 . S
C2143 C2142 1.363 . S
C2143 C2149 1.363 . S
C2144 C2145 1.363 . S
C2144 C2149 1.379 . S
C2144 N2151 1.356 . S
C2145 C2144 1.363 . S
C2145 C2148 1.363 . S
N2146 C2148 1.356 . S
N2146 H2158 0.984 . S
N2146 H2159 0.985 . S
N2147 C2149 1.356 . S
N2147 H2152 0.984 . S
N2147 H2153 0.985 . S
C2148 C2142 1.379 . S
C2148 C2145 1.363 . S
C2148 N2146 1.356 . S
C2149 C2143 1.363 . S
C2149 C2144 1.379 . S
C2149 N2147 1.356 . S
N2150 C2142 1.356 . S
N2150 H2156 0.984 . S
N2150 H2157 0.984 . S
N2151 C2144 1.356 . S
N2151 H2154 0.984 . S
N2151 H2155 0.985 . S
H2152 N2147 0.984 . S
H2153 N2147 0.985 . S
H2154 N2151 0.984 . S
H2155 N2151 0.985 . S
H2156 N2150 0.984 . S
H2157 N2150 0.984 . S
H2158 N2146 0.984 . S
H2159 N2146 0.985 . S
C2160 C2161 1.363 . S
C2160 C2166 1.379 . S
C2160 N2168 1.356 . S
C2161 C2160 1.363 . S
C2161 C2167 1.363 1_545 S
C2162 C2163 1.363 1_565 S
C2162 C2167 1.379 . S
C2162 N2169 1.356 . S
C2163 C2162 1.363 1_545 S
C2163 C2166 1.363 . S
N2164 C2166 1.356 . S
N2164 H2176 0.984 . S
N2164 H2177 0.985 . S
N2165 C2167 1.356 . S
N2165 H2170 0.984 . S
N2165 H2171 0.985 . S
C2166 C2160 1.379 . S
C2166 C2163 1.363 . S
C2166 N2164 1.356 . S
C2167 C2161 1.363 1_565 S
C2167 C2162 1.379 . S
C2167 N2165 1.356 . S
N2168 C2160 1.356 . S
N2168 H2174 0.984 . S
N2168 H2175 0.984 . S
N2169 C2162 1.356 . S
N2169 H2172 0.984 . S
N2169 H2173 0.985 . S
H2170 N2165 0.984 . S
H2171 N2165 0.985 . S
H2172 N2169 0.984 . S
H2173 N2169 0.985 . S
H2174 N2168 0.984 . S
H2175 N2168 0.984 . S
H2176 N2164 0.984 . S
H2177 N2164 0.985 . S
C2178 C2179 1.363 . S
C2178 C2184 1.379 . S
C2178 N2186 1.356 . S
C2179 C2178 1.363 . S
C2179 C2185 1.363 1_655 S
C2180 C2181 1.363 1_455 S
C2180 C2185 1.379 . S
C2180 N2187 1.356 . S
C2181 C2180 1.363 1_655 S
C2181 C2184 1.363 . S
N2182 C2184 1.356 . S
N2182 H2194 0.984 . S
N2182 H2195 0.985 . S
N2183 C2185 1.356 . S
N2183 H2188 0.984 . S
N2183 H2189 0.985 . S
C2184 C2178 1.379 . S
C2184 C2181 1.363 . S
C2184 N2182 1.356 . S
C2185 C2179 1.363 1_455 S
C2185 C2180 1.379 . S
C2185 N2183 1.356 . S
N2186 C2178 1.356 . S
N2186 H2192 0.984 . S
N2186 H2193 0.984 . S
N2187 C2180 1.356 . S
N2187 H2190 0.984 . S
N2187 H2191 0.985 . S
H2188 N2183 0.984 . S
H2189 N2183 0.985 . S
H2190 N2187 0.984 . S
H2191 N2187 0.985 . S
H2192 N2186 0.984 . S
H2193 N2186 0.984 . S
H2194 N2182 0.984 . S
H2195 N2182 0.985 . S
C2196 C2197 1.363 . S
C2196 C2202 1.379 . S
C2196 N2204 1.356 . S
C2197 C2196 1.363 . S
C2197 C2203 1.363 . S
C2198 C2199 1.363 . S
C2198 C2203 1.379 . S
C2198 N2205 1.356 . S
C2199 C2198 1.363 . S
C2199 C2202 1.363 . S
N2200 C2202 1.356 . S
N2200 H2212 0.984 . S
N2200 H2213 0.985 . S
N2201 C2203 1.356 . S
N2201 H2206 0.984 . S
N2201 H2207 0.985 . S
C2202 C2196 1.379 . S
C2202 C2199 1.363 . S
C2202 N2200 1.356 . S
C2203 C2197 1.363 . S
C2203 C2198 1.379 . S
C2203 N2201 1.356 . S
N2204 C2196 1.356 . S
N2204 H2210 0.984 . S
N2204 H2211 0.984 . S
N2205 C2198 1.356 . S
N2205 H2208 0.984 . S
N2205 H2209 0.985 . S
H2206 N2201 0.984 . S
H2207 N2201 0.985 . S
H2208 N2205 0.984 . S
H2209 N2205 0.985 . S
H2210 N2204 0.984 . S
H2211 N2204 0.984 . S
H2212 N2200 0.984 . S
H2213 N2200 0.985 . S
C2214 C2215 1.363 . S
C2214 C2220 1.379 . S
C2214 N2222 1.356 . S
C2215 C2214 1.363 . S
C2215 C2221 1.363 . S
C2216 C2217 1.363 . S
C2216 C2221 1.379 . S
C2216 N2223 1.356 . S
C2217 C2216 1.363 . S
C2217 C2220 1.363 . S
N2218 C2220 1.356 . S
N2218 H2230 0.984 . S
N2218 H2231 0.985 . S
N2219 C2221 1.356 . S
N2219 H2224 0.984 . S
N2219 H2225 0.985 . S
C2220 C2214 1.379 . S
C2220 C2217 1.363 . S
C2220 N2218 1.356 . S
C2221 C2215 1.363 . S
C2221 C2216 1.379 . S
C2221 N2219 1.356 . S
N2222 C2214 1.356 . S
N2222 H2228 0.984 . S
N2222 H2229 0.984 . S
N2223 C2216 1.356 . S
N2223 H2226 0.984 . S
N2223 H2227 0.985 . S
H2224 N2219 0.984 . S
H2225 N2219 0.985 . S
H2226 N2223 0.984 . S
H2227 N2223 0.985 . S
H2228 N2222 0.984 . S
H2229 N2222 0.984 . S
H2230 N2218 0.984 . S
H2231 N2218 0.985 . S
C2232 C2233 1.363 . S
C2232 C2238 1.379 . S
C2232 N2240 1.356 . S
C2233 C2232 1.363 . S
C2233 C2239 1.363 . S
C2234 C2235 1.363 . S
C2234 C2239 1.379 . S
C2234 N2241 1.356 . S
C2235 C2234 1.363 . S
C2235 C2238 1.363 . S
N2236 C2238 1.356 . S
N2236 H2248 0.984 . S
N2236 H2249 0.985 . S
N2237 C2239 1.356 . S
N2237 H2242 0.984 . S
N2237 H2243 0.985 . S
C2238 C2232 1.379 . S
C2238 C2235 1.363 . S
C2238 N2236 1.356 . S
C2239 C2233 1.363 . S
C2239 C2234 1.379 . S
C2239 N2237 1.356 . S
N2240 C2232 1.356 . S
N2240 H2246 0.984 . S
N2240 H2247 0.984 . S
N2241 C2234 1.356 . S
N2241 H2244 0.984 . S
N2241 H2245 0.985 . S
H2242 N2237 0.984 . S
H2243 N2237 0.985 . S
H2244 N2241 0.984 . S
H2245 N2241 0.985 . S
H2246 N2240 0.984 . S
H2247 N2240 0.984 . S
H2248 N2236 0.984 . S
H2249 N2236 0.985 . S
C2250 C2251 1.363 . S
C2250 C2256 1.379 . S
C2250 N2258 1.356 . S
C2251 C2250 1.363 . S
C2251 C2257 1.363 . S
C2252 C2253 1.363 . S
C2252 C2257 1.379 . S
C2252 N2259 1.356 . S
C2253 C2252 1.363 . S
C2253 C2256 1.363 . S
N2254 C2256 1.356 . S
N2254 H2266 0.984 . S
N2254 H2267 0.985 . S
N2255 C2257 1.356 . S
N2255 H2260 0.984 . S
N2255 H2261 0.985 . S
C2256 C2250 1.379 . S
C2256 C2253 1.363 . S
C2256 N2254 1.356 . S
C2257 C2251 1.363 . S
C2257 C2252 1.379 . S
C2257 N2255 1.356 . S
N2258 C2250 1.356 . S
N2258 H2264 0.984 . S
N2258 H2265 0.984 . S
N2259 C2252 1.356 . S
N2259 H2262 0.984 . S
N2259 H2263 0.985 . S
H2260 N2255 0.984 . S
H2261 N2255 0.985 . S
H2262 N2259 0.984 . S
H2263 N2259 0.985 . S
H2264 N2258 0.984 . S
H2265 N2258 0.984 . S
H2266 N2254 0.984 . S
H2267 N2254 0.985 . S
C2268 C2269 1.363 . S
C2268 C2274 1.379 . S
C2268 N2276 1.356 . S
C2269 C2268 1.363 . S
C2269 C2275 1.363 . S
C2270 C2271 1.363 . S
C2270 C2275 1.379 . S
C2270 N2277 1.356 . S
C2271 C2270 1.363 . S
C2271 C2274 1.363 . S
N2272 C2274 1.356 . S
N2272 H2284 0.984 . S
N2272 H2285 0.985 . S
N2273 C2275 1.356 . S
N2273 H2278 0.984 . S
N2273 H2279 0.985 . S
C2274 C2268 1.379 . S
C2274 C2271 1.363 . S
C2274 N2272 1.356 . S
C2275 C2269 1.363 . S
C2275 C2270 1.379 . S
C2275 N2273 1.356 . S
N2276 C2268 1.356 . S
N2276 H2282 0.984 . S
N2276 H2283 0.984 . S
N2277 C2270 1.356 . S
N2277 H2280 0.984 . S
N2277 H2281 0.985 . S
H2278 N2273 0.984 . S
H2279 N2273 0.985 . S
H2280 N2277 0.984 . S
H2281 N2277 0.985 . S
H2282 N2276 0.984 . S
H2283 N2276 0.984 . S
H2284 N2272 0.984 . S
H2285 N2272 0.985 . S
C2286 C2287 1.363 . S
C2286 C2292 1.379 . S
C2286 N2294 1.356 . S
C2287 C2286 1.363 . S
C2287 C2293 1.363 . S
C2288 C2289 1.363 . S
C2288 C2293 1.379 . S
C2288 N2295 1.356 . S
C2289 C2288 1.363 . S
C2289 C2292 1.363 . S
N2290 C2292 1.356 . S
N2290 H2302 0.984 . S
N2290 H2303 0.985 . S
N2291 C2293 1.356 . S
N2291 H2296 0.984 . S
N2291 H2297 0.985 . S
C2292 C2286 1.379 . S
C2292 C2289 1.363 . S
C2292 N2290 1.356 . S
C2293 C2287 1.363 . S
C2293 C2288 1.379 . S
C2293 N2291 1.356 . S
N2294 C2286 1.356 . S
N2294 H2300 0.984 . S
N2294 H2301 0.984 . S
N2295 C2288 1.356 . S
N2295 H2298 0.984 . S
N2295 H2299 0.985 . S
H2296 N2291 0.984 . S
H2297 N2291 0.985 . S
H2298 N2295 0.984 . S
H2299 N2295 0.985 . S
H2300 N2294 0.984 . S
H2301 N2294 0.984 . S
H2302 N2290 0.984 . S
H2303 N2290 0.985 . S
C2304 C2305 1.363 . S
C2304 C2310 1.379 . S
C2304 N2312 1.356 . S
C2305 C2304 1.363 . S
C2305 C2311 1.363 . S
C2306 C2307 1.363 . S
C2306 C2311 1.379 . S
C2306 N2313 1.356 . S
C2307 C2306 1.363 . S
C2307 C2310 1.363 . S
N2308 C2310 1.356 . S
N2308 H2320 0.984 . S
N2308 H2321 0.985 . S
N2309 C2311 1.356 . S
N2309 H2314 0.984 . S
N2309 H2315 0.985 . S
C2310 C2304 1.379 . S
C2310 C2307 1.363 . S
C2310 N2308 1.356 . S
C2311 C2305 1.363 . S
C2311 C2306 1.379 . S
C2311 N2309 1.356 . S
N2312 C2304 1.356 . S
N2312 H2318 0.984 . S
N2312 H2319 0.984 . S
N2313 C2306 1.356 . S
N2313 H2316 0.984 . S
N2313 H2317 0.985 . S
H2314 N2309 0.984 . S
H2315 N2309 0.985 . S
H2316 N2313 0.984 . S
H2317 N2313 0.985 . S
H2318 N2312 0.984 . S
H2319 N2312 0.984 . S
H2320 N2308 0.984 . S
H2321 N2308 0.985 . S
C2322 C2323 1.363 . S
C2322 C2328 1.379 . S
C2322 N2330 1.356 . S
C2323 C2322 1.363 . S
C2323 C2329 1.363 1_655 S
C2324 C2325 1.363 1_455 S
C2324 C2329 1.379 . S
C2324 N2331 1.356 . S
C2325 C2324 1.363 1_655 S
C2325 C2328 1.363 . S
N2326 C2328 1.356 . S
N2326 H2338 0.984 . S
N2326 H2339 0.985 . S
N2327 C2329 1.356 . S
N2327 H2332 0.984 . S
N2327 H2333 0.985 . S
C2328 C2322 1.379 . S
C2328 C2325 1.363 . S
C2328 N2326 1.356 . S
C2329 C2323 1.363 1_455 S
C2329 C2324 1.379 . S
C2329 N2327 1.356 . S
N2330 C2322 1.356 . S
N2330 H2336 0.984 . S
N2330 H2337 0.984 . S
N2331 C2324 1.356 . S
N2331 H2334 0.984 . S
N2331 H2335 0.985 . S
H2332 N2327 0.984 . S
H2333 N2327 0.985 . S
H2334 N2331 0.984 . S
H2335 N2331 0.985 . S
H2336 N2330 0.984 . S
H2337 N2330 0.984 . S
H2338 N2326 0.984 . S
H2339 N2326 0.985 . S
C2340 C2341 1.363 . S
C2340 C2346 1.379 . S
C2340 N2348 1.356 . S
C2341 C2340 1.363 . S
C2341 C2347 1.363 . S
C2342 C2343 1.363 . S
C2342 C2347 1.379 . S
C2342 N2349 1.356 . S
C2343 C2342 1.363 . S
C2343 C2346 1.363 . S
N2344 C2346 1.356 . S
N2344 H2356 0.984 . S
N2344 H2357 0.985 . S
N2345 C2347 1.356 . S
N2345 H2350 0.984 . S
N2345 H2351 0.985 . S
C2346 C2340 1.379 . S
C2346 C2343 1.363 . S
C2346 N2344 1.356 . S
C2347 C2341 1.363 . S
C2347 C2342 1.379 . S
C2347 N2345 1.356 . S
N2348 C2340 1.356 . S
N2348 H2354 0.984 . S
N2348 H2355 0.984 . S
N2349 C2342 1.356 . S
N2349 H2352 0.984 . S
N2349 H2353 0.985 . S
H2350 N2345 0.984 . S
H2351 N2345 0.985 . S
H2352 N2349 0.984 . S
H2353 N2349 0.985 . S
H2354 N2348 0.984 . S
H2355 N2348 0.984 . S
H2356 N2344 0.984 . S
H2357 N2344 0.985 . S
C2358 C2359 1.363 1_565 S
C2358 C2364 1.379 . S
C2358 N2366 1.356 . S
C2359 C2358 1.363 1_545 S
C2359 C2365 1.363 . S
C2360 C2361 1.363 . S
C2360 C2365 1.379 . S
C2360 N2367 1.356 . S
C2361 C2360 1.363 . S
C2361 C2364 1.363 1_545 S
N2362 C2364 1.356 . S
N2362 H2374 0.984 . S
N2362 H2375 0.985 . S
N2363 C2365 1.356 . S
N2363 H2368 0.984 . S
N2363 H2369 0.985 . S
C2364 C2358 1.379 . S
C2364 C2361 1.363 1_565 S
C2364 N2362 1.356 . S
C2365 C2359 1.363 . S
C2365 C2360 1.379 . S
C2365 N2363 1.356 . S
N2366 C2358 1.356 . S
N2366 H2372 0.984 . S
N2366 H2373 0.984 . S
N2367 C2360 1.356 . S
N2367 H2370 0.984 . S
N2367 H2371 0.985 . S
H2368 N2363 0.984 . S
H2369 N2363 0.985 . S
H2370 N2367 0.984 . S
H2371 N2367 0.985 . S
H2372 N2366 0.984 . S
H2373 N2366 0.984 . S
H2374 N2362 0.984 . S
H2375 N2362 0.985 . S
C1081 C7 1.456 . S
C1083 C688 1.478 . S
C1099 C23 1.630 . S
C1101 C734 1.595 . S
C1119 C766 1.490 . S
C1117 C37 1.449 . S
C1135 C35 1.455 . S
C1137 C819 1.478 . S
C1153 C9 1.459 . S
C1155 C865 1.497 . S
C1171 C21 1.594 . S
C1173 C904 1.623 . S
C1189 C49 1.454 . S
C1191 C858 1.473 . S
C1209 C911 1.609 . S
C1207 C65 1.630 . S
C1227 C812 1.500 . S
C1225 C79 1.454 . S
C1243 C77 1.446 . S
C1245 C773 1.465 . S
C1263 C667 1.499 . S
C1261 C51 1.458 . S
C1279 C63 1.591 . S
C1281 C713 1.606 . S
C1297 C91 1.656 . S
C1299 C943 1.687 . S
C1315 C107 1.703 . S
C1317 C1010 1.652 . S
C1335 C1056 1.649 . S
C1333 C121 1.704 . S
C1351 C119 1.623 . S
C1353 C267 1.630 . S
C1369 C93 1.702 . S
C1371 C313 1.653 . S
C1387 C105 1.645 . S
C1389 C359 1.646 . S
C1405 C133 1.580 . S
C1407 C306 1.590 . S
C1423 C149 1.680 . S
C1425 C352 1.632 . S
C1443 C260 1.649 . S
C1441 C163 1.697 . S
C1461 C1035 1.707 . S
C1459 C161 1.697 . S
C1479 C964 1.663 . S
C1477 C135 1.701 . S
C1497 C989 1.676 . S
C1495 C147 1.663 . S
C1513 C175 1.580 . S
C1515 C391 1.607 . S
C1531 C191 1.675 . S
C1533 C444 1.644 . S
C1549 C205 1.695 . S
C1551 C490 1.664 . S
C1567 C203 1.696 . S
C1569 C536 1.724 . S
C1587 C589 1.652 . S
C1585 C177 1.708 . S
C1605 C635 1.679 . S
C1603 C189 1.666 . S
C1623 C582 1.676 . S
C1621 C217 1.663 . S
C1641 C628 1.658 . S
C1639 C233 1.709 . S
C1657 C247 1.703 . S
C1659 C543 1.666 . S
C1677 C497 1.645 . S
C1675 C245 1.619 . S
C1693 C219 1.698 . S
C1695 C412 1.667 . S
C1713 C451 1.665 . S
C1711 C231 1.647 . S
C1731 C274 1.637 . S
C1729 C8 1.659 . S
C1747 C17 1.579 . S
C1749 C320 1.559 . S
C1767 C366 1.648 . S
C1765 C31 1.655 . S
C1785 C398 1.631 . S
C1783 C36 1.670 . S
C1803 C437 1.612 . S
C1801 C3 1.641 . S
C1821 C483 1.547 . S
C1819 C22 1.596 . S
C1837 C50 1.661 . S
C1839 C504 1.626 . S
C1855 C59 1.572 . S
C1857 C405 1.536 . S
C1873 C73 1.641 . S
C1875 C458 1.618 . S
C1891 C78 1.682 . S
C1893 C299 1.665 . S
C1911 C345 1.632 . S
C1909 C45 1.642 . S
C1927 C64 1.596 . S
C1929 C253 1.566 . S
C1947 C529 1.582 . S
C1945 C92 1.623 . S
C1963 C101 1.683 . S
C1965 C596 1.657 . S
C1981 C115 1.690 . S
C1983 C642 1.667 . S
C2001 C681 1.452 . S
C1999 C120 1.450 . S
C2017 C87 1.614 . S
C2019 C727 1.596 . S
C2035 C106 1.417 . S
C2037 C759 1.420 . S
C2053 C134 1.435 . S
C2055 C780 1.435 . S
C2071 C143 1.439 . S
C2073 C674 1.435 . S
C2091 C720 1.608 . S
C2089 C157 1.622 . S
C2107 C162 1.637 . S
C2109 C575 1.612 . S
C2125 C129 1.688 . S
C2127 C621 1.659 . S
C2145 C550 1.638 . S
C2143 C148 1.687 . S
C2163 C826 1.440 . S
C2161 C176 1.436 . S
C2179 C185 1.438 . S
C2181 C872 1.434 . S
C2197 C199 1.620 . S
C2199 C897 1.591 . S
C2217 C950 1.585 . S
C2215 C204 1.626 . S
C2235 C1003 1.659 . S
C2233 C171 1.687 . S
C2251 C190 1.688 . S
C2253 C1049 1.657 . S
C2269 C218 1.627 . S
C2271 C1042 1.603 . S
C2287 C227 1.679 . S
C2289 C957 1.638 . S
C2307 C996 1.657 . S
C2305 C241 1.680 . S
C2325 C851 1.446 . S
C2323 C246 1.443 . S
C2343 C918 1.584 . S
C2341 C213 1.618 . S
C2359 C232 1.422 . S
C2361 C805 1.423 . S
