# Generated by pormake.
# Topology zzz, (3,6)-cn, num edge types: 1
# Building blocks:
#     Node 0, Type 0, BuildingBlock: PAMTOO_clean_linker_0, # of connection points: 3
#     Node 1, Type 0, BuildingBlock: PAMTOO_clean_linker_0, # of connection points: 3
#     Node 2, Type 0, BuildingBlock: PAMTOO_clean_linker_0, # of connection points: 3
#     Node 3, Type 0, BuildingBlock: PAMTOO_clean_linker_0, # of connection points: 3
#     Node 4, Type 0, BuildingBlock: PAMTOO_clean_linker_0, # of connection points: 3
#     Node 5, Type 0, BuildingBlock: PAMTOO_clean_linker_0, # of connection points: 3
#     Node 6, Type 0, BuildingBlock: PAMTOO_clean_linker_0, # of connection points: 3
#     Node 7, Type 0, BuildingBlock: PAMTOO_clean_linker_0, # of connection points: 3
#     Node 8, Type 1, BuildingBlock: VOLQOD_clean_sbu_1, # of connection points: 6
#     Node 9, Type 1, BuildingBlock: VOLQOD_clean_sbu_1, # of connection points: 6
#     Node 10, Type 1, BuildingBlock: VOLQOD_clean_sbu_1, # of connection points: 6
#     Node 11, Type 1, BuildingBlock: VOLQOD_clean_sbu_1, # of connection points: 6
#     Edge 12, Type (0, 1), BuildingBlock: TEMPAE_clean_linker_10, # of connection points: 2
#     Edge 13, Type (0, 1), BuildingBlock: TEMPAE_clean_linker_10, # of connection points: 2
#     Edge 14, Type (0, 1), BuildingBlock: TEMPAE_clean_linker_10, # of connection points: 2
#     Edge 15, Type (0, 1), BuildingBlock: TEMPAE_clean_linker_10, # of connection points: 2
#     Edge 16, Type (0, 1), BuildingBlock: TEMPAE_clean_linker_10, # of connection points: 2
#     Edge 17, Type (0, 1), BuildingBlock: TEMPAE_clean_linker_10, # of connection points: 2
#     Edge 18, Type (0, 1), BuildingBlock: TEMPAE_clean_linker_10, # of connection points: 2
#     Edge 19, Type (0, 1), BuildingBlock: TEMPAE_clean_linker_10, # of connection points: 2
#     Edge 20, Type (0, 1), BuildingBlock: TEMPAE_clean_linker_10, # of connection points: 2
#     Edge 21, Type (0, 1), BuildingBlock: TEMPAE_clean_linker_10, # of connection points: 2
#     Edge 22, Type (0, 1), BuildingBlock: TEMPAE_clean_linker_10, # of connection points: 2
#     Edge 23, Type (0, 1), BuildingBlock: TEMPAE_clean_linker_10, # of connection points: 2
#     Edge 24, Type (0, 1), BuildingBlock: TEMPAE_clean_linker_10, # of connection points: 2
#     Edge 25, Type (0, 1), BuildingBlock: TEMPAE_clean_linker_10, # of connection points: 2
#     Edge 26, Type (0, 1), BuildingBlock: TEMPAE_clean_linker_10, # of connection points: 2
#     Edge 27, Type (0, 1), BuildingBlock: TEMPAE_clean_linker_10, # of connection points: 2
#     Edge 28, Type (0, 1), BuildingBlock: TEMPAE_clean_linker_10, # of connection points: 2
#     Edge 29, Type (0, 1), BuildingBlock: TEMPAE_clean_linker_10, # of connection points: 2
#     Edge 30, Type (0, 1), BuildingBlock: TEMPAE_clean_linker_10, # of connection points: 2
#     Edge 31, Type (0, 1), BuildingBlock: TEMPAE_clean_linker_10, # of connection points: 2
#     Edge 32, Type (0, 1), BuildingBlock: TEMPAE_clean_linker_10, # of connection points: 2
#     Edge 33, Type (0, 1), BuildingBlock: TEMPAE_clean_linker_10, # of connection points: 2
#     Edge 34, Type (0, 1), BuildingBlock: TEMPAE_clean_linker_10, # of connection points: 2
#     Edge 35, Type (0, 1), BuildingBlock: TEMPAE_clean_linker_10, # of connection points: 2
# Relax obj value: 0.194
# Max RMSD: 0.236
# Mean RMSD: 0.108
data_MOF--net-zzz--node1-VOLQOD_clean_sbu_1--node2-PAMTOO_clean_linker_0--edge1-TEMPAE_clean_linker_10
_symmetry_space_group_name_H-M    P1
_symmetry_Int_Tables_number       1
_symmetry_cell_setting            triclinic
loop_
_symmetry_equiv_pos_as_xyz
'x, y, z'
_cell_length_a     51.831999
_cell_length_b     51.47023
_cell_length_c     17.461378
_cell_angle_alpha  90.181865
_cell_angle_beta   89.904673
_cell_angle_gamma 90.797254
loop_
_atom_site_label
_atom_site_type_symbol
_atom_site_fract_x
_atom_site_fract_y
_atom_site_fract_z
_atom_type_partial_charge
H0 H 0.84172 0.48291 0.18971 0.0
H1 H 0.77513 0.48715 0.04433 0.0
H2 H 0.77461 0.52383 0.26628 0.0
H3 H 0.71985 0.50415 0.22229 0.0
C4 C 0.72614 0.49798 0.16418 0.0
O5 O 0.74717 0.51312 0.14292 0.0
H6 H 0.73128 0.47706 0.16707 0.0
C7 C 0.82186 0.48863 0.18088 0.0
C8 C 0.80956 0.50362 0.23672 0.0
C9 C 0.80977 0.48277 0.11126 0.0
C10 C 0.78459 0.49132 0.09834 0.0
C11 C 0.77167 0.50552 0.15507 0.0
C12 C 0.78435 0.51216 0.22365 0.0
H13 H 0.0288 0.83286 0.18659 0.0
H14 H 0.03304 0.76553 0.04022 0.0
H15 H 0.98918 0.76234 0.24947 0.0
H16 H 0.0096 0.70902 0.21192 0.0
C17 C 0.018 0.71518 0.15614 0.0
O18 O 0.00434 0.73598 0.12857 0.0
H19 H 0.03856 0.72079 0.16655 0.0
C20 C 0.02468 0.81246 0.17555 0.0
C21 C 0.00881 0.79882 0.22681 0.0
C22 C 0.03342 0.80091 0.10761 0.0
C23 C 0.0267 0.77484 0.09257 0.0
C24 C 0.0111 0.76087 0.14428 0.0
C25 C 0.00177 0.77299 0.21076 0.0
H26 H 0.67234 0.03128 0.17675 0.0
H27 H 0.7389 0.03513 0.02915 0.0
H28 H 0.74173 0.99227 0.24005 0.0
H29 H 0.79388 0.01716 0.20056 0.0
C30 C 0.78886 0.02215 0.14054 0.0
O31 O 0.76795 0.00707 0.11815 0.0
H32 H 0.7841 0.04317 0.13873 0.0
C33 C 0.6925 0.02724 0.16569 0.0
C34 C 0.7058 0.01156 0.21717 0.0
C35 C 0.70401 0.03577 0.09734 0.0
C36 C 0.72968 0.02901 0.08195 0.0
C37 C 0.74341 0.01377 0.13411 0.0
C38 C 0.73133 0.00469 0.20114 0.0
H39 H 0.48559 0.66878 0.20156 0.0
H40 H 0.48376 0.73462 0.05039 0.0
H41 H 0.52758 0.73858 0.25917 0.0
H42 H 0.50597 0.79237 0.21408 0.0
C43 C 0.49937 0.78562 0.15672 0.0
O44 O 0.51344 0.7641 0.13617 0.0
H45 H 0.47841 0.78072 0.16066 0.0
C46 C 0.49035 0.68893 0.18926 0.0
C47 C 0.50676 0.70252 0.23935 0.0
C48 C 0.48201 0.70008 0.12059 0.0
C49 C 0.48973 0.72568 0.10345 0.0
C50 C 0.50576 0.73968 0.15405 0.0
C51 C 0.51459 0.72797 0.22147 0.0
H52 H 0.18447 0.53644 0.17794 0.0
H53 H 0.24992 0.53924 0.32939 0.0
H54 H 0.25256 0.49373 0.12257 0.0
H55 H 0.29655 0.54276 0.21188 0.0
C56 C 0.30019 0.52158 0.21842 0.0
O57 O 0.27837 0.50881 0.2448 0.0
H58 H 0.30534 0.5138 0.16101 0.0
C59 C 0.20436 0.53173 0.19053 0.0
C60 C 0.21739 0.51492 0.14116 0.0
C61 C 0.21563 0.5405 0.25903 0.0
C62 C 0.2409 0.53295 0.27644 0.0
C63 C 0.25433 0.51647 0.22659 0.0
C64 C 0.24241 0.50707 0.15965 0.0
H65 H 0.99543 0.1768 0.16007 0.0
H66 H 0.99827 0.24611 0.29775 0.0
H67 H 0.03639 0.2445 0.07853 0.0
H68 H 0.06259 0.28524 0.18839 0.0
C69 C 0.04805 0.28036 0.23312 0.0
O70 O 0.02513 0.27337 0.19813 0.0
H71 H 0.05593 0.26401 0.26729 0.0
C72 C 1.00099 0.19709 0.16688 0.0
C73 C 0.01623 0.20913 0.11064 0.0
C74 C 0.99448 0.21012 0.23442 0.0
C75 C 0.00285 0.23589 0.24521 0.0
C76 C 0.01758 0.24838 0.1883 0.0
C77 C 0.02455 0.23492 0.12146 0.0
H78 H 0.33355 0.00755 0.19134 0.0
H79 H 0.25973 0.99701 0.29949 0.0
H80 H 0.26721 0.04658 0.10196 0.0
H81 H 0.22261 0.06453 0.21249 0.0
C82 C 0.22574 0.0474 0.2498 0.0
O83 O 0.23502 0.0274 0.20493 0.0
H84 H 0.23992 0.05313 0.29492 0.0
C85 C 0.31305 0.01158 0.19341 0.0
C86 C 0.30239 0.02869 0.14037 0.0
C87 C 0.29788 1.00001 0.25037 0.0
C88 C 0.27152 0.00539 0.25434 0.0
C89 C 0.26043 0.02206 0.2004 0.0
C90 C 0.27581 0.03356 0.14297 0.0
H91 H 0.49205 0.32854 0.20029 0.0
H92 H 0.50298 0.25426 0.30537 0.0
H93 H 0.45608 0.26021 0.10268 0.0
H94 H 0.43806 0.21357 0.20726 0.0
C95 C 0.45431 0.21751 0.24733 0.0
O96 O 0.47456 0.22828 0.2061 0.0
H97 H 0.44741 0.23116 0.29232 0.0
C98 C 0.48835 0.30772 0.20103 0.0
C99 C 0.47239 0.29637 0.14522 0.0
C100 C 0.49952 0.29274 0.2583 0.0
C101 C 0.49479 0.26592 0.26022 0.0
C102 C 0.47917 0.25418 0.20388 0.0
C103 C 0.46816 0.26936 0.14589 0.0
O104 O 0.06546 0.00676 0.6271 0.0
Zn105 Zn 0.0392 0.00539 0.71249 0.0
O106 O 0.0038 0.00518 0.67049 0.0
Zn107 Zn 0.98577 0.03603 0.70328 0.0
Zn108 Zn 0.00507 0.00425 0.55839 0.0
Zn109 Zn 0.9842 0.97535 0.70874 0.0
O110 O 0.95521 0.02813 0.7707 0.0
O111 O 0.95189 0.98519 0.7668 0.0
O112 O 0.04614 0.0378 0.77708 0.0
O113 O 0.00979 0.05953 0.75964 0.0
O114 O 0.97365 0.05675 0.61472 0.0
O115 O 0.9871 0.03524 0.51226 0.0
O116 O 0.99012 0.97032 0.51862 0.0
O117 O 0.04558 0.97293 0.77517 0.0
O118 O 0.97543 0.95054 0.62312 0.0
O119 O 0.00619 0.9552 0.78028 0.0
C120 C 0.06378 0.00738 0.55436 0.0
C121 C 0.94357 0.00713 0.78913 0.0
C122 C 0.97578 0.05458 0.54251 0.0
C123 C 0.03252 0.05801 0.78605 0.0
C124 C 0.97931 0.95084 0.55108 0.0
C125 C 0.02991 0.95544 0.79901 0.0
O126 O 0.04193 0.00654 0.52108 0.0
O127 O 0.49616 0.0586 0.62628 0.0
Zn128 Zn 0.49956 0.03229 0.71082 0.0
O129 O 0.50134 0.99663 0.66899 0.0
Zn130 Zn 0.47194 0.97599 0.70394 0.0
Zn131 Zn 0.50167 0.99802 0.5569 0.0
Zn132 Zn 0.53219 0.97932 0.70501 0.0
O133 O 0.48206 0.94398 0.76143 0.0
O134 O 0.52476 0.94583 0.76182 0.0
O135 O 0.46795 0.03645 0.77889 0.0
O136 O 0.45028 0.99687 0.77479 0.0
O137 O 0.44918 0.96572 0.61627 0.0
O138 O 0.47047 0.97921 0.513 0.0
O139 O 0.53535 0.98459 0.51409 0.0
O140 O 0.53199 0.04125 0.77156 0.0
O141 O 0.55665 0.97259 0.61804 0.0
O142 O 0.5513 0.00291 0.77625 0.0
C143 C 0.49617 0.05687 0.55351 0.0
C144 C 0.50366 0.93454 0.78047 0.0
C145 C 0.45092 0.96813 0.54396 0.0
C146 C 0.45037 0.02023 0.79869 0.0
C147 C 0.55554 0.9757 0.54582 0.0
C148 C 0.5501 0.02677 0.7949 0.0
O149 O 0.49854 0.03501 0.52005 0.0
O150 O 0.45191 0.4965 0.63678 0.0
Zn151 Zn 0.47764 0.49596 0.7237 0.0
O152 O 0.51356 0.49778 0.68521 0.0
Zn153 Zn 0.53277 0.46785 0.71992 0.0
Zn154 Zn 0.51337 0.49877 0.57333 0.0
Zn155 Zn 0.53148 0.52852 0.72413 0.0
O156 O 0.5651 0.47747 0.7781 0.0
O157 O 0.56435 0.52047 0.78049 0.0
O158 O 0.47138 0.46285 0.78528 0.0
O159 O 0.51075 0.44626 0.78921 0.0
O160 O 0.54171 0.44463 0.63173 0.0
O161 O 0.52898 0.46624 0.52895 0.0
O162 O 0.53019 0.53175 0.53308 0.0
O163 O 0.4701 0.52734 0.79082 0.0
O164 O 0.53951 0.55364 0.63939 0.0
O165 O 0.50853 0.54714 0.79665 0.0
C166 C 0.4546 0.49837 0.56446 0.0
C167 C 0.57505 0.4992 0.79806 0.0
C168 C 0.53892 0.44626 0.55951 0.0
C169 C 0.48704 0.44561 0.80807 0.0
C170 C 0.53845 0.55228 0.56666 0.0
C171 C 0.4849 0.54543 0.81591 0.0
O172 O 0.4769 0.49956 0.53391 0.0
O173 O 0.97818 0.53887 0.58201 0.0
Zn174 Zn 0.01136 0.53545 0.64356 0.0
O175 O 0.01482 0.49958 0.68254 0.0
Zn176 Zn 0.01507 0.49989 0.79454 0.0
Zn177 Zn 0.98658 0.47743 0.64572 0.0
Zn178 Zn 0.04668 0.48444 0.64629 0.0
O179 O 0.04844 0.48598 0.83716 0.0
O180 O 0.07134 0.47823 0.73239 0.0
O181 O 0.01004 0.56136 0.7309 0.0
O182 O 0.01299 0.53655 0.83407 0.0
O183 O 0.98391 0.48076 0.8367 0.0
O184 O 0.96459 0.46494 0.73286 0.0
O185 O 0.99858 0.44638 0.58459 0.0
O186 O 0.04228 0.54565 0.57738 0.0
O187 O 0.0411 0.45087 0.58973 0.0
O188 O 0.06437 0.50886 0.57498 0.0
C189 C 0.96128 0.52193 0.56203 0.0
C190 C 0.0694 0.47918 0.80498 0.0
C191 C 0.96547 0.46808 0.80511 0.0
C192 C 0.01106 0.55884 0.8034 0.0
C193 C 0.02106 0.43834 0.56823 0.0
C194 C 0.06133 0.53229 0.5544 0.0
O195 O 0.96286 0.49818 0.58097 0.0
C196 C 0.19542 0.01364 0.30848 0.0
C197 C 0.20085 0.03961 0.28914 0.0
C198 C 0.17293 0.00685 0.34923 0.0
C199 C 0.15586 0.02655 0.373 0.0
C200 C 0.16141 0.0528 0.3544 0.0
C201 C 0.18385 0.05898 0.31279 0.0
C202 C 0.16761 0.97864 0.36766 0.0
C203 C 0.1439 0.07442 0.37965 0.0
C204 C 0.08642 0.01038 0.42739 0.0
C205 C 0.08763 0.01049 0.50773 0.0
C206 C 0.10859 0.01496 0.38276 0.0
C207 C 0.13253 0.0199 0.41924 0.0
C208 C 0.13401 0.01948 0.50018 0.0
C209 C 0.11159 0.01471 0.5434 0.0
C210 C 0.10628 0.01503 0.29656 0.0
C211 C 0.15918 0.02476 0.54126 0.0
H212 H 0.20878 0.9986 0.29215 0.0
H213 H 0.18834 0.07911 0.29947 0.0
H214 H 0.16751 0.97584 0.43063 0.0
H215 H 0.14824 0.97274 0.34627 0.0
H216 H 0.18219 0.96556 0.3421 0.0
H217 H 0.15078 0.09378 0.35958 0.0
H218 H 0.12411 0.07091 0.35746 0.0
H219 H 0.14261 0.07483 0.44308 0.0
H220 H 0.06806 0.00705 0.39915 0.0
H221 H 0.11279 0.01484 0.60536 0.0
H222 H 0.12029 0.00138 0.271 0.0
H223 H 0.11106 0.03468 0.27428 0.0
H224 H 0.08658 0.00948 0.27695 0.0
H225 H 0.17414 0.01116 0.5209 0.0
H226 H 0.15727 0.02279 0.60437 0.0
H227 H 0.16616 0.04473 0.52818 0.0
C228 C 0.48733 0.18998 0.31553 0.0
C229 C 0.46231 0.19275 0.28639 0.0
C230 C 0.49419 0.1677 0.35662 0.0
C231 C 0.4754 0.14804 0.37056 0.0
C232 C 0.45007 0.15083 0.3417 0.0
C233 C 0.44383 0.17318 0.30014 0.0
C234 C 0.52142 0.1654 0.38615 0.0
C235 C 0.42939 0.13046 0.35614 0.0
C236 C 0.49564 0.08001 0.4272 0.0
C237 C 0.49219 0.08057 0.50696 0.0
C238 C 0.49075 0.10198 0.38222 0.0
C239 C 0.48192 0.12498 0.41768 0.0
C240 C 0.47868 0.12578 0.49818 0.0
C241 C 0.48399 0.10364 0.54185 0.0
C242 C 0.49471 0.10047 0.29664 0.0
C243 C 0.46908 0.14988 0.53809 0.0
H244 H 0.50155 0.2053 0.30669 0.0
H245 H 0.42433 0.17557 0.27921 0.0
H246 H 0.52128 0.16501 0.44967 0.0
H247 H 0.5299 0.14688 0.36627 0.0
H248 H 0.53407 0.18174 0.36707 0.0
H249 H 0.41081 0.13528 0.32831 0.0
H250 H 0.43575 0.1113 0.33446 0.0
H251 H 0.42606 0.12844 0.41864 0.0
H252 H 0.50208 0.06233 0.39971 0.0
H253 H 0.48115 0.10428 0.60333 0.0
H254 H 0.50801 0.11627 0.27767 0.0
H255 H 0.47607 0.1033 0.2669 0.0
H256 H 0.50274 0.08154 0.27829 0.0
H257 H 0.48196 0.16668 0.52506 0.0
H258 H 0.46803 0.1475 0.60124 0.0
H259 H 0.44958 0.15467 0.51664 0.0
C260 C 0.3327 0.49247 0.28033 0.0
C261 C 0.32223 0.51727 0.27283 0.0
C262 C 0.35364 0.48815 0.32944 0.0
C263 C 0.36436 0.5092 0.3717 0.0
C264 C 0.35354 0.53422 0.36515 0.0
C265 C 0.3325 0.53792 0.31602 0.0
C266 C 0.3645 0.46117 0.3353 0.0
C267 C 0.36447 0.55718 0.40899 0.0
C268 C 0.40655 0.49661 0.54544 0.0
C269 C 0.43143 0.50004 0.51482 0.0
C270 C 0.38454 0.49909 0.49928 0.0
C271 C 0.38744 0.50532 0.42079 0.0
C272 C 0.41247 0.50852 0.38936 0.0
C273 C 0.43413 0.50576 0.43661 0.0
C274 C 0.35816 0.49532 0.53469 0.0
C275 C 0.41638 0.51532 0.30601 0.0
H276 H 0.32458 0.47651 0.24716 0.0
H277 H 0.32427 0.55708 0.31061 0.0
H278 H 0.38477 0.46126 0.31479 0.0
H279 H 0.36469 0.45483 0.39597 0.0
H280 H 0.35326 0.44671 0.3012 0.0
H281 H 0.35345 0.5752 0.39891 0.0
H282 H 0.36438 0.553 0.47127 0.0
H283 H 0.38484 0.56071 0.39183 0.0
H284 H 0.40424 0.4921 0.60567 0.0
H285 H 0.45322 0.5085 0.41228 0.0
H286 H 0.34715 0.48013 0.50289 0.0
H287 H 0.34714 0.51358 0.53049 0.0
H288 H 0.3592 0.4896 0.59589 0.0
H289 H 0.40689 0.50047 0.26905 0.0
H290 H 0.43712 0.51669 0.29012 0.0
H291 H 0.40726 0.53421 0.29349 0.0
C292 C 0.04386 0.32853 0.25324 0.0
C293 C 0.04361 0.30346 0.2841 0.0
C294 C 0.03931 0.35029 0.29973 0.0
C295 C 0.03426 0.34678 0.37881 0.0
C296 C 0.03345 0.32139 0.40986 0.0
C297 C 0.03795 0.29998 0.36189 0.0
C298 C 0.04013 0.37703 0.26438 0.0
C299 C 0.02812 0.31687 0.49383 0.0
C300 C 0.04876 0.40403 0.51006 0.0
C301 C 0.02413 0.41435 0.52191 0.0
C302 C 0.05224 0.38188 0.46444 0.0
C303 C 0.03061 0.36976 0.42937 0.0
C304 C 0.00566 0.37987 0.44158 0.0
C305 C 0.0027 0.40201 0.4879 0.0
C306 C 0.07914 0.37158 0.45317 0.0
C307 C 0.98215 0.36752 0.4048 0.0
H308 H 0.04773 0.33107 0.19267 0.0
H309 H 0.03725 0.28049 0.38522 0.0
H310 H 0.02168 0.38709 0.27527 0.0
H311 H 0.0557 0.3889 0.29125 0.0
H312 H 0.04356 0.37634 0.20159 0.0
H313 H 0.02763 0.29589 0.50859 0.0
H314 H 0.04323 0.32668 0.52886 0.0
H315 H 0.00937 0.32547 0.51003 0.0
H316 H 0.06545 0.41333 0.53626 0.0
H317 H 0.98361 0.40984 0.49653 0.0
H318 H 0.08437 0.37224 0.39156 0.0
H319 H 0.07986 0.35097 0.47129 0.0
H320 H 0.09385 0.38287 0.486 0.0
H321 H 0.98411 0.36812 0.34154 0.0
H322 H 0.96405 0.37742 0.42125 0.0
H323 H 0.98051 0.34678 0.42141 0.0
C324 C 0.80827 0.02103 0.00821 0.0
C325 C 0.81129 0.01768 0.08728 0.0
C326 C 0.82923 0.01825 0.95794 0.0
C327 C 0.85387 0.01233 0.98769 0.0
C328 C 0.85697 0.00881 0.06757 0.0
C329 C 0.83562 0.01154 0.11643 0.0
C330 C 0.82513 0.0221 0.87317 0.0
C331 C 0.88294 0.00269 0.10158 0.0
C332 C 0.90555 0.98592 0.85454 0.0
C333 C 0.92029 0.00836 0.83871 0.0
C334 C 0.88376 0.98693 0.90242 0.0
C335 C 0.87662 0.01091 0.9357 0.0
C336 C 0.89136 0.03362 0.91987 0.0
C337 C 0.91293 0.03209 0.87145 0.0
C338 C 0.86841 0.96233 0.91762 0.0
C339 C 0.88449 0.05954 0.95462 0.0
H340 H 0.78949 0.02607 0.98588 0.0
H341 H 0.83803 0.00922 0.17767 0.0
H342 H 0.83669 0.03906 0.85316 0.0
H343 H 0.83187 0.00486 0.84091 0.0
H344 H 0.80455 0.02537 0.85891 0.0
H345 H 0.88193 0.99969 0.16449 0.0
H346 H 0.89081 0.98495 0.07455 0.0
H347 H 0.89677 0.01884 0.08973 0.0
H348 H 0.91102 0.9675 0.82948 0.0
H349 H 0.92419 0.04955 0.85992 0.0
H350 H 0.84803 0.96494 0.90025 0.0
H351 H 0.8684 0.95803 0.97984 0.0
H352 H 0.87624 0.94533 0.88641 0.0
H353 H 0.86461 0.06481 0.93794 0.0
H354 H 0.89791 0.07538 0.93645 0.0
H355 H 0.88488 0.05825 0.01802 0.0
C356 C 0.50613 0.83267 0.12107 0.0
C357 C 0.50274 0.80677 0.09782 0.0
C358 C 0.50741 0.85283 0.06719 0.0
C359 C 0.50515 0.84694 0.98816 0.0
C360 C 0.50197 0.82077 0.96432 0.0
C361 C 0.50053 0.80102 0.01954 0.0
C362 C 0.51053 0.88051 0.09498 0.0
C363 C 0.49955 0.81369 0.88065 0.0
C364 C 0.48101 0.90081 0.85992 0.0
C365 C 0.50408 0.91094 0.82916 0.0
C366 C 0.48109 0.87975 0.91072 0.0
C367 C 0.5048 0.86832 0.93095 0.0
C368 C 0.52809 0.87792 0.89854 0.0
C369 C 0.52748 0.89918 0.84827 0.0
C370 C 0.45583 0.87019 0.94435 0.0
C371 C 0.55371 0.86605 0.91817 0.0
H372 H 0.50738 0.83719 0.18164 0.0
H373 H 0.49741 0.78104 0.00158 0.0
H374 H 0.52755 0.88985 0.06733 0.0
H375 H 0.49337 0.89187 0.07861 0.0
H376 H 0.51293 0.88174 0.15811 0.0
H377 H 0.49876 0.79233 0.87135 0.0
H378 H 0.48177 0.82222 0.85672 0.0
H379 H 0.51611 0.8219 0.84796 0.0
H380 H 0.46282 0.90973 0.84576 0.0
H381 H 0.54539 0.90678 0.82468 0.0
H382 H 0.4561 0.87273 0.00747 0.0
H383 H 0.45314 0.84914 0.93261 0.0
H384 H 0.43901 0.88069 0.92103 0.0
H385 H 0.5577 0.86871 0.98013 0.0
H386 H 0.56991 0.87486 0.88506 0.0
H387 H 0.55308 0.84483 0.90674 0.0
C388 C 0.70946 0.49788 0.02836 0.0
C389 C 0.70458 0.50063 0.10694 0.0
C390 C 0.6893 0.49852 0.97479 0.0
C391 C 0.66359 0.50152 0.00063 0.0
C392 C 0.65857 0.50432 0.07998 0.0
C393 C 0.67913 0.50379 0.13218 0.0
C394 C 0.69544 0.49554 0.8907 0.0
C395 C 0.63142 0.50734 0.1099 0.0
C396 C 0.61119 0.52333 0.86386 0.0
C397 C 0.59872 0.49969 0.84592 0.0
C398 C 0.63267 0.52417 0.91282 0.0
C399 C 0.64181 0.50085 0.94511 0.0
C400 C 0.62963 0.4769 0.92621 0.0
C401 C 0.60832 0.47659 0.87667 0.0
C402 C 0.6453 0.55006 0.93108 0.0
C403 C 0.63871 0.45162 0.95978 0.0
H404 H 0.72907 0.49495 0.0089 0.0
H405 H 0.67527 0.50547 0.19302 0.0
H406 H 0.68618 0.47753 0.86815 0.0
H407 H 0.68748 0.51205 0.85804 0.0
H408 H 0.71653 0.49463 0.87973 0.0
H409 H 0.63086 0.50997 0.17305 0.0
H410 H 0.62224 0.52432 0.0827 0.0
H411 H 0.61964 0.48992 0.09472 0.0
H412 H 0.60401 0.54128 0.84024 0.0
H413 H 0.59883 0.45823 0.86341 0.0
H414 H 0.66622 0.54945 0.91777 0.0
H415 H 0.64343 0.55426 0.99319 0.0
H416 H 0.63662 0.56626 0.89857 0.0
H417 H 0.65944 0.44885 0.94658 0.0
H418 H 0.62761 0.43457 0.93766 0.0
H419 H 0.63676 0.45217 0.02305 0.0
C420 C 0.99253 0.68026 0.08748 0.0
C421 C 0.01625 0.69291 0.10019 0.0
C422 C 0.99059 0.65903 0.03699 0.0
C423 C 0.01296 0.65023 -0.00129 0.0
C424 C 0.03689 0.66325 0.01049 0.0
C425 C 0.03822 0.68454 0.06087 0.0
C426 C 0.96471 0.64578 0.02552 0.0
C427 C 0.06119 0.65439 0.97102 0.0
C428 C 0.01495 0.57995 0.93241 0.0
C429 C 0.01069 0.58225 0.85334 0.0
C430 C 0.01553 0.60188 0.9803 0.0
C431 C 0.0116 0.62679 0.94861 0.0
C432 C 0.0069 0.62928 0.86913 0.0
C433 C 0.00659 0.60699 0.82238 0.0
C434 C 0.02073 0.59843 0.06474 0.0
C435 C 0.00244 0.6555 0.8334 0.0
H436 H 0.97556 0.6869 0.1177 0.0
H437 H 0.05653 0.69444 0.07034 0.0
H438 H 0.95982 0.64515 0.9637 0.0
H439 H 0.96555 0.62539 0.04569 0.0
H440 H 0.94899 0.65575 0.05681 0.0
H441 H 0.07811 0.66706 0.98471 0.0
H442 H 0.06557 0.63423 0.98855 0.0
H443 H 0.0584 0.6542 0.90804 0.0
H444 H 0.01818 0.56097 0.95703 0.0
H445 H 0.0032 0.609 0.76147 0.0
H446 H 0.00466 0.60655 0.09891 0.0
H447 H 0.03854 0.60928 0.08101 0.0
H448 H 0.02304 0.5777 0.08055 0.0
H449 H 0.98603 0.66518 0.86211 0.0
H450 H 0.99828 0.65406 0.77113 0.0
H451 H 0.01971 0.66817 0.84158 0.0
C452 C 0.99629 0.18922 0.3616 0.0
C453 C 0.98207 0.19484 0.29588 0.0
C454 C 0.98975 0.16768 0.40698 0.0
C455 C 0.96832 0.15177 0.38621 0.0
C456 C 0.95212 0.15932 0.32533 0.0
C457 C 0.95936 0.18072 0.28026 0.0
C458 C 0.00745 0.16038 0.47179 0.0
C459 C 0.92866 0.14339 0.30293 0.0
C460 C 0.98024 0.08055 0.42272 0.0
C461 C 0.96884 0.07716 0.49486 0.0
C462 C 0.97902 0.10448 0.38486 0.0
C463 C 0.96569 0.12534 0.41946 0.0
C464 C 0.95219 0.12131 0.4889 0.0
C465 C 0.95408 0.0973 0.52614 0.0
C466 C 0.99362 0.10795 0.31051 0.0
C467 C 0.93716 0.14281 0.52643 0.0
H468 H 0.01397 0.20005 0.37309 0.0
H469 H 0.9484 0.18515 0.22918 0.0
H470 H 0.99617 0.15524 0.52371 0.0
H471 H 0.01865 0.14303 0.45501 0.0
H472 H 0.02126 0.17633 0.48647 0.0
H473 H 0.9153 0.15466 0.26656 0.0
H474 H 0.93483 0.12607 0.27003 0.0
H475 H 0.91807 0.13642 0.35434 0.0
H476 H 0.99165 0.06512 0.39811 0.0
H477 H 0.94496 0.09473 0.58157 0.0
H478 H 0.00975 0.12208 0.31898 0.0
H479 H 0.98081 0.11596 0.26586 0.0
H480 H 0.00171 0.08943 0.28901 0.0
H481 H 0.92598 0.15374 0.48337 0.0
H482 H 0.95076 0.15672 0.55425 0.0
H483 H 0.9237 0.13521 0.57085 0.0
C484 C 0.32302 0.9615 0.28791 0.0
C485 C 0.3112 0.98477 0.30899 0.0
C486 C 0.34363 0.95179 0.33069 0.0
C487 C 0.35292 0.96622 0.39428 0.0
C488 C 0.33921 0.98823 0.42014 0.0
C489 C 0.31831 0.99716 0.37723 0.0
C490 C 0.35707 0.9277 0.30301 0.0
C491 C 0.34845 0.00422 0.48763 0.0
C492 C 0.40713 0.94768 0.52788 0.0
C493 C 0.42779 0.9622 0.49704 0.0
C494 C 0.38293 0.947 0.49181 0.0
C495 C 0.37926 0.96163 0.42441 0.0
C496 C 0.40056 0.97466 0.38995 0.0
C497 C 0.42464 0.97452 0.42628 0.0
C498 C 0.36097 0.93208 0.52871 0.0
C499 C 0.3975 0.99052 0.3179 0.0
H500 H 0.31757 0.95211 0.23453 0.0
H501 H 0.30932 0.01536 0.39257 0.0
H502 H 0.37427 0.93341 0.26876 0.0
H503 H 0.36375 0.91584 0.35189 0.0
H504 H 0.34422 0.91555 0.26621 0.0
H505 H 0.334 0.01876 0.50583 0.0
H506 H 0.35282 0.99156 0.53703 0.0
H507 H 0.36654 0.01471 0.47185 0.0
H508 H 0.40949 0.93782 0.58214 0.0
H509 H 0.44048 0.98573 0.40192 0.0
H510 H 0.3487 0.92235 0.48486 0.0
H511 H 0.34863 0.94572 0.56109 0.0
H512 H 0.36808 0.91722 0.56924 0.0
H513 H 0.38841 0.97859 0.27208 0.0
H514 H 0.41623 0.9983 0.29625 0.0
H515 H 0.3846 0.00713 0.32948 0.0
C516 C 0.5384 0.31758 0.29944 0.0
C517 C 0.51439 0.30646 0.31797 0.0
C518 C 0.54875 0.33808 0.34333 0.0
C519 C 0.53429 0.34797 0.40547 0.0
C520 C 0.5112 0.33508 0.42846 0.0
C521 C 0.50158 0.31432 0.3844 0.0
C522 C 0.57383 0.3507 0.31851 0.0
C523 C 0.49514 0.34501 0.49427 0.0
C524 C 0.55555 0.40108 0.54343 0.0
C525 C 0.54313 0.42271 0.51233 0.0
C526 C 0.55458 0.37682 0.50637 0.0
C527 C 0.54046 0.37411 0.43752 0.0
C528 C 0.52957 0.39629 0.40303 0.0
C529 C 0.53127 0.42037 0.4405 0.0
C530 C 0.5672 0.35383 0.54354 0.0
C531 C 0.51434 0.39427 0.32943 0.0
H532 H 0.54808 0.31159 0.24731 0.0
H533 H 0.4828 0.30589 0.39763 0.0
H534 H 0.56969 0.36838 0.28475 0.0
H535 H 0.58554 0.35674 0.36879 0.0
H536 H 0.58537 0.33745 0.28212 0.0
H537 H 0.47945 0.33112 0.51028 0.0
H538 H 0.50736 0.34877 0.54528 0.0
H539 H 0.48629 0.3637 0.47786 0.0
H540 H 0.56504 0.40277 0.59854 0.0
H541 H 0.52169 0.43696 0.41585 0.0
H542 H 0.57672 0.34143 0.50007 0.0
H543 H 0.55229 0.34175 0.57267 0.0
H544 H 0.58174 0.36001 0.58684 0.0
H545 H 0.52588 0.3846 0.28434 0.0
H546 H 0.5084 0.41357 0.3079 0.0
H547 H 0.49673 0.38218 0.33896 0.0
C548 C 0.19686 0.54345 0.3901 0.0
C549 C 0.19891 0.5536 0.31597 0.0
C550 C 0.17492 0.54813 0.43492 0.0
C551 C 0.15464 0.56304 0.40423 0.0
C552 C 0.15849 0.57654 0.33469 0.0
C553 C 0.18075 0.57177 0.29141 0.0
C554 C 0.17197 0.53416 0.51036 0.0
C555 C 0.13771 0.59321 0.30091 0.0
C556 C 0.09091 0.52956 0.44414 0.0
C557 C 0.08156 0.54395 0.50597 0.0
C558 C 0.11381 0.53684 0.40708 0.0
C559 C 0.12802 0.55877 0.43388 0.0
C560 C 0.11776 0.57441 0.49316 0.0
C561 C 0.09442 0.56684 0.52846 0.0
C562 C 0.12361 0.51994 0.34261 0.0
C563 C 0.13222 0.5979 0.52338 0.0
H564 H 0.21091 0.5296 0.40989 0.0
H565 H 0.18266 0.58023 0.23484 0.0
H566 H 0.16272 0.54683 0.55362 0.0
H567 H 0.15938 0.51674 0.50231 0.0
H568 H 0.19086 0.52771 0.5329 0.0
H569 H 0.12324 0.58053 0.2718 0.0
H570 H 0.12755 0.6043 0.34612 0.0
H571 H 0.14574 0.60703 0.25803 0.0
H572 H 0.08084 0.51187 0.42694 0.0
H573 H 0.08726 0.57777 0.57706 0.0
H574 H 0.14129 0.50982 0.36127 0.0
H575 H 0.12881 0.53199 0.29219 0.0
H576 H 0.10914 0.50504 0.32446 0.0
H577 H 0.14261 0.60836 0.47695 0.0
H578 H 0.14675 0.59152 0.56567 0.0
H579 H 0.11903 0.6116 0.55262 0.0
C580 C 0.06354 0.8373 0.07238 0.0
C581 C 0.04601 0.81777 0.04927 0.0
C582 C 0.06811 0.8592 0.02657 0.0
C583 C 0.05519 0.86125 0.95564 0.0
C584 C 0.04085 0.8397 0.92698 0.0
C585 C 0.03626 0.81819 0.9745 0.0
C586 C 0.08396 0.88148 0.05874 0.0
C587 C 0.02758 0.84072 0.85022 0.0
C588 C 0.02332 0.92446 0.90537 0.0
C589 C 0.03911 0.93388 0.84638 0.0
C590 C 0.02927 0.90154 0.94387 0.0
C591 C 0.05125 0.88729 0.9214 0.0
C592 C 0.06793 0.89729 0.86395 0.0
C593 C 0.06174 0.92072 0.82737 0.0
C594 C 0.01129 0.89202 0.00638 0.0
C595 C 0.09133 0.88259 0.83773 0.0
H596 H 0.07171 0.83666 0.12946 0.0
H597 H 0.02289 0.80308 0.95582 0.0
H598 H 0.09554 0.89114 0.0133 0.0
H599 H 0.07082 0.89616 0.08344 0.0
H600 H 0.09712 0.87493 0.10476 0.0
H601 H 0.02178 0.82103 0.82977 0.0
H602 H 0.00997 0.85263 0.85527 0.0
H603 H 0.04033 0.84995 0.80673 0.0
H604 H 0.00589 0.93478 0.92014 0.0
H605 H 0.07378 0.9279 0.78098 0.0
H606 H 0.02235 0.8877 0.05909 0.0
H607 H 0.00153 0.87374 0.98782 0.0
H608 H 0.99626 0.90642 0.02081 0.0
H609 H 0.10138 0.87353 0.88669 0.0
H610 H 0.10521 0.89538 0.80659 0.0
H611 H 0.08511 0.86675 0.79837 0.0
C612 C 0.68636 0.03766 0.96476 0.0
C613 C 0.6874 0.04806 0.03895 0.0
C614 C 0.66484 0.04182 0.91794 0.0
C615 C 0.64395 0.05641 0.94673 0.0
C616 C 0.64673 0.07008 0.01665 0.0
C617 C 0.6686 0.06588 0.06183 0.0
C618 C 0.66305 0.02775 0.84217 0.0
C619 C 0.62521 0.08631 0.04869 0.0
C620 C 0.58433 0.06035 0.8203 0.0
C621 C 0.57123 0.03752 0.84186 0.0
C622 C 0.60772 0.06759 0.85578 0.0
C623 C 0.61776 0.05175 0.91453 0.0
C624 C 0.60349 0.02969 0.93981 0.0
C625 C 0.58058 0.02271 0.90247 0.0
C626 C 0.62237 0.09111 0.82678 0.0
C627 C 0.61306 0.01258 0.00372 0.0
H628 H 0.70092 0.02408 0.94625 0.0
H629 H 0.66973 0.07455 0.11844 0.0
H630 H 0.65085 0.01001 0.84901 0.0
H631 H 0.65391 0.04013 0.79829 0.0
H632 H 0.68234 0.0218 0.82115 0.0
H633 H 0.63238 0.10013 0.09305 0.0
H634 H 0.61553 0.09737 0.00281 0.0
H635 H 0.61054 0.07331 0.07552 0.0
H636 H 0.57718 0.07161 0.77264 0.0
H637 H 0.57031 0.0051 0.9191 0.0
H638 H 0.63749 0.08471 0.78609 0.0
H639 H 0.63213 0.10174 0.87416 0.0
H640 H 0.60949 0.10467 0.79619 0.0
H641 H 0.63097 0.00276 0.98537 0.0
H642 H 0.59864 0.99744 0.02032 0.0
H643 H 0.61778 0.02447 0.05507 0.0
C644 C 0.4786 0.68169 0.98868 0.0
C645 C 0.46888 0.68309 0.06347 0.0
C646 C 0.47338 0.65989 0.94256 0.0
C647 C 0.4584 0.63906 0.97263 0.0
C648 C 0.44546 0.64219 0.04331 0.0
C649 C 0.45072 0.66435 0.08783 0.0
C650 C 0.48674 0.65772 0.86601 0.0
C651 C 0.42881 0.62076 0.07664 0.0
C652 C 0.45216 0.5792 0.84518 0.0
C653 C 0.4747 0.56613 0.86508 0.0
C654 C 0.44563 0.60256 0.88209 0.0
C655 C 0.46191 0.61258 0.94051 0.0
C656 C 0.48357 0.59819 0.9645 0.0
C657 C 0.48983 0.57532 0.92582 0.0
C658 C 0.42245 0.61726 0.85468 0.0
C659 C 0.50112 0.60774 0.02804 0.0
H660 H 0.49243 0.6962 0.969 0.0
H661 H 0.44255 0.66576 0.14488 0.0
H662 H 0.50391 0.64522 0.87193 0.0
H663 H 0.47377 0.64857 0.82293 0.0
H664 H 0.49328 0.67701 0.84444 0.0
H665 H 0.41556 0.62827 0.12134 0.0
H666 H 0.41727 0.61084 0.03149 0.0
H667 H 0.44138 0.60605 0.10339 0.0
H668 H 0.44062 0.57216 0.79751 0.0
H669 H 0.5072 0.56504 0.94121 0.0
H670 H 0.42887 0.63236 0.81339 0.0
H671 H 0.41256 0.6272 0.9027 0.0
H672 H 0.40838 0.60421 0.82514 0.0
H673 H 0.51137 0.62574 0.00964 0.0
H674 H 0.51576 0.59314 0.0439 0.0
H675 H 0.48969 0.61253 0.07984 0.0
C676 C 0.83915 0.44828 0.06463 0.0
C677 C 0.82543 0.47101 0.04998 0.0
C678 C 0.86027 0.44143 0.01889 0.0
C679 C 0.86802 0.45808 0.95853 0.0
C680 C 0.85255 0.47954 0.93885 0.0
C681 C 0.83124 0.48565 0.98472 0.0
C682 C 0.87568 0.41786 0.03994 0.0
C683 C 0.8601 0.49775 0.87473 0.0
C684 C 0.93896 0.47151 0.92396 0.0
C685 C 0.94253 0.46059 0.85113 0.0
C686 C 0.91506 0.46963 0.96123 0.0
C687 C 0.89434 0.45608 0.92542 0.0
C688 C 0.89846 0.44306 0.85514 0.0
C689 C 0.92248 0.44565 0.81841 0.0
C690 C 0.9115 0.48378 0.03644 0.0
C691 C 0.87712 0.42775 0.81636 0.0
H692 H 0.83452 0.43694 0.11517 0.0
H693 H 0.8207 0.50332 0.97386 0.0
H694 H 0.88248 0.40757 0.98791 0.0
H695 H 0.89295 0.42407 0.0731 0.0
H696 H 0.86422 0.40408 0.07563 0.0
H697 H 0.84447 0.51152 0.86082 0.0
H698 H 0.8775 0.50917 0.8918 0.0
H699 H 0.86504 0.48669 0.82227 0.0
H700 H 0.95432 0.483 0.94987 0.0
H701 H 0.92514 0.43689 0.76246 0.0
H702 H 0.90346 0.47039 0.0803 0.0
H703 H 0.89751 0.49971 0.02892 0.0
H704 H 0.92986 0.49228 0.05849 0.0
H705 H 0.8658 0.41626 0.85865 0.0
H706 H 0.88477 0.41438 0.77197 0.0
H707 H 0.86372 0.44134 0.78818 0.0
C708 C 0.0506 0.18884 0.03068 0.0
C709 C 0.02438 0.19334 0.04432 0.0
C710 C 0.05828 0.16861 0.98172 0.0
C711 C 0.03922 0.15257 0.94676 0.0
C712 C 0.01277 0.15845 0.95597 0.0
C713 C 0.00572 0.17887 0.00428 0.0
C714 C 0.08665 0.16335 0.97177 0.0
C715 C 0.99174 0.14201 0.91935 0.0
C716 C 0.04531 0.1043 0.78601 0.0
C717 C 0.04283 0.08091 0.82622 0.0
C718 C 0.04741 0.12806 0.82504 0.0
C719 C 0.04617 0.12828 0.90595 0.0
C720 C 0.04616 0.10445 0.94667 0.0
C721 C 0.04458 0.08091 0.90601 0.0
C722 C 0.04819 0.15294 0.77954 0.0
C723 C 0.04485 0.10384 0.033 0.0
H724 H 0.06503 0.19994 0.06216 0.0
H725 H 0.98545 0.18252 0.01475 0.0
H726 H 0.0921 0.14685 0.00881 0.0
H727 H 0.09109 0.15789 0.91171 0.0
H728 H 0.09872 0.1805 0.98803 0.0
H729 H 0.97222 0.14998 0.92951 0.0
H730 H 0.99492 0.14057 0.85667 0.0
H731 H 0.99221 0.12202 0.94288 0.0
H732 H 0.04386 0.10413 0.72404 0.0
H733 H 0.04237 0.06273 0.93671 0.0
H734 H 0.06111 0.16758 0.80698 0.0
H735 H 0.02855 0.16121 0.77733 0.0
H736 H 0.05482 0.14957 0.71982 0.0
H737 H 0.05896 0.1178 0.05821 0.0
H738 H 0.04866 0.08417 0.05598 0.0
H739 H 0.02532 0.10973 0.05196 0.0
C740 C 0.3163 0.03531 0.00491 0.0
C741 C 0.31985 0.04057 0.08285 0.0
C742 C 0.33685 0.03855 0.95303 0.0
C743 C 0.36134 0.04694 0.98048 0.0
C744 C 0.3639 0.05537 0.0573 0.0
C745 C 0.34302 0.05219 0.10754 0.0
C746 C 0.33315 0.03007 0.87097 0.0
C747 C 0.38953 0.06452 0.08918 0.0
C748 C 0.41752 0.00999 0.8978 0.0
C749 C 0.42901 0.02833 0.849 0.0
C750 C 0.39583 0.01612 0.94163 0.0
C751 C 0.38493 0.04112 0.93538 0.0
C752 C 0.39666 0.05994 0.88705 0.0
C753 C 0.4188 0.05337 0.84478 0.0
C754 C 0.3844 0.99562 0.99403 0.0
C755 C 0.38537 0.08662 0.87813 0.0
H756 H 0.29835 0.02641 0.98578 0.0
H757 H 0.3456 0.05655 0.1679 0.0
H758 H 0.34361 0.04335 0.83135 0.0
H759 H 0.34114 0.01034 0.86318 0.0
H760 H 0.31242 0.02938 0.85493 0.0
H761 H 0.38717 0.07523 0.14405 0.0
H762 H 0.4018 0.04742 0.1 0.0
H763 H 0.3999 0.07725 0.04792 0.0
H764 H 0.42551 0.99067 0.90152 0.0
H765 H 0.42752 0.06748 0.80633 0.0
H766 H 0.36443 0.99069 0.9758 0.0
H767 H 0.38339 0.00316 0.05356 0.0
H768 H 0.3958 0.97751 0.99418 0.0
H769 H 0.36657 0.08494 0.84809 0.0
H770 H 0.39823 0.09984 0.84482 0.0
H771 H 0.38161 0.09551 0.93493 0.0
C772 C 0.44942 0.33653 0.10912 0.0
C773 C 0.46143 0.31353 0.08611 0.0
C774 C 0.44707 0.35743 0.05856 0.0
C775 C 0.45676 0.35506 0.98312 0.0
C776 C 0.46556 0.33063 0.9568 0.0
C777 C 0.46793 0.31006 0.00898 0.0
C778 C 0.4374 0.38298 0.08914 0.0
C779 C 0.47537 0.32711 0.87612 0.0
C780 C 0.45317 0.4129 0.84752 0.0
C781 C 0.47795 0.4238 0.85628 0.0
C782 C 0.44577 0.3904 0.88818 0.0
C783 C 0.46347 0.37899 0.93943 0.0
C784 C 0.48817 0.39056 0.95015 0.0
C785 C 0.49514 0.41261 0.90795 0.0
C786 C 0.41945 0.37841 0.87448 0.0
C787 C 0.50746 0.37949 0.00569 0.0
H788 H 0.44408 0.33903 0.16876 0.0
H789 H 0.47712 0.29224 0.99108 0.0
H790 H 0.45415 0.39584 0.10271 0.0
H791 H 0.42547 0.39301 0.046 0.0
H792 H 0.42583 0.38031 0.14224 0.0
H793 H 0.47627 0.30624 0.85998 0.0
H794 H 0.46292 0.3373 0.8346 0.0
H795 H 0.49509 0.33564 0.87152 0.0
H796 H 0.43995 0.42138 0.80689 0.0
H797 H 0.51424 0.42112 0.91524 0.0
H798 H 0.40965 0.37407 0.92958 0.0
H799 H 0.4216 0.3597 0.84355 0.0
H800 H 0.40694 0.39121 0.83995 0.0
H801 H 0.49889 0.37827 0.06388 0.0
H802 H 0.52548 0.39138 0.00906 0.0
H803 H 0.51259 0.3595 0.98797 0.0
C804 C 0.19632 0.47786 0.07217 0.0
C805 C 0.20313 0.50428 0.07471 0.0
C806 C 0.17671 0.46885 0.02285 0.0
C807 C 0.16377 0.48678 0.97555 0.0
C808 C 0.17225 0.51305 0.97341 0.0
C809 C 0.1918 0.52148 0.02321 0.0
C810 C 0.16845 0.44065 0.02611 0.0
C811 C 0.15921 0.53279 0.92327 0.0
C812 C 0.11661 0.46999 0.81679 0.0
C813 C 0.09295 0.47574 0.85198 0.0
C814 C 0.13987 0.47162 0.85776 0.0
C815 C 0.13945 0.47927 0.93559 0.0
C816 C 0.1155 0.4831 0.9729 0.0
C817 C 0.09253 0.48122 0.9307 0.0
C818 C 0.16496 0.46698 0.81626 0.0
C819 C 0.11419 0.49107 0.05615 0.0
H820 H 0.20492 0.46464 0.11273 0.0
H821 H 0.19709 0.54193 0.02562 0.0
H822 H 0.15035 0.43884 0.05978 0.0
H823 H 0.16447 0.43292 0.96787 0.0
H824 H 0.18331 0.42847 0.05369 0.0
H825 H 0.1698 0.55171 0.9225 0.0
H826 H 0.15756 0.52546 0.86367 0.0
H827 H 0.13936 0.53615 0.94477 0.0
H828 H 0.11717 0.46543 0.75617 0.0
H829 H 0.07439 0.48548 0.95867 0.0
H830 H 0.16189 0.4568 0.76075 0.0
H831 H 0.17818 0.45536 0.85196 0.0
H832 H 0.1747 0.4859 0.8047 0.0
H833 H 0.12607 0.47805 0.09173 0.0
H834 H 0.09412 0.49072 0.07857 0.0
H835 H 0.12217 0.51108 0.06286 0.0
C836 C 0.97257 0.82044 0.29419 0.0
C837 C 0.99849 0.81315 0.29315 0.0
C838 C 0.96426 0.84059 0.34245 0.0
C839 C 0.98241 0.85358 0.39014 0.0
C840 C 0.00806 0.84452 0.39413 0.0
C841 C 0.0158 0.82446 0.34525 0.0
C842 C 0.9367 0.84943 0.33723 0.0
C843 C 0.028 0.85757 0.44479 0.0
C844 C 0.98061 0.9259 0.42787 0.0
C845 C 0.97462 0.92668 0.5062 0.0
C846 C 0.98141 0.90223 0.38803 0.0
C847 C 0.97604 0.87873 0.42739 0.0
C848 C 0.96791 0.87953 0.50469 0.0
C849 C 0.96729 0.90351 0.54325 0.0
C850 C 0.98989 0.90226 0.30519 0.0
C851 C 0.96168 0.85496 0.54833 0.0
H852 H 0.95929 0.81185 0.25303 0.0
H853 H 0.03589 0.81884 0.34377 0.0
H854 H 0.92895 0.85425 0.39474 0.0
H855 H 0.93593 0.86729 0.30194 0.0
H856 H 0.92402 0.83442 0.31033 0.0
H857 H 0.04612 0.84635 0.44785 0.0
H858 H 0.03268 0.87719 0.42198 0.0
H859 H 0.02035 0.86011 0.50366 0.0
H860 H 0.98601 0.94367 0.3984 0.0
H861 H 0.9624 0.90385 0.60362 0.0
H862 H 0.97649 0.89025 0.26996 0.0
H863 H 0.00931 0.89356 0.30044 0.0
H864 H 0.99083 0.92217 0.28088 0.0
H865 H 0.94989 0.84137 0.51296 0.0
H866 H 0.95116 0.85903 0.60245 0.0
H867 H 0.97987 0.845 0.56279 0.0
C868 C 0.67982 0.01825 0.33461 0.0
C869 C 0.69134 0.00099 0.28325 0.0
C870 C 0.65991 0.00994 0.38343 0.0
C871 C 0.65119 0.98375 0.38013 0.0
C872 C 0.66425 0.96576 0.33284 0.0
C873 C 0.68426 0.97464 0.28473 0.0
C874 C 0.64678 0.02972 0.43367 0.0
C875 C 0.6557 0.93766 0.32817 0.0
C876 C 0.60282 0.96645 0.53565 0.0
C877 C 0.57941 0.97247 0.4997 0.0
C878 C 0.62638 0.96833 0.49605 0.0
C879 C 0.62653 0.97639 0.41871 0.0
C880 C 0.60285 0.98053 0.38051 0.0
C881 C 0.57959 0.97851 0.42143 0.0
C882 C 0.65117 0.96345 0.53856 0.0
C883 C 0.60215 0.98889 0.29768 0.0
H884 H 0.68525 0.03867 0.33279 0.0
H885 H 0.69297 0.9614 0.24409 0.0
H886 H 0.62718 0.03346 0.41114 0.0
H887 H 0.64454 0.02223 0.49283 0.0
H888 H 0.65765 0.04847 0.43591 0.0
H889 H 0.67054 0.92538 0.30051 0.0
H890 H 0.65138 0.92982 0.38596 0.0
H891 H 0.63772 0.93615 0.29394 0.0
H892 H 0.60296 0.96154 0.59597 0.0
H893 H 0.56164 0.98297 0.39283 0.0
H894 H 0.66094 0.98229 0.55123 0.0
H895 H 0.66455 0.95183 0.50305 0.0
H896 H 0.6477 0.95317 0.59354 0.0
H897 H 0.61033 0.00885 0.29246 0.0
H898 H 0.58222 0.9888 0.27431 0.0
H899 H 0.61415 0.97592 0.26193 0.0
C900 C 0.49978 0.67645 0.35682 0.0
C901 C 0.51707 0.68833 0.30575 0.0
C902 C 0.50783 0.65666 0.40575 0.0
C903 C 0.53381 0.6485 0.40311 0.0
C904 C 0.55186 0.66207 0.35653 0.0
C905 C 0.54323 0.68191 0.3081 0.0
C906 C 0.48797 0.64296 0.45516 0.0
C907 C 0.57976 0.6542 0.35284 0.0
C908 C 0.54928 0.59984 0.55826 0.0
C909 C 0.54307 0.57627 0.52131 0.0
C910 C 0.54827 0.62359 0.51904 0.0
C911 C 0.54082 0.62376 0.44117 0.0
C912 C 0.53665 0.59991 0.40202 0.0
C913 C 0.53788 0.57646 0.4425 0.0
C914 C 0.55328 0.64854 0.5625 0.0
C915 C 0.52889 0.59922 0.31866 0.0
H916 H 0.47953 0.68143 0.35454 0.0
H917 H 0.55652 0.69093 0.26786 0.0
H918 H 0.48429 0.6231 0.43232 0.0
H919 H 0.49518 0.64093 0.51457 0.0
H920 H 0.46937 0.65342 0.45681 0.0
H921 H 0.5921 0.66959 0.32657 0.0
H922 H 0.58725 0.6498 0.41078 0.0
H923 H 0.58141 0.6363 0.3177 0.0
H924 H 0.55359 0.59995 0.61898 0.0
H925 H 0.53329 0.5584 0.41313 0.0
H926 H 0.53463 0.65793 0.57547 0.0
H927 H 0.56493 0.66236 0.52763 0.0
H928 H 0.56345 0.64507 0.61742 0.0
H929 H 0.50917 0.60708 0.31249 0.0
H930 H 0.52897 0.5792 0.29467 0.0
H931 H 0.5421 0.61163 0.28408 0.0
C932 C 0.83646 0.49242 0.34872 0.0
C933 C 0.82469 0.51157 0.30467 0.0
C934 C 0.85684 0.49872 0.39823 0.0
C935 C 0.86569 0.52483 0.4035 0.0
C936 C 0.85234 0.54457 0.36423 0.0
C937 C 0.8319 0.53767 0.31498 0.0
C938 C 0.8703 0.47705 0.43969 0.0
C939 C 0.86095 0.57264 0.3692 0.0
C940 C 0.91538 0.53431 0.56025 0.0
C941 C 0.9382 0.52961 0.51985 0.0
C942 C 0.89156 0.53499 0.5222 0.0
C943 C 0.89071 0.53051 0.44221 0.0
C944 C 0.91405 0.52759 0.40066 0.0
C945 C 0.93757 0.52703 0.44024 0.0
C946 C 0.86721 0.53835 0.5685 0.0
C947 C 0.91402 0.52286 0.31526 0.0
H948 H 0.83085 0.47223 0.34032 0.0
H949 H 0.82295 0.55243 0.28015 0.0
H950 H 0.88974 0.4743 0.41448 0.0
H951 H 0.87294 0.48206 0.50101 0.0
H952 H 0.85943 0.45833 0.43573 0.0
H953 H 0.84595 0.58594 0.34747 0.0
H954 H 0.86572 0.57809 0.4291 0.0
H955 H 0.87867 0.5755 0.33434 0.0
H956 H 0.916 0.53588 0.62218 0.0
H957 H 0.95529 0.52299 0.40956 0.0
H958 H 0.8574 0.5192 0.57541 0.0
H959 H 0.85363 0.55135 0.53871 0.0
H960 H 0.87133 0.54639 0.62639 0.0
H961 H 0.90572 0.50329 0.30304 0.0
H962 H 0.93376 0.52393 0.29045 0.0
H963 H 0.90178 0.53726 0.28595 0.0
loop_
_geom_bond_atom_site_label_1
_geom_bond_atom_site_label_2
_geom_bond_distance
_geom_bond_site_symmetry_2
_ccdc_geom_bond_type
H0 C7 0.929 . S
H1 C10 0.930 . S
H2 C12 0.929 . S
H3 C4 0.969 . S
C4 H3 0.969 . S
C4 O5 1.550 1_556 S
C4 H6 0.973 . S
O5 C4 1.550 1_554 S
O5 C11 1.412 . S
H6 C4 0.973 . S
C7 H0 0.929 . S
C7 C8 1.400 . S
C7 C9 1.364 1_554 S
C8 C7 1.400 . S
C8 C12 1.377 . S
C9 C7 1.364 1_556 S
C9 C10 1.374 . S
C10 H1 0.930 . S
C10 C9 1.374 . S
C10 C11 1.383 1_556 S
C11 O5 1.412 . S
C11 C10 1.383 1_554 S
C11 C12 1.394 . S
C12 H2 0.929 . S
C12 C8 1.377 . S
C12 C11 1.394 . S
H13 C20 0.929 . S
H14 C23 0.931 . S
H15 C25 0.928 . S
H16 C17 0.969 . S
C17 H16 0.969 . S
C17 O18 1.550 1_455 S
C17 H19 0.973 1_454 S
O18 C17 1.550 1_655 S
O18 C24 1.410 1_655 S
H19 C17 0.973 1_656 S
C20 H13 0.929 . S
C20 C21 1.400 . S
C20 C22 1.365 . S
C21 C20 1.400 . S
C21 C25 1.377 1_455 S
C22 C20 1.365 . S
C22 C23 1.374 1_455 S
C23 H14 0.931 . S
C23 C22 1.374 1_655 S
C23 C24 1.383 1_655 S
C24 O18 1.410 1_455 S
C24 C23 1.383 1_455 S
C24 C25 1.394 1_455 S
C25 H15 0.928 . S
C25 C21 1.377 1_655 S
C25 C24 1.394 1_655 S
H26 C33 0.929 . S
H27 C36 0.931 1_556 S
H28 C38 0.928 1_565 S
H29 C30 0.969 . S
C30 H29 0.969 . S
C30 O31 1.550 1_545 S
C30 H32 0.973 1_544 S
O31 C30 1.550 1_565 S
O31 C37 1.406 1_565 S
H32 C30 0.973 1_566 S
C33 H26 0.929 . S
C33 C34 1.400 . S
C33 C35 1.364 . S
C34 C33 1.400 . S
C34 C38 1.376 . S
C35 C33 1.364 . S
C35 C36 1.374 1_545 S
C36 H27 0.931 1_554 S
C36 C35 1.374 1_565 S
C36 C37 1.383 1_565 S
C37 O31 1.406 1_545 S
C37 C36 1.383 1_545 S
C37 C38 1.394 . S
C38 H28 0.928 1_545 S
C38 C34 1.376 . S
C38 C37 1.394 . S
H39 C46 0.929 . S
H40 C49 0.930 . S
H41 C51 0.929 . S
H42 C43 0.969 . S
C43 H42 0.969 . S
C43 O44 1.550 1_556 S
C43 H45 0.973 . S
O44 C43 1.550 1_554 S
O44 C50 1.412 . S
H45 C43 0.973 . S
C46 H39 0.929 . S
C46 C47 1.400 . S
C46 C48 1.364 1_554 S
C47 C46 1.400 . S
C47 C51 1.377 . S
C48 C46 1.364 1_556 S
C48 C49 1.374 . S
C49 H40 0.930 . S
C49 C48 1.374 . S
C49 C50 1.383 1_556 S
C50 O44 1.412 . S
C50 C49 1.383 1_554 S
C50 C51 1.394 . S
C51 H41 0.929 . S
C51 C47 1.377 . S
C51 C50 1.394 . S
H52 C59 0.929 . S
H53 C62 0.930 . S
H54 C64 0.929 . S
H55 C56 0.969 . S
C56 H55 0.969 . S
C56 O57 1.550 . S
C56 H58 0.973 . S
O57 C56 1.550 . S
O57 C63 1.412 . S
H58 C56 0.973 . S
C59 H52 0.929 . S
C59 C60 1.400 . S
C59 C61 1.364 . S
C60 C59 1.400 . S
C60 C64 1.377 . S
C61 C59 1.364 . S
C61 C62 1.374 . S
C62 H53 0.930 . S
C62 C61 1.374 . S
C62 C63 1.383 . S
C63 O57 1.412 . S
C63 C62 1.383 . S
C63 C64 1.394 . S
C64 H54 0.929 . S
C64 C60 1.377 . S
C64 C63 1.394 . S
H65 C72 0.929 . S
H66 C75 0.930 . S
H67 C77 0.929 . S
H68 C69 0.969 . S
C69 H68 0.969 . S
C69 O70 1.550 . S
C69 H71 0.973 . S
O70 C69 1.550 . S
O70 C76 1.412 . S
H71 C69 0.973 . S
C72 H65 0.929 . S
C72 C73 1.400 . S
C72 C74 1.364 . S
C73 C72 1.400 . S
C73 C77 1.377 . S
C74 C72 1.364 . S
C74 C75 1.374 . S
C75 H66 0.930 . S
C75 C74 1.374 . S
C75 C76 1.383 . S
C76 O70 1.412 . S
C76 C75 1.383 . S
C76 C77 1.394 . S
C77 H67 0.929 . S
C77 C73 1.377 . S
C77 C76 1.394 . S
H78 C85 0.929 . S
H79 C88 0.930 . S
H80 C90 0.929 . S
H81 C82 0.969 . S
C82 H81 0.969 . S
C82 O83 1.550 . S
C82 H84 0.973 . S
O83 C82 1.550 . S
O83 C89 1.412 . S
H84 C82 0.973 . S
C85 H78 0.929 . S
C85 C86 1.400 . S
C85 C87 1.364 . S
C86 C85 1.400 . S
C86 C90 1.377 . S
C87 C85 1.364 . S
C87 C88 1.374 . S
C88 H79 0.930 . S
C88 C87 1.374 . S
C88 C89 1.383 . S
C89 O83 1.412 . S
C89 C88 1.383 . S
C89 C90 1.394 . S
C90 H80 0.929 . S
C90 C86 1.377 . S
C90 C89 1.394 . S
H91 C98 0.929 . S
H92 C101 0.930 . S
H93 C103 0.929 . S
H94 C95 0.969 . S
C95 H94 0.969 . S
C95 O96 1.550 . S
C95 H97 0.973 . S
O96 C95 1.550 . S
O96 C102 1.412 . S
H97 C95 0.973 . S
C98 H91 0.929 . S
C98 C99 1.400 . S
C98 C100 1.364 . S
C99 C98 1.400 . S
C99 C103 1.377 . S
C100 C98 1.364 . S
C100 C101 1.374 . S
C101 H92 0.930 . S
C101 C100 1.374 . S
C101 C102 1.383 . S
C102 O96 1.412 . S
C102 C101 1.383 . S
C102 C103 1.394 . S
C103 H93 0.929 . S
C103 C99 1.377 . S
C103 C102 1.394 . S
O104 Zn105 1.956 . S
O104 C120 1.225 1_545 S
Zn105 O104 1.956 . S
Zn105 O106 1.948 1_545 S
Zn105 O112 1.947 . S
Zn105 O117 1.891 1_545 S
O106 Zn105 1.948 1_565 S
O106 Zn107 1.901 1_465 S
O106 Zn108 1.952 . S
O106 Zn109 1.965 1_455 S
Zn107 O106 1.901 1_645 S
Zn107 O110 1.933 . S
Zn107 O113 1.941 1_655 S
Zn107 O114 1.965 . S
Zn108 O106 1.952 . S
Zn108 O115 1.938 1_565 S
Zn108 O116 1.906 . S
Zn108 O126 1.953 . S
Zn109 O106 1.965 1_655 S
Zn109 O111 1.932 . S
Zn109 O118 1.977 . S
Zn109 O119 1.910 1_655 S
O110 Zn107 1.933 . S
O110 C121 1.226 . S
O111 Zn109 1.932 . S
O111 C121 1.307 1_565 S
O112 Zn105 1.947 . S
O112 C123 1.253 . S
O113 Zn107 1.941 1_455 S
O113 C123 1.283 . S
O114 Zn107 1.965 . S
O114 C122 1.303 1_655 S
O115 Zn108 1.938 1_545 S
O115 C122 1.247 . S
O116 Zn108 1.906 . S
O116 C124 1.304 1_455 S
O117 Zn105 1.891 1_565 S
O117 C125 1.311 . S
O118 Zn109 1.977 . S
O118 C124 1.272 . S
O119 Zn109 1.910 1_455 S
O119 C125 1.231 . S
C120 O104 1.225 1_565 S
C120 O126 1.298 . S
C121 O110 1.226 . S
C121 O111 1.307 1_545 S
C122 O114 1.303 1_455 S
C122 O115 1.247 . S
C123 O112 1.253 . S
C123 O113 1.283 . S
C124 O116 1.304 1_655 S
C124 O118 1.272 . S
C125 O117 1.311 . S
C125 O119 1.231 . S
O126 Zn108 1.953 . S
O126 C120 1.298 . S
O127 Zn128 1.953 . S
O127 C143 1.225 . S
Zn128 O127 1.953 . S
Zn128 O129 1.949 . S
Zn128 O135 1.919 . S
Zn128 O140 1.924 . S
O129 Zn128 1.949 . S
O129 Zn130 1.923 1_545 S
O129 Zn131 1.950 . S
O129 Zn132 1.945 1_545 S
Zn130 O129 1.923 1_565 S
Zn130 O133 1.933 . S
Zn130 O136 1.941 . S
Zn130 O137 1.965 . S
Zn131 O129 1.950 . S
Zn131 O138 1.938 . S
Zn131 O139 1.906 . S
Zn131 O149 1.953 . S
Zn132 O129 1.945 1_565 S
Zn132 O134 1.932 . S
Zn132 O141 1.977 . S
Zn132 O142 1.910 1_565 S
O133 Zn130 1.933 . S
O133 C144 1.226 . S
O134 Zn132 1.932 . S
O134 C144 1.307 . S
O135 Zn128 1.919 . S
O135 C146 1.253 . S
O136 Zn130 1.941 . S
O136 C146 1.283 1_565 S
O137 Zn130 1.965 . S
O137 C145 1.303 1_565 S
O138 Zn131 1.938 . S
O138 C145 1.247 . S
O139 Zn131 1.906 . S
O139 C147 1.304 1_545 S
O140 Zn128 1.924 . S
O140 C148 1.311 . S
O141 Zn132 1.977 . S
O141 C147 1.272 . S
O142 Zn132 1.910 1_545 S
O142 C148 1.231 . S
C143 O127 1.225 . S
C143 O149 1.298 . S
C144 O133 1.226 . S
C144 O134 1.307 . S
C145 O137 1.303 1_545 S
C145 O138 1.247 . S
C146 O135 1.253 . S
C146 O136 1.283 1_545 S
C147 O139 1.304 1_565 S
C147 O141 1.272 . S
C148 O140 1.311 . S
C148 O142 1.231 . S
O149 Zn131 1.953 . S
O149 C143 1.298 . S
O150 Zn151 1.953 . S
O150 C166 1.225 . S
Zn151 O150 1.953 . S
Zn151 O152 1.949 . S
Zn151 O158 1.919 . S
Zn151 O163 1.924 . S
O152 Zn151 1.949 . S
O152 Zn153 1.923 . S
O152 Zn154 1.950 . S
O152 Zn155 1.945 . S
Zn153 O152 1.923 . S
Zn153 O156 1.933 . S
Zn153 O159 1.941 . S
Zn153 O160 1.965 . S
Zn154 O152 1.950 . S
Zn154 O161 1.938 . S
Zn154 O162 1.906 . S
Zn154 O172 1.953 . S
Zn155 O152 1.945 . S
Zn155 O157 1.932 . S
Zn155 O164 1.977 . S
Zn155 O165 1.910 . S
O156 Zn153 1.933 . S
O156 C167 1.226 . S
O157 Zn155 1.932 . S
O157 C167 1.307 . S
O158 Zn151 1.919 . S
O158 C169 1.253 . S
O159 Zn153 1.941 . S
O159 C169 1.283 . S
O160 Zn153 1.965 . S
O160 C168 1.303 . S
O161 Zn154 1.938 . S
O161 C168 1.247 . S
O162 Zn154 1.906 . S
O162 C170 1.304 . S
O163 Zn151 1.924 . S
O163 C171 1.311 . S
O164 Zn155 1.977 . S
O164 C170 1.272 . S
O165 Zn155 1.910 . S
O165 C171 1.231 . S
C166 O150 1.225 . S
C166 O172 1.298 . S
C167 O156 1.226 . S
C167 O157 1.307 . S
C168 O160 1.303 . S
C168 O161 1.247 . S
C169 O158 1.253 . S
C169 O159 1.283 . S
C170 O162 1.304 . S
C170 O164 1.272 . S
C171 O163 1.311 . S
C171 O165 1.231 . S
O172 Zn154 1.953 . S
O172 C166 1.298 . S
O173 Zn174 1.920 1_655 S
O173 C189 1.225 . S
Zn174 O173 1.920 1_455 S
Zn174 O175 1.949 . S
Zn174 O181 1.919 . S
Zn174 O186 1.959 . S
O175 Zn174 1.949 . S
O175 Zn176 1.918 1_455 S
O175 Zn177 1.929 1_455 S
O175 Zn178 1.973 . S
Zn176 O175 1.918 1_655 S
Zn176 O179 1.933 1_655 S
Zn176 O182 1.941 . S
Zn176 O183 1.965 . S
Zn177 O175 1.929 1_655 S
Zn177 O184 1.938 . S
Zn177 O185 1.906 . S
Zn177 O195 1.953 . S
Zn178 O175 1.973 . S
Zn178 O180 1.932 . S
Zn178 O187 1.977 . S
Zn178 O188 1.910 . S
O179 Zn176 1.933 1_455 S
O179 C190 1.226 . S
O180 Zn178 1.932 . S
O180 C190 1.307 . S
O181 Zn174 1.919 . S
O181 C192 1.253 . S
O182 Zn176 1.941 . S
O182 C192 1.284 1_655 S
O183 Zn176 1.965 . S
O183 C191 1.303 . S
O184 Zn177 1.938 . S
O184 C191 1.247 . S
O185 Zn177 1.906 . S
O185 C193 1.304 1_655 S
O186 Zn174 1.959 . S
O186 C194 1.311 . S
O187 Zn178 1.977 . S
O187 C193 1.272 . S
O188 Zn178 1.910 . S
O188 C194 1.231 . S
C189 O173 1.225 . S
C189 O195 1.298 . S
C190 O179 1.226 . S
C190 O180 1.307 . S
C191 O183 1.303 . S
C191 O184 1.247 . S
C192 O181 1.253 . S
C192 O182 1.284 1_455 S
C193 O185 1.304 1_455 S
C193 O187 1.272 . S
C194 O186 1.311 . S
C194 O188 1.231 . S
O195 Zn177 1.953 . S
O195 C189 1.298 . S
C196 C197 1.391 1_565 S
C196 C198 1.394 . S
C196 H212 0.931 . S
C197 C196 1.391 1_545 S
C197 C201 1.376 . S
C198 C196 1.394 . S
C198 C199 1.387 . S
C198 C202 1.531 . S
C199 C198 1.387 . S
C199 C200 1.389 1_565 S
C199 C207 1.504 . S
C200 C199 1.389 1_545 S
C200 C201 1.392 . S
C200 C203 1.511 . S
C201 C197 1.376 . S
C201 C200 1.392 . S
C201 H213 0.929 . S
C202 C198 1.531 . S
C202 H214 0.960 . S
C202 H215 0.962 . S
C202 H216 0.960 . S
C203 C200 1.511 . S
C203 H217 0.961 . S
C203 H218 0.961 . S
C203 H219 0.961 . S
C204 C205 1.370 1_545 S
C204 C206 1.363 . S
C204 H220 0.931 . S
C205 C204 1.370 1_565 S
C205 C209 1.408 . S
C206 C204 1.363 . S
C206 C207 1.370 1_545 S
C206 C210 1.524 . S
C207 C199 1.504 . S
C207 C206 1.370 1_565 S
C207 C208 1.403 . S
C208 C207 1.403 . S
C208 C209 1.404 . S
C208 C211 1.539 . S
C209 C205 1.408 . S
C209 C208 1.404 . S
C209 H221 0.930 . S
C210 C206 1.524 . S
C210 H222 0.956 . S
C210 H223 0.961 . S
C210 H224 0.961 . S
C211 C208 1.539 . S
C211 H225 0.958 . S
C211 H226 0.961 . S
C211 H227 0.960 . S
H212 C196 0.931 . S
H213 C201 0.929 . S
H214 C202 0.960 . S
H215 C202 0.962 . S
H216 C202 0.960 . S
H217 C203 0.961 . S
H218 C203 0.961 . S
H219 C203 0.961 . S
H220 C204 0.931 . S
H221 C209 0.930 . S
H222 C210 0.956 . S
H223 C210 0.961 . S
H224 C210 0.961 . S
H225 C211 0.958 . S
H226 C211 0.961 . S
H227 C211 0.960 . S
C228 C229 1.391 . S
C228 C230 1.394 . S
C228 H244 0.931 . S
C229 C228 1.391 . S
C229 C233 1.376 . S
C230 C228 1.394 . S
C230 C231 1.369 . S
C230 C234 1.531 . S
C231 C230 1.369 . S
C231 C232 1.410 . S
C231 C239 1.503 . S
C232 C231 1.410 . S
C232 C233 1.392 . S
C232 C235 1.511 . S
C233 C229 1.376 . S
C233 C232 1.392 . S
C233 H245 0.929 . S
C234 C230 1.531 . S
C234 H246 0.960 . S
C234 H247 0.962 . S
C234 H248 0.960 . S
C235 C232 1.511 . S
C235 H249 0.961 . S
C235 H250 0.961 . S
C235 H251 0.961 . S
C236 C237 1.370 . S
C236 C238 1.363 . S
C236 H252 0.931 . S
C237 C236 1.370 . S
C237 C241 1.408 . S
C238 C236 1.363 . S
C238 C239 1.370 . S
C238 C242 1.524 . S
C239 C231 1.503 . S
C239 C238 1.370 . S
C239 C240 1.403 . S
C240 C239 1.403 . S
C240 C241 1.404 . S
C240 C243 1.539 . S
C241 C237 1.408 . S
C241 C240 1.404 . S
C241 H253 0.930 . S
C242 C238 1.524 . S
C242 H254 0.956 . S
C242 H255 0.961 . S
C242 H256 0.961 . S
C243 C240 1.539 . S
C243 H257 0.958 . S
C243 H258 0.961 . S
C243 H259 0.960 . S
H244 C228 0.931 . S
H245 C233 0.929 . S
H246 C234 0.960 . S
H247 C234 0.962 . S
H248 C234 0.960 . S
H249 C235 0.961 . S
H250 C235 0.961 . S
H251 C235 0.961 . S
H252 C236 0.931 . S
H253 C241 0.930 . S
H254 C242 0.956 . S
H255 C242 0.961 . S
H256 C242 0.961 . S
H257 C243 0.958 . S
H258 C243 0.961 . S
H259 C243 0.960 . S
C260 C261 1.391 . S
C260 C262 1.394 . S
C260 H276 0.931 . S
C261 C260 1.391 . S
C261 C265 1.376 . S
C262 C260 1.394 . S
C262 C263 1.369 . S
C262 C266 1.531 . S
C263 C262 1.369 . S
C263 C264 1.410 . S
C263 C271 1.503 . S
C264 C263 1.410 . S
C264 C265 1.392 . S
C264 C267 1.511 . S
C265 C261 1.376 . S
C265 C264 1.392 . S
C265 H277 0.929 . S
C266 C262 1.531 . S
C266 H278 0.960 . S
C266 H279 0.962 . S
C266 H280 0.960 . S
C267 C264 1.511 . S
C267 H281 0.961 . S
C267 H282 0.961 . S
C267 H283 0.961 . S
C268 C269 1.370 . S
C268 C270 1.363 . S
C268 H284 0.931 . S
C269 C268 1.370 . S
C269 C273 1.408 . S
C270 C268 1.363 . S
C270 C271 1.370 . S
C270 C274 1.524 . S
C271 C263 1.503 . S
C271 C270 1.370 . S
C271 C272 1.403 . S
C272 C271 1.403 . S
C272 C273 1.404 . S
C272 C275 1.539 . S
C273 C269 1.408 . S
C273 C272 1.404 . S
C273 H285 0.930 . S
C274 C270 1.524 . S
C274 H286 0.956 . S
C274 H287 0.961 . S
C274 H288 0.961 . S
C275 C272 1.539 . S
C275 H289 0.958 . S
C275 H290 0.961 . S
C275 H291 0.960 . S
H276 C260 0.931 . S
H277 C265 0.929 . S
H278 C266 0.960 . S
H279 C266 0.962 . S
H280 C266 0.960 . S
H281 C267 0.961 . S
H282 C267 0.961 . S
H283 C267 0.961 . S
H284 C268 0.931 . S
H285 C273 0.930 . S
H286 C274 0.956 . S
H287 C274 0.961 . S
H288 C274 0.961 . S
H289 C275 0.958 . S
H290 C275 0.961 . S
H291 C275 0.960 . S
C292 C293 1.391 . S
C292 C294 1.394 . S
C292 H308 0.931 . S
C293 C292 1.391 . S
C293 C297 1.376 . S
C294 C292 1.394 . S
C294 C295 1.369 . S
C294 C298 1.531 . S
C295 C294 1.369 . S
C295 C296 1.410 . S
C295 C303 1.503 . S
C296 C295 1.410 . S
C296 C297 1.392 . S
C296 C299 1.511 1_455 S
C297 C293 1.376 . S
C297 C296 1.392 . S
C297 H309 0.929 . S
C298 C294 1.531 . S
C298 H310 0.960 . S
C298 H311 0.962 . S
C298 H312 0.960 . S
C299 C296 1.511 1_655 S
C299 H313 0.961 . S
C299 H314 0.961 . S
C299 H315 0.961 . S
C300 C301 1.370 . S
C300 C302 1.363 . S
C300 H316 0.931 . S
C301 C300 1.370 . S
C301 C305 1.408 1_455 S
C302 C300 1.363 . S
C302 C303 1.370 . S
C302 C306 1.524 . S
C303 C295 1.503 . S
C303 C302 1.370 . S
C303 C304 1.403 . S
C304 C303 1.403 . S
C304 C305 1.404 1_455 S
C304 C307 1.539 1_455 S
C305 C301 1.408 1_655 S
C305 C304 1.404 1_655 S
C305 H317 0.930 . S
C306 C302 1.524 . S
C306 H318 0.956 . S
C306 H319 0.961 . S
C306 H320 0.961 . S
C307 C304 1.539 1_655 S
C307 H321 0.958 . S
C307 H322 0.961 . S
C307 H323 0.960 . S
H308 C292 0.931 . S
H309 C297 0.929 . S
H310 C298 0.960 . S
H311 C298 0.962 . S
H312 C298 0.960 . S
H313 C299 0.961 . S
H314 C299 0.961 . S
H315 C299 0.961 . S
H316 C300 0.931 . S
H317 C305 0.930 . S
H318 C306 0.956 . S
H319 C306 0.961 . S
H320 C306 0.961 . S
H321 C307 0.958 . S
H322 C307 0.961 . S
H323 C307 0.960 . S
C324 C325 1.391 . S
C324 C326 1.394 . S
C324 H340 0.931 . S
C325 C324 1.391 . S
C325 C329 1.376 1_556 S
C326 C324 1.394 . S
C326 C327 1.369 . S
C326 C330 1.531 . S
C327 C326 1.369 . S
C327 C328 1.417 . S
C327 C335 1.503 . S
C328 C327 1.417 . S
C328 C329 1.389 1_556 S
C328 C331 1.507 1_556 S
C329 C325 1.376 1_554 S
C329 C328 1.389 1_554 S
C329 H341 0.932 . S
C330 C326 1.531 . S
C330 H342 0.960 . S
C330 H343 0.962 1_545 S
C330 H344 0.960 . S
C331 C328 1.507 1_554 S
C331 H345 0.961 1_545 S
C331 H346 0.961 1_545 S
C331 H347 0.961 . S
C332 C333 1.370 1_565 S
C332 C334 1.363 . S
C332 H348 0.931 . S
C333 C332 1.370 1_545 S
C333 C337 1.408 . S
C334 C332 1.363 . S
C334 C335 1.370 1_565 S
C334 C338 1.524 . S
C335 C327 1.503 . S
C335 C334 1.370 1_545 S
C335 C336 1.403 . S
C336 C335 1.403 . S
C336 C337 1.404 . S
C336 C339 1.539 . S
C337 C333 1.408 . S
C337 C336 1.404 . S
C337 H349 0.930 . S
C338 C334 1.524 . S
C338 H350 0.956 . S
C338 H351 0.961 . S
C338 H352 0.961 . S
C339 C336 1.539 . S
C339 H353 0.958 . S
C339 H354 0.961 . S
C339 H355 0.960 . S
H340 C324 0.931 . S
H341 C329 0.932 . S
H342 C330 0.960 . S
H343 C330 0.962 1_565 S
H344 C330 0.960 . S
H345 C331 0.961 1_565 S
H346 C331 0.961 1_565 S
H347 C331 0.961 . S
H348 C332 0.931 . S
H349 C337 0.930 . S
H350 C338 0.956 . S
H351 C338 0.961 . S
H352 C338 0.961 . S
H353 C339 0.958 . S
H354 C339 0.961 . S
H355 C339 0.960 . S
C356 C357 1.391 . S
C356 C358 1.394 . S
C356 H372 0.931 . S
C357 C356 1.391 . S
C357 C361 1.376 . S
C358 C356 1.394 . S
C358 C359 1.369 . S
C358 C362 1.531 . S
C359 C358 1.369 . S
C359 C360 1.410 . S
C359 C367 1.503 . S
C360 C359 1.410 . S
C360 C361 1.392 . S
C360 C363 1.511 . S
C361 C357 1.376 . S
C361 C360 1.392 . S
C361 H373 0.929 . S
C362 C358 1.531 . S
C362 H374 0.960 . S
C362 H375 0.962 . S
C362 H376 0.960 . S
C363 C360 1.511 . S
C363 H377 0.961 . S
C363 H378 0.961 . S
C363 H379 0.961 . S
C364 C365 1.370 . S
C364 C366 1.363 . S
C364 H380 0.931 . S
C365 C364 1.370 . S
C365 C369 1.408 . S
C366 C364 1.363 . S
C366 C367 1.370 . S
C366 C370 1.524 . S
C367 C359 1.503 . S
C367 C366 1.370 . S
C367 C368 1.403 . S
C368 C367 1.403 . S
C368 C369 1.404 . S
C368 C371 1.539 . S
C369 C365 1.408 . S
C369 C368 1.404 . S
C369 H381 0.930 . S
C370 C366 1.524 . S
C370 H382 0.956 . S
C370 H383 0.961 . S
C370 H384 0.961 . S
C371 C368 1.539 . S
C371 H385 0.958 1_556 S
C371 H386 0.961 . S
C371 H387 0.960 . S
H372 C356 0.931 . S
H373 C361 0.929 . S
H374 C362 0.960 . S
H375 C362 0.962 . S
H376 C362 0.960 . S
H377 C363 0.961 . S
H378 C363 0.961 . S
H379 C363 0.961 . S
H380 C364 0.931 . S
H381 C369 0.930 . S
H382 C370 0.956 . S
H383 C370 0.961 . S
H384 C370 0.961 . S
H385 C371 0.958 1_554 S
H386 C371 0.961 . S
H387 C371 0.960 . S
C388 C389 1.391 . S
C388 C390 1.394 . S
C388 H404 0.931 . S
C389 C388 1.391 . S
C389 C393 1.376 . S
C390 C388 1.394 . S
C390 C391 1.369 . S
C390 C394 1.531 . S
C391 C390 1.369 . S
C391 C392 1.410 . S
C391 C399 1.503 . S
C392 C391 1.410 . S
C392 C393 1.392 . S
C392 C395 1.511 . S
C393 C389 1.376 . S
C393 C392 1.392 . S
C393 H405 0.929 . S
C394 C390 1.531 . S
C394 H406 0.960 . S
C394 H407 0.962 . S
C394 H408 0.960 . S
C395 C392 1.511 . S
C395 H409 0.961 . S
C395 H410 0.961 . S
C395 H411 0.961 . S
C396 C397 1.370 . S
C396 C398 1.363 . S
C396 H412 0.931 . S
C397 C396 1.370 . S
C397 C401 1.408 . S
C398 C396 1.363 . S
C398 C399 1.370 . S
C398 C402 1.524 . S
C399 C391 1.503 . S
C399 C398 1.370 . S
C399 C400 1.403 . S
C400 C399 1.403 . S
C400 C401 1.404 . S
C400 C403 1.539 . S
C401 C397 1.408 . S
C401 C400 1.404 . S
C401 H413 0.930 . S
C402 C398 1.524 . S
C402 H414 0.956 . S
C402 H415 0.961 . S
C402 H416 0.961 . S
C403 C400 1.539 . S
C403 H417 0.958 . S
C403 H418 0.961 . S
C403 H419 0.960 . S
H404 C388 0.931 . S
H405 C393 0.929 . S
H406 C394 0.960 . S
H407 C394 0.962 . S
H408 C394 0.960 . S
H409 C395 0.961 . S
H410 C395 0.961 . S
H411 C395 0.961 . S
H412 C396 0.931 . S
H413 C401 0.930 . S
H414 C402 0.956 . S
H415 C402 0.961 . S
H416 C402 0.961 . S
H417 C403 0.958 . S
H418 C403 0.961 . S
H419 C403 0.960 . S
C420 C421 1.407 1_556 S
C420 C422 1.394 . S
C420 H436 0.931 . S
C421 C420 1.407 1_554 S
C421 C425 1.358 1_655 S
C422 C420 1.394 . S
C422 C423 1.369 1_655 S
C422 C426 1.531 . S
C423 C422 1.369 1_455 S
C423 C424 1.410 . S
C423 C431 1.503 . S
C424 C423 1.410 . S
C424 C425 1.392 1_556 S
C424 C427 1.511 . S
C425 C421 1.358 1_455 S
C425 C424 1.392 1_554 S
C425 H437 0.929 . S
C426 C422 1.531 . S
C426 H438 0.960 . S
C426 H439 0.962 . S
C426 H440 0.960 . S
C427 C424 1.511 . S
C427 H441 0.961 1_556 S
C427 H442 0.961 . S
C427 H443 0.961 . S
C428 C429 1.370 1_655 S
C428 C430 1.363 . S
C428 H444 0.931 . S
C429 C428 1.370 1_455 S
C429 C433 1.408 . S
C430 C428 1.363 . S
C430 C431 1.370 1_655 S
C430 C434 1.524 . S
C431 C423 1.503 . S
C431 C430 1.370 1_455 S
C431 C432 1.403 . S
C432 C431 1.403 . S
C432 C433 1.404 . S
C432 C435 1.539 . S
C433 C429 1.408 . S
C433 C432 1.404 . S
C433 H445 0.930 . S
C434 C430 1.524 . S
C434 H446 0.956 . S
C434 H447 0.961 1_556 S
C434 H448 0.961 . S
C435 C432 1.539 . S
C435 H449 0.958 . S
C435 H450 0.961 . S
C435 H451 0.960 . S
H436 C420 0.931 . S
H437 C425 0.929 . S
H438 C426 0.960 . S
H439 C426 0.962 . S
H440 C426 0.960 . S
H441 C427 0.961 1_554 S
H442 C427 0.961 . S
H443 C427 0.961 . S
H444 C428 0.931 . S
H445 C433 0.930 . S
H446 C434 0.956 . S
H447 C434 0.961 1_554 S
H448 C434 0.961 . S
H449 C435 0.958 . S
H450 C435 0.961 . S
H451 C435 0.960 . S
C452 C453 1.391 . S
C452 C454 1.394 . S
C452 H468 0.931 . S
C453 C452 1.391 . S
C453 C457 1.376 . S
C454 C452 1.394 . S
C454 C455 1.369 . S
C454 C458 1.531 . S
C455 C454 1.369 . S
C455 C456 1.410 . S
C455 C463 1.503 . S
C456 C455 1.410 . S
C456 C457 1.392 . S
C456 C459 1.511 . S
C457 C453 1.376 . S
C457 C456 1.392 . S
C457 H469 0.929 . S
C458 C454 1.531 . S
C458 H470 0.960 . S
C458 H471 0.962 . S
C458 H472 0.960 . S
C459 C456 1.511 . S
C459 H473 0.961 . S
C459 H474 0.961 . S
C459 H475 0.961 . S
C460 C461 1.370 . S
C460 C462 1.363 . S
C460 H476 0.931 1_455 S
C461 C460 1.370 . S
C461 C465 1.408 . S
C462 C460 1.363 . S
C462 C463 1.370 . S
C462 C466 1.524 1_455 S
C463 C455 1.503 . S
C463 C462 1.370 . S
C463 C464 1.403 . S
C464 C463 1.403 . S
C464 C465 1.404 . S
C464 C467 1.539 . S
C465 C461 1.408 . S
C465 C464 1.404 . S
C465 H477 0.930 . S
C466 C462 1.524 1_655 S
C466 H478 0.956 1_655 S
C466 H479 0.961 . S
C466 H480 0.961 . S
C467 C464 1.539 . S
C467 H481 0.958 . S
C467 H482 0.961 . S
C467 H483 0.960 . S
H468 C452 0.931 . S
H469 C457 0.929 . S
H470 C458 0.960 . S
H471 C458 0.962 . S
H472 C458 0.960 . S
H473 C459 0.961 . S
H474 C459 0.961 . S
H475 C459 0.961 . S
H476 C460 0.931 1_655 S
H477 C465 0.930 . S
H478 C466 0.956 1_455 S
H479 C466 0.961 . S
H480 C466 0.961 . S
H481 C467 0.958 . S
H482 C467 0.961 . S
H483 C467 0.960 . S
C484 C485 1.391 1_565 S
C484 C486 1.394 . S
C484 H500 0.931 . S
C485 C484 1.391 1_545 S
C485 C489 1.376 . S
C486 C484 1.394 . S
C486 C487 1.369 1_565 S
C486 C490 1.531 . S
C487 C486 1.369 1_545 S
C487 C488 1.410 . S
C487 C495 1.503 . S
C488 C487 1.410 . S
C488 C489 1.392 . S
C488 C491 1.511 . S
C489 C485 1.376 . S
C489 C488 1.392 . S
C489 H501 0.929 . S
C490 C486 1.531 . S
C490 H502 0.960 . S
C490 H503 0.962 . S
C490 H504 0.960 . S
C491 C488 1.511 . S
C491 H505 0.961 . S
C491 H506 0.961 . S
C491 H507 0.961 . S
C492 C493 1.370 . S
C492 C494 1.363 . S
C492 H508 0.931 . S
C493 C492 1.370 . S
C493 C497 1.408 1_545 S
C494 C492 1.363 . S
C494 C495 1.370 . S
C494 C498 1.524 . S
C495 C487 1.503 . S
C495 C494 1.370 . S
C495 C496 1.403 1_545 S
C496 C495 1.403 1_565 S
C496 C497 1.404 . S
C496 C499 1.539 . S
C497 C493 1.408 1_565 S
C497 C496 1.404 . S
C497 H509 0.930 . S
C498 C494 1.524 . S
C498 H510 0.956 . S
C498 H511 0.961 . S
C498 H512 0.961 . S
C499 C496 1.539 . S
C499 H513 0.958 . S
C499 H514 0.961 . S
C499 H515 0.960 . S
H500 C484 0.931 . S
H501 C489 0.929 . S
H502 C490 0.960 . S
H503 C490 0.962 . S
H504 C490 0.960 . S
H505 C491 0.961 . S
H506 C491 0.961 . S
H507 C491 0.961 . S
H508 C492 0.931 . S
H509 C497 0.930 . S
H510 C498 0.956 . S
H511 C498 0.961 . S
H512 C498 0.961 . S
H513 C499 0.958 . S
H514 C499 0.961 . S
H515 C499 0.960 . S
C516 C517 1.391 . S
C516 C518 1.394 . S
C516 H532 0.931 . S
C517 C516 1.391 . S
C517 C521 1.376 . S
C518 C516 1.394 . S
C518 C519 1.369 . S
C518 C522 1.531 . S
C519 C518 1.369 . S
C519 C520 1.410 . S
C519 C527 1.503 . S
C520 C519 1.410 . S
C520 C521 1.392 . S
C520 C523 1.511 . S
C521 C517 1.376 . S
C521 C520 1.392 . S
C521 H533 0.929 . S
C522 C518 1.531 . S
C522 H534 0.960 . S
C522 H535 0.962 . S
C522 H536 0.960 . S
C523 C520 1.511 . S
C523 H537 0.961 . S
C523 H538 0.961 . S
C523 H539 0.961 . S
C524 C525 1.370 . S
C524 C526 1.363 . S
C524 H540 0.931 . S
C525 C524 1.370 . S
C525 C529 1.408 . S
C526 C524 1.363 . S
C526 C527 1.370 . S
C526 C530 1.524 . S
C527 C519 1.503 . S
C527 C526 1.370 . S
C527 C528 1.403 . S
C528 C527 1.403 . S
C528 C529 1.404 . S
C528 C531 1.539 . S
C529 C525 1.408 . S
C529 C528 1.404 . S
C529 H541 0.930 . S
C530 C526 1.524 . S
C530 H542 0.956 . S
C530 H543 0.961 . S
C530 H544 0.961 . S
C531 C528 1.539 . S
C531 H545 0.958 . S
C531 H546 0.961 . S
C531 H547 0.960 . S
H532 C516 0.931 . S
H533 C521 0.929 . S
H534 C522 0.960 . S
H535 C522 0.962 . S
H536 C522 0.960 . S
H537 C523 0.961 . S
H538 C523 0.961 . S
H539 C523 0.961 . S
H540 C524 0.931 . S
H541 C529 0.930 . S
H542 C530 0.956 . S
H543 C530 0.961 . S
H544 C530 0.961 . S
H545 C531 0.958 . S
H546 C531 0.961 . S
H547 C531 0.960 . S
C548 C549 1.391 . S
C548 C550 1.394 . S
C548 H564 0.931 . S
C549 C548 1.391 . S
C549 C553 1.376 . S
C550 C548 1.394 . S
C550 C551 1.369 . S
C550 C554 1.531 . S
C551 C550 1.369 . S
C551 C552 1.410 . S
C551 C559 1.503 . S
C552 C551 1.410 . S
C552 C553 1.392 . S
C552 C555 1.511 . S
C553 C549 1.376 . S
C553 C552 1.392 . S
C553 H565 0.929 . S
C554 C550 1.531 . S
C554 H566 0.960 . S
C554 H567 0.962 . S
C554 H568 0.960 . S
C555 C552 1.511 . S
C555 H569 0.961 . S
C555 H570 0.961 . S
C555 H571 0.961 . S
C556 C557 1.370 . S
C556 C558 1.363 . S
C556 H572 0.931 . S
C557 C556 1.370 . S
C557 C561 1.408 . S
C558 C556 1.363 . S
C558 C559 1.370 . S
C558 C562 1.524 . S
C559 C551 1.503 . S
C559 C558 1.370 . S
C559 C560 1.403 . S
C560 C559 1.403 . S
C560 C561 1.404 . S
C560 C563 1.539 . S
C561 C557 1.408 . S
C561 C560 1.404 . S
C561 H573 0.930 . S
C562 C558 1.524 . S
C562 H574 0.956 . S
C562 H575 0.961 . S
C562 H576 0.961 . S
C563 C560 1.539 . S
C563 H577 0.958 . S
C563 H578 0.961 . S
C563 H579 0.960 . S
H564 C548 0.931 . S
H565 C553 0.929 . S
H566 C554 0.960 . S
H567 C554 0.962 . S
H568 C554 0.960 . S
H569 C555 0.961 . S
H570 C555 0.961 . S
H571 C555 0.961 . S
H572 C556 0.931 . S
H573 C561 0.930 . S
H574 C562 0.956 . S
H575 C562 0.961 . S
H576 C562 0.961 . S
H577 C563 0.958 . S
H578 C563 0.961 . S
H579 C563 0.960 . S
C580 C581 1.379 1_456 S
C580 C582 1.394 . S
C580 H596 0.931 . S
C581 C580 1.379 1_654 S
C581 C585 1.385 . S
C582 C580 1.394 . S
C582 C583 1.369 . S
C582 C586 1.531 . S
C583 C582 1.369 . S
C583 C584 1.410 1_455 S
C583 C591 1.503 . S
C584 C583 1.410 1_655 S
C584 C585 1.392 1_556 S
C584 C587 1.511 . S
C585 C581 1.385 . S
C585 C584 1.392 1_554 S
C585 H597 0.929 . S
C586 C582 1.531 . S
C586 H598 0.960 . S
C586 H599 0.962 . S
C586 H600 0.960 . S
C587 C584 1.511 . S
C587 H601 0.961 1_556 S
C587 H602 0.961 . S
C587 H603 0.961 . S
C588 C589 1.370 . S
C588 C590 1.363 . S
C588 H604 0.931 . S
C589 C588 1.370 . S
C589 C593 1.408 . S
C590 C588 1.363 . S
C590 C591 1.370 . S
C590 C594 1.524 1_556 S
C591 C583 1.503 . S
C591 C590 1.370 . S
C591 C592 1.403 . S
C592 C591 1.403 . S
C592 C593 1.404 . S
C592 C595 1.539 1_455 S
C593 C589 1.408 . S
C593 C592 1.404 . S
C593 H605 0.930 . S
C594 C590 1.524 1_554 S
C594 H606 0.956 . S
C594 H607 0.961 . S
C594 H608 0.961 . S
C595 C592 1.539 1_655 S
C595 H609 0.958 1_655 S
C595 H610 0.961 . S
C595 H611 0.960 . S
H596 C580 0.931 . S
H597 C585 0.929 . S
H598 C586 0.960 . S
H599 C586 0.962 . S
H600 C586 0.960 . S
H601 C587 0.961 1_554 S
H602 C587 0.961 . S
H603 C587 0.961 . S
H604 C588 0.931 . S
H605 C593 0.930 . S
H606 C594 0.956 . S
H607 C594 0.961 . S
H608 C594 0.961 . S
H609 C595 0.958 1_455 S
H610 C595 0.961 . S
H611 C595 0.960 . S
C612 C613 1.391 . S
C612 C614 1.394 . S
C612 H628 0.931 . S
C613 C612 1.391 . S
C613 C617 1.376 1_566 S
C614 C612 1.394 . S
C614 C615 1.369 1_565 S
C614 C618 1.531 . S
C615 C614 1.369 1_545 S
C615 C616 1.410 1_556 S
C615 C623 1.503 . S
C616 C615 1.410 1_554 S
C616 C617 1.392 . S
C616 C619 1.511 . S
C617 C613 1.376 1_544 S
C617 C616 1.392 . S
C617 H629 0.929 . S
C618 C614 1.531 . S
C618 H630 0.960 . S
C618 H631 0.962 1_565 S
C618 H632 0.960 . S
C619 C616 1.511 . S
C619 H633 0.961 . S
C619 H634 0.961 . S
C619 H635 0.961 . S
C620 C621 1.370 . S
C620 C622 1.363 . S
C620 H636 0.931 . S
C621 C620 1.370 . S
C621 C625 1.408 . S
C622 C620 1.363 . S
C622 C623 1.370 . S
C622 C626 1.524 . S
C623 C615 1.503 . S
C623 C622 1.370 . S
C623 C624 1.386 1_545 S
C624 C623 1.386 1_565 S
C624 C625 1.396 1_565 S
C624 C627 1.563 . S
C625 C621 1.408 . S
C625 C624 1.396 1_545 S
C625 H637 0.930 1_545 S
C626 C622 1.524 . S
C626 H638 0.956 . S
C626 H639 0.961 . S
C626 H640 0.961 . S
C627 C624 1.563 . S
C627 H641 0.958 . S
C627 H642 0.961 . S
C627 H643 0.960 . S
H628 C612 0.931 . S
H629 C617 0.929 . S
H630 C618 0.960 . S
H631 C618 0.962 1_545 S
H632 C618 0.960 . S
H633 C619 0.961 . S
H634 C619 0.961 . S
H635 C619 0.961 . S
H636 C620 0.931 . S
H637 C625 0.930 1_565 S
H638 C626 0.956 . S
H639 C626 0.961 . S
H640 C626 0.961 . S
H641 C627 0.958 . S
H642 C627 0.961 . S
H643 C627 0.960 . S
C644 C645 1.391 . S
C644 C646 1.394 . S
C644 H660 0.931 . S
C645 C644 1.391 . S
C645 C649 1.376 . S
C646 C644 1.394 . S
C646 C647 1.369 . S
C646 C650 1.531 . S
C647 C646 1.369 . S
C647 C648 1.410 . S
C647 C655 1.503 . S
C648 C647 1.410 . S
C648 C649 1.392 . S
C648 C651 1.511 . S
C649 C645 1.376 . S
C649 C648 1.392 . S
C649 H661 0.929 . S
C650 C646 1.531 . S
C650 H662 0.960 . S
C650 H663 0.962 . S
C650 H664 0.960 . S
C651 C648 1.511 . S
C651 H665 0.961 . S
C651 H666 0.961 . S
C651 H667 0.961 . S
C652 C653 1.370 . S
C652 C654 1.363 . S
C652 H668 0.931 . S
C653 C652 1.370 . S
C653 C657 1.408 . S
C654 C652 1.363 . S
C654 C655 1.370 . S
C654 C658 1.524 . S
C655 C647 1.503 . S
C655 C654 1.370 . S
C655 C656 1.403 . S
C656 C655 1.403 . S
C656 C657 1.404 . S
C656 C659 1.539 . S
C657 C653 1.408 . S
C657 C656 1.404 . S
C657 H669 0.930 . S
C658 C654 1.524 . S
C658 H670 0.956 . S
C658 H671 0.961 . S
C658 H672 0.961 . S
C659 C656 1.539 . S
C659 H673 0.958 1_556 S
C659 H674 0.961 1_556 S
C659 H675 0.960 1_556 S
H660 C644 0.931 . S
H661 C649 0.929 . S
H662 C650 0.960 . S
H663 C650 0.962 . S
H664 C650 0.960 . S
H665 C651 0.961 . S
H666 C651 0.961 . S
H667 C651 0.961 . S
H668 C652 0.931 . S
H669 C657 0.930 . S
H670 C658 0.956 . S
H671 C658 0.961 . S
H672 C658 0.961 . S
H673 C659 0.958 1_554 S
H674 C659 0.961 1_554 S
H675 C659 0.960 1_554 S
C676 C677 1.391 . S
C676 C678 1.394 . S
C676 H692 0.931 . S
C677 C676 1.391 . S
C677 C681 1.376 . S
C678 C676 1.394 . S
C678 C679 1.369 . S
C678 C682 1.531 . S
C679 C678 1.369 . S
C679 C680 1.410 . S
C679 C687 1.503 . S
C680 C679 1.410 . S
C680 C681 1.392 . S
C680 C683 1.511 . S
C681 C677 1.376 . S
C681 C680 1.392 . S
C681 H693 0.929 . S
C682 C678 1.531 . S
C682 H694 0.960 . S
C682 H695 0.962 . S
C682 H696 0.960 . S
C683 C680 1.511 . S
C683 H697 0.961 . S
C683 H698 0.961 . S
C683 H699 0.961 . S
C684 C685 1.370 . S
C684 C686 1.363 . S
C684 H700 0.931 . S
C685 C684 1.370 . S
C685 C689 1.408 . S
C686 C684 1.363 . S
C686 C687 1.370 . S
C686 C690 1.524 . S
C687 C679 1.503 . S
C687 C686 1.370 . S
C687 C688 1.403 . S
C688 C687 1.403 . S
C688 C689 1.404 . S
C688 C691 1.539 . S
C689 C685 1.408 . S
C689 C688 1.404 . S
C689 H701 0.930 . S
C690 C686 1.524 . S
C690 H702 0.956 . S
C690 H703 0.961 . S
C690 H704 0.961 . S
C691 C688 1.539 . S
C691 H705 0.958 . S
C691 H706 0.961 . S
C691 H707 0.960 . S
H692 C676 0.931 . S
H693 C681 0.929 . S
H694 C682 0.960 . S
H695 C682 0.962 . S
H696 C682 0.960 . S
H697 C683 0.961 . S
H698 C683 0.961 . S
H699 C683 0.961 . S
H700 C684 0.931 . S
H701 C689 0.930 . S
H702 C690 0.956 . S
H703 C690 0.961 . S
H704 C690 0.961 . S
H705 C691 0.958 . S
H706 C691 0.961 . S
H707 C691 0.960 . S
C708 C709 1.391 . S
C708 C710 1.394 . S
C708 H724 0.931 . S
C709 C708 1.391 . S
C709 C713 1.376 . S
C710 C708 1.394 . S
C710 C711 1.369 . S
C710 C714 1.531 . S
C711 C710 1.369 . S
C711 C712 1.410 . S
C711 C719 1.503 . S
C712 C711 1.410 . S
C712 C713 1.392 . S
C712 C715 1.511 1_455 S
C713 C709 1.376 . S
C713 C712 1.392 . S
C713 H725 0.929 . S
C714 C710 1.531 . S
C714 H726 0.960 . S
C714 H727 0.962 1_554 S
C714 H728 0.960 . S
C715 C712 1.511 1_655 S
C715 H729 0.961 . S
C715 H730 0.961 . S
C715 H731 0.961 . S
C716 C717 1.370 . S
C716 C718 1.363 . S
C716 H732 0.931 . S
C717 C716 1.370 . S
C717 C721 1.408 1_556 S
C718 C716 1.363 . S
C718 C719 1.370 1_556 S
C718 C722 1.524 . S
C719 C711 1.503 . S
C719 C718 1.370 1_554 S
C719 C720 1.403 . S
C720 C719 1.403 . S
C720 C721 1.404 . S
C720 C723 1.539 . S
C721 C717 1.408 1_554 S
C721 C720 1.404 . S
C721 H733 0.930 . S
C722 C718 1.524 . S
C722 H734 0.956 . S
C722 H735 0.954 1_456 S
C722 H736 0.961 . S
C723 C720 1.539 . S
C723 H737 0.958 . S
C723 H738 0.961 . S
C723 H739 0.960 . S
H724 C708 0.931 . S
H725 C713 0.929 . S
H726 C714 0.960 . S
H727 C714 0.962 1_556 S
H728 C714 0.960 . S
H729 C715 0.961 . S
H730 C715 0.961 . S
H731 C715 0.961 . S
H732 C716 0.931 . S
H733 C721 0.930 . S
H734 C722 0.956 . S
H735 C722 0.954 1_654 S
H736 C722 0.961 . S
H737 C723 0.958 . S
H738 C723 0.961 . S
H739 C723 0.960 . S
C740 C741 1.391 . S
C740 C742 1.394 . S
C740 H756 0.931 . S
C741 C740 1.391 . S
C741 C745 1.376 . S
C742 C740 1.394 . S
C742 C743 1.369 . S
C742 C746 1.531 1_554 S
C743 C742 1.369 . S
C743 C744 1.410 . S
C743 C751 1.503 1_554 S
C744 C743 1.410 . S
C744 C745 1.392 . S
C744 C747 1.511 . S
C745 C741 1.376 . S
C745 C744 1.392 . S
C745 H757 0.929 . S
C746 C742 1.531 1_556 S
C746 H758 0.960 . S
C746 H759 0.962 . S
C746 H760 0.960 . S
C747 C744 1.511 . S
C747 H761 0.961 1_545 S
C747 H762 0.961 1_545 S
C747 H763 0.961 . S
C748 C749 1.370 1_565 S
C748 C750 1.363 . S
C748 H764 0.931 . S
C749 C748 1.370 1_545 S
C749 C753 1.408 . S
C750 C748 1.363 . S
C750 C751 1.370 1_565 S
C750 C754 1.524 . S
C751 C743 1.503 1_556 S
C751 C750 1.370 1_545 S
C751 C752 1.403 . S
C752 C751 1.403 . S
C752 C753 1.404 . S
C752 C755 1.539 1_556 S
C753 C749 1.408 . S
C753 C752 1.404 . S
C753 H765 0.930 . S
C754 C750 1.524 . S
C754 H766 0.956 . S
C754 H767 0.961 1_556 S
C754 H768 0.961 . S
C755 C752 1.539 1_554 S
C755 H769 0.958 1_554 S
C755 H770 0.961 . S
C755 H771 0.960 . S
H756 C740 0.931 . S
H757 C745 0.929 . S
H758 C746 0.960 . S
H759 C746 0.962 . S
H760 C746 0.960 . S
H761 C747 0.961 1_565 S
H762 C747 0.961 1_565 S
H763 C747 0.961 . S
H764 C748 0.931 . S
H765 C753 0.930 . S
H766 C754 0.956 . S
H767 C754 0.961 1_554 S
H768 C754 0.961 . S
H769 C755 0.958 1_556 S
H770 C755 0.961 . S
H771 C755 0.960 . S
C772 C773 1.391 . S
C772 C774 1.394 . S
C772 H788 0.931 . S
C773 C772 1.391 . S
C773 C777 1.376 . S
C774 C772 1.394 . S
C774 C775 1.369 . S
C774 C778 1.531 . S
C775 C774 1.369 . S
C775 C776 1.410 . S
C775 C783 1.503 1_554 S
C776 C775 1.410 . S
C776 C777 1.392 . S
C776 C779 1.511 1_554 S
C777 C773 1.376 . S
C777 C776 1.392 . S
C777 H789 0.929 . S
C778 C774 1.531 . S
C778 H790 0.960 . S
C778 H791 0.962 . S
C778 H792 0.960 . S
C779 C776 1.511 1_556 S
C779 H793 0.961 . S
C779 H794 0.961 . S
C779 H795 0.961 . S
C780 C781 1.370 . S
C780 C782 1.363 . S
C780 H796 0.931 . S
C781 C780 1.370 . S
C781 C785 1.408 . S
C782 C780 1.363 . S
C782 C783 1.370 . S
C782 C786 1.524 . S
C783 C775 1.503 1_556 S
C783 C782 1.370 . S
C783 C784 1.403 . S
C784 C783 1.403 . S
C784 C785 1.404 . S
C784 C787 1.539 1_556 S
C785 C781 1.408 . S
C785 C784 1.404 . S
C785 H797 0.930 . S
C786 C782 1.524 . S
C786 H798 0.956 . S
C786 H799 0.961 . S
C786 H800 0.961 . S
C787 C784 1.539 1_554 S
C787 H801 0.958 . S
C787 H802 0.961 . S
C787 H803 0.960 . S
H788 C772 0.931 . S
H789 C777 0.929 . S
H790 C778 0.960 . S
H791 C778 0.962 . S
H792 C778 0.960 . S
H793 C779 0.961 . S
H794 C779 0.961 . S
H795 C779 0.961 . S
H796 C780 0.931 . S
H797 C785 0.930 . S
H798 C786 0.956 . S
H799 C786 0.961 . S
H800 C786 0.961 . S
H801 C787 0.958 . S
H802 C787 0.961 . S
H803 C787 0.960 . S
C804 C805 1.391 . S
C804 C806 1.394 . S
C804 H820 0.931 . S
C805 C804 1.391 . S
C805 C809 1.376 . S
C806 C804 1.394 . S
C806 C807 1.369 . S
C806 C810 1.531 1_554 S
C807 C806 1.369 . S
C807 C808 1.410 . S
C807 C815 1.503 1_554 S
C808 C807 1.410 . S
C808 C809 1.392 . S
C808 C811 1.511 . S
C809 C805 1.376 . S
C809 C808 1.392 . S
C809 H821 0.929 . S
C810 C806 1.531 1_556 S
C810 H822 0.960 . S
C810 H823 0.962 . S
C810 H824 0.960 . S
C811 C808 1.511 . S
C811 H825 0.961 . S
C811 H826 0.961 . S
C811 H827 0.961 . S
C812 C813 1.370 . S
C812 C814 1.363 . S
C812 H828 0.931 . S
C813 C812 1.370 . S
C813 C817 1.408 . S
C814 C812 1.363 . S
C814 C815 1.370 . S
C814 C818 1.524 . S
C815 C807 1.503 1_556 S
C815 C814 1.370 . S
C815 C816 1.403 . S
C816 C815 1.403 . S
C816 C817 1.404 . S
C816 C819 1.539 1_556 S
C817 C813 1.408 . S
C817 C816 1.404 . S
C817 H829 0.930 . S
C818 C814 1.524 . S
C818 H830 0.956 . S
C818 H831 0.961 . S
C818 H832 0.961 . S
C819 C816 1.539 1_554 S
C819 H833 0.958 . S
C819 H834 0.961 . S
C819 H835 0.960 . S
H820 C804 0.931 . S
H821 C809 0.929 . S
H822 C810 0.960 . S
H823 C810 0.962 . S
H824 C810 0.960 . S
H825 C811 0.961 . S
H826 C811 0.961 . S
H827 C811 0.961 . S
H828 C812 0.931 . S
H829 C817 0.930 . S
H830 C818 0.956 . S
H831 C818 0.961 . S
H832 C818 0.961 . S
H833 C819 0.958 . S
H834 C819 0.961 . S
H835 C819 0.960 . S
C836 C837 1.391 . S
C836 C838 1.394 . S
C836 H852 0.931 . S
C837 C836 1.391 . S
C837 C841 1.376 1_655 S
C838 C836 1.394 . S
C838 C839 1.369 . S
C838 C842 1.531 . S
C839 C838 1.369 . S
C839 C840 1.410 1_655 S
C839 C847 1.503 . S
C840 C839 1.410 1_455 S
C840 C841 1.392 . S
C840 C843 1.511 . S
C841 C837 1.376 1_455 S
C841 C840 1.392 . S
C841 H853 0.929 . S
C842 C838 1.531 . S
C842 H854 0.960 . S
C842 H855 0.962 . S
C842 H856 0.960 . S
C843 C840 1.511 . S
C843 H857 0.961 . S
C843 H858 0.961 . S
C843 H859 0.961 . S
C844 C845 1.370 . S
C844 C846 1.363 . S
C844 H860 0.931 1_655 S
C845 C844 1.370 . S
C845 C849 1.408 . S
C846 C844 1.363 . S
C846 C847 1.370 . S
C846 C850 1.524 1_655 S
C847 C839 1.503 . S
C847 C846 1.370 . S
C847 C848 1.403 . S
C848 C847 1.403 . S
C848 C849 1.404 . S
C848 C851 1.539 . S
C849 C845 1.408 . S
C849 C848 1.404 . S
C849 H861 0.930 . S
C850 C846 1.524 1_455 S
C850 H862 0.956 1_455 S
C850 H863 0.961 . S
C850 H864 0.961 . S
C851 C848 1.539 . S
C851 H865 0.958 . S
C851 H866 0.961 . S
C851 H867 0.960 . S
H852 C836 0.931 . S
H853 C841 0.929 . S
H854 C842 0.960 . S
H855 C842 0.962 . S
H856 C842 0.960 . S
H857 C843 0.961 . S
H858 C843 0.961 . S
H859 C843 0.961 . S
H860 C844 0.931 1_455 S
H861 C849 0.930 . S
H862 C850 0.956 1_655 S
H863 C850 0.961 . S
H864 C850 0.961 . S
H865 C851 0.958 . S
H866 C851 0.961 . S
H867 C851 0.960 . S
C868 C869 1.391 . S
C868 C870 1.394 . S
C868 H884 0.931 . S
C869 C868 1.391 . S
C869 C873 1.376 1_545 S
C870 C868 1.394 . S
C870 C871 1.369 1_545 S
C870 C874 1.531 . S
C871 C870 1.369 1_565 S
C871 C872 1.410 . S
C871 C879 1.503 . S
C872 C871 1.410 . S
C872 C873 1.392 . S
C872 C875 1.511 . S
C873 C869 1.376 1_565 S
C873 C872 1.392 . S
C873 H885 0.929 . S
C874 C870 1.531 . S
C874 H886 0.960 . S
C874 H887 0.962 . S
C874 H888 0.960 . S
C875 C872 1.511 . S
C875 H889 0.961 . S
C875 H890 0.961 . S
C875 H891 0.961 . S
C876 C877 1.370 . S
C876 C878 1.363 . S
C876 H892 0.931 . S
C877 C876 1.370 . S
C877 C881 1.408 1_565 S
C878 C876 1.363 . S
C878 C879 1.370 . S
C878 C882 1.524 . S
C879 C871 1.503 . S
C879 C878 1.370 . S
C879 C880 1.403 1_565 S
C880 C879 1.403 1_545 S
C880 C881 1.404 . S
C880 C883 1.539 . S
C881 C877 1.408 1_545 S
C881 C880 1.404 . S
C881 H893 0.930 . S
C882 C878 1.524 . S
C882 H894 0.956 . S
C882 H895 0.961 . S
C882 H896 0.961 . S
C883 C880 1.539 . S
C883 H897 0.958 . S
C883 H898 0.961 . S
C883 H899 0.960 . S
H884 C868 0.931 . S
H885 C873 0.929 . S
H886 C874 0.960 . S
H887 C874 0.962 . S
H888 C874 0.960 . S
H889 C875 0.961 . S
H890 C875 0.961 . S
H891 C875 0.961 . S
H892 C876 0.931 . S
H893 C881 0.930 . S
H894 C882 0.956 . S
H895 C882 0.961 . S
H896 C882 0.961 . S
H897 C883 0.958 . S
H898 C883 0.961 . S
H899 C883 0.960 . S
C900 C901 1.391 . S
C900 C902 1.394 . S
C900 H916 0.931 . S
C901 C900 1.391 . S
C901 C905 1.376 . S
C902 C900 1.394 . S
C902 C903 1.369 . S
C902 C906 1.531 . S
C903 C902 1.369 . S
C903 C904 1.410 . S
C903 C911 1.503 . S
C904 C903 1.410 . S
C904 C905 1.392 . S
C904 C907 1.511 . S
C905 C901 1.376 . S
C905 C904 1.392 . S
C905 H917 0.929 . S
C906 C902 1.531 . S
C906 H918 0.960 . S
C906 H919 0.962 . S
C906 H920 0.960 . S
C907 C904 1.511 . S
C907 H921 0.961 . S
C907 H922 0.961 . S
C907 H923 0.961 . S
C908 C909 1.370 . S
C908 C910 1.363 . S
C908 H924 0.931 . S
C909 C908 1.370 . S
C909 C913 1.408 . S
C910 C908 1.363 . S
C910 C911 1.370 . S
C910 C914 1.524 . S
C911 C903 1.503 . S
C911 C910 1.370 . S
C911 C912 1.403 . S
C912 C911 1.403 . S
C912 C913 1.404 . S
C912 C915 1.539 . S
C913 C909 1.408 . S
C913 C912 1.404 . S
C913 H925 0.930 . S
C914 C910 1.524 . S
C914 H926 0.956 . S
C914 H927 0.961 . S
C914 H928 0.961 . S
C915 C912 1.539 . S
C915 H929 0.958 . S
C915 H930 0.961 . S
C915 H931 0.960 . S
H916 C900 0.931 . S
H917 C905 0.929 . S
H918 C906 0.960 . S
H919 C906 0.962 . S
H920 C906 0.960 . S
H921 C907 0.961 . S
H922 C907 0.961 . S
H923 C907 0.961 . S
H924 C908 0.931 . S
H925 C913 0.930 . S
H926 C914 0.956 . S
H927 C914 0.961 . S
H928 C914 0.961 . S
H929 C915 0.958 . S
H930 C915 0.961 . S
H931 C915 0.960 . S
C932 C933 1.391 . S
C932 C934 1.394 . S
C932 H948 0.931 . S
C933 C932 1.391 . S
C933 C937 1.376 . S
C934 C932 1.394 . S
C934 C935 1.369 . S
C934 C938 1.531 . S
C935 C934 1.369 . S
C935 C936 1.410 . S
C935 C943 1.503 . S
C936 C935 1.410 . S
C936 C937 1.392 . S
C936 C939 1.511 . S
C937 C933 1.376 . S
C937 C936 1.392 . S
C937 H949 0.929 . S
C938 C934 1.531 . S
C938 H950 0.960 . S
C938 H951 0.962 . S
C938 H952 0.960 . S
C939 C936 1.511 . S
C939 H953 0.961 . S
C939 H954 0.961 . S
C939 H955 0.961 . S
C940 C941 1.370 . S
C940 C942 1.363 . S
C940 H956 0.931 . S
C941 C940 1.370 . S
C941 C945 1.408 . S
C942 C940 1.363 . S
C942 C943 1.370 . S
C942 C946 1.524 . S
C943 C935 1.503 . S
C943 C942 1.370 . S
C943 C944 1.403 . S
C944 C943 1.403 . S
C944 C945 1.404 . S
C944 C947 1.539 . S
C945 C941 1.408 . S
C945 C944 1.404 . S
C945 H957 0.930 . S
C946 C942 1.524 . S
C946 H958 0.956 . S
C946 H959 0.961 . S
C946 H960 0.961 . S
C947 C944 1.539 . S
C947 H961 0.958 . S
C947 H962 0.961 . S
C947 H963 0.960 . S
H948 C932 0.931 . S
H949 C937 0.929 . S
H950 C938 0.960 . S
H951 C938 0.962 . S
H952 C938 0.960 . S
H953 C939 0.961 . S
H954 C939 0.961 . S
H955 C939 0.961 . S
H956 C940 0.931 . S
H957 C945 0.930 . S
H958 C946 0.956 . S
H959 C946 0.961 . S
H960 C946 0.961 . S
H961 C947 0.958 . S
H962 C947 0.961 . S
H963 C947 0.960 . S
C197 C82 1.448 . S
C205 C120 1.591 . S
C237 C143 1.621 . S
C229 C95 1.470 . S
C269 C166 1.636 . S
C261 C56 1.530 . S
C301 C193 1.501 . S
C293 C69 1.525 . S
C333 C121 1.560 . S
C325 C30 1.433 1_556 S
C357 C43 1.425 . S
C365 C144 1.497 . S
C389 C4 1.404 . S
C397 C167 1.483 . S
C421 C17 1.414 1_655 S
C429 C192 1.587 . S
C461 C122 0.414 . S
C453 C74 0.563 . S
C493 C145 0.394 . S
C485 C87 0.386 . S
C525 C168 0.430 . S
C517 C100 0.401 . S
C549 C61 0.625 . S
C557 C194 0.585 . S
C581 C22 0.742 1_655 S
C589 C125 0.686 . S
C621 C148 0.655 . S
C613 C35 0.674 1_566 S
C653 C171 0.674 . S
C645 C48 0.564 . S
C677 C9 0.537 . S
C685 C191 0.420 . S
C709 C73 1.549 . S
C717 C123 1.560 . S
C741 C86 1.517 . S
C749 C146 1.524 . S
C781 C169 1.552 . S
C773 C99 1.515 . S
C813 C190 1.391 . S
C805 C60 1.315 . S
C837 C21 1.622 1_655 S
C845 C124 1.536 . S
C877 C147 1.487 . S
C869 C34 1.542 . S
C909 C170 1.496 . S
C901 C47 1.515 . S
C933 C8 1.660 . S
C941 C189 1.731 . S
