# Generated by pormake.
# Topology eea, (3,6)-cn, num edge types: 1
# Building blocks:
#     Node 0, Type 0, BuildingBlock: MIDCAF_clean_linker_0, # of connection points: 3
#     Node 1, Type 0, BuildingBlock: MIDCAF_clean_linker_0, # of connection points: 3
#     Node 2, Type 0, BuildingBlock: MIDCAF_clean_linker_0, # of connection points: 3
#     Node 3, Type 0, BuildingBlock: MIDCAF_clean_linker_0, # of connection points: 3
#     Node 4, Type 0, BuildingBlock: MIDCAF_clean_linker_0, # of connection points: 3
#     Node 5, Type 0, BuildingBlock: MIDCAF_clean_linker_0, # of connection points: 3
#     Node 6, Type 0, BuildingBlock: MIDCAF_clean_linker_0, # of connection points: 3
#     Node 7, Type 0, BuildingBlock: MIDCAF_clean_linker_0, # of connection points: 3
#     Node 8, Type 0, BuildingBlock: MIDCAF_clean_linker_0, # of connection points: 3
#     Node 9, Type 0, BuildingBlock: MIDCAF_clean_linker_0, # of connection points: 3
#     Node 10, Type 0, BuildingBlock: MIDCAF_clean_linker_0, # of connection points: 3
#     Node 11, Type 0, BuildingBlock: MIDCAF_clean_linker_0, # of connection points: 3
#     Node 12, Type 0, BuildingBlock: MIDCAF_clean_linker_0, # of connection points: 3
#     Node 13, Type 0, BuildingBlock: MIDCAF_clean_linker_0, # of connection points: 3
#     Node 14, Type 0, BuildingBlock: MIDCAF_clean_linker_0, # of connection points: 3
#     Node 15, Type 0, BuildingBlock: MIDCAF_clean_linker_0, # of connection points: 3
#     Node 16, Type 0, BuildingBlock: MIDCAF_clean_linker_0, # of connection points: 3
#     Node 17, Type 0, BuildingBlock: MIDCAF_clean_linker_0, # of connection points: 3
#     Node 18, Type 1, BuildingBlock: NUHQIS_clean_sbu_0, # of connection points: 6
#     Node 19, Type 1, BuildingBlock: NUHQIS_clean_sbu_0, # of connection points: 6
#     Node 20, Type 1, BuildingBlock: NUHQIS_clean_sbu_0, # of connection points: 6
#     Node 21, Type 1, BuildingBlock: NUHQIS_clean_sbu_0, # of connection points: 6
#     Node 22, Type 1, BuildingBlock: NUHQIS_clean_sbu_0, # of connection points: 6
#     Node 23, Type 1, BuildingBlock: NUHQIS_clean_sbu_0, # of connection points: 6
#     Node 24, Type 1, BuildingBlock: NUHQIS_clean_sbu_0, # of connection points: 6
#     Node 25, Type 1, BuildingBlock: NUHQIS_clean_sbu_0, # of connection points: 6
#     Node 26, Type 1, BuildingBlock: NUHQIS_clean_sbu_0, # of connection points: 6
#     Edge 27, Type (0, 1), BuildingBlock: TEMPAE_clean_linker_10, # of connection points: 2
#     Edge 28, Type (0, 1), BuildingBlock: TEMPAE_clean_linker_10, # of connection points: 2
#     Edge 29, Type (0, 1), BuildingBlock: TEMPAE_clean_linker_10, # of connection points: 2
#     Edge 30, Type (0, 1), BuildingBlock: TEMPAE_clean_linker_10, # of connection points: 2
#     Edge 31, Type (0, 1), BuildingBlock: TEMPAE_clean_linker_10, # of connection points: 2
#     Edge 32, Type (0, 1), BuildingBlock: TEMPAE_clean_linker_10, # of connection points: 2
#     Edge 33, Type (0, 1), BuildingBlock: TEMPAE_clean_linker_10, # of connection points: 2
#     Edge 34, Type (0, 1), BuildingBlock: TEMPAE_clean_linker_10, # of connection points: 2
#     Edge 35, Type (0, 1), BuildingBlock: TEMPAE_clean_linker_10, # of connection points: 2
#     Edge 36, Type (0, 1), BuildingBlock: TEMPAE_clean_linker_10, # of connection points: 2
#     Edge 37, Type (0, 1), BuildingBlock: TEMPAE_clean_linker_10, # of connection points: 2
#     Edge 38, Type (0, 1), BuildingBlock: TEMPAE_clean_linker_10, # of connection points: 2
#     Edge 39, Type (0, 1), BuildingBlock: TEMPAE_clean_linker_10, # of connection points: 2
#     Edge 40, Type (0, 1), BuildingBlock: TEMPAE_clean_linker_10, # of connection points: 2
#     Edge 41, Type (0, 1), BuildingBlock: TEMPAE_clean_linker_10, # of connection points: 2
#     Edge 42, Type (0, 1), BuildingBlock: TEMPAE_clean_linker_10, # of connection points: 2
#     Edge 43, Type (0, 1), BuildingBlock: TEMPAE_clean_linker_10, # of connection points: 2
#     Edge 44, Type (0, 1), BuildingBlock: TEMPAE_clean_linker_10, # of connection points: 2
#     Edge 45, Type (0, 1), BuildingBlock: TEMPAE_clean_linker_10, # of connection points: 2
#     Edge 46, Type (0, 1), BuildingBlock: TEMPAE_clean_linker_10, # of connection points: 2
#     Edge 47, Type (0, 1), BuildingBlock: TEMPAE_clean_linker_10, # of connection points: 2
#     Edge 48, Type (0, 1), BuildingBlock: TEMPAE_clean_linker_10, # of connection points: 2
#     Edge 49, Type (0, 1), BuildingBlock: TEMPAE_clean_linker_10, # of connection points: 2
#     Edge 50, Type (0, 1), BuildingBlock: TEMPAE_clean_linker_10, # of connection points: 2
#     Edge 51, Type (0, 1), BuildingBlock: TEMPAE_clean_linker_10, # of connection points: 2
#     Edge 52, Type (0, 1), BuildingBlock: TEMPAE_clean_linker_10, # of connection points: 2
#     Edge 53, Type (0, 1), BuildingBlock: TEMPAE_clean_linker_10, # of connection points: 2
#     Edge 54, Type (0, 1), BuildingBlock: TEMPAE_clean_linker_10, # of connection points: 2
#     Edge 55, Type (0, 1), BuildingBlock: TEMPAE_clean_linker_10, # of connection points: 2
#     Edge 56, Type (0, 1), BuildingBlock: TEMPAE_clean_linker_10, # of connection points: 2
#     Edge 57, Type (0, 1), BuildingBlock: TEMPAE_clean_linker_10, # of connection points: 2
#     Edge 58, Type (0, 1), BuildingBlock: TEMPAE_clean_linker_10, # of connection points: 2
#     Edge 59, Type (0, 1), BuildingBlock: TEMPAE_clean_linker_10, # of connection points: 2
#     Edge 60, Type (0, 1), BuildingBlock: TEMPAE_clean_linker_10, # of connection points: 2
#     Edge 61, Type (0, 1), BuildingBlock: TEMPAE_clean_linker_10, # of connection points: 2
#     Edge 62, Type (0, 1), BuildingBlock: TEMPAE_clean_linker_10, # of connection points: 2
#     Edge 63, Type (0, 1), BuildingBlock: TEMPAE_clean_linker_10, # of connection points: 2
#     Edge 64, Type (0, 1), BuildingBlock: TEMPAE_clean_linker_10, # of connection points: 2
#     Edge 65, Type (0, 1), BuildingBlock: TEMPAE_clean_linker_10, # of connection points: 2
#     Edge 66, Type (0, 1), BuildingBlock: TEMPAE_clean_linker_10, # of connection points: 2
#     Edge 67, Type (0, 1), BuildingBlock: TEMPAE_clean_linker_10, # of connection points: 2
#     Edge 68, Type (0, 1), BuildingBlock: TEMPAE_clean_linker_10, # of connection points: 2
#     Edge 69, Type (0, 1), BuildingBlock: TEMPAE_clean_linker_10, # of connection points: 2
#     Edge 70, Type (0, 1), BuildingBlock: TEMPAE_clean_linker_10, # of connection points: 2
#     Edge 71, Type (0, 1), BuildingBlock: TEMPAE_clean_linker_10, # of connection points: 2
#     Edge 72, Type (0, 1), BuildingBlock: TEMPAE_clean_linker_10, # of connection points: 2
#     Edge 73, Type (0, 1), BuildingBlock: TEMPAE_clean_linker_10, # of connection points: 2
#     Edge 74, Type (0, 1), BuildingBlock: TEMPAE_clean_linker_10, # of connection points: 2
#     Edge 75, Type (0, 1), BuildingBlock: TEMPAE_clean_linker_10, # of connection points: 2
#     Edge 76, Type (0, 1), BuildingBlock: TEMPAE_clean_linker_10, # of connection points: 2
#     Edge 77, Type (0, 1), BuildingBlock: TEMPAE_clean_linker_10, # of connection points: 2
#     Edge 78, Type (0, 1), BuildingBlock: TEMPAE_clean_linker_10, # of connection points: 2
#     Edge 79, Type (0, 1), BuildingBlock: TEMPAE_clean_linker_10, # of connection points: 2
#     Edge 80, Type (0, 1), BuildingBlock: TEMPAE_clean_linker_10, # of connection points: 2
# Relax obj value: 0.035
# Max RMSD: 0.133
# Mean RMSD: 0.075
data_MOF--net-eea--node1-NUHQIS_clean_sbu_0--node2-MIDCAF_clean_linker_0--edge1-TEMPAE_clean_linker_10
_symmetry_space_group_name_H-M    P1
_symmetry_Int_Tables_number       1
_symmetry_cell_setting            triclinic
loop_
_symmetry_equiv_pos_as_xyz
'x, y, z'
_cell_length_a     62.984737
_cell_length_b     62.783018
_cell_length_c     90.004489
_cell_angle_alpha  93.356131
_cell_angle_beta   93.614069
_cell_angle_gamma 119.68971
loop_
_atom_site_label
_atom_site_type_symbol
_atom_site_fract_x
_atom_site_fract_y
_atom_site_fract_z
_atom_type_partial_charge
C0 C 0.27842 0.06573 0.4096 0.0
C1 C 0.2634 0.05696 0.39591 0.0
C2 C 0.25779 0.07294 0.38853 0.0
C3 C 0.26648 0.09701 0.39488 0.0
H4 H 0.2612 0.15751 0.38864 0.0
H5 H 0.24559 0.18192 0.37721 0.0
H6 H 0.28153 0.23832 0.41451 0.0
H7 H 0.29747 0.21414 0.42595 0.0
H8 H 0.32097 0.20362 0.45449 0.0
H9 H 0.33521 0.21338 0.48115 0.0
H10 H 0.3295 0.14212 0.48257 0.0
H11 H 0.31508 0.13213 0.45602 0.0
H12 H 0.29816 0.09577 0.42671 0.0
H13 H 0.28291 0.05376 0.41558 0.0
H14 H 0.24653 0.06678 0.37786 0.0
H15 H 0.26145 0.10866 0.38896 0.0
N16 N 0.28271 0.14574 0.40896 0.0
N17 N 0.29986 0.17502 0.42997 0.0
N18 N 0.29997 0.13776 0.43023 0.0
C19 C 0.28839 0.16805 0.4158 0.0
C20 C 0.30578 0.16002 0.43726 0.0
C21 C 0.28853 0.13052 0.41606 0.0
C22 C 0.28048 0.18375 0.4083 0.0
C23 C 0.266 0.1752 0.39439 0.0
C24 C 0.25691 0.18911 0.38785 0.0
C25 C 0.26219 0.21192 0.39503 0.0
C26 C 0.2773 0.22087 0.40868 0.0
C27 C 0.28632 0.20692 0.41526 0.0
C28 C 0.31663 0.16697 0.45309 0.0
C29 C 0.32292 0.19007 0.46043 0.0
C30 C 0.33119 0.19575 0.4757 0.0
C31 C 0.33322 0.17842 0.48395 0.0
C32 C 0.32773 0.15569 0.47653 0.0
C33 C 0.31959 0.15004 0.46127 0.0
C34 C 0.28091 0.10562 0.40881 0.0
C35 C 0.28704 0.08979 0.416 0.0
C36 C 0.96327 0.21481 0.4117 0.0
C37 C 0.97056 0.20314 0.40104 0.0
C38 C 0.95567 0.17772 0.39696 0.0
C39 C 0.93375 0.16422 0.40329 0.0
H40 H 0.86414 0.10446 0.3915 0.0
H41 H 0.83398 0.06371 0.37935 0.0
H42 H 0.79107 0.05066 0.41684 0.0
H43 H 0.82117 0.09119 0.42911 0.0
H44 H 0.836 0.13231 0.45399 0.0
H45 H 0.82946 0.14265 0.47894 0.0
H46 H 0.90231 0.20665 0.48471 0.0
H47 H 0.90927 0.19595 0.45962 0.0
H48 H 0.9363 0.21067 0.42642 0.0
H49 H 0.97456 0.23441 0.41507 0.0
H50 H 0.96083 0.16834 0.3887 0.0
H51 H 0.92264 0.14464 0.39983 0.0
N52 N 0.88544 0.13928 0.41326 0.0
N53 N 0.86029 0.13356 0.43241 0.0
N54 N 0.89898 0.1693 0.43387 0.0
C55 C 0.864 0.12537 0.4191 0.0
C56 C 0.87758 0.15544 0.43989 0.0
C57 C 0.90299 0.16126 0.42053 0.0
C58 C 0.8452 0.10111 0.41134 0.0
C59 C 0.84825 0.09298 0.39716 0.0
C60 C 0.83092 0.06969 0.39014 0.0
C61 C 0.81027 0.05402 0.39719 0.0
C62 C 0.80699 0.06226 0.41124 0.0
C63 C 0.82421 0.08556 0.41822 0.0
C64 C 0.87326 0.1632 0.45476 0.0
C65 C 0.85068 0.14871 0.46046 0.0
C66 C 0.8468 0.15476 0.47479 0.0
C67 C 0.86532 0.17553 0.48383 0.0
C68 C 0.88775 0.1904 0.47806 0.0
C69 C 0.89168 0.18433 0.46365 0.0
C70 C 0.9264 0.1758 0.414 0.0
C71 C 0.94148 0.20122 0.41823 0.0
C72 C 0.81088 0.76417 0.41864 0.0
C73 C 0.81865 0.7862 0.41188 0.0
C74 C 0.84411 0.80235 0.41187 0.0
C75 C 0.86117 0.7965 0.41822 0.0
H76 H 0.91886 0.78166 0.40414 0.0
H77 H 0.95595 0.7914 0.39234 0.0
H78 H 0.9886 0.78187 0.43318 0.0
H79 H 0.95133 0.77192 0.4451 0.0
H80 H 0.90916 0.73359 0.46659 0.0
H81 H 0.90018 0.7135 0.48964 0.0
H82 H 0.83686 0.72285 0.49143 0.0
H83 H 0.84531 0.74217 0.46833 0.0
H84 H 0.8214 0.74166 0.43052 0.0
H85 H 0.79156 0.75088 0.4186 0.0
H86 H 0.851 0.81974 0.40713 0.0
H87 H 0.8806 0.80931 0.41803 0.0
N88 N 0.8926 0.77513 0.42618 0.0
N89 N 0.90445 0.75812 0.44534 0.0
N90 N 0.86666 0.75711 0.44479 0.0
C91 C 0.90923 0.7697 0.43262 0.0
C92 C 0.88318 0.7518 0.45152 0.0
C93 C 0.87129 0.76884 0.43219 0.0
C94 C 0.93206 0.77598 0.42559 0.0
C95 C 0.93391 0.78168 0.41067 0.0
C96 C 0.95511 0.78713 0.40385 0.0
C97 C 0.97511 0.78733 0.41183 0.0
C98 C 0.97348 0.78197 0.4268 0.0
C99 C 0.95209 0.77616 0.43358 0.0
C100 C 0.87795 0.73949 0.46553 0.0
C101 C 0.89328 0.7313 0.47188 0.0
C102 C 0.88819 0.71987 0.48514 0.0
C103 C 0.86773 0.71645 0.49239 0.0
C104 C 0.85249 0.72471 0.48603 0.0
C105 C 0.85747 0.73598 0.47277 0.0
C106 C 0.85327 0.77473 0.42514 0.0
C107 C 0.82799 0.75871 0.42538 0.0
C108 C 0.03509 0.232 0.60094 0.0
C109 C 0.02718 0.21437 0.6113 0.0
C110 C 0.04096 0.20287 0.61455 0.0
C111 C 0.06228 0.20899 0.60769 0.0
H112 H 0.12612 0.20604 0.61352 0.0
H113 H 0.15615 0.19613 0.62451 0.0
H114 H 0.20444 0.23319 0.59114 0.0
H115 H 0.17471 0.24343 0.58023 0.0
H116 H 0.15486 0.25891 0.55323 0.0
H117 H 0.16341 0.27907 0.53046 0.0
H118 H 0.10298 0.29258 0.53437 0.0
H119 H 0.09385 0.27163 0.55714 0.0
H120 H 0.06184 0.25155 0.58597 0.0
H121 H 0.02472 0.24102 0.59814 0.0
H122 H 0.03541 0.18936 0.62258 0.0
H123 H 0.07247 0.1998 0.61053 0.0
N124 N 0.10915 0.22655 0.59588 0.0
N125 N 0.13441 0.24428 0.57698 0.0
N126 N 0.09769 0.24519 0.57757 0.0
C127 C 0.13 0.23223 0.58945 0.0
C128 C 0.11842 0.25081 0.57092 0.0
C129 C 0.0929 0.23297 0.59005 0.0
C130 C 0.14794 0.22561 0.59599 0.0
C131 C 0.14311 0.21207 0.60849 0.0
C132 C 0.16026 0.20625 0.61475 0.0
C133 C 0.18268 0.2139 0.6087 0.0
C134 C 0.18746 0.22728 0.59616 0.0
C135 C 0.1703 0.23303 0.58987 0.0
C136 C 0.12364 0.26361 0.5571 0.0
C137 C 0.14335 0.2662 0.54934 0.0
C138 C 0.1484 0.27796 0.53627 0.0
C139 C 0.13403 0.28766 0.5306 0.0
C140 C 0.11429 0.28513 0.53834 0.0
C141 C 0.10913 0.2732 0.55144 0.0
C142 C 0.07019 0.22655 0.59726 0.0
C143 C 0.05627 0.23791 0.59391 0.0
C144 C 0.72801 0.78447 0.61072 0.0
C145 C 0.73252 0.78509 0.62623 0.0
C146 C 0.72648 0.79914 0.63592 0.0
C147 C 0.71682 0.81313 0.63013 0.0
H148 H 0.72927 0.88511 0.63777 0.0
H149 H 0.74527 0.92658 0.64999 0.0
H150 H 0.71032 0.94343 0.61333 0.0
H151 H 0.694 0.90194 0.60115 0.0
H152 H 0.68157 0.87012 0.56983 0.0
H153 H 0.6682 0.8625 0.54316 0.0
H154 H 0.65435 0.78786 0.54321 0.0
H155 H 0.66841 0.79565 0.5698 0.0
H156 H 0.71497 0.79747 0.5929 0.0
H157 H 0.73251 0.77366 0.60308 0.0
H158 H 0.72992 0.79986 0.64794 0.0
H159 H 0.71285 0.82431 0.63782 0.0
N160 N 0.70898 0.8501 0.6163 0.0
N161 N 0.69198 0.86025 0.59588 0.0
N162 N 0.69305 0.82343 0.5941 0.0
C163 C 0.70299 0.86593 0.61015 0.0
C164 C 0.68679 0.83894 0.58782 0.0
C165 C 0.70403 0.82881 0.60834 0.0
C166 C 0.7105 0.89018 0.61837 0.0
C167 C 0.72471 0.8975 0.63236 0.0
C168 C 0.73401 0.92132 0.63936 0.0
C169 C 0.72922 0.93831 0.63257 0.0
C170 C 0.71418 0.93069 0.6189 0.0
C171 C 0.70494 0.90691 0.61188 0.0
C172 C 0.6763 0.83358 0.57196 0.0
C173 C 0.67545 0.85199 0.56421 0.0
C174 C 0.66766 0.84759 0.54891 0.0
C175 C 0.66035 0.82461 0.54102 0.0
C176 C 0.6603 0.80591 0.54889 0.0
C177 C 0.66826 0.81036 0.56417 0.0
C178 C 0.71259 0.81281 0.61458 0.0
C179 C 0.71788 0.798 0.60493 0.0
C180 C 0.19524 0.93533 0.61107 0.0
C181 C 0.18781 0.94891 0.62009 0.0
C182 C 0.16276 0.93915 0.62174 0.0
C183 C 0.14535 0.91618 0.6144 0.0
H184 H 0.07306 0.86051 0.61327 0.0
H185 H 0.0343 0.8365 0.62378 0.0
H186 H 0.02251 0.77059 0.59813 0.0
H187 H 0.06135 0.79465 0.58742 0.0
H188 H 0.09098 0.80998 0.55524 0.0
H189 H 0.09873 0.80089 0.53003 0.0
H190 H 0.17211 0.86383 0.53754 0.0
H191 H 0.16454 0.8731 0.56255 0.0
H192 H 0.18398 0.90262 0.5964 0.0
H193 H 0.21449 0.94261 0.60962 0.0
H194 H 0.15668 0.94933 0.6287 0.0
H195 H 0.12613 0.90918 0.61578 0.0
N196 N 0.11177 0.86559 0.60158 0.0
N197 N 0.09957 0.83614 0.5808 0.0
N198 N 0.13901 0.87109 0.58372 0.0
C199 C 0.09447 0.844 0.59381 0.0
C200 C 0.12184 0.84973 0.57565 0.0
C201 C 0.13412 0.87912 0.59667 0.0
C202 C 0.07034 0.82946 0.59954 0.0
C203 C 0.0622 0.84092 0.60979 0.0
C204 C 0.03994 0.82723 0.61575 0.0
C205 C 0.02549 0.80174 0.61176 0.0
C206 C 0.03343 0.79024 0.60142 0.0
C207 C 0.05556 0.80402 0.59526 0.0
C208 C 0.12702 0.84245 0.56092 0.0
C209 C 0.10885 0.82175 0.55158 0.0
C210 C 0.11329 0.81647 0.53715 0.0
C211 C 0.13591 0.83184 0.53177 0.0
C212 C 0.15433 0.85193 0.54129 0.0
C213 C 0.14998 0.85715 0.55568 0.0
C214 C 0.15267 0.90281 0.60504 0.0
C215 C 0.17779 0.91257 0.60348 0.0
C216 C 0.95456 0.40459 0.73368 0.0
C217 C 0.93517 0.39464 0.72215 0.0
C218 C 0.92507 0.4089 0.71741 0.0
C219 C 0.93382 0.43262 0.72434 0.0
H220 H 0.94155 0.50054 0.71717 0.0
H221 H 0.92593 0.52545 0.70649 0.0
H222 H 0.94425 0.56913 0.74912 0.0
H223 H 0.95965 0.54407 0.75995 0.0
H224 H 0.98601 0.53286 0.78681 0.0
H225 H 0.99718 0.53859 0.81373 0.0
H226 H 0.99307 0.4677 0.81149 0.0
H227 H 0.98244 0.46211 0.78456 0.0
H228 H 0.97752 0.43518 0.75001 0.0
H229 H 0.9625 0.39376 0.73752 0.0
H230 H 0.91011 0.40151 0.7085 0.0
H231 H 0.92526 0.44296 0.72064 0.0
N232 N 0.95443 0.48237 0.73836 0.0
N233 N 0.96894 0.50844 0.76078 0.0
N234 N 0.96964 0.47138 0.75919 0.0
C235 C 0.95911 0.50358 0.74628 0.0
C236 C 0.97433 0.49247 0.76732 0.0
C237 C 0.95973 0.46626 0.7447 0.0
C238 C 0.9517 0.52015 0.73947 0.0
C239 C 0.94244 0.51555 0.72428 0.0
C240 C 0.93359 0.5299 0.71811 0.0
C241 C 0.93373 0.54911 0.727 0.0
C242 C 0.94361 0.5542 0.74206 0.0
C243 C 0.95258 0.53992 0.74823 0.0
C244 C 0.98315 0.49694 0.78348 0.0
C245 C 0.98769 0.51856 0.79201 0.0
C246 C 0.99395 0.5218 0.80747 0.0
C247 C 0.99581 0.50351 0.81476 0.0
C248 C 0.99201 0.48225 0.80619 0.0
C249 C 0.98579 0.47901 0.79073 0.0
C250 C 0.95251 0.44229 0.73635 0.0
C251 C 0.96303 0.42817 0.74084 0.0
C252 C 0.63577 0.54284 0.75113 0.0
C253 C 0.63656 0.54344 0.73561 0.0
C254 C 0.61466 0.53036 0.72602 0.0
C255 C 0.59233 0.5163 0.73184 0.0
H256 H 0.53299 0.44351 0.72374 0.0
H257 H 0.50425 0.40316 0.71056 0.0
H258 H 0.45558 0.38884 0.74507 0.0
H259 H 0.48404 0.42922 0.75821 0.0
H260 H 0.50673 0.45982 0.78964 0.0
H261 H 0.49983 0.46873 0.81487 0.0
H262 H 0.56147 0.54281 0.81664 0.0
H263 H 0.56896 0.53362 0.79143 0.0
H264 H 0.61322 0.52887 0.769 0.0
H265 H 0.65251 0.55289 0.7587 0.0
H266 H 0.61494 0.53057 0.714 0.0
H267 H 0.57574 0.50601 0.72417 0.0
N268 N 0.55053 0.47869 0.74518 0.0
N269 N 0.52555 0.46918 0.76476 0.0
N270 N 0.56408 0.5053 0.76744 0.0
C271 C 0.52926 0.46329 0.75078 0.0
C272 C 0.54276 0.49016 0.77314 0.0
C273 C 0.56799 0.49968 0.75343 0.0
C274 C 0.51096 0.43961 0.74212 0.0
C275 C 0.51607 0.4319 0.72848 0.0
C276 C 0.49966 0.40872 0.72094 0.0
C277 C 0.47774 0.3928 0.72682 0.0
C278 C 0.47223 0.40079 0.74019 0.0
C279 C 0.48866 0.42392 0.74776 0.0
C280 C 0.53843 0.496 0.78846 0.0
C281 C 0.51882 0.47807 0.79534 0.0
C282 C 0.51474 0.48324 0.80982 0.0
C283 C 0.52998 0.50656 0.81778 0.0
C284 C 0.54954 0.52457 0.81089 0.0
C285 C 0.55377 0.51932 0.79641 0.0
C286 C 0.59146 0.51556 0.74738 0.0
C287 C 0.61334 0.52924 0.75699 0.0
C288 C 0.48322 0.09891 0.75471 0.0
C289 C 0.49079 0.11763 0.74511 0.0
C290 C 0.51559 0.13053 0.74239 0.0
C291 C 0.53244 0.12457 0.74898 0.0
H292 H 0.60907 0.14196 0.75384 0.0
H293 H 0.64685 0.1536 0.7425 0.0
H294 H 0.64048 0.08354 0.7508 0.0
H295 H 0.60374 0.07298 0.76319 0.0
H296 H 0.58045 0.06415 0.80015 0.0
H297 H 0.571 0.0437 0.82306 0.0
H298 H 0.5023 0.04369 0.82106 0.0
H299 H 0.51133 0.06349 0.79812 0.0
H300 H 0.49362 0.07859 0.76878 0.0
H301 H 0.46424 0.0888 0.75708 0.0
H302 H 0.52186 0.14495 0.73495 0.0
H303 H 0.55139 0.13473 0.74656 0.0
N304 N 0.56435 0.10618 0.75989 0.0
N305 N 0.57431 0.08587 0.77782 0.0
N306 N 0.53701 0.08581 0.77742 0.0
C307 C 0.5802 0.09942 0.76592 0.0
C308 C 0.55278 0.07919 0.78373 0.0
C309 C 0.54259 0.09923 0.76551 0.0
C310 C 0.60349 0.10658 0.75938 0.0
C311 C 0.61593 0.12918 0.75332 0.0
C312 C 0.63752 0.13572 0.74667 0.0
C313 C 0.64686 0.11947 0.74548 0.0
C314 C 0.63433 0.09684 0.75167 0.0
C315 C 0.6131 0.09063 0.75871 0.0
C316 C 0.54672 0.06559 0.79725 0.0
C317 C 0.56324 0.05961 0.80452 0.0
C318 C 0.55789 0.04801 0.81771 0.0
C319 C 0.53591 0.04207 0.82392 0.0
C320 C 0.51924 0.04766 0.8165 0.0
C321 C 0.52455 0.05921 0.80335 0.0
C322 C 0.52489 0.10583 0.75861 0.0
C323 C 0.50011 0.09318 0.76147 0.0
C324 C 0.70059 0.56939 0.93562 0.0
C325 C 0.68823 0.54646 0.94151 0.0
C326 C 0.69807 0.53065 0.9402 0.0
C327 C 0.71989 0.53783 0.93367 0.0
H328 H 0.78562 0.53387 0.94029 0.0
H329 H 0.8158 0.52412 0.95145 0.0
H330 H 0.87232 0.58091 0.92905 0.0
H331 H 0.84234 0.59067 0.91783 0.0
H332 H 0.82555 0.60879 0.89038 0.0
H333 H 0.83474 0.62949 0.86778 0.0
H334 H 0.76359 0.6243 0.86423 0.0
H335 H 0.75402 0.60297 0.88684 0.0
H336 H 0.7312 0.59408 0.92442 0.0
H337 H 0.6941 0.58241 0.93662 0.0
H338 H 0.68893 0.51258 0.94416 0.0
H339 H 0.72708 0.52534 0.93302 0.0
N340 N 0.7716 0.56186 0.92713 0.0
N341 N 0.7989 0.58333 0.90983 0.0
N342 N 0.76124 0.58248 0.90962 0.0
C343 C 0.79348 0.56944 0.92152 0.0
C344 C 0.78291 0.58981 0.90372 0.0
C345 C 0.75549 0.56846 0.92131 0.0
C346 C 0.81153 0.56307 0.92817 0.0
C347 C 0.80447 0.54426 0.93772 0.0
C348 C 0.82169 0.53857 0.94404 0.0
C349 C 0.84639 0.55179 0.94112 0.0
C350 C 0.85345 0.57055 0.93158 0.0
C351 C 0.8362 0.57603 0.9251 0.0
C352 C 0.78894 0.60402 0.89046 0.0
C353 C 0.81181 0.61211 0.8849 0.0
C354 C 0.81721 0.6242 0.87195 0.0
C355 C 0.79993 0.6286 0.86418 0.0
C356 C 0.77722 0.62097 0.86986 0.0
C357 C 0.77179 0.60886 0.88288 0.0
C358 C 0.73207 0.56067 0.92785 0.0
C359 C 0.72204 0.57624 0.9287 0.0
C360 C 0.38289 0.10602 0.94869 0.0
C361 C 0.39819 0.11483 0.96227 0.0
C362 C 0.40229 0.13678 0.9701 0.0
C363 C 0.39188 0.15004 0.96426 0.0
H364 H 0.38931 0.21325 0.97261 0.0
H365 H 0.40526 0.25532 0.98385 0.0
H366 H 0.37492 0.27148 0.94462 0.0
H367 H 0.35915 0.2296 0.93324 0.0
H368 H 0.33086 0.1884 0.90623 0.0
H369 H 0.31927 0.18204 0.87933 0.0
H370 H 0.33552 0.12284 0.87556 0.0
H371 H 0.34729 0.12917 0.90246 0.0
H372 H 0.36132 0.11229 0.93214 0.0
H373 H 0.37954 0.08923 0.94238 0.0
H374 H 0.41373 0.1438 0.9807 0.0
H375 H 0.39583 0.16712 0.97047 0.0
N376 N 0.37271 0.17852 0.95094 0.0
N377 N 0.3549 0.18683 0.93008 0.0
N378 N 0.35704 0.15058 0.92929 0.0
C379 C 0.36605 0.19352 0.94432 0.0
C380 C 0.35024 0.16536 0.9225 0.0
C381 C 0.36816 0.15696 0.94354 0.0
C382 C 0.37317 0.21805 0.95193 0.0
C383 C 0.38578 0.22564 0.96642 0.0
C384 C 0.39485 0.24973 0.97291 0.0
C385 C 0.39155 0.26671 0.96503 0.0
C386 C 0.37807 0.25886 0.95083 0.0
C387 C 0.36893 0.23479 0.94436 0.0
C388 C 0.34027 0.15948 0.90652 0.0
C389 C 0.33171 0.17382 0.89973 0.0
C390 C 0.32492 0.1701 0.88432 0.0
C391 C 0.32669 0.15208 0.87537 0.0
C392 C 0.33427 0.13706 0.8822 0.0
C393 C 0.34088 0.14064 0.89763 0.0
C394 C 0.37724 0.14171 0.95041 0.0
C395 C 0.37256 0.11933 0.94281 0.0
C396 C 0.86161 0.2772 0.94066 0.0
C397 C 0.85707 0.28541 0.95432 0.0
C398 C 0.83536 0.26992 0.96053 0.0
C399 C 0.81829 0.24689 0.95311 0.0
H400 H 0.75749 0.18116 0.95907 0.0
H401 H 0.71988 0.15643 0.97047 0.0
H402 H 0.68395 0.1151 0.92762 0.0
H403 H 0.72162 0.13991 0.91608 0.0
H404 H 0.76033 0.14323 0.89135 0.0
H405 H 0.76534 0.13291 0.86569 0.0
H406 H 0.82924 0.20514 0.86623 0.0
H407 H 0.82432 0.21561 0.89173 0.0
H408 H 0.84837 0.24863 0.92255 0.0
H409 H 0.87811 0.28885 0.93555 0.0
H410 H 0.83153 0.27565 0.97114 0.0
H411 H 0.80164 0.23558 0.95818 0.0
N412 N 0.78306 0.19987 0.93727 0.0
N413 N 0.76819 0.17202 0.91556 0.0
N414 N 0.80639 0.20841 0.91692 0.0
C415 C 0.76524 0.17838 0.92967 0.0
C416 C 0.78879 0.18694 0.90913 0.0
C417 C 0.80368 0.215 0.93101 0.0
C418 C 0.74259 0.16257 0.93663 0.0
C419 C 0.74163 0.16679 0.95204 0.0
C420 C 0.72013 0.15255 0.95861 0.0
C421 C 0.69901 0.1339 0.94992 0.0
C422 C 0.69993 0.12953 0.93455 0.0
C423 C 0.72155 0.14363 0.92798 0.0
C424 C 0.79187 0.18029 0.89364 0.0
C425 C 0.77545 0.15693 0.88601 0.0
C426 C 0.77836 0.15095 0.87134 0.0
C427 C 0.79759 0.16827 0.86394 0.0
C428 C 0.81404 0.19153 0.87158 0.0
C429 C 0.81128 0.19745 0.88625 0.0
C430 C 0.82248 0.23886 0.93925 0.0
C431 C 0.84447 0.2542 0.93318 0.0
C432 C 0.61872 0.73097 0.06869 0.0
C433 C 0.60529 0.72374 0.05447 0.0
C434 C 0.60132 0.74088 0.04725 0.0
C435 C 0.60961 0.76441 0.05437 0.0
H436 H 0.6071 0.8272 0.04935 0.0
H437 H 0.59016 0.85092 0.03845 0.0
H438 H 0.60622 0.89404 0.08106 0.0
H439 H 0.62293 0.87024 0.09209 0.0
H440 H 0.64049 0.85497 0.12036 0.0
H441 H 0.6512 0.86043 0.14734 0.0
H442 H 0.67026 0.80325 0.14321 0.0
H443 H 0.65967 0.79772 0.11618 0.0
H444 H 0.6365 0.75913 0.08702 0.0
H445 H 0.62192 0.71808 0.07456 0.0
H446 H 0.59134 0.73591 0.03619 0.0
H447 H 0.60559 0.77688 0.04861 0.0
N448 N 0.62157 0.81034 0.07071 0.0
N449 N 0.6341 0.83611 0.09319 0.0
N450 N 0.63723 0.80038 0.09183 0.0
C451 C 0.62475 0.831 0.07858 0.0
C452 C 0.64053 0.82098 0.09988 0.0
C453 C 0.6278 0.79495 0.07722 0.0
C454 C 0.61626 0.84667 0.07165 0.0
C455 C 0.60718 0.84182 0.05641 0.0
C456 C 0.59756 0.85547 0.05012 0.0
C457 C 0.59671 0.87418 0.05894 0.0
C458 C 0.60631 0.87946 0.07406 0.0
C459 C 0.61604 0.8659 0.08034 0.0
C460 C 0.64905 0.82577 0.11608 0.0
C461 C 0.64719 0.8437 0.12514 0.0
C462 C 0.65319 0.84676 0.14061 0.0
C463 C 0.6614 0.83216 0.14735 0.0
C464 C 0.66411 0.81486 0.13828 0.0
C465 C 0.65791 0.81162 0.12281 0.0
C466 C 0.62195 0.77127 0.06893 0.0
C467 C 0.62695 0.75448 0.07585 0.0
C468 C 0.30421 0.88269 0.08611 0.0
C469 C 0.30811 0.87288 0.07279 0.0
C470 C 0.28961 0.84971 0.06605 0.0
C471 C 0.2677 0.83659 0.07246 0.0
H472 H 0.199 0.77733 0.06283 0.0
H473 H 0.16816 0.73713 0.05041 0.0
H474 H 0.12714 0.7228 0.08884 0.0
H475 H 0.15801 0.76287 0.10141 0.0
H476 H 0.17266 0.81128 0.12452 0.0
H477 H 0.16669 0.82187 0.14967 0.0
H478 H 0.24516 0.86944 0.15988 0.0
H479 H 0.25112 0.85943 0.1344 0.0
H480 H 0.2799 0.87751 0.10289 0.0
H481 H 0.31824 0.90044 0.09161 0.0
H482 H 0.29196 0.84182 0.05568 0.0
H483 H 0.2539 0.81879 0.06689 0.0
N484 N 0.22202 0.81068 0.08514 0.0
N485 N 0.1977 0.80519 0.10475 0.0
N486 N 0.23726 0.8398 0.10628 0.0
C487 C 0.20062 0.79714 0.09113 0.0
C488 C 0.21586 0.82647 0.11239 0.0
C489 C 0.24042 0.83202 0.09258 0.0
C490 C 0.18112 0.77335 0.08318 0.0
C491 C 0.18337 0.76571 0.06864 0.0
C492 C 0.16562 0.74272 0.06146 0.0
C493 C 0.14531 0.7268 0.06868 0.0
C494 C 0.14277 0.73458 0.08308 0.0
C495 C 0.16043 0.75762 0.09024 0.0
C496 C 0.2124 0.83434 0.12746 0.0
C497 C 0.18868 0.82409 0.13208 0.0
C498 C 0.18526 0.83007 0.14656 0.0
C499 C 0.20547 0.84623 0.1569 0.0
C500 C 0.22917 0.85705 0.15218 0.0
C501 C 0.2326 0.85125 0.13758 0.0
C502 C 0.26375 0.84626 0.08583 0.0
C503 C 0.28229 0.86948 0.0926 0.0
C504 C 0.14899 0.44171 0.09006 0.0
C505 C 0.15439 0.45549 0.07768 0.0
C506 C 0.17712 0.46329 0.07201 0.0
C507 C 0.19402 0.45733 0.07852 0.0
H508 H 0.26536 0.47015 0.07776 0.0
H509 H 0.30263 0.48008 0.06605 0.0
H510 H 0.31187 0.42795 0.09087 0.0
H511 H 0.2746 0.41799 0.10272 0.0
H512 H 0.24733 0.40801 0.13479 0.0
H513 H 0.2383 0.38852 0.15807 0.0
H514 H 0.16669 0.38221 0.1538 0.0
H515 H 0.1754 0.40125 0.13056 0.0
H516 H 0.16105 0.42519 0.10613 0.0
H517 H 0.13176 0.43567 0.09479 0.0
H518 H 0.18172 0.47371 0.06238 0.0
H519 H 0.2113 0.46357 0.07381 0.0
N520 N 0.22769 0.44296 0.0918 0.0
N521 N 0.23879 0.42483 0.11061 0.0
N522 N 0.20166 0.42506 0.11036 0.0
C523 C 0.24393 0.43687 0.09807 0.0
C524 C 0.21767 0.41892 0.11686 0.0
C525 C 0.20646 0.43705 0.09785 0.0
C526 C 0.26691 0.44323 0.09119 0.0
C527 C 0.27531 0.46079 0.08077 0.0
C528 C 0.29675 0.46662 0.07411 0.0
C529 C 0.31014 0.45479 0.07755 0.0
C530 C 0.30181 0.43724 0.08795 0.0
C531 C 0.28053 0.43165 0.09478 0.0
C532 C 0.21215 0.40631 0.13076 0.0
C533 C 0.2296 0.40234 0.13876 0.0
C534 C 0.22449 0.39129 0.15215 0.0
C535 C 0.20177 0.38381 0.15779 0.0
C536 C 0.18424 0.38746 0.14968 0.0
C537 C 0.18935 0.39857 0.13637 0.0
C538 C 0.18863 0.44352 0.09091 0.0
C539 C 0.1659 0.43583 0.09661 0.0
C540 C 0.36166 0.89878 0.26456 0.0
C541 C 0.35506 0.88398 0.27647 0.0
C542 C 0.37064 0.87544 0.28181 0.0
C543 C 0.39231 0.88151 0.27539 0.0
H544 H 0.46239 0.88963 0.28513 0.0
H545 H 0.49218 0.87959 0.29651 0.0
H546 H 0.52587 0.88929 0.25528 0.0
H547 H 0.49627 0.89937 0.24384 0.0
H548 H 0.48818 0.93316 0.22239 0.0
H549 H 0.49642 0.95099 0.19879 0.0
H550 H 0.42567 0.9467 0.19509 0.0
H551 H 0.41745 0.92917 0.21902 0.0
H552 H 0.38771 0.91602 0.24881 0.0
H553 H 0.34992 0.90549 0.26014 0.0
H554 H 0.3662 0.86424 0.29109 0.0
H555 H 0.40382 0.87455 0.27982 0.0
N556 N 0.43825 0.8966 0.26293 0.0
N557 N 0.46318 0.91228 0.24359 0.0
N558 N 0.42628 0.91295 0.24341 0.0
C559 C 0.45901 0.9016 0.25657 0.0
C560 C 0.44703 0.91809 0.23693 0.0
C561 C 0.42175 0.90217 0.25643 0.0
C562 C 0.47691 0.89533 0.26356 0.0
C563 C 0.47611 0.8896 0.27847 0.0
C564 C 0.49324 0.88398 0.28503 0.0
C565 C 0.51132 0.88367 0.27677 0.0
C566 C 0.51202 0.88922 0.26186 0.0
C567 C 0.49512 0.89512 0.25536 0.0
C568 C 0.45205 0.92955 0.22264 0.0
C569 C 0.47429 0.93598 0.21662 0.0
C570 C 0.47901 0.94612 0.203 0.0
C571 C 0.46162 0.95006 0.19497 0.0
C572 C 0.43952 0.94403 0.20105 0.0
C573 C 0.43477 0.93388 0.21474 0.0
C574 C 0.39888 0.89613 0.26337 0.0
C575 C 0.38326 0.90469 0.25803 0.0
C576 C 0.05042 0.44475 0.28412 0.0
C577 C 0.0709 0.45734 0.29488 0.0
C578 C 0.08004 0.48241 0.2993 0.0
C579 C 0.06913 0.49483 0.29289 0.0
H580 H 0.05754 0.55379 0.3012 0.0
H581 H 0.07179 0.59597 0.31137 0.0
H582 H 0.04389 0.60938 0.27003 0.0
H583 H 0.0298 0.56721 0.25969 0.0
H584 H 0.99835 0.5215 0.23484 0.0
H585 H 0.98395 0.51048 0.20829 0.0
H586 H 0.99887 0.45035 0.20814 0.0
H587 H 0.0135 0.46138 0.2347 0.0
H588 H 0.02431 0.44724 0.26897 0.0
H589 H 0.04314 0.42541 0.28051 0.0
H590 H 0.09574 0.49243 0.30766 0.0
H591 H 0.07687 0.51428 0.29637 0.0
N592 N 0.04374 0.51853 0.28032 0.0
N593 N 0.02371 0.52329 0.25903 0.0
N594 N 0.02667 0.48762 0.26015 0.0
C595 C 0.03601 0.53212 0.27294 0.0
C596 C 0.01889 0.50101 0.25257 0.0
C597 C 0.03905 0.49624 0.27404 0.0
C598 C 0.04267 0.55709 0.27957 0.0
C599 C 0.05423 0.5656 0.29428 0.0
C600 C 0.06229 0.58976 0.30016 0.0
C601 C 0.05905 0.606 0.29147 0.0
C602 C 0.04689 0.59734 0.27692 0.0
C603 C 0.0387 0.57312 0.27104 0.0
C604 C 0.00736 0.49252 0.23691 0.0
C605 C 0.99832 0.50574 0.22923 0.0
C606 C 0.98989 0.49933 0.21402 0.0
C607 C 0.99041 0.47964 0.20614 0.0
C608 C 0.99851 0.46579 0.21391 0.0
C609 C 0.0068 0.47208 0.22916 0.0
C610 C 0.04914 0.4825 0.28173 0.0
C611 C 0.03975 0.45727 0.2775 0.0
C612 C 0.53195 0.59974 0.28052 0.0
C613 C 0.52641 0.60689 0.29415 0.0
C614 C 0.50458 0.59045 0.29992 0.0
C615 C 0.48817 0.56767 0.29195 0.0
H616 H 0.42887 0.49234 0.29442 0.0
H617 H 0.38998 0.46779 0.30487 0.0
H618 H 0.35072 0.4512 0.26088 0.0
H619 H 0.38973 0.47528 0.25025 0.0
H620 H 0.43006 0.47449 0.2245 0.0
H621 H 0.43728 0.46778 0.19876 0.0
H622 H 0.50689 0.53588 0.20531 0.0
H623 H 0.50008 0.54238 0.23097 0.0
H624 H 0.52006 0.57242 0.26184 0.0
H625 H 0.54855 0.61212 0.27575 0.0
H626 H 0.5 0.59538 0.3105 0.0
H627 H 0.47124 0.5557 0.29657 0.0
N628 N 0.45343 0.52214 0.27423 0.0
N629 N 0.43909 0.49773 0.25111 0.0
N630 N 0.478 0.53339 0.25446 0.0
C631 C 0.43561 0.50201 0.26549 0.0
C632 C 0.46042 0.51331 0.24555 0.0
C633 C 0.47466 0.53798 0.26879 0.0
C634 C 0.41228 0.4857 0.27153 0.0
C635 C 0.41197 0.48325 0.28695 0.0
C636 C 0.3898 0.46919 0.29293 0.0
C637 C 0.36753 0.45778 0.28364 0.0
C638 C 0.36776 0.45995 0.26821 0.0
C639 C 0.39002 0.47357 0.26216 0.0
C640 C 0.46449 0.50895 0.22988 0.0
C641 C 0.44693 0.48801 0.22047 0.0
C642 C 0.451 0.48421 0.20569 0.0
C643 C 0.47271 0.50124 0.20001 0.0
C644 C 0.49018 0.52217 0.2094 0.0
C645 C 0.48615 0.52596 0.22413 0.0
C646 C 0.49319 0.56091 0.27799 0.0
C647 C 0.51551 0.57702 0.27251 0.0
Tb648 Tb 0.49239 0.98193 0.99457 0.0
Eu649 Eu 0.51442 0.01787 0.02646 0.0
C650 C 0.52232 0.97207 0.01919 0.0
C651 C 0.4629 0.96817 0.02288 0.0
C652 C 0.48357 0.96524 0.95407 0.0
C653 C 0.48064 0.95512 0.92728 0.0
C654 C 0.47477 0.94769 0.94155 0.0
C655 C 0.49838 0.99029 0.95222 0.0
C656 C 0.50418 0.99774 0.93799 0.0
C657 C 0.49536 0.98025 0.92534 0.0
C658 C 0.47778 0.95753 0.96909 0.0
O659 O 0.49146 0.01537 0.99103 0.0
O660 O 0.48567 0.0241 0.01484 0.0
O661 O 0.53833 0.04053 0.0095 0.0
O662 O 0.53113 0.00764 0.9931 0.0
C663 C 0.48336 0.02568 1.00045 0.0
O664 O 0.51051 0.04084 0.04398 0.0
O665 O 0.54146 0.03488 0.04614 0.0
O666 O 0.53308 0.99542 0.02436 0.0
O667 O 0.50219 0.96185 0.00983 0.0
O668 O 0.4617 0.9689 0.00827 0.0
O669 O 0.48356 0.98167 0.0315 0.0
C670 C 0.54422 0.03114 0.99812 0.0
O671 O 0.4961 0.95956 0.97786 0.0
O672 O 0.4656 0.96616 0.976 0.0
C673 C 0.52238 0.03483 0.06779 0.0
C674 C 0.50733 0.01872 0.09585 0.0
C675 C 0.52055 0.04406 0.0941 0.0
C676 C 0.52794 0.05205 0.08014 0.0
C677 C 0.50948 0.00958 0.06953 0.0
C678 C 0.502 0.00158 0.08341 0.0
C679 C 0.52868 0.04291 0.0529 0.0
H680 H 0.47339 0.94124 0.91775 0.0
H681 H 0.46338 0.92827 0.9428 0.0
H682 H 0.50551 0.0041 0.9618 0.0
H683 H 0.51583 0.01718 0.93691 0.0
H684 H 0.52478 0.05769 0.10345 0.0
H685 H 0.53771 0.07161 0.07896 0.0
H686 H 0.50505 0.99601 0.06011 0.0
H687 H 0.49219 0.98197 0.08442 0.0
Tb688 Tb 0.01683 0.51125 0.99687 0.0
Eu689 Eu 0.98535 0.50212 0.02599 0.0
C690 C 0.02962 0.55376 0.0211 0.0
C691 C 0.03275 0.49578 0.02664 0.0
C692 C 0.03582 0.51753 0.95836 0.0
C693 C 0.05048 0.5249 0.93388 0.0
C694 C 0.05517 0.52597 0.94936 0.0
C695 C 0.01165 0.50799 0.95178 0.0
C696 C 0.00692 0.50685 0.93629 0.0
C697 C 0.02631 0.51533 0.92718 0.0
C698 C 0.04115 0.51903 0.97458 0.0
O699 O 0.98263 0.47675 0.99115 0.0
O700 O 0.97632 0.46515 0.0148 0.0
O701 O 0.96138 0.50353 1.00707 0.0
O702 O 0.99042 0.52312 0.99083 0.0
C703 C 0.97264 0.45958 1.00023 0.0
O704 O 0.95523 0.4789 0.03876 0.0
O705 O 0.97955 0.51744 0.04666 0.0
O706 O 0.00636 0.54258 0.02327 0.0
O707 O 0.03859 0.54166 0.01406 0.0
O708 O 0.03024 0.49352 0.01191 0.0
O709 O 0.0202 0.50309 0.03449 0.0
C710 C 0.96842 0.51546 0.9952 0.0
O711 O 0.03935 0.53605 0.98245 0.0
O712 O 0.03094 0.49815 0.98044 0.0
C713 C 0.96221 0.49047 0.065 0.0
C714 C 0.96614 0.48234 0.0952 0.0
C715 C 0.97087 0.4691 0.08402 0.0
C716 C 0.96909 0.47326 0.069 0.0
C717 C 0.95697 0.50324 0.07611 0.0
C718 C 0.95897 0.49927 0.09108 0.0
C719 C 0.9614 0.49642 0.04951 0.0
H720 H 0.06574 0.53129 0.92714 0.0
H721 H 0.07392 0.53337 0.9543 0.0
H722 H 0.99651 0.50152 0.95864 0.0
H723 H 0.98815 0.49961 0.93144 0.0
H724 H 0.97659 0.45607 0.08696 0.0
H725 H 0.97343 0.46337 0.06058 0.0
H726 H 0.95167 0.5166 0.07321 0.0
H727 H 0.95499 0.50953 0.09946 0.0
Tb728 Tb 0.51018 0.49189 0.02429 0.0
Eu729 Eu 0.48472 0.49861 0.99325 0.0
C730 C 0.47435 0.44702 1.00201 0.0
C731 C 0.53702 0.50182 0.995 0.0
C732 C 0.52292 0.48823 0.06411 0.0
C733 C 0.52502 0.47918 0.08981 0.0
C734 C 0.531 0.47833 0.07517 0.0
C735 C 0.50888 0.49911 0.0678 0.0
C736 C 0.50291 0.50001 0.08242 0.0
C737 C 0.51082 0.48995 0.09357 0.0
C738 C 0.52784 0.48587 0.04857 0.0
O739 O 0.51234 0.52745 0.02739 0.0
O740 O 0.51586 0.53563 1.00307 0.0
O741 O 0.4614 0.49989 0.01084 0.0
O742 O 0.47344 0.48294 0.02936 0.0
C743 C 0.51977 0.54327 0.01736 0.0
O744 O 0.47765 0.52143 0.97852 0.0
O745 O 0.46336 0.48275 0.97156 0.0
O746 O 0.46341 0.45924 0.99813 0.0
O747 O 0.49668 0.45871 0.00894 0.0
O748 O 0.53942 0.50682 0.0096 0.0
O749 O 0.51576 0.49298 0.98694 0.0
C750 C 0.45857 0.49017 0.02364 0.0
O751 O 0.5095 0.46809 0.0399 0.0
O752 O 0.5382 0.50624 0.04217 0.0
C753 C 0.47707 0.50984 0.95304 0.0
C754 C 0.49364 0.51691 0.92445 0.0
C755 C 0.47307 0.51897 0.92753 0.0
C756 C 0.46478 0.51534 0.94173 0.0
C757 C 0.49818 0.50876 0.95018 0.0
C758 C 0.50635 0.51217 0.93599 0.0
C759 C 0.46717 0.50386 0.96751 0.0
H760 H 0.53158 0.47152 0.0982 0.0
H761 H 0.54173 0.46973 0.07246 0.0
H762 H 0.50227 0.50662 0.05932 0.0
H763 H 0.49169 0.50814 0.08492 0.0
H764 H 0.46285 0.52244 0.9188 0.0
H765 H 0.44845 0.51623 0.94376 0.0
H766 H 0.508 0.50467 0.95882 0.0
H767 H 0.5224 0.51076 0.93397 0.0
Tb768 Tb 0.15973 0.31956 0.32814 0.0
Eu769 Eu 0.18037 0.35509 0.36066 0.0
C770 C 0.18613 0.30824 0.35482 0.0
C771 C 0.12728 0.30559 0.35494 0.0
C772 C 0.15084 0.30355 0.28742 0.0
C773 C 0.14992 0.29423 0.26073 0.0
C774 C 0.14503 0.28638 0.275 0.0
C775 C 0.16139 0.32865 0.28542 0.0
C776 C 0.16634 0.33653 0.27119 0.0
C777 C 0.1608 0.31943 0.25867 0.0
C778 C 0.14739 0.29554 0.30254 0.0
O779 O 0.14338 0.34298 0.32793 0.0
O780 O 0.17045 0.37585 0.34488 0.0
O781 O 0.21238 0.36749 0.3469 0.0
O782 O 0.19026 0.3545 0.32375 0.0
C783 C 0.1526 0.36583 0.3339 0.0
O784 O 0.17629 0.37759 0.37843 0.0
O785 O 0.20761 0.372 0.3802 0.0
O786 O 0.17948 0.31974 0.3644 0.0
O787 O 0.18462 0.31049 0.34045 0.0
O788 O 0.134 0.29727 0.34344 0.0
O789 O 0.14027 0.3284 0.36118 0.0
C790 C 0.21112 0.36747 0.33227 0.0
O791 O 0.16759 0.3015 0.31083 0.0
O792 O 0.13269 0.3001 0.30993 0.0
C793 C 0.18946 0.37251 0.40255 0.0
C794 C 0.1768 0.3564 0.43109 0.0
C795 C 0.16705 0.36966 0.42415 0.0
C796 C 0.17338 0.37769 0.41007 0.0
C797 C 0.19964 0.35973 0.40963 0.0
C798 C 0.1934 0.35181 0.42372 0.0
C799 C 0.19466 0.37961 0.3872 0.0
H800 H 0.14514 0.28055 0.25131 0.0
H801 H 0.13697 0.26694 0.27636 0.0
H802 H 0.16618 0.34221 0.29491 0.0
H803 H 0.17504 0.35608 0.27006 0.0
H804 H 0.15405 0.37334 0.42943 0.0
H805 H 0.16531 0.38758 0.40493 0.0
H806 H 0.21222 0.35554 0.40423 0.0
H807 H 0.20165 0.34208 0.42886 0.0
Tb808 Tb 0.67801 0.83538 0.32976 0.0
Eu809 Eu 0.64772 0.82938 0.35902 0.0
C810 C 0.69236 0.87985 0.35278 0.0
C811 C 0.69484 0.82292 0.36029 0.0
C812 C 0.69581 0.83923 0.29075 0.0
C813 C 0.68163 0.85184 0.26902 0.0
C814 C 0.68547 0.85251 0.28454 0.0
C815 C 0.70178 0.82496 0.28121 0.0
C816 C 0.6977 0.82408 0.26569 0.0
C817 C 0.68779 0.83769 0.25946 0.0
C818 C 0.70099 0.84038 0.30705 0.0
O819 O 0.64342 0.80091 0.32528 0.0
O820 O 0.63934 0.79182 0.34944 0.0
O821 O 0.62326 0.82857 0.33953 0.0
O822 O 0.65283 0.84878 0.3238 0.0
C823 C 0.63464 0.78472 0.33504 0.0
O824 O 0.6184 0.8068 0.37251 0.0
O825 O 0.64136 0.84601 0.37886 0.0
O826 O 0.66927 0.86941 0.35531 0.0
O827 O 0.70074 0.86686 0.34609 0.0
O828 O 0.69142 0.81861 0.3456 0.0
O829 O 0.68317 0.83177 0.36777 0.0
C830 C 0.63055 0.84077 0.32779 0.0
O831 O 0.70171 0.85864 0.31521 0.0
O832 O 0.68938 0.81967 0.31298 0.0
C833 C 0.62679 0.82064 0.39824 0.0
C834 C 0.63246 0.81564 0.42885 0.0
C835 C 0.60987 0.81156 0.42203 0.0
C836 C 0.6071 0.81411 0.40683 0.0
C837 C 0.64913 0.82394 0.40485 0.0
C838 C 0.65197 0.82153 0.42007 0.0
C839 C 0.62421 0.82509 0.3826 0.0
H840 H 0.67371 0.86226 0.26448 0.0
H841 H 0.68048 0.86351 0.29164 0.0
H842 H 0.70979 0.81462 0.28577 0.0
H843 H 0.70275 0.81316 0.25856 0.0
H844 H 0.59461 0.80722 0.42856 0.0
H845 H 0.58975 0.81153 0.40186 0.0
H846 H 0.66449 0.82886 0.39832 0.0
H847 H 0.66947 0.8245 0.425 0.0
Tb848 Tb 0.17467 0.82575 0.3571 0.0
Eu849 Eu 0.1506 0.83834 0.32786 0.0
C850 C 0.13998 0.7848 0.33235 0.0
C851 C 0.20259 0.84037 0.32807 0.0
C852 C 0.18513 0.81614 0.39601 0.0
C853 C 0.18626 0.80437 0.42113 0.0
C854 C 0.19247 0.80474 0.40645 0.0
C855 C 0.17152 0.82718 0.40035 0.0
C856 C 0.16536 0.82689 0.415 0.0
C857 C 0.17257 0.8154 0.42556 0.0
C858 C 0.1906 0.81553 0.38044 0.0
O859 O 0.17817 0.8616 0.36263 0.0
O860 O 0.18243 0.87365 0.33911 0.0
O861 O 0.12835 0.83847 0.34643 0.0
O862 O 0.13726 0.81509 0.36162 0.0
C863 C 0.18613 0.87911 0.35365 0.0
O864 O 0.14417 0.86361 0.31517 0.0
O865 O 0.12912 0.82566 0.30602 0.0
O866 O 0.1292 0.7977 0.32988 0.0
O867 O 0.16194 0.79527 0.33973 0.0
O868 O 0.2044 0.84148 0.34279 0.0
O869 O 0.18197 0.8347 0.32009 0.0
C870 C 0.12392 0.8251 0.35777 0.0
O871 O 0.17224 0.79922 0.37109 0.0
O872 O 0.20201 0.83684 0.37513 0.0
C873 C 0.14404 0.85541 0.28917 0.0
C874 C 0.16335 0.86387 0.2613 0.0
C875 C 0.17913 0.87148 0.2747 0.0
C876 C 0.16954 0.86715 0.28851 0.0
C877 C 0.1283 0.84854 0.27593 0.0
C878 C 0.13783 0.8527 0.26211 0.0
C879 C 0.13366 0.84762 0.30335 0.0
H880 H 0.19184 0.79512 0.42893 0.0
H881 H 0.20276 0.79591 0.40322 0.0
H882 H 0.16556 0.83594 0.39238 0.0
H883 H 0.15514 0.83587 0.41807 0.0
H884 H 0.19886 0.88036 0.27453 0.0
H885 H 0.182 0.8723 0.29863 0.0
H886 H 0.10855 0.8391 0.27623 0.0
H887 H 0.12508 0.84615 0.25204 0.0
Tb888 Tb 0.82449 0.6509 0.66144 0.0
Eu889 Eu 0.84669 0.68837 0.69318 0.0
C890 C 0.85611 0.64362 0.6863 0.0
C891 C 0.79506 0.63826 0.68975 0.0
C892 C 0.81494 0.63203 0.62091 0.0
C893 C 0.83784 0.63639 0.59937 0.0
C894 C 0.83206 0.62839 0.61351 0.0
C895 C 0.80313 0.64317 0.61362 0.0
C896 C 0.80883 0.65106 0.59946 0.0
C897 C 0.82649 0.64807 0.59224 0.0
C898 C 0.81048 0.62531 0.6364 0.0
O899 O 0.82096 0.68264 0.65702 0.0
O900 O 0.81962 0.69631 0.68097 0.0
O901 O 0.87037 0.71092 0.67612 0.0
O902 O 0.8622 0.67842 0.65888 0.0
C903 C 0.81519 0.69522 0.66644 0.0
O904 O 0.84227 0.71073 0.71087 0.0
O905 O 0.87419 0.70631 0.7126 0.0
O906 O 0.86649 0.66711 0.69096 0.0
O907 O 0.83557 0.6325 0.6773 0.0
O908 O 0.79392 0.6379 0.67509 0.0
O909 O 0.81551 0.65247 0.69843 0.0
C910 C 0.87518 0.70184 0.6641 0.0
O911 O 0.82958 0.62898 0.64511 0.0
O912 O 0.79707 0.63231 0.64338 0.0
C913 C 0.85596 0.70632 0.73466 0.0
C914 C 0.84387 0.69156 0.76342 0.0
C915 C 0.85686 0.71674 0.76121 0.0
C916 C 0.86284 0.72404 0.74693 0.0
C917 C 0.84305 0.68121 0.73681 0.0
C918 C 0.83706 0.6739 0.75103 0.0
C919 C 0.86114 0.71382 0.71953 0.0
H920 H 0.85167 0.63396 0.5942 0.0
H921 H 0.84141 0.6198 0.61881 0.0
H922 H 0.78971 0.64615 0.61892 0.0
H923 H 0.79937 0.65955 0.59418 0.0
H924 H 0.86257 0.73078 0.77053 0.0
H925 H 0.87271 0.7435 0.74545 0.0
H926 H 0.8374 0.66725 0.72744 0.0
H927 H 0.82673 0.65438 0.75229 0.0
Tb928 Tb 0.35195 0.17093 0.6632 0.0
Eu929 Eu 0.32163 0.16335 0.69287 0.0
C930 C 0.36638 0.21443 0.68751 0.0
C931 C 0.36916 0.15664 0.69303 0.0
C932 C 0.37373 0.18531 0.62544 0.0
C933 C 0.39344 0.20016 0.60299 0.0
C934 C 0.39471 0.19487 0.61778 0.0
C935 C 0.3517 0.18219 0.61842 0.0
C936 C 0.35034 0.18728 0.60361 0.0
C937 C 0.37107 0.19576 0.59559 0.0
C938 C 0.37465 0.17692 0.64023 0.0
O939 O 0.33083 0.13163 0.66524 0.0
O940 O 0.29864 0.13123 0.67571 0.0
O941 O 0.30766 0.18089 0.67686 0.0
O942 O 0.31839 0.1703 0.65482 0.0
C943 C 0.30771 0.12006 0.66783 0.0
O944 O 0.29659 0.13915 0.70775 0.0
O945 O 0.3101 0.17851 0.71111 0.0
O946 O 0.35769 0.1986 0.69745 0.0
O947 O 0.36033 0.20706 0.67315 0.0
O948 O 0.3754 0.16853 0.68104 0.0
O949 O 0.34791 0.14973 0.69826 0.0
C950 C 0.30571 0.17811 0.66216 0.0
O951 O 0.38226 0.1934 0.65175 0.0
O952 O 0.35549 0.15632 0.64263 0.0
C953 C 0.30185 0.15689 0.73264 0.0
C954 C 0.30724 0.1552 0.76376 0.0
C955 C 0.31315 0.14115 0.75394 0.0
C956 C 0.31061 0.14208 0.7385 0.0
C957 C 0.29618 0.1711 0.74245 0.0
C958 C 0.29897 0.17036 0.75789 0.0
C959 C 0.29779 0.15725 0.71639 0.0
H960 H 0.40984 0.2071 0.59724 0.0
H961 H 0.41191 0.19754 0.62307 0.0
H962 H 0.3353 0.1749 0.6242 0.0
H963 H 0.33276 0.18345 0.59824 0.0
H964 H 0.31985 0.12954 0.75821 0.0
H965 H 0.31531 0.13107 0.73118 0.0
H966 H 0.28936 0.18259 0.73815 0.0
H967 H 0.29415 0.18125 0.76524 0.0
Tb968 Tb 0.84675 0.16418 0.69114 0.0
Eu969 Eu 0.82174 0.17107 0.65974 0.0
C970 C 0.81421 0.11982 0.66716 0.0
C971 C 0.87499 0.17464 0.6621 0.0
C972 C 0.85248 0.15244 0.73051 0.0
C973 C 0.85542 0.1424 0.75591 0.0
C974 C 0.86378 0.14572 0.74173 0.0
C975 C 0.83218 0.15497 0.73345 0.0
C976 C 0.82391 0.15183 0.74763 0.0
C977 C 0.8357 0.14593 0.75913 0.0
C978 C 0.8628 0.15832 0.71613 0.0
O979 O 0.86697 0.20293 0.68779 0.0
O980 O 0.83547 0.20531 0.67551 0.0
O981 O 0.79166 0.15493 0.67495 0.0
O982 O 0.81647 0.16925 0.69721 0.0
C983 C 0.85669 0.21572 0.68375 0.0
O984 O 0.82098 0.19546 0.64374 0.0
O985 O 0.79446 0.15638 0.64016 0.0
O986 O 0.8209 0.13499 0.65678 0.0
O987 O 0.81725 0.12818 0.6813 0.0
O988 O 0.87095 0.16435 0.67476 0.0
O989 O 0.86038 0.1816 0.65572 0.0
C990 C 0.79477 0.15989 0.68956 0.0
O991 O 0.85216 0.141 0.70503 0.0
O992 O 0.86714 0.17954 0.71208 0.0
C993 C 0.81007 0.17727 0.619 0.0
C994 C 0.82438 0.1799 0.58985 0.0
C995 C 0.80999 0.19016 0.59412 0.0
C996 C 0.80287 0.18882 0.6086 0.0
C997 C 0.82445 0.16701 0.61481 0.0
C998 C 0.83145 0.16821 0.60032 0.0
C999 C 0.80399 0.17745 0.63446 0.0
H1000 H 0.86465 0.13745 0.76443 0.0
H1001 H 0.8794 0.14359 0.73962 0.0
H1002 H 0.82319 0.16016 0.72494 0.0
H1003 H 0.80891 0.15502 0.74971 0.0
H1004 H 0.80411 0.19909 0.58624 0.0
H1005 H 0.79196 0.19703 0.61172 0.0
H1006 H 0.83051 0.15836 0.62281 0.0
H1007 H 0.84279 0.16042 0.59739 0.0
C1008 C 0.34333 0.87455 0.0604 0.0
C1009 C 0.33132 0.8867 0.06584 0.0
C1010 C 0.36489 0.88716 0.05341 0.0
C1011 C 0.37462 0.91251 0.05177 0.0
C1012 C 0.36268 0.92493 0.05733 0.0
C1013 C 0.3412 0.91188 0.06434 0.0
C1014 C 0.37725 0.87336 0.04777 0.0
C1015 C 0.37247 0.95193 0.05573 0.0
C1016 C 0.44179 0.95134 0.04556 0.0
C1017 C 0.44035 0.95277 0.03005 0.0
C1018 C 0.42058 0.93814 0.05275 0.0
C1019 C 0.39731 0.92605 0.04424 0.0
C1020 C 0.39569 0.92709 0.02855 0.0
C1021 C 0.41725 0.94041 0.02163 0.0
C1022 C 0.42309 0.93741 0.0695 0.0
C1023 C 0.37115 0.91446 0.01912 0.0
H1024 H 0.33592 0.85516 0.06171 0.0
H1025 H 0.33184 0.92127 0.06839 0.0
H1026 H 0.37821 0.87415 0.03554 0.0
H1027 H 0.39641 0.8822 0.05317 0.0
H1028 H 0.36742 0.85371 0.05002 0.0
H1029 H 0.36108 0.95889 0.06071 0.0
H1030 H 0.39156 0.96299 0.06123 0.0
H1031 H 0.37307 0.95503 0.04371 0.0
H1032 H 0.45954 0.96076 0.05219 0.0
H1033 H 0.41593 0.94146 0.00966 0.0
H1034 H 0.41444 0.91803 0.07219 0.0
H1035 H 0.41332 0.94585 0.07495 0.0
H1036 H 0.44259 0.94737 0.07444 0.0
H1037 H 0.36121 0.89448 0.02048 0.0
H1038 H 0.37306 0.91673 1.00704 0.0
H1039 H 0.35961 0.92208 0.02292 0.0
C1040 C 0.14396 0.48527 0.06646 0.0
C1041 C 0.13628 0.46157 0.07066 0.0
C1042 C 0.12708 0.49117 0.05971 0.0
C1043 C 0.10191 0.4729 0.05703 0.0
C1044 C 0.09401 0.44898 0.06133 0.0
C1045 C 0.11128 0.44362 0.06811 0.0
C1046 C 0.1362 0.51692 0.05535 0.0
C1047 C 0.06736 0.42894 0.05857 0.0
C1048 C 0.05454 0.49309 0.05019 0.0
C1049 C 0.05021 0.48971 0.03451 0.0
C1050 C 0.0713 0.48768 0.05769 0.0
C1051 C 0.08396 0.47859 0.04931 0.0
C1052 C 0.07956 0.475 0.0335 0.0
C1053 C 0.0628 0.48063 0.02631 0.0
C1054 C 0.07553 0.49178 0.07456 0.0
C1055 C 0.09261 0.46524 0.02417 0.0
H1056 H 0.1632 0.49931 0.06858 0.0
H1057 H 0.10525 0.42518 0.07117 0.0
H1058 H 0.13237 0.51624 0.04307 0.0
H1059 H 0.12627 0.52519 0.06079 0.0
H1060 H 0.15624 0.52917 0.05853 0.0
H1061 H 0.0641 0.4115 0.06294 0.0
H1062 H 0.05565 0.43507 0.06394 0.0
H1063 H 0.06134 0.42516 0.04639 0.0
H1064 H 0.04494 0.50009 0.05665 0.0
H1065 H 0.0596 0.47788 0.0142 0.0
H1066 H 0.09518 0.50517 0.07819 0.0
H1067 H 0.0712 0.47427 0.07923 0.0
H1068 H 0.06415 0.49884 0.07944 0.0
H1069 H 0.11278 0.47783 0.02623 0.0
H1070 H 0.08695 0.46325 0.012 0.0
H1071 H 0.08875 0.447 0.02746 0.0
C1072 C 0.5692 0.6853 0.04166 0.0
C1073 C 0.59391 0.69789 0.04771 0.0
C1074 C 0.5575 0.66035 0.03616 0.0
C1075 C 0.57087 0.64771 0.03666 0.0
C1076 C 0.59598 0.66045 0.04242 0.0
C1077 C 0.6072 0.68541 0.04794 0.0
C1078 C 0.53064 0.64733 0.0302 0.0
C1079 C 0.61086 0.64759 0.043 0.0
C1080 C 0.53437 0.57837 0.03729 0.0
C1081 C 0.53293 0.56999 0.02227 0.0
C1082 C 0.54681 0.60363 0.04213 0.0
C1083 C 0.55823 0.62091 0.03172 0.0
C1084 C 0.55706 0.61259 0.01658 0.0
C1085 C 0.54432 0.58721 0.01201 0.0
C1086 C 0.54753 0.61184 0.05836 0.0
C1087 C 0.56917 0.63052 1.00519 0.0
H1088 H 0.55876 0.69479 0.04167 0.0
H1089 H 0.62635 0.69516 0.05249 0.0
H1090 H 0.52797 0.63853 0.01867 0.0
H1091 H 0.5198 0.63246 0.03724 0.0
H1092 H 0.52316 0.66006 0.03006 0.0
H1093 H 0.63048 0.66042 0.04711 0.0
H1094 H 0.6031 0.63271 0.0505 0.0
H1095 H 0.60984 0.63881 0.03171 0.0
H1096 H 0.5256 0.56518 0.04529 0.0
H1097 H 0.54342 0.58087 1.0004 0.0
H1098 H 0.5388 0.62341 0.0592 0.0
H1099 H 0.56686 0.62333 0.0634 0.0
H1100 H 0.53792 0.59603 0.06505 0.0
H1101 H 0.56102 0.64258 1.00425 0.0
H1102 H 0.56711 0.62103 0.99394 0.0
H1103 H 0.58904 0.64263 0.00889 0.0
C1104 C 0.89989 0.3193 0.96322 0.0
C1105 C 0.8745 0.31042 0.9618 0.0
C1106 C 0.91652 0.34321 0.96991 0.0
C1107 C 0.90753 0.35861 0.97519 0.0
C1108 C 0.88191 0.34965 0.97391 0.0
C1109 C 0.86571 0.32564 0.96727 0.0
C1110 C 0.94371 0.35207 0.97121 0.0
C1111 C 0.87163 0.3656 0.9793 0.0
C1112 C 0.94765 0.41454 1.00318 0.0
C1113 C 0.95646 0.43365 0.99386 0.0
C1114 C 0.93201 0.38994 0.99723 0.0
C1115 C 0.92489 0.38439 0.98163 0.0
C1116 C 0.93386 0.40357 0.97216 0.0
C1117 C 0.9496 0.42795 0.97838 0.0
C1118 C 0.92294 0.36992 1.00765 0.0
C1119 C 0.92655 0.39839 0.95547 0.0
H1120 H 0.90672 0.30748 0.95914 0.0
H1121 H 0.84611 0.31895 0.96602 0.0
H1122 H 0.95321 0.36813 0.96472 0.0
H1123 H 0.95168 0.35834 0.98305 0.0
H1124 H 0.94766 0.33751 0.96704 0.0
H1125 H 0.85122 0.35564 0.97782 0.0
H1126 H 0.87795 0.37223 0.99131 0.0
H1127 H 0.87854 0.38211 0.97305 0.0
H1128 H 0.95295 0.41876 0.01514 0.0
H1129 H 0.95629 0.44258 0.97108 0.0
H1130 H 0.92772 0.35575 1.00406 0.0
H1131 H 0.90261 0.36057 1.00717 0.0
H1132 H 0.93084 0.3772 0.01944 0.0
H1133 H 0.93159 0.38504 0.95064 0.0
H1134 H 0.93544 0.41534 0.94963 0.0
H1135 H 0.90632 0.38986 0.95316 0.0
C1136 C 0.66021 0.52437 0.96104 0.0
C1137 C 0.66549 0.53924 0.94916 0.0
C1138 C 0.63895 0.51736 0.9683 0.0
C1139 C 0.62289 0.52612 0.96401 0.0
C1140 C 0.62813 0.54134 0.95219 0.0
C1141 C 0.64907 0.54735 0.94476 0.0
C1142 C 0.63372 0.50061 0.98061 0.0
C1143 C 0.61177 0.55154 0.9475 0.0
C1144 C 0.55701 0.49346 0.97406 0.0
C1145 C 0.55901 0.50752 0.9873 0.0
C1146 C 0.57772 0.49901 0.9665 0.0
C1147 C 0.6008 0.51965 0.97204 0.0
C1148 C 0.6028 0.53412 0.98531 0.0
C1149 C 0.58196 0.52763 0.99292 0.0
C1150 C 0.57495 0.48269 0.95265 0.0
C1151 C 0.62686 0.55673 0.99133 0.0
H1152 H 0.67283 0.51836 0.96488 0.0
H1153 H 0.65244 0.55836 0.93544 0.0
H1154 H 0.63432 0.51047 0.9914 0.0
H1155 H 0.61496 0.48434 0.97822 0.0
H1156 H 0.64713 0.49406 0.98194 0.0
H1157 H 0.61887 0.56385 0.93847 0.0
H1158 H 0.59302 0.53625 0.94348 0.0
H1159 H 0.61009 0.56207 0.95725 0.0
H1160 H 0.53927 0.47786 0.96972 0.0
H1161 H 0.58348 0.53874 1.00304 0.0
H1162 H 0.5879 0.47561 0.95407 0.0
H1163 H 0.57966 0.49348 0.94285 0.0
H1164 H 0.55597 0.46677 0.95017 0.0
H1165 H 0.64096 0.55151 0.99415 0.0
H1166 H 0.62514 0.56646 1.0015 0.0
H1167 H 0.63365 0.56973 0.98264 0.0
C1168 C 0.39755 0.07597 0.96794 0.0
C1169 C 0.41058 0.10167 0.96797 0.0
C1170 C 0.40925 0.06334 0.97312 0.0
C1171 C 0.43457 0.07676 0.97836 0.0
C1172 C 0.44783 0.1027 0.97837 0.0
C1173 C 0.43565 0.11485 0.9732 0.0
C1174 C 0.3945 0.03566 0.97305 0.0
C1175 C 0.4749 0.11759 0.98378 0.0
C1176 C 0.46027 0.04799 1.00458 0.0
C1177 C 0.47122 0.03905 0.99479 0.0
C1178 C 0.4482 0.06022 0.99935 0.0
C1179 C 0.44718 0.06371 0.98399 0.0
C1180 C 0.45829 0.05486 0.97406 0.0
C1181 C 0.47014 0.04256 0.97958 0.0
C1182 C 0.43647 0.06934 0.01026 0.0
C1183 C 0.45766 0.05838 0.95762 0.0
H1184 H 0.37812 0.06577 0.96402 0.0
H1185 H 0.44586 0.13469 0.97302 0.0
H1186 H 0.40267 0.0269 0.96619 0.0
H1187 H 0.39507 0.03053 0.9846 0.0
H1188 H 0.37499 0.02798 0.96855 0.0
H1189 H 0.48256 0.13762 0.98296 0.0
H1190 H 0.478 0.11485 0.99562 0.0
H1191 H 0.48528 0.11118 0.97712 0.0
H1192 H 0.46094 0.04528 0.01634 0.0
H1193 H 0.47856 0.03573 0.97194 0.0
H1194 H 0.41654 0.06088 1.00666 0.0
H1195 H 0.44468 0.08959 0.01039 0.0
H1196 H 0.43877 0.06499 0.02184 0.0
H1197 H 0.43834 0.04953 0.95251 0.0
H1198 H 0.46727 0.05047 0.9514 0.0
H1199 H 0.4664 0.07831 0.95619 0.0
C1200 C 0.65354 0.11526 0.95023 0.0
C1201 C 0.67608 0.11922 0.95693 0.0
C1202 C 0.63178 0.10173 0.95689 0.0
C1203 C 0.63259 0.09173 0.97047 0.0
C1204 C 0.6553 0.09564 0.97726 0.0
C1205 C 0.6768 0.10944 0.97043 0.0
C1206 C 0.60792 0.09811 0.9494 0.0
C1207 C 0.65684 0.08496 0.99163 0.0
C1208 C 0.58025 0.07249 0.99494 0.0
C1209 C 0.56661 0.04695 0.99094 0.0
C1210 C 0.60162 0.08739 0.98822 0.0
C1211 C 0.60958 0.07645 0.97734 0.0
C1212 C 0.59581 0.05073 0.9732 0.0
C1213 C 0.57446 0.03633 0.97999 0.0
C1214 C 0.61574 0.11482 0.99279 0.0
C1215 C 0.60378 0.03835 0.96172 0.0
H1216 H 0.653 0.12307 0.93988 0.0
H1217 H 0.69418 0.11228 0.97555 0.0
H1218 H 0.59482 0.07817 0.94636 0.0
H1219 H 0.59931 0.10506 0.95726 0.0
H1220 H 0.61054 0.10771 0.93911 0.0
H1221 H 0.67598 0.09 0.99557 0.0
H1222 H 0.64944 0.09153 1.00054 0.0
H1223 H 0.6454 0.06456 0.98996 0.0
H1224 H 0.57425 0.08087 1.00332 0.0
H1225 H 0.56407 0.01662 0.97678 0.0
H1226 H 0.61762 0.12495 0.98281 0.0
H1227 H 0.63457 0.12043 0.99774 0.0
H1228 H 0.6067 0.12057 1.00106 0.0
H1229 H 0.60513 0.04647 0.95096 0.0
H1230 H 0.59089 0.01816 0.95965 0.0
H1231 H 0.62232 0.04152 0.96554 0.0
C1232 C 0.86014 0.52205 0.94793 0.0
C1233 C 0.86487 0.54637 0.94821 0.0
C1234 C 0.8774 0.51672 0.95478 0.0
C1235 C 0.89971 0.53615 0.96231 0.0
C1236 C 0.90462 0.56076 0.96255 0.0
C1237 C 0.88721 0.56559 0.9554 0.0
C1238 C 0.87165 0.49029 0.95411 0.0
C1239 C 0.92799 0.58194 0.97066 0.0
C1240 C 0.93138 0.52036 0.99348 0.0
C1241 C 0.95097 0.52073 0.98666 0.0
C1242 C 0.91468 0.52545 0.98569 0.0
C1243 C 0.91735 0.53065 0.97061 0.0
C1244 C 0.93694 0.5308 0.96359 0.0
C1245 C 0.95367 0.52606 0.97175 0.0
C1246 C 0.89429 0.52548 0.99366 0.0
C1247 C 0.94015 0.53588 0.94745 0.0
H1248 H 0.84299 0.50721 0.94223 0.0
H1249 H 0.8908 0.58439 0.95575 0.0
H1250 H 0.88675 0.48858 0.94954 0.0
H1251 H 0.87024 0.48439 0.96556 0.0
H1252 H 0.85416 0.47751 0.94708 0.0
H1253 H 0.92933 0.60006 0.96944 0.0
H1254 H 0.92884 0.5795 0.98276 0.0
H1255 H 0.94423 0.58221 0.96636 0.0
H1256 H 0.92927 0.51643 1.00503 0.0
H1257 H 0.96866 0.52619 0.96638 0.0
H1258 H 0.87617 0.51158 0.98773 0.0
H1259 H 0.89554 0.54373 0.99355 0.0
H1260 H 0.89493 0.52135 1.00546 0.0
H1261 H 0.92319 0.52255 0.94019 0.0
H1262 H 0.9559 0.53463 0.94352 0.0
H1263 H 0.94314 0.55458 0.94605 0.0
C1264 C 0.41614 0.31159 0.96208 0.0
C1265 C 0.40327 0.29288 0.97121 0.0
C1266 C 0.42776 0.33647 0.96771 0.0
C1267 C 0.42639 0.3428 0.98283 0.0
C1268 C 0.41345 0.32403 0.99213 0.0
C1269 C 0.40209 0.29923 0.98621 0.0
C1270 C 0.44155 0.35599 0.95748 0.0
C1271 C 0.41148 0.33015 0.00827 0.0
C1272 C 0.4745 0.40719 0.99969 0.0
C1273 C 0.4618 0.42011 0.99789 0.0
C1274 C 0.46303 0.38185 0.99515 0.0
C1275 C 0.43824 0.36916 0.98876 0.0
C1276 C 0.42513 0.38195 0.98729 0.0
C1277 C 0.43709 0.4073 0.99183 0.0
C1278 C 0.4776 0.36879 0.99682 0.0
C1279 C 0.39862 0.36899 0.9806 0.0
H1280 H 0.41745 0.30673 0.95055 0.0
H1281 H 0.39203 0.28479 0.99326 0.0
H1282 H 0.43347 0.36811 0.95655 0.0
H1283 H 0.461 0.36779 0.96224 0.0
H1284 H 0.44113 0.34794 0.94606 0.0
H1285 H 0.40096 0.31337 0.01405 0.0
H1286 H 0.4301 0.34142 0.0144 0.0
H1287 H 0.4023 0.34132 0.0089 0.0
H1288 H 0.49359 0.41696 1.00438 0.0
H1289 H 0.42707 0.4171 0.99051 0.0
H1290 H 0.47939 0.36187 0.98561 0.0
H1291 H 0.46784 0.35257 1.00314 0.0
H1292 H 0.49631 0.38103 1.00268 0.0
H1293 H 0.39723 0.36211 0.96874 0.0
H1294 H 0.39063 0.38129 0.98105 0.0
H1295 H 0.38737 0.35277 0.98662 0.0
C1296 C 0.11826 0.6983 0.04631 0.0
C1297 C 0.12729 0.7018 0.06143 0.0
C1298 C 0.10178 0.67461 0.03925 0.0
C1299 C 0.09433 0.65397 0.0475 0.0
C1300 C 0.10325 0.65742 0.06279 0.0
C1301 C 0.11958 0.6813 0.06958 0.0
C1302 C 0.09247 0.67164 0.02296 0.0
C1303 C 0.09588 0.63583 0.07191 0.0
C1304 C 0.03638 0.59339 0.03397 0.0
C1305 C 0.04604 0.57974 0.02728 0.0
C1306 C 0.05186 0.61776 0.04034 0.0
C1307 C 0.07759 0.62866 0.04009 0.0
C1308 C 0.08742 0.61511 0.03318 0.0
C1309 C 0.07152 0.59084 0.02682 0.0
C1310 C 0.0407 0.63172 0.04752 0.0
C1311 C 0.11479 0.62609 0.03277 0.0
H1312 H 0.12401 0.71414 0.04003 0.0
H1313 H 0.12678 0.6839 0.08121 0.0
H1314 H 0.09808 0.66017 0.01632 0.0
H1315 H 0.07208 0.66191 0.0216 0.0
H1316 H 0.09954 0.68962 0.01825 0.0
H1317 H 0.10414 0.64171 0.08374 0.0
H1318 H 0.07559 0.62516 0.07175 0.0
H1319 H 0.1017 0.62322 0.06692 0.0
H1320 H 0.0167 0.585 0.03432 0.0
H1321 H 0.07914 0.58043 0.02168 0.0
H1322 H 0.04674 0.64932 0.04252 0.0
H1323 H 0.04721 0.63645 0.05964 0.0
H1324 H 0.02029 0.62097 0.04622 0.0
H1325 H 0.12237 0.64343 0.02733 0.0
H1326 H 0.11943 0.61332 0.02664 0.0
H1327 H 0.12407 0.6308 0.04435 0.0
C1328 C 0.33557 0.4415 0.06365 0.0
C1329 C 0.33254 0.46055 0.07012 0.0
C1330 C 0.35626 0.44666 0.05616 0.0
C1331 C 0.37454 0.47148 0.05532 0.0
C1332 C 0.37174 0.49079 0.06203 0.0
C1333 C 0.35068 0.4851 0.06925 0.0
C1334 C 0.35839 0.42554 0.04898 0.0
C1335 C 0.391 0.51747 0.06161 0.0
C1336 C 0.43776 0.48319 0.04712 0.0
C1337 C 0.43746 0.48641 0.03183 0.0
C1338 C 0.41764 0.47883 0.05498 0.0
C1339 C 0.39648 0.47719 0.0473 0.0
C1340 C 0.3961 0.48057 0.03187 0.0
C1341 C 0.41668 0.48536 0.02435 0.0
C1342 C 0.41898 0.4758 0.07147 0.0
C1343 C 0.37377 0.47865 0.02324 0.0
H1344 H 0.32146 0.42251 0.06417 0.0
H1345 H 0.34849 0.49987 0.07437 0.0
H1346 H 0.35958 0.42703 0.0368 0.0
H1347 H 0.3755 0.42641 0.05377 0.0
H1348 H 0.34253 0.4073 0.05058 0.0
H1349 H 0.38636 0.53029 0.06769 0.0
H1350 H 0.40907 0.52086 0.06665 0.0
H1351 H 0.39306 0.52183 0.04983 0.0
H1352 H 0.45381 0.48415 0.05302 0.0
H1353 H 0.41624 0.48769 0.01252 0.0
H1354 H 0.40468 0.45698 0.07347 0.0
H1355 H 0.41525 0.48902 0.07788 0.0
H1356 H 0.43721 0.47878 0.07594 0.0
H1357 H 0.35765 0.46006 0.02366 0.0
H1358 H 0.37646 0.48191 0.01132 0.0
H1359 H 0.36932 0.49223 0.02843 0.0
C1360 C 0.59061 0.8966 0.03847 0.0
C1361 C 0.58529 0.88777 0.0525 0.0
C1362 C 0.58006 0.9097 0.03237 0.0
C1363 C 0.56374 0.91393 0.04049 0.0
C1364 C 0.55802 0.90475 0.05456 0.0
C1365 C 0.56891 0.89181 0.06041 0.0
C1366 C 0.5867 0.91939 0.01738 0.0
C1367 C 0.54058 0.90879 0.0635 0.0
C1368 C 0.5556 0.96843 0.03327 0.0
C1369 C 0.53304 0.95711 0.02427 0.0
C1370 C 0.56594 0.9546 0.03844 0.0
C1371 C 0.55335 0.92881 0.03458 0.0
C1372 C 0.53067 0.91724 0.0254 0.0
C1373 C 0.52079 0.93156 0.02032 0.0
C1374 C 0.59022 0.96759 0.04817 0.0
C1375 C 0.51672 0.88973 0.02111 0.0
H1376 H 0.60341 0.89365 0.03239 0.0
H1377 H 0.56445 0.88466 0.07115 0.0
H1378 H 0.56982 0.9126 0.00955 0.0
H1379 H 0.59601 0.93981 0.0187 0.0
H1380 H 0.59903 0.91379 0.01228 0.0
H1381 H 0.53745 0.89974 0.07402 0.0
H1382 H 0.54804 0.92882 0.06638 0.0
H1383 H 0.52261 0.90151 0.05671 0.0
H1384 H 0.56527 0.98817 0.03634 0.0
H1385 H 0.50334 0.92266 0.01337 0.0
H1386 H 0.60374 0.96377 0.04308 0.0
H1387 H 0.58783 0.96048 0.0593 0.0
H1388 H 0.59798 0.98787 0.04981 0.0
H1389 H 0.52845 0.88403 0.01536 0.0
H1390 H 0.49958 0.88366 0.01364 0.0
H1391 H 0.51186 0.87996 0.03133 0.0
C1392 C 0.9982 0.23883 0.38758 0.0
C1393 C 0.99355 0.21739 0.39406 0.0
C1394 C 0.0197 0.25225 0.38066 0.0
C1395 C 0.03712 0.24423 0.38049 0.0
C1396 C 0.03253 0.22261 0.38707 0.0
C1397 C 0.01066 0.20931 0.39367 0.0
C1398 C 0.02381 0.27504 0.37358 0.0
C1399 C 0.0509 0.21377 0.38737 0.0
C1400 C 0.08478 0.26895 0.35268 0.0
C1401 C 0.10459 0.2889 0.36146 0.0
C1402 C 0.06266 0.2541 0.35873 0.0
C1403 C 0.06061 0.25909 0.37397 0.0
C1404 C 0.08087 0.27874 0.38298 0.0
C1405 C 0.10251 0.29355 0.37658 0.0
C1406 C 0.04129 0.23351 0.34874 0.0
C1407 C 0.07962 0.28433 0.39936 0.0
H1408 H 0.98481 0.2449 0.38774 0.0
H1409 H 0.00711 0.1928 0.39877 0.0
H1410 H 0.0404 0.29148 0.3794 0.0
H1411 H 0.02714 0.27351 0.36171 0.0
H1412 H 0.00793 0.2781 0.37404 0.0
H1413 H 0.04435 0.19638 0.39272 0.0
H1414 H 0.05474 0.21072 0.37582 0.0
H1415 H 0.06854 0.2281 0.39361 0.0
H1416 H 0.08632 0.2654 0.34097 0.0
H1417 H 0.11791 0.30879 0.38346 0.0
H1418 H 0.02557 0.23688 0.34809 0.0
H1419 H 0.03507 0.21572 0.35353 0.0
H1420 H 0.04602 0.23173 0.33722 0.0
H1421 H 0.06544 0.28971 0.40056 0.0
H1422 H 0.09746 0.29945 0.40498 0.0
H1423 H 0.07414 0.26763 0.40526 0.0
C1424 C 0.80536 0.80554 0.39225 0.0
C1425 C 0.80033 0.79218 0.40482 0.0
C1426 C 0.78836 0.8113 0.38553 0.0
C1427 C 0.76531 0.80275 0.39112 0.0
C1428 C 0.75992 0.78911 0.40369 0.0
C1429 C 0.77762 0.78438 0.41053 0.0
C1430 C 0.79503 0.8264 0.37235 0.0
C1431 C 0.7353 0.77915 0.40976 0.0
C1432 C 0.72742 0.83288 0.38113 0.0
C1433 C 0.7122 0.81738 0.36854 0.0
C1434 C 0.74495 0.82847 0.38856 0.0
C1435 C 0.7466 0.80756 0.38356 0.0
C1436 C 0.73068 0.79144 0.37111 0.0
C1437 C 0.71397 0.79681 0.36358 0.0
C1438 C 0.76211 0.8465 0.40149 0.0
C1439 C 0.73129 0.76852 0.36573 0.0
H1440 H 0.8225 0.81129 0.38746 0.0
H1441 H 0.77357 0.77458 0.42042 0.0
H1442 H 0.78279 0.81512 0.36217 0.0
H1443 H 0.79231 0.84245 0.37442 0.0
H1444 H 0.81438 0.83325 0.37009 0.0
H1445 H 0.73375 0.76834 0.41938 0.0
H1446 H 0.73227 0.79452 0.41342 0.0
H1447 H 0.72036 0.76715 0.40082 0.0
H1448 H 0.72616 0.84892 0.38488 0.0
H1449 H 0.702 0.78469 0.35391 0.0
H1450 H 0.78143 0.85429 0.39893 0.0
H1451 H 0.76026 0.83694 0.41171 0.0
H1452 H 0.75852 0.86191 0.40393 0.0
H1453 H 0.74936 0.77369 0.36174 0.0
H1454 H 0.71665 0.75713 0.35649 0.0
H1455 H 0.72903 0.75711 0.37512 0.0
C1456 C 0.22795 0.01704 0.38408 0.0
C1457 C 0.25287 0.03096 0.38959 0.0
C1458 C 0.2175 0.99231 0.3783 0.0
C1459 C 0.23237 0.98127 0.37796 0.0
C1460 C 0.25757 0.99524 0.38345 0.0
C1461 C 0.26752 0.01993 0.38926 0.0
C1462 C 0.1905 0.97795 0.37264 0.0
C1463 C 0.27402 0.98411 0.38316 0.0
C1464 C 0.19983 0.91141 0.37535 0.0
C1465 C 0.19867 0.90524 0.35997 0.0
C1466 C 0.21103 0.93611 0.38139 0.0
C1467 C 0.22145 0.95507 0.37184 0.0
C1468 C 0.22073 0.94899 0.35636 0.0
C1469 C 0.20928 0.92414 0.3506 0.0
C1470 C 0.21134 0.94191 0.39795 0.0
C1471 C 0.23178 0.96873 0.34585 0.0
H1472 H 0.21648 0.0254 0.38453 0.0
H1473 H 0.28684 0.03071 0.39339 0.0
H1474 H 0.18811 0.97092 0.3607 0.0
H1475 H 0.18089 0.96172 0.37898 0.0
H1476 H 0.1815 0.98927 0.37371 0.0
H1477 H 0.29324 0.99749 0.3878 0.0
H1478 H 0.26684 0.96796 0.38972 0.0
H1479 H 0.27409 0.97738 0.37149 0.0
H1480 H 0.19168 0.89692 0.38267 0.0
H1481 H 0.2086 0.91954 0.33871 0.0
H1482 H 0.20108 0.95184 0.39974 0.0
H1483 H 0.2305 0.95425 0.40307 0.0
H1484 H 0.203 0.92506 0.40391 0.0
H1485 H 0.22218 0.97952 0.34574 0.0
H1486 H 0.23053 0.96094 0.33421 0.0
H1487 H 0.2514 0.98175 0.34979 0.0
C1488 C 0.53243 0.6462 0.30689 0.0
C1489 C 0.54261 0.63204 0.3018 0.0
C1490 C 0.54749 0.67073 0.31303 0.0
C1491 C 0.57334 0.68129 0.31416 0.0
C1492 C 0.58373 0.66687 0.30946 0.0
C1493 C 0.56822 0.6424 0.30327 0.0
C1494 C 0.53575 0.68559 0.31785 0.0
C1495 C 0.61122 0.67746 0.31062 0.0
C1496 C 0.61155 0.75068 0.31444 0.0
C1497 C 0.61914 0.75824 0.32974 0.0
C1498 C 0.59673 0.72567 0.30923 0.0
C1499 C 0.58946 0.70777 0.31956 0.0
C1500 C 0.59723 0.71523 0.335 0.0
C1501 C 0.61192 0.74041 0.33992 0.0
C1502 C 0.58867 0.7184 0.29267 0.0
C1503 C 0.58993 0.69662 0.34632 0.0
H1504 H 0.51266 0.63836 0.30558 0.0
H1505 H 0.57612 0.6314 0.29948 0.0
H1506 H 0.5426 0.69383 0.3296 0.0
H1507 H 0.54089 0.701 0.3108 0.0
H1508 H 0.51538 0.67428 0.31692 0.0
H1509 H 0.61632 0.6634 0.30729 0.0
H1510 H 0.61947 0.69258 0.30331 0.0
H1511 H 0.61945 0.68551 0.32226 0.0
H1512 H 0.61701 0.76434 0.30649 0.0
H1513 H 0.61781 0.74609 0.35176 0.0
H1514 H 0.56831 0.70841 0.29069 0.0
H1515 H 0.59486 0.70568 0.28838 0.0
H1516 H 0.59607 0.73458 0.2861 0.0
H1517 H 0.56963 0.68606 0.34609 0.0
H1518 H 0.59797 0.70541 0.35789 0.0
H1519 H 0.59599 0.68318 0.34341 0.0
C1520 C 0.32573 0.89546 0.28706 0.0
C1521 C 0.33202 0.87742 0.28336 0.0
C1522 C 0.30444 0.88963 0.29405 0.0
C1523 C 0.28896 0.86512 0.2973 0.0
C1524 C 0.29499 0.84674 0.29335 0.0
C1525 C 0.31649 0.85314 0.28649 0.0
C1526 C 0.29874 0.90978 0.2982 0.0
C1527 C 0.27881 0.82035 0.29645 0.0
C1528 C 0.24736 0.85378 0.32831 0.0
C1529 C 0.22462 0.84633 0.32019 0.0
C1530 C 0.26844 0.86007 0.321 0.0
C1531 C 0.26676 0.85877 0.30517 0.0
C1532 C 0.24387 0.85122 0.29689 0.0
C1533 C 0.22311 0.84515 0.3045 0.0
C1534 C 0.29256 0.86821 0.33022 0.0
C1535 C 0.24129 0.84956 0.28 0.0
H1536 H 0.33778 0.9143 0.28479 0.0
H1537 H 0.32109 0.83906 0.28347 0.0
H1538 H 0.28019 0.90471 0.29301 0.0
H1539 H 0.29857 0.912 0.31051 0.0
H1540 H 0.31235 0.92778 0.29461 0.0
H1541 H 0.28572 0.80813 0.29229 0.0
H1542 H 0.27773 0.8194 0.30867 0.0
H1543 H 0.25985 0.81315 0.29109 0.0
H1544 H 0.24879 0.85488 0.34043 0.0
H1545 H 0.20568 0.83952 0.29809 0.0
H1546 H 0.30651 0.88691 0.32779 0.0
H1547 H 0.29954 0.85559 0.32718 0.0
H1548 H 0.29086 0.86856 0.34244 0.0
H1549 H 0.2535 0.86787 0.27624 0.0
H1550 H 0.22213 0.84308 0.27522 0.0
H1551 H 0.2471 0.83672 0.27535 0.0
C1552 C 0.10861 0.4545 0.30041 0.0
C1553 C 0.08333 0.44461 0.30107 0.0
C1554 C 0.12062 0.44229 0.30578 0.0
C1555 C 0.10705 0.41993 0.31219 0.0
C1556 C 0.08156 0.41009 0.31311 0.0
C1557 C 0.06992 0.42245 0.30738 0.0
C1558 C 0.14772 0.45307 0.30434 0.0
C1559 C 0.06659 0.38651 0.32012 0.0
C1560 C 0.13071 0.37502 0.31349 0.0
C1561 C 0.1419 0.38039 0.32823 0.0
C1562 C 0.1197 0.38809 0.30804 0.0
C1563 C 0.11941 0.40657 0.31768 0.0
C1564 C 0.13074 0.41211 0.33257 0.0
C1565 C 0.14213 0.39912 0.33762 0.0
C1566 C 0.10829 0.38207 0.292 0.0
C1567 C 0.13041 0.4314 0.34323 0.0
H1568 H 0.11887 0.47153 0.29538 0.0
H1569 H 0.05038 0.41494 0.30795 0.0
H1570 H 0.15795 0.45656 0.31552 0.0
H1571 H 0.15073 0.43971 0.29749 0.0
H1572 H 0.15558 0.47061 0.29906 0.0
H1573 H 0.04718 0.38188 0.3205 0.0
H1574 H 0.06679 0.371 0.31369 0.0
H1575 H 0.07483 0.38815 0.3317 0.0
H1576 H 0.13072 0.36068 0.30617 0.0
H1577 H 0.15061 0.40315 0.34906 0.0
H1578 H 0.11636 0.39896 0.28609 0.0
H1579 H 0.08828 0.37517 0.29166 0.0
H1580 H 0.11102 0.36792 0.2858 0.0
H1581 H 0.13928 0.4495 0.33864 0.0
H1582 H 0.14001 0.43345 0.35446 0.0
H1583 H 0.11113 0.42641 0.34454 0.0
C1584 C 0.33965 0.42471 0.29857 0.0
C1585 C 0.34408 0.44436 0.29022 0.0
C1586 C 0.31775 0.41228 0.30526 0.0
C1587 C 0.30026 0.42019 0.30386 0.0
C1588 C 0.30479 0.44018 0.2955 0.0
C1589 C 0.32658 0.45186 0.28861 0.0
C1590 C 0.31329 0.39066 0.31378 0.0
C1591 C 0.28681 0.44943 0.29402 0.0
C1592 C 0.23434 0.37511 0.30993 0.0
C1593 C 0.2337 0.38178 0.32498 0.0
C1594 C 0.25587 0.38749 0.30292 0.0
C1595 C 0.27713 0.40736 0.31106 0.0
C1596 C 0.27644 0.41459 0.32615 0.0
C1597 C 0.25478 0.4015 0.333 0.0
C1598 C 0.25599 0.37891 0.2869 0.0
C1599 C 0.29862 0.43607 0.33506 0.0
H1600 H 0.35326 0.41897 0.29974 0.0
H1601 H 0.33025 0.46727 0.28227 0.0
H1602 H 0.31136 0.39455 0.32564 0.0
H1603 H 0.29584 0.37405 0.30903 0.0
H1604 H 0.32843 0.38642 0.31344 0.0
H1605 H 0.29334 0.4655 0.28739 0.0
H1606 H 0.26878 0.43452 0.28856 0.0
H1607 H 0.28374 0.45487 0.30529 0.0
H1608 H 0.21815 0.35972 0.30371 0.0
H1609 H 0.2543 0.40679 0.34461 0.0
H1610 H 0.26982 0.37291 0.28632 0.0
H1611 H 0.26136 0.39431 0.27983 0.0
H1612 H 0.23778 0.36335 0.28209 0.0
H1613 H 0.31391 0.43209 0.33626 0.0
H1614 H 0.29468 0.44015 0.34641 0.0
H1615 H 0.30507 0.45281 0.32906 0.0
C1616 C 0.54197 0.88885 0.29782 0.0
C1617 C 0.5294 0.87755 0.28366 0.0
C1618 C 0.5591 0.88322 0.30448 0.0
C1619 C 0.56351 0.86561 0.29688 0.0
C1620 C 0.55091 0.85419 0.28256 0.0
C1621 C 0.53411 0.86042 0.27608 0.0
C1622 C 0.57239 0.896 0.31969 0.0
C1623 C 0.55484 0.83507 0.2742 0.0
C1624 C 0.62191 0.86474 0.30939 0.0
C1625 C 0.61334 0.84633 0.31919 0.0
C1626 C 0.60588 0.87111 0.30193 0.0
C1627 C 0.58064 0.85851 0.30418 0.0
C1628 C 0.57179 0.83945 0.31374 0.0
C1629 C 0.58825 0.8337 0.32119 0.0
C1630 C 0.61603 0.89168 0.29193 0.0
C1631 C 0.54495 0.82533 0.31626 0.0
H1632 H 0.53857 0.90232 0.30362 0.0
H1633 H 0.52426 0.85151 0.26518 0.0
H1634 H 0.56771 0.88224 0.32791 0.0
H1635 H 0.59256 0.90524 0.31922 0.0
H1636 H 0.56763 0.90997 0.32383 0.0
H1637 H 0.54402 0.82832 0.26302 0.0
H1638 H 0.57459 0.84285 0.2727 0.0
H1639 H 0.5495 0.81912 0.28081 0.0
H1640 H 0.64128 0.87463 0.30782 0.0
H1641 H 0.58142 0.81929 0.32864 0.0
H1642 H 0.61323 0.90688 0.29637 0.0
H1643 H 0.60601 0.88502 0.28054 0.0
H1644 H 0.63595 0.89919 0.29103 0.0
H1645 H 0.53952 0.83804 0.32159 0.0
H1646 H 0.54084 0.81029 0.3235 0.0
H1647 H 0.5334 0.8172 0.30539 0.0
C1648 C 0.0827 0.65099 0.2884 0.0
C1649 C 0.06937 0.63216 0.29735 0.0
C1650 C 0.09377 0.67586 0.29404 0.0
C1651 C 0.09135 0.68202 0.30897 0.0
C1652 C 0.07756 0.66311 0.318 0.0
C1653 C 0.06677 0.63838 0.31208 0.0
C1654 C 0.10844 0.69554 0.28411 0.0
C1655 C 0.07444 0.669 0.33394 0.0
C1656 C 0.13951 0.74484 0.32805 0.0
C1657 C 0.12744 0.75843 0.32656 0.0
C1658 C 0.12791 0.7199 0.32243 0.0
C1659 C 0.10365 0.70828 0.31523 0.0
C1660 C 0.09129 0.72182 0.3138 0.0
C1661 C 0.10335 0.74676 0.31946 0.0
C1662 C 0.1417 0.70604 0.32411 0.0
C1663 C 0.06536 0.71 0.30623 0.0
H1664 H 0.08504 0.64627 0.27707 0.0
H1665 H 0.05627 0.62386 0.31898 0.0
H1666 H 0.10114 0.70833 0.28326 0.0
H1667 H 0.12784 0.7066 0.28909 0.0
H1668 H 0.10806 0.68767 0.27265 0.0
H1669 H 0.06262 0.65216 0.33934 0.0
H1670 H 0.09265 0.6793 0.34064 0.0
H1671 H 0.06618 0.68104 0.33425 0.0
H1672 H 0.15812 0.75371 0.33352 0.0
H1673 H 0.09385 0.75709 0.31831 0.0
H1674 H 0.14344 0.69903 0.31291 0.0
H1675 H 0.13132 0.68982 0.33032 0.0
H1676 H 0.16039 0.71772 0.33012 0.0
H1677 H 0.06474 0.70324 0.29446 0.0
H1678 H 0.05816 0.72296 0.3063 0.0
H1679 H 0.05296 0.69378 0.31191 0.0
C1680 C 0.78386 0.02481 0.37492 0.0
C1681 C 0.79252 0.02884 0.39014 0.0
C1682 C 0.7672 0.00097 0.36815 0.0
C1683 C 0.75923 0.98076 0.37681 0.0
C1684 C 0.76793 0.98473 0.39217 0.0
C1685 C 0.78444 0.00874 0.39866 0.0
C1686 C 0.75814 0.99741 0.35177 0.0
C1687 C 0.75999 0.96359 0.40173 0.0
C1688 C 0.70029 0.92067 0.36431 0.0
C1689 C 0.70933 0.90603 0.35822 0.0
C1690 C 0.71631 0.94525 0.37008 0.0
C1691 C 0.74195 0.95534 0.36982 0.0
C1692 C 0.75116 0.94081 0.36346 0.0
C1693 C 0.73472 0.91633 0.35769 0.0
C1694 C 0.70583 0.96028 0.37669 0.0
C1695 C 0.77842 0.95092 0.36308 0.0
H1696 H 0.78992 0.04036 0.36836 0.0
H1697 H 0.79138 0.01177 0.41037 0.0
H1698 H 0.76315 0.98505 0.34554 0.0
H1699 H 0.73779 0.98839 0.35034 0.0
H1700 H 0.7659 0.0151 0.34666 0.0
H1701 H 0.76839 0.96985 0.41351 0.0
H1702 H 0.7397 0.95356 0.40164 0.0
H1703 H 0.76518 0.95027 0.39704 0.0
H1704 H 0.68068 0.91288 0.36469 0.0
H1705 H 0.74186 0.90515 0.35301 0.0
H1706 H 0.71248 0.97763 0.37131 0.0
H1707 H 0.71227 0.96549 0.3888 0.0
H1708 H 0.68542 0.95011 0.37533 0.0
H1709 H 0.78647 0.96798 0.35734 0.0
H1710 H 0.78253 0.93749 0.35725 0.0
H1711 H 0.78769 0.95592 0.37467 0.0
C1712 C 0.02088 0.81035 0.41139 0.0
C1713 C 0.99748 0.79296 0.40443 0.0
C1714 C 0.04207 0.81635 0.40423 0.0
C1715 C 0.03979 0.80437 0.3899 0.0
C1716 C 0.01621 0.7865 0.38295 0.0
C1717 C 0.99534 0.78115 0.39025 0.0
C1718 C 0.06685 0.83572 0.41193 0.0
C1719 C 0.01303 0.77298 0.3678 0.0
C1720 C 0.09026 0.83339 0.36414 0.0
C1721 C 0.10282 0.82039 0.36627 0.0
C1722 C 0.07006 0.82876 0.37201 0.0
C1723 C 0.06201 0.81046 0.38211 0.0
C1724 C 0.07474 0.79743 0.38441 0.0
C1725 C 0.09505 0.80265 0.37655 0.0
C1726 C 0.05719 0.84331 0.36942 0.0
C1727 C 0.06662 0.77763 0.39498 0.0
H1728 H 0.02255 0.81965 0.4223 0.0
H1729 H 0.97729 0.76749 0.38493 0.0
H1730 H 0.079 0.82774 0.41353 0.0
H1731 H 0.07584 0.851 0.40481 0.0
H1732 H 0.06547 0.84344 0.42301 0.0
H1733 H 0.99348 0.75924 0.36407 0.0
H1734 H 0.02024 0.78631 0.35932 0.0
H1735 H 0.02376 0.76332 0.36816 0.0
H1736 H 0.09623 0.84727 0.35633 0.0
H1737 H 0.10461 0.79248 0.3783 0.0
H1738 H 0.05656 0.85233 0.38023 0.0
H1739 H 0.03792 0.83072 0.36458 0.0
H1740 H 0.06641 0.85768 0.36174 0.0
H1741 H 0.06647 0.78531 0.40636 0.0
H1742 H 0.07875 0.76947 0.3957 0.0
H1743 H 0.04758 0.76269 0.39118 0.0
C1744 C 0.22622 0.21369 0.38315 0.0
C1745 C 0.2512 0.2259 0.38857 0.0
C1746 C 0.21529 0.22669 0.37743 0.0
C1747 C 0.22973 0.25249 0.37709 0.0
C1748 C 0.25503 0.26489 0.3824 0.0
C1749 C 0.26546 0.25144 0.38812 0.0
C1750 C 0.18822 0.21287 0.37196 0.0
C1751 C 0.27103 0.29238 0.3821 0.0
C1752 C 0.20659 0.28324 0.35066 0.0
C1753 C 0.19672 0.29345 0.36044 0.0
C1754 C 0.21742 0.26988 0.35593 0.0
C1755 C 0.21828 0.26654 0.37133 0.0
C1756 C 0.20818 0.2766 0.38123 0.0
C1757 C 0.19756 0.28998 0.37568 0.0
C1758 C 0.2281 0.25947 0.34505 0.0
C1759 C 0.20866 0.2733 0.39772 0.0
H1760 H 0.21506 0.194 0.38367 0.0
H1761 H 0.28483 0.26088 0.39217 0.0
H1762 H 0.17844 0.22006 0.3786 0.0
H1763 H 0.18546 0.21579 0.36012 0.0
H1764 H 0.17967 0.19274 0.37279 0.0
H1765 H 0.29046 0.29916 0.38642 0.0
H1766 H 0.27052 0.29726 0.37048 0.0
H1767 H 0.26388 0.30221 0.38896 0.0
H1768 H 0.20609 0.28588 0.33888 0.0
H1769 H 0.18996 0.29777 0.38332 0.0
H1770 H 0.219 0.23917 0.34511 0.0
H1771 H 0.24795 0.26708 0.34854 0.0
H1772 H 0.22595 0.26371 0.33343 0.0
H1773 H 0.19901 0.25338 0.39927 0.0
H1774 H 0.19985 0.28215 0.40391 0.0
H1775 H 0.22792 0.28134 0.40277 0.0
C1776 C 0.67855 0.55102 0.73198 0.0
C1777 C 0.66024 0.55723 0.72935 0.0
C1778 C 0.70079 0.56331 0.7256 0.0
C1779 C 0.70493 0.58264 0.71672 0.0
C1780 C 0.68658 0.58922 0.71426 0.0
C1781 C 0.66428 0.57618 0.72045 0.0
C1782 C 0.71968 0.55541 0.72819 0.0
C1783 C 0.69056 0.61011 0.70515 0.0
C1784 C 0.77065 0.62998 0.71161 0.0
C1785 C 0.77244 0.62312 0.69683 0.0
C1786 C 0.74882 0.61687 0.71826 0.0
C1787 C 0.72849 0.59609 0.71003 0.0
C1788 C 0.73044 0.58862 0.69526 0.0
C1789 C 0.75233 0.60243 0.68876 0.0
C1790 C 0.74732 0.62571 0.73392 0.0
C1791 C 0.70934 0.56618 0.68629 0.0
H1792 H 0.6752 0.53616 0.73877 0.0
H1793 H 0.65004 0.58094 0.7185 0.0
H1794 H 0.72387 0.54994 0.7173 0.0
H1795 H 0.73708 0.57105 0.73386 0.0
H1796 H 0.71339 0.53971 0.73512 0.0
H1797 H 0.67475 0.61338 0.7047 0.0
H1798 H 0.70734 0.62734 0.71001 0.0
H1799 H 0.6935 0.60603 0.69355 0.0
H1800 H 0.78608 0.64609 0.71786 0.0
H1801 H 0.75372 0.59697 0.67737 0.0
H1802 H 0.74207 0.6107 0.74129 0.0
H1803 H 0.73283 0.6309 0.73373 0.0
H1804 H 0.76498 0.64188 0.73891 0.0
H1805 H 0.70319 0.5499 0.69268 0.0
H1806 H 0.71435 0.56196 0.67533 0.0
H1807 H 0.69349 0.56914 0.68423 0.0
C1808 C 0.47787 0.14792 0.73819 0.0
C1809 C 0.47275 0.12347 0.73783 0.0
C1810 C 0.46092 0.15365 0.73134 0.0
C1811 C 0.43852 0.13449 0.72373 0.0
C1812 C 0.43331 0.10977 0.72331 0.0
C1813 C 0.45042 0.10454 0.73046 0.0
C1814 C 0.46697 0.18019 0.73223 0.0
C1815 C 0.40982 0.08887 0.71511 0.0
C1816 C 0.38473 0.14531 0.71582 0.0
C1817 C 0.38689 0.15107 0.70096 0.0
C1818 C 0.40157 0.14015 0.72344 0.0
C1819 C 0.42076 0.14035 0.71594 0.0
C1820 C 0.42291 0.14597 0.70091 0.0
C1821 C 0.40608 0.15145 0.69365 0.0
C1822 C 0.39889 0.1346 0.73953 0.0
C1823 C 0.44288 0.14598 0.69244 0.0
H1824 H 0.49503 0.16255 0.74401 0.0
H1825 H 0.44654 0.08564 0.73005 0.0
H1826 H 0.46781 0.18616 0.72082 0.0
H1827 H 0.45227 0.18208 0.73726 0.0
H1828 H 0.4848 0.1928 0.73899 0.0
H1829 H 0.40852 0.07067 0.71587 0.0
H1830 H 0.3937 0.08837 0.71975 0.0
H1831 H 0.40869 0.09186 0.70312 0.0
H1832 H 0.37005 0.14513 0.72158 0.0
H1833 H 0.40778 0.15571 0.68213 0.0
H1834 H 0.41604 0.14778 0.7467 0.0
H1835 H 0.39597 0.11585 0.74061 0.0
H1836 H 0.38329 0.13571 0.74386 0.0
H1837 H 0.4612 0.15963 0.69824 0.0
H1838 H 0.44185 0.15045 0.68075 0.0
H1839 H 0.44147 0.12763 0.69218 0.0
C1840 C 0.93862 0.36065 0.70882 0.0
C1841 C 0.92429 0.36881 0.71576 0.0
C1842 C 0.92828 0.33599 0.70285 0.0
C1843 C 0.90327 0.31914 0.70428 0.0
C1844 C 0.88883 0.32737 0.71139 0.0
C1845 C 0.89947 0.35222 0.71689 0.0
C1846 C 0.94404 0.32796 0.69503 0.0
C1847 C 0.86227 0.30984 0.71344 0.0
C1848 C 0.86744 0.25861 0.67951 0.0
C1849 C 0.86915 0.24222 0.68874 0.0
C1850 C 0.87923 0.28391 0.68422 0.0
C1851 C 0.89225 0.29274 0.69868 0.0
C1852 C 0.8939 0.27617 0.70806 0.0
C1853 C 0.88264 0.25112 0.70286 0.0
C1854 C 0.87768 0.30115 0.67376 0.0
C1855 C 0.90699 0.28479 0.72372 0.0
H1856 H 0.95781 0.37365 0.70794 0.0
H1857 H 0.88855 0.35864 0.7224 0.0
H1858 H 0.94573 0.31395 0.70114 0.0
H1859 H 0.93525 0.3192 0.68357 0.0
H1860 H 0.96278 0.34361 0.69421 0.0
H1861 H 0.85371 0.31918 0.7194 0.0
H1862 H 0.85148 0.30118 0.70241 0.0
H1863 H 0.86095 0.29478 0.71991 0.0
H1864 H 0.85717 0.25167 0.66852 0.0
H1865 H 0.88377 0.23833 0.71003 0.0
H1866 H 0.8964 0.31634 0.67242 0.0
H1867 H 0.86751 0.30966 0.67857 0.0
H1868 H 0.86827 0.29157 0.66253 0.0
H1869 H 0.92643 0.29921 0.72338 0.0
H1870 H 0.90658 0.26952 0.72957 0.0
H1871 H 0.89827 0.2932 0.73039 0.0
C1872 C 0.20343 0.99394 0.62476 0.0
C1873 C 0.20606 0.97358 0.62742 0.0
C1874 C 0.22073 0.0176 0.63142 0.0
C1875 C 0.24079 0.02079 0.64124 0.0
C1876 C 0.24339 1.00021 0.64407 0.0
C1877 C 0.2261 0.97682 0.63696 0.0
C1878 C 0.21761 0.03918 0.62789 0.0
C1879 C 0.26425 0.00285 0.65473 0.0
C1880 C 0.29643 0.08513 0.64841 0.0
C1881 C 0.29148 0.09422 0.66154 0.0
C1882 C 0.2802 0.06111 0.64175 0.0
C1883 C 0.2589 0.04572 0.6486 0.0
C1884 C 0.2543 0.05456 0.66216 0.0
C1885 C 0.27051 0.07884 0.66837 0.0
C1886 C 0.28543 0.0525 0.62713 0.0
C1887 C 0.23206 0.03849 0.66997 0.0
H1888 H 0.18799 0.99135 0.61725 0.0
H1889 H 0.22796 0.96095 0.63904 0.0
H1890 H 0.21536 0.04796 0.63827 0.0
H1891 H 0.23431 0.05332 0.62336 0.0
H1892 H 0.20144 0.03364 0.61963 0.0
H1893 H 0.26343 0.98494 0.65587 0.0
H1894 H 0.28213 0.01575 0.6508 0.0
H1895 H 0.26375 0.01082 0.66595 0.0
H1896 H 0.31256 0.09708 0.64307 0.0
H1897 H 0.26678 0.08579 0.6786 0.0
H1898 H 0.27042 0.04827 0.61827 0.0
H1899 H 0.28599 0.03527 0.62817 0.0
H1900 H 0.30312 0.06652 0.62346 0.0
H1901 H 0.21507 0.03402 0.66285 0.0
H1902 H 0.23212 0.04754 0.68096 0.0
H1903 H 0.23132 0.0208 0.67175 0.0
C1904 C 0.00102 0.22662 0.62523 0.0
C1905 C 0.00469 0.20799 0.61876 0.0
C1906 C 0.98003 0.22084 0.63253 0.0
C1907 C 0.9621 0.19582 0.63318 0.0
C1908 C 0.96565 0.17694 0.62657 0.0
C1909 C 0.98698 0.18325 0.61953 0.0
C1910 C 0.97707 0.2415 0.63959 0.0
C1911 C 0.94678 0.15007 0.62681 0.0
C1912 C 0.91741 0.18035 0.66279 0.0
C1913 C 0.89693 0.17892 0.65467 0.0
C1914 C 0.93875 0.18578 0.65594 0.0
C1915 C 0.93944 0.18945 0.64055 0.0
C1916 C 0.91857 0.18742 0.63222 0.0
C1917 C 0.89767 0.18239 0.6394 0.0
C1918 C 0.96073 0.18808 0.66523 0.0
C1919 C 0.91837 0.19077 0.61574 0.0
H1920 H 0.0148 0.24575 0.62479 0.0
H1921 H 0.98966 0.16881 0.61441 0.0
H1922 H 0.96016 0.24051 0.63432 0.0
H1923 H 0.97496 0.23955 0.65167 0.0
H1924 H 0.99297 0.25996 0.63844 0.0
H1925 H 0.9523 0.13762 0.62116 0.0
H1926 H 0.94393 0.14566 0.63853 0.0
H1927 H 0.92886 0.14619 0.62117 0.0
H1928 H 0.91701 0.17783 0.67461 0.0
H1929 H 0.88183 0.18109 0.633 0.0
H1930 H 0.97668 0.20691 0.66521 0.0
H1931 H 0.966 0.17497 0.6603 0.0
H1932 H 0.95716 0.18443 0.67701 0.0
H1933 H 0.93267 0.20976 0.61405 0.0
H1934 H 0.9003 0.18753 0.61074 0.0
H1935 H 0.92284 0.1779 0.6096 0.0
C1936 C 0.73262 0.75344 0.64166 0.0
C1937 C 0.74448 0.77187 0.63223 0.0
C1938 C 0.74376 0.74049 0.64718 0.0
C1939 C 0.76753 0.74668 0.64345 0.0
C1940 C 0.77969 0.76559 0.6341 0.0
C1941 C 0.76786 0.77778 0.62844 0.0
C1942 C 0.73003 0.72006 0.65687 0.0
C1943 C 0.80526 0.77309 0.63016 0.0
C1944 C 0.80532 0.72906 0.66896 0.0
C1945 C 0.80329 0.70856 0.66049 0.0
C1946 C 0.79395 0.7418 0.66348 0.0
C1947 C 0.77975 0.73343 0.64937 0.0
C1948 C 0.77744 0.71258 0.64083 0.0
C1949 C 0.7895 0.70056 0.64643 0.0
C1950 C 0.79732 0.76433 0.67273 0.0
C1951 C 0.76203 0.70284 0.62586 0.0
H1952 H 0.71446 0.7489 0.64448 0.0
H1953 H 0.777 0.79222 0.62121 0.0
H1954 H 0.72809 0.70257 0.65177 0.0
H1955 H 0.74056 0.72438 0.66804 0.0
H1956 H 0.71144 0.71714 0.6584 0.0
H1957 H 0.81239 0.78862 0.62308 0.0
H1958 H 0.81806 0.77866 0.64054 0.0
H1959 H 0.80531 0.75722 0.6241 0.0
H1960 H 0.81612 0.73537 0.6798 0.0
H1961 H 0.78772 0.68456 0.63991 0.0
H1962 H 0.77923 0.76147 0.67549 0.0
H1963 H 0.80546 0.7805 0.6662 0.0
H1964 H 0.80938 0.76871 0.68333 0.0
H1965 H 0.7429 0.69838 0.62717 0.0
H1966 H 0.76163 0.68605 0.62081 0.0
H1967 H 0.76934 0.71715 0.61797 0.0
C1968 C 0.98516 0.7948 0.61928 0.0
C1969 C 0.00261 0.78717 0.6188 0.0
C1970 C 0.96383 0.78164 0.6264 0.0
C1971 C 0.96013 0.76064 0.63341 0.0
C1972 C 0.97773 0.75287 0.63295 0.0
C1973 C 0.99868 0.76613 0.62554 0.0
C1974 C 0.94523 0.79017 0.62639 0.0
C1975 C 0.97457 0.73073 0.64046 0.0
C1976 C 0.9169 0.73883 0.6638 0.0
C1977 C 0.89635 0.71801 0.65618 0.0
C1978 C 0.93776 0.75307 0.65649 0.0
C1979 C 0.93777 0.74658 0.64114 0.0
C1980 C 0.91669 0.72609 0.63328 0.0
C1981 C 0.89633 0.71192 0.64093 0.0
C1982 C 0.96005 0.77461 0.66528 0.0
C1983 C 0.91575 0.71887 0.61683 0.0
H1984 H 0.98816 0.811 0.61398 0.0
H1985 H 0.01233 0.76041 0.62531 0.0
H1986 H 0.92705 0.77511 0.62121 0.0
H1987 H 0.94295 0.79476 0.63806 0.0
H1988 H 0.95066 0.80661 0.62021 0.0
H1989 H 0.99016 0.72738 0.63929 0.0
H1990 H 0.97294 0.73337 0.65254 0.0
H1991 H 0.95735 0.71401 0.63554 0.0
H1992 H 0.91699 0.7435 0.67561 0.0
H1993 H 0.88034 0.69598 0.63495 0.0
H1994 H 0.96532 0.7917 0.65985 0.0
H1995 H 0.97585 0.77137 0.6654 0.0
H1996 H 0.95686 0.77761 0.67702 0.0
H1997 H 0.92034 0.73487 0.61038 0.0
H1998 H 0.8974 0.7034 0.61216 0.0
H1999 H 0.92964 0.71325 0.61514 0.0
C2000 C 0.19395 0.18487 0.62013 0.0
C2001 C 0.2012 0.2083 0.6156 0.0
C2002 C 0.21118 0.17957 0.62704 0.0
C2003 C 0.23624 0.19819 0.62954 0.0
C2004 C 0.24373 0.22177 0.62479 0.0
C2005 C 0.22612 0.22653 0.61786 0.0
C2006 C 0.20251 0.15417 0.63187 0.0
C2007 C 0.27025 0.24215 0.62735 0.0
C2008 C 0.27537 0.19289 0.66133 0.0
C2009 C 0.28832 0.18363 0.65369 0.0
C2010 C 0.25851 0.19783 0.65359 0.0
C2011 C 0.25441 0.19336 0.63779 0.0
C2012 C 0.26751 0.18419 0.62997 0.0
C2013 C 0.28433 0.17944 0.63801 0.0
C2014 C 0.245 0.20772 0.66234 0.0
C2015 C 0.26363 0.17921 0.61312 0.0
H2016 H 0.17477 0.17061 0.61822 0.0
H2017 H 0.2318 0.24475 0.61454 0.0
H2018 H 0.21296 0.14609 0.62691 0.0
H2019 H 0.20603 0.15542 0.64422 0.0
H2020 H 0.18258 0.14145 0.62854 0.0
H2021 H 0.27325 0.25908 0.62237 0.0
H2022 H 0.27617 0.24687 0.63954 0.0
H2023 H 0.28223 0.23591 0.62246 0.0
H2024 H 0.27832 0.19627 0.67344 0.0
H2025 H 0.29421 0.17228 0.63198 0.0
H2026 H 0.2249 0.19478 0.66027 0.0
H2027 H 0.24854 0.22558 0.65854 0.0
H2028 H 0.25054 0.21051 0.67458 0.0
H2029 H 0.24417 0.16516 0.60949 0.0
H2030 H 0.27562 0.17255 0.60869 0.0
H2031 H 0.26738 0.19623 0.608 0.0
C2032 C 0.7661 0.97709 0.64448 0.0
C2033 C 0.74104 0.9643 0.63921 0.0
C2034 C 0.77807 0.00218 0.64975 0.0
C2035 C 0.76462 0.01476 0.64978 0.0
C2036 C 0.73917 0.0018 0.64485 0.0
C2037 C 0.72769 0.97672 0.63959 0.0
C2038 C 0.80526 0.01541 0.65486 0.0
C2039 C 0.72421 0.01457 0.64483 0.0
C2040 C 0.79186 0.07624 0.67352 0.0
C2041 C 0.80182 0.09295 0.6628 0.0
C2042 C 0.77963 0.05071 0.66946 0.0
C2043 C 0.77744 0.04171 0.65432 0.0
C2044 C 0.78757 0.05847 0.64346 0.0
C2045 C 0.7996 0.08388 0.64782 0.0
C2046 C 0.76899 0.03336 0.68133 0.0
C2047 C 0.78569 0.04955 0.62722 0.0
H2048 H 0.77659 0.96767 0.64402 0.0
H2049 H 0.70825 0.96682 0.63568 0.0
H2050 H 0.81536 0.02981 0.64738 0.0
H2051 H 0.80891 0.02483 0.66632 0.0
H2052 H 0.81276 0.00269 0.65486 0.0
H2053 H 0.70438 0.0016 0.64135 0.0
H2054 H 0.72618 0.02378 0.65614 0.0
H2055 H 0.73114 0.02911 0.63706 0.0
H2056 H 0.79345 0.08308 0.68512 0.0
H2057 H 0.80728 0.09665 0.63946 0.0
H2058 H 0.77724 0.02134 0.68186 0.0
H2059 H 0.7489 0.02116 0.67841 0.0
H2060 H 0.77222 0.04332 0.69259 0.0
H2061 H 0.79439 0.03796 0.62619 0.0
H2062 H 0.79467 0.06499 0.62018 0.0
H2063 H 0.7661 0.03788 0.62271 0.0
C2064 C 0.47106 0.35281 0.71465 0.0
C2065 C 0.46124 0.36743 0.71951 0.0
C2066 C 0.45569 0.3282 0.7087 0.0
C2067 C 0.42989 0.31802 0.70755 0.0
C2068 C 0.41986 0.33288 0.71204 0.0
C2069 C 0.43567 0.35741 0.71801 0.0
C2070 C 0.46706 0.31289 0.70409 0.0
C2071 C 0.39243 0.3227 0.71087 0.0
C2072 C 0.39014 0.25854 0.68222 0.0
C2073 C 0.38256 0.24096 0.69257 0.0
C2074 C 0.40542 0.28374 0.68693 0.0
C2075 C 0.41339 0.29148 0.70234 0.0
C2076 C 0.40582 0.27383 0.71283 0.0
C2077 C 0.39046 0.2488 0.70783 0.0
C2078 C 0.41306 0.30207 0.67543 0.0
C2079 C 0.41404 0.28139 0.72935 0.0
H2080 H 0.4908 0.36037 0.71596 0.0
H2081 H 0.42803 0.36875 0.72159 0.0
H2082 H 0.46169 0.29764 0.71129 0.0
H2083 H 0.4601 0.30442 0.69239 0.0
H2084 H 0.48744 0.32392 0.70499 0.0
H2085 H 0.38763 0.33703 0.71408 0.0
H2086 H 0.38414 0.31455 0.69925 0.0
H2087 H 0.38398 0.30773 0.71825 0.0
H2088 H 0.38408 0.25266 0.67041 0.0
H2089 H 0.38474 0.23535 0.7159 0.0
H2090 H 0.43338 0.31234 0.6757 0.0
H2091 H 0.40728 0.31579 0.67813 0.0
H2092 H 0.405 0.29308 0.6639 0.0
H2093 H 0.4344 0.29112 0.73128 0.0
H2094 H 0.40647 0.26537 0.73606 0.0
H2095 H 0.40816 0.29443 0.73352 0.0
C2096 C 0.67422 0.14021 0.72542 0.0
C2097 C 0.6692 0.12591 0.73757 0.0
C2098 C 0.69508 0.1465 0.7179 0.0
C2099 C 0.71097 0.13755 0.72219 0.0
C2100 C 0.706 0.12289 0.73428 0.0
C2101 C 0.68546 0.11761 0.74197 0.0
C2102 C 0.70006 0.1627 0.7053 0.0
C2103 C 0.72222 0.11254 0.73901 0.0
C2104 C 0.75016 0.13431 0.69263 0.0
C2105 C 0.77332 0.1545 0.69774 0.0
C2106 C 0.72984 0.12826 0.70067 0.0
C2107 C 0.7326 0.14326 0.71386 0.0
C2108 C 0.75592 0.16392 0.71893 0.0
C2109 C 0.77611 0.16902 0.71095 0.0
C2110 C 0.7055 0.10561 0.69516 0.0
C2111 C 0.75949 0.18081 0.73268 0.0
H2112 H 0.66168 0.14633 0.72159 0.0
H2113 H 0.68226 0.107 0.75148 0.0
H2114 H 0.71897 0.1788 0.70734 0.0
H2115 H 0.69889 0.15228 0.6946 0.0
H2116 H 0.68687 0.16952 0.704 0.0
H2117 H 0.71533 0.10071 0.74827 0.0
H2118 H 0.72338 0.10147 0.72934 0.0
H2119 H 0.74115 0.12775 0.74271 0.0
H2120 H 0.74806 0.12284 0.68253 0.0
H2121 H 0.79403 0.18468 0.71491 0.0
H2122 H 0.69148 0.11093 0.69234 0.0
H2123 H 0.69894 0.09313 0.70413 0.0
H2124 H 0.70669 0.09526 0.68511 0.0
H2125 H 0.74678 0.18818 0.73134 0.0
H2126 H 0.77862 0.19654 0.73485 0.0
H2127 H 0.755 0.17039 0.74264 0.0
C2128 C 0.90683 0.56774 0.72879 0.0
C2129 C 0.92271 0.56315 0.72071 0.0
C2130 C 0.89574 0.58045 0.72288 0.0
C2131 C 0.90073 0.58884 0.70857 0.0
C2132 C 0.91676 0.58429 0.70034 0.0
C2133 C 0.92753 0.57143 0.70651 0.0
C2134 C 0.87865 0.58488 0.73194 0.0
C2135 C 0.92265 0.59315 0.68509 0.0
C2136 C 0.85585 0.60386 0.68825 0.0
C2137 C 0.86768 0.62951 0.69159 0.0
C2138 C 0.86652 0.59036 0.69358 0.0
C2139 C 0.88957 0.60287 0.70237 0.0
C2140 C 0.90175 0.62878 0.70559 0.0
C2141 C 0.89064 0.64178 0.7002 0.0
C2142 C 0.85299 0.5627 0.68997 0.0
C2143 C 0.92642 0.64276 0.71489 0.0
H2144 H 0.90276 0.56102 0.73967 0.0
H2145 H 0.93996 0.56808 0.70029 0.0
H2146 H 0.88578 0.60497 0.7342 0.0
H2147 H 0.86028 0.57674 0.72551 0.0
H2148 H 0.87645 0.57686 0.74281 0.0
H2149 H 0.93522 0.58781 0.68007 0.0
H2150 H 0.90548 0.58544 0.6774 0.0
H2151 H 0.93134 0.61352 0.68595 0.0
H2152 H 0.83812 0.59424 0.68161 0.0
H2153 H 0.89999 0.66162 0.70278 0.0
H2154 H 0.84885 0.55367 0.70048 0.0
H2155 H 0.86472 0.55697 0.68424 0.0
H2156 H 0.83548 0.55583 0.68272 0.0
H2157 H 0.92477 0.63651 0.72625 0.0
H2158 H 0.93379 0.66299 0.716 0.0
H2159 H 0.9399 0.63891 0.70977 0.0
C2160 C 0.47746 0.95185 0.16997 0.0
C2161 C 0.46661 0.96016 0.18023 0.0
C2162 C 0.48326 0.96176 0.15625 0.0
C2163 C 0.47796 0.98039 0.15263 0.0
C2164 C 0.4666 0.98858 0.1628 0.0
C2165 C 0.46106 0.97837 0.17649 0.0
C2166 C 0.49528 0.95245 0.1457 0.0
C2167 C 0.46063 0.00838 0.1593 0.0
C2168 C 0.51532 0.02111 0.12372 0.0
C2169 C 0.49923 0.01001 0.11057 0.0
C2170 C 0.50838 0.01207 0.13756 0.0
C2171 C 0.48475 0.99148 0.13828 0.0
C2172 C 0.46816 0.98064 0.12511 0.0
C2173 C 0.47561 0.99002 0.11142 0.0
C2174 C 0.52663 0.02406 0.15134 0.0
C2175 C 0.44275 0.95878 0.12542 0.0
H2176 H 0.48139 0.93746 0.17265 0.0
H2177 H 0.45287 0.98503 0.18441 0.0
H2178 H 0.48388 0.9451 0.13474 0.0
H2179 H 0.51344 0.96787 0.14363 0.0
H2180 H 0.49797 0.93771 0.15013 0.0
H2181 H 0.45103 0.01211 0.16815 0.0
H2182 H 0.4778 0.02574 0.15808 0.0
H2183 H 0.44887 0.00289 0.14849 0.0
H2184 H 0.53366 0.03641 0.12311 0.0
H2185 H 0.46295 0.98161 0.10132 0.0
H2186 H 0.53161 0.01074 0.15566 0.0
H2187 H 0.51831 0.02932 0.16032 0.0
H2188 H 0.54371 0.04075 0.14906 0.0
H2189 H 0.44417 0.9428 0.12885 0.0
H2190 H 0.43164 0.95331 0.11435 0.0
H2191 H 0.43286 0.96304 0.1338 0.0
C2192 C 0.00017 0.47192 0.18058 0.0
C2193 C 0.98433 0.47489 0.18966 0.0
C2194 C 0.99644 0.47047 0.16494 0.0
C2195 C 0.97631 0.47192 0.15825 0.0
C2196 C 0.95954 0.47364 0.16732 0.0
C2197 C 0.96382 0.47521 0.18294 0.0
C2198 C 0.01482 0.46882 0.15566 0.0
C2199 C 0.93771 0.47496 0.16057 0.0
C2200 C 0.98295 0.50016 0.12157 0.0
C2201 C 0.96939 0.47929 0.11122 0.0
C2202 C 0.9856 0.49792 0.13686 0.0
C2203 C 0.97421 0.47421 0.14196 0.0
C2204 C 0.96071 0.45301 0.13154 0.0
C2205 C 0.95859 0.4558 0.11623 0.0
C2206 C 0.00045 0.52097 0.14759 0.0
C2207 C 0.94818 0.42747 0.1366 0.0
H2208 H 0.0162 0.47193 0.18573 0.0
H2209 H 0.95138 0.4772 0.18993 0.0
H2210 H 0.00526 0.4539 0.14633 0.0
H2211 H 0.0254 0.48635 0.15062 0.0
H2212 H 0.02796 0.46533 0.16241 0.0
H2213 H 0.92509 0.4737 0.169 0.0
H2214 H 0.94419 0.49265 0.15561 0.0
H2215 H 0.92726 0.45989 0.15142 0.0
H2216 H 0.99159 0.51831 0.11766 0.0
H2217 H 0.94798 0.43967 0.10822 0.0
H2218 H 0.01544 0.52 0.15411 0.0
H2219 H 0.98858 0.52248 0.1557 0.0
H2220 H 0.00869 0.53795 0.14175 0.0
H2221 H 0.96176 0.42427 0.14305 0.0
H2222 H 0.9389 0.41286 0.12705 0.0
H2223 H 0.93429 0.42572 0.14418 0.0
C2224 C 0.45836 0.48959 0.17257 0.0
C2225 C 0.4772 0.49751 0.18431 0.0
C2226 C 0.46281 0.48728 0.15764 0.0
C2227 C 0.48669 0.4931 0.15439 0.0
C2228 C 0.50566 0.50064 0.1662 0.0
C2229 C 0.50066 0.50268 0.18101 0.0
C2230 C 0.44212 0.47911 0.14532 0.0
C2231 C 0.53134 0.50695 0.16318 0.0
C2232 C 0.49598 0.46968 0.11688 0.0
C2233 C 0.50418 0.49058 0.10905 0.0
C2234 C 0.48985 0.4701 0.13157 0.0
C2235 C 0.4921 0.49198 0.13861 0.0
C2236 C 0.50019 0.51308 0.13073 0.0
C2237 C 0.50609 0.51211 0.11603 0.0
C2238 C 0.48112 0.44719 0.13959 0.0
C2239 C 0.50297 0.5368 0.13791 0.0
H2240 H 0.44026 0.48581 0.17503 0.0
H2241 H 0.5152 0.5084 0.19004 0.0
H2242 H 0.4466 0.49409 0.13801 0.0
H2243 H 0.43985 0.46293 0.13822 0.0
H2244 H 0.42436 0.47418 0.14976 0.0
H2245 H 0.54389 0.51204 0.17364 0.0
H2246 H 0.53087 0.49105 0.15678 0.0
H2247 H 0.53909 0.52259 0.15622 0.0
H2248 H 0.49414 0.45289 0.11145 0.0
H2249 H 0.51266 0.52838 0.11008 0.0
H2250 H 0.4628 0.44162 0.14336 0.0
H2251 H 0.49392 0.45105 0.14974 0.0
H2252 H 0.4798 0.43149 0.13241 0.0
H2253 H 0.48529 0.53345 0.14176 0.0
H2254 H 0.50892 0.55136 0.13013 0.0
H2255 H 0.51671 0.54376 0.14791 0.0
C2256 C 0.01684 0.49922 0.83805 0.0
C2257 C 0.00083 0.50618 0.83131 0.0
C2258 C 0.02105 0.50087 0.85367 0.0
C2259 C 0.00901 0.50977 0.86278 0.0
C2260 C 0.993 0.51704 0.85607 0.0
C2261 C 0.98906 0.51511 0.84042 0.0
C2262 C 0.03829 0.49298 0.86045 0.0
C2263 C 0.97983 0.52663 0.86542 0.0
C2264 C 0.00208 0.49276 0.90267 0.0
C2265 C 0.02144 0.51412 0.91073 0.0
C2266 C 0.99775 0.49112 0.88705 0.0
C2267 C 0.0131 0.51138 0.87934 0.0
C2268 C 0.0325 0.5331 0.88742 0.0
C2269 C 0.03645 0.53419 0.90303 0.0
C2270 C 0.97695 0.46762 0.87879 0.0
C2271 C 0.04911 0.55514 0.87959 0.0
H2272 H 0.02621 0.49258 0.83108 0.0
H2273 H 0.97636 0.52016 0.83529 0.0
H2274 H 0.05358 0.50859 0.86776 0.0
H2275 H 0.0284 0.47792 0.86757 0.0
H2276 H 0.0462 0.48645 0.8518 0.0
H2277 H 0.96838 0.53199 0.85847 0.0
H2278 H 0.96782 0.51231 0.87243 0.0
H2279 H 0.99336 0.54289 0.87313 0.0
H2280 H 0.99061 0.47711 0.90857 0.0
H2281 H 0.05124 0.55086 0.90924 0.0
H2282 H 0.98431 0.45951 0.87075 0.0
H2283 H 0.96408 0.47164 0.87221 0.0
H2284 H 0.96648 0.4537 0.88648 0.0
H2285 H 0.05862 0.54989 0.87142 0.0
H2286 H 0.06318 0.57074 0.88753 0.0
H2287 H 0.03805 0.56154 0.8732 0.0
C2288 C 0.54543 0.5251 0.84445 0.0
C2289 C 0.52564 0.51167 0.83332 0.0
C2290 C 0.54143 0.52841 0.85938 0.0
C2291 C 0.51708 0.51777 0.86329 0.0
C2292 C 0.49705 0.50487 0.85204 0.0
C2293 C 0.50157 0.50215 0.8372 0.0
C2294 C 0.56325 0.54252 0.87104 0.0
C2295 C 0.47079 0.49315 0.85578 0.0
C2296 C 0.50499 0.49972 0.90265 0.0
C2297 C 0.50088 0.51809 0.90904 0.0
C2298 C 0.51061 0.49964 0.88784 0.0
C2299 C 0.51243 0.51855 0.87925 0.0
C2300 C 0.50886 0.53748 0.88574 0.0
C2301 C 0.50291 0.53691 0.90055 0.0
C2302 C 0.51395 0.47893 0.88126 0.0
C2303 C 0.51104 0.55814 0.87699 0.0
H2304 H 0.56408 0.53236 0.84162 0.0
H2305 H 0.48618 0.49224 0.82863 0.0
H2306 H 0.56138 0.55673 0.87782 0.0
H2307 H 0.56401 0.52977 0.8788 0.0
H2308 H 0.5809 0.55168 0.86598 0.0
H2309 H 0.45731 0.4847 0.84564 0.0
H2310 H 0.46724 0.47863 0.86332 0.0
H2311 H 0.46762 0.50707 0.86182 0.0
H2312 H 0.50311 0.48497 0.90913 0.0
H2313 H 0.49992 0.55123 0.90553 0.0
H2314 H 0.53219 0.4865 0.87698 0.0
H2315 H 0.49983 0.46845 0.87163 0.0
H2316 H 0.51245 0.46593 0.88954 0.0
H2317 H 0.52913 0.56738 0.87248 0.0
H2318 H 0.50902 0.57215 0.88392 0.0
H2319 H 0.4967 0.55059 0.86729 0.0
C2320 C 0.5067 0.0125 0.84039 0.0
C2321 C 0.5306 0.03092 0.83836 0.0
C2322 C 0.50098 0.00318 0.8543 0.0
C2323 C 0.51961 0.01239 0.86647 0.0
C2324 C 0.54392 0.03041 0.86438 0.0
C2325 C 0.54912 0.03949 0.85037 0.0
C2326 C 0.47484 0.98392 0.85605 0.0
C2327 C 0.56431 0.04065 0.87708 0.0
C2328 C 0.50033 0.00883 0.90583 0.0
C2329 C 0.50144 0.98829 0.9102 0.0
C2330 C 0.50618 0.01682 0.89165 0.0
C2331 C 0.5134 0.00402 0.88156 0.0
C2332 C 0.51455 0.98326 0.88588 0.0
C2333 C 0.5085 0.97561 0.90014 0.0
C2334 C 0.50454 0.03894 0.88743 0.0
C2335 C 0.52231 0.96923 0.87548 0.0
H2336 H 0.49237 0.00547 0.83111 0.0
H2337 H 0.56756 0.0539 0.84897 0.0
H2338 H 0.47435 0.96753 0.8604 0.0
H2339 H 0.46724 0.99139 0.86434 0.0
H2340 H 0.46272 0.97794 0.84534 0.0
H2341 H 0.5825 0.05342 0.8734 0.0
H2342 H 0.56038 0.05075 0.88602 0.0
H2343 H 0.56536 0.02543 0.8821 0.0
H2344 H 0.49456 0.01851 0.91347 0.0
H2345 H 0.50967 0.9599 0.90351 0.0
H2346 H 0.49126 0.03365 0.87732 0.0
H2347 H 0.52266 0.05345 0.88461 0.0
H2348 H 0.49866 0.04687 0.89656 0.0
H2349 H 0.50982 0.96214 0.86491 0.0
H2350 H 0.52222 0.95345 0.88052 0.0
H2351 H 0.54108 0.98174 0.8725 0.0
C2352 C 0.12052 0.29569 0.50566 0.0
C2353 C 0.13954 0.29993 0.51654 0.0
C2354 C 0.12565 0.30578 0.49191 0.0
C2355 C 0.15038 0.32029 0.48891 0.0
C2356 C 0.16965 0.32521 0.49999 0.0
C2357 C 0.164 0.31511 0.51368 0.0
C2358 C 0.1046 0.3003 0.48042 0.0
C2359 C 0.19627 0.34057 0.49724 0.0
C2360 C 0.16518 0.32351 0.44855 0.0
C2361 C 0.16943 0.34702 0.44583 0.0
C2362 C 0.15872 0.31453 0.46246 0.0
C2363 C 0.15621 0.3293 0.47393 0.0
C2364 C 0.16003 0.35286 0.4712 0.0
C2365 C 0.16668 0.36148 0.45721 0.0
C2366 C 0.15485 0.28931 0.46492 0.0
C2367 C 0.15742 0.3691 0.48313 0.0
H2368 H 0.10158 0.28384 0.50769 0.0
H2369 H 0.17883 0.31893 0.52212 0.0
H2370 H 0.10685 0.31768 0.47652 0.0
H2371 H 0.10458 0.28892 0.47051 0.0
H2372 H 0.08649 0.29029 0.48489 0.0
H2373 H 0.20907 0.34347 0.50722 0.0
H2374 H 0.20021 0.33136 0.48779 0.0
H2375 H 0.20005 0.35882 0.49403 0.0
H2376 H 0.16676 0.31199 0.43975 0.0
H2377 H 0.17016 0.37976 0.45528 0.0
H2378 H 0.13613 0.27745 0.46818 0.0
H2379 H 0.16812 0.29092 0.47425 0.0
H2380 H 0.1572 0.28001 0.45479 0.0
H2381 H 0.13902 0.35907 0.48719 0.0
H2382 H 0.15987 0.38644 0.47901 0.0
H2383 H 0.17125 0.3739 0.49286 0.0
C2384 C 0.6625 0.80805 0.51549 0.0
C2385 C 0.654 0.82063 0.52453 0.0
C2386 C 0.65805 0.8055 0.49985 0.0
C2387 C 0.645 0.81599 0.49308 0.0
C2388 C 0.6359 0.82823 0.50212 0.0
C2389 C 0.64042 0.83032 0.51774 0.0
C2390 C 0.66795 0.79222 0.49057 0.0
C2391 C 0.62194 0.8397 0.49527 0.0
C2392 C 0.65701 0.83407 0.45372 0.0
C2393 C 0.63602 0.81502 0.44521 0.0
C2394 C 0.6602 0.83451 0.46931 0.0
C2395 C 0.64201 0.81533 0.47653 0.0
C2396 C 0.62095 0.79583 0.46798 0.0
C2397 C 0.61814 0.79596 0.4524 0.0
C2398 C 0.68284 0.85571 0.47807 0.0
C2399 C 0.60133 0.77494 0.47531 0.0
H2400 H 0.67331 0.80081 0.52062 0.0
H2401 H 0.63348 0.83972 0.52466 0.0
H2402 H 0.65308 0.77771 0.48245 0.0
H2403 H 0.68225 0.8054 0.48401 0.0
H2404 H 0.67613 0.78356 0.49756 0.0
H2405 H 0.61528 0.84774 0.50387 0.0
H2406 H 0.63397 0.85448 0.48853 0.0
H2407 H 0.60593 0.82571 0.48759 0.0
H2408 H 0.67069 0.84901 0.44822 0.0
H2409 H 0.602 0.7811 0.44582 0.0
H2410 H 0.69309 0.84867 0.48466 0.0
H2411 H 0.67738 0.86572 0.48613 0.0
H2412 H 0.69538 0.86899 0.47072 0.0
H2413 H 0.60955 0.76583 0.48179 0.0
H2414 H 0.58636 0.76088 0.46702 0.0
H2415 H 0.59322 0.78224 0.48332 0.0
C2416 C 0.15078 0.84771 0.50749 0.0
C2417 C 0.14012 0.82774 0.51608 0.0
C2418 C 0.1553 0.84449 0.49271 0.0
C2419 C 0.14909 0.8207 0.48637 0.0
C2420 C 0.13813 0.80039 0.49493 0.0
C2421 C 0.13367 0.80414 0.50969 0.0
C2422 C 0.16678 0.86658 0.48391 0.0
C2423 C 0.13141 0.7748 0.48855 0.0
C2424 C 0.14272 0.81131 0.44393 0.0
C2425 C 0.166 0.81518 0.44116 0.0
C2426 C 0.13672 0.8124 0.45859 0.0
C2427 C 0.15436 0.81732 0.4708 0.0
C2428 C 0.17761 0.82053 0.4681 0.0
C2429 C 0.18318 0.81949 0.45331 0.0
C2430 C 0.11173 0.80892 0.46102 0.0
C2431 C 0.1969 0.82579 0.48083 0.0
H2432 H 0.15541 0.86592 0.5123 0.0
H2433 H 0.12556 0.78869 0.51634 0.0
H2434 H 0.18451 0.86937 0.48044 0.0
H2435 H 0.15461 0.86335 0.47355 0.0
H2436 H 0.17021 0.88377 0.49043 0.0
H2437 H 0.12268 0.76091 0.49658 0.0
H2438 H 0.11857 0.76917 0.47819 0.0
H2439 H 0.14812 0.77468 0.48543 0.0
H2440 H 0.12917 0.80751 0.43459 0.0
H2441 H 0.20129 0.82277 0.45129 0.0
H2442 H 0.11384 0.82612 0.46671 0.0
H2443 H 0.10243 0.79414 0.46842 0.0
H2444 H 0.0997 0.8041 0.45035 0.0
H2445 H 0.20272 0.84391 0.48708 0.0
H2446 H 0.2134 0.8261 0.47688 0.0
H2447 H 0.18918 0.81166 0.48882 0.0
C2448 C 0.68736 0.83532 0.17054 0.0
C2449 C 0.66607 0.83419 0.16385 0.0
C2450 C 0.69154 0.83651 0.18614 0.0
C2451 C 0.67387 0.83627 0.19521 0.0
C2452 C 0.65239 0.83524 0.18851 0.0
C2453 C 0.64881 0.83432 0.1729 0.0
C2454 C 0.7148 0.8379 0.19292 0.0
C2455 C 0.63301 0.83468 0.1978 0.0
C2456 C 0.67257 0.81489 0.23388 0.0
C2457 C 0.68415 0.83732 0.24302 0.0
C2458 C 0.66905 0.81428 0.21828 0.0
C2459 C 0.6776 0.83667 0.2117 0.0
C2460 C 0.68946 0.85939 0.22088 0.0
C2461 C 0.69246 0.85943 0.23646 0.0
C2462 C 0.65603 0.78968 0.20886 0.0
C2463 C 0.69906 0.88364 0.21424 0.0
H2464 H 0.70081 0.83542 0.16355 0.0
H2465 H 0.63218 0.83312 0.16773 0.0
H2466 H 0.72507 0.85448 0.20113 0.0
H2467 H 0.71015 0.82159 0.19908 0.0
H2468 H 0.72702 0.83864 0.18434 0.0
H2469 H 0.61749 0.83412 0.19086 0.0
H2470 H 0.62564 0.81826 0.20413 0.0
H2471 H 0.64122 0.85118 0.20612 0.0
H2472 H 0.66595 0.79778 0.23897 0.0
H2473 H 0.70167 0.8768 0.24352 0.0
H2474 H 0.66818 0.78885 0.20073 0.0
H2475 H 0.6394 0.78746 0.20232 0.0
H2476 H 0.65041 0.77397 0.21573 0.0
H2477 H 0.71241 0.88544 0.20624 0.0
H2478 H 0.7082 0.89969 0.22292 0.0
H2479 H 0.68374 0.88425 0.20788 0.0
C2480 C 0.18422 0.83172 0.17991 0.0
C2481 C 0.20167 0.85103 0.17264 0.0
C2482 C 0.17973 0.83582 0.19456 0.0
C2483 C 0.19328 0.85976 0.20228 0.0
C2484 C 0.21132 0.87927 0.19517 0.0
C2485 C 0.21523 0.8747 0.1804 0.0
C2486 C 0.1603 0.8145 0.20173 0.0
C2487 C 0.22628 0.90498 0.20312 0.0
C2488 C 0.16247 0.87127 0.23419 0.0
C2489 C 0.17317 0.86591 0.2465 0.0
C2490 C 0.16956 0.87033 0.2198 0.0
C2491 C 0.18805 0.8642 0.21769 0.0
C2492 C 0.19989 0.86011 0.23017 0.0
C2493 C 0.1922 0.86083 0.2444 0.0
C2494 C 0.15642 0.87473 0.20676 0.0
C2495 C 0.21988 0.85378 0.22842 0.0
H2496 H 0.17405 0.81326 0.17416 0.0
H2497 H 0.22862 0.88976 0.17484 0.0
H2498 H 0.16857 0.81165 0.21213 0.0
H2499 H 0.14594 0.81873 0.20491 0.0
H2500 H 0.15134 0.79703 0.19418 0.0
H2501 H 0.2403 0.91788 0.19627 0.0
H2502 H 0.214 0.91226 0.20586 0.0
H2503 H 0.23571 0.90459 0.21385 0.0
H2504 H 0.14812 0.87571 0.23573 0.0
H2505 H 0.20044 0.85638 0.25377 0.0
H2506 H 0.14555 0.85739 0.19922 0.0
H2507 H 0.16989 0.88865 0.20013 0.0
H2508 H 0.1438 0.88112 0.21042 0.0
H2509 H 0.21184 0.83511 0.22236 0.0
H2510 H 0.22921 0.85405 0.23938 0.0
H2511 H 0.23384 0.86691 0.22166 0.0
C2512 C 0.17328 0.35262 0.17378 0.0
C2513 C 0.19646 0.37283 0.17226 0.0
C2514 C 0.16745 0.34303 0.18761 0.0
C2515 C 0.18521 0.3539 0.20025 0.0
C2516 C 0.20882 0.37395 0.19873 0.0
C2517 C 0.21417 0.38315 0.18475 0.0
C2518 C 0.14214 0.32151 0.18874 0.0
C2519 C 0.22824 0.38609 0.21195 0.0
C2520 C 0.16256 0.3466 0.23882 0.0
C2521 C 0.1667 0.32795 0.24358 0.0
C2522 C 0.16851 0.3552 0.22476 0.0
C2523 C 0.17879 0.34486 0.21518 0.0
C2524 C 0.18289 0.32594 0.21986 0.0
C2525 C 0.17683 0.31773 0.23401 0.0
C2526 C 0.1638 0.37536 0.22017 0.0
C2527 C 0.19383 0.31447 0.20997 0.0
H2528 H 0.15962 0.34433 0.16413 0.0
H2529 H 0.23202 0.39892 0.18371 0.0
H2530 H 0.14359 0.30618 0.19328 0.0
H2531 H 0.1325 0.3271 0.19662 0.0
H2532 H 0.13074 0.31457 0.17775 0.0
H2533 H 0.24602 0.40078 0.20877 0.0
H2534 H 0.22186 0.39435 0.22057 0.0
H2535 H 0.23137 0.37216 0.21716 0.0
H2536 H 0.15444 0.35436 0.24605 0.0
H2537 H 0.18041 0.30357 0.23767 0.0
H2538 H 0.15098 0.36878 0.20975 0.0
H2539 H 0.18121 0.39147 0.21774 0.0
H2540 H 0.15584 0.38155 0.22895 0.0
H2541 H 0.18225 0.30653 0.19909 0.0
H2542 H 0.19554 0.29969 0.21517 0.0
H2543 H 0.21232 0.3288 0.20754 0.0
C2544 C 0.78758 0.63072 0.83746 0.0
C2545 C 0.80541 0.64019 0.8499 0.0
C2546 C 0.7932 0.64005 0.82354 0.0
C2547 C 0.81725 0.65928 0.822 0.0
C2548 C 0.8351 0.66947 0.83462 0.0
C2549 C 0.82895 0.65984 0.8484 0.0
C2550 C 0.77365 0.62873 0.81036 0.0
C2551 C 0.86091 0.69006 0.83346 0.0
C2552 C 0.83985 0.66413 0.7835 0.0
C2553 C 0.83735 0.68363 0.77854 0.0
C2554 C 0.83337 0.65607 0.7976 0.0
C2555 C 0.82416 0.66778 0.80702 0.0
C2556 C 0.82169 0.68754 0.80212 0.0
C2557 C 0.82833 0.69524 0.78794 0.0
C2558 C 0.83642 0.63502 0.80244 0.0
C2559 C 0.81186 0.70042 0.81181 0.0
H2560 H 0.76943 0.61538 0.83846 0.0
H2561 H 0.84272 0.66754 0.85801 0.0
H2562 H 0.77189 0.64329 0.80495 0.0
H2563 H 0.77902 0.61925 0.80187 0.0
H2564 H 0.75542 0.61516 0.81364 0.0
H2565 H 0.87222 0.69685 0.84448 0.0
H2566 H 0.87005 0.6835 0.82577 0.0
H2567 H 0.86046 0.70573 0.82866 0.0
H2568 H 0.84713 0.65529 0.7764 0.0
H2569 H 0.82607 0.71012 0.78411 0.0
H2570 H 0.81847 0.61969 0.80488 0.0
H2571 H 0.8491 0.64115 0.8129 0.0
H2572 H 0.84377 0.62785 0.79379 0.0
H2573 H 0.79304 0.68699 0.81429 0.0
H2574 H 0.81125 0.71561 0.80642 0.0
H2575 H 0.8235 0.70812 0.82268 0.0
C2576 C 0.30173 0.15033 0.85207 0.0
C2577 C 0.32226 0.15014 0.85886 0.0
C2578 C 0.29828 0.1501 0.83649 0.0
C2579 C 0.31595 0.14993 0.82758 0.0
C2580 C 0.33651 0.14935 0.83437 0.0
C2581 C 0.33937 0.14936 0.84994 0.0
C2582 C 0.27597 0.15043 0.8296 0.0
C2583 C 0.35585 0.14941 0.82524 0.0
C2584 C 0.29942 0.13089 0.78581 0.0
C2585 C 0.30944 0.15383 0.7801 0.0
C2586 C 0.30112 0.12931 0.80127 0.0
C2587 C 0.3134 0.15122 0.8112 0.0
C2588 C 0.32364 0.17444 0.80547 0.0
C2589 C 0.3214 0.17546 0.78997 0.0
C2590 C 0.28975 0.10425 0.807 0.0
C2591 C 0.33715 0.1982 0.81571 0.0
H2592 H 0.2884 0.15074 0.85896 0.0
H2593 H 0.35544 0.14956 0.85519 0.0
H2594 H 0.28182 0.16762 0.82416 0.0
H2595 H 0.26568 0.13476 0.82077 0.0
H2596 H 0.26338 0.14932 0.83801 0.0
H2597 H 0.37035 0.14818 0.83219 0.0
H2598 H 0.34727 0.1337 0.81635 0.0
H2599 H 0.36468 0.16656 0.81961 0.0
H2600 H 0.28992 0.11416 0.77817 0.0
H2601 H 0.32933 0.1932 0.78554 0.0
H2602 H 0.27616 0.10248 0.81482 0.0
H2603 H 0.30412 0.10208 0.81336 0.0
H2604 H 0.28041 0.08901 0.79781 0.0
H2605 H 0.32484 0.19899 0.82374 0.0
H2606 H 0.34404 0.21472 0.80946 0.0
H2607 H 0.35299 0.19895 0.82236 0.0
C2608 C 0.79951 0.13995 0.8439 0.0
C2609 C 0.80062 0.16231 0.8483 0.0
C2610 C 0.8038 0.13485 0.82934 0.0
C2611 C 0.80915 0.15248 0.81894 0.0
C2612 C 0.80957 0.17476 0.82321 0.0
C2613 C 0.80537 0.17943 0.83784 0.0
C2614 C 0.80335 0.11096 0.82522 0.0
C2615 C 0.81496 0.19393 0.81241 0.0
C2616 C 0.84662 0.15573 0.7869 0.0
C2617 C 0.82851 0.14519 0.77462 0.0
C2618 C 0.84043 0.1573 0.80147 0.0
C2619 C 0.81553 0.14834 0.80382 0.0
C2620 C 0.79705 0.13698 0.79156 0.0
C2621 C 0.80375 0.13545 0.77712 0.0
C2622 C 0.86068 0.16946 0.81425 0.0
C2623 C 0.77029 0.12723 0.79363 0.0
H2624 H 0.796 0.12675 0.85199 0.0
H2625 H 0.80586 0.19657 0.84114 0.0
H2626 H 0.79071 0.10111 0.8149 0.0
H2627 H 0.82194 0.11491 0.82281 0.0
H2628 H 0.79748 0.09859 0.83429 0.0
H2629 H 0.81345 0.20975 0.81727 0.0
H2630 H 0.83382 0.20102 0.80915 0.0
H2631 H 0.80207 0.18555 0.80204 0.0
H2632 H 0.86582 0.16365 0.7851 0.0
H2633 H 0.78959 0.12693 0.76773 0.0
H2634 H 0.85645 0.1574 0.82345 0.0
H2635 H 0.862 0.18692 0.81884 0.0
H2636 H 0.87884 0.17368 0.81074 0.0
H2637 H 0.76467 0.11428 0.80237 0.0
H2638 H 0.75805 0.11759 0.78312 0.0
H2639 H 0.76753 0.1427 0.7975 0.0
C2640 C 0.35978 0.20621 0.5067 0.0
C2641 C 0.33999 0.1835 0.50036 0.0
C2642 C 0.36639 0.21089 0.52225 0.0
C2643 C 0.35275 0.19249 0.5316 0.0
C2644 C 0.3325 0.1697 0.52526 0.0
C2645 C 0.32642 0.16548 0.50972 0.0
C2646 C 0.38819 0.23532 0.52863 0.0
C2647 C 0.31736 0.14967 0.53487 0.0
C2648 C 0.38001 0.18928 0.56954 0.0
C2649 C 0.36874 0.19791 0.57928 0.0
C2650 C 0.37591 0.18858 0.55398 0.0
C2651 C 0.35996 0.19648 0.548 0.0
C2652 C 0.3493 0.20614 0.55774 0.0
C2653 C 0.35387 0.2068 0.57328 0.0
C2654 C 0.38769 0.17823 0.54395 0.0
C2655 C 0.3322 0.21475 0.55176 0.0
H2656 H 0.37038 0.22012 0.49948 0.0
H2657 H 0.31084 0.14808 0.50487 0.0
H2658 H 0.38267 0.24438 0.5373 0.0
H2659 H 0.40258 0.23228 0.53416 0.0
H2660 H 0.39629 0.24802 0.5199 0.0
H2661 H 0.30177 0.1333 0.52821 0.0
H2662 H 0.32913 0.14371 0.54089 0.0
H2663 H 0.30994 0.15685 0.54345 0.0
H2664 H 0.39123 0.18202 0.57402 0.0
H2665 H 0.3454 0.21385 0.58074 0.0
H2666 H 0.39684 0.19085 0.53538 0.0
H2667 H 0.37333 0.16037 0.53794 0.0
H2668 H 0.40147 0.17517 0.55033 0.0
H2669 H 0.34083 0.22795 0.54337 0.0
H2670 H 0.32713 0.22372 0.56077 0.0
H2671 H 0.31513 0.19877 0.54601 0.0
C2672 C 0.87979 0.18721 0.51124 0.0
C2673 C 0.86135 0.18068 0.49943 0.0
C2674 C 0.87523 0.18927 0.52618 0.0
C2675 C 0.85162 0.18451 0.52937 0.0
C2676 C 0.83328 0.17893 0.51748 0.0
C2677 C 0.8384 0.17721 0.50267 0.0
C2678 C 0.89533 0.19551 0.53857 0.0
C2679 C 0.80788 0.17375 0.52041 0.0
C2680 C 0.82958 0.16041 0.56637 0.0
C2681 C 0.83195 0.18134 0.5745 0.0
C2682 C 0.83615 0.16129 0.55172 0.0
C2683 C 0.84553 0.18372 0.5451 0.0
C2684 C 0.84834 0.20502 0.55333 0.0
C2685 C 0.84139 0.20355 0.56792 0.0
C2686 C 0.83266 0.1381 0.54325 0.0
C2687 C 0.85853 0.22931 0.54669 0.0
H2688 H 0.89749 0.18972 0.50886 0.0
H2689 H 0.82422 0.17263 0.49359 0.0
H2690 H 0.89752 0.21072 0.54661 0.0
H2691 H 0.89027 0.17927 0.54487 0.0
H2692 H 0.91328 0.201 0.53423 0.0
H2693 H 0.79614 0.17104 0.50993 0.0
H2694 H 0.79874 0.15689 0.52628 0.0
H2695 H 0.8091 0.18915 0.52783 0.0
H2696 H 0.82207 0.14316 0.57137 0.0
H2697 H 0.84354 0.21984 0.57426 0.0
H2698 H 0.85037 0.14129 0.53951 0.0
H2699 H 0.81958 0.13306 0.53307 0.0
H2700 H 0.82554 0.12227 0.5501 0.0
H2701 H 0.87687 0.2347 0.54302 0.0
H2702 H 0.86032 0.24435 0.55475 0.0
H2703 H 0.84637 0.22743 0.53663 0.0
C2704 C 0.83798 0.68855 0.50928 0.0
C2705 C 0.86234 0.7047 0.50665 0.0
C2706 C 0.83241 0.67859 0.52302 0.0
C2707 C 0.85167 0.68469 0.53439 0.0
C2708 C 0.87635 0.70035 0.53167 0.0
C2709 C 0.88139 0.71024 0.51786 0.0
C2710 C 0.80585 0.66197 0.52548 0.0
C2711 C 0.89741 0.70715 0.54348 0.0
C2712 C 0.83587 0.68036 0.57456 0.0
C2713 C 0.83331 0.65752 0.57745 0.0
C2714 C 0.84199 0.68945 0.56065 0.0
C2715 C 0.84586 0.67548 0.54933 0.0
C2716 C 0.84364 0.65257 0.55221 0.0
C2717 C 0.83733 0.64383 0.56621 0.0
C2718 C 0.84415 0.71396 0.55802 0.0
C2719 C 0.84771 0.63719 0.54044 0.0
H2720 H 0.82316 0.68375 0.5006 0.0
H2721 H 0.90024 0.72288 0.51601 0.0
H2722 H 0.80304 0.64406 0.52875 0.0
H2723 H 0.80093 0.67051 0.5348 0.0
H2724 H 0.79308 0.65842 0.51534 0.0
H2725 H 0.91559 0.7183 0.5393 0.0
H2726 H 0.89617 0.71786 0.5533 0.0
H2727 H 0.89631 0.69026 0.54743 0.0
H2728 H 0.83327 0.69129 0.58326 0.0
H2729 H 0.83515 0.62606 0.56827 0.0
H2730 H 0.83078 0.71146 0.5485 0.0
H2731 H 0.86277 0.72682 0.55499 0.0
H2732 H 0.84071 0.72262 0.56801 0.0
H2733 H 0.83406 0.6318 0.53052 0.0
H2734 H 0.84612 0.6202 0.54461 0.0
H2735 H 0.8662 0.64813 0.53664 0.0
loop_
_geom_bond_atom_site_label_1
_geom_bond_atom_site_label_2
_geom_bond_distance
_geom_bond_site_symmetry_2
_ccdc_geom_bond_type
C0 C1 1.384 . S
C0 H13 0.947 . S
C0 C35 1.382 . S
C1 C0 1.384 . S
C1 C2 1.378 . S
C2 C1 1.378 . S
C2 C3 1.378 . S
C2 H14 0.952 . S
C3 C2 1.378 . S
C3 H15 0.950 . S
C3 C34 1.383 . S
H4 C23 0.947 . S
H5 C24 0.946 . S
H6 C26 0.953 . S
H7 C27 0.945 . S
H8 C29 0.952 . S
H9 C30 0.949 . S
H10 C32 0.950 . S
H11 C33 0.948 . S
H12 C35 0.951 . S
H13 C0 0.947 . S
H14 C2 0.952 . S
H15 C3 0.950 . S
N16 C19 1.382 . S
N16 C21 1.363 . S
N17 C19 1.371 . S
N17 C20 1.372 . S
N18 C20 1.361 . S
N18 C21 1.377 . S
C19 N16 1.382 . S
C19 N17 1.371 . S
C19 C22 1.480 . S
C20 N17 1.372 . S
C20 N18 1.361 . S
C20 C28 1.457 . S
C21 N16 1.363 . S
C21 N18 1.377 . S
C21 C34 1.479 . S
C22 C19 1.480 . S
C22 C23 1.383 . S
C22 C27 1.385 . S
C23 H4 0.947 . S
C23 C22 1.383 . S
C23 C24 1.388 . S
C24 H5 0.946 . S
C24 C23 1.388 . S
C24 C25 1.384 . S
C25 C24 1.384 . S
C25 C26 1.377 . S
C26 H6 0.953 . S
C26 C25 1.377 . S
C26 C27 1.369 . S
C27 H7 0.945 . S
C27 C22 1.385 . S
C27 C26 1.369 . S
C28 C20 1.457 . S
C28 C29 1.372 . S
C28 C33 1.364 . S
C29 H8 0.952 . S
C29 C28 1.372 . S
C29 C30 1.389 . S
C30 H9 0.949 . S
C30 C29 1.389 . S
C30 C31 1.387 . S
C31 C30 1.387 . S
C31 C32 1.372 . S
C32 H10 0.950 . S
C32 C31 1.372 . S
C32 C33 1.379 . S
C33 H11 0.948 . S
C33 C28 1.364 . S
C33 C32 1.379 . S
C34 C3 1.383 . S
C34 C21 1.479 . S
C34 C35 1.398 . S
C35 C0 1.382 . S
C35 H12 0.951 . S
C35 C34 1.398 . S
C36 C37 1.384 . S
C36 H49 0.947 . S
C36 C71 1.382 . S
C37 C36 1.384 . S
C37 C38 1.378 . S
C38 C37 1.378 . S
C38 C39 1.378 . S
C38 H50 0.952 . S
C39 C38 1.378 . S
C39 H51 0.950 . S
C39 C70 1.383 . S
H40 C59 0.947 . S
H41 C60 0.946 . S
H42 C62 0.953 . S
H43 C63 0.945 . S
H44 C65 0.952 . S
H45 C66 0.949 . S
H46 C68 0.950 . S
H47 C69 0.948 . S
H48 C71 0.951 . S
H49 C36 0.947 . S
H50 C38 0.952 . S
H51 C39 0.950 . S
N52 C55 1.382 . S
N52 C57 1.363 . S
N53 C55 1.371 . S
N53 C56 1.372 . S
N54 C56 1.361 . S
N54 C57 1.377 . S
C55 N52 1.382 . S
C55 N53 1.371 . S
C55 C58 1.480 . S
C56 N53 1.372 . S
C56 N54 1.361 . S
C56 C64 1.457 . S
C57 N52 1.363 . S
C57 N54 1.377 . S
C57 C70 1.479 . S
C58 C55 1.480 . S
C58 C59 1.383 . S
C58 C63 1.385 . S
C59 H40 0.947 . S
C59 C58 1.383 . S
C59 C60 1.388 . S
C60 H41 0.946 . S
C60 C59 1.388 . S
C60 C61 1.384 . S
C61 C60 1.384 . S
C61 C62 1.377 . S
C62 H42 0.953 . S
C62 C61 1.377 . S
C62 C63 1.369 . S
C63 H43 0.945 . S
C63 C58 1.385 . S
C63 C62 1.369 . S
C64 C56 1.457 . S
C64 C65 1.372 . S
C64 C69 1.364 . S
C65 H44 0.952 . S
C65 C64 1.372 . S
C65 C66 1.389 . S
C66 H45 0.949 . S
C66 C65 1.389 . S
C66 C67 1.387 . S
C67 C66 1.387 . S
C67 C68 1.372 . S
C68 H46 0.950 . S
C68 C67 1.372 . S
C68 C69 1.379 . S
C69 H47 0.948 . S
C69 C64 1.364 . S
C69 C68 1.379 . S
C70 C39 1.383 . S
C70 C57 1.479 . S
C70 C71 1.398 . S
C71 C36 1.382 . S
C71 H48 0.951 . S
C71 C70 1.398 . S
C72 C73 1.384 . S
C72 H85 0.947 . S
C72 C107 1.382 . S
C73 C72 1.384 . S
C73 C74 1.378 . S
C74 C73 1.378 . S
C74 C75 1.378 . S
C74 H86 0.952 . S
C75 C74 1.378 . S
C75 H87 0.950 . S
C75 C106 1.383 . S
H76 C95 0.947 . S
H77 C96 0.946 . S
H78 C98 0.953 . S
H79 C99 0.945 . S
H80 C101 0.952 . S
H81 C102 0.949 . S
H82 C104 0.950 . S
H83 C105 0.948 . S
H84 C107 0.951 . S
H85 C72 0.947 . S
H86 C74 0.952 . S
H87 C75 0.950 . S
N88 C91 1.382 . S
N88 C93 1.363 . S
N89 C91 1.371 . S
N89 C92 1.372 . S
N90 C92 1.361 . S
N90 C93 1.377 . S
C91 N88 1.382 . S
C91 N89 1.371 . S
C91 C94 1.480 . S
C92 N89 1.372 . S
C92 N90 1.361 . S
C92 C100 1.457 . S
C93 N88 1.363 . S
C93 N90 1.377 . S
C93 C106 1.479 . S
C94 C91 1.480 . S
C94 C95 1.383 . S
C94 C99 1.385 . S
C95 H76 0.947 . S
C95 C94 1.383 . S
C95 C96 1.388 . S
C96 H77 0.946 . S
C96 C95 1.388 . S
C96 C97 1.384 . S
C97 C96 1.384 . S
C97 C98 1.377 . S
C98 H78 0.953 . S
C98 C97 1.377 . S
C98 C99 1.369 . S
C99 H79 0.945 . S
C99 C94 1.385 . S
C99 C98 1.369 . S
C100 C92 1.457 . S
C100 C101 1.372 . S
C100 C105 1.364 . S
C101 H80 0.952 . S
C101 C100 1.372 . S
C101 C102 1.389 . S
C102 H81 0.949 . S
C102 C101 1.389 . S
C102 C103 1.387 . S
C103 C102 1.387 . S
C103 C104 1.372 . S
C104 H82 0.950 . S
C104 C103 1.372 . S
C104 C105 1.379 . S
C105 H83 0.948 . S
C105 C100 1.364 . S
C105 C104 1.379 . S
C106 C75 1.383 . S
C106 C93 1.479 . S
C106 C107 1.398 . S
C107 C72 1.382 . S
C107 H84 0.951 . S
C107 C106 1.398 . S
C108 C109 1.384 . S
C108 H121 0.947 . S
C108 C143 1.382 . S
C109 C108 1.384 . S
C109 C110 1.378 . S
C110 C109 1.378 . S
C110 C111 1.378 . S
C110 H122 0.952 . S
C111 C110 1.378 . S
C111 H123 0.950 . S
C111 C142 1.383 . S
H112 C131 0.947 . S
H113 C132 0.946 . S
H114 C134 0.953 . S
H115 C135 0.945 . S
H116 C137 0.952 . S
H117 C138 0.949 . S
H118 C140 0.950 . S
H119 C141 0.948 . S
H120 C143 0.951 . S
H121 C108 0.947 . S
H122 C110 0.952 . S
H123 C111 0.950 . S
N124 C127 1.382 . S
N124 C129 1.363 . S
N125 C127 1.371 . S
N125 C128 1.372 . S
N126 C128 1.361 . S
N126 C129 1.377 . S
C127 N124 1.382 . S
C127 N125 1.371 . S
C127 C130 1.480 . S
C128 N125 1.372 . S
C128 N126 1.361 . S
C128 C136 1.457 . S
C129 N124 1.363 . S
C129 N126 1.377 . S
C129 C142 1.479 . S
C130 C127 1.480 . S
C130 C131 1.383 . S
C130 C135 1.385 . S
C131 H112 0.947 . S
C131 C130 1.383 . S
C131 C132 1.388 . S
C132 H113 0.946 . S
C132 C131 1.388 . S
C132 C133 1.384 . S
C133 C132 1.384 . S
C133 C134 1.377 . S
C134 H114 0.953 . S
C134 C133 1.377 . S
C134 C135 1.369 . S
C135 H115 0.945 . S
C135 C130 1.385 . S
C135 C134 1.369 . S
C136 C128 1.457 . S
C136 C137 1.372 . S
C136 C141 1.364 . S
C137 H116 0.952 . S
C137 C136 1.372 . S
C137 C138 1.389 . S
C138 H117 0.949 . S
C138 C137 1.389 . S
C138 C139 1.387 . S
C139 C138 1.387 . S
C139 C140 1.372 . S
C140 H118 0.950 . S
C140 C139 1.372 . S
C140 C141 1.379 . S
C141 H119 0.948 . S
C141 C136 1.364 . S
C141 C140 1.379 . S
C142 C111 1.383 . S
C142 C129 1.479 . S
C142 C143 1.398 . S
C143 C108 1.382 . S
C143 H120 0.951 . S
C143 C142 1.398 . S
C144 C145 1.384 . S
C144 H157 0.947 . S
C144 C179 1.382 . S
C145 C144 1.384 . S
C145 C146 1.378 . S
C146 C145 1.378 . S
C146 C147 1.378 . S
C146 H158 0.952 . S
C147 C146 1.378 . S
C147 H159 0.950 . S
C147 C178 1.383 . S
H148 C167 0.947 . S
H149 C168 0.946 . S
H150 C170 0.953 . S
H151 C171 0.945 . S
H152 C173 0.952 . S
H153 C174 0.949 . S
H154 C176 0.950 . S
H155 C177 0.948 . S
H156 C179 0.951 . S
H157 C144 0.947 . S
H158 C146 0.952 . S
H159 C147 0.950 . S
N160 C163 1.382 . S
N160 C165 1.363 . S
N161 C163 1.371 . S
N161 C164 1.372 . S
N162 C164 1.361 . S
N162 C165 1.377 . S
C163 N160 1.382 . S
C163 N161 1.371 . S
C163 C166 1.480 . S
C164 N161 1.372 . S
C164 N162 1.361 . S
C164 C172 1.457 . S
C165 N160 1.363 . S
C165 N162 1.377 . S
C165 C178 1.479 . S
C166 C163 1.480 . S
C166 C167 1.383 . S
C166 C171 1.385 . S
C167 H148 0.947 . S
C167 C166 1.383 . S
C167 C168 1.388 . S
C168 H149 0.946 . S
C168 C167 1.388 . S
C168 C169 1.384 . S
C169 C168 1.384 . S
C169 C170 1.377 . S
C170 H150 0.953 . S
C170 C169 1.377 . S
C170 C171 1.369 . S
C171 H151 0.945 . S
C171 C166 1.385 . S
C171 C170 1.369 . S
C172 C164 1.457 . S
C172 C173 1.372 . S
C172 C177 1.364 . S
C173 H152 0.952 . S
C173 C172 1.372 . S
C173 C174 1.389 . S
C174 H153 0.949 . S
C174 C173 1.389 . S
C174 C175 1.387 . S
C175 C174 1.387 . S
C175 C176 1.372 . S
C176 H154 0.950 . S
C176 C175 1.372 . S
C176 C177 1.379 . S
C177 H155 0.948 . S
C177 C172 1.364 . S
C177 C176 1.379 . S
C178 C147 1.383 . S
C178 C165 1.479 . S
C178 C179 1.398 . S
C179 C144 1.382 . S
C179 H156 0.951 . S
C179 C178 1.398 . S
C180 C181 1.384 . S
C180 H193 0.947 . S
C180 C215 1.382 . S
C181 C180 1.384 . S
C181 C182 1.378 . S
C182 C181 1.378 . S
C182 C183 1.378 . S
C182 H194 0.952 . S
C183 C182 1.378 . S
C183 H195 0.950 . S
C183 C214 1.383 . S
H184 C203 0.947 . S
H185 C204 0.946 . S
H186 C206 0.953 . S
H187 C207 0.945 . S
H188 C209 0.952 . S
H189 C210 0.949 . S
H190 C212 0.950 . S
H191 C213 0.948 . S
H192 C215 0.951 . S
H193 C180 0.947 . S
H194 C182 0.952 . S
H195 C183 0.950 . S
N196 C199 1.382 . S
N196 C201 1.363 . S
N197 C199 1.371 . S
N197 C200 1.372 . S
N198 C200 1.361 . S
N198 C201 1.377 . S
C199 N196 1.382 . S
C199 N197 1.371 . S
C199 C202 1.480 . S
C200 N197 1.372 . S
C200 N198 1.361 . S
C200 C208 1.457 . S
C201 N196 1.363 . S
C201 N198 1.377 . S
C201 C214 1.479 . S
C202 C199 1.480 . S
C202 C203 1.383 . S
C202 C207 1.385 . S
C203 H184 0.947 . S
C203 C202 1.383 . S
C203 C204 1.388 . S
C204 H185 0.946 . S
C204 C203 1.388 . S
C204 C205 1.384 . S
C205 C204 1.384 . S
C205 C206 1.377 . S
C206 H186 0.953 . S
C206 C205 1.377 . S
C206 C207 1.369 . S
C207 H187 0.945 . S
C207 C202 1.385 . S
C207 C206 1.369 . S
C208 C200 1.457 . S
C208 C209 1.372 . S
C208 C213 1.364 . S
C209 H188 0.952 . S
C209 C208 1.372 . S
C209 C210 1.389 . S
C210 H189 0.949 . S
C210 C209 1.389 . S
C210 C211 1.387 . S
C211 C210 1.387 . S
C211 C212 1.372 . S
C212 H190 0.950 . S
C212 C211 1.372 . S
C212 C213 1.379 . S
C213 H191 0.948 . S
C213 C208 1.364 . S
C213 C212 1.379 . S
C214 C183 1.383 . S
C214 C201 1.479 . S
C214 C215 1.398 . S
C215 C180 1.382 . S
C215 H192 0.951 . S
C215 C214 1.398 . S
C216 C217 1.384 . S
C216 H229 0.947 . S
C216 C251 1.382 . S
C217 C216 1.384 . S
C217 C218 1.378 . S
C218 C217 1.378 . S
C218 C219 1.378 . S
C218 H230 0.952 . S
C219 C218 1.378 . S
C219 H231 0.950 . S
C219 C250 1.383 . S
H220 C239 0.947 . S
H221 C240 0.946 . S
H222 C242 0.953 . S
H223 C243 0.945 . S
H224 C245 0.952 . S
H225 C246 0.949 . S
H226 C248 0.950 . S
H227 C249 0.948 . S
H228 C251 0.951 . S
H229 C216 0.947 . S
H230 C218 0.952 . S
H231 C219 0.950 . S
N232 C235 1.382 . S
N232 C237 1.363 . S
N233 C235 1.371 . S
N233 C236 1.372 . S
N234 C236 1.361 . S
N234 C237 1.377 . S
C235 N232 1.382 . S
C235 N233 1.371 . S
C235 C238 1.480 . S
C236 N233 1.372 . S
C236 N234 1.361 . S
C236 C244 1.457 . S
C237 N232 1.363 . S
C237 N234 1.377 . S
C237 C250 1.479 . S
C238 C235 1.480 . S
C238 C239 1.383 . S
C238 C243 1.385 . S
C239 H220 0.947 . S
C239 C238 1.383 . S
C239 C240 1.388 . S
C240 H221 0.946 . S
C240 C239 1.388 . S
C240 C241 1.384 . S
C241 C240 1.384 . S
C241 C242 1.377 . S
C242 H222 0.953 . S
C242 C241 1.377 . S
C242 C243 1.369 . S
C243 H223 0.945 . S
C243 C238 1.385 . S
C243 C242 1.369 . S
C244 C236 1.457 . S
C244 C245 1.372 . S
C244 C249 1.364 . S
C245 H224 0.952 . S
C245 C244 1.372 . S
C245 C246 1.389 . S
C246 H225 0.949 . S
C246 C245 1.389 . S
C246 C247 1.387 . S
C247 C246 1.387 . S
C247 C248 1.372 . S
C248 H226 0.950 . S
C248 C247 1.372 . S
C248 C249 1.379 . S
C249 H227 0.948 . S
C249 C244 1.364 . S
C249 C248 1.379 . S
C250 C219 1.383 . S
C250 C237 1.479 . S
C250 C251 1.398 . S
C251 C216 1.382 . S
C251 H228 0.951 . S
C251 C250 1.398 . S
C252 C253 1.384 . S
C252 H265 0.947 . S
C252 C287 1.382 . S
C253 C252 1.384 . S
C253 C254 1.378 . S
C254 C253 1.378 . S
C254 C255 1.378 . S
C254 H266 0.952 . S
C255 C254 1.378 . S
C255 H267 0.950 . S
C255 C286 1.383 . S
H256 C275 0.947 . S
H257 C276 0.946 . S
H258 C278 0.953 . S
H259 C279 0.945 . S
H260 C281 0.952 . S
H261 C282 0.949 . S
H262 C284 0.950 . S
H263 C285 0.948 . S
H264 C287 0.951 . S
H265 C252 0.947 . S
H266 C254 0.952 . S
H267 C255 0.950 . S
N268 C271 1.382 . S
N268 C273 1.363 . S
N269 C271 1.371 . S
N269 C272 1.372 . S
N270 C272 1.361 . S
N270 C273 1.377 . S
C271 N268 1.382 . S
C271 N269 1.371 . S
C271 C274 1.480 . S
C272 N269 1.372 . S
C272 N270 1.361 . S
C272 C280 1.457 . S
C273 N268 1.363 . S
C273 N270 1.377 . S
C273 C286 1.479 . S
C274 C271 1.480 . S
C274 C275 1.383 . S
C274 C279 1.385 . S
C275 H256 0.947 . S
C275 C274 1.383 . S
C275 C276 1.388 . S
C276 H257 0.946 . S
C276 C275 1.388 . S
C276 C277 1.384 . S
C277 C276 1.384 . S
C277 C278 1.377 . S
C278 H258 0.953 . S
C278 C277 1.377 . S
C278 C279 1.369 . S
C279 H259 0.945 . S
C279 C274 1.385 . S
C279 C278 1.369 . S
C280 C272 1.457 . S
C280 C281 1.372 . S
C280 C285 1.364 . S
C281 H260 0.952 . S
C281 C280 1.372 . S
C281 C282 1.389 . S
C282 H261 0.949 . S
C282 C281 1.389 . S
C282 C283 1.387 . S
C283 C282 1.387 . S
C283 C284 1.372 . S
C284 H262 0.950 . S
C284 C283 1.372 . S
C284 C285 1.379 . S
C285 H263 0.948 . S
C285 C280 1.364 . S
C285 C284 1.379 . S
C286 C255 1.383 . S
C286 C273 1.479 . S
C286 C287 1.398 . S
C287 C252 1.382 . S
C287 H264 0.951 . S
C287 C286 1.398 . S
C288 C289 1.384 . S
C288 H301 0.947 . S
C288 C323 1.382 . S
C289 C288 1.384 . S
C289 C290 1.378 . S
C290 C289 1.378 . S
C290 C291 1.378 . S
C290 H302 0.952 . S
C291 C290 1.378 . S
C291 H303 0.950 . S
C291 C322 1.383 . S
H292 C311 0.947 . S
H293 C312 0.946 . S
H294 C314 0.953 . S
H295 C315 0.945 . S
H296 C317 0.952 . S
H297 C318 0.949 . S
H298 C320 0.950 . S
H299 C321 0.948 . S
H300 C323 0.951 . S
H301 C288 0.947 . S
H302 C290 0.952 . S
H303 C291 0.950 . S
N304 C307 1.382 . S
N304 C309 1.363 . S
N305 C307 1.371 . S
N305 C308 1.372 . S
N306 C308 1.361 . S
N306 C309 1.377 . S
C307 N304 1.382 . S
C307 N305 1.371 . S
C307 C310 1.480 . S
C308 N305 1.372 . S
C308 N306 1.361 . S
C308 C316 1.457 . S
C309 N304 1.363 . S
C309 N306 1.377 . S
C309 C322 1.479 . S
C310 C307 1.480 . S
C310 C311 1.383 . S
C310 C315 1.385 . S
C311 H292 0.947 . S
C311 C310 1.383 . S
C311 C312 1.388 . S
C312 H293 0.946 . S
C312 C311 1.388 . S
C312 C313 1.384 . S
C313 C312 1.384 . S
C313 C314 1.377 . S
C314 H294 0.953 . S
C314 C313 1.377 . S
C314 C315 1.369 . S
C315 H295 0.945 . S
C315 C310 1.385 . S
C315 C314 1.369 . S
C316 C308 1.457 . S
C316 C317 1.372 . S
C316 C321 1.364 . S
C317 H296 0.952 . S
C317 C316 1.372 . S
C317 C318 1.389 . S
C318 H297 0.949 . S
C318 C317 1.389 . S
C318 C319 1.387 . S
C319 C318 1.387 . S
C319 C320 1.372 . S
C320 H298 0.950 . S
C320 C319 1.372 . S
C320 C321 1.379 . S
C321 H299 0.948 . S
C321 C316 1.364 . S
C321 C320 1.379 . S
C322 C291 1.383 . S
C322 C309 1.479 . S
C322 C323 1.398 . S
C323 C288 1.382 . S
C323 H300 0.951 . S
C323 C322 1.398 . S
C324 C325 1.384 . S
C324 H337 0.947 . S
C324 C359 1.382 . S
C325 C324 1.384 . S
C325 C326 1.378 . S
C326 C325 1.378 . S
C326 C327 1.378 . S
C326 H338 0.952 . S
C327 C326 1.378 . S
C327 H339 0.950 . S
C327 C358 1.383 . S
H328 C347 0.947 . S
H329 C348 0.946 . S
H330 C350 0.953 . S
H331 C351 0.945 . S
H332 C353 0.952 . S
H333 C354 0.949 . S
H334 C356 0.950 . S
H335 C357 0.948 . S
H336 C359 0.951 . S
H337 C324 0.947 . S
H338 C326 0.952 . S
H339 C327 0.950 . S
N340 C343 1.382 . S
N340 C345 1.363 . S
N341 C343 1.371 . S
N341 C344 1.372 . S
N342 C344 1.361 . S
N342 C345 1.377 . S
C343 N340 1.382 . S
C343 N341 1.371 . S
C343 C346 1.480 . S
C344 N341 1.372 . S
C344 N342 1.361 . S
C344 C352 1.457 . S
C345 N340 1.363 . S
C345 N342 1.377 . S
C345 C358 1.479 . S
C346 C343 1.480 . S
C346 C347 1.383 . S
C346 C351 1.385 . S
C347 H328 0.947 . S
C347 C346 1.383 . S
C347 C348 1.388 . S
C348 H329 0.946 . S
C348 C347 1.388 . S
C348 C349 1.384 . S
C349 C348 1.384 . S
C349 C350 1.377 . S
C350 H330 0.953 . S
C350 C349 1.377 . S
C350 C351 1.369 . S
C351 H331 0.945 . S
C351 C346 1.385 . S
C351 C350 1.369 . S
C352 C344 1.457 . S
C352 C353 1.372 . S
C352 C357 1.364 . S
C353 H332 0.952 . S
C353 C352 1.372 . S
C353 C354 1.389 . S
C354 H333 0.949 . S
C354 C353 1.389 . S
C354 C355 1.387 . S
C355 C354 1.387 . S
C355 C356 1.372 . S
C356 H334 0.950 . S
C356 C355 1.372 . S
C356 C357 1.379 . S
C357 H335 0.948 . S
C357 C352 1.364 . S
C357 C356 1.379 . S
C358 C327 1.383 . S
C358 C345 1.479 . S
C358 C359 1.398 . S
C359 C324 1.382 . S
C359 H336 0.951 . S
C359 C358 1.398 . S
C360 C361 1.384 . S
C360 H373 0.947 . S
C360 C395 1.382 . S
C361 C360 1.384 . S
C361 C362 1.378 . S
C362 C361 1.378 . S
C362 C363 1.378 . S
C362 H374 0.952 . S
C363 C362 1.378 . S
C363 H375 0.950 . S
C363 C394 1.383 . S
H364 C383 0.947 . S
H365 C384 0.946 . S
H366 C386 0.953 . S
H367 C387 0.945 . S
H368 C389 0.952 . S
H369 C390 0.949 . S
H370 C392 0.950 . S
H371 C393 0.948 . S
H372 C395 0.951 . S
H373 C360 0.947 . S
H374 C362 0.952 . S
H375 C363 0.950 . S
N376 C379 1.382 . S
N376 C381 1.363 . S
N377 C379 1.371 . S
N377 C380 1.372 . S
N378 C380 1.361 . S
N378 C381 1.377 . S
C379 N376 1.382 . S
C379 N377 1.371 . S
C379 C382 1.480 . S
C380 N377 1.372 . S
C380 N378 1.361 . S
C380 C388 1.457 . S
C381 N376 1.363 . S
C381 N378 1.377 . S
C381 C394 1.479 . S
C382 C379 1.480 . S
C382 C383 1.383 . S
C382 C387 1.385 . S
C383 H364 0.947 . S
C383 C382 1.383 . S
C383 C384 1.388 . S
C384 H365 0.946 . S
C384 C383 1.388 . S
C384 C385 1.384 . S
C385 C384 1.384 . S
C385 C386 1.377 . S
C386 H366 0.953 . S
C386 C385 1.377 . S
C386 C387 1.369 . S
C387 H367 0.945 . S
C387 C382 1.385 . S
C387 C386 1.369 . S
C388 C380 1.457 . S
C388 C389 1.372 . S
C388 C393 1.364 . S
C389 H368 0.952 . S
C389 C388 1.372 . S
C389 C390 1.389 . S
C390 H369 0.949 . S
C390 C389 1.389 . S
C390 C391 1.387 . S
C391 C390 1.387 . S
C391 C392 1.372 . S
C392 H370 0.950 . S
C392 C391 1.372 . S
C392 C393 1.379 . S
C393 H371 0.948 . S
C393 C388 1.364 . S
C393 C392 1.379 . S
C394 C363 1.383 . S
C394 C381 1.479 . S
C394 C395 1.398 . S
C395 C360 1.382 . S
C395 H372 0.951 . S
C395 C394 1.398 . S
C396 C397 1.384 . S
C396 H409 0.947 . S
C396 C431 1.382 . S
C397 C396 1.384 . S
C397 C398 1.378 . S
C398 C397 1.378 . S
C398 C399 1.378 . S
C398 H410 0.952 . S
C399 C398 1.378 . S
C399 H411 0.950 . S
C399 C430 1.383 . S
H400 C419 0.947 . S
H401 C420 0.946 . S
H402 C422 0.953 . S
H403 C423 0.945 . S
H404 C425 0.952 . S
H405 C426 0.949 . S
H406 C428 0.950 . S
H407 C429 0.948 . S
H408 C431 0.951 . S
H409 C396 0.947 . S
H410 C398 0.952 . S
H411 C399 0.950 . S
N412 C415 1.382 . S
N412 C417 1.363 . S
N413 C415 1.371 . S
N413 C416 1.372 . S
N414 C416 1.361 . S
N414 C417 1.377 . S
C415 N412 1.382 . S
C415 N413 1.371 . S
C415 C418 1.480 . S
C416 N413 1.372 . S
C416 N414 1.361 . S
C416 C424 1.457 . S
C417 N412 1.363 . S
C417 N414 1.377 . S
C417 C430 1.479 . S
C418 C415 1.480 . S
C418 C419 1.383 . S
C418 C423 1.385 . S
C419 H400 0.947 . S
C419 C418 1.383 . S
C419 C420 1.388 . S
C420 H401 0.946 . S
C420 C419 1.388 . S
C420 C421 1.384 . S
C421 C420 1.384 . S
C421 C422 1.377 . S
C422 H402 0.953 . S
C422 C421 1.377 . S
C422 C423 1.369 . S
C423 H403 0.945 . S
C423 C418 1.385 . S
C423 C422 1.369 . S
C424 C416 1.457 . S
C424 C425 1.372 . S
C424 C429 1.364 . S
C425 H404 0.952 . S
C425 C424 1.372 . S
C425 C426 1.389 . S
C426 H405 0.949 . S
C426 C425 1.389 . S
C426 C427 1.387 . S
C427 C426 1.387 . S
C427 C428 1.372 . S
C428 H406 0.950 . S
C428 C427 1.372 . S
C428 C429 1.379 . S
C429 H407 0.948 . S
C429 C424 1.364 . S
C429 C428 1.379 . S
C430 C399 1.383 . S
C430 C417 1.479 . S
C430 C431 1.398 . S
C431 C396 1.382 . S
C431 H408 0.951 . S
C431 C430 1.398 . S
C432 C433 1.384 . S
C432 H445 0.947 . S
C432 C467 1.382 . S
C433 C432 1.384 . S
C433 C434 1.378 . S
C434 C433 1.378 . S
C434 C435 1.378 . S
C434 H446 0.952 . S
C435 C434 1.378 . S
C435 H447 0.950 . S
C435 C466 1.383 . S
H436 C455 0.947 . S
H437 C456 0.946 . S
H438 C458 0.953 . S
H439 C459 0.945 . S
H440 C461 0.952 . S
H441 C462 0.949 . S
H442 C464 0.950 . S
H443 C465 0.948 . S
H444 C467 0.951 . S
H445 C432 0.947 . S
H446 C434 0.952 . S
H447 C435 0.950 . S
N448 C451 1.382 . S
N448 C453 1.363 . S
N449 C451 1.371 . S
N449 C452 1.372 . S
N450 C452 1.361 . S
N450 C453 1.377 . S
C451 N448 1.382 . S
C451 N449 1.371 . S
C451 C454 1.480 . S
C452 N449 1.372 . S
C452 N450 1.361 . S
C452 C460 1.457 . S
C453 N448 1.363 . S
C453 N450 1.377 . S
C453 C466 1.479 . S
C454 C451 1.480 . S
C454 C455 1.383 . S
C454 C459 1.385 . S
C455 H436 0.947 . S
C455 C454 1.383 . S
C455 C456 1.388 . S
C456 H437 0.946 . S
C456 C455 1.388 . S
C456 C457 1.384 . S
C457 C456 1.384 . S
C457 C458 1.377 . S
C458 H438 0.953 . S
C458 C457 1.377 . S
C458 C459 1.369 . S
C459 H439 0.945 . S
C459 C454 1.385 . S
C459 C458 1.369 . S
C460 C452 1.457 . S
C460 C461 1.372 . S
C460 C465 1.364 . S
C461 H440 0.952 . S
C461 C460 1.372 . S
C461 C462 1.389 . S
C462 H441 0.949 . S
C462 C461 1.389 . S
C462 C463 1.387 . S
C463 C462 1.387 . S
C463 C464 1.372 . S
C464 H442 0.950 . S
C464 C463 1.372 . S
C464 C465 1.379 . S
C465 H443 0.948 . S
C465 C460 1.364 . S
C465 C464 1.379 . S
C466 C435 1.383 . S
C466 C453 1.479 . S
C466 C467 1.398 . S
C467 C432 1.382 . S
C467 H444 0.951 . S
C467 C466 1.398 . S
C468 C469 1.384 . S
C468 H481 0.947 . S
C468 C503 1.382 . S
C469 C468 1.384 . S
C469 C470 1.378 . S
C470 C469 1.378 . S
C470 C471 1.378 . S
C470 H482 0.952 . S
C471 C470 1.378 . S
C471 H483 0.950 . S
C471 C502 1.383 . S
H472 C491 0.947 . S
H473 C492 0.946 . S
H474 C494 0.953 . S
H475 C495 0.945 . S
H476 C497 0.952 . S
H477 C498 0.949 . S
H478 C500 0.950 . S
H479 C501 0.948 . S
H480 C503 0.951 . S
H481 C468 0.947 . S
H482 C470 0.952 . S
H483 C471 0.950 . S
N484 C487 1.382 . S
N484 C489 1.363 . S
N485 C487 1.371 . S
N485 C488 1.372 . S
N486 C488 1.361 . S
N486 C489 1.377 . S
C487 N484 1.382 . S
C487 N485 1.371 . S
C487 C490 1.480 . S
C488 N485 1.372 . S
C488 N486 1.361 . S
C488 C496 1.457 . S
C489 N484 1.363 . S
C489 N486 1.377 . S
C489 C502 1.479 . S
C490 C487 1.480 . S
C490 C491 1.383 . S
C490 C495 1.385 . S
C491 H472 0.947 . S
C491 C490 1.383 . S
C491 C492 1.388 . S
C492 H473 0.946 . S
C492 C491 1.388 . S
C492 C493 1.384 . S
C493 C492 1.384 . S
C493 C494 1.377 . S
C494 H474 0.953 . S
C494 C493 1.377 . S
C494 C495 1.369 . S
C495 H475 0.945 . S
C495 C490 1.385 . S
C495 C494 1.369 . S
C496 C488 1.457 . S
C496 C497 1.372 . S
C496 C501 1.364 . S
C497 H476 0.952 . S
C497 C496 1.372 . S
C497 C498 1.389 . S
C498 H477 0.949 . S
C498 C497 1.389 . S
C498 C499 1.387 . S
C499 C498 1.387 . S
C499 C500 1.372 . S
C500 H478 0.950 . S
C500 C499 1.372 . S
C500 C501 1.379 . S
C501 H479 0.948 . S
C501 C496 1.364 . S
C501 C500 1.379 . S
C502 C471 1.383 . S
C502 C489 1.479 . S
C502 C503 1.398 . S
C503 C468 1.382 . S
C503 H480 0.951 . S
C503 C502 1.398 . S
C504 C505 1.384 . S
C504 H517 0.947 . S
C504 C539 1.382 . S
C505 C504 1.384 . S
C505 C506 1.378 . S
C506 C505 1.378 . S
C506 C507 1.378 . S
C506 H518 0.952 . S
C507 C506 1.378 . S
C507 H519 0.950 . S
C507 C538 1.383 . S
H508 C527 0.947 . S
H509 C528 0.946 . S
H510 C530 0.953 . S
H511 C531 0.945 . S
H512 C533 0.952 . S
H513 C534 0.949 . S
H514 C536 0.950 . S
H515 C537 0.948 . S
H516 C539 0.951 . S
H517 C504 0.947 . S
H518 C506 0.952 . S
H519 C507 0.950 . S
N520 C523 1.382 . S
N520 C525 1.363 . S
N521 C523 1.371 . S
N521 C524 1.372 . S
N522 C524 1.361 . S
N522 C525 1.377 . S
C523 N520 1.382 . S
C523 N521 1.371 . S
C523 C526 1.480 . S
C524 N521 1.372 . S
C524 N522 1.361 . S
C524 C532 1.457 . S
C525 N520 1.363 . S
C525 N522 1.377 . S
C525 C538 1.479 . S
C526 C523 1.480 . S
C526 C527 1.383 . S
C526 C531 1.385 . S
C527 H508 0.947 . S
C527 C526 1.383 . S
C527 C528 1.388 . S
C528 H509 0.946 . S
C528 C527 1.388 . S
C528 C529 1.384 . S
C529 C528 1.384 . S
C529 C530 1.377 . S
C530 H510 0.953 . S
C530 C529 1.377 . S
C530 C531 1.369 . S
C531 H511 0.945 . S
C531 C526 1.385 . S
C531 C530 1.369 . S
C532 C524 1.457 . S
C532 C533 1.372 . S
C532 C537 1.364 . S
C533 H512 0.952 . S
C533 C532 1.372 . S
C533 C534 1.389 . S
C534 H513 0.949 . S
C534 C533 1.389 . S
C534 C535 1.387 . S
C535 C534 1.387 . S
C535 C536 1.372 . S
C536 H514 0.950 . S
C536 C535 1.372 . S
C536 C537 1.379 . S
C537 H515 0.948 . S
C537 C532 1.364 . S
C537 C536 1.379 . S
C538 C507 1.383 . S
C538 C525 1.479 . S
C538 C539 1.398 . S
C539 C504 1.382 . S
C539 H516 0.951 . S
C539 C538 1.398 . S
C540 C541 1.384 . S
C540 H553 0.947 . S
C540 C575 1.382 . S
C541 C540 1.384 . S
C541 C542 1.378 . S
C542 C541 1.378 . S
C542 C543 1.378 . S
C542 H554 0.952 . S
C543 C542 1.378 . S
C543 H555 0.950 . S
C543 C574 1.383 . S
H544 C563 0.947 . S
H545 C564 0.946 . S
H546 C566 0.953 . S
H547 C567 0.945 . S
H548 C569 0.952 . S
H549 C570 0.949 . S
H550 C572 0.950 . S
H551 C573 0.948 . S
H552 C575 0.951 . S
H553 C540 0.947 . S
H554 C542 0.952 . S
H555 C543 0.950 . S
N556 C559 1.382 . S
N556 C561 1.363 . S
N557 C559 1.371 . S
N557 C560 1.372 . S
N558 C560 1.361 . S
N558 C561 1.377 . S
C559 N556 1.382 . S
C559 N557 1.371 . S
C559 C562 1.480 . S
C560 N557 1.372 . S
C560 N558 1.361 . S
C560 C568 1.457 . S
C561 N556 1.363 . S
C561 N558 1.377 . S
C561 C574 1.479 . S
C562 C559 1.480 . S
C562 C563 1.383 . S
C562 C567 1.385 . S
C563 H544 0.947 . S
C563 C562 1.383 . S
C563 C564 1.388 . S
C564 H545 0.946 . S
C564 C563 1.388 . S
C564 C565 1.384 . S
C565 C564 1.384 . S
C565 C566 1.377 . S
C566 H546 0.953 . S
C566 C565 1.377 . S
C566 C567 1.369 . S
C567 H547 0.945 . S
C567 C562 1.385 . S
C567 C566 1.369 . S
C568 C560 1.457 . S
C568 C569 1.372 . S
C568 C573 1.364 . S
C569 H548 0.952 . S
C569 C568 1.372 . S
C569 C570 1.389 . S
C570 H549 0.949 . S
C570 C569 1.389 . S
C570 C571 1.387 . S
C571 C570 1.387 . S
C571 C572 1.372 . S
C572 H550 0.950 . S
C572 C571 1.372 . S
C572 C573 1.379 . S
C573 H551 0.948 . S
C573 C568 1.364 . S
C573 C572 1.379 . S
C574 C543 1.383 . S
C574 C561 1.479 . S
C574 C575 1.398 . S
C575 C540 1.382 . S
C575 H552 0.951 . S
C575 C574 1.398 . S
C576 C577 1.384 . S
C576 H589 0.947 . S
C576 C611 1.382 . S
C577 C576 1.384 . S
C577 C578 1.378 . S
C578 C577 1.378 . S
C578 C579 1.378 . S
C578 H590 0.952 . S
C579 C578 1.378 . S
C579 H591 0.950 . S
C579 C610 1.383 . S
H580 C599 0.947 . S
H581 C600 0.946 . S
H582 C602 0.953 . S
H583 C603 0.945 . S
H584 C605 0.952 . S
H585 C606 0.949 . S
H586 C608 0.950 . S
H587 C609 0.948 . S
H588 C611 0.951 . S
H589 C576 0.947 . S
H590 C578 0.952 . S
H591 C579 0.950 . S
N592 C595 1.382 . S
N592 C597 1.363 . S
N593 C595 1.371 . S
N593 C596 1.372 . S
N594 C596 1.361 . S
N594 C597 1.377 . S
C595 N592 1.382 . S
C595 N593 1.371 . S
C595 C598 1.480 . S
C596 N593 1.372 . S
C596 N594 1.361 . S
C596 C604 1.457 . S
C597 N592 1.363 . S
C597 N594 1.377 . S
C597 C610 1.479 . S
C598 C595 1.480 . S
C598 C599 1.383 . S
C598 C603 1.385 . S
C599 H580 0.947 . S
C599 C598 1.383 . S
C599 C600 1.388 . S
C600 H581 0.946 . S
C600 C599 1.388 . S
C600 C601 1.384 . S
C601 C600 1.384 . S
C601 C602 1.377 . S
C602 H582 0.953 . S
C602 C601 1.377 . S
C602 C603 1.369 . S
C603 H583 0.945 . S
C603 C598 1.385 . S
C603 C602 1.369 . S
C604 C596 1.457 . S
C604 C605 1.372 . S
C604 C609 1.364 . S
C605 H584 0.952 . S
C605 C604 1.372 . S
C605 C606 1.389 . S
C606 H585 0.949 . S
C606 C605 1.389 . S
C606 C607 1.387 . S
C607 C606 1.387 . S
C607 C608 1.372 . S
C608 H586 0.950 . S
C608 C607 1.372 . S
C608 C609 1.379 . S
C609 H587 0.948 . S
C609 C604 1.364 . S
C609 C608 1.379 . S
C610 C579 1.383 . S
C610 C597 1.479 . S
C610 C611 1.398 . S
C611 C576 1.382 . S
C611 H588 0.951 . S
C611 C610 1.398 . S
C612 C613 1.384 . S
C612 H625 0.947 . S
C612 C647 1.382 . S
C613 C612 1.384 . S
C613 C614 1.378 . S
C614 C613 1.378 . S
C614 C615 1.378 . S
C614 H626 0.952 . S
C615 C614 1.378 . S
C615 H627 0.950 . S
C615 C646 1.383 . S
H616 C635 0.947 . S
H617 C636 0.946 . S
H618 C638 0.953 . S
H619 C639 0.945 . S
H620 C641 0.952 . S
H621 C642 0.949 . S
H622 C644 0.950 . S
H623 C645 0.948 . S
H624 C647 0.951 . S
H625 C612 0.947 . S
H626 C614 0.952 . S
H627 C615 0.950 . S
N628 C631 1.382 . S
N628 C633 1.363 . S
N629 C631 1.371 . S
N629 C632 1.372 . S
N630 C632 1.361 . S
N630 C633 1.377 . S
C631 N628 1.382 . S
C631 N629 1.371 . S
C631 C634 1.480 . S
C632 N629 1.372 . S
C632 N630 1.361 . S
C632 C640 1.457 . S
C633 N628 1.363 . S
C633 N630 1.377 . S
C633 C646 1.479 . S
C634 C631 1.480 . S
C634 C635 1.383 . S
C634 C639 1.385 . S
C635 H616 0.947 . S
C635 C634 1.383 . S
C635 C636 1.388 . S
C636 H617 0.946 . S
C636 C635 1.388 . S
C636 C637 1.384 . S
C637 C636 1.384 . S
C637 C638 1.377 . S
C638 H618 0.953 . S
C638 C637 1.377 . S
C638 C639 1.369 . S
C639 H619 0.945 . S
C639 C634 1.385 . S
C639 C638 1.369 . S
C640 C632 1.457 . S
C640 C641 1.372 . S
C640 C645 1.364 . S
C641 H620 0.952 . S
C641 C640 1.372 . S
C641 C642 1.389 . S
C642 H621 0.949 . S
C642 C641 1.389 . S
C642 C643 1.387 . S
C643 C642 1.387 . S
C643 C644 1.372 . S
C644 H622 0.950 . S
C644 C643 1.372 . S
C644 C645 1.379 . S
C645 H623 0.948 . S
C645 C640 1.364 . S
C645 C644 1.379 . S
C646 C615 1.383 . S
C646 C633 1.479 . S
C646 C647 1.398 . S
C647 C612 1.382 . S
C647 H624 0.951 . S
C647 C646 1.398 . S
Tb648 C658 2.825 . S
Tb648 O659 2.347 1_565 S
Tb648 O662 2.366 1_565 S
Tb648 O667 2.418 . S
Tb648 O668 2.386 1_556 S
Tb648 O671 2.479 . S
Tb648 O672 2.471 1_565 S
Eu649 O660 2.418 . S
Eu649 O661 2.384 . S
Eu649 O664 2.479 . S
Eu649 O665 2.460 1_545 S
Eu649 O666 2.347 1_545 S
Eu649 O669 2.366 1_545 S
Eu649 C679 2.825 . S
C650 O666 1.259 . S
C650 O667 1.265 1_554 S
C651 O668 1.252 . S
C651 O669 1.265 . S
C652 C654 1.380 . S
C652 C655 1.374 1_565 S
C652 C658 1.507 . S
C653 C654 1.384 . S
C653 C657 1.387 1_565 S
C653 H680 0.930 . S
C654 C652 1.380 . S
C654 C653 1.384 . S
C654 H681 0.931 . S
C655 C652 1.374 1_545 S
C655 C656 1.390 . S
C655 H682 0.930 . S
C656 C655 1.390 . S
C656 C657 1.391 . S
C656 H683 0.930 . S
C657 C653 1.387 1_545 S
C657 C656 1.391 . S
C658 Tb648 2.825 . S
C658 C652 1.507 . S
C658 O671 1.238 . S
C658 O672 1.247 1_565 S
O659 Tb648 2.347 1_545 S
O659 C663 1.275 . S
O660 Eu649 2.418 . S
O660 C663 1.224 1_554 S
O661 Eu649 2.384 . S
O661 C670 1.255 1_554 S
O662 Tb648 2.366 1_545 S
O662 C670 1.265 . S
C663 O659 1.275 . S
C663 O660 1.224 1_556 S
O664 Eu649 2.479 . S
O664 C679 1.238 . S
O665 Eu649 2.460 1_565 S
O665 C679 1.230 1_565 S
O666 Eu649 2.347 1_565 S
O666 C650 1.259 . S
O667 Tb648 2.418 . S
O667 C650 1.265 1_556 S
O668 Tb648 2.386 1_554 S
O668 C651 1.252 . S
O669 Eu649 2.366 1_565 S
O669 C651 1.265 . S
C670 O661 1.255 1_556 S
C670 O662 1.265 . S
O671 Tb648 2.479 . S
O671 C658 1.238 . S
O672 Tb648 2.471 1_545 S
O672 C658 1.247 1_545 S
C673 C676 1.380 . S
C673 C677 1.374 1_545 S
C673 C679 1.507 . S
C674 C675 1.387 1_565 S
C674 C678 1.391 . S
C675 C674 1.387 1_545 S
C675 C676 1.384 . S
C675 H684 0.930 . S
C676 C673 1.380 . S
C676 C675 1.384 . S
C676 H685 0.931 . S
C677 C673 1.374 1_565 S
C677 C678 1.390 . S
C677 H686 0.930 . S
C678 C674 1.391 . S
C678 C677 1.390 . S
C678 H687 0.930 . S
C679 Eu649 2.825 . S
C679 O664 1.238 . S
C679 O665 1.230 1_545 S
C679 C673 1.507 . S
H680 C653 0.930 . S
H681 C654 0.931 . S
H682 C655 0.930 . S
H683 C656 0.930 . S
H684 C675 0.930 . S
H685 C676 0.931 . S
H686 C677 0.930 . S
H687 C678 0.930 . S
Tb688 C698 2.825 . S
Tb688 O699 2.347 1_455 S
Tb688 O702 2.366 1_455 S
Tb688 O707 2.418 . S
Tb688 O708 2.384 1_556 S
Tb688 O711 2.479 . S
Tb688 O712 2.471 1_455 S
Eu689 O700 2.418 . S
Eu689 O701 2.394 . S
Eu689 O704 2.479 . S
Eu689 O705 2.471 1_655 S
Eu689 O706 2.347 1_655 S
Eu689 O709 2.366 1_655 S
Eu689 C719 2.825 . S
C690 O706 1.259 . S
C690 O707 1.265 1_554 S
C691 O708 1.255 . S
C691 O709 1.265 . S
C692 C694 1.380 . S
C692 C695 1.374 1_455 S
C692 C698 1.507 . S
C693 C694 1.384 . S
C693 C697 1.387 1_455 S
C693 H720 0.930 . S
C694 C692 1.380 . S
C694 C693 1.384 . S
C694 H721 0.931 . S
C695 C692 1.374 1_655 S
C695 C696 1.390 . S
C695 H722 0.930 . S
C696 C695 1.390 . S
C696 C697 1.391 . S
C696 H723 0.930 . S
C697 C693 1.387 1_655 S
C697 C696 1.391 . S
C698 Tb688 2.825 . S
C698 C692 1.507 . S
C698 O711 1.238 . S
C698 O712 1.247 1_455 S
O699 Tb688 2.347 1_655 S
O699 C703 1.259 . S
O700 Eu689 2.418 . S
O700 C703 1.265 1_554 S
O701 Eu689 2.394 . S
O701 C710 1.243 1_554 S
O702 Tb688 2.366 1_655 S
O702 C710 1.265 . S
C703 O699 1.259 . S
C703 O700 1.265 1_556 S
O704 Eu689 2.479 . S
O704 C719 1.238 . S
O705 Eu689 2.471 1_455 S
O705 C719 1.247 1_455 S
O706 Eu689 2.347 1_455 S
O706 C690 1.259 . S
O707 Tb688 2.418 . S
O707 C690 1.265 1_556 S
O708 Tb688 2.384 1_554 S
O708 C691 1.255 . S
O709 Eu689 2.366 1_455 S
O709 C691 1.265 . S
C710 O701 1.243 1_556 S
C710 O702 1.265 . S
O711 Tb688 2.479 . S
O711 C698 1.238 . S
O712 Tb688 2.471 1_655 S
O712 C698 1.247 1_655 S
C713 C716 1.380 . S
C713 C717 1.374 1_655 S
C713 C719 1.507 . S
C714 C715 1.387 1_455 S
C714 C718 1.391 . S
C715 C714 1.387 1_655 S
C715 C716 1.384 . S
C715 H724 0.930 . S
C716 C713 1.380 . S
C716 C715 1.384 . S
C716 H725 0.931 . S
C717 C713 1.374 1_455 S
C717 C718 1.390 . S
C717 H726 0.930 . S
C718 C714 1.391 . S
C718 C717 1.390 . S
C718 H727 0.930 . S
C719 Eu689 2.825 . S
C719 O704 1.238 . S
C719 O705 1.247 1_655 S
C719 C713 1.507 . S
H720 C693 0.930 . S
H721 C694 0.931 . S
H722 C695 0.930 . S
H723 C696 0.930 . S
H724 C715 0.930 . S
H725 C716 0.931 . S
H726 C717 0.930 . S
H727 C718 0.930 . S
Tb728 C738 2.825 . S
Tb728 O739 2.347 . S
Tb728 O742 2.366 . S
Tb728 O747 2.418 . S
Tb728 O748 2.384 . S
Tb728 O751 2.479 . S
Tb728 O752 2.471 . S
Eu729 O740 2.418 . S
Eu729 O741 2.384 1_556 S
Eu729 O744 2.479 . S
Eu729 O745 2.471 . S
Eu729 O746 2.347 . S
Eu729 O749 2.366 . S
Eu729 C759 2.825 . S
C730 O746 1.259 . S
C730 O747 1.265 1_556 S
C731 O748 1.255 1_556 S
C731 O749 1.265 . S
C732 C734 1.380 . S
C732 C735 1.374 . S
C732 C738 1.507 . S
C733 C734 1.384 . S
C733 C737 1.387 . S
C733 H760 0.930 . S
C734 C732 1.380 . S
C734 C733 1.384 . S
C734 H761 0.931 . S
C735 C732 1.374 . S
C735 C736 1.390 . S
C735 H762 0.930 . S
C736 C735 1.390 . S
C736 C737 1.391 . S
C736 H763 0.930 . S
C737 C733 1.387 . S
C737 C736 1.391 . S
C738 Tb728 2.825 . S
C738 C732 1.507 . S
C738 O751 1.238 . S
C738 O752 1.247 . S
O739 Tb728 2.347 . S
O739 C743 1.259 . S
O740 Eu729 2.418 . S
O740 C743 1.265 1_556 S
O741 Eu729 2.384 1_554 S
O741 C750 1.255 . S
O742 Tb728 2.366 . S
O742 C750 1.265 . S
C743 O739 1.259 . S
C743 O740 1.265 1_554 S
O744 Eu729 2.479 . S
O744 C759 1.238 . S
O745 Eu729 2.471 . S
O745 C759 1.247 . S
O746 Eu729 2.347 . S
O746 C730 1.259 . S
O747 Tb728 2.418 . S
O747 C730 1.265 1_554 S
O748 Tb728 2.384 . S
O748 C731 1.255 1_554 S
O749 Eu729 2.366 . S
O749 C731 1.265 . S
C750 O741 1.255 . S
C750 O742 1.265 . S
O751 Tb728 2.479 . S
O751 C738 1.238 . S
O752 Tb728 2.471 . S
O752 C738 1.247 . S
C753 C756 1.380 . S
C753 C757 1.374 . S
C753 C759 1.507 . S
C754 C755 1.387 . S
C754 C758 1.391 . S
C755 C754 1.387 . S
C755 C756 1.384 . S
C755 H764 0.930 . S
C756 C753 1.380 . S
C756 C755 1.384 . S
C756 H765 0.931 . S
C757 C753 1.374 . S
C757 C758 1.390 . S
C757 H766 0.930 . S
C758 C754 1.391 . S
C758 C757 1.390 . S
C758 H767 0.930 . S
C759 Eu729 2.825 . S
C759 O744 1.238 . S
C759 O745 1.247 . S
C759 C753 1.507 . S
H760 C733 0.930 . S
H761 C734 0.931 . S
H762 C735 0.930 . S
H763 C736 0.930 . S
H764 C755 0.930 . S
H765 C756 0.931 . S
H766 C757 0.930 . S
H767 C758 0.930 . S
Tb768 C778 2.825 . S
Tb768 O779 2.347 . S
Tb768 O782 2.366 . S
Tb768 O787 2.418 . S
Tb768 O788 2.384 . S
Tb768 O791 2.479 . S
Tb768 O792 2.471 . S
Eu769 O780 2.418 . S
Eu769 O781 2.384 . S
Eu769 O784 2.479 . S
Eu769 O785 2.471 . S
Eu769 O786 2.347 . S
Eu769 O789 2.366 . S
Eu769 C799 2.825 . S
C770 O786 1.259 . S
C770 O787 1.265 . S
C771 O788 1.255 . S
C771 O789 1.265 . S
C772 C774 1.380 . S
C772 C775 1.374 . S
C772 C778 1.507 . S
C773 C774 1.384 . S
C773 C777 1.387 . S
C773 H800 0.930 . S
C774 C772 1.380 . S
C774 C773 1.384 . S
C774 H801 0.931 . S
C775 C772 1.374 . S
C775 C776 1.390 . S
C775 H802 0.930 . S
C776 C775 1.390 . S
C776 C777 1.391 . S
C776 H803 0.930 . S
C777 C773 1.387 . S
C777 C776 1.391 . S
C778 Tb768 2.825 . S
C778 C772 1.507 . S
C778 O791 1.238 . S
C778 O792 1.247 . S
O779 Tb768 2.347 . S
O779 C783 1.259 . S
O780 Eu769 2.418 . S
O780 C783 1.265 . S
O781 Eu769 2.384 . S
O781 C790 1.255 . S
O782 Tb768 2.366 . S
O782 C790 1.265 . S
C783 O779 1.259 . S
C783 O780 1.265 . S
O784 Eu769 2.479 . S
O784 C799 1.238 . S
O785 Eu769 2.471 . S
O785 C799 1.247 . S
O786 Eu769 2.347 . S
O786 C770 1.259 . S
O787 Tb768 2.418 . S
O787 C770 1.265 . S
O788 Tb768 2.384 . S
O788 C771 1.255 . S
O789 Eu769 2.366 . S
O789 C771 1.265 . S
C790 O781 1.255 . S
C790 O782 1.265 . S
O791 Tb768 2.479 . S
O791 C778 1.238 . S
O792 Tb768 2.471 . S
O792 C778 1.247 . S
C793 C796 1.380 . S
C793 C797 1.374 . S
C793 C799 1.507 . S
C794 C795 1.387 . S
C794 C798 1.391 . S
C795 C794 1.387 . S
C795 C796 1.384 . S
C795 H804 0.930 . S
C796 C793 1.380 . S
C796 C795 1.384 . S
C796 H805 0.931 . S
C797 C793 1.374 . S
C797 C798 1.390 . S
C797 H806 0.930 . S
C798 C794 1.391 . S
C798 C797 1.390 . S
C798 H807 0.930 . S
C799 Eu769 2.825 . S
C799 O784 1.238 . S
C799 O785 1.247 . S
C799 C793 1.507 . S
H800 C773 0.930 . S
H801 C774 0.931 . S
H802 C775 0.930 . S
H803 C776 0.930 . S
H804 C795 0.930 . S
H805 C796 0.931 . S
H806 C797 0.930 . S
H807 C798 0.930 . S
Tb808 C818 2.825 . S
Tb808 O819 2.347 . S
Tb808 O822 2.366 . S
Tb808 O827 2.418 . S
Tb808 O828 2.384 . S
Tb808 O831 2.479 . S
Tb808 O832 2.471 . S
Eu809 O820 2.418 . S
Eu809 O821 2.384 . S
Eu809 O824 2.479 . S
Eu809 O825 2.471 . S
Eu809 O826 2.347 . S
Eu809 O829 2.366 . S
Eu809 C839 2.825 . S
C810 O826 1.259 . S
C810 O827 1.265 . S
C811 O828 1.255 . S
C811 O829 1.265 . S
C812 C814 1.380 . S
C812 C815 1.374 . S
C812 C818 1.507 . S
C813 C814 1.384 . S
C813 C817 1.387 . S
C813 H840 0.930 . S
C814 C812 1.380 . S
C814 C813 1.384 . S
C814 H841 0.931 . S
C815 C812 1.374 . S
C815 C816 1.390 . S
C815 H842 0.930 . S
C816 C815 1.390 . S
C816 C817 1.391 . S
C816 H843 0.930 . S
C817 C813 1.387 . S
C817 C816 1.391 . S
C818 Tb808 2.825 . S
C818 C812 1.507 . S
C818 O831 1.238 . S
C818 O832 1.247 . S
O819 Tb808 2.347 . S
O819 C823 1.259 . S
O820 Eu809 2.418 . S
O820 C823 1.265 . S
O821 Eu809 2.384 . S
O821 C830 1.255 . S
O822 Tb808 2.366 . S
O822 C830 1.265 . S
C823 O819 1.259 . S
C823 O820 1.265 . S
O824 Eu809 2.479 . S
O824 C839 1.238 . S
O825 Eu809 2.471 . S
O825 C839 1.247 . S
O826 Eu809 2.347 . S
O826 C810 1.259 . S
O827 Tb808 2.418 . S
O827 C810 1.265 . S
O828 Tb808 2.384 . S
O828 C811 1.255 . S
O829 Eu809 2.366 . S
O829 C811 1.265 . S
C830 O821 1.255 . S
C830 O822 1.265 . S
O831 Tb808 2.479 . S
O831 C818 1.238 . S
O832 Tb808 2.471 . S
O832 C818 1.247 . S
C833 C836 1.380 . S
C833 C837 1.374 . S
C833 C839 1.507 . S
C834 C835 1.387 . S
C834 C838 1.391 . S
C835 C834 1.387 . S
C835 C836 1.384 . S
C835 H844 0.930 . S
C836 C833 1.380 . S
C836 C835 1.384 . S
C836 H845 0.931 . S
C837 C833 1.374 . S
C837 C838 1.390 . S
C837 H846 0.930 . S
C838 C834 1.391 . S
C838 C837 1.390 . S
C838 H847 0.930 . S
C839 Eu809 2.825 . S
C839 O824 1.238 . S
C839 O825 1.247 . S
C839 C833 1.507 . S
H840 C813 0.930 . S
H841 C814 0.931 . S
H842 C815 0.930 . S
H843 C816 0.930 . S
H844 C835 0.930 . S
H845 C836 0.931 . S
H846 C837 0.930 . S
H847 C838 0.930 . S
Tb848 C858 2.825 . S
Tb848 O859 2.347 . S
Tb848 O862 2.366 . S
Tb848 O867 2.418 . S
Tb848 O868 2.384 . S
Tb848 O871 2.479 . S
Tb848 O872 2.471 . S
Eu849 O860 2.418 . S
Eu849 O861 2.384 . S
Eu849 O864 2.479 . S
Eu849 O865 2.471 . S
Eu849 O866 2.347 . S
Eu849 O869 2.366 . S
Eu849 C879 2.825 . S
C850 O866 1.259 . S
C850 O867 1.265 . S
C851 O868 1.255 . S
C851 O869 1.265 . S
C852 C854 1.380 . S
C852 C855 1.374 . S
C852 C858 1.507 . S
C853 C854 1.384 . S
C853 C857 1.387 . S
C853 H880 0.930 . S
C854 C852 1.380 . S
C854 C853 1.384 . S
C854 H881 0.931 . S
C855 C852 1.374 . S
C855 C856 1.390 . S
C855 H882 0.930 . S
C856 C855 1.390 . S
C856 C857 1.391 . S
C856 H883 0.930 . S
C857 C853 1.387 . S
C857 C856 1.391 . S
C858 Tb848 2.825 . S
C858 C852 1.507 . S
C858 O871 1.238 . S
C858 O872 1.247 . S
O859 Tb848 2.347 . S
O859 C863 1.259 . S
O860 Eu849 2.418 . S
O860 C863 1.265 . S
O861 Eu849 2.384 . S
O861 C870 1.255 . S
O862 Tb848 2.366 . S
O862 C870 1.265 . S
C863 O859 1.259 . S
C863 O860 1.265 . S
O864 Eu849 2.479 . S
O864 C879 1.238 . S
O865 Eu849 2.471 . S
O865 C879 1.247 . S
O866 Eu849 2.347 . S
O866 C850 1.259 . S
O867 Tb848 2.418 . S
O867 C850 1.265 . S
O868 Tb848 2.384 . S
O868 C851 1.255 . S
O869 Eu849 2.366 . S
O869 C851 1.265 . S
C870 O861 1.255 . S
C870 O862 1.265 . S
O871 Tb848 2.479 . S
O871 C858 1.238 . S
O872 Tb848 2.471 . S
O872 C858 1.247 . S
C873 C876 1.380 . S
C873 C877 1.374 . S
C873 C879 1.507 . S
C874 C875 1.387 . S
C874 C878 1.391 . S
C875 C874 1.387 . S
C875 C876 1.384 . S
C875 H884 0.930 . S
C876 C873 1.380 . S
C876 C875 1.384 . S
C876 H885 0.931 . S
C877 C873 1.374 . S
C877 C878 1.390 . S
C877 H886 0.930 . S
C878 C874 1.391 . S
C878 C877 1.390 . S
C878 H887 0.930 . S
C879 Eu849 2.825 . S
C879 O864 1.238 . S
C879 O865 1.247 . S
C879 C873 1.507 . S
H880 C853 0.930 . S
H881 C854 0.931 . S
H882 C855 0.930 . S
H883 C856 0.930 . S
H884 C875 0.930 . S
H885 C876 0.931 . S
H886 C877 0.930 . S
H887 C878 0.930 . S
Tb888 C898 2.825 . S
Tb888 O899 2.347 . S
Tb888 O902 2.366 . S
Tb888 O907 2.418 . S
Tb888 O908 2.384 . S
Tb888 O911 2.479 . S
Tb888 O912 2.471 . S
Eu889 O900 2.418 . S
Eu889 O901 2.384 . S
Eu889 O904 2.479 . S
Eu889 O905 2.471 . S
Eu889 O906 2.347 . S
Eu889 O909 2.366 . S
Eu889 C919 2.825 . S
C890 O906 1.259 . S
C890 O907 1.265 . S
C891 O908 1.255 . S
C891 O909 1.265 . S
C892 C894 1.380 . S
C892 C895 1.374 . S
C892 C898 1.507 . S
C893 C894 1.384 . S
C893 C897 1.387 . S
C893 H920 0.930 . S
C894 C892 1.380 . S
C894 C893 1.384 . S
C894 H921 0.931 . S
C895 C892 1.374 . S
C895 C896 1.390 . S
C895 H922 0.930 . S
C896 C895 1.390 . S
C896 C897 1.391 . S
C896 H923 0.930 . S
C897 C893 1.387 . S
C897 C896 1.391 . S
C898 Tb888 2.825 . S
C898 C892 1.507 . S
C898 O911 1.238 . S
C898 O912 1.247 . S
O899 Tb888 2.347 . S
O899 C903 1.259 . S
O900 Eu889 2.418 . S
O900 C903 1.265 . S
O901 Eu889 2.384 . S
O901 C910 1.255 . S
O902 Tb888 2.366 . S
O902 C910 1.265 . S
C903 O899 1.259 . S
C903 O900 1.265 . S
O904 Eu889 2.479 . S
O904 C919 1.238 . S
O905 Eu889 2.471 . S
O905 C919 1.247 . S
O906 Eu889 2.347 . S
O906 C890 1.259 . S
O907 Tb888 2.418 . S
O907 C890 1.265 . S
O908 Tb888 2.384 . S
O908 C891 1.255 . S
O909 Eu889 2.366 . S
O909 C891 1.265 . S
C910 O901 1.255 . S
C910 O902 1.265 . S
O911 Tb888 2.479 . S
O911 C898 1.238 . S
O912 Tb888 2.471 . S
O912 C898 1.247 . S
C913 C916 1.380 . S
C913 C917 1.374 . S
C913 C919 1.507 . S
C914 C915 1.387 . S
C914 C918 1.391 . S
C915 C914 1.387 . S
C915 C916 1.384 . S
C915 H924 0.930 . S
C916 C913 1.380 . S
C916 C915 1.384 . S
C916 H925 0.931 . S
C917 C913 1.374 . S
C917 C918 1.390 . S
C917 H926 0.930 . S
C918 C914 1.391 . S
C918 C917 1.390 . S
C918 H927 0.930 . S
C919 Eu889 2.825 . S
C919 O904 1.238 . S
C919 O905 1.247 . S
C919 C913 1.507 . S
H920 C893 0.930 . S
H921 C894 0.931 . S
H922 C895 0.930 . S
H923 C896 0.930 . S
H924 C915 0.930 . S
H925 C916 0.931 . S
H926 C917 0.930 . S
H927 C918 0.930 . S
Tb928 C938 2.825 . S
Tb928 O939 2.347 . S
Tb928 O942 2.366 . S
Tb928 O947 2.418 . S
Tb928 O948 2.384 . S
Tb928 O951 2.479 . S
Tb928 O952 2.471 . S
Eu929 O940 2.418 . S
Eu929 O941 2.384 . S
Eu929 O944 2.479 . S
Eu929 O945 2.471 . S
Eu929 O946 2.347 . S
Eu929 O949 2.366 . S
Eu929 C959 2.825 . S
C930 O946 1.259 . S
C930 O947 1.265 . S
C931 O948 1.255 . S
C931 O949 1.265 . S
C932 C934 1.380 . S
C932 C935 1.374 . S
C932 C938 1.507 . S
C933 C934 1.384 . S
C933 C937 1.387 . S
C933 H960 0.930 . S
C934 C932 1.380 . S
C934 C933 1.384 . S
C934 H961 0.931 . S
C935 C932 1.374 . S
C935 C936 1.390 . S
C935 H962 0.930 . S
C936 C935 1.390 . S
C936 C937 1.391 . S
C936 H963 0.930 . S
C937 C933 1.387 . S
C937 C936 1.391 . S
C938 Tb928 2.825 . S
C938 C932 1.507 . S
C938 O951 1.238 . S
C938 O952 1.247 . S
O939 Tb928 2.347 . S
O939 C943 1.259 . S
O940 Eu929 2.418 . S
O940 C943 1.265 . S
O941 Eu929 2.384 . S
O941 C950 1.255 . S
O942 Tb928 2.366 . S
O942 C950 1.265 . S
C943 O939 1.259 . S
C943 O940 1.265 . S
O944 Eu929 2.479 . S
O944 C959 1.238 . S
O945 Eu929 2.471 . S
O945 C959 1.247 . S
O946 Eu929 2.347 . S
O946 C930 1.259 . S
O947 Tb928 2.418 . S
O947 C930 1.265 . S
O948 Tb928 2.384 . S
O948 C931 1.255 . S
O949 Eu929 2.366 . S
O949 C931 1.265 . S
C950 O941 1.255 . S
C950 O942 1.265 . S
O951 Tb928 2.479 . S
O951 C938 1.238 . S
O952 Tb928 2.471 . S
O952 C938 1.247 . S
C953 C956 1.380 . S
C953 C957 1.374 . S
C953 C959 1.507 . S
C954 C955 1.387 . S
C954 C958 1.391 . S
C955 C954 1.387 . S
C955 C956 1.384 . S
C955 H964 0.930 . S
C956 C953 1.380 . S
C956 C955 1.384 . S
C956 H965 0.931 . S
C957 C953 1.374 . S
C957 C958 1.390 . S
C957 H966 0.930 . S
C958 C954 1.391 . S
C958 C957 1.390 . S
C958 H967 0.930 . S
C959 Eu929 2.825 . S
C959 O944 1.238 . S
C959 O945 1.247 . S
C959 C953 1.507 . S
H960 C933 0.930 . S
H961 C934 0.931 . S
H962 C935 0.930 . S
H963 C936 0.930 . S
H964 C955 0.930 . S
H965 C956 0.931 . S
H966 C957 0.930 . S
H967 C958 0.930 . S
Tb968 C978 2.825 . S
Tb968 O979 2.347 . S
Tb968 O982 2.366 . S
Tb968 O987 2.418 . S
Tb968 O988 2.384 . S
Tb968 O991 2.479 . S
Tb968 O992 2.471 . S
Eu969 O980 2.418 . S
Eu969 O981 2.384 . S
Eu969 O984 2.479 . S
Eu969 O985 2.471 . S
Eu969 O986 2.347 . S
Eu969 O989 2.366 . S
Eu969 C999 2.825 . S
C970 O986 1.259 . S
C970 O987 1.265 . S
C971 O988 1.255 . S
C971 O989 1.265 . S
C972 C974 1.380 . S
C972 C975 1.374 . S
C972 C978 1.507 . S
C973 C974 1.384 . S
C973 C977 1.387 . S
C973 H1000 0.930 . S
C974 C972 1.380 . S
C974 C973 1.384 . S
C974 H1001 0.931 . S
C975 C972 1.374 . S
C975 C976 1.390 . S
C975 H1002 0.930 . S
C976 C975 1.390 . S
C976 C977 1.391 . S
C976 H1003 0.930 . S
C977 C973 1.387 . S
C977 C976 1.391 . S
C978 Tb968 2.825 . S
C978 C972 1.507 . S
C978 O991 1.238 . S
C978 O992 1.247 . S
O979 Tb968 2.347 . S
O979 C983 1.259 . S
O980 Eu969 2.418 . S
O980 C983 1.265 . S
O981 Eu969 2.384 . S
O981 C990 1.255 . S
O982 Tb968 2.366 . S
O982 C990 1.265 . S
C983 O979 1.259 . S
C983 O980 1.265 . S
O984 Eu969 2.479 . S
O984 C999 1.238 . S
O985 Eu969 2.471 . S
O985 C999 1.247 . S
O986 Eu969 2.347 . S
O986 C970 1.259 . S
O987 Tb968 2.418 . S
O987 C970 1.265 . S
O988 Tb968 2.384 . S
O988 C971 1.255 . S
O989 Eu969 2.366 . S
O989 C971 1.265 . S
C990 O981 1.255 . S
C990 O982 1.265 . S
O991 Tb968 2.479 . S
O991 C978 1.238 . S
O992 Tb968 2.471 . S
O992 C978 1.247 . S
C993 C996 1.380 . S
C993 C997 1.374 . S
C993 C999 1.507 . S
C994 C995 1.387 . S
C994 C998 1.391 . S
C995 C994 1.387 . S
C995 C996 1.384 . S
C995 H1004 0.930 . S
C996 C993 1.380 . S
C996 C995 1.384 . S
C996 H1005 0.931 . S
C997 C993 1.374 . S
C997 C998 1.390 . S
C997 H1006 0.930 . S
C998 C994 1.391 . S
C998 C997 1.390 . S
C998 H1007 0.930 . S
C999 Eu969 2.825 . S
C999 O984 1.238 . S
C999 O985 1.247 . S
C999 C993 1.507 . S
H1000 C973 0.930 . S
H1001 C974 0.931 . S
H1002 C975 0.930 . S
H1003 C976 0.930 . S
H1004 C995 0.930 . S
H1005 C996 0.931 . S
H1006 C997 0.930 . S
H1007 C998 0.930 . S
C1008 C1009 1.391 . S
C1008 C1010 1.394 . S
C1008 H1024 0.931 . S
C1009 C1008 1.391 . S
C1009 C1013 1.376 . S
C1010 C1008 1.394 . S
C1010 C1011 1.369 . S
C1010 C1014 1.531 . S
C1011 C1010 1.369 . S
C1011 C1012 1.410 . S
C1011 C1019 1.503 . S
C1012 C1011 1.410 . S
C1012 C1013 1.392 . S
C1012 C1015 1.511 . S
C1013 C1009 1.376 . S
C1013 C1012 1.392 . S
C1013 H1025 0.929 . S
C1014 C1010 1.531 . S
C1014 H1026 0.960 . S
C1014 H1027 0.962 . S
C1014 H1028 0.960 . S
C1015 C1012 1.511 . S
C1015 H1029 0.961 . S
C1015 H1030 0.961 . S
C1015 H1031 0.961 . S
C1016 C1017 1.370 . S
C1016 C1018 1.363 . S
C1016 H1032 0.931 . S
C1017 C1016 1.370 . S
C1017 C1021 1.408 . S
C1018 C1016 1.363 . S
C1018 C1019 1.370 . S
C1018 C1022 1.524 . S
C1019 C1011 1.503 . S
C1019 C1018 1.370 . S
C1019 C1020 1.403 . S
C1020 C1019 1.403 . S
C1020 C1021 1.404 . S
C1020 C1023 1.526 1_554 S
C1021 C1017 1.408 . S
C1021 C1020 1.404 . S
C1021 H1033 0.930 1_554 S
C1022 C1018 1.524 . S
C1022 H1034 0.956 . S
C1022 H1035 0.961 . S
C1022 H1036 0.961 . S
C1023 C1020 1.526 1_556 S
C1023 H1037 0.968 . S
C1023 H1038 0.975 . S
C1023 H1039 0.949 1_556 S
H1024 C1008 0.931 . S
H1025 C1013 0.929 . S
H1026 C1014 0.960 . S
H1027 C1014 0.962 . S
H1028 C1014 0.960 . S
H1029 C1015 0.961 . S
H1030 C1015 0.961 . S
H1031 C1015 0.961 . S
H1032 C1016 0.931 . S
H1033 C1021 0.930 1_556 S
H1034 C1022 0.956 . S
H1035 C1022 0.961 . S
H1036 C1022 0.961 . S
H1037 C1023 0.968 . S
H1038 C1023 0.975 . S
H1039 C1023 0.949 1_554 S
C1040 C1041 1.391 . S
C1040 C1042 1.394 . S
C1040 H1056 0.931 . S
C1041 C1040 1.391 . S
C1041 C1045 1.376 . S
C1042 C1040 1.394 . S
C1042 C1043 1.369 . S
C1042 C1046 1.531 . S
C1043 C1042 1.369 . S
C1043 C1044 1.410 . S
C1043 C1051 1.503 . S
C1044 C1043 1.410 . S
C1044 C1045 1.392 . S
C1044 C1047 1.511 . S
C1045 C1041 1.376 . S
C1045 C1044 1.392 . S
C1045 H1057 0.929 . S
C1046 C1042 1.531 . S
C1046 H1058 0.960 . S
C1046 H1059 0.962 . S
C1046 H1060 0.960 . S
C1047 C1044 1.511 . S
C1047 H1061 0.961 . S
C1047 H1062 0.961 . S
C1047 H1063 0.961 . S
C1048 C1049 1.370 . S
C1048 C1050 1.363 . S
C1048 H1064 0.931 . S
C1049 C1048 1.370 . S
C1049 C1053 1.408 . S
C1050 C1048 1.363 . S
C1050 C1051 1.370 . S
C1050 C1054 1.524 . S
C1051 C1043 1.503 . S
C1051 C1050 1.370 . S
C1051 C1052 1.403 . S
C1052 C1051 1.403 . S
C1052 C1053 1.404 . S
C1052 C1055 1.539 . S
C1053 C1049 1.408 . S
C1053 C1052 1.404 . S
C1053 H1065 0.930 . S
C1054 C1050 1.524 . S
C1054 H1066 0.956 . S
C1054 H1067 0.961 . S
C1054 H1068 0.961 . S
C1055 C1052 1.539 . S
C1055 H1069 0.972 . S
C1055 H1070 0.961 1_554 S
C1055 H1071 0.960 . S
H1056 C1040 0.931 . S
H1057 C1045 0.929 . S
H1058 C1046 0.960 . S
H1059 C1046 0.962 . S
H1060 C1046 0.960 . S
H1061 C1047 0.961 . S
H1062 C1047 0.961 . S
H1063 C1047 0.961 . S
H1064 C1048 0.931 . S
H1065 C1053 0.930 . S
H1066 C1054 0.956 . S
H1067 C1054 0.961 . S
H1068 C1054 0.961 . S
H1069 C1055 0.972 . S
H1070 C1055 0.961 1_556 S
H1071 C1055 0.960 . S
C1072 C1073 1.391 . S
C1072 C1074 1.394 . S
C1072 H1088 0.931 . S
C1073 C1072 1.391 . S
C1073 C1077 1.376 . S
C1074 C1072 1.394 . S
C1074 C1075 1.369 . S
C1074 C1078 1.531 . S
C1075 C1074 1.369 . S
C1075 C1076 1.410 . S
C1075 C1083 1.503 . S
C1076 C1075 1.410 . S
C1076 C1077 1.392 . S
C1076 C1079 1.511 . S
C1077 C1073 1.376 . S
C1077 C1076 1.392 . S
C1077 H1089 0.929 . S
C1078 C1074 1.531 . S
C1078 H1090 0.960 1_554 S
C1078 H1091 0.962 . S
C1078 H1092 0.960 1_554 S
C1079 C1076 1.511 . S
C1079 H1093 0.961 . S
C1079 H1094 0.961 . S
C1079 H1095 0.961 . S
C1080 C1081 1.370 . S
C1080 C1082 1.363 . S
C1080 H1096 0.931 . S
C1081 C1080 1.370 . S
C1081 C1085 1.408 . S
C1082 C1080 1.363 . S
C1082 C1083 1.370 . S
C1082 C1086 1.524 . S
C1083 C1075 1.503 . S
C1083 C1082 1.370 . S
C1083 C1084 1.403 . S
C1084 C1083 1.403 . S
C1084 C1085 1.404 . S
C1084 C1087 1.539 1_554 S
C1085 C1081 1.408 . S
C1085 C1084 1.404 . S
C1085 H1097 0.930 1_554 S
C1086 C1082 1.524 . S
C1086 H1098 0.956 . S
C1086 H1099 0.961 . S
C1086 H1100 0.961 . S
C1087 C1084 1.539 1_556 S
C1087 H1101 0.958 . S
C1087 H1102 0.961 . S
C1087 H1103 0.983 . S
H1088 C1072 0.931 . S
H1089 C1077 0.929 . S
H1090 C1078 0.960 1_556 S
H1091 C1078 0.962 . S
H1092 C1078 0.960 1_556 S
H1093 C1079 0.961 . S
H1094 C1079 0.961 . S
H1095 C1079 0.961 . S
H1096 C1080 0.931 . S
H1097 C1085 0.930 1_556 S
H1098 C1086 0.956 . S
H1099 C1086 0.961 . S
H1100 C1086 0.961 . S
H1101 C1087 0.958 . S
H1102 C1087 0.961 . S
H1103 C1087 0.983 . S
C1104 C1105 1.391 . S
C1104 C1106 1.394 . S
C1104 H1120 0.931 . S
C1105 C1104 1.391 . S
C1105 C1109 1.376 . S
C1106 C1104 1.394 . S
C1106 C1107 1.369 . S
C1106 C1110 1.531 . S
C1107 C1106 1.369 . S
C1107 C1108 1.410 . S
C1107 C1115 1.503 . S
C1108 C1107 1.410 . S
C1108 C1109 1.392 . S
C1108 C1111 1.511 . S
C1109 C1105 1.376 . S
C1109 C1108 1.392 . S
C1109 H1121 0.929 . S
C1110 C1106 1.531 . S
C1110 H1122 0.960 . S
C1110 H1123 0.962 . S
C1110 H1124 0.960 . S
C1111 C1108 1.511 . S
C1111 H1125 0.961 1_556 S
C1111 H1126 0.961 1_556 S
C1111 H1127 0.961 . S
C1112 C1113 1.370 . S
C1112 C1114 1.363 . S
C1112 H1128 0.931 . S
C1113 C1112 1.370 . S
C1113 C1117 1.408 . S
C1114 C1112 1.363 . S
C1114 C1115 1.370 . S
C1114 C1118 1.524 . S
C1115 C1107 1.503 . S
C1115 C1114 1.370 . S
C1115 C1116 1.403 . S
C1116 C1115 1.403 . S
C1116 C1117 1.404 . S
C1116 C1119 1.539 . S
C1117 C1113 1.408 . S
C1117 C1116 1.404 . S
C1117 H1129 0.930 . S
C1118 C1114 1.524 . S
C1118 H1130 0.956 . S
C1118 H1131 0.961 . S
C1118 H1132 0.964 1_556 S
C1119 C1116 1.539 . S
C1119 H1133 0.958 . S
C1119 H1134 0.961 . S
C1119 H1135 0.960 . S
H1120 C1104 0.931 . S
H1121 C1109 0.929 . S
H1122 C1110 0.960 . S
H1123 C1110 0.962 . S
H1124 C1110 0.960 . S
H1125 C1111 0.961 1_554 S
H1126 C1111 0.961 1_554 S
H1127 C1111 0.961 . S
H1128 C1112 0.931 . S
H1129 C1117 0.930 . S
H1130 C1118 0.956 . S
H1131 C1118 0.961 . S
H1132 C1118 0.964 1_554 S
H1133 C1119 0.958 . S
H1134 C1119 0.961 . S
H1135 C1119 0.960 . S
C1136 C1137 1.391 . S
C1136 C1138 1.394 . S
C1136 H1152 0.931 . S
C1137 C1136 1.391 . S
C1137 C1141 1.376 . S
C1138 C1136 1.394 . S
C1138 C1139 1.369 . S
C1138 C1142 1.531 . S
C1139 C1138 1.369 . S
C1139 C1140 1.410 . S
C1139 C1147 1.503 . S
C1140 C1139 1.410 . S
C1140 C1141 1.392 . S
C1140 C1143 1.511 . S
C1141 C1137 1.376 . S
C1141 C1140 1.392 . S
C1141 H1153 0.929 . S
C1142 C1138 1.531 . S
C1142 H1154 0.960 . S
C1142 H1155 0.962 . S
C1142 H1156 0.960 . S
C1143 C1140 1.511 . S
C1143 H1157 0.961 . S
C1143 H1158 0.961 . S
C1143 H1159 0.961 . S
C1144 C1145 1.370 . S
C1144 C1146 1.363 . S
C1144 H1160 0.931 . S
C1145 C1144 1.370 . S
C1145 C1149 1.408 . S
C1146 C1144 1.363 . S
C1146 C1147 1.370 . S
C1146 C1150 1.524 . S
C1147 C1139 1.503 . S
C1147 C1146 1.370 . S
C1147 C1148 1.403 . S
C1148 C1147 1.403 . S
C1148 C1149 1.404 . S
C1148 C1151 1.539 . S
C1149 C1145 1.408 . S
C1149 C1148 1.404 . S
C1149 H1161 0.930 . S
C1150 C1146 1.524 . S
C1150 H1162 0.956 . S
C1150 H1163 0.961 . S
C1150 H1164 0.961 . S
C1151 C1148 1.539 . S
C1151 H1165 0.958 . S
C1151 H1166 0.961 . S
C1151 H1167 0.960 . S
H1152 C1136 0.931 . S
H1153 C1141 0.929 . S
H1154 C1142 0.960 . S
H1155 C1142 0.962 . S
H1156 C1142 0.960 . S
H1157 C1143 0.961 . S
H1158 C1143 0.961 . S
H1159 C1143 0.961 . S
H1160 C1144 0.931 . S
H1161 C1149 0.930 . S
H1162 C1150 0.956 . S
H1163 C1150 0.961 . S
H1164 C1150 0.961 . S
H1165 C1151 0.958 . S
H1166 C1151 0.961 . S
H1167 C1151 0.960 . S
C1168 C1169 1.391 . S
C1168 C1170 1.394 . S
C1168 H1184 0.931 . S
C1169 C1168 1.391 . S
C1169 C1173 1.376 . S
C1170 C1168 1.394 . S
C1170 C1171 1.369 . S
C1170 C1174 1.531 . S
C1171 C1170 1.369 . S
C1171 C1172 1.410 . S
C1171 C1179 1.503 . S
C1172 C1171 1.410 . S
C1172 C1173 1.392 . S
C1172 C1175 1.511 . S
C1173 C1169 1.376 . S
C1173 C1172 1.392 . S
C1173 H1185 0.929 . S
C1174 C1170 1.531 . S
C1174 H1186 0.960 . S
C1174 H1187 0.962 . S
C1174 H1188 0.960 . S
C1175 C1172 1.511 . S
C1175 H1189 0.961 . S
C1175 H1190 0.961 . S
C1175 H1191 0.961 . S
C1176 C1177 1.338 1_554 S
C1176 C1178 1.348 1_554 S
C1176 H1192 0.981 . S
C1177 C1176 1.338 1_556 S
C1177 C1181 1.408 . S
C1178 C1176 1.348 1_556 S
C1178 C1179 1.370 . S
C1178 C1182 1.524 1_556 S
C1179 C1171 1.503 . S
C1179 C1178 1.370 . S
C1179 C1180 1.403 . S
C1180 C1179 1.403 . S
C1180 C1181 1.404 . S
C1180 C1183 1.539 . S
C1181 C1177 1.408 . S
C1181 C1180 1.404 . S
C1181 H1193 0.930 . S
C1182 C1178 1.524 1_554 S
C1182 H1194 0.956 . S
C1182 H1195 0.961 . S
C1182 H1196 0.961 . S
C1183 C1180 1.539 . S
C1183 H1197 0.958 . S
C1183 H1198 0.961 . S
C1183 H1199 0.960 . S
H1184 C1168 0.931 . S
H1185 C1173 0.929 . S
H1186 C1174 0.960 . S
H1187 C1174 0.962 . S
H1188 C1174 0.960 . S
H1189 C1175 0.961 . S
H1190 C1175 0.961 . S
H1191 C1175 0.961 . S
H1192 C1176 0.981 . S
H1193 C1181 0.930 . S
H1194 C1182 0.956 . S
H1195 C1182 0.961 . S
H1196 C1182 0.961 . S
H1197 C1183 0.958 . S
H1198 C1183 0.961 . S
H1199 C1183 0.960 . S
C1200 C1201 1.391 . S
C1200 C1202 1.394 . S
C1200 H1216 0.931 . S
C1201 C1200 1.391 . S
C1201 C1205 1.376 . S
C1202 C1200 1.394 . S
C1202 C1203 1.369 . S
C1202 C1206 1.531 . S
C1203 C1202 1.369 . S
C1203 C1204 1.410 . S
C1203 C1211 1.503 . S
C1204 C1203 1.410 . S
C1204 C1205 1.392 . S
C1204 C1207 1.511 . S
C1205 C1201 1.376 . S
C1205 C1204 1.392 . S
C1205 H1217 0.929 . S
C1206 C1202 1.531 . S
C1206 H1218 0.960 . S
C1206 H1219 0.962 . S
C1206 H1220 0.960 . S
C1207 C1204 1.511 . S
C1207 H1221 0.961 1_556 S
C1207 H1222 0.964 . S
C1207 H1223 0.961 1_556 S
C1208 C1209 1.370 . S
C1208 C1210 1.363 . S
C1208 H1224 0.931 . S
C1209 C1208 1.370 . S
C1209 C1213 1.408 . S
C1210 C1208 1.363 . S
C1210 C1211 1.370 . S
C1210 C1214 1.524 . S
C1211 C1203 1.503 . S
C1211 C1210 1.370 . S
C1211 C1212 1.403 . S
C1212 C1211 1.403 . S
C1212 C1213 1.404 . S
C1212 C1215 1.539 . S
C1213 C1209 1.408 . S
C1213 C1212 1.404 . S
C1213 H1225 0.930 . S
C1214 C1210 1.524 . S
C1214 H1226 0.956 . S
C1214 H1227 0.961 . S
C1214 H1228 0.961 . S
C1215 C1212 1.539 . S
C1215 H1229 0.958 . S
C1215 H1230 0.961 . S
C1215 H1231 0.960 . S
H1216 C1200 0.931 . S
H1217 C1205 0.929 . S
H1218 C1206 0.960 . S
H1219 C1206 0.962 . S
H1220 C1206 0.960 . S
H1221 C1207 0.961 1_554 S
H1222 C1207 0.964 . S
H1223 C1207 0.961 1_554 S
H1224 C1208 0.931 . S
H1225 C1213 0.930 . S
H1226 C1214 0.956 . S
H1227 C1214 0.961 . S
H1228 C1214 0.961 . S
H1229 C1215 0.958 . S
H1230 C1215 0.961 . S
H1231 C1215 0.960 . S
C1232 C1233 1.391 . S
C1232 C1234 1.394 . S
C1232 H1248 0.931 . S
C1233 C1232 1.391 . S
C1233 C1237 1.376 . S
C1234 C1232 1.394 . S
C1234 C1235 1.369 . S
C1234 C1238 1.531 . S
C1235 C1234 1.369 . S
C1235 C1236 1.410 . S
C1235 C1243 1.503 . S
C1236 C1235 1.410 . S
C1236 C1237 1.392 . S
C1236 C1239 1.511 . S
C1237 C1233 1.376 . S
C1237 C1236 1.392 . S
C1237 H1249 0.929 . S
C1238 C1234 1.531 . S
C1238 H1250 0.960 . S
C1238 H1251 0.962 . S
C1238 H1252 0.960 . S
C1239 C1236 1.511 . S
C1239 H1253 0.961 . S
C1239 H1254 0.961 . S
C1239 H1255 0.961 . S
C1240 C1241 1.370 . S
C1240 C1242 1.363 . S
C1240 H1256 0.931 . S
C1241 C1240 1.370 . S
C1241 C1245 1.408 . S
C1242 C1240 1.363 . S
C1242 C1243 1.370 . S
C1242 C1246 1.524 . S
C1243 C1235 1.503 . S
C1243 C1242 1.370 . S
C1243 C1244 1.403 . S
C1244 C1243 1.403 . S
C1244 C1245 1.404 . S
C1244 C1247 1.539 . S
C1245 C1241 1.408 . S
C1245 C1244 1.404 . S
C1245 H1257 0.930 . S
C1246 C1242 1.524 . S
C1246 H1258 0.956 . S
C1246 H1259 0.961 . S
C1246 H1260 0.961 . S
C1247 C1244 1.539 . S
C1247 H1261 0.958 . S
C1247 H1262 0.961 . S
C1247 H1263 0.960 . S
H1248 C1232 0.931 . S
H1249 C1237 0.929 . S
H1250 C1238 0.960 . S
H1251 C1238 0.962 . S
H1252 C1238 0.960 . S
H1253 C1239 0.961 . S
H1254 C1239 0.961 . S
H1255 C1239 0.961 . S
H1256 C1240 0.931 . S
H1257 C1245 0.930 . S
H1258 C1246 0.956 . S
H1259 C1246 0.961 . S
H1260 C1246 0.961 . S
H1261 C1247 0.958 . S
H1262 C1247 0.961 . S
H1263 C1247 0.960 . S
C1264 C1265 1.391 . S
C1264 C1266 1.394 . S
C1264 H1280 0.931 . S
C1265 C1264 1.391 . S
C1265 C1269 1.376 . S
C1266 C1264 1.394 . S
C1266 C1267 1.369 . S
C1266 C1270 1.531 . S
C1267 C1266 1.369 . S
C1267 C1268 1.410 . S
C1267 C1275 1.503 . S
C1268 C1267 1.410 . S
C1268 C1269 1.392 . S
C1268 C1271 1.511 1_556 S
C1269 C1265 1.376 . S
C1269 C1268 1.392 . S
C1269 H1281 0.929 . S
C1270 C1266 1.531 . S
C1270 H1282 0.960 . S
C1270 H1283 0.962 . S
C1270 H1284 0.960 . S
C1271 C1268 1.511 1_554 S
C1271 H1285 0.961 . S
C1271 H1286 0.961 . S
C1271 H1287 0.961 1_554 S
C1272 C1273 1.370 . S
C1272 C1274 1.363 . S
C1272 H1288 0.931 1_556 S
C1273 C1272 1.370 . S
C1273 C1277 1.408 . S
C1274 C1272 1.363 . S
C1274 C1275 1.370 . S
C1274 C1278 1.511 1_556 S
C1275 C1267 1.503 . S
C1275 C1274 1.370 . S
C1275 C1276 1.403 . S
C1276 C1275 1.403 . S
C1276 C1277 1.404 . S
C1276 C1279 1.539 . S
C1277 C1273 1.408 . S
C1277 C1276 1.404 . S
C1277 H1289 0.930 . S
C1278 C1274 1.511 1_554 S
C1278 H1290 0.935 1_554 S
C1278 H1291 0.978 . S
C1278 H1292 0.978 . S
C1279 C1276 1.539 . S
C1279 H1293 0.958 . S
C1279 H1294 0.961 . S
C1279 H1295 0.960 . S
H1280 C1264 0.931 . S
H1281 C1269 0.929 . S
H1282 C1270 0.960 . S
H1283 C1270 0.962 . S
H1284 C1270 0.960 . S
H1285 C1271 0.961 . S
H1286 C1271 0.961 . S
H1287 C1271 0.961 1_556 S
H1288 C1272 0.931 1_554 S
H1289 C1277 0.930 . S
H1290 C1278 0.935 1_556 S
H1291 C1278 0.978 . S
H1292 C1278 0.978 . S
H1293 C1279 0.958 . S
H1294 C1279 0.961 . S
H1295 C1279 0.960 . S
C1296 C1297 1.391 . S
C1296 C1298 1.394 . S
C1296 H1312 0.931 . S
C1297 C1296 1.391 . S
C1297 C1301 1.376 . S
C1298 C1296 1.394 . S
C1298 C1299 1.369 . S
C1298 C1302 1.526 . S
C1299 C1298 1.369 . S
C1299 C1300 1.410 . S
C1299 C1307 1.503 . S
C1300 C1299 1.410 . S
C1300 C1301 1.392 . S
C1300 C1303 1.511 . S
C1301 C1297 1.376 . S
C1301 C1300 1.392 . S
C1301 H1313 0.929 . S
C1302 C1298 1.526 . S
C1302 H1314 0.961 1_554 S
C1302 H1315 0.962 1_554 S
C1302 H1316 0.964 1_554 S
C1303 C1300 1.511 . S
C1303 H1317 0.961 . S
C1303 H1318 0.961 . S
C1303 H1319 0.961 . S
C1304 C1305 1.370 . S
C1304 C1306 1.363 . S
C1304 H1320 0.931 . S
C1305 C1304 1.370 . S
C1305 C1309 1.408 . S
C1306 C1304 1.363 . S
C1306 C1307 1.370 . S
C1306 C1310 1.524 . S
C1307 C1299 1.503 . S
C1307 C1306 1.370 . S
C1307 C1308 1.403 . S
C1308 C1307 1.403 . S
C1308 C1309 1.404 . S
C1308 C1311 1.539 . S
C1309 C1305 1.408 . S
C1309 C1308 1.404 . S
C1309 H1321 0.930 . S
C1310 C1306 1.524 . S
C1310 H1322 0.956 . S
C1310 H1323 0.961 . S
C1310 H1324 0.961 . S
C1311 C1308 1.539 . S
C1311 H1325 0.958 . S
C1311 H1326 0.961 . S
C1311 H1327 0.960 . S
H1312 C1296 0.931 . S
H1313 C1301 0.929 . S
H1314 C1302 0.961 1_556 S
H1315 C1302 0.962 1_556 S
H1316 C1302 0.964 1_556 S
H1317 C1303 0.961 . S
H1318 C1303 0.961 . S
H1319 C1303 0.961 . S
H1320 C1304 0.931 . S
H1321 C1309 0.930 . S
H1322 C1310 0.956 . S
H1323 C1310 0.961 . S
H1324 C1310 0.961 . S
H1325 C1311 0.958 . S
H1326 C1311 0.961 . S
H1327 C1311 0.960 . S
C1328 C1329 1.391 . S
C1328 C1330 1.394 . S
C1328 H1344 0.931 . S
C1329 C1328 1.391 . S
C1329 C1333 1.376 . S
C1330 C1328 1.394 . S
C1330 C1331 1.369 . S
C1330 C1334 1.531 . S
C1331 C1330 1.369 . S
C1331 C1332 1.410 . S
C1331 C1339 1.503 . S
C1332 C1331 1.410 . S
C1332 C1333 1.392 . S
C1332 C1335 1.511 . S
C1333 C1329 1.376 . S
C1333 C1332 1.392 . S
C1333 H1345 0.929 . S
C1334 C1330 1.531 . S
C1334 H1346 0.960 . S
C1334 H1347 0.962 . S
C1334 H1348 0.960 . S
C1335 C1332 1.511 . S
C1335 H1349 0.961 . S
C1335 H1350 0.961 . S
C1335 H1351 0.961 . S
C1336 C1337 1.370 . S
C1336 C1338 1.363 . S
C1336 H1352 0.931 . S
C1337 C1336 1.370 . S
C1337 C1341 1.408 . S
C1338 C1336 1.363 . S
C1338 C1339 1.370 . S
C1338 C1342 1.524 . S
C1339 C1331 1.503 . S
C1339 C1338 1.370 . S
C1339 C1340 1.403 . S
C1340 C1339 1.403 . S
C1340 C1341 1.404 . S
C1340 C1343 1.539 . S
C1341 C1337 1.408 . S
C1341 C1340 1.404 . S
C1341 H1353 0.930 . S
C1342 C1338 1.524 . S
C1342 H1354 0.956 . S
C1342 H1355 0.961 . S
C1342 H1356 0.961 . S
C1343 C1340 1.539 . S
C1343 H1357 0.958 . S
C1343 H1358 0.961 1_554 S
C1343 H1359 0.960 . S
H1344 C1328 0.931 . S
H1345 C1333 0.929 . S
H1346 C1334 0.960 . S
H1347 C1334 0.962 . S
H1348 C1334 0.960 . S
H1349 C1335 0.961 . S
H1350 C1335 0.961 . S
H1351 C1335 0.961 . S
H1352 C1336 0.931 . S
H1353 C1341 0.930 . S
H1354 C1342 0.956 . S
H1355 C1342 0.961 . S
H1356 C1342 0.961 . S
H1357 C1343 0.958 . S
H1358 C1343 0.961 1_556 S
H1359 C1343 0.960 . S
C1360 C1361 1.391 . S
C1360 C1362 1.394 . S
C1360 H1376 0.931 . S
C1361 C1360 1.391 . S
C1361 C1365 1.376 . S
C1362 C1360 1.394 . S
C1362 C1363 1.369 . S
C1362 C1366 1.531 . S
C1363 C1362 1.369 . S
C1363 C1364 1.410 . S
C1363 C1371 1.503 . S
C1364 C1363 1.410 . S
C1364 C1365 1.392 . S
C1364 C1367 1.511 . S
C1365 C1361 1.376 . S
C1365 C1364 1.392 . S
C1365 H1377 0.929 . S
C1366 C1362 1.531 . S
C1366 H1378 0.950 1_554 S
C1366 H1379 0.962 . S
C1366 H1380 0.943 1_554 S
C1367 C1364 1.511 . S
C1367 H1381 0.961 . S
C1367 H1382 0.961 . S
C1367 H1383 0.961 . S
C1368 C1369 1.370 . S
C1368 C1370 1.363 . S
C1368 H1384 0.931 . S
C1369 C1368 1.370 . S
C1369 C1373 1.408 . S
C1370 C1368 1.363 . S
C1370 C1371 1.370 . S
C1370 C1374 1.524 . S
C1371 C1363 1.503 . S
C1371 C1370 1.370 . S
C1371 C1372 1.403 . S
C1372 C1371 1.403 . S
C1372 C1373 1.404 . S
C1372 C1375 1.539 1_554 S
C1373 C1369 1.408 . S
C1373 C1372 1.404 . S
C1373 H1385 0.930 1_554 S
C1374 C1370 1.524 . S
C1374 H1386 0.956 . S
C1374 H1387 0.961 . S
C1374 H1388 0.961 . S
C1375 C1372 1.539 1_556 S
C1375 H1389 0.958 . S
C1375 H1390 0.961 . S
C1375 H1391 0.957 1_556 S
H1376 C1360 0.931 . S
H1377 C1365 0.929 . S
H1378 C1366 0.950 1_556 S
H1379 C1366 0.962 . S
H1380 C1366 0.943 1_556 S
H1381 C1367 0.961 . S
H1382 C1367 0.961 . S
H1383 C1367 0.961 . S
H1384 C1368 0.931 . S
H1385 C1373 0.930 1_556 S
H1386 C1374 0.956 . S
H1387 C1374 0.961 . S
H1388 C1374 0.961 . S
H1389 C1375 0.958 . S
H1390 C1375 0.961 . S
H1391 C1375 0.957 1_554 S
C1392 C1393 1.391 . S
C1392 C1394 1.394 1_655 S
C1392 H1408 0.931 . S
C1393 C1392 1.391 . S
C1393 C1397 1.376 . S
C1394 C1392 1.394 1_455 S
C1394 C1395 1.369 . S
C1394 C1398 1.531 . S
C1395 C1394 1.369 . S
C1395 C1396 1.410 . S
C1395 C1403 1.503 . S
C1396 C1395 1.410 . S
C1396 C1397 1.392 1_455 S
C1396 C1399 1.511 . S
C1397 C1393 1.376 . S
C1397 C1396 1.392 1_655 S
C1397 H1409 0.929 . S
C1398 C1394 1.531 . S
C1398 H1410 0.960 . S
C1398 H1411 0.962 . S
C1398 H1412 0.960 . S
C1399 C1396 1.511 . S
C1399 H1413 0.961 . S
C1399 H1414 0.961 . S
C1399 H1415 0.961 . S
C1400 C1401 1.370 . S
C1400 C1402 1.363 . S
C1400 H1416 0.931 . S
C1401 C1400 1.370 . S
C1401 C1405 1.408 . S
C1402 C1400 1.363 . S
C1402 C1403 1.370 . S
C1402 C1406 1.524 . S
C1403 C1395 1.503 . S
C1403 C1402 1.370 . S
C1403 C1404 1.403 . S
C1404 C1403 1.403 . S
C1404 C1405 1.404 . S
C1404 C1407 1.539 . S
C1405 C1401 1.408 . S
C1405 C1404 1.404 . S
C1405 H1417 0.930 . S
C1406 C1402 1.524 . S
C1406 H1418 0.956 . S
C1406 H1419 0.961 . S
C1406 H1420 0.961 . S
C1407 C1404 1.539 . S
C1407 H1421 0.958 . S
C1407 H1422 0.961 . S
C1407 H1423 0.960 . S
H1408 C1392 0.931 . S
H1409 C1397 0.929 . S
H1410 C1398 0.960 . S
H1411 C1398 0.962 . S
H1412 C1398 0.960 . S
H1413 C1399 0.961 . S
H1414 C1399 0.961 . S
H1415 C1399 0.961 . S
H1416 C1400 0.931 . S
H1417 C1405 0.930 . S
H1418 C1406 0.956 . S
H1419 C1406 0.961 . S
H1420 C1406 0.961 . S
H1421 C1407 0.958 . S
H1422 C1407 0.961 . S
H1423 C1407 0.960 . S
C1424 C1425 1.391 . S
C1424 C1426 1.394 . S
C1424 H1440 0.931 . S
C1425 C1424 1.391 . S
C1425 C1429 1.376 . S
C1426 C1424 1.394 . S
C1426 C1427 1.369 . S
C1426 C1430 1.531 . S
C1427 C1426 1.369 . S
C1427 C1428 1.410 . S
C1427 C1435 1.503 . S
C1428 C1427 1.410 . S
C1428 C1429 1.392 . S
C1428 C1431 1.511 . S
C1429 C1425 1.376 . S
C1429 C1428 1.392 . S
C1429 H1441 0.929 . S
C1430 C1426 1.531 . S
C1430 H1442 0.960 . S
C1430 H1443 0.962 . S
C1430 H1444 0.960 . S
C1431 C1428 1.511 . S
C1431 H1445 0.961 . S
C1431 H1446 0.961 . S
C1431 H1447 0.961 . S
C1432 C1433 1.370 . S
C1432 C1434 1.363 . S
C1432 H1448 0.931 . S
C1433 C1432 1.370 . S
C1433 C1437 1.408 . S
C1434 C1432 1.363 . S
C1434 C1435 1.370 . S
C1434 C1438 1.524 . S
C1435 C1427 1.503 . S
C1435 C1434 1.370 . S
C1435 C1436 1.403 . S
C1436 C1435 1.403 . S
C1436 C1437 1.404 . S
C1436 C1439 1.539 . S
C1437 C1433 1.408 . S
C1437 C1436 1.404 . S
C1437 H1449 0.930 . S
C1438 C1434 1.524 . S
C1438 H1450 0.956 . S
C1438 H1451 0.961 . S
C1438 H1452 0.961 . S
C1439 C1436 1.539 . S
C1439 H1453 0.958 . S
C1439 H1454 0.961 . S
C1439 H1455 0.960 . S
H1440 C1424 0.931 . S
H1441 C1429 0.929 . S
H1442 C1430 0.960 . S
H1443 C1430 0.962 . S
H1444 C1430 0.960 . S
H1445 C1431 0.961 . S
H1446 C1431 0.961 . S
H1447 C1431 0.961 . S
H1448 C1432 0.931 . S
H1449 C1437 0.930 . S
H1450 C1438 0.956 . S
H1451 C1438 0.961 . S
H1452 C1438 0.961 . S
H1453 C1439 0.958 . S
H1454 C1439 0.961 . S
H1455 C1439 0.960 . S
C1456 C1457 1.391 . S
C1456 C1458 1.394 . S
C1456 H1472 0.931 . S
C1457 C1456 1.391 . S
C1457 C1461 1.376 . S
C1458 C1456 1.394 . S
C1458 C1459 1.369 1_545 S
C1458 C1462 1.531 1_545 S
C1459 C1458 1.369 1_565 S
C1459 C1460 1.410 1_565 S
C1459 C1467 1.503 . S
C1460 C1459 1.410 1_545 S
C1460 C1461 1.392 . S
C1460 C1463 1.511 1_545 S
C1461 C1457 1.376 . S
C1461 C1460 1.392 . S
C1461 H1473 0.929 . S
C1462 C1458 1.531 1_565 S
C1462 H1474 0.960 . S
C1462 H1475 0.962 . S
C1462 H1476 0.960 1_565 S
C1463 C1460 1.511 1_565 S
C1463 H1477 0.961 . S
C1463 H1478 0.961 . S
C1463 H1479 0.961 . S
C1464 C1465 1.370 . S
C1464 C1466 1.363 . S
C1464 H1480 0.931 . S
C1465 C1464 1.370 . S
C1465 C1469 1.408 . S
C1466 C1464 1.363 . S
C1466 C1467 1.370 . S
C1466 C1470 1.524 . S
C1467 C1459 1.503 . S
C1467 C1466 1.370 . S
C1467 C1468 1.403 . S
C1468 C1467 1.403 . S
C1468 C1469 1.404 . S
C1468 C1471 1.539 . S
C1469 C1465 1.408 . S
C1469 C1468 1.404 . S
C1469 H1481 0.930 . S
C1470 C1466 1.524 . S
C1470 H1482 0.956 . S
C1470 H1483 0.961 . S
C1470 H1484 0.961 . S
C1471 C1468 1.539 . S
C1471 H1485 0.958 . S
C1471 H1486 0.961 . S
C1471 H1487 0.960 . S
H1472 C1456 0.931 . S
H1473 C1461 0.929 . S
H1474 C1462 0.960 . S
H1475 C1462 0.962 . S
H1476 C1462 0.960 1_545 S
H1477 C1463 0.961 . S
H1478 C1463 0.961 . S
H1479 C1463 0.961 . S
H1480 C1464 0.931 . S
H1481 C1469 0.930 . S
H1482 C1470 0.956 . S
H1483 C1470 0.961 . S
H1484 C1470 0.961 . S
H1485 C1471 0.958 . S
H1486 C1471 0.961 . S
H1487 C1471 0.960 . S
C1488 C1489 1.391 . S
C1488 C1490 1.394 . S
C1488 H1504 0.931 . S
C1489 C1488 1.391 . S
C1489 C1493 1.376 . S
C1490 C1488 1.394 . S
C1490 C1491 1.369 . S
C1490 C1494 1.531 . S
C1491 C1490 1.369 . S
C1491 C1492 1.410 . S
C1491 C1499 1.503 . S
C1492 C1491 1.410 . S
C1492 C1493 1.392 . S
C1492 C1495 1.511 . S
C1493 C1489 1.376 . S
C1493 C1492 1.392 . S
C1493 H1505 0.929 . S
C1494 C1490 1.531 . S
C1494 H1506 0.960 . S
C1494 H1507 0.962 . S
C1494 H1508 0.960 . S
C1495 C1492 1.511 . S
C1495 H1509 0.961 . S
C1495 H1510 0.961 . S
C1495 H1511 0.961 . S
C1496 C1497 1.370 . S
C1496 C1498 1.363 . S
C1496 H1512 0.931 . S
C1497 C1496 1.370 . S
C1497 C1501 1.408 . S
C1498 C1496 1.363 . S
C1498 C1499 1.370 . S
C1498 C1502 1.524 . S
C1499 C1491 1.503 . S
C1499 C1498 1.370 . S
C1499 C1500 1.403 . S
C1500 C1499 1.403 . S
C1500 C1501 1.404 . S
C1500 C1503 1.539 . S
C1501 C1497 1.408 . S
C1501 C1500 1.404 . S
C1501 H1513 0.930 . S
C1502 C1498 1.524 . S
C1502 H1514 0.956 . S
C1502 H1515 0.961 . S
C1502 H1516 0.961 . S
C1503 C1500 1.539 . S
C1503 H1517 0.958 . S
C1503 H1518 0.961 . S
C1503 H1519 0.960 . S
H1504 C1488 0.931 . S
H1505 C1493 0.929 . S
H1506 C1494 0.960 . S
H1507 C1494 0.962 . S
H1508 C1494 0.960 . S
H1509 C1495 0.961 . S
H1510 C1495 0.961 . S
H1511 C1495 0.961 . S
H1512 C1496 0.931 . S
H1513 C1501 0.930 . S
H1514 C1502 0.956 . S
H1515 C1502 0.961 . S
H1516 C1502 0.961 . S
H1517 C1503 0.958 . S
H1518 C1503 0.961 . S
H1519 C1503 0.960 . S
C1520 C1521 1.391 . S
C1520 C1522 1.394 . S
C1520 H1536 0.931 . S
C1521 C1520 1.391 . S
C1521 C1525 1.376 . S
C1522 C1520 1.394 . S
C1522 C1523 1.369 . S
C1522 C1526 1.531 . S
C1523 C1522 1.369 . S
C1523 C1524 1.410 . S
C1523 C1531 1.503 . S
C1524 C1523 1.410 . S
C1524 C1525 1.392 . S
C1524 C1527 1.511 . S
C1525 C1521 1.376 . S
C1525 C1524 1.392 . S
C1525 H1537 0.929 . S
C1526 C1522 1.531 . S
C1526 H1538 0.960 . S
C1526 H1539 0.962 . S
C1526 H1540 0.960 . S
C1527 C1524 1.511 . S
C1527 H1541 0.961 . S
C1527 H1542 0.961 . S
C1527 H1543 0.961 . S
C1528 C1529 1.370 . S
C1528 C1530 1.363 . S
C1528 H1544 0.931 . S
C1529 C1528 1.370 . S
C1529 C1533 1.408 . S
C1530 C1528 1.363 . S
C1530 C1531 1.370 . S
C1530 C1534 1.524 . S
C1531 C1523 1.503 . S
C1531 C1530 1.370 . S
C1531 C1532 1.403 . S
C1532 C1531 1.403 . S
C1532 C1533 1.404 . S
C1532 C1535 1.539 . S
C1533 C1529 1.408 . S
C1533 C1532 1.404 . S
C1533 H1545 0.930 . S
C1534 C1530 1.524 . S
C1534 H1546 0.956 . S
C1534 H1547 0.961 . S
C1534 H1548 0.961 . S
C1535 C1532 1.539 . S
C1535 H1549 0.958 . S
C1535 H1550 0.961 . S
C1535 H1551 0.960 . S
H1536 C1520 0.931 . S
H1537 C1525 0.929 . S
H1538 C1526 0.960 . S
H1539 C1526 0.962 . S
H1540 C1526 0.960 . S
H1541 C1527 0.961 . S
H1542 C1527 0.961 . S
H1543 C1527 0.961 . S
H1544 C1528 0.931 . S
H1545 C1533 0.930 . S
H1546 C1534 0.956 . S
H1547 C1534 0.961 . S
H1548 C1534 0.961 . S
H1549 C1535 0.958 . S
H1550 C1535 0.961 . S
H1551 C1535 0.960 . S
C1552 C1553 1.391 . S
C1552 C1554 1.394 . S
C1552 H1568 0.931 . S
C1553 C1552 1.391 . S
C1553 C1557 1.376 . S
C1554 C1552 1.394 . S
C1554 C1555 1.369 . S
C1554 C1558 1.531 . S
C1555 C1554 1.369 . S
C1555 C1556 1.410 . S
C1555 C1563 1.503 . S
C1556 C1555 1.410 . S
C1556 C1557 1.392 . S
C1556 C1559 1.511 . S
C1557 C1553 1.376 . S
C1557 C1556 1.392 . S
C1557 H1569 0.929 . S
C1558 C1554 1.531 . S
C1558 H1570 0.960 . S
C1558 H1571 0.962 . S
C1558 H1572 0.960 . S
C1559 C1556 1.511 . S
C1559 H1573 0.961 . S
C1559 H1574 0.961 . S
C1559 H1575 0.961 . S
C1560 C1561 1.370 . S
C1560 C1562 1.363 . S
C1560 H1576 0.931 . S
C1561 C1560 1.370 . S
C1561 C1565 1.408 . S
C1562 C1560 1.363 . S
C1562 C1563 1.370 . S
C1562 C1566 1.524 . S
C1563 C1555 1.503 . S
C1563 C1562 1.370 . S
C1563 C1564 1.403 . S
C1564 C1563 1.403 . S
C1564 C1565 1.404 . S
C1564 C1567 1.539 . S
C1565 C1561 1.408 . S
C1565 C1564 1.404 . S
C1565 H1577 0.930 . S
C1566 C1562 1.524 . S
C1566 H1578 0.956 . S
C1566 H1579 0.961 . S
C1566 H1580 0.961 . S
C1567 C1564 1.539 . S
C1567 H1581 0.958 . S
C1567 H1582 0.961 . S
C1567 H1583 0.960 . S
H1568 C1552 0.931 . S
H1569 C1557 0.929 . S
H1570 C1558 0.960 . S
H1571 C1558 0.962 . S
H1572 C1558 0.960 . S
H1573 C1559 0.961 . S
H1574 C1559 0.961 . S
H1575 C1559 0.961 . S
H1576 C1560 0.931 . S
H1577 C1565 0.930 . S
H1578 C1566 0.956 . S
H1579 C1566 0.961 . S
H1580 C1566 0.961 . S
H1581 C1567 0.958 . S
H1582 C1567 0.961 . S
H1583 C1567 0.960 . S
C1584 C1585 1.391 . S
C1584 C1586 1.394 . S
C1584 H1600 0.931 . S
C1585 C1584 1.391 . S
C1585 C1589 1.376 . S
C1586 C1584 1.394 . S
C1586 C1587 1.369 . S
C1586 C1590 1.531 . S
C1587 C1586 1.369 . S
C1587 C1588 1.410 . S
C1587 C1595 1.503 . S
C1588 C1587 1.410 . S
C1588 C1589 1.392 . S
C1588 C1591 1.511 . S
C1589 C1585 1.376 . S
C1589 C1588 1.392 . S
C1589 H1601 0.929 . S
C1590 C1586 1.531 . S
C1590 H1602 0.960 . S
C1590 H1603 0.962 . S
C1590 H1604 0.960 . S
C1591 C1588 1.511 . S
C1591 H1605 0.961 . S
C1591 H1606 0.961 . S
C1591 H1607 0.961 . S
C1592 C1593 1.370 . S
C1592 C1594 1.363 . S
C1592 H1608 0.931 . S
C1593 C1592 1.370 . S
C1593 C1597 1.408 . S
C1594 C1592 1.363 . S
C1594 C1595 1.370 . S
C1594 C1598 1.524 . S
C1595 C1587 1.503 . S
C1595 C1594 1.370 . S
C1595 C1596 1.403 . S
C1596 C1595 1.403 . S
C1596 C1597 1.404 . S
C1596 C1599 1.539 . S
C1597 C1593 1.408 . S
C1597 C1596 1.404 . S
C1597 H1609 0.930 . S
C1598 C1594 1.524 . S
C1598 H1610 0.956 . S
C1598 H1611 0.961 . S
C1598 H1612 0.961 . S
C1599 C1596 1.539 . S
C1599 H1613 0.958 . S
C1599 H1614 0.961 . S
C1599 H1615 0.960 . S
H1600 C1584 0.931 . S
H1601 C1589 0.929 . S
H1602 C1590 0.960 . S
H1603 C1590 0.962 . S
H1604 C1590 0.960 . S
H1605 C1591 0.961 . S
H1606 C1591 0.961 . S
H1607 C1591 0.961 . S
H1608 C1592 0.931 . S
H1609 C1597 0.930 . S
H1610 C1598 0.956 . S
H1611 C1598 0.961 . S
H1612 C1598 0.961 . S
H1613 C1599 0.958 . S
H1614 C1599 0.961 . S
H1615 C1599 0.960 . S
C1616 C1617 1.391 . S
C1616 C1618 1.394 . S
C1616 H1632 0.931 . S
C1617 C1616 1.391 . S
C1617 C1621 1.376 . S
C1618 C1616 1.394 . S
C1618 C1619 1.369 . S
C1618 C1622 1.531 . S
C1619 C1618 1.369 . S
C1619 C1620 1.410 . S
C1619 C1627 1.503 . S
C1620 C1619 1.410 . S
C1620 C1621 1.392 . S
C1620 C1623 1.511 . S
C1621 C1617 1.376 . S
C1621 C1620 1.392 . S
C1621 H1633 0.929 . S
C1622 C1618 1.531 . S
C1622 H1634 0.960 . S
C1622 H1635 0.962 . S
C1622 H1636 0.960 . S
C1623 C1620 1.511 . S
C1623 H1637 0.961 . S
C1623 H1638 0.961 . S
C1623 H1639 0.961 . S
C1624 C1625 1.370 . S
C1624 C1626 1.363 . S
C1624 H1640 0.931 . S
C1625 C1624 1.370 . S
C1625 C1629 1.408 . S
C1626 C1624 1.363 . S
C1626 C1627 1.370 . S
C1626 C1630 1.524 . S
C1627 C1619 1.503 . S
C1627 C1626 1.370 . S
C1627 C1628 1.403 . S
C1628 C1627 1.403 . S
C1628 C1629 1.404 . S
C1628 C1631 1.539 . S
C1629 C1625 1.408 . S
C1629 C1628 1.404 . S
C1629 H1641 0.930 . S
C1630 C1626 1.524 . S
C1630 H1642 0.956 . S
C1630 H1643 0.961 . S
C1630 H1644 0.961 . S
C1631 C1628 1.539 . S
C1631 H1645 0.958 . S
C1631 H1646 0.961 . S
C1631 H1647 0.960 . S
H1632 C1616 0.931 . S
H1633 C1621 0.929 . S
H1634 C1622 0.960 . S
H1635 C1622 0.962 . S
H1636 C1622 0.960 . S
H1637 C1623 0.961 . S
H1638 C1623 0.961 . S
H1639 C1623 0.961 . S
H1640 C1624 0.931 . S
H1641 C1629 0.930 . S
H1642 C1630 0.956 . S
H1643 C1630 0.961 . S
H1644 C1630 0.961 . S
H1645 C1631 0.958 . S
H1646 C1631 0.961 . S
H1647 C1631 0.960 . S
C1648 C1649 1.391 . S
C1648 C1650 1.394 . S
C1648 H1664 0.931 . S
C1649 C1648 1.391 . S
C1649 C1653 1.376 . S
C1650 C1648 1.394 . S
C1650 C1651 1.369 . S
C1650 C1654 1.531 . S
C1651 C1650 1.369 . S
C1651 C1652 1.410 . S
C1651 C1659 1.503 . S
C1652 C1651 1.410 . S
C1652 C1653 1.392 . S
C1652 C1655 1.511 . S
C1653 C1649 1.376 . S
C1653 C1652 1.392 . S
C1653 H1665 0.929 . S
C1654 C1650 1.531 . S
C1654 H1666 0.960 . S
C1654 H1667 0.962 . S
C1654 H1668 0.960 . S
C1655 C1652 1.511 . S
C1655 H1669 0.961 . S
C1655 H1670 0.961 . S
C1655 H1671 0.961 . S
C1656 C1657 1.370 . S
C1656 C1658 1.363 . S
C1656 H1672 0.931 . S
C1657 C1656 1.370 . S
C1657 C1661 1.408 . S
C1658 C1656 1.363 . S
C1658 C1659 1.370 . S
C1658 C1662 1.524 . S
C1659 C1651 1.503 . S
C1659 C1658 1.370 . S
C1659 C1660 1.403 . S
C1660 C1659 1.403 . S
C1660 C1661 1.404 . S
C1660 C1663 1.539 . S
C1661 C1657 1.408 . S
C1661 C1660 1.404 . S
C1661 H1673 0.930 . S
C1662 C1658 1.524 . S
C1662 H1674 0.956 . S
C1662 H1675 0.961 . S
C1662 H1676 0.961 . S
C1663 C1660 1.539 . S
C1663 H1677 0.958 . S
C1663 H1678 0.961 . S
C1663 H1679 0.960 . S
H1664 C1648 0.931 . S
H1665 C1653 0.929 . S
H1666 C1654 0.960 . S
H1667 C1654 0.962 . S
H1668 C1654 0.960 . S
H1669 C1655 0.961 . S
H1670 C1655 0.961 . S
H1671 C1655 0.961 . S
H1672 C1656 0.931 . S
H1673 C1661 0.930 . S
H1674 C1662 0.956 . S
H1675 C1662 0.961 . S
H1676 C1662 0.961 . S
H1677 C1663 0.958 . S
H1678 C1663 0.961 . S
H1679 C1663 0.960 . S
C1680 C1681 1.391 . S
C1680 C1682 1.394 . S
C1680 H1696 0.931 . S
C1681 C1680 1.391 . S
C1681 C1685 1.376 . S
C1682 C1680 1.394 . S
C1682 C1683 1.369 1_545 S
C1682 C1686 1.531 1_545 S
C1683 C1682 1.369 1_565 S
C1683 C1684 1.410 . S
C1683 C1691 1.503 . S
C1684 C1683 1.410 . S
C1684 C1685 1.392 1_565 S
C1684 C1687 1.511 . S
C1685 C1681 1.376 . S
C1685 C1684 1.392 1_545 S
C1685 H1697 0.929 . S
C1686 C1682 1.531 1_565 S
C1686 H1698 0.960 . S
C1686 H1699 0.962 . S
C1686 H1700 0.960 1_565 S
C1687 C1684 1.511 . S
C1687 H1701 0.961 . S
C1687 H1702 0.961 . S
C1687 H1703 0.961 . S
C1688 C1689 1.370 . S
C1688 C1690 1.363 . S
C1688 H1704 0.931 . S
C1689 C1688 1.370 . S
C1689 C1693 1.408 . S
C1690 C1688 1.363 . S
C1690 C1691 1.370 . S
C1690 C1694 1.524 . S
C1691 C1683 1.503 . S
C1691 C1690 1.370 . S
C1691 C1692 1.403 . S
C1692 C1691 1.403 . S
C1692 C1693 1.404 . S
C1692 C1695 1.539 . S
C1693 C1689 1.408 . S
C1693 C1692 1.404 . S
C1693 H1705 0.930 . S
C1694 C1690 1.524 . S
C1694 H1706 0.956 . S
C1694 H1707 0.961 . S
C1694 H1708 0.961 . S
C1695 C1692 1.539 . S
C1695 H1709 0.958 . S
C1695 H1710 0.961 . S
C1695 H1711 0.960 . S
H1696 C1680 0.931 . S
H1697 C1685 0.929 . S
H1698 C1686 0.960 . S
H1699 C1686 0.962 . S
H1700 C1686 0.960 1_545 S
H1701 C1687 0.961 . S
H1702 C1687 0.961 . S
H1703 C1687 0.961 . S
H1704 C1688 0.931 . S
H1705 C1693 0.930 . S
H1706 C1694 0.956 . S
H1707 C1694 0.961 . S
H1708 C1694 0.961 . S
H1709 C1695 0.958 . S
H1710 C1695 0.961 . S
H1711 C1695 0.960 . S
C1712 C1713 1.391 1_455 S
C1712 C1714 1.394 . S
C1712 H1728 0.931 . S
C1713 C1712 1.391 1_655 S
C1713 C1717 1.376 . S
C1714 C1712 1.394 . S
C1714 C1715 1.369 . S
C1714 C1718 1.531 . S
C1715 C1714 1.369 . S
C1715 C1716 1.410 . S
C1715 C1723 1.503 . S
C1716 C1715 1.410 . S
C1716 C1717 1.392 1_455 S
C1716 C1719 1.511 . S
C1717 C1713 1.376 . S
C1717 C1716 1.392 1_655 S
C1717 H1729 0.929 . S
C1718 C1714 1.531 . S
C1718 H1730 0.960 . S
C1718 H1731 0.962 . S
C1718 H1732 0.960 . S
C1719 C1716 1.511 . S
C1719 H1733 0.968 . S
C1719 H1734 0.961 . S
C1719 H1735 0.961 . S
C1720 C1721 1.370 . S
C1720 C1722 1.363 . S
C1720 H1736 0.931 . S
C1721 C1720 1.370 . S
C1721 C1725 1.408 . S
C1722 C1720 1.363 . S
C1722 C1723 1.370 . S
C1722 C1726 1.524 . S
C1723 C1715 1.503 . S
C1723 C1722 1.370 . S
C1723 C1724 1.403 . S
C1724 C1723 1.403 . S
C1724 C1725 1.404 . S
C1724 C1727 1.539 . S
C1725 C1721 1.408 . S
C1725 C1724 1.404 . S
C1725 H1737 0.930 . S
C1726 C1722 1.524 . S
C1726 H1738 0.956 . S
C1726 H1739 0.961 . S
C1726 H1740 0.961 . S
C1727 C1724 1.539 . S
C1727 H1741 0.958 . S
C1727 H1742 0.961 . S
C1727 H1743 0.960 . S
H1728 C1712 0.931 . S
H1729 C1717 0.929 . S
H1730 C1718 0.960 . S
H1731 C1718 0.962 . S
H1732 C1718 0.960 . S
H1733 C1719 0.968 . S
H1734 C1719 0.961 . S
H1735 C1719 0.961 . S
H1736 C1720 0.931 . S
H1737 C1725 0.930 . S
H1738 C1726 0.956 . S
H1739 C1726 0.961 . S
H1740 C1726 0.961 . S
H1741 C1727 0.958 . S
H1742 C1727 0.961 . S
H1743 C1727 0.960 . S
C1744 C1745 1.391 . S
C1744 C1746 1.394 . S
C1744 H1760 0.931 . S
C1745 C1744 1.391 . S
C1745 C1749 1.376 . S
C1746 C1744 1.394 . S
C1746 C1747 1.369 . S
C1746 C1750 1.531 . S
C1747 C1746 1.369 . S
C1747 C1748 1.410 . S
C1747 C1755 1.503 . S
C1748 C1747 1.410 . S
C1748 C1749 1.392 . S
C1748 C1751 1.511 . S
C1749 C1745 1.376 . S
C1749 C1748 1.392 . S
C1749 H1761 0.929 . S
C1750 C1746 1.531 . S
C1750 H1762 0.960 . S
C1750 H1763 0.962 . S
C1750 H1764 0.960 . S
C1751 C1748 1.511 . S
C1751 H1765 0.961 . S
C1751 H1766 0.961 . S
C1751 H1767 0.961 . S
C1752 C1753 1.370 . S
C1752 C1754 1.363 . S
C1752 H1768 0.931 . S
C1753 C1752 1.370 . S
C1753 C1757 1.408 . S
C1754 C1752 1.363 . S
C1754 C1755 1.370 . S
C1754 C1758 1.524 . S
C1755 C1747 1.503 . S
C1755 C1754 1.370 . S
C1755 C1756 1.403 . S
C1756 C1755 1.403 . S
C1756 C1757 1.404 . S
C1756 C1759 1.539 . S
C1757 C1753 1.408 . S
C1757 C1756 1.404 . S
C1757 H1769 0.930 . S
C1758 C1754 1.524 . S
C1758 H1770 0.956 . S
C1758 H1771 0.961 . S
C1758 H1772 0.961 . S
C1759 C1756 1.539 . S
C1759 H1773 0.958 . S
C1759 H1774 0.961 . S
C1759 H1775 0.960 . S
H1760 C1744 0.931 . S
H1761 C1749 0.929 . S
H1762 C1750 0.960 . S
H1763 C1750 0.962 . S
H1764 C1750 0.960 . S
H1765 C1751 0.961 . S
H1766 C1751 0.961 . S
H1767 C1751 0.961 . S
H1768 C1752 0.931 . S
H1769 C1757 0.930 . S
H1770 C1758 0.956 . S
H1771 C1758 0.961 . S
H1772 C1758 0.961 . S
H1773 C1759 0.958 . S
H1774 C1759 0.961 . S
H1775 C1759 0.960 . S
C1776 C1777 1.391 . S
C1776 C1778 1.394 . S
C1776 H1792 0.931 . S
C1777 C1776 1.391 . S
C1777 C1781 1.376 . S
C1778 C1776 1.394 . S
C1778 C1779 1.369 . S
C1778 C1782 1.531 . S
C1779 C1778 1.369 . S
C1779 C1780 1.410 . S
C1779 C1787 1.503 . S
C1780 C1779 1.410 . S
C1780 C1781 1.392 . S
C1780 C1783 1.511 . S
C1781 C1777 1.376 . S
C1781 C1780 1.392 . S
C1781 H1793 0.929 . S
C1782 C1778 1.531 . S
C1782 H1794 0.960 . S
C1782 H1795 0.962 . S
C1782 H1796 0.960 . S
C1783 C1780 1.511 . S
C1783 H1797 0.961 . S
C1783 H1798 0.961 . S
C1783 H1799 0.961 . S
C1784 C1785 1.370 . S
C1784 C1786 1.363 . S
C1784 H1800 0.931 . S
C1785 C1784 1.370 . S
C1785 C1789 1.408 . S
C1786 C1784 1.363 . S
C1786 C1787 1.370 . S
C1786 C1790 1.524 . S
C1787 C1779 1.503 . S
C1787 C1786 1.370 . S
C1787 C1788 1.403 . S
C1788 C1787 1.403 . S
C1788 C1789 1.404 . S
C1788 C1791 1.539 . S
C1789 C1785 1.408 . S
C1789 C1788 1.404 . S
C1789 H1801 0.930 . S
C1790 C1786 1.524 . S
C1790 H1802 0.956 . S
C1790 H1803 0.961 . S
C1790 H1804 0.961 . S
C1791 C1788 1.539 . S
C1791 H1805 0.958 . S
C1791 H1806 0.961 . S
C1791 H1807 0.960 . S
H1792 C1776 0.931 . S
H1793 C1781 0.929 . S
H1794 C1782 0.960 . S
H1795 C1782 0.962 . S
H1796 C1782 0.960 . S
H1797 C1783 0.961 . S
H1798 C1783 0.961 . S
H1799 C1783 0.961 . S
H1800 C1784 0.931 . S
H1801 C1789 0.930 . S
H1802 C1790 0.956 . S
H1803 C1790 0.961 . S
H1804 C1790 0.961 . S
H1805 C1791 0.958 . S
H1806 C1791 0.961 . S
H1807 C1791 0.960 . S
C1808 C1809 1.391 . S
C1808 C1810 1.394 . S
C1808 H1824 0.931 . S
C1809 C1808 1.391 . S
C1809 C1813 1.376 . S
C1810 C1808 1.394 . S
C1810 C1811 1.369 . S
C1810 C1814 1.531 . S
C1811 C1810 1.369 . S
C1811 C1812 1.410 . S
C1811 C1819 1.503 . S
C1812 C1811 1.410 . S
C1812 C1813 1.392 . S
C1812 C1815 1.511 . S
C1813 C1809 1.376 . S
C1813 C1812 1.392 . S
C1813 H1825 0.929 . S
C1814 C1810 1.531 . S
C1814 H1826 0.960 . S
C1814 H1827 0.962 . S
C1814 H1828 0.960 . S
C1815 C1812 1.511 . S
C1815 H1829 0.961 . S
C1815 H1830 0.961 . S
C1815 H1831 0.961 . S
C1816 C1817 1.370 . S
C1816 C1818 1.363 . S
C1816 H1832 0.931 . S
C1817 C1816 1.370 . S
C1817 C1821 1.408 . S
C1818 C1816 1.363 . S
C1818 C1819 1.370 . S
C1818 C1822 1.524 . S
C1819 C1811 1.503 . S
C1819 C1818 1.370 . S
C1819 C1820 1.403 . S
C1820 C1819 1.403 . S
C1820 C1821 1.404 . S
C1820 C1823 1.539 . S
C1821 C1817 1.408 . S
C1821 C1820 1.404 . S
C1821 H1833 0.930 . S
C1822 C1818 1.524 . S
C1822 H1834 0.956 . S
C1822 H1835 0.961 . S
C1822 H1836 0.961 . S
C1823 C1820 1.539 . S
C1823 H1837 0.958 . S
C1823 H1838 0.961 . S
C1823 H1839 0.960 . S
H1824 C1808 0.931 . S
H1825 C1813 0.929 . S
H1826 C1814 0.960 . S
H1827 C1814 0.962 . S
H1828 C1814 0.960 . S
H1829 C1815 0.961 . S
H1830 C1815 0.961 . S
H1831 C1815 0.961 . S
H1832 C1816 0.931 . S
H1833 C1821 0.930 . S
H1834 C1822 0.956 . S
H1835 C1822 0.961 . S
H1836 C1822 0.961 . S
H1837 C1823 0.958 . S
H1838 C1823 0.961 . S
H1839 C1823 0.960 . S
C1840 C1841 1.391 . S
C1840 C1842 1.394 . S
C1840 H1856 0.931 . S
C1841 C1840 1.391 . S
C1841 C1845 1.376 . S
C1842 C1840 1.394 . S
C1842 C1843 1.369 . S
C1842 C1846 1.531 . S
C1843 C1842 1.369 . S
C1843 C1844 1.410 . S
C1843 C1851 1.503 . S
C1844 C1843 1.410 . S
C1844 C1845 1.392 . S
C1844 C1847 1.511 . S
C1845 C1841 1.376 . S
C1845 C1844 1.392 . S
C1845 H1857 0.929 . S
C1846 C1842 1.531 . S
C1846 H1858 0.960 . S
C1846 H1859 0.962 . S
C1846 H1860 0.960 . S
C1847 C1844 1.511 . S
C1847 H1861 0.961 . S
C1847 H1862 0.961 . S
C1847 H1863 0.961 . S
C1848 C1849 1.370 . S
C1848 C1850 1.363 . S
C1848 H1864 0.931 . S
C1849 C1848 1.370 . S
C1849 C1853 1.408 . S
C1850 C1848 1.363 . S
C1850 C1851 1.370 . S
C1850 C1854 1.524 . S
C1851 C1843 1.503 . S
C1851 C1850 1.370 . S
C1851 C1852 1.403 . S
C1852 C1851 1.403 . S
C1852 C1853 1.404 . S
C1852 C1855 1.539 . S
C1853 C1849 1.408 . S
C1853 C1852 1.404 . S
C1853 H1865 0.930 . S
C1854 C1850 1.524 . S
C1854 H1866 0.956 . S
C1854 H1867 0.961 . S
C1854 H1868 0.961 . S
C1855 C1852 1.539 . S
C1855 H1869 0.958 . S
C1855 H1870 0.961 . S
C1855 H1871 0.960 . S
H1856 C1840 0.931 . S
H1857 C1845 0.929 . S
H1858 C1846 0.960 . S
H1859 C1846 0.962 . S
H1860 C1846 0.960 . S
H1861 C1847 0.961 . S
H1862 C1847 0.961 . S
H1863 C1847 0.961 . S
H1864 C1848 0.931 . S
H1865 C1853 0.930 . S
H1866 C1854 0.956 . S
H1867 C1854 0.961 . S
H1868 C1854 0.961 . S
H1869 C1855 0.958 . S
H1870 C1855 0.961 . S
H1871 C1855 0.960 . S
C1872 C1873 1.391 . S
C1872 C1874 1.377 1_565 S
C1872 H1888 0.931 . S
C1873 C1872 1.391 . S
C1873 C1877 1.376 . S
C1874 C1872 1.377 1_545 S
C1874 C1875 1.369 . S
C1874 C1878 1.547 . S
C1875 C1874 1.369 . S
C1875 C1876 1.410 . S
C1875 C1883 1.503 . S
C1876 C1875 1.410 . S
C1876 C1877 1.392 1_545 S
C1876 C1879 1.511 . S
C1877 C1873 1.376 . S
C1877 C1876 1.392 1_565 S
C1877 H1889 0.929 . S
C1878 C1874 1.547 . S
C1878 H1890 0.960 . S
C1878 H1891 0.962 . S
C1878 H1892 0.960 . S
C1879 C1876 1.511 . S
C1879 H1893 0.961 . S
C1879 H1894 0.961 . S
C1879 H1895 0.961 . S
C1880 C1881 1.370 . S
C1880 C1882 1.363 . S
C1880 H1896 0.931 . S
C1881 C1880 1.370 . S
C1881 C1885 1.408 . S
C1882 C1880 1.363 . S
C1882 C1883 1.370 . S
C1882 C1886 1.524 . S
C1883 C1875 1.503 . S
C1883 C1882 1.370 . S
C1883 C1884 1.403 . S
C1884 C1883 1.403 . S
C1884 C1885 1.404 . S
C1884 C1887 1.539 . S
C1885 C1881 1.408 . S
C1885 C1884 1.404 . S
C1885 H1897 0.930 . S
C1886 C1882 1.524 . S
C1886 H1898 0.956 . S
C1886 H1899 0.961 . S
C1886 H1900 0.961 . S
C1887 C1884 1.539 . S
C1887 H1901 0.958 . S
C1887 H1902 0.961 . S
C1887 H1903 0.960 . S
H1888 C1872 0.931 . S
H1889 C1877 0.929 . S
H1890 C1878 0.960 . S
H1891 C1878 0.962 . S
H1892 C1878 0.960 . S
H1893 C1879 0.961 . S
H1894 C1879 0.961 . S
H1895 C1879 0.961 . S
H1896 C1880 0.931 . S
H1897 C1885 0.930 . S
H1898 C1886 0.956 . S
H1899 C1886 0.961 . S
H1900 C1886 0.961 . S
H1901 C1887 0.958 . S
H1902 C1887 0.961 . S
H1903 C1887 0.960 . S
C1904 C1905 1.391 . S
C1904 C1906 1.394 1_455 S
C1904 H1920 0.931 . S
C1905 C1904 1.391 . S
C1905 C1909 1.376 1_455 S
C1906 C1904 1.394 1_655 S
C1906 C1907 1.369 . S
C1906 C1910 1.531 . S
C1907 C1906 1.369 . S
C1907 C1908 1.410 . S
C1907 C1915 1.503 . S
C1908 C1907 1.410 . S
C1908 C1909 1.392 . S
C1908 C1911 1.511 . S
C1909 C1905 1.376 1_655 S
C1909 C1908 1.392 . S
C1909 H1921 0.929 . S
C1910 C1906 1.531 . S
C1910 H1922 0.960 . S
C1910 H1923 0.962 . S
C1910 H1924 0.960 . S
C1911 C1908 1.511 . S
C1911 H1925 0.961 . S
C1911 H1926 0.961 . S
C1911 H1927 0.961 . S
C1912 C1913 1.370 . S
C1912 C1914 1.363 . S
C1912 H1928 0.931 . S
C1913 C1912 1.370 . S
C1913 C1917 1.408 . S
C1914 C1912 1.363 . S
C1914 C1915 1.370 . S
C1914 C1918 1.524 . S
C1915 C1907 1.503 . S
C1915 C1914 1.370 . S
C1915 C1916 1.403 . S
C1916 C1915 1.403 . S
C1916 C1917 1.404 . S
C1916 C1919 1.539 . S
C1917 C1913 1.408 . S
C1917 C1916 1.404 . S
C1917 H1929 0.930 . S
C1918 C1914 1.524 . S
C1918 H1930 0.956 . S
C1918 H1931 0.961 . S
C1918 H1932 0.961 . S
C1919 C1916 1.539 . S
C1919 H1933 0.958 . S
C1919 H1934 0.961 . S
C1919 H1935 0.960 . S
H1920 C1904 0.931 . S
H1921 C1909 0.929 . S
H1922 C1910 0.960 . S
H1923 C1910 0.962 . S
H1924 C1910 0.960 . S
H1925 C1911 0.961 . S
H1926 C1911 0.961 . S
H1927 C1911 0.961 . S
H1928 C1912 0.931 . S
H1929 C1917 0.930 . S
H1930 C1918 0.956 . S
H1931 C1918 0.961 . S
H1932 C1918 0.961 . S
H1933 C1919 0.958 . S
H1934 C1919 0.961 . S
H1935 C1919 0.960 . S
C1936 C1937 1.391 . S
C1936 C1938 1.394 . S
C1936 H1952 0.931 . S
C1937 C1936 1.391 . S
C1937 C1941 1.376 . S
C1938 C1936 1.394 . S
C1938 C1939 1.369 . S
C1938 C1942 1.531 . S
C1939 C1938 1.369 . S
C1939 C1940 1.410 . S
C1939 C1947 1.503 . S
C1940 C1939 1.410 . S
C1940 C1941 1.392 . S
C1940 C1943 1.511 . S
C1941 C1937 1.376 . S
C1941 C1940 1.392 . S
C1941 H1953 0.929 . S
C1942 C1938 1.531 . S
C1942 H1954 0.960 . S
C1942 H1955 0.962 . S
C1942 H1956 0.960 . S
C1943 C1940 1.511 . S
C1943 H1957 0.961 . S
C1943 H1958 0.961 . S
C1943 H1959 0.961 . S
C1944 C1945 1.370 . S
C1944 C1946 1.363 . S
C1944 H1960 0.931 . S
C1945 C1944 1.370 . S
C1945 C1949 1.408 . S
C1946 C1944 1.363 . S
C1946 C1947 1.370 . S
C1946 C1950 1.524 . S
C1947 C1939 1.503 . S
C1947 C1946 1.370 . S
C1947 C1948 1.403 . S
C1948 C1947 1.403 . S
C1948 C1949 1.404 . S
C1948 C1951 1.539 . S
C1949 C1945 1.408 . S
C1949 C1948 1.404 . S
C1949 H1961 0.930 . S
C1950 C1946 1.524 . S
C1950 H1962 0.956 . S
C1950 H1963 0.961 . S
C1950 H1964 0.961 . S
C1951 C1948 1.539 . S
C1951 H1965 0.958 . S
C1951 H1966 0.961 . S
C1951 H1967 0.960 . S
H1952 C1936 0.931 . S
H1953 C1941 0.929 . S
H1954 C1942 0.960 . S
H1955 C1942 0.962 . S
H1956 C1942 0.960 . S
H1957 C1943 0.961 . S
H1958 C1943 0.961 . S
H1959 C1943 0.961 . S
H1960 C1944 0.931 . S
H1961 C1949 0.930 . S
H1962 C1950 0.956 . S
H1963 C1950 0.961 . S
H1964 C1950 0.961 . S
H1965 C1951 0.958 . S
H1966 C1951 0.961 . S
H1967 C1951 0.960 . S
C1968 C1969 1.391 . S
C1968 C1970 1.394 1_455 S
C1968 H1984 0.931 . S
C1969 C1968 1.391 . S
C1969 C1973 1.376 . S
C1970 C1968 1.394 1_655 S
C1970 C1971 1.369 . S
C1970 C1974 1.531 . S
C1971 C1970 1.369 . S
C1971 C1972 1.410 . S
C1971 C1979 1.503 . S
C1972 C1971 1.410 . S
C1972 C1973 1.392 1_655 S
C1972 C1975 1.511 . S
C1973 C1969 1.376 . S
C1973 C1972 1.392 1_455 S
C1973 H1985 0.929 . S
C1974 C1970 1.531 . S
C1974 H1986 0.960 . S
C1974 H1987 0.962 . S
C1974 H1988 0.960 . S
C1975 C1972 1.511 . S
C1975 H1989 0.961 . S
C1975 H1990 0.961 . S
C1975 H1991 0.961 . S
C1976 C1977 1.370 . S
C1976 C1978 1.363 . S
C1976 H1992 0.931 . S
C1977 C1976 1.370 . S
C1977 C1981 1.408 . S
C1978 C1976 1.363 . S
C1978 C1979 1.370 . S
C1978 C1982 1.524 . S
C1979 C1971 1.503 . S
C1979 C1978 1.370 . S
C1979 C1980 1.403 . S
C1980 C1979 1.403 . S
C1980 C1981 1.404 . S
C1980 C1983 1.539 . S
C1981 C1977 1.408 . S
C1981 C1980 1.404 . S
C1981 H1993 0.930 . S
C1982 C1978 1.524 . S
C1982 H1994 0.956 . S
C1982 H1995 0.961 . S
C1982 H1996 0.961 . S
C1983 C1980 1.539 . S
C1983 H1997 0.958 . S
C1983 H1998 0.961 . S
C1983 H1999 0.960 . S
H1984 C1968 0.931 . S
H1985 C1973 0.929 . S
H1986 C1974 0.960 . S
H1987 C1974 0.962 . S
H1988 C1974 0.960 . S
H1989 C1975 0.961 . S
H1990 C1975 0.961 . S
H1991 C1975 0.961 . S
H1992 C1976 0.931 . S
H1993 C1981 0.930 . S
H1994 C1982 0.956 . S
H1995 C1982 0.961 . S
H1996 C1982 0.961 . S
H1997 C1983 0.958 . S
H1998 C1983 0.961 . S
H1999 C1983 0.960 . S
C2000 C2001 1.391 . S
C2000 C2002 1.394 . S
C2000 H2016 0.931 . S
C2001 C2000 1.391 . S
C2001 C2005 1.376 . S
C2002 C2000 1.394 . S
C2002 C2003 1.369 . S
C2002 C2006 1.531 . S
C2003 C2002 1.369 . S
C2003 C2004 1.410 . S
C2003 C2011 1.503 . S
C2004 C2003 1.410 . S
C2004 C2005 1.392 . S
C2004 C2007 1.511 . S
C2005 C2001 1.376 . S
C2005 C2004 1.392 . S
C2005 H2017 0.929 . S
C2006 C2002 1.531 . S
C2006 H2018 0.960 . S
C2006 H2019 0.962 . S
C2006 H2020 0.960 . S
C2007 C2004 1.511 . S
C2007 H2021 0.961 . S
C2007 H2022 0.961 . S
C2007 H2023 0.961 . S
C2008 C2009 1.370 . S
C2008 C2010 1.363 . S
C2008 H2024 0.931 . S
C2009 C2008 1.370 . S
C2009 C2013 1.408 . S
C2010 C2008 1.363 . S
C2010 C2011 1.370 . S
C2010 C2014 1.524 . S
C2011 C2003 1.503 . S
C2011 C2010 1.370 . S
C2011 C2012 1.403 . S
C2012 C2011 1.403 . S
C2012 C2013 1.404 . S
C2012 C2015 1.539 . S
C2013 C2009 1.408 . S
C2013 C2012 1.404 . S
C2013 H2025 0.930 . S
C2014 C2010 1.524 . S
C2014 H2026 0.956 . S
C2014 H2027 0.961 . S
C2014 H2028 0.961 . S
C2015 C2012 1.539 . S
C2015 H2029 0.958 . S
C2015 H2030 0.961 . S
C2015 H2031 0.960 . S
H2016 C2000 0.931 . S
H2017 C2005 0.929 . S
H2018 C2006 0.960 . S
H2019 C2006 0.962 . S
H2020 C2006 0.960 . S
H2021 C2007 0.961 . S
H2022 C2007 0.961 . S
H2023 C2007 0.961 . S
H2024 C2008 0.931 . S
H2025 C2013 0.930 . S
H2026 C2014 0.956 . S
H2027 C2014 0.961 . S
H2028 C2014 0.961 . S
H2029 C2015 0.958 . S
H2030 C2015 0.961 . S
H2031 C2015 0.960 . S
C2032 C2033 1.391 . S
C2032 C2034 1.394 . S
C2032 H2048 0.931 . S
C2033 C2032 1.391 . S
C2033 C2037 1.376 . S
C2034 C2032 1.394 . S
C2034 C2035 1.369 1_565 S
C2034 C2038 1.531 1_565 S
C2035 C2034 1.369 1_545 S
C2035 C2036 1.410 1_545 S
C2035 C2043 1.503 . S
C2036 C2035 1.410 1_565 S
C2036 C2037 1.392 . S
C2036 C2039 1.511 1_565 S
C2037 C2033 1.376 . S
C2037 C2036 1.392 . S
C2037 H2049 0.929 . S
C2038 C2034 1.531 1_545 S
C2038 H2050 0.960 . S
C2038 H2051 0.962 . S
C2038 H2052 0.960 . S
C2039 C2036 1.511 1_545 S
C2039 H2053 0.972 . S
C2039 H2054 0.961 . S
C2039 H2055 0.961 . S
C2040 C2041 1.370 . S
C2040 C2042 1.363 . S
C2040 H2056 0.931 . S
C2041 C2040 1.370 . S
C2041 C2045 1.408 . S
C2042 C2040 1.363 . S
C2042 C2043 1.370 . S
C2042 C2046 1.524 . S
C2043 C2035 1.503 . S
C2043 C2042 1.370 . S
C2043 C2044 1.403 . S
C2044 C2043 1.403 . S
C2044 C2045 1.404 . S
C2044 C2047 1.539 . S
C2045 C2041 1.408 . S
C2045 C2044 1.404 . S
C2045 H2057 0.930 . S
C2046 C2042 1.524 . S
C2046 H2058 0.956 . S
C2046 H2059 0.961 . S
C2046 H2060 0.961 . S
C2047 C2044 1.539 . S
C2047 H2061 0.958 . S
C2047 H2062 0.961 . S
C2047 H2063 0.960 . S
H2048 C2032 0.931 . S
H2049 C2037 0.929 . S
H2050 C2038 0.960 . S
H2051 C2038 0.962 . S
H2052 C2038 0.960 . S
H2053 C2039 0.972 . S
H2054 C2039 0.961 . S
H2055 C2039 0.961 . S
H2056 C2040 0.931 . S
H2057 C2045 0.930 . S
H2058 C2046 0.956 . S
H2059 C2046 0.961 . S
H2060 C2046 0.961 . S
H2061 C2047 0.958 . S
H2062 C2047 0.961 . S
H2063 C2047 0.960 . S
C2064 C2065 1.391 . S
C2064 C2066 1.394 . S
C2064 H2080 0.931 . S
C2065 C2064 1.391 . S
C2065 C2069 1.376 . S
C2066 C2064 1.394 . S
C2066 C2067 1.369 . S
C2066 C2070 1.531 . S
C2067 C2066 1.369 . S
C2067 C2068 1.410 . S
C2067 C2075 1.503 . S
C2068 C2067 1.410 . S
C2068 C2069 1.392 . S
C2068 C2071 1.511 . S
C2069 C2065 1.376 . S
C2069 C2068 1.392 . S
C2069 H2081 0.929 . S
C2070 C2066 1.531 . S
C2070 H2082 0.960 . S
C2070 H2083 0.962 . S
C2070 H2084 0.960 . S
C2071 C2068 1.511 . S
C2071 H2085 0.961 . S
C2071 H2086 0.961 . S
C2071 H2087 0.961 . S
C2072 C2073 1.370 . S
C2072 C2074 1.363 . S
C2072 H2088 0.931 . S
C2073 C2072 1.370 . S
C2073 C2077 1.408 . S
C2074 C2072 1.363 . S
C2074 C2075 1.370 . S
C2074 C2078 1.524 . S
C2075 C2067 1.503 . S
C2075 C2074 1.370 . S
C2075 C2076 1.403 . S
C2076 C2075 1.403 . S
C2076 C2077 1.404 . S
C2076 C2079 1.539 . S
C2077 C2073 1.408 . S
C2077 C2076 1.404 . S
C2077 H2089 0.930 . S
C2078 C2074 1.524 . S
C2078 H2090 0.956 . S
C2078 H2091 0.961 . S
C2078 H2092 0.961 . S
C2079 C2076 1.539 . S
C2079 H2093 0.958 . S
C2079 H2094 0.961 . S
C2079 H2095 0.960 . S
H2080 C2064 0.931 . S
H2081 C2069 0.929 . S
H2082 C2070 0.960 . S
H2083 C2070 0.962 . S
H2084 C2070 0.960 . S
H2085 C2071 0.961 . S
H2086 C2071 0.961 . S
H2087 C2071 0.961 . S
H2088 C2072 0.931 . S
H2089 C2077 0.930 . S
H2090 C2078 0.956 . S
H2091 C2078 0.961 . S
H2092 C2078 0.961 . S
H2093 C2079 0.958 . S
H2094 C2079 0.961 . S
H2095 C2079 0.960 . S
C2096 C2097 1.391 . S
C2096 C2098 1.394 . S
C2096 H2112 0.931 . S
C2097 C2096 1.391 . S
C2097 C2101 1.376 . S
C2098 C2096 1.394 . S
C2098 C2099 1.369 . S
C2098 C2102 1.531 . S
C2099 C2098 1.369 . S
C2099 C2100 1.410 . S
C2099 C2107 1.503 . S
C2100 C2099 1.410 . S
C2100 C2101 1.392 . S
C2100 C2103 1.511 . S
C2101 C2097 1.376 . S
C2101 C2100 1.392 . S
C2101 H2113 0.929 . S
C2102 C2098 1.531 . S
C2102 H2114 0.960 . S
C2102 H2115 0.962 . S
C2102 H2116 0.960 . S
C2103 C2100 1.511 . S
C2103 H2117 0.961 . S
C2103 H2118 0.961 . S
C2103 H2119 0.961 . S
C2104 C2105 1.370 . S
C2104 C2106 1.363 . S
C2104 H2120 0.931 . S
C2105 C2104 1.370 . S
C2105 C2109 1.408 . S
C2106 C2104 1.363 . S
C2106 C2107 1.370 . S
C2106 C2110 1.524 . S
C2107 C2099 1.503 . S
C2107 C2106 1.370 . S
C2107 C2108 1.403 . S
C2108 C2107 1.403 . S
C2108 C2109 1.404 . S
C2108 C2111 1.539 . S
C2109 C2105 1.408 . S
C2109 C2108 1.404 . S
C2109 H2121 0.930 . S
C2110 C2106 1.524 . S
C2110 H2122 0.956 . S
C2110 H2123 0.961 . S
C2110 H2124 0.961 . S
C2111 C2108 1.539 . S
C2111 H2125 0.958 . S
C2111 H2126 0.961 . S
C2111 H2127 0.960 . S
H2112 C2096 0.931 . S
H2113 C2101 0.929 . S
H2114 C2102 0.960 . S
H2115 C2102 0.962 . S
H2116 C2102 0.960 . S
H2117 C2103 0.961 . S
H2118 C2103 0.961 . S
H2119 C2103 0.961 . S
H2120 C2104 0.931 . S
H2121 C2109 0.930 . S
H2122 C2110 0.956 . S
H2123 C2110 0.961 . S
H2124 C2110 0.961 . S
H2125 C2111 0.958 . S
H2126 C2111 0.961 . S
H2127 C2111 0.960 . S
C2128 C2129 1.391 . S
C2128 C2130 1.394 . S
C2128 H2144 0.931 . S
C2129 C2128 1.391 . S
C2129 C2133 1.376 . S
C2130 C2128 1.394 . S
C2130 C2131 1.369 . S
C2130 C2134 1.531 . S
C2131 C2130 1.369 . S
C2131 C2132 1.410 . S
C2131 C2139 1.503 . S
C2132 C2131 1.410 . S
C2132 C2133 1.392 . S
C2132 C2135 1.511 . S
C2133 C2129 1.376 . S
C2133 C2132 1.392 . S
C2133 H2145 0.929 . S
C2134 C2130 1.531 . S
C2134 H2146 0.960 . S
C2134 H2147 0.962 . S
C2134 H2148 0.960 . S
C2135 C2132 1.511 . S
C2135 H2149 0.961 . S
C2135 H2150 0.961 . S
C2135 H2151 0.961 . S
C2136 C2137 1.370 . S
C2136 C2138 1.363 . S
C2136 H2152 0.931 . S
C2137 C2136 1.370 . S
C2137 C2141 1.408 . S
C2138 C2136 1.363 . S
C2138 C2139 1.370 . S
C2138 C2142 1.524 . S
C2139 C2131 1.503 . S
C2139 C2138 1.370 . S
C2139 C2140 1.403 . S
C2140 C2139 1.403 . S
C2140 C2141 1.404 . S
C2140 C2143 1.539 . S
C2141 C2137 1.408 . S
C2141 C2140 1.404 . S
C2141 H2153 0.930 . S
C2142 C2138 1.524 . S
C2142 H2154 0.956 . S
C2142 H2155 0.961 . S
C2142 H2156 0.961 . S
C2143 C2140 1.539 . S
C2143 H2157 0.958 . S
C2143 H2158 0.961 . S
C2143 H2159 0.960 . S
H2144 C2128 0.931 . S
H2145 C2133 0.929 . S
H2146 C2134 0.960 . S
H2147 C2134 0.962 . S
H2148 C2134 0.960 . S
H2149 C2135 0.961 . S
H2150 C2135 0.961 . S
H2151 C2135 0.961 . S
H2152 C2136 0.931 . S
H2153 C2141 0.930 . S
H2154 C2142 0.956 . S
H2155 C2142 0.961 . S
H2156 C2142 0.961 . S
H2157 C2143 0.958 . S
H2158 C2143 0.961 . S
H2159 C2143 0.960 . S
C2160 C2161 1.391 . S
C2160 C2162 1.394 . S
C2160 H2176 0.931 . S
C2161 C2160 1.391 . S
C2161 C2165 1.376 . S
C2162 C2160 1.394 . S
C2162 C2163 1.369 . S
C2162 C2166 1.531 . S
C2163 C2162 1.369 . S
C2163 C2164 1.410 . S
C2163 C2171 1.503 . S
C2164 C2163 1.410 . S
C2164 C2165 1.392 . S
C2164 C2167 1.511 . S
C2165 C2161 1.376 . S
C2165 C2164 1.392 . S
C2165 H2177 0.929 . S
C2166 C2162 1.531 . S
C2166 H2178 0.960 . S
C2166 H2179 0.962 . S
C2166 H2180 0.960 . S
C2167 C2164 1.511 . S
C2167 H2181 0.961 . S
C2167 H2182 0.961 . S
C2167 H2183 0.961 . S
C2168 C2169 1.370 1_545 S
C2168 C2170 1.363 1_545 S
C2168 H2184 0.931 . S
C2169 C2168 1.370 1_565 S
C2169 C2173 1.408 . S
C2170 C2168 1.363 1_565 S
C2170 C2171 1.370 . S
C2170 C2174 1.524 1_565 S
C2171 C2163 1.503 . S
C2171 C2170 1.370 . S
C2171 C2172 1.403 . S
C2172 C2171 1.403 . S
C2172 C2173 1.404 . S
C2172 C2175 1.539 . S
C2173 C2169 1.408 . S
C2173 C2172 1.404 . S
C2173 H2185 0.930 . S
C2174 C2170 1.524 1_545 S
C2174 H2186 0.956 . S
C2174 H2187 0.961 . S
C2174 H2188 0.961 . S
C2175 C2172 1.539 . S
C2175 H2189 0.958 . S
C2175 H2190 0.961 . S
C2175 H2191 0.960 . S
H2176 C2160 0.931 . S
H2177 C2165 0.929 . S
H2178 C2166 0.960 . S
H2179 C2166 0.962 . S
H2180 C2166 0.960 . S
H2181 C2167 0.961 . S
H2182 C2167 0.961 . S
H2183 C2167 0.961 . S
H2184 C2168 0.931 . S
H2185 C2173 0.930 . S
H2186 C2174 0.956 . S
H2187 C2174 0.961 . S
H2188 C2174 0.961 . S
H2189 C2175 0.958 . S
H2190 C2175 0.961 . S
H2191 C2175 0.960 . S
C2192 C2193 1.391 . S
C2192 C2194 1.394 . S
C2192 H2208 0.931 . S
C2193 C2192 1.391 . S
C2193 C2197 1.376 . S
C2194 C2192 1.394 . S
C2194 C2195 1.369 . S
C2194 C2198 1.531 . S
C2195 C2194 1.369 . S
C2195 C2196 1.410 . S
C2195 C2203 1.503 . S
C2196 C2195 1.410 . S
C2196 C2197 1.392 . S
C2196 C2199 1.511 . S
C2197 C2193 1.376 . S
C2197 C2196 1.392 . S
C2197 H2209 0.929 . S
C2198 C2194 1.531 . S
C2198 H2210 0.960 1_455 S
C2198 H2211 0.962 . S
C2198 H2212 0.960 1_455 S
C2199 C2196 1.511 . S
C2199 H2213 0.961 . S
C2199 H2214 0.961 . S
C2199 H2215 0.961 1_455 S
C2200 C2201 1.370 . S
C2200 C2202 1.363 . S
C2200 H2216 0.931 . S
C2201 C2200 1.370 . S
C2201 C2205 1.408 1_455 S
C2202 C2200 1.363 . S
C2202 C2203 1.370 . S
C2202 C2206 1.524 . S
C2203 C2195 1.503 . S
C2203 C2202 1.370 . S
C2203 C2204 1.403 1_455 S
C2204 C2203 1.403 1_655 S
C2204 C2205 1.404 . S
C2204 C2207 1.539 . S
C2205 C2201 1.408 1_655 S
C2205 C2204 1.404 . S
C2205 H2217 0.930 . S
C2206 C2202 1.524 . S
C2206 H2218 0.956 . S
C2206 H2219 0.961 . S
C2206 H2220 0.961 . S
C2207 C2204 1.539 . S
C2207 H2221 0.958 . S
C2207 H2222 0.961 . S
C2207 H2223 0.960 . S
H2208 C2192 0.931 . S
H2209 C2197 0.929 . S
H2210 C2198 0.960 1_655 S
H2211 C2198 0.962 . S
H2212 C2198 0.960 1_655 S
H2213 C2199 0.961 . S
H2214 C2199 0.961 . S
H2215 C2199 0.961 1_655 S
H2216 C2200 0.931 . S
H2217 C2205 0.930 . S
H2218 C2206 0.956 . S
H2219 C2206 0.961 . S
H2220 C2206 0.961 . S
H2221 C2207 0.958 . S
H2222 C2207 0.961 . S
H2223 C2207 0.960 . S
C2224 C2225 1.391 . S
C2224 C2226 1.394 . S
C2224 H2240 0.931 . S
C2225 C2224 1.391 . S
C2225 C2229 1.376 . S
C2226 C2224 1.394 . S
C2226 C2227 1.369 . S
C2226 C2230 1.531 . S
C2227 C2226 1.369 . S
C2227 C2228 1.410 . S
C2227 C2235 1.503 . S
C2228 C2227 1.410 . S
C2228 C2229 1.392 . S
C2228 C2231 1.511 . S
C2229 C2225 1.376 . S
C2229 C2228 1.392 . S
C2229 H2241 0.929 . S
C2230 C2226 1.531 . S
C2230 H2242 0.960 . S
C2230 H2243 0.962 . S
C2230 H2244 0.960 . S
C2231 C2228 1.511 . S
C2231 H2245 0.961 . S
C2231 H2246 0.961 . S
C2231 H2247 0.961 . S
C2232 C2233 1.370 . S
C2232 C2234 1.363 . S
C2232 H2248 0.931 . S
C2233 C2232 1.370 . S
C2233 C2237 1.408 . S
C2234 C2232 1.363 . S
C2234 C2235 1.370 . S
C2234 C2238 1.524 . S
C2235 C2227 1.503 . S
C2235 C2234 1.370 . S
C2235 C2236 1.403 . S
C2236 C2235 1.403 . S
C2236 C2237 1.404 . S
C2236 C2239 1.539 . S
C2237 C2233 1.408 . S
C2237 C2236 1.404 . S
C2237 H2249 0.930 . S
C2238 C2234 1.524 . S
C2238 H2250 0.956 . S
C2238 H2251 0.961 . S
C2238 H2252 0.961 . S
C2239 C2236 1.539 . S
C2239 H2253 0.958 . S
C2239 H2254 0.961 . S
C2239 H2255 0.960 . S
H2240 C2224 0.931 . S
H2241 C2229 0.929 . S
H2242 C2230 0.960 . S
H2243 C2230 0.962 . S
H2244 C2230 0.960 . S
H2245 C2231 0.961 . S
H2246 C2231 0.961 . S
H2247 C2231 0.961 . S
H2248 C2232 0.931 . S
H2249 C2237 0.930 . S
H2250 C2238 0.956 . S
H2251 C2238 0.961 . S
H2252 C2238 0.961 . S
H2253 C2239 0.958 . S
H2254 C2239 0.961 . S
H2255 C2239 0.960 . S
C2256 C2257 1.391 1_455 S
C2256 C2258 1.394 . S
C2256 H2272 0.931 . S
C2257 C2256 1.391 1_655 S
C2257 C2261 1.376 . S
C2258 C2256 1.394 . S
C2258 C2259 1.369 1_455 S
C2258 C2262 1.531 . S
C2259 C2258 1.369 1_655 S
C2259 C2260 1.410 . S
C2259 C2267 1.503 . S
C2260 C2259 1.410 . S
C2260 C2261 1.392 . S
C2260 C2263 1.511 . S
C2261 C2257 1.376 . S
C2261 C2260 1.392 . S
C2261 H2273 0.929 . S
C2262 C2258 1.531 . S
C2262 H2274 0.960 . S
C2262 H2275 0.962 . S
C2262 H2276 0.960 . S
C2263 C2260 1.511 . S
C2263 H2277 0.961 . S
C2263 H2278 0.961 . S
C2263 H2279 0.961 . S
C2264 C2265 1.370 . S
C2264 C2266 1.363 . S
C2264 H2280 0.931 . S
C2265 C2264 1.370 . S
C2265 C2269 1.408 . S
C2266 C2264 1.363 . S
C2266 C2267 1.370 . S
C2266 C2270 1.524 . S
C2267 C2259 1.503 . S
C2267 C2266 1.370 . S
C2267 C2268 1.403 . S
C2268 C2267 1.403 . S
C2268 C2269 1.404 . S
C2268 C2271 1.539 . S
C2269 C2265 1.408 . S
C2269 C2268 1.404 . S
C2269 H2281 0.930 . S
C2270 C2266 1.524 . S
C2270 H2282 0.985 . S
C2270 H2283 0.961 . S
C2270 H2284 0.961 . S
C2271 C2268 1.539 . S
C2271 H2285 0.958 1_655 S
C2271 H2286 0.961 . S
C2271 H2287 0.960 . S
H2272 C2256 0.931 . S
H2273 C2261 0.929 . S
H2274 C2262 0.960 . S
H2275 C2262 0.962 . S
H2276 C2262 0.960 . S
H2277 C2263 0.961 . S
H2278 C2263 0.961 . S
H2279 C2263 0.961 . S
H2280 C2264 0.931 . S
H2281 C2269 0.930 . S
H2282 C2270 0.985 . S
H2283 C2270 0.961 . S
H2284 C2270 0.961 . S
H2285 C2271 0.958 1_455 S
H2286 C2271 0.961 . S
H2287 C2271 0.960 . S
C2288 C2289 1.391 . S
C2288 C2290 1.394 . S
C2288 H2304 0.931 . S
C2289 C2288 1.391 . S
C2289 C2293 1.376 . S
C2290 C2288 1.394 . S
C2290 C2291 1.369 . S
C2290 C2294 1.531 . S
C2291 C2290 1.369 . S
C2291 C2292 1.410 . S
C2291 C2299 1.503 . S
C2292 C2291 1.410 . S
C2292 C2293 1.392 . S
C2292 C2295 1.511 . S
C2293 C2289 1.376 . S
C2293 C2292 1.392 . S
C2293 H2305 0.929 . S
C2294 C2290 1.531 . S
C2294 H2306 0.960 . S
C2294 H2307 0.962 . S
C2294 H2308 0.960 . S
C2295 C2292 1.511 . S
C2295 H2309 0.961 . S
C2295 H2310 0.961 . S
C2295 H2311 0.961 . S
C2296 C2297 1.370 . S
C2296 C2298 1.363 . S
C2296 H2312 0.931 . S
C2297 C2296 1.370 . S
C2297 C2301 1.408 . S
C2298 C2296 1.363 . S
C2298 C2299 1.370 . S
C2298 C2302 1.524 . S
C2299 C2291 1.503 . S
C2299 C2298 1.370 . S
C2299 C2300 1.403 . S
C2300 C2299 1.403 . S
C2300 C2301 1.404 . S
C2300 C2303 1.539 . S
C2301 C2297 1.408 . S
C2301 C2300 1.404 . S
C2301 H2313 0.930 . S
C2302 C2298 1.524 . S
C2302 H2314 0.956 . S
C2302 H2315 0.961 . S
C2302 H2316 0.961 . S
C2303 C2300 1.539 . S
C2303 H2317 0.958 . S
C2303 H2318 0.961 . S
C2303 H2319 0.960 . S
H2304 C2288 0.931 . S
H2305 C2293 0.929 . S
H2306 C2294 0.960 . S
H2307 C2294 0.962 . S
H2308 C2294 0.960 . S
H2309 C2295 0.961 . S
H2310 C2295 0.961 . S
H2311 C2295 0.961 . S
H2312 C2296 0.931 . S
H2313 C2301 0.930 . S
H2314 C2302 0.956 . S
H2315 C2302 0.961 . S
H2316 C2302 0.961 . S
H2317 C2303 0.958 . S
H2318 C2303 0.961 . S
H2319 C2303 0.960 . S
C2320 C2321 1.391 . S
C2320 C2322 1.394 . S
C2320 H2336 0.931 . S
C2321 C2320 1.391 . S
C2321 C2325 1.376 . S
C2322 C2320 1.394 . S
C2322 C2323 1.369 . S
C2322 C2326 1.531 1_545 S
C2323 C2322 1.369 . S
C2323 C2324 1.410 . S
C2323 C2331 1.503 . S
C2324 C2323 1.410 . S
C2324 C2325 1.392 . S
C2324 C2327 1.511 . S
C2325 C2321 1.376 . S
C2325 C2324 1.392 . S
C2325 H2337 0.929 . S
C2326 C2322 1.531 1_565 S
C2326 H2338 0.960 . S
C2326 H2339 0.962 1_565 S
C2326 H2340 0.960 . S
C2327 C2324 1.511 . S
C2327 H2341 0.961 . S
C2327 H2342 0.961 . S
C2327 H2343 0.961 . S
C2328 C2329 1.370 . S
C2328 C2330 1.363 . S
C2328 H2344 0.931 . S
C2329 C2328 1.370 . S
C2329 C2333 1.408 1_545 S
C2330 C2328 1.363 . S
C2330 C2331 1.370 . S
C2330 C2334 1.524 . S
C2331 C2323 1.503 . S
C2331 C2330 1.370 . S
C2331 C2332 1.403 1_545 S
C2332 C2331 1.403 1_565 S
C2332 C2333 1.404 . S
C2332 C2335 1.539 . S
C2333 C2329 1.408 1_565 S
C2333 C2332 1.404 . S
C2333 H2345 0.930 . S
C2334 C2330 1.524 . S
C2334 H2346 0.956 . S
C2334 H2347 0.961 . S
C2334 H2348 0.961 . S
C2335 C2332 1.539 . S
C2335 H2349 0.958 . S
C2335 H2350 0.961 . S
C2335 H2351 0.960 . S
H2336 C2320 0.931 . S
H2337 C2325 0.929 . S
H2338 C2326 0.960 . S
H2339 C2326 0.962 1_545 S
H2340 C2326 0.960 . S
H2341 C2327 0.961 . S
H2342 C2327 0.961 . S
H2343 C2327 0.961 . S
H2344 C2328 0.931 . S
H2345 C2333 0.930 . S
H2346 C2334 0.956 . S
H2347 C2334 0.961 . S
H2348 C2334 0.961 . S
H2349 C2335 0.958 . S
H2350 C2335 0.961 . S
H2351 C2335 0.960 . S
C2352 C2353 1.391 . S
C2352 C2354 1.394 . S
C2352 H2368 0.931 . S
C2353 C2352 1.391 . S
C2353 C2357 1.376 . S
C2354 C2352 1.394 . S
C2354 C2355 1.369 . S
C2354 C2358 1.531 . S
C2355 C2354 1.369 . S
C2355 C2356 1.410 . S
C2355 C2363 1.503 . S
C2356 C2355 1.410 . S
C2356 C2357 1.392 . S
C2356 C2359 1.511 . S
C2357 C2353 1.376 . S
C2357 C2356 1.392 . S
C2357 H2369 0.929 . S
C2358 C2354 1.531 . S
C2358 H2370 0.960 . S
C2358 H2371 0.962 . S
C2358 H2372 0.960 . S
C2359 C2356 1.511 . S
C2359 H2373 0.961 . S
C2359 H2374 0.961 . S
C2359 H2375 0.961 . S
C2360 C2361 1.370 . S
C2360 C2362 1.363 . S
C2360 H2376 0.931 . S
C2361 C2360 1.370 . S
C2361 C2365 1.408 . S
C2362 C2360 1.363 . S
C2362 C2363 1.370 . S
C2362 C2366 1.524 . S
C2363 C2355 1.503 . S
C2363 C2362 1.370 . S
C2363 C2364 1.403 . S
C2364 C2363 1.403 . S
C2364 C2365 1.404 . S
C2364 C2367 1.539 . S
C2365 C2361 1.408 . S
C2365 C2364 1.404 . S
C2365 H2377 0.930 . S
C2366 C2362 1.524 . S
C2366 H2378 0.956 . S
C2366 H2379 0.961 . S
C2366 H2380 0.961 . S
C2367 C2364 1.539 . S
C2367 H2381 0.958 . S
C2367 H2382 0.961 . S
C2367 H2383 0.960 . S
H2368 C2352 0.931 . S
H2369 C2357 0.929 . S
H2370 C2358 0.960 . S
H2371 C2358 0.962 . S
H2372 C2358 0.960 . S
H2373 C2359 0.961 . S
H2374 C2359 0.961 . S
H2375 C2359 0.961 . S
H2376 C2360 0.931 . S
H2377 C2365 0.930 . S
H2378 C2366 0.956 . S
H2379 C2366 0.961 . S
H2380 C2366 0.961 . S
H2381 C2367 0.958 . S
H2382 C2367 0.961 . S
H2383 C2367 0.960 . S
C2384 C2385 1.391 . S
C2384 C2386 1.394 . S
C2384 H2400 0.931 . S
C2385 C2384 1.391 . S
C2385 C2389 1.376 . S
C2386 C2384 1.394 . S
C2386 C2387 1.369 . S
C2386 C2390 1.531 . S
C2387 C2386 1.369 . S
C2387 C2388 1.410 . S
C2387 C2395 1.503 . S
C2388 C2387 1.410 . S
C2388 C2389 1.392 . S
C2388 C2391 1.511 . S
C2389 C2385 1.376 . S
C2389 C2388 1.392 . S
C2389 H2401 0.929 . S
C2390 C2386 1.531 . S
C2390 H2402 0.960 . S
C2390 H2403 0.962 . S
C2390 H2404 0.960 . S
C2391 C2388 1.511 . S
C2391 H2405 0.961 . S
C2391 H2406 0.961 . S
C2391 H2407 0.961 . S
C2392 C2393 1.370 . S
C2392 C2394 1.363 . S
C2392 H2408 0.931 . S
C2393 C2392 1.370 . S
C2393 C2397 1.408 . S
C2394 C2392 1.363 . S
C2394 C2395 1.370 . S
C2394 C2398 1.524 . S
C2395 C2387 1.503 . S
C2395 C2394 1.370 . S
C2395 C2396 1.403 . S
C2396 C2395 1.403 . S
C2396 C2397 1.404 . S
C2396 C2399 1.539 . S
C2397 C2393 1.408 . S
C2397 C2396 1.404 . S
C2397 H2409 0.930 . S
C2398 C2394 1.524 . S
C2398 H2410 0.956 . S
C2398 H2411 0.961 . S
C2398 H2412 0.961 . S
C2399 C2396 1.539 . S
C2399 H2413 0.958 . S
C2399 H2414 0.961 . S
C2399 H2415 0.960 . S
H2400 C2384 0.931 . S
H2401 C2389 0.929 . S
H2402 C2390 0.960 . S
H2403 C2390 0.962 . S
H2404 C2390 0.960 . S
H2405 C2391 0.961 . S
H2406 C2391 0.961 . S
H2407 C2391 0.961 . S
H2408 C2392 0.931 . S
H2409 C2397 0.930 . S
H2410 C2398 0.956 . S
H2411 C2398 0.961 . S
H2412 C2398 0.961 . S
H2413 C2399 0.958 . S
H2414 C2399 0.961 . S
H2415 C2399 0.960 . S
C2416 C2417 1.391 . S
C2416 C2418 1.394 . S
C2416 H2432 0.931 . S
C2417 C2416 1.391 . S
C2417 C2421 1.376 . S
C2418 C2416 1.394 . S
C2418 C2419 1.369 . S
C2418 C2422 1.531 . S
C2419 C2418 1.369 . S
C2419 C2420 1.410 . S
C2419 C2427 1.503 . S
C2420 C2419 1.410 . S
C2420 C2421 1.392 . S
C2420 C2423 1.511 . S
C2421 C2417 1.376 . S
C2421 C2420 1.392 . S
C2421 H2433 0.929 . S
C2422 C2418 1.531 . S
C2422 H2434 0.960 . S
C2422 H2435 0.962 . S
C2422 H2436 0.960 . S
C2423 C2420 1.511 . S
C2423 H2437 0.961 . S
C2423 H2438 0.961 . S
C2423 H2439 0.961 . S
C2424 C2425 1.370 . S
C2424 C2426 1.363 . S
C2424 H2440 0.931 . S
C2425 C2424 1.370 . S
C2425 C2429 1.408 . S
C2426 C2424 1.363 . S
C2426 C2427 1.370 . S
C2426 C2430 1.524 . S
C2427 C2419 1.503 . S
C2427 C2426 1.370 . S
C2427 C2428 1.403 . S
C2428 C2427 1.403 . S
C2428 C2429 1.404 . S
C2428 C2431 1.539 . S
C2429 C2425 1.408 . S
C2429 C2428 1.404 . S
C2429 H2441 0.930 . S
C2430 C2426 1.524 . S
C2430 H2442 0.956 . S
C2430 H2443 0.961 . S
C2430 H2444 0.961 . S
C2431 C2428 1.539 . S
C2431 H2445 0.958 . S
C2431 H2446 0.961 . S
C2431 H2447 0.960 . S
H2432 C2416 0.931 . S
H2433 C2421 0.929 . S
H2434 C2422 0.960 . S
H2435 C2422 0.962 . S
H2436 C2422 0.960 . S
H2437 C2423 0.961 . S
H2438 C2423 0.961 . S
H2439 C2423 0.961 . S
H2440 C2424 0.931 . S
H2441 C2429 0.930 . S
H2442 C2430 0.956 . S
H2443 C2430 0.961 . S
H2444 C2430 0.961 . S
H2445 C2431 0.958 . S
H2446 C2431 0.961 . S
H2447 C2431 0.960 . S
C2448 C2449 1.391 . S
C2448 C2450 1.394 . S
C2448 H2464 0.931 . S
C2449 C2448 1.391 . S
C2449 C2453 1.376 . S
C2450 C2448 1.394 . S
C2450 C2451 1.369 . S
C2450 C2454 1.531 . S
C2451 C2450 1.369 . S
C2451 C2452 1.410 . S
C2451 C2459 1.503 . S
C2452 C2451 1.410 . S
C2452 C2453 1.392 . S
C2452 C2455 1.511 . S
C2453 C2449 1.376 . S
C2453 C2452 1.392 . S
C2453 H2465 0.929 . S
C2454 C2450 1.531 . S
C2454 H2466 0.960 . S
C2454 H2467 0.962 . S
C2454 H2468 0.960 . S
C2455 C2452 1.511 . S
C2455 H2469 0.961 . S
C2455 H2470 0.961 . S
C2455 H2471 0.961 . S
C2456 C2457 1.370 . S
C2456 C2458 1.363 . S
C2456 H2472 0.931 . S
C2457 C2456 1.370 . S
C2457 C2461 1.408 . S
C2458 C2456 1.363 . S
C2458 C2459 1.370 . S
C2458 C2462 1.524 . S
C2459 C2451 1.503 . S
C2459 C2458 1.370 . S
C2459 C2460 1.403 . S
C2460 C2459 1.403 . S
C2460 C2461 1.404 . S
C2460 C2463 1.539 . S
C2461 C2457 1.408 . S
C2461 C2460 1.404 . S
C2461 H2473 0.930 . S
C2462 C2458 1.524 . S
C2462 H2474 0.956 . S
C2462 H2475 0.961 . S
C2462 H2476 0.961 . S
C2463 C2460 1.539 . S
C2463 H2477 0.958 . S
C2463 H2478 0.961 . S
C2463 H2479 0.960 . S
H2464 C2448 0.931 . S
H2465 C2453 0.929 . S
H2466 C2454 0.960 . S
H2467 C2454 0.962 . S
H2468 C2454 0.960 . S
H2469 C2455 0.961 . S
H2470 C2455 0.961 . S
H2471 C2455 0.961 . S
H2472 C2456 0.931 . S
H2473 C2461 0.930 . S
H2474 C2462 0.956 . S
H2475 C2462 0.961 . S
H2476 C2462 0.961 . S
H2477 C2463 0.958 . S
H2478 C2463 0.961 . S
H2479 C2463 0.960 . S
C2480 C2481 1.391 . S
C2480 C2482 1.394 . S
C2480 H2496 0.931 . S
C2481 C2480 1.391 . S
C2481 C2485 1.376 . S
C2482 C2480 1.394 . S
C2482 C2483 1.369 . S
C2482 C2486 1.531 . S
C2483 C2482 1.369 . S
C2483 C2484 1.410 . S
C2483 C2491 1.503 . S
C2484 C2483 1.410 . S
C2484 C2485 1.392 . S
C2484 C2487 1.511 . S
C2485 C2481 1.376 . S
C2485 C2484 1.392 . S
C2485 H2497 0.929 . S
C2486 C2482 1.531 . S
C2486 H2498 0.960 . S
C2486 H2499 0.962 . S
C2486 H2500 0.960 . S
C2487 C2484 1.511 . S
C2487 H2501 0.961 . S
C2487 H2502 0.961 . S
C2487 H2503 0.961 . S
C2488 C2489 1.370 . S
C2488 C2490 1.363 . S
C2488 H2504 0.931 . S
C2489 C2488 1.370 . S
C2489 C2493 1.408 . S
C2490 C2488 1.363 . S
C2490 C2491 1.370 . S
C2490 C2494 1.524 . S
C2491 C2483 1.503 . S
C2491 C2490 1.370 . S
C2491 C2492 1.403 . S
C2492 C2491 1.403 . S
C2492 C2493 1.404 . S
C2492 C2495 1.539 . S
C2493 C2489 1.408 . S
C2493 C2492 1.404 . S
C2493 H2505 0.930 . S
C2494 C2490 1.524 . S
C2494 H2506 0.956 . S
C2494 H2507 0.961 . S
C2494 H2508 0.961 . S
C2495 C2492 1.539 . S
C2495 H2509 0.958 . S
C2495 H2510 0.961 . S
C2495 H2511 0.960 . S
H2496 C2480 0.931 . S
H2497 C2485 0.929 . S
H2498 C2486 0.960 . S
H2499 C2486 0.962 . S
H2500 C2486 0.960 . S
H2501 C2487 0.961 . S
H2502 C2487 0.961 . S
H2503 C2487 0.961 . S
H2504 C2488 0.931 . S
H2505 C2493 0.930 . S
H2506 C2494 0.956 . S
H2507 C2494 0.961 . S
H2508 C2494 0.961 . S
H2509 C2495 0.958 . S
H2510 C2495 0.961 . S
H2511 C2495 0.960 . S
C2512 C2513 1.391 . S
C2512 C2514 1.394 . S
C2512 H2528 0.931 . S
C2513 C2512 1.391 . S
C2513 C2517 1.376 . S
C2514 C2512 1.394 . S
C2514 C2515 1.369 . S
C2514 C2518 1.531 . S
C2515 C2514 1.369 . S
C2515 C2516 1.410 . S
C2515 C2523 1.503 . S
C2516 C2515 1.410 . S
C2516 C2517 1.392 . S
C2516 C2519 1.511 . S
C2517 C2513 1.376 . S
C2517 C2516 1.392 . S
C2517 H2529 0.929 . S
C2518 C2514 1.531 . S
C2518 H2530 0.960 . S
C2518 H2531 0.962 . S
C2518 H2532 0.960 . S
C2519 C2516 1.511 . S
C2519 H2533 0.961 . S
C2519 H2534 0.961 . S
C2519 H2535 0.961 . S
C2520 C2521 1.370 . S
C2520 C2522 1.363 . S
C2520 H2536 0.931 . S
C2521 C2520 1.370 . S
C2521 C2525 1.408 . S
C2522 C2520 1.363 . S
C2522 C2523 1.370 . S
C2522 C2526 1.524 . S
C2523 C2515 1.503 . S
C2523 C2522 1.370 . S
C2523 C2524 1.403 . S
C2524 C2523 1.403 . S
C2524 C2525 1.404 . S
C2524 C2527 1.539 . S
C2525 C2521 1.408 . S
C2525 C2524 1.404 . S
C2525 H2537 0.930 . S
C2526 C2522 1.524 . S
C2526 H2538 0.956 . S
C2526 H2539 0.961 . S
C2526 H2540 0.961 . S
C2527 C2524 1.539 . S
C2527 H2541 0.958 . S
C2527 H2542 0.961 . S
C2527 H2543 0.960 . S
H2528 C2512 0.931 . S
H2529 C2517 0.929 . S
H2530 C2518 0.960 . S
H2531 C2518 0.962 . S
H2532 C2518 0.960 . S
H2533 C2519 0.961 . S
H2534 C2519 0.961 . S
H2535 C2519 0.961 . S
H2536 C2520 0.931 . S
H2537 C2525 0.930 . S
H2538 C2526 0.956 . S
H2539 C2526 0.961 . S
H2540 C2526 0.961 . S
H2541 C2527 0.958 . S
H2542 C2527 0.961 . S
H2543 C2527 0.960 . S
C2544 C2545 1.391 . S
C2544 C2546 1.394 . S
C2544 H2560 0.931 . S
C2545 C2544 1.391 . S
C2545 C2549 1.376 . S
C2546 C2544 1.394 . S
C2546 C2547 1.369 . S
C2546 C2550 1.531 . S
C2547 C2546 1.369 . S
C2547 C2548 1.410 . S
C2547 C2555 1.503 . S
C2548 C2547 1.410 . S
C2548 C2549 1.392 . S
C2548 C2551 1.511 . S
C2549 C2545 1.376 . S
C2549 C2548 1.392 . S
C2549 H2561 0.929 . S
C2550 C2546 1.531 . S
C2550 H2562 0.960 . S
C2550 H2563 0.962 . S
C2550 H2564 0.960 . S
C2551 C2548 1.511 . S
C2551 H2565 0.961 . S
C2551 H2566 0.961 . S
C2551 H2567 0.961 . S
C2552 C2553 1.370 . S
C2552 C2554 1.363 . S
C2552 H2568 0.931 . S
C2553 C2552 1.370 . S
C2553 C2557 1.408 . S
C2554 C2552 1.363 . S
C2554 C2555 1.370 . S
C2554 C2558 1.524 . S
C2555 C2547 1.503 . S
C2555 C2554 1.370 . S
C2555 C2556 1.403 . S
C2556 C2555 1.403 . S
C2556 C2557 1.404 . S
C2556 C2559 1.539 . S
C2557 C2553 1.408 . S
C2557 C2556 1.404 . S
C2557 H2569 0.930 . S
C2558 C2554 1.524 . S
C2558 H2570 0.956 . S
C2558 H2571 0.961 . S
C2558 H2572 0.961 . S
C2559 C2556 1.539 . S
C2559 H2573 0.958 . S
C2559 H2574 0.961 . S
C2559 H2575 0.960 . S
H2560 C2544 0.931 . S
H2561 C2549 0.929 . S
H2562 C2550 0.960 . S
H2563 C2550 0.962 . S
H2564 C2550 0.960 . S
H2565 C2551 0.961 . S
H2566 C2551 0.961 . S
H2567 C2551 0.961 . S
H2568 C2552 0.931 . S
H2569 C2557 0.930 . S
H2570 C2558 0.956 . S
H2571 C2558 0.961 . S
H2572 C2558 0.961 . S
H2573 C2559 0.958 . S
H2574 C2559 0.961 . S
H2575 C2559 0.960 . S
C2576 C2577 1.391 . S
C2576 C2578 1.394 . S
C2576 H2592 0.931 . S
C2577 C2576 1.391 . S
C2577 C2581 1.376 . S
C2578 C2576 1.394 . S
C2578 C2579 1.369 . S
C2578 C2582 1.531 . S
C2579 C2578 1.369 . S
C2579 C2580 1.410 . S
C2579 C2587 1.503 . S
C2580 C2579 1.410 . S
C2580 C2581 1.392 . S
C2580 C2583 1.511 . S
C2581 C2577 1.376 . S
C2581 C2580 1.392 . S
C2581 H2593 0.929 . S
C2582 C2578 1.531 . S
C2582 H2594 0.960 . S
C2582 H2595 0.962 . S
C2582 H2596 0.960 . S
C2583 C2580 1.511 . S
C2583 H2597 0.961 . S
C2583 H2598 0.961 . S
C2583 H2599 0.961 . S
C2584 C2585 1.370 . S
C2584 C2586 1.363 . S
C2584 H2600 0.931 . S
C2585 C2584 1.370 . S
C2585 C2589 1.408 . S
C2586 C2584 1.363 . S
C2586 C2587 1.370 . S
C2586 C2590 1.524 . S
C2587 C2579 1.503 . S
C2587 C2586 1.370 . S
C2587 C2588 1.403 . S
C2588 C2587 1.403 . S
C2588 C2589 1.404 . S
C2588 C2591 1.539 . S
C2589 C2585 1.408 . S
C2589 C2588 1.404 . S
C2589 H2601 0.930 . S
C2590 C2586 1.524 . S
C2590 H2602 0.956 . S
C2590 H2603 0.961 . S
C2590 H2604 0.961 . S
C2591 C2588 1.539 . S
C2591 H2605 0.958 . S
C2591 H2606 0.961 . S
C2591 H2607 0.960 . S
H2592 C2576 0.931 . S
H2593 C2581 0.929 . S
H2594 C2582 0.960 . S
H2595 C2582 0.962 . S
H2596 C2582 0.960 . S
H2597 C2583 0.961 . S
H2598 C2583 0.961 . S
H2599 C2583 0.961 . S
H2600 C2584 0.931 . S
H2601 C2589 0.930 . S
H2602 C2590 0.956 . S
H2603 C2590 0.961 . S
H2604 C2590 0.961 . S
H2605 C2591 0.958 . S
H2606 C2591 0.961 . S
H2607 C2591 0.960 . S
C2608 C2609 1.391 . S
C2608 C2610 1.394 . S
C2608 H2624 0.931 . S
C2609 C2608 1.391 . S
C2609 C2613 1.376 . S
C2610 C2608 1.394 . S
C2610 C2611 1.369 . S
C2610 C2614 1.531 . S
C2611 C2610 1.369 . S
C2611 C2612 1.410 . S
C2611 C2619 1.503 . S
C2612 C2611 1.410 . S
C2612 C2613 1.392 . S
C2612 C2615 1.511 . S
C2613 C2609 1.376 . S
C2613 C2612 1.392 . S
C2613 H2625 0.929 . S
C2614 C2610 1.531 . S
C2614 H2626 0.960 . S
C2614 H2627 0.962 . S
C2614 H2628 0.960 . S
C2615 C2612 1.511 . S
C2615 H2629 0.961 . S
C2615 H2630 0.961 . S
C2615 H2631 0.961 . S
C2616 C2617 1.370 . S
C2616 C2618 1.363 . S
C2616 H2632 0.931 . S
C2617 C2616 1.370 . S
C2617 C2621 1.408 . S
C2618 C2616 1.363 . S
C2618 C2619 1.370 . S
C2618 C2622 1.524 . S
C2619 C2611 1.503 . S
C2619 C2618 1.370 . S
C2619 C2620 1.403 . S
C2620 C2619 1.403 . S
C2620 C2621 1.404 . S
C2620 C2623 1.539 . S
C2621 C2617 1.408 . S
C2621 C2620 1.404 . S
C2621 H2633 0.930 . S
C2622 C2618 1.524 . S
C2622 H2634 0.956 . S
C2622 H2635 0.961 . S
C2622 H2636 0.961 . S
C2623 C2620 1.539 . S
C2623 H2637 0.958 . S
C2623 H2638 0.961 . S
C2623 H2639 0.960 . S
H2624 C2608 0.931 . S
H2625 C2613 0.929 . S
H2626 C2614 0.960 . S
H2627 C2614 0.962 . S
H2628 C2614 0.960 . S
H2629 C2615 0.961 . S
H2630 C2615 0.961 . S
H2631 C2615 0.961 . S
H2632 C2616 0.931 . S
H2633 C2621 0.930 . S
H2634 C2622 0.956 . S
H2635 C2622 0.961 . S
H2636 C2622 0.961 . S
H2637 C2623 0.958 . S
H2638 C2623 0.961 . S
H2639 C2623 0.960 . S
C2640 C2641 1.391 . S
C2640 C2642 1.394 . S
C2640 H2656 0.931 . S
C2641 C2640 1.391 . S
C2641 C2645 1.376 . S
C2642 C2640 1.394 . S
C2642 C2643 1.369 . S
C2642 C2646 1.531 . S
C2643 C2642 1.369 . S
C2643 C2644 1.410 . S
C2643 C2651 1.503 . S
C2644 C2643 1.410 . S
C2644 C2645 1.392 . S
C2644 C2647 1.511 . S
C2645 C2641 1.376 . S
C2645 C2644 1.392 . S
C2645 H2657 0.929 . S
C2646 C2642 1.531 . S
C2646 H2658 0.960 . S
C2646 H2659 0.962 . S
C2646 H2660 0.960 . S
C2647 C2644 1.511 . S
C2647 H2661 0.961 . S
C2647 H2662 0.961 . S
C2647 H2663 0.961 . S
C2648 C2649 1.370 . S
C2648 C2650 1.363 . S
C2648 H2664 0.931 . S
C2649 C2648 1.370 . S
C2649 C2653 1.408 . S
C2650 C2648 1.363 . S
C2650 C2651 1.370 . S
C2650 C2654 1.524 . S
C2651 C2643 1.503 . S
C2651 C2650 1.370 . S
C2651 C2652 1.403 . S
C2652 C2651 1.403 . S
C2652 C2653 1.404 . S
C2652 C2655 1.539 . S
C2653 C2649 1.408 . S
C2653 C2652 1.404 . S
C2653 H2665 0.930 . S
C2654 C2650 1.524 . S
C2654 H2666 0.956 . S
C2654 H2667 0.961 . S
C2654 H2668 0.961 . S
C2655 C2652 1.539 . S
C2655 H2669 0.958 . S
C2655 H2670 0.961 . S
C2655 H2671 0.960 . S
H2656 C2640 0.931 . S
H2657 C2645 0.929 . S
H2658 C2646 0.960 . S
H2659 C2646 0.962 . S
H2660 C2646 0.960 . S
H2661 C2647 0.961 . S
H2662 C2647 0.961 . S
H2663 C2647 0.961 . S
H2664 C2648 0.931 . S
H2665 C2653 0.930 . S
H2666 C2654 0.956 . S
H2667 C2654 0.961 . S
H2668 C2654 0.961 . S
H2669 C2655 0.958 . S
H2670 C2655 0.961 . S
H2671 C2655 0.960 . S
C2672 C2673 1.391 . S
C2672 C2674 1.394 . S
C2672 H2688 0.931 . S
C2673 C2672 1.391 . S
C2673 C2677 1.376 . S
C2674 C2672 1.394 . S
C2674 C2675 1.369 . S
C2674 C2678 1.531 . S
C2675 C2674 1.369 . S
C2675 C2676 1.410 . S
C2675 C2683 1.503 . S
C2676 C2675 1.410 . S
C2676 C2677 1.392 . S
C2676 C2679 1.511 . S
C2677 C2673 1.376 . S
C2677 C2676 1.392 . S
C2677 H2689 0.929 . S
C2678 C2674 1.531 . S
C2678 H2690 0.960 . S
C2678 H2691 0.962 . S
C2678 H2692 0.960 . S
C2679 C2676 1.511 . S
C2679 H2693 0.961 . S
C2679 H2694 0.961 . S
C2679 H2695 0.961 . S
C2680 C2681 1.370 . S
C2680 C2682 1.363 . S
C2680 H2696 0.931 . S
C2681 C2680 1.370 . S
C2681 C2685 1.408 . S
C2682 C2680 1.363 . S
C2682 C2683 1.370 . S
C2682 C2686 1.524 . S
C2683 C2675 1.503 . S
C2683 C2682 1.370 . S
C2683 C2684 1.403 . S
C2684 C2683 1.403 . S
C2684 C2685 1.404 . S
C2684 C2687 1.539 . S
C2685 C2681 1.408 . S
C2685 C2684 1.404 . S
C2685 H2697 0.930 . S
C2686 C2682 1.524 . S
C2686 H2698 0.956 . S
C2686 H2699 0.961 . S
C2686 H2700 0.961 . S
C2687 C2684 1.539 . S
C2687 H2701 0.958 . S
C2687 H2702 0.961 . S
C2687 H2703 0.960 . S
H2688 C2672 0.931 . S
H2689 C2677 0.929 . S
H2690 C2678 0.960 . S
H2691 C2678 0.962 . S
H2692 C2678 0.960 . S
H2693 C2679 0.961 . S
H2694 C2679 0.961 . S
H2695 C2679 0.961 . S
H2696 C2680 0.931 . S
H2697 C2685 0.930 . S
H2698 C2686 0.956 . S
H2699 C2686 0.961 . S
H2700 C2686 0.961 . S
H2701 C2687 0.958 . S
H2702 C2687 0.961 . S
H2703 C2687 0.960 . S
C2704 C2705 1.391 . S
C2704 C2706 1.394 . S
C2704 H2720 0.931 . S
C2705 C2704 1.391 . S
C2705 C2709 1.376 . S
C2706 C2704 1.394 . S
C2706 C2707 1.369 . S
C2706 C2710 1.531 . S
C2707 C2706 1.369 . S
C2707 C2708 1.410 . S
C2707 C2715 1.503 . S
C2708 C2707 1.410 . S
C2708 C2709 1.392 . S
C2708 C2711 1.511 . S
C2709 C2705 1.376 . S
C2709 C2708 1.392 . S
C2709 H2721 0.929 . S
C2710 C2706 1.531 . S
C2710 H2722 0.960 . S
C2710 H2723 0.962 . S
C2710 H2724 0.960 . S
C2711 C2708 1.511 . S
C2711 H2725 0.961 . S
C2711 H2726 0.961 . S
C2711 H2727 0.961 . S
C2712 C2713 1.370 . S
C2712 C2714 1.363 . S
C2712 H2728 0.931 . S
C2713 C2712 1.370 . S
C2713 C2717 1.408 . S
C2714 C2712 1.363 . S
C2714 C2715 1.370 . S
C2714 C2718 1.524 . S
C2715 C2707 1.503 . S
C2715 C2714 1.370 . S
C2715 C2716 1.403 . S
C2716 C2715 1.403 . S
C2716 C2717 1.404 . S
C2716 C2719 1.539 . S
C2717 C2713 1.408 . S
C2717 C2716 1.404 . S
C2717 H2729 0.930 . S
C2718 C2714 1.524 . S
C2718 H2730 0.956 . S
C2718 H2731 0.961 . S
C2718 H2732 0.961 . S
C2719 C2716 1.539 . S
C2719 H2733 0.958 . S
C2719 H2734 0.961 . S
C2719 H2735 0.960 . S
H2720 C2704 0.931 . S
H2721 C2709 0.929 . S
H2722 C2710 0.960 . S
H2723 C2710 0.962 . S
H2724 C2710 0.960 . S
H2725 C2711 0.961 . S
H2726 C2711 0.961 . S
H2727 C2711 0.961 . S
H2728 C2712 0.931 . S
H2729 C2717 0.930 . S
H2730 C2718 0.956 . S
H2731 C2718 0.961 . S
H2732 C2718 0.961 . S
H2733 C2719 0.958 . S
H2734 C2719 0.961 . S
H2735 C2719 0.960 . S
C1009 C469 1.692 . S
C1017 C651 1.689 . S
C1041 C505 1.804 . S
C1049 C691 1.795 . S
C1073 C433 1.779 . S
C1081 C743 1.748 . S
C1105 C397 1.564 . S
C1113 C703 1.571 . S
C1145 C731 1.471 . S
C1137 C325 1.479 . S
C1169 C361 1.410 . S
C1177 C663 1.469 . S
C1209 C670 1.688 . S
C1201 C421 1.705 . S
C1241 C710 1.803 . S
C1233 C349 1.789 . S
C1265 C385 1.749 . S
C1273 C730 1.761 . S
C1297 C493 1.575 . S
C1305 C690 1.568 . S
C1329 C529 1.479 . S
C1337 C750 1.473 . S
C1369 C650 1.438 . S
C1361 C457 1.437 . S
C1401 C771 1.696 . S
C1393 C37 1.686 . S
C1425 C73 1.807 . S
C1433 C811 1.798 . S
C1457 C1 1.780 . S
C1465 C863 1.750 . S
C1489 C613 1.597 . S
C1497 C823 1.564 . S
C1521 C541 1.463 . S
C1529 C851 1.479 . S
C1553 C577 1.434 . S
C1561 C783 1.432 . S
C1585 C637 1.684 . S
C1593 C790 1.699 . S
C1617 C565 1.793 . S
C1625 C830 1.802 . S
C1657 C850 1.764 . S
C1649 C601 1.741 . S
C1681 C61 1.568 . S
C1689 C810 1.571 . S
C1721 C870 1.472 . S
C1713 C97 1.480 . S
C1745 C25 1.430 . S
C1753 C770 1.447 . S
C1785 C891 1.695 . S
C1777 C253 1.675 . S
C1809 C289 1.801 . S
C1817 C931 1.795 . S
C1849 C983 1.762 . S
C1841 C217 1.739 . S
C1881 C943 1.560 . S
C1873 C181 1.594 . S
C1913 C971 1.475 . S
C1905 C109 1.477 . S
C1937 C145 1.449 . S
C1945 C903 1.442 . S
C1969 C205 1.684 . S
C1977 C910 1.695 . S
C2001 C133 1.789 . S
C2009 C950 1.802 . S
C2041 C970 1.764 . S
C2033 C169 1.740 . S
C2065 C277 1.568 . S
C2073 C930 1.577 . S
C2097 C313 1.466 . S
C2105 C990 1.480 . S
C2129 C241 1.451 . S
C2137 C890 1.438 . S
C2161 C571 1.323 . S
C2169 C674 1.317 . S
C2201 C714 1.852 . S
C2193 C607 1.888 . S
C2225 C643 1.567 . S
C2233 C737 1.575 . S
C2257 C247 1.880 . S
C2265 C697 1.863 . S
C2289 C283 1.586 . S
C2297 C754 1.576 . S
C2329 C657 1.317 . S
C2321 C319 1.315 . S
C2353 C139 1.314 . S
C2361 C794 1.313 . S
C2385 C175 1.884 . S
C2393 C834 1.856 . S
C2417 C211 1.572 . S
C2425 C857 1.573 . S
C2449 C463 1.887 . S
C2457 C817 1.856 . S
C2489 C874 1.581 . S
C2481 C499 1.582 . S
C2513 C535 1.316 . S
C2521 C777 1.318 . S
C2545 C355 1.313 . S
C2553 C914 1.317 . S
C2577 C391 1.869 . S
C2585 C954 1.864 . S
C2617 C977 1.582 . S
C2609 C427 1.577 . S
C2641 C31 1.875 . S
C2649 C937 1.865 . S
C2673 C67 1.585 . S
C2681 C994 1.577 . S
C2705 C103 1.314 . S
C2713 C897 1.316 . S
