# Generated by pormake.
# Topology pyr, (3,6)-cn, num edge types: 1
# Building blocks:
#     Node 0, Type 0, BuildingBlock: PAMTOO_clean_linker_0, # of connection points: 3
#     Node 1, Type 0, BuildingBlock: PAMTOO_clean_linker_0, # of connection points: 3
#     Node 2, Type 0, BuildingBlock: PAMTOO_clean_linker_0, # of connection points: 3
#     Node 3, Type 0, BuildingBlock: PAMTOO_clean_linker_0, # of connection points: 3
#     Node 4, Type 0, BuildingBlock: PAMTOO_clean_linker_0, # of connection points: 3
#     Node 5, Type 0, BuildingBlock: PAMTOO_clean_linker_0, # of connection points: 3
#     Node 6, Type 0, BuildingBlock: PAMTOO_clean_linker_0, # of connection points: 3
#     Node 7, Type 0, BuildingBlock: PAMTOO_clean_linker_0, # of connection points: 3
#     Node 8, Type 1, BuildingBlock: JUFBIX_clean_sbu_0, # of connection points: 6
#     Node 9, Type 1, BuildingBlock: JUFBIX_clean_sbu_0, # of connection points: 6
#     Node 10, Type 1, BuildingBlock: JUFBIX_clean_sbu_0, # of connection points: 6
#     Node 11, Type 1, BuildingBlock: JUFBIX_clean_sbu_0, # of connection points: 6
#     Edge 12, Type (0, 1), BuildingBlock: TEMPAE_clean_linker_10, # of connection points: 2
#     Edge 13, Type (0, 1), BuildingBlock: TEMPAE_clean_linker_10, # of connection points: 2
#     Edge 14, Type (0, 1), BuildingBlock: TEMPAE_clean_linker_10, # of connection points: 2
#     Edge 15, Type (0, 1), BuildingBlock: TEMPAE_clean_linker_10, # of connection points: 2
#     Edge 16, Type (0, 1), BuildingBlock: TEMPAE_clean_linker_10, # of connection points: 2
#     Edge 17, Type (0, 1), BuildingBlock: TEMPAE_clean_linker_10, # of connection points: 2
#     Edge 18, Type (0, 1), BuildingBlock: TEMPAE_clean_linker_10, # of connection points: 2
#     Edge 19, Type (0, 1), BuildingBlock: TEMPAE_clean_linker_10, # of connection points: 2
#     Edge 20, Type (0, 1), BuildingBlock: TEMPAE_clean_linker_10, # of connection points: 2
#     Edge 21, Type (0, 1), BuildingBlock: TEMPAE_clean_linker_10, # of connection points: 2
#     Edge 22, Type (0, 1), BuildingBlock: TEMPAE_clean_linker_10, # of connection points: 2
#     Edge 23, Type (0, 1), BuildingBlock: TEMPAE_clean_linker_10, # of connection points: 2
#     Edge 24, Type (0, 1), BuildingBlock: TEMPAE_clean_linker_10, # of connection points: 2
#     Edge 25, Type (0, 1), BuildingBlock: TEMPAE_clean_linker_10, # of connection points: 2
#     Edge 26, Type (0, 1), BuildingBlock: TEMPAE_clean_linker_10, # of connection points: 2
#     Edge 27, Type (0, 1), BuildingBlock: TEMPAE_clean_linker_10, # of connection points: 2
#     Edge 28, Type (0, 1), BuildingBlock: TEMPAE_clean_linker_10, # of connection points: 2
#     Edge 29, Type (0, 1), BuildingBlock: TEMPAE_clean_linker_10, # of connection points: 2
#     Edge 30, Type (0, 1), BuildingBlock: TEMPAE_clean_linker_10, # of connection points: 2
#     Edge 31, Type (0, 1), BuildingBlock: TEMPAE_clean_linker_10, # of connection points: 2
#     Edge 32, Type (0, 1), BuildingBlock: TEMPAE_clean_linker_10, # of connection points: 2
#     Edge 33, Type (0, 1), BuildingBlock: TEMPAE_clean_linker_10, # of connection points: 2
#     Edge 34, Type (0, 1), BuildingBlock: TEMPAE_clean_linker_10, # of connection points: 2
#     Edge 35, Type (0, 1), BuildingBlock: TEMPAE_clean_linker_10, # of connection points: 2
# Relax obj value: 0.123
# Max RMSD: 0.202
# Mean RMSD: 0.138
data_MOF--net-pyr--node1-JUFBIX_clean_sbu_0--node2-PAMTOO_clean_linker_0--edge1-TEMPAE_clean_linker_10
_symmetry_space_group_name_H-M    P1
_symmetry_Int_Tables_number       1
_symmetry_cell_setting            triclinic
loop_
_symmetry_equiv_pos_as_xyz
'x, y, z'
_cell_length_a     37.194053
_cell_length_b     36.244997
_cell_length_c     37.641171
_cell_angle_alpha  84.559522
_cell_angle_beta   90.860417
_cell_angle_gamma 95.615862
loop_
_atom_site_label
_atom_site_type_symbol
_atom_site_fract_x
_atom_site_fract_y
_atom_site_fract_z
_atom_type_partial_charge
H0 H 0.15356 0.20076 0.22851 0.0
H1 H 0.23393 0.122 0.24061 0.0
H2 H 0.23699 0.20349 0.14963 0.0
H3 H 0.25853 0.13227 0.13149 0.0
C4 C 0.27069 0.12134 0.15704 0.0
O5 O 0.27002 0.14787 0.18166 0.0
H6 H 0.25312 0.09601 0.16711 0.0
C7 C 0.17713 0.18958 0.21884 0.0
C8 C 0.19299 0.20605 0.18631 0.0
C9 C 0.19138 0.15923 0.23926 0.0
C10 C 0.22209 0.1448 0.22556 0.0
C11 C 0.23875 0.16053 0.19319 0.0
C12 C 0.22412 0.19129 0.17418 0.0
H13 H 0.39616 0.93912 0.66233 0.0
H14 H 0.40367 0.88231 0.56776 0.0
H15 H 0.47174 0.857 0.65799 0.0
H16 H 0.50587 0.86505 0.58905 0.0
C17 C 0.48537 0.84707 0.57499 0.0
O18 O 0.45342 0.84127 0.59357 0.0
H19 H 0.48065 0.8612 0.54803 0.0
C20 C 0.40875 0.91947 0.64773 0.0
C21 C 0.43569 0.89923 0.66432 0.0
C22 C 0.39692 0.91354 0.61297 0.0
C23 C 0.41287 0.88771 0.59439 0.0
C24 C 0.44001 0.86782 0.61061 0.0
C25 C 0.45137 0.87342 0.64546 0.0
H26 H 0.74109 0.31719 0.96302 0.0
H27 H 0.66645 0.33194 0.87564 0.0
H28 H 0.75581 0.41412 0.88681 0.0
H29 H 0.68723 0.44555 0.86341 0.0
C30 C 0.67462 0.4218 0.84941 0.0
O31 O 0.69897 0.3955 0.8487 0.0
H32 H 0.64992 0.40956 0.86418 0.0
C33 C 0.73271 0.33348 0.93923 0.0
C34 C 0.75256 0.36738 0.92757 0.0
C35 C 0.70177 0.32041 0.92066 0.0
C36 C 0.6901 0.34184 0.89046 0.0
C37 C 0.70949 0.37572 0.87863 0.0
C38 C 0.74062 0.38836 0.89701 0.0
H39 H 0.93537 0.68376 0.49543 0.0
H40 H 0.9281 0.62836 0.39876 0.0
H41 H 1.00352 0.72383 0.40543 0.0
H42 H 0.97416 0.72212 0.33188 0.0
C43 C 0.95951 0.69394 0.33727 0.0
O44 O 0.97651 0.6744 0.36483 0.0
H45 H 0.93116 0.69761 0.34436 0.0
C46 C 0.94498 0.68089 0.46891 0.0
C47 C 0.97265 0.7067 0.4537 0.0
C48 C 0.9281 0.65282 0.44916 0.0
C49 C 0.94047 0.64971 0.41459 0.0
C50 C 0.96749 0.67539 0.39923 0.0
C51 C 0.98368 0.70346 0.41866 0.0
H52 H 0.83242 0.92001 0.83202 0.0
H53 H 0.83585 0.83598 0.92138 0.0
H54 H 0.91564 0.84445 0.8393 0.0
H55 H 0.89552 0.7685 0.86494 0.0
C56 C 0.88821 0.7708 0.89312 0.0
O57 O 0.89417 0.80806 0.90018 0.0
H58 H 0.85881 0.76195 0.89594 0.0
C59 C 0.84501 0.89722 0.8462 0.0
C60 C 0.8759 0.88455 0.83093 0.0
C61 C 0.82952 0.87999 0.87885 0.0
C62 C 0.84618 0.8493 0.89613 0.0
C63 C 0.8771 0.83625 0.8819 0.0
C64 C 0.89155 0.85412 0.84956 0.0
H65 H 0.67096 0.08909 0.39564 0.0
H66 H 0.5915 0.16679 0.37334 0.0
H67 H 0.65534 0.17042 0.46898 0.0
H68 H 0.5756 0.1759 0.47406 0.0
C69 C 0.57395 0.19736 0.45101 0.0
O70 O 0.60489 0.20071 0.4309 0.0
H71 H 0.55026 0.18857 0.43434 0.0
C72 C 0.65624 0.11119 0.40389 0.0
C73 C 0.66607 0.12738 0.43554 0.0
C74 C 0.62954 0.12528 0.38124 0.0
C75 C 0.61192 0.1553 0.39075 0.0
C76 C 0.62094 0.171 0.42259 0.0
C77 C 0.64803 0.15728 0.44485 0.0
H78 H 0.35627 0.69287 0.1109 0.0
H79 H 0.34703 0.60265 0.1952 0.0
H80 H 0.4295 0.69306 0.20009 0.0
H81 H 0.45161 0.61946 0.22242 0.0
C82 C 0.42635 0.60599 0.23538 0.0
O83 O 0.40018 0.63063 0.23297 0.0
H84 H 0.41671 0.58127 0.22118 0.0
C85 C 0.36546 0.67909 0.13569 0.0
C86 C 0.39534 0.69612 0.15316 0.0
C87 C 0.34705 0.64541 0.15055 0.0
C88 C 0.35964 0.62903 0.18333 0.0
C89 C 0.38902 0.64633 0.20119 0.0
C90 C 0.40663 0.67997 0.18625 0.0
H91 H 0.08865 0.33337 0.68363 0.0
H92 H 0.1389 0.44461 0.65835 0.0
H93 H 0.08823 0.38459 0.57542 0.0
H94 H 0.1377 0.45875 0.53723 0.0
C95 C 0.1488 0.44297 0.56098 0.0
O96 O 0.12648 0.44606 0.58952 0.0
H97 H 0.14811 0.41359 0.55443 0.0
C98 C 0.09547 0.35692 0.66416 0.0
C99 C 0.0867 0.35441 0.62789 0.0
C100 C 0.11418 0.38942 0.67538 0.0
C101 C 0.1248 0.41924 0.64999 0.0
C102 C 0.11601 0.4172 0.61392 0.0
C103 C 0.09568 0.38548 0.60328 0.0
Co104 Co 1.00765 0.033 0.52439 0.0
C105 C 0.03468 0.96406 0.52173 0.0
Co106 Co 0.05954 0.02736 0.55163 0.0
C107 C 0.93436 0.04989 0.50899 0.0
C108 C 0.95754 0.02334 0.46756 0.0
N109 N 0.96468 0.03556 0.49989 0.0
N110 N 0.90863 0.04726 0.48342 0.0
C111 C 0.92315 0.03044 0.45739 0.0
H112 H 0.93155 0.06268 0.53352 0.0
H113 H 0.97626 0.01022 0.45228 0.0
C114 C 0.03257 0.09609 0.55538 0.0
N115 N 0.10257 0.02488 0.57584 0.0
C116 C 0.13312 0.01236 0.56498 0.0
C117 C 0.11004 0.03514 0.60888 0.0
N118 N 0.15933 0.01419 0.59005 0.0
C119 C 0.14494 0.02847 0.61774 0.0
C120 C 0.06809 0.05583 0.47883 0.0
O121 O 1.0062 0.08261 0.53726 0.0
O122 O 0.05838 0.07646 0.56365 0.0
O123 O 0.08558 0.04637 0.5072 0.0
O124 O 0.03369 0.05251 0.48063 0.0
O125 O 0.06064 0.97778 0.54007 0.0
H126 H 0.09125 0.04659 0.62547 0.0
H127 H 0.13577 1.00134 0.53951 0.0
O128 O 1.00929 0.98374 0.51184 0.0
O129 O 0.98159 0.01311 0.56833 0.0
O130 O 0.03346 0.00842 0.59548 0.0
C131 C 0.99903 1.00397 0.59681 0.0
H132 H 0.9098 0.0235 0.43281 0.0
H133 H 0.15869 0.03384 0.64254 0.0
Co134 Co 0.53777 1.00059 0.99918 0.0
C135 C 0.52566 0.93577 0.04337 0.0
Co136 Co 0.5684 1.0025 0.0493 0.0
C137 C 0.51226 0.9777 0.931 0.0
C138 C 0.49154 0.02785 0.9439 0.0
N139 N 0.51237 1.00115 0.95678 0.0
N140 N 0.49243 0.98898 0.90239 0.0
C141 C 0.47921 0.02043 0.91055 0.0
H142 H 0.52749 0.95362 0.93266 0.0
H143 H 0.48638 0.05175 0.95752 0.0
C144 C 0.5801 0.06743 1.0054 0.0
N145 N 0.59376 1.00274 0.09174 0.0
C146 C 0.5909 0.02583 0.11735 0.0
C147 C 0.61767 0.97911 0.10476 0.0
N148 N 0.61181 0.01745 0.14592 0.0
C149 C 0.62896 0.98823 0.1381 0.0
C150 C 0.6078 0.9756 0.99409 0.0
O151 O 0.5588 0.04948 0.98509 0.0
O152 O 0.58799 0.05209 0.03587 0.0
O153 O 0.60936 0.98377 0.02638 0.0
O154 O 0.57843 0.98023 0.9769 0.0
O155 O 0.54866 0.95287 0.06282 0.0
H156 H 0.6257 0.95618 0.0913 0.0
H157 H 0.57359 0.04828 0.11526 0.0
O158 O 0.5166 0.95167 0.01346 0.0
O159 O 0.49744 0.02088 0.02163 0.0
O160 O 0.52718 0.02146 0.07187 0.0
C161 C 0.49854 0.02787 0.05423 0.0
H162 H 0.46206 0.03708 0.89352 0.0
H163 H 0.64726 0.97369 0.15574 0.0
Co164 Co 0.57411 0.5277 0.53398 0.0
C165 C 0.51724 0.53254 0.48426 0.0
Co166 Co 0.52007 0.50826 0.5556 0.0
C167 C 0.65202 0.54295 0.52282 0.0
C168 C 0.62018 0.58069 0.49199 0.0
N169 N 0.61751 0.54949 0.51481 0.0
N170 N 0.67579 0.56933 0.50622 0.0
C171 C 0.65585 0.5929 0.48671 0.0
H172 H 0.65953 0.52062 0.5418 0.0
H173 H 0.59756 0.59478 0.48115 0.0
C174 C 0.57681 0.50331 0.60522 0.0
N175 N 0.4765 0.48734 0.57469 0.0
C176 C 0.44309 0.49831 0.56892 0.0
C177 C 0.47144 0.45476 0.59535 0.0
N178 N 0.41747 0.47351 0.58476 0.0
C179 C 0.43516 0.44609 0.60141 0.0
C180 C 0.55818 0.45431 0.52735 0.0
O181 O 0.5966 0.51691 0.57901 0.0
O182 O 0.54288 0.49774 0.60053 0.0
O183 O 0.52936 0.46105 0.54217 0.0
O184 O 0.58314 0.48052 0.52071 0.0
O185 O 0.49744 0.51904 0.51046 0.0
H186 H 0.49272 0.43773 0.60436 0.0
H187 H 0.4375 0.52298 0.55199 0.0
O188 O 0.55113 0.53803 0.48907 0.0
O189 O 0.56484 0.57479 0.54729 0.0
O190 O 0.5111 0.55561 0.56865 0.0
C191 C 0.53598 0.58178 0.56174 0.0
H192 H 0.6664 0.61772 0.47043 0.0
H193 H 0.42261 0.42119 0.61619 0.0
Co194 Co 0.06491 0.49235 1.00856 0.0
C195 C 0.99408 0.46173 0.02518 0.0
Co196 Co 0.04576 0.50101 0.06195 0.0
C197 C 0.1015 0.47332 0.94385 0.0
C198 C 0.05193 0.49833 0.93476 0.0
N199 N 0.07478 0.48725 0.96099 0.0
N200 N 0.09622 0.47643 0.90805 0.0
C201 C 0.06505 0.49202 0.90251 0.0
H202 H 0.12415 0.46123 0.9572 0.0
H203 H 0.02662 0.50967 0.93877 0.0
C204 C 0.11638 0.53218 0.04485 0.0
N205 N 0.03464 0.50667 0.10867 0.0
C206 C 1.00843 0.52496 0.12146 0.0
C207 C 0.05414 0.49571 0.13758 0.0
N208 N 1.01097 0.52592 0.1572 0.0
C209 C 0.03964 0.50735 0.16735 0.0
C210 C 0.08258 0.43469 0.05839 0.0
O211 O 0.11112 0.5179 0.01541 0.0
O212 O 0.09137 0.52855 0.06794 0.0
O213 O 0.06681 0.45488 0.07804 0.0
O214 O 0.08449 0.44499 0.02494 0.0
O215 O 0.99997 0.47377 0.05557 0.0
H216 H 0.07852 0.48183 0.13695 0.0
H217 H 0.98864 0.53834 0.10476 0.0
O218 O 0.01901 0.46679 1.00212 0.0
O219 O 0.0451 0.5401 0.99294 0.0
O220 O 0.02481 0.54695 0.04562 0.0
C221 C 0.02784 0.55885 1.01279 0.0
H222 H 0.052 0.49729 0.87686 0.0
H223 H 0.05086 0.50451 0.19406 0.0
C224 C 0.17088 0.10487 0.2858 0.0
C225 C 0.17448 0.14341 0.27504 0.0
C226 C 0.1544 0.09 0.31866 0.0
C227 C 0.14121 0.1139 0.34234 0.0
C228 C 0.14525 0.15282 0.33189 0.0
C229 C 0.16146 0.1669 0.29875 0.0
C230 C 0.15061 0.04839 0.32784 0.0
C231 C 0.13238 0.17985 0.35586 0.0
C232 C 0.06745 0.07616 0.41197 0.0
C233 C 0.08715 0.07037 0.444 0.0
C234 C 0.08455 0.08968 0.37912 0.0
C235 C 0.12266 0.09835 0.37749 0.0
C236 C 0.14272 0.09259 0.40973 0.0
C237 C 0.12495 0.07862 0.44221 0.0
C238 C 0.0616 0.0947 0.34595 0.0
C239 C 0.18318 0.10154 0.41004 0.0
H240 H 0.1803 0.08604 0.26808 0.0
H241 H 0.16436 0.1967 0.29163 0.0
H242 H 0.16414 0.04137 0.35373 0.0
H243 H 0.12163 0.03813 0.33094 0.0
H244 H 0.16241 0.03338 0.30712 0.0
H245 H 0.13818 0.20928 0.34467 0.0
H246 H 0.10284 0.174 0.36005 0.0
H247 H 0.14559 0.1763 0.38243 0.0
H248 H 0.03836 0.06992 0.41246 0.0
H249 H 0.1408 0.07447 0.4664 0.0
H250 H 0.07106 0.07833 0.32507 0.0
H251 H 0.06437 0.12437 0.33509 0.0
H252 H 0.03255 0.08585 0.35111 0.0
H253 H 0.1958 0.08515 0.39103 0.0
H254 H 0.19514 0.09554 0.43694 0.0
H255 H 0.19011 0.13141 0.40107 0.0
C256 C 0.48299 0.91046 0.71108 0.0
C257 C 0.44644 0.90467 0.7016 0.0
C258 C 0.49319 0.91996 0.74534 0.0
C259 C 0.46612 0.92362 0.77049 0.0
C260 C 0.42927 0.91552 0.76167 0.0
C261 C 0.41988 0.90614 0.7273 0.0
C262 C 0.53277 0.92822 0.7539 0.0
C263 C 0.39961 0.91884 0.78784 0.0
C264 C 0.48788 0.93383 0.86817 0.0
C265 C 0.48788 0.97242 0.86917 0.0
C266 C 0.48188 0.91742 0.836 0.0
C267 C 0.47581 0.94025 0.80426 0.0
C268 C 0.47684 0.97929 0.80499 0.0
C269 C 0.48289 0.99486 0.83742 0.0
C270 C 0.48095 0.87568 0.83614 0.0
C271 C 0.47068 1.00462 0.77165 0.0
H272 H 0.50355 0.90928 0.69121 0.0
H273 H 0.39161 0.90084 0.7202 0.0
H274 H 0.53901 0.95861 0.75536 0.0
H275 H 0.53945 0.91413 0.78029 0.0
H276 H 0.5504 0.91929 0.7334 0.0
H277 H 0.37267 0.90787 0.77815 0.0
H278 H 0.40518 0.90361 0.81399 0.0
H279 H 0.39861 0.94855 0.79232 0.0
H280 H 0.49157 0.91639 0.89269 0.0
H281 H 0.48371 0.02475 0.83791 0.0
H282 H 0.49899 0.86842 0.81521 0.0
H283 H 0.45318 0.86387 0.82987 0.0
H284 H 0.48924 0.86226 0.86235 0.0
H285 H 0.4899 1.00017 0.75056 0.0
H286 H 0.47394 0.03451 0.77654 0.0
H287 H 0.443 0.99789 0.76121 0.0
C288 C 0.65482 0.40921 0.78685 0.0
C289 C 0.66361 0.43492 0.81194 0.0
C290 C 0.64254 0.42081 0.75252 0.0
C291 C 0.63818 0.45894 0.74336 0.0
C292 C 0.64691 0.485 0.76866 0.0
C293 C 0.65947 0.47265 0.80268 0.0
C294 C 0.63359 0.39218 0.72628 0.0
C295 C 0.64217 0.52579 0.76008 0.0
C296 C 0.63042 0.49398 0.6452 0.0
C297 C 0.59284 0.49313 0.64066 0.0
C298 C 0.64562 0.48302 0.6785 0.0
C299 C 0.62271 0.47123 0.70797 0.0
C300 C 0.58481 0.4708 0.70363 0.0
C301 C 0.57035 0.4816 0.67005 0.0
C302 C 0.68615 0.48361 0.68206 0.0
C303 C 0.55945 0.45869 0.73444 0.0
H304 H 0.65728 0.37991 0.79422 0.0
H305 H 0.66559 0.49245 0.82228 0.0
H306 H 0.60432 0.39053 0.71977 0.0
H307 H 0.64844 0.40054 0.701 0.0
H308 H 0.64044 0.36404 0.73684 0.0
H309 H 0.65148 0.54267 0.78221 0.0
H310 H 0.65741 0.53691 0.73564 0.0
H311 H 0.61325 0.52933 0.7546 0.0
H312 H 0.64798 0.50272 0.62262 0.0
H313 H 0.54129 0.48093 0.66684 0.0
H314 H 0.69356 0.45516 0.69054 0.0
H315 H 0.69613 0.5017 0.70299 0.0
H316 H 0.70023 0.49384 0.65668 0.0
H317 H 0.56273 0.42945 0.74456 0.0
H318 H 0.5307 0.46073 0.72681 0.0
H319 H 0.56615 0.47612 0.75676 0.0
C320 C 0.99298 0.67194 0.28752 0.0
C321 C 0.96015 0.67314 0.30477 0.0
C322 C 0.99565 0.64862 0.2603 0.0
C323 C 0.9646 0.62616 0.25005 0.0
C324 C 0.93092 0.62869 0.26618 0.0
C325 C 0.92917 0.65189 0.29379 0.0
C326 C 0.03216 0.64647 0.24398 0.0
C327 C 0.89717 0.60565 0.25551 0.0
C328 C 0.9798 0.58162 0.16535 0.0
C329 C 0.99212 0.54782 0.17938 0.0
C330 C 0.96788 0.60649 0.18797 0.0
C331 C 0.96872 0.59736 0.22535 0.0
C332 C 0.97833 0.56203 0.23938 0.0
C333 C 0.98966 0.5376 0.21616 0.0
C334 C 0.95697 0.64356 0.17201 0.0
C335 C 0.97944 0.55114 0.27911 0.0
H336 H 0.01689 0.6882 0.29642 0.0
H337 H 0.90383 0.65265 0.30744 0.0
H338 H 0.04106 0.61831 0.25091 0.0
H339 H 0.03043 0.65087 0.21447 0.0
H340 H 0.05308 0.66739 0.25343 0.0
H341 H 0.87241 0.61526 0.26627 0.0
H342 H 0.89476 0.60665 0.22602 0.0
H343 H 0.89865 0.57613 0.26581 0.0
H344 H 0.98158 0.58975 0.13695 0.0
H345 H 0.99826 0.51109 0.22697 0.0
H346 H 0.97902 0.66567 0.17619 0.0
H347 H 0.9325 0.65075 0.18531 0.0
H348 H 0.95156 0.6437 0.14289 0.0
H349 H 1.0015 0.56865 0.29139 0.0
H350 H 0.98418 0.52143 0.28545 0.0
H351 H 0.95379 0.55607 0.29167 0.0
C352 C 0.31638 0.07291 0.15398 0.0
C353 C 0.30882 0.11042 0.14871 0.0
C354 C 0.34807 0.06044 0.14045 0.0
C355 C 0.3737 0.0858 0.12078 0.0
C356 C 0.36689 0.124 0.11645 0.0
C357 C 0.33475 0.1357 0.13013 0.0
C358 C 0.35335 0.01954 0.14601 0.0
C359 C 0.39307 0.15249 0.09618 0.0
C360 C 0.46911 0.05456 0.10612 0.0
C361 C 0.46689 0.04322 0.07126 0.0
C362 C 0.43964 0.0689 0.12219 0.0
C363 C 0.40635 0.07195 0.10346 0.0
C364 C 0.40403 0.06059 0.06826 0.0
C365 C 0.434 0.0467 0.05272 0.0
C366 C 0.44416 0.0807 0.15948 0.0
C367 C 0.36951 0.06271 0.04692 0.0
H368 H 0.29662 0.05274 0.16766 0.0
H369 H 0.32924 0.16455 0.12514 0.0
H370 H 0.35261 0.0077 0.11985 0.0
H371 H 0.38022 0.01562 0.15816 0.0
H372 H 0.33226 1.00356 0.1634 0.0
H373 H 0.38584 0.18134 0.09754 0.0
H374 H 0.42084 0.15054 0.1069 0.0
H375 H 0.39344 0.14678 0.06775 0.0
H376 H 0.4941 0.05234 0.121 0.0
H377 H 0.43146 0.0382 0.02589 0.0
H378 H 0.42471 0.06334 0.17764 0.0
H379 H 0.43805 0.11003 0.15978 0.0
H380 H 0.47192 0.07815 0.17013 0.0
H381 H 0.34713 0.04518 0.06123 0.0
H382 H 0.37181 0.05327 0.01989 0.0
H383 H 0.36205 0.09174 0.04407 0.0
C384 C 0.33526 0.90954 0.58625 0.0
C385 C 0.36529 0.93149 0.59817 0.0
C386 C 0.3023 0.92458 0.57931 0.0
C387 C 0.29963 0.96245 0.58422 0.0
C388 C 0.33073 0.98545 0.59329 0.0
C389 C 0.36324 0.96958 0.6004 0.0
C390 C 0.26968 0.89915 0.56981 0.0
C391 C 0.32904 0.02609 0.59822 0.0
C392 C 0.21317 0.00491 0.55583 0.0
C393 C 0.19469 1.00177 0.58833 0.0
C394 C 0.24764 0.99258 0.55395 0.0
C395 C 0.26358 0.97641 0.58526 0.0
C396 C 0.24495 0.97313 0.61811 0.0
C397 C 0.21079 0.98602 0.61924 0.0
C398 C 0.26699 0.99689 0.51861 0.0
C399 C 0.26093 0.95566 0.65206 0.0
H400 H 0.33679 0.88001 0.58477 0.0
H401 H 0.38667 0.98659 0.60927 0.0
H402 H 0.2514 0.89358 0.59315 0.0
H403 H 0.25427 0.91251 0.54752 0.0
H404 H 0.27724 0.87209 0.56215 0.0
H405 H 0.35639 0.04127 0.59965 0.0
H406 H 0.31372 0.03981 0.57606 0.0
H407 H 0.31466 0.02858 0.62337 0.0
H408 H 0.20083 0.01747 0.532 0.0
H409 H 0.19629 0.98308 0.64424 0.0
H410 H 0.27273 0.96921 0.51107 0.0
H411 H 0.29336 0.01368 0.52093 0.0
H412 H 0.25102 0.01054 0.49685 0.0
H413 H 0.26653 0.92671 0.64856 0.0
H414 H 0.24274 0.95502 0.67531 0.0
H415 H 0.28702 0.97139 0.65821 0.0
C416 C 0.81001 0.35434 0.96024 0.0
C417 C 0.78624 0.38011 0.94663 0.0
C418 C 0.84251 0.36596 0.97703 0.0
C419 C 0.85191 0.40437 0.97968 0.0
C420 C 0.82776 0.43049 0.9668 0.0
C421 C 0.79511 0.41802 0.95066 0.0
C422 C 0.86746 0.33723 0.99063 0.0
C423 C 0.83704 0.47175 0.96878 0.0
C424 C 0.92978 0.43717 0.03954 0.0
C425 C 0.95806 0.44475 0.01489 0.0
C426 C 0.89507 0.42333 0.0287 0.0
C427 C 0.88856 0.41752 0.99236 0.0
C428 C 0.91713 0.42473 0.96755 0.0
C429 C 0.95148 0.43797 0.97914 0.0
C430 C 0.86531 0.41533 0.05595 0.0
C431 C 0.9113 0.41922 0.92849 0.0
H432 H 0.80379 0.32504 0.95684 0.0
H433 H 0.77666 0.43809 0.94089 0.0
H434 H 0.89194 0.34014 0.97373 0.0
H435 H 0.87648 0.34166 0.01826 0.0
H436 H 0.85439 0.30835 0.99036 0.0
H437 H 0.81436 0.4882 0.95973 0.0
H438 H 0.84444 0.47751 0.99651 0.0
H439 H 0.86086 0.48154 0.9518 0.0
H440 H 0.93468 0.44233 0.06717 0.0
H441 H 0.97307 0.44387 0.95979 0.0
H442 H 0.8532 0.38613 0.05571 0.0
H443 H 0.84349 0.43359 0.04902 0.0
H444 H 0.87511 0.4198 0.08338 0.0
H445 H 0.90108 0.3899 0.92543 0.0
H446 H 0.93644 0.42613 0.91267 0.0
H447 H 0.89056 0.43702 0.91706 0.0
C448 C 0.89039 0.61723 0.4986 0.0
C449 C 0.89453 0.63037 0.46244 0.0
C450 C 0.85688 0.60055 0.51176 0.0
C451 C 0.82696 0.59715 0.48821 0.0
C452 C 0.83163 0.60825 0.45137 0.0
C453 C 0.8652 0.62486 0.43902 0.0
C454 C 0.85305 0.58867 0.55114 0.0
C455 C 0.80045 0.60515 0.42524 0.0
C456 C 0.73505 0.54434 0.50615 0.0
C457 C 0.71437 0.57399 0.50981 0.0
C458 C 0.77276 0.55073 0.50213 0.0
C459 C 0.7897 0.58752 0.50203 0.0
C460 C 0.7691 0.61677 0.50921 0.0
C461 C 0.73166 0.60962 0.51285 0.0
C462 C 0.79387 0.51877 0.49501 0.0
C463 C 0.78603 0.65634 0.50981 0.0
H464 H 0.91305 0.62088 0.51678 0.0
H465 H 0.86778 0.63544 0.41118 0.0
H466 H 0.83927 0.60966 0.56404 0.0
H467 H 0.83624 0.56165 0.55572 0.0
H468 H 0.87971 0.58613 0.56437 0.0
H469 H 0.80941 0.61136 0.3971 0.0
H470 H 0.78606 0.57677 0.42835 0.0
H471 H 0.7808 0.62504 0.43072 0.0
H472 H 0.72151 0.51678 0.50394 0.0
H473 H 0.71551 0.63231 0.5164 0.0
H474 H 0.82024 0.52053 0.50922 0.0
H475 H 0.79949 0.52012 0.46602 0.0
H476 H 0.7787 0.49142 0.50322 0.0
H477 H 0.81083 0.65724 0.52655 0.0
H478 H 0.76721 0.67473 0.52016 0.0
H479 H 0.79396 0.66774 0.48233 0.0
C480 C 0.19943 0.2702 0.15072 0.0
C481 C 0.17719 0.23892 0.16541 0.0
C482 C 0.18487 0.30154 0.13232 0.0
C483 C 0.14689 0.30196 0.12747 0.0
C484 C 0.12437 0.27012 0.14157 0.0
C485 C 0.13959 0.2395 0.16046 0.0
C486 C 0.21028 0.33471 0.11874 0.0
C487 C 0.08392 0.2684 0.13683 0.0
C488 C 0.10439 0.39551 0.11258 0.0
C489 C 0.09923 0.4005 0.0753 0.0
C490 C 0.1201 0.36427 0.1295 0.0
C491 C 0.13068 0.33612 0.10915 0.0
C492 C 0.12538 0.3408 0.07148 0.0
C493 C 0.1102 0.37284 0.0551 0.0
C494 C 0.12557 0.36155 0.16944 0.0
C495 C 0.13542 0.31163 0.04841 0.0
H496 H 0.22841 0.27066 0.15444 0.0
H497 H 0.12188 0.21562 0.17109 0.0
H498 H 0.20639 0.34106 0.08961 0.0
H499 H 0.20413 0.35957 0.13176 0.0
H500 H 0.23905 0.33012 0.12395 0.0
H501 H 0.07012 0.24108 0.14741 0.0
H502 H 0.07318 0.29057 0.15078 0.0
H503 H 0.07701 0.27353 0.10812 0.0
H504 H 0.09645 0.41645 0.1288 0.0
H505 H 0.10649 0.37596 0.0264 0.0
H506 H 0.15445 0.35895 0.17601 0.0
H507 H 0.10983 0.3362 0.18198 0.0
H508 H 0.11715 0.38615 0.18149 0.0
H509 H 0.16468 0.30827 0.05129 0.0
H510 H 0.12926 0.31874 0.01975 0.0
H511 H 0.12057 0.28433 0.05731 0.0
C512 C 0.64532 0.2802 0.93891 0.0
C513 C 0.68253 0.28374 0.93241 0.0
C514 C 0.62722 0.24564 0.95125 0.0
C515 C 0.64677 0.21389 0.95643 0.0
C516 C 0.68427 0.2173 0.94926 0.0
C517 C 0.70175 0.25229 0.93764 0.0
C518 C 0.58734 0.24315 0.95915 0.0
C519 C 0.7059 0.18399 0.95376 0.0
C520 C 0.6116 0.12914 0.01768 0.0
C521 C 0.59604 0.10538 0.99318 0.0
C522 C 0.62734 0.16499 1.00617 0.0
C523 C 0.62813 0.17699 0.96924 0.0
C524 C 0.61232 0.15315 0.94441 0.0
C525 C 0.59616 0.11776 0.95672 0.0
C526 C 0.64341 0.1899 0.03346 0.0
C527 C 0.61323 0.16468 0.90478 0.0
H528 H 0.63058 0.30466 0.93506 0.0
H529 H 0.7305 0.25505 0.93225 0.0
H530 H 0.57227 0.22314 0.94247 0.0
H531 H 0.58246 0.23249 0.98746 0.0
H532 H 0.57619 0.27051 0.9541 0.0
H533 H 0.73466 0.19125 0.94621 0.0
H534 H 0.70482 0.17175 0.98191 0.0
H535 H 0.69404 0.16217 0.93708 0.0
H536 H 0.61133 0.11979 0.04591 0.0
H537 H 0.58431 0.09942 0.93764 0.0
H538 H 0.63159 0.21697 0.03028 0.0
H539 H 0.67294 0.19583 0.0292 0.0
H540 H 0.63878 0.1772 0.06125 0.0
H541 H 0.60044 0.19098 0.89885 0.0
H542 H 0.59912 0.14312 0.88906 0.0
H543 H 0.64167 0.17005 0.89571 0.0
C544 C 0.96409 0.75844 0.49174 0.0
C545 C 0.98714 0.73969 0.47211 0.0
C546 C 0.97573 0.79301 0.50393 0.0
C547 C 1.0109 0.80976 0.49541 0.0
C548 C 0.03505 0.79007 0.47762 0.0
C549 C 0.02306 0.755 0.46671 0.0
C550 C 0.9495 0.81273 0.52378 0.0
C551 C 0.07264 0.80716 0.46768 0.0
C552 C 0.01589 0.91488 0.48187 0.0
C553 C 0.0325 0.92504 0.51355 0.0
C554 C 1.0103 0.87746 0.47501 0.0
C555 C 0.02055 0.84951 0.50103 0.0
C556 C 0.03805 0.8597 0.53282 0.0
C557 C 0.0443 0.89754 0.53849 0.0
C558 C 0.99248 0.8678 0.44031 0.0
C559 C 0.04846 0.83067 0.56155 0.0
H560 H 0.93622 0.74729 0.4959 0.0
H561 H 0.04142 0.74031 0.45245 0.0
H562 H 0.96289 0.82477 0.54718 0.0
H563 H 0.94004 0.83603 0.50596 0.0
H564 H 0.92553 0.79377 0.53313 0.0
H565 H 0.08947 0.78661 0.45784 0.0
H566 H 0.0708 0.83024 0.44634 0.0
H567 H 0.0865 0.8192 0.49082 0.0
H568 H 1.00697 0.93627 0.46254 0.0
H569 H 0.0568 0.9055 0.56319 0.0
H570 H 0.96543 0.8527 0.44573 0.0
H571 H 1.00869 0.84907 0.42694 0.0
H572 H 0.98914 0.89291 0.42167 0.0
H573 H 0.02365 0.81522 0.57351 0.0
H574 H 0.06481 0.84317 0.5831 0.0
H575 H 0.064 0.81008 0.55009 0.0
C576 C 0.49137 0.79078 0.54232 0.0
C577 C 0.49878 0.80978 0.57266 0.0
C578 C 0.49897 0.75372 0.5419 0.0
C579 C 0.51374 0.73529 0.5728 0.0
C580 C 0.5217 0.75458 0.60336 0.0
C581 C 0.51404 0.7917 0.60292 0.0
C582 C 0.49035 0.73402 0.50876 0.0
C583 C 0.53726 0.7357 0.6368 0.0
C584 C 0.49827 0.62991 0.58063 0.0
C585 C 0.53111 0.62055 0.56798 0.0
C586 C 0.49258 0.66723 0.58337 0.0
C587 C 0.52038 0.69564 0.57312 0.0
C588 C 0.55397 0.68625 0.5615 0.0
C589 C 0.55896 0.64881 0.55913 0.0
C590 C 0.45647 0.67633 0.59615 0.0
C591 C 0.58422 0.71582 0.55038 0.0
H592 H 0.47882 0.80465 0.51926 0.0
H593 H 0.51888 0.80635 0.62662 0.0
H594 H 0.5148 0.72253 0.49957 0.0
H595 H 0.46958 0.71023 0.5149 0.0
H596 H 0.48018 0.75277 0.48659 0.0
H597 H 0.54314 0.75508 0.65777 0.0
H598 H 0.51796 0.71221 0.64769 0.0
H599 H 0.56257 0.72386 0.63055 0.0
H600 H 0.47669 0.6082 0.58756 0.0
H601 H 0.58451 0.64181 0.54946 0.0
H602 H 0.44262 0.69216 0.57423 0.0
H603 H 0.46033 0.69428 0.61846 0.0
H604 H 0.43858 0.65094 0.60526 0.0
H605 H 0.57574 0.73344 0.52659 0.0
H606 H 0.60935 0.70373 0.54381 0.0
H607 H 0.59033 0.73433 0.57197 0.0
C608 C 0.89464 0.94176 0.78713 0.0
C609 C 0.89217 0.90287 0.79575 0.0
C610 C 0.91107 0.95902 0.75506 0.0
C611 C 0.92541 0.93724 0.73013 0.0
C612 C 0.92245 0.89797 0.73839 0.0
C613 C 0.9062 0.88149 0.77073 0.0
C614 C 0.9136 1.00086 0.74812 0.0
C615 C 0.93666 0.87313 0.71297 0.0
C616 C 0.94217 0.97823 0.632 0.0
C617 C 0.97982 0.98776 0.63102 0.0
C618 C 0.92426 0.96212 0.6637 0.0
C619 C 0.94405 0.95534 0.69594 0.0
C620 C 0.98199 0.96533 0.69517 0.0
C621 C 0.99924 0.98106 0.66306 0.0
C622 C 0.88399 0.9519 0.66255 0.0
C623 C 1.00461 0.95922 0.72842 0.0
H624 H 0.88448 0.959 0.80595 0.0
H625 H 0.9042 0.85148 0.77625 0.0
H626 H 0.94238 0.0122 0.74606 0.0
H627 H 0.90043 0.00891 0.72229 0.0
H628 H 0.90073 0.01403 0.76951 0.0
H629 H 0.93162 0.84314 0.72252 0.0
H630 H 0.92378 0.87786 0.68636 0.0
H631 H 0.96617 0.88015 0.7094 0.0
H632 H 0.92656 0.98299 0.60773 0.0
H633 H 0.02822 0.98818 0.66313 0.0
H634 H 0.87049 0.96642 0.68249 0.0
H635 H 0.87791 0.92155 0.66975 0.0
H636 H 0.87221 0.95918 0.63581 0.0
H637 H 0.99414 0.97377 0.75017 0.0
H638 H 0.0335 0.96937 0.72402 0.0
H639 H 1.00273 0.92911 0.73768 0.0
C640 C 0.61524 0.07198 0.3445 0.0
C641 C 0.62248 0.11038 0.34639 0.0
C642 C 0.61162 0.05715 0.31144 0.0
C643 C 0.61609 0.08134 0.27967 0.0
C644 C 0.62278 0.12024 0.28147 0.0
C645 C 0.62561 0.13435 0.31492 0.0
C646 C 0.60381 0.01558 0.3105 0.0
C647 C 0.62824 0.14679 0.24815 0.0
C648 C 0.64557 0.03857 0.19811 0.0
C649 C 0.61311 0.0343 0.17898 0.0
C650 C 0.64705 0.05451 0.23067 0.0
C651 C 0.61511 0.06573 0.24462 0.0
C652 C 0.58223 0.06145 0.22538 0.0
C653 C 0.5817 0.04602 0.19261 0.0
C654 C 0.68275 0.05927 0.25017 0.0
C655 C 0.54754 0.07255 0.2397 0.0
H656 H 0.61273 0.05356 0.36896 0.0
H657 H 0.63168 0.16403 0.3165 0.0
H658 H 0.57984 0.00929 0.29343 0.0
H659 H 0.62699 1.00419 0.2986 0.0
H660 H 0.59882 1.00094 0.33752 0.0
H661 H 0.63198 0.17635 0.25415 0.0
H662 H 0.65238 0.14056 0.23369 0.0
H663 H 0.60474 0.14311 0.2299 0.0
H664 H 0.66986 0.0298 0.18732 0.0
H665 H 0.55649 0.04223 0.17801 0.0
H666 H 0.68093 0.04276 0.27655 0.0
H667 H 0.68928 0.08889 0.25512 0.0
H668 H 0.70528 0.05033 0.23505 0.0
H669 H 0.54119 0.05658 0.26584 0.0
H670 H 0.52431 0.06754 0.2213 0.0
H671 H 0.55067 0.10249 0.24425 0.0
C672 C 0.43954 0.55706 0.28484 0.0
C673 C 0.43479 0.59434 0.27395 0.0
C674 C 0.45056 0.54618 0.3198 0.0
C675 C 0.45718 0.5733 0.34445 0.0
C676 C 0.45182 0.61092 0.33376 0.0
C677 C 0.44104 0.62105 0.29852 0.0
C678 C 0.45633 0.50587 0.33 0.0
C679 C 0.45851 0.64066 0.35923 0.0
C680 C 0.46389 0.54056 0.44341 0.0
C681 C 0.50145 0.54243 0.44859 0.0
C682 C 0.44901 0.5507 0.40972 0.0
C683 C 0.47222 0.56275 0.38052 0.0
C684 C 0.51011 0.56452 0.38561 0.0
C685 C 0.52423 0.55447 0.41953 0.0
C686 C 0.40847 0.54868 0.40537 0.0
C687 C 0.53584 0.57699 0.35517 0.0
H688 H 0.43532 0.53646 0.26573 0.0
H689 H 0.43803 0.65 0.28995 0.0
H690 H 0.48532 0.50343 0.33614 0.0
H691 H 0.44088 0.49521 0.35443 0.0
H692 H 0.44798 0.48789 0.30842 0.0
H693 H 0.45044 0.668 0.34766 0.0
H694 H 0.44338 0.63228 0.38434 0.0
H695 H 0.48763 0.64409 0.36632 0.0
H696 H 0.44609 0.53145 0.46574 0.0
H697 H 0.55328 0.55601 0.42321 0.0
H698 H 0.39952 0.52942 0.38506 0.0
H699 H 0.40029 0.57651 0.39562 0.0
H700 H 0.39414 0.53899 0.43074 0.0
H701 H 0.53064 0.5586 0.33334 0.0
H702 H 0.56459 0.57665 0.36354 0.0
H703 H 0.53138 0.60565 0.34407 0.0
C704 C 0.15527 0.405 0.72639 0.0
C705 C 0.12073 0.39338 0.71378 0.0
C706 C 0.1605 0.41386 0.76178 0.0
C707 C 0.13024 0.41241 0.78444 0.0
C708 C 0.09568 0.39856 0.77229 0.0
C709 C 0.09148 0.38878 0.73722 0.0
C710 C 0.198 0.42685 0.77408 0.0
C711 C 0.06252 0.39699 0.79528 0.0
C712 C 0.12565 0.42683 0.88264 0.0
C713 C 0.11623 0.46347 0.88014 0.0
C714 C 0.13436 0.4105 0.85176 0.0
C715 C 0.13283 0.43127 0.81797 0.0
C716 C 0.12725 0.46948 0.81612 0.0
C717 C 0.11945 0.48512 0.84731 0.0
C718 C 0.14203 0.37024 0.85503 0.0
C719 C 0.12539 0.49289 0.78083 0.0
H720 H 0.17801 0.40808 0.70829 0.0
H721 H 0.06478 0.37986 0.72739 0.0
H722 H 0.20171 0.45772 0.7713 0.0
H723 H 0.20226 0.41725 0.80258 0.0
H724 H 0.21901 0.41669 0.75782 0.0
H725 H 0.03814 0.38336 0.7827 0.0
H726 H 0.06696 0.38159 0.8216 0.0
H727 H 0.05712 0.42568 0.80013 0.0
H728 H 0.12331 0.41011 0.90809 0.0
H729 H 0.11267 0.51366 0.84567 0.0
H730 H 0.16255 0.36538 0.83533 0.0
H731 H 0.1169 0.35248 0.84965 0.0
H732 H 0.15166 0.36131 0.88229 0.0
H733 H 0.14943 0.49059 0.76445 0.0
H734 H 0.12365 0.52277 0.78429 0.0
H735 H 0.1012 0.48262 0.76567 0.0
C736 C 0.77003 0.86951 0.91419 0.0
C737 C 0.79632 0.89407 0.89507 0.0
C738 C 0.7394 0.88218 0.9298 0.0
C739 C 0.73407 0.92069 0.92672 0.0
C740 C 0.76033 0.94564 0.90737 0.0
C741 C 0.79069 0.93223 0.89196 0.0
C742 C 0.71257 0.85407 0.94973 0.0
C743 C 0.75654 0.98688 0.90316 0.0
C744 C 0.63834 0.95126 0.94145 0.0
C745 C 0.63995 0.96131 0.97678 0.0
C746 C 0.66832 0.93814 0.92505 0.0
C747 C 0.70146 0.9348 0.94398 0.0
C748 C 0.70322 0.94494 0.97963 0.0
C749 C 0.67283 0.95784 0.99541 0.0
C750 C 0.66443 0.92779 0.88722 0.0
C751 C 0.73747 0.94221 1.00129 0.0
H752 H 0.77304 0.83996 0.91668 0.0
H753 H 0.81051 0.95203 0.87795 0.0
H754 H 0.7106 0.86067 0.97778 0.0
H755 H 0.68535 0.8555 0.93751 0.0
H756 H 0.72007 0.82515 0.94975 0.0
H757 H 0.77864 1.00281 0.88702 0.0
H758 H 0.73032 0.99218 0.89018 0.0
H759 H 0.75657 0.99763 0.92981 0.0
H760 H 0.61346 0.95361 0.92642 0.0
H761 H 0.67495 0.96538 0.0226 0.0
H762 H 0.66963 0.89828 0.88622 0.0
H763 H 0.68482 0.94505 0.87001 0.0
H764 H 0.63713 0.93163 0.87595 0.0
H765 H 0.74467 0.91309 1.0038 0.0
H766 H 0.73492 0.9512 0.02848 0.0
H767 H 0.76013 0.95975 0.98746 0.0
C768 C 0.72538 0.14235 0.46544 0.0
C769 C 0.69794 0.1156 0.45608 0.0
C770 C 0.75917 0.13189 0.47726 0.0
C771 C 0.76551 0.09387 0.47955 0.0
C772 C 0.7368 0.06652 0.47351 0.0
C773 C 0.70327 0.07775 0.46185 0.0
C774 C 0.789 0.16185 0.48384 0.0
C775 C 0.74237 0.02566 0.47598 0.0
C776 C 0.85712 0.0716 0.45056 0.0
C777 C 0.87335 0.06041 0.4831 0.0
C778 C 0.82226 0.083 0.44928 0.0
C779 C 0.8031 0.08342 0.48143 0.0
C780 C 0.81955 0.07301 0.51453 0.0
C781 C 0.85459 0.06157 0.51498 0.0
C782 C 0.80577 0.09414 0.41337 0.0
C783 C 0.79991 0.07326 0.54929 0.0
H784 H 0.72144 0.17168 0.46096 0.0
H785 H 0.68183 0.05699 0.45526 0.0
H786 H 0.80524 0.15342 0.50766 0.0
H787 H 0.80742 0.16629 0.46058 0.0
H788 H 0.77824 0.18874 0.48764 0.0
H789 H 0.71633 0.00777 0.4763 0.0
H790 H 0.75812 0.02006 0.45258 0.0
H791 H 0.75803 0.01758 0.5003 0.0
H792 H 0.87178 0.07156 0.42593 0.0
H793 H 0.86696 0.0527 0.54018 0.0
H794 H 0.79792 0.12296 0.41256 0.0
H795 H 0.78088 0.07555 0.40907 0.0
H796 H 0.82455 0.09275 0.39097 0.0
H797 H 0.78976 0.10079 0.55114 0.0
H798 H 0.81741 0.06695 0.57282 0.0
H799 H 0.77606 0.05226 0.55035 0.0
C800 C 0.28628 0.60762 0.15234 0.0
C801 C 0.31447 0.62795 0.13232 0.0
C802 C 0.25536 0.59153 0.13573 0.0
C803 C 0.25158 0.59712 0.0982 0.0
C804 C 0.27958 0.61777 0.07773 0.0
C805 C 0.31094 0.6322 0.09491 0.0
C806 C 0.22652 0.56882 0.1585 0.0
C807 C 0.27611 0.62526 0.03773 0.0
C808 C 0.18263 0.53147 0.05373 0.0
C809 C 0.15181 0.55072 0.0538 0.0
C810 C 0.21557 0.54646 0.06763 0.0
C811 C 0.21784 0.58207 0.08064 0.0
C812 C 0.18709 0.60239 0.07886 0.0
C813 C 0.15418 0.58606 0.06621 0.0
C814 C 0.24728 0.52332 0.07028 0.0
C815 C 0.18866 0.64094 0.09125 0.0
H816 H 0.28791 0.60465 0.1812 0.0
H817 H 0.33264 0.64691 0.07882 0.0
H818 H 0.20148 0.58319 0.15732 0.0
H819 H 0.21976 0.5413 0.14814 0.0
H820 H 0.235 0.56428 0.18687 0.0
H821 H 0.29994 0.64262 0.02574 0.0
H822 H 0.27281 0.59864 0.02521 0.0
H823 H 0.25159 0.63975 0.03106 0.0
H824 H 0.18042 0.50381 0.04467 0.0
H825 H 0.13015 0.60075 0.06628 0.0
H826 H 0.25407 0.51639 0.0988 0.0
H827 H 0.27146 0.53928 0.05763 0.0
H828 H 0.24161 0.49696 0.05747 0.0
H829 H 0.1923 0.63933 0.12063 0.0
H830 H 0.1637 0.6546 0.08424 0.0
H831 H 0.21215 0.65874 0.07919 0.0
C832 C 0.20861 0.47233 0.53739 0.0
C833 C 0.18773 0.45734 0.56698 0.0
C834 C 0.24624 0.47956 0.54016 0.0
C835 C 0.26341 0.47186 0.57346 0.0
C836 C 0.24237 0.45848 0.60383 0.0
C837 C 0.20493 0.45055 0.60002 0.0
C838 C 0.26778 0.49292 0.50693 0.0
C839 C 0.25958 0.45038 0.63997 0.0
C840 C 0.3578 0.44105 0.57458 0.0
C841 C 0.37903 0.47375 0.58122 0.0
C842 C 0.32022 0.44038 0.57129 0.0
C843 C 0.30341 0.47307 0.57561 0.0
C844 C 0.32475 0.50625 0.58238 0.0
C845 C 0.36251 0.50631 0.58462 0.0
C846 C 0.29854 0.40465 0.56321 0.0
C847 C 0.30766 0.54133 0.58794 0.0
H848 H 0.19562 0.47668 0.51155 0.0
H849 H 0.18966 0.4377 0.62274 0.0
H850 H 0.28754 0.51686 0.51188 0.0
H851 H 0.28335 0.47025 0.49941 0.0
H852 H 0.25024 0.50134 0.48402 0.0
H853 H 0.23926 0.44571 0.66169 0.0
H854 H 0.27408 0.42504 0.64001 0.0
H855 H 0.27971 0.47369 0.64589 0.0
H856 H 0.3708 0.41608 0.57146 0.0
H857 H 0.37913 0.53147 0.58994 0.0
H858 H 0.28171 0.40966 0.53896 0.0
H859 H 0.27995 0.3946 0.58558 0.0
H860 H 0.31598 0.38228 0.55893 0.0
H861 H 0.29104 0.54961 0.56435 0.0
H862 H 0.32809 0.56488 0.59261 0.0
H863 H 0.28928 0.53612 0.61121 0.0
C864 C 0.89383 0.70708 0.92677 0.0
C865 C 0.90978 0.74345 0.91699 0.0
C866 C 0.91369 0.67881 0.94364 0.0
C867 C 0.95105 0.68635 0.95125 0.0
C868 C 0.96732 0.72322 0.94202 0.0
C869 C 0.94677 0.75099 0.92474 0.0
C870 C 0.89474 0.6403 0.95222 0.0
C871 C 1.00682 0.73312 0.9496 0.0
C872 C 0.99343 0.61557 0.01933 0.0
C873 C 1.01006 0.59289 0.99734 0.0
C874 C 0.97531 0.64646 1.00494 0.0
C875 C 0.97297 0.65521 0.96736 0.0
C876 C 0.99004 0.63262 0.94509 0.0
C877 C 1.00834 0.60222 0.96019 0.0
C878 C 0.95812 0.66948 0.03011 0.0
C879 C 0.98823 0.64 0.90501 0.0
H880 H 0.86564 0.70028 0.92018 0.0
H881 H 0.95989 0.77844 0.91656 0.0
H882 H 0.9071 0.6202 0.93684 0.0
H883 H 0.89808 0.63113 0.98094 0.0
H884 H 0.86541 0.639 0.94585 0.0
H885 H 0.01499 0.76335 0.94357 0.0
H886 H 1.01299 0.72501 0.97804 0.0
H887 H 0.02343 0.71739 0.93329 0.0
H888 H 0.99435 0.60905 0.04801 0.0
H889 H 0.02075 0.58516 0.94263 0.0
H890 H 0.9284 0.66687 0.02615 0.0
H891 H 0.96786 0.69934 0.02425 0.0
H892 H 0.96407 0.6608 0.05853 0.0
H893 H 0.95966 0.63665 0.89597 0.0
H894 H 1.0037 0.62089 0.89124 0.0
H895 H 0.999 0.6691 0.89667 0.0
C896 C 0.43372 0.72995 0.10453 0.0
C897 C 0.41502 0.73061 0.13642 0.0
C898 C 0.45276 0.76238 0.08827 0.0
C899 C 0.45219 0.79639 0.10387 0.0
C900 C 0.43288 0.79716 0.13594 0.0
C901 C 0.41489 0.76408 0.15212 0.0
C902 C 0.47373 0.7602 0.05462 0.0
C903 C 0.43094 0.83299 0.15296 0.0
C904 C 0.52509 0.8762 0.08271 0.0
C905 C 0.508 0.89883 0.05672 0.0
C906 C 0.50763 0.84224 0.09751 0.0
C907 C 0.47186 0.83116 0.08674 0.0
C908 C 0.45461 0.85376 0.06024 0.0
C909 C 0.47308 0.88712 0.0452 0.0
C910 C 0.5273 0.81846 0.12499 0.0
C911 C 0.41622 0.84332 0.04861 0.0
H912 H 0.43382 0.70387 0.09262 0.0
H913 H 0.40017 0.76441 0.17672 0.0
H914 H 0.46326 0.77866 0.03248 0.0
H915 H 0.50255 0.77015 0.05868 0.0
H916 H 0.47216 0.73144 0.04643 0.0
H917 H 0.41385 0.82906 0.17724 0.0
H918 H 0.45845 0.84453 0.1604 0.0
H919 H 0.41979 0.85401 0.13359 0.0
H920 H 0.55216 0.88511 0.09155 0.0
H921 H 0.45964 0.90473 0.02537 0.0
H922 H 0.52703 0.78976 0.11694 0.0
H923 H 0.51333 0.81645 0.15103 0.0
H924 H 0.5558 0.82985 0.12873 0.0
H925 H 0.41384 0.81542 0.0385 0.0
H926 H 0.40683 0.8637 0.02741 0.0
H927 H 0.3979 0.84169 0.07182 0.0
C928 C 0.0448 0.29527 0.63507 0.0
C929 C 0.07109 0.31858 0.6152 0.0
C930 C 0.033 0.2597 0.625 0.0
C931 C 0.04786 0.24723 0.59438 0.0
C932 C 0.07301 0.27135 0.57326 0.0
C933 C 0.08442 0.30658 0.584 0.0
C934 C 1.00606 0.23479 0.64814 0.0
C935 C 0.0896 0.25912 0.54044 0.0
C936 C 0.0608 0.14543 0.59139 0.0
C937 C 0.03404 0.13411 0.56696 0.0
C938 C 0.06453 0.18176 0.60152 0.0
C939 C 0.04098 0.20763 0.58681 0.0
C940 C 1.01308 0.19616 0.56305 0.0
C941 C 1.00986 0.15939 0.55342 0.0
C942 C 0.09455 0.19275 0.62708 0.0
C943 C 0.98749 0.22304 0.54688 0.0
H944 H 0.03397 0.30454 0.65891 0.0
H945 H 0.10514 0.32407 0.56873 0.0
H946 H 0.98428 0.22193 0.63152 0.0
H947 H 0.01977 0.21182 0.66239 0.0
H948 H 0.99368 0.25012 0.66825 0.0
H949 H 0.10564 0.28247 0.52485 0.0
H950 H 0.10765 0.23713 0.54852 0.0
H951 H 0.06829 0.24701 0.52285 0.0
H952 H 0.07935 0.12597 0.60235 0.0
H953 H 0.98903 0.15076 0.53466 0.0
H954 H 0.08355 0.20536 0.64982 0.0
H955 H 0.11434 0.21403 0.61328 0.0
H956 H 0.10909 0.16869 0.63778 0.0
H957 H 0.97571 0.23744 0.56801 0.0
H958 H 0.96518 0.20895 0.5317 0.0
H959 H 1.00254 0.24473 0.52853 0.0
C960 C 0.58586 0.24359 0.49641 0.0
C961 C 0.56984 0.23447 0.46409 0.0
C962 C 0.58499 0.27931 0.50754 0.0
C963 C 0.56812 0.3065 0.48549 0.0
C964 C 0.5522 0.29745 0.45263 0.0
C965 C 0.55341 0.26148 0.44224 0.0
C966 C 0.60224 0.28802 0.54273 0.0
C967 C 0.53412 0.32582 0.42838 0.0
C968 C 0.5346 0.38761 0.52714 0.0
C969 C 0.56175 0.41636 0.51754 0.0
C970 C 0.53659 0.35164 0.51719 0.0
C971 C 0.56643 0.34423 0.4971 0.0
C972 C 0.59419 0.37293 0.48765 0.0
C973 C 0.59155 0.40874 0.49805 0.0
C974 C 0.50654 0.32167 0.52784 0.0
C975 C 0.62638 0.36592 0.46617 0.0
H976 H 0.59936 0.22281 0.51277 0.0
H977 H 0.54187 0.25449 0.41683 0.0
H978 H 0.62372 0.31144 0.53834 0.0
H979 H 0.58182 0.29699 0.56043 0.0
H980 H 0.61427 0.26372 0.55668 0.0
H981 H 0.52329 0.31434 0.40361 0.0
H982 H 0.51158 0.33582 0.4426 0.0
H983 H 0.55366 0.35035 0.42088 0.0
H984 H 0.51153 0.39321 0.54233 0.0
H985 H 0.61259 0.43084 0.49055 0.0
H986 H 0.51772 0.29777 0.54334 0.0
H987 H 0.4934 0.31113 0.50364 0.0
H988 H 0.4856 0.33186 0.54417 0.0
H989 H 0.64045 0.343 0.48002 0.0
H990 H 0.64602 0.39103 0.46171 0.0
H991 H 0.61723 0.35699 0.43985 0.0
loop_
_geom_bond_atom_site_label_1
_geom_bond_atom_site_label_2
_geom_bond_distance
_geom_bond_site_symmetry_2
_ccdc_geom_bond_type
H0 C7 0.929 . S
H1 C10 0.930 . S
H2 C12 0.929 . S
H3 C4 0.969 . S
C4 H3 0.969 . S
C4 O5 1.550 . S
C4 H6 0.973 . S
O5 C4 1.550 . S
O5 C11 1.412 . S
H6 C4 0.973 . S
C7 H0 0.929 . S
C7 C8 1.400 . S
C7 C9 1.364 . S
C8 C7 1.400 . S
C8 C12 1.377 . S
C9 C7 1.364 . S
C9 C10 1.374 . S
C10 H1 0.930 . S
C10 C9 1.374 . S
C10 C11 1.383 . S
C11 O5 1.412 . S
C11 C10 1.383 . S
C11 C12 1.394 . S
C12 H2 0.929 . S
C12 C8 1.377 . S
C12 C11 1.394 . S
H13 C20 0.929 . S
H14 C23 0.930 . S
H15 C25 0.929 . S
H16 C17 0.969 . S
C17 H16 0.969 . S
C17 O18 1.550 . S
C17 H19 0.973 . S
O18 C17 1.550 . S
O18 C24 1.412 . S
H19 C17 0.973 . S
C20 H13 0.929 . S
C20 C21 1.400 . S
C20 C22 1.364 . S
C21 C20 1.400 . S
C21 C25 1.377 . S
C22 C20 1.364 . S
C22 C23 1.374 . S
C23 H14 0.930 . S
C23 C22 1.374 . S
C23 C24 1.383 . S
C24 O18 1.412 . S
C24 C23 1.383 . S
C24 C25 1.394 . S
C25 H15 0.929 . S
C25 C21 1.377 . S
C25 C24 1.394 . S
H26 C33 0.929 . S
H27 C36 0.930 . S
H28 C38 0.929 . S
H29 C30 0.969 . S
C30 H29 0.969 . S
C30 O31 1.550 . S
C30 H32 0.973 . S
O31 C30 1.550 . S
O31 C37 1.412 . S
H32 C30 0.973 . S
C33 H26 0.929 . S
C33 C34 1.400 . S
C33 C35 1.364 . S
C34 C33 1.400 . S
C34 C38 1.377 . S
C35 C33 1.364 . S
C35 C36 1.374 . S
C36 H27 0.930 . S
C36 C35 1.374 . S
C36 C37 1.383 . S
C37 O31 1.412 . S
C37 C36 1.383 . S
C37 C38 1.394 . S
C38 H28 0.929 . S
C38 C34 1.377 . S
C38 C37 1.394 . S
H39 C46 0.929 . S
H40 C49 0.930 . S
H41 C51 0.929 . S
H42 C43 0.969 . S
C43 H42 0.969 . S
C43 O44 1.550 . S
C43 H45 0.973 . S
O44 C43 1.550 . S
O44 C50 1.412 . S
H45 C43 0.973 . S
C46 H39 0.929 . S
C46 C47 1.400 . S
C46 C48 1.364 . S
C47 C46 1.400 . S
C47 C51 1.377 . S
C48 C46 1.364 . S
C48 C49 1.374 . S
C49 H40 0.930 . S
C49 C48 1.374 . S
C49 C50 1.383 . S
C50 O44 1.412 . S
C50 C49 1.383 . S
C50 C51 1.394 . S
C51 H41 0.929 . S
C51 C47 1.377 . S
C51 C50 1.394 . S
H52 C59 0.929 . S
H53 C62 0.930 . S
H54 C64 0.929 . S
H55 C56 0.969 . S
C56 H55 0.969 . S
C56 O57 1.550 . S
C56 H58 0.973 . S
O57 C56 1.550 . S
O57 C63 1.412 . S
H58 C56 0.973 . S
C59 H52 0.929 . S
C59 C60 1.400 . S
C59 C61 1.364 . S
C60 C59 1.400 . S
C60 C64 1.377 . S
C61 C59 1.364 . S
C61 C62 1.374 . S
C62 H53 0.930 . S
C62 C61 1.374 . S
C62 C63 1.383 . S
C63 O57 1.412 . S
C63 C62 1.383 . S
C63 C64 1.394 . S
C64 H54 0.929 . S
C64 C60 1.377 . S
C64 C63 1.394 . S
H65 C72 0.929 . S
H66 C75 0.930 . S
H67 C77 0.929 . S
H68 C69 0.969 . S
C69 H68 0.969 . S
C69 O70 1.550 . S
C69 H71 0.973 . S
O70 C69 1.550 . S
O70 C76 1.412 . S
H71 C69 0.973 . S
C72 H65 0.929 . S
C72 C73 1.400 . S
C72 C74 1.364 . S
C73 C72 1.400 . S
C73 C77 1.377 . S
C74 C72 1.364 . S
C74 C75 1.374 . S
C75 H66 0.930 . S
C75 C74 1.374 . S
C75 C76 1.383 . S
C76 O70 1.412 . S
C76 C75 1.383 . S
C76 C77 1.394 . S
C77 H67 0.929 . S
C77 C73 1.377 . S
C77 C76 1.394 . S
H78 C85 0.929 . S
H79 C88 0.930 . S
H80 C90 0.929 . S
H81 C82 0.969 . S
C82 H81 0.969 . S
C82 O83 1.550 . S
C82 H84 0.973 . S
O83 C82 1.550 . S
O83 C89 1.412 . S
H84 C82 0.973 . S
C85 H78 0.929 . S
C85 C86 1.400 . S
C85 C87 1.364 . S
C86 C85 1.400 . S
C86 C90 1.377 . S
C87 C85 1.364 . S
C87 C88 1.374 . S
C88 H79 0.930 . S
C88 C87 1.374 . S
C88 C89 1.383 . S
C89 O83 1.412 . S
C89 C88 1.383 . S
C89 C90 1.394 . S
C90 H80 0.929 . S
C90 C86 1.377 . S
C90 C89 1.394 . S
H91 C98 0.929 . S
H92 C101 0.930 . S
H93 C103 0.929 . S
H94 C95 0.969 . S
C95 H94 0.969 . S
C95 O96 1.550 . S
C95 H97 0.973 . S
O96 C95 1.550 . S
O96 C102 1.412 . S
H97 C95 0.973 . S
C98 H91 0.929 . S
C98 C99 1.400 . S
C98 C100 1.364 . S
C99 C98 1.400 . S
C99 C103 1.377 . S
C100 C98 1.364 . S
C100 C101 1.374 . S
C101 H92 0.930 . S
C101 C100 1.374 . S
C101 C102 1.383 . S
C102 O96 1.412 . S
C102 C101 1.383 . S
C102 C103 1.394 . S
C103 H93 0.929 . S
C103 C99 1.377 . S
C103 C102 1.394 . S
Co104 N109 2.057 . S
Co104 O121 2.021 . S
Co104 O124 2.070 . S
Co104 O128 2.117 1_545 S
Co104 O129 2.020 . S
C105 O125 1.259 1_655 S
C105 O128 1.258 . S
Co106 N115 2.053 1_545 S
Co106 O122 2.117 . S
Co106 O123 2.020 . S
Co106 O125 2.021 1_545 S
Co106 O130 2.062 1_545 S
C107 N109 1.316 . S
C107 N110 1.347 . S
C107 H112 0.931 . S
C108 N109 1.375 . S
C108 C111 1.350 . S
C108 H113 0.930 1_545 S
N109 Co104 2.057 . S
N109 C107 1.316 . S
N109 C108 1.375 . S
N110 C107 1.347 . S
N110 C111 1.373 . S
C111 C108 1.350 . S
C111 N110 1.373 . S
C111 H132 0.931 . S
H112 C107 0.931 . S
H113 C108 0.930 1_565 S
C114 O121 1.259 1_455 S
C114 O122 1.258 . S
N115 Co106 2.053 1_565 S
N115 C116 1.340 . S
N115 C117 1.357 1_565 S
C116 N115 1.340 . S
C116 N118 1.347 . S
C116 H127 0.931 . S
C117 N115 1.357 1_545 S
C117 C119 1.350 . S
C117 H126 0.930 . S
N118 C116 1.347 . S
N118 C119 1.373 1_565 S
C119 C117 1.350 . S
C119 N118 1.373 1_545 S
C119 H133 0.931 . S
C120 O123 1.256 . S
C120 O124 1.235 1_455 S
O121 Co104 2.021 . S
O121 C114 1.259 1_655 S
O122 Co106 2.117 . S
O122 C114 1.258 . S
O123 Co106 2.020 . S
O123 C120 1.256 . S
O124 Co104 2.070 . S
O124 C120 1.235 1_655 S
O125 C105 1.259 1_455 S
O125 Co106 2.021 1_565 S
H126 C117 0.930 . S
H127 C116 0.931 . S
O128 Co104 2.117 1_565 S
O128 C105 1.258 . S
O129 Co104 2.020 . S
O129 C131 1.256 1_545 S
O130 Co106 2.062 1_565 S
O130 C131 1.255 1_455 S
C131 O129 1.256 1_565 S
C131 O130 1.255 1_655 S
H132 C111 0.931 . S
H133 C119 0.931 . S
Co134 N139 2.057 1_545 S
Co134 O151 2.021 . S
Co134 O154 2.062 1_545 S
Co134 O158 2.117 1_546 S
Co134 O159 2.020 . S
C135 O155 1.259 . S
C135 O158 1.258 . S
Co136 N145 2.057 . S
Co136 O152 2.117 . S
Co136 O153 2.020 . S
Co136 O155 2.021 1_545 S
Co136 O160 2.062 . S
C137 N139 1.316 . S
C137 N140 1.347 . S
C137 H142 0.931 1_565 S
C138 N139 1.375 . S
C138 C141 1.350 . S
C138 H143 0.930 . S
N139 Co134 2.057 1_565 S
N139 C137 1.316 . S
N139 C138 1.375 . S
N140 C137 1.347 . S
N140 C141 1.373 . S
C141 C138 1.350 . S
C141 N140 1.373 . S
C141 H162 0.931 . S
H142 C137 0.931 1_545 S
H143 C138 0.930 . S
C144 O151 1.259 . S
C144 O152 1.258 1_556 S
N145 Co136 2.057 . S
N145 C146 1.316 . S
N145 C147 1.375 . S
C146 N145 1.316 . S
C146 N148 1.347 . S
C146 H157 0.931 . S
C147 N145 1.375 . S
C147 C149 1.350 . S
C147 H156 0.930 . S
N148 C146 1.347 . S
N148 C149 1.373 . S
C149 C147 1.350 . S
C149 N148 1.373 . S
C149 H163 0.931 . S
C150 O153 1.256 1_566 S
C150 O154 1.255 . S
O151 Co134 2.021 . S
O151 C144 1.259 . S
O152 Co136 2.117 . S
O152 C144 1.258 1_554 S
O153 Co136 2.020 . S
O153 C150 1.256 1_544 S
O154 Co134 2.062 1_565 S
O154 C150 1.255 . S
O155 C135 1.259 . S
O155 Co136 2.021 1_565 S
H156 C147 0.930 . S
H157 C146 0.931 . S
O158 Co134 2.117 1_564 S
O158 C135 1.258 . S
O159 Co134 2.020 . S
O159 C161 1.256 1_556 S
O160 Co136 2.062 . S
O160 C161 1.255 . S
C161 O159 1.256 1_554 S
C161 O160 1.255 . S
H162 C141 0.931 . S
H163 C149 0.931 . S
Co164 N169 2.057 . S
Co164 O181 2.021 . S
Co164 O184 2.062 . S
Co164 O188 2.117 . S
Co164 O189 2.020 . S
C165 O185 1.259 . S
C165 O188 1.258 . S
Co166 N175 2.057 . S
Co166 O182 2.117 . S
Co166 O183 2.020 . S
Co166 O185 2.021 . S
Co166 O190 2.062 . S
C167 N169 1.316 . S
C167 N170 1.347 . S
C167 H172 0.931 . S
C168 N169 1.375 . S
C168 C171 1.350 . S
C168 H173 0.930 . S
N169 Co164 2.057 . S
N169 C167 1.316 . S
N169 C168 1.375 . S
N170 C167 1.347 . S
N170 C171 1.373 . S
C171 C168 1.350 . S
C171 N170 1.373 . S
C171 H192 0.931 . S
H172 C167 0.931 . S
H173 C168 0.930 . S
C174 O181 1.259 . S
C174 O182 1.258 . S
N175 Co166 2.057 . S
N175 C176 1.316 . S
N175 C177 1.375 . S
C176 N175 1.316 . S
C176 N178 1.347 . S
C176 H187 0.931 . S
C177 N175 1.375 . S
C177 C179 1.350 . S
C177 H186 0.930 . S
N178 C176 1.347 . S
N178 C179 1.373 . S
C179 C177 1.350 . S
C179 N178 1.373 . S
C179 H193 0.931 . S
C180 O183 1.256 . S
C180 O184 1.255 . S
O181 Co164 2.021 . S
O181 C174 1.259 . S
O182 Co166 2.117 . S
O182 C174 1.258 . S
O183 Co166 2.020 . S
O183 C180 1.256 . S
O184 Co164 2.062 . S
O184 C180 1.255 . S
O185 C165 1.259 . S
O185 Co166 2.021 . S
H186 C177 0.930 . S
H187 C176 0.931 . S
O188 Co164 2.117 . S
O188 C165 1.258 . S
O189 Co164 2.020 . S
O189 C191 1.256 . S
O190 Co166 2.062 . S
O190 C191 1.255 . S
C191 O189 1.256 . S
C191 O190 1.255 . S
H192 C171 0.931 . S
H193 C179 0.931 . S
Co194 N199 2.057 . S
Co194 O211 2.021 1_556 S
Co194 O214 2.062 1_556 S
Co194 O218 2.117 1_455 S
Co194 O219 2.020 . S
C195 O215 1.259 . S
C195 O218 1.258 1_554 S
Co196 N205 2.057 . S
Co196 O212 2.117 . S
Co196 O213 2.020 . S
Co196 O215 2.021 1_455 S
Co196 O220 2.062 . S
C197 N199 1.316 . S
C197 N200 1.347 . S
C197 H202 0.931 . S
C198 N199 1.375 . S
C198 C201 1.350 . S
C198 H203 0.930 1_455 S
N199 Co194 2.057 . S
N199 C197 1.316 . S
N199 C198 1.375 . S
N200 C197 1.347 . S
N200 C201 1.373 . S
C201 C198 1.350 . S
C201 N200 1.373 . S
C201 H222 0.931 . S
H202 C197 0.931 . S
H203 C198 0.930 1_655 S
C204 O211 1.259 . S
C204 O212 1.258 . S
N205 Co196 2.057 . S
N205 C206 1.316 1_455 S
N205 C207 1.375 . S
C206 N205 1.316 1_655 S
C206 N208 1.347 . S
C206 H217 0.931 . S
C207 N205 1.375 . S
C207 C209 1.350 . S
C207 H216 0.930 . S
N208 C206 1.347 . S
N208 C209 1.373 1_655 S
C209 C207 1.350 . S
C209 N208 1.373 1_455 S
C209 H223 0.931 . S
C210 O213 1.256 . S
C210 O214 1.255 . S
O211 Co194 2.021 1_554 S
O211 C204 1.259 . S
O212 Co196 2.117 . S
O212 C204 1.258 . S
O213 Co196 2.020 . S
O213 C210 1.256 . S
O214 Co194 2.062 1_554 S
O214 C210 1.255 . S
O215 C195 1.259 . S
O215 Co196 2.021 1_655 S
H216 C207 0.930 . S
H217 C206 0.931 . S
O218 Co194 2.117 1_655 S
O218 C195 1.258 1_556 S
O219 Co194 2.020 . S
O219 C221 1.256 1_556 S
O220 Co196 2.062 . S
O220 C221 1.255 . S
C221 O219 1.256 1_554 S
C221 O220 1.255 . S
H222 C201 0.931 . S
H223 C209 0.931 . S
C224 C225 1.391 . S
C224 C226 1.394 . S
C224 H240 0.931 . S
C225 C224 1.391 . S
C225 C229 1.376 . S
C226 C224 1.394 . S
C226 C227 1.369 . S
C226 C230 1.531 . S
C227 C226 1.369 . S
C227 C228 1.410 . S
C227 C235 1.503 . S
C228 C227 1.410 . S
C228 C229 1.392 . S
C228 C231 1.511 . S
C229 C225 1.376 . S
C229 C228 1.392 . S
C229 H241 0.929 . S
C230 C226 1.531 . S
C230 H242 0.960 . S
C230 H243 0.962 . S
C230 H244 0.960 1_545 S
C231 C228 1.511 . S
C231 H245 0.961 . S
C231 H246 0.961 . S
C231 H247 0.961 . S
C232 C233 1.370 . S
C232 C234 1.363 . S
C232 H248 0.931 . S
C233 C232 1.370 . S
C233 C237 1.408 . S
C234 C232 1.363 . S
C234 C235 1.370 . S
C234 C238 1.524 . S
C235 C227 1.503 . S
C235 C234 1.370 . S
C235 C236 1.403 . S
C236 C235 1.403 . S
C236 C237 1.404 . S
C236 C239 1.539 . S
C237 C233 1.408 . S
C237 C236 1.404 . S
C237 H249 0.930 . S
C238 C234 1.524 . S
C238 H250 0.956 . S
C238 H251 0.961 . S
C238 H252 0.961 . S
C239 C236 1.539 . S
C239 H253 0.958 1_545 S
C239 H254 0.961 . S
C239 H255 0.960 . S
H240 C224 0.931 . S
H241 C229 0.929 . S
H242 C230 0.960 . S
H243 C230 0.962 . S
H244 C230 0.960 1_565 S
H245 C231 0.961 . S
H246 C231 0.961 . S
H247 C231 0.961 . S
H248 C232 0.931 . S
H249 C237 0.930 . S
H250 C238 0.956 . S
H251 C238 0.961 . S
H252 C238 0.961 . S
H253 C239 0.958 1_565 S
H254 C239 0.961 . S
H255 C239 0.960 . S
C256 C257 1.391 . S
C256 C258 1.394 . S
C256 H272 0.931 . S
C257 C256 1.391 . S
C257 C261 1.376 . S
C258 C256 1.394 . S
C258 C259 1.369 . S
C258 C262 1.531 . S
C259 C258 1.369 . S
C259 C260 1.410 . S
C259 C267 1.503 . S
C260 C259 1.410 . S
C260 C261 1.392 . S
C260 C263 1.511 . S
C261 C257 1.376 . S
C261 C260 1.392 . S
C261 H273 0.929 . S
C262 C258 1.531 . S
C262 H274 0.960 . S
C262 H275 0.962 . S
C262 H276 0.960 . S
C263 C260 1.511 . S
C263 H277 0.961 . S
C263 H278 0.961 . S
C263 H279 0.961 . S
C264 C265 1.370 . S
C264 C266 1.363 . S
C264 H280 0.931 . S
C265 C264 1.370 . S
C265 C269 1.408 . S
C266 C264 1.363 . S
C266 C267 1.370 . S
C266 C270 1.524 . S
C267 C259 1.503 . S
C267 C266 1.370 . S
C267 C268 1.403 . S
C268 C267 1.403 . S
C268 C269 1.404 . S
C268 C271 1.539 1_565 S
C269 C265 1.408 . S
C269 C268 1.404 . S
C269 H281 0.930 1_565 S
C270 C266 1.524 . S
C270 H282 0.956 . S
C270 H283 0.961 . S
C270 H284 0.961 . S
C271 C268 1.539 1_545 S
C271 H285 0.958 . S
C271 H286 0.961 . S
C271 H287 0.960 . S
H272 C256 0.931 . S
H273 C261 0.929 . S
H274 C262 0.960 . S
H275 C262 0.962 . S
H276 C262 0.960 . S
H277 C263 0.961 . S
H278 C263 0.961 . S
H279 C263 0.961 . S
H280 C264 0.931 . S
H281 C269 0.930 1_545 S
H282 C270 0.956 . S
H283 C270 0.961 . S
H284 C270 0.961 . S
H285 C271 0.958 . S
H286 C271 0.961 . S
H287 C271 0.960 . S
C288 C289 1.391 . S
C288 C290 1.394 . S
C288 H304 0.931 . S
C289 C288 1.391 . S
C289 C293 1.376 . S
C290 C288 1.394 . S
C290 C291 1.369 . S
C290 C294 1.531 . S
C291 C290 1.369 . S
C291 C292 1.410 . S
C291 C299 1.503 . S
C292 C291 1.410 . S
C292 C293 1.392 . S
C292 C295 1.511 . S
C293 C289 1.376 . S
C293 C292 1.392 . S
C293 H305 0.929 . S
C294 C290 1.531 . S
C294 H306 0.960 . S
C294 H307 0.962 . S
C294 H308 0.960 . S
C295 C292 1.511 . S
C295 H309 0.961 . S
C295 H310 0.961 . S
C295 H311 0.961 . S
C296 C297 1.370 . S
C296 C298 1.363 . S
C296 H312 0.931 . S
C297 C296 1.370 . S
C297 C301 1.408 . S
C298 C296 1.363 . S
C298 C299 1.370 . S
C298 C302 1.524 . S
C299 C291 1.503 . S
C299 C298 1.370 . S
C299 C300 1.403 . S
C300 C299 1.403 . S
C300 C301 1.404 . S
C300 C303 1.539 . S
C301 C297 1.408 . S
C301 C300 1.404 . S
C301 H313 0.930 . S
C302 C298 1.524 . S
C302 H314 0.956 . S
C302 H315 0.961 . S
C302 H316 0.961 . S
C303 C300 1.539 . S
C303 H317 0.958 . S
C303 H318 0.961 . S
C303 H319 0.960 . S
H304 C288 0.931 . S
H305 C293 0.929 . S
H306 C294 0.960 . S
H307 C294 0.962 . S
H308 C294 0.960 . S
H309 C295 0.961 . S
H310 C295 0.961 . S
H311 C295 0.961 . S
H312 C296 0.931 . S
H313 C301 0.930 . S
H314 C302 0.956 . S
H315 C302 0.961 . S
H316 C302 0.961 . S
H317 C303 0.958 . S
H318 C303 0.961 . S
H319 C303 0.960 . S
C320 C321 1.391 1_455 S
C320 C322 1.394 . S
C320 H336 0.931 . S
C321 C320 1.391 1_655 S
C321 C325 1.376 . S
C322 C320 1.394 . S
C322 C323 1.369 1_455 S
C322 C326 1.531 . S
C323 C322 1.369 1_655 S
C323 C324 1.410 . S
C323 C331 1.503 . S
C324 C323 1.410 . S
C324 C325 1.392 . S
C324 C327 1.511 . S
C325 C321 1.376 . S
C325 C324 1.392 . S
C325 H337 0.929 . S
C326 C322 1.531 . S
C326 H338 0.960 . S
C326 H339 0.962 . S
C326 H340 0.960 . S
C327 C324 1.511 . S
C327 H341 0.961 . S
C327 H342 0.961 . S
C327 H343 0.961 . S
C328 C329 1.370 . S
C328 C330 1.363 . S
C328 H344 0.931 . S
C329 C328 1.370 . S
C329 C333 1.408 . S
C330 C328 1.363 . S
C330 C331 1.370 . S
C330 C334 1.524 . S
C331 C323 1.503 . S
C331 C330 1.370 . S
C331 C332 1.403 . S
C332 C331 1.403 . S
C332 C333 1.404 . S
C332 C335 1.539 . S
C333 C329 1.408 . S
C333 C332 1.404 . S
C333 H345 0.930 . S
C334 C330 1.524 . S
C334 H346 0.956 1_655 S
C334 H347 0.961 . S
C334 H348 0.961 . S
C335 C332 1.539 . S
C335 H349 0.958 . S
C335 H350 0.961 . S
C335 H351 0.960 . S
H336 C320 0.931 . S
H337 C325 0.929 . S
H338 C326 0.960 . S
H339 C326 0.962 . S
H340 C326 0.960 . S
H341 C327 0.961 . S
H342 C327 0.961 . S
H343 C327 0.961 . S
H344 C328 0.931 . S
H345 C333 0.930 . S
H346 C334 0.956 1_455 S
H347 C334 0.961 . S
H348 C334 0.961 . S
H349 C335 0.958 . S
H350 C335 0.961 . S
H351 C335 0.960 . S
C352 C353 1.391 . S
C352 C354 1.394 . S
C352 H368 0.931 . S
C353 C352 1.391 . S
C353 C357 1.376 . S
C354 C352 1.394 . S
C354 C355 1.369 . S
C354 C358 1.531 . S
C355 C354 1.369 . S
C355 C356 1.410 . S
C355 C363 1.503 . S
C356 C355 1.410 . S
C356 C357 1.392 . S
C356 C359 1.511 . S
C357 C353 1.376 . S
C357 C356 1.392 . S
C357 H369 0.929 . S
C358 C354 1.531 . S
C358 H370 0.960 . S
C358 H371 0.962 . S
C358 H372 0.960 . S
C359 C356 1.511 . S
C359 H373 0.961 . S
C359 H374 0.961 . S
C359 H375 0.961 . S
C360 C361 1.370 . S
C360 C362 1.363 . S
C360 H376 0.931 . S
C361 C360 1.370 . S
C361 C365 1.408 . S
C362 C360 1.363 . S
C362 C363 1.370 . S
C362 C366 1.524 . S
C363 C355 1.503 . S
C363 C362 1.370 . S
C363 C364 1.403 . S
C364 C363 1.403 . S
C364 C365 1.404 . S
C364 C367 1.539 1_545 S
C365 C361 1.408 . S
C365 C364 1.404 . S
C365 H377 0.930 1_545 S
C366 C362 1.524 . S
C366 H378 0.956 . S
C366 H379 0.961 . S
C366 H380 0.961 . S
C367 C364 1.539 1_565 S
C367 H381 0.958 . S
C367 H382 0.961 . S
C367 H383 0.960 . S
H368 C352 0.931 . S
H369 C357 0.929 . S
H370 C358 0.960 . S
H371 C358 0.962 . S
H372 C358 0.960 . S
H373 C359 0.961 . S
H374 C359 0.961 . S
H375 C359 0.961 . S
H376 C360 0.931 . S
H377 C365 0.930 1_565 S
H378 C366 0.956 . S
H379 C366 0.961 . S
H380 C366 0.961 . S
H381 C367 0.958 . S
H382 C367 0.961 . S
H383 C367 0.960 . S
C384 C385 1.391 . S
C384 C386 1.394 . S
C384 H400 0.931 . S
C385 C384 1.391 . S
C385 C389 1.376 . S
C386 C384 1.394 . S
C386 C387 1.369 . S
C386 C390 1.531 . S
C387 C386 1.369 . S
C387 C388 1.410 . S
C387 C395 1.503 . S
C388 C387 1.410 . S
C388 C389 1.392 . S
C388 C391 1.511 . S
C389 C385 1.376 . S
C389 C388 1.392 . S
C389 H401 0.929 . S
C390 C386 1.531 . S
C390 H402 0.960 . S
C390 H403 0.962 . S
C390 H404 0.960 . S
C391 C388 1.511 . S
C391 H405 0.961 1_565 S
C391 H406 0.961 . S
C391 H407 0.961 . S
C392 C393 1.370 . S
C392 C394 1.363 . S
C392 H408 0.931 . S
C393 C392 1.370 . S
C393 C397 1.408 . S
C394 C392 1.363 . S
C394 C395 1.370 . S
C394 C398 1.524 . S
C395 C387 1.503 . S
C395 C394 1.370 . S
C395 C396 1.403 . S
C396 C395 1.403 . S
C396 C397 1.404 . S
C396 C399 1.539 . S
C397 C393 1.408 . S
C397 C396 1.404 . S
C397 H409 0.930 . S
C398 C394 1.524 . S
C398 H410 0.956 . S
C398 H411 0.961 . S
C398 H412 0.961 . S
C399 C396 1.539 . S
C399 H413 0.958 . S
C399 H414 0.961 . S
C399 H415 0.960 . S
H400 C384 0.931 . S
H401 C389 0.929 . S
H402 C390 0.960 . S
H403 C390 0.962 . S
H404 C390 0.960 . S
H405 C391 0.961 1_545 S
H406 C391 0.961 . S
H407 C391 0.961 . S
H408 C392 0.931 . S
H409 C397 0.930 . S
H410 C398 0.956 . S
H411 C398 0.961 . S
H412 C398 0.961 . S
H413 C399 0.958 . S
H414 C399 0.961 . S
H415 C399 0.960 . S
C416 C417 1.391 . S
C416 C418 1.394 . S
C416 H432 0.931 . S
C417 C416 1.391 . S
C417 C421 1.376 . S
C418 C416 1.394 . S
C418 C419 1.369 . S
C418 C422 1.531 . S
C419 C418 1.369 . S
C419 C420 1.410 . S
C419 C427 1.503 . S
C420 C419 1.410 . S
C420 C421 1.392 . S
C420 C423 1.511 . S
C421 C417 1.376 . S
C421 C420 1.392 . S
C421 H433 0.929 . S
C422 C418 1.531 . S
C422 H434 0.960 . S
C422 H435 0.962 . S
C422 H436 0.960 . S
C423 C420 1.511 . S
C423 H437 0.961 . S
C423 H438 0.961 . S
C423 H439 0.961 . S
C424 C425 1.370 1_554 S
C424 C426 1.356 1_554 S
C424 H440 0.931 . S
C425 C424 1.370 1_556 S
C425 C429 1.408 . S
C426 C424 1.356 1_556 S
C426 C427 1.389 . S
C426 C430 1.513 1_556 S
C427 C419 1.503 . S
C427 C426 1.389 . S
C427 C428 1.403 . S
C428 C427 1.403 . S
C428 C429 1.404 . S
C428 C431 1.539 . S
C429 C425 1.408 . S
C429 C428 1.404 . S
C429 H441 0.930 . S
C430 C426 1.513 1_554 S
C430 H442 0.956 . S
C430 H443 0.961 . S
C430 H444 0.961 . S
C431 C428 1.539 . S
C431 H445 0.958 . S
C431 H446 0.961 . S
C431 H447 0.960 . S
H432 C416 0.931 . S
H433 C421 0.929 . S
H434 C422 0.960 . S
H435 C422 0.962 . S
H436 C422 0.960 . S
H437 C423 0.961 . S
H438 C423 0.961 . S
H439 C423 0.961 . S
H440 C424 0.931 . S
H441 C429 0.930 . S
H442 C430 0.956 . S
H443 C430 0.961 . S
H444 C430 0.961 . S
H445 C431 0.958 . S
H446 C431 0.961 . S
H447 C431 0.960 . S
C448 C449 1.391 . S
C448 C450 1.394 . S
C448 H464 0.931 . S
C449 C448 1.391 . S
C449 C453 1.376 . S
C450 C448 1.394 . S
C450 C451 1.369 . S
C450 C454 1.531 . S
C451 C450 1.369 . S
C451 C452 1.410 . S
C451 C459 1.503 . S
C452 C451 1.410 . S
C452 C453 1.392 . S
C452 C455 1.511 . S
C453 C449 1.376 . S
C453 C452 1.392 . S
C453 H465 0.929 . S
C454 C450 1.531 . S
C454 H466 0.960 . S
C454 H467 0.962 . S
C454 H468 0.960 . S
C455 C452 1.511 . S
C455 H469 0.961 . S
C455 H470 0.961 . S
C455 H471 0.961 . S
C456 C457 1.370 . S
C456 C458 1.363 . S
C456 H472 0.931 . S
C457 C456 1.370 . S
C457 C461 1.408 . S
C458 C456 1.363 . S
C458 C459 1.370 . S
C458 C462 1.524 . S
C459 C451 1.503 . S
C459 C458 1.370 . S
C459 C460 1.403 . S
C460 C459 1.403 . S
C460 C461 1.404 . S
C460 C463 1.539 . S
C461 C457 1.408 . S
C461 C460 1.404 . S
C461 H473 0.930 . S
C462 C458 1.524 . S
C462 H474 0.956 . S
C462 H475 0.961 . S
C462 H476 0.961 . S
C463 C460 1.539 . S
C463 H477 0.958 . S
C463 H478 0.961 . S
C463 H479 0.960 . S
H464 C448 0.931 . S
H465 C453 0.929 . S
H466 C454 0.960 . S
H467 C454 0.962 . S
H468 C454 0.960 . S
H469 C455 0.961 . S
H470 C455 0.961 . S
H471 C455 0.961 . S
H472 C456 0.931 . S
H473 C461 0.930 . S
H474 C462 0.956 . S
H475 C462 0.961 . S
H476 C462 0.961 . S
H477 C463 0.958 . S
H478 C463 0.961 . S
H479 C463 0.960 . S
C480 C481 1.391 . S
C480 C482 1.394 . S
C480 H496 0.931 . S
C481 C480 1.391 . S
C481 C485 1.376 . S
C482 C480 1.394 . S
C482 C483 1.369 . S
C482 C486 1.531 . S
C483 C482 1.369 . S
C483 C484 1.410 . S
C483 C491 1.503 . S
C484 C483 1.410 . S
C484 C485 1.392 . S
C484 C487 1.511 . S
C485 C481 1.376 . S
C485 C484 1.392 . S
C485 H497 0.929 . S
C486 C482 1.531 . S
C486 H498 0.960 . S
C486 H499 0.962 . S
C486 H500 0.960 . S
C487 C484 1.511 . S
C487 H501 0.961 . S
C487 H502 0.961 . S
C487 H503 0.961 . S
C488 C489 1.370 . S
C488 C490 1.363 . S
C488 H504 0.931 . S
C489 C488 1.370 . S
C489 C493 1.408 . S
C490 C488 1.363 . S
C490 C491 1.370 . S
C490 C494 1.524 . S
C491 C483 1.503 . S
C491 C490 1.370 . S
C491 C492 1.403 . S
C492 C491 1.403 . S
C492 C493 1.404 . S
C492 C495 1.539 . S
C493 C489 1.408 . S
C493 C492 1.404 . S
C493 H505 0.930 . S
C494 C490 1.524 . S
C494 H506 0.956 . S
C494 H507 0.961 . S
C494 H508 0.961 . S
C495 C492 1.539 . S
C495 H509 0.958 . S
C495 H510 0.961 . S
C495 H511 0.960 . S
H496 C480 0.931 . S
H497 C485 0.929 . S
H498 C486 0.960 . S
H499 C486 0.962 . S
H500 C486 0.960 . S
H501 C487 0.961 . S
H502 C487 0.961 . S
H503 C487 0.961 . S
H504 C488 0.931 . S
H505 C493 0.930 . S
H506 C494 0.956 . S
H507 C494 0.961 . S
H508 C494 0.961 . S
H509 C495 0.958 . S
H510 C495 0.961 . S
H511 C495 0.960 . S
C512 C513 1.391 . S
C512 C514 1.394 . S
C512 H528 0.931 . S
C513 C512 1.391 . S
C513 C517 1.376 . S
C514 C512 1.394 . S
C514 C515 1.369 . S
C514 C518 1.531 . S
C515 C514 1.369 . S
C515 C516 1.410 . S
C515 C523 1.503 . S
C516 C515 1.410 . S
C516 C517 1.392 . S
C516 C519 1.511 . S
C517 C513 1.376 . S
C517 C516 1.392 . S
C517 H529 0.929 . S
C518 C514 1.531 . S
C518 H530 0.960 . S
C518 H531 0.962 . S
C518 H532 0.960 . S
C519 C516 1.511 . S
C519 H533 0.961 . S
C519 H534 0.961 . S
C519 H535 0.961 . S
C520 C521 1.370 . S
C520 C522 1.363 . S
C520 H536 0.931 1_556 S
C521 C520 1.370 . S
C521 C525 1.408 . S
C522 C520 1.363 . S
C522 C523 1.370 . S
C522 C526 1.524 . S
C523 C515 1.503 . S
C523 C522 1.370 . S
C523 C524 1.403 . S
C524 C523 1.403 . S
C524 C525 1.404 . S
C524 C527 1.539 . S
C525 C521 1.408 . S
C525 C524 1.404 . S
C525 H537 0.930 . S
C526 C522 1.524 . S
C526 H538 0.956 . S
C526 H539 0.961 1_556 S
C526 H540 0.961 1_556 S
C527 C524 1.539 . S
C527 H541 0.958 . S
C527 H542 0.961 . S
C527 H543 0.960 . S
H528 C512 0.931 . S
H529 C517 0.929 . S
H530 C518 0.960 . S
H531 C518 0.962 . S
H532 C518 0.960 . S
H533 C519 0.961 . S
H534 C519 0.961 . S
H535 C519 0.961 . S
H536 C520 0.931 1_554 S
H537 C525 0.930 . S
H538 C526 0.956 . S
H539 C526 0.961 1_554 S
H540 C526 0.961 1_554 S
H541 C527 0.958 . S
H542 C527 0.961 . S
H543 C527 0.960 . S
C544 C545 1.391 . S
C544 C546 1.394 . S
C544 H560 0.931 . S
C545 C544 1.391 . S
C545 C549 1.376 . S
C546 C544 1.394 . S
C546 C547 1.369 . S
C546 C550 1.531 . S
C547 C546 1.369 . S
C547 C548 1.410 . S
C547 C555 1.503 . S
C548 C547 1.410 . S
C548 C549 1.392 . S
C548 C551 1.511 1_655 S
C549 C545 1.376 . S
C549 C548 1.392 . S
C549 H561 0.929 1_655 S
C550 C546 1.531 . S
C550 H562 0.960 . S
C550 H563 0.962 . S
C550 H564 0.960 . S
C551 C548 1.511 1_455 S
C551 H565 0.961 . S
C551 H566 0.961 . S
C551 H567 0.961 . S
C552 C553 1.370 . S
C552 C554 1.363 . S
C552 H568 0.931 . S
C553 C552 1.370 . S
C553 C557 1.408 . S
C554 C552 1.363 . S
C554 C555 1.370 . S
C554 C558 1.524 . S
C555 C547 1.503 . S
C555 C554 1.370 . S
C555 C556 1.403 . S
C556 C555 1.403 . S
C556 C557 1.404 . S
C556 C559 1.539 . S
C557 C553 1.408 . S
C557 C556 1.404 . S
C557 H569 0.930 . S
C558 C554 1.524 . S
C558 H570 0.956 . S
C558 H571 0.961 1_655 S
C558 H572 0.961 . S
C559 C556 1.539 . S
C559 H573 0.958 . S
C559 H574 0.961 . S
C559 H575 0.960 . S
H560 C544 0.931 . S
H561 C549 0.929 1_455 S
H562 C550 0.960 . S
H563 C550 0.962 . S
H564 C550 0.960 . S
H565 C551 0.961 . S
H566 C551 0.961 . S
H567 C551 0.961 . S
H568 C552 0.931 . S
H569 C557 0.930 . S
H570 C558 0.956 . S
H571 C558 0.961 1_455 S
H572 C558 0.961 . S
H573 C559 0.958 . S
H574 C559 0.961 . S
H575 C559 0.960 . S
C576 C577 1.391 . S
C576 C578 1.394 . S
C576 H592 0.931 . S
C577 C576 1.391 . S
C577 C581 1.376 . S
C578 C576 1.394 . S
C578 C579 1.369 . S
C578 C582 1.531 . S
C579 C578 1.369 . S
C579 C580 1.410 . S
C579 C587 1.503 . S
C580 C579 1.410 . S
C580 C581 1.392 . S
C580 C583 1.511 . S
C581 C577 1.376 . S
C581 C580 1.392 . S
C581 H593 0.929 . S
C582 C578 1.531 . S
C582 H594 0.960 . S
C582 H595 0.962 . S
C582 H596 0.960 . S
C583 C580 1.511 . S
C583 H597 0.961 . S
C583 H598 0.961 . S
C583 H599 0.961 . S
C584 C585 1.370 . S
C584 C586 1.363 . S
C584 H600 0.931 . S
C585 C584 1.370 . S
C585 C589 1.408 . S
C586 C584 1.363 . S
C586 C587 1.370 . S
C586 C590 1.524 . S
C587 C579 1.503 . S
C587 C586 1.370 . S
C587 C588 1.403 . S
C588 C587 1.403 . S
C588 C589 1.404 . S
C588 C591 1.539 . S
C589 C585 1.408 . S
C589 C588 1.404 . S
C589 H601 0.930 . S
C590 C586 1.524 . S
C590 H602 0.956 . S
C590 H603 0.961 . S
C590 H604 0.961 . S
C591 C588 1.539 . S
C591 H605 0.958 . S
C591 H606 0.961 . S
C591 H607 0.960 . S
H592 C576 0.931 . S
H593 C581 0.929 . S
H594 C582 0.960 . S
H595 C582 0.962 . S
H596 C582 0.960 . S
H597 C583 0.961 . S
H598 C583 0.961 . S
H599 C583 0.961 . S
H600 C584 0.931 . S
H601 C589 0.930 . S
H602 C590 0.956 . S
H603 C590 0.961 . S
H604 C590 0.961 . S
H605 C591 0.958 . S
H606 C591 0.961 . S
H607 C591 0.960 . S
C608 C609 1.391 . S
C608 C610 1.394 . S
C608 H624 0.931 . S
C609 C608 1.391 . S
C609 C613 1.376 . S
C610 C608 1.394 . S
C610 C611 1.369 . S
C610 C614 1.531 . S
C611 C610 1.369 . S
C611 C612 1.410 . S
C611 C619 1.503 . S
C612 C611 1.410 . S
C612 C613 1.392 . S
C612 C615 1.511 1_655 S
C613 C609 1.376 . S
C613 C612 1.392 . S
C613 H625 0.929 . S
C614 C610 1.531 . S
C614 H626 0.960 . S
C614 H627 0.962 . S
C614 H628 0.960 . S
C615 C612 1.511 1_455 S
C615 H629 0.961 . S
C615 H630 0.961 . S
C615 H631 0.961 1_565 S
C616 C617 1.370 . S
C616 C618 1.363 . S
C616 H632 0.931 . S
C617 C616 1.370 . S
C617 C621 1.408 1_565 S
C618 C616 1.363 . S
C618 C619 1.370 . S
C618 C622 1.524 . S
C619 C611 1.503 . S
C619 C618 1.370 . S
C619 C620 1.403 . S
C620 C619 1.403 . S
C620 C621 1.404 1_565 S
C620 C623 1.539 1_565 S
C621 C617 1.408 1_545 S
C621 C620 1.404 1_545 S
C621 H633 0.930 . S
C622 C618 1.524 . S
C622 H634 0.956 . S
C622 H635 0.961 . S
C622 H636 0.961 . S
C623 C620 1.539 1_545 S
C623 H637 0.958 . S
C623 H638 0.961 . S
C623 H639 0.960 . S
H624 C608 0.931 . S
H625 C613 0.929 . S
H626 C614 0.960 . S
H627 C614 0.962 . S
H628 C614 0.960 . S
H629 C615 0.961 . S
H630 C615 0.961 . S
H631 C615 0.961 1_545 S
H632 C616 0.931 . S
H633 C621 0.930 . S
H634 C622 0.956 . S
H635 C622 0.961 . S
H636 C622 0.961 . S
H637 C623 0.958 . S
H638 C623 0.961 . S
H639 C623 0.960 . S
C640 C641 1.391 . S
C640 C642 1.394 . S
C640 H656 0.931 . S
C641 C640 1.391 . S
C641 C645 1.376 . S
C642 C640 1.394 . S
C642 C643 1.369 . S
C642 C646 1.531 . S
C643 C642 1.369 . S
C643 C644 1.410 . S
C643 C651 1.503 . S
C644 C643 1.410 . S
C644 C645 1.392 . S
C644 C647 1.511 . S
C645 C641 1.376 . S
C645 C644 1.392 . S
C645 H657 0.929 . S
C646 C642 1.531 . S
C646 H658 0.960 . S
C646 H659 0.962 . S
C646 H660 0.960 . S
C647 C644 1.511 . S
C647 H661 0.961 . S
C647 H662 0.961 . S
C647 H663 0.961 . S
C648 C649 1.370 . S
C648 C650 1.363 . S
C648 H664 0.931 . S
C649 C648 1.370 . S
C649 C653 1.408 . S
C650 C648 1.363 . S
C650 C651 1.370 . S
C650 C654 1.524 . S
C651 C643 1.503 . S
C651 C650 1.370 . S
C651 C652 1.403 . S
C652 C651 1.403 . S
C652 C653 1.404 . S
C652 C655 1.539 . S
C653 C649 1.408 . S
C653 C652 1.404 . S
C653 H665 0.930 . S
C654 C650 1.524 . S
C654 H666 0.956 . S
C654 H667 0.961 . S
C654 H668 0.961 . S
C655 C652 1.539 . S
C655 H669 0.958 . S
C655 H670 0.961 . S
C655 H671 0.960 . S
H656 C640 0.931 . S
H657 C645 0.929 . S
H658 C646 0.960 . S
H659 C646 0.962 . S
H660 C646 0.960 . S
H661 C647 0.961 . S
H662 C647 0.961 . S
H663 C647 0.961 . S
H664 C648 0.931 . S
H665 C653 0.930 . S
H666 C654 0.956 . S
H667 C654 0.961 . S
H668 C654 0.961 . S
H669 C655 0.958 . S
H670 C655 0.961 . S
H671 C655 0.960 . S
C672 C673 1.391 . S
C672 C674 1.394 . S
C672 H688 0.931 . S
C673 C672 1.391 . S
C673 C677 1.376 . S
C674 C672 1.394 . S
C674 C675 1.369 . S
C674 C678 1.531 . S
C675 C674 1.369 . S
C675 C676 1.410 . S
C675 C683 1.503 . S
C676 C675 1.410 . S
C676 C677 1.392 . S
C676 C679 1.511 . S
C677 C673 1.376 . S
C677 C676 1.392 . S
C677 H689 0.929 . S
C678 C674 1.531 . S
C678 H690 0.960 . S
C678 H691 0.962 . S
C678 H692 0.960 . S
C679 C676 1.511 . S
C679 H693 0.961 . S
C679 H694 0.961 . S
C679 H695 0.961 . S
C680 C681 1.370 . S
C680 C682 1.363 . S
C680 H696 0.931 . S
C681 C680 1.370 . S
C681 C685 1.408 . S
C682 C680 1.363 . S
C682 C683 1.370 . S
C682 C686 1.524 . S
C683 C675 1.503 . S
C683 C682 1.370 . S
C683 C684 1.403 . S
C684 C683 1.403 . S
C684 C685 1.404 . S
C684 C687 1.539 . S
C685 C681 1.408 . S
C685 C684 1.404 . S
C685 H697 0.930 . S
C686 C682 1.524 . S
C686 H698 0.956 . S
C686 H699 0.961 . S
C686 H700 0.961 . S
C687 C684 1.539 . S
C687 H701 0.958 . S
C687 H702 0.961 . S
C687 H703 0.960 . S
H688 C672 0.931 . S
H689 C677 0.929 . S
H690 C678 0.960 . S
H691 C678 0.962 . S
H692 C678 0.960 . S
H693 C679 0.961 . S
H694 C679 0.961 . S
H695 C679 0.961 . S
H696 C680 0.931 . S
H697 C685 0.930 . S
H698 C686 0.956 . S
H699 C686 0.961 . S
H700 C686 0.961 . S
H701 C687 0.958 . S
H702 C687 0.961 . S
H703 C687 0.960 . S
C704 C705 1.391 . S
C704 C706 1.394 . S
C704 H720 0.931 . S
C705 C704 1.391 . S
C705 C709 1.376 . S
C706 C704 1.394 . S
C706 C707 1.369 . S
C706 C710 1.531 . S
C707 C706 1.369 . S
C707 C708 1.410 . S
C707 C715 1.503 . S
C708 C707 1.410 . S
C708 C709 1.392 . S
C708 C711 1.511 . S
C709 C705 1.376 . S
C709 C708 1.392 . S
C709 H721 0.929 . S
C710 C706 1.531 . S
C710 H722 0.960 . S
C710 H723 0.962 . S
C710 H724 0.960 . S
C711 C708 1.511 . S
C711 H725 0.961 . S
C711 H726 0.961 . S
C711 H727 0.961 . S
C712 C713 1.370 . S
C712 C714 1.363 . S
C712 H728 0.931 . S
C713 C712 1.370 . S
C713 C717 1.408 . S
C714 C712 1.363 . S
C714 C715 1.370 . S
C714 C718 1.524 . S
C715 C707 1.503 . S
C715 C714 1.370 . S
C715 C716 1.403 . S
C716 C715 1.403 . S
C716 C717 1.404 . S
C716 C719 1.539 . S
C717 C713 1.408 . S
C717 C716 1.404 . S
C717 H729 0.930 . S
C718 C714 1.524 . S
C718 H730 0.956 . S
C718 H731 0.961 . S
C718 H732 0.961 . S
C719 C716 1.539 . S
C719 H733 0.958 . S
C719 H734 0.961 . S
C719 H735 0.960 . S
H720 C704 0.931 . S
H721 C709 0.929 . S
H722 C710 0.960 . S
H723 C710 0.962 . S
H724 C710 0.960 . S
H725 C711 0.961 . S
H726 C711 0.961 . S
H727 C711 0.961 . S
H728 C712 0.931 . S
H729 C717 0.930 . S
H730 C718 0.956 . S
H731 C718 0.961 . S
H732 C718 0.961 . S
H733 C719 0.958 . S
H734 C719 0.961 . S
H735 C719 0.960 . S
C736 C737 1.391 . S
C736 C738 1.394 . S
C736 H752 0.931 . S
C737 C736 1.391 . S
C737 C741 1.376 . S
C738 C736 1.394 . S
C738 C739 1.369 . S
C738 C742 1.531 . S
C739 C738 1.369 . S
C739 C740 1.410 . S
C739 C747 1.503 . S
C740 C739 1.410 . S
C740 C741 1.392 . S
C740 C743 1.511 1_565 S
C741 C737 1.376 . S
C741 C740 1.392 . S
C741 H753 0.929 . S
C742 C738 1.531 . S
C742 H754 0.960 1_556 S
C742 H755 0.962 . S
C742 H756 0.960 1_556 S
C743 C740 1.511 1_545 S
C743 H757 0.961 . S
C743 H758 0.961 . S
C743 H759 0.961 . S
C744 C745 1.370 . S
C744 C746 1.363 . S
C744 H760 0.931 . S
C745 C744 1.370 . S
C745 C749 1.408 1_556 S
C746 C744 1.363 . S
C746 C747 1.370 . S
C746 C750 1.524 . S
C747 C739 1.503 . S
C747 C746 1.370 . S
C747 C748 1.402 . S
C748 C747 1.402 . S
C748 C749 1.404 1_556 S
C748 C751 1.540 1_556 S
C749 C745 1.408 1_554 S
C749 C748 1.404 1_554 S
C749 H761 0.930 . S
C750 C746 1.524 . S
C750 H762 0.956 . S
C750 H763 0.961 . S
C750 H764 0.961 . S
C751 C748 1.540 1_554 S
C751 H765 0.958 . S
C751 H766 0.961 1_565 S
C751 H767 0.960 . S
H752 C736 0.931 . S
H753 C741 0.929 . S
H754 C742 0.960 1_554 S
H755 C742 0.962 . S
H756 C742 0.960 1_554 S
H757 C743 0.961 . S
H758 C743 0.961 . S
H759 C743 0.961 . S
H760 C744 0.931 . S
H761 C749 0.930 . S
H762 C750 0.956 . S
H763 C750 0.961 . S
H764 C750 0.961 . S
H765 C751 0.958 . S
H766 C751 0.961 1_545 S
H767 C751 0.960 . S
C768 C769 1.391 . S
C768 C770 1.394 . S
C768 H784 0.931 . S
C769 C768 1.391 . S
C769 C773 1.376 . S
C770 C768 1.394 . S
C770 C771 1.369 . S
C770 C774 1.531 . S
C771 C770 1.369 . S
C771 C772 1.410 . S
C771 C779 1.503 . S
C772 C771 1.410 . S
C772 C773 1.392 . S
C772 C775 1.511 . S
C773 C769 1.376 . S
C773 C772 1.392 . S
C773 H785 0.929 . S
C774 C770 1.531 . S
C774 H786 0.960 . S
C774 H787 0.962 . S
C774 H788 0.960 . S
C775 C772 1.511 . S
C775 H789 0.961 . S
C775 H790 0.961 . S
C775 H791 0.961 . S
C776 C777 1.370 . S
C776 C778 1.363 . S
C776 H792 0.931 . S
C777 C776 1.370 . S
C777 C781 1.408 . S
C778 C776 1.363 . S
C778 C779 1.370 . S
C778 C782 1.524 . S
C779 C771 1.503 . S
C779 C778 1.370 . S
C779 C780 1.403 . S
C780 C779 1.403 . S
C780 C781 1.404 . S
C780 C783 1.539 . S
C781 C777 1.408 . S
C781 C780 1.404 . S
C781 H793 0.930 . S
C782 C778 1.524 . S
C782 H794 0.956 . S
C782 H795 0.961 . S
C782 H796 0.961 . S
C783 C780 1.539 . S
C783 H797 0.958 . S
C783 H798 0.961 . S
C783 H799 0.960 . S
H784 C768 0.931 . S
H785 C773 0.929 . S
H786 C774 0.960 . S
H787 C774 0.962 . S
H788 C774 0.960 . S
H789 C775 0.961 . S
H790 C775 0.961 . S
H791 C775 0.961 . S
H792 C776 0.931 . S
H793 C781 0.930 . S
H794 C782 0.956 . S
H795 C782 0.961 . S
H796 C782 0.961 . S
H797 C783 0.958 . S
H798 C783 0.961 . S
H799 C783 0.960 . S
C800 C801 1.391 . S
C800 C802 1.394 . S
C800 H816 0.931 . S
C801 C800 1.391 . S
C801 C805 1.376 . S
C802 C800 1.394 . S
C802 C803 1.369 . S
C802 C806 1.531 . S
C803 C802 1.369 . S
C803 C804 1.410 . S
C803 C811 1.503 . S
C804 C803 1.410 . S
C804 C805 1.392 . S
C804 C807 1.511 . S
C805 C801 1.376 . S
C805 C804 1.392 . S
C805 H817 0.929 . S
C806 C802 1.531 . S
C806 H818 0.960 . S
C806 H819 0.962 . S
C806 H820 0.960 . S
C807 C804 1.511 . S
C807 H821 0.961 . S
C807 H822 0.961 . S
C807 H823 0.961 . S
C808 C809 1.370 . S
C808 C810 1.363 . S
C808 H824 0.931 . S
C809 C808 1.370 . S
C809 C813 1.408 . S
C810 C808 1.363 . S
C810 C811 1.370 . S
C810 C814 1.524 . S
C811 C803 1.503 . S
C811 C810 1.370 . S
C811 C812 1.403 . S
C812 C811 1.403 . S
C812 C813 1.404 . S
C812 C815 1.539 . S
C813 C809 1.408 . S
C813 C812 1.404 . S
C813 H825 0.930 . S
C814 C810 1.524 . S
C814 H826 0.956 . S
C814 H827 0.961 . S
C814 H828 0.961 . S
C815 C812 1.539 . S
C815 H829 0.958 . S
C815 H830 0.961 . S
C815 H831 0.960 . S
H816 C800 0.931 . S
H817 C805 0.929 . S
H818 C806 0.960 . S
H819 C806 0.962 . S
H820 C806 0.960 . S
H821 C807 0.961 . S
H822 C807 0.961 . S
H823 C807 0.961 . S
H824 C808 0.931 . S
H825 C813 0.930 . S
H826 C814 0.956 . S
H827 C814 0.961 . S
H828 C814 0.961 . S
H829 C815 0.958 . S
H830 C815 0.961 . S
H831 C815 0.960 . S
C832 C833 1.391 . S
C832 C834 1.394 . S
C832 H848 0.931 . S
C833 C832 1.391 . S
C833 C837 1.376 . S
C834 C832 1.394 . S
C834 C835 1.369 . S
C834 C838 1.531 . S
C835 C834 1.369 . S
C835 C836 1.410 . S
C835 C843 1.503 . S
C836 C835 1.410 . S
C836 C837 1.392 . S
C836 C839 1.511 . S
C837 C833 1.376 . S
C837 C836 1.392 . S
C837 H849 0.929 . S
C838 C834 1.531 . S
C838 H850 0.960 . S
C838 H851 0.962 . S
C838 H852 0.960 . S
C839 C836 1.511 . S
C839 H853 0.961 . S
C839 H854 0.961 . S
C839 H855 0.961 . S
C840 C841 1.370 . S
C840 C842 1.363 . S
C840 H856 0.931 . S
C841 C840 1.370 . S
C841 C845 1.408 . S
C842 C840 1.363 . S
C842 C843 1.370 . S
C842 C846 1.524 . S
C843 C835 1.503 . S
C843 C842 1.370 . S
C843 C844 1.403 . S
C844 C843 1.403 . S
C844 C845 1.404 . S
C844 C847 1.539 . S
C845 C841 1.408 . S
C845 C844 1.404 . S
C845 H857 0.930 . S
C846 C842 1.524 . S
C846 H858 0.956 . S
C846 H859 0.961 . S
C846 H860 0.961 . S
C847 C844 1.539 . S
C847 H861 0.958 . S
C847 H862 0.961 . S
C847 H863 0.960 . S
H848 C832 0.931 . S
H849 C837 0.929 . S
H850 C838 0.960 . S
H851 C838 0.962 . S
H852 C838 0.960 . S
H853 C839 0.961 . S
H854 C839 0.961 . S
H855 C839 0.961 . S
H856 C840 0.931 . S
H857 C845 0.930 . S
H858 C846 0.956 . S
H859 C846 0.961 . S
H860 C846 0.961 . S
H861 C847 0.958 . S
H862 C847 0.961 . S
H863 C847 0.960 . S
C864 C865 1.391 . S
C864 C866 1.394 . S
C864 H880 0.931 . S
C865 C864 1.391 . S
C865 C869 1.376 . S
C866 C864 1.394 . S
C866 C867 1.369 . S
C866 C870 1.531 . S
C867 C866 1.369 . S
C867 C868 1.410 . S
C867 C875 1.503 . S
C868 C867 1.410 . S
C868 C869 1.392 . S
C868 C871 1.511 1_656 S
C869 C865 1.376 . S
C869 C868 1.392 . S
C869 H881 0.929 . S
C870 C866 1.531 . S
C870 H882 0.960 . S
C870 H883 0.962 . S
C870 H884 0.960 . S
C871 C868 1.511 1_454 S
C871 H885 0.961 . S
C871 H886 0.961 . S
C871 H887 0.961 1_554 S
C872 C873 1.370 1_654 S
C872 C874 1.363 . S
C872 H888 0.931 . S
C873 C872 1.370 1_456 S
C873 C877 1.408 . S
C874 C872 1.363 . S
C874 C875 1.370 1_554 S
C874 C878 1.524 . S
C875 C867 1.503 . S
C875 C874 1.370 1_556 S
C875 C876 1.403 1_655 S
C876 C875 1.403 1_455 S
C876 C877 1.404 . S
C876 C879 1.539 . S
C877 C873 1.408 . S
C877 C876 1.404 . S
C877 H889 0.930 . S
C878 C874 1.524 . S
C878 H890 0.956 . S
C878 H891 0.961 . S
C878 H892 0.961 . S
C879 C876 1.539 . S
C879 H893 0.958 . S
C879 H894 0.961 . S
C879 H895 0.960 . S
H880 C864 0.931 . S
H881 C869 0.929 . S
H882 C870 0.960 . S
H883 C870 0.962 . S
H884 C870 0.960 . S
H885 C871 0.961 . S
H886 C871 0.961 . S
H887 C871 0.961 1_556 S
H888 C872 0.931 . S
H889 C877 0.930 . S
H890 C878 0.956 . S
H891 C878 0.961 . S
H892 C878 0.961 . S
H893 C879 0.958 . S
H894 C879 0.961 . S
H895 C879 0.960 . S
C896 C897 1.391 . S
C896 C898 1.394 . S
C896 H912 0.931 . S
C897 C896 1.391 . S
C897 C901 1.376 . S
C898 C896 1.394 . S
C898 C899 1.369 . S
C898 C902 1.531 . S
C899 C898 1.369 . S
C899 C900 1.410 . S
C899 C907 1.503 . S
C900 C899 1.410 . S
C900 C901 1.392 . S
C900 C903 1.511 . S
C901 C897 1.376 . S
C901 C900 1.392 . S
C901 H913 0.929 . S
C902 C898 1.531 . S
C902 H914 0.960 . S
C902 H915 0.962 . S
C902 H916 0.985 . S
C903 C900 1.511 . S
C903 H917 0.961 . S
C903 H918 0.961 . S
C903 H919 0.961 . S
C904 C905 1.370 . S
C904 C906 1.363 . S
C904 H920 0.931 . S
C905 C904 1.370 . S
C905 C909 1.408 . S
C906 C904 1.363 . S
C906 C907 1.370 . S
C906 C910 1.524 . S
C907 C899 1.503 . S
C907 C906 1.370 . S
C907 C908 1.403 . S
C908 C907 1.403 . S
C908 C909 1.404 . S
C908 C911 1.539 . S
C909 C905 1.408 . S
C909 C908 1.404 . S
C909 H921 0.930 . S
C910 C906 1.524 . S
C910 H922 0.956 . S
C910 H923 0.961 . S
C910 H924 0.961 . S
C911 C908 1.539 . S
C911 H925 0.958 . S
C911 H926 0.961 . S
C911 H927 0.960 . S
H912 C896 0.931 . S
H913 C901 0.929 . S
H914 C902 0.960 . S
H915 C902 0.962 . S
H916 C902 0.985 . S
H917 C903 0.961 . S
H918 C903 0.961 . S
H919 C903 0.961 . S
H920 C904 0.931 . S
H921 C909 0.930 . S
H922 C910 0.956 . S
H923 C910 0.961 . S
H924 C910 0.961 . S
H925 C911 0.958 . S
H926 C911 0.961 . S
H927 C911 0.960 . S
C928 C929 1.391 . S
C928 C930 1.394 . S
C928 H944 0.931 . S
C929 C928 1.391 . S
C929 C933 1.376 . S
C930 C928 1.394 . S
C930 C931 1.369 . S
C930 C934 1.540 . S
C931 C930 1.369 . S
C931 C932 1.410 . S
C931 C939 1.503 . S
C932 C931 1.410 . S
C932 C933 1.392 . S
C932 C935 1.511 . S
C933 C929 1.376 . S
C933 C932 1.392 . S
C933 H945 0.929 . S
C934 C930 1.540 . S
C934 H946 0.962 . S
C934 H947 0.957 1_455 S
C934 H948 0.954 1_455 S
C935 C932 1.511 . S
C935 H949 0.961 . S
C935 H950 0.961 . S
C935 H951 0.961 . S
C936 C937 1.370 . S
C936 C938 1.363 . S
C936 H952 0.931 . S
C937 C936 1.370 . S
C937 C941 1.408 . S
C938 C936 1.363 . S
C938 C939 1.370 . S
C938 C942 1.524 . S
C939 C931 1.503 . S
C939 C938 1.370 . S
C939 C940 1.403 . S
C940 C939 1.403 . S
C940 C941 1.404 . S
C940 C943 1.539 . S
C941 C937 1.408 . S
C941 C940 1.404 . S
C941 H953 0.930 . S
C942 C938 1.524 . S
C942 H954 0.956 . S
C942 H955 0.961 . S
C942 H956 0.961 . S
C943 C940 1.539 . S
C943 H957 0.958 . S
C943 H958 0.961 . S
C943 H959 0.960 . S
H944 C928 0.931 . S
H945 C933 0.929 . S
H946 C934 0.962 . S
H947 C934 0.957 1_655 S
H948 C934 0.954 1_655 S
H949 C935 0.961 . S
H950 C935 0.961 . S
H951 C935 0.961 . S
H952 C936 0.931 . S
H953 C941 0.930 . S
H954 C942 0.956 . S
H955 C942 0.961 . S
H956 C942 0.961 . S
H957 C943 0.958 . S
H958 C943 0.961 . S
H959 C943 0.960 . S
C960 C961 1.391 . S
C960 C962 1.394 . S
C960 H976 0.931 . S
C961 C960 1.391 . S
C961 C965 1.376 . S
C962 C960 1.394 . S
C962 C963 1.369 . S
C962 C966 1.531 . S
C963 C962 1.369 . S
C963 C964 1.410 . S
C963 C971 1.503 . S
C964 C963 1.410 . S
C964 C965 1.392 . S
C964 C967 1.511 . S
C965 C961 1.376 . S
C965 C964 1.392 . S
C965 H977 0.929 . S
C966 C962 1.531 . S
C966 H978 0.960 . S
C966 H979 0.962 . S
C966 H980 0.960 . S
C967 C964 1.511 . S
C967 H981 0.961 . S
C967 H982 0.961 . S
C967 H983 0.961 . S
C968 C969 1.370 . S
C968 C970 1.363 . S
C968 H984 0.931 . S
C969 C968 1.370 . S
C969 C973 1.408 . S
C970 C968 1.363 . S
C970 C971 1.370 . S
C970 C974 1.524 . S
C971 C963 1.503 . S
C971 C970 1.370 . S
C971 C972 1.403 . S
C972 C971 1.403 . S
C972 C973 1.404 . S
C972 C975 1.539 . S
C973 C969 1.408 . S
C973 C972 1.404 . S
C973 H985 0.930 . S
C974 C970 1.524 . S
C974 H986 0.956 . S
C974 H987 0.961 . S
C974 H988 0.961 . S
C975 C972 1.539 . S
C975 H989 0.958 . S
C975 H990 0.961 . S
C975 H991 0.960 . S
H976 C960 0.931 . S
H977 C965 0.929 . S
H978 C966 0.960 . S
H979 C966 0.962 . S
H980 C966 0.960 . S
H981 C967 0.961 . S
H982 C967 0.961 . S
H983 C967 0.961 . S
H984 C968 0.931 . S
H985 C973 0.930 . S
H986 C974 0.956 . S
H987 C974 0.961 . S
H988 C974 0.961 . S
H989 C975 0.958 . S
H990 C975 0.961 . S
H991 C975 0.960 . S
C225 C9 2.523 . S
C233 C120 2.537 . S
C257 C21 1.085 . S
C265 N140 1.060 . S
C297 C174 1.675 . S
C289 C30 1.622 . S
C321 C43 1.004 . S
C329 N208 1.062 . S
C361 C161 2.225 . S
C353 C4 2.187 . S
C393 N118 1.569 . S
C385 C22 1.573 . S
C425 C195 1.650 1_556 S
C417 C34 1.639 . S
C457 N170 0.876 . S
C449 C48 0.854 . S
C481 C8 1.858 . S
C489 C210 1.863 . S
C521 C144 1.759 . S
C513 C35 1.729 . S
C545 C47 1.473 . S
C553 C105 1.475 . S
C577 C17 1.198 . S
C585 C191 1.206 . S
C617 C131 2.164 . S
C609 C60 2.150 . S
C641 C74 1.356 . S
C649 N148 1.340 . S
C673 C82 1.449 . S
C681 C165 1.465 . S
C705 C100 1.535 . S
C713 N200 1.452 . S
C737 C61 2.603 . S
C745 C150 2.619 . S
C777 N110 1.171 . S
C769 C73 1.201 . S
C809 C204 2.033 . S
C801 C87 2.014 . S
C841 N178 0.695 . S
C833 C95 0.736 . S
C865 C56 1.823 . S
C873 C221 1.894 1_556 S
C905 C135 1.769 . S
C897 C86 1.751 . S
C937 C114 1.420 . S
C929 C99 1.398 . S
C961 C69 1.284 . S
C969 C180 1.329 . S
