# Generated by pormake.
# Topology llk, (3,12)-cn, num edge types: 1
# Building blocks:
#     Node 0, Type 0, BuildingBlock: ESEHIV_clean_linker_0, # of connection points: 3
#     Node 1, Type 0, BuildingBlock: ESEHIV_clean_linker_0, # of connection points: 3
#     Node 2, Type 0, BuildingBlock: ESEHIV_clean_linker_0, # of connection points: 3
#     Node 3, Type 0, BuildingBlock: ESEHIV_clean_linker_0, # of connection points: 3
#     Node 4, Type 0, BuildingBlock: ESEHIV_clean_linker_0, # of connection points: 3
#     Node 5, Type 0, BuildingBlock: ESEHIV_clean_linker_0, # of connection points: 3
#     Node 6, Type 0, BuildingBlock: ESEHIV_clean_linker_0, # of connection points: 3
#     Node 7, Type 0, BuildingBlock: ESEHIV_clean_linker_0, # of connection points: 3
#     Node 8, Type 0, BuildingBlock: ESEHIV_clean_linker_0, # of connection points: 3
#     Node 9, Type 0, BuildingBlock: ESEHIV_clean_linker_0, # of connection points: 3
#     Node 10, Type 0, BuildingBlock: ESEHIV_clean_linker_0, # of connection points: 3
#     Node 11, Type 0, BuildingBlock: ESEHIV_clean_linker_0, # of connection points: 3
#     Node 12, Type 0, BuildingBlock: ESEHIV_clean_linker_0, # of connection points: 3
#     Node 13, Type 0, BuildingBlock: ESEHIV_clean_linker_0, # of connection points: 3
#     Node 14, Type 0, BuildingBlock: ESEHIV_clean_linker_0, # of connection points: 3
#     Node 15, Type 0, BuildingBlock: ESEHIV_clean_linker_0, # of connection points: 3
#     Node 16, Type 0, BuildingBlock: ESEHIV_clean_linker_0, # of connection points: 3
#     Node 17, Type 0, BuildingBlock: ESEHIV_clean_linker_0, # of connection points: 3
#     Node 18, Type 0, BuildingBlock: ESEHIV_clean_linker_0, # of connection points: 3
#     Node 19, Type 0, BuildingBlock: ESEHIV_clean_linker_0, # of connection points: 3
#     Node 20, Type 0, BuildingBlock: ESEHIV_clean_linker_0, # of connection points: 3
#     Node 21, Type 0, BuildingBlock: ESEHIV_clean_linker_0, # of connection points: 3
#     Node 22, Type 0, BuildingBlock: ESEHIV_clean_linker_0, # of connection points: 3
#     Node 23, Type 0, BuildingBlock: ESEHIV_clean_linker_0, # of connection points: 3
#     Node 24, Type 1, BuildingBlock: EZIPEK_clean_sbu_0, # of connection points: 12
#     Node 25, Type 1, BuildingBlock: EZIPEK_clean_sbu_0, # of connection points: 12
#     Node 26, Type 1, BuildingBlock: EZIPEK_clean_sbu_0, # of connection points: 12
#     Node 27, Type 1, BuildingBlock: EZIPEK_clean_sbu_0, # of connection points: 12
#     Node 28, Type 1, BuildingBlock: EZIPEK_clean_sbu_0, # of connection points: 12
#     Node 29, Type 1, BuildingBlock: EZIPEK_clean_sbu_0, # of connection points: 12
#     Edge 30, Type (0, 1), None
#     Edge 31, Type (0, 1), None
#     Edge 32, Type (0, 1), None
#     Edge 33, Type (0, 1), None
#     Edge 34, Type (0, 1), None
#     Edge 35, Type (0, 1), None
#     Edge 36, Type (0, 1), None
#     Edge 37, Type (0, 1), None
#     Edge 38, Type (0, 1), None
#     Edge 39, Type (0, 1), None
#     Edge 40, Type (0, 1), None
#     Edge 41, Type (0, 1), None
#     Edge 42, Type (0, 1), None
#     Edge 43, Type (0, 1), None
#     Edge 44, Type (0, 1), None
#     Edge 45, Type (0, 1), None
#     Edge 46, Type (0, 1), None
#     Edge 47, Type (0, 1), None
#     Edge 48, Type (0, 1), None
#     Edge 49, Type (0, 1), None
#     Edge 50, Type (0, 1), None
#     Edge 51, Type (0, 1), None
#     Edge 52, Type (0, 1), None
#     Edge 53, Type (0, 1), None
#     Edge 54, Type (0, 1), None
#     Edge 55, Type (0, 1), None
#     Edge 56, Type (0, 1), None
#     Edge 57, Type (0, 1), None
#     Edge 58, Type (0, 1), None
#     Edge 59, Type (0, 1), None
#     Edge 60, Type (0, 1), None
#     Edge 61, Type (0, 1), None
#     Edge 62, Type (0, 1), None
#     Edge 63, Type (0, 1), None
#     Edge 64, Type (0, 1), None
#     Edge 65, Type (0, 1), None
#     Edge 66, Type (0, 1), None
#     Edge 67, Type (0, 1), None
#     Edge 68, Type (0, 1), None
#     Edge 69, Type (0, 1), None
#     Edge 70, Type (0, 1), None
#     Edge 71, Type (0, 1), None
#     Edge 72, Type (0, 1), None
#     Edge 73, Type (0, 1), None
#     Edge 74, Type (0, 1), None
#     Edge 75, Type (0, 1), None
#     Edge 76, Type (0, 1), None
#     Edge 77, Type (0, 1), None
#     Edge 78, Type (0, 1), None
#     Edge 79, Type (0, 1), None
#     Edge 80, Type (0, 1), None
#     Edge 81, Type (0, 1), None
#     Edge 82, Type (0, 1), None
#     Edge 83, Type (0, 1), None
#     Edge 84, Type (0, 1), None
#     Edge 85, Type (0, 1), None
#     Edge 86, Type (0, 1), None
#     Edge 87, Type (0, 1), None
#     Edge 88, Type (0, 1), None
#     Edge 89, Type (0, 1), None
#     Edge 90, Type (0, 1), None
#     Edge 91, Type (0, 1), None
#     Edge 92, Type (0, 1), None
#     Edge 93, Type (0, 1), None
#     Edge 94, Type (0, 1), None
#     Edge 95, Type (0, 1), None
#     Edge 96, Type (0, 1), None
#     Edge 97, Type (0, 1), None
#     Edge 98, Type (0, 1), None
#     Edge 99, Type (0, 1), None
#     Edge 100, Type (0, 1), None
#     Edge 101, Type (0, 1), None
# Relax obj value: 0.107
# Max RMSD: 0.160
# Mean RMSD: 0.134
data_MOF--net-llk--node1-EZIPEK_clean_sbu_0--node2-ESEHIV_clean_linker_0--edge1-none
_symmetry_space_group_name_H-M    P1
_symmetry_Int_Tables_number       1
_symmetry_cell_setting            triclinic
loop_
_symmetry_equiv_pos_as_xyz
'x, y, z'
_cell_length_a     20.702409
_cell_length_b     20.623617
_cell_length_c     20.646613
_cell_angle_alpha  89.616323
_cell_angle_beta   90.520575
_cell_angle_gamma 90.365937
loop_
_atom_site_label
_atom_site_type_symbol
_atom_site_fract_x
_atom_site_fract_y
_atom_site_fract_z
_atom_type_partial_charge
H0 H 0.08423 0.25673 0.37362 0.0
H1 H 0.95641 0.38011 0.27138 0.0
H2 H 0.99766 0.19293 0.19531 0.0
C3 C 0.05356 0.26535 0.33196 0.0
C4 C 0.02944 0.2132 0.29577 0.0
C5 C 0.02165 0.3236 0.32703 0.0
C6 C 0.98196 0.33474 0.27439 0.0
C7 C 0.98955 0.29679 0.21956 0.0
C8 C 1.00478 0.22954 0.23201 0.0
H9 H 0.64922 0.10456 0.22984 0.0
H10 H 0.80395 0.10569 0.35862 0.0
H11 H 0.78035 0.94158 0.23051 0.0
C12 C 0.69349 0.08113 0.24575 0.0
C13 C 0.71279 0.02318 0.21646 0.0
C14 C 0.71656 0.09484 0.30775 0.0
C15 C 0.78021 0.08116 0.31894 0.0
C16 C 0.80095 0.02023 0.30011 0.0
C17 C 0.767 0.98952 0.24639 0.0
H18 H 0.11557 0.7953 0.36361 0.0
H19 H 0.11554 0.64703 0.23063 0.0
H20 H 0.95025 0.77511 0.23374 0.0
C21 C 0.09035 0.77291 0.32302 0.0
C22 C 0.02881 0.79379 0.30564 0.0
C23 C 0.10252 0.70886 0.3113 0.0
C24 C 0.08977 0.68847 0.24839 0.0
C25 C 0.0317 0.70733 0.21857 0.0
C26 C 0.99805 0.76117 0.24994 0.0
H27 H 0.24805 0.08086 0.39295 0.0
H28 H 0.38169 0.09349 0.2433 0.0
H29 H 0.21988 0.96028 0.22494 0.0
C30 C 0.26116 0.06577 0.34527 0.0
C31 C 0.22238 0.021 0.31236 0.0
C32 C 0.32304 0.0798 0.3249 0.0
C33 C 0.33674 0.0731 0.2606 0.0
C34 C 0.30453 0.02582 0.2247 0.0
C35 C 0.24517 0.99865 0.25033 0.0
H36 H 0.1124 0.82018 0.6744 0.0
H37 H 0.11609 0.66852 0.80377 0.0
H38 H 0.93774 0.77639 0.78034 0.0
C39 C 0.08587 0.79313 0.71029 0.0
C40 C 0.02252 0.8104 0.72471 0.0
C41 C 0.10263 0.72957 0.72185 0.0
C42 C 0.08828 0.70853 0.78373 0.0
C43 C 0.02394 0.71651 0.80181 0.0
C44 C 0.9885 0.76927 0.77085 0.0
H45 H 0.2724 0.08141 0.64615 0.0
H46 H 0.36021 0.9374 0.76439 0.0
H47 H 0.18358 0.02277 0.82301 0.0
C48 C 0.27137 0.05138 0.68958 0.0
C49 C 0.21393 0.03918 0.72142 0.0
C50 C 0.3237 1.0125 0.70505 0.0
C51 C 0.3203 0.9696 0.75566 0.0
C52 C 0.28437 0.99133 0.80675 0.0
C53 C 0.22223 0.01872 0.78841 0.0
H54 H 0.11709 0.36561 0.80062 0.0
H55 H 0.1159 0.24884 0.63858 0.0
H56 H 0.96177 0.22706 0.77751 0.0
C57 C 0.09446 0.32613 0.77531 0.0
C58 C 0.03714 0.29953 0.79829 0.0
C59 C 0.10399 0.32166 0.71016 0.0
C60 C 0.09422 0.26002 0.68485 0.0
C61 C 0.03891 0.22621 0.70504 0.0
C62 C 1.00764 0.2476 0.76279 0.0
H63 H 0.65801 0.91332 0.79307 0.0
H64 H 0.8092 0.92079 0.6711 0.0
H65 H 0.76927 0.09337 0.78128 0.0
C66 C 0.69787 0.94267 0.77519 0.0
C67 C 0.70874 1.00522 0.79932 0.0
C68 C 0.71749 0.93349 0.71225 0.0
C69 C 0.78153 0.94833 0.70439 0.0
C70 C 0.79856 1.01202 0.71771 0.0
C71 C 0.7606 0.0433 0.76836 0.0
H72 H 0.25451 0.38347 0.08318 0.0
H73 H 0.39219 0.27568 0.98249 0.0
H74 H 0.20165 0.19848 1.00264 0.0
C75 C 0.26687 0.33944 0.0587 0.0
C76 C 0.21863 0.30005 0.03266 0.0
C77 C 0.32793 0.33317 0.03512 0.0
C78 C 0.3445 0.27822 1.00282 0.0
C79 C 0.30544 0.22364 1.0065 0.0
C80 C 0.23726 0.23562 1.01323 0.0
H81 H 0.35468 0.80313 0.10946 0.0
H82 H 0.23958 0.63905 0.10174 0.0
H83 H 0.21859 0.78443 0.95076 0.0
C84 C 0.31599 0.77826 0.08503 0.0
C85 C 0.29167 0.80266 0.02708 0.0
C86 C 0.31159 0.71286 0.09301 0.0
C87 C 0.25048 0.68647 0.08127 0.0
C88 C 0.21514 0.70945 0.02749 0.0
C89 C 0.23856 0.76818 0.99664 0.0
H90 H 0.65566 0.25841 0.08314 0.0
H91 H 0.74992 0.37019 0.94004 0.0
H92 H 0.81937 0.1821 0.98633 0.0
C93 C 0.69476 0.26346 0.04931 0.0
C94 C 0.72203 0.20912 0.02193 0.0
C95 C 0.70754 0.3231 0.02054 0.0
C96 C 0.74754 0.32592 0.96822 0.0
C97 C 0.80101 0.28775 0.97561 0.0
C98 C 0.78573 0.22107 0.99442 0.0
H99 H 0.67663 0.81704 0.11293 0.0
H100 H 0.81836 0.68073 0.11572 0.0
H101 H 0.75941 0.76003 0.92865 0.0
C102 C 0.7106 0.79001 0.08396 0.0
C103 C 0.71151 0.79852 1.01653 0.0
C104 C 0.728 0.729 0.10535 0.0
C105 C 0.78922 0.71167 0.08491 0.0
C106 C 0.79869 0.71263 1.01777 0.0
C107 C 0.7572 0.75771 0.98094 0.0
H108 H 0.41618 0.73417 0.86132 0.0
H109 H 0.41911 0.86886 0.71327 0.0
H110 H 0.59613 0.76667 0.75912 0.0
C111 C 0.44422 0.75655 0.82286 0.0
C112 C 0.50961 0.74138 0.81683 0.0
C113 C 0.42805 0.81859 0.80345 0.0
C114 C 0.44614 0.83304 0.74051 0.0
C115 C 0.51031 0.8207 0.72419 0.0
C116 C 0.54495 0.77459 0.76534 0.0
H117 H 0.17734 0.43343 0.73276 0.0
H118 H 0.29623 0.44055 0.89468 0.0
H119 H 0.31804 0.58847 0.74634 0.0
C120 C 0.21723 0.45704 0.75643 0.0
C121 C 0.24329 0.51347 0.73025 0.0
C122 C 0.22351 0.44878 0.8216 0.0
C123 C 0.28477 0.46073 0.84726 0.0
C124 C 0.32045 0.51353 0.82307 0.0
C125 C 0.29726 0.54341 0.76374 0.0
H126 H 0.43584 0.16953 0.74022 0.0
H127 H 0.43368 0.30165 0.89129 0.0
H128 H 0.58637 0.31708 0.75028 0.0
C129 C 0.45768 0.21263 0.76146 0.0
C130 C 0.51492 0.23751 0.73669 0.0
C131 C 0.44555 0.2245 0.82531 0.0
C132 C 0.45667 0.28717 0.84719 0.0
C133 C 0.50934 0.32301 0.82386 0.0
C134 C 0.54177 0.29581 0.7675 0.0
H135 H 0.71738 0.42658 0.85591 0.0
H136 H 0.86091 0.42445 0.72089 0.0
H137 H 0.77642 0.61039 0.77029 0.0
C138 C 0.74664 0.45583 0.82376 0.0
C139 C 0.73737 0.52291 0.82041 0.0
C140 C 0.80758 0.43415 0.8073 0.0
C141 C 0.82626 0.45412 0.74625 0.0
C142 C 0.82486 0.52125 0.73537 0.0
C143 C 0.7789 0.55816 0.77451 0.0
H144 H 0.57552 0.26517 0.14937 0.0
H145 H 0.45041 0.1675 0.27836 0.0
H146 H 0.54232 0.34543 0.33588 0.0
C147 C 0.55136 0.26349 0.1954 0.0
C148 C 0.54609 0.31916 0.23254 0.0
C149 C 0.51309 0.2105 0.20989 0.0
C150 C 0.48109 0.20867 0.26787 0.0
C151 C 0.50751 0.24555 0.3182 0.0
C152 C 0.53294 0.30833 0.30015 0.0
H153 H 0.79233 0.58756 0.16131 0.0
H154 H 0.87491 0.44498 0.28325 0.0
H155 H 0.7162 0.55815 0.34884 0.0
C156 C 0.79116 0.56088 0.20661 0.0
C157 C 0.73672 0.56021 0.24343 0.0
C158 C 0.8274 0.5059 0.21363 0.0
C159 C 0.83724 0.48008 0.27499 0.0
C160 C 0.81106 0.51348 0.3264 0.0
C161 C 0.7496 0.54479 0.3113 0.0
H162 H 0.4173 0.89634 0.28896 0.0
H163 H 0.41663 0.7324 0.17564 0.0
H164 H 0.57875 0.76457 0.3048 0.0
C165 C 0.44038 0.85077 0.27741 0.0
C166 C 0.49804 0.83343 0.30912 0.0
C167 C 0.43001 0.82459 0.2162 0.0
C168 C 0.44074 0.75938 0.21321 0.0
C169 C 0.50066 0.73928 0.23642 0.0
C170 C 0.53118 0.77687 0.28653 0.0
H171 H 0.14297 0.54757 0.25527 0.0
H172 H 0.28722 0.44831 0.15476 0.0
H173 H 0.33401 0.54537 0.33337 0.0
C174 C 0.19151 0.52855 0.25504 0.0
C175 C 0.23056 0.53217 0.30938 0.0
C176 C 0.21003 0.49268 0.20317 0.0
C177 C 0.27305 0.47429 0.1973 0.0
C178 C 0.31922 0.50667 0.23441 0.0
C179 C 0.29919 0.52926 0.29747 0.0
H180 H 0.72492 0.86399 0.6119 0.0
H181 H 0.87205 0.73668 0.61833 0.0
H182 H 0.76651 0.76051 0.43581 0.0
C183 C 0.75251 0.83117 0.58372 0.0
C184 C 0.73618 0.82053 0.51929 0.0
C185 C 0.81597 0.82022 0.60016 0.0
C186 C 0.83359 0.75722 0.58864 0.0
C187 C 0.82407 0.73689 0.52465 0.0
C188 C 0.77407 0.77083 0.48662 0.0
H189 H 0.8962 0.30144 0.42993 0.0
H190 H 0.73911 0.17574 0.42699 0.0
H191 H 0.75836 0.31032 0.58607 0.0
C192 C 0.85069 0.28727 0.45176 0.0
C193 C 0.82896 0.31967 0.50716 0.0
C194 C 0.82684 0.22515 0.43913 0.0
C195 C 0.76276 0.21591 0.45073 0.0
C196 C 0.74086 0.23739 0.51014 0.0
C197 C 0.77351 0.29208 0.53963 0.0
H198 H 0.17008 0.74878 0.61161 0.0
H199 H 0.29084 0.90783 0.60194 0.0
H200 H 0.32048 0.74974 0.46829 0.0
C201 C 0.21183 0.76994 0.58981 0.0
C202 C 0.24051 0.73963 0.53777 0.0
C203 C 0.21834 0.83541 0.59345 0.0
C204 C 0.2803 0.85957 0.5843 0.0
C205 C 0.31899 0.83166 0.53668 0.0
C206 C 0.29698 0.77046 0.50985 0.0
H207 H 0.15165 0.2885 0.44978 0.0
H208 H 0.28756 0.14182 0.47082 0.0
H209 H 0.32568 0.3257 0.56251 0.0
C210 C 0.1984 0.27431 0.46849 0.0
C211 C 0.23435 0.31667 0.50721 0.0
C212 C 0.21334 0.20979 0.46715 0.0
C213 C 0.27581 0.1914 0.47986 0.0
C214 C 0.31868 0.2307 0.51454 0.0
C215 C 0.29702 0.29524 0.53075 0.0
C216 C 0.9971 0.85922 0.67667 0.0
C217 C 1.00424 0.84455 0.35258 0.0
C218 C 1.01536 0.17496 0.66046 0.0
C219 C 1.01518 0.15546 0.33922 0.0
C220 C 0.86787 0.1714 0.46238 0.0
C221 C 0.86057 0.86732 0.56847 0.0
C222 C 0.16184 0.1618 0.47608 0.0
C223 C 0.16541 0.87397 0.56461 0.0
C224 C 0.16588 0.99769 0.35294 0.0
C225 C 0.85105 0.99422 0.3463 0.0
C226 C 0.15677 0.03292 0.67501 0.0
C227 C 0.84894 0.036 0.67014 0.0
Eu228 Eu 1.00839 0.8889 0.51606 0.0
O229 O 0.94821 0.94965 0.45378 0.0
O230 O 0.06032 0.95941 0.57143 0.0
Eu231 Eu 0.88454 1.01447 0.5076 0.0
Eu232 Eu 0.12574 1.01185 0.5112 0.0
O233 O 0.9542 0.96279 0.56422 0.0
O234 O 0.06669 0.94731 0.4526 0.0
Eu235 Eu 1.00414 0.01875 0.63587 0.0
Eu236 Eu 1.00779 1.00104 0.38231 0.0
O237 O 0.94762 0.07489 0.56549 0.0
O238 O 0.95395 0.06206 0.44763 0.0
O239 O 0.06264 0.06219 0.44773 0.0
O240 O 0.06451 0.07203 0.56778 0.0
Eu241 Eu 1.0098 0.13032 0.50242 0.0
O242 O 0.99886 0.83816 0.61503 0.0
O243 O 1.00751 0.83 0.41735 0.0
O244 O 1.01637 0.18935 0.59667 0.0
O245 O 1.00889 0.17298 0.40134 0.0
O246 O 0.84234 0.11178 0.47181 0.0
O247 O 0.83743 0.9257 0.55192 0.0
O248 O 0.18044 0.10133 0.48671 0.0
O249 O 0.18368 0.93248 0.54694 0.0
O250 O 0.10573 1.00425 0.32958 0.0
O251 O 0.91196 1.00209 0.32699 0.0
O252 O 0.09714 0.02285 0.69657 0.0
O253 O 0.90945 0.02669 0.69046 0.0
O254 O 0.10235 0.18364 0.48439 0.0
O255 O 0.926 0.18972 0.48133 0.0
O256 O 0.10701 0.84725 0.55142 0.0
O257 O 0.91702 0.84346 0.54976 0.0
O258 O 1.00357 0.90484 0.32943 0.0
O259 O 1.01539 0.09395 0.31913 0.0
O260 O 1.0003 0.92197 0.69377 0.0
O261 O 1.0093 0.11583 0.68546 0.0
O262 O 0.83129 0.03599 0.60624 0.0
O263 O 0.83266 0.99144 0.40931 0.0
O264 O 0.17229 0.03337 0.61129 0.0
O265 O 0.18004 0.99015 0.41658 0.0
C266 C 0.46173 0.86213 0.16373 0.0
C267 C 0.5074 0.15923 0.16329 0.0
C268 C 0.45072 0.86668 0.85196 0.0
C269 C 0.46499 0.17138 0.86894 0.0
C270 C 0.65954 0.02346 0.84959 0.0
C271 C 0.66583 0.99978 0.16459 0.0
C272 C 0.3301 1.0078 0.86205 0.0
C273 C 0.34495 1.00402 0.16894 0.0
C274 C 0.34496 0.1626 1.0089 0.0
C275 C 0.67294 0.15435 1.01261 0.0
C276 C 0.33566 0.85345 1.00067 0.0
C277 C 0.65974 0.84547 0.99334 0.0
Eu278 Eu 0.50529 1.00411 0.1291 0.0
O279 O 0.56502 0.05919 0.06538 0.0
O280 O 0.44359 0.95088 0.06426 0.0
Eu281 Eu 0.62751 1.00233 1.0053 0.0
Eu282 Eu 0.374 1.00938 1.01269 0.0
O283 O 0.56097 0.94451 0.06394 0.0
O284 O 0.445 0.06405 0.06924 0.0
Eu285 Eu 0.49696 0.8846 1.00598 0.0
Eu286 Eu 0.50688 0.12544 1.01181 0.0
O287 O 0.55529 0.94978 0.9471 0.0
O288 O 0.56209 0.06489 0.94998 0.0
O289 O 0.4429 0.06558 0.95677 0.0
O290 O 0.44283 0.95744 0.95533 0.0
Eu291 Eu 0.49646 1.01408 0.8869 0.0
O292 O 0.49131 0.91523 0.18356 0.0
O293 O 0.50522 0.09812 0.18429 0.0
O294 O 0.46877 0.92521 0.83073 0.0
O295 O 0.47037 0.112 0.84387 0.0
O296 O 0.68072 1.01781 0.91047 0.0
O297 O 0.685 1.00036 0.10255 0.0
O298 O 0.31093 1.00212 0.92276 0.0
O299 O 0.32136 1.01092 0.1092 0.0
O300 O 0.40865 0.17353 1.01788 0.0
O301 O 0.60989 0.17284 1.01027 0.0
O302 O 0.39761 0.83397 0.99522 0.0
O303 O 0.59649 0.828 1.00156 0.0
O304 O 0.39267 1.0168 0.84443 0.0
O305 O 0.59591 0.02021 0.83183 0.0
O306 O 0.40848 0.99886 0.18329 0.0
O307 O 0.60344 0.99935 0.18278 0.0
O308 O 0.50968 0.1792 0.10258 0.0
O309 O 0.48539 0.18833 0.92741 0.0
O310 O 0.46517 0.83878 0.10317 0.0
O311 O 0.46213 0.84339 0.91152 0.0
O312 O 0.68016 0.90686 0.99165 0.0
O313 O 0.69174 0.0928 1.01162 0.0
O314 O 0.31784 0.91426 1.01154 0.0
O315 O 0.31885 0.10405 1.00415 0.0
C316 C 0.99579 0.33818 0.159 0.0
C317 C 1.00808 0.34045 0.8481 0.0
C318 C 1.01016 0.66067 0.16408 0.0
C319 C 1.00092 0.66515 0.84813 0.0
C320 C 0.84778 0.66226 0.99587 0.0
C321 C 0.85851 0.33192 0.99069 0.0
C322 C 0.16269 0.6638 1.00449 0.0
C323 C 0.16066 0.33955 1.01437 0.0
C324 C 0.16869 0.47044 0.86124 0.0
C325 C 0.85694 0.4528 0.85641 0.0
C326 C 0.16424 0.48608 0.15194 0.0
C327 C 0.86765 0.49026 0.16218 0.0
Eu328 Eu 1.00852 0.37134 1.00481 0.0
O329 O 0.95669 0.44482 0.95147 0.0
O330 O 0.06656 0.43973 0.05972 0.0
Eu331 Eu 0.88747 0.4986 1.00396 0.0
Eu332 Eu 0.12634 0.50241 1.00302 0.0
O333 O 0.95217 0.43956 0.06004 0.0
O334 O 0.06342 0.44135 0.94762 0.0
Eu335 Eu 1.01143 0.49955 0.12113 0.0
Eu336 Eu 1.00904 0.50026 0.88136 0.0
O337 O 0.951 0.55874 0.06021 0.0
O338 O 0.94987 0.55861 0.94481 0.0
O339 O 0.06377 0.56262 0.94484 0.0
O340 O 0.06505 0.56224 0.05954 0.0
Eu341 Eu 1.00524 0.62796 1.0034 0.0
O342 O 0.99545 0.31386 0.0995 0.0
O343 O 1.01599 0.31985 0.90878 0.0
O344 O 1.00593 0.68273 0.10257 0.0
O345 O 1.00011 0.68447 0.90942 0.0
O346 O 0.8303 0.59828 0.9974 0.0
O347 O 0.84334 0.39493 1.00263 0.0
O348 O 0.18003 0.60092 1.00172 0.0
O349 O 0.17439 0.40279 1.00382 0.0
O350 O 0.10871 0.47738 0.83603 0.0
O351 O 0.91596 0.46747 0.83451 0.0
O352 O 0.1037 0.48172 0.1711 0.0
O353 O 0.9282 0.49107 0.18013 0.0
O354 O 0.10151 0.6845 1.00537 0.0
O355 O 0.90919 0.68242 0.99979 0.0
O356 O 0.10149 0.31533 0.01851 0.0
O357 O 0.91845 0.31063 0.98741 0.0
O358 O 1.0013 0.40277 0.82937 0.0
O359 O 1.00562 0.60216 0.82896 0.0
O360 O 1.00389 0.40164 0.17156 0.0
O361 O 1.01409 0.59665 0.17904 0.0
O362 O 0.84273 0.49438 0.10246 0.0
O363 O 0.83519 0.46727 0.915 0.0
O364 O 0.18444 0.49877 0.09287 0.0
O365 O 0.18617 0.48818 0.9197 0.0
C366 C 0.54145 0.37975 0.19135 0.0
C367 C 0.52972 0.69091 0.1935 0.0
C368 C 0.52894 0.37883 0.8696 0.0
C369 C 0.53322 0.69501 0.86841 0.0
C370 C 0.68822 0.54635 0.86977 0.0
C371 C 0.67863 0.54883 0.19884 0.0
C372 C 0.37305 0.53675 0.86846 0.0
C373 C 0.37591 0.52602 0.19347 0.0
C374 C 0.3662 0.67555 0.06668 0.0
C375 C 0.67828 0.68079 0.08497 0.0
C376 C 0.37412 0.38458 0.03835 0.0
C377 C 0.66854 0.37679 0.03333 0.0
Eu378 Eu 0.52833 0.53407 0.16014 0.0
O379 O 0.57861 0.58715 0.08604 0.0
O380 O 0.46972 0.47881 0.0922 0.0
Eu381 Eu 0.64874 0.53583 0.03236 0.0
Eu382 Eu 0.40939 0.53599 0.03004 0.0
O383 O 0.58529 0.47903 0.09187 0.0
O384 O 0.47256 0.59139 0.09097 0.0
Eu385 Eu 0.52563 0.4196 0.03065 0.0
Eu386 Eu 0.52616 0.65915 0.03331 0.0
O387 O 0.58489 0.48118 0.97182 0.0
O388 O 0.58607 0.59696 0.97381 0.0
O389 O 0.47145 0.59582 0.97063 0.0
O390 O 0.47142 0.48179 0.96905 0.0
Eu391 Eu 0.53045 0.53914 0.90384 0.0
O392 O 0.54113 0.43892 0.21637 0.0
O393 O 0.5233 0.62968 0.21312 0.0
O394 O 0.5303 0.44058 0.84778 0.0
O395 O 0.53522 0.63389 0.84853 0.0
O396 O 0.70584 0.54531 0.93358 0.0
O397 O 0.69331 0.53729 0.13575 0.0
O398 O 0.35605 0.53863 0.9314 0.0
O399 O 0.36108 0.53422 0.13002 0.0
O400 O 0.42608 0.70138 0.06131 0.0
O401 O 0.61936 0.70348 0.07029 0.0
O402 O 0.43483 0.36576 0.03975 0.0
O403 O 0.60797 0.35987 0.03594 0.0
O404 O 0.43406 0.53691 0.84746 0.0
O405 O 0.62672 0.54215 0.84963 0.0
O406 O 0.43557 0.52283 0.21693 0.0
O407 O 0.61884 0.55122 0.22056 0.0
O408 O 0.53406 0.71074 0.13128 0.0
O409 O 0.52781 0.71326 0.93169 0.0
O410 O 0.53371 0.36776 0.12781 0.0
O411 O 0.52708 0.36339 0.93339 0.0
O412 O 0.69395 0.43644 0.02981 0.0
O413 O 0.70033 0.623 0.06787 0.0
O414 O 0.35292 0.44452 0.03199 0.0
O415 O 0.34879 0.61882 0.04398 0.0
C416 C 0.07428 0.37426 0.67122 0.0
C417 C 0.02791 0.37288 0.3759 0.0
C418 C 0.07869 0.68329 0.67213 0.0
C419 C 0.07567 0.66689 0.36268 0.0
C420 C 0.87354 0.68752 0.50575 0.0
C421 C 0.87406 0.37258 0.5306 0.0
C422 C 0.19769 0.68642 0.51278 0.0
C423 C 0.19423 0.37414 0.52665 0.0
C424 C 0.19072 0.53319 0.37029 0.0
C425 C 0.86089 0.52619 0.37952 0.0
C426 C 0.19982 0.53986 0.67871 0.0
C427 C 0.87601 0.54331 0.6874 0.0
Eu428 Eu 0.0332 0.41097 0.52869 0.0
O429 O 0.97137 0.47302 0.4738 0.0
O430 O 0.09423 0.47602 0.58184 0.0
Eu431 Eu 0.90806 0.53239 0.5305 0.0
Eu432 Eu 0.16154 0.52999 0.52277 0.0
O433 O 0.97513 0.47379 0.58806 0.0
O434 O 0.09165 0.47156 0.468 0.0
Eu435 Eu 0.03834 0.53189 0.64769 0.0
Eu436 Eu 0.0274 0.5267 0.40667 0.0
O437 O 0.97918 0.59112 0.58326 0.0
O438 O 0.97207 0.58879 0.46767 0.0
O439 O 0.08868 0.58198 0.46879 0.0
O440 O 0.09232 0.58585 0.57633 0.0
Eu441 Eu 0.0363 0.65307 0.51947 0.0
O442 O 0.04934 0.35463 0.61585 0.0
O443 O 0.03317 0.3536 0.4371 0.0
O444 O 0.06208 0.70543 0.61307 0.0
O445 O 0.06945 0.69215 0.42192 0.0
O446 O 0.85361 0.62648 0.5138 0.0
O447 O 0.85312 0.43407 0.5303 0.0
O448 O 0.21741 0.62581 0.52282 0.0
O449 O 0.21692 0.43422 0.51878 0.0
O450 O 0.1268 0.52427 0.35979 0.0
O451 O 0.92363 0.52919 0.36008 0.0
O452 O 0.1377 0.54457 0.69757 0.0
O453 O 0.93935 0.53546 0.70456 0.0
O454 O 0.13507 0.704 0.50666 0.0
O455 O 0.93664 0.70658 0.50865 0.0
O456 O 0.13119 0.35962 0.53461 0.0
O457 O 0.9367 0.35556 0.5326 0.0
O458 O 0.02364 0.43341 0.35464 0.0
O459 O 0.05107 0.61046 0.34426 0.0
O460 O 0.06831 0.43457 0.69481 0.0
O461 O 0.06761 0.62365 0.69417 0.0
O462 O 0.85521 0.54468 0.62609 0.0
O463 O 0.84301 0.52581 0.44117 0.0
O464 O 0.21832 0.53052 0.61787 0.0
O465 O 0.21708 0.53799 0.42869 0.0
C466 C 0.53542 0.86908 0.675 0.0
C467 C 0.52136 0.8794 0.35942 0.0
C468 C 0.54074 0.19367 0.68419 0.0
C469 C 0.52525 0.20264 0.37479 0.0
C470 C 0.37813 0.1933 0.53625 0.0
C471 C 0.37396 0.87505 0.51511 0.0
C472 C 0.69024 0.1934 0.53653 0.0
C473 C 0.68653 0.86945 0.49616 0.0
C474 C 0.67355 0.07457 0.36089 0.0
C475 C 0.37588 0.07033 0.37158 0.0
C476 C 0.67588 0.96904 0.665 0.0
C477 C 0.37771 1.01383 0.66439 0.0
Eu478 Eu 0.53151 0.90743 0.51523 0.0
O479 O 0.4727 0.97521 0.45974 0.0
O480 O 0.58461 0.97814 0.56955 0.0
Eu481 Eu 0.41485 0.03506 0.51983 0.0
Eu482 Eu 0.65484 0.03238 0.51747 0.0
O483 O 0.47876 0.97462 0.57437 0.0
O484 O 0.58895 0.9762 0.45851 0.0
Eu485 Eu 0.53425 0.03099 0.64207 0.0
Eu486 Eu 0.52874 0.03912 0.40064 0.0
O487 O 0.47655 0.09271 0.58187 0.0
O488 O 0.47776 0.09682 0.46785 0.0
O489 O 0.5861 0.09302 0.46865 0.0
O490 O 0.5946 0.09124 0.58096 0.0
Eu491 Eu 0.53438 0.16174 0.52816 0.0
O492 O 0.53657 0.85048 0.61267 0.0
O493 O 0.52484 0.85582 0.41935 0.0
O494 O 0.53483 0.21598 0.62384 0.0
O495 O 0.52608 0.2236 0.4357 0.0
O496 O 0.3662 0.13037 0.54983 0.0
O497 O 0.35881 0.93837 0.50857 0.0
O498 O 0.70739 0.12998 0.54086 0.0
O499 O 0.70591 0.93278 0.49584 0.0
O500 O 0.61432 0.05886 0.34234 0.0
O501 O 0.43475 0.05929 0.34881 0.0
O502 O 0.62166 0.99249 0.68909 0.0
O503 O 0.43635 0.02473 0.68946 0.0
O504 O 0.63029 0.2145 0.52718 0.0
O505 O 0.43723 0.21618 0.52352 0.0
O506 O 0.62553 0.85079 0.50635 0.0
O507 O 0.43437 0.85298 0.52069 0.0
O508 O 0.52176 0.94305 0.34336 0.0
O509 O 0.5316 0.14026 0.35753 0.0
O510 O 0.53173 0.93143 0.69413 0.0
O511 O 0.54404 0.12928 0.69933 0.0
O512 O 0.36052 1.01095 0.60356 0.0
O513 O 0.3584 0.06108 0.43231 0.0
O514 O 0.69972 0.98427 0.60657 0.0
O515 O 0.69852 0.06431 0.42051 0.0
loop_
_geom_bond_atom_site_label_1
_geom_bond_atom_site_label_2
_geom_bond_distance
_geom_bond_site_symmetry_2
_ccdc_geom_bond_type
H0 C3 0.931 . S
H1 C6 0.928 . S
H2 C8 0.930 . S
C3 H0 0.931 . S
C3 C4 1.413 . S
C3 C5 1.360 . S
C4 C3 1.413 . S
C4 C8 1.429 . S
C5 C3 1.360 . S
C5 C6 1.371 1_455 S
C6 H1 0.928 . S
C6 C5 1.371 1_655 S
C6 C7 1.403 1_655 S
C7 C6 1.403 1_455 S
C7 C8 1.391 . S
C8 H2 0.930 . S
C8 C4 1.429 . S
C8 C7 1.391 . S
H9 C12 0.931 . S
H10 C15 0.928 . S
H11 C17 0.930 . S
C12 H9 0.931 . S
C12 C13 1.413 . S
C12 C14 1.360 . S
C13 C12 1.413 . S
C13 C17 1.429 1_545 S
C14 C12 1.360 . S
C14 C15 1.372 . S
C15 H10 0.928 . S
C15 C14 1.372 . S
C15 C16 1.404 . S
C16 C15 1.404 . S
C16 C17 1.391 1_545 S
C17 H11 0.930 . S
C17 C13 1.429 1_565 S
C17 C16 1.391 1_565 S
H18 C21 0.931 . S
H19 C24 0.928 . S
H20 C26 0.930 1_655 S
C21 H18 0.931 . S
C21 C22 1.413 . S
C21 C23 1.360 . S
C22 C21 1.413 . S
C22 C26 1.429 . S
C23 C21 1.360 . S
C23 C24 1.372 . S
C24 H19 0.928 . S
C24 C23 1.372 . S
C24 C25 1.404 . S
C25 C24 1.404 . S
C25 C26 1.391 . S
C26 H20 0.930 1_455 S
C26 C22 1.429 . S
C26 C25 1.391 . S
H27 C30 0.931 . S
H28 C33 0.928 . S
H29 C35 0.930 . S
C30 H27 0.931 . S
C30 C31 1.413 . S
C30 C32 1.360 . S
C31 C30 1.413 . S
C31 C35 1.429 1_545 S
C32 C30 1.360 . S
C32 C33 1.372 . S
C33 H28 0.928 . S
C33 C32 1.372 . S
C33 C34 1.404 . S
C34 C33 1.404 . S
C34 C35 1.390 1_545 S
C35 H29 0.930 . S
C35 C31 1.429 1_565 S
C35 C34 1.390 1_565 S
H36 C39 0.931 . S
H37 C42 0.928 . S
H38 C44 0.930 . S
C39 H36 0.931 . S
C39 C40 1.413 . S
C39 C41 1.360 . S
C40 C39 1.413 . S
C40 C44 1.429 . S
C41 C39 1.360 . S
C41 C42 1.371 1_455 S
C42 H37 0.928 . S
C42 C41 1.371 1_655 S
C42 C43 1.403 1_655 S
C43 C42 1.403 1_455 S
C43 C44 1.391 . S
C44 H38 0.930 . S
C44 C40 1.429 . S
C44 C43 1.391 . S
H45 C48 0.931 . S
H46 C51 0.928 . S
H47 C53 0.930 . S
C48 H45 0.931 . S
C48 C49 1.413 . S
C48 C50 1.360 . S
C49 C48 1.413 . S
C49 C53 1.429 1_565 S
C50 C48 1.360 . S
C50 C51 1.372 . S
C51 H46 0.928 . S
C51 C50 1.372 . S
C51 C52 1.404 . S
C52 C51 1.404 . S
C52 C53 1.390 1_565 S
C53 H47 0.930 . S
C53 C49 1.429 1_545 S
C53 C52 1.390 1_545 S
H54 C57 0.931 . S
H55 C60 0.928 . S
H56 C62 0.930 . S
C57 H54 0.931 . S
C57 C58 1.413 . S
C57 C59 1.360 . S
C58 C57 1.413 . S
C58 C62 1.429 . S
C59 C57 1.360 . S
C59 C60 1.371 1_455 S
C60 H55 0.928 . S
C60 C59 1.371 1_655 S
C60 C61 1.403 1_655 S
C61 C60 1.403 1_455 S
C61 C62 1.391 . S
C62 H56 0.930 . S
C62 C58 1.429 . S
C62 C61 1.391 . S
H63 C66 0.931 . S
H64 C69 0.928 . S
H65 C71 0.931 . S
C66 H63 0.931 . S
C66 C67 1.413 . S
C66 C68 1.360 . S
C67 C66 1.413 . S
C67 C71 1.429 1_565 S
C68 C66 1.360 . S
C68 C69 1.372 . S
C69 H64 0.928 . S
C69 C68 1.372 . S
C69 C70 1.404 . S
C70 C69 1.404 . S
C70 C71 1.390 1_565 S
C71 H65 0.931 . S
C71 C67 1.429 1_545 S
C71 C70 1.390 1_545 S
H72 C75 0.931 . S
H73 C78 0.928 . S
H74 C80 0.930 . S
C75 H72 0.931 . S
C75 C76 1.413 . S
C75 C77 1.360 . S
C76 C75 1.413 . S
C76 C80 1.429 1_556 S
C77 C75 1.360 . S
C77 C78 1.372 . S
C78 H73 0.928 . S
C78 C77 1.372 . S
C78 C79 1.404 . S
C79 C78 1.404 . S
C79 C80 1.390 1_556 S
C80 H74 0.930 . S
C80 C76 1.429 1_554 S
C80 C79 1.390 1_554 S
H81 C84 0.931 . S
H82 C87 0.928 . S
H83 C89 0.931 . S
C84 H81 0.931 . S
C84 C85 1.413 . S
C84 C86 1.360 . S
C85 C84 1.413 . S
C85 C89 1.429 1_556 S
C86 C84 1.360 . S
C86 C87 1.372 . S
C87 H82 0.928 . S
C87 C86 1.372 . S
C87 C88 1.404 . S
C88 C87 1.404 . S
C88 C89 1.390 1_556 S
C89 H83 0.931 . S
C89 C85 1.429 1_554 S
C89 C88 1.390 1_554 S
H90 C93 0.931 . S
H91 C96 0.928 . S
H92 C98 0.930 . S
C93 H90 0.931 . S
C93 C94 1.413 . S
C93 C95 1.360 . S
C94 C93 1.413 . S
C94 C98 1.429 1_556 S
C95 C93 1.360 . S
C95 C96 1.372 . S
C96 H91 0.928 . S
C96 C95 1.372 . S
C96 C97 1.404 . S
C97 C96 1.404 . S
C97 C98 1.390 1_556 S
C98 H92 0.930 . S
C98 C94 1.429 1_554 S
C98 C97 1.390 1_554 S
H99 C102 0.931 . S
H100 C105 0.928 . S
H101 C107 0.930 . S
C102 H99 0.931 . S
C102 C103 1.413 . S
C102 C104 1.360 . S
C103 C102 1.413 . S
C103 C107 1.429 1_554 S
C104 C102 1.360 . S
C104 C105 1.372 . S
C105 H100 0.928 . S
C105 C104 1.372 . S
C105 C106 1.404 . S
C106 C105 1.404 . S
C106 C107 1.390 1_554 S
C107 H101 0.930 . S
C107 C103 1.429 1_556 S
C107 C106 1.390 1_556 S
H108 C111 0.931 . S
H109 C114 0.928 . S
H110 C116 0.930 . S
C111 H108 0.931 . S
C111 C112 1.413 . S
C111 C113 1.360 . S
C112 C111 1.413 . S
C112 C116 1.429 . S
C113 C111 1.360 . S
C113 C114 1.372 . S
C114 H109 0.928 . S
C114 C113 1.372 . S
C114 C115 1.404 . S
C115 C114 1.404 . S
C115 C116 1.391 . S
C116 H110 0.930 . S
C116 C112 1.429 . S
C116 C115 1.391 . S
H117 C120 0.931 . S
H118 C123 0.928 . S
H119 C125 0.930 . S
C120 H117 0.931 . S
C120 C121 1.413 . S
C120 C122 1.360 . S
C121 C120 1.413 . S
C121 C125 1.429 . S
C122 C120 1.360 . S
C122 C123 1.372 . S
C123 H118 0.928 . S
C123 C122 1.372 . S
C123 C124 1.404 . S
C124 C123 1.404 . S
C124 C125 1.391 . S
C125 H119 0.930 . S
C125 C121 1.429 . S
C125 C124 1.391 . S
H126 C129 0.931 . S
H127 C132 0.928 . S
H128 C134 0.930 . S
C129 H126 0.931 . S
C129 C130 1.413 . S
C129 C131 1.360 . S
C130 C129 1.413 . S
C130 C134 1.429 . S
C131 C129 1.360 . S
C131 C132 1.372 . S
C132 H127 0.928 . S
C132 C131 1.372 . S
C132 C133 1.404 . S
C133 C132 1.404 . S
C133 C134 1.391 . S
C134 H128 0.930 . S
C134 C130 1.429 . S
C134 C133 1.391 . S
H135 C138 0.931 . S
H136 C141 0.928 . S
H137 C143 0.930 . S
C138 H135 0.931 . S
C138 C139 1.413 . S
C138 C140 1.360 . S
C139 C138 1.413 . S
C139 C143 1.429 . S
C140 C138 1.360 . S
C140 C141 1.372 . S
C141 H136 0.928 . S
C141 C140 1.372 . S
C141 C142 1.404 . S
C142 C141 1.404 . S
C142 C143 1.391 . S
C143 H137 0.930 . S
C143 C139 1.429 . S
C143 C142 1.391 . S
H144 C147 0.931 . S
H145 C150 0.928 . S
H146 C152 0.930 . S
C147 H144 0.931 . S
C147 C148 1.413 . S
C147 C149 1.360 . S
C148 C147 1.413 . S
C148 C152 1.429 . S
C149 C147 1.360 . S
C149 C150 1.372 . S
C150 H145 0.928 . S
C150 C149 1.372 . S
C150 C151 1.404 . S
C151 C150 1.404 . S
C151 C152 1.391 . S
C152 H146 0.930 . S
C152 C148 1.429 . S
C152 C151 1.391 . S
H153 C156 0.931 . S
H154 C159 0.928 . S
H155 C161 0.930 . S
C156 H153 0.931 . S
C156 C157 1.413 . S
C156 C158 1.360 . S
C157 C156 1.413 . S
C157 C161 1.429 . S
C158 C156 1.360 . S
C158 C159 1.372 . S
C159 H154 0.928 . S
C159 C158 1.372 . S
C159 C160 1.404 . S
C160 C159 1.404 . S
C160 C161 1.391 . S
C161 H155 0.930 . S
C161 C157 1.429 . S
C161 C160 1.391 . S
H162 C165 0.931 . S
H163 C168 0.928 . S
H164 C170 0.930 . S
C165 H162 0.931 . S
C165 C166 1.413 . S
C165 C167 1.360 . S
C166 C165 1.413 . S
C166 C170 1.429 . S
C167 C165 1.360 . S
C167 C168 1.372 . S
C168 H163 0.928 . S
C168 C167 1.372 . S
C168 C169 1.404 . S
C169 C168 1.404 . S
C169 C170 1.391 . S
C170 H164 0.930 . S
C170 C166 1.429 . S
C170 C169 1.391 . S
H171 C174 0.931 . S
H172 C177 0.928 . S
H173 C179 0.930 . S
C174 H171 0.931 . S
C174 C175 1.413 . S
C174 C176 1.360 . S
C175 C174 1.413 . S
C175 C179 1.429 . S
C176 C174 1.360 . S
C176 C177 1.372 . S
C177 H172 0.928 . S
C177 C176 1.372 . S
C177 C178 1.404 . S
C178 C177 1.404 . S
C178 C179 1.391 . S
C179 H173 0.930 . S
C179 C175 1.429 . S
C179 C178 1.391 . S
H180 C183 0.931 . S
H181 C186 0.928 . S
H182 C188 0.930 . S
C183 H180 0.931 . S
C183 C184 1.413 . S
C183 C185 1.360 . S
C184 C183 1.413 . S
C184 C188 1.429 . S
C185 C183 1.360 . S
C185 C186 1.372 . S
C186 H181 0.928 . S
C186 C185 1.372 . S
C186 C187 1.404 . S
C187 C186 1.404 . S
C187 C188 1.391 . S
C188 H182 0.930 . S
C188 C184 1.429 . S
C188 C187 1.391 . S
H189 C192 0.931 . S
H190 C195 0.928 . S
H191 C197 0.930 . S
C192 H189 0.931 . S
C192 C193 1.413 . S
C192 C194 1.360 . S
C193 C192 1.413 . S
C193 C197 1.429 . S
C194 C192 1.360 . S
C194 C195 1.372 . S
C195 H190 0.928 . S
C195 C194 1.372 . S
C195 C196 1.404 . S
C196 C195 1.404 . S
C196 C197 1.391 . S
C197 H191 0.930 . S
C197 C193 1.429 . S
C197 C196 1.391 . S
H198 C201 0.931 . S
H199 C204 0.928 . S
H200 C206 0.930 . S
C201 H198 0.931 . S
C201 C202 1.413 . S
C201 C203 1.360 . S
C202 C201 1.413 . S
C202 C206 1.429 . S
C203 C201 1.360 . S
C203 C204 1.372 . S
C204 H199 0.928 . S
C204 C203 1.372 . S
C204 C205 1.404 . S
C205 C204 1.404 . S
C205 C206 1.391 . S
C206 H200 0.930 . S
C206 C202 1.429 . S
C206 C205 1.391 . S
H207 C210 0.931 . S
H208 C213 0.928 . S
H209 C215 0.930 . S
C210 H207 0.931 . S
C210 C211 1.413 . S
C210 C212 1.360 . S
C211 C210 1.413 . S
C211 C215 1.429 . S
C212 C210 1.360 . S
C212 C213 1.372 . S
C213 H208 0.928 . S
C213 C212 1.372 . S
C213 C214 1.404 . S
C214 C213 1.404 . S
C214 C215 1.391 . S
C215 H209 0.930 . S
C215 C211 1.429 . S
C215 C214 1.391 . S
C216 O242 1.283 . S
C216 O260 1.283 . S
C217 O243 1.283 . S
C217 O258 1.283 . S
C218 O244 1.283 . S
C218 O261 1.283 . S
C219 O245 1.283 . S
C219 O259 1.283 . S
C220 O246 1.283 . S
C220 O255 1.283 . S
C221 O247 1.283 . S
C221 O257 1.283 . S
C222 O248 1.283 . S
C222 O254 1.283 . S
C223 O249 1.283 . S
C223 O256 1.283 . S
C224 O250 1.283 . S
C224 O265 1.283 . S
C225 O251 1.283 . S
C225 O263 1.283 . S
C226 O252 1.283 . S
C226 O264 1.283 . S
C227 O253 1.283 . S
C227 O262 1.283 . S
Eu228 O229 2.370 1_455 S
Eu228 O230 2.370 . S
Eu228 O233 2.370 1_455 S
Eu228 O234 2.370 . S
Eu228 O242 2.363 . S
Eu228 O243 2.363 . S
Eu228 O256 2.363 . S
Eu228 O257 2.363 1_455 S
O229 Eu228 2.370 1_655 S
O229 Eu231 2.368 1_565 S
O229 Eu236 2.368 1_665 S
O230 Eu228 2.370 . S
O230 Eu232 2.369 1_565 S
O230 Eu235 2.368 1_565 S
Eu231 O229 2.368 1_545 S
Eu231 O233 2.368 1_545 S
Eu231 O237 2.372 . S
Eu231 O238 2.372 . S
Eu231 O246 2.367 . S
Eu231 O247 2.359 1_545 S
Eu231 O262 2.363 . S
Eu231 O263 2.363 . S
Eu232 O230 2.369 1_545 S
Eu232 O234 2.369 1_545 S
Eu232 O239 2.372 . S
Eu232 O240 2.372 . S
Eu232 O248 2.366 . S
Eu232 O249 2.360 1_545 S
Eu232 O264 2.363 . S
Eu232 O265 2.363 . S
O233 Eu228 2.370 1_655 S
O233 Eu231 2.368 1_565 S
O233 Eu235 2.368 1_665 S
O234 Eu228 2.370 . S
O234 Eu232 2.369 1_565 S
O234 Eu236 2.368 1_565 S
Eu235 O230 2.368 1_545 S
Eu235 O233 2.368 1_445 S
Eu235 O237 2.372 1_455 S
Eu235 O240 2.372 . S
Eu235 O252 2.363 . S
Eu235 O253 2.363 1_455 S
Eu235 O260 2.360 1_545 S
Eu235 O261 2.366 . S
Eu236 O229 2.368 1_445 S
Eu236 O234 2.368 1_545 S
Eu236 O238 2.372 1_455 S
Eu236 O239 2.372 . S
Eu236 O250 2.363 . S
Eu236 O251 2.363 1_455 S
Eu236 O258 2.359 1_545 S
Eu236 O259 2.367 . S
O237 Eu231 2.372 . S
O237 Eu235 2.372 1_655 S
O237 Eu241 2.370 1_655 S
O238 Eu231 2.372 . S
O238 Eu236 2.372 1_655 S
O238 Eu241 2.370 1_655 S
O239 Eu232 2.372 . S
O239 Eu236 2.372 . S
O239 Eu241 2.370 . S
O240 Eu232 2.372 . S
O240 Eu235 2.372 . S
O240 Eu241 2.370 . S
Eu241 O237 2.370 1_455 S
Eu241 O238 2.370 1_455 S
Eu241 O239 2.370 . S
Eu241 O240 2.370 . S
Eu241 O244 2.363 . S
Eu241 O245 2.363 . S
Eu241 O254 2.363 . S
Eu241 O255 2.363 1_455 S
O242 C216 1.283 . S
O242 Eu228 2.363 . S
O243 C217 1.283 . S
O243 Eu228 2.363 . S
O244 C218 1.283 . S
O244 Eu241 2.363 . S
O245 C219 1.283 . S
O245 Eu241 2.363 . S
O246 C220 1.283 . S
O246 Eu231 2.367 . S
O247 C221 1.283 . S
O247 Eu231 2.359 1_565 S
O248 C222 1.283 . S
O248 Eu232 2.366 . S
O249 C223 1.283 . S
O249 Eu232 2.360 1_565 S
O250 C224 1.283 . S
O250 Eu236 2.363 . S
O251 C225 1.283 . S
O251 Eu236 2.363 1_655 S
O252 C226 1.283 . S
O252 Eu235 2.363 . S
O253 C227 1.283 . S
O253 Eu235 2.363 1_655 S
O254 C222 1.283 . S
O254 Eu241 2.363 . S
O255 C220 1.283 . S
O255 Eu241 2.363 1_655 S
O256 C223 1.283 . S
O256 Eu228 2.363 . S
O257 C221 1.283 . S
O257 Eu228 2.363 1_655 S
O258 C217 1.283 . S
O258 Eu236 2.359 1_565 S
O259 C219 1.283 . S
O259 Eu236 2.367 . S
O260 C216 1.283 . S
O260 Eu235 2.360 1_565 S
O261 C218 1.283 . S
O261 Eu235 2.366 . S
O262 C227 1.283 . S
O262 Eu231 2.363 . S
O263 C225 1.283 . S
O263 Eu231 2.363 . S
O264 C226 1.283 . S
O264 Eu232 2.363 . S
O265 C224 1.283 . S
O265 Eu232 2.363 . S
C266 O292 1.283 . S
C266 O310 1.283 . S
C267 O293 1.283 . S
C267 O308 1.283 . S
C268 O294 1.283 . S
C268 O311 1.283 . S
C269 O295 1.283 . S
C269 O309 1.283 . S
C270 O296 1.283 . S
C270 O305 1.283 . S
C271 O297 1.283 . S
C271 O307 1.283 . S
C272 O298 1.283 . S
C272 O304 1.283 . S
C273 O299 1.283 . S
C273 O306 1.283 . S
C274 O300 1.283 . S
C274 O315 1.283 . S
C275 O301 1.283 . S
C275 O313 1.283 . S
C276 O302 1.283 . S
C276 O314 1.283 . S
C277 O303 1.283 . S
C277 O312 1.283 . S
Eu278 O279 2.371 . S
Eu278 O280 2.369 1_545 S
Eu278 O283 2.369 1_545 S
Eu278 O284 2.371 . S
Eu278 O292 2.362 1_545 S
Eu278 O293 2.364 . S
Eu278 O306 2.363 . S
Eu278 O307 2.363 . S
O279 Eu278 2.371 . S
O279 Eu281 2.372 . S
O279 Eu286 2.371 . S
O280 Eu278 2.369 1_565 S
O280 Eu282 2.372 1_565 S
O280 Eu285 2.372 . S
Eu281 O279 2.372 . S
Eu281 O283 2.371 1_545 S
Eu281 O287 2.369 1_544 S
Eu281 O288 2.369 1_554 S
Eu281 O296 2.361 1_554 S
Eu281 O297 2.365 . S
Eu281 O312 2.363 1_545 S
Eu281 O313 2.363 . S
Eu282 O280 2.372 1_545 S
Eu282 O284 2.371 . S
Eu282 O289 2.369 1_554 S
Eu282 O290 2.369 1_544 S
Eu282 O298 2.361 1_554 S
Eu282 O299 2.365 . S
Eu282 O314 2.363 1_545 S
Eu282 O315 2.363 . S
O283 Eu278 2.369 1_565 S
O283 Eu281 2.371 1_565 S
O283 Eu285 2.372 . S
O284 Eu278 2.371 . S
O284 Eu282 2.371 . S
O284 Eu286 2.371 . S
Eu285 O280 2.372 . S
Eu285 O283 2.372 . S
Eu285 O287 2.368 1_554 S
Eu285 O290 2.368 1_554 S
Eu285 O302 2.363 . S
Eu285 O303 2.363 . S
Eu285 O310 2.367 . S
Eu285 O311 2.359 1_554 S
Eu286 O279 2.371 . S
Eu286 O284 2.371 . S
Eu286 O288 2.370 1_554 S
Eu286 O289 2.370 1_554 S
Eu286 O300 2.363 . S
Eu286 O301 2.363 . S
Eu286 O308 2.364 . S
Eu286 O309 2.362 1_554 S
O287 Eu281 2.369 1_566 S
O287 Eu285 2.368 1_556 S
O287 Eu291 2.371 1_565 S
O288 Eu281 2.369 1_556 S
O288 Eu286 2.370 1_556 S
O288 Eu291 2.369 . S
O289 Eu282 2.369 1_556 S
O289 Eu286 2.370 1_556 S
O289 Eu291 2.369 . S
O290 Eu282 2.369 1_566 S
O290 Eu285 2.368 1_556 S
O290 Eu291 2.371 1_565 S
Eu291 O287 2.371 1_545 S
Eu291 O288 2.369 . S
Eu291 O289 2.369 . S
Eu291 O290 2.371 1_545 S
Eu291 O294 2.364 1_545 S
Eu291 O295 2.362 . S
Eu291 O304 2.363 . S
Eu291 O305 2.363 . S
O292 C266 1.283 . S
O292 Eu278 2.362 1_565 S
O293 C267 1.283 . S
O293 Eu278 2.364 . S
O294 C268 1.283 . S
O294 Eu291 2.364 1_565 S
O295 C269 1.283 . S
O295 Eu291 2.362 . S
O296 C270 1.283 . S
O296 Eu281 2.361 1_556 S
O297 C271 1.283 . S
O297 Eu281 2.365 . S
O298 C272 1.283 . S
O298 Eu282 2.361 1_556 S
O299 C273 1.283 . S
O299 Eu282 2.365 . S
O300 C274 1.283 . S
O300 Eu286 2.363 . S
O301 C275 1.283 . S
O301 Eu286 2.363 . S
O302 C276 1.283 . S
O302 Eu285 2.363 . S
O303 C277 1.283 . S
O303 Eu285 2.363 . S
O304 C272 1.283 . S
O304 Eu291 2.363 . S
O305 C270 1.283 . S
O305 Eu291 2.363 . S
O306 C273 1.283 . S
O306 Eu278 2.363 . S
O307 C271 1.283 . S
O307 Eu278 2.363 . S
O308 C267 1.283 . S
O308 Eu286 2.364 . S
O309 C269 1.283 . S
O309 Eu286 2.362 1_556 S
O310 C266 1.283 . S
O310 Eu285 2.367 . S
O311 C268 1.283 . S
O311 Eu285 2.359 1_556 S
O312 C277 1.283 . S
O312 Eu281 2.363 1_565 S
O313 C275 1.283 . S
O313 Eu281 2.363 . S
O314 C276 1.283 . S
O314 Eu282 2.363 1_565 S
O315 C274 1.283 . S
O315 Eu282 2.363 . S
C316 O342 1.283 . S
C316 O360 1.283 . S
C317 O343 1.283 . S
C317 O358 1.283 . S
C318 O344 1.283 . S
C318 O361 1.283 . S
C319 O345 1.283 . S
C319 O359 1.283 . S
C320 O346 1.283 . S
C320 O355 1.283 . S
C321 O347 1.283 . S
C321 O357 1.283 . S
C322 O348 1.283 . S
C322 O354 1.283 . S
C323 O349 1.283 . S
C323 O356 1.283 . S
C324 O350 1.283 . S
C324 O365 1.283 . S
C325 O351 1.283 . S
C325 O363 1.283 . S
C326 O352 1.283 . S
C326 O364 1.283 . S
C327 O353 1.283 . S
C327 O362 1.283 . S
Eu328 O329 2.370 1_454 S
Eu328 O330 2.370 . S
Eu328 O333 2.370 1_455 S
Eu328 O334 2.370 1_554 S
Eu328 O342 2.363 . S
Eu328 O343 2.363 1_554 S
Eu328 O356 2.363 . S
Eu328 O357 2.363 1_455 S
O329 Eu328 2.370 1_656 S
O329 Eu331 2.370 1_556 S
O329 Eu336 2.370 1_655 S
O330 Eu328 2.370 . S
O330 Eu332 2.370 . S
O330 Eu335 2.370 . S
Eu331 O329 2.370 1_554 S
Eu331 O333 2.370 . S
Eu331 O337 2.370 . S
Eu331 O338 2.370 1_554 S
Eu331 O346 2.363 . S
Eu331 O347 2.363 . S
Eu331 O362 2.363 . S
Eu331 O363 2.363 1_554 S
Eu332 O330 2.370 . S
Eu332 O334 2.370 1_554 S
Eu332 O339 2.370 1_554 S
Eu332 O340 2.370 . S
Eu332 O348 2.363 . S
Eu332 O349 2.363 . S
Eu332 O364 2.363 . S
Eu332 O365 2.363 1_554 S
O333 Eu328 2.370 1_655 S
O333 Eu331 2.370 . S
O333 Eu335 2.370 1_655 S
O334 Eu328 2.370 1_556 S
O334 Eu332 2.370 1_556 S
O334 Eu336 2.370 . S
Eu335 O330 2.370 . S
Eu335 O333 2.370 1_455 S
Eu335 O337 2.370 1_455 S
Eu335 O340 2.370 . S
Eu335 O352 2.363 . S
Eu335 O353 2.363 1_455 S
Eu335 O360 2.363 . S
Eu335 O361 2.363 . S
Eu336 O329 2.370 1_455 S
Eu336 O334 2.370 . S
Eu336 O338 2.370 1_455 S
Eu336 O339 2.370 . S
Eu336 O350 2.363 . S
Eu336 O351 2.363 1_455 S
Eu336 O358 2.363 . S
Eu336 O359 2.363 . S
O337 Eu331 2.370 . S
O337 Eu335 2.370 1_655 S
O337 Eu341 2.360 1_655 S
O338 Eu331 2.370 1_556 S
O338 Eu336 2.370 1_655 S
O338 Eu341 2.360 1_656 S
O339 Eu332 2.370 1_556 S
O339 Eu336 2.370 . S
O339 Eu341 2.380 1_556 S
O340 Eu332 2.370 . S
O340 Eu335 2.370 . S
O340 Eu341 2.381 . S
Eu341 O337 2.360 1_455 S
Eu341 O338 2.360 1_454 S
Eu341 O339 2.380 1_554 S
Eu341 O340 2.381 . S
Eu341 O344 2.363 . S
Eu341 O345 2.363 1_554 S
Eu341 O354 2.380 . S
Eu341 O355 2.345 1_455 S
O342 C316 1.283 . S
O342 Eu328 2.363 . S
O343 C317 1.283 . S
O343 Eu328 2.363 1_556 S
O344 C318 1.283 . S
O344 Eu341 2.363 . S
O345 C319 1.283 . S
O345 Eu341 2.363 1_556 S
O346 C320 1.283 . S
O346 Eu331 2.363 . S
O347 C321 1.283 . S
O347 Eu331 2.363 . S
O348 C322 1.283 . S
O348 Eu332 2.363 . S
O349 C323 1.283 . S
O349 Eu332 2.363 . S
O350 C324 1.283 . S
O350 Eu336 2.363 . S
O351 C325 1.283 . S
O351 Eu336 2.363 1_655 S
O352 C326 1.283 . S
O352 Eu335 2.363 . S
O353 C327 1.283 . S
O353 Eu335 2.363 1_655 S
O354 C322 1.283 . S
O354 Eu341 2.380 . S
O355 C320 1.283 . S
O355 Eu341 2.345 1_655 S
O356 C323 1.283 . S
O356 Eu328 2.363 . S
O357 C321 1.283 . S
O357 Eu328 2.363 1_655 S
O358 C317 1.283 . S
O358 Eu336 2.363 . S
O359 C319 1.283 . S
O359 Eu336 2.363 . S
O360 C316 1.283 . S
O360 Eu335 2.363 . S
O361 C318 1.283 . S
O361 Eu335 2.363 . S
O362 C327 1.283 . S
O362 Eu331 2.363 . S
O363 C325 1.283 . S
O363 Eu331 2.363 1_556 S
O364 C326 1.283 . S
O364 Eu332 2.363 . S
O365 C324 1.283 . S
O365 Eu332 2.363 1_556 S
C366 O392 1.283 . S
C366 O410 1.283 . S
C367 O393 1.283 . S
C367 O408 1.283 . S
C368 O394 1.283 . S
C368 O411 1.283 . S
C369 O395 1.283 . S
C369 O409 1.283 . S
C370 O396 1.283 . S
C370 O405 1.283 . S
C371 O397 1.283 . S
C371 O407 1.283 . S
C372 O398 1.283 . S
C372 O404 1.283 . S
C373 O399 1.283 . S
C373 O406 1.283 . S
C374 O400 1.283 . S
C374 O415 1.283 . S
C375 O401 1.283 . S
C375 O413 1.283 . S
C376 O402 1.283 . S
C376 O414 1.283 . S
C377 O403 1.283 . S
C377 O412 1.283 . S
Eu378 O379 2.370 . S
Eu378 O380 2.370 . S
Eu378 O383 2.370 . S
Eu378 O384 2.370 . S
Eu378 O392 2.363 . S
Eu378 O393 2.363 . S
Eu378 O406 2.363 . S
Eu378 O407 2.363 . S
O379 Eu378 2.370 . S
O379 Eu381 2.372 . S
O379 Eu386 2.372 . S
O380 Eu378 2.370 . S
O380 Eu382 2.372 . S
O380 Eu385 2.372 . S
Eu381 O379 2.372 . S
Eu381 O383 2.372 . S
Eu381 O387 2.368 1_554 S
Eu381 O388 2.368 1_554 S
Eu381 O396 2.360 1_554 S
Eu381 O397 2.366 . S
Eu381 O412 2.363 . S
Eu381 O413 2.363 . S
Eu382 O380 2.372 . S
Eu382 O384 2.372 . S
Eu382 O389 2.368 1_554 S
Eu382 O390 2.368 1_554 S
Eu382 O398 2.360 1_554 S
Eu382 O399 2.366 . S
Eu382 O414 2.363 . S
Eu382 O415 2.363 . S
O383 Eu378 2.370 . S
O383 Eu381 2.372 . S
O383 Eu385 2.372 . S
O384 Eu378 2.370 . S
O384 Eu382 2.372 . S
O384 Eu386 2.372 . S
Eu385 O380 2.372 . S
Eu385 O383 2.372 . S
Eu385 O387 2.368 1_554 S
Eu385 O390 2.368 1_554 S
Eu385 O402 2.363 . S
Eu385 O403 2.363 . S
Eu385 O410 2.366 . S
Eu385 O411 2.360 1_554 S
Eu386 O379 2.372 . S
Eu386 O384 2.372 . S
Eu386 O388 2.368 1_554 S
Eu386 O389 2.368 1_554 S
Eu386 O400 2.363 . S
Eu386 O401 2.363 . S
Eu386 O408 2.366 . S
Eu386 O409 2.360 1_554 S
O387 Eu381 2.368 1_556 S
O387 Eu385 2.368 1_556 S
O387 Eu391 2.370 . S
O388 Eu381 2.368 1_556 S
O388 Eu386 2.368 1_556 S
O388 Eu391 2.370 . S
O389 Eu382 2.368 1_556 S
O389 Eu386 2.368 1_556 S
O389 Eu391 2.370 . S
O390 Eu382 2.368 1_556 S
O390 Eu385 2.368 1_556 S
O390 Eu391 2.370 . S
Eu391 O387 2.370 . S
Eu391 O388 2.370 . S
Eu391 O389 2.370 . S
Eu391 O390 2.370 . S
Eu391 O394 2.363 . S
Eu391 O395 2.363 . S
Eu391 O404 2.363 . S
Eu391 O405 2.363 . S
O392 C366 1.283 . S
O392 Eu378 2.363 . S
O393 C367 1.283 . S
O393 Eu378 2.363 . S
O394 C368 1.283 . S
O394 Eu391 2.363 . S
O395 C369 1.283 . S
O395 Eu391 2.363 . S
O396 C370 1.283 . S
O396 Eu381 2.360 1_556 S
O397 C371 1.283 . S
O397 Eu381 2.366 . S
O398 C372 1.283 . S
O398 Eu382 2.360 1_556 S
O399 C373 1.283 . S
O399 Eu382 2.366 . S
O400 C374 1.283 . S
O400 Eu386 2.363 . S
O401 C375 1.283 . S
O401 Eu386 2.363 . S
O402 C376 1.283 . S
O402 Eu385 2.363 . S
O403 C377 1.283 . S
O403 Eu385 2.363 . S
O404 C372 1.283 . S
O404 Eu391 2.363 . S
O405 C370 1.283 . S
O405 Eu391 2.363 . S
O406 C373 1.283 . S
O406 Eu378 2.363 . S
O407 C371 1.283 . S
O407 Eu378 2.363 . S
O408 C367 1.283 . S
O408 Eu386 2.366 . S
O409 C369 1.283 . S
O409 Eu386 2.360 1_556 S
O410 C366 1.283 . S
O410 Eu385 2.366 . S
O411 C368 1.283 . S
O411 Eu385 2.360 1_556 S
O412 C377 1.283 . S
O412 Eu381 2.363 . S
O413 C375 1.283 . S
O413 Eu381 2.363 . S
O414 C376 1.283 . S
O414 Eu382 2.363 . S
O415 C374 1.283 . S
O415 Eu382 2.363 . S
C416 O442 1.283 . S
C416 O460 1.283 . S
C417 O443 1.283 . S
C417 O458 1.283 . S
C418 O444 1.283 . S
C418 O461 1.283 . S
C419 O445 1.283 . S
C419 O459 1.283 . S
C420 O446 1.283 . S
C420 O455 1.283 . S
C421 O447 1.283 . S
C421 O457 1.283 . S
C422 O448 1.283 . S
C422 O454 1.283 . S
C423 O449 1.283 . S
C423 O456 1.283 . S
C424 O450 1.283 . S
C424 O465 1.283 . S
C425 O451 1.283 . S
C425 O463 1.283 . S
C426 O452 1.283 . S
C426 O464 1.283 . S
C427 O453 1.283 . S
C427 O462 1.283 . S
Eu428 O429 2.370 1_455 S
Eu428 O430 2.370 . S
Eu428 O433 2.370 1_455 S
Eu428 O434 2.370 . S
Eu428 O442 2.363 . S
Eu428 O443 2.363 . S
Eu428 O456 2.363 . S
Eu428 O457 2.363 1_455 S
O429 Eu428 2.370 1_655 S
O429 Eu431 2.370 . S
O429 Eu436 2.370 1_655 S
O430 Eu428 2.370 . S
O430 Eu432 2.370 . S
O430 Eu435 2.370 . S
Eu431 O429 2.370 . S
Eu431 O433 2.370 . S
Eu431 O437 2.370 . S
Eu431 O438 2.370 . S
Eu431 O446 2.363 . S
Eu431 O447 2.363 . S
Eu431 O462 2.363 . S
Eu431 O463 2.363 . S
Eu432 O430 2.370 . S
Eu432 O434 2.370 . S
Eu432 O439 2.370 . S
Eu432 O440 2.370 . S
Eu432 O448 2.363 . S
Eu432 O449 2.363 . S
Eu432 O464 2.363 . S
Eu432 O465 2.363 . S
O433 Eu428 2.370 1_655 S
O433 Eu431 2.370 . S
O433 Eu435 2.370 1_655 S
O434 Eu428 2.370 . S
O434 Eu432 2.370 . S
O434 Eu436 2.370 . S
Eu435 O430 2.370 . S
Eu435 O433 2.370 1_455 S
Eu435 O437 2.370 1_455 S
Eu435 O440 2.370 . S
Eu435 O452 2.363 . S
Eu435 O453 2.363 1_455 S
Eu435 O460 2.363 . S
Eu435 O461 2.363 . S
Eu436 O429 2.370 1_455 S
Eu436 O434 2.370 . S
Eu436 O438 2.370 1_455 S
Eu436 O439 2.370 . S
Eu436 O450 2.363 . S
Eu436 O451 2.363 1_455 S
Eu436 O458 2.363 . S
Eu436 O459 2.363 . S
O437 Eu431 2.370 . S
O437 Eu435 2.370 1_655 S
O437 Eu441 2.370 1_655 S
O438 Eu431 2.370 . S
O438 Eu436 2.370 1_655 S
O438 Eu441 2.370 1_655 S
O439 Eu432 2.370 . S
O439 Eu436 2.370 . S
O439 Eu441 2.370 . S
O440 Eu432 2.370 . S
O440 Eu435 2.370 . S
O440 Eu441 2.370 . S
Eu441 O437 2.370 1_455 S
Eu441 O438 2.370 1_455 S
Eu441 O439 2.370 . S
Eu441 O440 2.370 . S
Eu441 O444 2.363 . S
Eu441 O445 2.363 . S
Eu441 O454 2.363 . S
Eu441 O455 2.363 1_455 S
O442 C416 1.283 . S
O442 Eu428 2.363 . S
O443 C417 1.283 . S
O443 Eu428 2.363 . S
O444 C418 1.283 . S
O444 Eu441 2.363 . S
O445 C419 1.283 . S
O445 Eu441 2.363 . S
O446 C420 1.283 . S
O446 Eu431 2.363 . S
O447 C421 1.283 . S
O447 Eu431 2.363 . S
O448 C422 1.283 . S
O448 Eu432 2.363 . S
O449 C423 1.283 . S
O449 Eu432 2.363 . S
O450 C424 1.283 . S
O450 Eu436 2.363 . S
O451 C425 1.283 . S
O451 Eu436 2.363 1_655 S
O452 C426 1.283 . S
O452 Eu435 2.363 . S
O453 C427 1.283 . S
O453 Eu435 2.363 1_655 S
O454 C422 1.283 . S
O454 Eu441 2.363 . S
O455 C420 1.283 . S
O455 Eu441 2.363 1_655 S
O456 C423 1.283 . S
O456 Eu428 2.363 . S
O457 C421 1.283 . S
O457 Eu428 2.363 1_655 S
O458 C417 1.283 . S
O458 Eu436 2.363 . S
O459 C419 1.283 . S
O459 Eu436 2.363 . S
O460 C416 1.283 . S
O460 Eu435 2.363 . S
O461 C418 1.283 . S
O461 Eu435 2.363 . S
O462 C427 1.283 . S
O462 Eu431 2.363 . S
O463 C425 1.283 . S
O463 Eu431 2.363 . S
O464 C426 1.283 . S
O464 Eu432 2.363 . S
O465 C424 1.283 . S
O465 Eu432 2.363 . S
C466 O492 1.283 . S
C466 O510 1.283 . S
C467 O493 1.283 . S
C467 O508 1.283 . S
C468 O494 1.283 . S
C468 O511 1.283 . S
C469 O495 1.283 . S
C469 O509 1.283 . S
C470 O496 1.283 . S
C470 O505 1.283 . S
C471 O497 1.283 . S
C471 O507 1.283 . S
C472 O498 1.283 . S
C472 O504 1.283 . S
C473 O499 1.283 . S
C473 O506 1.283 . S
C474 O500 1.283 . S
C474 O515 1.283 . S
C475 O501 1.283 . S
C475 O513 1.283 . S
C476 O502 1.283 . S
C476 O514 1.283 . S
C477 O503 1.283 . S
C477 O512 1.283 . S
Eu478 O479 2.370 . S
Eu478 O480 2.370 . S
Eu478 O483 2.370 . S
Eu478 O484 2.370 . S
Eu478 O492 2.363 . S
Eu478 O493 2.363 . S
Eu478 O506 2.363 . S
Eu478 O507 2.363 . S
O479 Eu478 2.370 . S
O479 Eu481 2.368 1_565 S
O479 Eu486 2.368 1_565 S
O480 Eu478 2.370 . S
O480 Eu482 2.368 1_565 S
O480 Eu485 2.368 1_565 S
Eu481 O479 2.368 1_545 S
Eu481 O483 2.368 1_545 S
Eu481 O487 2.372 . S
Eu481 O488 2.372 . S
Eu481 O496 2.366 . S
Eu481 O497 2.360 1_545 S
Eu481 O512 2.363 . S
Eu481 O513 2.363 . S
Eu482 O480 2.368 1_545 S
Eu482 O484 2.368 1_545 S
Eu482 O489 2.372 . S
Eu482 O490 2.372 . S
Eu482 O498 2.367 . S
Eu482 O499 2.359 1_545 S
Eu482 O514 2.363 . S
Eu482 O515 2.363 . S
O483 Eu478 2.370 . S
O483 Eu481 2.368 1_565 S
O483 Eu485 2.368 1_565 S
O484 Eu478 2.370 . S
O484 Eu482 2.368 1_565 S
O484 Eu486 2.368 1_565 S
Eu485 O480 2.368 1_545 S
Eu485 O483 2.368 1_545 S
Eu485 O487 2.372 . S
Eu485 O490 2.372 . S
Eu485 O502 2.363 . S
Eu485 O503 2.363 . S
Eu485 O510 2.360 1_545 S
Eu485 O511 2.366 . S
Eu486 O479 2.368 1_545 S
Eu486 O484 2.368 1_545 S
Eu486 O488 2.372 . S
Eu486 O489 2.372 . S
Eu486 O500 2.363 . S
Eu486 O501 2.363 . S
Eu486 O508 2.359 1_545 S
Eu486 O509 2.367 . S
O487 Eu481 2.372 . S
O487 Eu485 2.372 . S
O487 Eu491 2.370 . S
O488 Eu481 2.372 . S
O488 Eu486 2.372 . S
O488 Eu491 2.370 . S
O489 Eu482 2.372 . S
O489 Eu486 2.372 . S
O489 Eu491 2.370 . S
O490 Eu482 2.372 . S
O490 Eu485 2.372 . S
O490 Eu491 2.370 . S
Eu491 O487 2.370 . S
Eu491 O488 2.370 . S
Eu491 O489 2.370 . S
Eu491 O490 2.370 . S
Eu491 O494 2.363 . S
Eu491 O495 2.363 . S
Eu491 O504 2.363 . S
Eu491 O505 2.363 . S
O492 C466 1.283 . S
O492 Eu478 2.363 . S
O493 C467 1.283 . S
O493 Eu478 2.363 . S
O494 C468 1.283 . S
O494 Eu491 2.363 . S
O495 C469 1.283 . S
O495 Eu491 2.363 . S
O496 C470 1.283 . S
O496 Eu481 2.366 . S
O497 C471 1.283 . S
O497 Eu481 2.360 1_565 S
O498 C472 1.283 . S
O498 Eu482 2.367 . S
O499 C473 1.283 . S
O499 Eu482 2.359 1_565 S
O500 C474 1.283 . S
O500 Eu486 2.363 . S
O501 C475 1.283 . S
O501 Eu486 2.363 . S
O502 C476 1.283 . S
O502 Eu485 2.363 . S
O503 C477 1.283 . S
O503 Eu485 2.363 . S
O504 C472 1.283 . S
O504 Eu491 2.363 . S
O505 C470 1.283 . S
O505 Eu491 2.363 . S
O506 C473 1.283 . S
O506 Eu478 2.363 . S
O507 C471 1.283 . S
O507 Eu478 2.363 . S
O508 C467 1.283 . S
O508 Eu486 2.359 1_565 S
O509 C469 1.283 . S
O509 Eu486 2.367 . S
O510 C466 1.283 . S
O510 Eu485 2.360 1_565 S
O511 C468 1.283 . S
O511 Eu485 2.366 . S
O512 C477 1.283 . S
O512 Eu481 2.363 . S
O513 C475 1.283 . S
O513 Eu481 2.363 . S
O514 C476 1.283 . S
O514 Eu482 2.363 . S
O515 C474 1.283 . S
O515 Eu482 2.363 . S
C222 C212 1.152 . S
C194 C220 1.155 . S
C221 C185 1.155 . S
C203 C223 1.152 . S
C267 C149 1.155 . S
C327 C158 1.155 . S
C167 C266 1.152 . S
C326 C176 1.158 . S
C113 C268 1.151 . S
C324 C122 1.155 . S
C131 C269 1.155 . S
C140 C325 1.152 . S
C375 C104 1.150 . S
C86 C374 1.153 1_556 S
C77 C376 1.157 1_556 S
C377 C95 1.154 1_554 S
C41 C418 1.151 . S
C50 C477 1.152 1_565 S
C59 C416 1.152 . S
C68 C476 1.156 1_565 S
C417 C5 1.156 . S
C474 C14 1.157 . S
C23 C419 1.155 . S
C475 C32 1.153 . S
C219 C4 1.651 . S
C16 C225 1.637 . S
C22 C217 1.653 . S
C31 C224 1.655 . S
C40 C216 1.652 . S
C226 C49 1.656 1_545 S
C61 C218 1.633 . S
C227 C70 1.637 1_545 S
C273 C34 1.637 . S
C7 C316 1.635 . S
C271 C13 1.656 . S
C318 C25 1.635 . S
C52 C272 1.637 1_565 S
C317 C58 1.652 . S
C270 C67 1.656 1_545 S
C319 C43 1.634 . S
C323 C76 1.655 1_554 S
C88 C322 1.637 1_556 S
C274 C79 1.635 1_554 S
C321 C97 1.634 1_554 S
C103 C277 1.652 . S
C106 C320 1.632 . S
C276 C85 1.651 1_554 S
C275 C94 1.652 1_554 S
C369 C112 1.650 . S
C372 C124 1.637 . S
C133 C368 1.636 . S
C370 C139 1.656 . S
C366 C148 1.652 . S
C157 C371 1.656 . S
C169 C367 1.633 . S
C373 C178 1.638 . S
C427 C142 1.635 . S
C115 C466 1.635 . S
C426 C121 1.655 . S
C468 C130 1.652 . S
C425 C160 1.638 . S
C166 C467 1.652 . S
C424 C175 1.657 . S
C469 C151 1.635 . S
C473 C184 1.655 . S
C196 C472 1.637 . S
C420 C187 1.634 . S
C205 C471 1.634 . S
C423 C211 1.653 . S
C470 C214 1.632 . S
C421 C193 1.653 . S
C202 C422 1.651 . S
