# Generated by pormake.
# Topology ssa, (4,4)-cn, num edge types: 1
# Building blocks:
#     Node 0, Type 0, BuildingBlock: ESEHIV_clean_sbu_0, # of connection points: 4
#     Node 1, Type 0, BuildingBlock: ESEHIV_clean_sbu_0, # of connection points: 4
#     Node 2, Type 0, BuildingBlock: ESEHIV_clean_sbu_0, # of connection points: 4
#     Node 3, Type 0, BuildingBlock: ESEHIV_clean_sbu_0, # of connection points: 4
#     Node 4, Type 0, BuildingBlock: ESEHIV_clean_sbu_0, # of connection points: 4
#     Node 5, Type 0, BuildingBlock: ESEHIV_clean_sbu_0, # of connection points: 4
#     Node 6, Type 1, BuildingBlock: MUDLON_clean_linker_0, # of connection points: 4
#     Node 7, Type 1, BuildingBlock: MUDLON_clean_linker_0, # of connection points: 4
#     Node 8, Type 1, BuildingBlock: MUDLON_clean_linker_0, # of connection points: 4
#     Node 9, Type 1, BuildingBlock: MUDLON_clean_linker_0, # of connection points: 4
#     Node 10, Type 1, BuildingBlock: MUDLON_clean_linker_0, # of connection points: 4
#     Node 11, Type 1, BuildingBlock: MUDLON_clean_linker_0, # of connection points: 4
#     Edge 12, Type (0, 1), BuildingBlock: MIFKUJ_clean_linker_0, # of connection points: 2
#     Edge 13, Type (0, 1), BuildingBlock: MIFKUJ_clean_linker_0, # of connection points: 2
#     Edge 14, Type (0, 1), BuildingBlock: MIFKUJ_clean_linker_0, # of connection points: 2
#     Edge 15, Type (0, 1), BuildingBlock: MIFKUJ_clean_linker_0, # of connection points: 2
#     Edge 16, Type (0, 1), BuildingBlock: MIFKUJ_clean_linker_0, # of connection points: 2
#     Edge 17, Type (0, 1), BuildingBlock: MIFKUJ_clean_linker_0, # of connection points: 2
#     Edge 18, Type (0, 1), BuildingBlock: MIFKUJ_clean_linker_0, # of connection points: 2
#     Edge 19, Type (0, 1), BuildingBlock: MIFKUJ_clean_linker_0, # of connection points: 2
#     Edge 20, Type (0, 1), BuildingBlock: MIFKUJ_clean_linker_0, # of connection points: 2
#     Edge 21, Type (0, 1), BuildingBlock: MIFKUJ_clean_linker_0, # of connection points: 2
#     Edge 22, Type (0, 1), BuildingBlock: MIFKUJ_clean_linker_0, # of connection points: 2
#     Edge 23, Type (0, 1), BuildingBlock: MIFKUJ_clean_linker_0, # of connection points: 2
#     Edge 24, Type (0, 1), BuildingBlock: MIFKUJ_clean_linker_0, # of connection points: 2
#     Edge 25, Type (0, 1), BuildingBlock: MIFKUJ_clean_linker_0, # of connection points: 2
#     Edge 26, Type (0, 1), BuildingBlock: MIFKUJ_clean_linker_0, # of connection points: 2
#     Edge 27, Type (0, 1), BuildingBlock: MIFKUJ_clean_linker_0, # of connection points: 2
#     Edge 28, Type (0, 1), BuildingBlock: MIFKUJ_clean_linker_0, # of connection points: 2
#     Edge 29, Type (0, 1), BuildingBlock: MIFKUJ_clean_linker_0, # of connection points: 2
#     Edge 30, Type (0, 1), BuildingBlock: MIFKUJ_clean_linker_0, # of connection points: 2
#     Edge 31, Type (0, 1), BuildingBlock: MIFKUJ_clean_linker_0, # of connection points: 2
#     Edge 32, Type (0, 1), BuildingBlock: MIFKUJ_clean_linker_0, # of connection points: 2
#     Edge 33, Type (0, 1), BuildingBlock: MIFKUJ_clean_linker_0, # of connection points: 2
#     Edge 34, Type (0, 1), BuildingBlock: MIFKUJ_clean_linker_0, # of connection points: 2
#     Edge 35, Type (0, 1), BuildingBlock: MIFKUJ_clean_linker_0, # of connection points: 2
# Relax obj value: 0.006
# Max RMSD: 0.101
# Mean RMSD: 0.066
data_MOF--net-ssa--node1-ESEHIV_clean_sbu_0--node2-MUDLON_clean_linker_0--edge1-MIFKUJ_clean_linker_0
_symmetry_space_group_name_H-M    P1
_symmetry_Int_Tables_number       1
_symmetry_cell_setting            triclinic
loop_
_symmetry_equiv_pos_as_xyz
'x, y, z'
_cell_length_a     85.58962
_cell_length_b     89.231798
_cell_length_c     48.87648
_cell_angle_alpha  88.828707
_cell_angle_beta   90.565973
_cell_angle_gamma 121.38675
loop_
_atom_site_label
_atom_site_type_symbol
_atom_site_fract_x
_atom_site_fract_y
_atom_site_fract_z
_atom_type_partial_charge
Cu0 Cu 0.01169 0.50876 0.04406 0.0
N1 N 0.9919 0.4864 0.05225 0.0
N2 N 0.9681 0.45922 0.04629 0.0
C3 C 0.98014 0.47473 0.03418 0.0
C4 C 0.97246 0.46124 0.07313 0.0
C5 C 0.98714 0.47806 0.07675 0.0
O6 O 0.00502 0.51797 0.01269 0.0
C7 C 0.04919 0.51932 0.03463 0.0
O8 O 0.05226 0.53527 0.03097 0.0
H9 H 0.98084 0.47731 0.0124 0.0
H10 H 0.99413 0.48371 0.09577 0.0
N11 N 0.01555 0.52332 0.07343 0.0
N12 N 0.02936 0.54434 0.10449 0.0
C13 C 0.03137 0.53427 0.08631 0.0
C14 C 0.00306 0.52636 0.0841 0.0
C15 C 0.01152 0.53933 0.10324 0.0
C16 C 0.00295 0.51244 0.98836 0.0
O17 O 0.0075 0.5009 0.98244 0.0
H18 H 0.04425 0.53539 0.08166 0.0
H19 H 0.98891 0.51997 0.07771 0.0
O20 O 0.03292 0.5066 0.03877 0.0
H21 H 0.96569 0.45123 0.08893 0.0
H22 H 0.00511 0.54487 0.11492 0.0
Cu23 Cu 0.54647 0.02339 0.48953 0.0
N24 N 0.55902 0.02036 0.46101 0.0
N25 N 0.56865 0.00682 0.43397 0.0
C26 C 0.55866 0.00538 0.4562 0.0
C27 C 0.57562 0.02345 0.42454 0.0
C28 C 0.56965 0.03175 0.44123 0.0
O29 O 0.52252 0.0021 0.49254 0.0
C30 C 0.5775 0.04166 0.52032 0.0
O31 O 0.58329 0.04946 0.49632 0.0
H32 H 0.55123 0.99368 0.46893 0.0
H33 H 0.57286 0.04514 0.43906 0.0
N34 N 0.54277 0.04202 0.48318 0.0
N35 N 0.53593 0.06232 0.49296 0.0
C36 C 0.53839 0.04948 0.50294 0.0
C37 C 0.54301 0.05033 0.45976 0.0
C38 C 0.53891 0.06298 0.46577 0.0
C39 C 0.51402 0.99677 0.46994 0.0
O40 O 0.52177 0.00596 0.4475 0.0
H41 H 0.53705 0.04552 0.52429 0.0
H42 H 0.5456 0.04722 0.43969 0.0
O43 O 0.56104 0.0289 0.52261 0.0
H44 H 0.58416 0.02916 0.40658 0.0
H45 H 0.5377 0.07162 0.4512 0.0
Cu46 Cu 0.53457 0.50511 0.0132 0.0
N47 N 0.52612 0.48141 0.02052 0.0
N48 N 0.51721 0.45345 0.01295 0.0
C49 C 0.52131 0.46899 0.00159 0.0
C50 C 0.5196 0.45619 0.04012 0.0
C51 C 0.52506 0.47347 0.04474 0.0
O52 O 0.55194 0.51323 0.98302 0.0
C53 C 0.49832 0.49648 0.99792 0.0
O54 O 0.49578 0.48147 0.98962 0.0
H55 H 0.52144 0.47149 0.9798 0.0
H56 H 0.52838 0.4799 0.06429 0.0
N57 N 0.54647 0.51879 0.04356 0.0
N58 N 0.55546 0.5402 0.07399 0.0
C59 C 0.54402 0.53147 0.05308 0.0
C60 C 0.55985 0.51934 0.05896 0.0
C61 C 0.56541 0.53251 0.07778 0.0
C62 C 0.5631 0.50783 0.98252 0.0
O63 O 0.56252 0.49732 0.00221 0.0
H64 H 0.53415 0.53432 0.04445 0.0
H65 H 0.56547 0.51106 0.05623 0.0
O66 O 0.51406 0.50826 0.00628 0.0
H67 H 0.51758 0.44644 0.05549 0.0
H68 H 0.57638 0.53646 0.09241 0.0
Cu69 Cu 0.03111 0.50081 0.51635 0.0
N70 N 0.03251 0.48645 0.49072 0.0
N71 N 0.04455 0.47623 0.4615 0.0
C72 C 0.04771 0.4897 0.47753 0.0
C73 C 0.02657 0.4641 0.46477 0.0
C74 C 0.0192 0.47044 0.48286 0.0
O75 O 0.05539 0.52159 0.51974 0.0
C76 C 0.02489 0.4768 0.56054 0.0
O77 O 0.03867 0.47607 0.55055 0.0
H78 H 0.06081 0.50171 0.47983 0.0
H79 H 0.00525 0.46373 0.49023 0.0
N80 N 0.01484 0.5075 0.50455 0.0
N81 N 0.99486 0.51629 0.50779 0.0
C82 C 0.00716 0.51373 0.52107 0.0
C83 C 0.00702 0.50588 0.47988 0.0
C84 C 0.99455 0.51125 0.48186 0.0
C85 C 0.05868 0.53544 0.53181 0.0
O86 O 0.0456 0.53529 0.54582 0.0
H87 H 0.00993 0.51562 0.54278 0.0
H88 H 0.00984 0.50075 0.46196 0.0
O89 O 0.02077 0.48741 0.54991 0.0
H90 H 0.01932 0.45133 0.45543 0.0
H91 H 0.98585 0.51131 0.46568 0.0
Cu92 Cu 0.5119 0.99054 0.99282 0.0
N93 N 0.49888 0.99379 0.96498 0.0
N94 N 0.48948 0.00736 0.93637 0.0
C95 C 0.50087 0.00923 0.95712 0.0
C96 C 0.48 0.99001 0.93103 0.0
C97 C 0.48583 0.98168 0.94872 0.0
O98 O 0.53646 0.01127 0.99331 0.0
C99 C 0.48396 0.98453 0.03087 0.0
O100 O 0.47732 0.98943 0.01063 0.0
H101 H 0.51031 0.02151 0.96684 0.0
H102 H 0.48093 0.9678 0.94969 0.0
N103 N 0.51375 0.97108 0.98577 0.0
N104 N 0.51761 0.94857 0.99427 0.0
C105 C 0.51544 0.96112 0.00516 0.0
C106 C 0.51472 0.96451 0.96171 0.0
C107 C 0.51727 0.95066 0.96691 0.0
C108 C 0.54564 0.01441 0.97136 0.0
O109 O 0.53798 0.00386 0.95065 0.0
H110 H 0.51569 0.96343 0.02687 0.0
H111 H 0.51394 0.9696 0.9418 0.0
O112 O 0.49918 0.98543 0.02777 0.0
H113 H 0.46971 0.98375 0.91529 0.0
H114 H 0.51882 0.9428 0.95184 0.0
Cu115 Cu 0.51335 0.50624 0.52862 0.0
N116 N 0.51788 0.52894 0.53357 0.0
N117 N 0.52293 0.55537 0.52133 0.0
C118 C 0.51898 0.53951 0.51271 0.0
C119 C 0.52445 0.55482 0.54878 0.0
C120 C 0.52125 0.53846 0.5563 0.0
O121 O 0.49709 0.49735 0.49709 0.0
C122 C 0.54891 0.51651 0.54218 0.0
O123 O 0.54494 0.52383 0.56175 0.0
H124 H 0.51737 0.53574 0.49148 0.0
H125 H 0.52184 0.53408 0.57684 0.0
N126 N 0.50133 0.4912 0.55835 0.0
N127 N 0.48933 0.4669 0.58446 0.0
C128 C 0.49708 0.47441 0.56019 0.0
C129 C 0.49586 0.49434 0.58218 0.0
C130 C 0.48859 0.47938 0.59846 0.0
C131 C 0.48232 0.4974 0.50006 0.0
O132 O 0.47924 0.50209 0.52376 0.0
H133 H 0.50015 0.46801 0.54437 0.0
H134 H 0.49709 0.50659 0.58749 0.0
O135 O 0.53678 0.50762 0.52427 0.0
H136 H 0.52769 0.56547 0.56241 0.0
H137 H 0.48319 0.47777 0.61895 0.0
H138 H 0.33831 0.49559 0.25119 0.0
N139 N 0.31716 0.4656 0.22266 0.0
H140 H 0.35924 0.49929 0.28874 0.0
H141 H 0.31933 0.44048 0.24897 0.0
H142 H 0.34016 0.44399 0.2864 0.0
H143 H 0.32047 0.44378 0.19063 0.0
H144 H 0.3414 0.45137 0.15221 0.0
H145 H 0.33824 0.49829 0.19957 0.0
H146 H 0.35823 0.506 0.16 0.0
H147 H 0.31376 0.4945 0.22372 0.0
H148 H 0.28337 0.438 0.22336 0.0
H149 H 0.28531 0.49452 0.22042 0.0
H150 H 0.2547 0.43772 0.22188 0.0
H151 H 0.20339 0.49112 0.23975 0.0
H152 H 0.18642 0.4923 0.27869 0.0
H153 H 0.15788 0.4358 0.28717 0.0
H154 H 0.17494 0.43477 0.24796 0.0
H155 H 0.16725 0.44189 0.18768 0.0
H156 H 0.15353 0.45171 0.15341 0.0
H157 H 0.20146 0.50407 0.15593 0.0
H158 H 0.21473 0.49403 0.1912 0.0
H159 H 0.2293 0.48751 0.23945 0.0
H160 H 0.2585 0.48894 0.24238 0.0
H161 H 0.2366 0.4429 0.19219 0.0
N162 N 0.19777 0.4614 0.21547 0.0
H163 H 0.20713 0.44101 0.19092 0.0
C164 C 0.32718 0.4677 0.2475 0.0
C165 C 0.33833 0.48422 0.25924 0.0
C166 C 0.35031 0.48631 0.28063 0.0
C167 C 0.35148 0.47195 0.29031 0.0
C168 C 0.33977 0.45534 0.27914 0.0
C169 C 0.32773 0.45326 0.25801 0.0
C170 C 0.3276 0.47037 0.19773 0.0
C171 C 0.3285 0.45734 0.18368 0.0
C172 C 0.34043 0.46175 0.16158 0.0
C173 C 0.35163 0.47937 0.1528 0.0
C174 C 0.35011 0.49234 0.16635 0.0
C175 C 0.33839 0.48792 0.1888 0.0
C176 C 0.30067 0.46619 0.22329 0.0
C177 C 0.30096 0.48208 0.22309 0.0
C178 C 0.28457 0.48204 0.22149 0.0
C179 C 0.26755 0.46612 0.22048 0.0
C180 C 0.26745 0.45027 0.22177 0.0
C181 C 0.28381 0.45035 0.22296 0.0
C182 C 0.19046 0.4628 0.24106 0.0
C183 C 0.19386 0.47904 0.25042 0.0
C184 C 0.18413 0.47969 0.27271 0.0
C185 C 0.17071 0.46413 0.28587 0.0
C186 C 0.16798 0.44799 0.27724 0.0
C187 C 0.17779 0.44737 0.25506 0.0
C188 C 0.19197 0.46715 0.19184 0.0
C189 C 0.17494 0.45538 0.18032 0.0
C190 C 0.16717 0.46106 0.16062 0.0
C191 C 0.17634 0.47875 0.15176 0.0
C192 C 0.19387 0.49042 0.16249 0.0
C193 C 0.2016 0.48469 0.18244 0.0
C194 C 0.21584 0.46389 0.21532 0.0
C195 C 0.23073 0.4777 0.22914 0.0
C196 C 0.24757 0.47858 0.23061 0.0
C197 C 0.24997 0.46587 0.2179 0.0
C198 C 0.23523 0.45262 0.203 0.0
C199 C 0.21839 0.45161 0.20192 0.0
H200 H 0.74257 0.14503 0.81579 0.0
N201 N 0.74612 0.17256 0.78845 0.0
H202 H 0.72186 0.12918 0.85394 0.0
H203 H 0.72807 0.18449 0.81834 0.0
H204 H 0.70645 0.16824 0.85568 0.0
H205 H 0.71735 0.17605 0.77282 0.0
H206 H 0.69516 0.15958 0.73702 0.0
H207 H 0.74881 0.153 0.75067 0.0
H208 H 0.72669 0.13655 0.71445 0.0
H209 H 0.77857 0.18354 0.81062 0.0
H210 H 0.74826 0.20196 0.76508 0.0
H211 H 0.80571 0.21292 0.80881 0.0
H212 H 0.77565 0.23116 0.76143 0.0
H213 H 0.88156 0.29328 0.82533 0.0
H214 H 0.89023 0.31084 0.86685 0.0
H215 H 0.85337 0.32848 0.84426 0.0
H216 H 0.84524 0.31136 0.80281 0.0
H217 H 0.85181 0.31386 0.75641 0.0
H218 H 0.87223 0.33673 0.72387 0.0
H219 H 0.90872 0.31676 0.72761 0.0
H220 H 0.8888 0.29488 0.76178 0.0
H221 H 0.85661 0.26121 0.78057 0.0
H222 H 0.82859 0.23237 0.77945 0.0
H223 H 0.79659 0.2571 0.78323 0.0
N224 N 0.85963 0.29211 0.78544 0.0
H225 H 0.82476 0.28586 0.78209 0.0
C226 C 0.73661 0.1657 0.81404 0.0
C227 C 0.73508 0.15038 0.82495 0.0
C228 C 0.72307 0.14126 0.84652 0.0
C229 C 0.7121 0.14717 0.85741 0.0
C230 C 0.71465 0.16328 0.84776 0.0
C231 C 0.7269 0.17254 0.8263 0.0
C232 C 0.73475 0.16566 0.7645 0.0
C233 C 0.71968 0.16768 0.75997 0.0
C234 C 0.70694 0.15819 0.73957 0.0
C235 C 0.7091 0.14665 0.72315 0.0
C236 C 0.72472 0.14542 0.72669 0.0
C237 C 0.73737 0.1548 0.74729 0.0
C238 C 0.76144 0.19041 0.78782 0.0
C239 C 0.77784 0.19395 0.80008 0.0
C240 C 0.79342 0.21076 0.79866 0.0
C241 C 0.79313 0.22449 0.78443 0.0
C242 C 0.77648 0.22102 0.77267 0.0
C243 C 0.76074 0.20419 0.77457 0.0
C244 C 0.86278 0.30096 0.81101 0.0
C245 C 0.8752 0.30076 0.82965 0.0
C246 C 0.88006 0.31073 0.85336 0.0
C247 C 0.87256 0.32114 0.85878 0.0
C248 C 0.8596 0.32081 0.84049 0.0
C249 C 0.85479 0.31086 0.81681 0.0
C250 C 0.86904 0.30293 0.7619 0.0
C251 C 0.86415 0.31438 0.75009 0.0
C252 C 0.87584 0.32739 0.73123 0.0
C253 C 0.89245 0.32895 0.72342 0.0
C254 C 0.89643 0.31644 0.73373 0.0
C255 C 0.88492 0.30371 0.75294 0.0
C256 C 0.8428 0.27562 0.78194 0.0
C257 C 0.8435 0.26034 0.78071 0.0
C258 C 0.82742 0.24386 0.78048 0.0
C259 C 0.81017 0.24224 0.78202 0.0
C260 C 0.80953 0.25771 0.78204 0.0
C261 C 0.8257 0.27425 0.7817 0.0
H262 H 0.56405 0.84028 0.26528 0.0
N263 N 0.59587 0.84573 0.24261 0.0
H264 H 0.56164 0.85908 0.29812 0.0
H265 H 0.62282 0.87048 0.27224 0.0
H266 H 0.62055 0.88912 0.30608 0.0
H267 H 0.61392 0.87171 0.2065 0.0
H268 H 0.60127 0.87923 0.16707 0.0
H269 H 0.56103 0.82566 0.22271 0.0
H270 H 0.54824 0.83309 0.18342 0.0
H271 H 0.56843 0.81601 0.26847 0.0
H272 H 0.61928 0.83731 0.22451 0.0
H273 H 0.5663 0.78763 0.27265 0.0
H274 H 0.61729 0.80899 0.22863 0.0
H275 H 0.56021 0.71465 0.28117 0.0
H276 H 0.54742 0.69344 0.31924 0.0
H277 H 0.60209 0.7079 0.34401 0.0
H278 H 0.61471 0.72921 0.30604 0.0
H279 H 0.62144 0.72782 0.24885 0.0
H280 H 0.61683 0.70469 0.21784 0.0
H281 H 0.56131 0.6918 0.20339 0.0
H282 H 0.56632 0.7154 0.23373 0.0
H283 H 0.58518 0.74958 0.30374 0.0
H284 H 0.58324 0.77544 0.29682 0.0
H285 H 0.59886 0.7786 0.21231 0.0
N286 N 0.59636 0.7343 0.26652 0.0
H287 H 0.60086 0.75257 0.21893 0.0
C288 C 0.59371 0.85404 0.26611 0.0
C289 C 0.57645 0.85063 0.27446 0.0
C290 C 0.57508 0.86143 0.29342 0.0
C291 C 0.59092 0.87582 0.30453 0.0
C292 C 0.60808 0.87841 0.29752 0.0
C293 C 0.60942 0.86765 0.27845 0.0
C294 C 0.58846 0.84826 0.21757 0.0
C295 C 0.59967 0.86306 0.20117 0.0
C296 C 0.59243 0.86728 0.17866 0.0
C297 C 0.57374 0.85678 0.17226 0.0
C298 C 0.56265 0.84151 0.18806 0.0
C299 C 0.56995 0.83723 0.21046 0.0
C300 C 0.5942 0.8289 0.2464 0.0
C301 C 0.5792 0.81466 0.25985 0.0
C302 C 0.57797 0.7984 0.26219 0.0
C303 C 0.59158 0.79603 0.25084 0.0
C304 C 0.60644 0.81028 0.23723 0.0
C305 C 0.60771 0.82651 0.2351 0.0
C306 C 0.58847 0.72348 0.2908 0.0
C307 C 0.56942 0.71337 0.29498 0.0
C308 C 0.56214 0.70122 0.3167 0.0
C309 C 0.57373 0.6989 0.33456 0.0
C310 C 0.59278 0.70951 0.33087 0.0
C311 C 0.60004 0.72165 0.30919 0.0
C312 C 0.59427 0.72328 0.24378 0.0
C313 C 0.60847 0.72032 0.23835 0.0
C314 C 0.60571 0.70695 0.22091 0.0
C315 C 0.58857 0.69614 0.20856 0.0
C316 C 0.57468 0.69988 0.21254 0.0
C317 C 0.57749 0.71333 0.22999 0.0
C318 C 0.59223 0.74806 0.2615 0.0
C319 C 0.5875 0.75518 0.28328 0.0
C320 C 0.58649 0.77021 0.27943 0.0
C321 C 0.59075 0.77901 0.254 0.0
C322 C 0.59546 0.77208 0.2322 0.0
C323 C 0.59634 0.75695 0.23594 0.0
H324 H 0.88852 0.57805 0.78297 0.0
N325 N 0.86005 0.55633 0.75266 0.0
H326 H 0.90324 0.57023 0.81891 0.0
H327 H 0.84566 0.5238 0.77651 0.0
H328 H 0.86051 0.5157 0.81225 0.0
H329 H 0.85251 0.52571 0.72922 0.0
H330 H 0.86785 0.52289 0.68965 0.0
H331 H 0.8842 0.58206 0.71993 0.0
H332 H 0.89979 0.57935 0.68013 0.0
H333 H 0.8514 0.57726 0.77736 0.0
H334 H 0.82824 0.53097 0.72812 0.0
H335 H 0.8228 0.57699 0.77419 0.0
H336 H 0.80019 0.53132 0.72302 0.0
H337 H 0.73354 0.58138 0.73966 0.0
H338 H 0.71112 0.57695 0.77428 0.0
H339 H 0.71115 0.53115 0.80505 0.0
H340 H 0.73253 0.53506 0.76933 0.0
H341 H 0.71725 0.52748 0.71823 0.0
H342 H 0.69641 0.5193 0.67934 0.0
H343 H 0.73128 0.57085 0.64301 0.0
H344 H 0.75167 0.57906 0.68263 0.0
H345 H 0.78027 0.58627 0.73551 0.0
H346 H 0.80725 0.58414 0.74303 0.0
H347 H 0.77321 0.52749 0.74053 0.0
N348 N 0.74599 0.56048 0.72854 0.0
H349 H 0.74656 0.53 0.73113 0.0
C350 C 0.86614 0.55154 0.77703 0.0
C351 C 0.88208 0.56449 0.78984 0.0
C352 C 0.89046 0.55998 0.81033 0.0
C353 C 0.88312 0.54232 0.81827 0.0
C354 C 0.8666 0.52939 0.80631 0.0
C355 C 0.85807 0.53399 0.78599 0.0
C356 C 0.86713 0.55416 0.72739 0.0
C357 C 0.86249 0.53748 0.71832 0.0
C358 C 0.87126 0.53587 0.69562 0.0
C359 C 0.88503 0.5509 0.68181 0.0
C360 C 0.8893 0.56755 0.69048 0.0
C361 C 0.88036 0.56912 0.71303 0.0
C362 C 0.84221 0.55439 0.7527 0.0
C363 C 0.84012 0.56702 0.76589 0.0
C364 C 0.82379 0.56696 0.76369 0.0
C365 C 0.80917 0.55439 0.74773 0.0
C366 C 0.811 0.5412 0.73556 0.0
C367 C 0.82726 0.54108 0.73826 0.0
C368 C 0.73491 0.55873 0.75188 0.0
C369 C 0.72886 0.57053 0.75417 0.0
C370 C 0.71607 0.56799 0.7741 0.0
C371 C 0.70915 0.55361 0.79255 0.0
C372 C 0.71581 0.54216 0.7909 0.0
C373 C 0.72835 0.54455 0.7706 0.0
C374 C 0.73595 0.55398 0.70338 0.0
C375 C 0.72064 0.53686 0.70157 0.0
C376 C 0.70874 0.53219 0.67921 0.0
C377 C 0.71198 0.54451 0.65817 0.0
C378 C 0.72812 0.56116 0.65911 0.0
C379 C 0.73992 0.56583 0.68154 0.0
C380 C 0.76144 0.55838 0.733 0.0
C381 C 0.77871 0.57342 0.73654 0.0
C382 C 0.79409 0.57211 0.74117 0.0
C383 C 0.79254 0.5556 0.74285 0.0
C384 C 0.7751 0.54045 0.73917 0.0
C385 C 0.75974 0.54183 0.73403 0.0
H386 H 0.20613 0.6962 0.32331 0.0
N387 N 0.2017 0.7243 0.31738 0.0
H388 H 0.19503 0.67538 0.36162 0.0
H389 H 0.19302 0.72977 0.36672 0.0
H390 H 0.18331 0.70979 0.40633 0.0
H391 H 0.16694 0.71347 0.30738 0.0
H392 H 0.14709 0.69267 0.27286 0.0
H393 H 0.21288 0.71197 0.27571 0.0
H394 H 0.19334 0.69162 0.24049 0.0
H395 H 0.23564 0.72912 0.30952 0.0
H396 H 0.20603 0.75583 0.31515 0.0
H397 H 0.26405 0.75725 0.30046 0.0
H398 H 0.23423 0.78399 0.30778 0.0
H399 H 0.34594 0.84346 0.31161 0.0
H400 H 0.36491 0.85776 0.3511 0.0
H401 H 0.32397 0.86797 0.38111 0.0
H402 H 0.30572 0.85474 0.34 0.0
H403 H 0.32115 0.87266 0.27421 0.0
H404 H 0.3425 0.88937 0.23708 0.0
H405 H 0.3541 0.848 0.2284 0.0
H406 H 0.33263 0.83139 0.26584 0.0
H407 H 0.31366 0.81331 0.31725 0.0
H408 H 0.28656 0.78382 0.32054 0.0
H409 H 0.25564 0.80175 0.27479 0.0
N410 N 0.31462 0.84278 0.29709 0.0
H411 H 0.28248 0.8314 0.27336 0.0
C412 C 0.19989 0.7143 0.34193 0.0
C413 C 0.20137 0.69935 0.34147 0.0
C414 C 0.19512 0.68747 0.36366 0.0
C415 C 0.18773 0.69056 0.38702 0.0
C416 C 0.18821 0.70656 0.38838 0.0
C417 C 0.19402 0.71817 0.36594 0.0
C418 C 0.19133 0.71433 0.29408 0.0
C419 C 0.17281 0.70899 0.29245 0.0
C420 C 0.16153 0.69714 0.27263 0.0
C421 C 0.16859 0.69039 0.2539 0.0
C422 C 0.18739 0.69636 0.25483 0.0
C423 C 0.19866 0.70818 0.27479 0.0
C424 C 0.21874 0.74049 0.3126 0.0
C425 C 0.23529 0.74107 0.30874 0.0
C426 C 0.25154 0.7572 0.30383 0.0
C427 C 0.25151 0.773 0.30303 0.0
C428 C 0.23484 0.77218 0.30739 0.0
C429 C 0.21869 0.75612 0.31192 0.0
C430 C 0.32462 0.8485 0.32247 0.0
C431 C 0.34102 0.84875 0.32665 0.0
C432 C 0.35178 0.85676 0.34965 0.0
C433 C 0.34619 0.86433 0.36937 0.0
C434 C 0.32904 0.86278 0.36608 0.0
C435 C 0.31847 0.85507 0.34274 0.0
C436 C 0.32532 0.85086 0.27271 0.0
C437 C 0.32804 0.86708 0.26388 0.0
C438 C 0.34023 0.87657 0.24265 0.0
C439 C 0.35007 0.87005 0.22981 0.0
C440 C 0.34688 0.85346 0.23808 0.0
C441 C 0.33453 0.8439 0.25929 0.0
C442 C 0.29993 0.82469 0.29562 0.0
C443 C 0.30106 0.81088 0.30788 0.0
C444 C 0.28553 0.79392 0.30954 0.0
C445 C 0.26869 0.79038 0.29849 0.0
C446 C 0.26812 0.80402 0.2844 0.0
C447 C 0.28351 0.82097 0.28324 0.0
H448 H 0.44036 0.13899 0.70205 0.0
N449 N 0.45909 0.16675 0.73314 0.0
H450 H 0.45161 0.1305 0.66339 0.0
H451 H 0.49184 0.18796 0.70696 0.0
H452 H 0.50314 0.17999 0.66738 0.0
H453 H 0.49174 0.17145 0.7508 0.0
H454 H 0.49572 0.15332 0.78471 0.0
H455 H 0.43384 0.14333 0.76735 0.0
H456 H 0.43773 0.12552 0.80235 0.0
H457 H 0.43357 0.17405 0.72086 0.0
H458 H 0.48753 0.19665 0.75549 0.0
H459 H 0.43341 0.20065 0.73118 0.0
H460 H 0.48729 0.2231 0.76692 0.0
H461 H 0.42771 0.27309 0.74602 0.0
H462 H 0.43064 0.2949 0.71187 0.0
H463 H 0.48955 0.32118 0.71779 0.0
H464 H 0.48643 0.29989 0.75251 0.0
H465 H 0.4881 0.29149 0.79959 0.0
H466 H 0.49632 0.31166 0.83777 0.0
H467 H 0.43961 0.29606 0.84635 0.0
H468 H 0.43161 0.27618 0.80795 0.0
H469 H 0.42866 0.24013 0.78048 0.0
H470 H 0.43076 0.21452 0.77039 0.0
H471 H 0.48782 0.2488 0.74918 0.0
N472 N 0.45442 0.27364 0.775 0.0
H473 H 0.4857 0.27421 0.76038 0.0
C474 C 0.46515 0.16406 0.70729 0.0
C475 C 0.45392 0.14815 0.69411 0.0
C476 C 0.46041 0.14337 0.67191 0.0
C477 C 0.47837 0.15451 0.66215 0.0
C478 C 0.48935 0.17094 0.67455 0.0
C479 C 0.48284 0.17564 0.69701 0.0
C480 C 0.46239 0.15855 0.75634 0.0
C481 C 0.47993 0.16165 0.76224 0.0
C482 C 0.4822 0.15129 0.78182 0.0
C483 C 0.467 0.13776 0.79605 0.0
C484 C 0.44967 0.13554 0.79135 0.0
C485 C 0.44742 0.1458 0.7716 0.0
C486 C 0.46041 0.18329 0.73755 0.0
C487 C 0.44541 0.18483 0.73063 0.0
C488 C 0.44529 0.19997 0.73685 0.0
C489 C 0.46021 0.21395 0.75038 0.0
C490 C 0.47559 0.21264 0.75646 0.0
C491 C 0.47572 0.19746 0.75003 0.0
C492 C 0.45677 0.28475 0.7517 0.0
C493 C 0.44122 0.28336 0.73942 0.0
C494 C 0.44295 0.29581 0.71989 0.0
C495 C 0.46034 0.3099 0.71228 0.0
C496 C 0.47594 0.31067 0.72353 0.0
C497 C 0.47419 0.29831 0.74318 0.0
C498 C 0.45918 0.28236 0.80089 0.0
C499 C 0.47739 0.29209 0.81011 0.0
C500 C 0.48207 0.30362 0.83196 0.0
C501 C 0.46865 0.30566 0.84477 0.0
C502 C 0.45031 0.29501 0.8366 0.0
C503 C 0.44567 0.28351 0.81491 0.0
C504 C 0.45689 0.25905 0.77104 0.0
C505 C 0.44165 0.24205 0.77396 0.0
C506 C 0.44286 0.22747 0.76787 0.0
C507 C 0.4594 0.22957 0.75847 0.0
C508 C 0.47488 0.24666 0.75642 0.0
C509 C 0.47366 0.26128 0.76271 0.0
H510 H 0.0843 0.54333 0.04965 0.0
H511 H 0.10815 0.53752 0.06363 0.0
H512 H 0.07289 0.48302 0.04288 0.0
H513 H 0.04871 0.48865 0.03009 0.0
H514 H 0.08598 0.48406 0.08978 0.0
H515 H 0.11356 0.51362 0.00555 0.0
H516 H 0.12528 0.53726 0.97046 0.0
H517 H 0.16442 0.57357 0.02773 0.0
H518 H 0.15277 0.5502 0.0633 0.0
H519 H 0.15335 0.46147 0.10869 0.0
H520 H 0.1341 0.4697 0.0834 0.0
H521 H 0.15883 0.51858 0.12625 0.0
H522 H 0.17759 0.51019 0.15264 0.0
H523 H 0.15197 0.52018 0.06634 0.0
H524 H 0.122 0.48952 0.15083 0.0
H525 H 0.11047 0.46483 0.18403 0.0
H526 H 0.07556 0.42918 0.12238 0.0
H527 H 0.08713 0.45365 0.08867 0.0
C528 C 0.08176 0.53018 0.04755 0.0
C529 C 0.06461 0.51644 0.03878 0.0
C530 C 0.09547 0.52687 0.05548 0.0
C531 C 0.09247 0.50983 0.05417 0.0
C532 C 0.07558 0.49627 0.04424 0.0
C533 C 0.06177 0.49951 0.0368 0.0
C534 C 0.10625 0.50582 0.06521 0.0
C535 C 0.10033 0.49182 0.08414 0.0
C536 C 0.12513 0.51609 0.05849 0.0
C537 C 0.13217 0.53019 0.03717 0.0
C538 C 0.12457 0.52668 0.01073 0.0
C539 C 0.13122 0.54002 0.99074 0.0
C540 C 0.14556 0.55691 0.99688 0.0
C541 C 0.1533 0.56048 0.02301 0.0
C542 C 0.14669 0.54719 0.04309 0.0
C543 C 0.15478 0.474 0.11279 0.0
C544 C 0.16689 0.48502 0.13311 0.0
C545 C 0.14385 0.47874 0.0981 0.0
C546 C 0.14496 0.49468 0.10311 0.0
C547 C 0.15783 0.50624 0.12202 0.0
C548 C 0.16861 0.50142 0.13702 0.0
C549 C 0.13153 0.49849 0.09052 0.0
C550 C 0.13755 0.51244 0.07156 0.0
C551 C 0.11269 0.48805 0.09685 0.0
C552 C 0.10559 0.47337 0.11716 0.0
C553 C 0.11199 0.47639 0.14429 0.0
C554 C 0.10543 0.46245 0.16321 0.0
C555 C 0.09233 0.44544 0.1553 0.0
C556 C 0.08573 0.44236 0.12846 0.0
C557 C 0.09228 0.45626 0.10945 0.0
H558 H 0.08726 0.43466 0.16998 0.0
H559 H 0.15069 0.56723 0.98137 0.0
H560 H 0.56834 0.03773 0.57486 0.0
H561 H 0.5891 0.05282 0.61332 0.0
H562 H 0.63498 0.07684 0.55772 0.0
H563 H 0.6145 0.06198 0.5195 0.0
H564 H 0.64255 0.06508 0.60606 0.0
H565 H 0.61541 0.09885 0.57603 0.0
H566 H 0.58941 0.10282 0.56657 0.0
H567 H 0.57236 0.0903 0.65049 0.0
H568 H 0.59811 0.08598 0.66034 0.0
H569 H 0.71307 0.13987 0.67017 0.0
H570 H 0.68909 0.11964 0.63898 0.0
H571 H 0.64838 0.10664 0.70133 0.0
H572 H 0.67229 0.12716 0.73233 0.0
H573 H 0.63571 0.10975 0.65426 0.0
H574 H 0.664 0.07869 0.68611 0.0
H575 H 0.68942 0.07399 0.69641 0.0
H576 H 0.70343 0.08006 0.61113 0.0
H577 H 0.67826 0.08504 0.60035 0.0
C578 C 0.58289 0.04601 0.57098 0.0
C579 C 0.5898 0.04877 0.54419 0.0
C580 C 0.5947 0.05467 0.5929 0.0
C581 C 0.61354 0.06606 0.58828 0.0
C582 C 0.6205 0.06813 0.56173 0.0
C583 C 0.60875 0.05967 0.53989 0.0
C584 C 0.6261 0.07667 0.61055 0.0
C585 C 0.64112 0.0749 0.61658 0.0
C586 C 0.62392 0.08913 0.62473 0.0
C587 C 0.60854 0.09188 0.61884 0.0
C588 C 0.60602 0.0968 0.59241 0.0
C589 C 0.59135 0.09913 0.58698 0.0
C590 C 0.5792 0.09676 0.60789 0.0
C591 C 0.58175 0.09209 0.6343 0.0
C592 C 0.59638 0.0897 0.63982 0.0
C593 C 0.699 0.13269 0.67717 0.0
C594 C 0.69455 0.13507 0.70367 0.0
C595 C 0.68531 0.12108 0.6594 0.0
C596 C 0.66694 0.11134 0.66797 0.0
C597 C 0.66244 0.11397 0.69425 0.0
C598 C 0.6761 0.12573 0.71192 0.0
C599 C 0.65247 0.09845 0.64947 0.0
C600 C 0.63707 0.09978 0.64413 0.0
C601 C 0.65421 0.08546 0.63608 0.0
C602 C 0.66932 0.08237 0.64245 0.0
C603 C 0.67258 0.07914 0.66957 0.0
C604 C 0.68694 0.07641 0.67549 0.0
C605 C 0.69806 0.07676 0.65445 0.0
C606 C 0.69482 0.0798 0.62742 0.0
C607 C 0.68049 0.08256 0.62138 0.0
H608 H 0.70917 0.07465 0.65907 0.0
H609 H 0.56785 0.09857 0.60366 0.0
H610 H 0.54364 0.56193 0.05682 0.0
H611 H 0.54778 0.58768 0.07971 0.0
H612 H 0.5766 0.57935 0.14536 0.0
H613 H 0.5718 0.553 0.12321 0.0
H614 H 0.55423 0.58875 0.16534 0.0
H615 H 0.59948 0.61041 0.09395 0.0
H616 H 0.61067 0.61355 0.04664 0.0
H617 H 0.57759 0.63449 0.02086 0.0
H618 H 0.56601 0.63125 0.06798 0.0
H619 H 0.59931 0.67305 0.22252 0.0
H620 H 0.5926 0.64651 0.19902 0.0
H621 H 0.56203 0.65604 0.13774 0.0
H622 H 0.56916 0.68305 0.16083 0.0
H623 H 0.58405 0.64592 0.11504 0.0
H624 H 0.5398 0.62529 0.18723 0.0
H625 H 0.52935 0.62275 0.23486 0.0
H626 H 0.56117 0.60025 0.25951 0.0
H627 H 0.57202 0.60288 0.21205 0.0
C628 C 0.55065 0.56531 0.07628 0.0
C629 C 0.55747 0.55528 0.08796 0.0
C630 C 0.55318 0.58024 0.08925 0.0
C631 C 0.5628 0.58567 0.11404 0.0
C632 C 0.56924 0.57549 0.12614 0.0
C633 C 0.56661 0.56048 0.11327 0.0
C634 C 0.56637 0.60209 0.12714 0.0
C635 C 0.56094 0.60127 0.15443 0.0
C636 C 0.57473 0.6184 0.11275 0.0
C637 C 0.58174 0.62042 0.08443 0.0
C638 C 0.59449 0.61556 0.07815 0.0
C639 C 0.60092 0.61738 0.05138 0.0
C640 C 0.59481 0.62417 0.03074 0.0
C641 C 0.58229 0.6292 0.03686 0.0
C642 C 0.5758 0.6274 0.0636 0.0
C643 C 0.59138 0.66969 0.20382 0.0
C644 C 0.58484 0.68026 0.1935 0.0
C645 C 0.58737 0.65437 0.19058 0.0
C646 C 0.5766 0.64914 0.16682 0.0
C647 C 0.57029 0.65978 0.15613 0.0
C648 C 0.57429 0.67515 0.16943 0.0
C649 C 0.57202 0.63258 0.15324 0.0
C650 C 0.57726 0.63337 0.12589 0.0
C651 C 0.56354 0.61626 0.1676 0.0
C652 C 0.55684 0.61442 0.1961 0.0
C653 C 0.54466 0.6199 0.20283 0.0
C654 C 0.53865 0.61844 0.22979 0.0
C655 C 0.54462 0.61138 0.2502 0.0
C656 C 0.55657 0.60573 0.24367 0.0
C657 C 0.56263 0.60718 0.21673 0.0
H658 H 0.53996 0.61027 0.27105 0.0
H659 H 0.59981 0.62556 0.01003 0.0
H660 H 0.00562 0.54144 0.5452 0.0
H661 H 0.98612 0.54875 0.57069 0.0
H662 H 0.93926 0.51106 0.52427 0.0
H663 H 0.95901 0.5041 0.49812 0.0
H664 H 0.93716 0.53957 0.53476 0.0
H665 H 0.94784 0.49987 0.58729 0.0
H666 H 0.96683 0.48935 0.60822 0.0
H667 H 0.99431 0.53549 0.65727 0.0
H668 H 0.97563 0.54639 0.6364 0.0
H669 H 0.87235 0.52841 0.63869 0.0
H670 H 0.89055 0.52388 0.60508 0.0
H671 H 0.94017 0.56464 0.64228 0.0
H672 H 0.92211 0.56918 0.67591 0.0
H673 H 0.93943 0.53332 0.63564 0.0
H674 H 0.92792 0.5726 0.58235 0.0
H675 H 0.90857 0.58248 0.5608 0.0
H676 H 0.88136 0.53559 0.51339 0.0
H677 H 0.90038 0.5253 0.53497 0.0
C678 C 0.99119 0.53489 0.54026 0.0
C679 C 0.98373 0.52207 0.52 0.0
C680 C 0.98006 0.53902 0.55483 0.0
C681 C 0.96114 0.53012 0.54988 0.0
C682 C 0.9538 0.51801 0.52854 0.0
C683 C 0.96505 0.51405 0.51362 0.0
C684 C 0.94905 0.53274 0.56815 0.0
C685 C 0.93746 0.53797 0.55679 0.0
C686 C 0.94954 0.53078 0.59693 0.0
C687 C 0.96045 0.52403 0.61009 0.0
C688 C 0.95799 0.50781 0.60245 0.0
C689 C 0.9687 0.50179 0.61429 0.0
C690 C 0.98184 0.5118 0.63394 0.0
C691 C 0.98417 0.52778 0.64198 0.0
C692 C 0.9735 0.53388 0.63019 0.0
C693 C 0.88714 0.53648 0.63951 0.0
C694 C 0.89582 0.54916 0.65987 0.0
C695 C 0.8975 0.53395 0.62026 0.0
C696 C 0.91669 0.54397 0.62119 0.0
C697 C 0.92537 0.55681 0.64121 0.0
C698 C 0.91504 0.55947 0.66026 0.0
C699 C 0.92779 0.54044 0.6023 0.0
C700 C 0.93911 0.53489 0.6136 0.0
C701 C 0.92686 0.54191 0.57353 0.0
C702 C 0.91544 0.54809 0.5605 0.0
C703 C 0.91769 0.56432 0.56752 0.0
C704 C 0.90681 0.57001 0.55526 0.0
C705 C 0.89371 0.55965 0.5358 0.0
C706 C 0.89149 0.54359 0.5285 0.0
C707 C 0.90233 0.53783 0.54073 0.0
H708 H 0.8853 0.56408 0.52632 0.0
H709 H 0.99018 0.50716 0.643 0.0
H710 H 0.45053 0.97965 0.04318 0.0
H711 H 0.4297 0.96129 0.07965 0.0
H712 H 0.47009 0.95007 0.11014 0.0
H713 H 0.49097 0.96825 0.07331 0.0
H714 H 0.43761 0.92057 0.1054 0.0
H715 H 0.45922 0.97622 0.14577 0.0
H716 H 0.46697 0.00693 0.14788 0.0
H717 H 0.41075 0.9905 0.13332 0.0
H718 H 0.4027 0.9597 0.13074 0.0
H719 H 0.38449 0.87543 0.22471 0.0
H720 H 0.40864 0.89544 0.19288 0.0
H721 H 0.37206 0.90981 0.15635 0.0
H722 H 0.34788 0.88984 0.1881 0.0
H723 H 0.40456 0.93837 0.1669 0.0
H724 H 0.38352 0.88289 0.12389 0.0
H725 H 0.37599 0.85224 0.12163 0.0
H726 H 0.43157 0.86859 0.14153 0.0
H727 H 0.43937 0.89932 0.14426 0.0
C728 C 0.45513 0.97352 0.05786 0.0
C729 C 0.47244 0.97543 0.05526 0.0
C730 C 0.4432 0.96304 0.0788 0.0
C731 C 0.44834 0.95435 0.09778 0.0
C732 C 0.46581 0.95664 0.09574 0.0
C733 C 0.47778 0.96713 0.07475 0.0
C734 C 0.43502 0.94207 0.11861 0.0
C735 C 0.43063 0.92455 0.11922 0.0
C736 C 0.42561 0.94714 0.13624 0.0
C737 C 0.43039 0.96565 0.13784 0.0
C738 C 0.44853 0.97917 0.14281 0.0
C739 C 0.45298 0.99659 0.14413 0.0
C740 C 0.43937 1.00067 0.14068 0.0
C741 C 0.42128 0.98732 0.13597 0.0
C742 C 0.41676 0.96987 0.13461 0.0
C743 C 0.38148 0.88261 0.20958 0.0
C744 C 0.36424 0.88102 0.20895 0.0
C745 C 0.39533 0.8941 0.19144 0.0
C746 C 0.39217 0.90411 0.17213 0.0
C747 C 0.37487 0.90231 0.17116 0.0
C748 C 0.36106 0.89089 0.18933 0.0
C749 C 0.40697 0.91683 0.1534 0.0
C750 C 0.41164 0.93443 0.15322 0.0
C751 C 0.41666 0.91184 0.13621 0.0
C752 C 0.41198 0.89337 0.13458 0.0
C753 C 0.3941 0.87993 0.12801 0.0
C754 C 0.38979 0.86255 0.1266 0.0
C755 C 0.40328 0.85846 0.13152 0.0
C756 C 0.42112 0.87177 0.13778 0.0
C757 C 0.4255 0.88917 0.13924 0.0
H758 H 0.39991 0.845 0.1304 0.0
H759 H 0.44284 0.01417 0.14172 0.0
H760 H 0.49549 0.45783 0.63448 0.0
H761 H 0.48831 0.42856 0.64993 0.0
H762 H 0.4639 0.40752 0.57163 0.0
H763 H 0.47165 0.43699 0.55578 0.0
H764 H 0.4439 0.38869 0.62992 0.0
H765 H 0.49585 0.40837 0.57045 0.0
H766 H 0.5267 0.42899 0.5522 0.0
H767 H 0.54999 0.43023 0.63099 0.0
H768 H 0.51928 0.4103 0.64992 0.0
H769 H 0.44043 0.30803 0.66645 0.0
H770 H 0.44298 0.33257 0.63909 0.0
H771 H 0.48688 0.36921 0.69103 0.0
H772 H 0.48428 0.34497 0.71852 0.0
H773 H 0.49496 0.37769 0.63767 0.0
H774 H 0.44361 0.36086 0.69821 0.0
H775 H 0.41314 0.34026 0.71784 0.0
H776 H 0.38888 0.33301 0.63816 0.0
H777 H 0.41927 0.35341 0.61801 0.0
C778 C 0.48846 0.44692 0.6207 0.0
C779 C 0.48413 0.44958 0.59398 0.0
C780 C 0.48442 0.43027 0.62947 0.0
C781 C 0.47563 0.41598 0.61185 0.0
C782 C 0.47071 0.41845 0.58544 0.0
C783 C 0.47519 0.43521 0.57642 0.0
C784 C 0.47228 0.39868 0.62103 0.0
C785 C 0.45492 0.38607 0.63112 0.0
C786 C 0.48676 0.39546 0.62287 0.0
C787 C 0.50521 0.40807 0.61172 0.0
C788 C 0.50751 0.41338 0.58403 0.0
C789 C 0.52501 0.42493 0.57352 0.0
C790 C 0.54033 0.43105 0.59042 0.0
C791 C 0.53816 0.42567 0.61789 0.0
C792 C 0.5207 0.41429 0.62856 0.0
C793 C 0.45059 0.32132 0.67205 0.0
C794 C 0.46224 0.32452 0.69458 0.0
C795 C 0.45203 0.33531 0.65639 0.0
C796 C 0.46508 0.35271 0.6631 0.0
C797 C 0.4768 0.35589 0.68536 0.0
C798 C 0.47536 0.34198 0.70098 0.0
C799 C 0.46669 0.36781 0.64727 0.0
C800 C 0.48378 0.38008 0.63599 0.0
C801 C 0.45197 0.37069 0.64444 0.0
C802 C 0.43372 0.35848 0.65656 0.0
C803 C 0.4318 0.35475 0.68485 0.0
C804 C 0.41454 0.34314 0.69607 0.0
C805 C 0.3991 0.33529 0.67924 0.0
C806 C 0.40087 0.33907 0.65116 0.0
C807 C 0.4181 0.35066 0.63983 0.0
H808 H 0.38575 0.3263 0.68797 0.0
H809 H 0.55386 0.43986 0.58215 0.0
H810 H 0.59668 0.01147 0.40201 0.0
H811 H 0.60038 0.9887 0.38183 0.0
H812 H 0.55005 0.94874 0.41974 0.0
H813 H 0.54611 0.97142 0.43975 0.0
H814 H 0.57679 0.9409 0.42472 0.0
H815 H 0.55073 0.95826 0.3528 0.0
H816 H 0.54837 0.97908 0.32164 0.0
H817 H 0.60112 0.9954 0.28781 0.0
H818 H 0.60391 0.97485 0.31906 0.0
H819 H 0.56523 0.86982 0.34366 0.0
H820 H 0.56159 0.89166 0.36749 0.0
H821 H 0.61005 0.93323 0.32758 0.0
H822 H 0.61332 0.91159 0.30284 0.0
H823 H 0.5834 0.93973 0.32419 0.0
H824 H 0.60948 0.92228 0.39642 0.0
H825 H 0.61168 0.90142 0.4277 0.0
H826 H 0.55877 0.88507 0.46091 0.0
H827 H 0.55614 0.90567 0.42956 0.0
C828 C 0.5863 0.99786 0.40591 0.0
C829 C 0.57105 0.99335 0.42246 0.0
C830 C 0.58847 0.98484 0.39441 0.0
C831 C 0.5754 0.967 0.39906 0.0
C832 C 0.56033 0.96242 0.41593 0.0
C833 C 0.55813 0.97544 0.42743 0.0
C834 C 0.57737 0.95316 0.38602 0.0
C835 C 0.57801 0.94049 0.40271 0.0
C836 C 0.57927 0.95281 0.35735 0.0
C837 C 0.5776 0.96514 0.33846 0.0
C838 C 0.56189 0.96639 0.33887 0.0
C839 C 0.56047 0.97812 0.32116 0.0
C840 C 0.57461 0.98859 0.3028 0.0
C841 C 0.59019 0.98731 0.30207 0.0
C842 C 0.59169 0.9756 0.31976 0.0
C843 C 0.57513 0.88361 0.33997 0.0
C844 C 0.58959 0.8889 0.32131 0.0
C845 C 0.57313 0.8961 0.35382 0.0
C846 C 0.58562 0.91413 0.3495 0.0
C847 C 0.60024 0.91941 0.3313 0.0
C848 C 0.60221 0.90697 0.31738 0.0
C849 C 0.58307 0.92754 0.36288 0.0
C850 C 0.58223 0.94012 0.34622 0.0
C851 C 0.58098 0.92777 0.39155 0.0
C852 C 0.58254 0.91539 0.41044 0.0
C853 C 0.59825 0.91413 0.41024 0.0
C854 C 0.59959 0.90238 0.42801 0.0
C855 C 0.58535 0.89189 0.44623 0.0
C856 C 0.56977 0.89318 0.44676 0.0
C857 C 0.56836 0.9049 0.42901 0.0
H858 H 0.58642 0.8828 0.45998 0.0
H859 H 0.57348 0.99766 0.28911 0.0
H860 H 0.58066 0.53896 0.95351 0.0
H861 H 0.60574 0.54853 0.92063 0.0
H862 H 0.60068 0.49788 0.92846 0.0
H863 H 0.57649 0.48877 0.96228 0.0
H864 H 0.63411 0.52077 0.93111 0.0
H865 H 0.5863 0.51287 0.86964 0.0
H866 H 0.56191 0.51728 0.85178 0.0
H867 H 0.60066 0.57251 0.8416 0.0
H868 H 0.62525 0.56845 0.85973 0.0
H869 H 0.68044 0.5217 0.81031 0.0
H870 H 0.65635 0.51599 0.8426 0.0
H871 H 0.67935 0.57159 0.85113 0.0
H872 H 0.70424 0.57759 0.81998 0.0
H873 H 0.63863 0.54898 0.84064 0.0
H874 H 0.68668 0.55493 0.9006 0.0
H875 H 0.71013 0.54852 0.91612 0.0
H876 H 0.66891 0.49396 0.92634 0.0
H877 H 0.64524 0.50001 0.91047 0.0
C878 C 0.58484 0.52987 0.94791 0.0
C879 C 0.57674 0.51318 0.96046 0.0
C880 C 0.59911 0.5353 0.92905 0.0
C881 C 0.60512 0.52391 0.92184 0.0
C882 C 0.59649 0.50701 0.93378 0.0
C883 C 0.5826 0.50177 0.95305 0.0
C884 C 0.6209 0.52968 0.90297 0.0
C885 C 0.6349 0.52675 0.91121 0.0
C886 C 0.62232 0.53791 0.87722 0.0
C887 C 0.60757 0.54038 0.86633 0.0
C888 C 0.58959 0.52597 0.8638 0.0
C889 C 0.57574 0.52841 0.85359 0.0
C890 C 0.57972 0.54517 0.84564 0.0
C891 C 0.59759 0.55953 0.84782 0.0
C892 C 0.61149 0.55717 0.85804 0.0
C893 C 0.6807 0.53279 0.81938 0.0
C894 C 0.69449 0.55014 0.81253 0.0
C895 C 0.66675 0.52946 0.83763 0.0
C896 C 0.66609 0.54338 0.84915 0.0
C897 C 0.6796 0.56069 0.84226 0.0
C898 C 0.69377 0.56406 0.82434 0.0
C899 C 0.65137 0.53968 0.86872 0.0
C900 C 0.63771 0.54306 0.86063 0.0
C901 C 0.65002 0.53155 0.89439 0.0
C902 C 0.66422 0.5279 0.9041 0.0
C903 C 0.68264 0.54154 0.90592 0.0
C904 C 0.69597 0.53798 0.91483 0.0
C905 C 0.69102 0.52084 0.92215 0.0
C906 C 0.67272 0.50723 0.92064 0.0
C907 C 0.65935 0.51072 0.91171 0.0
H908 H 0.70136 0.5181 0.92905 0.0
H909 H 0.56898 0.54703 0.83774 0.0
H910 H 0.06609 0.56859 0.54117 0.0
H911 H 0.0915 0.59608 0.52253 0.0
H912 H 0.11532 0.56815 0.48908 0.0
H913 H 0.08976 0.54044 0.5073 0.0
H914 H 0.14145 0.6043 0.51263 0.0
H915 H 0.09184 0.57313 0.4477 0.0
H916 H 0.05931 0.55751 0.4343 0.0
H917 H 0.05681 0.60318 0.45181 0.0
H918 H 0.08927 0.61897 0.46579 0.0
H919 H 0.19504 0.66531 0.4056 0.0
H920 H 0.17593 0.63997 0.43528 0.0
H921 H 0.13932 0.65887 0.44765 0.0
H922 H 0.15734 0.68329 0.41641 0.0
H923 H 0.12023 0.62671 0.43613 0.0
H924 H 0.16953 0.65893 0.49888 0.0
H925 H 0.20157 0.67499 0.51466 0.0
H926 H 0.20478 0.62902 0.50398 0.0
H927 H 0.17281 0.61274 0.48777 0.0
C928 C 0.07693 0.56829 0.53045 0.0
C929 C 0.07579 0.55228 0.52546 0.0
C930 C 0.09145 0.58404 0.51982 0.0
C931 C 0.10518 0.58409 0.50432 0.0
C932 C 0.10486 0.56835 0.50107 0.0
C933 C 0.0902 0.55254 0.5114 0.0
C934 C 0.11836 0.60006 0.48858 0.0
C935 C 0.13694 0.60919 0.49572 0.0
C936 C 0.11232 0.60652 0.46692 0.0
C937 C 0.09291 0.59716 0.45807 0.0
C938 C 0.08431 0.57979 0.44891 0.0
C939 C 0.06589 0.57091 0.44118 0.0
C940 C 0.05598 0.57933 0.44228 0.0
C941 C 0.06449 0.59666 0.45102 0.0
C942 C 0.0829 0.60559 0.45884 0.0
C943 C 0.18291 0.6641 0.41455 0.0
C944 C 0.17782 0.67647 0.40832 0.0
C945 C 0.17211 0.64968 0.43192 0.0
C946 C 0.15618 0.64749 0.44394 0.0
C947 C 0.15151 0.66019 0.43865 0.0
C948 C 0.16207 0.67439 0.42097 0.0
C949 C 0.14356 0.6314 0.46028 0.0
C950 C 0.12494 0.62206 0.45311 0.0
C951 C 0.14962 0.62493 0.48208 0.0
C952 C 0.16883 0.63467 0.49185 0.0
C953 C 0.17711 0.65229 0.49969 0.0
C954 C 0.19525 0.66142 0.50875 0.0
C955 C 0.20522 0.65305 0.51025 0.0
C956 C 0.19705 0.6355 0.50277 0.0
C957 C 0.17891 0.62631 0.49367 0.0
H958 H 0.21926 0.66015 0.51727 0.0
H959 H 0.04173 0.57243 0.4363 0.0
H960 H 0.46003 0.0035 0.90849 0.0
H961 H 0.4571 0.02654 0.8859 0.0
H962 H 0.51162 0.06534 0.91175 0.0
H963 H 0.51485 0.04234 0.93399 0.0
H964 H 0.48664 0.0757 0.92006 0.0
H965 H 0.50502 0.05289 0.84739 0.0
H966 H 0.50344 0.02986 0.81837 0.0
H967 H 0.44929 0.0153 0.79258 0.0
H968 H 0.45044 0.03809 0.82176 0.0
H969 H 0.49511 0.1444 0.83129 0.0
H970 H 0.49947 0.12294 0.85666 0.0
H971 H 0.44758 0.08107 0.8269 0.0
H972 H 0.44355 0.10224 0.80048 0.0
H973 H 0.47275 0.07305 0.82088 0.0
H974 H 0.45388 0.0953 0.89412 0.0
H975 H 0.45514 0.11805 0.92347 0.0
H976 H 0.50968 0.13349 0.94842 0.0
H977 H 0.50884 0.11096 0.91893 0.0
C978 C 0.4715 0.01687 0.90917 0.0
C979 C 0.4877 0.02099 0.92305 0.0
C980 C 0.46976 0.03006 0.89633 0.0
C981 C 0.48419 0.04763 0.89701 0.0
C982 C 0.5003 0.05186 0.91107 0.0
C983 C 0.50209 0.03867 0.92385 0.0
C984 C 0.48243 0.06154 0.88288 0.0
C985 C 0.48385 0.07529 0.8983 0.0
C986 C 0.47846 0.06077 0.85461 0.0
C987 C 0.47775 0.04709 0.83696 0.0
C988 C 0.49271 0.04468 0.8357 0.0
C989 C 0.49191 0.03169 0.81919 0.0
C990 C 0.47625 0.02109 0.80369 0.0
C991 C 0.46139 0.0235 0.80462 0.0
C992 C 0.46212 0.03647 0.82112 0.0
C993 C 0.48462 0.13062 0.83014 0.0
C994 C 0.46896 0.12509 0.81383 0.0
C995 C 0.48705 0.11838 0.84489 0.0
C996 C 0.47379 0.10039 0.84385 0.0
C997 C 0.458 0.09488 0.82805 0.0
C998 C 0.45561 0.10706 0.81319 0.0
C999 C 0.47666 0.08715 0.8581 0.0
C1000 C 0.47553 0.07352 0.84265 0.0
C1001 C 0.48084 0.08802 0.88634 0.0
C1002 C 0.48137 0.10157 0.90409 0.0
C1003 C 0.4662 0.10364 0.90569 0.0
C1004 C 0.46683 0.11648 0.92239 0.0
C1005 C 0.4825 0.12724 0.93774 0.0
C1006 C 0.49756 0.12516 0.93648 0.0
C1007 C 0.49701 0.11235 0.9198 0.0
H1008 H 0.48295 0.13717 0.95065 0.0
H1009 H 0.47566 0.01104 0.79092 0.0
H1010 H 0.48063 0.48294 0.44986 0.0
H1011 H 0.45877 0.47737 0.41273 0.0
H1012 H 0.43357 0.49895 0.4614 0.0
H1013 H 0.45471 0.5039 0.49848 0.0
H1014 H 0.40815 0.47114 0.43909 0.0
H1015 H 0.46388 0.52186 0.40625 0.0
H1016 H 0.49642 0.53881 0.39282 0.0
H1017 H 0.48621 0.50116 0.33114 0.0
H1018 H 0.45363 0.48386 0.34446 0.0
H1019 H 0.36024 0.49019 0.33812 0.0
H1020 H 0.38299 0.4936 0.37234 0.0
H1021 H 0.39703 0.46264 0.32332 0.0
H1022 H 0.37438 0.45924 0.28906 0.0
H1023 H 0.42781 0.49316 0.34406 0.0
H1024 H 0.37091 0.4437 0.3766 0.0
H1025 H 0.33842 0.42829 0.39022 0.0
H1026 H 0.3513 0.46585 0.45322 0.0
H1027 H 0.38384 0.48164 0.43971 0.0
C1028 C 0.47038 0.48643 0.45258 0.0
C1029 C 0.46938 0.49379 0.47717 0.0
C1030 C 0.45795 0.48334 0.4313 0.0
C1031 C 0.44455 0.48787 0.43411 0.0
C1032 C 0.44365 0.49523 0.45869 0.0
C1033 C 0.45583 0.49809 0.47993 0.0
C1034 C 0.43126 0.48493 0.41183 0.0
C1035 C 0.41254 0.47614 0.4184 0.0
C1036 C 0.43681 0.49108 0.3846 0.0
C1037 C 0.45637 0.50146 0.37656 0.0
C1038 C 0.46861 0.51712 0.38997 0.0
C1039 C 0.48705 0.52681 0.38235 0.0
C1040 C 0.49339 0.52104 0.36119 0.0
C1041 C 0.48128 0.5056 0.34756 0.0
C1042 C 0.46283 0.49585 0.35512 0.0
C1043 C 0.36825 0.4842 0.3346 0.0
C1044 C 0.36542 0.47433 0.31102 0.0
C1045 C 0.38117 0.48608 0.35418 0.0
C1046 C 0.39161 0.47826 0.35045 0.0
C1047 C 0.3891 0.46875 0.32664 0.0
C1048 C 0.37606 0.4667 0.30721 0.0
C1049 C 0.40489 0.47974 0.37162 0.0
C1050 C 0.42352 0.48815 0.36478 0.0
C1051 C 0.39932 0.47348 0.39872 0.0
C1052 C 0.37978 0.46394 0.40698 0.0
C1053 C 0.36679 0.44876 0.39322 0.0
C1054 C 0.34837 0.43994 0.40094 0.0
C1055 C 0.34279 0.44611 0.42253 0.0
C1056 C 0.35563 0.4611 0.43648 0.0
C1057 C 0.37407 0.46997 0.42882 0.0
H1058 H 0.32853 0.43927 0.42848 0.0
H1059 H 0.50767 0.52856 0.35532 0.0
H1060 H 0.95538 0.42547 0.06235 0.0
H1061 H 0.93501 0.39904 0.0365 0.0
H1062 H 0.93057 0.43093 0.97303 0.0
H1063 H 0.9504 0.45727 0.99911 0.0
H1064 H 0.89812 0.40113 0.98193 0.0
H1065 H 0.96108 0.41742 0.96797 0.0
H1066 H 0.99161 0.424 0.98286 0.0
H1067 H 0.96767 0.37254 0.01958 0.0
H1068 H 0.93695 0.36575 0.00521 0.0
H1069 H 0.88052 0.35497 0.85962 0.0
H1070 H 0.89267 0.37533 0.89746 0.0
H1071 H 0.89208 0.33525 0.94911 0.0
H1072 H 0.87977 0.31465 0.91116 0.0
H1073 H 0.92416 0.36571 0.95239 0.0
H1074 H 0.86139 0.34808 0.95964 0.0
H1075 H 0.83126 0.34178 0.94321 0.0
H1076 H 0.85479 0.39572 0.91811 0.0
H1077 H 0.88513 0.40231 0.93402 0.0
C1078 C 0.94978 0.42682 0.04317 0.0
C1079 C 0.9547 0.4435 0.03261 0.0
C1080 C 0.93825 0.41171 0.02832 0.0
C1081 C 0.93151 0.41305 0.00264 0.0
C1082 C 0.93568 0.4296 0.99273 0.0
C1083 C 0.94717 0.44466 0.00754 0.0
C1084 C 0.92103 0.39746 0.9852 0.0
C1085 C 0.90381 0.3934 0.97539 0.0
C1086 C 0.92826 0.3871 0.97725 0.0
C1087 C 0.94671 0.39116 0.98583 0.0
C1088 C 0.96232 0.40757 0.97942 0.0
C1089 C 0.97965 0.41133 0.98773 0.0
C1090 C 0.98157 0.39872 0.00224 0.0
C1091 C 0.96616 0.38231 0.0084 0.0
C1092 C 0.94878 0.3785 0.00017 0.0
C1093 C 0.88261 0.35034 0.87917 0.0
C1094 C 0.87906 0.33314 0.88241 0.0
C1095 C 0.88958 0.36201 0.9008 0.0
C1096 C 0.89304 0.35674 0.92625 0.0
C1097 C 0.88944 0.33956 0.92966 0.0
C1098 C 0.88248 0.32785 0.90796 0.0
C1099 C 0.90139 0.36958 0.94862 0.0
C1100 C 0.91824 0.37316 0.95933 0.0
C1101 C 0.89384 0.37953 0.9573 0.0
C1102 C 0.87557 0.37566 0.9479 0.0
C1103 C 0.86017 0.35858 0.95046 0.0
C1104 C 0.84305 0.35496 0.94126 0.0
C1105 C 0.84112 0.36834 0.92959 0.0
C1106 C 0.85631 0.38537 0.92715 0.0
C1107 C 0.87347 0.38906 0.9363 0.0
H1108 H 0.82785 0.3655 0.92247 0.0
H1109 H 0.995 0.40165 0.00865 0.0
H1110 H 0.99315 0.53693 0.99325 0.0
H1111 H 0.97283 0.54144 0.9635 0.0
H1112 H 0.96845 0.502 0.90903 0.0
H1113 H 0.98907 0.49759 0.93853 0.0
H1114 H 0.97029 0.52898 0.88051 0.0
H1115 H 0.93503 0.49197 0.95546 0.0
H1116 H 0.9276 0.48315 0.00397 0.0
H1117 H 0.92401 0.5286 0.01812 0.0
H1118 H 0.93171 0.53785 0.96975 0.0
H1119 H 0.89022 0.51598 0.81294 0.0
H1120 H 0.91021 0.51013 0.8415 0.0
H1121 H 0.92005 0.55219 0.89463 0.0
H1122 H 0.89994 0.55801 0.86628 0.0
H1123 H 0.91467 0.52252 0.92325 0.0
H1124 H 0.95081 0.55949 0.84746 0.0
H1125 H 0.95788 0.5675 0.79863 0.0
H1126 H 0.9589 0.52056 0.78572 0.0
H1127 H 0.95157 0.51214 0.83443 0.0
C1128 C 0.98807 0.52935 0.97477 0.0
C1129 C 0.99265 0.51679 0.96841 0.0
C1130 C 0.97635 0.53188 0.95784 0.0
C1131 C 0.96878 0.52179 0.93432 0.0
C1132 C 0.97403 0.50987 0.92715 0.0
C1133 C 0.98585 0.50738 0.94404 0.0
C1134 C 0.9549 0.52327 0.91786 0.0
C1135 C 0.95801 0.52732 0.88979 0.0
C1136 C 0.93893 0.5213 0.92998 0.0
C1137 C 0.93411 0.51569 0.95903 0.0
C1138 C 0.93278 0.50015 0.96895 0.0
C1139 C 0.92851 0.49507 0.99642 0.0
C1140 C 0.92538 0.50533 0.01413 0.0
C1141 C 0.92646 0.52068 0.00438 0.0
C1142 C 0.93077 0.52584 0.97693 0.0
C1143 C 0.89636 0.52376 0.831 0.0
C1144 C 0.89353 0.53749 0.83733 0.0
C1145 C 0.90791 0.52051 0.84716 0.0
C1146 C 0.9168 0.53087 0.87 0.0
C1147 C 0.91339 0.54408 0.87703 0.0
C1148 C 0.90196 0.54744 0.86077 0.0
C1149 C 0.93017 0.52838 0.88601 0.0
C1150 C 0.92693 0.52412 0.91399 0.0
C1151 C 0.94592 0.53 0.87375 0.0
C1152 C 0.95045 0.5351 0.84452 0.0
C1153 C 0.9524 0.55081 0.83416 0.0
C1154 C 0.95648 0.55543 0.80652 0.0
C1155 C 0.95879 0.54452 0.78907 0.0
C1156 C 0.95708 0.52899 0.79925 0.0
C1157 C 0.95297 0.52429 0.82688 0.0
H1158 H 0.96195 0.54813 0.76767 0.0
H1159 H 0.92207 0.50137 0.03539 0.0
H1160 H 0.49904 0.97645 0.42574 0.0
H1161 H 0.46762 0.9524 0.41985 0.0
H1162 H 0.45562 0.95704 0.50368 0.0
H1163 H 0.48755 0.98112 0.50997 0.0
H1164 H 0.43725 0.92214 0.48674 0.0
H1165 H 0.44387 0.97604 0.45673 0.0
H1166 H 0.45849 0.00478 0.43276 0.0
H1167 H 0.45038 0.97952 0.35564 0.0
H1168 H 0.43596 0.95064 0.37918 0.0
H1169 H 0.35014 0.89409 0.39188 0.0
H1170 H 0.37416 0.91447 0.4222 0.0
H1171 H 0.39675 0.88107 0.42526 0.0
H1172 H 0.37176 0.85977 0.39699 0.0
H1173 H 0.40666 0.93276 0.4085 0.0
H1174 H 0.42611 0.89009 0.47675 0.0
H1175 H 0.41039 0.86241 0.50364 0.0
H1176 H 0.36287 0.86667 0.51047 0.0
H1177 H 0.37839 0.8945 0.48397 0.0
C1178 C 0.48981 0.97225 0.44307 0.0
C1179 C 0.49563 0.98083 0.46819 0.0
C1180 C 0.47185 0.95849 0.43967 0.0
C1181 C 0.45919 0.95322 0.46113 0.0
C1182 C 0.46517 0.96101 0.48682 0.0
C1183 C 0.48336 0.97474 0.49037 0.0
C1184 C 0.43957 0.94054 0.45553 0.0
C1185 C 0.43041 0.92441 0.46982 0.0
C1186 C 0.43046 0.94384 0.43412 0.0
C1187 C 0.4389 0.96117 0.41976 0.0
C1188 C 0.44529 0.97662 0.43467 0.0
C1189 C 0.45354 0.99294 0.42116 0.0
C1190 C 0.45538 0.99398 0.3927 0.0
C1191 C 0.44894 0.97869 0.37769 0.0
C1192 C 0.4407 0.96234 0.3911 0.0
C1193 C 0.35969 0.8906 0.39986 0.0
C1194 C 0.35902 0.87527 0.3915 0.0
C1195 C 0.37362 0.90246 0.41706 0.0
C1196 C 0.38742 0.89946 0.42599 0.0
C1197 C 0.38621 0.88368 0.41904 0.0
C1198 C 0.37203 0.87162 0.40233 0.0
C1199 C 0.40433 0.91382 0.43892 0.0
C1200 C 0.41312 0.9304 0.42588 0.0
C1201 C 0.41276 0.91102 0.46196 0.0
C1202 C 0.4034 0.89436 0.47819 0.0
C1203 C 0.41235 0.88519 0.48412 0.0
C1204 C 0.40346 0.86945 0.49927 0.0
C1205 C 0.38563 0.86276 0.5087 0.0
C1206 C 0.37667 0.87183 0.50307 0.0
C1207 C 0.3855 0.88757 0.48795 0.0
H1208 H 0.37877 0.85057 0.52041 0.0
H1209 H 0.46178 0.00663 0.38228 0.0
H1210 H 0.52596 0.42907 0.02628 0.0
H1211 H 0.51785 0.40253 0.00078 0.0
H1212 H 0.48847 0.4153 0.94196 0.0
H1213 H 0.49661 0.44183 0.96726 0.0
H1214 H 0.46922 0.37957 0.96025 0.0
H1215 H 0.52862 0.42387 0.92519 0.0
H1216 H 0.56135 0.4465 0.92942 0.0
H1217 H 0.57206 0.40823 0.96456 0.0
H1218 H 0.53931 0.38542 0.96094 0.0
H1219 H 0.45691 0.32869 0.84584 0.0
H1220 H 0.46534 0.35232 0.87778 0.0
H1221 H 0.50063 0.33869 0.92081 0.0
H1222 H 0.49242 0.31505 0.8883 0.0
H1223 H 0.51712 0.37316 0.91531 0.0
H1224 H 0.4585 0.32822 0.94749 0.0
H1225 H 0.42579 0.30537 0.94434 0.0
H1226 H 0.41338 0.34402 0.91677 0.0
H1227 H 0.44606 0.36707 0.91937 0.0
C1228 C 0.51765 0.42611 0.00804 0.0
C1229 C 0.51196 0.43752 0.99868 0.0
C1230 C 0.51312 0.41103 0.99344 0.0
C1231 C 0.50263 0.40702 0.96943 0.0
C1232 C 0.49659 0.41818 0.96042 0.0
C1233 C 0.50134 0.43337 0.97477 0.0
C1234 C 0.4981 0.39132 0.95337 0.0
C1235 C 0.47965 0.37819 0.95025 0.0
C1236 C 0.51179 0.38932 0.94108 0.0
C1237 C 0.53148 0.40299 0.94311 0.0
C1238 C 0.53792 0.42032 0.93406 0.0
C1239 C 0.55648 0.43317 0.9363 0.0
C1240 C 0.56877 0.42882 0.94733 0.0
C1241 C 0.56252 0.41159 0.95607 0.0
C1242 C 0.54396 0.3987 0.95392 0.0
C1243 C 0.4663 0.33056 0.8623 0.0
C1244 C 0.47379 0.31982 0.86479 0.0
C1245 C 0.47111 0.34409 0.88059 0.0
C1246 C 0.48333 0.34709 0.90213 0.0
C1247 C 0.49109 0.33658 0.90446 0.0
C1248 C 0.4864 0.32308 0.88591 0.0
C1249 C 0.48812 0.36143 0.92172 0.0
C1250 C 0.50663 0.37435 0.92555 0.0
C1251 C 0.47448 0.36317 0.93489 0.0
C1252 C 0.45477 0.34936 0.93345 0.0
C1253 C 0.44882 0.33183 0.94058 0.0
C1254 C 0.43027 0.31884 0.93892 0.0
C1255 C 0.41752 0.32323 0.93031 0.0
C1256 C 0.42328 0.34063 0.92342 0.0
C1257 C 0.44181 0.35367 0.92502 0.0
H1258 H 0.40317 0.31315 0.92903 0.0
H1259 H 0.58313 0.43879 0.94904 0.0
H1260 H 0.08158 0.49432 0.46758 0.0
H1261 H 0.10377 0.49222 0.43963 0.0
H1262 H 0.05999 0.45277 0.39067 0.0
H1263 H 0.03764 0.455 0.41818 0.0
H1264 H 0.08553 0.44393 0.40571 0.0
H1265 H 0.08515 0.49377 0.36624 0.0
H1266 H 0.08771 0.52258 0.36746 0.0
H1267 H 0.14277 0.54618 0.39737 0.0
H1268 H 0.14045 0.51744 0.39669 0.0
H1269 H 0.13364 0.44306 0.28998 0.0
H1270 H 0.11332 0.44494 0.32247 0.0
H1271 H 0.15987 0.48833 0.36168 0.0
H1272 H 0.18033 0.48665 0.32879 0.0
H1273 H 0.1341 0.49556 0.35425 0.0
H1274 H 0.13563 0.4467 0.39215 0.0
H1275 H 0.13353 0.41807 0.3924 0.0
H1276 H 0.07725 0.39278 0.36764 0.0
H1277 H 0.07907 0.4213 0.36687 0.0
C1278 C 0.0766 0.48533 0.45071 0.0
C1279 C 0.05773 0.4749 0.44512 0.0
C1280 C 0.08935 0.4841 0.4348 0.0
C1281 C 0.08353 0.47243 0.41296 0.0
C1282 C 0.06476 0.46183 0.4075 0.0
C1283 C 0.05198 0.4631 0.42332 0.0
C1284 C 0.09704 0.47131 0.39574 0.0
C1285 C 0.09603 0.45515 0.39419 0.0
C1286 C 0.1111 0.48611 0.38147 0.0
C1287 C 0.11256 0.50342 0.38168 0.0
C1288 C 0.09775 0.50508 0.37328 0.0
C1289 C 0.09917 0.5214 0.37384 0.0
C1290 C 0.11537 0.53619 0.38257 0.0
C1291 C 0.13022 0.53471 0.39066 0.0
C1292 C 0.12887 0.51841 0.39017 0.0
C1293 C 0.13959 0.45281 0.30581 0.0
C1294 C 0.15861 0.46463 0.30695 0.0
C1295 C 0.12795 0.45388 0.3244 0.0
C1296 C 0.13505 0.46662 0.34481 0.0
C1297 C 0.15406 0.47837 0.34614 0.0
C1298 C 0.16574 0.47741 0.32736 0.0
C1299 C 0.12253 0.46808 0.36393 0.0
C1300 C 0.1237 0.48432 0.36587 0.0
C1301 C 0.10871 0.45337 0.37876 0.0
C1302 C 0.10754 0.43618 0.37923 0.0
C1303 C 0.12284 0.43506 0.38655 0.0
C1304 C 0.12169 0.41884 0.38682 0.0
C1305 C 0.10528 0.40362 0.37998 0.0
C1306 C 0.08996 0.40458 0.37291 0.0
C1307 C 0.09104 0.42077 0.37258 0.0
H1308 H 0.10442 0.39108 0.38021 0.0
H1309 H 0.11644 0.54882 0.38299 0.0
H1310 H 0.56292 0.04506 0.00055 0.0
H1311 H 0.59375 0.07078 0.99206 0.0
H1312 H 0.60157 0.04331 0.9271 0.0
H1313 H 0.57109 0.01794 0.9352 0.0
H1314 H 0.63206 0.06096 0.96101 0.0
H1315 H 0.58812 0.07116 0.91229 0.0
H1316 H 0.56176 0.07526 0.91035 0.0
H1317 H 0.5896 0.11929 0.96362 0.0
H1318 H 0.61603 0.11527 0.96619 0.0
H1319 H 0.68928 0.1117 0.8553 0.0
H1320 H 0.66401 0.09256 0.88555 0.0
H1321 H 0.67432 0.13709 0.93286 0.0
H1322 H 0.7001 0.15656 0.90255 0.0
H1323 H 0.63769 0.11519 0.92131 0.0
H1324 H 0.68468 0.10872 0.96072 0.0
H1325 H 0.71098 0.10456 0.96149 0.0
H1326 H 0.67784 0.05367 0.92627 0.0
H1327 H 0.65139 0.05762 0.92489 0.0
C1328 C 0.57135 0.04451 0.98469 0.0
C1329 C 0.56458 0.02954 0.96843 0.0
C1330 C 0.58889 0.05919 0.97983 0.0
C1331 C 0.5999 0.05894 0.9589 0.0
C1332 C 0.59333 0.04377 0.9434 0.0
C1333 C 0.57585 0.0293 0.94796 0.0
C1334 C 0.61795 0.07456 0.95174 0.0
C1335 C 0.63336 0.07288 0.95248 0.0
C1336 C 0.61974 0.09031 0.94144 0.0
C1337 C 0.60392 0.09277 0.93974 0.0
C1338 C 0.58855 0.08162 0.92378 0.0
C1339 C 0.57361 0.08394 0.92253 0.0
C1340 C 0.57398 0.09749 0.93693 0.0
C1341 C 0.58931 0.10878 0.95254 0.0
C1342 C 0.60427 0.10648 0.95391 0.0
C1343 C 0.68652 0.11748 0.87245 0.0
C1344 C 0.69698 0.13568 0.87672 0.0
C1345 C 0.67197 0.10648 0.88971 0.0
C1346 C 0.66747 0.11333 0.9118 0.0
C1347 C 0.67765 0.13152 0.91604 0.0
C1348 C 0.69233 0.14261 0.89869 0.0
C1349 C 0.65164 0.10127 0.92948 0.0
C1350 C 0.63664 0.10358 0.93069 0.0
C1351 C 0.65022 0.08606 0.94163 0.0
C1352 C 0.66604 0.0835 0.94265 0.0
C1353 C 0.68301 0.09668 0.953 0.0
C1354 C 0.69795 0.09435 0.95356 0.0
C1355 C 0.69608 0.07887 0.94392 0.0
C1356 C 0.67926 0.06566 0.93376 0.0
C1357 C 0.66428 0.06792 0.93313 0.0
H1358 H 0.70767 0.0771 0.94436 0.0
H1359 H 0.56241 0.09927 0.93593 0.0
H1360 H 0.54583 0.58995 0.53116 0.0
H1361 H 0.55223 0.6146 0.50071 0.0
H1362 H 0.51303 0.57853 0.44258 0.0
H1363 H 0.50675 0.55387 0.47285 0.0
H1364 H 0.54355 0.60122 0.41749 0.0
H1365 H 0.50425 0.60521 0.48215 0.0
H1366 H 0.49358 0.60712 0.52789 0.0
H1367 H 0.54402 0.65572 0.54134 0.0
H1368 H 0.55511 0.65398 0.49581 0.0
H1369 H 0.54461 0.66537 0.32972 0.0
H1370 H 0.53367 0.64125 0.36312 0.0
H1371 H 0.57499 0.67581 0.42024 0.0
H1372 H 0.58563 0.70021 0.38724 0.0
H1373 H 0.54245 0.65377 0.44568 0.0
H1374 H 0.58178 0.64908 0.38107 0.0
H1375 H 0.59207 0.64706 0.33509 0.0
H1376 H 0.54086 0.59925 0.32146 0.0
H1377 H 0.53012 0.60117 0.36719 0.0
C1378 C 0.53838 0.58731 0.51209 0.0
C1379 C 0.52583 0.56998 0.50435 0.0
C1380 C 0.54204 0.60141 0.49469 0.0
C1381 C 0.53301 0.59843 0.46943 0.0
C1382 C 0.52022 0.58114 0.46192 0.0
C1383 C 0.51667 0.56706 0.47919 0.0
C1384 C 0.53751 0.61326 0.45023 0.0
C1385 C 0.543 0.61257 0.42355 0.0
C1386 C 0.53723 0.62826 0.4583 0.0
C1387 C 0.53058 0.62938 0.48566 0.0
C1388 C 0.51313 0.61624 0.49494 0.0
C1389 C 0.50699 0.6173 0.52082 0.0
C1390 C 0.51813 0.63151 0.53754 0.0
C1391 C 0.53541 0.64471 0.52838 0.0
C1392 C 0.54163 0.6437 0.50253 0.0
C1393 C 0.55113 0.66796 0.3496 0.0
C1394 C 0.56606 0.6847 0.35578 0.0
C1395 C 0.54497 0.65411 0.36856 0.0
C1396 C 0.55372 0.65668 0.39397 0.0
C1397 C 0.56812 0.67353 0.40068 0.0
C1398 C 0.57427 0.68741 0.38173 0.0
C1399 C 0.54841 0.64165 0.41303 0.0
C1400 C 0.54285 0.64234 0.43966 0.0
C1401 C 0.54857 0.6266 0.4049 0.0
C1402 C 0.55507 0.62538 0.37745 0.0
C1403 C 0.57265 0.63822 0.36818 0.0
C1404 C 0.57857 0.63709 0.34217 0.0
C1405 C 0.5671 0.62307 0.32532 0.0
C1406 C 0.54971 0.61013 0.3345 0.0
C1407 C 0.54369 0.61123 0.36046 0.0
H1408 H 0.57172 0.62222 0.3052 0.0
H1409 H 0.51335 0.63232 0.55756 0.0
H1410 H 0.51442 0.05196 0.53797 0.0
H1411 H 0.50545 0.06927 0.56415 0.0
H1412 H 0.53659 0.11348 0.50922 0.0
H1413 H 0.54527 0.09595 0.48256 0.0
H1414 H 0.52329 0.09675 0.59284 0.0
H1415 H 0.51767 0.1389 0.50581 0.0
H1416 H 0.50998 0.13667 0.45668 0.0
H1417 H 0.47777 0.08047 0.46466 0.0
H1418 H 0.48507 0.08238 0.51387 0.0
H1419 H 0.51322 0.16051 0.65812 0.0
H1420 H 0.52437 0.14743 0.62638 0.0
H1421 H 0.4715 0.12014 0.58723 0.0
H1422 H 0.46063 0.13415 0.61758 0.0
H1423 H 0.49592 0.12876 0.55029 0.0
H1424 H 0.48481 0.10068 0.63844 0.0
H1425 H 0.48781 0.09882 0.68844 0.0
H1426 H 0.54546 0.11969 0.67959 0.0
H1427 H 0.54285 0.12191 0.62953 0.0
C1428 C 0.51941 0.06538 0.53151 0.0
C1429 C 0.53056 0.07259 0.5082 0.0
C1430 C 0.51426 0.07529 0.54649 0.0
C1431 C 0.52021 0.09268 0.53863 0.0
C1432 C 0.53151 0.09999 0.51545 0.0
C1433 C 0.53649 0.08998 0.50023 0.0
C1434 C 0.51472 0.10311 0.55501 0.0
C1435 C 0.51736 0.10379 0.58347 0.0
C1436 C 0.50667 0.11208 0.54299 0.0
C1437 C 0.50211 0.1108 0.51344 0.0
C1438 C 0.50892 0.12608 0.49708 0.0
C1439 C 0.50463 0.12486 0.46922 0.0
C1440 C 0.49345 0.10844 0.45753 0.0
C1441 C 0.48649 0.09318 0.4737 0.0
C1442 C 0.49072 0.09433 0.50157 0.0
C1443 C 0.50407 0.15213 0.6423 0.0
C1444 C 0.4859 0.14826 0.64075 0.0
C1445 C 0.51042 0.14444 0.62436 0.0
C1446 C 0.49865 0.1324 0.60483 0.0
C1447 C 0.48083 0.12924 0.60226 0.0
C1448 C 0.47456 0.13713 0.61989 0.0
C1449 C 0.50452 0.1224 0.58809 0.0
C1450 C 0.50199 0.12184 0.5596 0.0
C1451 C 0.51205 0.11297 0.60019 0.0
C1452 C 0.51367 0.11166 0.63028 0.0
C1453 C 0.49815 0.105 0.64718 0.0
C1454 C 0.49978 0.10387 0.67552 0.0
C1455 C 0.51682 0.10919 0.68719 0.0
C1456 C 0.53227 0.11561 0.67053 0.0
C1457 C 0.53073 0.11682 0.64217 0.0
H1458 H 0.51805 0.10829 0.70914 0.0
H1459 H 0.49015 0.10753 0.43596 0.0
H1460 H 0.49859 0.52538 0.01626 0.0
H1461 H 0.47271 0.52621 0.03499 0.0
H1462 H 0.43619 0.47247 0.01176 0.0
H1463 H 0.46195 0.47157 0.99256 0.0
H1464 H 0.41988 0.49293 0.00796 0.0
H1465 H 0.45503 0.48028 0.07339 0.0
H1466 H 0.48401 0.48721 0.09559 0.0
H1467 H 0.49192 0.5361 0.12305 0.0
H1468 H 0.4631 0.52956 0.10068 0.0
H1469 H 0.34942 0.46065 0.10723 0.0
H1470 H 0.37376 0.46688 0.07523 0.0
H1471 H 0.40968 0.51583 0.11537 0.0
H1472 H 0.38597 0.50899 0.1489 0.0
H1473 H 0.42719 0.50067 0.10847 0.0
H1474 H 0.39064 0.51255 0.0482 0.0
H1475 H 0.36259 0.50702 0.02454 0.0
H1476 H 0.35776 0.46187 0.9864 0.0
H1477 H 0.38565 0.46698 0.01012 0.0
C1478 C 0.485 0.51387 0.01445 0.0
C1479 C 0.48239 0.49829 0.00337 0.0
C1480 C 0.47022 0.51437 0.02519 0.0
C1481 C 0.45261 0.49928 0.02527 0.0
C1482 C 0.44969 0.48423 0.01201 0.0
C1483 C 0.46446 0.48374 0.00112 0.0
C1484 C 0.43788 0.49838 0.04227 0.0
C1485 C 0.42136 0.49455 0.02996 0.0
C1486 C 0.44005 0.50088 0.07087 0.0
C1487 C 0.45701 0.5045 0.08518 0.0
C1488 C 0.46299 0.49253 0.0841 0.0
C1489 C 0.47938 0.49639 0.0967 0.0
C1490 C 0.48982 0.51211 0.11066 0.0
C1491 C 0.48383 0.52395 0.1122 0.0
C1492 C 0.46746 0.52016 0.09959 0.0
C1493 C 0.3625 0.47272 0.10942 0.0
C1494 C 0.36565 0.48422 0.13096 0.0
C1495 C 0.37637 0.47643 0.0907 0.0
C1496 C 0.39358 0.49196 0.09257 0.0
C1497 C 0.39654 0.50377 0.1134 0.0
C1498 C 0.38281 0.49991 0.13244 0.0
C1499 C 0.40891 0.49521 0.0743 0.0
C1500 C 0.42562 0.49934 0.08644 0.0
C1501 C 0.40692 0.49317 0.04553 0.0
C1502 C 0.39017 0.49008 0.03112 0.0
C1503 C 0.38353 0.50137 0.03492 0.0
C1504 C 0.36766 0.49832 0.02147 0.0
C1505 C 0.35838 0.48408 0.00402 0.0
C1506 C 0.36496 0.47289 0.99993 0.0
C1507 C 0.38081 0.47587 0.01335 0.0
H1508 H 0.3461 0.48174 0.99363 0.0
H1509 H 0.50254 0.5151 0.12033 0.0
H1510 H 0.98952 0.4668 0.57117 0.0
H1511 H 0.96761 0.44251 0.60013 0.0
H1512 H 0.00983 0.43247 0.62556 0.0
H1513 H 0.03165 0.45627 0.59517 0.0
H1514 H 0.98175 0.40337 0.61504 0.0
H1515 H 0.99002 0.45114 0.6687 0.0
H1516 H 0.9914 0.47873 0.67917 0.0
H1517 H 0.93508 0.45577 0.65586 0.0
H1518 H 0.93341 0.4281 0.64493 0.0
H1519 H 0.92996 0.34665 0.72693 0.0
H1520 H 0.95235 0.37182 0.69971 0.0
H1521 H 0.90886 0.37201 0.65487 0.0
H1522 H 0.88618 0.34615 0.68105 0.0
H1523 H 0.9374 0.40588 0.67644 0.0
H1524 H 0.93037 0.35785 0.62303 0.0
H1525 H 0.92971 0.33024 0.61599 0.0
H1526 H 0.98549 0.35457 0.64296 0.0
H1527 H 0.98639 0.38226 0.65054 0.0
C1528 C 0.99425 0.4596 0.58321 0.0
C1529 C 0.01237 0.46349 0.5809 0.0
C1530 C 0.98167 0.44571 0.59996 0.0
C1531 C 0.98702 0.43571 0.6155 0.0
C1532 C 0.00529 0.43993 0.61381 0.0
C1533 C 0.0178 0.4536 0.59654 0.0
C1534 C 0.97331 0.42019 0.63204 0.0
C1535 C 0.97231 0.40409 0.62882 0.0
C1536 C 0.9606 0.42085 0.64964 0.0
C1537 C 0.96163 0.43757 0.65583 0.0
C1538 C 0.97797 0.45201 0.6656 0.0
C1539 C 0.97879 0.46765 0.67167 0.0
C1540 C 0.96333 0.46898 0.66823 0.0
C1541 C 0.94704 0.4547 0.65857 0.0
C1542 C 0.94614 0.43904 0.65247 0.0
C1543 C 0.92503 0.35169 0.71089 0.0
C1544 C 0.90612 0.34413 0.70616 0.0
C1545 C 0.93792 0.36623 0.69552 0.0
C1546 C 0.93226 0.37374 0.67528 0.0
C1547 C 0.91348 0.36642 0.67051 0.0
C1548 C 0.90054 0.35167 0.68561 0.0
C1549 C 0.94603 0.38934 0.65933 0.0
C1550 C 0.94697 0.40536 0.66269 0.0
C1551 C 0.95889 0.3887 0.64225 0.0
C1552 C 0.95838 0.37207 0.63762 0.0
C1553 C 0.94244 0.35727 0.6277 0.0
C1554 C 0.94204 0.34161 0.62356 0.0
C1555 C 0.95753 0.34064 0.6291 0.0
C1556 C 0.97349 0.35533 0.63872 0.0
C1557 C 0.97396 0.37102 0.64292 0.0
H1558 H 0.9572 0.32851 0.62587 0.0
H1559 H 0.96394 0.48104 0.67313 0.0
H1560 H 0.50206 0.932 0.04189 0.0
H1561 H 0.5096 0.91344 0.06945 0.0
H1562 H 0.54871 0.91968 0.00831 0.0
H1563 H 0.54065 0.93778 0.98026 0.0
H1564 H 0.53223 0.88753 0.02849 0.0
H1565 H 0.56199 0.94476 0.06698 0.0
H1566 H 0.5642 0.97129 0.08556 0.0
H1567 H 0.52758 0.94047 0.15087 0.0
H1568 H 0.52495 0.9137 0.13246 0.0
H1569 H 0.58704 0.86968 0.12085 0.0
H1570 H 0.57537 0.88249 0.08769 0.0
H1571 H 0.53079 0.87024 0.14225 0.0
H1572 H 0.54243 0.85758 0.1755 0.0
H1573 H 0.55031 0.9051 0.12476 0.0
H1574 H 0.52219 0.84768 0.08535 0.0
H1575 H 0.52196 0.82221 0.06622 0.0
H1576 H 0.55846 0.85503 0.00212 0.0
H1577 H 0.55911 0.88076 0.0211 0.0
C1578 C 0.51216 0.92928 0.03431 0.0
C1579 C 0.52091 0.93643 0.00914 0.0
C1580 C 0.5165 0.91873 0.05005 0.0
C1581 C 0.53005 0.91551 0.04127 0.0
C1582 C 0.53827 0.92203 0.01556 0.0
C1583 C 0.53367 0.93235 0.99955 0.0
C1584 C 0.53619 0.90604 0.05949 0.0
C1585 C 0.53638 0.8915 0.04944 0.0
C1586 C 0.54148 0.91111 0.08693 0.0
C1587 C 0.54314 0.9272 0.09819 0.0
C1588 C 0.55431 0.94362 0.08521 0.0
C1589 C 0.55565 0.95871 0.09572 0.0
C1590 C 0.546 0.95756 0.11934 0.0
C1591 C 0.53503 0.94133 0.13255 0.0
C1592 C 0.53362 0.9262 0.1221 0.0
C1593 C 0.57464 0.86956 0.1256 0.0
C1594 C 0.56564 0.86263 0.15075 0.0
C1595 C 0.56795 0.87678 0.10661 0.0
C1596 C 0.5522 0.87725 0.11253 0.0
C1597 C 0.54294 0.86995 0.13729 0.0
C1598 C 0.54953 0.86261 0.15617 0.0
C1599 C 0.54611 0.8865 0.09387 0.0
C1600 C 0.54607 0.9011 0.10383 0.0
C1601 C 0.54128 0.88165 0.0663 0.0
C1602 C 0.54083 0.86618 0.05481 0.0
C1603 C 0.53029 0.8495 0.06731 0.0
C1604 C 0.53006 0.835 0.05647 0.0
C1605 C 0.54022 0.83701 0.03301 0.0
C1606 C 0.5506 0.8535 0.02031 0.0
C1607 C 0.5509 0.86804 0.03108 0.0
H1608 H 0.54002 0.82577 0.02465 0.0
H1609 H 0.54705 0.96925 0.12745 0.0
H1610 H 0.55786 0.4918 0.53104 0.0
H1611 H 0.58744 0.49425 0.54063 0.0
H1612 H 0.61027 0.5481 0.56393 0.0
H1613 H 0.5809 0.54559 0.55499 0.0
H1614 H 0.63504 0.5432 0.53466 0.0
H1615 H 0.59168 0.51665 0.60908 0.0
H1616 H 0.56369 0.49432 0.63304 0.0
H1617 H 0.57847 0.45578 0.62032 0.0
H1618 H 0.60592 0.47757 0.595 0.0
H1619 H 0.70155 0.56674 0.63769 0.0
H1620 H 0.67613 0.55991 0.60724 0.0
H1621 H 0.66389 0.5067 0.60103 0.0
H1622 H 0.68961 0.51352 0.63145 0.0
H1623 H 0.63425 0.5074 0.61419 0.0
H1624 H 0.67976 0.53497 0.54515 0.0
H1625 H 0.7088 0.55795 0.5243 0.0
H1626 H 0.69157 0.59517 0.52995 0.0
H1627 H 0.66253 0.5725 0.55121 0.0
C1628 C 0.56937 0.50425 0.53751 0.0
C1629 C 0.56715 0.5185 0.54236 0.0
C1630 C 0.5862 0.50562 0.54311 0.0
C1631 C 0.60103 0.52134 0.55317 0.0
C1632 C 0.59907 0.53588 0.55614 0.0
C1633 C 0.58227 0.53441 0.55111 0.0
C1634 C 0.61802 0.52245 0.56329 0.0
C1635 C 0.6349 0.53532 0.55197 0.0
C1636 C 0.61782 0.51197 0.58559 0.0
C1637 C 0.60067 0.49866 0.59953 0.0
C1638 C 0.5887 0.50329 0.61073 0.0
C1639 C 0.5729 0.49071 0.6246 0.0
C1640 C 0.56913 0.47355 0.62795 0.0
C1641 C 0.58116 0.46895 0.61739 0.0
C1642 C 0.59679 0.48139 0.60312 0.0
C1643 C 0.69385 0.5537 0.62927 0.0
C1644 C 0.69773 0.54069 0.63705 0.0
C1645 C 0.67924 0.54981 0.61181 0.0
C1646 C 0.66817 0.53283 0.60154 0.0
C1647 C 0.67227 0.51991 0.60862 0.0
C1648 C 0.68693 0.52381 0.62612 0.0
C1649 C 0.65132 0.52829 0.58583 0.0
C1650 C 0.63445 0.51489 0.59629 0.0
C1651 C 0.65156 0.53834 0.56285 0.0
C1652 C 0.66898 0.55203 0.54992 0.0
C1653 C 0.6822 0.54808 0.54212 0.0
C1654 C 0.69866 0.56106 0.5302 0.0
C1655 C 0.70204 0.57801 0.52583 0.0
C1656 C 0.68894 0.58203 0.53334 0.0
C1657 C 0.67246 0.56911 0.54529 0.0
H1658 H 0.71479 0.58804 0.5166 0.0
H1659 H 0.55699 0.46387 0.63893 0.0
H1660 H 0.061 0.54766 0.12282 0.0
H1661 H 0.08591 0.57273 0.14663 0.0
H1662 H 0.05515 0.59862 0.14444 0.0
H1663 H 0.03038 0.57379 0.12022 0.0
H1664 H 0.09098 0.62058 0.12864 0.0
H1665 H 0.05797 0.57985 0.20272 0.0
H1666 H 0.04397 0.55137 0.22743 0.0
H1667 H 0.09623 0.55558 0.23204 0.0
H1668 H 0.11051 0.58399 0.20701 0.0
H1669 H 0.13918 0.68732 0.2257 0.0
H1670 H 0.11683 0.6626 0.19861 0.0
H1671 H 0.14749 0.63704 0.21111 0.0
H1672 H 0.16939 0.66129 0.23942 0.0
H1673 H 0.11285 0.61459 0.22022 0.0
H1674 H 0.14644 0.6556 0.14816 0.0
H1675 H 0.1609 0.68387 0.12284 0.0
H1676 H 0.10857 0.67908 0.11326 0.0
H1677 H 0.09382 0.65088 0.13886 0.0
C1678 C 0.05956 0.5587 0.12736 0.0
C1679 C 0.04367 0.55869 0.11968 0.0
C1680 C 0.07376 0.57297 0.14111 0.0
C1681 C 0.07233 0.58749 0.14741 0.0
C1682 C 0.05651 0.58753 0.13978 0.0
C1683 C 0.04228 0.57324 0.12619 0.0
C1684 C 0.08739 0.60276 0.16173 0.0
C1685 C 0.09565 0.61934 0.1488 0.0
C1686 C 0.09383 0.601 0.18763 0.0
C1687 C 0.08527 0.58395 0.20274 0.0
C1688 C 0.06645 0.57463 0.2088 0.0
C1689 C 0.05847 0.55852 0.2229 0.0
C1690 C 0.06919 0.55165 0.23123 0.0
C1691 C 0.08794 0.5609 0.22554 0.0
C1692 C 0.09598 0.57701 0.21141 0.0
C1693 C 0.14119 0.67645 0.22271 0.0
C1694 C 0.15609 0.67631 0.23484 0.0
C1695 C 0.12849 0.66239 0.20692 0.0
C1696 C 0.13055 0.648 0.20257 0.0
C1697 C 0.14563 0.648 0.21412 0.0
C1698 C 0.15827 0.662 0.23007 0.0
C1699 C 0.11644 0.63255 0.18725 0.0
C1700 C 0.10832 0.61589 0.19998 0.0
C1701 C 0.11023 0.63423 0.16106 0.0
C1702 C 0.11905 0.6512 0.14566 0.0
C1703 C 0.13803 0.66064 0.14085 0.0
C1704 C 0.14628 0.67664 0.12641 0.0
C1705 C 0.13567 0.68329 0.11651 0.0
C1706 C 0.11678 0.67393 0.12097 0.0
C1707 C 0.10846 0.65792 0.13542 0.0
H1708 H 0.14208 0.69568 0.10532 0.0
H1709 H 0.06299 0.53918 0.24215 0.0
loop_
_geom_bond_atom_site_label_1
_geom_bond_atom_site_label_2
_geom_bond_distance
_geom_bond_site_symmetry_2
_ccdc_geom_bond_type
Cu0 N1 1.999 . S
Cu0 O6 1.974 . S
Cu0 N11 1.985 1_655 S
Cu0 O20 1.959 1_655 S
N1 Cu0 1.999 . S
N1 C3 1.263 . S
N1 C5 1.389 . S
N2 C3 1.358 . S
N2 C4 1.400 . S
C3 N1 1.263 . S
C3 N2 1.358 . S
C3 H9 0.930 1_554 S
C4 N2 1.400 . S
C4 C5 1.351 . S
C4 H21 0.930 . S
C5 N1 1.389 . S
C5 C4 1.351 . S
C5 H10 0.930 . S
O6 Cu0 1.974 . S
O6 C16 1.282 . S
C7 O8 1.261 . S
C7 O20 1.251 . S
O8 C7 1.261 . S
H9 C3 0.930 1_556 S
H10 C5 0.930 . S
N11 Cu0 1.985 1_455 S
N11 C13 1.335 . S
N11 C14 1.390 . S
N12 C13 1.345 . S
N12 C15 1.336 . S
C13 N11 1.335 . S
C13 N12 1.345 . S
C13 H18 0.930 . S
C14 N11 1.390 . S
C14 C15 1.346 . S
C14 H19 0.930 . S
C15 N12 1.336 . S
C15 C14 1.346 . S
C15 H22 0.929 . S
C16 O6 1.282 . S
C16 O17 1.216 1_554 S
O17 C16 1.216 1_556 S
H18 C13 0.930 . S
H19 C14 0.930 . S
O20 Cu0 1.959 1_455 S
O20 C7 1.251 . S
H21 C4 0.930 . S
H22 C15 0.929 . S
Cu23 N24 1.999 . S
Cu23 O29 1.974 . S
Cu23 N34 1.985 1_565 S
Cu23 O43 1.959 1_565 S
N24 Cu23 1.999 . S
N24 C26 1.263 . S
N24 C28 1.389 . S
N25 C26 1.358 . S
N25 C27 1.400 . S
C26 N24 1.263 . S
C26 N25 1.358 . S
C26 H32 0.930 . S
C27 N25 1.400 . S
C27 C28 1.351 . S
C27 H44 0.930 . S
C28 N24 1.389 . S
C28 C27 1.351 . S
C28 H33 0.930 . S
O29 Cu23 1.974 . S
O29 C39 1.282 . S
C30 O31 1.261 . S
C30 O43 1.251 . S
O31 C30 1.261 . S
H32 C26 0.930 . S
H33 C28 0.930 . S
N34 Cu23 1.985 1_545 S
N34 C36 1.335 . S
N34 C37 1.390 . S
N35 C36 1.345 . S
N35 C38 1.336 . S
C36 N34 1.335 . S
C36 N35 1.345 . S
C36 H41 0.930 . S
C37 N34 1.390 . S
C37 C38 1.346 . S
C37 H42 0.930 . S
C38 N35 1.336 . S
C38 C37 1.346 . S
C38 H45 0.929 . S
C39 O29 1.282 . S
C39 O40 1.216 . S
O40 C39 1.216 . S
H41 C36 0.930 . S
H42 C37 0.930 . S
O43 Cu23 1.959 1_545 S
O43 C30 1.251 . S
H44 C27 0.930 . S
H45 C38 0.929 . S
Cu46 N47 1.999 . S
Cu46 O52 1.974 . S
Cu46 N57 1.985 1_556 S
Cu46 O66 1.959 1_556 S
N47 Cu46 1.999 . S
N47 C49 1.263 . S
N47 C51 1.389 . S
N48 C49 1.358 . S
N48 C50 1.400 . S
C49 N47 1.263 . S
C49 N48 1.358 . S
C49 H55 0.930 . S
C50 N48 1.400 . S
C50 C51 1.351 . S
C50 H67 0.930 . S
C51 N47 1.389 . S
C51 C50 1.351 . S
C51 H56 0.930 . S
O52 Cu46 1.974 . S
O52 C62 1.282 . S
C53 O54 1.261 . S
C53 O66 1.251 . S
O54 C53 1.261 . S
H55 C49 0.930 . S
H56 C51 0.930 . S
N57 Cu46 1.985 1_554 S
N57 C59 1.335 . S
N57 C60 1.390 . S
N58 C59 1.345 . S
N58 C61 1.336 . S
C59 N57 1.335 . S
C59 N58 1.345 . S
C59 H64 0.930 . S
C60 N57 1.390 . S
C60 C61 1.346 . S
C60 H65 0.930 . S
C61 N58 1.336 . S
C61 C60 1.346 . S
C61 H68 0.929 . S
C62 O52 1.282 . S
C62 O63 1.216 1_556 S
O63 C62 1.216 1_554 S
H64 C59 0.930 . S
H65 C60 0.930 . S
O66 Cu46 1.959 1_554 S
O66 C53 1.251 . S
H67 C50 0.930 . S
H68 C61 0.929 . S
Cu69 N70 1.999 . S
Cu69 O75 1.974 . S
Cu69 N80 1.985 . S
Cu69 O89 1.959 . S
N70 Cu69 1.999 . S
N70 C72 1.263 . S
N70 C74 1.389 . S
N71 C72 1.358 . S
N71 C73 1.400 . S
C72 N70 1.263 . S
C72 N71 1.358 . S
C72 H78 0.930 . S
C73 N71 1.400 . S
C73 C74 1.351 . S
C73 H90 0.930 . S
C74 N70 1.389 . S
C74 C73 1.351 . S
C74 H79 0.930 . S
O75 Cu69 1.974 . S
O75 C85 1.282 . S
C76 O77 1.261 . S
C76 O89 1.251 . S
O77 C76 1.261 . S
H78 C72 0.930 . S
H79 C74 0.930 . S
N80 Cu69 1.985 . S
N80 C82 1.335 . S
N80 C83 1.390 . S
N81 C82 1.345 . S
N81 C84 1.336 . S
C82 N80 1.335 . S
C82 N81 1.345 . S
C82 H87 0.930 . S
C83 N80 1.390 . S
C83 C84 1.346 . S
C83 H88 0.930 . S
C84 N81 1.336 . S
C84 C83 1.346 . S
C84 H91 0.929 . S
C85 O75 1.282 . S
C85 O86 1.216 . S
O86 C85 1.216 . S
H87 C82 0.930 . S
H88 C83 0.930 . S
O89 Cu69 1.959 . S
O89 C76 1.251 . S
H90 C73 0.930 . S
H91 C84 0.929 . S
Cu92 N93 1.999 . S
Cu92 O98 1.974 1_554 S
Cu92 N103 1.976 1_545 S
Cu92 O112 1.946 1_545 S
N93 Cu92 1.999 . S
N93 C95 1.263 1_554 S
N93 C97 1.389 . S
N94 C95 1.358 . S
N94 C96 1.400 1_556 S
C95 N93 1.263 1_556 S
C95 N94 1.358 . S
C95 H101 0.930 . S
C96 N94 1.400 1_554 S
C96 C97 1.351 . S
C96 H113 0.930 . S
C97 N93 1.389 . S
C97 C96 1.351 . S
C97 H102 0.930 . S
O98 Cu92 1.974 1_556 S
O98 C108 1.282 . S
C99 O100 1.288 . S
C99 O112 1.293 . S
O100 C99 1.288 . S
H101 C95 0.930 . S
H102 C97 0.930 . S
N103 Cu92 1.976 1_565 S
N103 C105 1.340 . S
N103 C106 1.378 . S
N104 C105 1.345 . S
N104 C107 1.336 . S
C105 N103 1.340 . S
C105 N104 1.345 . S
C105 H110 0.930 . S
C106 N103 1.378 . S
C106 C107 1.375 . S
C106 H111 0.902 1_564 S
C107 N104 1.336 . S
C107 C106 1.375 . S
C107 H114 0.929 . S
C108 O98 1.282 . S
C108 O109 1.216 . S
O109 C108 1.216 . S
H110 C105 0.930 . S
H111 C106 0.902 1_546 S
O112 Cu92 1.946 1_565 S
O112 C99 1.293 . S
H113 C96 0.930 . S
H114 C107 0.929 . S
Cu115 N116 1.999 . S
Cu115 O121 1.974 . S
Cu115 N126 1.985 . S
Cu115 O135 1.959 . S
N116 Cu115 1.999 . S
N116 C118 1.263 . S
N116 C120 1.389 . S
N117 C118 1.358 . S
N117 C119 1.400 . S
C118 N116 1.263 . S
C118 N117 1.358 . S
C118 H124 0.930 . S
C119 N117 1.400 . S
C119 C120 1.351 . S
C119 H136 0.930 . S
C120 N116 1.389 . S
C120 C119 1.351 . S
C120 H125 0.930 . S
O121 Cu115 1.974 . S
O121 C131 1.282 . S
C122 O123 1.261 . S
C122 O135 1.251 . S
O123 C122 1.261 . S
H124 C118 0.930 . S
H125 C120 0.930 . S
N126 Cu115 1.985 . S
N126 C128 1.335 . S
N126 C129 1.390 . S
N127 C128 1.345 . S
N127 C130 1.336 . S
C128 N126 1.335 . S
C128 N127 1.345 . S
C128 H133 0.930 . S
C129 N126 1.390 . S
C129 C130 1.346 . S
C129 H134 0.930 . S
C130 N127 1.336 . S
C130 C129 1.346 . S
C130 H137 0.929 . S
C131 O121 1.282 . S
C131 O132 1.216 . S
O132 C131 1.216 . S
H133 C128 0.930 . S
H134 C129 0.930 . S
O135 Cu115 1.959 . S
O135 C122 1.251 . S
H136 C119 0.930 . S
H137 C130 0.929 . S
H138 C165 0.929 . S
N139 C164 1.433 . S
N139 C170 1.435 . S
N139 C176 1.423 . S
H140 C166 0.930 . S
H141 C169 0.931 . S
H142 C168 0.929 . S
H143 C171 0.930 . S
H144 C172 0.932 . S
H145 C175 0.929 . S
H146 C174 0.931 . S
H147 C177 0.929 . S
H148 C181 0.932 . S
H149 C178 0.931 . S
H150 C180 0.929 . S
H151 C183 0.929 . S
H152 C184 0.930 . S
H153 C186 0.929 . S
H154 C187 0.931 . S
H155 C189 0.930 . S
H156 C190 0.932 . S
H157 C192 0.931 . S
H158 C193 0.929 . S
H159 C195 0.929 . S
H160 C196 0.931 . S
H161 C198 0.929 . S
N162 C182 1.433 . S
N162 C188 1.435 . S
N162 C194 1.423 . S
H163 C199 0.932 . S
C164 N139 1.433 . S
C164 C165 1.363 . S
C164 C169 1.370 . S
C165 H138 0.929 . S
C165 C164 1.363 . S
C165 C166 1.385 . S
C166 H140 0.930 . S
C166 C165 1.385 . S
C166 C167 1.357 . S
C167 C166 1.357 . S
C167 C168 1.406 . S
C168 H142 0.929 . S
C168 C167 1.406 . S
C168 C169 1.391 . S
C169 H141 0.931 . S
C169 C164 1.370 . S
C169 C168 1.391 . S
C170 N139 1.435 . S
C170 C171 1.358 . S
C170 C175 1.371 . S
C171 H143 0.930 . S
C171 C170 1.358 . S
C171 C172 1.405 . S
C172 H144 0.932 . S
C172 C171 1.405 . S
C172 C173 1.383 . S
C173 C172 1.383 . S
C173 C174 1.393 . S
C174 H146 0.931 . S
C174 C173 1.393 . S
C174 C175 1.382 . S
C175 H145 0.929 . S
C175 C170 1.371 . S
C175 C174 1.382 . S
C176 N139 1.423 . S
C176 C177 1.362 . S
C176 C181 1.388 . S
C177 H147 0.929 . S
C177 C176 1.362 . S
C177 C178 1.376 . S
C178 H149 0.931 . S
C178 C177 1.376 . S
C178 C179 1.396 . S
C179 C178 1.396 . S
C179 C180 1.348 . S
C179 C197 1.472 . S
C180 H150 0.929 . S
C180 C179 1.348 . S
C180 C181 1.443 . S
C181 H148 0.932 . S
C181 C176 1.388 . S
C181 C180 1.443 . S
C182 N162 1.433 . S
C182 C183 1.363 . S
C182 C187 1.370 . S
C183 H151 0.929 . S
C183 C182 1.363 . S
C183 C184 1.385 . S
C184 H152 0.930 . S
C184 C183 1.385 . S
C184 C185 1.357 . S
C185 C184 1.357 . S
C185 C186 1.406 . S
C186 H153 0.929 . S
C186 C185 1.406 . S
C186 C187 1.391 . S
C187 H154 0.931 . S
C187 C182 1.370 . S
C187 C186 1.391 . S
C188 N162 1.435 . S
C188 C189 1.358 . S
C188 C193 1.371 . S
C189 H155 0.930 . S
C189 C188 1.358 . S
C189 C190 1.405 . S
C190 H156 0.932 . S
C190 C189 1.405 . S
C190 C191 1.383 . S
C191 C190 1.383 . S
C191 C192 1.393 . S
C192 H157 0.931 . S
C192 C191 1.393 . S
C192 C193 1.382 . S
C193 H158 0.929 . S
C193 C188 1.371 . S
C193 C192 1.382 . S
C194 N162 1.423 . S
C194 C195 1.362 . S
C194 C199 1.388 . S
C195 H159 0.929 . S
C195 C194 1.362 . S
C195 C196 1.376 . S
C196 H160 0.931 . S
C196 C195 1.376 . S
C196 C197 1.396 . S
C197 C179 1.472 . S
C197 C196 1.396 . S
C197 C198 1.348 . S
C198 H161 0.929 . S
C198 C197 1.348 . S
C198 C199 1.443 . S
C199 H163 0.932 . S
C199 C194 1.388 . S
C199 C198 1.443 . S
H200 C227 0.929 . S
N201 C226 1.433 . S
N201 C232 1.435 . S
N201 C238 1.423 . S
H202 C228 0.930 . S
H203 C231 0.931 . S
H204 C230 0.929 . S
H205 C233 0.930 . S
H206 C234 0.932 . S
H207 C237 0.929 . S
H208 C236 0.931 . S
H209 C239 0.929 . S
H210 C243 0.932 . S
H211 C240 0.931 . S
H212 C242 0.929 . S
H213 C245 0.929 . S
H214 C246 0.930 . S
H215 C248 0.929 . S
H216 C249 0.931 . S
H217 C251 0.930 . S
H218 C252 0.932 . S
H219 C254 0.931 . S
H220 C255 0.929 . S
H221 C257 0.929 . S
H222 C258 0.931 . S
H223 C260 0.929 . S
N224 C244 1.433 . S
N224 C250 1.435 . S
N224 C256 1.423 . S
H225 C261 0.932 . S
C226 N201 1.433 . S
C226 C227 1.363 . S
C226 C231 1.370 . S
C227 H200 0.929 . S
C227 C226 1.363 . S
C227 C228 1.385 . S
C228 H202 0.930 . S
C228 C227 1.385 . S
C228 C229 1.357 . S
C229 C228 1.357 . S
C229 C230 1.406 . S
C230 H204 0.929 . S
C230 C229 1.406 . S
C230 C231 1.391 . S
C231 H203 0.931 . S
C231 C226 1.370 . S
C231 C230 1.391 . S
C232 N201 1.435 . S
C232 C233 1.358 . S
C232 C237 1.371 . S
C233 H205 0.930 . S
C233 C232 1.358 . S
C233 C234 1.405 . S
C234 H206 0.932 . S
C234 C233 1.405 . S
C234 C235 1.383 . S
C235 C234 1.383 . S
C235 C236 1.393 . S
C236 H208 0.931 . S
C236 C235 1.393 . S
C236 C237 1.382 . S
C237 H207 0.929 . S
C237 C232 1.371 . S
C237 C236 1.382 . S
C238 N201 1.423 . S
C238 C239 1.362 . S
C238 C243 1.388 . S
C239 H209 0.929 . S
C239 C238 1.362 . S
C239 C240 1.376 . S
C240 H211 0.931 . S
C240 C239 1.376 . S
C240 C241 1.396 . S
C241 C240 1.396 . S
C241 C242 1.348 . S
C241 C259 1.472 . S
C242 H212 0.929 . S
C242 C241 1.348 . S
C242 C243 1.443 . S
C243 H210 0.932 . S
C243 C238 1.388 . S
C243 C242 1.443 . S
C244 N224 1.433 . S
C244 C245 1.363 . S
C244 C249 1.370 . S
C245 H213 0.929 . S
C245 C244 1.363 . S
C245 C246 1.385 . S
C246 H214 0.930 . S
C246 C245 1.385 . S
C246 C247 1.357 . S
C247 C246 1.357 . S
C247 C248 1.406 . S
C248 H215 0.929 . S
C248 C247 1.406 . S
C248 C249 1.391 . S
C249 H216 0.931 . S
C249 C244 1.370 . S
C249 C248 1.391 . S
C250 N224 1.435 . S
C250 C251 1.358 . S
C250 C255 1.371 . S
C251 H217 0.930 . S
C251 C250 1.358 . S
C251 C252 1.405 . S
C252 H218 0.932 . S
C252 C251 1.405 . S
C252 C253 1.383 . S
C253 C252 1.383 . S
C253 C254 1.393 . S
C254 H219 0.931 . S
C254 C253 1.393 . S
C254 C255 1.382 . S
C255 H220 0.929 . S
C255 C250 1.371 . S
C255 C254 1.382 . S
C256 N224 1.423 . S
C256 C257 1.362 . S
C256 C261 1.388 . S
C257 H221 0.929 . S
C257 C256 1.362 . S
C257 C258 1.376 . S
C258 H222 0.931 . S
C258 C257 1.376 . S
C258 C259 1.396 . S
C259 C241 1.472 . S
C259 C258 1.396 . S
C259 C260 1.348 . S
C260 H223 0.929 . S
C260 C259 1.348 . S
C260 C261 1.443 . S
C261 H225 0.932 . S
C261 C256 1.388 . S
C261 C260 1.443 . S
H262 C289 0.929 . S
N263 C288 1.433 . S
N263 C294 1.435 . S
N263 C300 1.423 . S
H264 C290 0.930 . S
H265 C293 0.931 . S
H266 C292 0.929 . S
H267 C295 0.930 . S
H268 C296 0.932 . S
H269 C299 0.929 . S
H270 C298 0.931 . S
H271 C301 0.929 . S
H272 C305 0.932 . S
H273 C302 0.931 . S
H274 C304 0.929 . S
H275 C307 0.929 . S
H276 C308 0.930 . S
H277 C310 0.929 . S
H278 C311 0.931 . S
H279 C313 0.930 . S
H280 C314 0.932 . S
H281 C316 0.931 . S
H282 C317 0.929 . S
H283 C319 0.929 . S
H284 C320 0.931 . S
H285 C322 0.929 . S
N286 C306 1.433 . S
N286 C312 1.435 . S
N286 C318 1.423 . S
H287 C323 0.932 . S
C288 N263 1.433 . S
C288 C289 1.363 . S
C288 C293 1.370 . S
C289 H262 0.929 . S
C289 C288 1.363 . S
C289 C290 1.385 . S
C290 H264 0.930 . S
C290 C289 1.385 . S
C290 C291 1.357 . S
C291 C290 1.357 . S
C291 C292 1.406 . S
C292 H266 0.929 . S
C292 C291 1.406 . S
C292 C293 1.391 . S
C293 H265 0.931 . S
C293 C288 1.370 . S
C293 C292 1.391 . S
C294 N263 1.435 . S
C294 C295 1.358 . S
C294 C299 1.371 . S
C295 H267 0.930 . S
C295 C294 1.358 . S
C295 C296 1.405 . S
C296 H268 0.932 . S
C296 C295 1.405 . S
C296 C297 1.383 . S
C297 C296 1.383 . S
C297 C298 1.393 . S
C298 H270 0.931 . S
C298 C297 1.393 . S
C298 C299 1.382 . S
C299 H269 0.929 . S
C299 C294 1.371 . S
C299 C298 1.382 . S
C300 N263 1.423 . S
C300 C301 1.362 . S
C300 C305 1.388 . S
C301 H271 0.929 . S
C301 C300 1.362 . S
C301 C302 1.376 . S
C302 H273 0.931 . S
C302 C301 1.376 . S
C302 C303 1.396 . S
C303 C302 1.396 . S
C303 C304 1.348 . S
C303 C321 1.472 . S
C304 H274 0.929 . S
C304 C303 1.348 . S
C304 C305 1.443 . S
C305 H272 0.932 . S
C305 C300 1.388 . S
C305 C304 1.443 . S
C306 N286 1.433 . S
C306 C307 1.363 . S
C306 C311 1.370 . S
C307 H275 0.929 . S
C307 C306 1.363 . S
C307 C308 1.385 . S
C308 H276 0.930 . S
C308 C307 1.385 . S
C308 C309 1.357 . S
C309 C308 1.357 . S
C309 C310 1.406 . S
C310 H277 0.929 . S
C310 C309 1.406 . S
C310 C311 1.391 . S
C311 H278 0.931 . S
C311 C306 1.370 . S
C311 C310 1.391 . S
C312 N286 1.435 . S
C312 C313 1.358 . S
C312 C317 1.371 . S
C313 H279 0.930 . S
C313 C312 1.358 . S
C313 C314 1.405 . S
C314 H280 0.932 . S
C314 C313 1.405 . S
C314 C315 1.383 . S
C315 C314 1.383 . S
C315 C316 1.393 . S
C316 H281 0.931 . S
C316 C315 1.393 . S
C316 C317 1.382 . S
C317 H282 0.929 . S
C317 C312 1.371 . S
C317 C316 1.382 . S
C318 N286 1.423 . S
C318 C319 1.362 . S
C318 C323 1.388 . S
C319 H283 0.929 . S
C319 C318 1.362 . S
C319 C320 1.376 . S
C320 H284 0.931 . S
C320 C319 1.376 . S
C320 C321 1.396 . S
C321 C303 1.472 . S
C321 C320 1.396 . S
C321 C322 1.348 . S
C322 H285 0.929 . S
C322 C321 1.348 . S
C322 C323 1.443 . S
C323 H287 0.932 . S
C323 C318 1.388 . S
C323 C322 1.443 . S
H324 C351 0.929 . S
N325 C350 1.433 . S
N325 C356 1.435 . S
N325 C362 1.423 . S
H326 C352 0.930 . S
H327 C355 0.931 . S
H328 C354 0.929 . S
H329 C357 0.930 . S
H330 C358 0.932 . S
H331 C361 0.929 . S
H332 C360 0.931 . S
H333 C363 0.929 . S
H334 C367 0.932 . S
H335 C364 0.931 . S
H336 C366 0.929 . S
H337 C369 0.929 . S
H338 C370 0.930 . S
H339 C372 0.929 . S
H340 C373 0.931 . S
H341 C375 0.930 . S
H342 C376 0.932 . S
H343 C378 0.931 . S
H344 C379 0.929 . S
H345 C381 0.929 . S
H346 C382 0.931 . S
H347 C384 0.929 . S
N348 C368 1.433 . S
N348 C374 1.435 . S
N348 C380 1.423 . S
H349 C385 0.932 . S
C350 N325 1.433 . S
C350 C351 1.363 . S
C350 C355 1.370 . S
C351 H324 0.929 . S
C351 C350 1.363 . S
C351 C352 1.385 . S
C352 H326 0.930 . S
C352 C351 1.385 . S
C352 C353 1.357 . S
C353 C352 1.357 . S
C353 C354 1.406 . S
C354 H328 0.929 . S
C354 C353 1.406 . S
C354 C355 1.391 . S
C355 H327 0.931 . S
C355 C350 1.370 . S
C355 C354 1.391 . S
C356 N325 1.435 . S
C356 C357 1.358 . S
C356 C361 1.371 . S
C357 H329 0.930 . S
C357 C356 1.358 . S
C357 C358 1.405 . S
C358 H330 0.932 . S
C358 C357 1.405 . S
C358 C359 1.383 . S
C359 C358 1.383 . S
C359 C360 1.393 . S
C360 H332 0.931 . S
C360 C359 1.393 . S
C360 C361 1.382 . S
C361 H331 0.929 . S
C361 C356 1.371 . S
C361 C360 1.382 . S
C362 N325 1.423 . S
C362 C363 1.362 . S
C362 C367 1.388 . S
C363 H333 0.929 . S
C363 C362 1.362 . S
C363 C364 1.376 . S
C364 H335 0.931 . S
C364 C363 1.376 . S
C364 C365 1.396 . S
C365 C364 1.396 . S
C365 C366 1.348 . S
C365 C383 1.472 . S
C366 H336 0.929 . S
C366 C365 1.348 . S
C366 C367 1.443 . S
C367 H334 0.932 . S
C367 C362 1.388 . S
C367 C366 1.443 . S
C368 N348 1.433 . S
C368 C369 1.363 . S
C368 C373 1.370 . S
C369 H337 0.929 . S
C369 C368 1.363 . S
C369 C370 1.385 . S
C370 H338 0.930 . S
C370 C369 1.385 . S
C370 C371 1.357 . S
C371 C370 1.357 . S
C371 C372 1.406 . S
C372 H339 0.929 . S
C372 C371 1.406 . S
C372 C373 1.391 . S
C373 H340 0.931 . S
C373 C368 1.370 . S
C373 C372 1.391 . S
C374 N348 1.435 . S
C374 C375 1.358 . S
C374 C379 1.371 . S
C375 H341 0.930 . S
C375 C374 1.358 . S
C375 C376 1.405 . S
C376 H342 0.932 . S
C376 C375 1.405 . S
C376 C377 1.383 . S
C377 C376 1.383 . S
C377 C378 1.393 . S
C378 H343 0.931 . S
C378 C377 1.393 . S
C378 C379 1.382 . S
C379 H344 0.929 . S
C379 C374 1.371 . S
C379 C378 1.382 . S
C380 N348 1.423 . S
C380 C381 1.362 . S
C380 C385 1.388 . S
C381 H345 0.929 . S
C381 C380 1.362 . S
C381 C382 1.376 . S
C382 H346 0.931 . S
C382 C381 1.376 . S
C382 C383 1.396 . S
C383 C365 1.472 . S
C383 C382 1.396 . S
C383 C384 1.348 . S
C384 H347 0.929 . S
C384 C383 1.348 . S
C384 C385 1.443 . S
C385 H349 0.932 . S
C385 C380 1.388 . S
C385 C384 1.443 . S
H386 C413 0.929 . S
N387 C412 1.433 . S
N387 C418 1.435 . S
N387 C424 1.423 . S
H388 C414 0.930 . S
H389 C417 0.931 . S
H390 C416 0.929 . S
H391 C419 0.930 . S
H392 C420 0.932 . S
H393 C423 0.929 . S
H394 C422 0.931 . S
H395 C425 0.929 . S
H396 C429 0.932 . S
H397 C426 0.931 . S
H398 C428 0.929 . S
H399 C431 0.929 . S
H400 C432 0.930 . S
H401 C434 0.929 . S
H402 C435 0.931 . S
H403 C437 0.930 . S
H404 C438 0.932 . S
H405 C440 0.931 . S
H406 C441 0.929 . S
H407 C443 0.929 . S
H408 C444 0.931 . S
H409 C446 0.929 . S
N410 C430 1.433 . S
N410 C436 1.435 . S
N410 C442 1.423 . S
H411 C447 0.932 . S
C412 N387 1.433 . S
C412 C413 1.363 . S
C412 C417 1.370 . S
C413 H386 0.929 . S
C413 C412 1.363 . S
C413 C414 1.385 . S
C414 H388 0.930 . S
C414 C413 1.385 . S
C414 C415 1.357 . S
C415 C414 1.357 . S
C415 C416 1.406 . S
C416 H390 0.929 . S
C416 C415 1.406 . S
C416 C417 1.391 . S
C417 H389 0.931 . S
C417 C412 1.370 . S
C417 C416 1.391 . S
C418 N387 1.435 . S
C418 C419 1.358 . S
C418 C423 1.371 . S
C419 H391 0.930 . S
C419 C418 1.358 . S
C419 C420 1.405 . S
C420 H392 0.932 . S
C420 C419 1.405 . S
C420 C421 1.383 . S
C421 C420 1.383 . S
C421 C422 1.393 . S
C422 H394 0.931 . S
C422 C421 1.393 . S
C422 C423 1.382 . S
C423 H393 0.929 . S
C423 C418 1.371 . S
C423 C422 1.382 . S
C424 N387 1.423 . S
C424 C425 1.362 . S
C424 C429 1.388 . S
C425 H395 0.929 . S
C425 C424 1.362 . S
C425 C426 1.376 . S
C426 H397 0.931 . S
C426 C425 1.376 . S
C426 C427 1.396 . S
C427 C426 1.396 . S
C427 C428 1.348 . S
C427 C445 1.472 . S
C428 H398 0.929 . S
C428 C427 1.348 . S
C428 C429 1.443 . S
C429 H396 0.932 . S
C429 C424 1.388 . S
C429 C428 1.443 . S
C430 N410 1.433 . S
C430 C431 1.363 . S
C430 C435 1.370 . S
C431 H399 0.929 . S
C431 C430 1.363 . S
C431 C432 1.385 . S
C432 H400 0.930 . S
C432 C431 1.385 . S
C432 C433 1.357 . S
C433 C432 1.357 . S
C433 C434 1.406 . S
C434 H401 0.929 . S
C434 C433 1.406 . S
C434 C435 1.391 . S
C435 H402 0.931 . S
C435 C430 1.370 . S
C435 C434 1.391 . S
C436 N410 1.435 . S
C436 C437 1.358 . S
C436 C441 1.371 . S
C437 H403 0.930 . S
C437 C436 1.358 . S
C437 C438 1.405 . S
C438 H404 0.932 . S
C438 C437 1.405 . S
C438 C439 1.383 . S
C439 C438 1.383 . S
C439 C440 1.393 . S
C440 H405 0.931 . S
C440 C439 1.393 . S
C440 C441 1.382 . S
C441 H406 0.929 . S
C441 C436 1.371 . S
C441 C440 1.382 . S
C442 N410 1.423 . S
C442 C443 1.362 . S
C442 C447 1.388 . S
C443 H407 0.929 . S
C443 C442 1.362 . S
C443 C444 1.376 . S
C444 H408 0.931 . S
C444 C443 1.376 . S
C444 C445 1.396 . S
C445 C427 1.472 . S
C445 C444 1.396 . S
C445 C446 1.348 . S
C446 H409 0.929 . S
C446 C445 1.348 . S
C446 C447 1.443 . S
C447 H411 0.932 . S
C447 C442 1.388 . S
C447 C446 1.443 . S
H448 C475 0.929 . S
N449 C474 1.433 . S
N449 C480 1.435 . S
N449 C486 1.423 . S
H450 C476 0.930 . S
H451 C479 0.931 . S
H452 C478 0.929 . S
H453 C481 0.930 . S
H454 C482 0.932 . S
H455 C485 0.929 . S
H456 C484 0.931 . S
H457 C487 0.929 . S
H458 C491 0.932 . S
H459 C488 0.931 . S
H460 C490 0.929 . S
H461 C493 0.929 . S
H462 C494 0.930 . S
H463 C496 0.929 . S
H464 C497 0.931 . S
H465 C499 0.930 . S
H466 C500 0.932 . S
H467 C502 0.931 . S
H468 C503 0.929 . S
H469 C505 0.929 . S
H470 C506 0.931 . S
H471 C508 0.929 . S
N472 C492 1.433 . S
N472 C498 1.435 . S
N472 C504 1.423 . S
H473 C509 0.932 . S
C474 N449 1.433 . S
C474 C475 1.363 . S
C474 C479 1.370 . S
C475 H448 0.929 . S
C475 C474 1.363 . S
C475 C476 1.385 . S
C476 H450 0.930 . S
C476 C475 1.385 . S
C476 C477 1.357 . S
C477 C476 1.357 . S
C477 C478 1.406 . S
C478 H452 0.929 . S
C478 C477 1.406 . S
C478 C479 1.391 . S
C479 H451 0.931 . S
C479 C474 1.370 . S
C479 C478 1.391 . S
C480 N449 1.435 . S
C480 C481 1.358 . S
C480 C485 1.371 . S
C481 H453 0.930 . S
C481 C480 1.358 . S
C481 C482 1.405 . S
C482 H454 0.932 . S
C482 C481 1.405 . S
C482 C483 1.383 . S
C483 C482 1.383 . S
C483 C484 1.393 . S
C484 H456 0.931 . S
C484 C483 1.393 . S
C484 C485 1.382 . S
C485 H455 0.929 . S
C485 C480 1.371 . S
C485 C484 1.382 . S
C486 N449 1.423 . S
C486 C487 1.362 . S
C486 C491 1.388 . S
C487 H457 0.929 . S
C487 C486 1.362 . S
C487 C488 1.376 . S
C488 H459 0.931 . S
C488 C487 1.376 . S
C488 C489 1.396 . S
C489 C488 1.396 . S
C489 C490 1.348 . S
C489 C507 1.472 . S
C490 H460 0.929 . S
C490 C489 1.348 . S
C490 C491 1.443 . S
C491 H458 0.932 . S
C491 C486 1.388 . S
C491 C490 1.443 . S
C492 N472 1.433 . S
C492 C493 1.363 . S
C492 C497 1.370 . S
C493 H461 0.929 . S
C493 C492 1.363 . S
C493 C494 1.385 . S
C494 H462 0.930 . S
C494 C493 1.385 . S
C494 C495 1.357 . S
C495 C494 1.357 . S
C495 C496 1.406 . S
C496 H463 0.929 . S
C496 C495 1.406 . S
C496 C497 1.391 . S
C497 H464 0.931 . S
C497 C492 1.370 . S
C497 C496 1.391 . S
C498 N472 1.435 . S
C498 C499 1.358 . S
C498 C503 1.371 . S
C499 H465 0.930 . S
C499 C498 1.358 . S
C499 C500 1.405 . S
C500 H466 0.932 . S
C500 C499 1.405 . S
C500 C501 1.383 . S
C501 C500 1.383 . S
C501 C502 1.393 . S
C502 H467 0.931 . S
C502 C501 1.393 . S
C502 C503 1.382 . S
C503 H468 0.929 . S
C503 C498 1.371 . S
C503 C502 1.382 . S
C504 N472 1.423 . S
C504 C505 1.362 . S
C504 C509 1.388 . S
C505 H469 0.929 . S
C505 C504 1.362 . S
C505 C506 1.376 . S
C506 H470 0.931 . S
C506 C505 1.376 . S
C506 C507 1.396 . S
C507 C489 1.472 . S
C507 C506 1.396 . S
C507 C508 1.348 . S
C508 H471 0.929 . S
C508 C507 1.348 . S
C508 C509 1.443 . S
C509 H473 0.932 . S
C509 C504 1.388 . S
C509 C508 1.443 . S
H510 C528 0.951 . S
H511 C530 0.951 . S
H512 C532 0.950 . S
H513 C533 0.950 . S
H514 C535 0.950 . S
H515 C538 0.950 . S
H516 C539 0.950 . S
H517 C541 0.950 . S
H518 C542 0.950 . S
H519 C543 0.951 . S
H520 C545 0.951 . S
H521 C547 0.950 . S
H522 C548 0.950 . S
H523 C550 0.950 . S
H524 C553 0.950 . S
H525 C554 0.950 . S
H526 C556 0.950 . S
H527 C557 0.950 . S
C528 H510 0.951 . S
C528 C529 1.366 . S
C528 C530 1.388 . S
C529 C528 1.366 . S
C529 C533 1.385 . S
C530 H511 0.951 . S
C530 C528 1.388 . S
C530 C531 1.366 . S
C531 C530 1.366 . S
C531 C532 1.414 . S
C531 C534 1.499 . S
C532 H512 0.950 . S
C532 C531 1.414 . S
C532 C533 1.374 . S
C533 H513 0.950 . S
C533 C529 1.385 . S
C533 C532 1.374 . S
C534 C531 1.499 . S
C534 C535 1.373 . S
C534 C536 1.389 . S
C535 H514 0.950 . S
C535 C534 1.373 . S
C535 C551 1.377 . S
C536 C534 1.389 . S
C536 C537 1.524 . S
C536 C550 1.377 . S
C537 C536 1.524 . S
C537 C538 1.397 . S
C537 C542 1.363 . S
C538 H515 0.950 . S
C538 C537 1.397 . S
C538 C539 1.334 . S
C539 H516 0.950 . S
C539 C538 1.334 . S
C539 C540 1.287 . S
C540 C539 1.287 . S
C540 C541 1.524 . S
C540 H559 0.913 . S
C541 H517 0.950 . S
C541 C540 1.524 . S
C541 C542 1.415 . S
C542 H518 0.950 . S
C542 C537 1.363 . S
C542 C541 1.415 . S
C543 H519 0.951 . S
C543 C544 1.366 . S
C543 C545 1.388 . S
C544 C543 1.366 . S
C544 C548 1.385 . S
C545 H520 0.951 . S
C545 C543 1.388 . S
C545 C546 1.366 . S
C546 C545 1.366 . S
C546 C547 1.414 . S
C546 C549 1.499 . S
C547 H521 0.950 . S
C547 C546 1.414 . S
C547 C548 1.374 . S
C548 H522 0.950 . S
C548 C544 1.385 . S
C548 C547 1.374 . S
C549 C546 1.499 . S
C549 C550 1.373 . S
C549 C551 1.389 . S
C550 H523 0.950 . S
C550 C536 1.377 . S
C550 C549 1.373 . S
C551 C535 1.377 . S
C551 C549 1.389 . S
C551 C552 1.524 . S
C552 C551 1.524 . S
C552 C553 1.397 . S
C552 C557 1.363 . S
C553 H524 0.950 . S
C553 C552 1.397 . S
C553 C554 1.334 . S
C554 H525 0.950 . S
C554 C553 1.334 . S
C554 C555 1.287 . S
C555 C554 1.287 . S
C555 C556 1.524 . S
C555 H558 0.999 . S
C556 H526 0.950 . S
C556 C555 1.524 . S
C556 C557 1.415 . S
C557 H527 0.950 . S
C557 C552 1.363 . S
C557 C556 1.415 . S
H558 C555 0.999 . S
H559 C540 0.913 . S
H560 C578 0.951 . S
H561 C580 0.951 . S
H562 C582 0.950 . S
H563 C583 0.950 . S
H564 C585 0.950 . S
H565 C588 0.950 . S
H566 C589 0.950 . S
H567 C591 0.950 . S
H568 C592 0.950 . S
H569 C593 0.951 . S
H570 C595 0.951 . S
H571 C597 0.950 . S
H572 C598 0.950 . S
H573 C600 0.950 . S
H574 C603 0.950 . S
H575 C604 0.950 . S
H576 C606 0.950 . S
H577 C607 0.950 . S
C578 H560 0.951 . S
C578 C579 1.366 . S
C578 C580 1.388 . S
C579 C578 1.366 . S
C579 C583 1.385 . S
C580 H561 0.951 . S
C580 C578 1.388 . S
C580 C581 1.366 . S
C581 C580 1.366 . S
C581 C582 1.414 . S
C581 C584 1.499 . S
C582 H562 0.950 . S
C582 C581 1.414 . S
C582 C583 1.374 . S
C583 H563 0.950 . S
C583 C579 1.385 . S
C583 C582 1.374 . S
C584 C581 1.499 . S
C584 C585 1.373 . S
C584 C586 1.389 . S
C585 H564 0.950 . S
C585 C584 1.373 . S
C585 C601 1.377 . S
C586 C584 1.389 . S
C586 C587 1.524 . S
C586 C600 1.377 . S
C587 C586 1.524 . S
C587 C588 1.397 . S
C587 C592 1.363 . S
C588 H565 0.950 . S
C588 C587 1.397 . S
C588 C589 1.334 . S
C589 H566 0.950 . S
C589 C588 1.334 . S
C589 C590 1.287 . S
C590 C589 1.287 . S
C590 C591 1.524 . S
C590 H609 0.913 . S
C591 H567 0.950 . S
C591 C590 1.524 . S
C591 C592 1.415 . S
C592 H568 0.950 . S
C592 C587 1.363 . S
C592 C591 1.415 . S
C593 H569 0.951 . S
C593 C594 1.366 . S
C593 C595 1.388 . S
C594 C593 1.366 . S
C594 C598 1.385 . S
C595 H570 0.951 . S
C595 C593 1.388 . S
C595 C596 1.366 . S
C596 C595 1.366 . S
C596 C597 1.414 . S
C596 C599 1.499 . S
C597 H571 0.950 . S
C597 C596 1.414 . S
C597 C598 1.374 . S
C598 H572 0.950 . S
C598 C594 1.385 . S
C598 C597 1.374 . S
C599 C596 1.499 . S
C599 C600 1.373 . S
C599 C601 1.389 . S
C600 H573 0.950 . S
C600 C586 1.377 . S
C600 C599 1.373 . S
C601 C585 1.377 . S
C601 C599 1.389 . S
C601 C602 1.524 . S
C602 C601 1.524 . S
C602 C603 1.397 . S
C602 C607 1.363 . S
C603 H574 0.950 . S
C603 C602 1.397 . S
C603 C604 1.334 . S
C604 H575 0.950 . S
C604 C603 1.334 . S
C604 C605 1.287 . S
C605 C604 1.287 . S
C605 C606 1.524 . S
C605 H608 0.999 . S
C606 H576 0.950 . S
C606 C605 1.524 . S
C606 C607 1.415 . S
C607 H577 0.950 . S
C607 C602 1.363 . S
C607 C606 1.415 . S
H608 C605 0.999 . S
H609 C590 0.913 . S
H610 C628 0.951 . S
H611 C630 0.951 . S
H612 C632 0.950 . S
H613 C633 0.950 . S
H614 C635 0.950 . S
H615 C638 0.950 . S
H616 C639 0.950 . S
H617 C641 0.978 . S
H618 C642 0.950 . S
H619 C643 0.951 . S
H620 C645 0.951 . S
H621 C647 0.950 . S
H622 C648 0.950 . S
H623 C650 0.950 . S
H624 C653 0.950 . S
H625 C654 0.950 . S
H626 C656 0.950 . S
H627 C657 0.950 . S
C628 H610 0.951 . S
C628 C629 1.366 . S
C628 C630 1.388 . S
C629 C628 1.366 . S
C629 C633 1.385 . S
C630 H611 0.951 . S
C630 C628 1.388 . S
C630 C631 1.366 . S
C631 C630 1.366 . S
C631 C632 1.414 . S
C631 C634 1.499 . S
C632 H612 0.950 . S
C632 C631 1.414 . S
C632 C633 1.374 . S
C633 H613 0.950 . S
C633 C629 1.385 . S
C633 C632 1.374 . S
C634 C631 1.499 . S
C634 C635 1.373 . S
C634 C636 1.389 . S
C635 H614 0.950 . S
C635 C634 1.373 . S
C635 C651 1.377 . S
C636 C634 1.389 . S
C636 C637 1.524 . S
C636 C650 1.377 . S
C637 C636 1.524 . S
C637 C638 1.397 . S
C637 C642 1.363 . S
C638 H615 0.950 . S
C638 C637 1.397 . S
C638 C639 1.334 . S
C639 H616 0.950 . S
C639 C638 1.334 . S
C639 C640 1.287 . S
C640 C639 1.287 . S
C640 C641 1.524 . S
C640 H659 0.913 1_554 S
C641 H617 0.978 . S
C641 C640 1.524 . S
C641 C642 1.415 . S
C642 H618 0.950 . S
C642 C637 1.363 . S
C642 C641 1.415 . S
C643 H619 0.951 . S
C643 C644 1.366 . S
C643 C645 1.388 . S
C644 C643 1.366 . S
C644 C648 1.385 . S
C645 H620 0.951 . S
C645 C643 1.388 . S
C645 C646 1.366 . S
C646 C645 1.366 . S
C646 C647 1.414 . S
C646 C649 1.499 . S
C647 H621 0.950 . S
C647 C646 1.414 . S
C647 C648 1.374 . S
C648 H622 0.950 . S
C648 C644 1.385 . S
C648 C647 1.374 . S
C649 C646 1.499 . S
C649 C650 1.373 . S
C649 C651 1.389 . S
C650 H623 0.950 . S
C650 C636 1.377 . S
C650 C649 1.373 . S
C651 C635 1.377 . S
C651 C649 1.389 . S
C651 C652 1.524 . S
C652 C651 1.524 . S
C652 C653 1.397 . S
C652 C657 1.363 . S
C653 H624 0.950 . S
C653 C652 1.397 . S
C653 C654 1.334 . S
C654 H625 0.950 . S
C654 C653 1.334 . S
C654 C655 1.287 . S
C655 C654 1.287 . S
C655 C656 1.524 . S
C655 H658 0.999 . S
C656 H626 0.950 . S
C656 C655 1.524 . S
C656 C657 1.415 . S
C657 H627 0.950 . S
C657 C652 1.363 . S
C657 C656 1.415 . S
H658 C655 0.999 . S
H659 C640 0.913 1_556 S
H660 C678 0.951 . S
H661 C680 0.951 . S
H662 C682 0.950 . S
H663 C683 0.950 . S
H664 C685 0.950 . S
H665 C688 0.950 . S
H666 C689 0.950 . S
H667 C691 0.950 . S
H668 C692 0.950 . S
H669 C693 0.951 . S
H670 C695 0.951 . S
H671 C697 0.950 . S
H672 C698 0.950 . S
H673 C700 0.950 . S
H674 C703 0.950 . S
H675 C704 0.950 . S
H676 C706 0.950 . S
H677 C707 0.950 . S
C678 H660 0.951 . S
C678 C679 1.366 1_455 S
C678 C680 1.388 1_455 S
C679 C678 1.366 1_655 S
C679 C683 1.385 . S
C680 H661 0.951 . S
C680 C678 1.388 1_655 S
C680 C681 1.366 . S
C681 C680 1.366 . S
C681 C682 1.414 . S
C681 C684 1.499 . S
C682 H662 0.950 . S
C682 C681 1.414 . S
C682 C683 1.374 . S
C683 H663 0.950 . S
C683 C679 1.385 . S
C683 C682 1.374 . S
C684 C681 1.499 . S
C684 C685 1.373 . S
C684 C686 1.389 . S
C685 H664 0.950 . S
C685 C684 1.373 . S
C685 C701 1.377 . S
C686 C684 1.389 . S
C686 C687 1.524 . S
C686 C700 1.377 . S
C687 C686 1.524 . S
C687 C688 1.397 . S
C687 C692 1.363 . S
C688 H665 0.950 . S
C688 C687 1.397 . S
C688 C689 1.334 . S
C689 H666 0.950 . S
C689 C688 1.334 . S
C689 C690 1.287 . S
C690 C689 1.287 . S
C690 C691 1.524 . S
C690 H709 0.913 . S
C691 H667 0.950 . S
C691 C690 1.524 . S
C691 C692 1.415 . S
C692 H668 0.950 . S
C692 C687 1.363 . S
C692 C691 1.415 . S
C693 H669 0.951 . S
C693 C694 1.366 . S
C693 C695 1.388 . S
C694 C693 1.366 . S
C694 C698 1.385 . S
C695 H670 0.951 . S
C695 C693 1.388 . S
C695 C696 1.366 . S
C696 C695 1.366 . S
C696 C697 1.414 . S
C696 C699 1.499 . S
C697 H671 0.950 . S
C697 C696 1.414 . S
C697 C698 1.374 . S
C698 H672 0.950 . S
C698 C694 1.385 . S
C698 C697 1.374 . S
C699 C696 1.499 . S
C699 C700 1.373 . S
C699 C701 1.389 . S
C700 H673 0.950 . S
C700 C686 1.377 . S
C700 C699 1.373 . S
C701 C685 1.377 . S
C701 C699 1.389 . S
C701 C702 1.524 . S
C702 C701 1.524 . S
C702 C703 1.397 . S
C702 C707 1.363 . S
C703 H674 0.950 . S
C703 C702 1.397 . S
C703 C704 1.334 . S
C704 H675 0.950 . S
C704 C703 1.334 . S
C704 C705 1.287 . S
C705 C704 1.287 . S
C705 C706 1.524 . S
C705 H708 0.999 . S
C706 H676 0.950 . S
C706 C705 1.524 . S
C706 C707 1.415 . S
C707 H677 0.950 . S
C707 C702 1.363 . S
C707 C706 1.415 . S
H708 C705 0.999 . S
H709 C690 0.913 . S
H710 C728 0.951 . S
H711 C730 0.951 . S
H712 C732 0.950 . S
H713 C733 0.950 . S
H714 C735 0.950 . S
H715 C738 0.950 . S
H716 C739 0.950 1_545 S
H717 C741 0.950 . S
H718 C742 0.950 . S
H719 C743 0.951 . S
H720 C745 0.951 . S
H721 C747 0.950 . S
H722 C748 0.950 . S
H723 C750 0.950 . S
H724 C753 0.950 . S
H725 C754 0.950 . S
H726 C756 0.950 . S
H727 C757 0.950 . S
C728 H710 0.951 . S
C728 C729 1.366 . S
C728 C730 1.388 . S
C729 C728 1.366 . S
C729 C733 1.385 . S
C730 H711 0.951 . S
C730 C728 1.388 . S
C730 C731 1.366 . S
C731 C730 1.366 . S
C731 C732 1.414 . S
C731 C734 1.499 . S
C732 H712 0.950 . S
C732 C731 1.414 . S
C732 C733 1.374 . S
C733 H713 0.950 . S
C733 C729 1.385 . S
C733 C732 1.374 . S
C734 C731 1.499 . S
C734 C735 1.373 . S
C734 C736 1.389 . S
C735 H714 0.950 . S
C735 C734 1.373 . S
C735 C751 1.377 . S
C736 C734 1.389 . S
C736 C737 1.524 . S
C736 C750 1.377 . S
C737 C736 1.524 . S
C737 C738 1.397 . S
C737 C742 1.363 . S
C738 H715 0.950 . S
C738 C737 1.397 . S
C738 C739 1.334 . S
C739 H716 0.950 1_565 S
C739 C738 1.334 . S
C739 C740 1.287 . S
C740 C739 1.287 . S
C740 C741 1.524 . S
C740 H759 0.913 1_565 S
C741 H717 0.950 . S
C741 C740 1.524 . S
C741 C742 1.415 . S
C742 H718 0.950 . S
C742 C737 1.363 . S
C742 C741 1.415 . S
C743 H719 0.951 . S
C743 C744 1.366 . S
C743 C745 1.388 . S
C744 C743 1.366 . S
C744 C748 1.385 . S
C745 H720 0.951 . S
C745 C743 1.388 . S
C745 C746 1.366 . S
C746 C745 1.366 . S
C746 C747 1.414 . S
C746 C749 1.499 . S
C747 H721 0.950 . S
C747 C746 1.414 . S
C747 C748 1.374 . S
C748 H722 0.950 . S
C748 C744 1.385 . S
C748 C747 1.374 . S
C749 C746 1.499 . S
C749 C750 1.373 . S
C749 C751 1.389 . S
C750 H723 0.950 . S
C750 C736 1.377 . S
C750 C749 1.373 . S
C751 C735 1.377 . S
C751 C749 1.389 . S
C751 C752 1.524 . S
C752 C751 1.524 . S
C752 C753 1.397 . S
C752 C757 1.363 . S
C753 H724 0.950 . S
C753 C752 1.397 . S
C753 C754 1.334 . S
C754 H725 0.950 . S
C754 C753 1.334 . S
C754 C755 1.287 . S
C755 C754 1.287 . S
C755 C756 1.524 . S
C755 H758 0.999 . S
C756 H726 0.950 . S
C756 C755 1.524 . S
C756 C757 1.415 . S
C757 H727 0.950 . S
C757 C752 1.363 . S
C757 C756 1.415 . S
H758 C755 0.999 . S
H759 C740 0.913 1_545 S
H760 C778 0.951 . S
H761 C780 0.951 . S
H762 C782 0.950 . S
H763 C783 0.950 . S
H764 C785 0.950 . S
H765 C788 0.950 . S
H766 C789 0.950 . S
H767 C791 0.950 . S
H768 C792 0.950 . S
H769 C793 0.951 . S
H770 C795 0.951 . S
H771 C797 0.950 . S
H772 C798 0.950 . S
H773 C800 0.950 . S
H774 C803 0.950 . S
H775 C804 0.950 . S
H776 C806 0.950 . S
H777 C807 0.950 . S
C778 H760 0.951 . S
C778 C779 1.366 . S
C778 C780 1.388 . S
C779 C778 1.366 . S
C779 C783 1.385 . S
C780 H761 0.951 . S
C780 C778 1.388 . S
C780 C781 1.366 . S
C781 C780 1.366 . S
C781 C782 1.414 . S
C781 C784 1.499 . S
C782 H762 0.950 . S
C782 C781 1.414 . S
C782 C783 1.374 . S
C783 H763 0.950 . S
C783 C779 1.385 . S
C783 C782 1.374 . S
C784 C781 1.499 . S
C784 C785 1.373 . S
C784 C786 1.389 . S
C785 H764 0.950 . S
C785 C784 1.373 . S
C785 C801 1.377 . S
C786 C784 1.389 . S
C786 C787 1.524 . S
C786 C800 1.377 . S
C787 C786 1.524 . S
C787 C788 1.397 . S
C787 C792 1.363 . S
C788 H765 0.950 . S
C788 C787 1.397 . S
C788 C789 1.334 . S
C789 H766 0.950 . S
C789 C788 1.334 . S
C789 C790 1.287 . S
C790 C789 1.287 . S
C790 C791 1.524 . S
C790 H809 0.913 . S
C791 H767 0.950 . S
C791 C790 1.524 . S
C791 C792 1.415 . S
C792 H768 0.950 . S
C792 C787 1.363 . S
C792 C791 1.415 . S
C793 H769 0.951 . S
C793 C794 1.366 . S
C793 C795 1.388 . S
C794 C793 1.366 . S
C794 C798 1.385 . S
C795 H770 0.951 . S
C795 C793 1.388 . S
C795 C796 1.366 . S
C796 C795 1.366 . S
C796 C797 1.414 . S
C796 C799 1.499 . S
C797 H771 0.950 . S
C797 C796 1.414 . S
C797 C798 1.374 . S
C798 H772 0.950 . S
C798 C794 1.385 . S
C798 C797 1.374 . S
C799 C796 1.499 . S
C799 C800 1.373 . S
C799 C801 1.389 . S
C800 H773 0.950 . S
C800 C786 1.377 . S
C800 C799 1.373 . S
C801 C785 1.377 . S
C801 C799 1.389 . S
C801 C802 1.524 . S
C802 C801 1.524 . S
C802 C803 1.397 . S
C802 C807 1.363 . S
C803 H774 0.950 . S
C803 C802 1.397 . S
C803 C804 1.334 . S
C804 H775 0.950 . S
C804 C803 1.334 . S
C804 C805 1.287 . S
C805 C804 1.287 . S
C805 C806 1.524 . S
C805 H808 0.999 . S
C806 H776 0.950 . S
C806 C805 1.524 . S
C806 C807 1.415 . S
C807 H777 0.950 . S
C807 C802 1.363 . S
C807 C806 1.415 . S
H808 C805 0.999 . S
H809 C790 0.913 . S
H810 C828 0.951 . S
H811 C830 0.951 . S
H812 C832 0.950 . S
H813 C833 0.950 . S
H814 C835 0.950 . S
H815 C838 0.950 . S
H816 C839 0.950 . S
H817 C841 0.950 . S
H818 C842 0.950 . S
H819 C843 0.951 . S
H820 C845 0.951 . S
H821 C847 0.950 . S
H822 C848 0.950 . S
H823 C850 0.950 . S
H824 C853 0.950 . S
H825 C854 0.950 . S
H826 C856 0.950 . S
H827 C857 0.950 . S
C828 H810 0.951 . S
C828 C829 1.366 . S
C828 C830 1.388 . S
C829 C828 1.366 . S
C829 C833 1.385 . S
C830 H811 0.951 . S
C830 C828 1.388 . S
C830 C831 1.366 . S
C831 C830 1.366 . S
C831 C832 1.414 . S
C831 C834 1.499 . S
C832 H812 0.950 . S
C832 C831 1.414 . S
C832 C833 1.374 . S
C833 H813 0.950 . S
C833 C829 1.385 . S
C833 C832 1.374 . S
C834 C831 1.499 . S
C834 C835 1.373 . S
C834 C836 1.389 . S
C835 H814 0.950 . S
C835 C834 1.373 . S
C835 C851 1.377 . S
C836 C834 1.389 . S
C836 C837 1.524 . S
C836 C850 1.377 . S
C837 C836 1.524 . S
C837 C838 1.397 . S
C837 C842 1.363 . S
C838 H815 0.950 . S
C838 C837 1.397 . S
C838 C839 1.334 . S
C839 H816 0.950 . S
C839 C838 1.334 . S
C839 C840 1.287 . S
C840 C839 1.287 . S
C840 C841 1.524 . S
C840 H859 0.913 . S
C841 H817 0.950 . S
C841 C840 1.524 . S
C841 C842 1.415 . S
C842 H818 0.950 . S
C842 C837 1.363 . S
C842 C841 1.415 . S
C843 H819 0.951 . S
C843 C844 1.366 . S
C843 C845 1.388 . S
C844 C843 1.366 . S
C844 C848 1.385 . S
C845 H820 0.951 . S
C845 C843 1.388 . S
C845 C846 1.366 . S
C846 C845 1.366 . S
C846 C847 1.414 . S
C846 C849 1.499 . S
C847 H821 0.950 . S
C847 C846 1.414 . S
C847 C848 1.374 . S
C848 H822 0.950 . S
C848 C844 1.385 . S
C848 C847 1.374 . S
C849 C846 1.499 . S
C849 C850 1.373 . S
C849 C851 1.389 . S
C850 H823 0.950 . S
C850 C836 1.377 . S
C850 C849 1.373 . S
C851 C835 1.377 . S
C851 C849 1.389 . S
C851 C852 1.524 . S
C852 C851 1.524 . S
C852 C853 1.397 . S
C852 C857 1.363 . S
C853 H824 0.950 . S
C853 C852 1.397 . S
C853 C854 1.334 . S
C854 H825 0.950 . S
C854 C853 1.334 . S
C854 C855 1.287 . S
C855 C854 1.287 . S
C855 C856 1.524 . S
C855 H858 0.999 . S
C856 H826 0.950 . S
C856 C855 1.524 . S
C856 C857 1.415 . S
C857 H827 0.950 . S
C857 C852 1.363 . S
C857 C856 1.415 . S
H858 C855 0.999 . S
H859 C840 0.913 . S
H860 C878 0.951 . S
H861 C880 0.951 . S
H862 C882 0.950 . S
H863 C883 0.950 . S
H864 C885 0.950 . S
H865 C888 0.950 . S
H866 C889 0.950 . S
H867 C891 0.950 . S
H868 C892 0.950 . S
H869 C893 0.951 . S
H870 C895 0.951 . S
H871 C897 0.950 . S
H872 C898 0.950 . S
H873 C900 0.950 . S
H874 C903 0.950 . S
H875 C904 0.950 . S
H876 C906 0.950 . S
H877 C907 0.950 . S
C878 H860 0.951 . S
C878 C879 1.366 . S
C878 C880 1.388 . S
C879 C878 1.366 . S
C879 C883 1.385 . S
C880 H861 0.951 . S
C880 C878 1.388 . S
C880 C881 1.366 . S
C881 C880 1.366 . S
C881 C882 1.414 . S
C881 C884 1.499 . S
C882 H862 0.950 . S
C882 C881 1.414 . S
C882 C883 1.374 . S
C883 H863 0.950 . S
C883 C879 1.385 . S
C883 C882 1.374 . S
C884 C881 1.499 . S
C884 C885 1.373 . S
C884 C886 1.389 . S
C885 H864 0.950 . S
C885 C884 1.373 . S
C885 C901 1.377 . S
C886 C884 1.389 . S
C886 C887 1.524 . S
C886 C900 1.377 . S
C887 C886 1.524 . S
C887 C888 1.397 . S
C887 C892 1.363 . S
C888 H865 0.950 . S
C888 C887 1.397 . S
C888 C889 1.334 . S
C889 H866 0.950 . S
C889 C888 1.334 . S
C889 C890 1.287 . S
C890 C889 1.287 . S
C890 C891 1.524 . S
C890 H909 0.913 . S
C891 H867 0.950 . S
C891 C890 1.524 . S
C891 C892 1.415 . S
C892 H868 0.950 . S
C892 C887 1.363 . S
C892 C891 1.415 . S
C893 H869 0.951 . S
C893 C894 1.366 . S
C893 C895 1.388 . S
C894 C893 1.366 . S
C894 C898 1.385 . S
C895 H870 0.951 . S
C895 C893 1.388 . S
C895 C896 1.366 . S
C896 C895 1.366 . S
C896 C897 1.414 . S
C896 C899 1.499 . S
C897 H871 0.950 . S
C897 C896 1.414 . S
C897 C898 1.374 . S
C898 H872 0.950 . S
C898 C894 1.385 . S
C898 C897 1.374 . S
C899 C896 1.499 . S
C899 C900 1.373 . S
C899 C901 1.389 . S
C900 H873 0.950 . S
C900 C886 1.377 . S
C900 C899 1.373 . S
C901 C885 1.377 . S
C901 C899 1.389 . S
C901 C902 1.524 . S
C902 C901 1.524 . S
C902 C903 1.397 . S
C902 C907 1.363 . S
C903 H874 0.950 . S
C903 C902 1.397 . S
C903 C904 1.334 . S
C904 H875 0.950 . S
C904 C903 1.334 . S
C904 C905 1.287 . S
C905 C904 1.287 . S
C905 C906 1.524 . S
C905 H908 0.999 . S
C906 H876 0.950 . S
C906 C905 1.524 . S
C906 C907 1.415 . S
C907 H877 0.950 . S
C907 C902 1.363 . S
C907 C906 1.415 . S
H908 C905 0.999 . S
H909 C890 0.913 . S
H910 C928 0.951 . S
H911 C930 0.951 . S
H912 C932 0.950 . S
H913 C933 0.950 . S
H914 C935 0.950 . S
H915 C938 0.950 . S
H916 C939 0.950 . S
H917 C941 0.950 . S
H918 C942 0.950 . S
H919 C943 0.951 . S
H920 C945 0.951 . S
H921 C947 0.950 . S
H922 C948 0.950 . S
H923 C950 0.950 . S
H924 C953 0.950 . S
H925 C954 0.950 . S
H926 C956 0.950 . S
H927 C957 0.950 . S
C928 H910 0.951 . S
C928 C929 1.366 . S
C928 C930 1.388 . S
C929 C928 1.366 . S
C929 C933 1.385 . S
C930 H911 0.951 . S
C930 C928 1.388 . S
C930 C931 1.366 . S
C931 C930 1.366 . S
C931 C932 1.414 . S
C931 C934 1.499 . S
C932 H912 0.950 . S
C932 C931 1.414 . S
C932 C933 1.374 . S
C933 H913 0.950 . S
C933 C929 1.385 . S
C933 C932 1.374 . S
C934 C931 1.499 . S
C934 C935 1.373 . S
C934 C936 1.389 . S
C935 H914 0.950 . S
C935 C934 1.373 . S
C935 C951 1.377 . S
C936 C934 1.389 . S
C936 C937 1.524 . S
C936 C950 1.377 . S
C937 C936 1.524 . S
C937 C938 1.397 . S
C937 C942 1.363 . S
C938 H915 0.950 . S
C938 C937 1.397 . S
C938 C939 1.334 . S
C939 H916 0.950 . S
C939 C938 1.334 . S
C939 C940 1.287 . S
C940 C939 1.287 . S
C940 C941 1.524 . S
C940 H959 0.913 . S
C941 H917 0.950 . S
C941 C940 1.524 . S
C941 C942 1.415 . S
C942 H918 0.950 . S
C942 C937 1.363 . S
C942 C941 1.415 . S
C943 H919 0.951 . S
C943 C944 1.366 . S
C943 C945 1.388 . S
C944 C943 1.366 . S
C944 C948 1.385 . S
C945 H920 0.951 . S
C945 C943 1.388 . S
C945 C946 1.366 . S
C946 C945 1.366 . S
C946 C947 1.414 . S
C946 C949 1.499 . S
C947 H921 0.950 . S
C947 C946 1.414 . S
C947 C948 1.374 . S
C948 H922 0.950 . S
C948 C944 1.385 . S
C948 C947 1.374 . S
C949 C946 1.499 . S
C949 C950 1.373 . S
C949 C951 1.389 . S
C950 H923 0.950 . S
C950 C936 1.377 . S
C950 C949 1.373 . S
C951 C935 1.377 . S
C951 C949 1.389 . S
C951 C952 1.524 . S
C952 C951 1.524 . S
C952 C953 1.397 . S
C952 C957 1.363 . S
C953 H924 0.950 . S
C953 C952 1.397 . S
C953 C954 1.334 . S
C954 H925 0.950 . S
C954 C953 1.334 . S
C954 C955 1.287 . S
C955 C954 1.287 . S
C955 C956 1.524 . S
C955 H958 0.999 . S
C956 H926 0.950 . S
C956 C955 1.524 . S
C956 C957 1.415 . S
C957 H927 0.950 . S
C957 C952 1.363 . S
C957 C956 1.415 . S
H958 C955 0.999 . S
H959 C940 0.913 . S
H960 C978 0.951 . S
H961 C980 0.951 . S
H962 C982 0.950 . S
H963 C983 0.950 . S
H964 C985 0.950 . S
H965 C988 0.950 . S
H966 C989 0.950 . S
H967 C991 0.950 . S
H968 C992 0.950 . S
H969 C993 0.951 . S
H970 C995 0.951 . S
H971 C997 0.950 . S
H972 C998 0.950 . S
H973 C1000 0.950 . S
H974 C1003 0.950 . S
H975 C1004 0.950 . S
H976 C1006 0.950 . S
H977 C1007 0.950 . S
C978 H960 0.951 . S
C978 C979 1.366 . S
C978 C980 1.388 . S
C979 C978 1.366 . S
C979 C983 1.385 . S
C980 H961 0.951 . S
C980 C978 1.388 . S
C980 C981 1.366 . S
C981 C980 1.366 . S
C981 C982 1.414 . S
C981 C984 1.499 . S
C982 H962 0.950 . S
C982 C981 1.414 . S
C982 C983 1.374 . S
C983 H963 0.950 . S
C983 C979 1.385 . S
C983 C982 1.374 . S
C984 C981 1.499 . S
C984 C985 1.373 . S
C984 C986 1.389 . S
C985 H964 0.950 . S
C985 C984 1.373 . S
C985 C1001 1.377 . S
C986 C984 1.389 . S
C986 C987 1.524 . S
C986 C1000 1.377 . S
C987 C986 1.524 . S
C987 C988 1.397 . S
C987 C992 1.363 . S
C988 H965 0.950 . S
C988 C987 1.397 . S
C988 C989 1.334 . S
C989 H966 0.950 . S
C989 C988 1.334 . S
C989 C990 1.287 . S
C990 C989 1.287 . S
C990 C991 1.524 . S
C990 H1009 0.913 . S
C991 H967 0.950 . S
C991 C990 1.524 . S
C991 C992 1.415 . S
C992 H968 0.950 . S
C992 C987 1.363 . S
C992 C991 1.415 . S
C993 H969 0.951 . S
C993 C994 1.366 . S
C993 C995 1.388 . S
C994 C993 1.366 . S
C994 C998 1.385 . S
C995 H970 0.951 . S
C995 C993 1.388 . S
C995 C996 1.366 . S
C996 C995 1.366 . S
C996 C997 1.414 . S
C996 C999 1.499 . S
C997 H971 0.950 . S
C997 C996 1.414 . S
C997 C998 1.374 . S
C998 H972 0.950 . S
C998 C994 1.385 . S
C998 C997 1.374 . S
C999 C996 1.499 . S
C999 C1000 1.373 . S
C999 C1001 1.389 . S
C1000 H973 0.950 . S
C1000 C986 1.377 . S
C1000 C999 1.373 . S
C1001 C985 1.377 . S
C1001 C999 1.389 . S
C1001 C1002 1.524 . S
C1002 C1001 1.524 . S
C1002 C1003 1.397 . S
C1002 C1007 1.363 . S
C1003 H974 0.950 . S
C1003 C1002 1.397 . S
C1003 C1004 1.334 . S
C1004 H975 0.950 . S
C1004 C1003 1.334 . S
C1004 C1005 1.287 . S
C1005 C1004 1.287 . S
C1005 C1006 1.524 . S
C1005 H1008 0.999 . S
C1006 H976 0.950 . S
C1006 C1005 1.524 . S
C1006 C1007 1.415 . S
C1007 H977 0.950 . S
C1007 C1002 1.363 . S
C1007 C1006 1.415 . S
H1008 C1005 0.999 . S
H1009 C990 0.913 . S
H1010 C1028 0.951 . S
H1011 C1030 0.951 . S
H1012 C1032 0.950 . S
H1013 C1033 0.950 . S
H1014 C1035 0.950 . S
H1015 C1038 0.950 . S
H1016 C1039 0.950 . S
H1017 C1041 0.950 . S
H1018 C1042 0.950 . S
H1019 C1043 0.951 . S
H1020 C1045 0.951 . S
H1021 C1047 0.950 . S
H1022 C1048 0.950 . S
H1023 C1050 0.950 . S
H1024 C1053 0.950 . S
H1025 C1054 0.950 . S
H1026 C1056 0.950 . S
H1027 C1057 0.950 . S
C1028 H1010 0.951 . S
C1028 C1029 1.366 . S
C1028 C1030 1.388 . S
C1029 C1028 1.366 . S
C1029 C1033 1.385 . S
C1030 H1011 0.951 . S
C1030 C1028 1.388 . S
C1030 C1031 1.366 . S
C1031 C1030 1.366 . S
C1031 C1032 1.414 . S
C1031 C1034 1.499 . S
C1032 H1012 0.950 . S
C1032 C1031 1.414 . S
C1032 C1033 1.374 . S
C1033 H1013 0.950 . S
C1033 C1029 1.385 . S
C1033 C1032 1.374 . S
C1034 C1031 1.499 . S
C1034 C1035 1.373 . S
C1034 C1036 1.389 . S
C1035 H1014 0.950 . S
C1035 C1034 1.373 . S
C1035 C1051 1.377 . S
C1036 C1034 1.389 . S
C1036 C1037 1.524 . S
C1036 C1050 1.377 . S
C1037 C1036 1.524 . S
C1037 C1038 1.397 . S
C1037 C1042 1.363 . S
C1038 H1015 0.950 . S
C1038 C1037 1.397 . S
C1038 C1039 1.334 . S
C1039 H1016 0.950 . S
C1039 C1038 1.334 . S
C1039 C1040 1.287 . S
C1040 C1039 1.287 . S
C1040 C1041 1.524 . S
C1040 H1059 0.913 . S
C1041 H1017 0.950 . S
C1041 C1040 1.524 . S
C1041 C1042 1.415 . S
C1042 H1018 0.950 . S
C1042 C1037 1.363 . S
C1042 C1041 1.415 . S
C1043 H1019 0.951 . S
C1043 C1044 1.366 . S
C1043 C1045 1.388 . S
C1044 C1043 1.366 . S
C1044 C1048 1.385 . S
C1045 H1020 0.951 . S
C1045 C1043 1.388 . S
C1045 C1046 1.366 . S
C1046 C1045 1.366 . S
C1046 C1047 1.414 . S
C1046 C1049 1.499 . S
C1047 H1021 0.950 . S
C1047 C1046 1.414 . S
C1047 C1048 1.374 . S
C1048 H1022 0.950 . S
C1048 C1044 1.385 . S
C1048 C1047 1.374 . S
C1049 C1046 1.499 . S
C1049 C1050 1.373 . S
C1049 C1051 1.389 . S
C1050 H1023 0.950 . S
C1050 C1036 1.377 . S
C1050 C1049 1.373 . S
C1051 C1035 1.377 . S
C1051 C1049 1.389 . S
C1051 C1052 1.524 . S
C1052 C1051 1.524 . S
C1052 C1053 1.397 . S
C1052 C1057 1.363 . S
C1053 H1024 0.950 . S
C1053 C1052 1.397 . S
C1053 C1054 1.334 . S
C1054 H1025 0.950 . S
C1054 C1053 1.334 . S
C1054 C1055 1.287 . S
C1055 C1054 1.287 . S
C1055 C1056 1.524 . S
C1055 H1058 0.999 . S
C1056 H1026 0.950 . S
C1056 C1055 1.524 . S
C1056 C1057 1.415 . S
C1057 H1027 0.950 . S
C1057 C1052 1.363 . S
C1057 C1056 1.415 . S
H1058 C1055 0.999 . S
H1059 C1040 0.913 . S
H1060 C1078 0.951 1_554 S
H1061 C1080 0.951 . S
H1062 C1082 0.950 . S
H1063 C1083 0.950 . S
H1064 C1085 0.950 . S
H1065 C1088 0.950 . S
H1066 C1089 0.950 . S
H1067 C1091 0.950 1_554 S
H1068 C1092 0.950 . S
H1069 C1093 0.951 . S
H1070 C1095 0.951 . S
H1071 C1097 0.950 . S
H1072 C1098 0.950 . S
H1073 C1100 0.950 . S
H1074 C1103 0.950 . S
H1075 C1104 0.950 . S
H1076 C1106 0.950 . S
H1077 C1107 0.950 . S
C1078 H1060 0.951 1_556 S
C1078 C1079 1.366 . S
C1078 C1080 1.388 . S
C1079 C1078 1.366 . S
C1079 C1083 1.385 . S
C1080 H1061 0.951 . S
C1080 C1078 1.388 . S
C1080 C1081 1.366 . S
C1081 C1080 1.366 . S
C1081 C1082 1.414 . S
C1081 C1084 1.499 . S
C1082 H1062 0.950 . S
C1082 C1081 1.414 . S
C1082 C1083 1.374 . S
C1083 H1063 0.950 . S
C1083 C1079 1.385 . S
C1083 C1082 1.374 . S
C1084 C1081 1.499 . S
C1084 C1085 1.373 . S
C1084 C1086 1.389 . S
C1085 H1064 0.950 . S
C1085 C1084 1.373 . S
C1085 C1101 1.377 . S
C1086 C1084 1.389 . S
C1086 C1087 1.524 . S
C1086 C1100 1.377 . S
C1087 C1086 1.524 . S
C1087 C1088 1.397 . S
C1087 C1092 1.363 . S
C1088 H1065 0.950 . S
C1088 C1087 1.397 . S
C1088 C1089 1.334 . S
C1089 H1066 0.950 . S
C1089 C1088 1.334 . S
C1089 C1090 1.287 . S
C1090 C1089 1.287 . S
C1090 C1091 1.524 . S
C1090 H1109 0.913 . S
C1091 H1067 0.950 1_556 S
C1091 C1090 1.524 . S
C1091 C1092 1.415 . S
C1092 H1068 0.950 . S
C1092 C1087 1.363 . S
C1092 C1091 1.415 . S
C1093 H1069 0.951 . S
C1093 C1094 1.366 . S
C1093 C1095 1.388 . S
C1094 C1093 1.366 . S
C1094 C1098 1.385 . S
C1095 H1070 0.951 . S
C1095 C1093 1.388 . S
C1095 C1096 1.366 . S
C1096 C1095 1.366 . S
C1096 C1097 1.414 . S
C1096 C1099 1.499 . S
C1097 H1071 0.950 . S
C1097 C1096 1.414 . S
C1097 C1098 1.374 . S
C1098 H1072 0.950 . S
C1098 C1094 1.385 . S
C1098 C1097 1.374 . S
C1099 C1096 1.499 . S
C1099 C1100 1.373 . S
C1099 C1101 1.389 . S
C1100 H1073 0.950 . S
C1100 C1086 1.377 . S
C1100 C1099 1.373 . S
C1101 C1085 1.377 . S
C1101 C1099 1.389 . S
C1101 C1102 1.524 . S
C1102 C1101 1.524 . S
C1102 C1103 1.397 . S
C1102 C1107 1.363 . S
C1103 H1074 0.950 . S
C1103 C1102 1.397 . S
C1103 C1104 1.334 . S
C1104 H1075 0.950 . S
C1104 C1103 1.334 . S
C1104 C1105 1.287 . S
C1105 C1104 1.287 . S
C1105 C1106 1.524 . S
C1105 H1108 0.999 . S
C1106 H1076 0.950 . S
C1106 C1105 1.524 . S
C1106 C1107 1.415 . S
C1107 H1077 0.950 . S
C1107 C1102 1.363 . S
C1107 C1106 1.415 . S
H1108 C1105 0.999 . S
H1109 C1090 0.913 . S
H1110 C1128 0.941 1_554 S
H1111 C1130 0.951 . S
H1112 C1132 0.950 . S
H1113 C1133 0.950 . S
H1114 C1135 0.950 . S
H1115 C1138 0.950 . S
H1116 C1139 0.950 . S
H1117 C1141 0.950 . S
H1118 C1142 0.950 . S
H1119 C1143 0.951 . S
H1120 C1145 0.951 . S
H1121 C1147 0.950 . S
H1122 C1148 0.950 . S
H1123 C1150 0.950 . S
H1124 C1153 0.950 . S
H1125 C1154 0.950 . S
H1126 C1156 0.950 . S
H1127 C1157 0.950 . S
C1128 H1110 0.941 1_556 S
C1128 C1129 1.371 . S
C1128 C1130 1.393 . S
C1129 C1128 1.371 . S
C1129 C1133 1.385 . S
C1130 H1111 0.951 . S
C1130 C1128 1.393 . S
C1130 C1131 1.366 . S
C1131 C1130 1.366 . S
C1131 C1132 1.414 . S
C1131 C1134 1.499 . S
C1132 H1112 0.950 . S
C1132 C1131 1.414 . S
C1132 C1133 1.374 . S
C1133 H1113 0.950 . S
C1133 C1129 1.385 . S
C1133 C1132 1.374 . S
C1134 C1131 1.499 . S
C1134 C1135 1.373 . S
C1134 C1136 1.389 . S
C1135 H1114 0.950 . S
C1135 C1134 1.373 . S
C1135 C1151 1.377 . S
C1136 C1134 1.389 . S
C1136 C1137 1.524 . S
C1136 C1150 1.377 . S
C1137 C1136 1.524 . S
C1137 C1138 1.397 . S
C1137 C1142 1.363 1_556 S
C1138 H1115 0.950 . S
C1138 C1137 1.397 . S
C1138 C1139 1.334 1_556 S
C1139 H1116 0.950 . S
C1139 C1138 1.334 1_554 S
C1139 C1140 1.287 . S
C1140 C1139 1.287 . S
C1140 C1141 1.524 . S
C1140 H1159 0.913 . S
C1141 H1117 0.950 . S
C1141 C1140 1.524 . S
C1141 C1142 1.415 . S
C1142 H1118 0.950 . S
C1142 C1137 1.363 1_554 S
C1142 C1141 1.415 . S
C1143 H1119 0.951 . S
C1143 C1144 1.366 . S
C1143 C1145 1.388 . S
C1144 C1143 1.366 . S
C1144 C1148 1.385 . S
C1145 H1120 0.951 . S
C1145 C1143 1.388 . S
C1145 C1146 1.366 . S
C1146 C1145 1.366 . S
C1146 C1147 1.414 . S
C1146 C1149 1.499 . S
C1147 H1121 0.950 . S
C1147 C1146 1.414 . S
C1147 C1148 1.374 . S
C1148 H1122 0.950 . S
C1148 C1144 1.385 . S
C1148 C1147 1.374 . S
C1149 C1146 1.499 . S
C1149 C1150 1.373 . S
C1149 C1151 1.389 . S
C1150 H1123 0.950 . S
C1150 C1136 1.377 . S
C1150 C1149 1.373 . S
C1151 C1135 1.377 . S
C1151 C1149 1.389 . S
C1151 C1152 1.524 . S
C1152 C1151 1.524 . S
C1152 C1153 1.397 . S
C1152 C1157 1.363 . S
C1153 H1124 0.950 . S
C1153 C1152 1.397 . S
C1153 C1154 1.334 . S
C1154 H1125 0.950 . S
C1154 C1153 1.334 . S
C1154 C1155 1.287 . S
C1155 C1154 1.287 . S
C1155 C1156 1.524 . S
C1155 H1158 0.999 . S
C1156 H1126 0.950 . S
C1156 C1155 1.524 . S
C1156 C1157 1.415 . S
C1157 H1127 0.950 . S
C1157 C1152 1.363 . S
C1157 C1156 1.415 . S
H1158 C1155 0.999 . S
H1159 C1140 0.913 . S
H1160 C1178 0.951 . S
H1161 C1180 0.951 . S
H1162 C1182 0.950 . S
H1163 C1183 0.950 . S
H1164 C1185 0.950 . S
H1165 C1188 0.950 . S
H1166 C1189 0.950 . S
H1167 C1191 0.950 . S
H1168 C1192 0.950 . S
H1169 C1193 0.951 . S
H1170 C1195 0.951 . S
H1171 C1197 0.950 . S
H1172 C1198 0.950 . S
H1173 C1200 0.950 . S
H1174 C1203 0.950 . S
H1175 C1204 0.950 . S
H1176 C1206 0.950 . S
H1177 C1207 0.950 . S
C1178 H1160 0.951 . S
C1178 C1179 1.366 . S
C1178 C1180 1.388 . S
C1179 C1178 1.366 . S
C1179 C1183 1.385 . S
C1180 H1161 0.951 . S
C1180 C1178 1.388 . S
C1180 C1181 1.366 . S
C1181 C1180 1.366 . S
C1181 C1182 1.414 . S
C1181 C1184 1.499 . S
C1182 H1162 0.950 . S
C1182 C1181 1.414 . S
C1182 C1183 1.374 . S
C1183 H1163 0.950 . S
C1183 C1179 1.385 . S
C1183 C1182 1.374 . S
C1184 C1181 1.499 . S
C1184 C1185 1.373 . S
C1184 C1186 1.389 . S
C1185 H1164 0.950 . S
C1185 C1184 1.373 . S
C1185 C1201 1.377 . S
C1186 C1184 1.389 . S
C1186 C1187 1.524 . S
C1186 C1200 1.377 . S
C1187 C1186 1.524 . S
C1187 C1188 1.397 . S
C1187 C1192 1.363 . S
C1188 H1165 0.950 . S
C1188 C1187 1.397 . S
C1188 C1189 1.334 . S
C1189 H1166 0.950 . S
C1189 C1188 1.334 . S
C1189 C1190 1.287 . S
C1190 C1189 1.287 . S
C1190 C1191 1.524 . S
C1190 H1209 0.913 . S
C1191 H1167 0.950 . S
C1191 C1190 1.524 . S
C1191 C1192 1.415 . S
C1192 H1168 0.950 . S
C1192 C1187 1.363 . S
C1192 C1191 1.415 . S
C1193 H1169 0.951 . S
C1193 C1194 1.366 . S
C1193 C1195 1.388 . S
C1194 C1193 1.366 . S
C1194 C1198 1.385 . S
C1195 H1170 0.951 . S
C1195 C1193 1.388 . S
C1195 C1196 1.366 . S
C1196 C1195 1.366 . S
C1196 C1197 1.414 . S
C1196 C1199 1.499 . S
C1197 H1171 0.950 . S
C1197 C1196 1.414 . S
C1197 C1198 1.374 . S
C1198 H1172 0.950 . S
C1198 C1194 1.385 . S
C1198 C1197 1.374 . S
C1199 C1196 1.499 . S
C1199 C1200 1.373 . S
C1199 C1201 1.389 . S
C1200 H1173 0.950 . S
C1200 C1186 1.377 . S
C1200 C1199 1.373 . S
C1201 C1185 1.377 . S
C1201 C1199 1.389 . S
C1201 C1202 1.524 . S
C1202 C1201 1.524 . S
C1202 C1203 1.397 . S
C1202 C1207 1.363 . S
C1203 H1174 0.950 . S
C1203 C1202 1.397 . S
C1203 C1204 1.334 . S
C1204 H1175 0.950 . S
C1204 C1203 1.334 . S
C1204 C1205 1.287 . S
C1205 C1204 1.287 . S
C1205 C1206 1.524 . S
C1205 H1208 0.999 . S
C1206 H1176 0.950 . S
C1206 C1205 1.524 . S
C1206 C1207 1.415 . S
C1207 H1177 0.950 . S
C1207 C1202 1.363 . S
C1207 C1206 1.415 . S
H1208 C1205 0.999 . S
H1209 C1190 0.913 . S
H1210 C1228 0.951 . S
H1211 C1230 0.951 . S
H1212 C1232 0.950 . S
H1213 C1233 0.950 . S
H1214 C1235 0.950 . S
H1215 C1238 0.950 . S
H1216 C1239 0.950 . S
H1217 C1241 0.950 . S
H1218 C1242 0.950 . S
H1219 C1243 0.951 . S
H1220 C1245 0.951 . S
H1221 C1247 0.950 . S
H1222 C1248 0.950 . S
H1223 C1250 0.950 . S
H1224 C1253 0.950 . S
H1225 C1254 0.950 . S
H1226 C1256 0.950 . S
H1227 C1257 0.950 . S
C1228 H1210 0.951 . S
C1228 C1229 1.366 . S
C1228 C1230 1.388 . S
C1229 C1228 1.366 . S
C1229 C1233 1.385 . S
C1230 H1211 0.951 . S
C1230 C1228 1.388 . S
C1230 C1231 1.366 . S
C1231 C1230 1.366 . S
C1231 C1232 1.414 . S
C1231 C1234 1.499 . S
C1232 H1212 0.950 . S
C1232 C1231 1.414 . S
C1232 C1233 1.374 . S
C1233 H1213 0.950 . S
C1233 C1229 1.385 . S
C1233 C1232 1.374 . S
C1234 C1231 1.499 . S
C1234 C1235 1.373 . S
C1234 C1236 1.389 . S
C1235 H1214 0.950 . S
C1235 C1234 1.373 . S
C1235 C1251 1.377 . S
C1236 C1234 1.389 . S
C1236 C1237 1.524 . S
C1236 C1250 1.377 . S
C1237 C1236 1.524 . S
C1237 C1238 1.397 . S
C1237 C1242 1.363 . S
C1238 H1215 0.950 . S
C1238 C1237 1.397 . S
C1238 C1239 1.334 . S
C1239 H1216 0.950 . S
C1239 C1238 1.334 . S
C1239 C1240 1.287 . S
C1240 C1239 1.287 . S
C1240 C1241 1.524 . S
C1240 H1259 0.913 . S
C1241 H1217 0.950 . S
C1241 C1240 1.524 . S
C1241 C1242 1.415 . S
C1242 H1218 0.950 . S
C1242 C1237 1.363 . S
C1242 C1241 1.415 . S
C1243 H1219 0.951 . S
C1243 C1244 1.366 . S
C1243 C1245 1.388 . S
C1244 C1243 1.366 . S
C1244 C1248 1.385 . S
C1245 H1220 0.951 . S
C1245 C1243 1.388 . S
C1245 C1246 1.366 . S
C1246 C1245 1.366 . S
C1246 C1247 1.414 . S
C1246 C1249 1.499 . S
C1247 H1221 0.950 . S
C1247 C1246 1.414 . S
C1247 C1248 1.374 . S
C1248 H1222 0.950 . S
C1248 C1244 1.385 . S
C1248 C1247 1.374 . S
C1249 C1246 1.499 . S
C1249 C1250 1.373 . S
C1249 C1251 1.389 . S
C1250 H1223 0.950 . S
C1250 C1236 1.377 . S
C1250 C1249 1.373 . S
C1251 C1235 1.377 . S
C1251 C1249 1.389 . S
C1251 C1252 1.524 . S
C1252 C1251 1.524 . S
C1252 C1253 1.397 . S
C1252 C1257 1.363 . S
C1253 H1224 0.950 . S
C1253 C1252 1.397 . S
C1253 C1254 1.334 . S
C1254 H1225 0.950 . S
C1254 C1253 1.334 . S
C1254 C1255 1.287 . S
C1255 C1254 1.287 . S
C1255 C1256 1.524 . S
C1255 H1258 0.999 . S
C1256 H1226 0.950 . S
C1256 C1255 1.524 . S
C1256 C1257 1.415 . S
C1257 H1227 0.950 . S
C1257 C1252 1.363 . S
C1257 C1256 1.415 . S
H1258 C1255 0.999 . S
H1259 C1240 0.913 . S
H1260 C1278 0.951 . S
H1261 C1280 0.951 . S
H1262 C1282 0.950 . S
H1263 C1283 0.950 . S
H1264 C1285 0.950 . S
H1265 C1288 0.950 . S
H1266 C1289 0.950 . S
H1267 C1291 0.950 . S
H1268 C1292 0.950 . S
H1269 C1293 0.951 . S
H1270 C1295 0.951 . S
H1271 C1297 0.950 . S
H1272 C1298 0.950 . S
H1273 C1300 0.950 . S
H1274 C1303 0.950 . S
H1275 C1304 0.950 . S
H1276 C1306 0.950 . S
H1277 C1307 0.950 . S
C1278 H1260 0.951 . S
C1278 C1279 1.366 . S
C1278 C1280 1.388 . S
C1279 C1278 1.366 . S
C1279 C1283 1.385 . S
C1280 H1261 0.951 . S
C1280 C1278 1.388 . S
C1280 C1281 1.366 . S
C1281 C1280 1.366 . S
C1281 C1282 1.414 . S
C1281 C1284 1.499 . S
C1282 H1262 0.950 . S
C1282 C1281 1.414 . S
C1282 C1283 1.374 . S
C1283 H1263 0.950 . S
C1283 C1279 1.385 . S
C1283 C1282 1.374 . S
C1284 C1281 1.499 . S
C1284 C1285 1.373 . S
C1284 C1286 1.389 . S
C1285 H1264 0.950 . S
C1285 C1284 1.373 . S
C1285 C1301 1.377 . S
C1286 C1284 1.389 . S
C1286 C1287 1.524 . S
C1286 C1300 1.377 . S
C1287 C1286 1.524 . S
C1287 C1288 1.397 . S
C1287 C1292 1.363 . S
C1288 H1265 0.950 . S
C1288 C1287 1.397 . S
C1288 C1289 1.334 . S
C1289 H1266 0.950 . S
C1289 C1288 1.334 . S
C1289 C1290 1.287 . S
C1290 C1289 1.287 . S
C1290 C1291 1.524 . S
C1290 H1309 0.913 . S
C1291 H1267 0.950 . S
C1291 C1290 1.524 . S
C1291 C1292 1.415 . S
C1292 H1268 0.950 . S
C1292 C1287 1.363 . S
C1292 C1291 1.415 . S
C1293 H1269 0.951 . S
C1293 C1294 1.366 . S
C1293 C1295 1.388 . S
C1294 C1293 1.366 . S
C1294 C1298 1.385 . S
C1295 H1270 0.951 . S
C1295 C1293 1.388 . S
C1295 C1296 1.366 . S
C1296 C1295 1.366 . S
C1296 C1297 1.414 . S
C1296 C1299 1.499 . S
C1297 H1271 0.950 . S
C1297 C1296 1.414 . S
C1297 C1298 1.374 . S
C1298 H1272 0.950 . S
C1298 C1294 1.385 . S
C1298 C1297 1.374 . S
C1299 C1296 1.499 . S
C1299 C1300 1.373 . S
C1299 C1301 1.389 . S
C1300 H1273 0.950 . S
C1300 C1286 1.377 . S
C1300 C1299 1.373 . S
C1301 C1285 1.377 . S
C1301 C1299 1.389 . S
C1301 C1302 1.524 . S
C1302 C1301 1.524 . S
C1302 C1303 1.397 . S
C1302 C1307 1.363 . S
C1303 H1274 0.950 . S
C1303 C1302 1.397 . S
C1303 C1304 1.334 . S
C1304 H1275 0.950 . S
C1304 C1303 1.334 . S
C1304 C1305 1.287 . S
C1305 C1304 1.287 . S
C1305 C1306 1.524 . S
C1305 H1308 0.999 . S
C1306 H1276 0.950 . S
C1306 C1305 1.524 . S
C1306 C1307 1.415 . S
C1307 H1277 0.950 . S
C1307 C1302 1.363 . S
C1307 C1306 1.415 . S
H1308 C1305 0.999 . S
H1309 C1290 0.913 . S
H1310 C1328 0.951 . S
H1311 C1330 0.951 . S
H1312 C1332 0.950 . S
H1313 C1333 0.950 . S
H1314 C1335 0.950 . S
H1315 C1338 0.950 . S
H1316 C1339 0.950 . S
H1317 C1341 0.950 . S
H1318 C1342 0.950 . S
H1319 C1343 0.951 . S
H1320 C1345 0.951 . S
H1321 C1347 0.950 . S
H1322 C1348 0.950 . S
H1323 C1350 0.950 . S
H1324 C1353 0.950 . S
H1325 C1354 0.950 . S
H1326 C1356 0.950 . S
H1327 C1357 0.950 . S
C1328 H1310 0.951 . S
C1328 C1329 1.366 . S
C1328 C1330 1.388 . S
C1329 C1328 1.366 . S
C1329 C1333 1.385 . S
C1330 H1311 0.951 . S
C1330 C1328 1.388 . S
C1330 C1331 1.366 . S
C1331 C1330 1.366 . S
C1331 C1332 1.414 . S
C1331 C1334 1.499 . S
C1332 H1312 0.950 . S
C1332 C1331 1.414 . S
C1332 C1333 1.374 . S
C1333 H1313 0.950 . S
C1333 C1329 1.385 . S
C1333 C1332 1.374 . S
C1334 C1331 1.499 . S
C1334 C1335 1.373 . S
C1334 C1336 1.389 . S
C1335 H1314 0.950 . S
C1335 C1334 1.373 . S
C1335 C1351 1.377 . S
C1336 C1334 1.389 . S
C1336 C1337 1.524 . S
C1336 C1350 1.377 . S
C1337 C1336 1.524 . S
C1337 C1338 1.397 . S
C1337 C1342 1.363 . S
C1338 H1315 0.950 . S
C1338 C1337 1.397 . S
C1338 C1339 1.334 . S
C1339 H1316 0.950 . S
C1339 C1338 1.334 . S
C1339 C1340 1.287 . S
C1340 C1339 1.287 . S
C1340 C1341 1.524 . S
C1340 H1359 0.913 . S
C1341 H1317 0.950 . S
C1341 C1340 1.524 . S
C1341 C1342 1.415 . S
C1342 H1318 0.950 . S
C1342 C1337 1.363 . S
C1342 C1341 1.415 . S
C1343 H1319 0.951 . S
C1343 C1344 1.366 . S
C1343 C1345 1.388 . S
C1344 C1343 1.366 . S
C1344 C1348 1.385 . S
C1345 H1320 0.951 . S
C1345 C1343 1.388 . S
C1345 C1346 1.366 . S
C1346 C1345 1.366 . S
C1346 C1347 1.414 . S
C1346 C1349 1.499 . S
C1347 H1321 0.950 . S
C1347 C1346 1.414 . S
C1347 C1348 1.374 . S
C1348 H1322 0.950 . S
C1348 C1344 1.385 . S
C1348 C1347 1.374 . S
C1349 C1346 1.499 . S
C1349 C1350 1.373 . S
C1349 C1351 1.389 . S
C1350 H1323 0.950 . S
C1350 C1336 1.377 . S
C1350 C1349 1.373 . S
C1351 C1335 1.377 . S
C1351 C1349 1.389 . S
C1351 C1352 1.524 . S
C1352 C1351 1.524 . S
C1352 C1353 1.397 . S
C1352 C1357 1.363 . S
C1353 H1324 0.950 . S
C1353 C1352 1.397 . S
C1353 C1354 1.334 . S
C1354 H1325 0.950 . S
C1354 C1353 1.334 . S
C1354 C1355 1.287 . S
C1355 C1354 1.287 . S
C1355 C1356 1.524 . S
C1355 H1358 0.999 . S
C1356 H1326 0.950 . S
C1356 C1355 1.524 . S
C1356 C1357 1.415 . S
C1357 H1327 0.950 . S
C1357 C1352 1.363 . S
C1357 C1356 1.415 . S
H1358 C1355 0.999 . S
H1359 C1340 0.913 . S
H1360 C1378 0.951 . S
H1361 C1380 0.951 . S
H1362 C1382 0.950 . S
H1363 C1383 0.950 . S
H1364 C1385 0.950 . S
H1365 C1388 0.950 . S
H1366 C1389 0.950 . S
H1367 C1391 0.950 . S
H1368 C1392 0.950 . S
H1369 C1393 0.951 . S
H1370 C1395 0.951 . S
H1371 C1397 0.950 . S
H1372 C1398 0.950 . S
H1373 C1400 0.950 . S
H1374 C1403 0.950 . S
H1375 C1404 0.950 . S
H1376 C1406 0.950 . S
H1377 C1407 0.950 . S
C1378 H1360 0.951 . S
C1378 C1379 1.366 . S
C1378 C1380 1.388 . S
C1379 C1378 1.366 . S
C1379 C1383 1.385 . S
C1380 H1361 0.951 . S
C1380 C1378 1.388 . S
C1380 C1381 1.366 . S
C1381 C1380 1.366 . S
C1381 C1382 1.414 . S
C1381 C1384 1.499 . S
C1382 H1362 0.950 . S
C1382 C1381 1.414 . S
C1382 C1383 1.374 . S
C1383 H1363 0.950 . S
C1383 C1379 1.385 . S
C1383 C1382 1.374 . S
C1384 C1381 1.499 . S
C1384 C1385 1.373 . S
C1384 C1386 1.389 . S
C1385 H1364 0.950 . S
C1385 C1384 1.373 . S
C1385 C1401 1.377 . S
C1386 C1384 1.389 . S
C1386 C1387 1.524 . S
C1386 C1400 1.377 . S
C1387 C1386 1.524 . S
C1387 C1388 1.397 . S
C1387 C1392 1.363 . S
C1388 H1365 0.950 . S
C1388 C1387 1.397 . S
C1388 C1389 1.334 . S
C1389 H1366 0.950 . S
C1389 C1388 1.334 . S
C1389 C1390 1.287 . S
C1390 C1389 1.287 . S
C1390 C1391 1.524 . S
C1390 H1409 0.913 . S
C1391 H1367 0.950 . S
C1391 C1390 1.524 . S
C1391 C1392 1.415 . S
C1392 H1368 0.950 . S
C1392 C1387 1.363 . S
C1392 C1391 1.415 . S
C1393 H1369 0.951 . S
C1393 C1394 1.366 . S
C1393 C1395 1.388 . S
C1394 C1393 1.366 . S
C1394 C1398 1.385 . S
C1395 H1370 0.951 . S
C1395 C1393 1.388 . S
C1395 C1396 1.366 . S
C1396 C1395 1.366 . S
C1396 C1397 1.414 . S
C1396 C1399 1.499 . S
C1397 H1371 0.950 . S
C1397 C1396 1.414 . S
C1397 C1398 1.374 . S
C1398 H1372 0.950 . S
C1398 C1394 1.385 . S
C1398 C1397 1.374 . S
C1399 C1396 1.499 . S
C1399 C1400 1.373 . S
C1399 C1401 1.389 . S
C1400 H1373 0.950 . S
C1400 C1386 1.377 . S
C1400 C1399 1.373 . S
C1401 C1385 1.377 . S
C1401 C1399 1.389 . S
C1401 C1402 1.524 . S
C1402 C1401 1.524 . S
C1402 C1403 1.397 . S
C1402 C1407 1.363 . S
C1403 H1374 0.950 . S
C1403 C1402 1.397 . S
C1403 C1404 1.334 . S
C1404 H1375 0.950 . S
C1404 C1403 1.334 . S
C1404 C1405 1.287 . S
C1405 C1404 1.287 . S
C1405 C1406 1.524 . S
C1405 H1408 0.999 . S
C1406 H1376 0.950 . S
C1406 C1405 1.524 . S
C1406 C1407 1.415 . S
C1407 H1377 0.950 . S
C1407 C1402 1.363 . S
C1407 C1406 1.415 . S
H1408 C1405 0.999 . S
H1409 C1390 0.913 . S
H1410 C1428 0.951 . S
H1411 C1430 0.951 . S
H1412 C1432 0.950 . S
H1413 C1433 0.950 . S
H1414 C1435 0.950 . S
H1415 C1438 0.950 . S
H1416 C1439 0.950 . S
H1417 C1441 0.950 . S
H1418 C1442 0.950 . S
H1419 C1443 0.951 . S
H1420 C1445 0.951 . S
H1421 C1447 0.950 . S
H1422 C1448 0.950 . S
H1423 C1450 0.950 . S
H1424 C1453 0.950 . S
H1425 C1454 0.950 . S
H1426 C1456 0.950 . S
H1427 C1457 0.950 . S
C1428 H1410 0.951 . S
C1428 C1429 1.366 . S
C1428 C1430 1.388 . S
C1429 C1428 1.366 . S
C1429 C1433 1.385 . S
C1430 H1411 0.951 . S
C1430 C1428 1.388 . S
C1430 C1431 1.366 . S
C1431 C1430 1.366 . S
C1431 C1432 1.414 . S
C1431 C1434 1.499 . S
C1432 H1412 0.950 . S
C1432 C1431 1.414 . S
C1432 C1433 1.374 . S
C1433 H1413 0.950 . S
C1433 C1429 1.385 . S
C1433 C1432 1.374 . S
C1434 C1431 1.499 . S
C1434 C1435 1.373 . S
C1434 C1436 1.389 . S
C1435 H1414 0.950 . S
C1435 C1434 1.373 . S
C1435 C1451 1.377 . S
C1436 C1434 1.389 . S
C1436 C1437 1.524 . S
C1436 C1450 1.377 . S
C1437 C1436 1.524 . S
C1437 C1438 1.397 . S
C1437 C1442 1.363 . S
C1438 H1415 0.950 . S
C1438 C1437 1.397 . S
C1438 C1439 1.334 . S
C1439 H1416 0.950 . S
C1439 C1438 1.334 . S
C1439 C1440 1.287 . S
C1440 C1439 1.287 . S
C1440 C1441 1.524 . S
C1440 H1459 0.913 . S
C1441 H1417 0.950 . S
C1441 C1440 1.524 . S
C1441 C1442 1.415 . S
C1442 H1418 0.950 . S
C1442 C1437 1.363 . S
C1442 C1441 1.415 . S
C1443 H1419 0.951 . S
C1443 C1444 1.366 . S
C1443 C1445 1.388 . S
C1444 C1443 1.366 . S
C1444 C1448 1.385 . S
C1445 H1420 0.951 . S
C1445 C1443 1.388 . S
C1445 C1446 1.366 . S
C1446 C1445 1.366 . S
C1446 C1447 1.414 . S
C1446 C1449 1.499 . S
C1447 H1421 0.950 . S
C1447 C1446 1.414 . S
C1447 C1448 1.374 . S
C1448 H1422 0.950 . S
C1448 C1444 1.385 . S
C1448 C1447 1.374 . S
C1449 C1446 1.499 . S
C1449 C1450 1.373 . S
C1449 C1451 1.389 . S
C1450 H1423 0.950 . S
C1450 C1436 1.377 . S
C1450 C1449 1.373 . S
C1451 C1435 1.377 . S
C1451 C1449 1.389 . S
C1451 C1452 1.524 . S
C1452 C1451 1.524 . S
C1452 C1453 1.397 . S
C1452 C1457 1.363 . S
C1453 H1424 0.950 . S
C1453 C1452 1.397 . S
C1453 C1454 1.334 . S
C1454 H1425 0.950 . S
C1454 C1453 1.334 . S
C1454 C1455 1.287 . S
C1455 C1454 1.287 . S
C1455 C1456 1.524 . S
C1455 H1458 0.999 . S
C1456 H1426 0.950 . S
C1456 C1455 1.524 . S
C1456 C1457 1.415 . S
C1457 H1427 0.950 . S
C1457 C1452 1.363 . S
C1457 C1456 1.415 . S
H1458 C1455 0.999 . S
H1459 C1440 0.913 . S
H1460 C1478 0.951 . S
H1461 C1480 0.951 . S
H1462 C1482 0.950 . S
H1463 C1483 0.950 . S
H1464 C1485 0.950 . S
H1465 C1488 0.950 . S
H1466 C1489 0.950 . S
H1467 C1491 0.950 . S
H1468 C1492 0.950 . S
H1469 C1493 0.951 . S
H1470 C1495 0.951 . S
H1471 C1497 0.950 . S
H1472 C1498 0.950 . S
H1473 C1500 0.950 . S
H1474 C1503 0.950 . S
H1475 C1504 0.950 . S
H1476 C1506 0.950 . S
H1477 C1507 0.950 . S
C1478 H1460 0.951 . S
C1478 C1479 1.366 . S
C1478 C1480 1.388 . S
C1479 C1478 1.366 . S
C1479 C1483 1.385 . S
C1480 H1461 0.951 . S
C1480 C1478 1.388 . S
C1480 C1481 1.366 . S
C1481 C1480 1.366 . S
C1481 C1482 1.414 . S
C1481 C1484 1.499 . S
C1482 H1462 0.950 . S
C1482 C1481 1.414 . S
C1482 C1483 1.374 . S
C1483 H1463 0.950 . S
C1483 C1479 1.385 . S
C1483 C1482 1.374 . S
C1484 C1481 1.499 . S
C1484 C1485 1.373 . S
C1484 C1486 1.389 . S
C1485 H1464 0.950 . S
C1485 C1484 1.373 . S
C1485 C1501 1.377 . S
C1486 C1484 1.389 . S
C1486 C1487 1.524 . S
C1486 C1500 1.377 . S
C1487 C1486 1.524 . S
C1487 C1488 1.397 . S
C1487 C1492 1.363 . S
C1488 H1465 0.950 . S
C1488 C1487 1.397 . S
C1488 C1489 1.334 . S
C1489 H1466 0.950 . S
C1489 C1488 1.334 . S
C1489 C1490 1.287 . S
C1490 C1489 1.287 . S
C1490 C1491 1.524 . S
C1490 H1509 0.913 . S
C1491 H1467 0.950 . S
C1491 C1490 1.524 . S
C1491 C1492 1.415 . S
C1492 H1468 0.950 . S
C1492 C1487 1.363 . S
C1492 C1491 1.415 . S
C1493 H1469 0.951 . S
C1493 C1494 1.366 . S
C1493 C1495 1.388 . S
C1494 C1493 1.366 . S
C1494 C1498 1.385 . S
C1495 H1470 0.951 . S
C1495 C1493 1.388 . S
C1495 C1496 1.366 . S
C1496 C1495 1.366 . S
C1496 C1497 1.414 . S
C1496 C1499 1.499 . S
C1497 H1471 0.950 . S
C1497 C1496 1.414 . S
C1497 C1498 1.374 . S
C1498 H1472 0.950 . S
C1498 C1494 1.385 . S
C1498 C1497 1.374 . S
C1499 C1496 1.499 . S
C1499 C1500 1.373 . S
C1499 C1501 1.389 . S
C1500 H1473 0.950 . S
C1500 C1486 1.377 . S
C1500 C1499 1.373 . S
C1501 C1485 1.377 . S
C1501 C1499 1.389 . S
C1501 C1502 1.524 . S
C1502 C1501 1.524 . S
C1502 C1503 1.397 . S
C1502 C1507 1.363 . S
C1503 H1474 0.950 . S
C1503 C1502 1.397 . S
C1503 C1504 1.334 . S
C1504 H1475 0.950 . S
C1504 C1503 1.334 . S
C1504 C1505 1.287 . S
C1505 C1504 1.287 . S
C1505 C1506 1.524 . S
C1505 H1508 0.999 . S
C1506 H1476 0.950 . S
C1506 C1505 1.524 . S
C1506 C1507 1.415 . S
C1507 H1477 0.950 . S
C1507 C1502 1.363 . S
C1507 C1506 1.415 . S
H1508 C1505 0.999 . S
H1509 C1490 0.913 . S
H1510 C1528 0.951 . S
H1511 C1530 0.951 . S
H1512 C1532 0.950 . S
H1513 C1533 0.950 . S
H1514 C1535 0.950 . S
H1515 C1538 0.950 . S
H1516 C1539 0.950 . S
H1517 C1541 0.950 . S
H1518 C1542 0.950 . S
H1519 C1543 0.951 . S
H1520 C1545 0.951 . S
H1521 C1547 0.950 . S
H1522 C1548 0.950 . S
H1523 C1550 0.950 . S
H1524 C1553 0.950 . S
H1525 C1554 0.950 . S
H1526 C1556 0.950 1_455 S
H1527 C1557 0.950 . S
C1528 H1510 0.951 . S
C1528 C1529 1.366 1_655 S
C1528 C1530 1.388 . S
C1529 C1528 1.366 1_455 S
C1529 C1533 1.385 . S
C1530 H1511 0.951 . S
C1530 C1528 1.388 . S
C1530 C1531 1.366 . S
C1531 C1530 1.366 . S
C1531 C1532 1.414 1_655 S
C1531 C1534 1.499 . S
C1532 H1512 0.950 . S
C1532 C1531 1.414 1_455 S
C1532 C1533 1.374 . S
C1533 H1513 0.950 . S
C1533 C1529 1.385 . S
C1533 C1532 1.374 . S
C1534 C1531 1.499 . S
C1534 C1535 1.373 . S
C1534 C1536 1.389 . S
C1535 H1514 0.950 . S
C1535 C1534 1.373 . S
C1535 C1551 1.377 . S
C1536 C1534 1.389 . S
C1536 C1537 1.524 . S
C1536 C1550 1.377 . S
C1537 C1536 1.524 . S
C1537 C1538 1.397 . S
C1537 C1542 1.363 . S
C1538 H1515 0.950 . S
C1538 C1537 1.397 . S
C1538 C1539 1.334 . S
C1539 H1516 0.950 . S
C1539 C1538 1.334 . S
C1539 C1540 1.287 . S
C1540 C1539 1.287 . S
C1540 C1541 1.524 . S
C1540 H1559 0.913 . S
C1541 H1517 0.950 . S
C1541 C1540 1.524 . S
C1541 C1542 1.415 . S
C1542 H1518 0.950 . S
C1542 C1537 1.363 . S
C1542 C1541 1.415 . S
C1543 H1519 0.951 . S
C1543 C1544 1.366 . S
C1543 C1545 1.388 . S
C1544 C1543 1.366 . S
C1544 C1548 1.385 . S
C1545 H1520 0.951 . S
C1545 C1543 1.388 . S
C1545 C1546 1.366 . S
C1546 C1545 1.366 . S
C1546 C1547 1.414 . S
C1546 C1549 1.499 . S
C1547 H1521 0.950 . S
C1547 C1546 1.414 . S
C1547 C1548 1.374 . S
C1548 H1522 0.950 . S
C1548 C1544 1.385 . S
C1548 C1547 1.374 . S
C1549 C1546 1.499 . S
C1549 C1550 1.373 . S
C1549 C1551 1.389 . S
C1550 H1523 0.950 . S
C1550 C1536 1.377 . S
C1550 C1549 1.373 . S
C1551 C1535 1.377 . S
C1551 C1549 1.389 . S
C1551 C1552 1.524 . S
C1552 C1551 1.524 . S
C1552 C1553 1.397 . S
C1552 C1557 1.363 . S
C1553 H1524 0.950 . S
C1553 C1552 1.397 . S
C1553 C1554 1.334 . S
C1554 H1525 0.950 . S
C1554 C1553 1.334 . S
C1554 C1555 1.287 . S
C1555 C1554 1.287 . S
C1555 C1556 1.524 . S
C1555 H1558 0.999 . S
C1556 H1526 0.950 1_655 S
C1556 C1555 1.524 . S
C1556 C1557 1.415 . S
C1557 H1527 0.950 . S
C1557 C1552 1.363 . S
C1557 C1556 1.415 . S
H1558 C1555 0.999 . S
H1559 C1540 0.913 . S
H1560 C1578 0.951 . S
H1561 C1580 0.951 . S
H1562 C1582 0.950 . S
H1563 C1583 0.950 . S
H1564 C1585 0.950 . S
H1565 C1588 0.950 . S
H1566 C1589 0.950 . S
H1567 C1591 0.950 . S
H1568 C1592 0.950 . S
H1569 C1593 0.951 . S
H1570 C1595 0.951 . S
H1571 C1597 0.950 . S
H1572 C1598 0.950 . S
H1573 C1600 0.950 . S
H1574 C1603 0.950 . S
H1575 C1604 0.950 . S
H1576 C1606 0.950 . S
H1577 C1607 0.950 . S
C1578 H1560 0.951 . S
C1578 C1579 1.366 . S
C1578 C1580 1.388 . S
C1579 C1578 1.366 . S
C1579 C1583 1.385 . S
C1580 H1561 0.951 . S
C1580 C1578 1.388 . S
C1580 C1581 1.366 . S
C1581 C1580 1.366 . S
C1581 C1582 1.414 . S
C1581 C1584 1.499 . S
C1582 H1562 0.950 . S
C1582 C1581 1.414 . S
C1582 C1583 1.374 . S
C1583 H1563 0.950 . S
C1583 C1579 1.385 . S
C1583 C1582 1.374 . S
C1584 C1581 1.499 . S
C1584 C1585 1.373 . S
C1584 C1586 1.389 . S
C1585 H1564 0.950 . S
C1585 C1584 1.373 . S
C1585 C1601 1.377 . S
C1586 C1584 1.389 . S
C1586 C1587 1.524 . S
C1586 C1600 1.377 . S
C1587 C1586 1.524 . S
C1587 C1588 1.397 . S
C1587 C1592 1.363 . S
C1588 H1565 0.950 . S
C1588 C1587 1.397 . S
C1588 C1589 1.334 . S
C1589 H1566 0.950 . S
C1589 C1588 1.334 . S
C1589 C1590 1.287 . S
C1590 C1589 1.287 . S
C1590 C1591 1.524 . S
C1590 H1609 0.913 . S
C1591 H1567 0.950 . S
C1591 C1590 1.524 . S
C1591 C1592 1.415 . S
C1592 H1568 0.950 . S
C1592 C1587 1.363 . S
C1592 C1591 1.415 . S
C1593 H1569 0.951 . S
C1593 C1594 1.366 . S
C1593 C1595 1.388 . S
C1594 C1593 1.366 . S
C1594 C1598 1.385 . S
C1595 H1570 0.951 . S
C1595 C1593 1.388 . S
C1595 C1596 1.366 . S
C1596 C1595 1.366 . S
C1596 C1597 1.414 . S
C1596 C1599 1.499 . S
C1597 H1571 0.950 . S
C1597 C1596 1.414 . S
C1597 C1598 1.374 . S
C1598 H1572 0.950 . S
C1598 C1594 1.385 . S
C1598 C1597 1.374 . S
C1599 C1596 1.499 . S
C1599 C1600 1.373 . S
C1599 C1601 1.389 . S
C1600 H1573 0.950 . S
C1600 C1586 1.377 . S
C1600 C1599 1.373 . S
C1601 C1585 1.377 . S
C1601 C1599 1.389 . S
C1601 C1602 1.524 . S
C1602 C1601 1.524 . S
C1602 C1603 1.397 . S
C1602 C1607 1.363 . S
C1603 H1574 0.950 . S
C1603 C1602 1.397 . S
C1603 C1604 1.334 . S
C1604 H1575 0.950 . S
C1604 C1603 1.334 . S
C1604 C1605 1.287 . S
C1605 C1604 1.287 . S
C1605 C1606 1.524 . S
C1605 H1608 0.999 . S
C1606 H1576 0.950 . S
C1606 C1605 1.524 . S
C1606 C1607 1.415 . S
C1607 H1577 0.950 . S
C1607 C1602 1.363 . S
C1607 C1606 1.415 . S
H1608 C1605 0.999 . S
H1609 C1590 0.913 . S
H1610 C1628 0.951 . S
H1611 C1630 0.951 . S
H1612 C1632 0.950 . S
H1613 C1633 0.950 . S
H1614 C1635 0.950 . S
H1615 C1638 0.950 . S
H1616 C1639 0.950 . S
H1617 C1641 0.950 . S
H1618 C1642 0.950 . S
H1619 C1643 0.951 . S
H1620 C1645 0.951 . S
H1621 C1647 0.950 . S
H1622 C1648 0.950 . S
H1623 C1650 0.950 . S
H1624 C1653 0.950 . S
H1625 C1654 0.950 . S
H1626 C1656 0.950 . S
H1627 C1657 0.950 . S
C1628 H1610 0.951 . S
C1628 C1629 1.366 . S
C1628 C1630 1.388 . S
C1629 C1628 1.366 . S
C1629 C1633 1.385 . S
C1630 H1611 0.951 . S
C1630 C1628 1.388 . S
C1630 C1631 1.366 . S
C1631 C1630 1.366 . S
C1631 C1632 1.414 . S
C1631 C1634 1.499 . S
C1632 H1612 0.950 . S
C1632 C1631 1.414 . S
C1632 C1633 1.374 . S
C1633 H1613 0.950 . S
C1633 C1629 1.385 . S
C1633 C1632 1.374 . S
C1634 C1631 1.499 . S
C1634 C1635 1.373 . S
C1634 C1636 1.389 . S
C1635 H1614 0.950 . S
C1635 C1634 1.373 . S
C1635 C1651 1.377 . S
C1636 C1634 1.389 . S
C1636 C1637 1.524 . S
C1636 C1650 1.377 . S
C1637 C1636 1.524 . S
C1637 C1638 1.397 . S
C1637 C1642 1.363 . S
C1638 H1615 0.950 . S
C1638 C1637 1.397 . S
C1638 C1639 1.334 . S
C1639 H1616 0.950 . S
C1639 C1638 1.334 . S
C1639 C1640 1.287 . S
C1640 C1639 1.287 . S
C1640 C1641 1.524 . S
C1640 H1659 0.913 . S
C1641 H1617 0.950 . S
C1641 C1640 1.524 . S
C1641 C1642 1.415 . S
C1642 H1618 0.950 . S
C1642 C1637 1.363 . S
C1642 C1641 1.415 . S
C1643 H1619 0.951 . S
C1643 C1644 1.366 . S
C1643 C1645 1.388 . S
C1644 C1643 1.366 . S
C1644 C1648 1.385 . S
C1645 H1620 0.951 . S
C1645 C1643 1.388 . S
C1645 C1646 1.366 . S
C1646 C1645 1.366 . S
C1646 C1647 1.414 . S
C1646 C1649 1.499 . S
C1647 H1621 0.950 . S
C1647 C1646 1.414 . S
C1647 C1648 1.374 . S
C1648 H1622 0.950 . S
C1648 C1644 1.385 . S
C1648 C1647 1.374 . S
C1649 C1646 1.499 . S
C1649 C1650 1.373 . S
C1649 C1651 1.389 . S
C1650 H1623 0.950 . S
C1650 C1636 1.377 . S
C1650 C1649 1.373 . S
C1651 C1635 1.377 . S
C1651 C1649 1.389 . S
C1651 C1652 1.524 . S
C1652 C1651 1.524 . S
C1652 C1653 1.397 . S
C1652 C1657 1.363 . S
C1653 H1624 0.950 . S
C1653 C1652 1.397 . S
C1653 C1654 1.334 . S
C1654 H1625 0.950 . S
C1654 C1653 1.334 . S
C1654 C1655 1.287 . S
C1655 C1654 1.287 . S
C1655 C1656 1.524 . S
C1655 H1658 0.999 . S
C1656 H1626 0.950 . S
C1656 C1655 1.524 . S
C1656 C1657 1.415 . S
C1657 H1627 0.950 . S
C1657 C1652 1.363 . S
C1657 C1656 1.415 . S
H1658 C1655 0.999 . S
H1659 C1640 0.913 . S
H1660 C1678 0.951 . S
H1661 C1680 0.951 . S
H1662 C1682 0.950 . S
H1663 C1683 0.950 . S
H1664 C1685 0.950 . S
H1665 C1688 0.950 . S
H1666 C1689 0.950 . S
H1667 C1691 0.950 . S
H1668 C1692 0.950 . S
H1669 C1693 0.951 . S
H1670 C1695 0.951 . S
H1671 C1697 0.950 . S
H1672 C1698 0.950 . S
H1673 C1700 0.950 . S
H1674 C1703 0.950 . S
H1675 C1704 0.950 . S
H1676 C1706 0.950 . S
H1677 C1707 0.950 . S
C1678 H1660 0.951 . S
C1678 C1679 1.366 . S
C1678 C1680 1.388 . S
C1679 C1678 1.366 . S
C1679 C1683 1.385 . S
C1680 H1661 0.951 . S
C1680 C1678 1.388 . S
C1680 C1681 1.366 . S
C1681 C1680 1.366 . S
C1681 C1682 1.414 . S
C1681 C1684 1.499 . S
C1682 H1662 0.950 . S
C1682 C1681 1.414 . S
C1682 C1683 1.374 . S
C1683 H1663 0.950 . S
C1683 C1679 1.385 . S
C1683 C1682 1.374 . S
C1684 C1681 1.499 . S
C1684 C1685 1.373 . S
C1684 C1686 1.389 . S
C1685 H1664 0.950 . S
C1685 C1684 1.373 . S
C1685 C1701 1.377 . S
C1686 C1684 1.389 . S
C1686 C1687 1.524 . S
C1686 C1700 1.377 . S
C1687 C1686 1.524 . S
C1687 C1688 1.397 . S
C1687 C1692 1.363 . S
C1688 H1665 0.950 . S
C1688 C1687 1.397 . S
C1688 C1689 1.334 . S
C1689 H1666 0.950 . S
C1689 C1688 1.334 . S
C1689 C1690 1.287 . S
C1690 C1689 1.287 . S
C1690 C1691 1.524 . S
C1690 H1709 0.913 . S
C1691 H1667 0.950 . S
C1691 C1690 1.524 . S
C1691 C1692 1.415 . S
C1692 H1668 0.950 . S
C1692 C1687 1.363 . S
C1692 C1691 1.415 . S
C1693 H1669 0.951 . S
C1693 C1694 1.366 . S
C1693 C1695 1.388 . S
C1694 C1693 1.366 . S
C1694 C1698 1.385 . S
C1695 H1670 0.951 . S
C1695 C1693 1.388 . S
C1695 C1696 1.366 . S
C1696 C1695 1.366 . S
C1696 C1697 1.414 . S
C1696 C1699 1.499 . S
C1697 H1671 0.950 . S
C1697 C1696 1.414 . S
C1697 C1698 1.374 . S
C1698 H1672 0.950 . S
C1698 C1694 1.385 . S
C1698 C1697 1.374 . S
C1699 C1696 1.499 . S
C1699 C1700 1.373 . S
C1699 C1701 1.389 . S
C1700 H1673 0.950 . S
C1700 C1686 1.377 . S
C1700 C1699 1.373 . S
C1701 C1685 1.377 . S
C1701 C1699 1.389 . S
C1701 C1702 1.524 . S
C1702 C1701 1.524 . S
C1702 C1703 1.397 . S
C1702 C1707 1.363 . S
C1703 H1674 0.950 . S
C1703 C1702 1.397 . S
C1703 C1704 1.334 . S
C1704 H1675 0.950 . S
C1704 C1703 1.334 . S
C1704 C1705 1.287 . S
C1705 C1704 1.287 . S
C1705 C1706 1.524 . S
C1705 H1708 0.999 . S
C1706 H1676 0.950 . S
C1706 C1705 1.524 . S
C1706 C1707 1.415 . S
C1707 H1677 0.950 . S
C1707 C1702 1.363 . S
C1707 C1706 1.415 . S
H1708 C1705 0.999 . S
H1709 C1690 0.913 . S
C529 C7 1.788 . S
C544 C191 1.713 . S
C579 C30 1.686 . S
C594 C235 1.638 . S
C644 C315 1.575 . S
C629 N58 1.582 . S
C694 C359 1.398 . S
C679 N81 1.394 1_655 S
C744 C439 1.718 . S
C729 C99 1.784 . S
C794 C495 1.587 . S
C779 N127 1.661 . S
C829 N25 1.906 . S
C844 C291 1.766 . S
C879 C62 1.560 . S
C894 C371 1.475 . S
C944 C415 1.788 . S
C929 C85 1.950 . S
C994 C483 1.438 . S
C979 N94 1.431 . S
C1029 C131 1.761 . S
C1044 C167 1.640 . S
C1094 C247 1.577 . S
C1079 N2 1.614 1_556 S
C1144 C353 1.790 . S
C1129 C16 1.891 1_556 S
C1179 C39 1.575 . S
C1194 C433 1.436 . S
C1244 C501 1.594 . S
C1229 N48 1.580 . S
C1279 N71 1.528 . S
C1294 C185 1.463 . S
C1329 C108 1.724 . S
C1344 C229 1.638 . S
C1379 N117 1.708 . S
C1394 C309 1.563 . S
C1429 N35 1.879 . S
C1444 C477 1.784 . S
C1494 C173 1.567 . S
C1479 C53 1.651 . S
C1529 C76 1.809 . S
C1544 C253 1.748 . S
C1579 N104 1.352 . S
C1594 C297 1.331 . S
C1629 C122 1.782 . S
C1644 C377 1.734 . S
C1679 N12 1.414 . S
C1694 C421 1.400 . S
