# Generated by pormake.
# Topology zzz, (3,6)-cn, num edge types: 1
# Building blocks:
#     Node 0, Type 0, BuildingBlock: BELTOD_clean_linker_0, # of connection points: 3
#     Node 1, Type 0, BuildingBlock: BELTOD_clean_linker_0, # of connection points: 3
#     Node 2, Type 0, BuildingBlock: BELTOD_clean_linker_0, # of connection points: 3
#     Node 3, Type 0, BuildingBlock: BELTOD_clean_linker_0, # of connection points: 3
#     Node 4, Type 0, BuildingBlock: BELTOD_clean_linker_0, # of connection points: 3
#     Node 5, Type 0, BuildingBlock: BELTOD_clean_linker_0, # of connection points: 3
#     Node 6, Type 0, BuildingBlock: BELTOD_clean_linker_0, # of connection points: 3
#     Node 7, Type 0, BuildingBlock: BELTOD_clean_linker_0, # of connection points: 3
#     Node 8, Type 1, BuildingBlock: KUMBUR_clean_sbu_1, # of connection points: 6
#     Node 9, Type 1, BuildingBlock: KUMBUR_clean_sbu_1, # of connection points: 6
#     Node 10, Type 1, BuildingBlock: KUMBUR_clean_sbu_1, # of connection points: 6
#     Node 11, Type 1, BuildingBlock: KUMBUR_clean_sbu_1, # of connection points: 6
#     Edge 12, Type (0, 1), BuildingBlock: EZIPEK_clean_linker_0, # of connection points: 2
#     Edge 13, Type (0, 1), BuildingBlock: EZIPEK_clean_linker_0, # of connection points: 2
#     Edge 14, Type (0, 1), BuildingBlock: EZIPEK_clean_linker_0, # of connection points: 2
#     Edge 15, Type (0, 1), BuildingBlock: EZIPEK_clean_linker_0, # of connection points: 2
#     Edge 16, Type (0, 1), BuildingBlock: EZIPEK_clean_linker_0, # of connection points: 2
#     Edge 17, Type (0, 1), BuildingBlock: EZIPEK_clean_linker_0, # of connection points: 2
#     Edge 18, Type (0, 1), BuildingBlock: EZIPEK_clean_linker_0, # of connection points: 2
#     Edge 19, Type (0, 1), BuildingBlock: EZIPEK_clean_linker_0, # of connection points: 2
#     Edge 20, Type (0, 1), BuildingBlock: EZIPEK_clean_linker_0, # of connection points: 2
#     Edge 21, Type (0, 1), BuildingBlock: EZIPEK_clean_linker_0, # of connection points: 2
#     Edge 22, Type (0, 1), BuildingBlock: EZIPEK_clean_linker_0, # of connection points: 2
#     Edge 23, Type (0, 1), BuildingBlock: EZIPEK_clean_linker_0, # of connection points: 2
#     Edge 24, Type (0, 1), BuildingBlock: EZIPEK_clean_linker_0, # of connection points: 2
#     Edge 25, Type (0, 1), BuildingBlock: EZIPEK_clean_linker_0, # of connection points: 2
#     Edge 26, Type (0, 1), BuildingBlock: EZIPEK_clean_linker_0, # of connection points: 2
#     Edge 27, Type (0, 1), BuildingBlock: EZIPEK_clean_linker_0, # of connection points: 2
#     Edge 28, Type (0, 1), BuildingBlock: EZIPEK_clean_linker_0, # of connection points: 2
#     Edge 29, Type (0, 1), BuildingBlock: EZIPEK_clean_linker_0, # of connection points: 2
#     Edge 30, Type (0, 1), BuildingBlock: EZIPEK_clean_linker_0, # of connection points: 2
#     Edge 31, Type (0, 1), BuildingBlock: EZIPEK_clean_linker_0, # of connection points: 2
#     Edge 32, Type (0, 1), BuildingBlock: EZIPEK_clean_linker_0, # of connection points: 2
#     Edge 33, Type (0, 1), BuildingBlock: EZIPEK_clean_linker_0, # of connection points: 2
#     Edge 34, Type (0, 1), BuildingBlock: EZIPEK_clean_linker_0, # of connection points: 2
#     Edge 35, Type (0, 1), BuildingBlock: EZIPEK_clean_linker_0, # of connection points: 2
# Relax obj value: 0.350
# Max RMSD: 0.188
# Mean RMSD: 0.174
data_MOF--net-zzz--node1-KUMBUR_clean_sbu_1--node2-BELTOD_clean_linker_0--edge1-EZIPEK_clean_linker_0
_symmetry_space_group_name_H-M    P1
_symmetry_Int_Tables_number       1
_symmetry_cell_setting            triclinic
loop_
_symmetry_equiv_pos_as_xyz
'x, y, z'
_cell_length_a     40.511145
_cell_length_b     40.679339
_cell_length_c     15.222681
_cell_angle_alpha  90.155807
_cell_angle_beta   89.928798
_cell_angle_gamma 90.420918
loop_
_atom_site_label
_atom_site_type_symbol
_atom_site_fract_x
_atom_site_fract_y
_atom_site_fract_z
_atom_type_partial_charge
P0 P 0.73376 0.48847 0.28731 0.0
H1 H 0.768 0.45427 0.42632 0.0
H2 H 0.82017 0.46265 0.50277 0.0
H3 H 0.83194 0.55682 0.37759 0.0
H4 H 0.77895 0.54819 0.29898 0.0
H5 H 0.66237 0.49838 0.31375 0.0
H6 H 0.61913 0.51056 0.20707 0.0
H7 H 0.6927 0.54443 0.02353 0.0
H8 H 0.73633 0.5318 0.13014 0.0
H9 H 0.79717 0.49356 0.19494 0.0
H10 H 0.70801 0.43503 0.17793 0.0
O11 O 0.71204 0.46155 0.34703 0.0
H12 H 0.81846 0.46671 0.0638 0.0
H13 H 0.72956 0.40821 0.04452 0.0
C14 C 0.76857 0.50093 0.35792 0.0
C15 C 0.78103 0.4773 0.41651 0.0
C16 C 0.81125 0.48187 0.45995 0.0
C17 C 0.83044 0.51024 0.44619 0.0
C18 C 0.81772 0.53465 0.38971 0.0
C19 C 0.78723 0.52991 0.3454 0.0
C20 C 0.70314 0.514 0.23108 0.0
C21 C 0.66947 0.50976 0.25232 0.0
C22 C 0.64451 0.51651 0.19074 0.0
C23 C 0.65241 0.5281 0.10631 0.0
C24 C 0.68577 0.53558 0.08805 0.0
C25 C 0.7108 0.52865 0.14968 0.0
C26 C 0.75141 0.46555 0.19805 0.0
C27 C 0.78244 0.47444 0.16455 0.0
C28 C 0.79451 0.45934 0.08914 0.0
C29 C 0.77559 0.43547 0.04536 0.0
C30 C 0.74452 0.42642 0.07834 0.0
C31 C 0.73244 0.44151 0.15444 0.0
P32 P 0.02144 0.73168 0.30827 0.0
H33 H 0.01466 0.74521 0.49756 0.0
H34 H 0.00834 0.79757 0.57435 0.0
H35 H 0.97465 0.84232 0.33517 0.0
H36 H 0.98093 0.78963 0.25764 0.0
H37 H 0.05505 0.70686 0.15188 0.0
H38 H 0.04439 0.66338 0.04686 0.0
H39 H 0.95203 0.6415 0.17491 0.0
H40 H 0.96195 0.68741 0.2794 0.0
H41 H 0.07886 0.76573 0.38071 0.0
H42 H 0.02528 0.7628 0.13583 0.0
O43 O 0.04159 0.70858 0.38072 0.0
H44 H 0.10796 0.81555 0.33143 0.0
H45 H 0.0559 0.81089 0.08485 0.0
C46 C 0.99802 0.76262 0.37081 0.0
C47 C 1.00426 0.7656 0.46174 0.0
C48 C 1.00108 0.79592 0.50602 0.0
C49 C 0.99141 0.82442 0.46105 0.0
C50 C 0.98221 0.82092 0.37204 0.0
C51 C 0.9853 0.79046 0.32776 0.0
C52 C 0.00838 0.70258 0.22143 0.0
C53 C 0.03148 0.69431 0.15568 0.0
C54 C 0.02569 0.66874 0.0957 0.0
C55 C 0.99714 0.64911 0.10082 0.0
C56 C 0.97398 0.6566 0.16755 0.0
C57 C 0.97955 0.68304 0.22717 0.0
C58 C 0.05083 0.75973 0.2606 0.0
C59 C 0.07467 0.77465 0.31472 0.0
C60 C 0.09106 0.80313 0.28711 0.0
C61 C 0.08408 0.81652 0.20454 0.0
C62 C 0.06179 0.8005 0.14836 0.0
C63 C 0.04469 0.77277 0.17703 0.0
P64 P 0.79373 0.03184 0.28779 0.0
H65 H 0.77911 0.02426 0.47673 0.0
H66 H 0.72653 0.01707 0.55364 0.0
H67 H 0.68002 0.98868 0.31063 0.0
H68 H 0.73278 0.99598 0.23298 0.0
H69 H 0.86416 0.04646 0.2698 0.0
H70 H 0.90555 0.03318 0.15968 0.0
H71 H 0.8378 0.96524 0.037 0.0
H72 H 0.79576 0.97822 0.14979 0.0
H73 H 0.76077 0.09274 0.33172 0.0
H74 H 0.77184 0.03108 0.10249 0.0
O75 O 0.8136 0.05474 0.36242 0.0
H76 H 0.71544 0.12154 0.25983 0.0
H77 H 0.72657 0.05991 0.03118 0.0
C78 C 0.76059 0.01053 0.3481 0.0
C79 C 0.75813 0.01516 0.43979 0.0
C80 C 0.72779 0.01138 0.48417 0.0
C81 C 0.69889 1.00267 0.43838 0.0
C82 C 0.70178 0.99546 0.34797 0.0
C83 C 0.73221 0.99923 0.30356 0.0
C84 C 0.82636 0.01333 0.21962 0.0
C85 C 0.85811 0.02779 0.22158 0.0
C86 C 0.88206 0.02026 0.15804 0.0
C87 C 0.87514 0.99814 0.08952 0.0
C88 C 0.84405 0.98215 0.08957 0.0
C89 C 0.81995 0.98959 0.15414 0.0
C90 C 0.77021 0.06002 0.22222 0.0
C91 C 0.75459 0.08637 0.26458 0.0
C92 C 0.7286 0.1027 0.2239 0.0
C93 C 0.71783 0.09277 0.14043 0.0
C94 C 0.73486 0.06803 0.09536 0.0
C95 C 0.76085 0.05167 0.13617 0.0
P96 P 0.49533 0.7921 0.30842 0.0
H97 H 0.50653 0.78033 0.49691 0.0
H98 H 0.51402 0.72865 0.57554 0.0
H99 H 0.54044 0.68074 0.3333 0.0
H100 H 0.53307 0.73274 0.25397 0.0
H101 H 0.4594 0.81929 0.16 0.0
H102 H 0.47042 0.86163 0.052 0.0
H103 H 0.56733 0.87694 0.16136 0.0
H104 H 0.55677 0.83236 0.26891 0.0
H105 H 0.43825 0.7586 0.38484 0.0
H106 H 0.48888 0.76174 0.13527 0.0
O107 O 0.47637 0.8156 0.38271 0.0
H108 H 0.40762 0.70952 0.33584 0.0
H109 H 0.45712 0.7142 0.08532 0.0
C110 C 0.51936 0.76119 0.36845 0.0
C111 C 0.5155 0.75933 0.46047 0.0
C112 C 0.51936 0.72944 0.50584 0.0
C113 C 0.52729 0.7003 0.46079 0.0
C114 C 0.53416 0.70265 0.37011 0.0
C115 C 0.53045 0.73269 0.32474 0.0
C116 C 0.5079 0.82067 0.2205 0.0
C117 C 0.48376 0.83035 0.15925 0.0
C118 C 0.48982 0.85521 0.09768 0.0
C119 C 0.51983 0.87262 0.09687 0.0
C120 C 0.54409 0.86365 0.15906 0.0
C121 C 0.53816 0.83799 0.22035 0.0
C122 C 0.46497 0.76461 0.26257 0.0
C123 C 0.44147 0.74991 0.3181 0.0
C124 C 0.42416 0.72189 0.29055 0.0
C125 C 0.43004 0.70871 0.2069 0.0
C126 C 0.452 0.72453 0.14957 0.0
C127 C 0.46982 0.7519 0.17782 0.0
P128 P 0.27606 0.44718 0.13933 0.0
H129 H 0.24104 0.41256 0.99727 0.0
H130 H 0.19703 0.42806 0.90146 0.0
H131 H 0.20917 0.52874 0.98597 0.0
H132 H 0.25373 0.51275 0.07917 0.0
H133 H 0.33373 0.40825 0.18926 0.0
H134 H 0.38062 0.4207 0.27805 0.0
H135 H 0.35756 0.52394 0.25929 0.0
H136 H 0.31076 0.51066 0.17016 0.0
H137 H 0.20504 0.46056 0.16408 0.0
H138 H 0.29288 0.46081 0.32539 0.0
O139 O 0.27385 0.40619 0.13873 0.0
H140 H 0.1769 0.49379 0.27471 0.0
H141 H 0.26478 0.49448 0.43414 0.0
C142 C 0.25312 0.46162 0.04215 0.0
C143 C 0.23616 0.43852 0.98987 0.0
C144 C 0.21058 0.44784 0.9326 0.0
C145 C 0.20129 0.48113 0.92043 0.0
C146 C 0.2174 0.50386 0.97811 0.0
C147 C 0.24336 0.49454 0.03488 0.0
C148 C 0.31906 0.45848 0.16682 0.0
C149 C 0.34025 0.43389 0.19796 0.0
C150 C 0.36828 0.44142 0.24926 0.0
C151 C 0.37798 0.47422 0.26908 0.0
C152 C 0.35566 0.49871 0.23858 0.0
C153 C 0.3276 0.49111 0.18691 0.0
C154 C 0.25211 0.46069 0.23244 0.0
C155 C 0.21839 0.46761 0.22275 0.0
C156 C 0.20217 0.48634 0.286 0.0
C157 C 0.21941 0.49752 0.36009 0.0
C158 C 0.25157 0.48674 0.37569 0.0
C159 C 0.26766 0.46783 0.31279 0.0
P160 P 0.07254 0.28037 0.10843 0.0
H161 H 0.10667 0.2484 0.95946 0.0
H162 H 0.09028 0.20237 0.8651 0.0
H163 H 0.9892 0.21436 0.94527 0.0
H164 H 1.0055 0.26068 0.04018 0.0
H165 H 0.11387 0.31635 0.23101 0.0
H166 H 0.10458 0.36312 0.32703 0.0
H167 H 0.01532 0.38536 0.1867 0.0
H168 H 0.02442 0.33731 0.08975 0.0
H169 H 0.08836 0.22022 0.20546 0.0
H170 H 0.00897 0.2904 0.19294 0.0
O171 O 0.11248 0.27084 0.11544 0.0
H172 H 0.05495 0.18609 0.30543 0.0
H173 H 0.9762 0.25665 0.29181 0.0
C174 C 0.05758 0.25874 0.00866 0.0
C175 C 0.08069 0.24227 0.95497 0.0
C176 C 0.07136 0.21547 0.90102 0.0
C177 C 0.03849 0.20412 0.89825 0.0
C178 C 0.0148 0.2222 0.94601 0.0
C179 C 0.02418 0.24911 1.00006 0.0
C180 C 0.07022 0.32293 0.15087 0.0
C181 C 0.09283 0.33177 0.21752 0.0
C182 C 0.08741 0.35865 0.27375 0.0
C183 C 0.0591 0.3781 0.26581 0.0
C184 C 0.03743 0.37092 0.19509 0.0
C185 C 0.04279 0.34355 0.13872 0.0
C186 C 0.05144 0.25821 0.19329 0.0
C187 C 0.06433 0.2288 0.2261 0.0
C188 C 0.0454 0.2094 0.28288 0.0
C189 C 0.0134 0.21923 0.30572 0.0
C190 C 1.00105 0.24909 0.27534 0.0
C191 C 0.01991 0.2684 0.21927 0.0
P192 P 0.23003 0.07783 0.06115 0.0
H193 H 0.26041 0.09791 0.8942 0.0
H194 H 0.31279 0.08428 0.82423 0.0
H195 H 0.32496 1.0035 1.00313 0.0
H196 H 0.27224 0.01761 0.075 0.0
H197 H 0.15755 0.0867 0.05511 0.0
H198 H 0.11449 0.07266 0.16218 0.0
H199 H 0.1824 0.00954 0.29682 0.0
H200 H 0.22521 0.02248 0.18754 0.0
H201 H 0.30092 0.09206 0.09333 0.0
H202 H 0.20959 0.10181 0.23731 0.0
O203 O 0.21466 0.11 1.00749 0.0
H204 H 0.32981 0.08118 0.22895 0.0
H205 H 0.23921 0.09208 0.37486 0.0
C206 C 0.26128 0.05847 0.98945 0.0
C207 C 0.27342 0.07643 0.91702 0.0
C208 C 0.30387 0.06888 0.87725 0.0
C209 C 0.32351 0.04296 0.90812 0.0
C210 C 0.31061 0.02366 0.97746 0.0
C211 C 0.28003 0.03138 0.01778 0.0
C212 C 0.19513 0.05568 0.11208 0.0
C213 C 0.16304 0.0687 0.10513 0.0
C214 C 0.13832 0.06101 0.16726 0.0
C215 C 0.14506 0.04072 0.23971 0.0
C216 C 0.17632 0.02561 0.24268 0.0
C217 C 0.20081 0.03265 0.17918 0.0
C218 C 0.25251 0.09377 0.15451 0.0
C219 C 0.28704 0.09274 0.15399 0.0
C220 C 0.30374 0.08693 0.23193 0.0
C221 C 0.28601 0.08349 0.31064 0.0
C222 C 0.25289 0.0931 0.31375 0.0
C223 C 0.23608 0.09855 0.23504 0.0
P224 P 0.4624 0.23384 0.07245 0.0
H225 H 0.44609 0.256 0.8932 0.0
H226 H 0.46109 0.30643 0.81511 0.0
H227 H 0.54012 0.3237 0.99838 0.0
H228 H 0.5247 0.27333 0.07827 0.0
H229 H 0.42516 0.18164 0.15587 0.0
H230 H 0.43857 0.13954 0.26275 0.0
H231 H 0.54225 0.15971 0.22571 0.0
H232 H 0.52831 0.20459 0.12338 0.0
H233 H 0.42756 0.29642 0.07999 0.0
H234 H 0.48517 0.23664 0.25658 0.0
O235 O 0.42534 0.22548 0.0297 0.0
H236 H 0.43865 0.34455 0.17371 0.0
H237 H 0.49648 0.28402 0.34637 0.0
C238 C 0.4844 0.25991 0.99204 0.0
C239 C 0.46761 0.26961 0.91517 0.0
C240 C 0.47594 0.2989 0.87053 0.0
C241 C 0.50156 0.31947 0.9008 0.0
C242 C 0.52018 0.30851 0.97326 0.0
C243 C 0.51172 0.27922 0.01827 0.0
C244 C 0.47565 0.19583 0.12743 0.0
C245 C 0.45095 0.17667 0.16823 0.0
C246 C 0.45863 0.15259 0.23071 0.0
C247 C 0.4915 0.14605 0.25417 0.0
C248 C 0.51659 0.16406 0.21011 0.0
C249 C 0.50872 0.18924 0.14942 0.0
C250 C 0.45622 0.26299 0.15953 0.0
C251 C 0.44121 0.2932 0.14045 0.0
C252 C 0.44761 0.32065 0.1934 0.0
C253 C 0.46933 0.31772 0.26451 0.0
C254 C 0.48025 0.28669 0.29031 0.0
C255 C 0.47374 0.25947 0.23823 0.0
Tb256 Tb 0.97497 0.02605 0.58936 0.0
C257 C 0.09924 0.06624 0.7628 0.0
N258 N 0.09378 0.04122 0.70526 0.0
C259 C 0.13916 0.06081 0.61713 0.0
C260 C 0.12288 0.09108 0.74606 0.0
C261 C 0.11592 0.03648 0.6385 0.0
C262 C 0.14184 0.0889 0.66952 0.0
C263 C 0.09161 0.08742 0.91004 0.0
C264 C 0.08418 0.06441 0.8436 0.0
C265 C 0.11293 0.11388 0.8914 0.0
C266 C 0.12853 0.11575 0.80925 0.0
Tb267 Tb 0.05246 1.00431 0.74329 0.0
N268 N 0.06365 0.03861 0.85861 0.0
C269 C 0.07827 0.08244 0.99376 0.0
C270 C 0.05171 0.03275 0.94108 0.0
C271 C 0.05873 0.05463 0.00978 0.0
H272 H 0.11628 0.0137 0.6022 0.0
H273 H 0.04898 0.05013 0.07481 0.0
H274 H 0.92286 0.96217 0.59248 0.0
H275 H 0.01446 0.09494 0.30235 0.0
H276 H 0.03655 0.01131 0.95377 0.0
H277 H 0.08339 0.09956 0.0467 0.0
H278 H 0.99857 0.08793 0.45771 0.0
H279 H 0.15553 0.05746 0.56161 0.0
H280 H 0.11851 0.13223 0.94105 0.0
H281 H 0.14618 0.13536 0.79703 0.0
H282 H 0.90904 0.91506 0.4956 0.0
H283 H 0.1603 0.1074 0.65402 0.0
H284 H 0.01223 0.04739 0.20072 0.0
N285 N 0.95708 0.98334 0.50216 0.0
C286 C 0.96815 0.98341 0.4182 0.0
C287 C 0.92604 0.93392 0.47327 0.0
C288 C 0.96074 0.95734 0.36019 0.0
C289 C 0.93397 0.96054 0.52793 0.0
C290 C 0.94033 0.93177 0.38988 0.0
N291 N 0.98776 0.03685 0.44478 0.0
C292 C 0.99669 0.06722 0.41355 0.0
C293 C 0.99327 0.01393 0.29921 0.0
C294 C 0.98417 0.01123 0.38833 0.0
C295 C 1.00514 0.04422 0.26876 0.0
C296 C 1.00619 0.07116 0.32579 0.0
H297 H 0.93414 0.91118 0.34754 0.0
H298 H 0.96828 0.93811 0.2291 0.0
H299 H 0.99624 0.98811 0.17455 0.0
O300 O 0.9295 0.03514 0.52679 0.0
O301 O 0.98159 0.97546 0.63904 0.0
O302 O 0.03685 0.96612 0.64671 0.0
O303 O 0.94201 0.05941 0.64597 0.0
O304 O 0.02581 0.04082 0.54846 0.0
O305 O 0.05828 1.0002 0.60049 0.0
O306 O 0.05631 0.96442 0.83153 0.0
O307 O 0.02349 0.04905 0.77158 0.0
O308 O 1.00139 0.0696 0.64435 0.0
O309 O 0.09886 0.98405 0.76492 0.0
O310 O 1.00469 0.99776 0.81457 0.0
O311 O 0.96018 0.00958 0.72172 0.0
C312 C 0.00691 0.95618 0.625 0.0
C313 C 0.90681 0.08684 0.55053 0.0
C314 C 0.91659 0.13879 0.47866 0.0
C315 C 0.88249 0.14327 0.46915 0.0
C316 C 0.87267 0.09106 0.5413 0.0
C317 C 0.86053 0.11952 0.50164 0.0
C318 C 0.92852 0.11119 0.52175 0.0
C319 C 0.05195 0.02188 0.53959 0.0
C320 C 0.92002 0.05628 0.585 0.0
C321 C 0.97263 0.95847 0.27357 0.0
C322 C 0.9887 0.98686 0.2428 0.0
C323 C 0.01456 0.07435 0.72322 0.0
C324 C 0.10753 0.96441 0.90728 0.0
C325 C 0.12307 0.93629 0.04111 0.0
C326 C 0.14671 0.96075 0.05884 0.0
C327 C 0.1311 0.98909 0.92575 0.0
C328 C 0.10369 0.93817 0.96524 0.0
C329 C 0.15073 0.98699 1.00082 0.0
C330 C 0.97261 1.00196 0.79952 0.0
C331 C 0.08838 0.96427 0.82541 0.0
H332 H 0.87306 0.16453 0.43495 0.0
H333 H 0.85554 0.07226 0.5635 0.0
H334 H 0.8342 0.12272 0.49385 0.0
H335 H 0.95484 0.10809 0.52958 0.0
H336 H 0.16221 0.95926 0.11657 0.0
H337 H 0.13486 0.00962 0.88162 0.0
H338 H 0.08571 0.91897 0.95115 0.0
H339 H 0.1694 1.00546 0.01312 0.0
Tb340 Tb 0.52918 0.0516 0.76316 0.0
C341 C 0.53835 0.91096 0.58693 0.0
N342 N 0.5318 0.94005 0.54736 0.0
C343 C 0.56616 0.92476 0.42532 0.0
C344 C 0.55987 0.88794 0.5486 0.0
C345 C 0.54424 0.94658 0.46552 0.0
C346 C 0.57441 0.89551 0.46763 0.0
C347 C 0.52485 0.87231 0.70252 0.0
C348 C 0.52121 0.90324 0.66252 0.0
C349 C 0.5476 0.84988 0.66754 0.0
C350 C 0.5651 0.85768 0.59063 0.0
Tb351 Tb 0.49802 0.97509 0.62385 0.0
N352 N 0.49938 0.92552 0.69377 0.0
C353 C 0.50458 0.86451 0.7742 0.0
C354 C 0.47757 0.91701 0.75848 0.0
C355 C 0.48037 0.88671 0.80116 0.0
H356 H 0.5374 0.96878 0.4313 0.0
H357 H 0.46393 0.88054 0.85484 0.0
H358 H 0.51435 0.12698 0.68695 0.0
H359 H 0.6392 1.00174 0.91021 0.0
H360 H 0.45876 0.93405 0.77914 0.0
H361 H 0.50666 0.84104 0.80718 0.0
H362 H 0.57954 1.0048 0.87877 0.0
H363 H 0.57644 0.93037 0.3614 0.0
H364 H 0.55106 0.82607 0.69777 0.0
H365 H 0.58177 0.83975 0.5627 0.0
H366 H 0.54666 0.17634 0.64786 0.0
H367 H 0.59108 0.87849 0.43587 0.0
H368 H 0.67714 0.04438 0.85186 0.0
N369 N 0.55657 0.09825 0.71851 0.0
C370 C 0.58985 0.09824 0.7289 0.0
C371 C 0.55916 0.15443 0.66979 0.0
C372 C 0.60931 0.12581 0.70598 0.0
C373 C 0.54096 0.1263 0.69205 0.0
C374 C 0.59354 0.15396 0.67502 0.0
N375 N 0.58406 0.04665 0.79625 0.0
C376 C 0.59602 0.02271 0.85033 0.0
C377 C 0.63823 0.07133 0.78725 0.0
C378 C 0.60411 0.07151 0.7692 0.0
C379 C 0.65108 0.04534 0.83621 0.0
C380 C 0.62976 0.02122 0.86921 0.0
H381 H 0.60758 0.17575 0.65749 0.0
H382 H 0.65905 0.14572 0.70042 0.0
H383 H 0.68441 0.09794 0.77173 0.0
O384 O 0.53265 0.05729 0.9006 0.0
O385 O 0.51153 0.068 0.63192 0.0
O386 O 0.5029 0.02125 0.54456 0.0
O387 O 0.50758 0.09291 0.82302 0.0
O388 O 0.56651 0.02098 0.69149 0.0
O389 O 0.54091 1.00087 0.56777 0.0
O390 O 0.44697 0.97822 0.60493 0.0
O391 O 0.52785 0.96501 0.74259 0.0
O392 O 0.51588 1.00674 0.83842 0.0
O393 O 0.47586 0.94534 0.52637 0.0
O394 O 0.46473 0.99353 0.72991 0.0
O395 O 0.47635 0.04838 0.73064 0.0
C396 C 0.50494 0.05385 0.55496 0.0
C397 C 0.5406 0.11368 0.93702 0.0
C398 C 0.59166 0.1335 1.00389 0.0
C399 C 0.57966 0.16574 1.00174 0.0
C400 C 0.52896 0.14612 0.93482 0.0
C401 C 0.5486 0.172 0.96598 0.0
C402 C 0.57215 0.10764 0.97114 0.0
C403 C 0.56769 0.01094 0.60868 0.0
C404 C 0.52058 0.0868 0.89869 0.0
C405 C 0.64364 0.12494 0.71855 0.0
C406 C 0.65809 0.09773 0.7592 0.0
C407 C 0.52318 0.97569 0.82335 0.0
C408 C 0.42788 0.96814 0.46135 0.0
C409 C 0.38191 0.99931 0.40282 0.0
C410 C 0.39331 0.99335 0.31722 0.0
C411 C 0.43919 0.96234 0.37531 0.0
C412 C 0.39823 0.98516 0.47394 0.0
C413 C 0.42158 0.9745 0.30361 0.0
C414 C 0.45664 0.02392 0.75148 0.0
C415 C 0.44681 0.9578 0.53901 0.0
H416 H 0.59439 0.18594 0.02719 0.0
H417 H 0.50486 0.1515 0.90789 0.0
H418 H 0.53958 0.19696 0.96303 0.0
H419 H 0.58176 0.08285 0.97257 0.0
H420 H 0.38057 1.00363 0.26122 0.0
H421 H 0.46171 0.94884 0.36339 0.0
H422 H 0.3882 0.98805 0.53923 0.0
H423 H 0.43035 0.97013 0.23751 0.0
Tb424 Tb 0.55017 0.50283 0.60984 0.0
C425 C 0.43584 0.46934 0.86685 0.0
N426 N 0.44256 0.47775 0.78192 0.0
C427 C 0.40654 0.43434 0.73169 0.0
C428 C 0.414 0.44319 0.88691 0.0
C429 C 0.42759 0.46095 0.71478 0.0
C430 C 0.39967 0.42543 0.81805 0.0
C431 C 0.44423 0.47912 0.02288 0.0
C432 C 0.45091 0.48703 0.9344 0.0
C433 C 0.42172 0.45383 0.04245 0.0
C434 C 0.4068 0.4358 0.97485 0.0
Tb435 Tb 0.47499 0.52403 0.76757 0.0
N436 N 0.47229 0.51173 0.91347 0.0
C437 C 0.46054 0.4967 0.08915 0.0
C438 C 0.48779 0.5294 0.97813 0.0
C439 C 0.4827 0.52168 0.06652 0.0
H440 H 0.43065 0.46796 0.64793 0.0
H441 H 0.49521 0.53565 0.11724 0.0
H442 H 0.61325 0.54138 0.7034 0.0
H443 H 0.5031 0.50979 0.27511 0.0
H444 H 0.50339 0.55018 0.96249 0.0
H445 H 0.45614 0.49123 0.15785 0.0
H446 H 0.51367 0.48255 0.41537 0.0
H447 H 0.39506 0.42114 0.67783 0.0
H448 H 0.41584 0.44781 0.10964 0.0
H449 H 0.38977 0.41609 0.99136 0.0
H450 H 0.64796 0.59037 0.67336 0.0
H451 H 0.38293 0.40509 0.83083 0.0
H452 H 0.52852 0.56396 0.24356 0.0
N453 N 0.58401 0.54715 0.58849 0.0
C454 C 0.58016 0.56332 0.51106 0.0
C455 C 0.62877 0.58318 0.62763 0.0
C456 C 0.59937 0.59135 0.49124 0.0
C457 C 0.60903 0.55556 0.64464 0.0
C458 C 0.62358 0.60146 0.55132 0.0
N459 N 0.54017 0.52322 0.47115 0.0
C460 C 0.52298 0.5072 0.40613 0.0
C461 C 0.55313 0.56708 0.36948 0.0
C462 C 0.55706 0.55137 0.45138 0.0
C463 C 0.53225 0.55263 0.30707 0.0
C464 C 0.51774 0.52216 0.32478 0.0
H465 H 0.63881 0.62293 0.53857 0.0
H466 H 0.60823 0.63001 0.39622 0.0
H467 H 0.56788 0.60865 0.28932 0.0
O468 O 0.5809 0.48606 0.5086 0.0
O469 O 0.54205 0.55345 0.65686 0.0
O470 O 0.48679 0.55983 0.6622 0.0
O471 O 0.58969 0.47131 0.64055 0.0
O472 O 0.50079 0.48547 0.5657 0.0
O473 O 0.46147 0.5187 0.62875 0.0
O474 O 0.46132 0.56737 0.83451 0.0
O475 O 0.50005 0.47728 0.79553 0.0
O476 O 0.52354 0.45911 0.66672 0.0
O477 O 0.42497 0.53636 0.77123 0.0
O478 O 0.52471 0.53834 0.81913 0.0
O479 O 0.56425 0.50627 0.74904 0.0
C480 C 0.51598 0.57105 0.63907 0.0
C481 C 0.5947 0.4316 0.52905 0.0
C482 C 0.5635 0.38802 0.45747 0.0
C483 C 0.59034 0.36678 0.4679 0.0
C484 C 0.62145 0.41036 0.53969 0.0
C485 C 0.61912 0.37789 0.50961 0.0
C486 C 0.56557 0.42009 0.48933 0.0
C487 C 0.47189 0.50056 0.56286 0.0
C488 C 0.59646 0.46581 0.55857 0.0
C489 C 0.59409 0.60809 0.41199 0.0
C490 C 0.57101 0.59599 0.35128 0.0
C491 C 0.51442 0.45383 0.74974 0.0
C492 C 0.40905 0.56154 0.90452 0.0
C493 C 0.3935 0.58869 0.0407 0.0
C494 C 0.37154 0.56294 0.06014 0.0
C495 C 0.38609 0.53629 0.92317 0.0
C496 C 0.41226 0.58782 0.96334 0.0
C497 C 0.36771 0.53692 1.00093 0.0
C498 C 0.55372 0.52303 0.81821 0.0
C499 C 0.4299 0.56088 0.82475 0.0
H500 H 0.58914 0.34187 0.44269 0.0
H501 H 0.64397 0.41888 0.57086 0.0
H502 H 0.63979 0.36147 0.51749 0.0
H503 H 0.54464 0.43625 0.48107 0.0
H504 H 0.35729 0.56322 0.12037 0.0
H505 H 0.38248 0.51587 0.87838 0.0
H506 H 0.4296 0.60759 0.94946 0.0
H507 H 0.35049 0.51718 0.01518 0.0
Tb508 Tb 0.02717 0.54817 0.6229 0.0
C509 C 0.05559 0.42077 0.83053 0.0
N510 N 0.03631 0.42542 0.75847 0.0
C511 C 0.05824 0.37612 0.6938 0.0
C512 C 0.07795 0.39439 0.83532 0.0
C513 C 0.03605 0.40229 0.6928 0.0
C514 C 0.07969 0.37245 0.76464 0.0
C515 C 0.0685 0.4356 0.98121 0.0
C516 C 0.05094 0.44098 0.90267 0.0
C517 C 0.09212 0.41055 0.98458 0.0
C518 C 0.09686 0.39 0.91169 0.0
Tb519 Tb 1.00196 0.47029 0.76519 0.0
N520 N 0.02771 0.46475 0.89736 0.0
C521 C 0.0608 0.45473 0.05492 0.0
C522 C 0.01827 0.48157 0.97083 0.0
C523 C 0.03515 0.47739 0.05013 0.0
H524 H 0.01824 0.40309 0.64031 0.0
H525 H 0.02818 0.49146 0.10762 0.0
H526 H 0.97843 0.60327 0.71242 0.0
H527 H 0.05126 0.52329 0.27782 0.0
H528 H 0.99785 0.49841 0.96866 0.0
H529 H 0.07365 0.45135 0.11654 0.0
H530 H 0.06534 0.52621 0.43504 0.0
H531 H 0.0583 0.35839 0.64066 0.0
H532 H 0.10603 0.40618 0.04412 0.0
H533 H 0.1144 0.37009 0.91613 0.0
H534 H 0.92813 0.63408 0.67118 0.0
H535 H 0.09653 0.35189 0.76572 0.0
H536 H 0.99833 0.54582 0.22503 0.0
N537 N 0.98184 0.57871 0.58968 0.0
C538 C 0.97189 0.57806 0.5046 0.0
C539 C 0.93987 0.61798 0.62404 0.0
C540 C 0.9439 0.59559 0.47709 0.0
C541 C 0.96802 0.60037 0.64762 0.0
C542 C 0.92727 0.61497 0.53887 0.0
N543 N 0.01917 0.5468 0.47325 0.0
C544 C 0.04148 0.53479 0.41375 0.0
C545 C 0.98268 0.5615 0.35447 0.0
C546 C 0.99114 0.5614 0.44437 0.0
C547 C 1.00406 0.54652 0.29453 0.0
C548 C 0.03389 0.53367 0.32414 0.0
H549 H 0.90563 0.62883 0.52047 0.0
H550 H 0.91265 0.60725 0.3661 0.0
H551 H 0.94661 0.57728 0.25861 0.0
O552 O 0.05187 0.58435 0.54905 0.0
O553 O 0.97496 0.5355 0.65091 0.0
O554 O 0.972 0.47997 0.64741 0.0
O555 O 0.05158 0.58673 0.68929 0.0
O556 O 0.04385 0.50056 0.56515 0.0
O557 O 0.01092 0.45946 0.62462 0.0
O558 O 0.95464 0.47048 0.82242 0.0
O559 O 0.04909 0.49615 0.79484 0.0
O560 O 0.06848 0.51594 0.66275 0.0
O561 O 0.98091 0.42532 0.80419 0.0
O562 O 0.98653 0.51868 0.82075 0.0
O563 O 0.02344 0.55717 0.76549 0.0
C564 C 0.96006 0.50854 0.62427 0.0
C565 C 0.09869 0.6069 0.61795 0.0
C566 C 0.15427 0.5938 0.57143 0.0
C567 C 0.16645 0.6215 0.61614 0.0
C568 C 0.11082 0.63466 0.66267 0.0
C569 C 0.14466 0.64185 0.66192 0.0
C570 C 0.12058 0.58636 0.57341 0.0
C571 C 0.0306 0.47058 0.56174 0.0
C572 C 0.06328 0.59949 0.61777 0.0
C573 C 0.93434 0.5943 0.38845 0.0
C574 C 0.9537 0.57726 0.32722 0.0
C575 C 0.0738 0.50349 0.7417 0.0
C576 C 0.9239 0.42423 0.77764 0.0
C577 C 0.86561 0.4099 0.77939 0.0
C578 C 0.86795 0.39809 0.69301 0.0
C579 C 0.92608 0.41262 0.6907 0.0
C580 C 0.89362 0.42287 0.82139 0.0
C581 C 0.89818 0.3996 0.64876 0.0
C582 C 1.00234 0.54728 0.82596 0.0
C583 C 0.95271 0.43856 0.82257 0.0
H584 H 0.19259 0.62727 0.61543 0.0
H585 H 0.09416 0.65072 0.6979 0.0
H586 H 0.15397 0.66326 0.69651 0.0
H587 H 0.11147 0.56462 0.53946 0.0
H588 H 0.84645 0.38799 0.66011 0.0
H589 H 0.94928 0.41358 0.65542 0.0
H590 H 0.89174 0.43207 0.88818 0.0
H591 H 0.90001 0.39069 0.58188 0.0
C592 C 0.1097 0.06383 0.36591 0.0
C593 C 0.12028 0.03652 0.31446 0.0
C594 C 0.09301 0.99978 0.42132 0.0
C595 C 0.07688 0.02685 0.46395 0.0
N596 N 0.07481 0.08574 0.4812 0.0
N597 N 0.11502 0.97865 0.28504 0.0
C598 C 0.08617 0.05919 0.4359 0.0
C599 C 0.10966 1.00469 0.33971 0.0
N600 N 0.12425 0.09389 0.35316 0.0
N601 N 0.09528 0.96965 0.46012 0.0
H602 H 0.12588 0.98136 0.22349 0.0
H603 H 0.10536 0.95525 0.29693 0.0
H604 H 0.08629 0.96371 0.52175 0.0
H605 H 0.10999 0.95095 0.43474 0.0
H606 H 0.12043 0.11414 0.39375 0.0
H607 H 0.14274 0.09804 0.30678 0.0
H608 H 0.07517 0.10958 0.45643 0.0
H609 H 0.06574 0.0837 0.54487 0.0
C610 C 0.48448 0.08876 0.32132 0.0
C611 C 0.49855 0.12088 0.32592 0.0
C612 C 0.52472 0.10392 0.46463 0.0
C613 C 0.50371 0.07579 0.4725 0.0
N614 N 0.46172 0.04266 0.40106 0.0
N615 N 0.52899 0.16007 0.41497 0.0
C616 C 0.48329 0.06838 0.3983 0.0
C617 C 0.51784 0.12876 0.40118 0.0
N618 N 0.47309 0.07716 0.24258 0.0
N619 N 0.55341 0.10558 0.51076 0.0
H620 H 0.52309 0.17963 0.374 0.0
H621 H 0.54124 0.16692 0.4725 0.0
H622 H 0.56124 0.08648 0.5509 0.0
H623 H 0.57116 0.12381 0.49944 0.0
H624 H 0.46568 0.05284 0.23269 0.0
H625 H 0.47482 0.09076 0.18472 0.0
H626 H 0.4444 0.03836 0.3519 0.0
H627 H 0.4579 0.0285 0.45674 0.0
C628 C 0.42946 0.45755 0.36404 0.0
C629 C 0.40769 0.48207 0.3312 0.0
C630 C 0.42888 0.51944 0.44666 0.0
C631 C 0.44804 0.49392 0.48617 0.0
N632 N 0.45816 0.43545 0.48932 0.0
N633 N 0.4123 0.54019 0.30615 0.0
C634 C 0.44616 0.46217 0.44628 0.0
C635 C 0.4142 0.51434 0.36253 0.0
N636 N 0.43886 0.43234 0.31068 0.0
N637 N 0.42322 0.54861 0.48829 0.0
H638 H 0.40896 0.53646 0.23888 0.0
H639 H 0.4195 0.56401 0.3236 0.0
H640 H 0.43169 0.55471 0.55047 0.0
H641 H 0.40709 0.56602 0.46259 0.0
H642 H 0.45726 0.41576 0.32781 0.0
H643 H 0.43239 0.43149 0.24455 0.0
H644 H 0.45334 0.4116 0.46767 0.0
H645 H 0.46858 0.4366 0.55178 0.0
C646 C 0.07293 0.42962 0.35767 0.0
C647 C 0.05099 0.40317 0.33739 0.0
C648 C 0.01375 0.42367 0.45369 0.0
C649 C 0.03766 0.44766 0.4829 0.0
N650 N 0.09491 0.46527 0.47122 0.0
N651 N 1.00482 0.3703 0.38655 0.0
C652 C 0.06857 0.44851 0.43688 0.0
C653 C 0.02271 0.39887 0.39134 0.0
N654 N 0.09801 0.43704 0.30098 0.0
N655 N 0.98174 0.42475 0.48153 0.0
H656 H 0.01079 0.35098 0.34444 0.0
H657 H 0.9863 0.36434 0.43151 0.0
H658 H 0.97243 0.44265 0.52274 0.0
H659 H 0.96318 0.40998 0.4546 0.0
H660 H 0.1127 0.45806 0.30747 0.0
H661 H 0.10195 0.42396 0.24291 0.0
H662 H 0.11856 0.4641 0.44443 0.0
H663 H 0.09446 0.47694 0.53202 0.0
C664 C 0.89672 0.0204 0.94572 0.0
C665 C 0.89867 0.99621 0.01217 0.0
C666 C 0.94773 0.97308 0.93646 0.0
C667 C 0.94791 0.99972 0.87538 0.0
N668 N 0.92611 0.05342 0.84021 0.0
N669 N 0.9277 0.95085 0.0757 0.0
C670 C 0.92318 0.02447 0.88472 0.0
C671 C 0.92471 0.97293 0.00888 0.0
N672 N 0.86936 0.03979 0.94047 0.0
N673 N 0.96857 0.94726 0.92378 0.0
H674 H 0.91086 0.9495 0.12751 0.0
H675 H 0.94773 0.9352 0.08247 0.0
H676 H 0.98554 0.94627 0.8725 0.0
H677 H 0.96732 0.92554 0.95961 0.0
H678 H 0.86466 0.05508 0.88719 0.0
H679 H 0.84978 0.03831 0.98485 0.0
H680 H 0.911 0.07361 0.85139 0.0
H681 H 0.94626 0.05905 0.80091 0.0
C682 C 0.50194 0.92802 0.0372 0.0
C683 C 0.5241 0.90112 0.03341 0.0
C684 C 0.55021 0.92732 0.90425 0.0
C685 C 0.52456 0.95113 0.89922 0.0
N686 N 0.47078 0.967 0.95259 0.0
N687 N 0.56633 0.87282 0.95178 0.0
C688 C 0.49917 0.94979 0.96409 0.0
C689 C 0.54749 0.90016 0.96378 0.0
N690 N 0.48345 0.93301 0.111 0.0
N691 N 0.57801 0.93127 0.85494 0.0
H692 H 0.56504 0.85248 0.99316 0.0
H693 H 0.58098 0.86925 0.89627 0.0
H694 H 0.58195 0.95212 0.81713 0.0
H695 H 0.59865 0.91629 0.86068 0.0
H696 H 0.46923 0.95399 0.12027 0.0
H697 H 0.48522 0.91809 0.16643 0.0
H698 H 0.45034 0.96463 0.99381 0.0
H699 H 0.46599 0.97998 0.89548 0.0
C700 C 0.62392 0.49967 0.9785 0.0
C701 C 0.62666 0.52758 0.0341 0.0
C702 C 0.58183 0.55393 0.94935 0.0
C703 C 0.57724 0.52481 0.89722 0.0
N704 N 0.58889 0.4665 0.88562 0.0
N705 N 0.60364 0.57868 0.08348 0.0
C706 C 0.597 0.49681 0.91829 0.0
C707 C 0.6041 0.55382 0.02301 0.0
N708 N 0.64709 0.47544 0.98298 0.0
N709 N 0.56653 0.58246 0.92673 0.0
H710 H 0.62025 0.58004 0.13573 0.0
H711 H 0.58518 0.59636 0.08596 0.0
H712 H 0.55019 0.58446 0.87475 0.0
H713 H 0.5722 0.60509 0.95532 0.0
H714 H 0.64898 0.45677 0.93626 0.0
H715 H 0.66609 0.47528 0.02912 0.0
H716 H 0.59994 0.44483 0.90641 0.0
H717 H 0.56843 0.46216 0.84643 0.0
C718 C 0.018 0.59434 0.0441 0.0
C719 C 0.99396 0.61954 0.03988 0.0
C720 C 0.96993 0.59131 0.90999 0.0
C721 C 0.99742 0.5697 0.90525 0.0
N722 N 0.04946 0.553 0.96701 0.0
N723 N 0.94804 0.64329 0.96298 0.0
C724 C 0.02186 0.57185 0.97241 0.0
C725 C 0.96989 0.61811 0.97184 0.0
N726 N 0.03683 0.59141 0.11808 0.0
N727 N 0.94372 0.58627 0.85536 0.0
H728 H 0.94716 0.6631 1.00648 0.0
H729 H 0.93249 0.64578 0.90902 0.0
H730 H 0.94343 0.56765 0.80837 0.0
H731 H 0.92149 0.5988 0.86109 0.0
H732 H 0.05242 0.57163 0.12952 0.0
H733 H 0.03407 0.60684 0.17245 0.0
H734 H 0.06999 0.55624 1.00732 0.0
H735 H 0.05268 0.53538 0.91839 0.0
C736 C 0.98289 0.20357 0.4419 0.0
C737 C 0.99088 0.19689 0.35286 0.0
C738 C 0.95007 0.15244 0.34699 0.0
C739 C 0.94063 0.16034 0.43427 0.0
N740 N 0.94926 0.19 0.56953 0.0
N741 N 0.98002 0.16842 0.21622 0.0
C742 C 0.95734 0.18509 0.48315 0.0
C743 C 0.97414 0.17205 0.30435 0.0
N744 N 0.99928 0.22823 0.48544 0.0
N745 N 0.93692 0.12531 0.30616 0.0
H746 H 0.99791 0.18183 0.18213 0.0
H747 H 0.96567 0.15374 0.17493 0.0
H748 H 0.91822 0.11084 0.3335 0.0
H749 H 0.94609 0.11557 0.24781 0.0
H750 H 0.99302 0.23689 0.54749 0.0
H751 H 0.01932 0.24087 0.45825 0.0
H752 H 0.96195 0.2056 0.61207 0.0
H753 H 0.9299 0.17754 0.60044 0.0
C754 C 0.29503 0.02915 0.38032 0.0
C755 C 0.30128 0.06357 0.38049 0.0
C756 C 0.3573 0.05494 0.4318 0.0
C757 C 0.35288 0.02068 0.41689 0.0
N758 N 0.31604 0.97429 0.40835 0.0
N759 N 0.33213 0.1091 0.43691 0.0
C760 C 0.32101 0.00747 0.40236 0.0
C761 C 0.33033 0.0763 0.4183 0.0
N762 N 0.2652 0.01732 0.35235 0.0
N763 N 0.38759 0.06704 0.45415 0.0
H764 H 0.31208 0.12455 0.42574 0.0
H765 H 0.35185 0.12028 0.46933 0.0
H766 H 0.40662 0.05164 0.47269 0.0
H767 H 0.39379 0.0919 0.45487 0.0
H768 H 0.26045 0.99271 0.33808 0.0
H769 H 0.24492 0.03243 0.3429 0.0
H770 H 0.29295 0.963 0.4049 0.0
H771 H 0.33502 0.95816 0.42427 0.0
C772 C 0.51322 0.36097 0.26238 0.0
C773 C 0.48561 0.34641 0.30529 0.0
C774 C 0.5055 0.36571 0.44743 0.0
C775 C 0.53438 0.37783 0.40541 0.0
N776 N 0.56044 0.39765 0.27319 0.0
N777 N 0.45012 0.343 0.43091 0.0
C778 C 0.53634 0.37918 0.31274 0.0
C779 C 0.4799 0.35182 0.39557 0.0
N780 N 0.51891 0.35509 0.17527 0.0
N781 N 0.50309 0.36662 0.53669 0.0
H782 H 0.43116 0.3331 0.39242 0.0
H783 H 0.44313 0.34803 0.49533 0.0
H784 H 0.52053 0.37863 0.57507 0.0
H785 H 0.48453 0.35499 0.5726 0.0
H786 H 0.54084 0.36131 0.14343 0.0
H787 H 0.50243 0.34234 0.1353 0.0
H788 H 0.56103 0.40232 0.20597 0.0
H789 H 0.57812 0.41092 0.30858 0.0
C790 C 0.20284 0.55579 0.38473 0.0
C791 C 0.20511 0.52311 0.4167 0.0
C792 C 0.18316 0.54048 0.55814 0.0
C793 C 0.17618 0.57165 0.52211 0.0
N794 N 0.17637 0.60874 0.39878 0.0
N795 N 0.19374 0.48307 0.52942 0.0
C796 C 0.1854 0.57942 0.43483 0.0
C797 C 0.1945 0.51509 0.5025 0.0
N798 N 0.21797 0.56437 0.30768 0.0
N799 N 0.17945 0.53541 0.64605 0.0
H800 H 0.20182 0.46365 0.49021 0.0
H801 H 0.18234 0.47559 0.58741 0.0
H802 H 0.17105 0.55374 0.6883 0.0
H803 H 0.18823 0.51453 0.67742 0.0
H804 H 0.21992 0.58854 0.28578 0.0
H805 H 0.23119 0.54776 0.26923 0.0
H806 H 0.1789 0.61408 0.33222 0.0
H807 H 0.16431 0.62703 0.43436 0.0
C808 C 0.07545 0.87665 0.18136 0.0
C809 C 0.09699 0.84921 0.17955 0.0
C810 C 0.13901 0.8815 0.10304 0.0
C811 C 0.11715 0.9086 0.10169 0.0
N812 N 0.06821 0.93506 0.15635 0.0
N813 N 0.15033 0.82598 0.14645 0.0
C814 C 0.08655 0.90714 0.14686 0.0
C815 C 0.12926 0.85206 0.1446 0.0
N816 N 0.04381 0.873 0.21158 0.0
N817 N 0.16887 0.88238 0.06186 0.0
H818 H 0.14419 0.80346 0.17493 0.0
H819 H 0.17415 0.82718 0.12034 0.0
H820 H 0.17816 0.90267 0.02784 0.0
H821 H 0.17816 0.90267 0.02784 0.0
H822 H 0.02564 0.89077 0.20517 0.0
H823 H 0.03496 0.85128 0.23948 0.0
H824 H 0.04729 0.93662 0.19585 0.0
H825 H 0.07573 0.95776 0.13123 0.0
C826 C 0.65619 0.09209 0.14336 0.0
C827 C 0.68584 0.10463 0.10635 0.0
C828 C 0.65392 0.1364 1.0001 0.0
C829 C 0.62436 0.126 0.04248 0.0
N830 N 0.59789 0.10053 0.16738 0.0
N831 N 0.71353 0.14233 0.00879 0.0
C832 C 0.62568 0.10586 0.11819 0.0
C833 C 0.6849 0.12798 0.0375 0.0
N834 N 0.65701 0.06597 0.19962 0.0
N835 N 0.65243 0.15306 0.92237 0.0
H836 H 0.73662 0.13624 0.034 0.0
H837 H 0.71421 0.16201 0.9652 0.0
H838 H 0.63027 0.15932 0.89222 0.0
H839 H 0.67307 0.15836 0.88401 0.0
H840 H 0.63584 0.05351 0.22037 0.0
H841 H 0.67886 0.05468 0.21889 0.0
H842 H 0.59821 0.08872 0.22804 0.0
H843 H 0.57511 0.11084 0.15205 0.0
C844 C 0.3856 0.67304 0.14361 0.0
C845 C 0.41717 0.67593 0.1825 0.0
C846 C 0.42819 0.61797 0.15102 0.0
C847 C 0.39852 0.61648 0.10194 0.0
N848 N 0.3472 0.64219 0.05781 0.0
N849 N 0.46943 0.65209 0.22276 0.0
C850 C 0.37656 0.64347 0.1012 0.0
C851 C 0.43854 0.64844 0.18758 0.0
N852 N 0.36455 0.69913 0.14319 0.0
N853 N 0.44636 0.59012 0.16211 0.0
H854 H 0.47767 0.67392 0.2516 0.0
H855 H 0.48765 0.63424 0.21973 0.0
H856 H 0.43928 0.5676 0.13503 0.0
H857 H 0.46656 0.58843 0.20395 0.0
H858 H 0.34127 0.69796 0.11393 0.0
H859 H 0.37018 0.72156 0.17327 0.0
H860 H 0.33844 0.62158 0.02392 0.0
H861 H 0.33844 0.62158 0.02392 0.0
C862 C 0.78743 0.44027 0.88585 0.0
C863 C 0.78888 0.42121 0.96339 0.0
C864 C 0.83031 0.38575 0.8964 0.0
C865 C 0.83412 0.40916 0.82844 0.0
N866 N 0.81539 0.45741 0.75235 0.0
N867 N 0.809 0.37428 0.04231 0.0
C868 C 0.8118 0.43562 0.81995 0.0
C869 C 0.80895 0.39292 0.96775 0.0
N870 N 0.76321 0.46321 0.87699 0.0
N871 N 0.84775 0.35715 0.89288 0.0
H872 H 0.79269 0.37839 0.09422 0.0
H873 H 0.82583 0.35563 0.05432 0.0
H874 H 0.86355 0.35166 0.84071 0.0
H875 H 0.84451 0.33784 0.93682 0.0
H876 H 0.75907 0.47638 0.81957 0.0
H877 H 0.74527 0.46694 0.92523 0.0
H878 H 0.8024 0.4793 0.74775 0.0
H879 H 0.83251 0.45417 0.70189 0.0
C880 C 0.02939 0.16949 0.75873 0.0
C881 C 0.02968 0.17185 0.85187 0.0
C882 C 0.01217 0.11336 0.85845 0.0
C883 C 0.01664 0.10914 0.76522 0.0
N884 N 0.03095 0.13588 0.62744 0.0
N885 N 0.02511 0.14439 0.99102 0.0
C886 C 0.02535 0.13805 0.71567 0.0
C887 C 0.02198 0.14334 0.90154 0.0
N888 N 0.0318 0.19774 0.71065 0.0
N889 N 0.99705 0.08937 0.90688 0.0
H890 H 0.03253 0.16539 0.02533 0.0
H891 H 0.02314 0.12378 0.03113 0.0
H892 H 0.98955 0.06686 0.88187 0.0
H893 H 0.98894 0.09291 0.97114 0.0
H894 H 0.02786 0.19873 0.64317 0.0
H895 H 0.03484 0.22086 0.73942 0.0
H896 H 0.04283 0.15419 0.59138 0.0
H897 H 0.02499 0.11558 0.58954 0.0
C898 C 0.36197 0.02963 0.77947 0.0
C899 C 0.35796 0.03756 0.86992 0.0
C900 C 0.41918 0.03796 0.88417 0.0
C901 C 0.4229 0.0308 0.79278 0.0
N902 N 0.39715 0.03371 0.65155 0.0
N903 N 0.38365 0.05637 1.00386 0.0
C904 C 0.39408 0.03044 0.74005 0.0
C905 C 0.3869 0.04356 0.92118 0.0
N906 N 0.33514 0.02042 0.7308 0.0
N907 N 0.44659 0.03981 0.93588 0.0
H908 H 0.36083 0.06137 0.03245 0.0
H909 H 0.40341 0.06472 0.04164 0.0
H910 H 0.47028 0.03847 0.91008 0.0
H911 H 0.44592 0.04071 1.0042 0.0
H912 H 0.33708 0.01132 0.6669 0.0
H913 H 0.31139 0.01883 0.75709 0.0
H914 H 0.37691 0.03819 0.61137 0.0
H915 H 0.42003 0.03599 0.62055 0.0
C916 C 0.49588 0.38173 0.91039 0.0
C917 C 0.50675 0.35374 0.86288 0.0
C918 C 0.53155 0.39167 0.75336 0.0
C919 C 0.51644 0.4194 0.7939 0.0
N920 N 0.50713 0.43861 0.94244 0.0
N921 N 0.53455 0.33225 0.73555 0.0
C922 C 0.50471 0.41407 0.88151 0.0
C923 C 0.52442 0.35881 0.78321 0.0
N924 N 0.47652 0.37771 0.98313 0.0
N925 N 0.55714 0.39686 0.69729 0.0
H926 H 0.53102 0.30812 0.75678 0.0
H927 H 0.54445 0.33416 0.67254 0.0
H928 H 0.56678 0.42022 0.68819 0.0
H929 H 0.57187 0.37816 0.67224 0.0
H930 H 0.46573 0.39737 0.01613 0.0
H931 H 0.46884 0.3547 1.00565 0.0
H932 H 0.50221 0.43497 0.00895 0.0
H933 H 0.51933 0.46074 0.93025 0.0
C934 C 0.15785 0.52206 0.85451 0.0
C935 C 0.17269 0.49036 0.85625 0.0
C936 C 0.12759 0.47126 0.75679 0.0
C937 C 0.10901 0.50001 0.77527 0.0
N938 N 0.10866 0.55476 0.83611 0.0
N939 N 0.1818 0.44639 0.753 0.0
C940 C 0.12472 0.52584 0.82316 0.0
C941 C 0.16034 0.46771 0.79183 0.0
N942 N 0.17736 0.54932 0.86333 0.0
N943 N 0.11417 0.44732 0.70472 0.0
H944 H 0.20719 0.448 0.76389 0.0
H945 H 0.17557 0.43082 0.70117 0.0
H946 H 0.09145 0.44996 0.6736 0.0
H947 H 0.12469 0.42425 0.69633 0.0
H948 H 0.1687 0.57325 0.85707 0.0
H949 H 0.20298 0.54774 0.85781 0.0
H950 H 0.11726 0.57294 0.87891 0.0
H951 H 0.08589 0.55966 0.8078 0.0
C952 C 0.97431 0.86753 0.57656 0.0
C953 C 0.99452 0.85815 0.50412 0.0
C954 C 0.01804 0.9142 0.50341 0.0
C955 C 1.00172 0.9224 0.58313 0.0
N956 N 0.96582 0.90457 0.70039 0.0
N957 N 0.04221 0.87114 0.41548 0.0
C958 C 0.98019 0.89836 0.621 0.0
C959 C 0.01825 0.8811 0.4725 0.0
N960 N 0.94878 0.8475 0.60129 0.0
N961 N 0.03141 0.9384 0.45286 0.0
H962 H 0.04448 0.8468 0.39485 0.0
H963 H 0.06182 0.88634 0.39675 0.0
H964 H 0.02982 0.9631 0.47013 0.0
H965 H 0.04032 0.93419 0.3895 0.0
H966 H 0.93098 0.85431 0.64712 0.0
H967 H 0.94376 0.82513 0.57024 0.0
H968 H 0.95282 0.88693 0.73615 0.0
H969 H 0.96901 0.92675 0.73369 0.0
C970 C 0.65591 0.9809 0.5485 0.0
C971 C 0.66534 1.00407 0.4829 0.0
C972 C 0.60902 0.02656 0.48754 0.0
C973 C 0.60082 0.0071 0.56211 0.0
N974 N 0.6157 0.96282 0.65764 0.0
N975 N 0.6524 0.0541 0.40627 0.0
C976 C 0.62432 0.98364 0.59141 0.0
C977 C 0.64231 0.02834 0.45724 0.0
N978 N 0.67651 0.95536 0.56673 0.0
N979 N 0.58485 0.04192 0.44145 0.0
H980 H 0.67673 0.05706 0.38506 0.0
H981 H 0.6374 0.07422 0.39314 0.0
H982 H 0.56002 0.039 0.4564 0.0
H983 H 0.58917 0.05398 0.38215 0.0
H984 H 0.67032 0.9358 0.60756 0.0
H985 H 0.69934 0.9525 0.53602 0.0
H986 H 0.63226 0.94803 0.69124 0.0
H987 H 0.59135 0.96057 0.67865 0.0
C988 C 0.49986 0.64437 0.48366 0.0
C989 C 0.52512 0.66719 0.5067 0.0
C990 C 0.54276 0.62864 0.62317 0.0
C991 C 0.5196 0.60437 0.59356 0.0
N992 N 0.48441 0.58716 0.47438 0.0
N993 N 0.57468 0.67796 0.58911 0.0
C994 C 0.50038 0.61177 0.51806 0.0
C995 C 0.54774 0.65841 0.57392 0.0
N996 N 0.47441 0.65401 0.43122 0.0
N997 N 0.55943 0.6239 0.69981 0.0
H998 H 0.57911 0.69964 0.55443 0.0
H999 H 0.59406 0.67119 0.63 0.0
H1000 H 0.55665 0.60277 0.73733 0.0
H1001 H 0.5739 0.64198 0.72971 0.0
H1002 H 0.45387 0.63912 0.41878 0.0
H1003 H 0.47215 0.678 0.40812 0.0
H1004 H 0.47303 0.59056 0.4137 0.0
H1005 H 0.48648 0.5627 0.49307 0.0
C1006 C 0.8935 0.50712 0.44078 0.0
C1007 C 0.86409 0.51302 0.48964 0.0
C1008 C 0.89748 0.51692 0.6252 0.0
C1009 C 0.92698 0.51023 0.57756 0.0
N1010 N 0.95244 0.49575 0.44002 0.0
N1011 N 0.83871 0.52573 0.62892 0.0
C1012 C 0.92474 0.50462 0.48514 0.0
C1013 C 0.86643 0.51858 0.58162 0.0
N1014 N 0.89161 0.50431 0.35138 0.0
N1015 N 0.89782 0.52085 0.71394 0.0
H1016 H 0.81547 0.52814 0.60028 0.0
H1017 H 0.8392 0.52997 0.69658 0.0
H1018 H 0.91895 0.51896 0.7525 0.0
H1019 H 0.91895 0.51896 0.7525 0.0
H1020 H 0.912 0.50408 0.30984 0.0
H1021 H 0.86931 0.50416 0.31732 0.0
H1022 H 0.95257 0.48734 0.37547 0.0
H1023 H 0.97568 0.49526 0.46897 0.0
loop_
_geom_bond_atom_site_label_1
_geom_bond_atom_site_label_2
_geom_bond_distance
_geom_bond_site_symmetry_2
_ccdc_geom_bond_type
P0 O11 1.490 . S
P0 C14 1.812 . S
P0 C20 1.803 . S
P0 C26 1.819 . S
H1 C15 0.941 . S
H2 C16 0.939 . S
H3 C18 0.940 . S
H4 C19 0.940 . S
H5 C21 0.939 . S
H6 C22 0.942 . S
H7 C24 0.940 . S
H8 C25 0.939 . S
H9 C27 0.941 . S
H10 C31 0.939 . S
O11 P0 1.490 . S
H12 C28 0.939 . S
H13 C30 0.940 . S
C14 P0 1.812 . S
C14 C15 1.389 . S
C14 C19 1.391 . S
C15 H1 0.941 . S
C15 C14 1.389 . S
C15 C16 1.397 . S
C16 H2 0.939 . S
C16 C15 1.397 . S
C16 C17 1.378 . S
C17 C16 1.378 . S
C17 C18 1.378 . S
C18 H3 0.940 . S
C18 C17 1.378 . S
C18 C19 1.396 . S
C19 H4 0.940 . S
C19 C14 1.391 . S
C19 C18 1.396 . S
C20 P0 1.803 . S
C20 C21 1.378 . S
C20 C25 1.400 . S
C21 H5 0.939 . S
C21 C20 1.378 . S
C21 C22 1.361 . S
C22 H6 0.942 . S
C22 C21 1.361 . S
C22 C23 1.369 . S
C23 C22 1.369 . S
C23 C24 1.404 . S
C24 H7 0.940 . S
C24 C23 1.404 . S
C24 C25 1.389 . S
C25 H8 0.939 . S
C25 C20 1.400 . S
C25 C24 1.389 . S
C26 P0 1.819 . S
C26 C27 1.391 . S
C26 C31 1.391 . S
C27 H9 0.941 . S
C27 C26 1.391 . S
C27 C28 1.396 . S
C28 H12 0.939 . S
C28 C27 1.396 . S
C28 C29 1.397 . S
C29 C28 1.397 . S
C29 C30 1.385 . S
C30 H13 0.940 . S
C30 C29 1.385 . S
C30 C31 1.388 . S
C31 H10 0.939 . S
C31 C26 1.391 . S
C31 C30 1.388 . S
P32 O43 1.490 . S
P32 C46 1.812 . S
P32 C52 1.803 . S
P32 C58 1.819 . S
H33 C47 0.941 . S
H34 C48 0.939 . S
H35 C50 0.940 . S
H36 C51 0.940 . S
H37 C53 0.939 . S
H38 C54 0.942 . S
H39 C56 0.940 . S
H40 C57 0.939 . S
H41 C59 0.941 . S
H42 C63 0.939 . S
O43 P32 1.490 . S
H44 C60 0.939 . S
H45 C62 0.940 . S
C46 P32 1.812 . S
C46 C47 1.389 . S
C46 C51 1.391 1_455 S
C47 H33 0.941 . S
C47 C46 1.389 . S
C47 C48 1.397 . S
C48 H34 0.939 . S
C48 C47 1.397 . S
C48 C49 1.378 1_455 S
C49 C48 1.378 1_655 S
C49 C50 1.378 . S
C50 H35 0.940 . S
C50 C49 1.378 . S
C50 C51 1.396 . S
C51 H36 0.940 . S
C51 C46 1.391 1_655 S
C51 C50 1.396 . S
C52 P32 1.803 . S
C52 C53 1.378 . S
C52 C57 1.400 1_455 S
C53 H37 0.939 . S
C53 C52 1.378 . S
C53 C54 1.361 . S
C54 H38 0.942 . S
C54 C53 1.361 . S
C54 C55 1.369 1_455 S
C55 C54 1.369 1_655 S
C55 C56 1.404 . S
C56 H39 0.940 . S
C56 C55 1.404 . S
C56 C57 1.389 . S
C57 H40 0.939 . S
C57 C52 1.400 1_655 S
C57 C56 1.389 . S
C58 P32 1.819 . S
C58 C59 1.391 . S
C58 C63 1.391 1_455 S
C59 H41 0.941 . S
C59 C58 1.391 . S
C59 C60 1.396 . S
C60 H44 0.939 . S
C60 C59 1.396 . S
C60 C61 1.397 1_455 S
C61 C60 1.397 1_655 S
C61 C62 1.385 . S
C62 H45 0.940 . S
C62 C61 1.385 . S
C62 C63 1.388 . S
C63 H42 0.939 . S
C63 C58 1.391 1_655 S
C63 C62 1.388 . S
P64 O75 1.490 . S
P64 C78 1.812 . S
P64 C84 1.803 . S
P64 C90 1.819 . S
H65 C79 0.941 . S
H66 C80 0.939 . S
H67 C82 0.940 . S
H68 C83 0.940 . S
H69 C85 0.939 . S
H70 C86 0.942 . S
H71 C88 0.940 . S
H72 C89 0.939 . S
H73 C91 0.941 . S
H74 C95 0.939 . S
O75 P64 1.490 . S
H76 C92 0.939 . S
H77 C94 0.940 . S
C78 P64 1.812 . S
C78 C79 1.389 . S
C78 C83 1.391 1_545 S
C79 H65 0.941 . S
C79 C78 1.389 . S
C79 C80 1.397 . S
C80 H66 0.939 . S
C80 C79 1.397 . S
C80 C81 1.378 1_545 S
C81 C80 1.378 1_565 S
C81 C82 1.378 . S
C82 H67 0.940 . S
C82 C81 1.378 . S
C82 C83 1.396 . S
C83 H68 0.940 . S
C83 C78 1.391 1_565 S
C83 C82 1.396 . S
C84 P64 1.803 . S
C84 C85 1.378 . S
C84 C89 1.400 1_545 S
C85 H69 0.939 . S
C85 C84 1.378 . S
C85 C86 1.361 . S
C86 H70 0.942 . S
C86 C85 1.361 . S
C86 C87 1.369 1_545 S
C87 C86 1.369 1_565 S
C87 C88 1.404 . S
C88 H71 0.940 . S
C88 C87 1.404 . S
C88 C89 1.389 . S
C89 H72 0.939 . S
C89 C84 1.400 1_565 S
C89 C88 1.389 . S
C90 P64 1.819 . S
C90 C91 1.391 . S
C90 C95 1.391 1_545 S
C91 H73 0.941 . S
C91 C90 1.391 . S
C91 C92 1.396 . S
C92 H76 0.939 . S
C92 C91 1.396 . S
C92 C93 1.397 1_545 S
C93 C92 1.397 1_565 S
C93 C94 1.385 . S
C94 H77 0.940 . S
C94 C93 1.385 . S
C94 C95 1.388 . S
C95 H74 0.939 . S
C95 C90 1.391 1_565 S
C95 C94 1.388 . S
P96 O107 1.490 . S
P96 C110 1.812 . S
P96 C116 1.803 . S
P96 C122 1.819 . S
H97 C111 0.941 . S
H98 C112 0.939 . S
H99 C114 0.940 . S
H100 C115 0.940 . S
H101 C117 0.939 . S
H102 C118 0.942 . S
H103 C120 0.940 . S
H104 C121 0.939 . S
H105 C123 0.941 . S
H106 C127 0.939 . S
O107 P96 1.490 . S
H108 C124 0.939 . S
H109 C126 0.940 . S
C110 P96 1.812 . S
C110 C111 1.389 . S
C110 C115 1.391 . S
C111 H97 0.941 . S
C111 C110 1.389 . S
C111 C112 1.397 . S
C112 H98 0.939 . S
C112 C111 1.397 . S
C112 C113 1.378 . S
C113 C112 1.378 . S
C113 C114 1.378 . S
C114 H99 0.940 . S
C114 C113 1.378 . S
C114 C115 1.396 . S
C115 H100 0.940 . S
C115 C110 1.391 . S
C115 C114 1.396 . S
C116 P96 1.803 . S
C116 C117 1.378 . S
C116 C121 1.400 . S
C117 H101 0.939 . S
C117 C116 1.378 . S
C117 C118 1.361 . S
C118 H102 0.942 . S
C118 C117 1.361 . S
C118 C119 1.369 . S
C119 C118 1.369 . S
C119 C120 1.404 . S
C120 H103 0.940 . S
C120 C119 1.404 . S
C120 C121 1.389 . S
C121 H104 0.939 . S
C121 C116 1.400 . S
C121 C120 1.389 . S
C122 P96 1.819 . S
C122 C123 1.391 . S
C122 C127 1.391 . S
C123 H105 0.941 . S
C123 C122 1.391 . S
C123 C124 1.396 . S
C124 H108 0.939 . S
C124 C123 1.396 . S
C124 C125 1.397 . S
C125 C124 1.397 . S
C125 C126 1.385 . S
C126 H109 0.940 . S
C126 C125 1.385 . S
C126 C127 1.388 . S
C127 H106 0.939 . S
C127 C122 1.391 . S
C127 C126 1.388 . S
P128 O139 1.490 . S
P128 C142 1.812 1_554 S
P128 C148 1.803 . S
P128 C154 1.819 . S
H129 C143 0.941 . S
H130 C144 0.939 . S
H131 C146 0.940 . S
H132 C147 0.940 . S
H133 C149 0.939 . S
H134 C150 0.942 . S
H135 C152 0.940 . S
H136 C153 0.939 . S
H137 C155 0.941 . S
H138 C159 0.939 . S
O139 P128 1.490 . S
H140 C156 0.939 . S
H141 C158 0.940 . S
C142 P128 1.812 1_556 S
C142 C143 1.389 . S
C142 C147 1.391 . S
C143 H129 0.941 . S
C143 C142 1.389 . S
C143 C144 1.397 . S
C144 H130 0.939 . S
C144 C143 1.397 . S
C144 C145 1.378 . S
C145 C144 1.378 . S
C145 C146 1.378 . S
C146 H131 0.940 . S
C146 C145 1.378 . S
C146 C147 1.396 . S
C147 H132 0.940 . S
C147 C142 1.391 . S
C147 C146 1.396 . S
C148 P128 1.803 . S
C148 C149 1.378 . S
C148 C153 1.400 . S
C149 H133 0.939 . S
C149 C148 1.378 . S
C149 C150 1.361 . S
C150 H134 0.942 . S
C150 C149 1.361 . S
C150 C151 1.369 . S
C151 C150 1.369 . S
C151 C152 1.404 . S
C152 H135 0.940 . S
C152 C151 1.404 . S
C152 C153 1.389 . S
C153 H136 0.939 . S
C153 C148 1.400 . S
C153 C152 1.389 . S
C154 P128 1.819 . S
C154 C155 1.391 . S
C154 C159 1.391 . S
C155 H137 0.941 . S
C155 C154 1.391 . S
C155 C156 1.396 . S
C156 H140 0.939 . S
C156 C155 1.396 . S
C156 C157 1.397 . S
C157 C156 1.397 . S
C157 C158 1.385 . S
C158 H141 0.940 . S
C158 C157 1.385 . S
C158 C159 1.388 . S
C159 H138 0.939 . S
C159 C154 1.391 . S
C159 C158 1.388 . S
P160 O171 1.490 . S
P160 C174 1.812 1_554 S
P160 C180 1.803 . S
P160 C186 1.819 . S
H161 C175 0.941 . S
H162 C176 0.939 . S
H163 C178 0.940 . S
H164 C179 0.940 . S
H165 C181 0.939 . S
H166 C182 0.942 . S
H167 C184 0.940 . S
H168 C185 0.939 . S
H169 C187 0.941 . S
H170 C191 0.939 . S
O171 P160 1.490 . S
H172 C188 0.939 . S
H173 C190 0.940 . S
C174 P160 1.812 1_556 S
C174 C175 1.389 . S
C174 C179 1.391 . S
C175 H161 0.941 . S
C175 C174 1.389 . S
C175 C176 1.397 . S
C176 H162 0.939 . S
C176 C175 1.397 . S
C176 C177 1.378 . S
C177 C176 1.378 . S
C177 C178 1.378 . S
C178 H163 0.940 . S
C178 C177 1.378 . S
C178 C179 1.396 . S
C179 H164 0.940 . S
C179 C174 1.391 . S
C179 C178 1.396 . S
C180 P160 1.803 . S
C180 C181 1.378 . S
C180 C185 1.400 . S
C181 H165 0.939 . S
C181 C180 1.378 . S
C181 C182 1.361 . S
C182 H166 0.942 . S
C182 C181 1.361 . S
C182 C183 1.369 . S
C183 C182 1.369 . S
C183 C184 1.404 . S
C184 H167 0.940 . S
C184 C183 1.404 . S
C184 C185 1.389 . S
C185 H168 0.939 . S
C185 C180 1.400 . S
C185 C184 1.389 . S
C186 P160 1.819 . S
C186 C187 1.391 . S
C186 C191 1.391 . S
C187 H169 0.941 . S
C187 C186 1.391 . S
C187 C188 1.396 . S
C188 H172 0.939 . S
C188 C187 1.396 . S
C188 C189 1.397 . S
C189 C188 1.397 . S
C189 C190 1.385 . S
C190 H173 0.940 . S
C190 C189 1.385 . S
C190 C191 1.388 . S
C191 H170 0.939 . S
C191 C186 1.391 . S
C191 C190 1.388 . S
P192 O203 1.490 . S
P192 C206 1.812 1_554 S
P192 C212 1.803 . S
P192 C218 1.819 . S
H193 C207 0.941 . S
H194 C208 0.939 . S
H195 C210 0.940 . S
H196 C211 0.940 . S
H197 C213 0.939 . S
H198 C214 0.942 . S
H199 C216 0.940 . S
H200 C217 0.939 . S
H201 C219 0.941 . S
H202 C223 0.939 . S
O203 P192 1.490 . S
H204 C220 0.939 . S
H205 C222 0.940 . S
C206 P192 1.812 1_556 S
C206 C207 1.389 . S
C206 C211 1.391 . S
C207 H193 0.941 . S
C207 C206 1.389 . S
C207 C208 1.397 . S
C208 H194 0.939 . S
C208 C207 1.397 . S
C208 C209 1.378 . S
C209 C208 1.378 . S
C209 C210 1.378 . S
C210 H195 0.940 . S
C210 C209 1.378 . S
C210 C211 1.396 . S
C211 H196 0.940 . S
C211 C206 1.391 . S
C211 C210 1.396 . S
C212 P192 1.803 . S
C212 C213 1.378 . S
C212 C217 1.400 . S
C213 H197 0.939 . S
C213 C212 1.378 . S
C213 C214 1.361 . S
C214 H198 0.942 . S
C214 C213 1.361 . S
C214 C215 1.369 . S
C215 C214 1.369 . S
C215 C216 1.404 . S
C216 H199 0.940 . S
C216 C215 1.404 . S
C216 C217 1.389 . S
C217 H200 0.939 . S
C217 C212 1.400 . S
C217 C216 1.389 . S
C218 P192 1.819 . S
C218 C219 1.391 . S
C218 C223 1.391 . S
C219 H201 0.941 . S
C219 C218 1.391 . S
C219 C220 1.396 . S
C220 H204 0.939 . S
C220 C219 1.396 . S
C220 C221 1.397 . S
C221 C220 1.397 . S
C221 C222 1.385 . S
C222 H205 0.940 . S
C222 C221 1.385 . S
C222 C223 1.388 . S
C223 H202 0.939 . S
C223 C218 1.391 . S
C223 C222 1.388 . S
P224 O235 1.490 . S
P224 C238 1.812 1_554 S
P224 C244 1.803 . S
P224 C250 1.819 . S
H225 C239 0.941 . S
H226 C240 0.939 . S
H227 C242 0.940 . S
H228 C243 0.940 . S
H229 C245 0.939 . S
H230 C246 0.942 . S
H231 C248 0.940 . S
H232 C249 0.939 . S
H233 C251 0.941 . S
H234 C255 0.939 . S
O235 P224 1.490 . S
H236 C252 0.939 . S
H237 C254 0.940 . S
C238 P224 1.812 1_556 S
C238 C239 1.389 . S
C238 C243 1.391 . S
C239 H225 0.941 . S
C239 C238 1.389 . S
C239 C240 1.397 . S
C240 H226 0.939 . S
C240 C239 1.397 . S
C240 C241 1.378 . S
C241 C240 1.378 . S
C241 C242 1.378 . S
C242 H227 0.940 . S
C242 C241 1.378 . S
C242 C243 1.396 . S
C243 H228 0.940 . S
C243 C238 1.391 . S
C243 C242 1.396 . S
C244 P224 1.803 . S
C244 C245 1.378 . S
C244 C249 1.400 . S
C245 H229 0.939 . S
C245 C244 1.378 . S
C245 C246 1.361 . S
C246 H230 0.942 . S
C246 C245 1.361 . S
C246 C247 1.369 . S
C247 C246 1.369 . S
C247 C248 1.404 . S
C248 H231 0.940 . S
C248 C247 1.404 . S
C248 C249 1.389 . S
C249 H232 0.939 . S
C249 C244 1.400 . S
C249 C248 1.389 . S
C250 P224 1.819 . S
C250 C251 1.391 . S
C250 C255 1.391 . S
C251 H233 0.941 . S
C251 C250 1.391 . S
C251 C252 1.396 . S
C252 H236 0.939 . S
C252 C251 1.396 . S
C252 C253 1.397 . S
C253 C252 1.397 . S
C253 C254 1.385 . S
C254 H237 0.940 . S
C254 C253 1.385 . S
C254 C255 1.388 . S
C255 H234 0.939 . S
C255 C250 1.391 . S
C255 C254 1.388 . S
Tb256 N285 2.617 . S
Tb256 N291 2.572 . S
Tb256 O300 2.465 . S
Tb256 O301 2.387 1_545 S
Tb256 O303 2.428 . S
Tb256 O304 2.308 1_655 S
Tb256 O308 2.349 1_655 S
Tb256 O311 2.393 . S
Tb256 C320 2.802 . S
C257 N258 1.379 . S
C257 C260 1.416 . S
C257 C264 1.424 . S
N258 C257 1.379 . S
N258 C261 1.334 1_545 S
N258 Tb267 2.617 1_545 S
C259 C261 1.390 1_545 S
C259 C262 1.339 . S
C259 H279 0.930 . S
C260 C257 1.416 . S
C260 C262 1.416 . S
C260 C266 1.448 . S
C261 N258 1.334 1_565 S
C261 C259 1.390 1_565 S
C261 H272 0.930 . S
C262 C259 1.339 . S
C262 C260 1.416 . S
C262 H283 0.930 . S
C263 C264 1.413 1_554 S
C263 C265 1.427 . S
C263 C269 1.416 . S
C264 C257 1.424 . S
C264 C263 1.413 1_556 S
C264 N268 1.361 . S
C265 C263 1.427 . S
C265 C266 1.328 1_554 S
C265 H280 0.929 . S
C266 C260 1.448 . S
C266 C265 1.328 1_556 S
C266 H281 0.930 1_556 S
Tb267 N258 2.617 1_565 S
Tb267 N268 2.572 1_565 S
Tb267 O302 2.349 . S
Tb267 O305 2.393 . S
Tb267 O306 2.465 . S
Tb267 O307 2.387 1_565 S
Tb267 O309 2.428 . S
Tb267 O310 2.304 1_465 S
Tb267 C331 2.802 . S
N268 C264 1.361 . S
N268 Tb267 2.572 1_545 S
N268 C270 1.340 . S
C269 C263 1.416 . S
C269 C271 1.332 . S
C269 H277 0.931 . S
C270 N268 1.340 . S
C270 C271 1.407 1_556 S
C270 H276 0.930 . S
C271 C269 1.332 . S
C271 C270 1.407 1_554 S
C271 H273 0.929 . S
H272 C261 0.930 . S
H273 C271 0.929 . S
H274 C289 0.930 . S
H275 C296 0.929 1_455 S
H276 C270 0.930 . S
H277 C269 0.931 . S
H278 C292 0.930 1_455 S
H279 C259 0.930 . S
H280 C265 0.929 . S
H281 C266 0.930 1_554 S
H282 C287 0.930 . S
H283 C262 0.930 . S
H284 C295 0.931 . S
N285 Tb256 2.617 . S
N285 C286 1.379 1_545 S
N285 C289 1.334 . S
C286 N285 1.379 1_565 S
C286 C288 1.416 . S
C286 C294 1.424 . S
C287 H282 0.930 . S
C287 C289 1.390 . S
C287 C290 1.339 1_545 S
C288 C286 1.416 . S
C288 C290 1.416 . S
C288 C321 1.448 . S
C289 H274 0.930 . S
C289 N285 1.334 . S
C289 C287 1.390 . S
C290 C287 1.339 1_565 S
C290 C288 1.416 . S
C290 H297 0.930 . S
N291 Tb256 2.572 . S
N291 C292 1.340 . S
N291 C294 1.361 1_545 S
C292 H278 0.930 1_655 S
C292 N291 1.340 . S
C292 C296 1.407 1_545 S
C293 C294 1.413 . S
C293 C295 1.416 . S
C293 C322 1.427 . S
C294 C286 1.424 . S
C294 N291 1.361 1_565 S
C294 C293 1.413 . S
C295 H284 0.931 . S
C295 C293 1.416 . S
C295 C296 1.332 . S
C296 H275 0.929 1_655 S
C296 C292 1.407 1_565 S
C296 C295 1.332 . S
H297 C290 0.930 . S
H298 C321 0.930 . S
H299 C322 0.929 . S
O300 Tb256 2.465 . S
O300 C320 1.264 . S
O301 Tb256 2.387 1_565 S
O301 C312 1.264 . S
O302 Tb267 2.349 . S
O302 C312 1.243 1_455 S
O303 Tb256 2.428 . S
O303 C320 1.256 . S
O304 Tb256 2.308 1_455 S
O304 C319 1.266 . S
O305 Tb267 2.393 . S
O305 C319 1.248 1_565 S
O306 Tb267 2.465 . S
O306 C331 1.264 . S
O307 Tb267 2.387 1_545 S
O307 C323 1.264 . S
O308 Tb256 2.349 1_455 S
O308 C323 1.243 . S
O309 Tb267 2.428 . S
O309 C331 1.256 . S
O310 Tb267 2.304 1_645 S
O310 C330 1.269 . S
O311 Tb256 2.393 . S
O311 C330 1.248 . S
C312 O301 1.264 . S
C312 O302 1.243 1_655 S
C313 C316 1.399 . S
C313 C318 1.383 . S
C313 C320 1.496 . S
C314 C315 1.399 . S
C314 C318 1.389 . S
C315 C314 1.399 . S
C315 C317 1.380 . S
C315 H332 0.929 . S
C316 C313 1.399 . S
C316 C317 1.392 . S
C316 H333 0.929 . S
C317 C315 1.380 . S
C317 C316 1.392 . S
C317 H334 0.929 . S
C318 C313 1.383 . S
C318 C314 1.389 . S
C318 H335 0.931 1_655 S
C319 O304 1.266 . S
C319 O305 1.248 1_545 S
C320 Tb256 2.802 . S
C320 O300 1.264 . S
C320 O303 1.256 . S
C320 C313 1.496 . S
C321 C288 1.448 . S
C321 H298 0.930 . S
C321 C322 1.328 . S
C322 C293 1.427 . S
C322 H299 0.929 . S
C322 C321 1.328 . S
C323 O307 1.264 . S
C323 O308 1.243 . S
C324 C327 1.399 . S
C324 C328 1.383 . S
C324 C331 1.496 . S
C325 C326 1.399 . S
C325 C328 1.389 . S
C326 C325 1.399 . S
C326 C329 1.380 . S
C326 H336 0.929 1_556 S
C327 C324 1.399 . S
C327 C329 1.392 . S
C327 H337 0.929 . S
C328 C324 1.383 . S
C328 C325 1.389 . S
C328 H338 0.931 . S
C329 C326 1.380 . S
C329 C327 1.392 . S
C329 H339 0.929 . S
C330 O310 1.269 . S
C330 O311 1.248 . S
C331 Tb267 2.802 . S
C331 O306 1.264 . S
C331 O309 1.256 . S
C331 C324 1.496 . S
H332 C315 0.929 . S
H333 C316 0.929 . S
H334 C317 0.929 . S
H335 C318 0.931 1_455 S
H336 C326 0.929 1_554 S
H337 C327 0.929 . S
H338 C328 0.931 . S
H339 C329 0.929 . S
Tb340 N369 2.617 . S
Tb340 N375 2.572 . S
Tb340 O384 2.465 . S
Tb340 O385 2.387 . S
Tb340 O387 2.428 . S
Tb340 O388 2.308 . S
Tb340 O392 2.349 1_545 S
Tb340 O395 2.393 . S
Tb340 C404 2.802 . S
C341 N342 1.379 . S
C341 C344 1.416 . S
C341 C348 1.424 . S
N342 C341 1.379 . S
N342 C345 1.334 . S
N342 Tb351 2.617 . S
C343 C345 1.390 . S
C343 C346 1.339 . S
C343 H363 0.930 . S
C344 C341 1.416 . S
C344 C346 1.416 . S
C344 C350 1.448 . S
C345 N342 1.334 . S
C345 C343 1.390 . S
C345 H356 0.930 . S
C346 C343 1.339 . S
C346 C344 1.416 . S
C346 H367 0.930 . S
C347 C348 1.413 . S
C347 C349 1.427 . S
C347 C353 1.416 . S
C348 C341 1.424 . S
C348 C347 1.413 . S
C348 N352 1.361 . S
C349 C347 1.427 . S
C349 C350 1.328 . S
C349 H364 0.929 . S
C350 C344 1.448 . S
C350 C349 1.328 . S
C350 H365 0.930 . S
Tb351 N342 2.617 . S
Tb351 N352 2.572 . S
Tb351 O386 2.349 1_565 S
Tb351 O389 2.393 . S
Tb351 O390 2.465 . S
Tb351 O391 2.387 . S
Tb351 O393 2.428 . S
Tb351 O394 2.308 1_565 S
Tb351 C415 2.802 . S
N352 C348 1.361 . S
N352 Tb351 2.572 . S
N352 C354 1.340 . S
C353 C347 1.416 . S
C353 C355 1.332 . S
C353 H361 0.931 . S
C354 N352 1.340 . S
C354 C355 1.407 . S
C354 H360 0.930 . S
C355 C353 1.332 . S
C355 C354 1.407 . S
C355 H357 0.929 . S
H356 C345 0.930 . S
H357 C355 0.929 . S
H358 C373 0.930 . S
H359 C380 0.929 . S
H360 C354 0.930 . S
H361 C353 0.931 . S
H362 C376 0.930 . S
H363 C343 0.930 . S
H364 C349 0.929 . S
H365 C350 0.930 . S
H366 C371 0.930 . S
H367 C346 0.930 . S
H368 C379 0.931 . S
N369 Tb340 2.617 . S
N369 C370 1.379 . S
N369 C373 1.334 . S
C370 N369 1.379 . S
C370 C372 1.416 . S
C370 C378 1.424 . S
C371 H366 0.930 . S
C371 C373 1.390 . S
C371 C374 1.339 . S
C372 C370 1.416 . S
C372 C374 1.416 . S
C372 C405 1.448 . S
C373 H358 0.930 . S
C373 N369 1.334 . S
C373 C371 1.390 . S
C374 C371 1.339 . S
C374 C372 1.416 . S
C374 H381 0.930 . S
N375 Tb340 2.572 . S
N375 C376 1.340 . S
N375 C378 1.361 . S
C376 H362 0.930 . S
C376 N375 1.340 . S
C376 C380 1.407 . S
C377 C378 1.413 . S
C377 C379 1.416 . S
C377 C406 1.427 . S
C378 C370 1.424 . S
C378 N375 1.361 . S
C378 C377 1.413 . S
C379 H368 0.931 . S
C379 C377 1.416 . S
C379 C380 1.332 . S
C380 H359 0.929 . S
C380 C376 1.407 . S
C380 C379 1.332 . S
H381 C374 0.930 . S
H382 C405 0.930 . S
H383 C406 0.929 . S
O384 Tb340 2.465 . S
O384 C404 1.264 . S
O385 Tb340 2.387 . S
O385 C396 1.264 . S
O386 Tb351 2.349 1_545 S
O386 C396 1.243 . S
O387 Tb340 2.428 . S
O387 C404 1.256 . S
O388 Tb340 2.308 . S
O388 C403 1.266 1_545 S
O389 Tb351 2.393 . S
O389 C403 1.248 . S
O390 Tb351 2.465 . S
O390 C415 1.264 . S
O391 Tb351 2.387 . S
O391 C407 1.264 . S
O392 Tb340 2.349 1_565 S
O392 C407 1.243 . S
O393 Tb351 2.428 . S
O393 C415 1.256 . S
O394 Tb351 2.308 1_545 S
O394 C414 1.266 . S
O395 Tb340 2.393 . S
O395 C414 1.248 . S
C396 O385 1.264 . S
C396 O386 1.243 . S
C397 C400 1.399 1_556 S
C397 C402 1.383 . S
C397 C404 1.496 . S
C398 C399 1.399 . S
C398 C402 1.389 1_554 S
C399 C398 1.399 . S
C399 C401 1.380 . S
C399 H416 0.929 . S
C400 C397 1.399 1_554 S
C400 C401 1.392 . S
C400 H417 0.929 . S
C401 C399 1.380 . S
C401 C400 1.392 . S
C401 H418 0.929 . S
C402 C397 1.383 . S
C402 C398 1.389 1_556 S
C402 H419 0.931 . S
C403 O388 1.266 1_565 S
C403 O389 1.248 . S
C404 Tb340 2.802 . S
C404 O384 1.264 . S
C404 O387 1.256 . S
C404 C397 1.496 . S
C405 C372 1.448 . S
C405 H382 0.930 . S
C405 C406 1.328 . S
C406 C377 1.427 . S
C406 H383 0.929 . S
C406 C405 1.328 . S
C407 O391 1.264 . S
C407 O392 1.243 . S
C408 C411 1.399 . S
C408 C412 1.383 . S
C408 C415 1.496 . S
C409 C410 1.399 . S
C409 C412 1.389 . S
C410 C409 1.399 . S
C410 C413 1.380 . S
C410 H420 0.929 . S
C411 C408 1.399 . S
C411 C413 1.392 . S
C411 H421 0.929 . S
C412 C408 1.383 . S
C412 C409 1.389 . S
C412 H422 0.931 . S
C413 C410 1.380 . S
C413 C411 1.392 . S
C413 H423 0.929 . S
C414 O394 1.266 . S
C414 O395 1.248 . S
C415 Tb351 2.802 . S
C415 O390 1.264 . S
C415 O393 1.256 . S
C415 C408 1.496 . S
H416 C399 0.929 . S
H417 C400 0.929 . S
H418 C401 0.929 . S
H419 C402 0.931 . S
H420 C410 0.929 . S
H421 C411 0.929 . S
H422 C412 0.931 . S
H423 C413 0.929 . S
Tb424 N453 2.617 . S
Tb424 N459 2.572 . S
Tb424 O468 2.465 . S
Tb424 O469 2.387 . S
Tb424 O471 2.428 . S
Tb424 O472 2.308 . S
Tb424 O476 2.349 . S
Tb424 O479 2.393 . S
Tb424 C488 2.802 . S
C425 N426 1.379 . S
C425 C428 1.416 . S
C425 C432 1.424 . S
N426 C425 1.379 . S
N426 C429 1.334 . S
N426 Tb435 2.617 . S
C427 C429 1.390 . S
C427 C430 1.339 . S
C427 H447 0.930 . S
C428 C425 1.416 . S
C428 C430 1.416 . S
C428 C434 1.448 . S
C429 N426 1.334 . S
C429 C427 1.390 . S
C429 H440 0.930 . S
C430 C427 1.339 . S
C430 C428 1.416 . S
C430 H451 0.930 . S
C431 C432 1.413 1_554 S
C431 C433 1.427 . S
C431 C437 1.416 . S
C432 C425 1.424 . S
C432 C431 1.413 1_556 S
C432 N436 1.361 . S
C433 C431 1.427 . S
C433 C434 1.328 1_554 S
C433 H448 0.929 . S
C434 C428 1.448 . S
C434 C433 1.328 1_556 S
C434 H449 0.930 1_556 S
Tb435 N426 2.617 . S
Tb435 N436 2.572 . S
Tb435 O470 2.349 . S
Tb435 O473 2.393 . S
Tb435 O474 2.465 . S
Tb435 O475 2.387 . S
Tb435 O477 2.428 . S
Tb435 O478 2.308 . S
Tb435 C499 2.802 . S
N436 C432 1.361 . S
N436 Tb435 2.572 . S
N436 C438 1.340 . S
C437 C431 1.416 . S
C437 C439 1.332 . S
C437 H445 0.931 . S
C438 N436 1.340 . S
C438 C439 1.407 1_556 S
C438 H444 0.930 . S
C439 C437 1.332 . S
C439 C438 1.407 1_554 S
C439 H441 0.929 . S
H440 C429 0.930 . S
H441 C439 0.929 . S
H442 C457 0.930 . S
H443 C464 0.929 . S
H444 C438 0.930 . S
H445 C437 0.931 . S
H446 C460 0.930 . S
H447 C427 0.930 . S
H448 C433 0.929 . S
H449 C434 0.930 1_554 S
H450 C455 0.930 . S
H451 C430 0.930 . S
H452 C463 0.931 . S
N453 Tb424 2.617 . S
N453 C454 1.379 . S
N453 C457 1.334 . S
C454 N453 1.379 . S
C454 C456 1.416 . S
C454 C462 1.424 . S
C455 H450 0.930 . S
C455 C457 1.390 . S
C455 C458 1.339 . S
C456 C454 1.416 . S
C456 C458 1.416 . S
C456 C489 1.448 . S
C457 H442 0.930 . S
C457 N453 1.334 . S
C457 C455 1.390 . S
C458 C455 1.339 . S
C458 C456 1.416 . S
C458 H465 0.930 . S
N459 Tb424 2.572 . S
N459 C460 1.340 . S
N459 C462 1.361 . S
C460 H446 0.930 . S
C460 N459 1.340 . S
C460 C464 1.407 . S
C461 C462 1.413 . S
C461 C463 1.416 . S
C461 C490 1.427 . S
C462 C454 1.424 . S
C462 N459 1.361 . S
C462 C461 1.413 . S
C463 H452 0.931 . S
C463 C461 1.416 . S
C463 C464 1.332 . S
C464 H443 0.929 . S
C464 C460 1.407 . S
C464 C463 1.332 . S
H465 C458 0.930 . S
H466 C489 0.930 . S
H467 C490 0.929 . S
O468 Tb424 2.465 . S
O468 C488 1.264 . S
O469 Tb424 2.387 . S
O469 C480 1.264 . S
O470 Tb435 2.349 . S
O470 C480 1.243 . S
O471 Tb424 2.428 . S
O471 C488 1.256 . S
O472 Tb424 2.308 . S
O472 C487 1.266 . S
O473 Tb435 2.393 . S
O473 C487 1.248 . S
O474 Tb435 2.465 . S
O474 C499 1.264 . S
O475 Tb435 2.387 . S
O475 C491 1.264 . S
O476 Tb424 2.349 . S
O476 C491 1.243 . S
O477 Tb435 2.428 . S
O477 C499 1.256 . S
O478 Tb435 2.308 . S
O478 C498 1.266 . S
O479 Tb424 2.393 . S
O479 C498 1.248 . S
C480 O469 1.264 . S
C480 O470 1.243 . S
C481 C484 1.399 . S
C481 C486 1.383 . S
C481 C488 1.496 . S
C482 C483 1.399 . S
C482 C486 1.389 . S
C483 C482 1.399 . S
C483 C485 1.380 . S
C483 H500 0.929 . S
C484 C481 1.399 . S
C484 C485 1.392 . S
C484 H501 0.929 . S
C485 C483 1.380 . S
C485 C484 1.392 . S
C485 H502 0.929 . S
C486 C481 1.383 . S
C486 C482 1.389 . S
C486 H503 0.931 . S
C487 O472 1.266 . S
C487 O473 1.248 . S
C488 Tb424 2.802 . S
C488 O468 1.264 . S
C488 O471 1.256 . S
C488 C481 1.496 . S
C489 C456 1.448 . S
C489 H466 0.930 . S
C489 C490 1.328 . S
C490 C461 1.427 . S
C490 H467 0.929 . S
C490 C489 1.328 . S
C491 O475 1.264 . S
C491 O476 1.243 . S
C492 C495 1.399 . S
C492 C496 1.383 . S
C492 C499 1.496 . S
C493 C494 1.397 1_554 S
C493 C496 1.384 1_554 S
C494 C493 1.397 1_556 S
C494 C497 1.380 . S
C494 H504 0.929 1_556 S
C495 C492 1.399 . S
C495 C497 1.392 . S
C495 H505 0.929 . S
C496 C492 1.383 . S
C496 C493 1.384 1_556 S
C496 H506 0.931 . S
C497 C494 1.380 . S
C497 C495 1.392 . S
C497 H507 0.929 . S
C498 O478 1.266 . S
C498 O479 1.248 . S
C499 Tb435 2.802 . S
C499 O474 1.264 . S
C499 O477 1.256 . S
C499 C492 1.496 . S
H500 C483 0.929 . S
H501 C484 0.929 . S
H502 C485 0.929 . S
H503 C486 0.931 . S
H504 C494 0.929 1_554 S
H505 C495 0.929 . S
H506 C496 0.931 . S
H507 C497 0.929 . S
Tb508 N537 2.617 . S
Tb508 N543 2.572 . S
Tb508 O552 2.465 . S
Tb508 O553 2.387 1_455 S
Tb508 O555 2.428 . S
Tb508 O556 2.308 . S
Tb508 O560 2.349 . S
Tb508 O563 2.393 . S
Tb508 C572 2.802 . S
C509 N510 1.379 1_455 S
C509 C512 1.416 . S
C509 C516 1.424 . S
N510 C509 1.379 1_655 S
N510 C513 1.334 . S
N510 Tb519 2.617 . S
C511 C513 1.390 1_455 S
C511 C514 1.339 . S
C511 H531 0.930 . S
C512 C509 1.416 . S
C512 C514 1.416 . S
C512 C518 1.448 . S
C513 N510 1.334 . S
C513 C511 1.390 1_655 S
C513 H524 0.930 . S
C514 C511 1.339 . S
C514 C512 1.416 . S
C514 H535 0.930 . S
C515 C516 1.413 1_554 S
C515 C517 1.427 . S
C515 C521 1.416 . S
C516 C509 1.424 . S
C516 C515 1.413 1_556 S
C516 N520 1.361 . S
C517 C515 1.427 . S
C517 C518 1.328 1_554 S
C517 H532 0.929 . S
C518 C512 1.448 . S
C518 C517 1.328 1_556 S
C518 H533 0.930 1_556 S
Tb519 N510 2.617 . S
Tb519 N520 2.572 1_655 S
Tb519 O554 2.349 . S
Tb519 O557 2.393 . S
Tb519 O558 2.465 . S
Tb519 O559 2.387 1_655 S
Tb519 O561 2.428 . S
Tb519 O562 2.308 . S
Tb519 C583 2.802 . S
N520 C516 1.361 . S
N520 Tb519 2.572 1_455 S
N520 C522 1.340 . S
C521 C515 1.416 . S
C521 C523 1.332 . S
C521 H529 0.931 . S
C522 N520 1.340 . S
C522 C523 1.407 1_556 S
C522 H528 0.930 . S
C523 C521 1.332 . S
C523 C522 1.407 1_554 S
C523 H525 0.929 . S
H524 C513 0.930 . S
H525 C523 0.929 . S
H526 C541 0.930 . S
H527 C548 0.929 . S
H528 C522 0.930 . S
H529 C521 0.931 . S
H530 C544 0.930 . S
H531 C511 0.930 . S
H532 C517 0.929 . S
H533 C518 0.930 1_554 S
H534 C539 0.930 . S
H535 C514 0.930 . S
H536 C547 0.931 . S
N537 Tb508 2.617 . S
N537 C538 1.379 1_455 S
N537 C541 1.334 . S
C538 N537 1.379 1_655 S
C538 C540 1.416 . S
C538 C546 1.424 . S
C539 H534 0.930 . S
C539 C541 1.390 . S
C539 C542 1.339 1_455 S
C540 C538 1.416 . S
C540 C542 1.416 . S
C540 C573 1.448 . S
C541 H526 0.930 . S
C541 N537 1.334 . S
C541 C539 1.390 . S
C542 C539 1.339 1_655 S
C542 C540 1.416 . S
C542 H549 0.930 . S
N543 Tb508 2.572 . S
N543 C544 1.340 . S
N543 C546 1.361 1_455 S
C544 H530 0.930 . S
C544 N543 1.340 . S
C544 C548 1.407 1_455 S
C545 C546 1.413 . S
C545 C547 1.416 . S
C545 C574 1.427 . S
C546 C538 1.424 . S
C546 N543 1.361 1_655 S
C546 C545 1.413 . S
C547 H536 0.931 . S
C547 C545 1.416 . S
C547 C548 1.332 . S
C548 H527 0.929 . S
C548 C544 1.407 1_655 S
C548 C547 1.332 . S
H549 C542 0.930 . S
H550 C573 0.930 . S
H551 C574 0.929 . S
O552 Tb508 2.465 . S
O552 C572 1.264 . S
O553 Tb508 2.387 1_655 S
O553 C564 1.264 . S
O554 Tb519 2.349 . S
O554 C564 1.243 . S
O555 Tb508 2.428 . S
O555 C572 1.256 . S
O556 Tb508 2.308 . S
O556 C571 1.266 . S
O557 Tb519 2.393 . S
O557 C571 1.248 1_655 S
O558 Tb519 2.465 . S
O558 C583 1.264 . S
O559 Tb519 2.387 1_455 S
O559 C575 1.264 . S
O560 Tb508 2.349 . S
O560 C575 1.243 . S
O561 Tb519 2.428 . S
O561 C583 1.256 . S
O562 Tb519 2.308 . S
O562 C582 1.266 1_655 S
O563 Tb508 2.393 . S
O563 C582 1.248 . S
C564 O553 1.264 . S
C564 O554 1.243 . S
C565 C568 1.399 . S
C565 C570 1.383 . S
C565 C572 1.496 . S
C566 C567 1.399 . S
C566 C570 1.389 . S
C567 C566 1.399 . S
C567 C569 1.380 . S
C567 H584 0.929 . S
C568 C565 1.399 . S
C568 C569 1.392 . S
C568 H585 0.929 . S
C569 C567 1.380 . S
C569 C568 1.392 . S
C569 H586 0.929 . S
C570 C565 1.383 . S
C570 C566 1.389 . S
C570 H587 0.931 . S
C571 O556 1.266 . S
C571 O557 1.248 1_455 S
C572 Tb508 2.802 . S
C572 O552 1.264 . S
C572 O555 1.256 . S
C572 C565 1.496 . S
C573 C540 1.448 . S
C573 H550 0.930 . S
C573 C574 1.328 . S
C574 C545 1.427 . S
C574 H551 0.929 . S
C574 C573 1.328 . S
C575 O559 1.264 . S
C575 O560 1.243 . S
C576 C579 1.399 . S
C576 C580 1.383 . S
C576 C583 1.496 . S
C577 C578 1.400 . S
C577 C580 1.394 . S
C578 C577 1.400 . S
C578 C581 1.380 . S
C578 H588 0.929 1_556 S
C579 C576 1.399 . S
C579 C581 1.392 . S
C579 H589 0.929 . S
C580 C576 1.383 . S
C580 C577 1.394 . S
C580 H590 0.931 . S
C581 C578 1.380 . S
C581 C579 1.392 . S
C581 H591 0.929 . S
C582 O562 1.266 1_455 S
C582 O563 1.248 . S
C583 Tb519 2.802 . S
C583 O558 1.264 . S
C583 O561 1.256 . S
C583 C576 1.496 . S
H584 C567 0.929 . S
H585 C568 0.929 . S
H586 C569 0.929 . S
H587 C570 0.931 . S
H588 C578 0.929 1_554 S
H589 C579 0.929 . S
H590 C580 0.931 . S
H591 C581 0.929 . S
C592 C593 1.363 . S
C592 C598 1.379 . S
C592 N600 1.356 . S
C593 C592 1.363 . S
C593 C599 1.363 . S
C594 C595 1.363 . S
C594 C599 1.379 . S
C594 N601 1.356 1_545 S
C595 C594 1.363 . S
C595 C598 1.363 . S
N596 C598 1.356 . S
N596 H608 0.984 . S
N596 H609 0.985 . S
N597 C599 1.356 1_565 S
N597 H602 0.984 1_565 S
N597 H603 0.985 . S
C598 C592 1.379 . S
C598 C595 1.363 . S
C598 N596 1.356 . S
C599 C593 1.363 . S
C599 C594 1.379 . S
C599 N597 1.356 1_545 S
N600 C592 1.356 . S
N600 H606 0.984 . S
N600 H607 0.984 . S
N601 C594 1.356 1_565 S
N601 H604 0.984 . S
N601 H605 0.985 . S
H602 N597 0.984 1_545 S
H603 N597 0.985 . S
H604 N601 0.984 . S
H605 N601 0.985 . S
H606 N600 0.984 . S
H607 N600 0.984 . S
H608 N596 0.984 . S
H609 N596 0.985 . S
C610 C611 1.363 . S
C610 C616 1.379 . S
C610 N618 1.356 . S
C611 C610 1.363 . S
C611 C617 1.363 . S
C612 C613 1.363 . S
C612 C617 1.379 . S
C612 N619 1.356 . S
C613 C612 1.363 . S
C613 C616 1.363 . S
N614 C616 1.356 . S
N614 H626 0.984 . S
N614 H627 0.985 . S
N615 C617 1.356 . S
N615 H620 0.984 . S
N615 H621 0.985 . S
C616 C610 1.379 . S
C616 C613 1.363 . S
C616 N614 1.356 . S
C617 C611 1.363 . S
C617 C612 1.379 . S
C617 N615 1.356 . S
N618 C610 1.356 . S
N618 H624 0.984 . S
N618 H625 0.984 . S
N619 C612 1.356 . S
N619 H622 0.984 . S
N619 H623 0.985 . S
H620 N615 0.984 . S
H621 N615 0.985 . S
H622 N619 0.984 . S
H623 N619 0.985 . S
H624 N618 0.984 . S
H625 N618 0.984 . S
H626 N614 0.984 . S
H627 N614 0.985 . S
C628 C629 1.363 . S
C628 C634 1.379 . S
C628 N636 1.356 . S
C629 C628 1.363 . S
C629 C635 1.363 . S
C630 C631 1.363 . S
C630 C635 1.379 . S
C630 N637 1.356 . S
C631 C630 1.363 . S
C631 C634 1.363 . S
N632 C634 1.356 . S
N632 H644 0.984 . S
N632 H645 0.985 . S
N633 C635 1.356 . S
N633 H638 0.984 . S
N633 H639 0.985 . S
C634 C628 1.379 . S
C634 C631 1.363 . S
C634 N632 1.356 . S
C635 C629 1.363 . S
C635 C630 1.379 . S
C635 N633 1.356 . S
N636 C628 1.356 . S
N636 H642 0.984 . S
N636 H643 0.984 . S
N637 C630 1.356 . S
N637 H640 0.984 . S
N637 H641 0.985 . S
H638 N633 0.984 . S
H639 N633 0.985 . S
H640 N637 0.984 . S
H641 N637 0.985 . S
H642 N636 0.984 . S
H643 N636 0.984 . S
H644 N632 0.984 . S
H645 N632 0.985 . S
C646 C647 1.363 . S
C646 C652 1.379 . S
C646 N654 1.356 . S
C647 C646 1.363 . S
C647 C653 1.363 . S
C648 C649 1.363 . S
C648 C653 1.379 . S
C648 N655 1.356 1_455 S
C649 C648 1.363 . S
C649 C652 1.363 . S
N650 C652 1.356 . S
N650 H662 0.984 . S
N650 H663 0.985 . S
N651 C653 1.356 . S
N651 H656 0.984 . S
N651 H657 0.985 1_455 S
C652 C646 1.379 . S
C652 C649 1.363 . S
C652 N650 1.356 . S
C653 C647 1.363 . S
C653 C648 1.379 . S
C653 N651 1.356 . S
N654 C646 1.356 . S
N654 H660 0.984 . S
N654 H661 0.984 . S
N655 C648 1.356 1_655 S
N655 H658 0.984 . S
N655 H659 0.985 . S
H656 N651 0.984 . S
H657 N651 0.985 1_655 S
H658 N655 0.984 . S
H659 N655 0.985 . S
H660 N654 0.984 . S
H661 N654 0.984 . S
H662 N650 0.984 . S
H663 N650 0.985 . S
C664 C665 1.363 1_545 S
C664 C670 1.379 1_554 S
C664 N672 1.356 . S
C665 C664 1.363 1_565 S
C665 C671 1.363 . S
C666 C667 1.363 . S
C666 C671 1.379 1_556 S
C666 N673 1.356 . S
C667 C666 1.363 . S
C667 C670 1.363 1_565 S
N668 C670 1.356 . S
N668 H680 0.984 . S
N668 H681 0.985 . S
N669 C671 1.356 . S
N669 H674 0.984 . S
N669 H675 0.985 . S
C670 C664 1.379 1_556 S
C670 C667 1.363 1_545 S
C670 N668 1.356 . S
C671 C665 1.363 . S
C671 C666 1.379 1_554 S
C671 N669 1.356 . S
N672 C664 1.356 . S
N672 H678 0.984 . S
N672 H679 0.984 . S
N673 C666 1.356 . S
N673 H676 0.984 . S
N673 H677 0.985 . S
H674 N669 0.984 . S
H675 N669 0.985 . S
H676 N673 0.984 . S
H677 N673 0.985 . S
H678 N672 0.984 . S
H679 N672 0.984 . S
H680 N668 0.984 . S
H681 N668 0.985 . S
C682 C683 1.363 . S
C682 C688 1.379 . S
C682 N690 1.356 . S
C683 C682 1.363 . S
C683 C689 1.363 . S
C684 C685 1.363 . S
C684 C689 1.379 1_556 S
C684 N691 1.356 . S
C685 C684 1.363 . S
C685 C688 1.363 1_556 S
N686 C688 1.356 1_556 S
N686 H698 0.984 . S
N686 H699 0.985 . S
N687 C689 1.356 . S
N687 H692 0.984 . S
N687 H693 0.985 . S
C688 C682 1.379 . S
C688 C685 1.363 1_554 S
C688 N686 1.356 1_554 S
C689 C683 1.363 . S
C689 C684 1.379 1_554 S
C689 N687 1.356 . S
N690 C682 1.356 . S
N690 H696 0.984 . S
N690 H697 0.984 . S
N691 C684 1.356 . S
N691 H694 0.984 . S
N691 H695 0.985 . S
H692 N687 0.984 . S
H693 N687 0.985 . S
H694 N691 0.984 . S
H695 N691 0.985 . S
H696 N690 0.984 . S
H697 N690 0.984 . S
H698 N686 0.984 . S
H699 N686 0.985 . S
C700 C701 1.363 . S
C700 C706 1.379 1_554 S
C700 N708 1.356 . S
C701 C700 1.363 . S
C701 C707 1.363 . S
C702 C703 1.363 . S
C702 C707 1.379 1_556 S
C702 N709 1.356 . S
C703 C702 1.363 . S
C703 C706 1.363 . S
N704 C706 1.356 . S
N704 H716 0.984 . S
N704 H717 0.985 . S
N705 C707 1.356 . S
N705 H710 0.984 . S
N705 H711 0.985 . S
C706 C700 1.379 1_556 S
C706 C703 1.363 . S
C706 N704 1.356 . S
C707 C701 1.363 . S
C707 C702 1.379 1_554 S
C707 N705 1.356 . S
N708 C700 1.356 . S
N708 H714 0.984 . S
N708 H715 0.984 . S
N709 C702 1.356 . S
N709 H712 0.984 . S
N709 H713 0.985 . S
H710 N705 0.984 . S
H711 N705 0.985 . S
H712 N709 0.984 . S
H713 N709 0.985 . S
H714 N708 0.984 . S
H715 N708 0.984 . S
H716 N704 0.984 . S
H717 N704 0.985 . S
C718 C719 1.363 1_455 S
C718 C724 1.379 . S
C718 N726 1.356 . S
C719 C718 1.363 1_655 S
C719 C725 1.363 . S
C720 C721 1.363 . S
C720 C725 1.379 1_556 S
C720 N727 1.356 . S
C721 C720 1.363 . S
C721 C724 1.363 1_656 S
N722 C724 1.356 1_556 S
N722 H734 0.984 . S
N722 H735 0.985 . S
N723 C725 1.356 . S
N723 H728 0.984 . S
N723 H729 0.985 . S
C724 C718 1.379 . S
C724 C721 1.363 1_454 S
C724 N722 1.356 1_554 S
C725 C719 1.363 . S
C725 C720 1.379 1_554 S
C725 N723 1.356 . S
N726 C718 1.356 . S
N726 H732 0.984 . S
N726 H733 0.984 . S
N727 C720 1.356 . S
N727 H730 0.984 . S
N727 H731 0.985 . S
H728 N723 0.984 . S
H729 N723 0.985 . S
H730 N727 0.984 . S
H731 N727 0.985 . S
H732 N726 0.984 . S
H733 N726 0.984 . S
H734 N722 0.984 . S
H735 N722 0.985 . S
C736 C737 1.363 . S
C736 C742 1.379 . S
C736 N744 1.356 . S
C737 C736 1.363 . S
C737 C743 1.363 . S
C738 C739 1.363 1_455 S
C738 C743 1.379 . S
C738 N745 1.356 1_455 S
C739 C738 1.363 1_655 S
C739 C742 1.363 1_655 S
N740 C742 1.356 1_655 S
N740 H752 0.984 . S
N740 H753 0.985 . S
N741 C743 1.356 . S
N741 H746 0.984 . S
N741 H747 0.985 . S
C742 C736 1.379 . S
C742 C739 1.363 1_455 S
C742 N740 1.356 1_455 S
C743 C737 1.363 . S
C743 C738 1.379 . S
C743 N741 1.356 . S
N744 C736 1.356 . S
N744 H750 0.984 . S
N744 H751 0.984 . S
N745 C738 1.356 1_655 S
N745 H748 0.984 . S
N745 H749 0.985 . S
H746 N741 0.984 . S
H747 N741 0.985 . S
H748 N745 0.984 . S
H749 N745 0.985 . S
H750 N744 0.984 . S
H751 N744 0.984 . S
H752 N740 0.984 . S
H753 N740 0.985 . S
C754 C755 1.363 . S
C754 C760 1.379 1_545 S
C754 N762 1.356 . S
C755 C754 1.363 . S
C755 C761 1.363 . S
C756 C757 1.363 1_545 S
C756 C761 1.379 . S
C756 N763 1.356 . S
C757 C756 1.363 1_565 S
C757 C760 1.363 . S
N758 C760 1.356 . S
N758 H770 0.984 . S
N758 H771 0.985 . S
N759 C761 1.356 . S
N759 H764 0.984 . S
N759 H765 0.985 . S
C760 C754 1.379 1_565 S
C760 C757 1.363 . S
C760 N758 1.356 . S
C761 C755 1.363 . S
C761 C756 1.379 . S
C761 N759 1.356 . S
N762 C754 1.356 . S
N762 H768 0.984 1_545 S
N762 H769 0.984 . S
N763 C756 1.356 . S
N763 H766 0.984 . S
N763 H767 0.985 . S
H764 N759 0.984 . S
H765 N759 0.985 . S
H766 N763 0.984 . S
H767 N763 0.985 . S
H768 N762 0.984 1_565 S
H769 N762 0.984 . S
H770 N758 0.984 . S
H771 N758 0.985 . S
C772 C773 1.363 . S
C772 C778 1.379 . S
C772 N780 1.356 . S
C773 C772 1.363 . S
C773 C779 1.363 . S
C774 C775 1.363 . S
C774 C779 1.379 . S
C774 N781 1.356 . S
C775 C774 1.363 . S
C775 C778 1.363 . S
N776 C778 1.356 . S
N776 H788 0.984 . S
N776 H789 0.985 . S
N777 C779 1.356 . S
N777 H782 0.984 . S
N777 H783 0.985 . S
C778 C772 1.379 . S
C778 C775 1.363 . S
C778 N776 1.356 . S
C779 C773 1.363 . S
C779 C774 1.379 . S
C779 N777 1.356 . S
N780 C772 1.356 . S
N780 H786 0.984 . S
N780 H787 0.984 . S
N781 C774 1.356 . S
N781 H784 0.984 . S
N781 H785 0.985 . S
H782 N777 0.984 . S
H783 N777 0.985 . S
H784 N781 0.984 . S
H785 N781 0.985 . S
H786 N780 0.984 . S
H787 N780 0.984 . S
H788 N776 0.984 . S
H789 N776 0.985 . S
C790 C791 1.363 . S
C790 C796 1.379 . S
C790 N798 1.356 . S
C791 C790 1.363 . S
C791 C797 1.363 . S
C792 C793 1.363 . S
C792 C797 1.379 . S
C792 N799 1.356 . S
C793 C792 1.363 . S
C793 C796 1.363 . S
N794 C796 1.356 . S
N794 H806 0.984 . S
N794 H807 0.985 . S
N795 C797 1.356 . S
N795 H800 0.984 . S
N795 H801 0.985 . S
C796 C790 1.379 . S
C796 C793 1.363 . S
C796 N794 1.356 . S
C797 C791 1.363 . S
C797 C792 1.379 . S
C797 N795 1.356 . S
N798 C790 1.356 . S
N798 H804 0.984 . S
N798 H805 0.984 . S
N799 C792 1.356 . S
N799 H802 0.984 . S
N799 H803 0.985 . S
H800 N795 0.984 . S
H801 N795 0.985 . S
H802 N799 0.984 . S
H803 N799 0.985 . S
H804 N798 0.984 . S
H805 N798 0.984 . S
H806 N794 0.984 . S
H807 N794 0.985 . S
C808 C809 1.363 . S
C808 C814 1.379 . S
C808 N816 1.356 . S
C809 C808 1.363 . S
C809 C815 1.363 1_655 S
C810 C811 1.363 . S
C810 C815 1.379 . S
C810 N817 1.356 1_554 S
C811 C810 1.363 . S
C811 C814 1.363 1_455 S
N812 C814 1.356 . S
N812 H824 0.984 . S
N812 H825 0.985 1_655 S
N813 C815 1.356 . S
N813 H818 0.984 1_455 S
N813 H819 0.985 . S
C814 C808 1.379 . S
C814 C811 1.363 1_655 S
C814 N812 1.356 . S
C815 C809 1.363 1_455 S
C815 C810 1.379 . S
C815 N813 1.356 . S
N816 C808 1.356 . S
N816 H822 0.984 . S
N816 H823 0.984 . S
N817 C810 1.356 1_556 S
N817 H820 0.984 . S
N817 H821 0.985 . S
H818 N813 0.984 1_655 S
H819 N813 0.985 . S
H820 N817 0.984 . S
H821 N817 0.985 . S
H822 N816 0.984 . S
H823 N816 0.984 . S
H824 N812 0.984 . S
H825 N812 0.985 1_455 S
C826 C827 1.363 . S
C826 C832 1.379 1_565 S
C826 N834 1.356 . S
C827 C826 1.363 . S
C827 C833 1.363 . S
C828 C829 1.363 1_556 S
C828 C833 1.379 1_546 S
C828 N835 1.356 . S
C829 C828 1.363 1_554 S
C829 C832 1.363 . S
N830 C832 1.356 . S
N830 H842 0.984 . S
N830 H843 0.985 . S
N831 C833 1.356 1_556 S
N831 H836 0.984 1_556 S
N831 H837 0.985 . S
C832 C826 1.379 1_545 S
C832 C829 1.363 . S
C832 N830 1.356 . S
C833 C827 1.363 . S
C833 C828 1.379 1_564 S
C833 N831 1.356 1_554 S
N834 C826 1.356 . S
N834 H840 0.984 . S
N834 H841 0.984 . S
N835 C828 1.356 . S
N835 H838 0.984 . S
N835 H839 0.985 . S
H836 N831 0.984 1_554 S
H837 N831 0.985 . S
H838 N835 0.984 . S
H839 N835 0.985 . S
H840 N834 0.984 . S
H841 N834 0.984 . S
H842 N830 0.984 . S
H843 N830 0.985 . S
C844 C845 1.363 . S
C844 C850 1.379 . S
C844 N852 1.356 . S
C845 C844 1.363 . S
C845 C851 1.363 . S
C846 C847 1.363 . S
C846 C851 1.379 . S
C846 N853 1.356 . S
C847 C846 1.363 . S
C847 C850 1.363 . S
N848 C850 1.356 . S
N848 H860 0.984 . S
N848 H861 0.985 1_554 S
N849 C851 1.356 . S
N849 H854 0.984 . S
N849 H855 0.985 . S
C850 C844 1.379 . S
C850 C847 1.363 . S
C850 N848 1.356 . S
C851 C845 1.363 . S
C851 C846 1.379 . S
C851 N849 1.356 . S
N852 C844 1.356 . S
N852 H858 0.984 . S
N852 H859 0.984 . S
N853 C846 1.356 . S
N853 H856 0.984 . S
N853 H857 0.985 . S
H854 N849 0.984 . S
H855 N849 0.985 . S
H856 N853 0.984 . S
H857 N853 0.985 . S
H858 N852 0.984 . S
H859 N852 0.984 . S
H860 N848 0.984 . S
H861 N848 0.985 1_556 S
C862 C863 1.363 . S
C862 C868 1.379 1_554 S
C862 N870 1.356 . S
C863 C862 1.363 . S
C863 C869 1.363 . S
C864 C865 1.363 . S
C864 C869 1.379 . S
C864 N871 1.356 . S
C865 C864 1.363 . S
C865 C868 1.363 1_554 S
N866 C868 1.356 . S
N866 H878 0.984 . S
N866 H879 0.985 . S
N867 C869 1.356 . S
N867 H872 0.984 . S
N867 H873 0.985 . S
C868 C862 1.379 1_556 S
C868 C865 1.363 1_556 S
C868 N866 1.356 . S
C869 C863 1.363 . S
C869 C864 1.379 . S
C869 N867 1.356 . S
N870 C862 1.356 . S
N870 H876 0.984 1_554 S
N870 H877 0.984 . S
N871 C864 1.356 . S
N871 H874 0.984 . S
N871 H875 0.985 . S
H872 N867 0.984 . S
H873 N867 0.985 . S
H874 N871 0.984 . S
H875 N871 0.985 . S
H876 N870 0.984 1_556 S
H877 N870 0.984 . S
H878 N866 0.984 . S
H879 N866 0.985 . S
C880 C881 1.363 . S
C880 C886 1.379 . S
C880 N888 1.356 1_455 S
C881 C880 1.363 . S
C881 C887 1.363 . S
C882 C883 1.363 . S
C882 C887 1.379 . S
C882 N889 1.356 . S
C883 C882 1.363 . S
C883 C886 1.363 . S
N884 C886 1.356 1_655 S
N884 H896 0.984 . S
N884 H897 0.985 . S
N885 C887 1.356 . S
N885 H890 0.984 . S
N885 H891 0.985 . S
C886 C880 1.379 . S
C886 C883 1.363 . S
C886 N884 1.356 1_455 S
C887 C881 1.363 . S
C887 C882 1.379 . S
C887 N885 1.356 . S
N888 C880 1.356 1_655 S
N888 H894 0.984 . S
N888 H895 0.984 1_655 S
N889 C882 1.356 . S
N889 H892 0.984 . S
N889 H893 0.985 . S
H890 N885 0.984 . S
H891 N885 0.985 . S
H892 N889 0.984 . S
H893 N889 0.985 . S
H894 N888 0.984 . S
H895 N888 0.984 1_455 S
H896 N884 0.984 . S
H897 N884 0.985 . S
C898 C899 1.363 . S
C898 C904 1.379 . S
C898 N906 1.356 . S
C899 C898 1.363 . S
C899 C905 1.363 . S
C900 C901 1.363 . S
C900 C905 1.379 . S
C900 N907 1.356 . S
C901 C900 1.363 . S
C901 C904 1.363 . S
N902 C904 1.356 . S
N902 H914 0.984 . S
N902 H915 0.985 . S
N903 C905 1.356 . S
N903 H908 0.984 . S
N903 H909 0.985 . S
C904 C898 1.379 . S
C904 C901 1.363 . S
C904 N902 1.356 . S
C905 C899 1.363 . S
C905 C900 1.379 . S
C905 N903 1.356 . S
N906 C898 1.356 . S
N906 H912 0.984 . S
N906 H913 0.984 . S
N907 C900 1.356 . S
N907 H910 0.984 . S
N907 H911 0.985 . S
H908 N903 0.984 . S
H909 N903 0.985 . S
H910 N907 0.984 . S
H911 N907 0.985 . S
H912 N906 0.984 . S
H913 N906 0.984 . S
H914 N902 0.984 . S
H915 N902 0.985 . S
C916 C917 1.363 . S
C916 C922 1.379 . S
C916 N924 1.356 . S
C917 C916 1.363 . S
C917 C923 1.363 . S
C918 C919 1.363 . S
C918 C923 1.379 . S
C918 N925 1.356 . S
C919 C918 1.363 . S
C919 C922 1.363 . S
N920 C922 1.356 . S
N920 H932 0.984 . S
N920 H933 0.985 . S
N921 C923 1.356 . S
N921 H926 0.984 . S
N921 H927 0.985 . S
C922 C916 1.379 . S
C922 C919 1.363 . S
C922 N920 1.356 . S
C923 C917 1.363 . S
C923 C918 1.379 . S
C923 N921 1.356 . S
N924 C916 1.356 . S
N924 H930 0.984 . S
N924 H931 0.984 . S
N925 C918 1.356 . S
N925 H928 0.984 . S
N925 H929 0.985 . S
H926 N921 0.984 . S
H927 N921 0.985 . S
H928 N925 0.984 . S
H929 N925 0.985 . S
H930 N924 0.984 . S
H931 N924 0.984 . S
H932 N920 0.984 . S
H933 N920 0.985 . S
C934 C935 1.363 . S
C934 C940 1.379 . S
C934 N942 1.356 . S
C935 C934 1.363 . S
C935 C941 1.363 . S
C936 C937 1.363 . S
C936 C941 1.379 . S
C936 N943 1.356 . S
C937 C936 1.363 . S
C937 C940 1.363 . S
N938 C940 1.356 . S
N938 H950 0.984 . S
N938 H951 0.985 . S
N939 C941 1.356 . S
N939 H944 0.984 . S
N939 H945 0.985 . S
C940 C934 1.379 . S
C940 C937 1.363 . S
C940 N938 1.356 . S
C941 C935 1.363 . S
C941 C936 1.379 . S
C941 N939 1.356 . S
N942 C934 1.356 . S
N942 H948 0.984 . S
N942 H949 0.984 . S
N943 C936 1.356 . S
N943 H946 0.984 . S
N943 H947 0.985 . S
H944 N939 0.984 . S
H945 N939 0.985 . S
H946 N943 0.984 . S
H947 N943 0.985 . S
H948 N942 0.984 . S
H949 N942 0.984 . S
H950 N938 0.984 . S
H951 N938 0.985 . S
C952 C953 1.363 . S
C952 C958 1.379 . S
C952 N960 1.356 . S
C953 C952 1.363 . S
C953 C959 1.363 . S
C954 C955 1.363 . S
C954 C959 1.379 . S
C954 N961 1.356 1_655 S
C955 C954 1.363 . S
C955 C958 1.363 . S
N956 C958 1.356 . S
N956 H968 0.984 . S
N956 H969 0.985 . S
N957 C959 1.356 1_455 S
N957 H962 0.984 1_455 S
N957 H963 0.985 . S
C958 C952 1.379 . S
C958 C955 1.363 . S
C958 N956 1.356 . S
C959 C953 1.363 . S
C959 C954 1.379 . S
C959 N957 1.356 1_655 S
N960 C952 1.356 . S
N960 H966 0.984 . S
N960 H967 0.984 . S
N961 C954 1.356 1_455 S
N961 H964 0.984 . S
N961 H965 0.985 . S
H962 N957 0.984 1_655 S
H963 N957 0.985 . S
H964 N961 0.984 . S
H965 N961 0.985 . S
H966 N960 0.984 . S
H967 N960 0.984 . S
H968 N956 0.984 . S
H969 N956 0.985 . S
C970 C971 1.363 . S
C970 C976 1.379 . S
C970 N978 1.356 . S
C971 C970 1.363 . S
C971 C977 1.363 1_565 S
C972 C973 1.363 1_545 S
C972 C977 1.379 . S
C972 N979 1.356 . S
C973 C972 1.363 1_565 S
C973 C976 1.363 . S
N974 C976 1.356 . S
N974 H986 0.984 . S
N974 H987 0.985 . S
N975 C977 1.356 . S
N975 H980 0.984 . S
N975 H981 0.985 . S
C976 C970 1.379 . S
C976 C973 1.363 . S
C976 N974 1.356 . S
C977 C971 1.363 1_545 S
C977 C972 1.379 . S
C977 N975 1.356 . S
N978 C970 1.356 . S
N978 H984 0.984 . S
N978 H985 0.984 . S
N979 C972 1.356 . S
N979 H982 0.984 . S
N979 H983 0.985 . S
H980 N975 0.984 . S
H981 N975 0.985 . S
H982 N979 0.984 . S
H983 N979 0.985 . S
H984 N978 0.984 . S
H985 N978 0.984 . S
H986 N974 0.984 . S
H987 N974 0.985 . S
C988 C989 1.363 . S
C988 C994 1.379 . S
C988 N996 1.356 . S
C989 C988 1.363 . S
C989 C995 1.363 . S
C990 C991 1.363 . S
C990 C995 1.379 . S
C990 N997 1.356 . S
C991 C990 1.363 . S
C991 C994 1.363 . S
N992 C994 1.356 . S
N992 H1004 0.984 . S
N992 H1005 0.985 . S
N993 C995 1.356 . S
N993 H998 0.984 . S
N993 H999 0.985 . S
C994 C988 1.379 . S
C994 C991 1.363 . S
C994 N992 1.356 . S
C995 C989 1.363 . S
C995 C990 1.379 . S
C995 N993 1.356 . S
N996 C988 1.356 . S
N996 H1002 0.984 . S
N996 H1003 0.984 . S
N997 C990 1.356 . S
N997 H1000 0.984 . S
N997 H1001 0.985 . S
H998 N993 0.984 . S
H999 N993 0.985 . S
H1000 N997 0.984 . S
H1001 N997 0.985 . S
H1002 N996 0.984 . S
H1003 N996 0.984 . S
H1004 N992 0.984 . S
H1005 N992 0.985 . S
C1006 C1007 1.363 . S
C1006 C1012 1.379 . S
C1006 N1014 1.356 . S
C1007 C1006 1.363 . S
C1007 C1013 1.363 . S
C1008 C1009 1.363 . S
C1008 C1013 1.379 . S
C1008 N1015 1.356 . S
C1009 C1008 1.363 . S
C1009 C1012 1.363 . S
N1010 C1012 1.356 . S
N1010 H1022 0.984 . S
N1010 H1023 0.985 . S
N1011 C1013 1.356 . S
N1011 H1016 0.984 . S
N1011 H1017 0.985 . S
C1012 C1006 1.379 . S
C1012 C1009 1.363 . S
C1012 N1010 1.356 . S
C1013 C1007 1.363 . S
C1013 C1008 1.379 . S
C1013 N1011 1.356 . S
N1014 C1006 1.356 . S
N1014 H1020 0.984 . S
N1014 H1021 0.984 . S
N1015 C1008 1.356 . S
N1015 H1018 0.984 . S
N1015 H1019 0.985 . S
H1016 N1011 0.984 . S
H1017 N1011 0.985 . S
H1018 N1015 0.984 . S
H1019 N1015 0.985 . S
H1020 N1014 0.984 . S
H1021 N1014 0.984 . S
H1022 N1010 0.984 . S
H1023 N1010 0.985 . S
C593 C215 2.389 . S
C595 C319 2.581 . S
C613 C396 2.576 . S
C611 C247 2.395 . S
C631 C487 2.586 . S
C629 C151 2.391 . S
C649 C571 2.566 . S
C647 C183 2.374 . S
C667 C330 2.581 1_565 S
C665 C87 2.328 . S
C683 C119 2.333 . S
C685 C407 2.576 . S
C701 C23 2.332 . S
C703 C498 2.585 . S
C719 C55 2.315 . S
C721 C582 2.566 1_655 S
C739 C314 0.764 . S
C737 C189 0.764 . S
C757 C409 0.751 . S
C755 C221 0.751 . S
C775 C482 0.781 . S
C773 C253 0.781 . S
C791 C157 0.756 . S
C793 C566 0.756 . S
C809 C61 0.756 . S
C811 C325 0.764 1_554 S
C829 C398 0.751 . S
C827 C93 0.751 . S
C847 C493 0.787 . S
C845 C125 0.764 . S
C863 C29 0.752 . S
C865 C577 0.749 1_554 S
C881 C177 2.588 . S
C883 C323 2.894 . S
C899 C209 2.593 . S
C901 C414 2.977 . S
C919 C491 2.913 . S
C917 C241 2.606 . S
C937 C575 2.915 . S
C935 C145 2.609 . S
C953 C49 2.560 . S
C955 C312 2.894 . S
C973 C403 2.976 . S
C971 C81 2.560 . S
C991 C480 2.912 . S
C989 C113 2.573 . S
C1007 C17 2.579 . S
C1009 C564 2.914 . S
