# Generated by pormake.
# Topology wbl, (4,4)-cn, num edge types: 1
# Building blocks:
#     Node 0, Type 0, BuildingBlock: NAWXER_clean_linker_0, # of connection points: 4
#     Node 1, Type 0, BuildingBlock: NAWXER_clean_linker_0, # of connection points: 4
#     Node 2, Type 0, BuildingBlock: NAWXER_clean_linker_0, # of connection points: 4
#     Node 3, Type 0, BuildingBlock: NAWXER_clean_linker_0, # of connection points: 4
#     Node 4, Type 0, BuildingBlock: NAWXER_clean_linker_0, # of connection points: 4
#     Node 5, Type 0, BuildingBlock: NAWXER_clean_linker_0, # of connection points: 4
#     Node 6, Type 0, BuildingBlock: NAWXER_clean_linker_0, # of connection points: 4
#     Node 7, Type 0, BuildingBlock: NAWXER_clean_linker_0, # of connection points: 4
#     Node 8, Type 1, BuildingBlock: TATPOV_clean_sbu_0, # of connection points: 4
#     Node 9, Type 1, BuildingBlock: TATPOV_clean_sbu_0, # of connection points: 4
#     Node 10, Type 1, BuildingBlock: TATPOV_clean_sbu_0, # of connection points: 4
#     Node 11, Type 1, BuildingBlock: TATPOV_clean_sbu_0, # of connection points: 4
#     Node 12, Type 1, BuildingBlock: TATPOV_clean_sbu_0, # of connection points: 4
#     Node 13, Type 1, BuildingBlock: TATPOV_clean_sbu_0, # of connection points: 4
#     Node 14, Type 1, BuildingBlock: TATPOV_clean_sbu_0, # of connection points: 4
#     Node 15, Type 1, BuildingBlock: TATPOV_clean_sbu_0, # of connection points: 4
#     Edge 16, Type (0, 1), BuildingBlock: AJUNOK_clean_linker_0, # of connection points: 2
#     Edge 17, Type (0, 1), BuildingBlock: AJUNOK_clean_linker_0, # of connection points: 2
#     Edge 18, Type (0, 1), BuildingBlock: AJUNOK_clean_linker_0, # of connection points: 2
#     Edge 19, Type (0, 1), BuildingBlock: AJUNOK_clean_linker_0, # of connection points: 2
#     Edge 20, Type (0, 1), BuildingBlock: AJUNOK_clean_linker_0, # of connection points: 2
#     Edge 21, Type (0, 1), BuildingBlock: AJUNOK_clean_linker_0, # of connection points: 2
#     Edge 22, Type (0, 1), BuildingBlock: AJUNOK_clean_linker_0, # of connection points: 2
#     Edge 23, Type (0, 1), BuildingBlock: AJUNOK_clean_linker_0, # of connection points: 2
#     Edge 24, Type (0, 1), BuildingBlock: AJUNOK_clean_linker_0, # of connection points: 2
#     Edge 25, Type (0, 1), BuildingBlock: AJUNOK_clean_linker_0, # of connection points: 2
#     Edge 26, Type (0, 1), BuildingBlock: AJUNOK_clean_linker_0, # of connection points: 2
#     Edge 27, Type (0, 1), BuildingBlock: AJUNOK_clean_linker_0, # of connection points: 2
#     Edge 28, Type (0, 1), BuildingBlock: AJUNOK_clean_linker_0, # of connection points: 2
#     Edge 29, Type (0, 1), BuildingBlock: AJUNOK_clean_linker_0, # of connection points: 2
#     Edge 30, Type (0, 1), BuildingBlock: AJUNOK_clean_linker_0, # of connection points: 2
#     Edge 31, Type (0, 1), BuildingBlock: AJUNOK_clean_linker_0, # of connection points: 2
#     Edge 32, Type (0, 1), BuildingBlock: AJUNOK_clean_linker_0, # of connection points: 2
#     Edge 33, Type (0, 1), BuildingBlock: AJUNOK_clean_linker_0, # of connection points: 2
#     Edge 34, Type (0, 1), BuildingBlock: AJUNOK_clean_linker_0, # of connection points: 2
#     Edge 35, Type (0, 1), BuildingBlock: AJUNOK_clean_linker_0, # of connection points: 2
#     Edge 36, Type (0, 1), BuildingBlock: AJUNOK_clean_linker_0, # of connection points: 2
#     Edge 37, Type (0, 1), BuildingBlock: AJUNOK_clean_linker_0, # of connection points: 2
#     Edge 38, Type (0, 1), BuildingBlock: AJUNOK_clean_linker_0, # of connection points: 2
#     Edge 39, Type (0, 1), BuildingBlock: AJUNOK_clean_linker_0, # of connection points: 2
#     Edge 40, Type (0, 1), BuildingBlock: AJUNOK_clean_linker_0, # of connection points: 2
#     Edge 41, Type (0, 1), BuildingBlock: AJUNOK_clean_linker_0, # of connection points: 2
#     Edge 42, Type (0, 1), BuildingBlock: AJUNOK_clean_linker_0, # of connection points: 2
#     Edge 43, Type (0, 1), BuildingBlock: AJUNOK_clean_linker_0, # of connection points: 2
#     Edge 44, Type (0, 1), BuildingBlock: AJUNOK_clean_linker_0, # of connection points: 2
#     Edge 45, Type (0, 1), BuildingBlock: AJUNOK_clean_linker_0, # of connection points: 2
#     Edge 46, Type (0, 1), BuildingBlock: AJUNOK_clean_linker_0, # of connection points: 2
#     Edge 47, Type (0, 1), BuildingBlock: AJUNOK_clean_linker_0, # of connection points: 2
# Relax obj value: 0.173
# Max RMSD: 0.172
# Mean RMSD: 0.138
data_MOF--net-wbl--node1-TATPOV_clean_sbu_0--node2-NAWXER_clean_linker_0--edge1-AJUNOK_clean_linker_0
_symmetry_space_group_name_H-M    P1
_symmetry_Int_Tables_number       1
_symmetry_cell_setting            triclinic
loop_
_symmetry_equiv_pos_as_xyz
'x, y, z'
_cell_length_a     35.026749
_cell_length_b     35.040888
_cell_length_c     59.729677
_cell_angle_alpha  91.458429
_cell_angle_beta   91.411291
_cell_angle_gamma 90.063846
loop_
_atom_site_label
_atom_site_type_symbol
_atom_site_fract_x
_atom_site_fract_y
_atom_site_fract_z
_atom_type_partial_charge
C0 C 0.11805 0.91858 0.38112 0.0
C1 C 0.14224 0.93146 0.39885 0.0
C2 C 0.09811 0.94468 0.36794 0.0
C3 C 0.10228 0.98415 0.37213 0.0
C4 C 0.14645 0.97092 0.40296 0.0
C5 C 0.12656 0.99698 0.38979 0.0
C6 C 0.0789 0.01209 0.35966 0.0
C7 C 0.15819 0.96052 0.31011 0.0
C8 C 0.1398 0.93254 0.29647 0.0
C9 C 0.13692 0.98658 0.32267 0.0
C10 C 0.09689 0.9853 0.32167 0.0
C11 C 0.09973 0.93159 0.29517 0.0
C12 C 0.07838 0.95824 0.30745 0.0
C13 C 0.07461 0.01139 0.33608 0.0
C14 C 0.98077 0.15503 0.32185 0.0
C15 C 0.95545 0.1413 0.30499 0.0
C16 C 0.0066 0.13023 0.33214 0.0
C17 C 0.00649 0.09106 0.32627 0.0
C18 C 0.95687 0.10274 0.29815 0.0
C19 C 0.98215 0.07778 0.30874 0.0
C20 C 0.03117 0.06367 0.3384 0.0
C21 C 0.9525 0.11308 0.39045 0.0
C22 C 0.97153 0.13526 0.40721 0.0
C23 C 0.97315 0.09026 0.37553 0.0
C24 C 0.01322 0.08952 0.37698 0.0
C25 C 0.01167 0.13488 0.40837 0.0
C26 C 0.03229 0.11189 0.39355 0.0
C27 C 0.03534 0.06413 0.36202 0.0
H28 H 0.11356 0.88832 0.37791 0.0
H29 H 0.07846 0.93394 0.35498 0.0
H30 H 0.16497 0.98161 0.41651 0.0
H31 H 0.12992 0.02724 0.3935 0.0
H32 H 0.18907 0.96144 0.31158 0.0
H33 H 0.1517 0.0074 0.33346 0.0
H34 H 0.08505 0.91007 0.28484 0.0
H35 H 0.04748 0.95688 0.30649 0.0
H36 H 0.9804 0.18484 0.32711 0.0
H37 H 0.02621 0.14162 0.34492 0.0
H38 H 0.93756 0.09171 0.28508 0.0
H39 H 0.98187 0.04786 0.30368 0.0
H40 H 0.92159 0.11259 0.38926 0.0
H41 H 0.95782 0.07268 0.36313 0.0
H42 H 0.02714 0.15226 0.42081 0.0
H43 H 0.06319 0.11167 0.39494 0.0
N44 N 0.05923 0.03855 0.37169 0.0
N45 N 0.05081 0.03707 0.32631 0.0
C46 C 0.91222 0.51265 0.65416 0.0
C47 C 0.9128 0.47249 0.65398 0.0
C48 C 0.93628 0.53294 0.6404 0.0
C49 C 0.96083 0.51353 0.62586 0.0
C50 C 0.93707 0.45313 0.63908 0.0
C51 C 0.96072 0.47347 0.62507 0.0
C52 C 0.98938 0.53519 0.6135 0.0
C53 C 0.95785 0.45243 0.55198 0.0
C54 C 0.91799 0.45547 0.55381 0.0
C55 C 0.98204 0.47922 0.56269 0.0
C56 C 0.96685 0.50898 0.57577 0.0
C57 C 0.90286 0.48691 0.56568 0.0
C58 C 0.9271 0.51343 0.57661 0.0
C59 C 0.99265 0.53297 0.59004 0.0
C60 C 0.14469 0.61189 0.57645 0.0
C61 C 0.13471 0.63242 0.55731 0.0
C62 C 0.11683 0.59168 0.58771 0.0
C63 C 0.07828 0.59292 0.5805 0.0
C64 C 0.09657 0.63232 0.54955 0.0
C65 C 0.06864 0.61278 0.56104 0.0
C66 C 0.04774 0.57326 0.59266 0.0
C67 C 0.10411 0.65361 0.64479 0.0
C68 C 0.11979 0.63394 0.66306 0.0
C69 C 0.07966 0.63481 0.62924 0.0
C70 C 0.07118 0.59597 0.63161 0.0
C71 C 0.1114 0.59509 0.66525 0.0
C72 C 0.08714 0.57637 0.64976 0.0
C73 C 0.04422 0.57548 0.61623 0.0
H74 H 0.89375 0.52844 0.66533 0.0
H75 H 0.93619 0.56386 0.64138 0.0
H76 H 0.93915 0.4223 0.63894 0.0
H77 H 0.98013 0.45794 0.61435 0.0
H78 H 0.97051 0.42811 0.54345 0.0
H79 H 0.01267 0.47529 0.56191 0.0
H80 H 0.87228 0.49012 0.56727 0.0
H81 H 0.91486 0.53658 0.58641 0.0
H82 H 0.17404 0.61131 0.58258 0.0
H83 H 0.12549 0.57525 0.60206 0.0
H84 H 0.08822 0.64814 0.53487 0.0
H85 H 0.03928 0.61384 0.55494 0.0
H86 H 0.11018 0.68364 0.64282 0.0
H87 H 0.06706 0.65063 0.61559 0.0
H88 H 0.12371 0.57913 0.67894 0.0
H89 H 0.08091 0.5464 0.6519 0.0
N90 N 0.01524 0.55634 0.62564 0.0
N91 N 0.02166 0.55202 0.58047 0.0
C92 C 0.57357 0.35188 0.88019 0.0
C93 C 0.59738 0.36646 0.89766 0.0
C94 C 0.55207 0.37674 0.86687 0.0
C95 C 0.55381 0.41634 0.87116 0.0
C96 C 0.59939 0.40606 0.90162 0.0
C97 C 0.57765 0.43071 0.88859 0.0
C98 C 0.52896 0.44318 0.85896 0.0
C99 C 0.61809 0.40967 0.80918 0.0
C100 C 0.60362 0.38391 0.79271 0.0
C101 C 0.59344 0.42937 0.8233 0.0
C102 C 0.55389 0.42384 0.82105 0.0
C103 C 0.56405 0.37807 0.79051 0.0
C104 C 0.53922 0.39843 0.80443 0.0
C105 C 0.52818 0.44616 0.83544 0.0
C106 C 0.45521 0.60046 0.82712 0.0
C107 C 0.42823 0.59446 0.80969 0.0
C108 C 0.47562 0.56974 0.83568 0.0
C109 C 0.46845 0.53242 0.82741 0.0
C110 C 0.423 0.55761 0.8003 0.0
C111 C 0.44301 0.5267 0.80914 0.0
C112 C 0.48635 0.49948 0.83848 0.0
C113 C 0.40534 0.55524 0.88547 0.0
C114 C 0.4235 0.57247 0.90436 0.0
C115 C 0.42501 0.52913 0.87201 0.0
C116 C 0.46347 0.52057 0.87692 0.0
C117 C 0.46153 0.56297 0.90966 0.0
C118 C 0.48129 0.5371 0.89611 0.0
C119 C 0.48568 0.49525 0.86193 0.0
H120 H 0.57144 0.32138 0.87698 0.0
H121 H 0.53333 0.36506 0.85372 0.0
H122 H 0.61707 0.41791 0.91523 0.0
H123 H 0.57917 0.46112 0.89227 0.0
H124 H 0.64859 0.4142 0.81129 0.0
H125 H 0.6052 0.44923 0.83586 0.0
H126 H 0.55247 0.35808 0.77798 0.0
H127 H 0.50869 0.39411 0.80241 0.0
H128 H 0.46002 0.6288 0.83432 0.0
H129 H 0.49613 0.57498 0.84929 0.0
H130 H 0.40237 0.55257 0.78673 0.0
H131 H 0.4375 0.49822 0.80233 0.0
H132 H 0.3759 0.56192 0.88118 0.0
H133 H 0.41036 0.51602 0.8576 0.0
H134 H 0.47627 0.57623 0.924 0.0
H135 H 0.51089 0.53086 0.90024 0.0
N136 N 0.5075 0.46769 0.87129 0.0
N137 N 0.50708 0.47438 0.82601 0.0
C138 C 0.46168 0.889 0.07125 0.0
C139 C 0.4455 0.89991 0.05063 0.0
C140 C 0.48773 0.91268 0.08286 0.0
C141 C 0.49658 0.94892 0.07486 0.0
C142 C 0.45436 0.9361 0.04252 0.0
C143 C 0.47961 0.96037 0.05455 0.0
C144 C 0.52573 0.97353 0.08649 0.0
C145 C 0.43735 0.95492 0.1393 0.0
C146 C 0.45105 0.9344 0.15774 0.0
C147 C 0.4627 0.96849 0.12355 0.0
C148 C 0.50209 0.96152 0.12596 0.0
C149 C 0.49044 0.92762 0.16012 0.0
C150 C 0.5157 0.9413 0.14449 0.0
C151 C 0.52973 0.97695 0.11013 0.0
C152 C 0.64549 0.09756 0.12821 0.0
C153 C 0.66667 0.08065 0.1456 0.0
C154 C 0.62049 0.07557 0.11462 0.0
C155 C 0.61659 0.0363 0.11812 0.0
C156 C 0.66415 0.04103 0.14829 0.0
C157 C 0.639 0.01911 0.1348 0.0
C158 C 0.5862 0.01393 0.10636 0.0
C159 C 0.67333 0.04504 0.05755 0.0
C160 C 0.66027 0.07542 0.04447 0.0
C161 C 0.64759 0.023 0.06923 0.0
C162 C 0.60831 0.0308 0.06794 0.0
C163 C 0.62066 0.08173 0.0423 0.0
C164 C 0.59491 0.0593 0.05374 0.0
C165 C 0.58159 0.01182 0.08286 0.0
H166 H 0.45471 0.8618 0.07833 0.0
H167 H 0.5015 0.90204 0.09786 0.0
H168 H 0.44252 0.94528 0.02663 0.0
H169 H 0.4863 0.98793 0.0478 0.0
H170 H 0.40708 0.96024 0.13699 0.0
H171 H 0.4516 0.9847 0.10964 0.0
H172 H 0.50175 0.9121 0.17426 0.0
H173 H 0.54598 0.93591 0.14682 0.0
H174 H 0.64675 0.12809 0.12589 0.0
H175 H 0.60287 0.08958 0.10216 0.0
H176 H 0.68074 0.0272 0.1613 0.0
H177 H 0.63632 0.98886 0.13776 0.0
H178 H 0.7036 0.03928 0.05945 0.0
H179 H 0.65844 0.00077 0.07994 0.0
H180 H 0.60958 0.10544 0.03287 0.0
H181 H 0.5647 0.06581 0.0526 0.0
N182 N 0.55159 0.99167 0.07377 0.0
N183 N 0.56011 0.99655 0.11905 0.0
C184 C 0.04151 0.64584 0.86551 0.0
C185 C 0.08168 0.6461 0.86682 0.0
C186 C 0.02052 0.62219 0.87915 0.0
C187 C 0.0392 0.59898 0.89471 0.0
C188 C 0.10026 0.62311 0.88272 0.0
C189 C 0.07919 0.59996 0.89663 0.0
C190 C 0.01711 0.57098 0.90718 0.0
C191 C 0.09196 0.61181 0.97023 0.0
C192 C 0.08847 0.65112 0.9664 0.0
C193 C 0.06681 0.58573 0.95973 0.0
C194 C 0.03824 0.59842 0.9449 0.0
C195 C 0.05797 0.66391 0.95282 0.0
C196 C 0.03303 0.63775 0.94215 0.0
C197 C 0.01674 0.57029 0.93077 0.0
C198 C 0.95079 0.41517 0.94767 0.0
C199 C 0.92057 0.42434 0.96182 0.0
C200 C 0.97056 0.44412 0.9371 0.0
C201 C 0.96049 0.48257 0.9407 0.0
C202 C 0.91116 0.46283 0.96579 0.0
C203 C 0.93127 0.49175 0.95552 0.0
C204 C 0.97947 0.51329 0.92862 0.0
C205 C 0.90446 0.44994 0.87708 0.0
C206 C 0.92488 0.43437 0.85908 0.0
C207 C 0.9222 0.47547 0.89242 0.0
C208 C 0.96077 0.48527 0.89013 0.0
C209 C 0.96358 0.44373 0.85707 0.0
C210 C 0.98128 0.46914 0.87238 0.0
C211 C 0.97952 0.51433 0.90499 0.0
H212 H 0.02628 0.66333 0.85357 0.0
H213 H 0.98967 0.6216 0.87734 0.0
H214 H 0.13112 0.62163 0.88376 0.0
H215 H 0.09417 0.58161 0.90822 0.0
H216 H 0.11566 0.60087 0.98012 0.0
H217 H 0.0713 0.55547 0.96201 0.0
H218 H 0.05447 0.69403 0.94966 0.0
H219 H 0.01071 0.6481 0.931 0.0
H220 H 0.95835 0.38564 0.94432 0.0
H221 H 0.99332 0.43651 0.92588 0.0
H222 H 0.88794 0.47046 0.97669 0.0
H223 H 0.92319 0.52123 0.95855 0.0
H224 H 0.8745 0.44325 0.87888 0.0
H225 H 0.90552 0.48829 0.90564 0.0
H226 H 0.9801 0.43156 0.84356 0.0
H227 H 0.01105 0.47637 0.87029 0.0
N228 N -0.00158 0.54307 0.89521 0.0
N229 N 0.99804 0.5414 0.94069 0.0
C230 C 0.39218 0.54751 0.11853 0.0
C231 C 0.40635 0.5692 0.10111 0.0
C232 C 0.41746 0.52887 0.13313 0.0
C233 C 0.45709 0.5315 0.13026 0.0
C234 C 0.44587 0.57119 0.09808 0.0
C235 C 0.47099 0.55225 0.11241 0.0
C236 C 0.48467 0.51245 0.14537 0.0
C237 C 0.4332 0.60874 0.18402 0.0
C238 C 0.4159 0.59948 0.20417 0.0
C239 C 0.4559 0.5823 0.17277 0.0
C240 C 0.46061 0.54521 0.18078 0.0
C241 C 0.42139 0.56266 0.21256 0.0
C242 C 0.44347 0.53575 0.20092 0.0
C243 C 0.4854 0.51735 0.16894 0.0
C244 C 0.63451 0.43811 0.19332 0.0
C245 C 0.62338 0.41786 0.21215 0.0
C246 C 0.60781 0.45875 0.18082 0.0
C247 C 0.56894 0.45797 0.18606 0.0
C248 C 0.58492 0.4198 0.21843 0.0
C249 C 0.558 0.43953 0.20548 0.0
C250 C 0.53955 0.47589 0.17139 0.0
C251 C 0.60009 0.39025 0.12568 0.0
C252 C 0.6172 0.4075 0.10743 0.0
C253 C 0.57489 0.41101 0.13915 0.0
C254 C 0.56713 0.44948 0.13478 0.0
C255 C 0.60964 0.44601 0.10328 0.0
C256 C 0.58472 0.46671 0.11674 0.0
C257 C 0.53907 0.47184 0.14772 0.0
H258 H 0.36172 0.54551 0.12101 0.0
H259 H 0.40617 0.51246 0.14659 0.0
H260 H 0.4573 0.58742 0.08456 0.0
H261 H 0.50141 0.55441 0.1098 0.0
H262 H 0.42971 0.63681 0.17707 0.0
H263 H 0.4703 0.59129 0.15797 0.0
H264 H 0.40954 0.55493 0.22839 0.0
H265 H 0.44741 0.50764 0.20775 0.0
H266 H 0.66352 0.4368 0.18754 0.0
H267 H 0.61752 0.47427 0.16659 0.0
H268 H 0.57538 0.40511 0.23302 0.0
H269 H 0.52835 0.43927 0.21024 0.0
H270 H 0.60545 0.36051 0.12913 0.0
H271 H 0.56105 0.39691 0.1527 0.0
H272 H 0.62295 0.4601 0.08954 0.0
H273 H 0.57909 0.49632 0.11303 0.0
N274 N 0.51171 0.4903 0.13579 0.0
N275 N 0.5125 0.4984 0.18107 0.0
C276 C 0.4817 0.89112 0.38408 0.0
C277 C 0.45755 0.90624 0.36743 0.0
C278 C 0.50473 0.91534 0.3976 0.0
C279 C 0.50358 0.95505 0.39483 0.0
C280 C 0.45626 0.94593 0.36481 0.0
C281 C 0.47912 0.97008 0.37835 0.0
C282 C 0.52984 0.98095 0.40766 0.0
C283 C 0.44832 0.93927 0.45777 0.0
C284 C 0.46347 0.90769 0.46893 0.0
C285 C 0.472 0.96294 0.44583 0.0
C286 C 0.5113 0.95571 0.44502 0.0
C287 C 0.50291 0.90065 0.46839 0.0
C288 C 0.52683 0.92495 0.45677 0.0
C289 C 0.53542 0.97963 0.4311 0.0
C290 C 0.62263 0.12376 0.45191 0.0
C291 C 0.65354 0.11075 0.46498 0.0
C292 C 0.5984 0.09765 0.44063 0.0
C293 C 0.60477 0.05825 0.44234 0.0
C294 C 0.65947 0.07134 0.46699 0.0
C295 C 0.63497 0.04524 0.45592 0.0
C296 C 0.58026 0.03061 0.42975 0.0
C297 C 0.65411 0.08645 0.37897 0.0
C298 C 0.63358 0.10662 0.3626 0.0
C299 C 0.6351 0.0625 0.39343 0.0
C300 C 0.59516 0.05876 0.39199 0.0
C301 C 0.59361 0.10314 0.36134 0.0
C302 C 0.57464 0.07922 0.37578 0.0
C303 C 0.57464 0.03197 0.40629 0.0
H304 H 0.48376 0.86055 0.38609 0.0
H305 H 0.52435 0.90289 0.40963 0.0
H306 H 0.43779 0.95825 0.3521 0.0
H307 H 0.47796 0.00057 0.37581 0.0
H308 H 0.41791 0.94491 0.45773 0.0
H309 H 0.45956 0.98661 0.43689 0.0
H310 H 0.51504 0.87627 0.47677 0.0
H311 H 0.55714 0.91898 0.45627 0.0
H312 H 0.6177 0.15405 0.45008 0.0
H313 H 0.57487 0.10819 0.43043 0.0
H314 H 0.68309 0.0608 0.4771 0.0
H315 H 0.64015 0.01494 0.45751 0.0
H316 H 0.68496 0.08838 0.38018 0.0
H317 H 0.65174 0.04626 0.40537 0.0
H318 H 0.57701 0.11886 0.34914 0.0
H319 H 0.54384 0.07672 0.37431 0.0
N320 N 0.54951 0.00717 0.39618 0.0
N321 N 0.56053 0.00443 0.44135 0.0
C322 C 0.18303 0.96058 0.63922 0.0
C323 C 0.16607 0.93993 0.62112 0.0
C324 C 0.16031 0.98181 0.65398 0.0
C325 C 0.12033 0.98203 0.65098 0.0
C326 C 0.12617 0.93903 0.61871 0.0
C327 C 0.10357 0.9599 0.63344 0.0
C328 C 0.09567 0.00829 0.66398 0.0
C329 C 0.14101 0.92846 0.71589 0.0
C330 C 0.16816 0.94575 0.73056 0.0
C331 C 0.11869 0.95055 0.70161 0.0
C332 C 0.12301 0.99032 0.70189 0.0
C333 C 0.17274 0.98552 0.7308 0.0
C334 C 0.14978 0.00779 0.71676 0.0
C335 C 0.09795 0.01351 0.68754 0.0
C336 C 0.94888 0.08998 0.70402 0.0
C337 C 0.95786 0.12567 0.71388 0.0
C338 C 0.97787 0.06654 0.69591 0.0
C339 C 0.01616 0.07836 0.69782 0.0
C340 C 0.99629 0.1367 0.71675 0.0
C341 C 0.02537 0.11294 0.70895 0.0
C342 C 0.04564 0.05671 0.68582 0.0
C343 C 0.98473 0.13118 0.63682 0.0
C344 C 0.96315 0.11075 0.62043 0.0
C345 C 0.0113 0.11234 0.65035 0.0
C346 C 0.01607 0.07264 0.64805 0.0
C347 C 0.96815 0.07112 0.61798 0.0
C348 C 0.99454 0.05224 0.63164 0.0
C349 C 0.04404 0.05232 0.66231 0.0
H350 H 0.21382 0.96166 0.64132 0.0
H351 H 0.17408 -0.00069 0.66702 0.0
H352 H 0.11248 0.92284 0.60504 0.0
H353 H 0.07286 0.95952 0.63076 0.0
H354 H 0.13742 0.89772 0.71531 0.0
H355 H 0.09775 0.93663 0.69051 0.0
H356 H 0.19377 -0.00077 0.74192 0.0
H357 H 0.15317 0.03854 0.71729 0.0
H358 H 0.91941 0.081 0.70173 0.0
H359 H 0.97036 0.03984 0.68736 0.0
H360 H 0.00368 0.16406 0.72454 0.0
H361 H 0.05478 0.12247 0.71047 0.0
H362 H 0.98166 0.16183 0.6388 0.0
H363 H 0.02848 0.1289 0.66237 0.0
H364 H 0.95155 0.05476 0.60556 0.0
H365 H 0.99789 0.02163 0.62953 0.0
N366 N 0.06883 0.02807 0.65233 0.0
N367 N 0.07271 0.03746 0.69765 0.0
Zn368 Zn 0.30189 0.75798 0.96593 0.0
Zn369 Zn 0.31145 0.71237 0.00247 0.0
O370 O 0.25367 0.71261 0.99846 0.0
O371 O 0.24483 0.74868 0.96911 0.0
O372 O 0.32343 0.68343 0.03026 0.0
O373 O 0.32957 0.80209 0.98258 0.0
O374 O 0.33867 0.7621 0.01001 0.0
C375 C 0.23137 0.72788 0.98412 0.0
C376 C 0.34388 0.68694 0.95776 0.0
O377 O 0.3371 0.6814 0.97823 0.0
O378 O 0.33268 0.71744 0.94864 0.0
C379 C 0.32008 0.64764 0.03238 0.0
O380 O 0.30465 0.62705 0.01582 0.0
C381 C 0.34403 0.79452 0.00158 0.0
Zn382 Zn 0.30351 0.76434 0.28753 0.0
Zn383 Zn 0.33401 0.81032 0.25598 0.0
O384 O 0.27941 0.83015 0.25797 0.0
O385 O 0.25326 0.79283 0.28243 0.0
O386 O 0.35824 0.83843 0.23099 0.0
O387 O 0.31804 0.71613 0.26957 0.0
O388 O 0.34398 0.75542 0.24619 0.0
C389 C 0.25086 0.82099 0.26951 0.0
C390 C 0.36497 0.8157 0.30385 0.0
O391 O 0.36473 0.82638 0.28364 0.0
O392 O 0.3425 0.78947 0.30964 0.0
C393 C 0.3561 0.87393 0.22735 0.0
O394 O 0.33584 0.89586 0.24066 0.0
C395 C 0.33712 0.7216 0.2522 0.0
Zn396 Zn 0.2733 0.76988 0.47479 0.0
Zn397 Zn 0.25334 0.82056 0.5077 0.0
O398 O 0.31048 0.82997 0.50516 0.0
O399 O 0.32864 0.78754 0.47987 0.0
O400 O 0.23688 0.85695 0.53214 0.0
O401 O 0.24898 0.72709 0.49226 0.0
O402 O 0.23505 0.76907 0.51879 0.0
C403 C 0.33661 0.81521 0.49331 0.0
C404 C 0.22221 0.82964 0.45969 0.0
O405 O 0.22417 0.83985 0.4803 0.0
O406 O 0.24034 0.80042 0.45292 0.0
C407 C 0.24593 0.85317 0.5527 0.0
O408 O 0.26825 0.82478 0.55848 0.0
C409 C 0.23424 0.73493 0.51099 0.0
Zn410 Zn 0.28861 0.75445 0.74256 0.0
Zn411 Zn 0.24114 0.73665 0.77624 0.0
O412 O 0.23644 0.79454 0.7742 0.0
O413 O 0.27817 0.81042 0.74914 0.0
O414 O 0.20767 0.72256 0.80192 0.0
O415 O 0.3314 0.72533 0.75764 0.0
O416 O 0.29265 0.71307 0.785 0.0
C417 C 0.25248 0.81994 0.76278 0.0
C418 C 0.22274 0.70928 0.72812 0.0
O419 O 0.21576 0.71036 0.74894 0.0
O420 O 0.25201 0.72604 0.72104 0.0
C421 C 0.17165 0.71958 0.7993 0.0
O422 O 0.15587 0.72725 0.77975 0.0
C423 C 0.32522 0.70987 0.77614 0.0
Zn424 Zn 0.79875 0.24667 0.55073 0.0
Zn425 Zn 0.84832 0.23186 0.51656 0.0
O426 O 0.85385 0.28957 0.5209 0.0
O427 O 0.81435 0.30227 0.54823 0.0
O428 O 0.88479 0.21626 0.49256 0.0
O429 O 0.75606 0.22315 0.53115 0.0
O430 O 0.7973 0.21121 0.50468 0.0
C431 C 0.83871 0.31343 0.53445 0.0
C432 C 0.86091 0.19703 0.56289 0.0
O433 O 0.86988 0.20267 0.54276 0.0
O434 O 0.8313 0.21257 0.5708 0.0
C435 C 0.87726 0.21671 0.47166 0.0
O436 O 0.84453 0.23094 0.46465 0.0
C437 C 0.76353 0.20932 0.51195 0.0
Zn438 Zn 0.80045 0.26895 0.77891 0.0
Zn439 Zn 0.81766 0.31773 0.74582 0.0
O440 O 0.75965 0.32285 0.74844 0.0
O441 O 0.74449 0.28069 0.77343 0.0
O442 O 0.83189 0.35092 0.72005 0.0
O443 O 0.82756 0.22579 0.76284 0.0
O444 O 0.84124 0.2664 0.73679 0.0
C445 C 0.73462 0.3067 0.76012 0.0
C446 C 0.84731 0.33389 0.79359 0.0
O447 O 0.8449 0.34222 0.77299 0.0
O448 O 0.83091 0.3042 0.80038 0.0
C449 C 0.83683 0.38674 0.72251 0.0
O450 O 0.83073 0.40308 0.74213 0.0
C451 C 0.84384 0.23313 0.74475 0.0
Zn452 Zn 0.78662 0.27639 0.0388 0.0
Zn453 Zn 0.73733 0.28724 0.00358 0.0
O454 O 0.7328 0.22978 0.00762 0.0
O455 O 0.77331 0.21973 0.0356 0.0
O456 O 0.70666 0.29925 0.97585 0.0
O457 O 0.83049 0.30129 0.02239 0.0
O458 O 0.78819 0.31053 0.99539 0.0
C459 C 0.74843 0.20717 0.02145 0.0
C460 C 0.71965 0.32289 0.04913 0.0
O461 O 0.71099 0.31646 0.02856 0.0
O462 O 0.75049 0.30969 0.05742 0.0
C463 C 0.67576 0.28476 0.96798 0.0
O464 O 0.65892 0.25759 0.97887 0.0
C465 C 0.82189 0.31479 0.00346 0.0
Zn466 Zn 0.78857 0.25057 0.22397 0.0
Zn467 Zn 0.74401 0.22107 0.25651 0.0
O468 O 0.72108 0.27406 0.25221 0.0
O469 O 0.75946 0.30063 0.22836 0.0
O470 O 0.71179 0.19626 0.27955 0.0
O471 O 0.83553 0.2369 0.2428 0.0
O472 O 0.79852 0.21624 0.26919 0.0
C473 C 0.73048 0.30249 0.24066 0.0
C474 C 0.74325 0.18548 0.209 0.0
O475 O 0.7334 0.1867 0.22935 0.0
O476 O 0.76634 0.21014 0.20201 0.0
C477 C 0.71768 0.19917 0.3006 0.0
O478 O 0.74545 0.22133 0.30845 0.0
C479 C 0.83171 0.22243 0.26184 0.0
C480 C 0.1596 0.8646 0.29127 0.0
C481 C 0.16293 0.90285 0.28513 0.0
C482 C 0.18653 0.83731 0.28453 0.0
C483 C 0.21765 0.84727 0.27129 0.0
H484 H 0.13752 0.85626 0.30257 0.0
H485 H 0.18414 0.80873 0.29086 0.0
S486 S 0.23475 0.94282 0.24771 0.0
N487 N 0.19645 0.94861 0.263 0.0
N488 N 0.24678 0.89749 0.24986 0.0
C489 C 0.21907 0.88485 0.26339 0.0
C490 C 0.19187 0.91264 0.27051 0.0
C491 C 0.18201 0.68583 0.55729 0.0
C492 C 0.16357 0.65525 0.54583 0.0
C493 C 0.20597 0.71069 0.54605 0.0
C494 C 0.21288 0.70545 0.52303 0.0
H495 H 0.17665 0.69148 0.57485 0.0
H496 H 0.2185 0.73469 0.55538 0.0
S497 S 0.1734 0.62749 0.486 0.0
N498 N 0.15508 0.61969 0.51068 0.0
N499 N 0.20064 0.66578 0.48953 0.0
C500 C 0.19591 0.67377 0.51167 0.0
C501 C 0.17106 0.64888 0.52307 0.0
C502 C 0.4054 0.63774 0.77973 0.0
C503 C 0.40416 0.62626 0.80202 0.0
C504 C 0.38108 0.66639 0.77185 0.0
C505 C 0.35413 0.68395 0.78589 0.0
H506 H 0.42499 0.62414 0.76827 0.0
H507 H 0.3824 0.67366 0.75437 0.0
S508 S 0.34082 0.66445 0.84601 0.0
N509 N 0.37528 0.63514 0.83832 0.0
N510 N 0.32888 0.68856 0.82349 0.0
C511 C 0.35332 0.67319 0.80842 0.0
C512 C 0.37852 0.64443 0.81649 0.0
C513 C 0.38648 0.88604 0.02688 0.0
C514 C 0.42039 0.87306 0.03737 0.0
C515 C 0.36198 0.86072 0.01487 0.0
C516 C 0.37029 0.82156 0.01333 0.0
H517 H 0.37844 0.91582 0.0283 0.0
H518 H 0.33595 0.87165 0.00725 0.0
S519 S 0.45736 0.77372 0.03525 0.0
N520 N 0.46272 0.8189 0.04317 0.0
N521 N 0.41578 0.77131 0.02169 0.0
C522 C 0.4044 0.80837 0.02323 0.0
C523 C 0.42968 0.83411 0.03498 0.0
C524 C 0.1357 0.70154 0.95767 0.0
C525 C 0.11991 0.67751 0.97354 0.0
C526 C 0.17034 0.7205 0.96206 0.0
C527 C 0.19078 0.71585 0.9824 0.0
H528 H 0.12269 0.70366 0.94111 0.0
H529 H 0.18238 0.73666 0.94871 0.0
S530 S 0.15757 0.66252 0.03121 0.0
N531 N 0.12395 0.65513 0.01171 0.0
N532 N 0.18967 0.69013 0.01986 0.0
C533 C 0.17359 0.69467 0.99916 0.0
C534 C 0.13806 0.67559 0.99474 0.0
C535 C 0.4097 0.66667 0.21855 0.0
C536 C 0.39466 0.62942 0.21687 0.0
C537 C 0.39042 0.69605 0.2297 0.0
C538 C 0.35552 0.68945 0.2401 0.0
H539 H 0.43692 0.67327 0.21132 0.0
H540 H 0.40348 0.72411 0.23052 0.0
S541 S 0.30316 0.59748 0.24039 0.0
N542 N 0.3419 0.58782 0.22608 0.0
N543 N 0.30635 0.64307 0.24797 0.0
C544 C 0.34018 0.65236 0.23888 0.0
C545 C 0.35959 0.62236 0.2271 0.0
C546 C 0.43222 0.84389 0.47053 0.0
C547 C 0.43708 0.88102 0.47954 0.0
C548 C 0.40128 0.82121 0.47659 0.0
C549 C 0.37416 0.83488 0.49192 0.0
H550 H 0.45086 0.83334 0.45756 0.0
H551 H 0.39732 0.79378 0.46808 0.0
S552 S 0.37897 0.92792 0.52324 0.0
N553 N 0.41582 0.92871 0.50654 0.0
N554 N 0.35801 0.88619 0.51839 0.0
C555 C 0.38108 0.87069 0.50262 0.0
C556 C 0.41238 0.8938 0.49624 0.0
C557 C 0.23124 0.91659 0.73932 0.0
C558 C 0.19268 0.92125 0.74452 0.0
C559 C 0.25223 0.8857 0.74754 0.0
C560 C 0.23523 0.8585 0.7612 0.0
H561 H 0.24427 0.93498 0.72734 0.0
H562 H 0.28094 0.88144 0.74162 0.0
S563 S 0.13716 0.86374 0.78344 0.0
N564 N 0.13999 0.90053 0.76682 0.0
N565 N 0.17929 0.84272 0.7827 0.0
C566 C 0.19798 0.8658 0.76865 0.0
C567 C 0.17663 0.89705 0.76008 0.0
C568 C 0.63585 0.32304 0.78225 0.0
C569 C 0.63068 0.36216 0.77881 0.0
C570 C 0.66797 0.30397 0.77403 0.0
C571 C 0.69588 0.32343 0.76205 0.0
H572 H 0.61661 0.30784 0.79283 0.0
H573 H 0.67232 0.2745 0.77852 0.0
S574 S 0.69086 0.42466 0.74516 0.0
N575 N 0.65252 0.41857 0.76022 0.0
N576 N 0.71268 0.38291 0.74436 0.0
C577 C 0.68861 0.36165 0.7565 0.0
C578 C 0.65611 0.38105 0.76509 0.0
C579 C 0.71739 0.11774 0.05003 0.0
C580 C 0.68773 0.10363 0.0358 0.0
C581 C 0.73928 0.14929 0.04427 0.0
C582 C 0.73215 0.1684 0.02413 0.0
H583 H 0.72221 0.10597 0.06646 0.0
H584 H 0.76011 0.16029 0.0565 0.0
S585 S 0.66302 0.13796 0.97901 0.0
N586 N 0.65654 0.10725 0.9991 0.0
N587 N 0.69704 0.16728 0.98844 0.0
C588 C 0.7048 0.15258 0.00888 0.0
C589 C 0.68269 0.12014 0.0147 0.0
C590 C 0.92702 0.17439 0.27212 0.0
C591 C 0.92636 0.16657 0.29503 0.0
C592 C 0.89736 0.19484 0.26183 0.0
C593 C 0.86558 0.20737 0.27401 0.0
H594 H 0.95017 0.16379 0.262 0.0
H595 H 0.89843 0.19904 0.24395 0.0
S596 S 0.85183 0.19581 0.33488 0.0
N597 N 0.89297 0.17457 0.32996 0.0
N598 N 0.83659 0.21229 0.31058 0.0
C599 C 0.86538 0.20082 0.29716 0.0
C600 C 0.89595 0.18058 0.30768 0.0
C601 C 0.86618 0.40887 0.56107 0.0
C602 C 0.89291 0.42322 0.54623 0.0
C603 C 0.84679 0.37461 0.55631 0.0
C604 C 0.85362 0.35303 0.5366 0.0
H605 H 0.86179 0.42297 0.57715 0.0
H606 H 0.82803 0.36396 0.56888 0.0
S607 S 0.91577 0.38165 0.49042 0.0
N608 N 0.92123 0.41613 0.50961 0.0
N609 N 0.8854 0.35107 0.5008 0.0
C610 C 0.87822 0.36843 0.52086 0.0
C611 C 0.89776 0.40361 0.52566 0.0
C612 C 0.71941 0.13592 0.47152 0.0
C613 C 0.68036 0.1381 0.47611 0.0
C614 C 0.74581 0.16028 0.48253 0.0
C615 C 0.73419 0.18729 0.49885 0.0
H616 H 0.72964 0.115 0.45942 0.0
H617 H 0.77572 0.15694 0.47872 0.0
S618 S 0.63457 0.20514 0.51615 0.0
N619 N 0.63085 0.17006 0.49723 0.0
N620 N 0.68051 0.21572 0.51831 0.0
C621 C 0.69497 0.19029 0.5032 0.0
C622 C 0.66803 0.16574 0.49172 0.0
C623 C 0.9012 0.14218 0.73668 0.0
C624 C 0.92707 0.15215 0.72025 0.0
C625 C 0.87318 0.16797 0.7438 0.0
C626 C 0.86982 0.20448 0.73454 0.0
H627 H 0.9034 0.11472 0.74455 0.0
H628 H 0.85473 0.15952 0.7571 0.0
S629 S 0.92826 0.24178 0.68875 0.0
N630 N 0.94596 0.199 0.69344 0.0
N631 N 0.89318 0.2476 0.70648 0.0
C632 C 0.89445 0.21381 0.71716 0.0
C633 C 0.92317 0.18763 0.71013 0.0
C634 C 0.85808 0.39185 0.9659 0.0
C635 C 0.89717 0.39402 0.97149 0.0
C636 C 0.83452 0.36497 0.97565 0.0
C637 C 0.84898 0.33959 0.99173 0.0
H638 H 0.84554 0.41139 0.95403 0.0
H639 H 0.80441 0.36507 0.97104 0.0
S640 S 0.95013 0.33293 0.01127 0.0
N641 N 0.94998 0.36782 0.99318 0.0
N642 N 0.90557 0.31755 0.01202 0.0
C643 C 0.88836 0.34095 0.99707 0.0
C644 C 0.91249 0.36807 0.98681 0.0
C645 C 0.63831 0.35485 0.2293 0.0
C646 C 0.65068 0.39154 0.22356 0.0
C647 C 0.66421 0.32713 0.23662 0.0
C648 C 0.70362 0.33468 0.23807 0.0
H649 H 0.60867 0.34657 0.22691 0.0
H650 H 0.65348 0.29875 0.23964 0.0
S651 S 0.75029 0.42778 0.22906 0.0
N652 N 0.7046 0.43552 0.2234 0.0
N653 N 0.75348 0.38247 0.23585 0.0
C654 C 0.71624 0.37176 0.2338 0.0
C655 C 0.68975 0.40038 0.22686 0.0
C656 C 0.15926 0.90878 0.43713 0.0
C657 C 0.16176 0.90401 0.41378 0.0
C658 C 0.17811 0.88403 0.45172 0.0
C659 C 0.20036 0.85345 0.44359 0.0
H660 H 0.14253 0.93189 0.44421 0.0
H661 H 0.17545 0.88927 0.46957 0.0
S662 S 0.21637 0.82901 0.38362 0.0
N663 N 0.18824 0.86676 0.38304 0.0
N664 N 0.22363 0.81992 0.41038 0.0
C665 C 0.20269 0.84807 0.42018 0.0
C666 C 0.1834 0.87339 0.40531 0.0
C667 C 0.17696 0.67411 0.67304 0.0
C668 C 0.14498 0.65369 0.6799 0.0
C669 C 0.20208 0.69163 0.68876 0.0
C670 C 0.19602 0.68959 0.71196 0.0
H671 H 0.18294 0.67604 0.65539 0.0
H672 H 0.22639 0.70695 0.68261 0.0
S673 S 0.11494 0.64079 0.73834 0.0
N674 N 0.10752 0.63342 0.71118 0.0
N675 N 0.15473 0.66596 0.74083 0.0
C676 C 0.16374 0.6695 0.71897 0.0
C677 C 0.13824 0.65165 0.70293 0.0
C678 C 0.3855 0.63246 0.90823 0.0
C679 C 0.40302 0.60093 0.91827 0.0
C680 C 0.36671 0.66027 0.92112 0.0
C681 C 0.36448 0.65739 0.94454 0.0
H682 H 0.38679 0.63592 0.8903 0.0
H683 H 0.35371 0.68408 0.91261 0.0
S684 S 0.40499 0.57919 0.9787 0.0
N685 N 0.41642 0.56769 0.95275 0.0
N686 N 0.38131 0.61977 0.97714 0.0
C687 C 0.38176 0.62566 0.95473 0.0
C688 C 0.40101 0.59751 0.94157 0.0
C689 C 0.42685 0.88109 0.18045 0.0
C690 C 0.4247 0.9196 0.17457 0.0
C691 C 0.40401 0.86662 0.19717 0.0
C692 C 0.37824 0.89014 0.20889 0.0
H693 H 0.44654 0.86197 0.17211 0.0
H694 H 0.40716 0.83679 0.20115 0.0
S695 S 0.36152 0.99324 0.19949 0.0
N696 N 0.3946 0.98106 0.18143 0.0
N697 N 0.35146 0.954 0.21293 0.0
C698 C 0.37539 0.92869 0.2029 0.0
C699 C 0.3986 0.94336 0.18571 0.0
C700 C 0.09261 0.66636 0.82755 0.0
C701 C 0.10397 0.66765 0.85034 0.0
C702 C 0.11412 0.6842 0.81133 0.0
C703 C 0.14821 0.70366 0.81716 0.0
H704 H 0.06742 0.65047 0.82201 0.0
H705 H 0.10453 0.68159 0.79398 0.0
S706 S 0.18871 0.71883 0.8747 0.0
N707 N 0.14997 0.69294 0.87811 0.0
N708 N 0.19116 0.72533 0.84748 0.0
C709 C 0.15952 0.70604 0.83992 0.0
C710 C 0.13727 0.68831 0.85653 0.0
C711 C 0.35485 0.57023 0.0714 0.0
C712 C 0.38045 0.59013 0.08591 0.0
C713 C 0.33421 0.58929 0.05463 0.0
C714 C 0.33827 0.62894 0.05196 0.0
H715 H 0.35204 0.53952 0.07239 0.0
H716 H 0.31586 0.57259 0.04327 0.0
S717 S 0.39926 0.69419 0.08761 0.0
N718 N 0.40694 0.65149 0.09784 0.0
N719 N 0.36808 0.68769 0.06669 0.0
C720 C 0.36242 0.64933 0.0673 0.0
C721 C 0.38357 0.62981 0.08416 0.0
C722 C 0.43796 0.88565 0.32865 0.0
C723 C 0.43526 0.88088 0.35183 0.0
C724 C 0.41598 0.86358 0.31337 0.0
C725 C 0.39021 0.83586 0.32063 0.0
H726 H 0.45712 0.90686 0.32226 0.0
H727 H 0.41889 0.86886 0.29571 0.0
S728 S 0.3731 0.81201 0.37984 0.0
N729 N 0.40557 0.84624 0.38151 0.0
N730 N 0.36401 0.80442 0.35282 0.0
C731 C 0.38789 0.83019 0.34385 0.0
C732 C 0.41048 0.85275 0.35943 0.0
C733 C 0.21496 0.89155 0.60962 0.0
C734 C 0.18949 0.92083 0.60388 0.0
C735 C 0.23407 0.87054 0.59299 0.0
C736 C 0.22851 0.87827 0.57008 0.0
H737 H 0.21904 0.88395 0.62698 0.0
H738 H 0.25249 0.8474 0.59816 0.0
S739 S 0.1681 0.95572 0.54688 0.0
N740 N 0.16211 0.95893 0.57418 0.0
N741 N 0.19798 0.91993 0.54291 0.0
C742 C 0.20447 0.90892 0.56433 0.0
C743 C 0.18497 0.93006 0.58124 0.0
C744 C 0.5995 0.31425 0.92547 0.0
C745 C 0.61892 0.34094 0.91273 0.0
C746 C 0.61846 0.29472 0.94272 0.0
C747 C 0.65744 0.30131 0.94778 0.0
H748 H 0.56907 0.30991 0.92286 0.0
H749 H 0.60201 0.27569 0.95276 0.0
S750 S 0.72212 0.36412 0.9167 0.0
N751 N 0.67979 0.36983 0.9045 0.0
N752 N 0.71565 0.33323 0.93668 0.0
C753 C 0.67761 0.32613 0.93407 0.0
C754 C 0.65828 0.34593 0.91661 0.0
C755 C 0.71368 0.13303 0.1548 0.0
C756 C 0.68852 0.1049 0.16207 0.0
C757 C 0.73222 0.1582 0.17013 0.0
C758 C 0.72599 0.1564 0.1933 0.0
H759 H 0.71874 0.13585 0.13709 0.0
H760 H 0.75085 0.17979 0.16367 0.0
S761 S 0.66272 0.08738 0.22082 0.0
N762 N 0.65831 0.07647 0.19385 0.0
N763 N 0.69335 0.12318 0.22271 0.0
C764 C 0.70142 0.12774 0.20078 0.0
C765 C 0.68265 0.10216 0.18517 0.0
C766 C 0.91872 0.18065 0.41682 0.0
C767 C 0.94937 0.1576 0.42388 0.0
C768 C 0.89621 0.20044 0.43235 0.0
C769 C 0.90342 0.19793 0.45557 0.0
H770 H 0.91197 0.18328 0.39912 0.0
H771 H 0.87267 0.21744 0.42606 0.0
S772 S 0.98004 0.14058 0.48269 0.0
N773 N 0.98543 0.13281 0.45559 0.0
N774 N 0.94375 0.17034 0.48479 0.0
C775 C 0.93442 0.17534 0.46283 0.0
C776 C 0.95721 0.15512 0.44699 0.0
C777 C 0.89072 0.46419 0.69316 0.0
C778 C 0.89067 0.4512 0.67065 0.0
C779 C 0.87228 0.44371 0.7096 0.0
C780 C 0.85332 0.40912 0.7043 0.0
H781 H 0.90611 0.48989 0.69832 0.0
H782 H 0.874 0.45457 0.72674 0.0
S783 S 0.84154 0.36439 0.64753 0.0
N784 N 0.8673 0.40304 0.64363 0.0
N785 N 0.83356 0.3639 0.67465 0.0
C786 C 0.85216 0.39621 0.68178 0.0
C787 C 0.87062 0.41735 0.66495 0.0
C788 C 0.68147 0.15728 0.35431 0.0
C789 C 0.65396 0.13052 0.34652 0.0
C790 C 0.70146 0.17971 0.33937 0.0
C791 C 0.69488 0.17614 0.31604 0.0
H792 H 0.68746 0.16104 0.37211 0.0
H793 H 0.72243 0.19982 0.34624 0.0
S794 S 0.62675 0.10874 0.28714 0.0
N795 N 0.62191 0.10074 0.31404 0.0
N796 N 0.65905 0.1429 0.28594 0.0
C797 C 0.66737 0.14934 0.30807 0.0
C798 C 0.64704 0.12657 0.3233 0.0
C799 C 0.90835 0.15529 0.61458 0.0
C800 C 0.93629 0.13112 0.60548 0.0
C801 C 0.88342 0.1758 0.60068 0.0
C802 C 0.88595 0.17326 0.5772 0.0
H803 H 0.90579 0.15838 0.63258 0.0
H804 H 0.86259 0.19437 0.60844 0.0
S805 S 0.95456 0.11365 0.54523 0.0
N806 N 0.96521 0.10556 0.57176 0.0
N807 N 0.91853 0.14396 0.54553 0.0
C808 C 0.9137 0.14883 0.56794 0.0
C809 C 0.9388 0.12778 0.58211 0.0
C810 C 0.88492 0.37716 0.8488 0.0
C811 C 0.90565 0.40905 0.8421 0.0
C812 C 0.86665 0.35276 0.83297 0.0
C813 C 0.86817 0.35952 0.80984 0.0
H814 H 0.88307 0.37086 0.8664 0.0
H815 H 0.85096 0.3286 0.839 0.0
S816 S 0.91804 0.44032 0.78386 0.0
N817 N 0.92605 0.44691 0.81103 0.0
N818 N 0.89211 0.40104 0.78119 0.0
C819 C 0.88884 0.39153 0.80298 0.0
C820 C 0.90749 0.41628 0.81913 0.0
C821 C 0.6742 0.36593 0.10118 0.0
C822 C 0.64242 0.38541 0.09239 0.0
C823 C 0.69922 0.34616 0.08706 0.0
C824 C 0.69314 0.3448 0.06362 0.0
H825 H 0.68009 0.36648 0.11908 0.0
H826 H 0.72339 0.33168 0.09464 0.0
S827 S 0.61263 0.39007 0.03252 0.0
N828 N 0.6053 0.40135 0.05906 0.0
N829 N 0.65208 0.36435 0.03243 0.0
C830 C 0.66102 0.3639 0.0547 0.0
C831 C 0.63575 0.38415 0.0691 0.0
loop_
_geom_bond_atom_site_label_1
_geom_bond_atom_site_label_2
_geom_bond_distance
_geom_bond_site_symmetry_2
_ccdc_geom_bond_type
C0 C1 1.384 . S
C0 C2 1.384 . S
C0 H28 0.931 . S
C1 C0 1.384 . S
C1 C4 1.382 . S
C2 C0 1.384 . S
C2 C3 1.381 . S
C2 H29 0.930 . S
C3 C2 1.381 . S
C3 C5 1.381 1_565 S
C3 C6 1.487 1_565 S
C4 C1 1.382 . S
C4 C5 1.387 1_565 S
C4 H30 0.930 . S
C5 C3 1.381 1_545 S
C5 C4 1.387 1_545 S
C5 H31 0.931 . S
C6 C3 1.487 1_545 S
C6 C13 1.399 1_545 S
C6 N44 1.343 . S
C7 C8 1.384 . S
C7 C9 1.384 . S
C7 H32 0.931 . S
C8 C7 1.384 . S
C8 C11 1.382 . S
C9 C7 1.384 . S
C9 C10 1.381 . S
C9 H33 0.930 . S
C10 C9 1.381 . S
C10 C12 1.381 . S
C10 C13 1.487 . S
C11 C8 1.382 . S
C11 C12 1.387 . S
C11 H34 0.930 . S
C12 C10 1.381 . S
C12 C11 1.387 . S
C12 H35 0.931 . S
C13 C6 1.399 1_565 S
C13 C10 1.487 . S
C13 N45 1.343 1_565 S
C14 C15 1.384 . S
C14 C16 1.384 1_655 S
C14 H36 0.931 . S
C15 C14 1.384 . S
C15 C18 1.382 . S
C16 C14 1.384 1_455 S
C16 C17 1.381 . S
C16 H37 0.930 . S
C17 C16 1.381 . S
C17 C19 1.381 1_455 S
C17 C20 1.487 . S
C18 C15 1.382 . S
C18 C19 1.387 . S
C18 H38 0.930 . S
C19 C17 1.381 1_655 S
C19 C18 1.387 . S
C19 H39 0.931 1_655 S
C20 C17 1.487 . S
C20 C27 1.399 . S
C20 N45 1.343 . S
C21 C22 1.384 . S
C21 C23 1.384 . S
C21 H40 0.931 . S
C22 C21 1.384 . S
C22 C25 1.382 1_655 S
C23 C21 1.384 . S
C23 C24 1.381 1_655 S
C23 H41 0.930 . S
C24 C23 1.381 1_455 S
C24 C26 1.381 . S
C24 C27 1.487 . S
C25 C22 1.382 1_455 S
C25 C26 1.387 . S
C25 H42 0.930 . S
C26 C24 1.381 . S
C26 C25 1.387 . S
C26 H43 0.931 . S
C27 C20 1.399 . S
C27 C24 1.487 . S
C27 N44 1.343 . S
H28 C0 0.931 . S
H29 C2 0.930 . S
H30 C4 0.930 . S
H31 C5 0.931 . S
H32 C7 0.931 . S
H33 C9 0.930 . S
H34 C11 0.930 . S
H35 C12 0.931 . S
H36 C14 0.931 . S
H37 C16 0.930 . S
H38 C18 0.930 . S
H39 C19 0.931 1_455 S
H40 C21 0.931 . S
H41 C23 0.930 . S
H42 C25 0.930 . S
H43 C26 0.931 . S
N44 C6 1.343 . S
N44 C27 1.343 . S
N45 C13 1.343 1_545 S
N45 C20 1.343 . S
C46 C47 1.384 . S
C46 C48 1.384 . S
C46 H74 0.931 . S
C47 C46 1.384 . S
C47 C50 1.382 . S
C48 C46 1.384 . S
C48 C49 1.381 . S
C48 H75 0.930 . S
C49 C48 1.381 . S
C49 C51 1.381 . S
C49 C52 1.487 . S
C50 C47 1.382 . S
C50 C51 1.387 . S
C50 H76 0.930 . S
C51 C49 1.381 . S
C51 C50 1.387 . S
C51 H77 0.931 1_655 S
C52 C49 1.487 . S
C52 C59 1.399 . S
C52 N90 1.343 1_655 S
C53 C54 1.384 . S
C53 C55 1.384 . S
C53 H78 0.931 . S
C54 C53 1.384 . S
C54 C57 1.382 . S
C55 C53 1.384 . S
C55 C56 1.381 . S
C55 H79 0.930 . S
C56 C55 1.381 . S
C56 C58 1.381 . S
C56 C59 1.487 . S
C57 C54 1.382 . S
C57 C58 1.387 . S
C57 H80 0.930 . S
C58 C56 1.381 . S
C58 C57 1.387 . S
C58 H81 0.931 . S
C59 C52 1.399 . S
C59 C56 1.487 . S
C59 N91 1.343 1_655 S
C60 C61 1.384 . S
C60 C62 1.384 . S
C60 H82 0.931 . S
C61 C60 1.384 . S
C61 C64 1.382 . S
C62 C60 1.384 . S
C62 C63 1.381 . S
C62 H83 0.930 . S
C63 C62 1.381 . S
C63 C65 1.381 . S
C63 C66 1.487 . S
C64 C61 1.382 . S
C64 C65 1.387 . S
C64 H84 0.930 . S
C65 C63 1.381 . S
C65 C64 1.387 . S
C65 H85 0.931 . S
C66 C63 1.487 . S
C66 C73 1.399 . S
C66 N91 1.343 . S
C67 C68 1.384 . S
C67 C69 1.384 . S
C67 H86 0.931 . S
C68 C67 1.384 . S
C68 C71 1.382 . S
C69 C67 1.384 . S
C69 C70 1.381 . S
C69 H87 0.930 . S
C70 C69 1.381 . S
C70 C72 1.381 . S
C70 C73 1.487 . S
C71 C68 1.382 . S
C71 C72 1.387 . S
C71 H88 0.930 . S
C72 C70 1.381 . S
C72 C71 1.387 . S
C72 H89 0.931 . S
C73 C66 1.399 . S
C73 C70 1.487 . S
C73 N90 1.343 . S
H74 C46 0.931 . S
H75 C48 0.930 . S
H76 C50 0.930 . S
H77 C51 0.931 1_455 S
H78 C53 0.931 . S
H79 C55 0.930 . S
H80 C57 0.930 . S
H81 C58 0.931 . S
H82 C60 0.931 . S
H83 C62 0.930 . S
H84 C64 0.930 . S
H85 C65 0.931 . S
H86 C67 0.931 . S
H87 C69 0.930 . S
H88 C71 0.930 . S
H89 C72 0.931 . S
N90 C52 1.343 1_455 S
N90 C73 1.343 . S
N91 C59 1.343 1_455 S
N91 C66 1.343 . S
C92 C93 1.384 . S
C92 C94 1.384 . S
C92 H120 0.931 . S
C93 C92 1.384 . S
C93 C96 1.382 . S
C94 C92 1.384 . S
C94 C95 1.381 . S
C94 H121 0.930 . S
C95 C94 1.381 . S
C95 C97 1.381 . S
C95 C98 1.487 . S
C96 C93 1.382 . S
C96 C97 1.387 . S
C96 H122 0.930 . S
C97 C95 1.381 . S
C97 C96 1.387 . S
C97 H123 0.931 . S
C98 C95 1.487 . S
C98 C105 1.399 . S
C98 N136 1.343 . S
C99 C100 1.384 . S
C99 C101 1.384 . S
C99 H124 0.931 . S
C100 C99 1.384 . S
C100 C103 1.382 . S
C101 C99 1.384 . S
C101 C102 1.381 . S
C101 H125 0.930 . S
C102 C101 1.381 . S
C102 C104 1.381 . S
C102 C105 1.487 . S
C103 C100 1.382 . S
C103 C104 1.387 . S
C103 H126 0.930 . S
C104 C102 1.381 . S
C104 C103 1.387 . S
C104 H127 0.931 . S
C105 C98 1.399 . S
C105 C102 1.487 . S
C105 N137 1.343 . S
C106 C107 1.384 . S
C106 C108 1.384 . S
C106 H128 0.931 . S
C107 C106 1.384 . S
C107 C110 1.382 . S
C108 C106 1.384 . S
C108 C109 1.381 . S
C108 H129 0.930 . S
C109 C108 1.381 . S
C109 C111 1.381 . S
C109 C112 1.487 . S
C110 C107 1.382 . S
C110 C111 1.387 . S
C110 H130 0.930 . S
C111 C109 1.381 . S
C111 C110 1.387 . S
C111 H131 0.931 . S
C112 C109 1.487 . S
C112 C119 1.399 . S
C112 N137 1.343 . S
C113 C114 1.384 . S
C113 C115 1.384 . S
C113 H132 0.931 . S
C114 C113 1.384 . S
C114 C117 1.382 . S
C115 C113 1.384 . S
C115 C116 1.381 . S
C115 H133 0.930 . S
C116 C115 1.381 . S
C116 C118 1.381 . S
C116 C119 1.487 . S
C117 C114 1.382 . S
C117 C118 1.387 . S
C117 H134 0.930 . S
C118 C116 1.381 . S
C118 C117 1.387 . S
C118 H135 0.931 . S
C119 C112 1.399 . S
C119 C116 1.487 . S
C119 N136 1.343 . S
H120 C92 0.931 . S
H121 C94 0.930 . S
H122 C96 0.930 . S
H123 C97 0.931 . S
H124 C99 0.931 . S
H125 C101 0.930 . S
H126 C103 0.930 . S
H127 C104 0.931 . S
H128 C106 0.931 . S
H129 C108 0.930 . S
H130 C110 0.930 . S
H131 C111 0.931 . S
H132 C113 0.931 . S
H133 C115 0.930 . S
H134 C117 0.930 . S
H135 C118 0.931 . S
N136 C98 1.343 . S
N136 C119 1.343 . S
N137 C105 1.343 . S
N137 C112 1.343 . S
C138 C139 1.384 . S
C138 C140 1.384 . S
C138 H166 0.931 . S
C139 C138 1.384 . S
C139 C142 1.382 . S
C140 C138 1.384 . S
C140 C141 1.381 . S
C140 H167 0.930 . S
C141 C140 1.381 . S
C141 C143 1.381 . S
C141 C144 1.487 . S
C142 C139 1.382 . S
C142 C143 1.387 . S
C142 H168 0.930 . S
C143 C141 1.381 . S
C143 C142 1.387 . S
C143 H169 0.931 . S
C144 C141 1.487 . S
C144 C151 1.399 . S
C144 N182 1.343 1_565 S
C145 C146 1.384 . S
C145 C147 1.384 . S
C145 H170 0.931 . S
C146 C145 1.384 . S
C146 C149 1.382 . S
C147 C145 1.384 . S
C147 C148 1.381 . S
C147 H171 0.930 . S
C148 C147 1.381 . S
C148 C150 1.381 . S
C148 C151 1.487 . S
C149 C146 1.382 . S
C149 C150 1.387 . S
C149 H172 0.930 . S
C150 C148 1.381 . S
C150 C149 1.387 . S
C150 H173 0.931 . S
C151 C144 1.399 . S
C151 C148 1.487 . S
C151 N183 1.343 . S
C152 C153 1.384 . S
C152 C154 1.384 . S
C152 H174 0.931 . S
C153 C152 1.384 . S
C153 C156 1.382 . S
C154 C152 1.384 . S
C154 C155 1.381 . S
C154 H175 0.930 . S
C155 C154 1.381 . S
C155 C157 1.381 . S
C155 C158 1.487 . S
C156 C153 1.382 . S
C156 C157 1.387 . S
C156 H176 0.930 . S
C157 C155 1.381 . S
C157 C156 1.387 . S
C157 H177 0.931 . S
C158 C155 1.487 . S
C158 C165 1.399 . S
C158 N183 1.343 1_545 S
C159 C160 1.384 . S
C159 C161 1.384 . S
C159 H178 0.931 . S
C160 C159 1.384 . S
C160 C163 1.382 . S
C161 C159 1.384 . S
C161 C162 1.381 . S
C161 H179 0.930 . S
C162 C161 1.381 . S
C162 C164 1.381 . S
C162 C165 1.487 . S
C163 C160 1.382 . S
C163 C164 1.387 . S
C163 H180 0.930 . S
C164 C162 1.381 . S
C164 C163 1.387 . S
C164 H181 0.931 . S
C165 C158 1.399 . S
C165 C162 1.487 . S
C165 N182 1.343 . S
H166 C138 0.931 . S
H167 C140 0.930 . S
H168 C142 0.930 . S
H169 C143 0.931 . S
H170 C145 0.931 . S
H171 C147 0.930 . S
H172 C149 0.930 . S
H173 C150 0.931 . S
H174 C152 0.931 . S
H175 C154 0.930 . S
H176 C156 0.930 . S
H177 C157 0.931 . S
H178 C159 0.931 . S
H179 C161 0.930 . S
H180 C163 0.930 . S
H181 C164 0.931 . S
N182 C144 1.343 1_545 S
N182 C165 1.343 . S
N183 C151 1.343 . S
N183 C158 1.343 1_565 S
C184 C185 1.384 . S
C184 C186 1.384 . S
C184 H212 0.931 . S
C185 C184 1.384 . S
C185 C188 1.382 . S
C186 C184 1.384 . S
C186 C187 1.381 . S
C186 H213 0.930 . S
C187 C186 1.381 . S
C187 C189 1.381 . S
C187 C190 1.487 . S
C188 C185 1.382 . S
C188 C189 1.387 . S
C188 H214 0.930 . S
C189 C187 1.381 . S
C189 C188 1.387 . S
C189 H215 0.931 . S
C190 C187 1.487 . S
C190 C197 1.399 . S
C190 N228 1.357 . S
C191 C192 1.384 . S
C191 C193 1.384 . S
C191 H216 0.931 . S
C192 C191 1.384 . S
C192 C195 1.382 . S
C193 C191 1.384 . S
C193 C194 1.381 . S
C193 H217 0.930 . S
C194 C193 1.381 . S
C194 C196 1.381 . S
C194 C197 1.487 . S
C195 C192 1.382 . S
C195 C196 1.387 . S
C195 H218 0.930 1_556 S
C196 C194 1.381 . S
C196 C195 1.387 . S
C196 H219 0.931 . S
C197 C190 1.399 . S
C197 C194 1.487 . S
C197 N229 1.333 1_455 S
C198 C199 1.384 . S
C198 C200 1.384 . S
C198 H220 0.931 . S
C199 C198 1.384 . S
C199 C202 1.382 . S
C200 C198 1.384 . S
C200 C201 1.381 . S
C200 H221 0.930 . S
C201 C200 1.381 . S
C201 C203 1.381 . S
C201 C204 1.487 . S
C202 C199 1.382 . S
C202 C203 1.387 . S
C202 H222 0.930 . S
C203 C201 1.381 . S
C203 C202 1.387 . S
C203 H223 0.931 . S
C204 C201 1.487 . S
C204 C211 1.399 . S
C204 N229 1.352 . S
C205 C206 1.384 . S
C205 C207 1.384 . S
C205 H224 0.931 . S
C206 C205 1.384 . S
C206 C209 1.382 . S
C207 C205 1.384 . S
C207 C208 1.381 . S
C207 H225 0.930 . S
C208 C207 1.381 . S
C208 C210 1.381 . S
C208 C211 1.487 . S
C209 C206 1.382 . S
C209 C210 1.387 . S
C209 H226 0.930 . S
C210 C208 1.381 . S
C210 C209 1.387 . S
C210 H227 0.931 . S
C211 C204 1.399 . S
C211 C208 1.487 . S
C211 N228 1.328 1_655 S
H212 C184 0.931 . S
H213 C186 0.930 . S
H214 C188 0.930 . S
H215 C189 0.931 . S
H216 C191 0.931 . S
H217 C193 0.930 . S
H218 C195 0.930 1_554 S
H219 C196 0.931 . S
H220 C198 0.931 . S
H221 C200 0.930 . S
H222 C202 0.930 . S
H223 C203 0.931 . S
H224 C205 0.931 . S
H225 C207 0.930 . S
H226 C209 0.930 . S
H227 C210 0.931 . S
N228 C190 1.357 . S
N228 C211 1.328 1_455 S
N229 C197 1.333 1_655 S
N229 C204 1.352 . S
C230 C231 1.384 . S
C230 C232 1.384 . S
C230 H258 0.931 . S
C231 C230 1.384 . S
C231 C234 1.382 . S
C232 C230 1.384 . S
C232 C233 1.381 . S
C232 H259 0.930 . S
C233 C232 1.381 . S
C233 C235 1.381 . S
C233 C236 1.487 . S
C234 C231 1.382 . S
C234 C235 1.387 . S
C234 H260 0.930 . S
C235 C233 1.381 . S
C235 C234 1.387 . S
C235 H261 0.931 . S
C236 C233 1.487 . S
C236 C243 1.399 . S
C236 N274 1.343 . S
C237 C238 1.384 . S
C237 C239 1.384 . S
C237 H262 0.931 . S
C238 C237 1.384 . S
C238 C241 1.382 . S
C239 C237 1.384 . S
C239 C240 1.381 . S
C239 H263 0.930 . S
C240 C239 1.381 . S
C240 C242 1.381 . S
C240 C243 1.487 . S
C241 C238 1.382 . S
C241 C242 1.387 . S
C241 H264 0.930 . S
C242 C240 1.381 . S
C242 C241 1.387 . S
C242 H265 0.931 . S
C243 C236 1.399 . S
C243 C240 1.487 . S
C243 N275 1.343 . S
C244 C245 1.384 . S
C244 C246 1.384 . S
C244 H266 0.931 . S
C245 C244 1.384 . S
C245 C248 1.382 . S
C246 C244 1.384 . S
C246 C247 1.381 . S
C246 H267 0.930 . S
C247 C246 1.381 . S
C247 C249 1.381 . S
C247 C250 1.487 . S
C248 C245 1.382 . S
C248 C249 1.387 . S
C248 H268 0.930 . S
C249 C247 1.381 . S
C249 C248 1.387 . S
C249 H269 0.931 . S
C250 C247 1.487 . S
C250 C257 1.399 . S
C250 N275 1.343 . S
C251 C252 1.384 . S
C251 C253 1.384 . S
C251 H270 0.931 . S
C252 C251 1.384 . S
C252 C255 1.382 . S
C253 C251 1.384 . S
C253 C254 1.381 . S
C253 H271 0.930 . S
C254 C253 1.381 . S
C254 C256 1.381 . S
C254 C257 1.487 . S
C255 C252 1.382 . S
C255 C256 1.387 . S
C255 H272 0.930 . S
C256 C254 1.381 . S
C256 C255 1.387 . S
C256 H273 0.931 . S
C257 C250 1.399 . S
C257 C254 1.487 . S
C257 N274 1.343 . S
H258 C230 0.931 . S
H259 C232 0.930 . S
H260 C234 0.930 . S
H261 C235 0.931 . S
H262 C237 0.931 . S
H263 C239 0.930 . S
H264 C241 0.930 . S
H265 C242 0.931 . S
H266 C244 0.931 . S
H267 C246 0.930 . S
H268 C248 0.930 . S
H269 C249 0.931 . S
H270 C251 0.931 . S
H271 C253 0.930 . S
H272 C255 0.930 . S
H273 C256 0.931 . S
N274 C236 1.343 . S
N274 C257 1.343 . S
N275 C243 1.343 . S
N275 C250 1.343 . S
C276 C277 1.384 . S
C276 C278 1.384 . S
C276 H304 0.931 . S
C277 C276 1.384 . S
C277 C280 1.382 . S
C278 C276 1.384 . S
C278 C279 1.381 . S
C278 H305 0.930 . S
C279 C278 1.381 . S
C279 C281 1.381 . S
C279 C282 1.487 . S
C280 C277 1.382 . S
C280 C281 1.387 . S
C280 H306 0.930 . S
C281 C279 1.381 . S
C281 C280 1.387 . S
C281 H307 0.960 . S
C282 C279 1.487 . S
C282 C289 1.399 . S
C282 N320 1.333 1_565 S
C283 C284 1.384 . S
C283 C285 1.384 . S
C283 H308 0.931 . S
C284 C283 1.384 . S
C284 C287 1.382 . S
C285 C283 1.384 . S
C285 C286 1.381 . S
C285 H309 0.930 . S
C286 C285 1.381 . S
C286 C288 1.381 . S
C286 C289 1.487 . S
C287 C284 1.382 . S
C287 C288 1.387 . S
C287 H310 0.930 . S
C288 C286 1.381 . S
C288 C287 1.387 . S
C288 H311 0.931 . S
C289 C282 1.399 . S
C289 C286 1.487 . S
C289 N321 1.349 . S
C290 C291 1.384 . S
C290 C292 1.384 . S
C290 H312 0.931 . S
C291 C290 1.384 . S
C291 C294 1.382 . S
C292 C290 1.384 . S
C292 C293 1.381 . S
C292 H313 0.930 . S
C293 C292 1.381 . S
C293 C295 1.381 . S
C293 C296 1.487 . S
C294 C291 1.382 . S
C294 C295 1.387 . S
C294 H314 0.930 . S
C295 C293 1.381 . S
C295 C294 1.387 . S
C295 H315 0.931 . S
C296 C293 1.487 . S
C296 C303 1.399 . S
C296 N321 1.337 1_545 S
C297 C298 1.384 . S
C297 C299 1.384 . S
C297 H316 0.931 . S
C298 C297 1.384 . S
C298 C301 1.382 . S
C299 C297 1.384 . S
C299 C300 1.381 . S
C299 H317 0.930 . S
C300 C299 1.381 . S
C300 C302 1.381 . S
C300 C303 1.487 . S
C301 C298 1.382 . S
C301 C302 1.387 . S
C301 H318 0.930 . S
C302 C300 1.381 . S
C302 C301 1.387 . S
C302 H319 0.931 . S
C303 C296 1.399 . S
C303 C300 1.487 . S
C303 N320 1.352 . S
H304 C276 0.931 . S
H305 C278 0.930 . S
H306 C280 0.930 . S
H307 C281 0.960 . S
H308 C283 0.931 . S
H309 C285 0.930 . S
H310 C287 0.930 . S
H311 C288 0.931 . S
H312 C290 0.931 . S
H313 C292 0.930 . S
H314 C294 0.930 . S
H315 C295 0.931 . S
H316 C297 0.931 . S
H317 C299 0.930 . S
H318 C301 0.930 . S
H319 C302 0.931 . S
N320 C282 1.333 1_545 S
N320 C303 1.352 . S
N321 C289 1.349 . S
N321 C296 1.337 1_565 S
C322 C323 1.384 . S
C322 C324 1.384 . S
C322 H350 0.931 . S
C323 C322 1.384 . S
C323 C326 1.382 . S
C324 C322 1.384 . S
C324 C325 1.383 . S
C324 H351 0.930 1_565 S
C325 C324 1.383 . S
C325 C327 1.386 . S
C325 C328 1.479 1_565 S
C326 C323 1.382 . S
C326 C327 1.387 . S
C326 H352 0.930 . S
C327 C325 1.386 . S
C327 C326 1.387 . S
C327 H353 0.931 . S
C328 C325 1.479 1_545 S
C328 C335 1.399 . S
C328 N366 1.343 . S
C329 C330 1.384 . S
C329 C331 1.384 . S
C329 H354 0.931 . S
C330 C329 1.384 . S
C330 C333 1.382 . S
C331 C329 1.384 . S
C331 C332 1.381 1_565 S
C331 H355 0.930 . S
C332 C331 1.381 1_545 S
C332 C334 1.381 . S
C332 C335 1.487 . S
C333 C330 1.382 . S
C333 C334 1.387 1_565 S
C333 H356 0.930 1_565 S
C334 C332 1.381 . S
C334 C333 1.387 1_545 S
C334 H357 0.931 . S
C335 C328 1.399 . S
C335 C332 1.487 . S
C335 N367 1.343 . S
C336 C337 1.384 . S
C336 C338 1.384 . S
C336 H358 0.931 . S
C337 C336 1.384 . S
C337 C340 1.382 1_655 S
C338 C336 1.384 . S
C338 C339 1.381 1_655 S
C338 H359 0.930 . S
C339 C338 1.381 1_455 S
C339 C341 1.381 . S
C339 C342 1.487 . S
C340 C337 1.382 1_455 S
C340 C341 1.387 . S
C340 H360 0.930 . S
C341 C339 1.381 . S
C341 C340 1.387 . S
C341 H361 0.931 . S
C342 C339 1.487 . S
C342 C349 1.399 . S
C342 N367 1.343 . S
C343 C344 1.375 1_455 S
C343 C345 1.392 . S
C343 H362 0.932 . S
C344 C343 1.375 1_655 S
C344 C347 1.382 . S
C345 C343 1.392 . S
C345 C346 1.381 . S
C345 H363 0.930 . S
C346 C345 1.381 . S
C346 C348 1.381 1_455 S
C346 C349 1.487 . S
C347 C344 1.382 . S
C347 C348 1.387 . S
C347 H364 0.930 . S
C348 C346 1.381 1_655 S
C348 C347 1.387 . S
C348 H365 0.931 . S
C349 C342 1.399 . S
C349 C346 1.487 . S
C349 N366 1.343 . S
H350 C322 0.931 . S
H351 C324 0.930 1_545 S
H352 C326 0.930 . S
H353 C327 0.931 . S
H354 C329 0.931 . S
H355 C331 0.930 . S
H356 C333 0.930 1_545 S
H357 C334 0.931 . S
H358 C336 0.931 . S
H359 C338 0.930 . S
H360 C340 0.930 . S
H361 C341 0.931 . S
H362 C343 0.932 . S
H363 C345 0.930 . S
H364 C347 0.930 . S
H365 C348 0.931 . S
N366 C328 1.343 . S
N366 C349 1.343 . S
N367 C335 1.343 . S
N367 C342 1.343 . S
Zn368 O371 2.031 . S
Zn368 O373 2.049 . S
Zn368 O378 2.067 . S
Zn369 O370 1.962 . S
Zn369 O372 1.986 . S
Zn369 O374 1.996 . S
Zn369 O377 1.943 1_554 S
O370 Zn369 1.962 . S
O370 C375 1.254 . S
O371 Zn368 2.031 . S
O371 C375 1.269 1_556 S
O372 Zn369 1.986 . S
O372 C379 1.262 . S
O373 Zn368 2.049 . S
O373 C381 1.260 1_556 S
O374 Zn369 1.996 . S
O374 C381 1.257 . S
C375 O370 1.254 . S
C375 O371 1.269 1_554 S
C376 O377 1.249 . S
C376 O378 1.270 . S
O377 Zn369 1.943 1_556 S
O377 C376 1.249 . S
O378 Zn368 2.067 . S
O378 C376 1.270 . S
C379 O372 1.262 . S
C379 O380 1.232 . S
O380 C379 1.232 . S
C381 O373 1.260 1_554 S
C381 O374 1.257 . S
Zn382 O385 2.031 . S
Zn382 O387 2.049 . S
Zn382 O392 2.067 . S
Zn383 O384 1.962 . S
Zn383 O386 1.986 . S
Zn383 O388 1.996 . S
Zn383 O391 1.943 . S
O384 Zn383 1.962 . S
O384 C389 1.254 . S
O385 Zn382 2.031 . S
O385 C389 1.269 . S
O386 Zn383 1.986 . S
O386 C393 1.262 . S
O387 Zn382 2.049 . S
O387 C395 1.260 . S
O388 Zn383 1.996 . S
O388 C395 1.257 . S
C389 O384 1.254 . S
C389 O385 1.269 . S
C390 O391 1.249 . S
C390 O392 1.270 . S
O391 Zn383 1.943 . S
O391 C390 1.249 . S
O392 Zn382 2.067 . S
O392 C390 1.270 . S
C393 O386 1.262 . S
C393 O394 1.232 . S
O394 C393 1.232 . S
C395 O387 1.260 . S
C395 O388 1.257 . S
Zn396 O399 2.031 . S
Zn396 O401 2.049 . S
Zn396 O406 2.067 . S
Zn397 O398 1.962 . S
Zn397 O400 1.986 . S
Zn397 O402 1.996 . S
Zn397 O405 1.943 . S
O398 Zn397 1.962 . S
O398 C403 1.254 . S
O399 Zn396 2.031 . S
O399 C403 1.269 . S
O400 Zn397 1.986 . S
O400 C407 1.262 . S
O401 Zn396 2.049 . S
O401 C409 1.260 . S
O402 Zn397 1.996 . S
O402 C409 1.257 . S
C403 O398 1.254 . S
C403 O399 1.269 . S
C404 O405 1.249 . S
C404 O406 1.270 . S
O405 Zn397 1.943 . S
O405 C404 1.249 . S
O406 Zn396 2.067 . S
O406 C404 1.270 . S
C407 O400 1.262 . S
C407 O408 1.232 . S
O408 C407 1.232 . S
C409 O401 1.260 . S
C409 O402 1.257 . S
Zn410 O413 2.031 . S
Zn410 O415 2.049 . S
Zn410 O420 2.067 . S
Zn411 O412 1.962 . S
Zn411 O414 1.986 . S
Zn411 O416 1.996 . S
Zn411 O419 1.943 . S
O412 Zn411 1.962 . S
O412 C417 1.254 . S
O413 Zn410 2.031 . S
O413 C417 1.269 . S
O414 Zn411 1.986 . S
O414 C421 1.262 . S
O415 Zn410 2.049 . S
O415 C423 1.260 . S
O416 Zn411 1.996 . S
O416 C423 1.257 . S
C417 O412 1.254 . S
C417 O413 1.269 . S
C418 O419 1.249 . S
C418 O420 1.270 . S
O419 Zn411 1.943 . S
O419 C418 1.249 . S
O420 Zn410 2.067 . S
O420 C418 1.270 . S
C421 O414 1.262 . S
C421 O422 1.232 . S
O422 C421 1.232 . S
C423 O415 1.260 . S
C423 O416 1.257 . S
Zn424 O427 2.031 . S
Zn424 O429 2.049 . S
Zn424 O434 2.067 . S
Zn425 O426 1.962 . S
Zn425 O428 1.986 . S
Zn425 O430 1.996 . S
Zn425 O433 1.943 . S
O426 Zn425 1.962 . S
O426 C431 1.254 . S
O427 Zn424 2.031 . S
O427 C431 1.269 . S
O428 Zn425 1.986 . S
O428 C435 1.262 . S
O429 Zn424 2.049 . S
O429 C437 1.260 . S
O430 Zn425 1.996 . S
O430 C437 1.257 . S
C431 O426 1.254 . S
C431 O427 1.269 . S
C432 O433 1.249 . S
C432 O434 1.270 . S
O433 Zn425 1.943 . S
O433 C432 1.249 . S
O434 Zn424 2.067 . S
O434 C432 1.270 . S
C435 O428 1.262 . S
C435 O436 1.232 . S
O436 C435 1.232 . S
C437 O429 1.260 . S
C437 O430 1.257 . S
Zn438 O441 2.031 . S
Zn438 O443 2.049 . S
Zn438 O448 2.067 . S
Zn439 O440 1.962 . S
Zn439 O442 1.986 . S
Zn439 O444 1.996 . S
Zn439 O447 1.943 . S
O440 Zn439 1.962 . S
O440 C445 1.254 . S
O441 Zn438 2.031 . S
O441 C445 1.269 . S
O442 Zn439 1.986 . S
O442 C449 1.262 . S
O443 Zn438 2.049 . S
O443 C451 1.260 . S
O444 Zn439 1.996 . S
O444 C451 1.257 . S
C445 O440 1.254 . S
C445 O441 1.269 . S
C446 O447 1.249 . S
C446 O448 1.270 . S
O447 Zn439 1.943 . S
O447 C446 1.249 . S
O448 Zn438 2.067 . S
O448 C446 1.270 . S
C449 O442 1.262 . S
C449 O450 1.232 . S
O450 C449 1.232 . S
C451 O443 1.260 . S
C451 O444 1.257 . S
Zn452 O455 2.031 . S
Zn452 O457 2.049 . S
Zn452 O462 2.067 . S
Zn453 O454 1.962 . S
Zn453 O456 1.986 . S
Zn453 O458 1.996 . S
Zn453 O461 1.943 1_556 S
O454 Zn453 1.962 . S
O454 C459 1.254 1_556 S
O455 Zn452 2.031 . S
O455 C459 1.269 . S
O456 Zn453 1.986 . S
O456 C463 1.262 . S
O457 Zn452 2.049 . S
O457 C465 1.275 . S
O458 Zn453 1.996 . S
O458 C465 1.252 1_556 S
C459 O454 1.254 1_554 S
C459 O455 1.269 . S
C460 O461 1.249 . S
C460 O462 1.270 . S
O461 Zn453 1.943 1_554 S
O461 C460 1.249 . S
O462 Zn452 2.067 . S
O462 C460 1.270 . S
C463 O456 1.262 . S
C463 O464 1.232 . S
O464 C463 1.232 . S
C465 O457 1.275 . S
C465 O458 1.252 1_554 S
Zn466 O469 2.031 . S
Zn466 O471 2.049 . S
Zn466 O476 2.067 . S
Zn467 O468 1.962 . S
Zn467 O470 1.986 . S
Zn467 O472 1.996 . S
Zn467 O475 1.943 . S
O468 Zn467 1.962 . S
O468 C473 1.254 . S
O469 Zn466 2.031 . S
O469 C473 1.269 . S
O470 Zn467 1.986 . S
O470 C477 1.262 . S
O471 Zn466 2.049 . S
O471 C479 1.260 . S
O472 Zn467 1.996 . S
O472 C479 1.257 . S
C473 O468 1.254 . S
C473 O469 1.269 . S
C474 O475 1.249 . S
C474 O476 1.270 . S
O475 Zn467 1.943 . S
O475 C474 1.249 . S
O476 Zn466 2.067 . S
O476 C474 1.270 . S
C477 O470 1.262 . S
C477 O478 1.232 . S
O478 C477 1.232 . S
C479 O471 1.260 . S
C479 O472 1.257 . S
C480 C481 1.369 . S
C480 C482 1.419 . S
C480 H484 0.930 . S
C481 C480 1.369 . S
C481 C490 1.429 . S
C482 C480 1.419 . S
C482 C483 1.363 . S
C482 H485 0.929 . S
C483 C482 1.363 . S
C483 C489 1.428 . S
H484 C480 0.930 . S
H485 C482 0.929 . S
S486 N487 1.613 . S
S486 N488 1.610 . S
N487 S486 1.613 . S
N487 C490 1.350 . S
N488 S486 1.610 . S
N488 C489 1.351 . S
C489 C483 1.428 . S
C489 N488 1.351 . S
C489 C490 1.434 . S
C490 C481 1.429 . S
C490 N487 1.350 . S
C490 C489 1.434 . S
C491 C492 1.369 . S
C491 C493 1.419 . S
C491 H495 0.930 . S
C492 C491 1.369 . S
C492 C501 1.429 . S
C493 C491 1.419 . S
C493 C494 1.363 . S
C493 H496 0.929 . S
C494 C493 1.363 . S
C494 C500 1.428 . S
H495 C491 0.930 . S
H496 C493 0.929 . S
S497 N498 1.613 . S
S497 N499 1.610 . S
N498 S497 1.613 . S
N498 C501 1.350 . S
N499 S497 1.610 . S
N499 C500 1.351 . S
C500 C494 1.428 . S
C500 N499 1.351 . S
C500 C501 1.434 . S
C501 C492 1.429 . S
C501 N498 1.350 . S
C501 C500 1.434 . S
C502 C503 1.369 . S
C502 C504 1.419 . S
C502 H506 0.930 . S
C503 C502 1.369 . S
C503 C512 1.429 . S
C504 C502 1.419 . S
C504 C505 1.363 . S
C504 H507 0.929 . S
C505 C504 1.363 . S
C505 C511 1.428 . S
H506 C502 0.930 . S
H507 C504 0.929 . S
S508 N509 1.613 . S
S508 N510 1.610 . S
N509 S508 1.613 . S
N509 C512 1.350 . S
N510 S508 1.610 . S
N510 C511 1.351 . S
C511 C505 1.428 . S
C511 N510 1.351 . S
C511 C512 1.434 . S
C512 C503 1.429 . S
C512 N509 1.350 . S
C512 C511 1.434 . S
C513 C514 1.369 . S
C513 C515 1.419 . S
C513 H517 0.930 . S
C514 C513 1.369 . S
C514 C523 1.429 . S
C515 C513 1.419 . S
C515 C516 1.363 . S
C515 H518 0.929 . S
C516 C515 1.363 . S
C516 C522 1.428 . S
H517 C513 0.930 . S
H518 C515 0.929 . S
S519 N520 1.613 . S
S519 N521 1.610 . S
N520 S519 1.613 . S
N520 C523 1.350 . S
N521 S519 1.610 . S
N521 C522 1.351 . S
C522 C516 1.428 . S
C522 N521 1.351 . S
C522 C523 1.434 . S
C523 C514 1.429 . S
C523 N520 1.350 . S
C523 C522 1.434 . S
C524 C525 1.369 . S
C524 C526 1.419 . S
C524 H528 0.930 . S
C525 C524 1.369 . S
C525 C534 1.429 . S
C526 C524 1.419 . S
C526 C527 1.363 . S
C526 H529 0.930 . S
C527 C526 1.363 . S
C527 C533 1.429 . S
H528 C524 0.930 . S
H529 C526 0.930 . S
S530 N531 1.613 1_554 S
S530 N532 1.610 . S
N531 S530 1.613 1_556 S
N531 C534 1.350 . S
N532 S530 1.610 . S
N532 C533 1.350 1_554 S
C533 C527 1.429 . S
C533 N532 1.350 1_556 S
C533 C534 1.434 . S
C534 C525 1.429 . S
C534 N531 1.350 . S
C534 C533 1.434 . S
C535 C536 1.369 . S
C535 C537 1.419 . S
C535 H539 0.930 . S
C536 C535 1.369 . S
C536 C545 1.429 . S
C537 C535 1.419 . S
C537 C538 1.363 . S
C537 H540 0.929 . S
C538 C537 1.363 . S
C538 C544 1.428 . S
H539 C535 0.930 . S
H540 C537 0.929 . S
S541 N542 1.613 . S
S541 N543 1.610 . S
N542 S541 1.613 . S
N542 C545 1.350 . S
N543 S541 1.610 . S
N543 C544 1.351 . S
C544 C538 1.428 . S
C544 N543 1.351 . S
C544 C545 1.434 . S
C545 C536 1.429 . S
C545 N542 1.350 . S
C545 C544 1.434 . S
C546 C547 1.369 . S
C546 C548 1.419 . S
C546 H550 0.930 . S
C547 C546 1.369 . S
C547 C556 1.429 . S
C548 C546 1.419 . S
C548 C549 1.363 . S
C548 H551 0.929 . S
C549 C548 1.363 . S
C549 C555 1.428 . S
H550 C546 0.930 . S
H551 C548 0.929 . S
S552 N553 1.613 . S
S552 N554 1.610 . S
N553 S552 1.613 . S
N553 C556 1.350 . S
N554 S552 1.610 . S
N554 C555 1.351 . S
C555 C549 1.428 . S
C555 N554 1.351 . S
C555 C556 1.434 . S
C556 C547 1.429 . S
C556 N553 1.350 . S
C556 C555 1.434 . S
C557 C558 1.369 . S
C557 C559 1.419 . S
C557 H561 0.930 . S
C558 C557 1.369 . S
C558 C567 1.429 . S
C559 C557 1.419 . S
C559 C560 1.363 . S
C559 H562 0.929 . S
C560 C559 1.363 . S
C560 C566 1.428 . S
H561 C557 0.930 . S
H562 C559 0.929 . S
S563 N564 1.613 . S
S563 N565 1.610 . S
N564 S563 1.613 . S
N564 C567 1.350 . S
N565 S563 1.610 . S
N565 C566 1.351 . S
C566 C560 1.428 . S
C566 N565 1.351 . S
C566 C567 1.434 . S
C567 C558 1.429 . S
C567 N564 1.350 . S
C567 C566 1.434 . S
C568 C569 1.369 . S
C568 C570 1.419 . S
C568 H572 0.930 . S
C569 C568 1.369 . S
C569 C578 1.429 . S
C570 C568 1.419 . S
C570 C571 1.363 . S
C570 H573 0.929 . S
C571 C570 1.363 . S
C571 C577 1.428 . S
H572 C568 0.930 . S
H573 C570 0.929 . S
S574 N575 1.613 . S
S574 N576 1.610 . S
N575 S574 1.613 . S
N575 C578 1.350 . S
N576 S574 1.610 . S
N576 C577 1.351 . S
C577 C571 1.428 . S
C577 N576 1.351 . S
C577 C578 1.434 . S
C578 C569 1.429 . S
C578 N575 1.350 . S
C578 C577 1.434 . S
C579 C580 1.369 . S
C579 C581 1.419 . S
C579 H583 0.930 . S
C580 C579 1.369 . S
C580 C589 1.429 . S
C581 C579 1.419 . S
C581 C582 1.363 . S
C581 H584 0.929 . S
C582 C581 1.363 . S
C582 C588 1.428 . S
H583 C579 0.930 . S
H584 C581 0.929 . S
S585 N586 1.613 . S
S585 N587 1.610 . S
N586 S585 1.613 . S
N586 C589 1.350 1_556 S
N587 S585 1.610 . S
N587 C588 1.351 1_556 S
C588 C582 1.428 . S
C588 N587 1.351 1_554 S
C588 C589 1.434 . S
C589 C580 1.429 . S
C589 N586 1.350 1_554 S
C589 C588 1.434 . S
C590 C591 1.369 . S
C590 C592 1.419 . S
C590 H594 0.930 . S
C591 C590 1.369 . S
C591 C600 1.429 . S
C592 C590 1.419 . S
C592 C593 1.363 . S
C592 H595 0.929 . S
C593 C592 1.363 . S
C593 C599 1.428 . S
H594 C590 0.930 . S
H595 C592 0.929 . S
S596 N597 1.613 . S
S596 N598 1.610 . S
N597 S596 1.613 . S
N597 C600 1.350 . S
N598 S596 1.610 . S
N598 C599 1.351 . S
C599 C593 1.428 . S
C599 N598 1.351 . S
C599 C600 1.434 . S
C600 C591 1.429 . S
C600 N597 1.350 . S
C600 C599 1.434 . S
C601 C602 1.369 . S
C601 C603 1.419 . S
C601 H605 0.930 . S
C602 C601 1.369 . S
C602 C611 1.429 . S
C603 C601 1.419 . S
C603 C604 1.363 . S
C603 H606 0.929 . S
C604 C603 1.363 . S
C604 C610 1.428 . S
H605 C601 0.930 . S
H606 C603 0.929 . S
S607 N608 1.613 . S
S607 N609 1.610 . S
N608 S607 1.613 . S
N608 C611 1.350 . S
N609 S607 1.610 . S
N609 C610 1.351 . S
C610 C604 1.428 . S
C610 N609 1.351 . S
C610 C611 1.434 . S
C611 C602 1.429 . S
C611 N608 1.350 . S
C611 C610 1.434 . S
C612 C613 1.369 . S
C612 C614 1.419 . S
C612 H616 0.930 . S
C613 C612 1.369 . S
C613 C622 1.429 . S
C614 C612 1.419 . S
C614 C615 1.363 . S
C614 H617 0.929 . S
C615 C614 1.363 . S
C615 C621 1.428 . S
H616 C612 0.930 . S
H617 C614 0.929 . S
S618 N619 1.613 . S
S618 N620 1.610 . S
N619 S618 1.613 . S
N619 C622 1.350 . S
N620 S618 1.610 . S
N620 C621 1.351 . S
C621 C615 1.428 . S
C621 N620 1.351 . S
C621 C622 1.434 . S
C622 C613 1.429 . S
C622 N619 1.350 . S
C622 C621 1.434 . S
C623 C624 1.369 . S
C623 C625 1.419 . S
C623 H627 0.930 . S
C624 C623 1.369 . S
C624 C633 1.429 . S
C625 C623 1.419 . S
C625 C626 1.363 . S
C625 H628 0.929 . S
C626 C625 1.363 . S
C626 C632 1.428 . S
H627 C623 0.930 . S
H628 C625 0.929 . S
S629 N630 1.613 . S
S629 N631 1.610 . S
N630 S629 1.613 . S
N630 C633 1.350 . S
N631 S629 1.610 . S
N631 C632 1.351 . S
C632 C626 1.428 . S
C632 N631 1.351 . S
C632 C633 1.434 . S
C633 C624 1.429 . S
C633 N630 1.350 . S
C633 C632 1.434 . S
C634 C635 1.369 . S
C634 C636 1.424 . S
C634 H638 0.930 1_556 S
C635 C634 1.369 . S
C635 C644 1.429 . S
C636 C634 1.424 . S
C636 C637 1.377 . S
C636 H639 0.911 1_556 S
C637 C636 1.377 . S
C637 C643 1.428 . S
H638 C634 0.930 1_554 S
H639 C636 0.911 1_554 S
S640 N641 1.613 . S
S640 N642 1.610 . S
N641 S640 1.613 . S
N641 C644 1.350 . S
N642 S640 1.610 . S
N642 C643 1.351 . S
C643 C637 1.428 . S
C643 N642 1.351 . S
C643 C644 1.434 . S
C644 C635 1.429 . S
C644 N641 1.350 . S
C644 C643 1.434 . S
C645 C646 1.369 . S
C645 C647 1.419 . S
C645 H649 0.930 . S
C646 C645 1.369 . S
C646 C655 1.429 . S
C647 C645 1.419 . S
C647 C648 1.363 . S
C647 H650 0.929 . S
C648 C647 1.363 . S
C648 C654 1.428 . S
H649 C645 0.930 . S
H650 C647 0.929 . S
S651 N652 1.613 . S
S651 N653 1.610 . S
N652 S651 1.613 . S
N652 C655 1.350 . S
N653 S651 1.610 . S
N653 C654 1.351 . S
C654 C648 1.428 . S
C654 N653 1.351 . S
C654 C655 1.434 . S
C655 C646 1.429 . S
C655 N652 1.350 . S
C655 C654 1.434 . S
C656 C657 1.369 . S
C656 C658 1.419 . S
C656 H660 0.930 . S
C657 C656 1.369 . S
C657 C666 1.429 . S
C658 C656 1.419 . S
C658 C659 1.363 . S
C658 H661 0.929 . S
C659 C658 1.363 . S
C659 C665 1.428 . S
H660 C656 0.930 . S
H661 C658 0.929 . S
S662 N663 1.613 . S
S662 N664 1.610 . S
N663 S662 1.613 . S
N663 C666 1.350 . S
N664 S662 1.610 . S
N664 C665 1.351 . S
C665 C659 1.428 . S
C665 N664 1.351 . S
C665 C666 1.434 . S
C666 C657 1.429 . S
C666 N663 1.350 . S
C666 C665 1.434 . S
C667 C668 1.369 . S
C667 C669 1.419 . S
C667 H671 0.930 . S
C668 C667 1.369 . S
C668 C677 1.429 . S
C669 C667 1.419 . S
C669 C670 1.363 . S
C669 H672 0.929 . S
C670 C669 1.363 . S
C670 C676 1.428 . S
H671 C667 0.930 . S
H672 C669 0.929 . S
S673 N674 1.613 . S
S673 N675 1.610 . S
N674 S673 1.613 . S
N674 C677 1.350 . S
N675 S673 1.610 . S
N675 C676 1.351 . S
C676 C670 1.428 . S
C676 N675 1.351 . S
C676 C677 1.434 . S
C677 C668 1.429 . S
C677 N674 1.350 . S
C677 C676 1.434 . S
C678 C679 1.369 . S
C678 C680 1.419 . S
C678 H682 0.930 . S
C679 C678 1.369 . S
C679 C688 1.429 . S
C680 C678 1.419 . S
C680 C681 1.363 . S
C680 H683 0.929 . S
C681 C680 1.363 . S
C681 C687 1.428 . S
H682 C678 0.930 . S
H683 C680 0.929 . S
S684 N685 1.613 . S
S684 N686 1.610 . S
N685 S684 1.613 . S
N685 C688 1.350 . S
N686 S684 1.610 . S
N686 C687 1.351 . S
C687 C681 1.428 . S
C687 N686 1.351 . S
C687 C688 1.434 . S
C688 C679 1.429 . S
C688 N685 1.350 . S
C688 C687 1.434 . S
C689 C690 1.369 . S
C689 C691 1.419 . S
C689 H693 0.930 . S
C690 C689 1.369 . S
C690 C699 1.429 . S
C691 C689 1.419 . S
C691 C692 1.363 . S
C691 H694 0.929 . S
C692 C691 1.363 . S
C692 C698 1.428 . S
H693 C689 0.930 . S
H694 C691 0.929 . S
S695 N696 1.613 . S
S695 N697 1.610 . S
N696 S695 1.613 . S
N696 C699 1.350 . S
N697 S695 1.610 . S
N697 C698 1.351 . S
C698 C692 1.428 . S
C698 N697 1.351 . S
C698 C699 1.434 . S
C699 C690 1.429 . S
C699 N696 1.350 . S
C699 C698 1.434 . S
C700 C701 1.369 . S
C700 C702 1.419 . S
C700 H704 0.930 . S
C701 C700 1.369 . S
C701 C710 1.429 . S
C702 C700 1.419 . S
C702 C703 1.363 . S
C702 H705 0.929 . S
C703 C702 1.363 . S
C703 C709 1.428 . S
H704 C700 0.930 . S
H705 C702 0.929 . S
S706 N707 1.613 . S
S706 N708 1.610 . S
N707 S706 1.613 . S
N707 C710 1.350 . S
N708 S706 1.610 . S
N708 C709 1.351 . S
C709 C703 1.428 . S
C709 N708 1.351 . S
C709 C710 1.434 . S
C710 C701 1.429 . S
C710 N707 1.350 . S
C710 C709 1.434 . S
C711 C712 1.369 . S
C711 C713 1.419 . S
C711 H715 0.930 . S
C712 C711 1.369 . S
C712 C721 1.429 . S
C713 C711 1.419 . S
C713 C714 1.363 . S
C713 H716 0.929 . S
C714 C713 1.363 . S
C714 C720 1.428 . S
H715 C711 0.930 . S
H716 C713 0.929 . S
S717 N718 1.613 . S
S717 N719 1.610 . S
N718 S717 1.613 . S
N718 C721 1.350 . S
N719 S717 1.610 . S
N719 C720 1.351 . S
C720 C714 1.428 . S
C720 N719 1.351 . S
C720 C721 1.434 . S
C721 C712 1.429 . S
C721 N718 1.350 . S
C721 C720 1.434 . S
C722 C723 1.369 . S
C722 C724 1.419 . S
C722 H726 0.930 . S
C723 C722 1.369 . S
C723 C732 1.429 . S
C724 C722 1.419 . S
C724 C725 1.363 . S
C724 H727 0.929 . S
C725 C724 1.363 . S
C725 C731 1.428 . S
H726 C722 0.930 . S
H727 C724 0.929 . S
S728 N729 1.613 . S
S728 N730 1.610 . S
N729 S728 1.613 . S
N729 C732 1.350 . S
N730 S728 1.610 . S
N730 C731 1.351 . S
C731 C725 1.428 . S
C731 N730 1.351 . S
C731 C732 1.434 . S
C732 C723 1.429 . S
C732 N729 1.350 . S
C732 C731 1.434 . S
C733 C734 1.369 . S
C733 C735 1.419 . S
C733 H737 0.930 . S
C734 C733 1.369 . S
C734 C743 1.429 . S
C735 C733 1.419 . S
C735 C736 1.363 . S
C735 H738 0.929 . S
C736 C735 1.363 . S
C736 C742 1.428 . S
H737 C733 0.930 . S
H738 C735 0.929 . S
S739 N740 1.613 . S
S739 N741 1.610 . S
N740 S739 1.613 . S
N740 C743 1.350 . S
N741 S739 1.610 . S
N741 C742 1.351 . S
C742 C736 1.428 . S
C742 N741 1.351 . S
C742 C743 1.434 . S
C743 C734 1.429 . S
C743 N740 1.350 . S
C743 C742 1.434 . S
C744 C745 1.369 . S
C744 C746 1.419 . S
C744 H748 0.930 . S
C745 C744 1.369 . S
C745 C754 1.429 . S
C746 C744 1.419 . S
C746 C747 1.363 . S
C746 H749 0.929 . S
C747 C746 1.363 . S
C747 C753 1.428 . S
H748 C744 0.930 . S
H749 C746 0.929 . S
S750 N751 1.613 . S
S750 N752 1.610 . S
N751 S750 1.613 . S
N751 C754 1.350 . S
N752 S750 1.610 . S
N752 C753 1.351 . S
C753 C747 1.428 . S
C753 N752 1.351 . S
C753 C754 1.434 . S
C754 C745 1.429 . S
C754 N751 1.350 . S
C754 C753 1.434 . S
C755 C756 1.369 . S
C755 C757 1.419 . S
C755 H759 0.930 . S
C756 C755 1.369 . S
C756 C765 1.429 . S
C757 C755 1.419 . S
C757 C758 1.363 . S
C757 H760 0.929 . S
C758 C757 1.363 . S
C758 C764 1.428 . S
H759 C755 0.930 . S
H760 C757 0.929 . S
S761 N762 1.613 . S
S761 N763 1.610 . S
N762 S761 1.613 . S
N762 C765 1.350 . S
N763 S761 1.610 . S
N763 C764 1.351 . S
C764 C758 1.428 . S
C764 N763 1.351 . S
C764 C765 1.434 . S
C765 C756 1.429 . S
C765 N762 1.350 . S
C765 C764 1.434 . S
C766 C767 1.369 . S
C766 C768 1.419 . S
C766 H770 0.930 . S
C767 C766 1.369 . S
C767 C776 1.429 . S
C768 C766 1.419 . S
C768 C769 1.363 . S
C768 H771 0.929 . S
C769 C768 1.363 . S
C769 C775 1.428 . S
H770 C766 0.930 . S
H771 C768 0.929 . S
S772 N773 1.613 . S
S772 N774 1.610 . S
N773 S772 1.613 . S
N773 C776 1.350 . S
N774 S772 1.610 . S
N774 C775 1.351 . S
C775 C769 1.428 . S
C775 N774 1.351 . S
C775 C776 1.434 . S
C776 C767 1.429 . S
C776 N773 1.350 . S
C776 C775 1.434 . S
C777 C778 1.369 . S
C777 C779 1.419 . S
C777 H781 0.930 . S
C778 C777 1.369 . S
C778 C787 1.429 . S
C779 C777 1.419 . S
C779 C780 1.363 . S
C779 H782 0.929 . S
C780 C779 1.363 . S
C780 C786 1.428 . S
H781 C777 0.930 . S
H782 C779 0.929 . S
S783 N784 1.613 . S
S783 N785 1.610 . S
N784 S783 1.613 . S
N784 C787 1.350 . S
N785 S783 1.610 . S
N785 C786 1.351 . S
C786 C780 1.428 . S
C786 N785 1.351 . S
C786 C787 1.434 . S
C787 C778 1.429 . S
C787 N784 1.350 . S
C787 C786 1.434 . S
C788 C789 1.369 . S
C788 C790 1.419 . S
C788 H792 0.930 . S
C789 C788 1.369 . S
C789 C798 1.429 . S
C790 C788 1.419 . S
C790 C791 1.363 . S
C790 H793 0.929 . S
C791 C790 1.363 . S
C791 C797 1.428 . S
H792 C788 0.930 . S
H793 C790 0.929 . S
S794 N795 1.613 . S
S794 N796 1.610 . S
N795 S794 1.613 . S
N795 C798 1.350 . S
N796 S794 1.610 . S
N796 C797 1.351 . S
C797 C791 1.428 . S
C797 N796 1.351 . S
C797 C798 1.434 . S
C798 C789 1.429 . S
C798 N795 1.350 . S
C798 C797 1.434 . S
C799 C800 1.369 . S
C799 C801 1.419 . S
C799 H803 0.930 . S
C800 C799 1.369 . S
C800 C809 1.429 . S
C801 C799 1.419 . S
C801 C802 1.363 . S
C801 H804 0.929 . S
C802 C801 1.363 . S
C802 C808 1.428 . S
H803 C799 0.930 . S
H804 C801 0.929 . S
S805 N806 1.613 . S
S805 N807 1.610 . S
N806 S805 1.613 . S
N806 C809 1.350 . S
N807 S805 1.610 . S
N807 C808 1.351 . S
C808 C802 1.428 . S
C808 N807 1.351 . S
C808 C809 1.434 . S
C809 C800 1.429 . S
C809 N806 1.350 . S
C809 C808 1.434 . S
C810 C811 1.369 . S
C810 C812 1.419 . S
C810 H814 0.930 . S
C811 C810 1.369 . S
C811 C820 1.429 . S
C812 C810 1.419 . S
C812 C813 1.363 . S
C812 H815 0.929 . S
C813 C812 1.363 . S
C813 C819 1.428 . S
H814 C810 0.930 . S
H815 C812 0.929 . S
S816 N817 1.613 . S
S816 N818 1.610 . S
N817 S816 1.613 . S
N817 C820 1.350 . S
N818 S816 1.610 . S
N818 C819 1.351 . S
C819 C813 1.428 . S
C819 N818 1.351 . S
C819 C820 1.434 . S
C820 C811 1.429 . S
C820 N817 1.350 . S
C820 C819 1.434 . S
C821 C822 1.369 . S
C821 C823 1.419 . S
C821 H825 0.930 . S
C822 C821 1.369 . S
C822 C831 1.429 . S
C823 C821 1.419 . S
C823 C824 1.363 . S
C823 H826 0.929 . S
C824 C823 1.363 . S
C824 C830 1.428 . S
H825 C821 0.930 . S
H826 C823 0.929 . S
S827 N828 1.613 . S
S827 N829 1.610 . S
N828 S827 1.613 . S
N828 C831 1.350 . S
N829 S827 1.610 . S
N829 C830 1.351 . S
C830 C824 1.428 . S
C830 N829 1.351 . S
C830 C831 1.434 . S
C831 C822 1.429 . S
C831 N828 1.350 . S
C831 C830 1.434 . S
C483 C389 1.469 . S
C481 C8 1.426 . S
C494 C409 1.506 . S
C492 C61 1.518 . S
C505 C423 1.508 . S
C503 C107 1.518 . S
C514 C139 1.505 . S
C516 C381 1.506 . S
C525 C192 1.509 . S
C527 C375 1.600 1_556 S
C536 C238 1.485 . S
C538 C395 1.494 . S
C549 C403 1.457 . S
C547 C284 1.417 . S
C560 C417 1.545 . S
C558 C330 1.471 . S
C569 C100 1.469 . S
C571 C445 1.544 . S
C582 C459 1.457 . S
C580 C160 1.412 . S
C591 C15 1.478 . S
C593 C479 1.498 . S
C604 C431 1.604 . S
C602 C54 1.513 . S
C613 C291 1.503 . S
C615 C437 1.505 . S
C624 C337 1.518 . S
C626 C451 1.508 . S
C637 C465 1.506 1_556 S
C635 C199 1.512 . S
C646 C245 1.424 . S
C648 C473 1.474 . S
C659 C404 1.769 . S
C657 C1 1.739 . S
C670 C418 1.799 . S
C668 C68 1.742 . S
C679 C114 1.677 . S
C681 C376 1.731 . S
C690 C146 1.538 . S
C692 C393 1.564 . S
C701 C185 1.436 . S
C703 C421 1.442 . S
C714 C379 1.428 . S
C712 C231 1.421 . S
C725 C390 1.619 . S
C723 C277 1.605 . S
C736 C407 1.499 . S
C734 C323 1.485 . S
C747 C463 1.499 . S
C745 C93 1.490 . S
C758 C474 1.620 . S
C756 C153 1.598 . S
C767 C22 1.412 . S
C769 C435 1.427 . S
C780 C449 1.443 . S
C778 C47 1.436 . S
C791 C477 1.561 . S
C789 C298 1.529 . S
C800 C344 1.672 . S
C802 C432 1.732 . S
C813 C446 1.801 . S
C811 C206 1.741 . S
C824 C460 1.772 . S
C822 C252 1.719 . S
