# Generated by pormake.
# Topology anh, (6,3)-cn, num edge types: 1
# Building blocks:
#     Node 0, Type 0, BuildingBlock: BETDEL_clean_sbu_0, # of connection points: 6
#     Node 1, Type 0, BuildingBlock: BETDEL_clean_sbu_0, # of connection points: 6
#     Node 2, Type 0, BuildingBlock: BETDEL_clean_sbu_0, # of connection points: 6
#     Node 3, Type 1, BuildingBlock: MIDCAF_clean_linker_0, # of connection points: 3
#     Node 4, Type 1, BuildingBlock: MIDCAF_clean_linker_0, # of connection points: 3
#     Node 5, Type 1, BuildingBlock: MIDCAF_clean_linker_0, # of connection points: 3
#     Node 6, Type 1, BuildingBlock: MIDCAF_clean_linker_0, # of connection points: 3
#     Node 7, Type 1, BuildingBlock: MIDCAF_clean_linker_0, # of connection points: 3
#     Node 8, Type 1, BuildingBlock: MIDCAF_clean_linker_0, # of connection points: 3
#     Edge 9, Type (0, 1), None
#     Edge 10, Type (0, 1), None
#     Edge 11, Type (0, 1), None
#     Edge 12, Type (0, 1), None
#     Edge 13, Type (0, 1), None
#     Edge 14, Type (0, 1), None
#     Edge 15, Type (0, 1), None
#     Edge 16, Type (0, 1), None
#     Edge 17, Type (0, 1), None
#     Edge 18, Type (0, 1), None
#     Edge 19, Type (0, 1), None
#     Edge 20, Type (0, 1), None
#     Edge 21, Type (0, 1), None
#     Edge 22, Type (0, 1), None
#     Edge 23, Type (0, 1), None
#     Edge 24, Type (0, 1), None
#     Edge 25, Type (0, 1), None
#     Edge 26, Type (0, 1), None
# Relax obj value: 0.170
# Max RMSD: 0.170
# Mean RMSD: 0.142
data_MOF--net-anh--node1-BETDEL_clean_sbu_0--node2-MIDCAF_clean_linker_0--edge1-none
_symmetry_space_group_name_H-M    P1
_symmetry_Int_Tables_number       1
_symmetry_cell_setting            triclinic
loop_
_symmetry_equiv_pos_as_xyz
'x, y, z'
_cell_length_a     19.259586
_cell_length_b     19.262234
_cell_length_c     35.272036
_cell_angle_alpha  90.050887
_cell_angle_beta   90.055486
_cell_angle_gamma 119.9995
loop_
_atom_site_label
_atom_site_type_symbol
_atom_site_fract_x
_atom_site_fract_y
_atom_site_fract_z
_atom_type_partial_charge
Dy0 Dy 0.09595 0.48562 0.15228 0.0
C1 C 0.90743 0.62803 0.17929 0.0
C2 C 0.19238 0.42404 0.13642 0.0
Dy3 Dy 1.00875 0.57355 0.15946 0.0
O4 O 0.14986 0.43608 0.11152 0.0
O5 O 0.18298 0.4468 0.1696 0.0
O6 O 0.04742 0.42768 0.20863 0.0
O7 O 0.07652 0.54688 0.19931 0.0
C8 C 0.04678 0.48975 0.22243 0.0
C9 C 0.05499 0.57155 0.08796 0.0
O10 O 0.12922 0.67057 0.1788 0.0
O11 O 0.19768 0.61628 0.14926 0.0
O12 O 0.96465 0.66076 0.15454 0.0
O13 O 0.90773 0.56655 0.19409 0.0
O14 O 0.04925 0.62991 0.10284 0.0
O15 O 1.02858 0.51322 0.11081 0.0
O16 O 0.97279 0.37849 0.14454 0.0
O17 O 0.90549 0.4455 0.16065 0.0
C18 C 0.19724 0.67819 0.16588 0.0
C19 C 0.90534 0.37806 0.15262 0.0
Dy20 Dy 0.48711 0.03811 0.48567 0.0
C21 C 0.81834 0.2263 0.5124 0.0
C22 C 0.32896 0.94144 0.47001 0.0
Dy23 Dy 0.66231 0.12526 0.49267 0.0
O24 O 0.36148 0.95106 0.50314 0.0
O25 O 0.38325 0.98392 0.44506 0.0
O26 O 0.4782 0.08727 0.54199 0.0
O27 O 0.56818 0.05795 0.53264 0.0
C28 C 0.541 0.088 0.55575 0.0
C29 C 0.61342 0.07844 0.42121 0.0
O30 O 0.63892 1.00494 0.51201 0.0
O31 O 0.51598 0.93635 0.48255 0.0
O32 O 0.79353 0.16898 0.48761 0.0
O33 O 0.75677 0.22638 0.52724 0.0
O34 O 0.67766 0.08429 0.436 0.0
O35 O 0.58173 0.10507 0.44411 0.0
O36 O 0.50316 0.16121 0.47791 0.0
O37 O 0.63759 0.22859 0.49393 0.0
C38 C 0.57842 0.93686 0.49912 0.0
C39 C 0.57024 0.2287 0.48596 0.0
Dy40 Dy 0.64639 0.64864 0.81914 0.0
C41 C 0.50391 0.31756 0.84557 0.0
C42 C 0.70815 0.80673 0.80357 0.0
Dy43 Dy 0.55838 0.4734 0.82594 0.0
O44 O 0.69621 0.75231 0.77859 0.0
O45 O 0.68515 0.77438 0.83667 0.0
O46 O 0.70435 0.65766 0.87554 0.0
O47 O 0.58513 0.56761 0.86597 0.0
C48 C 0.64228 0.59481 0.88917 0.0
C49 C 0.56056 0.52218 0.75452 0.0
O50 O 0.46134 0.49672 0.84521 0.0
O51 O 0.51571 0.61973 0.816 0.0
O52 O 0.47136 0.34207 0.82068 0.0
O53 O 0.5652 0.37932 0.86059 0.0
O54 O 0.50212 0.45798 0.76922 0.0
O55 O 0.61882 0.55392 0.77751 0.0
O56 O 0.75348 0.6326 0.81144 0.0
O57 O 0.68642 0.49816 0.82721 0.0
C58 C 0.45377 0.55724 0.83244 0.0
C59 C 0.75388 0.56551 0.81937 0.0
C60 C 0.27364 0.81128 0.19892 0.0
C61 C 0.27354 0.75586 0.17283 0.0
C62 C 0.34645 0.7758 0.15463 0.0
C63 C 0.41755 0.84851 0.16301 0.0
H64 H 0.63041 0.22965 0.17627 0.0
H65 H 0.75243 0.35345 0.1591 0.0
H66 H 0.88241 0.22469 0.15531 0.0
H67 H 0.75974 0.10107 0.17298 0.0
H68 H 0.70641 0.10398 0.29836 0.0
H69 H 0.72547 0.11783 0.36671 0.0
H70 H 0.47152 1.02253 0.38233 0.0
H71 H 0.45165 1.00563 0.31328 0.0
H72 H 0.34192 0.92186 0.22897 0.0
H73 H 0.21924 0.79877 0.21361 0.0
H74 H 0.34879 0.73492 0.13427 0.0
H75 H 0.47308 0.86112 0.14947 0.0
N76 N 0.55282 1.02622 0.18186 0.0
N77 N 0.62639 0.09735 0.23581 0.0
N78 N 0.50071 0.98262 0.24331 0.0
C79 C 0.61983 0.08966 0.19757 0.0
C80 C 0.56747 0.04442 0.25884 0.0
C81 C 0.49284 0.97206 0.20504 0.0
C82 C 0.68468 0.15494 0.17488 0.0
C83 C 0.68422 0.22716 0.17011 0.0
C84 C 0.75474 0.29849 0.16075 0.0
C85 C 0.82807 0.29981 0.156 0.0
C86 C 0.82734 0.22636 0.15849 0.0
C87 C 0.75673 0.15505 0.16822 0.0
C88 C 0.57756 0.05356 0.30048 0.0
C89 C 0.65451 0.08596 0.31628 0.0
C90 C 0.66536 0.09366 0.35547 0.0
C91 C 0.59986 0.07127 0.37981 0.0
C92 C 0.52292 0.04043 0.36416 0.0
C93 C 0.51163 0.03045 0.32476 0.0
C94 C 0.41743 0.90199 0.19026 0.0
C95 C 0.34429 0.88243 0.20772 0.0
C96 C 0.4965 0.30671 0.49176 0.0
C97 C 0.56925 0.30598 0.48938 0.0
C98 C 0.64123 0.37931 0.49427 0.0
C99 C 0.64036 0.44984 0.50364 0.0
H100 H 0.48487 0.66082 0.48281 0.0
H101 H 0.48305 0.78508 0.46765 0.0
H102 H 0.67755 0.91516 0.5466 0.0
H103 H 0.67788 0.7925 0.56193 0.0
H104 H 0.65046 0.68319 0.64663 0.0
H105 H 0.64691 0.66378 0.71571 0.0
H106 H 0.4881 0.40981 0.69996 0.0
H107 H 0.4939 0.42841 0.6316 0.0
H108 H 0.43873 0.37434 0.50615 0.0
H109 H 0.43979 0.25164 0.48848 0.0
H110 H 0.69852 0.38162 0.49271 0.0
H111 H 0.69665 0.50367 0.50989 0.0
N112 N 0.57082 0.58132 0.51512 0.0
N113 N 0.57886 0.63375 0.57652 0.0
N114 N 0.56793 0.50802 0.56915 0.0
C115 C 0.57648 0.64142 0.53824 0.0
C116 C 0.57376 0.56708 0.59213 0.0
C117 C 0.56712 0.51439 0.53089 0.0
C118 C 0.58197 0.71675 0.5234 0.0
C119 C 0.52808 0.71647 0.49626 0.0
C120 C 0.52651 0.78754 0.48791 0.0
C121 C 0.5798 0.86059 0.50602 0.0
C122 C 0.63541 0.86065 0.53198 0.0
C123 C 0.63588 0.79002 0.54076 0.0
C124 C 0.57246 0.55723 0.63377 0.0
C125 C 0.61514 0.6233 0.65809 0.0
C126 C 0.61349 0.61228 0.69751 0.0
C127 C 0.56717 0.53546 0.71313 0.0
C128 C 0.52419 0.46983 0.68875 0.0
C129 C 0.52769 0.48042 0.64955 0.0
C130 C 0.56766 0.4494 0.50827 0.0
C131 C 0.49576 0.37733 0.50149 0.0
C132 C 0.9056 0.63913 0.82539 0.0
C133 C 0.83212 0.56644 0.82276 0.0
C134 C 0.8334 0.4944 0.82739 0.0
C135 C 0.90474 0.49514 0.83675 0.0
H136 H 0.27109 0.65067 0.81646 0.0
H137 H 0.39727 0.65268 0.80124 0.0
H138 H 0.33299 0.45793 0.87971 0.0
H139 H 0.20993 0.4574 0.89509 0.0
H140 H 0.12744 0.48349 0.97973 0.0
H141 H 0.11109 0.48614 0.04882 0.0
H142 H 1.01441 0.64376 0.03368 0.0
H143 H 1.02775 0.63889 0.96531 0.0
H144 H 1.03094 0.6967 0.83997 0.0
H145 H 0.90728 0.69588 0.82231 0.0
H146 H 0.77841 0.43715 0.82563 0.0
H147 H 0.90223 0.43878 0.84281 0.0
N148 N 0.10578 0.56466 0.84854 0.0
N149 N 0.14958 0.55564 0.90993 0.0
N150 N 1.03475 0.56653 0.90254 0.0
C151 C 0.16002 0.55867 0.87166 0.0
C152 C 0.08779 0.56039 0.92552 0.0
C153 C 0.04235 0.56802 0.8643 0.0
C154 C 0.23003 0.55345 0.85682 0.0
C155 C 0.2836 0.60746 0.8298 0.0
C156 C 0.35629 0.60913 0.82141 0.0
C157 C 0.37611 0.55581 0.83937 0.0
C158 C 0.32058 0.5001 0.86521 0.0
C159 C 0.24945 0.49952 0.87402 0.0
C160 C 0.07881 0.561 0.96717 0.0
C161 C 0.10242 0.51834 -0.00867 0.0
C162 C 0.09274 0.51945 0.03074 0.0
C163 C 0.0617 0.5652 0.04654 0.0
C164 C 1.03875 0.60809 0.02233 0.0
C165 C 0.04616 0.60514 0.98312 0.0
C166 C 0.977 0.56776 0.84164 0.0
C167 C 0.97691 0.63974 0.83511 0.0
C168 C 0.22281 0.86131 0.42313 0.0
C169 C 0.24797 0.87714 0.46096 0.0
C170 C 0.20151 0.82266 0.48932 0.0
C171 C 0.1373 0.74806 0.47939 0.0
H172 H 1.03237 0.37099 0.43785 0.0
H173 H 0.94444 0.24592 0.47028 0.0
H174 H 0.86787 0.37138 0.54574 0.0
H175 H 0.95725 0.497 0.51371 0.0
H176 H 1.00056 0.4053 0.34717 0.0
H177 H 1.00705 0.3813 0.27964 0.0
H178 H 0.05493 0.62085 0.25487 0.0
H179 H 0.04866 0.64529 0.32193 0.0
H180 H 0.1444 0.77386 0.38336 0.0
H181 H 0.25711 0.90335 0.4009 0.0
H182 H 0.21908 0.83454 0.51886 0.0
H183 H 0.10689 0.70435 0.50159 0.0
N184 N 0.05312 0.58397 0.4558 0.0
N185 N 1.01397 0.48869 0.40704 0.0
N186 N 0.06171 0.6233 0.39236 0.0
C187 C 1.02422 0.50705 0.44452 0.0
C188 C 1.03189 0.54651 0.38081 0.0
C189 C 0.0726 0.64265 0.42969 0.0
C190 C 0.9983 0.44229 0.47234 0.0
C191 C 0.99946 0.37231 0.46249 0.0
C192 C 0.94975 0.3009 0.48131 0.0
C193 C 0.89702 0.29893 0.50925 0.0
C194 C 0.90702 0.37135 0.52371 0.0
C195 C 0.95778 0.44321 0.5052 0.0
C196 C 1.02548 0.52772 0.33998 0.0
C197 C 1.01143 0.4525 0.3273 0.0
C198 C 1.01517 0.43866 0.2887 0.0
C199 C 1.03279 0.49972 0.26236 0.0
C200 C 0.04224 0.57312 0.27476 0.0
C201 C 1.03872 0.58707 0.31322 0.0
C202 C 0.11907 0.72755 0.44101 0.0
C203 C 0.15822 0.78696 0.41319 0.0
C204 C 0.56123 0.22978 0.85693 0.0
C205 C 0.49854 0.23918 0.84233 0.0
C206 C 0.4483 0.18632 0.81422 0.0
C207 C 0.47075 0.13711 0.79541 0.0
H208 H 0.69511 0.03007 0.83511 0.0
H209 H 0.71166 0.9171 0.85242 0.0
H210 H 0.74298 0.87855 0.73455 0.0
H211 H 0.72765 0.99203 0.71698 0.0
H212 H 0.69506 0.08708 0.65533 0.0
H213 H 0.66385 0.07967 0.58826 0.0
H214 H 0.47334 0.1295 0.61279 0.0
H215 H 0.50432 0.13714 0.6803 0.0
H216 H 0.63756 0.1805 0.84707 0.0
H217 H 0.60003 0.26904 0.87909 0.0
H218 H 0.39844 0.19118 0.80309 0.0
H219 H 0.43687 0.10409 0.77067 0.0
N220 N 0.62929 0.08422 0.78915 0.0
N221 N 0.66046 0.07542 0.72579 0.0
N222 N 0.57363 0.1234 0.74023 0.0
C223 C 0.66861 0.06459 0.76314 0.0
C224 C 0.61367 0.10535 0.71411 0.0
C225 C 0.58145 0.11321 0.77774 0.0
C226 C 0.7065 1.01771 0.77457 0.0
C227 C 0.70822 0.99936 0.81296 0.0
C228 C 0.71778 0.9347 0.8229 0.0
C229 C 0.72551 0.88789 0.79456 0.0
C230 C 0.73542 0.9131 0.75676 0.0
C231 C 0.72651 0.97814 0.7468 0.0
C232 C 0.60128 0.11133 0.67325 0.0
C233 C 0.64696 0.09724 0.64655 0.0
C234 C 0.62919 0.09305 0.6081 0.0
C235 C 0.56537 0.10267 0.59564 0.0
C236 C 0.52243 0.12119 0.62189 0.0
C237 C 0.54031 0.1256 0.66048 0.0
C238 C 0.5421 0.13886 0.80544 0.0
C239 C 0.58308 0.1795 0.83842 0.0
C240 C 0.76224 0.57074 0.19033 0.0
C241 C 0.83449 0.63355 0.17605 0.0
C242 C 0.83218 0.68422 0.14816 0.0
C243 C 0.76067 0.66217 0.12924 0.0
H244 H 0.42892 0.43734 0.16794 0.0
H245 H 0.29912 0.42012 0.18521 0.0
H246 H 0.2299 0.39029 0.06721 0.0
H247 H 0.359 0.40629 0.04967 0.0
H248 H 0.48718 0.43963 0.9882 0.0
H249 H 0.51124 0.47144 0.92125 0.0
H250 H 0.75107 0.66251 0.94648 0.0
H251 H 0.72744 0.63092 0.01389 0.0
H252 H 0.63666 0.49475 0.18011 0.0
H253 H 0.76246 0.53159 0.21231 0.0
H254 H 0.88703 0.73417 0.13726 0.0
H255 H 0.76178 0.69643 0.10466 0.0
N256 N 0.54917 0.50389 0.12225 0.0
N257 N 0.50957 0.47371 0.05876 0.0
N258 N 0.64428 0.56035 0.07357 0.0
C259 C 0.49036 0.46495 0.09607 0.0
C260 C 0.58633 0.52071 0.04728 0.0
C261 C 0.62607 0.55193 0.11105 0.0
C262 C 0.40551 0.42675 0.10735 0.0
C263 C 0.38518 0.42441 0.14573 0.0
C264 C 0.31081 0.41447 0.15566 0.0
C265 C 0.25636 0.40696 0.1273 0.0
C266 C 0.27192 0.39766 0.08945 0.0
C267 C 0.34605 0.40696 0.0795 0.0
C268 C 0.60492 0.53362 0.00647 0.0
C269 C 0.54538 0.48799 0.9796 0.0
C270 C 0.55911 0.50611 0.94121 0.0
C271 C 0.63248 0.57023 0.92898 0.0
C272 C 0.69372 0.61318 0.9554 0.0
C273 C 0.6801 0.59495 -0.00606 0.0
C274 C 0.69092 0.59077 0.13893 0.0
C275 C 0.69027 0.54929 0.17172 0.0
loop_
_geom_bond_atom_site_label_1
_geom_bond_atom_site_label_2
_geom_bond_distance
_geom_bond_site_symmetry_2
_ccdc_geom_bond_type
Dy0 O4 2.398 . S
Dy0 O5 2.491 . S
Dy0 O6 2.403 . S
Dy0 O7 2.664 . S
Dy0 O11 2.326 . S
Dy0 O15 2.310 . S
Dy0 O16 2.351 1_455 S
C1 O12 1.185 . S
C1 O13 1.355 . S
C2 O4 1.185 . S
C2 O5 1.355 . S
Dy3 O7 2.310 1_655 S
Dy3 O10 2.351 1_655 S
Dy3 O12 2.398 . S
Dy3 O13 2.491 . S
Dy3 O14 2.403 . S
Dy3 O15 2.664 1_655 S
Dy3 O17 2.326 . S
O4 Dy0 2.398 . S
O4 C2 1.185 . S
O5 Dy0 2.491 . S
O5 C2 1.355 . S
O6 Dy0 2.403 . S
O6 C8 1.254 . S
O7 Dy0 2.664 . S
O7 Dy3 2.310 1_455 S
O7 C8 1.268 . S
C8 O6 1.254 . S
C8 O7 1.268 . S
C9 O14 1.254 1_455 S
C9 O15 1.268 . S
O10 Dy3 2.351 1_455 S
O10 C18 1.249 . S
O11 Dy0 2.326 . S
O11 C18 1.267 . S
O12 C1 1.185 . S
O12 Dy3 2.398 . S
O13 C1 1.355 . S
O13 Dy3 2.491 . S
O14 Dy3 2.403 . S
O14 C9 1.254 1_655 S
O15 Dy0 2.310 . S
O15 Dy3 2.664 1_455 S
O15 C9 1.268 . S
O16 Dy0 2.351 1_655 S
O16 C19 1.249 . S
O17 Dy3 2.326 . S
O17 C19 1.267 . S
C18 O10 1.249 . S
C18 O11 1.267 . S
C19 O16 1.249 . S
C19 O17 1.267 . S
Dy20 O24 2.398 . S
Dy20 O25 2.491 . S
Dy20 O26 2.403 . S
Dy20 O27 2.664 1_565 S
Dy20 O31 2.326 . S
Dy20 O35 2.310 1_565 S
Dy20 O36 2.351 1_565 S
C21 O32 1.185 . S
C21 O33 1.355 . S
C22 O24 1.185 . S
C22 O25 1.355 . S
Dy23 O27 2.310 . S
Dy23 O30 2.351 1_545 S
Dy23 O32 2.398 . S
Dy23 O33 2.491 . S
Dy23 O34 2.403 . S
Dy23 O35 2.664 . S
Dy23 O37 2.326 . S
O24 Dy20 2.398 . S
O24 C22 1.185 . S
O25 Dy20 2.491 . S
O25 C22 1.355 . S
O26 Dy20 2.403 . S
O26 C28 1.254 1_565 S
O27 Dy20 2.664 1_545 S
O27 Dy23 2.310 . S
O27 C28 1.268 . S
C28 O26 1.254 1_545 S
C28 O27 1.268 . S
C29 O34 1.254 . S
C29 O35 1.268 . S
O30 Dy23 2.351 1_565 S
O30 C38 1.249 . S
O31 Dy20 2.326 . S
O31 C38 1.267 . S
O32 C21 1.185 . S
O32 Dy23 2.398 . S
O33 C21 1.355 . S
O33 Dy23 2.491 . S
O34 Dy23 2.403 . S
O34 C29 1.254 . S
O35 Dy20 2.310 1_545 S
O35 Dy23 2.664 . S
O35 C29 1.268 . S
O36 Dy20 2.351 1_545 S
O36 C39 1.249 . S
O37 Dy23 2.326 . S
O37 C39 1.267 . S
C38 O30 1.249 . S
C38 O31 1.267 . S
C39 O36 1.249 . S
C39 O37 1.267 . S
Dy40 O44 2.398 . S
Dy40 O45 2.491 . S
Dy40 O46 2.403 . S
Dy40 O47 2.664 . S
Dy40 O51 2.326 . S
Dy40 O55 2.310 . S
Dy40 O56 2.351 . S
C41 O52 1.185 . S
C41 O53 1.355 . S
C42 O44 1.185 . S
C42 O45 1.355 . S
Dy43 O47 2.310 . S
Dy43 O50 2.351 . S
Dy43 O52 2.398 . S
Dy43 O53 2.491 . S
Dy43 O54 2.403 . S
Dy43 O55 2.664 . S
Dy43 O57 2.326 . S
O44 Dy40 2.398 . S
O44 C42 1.185 . S
O45 Dy40 2.491 . S
O45 C42 1.355 . S
O46 Dy40 2.403 . S
O46 C48 1.254 . S
O47 Dy40 2.664 . S
O47 Dy43 2.310 . S
O47 C48 1.268 . S
C48 O46 1.254 . S
C48 O47 1.268 . S
C49 O54 1.254 . S
C49 O55 1.268 . S
O50 Dy43 2.351 . S
O50 C58 1.249 . S
O51 Dy40 2.326 . S
O51 C58 1.267 . S
O52 C41 1.185 . S
O52 Dy43 2.398 . S
O53 C41 1.355 . S
O53 Dy43 2.491 . S
O54 Dy43 2.403 . S
O54 C49 1.254 . S
O55 Dy40 2.310 . S
O55 Dy43 2.664 . S
O55 C49 1.268 . S
O56 Dy40 2.351 . S
O56 C59 1.249 . S
O57 Dy43 2.326 . S
O57 C59 1.267 . S
C58 O50 1.249 . S
C58 O51 1.267 . S
C59 O56 1.249 . S
C59 O57 1.267 . S
C60 C61 1.384 . S
C60 H73 0.947 . S
C60 C95 1.382 . S
C61 C60 1.384 . S
C61 C62 1.378 . S
C62 C61 1.378 . S
C62 C63 1.378 . S
C62 H74 0.952 . S
C63 C62 1.378 . S
C63 H75 0.950 . S
C63 C94 1.383 . S
H64 C83 0.947 . S
H65 C84 0.946 . S
H66 C86 0.953 . S
H67 C87 0.945 . S
H68 C89 0.952 . S
H69 C90 0.949 . S
H70 C92 0.950 . S
H71 C93 0.948 . S
H72 C95 0.951 . S
H73 C60 0.947 . S
H74 C62 0.952 . S
H75 C63 0.950 . S
N76 C79 1.382 1_565 S
N76 C81 1.363 . S
N77 C79 1.371 . S
N77 C80 1.372 . S
N78 C80 1.361 1_565 S
N78 C81 1.377 . S
C79 N76 1.382 1_545 S
C79 N77 1.371 . S
C79 C82 1.480 . S
C80 N77 1.372 . S
C80 N78 1.361 1_545 S
C80 C88 1.457 . S
C81 N76 1.363 . S
C81 N78 1.377 . S
C81 C94 1.479 . S
C82 C79 1.480 . S
C82 C83 1.383 . S
C82 C87 1.385 . S
C83 H64 0.947 . S
C83 C82 1.383 . S
C83 C84 1.388 . S
C84 H65 0.946 . S
C84 C83 1.388 . S
C84 C85 1.384 . S
C85 C84 1.384 . S
C85 C86 1.377 . S
C86 H66 0.953 . S
C86 C85 1.377 . S
C86 C87 1.369 . S
C87 H67 0.945 . S
C87 C82 1.385 . S
C87 C86 1.369 . S
C88 C80 1.457 . S
C88 C89 1.372 . S
C88 C93 1.364 1_545 S
C89 H68 0.952 . S
C89 C88 1.372 . S
C89 C90 1.389 . S
C90 H69 0.949 . S
C90 C89 1.389 . S
C90 C91 1.387 . S
C91 C90 1.387 . S
C91 C92 1.372 1_545 S
C92 H70 0.950 . S
C92 C91 1.372 1_565 S
C92 C93 1.379 . S
C93 H71 0.948 . S
C93 C88 1.364 1_565 S
C93 C92 1.379 . S
C94 C63 1.383 . S
C94 C81 1.479 . S
C94 C95 1.398 . S
C95 C60 1.382 . S
C95 H72 0.951 . S
C95 C94 1.398 . S
C96 C97 1.384 . S
C96 H109 0.947 . S
C96 C131 1.382 . S
C97 C96 1.384 . S
C97 C98 1.378 . S
C98 C97 1.378 . S
C98 C99 1.378 . S
C98 H110 0.952 . S
C99 C98 1.378 . S
C99 H111 0.950 . S
C99 C130 1.383 . S
H100 C119 0.947 . S
H101 C120 0.946 . S
H102 C122 0.953 . S
H103 C123 0.945 . S
H104 C125 0.952 . S
H105 C126 0.949 . S
H106 C128 0.950 . S
H107 C129 0.948 . S
H108 C131 0.951 . S
H109 C96 0.947 . S
H110 C98 0.952 . S
H111 C99 0.950 . S
N112 C115 1.382 . S
N112 C117 1.363 . S
N113 C115 1.371 . S
N113 C116 1.372 . S
N114 C116 1.361 . S
N114 C117 1.377 . S
C115 N112 1.382 . S
C115 N113 1.371 . S
C115 C118 1.480 . S
C116 N113 1.372 . S
C116 N114 1.361 . S
C116 C124 1.457 . S
C117 N112 1.363 . S
C117 N114 1.377 . S
C117 C130 1.479 . S
C118 C115 1.480 . S
C118 C119 1.383 . S
C118 C123 1.385 . S
C119 H100 0.947 . S
C119 C118 1.383 . S
C119 C120 1.388 . S
C120 H101 0.946 . S
C120 C119 1.388 . S
C120 C121 1.384 . S
C121 C120 1.384 . S
C121 C122 1.377 . S
C122 H102 0.953 . S
C122 C121 1.377 . S
C122 C123 1.369 . S
C123 H103 0.945 . S
C123 C118 1.385 . S
C123 C122 1.369 . S
C124 C116 1.457 . S
C124 C125 1.372 . S
C124 C129 1.364 . S
C125 H104 0.952 . S
C125 C124 1.372 . S
C125 C126 1.389 . S
C126 H105 0.949 . S
C126 C125 1.389 . S
C126 C127 1.387 . S
C127 C126 1.387 . S
C127 C128 1.372 . S
C128 H106 0.950 . S
C128 C127 1.372 . S
C128 C129 1.379 . S
C129 H107 0.948 . S
C129 C124 1.364 . S
C129 C128 1.379 . S
C130 C99 1.383 . S
C130 C117 1.479 . S
C130 C131 1.398 . S
C131 C96 1.382 . S
C131 H108 0.951 . S
C131 C130 1.398 . S
C132 C133 1.384 . S
C132 H145 0.947 . S
C132 C167 1.382 . S
C133 C132 1.384 . S
C133 C134 1.378 . S
C134 C133 1.378 . S
C134 C135 1.378 . S
C134 H146 0.952 . S
C135 C134 1.378 . S
C135 H147 0.950 . S
C135 C166 1.383 . S
H136 C155 0.947 . S
H137 C156 0.946 . S
H138 C158 0.953 . S
H139 C159 0.945 . S
H140 C161 0.952 . S
H141 C162 0.949 . S
H142 C164 0.950 . S
H143 C165 0.948 . S
H144 C167 0.951 . S
H145 C132 0.947 . S
H146 C134 0.952 . S
H147 C135 0.950 . S
N148 C151 1.382 . S
N148 C153 1.363 1_455 S
N149 C151 1.371 . S
N149 C152 1.372 . S
N150 C152 1.361 1_655 S
N150 C153 1.377 . S
C151 N148 1.382 . S
C151 N149 1.371 . S
C151 C154 1.480 . S
C152 N149 1.372 . S
C152 N150 1.361 1_455 S
C152 C160 1.457 . S
C153 N148 1.363 1_655 S
C153 N150 1.377 . S
C153 C166 1.479 . S
C154 C151 1.480 . S
C154 C155 1.383 . S
C154 C159 1.385 . S
C155 H136 0.947 . S
C155 C154 1.383 . S
C155 C156 1.388 . S
C156 H137 0.946 . S
C156 C155 1.388 . S
C156 C157 1.384 . S
C157 C156 1.384 . S
C157 C158 1.377 . S
C158 H138 0.953 . S
C158 C157 1.377 . S
C158 C159 1.369 . S
C159 H139 0.945 . S
C159 C154 1.385 . S
C159 C158 1.369 . S
C160 C152 1.457 . S
C160 C161 1.372 . S
C160 C165 1.364 1_455 S
C161 H140 0.952 . S
C161 C160 1.372 . S
C161 C162 1.389 1_556 S
C162 H141 0.949 . S
C162 C161 1.389 1_554 S
C162 C163 1.387 . S
C163 C162 1.387 . S
C163 C164 1.372 1_455 S
C164 H142 0.950 . S
C164 C163 1.372 1_655 S
C164 C165 1.379 1_554 S
C165 H143 0.948 . S
C165 C160 1.364 1_655 S
C165 C164 1.379 1_556 S
C166 C135 1.383 . S
C166 C153 1.479 . S
C166 C167 1.398 . S
C167 C132 1.382 . S
C167 H144 0.951 . S
C167 C166 1.398 . S
C168 C169 1.384 . S
C168 H181 0.947 . S
C168 C203 1.382 . S
C169 C168 1.384 . S
C169 C170 1.378 . S
C170 C169 1.378 . S
C170 C171 1.378 . S
C170 H182 0.952 . S
C171 C170 1.378 . S
C171 H183 0.950 . S
C171 C202 1.383 . S
H172 C191 0.947 . S
H173 C192 0.946 . S
H174 C194 0.953 . S
H175 C195 0.945 . S
H176 C197 0.952 . S
H177 C198 0.949 . S
H178 C200 0.950 . S
H179 C201 0.948 . S
H180 C203 0.951 . S
H181 C168 0.947 . S
H182 C170 0.952 . S
H183 C171 0.950 . S
N184 C187 1.382 1_455 S
N184 C189 1.363 . S
N185 C187 1.371 . S
N185 C188 1.372 1_655 S
N186 C188 1.361 . S
N186 C189 1.377 . S
C187 N184 1.382 1_655 S
C187 N185 1.371 . S
C187 C190 1.480 . S
C188 N185 1.372 1_455 S
C188 N186 1.361 . S
C188 C196 1.457 . S
C189 N184 1.363 . S
C189 N186 1.377 . S
C189 C202 1.479 . S
C190 C187 1.480 . S
C190 C191 1.383 . S
C190 C195 1.385 . S
C191 H172 0.947 . S
C191 C190 1.383 . S
C191 C192 1.388 . S
C192 H173 0.946 . S
C192 C191 1.388 . S
C192 C193 1.384 . S
C193 C192 1.384 . S
C193 C194 1.377 . S
C194 H174 0.953 . S
C194 C193 1.377 . S
C194 C195 1.369 . S
C195 H175 0.945 . S
C195 C190 1.385 . S
C195 C194 1.369 . S
C196 C188 1.457 . S
C196 C197 1.372 1_455 S
C196 C201 1.364 . S
C197 H176 0.952 . S
C197 C196 1.372 1_655 S
C197 C198 1.389 . S
C198 H177 0.949 . S
C198 C197 1.389 . S
C198 C199 1.387 1_655 S
C199 C198 1.387 1_455 S
C199 C200 1.372 . S
C200 H178 0.950 . S
C200 C199 1.372 . S
C200 C201 1.379 . S
C201 H179 0.948 . S
C201 C196 1.364 . S
C201 C200 1.379 . S
C202 C171 1.383 . S
C202 C189 1.479 . S
C202 C203 1.398 . S
C203 C168 1.382 . S
C203 H180 0.951 . S
C203 C202 1.398 . S
C204 C205 1.384 . S
C204 H217 0.947 . S
C204 C239 1.382 . S
C205 C204 1.384 . S
C205 C206 1.378 . S
C206 C205 1.378 . S
C206 C207 1.378 . S
C206 H218 0.952 . S
C207 C206 1.378 . S
C207 H219 0.950 . S
C207 C238 1.383 . S
H208 C227 0.947 . S
H209 C228 0.946 . S
H210 C230 0.953 . S
H211 C231 0.945 . S
H212 C233 0.952 . S
H213 C234 0.949 . S
H214 C236 0.950 . S
H215 C237 0.948 . S
H216 C239 0.951 . S
H217 C204 0.947 . S
H218 C206 0.952 . S
H219 C207 0.950 . S
N220 C223 1.382 . S
N220 C225 1.363 . S
N221 C223 1.370 1_565 S
N221 C224 1.363 1_565 S
N222 C224 1.361 . S
N222 C225 1.377 . S
C223 N220 1.382 . S
C223 N221 1.370 1_545 S
C223 C226 1.480 1_545 S
C224 N221 1.363 1_545 S
C224 N222 1.361 . S
C224 C232 1.457 . S
C225 N220 1.363 . S
C225 N222 1.377 . S
C225 C238 1.479 . S
C226 C223 1.480 1_565 S
C226 C227 1.383 . S
C226 C231 1.385 . S
C227 H208 0.947 . S
C227 C226 1.383 . S
C227 C228 1.388 . S
C228 H209 0.946 . S
C228 C227 1.388 . S
C228 C229 1.384 . S
C229 C228 1.384 . S
C229 C230 1.377 . S
C230 H210 0.953 . S
C230 C229 1.377 . S
C230 C231 1.369 . S
C231 H211 0.945 . S
C231 C226 1.385 . S
C231 C230 1.369 . S
C232 C224 1.457 . S
C232 C233 1.372 1_545 S
C232 C237 1.364 . S
C233 H212 0.952 . S
C233 C232 1.372 1_565 S
C233 C234 1.389 . S
C234 H213 0.949 . S
C234 C233 1.389 . S
C234 C235 1.387 1_565 S
C235 C234 1.387 1_545 S
C235 C236 1.372 . S
C236 H214 0.950 . S
C236 C235 1.372 . S
C236 C237 1.379 . S
C237 H215 0.948 . S
C237 C232 1.364 . S
C237 C236 1.379 . S
C238 C207 1.383 . S
C238 C225 1.479 . S
C238 C239 1.398 . S
C239 C204 1.382 . S
C239 H216 0.951 . S
C239 C238 1.398 . S
C240 C241 1.384 . S
C240 H253 0.947 . S
C240 C275 1.382 . S
C241 C240 1.384 . S
C241 C242 1.378 . S
C242 C241 1.378 . S
C242 C243 1.378 . S
C242 H254 0.952 . S
C243 C242 1.378 . S
C243 H255 0.950 . S
C243 C274 1.383 . S
H244 C263 0.947 . S
H245 C264 0.946 . S
H246 C266 0.953 . S
H247 C267 0.945 . S
H248 C269 0.952 . S
H249 C270 0.949 . S
H250 C272 0.950 . S
H251 C273 0.948 . S
H252 C275 0.951 . S
H253 C240 0.947 . S
H254 C242 0.952 . S
H255 C243 0.950 . S
N256 C259 1.382 . S
N256 C261 1.363 . S
N257 C259 1.371 . S
N257 C260 1.372 . S
N258 C260 1.361 . S
N258 C261 1.377 . S
C259 N256 1.382 . S
C259 N257 1.371 . S
C259 C262 1.480 . S
C260 N257 1.372 . S
C260 N258 1.361 . S
C260 C268 1.457 . S
C261 N256 1.363 . S
C261 N258 1.377 . S
C261 C274 1.479 . S
C262 C259 1.480 . S
C262 C263 1.383 . S
C262 C267 1.385 . S
C263 H244 0.947 . S
C263 C262 1.383 . S
C263 C264 1.388 . S
C264 H245 0.946 . S
C264 C263 1.388 . S
C264 C265 1.384 . S
C265 C264 1.384 . S
C265 C266 1.377 . S
C266 H246 0.953 . S
C266 C265 1.377 . S
C266 C267 1.369 . S
C267 H247 0.945 . S
C267 C262 1.385 . S
C267 C266 1.369 . S
C268 C260 1.457 . S
C268 C269 1.372 . S
C268 C273 1.364 . S
C269 H248 0.952 . S
C269 C268 1.372 . S
C269 C270 1.389 1_554 S
C270 H249 0.949 . S
C270 C269 1.389 1_556 S
C270 C271 1.387 . S
C271 C270 1.387 . S
C271 C272 1.372 . S
C272 H250 0.950 . S
C272 C271 1.372 . S
C272 C273 1.379 1_556 S
C273 H251 0.948 . S
C273 C268 1.364 . S
C273 C272 1.379 1_554 S
C274 C243 1.383 . S
C274 C261 1.479 . S
C274 C275 1.398 . S
C275 C240 1.382 . S
C275 H252 0.951 . S
C275 C274 1.398 . S
C2 C265 0.946 . S
C21 C193 0.930 . S
C42 C229 0.946 . S
C1 C241 1.078 . S
C169 C22 1.038 . S
C205 C41 1.076 . S
C38 C121 2.759 . S
C59 C133 2.821 . S
C18 C61 2.839 . S
C97 C39 2.821 . S
C157 C58 2.759 . S
C19 C85 2.748 . S
C163 C9 1.563 . S
C29 C91 1.564 . S
C49 C127 1.563 . S
C235 C28 1.358 . S
C271 C48 1.357 . S
C8 C199 1.274 . S
