# Generated by pormake.
# Topology anh, (6,3)-cn, num edge types: 1
# Building blocks:
#     Node 0, Type 0, BuildingBlock: BETDIP_clean_sbu_0, # of connection points: 6
#     Node 1, Type 0, BuildingBlock: BETDIP_clean_sbu_0, # of connection points: 6
#     Node 2, Type 0, BuildingBlock: BETDIP_clean_sbu_0, # of connection points: 6
#     Node 3, Type 1, BuildingBlock: ESEHIV_clean_linker_0, # of connection points: 3
#     Node 4, Type 1, BuildingBlock: ESEHIV_clean_linker_0, # of connection points: 3
#     Node 5, Type 1, BuildingBlock: ESEHIV_clean_linker_0, # of connection points: 3
#     Node 6, Type 1, BuildingBlock: ESEHIV_clean_linker_0, # of connection points: 3
#     Node 7, Type 1, BuildingBlock: ESEHIV_clean_linker_0, # of connection points: 3
#     Node 8, Type 1, BuildingBlock: ESEHIV_clean_linker_0, # of connection points: 3
#     Edge 9, Type (0, 1), BuildingBlock: KIFKEQ_clean_linker_1, # of connection points: 2
#     Edge 10, Type (0, 1), BuildingBlock: KIFKEQ_clean_linker_1, # of connection points: 2
#     Edge 11, Type (0, 1), BuildingBlock: KIFKEQ_clean_linker_1, # of connection points: 2
#     Edge 12, Type (0, 1), BuildingBlock: KIFKEQ_clean_linker_1, # of connection points: 2
#     Edge 13, Type (0, 1), BuildingBlock: KIFKEQ_clean_linker_1, # of connection points: 2
#     Edge 14, Type (0, 1), BuildingBlock: KIFKEQ_clean_linker_1, # of connection points: 2
#     Edge 15, Type (0, 1), BuildingBlock: KIFKEQ_clean_linker_1, # of connection points: 2
#     Edge 16, Type (0, 1), BuildingBlock: KIFKEQ_clean_linker_1, # of connection points: 2
#     Edge 17, Type (0, 1), BuildingBlock: KIFKEQ_clean_linker_1, # of connection points: 2
#     Edge 18, Type (0, 1), BuildingBlock: KIFKEQ_clean_linker_1, # of connection points: 2
#     Edge 19, Type (0, 1), BuildingBlock: KIFKEQ_clean_linker_1, # of connection points: 2
#     Edge 20, Type (0, 1), BuildingBlock: KIFKEQ_clean_linker_1, # of connection points: 2
#     Edge 21, Type (0, 1), BuildingBlock: KIFKEQ_clean_linker_1, # of connection points: 2
#     Edge 22, Type (0, 1), BuildingBlock: KIFKEQ_clean_linker_1, # of connection points: 2
#     Edge 23, Type (0, 1), BuildingBlock: KIFKEQ_clean_linker_1, # of connection points: 2
#     Edge 24, Type (0, 1), BuildingBlock: KIFKEQ_clean_linker_1, # of connection points: 2
#     Edge 25, Type (0, 1), BuildingBlock: KIFKEQ_clean_linker_1, # of connection points: 2
#     Edge 26, Type (0, 1), BuildingBlock: KIFKEQ_clean_linker_1, # of connection points: 2
# Relax obj value: 0.305
# Max RMSD: 0.191
# Mean RMSD: 0.163
data_MOF--net-anh--node1-BETDIP_clean_sbu_0--node2-ESEHIV_clean_linker_0--edge1-KIFKEQ_clean_linker_1
_symmetry_space_group_name_H-M    P1
_symmetry_Int_Tables_number       1
_symmetry_cell_setting            triclinic
loop_
_symmetry_equiv_pos_as_xyz
'x, y, z'
_cell_length_a     27.842398
_cell_length_b     27.892971
_cell_length_c     51.728787
_cell_angle_alpha  89.230452
_cell_angle_beta   90.26292
_cell_angle_gamma 119.75842
loop_
_atom_site_label
_atom_site_type_symbol
_atom_site_fract_x
_atom_site_fract_y
_atom_site_fract_z
_atom_type_partial_charge
Tb0 Tb 0.2146 0.64747 0.17664 0.0
Tb1 Tb 0.16065 0.52744 0.1673 0.0
C2 C 0.26603 0.7404 0.19575 0.0
C3 C 0.29641 0.79524 0.20694 0.0
C4 C 0.28678 0.803 0.2327 0.0
C5 C 0.30628 0.85618 0.2419 0.0
C6 C 0.33575 0.90201 0.22542 0.0
C7 C 0.34877 0.89409 0.20021 0.0
C8 C 0.32904 0.84099 0.19099 0.0
C9 C 0.19001 0.62037 0.12841 0.0
C10 C 0.28984 0.58974 0.16766 0.0
C11 C 1.09848 0.43165 0.15146 0.0
C12 C 1.03936 0.4063 0.14521 0.0
C13 C 1.02049 0.43453 0.12908 0.0
C14 C 0.9661 0.42369 0.13112 0.0
C15 C 0.93009 0.38454 0.14918 0.0
C16 C 0.94685 0.35127 0.16264 0.0
C17 C 1.00122 0.36201 0.16058 0.0
C18 C 0.18081 0.55693 0.21632 0.0
C19 C 1.08745 0.58856 0.16839 0.0
O20 O 0.2451 0.6952 0.20997 0.0
O21 O 0.25925 0.73305 0.17077 0.0
O22 O 0.20829 0.59878 0.14433 0.0
O23 O 0.18876 0.66166 0.13891 0.0
O24 O 0.28676 0.63328 0.17586 0.0
O25 O 0.2447 0.54358 0.16118 0.0
O26 O 1.13266 0.47224 0.13635 0.0
O27 O 1.10966 0.44342 0.17591 0.0
O28 O 0.1628 0.57644 0.19925 0.0
O29 O 0.18703 0.51809 0.20623 0.0
O30 O 1.09278 0.54645 0.16015 0.0
O31 O 1.12935 0.63115 0.17969 0.0
H32 H 0.26141 0.76807 0.24526 0.0
H33 H 0.29578 0.86126 0.26143 0.0
H34 H 0.37275 0.92892 0.18736 0.0
H35 H 0.3373 0.83576 0.17108 0.0
H36 H 1.04881 0.46868 0.11682 0.0
H37 H 0.95352 0.44902 0.1202 0.0
H38 H 0.91982 0.32086 0.17676 0.0
H39 H 1.01491 0.33977 0.17316 0.0
Tb40 Tb 0.68987 1.08041 0.50436 0.0
Tb41 Tb 0.62377 0.13509 0.49848 0.0
C42 C 0.72376 1.01789 0.52016 0.0
C43 C 0.69947 0.95823 0.51808 0.0
C44 C 0.70332 0.92836 0.53905 0.0
C45 C 0.68017 0.87142 0.53748 0.0
C46 C 0.65301 0.84357 0.51482 0.0
C47 C 0.64759 0.87343 0.49409 0.0
C48 C 0.67028 0.93049 0.4958 0.0
C49 C 0.67923 0.10548 0.45647 0.0
C50 C 0.55561 1.0068 0.49658 0.0
C51 C 0.59603 0.20482 0.48641 0.0
C52 C 0.63551 0.26488 0.48525 0.0
C53 C 0.66966 0.28842 0.46332 0.0
C54 C 0.72065 0.33701 0.46554 0.0
C55 C 0.73777 0.36213 0.48964 0.0
C56 C 0.70096 0.34262 0.5106 0.0
C57 C 0.64983 0.2949 0.50833 0.0
C58 C 0.63647 0.11081 0.54671 0.0
C59 C 0.75795 0.2065 0.49858 0.0
O60 O 0.69606 1.03369 0.53482 0.0
O61 O 0.74044 1.04595 0.4984 0.0
O62 O 0.64283 1.08723 0.47381 0.0
O63 O 0.72366 0.10715 0.46528 0.0
O64 O 0.60308 1.009 0.50326 0.0
O65 O 0.55436 1.05277 0.49127 0.0
O66 O 0.60386 0.1753 0.46928 0.0
O67 O 0.58769 0.18222 0.50948 0.0
O68 O 0.67327 0.1304 0.52939 0.0
O69 O 0.5909 0.10542 0.53731 0.0
O70 O 0.7104 0.20202 0.49072 0.0
O71 O 0.75861 0.16388 0.50959 0.0
H72 H 0.72501 0.94919 0.55646 0.0
H73 H 0.68603 0.84959 0.55356 0.0
H74 H 0.62707 0.85286 0.47643 0.0
H75 H 0.66578 0.95296 0.47959 0.0
H76 H 0.65955 0.26668 0.44515 0.0
H77 H 0.7484 0.35224 0.44907 0.0
H78 H 0.71326 0.36243 0.52923 0.0
H79 H 0.62422 0.27858 0.52546 0.0
Tb80 Tb 0.64695 0.59628 0.84402 0.0
Tb81 Tb 0.76669 0.65993 0.8317 0.0
C82 C 0.5572 0.56763 0.86596 0.0
C83 C 0.52402 0.59481 0.86552 0.0
C84 C 0.49132 0.58998 0.88684 0.0
C85 C 0.46082 0.61722 0.88669 0.0
C86 C 0.46292 0.6499 0.86523 0.0
C87 C 0.49729 0.656 0.84424 0.0
C88 C 0.52764 0.62861 0.84439 0.0
C89 C 0.6697 0.6022 0.79475 0.0
C90 C 0.70748 0.73024 0.83331 0.0
C91 C 0.85985 0.68848 0.8128 0.0
C92 C 0.87884 0.65253 0.80161 0.0
C93 C 0.84323 0.60853 0.78566 0.0
C94 C 0.85022 0.56261 0.78326 0.0
C95 C 0.89302 0.56037 0.79659 0.0
C96 C 0.93292 0.6075 0.8095 0.0
C97 C 0.92577 0.65334 0.81204 0.0
C98 C 0.74118 0.65204 0.88132 0.0
C99 C 0.70154 0.52599 0.83353 0.0
O100 O 0.60499 0.59562 0.87759 0.0
O101 O 0.56084 0.54718 0.84387 0.0
O102 O 0.69355 0.63968 0.81108 0.0
O103 O 0.62785 0.55985 0.80549 0.0
O104 O 0.66286 0.68337 0.84098 0.0
O105 O 0.75389 0.73075 0.82717 0.0
O106 O 0.82113 0.69237 0.80011 0.0
O107 O 0.84919 0.68044 0.83759 0.0
O108 O 0.71959 0.61431 0.86486 0.0
O109 O 0.78036 0.69612 0.87031 0.0
O110 O 0.74185 0.57239 0.8231 0.0
O111 O 0.66249 0.52702 0.84754 0.0
H112 H 0.4888 0.5646 0.90339 0.0
H113 H 0.43368 0.61059 0.90292 0.0
H114 H 0.4997 0.68089 0.82751 0.0
H115 H 0.55357 0.63347 0.82789 0.0
H116 H 0.80673 0.60678 0.77725 0.0
H117 H 0.81924 0.5268 0.77308 0.0
H118 H 0.96604 0.60654 0.82015 0.0
H119 H 0.95356 0.6867 0.82447 0.0
H120 H 0.53993 0.24055 0.31582 0.0
H121 H 0.70387 0.35889 0.29239 0.0
H122 H 0.56589 0.32783 0.24367 0.0
C123 C 0.56658 0.27366 0.30268 0.0
C124 C 0.54587 0.27982 0.27883 0.0
C125 C 0.6233 0.30406 0.30819 0.0
C126 C 0.65972 0.34017 0.28926 0.0
C127 C 0.63935 0.34746 0.26543 0.0
C128 C 0.58191 0.32155 0.26175 0.0
H129 H 0.75309 0.63875 0.6066 0.0
H130 H 0.89098 0.61381 0.62211 0.0
H131 H 0.85184 0.63773 0.54384 0.0
C132 C 0.78823 0.63571 0.59973 0.0
C133 C 0.79974 0.64042 0.57328 0.0
C134 C 0.82101 0.62638 0.61742 0.0
C135 C 0.86697 0.62325 0.60854 0.0
C136 C 0.87874 0.6273 0.58187 0.0
C137 C 0.84542 0.63724 0.56452 0.0
H138 H 0.97719 0.41814 0.95053 0.0
H139 H 1.14122 0.55904 0.94712 0.0
H140 H 1.06169 0.47597 0.87746 0.0
C141 C 1.01386 0.44573 0.93948 0.0
C142 C 1.01484 0.44009 0.91254 0.0
C143 C 1.05927 0.48928 0.95183 0.0
C144 C 1.10575 0.52631 0.93735 0.0
C145 C 1.10708 0.52129 0.91058 0.0
C146 C 1.06174 0.478 0.89837 0.0
H147 H 1.08533 0.52481 0.41377 0.0
H148 H 0.24473 0.67149 0.41311 0.0
H149 H 0.15916 0.60555 0.48552 0.0
C150 C 1.11895 0.55831 0.42411 0.0
C151 C 1.11594 0.55999 0.45121 0.0
C152 C 0.16539 0.59781 0.41028 0.0
C153 C 0.20934 0.64035 0.42384 0.0
C154 C 0.20805 0.64434 0.4509 0.0
C155 C 0.16082 0.60358 0.46467 0.0
H156 H 0.6922 0.19925 0.74333 0.0
H157 H 0.68287 1.04116 0.74558 0.0
H158 H 0.69843 0.12678 0.81673 0.0
C159 C 0.69267 0.16623 0.75442 0.0
C160 C 0.69663 0.1698 0.7816 0.0
C161 C 0.68733 0.12007 0.74129 0.0
C162 C 0.68599 1.0764 0.75569 0.0
C163 C 0.69005 1.07779 0.78284 0.0
C164 C 0.69535 0.12499 0.79585 0.0
H165 H 0.6243 0.61522 0.0793 0.0
H166 H 0.76995 0.59951 0.0796 0.0
H167 H 0.69104 0.59612 0.15175 0.0
C168 C 0.65552 0.61081 0.08998 0.0
C169 C 0.65208 0.6063 0.11716 0.0
C170 C 0.69739 0.6079 0.07628 0.0
C171 C 0.73693 0.60067 0.0901 0.0
C172 C 0.73583 0.59679 0.11729 0.0
C173 C 0.69281 0.5994 0.13085 0.0
H174 H 0.31174 0.50603 0.15738 0.0
H175 H 0.39416 0.68216 0.1686 0.0
H176 H 0.40041 0.51197 0.14843 0.0
H177 H 0.48329 0.68813 0.15995 0.0
H178 H 0.62188 0.68527 0.11148 0.0
H179 H 0.53688 0.68209 0.12555 0.0
H180 H 0.4876 0.52743 0.16534 0.0
H181 H 0.573 0.53061 0.15078 0.0
C182 C 0.34882 0.54612 0.1582 0.0
C183 C 0.34525 0.59359 0.16381 0.0
C184 C 0.40009 0.54948 0.15321 0.0
C185 C 0.44982 0.60053 0.15345 0.0
C186 C 0.44625 0.64802 0.15931 0.0
C187 C 0.39492 0.64457 0.1645 0.0
C188 C 0.59339 0.65103 0.12365 0.0
C189 C 0.60476 0.6084 0.13009 0.0
C190 C 0.5444 0.64921 0.13181 0.0
C191 C 0.50449 0.60437 0.1466 0.0
C192 C 0.51668 0.56243 0.15375 0.0
C193 C 0.56616 0.56456 0.14573 0.0
H194 H 0.85559 0.2508 0.52606 0.0
H195 H 0.78262 0.27982 0.45836 0.0
H196 H 0.94161 0.3373 0.51777 0.0
H197 H 0.86877 0.36468 0.44917 0.0
H198 H 1.0095 0.53893 0.44736 0.0
H199 H 0.92487 0.45532 0.46003 0.0
H200 H 1.02256 0.3899 0.49437 0.0
H201 H 1.10717 0.47532 0.48256 0.0
C202 C 0.85798 0.27559 0.5093 0.0
C203 C 0.81142 0.25887 0.4933 0.0
C204 C 0.90774 0.32531 0.50435 0.0
C205 C 0.91305 0.35959 0.4829 0.0
C206 C 0.86678 0.34121 0.46635 0.0
C207 C 0.81689 0.29213 0.47159 0.0
C208 C 1.0128 0.50727 0.45828 0.0
C209 C 1.0653 0.51439 0.46424 0.0
C210 C 0.96405 0.45845 0.46514 0.0
C211 C 0.96579 0.41414 0.4778 0.0
C212 C 1.01858 0.42246 0.48479 0.0
C213 C 1.0675 0.47181 0.47814 0.0
H214 H 0.79146 0.83539 0.82121 0.0
H215 H 0.61585 0.74419 0.83582 0.0
H216 H 0.78582 0.9186 0.81237 0.0
H217 H 0.61009 0.8275 0.8273 0.0
H218 H 0.60947 0.96963 0.78011 0.0
H219 H 0.61333 0.88769 0.79386 0.0
H220 H 0.77293 0.9915 0.82854 0.0
H221 H 0.76894 1.07384 0.81424 0.0
C222 C 0.75154 0.83296 0.82279 0.0
C223 C 0.70411 0.78233 0.82932 0.0
C224 C 0.74834 0.88119 0.81784 0.0
C225 C 0.69748 0.88077 0.81905 0.0
C226 C 0.65009 0.83012 0.82581 0.0
C227 C 0.6534 0.78197 0.83093 0.0
C228 C 0.64488 0.97502 0.79121 0.0
C229 C 0.68853 1.02867 0.7963 0.0
C230 C 0.64719 0.92773 0.79915 0.0
C231 C 0.69357 0.93202 0.81237 0.0
C232 C 0.73666 0.98587 0.81818 0.0
C233 C 0.73408 1.03338 0.81036 0.0
H234 H 1.02155 0.55073 0.12572 0.0
H235 H 1.03544 0.63147 0.19795 0.0
H236 H 0.93723 0.55295 0.11574 0.0
H237 H 0.94872 0.63106 0.18887 0.0
H238 H 0.81368 0.66485 0.15289 0.0
H239 H 0.89812 0.66427 0.16616 0.0
H240 H 0.84443 0.51334 0.12403 0.0
H241 H 0.76222 0.51596 0.11002 0.0
C242 C 1.00603 0.56821 0.13973 0.0
C243 C 1.03496 0.58979 0.16289 0.0
C244 C 0.95707 0.56932 0.13408 0.0
C245 C 0.93421 0.59098 0.15167 0.0
C246 C 0.96413 0.61384 0.17468 0.0
C247 C 1.01395 0.61376 0.18005 0.0
C248 C 0.8196 0.63106 0.14692 0.0
C249 C 0.78095 0.59047 0.13035 0.0
C250 C 0.86836 0.63069 0.15446 0.0
C251 C 0.87984 0.58947 0.14578 0.0
C252 C 0.83906 0.54712 0.1305 0.0
C253 C 0.79101 0.54796 0.12276 0.0
H254 H 0.54318 0.90208 0.49834 0.0
H255 H 0.44975 0.98592 0.48632 0.0
H256 H 0.45972 0.81352 0.49115 0.0
H257 H 0.36653 0.89764 0.47859 0.0
H258 H 0.21216 0.72634 0.48207 0.0
H259 H 0.29468 0.81208 0.49526 0.0
H260 H 0.39841 0.75738 0.45917 0.0
H261 H 0.31642 0.67209 0.44672 0.0
C262 C 0.50486 0.9018 0.49426 0.0
C263 C 0.5038 0.95176 0.49302 0.0
C264 C 0.45666 0.85068 0.4899 0.0
C265 C 0.40542 0.84746 0.4842 0.0
C266 C 0.40441 0.89754 0.48328 0.0
C267 C 0.45263 0.94864 0.48755 0.0
C268 C 0.25269 0.7321 0.47763 0.0
C269 C 0.2574 0.6918 0.46353 0.0
C270 C 0.30027 0.78182 0.48482 0.0
C271 C 0.35413 0.7927 0.47826 0.0
C272 C 0.3584 0.7511 0.46502 0.0
C273 C 0.31107 0.70183 0.45778 0.0
H274 H 0.71955 0.49213 0.78709 0.0
H275 H 0.67323 0.4358 0.86569 0.0
H276 H 0.71608 0.40556 0.7765 0.0
H277 H 0.67261 0.34967 0.85565 0.0
H278 H 0.63521 0.17901 0.8216 0.0
H279 H 0.63295 0.26224 0.83481 0.0
H280 H 0.76679 0.36019 0.78184 0.0
H281 H 0.76804 0.2776 0.76858 0.0
C282 C 0.70901 0.4613 0.80222 0.0
C283 C 0.69784 0.47169 0.82738 0.0
C284 C 0.7072 0.41132 0.7962 0.0
C285 C 0.69539 0.37012 0.81528 0.0
C286 C 0.68211 0.37983 0.84031 0.0
C287 C 0.68282 0.42959 0.84618 0.0
C288 C 0.66478 0.21853 0.81317 0.0
C289 C 0.70151 0.22109 0.79382 0.0
C290 C 0.66338 0.26654 0.82064 0.0
C291 C 0.6987 0.31866 0.80901 0.0
C292 C 0.73738 0.32119 0.79074 0.0
C293 C 0.73865 0.27355 0.7833 0.0
H294 H 0.59762 0.75811 0.54873 0.0
H295 H 0.67973 0.79957 0.47455 0.0
H296 H 0.616 0.68235 0.55363 0.0
H297 H 0.6962 0.72194 0.47881 0.0
H298 H 0.82928 0.7133 0.5331 0.0
H299 H 0.76928 0.73605 0.50815 0.0
H300 H 0.62605 0.60338 0.5463 0.0
H301 H 0.68692 0.58145 0.57174 0.0
C302 C 0.61686 0.74894 0.53283 0.0
C303 C 0.63937 0.78576 0.51183 0.0
C304 C 0.62715 0.70515 0.53548 0.0
C305 C 0.65976 0.69768 0.51703 0.0
C306 C 0.67252 0.72794 0.49369 0.0
C307 C 0.66265 0.77214 0.49115 0.0
C308 C 0.78491 0.68803 0.53559 0.0
C309 C 0.76272 0.64685 0.55481 0.0
C310 C 0.75024 0.70054 0.52106 0.0
C311 C 0.69269 0.67186 0.52546 0.0
C312 C 0.67021 0.62673 0.54278 0.0
C313 C 0.70501 0.61453 0.55747 0.0
H314 H 0.80643 0.47467 0.81935 0.0
H315 H 0.97086 0.52834 0.79151 0.0
H316 H 0.80527 0.39792 0.84239 0.0
H317 H 0.97256 0.45463 0.81648 0.0
H318 H 0.9134 0.4296 0.9182 0.0
H319 H 0.85688 0.42171 0.88142 0.0
H320 H 0.94632 0.36369 0.83523 0.0
H321 H 1.00302 0.37128 0.87269 0.0
C322 C 0.84074 0.46758 0.81667 0.0
C323 C 0.88798 0.50643 0.80315 0.0
C324 C 0.84069 0.42425 0.83037 0.0
C325 C 0.88908 0.42063 0.8318 0.0
C326 C 0.93423 0.45571 0.81575 0.0
C327 C 0.93372 0.49849 0.80161 0.0
C328 C 0.91854 0.41139 0.9008 0.0
C329 C 0.96428 0.40378 0.89781 0.0
C330 C 0.88605 0.40697 0.87942 0.0
C331 C 0.89927 0.39496 0.85495 0.0
C332 C 0.93658 0.37496 0.85363 0.0
C333 C 0.96881 0.37898 0.87514 0.0
H334 H 0.32478 0.98011 0.19825 0.0
H335 H 0.37904 0.94905 0.27184 0.0
H336 H 0.35609 1.07513 0.21083 0.0
H337 H 0.40955 1.04379 0.28453 0.0
H338 H 0.52515 0.239 0.22975 0.0
H339 H 0.45668 0.14789 0.21725 0.0
H340 H 0.38076 0.11793 0.29266 0.0
H341 H 0.44874 0.2118 0.3053 0.0
C342 C 0.34299 0.99355 0.21719 0.0
C343 C 0.3505 0.95777 0.23395 0.0
C344 C 0.36012 1.04751 0.22446 0.0
C345 C 0.38469 1.06638 0.24867 0.0
C346 C 0.38956 1.02977 0.26596 0.0
C347 C 0.37262 0.97582 0.25864 0.0
C348 C 0.49244 0.21495 0.24344 0.0
C349 C 0.49353 0.23303 0.26887 0.0
C350 C 0.45305 0.16208 0.23616 0.0
C351 C 0.41413 0.12583 0.25415 0.0
C352 C 0.41105 0.14528 0.2786 0.0
C353 C 0.45005 0.19886 0.2858 0.0
H354 H 0.81295 0.35236 0.51874 0.0
H355 H 0.79051 0.4682 0.4717 0.0
H356 H 0.89865 0.427 0.53582 0.0
H357 H 0.87214 0.54399 0.49095 0.0
H358 H 0.88671 0.53848 0.59837 0.0
H359 H 0.89243 0.47699 0.56862 0.0
H360 H 0.95673 0.60563 0.50981 0.0
H361 H 0.95081 0.66818 0.54038 0.0
C362 C 0.82751 0.39397 0.51156 0.0
C363 C 0.79528 0.4051 0.49427 0.0
C364 C 0.87632 0.43687 0.52149 0.0
C365 C 0.89099 0.49199 0.51603 0.0
C366 C 0.86237 0.50237 0.49605 0.0
C367 C 0.81489 0.45901 0.48515 0.0
C368 C 0.90542 0.55516 0.5797 0.0
C369 C 0.91448 0.60688 0.57109 0.0
C370 C 0.90864 0.51934 0.56223 0.0
C371 C 0.92065 0.53494 0.53597 0.0
C372 C 0.94392 0.59127 0.52948 0.0
C373 C 0.94086 0.62729 0.54707 0.0
H374 H 0.43348 0.69857 0.90268 0.0
H375 H 0.40019 0.64412 0.82354 0.0
H376 H 0.34289 0.69047 0.90567 0.0
H377 H 0.31058 0.63867 0.82609 0.0
H378 H 0.1556 0.49791 0.87097 0.0
H379 H 0.24403 0.55846 0.8511 0.0
H380 H 0.25925 0.69494 0.89602 0.0
H381 H 0.16933 0.63368 0.91591 0.0
C382 C 0.40784 0.68755 0.88554 0.0
C383 C 0.42253 0.66941 0.86334 0.0
C384 C 0.35607 0.68355 0.8871 0.0
C385 C 0.3188 0.66166 0.86638 0.0
C386 C 0.33804 0.65414 0.84257 0.0
C387 C 0.3896 0.65755 0.8411 0.0
C388 C 0.17671 0.54121 0.87597 0.0
C389 C 0.15617 0.56073 0.89543 0.0
C390 C 0.22741 0.57628 0.86438 0.0
C391 C 0.25887 0.63161 0.8721 0.0
C392 C 0.23607 0.65241 0.88988 0.0
C393 C 0.18504 0.61721 0.90146 0.0
H394 H 0.92432 0.47438 0.16312 0.0
H395 H 0.82618 0.29748 0.15715 0.0
H396 H 0.84858 0.47727 0.1849 0.0
H397 H 0.75142 0.29927 0.18057 0.0
H398 H 0.61711 0.30753 0.21619 0.0
H399 H 0.68206 0.32631 0.18175 0.0
H400 H 0.81327 0.4494 0.22846 0.0
H401 H 0.74696 0.4335 0.2627 0.0
C402 C 0.88561 0.43643 0.1655 0.0
C403 C 0.8805 0.38595 0.1579 0.0
C404 C 0.84268 0.43788 0.17851 0.0
C405 C 0.79412 0.38857 0.18457 0.0
C406 C 0.78795 0.33819 0.17582 0.0
C407 C 0.83079 0.33693 0.16257 0.0
C408 C 0.65907 0.3406 0.21893 0.0
C409 C 0.67665 0.36878 0.24255 0.0
C410 C 0.69662 0.35064 0.19914 0.0
C411 C 0.75289 0.3883 0.20259 0.0
C412 C 0.77001 0.42002 0.22519 0.0
C413 C 0.73213 0.4105 0.24497 0.0
H414 H 1.11311 0.63625 0.10367 0.0
H415 H 0.20269 0.54712 0.09917 0.0
H416 H 1.06521 0.59428 0.06358 0.0
H417 H 0.1561 0.50622 0.05853 0.0
H418 H 1.04701 0.41902 0.99168 0.0
H419 H 1.068 0.44391 0.03733 0.0
H420 H 1.09565 0.60754 0.01925 0.0
H421 H 1.07355 0.5821 0.97424 0.0
C422 C 1.12259 0.60772 0.09399 0.0
C423 C 0.16162 0.59493 0.10427 0.0
C424 C 1.09507 0.58357 0.07113 0.0
C425 C 1.10688 0.54696 0.0579 0.0
C426 C 1.14533 0.53346 0.06852 0.0
C427 C 0.17243 0.55724 0.09158 0.0
C428 C 1.05579 0.45955 0.99783 0.0
C429 C 1.05905 0.49885 0.9797 0.0
C430 C 1.06837 0.47402 0.02377 0.0
C431 C 1.08404 0.52784 0.03179 0.0
C432 C 1.08323 0.56561 0.01381 0.0
C433 C 1.07084 0.55122 0.98802 0.0
H434 H 0.5873 1.09137 0.4321 0.0
H435 H 0.76561 0.18744 0.42943 0.0
H436 H 0.58153 0.14834 0.3974 0.0
H437 H 0.75994 0.24487 0.39452 0.0
H438 H 0.70659 0.27902 0.31131 0.0
H439 H 0.72605 0.23456 0.34771 0.0
H440 H 0.60412 0.24762 0.39372 0.0
H441 H 0.58484 0.29231 0.35741 0.0
C442 C 0.62523 0.12447 0.42387 0.0
C443 C 0.67681 0.1354 0.43341 0.0
C444 C 0.62198 0.15738 0.40424 0.0
C445 C 0.67031 0.20159 0.39365 0.0
C446 C 0.72211 0.21109 0.40243 0.0
C447 C 0.72533 0.17815 0.42223 0.0
C448 C 0.68535 0.27414 0.32948 0.0
C449 C 0.644 0.28888 0.33155 0.0
C450 C 0.69629 0.24842 0.35024 0.0
C451 C 0.66583 0.23684 0.37328 0.0
C452 C 0.62737 0.25513 0.37594 0.0
C453 C 0.61659 0.28094 0.35527 0.0
H454 H 0.7443 0.69148 0.76725 0.0
H455 H 0.64684 0.51367 0.76508 0.0
H456 H 0.7863 0.69235 0.7258 0.0
H457 H 0.68929 0.51422 0.72372 0.0
H458 H 0.88299 0.67484 0.66045 0.0
H459 H 0.84897 0.6649 0.705 0.0
H460 H 0.68495 0.54458 0.67968 0.0
H461 H 0.71912 0.55363 0.6357 0.0
C462 C 0.73228 0.65259 0.75793 0.0
C463 C 0.69264 0.60252 0.76924 0.0
C464 C 0.75661 0.65302 0.73436 0.0
C465 C 0.74146 0.60332 0.72165 0.0
C466 C 0.70156 0.55317 0.73302 0.0
C467 C 0.67713 0.55283 0.75658 0.0
C468 C 0.84003 0.64553 0.66467 0.0
C469 C 0.80345 0.61552 0.64475 0.0
C470 C 0.82046 0.64016 0.69 0.0
C471 C 0.7642 0.60435 0.69573 0.0
C472 C 0.72853 0.57219 0.67595 0.0
C473 C 0.74797 0.57772 0.65074 0.0
H474 H 0.55921 1.06407 0.58464 0.0
H475 H 0.7358 0.15242 0.57232 0.0
H476 H 0.57352 1.06494 0.63121 0.0
H477 H 0.75039 0.15338 0.61921 0.0
H478 H 0.74686 0.20158 0.70528 0.0
H479 H 0.73687 0.19701 0.65822 0.0
H480 H 0.60733 1.0268 0.66498 0.0
H481 H 0.61652 1.03171 0.71194 0.0
C482 C 0.60117 1.08334 0.59191 0.0
C483 C 0.64633 0.10828 0.57481 0.0
C484 C 0.60941 1.08362 0.61864 0.0
C485 C 0.66312 0.10932 0.62906 0.0
C486 C 0.70847 0.13369 0.61189 0.0
C487 C 0.70015 0.13283 0.58503 0.0
C488 C 0.71611 0.16324 0.69671 0.0
C489 C 0.68238 0.11707 0.71247 0.0
C490 C 0.71081 0.16044 0.6697 0.0
C491 C 0.67125 0.11154 0.65773 0.0
C492 C 0.63789 1.06528 0.6735 0.0
C493 C 0.64349 1.06795 0.70045 0.0
H494 H 0.77861 0.73187 0.91795 0.0
H495 H 0.67909 0.55563 0.90855 0.0
H496 H 0.76476 0.7201 0.96476 0.0
H497 H 0.6653 0.54367 0.95546 0.0
H498 H 0.71551 0.54477 0.04172 0.0
H499 H 0.72251 0.55443 0.99463 0.0
H500 H 0.69178 0.69142 0.99839 0.0
H501 H 0.68541 0.68213 0.04551 0.0
C502 C 0.75356 0.69061 0.92591 0.0
C503 C 0.7302 0.64469 0.90958 0.0
C504 C 0.74535 0.68386 0.95273 0.0
C505 C 0.71408 0.63091 0.96394 0.0
C506 C 0.69012 0.58497 0.94752 0.0
C507 C 0.69777 0.59182 0.92064 0.0
C508 C 0.71038 0.57704 0.0325 0.0
C509 C 0.70011 0.6128 0.04743 0.0
C510 C 0.71386 0.58224 0.00547 0.0
C511 C 0.70777 0.62375 0.99267 0.0
C512 C 0.69714 0.65929 0.00761 0.0
C513 C 0.69306 0.65369 0.03461 0.0
H514 H 1.14099 0.61597 0.24148 0.0
H515 H 0.22158 0.51981 0.25482 0.0
H516 H 1.13792 0.62782 0.28819 0.0
H517 H 0.21865 0.53161 0.30142 0.0
H518 H 0.25318 0.61022 0.38148 0.0
H519 H 0.25877 0.6039 0.33467 0.0
H520 H 1.09024 0.56994 0.32728 0.0
H521 H 1.08493 0.57705 0.37418 0.0
C522 C 0.15833 0.59763 0.25439 0.0
C523 C 0.18148 0.56685 0.24449 0.0
C524 C 0.15625 0.60411 0.28116 0.0
C525 C 0.17792 0.58056 0.29861 0.0
C526 C 0.20201 0.55072 0.28857 0.0
C527 C 0.20351 0.54374 0.26187 0.0
C528 C 0.21745 0.60185 0.36986 0.0
C529 C 0.16861 0.59417 0.38161 0.0
C530 C 0.2205 0.59777 0.34303 0.0
C531 C 0.17495 0.58634 0.32716 0.0
C532 C 1.12626 0.57925 0.33887 0.0
C533 C 1.12303 0.58279 0.36577 0.0
loop_
_geom_bond_atom_site_label_1
_geom_bond_atom_site_label_2
_geom_bond_distance
_geom_bond_site_symmetry_2
_ccdc_geom_bond_type
Tb0 C2 2.809 . S
Tb0 O20 2.484 . S
Tb0 O21 2.440 . S
Tb0 O22 2.658 . S
Tb0 O23 2.409 . S
Tb0 O24 2.378 . S
Tb0 O28 2.325 . S
Tb0 O31 2.341 1_455 S
Tb1 C11 2.809 . S
Tb1 O22 2.325 1_655 S
Tb1 O25 2.341 1_655 S
Tb1 O26 2.484 . S
Tb1 O27 2.440 . S
Tb1 O28 2.658 1_655 S
Tb1 O29 2.409 . S
Tb1 O30 2.378 . S
C2 Tb0 2.809 . S
C2 C3 1.514 . S
C2 O20 1.248 . S
C2 O21 1.266 . S
C3 C2 1.514 . S
C3 C4 1.359 . S
C3 C8 1.348 . S
C4 C3 1.359 . S
C4 C5 1.380 . S
C4 H32 0.929 . S
C5 C4 1.380 . S
C5 C6 1.347 . S
C5 H33 0.931 . S
C6 C5 1.347 . S
C6 C7 1.369 . S
C7 C6 1.369 . S
C7 C8 1.408 . S
C7 H34 0.930 . S
C8 C3 1.348 . S
C8 C7 1.408 . S
C8 H35 0.930 . S
C9 O22 1.281 . S
C9 O23 1.254 . S
C10 O24 1.236 . S
C10 O25 1.266 . S
C11 Tb1 2.809 . S
C11 C12 1.514 . S
C11 O26 1.248 . S
C11 O27 1.266 . S
C12 C11 1.514 . S
C12 C13 1.359 . S
C12 C17 1.348 . S
C13 C12 1.359 . S
C13 C14 1.380 . S
C13 H36 0.929 . S
C14 C13 1.380 . S
C14 C15 1.347 . S
C14 H37 0.931 . S
C15 C14 1.347 . S
C15 C16 1.369 . S
C16 C15 1.369 . S
C16 C17 1.408 . S
C16 H38 0.930 . S
C17 C12 1.348 . S
C17 C16 1.408 . S
C17 H39 0.930 . S
C18 O28 1.281 . S
C18 O29 1.254 1_455 S
C19 O30 1.236 . S
C19 O31 1.266 . S
O20 Tb0 2.484 . S
O20 C2 1.248 . S
O21 Tb0 2.440 . S
O21 C2 1.266 . S
O22 Tb0 2.658 . S
O22 Tb1 2.325 1_455 S
O22 C9 1.281 . S
O23 Tb0 2.409 . S
O23 C9 1.254 . S
O24 Tb0 2.378 . S
O24 C10 1.236 . S
O25 Tb1 2.341 1_455 S
O25 C10 1.266 . S
O26 Tb1 2.484 . S
O26 C11 1.248 . S
O27 Tb1 2.440 . S
O27 C11 1.266 . S
O28 Tb0 2.325 . S
O28 Tb1 2.658 1_455 S
O28 C18 1.281 . S
O29 Tb1 2.409 . S
O29 C18 1.254 1_655 S
O30 Tb1 2.378 . S
O30 C19 1.236 . S
O31 Tb0 2.341 1_655 S
O31 C19 1.266 . S
H32 C4 0.929 . S
H33 C5 0.931 . S
H34 C7 0.930 . S
H35 C8 0.930 . S
H36 C13 0.929 . S
H37 C14 0.931 . S
H38 C16 0.930 . S
H39 C17 0.930 . S
Tb40 C42 2.809 . S
Tb40 O60 2.484 . S
Tb40 O61 2.440 . S
Tb40 O62 2.658 1_565 S
Tb40 O63 2.405 1_565 S
Tb40 O64 2.378 . S
Tb40 O68 2.325 1_565 S
Tb40 O71 2.341 1_565 S
Tb41 C51 2.809 . S
Tb41 O62 2.325 . S
Tb41 O65 2.341 1_545 S
Tb41 O66 2.484 . S
Tb41 O67 2.440 . S
Tb41 O68 2.658 . S
Tb41 O69 2.409 . S
Tb41 O70 2.378 . S
C42 Tb40 2.809 . S
C42 C43 1.514 . S
C42 O60 1.248 . S
C42 O61 1.266 . S
C43 C42 1.514 . S
C43 C44 1.359 . S
C43 C48 1.348 . S
C44 C43 1.359 . S
C44 C45 1.380 . S
C44 H72 0.929 . S
C45 C44 1.380 . S
C45 C46 1.347 . S
C45 H73 0.931 . S
C46 C45 1.347 . S
C46 C47 1.369 . S
C47 C46 1.369 . S
C47 C48 1.408 . S
C47 H74 0.930 . S
C48 C43 1.348 . S
C48 C47 1.408 . S
C48 H75 0.930 . S
C49 O62 1.281 . S
C49 O63 1.273 . S
C50 O64 1.236 . S
C50 O65 1.266 . S
C51 Tb41 2.809 . S
C51 C52 1.514 . S
C51 O66 1.248 . S
C51 O67 1.266 . S
C52 C51 1.514 . S
C52 C53 1.359 . S
C52 C57 1.348 . S
C53 C52 1.359 . S
C53 C54 1.380 . S
C53 H76 0.929 . S
C54 C53 1.380 . S
C54 C55 1.347 . S
C54 H77 0.931 . S
C55 C54 1.347 . S
C55 C56 1.369 . S
C56 C55 1.369 . S
C56 C57 1.408 . S
C56 H78 0.930 . S
C57 C52 1.348 . S
C57 C56 1.408 . S
C57 H79 0.930 . S
C58 O68 1.281 . S
C58 O69 1.254 . S
C59 O70 1.236 . S
C59 O71 1.266 . S
O60 Tb40 2.484 . S
O60 C42 1.248 . S
O61 Tb40 2.440 . S
O61 C42 1.266 . S
O62 Tb40 2.658 1_545 S
O62 Tb41 2.325 . S
O62 C49 1.281 . S
O63 Tb40 2.405 1_545 S
O63 C49 1.273 . S
O64 Tb40 2.378 . S
O64 C50 1.236 . S
O65 Tb41 2.341 1_565 S
O65 C50 1.266 . S
O66 Tb41 2.484 . S
O66 C51 1.248 . S
O67 Tb41 2.440 . S
O67 C51 1.266 . S
O68 Tb40 2.325 1_545 S
O68 Tb41 2.658 . S
O68 C58 1.281 . S
O69 Tb41 2.409 . S
O69 C58 1.254 . S
O70 Tb41 2.378 . S
O70 C59 1.236 . S
O71 Tb40 2.341 1_545 S
O71 C59 1.266 . S
H72 C44 0.929 . S
H73 C45 0.931 . S
H74 C47 0.930 . S
H75 C48 0.930 . S
H76 C53 0.929 . S
H77 C54 0.931 . S
H78 C56 0.930 . S
H79 C57 0.930 . S
Tb80 C82 2.809 . S
Tb80 O100 2.484 . S
Tb80 O101 2.440 . S
Tb80 O102 2.658 . S
Tb80 O103 2.409 . S
Tb80 O104 2.378 . S
Tb80 O108 2.325 . S
Tb80 O111 2.341 . S
Tb81 C91 2.809 . S
Tb81 O102 2.325 . S
Tb81 O105 2.341 . S
Tb81 O106 2.484 . S
Tb81 O107 2.440 . S
Tb81 O108 2.658 . S
Tb81 O109 2.409 . S
Tb81 O110 2.378 . S
C82 Tb80 2.809 . S
C82 C83 1.514 . S
C82 O100 1.248 . S
C82 O101 1.266 . S
C83 C82 1.514 . S
C83 C84 1.359 . S
C83 C88 1.348 . S
C84 C83 1.359 . S
C84 C85 1.380 . S
C84 H112 0.929 . S
C85 C84 1.380 . S
C85 C86 1.347 . S
C85 H113 0.931 . S
C86 C85 1.347 . S
C86 C87 1.369 . S
C87 C86 1.369 . S
C87 C88 1.408 . S
C87 H114 0.930 . S
C88 C83 1.348 . S
C88 C87 1.408 . S
C88 H115 0.930 . S
C89 O102 1.281 . S
C89 O103 1.254 . S
C90 O104 1.236 . S
C90 O105 1.266 . S
C91 Tb81 2.809 . S
C91 C92 1.514 . S
C91 O106 1.248 . S
C91 O107 1.266 . S
C92 C91 1.514 . S
C92 C93 1.359 . S
C92 C97 1.348 . S
C93 C92 1.359 . S
C93 C94 1.380 . S
C93 H116 0.929 . S
C94 C93 1.380 . S
C94 C95 1.347 . S
C94 H117 0.931 . S
C95 C94 1.347 . S
C95 C96 1.369 . S
C96 C95 1.369 . S
C96 C97 1.408 . S
C96 H118 0.930 . S
C97 C92 1.348 . S
C97 C96 1.408 . S
C97 H119 0.930 . S
C98 O108 1.281 . S
C98 O109 1.254 . S
C99 O110 1.236 . S
C99 O111 1.266 . S
O100 Tb80 2.484 . S
O100 C82 1.248 . S
O101 Tb80 2.440 . S
O101 C82 1.266 . S
O102 Tb80 2.658 . S
O102 Tb81 2.325 . S
O102 C89 1.281 . S
O103 Tb80 2.409 . S
O103 C89 1.254 . S
O104 Tb80 2.378 . S
O104 C90 1.236 . S
O105 Tb81 2.341 . S
O105 C90 1.266 . S
O106 Tb81 2.484 . S
O106 C91 1.248 . S
O107 Tb81 2.440 . S
O107 C91 1.266 . S
O108 Tb80 2.325 . S
O108 Tb81 2.658 . S
O108 C98 1.281 . S
O109 Tb81 2.409 . S
O109 C98 1.254 . S
O110 Tb81 2.378 . S
O110 C99 1.236 . S
O111 Tb80 2.341 . S
O111 C99 1.266 . S
H112 C84 0.929 . S
H113 C85 0.931 . S
H114 C87 0.930 . S
H115 C88 0.930 . S
H116 C93 0.929 . S
H117 C94 0.931 . S
H118 C96 0.930 . S
H119 C97 0.930 . S
H120 C123 0.931 1_565 S
H121 C126 0.928 . S
H122 C128 0.930 . S
C123 H120 0.931 1_545 S
C123 C124 1.413 . S
C123 C125 1.360 . S
C124 C123 1.413 . S
C124 C128 1.429 . S
C125 C123 1.360 . S
C125 C126 1.372 . S
C126 H121 0.928 . S
C126 C125 1.372 . S
C126 C127 1.404 . S
C127 C126 1.404 . S
C127 C128 1.391 . S
C128 H122 0.930 . S
C128 C124 1.429 . S
C128 C127 1.391 . S
H129 C132 0.931 . S
H130 C135 0.928 . S
H131 C137 0.930 . S
C132 H129 0.931 . S
C132 C133 1.413 . S
C132 C134 1.360 . S
C133 C132 1.413 . S
C133 C137 1.429 . S
C134 C132 1.360 . S
C134 C135 1.372 . S
C135 H130 0.928 . S
C135 C134 1.372 . S
C135 C136 1.404 . S
C136 C135 1.404 . S
C136 C137 1.391 . S
C137 H131 0.930 . S
C137 C133 1.429 . S
C137 C136 1.391 . S
H138 C141 0.931 . S
H139 C144 0.928 . S
H140 C146 0.930 . S
C141 H138 0.931 . S
C141 C142 1.413 . S
C141 C143 1.360 1_655 S
C142 C141 1.413 . S
C142 C146 1.429 1_655 S
C143 C141 1.360 1_455 S
C143 C144 1.372 . S
C144 H139 0.928 . S
C144 C143 1.372 . S
C144 C145 1.404 . S
C145 C144 1.404 . S
C145 C146 1.391 . S
C146 H140 0.930 . S
C146 C142 1.429 1_455 S
C146 C145 1.391 . S
H147 C150 0.931 1_655 S
H148 C153 0.928 . S
H149 C155 0.930 . S
C150 H147 0.931 1_455 S
C150 C151 1.413 . S
C150 C152 1.360 . S
C151 C150 1.413 . S
C151 C155 1.429 . S
C152 C150 1.360 . S
C152 C153 1.372 . S
C153 H148 0.928 . S
C153 C152 1.372 . S
C153 C154 1.404 . S
C154 C153 1.404 . S
C154 C155 1.391 . S
C155 H149 0.930 . S
C155 C151 1.429 . S
C155 C154 1.391 . S
H156 C159 0.931 . S
H157 C162 0.928 . S
H158 C164 0.930 . S
C159 H156 0.931 . S
C159 C160 1.413 . S
C159 C161 1.360 . S
C160 C159 1.413 . S
C160 C164 1.429 . S
C161 C159 1.360 . S
C161 C162 1.372 1_545 S
C162 H157 0.928 . S
C162 C161 1.372 1_565 S
C162 C163 1.404 . S
C163 C162 1.404 . S
C163 C164 1.391 1_565 S
C164 H158 0.930 . S
C164 C160 1.429 . S
C164 C163 1.391 1_545 S
H165 C168 0.931 . S
H166 C171 0.928 . S
H167 C173 0.930 . S
C168 H165 0.931 . S
C168 C169 1.413 . S
C168 C170 1.360 . S
C169 C168 1.413 . S
C169 C173 1.429 . S
C170 C168 1.360 . S
C170 C171 1.372 . S
C171 H166 0.928 . S
C171 C170 1.372 . S
C171 C172 1.404 . S
C172 C171 1.404 . S
C172 C173 1.391 . S
C173 H167 0.930 . S
C173 C169 1.429 . S
C173 C172 1.391 . S
H174 C182 0.950 . S
H175 C187 0.950 . S
H176 C184 0.950 . S
H177 C186 0.950 . S
H178 C188 0.950 . S
H179 C190 0.950 . S
H180 C192 0.950 . S
H181 C193 0.950 . S
C182 H174 0.950 . S
C182 C183 1.386 . S
C182 C184 1.391 . S
C183 C182 1.386 . S
C183 C187 1.393 . S
C184 H176 0.950 . S
C184 C182 1.391 . S
C184 C185 1.400 . S
C185 C184 1.400 . S
C185 C186 1.398 . S
C185 C191 1.491 . S
C186 H177 0.950 . S
C186 C185 1.398 . S
C186 C187 1.391 . S
C187 H175 0.950 . S
C187 C183 1.393 . S
C187 C186 1.391 . S
C188 H178 0.950 . S
C188 C189 1.386 . S
C188 C190 1.391 . S
C189 C188 1.386 . S
C189 C193 1.393 . S
C190 H179 0.950 . S
C190 C188 1.391 . S
C190 C191 1.400 . S
C191 C185 1.491 . S
C191 C190 1.400 . S
C191 C192 1.398 . S
C192 H180 0.950 . S
C192 C191 1.398 . S
C192 C193 1.391 . S
C193 H181 0.950 . S
C193 C189 1.393 . S
C193 C192 1.391 . S
H194 C202 0.950 . S
H195 C207 0.950 . S
H196 C204 0.950 . S
H197 C206 0.950 . S
H198 C208 0.950 . S
H199 C210 0.950 . S
H200 C212 0.950 . S
H201 C213 0.950 . S
C202 H194 0.950 . S
C202 C203 1.386 . S
C202 C204 1.391 . S
C203 C202 1.386 . S
C203 C207 1.393 . S
C204 H196 0.950 . S
C204 C202 1.391 . S
C204 C205 1.400 . S
C205 C204 1.400 . S
C205 C206 1.398 . S
C205 C211 1.491 . S
C206 H197 0.950 . S
C206 C205 1.398 . S
C206 C207 1.391 . S
C207 H195 0.950 . S
C207 C203 1.393 . S
C207 C206 1.391 . S
C208 H198 0.950 . S
C208 C209 1.386 . S
C208 C210 1.391 . S
C209 C208 1.386 . S
C209 C213 1.393 . S
C210 H199 0.950 . S
C210 C208 1.391 . S
C210 C211 1.400 . S
C211 C205 1.491 . S
C211 C210 1.400 . S
C211 C212 1.398 . S
C212 H200 0.950 . S
C212 C211 1.398 . S
C212 C213 1.391 . S
C213 H201 0.950 . S
C213 C209 1.393 . S
C213 C212 1.391 . S
H214 C222 0.950 . S
H215 C227 0.950 . S
H216 C224 0.950 . S
H217 C226 0.950 . S
H218 C228 0.950 . S
H219 C230 0.950 . S
H220 C232 0.950 . S
H221 C233 0.950 . S
C222 H214 0.950 . S
C222 C223 1.386 . S
C222 C224 1.391 . S
C223 C222 1.386 . S
C223 C227 1.393 . S
C224 H216 0.950 . S
C224 C222 1.391 . S
C224 C225 1.400 . S
C225 C224 1.400 . S
C225 C226 1.398 . S
C225 C231 1.491 . S
C226 H217 0.950 . S
C226 C225 1.398 . S
C226 C227 1.391 . S
C227 H215 0.950 . S
C227 C223 1.393 . S
C227 C226 1.391 . S
C228 H218 0.950 . S
C228 C229 1.386 . S
C228 C230 1.391 . S
C229 C228 1.386 . S
C229 C233 1.393 . S
C230 H219 0.950 . S
C230 C228 1.391 . S
C230 C231 1.400 . S
C231 C225 1.491 . S
C231 C230 1.400 . S
C231 C232 1.398 . S
C232 H220 0.950 . S
C232 C231 1.398 . S
C232 C233 1.391 . S
C233 H221 0.950 . S
C233 C229 1.393 . S
C233 C232 1.391 . S
H234 C242 0.950 . S
H235 C247 0.950 . S
H236 C244 0.950 . S
H237 C246 0.950 . S
H238 C248 0.950 . S
H239 C250 0.950 . S
H240 C252 0.950 . S
H241 C253 0.950 . S
C242 H234 0.950 . S
C242 C243 1.386 . S
C242 C244 1.391 . S
C243 C242 1.386 . S
C243 C247 1.393 . S
C244 H236 0.950 . S
C244 C242 1.391 . S
C244 C245 1.400 . S
C245 C244 1.400 . S
C245 C246 1.398 . S
C245 C251 1.491 . S
C246 H237 0.950 . S
C246 C245 1.398 . S
C246 C247 1.391 . S
C247 H235 0.950 . S
C247 C243 1.393 . S
C247 C246 1.391 . S
C248 H238 0.950 . S
C248 C249 1.386 . S
C248 C250 1.391 . S
C249 C248 1.386 . S
C249 C253 1.393 . S
C250 H239 0.950 . S
C250 C248 1.391 . S
C250 C251 1.400 . S
C251 C245 1.491 . S
C251 C250 1.400 . S
C251 C252 1.398 . S
C252 H240 0.950 . S
C252 C251 1.398 . S
C252 C253 1.391 . S
C253 H241 0.950 . S
C253 C249 1.393 . S
C253 C252 1.391 . S
H254 C262 0.950 . S
H255 C267 0.950 . S
H256 C264 0.950 . S
H257 C266 0.950 . S
H258 C268 0.950 . S
H259 C270 0.950 . S
H260 C272 0.950 . S
H261 C273 0.950 . S
C262 H254 0.950 . S
C262 C263 1.386 . S
C262 C264 1.391 . S
C263 C262 1.386 . S
C263 C267 1.393 . S
C264 H256 0.950 . S
C264 C262 1.391 . S
C264 C265 1.400 . S
C265 C264 1.400 . S
C265 C266 1.398 . S
C265 C271 1.491 . S
C266 H257 0.950 . S
C266 C265 1.398 . S
C266 C267 1.391 . S
C267 H255 0.950 . S
C267 C263 1.393 . S
C267 C266 1.391 . S
C268 H258 0.950 . S
C268 C269 1.386 . S
C268 C270 1.391 . S
C269 C268 1.386 . S
C269 C273 1.393 . S
C270 H259 0.950 . S
C270 C268 1.391 . S
C270 C271 1.400 . S
C271 C265 1.491 . S
C271 C270 1.400 . S
C271 C272 1.398 . S
C272 H260 0.950 . S
C272 C271 1.398 . S
C272 C273 1.391 . S
C273 H261 0.950 . S
C273 C269 1.393 . S
C273 C272 1.391 . S
H274 C282 0.950 . S
H275 C287 0.950 . S
H276 C284 0.950 . S
H277 C286 0.950 . S
H278 C288 0.950 . S
H279 C290 0.950 . S
H280 C292 0.950 . S
H281 C293 0.950 . S
C282 H274 0.950 . S
C282 C283 1.386 . S
C282 C284 1.391 . S
C283 C282 1.386 . S
C283 C287 1.393 . S
C284 H276 0.950 . S
C284 C282 1.391 . S
C284 C285 1.400 . S
C285 C284 1.400 . S
C285 C286 1.398 . S
C285 C291 1.491 . S
C286 H277 0.950 . S
C286 C285 1.398 . S
C286 C287 1.391 . S
C287 H275 0.950 . S
C287 C283 1.393 . S
C287 C286 1.391 . S
C288 H278 0.950 . S
C288 C289 1.386 . S
C288 C290 1.391 . S
C289 C288 1.386 . S
C289 C293 1.393 . S
C290 H279 0.950 . S
C290 C288 1.391 . S
C290 C291 1.400 . S
C291 C285 1.491 . S
C291 C290 1.400 . S
C291 C292 1.398 . S
C292 H280 0.950 . S
C292 C291 1.398 . S
C292 C293 1.391 . S
C293 H281 0.950 . S
C293 C289 1.393 . S
C293 C292 1.391 . S
H294 C302 0.950 . S
H295 C307 0.950 . S
H296 C304 0.950 . S
H297 C306 0.950 . S
H298 C308 0.950 . S
H299 C310 0.950 . S
H300 C312 0.950 . S
H301 C313 0.950 . S
C302 H294 0.950 . S
C302 C303 1.386 . S
C302 C304 1.391 . S
C303 C302 1.386 . S
C303 C307 1.393 . S
C304 H296 0.950 . S
C304 C302 1.391 . S
C304 C305 1.400 . S
C305 C304 1.400 . S
C305 C306 1.398 . S
C305 C311 1.491 . S
C306 H297 0.950 . S
C306 C305 1.398 . S
C306 C307 1.391 . S
C307 H295 0.950 . S
C307 C303 1.393 . S
C307 C306 1.391 . S
C308 H298 0.950 . S
C308 C309 1.386 . S
C308 C310 1.391 . S
C309 C308 1.386 . S
C309 C313 1.393 . S
C310 H299 0.950 . S
C310 C308 1.391 . S
C310 C311 1.400 . S
C311 C305 1.491 . S
C311 C310 1.400 . S
C311 C312 1.398 . S
C312 H300 0.950 . S
C312 C311 1.398 . S
C312 C313 1.391 . S
C313 H301 0.950 . S
C313 C309 1.393 . S
C313 C312 1.391 . S
H314 C322 0.950 . S
H315 C327 0.950 . S
H316 C324 0.950 . S
H317 C326 0.950 . S
H318 C328 0.950 . S
H319 C330 0.950 . S
H320 C332 0.950 . S
H321 C333 0.950 . S
C322 H314 0.950 . S
C322 C323 1.386 . S
C322 C324 1.391 . S
C323 C322 1.386 . S
C323 C327 1.393 . S
C324 H316 0.950 . S
C324 C322 1.391 . S
C324 C325 1.400 . S
C325 C324 1.400 . S
C325 C326 1.398 . S
C325 C331 1.491 . S
C326 H317 0.950 . S
C326 C325 1.398 . S
C326 C327 1.391 . S
C327 H315 0.950 . S
C327 C323 1.393 . S
C327 C326 1.391 . S
C328 H318 0.950 . S
C328 C329 1.386 . S
C328 C330 1.391 . S
C329 C328 1.386 . S
C329 C333 1.393 . S
C330 H319 0.950 . S
C330 C328 1.391 . S
C330 C331 1.400 . S
C331 C325 1.491 . S
C331 C330 1.400 . S
C331 C332 1.398 . S
C332 H320 0.950 . S
C332 C331 1.398 . S
C332 C333 1.391 . S
C333 H321 0.950 . S
C333 C329 1.393 . S
C333 C332 1.391 . S
H334 C342 0.950 . S
H335 C347 0.950 . S
H336 C344 0.950 . S
H337 C346 0.950 . S
H338 C348 0.950 1_545 S
H339 C350 0.950 . S
H340 C352 0.950 . S
H341 C353 0.950 . S
C342 H334 0.950 . S
C342 C343 1.386 . S
C342 C344 1.391 . S
C343 C342 1.386 . S
C343 C347 1.393 . S
C344 H336 0.950 . S
C344 C342 1.391 . S
C344 C345 1.400 . S
C345 C344 1.400 . S
C345 C346 1.398 . S
C345 C351 1.491 . S
C346 H337 0.950 . S
C346 C345 1.398 . S
C346 C347 1.391 . S
C347 H335 0.950 . S
C347 C343 1.393 . S
C347 C346 1.391 . S
C348 H338 0.950 1_565 S
C348 C349 1.394 . S
C348 C350 1.391 . S
C349 C348 1.394 . S
C349 C353 1.394 . S
C350 H339 0.950 . S
C350 C348 1.391 . S
C350 C351 1.400 . S
C351 C345 1.491 . S
C351 C350 1.400 . S
C351 C352 1.398 . S
C352 H340 0.950 . S
C352 C351 1.398 . S
C352 C353 1.391 . S
C353 H341 0.950 . S
C353 C349 1.394 . S
C353 C352 1.391 . S
H354 C362 0.950 . S
H355 C367 0.950 . S
H356 C364 0.950 . S
H357 C366 0.950 . S
H358 C368 0.950 . S
H359 C370 0.950 . S
H360 C372 0.950 . S
H361 C373 0.950 . S
C362 H354 0.950 . S
C362 C363 1.386 . S
C362 C364 1.391 . S
C363 C362 1.386 . S
C363 C367 1.393 . S
C364 H356 0.950 . S
C364 C362 1.391 . S
C364 C365 1.400 . S
C365 C364 1.400 . S
C365 C366 1.398 . S
C365 C371 1.491 . S
C366 H357 0.950 . S
C366 C365 1.398 . S
C366 C367 1.391 . S
C367 H355 0.950 . S
C367 C363 1.393 . S
C367 C366 1.391 . S
C368 H358 0.950 . S
C368 C369 1.386 . S
C368 C370 1.391 . S
C369 C368 1.386 . S
C369 C373 1.393 . S
C370 H359 0.950 . S
C370 C368 1.391 . S
C370 C371 1.400 . S
C371 C365 1.491 . S
C371 C370 1.400 . S
C371 C372 1.398 . S
C372 H360 0.950 . S
C372 C371 1.398 . S
C372 C373 1.391 . S
C373 H361 0.950 . S
C373 C369 1.393 . S
C373 C372 1.391 . S
H374 C382 0.950 . S
H375 C387 0.950 . S
H376 C384 0.950 . S
H377 C386 0.950 . S
H378 C388 0.950 . S
H379 C390 0.950 . S
H380 C392 0.950 . S
H381 C393 0.950 . S
C382 H374 0.950 . S
C382 C383 1.386 . S
C382 C384 1.391 . S
C383 C382 1.386 . S
C383 C387 1.393 . S
C384 H376 0.950 . S
C384 C382 1.391 . S
C384 C385 1.400 . S
C385 C384 1.400 . S
C385 C386 1.398 . S
C385 C391 1.491 . S
C386 H377 0.950 . S
C386 C385 1.398 . S
C386 C387 1.391 . S
C387 H375 0.950 . S
C387 C383 1.393 . S
C387 C386 1.391 . S
C388 H378 0.950 . S
C388 C389 1.386 . S
C388 C390 1.391 . S
C389 C388 1.386 . S
C389 C393 1.393 . S
C390 H379 0.950 . S
C390 C388 1.391 . S
C390 C391 1.400 . S
C391 C385 1.491 . S
C391 C390 1.400 . S
C391 C392 1.398 . S
C392 H380 0.950 . S
C392 C391 1.398 . S
C392 C393 1.391 . S
C393 H381 0.950 . S
C393 C389 1.393 . S
C393 C392 1.391 . S
H394 C402 0.950 . S
H395 C407 0.950 . S
H396 C404 0.950 . S
H397 C406 0.950 . S
H398 C408 0.950 . S
H399 C410 0.950 . S
H400 C412 0.950 . S
H401 C413 0.950 . S
C402 H394 0.950 . S
C402 C403 1.386 . S
C402 C404 1.391 . S
C403 C402 1.386 . S
C403 C407 1.393 . S
C404 H396 0.950 . S
C404 C402 1.391 . S
C404 C405 1.400 . S
C405 C404 1.400 . S
C405 C406 1.398 . S
C405 C411 1.491 . S
C406 H397 0.950 . S
C406 C405 1.398 . S
C406 C407 1.391 . S
C407 H395 0.950 . S
C407 C403 1.393 . S
C407 C406 1.391 . S
C408 H398 0.950 . S
C408 C409 1.386 . S
C408 C410 1.391 . S
C409 C408 1.386 . S
C409 C413 1.393 . S
C410 H399 0.950 . S
C410 C408 1.391 . S
C410 C411 1.400 . S
C411 C405 1.491 . S
C411 C410 1.400 . S
C411 C412 1.398 . S
C412 H400 0.950 . S
C412 C411 1.398 . S
C412 C413 1.391 . S
C413 H401 0.950 . S
C413 C409 1.393 . S
C413 C412 1.391 . S
H414 C422 0.950 . S
H415 C427 0.950 . S
H416 C424 0.950 . S
H417 C426 0.950 . S
H418 C428 0.950 . S
H419 C430 0.950 . S
H420 C432 0.938 1_654 S
H421 C433 0.950 . S
C422 H414 0.950 . S
C422 C423 1.386 . S
C422 C424 1.391 . S
C423 C422 1.386 . S
C423 C427 1.393 . S
C424 H416 0.950 . S
C424 C422 1.391 . S
C424 C425 1.400 . S
C425 C424 1.400 . S
C425 C426 1.398 . S
C425 C431 1.491 . S
C426 H417 0.950 . S
C426 C425 1.398 . S
C426 C427 1.391 . S
C427 H415 0.950 . S
C427 C423 1.393 . S
C427 C426 1.391 . S
C428 H418 0.950 . S
C428 C429 1.386 . S
C428 C430 1.391 1_556 S
C429 C428 1.386 . S
C429 C433 1.393 1_455 S
C430 H419 0.950 . S
C430 C428 1.391 1_554 S
C430 C431 1.400 . S
C431 C425 1.491 . S
C431 C430 1.400 . S
C431 C432 1.405 1_554 S
C432 H420 0.938 1_456 S
C432 C431 1.405 1_556 S
C432 C433 1.396 1_455 S
C433 H421 0.950 . S
C433 C429 1.393 1_655 S
C433 C432 1.396 1_655 S
H434 C442 0.950 . S
H435 C447 0.950 . S
H436 C444 0.950 . S
H437 C446 0.950 . S
H438 C448 0.950 . S
H439 C450 0.950 . S
H440 C452 0.950 1_565 S
H441 C453 0.950 1_565 S
C442 H434 0.950 . S
C442 C443 1.386 1_565 S
C442 C444 1.391 . S
C443 C442 1.386 1_545 S
C443 C447 1.393 . S
C444 H436 0.950 . S
C444 C442 1.391 . S
C444 C445 1.400 1_565 S
C445 C444 1.400 1_545 S
C445 C446 1.398 . S
C445 C451 1.491 . S
C446 H437 0.950 . S
C446 C445 1.398 . S
C446 C447 1.391 . S
C447 H435 0.950 . S
C447 C443 1.393 . S
C447 C446 1.391 . S
C448 H438 0.950 . S
C448 C449 1.386 . S
C448 C450 1.391 . S
C449 C448 1.386 . S
C449 C453 1.393 . S
C450 H439 0.950 . S
C450 C448 1.391 . S
C450 C451 1.400 . S
C451 C445 1.491 . S
C451 C450 1.400 . S
C451 C452 1.398 . S
C452 H440 0.950 1_545 S
C452 C451 1.398 . S
C452 C453 1.391 . S
C453 H441 0.950 1_545 S
C453 C449 1.393 . S
C453 C452 1.391 . S
H454 C462 0.950 . S
H455 C467 0.950 . S
H456 C464 0.950 . S
H457 C466 0.950 . S
H458 C468 0.950 . S
H459 C470 0.950 . S
H460 C472 0.950 . S
H461 C473 0.950 . S
C462 H454 0.950 . S
C462 C463 1.386 . S
C462 C464 1.391 . S
C463 C462 1.386 . S
C463 C467 1.393 . S
C464 H456 0.950 . S
C464 C462 1.391 . S
C464 C465 1.400 . S
C465 C464 1.400 . S
C465 C466 1.398 . S
C465 C471 1.491 . S
C466 H457 0.950 . S
C466 C465 1.398 . S
C466 C467 1.391 . S
C467 H455 0.950 . S
C467 C463 1.393 . S
C467 C466 1.391 . S
C468 H458 0.950 . S
C468 C469 1.386 . S
C468 C470 1.391 . S
C469 C468 1.386 . S
C469 C473 1.393 . S
C470 H459 0.950 . S
C470 C468 1.391 . S
C470 C471 1.400 . S
C471 C465 1.491 . S
C471 C470 1.400 . S
C471 C472 1.398 . S
C472 H460 0.950 . S
C472 C471 1.398 . S
C472 C473 1.391 . S
C473 H461 0.950 . S
C473 C469 1.393 . S
C473 C472 1.391 . S
H474 C482 0.950 . S
H475 C487 0.950 . S
H476 C484 0.950 . S
H477 C486 0.950 . S
H478 C488 0.950 . S
H479 C490 0.950 . S
H480 C492 0.950 . S
H481 C493 0.950 . S
C482 H474 0.950 . S
C482 C483 1.386 1_565 S
C482 C484 1.391 . S
C483 C482 1.386 1_545 S
C483 C487 1.393 . S
C484 H476 0.950 . S
C484 C482 1.391 . S
C484 C485 1.400 1_565 S
C485 C484 1.400 1_545 S
C485 C486 1.398 . S
C485 C491 1.491 . S
C486 H477 0.950 . S
C486 C485 1.398 . S
C486 C487 1.391 . S
C487 H475 0.950 . S
C487 C483 1.393 . S
C487 C486 1.391 . S
C488 H478 0.950 . S
C488 C489 1.386 . S
C488 C490 1.391 . S
C489 C488 1.386 . S
C489 C493 1.393 1_545 S
C490 H479 0.950 . S
C490 C488 1.391 . S
C490 C491 1.400 . S
C491 C485 1.491 . S
C491 C490 1.400 . S
C491 C492 1.398 1_545 S
C492 H480 0.950 . S
C492 C491 1.398 1_565 S
C492 C493 1.391 . S
C493 H481 0.950 . S
C493 C489 1.393 1_565 S
C493 C492 1.391 . S
H494 C502 0.950 . S
H495 C507 0.950 . S
H496 C504 0.950 . S
H497 C506 0.950 . S
H498 C508 0.950 . S
H499 C510 0.950 1_556 S
H500 C512 0.950 1_556 S
H501 C513 0.950 . S
C502 H494 0.950 . S
C502 C503 1.386 . S
C502 C504 1.391 . S
C503 C502 1.386 . S
C503 C507 1.393 . S
C504 H496 0.950 . S
C504 C502 1.391 . S
C504 C505 1.400 . S
C505 C504 1.400 . S
C505 C506 1.398 . S
C505 C511 1.491 . S
C506 H497 0.950 . S
C506 C505 1.398 . S
C506 C507 1.391 . S
C507 H495 0.950 . S
C507 C503 1.393 . S
C507 C506 1.391 . S
C508 H498 0.950 . S
C508 C509 1.386 . S
C508 C510 1.391 . S
C509 C508 1.386 . S
C509 C513 1.393 . S
C510 H499 0.950 1_554 S
C510 C508 1.391 . S
C510 C511 1.400 1_554 S
C511 C505 1.491 . S
C511 C510 1.400 1_556 S
C511 C512 1.398 1_556 S
C512 H500 0.950 1_554 S
C512 C511 1.398 1_554 S
C512 C513 1.391 . S
C513 H501 0.950 . S
C513 C509 1.393 . S
C513 C512 1.391 . S
H514 C522 0.950 . S
H515 C527 0.950 . S
H516 C524 0.950 . S
H517 C526 0.950 . S
H518 C528 0.950 . S
H519 C530 0.950 . S
H520 C532 0.950 . S
H521 C533 0.950 . S
C522 H514 0.950 . S
C522 C523 1.386 1_655 S
C522 C524 1.391 . S
C523 C522 1.386 1_455 S
C523 C527 1.393 . S
C524 H516 0.950 . S
C524 C522 1.391 . S
C524 C525 1.400 1_655 S
C525 C524 1.400 1_455 S
C525 C526 1.398 . S
C525 C531 1.491 . S
C526 H517 0.950 . S
C526 C525 1.398 . S
C526 C527 1.391 . S
C527 H515 0.950 . S
C527 C523 1.393 . S
C527 C526 1.391 . S
C528 H518 0.950 . S
C528 C529 1.386 . S
C528 C530 1.391 . S
C529 C528 1.386 . S
C529 C533 1.393 1_455 S
C530 H519 0.950 . S
C530 C528 1.391 . S
C530 C531 1.400 . S
C531 C525 1.491 . S
C531 C530 1.400 . S
C531 C532 1.398 1_455 S
C532 H520 0.950 . S
C532 C531 1.398 1_655 S
C532 C533 1.391 . S
C533 H521 0.950 . S
C533 C529 1.393 1_655 S
C533 C532 1.391 . S
C183 C10 2.888 . S
C189 C169 2.907 . S
C203 C59 2.987 . S
C209 C151 2.963 1_655 S
C223 C90 2.874 . S
C229 C163 2.882 . S
C243 C19 2.973 . S
C249 C172 2.934 . S
C269 C154 2.876 . S
C263 C50 2.883 . S
C289 C160 2.955 . S
C283 C99 2.984 . S
C303 C46 0.575 . S
C309 C133 0.496 . S
C323 C95 0.605 . S
C329 C142 0.499 . S
C343 C6 0.547 . S
C349 C124 0.501 1_565 S
C369 C136 0.478 . S
C363 C55 0.562 . S
C389 C145 0.489 . S
C383 C86 0.570 . S
C403 C15 0.577 . S
C409 C127 0.476 . S
C429 C143 1.019 . S
C423 C9 0.993 . S
C443 C49 1.015 . S
C449 C125 1.016 . S
C463 C89 1.016 . S
C469 C134 1.016 . S
C489 C161 1.811 . S
C483 C58 1.737 . S
C509 C170 1.812 . S
C503 C98 1.737 . S
C523 C18 1.714 . S
C529 C152 1.811 . S
