# Generated by pormake.
# Topology eea, (3,6)-cn, num edge types: 1
# Building blocks:
#     Node 0, Type 0, BuildingBlock: VETTIZ_charged_linker_0, # of connection points: 3
#     Node 1, Type 0, BuildingBlock: VETTIZ_charged_linker_0, # of connection points: 3
#     Node 2, Type 0, BuildingBlock: VETTIZ_charged_linker_0, # of connection points: 3
#     Node 3, Type 0, BuildingBlock: VETTIZ_charged_linker_0, # of connection points: 3
#     Node 4, Type 0, BuildingBlock: VETTIZ_charged_linker_0, # of connection points: 3
#     Node 5, Type 0, BuildingBlock: VETTIZ_charged_linker_0, # of connection points: 3
#     Node 6, Type 0, BuildingBlock: VETTIZ_charged_linker_0, # of connection points: 3
#     Node 7, Type 0, BuildingBlock: VETTIZ_charged_linker_0, # of connection points: 3
#     Node 8, Type 0, BuildingBlock: VETTIZ_charged_linker_0, # of connection points: 3
#     Node 9, Type 0, BuildingBlock: VETTIZ_charged_linker_0, # of connection points: 3
#     Node 10, Type 0, BuildingBlock: VETTIZ_charged_linker_0, # of connection points: 3
#     Node 11, Type 0, BuildingBlock: VETTIZ_charged_linker_0, # of connection points: 3
#     Node 12, Type 0, BuildingBlock: VETTIZ_charged_linker_0, # of connection points: 3
#     Node 13, Type 0, BuildingBlock: VETTIZ_charged_linker_0, # of connection points: 3
#     Node 14, Type 0, BuildingBlock: VETTIZ_charged_linker_0, # of connection points: 3
#     Node 15, Type 0, BuildingBlock: VETTIZ_charged_linker_0, # of connection points: 3
#     Node 16, Type 0, BuildingBlock: VETTIZ_charged_linker_0, # of connection points: 3
#     Node 17, Type 0, BuildingBlock: VETTIZ_charged_linker_0, # of connection points: 3
#     Node 18, Type 1, BuildingBlock: CUWYAW_clean_sbu_0, # of connection points: 6
#     Node 19, Type 1, BuildingBlock: CUWYAW_clean_sbu_0, # of connection points: 6
#     Node 20, Type 1, BuildingBlock: CUWYAW_clean_sbu_0, # of connection points: 6
#     Node 21, Type 1, BuildingBlock: CUWYAW_clean_sbu_0, # of connection points: 6
#     Node 22, Type 1, BuildingBlock: CUWYAW_clean_sbu_0, # of connection points: 6
#     Node 23, Type 1, BuildingBlock: CUWYAW_clean_sbu_0, # of connection points: 6
#     Node 24, Type 1, BuildingBlock: CUWYAW_clean_sbu_0, # of connection points: 6
#     Node 25, Type 1, BuildingBlock: CUWYAW_clean_sbu_0, # of connection points: 6
#     Node 26, Type 1, BuildingBlock: CUWYAW_clean_sbu_0, # of connection points: 6
#     Edge 27, Type (0, 1), BuildingBlock: OJICUG_clean_linker_0, # of connection points: 2
#     Edge 28, Type (0, 1), BuildingBlock: OJICUG_clean_linker_0, # of connection points: 2
#     Edge 29, Type (0, 1), BuildingBlock: OJICUG_clean_linker_0, # of connection points: 2
#     Edge 30, Type (0, 1), BuildingBlock: OJICUG_clean_linker_0, # of connection points: 2
#     Edge 31, Type (0, 1), BuildingBlock: OJICUG_clean_linker_0, # of connection points: 2
#     Edge 32, Type (0, 1), BuildingBlock: OJICUG_clean_linker_0, # of connection points: 2
#     Edge 33, Type (0, 1), BuildingBlock: OJICUG_clean_linker_0, # of connection points: 2
#     Edge 34, Type (0, 1), BuildingBlock: OJICUG_clean_linker_0, # of connection points: 2
#     Edge 35, Type (0, 1), BuildingBlock: OJICUG_clean_linker_0, # of connection points: 2
#     Edge 36, Type (0, 1), BuildingBlock: OJICUG_clean_linker_0, # of connection points: 2
#     Edge 37, Type (0, 1), BuildingBlock: OJICUG_clean_linker_0, # of connection points: 2
#     Edge 38, Type (0, 1), BuildingBlock: OJICUG_clean_linker_0, # of connection points: 2
#     Edge 39, Type (0, 1), BuildingBlock: OJICUG_clean_linker_0, # of connection points: 2
#     Edge 40, Type (0, 1), BuildingBlock: OJICUG_clean_linker_0, # of connection points: 2
#     Edge 41, Type (0, 1), BuildingBlock: OJICUG_clean_linker_0, # of connection points: 2
#     Edge 42, Type (0, 1), BuildingBlock: OJICUG_clean_linker_0, # of connection points: 2
#     Edge 43, Type (0, 1), BuildingBlock: OJICUG_clean_linker_0, # of connection points: 2
#     Edge 44, Type (0, 1), BuildingBlock: OJICUG_clean_linker_0, # of connection points: 2
#     Edge 45, Type (0, 1), BuildingBlock: OJICUG_clean_linker_0, # of connection points: 2
#     Edge 46, Type (0, 1), BuildingBlock: OJICUG_clean_linker_0, # of connection points: 2
#     Edge 47, Type (0, 1), BuildingBlock: OJICUG_clean_linker_0, # of connection points: 2
#     Edge 48, Type (0, 1), BuildingBlock: OJICUG_clean_linker_0, # of connection points: 2
#     Edge 49, Type (0, 1), BuildingBlock: OJICUG_clean_linker_0, # of connection points: 2
#     Edge 50, Type (0, 1), BuildingBlock: OJICUG_clean_linker_0, # of connection points: 2
#     Edge 51, Type (0, 1), BuildingBlock: OJICUG_clean_linker_0, # of connection points: 2
#     Edge 52, Type (0, 1), BuildingBlock: OJICUG_clean_linker_0, # of connection points: 2
#     Edge 53, Type (0, 1), BuildingBlock: OJICUG_clean_linker_0, # of connection points: 2
#     Edge 54, Type (0, 1), BuildingBlock: OJICUG_clean_linker_0, # of connection points: 2
#     Edge 55, Type (0, 1), BuildingBlock: OJICUG_clean_linker_0, # of connection points: 2
#     Edge 56, Type (0, 1), BuildingBlock: OJICUG_clean_linker_0, # of connection points: 2
#     Edge 57, Type (0, 1), BuildingBlock: OJICUG_clean_linker_0, # of connection points: 2
#     Edge 58, Type (0, 1), BuildingBlock: OJICUG_clean_linker_0, # of connection points: 2
#     Edge 59, Type (0, 1), BuildingBlock: OJICUG_clean_linker_0, # of connection points: 2
#     Edge 60, Type (0, 1), BuildingBlock: OJICUG_clean_linker_0, # of connection points: 2
#     Edge 61, Type (0, 1), BuildingBlock: OJICUG_clean_linker_0, # of connection points: 2
#     Edge 62, Type (0, 1), BuildingBlock: OJICUG_clean_linker_0, # of connection points: 2
#     Edge 63, Type (0, 1), BuildingBlock: OJICUG_clean_linker_0, # of connection points: 2
#     Edge 64, Type (0, 1), BuildingBlock: OJICUG_clean_linker_0, # of connection points: 2
#     Edge 65, Type (0, 1), BuildingBlock: OJICUG_clean_linker_0, # of connection points: 2
#     Edge 66, Type (0, 1), BuildingBlock: OJICUG_clean_linker_0, # of connection points: 2
#     Edge 67, Type (0, 1), BuildingBlock: OJICUG_clean_linker_0, # of connection points: 2
#     Edge 68, Type (0, 1), BuildingBlock: OJICUG_clean_linker_0, # of connection points: 2
#     Edge 69, Type (0, 1), BuildingBlock: OJICUG_clean_linker_0, # of connection points: 2
#     Edge 70, Type (0, 1), BuildingBlock: OJICUG_clean_linker_0, # of connection points: 2
#     Edge 71, Type (0, 1), BuildingBlock: OJICUG_clean_linker_0, # of connection points: 2
#     Edge 72, Type (0, 1), BuildingBlock: OJICUG_clean_linker_0, # of connection points: 2
#     Edge 73, Type (0, 1), BuildingBlock: OJICUG_clean_linker_0, # of connection points: 2
#     Edge 74, Type (0, 1), BuildingBlock: OJICUG_clean_linker_0, # of connection points: 2
#     Edge 75, Type (0, 1), BuildingBlock: OJICUG_clean_linker_0, # of connection points: 2
#     Edge 76, Type (0, 1), BuildingBlock: OJICUG_clean_linker_0, # of connection points: 2
#     Edge 77, Type (0, 1), BuildingBlock: OJICUG_clean_linker_0, # of connection points: 2
#     Edge 78, Type (0, 1), BuildingBlock: OJICUG_clean_linker_0, # of connection points: 2
#     Edge 79, Type (0, 1), BuildingBlock: OJICUG_clean_linker_0, # of connection points: 2
#     Edge 80, Type (0, 1), BuildingBlock: OJICUG_clean_linker_0, # of connection points: 2
# Relax obj value: 0.035
# Max RMSD: 0.133
# Mean RMSD: 0.088
data_MOF--net-eea--node1-CUWYAW_clean_sbu_0--node2-VETTIZ_charged_linker_0--edge1-OJICUG_clean_linker_0
_symmetry_space_group_name_H-M    P1
_symmetry_Int_Tables_number       1
_symmetry_cell_setting            triclinic
loop_
_symmetry_equiv_pos_as_xyz
'x, y, z'
_cell_length_a     47.93835
_cell_length_b     47.710253
_cell_length_c     73.910856
_cell_angle_alpha  93.350939
_cell_angle_beta   93.045682
_cell_angle_gamma 119.88237
loop_
_atom_site_label
_atom_site_type_symbol
_atom_site_fract_x
_atom_site_fract_y
_atom_site_fract_z
_atom_type_partial_charge
C0 C 0.20054 0.1841 0.37874 0.0
C1 C 0.2048 0.21317 0.38725 0.0
C2 C 0.21916 0.22339 0.40531 0.0
C3 C 0.22267 0.17443 0.40639 0.0
C4 C 0.20971 0.16534 0.38845 0.0
C5 C 0.2065 0.1338 0.38117 0.0
H6 H 0.21794 0.00148 0.39527 0.0
C7 C 0.22822 0.14853 0.41262 0.0
C8 C 0.21903 0.1249 0.39779 0.0
H9 H 0.18537 0.02445 0.3456 0.0
H10 H 0.19637 0.0757 0.36047 0.0
H11 H 0.28017 0.07521 0.40707 0.0
H12 H 0.18209 0.02229 0.42047 0.0
H13 H 0.20433 0.04738 0.44027 0.0
H14 H 0.2132 0.01692 0.43135 0.0
H15 H 0.26546 0.04181 0.42086 0.0
H16 H 0.28075 0.08289 0.43069 0.0
C17 C 0.22867 0.14054 0.3655 0.0
C18 C 0.17015 0.10939 0.37557 0.0
C19 C 0.26535 0.15158 0.47898 0.0
C20 C 0.26951 0.12911 0.48858 0.0
C21 C 0.26508 0.10053 0.47908 0.0
C22 C 0.25623 0.09407 0.46035 0.0
C23 C 0.25144 0.11628 0.45096 0.0
C24 C 0.25603 0.14452 0.4602 0.0
C25 C 0.24881 0.16466 0.44788 0.0
C26 C 0.239 0.14368 0.42983 0.0
C27 C 0.24077 0.11548 0.43179 0.0
C28 C 0.2802 0.1976 0.44729 0.0
C29 C 0.22044 0.16758 0.45495 0.0
C30 C 0.21369 0.01785 0.38757 0.0
C31 C 0.20078 0.00906 0.36928 0.0
C32 C 0.19503 0.03068 0.35976 0.0
C33 C 0.20152 0.06044 0.36843 0.0
C34 C 0.21363 0.06859 0.38686 0.0
C35 C 0.21975 0.04758 0.39609 0.0
C36 C 0.23172 0.05992 0.41573 0.0
C37 C 0.23199 0.09194 0.41672 0.0
C38 C 0.22134 0.09677 0.3998 0.0
C39 C 0.26625 0.06511 0.41894 0.0
C40 C 0.20685 0.03544 0.42769 0.0
H41 H 0.23848 0.21277 0.42878 0.0
H42 H 0.19021 0.17606 0.36473 0.0
H43 H 0.15474 0.11319 0.38501 0.0
H44 H 0.16361 0.08382 0.3763 0.0
H45 H 0.16284 0.11235 0.36162 0.0
H46 H 0.25043 0.16524 0.36787 0.0
H47 H 0.21577 0.13905 0.35222 0.0
H48 H 0.23847 0.12394 0.36437 0.0
H49 H 0.26852 0.17369 0.486 0.0
H50 H 0.26864 0.08316 0.48619 0.0
H51 H 0.2532 0.07186 0.45397 0.0
H52 H 0.30166 0.19436 0.44766 0.0
H53 H 0.28384 0.21491 0.45913 0.0
H54 H 0.28066 0.20888 0.43461 0.0
H55 H 0.20173 0.14397 0.45922 0.0
H56 H 0.20769 0.17381 0.44452 0.0
H57 H 0.22895 0.186 0.46691 0.0
H58 H 0.22282 0.24592 0.41204 0.0
C59 C 0.22806 0.20407 0.41498 0.0
C60 C 0.97019 0.1952 0.38496 0.0
C61 C 0.9945 0.22531 0.3935 0.0
C62 C 0.99232 0.2339 0.4118 0.0
C63 C 0.94286 0.18224 0.41267 0.0
C64 C 0.94489 0.1743 0.39468 0.0
C65 C 0.91806 0.14117 0.38742 0.0
H66 H 0.78441 0.00074 0.40005 0.0
C67 C 0.91398 0.15423 0.41886 0.0
C68 C 0.8995 0.13027 0.40398 0.0
H69 H 0.83468 0.02785 0.35157 0.0
H70 H 0.87317 0.08034 0.36683 0.0
H71 H 0.84477 0.02614 0.42654 0.0
H72 H 0.79029 0.07161 0.41135 0.0
H73 H 0.79962 0.07956 0.43508 0.0
H74 H 0.77592 0.03811 0.42506 0.0
H75 H 0.80868 0.01777 0.4368 0.0
H76 H 0.84794 0.05057 0.44608 0.0
C77 C 0.93317 0.12006 0.38196 0.0
C78 C 0.898 0.14516 0.37166 0.0
C79 C 0.88447 0.15428 0.48448 0.0
C80 C 0.85995 0.13024 0.49366 0.0
C81 C 0.83743 0.10036 0.4839 0.0
C82 C 0.8392 0.09421 0.46542 0.0
C83 C 0.86395 0.11807 0.45645 0.0
C84 C 0.8862 0.14753 0.46589 0.0
C85 C 0.91137 0.16932 0.45395 0.0
C86 C 0.90031 0.14804 0.43588 0.0
C87 C 0.8724 0.11812 0.43755 0.0
C88 C 0.94478 0.17593 0.46201 0.0
C89 C 0.909 0.20028 0.45264 0.0
C90 C 0.80353 0.01825 0.39273 0.0
C91 C 0.80662 0.01032 0.37462 0.0
C92 C 0.83206 0.03343 0.36558 0.0
C93 C 0.85433 0.06392 0.37448 0.0
C94 C 0.85136 0.0714 0.39269 0.0
C95 C 0.82628 0.04877 0.40151 0.0
C96 C 0.82774 0.06061 0.42105 0.0
C97 C 0.85772 0.09418 0.42241 0.0
C98 C 0.87126 0.1003 0.40576 0.0
C99 C 0.83229 0.03763 0.43336 0.0
C100 C 0.79677 0.06246 0.42345 0.0
H101 H 0.96636 0.22041 0.43527 0.0
H102 H 0.97127 0.18739 0.37108 0.0
H103 H 0.89684 0.16772 0.37444 0.0
H104 H 0.8725 0.12543 0.36985 0.0
H105 H 0.90891 0.14675 0.3586 0.0
H106 H 0.95584 0.12757 0.39072 0.0
H107 H 0.93924 0.1223 0.36762 0.0
H108 H 0.91746 0.09412 0.38385 0.0
H109 H 0.90219 0.17743 0.49168 0.0
H110 H 0.8181 0.08169 0.4906 0.0
H111 H 0.82122 0.07096 0.45888 0.0
H112 H 0.94295 0.15347 0.46684 0.0
H113 H 0.95439 0.1948 0.4738 0.0
H114 H 0.96277 0.18348 0.45197 0.0
H115 H 0.88327 0.19405 0.45104 0.0
H116 H 0.91975 0.21309 0.44068 0.0
H117 H 0.92079 0.21737 0.46513 0.0
H118 H 0.01054 0.2571 0.41872 0.0
C119 C 0.96662 0.21258 0.4214 0.0
C120 C 0.97279 0.77443 0.38874 0.0
C121 C 0.99783 0.76994 0.39595 0.0
C122 C 0.9962 0.75945 0.41356 0.0
C123 C 0.94577 0.75914 0.41648 0.0
C124 C 0.94731 0.76905 0.39916 0.0
C125 C 0.91966 0.77399 0.39351 0.0
H126 H 0.78278 0.7727 0.41249 0.0
C127 C 0.91652 0.75688 0.42379 0.0
C128 C 0.90129 0.76568 0.4103 0.0
H129 H 0.83098 0.79661 0.36312 0.0
H130 H 0.8721 0.78675 0.37595 0.0
H131 H 0.79121 0.7114 0.41827 0.0
H132 H 0.84611 0.81165 0.4396 0.0
H133 H 0.84744 0.78947 0.45739 0.0
H134 H 0.80898 0.78353 0.44823 0.0
H135 H 0.77757 0.72902 0.43524 0.0
H136 H 0.8025 0.7119 0.44132 0.0
C137 C 0.89984 0.74947 0.37674 0.0
C138 C 0.93363 0.81019 0.39017 0.0
C139 C 0.88674 0.72253 0.48761 0.0
C140 C 0.8615 0.71987 0.49773 0.0
C141 C 0.83874 0.72708 0.48976 0.0
C142 C 0.84089 0.73678 0.47217 0.0
C143 C 0.86615 0.73947 0.46225 0.0
C144 C 0.88872 0.73262 0.46995 0.0
C145 C 0.91435 0.73789 0.45731 0.0
C146 C 0.90298 0.74846 0.44074 0.0
C147 C 0.87464 0.74918 0.44382 0.0
C148 C 0.91305 0.70517 0.45291 0.0
C149 C 0.94732 0.76531 0.46652 0.0
C150 C 0.80235 0.77606 0.40451 0.0
C151 C 0.80347 0.78528 0.38671 0.0
C152 C 0.82921 0.78902 0.37675 0.0
C153 C 0.85322 0.78343 0.38427 0.0
C154 C 0.85166 0.774 0.40201 0.0
C155 C 0.82655 0.7705 0.41182 0.0
C156 C 0.82879 0.76017 0.43043 0.0
C157 C 0.85935 0.75802 0.43014 0.0
C158 C 0.8726 0.76616 0.41348 0.0
C159 C 0.79844 0.72649 0.43158 0.0
C160 C 0.83281 0.78733 0.44476 0.0
H161 H 0.97051 0.74607 0.43711 0.0
H162 H 0.97344 0.78299 0.37543 0.0
H163 H 0.95548 0.82619 0.39971 0.0
H164 H 0.91679 0.81913 0.3927 0.0
H165 H 0.94077 0.81443 0.37609 0.0
H166 H 0.89983 0.72625 0.37761 0.0
H167 H 0.91012 0.75929 0.3639 0.0
H168 H 0.87403 0.74233 0.37571 0.0
H169 H 0.90473 0.71737 0.49341 0.0
H170 H 0.81882 0.72476 0.49708 0.0
H171 H 0.82265 0.74173 0.46698 0.0
H172 H 0.88756 0.68497 0.45039 0.0
H173 H 0.92484 0.69967 0.46442 0.0
H174 H 0.92443 0.70445 0.44044 0.0
H175 H 0.94457 0.78472 0.47384 0.0
H176 H 0.96506 0.77771 0.45668 0.0
H177 H 0.95774 0.75583 0.4766 0.0
H178 H 0.01499 0.75549 0.41943 0.0
C179 C 0.97031 0.75394 0.42382 0.0
C180 C 0.18196 0.21745 0.61944 0.0
C181 C 0.21006 0.22078 0.61243 0.0
C182 C 0.21749 0.23236 0.59519 0.0
C183 C 0.1689 0.23617 0.5921 0.0
C184 C 0.16183 0.22519 0.60908 0.0
C185 C 0.13077 0.2224 0.61439 0.0
H186 H 0.99841 0.23505 0.59421 0.0
C187 C 0.1426 0.24123 0.58474 0.0
C188 C 0.12019 0.23319 0.59771 0.0
H189 H 0.02661 0.20695 0.64345 0.0
H190 H 0.07474 0.21432 0.63106 0.0
H191 H 0.07166 0.29521 0.58908 0.0
H192 H 0.02021 0.19513 0.56579 0.0
H193 H 0.03932 0.22062 0.54871 0.0
H194 H 0.00818 0.22375 0.55971 0.0
H195 H 0.03647 0.27944 0.57309 0.0
H196 H 0.07604 0.29353 0.56559 0.0
C197 C 0.13879 0.2463 0.6316 0.0
C198 C 0.10703 0.18626 0.61686 0.0
C199 C 0.14798 0.28177 0.52246 0.0
C200 C 0.12754 0.28842 0.51151 0.0
C201 C 0.09803 0.28269 0.51783 0.0
C202 C 0.0895 0.27123 0.53498 0.0
C203 C 0.11058 0.26522 0.54588 0.0
C204 C 0.13911 0.27025 0.53941 0.0
C205 C 0.1584 0.26195 0.55242 0.0
C206 C 0.13717 0.25163 0.56799 0.0
C207 C 0.10913 0.2536 0.56422 0.0
C208 C 0.19135 0.29319 0.55812 0.0
C209 C 0.16087 0.23339 0.54307 0.0
C210 C 0.01499 0.23041 0.60223 0.0
C211 C 0.00875 0.22065 0.61994 0.0
C212 C 0.03103 0.21504 0.62996 0.0
C213 C 0.05898 0.21914 0.62267 0.0
C214 C 0.06503 0.229 0.60509 0.0
C215 C 0.04338 0.23464 0.59514 0.0
C216 C 0.05455 0.24559 0.57677 0.0
C217 C 0.08631 0.24542 0.57743 0.0
C218 C 0.09205 0.23549 0.59408 0.0
C219 C 0.05985 0.2802 0.5759 0.0
C220 C 0.02927 0.22018 0.56185 0.0
H221 H 0.20416 0.24867 0.572 0.0
H222 H 0.17534 0.20832 0.63255 0.0
H223 H 0.10982 0.1699 0.60668 0.0
H224 H 0.08139 0.17949 0.61458 0.0
H225 H 0.11153 0.18026 0.63061 0.0
H226 H 0.16345 0.26785 0.63188 0.0
H227 H 0.13789 0.23449 0.64424 0.0
H228 H 0.12264 0.25659 0.63209 0.0
H229 H 0.17048 0.28521 0.51788 0.0
H230 H 0.08183 0.28764 0.50966 0.0
H231 H 0.0669 0.26761 0.53911 0.0
H232 H 0.18844 0.31493 0.5594 0.0
H233 H 0.20879 0.29718 0.54788 0.0
H234 H 0.20229 0.29303 0.57161 0.0
H235 H 0.13883 0.21703 0.53374 0.0
H236 H 0.16243 0.21742 0.55282 0.0
H237 H 0.18193 0.24238 0.53488 0.0
H238 H 0.23921 0.23563 0.58957 0.0
C239 C 0.19713 0.24006 0.58502 0.0
C240 C 0.80495 0.81584 0.62573 0.0
C241 C 0.79982 0.78642 0.61724 0.0
C242 C 0.7855 0.7765 0.59916 0.0
C243 C 0.78348 0.8263 0.59812 0.0
C244 C 0.79655 0.83516 0.61605 0.0
C245 C 0.80054 0.867 0.62341 0.0
H246 H 0.78897 -0.00035 0.6105 0.0
C247 C 0.77851 0.85264 0.592 0.0
C248 C 0.78825 0.87631 0.60687 0.0
H249 H 0.82358 0.97662 0.65943 0.0
H250 H 0.81277 0.92573 0.64415 0.0
H251 H 0.82491 0.97988 0.58465 0.0
H252 H 0.72713 0.92559 0.59838 0.0
H253 H 0.72653 0.91927 0.57463 0.0
H254 H 0.74168 0.95983 0.58523 0.0
H255 H 0.79331 0.98451 0.57379 0.0
H256 H 0.80277 0.95445 0.56492 0.0
C257 C 0.83706 0.89084 0.62891 0.0
C258 C 0.77859 0.86067 0.63916 0.0
C259 C 0.74014 0.85003 0.52596 0.0
C260 C 0.73604 0.87266 0.51649 0.0
C261 C 0.74109 0.90144 0.52608 0.0
C262 C 0.75043 0.90788 0.54477 0.0
C263 C 0.75508 0.88545 0.55403 0.0
C264 C 0.74994 0.85706 0.54469 0.0
C265 C 0.75703 0.83665 0.55686 0.0
C266 C 0.76752 0.8577 0.57492 0.0
C267 C 0.7661 0.88613 0.57311 0.0
C268 C 0.78488 0.83313 0.54951 0.0
C269 C 0.7254 0.80401 0.55763 0.0
C270 C 0.79377 0.98334 0.61792 0.0
C271 C 0.80704 0.99193 0.63615 0.0
C272 C 0.81355 0.97048 0.64532 0.0
C273 C 0.80717 0.94092 0.63643 0.0
C274 C 0.79442 0.93283 0.61809 0.0
C275 C 0.78789 0.95384 0.60915 0.0
C276 C 0.77556 0.94168 0.58951 0.0
C277 C 0.77536 0.90967 0.58825 0.0
C278 C 0.78635 0.9047 0.60502 0.0
C279 C 0.80011 0.96633 0.57749 0.0
C280 C 0.74098 0.93643 0.5866 0.0
H281 H 0.76689 0.78789 0.5757 0.0
H282 H 0.81524 0.82368 0.63976 0.0
H283 H 0.75625 0.83642 0.63663 0.0
H284 H 0.76974 0.87802 0.64062 0.0
H285 H 0.79126 0.86127 0.65232 0.0
H286 H 0.85218 0.88616 0.61966 0.0
H287 H 0.84416 0.88823 0.64298 0.0
H288 H 0.84421 0.91649 0.62778 0.0
H289 H 0.73652 0.82778 0.51888 0.0
H290 H 0.73758 0.91895 0.51909 0.0
H291 H 0.75388 0.93021 0.55124 0.0
H292 H 0.80374 0.8566 0.54517 0.0
H293 H 0.77587 0.81469 0.53753 0.0
H294 H 0.79757 0.82658 0.5598 0.0
H295 H 0.70423 0.80769 0.55756 0.0
H296 H 0.72509 0.79261 0.57025 0.0
H297 H 0.72116 0.78661 0.54571 0.0
H298 H 0.78116 0.7537 0.59244 0.0
C299 C 0.77738 0.7964 0.5895 0.0
C300 C 0.03141 0.80196 0.62476 0.0
C301 C 0.00357 0.77489 0.61579 0.0
C302 C 0.0029 0.76815 0.59679 0.0
C303 C 0.0563 0.81552 0.59635 0.0
C304 C 0.05669 0.82216 0.61484 0.0
C305 C 0.08535 0.85399 0.62232 0.0
H306 H 0.22006 0.99264 0.60882 0.0
C307 C 0.08621 0.84231 0.5902 0.0
C308 C 0.10285 0.86505 0.60543 0.0
H309 H 0.17167 0.96637 0.65796 0.0
H310 H 0.13291 0.91357 0.64311 0.0
H311 H 0.21671 0.92592 0.59901 0.0
H312 H 0.15648 0.96382 0.58152 0.0
H313 H 0.16179 0.94456 0.56208 0.0
H314 H 0.19658 0.97799 0.57504 0.0
H315 H 0.22621 0.95121 0.58067 0.0
H316 H 0.2012 0.90753 0.57677 0.0
C317 C 0.10528 0.84731 0.63684 0.0
C318 C 0.07295 0.8767 0.62953 0.0
C319 C 0.11768 0.83833 0.52528 0.0
C320 C 0.14553 0.85945 0.51698 0.0
C321 C 0.16926 0.8886 0.52692 0.0
C322 C 0.16597 0.89643 0.54485 0.0
C323 C 0.1386 0.87499 0.55314 0.0
C324 C 0.11487 0.84649 0.54348 0.0
C325 C 0.08768 0.82685 0.55496 0.0
C326 C 0.09981 0.84783 0.57315 0.0
C327 C 0.12947 0.87618 0.57176 0.0
C328 C 0.08513 0.79347 0.55631 0.0
C329 C 0.05648 0.82472 0.54637 0.0
C330 C 0.20124 0.97531 0.61637 0.0
C331 C 0.19864 0.98363 0.6345 0.0
C332 C 0.17378 0.96058 0.64389 0.0
C333 C 0.15127 0.92996 0.63521 0.0
C334 C 0.15332 0.92239 0.61685 0.0
C335 C 0.17823 0.94471 0.60781 0.0
C336 C 0.17637 0.93244 0.58832 0.0
C337 C 0.14554 0.89956 0.58702 0.0
C338 C 0.13232 0.89387 0.60376 0.0
C339 C 0.20668 0.92924 0.58591 0.0
C340 C 0.17283 0.95587 0.57597 0.0
H341 H 0.02712 0.78182 0.57271 0.0
H342 H 0.03362 0.80804 0.63929 0.0
H343 H 0.04855 0.86937 0.62294 0.0
H344 H 0.08824 0.90209 0.62639 0.0
H345 H 0.07117 0.87635 0.64444 0.0
H346 H 0.10645 0.8253 0.63228 0.0
H347 H 0.09418 0.84311 0.64995 0.0
H348 H 0.1307 0.86711 0.63933 0.0
H349 H 0.099 0.8158 0.51795 0.0
H350 H 0.19054 0.90559 0.52075 0.0
H351 H 0.18503 0.91896 0.55154 0.0
H352 H 0.10946 0.79657 0.55969 0.0
H353 H 0.07473 0.77799 0.54318 0.0
H354 H 0.07027 0.78014 0.56709 0.0
H355 H 0.06193 0.84783 0.5407 0.0
H356 H 0.03897 0.82106 0.55639 0.0
H357 H 0.04462 0.8049 0.53509 0.0
H358 H 0.98179 0.74797 0.58922 0.0
C359 C 0.02918 0.7881 0.58709 0.0
C360 C 0.8629 0.51383 0.71391 0.0
C361 C 0.8681 0.5433 0.72241 0.0
C362 C 0.88286 0.55344 0.74039 0.0
C363 C 0.88516 0.50381 0.74136 0.0
C364 C 0.87168 0.49469 0.72352 0.0
C365 C 0.86761 0.46276 0.71622 0.0
H366 H 0.87959 0.33045 0.72979 0.0
C367 C 0.89038 0.47765 0.74748 0.0
C368 C 0.88037 0.45376 0.73271 0.0
H369 H 0.84402 0.35219 0.68072 0.0
H370 H 0.85518 0.4035 0.69566 0.0
H371 H 0.94164 0.40434 0.74098 0.0
H372 H 0.84442 0.35104 0.75569 0.0
H373 H 0.86718 0.37672 0.77521 0.0
H374 H 0.87618 0.34636 0.76628 0.0
H375 H 0.9276 0.37086 0.75469 0.0
H376 H 0.94309 0.41187 0.7647 0.0
C377 C 0.88911 0.46884 0.70027 0.0
C378 C 0.83104 0.43881 0.71101 0.0
C379 C 0.92999 0.48149 0.81338 0.0
C380 C 0.9345 0.45916 0.8229 0.0
C381 C 0.92955 0.43035 0.81341 0.0
C382 C 0.91986 0.42357 0.79477 0.0
C383 C 0.91478 0.44569 0.78547 0.0
C384 C 0.91989 0.47414 0.7947 0.0
C385 C 0.91244 0.49426 0.7825 0.0
C386 C 0.90175 0.47295 0.76454 0.0
C387 C 0.90336 0.44465 0.76642 0.0
C388 C 0.94395 0.52694 0.78151 0.0
C389 C 0.88463 0.49771 0.78998 0.0
C390 C 0.87467 0.34655 0.72224 0.0
C391 C 0.86101 0.33747 0.70409 0.0
C392 C 0.85434 0.35869 0.69477 0.0
C393 C 0.86093 0.38848 0.70346 0.0
C394 C 0.87406 0.39704 0.72173 0.0
C395 C 0.88079 0.37626 0.73079 0.0
C396 C 0.89361 0.38887 0.75032 0.0
C397 C 0.89382 0.42086 0.7514 0.0
C398 C 0.88241 0.42546 0.73464 0.0
C399 C 0.92823 0.39415 0.753 0.0
C400 C 0.86939 0.36457 0.76262 0.0
H401 H 0.90216 0.54243 0.7637 0.0
H402 H 0.85226 0.50582 0.69994 0.0
H403 H 0.81616 0.44338 0.7205 0.0
H404 H 0.82407 0.41318 0.71203 0.0
H405 H 0.8235 0.44143 0.69704 0.0
H406 H 0.91151 0.49305 0.70265 0.0
H407 H 0.87614 0.46817 0.6872 0.0
H408 H 0.89782 0.45139 0.69871 0.0
H409 H 0.93354 0.50378 0.82038 0.0
H410 H 0.93342 0.41309 0.82044 0.0
H411 H 0.9165 0.40121 0.78837 0.0
H412 H 0.96526 0.52346 0.78176 0.0
H413 H 0.94807 0.54464 0.79324 0.0
H414 H 0.94417 0.53788 0.76872 0.0
H415 H 0.86603 0.47432 0.79454 0.0
H416 H 0.87155 0.50385 0.7797 0.0
H417 H 0.89377 0.5164 0.80184 0.0
H418 H 0.88722 0.57624 0.74712 0.0
C419 C 0.89136 0.53375 0.74996 0.0
C420 C 0.63424 0.52805 0.71673 0.0
C421 C 0.66211 0.55504 0.72571 0.0
C422 C 0.66287 0.5616 0.74475 0.0
C423 C 0.60957 0.51403 0.74518 0.0
C424 C 0.6091 0.50765 0.72666 0.0
C425 C 0.58059 0.47579 0.71912 0.0
H426 H 0.4468 0.33607 0.7321 0.0
C427 C 0.57979 0.48699 0.7513 0.0
C428 C 0.56322 0.46439 0.73601 0.0
H429 H 0.49531 0.36379 0.68308 0.0
H430 H 0.53354 0.41652 0.69816 0.0
H431 H 0.51061 0.36525 0.7595 0.0
H432 H 0.44949 0.40243 0.74244 0.0
H433 H 0.46486 0.42042 0.76476 0.0
H434 H 0.4402 0.37675 0.76059 0.0
H435 H 0.47035 0.35036 0.7659 0.0
H436 H 0.50478 0.38384 0.77906 0.0
C437 C 0.59326 0.4534 0.71173 0.0
C438 C 0.56043 0.48245 0.70473 0.0
C439 C 0.54841 0.48962 0.81637 0.0
C440 C 0.52069 0.46819 0.82467 0.0
C441 C 0.49708 0.43907 0.81463 0.0
C442 C 0.50037 0.43159 0.79664 0.0
C443 C 0.52762 0.45332 0.78837 0.0
C444 C 0.55123 0.4818 0.79811 0.0
C445 C 0.57831 0.50179 0.78664 0.0
C446 C 0.56625 0.48106 0.76837 0.0
C447 C 0.53672 0.45251 0.7697 0.0
C448 C 0.60966 0.50407 0.79511 0.0
C449 C 0.58062 0.5351 0.78551 0.0
C450 C 0.46558 0.3537 0.72465 0.0
C451 C 0.46837 0.34583 0.70647 0.0
C452 C 0.49309 0.36926 0.69719 0.0
C453 C 0.5153 0.39983 0.706 0.0
C454 C 0.51313 0.40697 0.72441 0.0
C455 C 0.48835 0.38428 0.73337 0.0
C456 C 0.49011 0.3962 0.75293 0.0
C457 C 0.52075 0.42929 0.75435 0.0
C458 C 0.53392 0.43537 0.73761 0.0
C459 C 0.49395 0.37273 0.76511 0.0
C460 C 0.4596 0.39897 0.75548 0.0
H461 H 0.63881 0.54758 0.76886 0.0
H462 H 0.63195 0.52213 0.70218 0.0
H463 H 0.55921 0.50439 0.70939 0.0
H464 H 0.53503 0.4626 0.7023 0.0
H465 H 0.57138 0.48675 0.69157 0.0
H466 H 0.61781 0.46098 0.71817 0.0
H467 H 0.59479 0.45381 0.69679 0.0
H468 H 0.57828 0.42797 0.71487 0.0
H469 H 0.567 0.51214 0.82375 0.0
H470 H 0.4759 0.42185 0.82078 0.0
H471 H 0.4814 0.40907 0.78987 0.0
H472 H 0.60442 0.48083 0.80053 0.0
H473 H 0.62132 0.5236 0.80655 0.0
H474 H 0.62725 0.50825 0.78507 0.0
H475 H 0.55622 0.53186 0.78216 0.0
H476 H 0.59548 0.54871 0.7748 0.0
H477 H 0.59089 0.55038 0.79871 0.0
H478 H 0.684 0.58176 0.75232 0.0
C479 C 0.63669 0.54146 0.75446 0.0
C480 C 0.6388 0.10681 0.72242 0.0
C481 C 0.66325 0.10125 0.72941 0.0
C482 C 0.66118 0.09008 0.74687 0.0
C483 C 0.61128 0.09078 0.74997 0.0
C484 C 0.61337 0.10156 0.73284 0.0
C485 C 0.58624 0.10735 0.72734 0.0
H486 H 0.44891 0.10543 0.74572 0.0
C487 C 0.58195 0.08849 0.75723 0.0
C488 C 0.56739 0.09831 0.74392 0.0
H489 H 0.49974 0.13335 0.69741 0.0
H490 H 0.5403 0.12263 0.71018 0.0
H491 H 0.45541 0.04426 0.74985 0.0
H492 H 0.51259 0.14248 0.77422 0.0
H493 H 0.50999 0.1176 0.79138 0.0
H494 H 0.47355 0.11458 0.78097 0.0
H495 H 0.44283 0.05985 0.76842 0.0
H496 H 0.46739 0.04143 0.77217 0.0
C497 C 0.5666 0.08385 0.71018 0.0
C498 C 0.60092 0.14392 0.72468 0.0
C499 C 0.5482 0.04847 0.8197 0.0
C500 C 0.52116 0.04301 0.82895 0.0
C501 C 0.49889 0.05087 0.821 0.0
C502 C 0.50285 0.06324 0.80408 0.0
C503 C 0.52937 0.06788 0.79477 0.0
C504 C 0.55168 0.06073 0.80254 0.0
C505 C 0.57806 0.06704 0.79024 0.0
C506 C 0.56759 0.07886 0.77388 0.0
C507 C 0.53905 0.07931 0.77678 0.0
C508 C 0.57697 0.03458 0.78521 0.0
C509 C 0.61061 0.09388 0.80016 0.0
C510 C 0.46897 0.10955 0.73798 0.0
C511 C 0.47099 0.1201 0.72048 0.0
C512 C 0.49731 0.12476 0.7108 0.0
C513 C 0.52098 0.11865 0.71829 0.0
C514 C 0.51844 0.10772 0.7357 0.0
C515 C 0.49283 0.10349 0.74526 0.0
C516 C 0.49397 0.09148 0.7635 0.0
C517 C 0.52451 0.08928 0.7633 0.0
C518 C 0.53867 0.09878 0.747 0.0
C519 C 0.46331 0.05762 0.76369 0.0
C520 C 0.49747 0.1176 0.7784 0.0
H521 H 0.63521 0.07638 0.77031 0.0
H522 H 0.63983 0.116 0.70927 0.0
H523 H 0.62295 0.15916 0.73424 0.0
H524 H 0.58451 0.15322 0.72772 0.0
H525 H 0.60794 0.1488 0.71063 0.0
H526 H 0.56577 0.06019 0.71075 0.0
H527 H 0.57763 0.09415 0.69759 0.0
H528 H 0.54101 0.07747 0.7089 0.0
H529 H 0.56569 0.04261 0.82546 0.0
H530 H 0.47823 0.04745 0.82794 0.0
H531 H 0.48484 0.06849 0.79886 0.0
H532 H 0.55155 0.01438 0.78232 0.0
H533 H 0.58848 0.02843 0.79655 0.0
H534 H 0.58872 0.03469 0.77276 0.0
H535 H 0.60767 0.11329 0.80731 0.0
H536 H 0.62924 0.10629 0.79077 0.0
H537 H 0.61996 0.08382 0.81048 0.0
H538 H 0.67954 0.08536 0.75258 0.0
C539 C 0.63536 0.08478 0.75714 0.0
C540 C 0.84928 0.55161 0.9526 0.0
C541 C 0.87717 0.55467 0.94542 0.0
C542 C 0.88383 0.56522 0.92791 0.0
C543 C 0.83495 0.56851 0.9249 0.0
C544 C 0.82864 0.55861 0.94215 0.0
C545 C 0.7978 0.55618 0.94766 0.0
H546 H 0.6645 0.56739 0.92757 0.0
C547 C 0.80841 0.57325 0.91757 0.0
C548 C 0.78663 0.56617 0.93085 0.0
H549 H 0.69387 0.54113 0.97714 0.0
H550 H 0.74207 0.54872 0.96469 0.0
H551 H 0.73631 0.62741 0.92224 0.0
H552 H 0.68688 0.52727 0.89919 0.0
H553 H 0.70434 0.55307 0.88195 0.0
H554 H 0.67332 0.55501 0.89371 0.0
H555 H 0.70251 0.61163 0.90526 0.0
H556 H 0.74307 0.62616 0.89913 0.0
C557 C 0.80639 0.58085 0.96456 0.0
C558 C 0.77422 0.52029 0.95072 0.0
C559 C 0.80993 0.60782 0.85387 0.0
C560 C 0.78953 0.61483 0.84313 0.0
C561 C 0.76167 0.61207 0.85035 0.0
C562 C 0.75421 0.60221 0.86789 0.0
C563 C 0.77495 0.59526 0.87843 0.0
C564 C 0.80233 0.59829 0.87133 0.0
C565 C 0.82218 0.59078 0.88443 0.0
C566 C 0.80226 0.58261 0.9006 0.0
C567 C 0.77444 0.58504 0.89708 0.0
C568 C 0.85573 0.62187 0.88895 0.0
C569 C 0.82328 0.56098 0.87578 0.0
C570 C 0.68132 0.56316 0.93565 0.0
C571 C 0.67535 0.55381 0.95345 0.0
C572 C 0.69803 0.54886 0.96356 0.0
C573 C 0.72601 0.55306 0.95624 0.0
C574 C 0.73169 0.56236 0.93852 0.0
C575 C 0.7097 0.56746 0.92852 0.0
C576 C 0.72049 0.57795 0.91002 0.0
C577 C 0.75225 0.57781 0.91058 0.0
C578 C 0.75848 0.56854 0.92735 0.0
C579 C 0.72573 0.61251 0.90892 0.0
C580 C 0.69495 0.5522 0.89533 0.0
H581 H 0.8694 0.57993 0.90441 0.0
H582 H 0.8432 0.54327 0.96592 0.0
H583 H 0.7768 0.50345 0.9408 0.0
H584 H 0.74856 0.51343 0.94853 0.0
H585 H 0.77908 0.51503 0.96461 0.0
H586 H 0.83074 0.60259 0.96424 0.0
H587 H 0.80659 0.56986 0.97738 0.0
H588 H 0.78988 0.5907 0.96519 0.0
H589 H 0.83185 0.61029 0.84892 0.0
H590 H 0.74546 0.61723 0.84234 0.0
H591 H 0.73262 0.6004 0.87258 0.0
H592 H 0.8538 0.64414 0.88867 0.0
H593 H 0.8728 0.62334 0.87895 0.0
H594 H 0.86664 0.62368 0.90283 0.0
H595 H 0.79974 0.54329 0.86804 0.0
H596 H 0.82732 0.54703 0.88596 0.0
H597 H 0.84223 0.56841 0.86617 0.0
H598 H 0.90538 0.56833 0.92213 0.0
C599 C 0.86294 0.57213 0.91764 0.0
C600 C 0.47187 0.15016 0.96035 0.0
C601 C 0.46703 0.12081 0.95196 0.0
C602 C 0.45265 0.11059 0.9339 0.0
C603 C 0.44997 0.16002 0.93268 0.0
C604 C 0.46306 0.16911 0.9506 0.0
C605 C 0.46646 0.20069 0.95792 0.0
H606 H 0.45375 0.33251 0.94486 0.0
C607 C 0.44451 0.18603 0.92649 0.0
C608 C 0.45389 0.20965 0.94135 0.0
H609 H 0.4873 0.30906 0.99402 0.0
H610 H 0.477 0.25845 0.97872 0.0
H611 H 0.4901 0.31276 0.91914 0.0
H612 H 0.39209 0.2583 0.93254 0.0
H613 H 0.39178 0.25195 0.90881 0.0
H614 H 0.40664 0.2925 0.91935 0.0
H615 H 0.45864 0.3177 0.90836 0.0
H616 H 0.46799 0.28765 0.89932 0.0
C617 C 0.50287 0.22498 0.96342 0.0
C618 C 0.44439 0.194 0.97366 0.0
C619 C 0.40632 0.18303 0.86033 0.0
C620 C 0.40202 0.2055 0.85081 0.0
C621 C 0.4068 0.2342 0.86036 0.0
C622 C 0.41604 0.2407 0.87906 0.0
C623 C 0.42086 0.21843 0.88838 0.0
C624 C 0.41602 0.19013 0.87908 0.0
C625 C 0.42331 0.16991 0.89131 0.0
C626 C 0.43351 0.19094 0.90936 0.0
C627 C 0.43178 0.21921 0.9075 0.0
C628 C 0.4514 0.16674 0.88405 0.0
C629 C 0.39186 0.13709 0.89203 0.0
C630 C 0.45841 0.31616 0.95233 0.0
C631 C 0.47134 0.32462 0.97063 0.0
C632 C 0.47761 0.30308 0.97986 0.0
C633 C 0.47151 0.27366 0.97095 0.0
C634 C 0.45923 0.26575 0.95254 0.0
C635 C 0.45274 0.28673 0.94354 0.0
C636 C 0.44069 0.27461 0.92386 0.0
C637 C 0.44069 0.24269 0.92264 0.0
C638 C 0.45158 0.23778 0.93945 0.0
C639 C 0.46534 0.29939 0.91194 0.0
C640 C 0.40605 0.26917 0.9208 0.0
H641 H 0.43366 0.12146 0.91037 0.0
H642 H 0.48217 0.15818 0.97438 0.0
H643 H 0.42277 0.16919 0.97144 0.0
H644 H 0.43433 0.21038 0.9747 0.0
H645 H 0.45747 0.19584 0.98693 0.0
H646 H 0.51817 0.22093 0.95401 0.0
H647 H 0.51021 0.22217 0.9774 0.0
H648 H 0.50955 0.25057 0.96257 0.0
H649 H 0.40292 0.16084 0.85328 0.0
H650 H 0.40316 0.25159 0.85333 0.0
H651 H 0.41927 0.26297 0.8855 0.0
H652 H 0.47025 0.19036 0.87986 0.0
H653 H 0.44266 0.14848 0.87199 0.0
H654 H 0.46401 0.16011 0.89435 0.0
H655 H 0.37053 0.14051 0.89194 0.0
H656 H 0.39166 0.1257 0.90464 0.0
H657 H 0.38784 0.11979 0.88009 0.0
H658 H 0.44849 0.0878 0.92728 0.0
C659 C 0.44419 0.13017 0.92415 0.0
C660 C 0.69589 0.13612 0.95691 0.0
C661 C 0.67128 0.10608 0.94837 0.0
C662 C 0.67358 0.09712 0.93018 0.0
C663 C 0.72362 0.14819 0.92934 0.0
C664 C 0.72159 0.15655 0.94725 0.0
C665 C 0.749 0.1895 0.95445 0.0
H666 H 0.88413 0.32817 0.94056 0.0
C667 C 0.7529 0.17563 0.92313 0.0
C668 C 0.7678 0.19977 0.93791 0.0
H669 H 0.83519 0.30348 0.9896 0.0
H670 H 0.79588 0.25066 0.9749 0.0
H671 H 0.87748 0.25695 0.93024 0.0
H672 H 0.82379 0.30293 0.91455 0.0
H673 H 0.81999 0.27786 0.89518 0.0
H674 H 0.85955 0.31042 0.9042 0.0
H675 H 0.89171 0.28944 0.91582 0.0
H676 H 0.86729 0.24754 0.90662 0.0
C677 C 0.7685 0.18516 0.97036 0.0
C678 C 0.73472 0.21143 0.95969 0.0
C679 C 0.7815 0.17366 0.85748 0.0
C680 C 0.80621 0.19722 0.8482 0.0
C681 C 0.82934 0.22698 0.85781 0.0
C682 C 0.82794 0.23351 0.87628 0.0
C683 C 0.80296 0.21018 0.88537 0.0
C684 C 0.78017 0.18082 0.87606 0.0
C685 C 0.75487 0.15963 0.88811 0.0
C686 C 0.76647 0.18118 0.90609 0.0
C687 C 0.79474 0.21065 0.90428 0.0
C688 C 0.75648 0.12826 0.88954 0.0
C689 C 0.7217 0.15372 0.88007 0.0
C690 C 0.86521 0.31114 0.94818 0.0
C691 C 0.8627 0.3199 0.96624 0.0
C692 C 0.83741 0.29732 0.97561 0.0
C693 C 0.81465 0.26663 0.96705 0.0
C694 C 0.817 0.25844 0.94884 0.0
C695 C 0.84207 0.28049 0.93977 0.0
C696 C 0.84015 0.26803 0.92033 0.0
C697 C 0.80987 0.23478 0.91927 0.0
C698 C 0.7965 0.22932 0.93599 0.0
C699 C 0.87076 0.26547 0.91794 0.0
C700 C 0.83587 0.29094 0.90781 0.0
H701 H 0.69991 0.10982 0.90685 0.0
H702 H 0.69479 0.14416 0.97073 0.0
H703 H 0.71289 0.20506 0.95042 0.0
H704 H 0.75143 0.23739 0.95834 0.0
H705 H 0.72749 0.20867 0.97379 0.0
H706 H 0.76903 0.16222 0.96776 0.0
H707 H 0.75758 0.1841 0.98337 0.0
H708 H 0.79418 0.20446 0.97217 0.0
H709 H 0.76336 0.15061 0.85037 0.0
H710 H 0.84881 0.24525 0.851 0.0
H711 H 0.84637 0.25665 0.88272 0.0
H712 H 0.78202 0.13384 0.89075 0.0
H713 H 0.74381 0.11081 0.87727 0.0
H714 H 0.74624 0.11611 0.90176 0.0
H715 H 0.7241 0.17628 0.87504 0.0
H716 H 0.70387 0.14697 0.89019 0.0
H717 H 0.71156 0.13454 0.86843 0.0
H718 H 0.65524 0.07395 0.92329 0.0
C719 C 0.6996 0.11795 0.92065 0.0
C720 C 0.531 0.84769 0.04559 0.0
C721 C 0.53621 0.87715 0.05407 0.0
C722 C 0.55106 0.88738 0.07204 0.0
C723 C 0.55338 0.83777 0.07305 0.0
C724 C 0.53987 0.82862 0.0552 0.0
C725 C 0.53594 0.79677 0.04789 0.0
H726 H 0.54708 0.66408 0.06141 0.0
C727 C 0.5586 0.81162 0.07918 0.0
C728 C 0.54867 0.78778 0.06439 0.0
H729 H 0.51309 0.68688 0.01216 0.0
H730 H 0.52428 0.73809 0.02719 0.0
H731 H 0.60942 0.73774 0.07293 0.0
H732 H 0.51183 0.68502 0.08716 0.0
H733 H 0.53454 0.71036 0.1068 0.0
H734 H 0.54319 0.67977 0.09781 0.0
H735 H 0.5949 0.70413 0.08656 0.0
H736 H 0.61054 0.74512 0.09663 0.0
C737 C 0.55753 0.80297 0.03197 0.0
C738 C 0.49939 0.77277 0.04264 0.0
C739 C 0.59753 0.81502 0.14519 0.0
C740 C 0.60167 0.7925 0.15474 0.0
C741 C 0.59659 0.76364 0.14525 0.0
C742 C 0.58713 0.75699 0.12658 0.0
C743 C 0.5824 0.77929 0.11724 0.0
C744 C 0.58761 0.80779 0.12648 0.0
C745 C 0.58039 0.82803 0.11426 0.0
C746 C 0.56978 0.80679 0.09627 0.0
C747 C 0.57121 0.77839 0.09816 0.0
C748 C 0.61198 0.86066 0.11336 0.0
C749 C 0.55258 0.83158 0.12165 0.0
C750 C 0.54251 0.68039 0.05384 0.0
C751 C 0.52923 0.67159 0.03561 0.0
C752 C 0.52306 0.69311 0.02627 0.0
C753 C 0.52967 0.72287 0.03502 0.0
C754 C 0.54236 0.73111 0.05336 0.0
C755 C 0.54871 0.71011 0.06244 0.0
C756 C 0.56127 0.72253 0.08202 0.0
C757 C 0.56174 0.75466 0.08311 0.0
C758 C 0.55064 0.75944 0.06632 0.0
C759 C 0.59577 0.72753 0.08487 0.0
C760 C 0.53674 0.69824 0.09419 0.0
H761 H 0.57047 0.87647 0.09534 0.0
H762 H 0.52029 0.83965 0.03164 0.0
H763 H 0.48448 0.777 0.05226 0.0
H764 H 0.49253 0.74711 0.04339 0.0
H765 H 0.49179 0.77571 0.02875 0.0
H766 H 0.57955 0.8275 0.03416 0.0
H767 H 0.54435 0.80156 0.01881 0.0
H768 H 0.56691 0.78604 0.03069 0.0
H769 H 0.60117 0.83734 0.15221 0.0
H770 H 0.60013 0.74621 0.15231 0.0
H771 H 0.58363 0.73458 0.12018 0.0
H772 H 0.63321 0.85707 0.1136 0.0
H773 H 0.61613 0.8783 0.12513 0.0
H774 H 0.6123 0.87174 0.1006 0.0
H775 H 0.5338 0.80817 0.1261 0.0
H776 H 0.53974 0.83797 0.11136 0.0
H777 H 0.56166 0.85015 0.13357 0.0
H778 H 0.55545 0.91021 0.07873 0.0
C779 C 0.55961 0.86773 0.08162 0.0
C780 C 0.3057 0.86442 0.05199 0.0
C781 C 0.32986 0.8948 0.06035 0.0
C782 C 0.32716 0.90413 0.0784 0.0
C783 C 0.27711 0.85301 0.07927 0.0
C784 C 0.27983 0.84418 0.06158 0.0
C785 C 0.25285 0.81102 0.05446 0.0
H786 H 0.11628 0.67321 0.06718 0.0
C787 C 0.2474 0.8258 0.08531 0.0
C788 C 0.23323 0.80127 0.07069 0.0
H789 H 0.16958 0.69626 0.01966 0.0
H790 H 0.208 0.74929 0.03435 0.0
H791 H 0.1774 0.70199 0.09566 0.0
H792 H 0.12076 0.74193 0.07497 0.0
H793 H 0.13168 0.75692 0.09801 0.0
H794 H 0.10748 0.71364 0.09188 0.0
H795 H 0.13811 0.69056 0.10257 0.0
H796 H 0.1743 0.72451 0.11425 0.0
C797 C 0.26759 0.78912 0.05017 0.0
C798 C 0.234 0.81468 0.03792 0.0
C799 C 0.21307 0.83058 0.14941 0.0
C800 C 0.18588 0.80858 0.15788 0.0
C801 C 0.16301 0.77886 0.14808 0.0
C802 C 0.1667 0.77113 0.13021 0.0
C803 C 0.19364 0.79323 0.12184 0.0
C804 C 0.21632 0.82247 0.1313 0.0
C805 C 0.24296 0.84295 0.11973 0.0
C806 C 0.23248 0.82093 0.10194 0.0
C807 C 0.2036 0.79182 0.10344 0.0
C808 C 0.27528 0.84846 0.12889 0.0
C809 C 0.24233 0.87462 0.11737 0.0
C810 C 0.13605 0.6899 0.05991 0.0
C811 C 0.14001 0.68061 0.04228 0.0
C812 C 0.16627 0.7028 0.03333 0.0
C813 C 0.18852 0.73363 0.04189 0.0
C814 C 0.18465 0.74241 0.05966 0.0
C815 C 0.15872 0.72074 0.06835 0.0
C816 C 0.15899 0.734 0.08735 0.0
C817 C 0.18942 0.7672 0.08863 0.0
C818 C 0.20422 0.77194 0.07238 0.0
C819 C 0.16212 0.71167 0.10077 0.0
C820 C 0.12811 0.73664 0.08829 0.0
H821 H 0.3003 0.89183 0.10156 0.0
H822 H 0.30721 0.856 0.03835 0.0
H823 H 0.23283 0.83734 0.04008 0.0
H824 H 0.20851 0.79499 0.03569 0.0
H825 H 0.24587 0.81586 0.02526 0.0
H826 H 0.28978 0.79668 0.0594 0.0
H827 H 0.27436 0.79043 0.03598 0.0
H828 H 0.25132 0.76345 0.0524 0.0
H829 H 0.23099 0.85367 0.15658 0.0
H830 H 0.14222 0.76125 0.15435 0.0
H831 H 0.14833 0.74808 0.12364 0.0
H832 H 0.27209 0.82564 0.13397 0.0
H833 H 0.28435 0.86728 0.14069 0.0
H834 H 0.29423 0.85559 0.11945 0.0
H835 H 0.21701 0.86954 0.11533 0.0
H836 H 0.25374 0.88625 0.10525 0.0
H837 H 0.25438 0.89233 0.1296 0.0
H838 H 0.34529 0.9275 0.08518 0.0
C839 C 0.30094 0.88344 0.08788 0.0
C840 C 0.30197 0.43429 0.05436 0.0
C841 C 0.3279 0.43146 0.06187 0.0
C842 C 0.32706 0.42239 0.0798 0.0
C843 C 0.27608 0.42098 0.08256 0.0
C844 C 0.27665 0.42918 0.06488 0.0
C845 C 0.2483 0.43289 0.059 0.0
H846 H 0.12142 0.44781 0.08098 0.0
C847 C 0.24724 0.41943 0.09005 0.0
C848 C 0.2311 0.42663 0.07624 0.0
H849 H 0.15564 0.44863 0.02777 0.0
H850 H 0.19594 0.4379 0.04046 0.0
H851 H 0.1192 0.38359 0.0883 0.0
H852 H 0.18982 0.48288 0.10551 0.0
H853 H 0.18458 0.46063 0.12447 0.0
H854 H 0.15057 0.46172 0.11368 0.0
H855 H 0.1153 0.40471 0.10797 0.0
H856 H 0.13661 0.38247 0.1095 0.0
C857 C 0.22769 0.40646 0.04311 0.0
C858 C 0.26139 0.46822 0.05418 0.0
C859 C 0.22047 0.39086 0.15508 0.0
C860 C 0.19611 0.38981 0.16544 0.0
C861 C 0.17436 0.39852 0.15768 0.0
C862 C 0.17642 0.40777 0.13999 0.0
C863 C 0.20053 0.40845 0.12975 0.0
C864 C 0.22237 0.4005 0.1373 0.0
C865 C 0.24705 0.40401 0.12433 0.0
C866 C 0.23521 0.41362 0.10752 0.0
C867 C 0.20797 0.41623 0.11094 0.0
C868 C 0.24489 0.37074 0.12062 0.0
C869 C 0.28063 0.43149 0.13279 0.0
C870 C 0.13729 0.4455 0.07192 0.0
C871 C 0.13553 0.45022 0.05332 0.0
C872 C 0.15695 0.44661 0.04225 0.0
C873 C 0.18026 0.4399 0.0496 0.0
C874 C 0.18212 0.4361 0.06822 0.0
C875 C 0.16025 0.43794 0.07892 0.0
C876 C 0.16384 0.43 0.098 0.0
C877 C 0.1922 0.42419 0.09707 0.0
C878 C 0.20321 0.42851 0.07971 0.0
C879 C 0.13216 0.39875 0.10128 0.0
C880 C 0.17245 0.46018 0.11124 0.0
H881 H 0.30212 0.41029 0.10366 0.0
H882 H 0.30188 0.44155 0.04076 0.0
H883 H 0.28101 0.4857 0.06459 0.0
H884 H 0.24304 0.4757 0.05386 0.0
H885 H 0.27149 0.47161 0.04077 0.0
H886 H 0.23142 0.38524 0.04333 0.0
H887 H 0.23396 0.41614 0.02969 0.0
H888 H 0.20141 0.39606 0.04396 0.0
H889 H 0.23777 0.38464 0.16074 0.0
H890 H 0.15517 0.39757 0.16521 0.0
H891 H 0.15896 0.41391 0.13497 0.0
H892 H 0.2192 0.35098 0.11815 0.0
H893 H 0.25617 0.36539 0.13244 0.0
H894 H 0.2564 0.36915 0.10837 0.0
H895 H 0.27865 0.45128 0.14025 0.0
H896 H 0.29751 0.44347 0.12248 0.0
H897 H 0.29172 0.42224 0.14261 0.0
H898 H 0.34646 0.41957 0.08589 0.0
C899 C 0.3013 0.41703 0.09013 0.0
C900 C 0.51634 0.88472 0.28545 0.0
C901 C 0.54436 0.88795 0.27837 0.0
C902 C 0.55159 0.89932 0.26107 0.0
C903 C 0.50302 0.90315 0.25807 0.0
C904 C 0.49611 0.89237 0.2751 0.0
C905 C 0.46514 0.88976 0.28047 0.0
H906 H 0.333 0.90305 0.26052 0.0
C907 C 0.47674 0.90828 0.25075 0.0
C908 C 0.45446 0.90048 0.26378 0.0
H909 H 0.36136 0.87503 0.30974 0.0
H910 H 0.40928 0.88207 0.29724 0.0
H911 H 0.40649 0.96295 0.25515 0.0
H912 H 0.35474 0.86278 0.2319 0.0
H913 H 0.37336 0.88852 0.21483 0.0
H914 H 0.34232 0.89126 0.22616 0.0
H915 H 0.3711 0.94723 0.23932 0.0
H916 H 0.41049 0.96101 0.23162 0.0
C917 C 0.47336 0.9138 0.29765 0.0
C918 C 0.44134 0.85369 0.28305 0.0
C919 C 0.48214 0.9483 0.18837 0.0
C920 C 0.462 0.95536 0.17743 0.0
C921 C 0.43263 0.95004 0.18378 0.0
C922 C 0.42398 0.93862 0.20094 0.0
C923 C 0.44482 0.93229 0.21185 0.0
C924 C 0.4732 0.93693 0.20534 0.0
C925 C 0.49239 0.92857 0.21836 0.0
C926 C 0.47126 0.91859 0.23398 0.0
C927 C 0.44334 0.92078 0.23024 0.0
C928 C 0.52549 0.95972 0.22396 0.0
C929 C 0.49454 0.89976 0.20909 0.0
C930 C 0.34956 0.89835 0.26852 0.0
C931 C 0.34341 0.88872 0.28626 0.0
C932 C 0.3657 0.88304 0.29623 0.0
C933 C 0.39352 0.88693 0.28887 0.0
C934 C 0.39948 0.89666 0.27126 0.0
C935 C 0.37785 0.90238 0.26134 0.0
C936 C 0.38896 0.9132 0.24293 0.0
C937 C 0.42062 0.91284 0.24352 0.0
C938 C 0.42639 0.90294 0.26018 0.0
C939 C 0.39443 0.94786 0.24203 0.0
C940 C 0.36354 0.88784 0.22806 0.0
H941 H 0.53806 0.91537 0.23786 0.0
H942 H 0.50986 0.87576 0.29861 0.0
H943 H 0.44395 0.83721 0.27287 0.0
H944 H 0.41572 0.84701 0.28086 0.0
H945 H 0.44596 0.84777 0.2968 0.0
H946 H 0.49802 0.93531 0.29783 0.0
H947 H 0.47257 0.90209 0.31031 0.0
H948 H 0.45725 0.92415 0.29816 0.0
H949 H 0.50451 0.95139 0.18379 0.0
H950 H 0.41664 0.95529 0.17563 0.0
H951 H 0.4015 0.93532 0.2051 0.0
H952 H 0.52287 0.98164 0.22495 0.0
H953 H 0.54296 0.96324 0.21381 0.0
H954 H 0.53626 0.95981 0.23756 0.0
H955 H 0.47239 0.88343 0.19984 0.0
H956 H 0.49603 0.88384 0.2189 0.0
H957 H 0.5155 0.90849 0.20084 0.0
H958 H 0.57326 0.90254 0.25539 0.0
C959 C 0.53115 0.90691 0.25092 0.0
C960 C 0.13418 0.48282 0.29394 0.0
C961 C 0.12907 0.45338 0.28551 0.0
C962 C 0.11439 0.44316 0.26751 0.0
C963 C 0.11202 0.49277 0.2664 0.0
C964 C 0.12539 0.50188 0.28427 0.0
C965 C 0.12928 0.53368 0.2916 0.0
H966 H 0.11869 0.6667 0.2785 0.0
C967 C 0.10677 0.51895 0.26027 0.0
C968 C 0.11662 0.54272 0.2751 0.0
H969 H 0.1525 0.64315 0.32753 0.0
H970 H 0.14094 0.59199 0.31236 0.0
H971 H 0.15362 0.64534 0.25247 0.0
H972 H 0.05603 0.59303 0.26681 0.0
H973 H 0.05484 0.58569 0.2431 0.0
H974 H 0.07059 0.62668 0.25321 0.0
H975 H 0.12246 0.65124 0.24215 0.0
H976 H 0.13054 0.62047 0.23278 0.0
C977 C 0.16583 0.55768 0.29689 0.0
C978 C 0.10758 0.52739 0.30748 0.0
C979 C 0.06786 0.5159 0.19427 0.0
C980 C 0.06364 0.53844 0.18477 0.0
C981 C 0.0686 0.5672 0.19435 0.0
C982 C 0.07805 0.57374 0.21303 0.0
C983 C 0.0829 0.55144 0.22229 0.0
C984 C 0.07775 0.52302 0.21299 0.0
C985 C 0.08502 0.50274 0.22517 0.0
C986 C 0.09559 0.52387 0.2432 0.0
C987 C 0.09411 0.55227 0.24137 0.0
C988 C 0.11284 0.49925 0.21776 0.0
C989 C 0.05346 0.47007 0.22603 0.0
C990 C 0.12315 0.65022 0.28597 0.0
C991 C 0.13654 0.65883 0.3042 0.0
C992 C 0.14249 0.63708 0.31343 0.0
C993 C 0.13566 0.60734 0.30459 0.0
C994 C 0.12296 0.5993 0.28625 0.0
C995 C 0.11673 0.62047 0.27727 0.0
C996 C 0.10412 0.60814 0.25767 0.0
C997 C 0.10356 0.57595 0.25647 0.0
C998 C 0.11463 0.57105 0.27323 0.0
C999 C 0.12866 0.63249 0.24552 0.0
C1000 C 0.06966 0.60325 0.25487 0.0
H1001 H 0.09518 0.45411 0.2441 0.0
H1002 H 0.14474 0.49087 0.30792 0.0
H1003 H 0.08566 0.50279 0.30531 0.0
H1004 H 0.09802 0.54418 0.30869 0.0
H1005 H 0.12075 0.52895 0.32067 0.0
H1006 H 0.18081 0.55326 0.28741 0.0
H1007 H 0.1733 0.55494 0.31086 0.0
H1008 H 0.17278 0.58332 0.29596 0.0
H1009 H 0.06431 0.49366 0.1872 0.0
H1010 H 0.065 0.58464 0.18734 0.0
H1011 H 0.08147 0.59608 0.21948 0.0
H1012 H 0.13169 0.52274 0.21343 0.0
H1013 H 0.1038 0.48085 0.20576 0.0
H1014 H 0.12555 0.49265 0.22801 0.0
H1015 H 0.03226 0.4737 0.22604 0.0
H1016 H 0.05333 0.45872 0.23864 0.0
H1017 H 0.04915 0.45265 0.2141 0.0
H1018 H 0.11006 0.42033 0.26085 0.0
C1019 C 0.10592 0.46283 0.25785 0.0
C1020 C 0.36228 0.47015 0.29071 0.0
C1021 C 0.33437 0.44322 0.28167 0.0
C1022 C 0.33379 0.43653 0.26267 0.0
C1023 C 0.38742 0.48359 0.26237 0.0
C1024 C 0.38772 0.49025 0.28085 0.0
C1025 C 0.41651 0.522 0.28837 0.0
H1026 H 0.55235 0.65973 0.27486 0.0
C1027 C 0.41751 0.51017 0.2563 0.0
C1028 C 0.43419 0.53291 0.27152 0.0
H1029 H 0.50347 0.63453 0.3239 0.0
H1030 H 0.46433 0.58175 0.30911 0.0
H1031 H 0.54812 0.59249 0.26538 0.0
H1032 H 0.4891 0.63149 0.24744 0.0
H1033 H 0.49418 0.61181 0.22811 0.0
H1034 H 0.52915 0.64505 0.24104 0.0
H1035 H 0.55817 0.61777 0.24702 0.0
H1036 H 0.53273 0.57414 0.24312 0.0
C1037 C 0.43618 0.51515 0.30297 0.0
C1038 C 0.40433 0.54495 0.29549 0.0
C1039 C 0.44913 0.50537 0.19155 0.0
C1040 C 0.47711 0.52619 0.18326 0.0
C1041 C 0.50107 0.55523 0.19319 0.0
C1042 C 0.49784 0.56325 0.21109 0.0
C1043 C 0.47029 0.54212 0.21935 0.0
C1044 C 0.44638 0.51371 0.2097 0.0
C1045 C 0.41903 0.49438 0.22115 0.0
C1046 C 0.43124 0.51546 0.2393 0.0
C1047 C 0.4611 0.54356 0.23793 0.0
C1048 C 0.41609 0.46086 0.2226 0.0
C1049 C 0.38804 0.49257 0.21244 0.0
C1050 C 0.53334 0.64265 0.28241 0.0
C1051 C 0.53073 0.65126 0.30048 0.0
C1052 C 0.50561 0.62852 0.30987 0.0
C1053 C 0.48288 0.59792 0.30124 0.0
C1054 C 0.485 0.59007 0.28293 0.0
C1055 C 0.51014 0.6121 0.2739 0.0
C1056 C 0.5083 0.59962 0.25447 0.0
C1057 C 0.47723 0.56696 0.25317 0.0
C1058 C 0.46386 0.56154 0.26987 0.0
C1059 C 0.53837 0.59594 0.25221 0.0
C1060 C 0.50523 0.62316 0.24199 0.0
H1061 H 0.35822 0.4501 0.23867 0.0
H1062 H 0.36445 0.4762 0.30524 0.0
H1063 H 0.37999 0.53774 0.28888 0.0
H1064 H 0.41979 0.57028 0.29231 0.0
H1065 H 0.40254 0.54472 0.31041 0.0
H1066 H 0.43743 0.4932 0.29839 0.0
H1067 H 0.4248 0.51078 0.316 0.0
H1068 H 0.46155 0.53497 0.30563 0.0
H1069 H 0.43028 0.48292 0.18422 0.0
H1070 H 0.52247 0.57199 0.18702 0.0
H1071 H 0.51706 0.58569 0.21778 0.0
H1072 H 0.44031 0.4637 0.22603 0.0
H1073 H 0.40563 0.44531 0.20949 0.0
H1074 H 0.40114 0.4477 0.23339 0.0
H1075 H 0.39382 0.51555 0.2065 0.0
H1076 H 0.37071 0.48962 0.22246 0.0
H1077 H 0.37585 0.47245 0.20135 0.0
H1078 H 0.31265 0.41649 0.25504 0.0
C1079 C 0.36022 0.45634 0.25305 0.0
C1080 C 0.54296 0.03502 0.05645 0.0
Eu1081 Eu 0.52021 0.01865 0.02231 0.0
C1082 C 0.5302 0.02338 0.07394 0.0
C1083 C 0.54021 0.04555 0.08949 0.0
C1084 C 0.52802 0.03512 0.10612 0.0
C1085 C 0.50544 0.00224 0.10756 0.0
C1086 C 0.49516 0.98011 0.09185 0.0
C1087 C 0.50747 0.99057 0.07521 0.0
C1088 C 0.50282 0.05153 1.0003 0.0
C1089 C 0.44189 0.96738 0.02078 0.0
C1090 C 0.45772 0.9634 0.95186 0.0
Eu1091 Eu 0.48073 0.98049 0.98595 0.0
C1092 C 0.46959 0.97457 0.93415 0.0
C1093 C 0.45913 0.95189 0.91881 0.0
C1094 C 0.46972 0.96189 0.90183 0.0
C1095 C 0.49105 0.99486 0.8998 0.0
C1096 C 0.5021 0.01748 0.91533 0.0
C1097 C 0.49144 0.00743 0.93234 0.0
C1098 C 0.49816 0.94768 0.00801 0.0
C1099 C 0.559 0.03219 0.98753 0.0
O1100 O 0.54782 0.0154 0.04567 0.0
O1101 O 0.52974 0.04915 0.04767 0.0
O1102 O 0.52996 0.06508 0.01059 0.0
O1103 O 0.48544 0.02217 1.00302 0.0
O1104 O 0.47058 0.98238 0.03025 0.0
O1105 O 0.43872 0.96634 1.00281 0.0
O1106 O 0.45257 0.98288 0.96258 0.0
O1107 O 0.47174 0.95002 0.96066 0.0
O1108 O 0.47094 0.93413 0.9978 0.0
O1109 O 0.51551 0.97699 0.00519 0.0
O1110 O 0.53029 0.01719 0.97805 0.0
O1111 O 0.56219 0.03296 0.00547 0.0
H1112 H 0.55748 0.07101 0.08876 0.0
H1113 H 0.53614 0.05292 0.11785 0.0
H1114 H 0.47808 0.95458 0.09247 0.0
H1115 H 0.49927 0.97299 0.06336 0.0
H1116 H 0.44256 0.92639 0.91994 0.0
H1117 H 0.46109 0.94374 0.89024 0.0
H1118 H 0.51827 0.04307 0.91427 0.0
H1119 H 0.5 0.02538 0.94404 0.0
C1120 C 0.9835 0.5209 0.0543 0.0
Eu1121 Eu 0.99005 0.50558 0.02104 0.0
C1122 C 0.99645 0.52077 0.07277 0.0
C1123 C 0.97546 0.50986 0.08652 0.0
C1124 C 0.98722 0.51006 0.10425 0.0
C1125 C 0.02026 0.5214 0.10855 0.0
C1126 C 0.04118 0.53177 0.09467 0.0
C1127 C 0.02935 0.53129 0.07689 0.0
C1128 C 0.95013 0.44851 1.00125 0.0
C1129 C 0.04269 0.48061 0.02034 0.0
C1130 C 0.02174 0.48224 0.95228 0.0
Eu1131 Eu 0.01408 0.4962 0.98551 0.0
C1132 C 0.00734 0.48045 0.93393 0.0
C1133 C 0.02736 0.49107 0.91975 0.0
C1134 C 0.01439 0.48996 0.9022 0.0
C1135 C 0.9811 0.47806 0.89855 0.0
C1136 C 0.96111 0.46778 0.91285 0.0
C1137 C 0.97416 0.46912 0.93046 0.0
C1138 C 0.05371 0.55318 0.0056 0.0
C1139 C 0.96152 0.52068 0.98571 0.0
O1140 O 0.00363 0.54192 0.04405 0.0
O1141 O 0.96441 0.49242 0.04543 0.0
O1142 O 0.94023 0.46523 0.01054 0.0
O1143 O 0.98053 0.46178 0.00336 0.0
O1144 O 0.02928 0.49411 0.03008 0.0
O1145 O 0.03745 0.47512 1.00249 0.0
O1146 O 0.0036 0.46025 0.96276 0.0
O1147 O 0.03836 0.51133 0.96087 0.0
O1148 O 0.06384 0.53658 0.99641 0.0
O1149 O 0.02338 0.53984 1.00316 0.0
O1150 O 0.97336 0.50501 0.97653 0.0
O1151 O 0.96816 0.52804 0.00351 0.0
H1152 H 0.94999 0.50152 0.08357 0.0
H1153 H 0.97063 0.50227 0.11471 0.0
H1154 H 0.0667 0.54035 0.09759 0.0
H1155 H 0.04595 0.53942 0.06643 0.0
H1156 H 0.05305 0.50007 0.92224 0.0
H1157 H 0.03027 0.49766 0.89139 0.0
H1158 H 0.93542 0.45874 0.91042 0.0
H1159 H 0.95835 0.46123 0.9413 0.0
C1160 C 0.45625 0.46379 0.95218 0.0
Eu1161 Eu 0.47892 0.48647 0.98588 0.0
C1162 C 0.46943 0.46938 0.93419 0.0
C1163 C 0.45873 0.48345 0.92143 0.0
C1164 C 0.46997 0.48795 0.90416 0.0
C1165 C 0.49197 0.47814 0.89912 0.0
C1166 C 0.50331 0.46479 0.91209 0.0
C1167 C 0.4922 0.46048 0.92943 0.0
C1168 C 0.49495 0.54594 1.00094 0.0
C1169 C 0.55854 0.52182 0.9879 0.0
C1170 C 0.54247 0.53022 0.0563 0.0
Eu1171 Eu 0.51955 0.50756 0.02267 0.0
C1172 C 0.52914 0.52464 0.07422 0.0
C1173 C 0.539 0.50968 0.08684 0.0
C1174 C 0.52742 0.50495 0.10401 0.0
C1175 C 0.50595 0.51544 0.10908 0.0
C1176 C 0.49547 0.52972 0.09626 0.0
C1177 C 0.50691 0.53425 0.07902 0.0
C1178 C 0.50368 0.44822 0.00738 0.0
C1179 C 0.44023 0.47206 0.02106 0.0
O1180 O 0.46591 0.44935 0.96334 0.0
O1181 O 0.45425 0.48762 0.96049 0.0
O1182 O 0.46742 0.52642 0.99168 0.0
O1183 O 0.51328 0.53412 1.00095 0.0
O1184 O 0.53013 0.50243 0.97855 0.0
O1185 O 0.5608 0.53145 0.00533 0.0
O1186 O 0.53305 0.54489 0.04514 0.0
O1187 O 0.5442 0.50623 0.04799 0.0
O1188 O 0.53123 0.46775 0.01663 0.0
O1189 O 0.48531 0.45998 0.00755 0.0
O1190 O 0.46876 0.49161 0.03016 0.0
O1191 O 0.43753 0.46263 0.00351 0.0
H1192 H 0.44133 0.4907 0.92474 0.0
H1193 H 0.4611 0.49883 0.89467 0.0
H1194 H 0.51994 0.4566 0.90867 0.0
H1195 H 0.5011 0.44968 0.93896 0.0
H1196 H 0.55596 0.50187 0.08348 0.0
H1197 H 0.53562 0.49339 0.1134 0.0
H1198 H 0.4793 0.53846 0.09974 0.0
H1199 H 0.49867 0.54574 0.0696 0.0
C1200 C 0.20594 0.3687 0.39013 0.0
Eu1201 Eu 0.18392 0.35261 0.35592 0.0
C1202 C 0.19323 0.35684 0.40763 0.0
C1203 C 0.16197 0.34952 0.41138 0.0
C1204 C 0.15051 0.3385 0.42809 0.0
C1205 C 0.17005 0.33453 0.4414 0.0
C1206 C 0.20114 0.34143 0.43742 0.0
C1207 C 0.21258 0.35251 0.42075 0.0
C1208 C 0.1658 0.38451 0.3336 0.0
C1209 C 0.10604 0.29924 0.35387 0.0
C1210 C 0.12429 0.29866 0.2849 0.0
Eu1211 Eu 0.14571 0.3139 0.31924 0.0
C1212 C 0.13786 0.31284 0.26803 0.0
C1213 C 0.12873 0.29295 0.25159 0.0
C1214 C 0.14149 0.30617 0.23551 0.0
C1215 C 0.16366 0.33962 0.23558 0.0
C1216 C 0.17312 0.35937 0.2522 0.0
C1217 C 0.1604 0.34613 0.26826 0.0
C1218 C 0.16414 0.28208 0.34142 0.0
C1219 C 0.22378 0.36743 0.32157 0.0
O1220 O 0.2113 0.34931 0.37948 0.0
O1221 O 0.19283 0.38282 0.38119 0.0
O1222 O 0.19252 0.39871 0.34429 0.0
O1223 O 0.14899 0.355 0.33621 0.0
O1224 O 0.13451 0.31551 0.36353 0.0
O1225 O 0.10309 0.29769 0.33587 0.0
O1226 O 0.11724 0.31616 0.29601 0.0
O1227 O 0.13861 0.28531 0.29345 0.0
O1228 O 0.13727 0.2678 0.33082 0.0
O1229 O 0.18082 0.31162 0.33881 0.0
O1230 O 0.19561 0.35043 0.31168 0.0
O1231 O 0.22659 0.36974 0.33955 0.0
H1232 H 0.14639 0.35243 0.40144 0.0
H1233 H 0.12656 0.33366 0.43067 0.0
H1234 H 0.21665 0.33803 0.44715 0.0
H1235 H 0.23663 0.35768 0.4181 0.0
H1236 H 0.11151 0.2672 0.25114 0.0
H1237 H 0.13334 0.29031 0.22294 0.0
H1238 H 0.19041 0.38512 0.25282 0.0
H1239 H 0.16806 0.36196 0.28083 0.0
C1240 C 0.65283 0.85552 0.38684 0.0
Eu1241 Eu 0.65754 0.83863 0.35352 0.0
C1242 C 0.6664 0.85559 0.40516 0.0
C1243 C 0.64597 0.84511 0.41918 0.0
C1244 C 0.65824 0.8452 0.43675 0.0
C1245 C 0.69125 0.85598 0.44061 0.0
C1246 C 0.71163 0.86599 0.42647 0.0
C1247 C 0.69928 0.86563 0.40885 0.0
C1248 C 0.61709 0.78028 0.33506 0.0
C1249 C 0.70885 0.81214 0.35264 0.0
C1250 C 0.68441 0.80972 0.28439 0.0
Eu1251 Eu 0.67929 0.82638 0.31766 0.0
C1252 C 0.67101 0.80984 0.26607 0.0
C1253 C 0.69149 0.8202 0.25208 0.0
C1254 C 0.67932 0.82022 0.2345 0.0
C1255 C 0.64636 0.80967 0.23062 0.0
C1256 C 0.62595 0.79984 0.24475 0.0
C1257 C 0.63821 0.80007 0.26237 0.0
C1258 C 0.71984 0.88449 0.33642 0.0
C1259 C 0.62773 0.85234 0.31819 0.0
O1260 O 0.6727 0.87587 0.37621 0.0
O1261 O 0.63294 0.82695 0.3783 0.0
O1262 O 0.60736 0.79744 0.34407 0.0
O1263 O 0.64747 0.7939 0.33674 0.0
O1264 O 0.69803 0.82866 0.36206 0.0
O1265 O 0.70079 0.80384 0.33501 0.0
O1266 O 0.66438 0.78928 0.29492 0.0
O1267 O 0.70427 0.83824 0.29301 0.0
O1268 O 0.72955 0.86728 0.32743 0.0
O1269 O 0.68949 0.87106 0.3345 0.0
O1270 O 0.639 0.83608 0.30899 0.0
O1271 O 0.6351 0.8604 0.33591 0.0
H1272 H 0.62052 0.83714 0.41656 0.0
H1273 H 0.64207 0.83771 0.44743 0.0
H1274 H 0.73712 0.87417 0.42907 0.0
H1275 H 0.71545 0.87341 0.39817 0.0
H1276 H 0.71689 0.82798 0.25471 0.0
H1277 H 0.6955 0.82757 0.22383 0.0
H1278 H 0.6005 0.79185 0.24215 0.0
H1279 H 0.622 0.79238 0.27304 0.0
C1280 C 0.12443 0.801 0.28609 0.0
Eu1281 Eu 0.14792 0.82305 0.31976 0.0
C1282 C 0.13698 0.80717 0.26797 0.0
C1283 C 0.12475 0.82026 0.25542 0.0
C1284 C 0.13542 0.82531 0.23803 0.0
C1285 C 0.15836 0.81705 0.23267 0.0
C1286 C 0.1712 0.80468 0.24543 0.0
C1287 C 0.16067 0.79982 0.26289 0.0
C1288 C 0.16472 0.8825 0.33523 0.0
C1289 C 0.22742 0.85761 0.3214 0.0
C1290 C 0.2119 0.86465 0.39008 0.0
Eu1291 Eu 0.18877 0.843 0.35636 0.0
C1292 C 0.1985 0.85898 0.40799 0.0
C1293 C 0.20853 0.84423 0.42065 0.0
C1294 C 0.19686 0.8394 0.43781 0.0
C1295 C 0.17509 0.84953 0.44282 0.0
C1296 C 0.16443 0.86358 0.42994 0.0
C1297 C 0.17597 0.86824 0.41272 0.0
C1298 C 0.17195 0.78364 0.34061 0.0
C1299 C 0.10964 0.80861 0.35504 0.0
O1300 O 0.13475 0.78654 0.29685 0.0
O1301 O 0.12237 0.82448 0.29481 0.0
O1302 O 0.1371 0.86334 0.32596 0.0
O1303 O 0.18281 0.8704 0.33501 0.0
O1304 O 0.19887 0.83875 0.31207 0.0
O1305 O 0.22998 0.86677 0.33893 0.0
O1306 O 0.20317 0.88008 0.37911 0.0
O1307 O 0.2129 0.8404 0.38155 0.0
O1308 O 0.19969 0.8028 0.34978 0.0
O1309 O 0.15391 0.79576 0.34109 0.0
O1310 O 0.13829 0.82786 0.36409 0.0
O1311 O 0.10672 0.79925 0.33748 0.0
H1312 H 0.10663 0.82632 0.25901 0.0
H1313 H 0.12538 0.83541 0.22871 0.0
H1314 H 0.1886 0.79767 0.24175 0.0
H1315 H 0.17074 0.78982 0.27226 0.0
H1316 H 0.22569 0.83667 0.41734 0.0
H1317 H 0.2052 0.82799 0.44723 0.0
H1318 H 0.14801 0.87205 0.43336 0.0
H1319 H 0.16755 0.87952 0.40325 0.0
C1320 C 0.87097 0.70083 0.72351 0.0
Eu1321 Eu 0.85069 0.68471 0.68907 0.0
C1322 C 0.85752 0.68724 0.74052 0.0
C1323 C 0.86401 0.70816 0.75628 0.0
C1324 C 0.85106 0.69572 0.77245 0.0
C1325 C 0.83141 0.66202 0.7732 0.0
C1326 C 0.82477 0.64111 0.75731 0.0
C1327 C 0.83757 0.6536 0.74111 0.0
C1328 C 0.83433 0.71627 0.66557 0.0
C1329 C 0.77282 0.63076 0.68587 0.0
C1330 C 0.79427 0.62897 0.6177 0.0
Eu1331 Eu 0.81463 0.64514 0.65213 0.0
C1332 C 0.8073 0.64327 0.60078 0.0
C1333 C 0.79868 0.62324 0.58442 0.0
C1334 C 0.81079 0.63654 0.56826 0.0
C1335 C 0.83176 0.6702 0.56815 0.0
C1336 C 0.84075 0.69012 0.58469 0.0
C1337 C 0.82871 0.67678 0.60085 0.0
C1338 C 0.83115 0.61367 0.67561 0.0
C1339 C 0.89254 0.69917 0.65541 0.0
O1340 O 0.87884 0.68348 0.71281 0.0
O1341 O 0.85622 0.71335 0.71454 0.0
O1342 O 0.86021 0.73064 0.67695 0.0
O1343 O 0.81712 0.68678 0.66818 0.0
O1344 O 0.80041 0.64874 0.69613 0.0
O1345 O 0.77101 0.62736 0.66788 0.0
O1346 O 0.78563 0.64545 0.62854 0.0
O1347 O 0.81002 0.6173 0.62651 0.0
O1348 O 0.80524 0.59923 0.66426 0.0
O1349 O 0.84825 0.64313 0.67295 0.0
O1350 O 0.86491 0.68141 0.64513 0.0
O1351 O 0.89435 0.70231 0.6734 0.0
H1352 H 0.87919 0.73418 0.75608 0.0
H1353 H 0.85695 0.71247 0.78446 0.0
H1354 H 0.80944 0.61509 0.75735 0.0
H1355 H 0.83186 0.63695 0.72906 0.0
H1356 H 0.78232 0.59731 0.58411 0.0
H1357 H 0.80303 0.62055 0.55576 0.0
H1358 H 0.85713 0.71606 0.58516 0.0
H1359 H 0.83599 0.69269 0.61337 0.0
C1360 C 0.31944 0.18873 0.72101 0.0
Eu1361 Eu 0.32343 0.17143 0.68763 0.0
C1362 C 0.33286 0.18843 0.73933 0.0
C1363 C 0.31232 0.17771 0.75329 0.0
C1364 C 0.32449 0.17769 0.77087 0.0
C1365 C 0.35753 0.18863 0.77482 0.0
C1366 C 0.378 0.19882 0.76073 0.0
C1367 C 0.36575 0.19856 0.74309 0.0
C1368 C 0.28364 0.11255 0.66959 0.0
C1369 C 0.37576 0.14619 0.68645 0.0
C1370 C 0.34915 0.14208 0.61824 0.0
Eu1371 Eu 0.34482 0.15916 0.65157 0.0
C1372 C 0.3362 0.14315 0.59997 0.0
C1373 C 0.35699 0.15395 0.58612 0.0
C1374 C 0.34521 0.15475 0.56859 0.0
C1375 C 0.31235 0.14455 0.5646 0.0
C1376 C 0.29167 0.13433 0.57859 0.0
C1377 C 0.30352 0.13377 0.59616 0.0
C1378 C 0.38443 0.21805 0.66978 0.0
C1379 C 0.29259 0.18429 0.65234 0.0
O1380 O 0.33957 0.20876 0.71036 0.0
O1381 O 0.29892 0.16035 0.71247 0.0
O1382 O 0.27354 0.12932 0.67865 0.0
O1383 O 0.31407 0.1268 0.67104 0.0
O1384 O 0.36465 0.16238 0.69592 0.0
O1385 O 0.36741 0.13759 0.66886 0.0
O1386 O 0.32853 0.12208 0.6287 0.0
O1387 O 0.37001 0.17017 0.62697 0.0
O1388 O 0.39471 0.20137 0.66079 0.0
O1389 O 0.35403 0.20369 0.66813 0.0
O1390 O 0.30407 0.16831 0.64308 0.0
O1391 O 0.3001 0.19246 0.67006 0.0
H1392 H 0.28686 0.16968 0.75063 0.0
H1393 H 0.30824 0.17006 0.78151 0.0
H1394 H 0.40351 0.20711 0.76338 0.0
H1395 H 0.38203 0.20655 0.73248 0.0
H1396 H 0.3823 0.16142 0.58883 0.0
H1397 H 0.3616 0.16237 0.55802 0.0
H1398 H 0.26629 0.12659 0.5759 0.0
H1399 H 0.28707 0.12573 0.60669 0.0
C1400 C 0.78973 0.1329 0.6191 0.0
Eu1401 Eu 0.81287 0.15397 0.65292 0.0
C1402 C 0.80377 0.13527 0.60152 0.0
C1403 C 0.79204 0.14468 0.58665 0.0
C1404 C 0.80495 0.1471 0.56989 0.0
C1405 C 0.82978 0.13997 0.56761 0.0
C1406 C 0.84184 0.13101 0.58261 0.0
C1407 C 0.82906 0.12878 0.59941 0.0
C1408 C 0.82766 0.21213 0.66937 0.0
C1409 C 0.8924 0.18882 0.65472 0.0
C1410 C 0.87725 0.19452 0.72333 0.0
Eu1411 Eu 0.85381 0.17352 0.68959 0.0
C1412 C 0.86307 0.19218 0.74083 0.0
C1413 C 0.87468 0.18284 0.75577 0.0
C1414 C 0.86142 0.18022 0.77242 0.0
C1415 C 0.83634 0.18705 0.77448 0.0
C1416 C 0.82441 0.19594 0.7594 0.0
C1417 C 0.83758 0.19841 0.74273 0.0
C1418 C 0.83909 0.11545 0.67291 0.0
C1419 C 0.77461 0.13896 0.6882 0.0
O1420 O 0.79403 0.11532 0.63067 0.0
O1421 O 0.79338 0.15992 0.62697 0.0
O1422 O 0.8001 0.19254 0.66012 0.0
O1423 O 0.84659 0.20102 0.66875 0.0
O1424 O 0.86391 0.16968 0.6454 0.0
O1425 O 0.89494 0.19774 0.67228 0.0
O1426 O 0.87317 0.21226 0.71178 0.0
O1427 O 0.87332 0.16737 0.71546 0.0
O1428 O 0.8667 0.13506 0.68211 0.0
O1429 O 0.82016 0.12653 0.67373 0.0
O1430 O 0.80327 0.15807 0.69727 0.0
O1431 O 0.77155 0.13017 0.67053 0.0
H1432 H 0.77266 0.14993 0.58798 0.0
H1433 H 0.79483 0.15366 0.55855 0.0
H1434 H 0.86117 0.12567 0.58135 0.0
H1435 H 0.83889 0.12186 0.6107 0.0
H1436 H 0.89421 0.17776 0.75458 0.0
H1437 H 0.87143 0.17373 0.78383 0.0
H1438 H 0.8049 0.20105 0.7605 0.0
H1439 H 0.82782 0.20524 0.73135 0.0
C1440 C 0.35461 0.91736 0.03153 0.0
C1441 C 0.35827 0.91567 0.05042 0.0
H1442 H 0.3779 0.93483 0.00733 0.0
C1443 C 0.38954 0.93242 0.05949 0.0
H1444 H 0.33083 0.90521 0.02412 0.0
C1445 C 0.41645 0.94961 0.04988 0.0
C1446 C 0.41289 0.95045 0.03091 0.0
H1447 H 0.39339 0.93139 0.07395 0.0
H1448 H 0.44014 0.96171 0.05736 0.0
C1449 C 0.38159 0.93446 0.02188 0.0
C1450 C 0.08171 0.44855 0.05256 0.0
C1451 C 0.11167 0.45878 0.04539 0.0
H1452 H 0.03654 0.4481 0.05046 0.0
C1453 C 0.11865 0.47725 0.03034 0.0
H1454 H 0.07497 0.43389 0.06391 0.0
C1455 C 0.09601 0.48404 0.02226 0.0
C1456 C 0.06629 0.47364 0.02939 0.0
H1457 H 0.14171 0.48675 0.02473 0.0
H1458 H 0.10196 0.4979 0.01054 0.0
C1459 C 0.05946 0.4564 0.0448 0.0
C1460 C 0.49039 0.61997 0.01674 0.0
C1461 C 0.5208 0.63961 0.02651 0.0
H1462 H 0.4583 0.57466 1.00112 0.0
C1463 C 0.54282 0.62836 0.02769 0.0
H1464 H 0.47287 0.62799 0.0158 0.0
C1465 C 0.53458 0.59797 0.01918 0.0
C1466 C 0.50403 0.57822 0.00961 0.0
H1467 H 0.56651 0.6432 0.03503 0.0
H1468 H 0.55209 0.58994 0.02012 0.0
C1469 C 0.48203 0.58947 0.00842 0.0
C1470 C 0.87355 0.37072 0.98433 0.0
C1471 C 0.88543 0.35295 0.97504 0.0
H1472 H 0.88477 0.41505 0.99965 0.0
C1473 C 0.91893 0.36708 0.97411 0.0
H1474 H 0.84781 0.3606 0.98502 0.0
C1475 C 0.94018 0.39826 0.9826 0.0
C1476 C 0.92818 0.41591 0.99193 0.0
H1477 H 0.92869 0.3538 0.96707 0.0
H1478 H 0.96593 0.40844 0.98197 0.0
C1479 C 0.89469 0.40194 0.9926 0.0
C1480 C 0.61507 0.53064 0.95162 0.0
C1481 C 0.64553 0.54844 0.96162 0.0
H1482 H 0.56374 0.50813 0.95203 0.0
C1483 C 0.64715 0.5592 0.97999 0.0
H1484 H 0.61297 0.52183 0.93749 0.0
C1485 C 0.619 0.5513 0.98836 0.0
C1486 C 0.58846 0.53238 0.9786 0.0
H1487 H 0.67027 0.5734 0.988 0.0
H1488 H 0.62125 0.55948 1.00263 0.0
C1489 C 0.58684 0.52262 0.96002 0.0
C1490 C 0.50828 0.11635 0.97149 0.0
C1491 C 0.47703 0.10138 0.96245 0.0
H1492 H 0.54091 0.11213 0.99049 0.0
C1493 C 0.45468 0.06918 0.96518 0.0
H1494 H 0.52593 0.14119 0.96954 0.0
C1495 C 0.46309 0.05272 0.97742 0.0
C1496 C 0.49409 0.06809 0.98684 0.0
H1497 H 0.43032 0.05734 0.95853 0.0
H1498 H 0.44506 0.02837 0.97991 0.0
C1499 C 0.51677 0.09982 0.98352 0.0
C1500 C 0.61151 0.06894 0.94913 0.0
C1501 C 0.64278 0.08514 0.95822 0.0
H1502 H 0.56083 0.03972 0.95115 0.0
C1503 C 0.64636 0.08264 0.977 0.0
H1504 H 0.60771 0.07065 0.93475 0.0
C1505 C 0.6193 0.06515 0.98653 0.0
C1506 C 0.58802 0.0496 0.97749 0.0
H1507 H 0.67012 0.09437 0.98441 0.0
H1508 H 0.62294 0.06409 1.00101 0.0
C1509 C 0.58452 0.05138 0.95862 0.0
C1510 C 0.90648 0.55474 0.9748 0.0
C1511 C 0.8989 0.54623 0.9559 0.0
H1512 H 0.93228 0.55355 0.99906 0.0
C1513 C 0.91208 0.5293 0.947 0.0
H1514 H 0.89698 0.56806 0.98204 0.0
C1515 C 0.9324 0.52116 0.95671 0.0
C1516 C 0.94005 0.52968 0.97559 0.0
H1517 H 0.90634 0.52186 0.93253 0.0
H1518 H 0.94196 0.50802 0.94934 0.0
C1519 C 0.92686 0.54657 0.98454 0.0
C1520 C 0.50976 0.37595 0.98978 0.0
C1521 C 0.47937 0.35626 0.98001 0.0
H1522 H 0.5413 0.42072 0.00599 0.0
C1523 C 0.45686 0.36693 0.97934 0.0
H1524 H 0.52762 0.36835 0.99034 0.0
C1525 C 0.46456 0.39674 0.98846 0.0
C1526 C 0.49508 0.4165 0.99809 0.0
H1527 H 0.43318 0.35201 0.972 0.0
H1528 H 0.44667 0.40429 0.98797 0.0
C1529 C 0.51759 0.40588 0.99868 0.0
C1530 C 0.08392 0.63403 0.03316 0.0
C1531 C 0.11755 0.64759 0.03335 0.0
H1532 H 0.03711 0.59349 0.02388 0.0
C1533 C 0.12982 0.62951 0.0248 0.0
H1534 H 0.07387 0.64757 0.03959 0.0
C1535 C 0.10892 0.59863 0.01603 0.0
C1536 C 0.07533 0.58531 0.01551 0.0
H1537 H 0.15565 0.63921 0.02498 0.0
H1538 H 0.11912 0.5853 0.00953 0.0
C1539 C 0.06294 0.60317 0.02419 0.0
C1540 C 0.35269 0.43128 0.0325 0.0
C1541 C 0.35645 0.43989 0.05142 0.0
H1542 H 0.37598 0.43445 0.00804 0.0
C1543 C 0.3879 0.45833 0.06016 0.0
H1544 H 0.32881 0.41683 0.02534 0.0
C1545 C 0.41481 0.46839 0.05028 0.0
C1546 C 0.41114 0.46027 0.03132 0.0
H1547 H 0.3918 0.46586 0.07462 0.0
H1548 H 0.43858 0.48291 0.05757 0.0
C1549 C 0.37973 0.44128 0.02257 0.0
C1550 C 0.49442 0.88163 0.03508 0.0
C1551 C 0.52582 0.89662 0.04392 0.0
H1552 H 0.46107 0.88626 0.01688 0.0
C1553 C 0.54772 0.92919 0.04163 0.0
H1554 H 0.47707 0.85656 0.03673 0.0
C1555 C 0.5387 0.94606 0.03004 0.0
C1556 C 0.50753 0.93072 0.02085 0.0
H1557 H 0.57216 0.94109 0.04818 0.0
H1558 H 0.55637 0.97075 0.0279 0.0
C1559 C 0.48532 0.89857 0.0237 0.0
C1560 C 0.05412 0.26246 0.39246 0.0
C1561 C 0.02274 0.24648 0.38356 0.0
H1562 H 0.10469 0.2911 0.39014 0.0
C1563 C 0.01885 0.24901 0.36478 0.0
H1564 H 0.05814 0.26067 0.4068 0.0
C1565 C 0.04573 0.26632 0.35509 0.0
C1566 C 0.07712 0.28164 0.36396 0.0
H1567 H 0.99498 0.23738 0.35752 0.0
H1568 H 0.0419 0.26748 0.34064 0.0
C1569 C 0.08091 0.27978 0.38281 0.0
C1570 C 0.76606 0.80792 0.38847 0.0
C1571 C 0.77795 0.79084 0.37841 0.0
H1572 H 0.73489 0.8281 0.38827 0.0
C1573 C 0.76578 0.77961 0.36013 0.0
H1574 H 0.77511 0.81706 0.40256 0.0
C1575 C 0.74288 0.78598 0.35195 0.0
C1576 C 0.73155 0.80374 0.36183 0.0
H1577 H 0.77397 0.76585 0.3521 0.0
H1578 H 0.73438 0.77722 0.33776 0.0
C1579 C 0.7431 0.81434 0.38026 0.0
C1580 C 0.16156 0.95749 0.35055 0.0
C1581 C 0.19198 0.97686 0.36034 0.0
H1582 H 0.12902 0.91219 0.33508 0.0
C1583 C 0.21356 0.96507 0.36176 0.0
H1584 H 0.14436 0.96589 0.34945 0.0
C1585 C 0.20487 0.93443 0.35342 0.0
C1586 C 0.17431 0.91498 0.3438 0.0
H1587 H 0.23723 0.97969 0.36915 0.0
H1588 H 0.22202 0.92598 0.35453 0.0
C1589 C 0.15275 0.92675 0.34242 0.0
C1590 C 0.58667 0.69859 0.30854 0.0
C1591 C 0.55314 0.68432 0.30929 0.0
H1592 H 0.63341 0.74016 0.31648 0.0
C1593 C 0.54091 0.70197 0.31838 0.0
H1594 H 0.59667 0.68538 0.30168 0.0
C1595 C 0.56179 0.73332 0.32658 0.0
C1596 C 0.5953 0.74747 0.326 0.0
H1597 H 0.51512 0.69166 0.31894 0.0
H1598 H 0.55166 0.7464 0.33343 0.0
C1599 C 0.60762 0.72987 0.31697 0.0
C1600 C 0.28326 0.86644 0.28467 0.0
C1601 C 0.31384 0.88382 0.29457 0.0
H1602 H 0.23201 0.8444 0.28534 0.0
C1603 C 0.31579 0.89441 0.31301 0.0
H1604 H 0.2809 0.85778 0.27048 0.0
C1605 C 0.28785 0.88667 0.32157 0.0
C1606 C 0.25716 0.8681 0.31191 0.0
H1607 H 0.33901 0.90829 0.32095 0.0
H1608 H 0.29035 0.89467 0.33588 0.0
C1609 C 0.25523 0.8586 0.29325 0.0
C1610 C 0.17062 0.44906 0.30482 0.0
C1611 C 0.1393 0.43397 0.29586 0.0
H1612 H 0.20349 0.44504 0.32373 0.0
C1613 C 0.11716 0.40166 0.29852 0.0
H1614 H 0.18814 0.47395 0.3029 0.0
C1615 C 0.12582 0.38523 0.31067 0.0
C1616 C 0.15683 0.4008 0.32009 0.0
H1617 H 0.09278 0.3897 0.2919 0.0
H1618 H 0.10795 0.36081 0.31314 0.0
C1619 C 0.17933 0.4326 0.31679 0.0
C1620 C 0.30039 0.43715 0.30784 0.0
C1621 C 0.30596 0.42323 0.29202 0.0
H1622 H 0.27079 0.43011 0.32982 0.0
C1623 C 0.28405 0.39023 0.28633 0.0
H1624 H 0.31556 0.46265 0.31247 0.0
C1625 C 0.25739 0.37202 0.29599 0.0
C1626 C 0.25265 0.386 0.31191 0.0
H1627 H 0.28744 0.37822 0.27449 0.0
H1628 H 0.24062 0.34685 0.29112 0.0
C1629 C 0.27448 0.4186 0.31783 0.0
C1630 C 0.57318 0.88703 0.30764 0.0
C1631 C 0.56569 0.87891 0.28872 0.0
H1632 H 0.59874 0.88522 0.33181 0.0
C1633 C 0.57867 0.86191 0.27968 0.0
H1634 H 0.5638 0.90038 0.31498 0.0
C1635 C 0.59875 0.85336 0.28927 0.0
C1636 C 0.60638 0.86157 0.30817 0.0
H1637 H 0.57298 0.85481 0.26517 0.0
H1638 H 0.60821 0.84023 0.2818 0.0
C1639 C 0.59335 0.87849 0.31726 0.0
C1640 C 0.12349 0.70226 0.31278 0.0
C1641 C 0.14539 0.69082 0.31346 0.0
H1642 H 0.11452 0.74054 0.3213 0.0
C1643 C 0.17595 0.71008 0.32312 0.0
H1644 H 0.09969 0.68771 0.30553 0.0
C1645 C 0.18454 0.74032 0.33192 0.0
C1646 C 0.16262 0.75169 0.33134 0.0
H1647 H 0.19338 0.70191 0.32368 0.0
H1648 H 0.20837 0.75479 0.33917 0.0
C1649 C 0.13195 0.73239 0.3218 0.0
C1650 C 0.79627 0.96009 0.35612 0.0
C1651 C 0.7841 0.97777 0.36523 0.0
H1652 H 0.78532 0.91648 0.34005 0.0
C1653 C 0.75052 0.96439 0.36505 0.0
H1654 H 0.82208 0.96978 0.35622 0.0
C1655 C 0.72945 0.93404 0.35559 0.0
C1656 C 0.74169 0.9164 0.34649 0.0
H1657 H 0.74061 0.97772 0.37188 0.0
H1658 H 0.70365 0.92452 0.35528 0.0
C1659 C 0.77525 0.92961 0.34692 0.0
C1660 C 0.05767 0.79501 0.39429 0.0
C1661 C 0.02621 0.77786 0.38548 0.0
H1662 H 0.10832 0.81814 0.39171 0.0
C1663 C 0.02229 0.76993 0.36649 0.0
H1664 H 0.06168 0.80192 0.40883 0.0
C1665 C 0.04921 0.77941 0.35654 0.0
C1666 C 0.08068 0.79719 0.36535 0.0
H1667 H 0.99836 0.75645 0.35929 0.0
H1668 H 0.04536 0.77318 0.34195 0.0
C1669 C 0.0845 0.80458 0.38438 0.0
C1670 C 0.21487 0.26499 0.37505 0.0
C1671 C 0.19374 0.2321 0.37706 0.0
H1672 H 0.22232 0.3065 0.36163 0.0
C1673 C 0.16248 0.21638 0.36799 0.0
H1674 H 0.2392 0.27748 0.38178 0.0
C1675 C 0.15275 0.23294 0.35669 0.0
C1676 C 0.17418 0.26547 0.35415 0.0
H1677 H 0.14571 0.19105 0.36943 0.0
H1678 H 0.12862 0.22007 0.34971 0.0
C1679 C 0.20522 0.28151 0.36354 0.0
C1680 C 0.712 0.60818 0.7208 0.0
C1681 C 0.69032 0.57508 0.71525 0.0
H1682 H 0.75523 0.65162 0.71589 0.0
C1683 C 0.69596 0.5611 0.69947 0.0
H1684 H 0.70852 0.6202 0.7326 0.0
C1685 C 0.72184 0.57963 0.68945 0.0
C1686 C 0.74354 0.61231 0.69526 0.0
H1687 H 0.68093 0.53553 0.69496 0.0
H1688 H 0.72568 0.56801 0.67756 0.0
C1689 C 0.73858 0.6264 0.71108 0.0
C1690 C 0.43415 0.11536 0.69369 0.0
C1691 C 0.44561 0.1258 0.71211 0.0
H1692 H 0.40311 0.11332 0.67124 0.0
C1693 C 0.43295 0.14197 0.72231 0.0
H1694 H 0.44297 0.10231 0.68556 0.0
C1695 C 0.40986 0.14821 0.71411 0.0
C1696 C 0.3989 0.13829 0.69556 0.0
H1697 H 0.44144 0.15048 0.73652 0.0
H1698 H 0.40098 0.16121 0.72224 0.0
C1699 C 0.4111 0.12151 0.68552 0.0
C1700 C 0.87524 0.29481 0.69589 0.0
C1701 C 0.85274 0.3055 0.69506 0.0
H1702 H 0.88512 0.25696 0.68796 0.0
C1703 C 0.82205 0.28532 0.68572 0.0
H1704 H 0.89914 0.31008 0.7029 0.0
C1705 C 0.8139 0.25486 0.67744 0.0
C1706 C 0.8364 0.24421 0.67821 0.0
H1707 H 0.80419 0.29292 0.68506 0.0
H1708 H 0.78997 0.23966 0.67044 0.0
C1709 C 0.86721 0.26448 0.68739 0.0
C1710 C 0.25429 0.03141 0.64266 0.0
C1711 C 0.22073 0.0167 0.6434 0.0
H1712 H 0.30076 0.07326 0.65079 0.0
C1713 C 0.20813 0.03388 0.65261 0.0
H1714 H 0.26456 0.01855 0.63571 0.0
C1715 C 0.22867 0.06517 0.66096 0.0
C1716 C 0.26223 0.07975 0.66042 0.0
H1717 H 0.1823 0.02322 0.65316 0.0
H1718 H 0.21826 0.07788 0.66791 0.0
C1719 C 0.27493 0.06263 0.65125 0.0
C1720 C 0.98085 0.22612 0.64657 0.0
C1721 C 0.97906 0.21556 0.62814 0.0
H1722 H 0.95517 0.22619 0.66934 0.0
C1723 C 0.94858 0.19807 0.61817 0.0
H1724 H 0.00401 0.2401 0.65456 0.0
C1725 C 0.92044 0.19006 0.62666 0.0
C1726 C 0.9222 0.19951 0.6453 0.0
H1727 H 0.94637 0.18944 0.60399 0.0
H1728 H 0.8973 0.1758 0.6187 0.0
C1729 C 0.95281 0.21821 0.65503 0.0
C1730 C 0.78745 0.73409 0.6297 0.0
C1731 C 0.80964 0.76668 0.62759 0.0
H1732 H 0.77764 0.69262 0.64388 0.0
C1733 C 0.84054 0.78162 0.63706 0.0
H1734 H 0.76339 0.72219 0.62265 0.0
C1735 C 0.84871 0.7648 0.64904 0.0
C1736 C 0.82608 0.73276 0.65185 0.0
H1737 H 0.85814 0.80668 0.63554 0.0
H1738 H 0.87252 0.77718 0.65642 0.0
C1739 C 0.79558 0.71728 0.64185 0.0
C1740 C 0.95364 0.72177 0.62066 0.0
C1741 C 0.97528 0.75487 0.62622 0.0
H1742 H 0.91033 0.67833 0.62548 0.0
C1743 C 0.96952 0.76886 0.64194 0.0
H1744 H 0.95721 0.70971 0.6089 0.0
C1745 C 0.94353 0.75033 0.6519 0.0
C1746 C 0.92186 0.71766 0.64606 0.0
H1747 H 0.98455 0.79442 0.64647 0.0
H1748 H 0.9396 0.76194 0.66375 0.0
C1749 C 0.92694 0.70356 0.63029 0.0
C1750 C 0.2441 0.19448 0.61377 0.0
C1751 C 0.23119 0.21153 0.6228 0.0
H1752 H 0.27334 0.17248 0.61592 0.0
C1753 C 0.23843 0.2194 0.64174 0.0
H1754 H 0.23859 0.18757 0.59924 0.0
C1755 C 0.25832 0.21056 0.65141 0.0
C1756 C 0.27129 0.19359 0.64232 0.0
H1757 H 0.22908 0.23279 0.64908 0.0
H1758 H 0.26357 0.21714 0.66597 0.0
C1759 C 0.26389 0.18562 0.62339 0.0
C1760 C 0.79221 0.03382 0.6452 0.0
C1761 C 0.81506 0.02358 0.6455 0.0
H1762 H 0.78165 0.07075 0.65418 0.0
C1763 C 0.84575 0.04372 0.65484 0.0
H1764 H 0.7683 0.01852 0.63819 0.0
C1765 C 0.85355 0.0737 0.66368 0.0
C1766 C 0.83066 0.08386 0.66349 0.0
H1767 H 0.86385 0.03643 0.65512 0.0
H1768 H 0.87748 0.08888 0.67068 0.0
C1769 C 0.79986 0.06362 0.65429 0.0
C1770 C 0.45953 0.29599 0.68825 0.0
C1771 C 0.44657 0.31292 0.69734 0.0
H1772 H 0.4499 0.25245 0.67259 0.0
C1773 C 0.41292 0.2983 0.69752 0.0
H1774 H 0.48544 0.30664 0.68809 0.0
C1775 C 0.39255 0.26741 0.68846 0.0
C1776 C 0.40559 0.25051 0.6794 0.0
H1777 H 0.4024 0.31101 0.70436 0.0
H1778 H 0.36665 0.25688 0.68845 0.0
C1779 C 0.43923 0.26499 0.67944 0.0
C1780 C 0.68739 0.10163 0.69976 0.0
C1781 C 0.69144 0.10869 0.71883 0.0
H1782 H 0.71025 0.10541 0.67508 0.0
C1783 C 0.72289 0.12458 0.72764 0.0
H1784 H 0.66345 0.08907 0.69254 0.0
C1785 C 0.7496 0.13386 0.71766 0.0
C1786 C 0.74568 0.1275 0.69855 0.0
H1787 H 0.72704 0.13079 0.74224 0.0
H1788 H 0.77341 0.14639 0.725 0.0
C1789 C 0.7142 0.11086 0.68974 0.0
C1790 C 0.87949 0.59569 0.71041 0.0
C1791 C 0.85779 0.56285 0.71224 0.0
H1792 H 0.88828 0.63753 0.69689 0.0
C1793 C 0.82675 0.54771 0.70293 0.0
H1794 H 0.90363 0.60777 0.71736 0.0
C1795 C 0.81795 0.56465 0.6914 0.0
C1796 C 0.84006 0.59701 0.68889 0.0
H1797 H 0.80949 0.52247 0.70428 0.0
H1798 H 0.79403 0.55215 0.68414 0.0
C1799 C 0.87073 0.61263 0.69871 0.0
C1800 C 0.50457 0.99219 0.1582 0.0
C1801 C 0.47221 0.9685 0.15962 0.0
H1802 H 0.54037 0.02098 0.14084 0.0
C1803 C 0.45043 0.95668 0.14382 0.0
H1804 H 0.52193 0.00212 0.17012 0.0
C1805 C 0.46102 0.96771 0.12694 0.0
C1806 C 0.49358 0.99102 0.12551 0.0
H1807 H 0.42539 0.93831 0.14443 0.0
H1808 H 0.44371 0.958 0.115 0.0
C1809 C 0.51509 0.00328 0.14141 0.0
C1810 C 0.07091 0.55737 0.15368 0.0
C1811 C 0.05427 0.53256 0.16493 0.0
H1812 H 0.07324 0.57315 0.12702 0.0
C1813 C 0.02763 0.50306 0.15726 0.0
H1814 H 0.09171 0.58024 0.15924 0.0
C1815 C 0.01696 0.49903 0.1388 0.0
C1816 C 0.03306 0.52426 0.12767 0.0
H1817 H 0.01436 0.48362 0.16568 0.0
H1818 H 0.99588 0.47636 0.13327 0.0
C1819 C 0.06051 0.55321 0.13522 0.0
C1820 C 0.45842 0.50956 0.14988 0.0
C1821 C 0.48227 0.51848 0.16441 0.0
H1822 H 0.44701 0.50126 0.12089 0.0
C1823 C 0.51269 0.52329 0.16066 0.0
H1824 H 0.43477 0.50576 0.15238 0.0
C1825 C 0.51984 0.52115 0.14277 0.0
C1826 C 0.49668 0.51392 0.1281 0.0
H1827 H 0.53145 0.52982 0.17161 0.0
H1828 H 0.54411 0.52666 0.14049 0.0
C1829 C 0.46559 0.50739 0.13187 0.0
C1830 C 0.97099 0.49532 0.85001 0.0
C1831 C 0.94445 0.4655 0.84267 0.0
H1832 H 0.00344 0.52275 0.87362 0.0
C1833 C 0.92859 0.44085 0.85413 0.0
H1834 H 0.98365 0.51465 0.84142 0.0
C1835 C 0.93978 0.44547 0.87247 0.0
C1836 C 0.96721 0.47473 0.87966 0.0
H1837 H 0.90786 0.41774 0.84881 0.0
H1838 H 0.92774 0.42564 0.88085 0.0
C1839 C 0.98241 0.49984 0.86835 0.0
C1840 C 0.53943 0.48485 0.8581 0.0
C1841 C 0.51536 0.47537 0.84361 0.0
H1842 H 0.55111 0.49346 0.88707 0.0
C1843 C 0.48467 0.46965 0.84748 0.0
H1844 H 0.56328 0.48935 0.85553 0.0
C1845 C 0.47756 0.47159 0.8654 0.0
C1846 C 0.50103 0.47951 0.88003 0.0
H1847 H 0.46571 0.46267 0.83659 0.0
H1848 H 0.45315 0.46547 0.86776 0.0
C1849 C 0.5323 0.4868 0.87615 0.0
C1850 C 0.53908 0.04132 0.86142 0.0
C1851 C 0.51506 0.02868 0.84667 0.0
H1852 H 0.55042 0.04064 0.88986 0.0
C1853 C 0.48389 0.00368 0.84931 0.0
H1854 H 0.56327 0.06069 0.8598 0.0
C1855 C 0.47649 0.99236 0.8664 0.0
C1856 C 0.50006 0.00571 0.88138 0.0
H1857 H 0.46492 0.99326 0.83818 0.0
H1858 H 0.4519 0.97384 0.86797 0.0
C1859 C 0.5316 0.03008 0.87865 0.0
C1860 C 0.1695 0.32584 0.49222 0.0
C1861 C 0.13745 0.30144 0.49366 0.0
H1862 H 0.20461 0.35581 0.47488 0.0
C1863 C 0.11568 0.28883 0.47787 0.0
H1864 H 0.18674 0.3365 0.50418 0.0
C1865 C 0.12604 0.29972 0.46093 0.0
C1866 C 0.15838 0.3236 0.45944 0.0
H1867 H 0.0909 0.26983 0.47851 0.0
H1868 H 0.10891 0.28877 0.44895 0.0
C1869 C 0.17979 0.33682 0.47538 0.0
C1870 C 0.69959 0.83738 0.48912 0.0
C1871 C 0.7265 0.86676 0.49668 0.0
H1872 H 0.66723 0.8109 0.4653 0.0
C1873 C 0.74312 0.89148 0.48538 0.0
H1874 H 0.68633 0.81801 0.49758 0.0
C1875 C 0.73236 0.8874 0.46699 0.0
C1876 C 0.70458 0.85863 0.45958 0.0
H1877 H 0.76412 0.91426 0.49087 0.0
H1878 H 0.74504 0.9073 0.45875 0.0
C1879 C 0.68857 0.83343 0.47074 0.0
C1880 C 0.18144 0.85709 0.49442 0.0
C1881 C 0.15087 0.85194 0.49812 0.0
H1882 H 0.21313 0.86093 0.47432 0.0
C1883 C 0.12709 0.84295 0.48354 0.0
H1884 H 0.20016 0.86371 0.5054 0.0
C1885 C 0.13445 0.84101 0.46554 0.0
C1886 C 0.16566 0.84785 0.46182 0.0
H1887 H 0.10334 0.8389 0.48599 0.0
H1888 H 0.1159 0.83481 0.45453 0.0
C1889 C 0.18877 0.85517 0.47655 0.0
C1890 C 0.63819 0.82794 0.18204 0.0
C1891 C 0.61121 0.79857 0.17455 0.0
H1892 H 0.67058 0.85453 0.20583 0.0
C1893 C 0.59448 0.77399 0.1859 0.0
H1894 H 0.65151 0.84719 0.17352 0.0
C1895 C 0.60521 0.7782 0.2043 0.0
C1896 C 0.63307 0.80696 0.21165 0.0
H1897 H 0.57342 0.75123 0.18046 0.0
H1898 H 0.59246 0.75841 0.21259 0.0
C1899 C 0.64918 0.83202 0.20044 0.0
C1900 C 0.20527 0.8262 0.19116 0.0
C1901 C 0.18064 0.81559 0.17687 0.0
H1902 H 0.21773 0.83531 0.22006 0.0
C1903 C 0.14963 0.8084 0.18103 0.0
H1904 H 0.22938 0.83183 0.18836 0.0
C1905 C 0.14284 0.80996 0.19905 0.0
C1906 C 0.16693 0.81896 0.21348 0.0
H1907 H 0.13023 0.8005 0.1703 0.0
H1908 H 0.11823 0.80268 0.20165 0.0
C1909 C 0.19846 0.82779 0.2093 0.0
C1910 C 0.1917 0.35023 0.18781 0.0
C1911 C 0.19219 0.37903 0.18411 0.0
H1912 H 0.1824 0.31517 0.20698 0.0
C1913 C 0.18572 0.39593 0.19794 0.0
H1914 H 0.19643 0.33659 0.17741 0.0
C1915 C 0.17752 0.38365 0.21477 0.0
C1916 C 0.17548 0.35406 0.21824 0.0
H1917 H 0.18618 0.41835 0.19556 0.0
H1918 H 0.17148 0.39676 0.2248 0.0
C1919 C 0.18329 0.3378 0.20467 0.0
C1920 C 0.79604 0.65219 0.81893 0.0
C1921 C 0.79791 0.62554 0.82466 0.0
H1922 H 0.80507 0.68459 0.79822 0.0
C1923 C 0.80947 0.61012 0.81295 0.0
H1924 H 0.78743 0.66473 0.82766 0.0
C1925 C 0.81962 0.62151 0.79613 0.0
C1926 C 0.81869 0.64877 0.79062 0.0
H1927 H 0.81092 0.58933 0.81687 0.0
H1928 H 0.82908 0.6095 0.78767 0.0
C1929 C 0.80645 0.66377 0.80214 0.0
C1930 C 0.40915 0.22428 0.81967 0.0
C1931 C 0.39257 0.19954 0.83097 0.0
H1932 H 0.41111 0.24008 0.79304 0.0
C1933 C 0.36576 0.1701 0.82339 0.0
H1934 H 0.43007 0.24711 0.82518 0.0
C1935 C 0.35481 0.16611 0.80498 0.0
C1936 C 0.37078 0.19132 0.79382 0.0
H1937 H 0.35254 0.15071 0.83184 0.0
H1938 H 0.33355 0.14352 0.79953 0.0
C1939 C 0.39846 0.22016 0.80127 0.0
C1940 C 0.81291 0.21537 0.81693 0.0
C1941 C 0.80875 0.1916 0.82858 0.0
H1942 H 0.82482 0.23251 0.79077 0.0
C1943 C 0.81076 0.16461 0.82181 0.0
H1944 H 0.81137 0.23637 0.82183 0.0
C1945 C 0.81868 0.16246 0.80399 0.0
C1946 C 0.8243 0.18706 0.7926 0.0
H1947 H 0.8078 0.14606 0.83056 0.0
H1948 H 0.82112 0.14194 0.79926 0.0
C1949 C 0.82045 0.21306 0.79913 0.0
C1950 C 0.26126 0.11011 0.51959 0.0
C1951 C 0.2784 0.13491 0.50844 0.0
H1952 H 0.25853 0.09389 0.54615 0.0
C1953 C 0.30532 0.16411 0.51618 0.0
H1954 H 0.24025 0.08747 0.51394 0.0
C1955 C 0.31589 0.16775 0.53462 0.0
C1956 C 0.29941 0.14242 0.54562 0.0
H1957 H 0.31895 0.18352 0.50782 0.0
H1958 H 0.33729 0.1901 0.54021 0.0
C1959 C 0.27157 0.11389 0.53803 0.0
C1960 C 0.85501 0.16248 0.52017 0.0
C1961 C 0.857 0.13552 0.51329 0.0
H1962 H 0.84477 0.18508 0.54282 0.0
C1963 C 0.85274 0.11163 0.52488 0.0
H1964 H 0.85804 0.18115 0.51149 0.0
C1965 C 0.84523 0.11384 0.54272 0.0
C1966 C 0.84152 0.13988 0.54936 0.0
H1967 H 0.85429 0.09066 0.51994 0.0
H1968 H 0.84089 0.09435 0.55103 0.0
C1969 C 0.84712 0.16453 0.53801 0.0
C1970 C 0.85929 0.68142 0.52031 0.0
C1971 C 0.85795 0.70922 0.51641 0.0
H1972 H 0.85216 0.64726 0.53974 0.0
C1973 C 0.85034 0.72535 0.53011 0.0
H1974 H 0.86495 0.66841 0.51001 0.0
C1975 C 0.84289 0.71324 0.54704 0.0
C1976 C 0.84275 0.6846 0.55072 0.0
H1977 H 0.84941 0.74702 0.52758 0.0
H1978 H 0.836 0.72568 0.55699 0.0
C1979 C 0.85161 0.66914 0.53726 0.0
loop_
_geom_bond_atom_site_label_1
_geom_bond_atom_site_label_2
_geom_bond_distance
_geom_bond_site_symmetry_2
_ccdc_geom_bond_type
C0 C1 1.391 . S
C0 C4 1.391 . S
C0 H42 0.948 . S
C1 C0 1.391 . S
C1 C2 1.391 . S
C2 C1 1.391 . S
C2 H58 0.947 . S
C2 C59 1.392 . S
C3 C4 1.391 . S
C3 C7 1.397 . S
C3 C59 1.419 . S
C4 C0 1.391 . S
C4 C3 1.391 . S
C4 C5 1.399 . S
C5 C4 1.399 . S
C5 C8 1.396 . S
C5 C17 1.453 . S
C5 C18 1.684 . S
H6 C30 0.948 . S
C7 C3 1.397 . S
C7 C8 1.394 . S
C7 C26 1.723 . S
C8 C5 1.396 . S
C8 C7 1.394 . S
C8 C38 1.723 . S
H9 C32 0.947 . S
H10 C33 0.948 . S
H11 C39 0.982 . S
H12 C40 0.979 . S
H13 C40 0.980 . S
H14 C40 0.983 . S
H15 C39 0.979 . S
H16 C39 0.977 . S
C17 C5 1.453 . S
C17 H46 0.982 . S
C17 H47 0.979 . S
C17 H48 0.977 . S
C18 C5 1.684 . S
C18 H43 0.979 . S
C18 H44 0.980 . S
C18 H45 0.983 . S
C19 C20 1.391 . S
C19 C24 1.391 . S
C19 H49 0.948 . S
C20 C19 1.391 . S
C20 C21 1.391 . S
C21 C20 1.391 . S
C21 C22 1.392 . S
C21 H50 0.947 . S
C22 C21 1.392 . S
C22 C23 1.419 . S
C22 H51 0.948 . S
C23 C22 1.419 . S
C23 C24 1.391 . S
C23 C27 1.397 . S
C24 C19 1.391 . S
C24 C23 1.391 . S
C24 C25 1.399 . S
C25 C24 1.399 . S
C25 C26 1.396 . S
C25 C28 1.453 . S
C25 C29 1.684 . S
C26 C7 1.723 . S
C26 C25 1.396 . S
C26 C27 1.394 . S
C27 C23 1.397 . S
C27 C26 1.394 . S
C27 C37 1.723 . S
C28 C25 1.453 . S
C28 H52 0.982 . S
C28 H53 0.979 . S
C28 H54 0.977 . S
C29 C25 1.684 . S
C29 H55 0.979 . S
C29 H56 0.980 . S
C29 H57 0.983 . S
C30 H6 0.948 . S
C30 C31 1.391 . S
C30 C35 1.391 . S
C31 C30 1.391 . S
C31 C32 1.391 . S
C32 H9 0.947 . S
C32 C31 1.391 . S
C32 C33 1.392 . S
C33 H10 0.948 . S
C33 C32 1.392 . S
C33 C34 1.419 . S
C34 C33 1.419 . S
C34 C35 1.391 . S
C34 C38 1.397 . S
C35 C30 1.391 . S
C35 C34 1.391 . S
C35 C36 1.399 . S
C36 C35 1.399 . S
C36 C37 1.396 . S
C36 C39 1.453 . S
C36 C40 1.684 . S
C37 C27 1.723 . S
C37 C36 1.396 . S
C37 C38 1.394 . S
C38 C8 1.723 . S
C38 C34 1.397 . S
C38 C37 1.394 . S
C39 H11 0.982 . S
C39 H15 0.979 . S
C39 H16 0.977 . S
C39 C36 1.453 . S
C40 H12 0.979 . S
C40 H13 0.980 . S
C40 H14 0.983 . S
C40 C36 1.684 . S
H41 C59 0.948 . S
H42 C0 0.948 . S
H43 C18 0.979 . S
H44 C18 0.980 . S
H45 C18 0.983 . S
H46 C17 0.982 . S
H47 C17 0.979 . S
H48 C17 0.977 . S
H49 C19 0.948 . S
H50 C21 0.947 . S
H51 C22 0.948 . S
H52 C28 0.982 . S
H53 C28 0.979 . S
H54 C28 0.977 . S
H55 C29 0.979 . S
H56 C29 0.980 . S
H57 C29 0.983 . S
H58 C2 0.947 . S
C59 C2 1.392 . S
C59 C3 1.419 . S
C59 H41 0.948 . S
C60 C61 1.391 . S
C60 C64 1.391 . S
C60 H102 0.948 . S
C61 C60 1.391 . S
C61 C62 1.391 . S
C62 C61 1.391 . S
C62 H118 0.947 . S
C62 C119 1.392 . S
C63 C64 1.391 . S
C63 C67 1.397 . S
C63 C119 1.419 . S
C64 C60 1.391 . S
C64 C63 1.391 . S
C64 C65 1.399 . S
C65 C64 1.399 . S
C65 C68 1.396 . S
C65 C77 1.453 . S
C65 C78 1.684 . S
H66 C90 0.948 . S
C67 C63 1.397 . S
C67 C68 1.394 . S
C67 C86 1.723 . S
C68 C65 1.396 . S
C68 C67 1.394 . S
C68 C98 1.723 . S
H69 C92 0.947 . S
H70 C93 0.948 . S
H71 C99 0.982 . S
H72 C100 0.979 . S
H73 C100 0.980 . S
H74 C100 0.983 . S
H75 C99 0.979 . S
H76 C99 0.977 . S
C77 C65 1.453 . S
C77 H106 0.982 . S
C77 H107 0.979 . S
C77 H108 0.977 . S
C78 C65 1.684 . S
C78 H103 0.979 . S
C78 H104 0.980 . S
C78 H105 0.983 . S
C79 C80 1.391 . S
C79 C84 1.391 . S
C79 H109 0.948 . S
C80 C79 1.391 . S
C80 C81 1.391 . S
C81 C80 1.391 . S
C81 C82 1.392 . S
C81 H110 0.947 . S
C82 C81 1.392 . S
C82 C83 1.419 . S
C82 H111 0.948 . S
C83 C82 1.419 . S
C83 C84 1.391 . S
C83 C87 1.397 . S
C84 C79 1.391 . S
C84 C83 1.391 . S
C84 C85 1.399 . S
C85 C84 1.399 . S
C85 C86 1.396 . S
C85 C88 1.453 . S
C85 C89 1.684 . S
C86 C67 1.723 . S
C86 C85 1.396 . S
C86 C87 1.394 . S
C87 C83 1.397 . S
C87 C86 1.394 . S
C87 C97 1.723 . S
C88 C85 1.453 . S
C88 H112 0.982 . S
C88 H113 0.979 . S
C88 H114 0.977 . S
C89 C85 1.684 . S
C89 H115 0.979 . S
C89 H116 0.980 . S
C89 H117 0.983 . S
C90 H66 0.948 . S
C90 C91 1.391 . S
C90 C95 1.391 . S
C91 C90 1.391 . S
C91 C92 1.391 . S
C92 H69 0.947 . S
C92 C91 1.391 . S
C92 C93 1.392 . S
C93 H70 0.948 . S
C93 C92 1.392 . S
C93 C94 1.419 . S
C94 C93 1.419 . S
C94 C95 1.391 . S
C94 C98 1.397 . S
C95 C90 1.391 . S
C95 C94 1.391 . S
C95 C96 1.399 . S
C96 C95 1.399 . S
C96 C97 1.396 . S
C96 C99 1.453 . S
C96 C100 1.684 . S
C97 C87 1.723 . S
C97 C96 1.396 . S
C97 C98 1.394 . S
C98 C68 1.723 . S
C98 C94 1.397 . S
C98 C97 1.394 . S
C99 H71 0.982 . S
C99 H75 0.979 . S
C99 H76 0.977 . S
C99 C96 1.453 . S
C100 H72 0.979 . S
C100 H73 0.980 . S
C100 H74 0.983 . S
C100 C96 1.684 . S
H101 C119 0.948 . S
H102 C60 0.948 . S
H103 C78 0.979 . S
H104 C78 0.980 . S
H105 C78 0.983 . S
H106 C77 0.982 . S
H107 C77 0.979 . S
H108 C77 0.977 . S
H109 C79 0.948 . S
H110 C81 0.947 . S
H111 C82 0.948 . S
H112 C88 0.982 . S
H113 C88 0.979 . S
H114 C88 0.977 . S
H115 C89 0.979 . S
H116 C89 0.980 . S
H117 C89 0.983 . S
H118 C62 0.947 . S
C119 C62 1.392 . S
C119 C63 1.419 . S
C119 H101 0.948 . S
C120 C121 1.391 . S
C120 C124 1.391 . S
C120 H162 0.948 . S
C121 C120 1.391 . S
C121 C122 1.391 . S
C122 C121 1.391 . S
C122 H178 0.947 1_655 S
C122 C179 1.392 . S
C123 C124 1.391 . S
C123 C127 1.397 . S
C123 C179 1.419 . S
C124 C120 1.391 . S
C124 C123 1.391 . S
C124 C125 1.399 . S
C125 C124 1.399 . S
C125 C128 1.396 . S
C125 C137 1.453 . S
C125 C138 1.684 . S
H126 C150 0.948 . S
C127 C123 1.397 . S
C127 C128 1.394 . S
C127 C146 1.723 . S
C128 C125 1.396 . S
C128 C127 1.394 . S
C128 C158 1.723 . S
H129 C152 0.947 . S
H130 C153 0.948 . S
H131 C159 0.982 . S
H132 C160 0.979 . S
H133 C160 0.980 . S
H134 C160 0.983 . S
H135 C159 0.979 . S
H136 C159 0.977 . S
C137 C125 1.453 . S
C137 H166 0.982 . S
C137 H167 0.979 . S
C137 H168 0.977 . S
C138 C125 1.684 . S
C138 H163 0.979 . S
C138 H164 0.980 . S
C138 H165 0.983 . S
C139 C140 1.391 . S
C139 C144 1.391 . S
C139 H169 0.948 . S
C140 C139 1.391 . S
C140 C141 1.391 . S
C141 C140 1.391 . S
C141 C142 1.392 . S
C141 H170 0.947 . S
C142 C141 1.392 . S
C142 C143 1.419 . S
C142 H171 0.948 . S
C143 C142 1.419 . S
C143 C144 1.391 . S
C143 C147 1.397 . S
C144 C139 1.391 . S
C144 C143 1.391 . S
C144 C145 1.399 . S
C145 C144 1.399 . S
C145 C146 1.396 . S
C145 C148 1.453 . S
C145 C149 1.684 . S
C146 C127 1.723 . S
C146 C145 1.396 . S
C146 C147 1.394 . S
C147 C143 1.397 . S
C147 C146 1.394 . S
C147 C157 1.723 . S
C148 C145 1.453 . S
C148 H172 0.982 . S
C148 H173 0.979 . S
C148 H174 0.977 . S
C149 C145 1.684 . S
C149 H175 0.979 . S
C149 H176 0.980 . S
C149 H177 0.983 . S
C150 H126 0.948 . S
C150 C151 1.391 . S
C150 C155 1.391 . S
C151 C150 1.391 . S
C151 C152 1.391 . S
C152 H129 0.947 . S
C152 C151 1.391 . S
C152 C153 1.392 . S
C153 H130 0.948 . S
C153 C152 1.392 . S
C153 C154 1.419 . S
C154 C153 1.419 . S
C154 C155 1.391 . S
C154 C158 1.397 . S
C155 C150 1.391 . S
C155 C154 1.391 . S
C155 C156 1.399 . S
C156 C155 1.399 . S
C156 C157 1.396 . S
C156 C159 1.453 . S
C156 C160 1.684 . S
C157 C147 1.723 . S
C157 C156 1.396 . S
C157 C158 1.394 . S
C158 C128 1.723 . S
C158 C154 1.397 . S
C158 C157 1.394 . S
C159 H131 0.982 . S
C159 H135 0.979 . S
C159 H136 0.977 . S
C159 C156 1.453 . S
C160 H132 0.979 . S
C160 H133 0.980 . S
C160 H134 0.983 . S
C160 C156 1.684 . S
H161 C179 0.948 . S
H162 C120 0.948 . S
H163 C138 0.979 . S
H164 C138 0.980 . S
H165 C138 0.983 . S
H166 C137 0.982 . S
H167 C137 0.979 . S
H168 C137 0.977 . S
H169 C139 0.948 . S
H170 C141 0.947 . S
H171 C142 0.948 . S
H172 C148 0.982 . S
H173 C148 0.979 . S
H174 C148 0.977 . S
H175 C149 0.979 . S
H176 C149 0.980 . S
H177 C149 0.983 . S
H178 C122 0.947 1_455 S
C179 C122 1.392 . S
C179 C123 1.419 . S
C179 H161 0.948 . S
C180 C181 1.391 . S
C180 C184 1.391 . S
C180 H222 0.948 . S
C181 C180 1.391 . S
C181 C182 1.391 . S
C182 C181 1.391 . S
C182 H238 0.947 . S
C182 C239 1.392 . S
C183 C184 1.391 . S
C183 C187 1.397 . S
C183 C239 1.419 . S
C184 C180 1.391 . S
C184 C183 1.391 . S
C184 C185 1.399 . S
C185 C184 1.399 . S
C185 C188 1.396 . S
C185 C197 1.453 . S
C185 C198 1.684 . S
H186 C210 0.948 . S
C187 C183 1.397 . S
C187 C188 1.394 . S
C187 C206 1.723 . S
C188 C185 1.396 . S
C188 C187 1.394 . S
C188 C218 1.723 . S
H189 C212 0.947 . S
H190 C213 0.948 . S
H191 C219 0.982 . S
H192 C220 0.979 . S
H193 C220 0.980 . S
H194 C220 0.983 . S
H195 C219 0.979 . S
H196 C219 0.977 . S
C197 C185 1.453 . S
C197 H226 0.982 . S
C197 H227 0.979 . S
C197 H228 0.977 . S
C198 C185 1.684 . S
C198 H223 0.979 . S
C198 H224 0.980 . S
C198 H225 0.983 . S
C199 C200 1.391 . S
C199 C204 1.391 . S
C199 H229 0.948 . S
C200 C199 1.391 . S
C200 C201 1.391 . S
C201 C200 1.391 . S
C201 C202 1.392 . S
C201 H230 0.947 . S
C202 C201 1.392 . S
C202 C203 1.419 . S
C202 H231 0.948 . S
C203 C202 1.419 . S
C203 C204 1.391 . S
C203 C207 1.397 . S
C204 C199 1.391 . S
C204 C203 1.391 . S
C204 C205 1.399 . S
C205 C204 1.399 . S
C205 C206 1.396 . S
C205 C208 1.453 . S
C205 C209 1.684 . S
C206 C187 1.723 . S
C206 C205 1.396 . S
C206 C207 1.394 . S
C207 C203 1.397 . S
C207 C206 1.394 . S
C207 C217 1.723 . S
C208 C205 1.453 . S
C208 H232 0.982 . S
C208 H233 0.979 . S
C208 H234 0.977 . S
C209 C205 1.684 . S
C209 H235 0.979 . S
C209 H236 0.980 . S
C209 H237 0.983 . S
C210 H186 0.948 . S
C210 C211 1.391 . S
C210 C215 1.391 . S
C211 C210 1.391 . S
C211 C212 1.391 . S
C212 H189 0.947 . S
C212 C211 1.391 . S
C212 C213 1.392 . S
C213 H190 0.948 . S
C213 C212 1.392 . S
C213 C214 1.419 . S
C214 C213 1.419 . S
C214 C215 1.391 . S
C214 C218 1.397 . S
C215 C210 1.391 . S
C215 C214 1.391 . S
C215 C216 1.399 . S
C216 C215 1.399 . S
C216 C217 1.396 . S
C216 C219 1.453 . S
C216 C220 1.684 . S
C217 C207 1.723 . S
C217 C216 1.396 . S
C217 C218 1.394 . S
C218 C188 1.723 . S
C218 C214 1.397 . S
C218 C217 1.394 . S
C219 H191 0.982 . S
C219 H195 0.979 . S
C219 H196 0.977 . S
C219 C216 1.453 . S
C220 H192 0.979 . S
C220 H193 0.980 . S
C220 H194 0.983 . S
C220 C216 1.684 . S
H221 C239 0.948 . S
H222 C180 0.948 . S
H223 C198 0.979 . S
H224 C198 0.980 . S
H225 C198 0.983 . S
H226 C197 0.982 . S
H227 C197 0.979 . S
H228 C197 0.977 . S
H229 C199 0.948 . S
H230 C201 0.947 . S
H231 C202 0.948 . S
H232 C208 0.982 . S
H233 C208 0.979 . S
H234 C208 0.977 . S
H235 C209 0.979 . S
H236 C209 0.980 . S
H237 C209 0.983 . S
H238 C182 0.947 . S
C239 C182 1.392 . S
C239 C183 1.419 . S
C239 H221 0.948 . S
C240 C241 1.391 . S
C240 C244 1.391 . S
C240 H282 0.948 . S
C241 C240 1.391 . S
C241 C242 1.391 . S
C242 C241 1.391 . S
C242 H298 0.947 . S
C242 C299 1.392 . S
C243 C244 1.391 . S
C243 C247 1.397 . S
C243 C299 1.419 . S
C244 C240 1.391 . S
C244 C243 1.391 . S
C244 C245 1.399 . S
C245 C244 1.399 . S
C245 C248 1.396 . S
C245 C257 1.453 . S
C245 C258 1.684 . S
H246 C270 0.948 . S
C247 C243 1.397 . S
C247 C248 1.394 . S
C247 C266 1.723 . S
C248 C245 1.396 . S
C248 C247 1.394 . S
C248 C278 1.723 . S
H249 C272 0.947 . S
H250 C273 0.948 . S
H251 C279 0.982 . S
H252 C280 0.979 . S
H253 C280 0.980 . S
H254 C280 0.983 . S
H255 C279 0.979 . S
H256 C279 0.977 . S
C257 C245 1.453 . S
C257 H286 0.982 . S
C257 H287 0.979 . S
C257 H288 0.977 . S
C258 C245 1.684 . S
C258 H283 0.979 . S
C258 H284 0.980 . S
C258 H285 0.983 . S
C259 C260 1.391 . S
C259 C264 1.391 . S
C259 H289 0.948 . S
C260 C259 1.391 . S
C260 C261 1.391 . S
C261 C260 1.391 . S
C261 C262 1.392 . S
C261 H290 0.947 . S
C262 C261 1.392 . S
C262 C263 1.419 . S
C262 H291 0.948 . S
C263 C262 1.419 . S
C263 C264 1.391 . S
C263 C267 1.397 . S
C264 C259 1.391 . S
C264 C263 1.391 . S
C264 C265 1.399 . S
C265 C264 1.399 . S
C265 C266 1.396 . S
C265 C268 1.453 . S
C265 C269 1.684 . S
C266 C247 1.723 . S
C266 C265 1.396 . S
C266 C267 1.394 . S
C267 C263 1.397 . S
C267 C266 1.394 . S
C267 C277 1.723 . S
C268 C265 1.453 . S
C268 H292 0.982 . S
C268 H293 0.979 . S
C268 H294 0.977 . S
C269 C265 1.684 . S
C269 H295 0.979 . S
C269 H296 0.980 . S
C269 H297 0.983 . S
C270 H246 0.948 . S
C270 C271 1.391 . S
C270 C275 1.391 . S
C271 C270 1.391 . S
C271 C272 1.391 . S
C272 H249 0.947 . S
C272 C271 1.391 . S
C272 C273 1.392 . S
C273 H250 0.948 . S
C273 C272 1.392 . S
C273 C274 1.419 . S
C274 C273 1.419 . S
C274 C275 1.391 . S
C274 C278 1.397 . S
C275 C270 1.391 . S
C275 C274 1.391 . S
C275 C276 1.399 . S
C276 C275 1.399 . S
C276 C277 1.396 . S
C276 C279 1.453 . S
C276 C280 1.684 . S
C277 C267 1.723 . S
C277 C276 1.396 . S
C277 C278 1.394 . S
C278 C248 1.723 . S
C278 C274 1.397 . S
C278 C277 1.394 . S
C279 H251 0.982 . S
C279 H255 0.979 . S
C279 H256 0.977 . S
C279 C276 1.453 . S
C280 H252 0.979 . S
C280 H253 0.980 . S
C280 H254 0.983 . S
C280 C276 1.684 . S
H281 C299 0.948 . S
H282 C240 0.948 . S
H283 C258 0.979 . S
H284 C258 0.980 . S
H285 C258 0.983 . S
H286 C257 0.982 . S
H287 C257 0.979 . S
H288 C257 0.977 . S
H289 C259 0.948 . S
H290 C261 0.947 . S
H291 C262 0.948 . S
H292 C268 0.982 . S
H293 C268 0.979 . S
H294 C268 0.977 . S
H295 C269 0.979 . S
H296 C269 0.980 . S
H297 C269 0.983 . S
H298 C242 0.947 . S
C299 C242 1.392 . S
C299 C243 1.419 . S
C299 H281 0.948 . S
C300 C301 1.391 . S
C300 C304 1.391 . S
C300 H342 0.948 . S
C301 C300 1.391 . S
C301 C302 1.391 . S
C302 C301 1.391 . S
C302 H358 0.947 . S
C302 C359 1.392 . S
C303 C304 1.391 . S
C303 C307 1.397 . S
C303 C359 1.419 . S
C304 C300 1.391 . S
C304 C303 1.391 . S
C304 C305 1.399 . S
C305 C304 1.399 . S
C305 C308 1.396 . S
C305 C317 1.453 . S
C305 C318 1.684 . S
H306 C330 0.948 . S
C307 C303 1.397 . S
C307 C308 1.394 . S
C307 C326 1.723 . S
C308 C305 1.396 . S
C308 C307 1.394 . S
C308 C338 1.723 . S
H309 C332 0.947 . S
H310 C333 0.948 . S
H311 C339 0.982 . S
H312 C340 0.979 . S
H313 C340 0.980 . S
H314 C340 0.983 . S
H315 C339 0.979 . S
H316 C339 0.977 . S
C317 C305 1.453 . S
C317 H346 0.982 . S
C317 H347 0.979 . S
C317 H348 0.977 . S
C318 C305 1.684 . S
C318 H343 0.979 . S
C318 H344 0.980 . S
C318 H345 0.983 . S
C319 C320 1.391 . S
C319 C324 1.391 . S
C319 H349 0.948 . S
C320 C319 1.391 . S
C320 C321 1.391 . S
C321 C320 1.391 . S
C321 C322 1.392 . S
C321 H350 0.947 . S
C322 C321 1.392 . S
C322 C323 1.419 . S
C322 H351 0.948 . S
C323 C322 1.419 . S
C323 C324 1.391 . S
C323 C327 1.397 . S
C324 C319 1.391 . S
C324 C323 1.391 . S
C324 C325 1.399 . S
C325 C324 1.399 . S
C325 C326 1.396 . S
C325 C328 1.453 . S
C325 C329 1.684 . S
C326 C307 1.723 . S
C326 C325 1.396 . S
C326 C327 1.394 . S
C327 C323 1.397 . S
C327 C326 1.394 . S
C327 C337 1.723 . S
C328 C325 1.453 . S
C328 H352 0.982 . S
C328 H353 0.979 . S
C328 H354 0.977 . S
C329 C325 1.684 . S
C329 H355 0.979 . S
C329 H356 0.980 . S
C329 H357 0.983 . S
C330 H306 0.948 . S
C330 C331 1.391 . S
C330 C335 1.391 . S
C331 C330 1.391 . S
C331 C332 1.391 . S
C332 H309 0.947 . S
C332 C331 1.391 . S
C332 C333 1.392 . S
C333 H310 0.948 . S
C333 C332 1.392 . S
C333 C334 1.419 . S
C334 C333 1.419 . S
C334 C335 1.391 . S
C334 C338 1.397 . S
C335 C330 1.391 . S
C335 C334 1.391 . S
C335 C336 1.399 . S
C336 C335 1.399 . S
C336 C337 1.396 . S
C336 C339 1.453 . S
C336 C340 1.684 . S
C337 C327 1.723 . S
C337 C336 1.396 . S
C337 C338 1.394 . S
C338 C308 1.723 . S
C338 C334 1.397 . S
C338 C337 1.394 . S
C339 H311 0.982 . S
C339 H315 0.979 . S
C339 H316 0.977 . S
C339 C336 1.453 . S
C340 H312 0.979 . S
C340 H313 0.980 . S
C340 H314 0.983 . S
C340 C336 1.684 . S
H341 C359 0.948 . S
H342 C300 0.948 . S
H343 C318 0.979 . S
H344 C318 0.980 . S
H345 C318 0.983 . S
H346 C317 0.982 . S
H347 C317 0.979 . S
H348 C317 0.977 . S
H349 C319 0.948 . S
H350 C321 0.947 . S
H351 C322 0.948 . S
H352 C328 0.982 . S
H353 C328 0.979 . S
H354 C328 0.977 . S
H355 C329 0.979 . S
H356 C329 0.980 . S
H357 C329 0.983 . S
H358 C302 0.947 . S
C359 C302 1.392 . S
C359 C303 1.419 . S
C359 H341 0.948 . S
C360 C361 1.391 . S
C360 C364 1.391 . S
C360 H402 0.948 . S
C361 C360 1.391 . S
C361 C362 1.391 . S
C362 C361 1.391 . S
C362 H418 0.947 . S
C362 C419 1.392 . S
C363 C364 1.391 . S
C363 C367 1.397 . S
C363 C419 1.419 . S
C364 C360 1.391 . S
C364 C363 1.391 . S
C364 C365 1.399 . S
C365 C364 1.399 . S
C365 C368 1.396 . S
C365 C377 1.453 . S
C365 C378 1.684 . S
H366 C390 0.948 . S
C367 C363 1.397 . S
C367 C368 1.394 . S
C367 C386 1.723 . S
C368 C365 1.396 . S
C368 C367 1.394 . S
C368 C398 1.723 . S
H369 C392 0.947 . S
H370 C393 0.948 . S
H371 C399 0.982 1_455 S
H372 C400 0.979 . S
H373 C400 0.980 . S
H374 C400 0.983 . S
H375 C399 0.979 . S
H376 C399 0.977 . S
C377 C365 1.453 . S
C377 H406 0.982 . S
C377 H407 0.979 . S
C377 H408 0.977 . S
C378 C365 1.684 . S
C378 H403 0.979 . S
C378 H404 0.980 . S
C378 H405 0.983 . S
C379 C380 1.391 . S
C379 C384 1.391 . S
C379 H409 0.948 . S
C380 C379 1.391 . S
C380 C381 1.391 . S
C381 C380 1.391 . S
C381 C382 1.392 . S
C381 H410 0.947 . S
C382 C381 1.392 . S
C382 C383 1.419 . S
C382 H411 0.948 . S
C383 C382 1.419 . S
C383 C384 1.391 . S
C383 C387 1.397 . S
C384 C379 1.391 . S
C384 C383 1.391 . S
C384 C385 1.399 . S
C385 C384 1.399 . S
C385 C386 1.396 . S
C385 C388 1.453 . S
C385 C389 1.684 . S
C386 C367 1.723 . S
C386 C385 1.396 . S
C386 C387 1.394 . S
C387 C383 1.397 . S
C387 C386 1.394 . S
C387 C397 1.723 . S
C388 C385 1.453 . S
C388 H412 0.982 1_655 S
C388 H413 0.979 1_655 S
C388 H414 0.977 . S
C389 C385 1.684 . S
C389 H415 0.979 . S
C389 H416 0.980 . S
C389 H417 0.983 . S
C390 H366 0.948 . S
C390 C391 1.391 . S
C390 C395 1.391 . S
C391 C390 1.391 . S
C391 C392 1.391 . S
C392 H369 0.947 . S
C392 C391 1.391 . S
C392 C393 1.392 . S
C393 H370 0.948 . S
C393 C392 1.392 . S
C393 C394 1.419 . S
C394 C393 1.419 . S
C394 C395 1.391 . S
C394 C398 1.397 . S
C395 C390 1.391 . S
C395 C394 1.391 . S
C395 C396 1.399 . S
C396 C395 1.399 . S
C396 C397 1.396 . S
C396 C399 1.453 . S
C396 C400 1.684 . S
C397 C387 1.723 . S
C397 C396 1.396 . S
C397 C398 1.394 . S
C398 C368 1.723 . S
C398 C394 1.397 . S
C398 C397 1.394 . S
C399 H371 0.982 1_655 S
C399 H375 0.979 . S
C399 H376 0.977 . S
C399 C396 1.453 . S
C400 H372 0.979 . S
C400 H373 0.980 . S
C400 H374 0.983 . S
C400 C396 1.684 . S
H401 C419 0.948 . S
H402 C360 0.948 . S
H403 C378 0.979 . S
H404 C378 0.980 . S
H405 C378 0.983 . S
H406 C377 0.982 . S
H407 C377 0.979 . S
H408 C377 0.977 . S
H409 C379 0.948 . S
H410 C381 0.947 . S
H411 C382 0.948 . S
H412 C388 0.982 1_455 S
H413 C388 0.979 1_455 S
H414 C388 0.977 . S
H415 C389 0.979 . S
H416 C389 0.980 . S
H417 C389 0.983 . S
H418 C362 0.947 . S
C419 C362 1.392 . S
C419 C363 1.419 . S
C419 H401 0.948 . S
C420 C421 1.391 . S
C420 C424 1.391 . S
C420 H462 0.948 . S
C421 C420 1.391 . S
C421 C422 1.391 . S
C422 C421 1.391 . S
C422 H478 0.947 . S
C422 C479 1.392 . S
C423 C424 1.391 . S
C423 C427 1.397 . S
C423 C479 1.419 . S
C424 C420 1.391 . S
C424 C423 1.391 . S
C424 C425 1.399 . S
C425 C424 1.399 . S
C425 C428 1.396 . S
C425 C437 1.453 . S
C425 C438 1.684 . S
H426 C450 0.948 . S
C427 C423 1.397 . S
C427 C428 1.394 . S
C427 C446 1.723 . S
C428 C425 1.396 . S
C428 C427 1.394 . S
C428 C458 1.723 . S
H429 C452 0.947 . S
H430 C453 0.948 . S
H431 C459 0.982 . S
H432 C460 0.979 . S
H433 C460 0.980 . S
H434 C460 0.983 . S
H435 C459 0.979 . S
H436 C459 0.977 . S
C437 C425 1.453 . S
C437 H466 0.982 . S
C437 H467 0.979 . S
C437 H468 0.977 . S
C438 C425 1.684 . S
C438 H463 0.979 . S
C438 H464 0.980 . S
C438 H465 0.983 . S
C439 C440 1.391 . S
C439 C444 1.391 . S
C439 H469 0.948 . S
C440 C439 1.391 . S
C440 C441 1.391 . S
C441 C440 1.391 . S
C441 C442 1.392 . S
C441 H470 0.947 . S
C442 C441 1.392 . S
C442 C443 1.419 . S
C442 H471 0.948 . S
C443 C442 1.419 . S
C443 C444 1.391 . S
C443 C447 1.397 . S
C444 C439 1.391 . S
C444 C443 1.391 . S
C444 C445 1.399 . S
C445 C444 1.399 . S
C445 C446 1.396 . S
C445 C448 1.453 . S
C445 C449 1.684 . S
C446 C427 1.723 . S
C446 C445 1.396 . S
C446 C447 1.394 . S
C447 C443 1.397 . S
C447 C446 1.394 . S
C447 C457 1.723 . S
C448 C445 1.453 . S
C448 H472 0.982 . S
C448 H473 0.979 . S
C448 H474 0.977 . S
C449 C445 1.684 . S
C449 H475 0.979 . S
C449 H476 0.980 . S
C449 H477 0.983 . S
C450 H426 0.948 . S
C450 C451 1.391 . S
C450 C455 1.391 . S
C451 C450 1.391 . S
C451 C452 1.391 . S
C452 H429 0.947 . S
C452 C451 1.391 . S
C452 C453 1.392 . S
C453 H430 0.948 . S
C453 C452 1.392 . S
C453 C454 1.419 . S
C454 C453 1.419 . S
C454 C455 1.391 . S
C454 C458 1.397 . S
C455 C450 1.391 . S
C455 C454 1.391 . S
C455 C456 1.399 . S
C456 C455 1.399 . S
C456 C457 1.396 . S
C456 C459 1.453 . S
C456 C460 1.684 . S
C457 C447 1.723 . S
C457 C456 1.396 . S
C457 C458 1.394 . S
C458 C428 1.723 . S
C458 C454 1.397 . S
C458 C457 1.394 . S
C459 H431 0.982 . S
C459 H435 0.979 . S
C459 H436 0.977 . S
C459 C456 1.453 . S
C460 H432 0.979 . S
C460 H433 0.980 . S
C460 H434 0.983 . S
C460 C456 1.684 . S
H461 C479 0.948 . S
H462 C420 0.948 . S
H463 C438 0.979 . S
H464 C438 0.980 . S
H465 C438 0.983 . S
H466 C437 0.982 . S
H467 C437 0.979 . S
H468 C437 0.977 . S
H469 C439 0.948 . S
H470 C441 0.947 . S
H471 C442 0.948 . S
H472 C448 0.982 . S
H473 C448 0.979 . S
H474 C448 0.977 . S
H475 C449 0.979 . S
H476 C449 0.980 . S
H477 C449 0.983 . S
H478 C422 0.947 . S
C479 C422 1.392 . S
C479 C423 1.419 . S
C479 H461 0.948 . S
C480 C481 1.391 . S
C480 C484 1.391 . S
C480 H522 0.948 . S
C481 C480 1.391 . S
C481 C482 1.391 . S
C482 C481 1.391 . S
C482 H538 0.947 . S
C482 C539 1.392 . S
C483 C484 1.391 . S
C483 C487 1.397 . S
C483 C539 1.419 . S
C484 C480 1.391 . S
C484 C483 1.391 . S
C484 C485 1.399 . S
C485 C484 1.399 . S
C485 C488 1.396 . S
C485 C497 1.453 . S
C485 C498 1.684 . S
H486 C510 0.948 . S
C487 C483 1.397 . S
C487 C488 1.394 . S
C487 C506 1.723 . S
C488 C485 1.396 . S
C488 C487 1.394 . S
C488 C518 1.723 . S
H489 C512 0.947 . S
H490 C513 0.948 . S
H491 C519 0.982 . S
H492 C520 0.979 . S
H493 C520 0.980 . S
H494 C520 0.983 . S
H495 C519 0.979 . S
H496 C519 0.977 . S
C497 C485 1.453 . S
C497 H526 0.982 . S
C497 H527 0.979 . S
C497 H528 0.977 . S
C498 C485 1.684 . S
C498 H523 0.979 . S
C498 H524 0.980 . S
C498 H525 0.983 . S
C499 C500 1.391 . S
C499 C504 1.391 . S
C499 H529 0.948 . S
C500 C499 1.391 . S
C500 C501 1.391 . S
C501 C500 1.391 . S
C501 C502 1.392 . S
C501 H530 0.947 . S
C502 C501 1.392 . S
C502 C503 1.419 . S
C502 H531 0.948 . S
C503 C502 1.419 . S
C503 C504 1.391 . S
C503 C507 1.397 . S
C504 C499 1.391 . S
C504 C503 1.391 . S
C504 C505 1.399 . S
C505 C504 1.399 . S
C505 C506 1.396 . S
C505 C508 1.453 . S
C505 C509 1.684 . S
C506 C487 1.723 . S
C506 C505 1.396 . S
C506 C507 1.394 . S
C507 C503 1.397 . S
C507 C506 1.394 . S
C507 C517 1.723 . S
C508 C505 1.453 . S
C508 H532 0.982 . S
C508 H533 0.979 . S
C508 H534 0.977 . S
C509 C505 1.684 . S
C509 H535 0.979 . S
C509 H536 0.980 . S
C509 H537 0.983 . S
C510 H486 0.948 . S
C510 C511 1.391 . S
C510 C515 1.391 . S
C511 C510 1.391 . S
C511 C512 1.391 . S
C512 H489 0.947 . S
C512 C511 1.391 . S
C512 C513 1.392 . S
C513 H490 0.948 . S
C513 C512 1.392 . S
C513 C514 1.419 . S
C514 C513 1.419 . S
C514 C515 1.391 . S
C514 C518 1.397 . S
C515 C510 1.391 . S
C515 C514 1.391 . S
C515 C516 1.399 . S
C516 C515 1.399 . S
C516 C517 1.396 . S
C516 C519 1.453 . S
C516 C520 1.684 . S
C517 C507 1.723 . S
C517 C516 1.396 . S
C517 C518 1.394 . S
C518 C488 1.723 . S
C518 C514 1.397 . S
C518 C517 1.394 . S
C519 H491 0.982 . S
C519 H495 0.979 . S
C519 H496 0.977 . S
C519 C516 1.453 . S
C520 H492 0.979 . S
C520 H493 0.980 . S
C520 H494 0.983 . S
C520 C516 1.684 . S
H521 C539 0.948 . S
H522 C480 0.948 . S
H523 C498 0.979 . S
H524 C498 0.980 . S
H525 C498 0.983 . S
H526 C497 0.982 . S
H527 C497 0.979 . S
H528 C497 0.977 . S
H529 C499 0.948 . S
H530 C501 0.947 . S
H531 C502 0.948 . S
H532 C508 0.982 . S
H533 C508 0.979 . S
H534 C508 0.977 . S
H535 C509 0.979 . S
H536 C509 0.980 . S
H537 C509 0.983 . S
H538 C482 0.947 . S
C539 C482 1.392 . S
C539 C483 1.419 . S
C539 H521 0.948 . S
C540 C541 1.391 . S
C540 C544 1.391 . S
C540 H582 0.948 . S
C541 C540 1.391 . S
C541 C542 1.391 . S
C542 C541 1.391 . S
C542 H598 0.947 . S
C542 C599 1.392 . S
C543 C544 1.391 . S
C543 C547 1.397 . S
C543 C599 1.419 . S
C544 C540 1.391 . S
C544 C543 1.391 . S
C544 C545 1.399 . S
C545 C544 1.399 . S
C545 C548 1.396 . S
C545 C557 1.453 . S
C545 C558 1.684 . S
H546 C570 0.948 . S
C547 C543 1.397 . S
C547 C548 1.394 . S
C547 C566 1.723 . S
C548 C545 1.396 . S
C548 C547 1.394 . S
C548 C578 1.723 . S
H549 C572 0.947 . S
H550 C573 0.948 . S
H551 C579 0.982 . S
H552 C580 0.979 . S
H553 C580 0.980 . S
H554 C580 0.983 . S
H555 C579 0.979 . S
H556 C579 0.977 . S
C557 C545 1.453 . S
C557 H586 0.982 . S
C557 H587 0.979 . S
C557 H588 0.977 . S
C558 C545 1.684 . S
C558 H583 0.979 . S
C558 H584 0.980 . S
C558 H585 0.983 . S
C559 C560 1.391 . S
C559 C564 1.391 . S
C559 H589 0.948 . S
C560 C559 1.391 . S
C560 C561 1.391 . S
C561 C560 1.391 . S
C561 C562 1.392 . S
C561 H590 0.947 . S
C562 C561 1.392 . S
C562 C563 1.419 . S
C562 H591 0.948 . S
C563 C562 1.419 . S
C563 C564 1.391 . S
C563 C567 1.397 . S
C564 C559 1.391 . S
C564 C563 1.391 . S
C564 C565 1.399 . S
C565 C564 1.399 . S
C565 C566 1.396 . S
C565 C568 1.453 . S
C565 C569 1.684 . S
C566 C547 1.723 . S
C566 C565 1.396 . S
C566 C567 1.394 . S
C567 C563 1.397 . S
C567 C566 1.394 . S
C567 C577 1.723 . S
C568 C565 1.453 . S
C568 H592 0.982 . S
C568 H593 0.979 . S
C568 H594 0.977 . S
C569 C565 1.684 . S
C569 H595 0.979 . S
C569 H596 0.980 . S
C569 H597 0.983 . S
C570 H546 0.948 . S
C570 C571 1.391 . S
C570 C575 1.391 . S
C571 C570 1.391 . S
C571 C572 1.391 . S
C572 H549 0.947 . S
C572 C571 1.391 . S
C572 C573 1.392 . S
C573 H550 0.948 . S
C573 C572 1.392 . S
C573 C574 1.419 . S
C574 C573 1.419 . S
C574 C575 1.391 . S
C574 C578 1.397 . S
C575 C570 1.391 . S
C575 C574 1.391 . S
C575 C576 1.399 . S
C576 C575 1.399 . S
C576 C577 1.396 . S
C576 C579 1.453 . S
C576 C580 1.684 . S
C577 C567 1.723 . S
C577 C576 1.396 . S
C577 C578 1.394 . S
C578 C548 1.723 . S
C578 C574 1.397 . S
C578 C577 1.394 . S
C579 H551 0.982 . S
C579 H555 0.979 . S
C579 H556 0.977 . S
C579 C576 1.453 . S
C580 H552 0.979 . S
C580 H553 0.980 . S
C580 H554 0.983 . S
C580 C576 1.684 . S
H581 C599 0.948 . S
H582 C540 0.948 . S
H583 C558 0.979 . S
H584 C558 0.980 . S
H585 C558 0.983 . S
H586 C557 0.982 . S
H587 C557 0.979 . S
H588 C557 0.977 . S
H589 C559 0.948 . S
H590 C561 0.947 . S
H591 C562 0.948 . S
H592 C568 0.982 . S
H593 C568 0.979 . S
H594 C568 0.977 . S
H595 C569 0.979 . S
H596 C569 0.980 . S
H597 C569 0.983 . S
H598 C542 0.947 . S
C599 C542 1.392 . S
C599 C543 1.419 . S
C599 H581 0.948 . S
C600 C601 1.391 . S
C600 C604 1.391 . S
C600 H642 0.948 . S
C601 C600 1.391 . S
C601 C602 1.391 . S
C602 C601 1.391 . S
C602 H658 0.947 . S
C602 C659 1.392 . S
C603 C604 1.391 . S
C603 C607 1.397 . S
C603 C659 1.419 . S
C604 C600 1.391 . S
C604 C603 1.391 . S
C604 C605 1.399 . S
C605 C604 1.399 . S
C605 C608 1.396 . S
C605 C617 1.453 . S
C605 C618 1.684 . S
H606 C630 0.948 . S
C607 C603 1.397 . S
C607 C608 1.394 . S
C607 C626 1.723 . S
C608 C605 1.396 . S
C608 C607 1.394 . S
C608 C638 1.723 . S
H609 C632 0.947 1_554 S
H610 C633 0.948 . S
H611 C639 0.982 . S
H612 C640 0.979 . S
H613 C640 0.980 . S
H614 C640 0.983 . S
H615 C639 0.979 . S
H616 C639 0.977 . S
C617 C605 1.453 . S
C617 H646 0.982 . S
C617 H647 0.979 . S
C617 H648 0.977 . S
C618 C605 1.684 . S
C618 H643 0.979 . S
C618 H644 0.987 . S
C618 H645 0.983 1_556 S
C619 C620 1.391 . S
C619 C624 1.391 . S
C619 H649 0.948 . S
C620 C619 1.391 . S
C620 C621 1.391 . S
C621 C620 1.391 . S
C621 C622 1.392 . S
C621 H650 0.947 . S
C622 C621 1.392 . S
C622 C623 1.419 . S
C622 H651 0.948 . S
C623 C622 1.419 . S
C623 C624 1.391 . S
C623 C627 1.397 . S
C624 C619 1.391 . S
C624 C623 1.391 . S
C624 C625 1.399 . S
C625 C624 1.399 . S
C625 C626 1.396 . S
C625 C628 1.453 . S
C625 C629 1.684 . S
C626 C607 1.723 . S
C626 C625 1.396 . S
C626 C627 1.394 . S
C627 C623 1.397 . S
C627 C626 1.394 . S
C627 C637 1.723 . S
C628 C625 1.453 . S
C628 H652 0.982 . S
C628 H653 0.979 . S
C628 H654 0.977 . S
C629 C625 1.684 . S
C629 H655 0.979 . S
C629 H656 0.980 . S
C629 H657 0.983 . S
C630 H606 0.948 . S
C630 C631 1.391 . S
C630 C635 1.391 . S
C631 C630 1.391 . S
C631 C632 1.391 . S
C632 H609 0.947 1_556 S
C632 C631 1.391 . S
C632 C633 1.392 . S
C633 H610 0.948 . S
C633 C632 1.392 . S
C633 C634 1.419 . S
C634 C633 1.419 . S
C634 C635 1.391 . S
C634 C638 1.397 . S
C635 C630 1.391 . S
C635 C634 1.391 . S
C635 C636 1.399 . S
C636 C635 1.399 . S
C636 C637 1.396 . S
C636 C639 1.453 . S
C636 C640 1.684 . S
C637 C627 1.723 . S
C637 C636 1.396 . S
C637 C638 1.394 . S
C638 C608 1.723 . S
C638 C634 1.397 . S
C638 C637 1.394 . S
C639 H611 0.982 . S
C639 H615 0.979 . S
C639 H616 0.977 . S
C639 C636 1.453 . S
C640 H612 0.979 . S
C640 H613 0.980 . S
C640 H614 0.983 . S
C640 C636 1.684 . S
H641 C659 0.948 . S
H642 C600 0.948 . S
H643 C618 0.979 . S
H644 C618 0.987 . S
H645 C618 0.983 1_554 S
H646 C617 0.982 . S
H647 C617 0.979 . S
H648 C617 0.977 . S
H649 C619 0.948 . S
H650 C621 0.947 . S
H651 C622 0.948 . S
H652 C628 0.982 . S
H653 C628 0.979 . S
H654 C628 0.977 . S
H655 C629 0.979 . S
H656 C629 0.980 . S
H657 C629 0.983 . S
H658 C602 0.947 . S
C659 C602 1.392 . S
C659 C603 1.419 . S
C659 H641 0.948 . S
C660 C661 1.391 . S
C660 C664 1.391 . S
C660 H702 0.948 . S
C661 C660 1.391 . S
C661 C662 1.391 . S
C662 C661 1.391 . S
C662 H718 0.947 . S
C662 C719 1.392 . S
C663 C664 1.391 . S
C663 C667 1.397 . S
C663 C719 1.419 . S
C664 C660 1.391 . S
C664 C663 1.391 . S
C664 C665 1.399 . S
C665 C664 1.399 . S
C665 C668 1.396 . S
C665 C677 1.453 . S
C665 C678 1.684 . S
H666 C690 0.948 . S
C667 C663 1.397 . S
C667 C668 1.394 . S
C667 C686 1.723 . S
C668 C665 1.396 . S
C668 C667 1.394 . S
C668 C698 1.723 . S
H669 C692 0.947 . S
H670 C693 0.948 . S
H671 C699 0.982 . S
H672 C700 0.979 . S
H673 C700 0.980 . S
H674 C700 0.983 . S
H675 C699 0.979 . S
H676 C699 0.977 . S
C677 C665 1.453 . S
C677 H706 0.982 . S
C677 H707 0.979 . S
C677 H708 0.977 . S
C678 C665 1.684 . S
C678 H703 0.979 . S
C678 H704 0.980 . S
C678 H705 0.983 . S
C679 C680 1.391 . S
C679 C684 1.391 . S
C679 H709 0.948 . S
C680 C679 1.391 . S
C680 C681 1.391 . S
C681 C680 1.391 . S
C681 C682 1.392 . S
C681 H710 0.947 . S
C682 C681 1.392 . S
C682 C683 1.419 . S
C682 H711 0.948 . S
C683 C682 1.419 . S
C683 C684 1.391 . S
C683 C687 1.397 . S
C684 C679 1.391 . S
C684 C683 1.391 . S
C684 C685 1.399 . S
C685 C684 1.399 . S
C685 C686 1.396 . S
C685 C688 1.453 . S
C685 C689 1.684 . S
C686 C667 1.723 . S
C686 C685 1.396 . S
C686 C687 1.394 . S
C687 C683 1.397 . S
C687 C686 1.394 . S
C687 C697 1.723 . S
C688 C685 1.453 . S
C688 H712 0.982 . S
C688 H713 0.979 . S
C688 H714 0.977 . S
C689 C685 1.684 . S
C689 H715 0.979 . S
C689 H716 0.980 . S
C689 H717 0.983 . S
C690 H666 0.948 . S
C690 C691 1.391 . S
C690 C695 1.391 . S
C691 C690 1.391 . S
C691 C692 1.391 . S
C692 H669 0.947 . S
C692 C691 1.391 . S
C692 C693 1.392 . S
C693 H670 0.948 . S
C693 C692 1.392 . S
C693 C694 1.419 . S
C694 C693 1.419 . S
C694 C695 1.391 . S
C694 C698 1.397 . S
C695 C690 1.391 . S
C695 C694 1.391 . S
C695 C696 1.399 . S
C696 C695 1.399 . S
C696 C697 1.396 . S
C696 C699 1.453 . S
C696 C700 1.684 . S
C697 C687 1.723 . S
C697 C696 1.396 . S
C697 C698 1.394 . S
C698 C668 1.723 . S
C698 C694 1.397 . S
C698 C697 1.394 . S
C699 H671 0.982 . S
C699 H675 0.979 . S
C699 H676 0.977 . S
C699 C696 1.453 . S
C700 H672 0.979 . S
C700 H673 0.980 . S
C700 H674 0.983 . S
C700 C696 1.684 . S
H701 C719 0.948 . S
H702 C660 0.948 . S
H703 C678 0.979 . S
H704 C678 0.980 . S
H705 C678 0.983 . S
H706 C677 0.982 . S
H707 C677 0.979 . S
H708 C677 0.977 . S
H709 C679 0.948 . S
H710 C681 0.947 . S
H711 C682 0.948 . S
H712 C688 0.982 . S
H713 C688 0.979 . S
H714 C688 0.977 . S
H715 C689 0.979 . S
H716 C689 0.980 . S
H717 C689 0.983 . S
H718 C662 0.947 . S
C719 C662 1.392 . S
C719 C663 1.419 . S
C719 H701 0.948 . S
C720 C721 1.391 . S
C720 C724 1.391 . S
C720 H762 0.948 . S
C721 C720 1.391 . S
C721 C722 1.391 . S
C722 C721 1.391 . S
C722 H778 0.947 . S
C722 C779 1.392 . S
C723 C724 1.391 . S
C723 C727 1.397 . S
C723 C779 1.419 . S
C724 C720 1.391 . S
C724 C723 1.391 . S
C724 C725 1.399 . S
C725 C724 1.399 . S
C725 C728 1.396 . S
C725 C737 1.453 . S
C725 C738 1.684 . S
H726 C750 0.948 . S
C727 C723 1.397 . S
C727 C728 1.394 . S
C727 C746 1.723 . S
C728 C725 1.396 . S
C728 C727 1.394 . S
C728 C758 1.723 . S
H729 C752 0.947 1_556 S
H730 C753 0.948 . S
H731 C759 0.982 . S
H732 C760 0.979 . S
H733 C760 0.980 . S
H734 C760 0.983 . S
H735 C759 0.979 . S
H736 C759 0.977 . S
C737 C725 1.453 . S
C737 H766 0.982 . S
C737 H767 0.940 1_554 S
C737 H768 0.977 . S
C738 C725 1.684 . S
C738 H763 0.979 . S
C738 H764 0.980 . S
C738 H765 0.928 1_554 S
C739 C740 1.391 . S
C739 C744 1.391 . S
C739 H769 0.948 . S
C740 C739 1.391 . S
C740 C741 1.391 . S
C741 C740 1.391 . S
C741 C742 1.392 . S
C741 H770 0.947 . S
C742 C741 1.392 . S
C742 C743 1.419 . S
C742 H771 0.948 . S
C743 C742 1.419 . S
C743 C744 1.391 . S
C743 C747 1.397 . S
C744 C739 1.391 . S
C744 C743 1.391 . S
C744 C745 1.399 . S
C745 C744 1.399 . S
C745 C746 1.396 . S
C745 C748 1.453 . S
C745 C749 1.684 . S
C746 C727 1.723 . S
C746 C745 1.396 . S
C746 C747 1.394 . S
C747 C743 1.397 . S
C747 C746 1.394 . S
C747 C757 1.723 . S
C748 C745 1.453 . S
C748 H772 0.982 . S
C748 H773 0.979 . S
C748 H774 0.977 . S
C749 C745 1.684 . S
C749 H775 0.979 . S
C749 H776 0.980 . S
C749 H777 0.983 . S
C750 H726 0.948 . S
C750 C751 1.391 . S
C750 C755 1.391 . S
C751 C750 1.391 . S
C751 C752 1.391 . S
C752 H729 0.947 1_554 S
C752 C751 1.391 . S
C752 C753 1.392 . S
C753 H730 0.948 . S
C753 C752 1.392 . S
C753 C754 1.419 . S
C754 C753 1.419 . S
C754 C755 1.391 . S
C754 C758 1.397 . S
C755 C750 1.391 . S
C755 C754 1.391 . S
C755 C756 1.399 . S
C756 C755 1.399 . S
C756 C757 1.396 . S
C756 C759 1.453 . S
C756 C760 1.684 . S
C757 C747 1.723 . S
C757 C756 1.396 . S
C757 C758 1.394 . S
C758 C728 1.723 . S
C758 C754 1.397 . S
C758 C757 1.394 . S
C759 H731 0.982 . S
C759 H735 0.979 . S
C759 H736 0.977 . S
C759 C756 1.453 . S
C760 H732 0.979 . S
C760 H733 0.980 . S
C760 H734 0.983 . S
C760 C756 1.684 . S
H761 C779 0.948 . S
H762 C720 0.948 . S
H763 C738 0.979 . S
H764 C738 0.980 . S
H765 C738 0.928 1_556 S
H766 C737 0.982 . S
H767 C737 0.940 1_556 S
H768 C737 0.977 . S
H769 C739 0.948 . S
H770 C741 0.947 . S
H771 C742 0.948 . S
H772 C748 0.982 . S
H773 C748 0.979 . S
H774 C748 0.977 . S
H775 C749 0.979 . S
H776 C749 0.980 . S
H777 C749 0.983 . S
H778 C722 0.947 . S
C779 C722 1.392 . S
C779 C723 1.419 . S
C779 H761 0.948 . S
C780 C781 1.391 . S
C780 C784 1.391 . S
C780 H822 0.948 . S
C781 C780 1.391 . S
C781 C782 1.391 . S
C782 C781 1.391 . S
C782 H838 0.947 . S
C782 C839 1.392 . S
C783 C784 1.391 . S
C783 C787 1.397 . S
C783 C839 1.419 . S
C784 C780 1.391 . S
C784 C783 1.391 . S
C784 C785 1.399 . S
C785 C784 1.399 . S
C785 C788 1.396 . S
C785 C797 1.453 . S
C785 C798 1.684 . S
H786 C810 0.948 . S
C787 C783 1.397 . S
C787 C788 1.394 . S
C787 C806 1.723 . S
C788 C785 1.396 . S
C788 C787 1.394 . S
C788 C818 1.723 . S
H789 C812 0.947 . S
H790 C813 0.948 . S
H791 C819 0.982 . S
H792 C820 0.979 . S
H793 C820 0.980 . S
H794 C820 0.983 . S
H795 C819 0.979 . S
H796 C819 0.977 . S
C797 C785 1.453 . S
C797 H826 0.982 . S
C797 H827 0.979 . S
C797 H828 0.977 . S
C798 C785 1.684 . S
C798 H823 0.979 . S
C798 H824 0.980 . S
C798 H825 0.983 . S
C799 C800 1.391 . S
C799 C804 1.391 . S
C799 H829 0.948 . S
C800 C799 1.391 . S
C800 C801 1.391 . S
C801 C800 1.391 . S
C801 C802 1.392 . S
C801 H830 0.947 . S
C802 C801 1.392 . S
C802 C803 1.419 . S
C802 H831 0.948 . S
C803 C802 1.419 . S
C803 C804 1.391 . S
C803 C807 1.397 . S
C804 C799 1.391 . S
C804 C803 1.391 . S
C804 C805 1.399 . S
C805 C804 1.399 . S
C805 C806 1.396 . S
C805 C808 1.453 . S
C805 C809 1.684 . S
C806 C787 1.723 . S
C806 C805 1.396 . S
C806 C807 1.394 . S
C807 C803 1.397 . S
C807 C806 1.394 . S
C807 C817 1.723 . S
C808 C805 1.453 . S
C808 H832 0.982 . S
C808 H833 0.979 . S
C808 H834 0.977 . S
C809 C805 1.684 . S
C809 H835 0.979 . S
C809 H836 0.980 . S
C809 H837 0.983 . S
C810 H786 0.948 . S
C810 C811 1.391 . S
C810 C815 1.391 . S
C811 C810 1.391 . S
C811 C812 1.391 . S
C812 H789 0.947 . S
C812 C811 1.391 . S
C812 C813 1.392 . S
C813 H790 0.948 . S
C813 C812 1.392 . S
C813 C814 1.419 . S
C814 C813 1.419 . S
C814 C815 1.391 . S
C814 C818 1.397 . S
C815 C810 1.391 . S
C815 C814 1.391 . S
C815 C816 1.399 . S
C816 C815 1.399 . S
C816 C817 1.396 . S
C816 C819 1.453 . S
C816 C820 1.684 . S
C817 C807 1.723 . S
C817 C816 1.396 . S
C817 C818 1.394 . S
C818 C788 1.723 . S
C818 C814 1.397 . S
C818 C817 1.394 . S
C819 H791 0.982 . S
C819 H795 0.979 . S
C819 H796 0.977 . S
C819 C816 1.453 . S
C820 H792 0.979 . S
C820 H793 0.980 . S
C820 H794 0.983 . S
C820 C816 1.684 . S
H821 C839 0.948 . S
H822 C780 0.948 . S
H823 C798 0.979 . S
H824 C798 0.980 . S
H825 C798 0.983 . S
H826 C797 0.982 . S
H827 C797 0.979 . S
H828 C797 0.977 . S
H829 C799 0.948 . S
H830 C801 0.947 . S
H831 C802 0.948 . S
H832 C808 0.982 . S
H833 C808 0.979 . S
H834 C808 0.977 . S
H835 C809 0.979 . S
H836 C809 0.980 . S
H837 C809 0.983 . S
H838 C782 0.947 . S
C839 C782 1.392 . S
C839 C783 1.419 . S
C839 H821 0.948 . S
C840 C841 1.391 . S
C840 C844 1.391 . S
C840 H882 0.948 . S
C841 C840 1.391 . S
C841 C842 1.391 . S
C842 C841 1.391 . S
C842 H898 0.947 . S
C842 C899 1.392 . S
C843 C844 1.391 . S
C843 C847 1.397 . S
C843 C899 1.419 . S
C844 C840 1.391 . S
C844 C843 1.391 . S
C844 C845 1.399 . S
C845 C844 1.399 . S
C845 C848 1.396 . S
C845 C857 1.453 . S
C845 C858 1.684 . S
H846 C870 0.948 . S
C847 C843 1.397 . S
C847 C848 1.394 . S
C847 C866 1.723 . S
C848 C845 1.396 . S
C848 C847 1.394 . S
C848 C878 1.723 . S
H849 C872 0.947 . S
H850 C873 0.948 . S
H851 C879 0.982 . S
H852 C880 0.979 . S
H853 C880 0.980 . S
H854 C880 0.983 . S
H855 C879 0.979 . S
H856 C879 0.977 . S
C857 C845 1.453 . S
C857 H886 0.982 . S
C857 H887 0.979 . S
C857 H888 0.977 . S
C858 C845 1.684 . S
C858 H883 0.979 . S
C858 H884 0.980 . S
C858 H885 0.983 . S
C859 C860 1.391 . S
C859 C864 1.391 . S
C859 H889 0.948 . S
C860 C859 1.391 . S
C860 C861 1.391 . S
C861 C860 1.391 . S
C861 C862 1.392 . S
C861 H890 0.947 . S
C862 C861 1.392 . S
C862 C863 1.419 . S
C862 H891 0.948 . S
C863 C862 1.419 . S
C863 C864 1.391 . S
C863 C867 1.397 . S
C864 C859 1.391 . S
C864 C863 1.391 . S
C864 C865 1.399 . S
C865 C864 1.399 . S
C865 C866 1.396 . S
C865 C868 1.453 . S
C865 C869 1.684 . S
C866 C847 1.723 . S
C866 C865 1.396 . S
C866 C867 1.394 . S
C867 C863 1.397 . S
C867 C866 1.394 . S
C867 C877 1.723 . S
C868 C865 1.453 . S
C868 H892 0.982 . S
C868 H893 0.979 . S
C868 H894 0.977 . S
C869 C865 1.684 . S
C869 H895 0.979 . S
C869 H896 0.980 . S
C869 H897 0.983 . S
C870 H846 0.948 . S
C870 C871 1.391 . S
C870 C875 1.391 . S
C871 C870 1.391 . S
C871 C872 1.391 . S
C872 H849 0.947 . S
C872 C871 1.391 . S
C872 C873 1.392 . S
C873 H850 0.948 . S
C873 C872 1.392 . S
C873 C874 1.419 . S
C874 C873 1.419 . S
C874 C875 1.391 . S
C874 C878 1.397 . S
C875 C870 1.391 . S
C875 C874 1.391 . S
C875 C876 1.399 . S
C876 C875 1.399 . S
C876 C877 1.396 . S
C876 C879 1.453 . S
C876 C880 1.684 . S
C877 C867 1.723 . S
C877 C876 1.396 . S
C877 C878 1.394 . S
C878 C848 1.723 . S
C878 C874 1.397 . S
C878 C877 1.394 . S
C879 H851 0.982 . S
C879 H855 0.979 . S
C879 H856 0.977 . S
C879 C876 1.453 . S
C880 H852 0.979 . S
C880 H853 0.980 . S
C880 H854 0.983 . S
C880 C876 1.684 . S
H881 C899 0.948 . S
H882 C840 0.948 . S
H883 C858 0.979 . S
H884 C858 0.980 . S
H885 C858 0.983 . S
H886 C857 0.982 . S
H887 C857 0.979 . S
H888 C857 0.977 . S
H889 C859 0.948 . S
H890 C861 0.947 . S
H891 C862 0.948 . S
H892 C868 0.982 . S
H893 C868 0.979 . S
H894 C868 0.977 . S
H895 C869 0.979 . S
H896 C869 0.980 . S
H897 C869 0.983 . S
H898 C842 0.947 . S
C899 C842 1.392 . S
C899 C843 1.419 . S
C899 H881 0.948 . S
C900 C901 1.391 . S
C900 C904 1.391 . S
C900 H942 0.948 . S
C901 C900 1.391 . S
C901 C902 1.391 . S
C902 C901 1.391 . S
C902 H958 0.947 . S
C902 C959 1.392 . S
C903 C904 1.391 . S
C903 C907 1.397 . S
C903 C959 1.419 . S
C904 C900 1.391 . S
C904 C903 1.391 . S
C904 C905 1.399 . S
C905 C904 1.399 . S
C905 C908 1.396 . S
C905 C917 1.453 . S
C905 C918 1.684 . S
H906 C930 0.948 . S
C907 C903 1.397 . S
C907 C908 1.394 . S
C907 C926 1.723 . S
C908 C905 1.396 . S
C908 C907 1.394 . S
C908 C938 1.723 . S
H909 C932 0.947 . S
H910 C933 0.948 . S
H911 C939 0.982 . S
H912 C940 0.979 . S
H913 C940 0.980 . S
H914 C940 0.983 . S
H915 C939 0.979 . S
H916 C939 0.977 . S
C917 C905 1.453 . S
C917 H946 0.982 . S
C917 H947 0.979 . S
C917 H948 0.977 . S
C918 C905 1.684 . S
C918 H943 0.979 . S
C918 H944 0.980 . S
C918 H945 0.983 . S
C919 C920 1.391 . S
C919 C924 1.391 . S
C919 H949 0.948 . S
C920 C919 1.391 . S
C920 C921 1.391 . S
C921 C920 1.391 . S
C921 C922 1.392 . S
C921 H950 0.947 . S
C922 C921 1.392 . S
C922 C923 1.419 . S
C922 H951 0.948 . S
C923 C922 1.419 . S
C923 C924 1.391 . S
C923 C927 1.397 . S
C924 C919 1.391 . S
C924 C923 1.391 . S
C924 C925 1.399 . S
C925 C924 1.399 . S
C925 C926 1.396 . S
C925 C928 1.453 . S
C925 C929 1.684 . S
C926 C907 1.723 . S
C926 C925 1.396 . S
C926 C927 1.394 . S
C927 C923 1.397 . S
C927 C926 1.394 . S
C927 C937 1.723 . S
C928 C925 1.453 . S
C928 H952 0.982 . S
C928 H953 0.979 . S
C928 H954 0.977 . S
C929 C925 1.684 . S
C929 H955 0.979 . S
C929 H956 0.980 . S
C929 H957 0.983 . S
C930 H906 0.948 . S
C930 C931 1.391 . S
C930 C935 1.391 . S
C931 C930 1.391 . S
C931 C932 1.391 . S
C932 H909 0.947 . S
C932 C931 1.391 . S
C932 C933 1.392 . S
C933 H910 0.948 . S
C933 C932 1.392 . S
C933 C934 1.419 . S
C934 C933 1.419 . S
C934 C935 1.391 . S
C934 C938 1.397 . S
C935 C930 1.391 . S
C935 C934 1.391 . S
C935 C936 1.399 . S
C936 C935 1.399 . S
C936 C937 1.396 . S
C936 C939 1.453 . S
C936 C940 1.684 . S
C937 C927 1.723 . S
C937 C936 1.396 . S
C937 C938 1.394 . S
C938 C908 1.723 . S
C938 C934 1.397 . S
C938 C937 1.394 . S
C939 H911 0.982 . S
C939 H915 0.979 . S
C939 H916 0.977 . S
C939 C936 1.453 . S
C940 H912 0.979 . S
C940 H913 0.980 . S
C940 H914 0.983 . S
C940 C936 1.684 . S
H941 C959 0.948 . S
H942 C900 0.948 . S
H943 C918 0.979 . S
H944 C918 0.980 . S
H945 C918 0.983 . S
H946 C917 0.982 . S
H947 C917 0.979 . S
H948 C917 0.977 . S
H949 C919 0.948 . S
H950 C921 0.947 . S
H951 C922 0.948 . S
H952 C928 0.982 . S
H953 C928 0.979 . S
H954 C928 0.977 . S
H955 C929 0.979 . S
H956 C929 0.980 . S
H957 C929 0.983 . S
H958 C902 0.947 . S
C959 C902 1.392 . S
C959 C903 1.419 . S
C959 H941 0.948 . S
C960 C961 1.391 . S
C960 C964 1.391 . S
C960 H1002 0.948 . S
C961 C960 1.391 . S
C961 C962 1.391 . S
C962 C961 1.391 . S
C962 H1018 0.947 . S
C962 C1019 1.392 . S
C963 C964 1.391 . S
C963 C967 1.397 . S
C963 C1019 1.419 . S
C964 C960 1.391 . S
C964 C963 1.391 . S
C964 C965 1.399 . S
C965 C964 1.399 . S
C965 C968 1.396 . S
C965 C977 1.453 . S
C965 C978 1.684 . S
H966 C990 0.948 . S
C967 C963 1.397 . S
C967 C968 1.394 . S
C967 C986 1.723 . S
C968 C965 1.396 . S
C968 C967 1.394 . S
C968 C998 1.723 . S
H969 C992 0.947 . S
H970 C993 0.948 . S
H971 C999 0.982 . S
H972 C1000 0.979 1_655 S
H973 C1000 0.975 . S
H974 C1000 0.983 . S
H975 C999 0.979 . S
H976 C999 0.977 . S
C977 C965 1.453 . S
C977 H1006 0.982 . S
C977 H1007 0.979 . S
C977 H1008 0.977 . S
C978 C965 1.684 . S
C978 H1003 0.979 . S
C978 H1004 0.980 . S
C978 H1005 0.983 . S
C979 C980 1.391 1_455 S
C979 C984 1.391 . S
C979 H1009 0.946 . S
C980 C979 1.391 1_655 S
C980 C981 1.391 1_655 S
C981 C980 1.391 1_455 S
C981 C982 1.392 . S
C981 H1010 0.946 . S
C982 C981 1.392 . S
C982 C983 1.419 . S
C982 H1011 0.948 . S
C983 C982 1.419 . S
C983 C984 1.391 . S
C983 C987 1.397 . S
C984 C979 1.391 . S
C984 C983 1.391 . S
C984 C985 1.399 . S
C985 C984 1.399 . S
C985 C986 1.396 . S
C985 C988 1.453 . S
C985 C989 1.684 1_455 S
C986 C967 1.723 . S
C986 C985 1.396 . S
C986 C987 1.394 . S
C987 C983 1.397 . S
C987 C986 1.394 . S
C987 C997 1.723 . S
C988 C985 1.453 . S
C988 H1012 0.982 . S
C988 H1013 0.979 . S
C988 H1014 0.977 . S
C989 C985 1.684 1_655 S
C989 H1015 0.979 . S
C989 H1016 0.980 1_655 S
C989 H1017 0.983 . S
C990 H966 0.948 . S
C990 C991 1.391 . S
C990 C995 1.391 . S
C991 C990 1.391 . S
C991 C992 1.391 . S
C992 H969 0.947 . S
C992 C991 1.391 . S
C992 C993 1.392 . S
C993 H970 0.948 . S
C993 C992 1.392 . S
C993 C994 1.419 . S
C994 C993 1.419 . S
C994 C995 1.391 . S
C994 C998 1.397 . S
C995 C990 1.391 . S
C995 C994 1.391 . S
C995 C996 1.399 . S
C996 C995 1.399 . S
C996 C997 1.396 . S
C996 C999 1.453 . S
C996 C1000 1.684 . S
C997 C987 1.723 . S
C997 C996 1.396 . S
C997 C998 1.394 . S
C998 C968 1.723 . S
C998 C994 1.397 . S
C998 C997 1.394 . S
C999 H971 0.982 . S
C999 H975 0.979 . S
C999 H976 0.977 . S
C999 C996 1.453 . S
C1000 H972 0.979 1_455 S
C1000 H973 0.975 . S
C1000 H974 0.983 . S
C1000 C996 1.684 . S
H1001 C1019 0.948 . S
H1002 C960 0.948 . S
H1003 C978 0.979 . S
H1004 C978 0.980 . S
H1005 C978 0.983 . S
H1006 C977 0.982 . S
H1007 C977 0.979 . S
H1008 C977 0.977 . S
H1009 C979 0.946 . S
H1010 C981 0.946 . S
H1011 C982 0.948 . S
H1012 C988 0.982 . S
H1013 C988 0.979 . S
H1014 C988 0.977 . S
H1015 C989 0.979 . S
H1016 C989 0.980 1_455 S
H1017 C989 0.983 . S
H1018 C962 0.947 . S
C1019 C962 1.392 . S
C1019 C963 1.419 . S
C1019 H1001 0.948 . S
C1020 C1021 1.391 . S
C1020 C1024 1.391 . S
C1020 H1062 0.948 . S
C1021 C1020 1.391 . S
C1021 C1022 1.391 . S
C1022 C1021 1.391 . S
C1022 H1078 0.947 . S
C1022 C1079 1.392 . S
C1023 C1024 1.391 . S
C1023 C1027 1.397 . S
C1023 C1079 1.419 . S
C1024 C1020 1.391 . S
C1024 C1023 1.391 . S
C1024 C1025 1.399 . S
C1025 C1024 1.399 . S
C1025 C1028 1.396 . S
C1025 C1037 1.453 . S
C1025 C1038 1.684 . S
H1026 C1050 0.948 . S
C1027 C1023 1.397 . S
C1027 C1028 1.394 . S
C1027 C1046 1.723 . S
C1028 C1025 1.396 . S
C1028 C1027 1.394 . S
C1028 C1058 1.723 . S
H1029 C1052 0.947 . S
H1030 C1053 0.948 . S
H1031 C1059 0.982 . S
H1032 C1060 0.979 . S
H1033 C1060 0.980 . S
H1034 C1060 0.983 . S
H1035 C1059 0.979 . S
H1036 C1059 0.977 . S
C1037 C1025 1.453 . S
C1037 H1066 0.982 . S
C1037 H1067 0.979 . S
C1037 H1068 0.977 . S
C1038 C1025 1.684 . S
C1038 H1063 0.979 . S
C1038 H1064 0.980 . S
C1038 H1065 0.983 . S
C1039 C1040 1.391 . S
C1039 C1044 1.391 . S
C1039 H1069 0.948 . S
C1040 C1039 1.391 . S
C1040 C1041 1.391 . S
C1041 C1040 1.391 . S
C1041 C1042 1.392 . S
C1041 H1070 0.947 . S
C1042 C1041 1.392 . S
C1042 C1043 1.419 . S
C1042 H1071 0.948 . S
C1043 C1042 1.419 . S
C1043 C1044 1.391 . S
C1043 C1047 1.397 . S
C1044 C1039 1.391 . S
C1044 C1043 1.391 . S
C1044 C1045 1.399 . S
C1045 C1044 1.399 . S
C1045 C1046 1.396 . S
C1045 C1048 1.453 . S
C1045 C1049 1.684 . S
C1046 C1027 1.723 . S
C1046 C1045 1.396 . S
C1046 C1047 1.394 . S
C1047 C1043 1.397 . S
C1047 C1046 1.394 . S
C1047 C1057 1.723 . S
C1048 C1045 1.453 . S
C1048 H1072 0.982 . S
C1048 H1073 0.979 . S
C1048 H1074 0.977 . S
C1049 C1045 1.684 . S
C1049 H1075 0.979 . S
C1049 H1076 0.980 . S
C1049 H1077 0.983 . S
C1050 H1026 0.948 . S
C1050 C1051 1.391 . S
C1050 C1055 1.391 . S
C1051 C1050 1.391 . S
C1051 C1052 1.391 . S
C1052 H1029 0.947 . S
C1052 C1051 1.391 . S
C1052 C1053 1.392 . S
C1053 H1030 0.948 . S
C1053 C1052 1.392 . S
C1053 C1054 1.419 . S
C1054 C1053 1.419 . S
C1054 C1055 1.391 . S
C1054 C1058 1.397 . S
C1055 C1050 1.391 . S
C1055 C1054 1.391 . S
C1055 C1056 1.399 . S
C1056 C1055 1.399 . S
C1056 C1057 1.396 . S
C1056 C1059 1.453 . S
C1056 C1060 1.684 . S
C1057 C1047 1.723 . S
C1057 C1056 1.396 . S
C1057 C1058 1.394 . S
C1058 C1028 1.723 . S
C1058 C1054 1.397 . S
C1058 C1057 1.394 . S
C1059 H1031 0.982 . S
C1059 H1035 0.979 . S
C1059 H1036 0.977 . S
C1059 C1056 1.453 . S
C1060 H1032 0.979 . S
C1060 H1033 0.980 . S
C1060 H1034 0.983 . S
C1060 C1056 1.684 . S
H1061 C1079 0.948 . S
H1062 C1020 0.948 . S
H1063 C1038 0.979 . S
H1064 C1038 0.980 . S
H1065 C1038 0.983 . S
H1066 C1037 0.982 . S
H1067 C1037 0.979 . S
H1068 C1037 0.977 . S
H1069 C1039 0.948 . S
H1070 C1041 0.947 . S
H1071 C1042 0.948 . S
H1072 C1048 0.982 . S
H1073 C1048 0.979 . S
H1074 C1048 0.977 . S
H1075 C1049 0.979 . S
H1076 C1049 0.980 . S
H1077 C1049 0.983 . S
H1078 C1022 0.947 . S
C1079 C1022 1.392 . S
C1079 C1023 1.419 . S
C1079 H1061 0.948 . S
C1080 Eu1081 2.835 . S
C1080 C1082 1.500 . S
C1080 O1100 1.257 1_545 S
C1080 O1101 1.260 . S
Eu1081 C1080 2.835 . S
Eu1081 O1100 2.473 1_545 S
Eu1081 O1101 2.480 . S
Eu1081 O1102 2.430 . S
Eu1081 O1103 2.670 1_554 S
Eu1081 O1104 2.394 1_545 S
Eu1081 O1109 2.355 1_545 S
Eu1081 O1111 2.374 . S
C1082 C1080 1.500 . S
C1082 C1083 1.377 . S
C1082 C1087 1.377 1_545 S
C1083 C1082 1.377 . S
C1083 C1084 1.395 . S
C1083 H1112 0.931 . S
C1084 C1083 1.395 . S
C1084 C1085 1.383 1_545 S
C1084 H1113 0.931 . S
C1085 C1084 1.383 1_565 S
C1085 C1086 1.394 . S
C1086 C1085 1.394 . S
C1086 C1087 1.378 . S
C1086 H1114 0.931 . S
C1087 C1082 1.377 1_565 S
C1087 C1086 1.378 . S
C1087 H1115 0.931 . S
C1088 O1102 1.259 1_556 S
C1088 O1103 1.270 . S
C1089 O1104 1.251 . S
C1089 O1105 1.251 1_554 S
C1090 Eu1091 2.835 . S
C1090 C1092 1.500 . S
C1090 O1106 1.257 1_565 S
C1090 O1107 1.260 . S
Eu1091 C1090 2.835 . S
Eu1091 O1103 2.355 1_565 S
Eu1091 O1105 2.374 . S
Eu1091 O1106 2.473 1_565 S
Eu1091 O1107 2.480 . S
Eu1091 O1108 2.430 . S
Eu1091 O1109 2.670 1_556 S
Eu1091 O1110 2.394 1_565 S
C1092 C1090 1.500 . S
C1092 C1093 1.377 . S
C1092 C1097 1.377 1_565 S
C1093 C1092 1.377 . S
C1093 C1094 1.395 . S
C1093 H1116 0.931 . S
C1094 C1093 1.395 . S
C1094 C1095 1.383 1_565 S
C1094 H1117 0.931 . S
C1095 C1094 1.383 1_545 S
C1095 C1096 1.394 . S
C1096 C1095 1.394 . S
C1096 C1097 1.378 . S
C1096 H1118 0.931 . S
C1097 C1092 1.377 1_545 S
C1097 C1096 1.378 . S
C1097 H1119 0.931 . S
C1098 O1108 1.259 1_554 S
C1098 O1109 1.270 . S
C1099 O1110 1.251 . S
C1099 O1111 1.251 1_556 S
O1100 C1080 1.257 1_565 S
O1100 Eu1081 2.473 1_565 S
O1101 C1080 1.260 . S
O1101 Eu1081 2.480 . S
O1102 Eu1081 2.430 . S
O1102 C1088 1.259 1_554 S
O1103 Eu1081 2.670 1_556 S
O1103 C1088 1.270 . S
O1103 Eu1091 2.355 1_545 S
O1104 Eu1081 2.394 1_565 S
O1104 C1089 1.251 . S
O1105 C1089 1.251 1_556 S
O1105 Eu1091 2.374 . S
O1106 C1090 1.257 1_545 S
O1106 Eu1091 2.473 1_545 S
O1107 C1090 1.260 . S
O1107 Eu1091 2.480 . S
O1108 Eu1091 2.430 . S
O1108 C1098 1.259 1_556 S
O1109 Eu1081 2.355 1_565 S
O1109 Eu1091 2.670 1_554 S
O1109 C1098 1.270 . S
O1110 Eu1091 2.394 1_545 S
O1110 C1099 1.251 . S
O1111 Eu1081 2.374 . S
O1111 C1099 1.251 1_554 S
H1112 C1083 0.931 . S
H1113 C1084 0.931 . S
H1114 C1086 0.931 . S
H1115 C1087 0.931 . S
H1116 C1093 0.931 . S
H1117 C1094 0.931 . S
H1118 C1096 0.931 . S
H1119 C1097 0.931 . S
C1120 Eu1121 2.835 . S
C1120 C1122 1.500 1_655 S
C1120 O1140 1.257 1_655 S
C1120 O1141 1.260 . S
Eu1121 C1120 2.835 . S
Eu1121 O1140 2.473 1_655 S
Eu1121 O1141 2.480 . S
Eu1121 O1142 2.430 . S
Eu1121 O1143 2.670 1_554 S
Eu1121 O1144 2.394 1_655 S
Eu1121 O1149 2.355 1_655 S
Eu1121 O1151 2.393 . S
C1122 C1120 1.500 1_455 S
C1122 C1123 1.377 1_455 S
C1122 C1127 1.377 . S
C1123 C1122 1.377 1_655 S
C1123 C1124 1.395 . S
C1123 H1152 0.931 . S
C1124 C1123 1.395 . S
C1124 C1125 1.383 1_655 S
C1124 H1153 0.931 . S
C1125 C1124 1.383 1_455 S
C1125 C1126 1.394 . S
C1126 C1125 1.394 . S
C1126 C1127 1.378 . S
C1126 H1154 0.931 . S
C1127 C1122 1.377 . S
C1127 C1126 1.378 . S
C1127 H1155 0.931 . S
C1128 O1142 1.259 1_556 S
C1128 O1143 1.270 . S
C1129 O1144 1.251 . S
C1129 O1145 1.293 . S
C1130 Eu1131 2.835 . S
C1130 C1132 1.500 1_455 S
C1130 O1146 1.257 1_455 S
C1130 O1147 1.260 . S
Eu1131 C1130 2.835 . S
Eu1131 O1143 2.355 1_455 S
Eu1131 O1145 2.343 1_556 S
Eu1131 O1146 2.473 1_455 S
Eu1131 O1147 2.480 . S
Eu1131 O1148 2.430 . S
Eu1131 O1149 2.670 1_556 S
Eu1131 O1150 2.394 1_455 S
C1132 C1130 1.500 1_655 S
C1132 C1133 1.377 1_655 S
C1132 C1137 1.377 . S
C1133 C1132 1.377 1_455 S
C1133 C1134 1.395 . S
C1133 H1156 0.931 . S
C1134 C1133 1.395 . S
C1134 C1135 1.383 1_455 S
C1134 H1157 0.931 . S
C1135 C1134 1.383 1_655 S
C1135 C1136 1.394 . S
C1136 C1135 1.394 . S
C1136 C1137 1.378 . S
C1136 H1158 0.931 . S
C1137 C1132 1.377 . S
C1137 C1136 1.378 . S
C1137 H1159 0.931 . S
C1138 O1148 1.259 1_554 S
C1138 O1149 1.270 . S
C1139 O1150 1.251 . S
C1139 O1151 1.226 1_556 S
O1140 C1120 1.257 1_455 S
O1140 Eu1121 2.473 1_455 S
O1141 C1120 1.260 . S
O1141 Eu1121 2.480 . S
O1142 Eu1121 2.430 . S
O1142 C1128 1.259 1_554 S
O1143 Eu1121 2.670 1_556 S
O1143 C1128 1.270 . S
O1143 Eu1131 2.355 1_655 S
O1144 Eu1121 2.394 1_455 S
O1144 C1129 1.251 . S
O1145 C1129 1.293 . S
O1145 Eu1131 2.343 1_554 S
O1146 C1130 1.257 1_655 S
O1146 Eu1131 2.473 1_655 S
O1147 C1130 1.260 . S
O1147 Eu1131 2.480 . S
O1148 Eu1131 2.430 . S
O1148 C1138 1.259 1_556 S
O1149 Eu1121 2.355 1_455 S
O1149 Eu1131 2.670 1_554 S
O1149 C1138 1.270 . S
O1150 Eu1131 2.394 1_655 S
O1150 C1139 1.251 . S
O1151 Eu1121 2.393 . S
O1151 C1139 1.226 1_554 S
H1152 C1123 0.931 . S
H1153 C1124 0.931 . S
H1154 C1126 0.931 . S
H1155 C1127 0.931 . S
H1156 C1133 0.931 . S
H1157 C1134 0.931 . S
H1158 C1136 0.931 . S
H1159 C1137 0.931 . S
C1160 Eu1161 2.835 . S
C1160 C1162 1.500 . S
C1160 O1180 1.257 . S
C1160 O1181 1.260 . S
Eu1161 C1160 2.835 . S
Eu1161 O1180 2.473 . S
Eu1161 O1181 2.480 . S
Eu1161 O1182 2.430 . S
Eu1161 O1183 2.670 1_556 S
Eu1161 O1184 2.394 . S
Eu1161 O1189 2.355 . S
Eu1161 O1191 2.374 . S
C1162 C1160 1.500 . S
C1162 C1163 1.377 . S
C1162 C1167 1.377 . S
C1163 C1162 1.377 . S
C1163 C1164 1.395 . S
C1163 H1192 0.931 . S
C1164 C1163 1.395 . S
C1164 C1165 1.383 . S
C1164 H1193 0.931 . S
C1165 C1164 1.383 . S
C1165 C1166 1.394 . S
C1166 C1165 1.394 . S
C1166 C1167 1.378 . S
C1166 H1194 0.931 . S
C1167 C1162 1.377 . S
C1167 C1166 1.378 . S
C1167 H1195 0.931 . S
C1168 O1182 1.259 1_554 S
C1168 O1183 1.270 . S
C1169 O1184 1.251 . S
C1169 O1185 1.251 1_556 S
C1170 Eu1171 2.835 . S
C1170 C1172 1.500 . S
C1170 O1186 1.257 . S
C1170 O1187 1.260 . S
Eu1171 C1170 2.835 . S
Eu1171 O1183 2.355 . S
Eu1171 O1185 2.374 . S
Eu1171 O1186 2.473 . S
Eu1171 O1187 2.480 . S
Eu1171 O1188 2.430 . S
Eu1171 O1189 2.670 1_554 S
Eu1171 O1190 2.394 . S
C1172 C1170 1.500 . S
C1172 C1173 1.377 . S
C1172 C1177 1.377 . S
C1173 C1172 1.377 . S
C1173 C1174 1.395 . S
C1173 H1196 0.931 . S
C1174 C1173 1.395 . S
C1174 C1175 1.383 . S
C1174 H1197 0.931 . S
C1175 C1174 1.383 . S
C1175 C1176 1.394 . S
C1176 C1175 1.394 . S
C1176 C1177 1.378 . S
C1176 H1198 0.931 . S
C1177 C1172 1.377 . S
C1177 C1176 1.378 . S
C1177 H1199 0.931 . S
C1178 O1188 1.259 1_556 S
C1178 O1189 1.270 . S
C1179 O1190 1.251 . S
C1179 O1191 1.251 1_554 S
O1180 C1160 1.257 . S
O1180 Eu1161 2.473 . S
O1181 C1160 1.260 . S
O1181 Eu1161 2.480 . S
O1182 Eu1161 2.430 . S
O1182 C1168 1.259 1_556 S
O1183 Eu1161 2.670 1_554 S
O1183 C1168 1.270 . S
O1183 Eu1171 2.355 . S
O1184 Eu1161 2.394 . S
O1184 C1169 1.251 . S
O1185 C1169 1.251 1_554 S
O1185 Eu1171 2.374 . S
O1186 C1170 1.257 . S
O1186 Eu1171 2.473 . S
O1187 C1170 1.260 . S
O1187 Eu1171 2.480 . S
O1188 Eu1171 2.430 . S
O1188 C1178 1.259 1_554 S
O1189 Eu1161 2.355 . S
O1189 Eu1171 2.670 1_556 S
O1189 C1178 1.270 . S
O1190 Eu1171 2.394 . S
O1190 C1179 1.251 . S
O1191 Eu1161 2.374 . S
O1191 C1179 1.251 1_556 S
H1192 C1163 0.931 . S
H1193 C1164 0.931 . S
H1194 C1166 0.931 . S
H1195 C1167 0.931 . S
H1196 C1173 0.931 . S
H1197 C1174 0.931 . S
H1198 C1176 0.931 . S
H1199 C1177 0.931 . S
C1200 Eu1201 2.835 . S
C1200 C1202 1.500 . S
C1200 O1220 1.257 . S
C1200 O1221 1.260 . S
Eu1201 C1200 2.835 . S
Eu1201 O1220 2.473 . S
Eu1201 O1221 2.480 . S
Eu1201 O1222 2.430 . S
Eu1201 O1223 2.670 . S
Eu1201 O1224 2.394 . S
Eu1201 O1229 2.355 . S
Eu1201 O1231 2.374 . S
C1202 C1200 1.500 . S
C1202 C1203 1.377 . S
C1202 C1207 1.377 . S
C1203 C1202 1.377 . S
C1203 C1204 1.395 . S
C1203 H1232 0.931 . S
C1204 C1203 1.395 . S
C1204 C1205 1.383 . S
C1204 H1233 0.931 . S
C1205 C1204 1.383 . S
C1205 C1206 1.394 . S
C1206 C1205 1.394 . S
C1206 C1207 1.378 . S
C1206 H1234 0.931 . S
C1207 C1202 1.377 . S
C1207 C1206 1.378 . S
C1207 H1235 0.931 . S
C1208 O1222 1.259 . S
C1208 O1223 1.270 . S
C1209 O1224 1.251 . S
C1209 O1225 1.251 . S
C1210 Eu1211 2.835 . S
C1210 C1212 1.500 . S
C1210 O1226 1.257 . S
C1210 O1227 1.260 . S
Eu1211 C1210 2.835 . S
Eu1211 O1223 2.355 . S
Eu1211 O1225 2.374 . S
Eu1211 O1226 2.473 . S
Eu1211 O1227 2.480 . S
Eu1211 O1228 2.430 . S
Eu1211 O1229 2.670 . S
Eu1211 O1230 2.394 . S
C1212 C1210 1.500 . S
C1212 C1213 1.377 . S
C1212 C1217 1.377 . S
C1213 C1212 1.377 . S
C1213 C1214 1.395 . S
C1213 H1236 0.931 . S
C1214 C1213 1.395 . S
C1214 C1215 1.383 . S
C1214 H1237 0.931 . S
C1215 C1214 1.383 . S
C1215 C1216 1.394 . S
C1216 C1215 1.394 . S
C1216 C1217 1.378 . S
C1216 H1238 0.931 . S
C1217 C1212 1.377 . S
C1217 C1216 1.378 . S
C1217 H1239 0.931 . S
C1218 O1228 1.259 . S
C1218 O1229 1.270 . S
C1219 O1230 1.251 . S
C1219 O1231 1.251 . S
O1220 C1200 1.257 . S
O1220 Eu1201 2.473 . S
O1221 C1200 1.260 . S
O1221 Eu1201 2.480 . S
O1222 Eu1201 2.430 . S
O1222 C1208 1.259 . S
O1223 Eu1201 2.670 . S
O1223 C1208 1.270 . S
O1223 Eu1211 2.355 . S
O1224 Eu1201 2.394 . S
O1224 C1209 1.251 . S
O1225 C1209 1.251 . S
O1225 Eu1211 2.374 . S
O1226 C1210 1.257 . S
O1226 Eu1211 2.473 . S
O1227 C1210 1.260 . S
O1227 Eu1211 2.480 . S
O1228 Eu1211 2.430 . S
O1228 C1218 1.259 . S
O1229 Eu1201 2.355 . S
O1229 Eu1211 2.670 . S
O1229 C1218 1.270 . S
O1230 Eu1211 2.394 . S
O1230 C1219 1.251 . S
O1231 Eu1201 2.374 . S
O1231 C1219 1.251 . S
H1232 C1203 0.931 . S
H1233 C1204 0.931 . S
H1234 C1206 0.931 . S
H1235 C1207 0.931 . S
H1236 C1213 0.931 . S
H1237 C1214 0.931 . S
H1238 C1216 0.931 . S
H1239 C1217 0.931 . S
C1240 Eu1241 2.835 . S
C1240 C1242 1.500 . S
C1240 O1260 1.257 . S
C1240 O1261 1.260 . S
Eu1241 C1240 2.835 . S
Eu1241 O1260 2.473 . S
Eu1241 O1261 2.480 . S
Eu1241 O1262 2.430 . S
Eu1241 O1263 2.670 . S
Eu1241 O1264 2.394 . S
Eu1241 O1269 2.355 . S
Eu1241 O1271 2.374 . S
C1242 C1240 1.500 . S
C1242 C1243 1.377 . S
C1242 C1247 1.377 . S
C1243 C1242 1.377 . S
C1243 C1244 1.395 . S
C1243 H1272 0.931 . S
C1244 C1243 1.395 . S
C1244 C1245 1.383 . S
C1244 H1273 0.931 . S
C1245 C1244 1.383 . S
C1245 C1246 1.394 . S
C1246 C1245 1.394 . S
C1246 C1247 1.378 . S
C1246 H1274 0.931 . S
C1247 C1242 1.377 . S
C1247 C1246 1.378 . S
C1247 H1275 0.931 . S
C1248 O1262 1.259 . S
C1248 O1263 1.270 . S
C1249 O1264 1.251 . S
C1249 O1265 1.251 . S
C1250 Eu1251 2.835 . S
C1250 C1252 1.500 . S
C1250 O1266 1.257 . S
C1250 O1267 1.260 . S
Eu1251 C1250 2.835 . S
Eu1251 O1263 2.355 . S
Eu1251 O1265 2.374 . S
Eu1251 O1266 2.473 . S
Eu1251 O1267 2.480 . S
Eu1251 O1268 2.430 . S
Eu1251 O1269 2.670 . S
Eu1251 O1270 2.394 . S
C1252 C1250 1.500 . S
C1252 C1253 1.377 . S
C1252 C1257 1.377 . S
C1253 C1252 1.377 . S
C1253 C1254 1.395 . S
C1253 H1276 0.931 . S
C1254 C1253 1.395 . S
C1254 C1255 1.383 . S
C1254 H1277 0.931 . S
C1255 C1254 1.383 . S
C1255 C1256 1.394 . S
C1256 C1255 1.394 . S
C1256 C1257 1.378 . S
C1256 H1278 0.931 . S
C1257 C1252 1.377 . S
C1257 C1256 1.378 . S
C1257 H1279 0.931 . S
C1258 O1268 1.259 . S
C1258 O1269 1.270 . S
C1259 O1270 1.251 . S
C1259 O1271 1.251 . S
O1260 C1240 1.257 . S
O1260 Eu1241 2.473 . S
O1261 C1240 1.260 . S
O1261 Eu1241 2.480 . S
O1262 Eu1241 2.430 . S
O1262 C1248 1.259 . S
O1263 Eu1241 2.670 . S
O1263 C1248 1.270 . S
O1263 Eu1251 2.355 . S
O1264 Eu1241 2.394 . S
O1264 C1249 1.251 . S
O1265 C1249 1.251 . S
O1265 Eu1251 2.374 . S
O1266 C1250 1.257 . S
O1266 Eu1251 2.473 . S
O1267 C1250 1.260 . S
O1267 Eu1251 2.480 . S
O1268 Eu1251 2.430 . S
O1268 C1258 1.259 . S
O1269 Eu1241 2.355 . S
O1269 Eu1251 2.670 . S
O1269 C1258 1.270 . S
O1270 Eu1251 2.394 . S
O1270 C1259 1.251 . S
O1271 Eu1241 2.374 . S
O1271 C1259 1.251 . S
H1272 C1243 0.931 . S
H1273 C1244 0.931 . S
H1274 C1246 0.931 . S
H1275 C1247 0.931 . S
H1276 C1253 0.931 . S
H1277 C1254 0.931 . S
H1278 C1256 0.931 . S
H1279 C1257 0.931 . S
C1280 Eu1281 2.835 . S
C1280 C1282 1.500 . S
C1280 O1300 1.257 . S
C1280 O1301 1.260 . S
Eu1281 C1280 2.835 . S
Eu1281 O1300 2.473 . S
Eu1281 O1301 2.480 . S
Eu1281 O1302 2.430 . S
Eu1281 O1303 2.670 . S
Eu1281 O1304 2.394 . S
Eu1281 O1309 2.355 . S
Eu1281 O1311 2.374 . S
C1282 C1280 1.500 . S
C1282 C1283 1.377 . S
C1282 C1287 1.377 . S
C1283 C1282 1.377 . S
C1283 C1284 1.395 . S
C1283 H1312 0.931 . S
C1284 C1283 1.395 . S
C1284 C1285 1.383 . S
C1284 H1313 0.931 . S
C1285 C1284 1.383 . S
C1285 C1286 1.394 . S
C1286 C1285 1.394 . S
C1286 C1287 1.378 . S
C1286 H1314 0.931 . S
C1287 C1282 1.377 . S
C1287 C1286 1.378 . S
C1287 H1315 0.931 . S
C1288 O1302 1.259 . S
C1288 O1303 1.270 . S
C1289 O1304 1.251 . S
C1289 O1305 1.251 . S
C1290 Eu1291 2.835 . S
C1290 C1292 1.500 . S
C1290 O1306 1.257 . S
C1290 O1307 1.260 . S
Eu1291 C1290 2.835 . S
Eu1291 O1303 2.355 . S
Eu1291 O1305 2.374 . S
Eu1291 O1306 2.473 . S
Eu1291 O1307 2.480 . S
Eu1291 O1308 2.430 . S
Eu1291 O1309 2.670 . S
Eu1291 O1310 2.394 . S
C1292 C1290 1.500 . S
C1292 C1293 1.377 . S
C1292 C1297 1.377 . S
C1293 C1292 1.377 . S
C1293 C1294 1.395 . S
C1293 H1316 0.931 . S
C1294 C1293 1.395 . S
C1294 C1295 1.383 . S
C1294 H1317 0.931 . S
C1295 C1294 1.383 . S
C1295 C1296 1.394 . S
C1296 C1295 1.394 . S
C1296 C1297 1.378 . S
C1296 H1318 0.931 . S
C1297 C1292 1.377 . S
C1297 C1296 1.378 . S
C1297 H1319 0.931 . S
C1298 O1308 1.259 . S
C1298 O1309 1.270 . S
C1299 O1310 1.251 . S
C1299 O1311 1.251 . S
O1300 C1280 1.257 . S
O1300 Eu1281 2.473 . S
O1301 C1280 1.260 . S
O1301 Eu1281 2.480 . S
O1302 Eu1281 2.430 . S
O1302 C1288 1.259 . S
O1303 Eu1281 2.670 . S
O1303 C1288 1.270 . S
O1303 Eu1291 2.355 . S
O1304 Eu1281 2.394 . S
O1304 C1289 1.251 . S
O1305 C1289 1.251 . S
O1305 Eu1291 2.374 . S
O1306 C1290 1.257 . S
O1306 Eu1291 2.473 . S
O1307 C1290 1.260 . S
O1307 Eu1291 2.480 . S
O1308 Eu1291 2.430 . S
O1308 C1298 1.259 . S
O1309 Eu1281 2.355 . S
O1309 Eu1291 2.670 . S
O1309 C1298 1.270 . S
O1310 Eu1291 2.394 . S
O1310 C1299 1.251 . S
O1311 Eu1281 2.374 . S
O1311 C1299 1.251 . S
H1312 C1283 0.931 . S
H1313 C1284 0.931 . S
H1314 C1286 0.931 . S
H1315 C1287 0.931 . S
H1316 C1293 0.931 . S
H1317 C1294 0.931 . S
H1318 C1296 0.931 . S
H1319 C1297 0.931 . S
C1320 Eu1321 2.835 . S
C1320 C1322 1.500 . S
C1320 O1340 1.257 . S
C1320 O1341 1.260 . S
Eu1321 C1320 2.835 . S
Eu1321 O1340 2.473 . S
Eu1321 O1341 2.480 . S
Eu1321 O1342 2.430 . S
Eu1321 O1343 2.670 . S
Eu1321 O1344 2.394 . S
Eu1321 O1349 2.355 . S
Eu1321 O1351 2.374 . S
C1322 C1320 1.500 . S
C1322 C1323 1.377 . S
C1322 C1327 1.377 . S
C1323 C1322 1.377 . S
C1323 C1324 1.395 . S
C1323 H1352 0.931 . S
C1324 C1323 1.395 . S
C1324 C1325 1.383 . S
C1324 H1353 0.931 . S
C1325 C1324 1.383 . S
C1325 C1326 1.394 . S
C1326 C1325 1.394 . S
C1326 C1327 1.378 . S
C1326 H1354 0.931 . S
C1327 C1322 1.377 . S
C1327 C1326 1.378 . S
C1327 H1355 0.931 . S
C1328 O1342 1.259 . S
C1328 O1343 1.270 . S
C1329 O1344 1.251 . S
C1329 O1345 1.251 . S
C1330 Eu1331 2.835 . S
C1330 C1332 1.500 . S
C1330 O1346 1.257 . S
C1330 O1347 1.260 . S
Eu1331 C1330 2.835 . S
Eu1331 O1343 2.355 . S
Eu1331 O1345 2.374 . S
Eu1331 O1346 2.473 . S
Eu1331 O1347 2.480 . S
Eu1331 O1348 2.430 . S
Eu1331 O1349 2.670 . S
Eu1331 O1350 2.394 . S
C1332 C1330 1.500 . S
C1332 C1333 1.377 . S
C1332 C1337 1.377 . S
C1333 C1332 1.377 . S
C1333 C1334 1.395 . S
C1333 H1356 0.931 . S
C1334 C1333 1.395 . S
C1334 C1335 1.383 . S
C1334 H1357 0.931 . S
C1335 C1334 1.383 . S
C1335 C1336 1.394 . S
C1336 C1335 1.394 . S
C1336 C1337 1.378 . S
C1336 H1358 0.931 . S
C1337 C1332 1.377 . S
C1337 C1336 1.378 . S
C1337 H1359 0.931 . S
C1338 O1348 1.259 . S
C1338 O1349 1.270 . S
C1339 O1350 1.251 . S
C1339 O1351 1.251 . S
O1340 C1320 1.257 . S
O1340 Eu1321 2.473 . S
O1341 C1320 1.260 . S
O1341 Eu1321 2.480 . S
O1342 Eu1321 2.430 . S
O1342 C1328 1.259 . S
O1343 Eu1321 2.670 . S
O1343 C1328 1.270 . S
O1343 Eu1331 2.355 . S
O1344 Eu1321 2.394 . S
O1344 C1329 1.251 . S
O1345 C1329 1.251 . S
O1345 Eu1331 2.374 . S
O1346 C1330 1.257 . S
O1346 Eu1331 2.473 . S
O1347 C1330 1.260 . S
O1347 Eu1331 2.480 . S
O1348 Eu1331 2.430 . S
O1348 C1338 1.259 . S
O1349 Eu1321 2.355 . S
O1349 Eu1331 2.670 . S
O1349 C1338 1.270 . S
O1350 Eu1331 2.394 . S
O1350 C1339 1.251 . S
O1351 Eu1321 2.374 . S
O1351 C1339 1.251 . S
H1352 C1323 0.931 . S
H1353 C1324 0.931 . S
H1354 C1326 0.931 . S
H1355 C1327 0.931 . S
H1356 C1333 0.931 . S
H1357 C1334 0.931 . S
H1358 C1336 0.931 . S
H1359 C1337 0.931 . S
C1360 Eu1361 2.835 . S
C1360 C1362 1.500 . S
C1360 O1380 1.257 . S
C1360 O1381 1.260 . S
Eu1361 C1360 2.835 . S
Eu1361 O1380 2.473 . S
Eu1361 O1381 2.480 . S
Eu1361 O1382 2.430 . S
Eu1361 O1383 2.670 . S
Eu1361 O1384 2.394 . S
Eu1361 O1389 2.355 . S
Eu1361 O1391 2.374 . S
C1362 C1360 1.500 . S
C1362 C1363 1.377 . S
C1362 C1367 1.377 . S
C1363 C1362 1.377 . S
C1363 C1364 1.395 . S
C1363 H1392 0.931 . S
C1364 C1363 1.395 . S
C1364 C1365 1.383 . S
C1364 H1393 0.931 . S
C1365 C1364 1.383 . S
C1365 C1366 1.394 . S
C1366 C1365 1.394 . S
C1366 C1367 1.378 . S
C1366 H1394 0.931 . S
C1367 C1362 1.377 . S
C1367 C1366 1.378 . S
C1367 H1395 0.931 . S
C1368 O1382 1.259 . S
C1368 O1383 1.270 . S
C1369 O1384 1.251 . S
C1369 O1385 1.251 . S
C1370 Eu1371 2.835 . S
C1370 C1372 1.500 . S
C1370 O1386 1.257 . S
C1370 O1387 1.260 . S
Eu1371 C1370 2.835 . S
Eu1371 O1383 2.355 . S
Eu1371 O1385 2.374 . S
Eu1371 O1386 2.473 . S
Eu1371 O1387 2.480 . S
Eu1371 O1388 2.430 . S
Eu1371 O1389 2.670 . S
Eu1371 O1390 2.394 . S
C1372 C1370 1.500 . S
C1372 C1373 1.377 . S
C1372 C1377 1.377 . S
C1373 C1372 1.377 . S
C1373 C1374 1.395 . S
C1373 H1396 0.931 . S
C1374 C1373 1.395 . S
C1374 C1375 1.383 . S
C1374 H1397 0.931 . S
C1375 C1374 1.383 . S
C1375 C1376 1.394 . S
C1376 C1375 1.394 . S
C1376 C1377 1.378 . S
C1376 H1398 0.931 . S
C1377 C1372 1.377 . S
C1377 C1376 1.378 . S
C1377 H1399 0.931 . S
C1378 O1388 1.259 . S
C1378 O1389 1.270 . S
C1379 O1390 1.251 . S
C1379 O1391 1.251 . S
O1380 C1360 1.257 . S
O1380 Eu1361 2.473 . S
O1381 C1360 1.260 . S
O1381 Eu1361 2.480 . S
O1382 Eu1361 2.430 . S
O1382 C1368 1.259 . S
O1383 Eu1361 2.670 . S
O1383 C1368 1.270 . S
O1383 Eu1371 2.355 . S
O1384 Eu1361 2.394 . S
O1384 C1369 1.251 . S
O1385 C1369 1.251 . S
O1385 Eu1371 2.374 . S
O1386 C1370 1.257 . S
O1386 Eu1371 2.473 . S
O1387 C1370 1.260 . S
O1387 Eu1371 2.480 . S
O1388 Eu1371 2.430 . S
O1388 C1378 1.259 . S
O1389 Eu1361 2.355 . S
O1389 Eu1371 2.670 . S
O1389 C1378 1.270 . S
O1390 Eu1371 2.394 . S
O1390 C1379 1.251 . S
O1391 Eu1361 2.374 . S
O1391 C1379 1.251 . S
H1392 C1363 0.931 . S
H1393 C1364 0.931 . S
H1394 C1366 0.931 . S
H1395 C1367 0.931 . S
H1396 C1373 0.931 . S
H1397 C1374 0.931 . S
H1398 C1376 0.931 . S
H1399 C1377 0.931 . S
C1400 Eu1401 2.835 . S
C1400 C1402 1.500 . S
C1400 O1420 1.257 . S
C1400 O1421 1.260 . S
Eu1401 C1400 2.835 . S
Eu1401 O1420 2.473 . S
Eu1401 O1421 2.480 . S
Eu1401 O1422 2.430 . S
Eu1401 O1423 2.670 . S
Eu1401 O1424 2.394 . S
Eu1401 O1429 2.355 . S
Eu1401 O1431 2.374 . S
C1402 C1400 1.500 . S
C1402 C1403 1.377 . S
C1402 C1407 1.377 . S
C1403 C1402 1.377 . S
C1403 C1404 1.395 . S
C1403 H1432 0.931 . S
C1404 C1403 1.395 . S
C1404 C1405 1.383 . S
C1404 H1433 0.931 . S
C1405 C1404 1.383 . S
C1405 C1406 1.394 . S
C1406 C1405 1.394 . S
C1406 C1407 1.378 . S
C1406 H1434 0.931 . S
C1407 C1402 1.377 . S
C1407 C1406 1.378 . S
C1407 H1435 0.931 . S
C1408 O1422 1.259 . S
C1408 O1423 1.270 . S
C1409 O1424 1.251 . S
C1409 O1425 1.251 . S
C1410 Eu1411 2.835 . S
C1410 C1412 1.500 . S
C1410 O1426 1.257 . S
C1410 O1427 1.260 . S
Eu1411 C1410 2.835 . S
Eu1411 O1423 2.355 . S
Eu1411 O1425 2.374 . S
Eu1411 O1426 2.473 . S
Eu1411 O1427 2.480 . S
Eu1411 O1428 2.430 . S
Eu1411 O1429 2.670 . S
Eu1411 O1430 2.394 . S
C1412 C1410 1.500 . S
C1412 C1413 1.377 . S
C1412 C1417 1.377 . S
C1413 C1412 1.377 . S
C1413 C1414 1.395 . S
C1413 H1436 0.931 . S
C1414 C1413 1.395 . S
C1414 C1415 1.383 . S
C1414 H1437 0.931 . S
C1415 C1414 1.383 . S
C1415 C1416 1.394 . S
C1416 C1415 1.394 . S
C1416 C1417 1.378 . S
C1416 H1438 0.931 . S
C1417 C1412 1.377 . S
C1417 C1416 1.378 . S
C1417 H1439 0.931 . S
C1418 O1428 1.259 . S
C1418 O1429 1.270 . S
C1419 O1430 1.251 . S
C1419 O1431 1.251 . S
O1420 C1400 1.257 . S
O1420 Eu1401 2.473 . S
O1421 C1400 1.260 . S
O1421 Eu1401 2.480 . S
O1422 Eu1401 2.430 . S
O1422 C1408 1.259 . S
O1423 Eu1401 2.670 . S
O1423 C1408 1.270 . S
O1423 Eu1411 2.355 . S
O1424 Eu1401 2.394 . S
O1424 C1409 1.251 . S
O1425 C1409 1.251 . S
O1425 Eu1411 2.374 . S
O1426 C1410 1.257 . S
O1426 Eu1411 2.473 . S
O1427 C1410 1.260 . S
O1427 Eu1411 2.480 . S
O1428 Eu1411 2.430 . S
O1428 C1418 1.259 . S
O1429 Eu1401 2.355 . S
O1429 Eu1411 2.670 . S
O1429 C1418 1.270 . S
O1430 Eu1411 2.394 . S
O1430 C1419 1.251 . S
O1431 Eu1401 2.374 . S
O1431 C1419 1.251 . S
H1432 C1403 0.931 . S
H1433 C1404 0.931 . S
H1434 C1406 0.931 . S
H1435 C1407 0.931 . S
H1436 C1413 0.931 . S
H1437 C1414 0.931 . S
H1438 C1416 0.931 . S
H1439 C1417 0.931 . S
C1440 C1441 1.387 . S
C1440 H1444 0.950 . S
C1440 C1449 1.390 . S
C1441 C1440 1.387 . S
C1441 C1443 1.387 . S
H1442 C1449 0.950 1_556 S
C1443 C1441 1.387 . S
C1443 C1445 1.390 . S
C1443 H1447 0.950 . S
H1444 C1440 0.950 . S
C1445 C1443 1.390 . S
C1445 C1446 1.387 . S
C1445 H1448 0.950 . S
C1446 C1445 1.387 . S
C1446 C1449 1.387 . S
H1447 C1443 0.950 . S
H1448 C1445 0.950 . S
C1449 C1440 1.390 . S
C1449 H1442 0.950 1_554 S
C1449 C1446 1.387 . S
C1450 C1451 1.387 . S
C1450 H1454 0.950 . S
C1450 C1459 1.390 . S
C1451 C1450 1.387 . S
C1451 C1453 1.387 . S
H1452 C1459 0.950 . S
C1453 C1451 1.387 . S
C1453 C1455 1.390 . S
C1453 H1457 0.950 . S
H1454 C1450 0.950 . S
C1455 C1453 1.390 . S
C1455 C1456 1.387 . S
C1455 H1458 0.950 . S
C1456 C1455 1.387 . S
C1456 C1459 1.387 . S
H1457 C1453 0.950 . S
H1458 C1455 0.950 . S
C1459 C1450 1.390 . S
C1459 H1452 0.950 . S
C1459 C1456 1.387 . S
C1460 C1461 1.387 . S
C1460 H1464 0.950 . S
C1460 C1469 1.390 . S
C1461 C1460 1.387 . S
C1461 C1463 1.387 1_554 S
H1462 C1469 0.950 . S
C1463 C1461 1.387 1_556 S
C1463 C1465 1.390 . S
C1463 H1467 0.950 . S
H1464 C1460 0.950 . S
C1465 C1463 1.390 . S
C1465 C1466 1.387 1_556 S
C1465 H1468 0.950 . S
C1466 C1465 1.387 1_554 S
C1466 C1469 1.387 . S
H1467 C1463 0.950 . S
H1468 C1465 0.950 . S
C1469 C1460 1.390 . S
C1469 H1462 0.950 . S
C1469 C1466 1.387 . S
C1470 C1471 1.387 . S
C1470 H1474 0.950 . S
C1470 C1479 1.390 . S
C1471 C1470 1.387 . S
C1471 C1473 1.387 . S
H1472 C1479 0.950 . S
C1473 C1471 1.387 . S
C1473 C1475 1.390 1_556 S
C1473 H1477 0.950 1_556 S
H1474 C1470 0.950 . S
C1475 C1473 1.390 1_554 S
C1475 C1476 1.348 1_554 S
C1475 H1478 0.991 . S
C1476 C1475 1.348 1_556 S
C1476 C1479 1.387 . S
H1477 C1473 0.950 1_554 S
H1478 C1475 0.991 . S
C1479 C1470 1.390 . S
C1479 H1472 0.950 . S
C1479 C1476 1.387 . S
C1480 C1481 1.387 . S
C1480 H1484 0.950 . S
C1480 C1489 1.390 . S
C1481 C1480 1.387 . S
C1481 C1483 1.387 . S
H1482 C1489 0.950 . S
C1483 C1481 1.387 . S
C1483 C1485 1.390 . S
C1483 H1487 0.950 . S
H1484 C1480 0.950 . S
C1485 C1483 1.390 . S
C1485 C1486 1.387 . S
C1485 H1488 0.898 1_556 S
C1486 C1485 1.387 . S
C1486 C1489 1.387 . S
H1487 C1483 0.950 . S
H1488 C1485 0.898 1_554 S
C1489 C1480 1.390 . S
C1489 H1482 0.950 . S
C1489 C1486 1.387 . S
C1490 C1491 1.387 . S
C1490 H1494 0.950 1_556 S
C1490 C1499 1.390 1_556 S
C1491 C1490 1.387 . S
C1491 C1493 1.387 . S
H1492 C1499 0.950 . S
C1493 C1491 1.387 . S
C1493 C1495 1.390 . S
C1493 H1497 0.950 . S
H1494 C1490 0.950 1_554 S
C1495 C1493 1.390 . S
C1495 C1496 1.387 . S
C1495 H1498 0.950 . S
C1496 C1495 1.387 . S
C1496 C1499 1.387 1_556 S
H1497 C1493 0.950 . S
H1498 C1495 0.950 . S
C1499 C1490 1.390 1_554 S
C1499 H1492 0.950 . S
C1499 C1496 1.387 1_554 S
C1500 C1501 1.387 . S
C1500 H1504 0.950 . S
C1500 C1509 1.390 . S
C1501 C1500 1.387 . S
C1501 C1503 1.387 . S
H1502 C1509 0.950 . S
C1503 C1501 1.387 . S
C1503 C1505 1.390 . S
C1503 H1507 0.950 . S
H1504 C1500 0.950 . S
C1505 C1503 1.390 . S
C1505 C1506 1.387 . S
C1505 H1508 0.950 1_556 S
C1506 C1505 1.387 . S
C1506 C1509 1.387 . S
H1507 C1503 0.950 . S
H1508 C1505 0.950 1_554 S
C1509 C1500 1.390 . S
C1509 H1502 0.950 . S
C1509 C1506 1.387 . S
C1510 C1511 1.387 . S
C1510 H1514 0.950 . S
C1510 C1519 1.390 . S
C1511 C1510 1.387 . S
C1511 C1513 1.387 . S
H1512 C1519 0.950 1_554 S
C1513 C1511 1.387 . S
C1513 C1515 1.390 . S
C1513 H1517 0.950 . S
H1514 C1510 0.950 . S
C1515 C1513 1.390 . S
C1515 C1516 1.387 . S
C1515 H1518 0.950 . S
C1516 C1515 1.387 . S
C1516 C1519 1.387 . S
H1517 C1513 0.950 . S
H1518 C1515 0.950 . S
C1519 C1510 1.390 . S
C1519 H1512 0.950 1_556 S
C1519 C1516 1.387 . S
C1520 C1521 1.387 . S
C1520 H1524 0.950 . S
C1520 C1529 1.390 . S
C1521 C1520 1.387 . S
C1521 C1523 1.387 1_556 S
H1522 C1529 0.950 . S
C1523 C1521 1.387 1_554 S
C1523 C1525 1.390 . S
C1523 H1527 0.950 . S
H1524 C1520 0.950 . S
C1525 C1523 1.390 . S
C1525 C1526 1.387 1_554 S
C1525 H1528 0.950 . S
C1526 C1525 1.387 1_556 S
C1526 C1529 1.387 . S
H1527 C1523 0.950 . S
H1528 C1525 0.950 . S
C1529 C1520 1.390 . S
C1529 H1522 0.950 . S
C1529 C1526 1.387 . S
C1530 C1531 1.387 . S
C1530 H1534 0.950 1_554 S
C1530 C1539 1.391 . S
C1531 C1530 1.387 . S
C1531 C1533 1.387 . S
H1532 C1539 0.929 1_556 S
C1533 C1531 1.387 . S
C1533 C1535 1.390 . S
C1533 H1537 0.950 . S
H1534 C1530 0.950 1_556 S
C1535 C1533 1.390 . S
C1535 C1536 1.387 . S
C1535 H1538 0.950 . S
C1536 C1535 1.387 . S
C1536 C1539 1.407 . S
H1537 C1533 0.950 . S
H1538 C1535 0.950 . S
C1539 C1530 1.391 . S
C1539 H1532 0.929 1_554 S
C1539 C1536 1.407 . S
C1540 C1541 1.387 . S
C1540 H1544 0.950 . S
C1540 C1549 1.390 . S
C1541 C1540 1.387 . S
C1541 C1543 1.387 . S
H1542 C1549 0.950 . S
C1543 C1541 1.387 . S
C1543 C1545 1.390 . S
C1543 H1547 0.950 . S
H1544 C1540 0.950 . S
C1545 C1543 1.390 . S
C1545 C1546 1.387 . S
C1545 H1548 0.950 . S
C1546 C1545 1.387 . S
C1546 C1549 1.387 . S
H1547 C1543 0.950 . S
H1548 C1545 0.950 . S
C1549 C1540 1.390 . S
C1549 H1542 0.950 . S
C1549 C1546 1.387 . S
C1550 C1551 1.387 . S
C1550 H1554 0.950 . S
C1550 C1559 1.390 . S
C1551 C1550 1.387 . S
C1551 C1553 1.387 . S
H1552 C1559 0.950 . S
C1553 C1551 1.387 . S
C1553 C1555 1.384 1_554 S
C1553 H1557 0.950 1_554 S
H1554 C1550 0.950 . S
C1555 C1553 1.384 1_556 S
C1555 C1556 1.346 1_556 S
C1555 H1558 1.000 . S
C1556 C1555 1.346 1_554 S
C1556 C1559 1.387 . S
H1557 C1553 0.950 1_556 S
H1558 C1555 1.000 . S
C1559 C1550 1.390 . S
C1559 H1552 0.950 . S
C1559 C1556 1.387 . S
C1560 C1561 1.387 . S
C1560 H1564 0.950 . S
C1560 C1569 1.390 . S
C1561 C1560 1.387 . S
C1561 C1563 1.387 . S
H1562 C1569 0.950 . S
C1563 C1561 1.387 . S
C1563 C1565 1.390 . S
C1563 H1567 0.950 1_455 S
H1564 C1560 0.950 . S
C1565 C1563 1.390 . S
C1565 C1566 1.387 . S
C1565 H1568 0.950 . S
C1566 C1565 1.387 . S
C1566 C1569 1.387 . S
H1567 C1563 0.950 1_655 S
H1568 C1565 0.950 . S
C1569 C1560 1.390 . S
C1569 H1562 0.950 . S
C1569 C1566 1.387 . S
C1570 C1571 1.387 . S
C1570 H1574 0.950 . S
C1570 C1579 1.390 . S
C1571 C1570 1.387 . S
C1571 C1573 1.387 . S
H1572 C1579 0.950 . S
C1573 C1571 1.387 . S
C1573 C1575 1.390 . S
C1573 H1577 0.950 . S
H1574 C1570 0.950 . S
C1575 C1573 1.390 . S
C1575 C1576 1.387 . S
C1575 H1578 0.950 . S
C1576 C1575 1.387 . S
C1576 C1579 1.387 . S
H1577 C1573 0.950 . S
H1578 C1575 0.950 . S
C1579 C1570 1.390 . S
C1579 H1572 0.950 . S
C1579 C1576 1.387 . S
C1580 C1581 1.387 1_565 S
C1580 H1584 0.950 1_565 S
C1580 C1589 1.390 . S
C1581 C1580 1.387 1_545 S
C1581 C1583 1.387 1_545 S
H1582 C1589 0.950 . S
C1583 C1581 1.387 1_565 S
C1583 C1585 1.390 . S
C1583 H1587 0.950 . S
H1584 C1580 0.950 1_545 S
C1585 C1583 1.390 . S
C1585 C1586 1.387 . S
C1585 H1588 0.950 . S
C1586 C1585 1.387 . S
C1586 C1589 1.387 . S
H1587 C1583 0.950 . S
H1588 C1585 0.950 . S
C1589 C1580 1.390 . S
C1589 H1582 0.950 . S
C1589 C1586 1.387 . S
C1590 C1591 1.387 . S
C1590 H1594 0.950 . S
C1590 C1599 1.390 . S
C1591 C1590 1.387 . S
C1591 C1593 1.387 . S
H1592 C1599 0.950 . S
C1593 C1591 1.387 . S
C1593 C1595 1.390 . S
C1593 H1597 0.950 . S
H1594 C1590 0.950 . S
C1595 C1593 1.390 . S
C1595 C1596 1.387 . S
C1595 H1598 0.950 . S
C1596 C1595 1.387 . S
C1596 C1599 1.387 . S
H1597 C1593 0.950 . S
H1598 C1595 0.950 . S
C1599 C1590 1.390 . S
C1599 H1592 0.950 . S
C1599 C1596 1.387 . S
C1600 C1601 1.387 . S
C1600 H1604 0.950 . S
C1600 C1609 1.390 . S
C1601 C1600 1.387 . S
C1601 C1603 1.387 . S
H1602 C1609 0.950 . S
C1603 C1601 1.387 . S
C1603 C1605 1.390 . S
C1603 H1607 0.950 . S
H1604 C1600 0.950 . S
C1605 C1603 1.390 . S
C1605 C1606 1.387 . S
C1605 H1608 0.950 . S
C1606 C1605 1.387 . S
C1606 C1609 1.387 . S
H1607 C1603 0.950 . S
H1608 C1605 0.950 . S
C1609 C1600 1.390 . S
C1609 H1602 0.950 . S
C1609 C1606 1.387 . S
C1610 C1611 1.387 . S
C1610 H1614 0.950 . S
C1610 C1619 1.390 . S
C1611 C1610 1.387 . S
C1611 C1613 1.387 . S
H1612 C1619 0.950 . S
C1613 C1611 1.387 . S
C1613 C1615 1.390 . S
C1613 H1617 0.950 . S
H1614 C1610 0.950 . S
C1615 C1613 1.390 . S
C1615 C1616 1.387 . S
C1615 H1618 0.950 . S
C1616 C1615 1.387 . S
C1616 C1619 1.387 . S
H1617 C1613 0.950 . S
H1618 C1615 0.950 . S
C1619 C1610 1.390 . S
C1619 H1612 0.950 . S
C1619 C1616 1.387 . S
C1620 C1621 1.387 . S
C1620 H1624 0.950 . S
C1620 C1629 1.390 . S
C1621 C1620 1.387 . S
C1621 C1623 1.387 . S
H1622 C1629 0.950 . S
C1623 C1621 1.387 . S
C1623 C1625 1.390 . S
C1623 H1627 0.950 . S
H1624 C1620 0.950 . S
C1625 C1623 1.390 . S
C1625 C1626 1.387 . S
C1625 H1628 0.950 . S
C1626 C1625 1.387 . S
C1626 C1629 1.387 . S
H1627 C1623 0.950 . S
H1628 C1625 0.950 . S
C1629 C1620 1.390 . S
C1629 H1622 0.950 . S
C1629 C1626 1.387 . S
C1630 C1631 1.387 . S
C1630 H1634 0.950 . S
C1630 C1639 1.390 . S
C1631 C1630 1.387 . S
C1631 C1633 1.387 . S
H1632 C1639 0.950 . S
C1633 C1631 1.387 . S
C1633 C1635 1.390 . S
C1633 H1637 0.950 . S
H1634 C1630 0.950 . S
C1635 C1633 1.390 . S
C1635 C1636 1.387 . S
C1635 H1638 0.950 . S
C1636 C1635 1.387 . S
C1636 C1639 1.387 . S
H1637 C1633 0.950 . S
H1638 C1635 0.950 . S
C1639 C1630 1.390 . S
C1639 H1632 0.950 . S
C1639 C1636 1.387 . S
C1640 C1641 1.387 . S
C1640 H1644 0.950 . S
C1640 C1649 1.390 . S
C1641 C1640 1.387 . S
C1641 C1643 1.387 . S
H1642 C1649 0.950 . S
C1643 C1641 1.387 . S
C1643 C1645 1.390 . S
C1643 H1647 0.950 . S
H1644 C1640 0.950 . S
C1645 C1643 1.390 . S
C1645 C1646 1.387 . S
C1645 H1648 0.950 . S
C1646 C1645 1.387 . S
C1646 C1649 1.387 . S
H1647 C1643 0.950 . S
H1648 C1645 0.950 . S
C1649 C1640 1.390 . S
C1649 H1642 0.950 . S
C1649 C1646 1.387 . S
C1650 C1651 1.406 . S
C1650 H1654 0.950 . S
C1650 C1659 1.390 . S
C1651 C1650 1.406 . S
C1651 C1653 1.399 . S
H1652 C1659 0.950 . S
C1653 C1651 1.399 . S
C1653 C1655 1.390 . S
C1653 H1657 0.950 . S
H1654 C1650 0.950 . S
C1655 C1653 1.390 . S
C1655 C1656 1.387 . S
C1655 H1658 0.950 . S
C1656 C1655 1.387 . S
C1656 C1659 1.387 . S
H1657 C1653 0.950 . S
H1658 C1655 0.950 . S
C1659 C1650 1.390 . S
C1659 H1652 0.950 . S
C1659 C1656 1.387 . S
C1660 C1661 1.387 . S
C1660 H1664 0.950 . S
C1660 C1669 1.390 . S
C1661 C1660 1.387 . S
C1661 C1663 1.387 . S
H1662 C1669 0.950 . S
C1663 C1661 1.387 . S
C1663 C1665 1.390 . S
C1663 H1667 0.950 . S
H1664 C1660 0.950 . S
C1665 C1663 1.390 . S
C1665 C1666 1.387 . S
C1665 H1668 0.950 . S
C1666 C1665 1.387 . S
C1666 C1669 1.387 . S
H1667 C1663 0.950 . S
H1668 C1665 0.950 . S
C1669 C1660 1.390 . S
C1669 H1662 0.950 . S
C1669 C1666 1.387 . S
C1670 C1671 1.387 . S
C1670 H1674 0.950 . S
C1670 C1679 1.390 . S
C1671 C1670 1.387 . S
C1671 C1673 1.387 . S
H1672 C1679 0.950 . S
C1673 C1671 1.387 . S
C1673 C1675 1.390 . S
C1673 H1677 0.950 . S
H1674 C1670 0.950 . S
C1675 C1673 1.390 . S
C1675 C1676 1.387 . S
C1675 H1678 0.950 . S
C1676 C1675 1.387 . S
C1676 C1679 1.387 . S
H1677 C1673 0.950 . S
H1678 C1675 0.950 . S
C1679 C1670 1.390 . S
C1679 H1672 0.950 . S
C1679 C1676 1.387 . S
C1680 C1681 1.387 . S
C1680 H1684 0.950 . S
C1680 C1689 1.390 . S
C1681 C1680 1.387 . S
C1681 C1683 1.387 . S
H1682 C1689 0.950 . S
C1683 C1681 1.387 . S
C1683 C1685 1.390 . S
C1683 H1687 0.950 . S
H1684 C1680 0.950 . S
C1685 C1683 1.390 . S
C1685 C1686 1.387 . S
C1685 H1688 0.950 . S
C1686 C1685 1.387 . S
C1686 C1689 1.387 . S
H1687 C1683 0.950 . S
H1688 C1685 0.950 . S
C1689 C1680 1.390 . S
C1689 H1682 0.950 . S
C1689 C1686 1.387 . S
C1690 C1691 1.387 . S
C1690 H1694 0.950 . S
C1690 C1699 1.390 . S
C1691 C1690 1.387 . S
C1691 C1693 1.387 . S
H1692 C1699 0.950 . S
C1693 C1691 1.387 . S
C1693 C1695 1.390 . S
C1693 H1697 0.950 . S
H1694 C1690 0.950 . S
C1695 C1693 1.390 . S
C1695 C1696 1.387 . S
C1695 H1698 0.950 . S
C1696 C1695 1.387 . S
C1696 C1699 1.387 . S
H1697 C1693 0.950 . S
H1698 C1695 0.950 . S
C1699 C1690 1.390 . S
C1699 H1692 0.950 . S
C1699 C1696 1.387 . S
C1700 C1701 1.387 . S
C1700 H1704 0.950 . S
C1700 C1709 1.390 . S
C1701 C1700 1.387 . S
C1701 C1703 1.387 . S
H1702 C1709 0.950 . S
C1703 C1701 1.387 . S
C1703 C1705 1.390 . S
C1703 H1707 0.950 . S
H1704 C1700 0.950 . S
C1705 C1703 1.390 . S
C1705 C1706 1.387 . S
C1705 H1708 0.950 . S
C1706 C1705 1.387 . S
C1706 C1709 1.387 . S
H1707 C1703 0.950 . S
H1708 C1705 0.950 . S
C1709 C1700 1.390 . S
C1709 H1702 0.950 . S
C1709 C1706 1.387 . S
C1710 C1711 1.401 . S
C1710 H1714 0.950 . S
C1710 C1719 1.390 . S
C1711 C1710 1.401 . S
C1711 C1713 1.407 . S
H1712 C1719 0.950 . S
C1713 C1711 1.407 . S
C1713 C1715 1.390 . S
C1713 H1717 0.950 . S
H1714 C1710 0.950 . S
C1715 C1713 1.390 . S
C1715 C1716 1.387 . S
C1715 H1718 0.950 . S
C1716 C1715 1.387 . S
C1716 C1719 1.387 . S
H1717 C1713 0.950 . S
H1718 C1715 0.950 . S
C1719 C1710 1.390 . S
C1719 H1712 0.950 . S
C1719 C1716 1.387 . S
C1720 C1721 1.387 . S
C1720 H1724 0.950 . S
C1720 C1729 1.390 . S
C1721 C1720 1.387 . S
C1721 C1723 1.387 . S
H1722 C1729 0.950 . S
C1723 C1721 1.387 . S
C1723 C1725 1.390 . S
C1723 H1727 0.950 . S
H1724 C1720 0.950 . S
C1725 C1723 1.390 . S
C1725 C1726 1.387 . S
C1725 H1728 0.950 . S
C1726 C1725 1.387 . S
C1726 C1729 1.387 . S
H1727 C1723 0.950 . S
H1728 C1725 0.950 . S
C1729 C1720 1.390 . S
C1729 H1722 0.950 . S
C1729 C1726 1.387 . S
C1730 C1731 1.387 . S
C1730 H1734 0.950 . S
C1730 C1739 1.390 . S
C1731 C1730 1.387 . S
C1731 C1733 1.387 . S
H1732 C1739 0.950 . S
C1733 C1731 1.387 . S
C1733 C1735 1.390 . S
C1733 H1737 0.950 . S
H1734 C1730 0.950 . S
C1735 C1733 1.390 . S
C1735 C1736 1.387 . S
C1735 H1738 0.950 . S
C1736 C1735 1.387 . S
C1736 C1739 1.387 . S
H1737 C1733 0.950 . S
H1738 C1735 0.950 . S
C1739 C1730 1.390 . S
C1739 H1732 0.950 . S
C1739 C1736 1.387 . S
C1740 C1741 1.387 . S
C1740 H1744 0.950 . S
C1740 C1749 1.390 . S
C1741 C1740 1.387 . S
C1741 C1743 1.387 . S
H1742 C1749 0.950 . S
C1743 C1741 1.387 . S
C1743 C1745 1.390 . S
C1743 H1747 0.950 . S
H1744 C1740 0.950 . S
C1745 C1743 1.390 . S
C1745 C1746 1.387 . S
C1745 H1748 0.950 . S
C1746 C1745 1.387 . S
C1746 C1749 1.387 . S
H1747 C1743 0.950 . S
H1748 C1745 0.950 . S
C1749 C1740 1.390 . S
C1749 H1742 0.950 . S
C1749 C1746 1.387 . S
C1750 C1751 1.387 . S
C1750 H1754 0.950 . S
C1750 C1759 1.390 . S
C1751 C1750 1.387 . S
C1751 C1753 1.387 . S
H1752 C1759 0.950 . S
C1753 C1751 1.387 . S
C1753 C1755 1.390 . S
C1753 H1757 0.950 . S
H1754 C1750 0.950 . S
C1755 C1753 1.390 . S
C1755 C1756 1.387 . S
C1755 H1758 0.950 . S
C1756 C1755 1.387 . S
C1756 C1759 1.387 . S
H1757 C1753 0.950 . S
H1758 C1755 0.950 . S
C1759 C1750 1.390 . S
C1759 H1752 0.950 . S
C1759 C1756 1.387 . S
C1760 C1761 1.387 1_545 S
C1760 H1764 0.950 . S
C1760 C1769 1.390 . S
C1761 C1760 1.387 1_565 S
C1761 C1763 1.387 1_565 S
H1762 C1769 0.950 . S
C1763 C1761 1.387 1_545 S
C1763 C1765 1.390 . S
C1763 H1767 0.939 1_545 S
H1764 C1760 0.950 . S
C1765 C1763 1.390 . S
C1765 C1766 1.387 . S
C1765 H1768 0.950 . S
C1766 C1765 1.387 . S
C1766 C1769 1.387 . S
H1767 C1763 0.939 1_565 S
H1768 C1765 0.950 . S
C1769 C1760 1.390 . S
C1769 H1762 0.950 . S
C1769 C1766 1.387 . S
C1770 C1771 1.387 . S
C1770 H1774 0.950 . S
C1770 C1779 1.390 . S
C1771 C1770 1.387 . S
C1771 C1773 1.387 . S
H1772 C1779 0.950 . S
C1773 C1771 1.387 . S
C1773 C1775 1.390 . S
C1773 H1777 0.950 . S
H1774 C1770 0.950 . S
C1775 C1773 1.390 . S
C1775 C1776 1.387 . S
C1775 H1778 0.950 . S
C1776 C1775 1.387 . S
C1776 C1779 1.387 . S
H1777 C1773 0.950 . S
H1778 C1775 0.950 . S
C1779 C1770 1.390 . S
C1779 H1772 0.950 . S
C1779 C1776 1.387 . S
C1780 C1781 1.387 . S
C1780 H1784 0.950 . S
C1780 C1789 1.390 . S
C1781 C1780 1.387 . S
C1781 C1783 1.387 . S
H1782 C1789 0.950 . S
C1783 C1781 1.387 . S
C1783 C1785 1.390 . S
C1783 H1787 0.950 . S
H1784 C1780 0.950 . S
C1785 C1783 1.390 . S
C1785 C1786 1.387 . S
C1785 H1788 0.950 . S
C1786 C1785 1.387 . S
C1786 C1789 1.387 . S
H1787 C1783 0.950 . S
H1788 C1785 0.950 . S
C1789 C1780 1.390 . S
C1789 H1782 0.950 . S
C1789 C1786 1.387 . S
C1790 C1791 1.387 . S
C1790 H1794 0.950 . S
C1790 C1799 1.390 . S
C1791 C1790 1.387 . S
C1791 C1793 1.387 . S
H1792 C1799 0.950 . S
C1793 C1791 1.387 . S
C1793 C1795 1.390 . S
C1793 H1797 0.950 . S
H1794 C1790 0.950 . S
C1795 C1793 1.390 . S
C1795 C1796 1.387 . S
C1795 H1798 0.950 . S
C1796 C1795 1.387 . S
C1796 C1799 1.387 . S
H1797 C1793 0.950 . S
H1798 C1795 0.950 . S
C1799 C1790 1.390 . S
C1799 H1792 0.950 . S
C1799 C1796 1.387 . S
C1800 C1801 1.387 . S
C1800 H1804 0.950 1_565 S
C1800 C1809 1.390 1_565 S
C1801 C1800 1.387 . S
C1801 C1803 1.387 . S
H1802 C1809 0.950 . S
C1803 C1801 1.387 . S
C1803 C1805 1.390 . S
C1803 H1807 0.950 . S
H1804 C1800 0.950 1_545 S
C1805 C1803 1.390 . S
C1805 C1806 1.387 . S
C1805 H1808 0.950 . S
C1806 C1805 1.387 . S
C1806 C1809 1.387 1_565 S
H1807 C1803 0.950 . S
H1808 C1805 0.950 . S
C1809 C1800 1.390 1_545 S
C1809 H1802 0.950 . S
C1809 C1806 1.387 1_545 S
C1810 C1811 1.387 . S
C1810 H1814 0.950 . S
C1810 C1819 1.390 . S
C1811 C1810 1.387 . S
C1811 C1813 1.387 1_455 S
H1812 C1819 0.950 . S
C1813 C1811 1.387 1_655 S
C1813 C1815 1.390 . S
C1813 H1817 0.950 . S
H1814 C1810 0.950 . S
C1815 C1813 1.390 . S
C1815 C1816 1.387 1_655 S
C1815 H1818 0.950 . S
C1816 C1815 1.387 1_455 S
C1816 C1819 1.387 . S
H1817 C1813 0.950 . S
H1818 C1815 0.950 . S
C1819 C1810 1.390 . S
C1819 H1812 0.950 . S
C1819 C1816 1.387 . S
C1820 C1821 1.387 . S
C1820 H1824 0.950 . S
C1820 C1829 1.390 . S
C1821 C1820 1.387 . S
C1821 C1823 1.387 . S
H1822 C1829 0.950 . S
C1823 C1821 1.387 . S
C1823 C1825 1.390 . S
C1823 H1827 0.950 . S
H1824 C1820 0.950 . S
C1825 C1823 1.390 . S
C1825 C1826 1.387 . S
C1825 H1828 0.950 . S
C1826 C1825 1.387 . S
C1826 C1829 1.387 . S
H1827 C1823 0.950 . S
H1828 C1825 0.950 . S
C1829 C1820 1.390 . S
C1829 H1822 0.950 . S
C1829 C1826 1.387 . S
C1830 C1831 1.387 1_455 S
C1830 H1834 0.950 . S
C1830 C1839 1.390 . S
C1831 C1830 1.387 1_655 S
C1831 C1833 1.387 . S
H1832 C1839 0.950 . S
C1833 C1831 1.387 . S
C1833 C1835 1.390 . S
C1833 H1837 0.950 . S
H1834 C1830 0.950 . S
C1835 C1833 1.390 . S
C1835 C1836 1.387 . S
C1835 H1838 0.950 . S
C1836 C1835 1.387 . S
C1836 C1839 1.387 1_655 S
H1837 C1833 0.950 . S
H1838 C1835 0.950 . S
C1839 C1830 1.390 . S
C1839 H1832 0.950 . S
C1839 C1836 1.387 1_455 S
C1840 C1841 1.387 . S
C1840 H1844 0.950 . S
C1840 C1849 1.390 . S
C1841 C1840 1.387 . S
C1841 C1843 1.387 . S
H1842 C1849 0.950 . S
C1843 C1841 1.387 . S
C1843 C1845 1.390 . S
C1843 H1847 0.950 . S
H1844 C1840 0.950 . S
C1845 C1843 1.390 . S
C1845 C1846 1.387 . S
C1845 H1848 0.950 . S
C1846 C1845 1.387 . S
C1846 C1849 1.387 . S
H1847 C1843 0.950 . S
H1848 C1845 0.950 . S
C1849 C1840 1.390 . S
C1849 H1842 0.950 . S
C1849 C1846 1.387 . S
C1850 C1851 1.387 . S
C1850 H1854 0.950 . S
C1850 C1859 1.390 . S
C1851 C1850 1.387 . S
C1851 C1853 1.387 . S
H1852 C1859 0.950 . S
C1853 C1851 1.387 . S
C1853 C1855 1.390 . S
C1853 H1857 0.950 . S
H1854 C1850 0.950 . S
C1855 C1853 1.390 . S
C1855 C1856 1.387 . S
C1855 H1858 0.950 1_545 S
C1856 C1855 1.387 . S
C1856 C1859 1.387 . S
H1857 C1853 0.950 . S
H1858 C1855 0.950 1_565 S
C1859 C1850 1.390 . S
C1859 H1852 0.950 . S
C1859 C1856 1.387 . S
C1860 C1861 1.387 . S
C1860 H1864 0.950 . S
C1860 C1869 1.390 . S
C1861 C1860 1.387 . S
C1861 C1863 1.387 . S
H1862 C1869 0.950 . S
C1863 C1861 1.387 . S
C1863 C1865 1.390 . S
C1863 H1867 0.950 . S
H1864 C1860 0.950 . S
C1865 C1863 1.390 . S
C1865 C1866 1.387 . S
C1865 H1868 0.950 . S
C1866 C1865 1.387 . S
C1866 C1869 1.387 . S
H1867 C1863 0.950 . S
H1868 C1865 0.950 . S
C1869 C1860 1.390 . S
C1869 H1862 0.950 . S
C1869 C1866 1.387 . S
C1870 C1871 1.387 . S
C1870 H1874 0.950 . S
C1870 C1879 1.390 . S
C1871 C1870 1.387 . S
C1871 C1873 1.387 . S
H1872 C1879 0.950 . S
C1873 C1871 1.387 . S
C1873 C1875 1.390 . S
C1873 H1877 0.950 . S
H1874 C1870 0.950 . S
C1875 C1873 1.390 . S
C1875 C1876 1.387 . S
C1875 H1878 0.950 . S
C1876 C1875 1.387 . S
C1876 C1879 1.387 . S
H1877 C1873 0.950 . S
H1878 C1875 0.950 . S
C1879 C1870 1.390 . S
C1879 H1872 0.950 . S
C1879 C1876 1.387 . S
C1880 C1881 1.387 . S
C1880 H1884 0.950 . S
C1880 C1889 1.390 . S
C1881 C1880 1.387 . S
C1881 C1883 1.387 . S
H1882 C1889 0.950 . S
C1883 C1881 1.387 . S
C1883 C1885 1.390 . S
C1883 H1887 0.950 . S
H1884 C1880 0.950 . S
C1885 C1883 1.390 . S
C1885 C1886 1.387 . S
C1885 H1888 0.950 . S
C1886 C1885 1.387 . S
C1886 C1889 1.387 . S
H1887 C1883 0.950 . S
H1888 C1885 0.950 . S
C1889 C1880 1.390 . S
C1889 H1882 0.950 . S
C1889 C1886 1.387 . S
C1890 C1891 1.387 . S
C1890 H1894 0.950 . S
C1890 C1899 1.390 . S
C1891 C1890 1.387 . S
C1891 C1893 1.387 . S
H1892 C1899 0.950 . S
C1893 C1891 1.387 . S
C1893 C1895 1.390 . S
C1893 H1897 0.950 . S
H1894 C1890 0.950 . S
C1895 C1893 1.390 . S
C1895 C1896 1.387 . S
C1895 H1898 0.950 . S
C1896 C1895 1.387 . S
C1896 C1899 1.387 . S
H1897 C1893 0.950 . S
H1898 C1895 0.950 . S
C1899 C1890 1.390 . S
C1899 H1892 0.950 . S
C1899 C1896 1.387 . S
C1900 C1901 1.387 . S
C1900 H1904 0.950 . S
C1900 C1909 1.390 . S
C1901 C1900 1.387 . S
C1901 C1903 1.387 . S
H1902 C1909 0.950 . S
C1903 C1901 1.387 . S
C1903 C1905 1.390 . S
C1903 H1907 0.950 . S
H1904 C1900 0.950 . S
C1905 C1903 1.390 . S
C1905 C1906 1.387 . S
C1905 H1908 0.950 . S
C1906 C1905 1.387 . S
C1906 C1909 1.387 . S
H1907 C1903 0.950 . S
H1908 C1905 0.950 . S
C1909 C1900 1.390 . S
C1909 H1902 0.950 . S
C1909 C1906 1.387 . S
C1910 C1911 1.387 . S
C1910 H1914 0.950 . S
C1910 C1919 1.390 . S
C1911 C1910 1.387 . S
C1911 C1913 1.387 . S
H1912 C1919 0.950 . S
C1913 C1911 1.387 . S
C1913 C1915 1.390 . S
C1913 H1917 0.950 . S
H1914 C1910 0.950 . S
C1915 C1913 1.390 . S
C1915 C1916 1.387 . S
C1915 H1918 0.950 . S
C1916 C1915 1.387 . S
C1916 C1919 1.387 . S
H1917 C1913 0.950 . S
H1918 C1915 0.950 . S
C1919 C1910 1.390 . S
C1919 H1912 0.950 . S
C1919 C1916 1.387 . S
C1920 C1921 1.387 . S
C1920 H1924 0.950 . S
C1920 C1929 1.390 . S
C1921 C1920 1.387 . S
C1921 C1923 1.387 . S
H1922 C1929 0.950 . S
C1923 C1921 1.387 . S
C1923 C1925 1.390 . S
C1923 H1927 0.950 . S
H1924 C1920 0.950 . S
C1925 C1923 1.390 . S
C1925 C1926 1.387 . S
C1925 H1928 0.950 . S
C1926 C1925 1.387 . S
C1926 C1929 1.387 . S
H1927 C1923 0.950 . S
H1928 C1925 0.950 . S
C1929 C1920 1.390 . S
C1929 H1922 0.950 . S
C1929 C1926 1.387 . S
C1930 C1931 1.387 . S
C1930 H1934 0.950 . S
C1930 C1939 1.390 . S
C1931 C1930 1.387 . S
C1931 C1933 1.387 . S
H1932 C1939 0.950 . S
C1933 C1931 1.387 . S
C1933 C1935 1.390 . S
C1933 H1937 0.950 . S
H1934 C1930 0.950 . S
C1935 C1933 1.390 . S
C1935 C1936 1.387 . S
C1935 H1938 0.950 . S
C1936 C1935 1.387 . S
C1936 C1939 1.387 . S
H1937 C1933 0.950 . S
H1938 C1935 0.950 . S
C1939 C1930 1.390 . S
C1939 H1932 0.950 . S
C1939 C1936 1.387 . S
C1940 C1941 1.387 . S
C1940 H1944 0.950 . S
C1940 C1949 1.390 . S
C1941 C1940 1.387 . S
C1941 C1943 1.387 . S
H1942 C1949 0.950 . S
C1943 C1941 1.387 . S
C1943 C1945 1.390 . S
C1943 H1947 0.950 . S
H1944 C1940 0.950 . S
C1945 C1943 1.390 . S
C1945 C1946 1.387 . S
C1945 H1948 0.950 . S
C1946 C1945 1.387 . S
C1946 C1949 1.387 . S
H1947 C1943 0.950 . S
H1948 C1945 0.950 . S
C1949 C1940 1.390 . S
C1949 H1942 0.950 . S
C1949 C1946 1.387 . S
C1950 C1951 1.387 . S
C1950 H1954 0.950 . S
C1950 C1959 1.390 . S
C1951 C1950 1.387 . S
C1951 C1953 1.387 . S
H1952 C1959 0.950 . S
C1953 C1951 1.387 . S
C1953 C1955 1.390 . S
C1953 H1957 0.950 . S
H1954 C1950 0.950 . S
C1955 C1953 1.390 . S
C1955 C1956 1.387 . S
C1955 H1958 0.950 . S
C1956 C1955 1.387 . S
C1956 C1959 1.387 . S
H1957 C1953 0.950 . S
H1958 C1955 0.950 . S
C1959 C1950 1.390 . S
C1959 H1952 0.950 . S
C1959 C1956 1.387 . S
C1960 C1961 1.387 . S
C1960 H1964 0.950 . S
C1960 C1969 1.390 . S
C1961 C1960 1.387 . S
C1961 C1963 1.387 . S
H1962 C1969 0.950 . S
C1963 C1961 1.387 . S
C1963 C1965 1.390 . S
C1963 H1967 0.950 . S
H1964 C1960 0.950 . S
C1965 C1963 1.390 . S
C1965 C1966 1.387 . S
C1965 H1968 0.950 . S
C1966 C1965 1.387 . S
C1966 C1969 1.387 . S
H1967 C1963 0.950 . S
H1968 C1965 0.950 . S
C1969 C1960 1.390 . S
C1969 H1962 0.950 . S
C1969 C1966 1.387 . S
C1970 C1971 1.387 . S
C1970 H1974 0.950 . S
C1970 C1979 1.390 . S
C1971 C1970 1.387 . S
C1971 C1973 1.387 . S
H1972 C1979 0.950 . S
C1973 C1971 1.387 . S
C1973 C1975 1.390 . S
C1973 H1977 0.950 . S
H1974 C1970 0.950 . S
C1975 C1973 1.390 . S
C1975 C1976 1.387 . S
C1975 H1978 0.950 . S
C1976 C1975 1.387 . S
C1976 C1979 1.387 . S
H1977 C1973 0.950 . S
H1978 C1975 0.950 . S
C1979 C1970 1.390 . S
C1979 H1972 0.950 . S
C1979 C1976 1.387 . S
C1441 C781 1.746 . S
C1446 C1089 1.689 . S
C1451 C871 1.723 . S
C1456 C1129 1.733 . S
C1461 C751 1.745 . S
C1466 C1168 1.822 . S
C1471 C691 1.588 . S
C1476 C1128 1.643 . S
C1486 C1169 1.501 . S
C1481 C571 1.448 . S
C1491 C601 1.561 . S
C1496 C1088 1.599 . S
C1506 C1099 1.688 . S
C1501 C661 1.646 . S
C1516 C1139 1.736 . S
C1511 C541 1.695 . S
C1521 C631 1.851 . S
C1526 C1178 1.822 . S
C1531 C811 1.676 . S
C1536 C1138 1.645 . S
C1541 C841 1.484 . S
C1546 C1179 1.499 . S
C1556 C1098 1.602 . S
C1551 C721 1.454 . S
C1566 C1209 1.692 . S
C1561 C61 1.748 1_455 S
C1571 C151 1.724 . S
C1576 C1249 1.737 . S
C1581 C31 1.746 . S
C1586 C1288 1.822 . S
C1591 C1051 1.587 . S
C1596 C1248 1.646 . S
C1601 C931 1.448 . S
C1606 C1289 1.500 . S
C1611 C961 1.561 . S
C1616 C1208 1.601 . S
C1621 C1021 1.650 . S
C1626 C1219 1.692 . S
C1631 C901 1.691 . S
C1636 C1259 1.736 . S
C1646 C1298 1.822 . S
C1641 C991 1.853 . S
C1651 C91 1.647 1_565 S
C1656 C1258 1.645 . S
C1666 C1299 1.498 . S
C1661 C121 1.484 1_455 S
C1671 C1 1.453 . S
C1676 C1218 1.602 . S
C1686 C1329 1.692 . S
C1681 C421 1.749 . S
C1691 C511 1.722 . S
C1696 C1369 1.736 . S
C1706 C1408 1.822 . S
C1701 C391 1.742 . S
C1716 C1368 1.645 . S
C1711 C331 1.559 1_545 S
C1726 C1409 1.498 . S
C1721 C211 1.444 1_655 S
C1731 C241 1.563 . S
C1736 C1328 1.603 . S
C1741 C301 1.647 1_655 S
C1746 C1339 1.690 . S
C1751 C181 1.691 . S
C1756 C1379 1.735 . S
C1766 C1418 1.822 . S
C1761 C271 1.853 . S
C1771 C451 1.676 . S
C1776 C1378 1.645 . S
C1781 C481 1.486 . S
C1786 C1419 1.501 . S
C1791 C361 1.449 . S
C1796 C1338 1.601 . S
C1801 C920 1.378 . S
C1806 C1085 1.399 . S
C1816 C1125 1.830 . S
C1811 C980 1.828 1_455 S
C1821 C1040 1.516 . S
C1826 C1175 1.585 . S
C1831 C380 1.757 . S
C1836 C1135 1.830 . S
C1841 C440 1.554 . S
C1846 C1165 1.585 . S
C1856 C1095 1.399 . S
C1851 C500 1.396 . S
C1861 C200 1.379 . S
C1866 C1205 1.399 . S
C1871 C260 1.826 . S
C1876 C1245 1.829 . S
C1881 C320 1.513 . S
C1886 C1295 1.585 . S
C1891 C740 1.757 . S
C1896 C1255 1.830 . S
C1906 C1285 1.585 . S
C1901 C800 1.554 . S
C1911 C860 1.397 . S
C1916 C1215 1.399 . S
C1921 C560 1.377 . S
C1926 C1325 1.400 . S
C1931 C620 1.826 . S
C1936 C1365 1.830 . S
C1946 C1415 1.585 . S
C1941 C680 1.514 . S
C1951 C20 1.755 . S
C1956 C1375 1.829 . S
C1961 C80 1.555 . S
C1966 C1405 1.585 . S
C1971 C140 1.397 . S
C1976 C1335 1.399 . S
