# Generated by pormake.
# Topology pto, (3,4)-cn, num edge types: 1
# Building blocks:
#     Node 0, Type 0, BuildingBlock: KAKCAD_clean_linker_0, # of connection points: 3
#     Node 1, Type 0, BuildingBlock: KAKCAD_clean_linker_0, # of connection points: 3
#     Node 2, Type 0, BuildingBlock: KAKCAD_clean_linker_0, # of connection points: 3
#     Node 3, Type 0, BuildingBlock: KAKCAD_clean_linker_0, # of connection points: 3
#     Node 4, Type 0, BuildingBlock: KAKCAD_clean_linker_0, # of connection points: 3
#     Node 5, Type 0, BuildingBlock: KAKCAD_clean_linker_0, # of connection points: 3
#     Node 6, Type 0, BuildingBlock: KAKCAD_clean_linker_0, # of connection points: 3
#     Node 7, Type 0, BuildingBlock: KAKCAD_clean_linker_0, # of connection points: 3
#     Node 8, Type 1, BuildingBlock: KOZSID_clean_sbu_0, # of connection points: 4
#     Node 9, Type 1, BuildingBlock: KOZSID_clean_sbu_0, # of connection points: 4
#     Node 10, Type 1, BuildingBlock: KOZSID_clean_sbu_0, # of connection points: 4
#     Node 11, Type 1, BuildingBlock: KOZSID_clean_sbu_0, # of connection points: 4
#     Node 12, Type 1, BuildingBlock: KOZSID_clean_sbu_0, # of connection points: 4
#     Node 13, Type 1, BuildingBlock: KOZSID_clean_sbu_0, # of connection points: 4
#     Edge 14, Type (0, 1), BuildingBlock: TEMPAE_clean_linker_10, # of connection points: 2
#     Edge 15, Type (0, 1), BuildingBlock: TEMPAE_clean_linker_10, # of connection points: 2
#     Edge 16, Type (0, 1), BuildingBlock: TEMPAE_clean_linker_10, # of connection points: 2
#     Edge 17, Type (0, 1), BuildingBlock: TEMPAE_clean_linker_10, # of connection points: 2
#     Edge 18, Type (0, 1), BuildingBlock: TEMPAE_clean_linker_10, # of connection points: 2
#     Edge 19, Type (0, 1), BuildingBlock: TEMPAE_clean_linker_10, # of connection points: 2
#     Edge 20, Type (0, 1), BuildingBlock: TEMPAE_clean_linker_10, # of connection points: 2
#     Edge 21, Type (0, 1), BuildingBlock: TEMPAE_clean_linker_10, # of connection points: 2
#     Edge 22, Type (0, 1), BuildingBlock: TEMPAE_clean_linker_10, # of connection points: 2
#     Edge 23, Type (0, 1), BuildingBlock: TEMPAE_clean_linker_10, # of connection points: 2
#     Edge 24, Type (0, 1), BuildingBlock: TEMPAE_clean_linker_10, # of connection points: 2
#     Edge 25, Type (0, 1), BuildingBlock: TEMPAE_clean_linker_10, # of connection points: 2
#     Edge 26, Type (0, 1), BuildingBlock: TEMPAE_clean_linker_10, # of connection points: 2
#     Edge 27, Type (0, 1), BuildingBlock: TEMPAE_clean_linker_10, # of connection points: 2
#     Edge 28, Type (0, 1), BuildingBlock: TEMPAE_clean_linker_10, # of connection points: 2
#     Edge 29, Type (0, 1), BuildingBlock: TEMPAE_clean_linker_10, # of connection points: 2
#     Edge 30, Type (0, 1), BuildingBlock: TEMPAE_clean_linker_10, # of connection points: 2
#     Edge 31, Type (0, 1), BuildingBlock: TEMPAE_clean_linker_10, # of connection points: 2
#     Edge 32, Type (0, 1), BuildingBlock: TEMPAE_clean_linker_10, # of connection points: 2
#     Edge 33, Type (0, 1), BuildingBlock: TEMPAE_clean_linker_10, # of connection points: 2
#     Edge 34, Type (0, 1), BuildingBlock: TEMPAE_clean_linker_10, # of connection points: 2
#     Edge 35, Type (0, 1), BuildingBlock: TEMPAE_clean_linker_10, # of connection points: 2
#     Edge 36, Type (0, 1), BuildingBlock: TEMPAE_clean_linker_10, # of connection points: 2
#     Edge 37, Type (0, 1), BuildingBlock: TEMPAE_clean_linker_10, # of connection points: 2
# Relax obj value: 0.000
# Max RMSD: 0.024
# Mean RMSD: 0.010
data_MOF--net-pto--node1-KOZSID_clean_sbu_0--node2-KAKCAD_clean_linker_0--edge1-TEMPAE_clean_linker_10
_symmetry_space_group_name_H-M    P1
_symmetry_Int_Tables_number       1
_symmetry_cell_setting            triclinic
loop_
_symmetry_equiv_pos_as_xyz
'x, y, z'
_cell_length_a     47.261914
_cell_length_b     63.891926
_cell_length_c     55.633976
_cell_angle_alpha  88.061359
_cell_angle_beta   88.154908
_cell_angle_gamma 92.921785
loop_
_atom_site_label
_atom_site_type_symbol
_atom_site_fract_x
_atom_site_fract_y
_atom_site_fract_z
_atom_type_partial_charge
C0 C 0.27762 0.18989 0.35288 0.0
C1 C 0.25004 0.1809 0.35736 0.0
C2 C 0.28213 0.20825 0.33868 0.0
C3 C 0.25917 0.21832 0.32902 0.0
C4 C 0.23158 0.20967 0.33365 0.0
C5 C 0.22706 0.19103 0.34748 0.0
C6 C 0.2643 0.23797 0.31435 0.0
C7 C 0.28333 0.23863 0.29445 0.0
C8 C 0.29041 0.25754 0.28126 0.0
C9 C 0.27747 0.27584 0.28862 0.0
C10 C 0.25717 0.27512 0.30773 0.0
C11 C 0.25085 0.25611 0.3206 0.0
C12 C 0.24179 0.29407 0.31372 0.0
C13 C 0.2562 0.31383 0.31457 0.0
C14 C 0.21227 0.29255 0.31793 0.0
C15 C 0.19741 0.31041 0.32246 0.0
C16 C 0.21171 0.33021 0.32295 0.0
C17 C 0.31055 0.25798 0.25967 0.0
C18 C 0.32988 0.24212 0.25653 0.0
C19 C 0.31034 0.27395 0.24158 0.0
C20 C 0.32873 0.27411 0.22138 0.0
C21 C 0.34699 0.25766 0.21765 0.0
C22 C 0.34705 0.24162 0.23567 0.0
C23 C 0.24131 0.33171 0.31921 0.0
H24 H 0.29581 0.18294 0.36062 0.0
H25 H 0.30358 0.21482 0.33559 0.0
H26 H 0.21357 0.21716 0.32624 0.0
H27 H 0.20558 0.18446 0.35018 0.0
H28 H 0.29195 0.22404 0.28923 0.0
H29 H 0.23597 0.25552 0.33588 0.0
H30 H 0.28264 0.29075 0.2794 0.0
H31 H 0.27898 0.31547 0.31163 0.0
H32 H 0.20053 0.27759 0.31719 0.0
H33 H 0.17465 0.30871 0.32556 0.0
H34 H 0.332 0.2298 0.27003 0.0
H35 H 0.29575 0.28639 0.24249 0.0
H36 H 0.25289 0.34678 0.31936 0.0
H37 H 0.36001 0.22828 0.23387 0.0
H38 H 0.32825 0.28731 0.20877 0.0
C39 C 0.31015 0.78733 0.79561 0.0
C40 C 0.32574 0.76997 0.80211 0.0
C41 C 0.29278 0.78674 0.77576 0.0
C42 C 0.29074 0.76884 0.76175 0.0
C43 C 0.30658 0.75156 0.7681 0.0
C44 C 0.32374 0.75208 0.78808 0.0
C45 C 0.2719 0.76811 0.74081 0.0
C46 C 0.26911 0.78606 0.72589 0.0
C47 C 0.25095 0.78557 0.70641 0.0
C48 C 0.23537 0.76693 0.70184 0.0
C49 C 0.23791 0.74888 0.7165 0.0
C50 C 0.25624 0.74953 0.73584 0.0
C51 C 0.22072 0.72947 0.71218 0.0
C52 C 0.19111 0.72987 0.71122 0.0
C53 C 0.23373 0.71034 0.70971 0.0
C54 C 0.21735 0.69189 0.70638 0.0
C55 C 0.18769 0.69223 0.70599 0.0
C56 C 0.24828 0.80459 0.69087 0.0
C57 C 0.24297 0.82385 0.70111 0.0
C58 C 0.25127 0.80362 0.66573 0.0
C59 C 0.24938 0.82169 0.65111 0.0
C60 C 0.24397 0.84094 0.66136 0.0
C61 C 0.24059 0.84184 0.68647 0.0
C62 C 0.1747 0.71136 0.70839 0.0
H63 H 0.31145 0.80148 0.80578 0.0
H64 H 0.28064 0.80025 0.77164 0.0
H65 H 0.30585 0.73761 0.75756 0.0
H66 H 0.33516 0.73831 0.79269 0.0
H67 H 0.28151 0.80037 0.72908 0.0
H68 H 0.2575 0.73569 0.74749 0.0
H69 H 0.22112 0.76649 0.68695 0.0
H70 H 0.18063 0.74444 0.71322 0.0
H71 H 0.25656 0.7097 0.71034 0.0
H72 H 0.22777 0.67727 0.70466 0.0
H73 H 0.24043 0.82495 0.72044 0.0
H74 H 0.25552 0.78896 0.65743 0.0
H75 H 0.15184 0.71196 0.70807 0.0
H76 H 0.23657 0.85654 0.69478 0.0
H77 H 0.25192 0.82061 0.63178 0.0
C78 C 0.70578 0.74598 0.23387 0.0
C79 C 0.70464 0.76498 0.22048 0.0
C80 C 0.72292 0.74459 0.25383 0.0
C81 C 0.73947 0.76212 0.26081 0.0
C82 C 0.73839 0.78109 0.24735 0.0
C83 C 0.72113 0.78252 0.22751 0.0
C84 C 0.75787 0.76068 0.28197 0.0
C85 C 0.77308 0.7427 0.28648 0.0
C86 C 0.79096 0.74145 0.30612 0.0
C87 C 0.79365 0.7585 0.32135 0.0
C88 C 0.77858 0.77661 0.31717 0.0
C89 C 0.76061 0.77745 0.29756 0.0
C90 C 0.78164 0.79476 0.33307 0.0
C91 C 0.78191 0.79175 0.35821 0.0
C92 C 0.78394 0.81533 0.32313 0.0
C93 C 0.78617 0.83249 0.33796 0.0
C94 C 0.78617 0.82952 0.36311 0.0
C95 C 0.80724 0.72247 0.31035 0.0
C96 C 0.79406 0.70236 0.30885 0.0
C97 C 0.83616 0.7243 0.31545 0.0
C98 C 0.85167 0.70642 0.31864 0.0
C99 C 0.83857 0.68626 0.31697 0.0
C100 C 0.80951 0.68447 0.3122 0.0
C101 C 0.78409 0.80895 0.37307 0.0
H102 H 0.69364 0.73208 0.22881 0.0
H103 H 0.72298 0.72979 0.26391 0.0
H104 H 0.75113 0.79484 0.25199 0.0
H105 H 0.72054 0.79746 0.21781 0.0
H106 H 0.77172 0.72987 0.27425 0.0
H107 H 0.74831 0.79112 0.2947 0.0
H108 H 0.80761 0.75771 0.3364 0.0
H109 H 0.77996 0.77611 0.36643 0.0
H110 H 0.78413 0.81818 0.30382 0.0
H111 H 0.78744 0.84813 0.32972 0.0
H112 H 0.7717 0.70046 0.30525 0.0
H113 H 0.84697 0.7396 0.31641 0.0
H114 H 0.7843 0.80614 0.39237 0.0
H115 H 0.7986 0.66922 0.31122 0.0
H116 H 0.8741 0.70842 0.3219 0.0
C117 C 0.8155 0.20907 0.68594 0.0
C118 C 0.79233 0.1951 0.6818 0.0
C119 C 0.81199 0.22662 0.69987 0.0
C120 C 0.78525 0.23055 0.71003 0.0
C121 C 0.76216 0.2165 0.70608 0.0
C122 C 0.76564 0.19901 0.6921 0.0
C123 C 0.78112 0.24949 0.72424 0.0
C124 C 0.79323 0.26905 0.71614 0.0
C125 C 0.78856 0.28717 0.72896 0.0
C126 C 0.77059 0.2856 0.74968 0.0
C127 C 0.75851 0.26606 0.75853 0.0
C128 C 0.76453 0.24806 0.74569 0.0
C129 C 0.73983 0.26443 0.78102 0.0
C130 C 0.74158 0.27983 0.79854 0.0
C131 C 0.71986 0.24746 0.78525 0.0
C132 C 0.70294 0.24568 0.80636 0.0
C133 C 0.70407 0.2614 0.82352 0.0
C134 C 0.80331 0.30759 0.72127 0.0
C135 C 0.8317 0.30829 0.7127 0.0
C136 C 0.78975 0.32658 0.72349 0.0
C137 C 0.80453 0.34577 0.71811 0.0
C138 C 0.83303 0.34638 0.71005 0.0
C139 C 0.84633 0.32745 0.70704 0.0
C140 C 0.72354 0.27865 0.81899 0.0
H141 H 0.83642 0.20635 0.67854 0.0
H142 H 0.83024 0.23705 0.70283 0.0
H143 H 0.7412 0.21928 0.71336 0.0
H144 H 0.74723 0.18881 0.68893 0.0
H145 H 0.8059 0.27023 0.69951 0.0
H146 H 0.75681 0.23267 0.75239 0.0
H147 H 0.76641 0.29973 0.75897 0.0
H148 H 0.75693 0.29296 0.79681 0.0
H149 H 0.71684 0.23539 0.7723 0.0
H150 H 0.6891 0.23174 0.80898 0.0
H151 H 0.84301 0.29405 0.71112 0.0
H152 H 0.76775 0.32666 0.72953 0.0
H153 H 0.72502 0.29154 0.83103 0.0
H154 H 0.8684 0.3275 0.70113 0.0
H155 H 0.79371 0.36016 0.72033 0.0
C156 C 0.77965 0.82467 0.65989 0.0
C157 C 0.77807 0.84458 0.66958 0.0
C158 C 0.77538 0.8066 0.67469 0.0
C159 C 0.76992 0.80807 0.6996 0.0
C160 C 0.76879 0.82812 0.70925 0.0
C161 C 0.77256 0.84616 0.69436 0.0
C162 C 0.7654 0.78883 0.71546 0.0
C163 C 0.78076 0.77096 0.71117 0.0
C164 C 0.77672 0.7528 0.7261 0.0
C165 C 0.75732 0.75272 0.74579 0.0
C166 C 0.74205 0.77049 0.7506 0.0
C167 C 0.74594 0.78832 0.73515 0.0
C168 C 0.72258 0.77069 0.77209 0.0
C169 C 0.70419 0.75328 0.77851 0.0
C170 C 0.72261 0.7883 0.78657 0.0
C171 C 0.70475 0.78848 0.80704 0.0
C172 C 0.68638 0.77107 0.81352 0.0
C173 C 0.79326 0.7341 0.72138 0.0
C174 C 0.79786 0.72758 0.69774 0.0
C175 C 0.80484 0.72276 0.74044 0.0
C176 C 0.82078 0.7054 0.73597 0.0
C177 C 0.82558 0.69898 0.71233 0.0
C178 C 0.81384 0.71022 0.69326 0.0
C179 C 0.68625 0.75347 0.79899 0.0
H180 H 0.78361 0.8231 0.64076 0.0
H181 H 0.77593 0.79148 0.66651 0.0
H182 H 0.76529 0.82995 0.72837 0.0
H183 H 0.77155 0.86138 0.70227 0.0
H184 H 0.79655 0.77137 0.69659 0.0
H185 H 0.73341 0.80175 0.73836 0.0
H186 H 0.75429 0.73887 0.75756 0.0
H187 H 0.70343 0.73958 0.76756 0.0
H188 H 0.73688 0.80183 0.78233 0.0
H189 H 0.70574 0.80214 0.81806 0.0
H190 H 0.78898 0.73584 0.68266 0.0
H191 H 0.80197 0.72748 0.75884 0.0
H192 H 0.67207 0.73992 0.8033 0.0
H193 H 0.81733 0.70579 0.67482 0.0
H194 H 0.82922 0.69692 0.7511 0.0
C195 C 0.69752 0.2456 0.25095 0.0
C196 C 0.70777 0.25316 0.22813 0.0
C197 C 0.71449 0.24738 0.27097 0.0
C198 C 0.7419 0.25699 0.26858 0.0
C199 C 0.75211 0.26459 0.24577 0.0
C200 C 0.73526 0.26259 0.22572 0.0
C201 C 0.75987 0.25909 0.28981 0.0
C202 C 0.76284 0.24189 0.30566 0.0
C203 C 0.78018 0.24359 0.32564 0.0
C204 C 0.79489 0.26286 0.32942 0.0
C205 C 0.79211 0.28035 0.31371 0.0
C206 C 0.7743 0.27825 0.29406 0.0
C207 C 0.8078 0.30077 0.3176 0.0
C208 C 0.81251 0.30771 0.34095 0.0
C209 C 0.81808 0.31362 0.29786 0.0
C210 C 0.83232 0.33291 0.30132 0.0
C211 C 0.83733 0.33976 0.32464 0.0
C212 C 0.78298 0.22511 0.34231 0.0
C213 C 0.75932 0.21149 0.34836 0.0
C214 C 0.80927 0.22068 0.35191 0.0
C215 C 0.81186 0.20296 0.36699 0.0
C216 C 0.78826 0.18916 0.37272 0.0
C217 C 0.76195 0.19371 0.36324 0.0
C218 C 0.82727 0.32685 0.34442 0.0
H219 H 0.67645 0.23816 0.25326 0.0
H220 H 0.70606 0.24149 0.28837 0.0
H221 H 0.77324 0.27191 0.24341 0.0
H222 H 0.74359 0.2687 0.20837 0.0
H223 H 0.75219 0.22697 0.30201 0.0
H224 H 0.77115 0.29166 0.28219 0.0
H225 H 0.80853 0.2642 0.34461 0.0
H226 H 0.80461 0.29846 0.35663 0.0
H227 H 0.81539 0.30875 0.27959 0.0
H228 H 0.83927 0.34248 0.28559 0.0
H229 H 0.73864 0.21456 0.34161 0.0
H230 H 0.82802 0.23068 0.34745 0.0
H231 H 0.83103 0.33138 0.36266 0.0
H232 H 0.74338 0.18334 0.36696 0.0
H233 H 0.83238 0.2001 0.3742 0.0
C234 C 0.30401 0.26651 0.81172 0.0
C235 C 0.33133 0.25898 0.80921 0.0
C236 C 0.28689 0.26827 0.79182 0.0
C237 C 0.29665 0.26241 0.76902 0.0
C238 C 0.32396 0.25485 0.7665 0.0
C239 C 0.34117 0.25323 0.78638 0.0
C240 C 0.2782 0.26394 0.748 0.0
C241 C 0.2626 0.28179 0.74404 0.0
C242 C 0.24439 0.28315 0.72462 0.0
C243 C 0.24194 0.2663 0.70907 0.0
C244 C 0.25759 0.2484 0.71266 0.0
C245 C 0.27573 0.24739 0.73212 0.0
C246 C 0.25465 0.23056 0.69637 0.0
C247 C 0.22772 0.22296 0.68964 0.0
C248 C 0.27876 0.2208 0.68777 0.0
C249 C 0.276 0.20373 0.67282 0.0
C250 C 0.24907 0.19598 0.6663 0.0
C251 C 0.22785 0.3021 0.72071 0.0
C252 C 0.21557 0.31202 0.74037 0.0
C253 C 0.22422 0.31044 0.69735 0.0
C254 C 0.20866 0.32825 0.69375 0.0
C255 C 0.19654 0.33818 0.71344 0.0
C256 C 0.20018 0.32989 0.73677 0.0
C257 C 0.22496 0.20579 0.67483 0.0
H258 H 0.29597 0.27125 0.82905 0.0
H259 H 0.26584 0.27396 0.79436 0.0
H260 H 0.33212 0.25035 0.74911 0.0
H261 H 0.36207 0.24724 0.78394 0.0
H262 H 0.2651 0.29483 0.75589 0.0
H263 H 0.28724 0.23338 0.73536 0.0
H264 H 0.22777 0.26705 0.69417 0.0
H265 H 0.20876 0.23006 0.69617 0.0
H266 H 0.29979 0.22642 0.69252 0.0
H267 H 0.29495 0.19637 0.66668 0.0
H268 H 0.2175 0.30582 0.75857 0.0
H269 H 0.23375 0.3034 0.68183 0.0
H270 H 0.20395 0.20025 0.66994 0.0
H271 H 0.19071 0.33702 0.75227 0.0
H272 H 0.20644 0.33443 0.67558 0.0
C273 C 0.24814 0.83211 0.32617 0.0
C274 C 0.24588 0.82869 0.35128 0.0
C275 C 0.25022 0.81527 0.31096 0.0
C276 C 0.24995 0.79461 0.32048 0.0
C277 C 0.2479 0.79116 0.34557 0.0
C278 C 0.24595 0.80802 0.36081 0.0
C279 C 0.25089 0.77672 0.30417 0.0
C280 C 0.26965 0.77759 0.28402 0.0
C281 C 0.26949 0.76132 0.26753 0.0
C282 C 0.25024 0.74391 0.27183 0.0
C283 C 0.23207 0.74246 0.29238 0.0
C284 C 0.23245 0.75897 0.30837 0.0
C285 C 0.21275 0.72365 0.29726 0.0
C286 C 0.19679 0.71496 0.27883 0.0
C287 C 0.21036 0.71414 0.32042 0.0
C288 C 0.19259 0.69622 0.32504 0.0
C289 C 0.17664 0.68745 0.30661 0.0
C290 C 0.28935 0.7625 0.24598 0.0
C291 C 0.29808 0.78194 0.23475 0.0
C292 C 0.29984 0.74419 0.23639 0.0
C293 C 0.31803 0.74527 0.21604 0.0
C294 C 0.32708 0.76473 0.20501 0.0
C295 C 0.31697 0.78306 0.21484 0.0
C296 C 0.17887 0.69709 0.28347 0.0
H297 H 0.24772 0.84779 0.31821 0.0
H298 H 0.25134 0.81839 0.29168 0.0
H299 H 0.24799 0.77543 0.35344 0.0
H300 H 0.24472 0.80487 0.38007 0.0
H301 H 0.28472 0.79089 0.28152 0.0
H302 H 0.21772 0.75826 0.32376 0.0
H303 H 0.24938 0.73133 0.2593 0.0
H304 H 0.19792 0.72212 0.26087 0.0
H305 H 0.22269 0.72033 0.33491 0.0
H306 H 0.19178 0.68899 0.34296 0.0
H307 H 0.29022 0.79644 0.24114 0.0
H308 H 0.29425 0.7289 0.24465 0.0
H309 H 0.16657 0.69094 0.26895 0.0
H310 H 0.32372 0.79842 0.20732 0.0
H311 H 0.32476 0.73071 0.20891 0.0
C312 C 0.05661 0.54068 0.3613 0.0
C313 C 0.06642 0.54798 0.38289 0.0
C314 C 0.0572 0.53339 0.40045 0.0
C315 C 0.04219 0.51813 0.38868 0.0
N316 N 0.0414 0.52225 0.36485 0.0
Co317 Co 0.02116 0.50504 0.34117 0.0
N318 N 0.99697 0.49022 0.36685 0.0
C319 C 0.00197 0.48981 0.39057 0.0
C320 C 0.98126 0.47863 0.40412 0.0
C321 C 0.9623 0.47127 0.38791 0.0
C322 C 0.9727 0.4782 0.36521 0.0
N323 N 0.00122 0.48782 0.31731 0.0
C324 C 0.977 0.47556 0.31978 0.0
C325 C 0.97167 0.46525 0.29862 0.0
C326 C 0.99343 0.47114 0.2826 0.0
C327 C 0.01086 0.48462 0.29472 0.0
N328 N 0.04543 0.51983 0.31562 0.0
C329 C 0.05072 0.51313 0.29335 0.0
C330 C 0.06851 0.52683 0.27973 0.0
C331 C 0.0748 0.54312 0.29444 0.0
C332 C 0.06035 0.53839 0.31623 0.0
N333 N 0.04915 0.48369 0.34437 0.0
C334 C 0.08918 0.45291 0.34562 0.0
C335 C 0.0978 0.47423 0.34435 0.0
C336 C 0.07747 0.48936 0.3439 0.0
C337 C 0.06012 0.44736 0.34691 0.0
C338 C 0.04052 0.46293 0.34624 0.0
N339 N 0.99334 0.52643 0.33789 0.0
C340 C 0.96823 0.55004 0.31276 0.0
C341 C 0.9569 0.55936 0.33311 0.0
C342 C 0.96361 0.55148 0.3559 0.0
C343 C 0.98192 0.53509 0.35789 0.0
C344 C 0.98622 0.53352 0.31555 0.0
H345 H 0.9873 0.52972 0.37565 0.0
H346 H 0.99481 0.52673 0.29959 0.0
H347 H 0.0847 0.50566 0.34274 0.0
H348 H 0.01837 0.45807 0.34673 0.0
C349 C 0.02388 0.50249 0.39966 0.0
C350 C 0.06272 0.55101 0.33762 0.0
C351 C 0.96084 0.47104 0.34259 0.0
C352 C 0.03453 0.49625 0.28471 0.0
H353 H 0.07862 0.56242 0.38576 0.0
H354 H 0.05975 0.53444 0.41964 0.0
H355 H 0.9797 0.47654 0.42352 0.0
H356 H 0.9433 0.46154 0.39227 0.0
H357 H 0.95441 0.45408 0.29525 0.0
H358 H 0.99604 0.46632 0.26423 0.0
H359 H 0.07512 0.52561 0.26105 0.0
H360 H 0.08848 0.55685 0.28972 0.0
H361 H 0.12008 0.4792 0.3436 0.0
H362 H 0.0525 0.43106 0.34765 0.0
H363 H 0.96327 0.5555 0.29482 0.0
H364 H 0.95546 0.55834 0.37209 0.0
C365 C 0.05305 0.54992 0.71919 0.0
C366 C 0.06085 0.55681 0.74159 0.0
C367 C 0.04485 0.54506 0.75836 0.0
C368 C 0.02807 0.53184 0.74539 0.0
N369 N 0.03248 0.53428 0.72127 0.0
Co370 Co 0.01131 0.51917 0.69572 0.0
N371 N 0.98647 0.50295 0.72053 0.0
C372 C 0.98698 0.50449 0.74472 0.0
C373 C 0.96736 0.49139 0.75708 0.0
C374 C 0.95366 0.4806 0.73981 0.0
C375 C 0.96594 0.4877 0.71781 0.0
N376 N 0.99013 0.50405 0.67021 0.0
C377 C 0.96951 0.48847 0.67229 0.0
C378 C 0.96145 0.48171 0.64993 0.0
C379 C 0.97749 0.49342 0.63313 0.0
C380 C 0.99447 0.50653 0.64609 0.0
N381 N 0.03614 0.53541 0.67094 0.0
C382 C 0.03559 0.53386 0.64676 0.0
C383 C 0.05526 0.54691 0.63438 0.0
C384 C 0.06904 0.55766 0.65164 0.0
C385 C 0.05675 0.55062 0.67364 0.0
N386 N 0.03871 0.49662 0.69674 0.0
C387 C 0.07508 0.46303 0.6984 0.0
C388 C 0.06813 0.47231 0.67644 0.0
C389 C 0.05001 0.48893 0.67602 0.0
C390 C 0.06408 0.47115 0.7195 0.0
C391 C 0.04622 0.48785 0.71827 0.0
N392 N 0.98384 0.54169 0.69474 0.0
C393 C 0.95703 0.56666 0.67245 0.0
C394 C 0.94576 0.57426 0.69378 0.0
C395 C 0.95382 0.56523 0.71553 0.0
C396 C 0.97265 0.54915 0.7156 0.0
C397 C 0.97583 0.55045 0.67334 0.0
H398 H 0.978 0.54318 0.7328 0.0
H399 H 0.98368 0.54533 0.65649 0.0
H400 H 0.04517 0.49509 0.65872 0.0
H401 H 0.03857 0.49324 0.73501 0.0
C402 C 0.00675 0.51794 0.75533 0.0
C403 C 0.06488 0.5593 0.69649 0.0
C404 C 0.95793 0.47897 0.69496 0.0
C405 C 0.0158 0.52041 0.63618 0.0
H406 H 0.07603 0.56935 0.74553 0.0
H407 H 0.04484 0.54643 0.7777 0.0
H408 H 0.96372 0.48966 0.77637 0.0
H409 H 0.93679 0.46864 0.74305 0.0
H410 H 0.94603 0.46928 0.64608 0.0
H411 H 0.97734 0.49214 0.61378 0.0
H412 H 0.0589 0.5486 0.61508 0.0
H413 H 0.086 0.56955 0.64837 0.0
H414 H 0.07608 0.46647 0.6596 0.0
H415 H 0.06929 0.4647 0.73697 0.0
H416 H 0.95124 0.57307 0.65512 0.0
H417 H 0.94606 0.57081 0.73257 0.0
C418 C 0.26279 0.98217 0.54654 0.0
C419 C 0.28931 0.97617 0.55335 0.0
C420 C 0.30886 0.98798 0.53955 0.0
C421 C 0.2933 0.00036 0.52502 0.0
N422 N 0.26492 0.99738 0.52887 0.0
Co423 Co 0.23448 0.01104 0.51047 0.0
N424 N 0.26334 0.0272 0.48896 0.0
C425 C 0.29188 0.02643 0.48947 0.0
C426 C 0.30615 0.03933 0.47249 0.0
C427 C 0.28555 0.04921 0.46064 0.0
C428 C 0.25979 0.04184 0.47127 0.0
N429 N 0.20406 0.02461 0.49198 0.0
C430 C 0.20616 0.0398 0.47428 0.0
C431 C 0.17963 0.04561 0.46728 0.0
C432 C 0.16011 0.03367 0.48097 0.0
C433 C 0.17569 0.02141 0.49562 0.0
N434 N 0.20564 0.99497 0.53208 0.0
C435 C 0.17713 0.9959 0.53171 0.0
C436 C 0.16284 0.98303 0.54872 0.0
C437 C 0.18343 0.97304 0.56048 0.0
C438 C 0.20917 0.98033 0.54978 0.0
N439 N 0.23515 0.03456 0.53293 0.0
C440 C 0.23635 0.06899 0.56329 0.0
C441 C 0.21065 0.05971 0.55635 0.0
C442 C 0.21054 0.04259 0.54139 0.0
C443 C 0.26142 0.06061 0.55503 0.0
C444 C 0.26034 0.0436 0.53996 0.0
N445 N 0.23385 0.98749 0.48804 0.0
C446 C 0.20814 0.96026 0.4672 0.0
C447 C 0.23346 0.95248 0.45855 0.0
C448 C 0.25889 0.96282 0.46442 0.0
C449 C 0.2586 0.98015 0.47895 0.0
C450 C 0.20882 0.97763 0.48185 0.0
H451 H 0.27872 0.98721 0.48271 0.0
H452 H 0.18885 0.98261 0.48818 0.0
H453 H 0.19027 0.03622 0.53681 0.0
H454 H 0.2802 0.03819 0.53402 0.0
C455 C 0.3047 0.01391 0.50658 0.0
C456 C 0.23624 0.97225 0.55647 0.0
C457 C 0.23269 0.04992 0.46458 0.0
C458 C 0.16433 0.00815 0.51434 0.0
H459 H 0.29419 0.96412 0.56647 0.0
H460 H 0.33167 0.98715 0.53956 0.0
H461 H 0.32885 0.04155 0.46938 0.0
H462 H 0.28911 0.06082 0.44609 0.0
H463 H 0.17473 0.05764 0.45415 0.0
H464 H 0.13728 0.03442 0.48089 0.0
H465 H 0.14014 0.98082 0.55182 0.0
H466 H 0.17988 0.96138 0.57498 0.0
H467 H 0.19067 0.06554 0.56256 0.0
H468 H 0.28187 0.06743 0.55976 0.0
H469 H 0.18789 0.9527 0.46315 0.0
H470 H 0.27904 0.95761 0.45773 0.0
C471 C 0.47073 0.79018 0.04749 0.0
C472 C 0.46115 0.8093 0.05459 0.0
C473 C 0.47704 0.82451 0.04184 0.0
C474 C 0.49516 0.8139 0.02758 0.0
N475 N 0.49157 0.79278 0.03015 0.0
Co476 Co 0.51329 0.77143 0.01267 0.0
N477 N 0.53689 0.79391 0.9941 0.0
C478 C 0.53511 0.8149 0.99564 0.0
C479 C 0.55303 0.82638 0.9798 0.0
C480 C 0.56684 0.8119 0.96711 0.0
C481 C 0.55658 0.79232 0.97607 0.0
N482 N 0.53535 0.75008 0.99548 0.0
C483 C 0.55552 0.7527 0.97762 0.0
C484 C 0.56543 0.73367 0.97062 0.0
C485 C 0.55056 0.71843 0.9842 0.0
C486 C 0.53264 0.72899 0.99873 0.0
N487 N 0.48934 0.74892 0.03088 0.0
C488 C 0.4909 0.72793 0.02898 0.0
C489 C 0.47275 0.71636 0.0445 0.0
C490 C 0.45879 0.73075 0.05719 0.0
C491 C 0.46907 0.75043 0.04849 0.0
N492 N 0.48556 0.77131 0.9866 0.0
C493 C 0.44877 0.77134 0.94764 0.0
C494 C 0.45882 0.75264 0.95697 0.0
C495 C 0.47686 0.75297 0.97637 0.0
C496 C 0.45701 0.78996 0.95855 0.0
C497 C 0.4753 0.7896 0.97776 0.0
N498 N 0.5411 0.77154 0.03874 0.0
C499 C 0.56722 0.75286 0.06857 0.0
C500 C 0.57905 0.77162 0.07691 0.0
C501 C 0.57175 0.79036 0.06561 0.0
C502 C 0.55289 0.78997 0.04676 0.0
C503 C 0.54861 0.75318 0.04962 0.0
H504 H 0.54808 0.80478 0.03907 0.0
H505 H 0.54039 0.73833 0.0443 0.0
H506 H 0.48378 0.7382 0.98254 0.0
H507 H 0.481 0.80436 0.985 0.0
C508 C 0.51553 0.82333 0.01141 0.0
C509 C 0.4598 0.77005 0.05819 0.0
C510 C 0.56514 0.77272 0.96609 0.0
C511 C 0.51146 0.71953 0.0141 0.0
H512 H 0.44452 0.81201 0.06777 0.0
H513 H 0.4756 0.84131 0.04289 0.0
H514 H 0.55523 0.84328 0.97735 0.0
H515 H 0.58225 0.81538 0.95253 0.0
H516 H 0.58131 0.73107 0.95674 0.0
H517 H 0.55203 0.70163 0.9831 0.0
H518 H 0.47068 0.69947 0.04693 0.0
H519 H 0.44336 0.72701 0.07166 0.0
H520 H 0.45335 0.73778 0.94907 0.0
H521 H 0.44938 0.80484 0.95236 0.0
H522 H 0.57183 0.7379 0.0769 0.0
H523 H 0.58064 0.80532 0.07116 0.0
C524 C 0.82387 0.98556 0.55402 0.0
C525 C 0.85008 0.97923 0.56121 0.0
C526 C 0.8701 0.99102 0.54787 0.0
C527 C 0.85512 0.00374 0.53325 0.0
N528 N 0.82666 0.00097 0.53659 0.0
Co529 Co 0.79692 0.01538 0.51814 0.0
N530 N 0.82645 0.03123 0.49699 0.0
C531 C 0.85488 0.0297 0.49746 0.0
C532 C 0.86972 0.04269 0.4809 0.0
C533 C 0.84962 0.0534 0.46934 0.0
C534 C 0.82359 0.04636 0.4797 0.0
N535 N 0.76719 0.02994 0.49985 0.0
C536 C 0.77 0.04546 0.48257 0.0
C537 C 0.7438 0.05209 0.47569 0.0
C538 C 0.72377 0.04038 0.48909 0.0
C539 C 0.73873 0.02744 0.50345 0.0
N540 N 0.76737 0.99939 0.53914 0.0
C541 C 0.7389 0.00063 0.53838 0.0
C542 C 0.72405 0.98764 0.55492 0.0
C543 C 0.74418 0.97718 0.56671 0.0
C544 C 0.77025 0.98434 0.5565 0.0
N545 N 0.79815 0.03854 0.54109 0.0
C546 C 0.79964 0.07247 0.57226 0.0
C547 C 0.77394 0.06249 0.56636 0.0
C548 C 0.77369 0.04576 0.55088 0.0
C549 C 0.82463 0.06495 0.56256 0.0
C550 C 0.82341 0.04809 0.5472 0.0
N551 N 0.79569 0.99216 0.49525 0.0
C552 C 0.76893 0.96616 0.47342 0.0
C553 C 0.79381 0.95723 0.46557 0.0
C554 C 0.81966 0.96642 0.47233 0.0
C555 C 0.82011 0.98376 0.48695 0.0
C556 C 0.77035 0.98347 0.48809 0.0
H557 H 0.84048 0.98993 0.49149 0.0
H558 H 0.75063 0.98933 0.49371 0.0
H559 H 0.75339 0.03903 0.54703 0.0
H560 H 0.84319 0.04321 0.54031 0.0
C561 C 0.86708 0.01701 0.51477 0.0
C562 C 0.79697 0.97571 0.56325 0.0
C563 C 0.79692 0.05516 0.47316 0.0
C564 C 0.72672 0.01375 0.52149 0.0
H565 H 0.8544 0.96695 0.57423 0.0
H566 H 0.89286 0.98987 0.54814 0.0
H567 H 0.89248 0.04457 0.47802 0.0
H568 H 0.85367 0.06537 0.45525 0.0
H569 H 0.7395 0.06447 0.4628 0.0
H570 H 0.70102 0.04164 0.48894 0.0
H571 H 0.70129 0.98574 0.55778 0.0
H572 H 0.7401 0.96532 0.58094 0.0
H573 H 0.75399 0.06746 0.57375 0.0
H574 H 0.8451 0.07226 0.56641 0.0
H575 H 0.74836 0.95953 0.46875 0.0
H576 H 0.83954 0.9603 0.46632 0.0
C577 C 0.47682 0.27089 0.0512 0.0
C578 C 0.46539 0.28999 0.05598 0.0
C579 C 0.48113 0.30497 0.04267 0.0
C580 C 0.50082 0.29419 0.03021 0.0
N581 N 0.4984 0.27322 0.03455 0.0
Co582 Co 0.52051 0.25164 0.01806 0.0
N583 N 0.54574 0.27373 0.00069 0.0
C584 C 0.54599 0.29461 0.00397 0.0
C585 C 0.56739 0.30579 0.99132 0.0
C586 C 0.58154 0.29119 0.97905 0.0
C587 C 0.5675 0.27189 0.98457 0.0
N588 N 0.54134 0.23008 0.00014 0.0
C589 C 0.56077 0.2325 0.9816 0.0
C590 C 0.56627 0.21334 0.97175 0.0
C591 C 0.55037 0.19835 0.98482 0.0
C592 C 0.53564 0.20912 0.00152 0.0
N593 N 0.4966 0.22955 0.03691 0.0
C594 C 0.49905 0.20859 0.03614 0.0
C595 C 0.48308 0.19731 0.05349 0.0
C596 C 0.46986 0.21194 0.06641 0.0
C597 C 0.47809 0.23142 0.05581 0.0
N598 N 0.4931 0.25208 0.99178 0.0
C599 C 0.45576 0.25249 0.95326 0.0
C600 C 0.45876 0.23422 0.96728 0.0
C601 C 0.47737 0.23435 0.98629 0.0
C602 C 0.47155 0.27059 0.95906 0.0
C603 C 0.48983 0.27007 0.97824 0.0
N604 N 0.54789 0.25122 0.04431 0.0
C605 C 0.57944 0.23249 0.06966 0.0
C606 C 0.58496 0.25032 0.08299 0.0
C607 C 0.57184 0.26866 0.07637 0.0
C608 C 0.5537 0.26881 0.05708 0.0
C609 C 0.56095 0.23326 0.05058 0.0
H610 H 0.54441 0.28332 0.05302 0.0
H611 H 0.55744 0.21908 0.04128 0.0
H612 H 0.47876 0.21989 0.9962 0.0
H613 H 0.50127 0.28442 0.98158 0.0
C614 C 0.52398 0.30338 0.01686 0.0
C615 C 0.46815 0.2513 0.06439 0.0
C616 C 0.57425 0.25257 0.97273 0.0
C617 C 0.51665 0.19999 0.01896 0.0
H618 H 0.44812 0.29292 0.06846 0.0
H619 H 0.47917 0.32177 0.0428 0.0
H620 H 0.57166 0.32261 0.99051 0.0
H621 H 0.59962 0.2945 0.96684 0.0
H622 H 0.58 0.21033 0.95649 0.0
H623 H 0.54935 0.18162 0.98223 0.0
H624 H 0.48172 0.18048 0.05671 0.0
H625 H 0.45619 0.20844 0.08211 0.0
H626 H 0.44667 0.21986 0.96373 0.0
H627 H 0.47026 0.28509 0.94858 0.0
H628 H 0.58942 0.21797 0.0738 0.0
H629 H 0.57508 0.28284 0.08628 0.0
C630 C 0.20516 0.36451 0.34261 0.0
C631 C 0.19559 0.34922 0.32683 0.0
C632 C 0.18964 0.3823 0.34672 0.0
C633 C 0.16405 0.38486 0.33467 0.0
C634 C 0.15451 0.36962 0.31847 0.0
C635 C 0.17037 0.35199 0.31478 0.0
C636 C 0.20039 0.39819 0.36418 0.0
C637 C 0.12743 0.37187 0.30512 0.0
C638 C 0.10672 0.41836 0.35955 0.0
C639 C 0.11016 0.43642 0.3445 0.0
C640 C 0.12481 0.40177 0.35715 0.0
C641 C 0.14681 0.40325 0.33919 0.0
C642 C 0.15102 0.42175 0.32451 0.0
C643 C 0.13266 0.43815 0.32737 0.0
C644 C 0.11978 0.38236 0.37328 0.0
C645 C 0.17416 0.42388 0.3051 0.0
H646 H 0.22453 0.36235 0.35211 0.0
H647 H 0.16312 0.3404 0.30226 0.0
H648 H 0.20297 0.41394 0.35514 0.0
H649 H 0.18469 0.39926 0.37929 0.0
H650 H 0.22101 0.39414 0.37167 0.0
H651 H 0.12325 0.35881 0.29282 0.0
H652 H 0.10921 0.3723 0.31815 0.0
H653 H 0.12851 0.38688 0.29442 0.0
H654 H 0.08958 0.41709 0.37304 0.0
H655 H 0.13524 0.45199 0.31553 0.0
H656 H 0.13967 0.3784 0.38205 0.0
H657 H 0.11318 0.36886 0.36236 0.0
H658 H 0.10313 0.38429 0.38747 0.0
H659 H 0.19487 0.4203 0.31266 0.0
H660 H 0.176 0.43985 0.29647 0.0
H661 H 0.16971 0.41239 0.29101 0.0
C662 C 0.14916 0.66669 0.72131 0.0
C663 C 0.17024 0.67257 0.70377 0.0
C664 C 0.13264 0.64794 0.71975 0.0
C665 C 0.13693 0.63506 0.69987 0.0
C666 C 0.15804 0.64107 0.68196 0.0
C667 C 0.17472 0.65967 0.6843 0.0
C668 C 0.11076 0.64185 0.73946 0.0
C669 C 0.16278 0.62798 0.66024 0.0
C670 C 0.11074 0.57789 0.70649 0.0
C671 C 0.08398 0.57852 0.69652 0.0
C672 C 0.12832 0.59619 0.7076 0.0
C673 C 0.11915 0.61536 0.69785 0.0
C674 C 0.09251 0.61585 0.68694 0.0
C675 C 0.07508 0.59743 0.68666 0.0
C676 C 0.15634 0.5951 0.71976 0.0
C677 C 0.08227 0.63587 0.67586 0.0
H678 H 0.14593 0.67662 0.73647 0.0
H679 H 0.19097 0.66435 0.67069 0.0
H680 H 0.08932 0.64076 0.73191 0.0
H681 H 0.11486 0.62615 0.74734 0.0
H682 H 0.11073 0.65326 0.75409 0.0
H683 H 0.1797 0.63505 0.64773 0.0
H684 H 0.1687 0.61205 0.66601 0.0
H685 H 0.14285 0.62613 0.65033 0.0
H686 H 0.1176 0.56314 0.71387 0.0
H687 H 0.05438 0.59777 0.67883 0.0
H688 H 0.15663 0.60548 0.73535 0.0
H689 H 0.17392 0.60083 0.70715 0.0
H690 H 0.16045 0.57893 0.7262 0.0
H691 H 0.07926 0.64746 0.69 0.0
H692 H 0.06193 0.63327 0.66668 0.0
H693 H 0.0984 0.64288 0.66261 0.0
C694 C 0.8506 0.65013 0.30494 0.0
C695 C 0.85526 0.66722 0.3198 0.0
C696 C 0.86645 0.63221 0.30714 0.0
C697 C 0.88769 0.6314 0.32446 0.0
C698 C 0.89246 0.64852 0.33958 0.0
C699 C 0.87612 0.66617 0.33714 0.0
C700 C 0.86066 0.61423 0.29076 0.0
C701 C 0.91498 0.64825 0.35823 0.0
C702 C 0.91368 0.57844 0.34453 0.0
C703 C 0.93883 0.57759 0.3306 0.0
C704 C 0.8967 0.59578 0.34259 0.0
C705 C 0.90524 0.61276 0.32651 0.0
C706 C 0.93064 0.61199 0.31243 0.0
C707 C 0.94707 0.59437 0.31457 0.0
C708 C 0.86961 0.59594 0.35771 0.0
C709 C 0.94063 0.62987 0.29529 0.0
H710 H 0.83486 0.65089 0.29125 0.0
H711 H 0.87959 0.67912 0.34896 0.0
H712 H 0.87984 0.61175 0.27941 0.0
H713 H 0.85567 0.59953 0.3016 0.0
H714 H 0.84275 0.61702 0.2788 0.0
H715 H 0.91603 0.66282 0.36858 0.0
H716 H 0.91072 0.63467 0.37101 0.0
H717 H 0.93602 0.64636 0.34938 0.0
H718 H 0.90715 0.56541 0.35679 0.0
H719 H 0.9667 0.59389 0.30403 0.0
H720 H 0.85131 0.59765 0.34593 0.0
H721 H 0.87037 0.60959 0.36953 0.0
H722 H 0.86582 0.58141 0.36914 0.0
H723 H 0.92434 0.63262 0.28178 0.0
H724 H 0.9609 0.62683 0.28567 0.0
H725 H 0.94363 0.64451 0.30529 0.0
C726 C 0.849 0.38179 0.72365 0.0
C727 C 0.84939 0.36667 0.70599 0.0
C728 C 0.86601 0.40042 0.72097 0.0
C729 C 0.88352 0.40411 0.69997 0.0
C730 C 0.88335 0.38917 0.68174 0.0
C731 C 0.86644 0.37053 0.68506 0.0
C732 C 0.86591 0.41584 0.74096 0.0
C733 C 0.9014 0.39272 0.65894 0.0
C734 C 0.91163 0.46023 0.68663 0.0
C735 C 0.93915 0.45961 0.69507 0.0
C736 C 0.89343 0.44213 0.68756 0.0
C737 C 0.90293 0.42318 0.69762 0.0
C738 C 0.93083 0.42255 0.70611 0.0
C739 C 0.94868 0.44079 0.70458 0.0
C740 C 0.86398 0.44334 0.67807 0.0
C741 C 0.94164 0.40273 0.71724 0.0
H742 H 0.83607 0.37872 0.73996 0.0
H743 H 0.86657 0.3589 0.67131 0.0
H744 H 0.88737 0.41749 0.74844 0.0
H745 H 0.86065 0.43154 0.73384 0.0
H746 H 0.85048 0.4109 0.75581 0.0
H747 H 0.89752 0.3802 0.64589 0.0
H748 H 0.89713 0.40805 0.65019 0.0
H749 H 0.92416 0.39327 0.66331 0.0
H750 H 0.90435 0.47492 0.67945 0.0
H751 H 0.97002 0.44048 0.71116 0.0
H752 H 0.848 0.44005 0.69294 0.0
H753 H 0.86031 0.43123 0.66452 0.0
H754 H 0.8604 0.45897 0.66968 0.0
H755 H 0.92819 0.39761 0.73329 0.0
H756 H 0.96396 0.40485 0.72276 0.0
H757 H 0.94026 0.38993 0.70429 0.0
C758 C 0.22158 0.158 0.38805 0.0
C759 C 0.24545 0.16116 0.3724 0.0
C760 C 0.21752 0.13971 0.40275 0.0
C761 C 0.23816 0.12443 0.40223 0.0
C762 C 0.26218 0.12741 0.38642 0.0
C763 C 0.26532 0.14556 0.37148 0.0
C764 C 0.19136 0.13687 0.41906 0.0
C765 C 0.28487 0.1116 0.38558 0.0
C766 C 0.24446 0.08813 0.45698 0.0
C767 C 0.23248 0.06924 0.44896 0.0
C768 C 0.24621 0.10628 0.44202 0.0
C769 C 0.23515 0.10556 0.41868 0.0
C770 C 0.22233 0.0866 0.41076 0.0
C771 C 0.22156 0.06854 0.4259 0.0
C772 C 0.2606 0.12605 0.45093 0.0
C773 C 0.20978 0.08534 0.38621 0.0
H774 H 0.20625 0.16999 0.38923 0.0
H775 H 0.28348 0.1475 0.35908 0.0
H776 H 0.18016 0.12153 0.41606 0.0
H777 H 0.19749 0.13677 0.43814 0.0
H778 H 0.1764 0.1495 0.41614 0.0
H779 H 0.30244 0.11639 0.3725 0.0
H780 H 0.2938 0.10951 0.40366 0.0
H781 H 0.27558 0.09612 0.38059 0.0
H782 H 0.25299 0.08853 0.47484 0.0
H783 H 0.21257 0.05381 0.41971 0.0
H784 H 0.24596 0.13906 0.45025 0.0
H785 H 0.27929 0.13081 0.43903 0.0
H786 H 0.26776 0.12404 0.46966 0.0
H787 H 0.19447 0.09777 0.38369 0.0
H788 H 0.19874 0.06986 0.38351 0.0
H789 H 0.22676 0.08805 0.37206 0.0
C790 C 0.37018 0.76125 0.82308 0.0
C791 C 0.34383 0.77045 0.82355 0.0
C792 C 0.38724 0.76132 0.84327 0.0
C793 C 0.37792 0.77107 0.86436 0.0
C794 C 0.35151 0.78056 0.86492 0.0
C795 C 0.33471 0.78 0.84459 0.0
C796 C 0.41521 0.75092 0.84204 0.0
C797 C 0.34097 0.79126 0.88703 0.0
C798 C 0.40941 0.75528 0.92386 0.0
C799 C 0.43023 0.77144 0.92649 0.0
C800 C 0.3923 0.75494 0.9037 0.0
C801 C 0.3958 0.77129 0.88588 0.0
C802 C 0.41651 0.78777 0.88853 0.0
C803 C 0.43359 0.78757 0.9087 0.0
C804 C 0.37056 0.73702 0.90142 0.0
C805 C 0.42072 0.80556 0.86998 0.0
H806 H 0.37766 0.75413 0.80682 0.0
H807 H 0.3142 0.78685 0.84531 0.0
H808 H 0.43282 0.76257 0.84512 0.0
H809 H 0.41565 0.73853 0.85647 0.0
H810 H 0.41919 0.74374 0.82442 0.0
H811 H 0.32025 0.79831 0.88437 0.0
H812 H 0.33864 0.77982 0.90251 0.0
H813 H 0.35665 0.80379 0.89192 0.0
H814 H 0.40632 0.74293 0.93766 0.0
H815 H 0.4499 0.79994 0.91031 0.0
H816 H 0.37469 0.72885 0.88448 0.0
H817 H 0.34905 0.74313 0.90048 0.0
H818 H 0.37067 0.72542 0.91674 0.0
H819 H 0.42706 0.79937 0.85232 0.0
H820 H 0.43718 0.81749 0.87505 0.0
H821 H 0.40051 0.81336 0.86758 0.0
C822 C 0.77055 0.84841 0.39966 0.0
C823 C 0.78797 0.84789 0.37881 0.0
C824 C 0.77143 0.86594 0.41423 0.0
C825 C 0.79018 0.88337 0.40778 0.0
C826 C 0.80802 0.88285 0.3869 0.0
C827 C 0.80671 0.86512 0.37269 0.0
C828 C 0.75206 0.86593 0.43635 0.0
C829 C 0.82838 0.90109 0.3795 0.0
C830 C 0.77408 0.93661 0.43179 0.0
C831 C 0.79283 0.93831 0.45075 0.0
C832 C 0.77295 0.91878 0.41771 0.0
C833 C 0.79095 0.90225 0.42273 0.0
C834 C 0.80984 0.90383 0.44189 0.0
C835 C 0.81057 0.92184 0.45566 0.0
C836 C 0.7526 0.9177 0.39735 0.0
C837 C 0.82925 0.88647 0.44788 0.0
H838 H 0.75577 0.83527 0.40435 0.0
H839 H 0.82052 0.8647 0.35679 0.0
H840 H 0.76469 0.86861 0.45254 0.0
H841 H 0.7375 0.87895 0.43475 0.0
H842 H 0.73918 0.85096 0.43917 0.0
H843 H 0.84095 0.89815 0.36285 0.0
H844 H 0.81652 0.91543 0.37642 0.0
H845 H 0.8432 0.90431 0.39415 0.0
H846 H 0.76055 0.94937 0.42775 0.0
H847 H 0.8248 0.92293 0.47051 0.0
H848 H 0.73795 0.90362 0.39995 0.0
H849 H 0.7645 0.91616 0.38004 0.0
H850 H 0.73983 0.93179 0.39596 0.0
H851 H 0.81656 0.87166 0.45219 0.0
H852 H 0.84266 0.89012 0.46339 0.0
H853 H 0.84329 0.88369 0.43207 0.0
C854 C 0.65943 0.2476 0.84662 0.0
C855 C 0.68511 0.25987 0.84585 0.0
C856 C 0.64199 0.24556 0.86755 0.0
C857 C 0.64913 0.25724 0.88782 0.0
C858 C 0.67432 0.27018 0.88711 0.0
C859 C 0.69243 0.27073 0.86657 0.0
C860 C 0.61594 0.2308 0.86796 0.0
C861 C 0.68206 0.28368 0.90794 0.0
C862 C 0.58776 0.26669 0.93115 0.0
C863 C 0.5936 0.25367 0.95095 0.0
C864 C 0.6062 0.26858 0.91084 0.0
C865 C 0.63006 0.25607 0.90968 0.0
C866 C 0.63565 0.24245 0.92939 0.0
C867 C 0.61793 0.24203 0.95015 0.0
C868 C 0.60036 0.28419 0.89085 0.0
C869 C 0.65998 0.22805 0.9284 0.0
H870 H 0.65255 0.23954 0.83089 0.0
H871 H 0.71236 0.27976 0.86705 0.0
H872 H 0.61519 0.22042 0.8844 0.0
H873 H 0.59657 0.23987 0.86842 0.0
H874 H 0.61537 0.22085 0.85196 0.0
H875 H 0.70045 0.29479 0.90338 0.0
H876 H 0.66376 0.29282 0.91356 0.0
H877 H 0.68743 0.27366 0.92361 0.0
H878 H 0.56896 0.27574 0.93178 0.0
H879 H 0.62276 0.23225 0.96564 0.0
H880 H 0.59494 0.27585 0.87434 0.0
H881 H 0.61961 0.29447 0.88647 0.0
H882 H 0.58263 0.29419 0.89567 0.0
H883 H 0.65929 0.21898 0.91174 0.0
H884 H 0.65954 0.21686 0.94416 0.0
H885 H 0.68043 0.23736 0.92789 0.0
C886 C 0.21898 0.87276 0.64839 0.0
C887 C 0.24219 0.86012 0.64591 0.0
C888 C 0.21708 0.89101 0.63388 0.0
C889 C 0.23921 0.89691 0.61686 0.0
C890 C 0.2628 0.88424 0.61441 0.0
C891 C 0.26387 0.86588 0.62883 0.0
C892 C 0.19135 0.9039 0.63667 0.0
C893 C 0.28703 0.89021 0.59674 0.0
C894 C 0.22565 0.93389 0.56409 0.0
C895 C 0.23657 0.95305 0.57224 0.0
C896 C 0.2259 0.91552 0.57861 0.0
C897 C 0.23779 0.91638 0.60163 0.0
C898 C 0.24872 0.93579 0.60995 0.0
C899 C 0.24764 0.95398 0.59522 0.0
C900 C 0.21358 0.89522 0.5693 0.0
C901 C 0.2619 0.93728 0.63423 0.0
H902 H 0.20211 0.86819 0.66147 0.0
H903 H 0.28195 0.85618 0.6271 0.0
H904 H 0.19786 0.91996 0.64202 0.0
H905 H 0.18083 0.90544 0.6192 0.0
H906 H 0.1757 0.89688 0.65035 0.0
H907 H 0.30402 0.87883 0.59732 0.0
H908 H 0.27915 0.89113 0.57819 0.0
H909 H 0.29635 0.90597 0.60068 0.0
H910 H 0.21696 0.93333 0.54631 0.0
H911 H 0.2558 0.96893 0.60149 0.0
H912 H 0.197 0.88826 0.58217 0.0
H913 H 0.23035 0.88376 0.56773 0.0
H914 H 0.20411 0.89741 0.55143 0.0
H915 H 0.24626 0.93176 0.64864 0.0
H916 H 0.26959 0.95354 0.63793 0.0
H917 H 0.28003 0.92694 0.63519 0.0
C918 C 0.69599 0.7781 0.17841 0.0
C919 C 0.68639 0.76649 0.19923 0.0
C920 C 0.67899 0.77968 0.15826 0.0
C921 C 0.65184 0.76922 0.15883 0.0
C922 C 0.642 0.75747 0.17974 0.0
C923 C 0.65933 0.75633 0.19971 0.0
C924 C 0.69016 0.79245 0.13632 0.0
C925 C 0.6132 0.74603 0.18098 0.0
C926 C 0.59666 0.78656 0.11519 0.0
C927 C 0.59847 0.77154 0.09745 0.0
C928 C 0.61419 0.78619 0.13509 0.0
C929 C 0.63384 0.77031 0.13742 0.0
C930 C 0.63599 0.75523 0.11949 0.0
C931 C 0.6184 0.75609 0.09968 0.0
C932 C 0.61142 0.80263 0.15378 0.0
C933 C 0.65665 0.73802 0.12137 0.0
H934 H 0.71701 0.78575 0.17771 0.0
H935 H 0.65152 0.74761 0.21583 0.0
H936 H 0.69164 0.78224 0.12064 0.0
H937 H 0.67529 0.80475 0.13175 0.0
H938 H 0.7114 0.80009 0.13901 0.0
H939 H 0.60873 0.73752 0.19854 0.0
H940 H 0.59644 0.7573 0.17807 0.0
H941 H 0.6118 0.73458 0.16645 0.0
H942 H 0.58109 0.79839 0.11381 0.0
H943 H 0.62031 0.74463 0.08587 0.0
H944 H 0.63227 0.81093 0.1562 0.0
H945 H 0.6046 0.79503 0.17139 0.0
H946 H 0.59586 0.81438 0.14885 0.0
H947 H 0.67856 0.74492 0.12247 0.0
H948 H 0.65585 0.7276 0.1058 0.0
H949 H 0.65193 0.72836 0.1381 0.0
C950 C 0.78166 0.15738 0.67273 0.0
C951 C 0.79571 0.17676 0.6664 0.0
C952 C 0.78339 0.14024 0.65774 0.0
C953 C 0.79971 0.14247 0.63593 0.0
C954 C 0.81451 0.16181 0.62969 0.0
C955 C 0.81227 0.17874 0.64497 0.0
C956 C 0.76729 0.11986 0.665 0.0
C957 C 0.83219 0.16476 0.60662 0.0
C958 C 0.8207 0.09275 0.60585 0.0
C959 C 0.80021 0.09066 0.58826 0.0
C960 C 0.82104 0.10968 0.62132 0.0
C961 C 0.80032 0.12481 0.61922 0.0
C962 C 0.77975 0.1229 0.60138 0.0
C963 C 0.78001 0.10591 0.58608 0.0
C964 C 0.84337 0.11126 0.64007 0.0
C965 C 0.75729 0.13872 0.59857 0.0
H966 H 0.76921 0.15561 0.68945 0.0
H967 H 0.82292 0.19371 0.63979 0.0
H968 H 0.75129 0.11605 0.65143 0.0
H969 H 0.78196 0.10686 0.66556 0.0
H970 H 0.75626 0.1205 0.68288 0.0
H971 H 0.8436 0.18041 0.60503 0.0
H972 H 0.84795 0.15251 0.60557 0.0
H973 H 0.8184 0.16301 0.59097 0.0
H974 H 0.8362 0.08094 0.60783 0.0
H975 H 0.76443 0.10463 0.57225 0.0
H976 H 0.83312 0.1104 0.65833 0.0
H977 H 0.8554 0.12662 0.63803 0.0
H978 H 0.85854 0.09858 0.63885 0.0
H979 H 0.74434 0.13919 0.61552 0.0
H980 H 0.74296 0.13505 0.58367 0.0
H981 H 0.7674 0.15462 0.59504 0.0
C982 C 0.35874 0.26824 0.17391 0.0
C983 C 0.36542 0.25707 0.1951 0.0
C984 C 0.37599 0.26811 0.15292 0.0
C985 C 0.39943 0.25523 0.15225 0.0
C986 C 0.40597 0.24339 0.17307 0.0
C987 C 0.38965 0.24509 0.19439 0.0
C988 C 0.36907 0.28182 0.13146 0.0
C989 C 0.42998 0.22865 0.1728 0.0
C990 C 0.42452 0.24047 0.0898 0.0
C991 C 0.45052 0.25198 0.08705 0.0
C992 C 0.40824 0.2407 0.11133 0.0
C993 C 0.41707 0.2541 0.12975 0.0
C994 C 0.44269 0.26651 0.12658 0.0
C995 C 0.45956 0.26475 0.10562 0.0
C996 C 0.38183 0.22642 0.11442 0.0
C997 C 0.45198 0.28199 0.14505 0.0
H998 H 0.33989 0.2771 0.17335 0.0
H999 H 0.39619 0.23686 0.21039 0.0
H1000 H 0.38852 0.29042 0.12386 0.0
H1001 H 0.36034 0.27198 0.11715 0.0
H1002 H 0.35325 0.29342 0.13617 0.0
H1003 H 0.43013 0.21868 0.18954 0.0
H1004 H 0.42833 0.21829 0.15723 0.0
H1005 H 0.45059 0.23772 0.17076 0.0
H1006 H 0.41715 0.231 0.07523 0.0
H1007 H 0.4796 0.27377 0.10345 0.0
H1008 H 0.36278 0.23582 0.1143 0.0
H1009 H 0.38166 0.21766 0.13201 0.0
H1010 H 0.38015 0.21496 0.09989 0.0
H1011 H 0.43452 0.29238 0.14935 0.0
H1012 H 0.47096 0.29189 0.13875 0.0
H1013 H 0.45703 0.27357 0.16199 0.0
C1014 C 0.83466 0.66593 0.69077 0.0
C1015 C 0.84296 0.6807 0.70763 0.0
C1016 C 0.85065 0.64839 0.68661 0.0
C1017 C 0.87545 0.64554 0.69967 0.0
C1018 C 0.88413 0.66053 0.71647 0.0
C1019 C 0.86783 0.67793 0.7202 0.0
C1020 C 0.84076 0.63274 0.66854 0.0
C1021 C 0.91049 0.65805 0.73074 0.0
C1022 C 0.9028 0.59128 0.70975 0.0
C1023 C 0.92629 0.5918 0.69363 0.0
C1024 C 0.88558 0.60844 0.71139 0.0
C1025 C 0.89194 0.62656 0.69647 0.0
C1026 C 0.91498 0.62691 0.67952 0.0
C1027 C 0.93191 0.60951 0.67832 0.0
C1028 C 0.86113 0.60742 0.72963 0.0
C1029 C 0.92234 0.64593 0.66326 0.0
H1030 H 0.81532 0.66785 0.68116 0.0
H1031 H 0.87465 0.68947 0.73294 0.0
H1032 H 0.85793 0.63054 0.65493 0.0
H1033 H 0.83563 0.61728 0.67774 0.0
H1034 H 0.82171 0.63771 0.65911 0.0
H1035 H 0.91464 0.67133 0.74274 0.0
H1036 H 0.90832 0.6433 0.74192 0.0
H1037 H 0.92918 0.65689 0.71837 0.0
H1038 H 0.89805 0.57748 0.72134 0.0
H1039 H 0.95016 0.61009 0.66596 0.0
H1040 H 0.8412 0.61107 0.72074 0.0
H1041 H 0.86493 0.61938 0.74333 0.0
H1042 H 0.85812 0.59178 0.73895 0.0
H1043 H 0.9034 0.65061 0.65354 0.0
H1044 H 0.93954 0.64313 0.64986 0.0
H1045 H 0.92925 0.65933 0.67423 0.0
C1046 C 0.84642 0.37266 0.34762 0.0
C1047 C 0.85334 0.36011 0.32823 0.0
C1048 C 0.86193 0.39153 0.35148 0.0
C1049 C 0.88451 0.39828 0.33528 0.0
C1050 C 0.89119 0.386 0.31538 0.0
C1051 C 0.87582 0.36698 0.31229 0.0
C1052 C 0.85452 0.40404 0.37313 0.0
C1053 C 0.91494 0.39278 0.29753 0.0
C1054 C 0.91363 0.45493 0.33188 0.0
C1055 C 0.9393 0.45321 0.34346 0.0
C1056 C 0.89503 0.43728 0.32967 0.0
C1057 C 0.90221 0.41762 0.33965 0.0
C1058 C 0.92759 0.41608 0.35228 0.0
C1059 C 0.94605 0.43383 0.35366 0.0
C1060 C 0.86849 0.43943 0.31561 0.0
C1061 C 0.93583 0.39552 0.36351 0.0
H1062 H 0.82882 0.36778 0.35982 0.0
H1063 H 0.88185 0.35732 0.29753 0.0
H1064 H 0.87297 0.40533 0.38494 0.0
H1065 H 0.84963 0.42021 0.36737 0.0
H1066 H 0.83607 0.39682 0.38382 0.0
H1067 H 0.91601 0.3823 0.28203 0.0
H1068 H 0.91218 0.40901 0.29059 0.0
H1069 H 0.93553 0.39282 0.30655 0.0
H1070 H 0.90873 0.46991 0.32371 0.0
H1071 H 0.96623 0.43244 0.36218 0.0
H1072 H 0.84972 0.43269 0.32619 0.0
H1073 H 0.87018 0.43049 0.29891 0.0
H1074 H 0.86489 0.45604 0.31058 0.0
H1075 H 0.91795 0.3882 0.37477 0.0
H1076 H 0.95465 0.39748 0.37485 0.0
H1077 H 0.94078 0.38449 0.34918 0.0
C1078 C 0.18407 0.37438 0.72423 0.0
C1079 C 0.17991 0.35704 0.70972 0.0
C1080 C 0.1678 0.39201 0.72154 0.0
C1081 C 0.14673 0.39225 0.70403 0.0
C1082 C 0.14273 0.37492 0.68906 0.0
C1083 C 0.15945 0.35754 0.69204 0.0
C1084 C 0.17287 0.41027 0.73768 0.0
C1085 C 0.12033 0.37454 0.67031 0.0
C1086 C 0.08574 0.42751 0.71491 0.0
C1087 C 0.09329 0.4448 0.6994 0.0
C1088 C 0.1028 0.41023 0.71637 0.0
C1089 C 0.12812 0.41026 0.70207 0.0
C1090 C 0.13579 0.4276 0.68624 0.0
C1091 C 0.11821 0.44465 0.68503 0.0
C1092 C 0.09377 0.39196 0.7333 0.0
C1093 C 0.16273 0.42824 0.67084 0.0
H1094 H 0.20014 0.37415 0.73769 0.0
H1095 H 0.156 0.34409 0.68094 0.0
H1096 H 0.17726 0.42495 0.72667 0.0
H1097 H 0.15355 0.41241 0.74901 0.0
H1098 H 0.1909 0.40801 0.74967 0.0
H1099 H 0.12063 0.36023 0.65952 0.0
H1100 H 0.09904 0.37521 0.67918 0.0
H1101 H 0.12343 0.38851 0.65794 0.0
H1102 H 0.06627 0.42743 0.72577 0.0
H1103 H 0.12423 0.45805 0.67317 0.0
H1104 H 0.1101 0.38976 0.74692 0.0
H1105 H 0.09187 0.37731 0.72319 0.0
H1106 H 0.07318 0.3942 0.74281 0.0
H1107 H 0.1813 0.42736 0.68246 0.0
H1108 H 0.16542 0.44272 0.6592 0.0
H1109 H 0.16275 0.41446 0.65923 0.0
C1110 C 0.14209 0.66528 0.33308 0.0
C1111 C 0.15818 0.6681 0.31145 0.0
C1112 C 0.12539 0.64677 0.33823 0.0
C1113 C 0.1246 0.63075 0.32127 0.0
C1114 C 0.14038 0.63363 0.29924 0.0
C1115 C 0.15705 0.65222 0.29464 0.0
C1116 C 0.1089 0.64423 0.36193 0.0
C1117 C 0.14005 0.6169 0.28069 0.0
C1118 C 0.106 0.57442 0.34201 0.0
C1119 C 0.07777 0.57191 0.33533 0.0
C1120 C 0.12126 0.59369 0.3381 0.0
C1121 C 0.10805 0.61067 0.32684 0.0
C1122 C 0.07943 0.60816 0.32016 0.0
C1123 C 0.06461 0.58872 0.32446 0.0
C1124 C 0.15171 0.59574 0.34551 0.0
C1125 C 0.0647 0.62583 0.30796 0.0
H1126 H 0.14249 0.67759 0.34602 0.0
H1127 H 0.16971 0.65412 0.27805 0.0
H1128 H 0.08604 0.6411 0.35874 0.0
H1129 H 0.11616 0.63053 0.37238 0.0
H1130 H 0.11134 0.65833 0.37298 0.0
H1131 H 0.15253 0.62194 0.26405 0.0
H1132 H 0.14891 0.60245 0.2883 0.0
H1133 H 0.11793 0.61275 0.27582 0.0
H1134 H 0.11624 0.56115 0.3499 0.0
H1135 H 0.04288 0.5865 0.31898 0.0
H1136 H 0.15476 0.60921 0.35739 0.0
H1137 H 0.16588 0.59889 0.32937 0.0
H1138 H 0.15836 0.58136 0.35511 0.0
H1139 H 0.06596 0.63996 0.319 0.0
H1140 H 0.04204 0.6216 0.30487 0.0
H1141 H 0.07553 0.63011 0.29036 0.0
C1142 C 0.76133 0.87879 0.65425 0.0
C1143 C 0.78183 0.86372 0.65385 0.0
C1144 C 0.76437 0.89692 0.63926 0.0
C1145 C 0.78879 0.9002 0.6239 0.0
C1146 C 0.80973 0.88511 0.62365 0.0
C1147 C 0.80583 0.8669 0.63847 0.0
C1148 C 0.74133 0.91244 0.63968 0.0
C1149 C 0.83627 0.88827 0.60784 0.0
C1150 C 0.78449 0.93749 0.56974 0.0
C1151 C 0.79641 0.95613 0.57845 0.0
C1152 C 0.78204 0.9191 0.5843 0.0
C1153 C 0.79223 0.91936 0.60796 0.0
C1154 C 0.80486 0.9381 0.61662 0.0
C1155 C 0.80646 0.95638 0.60183 0.0
C1156 C 0.76798 0.89955 0.57457 0.0
C1157 C 0.81637 0.9389 0.64159 0.0
H1158 H 0.74266 0.87619 0.66601 0.0
H1159 H 0.82177 0.85528 0.63835 0.0
H1160 H 0.75012 0.92796 0.64502 0.0
H1161 H 0.73297 0.91457 0.62139 0.0
H1162 H 0.72344 0.90736 0.65233 0.0
H1163 H 0.85082 0.87529 0.61021 0.0
H1164 H 0.83064 0.88943 0.58866 0.0
H1165 H 0.84774 0.90323 0.61201 0.0
H1166 H 0.77661 0.93747 0.55165 0.0
H1167 H 0.8154 0.97094 0.60853 0.0
H1168 H 0.74891 0.89459 0.58592 0.0
H1169 H 0.78258 0.88651 0.57529 0.0
H1170 H 0.76147 0.90194 0.5557 0.0
H1171 H 0.79886 0.93578 0.6552 0.0
H1172 H 0.82707 0.95434 0.64504 0.0
H1173 H 0.83171 0.92651 0.64421 0.0
C1174 C 0.66171 0.25775 0.20819 0.0
C1175 C 0.68971 0.25152 0.20691 0.0
C1176 C 0.64469 0.25702 0.188 0.0
C1177 C 0.65587 0.24965 0.16612 0.0
C1178 C 0.68397 0.24297 0.16486 0.0
C1179 C 0.70063 0.24411 0.18526 0.0
C1180 C 0.61494 0.26451 0.18996 0.0
C1181 C 0.69648 0.23475 0.14194 0.0
C1182 C 0.6032 0.2322 0.11971 0.0
C1183 C 0.6039 0.2498 0.10384 0.0
C1184 C 0.62034 0.23179 0.13985 0.0
C1185 C 0.63838 0.24948 0.14438 0.0
C1186 C 0.63937 0.26721 0.12837 0.0
C1187 C 0.62227 0.2671 0.10823 0.0
C1188 C 0.61888 0.21254 0.15644 0.0
C1189 C 0.65828 0.28641 0.13266 0.0
H1190 H 0.65334 0.26367 0.22486 0.0
H1191 H 0.72218 0.23908 0.18433 0.0
H1192 H 0.61276 0.27798 0.17715 0.0
H1193 H 0.59945 0.25189 0.18499 0.0
H1194 H 0.60928 0.26944 0.20839 0.0
H1195 H 0.71832 0.2295 0.14419 0.0
H1196 H 0.68296 0.22138 0.13587 0.0
H1197 H 0.69708 0.24714 0.12745 0.0
H1198 H 0.58881 0.21887 0.11669 0.0
H1199 H 0.62336 0.28061 0.09586 0.0
H1200 H 0.61103 0.21662 0.1746 0.0
H1201 H 0.64036 0.20659 0.15842 0.0
H1202 H 0.60469 0.19974 0.1498 0.0
H1203 H 0.65259 0.29286 0.15034 0.0
H1204 H 0.65659 0.2989 0.11848 0.0
H1205 H 0.6807 0.28212 0.13328 0.0
C1206 C 0.26377 0.17615 0.6303 0.0
C1207 C 0.24617 0.17753 0.6509 0.0
C1208 C 0.26165 0.15861 0.61583 0.0
C1209 C 0.24156 0.14199 0.62223 0.0
C1210 C 0.22362 0.14334 0.64293 0.0
C1211 C 0.22608 0.16114 0.65698 0.0
C1212 C 0.28097 0.15782 0.59377 0.0
C1213 C 0.20211 0.12586 0.65042 0.0
C1214 C 0.21987 0.10423 0.57402 0.0
C1215 C 0.2371 0.08745 0.57878 0.0
C1216 C 0.221 0.12206 0.58808 0.0
C1217 C 0.23967 0.12305 0.60745 0.0
C1218 C 0.25685 0.10604 0.61253 0.0
C1219 C 0.25543 0.08847 0.59808 0.0
C1220 C 0.20252 0.13996 0.582 0.0
C1221 C 0.27683 0.10643 0.63318 0.0
H1222 H 0.2791 0.18891 0.62539 0.0
H1223 H 0.21266 0.16204 0.67304 0.0
H1224 H 0.2944 0.14413 0.59538 0.0
H1225 H 0.2682 0.15575 0.57755 0.0
H1226 H 0.295 0.17224 0.591 0.0
H1227 H 0.1895 0.12947 0.66682 0.0
H1228 H 0.18739 0.12288 0.63564 0.0
H1229 H 0.21302 0.11116 0.65399 0.0
H1230 H 0.20591 0.10359 0.55894 0.0
H1231 H 0.26854 0.07542 0.60198 0.0
H1232 H 0.21597 0.1544 0.57753 0.0
H1233 H 0.18876 0.14327 0.5978 0.0
H1234 H 0.18888 0.13662 0.56656 0.0
H1235 H 0.29265 0.11981 0.63048 0.0
H1236 H 0.2883 0.09174 0.63503 0.0
H1237 H 0.26489 0.10878 0.65029 0.0
C1238 C 0.34532 0.78195 0.16564 0.0
C1239 C 0.34685 0.76589 0.18339 0.0
C1240 C 0.36396 0.78334 0.14541 0.0
C1241 C 0.38393 0.76783 0.14227 0.0
C1242 C 0.38541 0.75141 0.1598 0.0
C1243 C 0.36729 0.75087 0.18033 0.0
C1244 C 0.36228 0.80145 0.12743 0.0
C1245 C 0.40599 0.73428 0.1568 0.0
C1246 C 0.41262 0.76056 0.07868 0.0
C1247 C 0.44013 0.76964 0.07967 0.0
C1248 C 0.39424 0.75955 0.09905 0.0
C1249 C 0.40322 0.7687 0.12055 0.0
C1250 C 0.43071 0.77852 0.12135 0.0
C1251 C 0.44904 0.77852 0.101 0.0
C1252 C 0.36542 0.7484 0.09769 0.0
C1253 C 0.44072 0.7891 0.14363 0.0
H1254 H 0.32936 0.79343 0.16731 0.0
H1255 H 0.36937 0.73866 0.19404 0.0
H1256 H 0.38344 0.80969 0.12462 0.0
H1257 H 0.35591 0.79553 0.10979 0.0
H1258 H 0.34687 0.81296 0.13331 0.0
H1259 H 0.40348 0.72202 0.17146 0.0
H1260 H 0.40289 0.72673 0.13933 0.0
H1261 H 0.42807 0.74106 0.15653 0.0
H1262 H 0.40571 0.75391 0.06204 0.0
H1263 H 0.47032 0.78563 0.10164 0.0
H1264 H 0.34856 0.75947 0.10115 0.0
H1265 H 0.36292 0.73569 0.1118 0.0
H1266 H 0.3621 0.74149 0.07988 0.0
H1267 H 0.42556 0.80089 0.14915 0.0
H1268 H 0.4621 0.79704 0.14083 0.0
H1269 H 0.44147 0.77739 0.15874 0.0
C1270 C 0.81505 0.15798 0.38589 0.0
C1271 C 0.79103 0.16992 0.38818 0.0
C1272 C 0.81745 0.13945 0.39981 0.0
C1273 C 0.79513 0.13251 0.41619 0.0
C1274 C 0.77094 0.14452 0.41875 0.0
C1275 C 0.76928 0.16314 0.40487 0.0
C1276 C 0.8437 0.12715 0.39677 0.0
C1277 C 0.74663 0.13758 0.43596 0.0
C1278 C 0.78698 0.07473 0.43487 0.0
C1279 C 0.79735 0.07484 0.45814 0.0
C1280 C 0.7863 0.0934 0.42093 0.0
C1281 C 0.79676 0.11249 0.43039 0.0
C1282 C 0.80804 0.1125 0.45368 0.0
C1283 C 0.80804 0.09364 0.46735 0.0
C1284 C 0.77386 0.09276 0.39629 0.0
C1285 C 0.81977 0.13246 0.46424 0.0
H1286 H 0.8318 0.16289 0.37284 0.0
H1287 H 0.75088 0.17242 0.40713 0.0
H1288 H 0.85351 0.12465 0.41442 0.0
H1289 H 0.83791 0.11145 0.38992 0.0
H1290 H 0.85971 0.13517 0.3841 0.0
H1291 H 0.72928 0.14867 0.43576 0.0
H1292 H 0.73785 0.12188 0.43121 0.0
H1293 H 0.75428 0.13613 0.45455 0.0
H1294 H 0.77898 0.06005 0.4278 0.0
H1295 H 0.8162 0.09356 0.48535 0.0
H1296 H 0.78966 0.09926 0.38248 0.0
H1297 H 0.75531 0.10271 0.39564 0.0
H1298 H 0.76698 0.0766 0.39147 0.0
H1299 H 0.83645 0.14009 0.45194 0.0
H1300 H 0.82894 0.12962 0.48213 0.0
H1301 H 0.80273 0.14365 0.46624 0.0
C1302 C 0.37807 0.26437 0.82867 0.0
C1303 C 0.34951 0.25721 0.83036 0.0
C1304 C 0.39534 0.2632 0.84867 0.0
C1305 C 0.3838 0.25456 0.87085 0.0
C1306 C 0.35507 0.24707 0.8726 0.0
C1307 C 0.33824 0.24855 0.85234 0.0
C1308 C 0.42583 0.2715 0.84617 0.0
C1309 C 0.34209 0.23757 0.89588 0.0
C1310 C 0.4352 0.23581 0.91706 0.0
C1311 C 0.43663 0.25268 0.93255 0.0
C1312 C 0.41785 0.23609 0.89705 0.0
C1313 C 0.40167 0.25372 0.89234 0.0
C1314 C 0.40281 0.27072 0.908 0.0
C1315 C 0.42019 0.26996 0.92795 0.0
C1316 C 0.41711 0.21764 0.88078 0.0
C1317 C 0.38585 0.2898 0.90358 0.0
H1318 H 0.38678 0.27127 0.81178 0.0
H1319 H 0.31627 0.24275 0.85363 0.0
H1320 H 0.42953 0.28444 0.85868 0.0
H1321 H 0.44019 0.25897 0.85117 0.0
H1322 H 0.43167 0.27743 0.82757 0.0
H1323 H 0.31959 0.2321 0.89411 0.0
H1324 H 0.35425 0.22408 0.90196 0.0
H1325 H 0.34321 0.24927 0.91015 0.0
H1326 H 0.44811 0.22252 0.92029 0.0
H1327 H 0.4208 0.28292 0.94005 0.0
H1328 H 0.42495 0.22279 0.86241 0.0
H1329 H 0.39498 0.21127 0.87929 0.0
H1330 H 0.43024 0.20484 0.88738 0.0
H1331 H 0.39199 0.29722 0.88572 0.0
H1332 H 0.38903 0.30166 0.91752 0.0
H1333 H 0.36294 0.28511 0.90328 0.0
C1334 C 0.22436 0.84508 0.38746 0.0
C1335 C 0.24326 0.84663 0.36741 0.0
C1336 C 0.22163 0.86193 0.40277 0.0
C1337 C 0.23808 0.88082 0.39785 0.0
C1338 C 0.25709 0.88252 0.37761 0.0
C1339 C 0.25951 0.8654 0.36269 0.0
C1340 C 0.20118 0.85953 0.42422 0.0
C1341 C 0.27501 0.90241 0.3718 0.0
C1342 C 0.21511 0.93148 0.42455 0.0
C1343 C 0.2336 0.93368 0.44362 0.0
C1344 C 0.21605 0.91419 0.40967 0.0
C1345 C 0.23584 0.89871 0.41409 0.0
C1346 C 0.25411 0.90062 0.43365 0.0
C1347 C 0.2528 0.9181 0.44814 0.0
C1348 C 0.19632 0.91272 0.38892 0.0
C1349 C 0.2753 0.88434 0.43908 0.0
H1350 H 0.21142 0.83076 0.39103 0.0
H1351 H 0.27445 0.86662 0.34745 0.0
H1352 H 0.21271 0.862 0.44104 0.0
H1353 H 0.18519 0.87162 0.42307 0.0
H1354 H 0.18995 0.8438 0.42554 0.0
H1355 H 0.28828 0.90136 0.35508 0.0
H1356 H 0.26124 0.91586 0.36966 0.0
H1357 H 0.28914 0.90583 0.38688 0.0
H1358 H 0.2004 0.94357 0.42089 0.0
H1359 H 0.26683 0.91958 0.4631 0.0
H1360 H 0.18374 0.89756 0.39013 0.0
H1361 H 0.20885 0.9132 0.37168 0.0
H1362 H 0.1815 0.92567 0.38844 0.0
H1363 H 0.2643 0.86863 0.44167 0.0
H1364 H 0.28733 0.88781 0.45543 0.0
H1365 H 0.29059 0.88352 0.42362 0.0
C1366 C 0.65365 0.78931 0.84133 0.0
C1367 C 0.6677 0.77123 0.83554 0.0
C1368 C 0.63659 0.78988 0.86239 0.0
C1369 C 0.63342 0.77191 0.87802 0.0
C1370 C 0.64728 0.75354 0.87218 0.0
C1371 C 0.66428 0.75342 0.85103 0.0
C1372 C 0.62206 0.80975 0.86798 0.0
C1373 C 0.64438 0.73406 0.88841 0.0
C1374 C 0.6115 0.77887 0.94344 0.0
C1375 C 0.5826 0.77298 0.94346 0.0
C1376 C 0.6283 0.77872 0.92219 0.0
C1377 C 0.6158 0.7724 0.90061 0.0
C1378 C 0.58651 0.76642 0.90065 0.0
C1379 C 0.57024 0.76679 0.92215 0.0
C1380 C 0.65942 0.78522 0.92285 0.0
C1381 C 0.57244 0.75955 0.87804 0.0
H1382 H 0.65585 0.80303 0.82928 0.0
H1383 H 0.67536 0.73948 0.84686 0.0
H1384 H 0.59879 0.80648 0.86968 0.0
H1385 H 0.62906 0.8156 0.88549 0.0
H1386 H 0.62661 0.82233 0.85391 0.0
H1387 H 0.65604 0.72091 0.88102 0.0
H1388 H 0.65259 0.73757 0.90637 0.0
H1389 H 0.62169 0.7289 0.89109 0.0
H1390 H 0.62089 0.78351 0.9601 0.0
H1391 H 0.54782 0.76217 0.9224 0.0
H1392 H 0.66453 0.79857 0.9099 0.0
H1393 H 0.67235 0.7721 0.91727 0.0
H1394 H 0.66576 0.78993 0.94103 0.0
H1395 H 0.57518 0.77218 0.86384 0.0
H1396 H 0.54942 0.75558 0.8811 0.0
H1397 H 0.58266 0.74562 0.87108 0.0
loop_
_geom_bond_atom_site_label_1
_geom_bond_atom_site_label_2
_geom_bond_distance
_geom_bond_site_symmetry_2
_ccdc_geom_bond_type
C0 C1 1.386 . S
C0 C2 1.397 . S
C0 H24 0.931 . S
C1 C0 1.386 . S
C1 C5 1.397 . S
C2 C0 1.397 . S
C2 C3 1.384 . S
C2 H25 0.930 . S
C3 C2 1.384 . S
C3 C4 1.377 . S
C3 C6 1.481 . S
C4 C3 1.377 . S
C4 C5 1.389 . S
C4 H26 0.929 . S
C5 C1 1.397 . S
C5 C4 1.389 . S
C5 H27 0.931 . S
C6 C3 1.481 . S
C6 C7 1.387 . S
C6 C11 1.390 . S
C7 C6 1.387 . S
C7 C8 1.401 . S
C7 H28 0.930 . S
C8 C7 1.401 . S
C8 C9 1.376 . S
C8 C17 1.511 . S
C9 C8 1.376 . S
C9 C10 1.392 . S
C9 H30 0.931 . S
C10 C9 1.392 . S
C10 C11 1.361 . S
C10 C12 1.500 . S
C11 C6 1.390 . S
C11 C10 1.361 . S
C11 H29 0.931 . S
C12 C10 1.500 . S
C12 C13 1.371 . S
C12 C14 1.365 . S
C13 C12 1.371 . S
C13 C23 1.386 . S
C13 H31 0.931 . S
C14 C12 1.365 . S
C14 C15 1.409 . S
C14 H32 0.929 . S
C15 C14 1.409 . S
C15 C16 1.380 . S
C15 H33 0.930 . S
C16 C15 1.380 . S
C16 C23 1.357 . S
C17 C8 1.511 . S
C17 C18 1.341 . S
C17 C19 1.371 . S
C18 C17 1.341 . S
C18 C22 1.394 . S
C18 H34 0.930 . S
C19 C17 1.371 . S
C19 C20 1.392 . S
C19 H35 0.931 . S
C20 C19 1.392 . S
C20 C21 1.331 . S
C20 H38 0.932 . S
C21 C20 1.331 . S
C21 C22 1.336 . S
C22 C18 1.394 . S
C22 C21 1.336 . S
C22 H37 0.929 . S
C23 C13 1.386 . S
C23 C16 1.357 . S
C23 H36 0.928 . S
H24 C0 0.931 . S
H25 C2 0.930 . S
H26 C4 0.929 . S
H27 C5 0.931 . S
H28 C7 0.930 . S
H29 C11 0.931 . S
H30 C9 0.931 . S
H31 C13 0.931 . S
H32 C14 0.929 . S
H33 C15 0.930 . S
H34 C18 0.930 . S
H35 C19 0.931 . S
H36 C23 0.928 . S
H37 C22 0.929 . S
H38 C20 0.932 . S
C39 C40 1.386 . S
C39 C41 1.397 . S
C39 H63 0.931 . S
C40 C39 1.386 . S
C40 C44 1.397 . S
C41 C39 1.397 . S
C41 C42 1.384 . S
C41 H64 0.930 . S
C42 C41 1.384 . S
C42 C43 1.377 . S
C42 C45 1.481 . S
C43 C42 1.377 . S
C43 C44 1.389 . S
C43 H65 0.929 . S
C44 C40 1.397 . S
C44 C43 1.389 . S
C44 H66 0.931 . S
C45 C42 1.481 . S
C45 C46 1.387 . S
C45 C50 1.390 . S
C46 C45 1.387 . S
C46 C47 1.401 . S
C46 H67 0.930 . S
C47 C46 1.401 . S
C47 C48 1.376 . S
C47 C56 1.511 . S
C48 C47 1.376 . S
C48 C49 1.392 . S
C48 H69 0.931 . S
C49 C48 1.392 . S
C49 C50 1.361 . S
C49 C51 1.500 . S
C50 C45 1.390 . S
C50 C49 1.361 . S
C50 H68 0.931 . S
C51 C49 1.500 . S
C51 C52 1.371 . S
C51 C53 1.365 . S
C52 C51 1.371 . S
C52 C62 1.386 . S
C52 H70 0.931 . S
C53 C51 1.365 . S
C53 C54 1.409 . S
C53 H71 0.929 . S
C54 C53 1.409 . S
C54 C55 1.380 . S
C54 H72 0.930 . S
C55 C54 1.380 . S
C55 C62 1.357 . S
C56 C47 1.511 . S
C56 C57 1.341 . S
C56 C58 1.371 . S
C57 C56 1.341 . S
C57 C61 1.394 . S
C57 H73 0.930 . S
C58 C56 1.371 . S
C58 C59 1.392 . S
C58 H74 0.931 . S
C59 C58 1.392 . S
C59 C60 1.331 . S
C59 H77 0.932 . S
C60 C59 1.331 . S
C60 C61 1.336 . S
C61 C57 1.394 . S
C61 C60 1.336 . S
C61 H76 0.929 . S
C62 C52 1.386 . S
C62 C55 1.357 . S
C62 H75 0.928 . S
H63 C39 0.931 . S
H64 C41 0.930 . S
H65 C43 0.929 . S
H66 C44 0.931 . S
H67 C46 0.930 . S
H68 C50 0.931 . S
H69 C48 0.931 . S
H70 C52 0.931 . S
H71 C53 0.929 . S
H72 C54 0.930 . S
H73 C57 0.930 . S
H74 C58 0.931 . S
H75 C62 0.928 . S
H76 C61 0.929 . S
H77 C59 0.932 . S
C78 C79 1.386 . S
C78 C80 1.397 . S
C78 H102 0.931 . S
C79 C78 1.386 . S
C79 C83 1.397 . S
C80 C78 1.397 . S
C80 C81 1.384 . S
C80 H103 0.930 . S
C81 C80 1.384 . S
C81 C82 1.377 . S
C81 C84 1.481 . S
C82 C81 1.377 . S
C82 C83 1.389 . S
C82 H104 0.929 . S
C83 C79 1.397 . S
C83 C82 1.389 . S
C83 H105 0.931 . S
C84 C81 1.481 . S
C84 C85 1.387 . S
C84 C89 1.390 . S
C85 C84 1.387 . S
C85 C86 1.401 . S
C85 H106 0.930 . S
C86 C85 1.401 . S
C86 C87 1.376 . S
C86 C95 1.511 . S
C87 C86 1.376 . S
C87 C88 1.392 . S
C87 H108 0.931 . S
C88 C87 1.392 . S
C88 C89 1.361 . S
C88 C90 1.500 . S
C89 C84 1.390 . S
C89 C88 1.361 . S
C89 H107 0.931 . S
C90 C88 1.500 . S
C90 C91 1.371 . S
C90 C92 1.365 . S
C91 C90 1.371 . S
C91 C101 1.386 . S
C91 H109 0.931 . S
C92 C90 1.365 . S
C92 C93 1.409 . S
C92 H110 0.929 . S
C93 C92 1.409 . S
C93 C94 1.380 . S
C93 H111 0.930 . S
C94 C93 1.380 . S
C94 C101 1.357 . S
C95 C86 1.511 . S
C95 C96 1.341 . S
C95 C97 1.371 . S
C96 C95 1.341 . S
C96 C100 1.394 . S
C96 H112 0.930 . S
C97 C95 1.371 . S
C97 C98 1.392 . S
C97 H113 0.931 . S
C98 C97 1.392 . S
C98 C99 1.331 . S
C98 H116 0.932 . S
C99 C98 1.331 . S
C99 C100 1.336 . S
C100 C96 1.394 . S
C100 C99 1.336 . S
C100 H115 0.929 . S
C101 C91 1.386 . S
C101 C94 1.357 . S
C101 H114 0.928 . S
H102 C78 0.931 . S
H103 C80 0.930 . S
H104 C82 0.929 . S
H105 C83 0.931 . S
H106 C85 0.930 . S
H107 C89 0.931 . S
H108 C87 0.931 . S
H109 C91 0.931 . S
H110 C92 0.929 . S
H111 C93 0.930 . S
H112 C96 0.930 . S
H113 C97 0.931 . S
H114 C101 0.928 . S
H115 C100 0.929 . S
H116 C98 0.932 . S
C117 C118 1.386 . S
C117 C119 1.397 . S
C117 H141 0.931 . S
C118 C117 1.386 . S
C118 C122 1.397 . S
C119 C117 1.397 . S
C119 C120 1.384 . S
C119 H142 0.930 . S
C120 C119 1.384 . S
C120 C121 1.377 . S
C120 C123 1.481 . S
C121 C120 1.377 . S
C121 C122 1.389 . S
C121 H143 0.929 . S
C122 C118 1.397 . S
C122 C121 1.389 . S
C122 H144 0.931 . S
C123 C120 1.481 . S
C123 C124 1.387 . S
C123 C128 1.390 . S
C124 C123 1.387 . S
C124 C125 1.401 . S
C124 H145 0.930 . S
C125 C124 1.401 . S
C125 C126 1.376 . S
C125 C134 1.511 . S
C126 C125 1.376 . S
C126 C127 1.392 . S
C126 H147 0.931 . S
C127 C126 1.392 . S
C127 C128 1.361 . S
C127 C129 1.500 . S
C128 C123 1.390 . S
C128 C127 1.361 . S
C128 H146 0.931 . S
C129 C127 1.500 . S
C129 C130 1.371 . S
C129 C131 1.365 . S
C130 C129 1.371 . S
C130 C140 1.386 . S
C130 H148 0.931 . S
C131 C129 1.365 . S
C131 C132 1.409 . S
C131 H149 0.929 . S
C132 C131 1.409 . S
C132 C133 1.380 . S
C132 H150 0.930 . S
C133 C132 1.380 . S
C133 C140 1.357 . S
C134 C125 1.511 . S
C134 C135 1.341 . S
C134 C136 1.371 . S
C135 C134 1.341 . S
C135 C139 1.394 . S
C135 H151 0.930 . S
C136 C134 1.371 . S
C136 C137 1.392 . S
C136 H152 0.931 . S
C137 C136 1.392 . S
C137 C138 1.331 . S
C137 H155 0.932 . S
C138 C137 1.331 . S
C138 C139 1.336 . S
C139 C135 1.394 . S
C139 C138 1.336 . S
C139 H154 0.929 . S
C140 C130 1.386 . S
C140 C133 1.357 . S
C140 H153 0.928 . S
H141 C117 0.931 . S
H142 C119 0.930 . S
H143 C121 0.929 . S
H144 C122 0.931 . S
H145 C124 0.930 . S
H146 C128 0.931 . S
H147 C126 0.931 . S
H148 C130 0.931 . S
H149 C131 0.929 . S
H150 C132 0.930 . S
H151 C135 0.930 . S
H152 C136 0.931 . S
H153 C140 0.928 . S
H154 C139 0.929 . S
H155 C137 0.932 . S
C156 C157 1.386 . S
C156 C158 1.397 . S
C156 H180 0.931 . S
C157 C156 1.386 . S
C157 C161 1.397 . S
C158 C156 1.397 . S
C158 C159 1.384 . S
C158 H181 0.930 . S
C159 C158 1.384 . S
C159 C160 1.377 . S
C159 C162 1.481 . S
C160 C159 1.377 . S
C160 C161 1.389 . S
C160 H182 0.929 . S
C161 C157 1.397 . S
C161 C160 1.389 . S
C161 H183 0.931 . S
C162 C159 1.481 . S
C162 C163 1.387 . S
C162 C167 1.390 . S
C163 C162 1.387 . S
C163 C164 1.401 . S
C163 H184 0.930 . S
C164 C163 1.401 . S
C164 C165 1.376 . S
C164 C173 1.511 . S
C165 C164 1.376 . S
C165 C166 1.392 . S
C165 H186 0.931 . S
C166 C165 1.392 . S
C166 C167 1.361 . S
C166 C168 1.500 . S
C167 C162 1.390 . S
C167 C166 1.361 . S
C167 H185 0.931 . S
C168 C166 1.500 . S
C168 C169 1.371 . S
C168 C170 1.365 . S
C169 C168 1.371 . S
C169 C179 1.386 . S
C169 H187 0.931 . S
C170 C168 1.365 . S
C170 C171 1.409 . S
C170 H188 0.929 . S
C171 C170 1.409 . S
C171 C172 1.380 . S
C171 H189 0.930 . S
C172 C171 1.380 . S
C172 C179 1.357 . S
C173 C164 1.511 . S
C173 C174 1.341 . S
C173 C175 1.371 . S
C174 C173 1.341 . S
C174 C178 1.394 . S
C174 H190 0.930 . S
C175 C173 1.371 . S
C175 C176 1.392 . S
C175 H191 0.931 . S
C176 C175 1.392 . S
C176 C177 1.331 . S
C176 H194 0.932 . S
C177 C176 1.331 . S
C177 C178 1.336 . S
C178 C174 1.394 . S
C178 C177 1.336 . S
C178 H193 0.929 . S
C179 C169 1.386 . S
C179 C172 1.357 . S
C179 H192 0.928 . S
H180 C156 0.931 . S
H181 C158 0.930 . S
H182 C160 0.929 . S
H183 C161 0.931 . S
H184 C163 0.930 . S
H185 C167 0.931 . S
H186 C165 0.931 . S
H187 C169 0.931 . S
H188 C170 0.929 . S
H189 C171 0.930 . S
H190 C174 0.930 . S
H191 C175 0.931 . S
H192 C179 0.928 . S
H193 C178 0.929 . S
H194 C176 0.932 . S
C195 C196 1.386 . S
C195 C197 1.397 . S
C195 H219 0.931 . S
C196 C195 1.386 . S
C196 C200 1.397 . S
C197 C195 1.397 . S
C197 C198 1.384 . S
C197 H220 0.930 . S
C198 C197 1.384 . S
C198 C199 1.377 . S
C198 C201 1.481 . S
C199 C198 1.377 . S
C199 C200 1.389 . S
C199 H221 0.929 . S
C200 C196 1.397 . S
C200 C199 1.389 . S
C200 H222 0.931 . S
C201 C198 1.481 . S
C201 C202 1.387 . S
C201 C206 1.390 . S
C202 C201 1.387 . S
C202 C203 1.401 . S
C202 H223 0.930 . S
C203 C202 1.401 . S
C203 C204 1.376 . S
C203 C212 1.511 . S
C204 C203 1.376 . S
C204 C205 1.392 . S
C204 H225 0.931 . S
C205 C204 1.392 . S
C205 C206 1.361 . S
C205 C207 1.500 . S
C206 C201 1.390 . S
C206 C205 1.361 . S
C206 H224 0.931 . S
C207 C205 1.500 . S
C207 C208 1.371 . S
C207 C209 1.365 . S
C208 C207 1.371 . S
C208 C218 1.386 . S
C208 H226 0.931 . S
C209 C207 1.365 . S
C209 C210 1.409 . S
C209 H227 0.929 . S
C210 C209 1.409 . S
C210 C211 1.380 . S
C210 H228 0.930 . S
C211 C210 1.380 . S
C211 C218 1.357 . S
C212 C203 1.511 . S
C212 C213 1.341 . S
C212 C214 1.371 . S
C213 C212 1.341 . S
C213 C217 1.394 . S
C213 H229 0.930 . S
C214 C212 1.371 . S
C214 C215 1.392 . S
C214 H230 0.931 . S
C215 C214 1.392 . S
C215 C216 1.331 . S
C215 H233 0.932 . S
C216 C215 1.331 . S
C216 C217 1.336 . S
C217 C213 1.394 . S
C217 C216 1.336 . S
C217 H232 0.929 . S
C218 C208 1.386 . S
C218 C211 1.357 . S
C218 H231 0.928 . S
H219 C195 0.931 . S
H220 C197 0.930 . S
H221 C199 0.929 . S
H222 C200 0.931 . S
H223 C202 0.930 . S
H224 C206 0.931 . S
H225 C204 0.931 . S
H226 C208 0.931 . S
H227 C209 0.929 . S
H228 C210 0.930 . S
H229 C213 0.930 . S
H230 C214 0.931 . S
H231 C218 0.928 . S
H232 C217 0.929 . S
H233 C215 0.932 . S
C234 C235 1.386 . S
C234 C236 1.397 . S
C234 H258 0.931 . S
C235 C234 1.386 . S
C235 C239 1.397 . S
C236 C234 1.397 . S
C236 C237 1.384 . S
C236 H259 0.930 . S
C237 C236 1.384 . S
C237 C238 1.377 . S
C237 C240 1.481 . S
C238 C237 1.377 . S
C238 C239 1.389 . S
C238 H260 0.929 . S
C239 C235 1.397 . S
C239 C238 1.389 . S
C239 H261 0.931 . S
C240 C237 1.481 . S
C240 C241 1.387 . S
C240 C245 1.390 . S
C241 C240 1.387 . S
C241 C242 1.401 . S
C241 H262 0.930 . S
C242 C241 1.401 . S
C242 C243 1.376 . S
C242 C251 1.511 . S
C243 C242 1.376 . S
C243 C244 1.392 . S
C243 H264 0.931 . S
C244 C243 1.392 . S
C244 C245 1.361 . S
C244 C246 1.500 . S
C245 C240 1.390 . S
C245 C244 1.361 . S
C245 H263 0.931 . S
C246 C244 1.500 . S
C246 C247 1.371 . S
C246 C248 1.365 . S
C247 C246 1.371 . S
C247 C257 1.386 . S
C247 H265 0.931 . S
C248 C246 1.365 . S
C248 C249 1.409 . S
C248 H266 0.929 . S
C249 C248 1.409 . S
C249 C250 1.380 . S
C249 H267 0.930 . S
C250 C249 1.380 . S
C250 C257 1.357 . S
C251 C242 1.511 . S
C251 C252 1.341 . S
C251 C253 1.371 . S
C252 C251 1.341 . S
C252 C256 1.394 . S
C252 H268 0.930 . S
C253 C251 1.371 . S
C253 C254 1.392 . S
C253 H269 0.931 . S
C254 C253 1.392 . S
C254 C255 1.331 . S
C254 H272 0.932 . S
C255 C254 1.331 . S
C255 C256 1.336 . S
C256 C252 1.394 . S
C256 C255 1.336 . S
C256 H271 0.929 . S
C257 C247 1.386 . S
C257 C250 1.357 . S
C257 H270 0.928 . S
H258 C234 0.931 . S
H259 C236 0.930 . S
H260 C238 0.929 . S
H261 C239 0.931 . S
H262 C241 0.930 . S
H263 C245 0.931 . S
H264 C243 0.931 . S
H265 C247 0.931 . S
H266 C248 0.929 . S
H267 C249 0.930 . S
H268 C252 0.930 . S
H269 C253 0.931 . S
H270 C257 0.928 . S
H271 C256 0.929 . S
H272 C254 0.932 . S
C273 C274 1.386 . S
C273 C275 1.397 . S
C273 H297 0.931 . S
C274 C273 1.386 . S
C274 C278 1.397 . S
C275 C273 1.397 . S
C275 C276 1.384 . S
C275 H298 0.930 . S
C276 C275 1.384 . S
C276 C277 1.377 . S
C276 C279 1.481 . S
C277 C276 1.377 . S
C277 C278 1.389 . S
C277 H299 0.929 . S
C278 C274 1.397 . S
C278 C277 1.389 . S
C278 H300 0.931 . S
C279 C276 1.481 . S
C279 C280 1.387 . S
C279 C284 1.390 . S
C280 C279 1.387 . S
C280 C281 1.401 . S
C280 H301 0.930 . S
C281 C280 1.401 . S
C281 C282 1.376 . S
C281 C290 1.511 . S
C282 C281 1.376 . S
C282 C283 1.392 . S
C282 H303 0.931 . S
C283 C282 1.392 . S
C283 C284 1.361 . S
C283 C285 1.500 . S
C284 C279 1.390 . S
C284 C283 1.361 . S
C284 H302 0.931 . S
C285 C283 1.500 . S
C285 C286 1.371 . S
C285 C287 1.365 . S
C286 C285 1.371 . S
C286 C296 1.386 . S
C286 H304 0.931 . S
C287 C285 1.365 . S
C287 C288 1.409 . S
C287 H305 0.929 . S
C288 C287 1.409 . S
C288 C289 1.380 . S
C288 H306 0.930 . S
C289 C288 1.380 . S
C289 C296 1.357 . S
C290 C281 1.511 . S
C290 C291 1.341 . S
C290 C292 1.371 . S
C291 C290 1.341 . S
C291 C295 1.394 . S
C291 H307 0.930 . S
C292 C290 1.371 . S
C292 C293 1.392 . S
C292 H308 0.931 . S
C293 C292 1.392 . S
C293 C294 1.331 . S
C293 H311 0.932 . S
C294 C293 1.331 . S
C294 C295 1.336 . S
C295 C291 1.394 . S
C295 C294 1.336 . S
C295 H310 0.929 . S
C296 C286 1.386 . S
C296 C289 1.357 . S
C296 H309 0.928 . S
H297 C273 0.931 . S
H298 C275 0.930 . S
H299 C277 0.929 . S
H300 C278 0.931 . S
H301 C280 0.930 . S
H302 C284 0.931 . S
H303 C282 0.931 . S
H304 C286 0.931 . S
H305 C287 0.929 . S
H306 C288 0.930 . S
H307 C291 0.930 . S
H308 C292 0.931 . S
H309 C296 0.928 . S
H310 C295 0.929 . S
H311 C293 0.932 . S
C312 C313 1.443 . S
C312 N316 1.376 . S
C312 C350 1.389 . S
C313 C312 1.443 . S
C313 C314 1.340 . S
C313 H353 0.951 . S
C314 C313 1.340 . S
C314 C315 1.439 . S
C314 H354 0.950 . S
C315 C314 1.439 . S
C315 N316 1.374 . S
C315 C349 1.395 . S
N316 C312 1.376 . S
N316 C315 1.374 . S
N316 Co317 2.008 . S
Co317 N316 2.008 . S
Co317 N318 1.994 1_455 S
Co317 N323 2.008 . S
Co317 N328 1.995 . S
Co317 N333 2.282 . S
Co317 N339 2.282 1_455 S
N318 Co317 1.994 1_655 S
N318 C319 1.376 1_655 S
N318 C322 1.383 . S
C319 N318 1.376 1_455 S
C319 C320 1.440 1_455 S
C319 C349 1.398 . S
C320 C319 1.440 1_655 S
C320 C321 1.339 . S
C320 H355 0.949 . S
C321 C320 1.339 . S
C321 C322 1.439 . S
C321 H356 0.950 . S
C322 N318 1.383 . S
C322 C321 1.439 . S
C322 C351 1.392 . S
N323 Co317 2.008 . S
N323 C324 1.376 1_455 S
N323 C327 1.374 . S
C324 N323 1.376 1_655 S
C324 C325 1.443 . S
C324 C351 1.389 . S
C325 C324 1.443 . S
C325 C326 1.340 . S
C325 H357 0.951 . S
C326 C325 1.340 . S
C326 C327 1.439 1_655 S
C326 H358 0.950 . S
C327 N323 1.374 . S
C327 C326 1.439 1_455 S
C327 C352 1.395 . S
N328 Co317 1.995 . S
N328 C329 1.376 . S
N328 C332 1.383 . S
C329 N328 1.376 . S
C329 C330 1.446 . S
C329 C352 1.391 . S
C330 C329 1.446 . S
C330 C331 1.339 . S
C330 H359 0.949 . S
C331 C330 1.339 . S
C331 C332 1.439 . S
C331 H360 0.950 . S
C332 N328 1.383 . S
C332 C331 1.439 . S
C332 C350 1.392 . S
N333 Co317 2.282 . S
N333 C336 1.332 . S
N333 C338 1.332 . S
C334 C335 1.386 . S
C334 C337 1.388 . S
C335 C334 1.386 . S
C335 C336 1.382 . S
C335 H361 0.950 . S
C336 N333 1.332 . S
C336 C335 1.382 . S
C336 H347 0.952 . S
C337 C334 1.388 . S
C337 C338 1.382 . S
C337 H362 0.950 . S
C338 N333 1.332 . S
C338 C337 1.382 . S
C338 H348 0.948 . S
N339 Co317 2.282 1_655 S
N339 C343 1.332 . S
N339 C344 1.332 . S
C340 C341 1.388 . S
C340 C344 1.382 . S
C340 H363 0.950 . S
C341 C340 1.388 . S
C341 C342 1.386 . S
C342 C341 1.386 . S
C342 C343 1.382 . S
C342 H364 0.950 . S
C343 N339 1.332 . S
C343 C342 1.382 . S
C343 H345 0.952 . S
C344 N339 1.332 . S
C344 C340 1.382 . S
C344 H346 0.948 . S
H345 C343 0.952 . S
H346 C344 0.948 . S
H347 C336 0.952 . S
H348 C338 0.948 . S
C349 C315 1.395 . S
C349 C319 1.398 . S
C350 C312 1.389 . S
C350 C332 1.392 . S
C351 C322 1.392 . S
C351 C324 1.389 . S
C352 C327 1.395 . S
C352 C329 1.391 . S
H353 C313 0.951 . S
H354 C314 0.950 . S
H355 C320 0.949 . S
H356 C321 0.950 . S
H357 C325 0.951 . S
H358 C326 0.950 . S
H359 C330 0.949 . S
H360 C331 0.950 . S
H361 C335 0.950 . S
H362 C337 0.950 . S
H363 C340 0.950 . S
H364 C342 0.950 . S
C365 C366 1.443 . S
C365 N369 1.376 . S
C365 C403 1.389 . S
C366 C365 1.443 . S
C366 C367 1.340 . S
C366 H406 0.951 . S
C367 C366 1.340 . S
C367 C368 1.439 . S
C367 H407 0.950 . S
C368 C367 1.439 . S
C368 N369 1.374 . S
C368 C402 1.395 . S
N369 C365 1.376 . S
N369 C368 1.374 . S
N369 Co370 2.008 . S
Co370 N369 2.008 . S
Co370 N371 1.995 1_455 S
Co370 N376 2.008 1_455 S
Co370 N381 1.995 . S
Co370 N386 2.282 . S
Co370 N392 2.282 1_455 S
N371 Co370 1.995 1_655 S
N371 C372 1.376 . S
N371 C375 1.383 . S
C372 N371 1.376 . S
C372 C373 1.446 . S
C372 C402 1.391 1_655 S
C373 C372 1.446 . S
C373 C374 1.339 . S
C373 H408 0.949 . S
C374 C373 1.339 . S
C374 C375 1.439 . S
C374 H409 0.950 . S
C375 N371 1.383 . S
C375 C374 1.439 . S
C375 C404 1.392 . S
N376 Co370 2.008 1_655 S
N376 C377 1.376 . S
N376 C380 1.374 . S
C377 N376 1.376 . S
C377 C378 1.443 . S
C377 C404 1.389 . S
C378 C377 1.443 . S
C378 C379 1.340 . S
C378 H410 0.951 . S
C379 C378 1.340 . S
C379 C380 1.439 . S
C379 H411 0.950 . S
C380 N376 1.374 . S
C380 C379 1.439 . S
C380 C405 1.395 1_655 S
N381 Co370 1.995 . S
N381 C382 1.376 . S
N381 C385 1.383 . S
C382 N381 1.376 . S
C382 C383 1.446 . S
C382 C405 1.391 . S
C383 C382 1.446 . S
C383 C384 1.339 . S
C383 H412 0.949 . S
C384 C383 1.339 . S
C384 C385 1.439 . S
C384 H413 0.950 . S
C385 N381 1.383 . S
C385 C384 1.439 . S
C385 C403 1.392 . S
N386 Co370 2.282 . S
N386 C389 1.332 . S
N386 C391 1.332 . S
C387 C388 1.386 . S
C387 C390 1.388 . S
C388 C387 1.386 . S
C388 C389 1.382 . S
C388 H414 0.950 . S
C389 N386 1.332 . S
C389 C388 1.382 . S
C389 H400 0.952 . S
C390 C387 1.388 . S
C390 C391 1.382 . S
C390 H415 0.950 . S
C391 N386 1.332 . S
C391 C390 1.382 . S
C391 H401 0.948 . S
N392 Co370 2.282 1_655 S
N392 C396 1.332 . S
N392 C397 1.332 . S
C393 C394 1.388 . S
C393 C397 1.382 . S
C393 H416 0.950 . S
C394 C393 1.388 . S
C394 C395 1.386 . S
C395 C394 1.386 . S
C395 C396 1.382 . S
C395 H417 0.950 . S
C396 N392 1.332 . S
C396 C395 1.382 . S
C396 H398 0.952 . S
C397 N392 1.332 . S
C397 C393 1.382 . S
C397 H399 0.948 . S
H398 C396 0.952 . S
H399 C397 0.948 . S
H400 C389 0.952 . S
H401 C391 0.948 . S
C402 C368 1.395 . S
C402 C372 1.391 1_455 S
C403 C365 1.389 . S
C403 C385 1.392 . S
C404 C375 1.392 . S
C404 C377 1.389 . S
C405 C380 1.395 1_455 S
C405 C382 1.391 . S
H406 C366 0.951 . S
H407 C367 0.950 . S
H408 C373 0.949 . S
H409 C374 0.950 . S
H410 C378 0.951 . S
H411 C379 0.950 . S
H412 C383 0.949 . S
H413 C384 0.950 . S
H414 C388 0.950 . S
H415 C390 0.950 . S
H416 C393 0.950 . S
H417 C395 0.950 . S
C418 C419 1.443 . S
C418 N422 1.376 . S
C418 C456 1.389 . S
C419 C418 1.443 . S
C419 C420 1.340 . S
C419 H459 0.951 . S
C420 C419 1.340 . S
C420 C421 1.439 . S
C420 H460 0.950 . S
C421 C420 1.439 . S
C421 N422 1.374 . S
C421 C455 1.395 1_565 S
N422 C418 1.376 . S
N422 C421 1.374 . S
N422 Co423 2.008 1_565 S
Co423 N422 2.008 1_545 S
Co423 N424 1.995 . S
Co423 N429 2.008 . S
Co423 N434 1.995 1_545 S
Co423 N439 2.282 . S
Co423 N445 2.282 1_545 S
N424 Co423 1.995 . S
N424 C425 1.376 . S
N424 C428 1.383 . S
C425 N424 1.376 . S
C425 C426 1.446 . S
C425 C455 1.391 . S
C426 C425 1.446 . S
C426 C427 1.339 . S
C426 H461 0.949 . S
C427 C426 1.339 . S
C427 C428 1.439 . S
C427 H462 0.950 . S
C428 N424 1.383 . S
C428 C427 1.439 . S
C428 C457 1.392 . S
N429 Co423 2.008 . S
N429 C430 1.376 . S
N429 C433 1.374 . S
C430 N429 1.376 . S
C430 C431 1.443 . S
C430 C457 1.389 . S
C431 C430 1.443 . S
C431 C432 1.340 . S
C431 H463 0.951 . S
C432 C431 1.340 . S
C432 C433 1.439 . S
C432 H464 0.950 . S
C433 N429 1.374 . S
C433 C432 1.439 . S
C433 C458 1.395 . S
N434 Co423 1.995 1_565 S
N434 C435 1.376 . S
N434 C438 1.383 . S
C435 N434 1.376 . S
C435 C436 1.446 . S
C435 C458 1.391 1_565 S
C436 C435 1.446 . S
C436 C437 1.339 . S
C436 H465 0.949 . S
C437 C436 1.339 . S
C437 C438 1.439 . S
C437 H466 0.950 . S
C438 N434 1.383 . S
C438 C437 1.439 . S
C438 C456 1.392 . S
N439 Co423 2.282 . S
N439 C442 1.332 . S
N439 C444 1.332 . S
C440 C441 1.386 . S
C440 C443 1.388 . S
C441 C440 1.386 . S
C441 C442 1.382 . S
C441 H467 0.950 . S
C442 N439 1.332 . S
C442 C441 1.382 . S
C442 H453 0.952 . S
C443 C440 1.388 . S
C443 C444 1.382 . S
C443 H468 0.950 . S
C444 N439 1.332 . S
C444 C443 1.382 . S
C444 H454 0.948 . S
N445 Co423 2.282 1_565 S
N445 C449 1.332 . S
N445 C450 1.332 . S
C446 C447 1.388 . S
C446 C450 1.382 . S
C446 H469 0.950 . S
C447 C446 1.388 . S
C447 C448 1.386 . S
C448 C447 1.386 . S
C448 C449 1.382 . S
C448 H470 0.950 . S
C449 N445 1.332 . S
C449 C448 1.382 . S
C449 H451 0.952 . S
C450 N445 1.332 . S
C450 C446 1.382 . S
C450 H452 0.948 . S
H451 C449 0.952 . S
H452 C450 0.948 . S
H453 C442 0.952 . S
H454 C444 0.948 . S
C455 C421 1.395 1_545 S
C455 C425 1.391 . S
C456 C418 1.389 . S
C456 C438 1.392 . S
C457 C428 1.392 . S
C457 C430 1.389 . S
C458 C433 1.395 . S
C458 C435 1.391 1_545 S
H459 C419 0.951 . S
H460 C420 0.950 . S
H461 C426 0.949 . S
H462 C427 0.950 . S
H463 C431 0.951 . S
H464 C432 0.950 . S
H465 C436 0.949 . S
H466 C437 0.950 . S
H467 C441 0.950 . S
H468 C443 0.950 . S
H469 C446 0.950 . S
H470 C448 0.950 . S
C471 C472 1.443 . S
C471 N475 1.376 . S
C471 C509 1.389 . S
C472 C471 1.443 . S
C472 C473 1.340 . S
C472 H512 0.951 . S
C473 C472 1.340 . S
C473 C474 1.439 . S
C473 H513 0.950 . S
C474 C473 1.439 . S
C474 N475 1.374 . S
C474 C508 1.395 . S
N475 C471 1.376 . S
N475 C474 1.374 . S
N475 Co476 2.008 . S
Co476 N475 2.008 . S
Co476 N477 1.995 1_554 S
Co476 N482 2.008 1_554 S
Co476 N487 1.995 . S
Co476 N492 2.282 1_554 S
Co476 N498 2.282 . S
N477 Co476 1.995 1_556 S
N477 C478 1.376 . S
N477 C481 1.383 . S
C478 N477 1.376 . S
C478 C479 1.446 . S
C478 C508 1.391 1_556 S
C479 C478 1.446 . S
C479 C480 1.339 . S
C479 H514 0.949 . S
C480 C479 1.339 . S
C480 C481 1.439 . S
C480 H515 0.950 . S
C481 N477 1.383 . S
C481 C480 1.439 . S
C481 C510 1.392 . S
N482 Co476 2.008 1_556 S
N482 C483 1.376 . S
N482 C486 1.374 . S
C483 N482 1.376 . S
C483 C484 1.443 . S
C483 C510 1.389 . S
C484 C483 1.443 . S
C484 C485 1.340 . S
C484 H516 0.951 . S
C485 C484 1.340 . S
C485 C486 1.439 . S
C485 H517 0.950 . S
C486 N482 1.374 . S
C486 C485 1.439 . S
C486 C511 1.395 1_556 S
N487 Co476 1.995 . S
N487 C488 1.376 . S
N487 C491 1.383 . S
C488 N487 1.376 . S
C488 C489 1.446 . S
C488 C511 1.391 . S
C489 C488 1.446 . S
C489 C490 1.339 . S
C489 H518 0.949 . S
C490 C489 1.339 . S
C490 C491 1.439 . S
C490 H519 0.950 . S
C491 N487 1.383 . S
C491 C490 1.439 . S
C491 C509 1.392 . S
N492 Co476 2.282 1_556 S
N492 C495 1.332 . S
N492 C497 1.332 . S
C493 C494 1.386 . S
C493 C496 1.388 . S
C494 C493 1.386 . S
C494 C495 1.382 . S
C494 H520 0.950 . S
C495 N492 1.332 . S
C495 C494 1.382 . S
C495 H506 0.952 . S
C496 C493 1.388 . S
C496 C497 1.382 . S
C496 H521 0.950 . S
C497 N492 1.332 . S
C497 C496 1.382 . S
C497 H507 0.948 . S
N498 Co476 2.282 . S
N498 C502 1.332 . S
N498 C503 1.332 . S
C499 C500 1.388 . S
C499 C503 1.382 . S
C499 H522 0.950 . S
C500 C499 1.388 . S
C500 C501 1.386 . S
C501 C500 1.386 . S
C501 C502 1.382 . S
C501 H523 0.950 . S
C502 N498 1.332 . S
C502 C501 1.382 . S
C502 H504 0.952 . S
C503 N498 1.332 . S
C503 C499 1.382 . S
C503 H505 0.948 . S
H504 C502 0.952 . S
H505 C503 0.948 . S
H506 C495 0.952 . S
H507 C497 0.948 . S
C508 C474 1.395 . S
C508 C478 1.391 1_554 S
C509 C471 1.389 . S
C509 C491 1.392 . S
C510 C481 1.392 . S
C510 C483 1.389 . S
C511 C486 1.395 1_554 S
C511 C488 1.391 . S
H512 C472 0.951 . S
H513 C473 0.950 . S
H514 C479 0.949 . S
H515 C480 0.950 . S
H516 C484 0.951 . S
H517 C485 0.950 . S
H518 C489 0.949 . S
H519 C490 0.950 . S
H520 C494 0.950 . S
H521 C496 0.950 . S
H522 C499 0.950 . S
H523 C501 0.950 . S
C524 C525 1.443 . S
C524 N528 1.399 . S
C524 C562 1.389 . S
C525 C524 1.443 . S
C525 C526 1.340 . S
C525 H565 0.951 . S
C526 C525 1.340 . S
C526 C527 1.408 1_565 S
C526 H566 0.950 . S
C527 C526 1.408 1_545 S
C527 N528 1.375 1_545 S
C527 C561 1.421 . S
N528 C524 1.399 . S
N528 C527 1.375 1_565 S
N528 Co529 1.992 1_565 S
Co529 N528 1.992 1_545 S
Co529 N530 1.995 . S
Co529 N535 2.008 . S
Co529 N540 2.000 . S
Co529 N545 2.282 . S
Co529 N551 2.282 1_545 S
N530 Co529 1.995 . S
N530 C531 1.376 . S
N530 C534 1.383 . S
C531 N530 1.376 . S
C531 C532 1.446 . S
C531 C561 1.391 . S
C532 C531 1.446 . S
C532 C533 1.339 . S
C532 H567 0.949 . S
C533 C532 1.339 . S
C533 C534 1.439 . S
C533 H568 0.950 . S
C534 N530 1.383 . S
C534 C533 1.439 . S
C534 C563 1.392 . S
N535 Co529 2.008 . S
N535 C536 1.376 . S
N535 C539 1.374 . S
C536 N535 1.376 . S
C536 C537 1.443 . S
C536 C563 1.389 . S
C537 C536 1.443 . S
C537 C538 1.340 . S
C537 H569 0.951 . S
C538 C537 1.340 . S
C538 C539 1.439 . S
C538 H570 0.950 . S
C539 N535 1.374 . S
C539 C538 1.439 . S
C539 C564 1.395 . S
N540 Co529 2.000 . S
N540 C541 1.378 . S
N540 C544 1.374 1_545 S
C541 N540 1.378 . S
C541 C542 1.446 1_545 S
C541 C564 1.391 . S
C542 C541 1.446 1_565 S
C542 C543 1.339 . S
C542 H571 0.949 . S
C543 C542 1.339 . S
C543 C544 1.439 . S
C543 H572 0.950 . S
C544 N540 1.374 1_565 S
C544 C543 1.439 . S
C544 C562 1.392 . S
N545 Co529 2.282 . S
N545 C548 1.332 . S
N545 C550 1.332 . S
C546 C547 1.386 . S
C546 C549 1.388 . S
C547 C546 1.386 . S
C547 C548 1.382 . S
C547 H573 0.950 . S
C548 N545 1.332 . S
C548 C547 1.382 . S
C548 H559 0.952 . S
C549 C546 1.388 . S
C549 C550 1.382 . S
C549 H574 0.950 . S
C550 N545 1.332 . S
C550 C549 1.382 . S
C550 H560 0.948 . S
N551 Co529 2.282 1_565 S
N551 C555 1.332 . S
N551 C556 1.332 . S
C552 C553 1.388 . S
C552 C556 1.382 . S
C552 H575 0.950 . S
C553 C552 1.388 . S
C553 C554 1.386 . S
C554 C553 1.386 . S
C554 C555 1.382 . S
C554 H576 0.950 . S
C555 N551 1.332 . S
C555 C554 1.382 . S
C555 H557 0.952 . S
C556 N551 1.332 . S
C556 C552 1.382 . S
C556 H558 0.948 . S
H557 C555 0.952 . S
H558 C556 0.948 . S
H559 C548 0.952 . S
H560 C550 0.948 . S
C561 C527 1.421 . S
C561 C531 1.391 . S
C562 C524 1.389 . S
C562 C544 1.392 . S
C563 C534 1.392 . S
C563 C536 1.389 . S
C564 C539 1.395 . S
C564 C541 1.391 . S
H565 C525 0.951 . S
H566 C526 0.950 . S
H567 C532 0.949 . S
H568 C533 0.950 . S
H569 C537 0.951 . S
H570 C538 0.950 . S
H571 C542 0.949 . S
H572 C543 0.950 . S
H573 C547 0.950 . S
H574 C549 0.950 . S
H575 C552 0.950 . S
H576 C554 0.950 . S
C577 C578 1.443 . S
C577 N581 1.376 . S
C577 C615 1.389 . S
C578 C577 1.443 . S
C578 C579 1.340 . S
C578 H618 0.951 . S
C579 C578 1.340 . S
C579 C580 1.439 . S
C579 H619 0.950 . S
C580 C579 1.439 . S
C580 N581 1.374 . S
C580 C614 1.395 . S
N581 C577 1.376 . S
N581 C580 1.374 . S
N581 Co582 2.008 . S
Co582 N581 2.008 . S
Co582 N583 1.995 . S
Co582 N588 2.009 1_554 S
Co582 N593 1.995 . S
Co582 N598 2.282 1_554 S
Co582 N604 2.282 . S
N583 Co582 1.995 . S
N583 C584 1.376 . S
N583 C587 1.383 1_554 S
C584 N583 1.376 . S
C584 C585 1.446 1_554 S
C584 C614 1.391 . S
C585 C584 1.446 1_556 S
C585 C586 1.339 . S
C585 H620 0.949 . S
C586 C585 1.339 . S
C586 C587 1.439 . S
C586 H621 0.950 . S
C587 N583 1.383 1_556 S
C587 C586 1.439 . S
C587 C616 1.392 . S
N588 Co582 2.009 1_556 S
N588 C589 1.376 . S
N588 C592 1.374 1_556 S
C589 N588 1.376 . S
C589 C590 1.443 . S
C589 C616 1.389 . S
C590 C589 1.443 . S
C590 C591 1.340 . S
C590 H622 0.951 . S
C591 C590 1.340 . S
C591 C592 1.408 1_556 S
C591 H623 0.950 . S
C592 N588 1.374 1_554 S
C592 C591 1.408 1_554 S
C592 C617 1.421 . S
N593 Co582 1.995 . S
N593 C594 1.376 . S
N593 C597 1.383 . S
C594 N593 1.376 . S
C594 C595 1.446 . S
C594 C617 1.391 . S
C595 C594 1.446 . S
C595 C596 1.339 . S
C595 H624 0.949 . S
C596 C595 1.339 . S
C596 C597 1.439 . S
C596 H625 0.950 . S
C597 N593 1.383 . S
C597 C596 1.439 . S
C597 C615 1.392 . S
N598 Co582 2.282 1_556 S
N598 C601 1.332 . S
N598 C603 1.332 . S
C599 C600 1.386 . S
C599 C602 1.388 . S
C600 C599 1.386 . S
C600 C601 1.382 . S
C600 H626 0.950 . S
C601 N598 1.332 . S
C601 C600 1.382 . S
C601 H612 0.952 . S
C602 C599 1.388 . S
C602 C603 1.382 . S
C602 H627 0.950 . S
C603 N598 1.332 . S
C603 C602 1.382 . S
C603 H613 0.948 . S
N604 Co582 2.282 . S
N604 C608 1.332 . S
N604 C609 1.332 . S
C605 C606 1.388 . S
C605 C609 1.382 . S
C605 H628 0.950 . S
C606 C605 1.388 . S
C606 C607 1.386 . S
C607 C606 1.386 . S
C607 C608 1.382 . S
C607 H629 0.950 . S
C608 N604 1.332 . S
C608 C607 1.382 . S
C608 H610 0.952 . S
C609 N604 1.332 . S
C609 C605 1.382 . S
C609 H611 0.948 . S
H610 C608 0.952 . S
H611 C609 0.948 . S
H612 C601 0.952 . S
H613 C603 0.948 . S
C614 C580 1.395 . S
C614 C584 1.391 . S
C615 C577 1.389 . S
C615 C597 1.392 . S
C616 C587 1.392 . S
C616 C589 1.389 . S
C617 C592 1.421 . S
C617 C594 1.391 . S
H618 C578 0.951 . S
H619 C579 0.950 . S
H620 C585 0.949 . S
H621 C586 0.950 . S
H622 C590 0.951 . S
H623 C591 0.950 . S
H624 C595 0.949 . S
H625 C596 0.950 . S
H626 C600 0.950 . S
H627 C602 0.950 . S
H628 C605 0.950 . S
H629 C607 0.950 . S
C630 C631 1.391 . S
C630 C632 1.394 . S
C630 H646 0.931 . S
C631 C630 1.391 . S
C631 C635 1.376 . S
C632 C630 1.394 . S
C632 C633 1.369 . S
C632 C636 1.531 . S
C633 C632 1.369 . S
C633 C634 1.410 . S
C633 C641 1.503 . S
C634 C633 1.410 . S
C634 C635 1.392 . S
C634 C637 1.511 . S
C635 C631 1.376 . S
C635 C634 1.392 . S
C635 H647 0.929 . S
C636 C632 1.531 . S
C636 H648 0.960 . S
C636 H649 0.962 . S
C636 H650 0.960 . S
C637 C634 1.511 . S
C637 H651 0.961 . S
C637 H652 0.961 . S
C637 H653 0.961 . S
C638 C639 1.370 . S
C638 C640 1.363 . S
C638 H654 0.931 . S
C639 C638 1.370 . S
C639 C643 1.408 . S
C640 C638 1.363 . S
C640 C641 1.370 . S
C640 C644 1.524 . S
C641 C633 1.503 . S
C641 C640 1.370 . S
C641 C642 1.403 . S
C642 C641 1.403 . S
C642 C643 1.404 . S
C642 C645 1.539 . S
C643 C639 1.408 . S
C643 C642 1.404 . S
C643 H655 0.930 . S
C644 C640 1.524 . S
C644 H656 0.956 . S
C644 H657 0.961 . S
C644 H658 0.961 . S
C645 C642 1.539 . S
C645 H659 0.958 . S
C645 H660 0.961 . S
C645 H661 0.960 . S
H646 C630 0.931 . S
H647 C635 0.929 . S
H648 C636 0.960 . S
H649 C636 0.962 . S
H650 C636 0.960 . S
H651 C637 0.961 . S
H652 C637 0.961 . S
H653 C637 0.961 . S
H654 C638 0.931 . S
H655 C643 0.930 . S
H656 C644 0.956 . S
H657 C644 0.961 . S
H658 C644 0.961 . S
H659 C645 0.958 . S
H660 C645 0.961 . S
H661 C645 0.960 . S
C662 C663 1.391 . S
C662 C664 1.394 . S
C662 H678 0.931 . S
C663 C662 1.391 . S
C663 C667 1.376 . S
C664 C662 1.394 . S
C664 C665 1.369 . S
C664 C668 1.531 . S
C665 C664 1.369 . S
C665 C666 1.410 . S
C665 C673 1.503 . S
C666 C665 1.410 . S
C666 C667 1.392 . S
C666 C669 1.511 . S
C667 C663 1.376 . S
C667 C666 1.392 . S
C667 H679 0.929 . S
C668 C664 1.531 . S
C668 H680 0.960 . S
C668 H681 0.962 . S
C668 H682 0.960 . S
C669 C666 1.511 . S
C669 H683 0.961 . S
C669 H684 0.961 . S
C669 H685 0.961 . S
C670 C671 1.370 . S
C670 C672 1.363 . S
C670 H686 0.931 . S
C671 C670 1.370 . S
C671 C675 1.408 . S
C672 C670 1.363 . S
C672 C673 1.370 . S
C672 C676 1.524 . S
C673 C665 1.503 . S
C673 C672 1.370 . S
C673 C674 1.403 . S
C674 C673 1.403 . S
C674 C675 1.404 . S
C674 C677 1.539 . S
C675 C671 1.408 . S
C675 C674 1.404 . S
C675 H687 0.930 . S
C676 C672 1.524 . S
C676 H688 0.956 . S
C676 H689 0.961 . S
C676 H690 0.961 . S
C677 C674 1.539 . S
C677 H691 0.958 . S
C677 H692 0.961 . S
C677 H693 0.960 . S
H678 C662 0.931 . S
H679 C667 0.929 . S
H680 C668 0.960 . S
H681 C668 0.962 . S
H682 C668 0.960 . S
H683 C669 0.961 . S
H684 C669 0.961 . S
H685 C669 0.961 . S
H686 C670 0.931 . S
H687 C675 0.930 . S
H688 C676 0.956 . S
H689 C676 0.961 . S
H690 C676 0.961 . S
H691 C677 0.958 . S
H692 C677 0.961 . S
H693 C677 0.960 . S
C694 C695 1.391 . S
C694 C696 1.394 . S
C694 H710 0.931 . S
C695 C694 1.391 . S
C695 C699 1.376 . S
C696 C694 1.394 . S
C696 C697 1.369 . S
C696 C700 1.531 . S
C697 C696 1.369 . S
C697 C698 1.410 . S
C697 C705 1.503 . S
C698 C697 1.410 . S
C698 C699 1.392 . S
C698 C701 1.511 . S
C699 C695 1.376 . S
C699 C698 1.392 . S
C699 H711 0.929 . S
C700 C696 1.531 . S
C700 H712 0.960 . S
C700 H713 0.962 . S
C700 H714 0.960 . S
C701 C698 1.511 . S
C701 H715 0.961 . S
C701 H716 0.961 . S
C701 H717 0.961 . S
C702 C703 1.370 . S
C702 C704 1.363 . S
C702 H718 0.931 . S
C703 C702 1.370 . S
C703 C707 1.408 . S
C704 C702 1.363 . S
C704 C705 1.370 . S
C704 C708 1.524 . S
C705 C697 1.503 . S
C705 C704 1.370 . S
C705 C706 1.403 . S
C706 C705 1.403 . S
C706 C707 1.404 . S
C706 C709 1.539 . S
C707 C703 1.408 . S
C707 C706 1.404 . S
C707 H719 0.930 . S
C708 C704 1.524 . S
C708 H720 0.956 . S
C708 H721 0.961 . S
C708 H722 0.961 . S
C709 C706 1.539 . S
C709 H723 0.958 . S
C709 H724 0.961 . S
C709 H725 0.960 . S
H710 C694 0.931 . S
H711 C699 0.929 . S
H712 C700 0.960 . S
H713 C700 0.962 . S
H714 C700 0.960 . S
H715 C701 0.961 . S
H716 C701 0.961 . S
H717 C701 0.961 . S
H718 C702 0.931 . S
H719 C707 0.930 . S
H720 C708 0.956 . S
H721 C708 0.961 . S
H722 C708 0.961 . S
H723 C709 0.958 . S
H724 C709 0.961 . S
H725 C709 0.960 . S
C726 C727 1.391 . S
C726 C728 1.394 . S
C726 H742 0.931 . S
C727 C726 1.391 . S
C727 C731 1.376 . S
C728 C726 1.394 . S
C728 C729 1.369 . S
C728 C732 1.531 . S
C729 C728 1.369 . S
C729 C730 1.410 . S
C729 C737 1.503 . S
C730 C729 1.410 . S
C730 C731 1.392 . S
C730 C733 1.511 . S
C731 C727 1.376 . S
C731 C730 1.392 . S
C731 H743 0.929 . S
C732 C728 1.531 . S
C732 H744 0.960 . S
C732 H745 0.962 . S
C732 H746 0.960 . S
C733 C730 1.511 . S
C733 H747 0.961 . S
C733 H748 0.961 . S
C733 H749 0.961 . S
C734 C735 1.370 . S
C734 C736 1.363 . S
C734 H750 0.931 . S
C735 C734 1.370 . S
C735 C739 1.408 . S
C736 C734 1.363 . S
C736 C737 1.370 . S
C736 C740 1.524 . S
C737 C729 1.503 . S
C737 C736 1.370 . S
C737 C738 1.403 . S
C738 C737 1.403 . S
C738 C739 1.404 . S
C738 C741 1.539 . S
C739 C735 1.408 . S
C739 C738 1.404 . S
C739 H751 0.930 . S
C740 C736 1.524 . S
C740 H752 0.956 . S
C740 H753 0.961 . S
C740 H754 0.961 . S
C741 C738 1.539 . S
C741 H755 0.958 . S
C741 H756 0.961 . S
C741 H757 0.960 . S
H742 C726 0.931 . S
H743 C731 0.929 . S
H744 C732 0.960 . S
H745 C732 0.962 . S
H746 C732 0.960 . S
H747 C733 0.961 . S
H748 C733 0.961 . S
H749 C733 0.961 . S
H750 C734 0.931 . S
H751 C739 0.930 . S
H752 C740 0.956 . S
H753 C740 0.961 . S
H754 C740 0.961 . S
H755 C741 0.958 . S
H756 C741 0.961 . S
H757 C741 0.960 . S
C758 C759 1.391 . S
C758 C760 1.394 . S
C758 H774 0.931 . S
C759 C758 1.391 . S
C759 C763 1.376 . S
C760 C758 1.394 . S
C760 C761 1.369 . S
C760 C764 1.531 . S
C761 C760 1.369 . S
C761 C762 1.410 . S
C761 C769 1.503 . S
C762 C761 1.410 . S
C762 C763 1.392 . S
C762 C765 1.511 . S
C763 C759 1.376 . S
C763 C762 1.392 . S
C763 H775 0.929 . S
C764 C760 1.531 . S
C764 H776 0.960 . S
C764 H777 0.962 . S
C764 H778 0.960 . S
C765 C762 1.511 . S
C765 H779 0.961 . S
C765 H780 0.961 . S
C765 H781 0.961 . S
C766 C767 1.370 . S
C766 C768 1.363 . S
C766 H782 0.931 . S
C767 C766 1.370 . S
C767 C771 1.408 . S
C768 C766 1.363 . S
C768 C769 1.370 . S
C768 C772 1.524 . S
C769 C761 1.503 . S
C769 C768 1.370 . S
C769 C770 1.403 . S
C770 C769 1.403 . S
C770 C771 1.404 . S
C770 C773 1.539 . S
C771 C767 1.408 . S
C771 C770 1.404 . S
C771 H783 0.930 . S
C772 C768 1.524 . S
C772 H784 0.956 . S
C772 H785 0.961 . S
C772 H786 0.961 . S
C773 C770 1.539 . S
C773 H787 0.958 . S
C773 H788 0.961 . S
C773 H789 0.960 . S
H774 C758 0.931 . S
H775 C763 0.929 . S
H776 C764 0.960 . S
H777 C764 0.962 . S
H778 C764 0.960 . S
H779 C765 0.961 . S
H780 C765 0.961 . S
H781 C765 0.961 . S
H782 C766 0.931 . S
H783 C771 0.930 . S
H784 C772 0.956 . S
H785 C772 0.961 . S
H786 C772 0.961 . S
H787 C773 0.958 . S
H788 C773 0.961 . S
H789 C773 0.960 . S
C790 C791 1.391 . S
C790 C792 1.394 . S
C790 H806 0.931 . S
C791 C790 1.391 . S
C791 C795 1.376 . S
C792 C790 1.394 . S
C792 C793 1.369 . S
C792 C796 1.531 . S
C793 C792 1.369 . S
C793 C794 1.410 . S
C793 C801 1.503 . S
C794 C793 1.410 . S
C794 C795 1.392 . S
C794 C797 1.511 . S
C795 C791 1.376 . S
C795 C794 1.392 . S
C795 H807 0.929 . S
C796 C792 1.531 . S
C796 H808 0.960 . S
C796 H809 0.962 . S
C796 H810 0.960 . S
C797 C794 1.511 . S
C797 H811 0.961 . S
C797 H812 0.961 . S
C797 H813 0.961 . S
C798 C799 1.370 . S
C798 C800 1.363 . S
C798 H814 0.931 . S
C799 C798 1.370 . S
C799 C803 1.408 . S
C800 C798 1.363 . S
C800 C801 1.370 . S
C800 C804 1.524 . S
C801 C793 1.503 . S
C801 C800 1.370 . S
C801 C802 1.403 . S
C802 C801 1.403 . S
C802 C803 1.404 . S
C802 C805 1.539 . S
C803 C799 1.408 . S
C803 C802 1.404 . S
C803 H815 0.930 . S
C804 C800 1.524 . S
C804 H816 0.956 . S
C804 H817 0.961 . S
C804 H818 0.961 . S
C805 C802 1.539 . S
C805 H819 0.958 . S
C805 H820 0.961 . S
C805 H821 0.960 . S
H806 C790 0.931 . S
H807 C795 0.929 . S
H808 C796 0.960 . S
H809 C796 0.962 . S
H810 C796 0.960 . S
H811 C797 0.961 . S
H812 C797 0.961 . S
H813 C797 0.961 . S
H814 C798 0.931 . S
H815 C803 0.930 . S
H816 C804 0.956 . S
H817 C804 0.961 . S
H818 C804 0.961 . S
H819 C805 0.958 . S
H820 C805 0.961 . S
H821 C805 0.960 . S
C822 C823 1.391 . S
C822 C824 1.394 . S
C822 H838 0.931 . S
C823 C822 1.391 . S
C823 C827 1.376 . S
C824 C822 1.394 . S
C824 C825 1.369 . S
C824 C828 1.531 . S
C825 C824 1.369 . S
C825 C826 1.410 . S
C825 C833 1.503 . S
C826 C825 1.410 . S
C826 C827 1.392 . S
C826 C829 1.511 . S
C827 C823 1.376 . S
C827 C826 1.392 . S
C827 H839 0.929 . S
C828 C824 1.531 . S
C828 H840 0.960 . S
C828 H841 0.962 . S
C828 H842 0.960 . S
C829 C826 1.511 . S
C829 H843 0.961 . S
C829 H844 0.961 . S
C829 H845 0.961 . S
C830 C831 1.370 . S
C830 C832 1.363 . S
C830 H846 0.931 . S
C831 C830 1.370 . S
C831 C835 1.408 . S
C832 C830 1.363 . S
C832 C833 1.370 . S
C832 C836 1.524 . S
C833 C825 1.503 . S
C833 C832 1.370 . S
C833 C834 1.403 . S
C834 C833 1.403 . S
C834 C835 1.404 . S
C834 C837 1.539 . S
C835 C831 1.408 . S
C835 C834 1.404 . S
C835 H847 0.930 . S
C836 C832 1.524 . S
C836 H848 0.956 . S
C836 H849 0.961 . S
C836 H850 0.961 . S
C837 C834 1.539 . S
C837 H851 0.958 . S
C837 H852 0.961 . S
C837 H853 0.960 . S
H838 C822 0.931 . S
H839 C827 0.929 . S
H840 C828 0.960 . S
H841 C828 0.962 . S
H842 C828 0.960 . S
H843 C829 0.961 . S
H844 C829 0.961 . S
H845 C829 0.961 . S
H846 C830 0.931 . S
H847 C835 0.930 . S
H848 C836 0.956 . S
H849 C836 0.961 . S
H850 C836 0.961 . S
H851 C837 0.958 . S
H852 C837 0.961 . S
H853 C837 0.960 . S
C854 C855 1.391 . S
C854 C856 1.394 . S
C854 H870 0.931 . S
C855 C854 1.391 . S
C855 C859 1.376 . S
C856 C854 1.394 . S
C856 C857 1.369 . S
C856 C860 1.531 . S
C857 C856 1.369 . S
C857 C858 1.410 . S
C857 C865 1.503 . S
C858 C857 1.410 . S
C858 C859 1.392 . S
C858 C861 1.511 . S
C859 C855 1.376 . S
C859 C858 1.392 . S
C859 H871 0.929 . S
C860 C856 1.531 . S
C860 H872 0.960 . S
C860 H873 0.962 . S
C860 H874 0.960 . S
C861 C858 1.511 . S
C861 H875 0.961 . S
C861 H876 0.961 . S
C861 H877 0.961 . S
C862 C863 1.370 . S
C862 C864 1.363 . S
C862 H878 0.931 . S
C863 C862 1.370 . S
C863 C867 1.408 . S
C864 C862 1.363 . S
C864 C865 1.370 . S
C864 C868 1.524 . S
C865 C857 1.503 . S
C865 C864 1.370 . S
C865 C866 1.403 . S
C866 C865 1.403 . S
C866 C867 1.404 . S
C866 C869 1.539 . S
C867 C863 1.408 . S
C867 C866 1.404 . S
C867 H879 0.930 . S
C868 C864 1.524 . S
C868 H880 0.956 . S
C868 H881 0.961 . S
C868 H882 0.961 . S
C869 C866 1.539 . S
C869 H883 0.958 . S
C869 H884 0.961 . S
C869 H885 0.960 . S
H870 C854 0.931 . S
H871 C859 0.929 . S
H872 C860 0.960 . S
H873 C860 0.962 . S
H874 C860 0.960 . S
H875 C861 0.961 . S
H876 C861 0.961 . S
H877 C861 0.961 . S
H878 C862 0.931 . S
H879 C867 0.930 . S
H880 C868 0.956 . S
H881 C868 0.961 . S
H882 C868 0.961 . S
H883 C869 0.958 . S
H884 C869 0.961 . S
H885 C869 0.960 . S
C886 C887 1.391 . S
C886 C888 1.394 . S
C886 H902 0.931 . S
C887 C886 1.391 . S
C887 C891 1.376 . S
C888 C886 1.394 . S
C888 C889 1.369 . S
C888 C892 1.531 . S
C889 C888 1.369 . S
C889 C890 1.410 . S
C889 C897 1.503 . S
C890 C889 1.410 . S
C890 C891 1.392 . S
C890 C893 1.511 . S
C891 C887 1.376 . S
C891 C890 1.392 . S
C891 H903 0.929 . S
C892 C888 1.531 . S
C892 H904 0.960 . S
C892 H905 0.962 . S
C892 H906 0.960 . S
C893 C890 1.511 . S
C893 H907 0.961 . S
C893 H908 0.961 . S
C893 H909 0.961 . S
C894 C895 1.370 . S
C894 C896 1.363 . S
C894 H910 0.931 . S
C895 C894 1.370 . S
C895 C899 1.408 . S
C896 C894 1.363 . S
C896 C897 1.370 . S
C896 C900 1.524 . S
C897 C889 1.503 . S
C897 C896 1.370 . S
C897 C898 1.403 . S
C898 C897 1.403 . S
C898 C899 1.404 . S
C898 C901 1.539 . S
C899 C895 1.408 . S
C899 C898 1.404 . S
C899 H911 0.930 . S
C900 C896 1.524 . S
C900 H912 0.956 . S
C900 H913 0.961 . S
C900 H914 0.961 . S
C901 C898 1.539 . S
C901 H915 0.958 . S
C901 H916 0.961 . S
C901 H917 0.960 . S
H902 C886 0.931 . S
H903 C891 0.929 . S
H904 C892 0.960 . S
H905 C892 0.962 . S
H906 C892 0.960 . S
H907 C893 0.961 . S
H908 C893 0.961 . S
H909 C893 0.961 . S
H910 C894 0.931 . S
H911 C899 0.930 . S
H912 C900 0.956 . S
H913 C900 0.961 . S
H914 C900 0.961 . S
H915 C901 0.958 . S
H916 C901 0.961 . S
H917 C901 0.960 . S
C918 C919 1.391 . S
C918 C920 1.394 . S
C918 H934 0.931 . S
C919 C918 1.391 . S
C919 C923 1.376 . S
C920 C918 1.394 . S
C920 C921 1.369 . S
C920 C924 1.531 . S
C921 C920 1.369 . S
C921 C922 1.410 . S
C921 C929 1.503 . S
C922 C921 1.410 . S
C922 C923 1.392 . S
C922 C925 1.511 . S
C923 C919 1.376 . S
C923 C922 1.392 . S
C923 H935 0.929 . S
C924 C920 1.531 . S
C924 H936 0.960 . S
C924 H937 0.962 . S
C924 H938 0.960 . S
C925 C922 1.511 . S
C925 H939 0.961 . S
C925 H940 0.961 . S
C925 H941 0.961 . S
C926 C927 1.370 . S
C926 C928 1.363 . S
C926 H942 0.931 . S
C927 C926 1.370 . S
C927 C931 1.408 . S
C928 C926 1.363 . S
C928 C929 1.370 . S
C928 C932 1.524 . S
C929 C921 1.503 . S
C929 C928 1.370 . S
C929 C930 1.403 . S
C930 C929 1.403 . S
C930 C931 1.404 . S
C930 C933 1.539 . S
C931 C927 1.408 . S
C931 C930 1.404 . S
C931 H943 0.930 . S
C932 C928 1.524 . S
C932 H944 0.956 . S
C932 H945 0.961 . S
C932 H946 0.961 . S
C933 C930 1.539 . S
C933 H947 0.958 . S
C933 H948 0.961 . S
C933 H949 0.960 . S
H934 C918 0.931 . S
H935 C923 0.929 . S
H936 C924 0.960 . S
H937 C924 0.962 . S
H938 C924 0.960 . S
H939 C925 0.961 . S
H940 C925 0.961 . S
H941 C925 0.961 . S
H942 C926 0.931 . S
H943 C931 0.930 . S
H944 C932 0.956 . S
H945 C932 0.961 . S
H946 C932 0.961 . S
H947 C933 0.958 . S
H948 C933 0.961 . S
H949 C933 0.960 . S
C950 C951 1.391 . S
C950 C952 1.394 . S
C950 H966 0.931 . S
C951 C950 1.391 . S
C951 C955 1.376 . S
C952 C950 1.394 . S
C952 C953 1.369 . S
C952 C956 1.531 . S
C953 C952 1.369 . S
C953 C954 1.410 . S
C953 C961 1.503 . S
C954 C953 1.410 . S
C954 C955 1.392 . S
C954 C957 1.511 . S
C955 C951 1.376 . S
C955 C954 1.392 . S
C955 H967 0.929 . S
C956 C952 1.531 . S
C956 H968 0.960 . S
C956 H969 0.962 . S
C956 H970 0.960 . S
C957 C954 1.511 . S
C957 H971 0.961 . S
C957 H972 0.961 . S
C957 H973 0.961 . S
C958 C959 1.370 . S
C958 C960 1.363 . S
C958 H974 0.931 . S
C959 C958 1.370 . S
C959 C963 1.408 . S
C960 C958 1.363 . S
C960 C961 1.370 . S
C960 C964 1.524 . S
C961 C953 1.503 . S
C961 C960 1.370 . S
C961 C962 1.403 . S
C962 C961 1.403 . S
C962 C963 1.404 . S
C962 C965 1.539 . S
C963 C959 1.408 . S
C963 C962 1.404 . S
C963 H975 0.930 . S
C964 C960 1.524 . S
C964 H976 0.956 . S
C964 H977 0.961 . S
C964 H978 0.961 . S
C965 C962 1.539 . S
C965 H979 0.958 . S
C965 H980 0.961 . S
C965 H981 0.960 . S
H966 C950 0.931 . S
H967 C955 0.929 . S
H968 C956 0.960 . S
H969 C956 0.962 . S
H970 C956 0.960 . S
H971 C957 0.961 . S
H972 C957 0.961 . S
H973 C957 0.961 . S
H974 C958 0.931 . S
H975 C963 0.930 . S
H976 C964 0.956 . S
H977 C964 0.961 . S
H978 C964 0.961 . S
H979 C965 0.958 . S
H980 C965 0.961 . S
H981 C965 0.960 . S
C982 C983 1.391 . S
C982 C984 1.394 . S
C982 H998 0.931 . S
C983 C982 1.391 . S
C983 C987 1.376 . S
C984 C982 1.394 . S
C984 C985 1.369 . S
C984 C988 1.531 . S
C985 C984 1.369 . S
C985 C986 1.410 . S
C985 C993 1.503 . S
C986 C985 1.410 . S
C986 C987 1.392 . S
C986 C989 1.511 . S
C987 C983 1.376 . S
C987 C986 1.392 . S
C987 H999 0.929 . S
C988 C984 1.531 . S
C988 H1000 0.960 . S
C988 H1001 0.962 . S
C988 H1002 0.960 . S
C989 C986 1.511 . S
C989 H1003 0.961 . S
C989 H1004 0.961 . S
C989 H1005 0.961 . S
C990 C991 1.370 . S
C990 C992 1.363 . S
C990 H1006 0.931 . S
C991 C990 1.370 . S
C991 C995 1.408 . S
C992 C990 1.363 . S
C992 C993 1.370 . S
C992 C996 1.524 . S
C993 C985 1.503 . S
C993 C992 1.370 . S
C993 C994 1.403 . S
C994 C993 1.403 . S
C994 C995 1.404 . S
C994 C997 1.539 . S
C995 C991 1.408 . S
C995 C994 1.404 . S
C995 H1007 0.930 . S
C996 C992 1.524 . S
C996 H1008 0.956 . S
C996 H1009 0.961 . S
C996 H1010 0.961 . S
C997 C994 1.539 . S
C997 H1011 0.958 . S
C997 H1012 0.961 . S
C997 H1013 0.960 . S
H998 C982 0.931 . S
H999 C987 0.929 . S
H1000 C988 0.960 . S
H1001 C988 0.962 . S
H1002 C988 0.960 . S
H1003 C989 0.961 . S
H1004 C989 0.961 . S
H1005 C989 0.961 . S
H1006 C990 0.931 . S
H1007 C995 0.930 . S
H1008 C996 0.956 . S
H1009 C996 0.961 . S
H1010 C996 0.961 . S
H1011 C997 0.958 . S
H1012 C997 0.961 . S
H1013 C997 0.960 . S
C1014 C1015 1.391 . S
C1014 C1016 1.394 . S
C1014 H1030 0.931 . S
C1015 C1014 1.391 . S
C1015 C1019 1.376 . S
C1016 C1014 1.394 . S
C1016 C1017 1.369 . S
C1016 C1020 1.531 . S
C1017 C1016 1.369 . S
C1017 C1018 1.410 . S
C1017 C1025 1.503 . S
C1018 C1017 1.410 . S
C1018 C1019 1.392 . S
C1018 C1021 1.511 . S
C1019 C1015 1.376 . S
C1019 C1018 1.392 . S
C1019 H1031 0.929 . S
C1020 C1016 1.531 . S
C1020 H1032 0.960 . S
C1020 H1033 0.962 . S
C1020 H1034 0.960 . S
C1021 C1018 1.511 . S
C1021 H1035 0.961 . S
C1021 H1036 0.961 . S
C1021 H1037 0.961 . S
C1022 C1023 1.370 . S
C1022 C1024 1.363 . S
C1022 H1038 0.931 . S
C1023 C1022 1.370 . S
C1023 C1027 1.408 . S
C1024 C1022 1.363 . S
C1024 C1025 1.370 . S
C1024 C1028 1.524 . S
C1025 C1017 1.503 . S
C1025 C1024 1.370 . S
C1025 C1026 1.403 . S
C1026 C1025 1.403 . S
C1026 C1027 1.404 . S
C1026 C1029 1.539 . S
C1027 C1023 1.408 . S
C1027 C1026 1.404 . S
C1027 H1039 0.930 . S
C1028 C1024 1.524 . S
C1028 H1040 0.956 . S
C1028 H1041 0.961 . S
C1028 H1042 0.961 . S
C1029 C1026 1.539 . S
C1029 H1043 0.958 . S
C1029 H1044 0.961 . S
C1029 H1045 0.960 . S
H1030 C1014 0.931 . S
H1031 C1019 0.929 . S
H1032 C1020 0.960 . S
H1033 C1020 0.962 . S
H1034 C1020 0.960 . S
H1035 C1021 0.961 . S
H1036 C1021 0.961 . S
H1037 C1021 0.961 . S
H1038 C1022 0.931 . S
H1039 C1027 0.930 . S
H1040 C1028 0.956 . S
H1041 C1028 0.961 . S
H1042 C1028 0.961 . S
H1043 C1029 0.958 . S
H1044 C1029 0.961 . S
H1045 C1029 0.960 . S
C1046 C1047 1.391 . S
C1046 C1048 1.394 . S
C1046 H1062 0.931 . S
C1047 C1046 1.391 . S
C1047 C1051 1.376 . S
C1048 C1046 1.394 . S
C1048 C1049 1.369 . S
C1048 C1052 1.531 . S
C1049 C1048 1.369 . S
C1049 C1050 1.410 . S
C1049 C1057 1.503 . S
C1050 C1049 1.410 . S
C1050 C1051 1.392 . S
C1050 C1053 1.511 . S
C1051 C1047 1.376 . S
C1051 C1050 1.392 . S
C1051 H1063 0.929 . S
C1052 C1048 1.531 . S
C1052 H1064 0.960 . S
C1052 H1065 0.962 . S
C1052 H1066 0.960 . S
C1053 C1050 1.511 . S
C1053 H1067 0.961 . S
C1053 H1068 0.961 . S
C1053 H1069 0.961 . S
C1054 C1055 1.370 . S
C1054 C1056 1.363 . S
C1054 H1070 0.931 . S
C1055 C1054 1.370 . S
C1055 C1059 1.408 . S
C1056 C1054 1.363 . S
C1056 C1057 1.370 . S
C1056 C1060 1.524 . S
C1057 C1049 1.503 . S
C1057 C1056 1.370 . S
C1057 C1058 1.403 . S
C1058 C1057 1.403 . S
C1058 C1059 1.404 . S
C1058 C1061 1.539 . S
C1059 C1055 1.408 . S
C1059 C1058 1.404 . S
C1059 H1071 0.930 . S
C1060 C1056 1.524 . S
C1060 H1072 0.956 . S
C1060 H1073 0.961 . S
C1060 H1074 0.961 . S
C1061 C1058 1.539 . S
C1061 H1075 0.958 . S
C1061 H1076 0.961 . S
C1061 H1077 0.960 . S
H1062 C1046 0.931 . S
H1063 C1051 0.929 . S
H1064 C1052 0.960 . S
H1065 C1052 0.962 . S
H1066 C1052 0.960 . S
H1067 C1053 0.961 . S
H1068 C1053 0.961 . S
H1069 C1053 0.961 . S
H1070 C1054 0.931 . S
H1071 C1059 0.930 . S
H1072 C1060 0.956 . S
H1073 C1060 0.961 . S
H1074 C1060 0.961 . S
H1075 C1061 0.958 . S
H1076 C1061 0.961 . S
H1077 C1061 0.960 . S
C1078 C1079 1.391 . S
C1078 C1080 1.394 . S
C1078 H1094 0.931 . S
C1079 C1078 1.391 . S
C1079 C1083 1.376 . S
C1080 C1078 1.394 . S
C1080 C1081 1.369 . S
C1080 C1084 1.531 . S
C1081 C1080 1.369 . S
C1081 C1082 1.410 . S
C1081 C1089 1.503 . S
C1082 C1081 1.410 . S
C1082 C1083 1.392 . S
C1082 C1085 1.511 . S
C1083 C1079 1.376 . S
C1083 C1082 1.392 . S
C1083 H1095 0.929 . S
C1084 C1080 1.531 . S
C1084 H1096 0.960 . S
C1084 H1097 0.962 . S
C1084 H1098 0.960 . S
C1085 C1082 1.511 . S
C1085 H1099 0.961 . S
C1085 H1100 0.961 . S
C1085 H1101 0.961 . S
C1086 C1087 1.370 . S
C1086 C1088 1.363 . S
C1086 H1102 0.931 . S
C1087 C1086 1.370 . S
C1087 C1091 1.408 . S
C1088 C1086 1.363 . S
C1088 C1089 1.370 . S
C1088 C1092 1.524 . S
C1089 C1081 1.503 . S
C1089 C1088 1.370 . S
C1089 C1090 1.403 . S
C1090 C1089 1.403 . S
C1090 C1091 1.404 . S
C1090 C1093 1.539 . S
C1091 C1087 1.408 . S
C1091 C1090 1.404 . S
C1091 H1103 0.930 . S
C1092 C1088 1.524 . S
C1092 H1104 0.956 . S
C1092 H1105 0.961 . S
C1092 H1106 0.961 . S
C1093 C1090 1.539 . S
C1093 H1107 0.958 . S
C1093 H1108 0.961 . S
C1093 H1109 0.960 . S
H1094 C1078 0.931 . S
H1095 C1083 0.929 . S
H1096 C1084 0.960 . S
H1097 C1084 0.962 . S
H1098 C1084 0.960 . S
H1099 C1085 0.961 . S
H1100 C1085 0.961 . S
H1101 C1085 0.961 . S
H1102 C1086 0.931 . S
H1103 C1091 0.930 . S
H1104 C1092 0.956 . S
H1105 C1092 0.961 . S
H1106 C1092 0.961 . S
H1107 C1093 0.958 . S
H1108 C1093 0.961 . S
H1109 C1093 0.960 . S
C1110 C1111 1.391 . S
C1110 C1112 1.394 . S
C1110 H1126 0.931 . S
C1111 C1110 1.391 . S
C1111 C1115 1.376 . S
C1112 C1110 1.394 . S
C1112 C1113 1.369 . S
C1112 C1116 1.531 . S
C1113 C1112 1.369 . S
C1113 C1114 1.410 . S
C1113 C1121 1.503 . S
C1114 C1113 1.410 . S
C1114 C1115 1.392 . S
C1114 C1117 1.511 . S
C1115 C1111 1.376 . S
C1115 C1114 1.392 . S
C1115 H1127 0.929 . S
C1116 C1112 1.531 . S
C1116 H1128 0.960 . S
C1116 H1129 0.962 . S
C1116 H1130 0.960 . S
C1117 C1114 1.511 . S
C1117 H1131 0.961 . S
C1117 H1132 0.961 . S
C1117 H1133 0.961 . S
C1118 C1119 1.370 . S
C1118 C1120 1.363 . S
C1118 H1134 0.931 . S
C1119 C1118 1.370 . S
C1119 C1123 1.408 . S
C1120 C1118 1.363 . S
C1120 C1121 1.370 . S
C1120 C1124 1.524 . S
C1121 C1113 1.503 . S
C1121 C1120 1.370 . S
C1121 C1122 1.403 . S
C1122 C1121 1.403 . S
C1122 C1123 1.404 . S
C1122 C1125 1.539 . S
C1123 C1119 1.408 . S
C1123 C1122 1.404 . S
C1123 H1135 0.930 . S
C1124 C1120 1.524 . S
C1124 H1136 0.956 . S
C1124 H1137 0.961 . S
C1124 H1138 0.961 . S
C1125 C1122 1.539 . S
C1125 H1139 0.958 . S
C1125 H1140 0.961 . S
C1125 H1141 0.960 . S
H1126 C1110 0.931 . S
H1127 C1115 0.929 . S
H1128 C1116 0.960 . S
H1129 C1116 0.962 . S
H1130 C1116 0.960 . S
H1131 C1117 0.961 . S
H1132 C1117 0.961 . S
H1133 C1117 0.961 . S
H1134 C1118 0.931 . S
H1135 C1123 0.930 . S
H1136 C1124 0.956 . S
H1137 C1124 0.961 . S
H1138 C1124 0.961 . S
H1139 C1125 0.958 . S
H1140 C1125 0.961 . S
H1141 C1125 0.960 . S
C1142 C1143 1.391 . S
C1142 C1144 1.394 . S
C1142 H1158 0.931 . S
C1143 C1142 1.391 . S
C1143 C1147 1.376 . S
C1144 C1142 1.394 . S
C1144 C1145 1.369 . S
C1144 C1148 1.531 . S
C1145 C1144 1.369 . S
C1145 C1146 1.410 . S
C1145 C1153 1.503 . S
C1146 C1145 1.410 . S
C1146 C1147 1.392 . S
C1146 C1149 1.511 . S
C1147 C1143 1.376 . S
C1147 C1146 1.392 . S
C1147 H1159 0.929 . S
C1148 C1144 1.531 . S
C1148 H1160 0.960 . S
C1148 H1161 0.962 . S
C1148 H1162 0.960 . S
C1149 C1146 1.511 . S
C1149 H1163 0.961 . S
C1149 H1164 0.961 . S
C1149 H1165 0.961 . S
C1150 C1151 1.370 . S
C1150 C1152 1.363 . S
C1150 H1166 0.931 . S
C1151 C1150 1.370 . S
C1151 C1155 1.408 . S
C1152 C1150 1.363 . S
C1152 C1153 1.370 . S
C1152 C1156 1.524 . S
C1153 C1145 1.503 . S
C1153 C1152 1.370 . S
C1153 C1154 1.403 . S
C1154 C1153 1.403 . S
C1154 C1155 1.404 . S
C1154 C1157 1.539 . S
C1155 C1151 1.408 . S
C1155 C1154 1.404 . S
C1155 H1167 0.930 . S
C1156 C1152 1.524 . S
C1156 H1168 0.956 . S
C1156 H1169 0.961 . S
C1156 H1170 0.961 . S
C1157 C1154 1.539 . S
C1157 H1171 0.958 . S
C1157 H1172 0.961 . S
C1157 H1173 0.960 . S
H1158 C1142 0.931 . S
H1159 C1147 0.929 . S
H1160 C1148 0.960 . S
H1161 C1148 0.962 . S
H1162 C1148 0.960 . S
H1163 C1149 0.961 . S
H1164 C1149 0.961 . S
H1165 C1149 0.961 . S
H1166 C1150 0.931 . S
H1167 C1155 0.930 . S
H1168 C1156 0.956 . S
H1169 C1156 0.961 . S
H1170 C1156 0.961 . S
H1171 C1157 0.958 . S
H1172 C1157 0.961 . S
H1173 C1157 0.960 . S
C1174 C1175 1.391 . S
C1174 C1176 1.394 . S
C1174 H1190 0.931 . S
C1175 C1174 1.391 . S
C1175 C1179 1.376 . S
C1176 C1174 1.394 . S
C1176 C1177 1.369 . S
C1176 C1180 1.531 . S
C1177 C1176 1.369 . S
C1177 C1178 1.410 . S
C1177 C1185 1.503 . S
C1178 C1177 1.410 . S
C1178 C1179 1.392 . S
C1178 C1181 1.511 . S
C1179 C1175 1.376 . S
C1179 C1178 1.392 . S
C1179 H1191 0.929 . S
C1180 C1176 1.531 . S
C1180 H1192 0.960 . S
C1180 H1193 0.962 . S
C1180 H1194 0.960 . S
C1181 C1178 1.511 . S
C1181 H1195 0.961 . S
C1181 H1196 0.961 . S
C1181 H1197 0.961 . S
C1182 C1183 1.370 . S
C1182 C1184 1.363 . S
C1182 H1198 0.931 . S
C1183 C1182 1.370 . S
C1183 C1187 1.408 . S
C1184 C1182 1.363 . S
C1184 C1185 1.370 . S
C1184 C1188 1.524 . S
C1185 C1177 1.503 . S
C1185 C1184 1.370 . S
C1185 C1186 1.403 . S
C1186 C1185 1.403 . S
C1186 C1187 1.404 . S
C1186 C1189 1.539 . S
C1187 C1183 1.408 . S
C1187 C1186 1.404 . S
C1187 H1199 0.930 . S
C1188 C1184 1.524 . S
C1188 H1200 0.956 . S
C1188 H1201 0.961 . S
C1188 H1202 0.961 . S
C1189 C1186 1.539 . S
C1189 H1203 0.958 . S
C1189 H1204 0.961 . S
C1189 H1205 0.960 . S
H1190 C1174 0.931 . S
H1191 C1179 0.929 . S
H1192 C1180 0.960 . S
H1193 C1180 0.962 . S
H1194 C1180 0.960 . S
H1195 C1181 0.961 . S
H1196 C1181 0.961 . S
H1197 C1181 0.961 . S
H1198 C1182 0.931 . S
H1199 C1187 0.930 . S
H1200 C1188 0.956 . S
H1201 C1188 0.961 . S
H1202 C1188 0.961 . S
H1203 C1189 0.958 . S
H1204 C1189 0.961 . S
H1205 C1189 0.960 . S
C1206 C1207 1.391 . S
C1206 C1208 1.394 . S
C1206 H1222 0.931 . S
C1207 C1206 1.391 . S
C1207 C1211 1.376 . S
C1208 C1206 1.394 . S
C1208 C1209 1.369 . S
C1208 C1212 1.531 . S
C1209 C1208 1.369 . S
C1209 C1210 1.410 . S
C1209 C1217 1.503 . S
C1210 C1209 1.410 . S
C1210 C1211 1.392 . S
C1210 C1213 1.511 . S
C1211 C1207 1.376 . S
C1211 C1210 1.392 . S
C1211 H1223 0.929 . S
C1212 C1208 1.531 . S
C1212 H1224 0.960 . S
C1212 H1225 0.962 . S
C1212 H1226 0.960 . S
C1213 C1210 1.511 . S
C1213 H1227 0.961 . S
C1213 H1228 0.961 . S
C1213 H1229 0.961 . S
C1214 C1215 1.370 . S
C1214 C1216 1.363 . S
C1214 H1230 0.931 . S
C1215 C1214 1.370 . S
C1215 C1219 1.408 . S
C1216 C1214 1.363 . S
C1216 C1217 1.370 . S
C1216 C1220 1.524 . S
C1217 C1209 1.503 . S
C1217 C1216 1.370 . S
C1217 C1218 1.403 . S
C1218 C1217 1.403 . S
C1218 C1219 1.404 . S
C1218 C1221 1.539 . S
C1219 C1215 1.408 . S
C1219 C1218 1.404 . S
C1219 H1231 0.930 . S
C1220 C1216 1.524 . S
C1220 H1232 0.956 . S
C1220 H1233 0.961 . S
C1220 H1234 0.961 . S
C1221 C1218 1.539 . S
C1221 H1235 0.958 . S
C1221 H1236 0.961 . S
C1221 H1237 0.960 . S
H1222 C1206 0.931 . S
H1223 C1211 0.929 . S
H1224 C1212 0.960 . S
H1225 C1212 0.962 . S
H1226 C1212 0.960 . S
H1227 C1213 0.961 . S
H1228 C1213 0.961 . S
H1229 C1213 0.961 . S
H1230 C1214 0.931 . S
H1231 C1219 0.930 . S
H1232 C1220 0.956 . S
H1233 C1220 0.961 . S
H1234 C1220 0.961 . S
H1235 C1221 0.958 . S
H1236 C1221 0.961 . S
H1237 C1221 0.960 . S
C1238 C1239 1.391 . S
C1238 C1240 1.394 . S
C1238 H1254 0.931 . S
C1239 C1238 1.391 . S
C1239 C1243 1.376 . S
C1240 C1238 1.394 . S
C1240 C1241 1.369 . S
C1240 C1244 1.531 . S
C1241 C1240 1.369 . S
C1241 C1242 1.410 . S
C1241 C1249 1.503 . S
C1242 C1241 1.410 . S
C1242 C1243 1.392 . S
C1242 C1245 1.511 . S
C1243 C1239 1.376 . S
C1243 C1242 1.392 . S
C1243 H1255 0.929 . S
C1244 C1240 1.531 . S
C1244 H1256 0.960 . S
C1244 H1257 0.962 . S
C1244 H1258 0.960 . S
C1245 C1242 1.511 . S
C1245 H1259 0.961 . S
C1245 H1260 0.961 . S
C1245 H1261 0.961 . S
C1246 C1247 1.370 . S
C1246 C1248 1.363 . S
C1246 H1262 0.931 . S
C1247 C1246 1.370 . S
C1247 C1251 1.408 . S
C1248 C1246 1.363 . S
C1248 C1249 1.370 . S
C1248 C1252 1.524 . S
C1249 C1241 1.503 . S
C1249 C1248 1.370 . S
C1249 C1250 1.403 . S
C1250 C1249 1.403 . S
C1250 C1251 1.404 . S
C1250 C1253 1.539 . S
C1251 C1247 1.408 . S
C1251 C1250 1.404 . S
C1251 H1263 0.930 . S
C1252 C1248 1.524 . S
C1252 H1264 0.956 . S
C1252 H1265 0.961 . S
C1252 H1266 0.961 . S
C1253 C1250 1.539 . S
C1253 H1267 0.958 . S
C1253 H1268 0.961 . S
C1253 H1269 0.960 . S
H1254 C1238 0.931 . S
H1255 C1243 0.929 . S
H1256 C1244 0.960 . S
H1257 C1244 0.962 . S
H1258 C1244 0.960 . S
H1259 C1245 0.961 . S
H1260 C1245 0.961 . S
H1261 C1245 0.961 . S
H1262 C1246 0.931 . S
H1263 C1251 0.930 . S
H1264 C1252 0.956 . S
H1265 C1252 0.961 . S
H1266 C1252 0.961 . S
H1267 C1253 0.958 . S
H1268 C1253 0.961 . S
H1269 C1253 0.960 . S
C1270 C1271 1.391 . S
C1270 C1272 1.394 . S
C1270 H1286 0.931 . S
C1271 C1270 1.391 . S
C1271 C1275 1.376 . S
C1272 C1270 1.394 . S
C1272 C1273 1.369 . S
C1272 C1276 1.531 . S
C1273 C1272 1.369 . S
C1273 C1274 1.410 . S
C1273 C1281 1.503 . S
C1274 C1273 1.410 . S
C1274 C1275 1.392 . S
C1274 C1277 1.511 . S
C1275 C1271 1.376 . S
C1275 C1274 1.392 . S
C1275 H1287 0.929 . S
C1276 C1272 1.531 . S
C1276 H1288 0.960 . S
C1276 H1289 0.962 . S
C1276 H1290 0.960 . S
C1277 C1274 1.511 . S
C1277 H1291 0.961 . S
C1277 H1292 0.961 . S
C1277 H1293 0.961 . S
C1278 C1279 1.370 . S
C1278 C1280 1.363 . S
C1278 H1294 0.931 . S
C1279 C1278 1.370 . S
C1279 C1283 1.408 . S
C1280 C1278 1.363 . S
C1280 C1281 1.370 . S
C1280 C1284 1.524 . S
C1281 C1273 1.503 . S
C1281 C1280 1.370 . S
C1281 C1282 1.403 . S
C1282 C1281 1.403 . S
C1282 C1283 1.404 . S
C1282 C1285 1.539 . S
C1283 C1279 1.408 . S
C1283 C1282 1.404 . S
C1283 H1295 0.930 . S
C1284 C1280 1.524 . S
C1284 H1296 0.956 . S
C1284 H1297 0.961 . S
C1284 H1298 0.961 . S
C1285 C1282 1.539 . S
C1285 H1299 0.958 . S
C1285 H1300 0.961 . S
C1285 H1301 0.960 . S
H1286 C1270 0.931 . S
H1287 C1275 0.929 . S
H1288 C1276 0.960 . S
H1289 C1276 0.962 . S
H1290 C1276 0.960 . S
H1291 C1277 0.961 . S
H1292 C1277 0.961 . S
H1293 C1277 0.961 . S
H1294 C1278 0.931 . S
H1295 C1283 0.930 . S
H1296 C1284 0.956 . S
H1297 C1284 0.961 . S
H1298 C1284 0.961 . S
H1299 C1285 0.958 . S
H1300 C1285 0.961 . S
H1301 C1285 0.960 . S
C1302 C1303 1.391 . S
C1302 C1304 1.394 . S
C1302 H1318 0.931 . S
C1303 C1302 1.391 . S
C1303 C1307 1.376 . S
C1304 C1302 1.394 . S
C1304 C1305 1.369 . S
C1304 C1308 1.531 . S
C1305 C1304 1.369 . S
C1305 C1306 1.410 . S
C1305 C1313 1.503 . S
C1306 C1305 1.410 . S
C1306 C1307 1.392 . S
C1306 C1309 1.511 . S
C1307 C1303 1.376 . S
C1307 C1306 1.392 . S
C1307 H1319 0.929 . S
C1308 C1304 1.531 . S
C1308 H1320 0.960 . S
C1308 H1321 0.962 . S
C1308 H1322 0.960 . S
C1309 C1306 1.511 . S
C1309 H1323 0.961 . S
C1309 H1324 0.961 . S
C1309 H1325 0.961 . S
C1310 C1311 1.370 . S
C1310 C1312 1.363 . S
C1310 H1326 0.931 . S
C1311 C1310 1.370 . S
C1311 C1315 1.408 . S
C1312 C1310 1.363 . S
C1312 C1313 1.370 . S
C1312 C1316 1.524 . S
C1313 C1305 1.503 . S
C1313 C1312 1.370 . S
C1313 C1314 1.403 . S
C1314 C1313 1.403 . S
C1314 C1315 1.404 . S
C1314 C1317 1.539 . S
C1315 C1311 1.408 . S
C1315 C1314 1.404 . S
C1315 H1327 0.930 . S
C1316 C1312 1.524 . S
C1316 H1328 0.956 . S
C1316 H1329 0.961 . S
C1316 H1330 0.961 . S
C1317 C1314 1.539 . S
C1317 H1331 0.958 . S
C1317 H1332 0.961 . S
C1317 H1333 0.960 . S
H1318 C1302 0.931 . S
H1319 C1307 0.929 . S
H1320 C1308 0.960 . S
H1321 C1308 0.962 . S
H1322 C1308 0.960 . S
H1323 C1309 0.961 . S
H1324 C1309 0.961 . S
H1325 C1309 0.961 . S
H1326 C1310 0.931 . S
H1327 C1315 0.930 . S
H1328 C1316 0.956 . S
H1329 C1316 0.961 . S
H1330 C1316 0.961 . S
H1331 C1317 0.958 . S
H1332 C1317 0.961 . S
H1333 C1317 0.960 . S
C1334 C1335 1.391 . S
C1334 C1336 1.394 . S
C1334 H1350 0.931 . S
C1335 C1334 1.391 . S
C1335 C1339 1.376 . S
C1336 C1334 1.394 . S
C1336 C1337 1.369 . S
C1336 C1340 1.531 . S
C1337 C1336 1.369 . S
C1337 C1338 1.410 . S
C1337 C1345 1.503 . S
C1338 C1337 1.410 . S
C1338 C1339 1.392 . S
C1338 C1341 1.511 . S
C1339 C1335 1.376 . S
C1339 C1338 1.392 . S
C1339 H1351 0.929 . S
C1340 C1336 1.531 . S
C1340 H1352 0.960 . S
C1340 H1353 0.962 . S
C1340 H1354 0.960 . S
C1341 C1338 1.511 . S
C1341 H1355 0.961 . S
C1341 H1356 0.961 . S
C1341 H1357 0.961 . S
C1342 C1343 1.370 . S
C1342 C1344 1.363 . S
C1342 H1358 0.931 . S
C1343 C1342 1.370 . S
C1343 C1347 1.408 . S
C1344 C1342 1.363 . S
C1344 C1345 1.370 . S
C1344 C1348 1.524 . S
C1345 C1337 1.503 . S
C1345 C1344 1.370 . S
C1345 C1346 1.403 . S
C1346 C1345 1.403 . S
C1346 C1347 1.404 . S
C1346 C1349 1.539 . S
C1347 C1343 1.408 . S
C1347 C1346 1.404 . S
C1347 H1359 0.930 . S
C1348 C1344 1.524 . S
C1348 H1360 0.956 . S
C1348 H1361 0.961 . S
C1348 H1362 0.961 . S
C1349 C1346 1.539 . S
C1349 H1363 0.958 . S
C1349 H1364 0.961 . S
C1349 H1365 0.960 . S
H1350 C1334 0.931 . S
H1351 C1339 0.929 . S
H1352 C1340 0.960 . S
H1353 C1340 0.962 . S
H1354 C1340 0.960 . S
H1355 C1341 0.961 . S
H1356 C1341 0.961 . S
H1357 C1341 0.961 . S
H1358 C1342 0.931 . S
H1359 C1347 0.930 . S
H1360 C1348 0.956 . S
H1361 C1348 0.961 . S
H1362 C1348 0.961 . S
H1363 C1349 0.958 . S
H1364 C1349 0.961 . S
H1365 C1349 0.960 . S
C1366 C1367 1.391 . S
C1366 C1368 1.394 . S
C1366 H1382 0.931 . S
C1367 C1366 1.391 . S
C1367 C1371 1.376 . S
C1368 C1366 1.394 . S
C1368 C1369 1.369 . S
C1368 C1372 1.531 . S
C1369 C1368 1.369 . S
C1369 C1370 1.410 . S
C1369 C1377 1.503 . S
C1370 C1369 1.410 . S
C1370 C1371 1.392 . S
C1370 C1373 1.511 . S
C1371 C1367 1.376 . S
C1371 C1370 1.392 . S
C1371 H1383 0.929 . S
C1372 C1368 1.531 . S
C1372 H1384 0.960 . S
C1372 H1385 0.962 . S
C1372 H1386 0.960 . S
C1373 C1370 1.511 . S
C1373 H1387 0.961 . S
C1373 H1388 0.961 . S
C1373 H1389 0.961 . S
C1374 C1375 1.370 . S
C1374 C1376 1.363 . S
C1374 H1390 0.931 . S
C1375 C1374 1.370 . S
C1375 C1379 1.408 . S
C1376 C1374 1.363 . S
C1376 C1377 1.370 . S
C1376 C1380 1.524 . S
C1377 C1369 1.503 . S
C1377 C1376 1.370 . S
C1377 C1378 1.403 . S
C1378 C1377 1.403 . S
C1378 C1379 1.404 . S
C1378 C1381 1.539 . S
C1379 C1375 1.408 . S
C1379 C1378 1.404 . S
C1379 H1391 0.930 . S
C1380 C1376 1.524 . S
C1380 H1392 0.956 . S
C1380 H1393 0.961 . S
C1380 H1394 0.961 . S
C1381 C1378 1.539 . S
C1381 H1395 0.958 . S
C1381 H1396 0.961 . S
C1381 H1397 0.960 . S
H1382 C1366 0.931 . S
H1383 C1371 0.929 . S
H1384 C1372 0.960 . S
H1385 C1372 0.962 . S
H1386 C1372 0.960 . S
H1387 C1373 0.961 . S
H1388 C1373 0.961 . S
H1389 C1373 0.961 . S
H1390 C1374 0.931 . S
H1391 C1379 0.930 . S
H1392 C1380 0.956 . S
H1393 C1380 0.961 . S
H1394 C1380 0.961 . S
H1395 C1381 0.958 . S
H1396 C1381 0.961 . S
H1397 C1381 0.960 . S
C639 C334 1.567 . S
C631 C16 1.570 . S
C671 C403 1.542 . S
C663 C55 1.538 . S
C703 C341 1.554 . S
C695 C99 1.557 . S
C735 C404 1.534 . S
C727 C138 1.530 . S
C767 C457 1.574 . S
C759 C1 1.563 . S
C799 C493 1.526 . S
C791 C40 1.515 . S
C823 C94 1.551 . S
C831 C553 1.552 . S
C863 C616 1.523 . S
C855 C133 1.514 . S
C895 C456 1.539 . S
C887 C60 1.544 . S
C919 C79 1.529 . S
C927 C500 1.527 . S
C959 C546 1.537 . S
C951 C118 1.544 . S
C991 C615 1.530 . S
C983 C21 1.534 . S
C1015 C177 1.542 . S
C1023 C394 1.546 . S
C1055 C351 1.555 . S
C1047 C211 1.551 . S
C1079 C255 1.546 . S
C1087 C387 1.546 . S
C1111 C289 1.561 . S
C1119 C350 1.563 . S
C1151 C562 1.542 . S
C1143 C157 1.537 . S
C1183 C606 1.528 . S
C1175 C196 1.527 . S
C1215 C440 1.553 . S
C1207 C250 1.565 . S
C1239 C294 1.521 . S
C1247 C509 1.527 . S
C1279 C563 1.547 . S
C1271 C216 1.538 . S
C1311 C599 1.526 . S
C1303 C235 1.523 . S
C1343 C447 1.563 . S
C1335 C274 1.574 . S
C1367 C172 1.530 . S
C1375 C510 1.528 . S
