# Generated by pormake.
# Topology ftw, (4,12)-cn, num edge types: 1
# Building blocks:
#     Node 0, Type 0, BuildingBlock: NAWXER_clean_linker_0, # of connection points: 4
#     Node 1, Type 0, BuildingBlock: NAWXER_clean_linker_0, # of connection points: 4
#     Node 2, Type 0, BuildingBlock: NAWXER_clean_linker_0, # of connection points: 4
#     Node 3, Type 1, BuildingBlock: EZIPEK_clean_sbu_0, # of connection points: 12
#     Edge 4, Type (0, 1), BuildingBlock: AJUNOK_clean_linker_0, # of connection points: 2
#     Edge 5, Type (0, 1), BuildingBlock: AJUNOK_clean_linker_0, # of connection points: 2
#     Edge 6, Type (0, 1), BuildingBlock: AJUNOK_clean_linker_0, # of connection points: 2
#     Edge 7, Type (0, 1), BuildingBlock: AJUNOK_clean_linker_0, # of connection points: 2
#     Edge 8, Type (0, 1), BuildingBlock: AJUNOK_clean_linker_0, # of connection points: 2
#     Edge 9, Type (0, 1), BuildingBlock: AJUNOK_clean_linker_0, # of connection points: 2
#     Edge 10, Type (0, 1), BuildingBlock: AJUNOK_clean_linker_0, # of connection points: 2
#     Edge 11, Type (0, 1), BuildingBlock: AJUNOK_clean_linker_0, # of connection points: 2
#     Edge 12, Type (0, 1), BuildingBlock: AJUNOK_clean_linker_0, # of connection points: 2
#     Edge 13, Type (0, 1), BuildingBlock: AJUNOK_clean_linker_0, # of connection points: 2
#     Edge 14, Type (0, 1), BuildingBlock: AJUNOK_clean_linker_0, # of connection points: 2
#     Edge 15, Type (0, 1), BuildingBlock: AJUNOK_clean_linker_0, # of connection points: 2
# Relax obj value: 0.032
# Max RMSD: 0.131
# Mean RMSD: 0.100
data_MOF--net-ftw--node1-EZIPEK_clean_sbu_0--node2-NAWXER_clean_linker_0--edge1-AJUNOK_clean_linker_0
_symmetry_space_group_name_H-M    P1
_symmetry_Int_Tables_number       1
_symmetry_cell_setting            triclinic
loop_
_symmetry_equiv_pos_as_xyz
'x, y, z'
_cell_length_a     22.248395
_cell_length_b     22.900859
_cell_length_c     22.659798
_cell_angle_alpha  90.114077
_cell_angle_beta   89.8347
_cell_angle_gamma 89.979776
loop_
_atom_site_label
_atom_site_type_symbol
_atom_site_fract_x
_atom_site_fract_y
_atom_site_fract_z
_atom_type_partial_charge
C0 C 0.03042 0.71621 0.62013 0.0
C1 C 0.98947 0.71386 0.66765 0.0
C2 C 0.02899 0.67386 0.57506 0.0
C3 C 0.98599 0.62883 0.5763 0.0
C4 C 0.94479 0.67062 0.66706 0.0
C5 C 0.94319 0.6287 0.62217 0.0
C6 C 0.99108 0.576 0.53801 0.0
C7 C 0.95688 0.71248 0.39424 0.0
C8 C 0.00062 0.7151 0.34912 0.0
C9 C 0.96001 0.66979 0.43856 0.0
C10 C 0.00674 0.62849 0.43856 0.0
C11 C 0.04809 0.67463 0.35026 0.0
C12 C 0.05092 0.6318 0.39416 0.0
C13 C 0.00429 0.57579 0.47683 0.0
C14 C 0.95653 0.33916 0.38669 0.0
C15 C 0.0059 0.33277 0.34823 0.0
C16 C 0.95747 0.38114 0.432 0.0
C17 C 0.00748 0.41796 0.439 0.0
C18 C 0.0566 0.36827 0.35672 0.0
C19 C 0.0571 0.41076 0.40117 0.0
C20 C 0.00431 0.47066 0.47708 0.0
C21 C 0.02267 0.32447 0.61399 0.0
C22 C 0.98794 0.33015 0.66595 0.0
C23 C 0.02229 0.36829 0.57052 0.0
C24 C 0.98557 0.41802 0.57698 0.0
C25 C 0.95004 0.37901 0.67116 0.0
C26 C 0.94852 0.42176 0.62734 0.0
C27 C 0.99107 0.47071 0.5383 0.0
H28 H 0.06524 0.74925 0.61926 0.0
H29 H 0.06353 0.67452 0.54131 0.0
H30 H 0.91163 0.66848 0.70209 0.0
H31 H 0.90952 0.59459 0.62453 0.0
H32 H 0.91883 0.74195 0.39406 0.0
H33 H 0.92412 0.66718 0.47083 0.0
H34 H 0.08278 0.67557 0.31663 0.0
H35 H 0.08699 0.60003 0.39248 0.0
H36 H 0.9169 0.31227 0.38106 0.0
H37 H 0.91805 0.38679 0.45959 0.0
H38 H 0.09502 0.36467 0.32745 0.0
H39 H 0.09568 0.43939 0.40488 0.0
H40 H 0.05103 0.28666 0.60714 0.0
H41 H 0.05281 0.36413 0.53354 0.0
H42 H 0.92283 0.38558 0.71031 0.0
H43 H 0.91968 0.45932 0.63421 0.0
N44 N 0.9853 0.52351 0.56544 0.0
N45 N 0.01046 0.5231 0.44947 0.0
C46 C 0.6132 0.06324 0.6932 0.0
C47 C 0.65288 1.01592 0.69951 0.0
C48 C 0.56856 0.06187 0.65032 0.0
C49 C 0.56353 1.01352 0.61268 0.0
C50 C 0.64654 0.9668 0.66297 0.0
C51 C 0.60238 0.96581 0.61952 0.0
C52 C 0.52547 1.017 0.56016 0.0
C53 C 0.38082 0.98905 0.69679 0.0
C54 C 0.34146 0.03649 0.70446 0.0
C55 C 0.42489 0.99059 0.65308 0.0
C56 C 0.42953 0.0392 0.61591 0.0
C57 C 0.34805 0.08618 0.66888 0.0
C58 C 0.39152 0.0873 0.62455 0.0
C59 C 0.46518 0.0352 0.56163 0.0
C60 C 0.37582 0.98833 0.32277 0.0
C61 C 0.33376 0.03388 0.31867 0.0
C62 C 0.42077 0.9902 0.36535 0.0
C63 C 0.424 0.03752 0.40456 0.0
C64 C 0.33802 0.08191 0.35686 0.0
C65 C 0.38275 0.08359 0.39969 0.0
C66 C 0.46248 0.03414 0.45689 0.0
C67 C 0.60653 0.06174 0.31935 0.0
C68 C 0.64732 1.01526 0.31299 0.0
C69 C 0.56233 0.06002 0.36298 0.0
C70 C 0.55884 1.0121 0.40121 0.0
C71 C 0.64197 0.96624 0.34965 0.0
C72 C 0.59825 0.96486 0.39372 0.0
C73 C 0.52294 1.01613 0.45541 0.0
H74 H 0.61819 0.10229 0.71978 0.0
H75 H 0.54035 0.09996 0.64437 0.0
H76 H 0.67648 0.92974 0.66726 0.0
H77 H 0.59959 0.92852 0.59015 0.0
H78 H 0.3757 0.94958 0.72256 0.0
H79 H 0.45256 0.95229 0.64582 0.0
H80 H 0.31843 0.12339 0.67423 0.0
H81 H 0.39406 0.12481 0.59557 0.0
H82 H 0.37257 0.95026 0.29451 0.0
H83 H 0.45072 0.95317 0.36973 0.0
H84 H 0.30618 0.11762 0.35416 0.0
H85 H 0.38406 0.12005 0.43023 0.0
H86 H 0.61059 0.10065 0.29254 0.0
H87 H 0.53359 0.09773 0.36927 0.0
H88 H 0.67267 0.92974 0.34527 0.0
H89 H 0.59662 0.92788 0.42345 0.0
N90 N 0.55218 1.00835 0.50713 0.0
N91 N 0.43588 0.04288 0.50998 0.0
C92 C 0.37855 0.33704 0.97319 0.0
C93 C 0.33609 0.33476 0.01922 0.0
C94 C 0.42274 0.38053 0.97251 0.0
C95 C 0.42536 0.4221 0.01811 0.0
C96 C 0.34094 0.37442 0.0663 0.0
C97 C 0.38479 0.41797 0.06546 0.0
C98 C 0.46311 0.47493 0.0125 0.0
C99 C 0.60618 0.33536 0.03598 0.0
C100 C 0.64938 0.33247 0.99068 0.0
C101 C 0.56252 0.3794 0.03598 0.0
C102 C 0.56113 0.42084 0.99032 0.0
C103 C 0.64573 0.37191 0.94347 0.0
C104 C 0.60233 0.4159 0.94355 0.0
C105 C 0.52415 0.47433 0.99533 0.0
C106 C 0.61105 0.7141 0.03785 0.0
C107 C 0.65082 0.71944 0.99001 0.0
C108 C 0.56678 0.67071 0.03768 0.0
C109 C 0.56235 0.6317 0.98995 0.0
C110 C 0.64481 0.68216 0.94126 0.0
C111 C 0.6013 0.6382 0.94152 0.0
C112 C 0.52483 0.57871 0.9946 0.0
C113 C 0.37716 0.71313 0.96535 0.0
C114 C 0.3387 0.72068 0.01397 0.0
C115 C 0.42139 0.66967 0.96614 0.0
C116 C 0.42703 0.63278 0.01528 0.0
C117 C 0.34629 0.68577 0.06415 0.0
C118 C 0.38964 0.64164 0.0645 0.0
C119 C 0.46387 0.57927 0.01158 0.0
H120 H 0.37578 0.30697 0.93635 0.0
H121 H 0.45255 0.38355 0.93478 0.0
H122 H 0.3098 0.37272 0.10309 0.0
H123 H 0.38586 0.44964 0.10103 0.0
H124 H 0.6081 0.30544 0.0729 0.0
H125 H 0.53225 0.383 0.07332 0.0
H126 H 0.67763 0.3698 0.90733 0.0
H127 H 0.60223 0.4474 0.90793 0.0
H128 H 0.61527 0.74253 0.07588 0.0
H129 H 0.53829 0.66566 0.07618 0.0
H130 H 0.67531 0.68565 0.90408 0.0
H131 H 0.5992 0.60807 0.90465 0.0
H132 H 0.37186 0.73979 0.92626 0.0
H133 H 0.44882 0.66278 0.92716 0.0
H134 H 0.31688 0.69096 0.102 0.0
H135 H 0.39273 0.61314 0.10248 0.0
N136 N 0.43555 0.52741 0.01989 0.0
N137 N 0.55243 0.5263 0.98713 0.0
C138 C -0.00452 0.16513 0.86242 0.0
C139 C -0.00335 0.16769 0.15203 0.0
C140 C -0.00407 0.88222 0.86356 0.0
C141 C 0.99142 0.88503 0.15491 0.0
C142 C 0.14065 0.88522 0.01023 0.0
C143 C 0.13944 0.16647 0.0097 0.0
C144 C 0.84778 0.88471 1.00233 0.0
C145 C 0.84681 0.16525 1.00467 0.0
C146 C 0.84619 0.02689 0.1476 0.0
C147 C 0.13868 1.02492 0.14987 0.0
C148 C 0.8494 1.02584 0.86651 0.0
C149 C 0.14209 1.02352 0.86894 0.0
Eu150 Eu -0.00672 0.13742 1.00746 0.0
O151 O 0.04513 0.0783 0.06077 0.0
O152 O 0.94232 0.07707 0.95453 0.0
Eu153 Eu 0.10465 1.02558 0.00905 0.0
Eu154 Eu 0.88332 1.02492 1.00731 0.0
O155 O 0.04668 0.07776 0.95531 0.0
O156 O 0.94053 0.0785 0.06062 0.0
Eu157 Eu -0.00452 1.02415 0.89566 0.0
Eu158 Eu 0.99273 0.02611 0.1204 0.0
O159 O 0.04687 0.97188 0.95628 0.0
O160 O 0.04557 0.97284 0.06152 0.0
O161 O 0.94114 0.97237 0.061 0.0
O162 O 0.94289 0.97192 0.9555 0.0
Eu163 Eu -0.00589 0.91225 0.00898 0.0
O164 O -0.00682 0.18451 0.91826 0.0
O165 O 0.99286 0.18629 0.09605 0.0
O166 O -0.00462 0.86407 0.91991 0.0
O167 O -0.00703 0.86532 0.09894 0.0
O168 O 0.15707 0.94116 0.01184 0.0
O169 O 0.15631 0.11058 0.00989 0.0
O170 O 0.83142 0.94063 1.00236 0.0
O171 O 0.83048 0.10925 1.00567 0.0
O172 O 0.90246 0.02861 0.1681 0.0
O173 O 0.08197 1.02395 0.16955 0.0
O174 O 0.90608 1.025 0.84671 0.0
O175 O 0.08588 1.02325 0.84828 0.0
O176 O 0.90413 0.86476 1.00635 0.0
O177 O 0.08421 0.86531 0.00832 0.0
O178 O 0.9035 0.18444 1.00555 0.0
O179 O 0.0826 0.18525 0.00836 0.0
O180 O -0.00213 0.11207 0.16949 0.0
O181 O 0.99114 0.94119 0.17056 0.0
O182 O -0.00264 0.10941 0.84523 0.0
O183 O -0.00418 0.93802 0.84647 0.0
O184 O 0.15732 1.02525 0.9254 0.0
O185 O 0.15498 0.02716 0.09367 0.0
O186 O 0.833 1.02513 0.92274 0.0
O187 O 0.83092 1.02355 0.09119 0.0
C188 C 0.95908 0.2946 0.25467 0.0
C189 C 0.00419 0.29062 0.29807 0.0
C190 C 0.95798 0.25621 0.20599 0.0
C191 C 0.0012 0.21176 0.19983 0.0
H192 H 0.92473 0.32798 0.25816 0.0
H193 H 0.92225 0.26032 0.17388 0.0
S194 S 0.12906 0.1834 0.30051 0.0
N195 N 0.09377 0.23955 0.33064 0.0
N196 N 0.09081 0.1667 0.24042 0.0
C197 C 0.04651 0.20752 0.24276 0.0
C198 C 0.04827 0.24713 0.29151 0.0
C199 C 0.75649 1.00678 0.2885 0.0
C200 C 0.69739 1.01919 0.27035 0.0
C201 C 0.80482 1.01077 0.24902 0.0
C202 C 0.7956 0.02719 0.19002 0.0
H203 H 0.76548 0.99416 0.33367 0.0
H204 H 0.84939 0.99986 0.26466 0.0
S205 S 0.64895 0.06564 0.12131 0.0
N206 N 0.63205 0.04849 0.19005 0.0
N207 N 0.72251 0.05823 0.11608 0.0
C208 C 0.73655 0.04078 0.17172 0.0
C209 C 0.68754 0.03623 0.21183 0.0
C210 C 0.00576 0.7417 0.24095 0.0
C211 C -0.00362 0.75881 0.30014 0.0
C212 C 0.00302 0.78219 0.19428 0.0
C213 C 0.99106 0.84178 0.20467 0.0
H214 H 0.0151 0.69643 0.23046 0.0
H215 H 0.01116 0.76661 0.14982 0.0
S216 S 0.96287 0.90905 0.35222 0.0
N217 N 0.97508 0.83948 0.36655 0.0
N218 N 0.96834 0.9152 0.2799 0.0
C219 C 0.98084 0.85921 0.26391 0.0
C220 C 0.98383 0.81795 0.31122 0.0
C221 C 0.2247 0.03906 0.29353 0.0
C222 C 0.2846 0.03065 0.27541 0.0
C223 C 0.17741 0.03575 0.25301 0.0
C224 C 0.18859 1.0246 0.19294 0.0
H225 H 0.21431 0.04789 0.33943 0.0
H226 H 0.13202 0.04289 0.26885 0.0
S227 S 0.33871 0.99869 0.12404 0.0
N228 N 0.35307 1.01066 0.19437 0.0
N229 N 0.26504 1.00343 0.11796 0.0
C230 C 0.24874 1.01539 0.17463 0.0
C231 C 0.29653 1.01873 0.21594 0.0
C232 C -0.00404 0.81596 0.70826 0.0
C233 C -0.00645 0.75554 0.71835 0.0
C234 C -0.003 0.856 0.75533 0.0
C235 C -0.00382 0.83757 0.81491 0.0
H236 H -0.00424 0.83257 0.66353 0.0
H237 H -0.00197 0.902 0.74443 0.0
S238 S -0.00497 0.68302 0.86478 0.0
N239 N -0.00611 0.67862 0.79205 0.0
N240 N -0.00413 0.75344 0.88049 0.0
C241 C -0.0047 0.7769 0.82546 0.0
C242 C -0.00605 0.73613 0.77734 0.0
C243 C 0.23267 0.04763 0.7294 0.0
C244 C 0.29132 0.03273 0.74703 0.0
C245 C 0.18414 0.04316 0.76855 0.0
C246 C 0.19269 1.02366 0.82666 0.0
H247 H 0.22414 0.06249 0.68483 0.0
H248 H 0.13996 0.0561 0.75342 0.0
S249 S 0.33788 0.97829 0.8939 0.0
N250 N 0.35554 0.9982 0.82612 0.0
N251 N 0.26451 0.98729 0.89925 0.0
C252 C 0.25123 1.00771 0.84446 0.0
C253 C 0.3005 1.01286 0.80476 0.0
C254 C 0.93895 0.27178 0.74752 0.0
C255 C 0.99141 0.28681 0.71561 0.0
C256 C 0.94089 0.23382 0.79615 0.0
C257 C -0.0048 0.20874 0.81451 0.0
H258 H 0.89565 0.28905 0.73456 0.0
H259 H 0.89941 0.22315 0.81887 0.0
S260 S 0.14548 0.23276 0.7484 0.0
N261 N 0.10003 0.27379 0.70851 0.0
N262 N 0.10243 0.20028 0.79792 0.0
C263 C 0.0478 0.22242 0.78328 0.0
C264 C 0.04623 0.26186 0.73432 0.0
C265 C 0.76146 1.00525 0.725 0.0
C266 C 0.70236 1.01888 0.74255 0.0
C267 C 0.80926 1.00888 0.76488 0.0
C268 C 0.79946 0.02621 0.82365 0.0
H269 H 0.77088 0.99206 0.67997 0.0
H270 H 0.85388 0.99714 0.74971 0.0
S271 S 0.65231 0.06735 0.89089 0.0
N272 N 0.63624 0.04967 0.82214 0.0
N273 N 0.72568 0.05911 0.89674 0.0
C274 C 0.74034 0.04084 0.84135 0.0
C275 C 0.69188 0.0365 0.8009 0.0
C276 C 0.29597 0.23352 1.00505 0.0
C277 C 0.28525 0.29285 0.0168 0.0
C278 C 0.24859 0.19329 1.00269 0.0
C279 C 0.18838 0.21078 0.01155 0.0
H280 H 0.34146 0.21793 0.99829 0.0
H281 H 0.25957 0.14805 0.9937 0.0
S282 S 0.13652 0.36239 0.04126 0.0
N283 N 0.21024 0.36793 0.03521 0.0
N284 N 0.12112 0.29254 0.03164 0.0
C285 C 0.17711 0.27037 0.0227 0.0
C286 C 0.2255 0.31127 0.02519 0.0
C287 C 0.28811 0.81189 0.04841 0.0
C288 C 0.28837 0.76263 0.01146 0.0
C289 C 0.23998 0.85139 0.0476 0.0
C290 C 0.18992 0.8421 0.0109 0.0
H291 H 0.32551 0.82004 0.07782 0.0
H292 H 0.24156 0.88905 0.07652 0.0
S293 S 0.1692 0.71929 0.90615 0.0
N294 N 0.23515 0.70661 0.93698 0.0
N295 N 0.14382 0.78019 0.93649 0.0
C296 C 0.18948 0.79266 0.97416 0.0
C297 C 0.23903 0.75309 0.97413 0.0
C298 C 0.68953 0.23118 1.00462 0.0
C299 C 0.70025 0.29071 0.99431 0.0
C300 C 0.73713 0.1912 1.00797 0.0
C301 C 0.79752 0.20921 1.00174 0.0
H302 H 0.64393 0.21525 0.00942 0.0
H303 H 0.72614 0.14576 0.01553 0.0
S304 S 0.84914 0.36162 0.9767 0.0
N305 N 0.77521 0.36652 0.97998 0.0
N306 N 0.86477 0.29177 0.98572 0.0
C307 C 0.80868 0.26904 0.99207 0.0
C308 C 0.76009 0.30962 0.98845 0.0
C309 C 0.75074 0.7509 0.02831 0.0
C310 C 0.70072 0.76177 0.99218 0.0
C311 C 0.79924 0.79007 0.03028 0.0
C312 C 0.7985 0.84182 0.99702 0.0
H313 H 0.75242 0.71171 0.05498 0.0
H314 H 0.8368 0.78049 0.05901 0.0
S315 S 0.67845 0.88884 0.89391 0.0
N316 N 0.65396 0.82626 0.92103 0.0
N317 N 0.74419 0.90074 0.92541 0.0
C318 C 0.74872 0.85277 0.96037 0.0
C319 C 0.7 0.81247 0.95775 0.0
loop_
_geom_bond_atom_site_label_1
_geom_bond_atom_site_label_2
_geom_bond_distance
_geom_bond_site_symmetry_2
_ccdc_geom_bond_type
C0 C1 1.384 1_455 S
C0 C2 1.384 . S
C0 H28 0.931 . S
C1 C0 1.384 1_655 S
C1 C4 1.382 . S
C2 C0 1.384 . S
C2 C3 1.381 1_455 S
C2 H29 0.930 . S
C3 C2 1.381 1_655 S
C3 C5 1.381 . S
C3 C6 1.487 . S
C4 C1 1.382 . S
C4 C5 1.387 . S
C4 H30 0.930 . S
C5 C3 1.381 . S
C5 C4 1.387 . S
C5 H31 0.931 . S
C6 C3 1.487 . S
C6 C13 1.399 1_655 S
C6 N44 1.343 . S
C7 C8 1.384 1_655 S
C7 C9 1.384 . S
C7 H32 0.931 . S
C8 C7 1.384 1_455 S
C8 C11 1.382 . S
C9 C7 1.384 . S
C9 C10 1.381 1_655 S
C9 H33 0.930 . S
C10 C9 1.381 1_455 S
C10 C12 1.381 . S
C10 C13 1.487 . S
C11 C8 1.382 . S
C11 C12 1.387 . S
C11 H34 0.930 . S
C12 C10 1.381 . S
C12 C11 1.387 . S
C12 H35 0.931 . S
C13 C6 1.399 1_455 S
C13 C10 1.487 . S
C13 N45 1.343 . S
C14 C15 1.384 1_655 S
C14 C16 1.384 . S
C14 H36 0.931 . S
C15 C14 1.384 1_455 S
C15 C18 1.382 . S
C16 C14 1.384 . S
C16 C17 1.381 1_655 S
C16 H37 0.930 . S
C17 C16 1.381 1_455 S
C17 C19 1.381 . S
C17 C20 1.487 . S
C18 C15 1.382 . S
C18 C19 1.387 . S
C18 H38 0.930 . S
C19 C17 1.381 . S
C19 C18 1.387 . S
C19 H39 0.931 . S
C20 C17 1.487 . S
C20 C27 1.399 1_455 S
C20 N45 1.343 . S
C21 C22 1.384 1_455 S
C21 C23 1.384 . S
C21 H40 0.931 . S
C22 C21 1.384 1_655 S
C22 C25 1.382 . S
C23 C21 1.384 . S
C23 C24 1.381 1_455 S
C23 H41 0.930 . S
C24 C23 1.381 1_655 S
C24 C26 1.381 . S
C24 C27 1.487 . S
C25 C22 1.382 . S
C25 C26 1.387 . S
C25 H42 0.930 . S
C26 C24 1.381 . S
C26 C25 1.387 . S
C26 H43 0.931 . S
C27 C20 1.399 1_655 S
C27 C24 1.487 . S
C27 N44 1.343 . S
H28 C0 0.931 . S
H29 C2 0.930 . S
H30 C4 0.930 . S
H31 C5 0.931 . S
H32 C7 0.931 . S
H33 C9 0.930 . S
H34 C11 0.930 . S
H35 C12 0.931 . S
H36 C14 0.931 . S
H37 C16 0.930 . S
H38 C18 0.930 . S
H39 C19 0.931 . S
H40 C21 0.931 . S
H41 C23 0.930 . S
H42 C25 0.930 . S
H43 C26 0.931 . S
N44 C6 1.343 . S
N44 C27 1.343 . S
N45 C13 1.343 . S
N45 C20 1.343 . S
C46 C47 1.384 1_545 S
C46 C48 1.384 . S
C46 H74 0.931 . S
C47 C46 1.384 1_565 S
C47 C50 1.382 . S
C48 C46 1.384 . S
C48 C49 1.381 1_545 S
C48 H75 0.930 . S
C49 C48 1.381 1_565 S
C49 C51 1.381 . S
C49 C52 1.487 . S
C50 C47 1.382 . S
C50 C51 1.387 . S
C50 H76 0.930 . S
C51 C49 1.381 . S
C51 C50 1.387 . S
C51 H77 0.931 . S
C52 C49 1.487 . S
C52 C59 1.399 1_565 S
C52 N90 1.343 . S
C53 C54 1.384 1_565 S
C53 C55 1.384 . S
C53 H78 0.931 . S
C54 C53 1.384 1_545 S
C54 C57 1.382 . S
C55 C53 1.384 . S
C55 C56 1.381 1_565 S
C55 H79 0.930 . S
C56 C55 1.381 1_545 S
C56 C58 1.381 . S
C56 C59 1.487 . S
C57 C54 1.382 . S
C57 C58 1.387 . S
C57 H80 0.930 . S
C58 C56 1.381 . S
C58 C57 1.387 . S
C58 H81 0.931 . S
C59 C52 1.399 1_545 S
C59 C56 1.487 . S
C59 N91 1.343 . S
C60 C61 1.384 1_565 S
C60 C62 1.384 . S
C60 H82 0.931 . S
C61 C60 1.384 1_545 S
C61 C64 1.382 . S
C62 C60 1.384 . S
C62 C63 1.381 1_565 S
C62 H83 0.930 . S
C63 C62 1.381 1_545 S
C63 C65 1.381 . S
C63 C66 1.487 . S
C64 C61 1.382 . S
C64 C65 1.387 . S
C64 H84 0.930 . S
C65 C63 1.381 . S
C65 C64 1.387 . S
C65 H85 0.931 . S
C66 C63 1.487 . S
C66 C73 1.399 1_545 S
C66 N91 1.343 . S
C67 C68 1.384 1_545 S
C67 C69 1.384 . S
C67 H86 0.931 . S
C68 C67 1.384 1_565 S
C68 C71 1.382 . S
C69 C67 1.384 . S
C69 C70 1.381 1_545 S
C69 H87 0.930 . S
C70 C69 1.381 1_565 S
C70 C72 1.381 . S
C70 C73 1.487 . S
C71 C68 1.382 . S
C71 C72 1.387 . S
C71 H88 0.930 . S
C72 C70 1.381 . S
C72 C71 1.387 . S
C72 H89 0.931 . S
C73 C66 1.399 1_565 S
C73 C70 1.487 . S
C73 N90 1.343 . S
H74 C46 0.931 . S
H75 C48 0.930 . S
H76 C50 0.930 . S
H77 C51 0.931 . S
H78 C53 0.931 . S
H79 C55 0.930 . S
H80 C57 0.930 . S
H81 C58 0.931 . S
H82 C60 0.931 . S
H83 C62 0.930 . S
H84 C64 0.930 . S
H85 C65 0.931 . S
H86 C67 0.931 . S
H87 C69 0.930 . S
H88 C71 0.930 . S
H89 C72 0.931 . S
N90 C52 1.343 . S
N90 C73 1.343 . S
N91 C59 1.343 . S
N91 C66 1.343 . S
C92 C93 1.384 1_556 S
C92 C94 1.384 . S
C92 H120 0.931 . S
C93 C92 1.384 1_554 S
C93 C96 1.382 . S
C94 C92 1.384 . S
C94 C95 1.381 1_556 S
C94 H121 0.930 . S
C95 C94 1.381 1_554 S
C95 C97 1.381 . S
C95 C98 1.487 . S
C96 C93 1.382 . S
C96 C97 1.387 . S
C96 H122 0.930 . S
C97 C95 1.381 . S
C97 C96 1.387 . S
C97 H123 0.931 . S
C98 C95 1.487 . S
C98 C105 1.399 1_554 S
C98 N136 1.343 . S
C99 C100 1.384 1_554 S
C99 C101 1.384 . S
C99 H124 0.931 . S
C100 C99 1.384 1_556 S
C100 C103 1.382 . S
C101 C99 1.384 . S
C101 C102 1.381 1_554 S
C101 H125 0.930 . S
C102 C101 1.381 1_556 S
C102 C104 1.381 . S
C102 C105 1.487 . S
C103 C100 1.382 . S
C103 C104 1.387 . S
C103 H126 0.930 . S
C104 C102 1.381 . S
C104 C103 1.387 . S
C104 H127 0.931 . S
C105 C98 1.399 1_556 S
C105 C102 1.487 . S
C105 N137 1.343 . S
C106 C107 1.384 1_554 S
C106 C108 1.384 . S
C106 H128 0.931 . S
C107 C106 1.384 1_556 S
C107 C110 1.382 . S
C108 C106 1.384 . S
C108 C109 1.381 1_554 S
C108 H129 0.930 . S
C109 C108 1.381 1_556 S
C109 C111 1.381 . S
C109 C112 1.487 . S
C110 C107 1.382 . S
C110 C111 1.387 . S
C110 H130 0.930 . S
C111 C109 1.381 . S
C111 C110 1.387 . S
C111 H131 0.931 . S
C112 C109 1.487 . S
C112 C119 1.399 1_556 S
C112 N137 1.343 . S
C113 C114 1.384 1_556 S
C113 C115 1.384 . S
C113 H132 0.931 . S
C114 C113 1.384 1_554 S
C114 C117 1.382 . S
C115 C113 1.384 . S
C115 C116 1.381 1_556 S
C115 H133 0.930 . S
C116 C115 1.381 1_554 S
C116 C118 1.381 . S
C116 C119 1.487 . S
C117 C114 1.382 . S
C117 C118 1.387 . S
C117 H134 0.930 . S
C118 C116 1.381 . S
C118 C117 1.387 . S
C118 H135 0.931 . S
C119 C112 1.399 1_554 S
C119 C116 1.487 . S
C119 N136 1.343 . S
H120 C92 0.931 . S
H121 C94 0.930 . S
H122 C96 0.930 . S
H123 C97 0.931 . S
H124 C99 0.931 . S
H125 C101 0.930 . S
H126 C103 0.930 . S
H127 C104 0.931 . S
H128 C106 0.931 . S
H129 C108 0.930 . S
H130 C110 0.930 . S
H131 C111 0.931 . S
H132 C113 0.931 . S
H133 C115 0.930 . S
H134 C117 0.930 . S
H135 C118 0.931 . S
N136 C98 1.343 . S
N136 C119 1.343 . S
N137 C105 1.343 . S
N137 C112 1.343 . S
C138 O164 1.283 . S
C138 O182 1.283 . S
C139 O165 1.283 . S
C139 O180 1.283 . S
C140 O166 1.283 . S
C140 O183 1.283 . S
C141 O167 1.283 . S
C141 O181 1.283 . S
C142 O168 1.283 . S
C142 O177 1.283 . S
C143 O169 1.283 . S
C143 O179 1.283 . S
C144 O170 1.283 . S
C144 O176 1.283 . S
C145 O171 1.283 . S
C145 O178 1.283 . S
C146 O172 1.283 . S
C146 O187 1.283 . S
C147 O173 1.283 . S
C147 O185 1.283 . S
C148 O174 1.283 . S
C148 O186 1.283 . S
C149 O175 1.283 . S
C149 O184 1.283 . S
Eu150 O151 2.370 . S
Eu150 O152 2.370 1_454 S
Eu150 O155 2.370 1_554 S
Eu150 O156 2.370 1_455 S
Eu150 O164 2.363 1_554 S
Eu150 O165 2.363 . S
Eu150 O178 2.363 1_455 S
Eu150 O179 2.363 . S
O151 Eu150 2.370 . S
O151 Eu153 2.370 . S
O151 Eu158 2.370 . S
O152 Eu150 2.370 1_656 S
O152 Eu154 2.370 1_556 S
O152 Eu157 2.370 1_655 S
Eu153 O151 2.370 . S
Eu153 O155 2.370 1_554 S
Eu153 O159 2.370 1_544 S
Eu153 O160 2.370 1_545 S
Eu153 O168 2.363 1_545 S
Eu153 O169 2.363 . S
Eu153 O184 2.363 1_554 S
Eu153 O185 2.363 . S
Eu154 O152 2.370 1_554 S
Eu154 O156 2.370 . S
Eu154 O161 2.370 1_545 S
Eu154 O162 2.370 1_544 S
Eu154 O170 2.363 1_545 S
Eu154 O171 2.363 . S
Eu154 O186 2.363 1_554 S
Eu154 O187 2.363 . S
O155 Eu150 2.370 1_556 S
O155 Eu153 2.370 1_556 S
O155 Eu157 2.370 . S
O156 Eu150 2.370 1_655 S
O156 Eu154 2.370 . S
O156 Eu158 2.370 1_655 S
Eu157 O152 2.370 1_455 S
Eu157 O155 2.370 . S
Eu157 O159 2.370 1_545 S
Eu157 O162 2.370 1_445 S
Eu157 O174 2.363 1_455 S
Eu157 O175 2.363 . S
Eu157 O182 2.363 . S
Eu157 O183 2.363 1_545 S
Eu158 O151 2.370 . S
Eu158 O156 2.370 1_455 S
Eu158 O160 2.370 1_545 S
Eu158 O161 2.370 1_445 S
Eu158 O172 2.363 1_455 S
Eu158 O173 2.363 . S
Eu158 O180 2.363 . S
Eu158 O181 2.363 1_545 S
O159 Eu153 2.370 1_566 S
O159 Eu157 2.370 1_565 S
O159 Eu163 2.370 1_556 S
O160 Eu153 2.370 1_565 S
O160 Eu158 2.370 1_565 S
O160 Eu163 2.370 . S
O161 Eu154 2.370 1_565 S
O161 Eu158 2.370 1_665 S
O161 Eu163 2.370 1_655 S
O162 Eu154 2.370 1_566 S
O162 Eu157 2.370 1_665 S
O162 Eu163 2.370 1_656 S
Eu163 O159 2.370 1_554 S
Eu163 O160 2.370 . S
Eu163 O161 2.370 1_455 S
Eu163 O162 2.370 1_454 S
Eu163 O166 2.363 1_554 S
Eu163 O167 2.363 . S
Eu163 O176 2.363 1_455 S
Eu163 O177 2.363 . S
O164 C138 1.283 . S
O164 Eu150 2.363 1_556 S
O165 C139 1.283 . S
O165 Eu150 2.363 . S
O166 C140 1.283 . S
O166 Eu163 2.363 1_556 S
O167 C141 1.283 . S
O167 Eu163 2.363 . S
O168 C142 1.283 . S
O168 Eu153 2.363 1_565 S
O169 C143 1.283 . S
O169 Eu153 2.363 . S
O170 C144 1.283 . S
O170 Eu154 2.363 1_565 S
O171 C145 1.283 . S
O171 Eu154 2.363 . S
O172 C146 1.283 . S
O172 Eu158 2.363 1_655 S
O173 C147 1.283 . S
O173 Eu158 2.363 . S
O174 C148 1.283 . S
O174 Eu157 2.363 1_655 S
O175 C149 1.283 . S
O175 Eu157 2.363 . S
O176 C144 1.283 . S
O176 Eu163 2.363 1_655 S
O177 C142 1.283 . S
O177 Eu163 2.363 . S
O178 C145 1.283 . S
O178 Eu150 2.363 1_655 S
O179 C143 1.283 . S
O179 Eu150 2.363 . S
O180 C139 1.283 . S
O180 Eu158 2.363 . S
O181 C141 1.283 . S
O181 Eu158 2.363 1_565 S
O182 C138 1.283 . S
O182 Eu157 2.363 . S
O183 C140 1.283 . S
O183 Eu157 2.363 1_565 S
O184 C149 1.283 . S
O184 Eu153 2.363 1_556 S
O185 C147 1.283 . S
O185 Eu153 2.363 . S
O186 C148 1.283 . S
O186 Eu154 2.363 1_556 S
O187 C146 1.283 . S
O187 Eu154 2.363 . S
C188 C189 1.355 1_655 S
C188 C190 1.419 . S
C188 H192 0.930 . S
C189 C188 1.355 1_455 S
C189 C198 1.443 . S
C190 C188 1.419 . S
C190 C191 1.352 1_655 S
C190 H193 0.929 . S
C191 C190 1.352 1_455 S
C191 C197 1.440 . S
H192 C188 0.930 . S
H193 C190 0.929 . S
S194 N195 1.613 . S
S194 N196 1.610 . S
N195 S194 1.613 . S
N195 C198 1.350 . S
N196 S194 1.610 . S
N196 C197 1.351 . S
C197 C191 1.440 . S
C197 N196 1.351 . S
C197 C198 1.434 . S
C198 C189 1.443 . S
C198 N195 1.350 . S
C198 C197 1.434 . S
C199 C200 1.367 1_545 S
C199 C201 1.419 . S
C199 H203 0.930 . S
C200 C199 1.367 1_565 S
C200 C209 1.431 . S
C201 C199 1.419 . S
C201 C202 1.362 1_545 S
C201 H204 0.929 . S
C202 C201 1.362 1_565 S
C202 C208 1.429 . S
H203 C199 0.930 . S
H204 C201 0.929 . S
S205 N206 1.613 . S
S205 N207 1.610 . S
N206 S205 1.613 . S
N206 C209 1.350 . S
N207 S205 1.610 . S
N207 C208 1.351 . S
C208 C202 1.429 . S
C208 N207 1.351 . S
C208 C209 1.434 . S
C209 C200 1.431 . S
C209 N206 1.350 . S
C209 C208 1.434 . S
C210 C211 1.369 . S
C210 C212 1.419 . S
C210 H214 0.930 . S
C211 C210 1.369 . S
C211 C220 1.429 1_655 S
C212 C210 1.419 . S
C212 C213 1.363 . S
C212 H215 0.929 . S
C213 C212 1.363 . S
C213 C219 1.429 1_655 S
H214 C210 0.930 . S
H215 C212 0.929 . S
S216 N217 1.613 . S
S216 N218 1.610 . S
N217 S216 1.613 . S
N217 C220 1.350 . S
N218 S216 1.610 . S
N218 C219 1.351 . S
C219 C213 1.429 1_455 S
C219 N218 1.351 . S
C219 C220 1.434 . S
C220 C211 1.429 1_455 S
C220 N217 1.350 . S
C220 C219 1.434 . S
C221 C222 1.370 1_545 S
C221 C223 1.419 . S
C221 H225 0.930 . S
C222 C221 1.370 1_565 S
C222 C231 1.428 . S
C223 C221 1.419 . S
C223 C224 1.364 1_545 S
C223 H226 0.929 . S
C224 C223 1.364 1_565 S
C224 C230 1.428 . S
H225 C221 0.930 . S
H226 C223 0.929 . S
S227 N228 1.613 . S
S227 N229 1.610 . S
N228 S227 1.613 . S
N228 C231 1.350 . S
N229 S227 1.610 . S
N229 C230 1.351 . S
C230 C224 1.428 . S
C230 N229 1.351 . S
C230 C231 1.434 . S
C231 C222 1.428 . S
C231 N228 1.350 . S
C231 C230 1.434 . S
C232 C233 1.368 1_655 S
C232 C234 1.419 . S
C232 H236 0.930 . S
C233 C232 1.368 1_455 S
C233 C242 1.429 . S
C234 C232 1.419 . S
C234 C235 1.362 1_655 S
C234 H237 0.929 . S
C235 C234 1.362 1_455 S
C235 C241 1.429 . S
H236 C232 0.930 . S
H237 C234 0.929 . S
S238 N239 1.613 . S
S238 N240 1.610 . S
N239 S238 1.613 . S
N239 C242 1.350 . S
N240 S238 1.610 . S
N240 C241 1.351 . S
C241 C235 1.429 . S
C241 N240 1.351 . S
C241 C242 1.434 . S
C242 C233 1.429 . S
C242 N239 1.350 . S
C242 C241 1.434 . S
C243 C244 1.361 1_545 S
C243 C245 1.419 . S
C243 H247 0.930 . S
C244 C243 1.361 1_565 S
C244 C253 1.437 . S
C245 C243 1.419 . S
C245 C246 1.358 1_545 S
C245 H248 0.929 . S
C246 C245 1.358 1_565 S
C246 C252 1.433 . S
H247 C243 0.930 . S
H248 C245 0.929 . S
S249 N250 1.613 . S
S249 N251 1.610 . S
N250 S249 1.613 . S
N250 C253 1.350 . S
N251 S249 1.610 . S
N251 C252 1.351 . S
C252 C246 1.433 . S
C252 N251 1.351 . S
C252 C253 1.434 . S
C253 C244 1.437 . S
C253 N250 1.350 . S
C253 C252 1.434 . S
C254 C255 1.356 1_655 S
C254 C256 1.419 . S
C254 H258 0.930 . S
C255 C254 1.356 1_455 S
C255 C264 1.442 . S
C256 C254 1.419 . S
C256 C257 1.353 1_655 S
C256 H259 0.929 . S
C257 C256 1.353 1_455 S
C257 C263 1.439 . S
H258 C254 0.930 . S
H259 C256 0.929 . S
S260 N261 1.613 . S
S260 N262 1.610 . S
N261 S260 1.613 . S
N261 C264 1.350 . S
N262 S260 1.610 . S
N262 C263 1.351 . S
C263 C257 1.439 . S
C263 N262 1.351 . S
C263 C264 1.434 . S
C264 C255 1.442 . S
C264 N261 1.350 . S
C264 C263 1.434 . S
C265 C266 1.366 1_565 S
C265 C267 1.419 . S
C265 H269 0.930 . S
C266 C265 1.366 1_545 S
C266 C275 1.432 . S
C267 C265 1.419 . S
C267 C268 1.361 1_565 S
C267 H270 0.929 . S
C268 C267 1.361 1_545 S
C268 C274 1.430 . S
H269 C265 0.930 . S
H270 C267 0.929 . S
S271 N272 1.613 . S
S271 N273 1.610 . S
N272 S271 1.613 . S
N272 C275 1.350 . S
N273 S271 1.610 . S
N273 C274 1.351 . S
C274 C268 1.430 . S
C274 N273 1.351 . S
C274 C275 1.434 . S
C275 C266 1.432 . S
C275 N272 1.350 . S
C275 C274 1.434 . S
C276 C277 1.360 1_556 S
C276 C278 1.419 . S
C276 H280 0.930 . S
C277 C276 1.360 1_554 S
C277 C286 1.438 . S
C278 C276 1.419 . S
C278 C279 1.356 1_556 S
C278 H281 0.929 . S
C279 C278 1.356 1_554 S
C279 C285 1.435 . S
H280 C276 0.930 . S
H281 C278 0.929 . S
S282 N283 1.613 . S
S282 N284 1.610 . S
N283 S282 1.613 . S
N283 C286 1.350 . S
N284 S282 1.610 . S
N284 C285 1.351 . S
C285 C279 1.435 . S
C285 N284 1.351 . S
C285 C286 1.434 . S
C286 C277 1.438 . S
C286 N283 1.350 . S
C286 C285 1.434 . S
C287 C288 1.360 1_554 S
C287 C289 1.419 . S
C287 H291 0.930 . S
C288 C287 1.360 1_556 S
C288 C297 1.438 . S
C289 C287 1.419 . S
C289 C290 1.356 1_554 S
C289 H292 0.929 . S
C290 C289 1.356 1_556 S
C290 C296 1.435 . S
H291 C287 0.930 . S
H292 C289 0.929 . S
S293 N294 1.613 . S
S293 N295 1.610 . S
N294 S293 1.613 . S
N294 C297 1.350 . S
N295 S293 1.610 . S
N295 C296 1.351 . S
C296 C290 1.435 . S
C296 N295 1.351 . S
C296 C297 1.434 . S
C297 C288 1.438 . S
C297 N294 1.350 . S
C297 C296 1.434 . S
C298 C299 1.366 1_554 S
C298 C300 1.419 . S
C298 H302 0.930 . S
C299 C298 1.366 1_556 S
C299 C308 1.432 . S
C300 C298 1.419 . S
C300 C301 1.361 1_554 S
C300 H303 0.929 . S
C301 C300 1.361 1_556 S
C301 C307 1.430 . S
H302 C298 0.930 . S
H303 C300 0.929 . S
S304 N305 1.613 . S
S304 N306 1.610 . S
N305 S304 1.613 . S
N305 C308 1.350 . S
N306 S304 1.610 . S
N306 C307 1.351 . S
C307 C301 1.430 . S
C307 N306 1.351 . S
C307 C308 1.434 . S
C308 C299 1.432 . S
C308 N305 1.350 . S
C308 C307 1.434 . S
C309 C310 1.359 1_554 S
C309 C311 1.419 . S
C309 H313 0.930 . S
C310 C309 1.359 1_556 S
C310 C319 1.439 . S
C311 C309 1.419 . S
C311 C312 1.356 1_554 S
C311 H314 0.929 . S
C312 C311 1.356 1_556 S
C312 C318 1.436 . S
H313 C309 0.930 . S
H314 C311 0.929 . S
S315 N316 1.613 . S
S315 N317 1.610 . S
N316 S315 1.613 . S
N316 C319 1.350 . S
N317 S315 1.610 . S
N317 C318 1.351 . S
C318 C312 1.436 . S
C318 N317 1.351 . S
C318 C319 1.434 . S
C319 C310 1.439 . S
C319 N316 1.350 . S
C319 C318 1.434 . S
C191 C139 1.739 . S
C189 C15 1.729 . S
C202 C146 1.360 1_565 S
C200 C68 1.356 . S
C213 C141 1.738 1_655 S
C211 C8 1.733 1_655 S
C224 C147 1.360 1_565 S
C222 C61 1.354 1_565 S
C233 C1 1.730 1_455 S
C235 C140 1.742 . S
C246 C149 1.360 1_565 S
C244 C54 1.355 1_565 S
C255 C22 1.732 1_455 S
C257 C138 1.739 . S
C266 C47 1.356 1_545 S
C268 C148 1.363 . S
C277 C93 1.527 . S
C279 C143 1.528 . S
C288 C114 1.528 1_556 S
C290 C142 1.530 1_556 S
C301 C145 1.531 1_556 S
C299 C100 1.527 . S
C312 C144 1.531 1_556 S
C310 C107 1.529 . S
