# Generated by pormake.
# Topology zzz, (3,6)-cn, num edge types: 1
# Building blocks:
#     Node 0, Type 0, BuildingBlock: MIDCAF_clean_linker_0, # of connection points: 3
#     Node 1, Type 0, BuildingBlock: MIDCAF_clean_linker_0, # of connection points: 3
#     Node 2, Type 0, BuildingBlock: MIDCAF_clean_linker_0, # of connection points: 3
#     Node 3, Type 0, BuildingBlock: MIDCAF_clean_linker_0, # of connection points: 3
#     Node 4, Type 0, BuildingBlock: MIDCAF_clean_linker_0, # of connection points: 3
#     Node 5, Type 0, BuildingBlock: MIDCAF_clean_linker_0, # of connection points: 3
#     Node 6, Type 0, BuildingBlock: MIDCAF_clean_linker_0, # of connection points: 3
#     Node 7, Type 0, BuildingBlock: MIDCAF_clean_linker_0, # of connection points: 3
#     Node 8, Type 1, BuildingBlock: KUMBUR_clean_sbu_1, # of connection points: 6
#     Node 9, Type 1, BuildingBlock: KUMBUR_clean_sbu_1, # of connection points: 6
#     Node 10, Type 1, BuildingBlock: KUMBUR_clean_sbu_1, # of connection points: 6
#     Node 11, Type 1, BuildingBlock: KUMBUR_clean_sbu_1, # of connection points: 6
#     Edge 12, Type (0, 1), BuildingBlock: XIVTED_clean_linker_0, # of connection points: 2
#     Edge 13, Type (0, 1), BuildingBlock: XIVTED_clean_linker_0, # of connection points: 2
#     Edge 14, Type (0, 1), BuildingBlock: XIVTED_clean_linker_0, # of connection points: 2
#     Edge 15, Type (0, 1), BuildingBlock: XIVTED_clean_linker_0, # of connection points: 2
#     Edge 16, Type (0, 1), BuildingBlock: XIVTED_clean_linker_0, # of connection points: 2
#     Edge 17, Type (0, 1), BuildingBlock: XIVTED_clean_linker_0, # of connection points: 2
#     Edge 18, Type (0, 1), BuildingBlock: XIVTED_clean_linker_0, # of connection points: 2
#     Edge 19, Type (0, 1), BuildingBlock: XIVTED_clean_linker_0, # of connection points: 2
#     Edge 20, Type (0, 1), BuildingBlock: XIVTED_clean_linker_0, # of connection points: 2
#     Edge 21, Type (0, 1), BuildingBlock: XIVTED_clean_linker_0, # of connection points: 2
#     Edge 22, Type (0, 1), BuildingBlock: XIVTED_clean_linker_0, # of connection points: 2
#     Edge 23, Type (0, 1), BuildingBlock: XIVTED_clean_linker_0, # of connection points: 2
#     Edge 24, Type (0, 1), BuildingBlock: XIVTED_clean_linker_0, # of connection points: 2
#     Edge 25, Type (0, 1), BuildingBlock: XIVTED_clean_linker_0, # of connection points: 2
#     Edge 26, Type (0, 1), BuildingBlock: XIVTED_clean_linker_0, # of connection points: 2
#     Edge 27, Type (0, 1), BuildingBlock: XIVTED_clean_linker_0, # of connection points: 2
#     Edge 28, Type (0, 1), BuildingBlock: XIVTED_clean_linker_0, # of connection points: 2
#     Edge 29, Type (0, 1), BuildingBlock: XIVTED_clean_linker_0, # of connection points: 2
#     Edge 30, Type (0, 1), BuildingBlock: XIVTED_clean_linker_0, # of connection points: 2
#     Edge 31, Type (0, 1), BuildingBlock: XIVTED_clean_linker_0, # of connection points: 2
#     Edge 32, Type (0, 1), BuildingBlock: XIVTED_clean_linker_0, # of connection points: 2
#     Edge 33, Type (0, 1), BuildingBlock: XIVTED_clean_linker_0, # of connection points: 2
#     Edge 34, Type (0, 1), BuildingBlock: XIVTED_clean_linker_0, # of connection points: 2
#     Edge 35, Type (0, 1), BuildingBlock: XIVTED_clean_linker_0, # of connection points: 2
# Relax obj value: 0.315
# Max RMSD: 0.210
# Mean RMSD: 0.182
data_MOF--net-zzz--node1-KUMBUR_clean_sbu_1--node2-MIDCAF_clean_linker_0--edge1-XIVTED_clean_linker_0
_symmetry_space_group_name_H-M    P1
_symmetry_Int_Tables_number       1
_symmetry_cell_setting            triclinic
loop_
_symmetry_equiv_pos_as_xyz
'x, y, z'
_cell_length_a     56.661135
_cell_length_b     56.744372
_cell_length_c     21.11622
_cell_angle_alpha  90.061886
_cell_angle_beta   90.005993
_cell_angle_gamma 90.484238
loop_
_atom_site_label
_atom_site_type_symbol
_atom_site_fract_x
_atom_site_fract_y
_atom_site_fract_z
_atom_type_partial_charge
C0 C 0.79655 0.55759 0.41685 0.0
C1 C 0.80721 0.53539 0.42288 0.0
C2 C 0.79574 0.51593 0.39396 0.0
C3 C 0.77554 0.51904 0.35554 0.0
H4 H 0.69816 0.50484 0.19458 0.0
H5 H 0.66385 0.49829 0.12562 0.0
H6 H 0.65514 0.5737 0.10989 0.0
H7 H 0.68808 0.57974 0.1808 0.0
H8 H 0.74341 0.58091 0.06942 0.0
H9 H 0.77006 0.58352 0.97957 0.0
H10 H 0.82977 0.57785 0.10571 0.0
H11 H 0.80339 0.57605 0.19556 0.0
H12 H 0.77 0.57833 0.37178 0.0
H13 H 0.80442 0.57298 0.439 0.0
H14 H 0.80333 0.49853 0.3972 0.0
H15 H 0.76868 0.50416 0.32894 0.0
N16 N 0.73011 0.54066 0.27258 0.0
N17 N 0.73352 0.56084 0.17524 0.0
N18 N 0.76545 0.56024 0.24426 0.0
C19 C 0.72028 0.54794 0.21609 0.0
C20 C 0.75602 0.567 0.18868 0.0
C21 C 0.75301 0.54735 0.28667 0.0
C22 C 0.6956 0.54281 0.19475 0.0
C23 C 0.68807 0.51988 0.17891 0.0
C24 C 0.66867 0.51623 0.1377 0.0
C25 C 0.65647 0.53542 0.11039 0.0
C26 C 0.66337 0.55824 0.12973 0.0
C27 C 0.68242 0.5618 0.17113 0.0
C28 C 0.7713 0.57718 0.13922 0.0
C29 C 0.76224 0.58125 0.07833 0.0
C30 C 0.77749 0.58284 0.02682 0.0
C31 C 0.80187 0.58006 0.03563 0.0
C32 C 0.81104 0.57989 0.09737 0.0
C33 C 0.79581 0.57855 0.14897 0.0
C34 C 0.76603 0.5416 0.34606 0.0
C35 C 0.77636 0.56059 0.37934 0.0
C36 C 0.97309 0.80084 0.41561 0.0
C37 C 0.99491 0.81293 0.41623 0.0
C38 C 0.01384 0.8027 0.3826 0.0
C39 C 0.01044 0.78219 0.34553 0.0
H40 H 0.96064 0.68158 0.22664 0.0
H41 H 0.96589 0.64775 0.15681 0.0
H42 H 0.02749 0.68158 0.07572 0.0
H43 H 0.0225 0.71471 0.14776 0.0
H44 H 0.95875 0.74711 0.0633 0.0
H45 H 0.9568 0.77694 0.98242 0.0
H46 H 0.93288 0.82756 0.121 0.0
H47 H 0.93583 0.79773 0.20316 0.0
H48 H 0.95215 0.77296 0.37555 0.0
H49 H 0.95816 0.80758 0.44174 0.0
H50 H 0.03092 0.81137 0.38135 0.0
H51 H 0.02474 0.7761 0.31586 0.0
N52 N 0.99042 0.73496 0.27119 0.0
N53 N 0.96821 0.73479 0.17662 0.0
N54 N 0.96634 0.7671 0.24435 0.0
C55 C 0.98314 0.72373 0.21659 0.0
C56 C 0.95976 0.7564 0.18996 0.0
C57 C 0.98142 0.7568 0.28536 0.0
C58 C 0.99172 0.70043 0.19483 0.0
C59 C 0.97605 0.6811 0.1963 0.0
C60 C 0.97873 0.66195 0.15464 0.0
C61 C 0.99695 0.66171 0.10907 0.0
C62 C 0.01339 0.68059 0.11018 0.0
C63 C 0.01076 0.69963 0.15229 0.0
C64 C 0.94849 0.77042 0.14001 0.0
C65 C 0.95209 0.76429 0.07632 0.0
C66 C 0.95081 0.78148 0.02955 0.0
C67 C 0.94557 0.80487 0.04588 0.0
C68 C 0.93776 0.80982 0.10758 0.0
C69 C 0.93937 0.79271 0.15458 0.0
C70 C 0.9881 0.77129 0.34158 0.0
C71 C 0.96974 0.78052 0.37872 0.0
C72 C 0.73114 0.97894 0.42404 0.0
C73 C 0.72018 1.00091 0.43091 0.0
C74 C 0.73013 0.02046 0.39936 0.0
C75 C 0.74967 0.0178 0.35878 0.0
H76 H 0.83316 0.02787 0.21425 0.0
H77 H 0.8684 0.03258 0.14757 0.0
H78 H 0.86316 0.95907 0.09469 0.0
H79 H 0.82944 0.95442 0.16344 0.0
H80 H 0.77629 0.96903 0.05804 0.0
H81 H 0.74869 0.96094 0.97207 0.0
H82 H 0.69113 0.9595 0.10628 0.0
H83 H 0.71844 0.9673 0.19205 0.0
H84 H 0.75691 0.95865 0.37368 0.0
H85 H 0.72364 0.96348 0.44668 0.0
H86 H 0.72192 0.03757 0.40325 0.0
H87 H 0.75554 0.03279 0.33102 0.0
N88 N 0.79495 0.99433 0.27423 0.0
N89 N 0.78863 0.98021 0.1705 0.0
N90 N 0.75705 0.98208 0.24059 0.0
C91 C 0.80357 0.98871 0.21514 0.0
C92 C 0.76551 0.97692 0.18253 0.0
C93 C 0.77132 0.99066 0.28671 0.0
C94 C 0.82874 0.99066 0.19535 0.0
C95 C 0.84039 0.01255 0.19087 0.0
C96 C 0.86029 0.0153 0.15112 0.0
C97 C 0.8688 0.9963 0.11424 0.0
C98 C 0.85781 0.97416 0.12237 0.0
C99 C 0.83831 0.97141 0.16235 0.0
C100 C 0.74949 0.96904 0.13182 0.0
C101 C 0.7578 0.96649 0.06941 0.0
C102 C 0.74209 0.96181 0.02016 0.0
C103 C 0.7179 0.9594 0.03267 0.0
C104 C 0.70979 0.96073 0.09543 0.0
C105 C 0.72543 0.9655 0.14455 0.0
C106 C 0.75961 0.99551 0.34831 0.0
C107 C 0.75046 0.97625 0.38286 0.0
C108 C 0.58757 0.72137 0.11523 0.0
C109 C 0.58063 0.72566 0.05248 0.0
C110 C 0.57574 0.74888 0.03378 0.0
C111 C 0.57417 0.76667 0.07895 0.0
H112 H 0.57442 0.84663 0.19126 0.0
H113 H 0.56791 0.87977 0.12072 0.0
H114 H 0.49397 0.86106 0.10924 0.0
H115 H 0.50093 0.82731 0.1793 0.0
H116 H 0.50066 0.75663 0.30669 0.0
H117 H 0.49444 0.72174 0.373 0.0
H118 H 0.56418 0.73117 0.45217 0.0
H119 H 0.5703 0.76548 0.38484 0.0
H120 H 0.58866 0.73465 0.2098 0.0
H121 H 0.59207 0.70375 0.13051 0.0
H122 H 0.57035 0.75285 0.98578 0.0
H123 H 0.56786 0.78375 0.06401 0.0
N124 N 0.5591 0.79837 0.17659 0.0
N125 N 0.53601 0.80025 0.26947 0.0
N126 N 0.55823 0.76644 0.24566 0.0
C127 C 0.54449 0.81064 0.21495 0.0
C128 C 0.54348 0.77795 0.28513 0.0
C129 C 0.56598 0.77634 0.19138 0.0
C130 C 0.53809 0.83464 0.19249 0.0
C131 C 0.55655 0.8502 0.1759 0.0
C132 C 0.5528 0.86922 0.1348 0.0
C133 C 0.53041 0.87327 0.10821 0.0
C134 C 0.51157 0.85845 0.12777 0.0
C135 C 0.51538 0.83936 0.16926 0.0
C136 C 0.5357 0.76439 0.3418 0.0
C137 C 0.51413 0.75193 0.34072 0.0
C138 C 0.51075 0.73162 0.37831 0.0
C139 C 0.52896 0.72305 0.41759 0.0
C140 C 0.54985 0.73664 0.4218 0.0
C141 C 0.55318 0.75682 0.3843 0.0
C142 C 0.57714 0.76133 0.14334 0.0
C143 C 0.58568 0.73908 0.16056 0.0
C144 C 0.22554 0.47298 0.89561 0.0
C145 C 0.21738 0.49588 0.88469 0.0
C146 C 0.23065 0.51498 0.90905 0.0
C147 C 0.25062 0.51107 0.94773 0.0
H148 H 0.32442 0.52648 0.11646 0.0
H149 H 0.35877 0.53309 0.18496 0.0
H150 H 0.37174 0.45809 0.18551 0.0
H151 H 0.3386 0.45211 0.11502 0.0
H152 H 0.28137 0.45714 0.24484 0.0
H153 H 0.25379 0.45741 0.33292 0.0
H154 H 0.19556 0.45174 0.20134 0.0
H155 H 0.22292 0.4507 0.11391 0.0
H156 H 0.25014 0.45109 0.94436 0.0
H157 H 0.21566 0.45792 0.87789 0.0
H158 H 0.22461 0.53284 0.90192 0.0
H159 H 0.25908 0.52595 0.97082 0.0
N160 N 0.29417 0.4897 0.03305 0.0
N161 N 0.29173 0.4707 0.13232 0.0
N162 N 0.25929 0.47014 0.065 0.0
C163 C 0.30448 0.48315 0.08943 0.0
C164 C 0.2692 0.4642 0.12074 0.0
C165 C 0.27129 0.48263 0.02077 0.0
C166 C 0.32915 0.48885 0.10857 0.0
C167 C 0.33549 0.51168 0.12851 0.0
C168 C 0.35488 0.5153 0.16948 0.0
C169 C 0.36823 0.49613 0.19248 0.0
C170 C 0.36255 0.47353 0.16894 0.0
C171 C 0.34345 0.47002 0.12772 0.0
C172 C 0.25422 0.45507 0.17232 0.0
C173 C 0.26274 0.45491 0.23483 0.0
C174 C 0.24695 0.45507 0.28539 0.0
C175 C 0.22254 0.45553 0.27387 0.0
C176 C 0.21426 0.45164 0.21199 0.0
C177 C 0.23002 0.45131 0.16153 0.0
C178 C 0.25781 0.48797 0.96194 0.0
C179 C 0.24551 0.46911 0.93314 0.0
C180 C 0.04695 0.23693 0.87652 0.0
C181 C 0.02622 0.22315 0.88085 0.0
C182 C 0.00822 0.23109 0.92169 0.0
C183 C 0.01162 0.25101 0.96057 0.0
H184 H 1.0004 0.32871 0.11862 0.0
H185 H 0.99488 0.36233 0.19072 0.0
H186 H 0.07041 0.37266 0.1984 0.0
H187 H 0.07568 0.33923 0.12787 0.0
H188 H 0.06316 0.27656 0.24283 0.0
H189 H 0.06674 0.24526 0.31952 0.0
H190 H 0.08518 0.19654 0.17019 0.0
H191 H 0.0807 0.22786 0.09267 0.0
H192 H 0.06747 0.26542 0.91562 0.0
H193 H 0.06137 0.2314 0.84647 0.0
H194 H 0.99186 0.22122 0.92599 0.0
H195 H 0.99831 0.25518 0.99557 0.0
N196 N 0.03499 0.2984 0.03565 0.0
N197 N 0.05576 0.29319 0.13144 0.0
N198 N 0.05383 0.26251 0.05835 0.0
C199 C 0.04301 0.30722 0.09263 0.0
C200 C 0.06117 0.27089 0.11482 0.0
C201 C 0.04097 0.27581 0.01835 0.0
C202 C 0.03847 0.33151 0.11648 0.0
C203 C 0.01569 0.33885 0.13364 0.0
C204 C 0.01259 0.358 0.17566 0.0
C205 C 0.03222 0.37007 0.20191 0.0
C206 C 0.05483 0.36361 0.1808 0.0
C207 C 0.05787 0.34464 0.13918 0.0
C208 C 0.07098 0.25449 0.16159 0.0
C209 C 0.0688 0.25941 0.22644 0.0
C210 C 0.07101 0.24139 0.27064 0.0
C211 C 0.07574 0.21825 0.25073 0.0
C212 C 0.08093 0.21408 0.18669 0.0
C213 C 0.07845 0.23204 0.14237 0.0
C214 C 0.03305 0.26366 0.95964 0.0
C215 C 0.05035 0.25676 0.91564 0.0
C216 C 0.30151 0.01773 0.94632 0.0
C217 C 0.30791 0.03315 0.89661 0.0
C218 C 0.29209 0.05139 0.88158 0.0
C219 C 0.27171 0.05519 0.91798 0.0
H220 H 0.19993 0.00905 0.1197 0.0
H221 H 0.16633 1.00166 0.19051 0.0
H222 H 0.15028 0.07606 0.18718 0.0
H223 H 0.18228 0.08267 0.11422 0.0
H224 H 0.23573 0.09121 0.22452 0.0
H225 H 0.26136 0.09188 0.31648 0.0
H226 H 0.32242 0.09318 0.19466 0.0
H227 H 0.29702 0.09171 0.1021 0.0
H228 H 0.27783 0.0106 0.02379 0.0
H229 H 0.31315 1.00364 0.96036 0.0
H230 H 0.29589 0.06345 0.84315 0.0
H231 H 0.26115 0.07061 0.90835 0.0
N232 N 0.22911 0.04275 0.03692 0.0
N233 N 0.22864 0.07002 0.121 0.0
N234 N 0.26203 0.06738 0.05761 0.0
C235 C 0.21747 0.05316 0.08672 0.0
C236 C 0.25082 0.07713 0.10753 0.0
C237 C 0.25148 0.05055 0.0216 0.0
C238 C 0.19353 0.04637 0.11001 0.0
C239 C 0.18836 0.02348 0.13164 0.0
C240 C 0.16938 0.01944 0.17385 0.0
C241 C 0.15532 0.03825 0.19621 0.0
C242 C 0.15995 0.06082 0.17118 0.0
C243 C 0.17849 0.06471 0.12867 0.0
C244 C 0.26445 0.09001 0.15616 0.0
C245 C 0.25458 0.09283 0.21687 0.0
C246 C 0.26918 0.09341 0.26982 0.0
C247 C 0.29364 0.09202 0.2621 0.0
C248 C 0.30349 0.09419 0.20141 0.0
C249 C 0.2889 0.09317 0.14836 0.0
C250 C 0.26615 0.04066 0.96984 0.0
C251 C 0.28099 0.0215 0.9825 0.0
C252 C 0.4596 0.31506 0.20856 0.0
C253 C 0.45304 0.3058 0.26775 0.0
C254 C 0.44955 0.28138 0.27406 0.0
C255 C 0.45455 0.26636 0.22368 0.0
H256 H 0.45273 0.19317 0.12437 0.0
H257 H 0.45737 0.15988 0.19563 0.0
H258 H 0.53293 0.16409 0.17246 0.0
H259 H 0.52813 0.19799 0.10091 0.0
H260 H 0.52989 0.26947 0.96012 0.0
H261 H 0.5345 0.30323 0.88946 0.0
H262 H 0.45847 0.30691 0.87195 0.0
H263 H 0.45458 0.27237 0.93717 0.0
H264 H 0.47058 0.30783 0.11428 0.0
H265 H 0.46289 0.33374 0.20219 0.0
H266 H 0.4442 0.27381 0.31892 0.0
H267 H 0.45289 0.24752 0.2308 0.0
N268 N 0.4765 0.23717 0.12916 0.0
N269 N 0.49274 0.23211 0.02707 0.0
N270 N 0.47768 0.26881 0.05944 0.0
C271 C 0.48674 0.22301 0.08557 0.0
C272 C 0.48784 0.2554 0.01431 0.0
C273 C 0.47202 0.25998 0.1166 0.0
C274 C 0.49001 0.19805 0.10569 0.0
C275 C 0.47032 0.18638 0.13214 0.0
C276 C 0.47302 0.1675 0.17414 0.0
C277 C 0.49555 0.15947 0.19116 0.0
C278 C 0.51528 0.16976 0.16057 0.0
C279 C 0.51255 0.18901 0.11871 0.0
C280 C 0.49191 0.26765 0.95292 0.0
C281 C 0.51436 0.27669 0.93768 0.0
C282 C 0.51684 0.29676 0.89858 0.0
C283 C 0.49688 0.30889 0.87506 0.0
C284 C 0.47456 0.29858 0.88721 0.0
C285 C 0.47221 0.2783 0.92469 0.0
C286 C 0.46284 0.2756 0.1661 0.0
C287 C 0.4643 0.30012 0.15813 0.0
Tb288 Tb 0.98539 0.02856 0.60291 0.0
C289 C 0.07576 0.04451 0.74838 0.0
N290 N 0.07123 0.02928 0.70003 0.0
C291 C 0.10785 0.04052 0.6507 0.0
C292 C 0.09603 0.05907 0.74842 0.0
C293 C 0.0877 0.02616 0.65351 0.0
C294 C 0.11184 0.05735 0.6978 0.0
C295 C 0.06547 0.05867 0.85317 0.0
C296 C 0.06085 0.04429 0.80019 0.0
C297 C 0.0851 0.07393 0.85241 0.0
C298 C 0.10035 0.07413 0.80011 0.0
Tb299 Tb 0.03757 1.00684 0.71068 0.0
N300 N 0.04195 0.02947 0.79898 0.0
C301 C 0.05051 0.05685 0.90579 0.0
C302 C 0.02812 0.02656 0.85146 0.0
C303 C 0.03193 0.04048 0.90521 0.0
H304 H 0.086 0.01203 0.61975 0.0
H305 H 0.02064 0.03849 0.94621 0.0
H306 H 0.93908 0.01333 0.68977 0.0
H307 H 0.00765 0.01098 0.35754 0.0
H308 H 0.01412 0.01357 0.85172 0.0
H309 H 0.05347 0.06758 0.94754 0.0
H310 H 0.01097 0.03178 0.45866 0.0
H311 H 0.12058 0.03817 0.61306 0.0
H312 H 0.08892 0.08524 0.89253 0.0
H313 H 0.11579 0.08553 0.80085 0.0
H314 H 0.9041 0.98783 0.67885 0.0
H315 H 0.12767 0.06817 0.69611 0.0
H316 H 0.97578 0.98158 0.34118 0.0
N317 N 0.95332 1.00426 0.59974 0.0
C318 C 0.94925 0.99334 0.54351 0.0
C319 C 0.91684 0.9889 0.64077 0.0
C320 C 0.92919 0.97884 0.53469 0.0
C321 C 0.93703 1.00302 0.6473 0.0
C322 C 0.91301 0.97656 0.58444 0.0
N323 N 0.98383 0.01183 0.5042 0.0
C324 C 0.99824 0.01775 0.4547 0.0
C325 C 0.96187 0.98538 0.43605 0.0
C326 C 0.96536 0.99671 0.4948 0.0
C327 C 0.9778 0.98998 0.38697 0.0
C328 C 0.99588 1.00647 0.39613 0.0
H329 H 0.89732 0.96567 0.57944 0.0
H330 H 0.91067 0.9559 0.46903 0.0
H331 H 0.93935 0.9615 0.38276 0.0
O332 O 0.96719 0.04886 0.53626 0.0
O333 O 0.98835 0.98998 0.62072 0.0
O334 O 0.02814 0.98402 0.63053 0.0
O335 O 0.96106 0.05341 0.63612 0.0
O336 O 0.0212 0.0365 0.56574 0.0
O337 O 0.04466 1.00723 0.60789 0.0
O338 O 0.03467 0.97951 0.77624 0.0
O339 O 0.02156 0.04155 0.72754 0.0
O340 O 0.0126 0.05483 0.62897 0.0
O341 O 0.06813 0.98771 0.73351 0.0
O342 O 1.0015 0.99692 0.74017 0.0
O343 O 0.97923 0.02804 0.70556 0.0
C344 C 0.00702 0.9764 0.61434 0.0
C345 C 0.95952 0.08712 0.57315 0.0
C346 C 0.981 0.12139 0.53431 0.0
C347 C 0.96442 0.13611 0.56353 0.0
C348 C 0.94301 0.10193 0.60189 0.0
C349 C 0.94552 0.12636 0.59722 0.0
C350 C 0.97862 0.09692 0.53997 0.0
C351 C 0.0402 0.02313 0.56395 0.0
C352 C 0.95709 0.06156 0.57966 0.0
C353 C 0.9259 0.96722 0.47663 0.0
C354 C 0.94227 0.97038 0.42756 0.0
C355 C 0.01883 0.05907 0.6878 0.0
C356 C 0.05913 0.94763 0.75527 0.0
C357 C 0.04619 0.90765 0.77865 0.0
C358 C 0.06043 0.89916 0.72944 0.0
C359 C 0.07356 0.93905 0.70641 0.0
C360 C 0.04581 0.93181 0.79135 0.0
C361 C 0.07421 0.91485 0.69383 0.0
C362 C 0.98331 0.01105 0.74636 0.0
C363 C 0.05635 0.97287 0.76826 0.0
H364 H 0.9658 0.15509 0.5592 0.0
H365 H 0.92825 0.09458 0.62811 0.0
H366 H 0.9327 0.13776 0.61933 0.0
H367 H 0.99172 0.08554 0.51868 0.0
H368 H 0.06101 0.88049 0.7189 0.0
H369 H 0.08398 0.95095 0.67749 0.0
H370 H 0.03436 0.93852 0.82833 0.0
H371 H 0.08523 0.90826 0.65601 0.0
Tb372 Tb 0.52349 0.04678 0.7038 0.0
C373 C 0.52271 0.94034 0.59343 0.0
N374 N 0.52818 0.96176 0.56866 0.0
C375 C 0.56086 0.94468 0.51316 0.0
C376 C 0.53664 0.92038 0.58119 0.0
C377 C 0.54605 0.96375 0.52554 0.0
C378 C 0.55642 0.92298 0.54217 0.0
C379 C 0.49351 0.91568 0.64532 0.0
C380 C 0.50157 0.93797 0.62483 0.0
C381 C 0.50798 0.89595 0.63711 0.0
C382 C 0.52956 0.8983 0.60509 0.0
Tb383 Tb 0.50335 0.99209 0.59457 0.0
N384 N 0.48792 0.9573 0.63012 0.0
C385 C 0.47072 0.91378 0.67055 0.0
C386 C 0.46503 0.95519 0.64971 0.0
C387 C 0.45625 0.93358 0.67162 0.0
H388 H 0.5485 0.97979 0.49911 0.0
H389 H 0.43822 0.93213 0.6882 0.0
H390 H 0.47888 0.07249 0.77965 0.0
H391 H 0.58967 0.08196 0.54229 0.0
H392 H 0.45329 0.97 0.64726 0.0
H393 H 0.4638 0.89697 0.68666 0.0
H394 H 0.57305 0.05295 0.61493 0.0
H395 H 0.57532 0.94657 0.48001 0.0
H396 H 0.50224 0.87868 0.65304 0.0
H397 H 0.54012 0.88278 0.59667 0.0
H398 H 0.46091 0.11158 0.78327 0.0
H399 H 0.56758 0.90809 0.53142 0.0
H400 H 0.57081 0.1208 0.53098 0.0
N401 N 0.50329 0.08135 0.7061 0.0
C402 C 0.51249 0.09892 0.6699 0.0
C403 C 0.47515 0.10818 0.75043 0.0
C404 C 0.50279 0.12176 0.67127 0.0
C405 C 0.48523 0.08584 0.74734 0.0
C406 C 0.48384 0.12619 0.71189 0.0
N407 N 0.54232 0.07255 0.63652 0.0
C408 C 0.56323 0.06853 0.60645 0.0
C409 C 0.54233 0.11234 0.59557 0.0
C410 C 0.53231 0.0943 0.63321 0.0
C411 C 0.56266 0.10747 0.56069 0.0
C412 C 0.57328 0.08554 0.56669 0.0
H413 H 0.47612 0.14356 0.71483 0.0
H414 H 0.50544 0.15722 0.63394 0.0
H415 H 0.5398 0.14889 0.56689 0.0
O416 O 0.54948 0.06695 0.74996 0.0
O417 O 0.50164 0.05184 0.61812 0.0
O418 O 0.51749 0.0246 0.55251 0.0
O419 O 0.51884 0.05412 0.80012 0.0
O420 O 0.55231 0.0225 0.67554 0.0
O421 O 0.53847 0.0079 0.58099 0.0
O422 O 0.47324 1.0045 0.54787 0.0
O423 O 0.50745 0.98231 0.69413 0.0
O424 O 0.52724 0.01209 0.75 0.0
O425 O 0.4942 0.97535 0.50927 0.0
O426 O 0.47532 1.00627 0.65548 0.0
O427 O 0.48718 0.03632 0.72443 0.0
C428 C 0.50788 0.04532 0.56081 0.0
C429 C 0.55371 0.05679 0.85669 0.0
C430 C 0.58322 0.03032 0.89746 0.0
C431 C 0.57899 0.03879 0.95891 0.0
C432 C 0.54956 0.06527 0.91796 0.0
C433 C 0.56227 0.05631 0.96897 0.0
C434 C 0.57063 0.03938 0.84639 0.0
C435 C 0.55582 0.01125 0.62152 0.0
C436 C 0.53908 0.0649 0.8047 0.0
C437 C 0.51265 0.1396 0.63344 0.0
C438 C 0.53224 0.13485 0.59531 0.0
C439 C 0.51832 0.99053 0.74487 0.0
C440 C 0.45996 0.98706 0.44918 0.0
C441 C 0.42274 0.99723 0.40039 0.0
C442 C 0.42889 0.98392 0.34675 0.0
C443 C 0.46604 0.97384 0.39556 0.0
C444 C 0.4383 0.99854 0.4516 0.0
C445 C 0.45048 0.97227 0.34453 0.0
C446 C 0.47135 0.02167 0.70098 0.0
C447 C 0.47598 0.98893 0.50292 0.0
H448 H 0.58885 0.03205 0.99887 0.0
H449 H 0.53631 0.07858 0.92631 0.0
H450 H 0.55909 0.06286 0.01632 0.0
H451 H 0.57364 0.03252 0.79912 0.0
H452 H 0.41729 0.98297 0.30606 0.0
H453 H 0.48281 0.96486 0.39294 0.0
H454 H 0.43347 0.00847 0.4935 0.0
H455 H 0.45525 0.96221 0.30297 0.0
Tb456 Tb 0.53882 0.50838 0.59744 0.0
C457 C 0.44407 0.49151 0.74386 0.0
N458 N 0.44929 0.50687 0.69648 0.0
C459 C 0.41093 0.50045 0.65094 0.0
C460 C 0.42202 0.47985 0.74633 0.0
C461 C 0.43296 0.51171 0.65071 0.0
C462 C 0.40544 0.4844 0.69886 0.0
C463 C 0.45609 0.47189 0.84049 0.0
C464 C 0.46089 0.4876 0.79037 0.0
C465 C 0.43416 0.46022 0.84314 0.0
C466 C 0.41717 0.4642 0.79622 0.0
Tb467 Tb 0.48518 0.52529 0.70446 0.0
N468 N 0.48203 0.49905 0.78605 0.0
C469 C 0.4734 0.46854 0.88675 0.0
C470 C 0.49843 0.49674 0.8329 0.0
C471 C 0.49459 0.48116 0.88312 0.0
H472 H 0.43637 0.5251 0.61582 0.0
H473 H 0.50782 0.47923 0.91968 0.0
H474 H 0.58757 0.50806 0.68676 0.0
H475 H 0.51642 0.5554 0.38361 0.0
H476 H 0.51419 0.50725 0.83326 0.0
H477 H 0.4704 0.45663 0.92604 0.0
H478 H 0.50927 0.5282 0.4714 0.0
H479 H 0.39805 0.50449 0.61478 0.0
H480 H 0.43012 0.44815 0.88144 0.0
H481 H 0.40029 0.45515 0.79906 0.0
H482 H 0.62655 0.52728 0.68585 0.0
H483 H 0.38827 0.47586 0.69924 0.0
H484 H 0.55493 0.57592 0.37426 0.0
N485 N 0.57507 0.52605 0.60509 0.0
C486 C 0.5807 0.54086 0.5568 0.0
C487 C 0.61373 0.53148 0.64967 0.0
C488 C 0.60316 0.55165 0.5532 0.0
C489 C 0.59132 0.52103 0.65095 0.0
C490 C 0.61969 0.54687 0.60061 0.0
N491 N 0.54226 0.53471 0.51623 0.0
C492 C 0.5256 0.53776 0.47037 0.0
C493 C 0.56907 0.56036 0.45962 0.0
C494 C 0.56387 0.54514 0.51056 0.0
C495 C 0.55163 0.56434 0.41409 0.0
C496 C 0.52984 0.5529 0.41941 0.0
H497 H 0.63717 0.55474 0.59939 0.0
H498 H 0.62568 0.57503 0.49853 0.0
H499 H 0.59582 0.58269 0.41668 0.0
O500 O 0.53716 0.4856 0.51944 0.0
O501 O 0.53433 0.54661 0.61612 0.0
O502 O 0.49443 0.55135 0.63129 0.0
O503 O 0.56853 0.48792 0.57645 0.0
O504 O 0.50275 0.49945 0.56254 0.0
O505 O 0.47906 0.52847 0.60281 0.0
O506 O 0.48678 0.549 0.78052 0.0
O507 O 0.48981 0.48709 0.68498 0.0
O508 O 0.52974 0.48245 0.67087 0.0
O509 O 0.45503 0.54501 0.72583 0.0
O510 O 0.52119 0.53408 0.73993 0.0
O511 O 0.5452 0.50536 0.69929 0.0
C512 C 0.51534 0.5599 0.61591 0.0
C513 C 0.55911 0.45079 0.53484 0.0
C514 C 0.54055 0.41221 0.52369 0.0
C515 C 0.56246 0.40158 0.53524 0.0
C516 C 0.58088 0.43996 0.54602 0.0
C517 C 0.58246 0.41544 0.54689 0.0
C518 C 0.53894 0.43681 0.52524 0.0
C519 C 0.48339 0.51222 0.56015 0.0
C520 C 0.55776 0.47658 0.53158 0.0
C521 C 0.60847 0.56669 0.50229 0.0
C522 C 0.59147 0.57104 0.45566 0.0
C523 C 0.50886 0.47393 0.68645 0.0
C524 C 0.46491 0.58327 0.76048 0.0
C525 C 0.48028 0.62189 0.78934 0.0
C526 C 0.46572 0.63232 0.7437 0.0
C527 C 0.45014 0.59387 0.71532 0.0
C528 C 0.47968 0.59745 0.79759 0.0
C529 C 0.4506 0.61831 0.70714 0.0
C530 C 0.54063 0.52142 0.74235 0.0
C531 C 0.466 0.55754 0.76802 0.0
H532 H 0.56436 0.38262 0.53318 0.0
H533 H 0.59668 0.45047 0.55363 0.0
H534 H 0.59932 0.40717 0.55512 0.0
H535 H 0.52198 0.44506 0.51768 0.0
H536 H 0.46588 0.65123 0.73682 0.0
H537 H 0.43849 0.58335 0.68583 0.0
H538 H 0.49129 0.58933 0.83197 0.0
H539 H 0.43931 0.62639 0.67213 0.0
Tb540 Tb 0.02388 0.54034 0.60802 0.0
C541 C 0.03543 0.45018 0.77063 0.0
N542 N 0.0231 0.45378 0.71629 0.0
C543 C 0.03581 0.41609 0.67709 0.0
C544 C 0.0494 0.42993 0.77883 0.0
C545 C 0.02192 0.4362 0.67165 0.0
C546 C 0.04997 0.41314 0.73039 0.0
C547 C 0.04427 0.46231 0.87839 0.0
C548 C 0.03277 0.466 0.82008 0.0
C549 C 0.059 0.44275 0.88571 0.0
C550 C 0.06156 0.42659 0.83604 0.0
Tb551 Tb 1.0011 0.48774 0.71419 0.0
N552 N 0.01851 0.48484 0.81135 0.0
C553 C 0.04032 0.47821 0.92793 0.0
C554 C 0.01366 0.49971 0.8606 0.0
C555 C 0.02475 0.49685 0.91914 0.0
H556 H 0.01002 0.43742 0.63178 0.0
H557 H 0.02108 0.50888 0.95763 0.0
H558 H 0.99849 0.58442 0.68577 0.0
H559 H 0.04179 0.52692 0.35966 0.0
H560 H 1.00101 0.5136 0.85526 0.0
H561 H 0.04881 0.47597 0.97346 0.0
H562 H 0.04674 0.5196 0.47449 0.0
H563 H 0.0352 0.40265 0.64069 0.0
H564 H 0.0681 0.43969 0.93003 0.0
H565 H 0.07249 0.41123 0.84297 0.0
H566 H 0.97467 0.61912 0.65854 0.0
H567 H 0.06046 0.39735 0.73493 0.0
H568 H 0.01448 0.55788 0.32299 0.0
N569 N 1.00164 0.57275 0.59035 0.0
C570 C 0.99717 0.57733 0.52842 0.0
C571 C 0.98073 0.60742 0.62156 0.0
C572 C 0.98394 0.59717 0.51065 0.0
C573 C 0.99411 0.58766 0.63691 0.0
C574 C 0.97547 0.61211 0.55821 0.0
N575 N 0.02087 0.54465 0.5014 0.0
C576 C 0.03433 0.53271 0.4585 0.0
C577 C 1.00416 0.56803 0.41785 0.0
C578 C 0.00703 0.56279 0.48257 0.0
C579 C 0.01625 0.55442 0.37321 0.0
C580 C 0.0317 0.53694 0.39369 0.0
H581 H 0.96529 0.62758 0.54644 0.0
H582 H 0.96989 0.61688 0.43157 0.0
H583 H 0.98765 0.59146 0.35035 0.0
O584 O 0.06045 0.54083 0.59955 0.0
O585 O 0.98528 0.53919 0.62509 0.0
O586 O 0.9771 0.49965 0.6388 0.0
O587 O 0.04142 0.57334 0.60203 0.0
O588 O 0.01257 0.50983 0.55138 0.0
O589 O 0.0169 0.47867 0.62103 0.0
O590 O 0.97502 0.4825 0.78299 0.0
O591 O 0.03486 0.50398 0.74016 0.0
O592 O 0.04777 0.51226 0.64123 0.0
O593 O 0.97922 0.45772 0.70749 0.0
O594 O 0.99047 0.52378 0.74365 0.0
O595 O 0.02155 0.54703 0.7096 0.0
C596 C 0.9707 0.52094 0.62117 0.0
C597 C 0.07563 0.57158 0.53714 0.0
C598 C 0.10642 0.56362 0.45998 0.0
C599 C 0.10447 0.58664 0.43664 0.0
C600 C 0.07352 0.59452 0.51301 0.0
C601 C 0.08791 0.60196 0.46289 0.0
C602 C 0.09211 0.5563 0.51014 0.0
C603 C 0.01521 0.48725 0.56304 0.0
C604 C 0.06168 0.56352 0.59189 0.0
C605 C 0.98012 0.60178 0.44618 0.0
C606 C 0.99019 0.58726 0.3999 0.0
C607 C 0.05234 0.50798 0.70119 0.0
C608 C 0.94081 0.46278 0.74688 0.0
C609 C 0.90187 0.4779 0.77111 0.0
C610 C 0.89165 0.4597 0.73493 0.0
C611 C 0.93042 0.4446 0.71101 0.0
C612 C 0.92641 0.47936 0.77673 0.0
C613 C 0.90592 0.44317 0.70493 0.0
C614 C 1.0044 0.54252 0.74979 0.0
C615 C 0.96649 0.46379 0.75565 0.0
H616 H 0.1156 0.59266 0.39812 0.0
H617 H 0.06099 0.60671 0.5332 0.0
H618 H 0.08634 0.61969 0.44467 0.0
H619 H 0.09433 0.53868 0.52905 0.0
H620 H 0.87267 0.45826 0.72993 0.0
H621 H 0.94121 0.43143 0.68811 0.0
H622 H 0.9342 0.49306 0.80605 0.0
H623 H 0.89797 0.42912 0.67735 0.0
H624 H 0.11463 0.06413 0.21915 0.0
H625 H 0.07255 0.99066 0.52305 0.0
H626 H 0.15352 1.00504 0.29331 0.0
H627 H 0.04603 0.05972 0.47855 0.0
H628 H 0.1001 0.99388 0.43429 0.0
H629 H 0.0875 0.06098 0.30806 0.0
C630 C 0.11773 0.0505 0.25384 0.0
C631 C 0.13699 0.03501 0.24784 0.0
C632 C 0.08828 0.00835 0.44385 0.0
C633 C 0.10485 0.03091 0.35021 0.0
C634 C 0.07252 1.00658 0.49482 0.0
C635 C 0.05689 0.02501 0.50896 0.0
C636 C 0.08833 0.02856 0.4055 0.0
C637 C 0.05762 0.04501 0.46964 0.0
C638 C 0.10194 0.04866 0.30475 0.0
C639 C 0.13903 0.01731 0.29438 0.0
N640 N 0.07295 0.0462 0.41978 0.0
N641 N 0.12325 0.01576 0.34316 0.0
H642 H 0.52488 0.12056 0.19982 0.0
H643 H 0.48537 0.08817 0.55595 0.0
H644 H 0.4723 0.15863 0.30517 0.0
H645 H 0.52618 0.04096 0.44014 0.0
H646 H 0.48317 0.11558 0.46684 0.0
H647 H 0.52812 0.0926 0.28858 0.0
C648 C 0.51407 0.12312 0.24152 0.0
C649 C 0.49816 0.142 0.2444 0.0
C650 C 0.49257 0.0992 0.4607 0.0
C651 C 0.50195 0.11008 0.34687 0.0
C652 C 0.49393 0.08353 0.51191 0.0
C653 C 0.50608 0.06214 0.50617 0.0
C654 C 0.50338 0.09362 0.40261 0.0
C655 C 0.5166 0.05718 0.44716 0.0
C656 C 0.51586 0.10707 0.29216 0.0
C657 C 0.48456 0.14423 0.29994 0.0
N658 N 0.51506 0.07275 0.39797 0.0
N659 N 0.48683 0.12863 0.34861 0.0
H660 H 0.40834 0.46938 0.21599 0.0
H661 H 0.44982 0.54356 0.52049 0.0
H662 H 0.37079 0.52965 0.28845 0.0
H663 H 0.47987 0.47642 0.47104 0.0
H664 H 0.42251 0.53983 0.43173 0.0
H665 H 0.43593 0.47273 0.30428 0.0
C666 C 0.40569 0.48334 0.25012 0.0
C667 C 0.38673 0.49917 0.24375 0.0
C668 C 0.43497 0.52583 0.44024 0.0
C669 C 0.41919 0.50339 0.34545 0.0
C670 C 0.45057 0.52785 0.49142 0.0
C671 C 0.46696 0.51001 0.50464 0.0
C672 C 0.43583 0.50598 0.40053 0.0
C673 C 0.46745 0.49053 0.46337 0.0
C674 C 0.4217 0.48528 0.30064 0.0
C675 C 0.38508 0.51716 0.28969 0.0
N676 N 0.45214 0.48902 0.4134 0.0
N677 N 0.40098 0.51873 0.33812 0.0
H678 H 0.06028 0.37632 0.30706 0.0
H679 H 0.99347 0.48929 0.44658 0.0
H680 H 0.99811 0.40463 0.21815 0.0
H681 H 0.04289 0.4479 0.55332 0.0
H682 H 0.99708 0.4613 0.35791 0.0
H683 H 0.05637 0.40508 0.39211 0.0
C684 C 0.04588 0.3887 0.30484 0.0
C685 C 0.02963 0.38797 0.25435 0.0
C686 C 0.00703 0.45828 0.40088 0.0
C687 C 0.02487 0.42118 0.35356 0.0
C688 C 1.00505 0.47431 0.45145 0.0
C689 C 0.01756 0.47074 0.50815 0.0
C690 C 0.02201 0.43873 0.40634 0.0
C691 C 0.03241 0.45107 0.51143 0.0
C692 C 0.04355 0.40507 0.35408 0.0
C693 C 0.01105 0.40433 0.25584 0.0
N694 N 0.03426 0.43594 0.46146 0.0
N695 N 0.00925 0.42027 0.30427 0.0
H696 H 0.8791 0.03588 0.04179 0.0
H697 H 0.97762 0.9731 0.82667 0.0
H698 H 0.90181 0.96417 0.07021 0.0
H699 H 0.95254 0.04362 0.79439 0.0
H700 H 0.95097 0.96983 0.91798 0.0
H701 H 0.90746 0.03966 0.95537 0.0
C702 C 0.89011 0.02094 0.03074 0.0
C703 C 0.88763 0.99959 0.06419 0.0
C704 C 0.95133 0.98605 0.89103 0.0
C705 C 0.92009 1.00374 0.96273 0.0
C706 C 0.96659 0.98793 0.83883 0.0
C707 C 0.96735 0.00863 0.80244 0.0
C708 C 0.93679 1.0051 0.90762 0.0
C709 C 0.95251 0.02723 0.82059 0.0
C710 C 0.90621 0.02308 0.98053 0.0
C711 C 0.90243 0.98088 0.04572 0.0
N712 N 0.93795 0.02503 0.87169 0.0
N713 N 0.91781 0.98337 0.99641 0.0
H714 H 0.50187 0.87143 1.00212 0.0
H715 H 0.54046 0.99774 0.861 0.0
H716 H 0.55233 0.91706 0.0955 0.0
H717 H 0.50053 0.9454 0.75749 0.0
H718 H 0.54298 0.97021 0.95047 0.0
H719 H 0.49884 0.90011 0.91645 0.0
C720 C 0.51213 0.88757 1.00533 0.0
C721 C 0.52734 0.89161 0.05703 0.0
C722 C 0.53382 0.96473 0.90787 0.0
C723 C 0.52419 0.92475 0.95712 0.0
C724 C 0.53235 0.9805 0.85655 0.0
C725 C 0.52044 0.97403 0.80047 0.0
C726 C 0.5232 0.94225 0.90369 0.0
C727 C 0.51012 0.95135 0.79868 0.0
C728 C 0.51056 0.90391 0.95572 0.0
C729 C 0.54051 0.91285 0.05679 0.0
N730 N 0.51172 0.93645 0.84907 0.0
N731 N 0.53862 0.92853 1.00794 0.0
H732 H 0.65187 0.49936 0.0216 0.0
H733 H 0.54414 0.55761 0.82998 0.0
H734 H 0.61821 0.56393 0.07954 0.0
H735 H 0.574 0.49006 0.78417 0.0
H736 H 0.57119 0.56061 0.92076 0.0
H737 H 0.62343 0.49574 0.93537 0.0
C738 C 0.63848 0.51272 0.01714 0.0
C739 C 0.63791 0.53207 0.05909 0.0
C740 C 0.57189 0.54516 0.89071 0.0
C741 C 0.6052 0.52823 0.95749 0.0
C742 C 0.55641 0.54344 0.83872 0.0
C743 C 0.55695 0.52375 0.79824 0.0
C744 C 0.58809 0.527 0.90291 0.0
C745 C 0.57319 0.50587 0.81278 0.0
C746 C 0.62227 0.51072 0.96698 0.0
C747 C 0.62006 0.5489 0.04852 0.0
N748 N 0.58804 0.50797 0.86339 0.0
N749 N 0.60466 0.54665 0.99902 0.0
H750 H 0.03612 0.64357 0.04756 0.0
H751 H 0.96599 0.55009 0.8293 0.0
H752 H 0.9602 0.63626 0.0532 0.0
H753 H 0.03781 0.57274 0.79655 0.0
H754 H 0.96366 0.57837 0.91798 0.0
H755 H 0.03722 0.61472 0.96211 0.0
C756 C 0.01961 0.63607 0.03111 0.0
C757 C 0.99802 0.64278 0.05855 0.0
C758 C 0.97991 0.57708 0.89127 0.0
C759 C 0.9993 0.60882 0.9601 0.0
C760 C 0.98126 0.56088 0.84076 0.0
C761 C 1.00209 0.55896 0.80501 0.0
C762 C 0.99964 0.59126 0.90679 0.0
C763 C 0.02129 0.57356 0.82216 0.0
C764 C 0.02029 0.61937 0.98218 0.0
C765 C 0.97739 0.63162 0.03506 0.0
N766 N 0.01961 0.58889 0.87155 0.0
N767 N 0.97855 0.61529 0.98754 0.0
H768 H 0.08513 0.21487 0.37807 0.0
H769 H 0.99494 0.10743 0.41674 0.0
H770 H 0.05353 0.17672 0.22196 0.0
H771 H 0.01067 0.15789 0.56422 0.0
H772 H 0.02489 0.12604 0.34985 0.0
H773 H 0.06667 0.187 0.45141 0.0
C774 C 0.07478 0.20036 0.35914 0.0
C775 C 0.07058 0.19838 0.29387 0.0
C776 C 0.02198 0.13285 0.39712 0.0
C777 C 0.0496 0.16654 0.37718 0.0
C778 C 1.00496 0.12224 0.43529 0.0
C779 C 1.00023 0.1314 0.49565 0.0
C780 C 0.03433 0.15267 0.41968 0.0
C781 C 0.01356 0.15065 0.51742 0.0
C782 C 0.06426 0.18451 0.40096 0.0
C783 C 0.0574 0.17896 0.27181 0.0
N784 N 0.02994 0.1608 0.47917 0.0
N785 N 0.04708 0.16398 0.31351 0.0
H786 H 0.28643 0.04839 0.30732 0.0
H787 H 0.41693 0.04236 0.44188 0.0
H788 H 0.33343 0.10831 0.3216 0.0
H789 H 0.37873 0.98304 0.36299 0.0
H790 H 0.38143 0.06614 0.43306 0.0
H791 H 0.3153 0.02436 0.36288 0.0
C792 C 0.30244 0.05671 0.32483 0.0
C793 C 0.30766 0.08034 0.31082 0.0
C794 C 0.38078 0.04782 0.41857 0.0
C795 C 0.3407 0.053 0.37282 0.0
C796 C 0.40095 0.03422 0.4237 0.0
C797 C 0.40078 0.01084 0.40187 0.0
C798 C 0.36043 0.03795 0.39144 0.0
C799 C 0.37967 1.00119 0.37874 0.0
C800 C 0.31896 0.04295 0.35581 0.0
C801 C 0.32887 0.09018 0.33227 0.0
N802 N 0.36032 0.01491 0.37339 0.0
N803 N 0.34483 0.07634 0.36188 0.0
H804 H 0.43857 0.35165 0.27978 0.0
H805 H 0.52623 0.36908 0.56896 0.0
H806 H 0.47132 0.29506 0.38355 0.0
H807 H 0.50789 0.42279 0.433 0.0
H808 H 0.49562 0.34353 0.52377 0.0
H809 H 0.45266 0.37938 0.35999 0.0
C810 C 0.44813 0.34497 0.32031 0.0
C811 C 0.4543 0.32112 0.32415 0.0
C812 C 0.49801 0.36113 0.50494 0.0
C813 C 0.47029 0.35258 0.41574 0.0
C814 C 0.51559 0.37561 0.53026 0.0
C815 C 0.5199 0.39792 0.50408 0.0
C816 C 0.48473 0.36909 0.45322 0.0
C817 C 0.50519 0.40576 0.45499 0.0
C818 C 0.45614 0.36078 0.36602 0.0
C819 C 0.46621 0.31329 0.37837 0.0
N820 N 0.48846 0.39122 0.43059 0.0
N821 N 0.47426 0.32909 0.42146 0.0
H822 H 0.17652 0.44345 0.30092 0.0
H823 H 0.1537 0.57068 0.44694 0.0
H824 H 0.23175 0.49312 0.35018 0.0
H825 H 0.0986 0.5188 0.41904 0.0
H826 H 0.18291 0.54142 0.41542 0.0
H827 H 0.14787 0.46906 0.35261 0.0
C828 C 0.1827 0.45939 0.32408 0.0
C829 C 0.2065 0.46623 0.32069 0.0
C830 C 0.16443 0.53641 0.41613 0.0
C831 C 0.17396 0.4957 0.37869 0.0
C832 C 0.14782 0.55319 0.43321 0.0
C833 C 0.12387 0.54708 0.43475 0.0
C834 C 0.15692 0.51349 0.40008 0.0
C835 C 0.11701 0.52409 0.41809 0.0
C836 C 0.16636 0.47406 0.35324 0.0
C837 C 0.21363 0.48697 0.35189 0.0
N838 N 0.13348 0.5081 0.40114 0.0
N839 N 0.19735 0.50116 0.37866 0.0
H840 H 0.96846 0.84501 0.08241 0.0
H841 H 0.01693 0.87246 0.736 0.0
H842 H 0.94376 0.80801 0.91576 0.0
H843 H 0.04017 0.9078 0.90637 0.0
H844 H 0.98842 0.84979 0.79911 0.0
H845 H 0.99129 0.87117 0.01572 0.0
C846 C 0.96717 0.8428 0.03158 0.0
C847 C 0.95414 0.82416 1.00467 0.0
C848 C 0.99977 0.86254 0.82252 0.0
C849 C 0.98132 0.85357 0.92797 0.0
C850 C 0.01621 0.87519 0.78674 0.0
C851 C 0.03086 0.89193 0.81618 0.0
C852 C 0.99808 0.86678 0.8879 0.0
C853 C 0.02903 0.89517 0.88181 0.0
C854 C 0.98063 0.85757 0.99346 0.0
C855 C 0.9538 0.82195 0.93848 0.0
N856 N 0.01288 0.88275 0.91541 0.0
N857 N 0.96752 0.83629 0.90229 0.0
H858 H 0.67847 0.93181 0.02072 0.0
H859 H 0.62227 0.03401 0.82336 0.0
H860 H 0.71767 0.98746 0.92821 0.0
H861 H 0.58489 0.98647 0.94759 0.0
H862 H 0.65627 1.0076 0.82528 0.0
H863 H 0.64412 0.94148 0.95649 0.0
C864 C 0.68003 0.94555 0.98532 0.0
C865 C 0.70059 0.9593 0.9808 0.0
C866 C 0.64037 1.00259 0.85057 0.0
C867 C 0.6615 0.9707 0.90838 0.0
C868 C 0.62108 0.01763 0.84953 0.0
C869 C 0.60128 0.01248 0.88684 0.0
C870 C 0.63959 0.98244 0.88916 0.0
C871 C 0.60022 0.99113 0.91957 0.0
C872 C 0.66047 0.95108 0.94873 0.0
C873 C 0.70199 0.97661 0.9336 0.0
N874 N 0.61934 0.97701 0.92084 0.0
N875 N 0.68242 0.98229 0.90027 0.0
H876 H 0.58502 0.72091 0.92332 0.0
H877 H 0.48782 0.61854 0.91617 0.0
H878 H 0.55674 0.68621 0.0892 0.0
H879 H 0.51021 0.65689 0.74995 0.0
H880 H 0.51692 0.64007 0.97869 0.0
H881 H 0.56232 0.69364 0.85683 0.0
C882 C 0.57451 0.70724 0.94569 0.0
C883 C 0.57271 0.70594 0.01185 0.0
C884 C 0.51553 0.64381 0.92855 0.0
C885 C 0.54664 0.67502 0.93653 0.0
C886 C 0.49891 0.63155 0.89293 0.0
C887 C 0.49665 0.63608 0.828 0.0
C888 C 0.52993 0.66077 0.89904 0.0
C889 C 0.51125 0.6532 0.80016 0.0
C890 C 0.56149 0.69179 0.90782 0.0
C891 C 0.55898 0.68777 0.03847 0.0
N892 N 0.52733 0.66501 0.83598 0.0
N893 N 0.54624 0.67323 1.00067 0.0
H894 H 0.84804 0.59077 1.00483 0.0
H895 H 0.86291 0.4681 0.84136 0.0
H896 H 0.78895 0.54626 0.95214 0.0
H897 H 0.90804 0.5257 0.78197 0.0
H898 H 0.83878 0.49599 0.90012 0.0
H899 H 0.87356 0.56695 0.93589 0.0
C900 C 0.84036 0.57648 0.97749 0.0
C901 C 0.81635 0.5706 0.98371 0.0
C902 C 0.85385 0.5025 0.87362 0.0
C903 C 0.8452 0.54328 0.90742 0.0
C904 C 0.8675 0.48667 0.83997 0.0
C905 C 0.8871 0.49474 0.80583 0.0
C906 C 0.85998 0.52649 0.87347 0.0
C907 C 0.89292 0.51887 0.80765 0.0
C908 C 0.85486 0.56294 0.9386 0.0
C909 C 0.80722 0.55177 0.94794 0.0
N910 N 0.87936 0.53404 0.84117 0.0
N911 N 0.82175 0.53856 0.91213 0.0
H912 H 0.04166 0.21019 0.76073 0.0
H913 H 0.01242 0.07307 0.81021 0.0
H914 H 0.00708 0.18172 0.92615 0.0
H915 H 0.02575 0.10158 0.6244 0.0
H916 H 0.01441 0.11265 0.8544 0.0
H917 H 0.0397 0.17091 0.7113 0.0
C918 C 0.03357 0.1958 0.7867 0.0
C919 C 0.0243 0.1996 0.84782 0.0
C920 C 0.01689 0.11039 0.80391 0.0
C921 C 0.02221 0.15432 0.79128 0.0
C922 C 0.01598 0.08764 0.77854 0.0
C923 C 0.01925 0.08373 0.7134 0.0
C924 C 0.02117 0.12981 0.76423 0.0
C925 C 0.02316 0.10364 0.67488 0.0
C926 C 0.03239 0.17336 0.75821 0.0
C927 C 0.01406 0.18004 0.87868 0.0
N928 N 0.02417 0.12577 0.70087 0.0
N929 N 0.01344 0.15843 0.8504 0.0
H930 H 0.33646 0.06902 0.85004 0.0
H931 H 0.44357 0.98534 0.7459 0.0
H932 H 0.33424 0.99327 0.86892 0.0
H933 H 0.44351 0.06047 0.71792 0.0
H934 H 0.40352 0.98765 0.78956 0.0
H935 H 0.37519 0.06604 0.80055 0.0
C936 C 0.34384 0.05167 0.84327 0.0
C937 C 0.33158 0.03135 0.86388 0.0
C938 C 0.41222 1.00366 0.77379 0.0
C939 C 0.37687 0.02792 0.80779 0.0
C940 C 0.43504 1.0023 0.74814 0.0
C941 C 0.44698 0.02272 0.7278 0.0
C942 C 0.40111 0.02566 0.77948 0.0
C943 C 0.43524 0.04432 0.734 0.0
C944 C 0.36623 0.05003 0.81532 0.0
C945 C 0.34283 0.00952 0.85479 0.0
N946 N 0.41307 0.04522 0.75916 0.0
N947 N 0.3647 0.00842 0.82767 0.0
H948 H 0.46495 0.3315 0.79412 0.0
H949 H 0.54495 0.44551 0.72665 0.0
H950 H 0.53354 0.3422 0.88015 0.0
H951 H 0.46925 0.44579 0.70501 0.0
H952 H 0.54228 0.40562 0.7703 0.0
H953 H 0.46737 0.37107 0.75056 0.0
C954 C 0.48055 0.34186 0.8046 0.0
C955 C 0.49897 0.33277 0.84241 0.0
C956 C 0.52624 0.41441 0.75613 0.0
C957 C 0.50207 0.37868 0.78902 0.0
C958 C 0.52773 0.43723 0.73085 0.0
C959 C 0.50728 0.44929 0.71209 0.0
C960 C 0.50417 0.40314 0.76214 0.0
C961 C 0.48551 0.43741 0.71908 0.0
C962 C 0.48191 0.36465 0.77884 0.0
C963 C 0.51889 0.34761 0.85103 0.0
N964 N 0.48454 0.41506 0.74318 0.0
N965 N 0.5199 0.36956 0.82454 0.0
H966 H 0.2061 0.51407 0.76699 0.0
H967 H 0.0665 0.50396 0.82444 0.0
H968 H 0.1746 0.48464 0.93502 0.0
H969 H 0.09524 0.51072 0.63624 0.0
H970 H 0.10622 0.50088 0.86665 0.0
H971 H 0.16636 0.5172 0.7194 0.0
C972 C 0.19081 0.50848 0.79399 0.0
C973 C 0.19362 0.49922 0.8552 0.0
C974 C 0.10396 0.50298 0.81605 0.0
C975 C 0.14816 0.50282 0.8014 0.0
C976 C 0.0811 0.50455 0.7916 0.0
C977 C 0.07715 0.50709 0.72622 0.0
C978 C 0.12352 0.50453 0.77538 0.0
C979 C 0.09721 0.50867 0.68689 0.0
C980 C 0.16816 0.51013 0.76674 0.0
C981 C 0.17323 0.49196 0.88784 0.0
N982 N 0.11948 0.50745 0.71203 0.0
N983 N 0.1515 0.49404 0.86084 0.0
H984 H 0.03346 0.83279 0.47898 0.0
H985 H 0.96669 0.95164 0.57903 0.0
H986 H 0.96166 0.84815 0.42582 0.0
H987 H 0.04215 0.94417 0.59108 0.0
H988 H 0.96395 0.91262 0.53042 0.0
H989 H 0.03647 0.87194 0.52811 0.0
C990 C 0.01832 0.84428 0.47735 0.0
C991 C 0.99721 0.83673 0.44813 0.0
C992 C 0.98114 0.91951 0.54357 0.0
C993 C 1.00054 0.88189 0.50529 0.0
C994 C 0.98273 0.94207 0.57076 0.0
C995 C 1.00471 0.95187 0.58769 0.0
C996 C 1.00164 0.90607 0.53458 0.0
C997 C 0.02477 0.9377 0.57838 0.0
C998 C 0.02005 0.86668 0.50574 0.0
C999 C 0.97818 0.85264 0.4487 0.0
N1000 N 0.02275 0.91565 0.55277 0.0
N1001 N 0.9803 0.87425 0.47666 0.0
H1002 H 0.70929 0.99703 0.55843 0.0
H1003 H 0.5702 0.01414 0.49811 0.0
H1004 H 0.67749 0.00837 0.37601 0.0
H1005 H 0.59843 1.00568 0.68623 0.0
H1006 H 0.60964 0.01083 0.4547 0.0
H1007 H 0.66981 0.99951 0.60783 0.0
C1008 C 0.694 1.00005 0.52886 0.0
C1009 C 0.69669 1.00273 0.46304 0.0
C1010 C 0.60739 0.00948 0.50549 0.0
C1011 C 0.65142 1.00518 0.51894 0.0
C1012 C 0.58463 0.01097 0.53053 0.0
C1013 C 0.58057 0.00916 0.59611 0.0
C1014 C 0.62683 1.00657 0.5459 0.0
C1015 C 0.60052 1.00665 0.63534 0.0
C1016 C 0.67147 1.00144 0.55702 0.0
C1017 C 0.67628 1.00652 0.42694 0.0
N1018 N 0.62273 1.00535 0.60971 0.0
N1019 N 0.65468 1.00753 0.45517 0.0
H1020 H 0.564 0.69033 0.43892 0.0
H1021 H 0.47945 0.59137 0.59278 0.0
H1022 H 0.48952 0.70082 0.4699 0.0
H1023 H 0.55518 0.58558 0.58246 0.0
H1024 H 0.48248 0.63106 0.54772 0.0
H1025 H 0.56076 0.65186 0.48963 0.0
C1026 C 0.54695 0.68482 0.45701 0.0
C1027 C 0.52705 0.69936 0.45018 0.0
C1028 C 0.49844 0.62107 0.55497 0.0
C1029 C 0.52316 0.65437 0.50791 0.0
C1030 C 0.49675 0.59832 0.58098 0.0
C1031 C 0.51706 0.58465 0.59073 0.0
C1032 C 0.52062 0.6304 0.53784 0.0
C1033 C 0.53894 0.59496 0.57457 0.0
C1034 C 0.54511 0.66259 0.4857 0.0
C1035 C 0.50539 0.69043 0.47329 0.0
N1036 N 0.54009 0.61698 0.54867 0.0
N1037 N 0.50405 0.66866 0.5009 0.0
H1038 H 0.82359 0.49984 0.50151 0.0
H1039 H 0.95257 0.55831 0.55267 0.0
H1040 H 0.84555 0.56567 0.41735 0.0
H1041 H 0.93249 0.49058 0.62841 0.0
H1042 H 0.91318 0.56191 0.50612 0.0
H1043 H 0.86264 0.4967 0.55138 0.0
C1044 C 0.83656 0.51362 0.49326 0.0
C1045 C 0.83094 0.53311 0.45508 0.0
C1046 C 0.91731 0.54627 0.53316 0.0
C1047 C 0.87611 0.52959 0.51244 0.0
C1048 C 0.93994 0.54422 0.55994 0.0
C1049 C 0.94622 0.52405 0.59457 0.0
C1050 C 0.90043 0.52815 0.54137 0.0
C1051 C 0.92873 0.50642 0.60197 0.0
C1052 C 0.85892 0.51185 0.52203 0.0
C1053 C 0.84868 0.55048 0.44705 0.0
N1054 N 0.90681 0.50889 0.57586 0.0
N1055 N 0.87027 0.54828 0.47514 0.0
loop_
_geom_bond_atom_site_label_1
_geom_bond_atom_site_label_2
_geom_bond_distance
_geom_bond_site_symmetry_2
_ccdc_geom_bond_type
C0 C1 1.384 . S
C0 H13 0.947 . S
C0 C35 1.382 . S
C1 C0 1.384 . S
C1 C2 1.378 . S
C2 C1 1.378 . S
C2 C3 1.378 . S
C2 H14 0.952 . S
C3 C2 1.378 . S
C3 H15 0.950 . S
C3 C34 1.383 . S
H4 C23 0.947 . S
H5 C24 0.946 . S
H6 C26 0.953 . S
H7 C27 0.945 . S
H8 C29 0.952 . S
H9 C30 0.949 1_556 S
H10 C32 0.950 . S
H11 C33 0.948 . S
H12 C35 0.951 . S
H13 C0 0.947 . S
H14 C2 0.952 . S
H15 C3 0.950 . S
N16 C19 1.382 . S
N16 C21 1.363 . S
N17 C19 1.371 . S
N17 C20 1.372 . S
N18 C20 1.361 . S
N18 C21 1.377 . S
C19 N16 1.382 . S
C19 N17 1.371 . S
C19 C22 1.480 . S
C20 N17 1.372 . S
C20 N18 1.361 . S
C20 C28 1.457 . S
C21 N16 1.363 . S
C21 N18 1.377 . S
C21 C34 1.479 . S
C22 C19 1.480 . S
C22 C23 1.383 . S
C22 C27 1.385 . S
C23 H4 0.947 . S
C23 C22 1.383 . S
C23 C24 1.388 . S
C24 H5 0.946 . S
C24 C23 1.388 . S
C24 C25 1.384 . S
C25 C24 1.384 . S
C25 C26 1.377 . S
C26 H6 0.953 . S
C26 C25 1.377 . S
C26 C27 1.369 . S
C27 H7 0.945 . S
C27 C22 1.385 . S
C27 C26 1.369 . S
C28 C20 1.457 . S
C28 C29 1.372 . S
C28 C33 1.364 . S
C29 H8 0.952 . S
C29 C28 1.372 . S
C29 C30 1.389 . S
C30 H9 0.949 1_554 S
C30 C29 1.389 . S
C30 C31 1.387 . S
C31 C30 1.387 . S
C31 C32 1.372 . S
C32 H10 0.950 . S
C32 C31 1.372 . S
C32 C33 1.379 . S
C33 H11 0.948 . S
C33 C28 1.364 . S
C33 C32 1.379 . S
C34 C3 1.383 . S
C34 C21 1.479 . S
C34 C35 1.398 . S
C35 C0 1.382 . S
C35 H12 0.951 . S
C35 C34 1.398 . S
C36 C37 1.384 . S
C36 H49 0.947 . S
C36 C71 1.382 . S
C37 C36 1.384 . S
C37 C38 1.378 . S
C38 C37 1.378 . S
C38 C39 1.378 . S
C38 H50 0.952 . S
C39 C38 1.378 . S
C39 H51 0.950 . S
C39 C70 1.383 . S
H40 C59 0.947 . S
H41 C60 0.946 . S
H42 C62 0.953 . S
H43 C63 0.945 . S
H44 C65 0.952 . S
H45 C66 0.949 1_556 S
H46 C68 0.950 . S
H47 C69 0.948 . S
H48 C71 0.951 . S
H49 C36 0.947 . S
H50 C38 0.952 . S
H51 C39 0.950 . S
N52 C55 1.382 . S
N52 C57 1.363 . S
N53 C55 1.371 . S
N53 C56 1.372 . S
N54 C56 1.361 . S
N54 C57 1.377 . S
C55 N52 1.382 . S
C55 N53 1.371 . S
C55 C58 1.480 . S
C56 N53 1.372 . S
C56 N54 1.361 . S
C56 C64 1.457 . S
C57 N52 1.363 . S
C57 N54 1.377 . S
C57 C70 1.479 . S
C58 C55 1.480 . S
C58 C59 1.383 . S
C58 C63 1.385 . S
C59 H40 0.947 . S
C59 C58 1.383 . S
C59 C60 1.388 . S
C60 H41 0.946 . S
C60 C59 1.388 . S
C60 C61 1.384 . S
C61 C60 1.384 . S
C61 C62 1.377 . S
C62 H42 0.953 . S
C62 C61 1.377 . S
C62 C63 1.369 . S
C63 H43 0.945 . S
C63 C58 1.385 . S
C63 C62 1.369 . S
C64 C56 1.457 . S
C64 C65 1.372 . S
C64 C69 1.364 . S
C65 H44 0.952 . S
C65 C64 1.372 . S
C65 C66 1.389 . S
C66 H45 0.949 1_554 S
C66 C65 1.389 . S
C66 C67 1.387 . S
C67 C66 1.387 . S
C67 C68 1.372 . S
C68 H46 0.950 . S
C68 C67 1.372 . S
C68 C69 1.379 . S
C69 H47 0.948 . S
C69 C64 1.364 . S
C69 C68 1.379 . S
C70 C39 1.383 . S
C70 C57 1.479 . S
C70 C71 1.398 . S
C71 C36 1.382 . S
C71 H48 0.951 . S
C71 C70 1.398 . S
C72 C73 1.384 . S
C72 H85 0.947 . S
C72 C107 1.382 . S
C73 C72 1.384 . S
C73 C74 1.378 . S
C74 C73 1.378 . S
C74 C75 1.378 . S
C74 H86 0.952 . S
C75 C74 1.378 . S
C75 H87 0.950 . S
C75 C106 1.383 . S
H76 C95 0.947 . S
H77 C96 0.946 . S
H78 C98 0.953 . S
H79 C99 0.945 . S
H80 C101 0.952 . S
H81 C102 0.949 1_556 S
H82 C104 0.950 . S
H83 C105 0.948 . S
H84 C107 0.951 . S
H85 C72 0.947 . S
H86 C74 0.952 . S
H87 C75 0.950 . S
N88 C91 1.382 . S
N88 C93 1.363 . S
N89 C91 1.371 . S
N89 C92 1.372 . S
N90 C92 1.361 . S
N90 C93 1.377 . S
C91 N88 1.382 . S
C91 N89 1.371 . S
C91 C94 1.480 . S
C92 N89 1.372 . S
C92 N90 1.361 . S
C92 C100 1.457 . S
C93 N88 1.363 . S
C93 N90 1.377 . S
C93 C106 1.479 . S
C94 C91 1.480 . S
C94 C95 1.383 . S
C94 C99 1.385 . S
C95 H76 0.947 . S
C95 C94 1.383 . S
C95 C96 1.388 . S
C96 H77 0.946 . S
C96 C95 1.388 . S
C96 C97 1.384 . S
C97 C96 1.384 . S
C97 C98 1.377 . S
C98 H78 0.953 . S
C98 C97 1.377 . S
C98 C99 1.369 . S
C99 H79 0.945 . S
C99 C94 1.385 . S
C99 C98 1.369 . S
C100 C92 1.457 . S
C100 C101 1.372 . S
C100 C105 1.364 . S
C101 H80 0.952 . S
C101 C100 1.372 . S
C101 C102 1.389 . S
C102 H81 0.949 1_554 S
C102 C101 1.389 . S
C102 C103 1.387 . S
C103 C102 1.387 . S
C103 C104 1.372 . S
C104 H82 0.950 . S
C104 C103 1.372 . S
C104 C105 1.379 . S
C105 H83 0.948 . S
C105 C100 1.364 . S
C105 C104 1.379 . S
C106 C75 1.383 . S
C106 C93 1.479 . S
C106 C107 1.398 . S
C107 C72 1.382 . S
C107 H84 0.951 . S
C107 C106 1.398 . S
C108 C109 1.384 . S
C108 H121 0.947 . S
C108 C143 1.382 . S
C109 C108 1.384 . S
C109 C110 1.378 . S
C110 C109 1.378 . S
C110 C111 1.378 . S
C110 H122 0.952 1_554 S
C111 C110 1.378 . S
C111 H123 0.950 . S
C111 C142 1.383 . S
H112 C131 0.947 . S
H113 C132 0.946 . S
H114 C134 0.953 . S
H115 C135 0.945 . S
H116 C137 0.952 . S
H117 C138 0.949 . S
H118 C140 0.950 . S
H119 C141 0.948 . S
H120 C143 0.951 . S
H121 C108 0.947 . S
H122 C110 0.952 1_556 S
H123 C111 0.950 . S
N124 C127 1.382 . S
N124 C129 1.363 . S
N125 C127 1.371 . S
N125 C128 1.372 . S
N126 C128 1.361 . S
N126 C129 1.377 . S
C127 N124 1.382 . S
C127 N125 1.371 . S
C127 C130 1.480 . S
C128 N125 1.372 . S
C128 N126 1.361 . S
C128 C136 1.457 . S
C129 N124 1.363 . S
C129 N126 1.377 . S
C129 C142 1.479 . S
C130 C127 1.480 . S
C130 C131 1.383 . S
C130 C135 1.385 . S
C131 H112 0.947 . S
C131 C130 1.383 . S
C131 C132 1.388 . S
C132 H113 0.946 . S
C132 C131 1.388 . S
C132 C133 1.384 . S
C133 C132 1.384 . S
C133 C134 1.377 . S
C134 H114 0.953 . S
C134 C133 1.377 . S
C134 C135 1.369 . S
C135 H115 0.945 . S
C135 C130 1.385 . S
C135 C134 1.369 . S
C136 C128 1.457 . S
C136 C137 1.372 . S
C136 C141 1.364 . S
C137 H116 0.952 . S
C137 C136 1.372 . S
C137 C138 1.389 . S
C138 H117 0.949 . S
C138 C137 1.389 . S
C138 C139 1.387 . S
C139 C138 1.387 . S
C139 C140 1.372 . S
C140 H118 0.950 . S
C140 C139 1.372 . S
C140 C141 1.379 . S
C141 H119 0.948 . S
C141 C136 1.364 . S
C141 C140 1.379 . S
C142 C111 1.383 . S
C142 C129 1.479 . S
C142 C143 1.398 . S
C143 C108 1.382 . S
C143 H120 0.951 . S
C143 C142 1.398 . S
C144 C145 1.384 . S
C144 H157 0.947 . S
C144 C179 1.382 . S
C145 C144 1.384 . S
C145 C146 1.378 . S
C146 C145 1.378 . S
C146 C147 1.378 . S
C146 H158 0.952 . S
C147 C146 1.378 . S
C147 H159 0.950 . S
C147 C178 1.383 . S
H148 C167 0.947 1_556 S
H149 C168 0.946 . S
H150 C170 0.953 . S
H151 C171 0.945 . S
H152 C173 0.952 . S
H153 C174 0.949 . S
H154 C176 0.950 . S
H155 C177 0.948 . S
H156 C179 0.951 . S
H157 C144 0.947 . S
H158 C146 0.952 . S
H159 C147 0.950 . S
N160 C163 1.382 1_556 S
N160 C165 1.363 . S
N161 C163 1.371 . S
N161 C164 1.372 . S
N162 C164 1.361 . S
N162 C165 1.377 1_554 S
C163 N160 1.382 1_554 S
C163 N161 1.371 . S
C163 C166 1.480 . S
C164 N161 1.372 . S
C164 N162 1.361 . S
C164 C172 1.457 . S
C165 N160 1.363 . S
C165 N162 1.377 1_556 S
C165 C178 1.479 . S
C166 C163 1.480 . S
C166 C167 1.383 . S
C166 C171 1.385 . S
C167 H148 0.947 1_554 S
C167 C166 1.383 . S
C167 C168 1.388 . S
C168 H149 0.946 . S
C168 C167 1.388 . S
C168 C169 1.384 . S
C169 C168 1.384 . S
C169 C170 1.377 . S
C170 H150 0.953 . S
C170 C169 1.377 . S
C170 C171 1.369 . S
C171 H151 0.945 . S
C171 C166 1.385 . S
C171 C170 1.369 . S
C172 C164 1.457 . S
C172 C173 1.372 . S
C172 C177 1.364 . S
C173 H152 0.952 . S
C173 C172 1.372 . S
C173 C174 1.389 . S
C174 H153 0.949 . S
C174 C173 1.389 . S
C174 C175 1.387 . S
C175 C174 1.387 . S
C175 C176 1.372 . S
C176 H154 0.950 . S
C176 C175 1.372 . S
C176 C177 1.379 . S
C177 H155 0.948 . S
C177 C172 1.364 . S
C177 C176 1.379 . S
C178 C147 1.383 . S
C178 C165 1.479 . S
C178 C179 1.398 . S
C179 C144 1.382 . S
C179 H156 0.951 . S
C179 C178 1.398 . S
C180 C181 1.384 . S
C180 H193 0.947 . S
C180 C215 1.382 . S
C181 C180 1.384 . S
C181 C182 1.378 . S
C182 C181 1.378 . S
C182 C183 1.378 . S
C182 H194 0.952 . S
C183 C182 1.378 . S
C183 H195 0.950 . S
C183 C214 1.383 . S
H184 C203 0.947 1_556 S
H185 C204 0.946 . S
H186 C206 0.953 . S
H187 C207 0.945 . S
H188 C209 0.952 . S
H189 C210 0.949 . S
H190 C212 0.950 . S
H191 C213 0.948 . S
H192 C215 0.951 . S
H193 C180 0.947 . S
H194 C182 0.952 . S
H195 C183 0.950 . S
N196 C199 1.382 1_556 S
N196 C201 1.363 . S
N197 C199 1.371 . S
N197 C200 1.372 . S
N198 C200 1.361 . S
N198 C201 1.377 1_554 S
C199 N196 1.382 1_554 S
C199 N197 1.371 . S
C199 C202 1.480 . S
C200 N197 1.372 . S
C200 N198 1.361 . S
C200 C208 1.457 . S
C201 N196 1.363 . S
C201 N198 1.377 1_556 S
C201 C214 1.479 . S
C202 C199 1.480 . S
C202 C203 1.383 . S
C202 C207 1.385 . S
C203 H184 0.947 1_554 S
C203 C202 1.383 . S
C203 C204 1.388 . S
C204 H185 0.946 . S
C204 C203 1.388 . S
C204 C205 1.384 . S
C205 C204 1.384 . S
C205 C206 1.377 . S
C206 H186 0.953 . S
C206 C205 1.377 . S
C206 C207 1.369 . S
C207 H187 0.945 . S
C207 C202 1.385 . S
C207 C206 1.369 . S
C208 C200 1.457 . S
C208 C209 1.372 . S
C208 C213 1.364 . S
C209 H188 0.952 . S
C209 C208 1.372 . S
C209 C210 1.389 . S
C210 H189 0.949 . S
C210 C209 1.389 . S
C210 C211 1.387 . S
C211 C210 1.387 . S
C211 C212 1.372 . S
C212 H190 0.950 . S
C212 C211 1.372 . S
C212 C213 1.379 . S
C213 H191 0.948 . S
C213 C208 1.364 . S
C213 C212 1.379 . S
C214 C183 1.383 . S
C214 C201 1.479 . S
C214 C215 1.398 . S
C215 C180 1.382 . S
C215 H192 0.951 . S
C215 C214 1.398 . S
C216 C217 1.384 . S
C216 H229 0.947 . S
C216 C251 1.382 . S
C217 C216 1.384 . S
C217 C218 1.378 . S
C218 C217 1.378 . S
C218 C219 1.378 . S
C218 H230 0.952 . S
C219 C218 1.378 . S
C219 H231 0.950 . S
C219 C250 1.383 . S
H220 C239 0.947 1_556 S
H221 C240 0.946 . S
H222 C242 0.953 . S
H223 C243 0.945 . S
H224 C245 0.952 . S
H225 C246 0.949 . S
H226 C248 0.950 . S
H227 C249 0.948 . S
H228 C251 0.951 . S
H229 C216 0.947 . S
H230 C218 0.952 . S
H231 C219 0.950 . S
N232 C235 1.371 1_556 S
N232 C237 1.365 . S
N233 C235 1.371 . S
N233 C236 1.372 . S
N234 C236 1.361 . S
N234 C237 1.377 1_554 S
C235 N232 1.371 1_554 S
C235 N233 1.371 . S
C235 C238 1.480 . S
C236 N233 1.372 . S
C236 N234 1.361 . S
C236 C244 1.457 . S
C237 N232 1.365 . S
C237 N234 1.377 1_556 S
C237 C250 1.479 . S
C238 C235 1.480 . S
C238 C239 1.383 . S
C238 C243 1.385 . S
C239 H220 0.947 1_554 S
C239 C238 1.383 . S
C239 C240 1.388 . S
C240 H221 0.946 . S
C240 C239 1.388 . S
C240 C241 1.384 . S
C241 C240 1.384 . S
C241 C242 1.377 . S
C242 H222 0.953 . S
C242 C241 1.377 . S
C242 C243 1.369 . S
C243 H223 0.945 . S
C243 C238 1.385 . S
C243 C242 1.369 . S
C244 C236 1.457 . S
C244 C245 1.372 . S
C244 C249 1.364 . S
C245 H224 0.952 . S
C245 C244 1.372 . S
C245 C246 1.389 . S
C246 H225 0.949 . S
C246 C245 1.389 . S
C246 C247 1.387 . S
C247 C246 1.387 . S
C247 C248 1.372 . S
C248 H226 0.950 . S
C248 C247 1.372 . S
C248 C249 1.379 . S
C249 H227 0.948 . S
C249 C244 1.364 . S
C249 C248 1.379 . S
C250 C219 1.383 . S
C250 C237 1.479 . S
C250 C251 1.398 . S
C251 C216 1.382 . S
C251 H228 0.951 . S
C251 C250 1.398 . S
C252 C253 1.384 . S
C252 H265 0.947 . S
C252 C287 1.382 . S
C253 C252 1.384 . S
C253 C254 1.378 . S
C254 C253 1.378 . S
C254 C255 1.378 . S
C254 H266 0.952 . S
C255 C254 1.378 . S
C255 H267 0.950 . S
C255 C286 1.383 . S
H256 C275 0.947 . S
H257 C276 0.946 . S
H258 C278 0.953 . S
H259 C279 0.945 1_556 S
H260 C281 0.952 . S
H261 C282 0.949 . S
H262 C284 0.950 . S
H263 C285 0.948 . S
H264 C287 0.951 . S
H265 C252 0.947 . S
H266 C254 0.952 . S
H267 C255 0.950 . S
N268 C271 1.382 . S
N268 C273 1.363 . S
N269 C271 1.371 1_556 S
N269 C272 1.372 . S
N270 C272 1.361 1_554 S
N270 C273 1.377 . S
C271 N268 1.382 . S
C271 N269 1.371 1_554 S
C271 C274 1.480 . S
C272 N269 1.372 . S
C272 N270 1.361 1_556 S
C272 C280 1.457 . S
C273 N268 1.363 . S
C273 N270 1.377 . S
C273 C286 1.479 . S
C274 C271 1.480 . S
C274 C275 1.383 . S
C274 C279 1.385 . S
C275 H256 0.947 . S
C275 C274 1.383 . S
C275 C276 1.388 . S
C276 H257 0.946 . S
C276 C275 1.388 . S
C276 C277 1.384 . S
C277 C276 1.384 . S
C277 C278 1.377 . S
C278 H258 0.953 . S
C278 C277 1.377 . S
C278 C279 1.369 . S
C279 H259 0.945 1_554 S
C279 C274 1.385 . S
C279 C278 1.369 . S
C280 C272 1.457 . S
C280 C281 1.372 . S
C280 C285 1.364 . S
C281 H260 0.952 . S
C281 C280 1.372 . S
C281 C282 1.389 . S
C282 H261 0.949 . S
C282 C281 1.389 . S
C282 C283 1.387 . S
C283 C282 1.387 . S
C283 C284 1.372 . S
C284 H262 0.950 . S
C284 C283 1.372 . S
C284 C285 1.379 . S
C285 H263 0.948 . S
C285 C280 1.364 . S
C285 C284 1.379 . S
C286 C255 1.383 . S
C286 C273 1.479 . S
C286 C287 1.398 . S
C287 C252 1.382 . S
C287 H264 0.951 . S
C287 C286 1.398 . S
Tb288 N317 2.617 . S
Tb288 N323 2.572 . S
Tb288 O332 2.465 . S
Tb288 O333 2.387 1_545 S
Tb288 O335 2.428 . S
Tb288 O336 2.308 1_655 S
Tb288 O340 2.349 1_655 S
Tb288 O343 2.393 . S
Tb288 C352 2.802 . S
C289 N290 1.379 . S
C289 C292 1.416 . S
C289 C296 1.424 . S
N290 C289 1.379 . S
N290 C293 1.335 1_545 S
N290 Tb299 2.617 1_545 S
C291 C293 1.391 1_545 S
C291 C294 1.339 . S
C291 H311 0.930 . S
C292 C289 1.416 . S
C292 C294 1.416 . S
C292 C298 1.448 . S
C293 N290 1.335 1_565 S
C293 C291 1.391 1_565 S
C293 H304 0.928 . S
C294 C291 1.339 . S
C294 C292 1.416 . S
C294 H315 0.930 . S
C295 C296 1.413 . S
C295 C297 1.427 . S
C295 C301 1.416 . S
C296 C289 1.424 . S
C296 C295 1.413 . S
C296 N300 1.361 . S
C297 C295 1.427 . S
C297 C298 1.328 . S
C297 H312 0.929 . S
C298 C292 1.448 . S
C298 C297 1.328 . S
C298 H313 0.930 . S
Tb299 N290 2.617 1_565 S
Tb299 N300 2.572 1_565 S
Tb299 O334 2.349 . S
Tb299 O337 2.393 . S
Tb299 O338 2.465 . S
Tb299 O339 2.387 1_565 S
Tb299 O341 2.428 . S
Tb299 O342 2.308 1_465 S
Tb299 C363 2.802 . S
N300 C296 1.361 . S
N300 Tb299 2.572 1_545 S
N300 C302 1.340 . S
C301 C295 1.416 . S
C301 C303 1.332 . S
C301 H309 0.931 . S
C302 N300 1.340 . S
C302 C303 1.407 . S
C302 H308 0.912 1_455 S
C303 C301 1.332 . S
C303 C302 1.407 . S
C303 H305 0.929 . S
H304 C293 0.928 . S
H305 C303 0.929 . S
H306 C321 0.930 . S
H307 C328 0.929 1_455 S
H308 C302 0.912 1_655 S
H309 C301 0.931 . S
H310 C324 0.930 1_455 S
H311 C291 0.930 . S
H312 C297 0.929 . S
H313 C298 0.930 . S
H314 C319 0.930 . S
H315 C294 0.930 . S
H316 C327 0.931 . S
N317 Tb288 2.617 . S
N317 C318 1.379 . S
N317 C321 1.334 . S
C318 N317 1.379 . S
C318 C320 1.416 1_545 S
C318 C326 1.424 . S
C319 H314 0.930 . S
C319 C321 1.390 . S
C319 C322 1.323 1_545 S
C320 C318 1.416 1_565 S
C320 C322 1.420 . S
C320 C353 1.448 . S
C321 H306 0.930 . S
C321 N317 1.334 . S
C321 C319 1.390 . S
C322 C319 1.323 1_565 S
C322 C320 1.420 . S
C322 H329 0.943 . S
N323 Tb288 2.572 . S
N323 C324 1.340 . S
N323 C326 1.361 . S
C324 H310 0.930 1_655 S
C324 N323 1.340 . S
C324 C328 1.407 1_545 S
C325 C326 1.413 1_565 S
C325 C327 1.416 . S
C325 C354 1.427 . S
C326 C318 1.424 . S
C326 N323 1.361 . S
C326 C325 1.413 1_545 S
C327 H316 0.931 . S
C327 C325 1.416 . S
C327 C328 1.332 . S
C328 H307 0.929 1_655 S
C328 C324 1.407 1_565 S
C328 C327 1.332 . S
H329 C322 0.943 . S
H330 C353 0.930 . S
H331 C354 0.929 . S
O332 Tb288 2.465 . S
O332 C352 1.264 . S
O333 Tb288 2.387 1_565 S
O333 C344 1.264 . S
O334 Tb299 2.349 . S
O334 C344 1.243 1_455 S
O335 Tb288 2.428 . S
O335 C352 1.256 . S
O336 Tb288 2.308 1_455 S
O336 C351 1.266 . S
O337 Tb299 2.393 . S
O337 C351 1.248 1_565 S
O338 Tb299 2.465 . S
O338 C363 1.264 . S
O339 Tb299 2.387 1_545 S
O339 C355 1.264 . S
O340 Tb288 2.349 1_455 S
O340 C355 1.243 . S
O341 Tb299 2.428 . S
O341 C363 1.256 . S
O342 Tb299 2.308 1_645 S
O342 C362 1.266 . S
O343 Tb288 2.393 . S
O343 C362 1.248 . S
C344 O333 1.264 . S
C344 O334 1.243 1_655 S
C345 C348 1.399 . S
C345 C350 1.383 . S
C345 C352 1.496 . S
C346 C347 1.399 . S
C346 C350 1.389 . S
C347 C346 1.399 . S
C347 C349 1.380 . S
C347 H364 0.929 . S
C348 C345 1.399 . S
C348 C349 1.392 . S
C348 H365 0.929 . S
C349 C347 1.380 . S
C349 C348 1.392 . S
C349 H366 0.929 . S
C350 C345 1.383 . S
C350 C346 1.389 . S
C350 H367 0.931 1_655 S
C351 O336 1.266 . S
C351 O337 1.248 1_545 S
C352 Tb288 2.802 . S
C352 O332 1.264 . S
C352 O335 1.256 . S
C352 C345 1.496 . S
C353 C320 1.448 . S
C353 H330 0.930 . S
C353 C354 1.328 . S
C354 C325 1.427 . S
C354 H331 0.929 . S
C354 C353 1.328 . S
C355 O339 1.264 . S
C355 O340 1.243 . S
C356 C359 1.399 . S
C356 C360 1.383 . S
C356 C363 1.496 . S
C357 C358 1.399 . S
C357 C360 1.389 . S
C358 C357 1.399 . S
C358 C361 1.380 . S
C358 H368 0.929 . S
C359 C356 1.399 . S
C359 C361 1.392 . S
C359 H369 0.929 . S
C360 C356 1.383 . S
C360 C357 1.389 . S
C360 H370 0.931 . S
C361 C358 1.380 . S
C361 C359 1.392 . S
C361 H371 0.929 . S
C362 O342 1.266 . S
C362 O343 1.248 . S
C363 Tb299 2.802 . S
C363 O338 1.264 . S
C363 O341 1.256 . S
C363 C356 1.496 . S
H364 C347 0.929 . S
H365 C348 0.929 . S
H366 C349 0.929 . S
H367 C350 0.931 1_455 S
H368 C358 0.929 . S
H369 C359 0.929 . S
H370 C360 0.931 . S
H371 C361 0.929 . S
Tb372 N401 2.617 . S
Tb372 N407 2.572 . S
Tb372 O416 2.465 . S
Tb372 O417 2.387 . S
Tb372 O419 2.428 . S
Tb372 O420 2.308 . S
Tb372 O424 2.349 1_545 S
Tb372 O427 2.393 . S
Tb372 C436 2.802 . S
C373 N374 1.379 . S
C373 C376 1.416 . S
C373 C380 1.424 . S
N374 C373 1.379 . S
N374 C377 1.334 . S
N374 Tb383 2.617 . S
C375 C377 1.390 . S
C375 C378 1.339 . S
C375 H395 0.930 . S
C376 C373 1.416 . S
C376 C378 1.416 . S
C376 C382 1.448 . S
C377 N374 1.334 . S
C377 C375 1.390 . S
C377 H388 0.930 . S
C378 C375 1.339 . S
C378 C376 1.416 . S
C378 H399 0.930 . S
C379 C380 1.413 . S
C379 C381 1.427 . S
C379 C385 1.416 . S
C380 C373 1.424 . S
C380 C379 1.413 . S
C380 N384 1.361 . S
C381 C379 1.427 . S
C381 C382 1.328 . S
C381 H396 0.929 . S
C382 C376 1.448 . S
C382 C381 1.328 . S
C382 H397 0.930 . S
Tb383 N374 2.617 . S
Tb383 N384 2.572 . S
Tb383 O418 2.349 1_565 S
Tb383 O421 2.393 . S
Tb383 O422 2.465 . S
Tb383 O423 2.387 . S
Tb383 O425 2.428 . S
Tb383 O426 2.308 1_565 S
Tb383 C447 2.802 . S
N384 C380 1.361 . S
N384 Tb383 2.572 . S
N384 C386 1.340 . S
C385 C379 1.416 . S
C385 C387 1.332 . S
C385 H393 0.931 . S
C386 N384 1.340 . S
C386 C387 1.407 . S
C386 H392 0.930 . S
C387 C385 1.332 . S
C387 C386 1.407 . S
C387 H389 0.929 . S
H388 C377 0.930 . S
H389 C387 0.929 . S
H390 C405 0.930 . S
H391 C412 0.929 . S
H392 C386 0.930 . S
H393 C385 0.931 . S
H394 C408 0.930 . S
H395 C375 0.930 . S
H396 C381 0.929 . S
H397 C382 0.930 . S
H398 C403 0.930 . S
H399 C378 0.930 . S
H400 C411 0.931 . S
N401 Tb372 2.617 . S
N401 C402 1.379 . S
N401 C405 1.334 . S
C402 N401 1.379 . S
C402 C404 1.416 . S
C402 C410 1.424 . S
C403 H398 0.930 . S
C403 C405 1.390 . S
C403 C406 1.339 . S
C404 C402 1.416 . S
C404 C406 1.416 . S
C404 C437 1.448 . S
C405 H390 0.930 . S
C405 N401 1.334 . S
C405 C403 1.390 . S
C406 C403 1.339 . S
C406 C404 1.416 . S
C406 H413 0.930 . S
N407 Tb372 2.572 . S
N407 C408 1.340 . S
N407 C410 1.361 . S
C408 H394 0.930 . S
C408 N407 1.340 . S
C408 C412 1.407 . S
C409 C410 1.413 . S
C409 C411 1.416 . S
C409 C438 1.427 . S
C410 C402 1.424 . S
C410 N407 1.361 . S
C410 C409 1.413 . S
C411 H400 0.931 . S
C411 C409 1.416 . S
C411 C412 1.332 . S
C412 H391 0.929 . S
C412 C408 1.407 . S
C412 C411 1.332 . S
H413 C406 0.930 . S
H414 C437 0.930 . S
H415 C438 0.929 . S
O416 Tb372 2.465 . S
O416 C436 1.264 . S
O417 Tb372 2.387 . S
O417 C428 1.264 . S
O418 Tb383 2.349 1_545 S
O418 C428 1.243 . S
O419 Tb372 2.428 . S
O419 C436 1.256 . S
O420 Tb372 2.308 . S
O420 C435 1.250 1_545 S
O421 Tb383 2.393 . S
O421 C435 1.259 . S
O422 Tb383 2.465 . S
O422 C447 1.264 . S
O423 Tb383 2.387 . S
O423 C439 1.264 . S
O424 Tb372 2.349 1_565 S
O424 C439 1.243 . S
O425 Tb383 2.428 . S
O425 C447 1.256 . S
O426 Tb383 2.308 1_545 S
O426 C446 1.266 . S
O427 Tb372 2.393 . S
O427 C446 1.248 . S
C428 O417 1.264 . S
C428 O418 1.243 . S
C429 C432 1.399 . S
C429 C434 1.383 . S
C429 C436 1.496 . S
C430 C431 1.399 . S
C430 C434 1.389 . S
C431 C430 1.399 . S
C431 C433 1.380 . S
C431 H448 0.929 . S
C432 C429 1.399 . S
C432 C433 1.392 . S
C432 H449 0.929 . S
C433 C431 1.380 . S
C433 C432 1.392 . S
C433 H450 0.920 1_556 S
C434 C429 1.383 . S
C434 C430 1.389 . S
C434 H451 0.931 . S
C435 O420 1.250 1_565 S
C435 O421 1.259 . S
C436 Tb372 2.802 . S
C436 O416 1.264 . S
C436 O419 1.256 . S
C436 C429 1.496 . S
C437 C404 1.448 . S
C437 H414 0.930 . S
C437 C438 1.328 . S
C438 C409 1.427 . S
C438 H415 0.929 . S
C438 C437 1.328 . S
C439 O423 1.264 . S
C439 O424 1.243 . S
C440 C443 1.399 . S
C440 C444 1.383 1_565 S
C440 C447 1.496 . S
C441 C442 1.399 1_545 S
C441 C444 1.389 . S
C442 C441 1.399 1_565 S
C442 C445 1.380 . S
C442 H452 0.929 . S
C443 C440 1.399 . S
C443 C445 1.392 . S
C443 H453 0.929 . S
C444 C440 1.383 1_545 S
C444 C441 1.389 . S
C444 H454 0.931 . S
C445 C442 1.380 . S
C445 C443 1.392 . S
C445 H455 0.929 . S
C446 O426 1.266 . S
C446 O427 1.248 . S
C447 Tb383 2.802 . S
C447 O422 1.264 . S
C447 O425 1.256 . S
C447 C440 1.496 . S
H448 C431 0.929 . S
H449 C432 0.929 . S
H450 C433 0.920 1_554 S
H451 C434 0.931 . S
H452 C442 0.929 . S
H453 C443 0.929 . S
H454 C444 0.931 . S
H455 C445 0.929 . S
Tb456 N485 2.617 . S
Tb456 N491 2.572 . S
Tb456 O500 2.465 . S
Tb456 O501 2.387 . S
Tb456 O503 2.428 . S
Tb456 O504 2.308 . S
Tb456 O508 2.349 . S
Tb456 O511 2.393 . S
Tb456 C520 2.802 . S
C457 N458 1.379 . S
C457 C460 1.416 . S
C457 C464 1.424 . S
N458 C457 1.379 . S
N458 C461 1.334 . S
N458 Tb467 2.617 . S
C459 C461 1.390 . S
C459 C462 1.339 . S
C459 H479 0.930 . S
C460 C457 1.416 . S
C460 C462 1.416 . S
C460 C466 1.448 . S
C461 N458 1.334 . S
C461 C459 1.390 . S
C461 H472 0.930 . S
C462 C459 1.339 . S
C462 C460 1.416 . S
C462 H483 0.930 . S
C463 C464 1.413 . S
C463 C465 1.427 . S
C463 C469 1.416 . S
C464 C457 1.424 . S
C464 C463 1.413 . S
C464 N468 1.361 . S
C465 C463 1.427 . S
C465 C466 1.328 . S
C465 H480 0.929 . S
C466 C460 1.448 . S
C466 C465 1.328 . S
C466 H481 0.930 . S
Tb467 N458 2.617 . S
Tb467 N468 2.572 . S
Tb467 O502 2.349 . S
Tb467 O505 2.393 . S
Tb467 O506 2.465 . S
Tb467 O507 2.387 . S
Tb467 O509 2.428 . S
Tb467 O510 2.308 . S
Tb467 C531 2.802 . S
N468 C464 1.361 . S
N468 Tb467 2.572 . S
N468 C470 1.340 . S
C469 C463 1.416 . S
C469 C471 1.332 . S
C469 H477 0.931 . S
C470 N468 1.340 . S
C470 C471 1.407 . S
C470 H476 0.930 . S
C471 C469 1.332 . S
C471 C470 1.407 . S
C471 H473 0.929 . S
H472 C461 0.930 . S
H473 C471 0.929 . S
H474 C489 0.930 . S
H475 C496 0.929 . S
H476 C470 0.930 . S
H477 C469 0.931 . S
H478 C492 0.930 . S
H479 C459 0.930 . S
H480 C465 0.929 . S
H481 C466 0.930 . S
H482 C487 0.930 . S
H483 C462 0.930 . S
H484 C495 0.931 . S
N485 Tb456 2.617 . S
N485 C486 1.379 . S
N485 C489 1.334 . S
C486 N485 1.379 . S
C486 C488 1.416 . S
C486 C494 1.424 . S
C487 H482 0.930 . S
C487 C489 1.390 . S
C487 C490 1.339 . S
C488 C486 1.416 . S
C488 C490 1.416 . S
C488 C521 1.448 . S
C489 H474 0.930 . S
C489 N485 1.334 . S
C489 C487 1.390 . S
C490 C487 1.339 . S
C490 C488 1.416 . S
C490 H497 0.930 . S
N491 Tb456 2.572 . S
N491 C492 1.340 . S
N491 C494 1.361 . S
C492 H478 0.930 . S
C492 N491 1.340 . S
C492 C496 1.407 . S
C493 C494 1.413 . S
C493 C495 1.416 . S
C493 C522 1.427 . S
C494 C486 1.424 . S
C494 N491 1.361 . S
C494 C493 1.413 . S
C495 H484 0.931 . S
C495 C493 1.416 . S
C495 C496 1.332 . S
C496 H475 0.929 . S
C496 C492 1.407 . S
C496 C495 1.332 . S
H497 C490 0.930 . S
H498 C521 0.930 . S
H499 C522 0.929 . S
O500 Tb456 2.465 . S
O500 C520 1.264 . S
O501 Tb456 2.387 . S
O501 C512 1.264 . S
O502 Tb467 2.349 . S
O502 C512 1.243 . S
O503 Tb456 2.428 . S
O503 C520 1.256 . S
O504 Tb456 2.308 . S
O504 C519 1.266 . S
O505 Tb467 2.393 . S
O505 C519 1.248 . S
O506 Tb467 2.465 . S
O506 C531 1.264 . S
O507 Tb467 2.387 . S
O507 C523 1.264 . S
O508 Tb456 2.349 . S
O508 C523 1.243 . S
O509 Tb467 2.428 . S
O509 C531 1.256 . S
O510 Tb467 2.308 . S
O510 C530 1.266 . S
O511 Tb456 2.393 . S
O511 C530 1.248 . S
C512 O501 1.264 . S
C512 O502 1.243 . S
C513 C516 1.399 . S
C513 C518 1.383 . S
C513 C520 1.496 . S
C514 C515 1.399 . S
C514 C518 1.389 . S
C515 C514 1.399 . S
C515 C517 1.380 . S
C515 H532 0.929 . S
C516 C513 1.399 . S
C516 C517 1.392 . S
C516 H533 0.929 . S
C517 C515 1.380 . S
C517 C516 1.392 . S
C517 H534 0.929 . S
C518 C513 1.383 . S
C518 C514 1.389 . S
C518 H535 0.931 . S
C519 O504 1.266 . S
C519 O505 1.248 . S
C520 Tb456 2.802 . S
C520 O500 1.264 . S
C520 O503 1.256 . S
C520 C513 1.496 . S
C521 C488 1.448 . S
C521 H498 0.930 . S
C521 C522 1.328 . S
C522 C493 1.427 . S
C522 H499 0.929 . S
C522 C521 1.328 . S
C523 O507 1.264 . S
C523 O508 1.243 . S
C524 C527 1.399 . S
C524 C528 1.383 . S
C524 C531 1.496 . S
C525 C526 1.399 . S
C525 C528 1.389 . S
C526 C525 1.399 . S
C526 C529 1.380 . S
C526 H536 0.929 . S
C527 C524 1.399 . S
C527 C529 1.392 . S
C527 H537 0.929 . S
C528 C524 1.383 . S
C528 C525 1.389 . S
C528 H538 0.931 . S
C529 C526 1.380 . S
C529 C527 1.392 . S
C529 H539 0.929 . S
C530 O510 1.266 . S
C530 O511 1.248 . S
C531 Tb467 2.802 . S
C531 O506 1.264 . S
C531 O509 1.256 . S
C531 C524 1.496 . S
H532 C515 0.929 . S
H533 C516 0.929 . S
H534 C517 0.929 . S
H535 C518 0.931 . S
H536 C526 0.929 . S
H537 C527 0.929 . S
H538 C528 0.931 . S
H539 C529 0.929 . S
Tb540 N569 2.617 . S
Tb540 N575 2.572 . S
Tb540 O584 2.465 . S
Tb540 O585 2.387 1_455 S
Tb540 O587 2.428 . S
Tb540 O588 2.308 . S
Tb540 O592 2.349 . S
Tb540 O595 2.393 . S
Tb540 C604 2.802 . S
C541 N542 1.379 1_455 S
C541 C544 1.416 . S
C541 C548 1.424 . S
N542 C541 1.379 1_655 S
N542 C545 1.334 . S
N542 Tb551 2.617 . S
C543 C545 1.390 1_455 S
C543 C546 1.339 . S
C543 H563 0.930 1_455 S
C544 C541 1.416 . S
C544 C546 1.416 . S
C544 C550 1.448 . S
C545 N542 1.334 . S
C545 C543 1.390 1_655 S
C545 H556 0.930 . S
C546 C543 1.339 . S
C546 C544 1.416 . S
C546 H567 0.930 . S
C547 C548 1.413 . S
C547 C549 1.427 . S
C547 C553 1.416 . S
C548 C541 1.424 . S
C548 C547 1.413 . S
C548 N552 1.361 . S
C549 C547 1.427 . S
C549 C550 1.328 . S
C549 H564 0.929 . S
C550 C544 1.448 . S
C550 C549 1.328 . S
C550 H565 0.930 . S
Tb551 N542 2.617 . S
Tb551 N552 2.572 1_655 S
Tb551 O586 2.349 . S
Tb551 O589 2.393 . S
Tb551 O590 2.465 . S
Tb551 O591 2.387 1_655 S
Tb551 O593 2.428 . S
Tb551 O594 2.321 . S
Tb551 C615 2.802 . S
N552 C548 1.361 . S
N552 Tb551 2.572 1_455 S
N552 C554 1.340 . S
C553 C547 1.416 . S
C553 C555 1.332 . S
C553 H561 0.931 . S
C554 N552 1.340 . S
C554 C555 1.407 . S
C554 H560 0.930 1_455 S
C555 C553 1.332 . S
C555 C554 1.407 . S
C555 H557 0.929 . S
H556 C545 0.930 . S
H557 C555 0.929 . S
H558 C573 0.930 . S
H559 C580 0.929 . S
H560 C554 0.930 1_655 S
H561 C553 0.931 . S
H562 C576 0.930 . S
H563 C543 0.930 1_655 S
H564 C549 0.929 . S
H565 C550 0.930 . S
H566 C571 0.930 . S
H567 C546 0.930 . S
H568 C579 0.931 . S
N569 Tb540 2.617 . S
N569 C570 1.379 . S
N569 C573 1.334 . S
C570 N569 1.379 . S
C570 C572 1.416 1_455 S
C570 C578 1.426 . S
C571 H566 0.930 . S
C571 C573 1.390 . S
C571 C574 1.339 1_455 S
C572 C570 1.416 1_655 S
C572 C574 1.416 . S
C572 C605 1.448 . S
C573 H558 0.930 . S
C573 N569 1.334 . S
C573 C571 1.390 . S
C574 C571 1.339 1_655 S
C574 C572 1.416 . S
C574 H581 0.930 . S
N575 Tb540 2.572 . S
N575 C576 1.340 . S
N575 C578 1.369 . S
C576 H562 0.930 . S
C576 N575 1.340 . S
C576 C580 1.407 1_455 S
C577 C578 1.403 1_655 S
C577 C579 1.416 . S
C577 C606 1.427 . S
C578 C570 1.426 . S
C578 N575 1.369 . S
C578 C577 1.403 1_455 S
C579 H568 0.931 . S
C579 C577 1.416 . S
C579 C580 1.332 . S
C580 H559 0.929 . S
C580 C576 1.407 1_655 S
C580 C579 1.332 . S
H581 C574 0.930 . S
H582 C605 0.930 . S
H583 C606 0.929 . S
O584 Tb540 2.465 . S
O584 C604 1.264 . S
O585 Tb540 2.387 1_655 S
O585 C596 1.264 . S
O586 Tb551 2.349 . S
O586 C596 1.243 . S
O587 Tb540 2.428 . S
O587 C604 1.256 . S
O588 Tb540 2.308 . S
O588 C603 1.266 . S
O589 Tb551 2.393 . S
O589 C603 1.248 1_655 S
O590 Tb551 2.465 . S
O590 C615 1.264 . S
O591 Tb551 2.387 1_455 S
O591 C607 1.264 . S
O592 Tb540 2.349 . S
O592 C607 1.243 . S
O593 Tb551 2.428 . S
O593 C615 1.256 . S
O594 Tb551 2.321 . S
O594 C614 1.257 1_655 S
O595 Tb540 2.393 . S
O595 C614 1.248 . S
C596 O585 1.264 . S
C596 O586 1.243 . S
C597 C600 1.399 . S
C597 C602 1.383 . S
C597 C604 1.496 . S
C598 C599 1.399 . S
C598 C602 1.389 . S
C599 C598 1.399 . S
C599 C601 1.380 . S
C599 H616 0.929 . S
C600 C597 1.399 . S
C600 C601 1.392 . S
C600 H617 0.929 . S
C601 C599 1.380 . S
C601 C600 1.392 . S
C601 H618 0.929 . S
C602 C597 1.383 . S
C602 C598 1.389 . S
C602 H619 0.931 . S
C603 O588 1.266 . S
C603 O589 1.248 1_455 S
C604 Tb540 2.802 . S
C604 O584 1.264 . S
C604 O587 1.256 . S
C604 C597 1.496 . S
C605 C572 1.448 . S
C605 H582 0.930 . S
C605 C606 1.328 . S
C606 C577 1.427 . S
C606 H583 0.929 . S
C606 C605 1.328 . S
C607 O591 1.264 . S
C607 O592 1.243 . S
C608 C611 1.399 . S
C608 C612 1.383 . S
C608 C615 1.496 . S
C609 C610 1.399 . S
C609 C612 1.389 . S
C610 C609 1.399 . S
C610 C613 1.380 . S
C610 H620 0.929 . S
C611 C608 1.399 . S
C611 C613 1.392 . S
C611 H621 0.929 . S
C612 C608 1.383 . S
C612 C609 1.389 . S
C612 H622 0.931 . S
C613 C610 1.380 . S
C613 C611 1.392 . S
C613 H623 0.929 . S
C614 O594 1.257 1_455 S
C614 O595 1.248 . S
C615 Tb551 2.802 . S
C615 O590 1.264 . S
C615 O593 1.256 . S
C615 C608 1.496 . S
H616 C599 0.929 . S
H617 C600 0.929 . S
H618 C601 0.929 . S
H619 C602 0.931 . S
H620 C610 0.929 . S
H621 C611 0.929 . S
H622 C612 0.931 . S
H623 C613 0.929 . S
H624 C630 0.930 . S
H625 C634 0.930 1_565 S
H626 C639 0.929 . S
H627 C637 0.929 . S
H628 C632 0.929 1_565 S
H629 C638 0.929 . S
C630 H624 0.930 . S
C630 C631 1.367 . S
C630 C638 1.378 . S
C631 C630 1.367 . S
C631 C639 1.433 . S
C632 H628 0.929 1_545 S
C632 C634 1.378 . S
C632 C636 1.350 . S
C633 C636 1.463 . S
C633 C638 1.350 . S
C633 N641 1.427 . S
C634 H625 0.930 1_545 S
C634 C632 1.378 . S
C634 C635 1.367 . S
C635 C634 1.367 . S
C635 C637 1.433 . S
C636 C632 1.350 . S
C636 C633 1.463 . S
C636 N640 1.427 . S
C637 H627 0.929 . S
C637 C635 1.433 . S
C637 N640 1.384 . S
C638 H629 0.929 . S
C638 C630 1.378 . S
C638 C633 1.350 . S
C639 H626 0.929 . S
C639 C631 1.433 . S
C639 N641 1.384 . S
N640 C636 1.427 . S
N640 C637 1.384 . S
N641 C633 1.427 . S
N641 C639 1.384 . S
H642 C648 0.930 . S
H643 C652 0.930 . S
H644 C657 0.929 . S
H645 C655 0.929 . S
H646 C650 0.929 . S
H647 C656 0.929 . S
C648 H642 0.930 . S
C648 C649 1.367 . S
C648 C656 1.378 . S
C649 C648 1.367 . S
C649 C657 1.433 . S
C650 H646 0.929 . S
C650 C652 1.378 . S
C650 C654 1.350 . S
C651 C654 1.463 . S
C651 C656 1.350 . S
C651 N659 1.427 . S
C652 H643 0.930 . S
C652 C650 1.378 . S
C652 C653 1.367 . S
C653 C652 1.367 . S
C653 C655 1.433 . S
C654 C650 1.350 . S
C654 C651 1.463 . S
C654 N658 1.427 . S
C655 H645 0.929 . S
C655 C653 1.433 . S
C655 N658 1.384 . S
C656 H647 0.929 . S
C656 C648 1.378 . S
C656 C651 1.350 . S
C657 H644 0.929 . S
C657 C649 1.433 . S
C657 N659 1.384 . S
N658 C654 1.427 . S
N658 C655 1.384 . S
N659 C651 1.427 . S
N659 C657 1.384 . S
H660 C666 0.930 . S
H661 C670 0.930 . S
H662 C675 0.929 . S
H663 C673 0.929 . S
H664 C668 0.929 . S
H665 C674 0.929 . S
C666 H660 0.930 . S
C666 C667 1.367 . S
C666 C674 1.378 . S
C667 C666 1.367 . S
C667 C675 1.433 . S
C668 H664 0.929 . S
C668 C670 1.378 . S
C668 C672 1.350 . S
C669 C672 1.463 . S
C669 C674 1.350 . S
C669 N677 1.427 . S
C670 H661 0.930 . S
C670 C668 1.378 . S
C670 C671 1.367 . S
C671 C670 1.367 . S
C671 C673 1.433 . S
C672 C668 1.350 . S
C672 C669 1.463 . S
C672 N676 1.427 . S
C673 H663 0.929 . S
C673 C671 1.433 . S
C673 N676 1.384 . S
C674 H665 0.929 . S
C674 C666 1.378 . S
C674 C669 1.350 . S
C675 H662 0.929 . S
C675 C667 1.433 . S
C675 N677 1.384 . S
N676 C672 1.427 . S
N676 C673 1.384 . S
N677 C669 1.427 . S
N677 C675 1.384 . S
H678 C684 0.930 . S
H679 C688 0.930 1_655 S
H680 C693 0.929 . S
H681 C691 0.929 . S
H682 C686 0.929 . S
H683 C692 0.929 . S
C684 H678 0.930 . S
C684 C685 1.367 . S
C684 C692 1.378 . S
C685 C684 1.367 . S
C685 C693 1.433 . S
C686 H682 0.929 . S
C686 C688 1.378 . S
C686 C690 1.350 . S
C687 C690 1.463 . S
C687 C692 1.350 . S
C687 N695 1.427 . S
C688 H679 0.930 1_455 S
C688 C686 1.378 . S
C688 C689 1.367 . S
C689 C688 1.367 . S
C689 C691 1.433 . S
C690 C686 1.350 . S
C690 C687 1.463 . S
C690 N694 1.427 . S
C691 H681 0.929 . S
C691 C689 1.433 . S
C691 N694 1.384 . S
C692 H683 0.929 . S
C692 C684 1.378 . S
C692 C687 1.350 . S
C693 H680 0.929 . S
C693 C685 1.433 . S
C693 N695 1.384 . S
N694 C690 1.427 . S
N694 C691 1.384 . S
N695 C687 1.427 . S
N695 C693 1.384 . S
H696 C702 0.930 1_545 S
H697 C706 0.930 . S
H698 C711 0.929 . S
H699 C709 0.929 . S
H700 C704 0.929 . S
H701 C710 0.905 1_545 S
C702 H696 0.930 1_565 S
C702 C703 1.367 . S
C702 C710 1.383 . S
C703 C702 1.367 . S
C703 C711 1.433 . S
C704 H700 0.929 . S
C704 C706 1.378 . S
C704 C708 1.350 . S
C705 C708 1.463 . S
C705 C710 1.369 1_556 S
C705 N713 1.427 . S
C706 H697 0.930 . S
C706 C704 1.378 . S
C706 C707 1.367 . S
C707 C706 1.367 . S
C707 C709 1.433 1_565 S
C708 C704 1.350 . S
C708 C705 1.463 . S
C708 N712 1.427 1_565 S
C709 H699 0.929 . S
C709 C707 1.433 1_545 S
C709 N712 1.384 . S
C710 H701 0.905 1_565 S
C710 C702 1.383 . S
C710 C705 1.369 1_554 S
C711 H698 0.929 . S
C711 C703 1.433 . S
C711 N713 1.384 1_554 S
N712 C708 1.427 1_545 S
N712 C709 1.384 . S
N713 C705 1.427 . S
N713 C711 1.384 1_556 S
H714 C720 0.930 . S
H715 C724 0.930 . S
H716 C729 0.929 . S
H717 C727 0.929 . S
H718 C722 0.929 . S
H719 C728 0.929 1_556 S
C720 H714 0.930 . S
C720 C721 1.367 . S
C720 C728 1.378 . S
C721 C720 1.367 . S
C721 C729 1.433 . S
C722 H718 0.929 . S
C722 C724 1.378 . S
C722 C726 1.350 . S
C723 C726 1.463 . S
C723 C728 1.350 1_556 S
C723 N731 1.427 1_556 S
C724 H715 0.930 . S
C724 C722 1.378 . S
C724 C725 1.367 . S
C725 C724 1.367 . S
C725 C727 1.433 . S
C726 C722 1.350 . S
C726 C723 1.463 . S
C726 N730 1.427 . S
C727 H717 0.929 . S
C727 C725 1.433 . S
C727 N730 1.384 . S
C728 H719 0.929 1_554 S
C728 C720 1.378 . S
C728 C723 1.350 1_554 S
C729 H716 0.929 . S
C729 C721 1.433 . S
C729 N731 1.384 . S
N730 C726 1.427 . S
N730 C727 1.384 . S
N731 C723 1.427 1_554 S
N731 C729 1.384 . S
H732 C738 0.930 . S
H733 C742 0.930 . S
H734 C747 0.929 . S
H735 C745 0.929 . S
H736 C740 0.929 . S
H737 C746 0.929 1_556 S
C738 H732 0.930 . S
C738 C739 1.367 . S
C738 C746 1.378 . S
C739 C738 1.367 . S
C739 C747 1.433 . S
C740 H736 0.929 . S
C740 C742 1.378 . S
C740 C744 1.350 . S
C741 C744 1.463 . S
C741 C746 1.350 1_556 S
C741 N749 1.427 1_556 S
C742 H733 0.930 . S
C742 C740 1.378 . S
C742 C743 1.367 . S
C743 C742 1.367 . S
C743 C745 1.433 . S
C744 C740 1.350 . S
C744 C741 1.463 . S
C744 N748 1.427 . S
C745 H735 0.929 . S
C745 C743 1.433 . S
C745 N748 1.384 . S
C746 H737 0.929 1_554 S
C746 C738 1.378 . S
C746 C741 1.350 1_554 S
C747 H734 0.929 . S
C747 C739 1.433 . S
C747 N749 1.384 . S
N748 C744 1.427 . S
N748 C745 1.384 . S
N749 C741 1.427 1_554 S
N749 C747 1.384 . S
H750 C756 0.930 1_455 S
H751 C760 0.930 . S
H752 C765 0.929 . S
H753 C763 0.929 . S
H754 C758 0.929 . S
H755 C764 0.888 1_455 S
C756 H750 0.930 1_655 S
C756 C757 1.367 . S
C756 C764 1.386 . S
C757 C756 1.367 . S
C757 C765 1.433 . S
C758 H754 0.929 . S
C758 C760 1.378 . S
C758 C762 1.350 . S
C759 C762 1.463 . S
C759 C764 1.384 1_556 S
C759 N767 1.427 . S
C760 H751 0.930 . S
C760 C758 1.378 . S
C760 C761 1.367 . S
C761 C760 1.367 . S
C761 C763 1.433 1_655 S
C762 C758 1.350 . S
C762 C759 1.463 . S
C762 N766 1.427 1_655 S
C763 H753 0.929 . S
C763 C761 1.433 1_455 S
C763 N766 1.384 . S
C764 H755 0.888 1_655 S
C764 C756 1.386 . S
C764 C759 1.384 1_554 S
C765 H752 0.929 . S
C765 C757 1.433 . S
C765 N767 1.384 1_554 S
N766 C762 1.427 1_455 S
N766 C763 1.384 . S
N767 C759 1.427 . S
N767 C765 1.384 1_556 S
H768 C774 0.930 . S
H769 C778 0.930 . S
H770 C783 0.929 . S
H771 C781 0.929 . S
H772 C776 0.921 1_655 S
H773 C782 0.929 . S
C774 H768 0.930 . S
C774 C775 1.367 . S
C774 C782 1.378 . S
C775 C774 1.367 . S
C775 C783 1.433 . S
C776 H772 0.921 1_455 S
C776 C778 1.378 1_455 S
C776 C780 1.350 . S
C777 C780 1.463 . S
C777 C782 1.350 . S
C777 N785 1.427 . S
C778 H769 0.930 . S
C778 C776 1.378 1_655 S
C778 C779 1.367 . S
C779 C778 1.367 . S
C779 C781 1.433 1_655 S
C780 C776 1.350 . S
C780 C777 1.463 . S
C780 N784 1.427 . S
C781 H771 0.929 . S
C781 C779 1.433 1_455 S
C781 N784 1.384 . S
C782 H773 0.929 . S
C782 C774 1.378 . S
C782 C777 1.350 . S
C783 H770 0.929 . S
C783 C775 1.433 . S
C783 N785 1.384 . S
N784 C780 1.427 . S
N784 C781 1.384 . S
N785 C777 1.427 . S
N785 C783 1.384 . S
H786 C792 0.930 . S
H787 C796 0.930 . S
H788 C801 0.929 . S
H789 C799 0.929 . S
H790 C794 0.929 . S
H791 C800 0.929 . S
C792 H786 0.930 . S
C792 C793 1.367 . S
C792 C800 1.378 . S
C793 C792 1.367 . S
C793 C801 1.433 . S
C794 H790 0.929 . S
C794 C796 1.378 . S
C794 C798 1.350 . S
C795 C798 1.463 . S
C795 C800 1.350 . S
C795 N803 1.427 . S
C796 H787 0.930 . S
C796 C794 1.378 . S
C796 C797 1.367 . S
C797 C796 1.367 . S
C797 C799 1.433 1_545 S
C798 C794 1.350 . S
C798 C795 1.463 . S
C798 N802 1.427 1_545 S
C799 H789 0.929 . S
C799 C797 1.433 1_565 S
C799 N802 1.384 . S
C800 H791 0.929 . S
C800 C792 1.378 . S
C800 C795 1.350 . S
C801 H788 0.929 . S
C801 C793 1.433 . S
C801 N803 1.384 . S
N802 C798 1.427 1_565 S
N802 C799 1.384 . S
N803 C795 1.427 . S
N803 C801 1.384 . S
H804 C810 0.930 . S
H805 C814 0.930 . S
H806 C819 0.929 . S
H807 C817 0.929 . S
H808 C812 0.929 . S
H809 C818 0.929 . S
C810 H804 0.930 . S
C810 C811 1.367 . S
C810 C818 1.378 . S
C811 C810 1.367 . S
C811 C819 1.433 . S
C812 H808 0.929 . S
C812 C814 1.378 . S
C812 C816 1.350 . S
C813 C816 1.463 . S
C813 C818 1.350 . S
C813 N821 1.427 . S
C814 H805 0.930 . S
C814 C812 1.378 . S
C814 C815 1.367 . S
C815 C814 1.367 . S
C815 C817 1.433 . S
C816 C812 1.350 . S
C816 C813 1.463 . S
C816 N820 1.427 . S
C817 H807 0.929 . S
C817 C815 1.433 . S
C817 N820 1.384 . S
C818 H809 0.929 . S
C818 C810 1.378 . S
C818 C813 1.350 . S
C819 H806 0.929 . S
C819 C811 1.433 . S
C819 N821 1.384 . S
N820 C816 1.427 . S
N820 C817 1.384 . S
N821 C813 1.427 . S
N821 C819 1.384 . S
H822 C828 0.930 . S
H823 C832 0.930 . S
H824 C837 0.929 . S
H825 C835 0.929 . S
H826 C830 0.929 . S
H827 C836 0.929 . S
C828 H822 0.930 . S
C828 C829 1.367 . S
C828 C836 1.378 . S
C829 C828 1.367 . S
C829 C837 1.433 . S
C830 H826 0.929 . S
C830 C832 1.378 . S
C830 C834 1.350 . S
C831 C834 1.463 . S
C831 C836 1.350 . S
C831 N839 1.427 . S
C832 H823 0.930 . S
C832 C830 1.378 . S
C832 C833 1.367 . S
C833 C832 1.367 . S
C833 C835 1.433 . S
C834 C830 1.350 . S
C834 C831 1.463 . S
C834 N838 1.427 . S
C835 H825 0.929 . S
C835 C833 1.433 . S
C835 N838 1.384 . S
C836 H827 0.929 . S
C836 C828 1.378 . S
C836 C831 1.350 . S
C837 H824 0.929 . S
C837 C829 1.433 . S
C837 N839 1.384 . S
N838 C834 1.427 . S
N838 C835 1.384 . S
N839 C831 1.427 . S
N839 C837 1.384 . S
H840 C846 0.930 . S
H841 C850 0.930 . S
H842 C855 0.929 . S
H843 C853 0.929 . S
H844 C848 0.929 . S
H845 C854 0.929 1_455 S
C846 H840 0.930 . S
C846 C847 1.367 . S
C846 C854 1.378 . S
C847 C846 1.367 . S
C847 C855 1.433 1_554 S
C848 H844 0.929 . S
C848 C850 1.378 . S
C848 C852 1.350 . S
C849 C852 1.463 . S
C849 C854 1.350 1_556 S
C849 N857 1.427 . S
C850 H841 0.930 . S
C850 C848 1.378 . S
C850 C851 1.367 1_655 S
C851 C850 1.367 1_455 S
C851 C853 1.433 . S
C852 C848 1.350 . S
C852 C849 1.463 . S
C852 N856 1.427 1_655 S
C853 H843 0.929 . S
C853 C851 1.433 . S
C853 N856 1.384 . S
C854 H845 0.929 1_655 S
C854 C846 1.378 . S
C854 C849 1.350 1_554 S
C855 H842 0.929 . S
C855 C847 1.433 1_556 S
C855 N857 1.384 . S
N856 C852 1.427 1_455 S
N856 C853 1.384 . S
N857 C849 1.427 . S
N857 C855 1.384 . S
H858 C864 0.930 . S
H859 C868 0.930 . S
H860 C873 0.929 . S
H861 C871 0.929 . S
H862 C866 0.929 . S
H863 C872 0.929 . S
C864 H858 0.930 . S
C864 C865 1.367 . S
C864 C872 1.378 . S
C865 C864 1.367 . S
C865 C873 1.433 1_554 S
C866 H862 0.929 . S
C866 C868 1.378 . S
C866 C870 1.350 1_545 S
C867 C870 1.463 . S
C867 C872 1.350 1_556 S
C867 N875 1.427 . S
C868 H859 0.930 . S
C868 C866 1.378 . S
C868 C869 1.367 . S
C869 C868 1.367 . S
C869 C871 1.433 . S
C870 C866 1.350 1_565 S
C870 C867 1.463 . S
C870 N874 1.427 . S
C871 H861 0.929 . S
C871 C869 1.433 . S
C871 N874 1.384 1_545 S
C872 H863 0.929 . S
C872 C864 1.378 . S
C872 C867 1.350 1_554 S
C873 H860 0.929 . S
C873 C865 1.433 1_556 S
C873 N875 1.384 . S
N874 C870 1.427 . S
N874 C871 1.384 1_565 S
N875 C867 1.427 . S
N875 C873 1.384 . S
H876 C882 0.930 . S
H877 C886 0.930 . S
H878 C891 0.929 . S
H879 C889 0.929 . S
H880 C884 0.929 1_554 S
H881 C890 0.929 . S
C882 H876 0.930 . S
C882 C883 1.367 1_556 S
C882 C890 1.378 . S
C883 C882 1.367 1_554 S
C883 C891 1.433 . S
C884 H880 0.929 1_556 S
C884 C886 1.378 . S
C884 C888 1.350 . S
C885 C888 1.463 . S
C885 C890 1.350 . S
C885 N893 1.427 1_556 S
C886 H877 0.930 . S
C886 C884 1.378 . S
C886 C887 1.367 . S
C887 C886 1.367 . S
C887 C889 1.433 . S
C888 C884 1.350 . S
C888 C885 1.463 . S
C888 N892 1.427 . S
C889 H879 0.929 . S
C889 C887 1.433 . S
C889 N892 1.384 . S
C890 H881 0.929 . S
C890 C882 1.378 . S
C890 C885 1.350 . S
C891 H878 0.929 . S
C891 C883 1.433 . S
C891 N893 1.384 . S
N892 C888 1.427 . S
N892 C889 1.384 . S
N893 C885 1.427 1_554 S
N893 C891 1.384 . S
H894 C900 0.930 . S
H895 C904 0.930 . S
H896 C909 0.929 . S
H897 C907 0.929 . S
H898 C902 0.929 . S
H899 C908 0.929 . S
C900 H894 0.930 . S
C900 C901 1.367 . S
C900 C908 1.378 1_554 S
C901 C900 1.367 . S
C901 C909 1.433 . S
C902 H898 0.929 . S
C902 C904 1.378 . S
C902 C906 1.350 . S
C903 C906 1.463 . S
C903 C908 1.350 . S
C903 N911 1.427 . S
C904 H895 0.930 . S
C904 C902 1.378 . S
C904 C905 1.367 . S
C905 C904 1.367 . S
C905 C907 1.433 . S
C906 C902 1.350 . S
C906 C903 1.463 . S
C906 N910 1.427 . S
C907 H897 0.929 . S
C907 C905 1.433 . S
C907 N910 1.384 . S
C908 H899 0.929 . S
C908 C900 1.378 1_556 S
C908 C903 1.350 . S
C909 H896 0.929 . S
C909 C901 1.433 . S
C909 N911 1.384 1_554 S
N910 C906 1.427 . S
N910 C907 1.384 . S
N911 C903 1.427 . S
N911 C909 1.384 1_556 S
H912 C918 0.930 . S
H913 C922 0.930 . S
H914 C927 0.929 . S
H915 C925 0.929 . S
H916 C920 0.929 . S
H917 C926 0.929 . S
C918 H912 0.930 . S
C918 C919 1.367 . S
C918 C926 1.378 . S
C919 C918 1.367 . S
C919 C927 1.433 . S
C920 H916 0.929 . S
C920 C922 1.378 . S
C920 C924 1.350 . S
C921 C924 1.463 . S
C921 C926 1.350 . S
C921 N929 1.427 . S
C922 H913 0.930 . S
C922 C920 1.378 . S
C922 C923 1.367 . S
C923 C922 1.367 . S
C923 C925 1.433 . S
C924 C920 1.350 . S
C924 C921 1.463 . S
C924 N928 1.427 . S
C925 H915 0.929 . S
C925 C923 1.433 . S
C925 N928 1.384 . S
C926 H917 0.929 . S
C926 C918 1.378 . S
C926 C921 1.350 . S
C927 H914 0.929 . S
C927 C919 1.433 . S
C927 N929 1.384 . S
N928 C924 1.427 . S
N928 C925 1.384 . S
N929 C921 1.427 . S
N929 C927 1.384 . S
H930 C936 0.930 . S
H931 C940 0.930 1_565 S
H932 C945 0.929 . S
H933 C943 0.929 . S
H934 C938 0.929 1_565 S
H935 C944 0.929 . S
C936 H930 0.930 . S
C936 C937 1.367 . S
C936 C944 1.378 . S
C937 C936 1.367 . S
C937 C945 1.433 . S
C938 H934 0.929 1_545 S
C938 C940 1.378 . S
C938 C942 1.350 . S
C939 C942 1.463 . S
C939 C944 1.350 . S
C939 N947 1.427 . S
C940 H931 0.930 1_545 S
C940 C938 1.378 . S
C940 C941 1.367 . S
C941 C940 1.367 . S
C941 C943 1.433 . S
C942 C938 1.350 . S
C942 C939 1.463 . S
C942 N946 1.427 . S
C943 H933 0.929 . S
C943 C941 1.433 . S
C943 N946 1.384 . S
C944 H935 0.929 . S
C944 C936 1.378 . S
C944 C939 1.350 . S
C945 H932 0.929 . S
C945 C937 1.433 . S
C945 N947 1.384 . S
N946 C942 1.427 . S
N946 C943 1.384 . S
N947 C939 1.427 . S
N947 C945 1.384 . S
H948 C954 0.930 . S
H949 C958 0.930 . S
H950 C963 0.929 . S
H951 C961 0.929 . S
H952 C956 0.929 . S
H953 C962 0.929 . S
C954 H948 0.930 . S
C954 C955 1.367 . S
C954 C962 1.378 . S
C955 C954 1.367 . S
C955 C963 1.433 . S
C956 H952 0.929 . S
C956 C958 1.378 . S
C956 C960 1.350 . S
C957 C960 1.463 . S
C957 C962 1.350 . S
C957 N965 1.427 . S
C958 H949 0.930 . S
C958 C956 1.378 . S
C958 C959 1.367 . S
C959 C958 1.367 . S
C959 C961 1.433 . S
C960 C956 1.350 . S
C960 C957 1.463 . S
C960 N964 1.427 . S
C961 H951 0.929 . S
C961 C959 1.433 . S
C961 N964 1.384 . S
C962 H953 0.929 . S
C962 C954 1.378 . S
C962 C957 1.350 . S
C963 H950 0.929 . S
C963 C955 1.433 . S
C963 N965 1.384 . S
N964 C960 1.427 . S
N964 C961 1.384 . S
N965 C957 1.427 . S
N965 C963 1.384 . S
H966 C972 0.930 . S
H967 C976 0.930 . S
H968 C981 0.929 . S
H969 C979 0.929 . S
H970 C974 0.929 . S
H971 C980 0.929 . S
C972 H966 0.930 . S
C972 C973 1.367 . S
C972 C980 1.378 . S
C973 C972 1.367 . S
C973 C981 1.433 . S
C974 H970 0.929 . S
C974 C976 1.378 . S
C974 C978 1.350 . S
C975 C978 1.463 . S
C975 C980 1.350 . S
C975 N983 1.427 . S
C976 H967 0.930 . S
C976 C974 1.378 . S
C976 C977 1.367 . S
C977 C976 1.367 . S
C977 C979 1.433 . S
C978 C974 1.350 . S
C978 C975 1.463 . S
C978 N982 1.427 . S
C979 H969 0.929 . S
C979 C977 1.433 . S
C979 N982 1.384 . S
C980 H971 0.929 . S
C980 C972 1.378 . S
C980 C975 1.350 . S
C981 H968 0.929 . S
C981 C973 1.433 . S
C981 N983 1.384 . S
N982 C978 1.427 . S
N982 C979 1.384 . S
N983 C975 1.427 . S
N983 C981 1.384 . S
H984 C990 0.930 . S
H985 C994 0.930 . S
H986 C999 0.929 . S
H987 C997 0.929 1_455 S
H988 C992 0.929 . S
H989 C998 0.929 . S
C990 H984 0.930 . S
C990 C991 1.367 . S
C990 C998 1.378 . S
C991 C990 1.367 . S
C991 C999 1.433 . S
C992 H988 0.929 . S
C992 C994 1.378 . S
C992 C996 1.350 . S
C993 C996 1.463 . S
C993 C998 1.350 . S
C993 N1001 1.427 . S
C994 H985 0.930 . S
C994 C992 1.378 . S
C994 C995 1.367 . S
C995 C994 1.367 . S
C995 C997 1.433 . S
C996 C992 1.350 . S
C996 C993 1.463 . S
C996 N1000 1.427 . S
C997 H987 0.929 1_655 S
C997 C995 1.433 . S
C997 N1000 1.384 . S
C998 H989 0.929 . S
C998 C990 1.378 . S
C998 C993 1.350 . S
C999 H986 0.929 . S
C999 C991 1.433 . S
C999 N1001 1.384 . S
N1000 C996 1.427 . S
N1000 C997 1.384 . S
N1001 C993 1.427 . S
N1001 C999 1.384 . S
H1002 C1008 0.930 . S
H1003 C1012 0.946 . S
H1004 C1017 0.929 . S
H1005 C1015 0.929 . S
H1006 C1010 0.929 . S
H1007 C1016 0.929 . S
C1008 H1002 0.930 . S
C1008 C1009 1.367 . S
C1008 C1016 1.378 . S
C1009 C1008 1.367 . S
C1009 C1017 1.433 . S
C1010 H1006 0.929 . S
C1010 C1012 1.378 . S
C1010 C1014 1.350 . S
C1011 C1014 1.463 . S
C1011 C1016 1.350 . S
C1011 N1019 1.427 . S
C1012 H1003 0.946 . S
C1012 C1010 1.378 . S
C1012 C1013 1.367 . S
C1013 C1012 1.367 . S
C1013 C1015 1.433 . S
C1014 C1010 1.350 . S
C1014 C1011 1.463 . S
C1014 N1018 1.427 . S
C1015 H1005 0.929 . S
C1015 C1013 1.433 . S
C1015 N1018 1.384 . S
C1016 H1007 0.929 . S
C1016 C1008 1.378 . S
C1016 C1011 1.350 . S
C1017 H1004 0.929 . S
C1017 C1009 1.433 . S
C1017 N1019 1.384 . S
N1018 C1014 1.427 . S
N1018 C1015 1.384 . S
N1019 C1011 1.427 . S
N1019 C1017 1.384 . S
H1020 C1026 0.930 . S
H1021 C1030 0.930 . S
H1022 C1035 0.929 . S
H1023 C1033 0.929 . S
H1024 C1028 0.929 . S
H1025 C1034 0.929 . S
C1026 H1020 0.930 . S
C1026 C1027 1.367 . S
C1026 C1034 1.378 . S
C1027 C1026 1.367 . S
C1027 C1035 1.433 . S
C1028 H1024 0.929 . S
C1028 C1030 1.378 . S
C1028 C1032 1.350 . S
C1029 C1032 1.463 . S
C1029 C1034 1.350 . S
C1029 N1037 1.427 . S
C1030 H1021 0.930 . S
C1030 C1028 1.378 . S
C1030 C1031 1.367 . S
C1031 C1030 1.367 . S
C1031 C1033 1.433 . S
C1032 C1028 1.350 . S
C1032 C1029 1.463 . S
C1032 N1036 1.427 . S
C1033 H1023 0.929 . S
C1033 C1031 1.433 . S
C1033 N1036 1.384 . S
C1034 H1025 0.929 . S
C1034 C1026 1.378 . S
C1034 C1029 1.350 . S
C1035 H1022 0.929 . S
C1035 C1027 1.433 . S
C1035 N1037 1.384 . S
N1036 C1032 1.427 . S
N1036 C1033 1.384 . S
N1037 C1029 1.427 . S
N1037 C1035 1.384 . S
H1038 C1044 0.930 . S
H1039 C1048 0.930 . S
H1040 C1053 0.929 . S
H1041 C1051 0.929 . S
H1042 C1046 0.929 . S
H1043 C1052 0.929 . S
C1044 H1038 0.930 . S
C1044 C1045 1.367 . S
C1044 C1052 1.378 . S
C1045 C1044 1.367 . S
C1045 C1053 1.433 . S
C1046 H1042 0.929 . S
C1046 C1048 1.378 . S
C1046 C1050 1.350 . S
C1047 C1050 1.463 . S
C1047 C1052 1.350 . S
C1047 N1055 1.427 . S
C1048 H1039 0.930 . S
C1048 C1046 1.378 . S
C1048 C1049 1.367 . S
C1049 C1048 1.367 . S
C1049 C1051 1.433 . S
C1050 C1046 1.350 . S
C1050 C1047 1.463 . S
C1050 N1054 1.427 . S
C1051 H1041 0.929 . S
C1051 C1049 1.433 . S
C1051 N1054 1.384 . S
C1052 H1043 0.929 . S
C1052 C1044 1.378 . S
C1052 C1047 1.350 . S
C1053 H1040 0.929 . S
C1053 C1045 1.433 . S
C1053 N1055 1.384 . S
N1054 C1050 1.427 . S
N1054 C1051 1.384 . S
N1055 C1047 1.427 . S
N1055 C1053 1.384 . S
C631 C241 2.241 . S
C635 C351 2.428 . S
C653 C428 2.453 . S
C649 C277 2.299 . S
C671 C519 2.427 . S
C667 C169 2.238 . S
C689 C603 2.412 . S
C685 C205 2.219 . S
C707 C362 2.432 1_565 S
C703 C97 2.210 . S
C721 C133 2.320 . S
C725 C439 2.448 . S
C739 C25 2.199 . S
C743 C530 2.427 . S
C757 C61 2.198 . S
C761 C614 2.419 1_655 S
C779 C346 0.496 . S
C775 C211 0.480 . S
C797 C441 0.546 . S
C793 C247 0.431 . S
C815 C514 0.480 . S
C811 C253 0.504 . S
C829 C175 0.463 . S
C833 C598 0.465 . S
C847 C67 0.494 . S
C851 C357 0.497 . S
C869 C430 0.559 . S
C865 C103 0.502 . S
C887 C525 0.491 . S
C883 C109 0.477 . S
C901 C31 0.529 . S
C905 C609 0.466 . S
C919 C181 2.646 . S
C923 C355 2.907 . S
C937 C217 2.625 . S
C941 C446 2.939 . S
C959 C523 2.930 . S
C955 C283 2.578 . S
C977 C607 2.922 . S
C973 C145 2.662 . S
C991 C37 2.629 . S
C995 C344 2.906 . S
C1013 C435 2.944 . S
C1009 C73 2.615 . S
C1031 C512 2.927 . S
C1027 C139 2.591 . S
C1045 C1 2.645 . S
C1049 C596 2.923 . S
