# Generated by pormake.
# Topology ctn, (3,4)-cn, num edge types: 1
# Building blocks:
#     Node 0, Type 0, BuildingBlock: QEWDON_clean_linker_0, # of connection points: 3
#     Node 1, Type 0, BuildingBlock: QEWDON_clean_linker_0, # of connection points: 3
#     Node 2, Type 0, BuildingBlock: QEWDON_clean_linker_0, # of connection points: 3
#     Node 3, Type 0, BuildingBlock: QEWDON_clean_linker_0, # of connection points: 3
#     Node 4, Type 0, BuildingBlock: QEWDON_clean_linker_0, # of connection points: 3
#     Node 5, Type 0, BuildingBlock: QEWDON_clean_linker_0, # of connection points: 3
#     Node 6, Type 0, BuildingBlock: QEWDON_clean_linker_0, # of connection points: 3
#     Node 7, Type 0, BuildingBlock: QEWDON_clean_linker_0, # of connection points: 3
#     Node 8, Type 0, BuildingBlock: QEWDON_clean_linker_0, # of connection points: 3
#     Node 9, Type 0, BuildingBlock: QEWDON_clean_linker_0, # of connection points: 3
#     Node 10, Type 0, BuildingBlock: QEWDON_clean_linker_0, # of connection points: 3
#     Node 11, Type 0, BuildingBlock: QEWDON_clean_linker_0, # of connection points: 3
#     Node 12, Type 0, BuildingBlock: QEWDON_clean_linker_0, # of connection points: 3
#     Node 13, Type 0, BuildingBlock: QEWDON_clean_linker_0, # of connection points: 3
#     Node 14, Type 0, BuildingBlock: QEWDON_clean_linker_0, # of connection points: 3
#     Node 15, Type 0, BuildingBlock: QEWDON_clean_linker_0, # of connection points: 3
#     Node 16, Type 1, BuildingBlock: NAHDIM_clean_sbu_0, # of connection points: 4
#     Node 17, Type 1, BuildingBlock: NAHDIM_clean_sbu_0, # of connection points: 4
#     Node 18, Type 1, BuildingBlock: NAHDIM_clean_sbu_0, # of connection points: 4
#     Node 19, Type 1, BuildingBlock: NAHDIM_clean_sbu_0, # of connection points: 4
#     Node 20, Type 1, BuildingBlock: NAHDIM_clean_sbu_0, # of connection points: 4
#     Node 21, Type 1, BuildingBlock: NAHDIM_clean_sbu_0, # of connection points: 4
#     Node 22, Type 1, BuildingBlock: NAHDIM_clean_sbu_0, # of connection points: 4
#     Node 23, Type 1, BuildingBlock: NAHDIM_clean_sbu_0, # of connection points: 4
#     Node 24, Type 1, BuildingBlock: NAHDIM_clean_sbu_0, # of connection points: 4
#     Node 25, Type 1, BuildingBlock: NAHDIM_clean_sbu_0, # of connection points: 4
#     Node 26, Type 1, BuildingBlock: NAHDIM_clean_sbu_0, # of connection points: 4
#     Node 27, Type 1, BuildingBlock: NAHDIM_clean_sbu_0, # of connection points: 4
#     Edge 28, Type (0, 1), BuildingBlock: TEMPAE_clean_linker_10, # of connection points: 2
#     Edge 29, Type (0, 1), BuildingBlock: TEMPAE_clean_linker_10, # of connection points: 2
#     Edge 30, Type (0, 1), BuildingBlock: TEMPAE_clean_linker_10, # of connection points: 2
#     Edge 31, Type (0, 1), BuildingBlock: TEMPAE_clean_linker_10, # of connection points: 2
#     Edge 32, Type (0, 1), BuildingBlock: TEMPAE_clean_linker_10, # of connection points: 2
#     Edge 33, Type (0, 1), BuildingBlock: TEMPAE_clean_linker_10, # of connection points: 2
#     Edge 34, Type (0, 1), BuildingBlock: TEMPAE_clean_linker_10, # of connection points: 2
#     Edge 35, Type (0, 1), BuildingBlock: TEMPAE_clean_linker_10, # of connection points: 2
#     Edge 36, Type (0, 1), BuildingBlock: TEMPAE_clean_linker_10, # of connection points: 2
#     Edge 37, Type (0, 1), BuildingBlock: TEMPAE_clean_linker_10, # of connection points: 2
#     Edge 38, Type (0, 1), BuildingBlock: TEMPAE_clean_linker_10, # of connection points: 2
#     Edge 39, Type (0, 1), BuildingBlock: TEMPAE_clean_linker_10, # of connection points: 2
#     Edge 40, Type (0, 1), BuildingBlock: TEMPAE_clean_linker_10, # of connection points: 2
#     Edge 41, Type (0, 1), BuildingBlock: TEMPAE_clean_linker_10, # of connection points: 2
#     Edge 42, Type (0, 1), BuildingBlock: TEMPAE_clean_linker_10, # of connection points: 2
#     Edge 43, Type (0, 1), BuildingBlock: TEMPAE_clean_linker_10, # of connection points: 2
#     Edge 44, Type (0, 1), BuildingBlock: TEMPAE_clean_linker_10, # of connection points: 2
#     Edge 45, Type (0, 1), BuildingBlock: TEMPAE_clean_linker_10, # of connection points: 2
#     Edge 46, Type (0, 1), BuildingBlock: TEMPAE_clean_linker_10, # of connection points: 2
#     Edge 47, Type (0, 1), BuildingBlock: TEMPAE_clean_linker_10, # of connection points: 2
#     Edge 48, Type (0, 1), BuildingBlock: TEMPAE_clean_linker_10, # of connection points: 2
#     Edge 49, Type (0, 1), BuildingBlock: TEMPAE_clean_linker_10, # of connection points: 2
#     Edge 50, Type (0, 1), BuildingBlock: TEMPAE_clean_linker_10, # of connection points: 2
#     Edge 51, Type (0, 1), BuildingBlock: TEMPAE_clean_linker_10, # of connection points: 2
#     Edge 52, Type (0, 1), BuildingBlock: TEMPAE_clean_linker_10, # of connection points: 2
#     Edge 53, Type (0, 1), BuildingBlock: TEMPAE_clean_linker_10, # of connection points: 2
#     Edge 54, Type (0, 1), BuildingBlock: TEMPAE_clean_linker_10, # of connection points: 2
#     Edge 55, Type (0, 1), BuildingBlock: TEMPAE_clean_linker_10, # of connection points: 2
#     Edge 56, Type (0, 1), BuildingBlock: TEMPAE_clean_linker_10, # of connection points: 2
#     Edge 57, Type (0, 1), BuildingBlock: TEMPAE_clean_linker_10, # of connection points: 2
#     Edge 58, Type (0, 1), BuildingBlock: TEMPAE_clean_linker_10, # of connection points: 2
#     Edge 59, Type (0, 1), BuildingBlock: TEMPAE_clean_linker_10, # of connection points: 2
#     Edge 60, Type (0, 1), BuildingBlock: TEMPAE_clean_linker_10, # of connection points: 2
#     Edge 61, Type (0, 1), BuildingBlock: TEMPAE_clean_linker_10, # of connection points: 2
#     Edge 62, Type (0, 1), BuildingBlock: TEMPAE_clean_linker_10, # of connection points: 2
#     Edge 63, Type (0, 1), BuildingBlock: TEMPAE_clean_linker_10, # of connection points: 2
#     Edge 64, Type (0, 1), BuildingBlock: TEMPAE_clean_linker_10, # of connection points: 2
#     Edge 65, Type (0, 1), BuildingBlock: TEMPAE_clean_linker_10, # of connection points: 2
#     Edge 66, Type (0, 1), BuildingBlock: TEMPAE_clean_linker_10, # of connection points: 2
#     Edge 67, Type (0, 1), BuildingBlock: TEMPAE_clean_linker_10, # of connection points: 2
#     Edge 68, Type (0, 1), BuildingBlock: TEMPAE_clean_linker_10, # of connection points: 2
#     Edge 69, Type (0, 1), BuildingBlock: TEMPAE_clean_linker_10, # of connection points: 2
#     Edge 70, Type (0, 1), BuildingBlock: TEMPAE_clean_linker_10, # of connection points: 2
#     Edge 71, Type (0, 1), BuildingBlock: TEMPAE_clean_linker_10, # of connection points: 2
#     Edge 72, Type (0, 1), BuildingBlock: TEMPAE_clean_linker_10, # of connection points: 2
#     Edge 73, Type (0, 1), BuildingBlock: TEMPAE_clean_linker_10, # of connection points: 2
#     Edge 74, Type (0, 1), BuildingBlock: TEMPAE_clean_linker_10, # of connection points: 2
#     Edge 75, Type (0, 1), BuildingBlock: TEMPAE_clean_linker_10, # of connection points: 2
# Relax obj value: 0.115
# Max RMSD: 0.275
# Mean RMSD: 0.157
data_MOF--net-ctn--node1-NAHDIM_clean_sbu_0--node2-QEWDON_clean_linker_0--edge1-TEMPAE_clean_linker_10
_symmetry_space_group_name_H-M    P1
_symmetry_Int_Tables_number       1
_symmetry_cell_setting            triclinic
loop_
_symmetry_equiv_pos_as_xyz
'x, y, z'
_cell_length_a     53.304799
_cell_length_b     55.900786
_cell_length_c     59.065779
_cell_angle_alpha  99.6357
_cell_angle_beta   92.097881
_cell_angle_gamma 97.806263
loop_
_atom_site_label
_atom_site_type_symbol
_atom_site_fract_x
_atom_site_fract_y
_atom_site_fract_z
_atom_type_partial_charge
H0 H 0.10891 0.04563 0.04831 0.0
C1 C 0.0973 0.04263 0.06254 0.0
C2 C 0.09575 0.02027 0.0708 0.0
C3 C 0.08483 0.0616 0.07326 0.0
H4 H 0.08019 1.00014 0.09654 0.0
C5 C 0.08085 0.01696 0.08958 0.0
C6 C 0.06822 0.03587 0.10044 0.0
C7 C 0.07028 0.05807 0.09202 0.0
C8 C 0.08923 0.0862 0.06688 0.0
H9 H 0.0608 0.07289 0.10026 0.0
C10 C 0.0797 0.09065 0.04566 0.0
C11 C 0.08255 0.11473 0.04087 0.0
C12 C 0.10223 0.10574 0.08292 0.0
H13 H 0.10966 0.10263 0.09933 0.0
C14 C 0.1057 0.12942 0.07796 0.0
H15 H 0.06928 0.07566 0.03341 0.0
C16 C 0.09587 0.13395 0.05716 0.0
H17 H 0.09871 0.15256 0.05376 0.0
H18 H 0.11583 0.14437 0.09039 0.0
H19 H 0.3389 0.74139 0.2511 0.0
C20 C 0.32491 0.72504 0.24872 0.0
C21 C 0.33046 0.70417 0.25715 0.0
C22 C 0.30069 0.72553 0.2388 0.0
H23 H 0.31603 0.66748 0.26155 0.0
C24 C 0.31169 0.68359 0.2551 0.0
C25 C 0.28731 0.68383 0.2453 0.0
C26 C 0.28204 0.7049 0.23699 0.0
C27 C 0.29355 0.74893 0.23424 0.0
H28 H 0.26303 0.70584 0.23035 0.0
C29 C 0.29483 0.75545 0.21225 0.0
C30 C 0.28784 0.77801 0.20848 0.0
C31 C 0.28517 0.76488 0.25237 0.0
H32 H 0.28406 0.76007 0.26937 0.0
C33 C 0.27804 0.78705 0.24871 0.0
H34 H 0.30154 0.74317 0.19833 0.0
C35 C 0.27929 0.79359 0.22697 0.0
H36 H 0.27323 0.81077 0.22458 0.0
H37 H 0.27142 0.7992 0.26276 0.0
H38 H 0.03949 0.48058 0.03771 0.0
C39 C 0.02378 0.49076 0.03605 0.0
C40 C 0.01233 0.50084 0.0558 0.0
C41 C 0.01563 0.49437 0.01423 0.0
H42 H 0.98343 0.52231 0.06859 0.0
C43 C 0.99199 0.51409 0.05339 0.0
C44 C 0.98366 0.5179 0.03152 0.0
C45 C 0.99564 0.50785 0.01208 0.0
C46 C 0.0288 0.48513 0.99367 0.0
H47 H 0.98927 0.51031 0.99508 0.0
C48 C 0.03061 0.46004 0.98762 0.0
C49 C 0.04265 0.45128 0.96767 0.0
C50 C 0.03935 0.50155 0.97985 0.0
H51 H 0.03819 0.52096 0.98427 0.0
C52 C 0.05178 0.4931 0.96039 0.0
H53 H 0.0219 0.44733 0.99802 0.0
C54 C 0.05347 0.46818 0.95431 0.0
H55 H 0.06337 0.46217 0.93917 0.0
H56 H 0.0601 0.5059 0.94994 0.0
H57 H 0.78949 0.80919 0.252 0.0
C58 C 0.78535 0.79981 0.23438 0.0
C59 C 0.79373 0.81138 0.21614 0.0
C60 C 0.77162 0.77612 0.23009 0.0
H61 H 0.79649 0.80711 0.17952 0.0
C62 C 0.78866 0.79871 0.19346 0.0
C63 C 0.775 0.77484 0.18879 0.0
C64 C 0.76602 0.76392 0.20735 0.0
C65 C 0.76516 0.76339 0.24953 0.0
H66 H 0.75542 0.7456 0.20426 0.0
C67 C 0.73977 0.75595 0.25382 0.0
C68 C 0.73398 0.74419 0.2727 0.0
C69 C 0.78475 0.75883 0.26404 0.0
H70 H 0.80442 0.76443 0.26097 0.0
C71 C 0.77912 0.74683 0.2825 0.0
H72 H 0.72464 0.75957 0.24268 0.0
C73 C 0.75394 0.73957 0.28686 0.0
H74 H 0.75008 0.73086 0.30167 0.0
H75 H 0.79433 0.74335 0.29361 0.0
H76 H 0.10461 0.9532 0.48081 0.0
C77 C 0.09152 0.95933 0.46929 0.0
C78 C 0.09688 0.98288 0.46355 0.0
C79 C 0.06998 0.9432 0.45926 0.0
H80 H 0.08439 0.00813 0.44307 0.0
C81 C 0.08011 0.99026 0.44801 0.0
C82 C 0.05846 0.97437 0.43792 0.0
C83 C 0.05344 0.95096 0.44381 0.0
C84 C 0.06623 0.91724 0.46246 0.0
H85 H 0.03721 0.93827 0.43555 0.0
C86 C 0.0647 0.91072 0.48448 0.0
C87 C 0.06062 0.88578 0.48686 0.0
C88 C 0.064 0.8987 0.44295 0.0
H89 H 0.06532 0.90328 0.42587 0.0
C90 C 0.06021 0.87411 0.44522 0.0
H91 H 0.06641 0.92496 0.49959 0.0
C92 C 0.05841 0.86765 0.46694 0.0
H93 H 0.05475 0.84836 0.46807 0.0
H94 H 0.05842 0.85997 0.43006 0.0
H95 H 0.27282 0.68095 0.77653 0.0
C96 C 0.26791 0.69118 0.79262 0.0
C97 C 0.27444 0.68397 0.81346 0.0
C98 C 0.25592 0.71199 0.79231 0.0
H99 H 0.27438 0.69288 0.8504 0.0
C100 C 0.26882 0.69798 0.83424 0.0
C101 C 0.25678 0.71893 0.8343 0.0
C102 C 0.25004 0.72556 0.81316 0.0
C103 C 0.25166 0.72065 0.77027 0.0
H104 H 0.24101 0.74176 0.81292 0.0
C105 C 0.22779 0.72617 0.76347 0.0
C106 C 0.22404 0.73391 0.74219 0.0
C107 C 0.27185 0.72338 0.75584 0.0
H108 H 0.29045 0.71951 0.76081 0.0
C109 C 0.26839 0.73148 0.73505 0.0
H110 H 0.21205 0.72372 0.77437 0.0
C111 C 0.24472 0.73672 0.72824 0.0
H112 H 0.24266 0.74317 0.71206 0.0
H113 H 0.28413 0.73373 0.72416 0.0
H114 H 0.97303 0.58549 0.4735 0.0
C115 C 0.96209 0.56954 0.47838 0.0
C116 C 0.95673 0.56951 0.50153 0.0
C117 C 0.95181 0.54977 0.46119 0.0
H118 H 0.93771 0.54859 0.52509 0.0
C119 C 0.94154 0.54903 0.50726 0.0
C120 C 0.93086 0.52926 0.49022 0.0
C121 C 0.93623 0.52973 0.46717 0.0
C122 C 0.95407 0.55168 0.43671 0.0
H123 H 0.9274 0.51506 0.45372 0.0
C124 C 0.97609 0.54698 0.42533 0.0
C125 C 0.97771 0.54905 0.40192 0.0
C126 C 0.9337 0.55833 0.42466 0.0
H127 H 0.91661 0.56196 0.4332 0.0
C128 C 0.93525 0.56048 0.40157 0.0
H129 H 0.99184 0.54183 0.43465 0.0
C130 C 0.95706 0.55589 0.39025 0.0
H131 H 0.95759 0.5573 0.3722 0.0
H132 H 0.91944 0.56561 0.39238 0.0
H133 H 0.83328 0.81495 0.79234 0.0
C134 C 0.82996 0.80042 0.80241 0.0
C135 C 0.8419 0.77933 0.79722 0.0
C136 C 0.81536 0.80372 0.82171 0.0
H137 H 0.84699 0.74469 0.80707 0.0
C138 C 0.83823 0.76115 0.81117 0.0
C139 C 0.82343 0.76407 0.83039 0.0
C140 C 0.81208 0.78544 0.83545 0.0
C141 C 0.80613 0.82741 0.82949 0.0
H142 H 0.8014 0.78837 0.8507 0.0
C143 C 0.78922 0.83692 0.81558 0.0
C144 C 0.77962 0.85878 0.82424 0.0
C145 C 0.81396 0.84032 0.85168 0.0
H146 H 0.82708 0.83345 0.86258 0.0
C147 C 0.80506 0.8622 0.86001 0.0
H148 H 0.78289 0.82693 0.79854 0.0
C149 C 0.78798 0.87135 0.84648 0.0
H150 H 0.78137 0.88842 0.85341 0.0
H151 H 0.81133 0.87206 0.87709 0.0
H152 H 0.33494 0.31597 0.28976 0.0
C153 C 0.33198 0.30169 0.30015 0.0
C154 C 0.34439 0.28085 0.29536 0.0
C155 C 0.31739 0.3051 0.31944 0.0
H156 H 0.35061 0.24689 0.30618 0.0
C157 C 0.34132 0.26308 0.30979 0.0
C158 C 0.32641 0.26608 0.32892 0.0
C159 C 0.31449 0.28713 0.33351 0.0
C160 C 0.30805 0.32876 0.32706 0.0
H161 H 0.30378 0.29012 0.34874 0.0
C162 C 0.29035 0.33766 0.31343 0.0
C163 C 0.28058 0.35941 0.32212 0.0
C164 C 0.31649 0.34217 0.34892 0.0
H165 H 0.3302 0.33573 0.35959 0.0
C166 C 0.3074 0.36395 0.35724 0.0
H167 H 0.28355 0.3273 0.29664 0.0
C168 C 0.28952 0.37248 0.34404 0.0
H169 H 0.28272 0.38946 0.35095 0.0
H170 H 0.31411 0.37419 0.37407 0.0
H171 H 0.54073 0.97368 0.53339 0.0
C172 C 0.525 0.9838 0.53163 0.0
C173 C 0.514 0.99464 0.55134 0.0
C174 C 0.51639 0.98662 0.50967 0.0
H175 H 0.48501 0.01612 0.56392 0.0
C176 C 0.49357 0.00774 0.54878 0.0
C177 C 0.48459 0.01051 0.52676 0.0
C178 C 0.49634 1.00002 0.50737 0.0
C179 C 0.52914 0.97665 0.4891 0.0
H180 H 0.49016 0.00256 0.49035 0.0
C181 C 0.53087 0.95148 0.48375 0.0
C182 C 0.5424 0.94199 0.46375 0.0
C183 C 0.53929 0.99241 0.47452 0.0
H184 H 0.53819 0.01187 0.47839 0.0
C185 C 0.55121 0.98324 0.45498 0.0
H186 H 0.52248 0.93926 0.49475 0.0
C187 C 0.55279 0.95824 0.44959 0.0
H188 H 0.56228 0.95165 0.43437 0.0
H189 H 0.55921 0.99554 0.44393 0.0
H190 H 0.28265 0.28941 0.74816 0.0
C191 C 0.28428 0.28118 0.73041 0.0
C192 C 0.29465 0.29567 0.71478 0.0
C193 C 0.27701 0.25586 0.72343 0.0
H194 H 0.30599 0.29546 0.68005 0.0
C195 C 0.2971 0.28456 0.69191 0.0
C196 C 0.28975 0.25923 0.68467 0.0
C197 C 0.27959 0.24509 0.7006 0.0
C198 C 0.26872 0.24011 0.74029 0.0
H199 H 0.27376 0.22553 0.69533 0.0
C200 C 0.24678 0.24318 0.75232 0.0
C201 C 0.23865 0.22737 0.76771 0.0
C202 C 0.2827 0.22141 0.74392 0.0
H203 H 0.29966 0.21879 0.7348 0.0
C204 C 0.27499 0.206 0.75941 0.0
H205 H 0.23593 0.25757 0.74946 0.0
C206 C 0.2531 0.20887 0.77118 0.0
H207 H 0.24716 0.19621 0.78263 0.0
H208 H 0.28586 0.1916 0.7621 0.0
H209 H 0.83833 0.24394 0.74899 0.0
C210 C 0.82445 0.22749 0.74657 0.0
C211 C 0.83021 0.20669 0.75494 0.0
C212 C 0.80029 0.22781 0.73646 0.0
H213 H 0.81608 0.16991 0.75923 0.0
C214 C 0.8116 0.18599 0.7528 0.0
C215 C 0.7872 0.18602 0.74287 0.0
C216 C 0.7818 0.20702 0.73445 0.0
C217 C 0.79332 0.2512 0.73161 0.0
H218 H 0.76283 0.20778 0.72762 0.0
C219 C 0.7917 0.25616 0.70905 0.0
C220 C 0.78634 0.27923 0.70516 0.0
C221 C 0.78906 0.26911 0.75015 0.0
H222 H 0.79026 0.26556 0.76761 0.0
C223 C 0.78324 0.29172 0.74635 0.0
H224 H 0.79535 0.24244 0.69475 0.0
C225 C 0.78194 0.29682 0.72405 0.0
H226 H 0.77736 0.31453 0.72157 0.0
H227 H 0.77985 0.30541 0.76074 0.0
H228 H 0.59863 0.53909 0.55895 0.0
C229 C 0.58611 0.53553 0.57242 0.0
C230 C 0.58556 0.51364 0.58141 0.0
C231 C 0.57209 0.5538 0.58204 0.0
H232 H 0.56959 0.49342 0.60695 0.0
C233 C 0.57006 0.51007 0.59977 0.0
C234 C 0.556 0.52831 0.6096 0.0
C235 C 0.55704 0.55 0.60043 0.0
C236 C 0.57552 0.57823 0.57517 0.0
H237 H 0.54642 0.5643 0.60789 0.0
C238 C 0.56743 0.58161 0.55308 0.0
C239 C 0.56908 0.60546 0.54782 0.0
C240 C 0.586 0.59867 0.59157 0.0
H241 H 0.59235 0.59641 0.60862 0.0
C242 C 0.58832 0.62215 0.58618 0.0
H243 H 0.55898 0.56594 0.54047 0.0
C244 C 0.57982 0.62559 0.56453 0.0
H245 H 0.58167 0.64406 0.5608 0.0
H246 H 0.59649 0.63779 0.59891 0.0
H247 H 0.61657 0.46043 0.97988 0.0
C248 C 0.60066 0.46527 0.97056 0.0
C249 C 0.60168 0.48886 0.96487 0.0
C250 C 0.57972 0.44718 0.96323 0.0
H251 H 0.58117 0.51194 0.94726 0.0
C252 C 0.58116 0.49385 0.95155 0.0
C253 C 0.56067 0.47552 0.94311 0.0
C254 C 0.55983 0.45231 0.94946 0.0
C255 C 0.58052 0.42191 0.96713 0.0
H256 H 0.54448 0.4378 0.94264 0.0
C257 C 0.56905 0.41328 0.98588 0.0
C258 C 0.57044 0.38913 0.98946 0.0
C259 C 0.59339 0.40645 0.952 0.0
H260 H 0.60237 0.4129 0.93754 0.0
C261 C 0.59487 0.38262 0.95545 0.0
H262 H 0.55901 0.42526 0.99747 0.0
C263 C 0.58356 0.374 0.97403 0.0
H264 H 0.58545 0.35555 0.97651 0.0
H265 H 0.60495 0.37081 0.94377 0.0
H266 H 0.77733 0.18625 0.27212 0.0
C267 C 0.77218 0.19595 0.28837 0.0
C268 C 0.77976 0.18895 0.30902 0.0
C269 C 0.75885 0.21595 0.28843 0.0
H270 H 0.78038 0.19754 0.346 0.0
C271 C 0.77391 0.20241 0.33 0.0
C272 C 0.76047 0.22252 0.33046 0.0
C273 C 0.75261 0.22883 0.30946 0.0
C274 C 0.75373 0.22469 0.26659 0.0
H275 H 0.74243 0.24435 0.30945 0.0
C276 C 0.72927 0.22888 0.25991 0.0
C277 C 0.72481 0.23689 0.23888 0.0
C278 C 0.77375 0.22897 0.25229 0.0
H279 H 0.79277 0.22614 0.25718 0.0
C280 C 0.76956 0.23735 0.23176 0.0
H281 H 0.71371 0.22522 0.27073 0.0
C282 C 0.74534 0.24131 0.22508 0.0
H283 H 0.74274 0.24806 0.20913 0.0
H284 H 0.78517 0.24083 0.22098 0.0
H285 H 0.47255 0.08445 0.96895 0.0
C286 C 0.46116 0.06841 0.97323 0.0
C287 C 0.45527 0.06771 0.99616 0.0
C288 C 0.45087 0.04925 0.95548 0.0
H289 H 0.43477 0.04649 0.01869 0.0
C290 C 0.43954 0.04714 1.00111 0.0
C291 C 0.42886 0.02795 0.98348 0.0
C292 C 0.43469 0.02917 0.96065 0.0
C293 C 0.45393 0.05189 0.93126 0.0
H294 H 0.42623 0.01477 0.94679 0.0
C295 C 0.4759 0.04654 0.92008 0.0
C296 C 0.47839 0.04947 0.89696 0.0
C297 C 0.43447 0.06001 0.91928 0.0
H298 H 0.41744 0.06415 0.92766 0.0
C299 C 0.43687 0.06297 0.89646 0.0
H300 H 0.49096 0.04028 0.92936 0.0
C301 C 0.45864 0.05778 0.88535 0.0
H302 H 0.45985 0.05988 0.8675 0.0
H303 H 0.42176 0.06924 0.88731 0.0
C304 C 0.21102 0.89513 0.01739 0.0
O305 O 0.2168 0.89035 0.99582 0.0
O306 O 0.24243 0.84023 0.99645 0.0
Zn307 Zn 0.25085 0.86548 0.02564 0.0
O308 O 0.28278 0.88765 0.02073 0.0
C309 C 0.27723 0.8427 0.05926 0.0
O310 O 0.29726 0.84768 0.04763 0.0
O311 O 0.22259 0.8861 0.03243 0.0
C312 C 0.28696 0.91031 0.02945 0.0
O313 O 0.27045 0.91972 0.04297 0.0
C314 C 0.26073 0.82998 0.98802 0.0
O315 O 0.28326 0.8359 0.99884 0.0
O316 O 0.25615 0.84856 0.05294 0.0
C317 C 0.16962 0.46776 0.26164 0.0
O318 O 0.17818 0.49104 0.269 0.0
O319 O 0.10469 0.49623 0.2725 0.0
Zn320 Zn 0.12807 0.48995 0.24644 0.0
O321 O 0.15322 0.52037 0.24532 0.0
C322 C 0.09242 0.49807 0.21273 0.0
O323 O 0.09127 0.51677 0.2292 0.0
O324 O 0.14784 0.46209 0.25101 0.0
C325 C 0.14971 0.54231 0.25268 0.0
O326 O 0.12843 0.54637 0.26216 0.0
C327 C 0.11244 0.50531 0.29319 0.0
O328 O 0.13695 0.51084 0.29841 0.0
O329 O 0.10689 0.48249 0.2161 0.0
C330 C 0.83765 0.606 0.99508 0.0
O331 O 0.81944 0.59392 0.98026 0.0
O332 O 0.81145 0.66314 0.97096 0.0
Zn333 Zn 0.8058 0.64455 0.99749 0.0
O334 O 0.77447 0.61876 0.99052 0.0
C335 C 0.78168 0.67922 0.0291 0.0
O336 O 0.7629 0.67403 0.01322 0.0
O337 O 0.83616 0.62803 0.00413 0.0
C338 C 0.75952 0.61383 0.00595 0.0
O339 O 0.76427 0.6255 0.0272 0.0
C340 C 0.80771 0.65328 0.94986 0.0
O341 O 0.80027 0.62953 0.94452 0.0
O342 O 0.8015 0.66904 0.02591 0.0
C343 C 0.88881 0.05313 0.29154 0.0
O344 O 0.88466 0.03448 0.30248 0.0
O345 O 0.94644 0.02203 0.29912 0.0
Zn346 Zn 0.92559 0.02453 0.2703 0.0
O347 O 0.90053 0.99336 0.2613 0.0
C348 C 0.96996 0.0225 0.24236 0.0
O349 O 0.97918 0.01294 0.25915 0.0
O350 O 0.9058 0.05313 0.27696 0.0
C351 C 0.90436 0.9763 0.2452 0.0
O352 O 0.9249 0.97915 0.23375 0.0
C353 C 0.9518 1.00128 0.30229 0.0
O354 O 0.94401 0.98187 0.28656 0.0
O355 O 0.94806 0.02914 0.24375 0.0
C356 C 0.35454 0.11547 0.48798 0.0
O357 O 0.3612 0.13247 0.47558 0.0
O358 O 0.31106 0.14824 0.45856 0.0
Zn359 Zn 0.30396 0.13126 0.48624 0.0
O360 O 0.27137 0.10753 0.47964 0.0
C361 C 0.31778 0.16865 0.52705 0.0
O362 O 0.34097 0.16762 0.52053 0.0
O363 O 0.33179 0.11203 0.49382 0.0
C364 C 0.26224 0.09764 0.49602 0.0
O365 O 0.27443 0.10312 0.51637 0.0
C366 C 0.3132 0.17145 0.46019 0.0
O367 O 0.31131 0.1849 0.48036 0.0
O368 O 0.2993 0.15537 0.51479 0.0
C369 C 0.37645 0.54279 0.79969 0.0
O370 O 0.37134 0.52445 0.81088 0.0
O371 O 0.43467 0.51152 0.80838 0.0
Zn372 Zn 0.41367 0.51347 0.77942 0.0
O373 O 0.38891 0.48199 0.77029 0.0
C374 C 0.45869 0.51325 0.75184 0.0
O375 O 0.46894 0.50524 0.76916 0.0
O376 O 0.39389 0.54213 0.78555 0.0
C377 C 0.39421 0.46481 0.755 0.0
O378 O 0.41574 0.46788 0.74502 0.0
C379 C 0.44111 0.49119 0.81163 0.0
O380 O 0.43418 0.47157 0.79592 0.0
O381 O 0.43609 0.51821 0.75285 0.0
C382 C 0.72129 0.40835 0.5352 0.0
O383 O 0.74467 0.41936 0.54033 0.0
O384 O 0.74199 0.34075 0.49366 0.0
Zn385 Zn 0.74805 0.36704 0.52242 0.0
O386 O 0.77851 0.39125 0.51744 0.0
C387 C 0.76922 0.33677 0.55278 0.0
O388 O 0.78349 0.33078 0.53567 0.0
O389 O 0.7176 0.38549 0.52699 0.0
C390 C 0.79887 0.39763 0.5302 0.0
O391 O 0.80147 0.38819 0.54892 0.0
C392 C 0.76124 0.33444 0.48333 0.0
O393 O 0.78398 0.34492 0.49175 0.0
O394 O 0.75352 0.35166 0.55082 0.0
C395 C 0.67247 0.96795 0.75939 0.0
O396 O 0.6813 0.99127 0.76616 0.0
O397 O 0.60692 0.9962 0.76904 0.0
Zn398 Zn 0.63089 0.98985 0.74348 0.0
O399 O 0.65584 0.02047 0.74242 0.0
C400 C 0.59613 0.99746 0.70881 0.0
O401 O 0.59522 0.01674 0.72471 0.0
O402 O 0.65066 0.96222 0.74883 0.0
C403 C 0.65204 0.04228 0.75 0.0
O404 O 0.63075 0.04592 0.75965 0.0
C405 C 0.61425 0.00432 0.78999 0.0
O406 O 0.63868 0.00879 0.79582 0.0
O407 O 0.61017 0.98178 0.71288 0.0
C408 C 0.02887 0.18418 0.90377 0.0
O409 O 0.0062 0.17925 0.89314 0.0
O410 O 0.00487 0.21587 0.85887 0.0
Zn411 Zn 0.03726 0.22654 0.87929 0.0
O412 O 0.03502 0.25913 0.89931 0.0
C413 C 0.07448 0.21326 0.84691 0.0
O414 O 0.06229 0.19109 0.84642 0.0
O415 O 0.04408 0.20249 0.90003 0.0
C416 C 0.05497 0.27405 0.90657 0.0
O417 O 0.0772 0.26758 0.90166 0.0
C418 C 0.99389 0.23278 0.85267 0.0
O419 O 0.00396 0.25573 0.85971 0.0
O420 O 0.06689 0.23127 0.8595 0.0
C421 C 0.52556 0.67183 0.40607 0.0
O422 O 0.50479 0.6649 0.39258 0.0
O423 O 0.50274 0.70566 0.36168 0.0
Zn424 Zn 0.53514 0.71499 0.38232 0.0
O425 O 0.53404 0.74833 0.40156 0.0
C426 C 0.5653 0.71187 0.34133 0.0
O427 O 0.54376 0.70246 0.32968 0.0
O428 O 0.53996 0.69138 0.4041 0.0
C429 C 0.55408 0.76356 0.40759 0.0
O430 O 0.57613 0.75706 0.40202 0.0
C431 C 0.49365 0.7232 0.35462 0.0
O432 O 0.50559 0.74564 0.36087 0.0
O433 O 0.56562 0.71784 0.36309 0.0
C434 C 0.00875 0.79679 0.61503 0.0
O435 O 0.98828 0.78051 0.60968 0.0
O436 O 0.98461 0.7741 0.67087 0.0
Zn437 Zn 0.01338 0.76766 0.64995 0.0
O438 O 0.00319 0.73715 0.62573 0.0
C439 C 0.06396 0.77791 0.67368 0.0
O440 O 0.06533 0.7987 0.6659 0.0
O441 O 0.02269 0.79584 0.63271 0.0
C442 C 0.00948 0.71635 0.62747 0.0
O443 O 0.02239 0.71398 0.64614 0.0
C444 C 0.96687 0.75711 0.67313 0.0
O445 O 0.96686 0.73507 0.66118 0.0
O446 O 0.04382 0.76249 0.6692 0.0
C447 C 0.50824 0.30369 0.11828 0.0
O448 O 0.48392 0.29882 0.12139 0.0
O449 O 0.48435 0.27279 0.16629 0.0
Zn450 Zn 0.51277 0.26497 0.14537 0.0
O451 O 0.5016 0.23449 0.12142 0.0
C452 C 0.56184 0.2757 0.1712 0.0
O453 O 0.56189 0.29744 0.1655 0.0
O454 O 0.52371 0.29226 0.12758 0.0
C455 C 0.50753 0.21357 0.12327 0.0
O456 O 0.52051 0.21117 0.14189 0.0
C457 C 0.46733 0.2558 0.16995 0.0
O458 O 0.46795 0.23326 0.15942 0.0
O459 O 0.54286 0.25924 0.16473 0.0
C460 C 0.24499 0.72454 0.87553 0.0
C461 C 0.25308 0.73484 0.85647 0.0
C462 C 0.24366 0.73932 0.89706 0.0
C463 C 0.25059 0.76504 0.89961 0.0
C464 C 0.25785 0.77563 0.88025 0.0
C465 C 0.25905 0.76042 0.85896 0.0
C466 C 0.23574 0.72734 0.91726 0.0
C467 C 0.26544 0.80296 0.88222 0.0
C468 C 0.23423 0.80772 0.95268 0.0
C469 C 0.25734 0.81244 0.96591 0.0
C470 C 0.23153 0.79198 0.93121 0.0
C471 C 0.25242 0.78071 0.92283 0.0
C472 C 0.27559 0.78504 0.93634 0.0
C473 C 0.27776 0.80083 0.95765 0.0
C474 C 0.20653 0.78779 0.91729 0.0
C475 C 0.29832 0.77335 0.92809 0.0
H476 H 0.24 0.70482 0.87368 0.0
H477 H 0.26566 0.76856 0.84445 0.0
H478 H 0.25207 0.72972 0.93002 0.0
H479 H 0.22048 0.73625 0.92599 0.0
H480 H 0.22891 0.70741 0.91205 0.0
H481 H 0.26854 0.80849 0.86522 0.0
H482 H 0.25063 0.81293 0.89054 0.0
H483 H 0.28323 0.80886 0.89327 0.0
H484 H 0.21835 0.8166 0.95892 0.0
H485 H 0.29567 0.80425 0.96775 0.0
H486 H 0.19956 0.76787 0.91272 0.0
H487 H 0.20915 0.79486 0.90094 0.0
H488 H 0.19178 0.79697 0.92667 0.0
H489 H 0.29326 0.75312 0.92416 0.0
H490 H 0.31471 0.778 0.94098 0.0
H491 H 0.30428 0.77952 0.91195 0.0
C492 C 0.01057 0.5591 0.37443 0.0
C493 C 1.00041 0.54357 0.38919 0.0
C494 C 0.03011 0.55294 0.36025 0.0
C495 C 0.03971 0.53061 0.36075 0.0
C496 C 0.03023 0.51529 0.37627 0.0
C497 C 0.01072 0.522 0.39038 0.0
C498 C 0.03986 0.56994 0.34417 0.0
C499 C 0.03993 0.49133 0.37729 0.0
C500 C 0.06786 0.50361 0.30563 0.0
C501 C 0.09397 0.51067 0.31093 0.0
C502 C 0.05009 0.50942 0.3219 0.0
C503 C 0.05856 0.52276 0.34402 0.0
C504 C 0.0849 0.52955 0.34965 0.0
C505 C 0.10229 0.52338 0.33306 0.0
C506 C 0.02217 0.50172 0.31523 0.0
C507 C 0.09469 0.54386 0.373 0.0
H508 H 0.0029 0.57597 0.37368 0.0
H509 H 0.00281 0.50984 0.40163 0.0
H510 H 0.06082 0.5744 0.34648 0.0
H511 H 0.03516 0.56072 0.32607 0.0
H512 H 0.03158 0.58732 0.34694 0.0
H513 H 0.03205 0.48245 0.39148 0.0
H514 H 0.0347 0.47856 0.36078 0.0
H515 H 0.06094 0.4943 0.37962 0.0
H516 H 0.06122 0.4937 0.28863 0.0
H517 H 0.12242 0.52892 0.33735 0.0
H518 H 0.0126 0.5182 0.31563 0.0
H519 H 0.01319 0.49106 0.32779 0.0
H520 H 0.01873 0.49041 0.29776 0.0
H521 H 0.08812 0.56207 0.37555 0.0
H522 H 0.11574 0.54666 0.37509 0.0
H523 H 0.08699 0.5342 0.38675 0.0
C524 C 0.79772 0.73911 0.85537 0.0
C525 C 0.82101 0.74567 0.84609 0.0
C526 C 0.79556 0.72321 0.87151 0.0
C527 C 0.81721 0.71356 0.87857 0.0
C528 C 0.84064 0.7196 0.86884 0.0
C529 C 0.84226 0.73558 0.85275 0.0
C530 C 0.7702 0.71716 0.88137 0.0
C531 C 0.86416 0.7097 0.87588 0.0
C532 C 0.81758 0.6941 0.93732 0.0
C533 C 0.8109 0.66857 0.93155 0.0
C534 C 0.81991 0.70888 0.92025 0.0
C535 C 0.81552 0.69792 0.89677 0.0
C536 C 0.80907 0.67214 0.89079 0.0
C537 C 0.80682 0.65779 0.90823 0.0
C538 C 0.82681 0.7363 0.92737 0.0
C539 C 0.80431 0.65974 0.86597 0.0
H540 H 0.78113 0.74655 0.8501 0.0
H541 H 0.86042 0.74078 0.84593 0.0
H542 H 0.76455 0.697 0.87871 0.0
H543 H 0.77167 0.72394 0.9002 0.0
H544 H 0.755 0.72543 0.87347 0.0
H545 H 0.88056 0.71505 0.86581 0.0
H546 H 0.8694 0.71667 0.8944 0.0
H547 H 0.86046 0.6894 0.8736 0.0
H548 H 0.82078 0.70264 0.95526 0.0
H549 H 0.80169 0.63809 0.90356 0.0
H550 H 0.8114 0.74567 0.92141 0.0
H551 H 0.84423 0.7428 0.91915 0.0
H552 H 0.83008 0.74193 0.94632 0.0
H553 H 0.78812 0.66653 0.85797 0.0
H554 H 0.80004 0.63948 0.86413 0.0
H555 H 0.82114 0.66437 0.85618 0.0
C556 C 0.05356 0.99145 0.40169 0.0
C557 C 0.04233 0.9813 0.4197 0.0
C558 C 0.03871 0.99629 0.38333 0.0
C559 C 0.01195 0.99097 0.383 0.0
C560 C 1.00046 0.98146 0.4015 0.0
C561 C 0.0158 0.97662 0.41958 0.0
C562 C 0.05171 0.00621 0.36384 0.0
C563 C 0.97199 0.97577 0.4019 0.0
C564 C 0.97288 0.01859 0.34146 0.0
C565 C 0.96701 0.99887 0.32311 0.0
C566 C 0.98724 0.01625 0.36122 0.0
C567 C 0.99613 0.99374 0.36254 0.0
C568 C 0.99027 0.97381 0.34407 0.0
C569 C 0.97572 0.97658 0.32466 0.0
C570 C 0.99295 0.03785 0.38066 0.0
C571 C 0.99956 0.94955 0.34471 0.0
H572 H 0.07406 0.99479 0.40152 0.0
H573 H 0.00705 0.96897 0.43357 0.0
H574 H 0.04786 0.99242 0.34781 0.0
H575 H 0.04407 0.02291 0.36064 0.0
H576 H 0.07258 0.01079 0.36737 0.0
H577 H 0.966 0.97022 0.41831 0.0
H578 H 0.96304 0.99199 0.39933 0.0
H579 H 0.96464 0.96068 0.38754 0.0
H580 H 0.96614 0.03585 0.34044 0.0
H581 H 0.97135 0.96125 0.31056 0.0
H582 H 0.01376 0.0434 0.38352 0.0
H583 H 0.9859 0.03261 0.39684 0.0
H584 H 0.98417 0.0539 0.37719 0.0
H585 H 0.02059 0.95228 0.34661 0.0
H586 H 0.99332 0.93585 0.32894 0.0
H587 H 0.99246 0.94193 0.35983 0.0
C588 C 0.30285 0.22453 0.65715 0.0
C589 C 0.29391 0.24727 0.66089 0.0
C590 C 0.30662 0.21278 0.6349 0.0
C591 C 0.30168 0.22416 0.61586 0.0
C592 C 0.29303 0.24728 0.61947 0.0
C593 C 0.28915 0.25852 0.64193 0.0
C594 C 0.31581 0.18809 0.63178 0.0
C595 C 0.28774 0.26004 0.59958 0.0
C596 C 0.33307 0.20089 0.56136 0.0
C597 C 0.31324 0.18422 0.54898 0.0
C598 C 0.32933 0.21469 0.58281 0.0
C599 C 0.30528 0.21155 0.59219 0.0
C600 C 0.28504 0.19519 0.57952 0.0
C601 C 0.28923 0.18182 0.55803 0.0
C602 C 0.3513 0.23218 0.5957 0.0
C603 C 0.25917 0.19119 0.58902 0.0
H604 H 0.30714 0.21594 0.67169 0.0
H605 H 0.28205 0.27599 0.64463 0.0
H606 H 0.30192 0.17424 0.62043 0.0
H607 H 0.33404 0.18907 0.62327 0.0
H608 H 0.3186 0.18165 0.64837 0.0
H609 H 0.28191 0.27832 0.60535 0.0
H610 H 0.30488 0.26242 0.58963 0.0
H611 H 0.27245 0.24862 0.58771 0.0
H612 H 0.35163 0.20299 0.55442 0.0
H613 H 0.2738 0.16898 0.54859 0.0
H614 H 0.35665 0.22573 0.61173 0.0
H615 H 0.34571 0.25064 0.60078 0.0
H616 H 0.36822 0.23383 0.58533 0.0
H617 H 0.26058 0.18312 0.60487 0.0
H618 H 0.24512 0.17878 0.57652 0.0
H619 H 0.25199 0.20896 0.59385 0.0
C620 C 0.52652 0.50332 0.63198 0.0
C621 C 0.54152 0.52555 0.63035 0.0
C622 C 0.51278 0.50073 0.65153 0.0
C623 C 0.5141 0.52083 0.66989 0.0
C624 C 0.52931 0.54325 0.66837 0.0
C625 C 0.54284 0.54531 0.64869 0.0
C626 C 0.49678 0.47652 0.65251 0.0
C627 C 0.53135 0.56509 0.68759 0.0
C628 C 0.46166 0.52292 0.71193 0.0
C629 C 0.47287 0.51533 0.7309 0.0
C630 C 0.47476 0.52456 0.6919 0.0
C631 C 0.49968 0.51848 0.69077 0.0
C632 C 0.51108 0.51076 0.70982 0.0
C633 C 0.49755 0.50929 0.72963 0.0
C634 C 0.46198 0.53292 0.67197 0.0
C635 C 0.53762 0.50416 0.70931 0.0
H636 H 0.52526 0.48803 0.61783 0.0
H637 H 0.55478 0.5624 0.64779 0.0
H638 H 0.50303 0.4692 0.66778 0.0
H639 H 0.47666 0.47918 0.6544 0.0
H640 H 0.49787 0.46264 0.63688 0.0
H641 H 0.54385 0.58128 0.68366 0.0
H642 H 0.51226 0.57026 0.69084 0.0
H643 H 0.53895 0.5603 0.70372 0.0
H644 H 0.44259 0.52757 0.71269 0.0
H645 H 0.50638 0.50336 0.74415 0.0
H646 H 0.46122 0.51879 0.65625 0.0
H647 H 0.47316 0.54993 0.66829 0.0
H648 H 0.44237 0.53655 0.6754 0.0
H649 H 0.5388 0.48926 0.69458 0.0
H650 H 0.54362 0.49811 0.72539 0.0
H651 H 0.55126 0.52022 0.7068 0.0
C652 C 0.77182 0.26942 0.66322 0.0
C653 C 0.78557 0.28549 0.68166 0.0
C654 C 0.76926 0.27629 0.64148 0.0
C655 C 0.78091 0.29967 0.6381 0.0
C656 C 0.79554 0.31558 0.65648 0.0
C657 C 0.79764 0.30832 0.678 0.0
C658 C 0.75346 0.25884 0.62232 0.0
C659 C 0.80853 0.34054 0.65358 0.0
C660 C 0.79137 0.31297 0.57774 0.0
C661 C 0.77172 0.32659 0.5743 0.0
C662 C 0.79435 0.30372 0.59824 0.0
C663 C 0.77715 0.30801 0.61567 0.0
C664 C 0.757 0.32135 0.61213 0.0
C665 C 0.75459 0.33056 0.59155 0.0
C666 C 0.81621 0.28978 0.60143 0.0
C667 C 0.73818 0.32622 0.63024 0.0
H668 H 0.76234 0.25183 0.666 0.0
H669 H 0.80863 0.32065 0.69211 0.0
H670 H 0.73672 0.26706 0.61735 0.0
H671 H 0.7646 0.25565 0.60688 0.0
H672 H 0.74673 0.24089 0.62736 0.0
H673 H 0.82016 0.35023 0.66925 0.0
H674 H 0.82098 0.33874 0.63892 0.0
H675 H 0.79413 0.35204 0.64956 0.0
H676 H 0.80473 0.3098 0.56454 0.0
H677 H 0.73927 0.34093 0.58902 0.0
H678 H 0.80909 0.27152 0.60556 0.0
H679 H 0.82909 0.2998 0.61616 0.0
H680 H 0.82734 0.28718 0.58589 0.0
H681 H 0.72938 0.3087 0.63492 0.0
H682 H 0.7229 0.33587 0.62441 0.0
H683 H 0.7481 0.33758 0.64607 0.0
C684 C 0.50935 0.9866 0.59172 0.0
C685 C 0.52493 0.99335 0.57455 0.0
C686 C 0.51975 0.98549 0.6137 0.0
C687 C 0.54628 0.99169 0.61869 0.0
C688 C 0.56205 0.99848 0.60136 0.0
C689 C 0.55121 0.99909 0.5795 0.0
C690 C 0.50235 0.97786 0.63162 0.0
C691 C 0.59035 0.00566 0.60606 0.0
C692 C 0.57175 0.01528 0.68044 0.0
C693 C 0.58221 0.99517 0.68613 0.0
C694 C 0.55963 0.0142 0.65873 0.0
C695 C 0.55754 0.99235 0.64232 0.0
C696 C 0.56741 0.97172 0.64815 0.0
C697 C 0.57982 0.97343 0.66994 0.0
C698 C 0.54971 0.03673 0.65313 0.0
C699 C 0.56523 0.94799 0.63122 0.0
H700 H 0.48906 0.98197 0.58787 0.0
H701 H 0.56328 0.0046 0.56635 0.0
H702 H 0.50884 0.96229 0.63849 0.0
H703 H 0.50297 0.99322 0.64629 0.0
H704 H 0.48237 0.97234 0.62465 0.0
H705 H 0.60001 0.00999 0.59058 0.0
H706 H 0.59429 0.02197 0.61992 0.0
H707 H 0.59875 0.99061 0.61215 0.0
H708 H 0.57354 0.03219 0.69279 0.0
H709 H 0.58772 0.95778 0.67424 0.0
H710 H 0.52927 0.03232 0.64756 0.0
H711 H 0.55982 0.04304 0.63863 0.0
H712 H 0.55218 0.05207 0.66802 0.0
H713 H 0.54516 0.94187 0.62484 0.0
H714 H 0.5723 0.93316 0.63891 0.0
H715 H 0.57627 0.95087 0.61611 0.0
C716 C 0.85512 0.20091 0.78979 0.0
C717 C 0.85478 0.20744 0.76788 0.0
C718 C 0.87794 0.20333 0.80314 0.0
C719 C 0.90103 0.21218 0.79424 0.0
C720 C 0.90088 0.21796 0.77178 0.0
C721 C 0.87771 0.21576 0.75895 0.0
C722 C 0.87719 0.1974 0.82715 0.0
C723 C 0.92514 0.22707 0.76153 0.0
C724 C 0.95476 0.2454 0.83668 0.0
C725 C 0.97008 0.22707 0.83784 0.0
C726 C 0.93223 0.2407 0.82267 0.0
C727 C 0.92499 0.21719 0.80911 0.0
C728 C 0.94044 0.19862 0.81006 0.0
C729 C 0.96271 0.20371 0.82461 0.0
C730 C 0.91607 0.26089 0.82249 0.0
C731 C 0.93354 0.17346 0.79558 0.0
H732 H 0.83738 0.19474 0.79684 0.0
H733 H 0.87746 0.22066 0.74195 0.0
H734 H 0.89052 0.18427 0.82947 0.0
H735 H 0.88341 0.21434 0.8399 0.0
H736 H 0.85791 0.18944 0.83103 0.0
H737 H 0.92206 0.22863 0.74316 0.0
H738 H 0.93333 0.24536 0.77127 0.0
H739 H 0.93935 0.21452 0.76292 0.0
H740 H 0.96025 0.26346 0.84696 0.0
H741 H 0.97456 0.18952 0.82533 0.0
H742 H 0.89671 0.25479 0.82756 0.0
H743 H 0.91412 0.26509 0.80487 0.0
H744 H 0.92415 0.27801 0.83436 0.0
H745 H 0.91482 0.16481 0.80004 0.0
H746 H 0.94781 0.1612 0.79794 0.0
H747 H 0.93182 0.17503 0.77712 0.0
C748 C 0.53879 0.90373 0.43416 0.0
C749 C 0.54318 0.91521 0.45725 0.0
C750 C 0.54025 0.87871 0.42747 0.0
C751 C 0.54599 0.86466 0.4443 0.0
C752 C 0.5499 0.87594 0.46771 0.0
C753 C 0.54853 0.90111 0.47391 0.0
C754 C 0.53593 0.86738 0.40231 0.0
C755 C 0.55589 0.8615 0.48615 0.0
C756 C 0.52906 0.79571 0.4259 0.0
C757 C 0.5524 0.78897 0.41897 0.0
C758 C 0.52688 0.82015 0.43505 0.0
C759 C 0.5485 0.83832 0.43712 0.0
C760 C 0.57225 0.83151 0.43081 0.0
C761 C 0.57393 0.80691 0.42191 0.0
C762 C 0.50128 0.82666 0.44181 0.0
C763 C 0.59571 0.85037 0.43263 0.0
H764 H 0.5341 0.91434 0.42123 0.0
H765 H 0.55215 0.90985 0.49176 0.0
H766 H 0.55312 0.85978 0.39613 0.0
H767 H 0.52009 0.85194 0.39992 0.0
H768 H 0.53143 0.8808 0.39141 0.0
H769 H 0.55722 0.8727 0.50368 0.0
H770 H 0.54107 0.84537 0.48547 0.0
H771 H 0.57417 0.85446 0.48309 0.0
H772 H 0.51234 0.78195 0.42382 0.0
H773 H 0.59205 0.8019 0.41663 0.0
H774 H 0.49453 0.83839 0.43016 0.0
H775 H 0.50278 0.83734 0.45953 0.0
H776 H 0.48684 0.81015 0.44096 0.0
H777 H 0.59318 0.86338 0.42074 0.0
H778 H 0.61301 0.8419 0.42831 0.0
H779 H 0.59872 0.86118 0.45029 0.0
C780 C 0.21346 0.22655 0.80262 0.0
C781 C 0.21463 0.22923 0.77947 0.0
C782 C 0.19039 0.22559 0.81334 0.0
C783 C 0.1679 0.22741 0.80063 0.0
C784 C 0.16908 0.2311 0.77752 0.0
C785 C 0.19245 0.23196 0.7672 0.0
C786 C 0.18997 0.2218 0.83805 0.0
C787 C 0.14553 0.23322 0.76345 0.0
C788 C 0.10672 0.19709 0.82097 0.0
C789 C 0.09756 0.21711 0.83394 0.0
C790 C 0.12929 0.20029 0.80961 0.0
C791 C 0.14304 0.22411 0.81122 0.0
C792 C 0.13359 0.24448 0.82381 0.0
C793 C 0.11098 0.24074 0.83503 0.0
C794 C 0.13874 0.17809 0.79634 0.0
C795 C 0.14767 0.27015 0.82584 0.0
H796 H 0.23061 0.22482 0.81228 0.0
H797 H 0.19317 0.23381 0.74925 0.0
H798 H 0.1809 0.23629 0.84849 0.0
H799 H 0.17846 0.20394 0.83899 0.0
H800 H 0.20928 0.22202 0.84588 0.0
H801 H 0.14994 0.23799 0.74637 0.0
H802 H 0.13259 0.21555 0.76075 0.0
H803 H 0.13515 0.24738 0.77278 0.0
H804 H 0.09647 0.17878 0.81997 0.0
H805 H 0.10402 0.25635 0.84495 0.0
H806 H 0.15727 0.1758 0.80425 0.0
H807 H 0.14184 0.18068 0.77838 0.0
H808 H 0.1253 0.16098 0.79596 0.0
H809 H 0.16642 0.27145 0.83511 0.0
H810 H 0.13709 0.28416 0.83519 0.0
H811 H 0.15124 0.27454 0.8085 0.0
C812 C 0.56687 0.59776 0.50457 0.0
C813 C 0.55924 0.60999 0.5253 0.0
C814 C 0.56035 0.60459 0.48346 0.0
C815 C 0.54576 0.62396 0.48319 0.0
C816 C 0.53681 0.63532 0.50399 0.0
C817 C 0.5437 0.62824 0.52475 0.0
C818 C 0.57019 0.59198 0.46166 0.0
C819 C 0.521 0.65585 0.50451 0.0
C820 C 0.554 0.66552 0.43857 0.0
C821 C 0.53163 0.65793 0.42444 0.0
C822 C 0.55929 0.65388 0.45712 0.0
C823 C 0.5418 0.63412 0.46175 0.0
C824 C 0.51965 0.62571 0.44705 0.0
C825 C 0.51481 0.63772 0.42856 0.0
C826 C 0.58317 0.66341 0.47232 0.0
C827 C 0.50059 0.60465 0.45136 0.0
H828 H 0.57892 0.58368 0.50496 0.0
H829 H 0.53746 0.63746 0.54075 0.0
H830 H 0.55476 0.5866 0.44789 0.0
H831 H 0.58504 0.60487 0.45551 0.0
H832 H 0.57851 0.57541 0.4643 0.0
H833 H 0.51378 0.66132 0.52174 0.0
H834 H 0.53259 0.67212 0.49978 0.0
H835 H 0.50461 0.65031 0.49172 0.0
H836 H 0.56724 0.68097 0.43547 0.0
H837 H 0.49754 0.63163 0.41769 0.0
H838 H 0.594 0.64819 0.47421 0.0
H839 H 0.5781 0.67137 0.48976 0.0
H840 H 0.59569 0.67773 0.46544 0.0
H841 H 0.51023 0.58879 0.45377 0.0
H842 H 0.48579 0.59864 0.43704 0.0
H843 H 0.49116 0.61026 0.46744 0.0
C844 C 0.8829 0.7687 0.78168 0.0
C845 C 0.85955 0.77692 0.77822 0.0
C846 C 0.89989 0.76628 0.76412 0.0
C847 C 0.89347 0.77224 0.74247 0.0
C848 C 0.87003 0.78074 0.73888 0.0
C849 C 0.85337 0.78304 0.75681 0.0
C850 C 0.92473 0.75727 0.76873 0.0
C851 C 0.86244 0.78718 0.71602 0.0
C852 C 0.9482 0.78448 0.7043 0.0
C853 C 0.94717 0.76164 0.68989 0.0
C854 C 0.93046 0.7884 0.7211 0.0
C855 C 0.91118 0.76906 0.72355 0.0
C856 C 0.90966 0.74618 0.70866 0.0
C857 C 0.92765 0.74275 0.69207 0.0
C858 C 0.93274 0.81306 0.73663 0.0
C859 C 0.88938 0.72509 0.71065 0.0
H860 H 0.88807 0.7644 0.79831 0.0
H861 H 0.83532 0.78928 0.75397 0.0
H862 H 0.92597 0.74008 0.7566 0.0
H863 H 0.94082 0.77101 0.76582 0.0
H864 H 0.92702 0.75371 0.78659 0.0
H865 H 0.84382 0.79402 0.71613 0.0
H866 H 0.87702 0.80144 0.71146 0.0
H867 H 0.86135 0.77081 0.7023 0.0
H868 H 0.96316 0.79921 0.70275 0.0
H869 H 0.92658 0.72506 0.68098 0.0
H870 H 0.93702 0.81098 0.75467 0.0
H871 H 0.91449 0.82048 0.73615 0.0
H872 H 0.9479 0.82659 0.73172 0.0
H873 H 0.89187 0.71944 0.72763 0.0
H874 H 0.88992 0.70893 0.69698 0.0
H875 H 0.87033 0.73088 0.70965 0.0
C876 C 0.06788 0.85773 0.51463 0.0
C877 C 0.05736 0.87811 0.50969 0.0
C878 C 0.06142 0.84734 0.53403 0.0
C879 C 0.04426 0.85777 0.54915 0.0
C880 C 0.03511 0.87948 0.54526 0.0
C881 C 0.04168 0.88935 0.52551 0.0
C882 C 0.07168 0.82423 0.53747 0.0
C883 C 0.01716 0.89143 0.5612 0.0
C884 C 0.00351 0.8118 0.57783 0.0
C885 C 0.01661 0.81423 0.59932 0.0
C886 C 0.01189 0.82643 0.56171 0.0
C887 C 0.03377 0.84424 0.56724 0.0
C888 C 0.04645 0.84759 0.58929 0.0
C889 C 0.03783 0.83242 0.60502 0.0
C890 C 0.99789 0.82208 0.53835 0.0
C891 C 0.06956 0.86666 0.59599 0.0
H892 H 0.08048 0.84928 0.50276 0.0
H893 H 0.03342 0.90507 0.52184 0.0
H894 H 0.0799 0.82612 0.5553 0.0
H895 H 0.05596 0.80864 0.53484 0.0
H896 H 0.08645 0.81964 0.52534 0.0
H897 H 0.01499 0.91007 0.55795 0.0
H898 H 0.99821 0.88002 0.55871 0.0
H899 H 0.0239 0.89276 0.57942 0.0
H900 H 0.98709 0.79785 0.57323 0.0
H901 H 0.04798 0.83454 0.62164 0.0
H902 H 0.01056 0.81556 0.52487 0.0
H903 H 0.9923 0.83946 0.53453 0.0
H904 H 0.98058 0.80829 0.5371 0.0
H905 H 0.08559 0.86127 0.58579 0.0
H906 H 0.07547 0.86892 0.61455 0.0
H907 H 0.06583 0.88463 0.59207 0.0
C908 C 0.18366 0.75202 0.74922 0.0
C909 C 0.19876 0.7389 0.73417 0.0
C910 C 0.16062 0.75822 0.74122 0.0
C911 C 0.15255 0.7512 0.71763 0.0
C912 C 0.16735 0.73735 0.70254 0.0
C913 C 0.19015 0.73129 0.711 0.0
C914 C 0.14524 0.77283 0.75787 0.0
C915 C 0.15944 0.72942 0.67728 0.0
C916 C 0.08438 0.75017 0.69565 0.0
C917 C 0.08611 0.77191 0.68648 0.0
C918 C 0.10562 0.74363 0.70663 0.0
C919 C 0.12922 0.75908 0.70834 0.0
C920 C 0.13092 0.78134 0.69966 0.0
C921 C 0.10935 0.78752 0.68892 0.0
C922 C 0.10298 0.71983 0.71582 0.0
C923 C 0.15576 0.79826 0.70103 0.0
H924 H 0.19023 0.75808 0.76711 0.0
H925 H 0.20141 0.72068 0.69936 0.0
H926 H 0.14473 0.79115 0.75314 0.0
H927 H 0.12536 0.76357 0.7569 0.0
H928 H 0.15316 0.77537 0.77592 0.0
H929 H 0.17272 0.71815 0.66797 0.0
H930 H 0.14018 0.71864 0.67511 0.0
H931 H 0.15857 0.7458 0.66911 0.0
H932 H 0.06648 0.73805 0.69398 0.0
H933 H 0.11089 0.80436 0.68194 0.0
H934 H 0.11053 0.72309 0.734 0.0
H935 H 0.11432 0.70699 0.70583 0.0
H936 H 0.08296 0.71087 0.71481 0.0
H937 H 0.16387 0.80297 0.71905 0.0
H938 H 0.15362 0.81551 0.69463 0.0
H939 H 0.16963 0.78884 0.69063 0.0
C940 C 0.94876 0.59938 0.53626 0.0
C941 C 0.96533 0.59144 0.51957 0.0
C942 C 0.95637 0.61984 0.55353 0.0
C943 C 0.9811 0.63294 0.55408 0.0
C944 C 0.99785 0.62527 0.53714 0.0
C945 C 0.98978 0.60459 0.5201 0.0
C946 C 0.9379 0.62741 0.57124 0.0
C947 C 0.02433 0.63885 0.53711 0.0
C948 C 0.99138 0.69818 0.58754 0.0
C949 C 0.00258 0.69511 0.60854 0.0
C950 C 0.9848 0.67821 0.56948 0.0
C951 C 0.98935 0.65455 0.57254 0.0
C952 C 1.0008 0.65135 0.59363 0.0
C953 C 0.00735 0.67166 0.61134 0.0
C954 C 0.97275 0.6824 0.54721 0.0
C955 C 0.00578 0.62638 0.59763 0.0
H956 H 0.92963 0.58972 0.5357 0.0
H957 H 0.00274 0.59851 0.50736 0.0
H958 H 0.94607 0.62721 0.58875 0.0
H959 H 0.93444 0.64643 0.57069 0.0
H960 H 0.91941 0.61517 0.56849 0.0
H961 H 0.03485 0.63087 0.52248 0.0
H962 H 0.02351 0.65838 0.53616 0.0
H963 H 0.03517 0.63843 0.55341 0.0
H964 H 0.98776 0.71624 0.58515 0.0
H965 H 0.016 0.66909 0.62748 0.0
H966 H 0.95336 0.6719 0.54418 0.0
H967 H 0.98385 0.67559 0.53257 0.0
H968 H 0.97146 0.70207 0.54722 0.0
H969 H 0.98759 0.61382 0.59639 0.0
H970 H 0.0155 0.62709 0.61474 0.0
H971 H 0.01765 0.61836 0.58414 0.0
C972 C 0.80374 0.854 0.20769 0.0
C973 C 0.8088 0.83626 0.22077 0.0
C974 C 0.81823 0.87739 0.21151 0.0
C975 C 0.83833 0.88311 0.22875 0.0
C976 C 0.84337 0.86534 0.24215 0.0
C977 C 0.82853 0.84214 0.23801 0.0
C978 C 0.8122 0.89591 0.19697 0.0
C979 C 0.86474 0.87069 0.26059 0.0
C980 C 0.89243 0.93336 0.22401 0.0
C981 C 0.88679 0.95287 0.24034 0.0
C982 C 0.87666 0.91067 0.2199 0.0
C983 C 0.85462 0.9074 0.23234 0.0
C984 C 0.84855 0.92713 0.24856 0.0
C985 C 0.86473 0.94962 0.25241 0.0
C986 C 0.88381 0.89005 0.2025 0.0
C987 C 0.82514 0.92435 0.26207 0.0
H988 H 0.78833 0.84961 0.19451 0.0
H989 H 0.83274 0.82839 0.24795 0.0
H990 H 0.80842 0.9129 0.20816 0.0
H991 H 0.82875 0.90101 0.18702 0.0
H992 H 0.79548 0.88882 0.18474 0.0
H993 H 0.86573 0.85512 0.26991 0.0
H994 H 0.88311 0.87475 0.25277 0.0
H995 H 0.86235 0.88717 0.27323 0.0
H996 H 0.90942 0.93568 0.2146 0.0
H997 H 0.86019 0.96461 0.26502 0.0
H998 H 0.86811 0.88334 0.18914 0.0
H999 H 0.88692 0.8744 0.21108 0.0
H1000 H 0.90128 0.89573 0.1939 0.0
H1001 H 0.80802 0.91825 0.25016 0.0
H1002 H 0.82262 0.9417 0.27344 0.0
H1003 H 0.82635 0.91003 0.27283 0.0
C1004 C 0.78834 0.14673 0.29238 0.0
C1005 C 0.79497 0.16841 0.30846 0.0
C1006 C 0.80343 0.12785 0.29048 0.0
C1007 C 0.82574 0.13065 0.30502 0.0
C1008 C 0.83224 0.15224 0.32166 0.0
C1009 C 0.81678 0.17085 0.32319 0.0
C1010 C 0.79572 0.10506 0.27262 0.0
C1011 C 0.85586 0.15593 0.33747 0.0
C1012 C 0.85412 0.073 0.31127 0.0
C1013 C 0.8733 0.07344 0.29561 0.0
C1014 C 0.83873 0.09166 0.31476 0.0
C1015 C 0.84259 0.11126 0.3023 0.0
C1016 C 0.86215 0.11201 0.28672 0.0
C1017 C 0.87725 0.09311 0.28356 0.0
C1018 C 0.81811 0.09021 0.33154 0.0
C1019 C 0.8669 0.13261 0.27313 0.0
H1020 H 0.77135 0.14459 0.28115 0.0
H1021 H 0.8222 0.18766 0.33547 0.0
H1022 H 0.81058 0.10318 0.26003 0.0
H1023 H 0.79398 0.08855 0.2809 0.0
H1024 H 0.77741 0.10539 0.26315 0.0
H1025 H 0.85763 0.17323 0.35018 0.0
H1026 H 0.85579 0.14036 0.34692 0.0
H1027 H 0.87287 0.15636 0.3272 0.0
H1028 H 0.85092 0.05793 0.3207 0.0
H1029 H 0.89203 0.09366 0.27146 0.0
H1030 H 0.79931 0.08891 0.32236 0.0
H1031 H 0.82054 0.10715 0.34471 0.0
H1032 H 0.81805 0.07417 0.34039 0.0
H1033 H 0.84982 0.13284 0.2619 0.0
H1034 H 0.88331 0.13089 0.26221 0.0
H1035 H 0.87051 0.15051 0.28497 0.0
C1036 C 0.38691 1.00082 0.97566 0.0
C1037 C 0.40993 0.0079 0.98891 0.0
C1038 C 0.36774 0.98374 0.98189 0.0
C1039 C 0.37167 0.97345 1.00185 0.0
C1040 C 0.39518 0.97989 0.01486 0.0
C1041 C 0.41401 0.99706 0.00825 0.0
C1042 C 0.34293 0.97739 0.96758 0.0
C1043 C 0.40017 0.96919 0.03614 0.0
C1044 C 0.31284 0.95158 0.03139 0.0
C1045 C 0.30939 0.92622 0.0233 0.0
C1046 C 0.33321 0.96708 0.02477 0.0
C1047 C 0.35066 0.95699 0.00975 0.0
C1048 C 0.34761 0.93136 1.00187 0.0
C1049 C 0.327 0.91628 0.00871 0.0
C1050 C 0.3358 0.99433 0.03355 0.0
C1051 C 0.36587 0.91991 0.98592 0.0
H1052 H 0.38347 0.00936 0.96088 0.0
H1053 H 0.43186 1.00226 0.01841 0.0
H1054 H 0.33816 0.95722 0.9624 0.0
H1055 H 0.32743 0.98382 0.97796 0.0
H1056 H 0.34343 0.98585 0.95184 0.0
H1057 H 0.41998 0.97488 0.04351 0.0
H1058 H 0.38709 0.97521 0.04943 0.0
H1059 H 0.39643 0.94888 0.03212 0.0
H1060 H 0.29937 0.95945 0.04266 0.0
H1061 H 0.32454 0.8967 0.0024 0.0
H1062 H 0.33442 0.00423 0.01887 0.0
H1063 H 0.35472 1.00096 0.04257 0.0
H1064 H 0.321 0.9992 0.04555 0.0
H1065 H 0.36529 0.92702 0.96949 0.0
H1066 H 0.36143 0.89959 0.98207 0.0
H1067 H 0.38555 0.92502 0.99366 0.0
C1068 C 0.26433 0.3727 0.28635 0.0
C1069 C 0.26093 0.3689 0.30897 0.0
C1070 C 0.24805 0.38576 0.27549 0.0
C1071 C 0.22797 0.39513 0.28757 0.0
C1072 C 0.22342 0.3897 0.30975 0.0
C1073 C 0.23991 0.37666 0.32013 0.0
C1074 C 0.2534 0.39092 0.25174 0.0
C1075 C 0.20219 0.39914 0.32324 0.0
C1076 C 0.20876 0.45594 0.27864 0.0
C1077 C 0.18503 0.44875 0.26656 0.0
C1078 C 0.22323 0.4386 0.28477 0.0
C1079 C 0.21389 0.41329 0.27864 0.0
C1080 C 0.19036 0.4058 0.26575 0.0
C1081 C 0.17616 0.42363 0.2599 0.0
C1082 C 0.24818 0.44747 0.29856 0.0
C1083 C 0.17987 0.379 0.25873 0.0
H1084 H 0.28054 0.36673 0.27766 0.0
H1085 H 0.23697 0.37337 0.33749 0.0
H1086 H 0.23558 0.38794 0.24069 0.0
H1087 H 0.26179 0.41041 0.25296 0.0
H1088 H 0.26683 0.37922 0.24328 0.0
H1089 H 0.19949 0.39111 0.33911 0.0
H1090 H 0.20652 0.41938 0.32825 0.0
H1091 H 0.18409 0.395 0.31254 0.0
H1092 H 0.21592 0.47527 0.28377 0.0
H1093 H 0.15792 0.41787 0.25046 0.0
H1094 H 0.26361 0.43873 0.28995 0.0
H1095 H 0.24701 0.44213 0.3158 0.0
H1096 H 0.25341 0.46769 0.30088 0.0
H1097 H 0.19445 0.36872 0.25041 0.0
H1098 H 0.16277 0.37609 0.24671 0.0
H1099 H 0.17468 0.3711 0.27423 0.0
C1100 C 0.14417 0.98969 0.47066 0.0
C1101 C 0.12107 0.99909 0.47185 0.0
C1102 C 0.16739 0.00526 0.47574 0.0
C1103 C 0.16751 0.03085 0.48221 0.0
C1104 C 0.14423 0.04033 0.48429 0.0
C1105 C 0.1213 0.02435 0.47906 0.0
C1106 C 0.19182 0.99444 0.47332 0.0
C1107 C 0.14354 0.06746 0.49134 0.0
C1108 C 0.22766 0.07047 0.51087 0.0
C1109 C 0.23812 0.0804 0.4924 0.0
C1110 C 0.20473 0.05429 0.50782 0.0
C1111 C 0.19196 0.04781 0.48576 0.0
C1112 C 0.20245 0.05768 0.46703 0.0
C1113 C 0.22537 0.07387 0.47058 0.0
C1114 C 0.19412 0.0442 0.52822 0.0
C1115 C 0.18941 0.05118 0.44322 0.0
H1116 H 0.14414 0.97024 0.46481 0.0
H1117 H 0.10348 0.03167 0.48022 0.0
H1118 H 0.20226 1.00117 0.45918 0.0
H1119 H 0.20422 1.00044 0.48932 0.0
H1120 H 0.18848 0.97407 0.46956 0.0
H1121 H 0.12391 0.07173 0.49345 0.0
H1122 H 0.15492 0.07457 0.50777 0.0
H1123 H 0.15213 0.07744 0.47814 0.0
H1124 H 0.23733 0.07541 0.52781 0.0
H1125 H 0.2333 0.08142 0.45621 0.0
H1126 H 0.19189 0.02387 0.5247 0.0
H1127 H 0.17501 0.04944 0.53115 0.0
H1128 H 0.20643 0.05095 0.54422 0.0
H1129 H 0.18701 0.03104 0.43735 0.0
H1130 H 0.20016 0.06023 0.43045 0.0
H1131 H 0.17019 0.05669 0.44359 0.0
C1132 C 0.76478 0.15354 0.76247 0.0
C1133 C 0.76699 0.16485 0.74299 0.0
C1134 C 0.74595 0.13357 0.76306 0.0
C1135 C 0.72868 0.12473 0.74376 0.0
C1136 C 0.73063 0.13613 0.72407 0.0
C1137 C 0.74977 0.15606 0.72392 0.0
C1138 C 0.7445 0.12197 0.7844 0.0
C1139 C 0.71253 0.12723 0.70318 0.0
C1140 C 0.69482 0.0595 0.73884 0.0
C1141 C 0.67141 0.06338 0.74785 0.0
C1142 C 0.71345 0.07931 0.73702 0.0
C1143 C 0.70857 0.10359 0.74434 0.0
C1144 C 0.68487 0.10764 0.75315 0.0
C1145 C 0.6666 0.08749 0.75484 0.0
C1146 C 0.73854 0.07424 0.72764 0.0
C1147 C 0.67892 0.13326 0.76108 0.0
H1148 H 0.77763 0.16052 0.77748 0.0
H1149 H 0.75145 0.1646 0.70876 0.0
H1150 H 0.72576 0.12322 0.79174 0.0
H1151 H 0.74629 0.10222 0.77994 0.0
H1152 H 0.75957 0.13085 0.79783 0.0
H1153 H 0.71645 0.13819 0.68932 0.0
H1154 H 0.71384 0.10776 0.69626 0.0
H1155 H 0.69273 0.12815 0.70805 0.0
H1156 H 0.69872 0.04095 0.73338 0.0
H1157 H 0.64855 0.09069 0.76174 0.0
H1158 H 0.75409 0.08149 0.74104 0.0
H1159 H 0.74243 0.0838 0.71286 0.0
H1160 H 0.73903 0.05434 0.72193 0.0
H1161 H 0.6923 0.14269 0.77568 0.0
H1162 H 0.65925 0.13331 0.76666 0.0
H1163 H 0.68148 0.1441 0.74702 0.0
C1164 C 0.46328 0.04796 0.5377 0.0
C1165 C 0.46372 0.02514 0.52367 0.0
C1166 C 0.44506 0.06291 0.53338 0.0
C1167 C 0.42694 0.05489 0.51455 0.0
C1168 C 0.4268 0.03155 0.50082 0.0
C1169 C 0.44508 0.01695 0.5056 0.0
C1170 C 0.44571 0.0876 0.54853 0.0
C1171 C 0.40776 0.02225 0.48064 0.0
C1172 C 0.36699 0.0844 0.51075 0.0
C1173 C 0.3733 0.10045 0.49524 0.0
C1174 C 0.38442 0.06985 0.51758 0.0
C1175 C 0.40872 0.07121 0.50856 0.0
C1176 C 0.4153 0.08754 0.49308 0.0
C1177 C 0.39756 0.10201 0.48668 0.0
C1178 C 0.37674 0.05283 0.53425 0.0
C1179 C 0.44096 0.08941 0.48297 0.0
H1180 H 0.47772 0.05453 0.55156 0.0
H1181 H 0.44502 0.99916 0.49493 0.0
H1182 H 0.45057 0.10235 0.53832 0.0
H1183 H 0.42673 0.08955 0.55511 0.0
H1184 H 0.45981 0.09041 0.5634 0.0
H1185 H 0.40962 0.00332 0.47217 0.0
H1186 H 0.38818 0.02244 0.48635 0.0
H1187 H 0.41036 0.03453 0.46772 0.0
H1188 H 0.34835 0.08315 0.51758 0.0
H1189 H 0.40264 0.11434 0.47471 0.0
H1190 H 0.39062 0.05659 0.54932 0.0
H1191 H 0.37683 0.03355 0.52586 0.0
H1192 H 0.35755 0.05469 0.54045 0.0
H1193 H 0.45621 0.09415 0.49693 0.0
H1194 H 0.44337 0.10342 0.47162 0.0
H1195 H 0.4435 0.07142 0.4728 0.0
C1196 C 0.616 0.48482 0.58883 0.0
C1197 C 0.60289 0.49561 0.57308 0.0
C1198 C 0.63373 0.46916 0.58159 0.0
C1199 C 0.63877 0.46428 0.55803 0.0
C1200 C 0.6252 0.4746 0.54193 0.0
C1201 C 0.6074 0.49009 0.54963 0.0
C1202 C 0.64775 0.45854 0.59934 0.0
C1203 C 0.63004 0.46988 0.51666 0.0
C1204 C 0.70448 0.44811 0.54578 0.0
C1205 C 0.69977 0.42247 0.53968 0.0
C1206 C 0.68471 0.46191 0.55115 0.0
C1207 C 0.65952 0.44982 0.55061 0.0
C1208 C 0.6545 0.42398 0.54404 0.0
C1209 C 0.67468 0.4106 0.53856 0.0
C1210 C 0.69089 0.48944 0.55788 0.0
C1211 C 0.62793 0.41041 0.54338 0.0
H1212 H 0.61308 0.48926 0.60702 0.0
H1213 H 0.59718 0.49809 0.53729 0.0
H1214 H 0.64638 0.43837 0.59415 0.0
H1215 H 0.66817 0.46623 0.60053 0.0
H1216 H 0.64028 0.46256 0.61667 0.0
H1217 H 0.61679 0.47795 0.50617 0.0
H1218 H 0.64975 0.47785 0.51413 0.0
H1219 H 0.62817 0.44988 0.51016 0.0
H1220 H 0.72375 0.4575 0.54654 0.0
H1221 H 0.67085 0.39081 0.53389 0.0
H1222 H 0.6861 0.49517 0.57592 0.0
H1223 H 0.6793 0.49853 0.54685 0.0
H1224 H 0.71125 0.49614 0.55638 0.0
H1225 H 0.62086 0.41285 0.56094 0.0
H1226 H 0.62697 0.39048 0.5368 0.0
H1227 H 0.61493 0.41809 0.53235 0.0
C1228 C 0.75995 0.26366 0.35511 0.0
C1229 C 0.75642 0.23799 0.35281 0.0
C1230 C 0.75824 0.27864 0.37642 0.0
C1231 C 0.75316 0.26776 0.39607 0.0
C1232 C 0.74881 0.24189 0.39379 0.0
C1233 C 0.75041 0.22732 0.37219 0.0
C1234 C 0.76291 0.30615 0.37807 0.0
C1235 C 0.74341 0.22959 0.41434 0.0
C1236 C 0.77988 0.30674 0.4529 0.0
C1237 C 0.75846 0.31618 0.46172 0.0
C1238 C 0.7782 0.29045 0.43191 0.0
C1239 C 0.75454 0.28353 0.41922 0.0
C1240 C 0.7327 0.29257 0.4282 0.0
C1241 C 0.73489 0.30872 0.44943 0.0
C1242 C 0.80192 0.28106 0.42308 0.0
C1243 C 0.70718 0.28572 0.4151 0.0
H1244 H 0.765 0.27217 0.3404 0.0
H1245 H 0.74726 0.20753 0.37055 0.0
H1246 H 0.74739 0.31456 0.38686 0.0
H1247 H 0.78081 0.31375 0.38852 0.0
H1248 H 0.76437 0.3117 0.36091 0.0
H1249 H 0.73859 0.20937 0.40942 0.0
H1250 H 0.76031 0.23372 0.42663 0.0
H1251 H 0.72751 0.23686 0.4235 0.0
H1252 H 0.79814 0.31222 0.46235 0.0
H1253 H 0.71826 0.31595 0.45611 0.0
H1254 H 0.80644 0.28759 0.40676 0.0
H1255 H 0.79883 0.26072 0.41928 0.0
H1256 H 0.81857 0.28722 0.43556 0.0
H1257 H 0.70794 0.29283 0.39865 0.0
H1258 H 0.6918 0.2932 0.42499 0.0
H1259 H 0.70233 0.26549 0.41073 0.0
C1260 C 0.51012 0.02112 0.88496 0.0
C1261 C 0.50108 0.04346 0.88447 0.0
C1262 C 0.52968 0.01411 0.87107 0.0
C1263 C 0.54054 0.02991 0.85649 0.0
C1264 C 0.53221 0.05294 0.85671 0.0
C1265 C 0.51257 0.05939 0.87064 0.0
C1266 C 0.53799 0.98939 0.87129 0.0
C1267 C 0.54346 0.07046 0.84165 0.0
C1268 C 0.60347 0.0212 0.83 0.0
C1269 C 0.59546 0.00972 0.80741 0.0
C1270 C 0.58583 0.02741 0.84634 0.0
C1271 C 0.55954 0.02192 0.83998 0.0
C1272 C 0.55134 0.00981 0.81737 0.0
C1273 C 0.56936 0.00393 0.80137 0.0
C1274 C 0.59534 0.04038 0.87023 0.0
C1275 C 0.52348 0.00352 0.80992 0.0
H1276 H 0.50117 0.00867 0.8955 0.0
H1277 H 0.50588 0.07683 0.87044 0.0
H1278 H 0.53281 0.97746 0.85432 0.0
H1279 H 0.55891 0.99137 0.87414 0.0
H1280 H 0.52908 0.98009 0.88481 0.0
H1281 H 0.53603 0.08828 0.84493 0.0
H1282 H 0.56441 0.07398 0.84454 0.0
H1283 H 0.53906 0.06215 0.82328 0.0
H1284 H 0.62357 0.02575 0.83486 0.0
H1285 H 0.56295 0.99496 0.78401 0.0
H1286 H 0.5866 0.0303 0.88329 0.0
H1287 H 0.58967 0.05897 0.87337 0.0
H1288 H 0.61631 0.0422 0.87283 0.0
H1289 H 0.51348 0.99255 0.82175 0.0
H1290 H 0.52019 0.99302 0.79211 0.0
H1291 H 0.51483 0.02059 0.81079 0.0
C1292 C 0.30126 0.2408 0.35389 0.0
C1293 C 0.32463 0.24835 0.34522 0.0
C1294 C 0.29967 0.22627 0.37117 0.0
C1295 C 0.32202 0.21924 0.38016 0.0
C1296 C 0.34553 0.22599 0.37084 0.0
C1297 C 0.34654 0.24041 0.35344 0.0
C1298 C 0.27419 0.21928 0.38044 0.0
C1299 C 0.36982 0.21899 0.38001 0.0
C1300 C 0.32122 0.20901 0.44217 0.0
C1301 C 0.31671 0.18334 0.43959 0.0
C1302 C 0.32347 0.22081 0.423 0.0
C1303 C 0.32103 0.20666 0.40058 0.0
C1304 C 0.31689 0.18073 0.39781 0.0
C1305 C 0.31486 0.16937 0.41735 0.0
C1306 C 0.32807 0.24849 0.42676 0.0
C1307 C 0.3141 0.16502 0.3742 0.0
H1308 H 0.28423 0.24665 0.34741 0.0
H1309 H 0.3647 0.24637 0.34698 0.0
H1310 H 0.27066 0.19925 0.38038 0.0
H1311 H 0.27406 0.22863 0.39854 0.0
H1312 H 0.25839 0.22438 0.3703 0.0
H1313 H 0.38609 0.22368 0.36955 0.0
H1314 H 0.3744 0.22873 0.39795 0.0
H1315 H 0.36753 0.19905 0.3804 0.0
H1316 H 0.32282 0.22 0.45925 0.0
H1317 H 0.31136 0.14954 0.41517 0.0
H1318 H 0.31189 0.25539 0.41886 0.0
H1319 H 0.34532 0.25488 0.41824 0.0
H1320 H 0.33046 0.2568 0.4453 0.0
H1321 H 0.29727 0.16872 0.36447 0.0
H1322 H 0.31193 0.14513 0.37496 0.0
H1323 H 0.33089 0.1697 0.36438 0.0
C1324 C 0.51572 0.47221 0.92695 0.0
C1325 C 0.54171 0.47989 0.9257 0.0
C1326 C 0.49803 0.47505 0.90968 0.0
C1327 C 0.50661 0.48548 0.89057 0.0
C1328 C 0.5328 0.49361 0.88944 0.0
C1329 C 0.54998 0.49079 0.90703 0.0
C1330 C 0.47023 0.46645 0.91164 0.0
C1331 C 0.54281 0.50451 0.86924 0.0
C1332 C 0.4679 0.46832 0.83347 0.0
C1333 C 0.45704 0.48962 0.83232 0.0
C1334 C 0.48369 0.46662 0.85249 0.0
C1335 C 0.48856 0.4866 0.87102 0.0
C1336 C 0.47721 0.50796 0.87025 0.0
C1337 C 0.46171 0.50929 0.85083 0.0
C1338 C 0.49565 0.44362 0.8525 0.0
C1339 C 0.48174 0.52954 0.88978 0.0
H1340 H 0.50924 0.46391 0.94142 0.0
H1341 H 0.57009 0.4964 0.90576 0.0
H1342 H 0.45896 0.48138 0.90979 0.0
H1343 H 0.46345 0.45092 0.89751 0.0
H1344 H 0.46645 0.46038 0.92832 0.0
H1345 H 0.56356 0.51088 0.87145 0.0
H1346 H 0.53888 0.49063 0.85328 0.0
H1347 H 0.533 0.52025 0.8668 0.0
H1348 H 0.46445 0.45303 0.81925 0.0
H1349 H 0.45326 0.52575 0.85015 0.0
H1350 H 0.49081 0.43566 0.86804 0.0
H1351 H 0.51662 0.44816 0.8531 0.0
H1352 H 0.48942 0.42948 0.83703 0.0
H1353 H 0.47702 0.52345 0.90625 0.0
H1354 H 0.47033 0.54418 0.88718 0.0
H1355 H 0.50211 0.53744 0.89148 0.0
C1356 C 0.7689 0.77272 0.14595 0.0
C1357 C 0.77205 0.76079 0.16478 0.0
C1358 C 0.76901 0.76028 0.12325 0.0
C1359 C 0.77168 0.7351 0.11919 0.0
C1360 C 0.77358 0.72263 0.13801 0.0
C1361 C 0.77406 0.73565 0.16053 0.0
C1362 C 0.76726 0.7743 0.10364 0.0
C1363 C 0.77599 0.69566 0.1344 0.0
C1364 C 0.75484 0.69696 0.05961 0.0
C1365 C 0.77894 0.69486 0.05141 0.0
C1366 C 0.75212 0.7102 0.08158 0.0
C1367 C 0.774 0.72207 0.09539 0.0
C1368 C 0.79833 0.7207 0.08682 0.0
C1369 C 0.80052 0.70686 0.06505 0.0
C1370 C 0.7259 0.71078 0.09032 0.0
C1371 C 0.8221 0.73355 0.10081 0.0
H1372 H 0.76679 0.79199 0.14894 0.0
H1373 H 0.77693 0.72622 0.17481 0.0
H1374 H 0.78503 0.77448 0.09441 0.0
H1375 H 0.75152 0.76513 0.09104 0.0
H1376 H 0.76419 0.79355 0.10962 0.0
H1377 H 0.7748 0.68816 0.15066 0.0
H1378 H 0.76085 0.68507 0.12184 0.0
H1379 H 0.79446 0.69273 0.12714 0.0
H1380 H 0.73812 0.68753 0.04918 0.0
H1381 H 0.81917 0.70541 0.05869 0.0
H1382 H 0.72256 0.72999 0.09581 0.0
H1383 H 0.72429 0.7017 0.10564 0.0
H1384 H 0.71078 0.70138 0.07713 0.0
H1385 H 0.82064 0.75326 0.10634 0.0
H1386 H 0.83941 0.73203 0.09105 0.0
H1387 H 0.82433 0.72554 0.1166 0.0
C1388 C 0.0566 0.05249 0.14018 0.0
C1389 C 0.054 0.03317 0.12133 0.0
C1390 C 0.04297 0.05064 0.15984 0.0
C1391 C 0.02636 0.02886 0.1608 0.0
C1392 C 0.02384 0.00915 0.14197 0.0
C1393 C 0.03772 0.01152 0.12246 0.0
C1394 C 0.04633 0.07202 0.17959 0.0
C1395 C 0.00632 0.98563 0.14235 0.0
C1396 C 0.00836 0.0166 0.21997 0.0
C1397 C 0.98439 0.0243 0.22152 0.0
C1398 C 0.0221 0.01775 0.20024 0.0
C1399 C 0.01165 0.02683 0.18156 0.0
C1400 C 0.98745 0.03458 0.18297 0.0
C1401 C 0.97413 0.03324 0.20292 0.0
C1402 C 0.04786 0.00936 0.19943 0.0
C1403 C 0.97569 0.04441 0.16343 0.0
H1404 H 0.06952 0.0691 0.13965 0.0
H1405 H 0.0355 0.99658 0.10792 0.0
H1406 H 0.02783 0.07848 0.18299 0.0
H1407 H 0.05318 0.06617 0.19547 0.0
H1408 H 0.06 0.08766 0.17613 0.0
H1409 H 0.00672 0.97192 0.12646 0.0
H1410 H 0.01171 0.97747 0.15738 0.0
H1411 H 0.98657 0.98952 0.14429 0.0
H1412 H 0.01646 0.00962 0.2342 0.0
H1413 H 0.9556 0.03917 0.20391 0.0
H1414 H 0.06254 0.02478 0.19731 0.0
H1415 H 0.04815 0.99462 0.18435 0.0
H1416 H 0.05313 0.00238 0.21523 0.0
H1417 H 0.98801 0.06099 0.16018 0.0
H1418 H 0.95652 0.04924 0.16703 0.0
H1419 H 0.97414 0.03059 0.14741 0.0
C1420 C 0.28049 0.76878 0.16532 0.0
C1421 C 0.28904 0.78554 0.18545 0.0
C1422 C 0.27945 0.77642 0.14382 0.0
C1423 C 0.28701 0.80141 0.14244 0.0
C1424 C 0.29646 0.8182 0.16257 0.0
C1425 C 0.29749 0.81005 0.18374 0.0
C1426 C 0.2695 0.75791 0.1227 0.0
C1427 C 0.30476 0.84499 0.16189 0.0
C1428 C 0.30177 0.82217 0.08558 0.0
C1429 C 0.27933 0.83099 0.07991 0.0
C1430 C 0.30428 0.81179 0.1055 0.0
C1431 C 0.28397 0.8104 0.12024 0.0
C1432 C 0.26113 0.81888 0.11441 0.0
C1433 C 0.25905 0.82896 0.09429 0.0
C1434 C 0.32885 0.80275 0.111 0.0
C1435 C 0.23909 0.8179 0.12975 0.0
H1436 H 0.27379 0.74986 0.16647 0.0
H1437 H 0.30463 0.82303 0.19911 0.0
H1438 H 0.25129 0.76236 0.11603 0.0
H1439 H 0.28299 0.7587 0.10889 0.0
H1440 H 0.26632 0.73889 0.12632 0.0
H1441 H 0.3125 0.8555 0.17893 0.0
H1442 H 0.31948 0.84698 0.14927 0.0
H1443 H 0.28841 0.85331 0.15615 0.0
H1444 H 0.31749 0.8235 0.07451 0.0
H1445 H 0.24164 0.8357 0.09008 0.0
H1446 H 0.32504 0.78352 0.11388 0.0
H1447 H 0.33823 0.81395 0.12714 0.0
H1448 H 0.3422 0.80369 0.09706 0.0
H1449 H 0.23346 0.79888 0.13269 0.0
H1450 H 0.22232 0.82438 0.12235 0.0
H1451 H 0.24486 0.82948 0.14678 0.0
C1452 C 0.00691 0.49112 0.09552 0.0
C1453 C 0.02281 0.49877 0.07893 0.0
C1454 C 0.01691 0.48918 0.11742 0.0
C1455 C 0.04335 0.49549 0.12293 0.0
C1456 C 0.05944 0.50324 0.10619 0.0
C1457 C 0.049 0.50464 0.08438 0.0
C1458 C 0.9992 0.48053 0.13469 0.0
C1459 C 0.08764 0.51059 0.11146 0.0
C1460 C 0.06778 0.51676 0.18524 0.0
C1461 C 0.07849 0.49648 0.19018 0.0
C1462 C 0.05586 0.51646 0.1636 0.0
C1463 C 0.0542 0.49521 0.1465 0.0
C1464 C 0.06424 0.47436 0.15158 0.0
C1465 C 0.07647 0.47531 0.17331 0.0
C1466 C 0.04576 0.53922 0.15882 0.0
C1467 C 0.0625 0.45124 0.1339 0.0
H1468 H 0.98669 0.48641 0.09127 0.0
H1469 H 0.0613 0.51085 0.07167 0.0
H1470 H 0.00569 0.46463 0.14098 0.0
H1471 H 0.99945 0.4953 0.14982 0.0
H1472 H 0.97936 0.4751 0.12734 0.0
H1473 H 0.09757 0.51581 0.09642 0.0
H1474 H 0.09118 0.52636 0.1259 0.0
H1475 H 0.09609 0.49527 0.11699 0.0
H1476 H 0.0693 0.53325 0.19812 0.0
H1477 H 0.08456 0.45952 0.17703 0.0
H1478 H 0.02543 0.53475 0.15285 0.0
H1479 H 0.05611 0.54639 0.14483 0.0
H1480 H 0.04777 0.55394 0.17421 0.0
H1481 H 0.04257 0.44521 0.12707 0.0
H1482 H 0.06948 0.43604 0.14107 0.0
H1483 H 0.07388 0.45489 0.11918 0.0
C1484 C 0.35494 0.69851 0.29222 0.0
C1485 C 0.35491 0.70468 0.27017 0.0
C1486 C 0.37769 0.70017 0.30549 0.0
C1487 C 0.40102 0.70781 0.29632 0.0
C1488 C 0.40114 0.71337 0.27377 0.0
C1489 C 0.37802 0.71201 0.26105 0.0
C1490 C 0.37666 0.69459 0.32961 0.0
C1491 C 0.42566 0.72117 0.26326 0.0
C1492 C 0.45614 0.73826 0.33843 0.0
C1493 C 0.46996 0.71885 0.33972 0.0
C1494 C 0.43369 0.73485 0.32442 0.0
C1495 C 0.42507 0.71156 0.31096 0.0
C1496 C 0.43908 0.69191 0.31196 0.0
C1497 C 0.46125 0.69573 0.32656 0.0
C1498 C 0.41905 0.75615 0.32424 0.0
C1499 C 0.43071 0.66694 0.29754 0.0
H1500 H 0.33704 0.69312 0.2994 0.0
H1501 H 0.37799 0.71664 0.24394 0.0
H1502 H 0.38885 0.68047 0.33183 0.0
H1503 H 0.38413 0.71135 0.34218 0.0
H1504 H 0.35707 0.68799 0.33384 0.0
H1505 H 0.42264 0.72289 0.24493 0.0
H1506 H 0.43492 0.73911 0.27295 0.0
H1507 H 0.43896 0.70772 0.26444 0.0
H1508 H 0.46269 0.75615 0.34868 0.0
H1509 H 0.47198 0.68072 0.32736 0.0
H1510 H 0.39952 0.75128 0.32954 0.0
H1511 H 0.41737 0.76029 0.30658 0.0
H1512 H 0.42818 0.773 0.33594 0.0
H1513 H 0.41171 0.65928 0.30227 0.0
H1514 H 0.44415 0.65383 0.29971 0.0
H1515 H 0.42899 0.66854 0.27909 0.0
C1516 C 0.03989 0.41396 0.93705 0.0
C1517 C 0.04353 0.4246 0.96042 0.0
C1518 C 0.04142 0.38906 0.92968 0.0
C1519 C 0.04643 0.37427 0.94608 0.0
C1520 C 0.04958 0.38469 0.96974 0.0
C1521 C 0.04819 0.40977 0.97663 0.0
C1522 C 0.03797 0.37866 0.90427 0.0
C1523 C 0.05474 0.36942 0.98773 0.0
C1524 C 0.02954 0.3057 0.92515 0.0
C1525 C 0.05309 0.29914 0.91867 0.0
C1526 C 0.02725 0.32992 0.93499 0.0
C1527 C 0.04897 0.34804 0.93821 0.0
C1528 C 0.07291 0.34138 0.93237 0.0
C1529 C 0.0747 0.317 0.92277 0.0
C1530 C 1.00145 0.33626 0.94126 0.0
C1531 C 0.09649 0.36022 0.93538 0.0
H1532 H 0.03572 0.42513 0.92445 0.0
H1533 H 0.05124 0.41786 0.99469 0.0
H1534 H 0.05531 0.37117 0.89836 0.0
H1535 H 0.02204 0.36329 0.90101 0.0
H1536 H 0.03405 0.39261 0.89376 0.0
H1537 H 0.0555 0.38 0.00549 0.0
H1538 H 0.03979 0.35326 0.98618 0.0
H1539 H 0.07308 0.36241 0.98495 0.0
H1540 H 0.01277 0.29198 0.92218 0.0
H1541 H 0.09297 0.31211 0.91784 0.0
H1542 H 0.99522 0.34853 0.9299 0.0
H1543 H 1.00238 0.34631 0.9592 0.0
H1544 H 0.9869 0.31972 0.93955 0.0
H1545 H 0.09455 0.37379 0.92394 0.0
H1546 H 0.11388 0.35182 0.9313 0.0
H1547 H 0.09891 0.37039 0.95332 0.0
C1548 C 0.69035 0.75493 0.27912 0.0
C1549 C 0.70732 0.73777 0.27854 0.0
C1550 C 0.66611 0.75026 0.28738 0.0
C1551 C 0.65867 0.72787 0.29516 0.0
C1552 C 0.67526 0.71 0.29355 0.0
C1553 C 0.6994 0.71518 0.2853 0.0
C1554 C 0.64897 0.7698 0.28884 0.0
C1555 C 0.66797 0.68582 0.30147 0.0
C1556 C 0.61167 0.72719 0.34185 0.0
C1557 C 0.58906 0.71593 0.32933 0.0
C1558 C 0.63435 0.73131 0.33087 0.0
C1559 C 0.6345 0.72396 0.30675 0.0
C1560 C 0.61177 0.71264 0.29396 0.0
C1561 C 0.58929 0.70878 0.30541 0.0
C1562 C 0.65819 0.74348 0.34514 0.0
C1563 C 0.61123 0.70452 0.26823 0.0
H1564 H 0.69645 0.77249 0.2741 0.0
H1565 H 0.71233 0.70172 0.28457 0.0
H1566 H 0.6298 0.76185 0.28097 0.0
H1567 H 0.64676 0.77727 0.30717 0.0
H1568 H 0.65656 0.78517 0.28015 0.0
H1569 H 0.68209 0.6731 0.29725 0.0
H1570 H 0.66633 0.68906 0.32038 0.0
H1571 H 0.64918 0.67679 0.29345 0.0
H1572 H 0.6117 0.73285 0.36033 0.0
H1573 H 0.57191 0.70009 0.29558 0.0
H1574 H 0.66606 0.76038 0.3388 0.0
H1575 H 0.67282 0.73105 0.3434 0.0
H1576 H 0.65478 0.74842 0.36367 0.0
H1577 H 0.61786 0.72039 0.25985 0.0
H1578 H 0.59196 0.69624 0.26075 0.0
H1579 H 0.6244 0.69088 0.26403 0.0
C1580 C 0.0579 0.14039 0.02036 0.0
C1581 C 0.07135 0.12039 0.01932 0.0
C1582 C 0.04955 0.14799 1.00029 0.0
C1583 C 0.0548 0.13531 0.97856 0.0
C1584 C 0.0673 0.11434 0.97734 0.0
C1585 C 0.07539 0.10707 0.99778 0.0
C1586 C 0.03607 0.17028 0.00242 0.0
C1587 C 0.07317 0.1003 0.9545 0.0
C1588 C 0.01881 0.15109 0.92748 0.0
C1589 C 0.03619 0.16976 0.92128 0.0
C1590 C 0.02497 0.13883 0.94543 0.0
C1591 C 0.04906 0.14543 0.95746 0.0
C1592 C 0.06703 0.16351 0.95062 0.0
C1593 C 0.06039 0.17542 0.93265 0.0
C1594 C 0.00535 0.11956 0.95213 0.0
C1595 C 0.09294 0.17108 0.96295 0.0
H1596 H 0.05434 0.15046 0.03699 0.0
H1597 H 0.08582 0.09162 0.99692 0.0
H1598 H 0.04805 0.18531 0.99607 0.0
H1599 H 0.01802 0.16605 0.99164 0.0
H1600 H 0.03183 0.17698 0.02047 0.0
H1601 H 0.08035 0.08292 0.95633 0.0
H1602 H 0.05602 0.09599 0.94252 0.0
H1603 H 0.08777 0.11177 0.94653 0.0
H1604 H 1.00012 0.14646 0.91873 0.0
H1605 H 0.07405 0.18966 0.9279 0.0
H1606 H 0.99866 0.12648 0.96924 0.0
H1607 H 0.01376 0.10276 0.95361 0.0
H1608 H 0.9887 0.1146 0.93953 0.0
H1609 H 0.09095 0.18003 0.9809 0.0
H1610 H 0.10539 0.18404 0.95442 0.0
H1611 H 0.10241 0.15473 0.96378 0.0
C1612 C 0.38557 0.27083 0.27977 0.0
C1613 C 0.36186 0.27831 0.27624 0.0
C1614 C 0.40232 0.26817 0.26202 0.0
C1615 C 0.39525 0.27309 0.2401 0.0
C1616 C 0.37146 0.2809 0.23645 0.0
C1617 C 0.35507 0.28348 0.25458 0.0
C1618 C 0.42757 0.25996 0.26671 0.0
C1619 C 0.36317 0.2862 0.21331 0.0
C1620 C 0.44875 0.28419 0.20036 0.0
C1621 C 0.44788 0.26088 0.18683 0.0
C1622 C 0.43135 0.28862 0.21738 0.0
C1623 C 0.41256 0.26933 0.22092 0.0
C1624 C 0.41115 0.24597 0.20688 0.0
C1625 C 0.42881 0.24203 0.19007 0.0
C1626 C 0.43351 0.31378 0.23201 0.0
C1627 C 0.39137 0.22492 0.21002 0.0
H1628 H 0.39119 0.26726 0.29657 0.0
H1629 H 0.33674 0.28915 0.25169 0.0
H1630 H 0.42889 0.24237 0.25523 0.0
H1631 H 0.44324 0.27364 0.26293 0.0
H1632 H 0.43044 0.25741 0.28483 0.0
H1633 H 0.34442 0.29279 0.21344 0.0
H1634 H 0.37739 0.30026 0.20796 0.0
H1635 H 0.36199 0.26936 0.20013 0.0
H1636 H 0.46338 0.29889 0.19798 0.0
H1637 H 0.42786 0.22398 0.17966 0.0
H1638 H 0.43838 0.31265 0.25018 0.0
H1639 H 0.41505 0.32081 0.23153 0.0
H1640 H 0.44822 0.32716 0.22627 0.0
H1641 H 0.39444 0.22016 0.22731 0.0
H1642 H 0.39189 0.20829 0.19687 0.0
H1643 H 0.37214 0.23033 0.20905 0.0
C1644 C 0.54627 0.35533 0.00633 0.0
C1645 C 0.55876 0.37952 0.0093 0.0
C1646 C 0.53733 0.34499 0.02509 0.0
C1647 C 0.54069 0.35923 0.04747 0.0
C1648 C 0.55232 0.38399 0.05052 0.0
C1649 C 0.56127 0.39384 0.03141 0.0
C1650 C 0.52497 0.31855 0.02101 0.0
C1651 C 0.55605 0.39982 0.07407 0.0
C1652 C 0.50034 0.3331 0.09189 0.0
C1653 C 0.51723 0.32024 0.10209 0.0
C1654 C 0.50803 0.34686 0.07483 0.0
C1655 C 0.53313 0.3476 0.06764 0.0
C1656 C 0.55053 0.33546 0.07851 0.0
C1657 C 0.54241 0.32203 0.09564 0.0
C1658 C 0.489 0.35981 0.06389 0.0
C1659 C 0.57744 0.3357 0.07131 0.0
H1660 H 0.54378 0.34429 0.98925 0.0
H1661 H 0.57103 0.41248 0.03391 0.0
H1662 H 0.53645 0.30763 0.03023 0.0
H1663 H 0.50589 0.31711 0.02799 0.0
H1664 H 0.52298 0.31025 0.00247 0.0
H1665 H 0.56334 0.41923 0.07331 0.0
H1666 H 0.53791 0.39915 0.08273 0.0
H1667 H 0.56974 0.39268 0.08491 0.0
H1668 H 0.4809 0.332 0.09685 0.0
H1669 H 0.55564 0.31223 0.10343 0.0
H1670 H 0.48438 0.35077 0.04573 0.0
H1671 H 0.49712 0.37913 0.06373 0.0
H1672 H 0.47111 0.35958 0.07299 0.0
H1673 H 0.57733 0.32591 0.05332 0.0
H1674 H 0.58909 0.32679 0.0825 0.0
H1675 H 0.58666 0.35481 0.07176 0.0
C1676 C 0.68294 0.25205 0.2463 0.0
C1677 C 0.69897 0.2406 0.23098 0.0
C1678 C 0.65935 0.25722 0.23845 0.0
C1679 C 0.65172 0.25094 0.21472 0.0
C1680 C 0.66746 0.23869 0.19934 0.0
C1681 C 0.69074 0.23354 0.20767 0.0
C1682 C 0.64293 0.27004 0.25543 0.0
C1683 C 0.66008 0.23166 0.17391 0.0
C1684 C 0.58345 0.24768 0.1919 0.0
C1685 C 0.58422 0.27004 0.18391 0.0
C1686 C 0.605 0.24161 0.20282 0.0
C1687 C 0.62794 0.25815 0.2056 0.0
C1688 C 0.62864 0.281 0.1981 0.0
C1689 C 0.60676 0.28671 0.18746 0.0
C1690 C 0.6034 0.21721 0.21083 0.0
C1691 C 0.65278 0.29907 0.20055 0.0
H1692 H 0.68916 0.25768 0.26432 0.0
H1693 H 0.70271 0.22416 0.19579 0.0
H1694 H 0.64164 0.28865 0.2517 0.0
H1695 H 0.62338 0.25989 0.2537 0.0
H1696 H 0.65053 0.27181 0.27349 0.0
H1697 H 0.6741 0.22157 0.16435 0.0
H1698 H 0.64128 0.22001 0.17112 0.0
H1699 H 0.6584 0.24839 0.16649 0.0
H1700 H 0.56607 0.23476 0.18938 0.0
H1701 H 0.60756 0.30403 0.18138 0.0
H1702 H 0.61067 0.21984 0.22905 0.0
H1703 H 0.6155 0.20545 0.20049 0.0
H1704 H 0.58369 0.20735 0.20922 0.0
H1705 H 0.66045 0.30321 0.21871 0.0
H1706 H 0.64986 0.31653 0.19493 0.0
H1707 H 0.66736 0.2909 0.19007 0.0
C1708 C 0.48837 0.10214 0.01585 0.0
C1709 C 0.46376 0.08918 0.01472 0.0
C1710 C 0.49628 0.12258 0.03319 0.0
C1711 C 0.4792 0.13018 0.04984 0.0
C1712 C 0.45436 0.11721 0.04878 0.0
C1713 C 0.44691 0.097 0.03119 0.0
C1714 C 0.5229 0.13603 0.03371 0.0
C1715 C 0.43557 0.1247 0.06619 0.0
C1716 C 0.50477 0.16877 0.10737 0.0
C1717 C 0.50039 0.19228 0.10443 0.0
C1718 C 0.49823 0.14845 0.08966 0.0
C1719 C 0.48719 0.15172 0.06843 0.0
C1720 C 0.48294 0.17544 0.06526 0.0
C1721 C 0.48949 0.19541 0.08332 0.0
C1722 C 0.50286 0.12342 0.09378 0.0
C1723 C 0.47132 0.1797 0.04284 0.0
H1724 H 0.50155 0.09615 0.00328 0.0
H1725 H 0.42767 0.08751 0.03018 0.0
H1726 H 0.52227 0.15557 0.03265 0.0
H1727 H 0.53326 0.13559 0.05023 0.0
H1728 H 0.53375 0.12799 0.01936 0.0
H1729 H 0.4171 0.11243 0.06317 0.0
H1730 H 0.44342 0.1245 0.08381 0.0
H1731 H 0.43214 0.14372 0.06557 0.0
H1732 H 0.51318 0.16616 0.1236 0.0
H1733 H 0.48615 0.21351 0.08083 0.0
H1734 H 0.51504 0.11539 0.08057 0.0
H1735 H 0.48459 0.11093 0.09215 0.0
H1736 H 0.51211 0.12404 0.11107 0.0
H1737 H 0.48274 0.17299 0.0284 0.0
H1738 H 0.47004 0.19937 0.04286 0.0
H1739 H 0.45198 0.16916 0.03946 0.0
C1740 C 0.32109 0.32895 0.74274 0.0
C1741 C 0.30513 0.32189 0.72264 0.0
C1742 C 0.33364 0.35305 0.74897 0.0
C1743 C 0.33004 0.37055 0.73481 0.0
C1744 C 0.31301 0.36383 0.7151 0.0
C1745 C 0.30084 0.33954 0.70919 0.0
C1746 C 0.35177 0.35943 0.77004 0.0
C1747 C 0.30845 0.38202 0.69971 0.0
C1748 C 0.35352 0.43772 0.75896 0.0
C1749 C 0.37717 0.44108 0.74935 0.0
C1750 C 0.33772 0.41498 0.75412 0.0
C1751 C 0.34587 0.39513 0.73948 0.0
C1752 C 0.36959 0.3985 0.72957 0.0
C1753 C 0.38488 0.42142 0.73456 0.0
C1754 C 0.31245 0.41211 0.76483 0.0
C1755 C 0.37905 0.37776 0.71396 0.0
H1756 H 0.32472 0.31533 0.75305 0.0
H1757 H 0.2883 0.3342 0.69377 0.0
H1758 H 0.37146 0.36329 0.76475 0.0
H1759 H 0.34762 0.37626 0.78125 0.0
H1760 H 0.35082 0.34439 0.78026 0.0
H1761 H 0.29278 0.37463 0.68643 0.0
H1762 H 0.30387 0.39917 0.71006 0.0
H1763 H 0.32597 0.38691 0.69091 0.0
H1764 H 0.34738 0.45284 0.77035 0.0
H1765 H 0.40312 0.4238 0.72705 0.0
H1766 H 0.31207 0.39815 0.77619 0.0
H1767 H 0.29698 0.40546 0.75124 0.0
H1768 H 0.30846 0.42957 0.77512 0.0
H1769 H 0.38068 0.36238 0.72336 0.0
H1770 H 0.39783 0.38348 0.70745 0.0
H1771 H 0.36529 0.37067 0.69902 0.0
C1772 C 0.28109 0.64097 0.79733 0.0
C1773 C 0.28837 0.66258 0.81336 0.0
C1774 C 0.29505 0.62125 0.79592 0.0
C1775 C 0.31687 0.62314 0.81089 0.0
C1776 C 0.324 0.64467 0.82747 0.0
C1777 C 0.30967 0.66413 0.82851 0.0
C1778 C 0.28671 0.59856 0.77809 0.0
C1779 C 0.34714 0.64742 0.84372 0.0
C1780 C 0.34203 0.56415 0.81827 0.0
C1781 C 0.36167 0.56369 0.80308 0.0
C1782 C 0.32747 0.5835 0.82119 0.0
C1783 C 0.33267 0.60288 0.80863 0.0
C1784 C 0.35265 0.60268 0.79347 0.0
C1785 C 0.36689 0.58311 0.79088 0.0
C1786 C 0.30635 0.58306 0.83754 0.0
C1787 C 0.35882 0.62302 0.77978 0.0
H1788 H 0.26448 0.63953 0.78577 0.0
H1789 H 0.31561 0.68087 0.84074 0.0
H1790 H 0.30173 0.59589 0.76577 0.0
H1791 H 0.28387 0.58213 0.78647 0.0
H1792 H 0.26882 0.59963 0.7683 0.0
H1793 H 0.34943 0.66481 0.85634 0.0
H1794 H 0.34594 0.63185 0.85326 0.0
H1795 H 0.36439 0.64701 0.83378 0.0
H1796 H 0.33785 0.54927 0.82781 0.0
H1797 H 0.38204 0.58298 0.77913 0.0
H1798 H 0.28793 0.58258 0.82799 0.0
H1799 H 0.30926 0.60002 0.85069 0.0
H1800 H 0.30512 0.56697 0.84644 0.0
H1801 H 0.34217 0.62393 0.76828 0.0
H1802 H 0.37531 0.62045 0.76913 0.0
H1803 H 0.36303 0.64094 0.79154 0.0
C1804 C 0.89363 0.51461 0.51146 0.0
C1805 C 0.91259 0.50912 0.49637 0.0
C1806 C 0.87577 0.49602 0.5171 0.0
C1807 C 0.87685 0.47127 0.50743 0.0
C1808 C 0.89605 0.46555 0.49231 0.0
C1809 C 0.91365 0.48456 0.48689 0.0
C1810 C 0.85548 0.50293 0.53313 0.0
C1811 C 0.89788 0.43936 0.48175 0.0
C1812 C 0.8421 0.42263 0.53756 0.0
C1813 C 0.81923 0.41588 0.52404 0.0
C1814 C 0.86125 0.44028 0.5321 0.0
C1815 C 0.8574 0.45151 0.51272 0.0
C1816 C 0.8345 0.44456 0.49885 0.0
C1817 C 0.81573 0.42683 0.50465 0.0
C1818 C 0.88545 0.44717 0.54727 0.0
C1819 C 0.82962 0.45617 0.47809 0.0
H1820 H 0.89242 0.53358 0.51854 0.0
H1821 H 0.92836 0.48021 0.47534 0.0
H1822 H 0.83647 0.49701 0.52409 0.0
H1823 H 0.85609 0.49333 0.54808 0.0
H1824 H 0.85761 0.52298 0.53959 0.0
H1825 H 0.9143 0.43793 0.4708 0.0
H1826 H 0.8997 0.42827 0.49548 0.0
H1827 H 0.88027 0.43118 0.47109 0.0
H1828 H 0.84503 0.41423 0.55252 0.0
H1829 H 0.79816 0.42174 0.49406 0.0
H1830 H 0.88746 0.46681 0.55529 0.0
H1831 H 0.90207 0.44476 0.5368 0.0
H1832 H 0.88595 0.43602 0.56114 0.0
H1833 H 0.82974 0.47617 0.48352 0.0
H1834 H 0.81115 0.44821 0.46869 0.0
H1835 H 0.84495 0.45378 0.46606 0.0
C1836 C 0.76478 0.87219 0.78801 0.0
C1837 C 0.76078 0.86888 0.81068 0.0
C1838 C 0.74916 0.88543 0.77662 0.0
C1839 C 0.72915 0.89552 0.78821 0.0
C1840 C 0.72405 0.89072 0.8105 0.0
C1841 C 0.73986 0.87744 0.8214 0.0
C1842 C 0.75506 0.88988 0.75276 0.0
C1843 C 0.70289 0.90096 0.8235 0.0
C1844 C 0.71117 0.95616 0.77726 0.0
C1845 C 0.68753 0.94896 0.76502 0.0
C1846 C 0.72523 0.93885 0.7841 0.0
C1847 C 0.71558 0.91357 0.77853 0.0
C1848 C 0.69216 0.90604 0.76546 0.0
C1849 C 0.67836 0.92383 0.75891 0.0
C1850 C 0.75007 0.94775 0.79806 0.0
C1851 C 0.68133 0.87927 0.75902 0.0
H1852 H 0.7809 0.86561 0.77964 0.0
H1853 H 0.73639 0.8745 0.83877 0.0
H1854 H 0.73743 0.88684 0.74144 0.0
H1855 H 0.76372 0.90925 0.75364 0.0
H1856 H 0.76845 0.87783 0.74479 0.0
H1857 H 0.69984 0.89357 0.83967 0.0
H1858 H 0.70752 0.92122 0.82792 0.0
H1859 H 0.68489 0.89675 0.81265 0.0
H1860 H 0.71856 0.97547 0.78197 0.0
H1861 H 0.66019 0.91806 0.74935 0.0
H1862 H 0.76546 0.93854 0.7899 0.0
H1863 H 0.74852 0.94298 0.8155 0.0
H1864 H 0.75561 0.9679 0.79988 0.0
H1865 H 0.69584 0.86857 0.75115 0.0
H1866 H 0.6644 0.87625 0.74681 0.0
H1867 H 0.6758 0.87193 0.77472 0.0
C1868 C 0.63957 0.50839 0.99185 0.0
C1869 C 0.62474 0.50768 0.97149 0.0
C1870 C 0.6619 0.52519 0.99759 0.0
C1871 C 0.66914 0.54246 0.98318 0.0
C1872 C 0.65403 0.54233 0.96296 0.0
C1873 C 0.63243 0.52466 0.95711 0.0
C1874 C 0.67791 0.52429 0.01899 0.0
C1875 C 0.66068 0.5609 0.94746 0.0
C1876 C 0.71371 0.60013 0.00971 0.0
C1877 C 0.73655 0.59559 1.00003 0.0
C1878 C 0.69152 0.58315 0.00411 0.0
C1879 C 0.69251 0.56069 0.9892 0.0
C1880 C 0.71575 0.55583 0.97977 0.0
C1881 C 0.73741 0.57361 0.98493 0.0
C1882 C 0.66694 0.58945 0.01379 0.0
C1883 C 0.71781 0.53175 0.96448 0.0
H1884 H 0.63379 0.49582 0.00341 0.0
H1885 H 0.62181 0.52407 0.941 0.0
H1886 H 0.69765 0.52227 0.01452 0.0
H1887 H 0.67874 0.5417 0.03133 0.0
H1888 H 0.67041 0.50889 0.02769 0.0
H1889 H 0.64599 0.55943 0.93326 0.0
H1890 H 0.66297 0.57975 0.95759 0.0
H1891 H 0.67903 0.5583 0.93984 0.0
H1892 H 0.71307 0.61727 0.02126 0.0
H1893 H 0.7552 0.57006 0.97764 0.0
H1894 H 0.65941 0.57586 0.02443 0.0
H1895 H 0.65251 0.58864 0.99954 0.0
H1896 H 0.66925 0.60802 0.02454 0.0
H1897 H 0.71117 0.5163 0.9734 0.0
H1898 H 0.73754 0.53033 0.95958 0.0
H1899 H 0.70542 0.52959 0.94856 0.0
C1900 C 0.26451 0.65164 0.26499 0.0
C1901 C 0.26691 0.66285 0.24546 0.0
C1902 C 0.24533 0.63199 0.26566 0.0
C1903 C 0.22795 0.62337 0.2464 0.0
C1904 C 0.23016 0.63464 0.22666 0.0
C1905 C 0.24962 0.65426 0.22642 0.0
C1906 C 0.2436 0.62052 0.28707 0.0
C1907 C 0.21197 0.62595 0.20579 0.0
C1908 C 0.19281 0.55869 0.24162 0.0
C1909 C 0.16949 0.56307 0.25056 0.0
C1910 C 0.21184 0.57815 0.23982 0.0
C1911 C 0.20746 0.6026 0.24707 0.0
C1912 C 0.18387 0.60717 0.25582 0.0
C1913 C 0.16519 0.58735 0.2575 0.0
C1914 C 0.23679 0.57254 0.23048 0.0
C1915 C 0.17848 0.63299 0.2637 0.0
H1916 H 0.27744 0.65848 0.27996 0.0
H1917 H 0.25146 0.66273 0.21123 0.0
H1918 H 0.22494 0.62219 0.29443 0.0
H1919 H 0.24497 0.60067 0.28269 0.0
H1920 H 0.25879 0.62919 0.30046 0.0
H1921 H 0.21618 0.63672 0.19185 0.0
H1922 H 0.21285 0.60636 0.19899 0.0
H1923 H 0.19225 0.62733 0.21065 0.0
H1924 H 0.19632 0.54 0.2362 0.0
H1925 H 0.14721 0.59093 0.26434 0.0
H1926 H 0.2524 0.57959 0.24387 0.0
H1927 H 0.24093 0.58195 0.21564 0.0
H1928 H 0.23689 0.55257 0.22487 0.0
H1929 H 0.192 0.64225 0.27825 0.0
H1930 H 0.15886 0.63346 0.26931 0.0
H1931 H 0.18126 0.64374 0.24958 0.0
C1932 C 0.94072 0.52969 0.0406 0.0
C1933 C 0.96288 0.5327 0.02866 0.0
C1934 C 0.92031 0.54229 0.03659 0.0
C1935 C 0.9221 0.55821 0.02022 0.0
C1936 C 0.94472 0.56188 0.00866 0.0
C1937 C 0.96483 0.54921 0.0131 0.0
C1938 C 0.89657 0.53804 0.0494 0.0
C1939 C 0.94746 0.57873 0.99111 0.0
C1940 C 0.86182 0.57022 0.99032 0.0
C1941 C 0.85922 0.59381 1.00167 0.0
C1942 C 0.88201 0.55835 0.99638 0.0
C1943 C 0.90001 0.57026 0.01436 0.0
C1944 C 0.89737 0.59397 0.02606 0.0
C1945 C 0.87707 0.6055 0.01952 0.0
C1946 C 0.88426 0.53315 0.98335 0.0
C1947 C 0.91608 0.60722 0.04539 0.0
H1948 H 0.939 0.51689 0.05256 0.0
H1949 H 0.9821 0.55208 0.00417 0.0
H1950 H 0.8914 0.5558 0.05788 0.0
H1951 H 0.88053 0.52894 0.03709 0.0
H1952 H 0.8988 0.52641 0.06266 0.0
H1953 H 0.96661 0.58022 0.9842 0.0
H1954 H 0.93314 0.57183 0.97656 0.0
H1955 H 0.94387 0.59733 0.99889 0.0
H1956 H 0.84814 0.56102 0.97652 0.0
H1957 H 0.87516 0.62367 0.02849 0.0
H1958 H 0.88451 0.51998 0.99545 0.0
H1959 H 0.90241 0.53363 0.97471 0.0
H1960 H 0.86842 0.52618 0.97014 0.0
H1961 H 0.91722 0.5958 0.05895 0.0
H1962 H 0.91088 0.62521 0.05329 0.0
H1963 H 0.93529 0.61032 0.03885 0.0
C1964 C 0.13677 0.00791 0.05684 0.0
C1965 C 0.11128 1.00118 0.06112 0.0
C1966 C 0.15219 0.99015 0.04897 0.0
C1967 C 0.14191 0.96499 0.04521 0.0
C1968 C 0.11607 0.95807 0.04909 0.0
C1969 C 0.10109 0.97624 0.05707 0.0
C1970 C 0.17968 0.99832 0.0452 0.0
C1971 C 0.10434 0.93146 0.04512 0.0
C1972 C 0.17852 0.92107 0.00782 0.0
C1973 C 0.1923 0.91198 0.02439 0.0
C1974 C 0.16161 0.93789 0.01431 0.0
C1975 C 0.1585 0.94596 0.03794 0.0
C1976 C 0.17204 0.93656 0.05473 0.0
C1977 C 0.18869 0.91965 0.04777 0.0
C1978 C 0.14741 0.94736 0.99588 0.0
C1979 C 0.16937 0.94477 0.08011 0.0
H1980 H 0.14493 0.0271 0.06028 0.0
H1981 H 0.08136 0.97093 0.06016 0.0
H1982 H 0.19209 0.99088 0.05697 0.0
H1983 H 0.18401 0.99099 0.02736 0.0
H1984 H 0.18455 0.0186 0.04823 0.0
H1985 H 0.08375 0.92916 0.04806 0.0
H1986 H 0.10696 0.92265 0.02725 0.0
H1987 H 0.11402 0.92155 0.05683 0.0
H1988 H 0.1811 0.91521 0.98972 0.0
H1989 H 0.19923 0.91278 0.06072 0.0
H1990 H 0.15319 0.96742 0.99741 0.0
H1991 H 0.12672 0.9443 0.99817 0.0
H1992 H 0.15096 0.93838 0.97828 0.0
H1993 H 0.17575 0.96479 0.08486 0.0
H1994 H 0.18061 0.93516 0.09097 0.0
H1995 H 0.14916 0.94141 0.08413 0.0
loop_
_geom_bond_atom_site_label_1
_geom_bond_atom_site_label_2
_geom_bond_distance
_geom_bond_site_symmetry_2
_ccdc_geom_bond_type
H0 C1 0.949 . S
C1 H0 0.949 . S
C1 C2 1.395 . S
C1 C3 1.391 . S
C2 C1 1.395 . S
C2 C5 1.390 . S
C3 C1 1.391 . S
C3 C7 1.387 . S
C3 C8 1.491 . S
H4 C5 0.949 1_565 S
C5 C2 1.390 . S
C5 H4 0.949 1_545 S
C5 C6 1.378 . S
C6 C5 1.378 . S
C6 C7 1.409 . S
C7 C3 1.387 . S
C7 C6 1.409 . S
C7 H9 0.951 . S
C8 C3 1.491 . S
C8 C10 1.382 . S
C8 C12 1.404 . S
H9 C7 0.951 . S
C10 C8 1.382 . S
C10 C11 1.390 . S
C10 H15 0.949 . S
C11 C10 1.390 . S
C11 C16 1.399 . S
C12 C8 1.404 . S
C12 H13 0.950 . S
C12 C14 1.375 . S
H13 C12 0.950 . S
C14 C12 1.375 . S
C14 C16 1.382 . S
C14 H18 0.950 . S
H15 C10 0.949 . S
C16 C11 1.399 . S
C16 C14 1.382 . S
C16 H17 0.952 . S
H17 C16 0.952 . S
H18 C14 0.950 . S
H19 C20 0.949 . S
C20 H19 0.949 . S
C20 C21 1.395 . S
C20 C22 1.391 . S
C21 C20 1.395 . S
C21 C24 1.390 . S
C22 C20 1.391 . S
C22 C26 1.387 . S
C22 C27 1.491 . S
H23 C24 0.950 . S
C24 C21 1.390 . S
C24 H23 0.950 . S
C24 C25 1.378 . S
C25 C24 1.378 . S
C25 C26 1.409 . S
C26 C22 1.387 . S
C26 C25 1.409 . S
C26 H28 0.951 . S
C27 C22 1.491 . S
C27 C29 1.382 . S
C27 C31 1.404 . S
H28 C26 0.951 . S
C29 C27 1.382 . S
C29 C30 1.390 . S
C29 H34 0.949 . S
C30 C29 1.390 . S
C30 C35 1.399 . S
C31 C27 1.404 . S
C31 H32 0.950 . S
C31 C33 1.375 . S
H32 C31 0.950 . S
C33 C31 1.375 . S
C33 C35 1.382 . S
C33 H37 0.950 . S
H34 C29 0.949 . S
C35 C30 1.399 . S
C35 C33 1.382 . S
C35 H36 0.952 . S
H36 C35 0.952 . S
H37 C33 0.950 . S
H38 C39 0.949 . S
C39 H38 0.949 . S
C39 C40 1.395 . S
C39 C41 1.391 1_455 S
C40 C39 1.395 . S
C40 C43 1.390 1_455 S
C41 C39 1.391 1_655 S
C41 C45 1.387 . S
C41 C46 1.487 1_654 S
H42 C43 0.950 . S
C43 C40 1.390 1_655 S
C43 H42 0.950 . S
C43 C44 1.378 . S
C44 C43 1.378 . S
C44 C45 1.409 . S
C45 C41 1.387 . S
C45 C44 1.409 . S
C45 H47 0.951 1_554 S
C46 C41 1.487 1_456 S
C46 C48 1.386 . S
C46 C50 1.404 . S
H47 C45 0.951 1_556 S
C48 C46 1.386 . S
C48 C49 1.390 . S
C48 H53 0.949 1_556 S
C49 C48 1.390 . S
C49 C54 1.399 . S
C50 C46 1.404 . S
C50 H51 0.948 1_455 S
C50 C52 1.375 . S
H51 C50 0.948 1_655 S
C52 C50 1.375 . S
C52 C54 1.382 . S
C52 H56 0.950 . S
H53 C48 0.949 1_554 S
C54 C49 1.399 . S
C54 C52 1.382 . S
C54 H55 0.952 . S
H55 C54 0.952 . S
H56 C52 0.950 . S
H57 C58 0.949 . S
C58 H57 0.949 . S
C58 C59 1.395 . S
C58 C60 1.391 . S
C59 C58 1.395 . S
C59 C62 1.390 . S
C60 C58 1.391 . S
C60 C64 1.387 . S
C60 C65 1.491 . S
H61 C62 0.950 . S
C62 C59 1.390 . S
C62 H61 0.950 . S
C62 C63 1.378 . S
C63 C62 1.378 . S
C63 C64 1.409 . S
C64 C60 1.387 . S
C64 C63 1.409 . S
C64 H66 0.951 . S
C65 C60 1.491 . S
C65 C67 1.382 . S
C65 C69 1.404 . S
H66 C64 0.951 . S
C67 C65 1.382 . S
C67 C68 1.390 . S
C67 H72 0.949 . S
C68 C67 1.390 . S
C68 C73 1.399 . S
C69 C65 1.404 . S
C69 H70 0.950 . S
C69 C71 1.375 . S
H70 C69 0.950 . S
C71 C69 1.375 . S
C71 C73 1.382 . S
C71 H75 0.950 . S
H72 C67 0.949 . S
C73 C68 1.399 . S
C73 C71 1.382 . S
C73 H74 0.952 . S
H74 C73 0.952 . S
H75 C71 0.950 . S
H76 C77 0.949 . S
C77 H76 0.949 . S
C77 C78 1.395 . S
C77 C79 1.391 . S
C78 C77 1.395 . S
C78 C81 1.390 . S
C79 C77 1.391 . S
C79 C83 1.387 . S
C79 C84 1.491 . S
H80 C81 0.950 1_545 S
C81 C78 1.390 . S
C81 H80 0.950 1_565 S
C81 C82 1.378 . S
C82 C81 1.378 . S
C82 C83 1.409 . S
C83 C79 1.387 . S
C83 C82 1.409 . S
C83 H85 0.951 . S
C84 C79 1.491 . S
C84 C86 1.382 . S
C84 C88 1.404 . S
H85 C83 0.951 . S
C86 C84 1.382 . S
C86 C87 1.390 . S
C86 H91 0.949 . S
C87 C86 1.390 . S
C87 C92 1.399 . S
C88 C84 1.404 . S
C88 H89 0.950 . S
C88 C90 1.375 . S
H89 C88 0.950 . S
C90 C88 1.375 . S
C90 C92 1.382 . S
C90 H94 0.950 . S
H91 C86 0.949 . S
C92 C87 1.399 . S
C92 C90 1.382 . S
C92 H93 0.952 . S
H93 C92 0.952 . S
H94 C90 0.950 . S
H95 C96 0.949 . S
C96 H95 0.949 . S
C96 C97 1.395 . S
C96 C98 1.391 . S
C97 C96 1.395 . S
C97 C100 1.390 . S
C98 C96 1.391 . S
C98 C102 1.387 . S
C98 C103 1.491 . S
H99 C100 0.950 . S
C100 C97 1.390 . S
C100 H99 0.950 . S
C100 C101 1.378 . S
C101 C100 1.378 . S
C101 C102 1.409 . S
C102 C98 1.387 . S
C102 C101 1.409 . S
C102 H104 0.951 . S
C103 C98 1.491 . S
C103 C105 1.382 . S
C103 C107 1.404 . S
H104 C102 0.951 . S
C105 C103 1.382 . S
C105 C106 1.390 . S
C105 H110 0.949 . S
C106 C105 1.390 . S
C106 C111 1.399 . S
C107 C103 1.404 . S
C107 H108 0.950 . S
C107 C109 1.375 . S
H108 C107 0.950 . S
C109 C107 1.375 . S
C109 C111 1.382 . S
C109 H113 0.950 . S
H110 C105 0.949 . S
C111 C106 1.399 . S
C111 C109 1.382 . S
C111 H112 0.952 . S
H112 C111 0.952 . S
H113 C109 0.950 . S
H114 C115 0.949 . S
C115 H114 0.949 . S
C115 C116 1.395 . S
C115 C117 1.391 . S
C116 C115 1.395 . S
C116 C119 1.390 . S
C117 C115 1.391 . S
C117 C121 1.387 . S
C117 C122 1.491 . S
H118 C119 0.950 . S
C119 C116 1.390 . S
C119 H118 0.950 . S
C119 C120 1.378 . S
C120 C119 1.378 . S
C120 C121 1.409 . S
C121 C117 1.387 . S
C121 C120 1.409 . S
C121 H123 0.951 . S
C122 C117 1.491 . S
C122 C124 1.382 . S
C122 C126 1.404 . S
H123 C121 0.951 . S
C124 C122 1.382 . S
C124 C125 1.390 1_655 S
C124 H129 0.949 1_655 S
C125 C124 1.390 1_455 S
C125 C130 1.399 1_455 S
C126 C122 1.404 . S
C126 H127 0.950 . S
C126 C128 1.375 . S
H127 C126 0.950 . S
C128 C126 1.375 . S
C128 C130 1.382 . S
C128 H132 0.950 . S
H129 C124 0.949 1_455 S
C130 C125 1.399 1_655 S
C130 C128 1.382 . S
C130 H131 0.952 . S
H131 C130 0.952 . S
H132 C128 0.950 . S
H133 C134 0.949 . S
C134 H133 0.949 . S
C134 C135 1.395 . S
C134 C136 1.391 . S
C135 C134 1.395 . S
C135 C138 1.390 . S
C136 C134 1.391 . S
C136 C140 1.387 . S
C136 C141 1.491 . S
H137 C138 0.950 . S
C138 C135 1.390 . S
C138 H137 0.950 . S
C138 C139 1.378 . S
C139 C138 1.378 . S
C139 C140 1.409 . S
C140 C136 1.387 . S
C140 C139 1.409 . S
C140 H142 0.951 . S
C141 C136 1.491 . S
C141 C143 1.382 . S
C141 C145 1.404 . S
H142 C140 0.951 . S
C143 C141 1.382 . S
C143 C144 1.390 . S
C143 H148 0.949 . S
C144 C143 1.390 . S
C144 C149 1.399 . S
C145 C141 1.404 . S
C145 H146 0.950 . S
C145 C147 1.375 . S
H146 C145 0.950 . S
C147 C145 1.375 . S
C147 C149 1.382 . S
C147 H151 0.950 . S
H148 C143 0.949 . S
C149 C144 1.399 . S
C149 C147 1.382 . S
C149 H150 0.952 . S
H150 C149 0.952 . S
H151 C147 0.950 . S
H152 C153 0.949 . S
C153 H152 0.949 . S
C153 C154 1.395 . S
C153 C155 1.391 . S
C154 C153 1.395 . S
C154 C157 1.390 . S
C155 C153 1.391 . S
C155 C159 1.387 . S
C155 C160 1.491 . S
H156 C157 0.950 . S
C157 C154 1.390 . S
C157 H156 0.950 . S
C157 C158 1.378 . S
C158 C157 1.378 . S
C158 C159 1.409 . S
C159 C155 1.387 . S
C159 C158 1.409 . S
C159 H161 0.951 . S
C160 C155 1.491 . S
C160 C162 1.382 . S
C160 C164 1.404 . S
H161 C159 0.951 . S
C162 C160 1.382 . S
C162 C163 1.390 . S
C162 H167 0.949 . S
C163 C162 1.390 . S
C163 C168 1.399 . S
C164 C160 1.404 . S
C164 H165 0.950 . S
C164 C166 1.375 . S
H165 C164 0.950 . S
C166 C164 1.375 . S
C166 C168 1.382 . S
C166 H170 0.950 . S
H167 C162 0.949 . S
C168 C163 1.399 . S
C168 C166 1.382 . S
C168 H169 0.952 . S
H169 C168 0.952 . S
H170 C166 0.950 . S
H171 C172 0.949 . S
C172 H171 0.949 . S
C172 C173 1.395 . S
C172 C174 1.391 . S
C173 C172 1.395 . S
C173 C176 1.390 . S
C174 C172 1.391 . S
C174 C178 1.387 . S
C174 C179 1.491 . S
H175 C176 0.950 1_545 S
C176 C173 1.390 . S
C176 H175 0.950 1_565 S
C176 C177 1.378 . S
C177 C176 1.378 . S
C177 C178 1.409 . S
C178 C174 1.387 . S
C178 C177 1.409 . S
C178 H180 0.951 . S
C179 C174 1.491 . S
C179 C181 1.382 . S
C179 C183 1.404 . S
H180 C178 0.951 . S
C181 C179 1.382 . S
C181 C182 1.390 . S
C181 H186 0.949 . S
C182 C181 1.390 . S
C182 C187 1.399 . S
C183 C179 1.404 . S
C183 H184 0.950 . S
C183 C185 1.375 . S
H184 C183 0.950 . S
C185 C183 1.375 . S
C185 C187 1.382 . S
C185 H189 0.950 . S
H186 C181 0.949 . S
C187 C182 1.399 . S
C187 C185 1.382 . S
C187 H188 0.952 . S
H188 C187 0.952 . S
H189 C185 0.950 . S
H190 C191 0.949 . S
C191 H190 0.949 . S
C191 C192 1.395 . S
C191 C193 1.391 . S
C192 C191 1.395 . S
C192 C195 1.390 . S
C193 C191 1.391 . S
C193 C197 1.387 . S
C193 C198 1.491 . S
H194 C195 0.950 . S
C195 C192 1.390 . S
C195 H194 0.950 . S
C195 C196 1.378 . S
C196 C195 1.378 . S
C196 C197 1.409 . S
C197 C193 1.387 . S
C197 C196 1.409 . S
C197 H199 0.951 . S
C198 C193 1.491 . S
C198 C200 1.382 . S
C198 C202 1.404 . S
H199 C197 0.951 . S
C200 C198 1.382 . S
C200 C201 1.390 . S
C200 H205 0.949 . S
C201 C200 1.390 . S
C201 C206 1.399 . S
C202 C198 1.404 . S
C202 H203 0.950 . S
C202 C204 1.375 . S
H203 C202 0.950 . S
C204 C202 1.375 . S
C204 C206 1.382 . S
C204 H208 0.950 . S
H205 C200 0.949 . S
C206 C201 1.399 . S
C206 C204 1.382 . S
C206 H207 0.952 . S
H207 C206 0.952 . S
H208 C204 0.950 . S
H209 C210 0.949 . S
C210 H209 0.949 . S
C210 C211 1.395 . S
C210 C212 1.391 . S
C211 C210 1.395 . S
C211 C214 1.390 . S
C212 C210 1.391 . S
C212 C216 1.387 . S
C212 C217 1.491 . S
H213 C214 0.950 . S
C214 C211 1.390 . S
C214 H213 0.950 . S
C214 C215 1.378 . S
C215 C214 1.378 . S
C215 C216 1.409 . S
C216 C212 1.387 . S
C216 C215 1.409 . S
C216 H218 0.951 . S
C217 C212 1.491 . S
C217 C219 1.382 . S
C217 C221 1.404 . S
H218 C216 0.951 . S
C219 C217 1.382 . S
C219 C220 1.390 . S
C219 H224 0.949 . S
C220 C219 1.390 . S
C220 C225 1.399 . S
C221 C217 1.404 . S
C221 H222 0.950 . S
C221 C223 1.375 . S
H222 C221 0.950 . S
C223 C221 1.375 . S
C223 C225 1.382 . S
C223 H227 0.950 . S
H224 C219 0.949 . S
C225 C220 1.399 . S
C225 C223 1.382 . S
C225 H226 0.952 . S
H226 C225 0.952 . S
H227 C223 0.950 . S
H228 C229 0.949 . S
C229 H228 0.949 . S
C229 C230 1.395 . S
C229 C231 1.391 . S
C230 C229 1.395 . S
C230 C233 1.390 . S
C231 C229 1.391 . S
C231 C235 1.387 . S
C231 C236 1.491 . S
H232 C233 0.950 . S
C233 C230 1.390 . S
C233 H232 0.950 . S
C233 C234 1.378 . S
C234 C233 1.378 . S
C234 C235 1.409 . S
C235 C231 1.387 . S
C235 C234 1.409 . S
C235 H237 0.951 . S
C236 C231 1.491 . S
C236 C238 1.382 . S
C236 C240 1.404 . S
H237 C235 0.951 . S
C238 C236 1.382 . S
C238 C239 1.390 . S
C238 H243 0.949 . S
C239 C238 1.390 . S
C239 C244 1.399 . S
C240 C236 1.404 . S
C240 H241 0.950 . S
C240 C242 1.375 . S
H241 C240 0.950 . S
C242 C240 1.375 . S
C242 C244 1.382 . S
C242 H246 0.950 . S
H243 C238 0.949 . S
C244 C239 1.399 . S
C244 C242 1.382 . S
C244 H245 0.952 . S
H245 C244 0.952 . S
H246 C242 0.950 . S
H247 C248 0.949 1_554 S
C248 H247 0.949 1_556 S
C248 C249 1.395 . S
C248 C250 1.391 . S
C249 C248 1.395 . S
C249 C252 1.390 . S
C250 C248 1.391 . S
C250 C254 1.387 . S
C250 C255 1.491 . S
H251 C252 0.950 . S
C252 C249 1.390 . S
C252 H251 0.950 . S
C252 C253 1.378 . S
C253 C252 1.378 . S
C253 C254 1.409 . S
C254 C250 1.387 . S
C254 C253 1.409 . S
C254 H256 0.951 . S
C255 C250 1.491 . S
C255 C257 1.382 1_556 S
C255 C259 1.404 . S
H256 C254 0.951 . S
C257 C255 1.382 1_554 S
C257 C258 1.390 . S
C257 H262 0.949 . S
C258 C257 1.390 . S
C258 C263 1.399 . S
C259 C255 1.404 . S
C259 H260 0.950 . S
C259 C261 1.375 . S
H260 C259 0.950 . S
C261 C259 1.375 . S
C261 C263 1.382 1_556 S
C261 H265 0.950 . S
H262 C257 0.949 . S
C263 C258 1.399 . S
C263 C261 1.382 1_554 S
C263 H264 0.952 . S
H264 C263 0.952 . S
H265 C261 0.950 . S
H266 C267 0.949 . S
C267 H266 0.949 . S
C267 C268 1.395 . S
C267 C269 1.391 . S
C268 C267 1.395 . S
C268 C271 1.390 . S
C269 C267 1.391 . S
C269 C273 1.387 . S
C269 C274 1.491 . S
H270 C271 0.950 . S
C271 C268 1.390 . S
C271 H270 0.950 . S
C271 C272 1.378 . S
C272 C271 1.378 . S
C272 C273 1.409 . S
C273 C269 1.387 . S
C273 C272 1.409 . S
C273 H275 0.951 . S
C274 C269 1.491 . S
C274 C276 1.382 . S
C274 C278 1.404 . S
H275 C273 0.951 . S
C276 C274 1.382 . S
C276 C277 1.390 . S
C276 H281 0.949 . S
C277 C276 1.390 . S
C277 C282 1.399 . S
C278 C274 1.404 . S
C278 H279 0.950 . S
C278 C280 1.375 . S
H279 C278 0.950 . S
C280 C278 1.375 . S
C280 C282 1.382 . S
C280 H284 0.950 . S
H281 C276 0.949 . S
C282 C277 1.399 . S
C282 C280 1.382 . S
C282 H283 0.952 . S
H283 C282 0.952 . S
H284 C280 0.950 . S
H285 C286 0.949 . S
C286 H285 0.949 . S
C286 C287 1.395 . S
C286 C288 1.391 . S
C287 C286 1.395 . S
C287 C290 1.390 . S
C288 C286 1.391 . S
C288 C292 1.387 . S
C288 C293 1.491 . S
H289 C290 0.950 1_554 S
C290 C287 1.390 . S
C290 H289 0.950 1_556 S
C290 C291 1.378 . S
C291 C290 1.378 . S
C291 C292 1.409 . S
C292 C288 1.387 . S
C292 C291 1.409 . S
C292 H294 0.951 . S
C293 C288 1.491 . S
C293 C295 1.382 . S
C293 C297 1.404 . S
H294 C292 0.951 . S
C295 C293 1.382 . S
C295 C296 1.390 . S
C295 H300 0.949 . S
C296 C295 1.390 . S
C296 C301 1.399 . S
C297 C293 1.404 . S
C297 H298 0.950 . S
C297 C299 1.375 . S
H298 C297 0.950 . S
C299 C297 1.375 . S
C299 C301 1.382 . S
C299 H303 0.950 . S
H300 C295 0.949 . S
C301 C296 1.399 . S
C301 C299 1.382 . S
C301 H302 0.952 . S
H302 C301 0.952 . S
H303 C299 0.950 . S
C304 O305 1.160 . S
C304 O311 1.185 . S
O305 C304 1.160 . S
O306 Zn307 1.899 . S
O306 C314 1.284 . S
Zn307 O306 1.899 . S
Zn307 O308 2.032 . S
Zn307 O311 2.086 . S
Zn307 O316 1.977 . S
O308 Zn307 2.032 . S
O308 C312 1.278 . S
C309 O310 1.203 . S
C309 O316 1.267 . S
O310 C309 1.203 . S
O311 C304 1.185 . S
O311 Zn307 2.086 . S
C312 O308 1.278 . S
C312 O313 1.211 . S
O313 C312 1.211 . S
C314 O306 1.284 . S
C314 O315 1.273 . S
O315 C314 1.273 . S
O316 Zn307 1.977 . S
O316 C309 1.267 . S
C317 O318 1.160 . S
C317 O324 1.185 . S
O318 C317 1.160 . S
O319 Zn320 1.899 . S
O319 C327 1.284 . S
Zn320 O319 1.899 . S
Zn320 O321 2.032 . S
Zn320 O324 2.086 . S
Zn320 O329 1.977 . S
O321 Zn320 2.032 . S
O321 C325 1.278 . S
C322 O323 1.203 . S
C322 O329 1.267 . S
O323 C322 1.203 . S
O324 C317 1.185 . S
O324 Zn320 2.086 . S
C325 O321 1.278 . S
C325 O326 1.211 . S
O326 C325 1.211 . S
C327 O319 1.284 . S
C327 O328 1.273 . S
O328 C327 1.273 . S
O329 Zn320 1.977 . S
O329 C322 1.267 . S
C330 O331 1.160 . S
C330 O337 1.185 1_556 S
O331 C330 1.160 . S
O332 Zn333 1.899 1_556 S
O332 C340 1.284 . S
Zn333 O332 1.899 1_554 S
Zn333 O334 2.032 1_554 S
Zn333 O337 2.086 . S
Zn333 O342 1.977 . S
O334 Zn333 2.032 1_556 S
O334 C338 1.278 . S
C335 O336 1.203 . S
C335 O342 1.267 . S
O336 C335 1.203 . S
O337 C330 1.185 1_554 S
O337 Zn333 2.086 . S
C338 O334 1.278 . S
C338 O339 1.211 1_556 S
O339 C338 1.211 1_554 S
C340 O332 1.284 . S
C340 O341 1.273 . S
O341 C340 1.273 . S
O342 Zn333 1.977 . S
O342 C335 1.267 . S
C343 O344 1.160 . S
C343 O350 1.185 . S
O344 C343 1.160 . S
O345 Zn346 1.899 . S
O345 C353 1.284 . S
Zn346 O345 1.899 . S
Zn346 O347 2.032 . S
Zn346 O350 2.086 . S
Zn346 O355 1.977 . S
O347 Zn346 2.032 . S
O347 C351 1.278 1_545 S
C348 O349 1.203 . S
C348 O355 1.267 . S
O349 C348 1.203 . S
O350 C343 1.185 . S
O350 Zn346 2.086 . S
C351 O347 1.278 1_565 S
C351 O352 1.211 . S
O352 C351 1.211 . S
C353 O345 1.284 . S
C353 O354 1.273 1_545 S
O354 C353 1.273 1_565 S
O355 Zn346 1.977 . S
O355 C348 1.267 . S
C356 O357 1.160 . S
C356 O363 1.185 . S
O357 C356 1.160 . S
O358 Zn359 1.899 . S
O358 C366 1.284 . S
Zn359 O358 1.899 . S
Zn359 O360 2.032 . S
Zn359 O363 2.086 . S
Zn359 O368 1.977 . S
O360 Zn359 2.032 . S
O360 C364 1.278 . S
C361 O362 1.203 . S
C361 O368 1.267 . S
O362 C361 1.203 . S
O363 C356 1.185 . S
O363 Zn359 2.086 . S
C364 O360 1.278 . S
C364 O365 1.211 . S
O365 C364 1.211 . S
C366 O358 1.284 . S
C366 O367 1.273 . S
O367 C366 1.273 . S
O368 Zn359 1.977 . S
O368 C361 1.267 . S
C369 O370 1.160 . S
C369 O376 1.185 . S
O370 C369 1.160 . S
O371 Zn372 1.899 . S
O371 C379 1.284 . S
Zn372 O371 1.899 . S
Zn372 O373 2.032 . S
Zn372 O376 2.086 . S
Zn372 O381 1.977 . S
O373 Zn372 2.032 . S
O373 C377 1.278 . S
C374 O375 1.203 . S
C374 O381 1.267 . S
O375 C374 1.203 . S
O376 C369 1.185 . S
O376 Zn372 2.086 . S
C377 O373 1.278 . S
C377 O378 1.211 . S
O378 C377 1.211 . S
C379 O371 1.284 . S
C379 O380 1.273 . S
O380 C379 1.273 . S
O381 Zn372 1.977 . S
O381 C374 1.267 . S
C382 O383 1.160 . S
C382 O389 1.185 . S
O383 C382 1.160 . S
O384 Zn385 1.899 . S
O384 C392 1.284 . S
Zn385 O384 1.899 . S
Zn385 O386 2.032 . S
Zn385 O389 2.086 . S
Zn385 O394 1.977 . S
O386 Zn385 2.032 . S
O386 C390 1.278 . S
C387 O388 1.203 . S
C387 O394 1.267 . S
O388 C387 1.203 . S
O389 C382 1.185 . S
O389 Zn385 2.086 . S
C390 O386 1.278 . S
C390 O391 1.211 . S
O391 C390 1.211 . S
C392 O384 1.284 . S
C392 O393 1.273 . S
O393 C392 1.273 . S
O394 Zn385 1.977 . S
O394 C387 1.267 . S
C395 O396 1.160 . S
C395 O402 1.185 . S
O396 C395 1.160 . S
O397 Zn398 1.899 . S
O397 C405 1.284 . S
Zn398 O397 1.899 . S
Zn398 O399 2.032 . S
Zn398 O402 2.086 1_545 S
Zn398 O407 1.977 1_545 S
O399 Zn398 2.032 . S
O399 C403 1.278 . S
C400 O401 1.203 . S
C400 O407 1.267 1_545 S
O401 C400 1.203 . S
O402 C395 1.185 . S
O402 Zn398 2.086 1_565 S
C403 O399 1.278 . S
C403 O404 1.211 . S
O404 C403 1.211 . S
C405 O397 1.284 . S
C405 O406 1.273 . S
O406 C405 1.273 . S
O407 Zn398 1.977 1_565 S
O407 C400 1.267 1_565 S
C408 O409 1.160 1_455 S
C408 O415 1.185 . S
O409 C408 1.160 1_655 S
O410 Zn411 1.899 1_655 S
O410 C418 1.284 . S
Zn411 O410 1.899 1_455 S
Zn411 O412 2.032 . S
Zn411 O415 2.086 . S
Zn411 O420 1.977 . S
O412 Zn411 2.032 . S
O412 C416 1.278 . S
C413 O414 1.203 . S
C413 O420 1.267 . S
O414 C413 1.203 . S
O415 C408 1.185 . S
O415 Zn411 2.086 . S
C416 O412 1.278 . S
C416 O417 1.211 . S
O417 C416 1.211 . S
C418 O410 1.284 . S
C418 O419 1.273 . S
O419 C418 1.273 . S
O420 Zn411 1.977 . S
O420 C413 1.267 . S
C421 O422 1.160 . S
C421 O428 1.185 . S
O422 C421 1.160 . S
O423 Zn424 1.899 . S
O423 C431 1.284 . S
Zn424 O423 1.899 . S
Zn424 O425 2.032 . S
Zn424 O428 2.086 . S
Zn424 O433 1.977 . S
O425 Zn424 2.032 . S
O425 C429 1.278 . S
C426 O427 1.203 . S
C426 O433 1.267 . S
O427 C426 1.203 . S
O428 C421 1.185 . S
O428 Zn424 2.086 . S
C429 O425 1.278 . S
C429 O430 1.211 . S
O430 C429 1.211 . S
C431 O423 1.284 . S
C431 O432 1.273 . S
O432 C431 1.273 . S
O433 Zn424 1.977 . S
O433 C426 1.267 . S
C434 O435 1.160 1_455 S
C434 O441 1.185 . S
O435 C434 1.160 1_655 S
O436 Zn437 1.899 1_655 S
O436 C444 1.284 . S
Zn437 O436 1.899 1_455 S
Zn437 O438 2.032 1_455 S
Zn437 O441 2.086 . S
Zn437 O446 1.977 . S
O438 Zn437 2.032 1_655 S
O438 C442 1.278 . S
C439 O440 1.203 . S
C439 O446 1.267 . S
O440 C439 1.203 . S
O441 C434 1.185 . S
O441 Zn437 2.086 . S
C442 O438 1.278 . S
C442 O443 1.211 1_655 S
O443 C442 1.211 1_455 S
C444 O436 1.284 . S
C444 O445 1.273 . S
O445 C444 1.273 . S
O446 Zn437 1.977 . S
O446 C439 1.267 . S
C447 O448 1.160 . S
C447 O454 1.185 . S
O448 C447 1.160 . S
O449 Zn450 1.899 . S
O449 C457 1.284 . S
Zn450 O449 1.899 . S
Zn450 O451 2.032 . S
Zn450 O454 2.086 . S
Zn450 O459 1.977 . S
O451 Zn450 2.032 . S
O451 C455 1.278 . S
C452 O453 1.203 . S
C452 O459 1.267 . S
O453 C452 1.203 . S
O454 C447 1.185 . S
O454 Zn450 2.086 . S
C455 O451 1.278 . S
C455 O456 1.211 . S
O456 C455 1.211 . S
C457 O449 1.284 . S
C457 O458 1.273 . S
O458 C457 1.273 . S
O459 Zn450 1.977 . S
O459 C452 1.267 . S
C460 C461 1.391 . S
C460 C462 1.394 . S
C460 H476 0.931 . S
C461 C460 1.391 . S
C461 C465 1.376 . S
C462 C460 1.394 . S
C462 C463 1.369 . S
C462 C466 1.531 . S
C463 C462 1.369 . S
C463 C464 1.410 . S
C463 C471 1.503 . S
C464 C463 1.410 . S
C464 C465 1.392 . S
C464 C467 1.511 . S
C465 C461 1.376 . S
C465 C464 1.392 . S
C465 H477 0.929 . S
C466 C462 1.531 . S
C466 H478 0.960 . S
C466 H479 0.962 . S
C466 H480 0.960 . S
C467 C464 1.511 . S
C467 H481 0.961 . S
C467 H482 0.961 . S
C467 H483 0.961 . S
C468 C469 1.370 . S
C468 C470 1.363 . S
C468 H484 0.931 . S
C469 C468 1.370 . S
C469 C473 1.408 . S
C470 C468 1.363 . S
C470 C471 1.370 . S
C470 C474 1.524 . S
C471 C463 1.503 . S
C471 C470 1.370 . S
C471 C472 1.403 . S
C472 C471 1.403 . S
C472 C473 1.404 . S
C472 C475 1.539 . S
C473 C469 1.408 . S
C473 C472 1.404 . S
C473 H485 0.930 . S
C474 C470 1.524 . S
C474 H486 0.956 . S
C474 H487 0.961 . S
C474 H488 0.961 . S
C475 C472 1.539 . S
C475 H489 0.958 . S
C475 H490 0.961 . S
C475 H491 0.960 . S
H476 C460 0.931 . S
H477 C465 0.929 . S
H478 C466 0.960 . S
H479 C466 0.962 . S
H480 C466 0.960 . S
H481 C467 0.961 . S
H482 C467 0.961 . S
H483 C467 0.961 . S
H484 C468 0.931 . S
H485 C473 0.930 . S
H486 C474 0.956 . S
H487 C474 0.961 . S
H488 C474 0.961 . S
H489 C475 0.958 . S
H490 C475 0.961 . S
H491 C475 0.960 . S
C492 C493 1.391 . S
C492 C494 1.394 . S
C492 H508 0.931 . S
C493 C492 1.391 . S
C493 C497 1.376 . S
C494 C492 1.394 . S
C494 C495 1.369 . S
C494 C498 1.531 . S
C495 C494 1.369 . S
C495 C496 1.410 . S
C495 C503 1.503 . S
C496 C495 1.410 . S
C496 C497 1.392 . S
C496 C499 1.511 . S
C497 C493 1.376 . S
C497 C496 1.392 . S
C497 H509 0.929 . S
C498 C494 1.531 . S
C498 H510 0.960 . S
C498 H511 0.962 . S
C498 H512 0.960 . S
C499 C496 1.511 . S
C499 H513 0.961 . S
C499 H514 0.961 . S
C499 H515 0.961 . S
C500 C501 1.370 . S
C500 C502 1.363 . S
C500 H516 0.931 . S
C501 C500 1.370 . S
C501 C505 1.408 . S
C502 C500 1.363 . S
C502 C503 1.370 . S
C502 C506 1.524 . S
C503 C495 1.503 . S
C503 C502 1.370 . S
C503 C504 1.403 . S
C504 C503 1.403 . S
C504 C505 1.404 . S
C504 C507 1.539 . S
C505 C501 1.408 . S
C505 C504 1.404 . S
C505 H517 0.930 . S
C506 C502 1.524 . S
C506 H518 0.956 . S
C506 H519 0.961 . S
C506 H520 0.961 . S
C507 C504 1.539 . S
C507 H521 0.958 . S
C507 H522 0.961 . S
C507 H523 0.960 . S
H508 C492 0.931 . S
H509 C497 0.929 . S
H510 C498 0.960 . S
H511 C498 0.962 . S
H512 C498 0.960 . S
H513 C499 0.961 . S
H514 C499 0.961 . S
H515 C499 0.961 . S
H516 C500 0.931 . S
H517 C505 0.930 . S
H518 C506 0.956 . S
H519 C506 0.961 . S
H520 C506 0.961 . S
H521 C507 0.958 . S
H522 C507 0.961 . S
H523 C507 0.960 . S
C524 C525 1.391 . S
C524 C526 1.394 . S
C524 H540 0.931 . S
C525 C524 1.391 . S
C525 C529 1.376 . S
C526 C524 1.394 . S
C526 C527 1.369 . S
C526 C530 1.531 . S
C527 C526 1.369 . S
C527 C528 1.410 . S
C527 C535 1.503 . S
C528 C527 1.410 . S
C528 C529 1.392 . S
C528 C531 1.511 . S
C529 C525 1.376 . S
C529 C528 1.392 . S
C529 H541 0.929 . S
C530 C526 1.531 . S
C530 H542 0.960 . S
C530 H543 0.962 . S
C530 H544 0.960 . S
C531 C528 1.511 . S
C531 H545 0.961 . S
C531 H546 0.961 . S
C531 H547 0.961 . S
C532 C533 1.370 . S
C532 C534 1.363 . S
C532 H548 0.931 . S
C533 C532 1.370 . S
C533 C537 1.408 . S
C534 C532 1.363 . S
C534 C535 1.370 . S
C534 C538 1.524 . S
C535 C527 1.503 . S
C535 C534 1.370 . S
C535 C536 1.403 . S
C536 C535 1.403 . S
C536 C537 1.404 . S
C536 C539 1.539 . S
C537 C533 1.408 . S
C537 C536 1.404 . S
C537 H549 0.930 . S
C538 C534 1.524 . S
C538 H550 0.956 . S
C538 H551 0.961 . S
C538 H552 0.961 . S
C539 C536 1.539 . S
C539 H553 0.958 . S
C539 H554 0.961 . S
C539 H555 0.960 . S
H540 C524 0.931 . S
H541 C529 0.929 . S
H542 C530 0.960 . S
H543 C530 0.962 . S
H544 C530 0.960 . S
H545 C531 0.961 . S
H546 C531 0.961 . S
H547 C531 0.961 . S
H548 C532 0.931 . S
H549 C537 0.930 . S
H550 C538 0.956 . S
H551 C538 0.961 . S
H552 C538 0.961 . S
H553 C539 0.958 . S
H554 C539 0.961 . S
H555 C539 0.960 . S
C556 C557 1.391 . S
C556 C558 1.394 . S
C556 H572 0.931 . S
C557 C556 1.391 . S
C557 C561 1.376 . S
C558 C556 1.394 . S
C558 C559 1.369 . S
C558 C562 1.531 . S
C559 C558 1.369 . S
C559 C560 1.410 . S
C559 C567 1.503 1_565 S
C560 C559 1.410 . S
C560 C561 1.392 . S
C560 C563 1.511 1_455 S
C561 C557 1.376 . S
C561 C560 1.392 . S
C561 H573 0.929 . S
C562 C558 1.531 . S
C562 H574 0.960 . S
C562 H575 0.962 1_565 S
C562 H576 0.960 . S
C563 C560 1.511 1_655 S
C563 H577 0.961 . S
C563 H578 0.961 1_565 S
C563 H579 0.961 . S
C564 C565 1.370 1_455 S
C564 C566 1.363 . S
C564 H580 0.931 . S
C565 C564 1.370 1_655 S
C565 C569 1.408 1_545 S
C566 C564 1.363 . S
C566 C567 1.370 . S
C566 C570 1.524 . S
C567 C559 1.503 1_545 S
C567 C566 1.370 . S
C567 C568 1.403 1_545 S
C568 C567 1.403 1_565 S
C568 C569 1.404 1_455 S
C568 C571 1.539 . S
C569 C565 1.408 1_565 S
C569 C568 1.404 1_655 S
C569 H581 0.930 . S
C570 C566 1.524 . S
C570 H582 0.956 . S
C570 H583 0.961 . S
C570 H584 0.961 . S
C571 C568 1.539 . S
C571 H585 0.958 . S
C571 H586 0.961 1_455 S
C571 H587 0.960 . S
H572 C556 0.931 . S
H573 C561 0.929 . S
H574 C562 0.960 . S
H575 C562 0.962 1_545 S
H576 C562 0.960 . S
H577 C563 0.961 . S
H578 C563 0.961 1_545 S
H579 C563 0.961 . S
H580 C564 0.931 . S
H581 C569 0.930 . S
H582 C570 0.956 . S
H583 C570 0.961 . S
H584 C570 0.961 . S
H585 C571 0.958 . S
H586 C571 0.961 1_655 S
H587 C571 0.960 . S
C588 C589 1.391 . S
C588 C590 1.394 . S
C588 H604 0.931 . S
C589 C588 1.391 . S
C589 C593 1.376 . S
C590 C588 1.394 . S
C590 C591 1.369 . S
C590 C594 1.531 . S
C591 C590 1.369 . S
C591 C592 1.410 . S
C591 C599 1.503 . S
C592 C591 1.410 . S
C592 C593 1.392 . S
C592 C595 1.511 . S
C593 C589 1.376 . S
C593 C592 1.392 . S
C593 H605 0.929 . S
C594 C590 1.531 . S
C594 H606 0.960 . S
C594 H607 0.962 . S
C594 H608 0.960 . S
C595 C592 1.511 . S
C595 H609 0.961 . S
C595 H610 0.961 . S
C595 H611 0.961 . S
C596 C597 1.370 . S
C596 C598 1.363 . S
C596 H612 0.931 . S
C597 C596 1.370 . S
C597 C601 1.408 . S
C598 C596 1.363 . S
C598 C599 1.370 . S
C598 C602 1.524 . S
C599 C591 1.503 . S
C599 C598 1.370 . S
C599 C600 1.403 . S
C600 C599 1.403 . S
C600 C601 1.404 . S
C600 C603 1.539 . S
C601 C597 1.408 . S
C601 C600 1.404 . S
C601 H613 0.930 . S
C602 C598 1.524 . S
C602 H614 0.956 . S
C602 H615 0.961 . S
C602 H616 0.961 . S
C603 C600 1.539 . S
C603 H617 0.958 . S
C603 H618 0.961 . S
C603 H619 0.960 . S
H604 C588 0.931 . S
H605 C593 0.929 . S
H606 C594 0.960 . S
H607 C594 0.962 . S
H608 C594 0.960 . S
H609 C595 0.961 . S
H610 C595 0.961 . S
H611 C595 0.961 . S
H612 C596 0.931 . S
H613 C601 0.930 . S
H614 C602 0.956 . S
H615 C602 0.961 . S
H616 C602 0.961 . S
H617 C603 0.958 . S
H618 C603 0.961 . S
H619 C603 0.960 . S
C620 C621 1.391 . S
C620 C622 1.394 . S
C620 H636 0.931 . S
C621 C620 1.391 . S
C621 C625 1.376 . S
C622 C620 1.394 . S
C622 C623 1.369 . S
C622 C626 1.531 . S
C623 C622 1.369 . S
C623 C624 1.410 . S
C623 C631 1.503 . S
C624 C623 1.410 . S
C624 C625 1.392 . S
C624 C627 1.511 . S
C625 C621 1.376 . S
C625 C624 1.392 . S
C625 H637 0.929 . S
C626 C622 1.531 . S
C626 H638 0.960 . S
C626 H639 0.962 . S
C626 H640 0.960 . S
C627 C624 1.511 . S
C627 H641 0.961 . S
C627 H642 0.961 . S
C627 H643 0.961 . S
C628 C629 1.370 . S
C628 C630 1.363 . S
C628 H644 0.931 . S
C629 C628 1.370 . S
C629 C633 1.408 . S
C630 C628 1.363 . S
C630 C631 1.370 . S
C630 C634 1.524 . S
C631 C623 1.503 . S
C631 C630 1.370 . S
C631 C632 1.403 . S
C632 C631 1.403 . S
C632 C633 1.404 . S
C632 C635 1.539 . S
C633 C629 1.408 . S
C633 C632 1.404 . S
C633 H645 0.930 . S
C634 C630 1.524 . S
C634 H646 0.956 . S
C634 H647 0.961 . S
C634 H648 0.961 . S
C635 C632 1.539 . S
C635 H649 0.958 . S
C635 H650 0.961 . S
C635 H651 0.960 . S
H636 C620 0.931 . S
H637 C625 0.929 . S
H638 C626 0.960 . S
H639 C626 0.962 . S
H640 C626 0.960 . S
H641 C627 0.961 . S
H642 C627 0.961 . S
H643 C627 0.961 . S
H644 C628 0.931 . S
H645 C633 0.930 . S
H646 C634 0.956 . S
H647 C634 0.961 . S
H648 C634 0.961 . S
H649 C635 0.958 . S
H650 C635 0.961 . S
H651 C635 0.960 . S
C652 C653 1.391 . S
C652 C654 1.394 . S
C652 H668 0.931 . S
C653 C652 1.391 . S
C653 C657 1.376 . S
C654 C652 1.394 . S
C654 C655 1.369 . S
C654 C658 1.531 . S
C655 C654 1.369 . S
C655 C656 1.410 . S
C655 C663 1.503 . S
C656 C655 1.410 . S
C656 C657 1.392 . S
C656 C659 1.511 . S
C657 C653 1.376 . S
C657 C656 1.392 . S
C657 H669 0.929 . S
C658 C654 1.531 . S
C658 H670 0.960 . S
C658 H671 0.962 . S
C658 H672 0.960 . S
C659 C656 1.511 . S
C659 H673 0.961 . S
C659 H674 0.961 . S
C659 H675 0.961 . S
C660 C661 1.370 . S
C660 C662 1.363 . S
C660 H676 0.931 . S
C661 C660 1.370 . S
C661 C665 1.408 . S
C662 C660 1.363 . S
C662 C663 1.370 . S
C662 C666 1.524 . S
C663 C655 1.503 . S
C663 C662 1.370 . S
C663 C664 1.403 . S
C664 C663 1.403 . S
C664 C665 1.404 . S
C664 C667 1.539 . S
C665 C661 1.408 . S
C665 C664 1.404 . S
C665 H677 0.930 . S
C666 C662 1.524 . S
C666 H678 0.956 . S
C666 H679 0.961 . S
C666 H680 0.961 . S
C667 C664 1.539 . S
C667 H681 0.958 . S
C667 H682 0.961 . S
C667 H683 0.960 . S
H668 C652 0.931 . S
H669 C657 0.929 . S
H670 C658 0.960 . S
H671 C658 0.962 . S
H672 C658 0.960 . S
H673 C659 0.961 . S
H674 C659 0.961 . S
H675 C659 0.961 . S
H676 C660 0.931 . S
H677 C665 0.930 . S
H678 C666 0.956 . S
H679 C666 0.961 . S
H680 C666 0.961 . S
H681 C667 0.958 . S
H682 C667 0.961 . S
H683 C667 0.960 . S
C684 C685 1.391 . S
C684 C686 1.394 . S
C684 H700 0.931 . S
C685 C684 1.391 . S
C685 C689 1.376 . S
C686 C684 1.394 . S
C686 C687 1.369 . S
C686 C690 1.531 . S
C687 C686 1.369 . S
C687 C688 1.410 . S
C687 C695 1.503 . S
C688 C687 1.410 . S
C688 C689 1.392 . S
C688 C691 1.511 1_565 S
C689 C685 1.376 . S
C689 C688 1.392 . S
C689 H701 0.942 . S
C690 C686 1.531 . S
C690 H702 0.960 . S
C690 H703 0.962 . S
C690 H704 0.960 . S
C691 C688 1.511 1_545 S
C691 H705 0.961 . S
C691 H706 0.961 . S
C691 H707 0.950 1_545 S
C692 C693 1.370 1_545 S
C692 C694 1.363 . S
C692 H708 0.931 . S
C693 C692 1.370 1_565 S
C693 C697 1.408 . S
C694 C692 1.363 . S
C694 C695 1.370 1_545 S
C694 C698 1.524 . S
C695 C687 1.503 . S
C695 C694 1.370 1_565 S
C695 C696 1.403 . S
C696 C695 1.403 . S
C696 C697 1.404 . S
C696 C699 1.539 . S
C697 C693 1.408 . S
C697 C696 1.404 . S
C697 H709 0.930 . S
C698 C694 1.524 . S
C698 H710 0.956 . S
C698 H711 0.961 . S
C698 H712 0.961 . S
C699 C696 1.539 . S
C699 H713 0.958 . S
C699 H714 0.961 . S
C699 H715 0.960 . S
H700 C684 0.931 . S
H701 C689 0.942 . S
H702 C690 0.960 . S
H703 C690 0.962 . S
H704 C690 0.960 . S
H705 C691 0.961 . S
H706 C691 0.961 . S
H707 C691 0.950 1_565 S
H708 C692 0.931 . S
H709 C697 0.930 . S
H710 C698 0.956 . S
H711 C698 0.961 . S
H712 C698 0.961 . S
H713 C699 0.958 . S
H714 C699 0.961 . S
H715 C699 0.960 . S
C716 C717 1.391 . S
C716 C718 1.394 . S
C716 H732 0.931 . S
C717 C716 1.391 . S
C717 C721 1.376 . S
C718 C716 1.394 . S
C718 C719 1.369 . S
C718 C722 1.531 . S
C719 C718 1.369 . S
C719 C720 1.410 . S
C719 C727 1.503 . S
C720 C719 1.410 . S
C720 C721 1.392 . S
C720 C723 1.511 . S
C721 C717 1.376 . S
C721 C720 1.392 . S
C721 H733 0.929 . S
C722 C718 1.531 . S
C722 H734 0.960 . S
C722 H735 0.962 . S
C722 H736 0.960 . S
C723 C720 1.511 . S
C723 H737 0.961 . S
C723 H738 0.961 . S
C723 H739 0.961 . S
C724 C725 1.370 . S
C724 C726 1.363 . S
C724 H740 0.931 . S
C725 C724 1.370 . S
C725 C729 1.408 . S
C726 C724 1.363 . S
C726 C727 1.370 . S
C726 C730 1.524 . S
C727 C719 1.503 . S
C727 C726 1.370 . S
C727 C728 1.403 . S
C728 C727 1.403 . S
C728 C729 1.404 . S
C728 C731 1.539 . S
C729 C725 1.408 . S
C729 C728 1.404 . S
C729 H741 0.930 . S
C730 C726 1.524 . S
C730 H742 0.956 . S
C730 H743 0.961 . S
C730 H744 0.961 . S
C731 C728 1.539 . S
C731 H745 0.958 . S
C731 H746 0.961 . S
C731 H747 0.960 . S
H732 C716 0.931 . S
H733 C721 0.929 . S
H734 C722 0.960 . S
H735 C722 0.962 . S
H736 C722 0.960 . S
H737 C723 0.961 . S
H738 C723 0.961 . S
H739 C723 0.961 . S
H740 C724 0.931 . S
H741 C729 0.930 . S
H742 C730 0.956 . S
H743 C730 0.961 . S
H744 C730 0.961 . S
H745 C731 0.958 . S
H746 C731 0.961 . S
H747 C731 0.960 . S
C748 C749 1.391 . S
C748 C750 1.394 . S
C748 H764 0.931 . S
C749 C748 1.391 . S
C749 C753 1.376 . S
C750 C748 1.394 . S
C750 C751 1.369 . S
C750 C754 1.531 . S
C751 C750 1.369 . S
C751 C752 1.410 . S
C751 C759 1.503 . S
C752 C751 1.410 . S
C752 C753 1.392 . S
C752 C755 1.511 . S
C753 C749 1.376 . S
C753 C752 1.392 . S
C753 H765 0.929 . S
C754 C750 1.531 . S
C754 H766 0.960 . S
C754 H767 0.962 . S
C754 H768 0.960 . S
C755 C752 1.511 . S
C755 H769 0.961 . S
C755 H770 0.961 . S
C755 H771 0.961 . S
C756 C757 1.370 . S
C756 C758 1.363 . S
C756 H772 0.931 . S
C757 C756 1.370 . S
C757 C761 1.408 . S
C758 C756 1.363 . S
C758 C759 1.370 . S
C758 C762 1.524 . S
C759 C751 1.503 . S
C759 C758 1.370 . S
C759 C760 1.403 . S
C760 C759 1.403 . S
C760 C761 1.404 . S
C760 C763 1.539 . S
C761 C757 1.408 . S
C761 C760 1.404 . S
C761 H773 0.930 . S
C762 C758 1.524 . S
C762 H774 0.956 . S
C762 H775 0.961 . S
C762 H776 0.961 . S
C763 C760 1.539 . S
C763 H777 0.958 . S
C763 H778 0.961 . S
C763 H779 0.960 . S
H764 C748 0.931 . S
H765 C753 0.929 . S
H766 C754 0.960 . S
H767 C754 0.962 . S
H768 C754 0.960 . S
H769 C755 0.961 . S
H770 C755 0.961 . S
H771 C755 0.961 . S
H772 C756 0.931 . S
H773 C761 0.930 . S
H774 C762 0.956 . S
H775 C762 0.961 . S
H776 C762 0.961 . S
H777 C763 0.958 . S
H778 C763 0.961 . S
H779 C763 0.960 . S
C780 C781 1.391 . S
C780 C782 1.394 . S
C780 H796 0.931 . S
C781 C780 1.391 . S
C781 C785 1.376 . S
C782 C780 1.394 . S
C782 C783 1.369 . S
C782 C786 1.531 . S
C783 C782 1.369 . S
C783 C784 1.410 . S
C783 C791 1.503 . S
C784 C783 1.410 . S
C784 C785 1.392 . S
C784 C787 1.511 . S
C785 C781 1.376 . S
C785 C784 1.392 . S
C785 H797 0.929 . S
C786 C782 1.531 . S
C786 H798 0.960 . S
C786 H799 0.962 . S
C786 H800 0.960 . S
C787 C784 1.511 . S
C787 H801 0.961 . S
C787 H802 0.961 . S
C787 H803 0.961 . S
C788 C789 1.370 . S
C788 C790 1.363 . S
C788 H804 0.931 . S
C789 C788 1.370 . S
C789 C793 1.408 . S
C790 C788 1.363 . S
C790 C791 1.370 . S
C790 C794 1.524 . S
C791 C783 1.503 . S
C791 C790 1.370 . S
C791 C792 1.403 . S
C792 C791 1.403 . S
C792 C793 1.404 . S
C792 C795 1.539 . S
C793 C789 1.408 . S
C793 C792 1.404 . S
C793 H805 0.930 . S
C794 C790 1.524 . S
C794 H806 0.956 . S
C794 H807 0.961 . S
C794 H808 0.961 . S
C795 C792 1.539 . S
C795 H809 0.958 . S
C795 H810 0.961 . S
C795 H811 0.960 . S
H796 C780 0.931 . S
H797 C785 0.929 . S
H798 C786 0.960 . S
H799 C786 0.962 . S
H800 C786 0.960 . S
H801 C787 0.961 . S
H802 C787 0.961 . S
H803 C787 0.961 . S
H804 C788 0.931 . S
H805 C793 0.930 . S
H806 C794 0.956 . S
H807 C794 0.961 . S
H808 C794 0.961 . S
H809 C795 0.958 . S
H810 C795 0.961 . S
H811 C795 0.960 . S
C812 C813 1.391 . S
C812 C814 1.394 . S
C812 H828 0.931 . S
C813 C812 1.391 . S
C813 C817 1.376 . S
C814 C812 1.394 . S
C814 C815 1.369 . S
C814 C818 1.531 . S
C815 C814 1.369 . S
C815 C816 1.410 . S
C815 C823 1.503 . S
C816 C815 1.410 . S
C816 C817 1.392 . S
C816 C819 1.511 . S
C817 C813 1.376 . S
C817 C816 1.392 . S
C817 H829 0.929 . S
C818 C814 1.531 . S
C818 H830 0.960 . S
C818 H831 0.962 . S
C818 H832 0.960 . S
C819 C816 1.511 . S
C819 H833 0.961 . S
C819 H834 0.961 . S
C819 H835 0.961 . S
C820 C821 1.370 . S
C820 C822 1.363 . S
C820 H836 0.931 . S
C821 C820 1.370 . S
C821 C825 1.408 . S
C822 C820 1.363 . S
C822 C823 1.370 . S
C822 C826 1.524 . S
C823 C815 1.503 . S
C823 C822 1.370 . S
C823 C824 1.403 . S
C824 C823 1.403 . S
C824 C825 1.404 . S
C824 C827 1.539 . S
C825 C821 1.408 . S
C825 C824 1.404 . S
C825 H837 0.930 . S
C826 C822 1.524 . S
C826 H838 0.956 . S
C826 H839 0.961 . S
C826 H840 0.961 . S
C827 C824 1.539 . S
C827 H841 0.958 . S
C827 H842 0.961 . S
C827 H843 0.960 . S
H828 C812 0.931 . S
H829 C817 0.929 . S
H830 C818 0.960 . S
H831 C818 0.962 . S
H832 C818 0.960 . S
H833 C819 0.961 . S
H834 C819 0.961 . S
H835 C819 0.961 . S
H836 C820 0.931 . S
H837 C825 0.930 . S
H838 C826 0.956 . S
H839 C826 0.961 . S
H840 C826 0.961 . S
H841 C827 0.958 . S
H842 C827 0.961 . S
H843 C827 0.960 . S
C844 C845 1.391 . S
C844 C846 1.394 . S
C844 H860 0.931 . S
C845 C844 1.391 . S
C845 C849 1.376 . S
C846 C844 1.394 . S
C846 C847 1.369 . S
C846 C850 1.531 . S
C847 C846 1.369 . S
C847 C848 1.410 . S
C847 C855 1.503 . S
C848 C847 1.410 . S
C848 C849 1.392 . S
C848 C851 1.511 . S
C849 C845 1.376 . S
C849 C848 1.392 . S
C849 H861 0.929 . S
C850 C846 1.531 . S
C850 H862 0.960 . S
C850 H863 0.962 . S
C850 H864 0.960 . S
C851 C848 1.511 . S
C851 H865 0.961 . S
C851 H866 0.961 . S
C851 H867 0.961 . S
C852 C853 1.370 . S
C852 C854 1.363 . S
C852 H868 0.931 . S
C853 C852 1.370 . S
C853 C857 1.408 . S
C854 C852 1.363 . S
C854 C855 1.370 . S
C854 C858 1.524 . S
C855 C847 1.503 . S
C855 C854 1.370 . S
C855 C856 1.403 . S
C856 C855 1.403 . S
C856 C857 1.404 . S
C856 C859 1.539 . S
C857 C853 1.408 . S
C857 C856 1.404 . S
C857 H869 0.930 . S
C858 C854 1.524 . S
C858 H870 0.956 . S
C858 H871 0.961 . S
C858 H872 0.961 . S
C859 C856 1.539 . S
C859 H873 0.958 . S
C859 H874 0.961 . S
C859 H875 0.960 . S
H860 C844 0.931 . S
H861 C849 0.929 . S
H862 C850 0.960 . S
H863 C850 0.962 . S
H864 C850 0.960 . S
H865 C851 0.961 . S
H866 C851 0.961 . S
H867 C851 0.961 . S
H868 C852 0.931 . S
H869 C857 0.930 . S
H870 C858 0.956 . S
H871 C858 0.961 . S
H872 C858 0.961 . S
H873 C859 0.958 . S
H874 C859 0.961 . S
H875 C859 0.960 . S
C876 C877 1.391 . S
C876 C878 1.394 . S
C876 H892 0.931 . S
C877 C876 1.391 . S
C877 C881 1.376 . S
C878 C876 1.394 . S
C878 C879 1.369 . S
C878 C882 1.531 . S
C879 C878 1.369 . S
C879 C880 1.410 . S
C879 C887 1.503 . S
C880 C879 1.410 . S
C880 C881 1.392 . S
C880 C883 1.511 . S
C881 C877 1.376 . S
C881 C880 1.392 . S
C881 H893 0.929 . S
C882 C878 1.531 . S
C882 H894 0.960 . S
C882 H895 0.962 . S
C882 H896 0.960 . S
C883 C880 1.511 . S
C883 H897 0.961 . S
C883 H898 0.961 . S
C883 H899 0.961 . S
C884 C885 1.370 . S
C884 C886 1.363 . S
C884 H900 0.931 . S
C885 C884 1.370 . S
C885 C889 1.408 . S
C886 C884 1.363 . S
C886 C887 1.370 . S
C886 C890 1.524 . S
C887 C879 1.503 . S
C887 C886 1.370 . S
C887 C888 1.403 . S
C888 C887 1.403 . S
C888 C889 1.404 . S
C888 C891 1.539 . S
C889 C885 1.408 . S
C889 C888 1.404 . S
C889 H901 0.930 . S
C890 C886 1.524 . S
C890 H902 0.956 . S
C890 H903 0.961 . S
C890 H904 0.961 . S
C891 C888 1.539 . S
C891 H905 0.958 . S
C891 H906 0.961 . S
C891 H907 0.960 . S
H892 C876 0.931 . S
H893 C881 0.929 . S
H894 C882 0.960 . S
H895 C882 0.962 . S
H896 C882 0.960 . S
H897 C883 0.961 . S
H898 C883 0.961 . S
H899 C883 0.961 . S
H900 C884 0.931 . S
H901 C889 0.930 . S
H902 C890 0.956 . S
H903 C890 0.961 . S
H904 C890 0.961 . S
H905 C891 0.958 . S
H906 C891 0.961 . S
H907 C891 0.960 . S
C908 C909 1.391 . S
C908 C910 1.394 . S
C908 H924 0.931 . S
C909 C908 1.391 . S
C909 C913 1.376 . S
C910 C908 1.394 . S
C910 C911 1.369 . S
C910 C914 1.531 . S
C911 C910 1.369 . S
C911 C912 1.410 . S
C911 C919 1.503 . S
C912 C911 1.410 . S
C912 C913 1.392 . S
C912 C915 1.511 . S
C913 C909 1.376 . S
C913 C912 1.392 . S
C913 H925 0.929 . S
C914 C910 1.531 . S
C914 H926 0.960 . S
C914 H927 0.962 . S
C914 H928 0.960 . S
C915 C912 1.511 . S
C915 H929 0.961 . S
C915 H930 0.961 . S
C915 H931 0.961 . S
C916 C917 1.370 . S
C916 C918 1.363 . S
C916 H932 0.931 . S
C917 C916 1.370 . S
C917 C921 1.408 . S
C918 C916 1.363 . S
C918 C919 1.370 . S
C918 C922 1.524 . S
C919 C911 1.503 . S
C919 C918 1.370 . S
C919 C920 1.403 . S
C920 C919 1.403 . S
C920 C921 1.404 . S
C920 C923 1.539 . S
C921 C917 1.408 . S
C921 C920 1.404 . S
C921 H933 0.930 . S
C922 C918 1.524 . S
C922 H934 0.956 . S
C922 H935 0.961 . S
C922 H936 0.961 . S
C923 C920 1.539 . S
C923 H937 0.958 . S
C923 H938 0.961 . S
C923 H939 0.960 . S
H924 C908 0.931 . S
H925 C913 0.929 . S
H926 C914 0.960 . S
H927 C914 0.962 . S
H928 C914 0.960 . S
H929 C915 0.961 . S
H930 C915 0.961 . S
H931 C915 0.961 . S
H932 C916 0.931 . S
H933 C921 0.930 . S
H934 C922 0.956 . S
H935 C922 0.961 . S
H936 C922 0.961 . S
H937 C923 0.958 . S
H938 C923 0.961 . S
H939 C923 0.960 . S
C940 C941 1.391 . S
C940 C942 1.394 . S
C940 H956 0.931 . S
C941 C940 1.391 . S
C941 C945 1.376 . S
C942 C940 1.394 . S
C942 C943 1.369 . S
C942 C946 1.531 . S
C943 C942 1.369 . S
C943 C944 1.410 1_655 S
C943 C951 1.503 . S
C944 C943 1.410 1_455 S
C944 C945 1.392 1_455 S
C944 C947 1.511 . S
C945 C941 1.376 . S
C945 C944 1.392 1_655 S
C945 H957 0.929 1_655 S
C946 C942 1.531 . S
C946 H958 0.960 . S
C946 H959 0.962 . S
C946 H960 0.960 . S
C947 C944 1.511 . S
C947 H961 0.961 . S
C947 H962 0.961 . S
C947 H963 0.961 . S
C948 C949 1.370 . S
C948 C950 1.363 . S
C948 H964 0.931 . S
C949 C948 1.370 . S
C949 C953 1.408 . S
C950 C948 1.363 . S
C950 C951 1.370 . S
C950 C954 1.524 . S
C951 C943 1.503 . S
C951 C950 1.370 . S
C951 C952 1.403 . S
C952 C951 1.403 . S
C952 C953 1.404 . S
C952 C955 1.539 . S
C953 C949 1.408 . S
C953 C952 1.404 . S
C953 H965 0.930 . S
C954 C950 1.524 . S
C954 H966 0.956 . S
C954 H967 0.961 . S
C954 H968 0.961 . S
C955 C952 1.539 . S
C955 H969 0.958 . S
C955 H970 0.961 1_655 S
C955 H971 0.960 1_655 S
H956 C940 0.931 . S
H957 C945 0.929 1_455 S
H958 C946 0.960 . S
H959 C946 0.962 . S
H960 C946 0.960 . S
H961 C947 0.961 . S
H962 C947 0.961 . S
H963 C947 0.961 . S
H964 C948 0.931 . S
H965 C953 0.930 . S
H966 C954 0.956 . S
H967 C954 0.961 . S
H968 C954 0.961 . S
H969 C955 0.958 . S
H970 C955 0.961 1_455 S
H971 C955 0.960 1_455 S
C972 C973 1.391 . S
C972 C974 1.394 . S
C972 H988 0.931 . S
C973 C972 1.391 . S
C973 C977 1.376 . S
C974 C972 1.394 . S
C974 C975 1.369 . S
C974 C978 1.531 . S
C975 C974 1.369 . S
C975 C976 1.410 . S
C975 C983 1.503 . S
C976 C975 1.410 . S
C976 C977 1.392 . S
C976 C979 1.511 . S
C977 C973 1.376 . S
C977 C976 1.392 . S
C977 H989 0.929 . S
C978 C974 1.531 . S
C978 H990 0.960 . S
C978 H991 0.962 . S
C978 H992 0.960 . S
C979 C976 1.511 . S
C979 H993 0.961 . S
C979 H994 0.961 . S
C979 H995 0.961 . S
C980 C981 1.370 . S
C980 C982 1.363 . S
C980 H996 0.931 . S
C981 C980 1.370 . S
C981 C985 1.408 . S
C982 C980 1.363 . S
C982 C983 1.370 . S
C982 C986 1.524 . S
C983 C975 1.503 . S
C983 C982 1.370 . S
C983 C984 1.403 . S
C984 C983 1.403 . S
C984 C985 1.404 . S
C984 C987 1.539 . S
C985 C981 1.408 . S
C985 C984 1.404 . S
C985 H997 0.930 . S
C986 C982 1.524 . S
C986 H998 0.956 . S
C986 H999 0.961 . S
C986 H1000 0.961 . S
C987 C984 1.539 . S
C987 H1001 0.958 . S
C987 H1002 0.961 . S
C987 H1003 0.960 . S
H988 C972 0.931 . S
H989 C977 0.929 . S
H990 C978 0.960 . S
H991 C978 0.962 . S
H992 C978 0.960 . S
H993 C979 0.961 . S
H994 C979 0.961 . S
H995 C979 0.961 . S
H996 C980 0.931 . S
H997 C985 0.930 . S
H998 C986 0.956 . S
H999 C986 0.961 . S
H1000 C986 0.961 . S
H1001 C987 0.958 . S
H1002 C987 0.961 . S
H1003 C987 0.960 . S
C1004 C1005 1.391 . S
C1004 C1006 1.394 . S
C1004 H1020 0.931 . S
C1005 C1004 1.391 . S
C1005 C1009 1.376 . S
C1006 C1004 1.394 . S
C1006 C1007 1.369 . S
C1006 C1010 1.531 . S
C1007 C1006 1.369 . S
C1007 C1008 1.410 . S
C1007 C1015 1.503 . S
C1008 C1007 1.410 . S
C1008 C1009 1.392 . S
C1008 C1011 1.511 . S
C1009 C1005 1.376 . S
C1009 C1008 1.392 . S
C1009 H1021 0.929 . S
C1010 C1006 1.531 . S
C1010 H1022 0.960 . S
C1010 H1023 0.962 . S
C1010 H1024 0.960 . S
C1011 C1008 1.511 . S
C1011 H1025 0.961 . S
C1011 H1026 0.961 . S
C1011 H1027 0.961 . S
C1012 C1013 1.370 . S
C1012 C1014 1.363 . S
C1012 H1028 0.931 . S
C1013 C1012 1.370 . S
C1013 C1017 1.408 . S
C1014 C1012 1.363 . S
C1014 C1015 1.370 . S
C1014 C1018 1.524 . S
C1015 C1007 1.503 . S
C1015 C1014 1.370 . S
C1015 C1016 1.403 . S
C1016 C1015 1.403 . S
C1016 C1017 1.404 . S
C1016 C1019 1.539 . S
C1017 C1013 1.408 . S
C1017 C1016 1.404 . S
C1017 H1029 0.930 . S
C1018 C1014 1.524 . S
C1018 H1030 0.956 . S
C1018 H1031 0.961 . S
C1018 H1032 0.961 . S
C1019 C1016 1.539 . S
C1019 H1033 0.958 . S
C1019 H1034 0.961 . S
C1019 H1035 0.960 . S
H1020 C1004 0.931 . S
H1021 C1009 0.929 . S
H1022 C1010 0.960 . S
H1023 C1010 0.962 . S
H1024 C1010 0.960 . S
H1025 C1011 0.961 . S
H1026 C1011 0.961 . S
H1027 C1011 0.961 . S
H1028 C1012 0.931 . S
H1029 C1017 0.930 . S
H1030 C1018 0.956 . S
H1031 C1018 0.961 . S
H1032 C1018 0.961 . S
H1033 C1019 0.958 . S
H1034 C1019 0.961 . S
H1035 C1019 0.960 . S
C1036 C1037 1.391 . S
C1036 C1038 1.394 1_545 S
C1036 H1052 0.931 . S
C1037 C1036 1.391 . S
C1037 C1041 1.364 1_546 S
C1038 C1036 1.394 1_565 S
C1038 C1039 1.411 . S
C1038 C1042 1.531 . S
C1039 C1038 1.411 . S
C1039 C1040 1.394 1_556 S
C1039 C1047 1.476 1_556 S
C1040 C1039 1.394 1_554 S
C1040 C1041 1.400 . S
C1040 C1043 1.511 . S
C1041 C1037 1.364 1_564 S
C1041 C1040 1.400 . S
C1041 H1053 0.934 1_565 S
C1042 C1038 1.531 . S
C1042 H1054 0.960 . S
C1042 H1055 0.962 . S
C1042 H1056 0.960 . S
C1043 C1040 1.511 . S
C1043 H1057 0.961 . S
C1043 H1058 0.961 . S
C1043 H1059 0.961 . S
C1044 C1045 1.370 . S
C1044 C1046 1.363 . S
C1044 H1060 0.931 . S
C1045 C1044 1.370 . S
C1045 C1049 1.408 . S
C1046 C1044 1.363 . S
C1046 C1047 1.370 . S
C1046 C1050 1.524 . S
C1047 C1039 1.476 1_554 S
C1047 C1046 1.370 . S
C1047 C1048 1.403 . S
C1048 C1047 1.403 . S
C1048 C1049 1.404 . S
C1048 C1051 1.539 1_554 S
C1049 C1045 1.408 . S
C1049 C1048 1.404 . S
C1049 H1061 0.930 . S
C1050 C1046 1.524 . S
C1050 H1062 0.956 1_565 S
C1050 H1063 0.961 1_565 S
C1050 H1064 0.961 1_565 S
C1051 C1048 1.539 1_556 S
C1051 H1065 0.958 . S
C1051 H1066 0.961 . S
C1051 H1067 0.960 . S
H1052 C1036 0.931 . S
H1053 C1041 0.934 1_545 S
H1054 C1042 0.960 . S
H1055 C1042 0.962 . S
H1056 C1042 0.960 . S
H1057 C1043 0.961 . S
H1058 C1043 0.961 . S
H1059 C1043 0.961 . S
H1060 C1044 0.931 . S
H1061 C1049 0.930 . S
H1062 C1050 0.956 1_545 S
H1063 C1050 0.961 1_545 S
H1064 C1050 0.961 1_545 S
H1065 C1051 0.958 . S
H1066 C1051 0.961 . S
H1067 C1051 0.960 . S
C1068 C1069 1.391 . S
C1068 C1070 1.394 . S
C1068 H1084 0.931 . S
C1069 C1068 1.391 . S
C1069 C1073 1.376 . S
C1070 C1068 1.394 . S
C1070 C1071 1.369 . S
C1070 C1074 1.531 . S
C1071 C1070 1.369 . S
C1071 C1072 1.410 . S
C1071 C1079 1.503 . S
C1072 C1071 1.410 . S
C1072 C1073 1.392 . S
C1072 C1075 1.511 . S
C1073 C1069 1.376 . S
C1073 C1072 1.392 . S
C1073 H1085 0.929 . S
C1074 C1070 1.531 . S
C1074 H1086 0.960 . S
C1074 H1087 0.962 . S
C1074 H1088 0.960 . S
C1075 C1072 1.511 . S
C1075 H1089 0.961 . S
C1075 H1090 0.961 . S
C1075 H1091 0.961 . S
C1076 C1077 1.370 . S
C1076 C1078 1.363 . S
C1076 H1092 0.931 . S
C1077 C1076 1.370 . S
C1077 C1081 1.408 . S
C1078 C1076 1.363 . S
C1078 C1079 1.370 . S
C1078 C1082 1.524 . S
C1079 C1071 1.503 . S
C1079 C1078 1.370 . S
C1079 C1080 1.403 . S
C1080 C1079 1.403 . S
C1080 C1081 1.404 . S
C1080 C1083 1.539 . S
C1081 C1077 1.408 . S
C1081 C1080 1.404 . S
C1081 H1093 0.930 . S
C1082 C1078 1.524 . S
C1082 H1094 0.956 . S
C1082 H1095 0.961 . S
C1082 H1096 0.961 . S
C1083 C1080 1.539 . S
C1083 H1097 0.958 . S
C1083 H1098 0.961 . S
C1083 H1099 0.960 . S
H1084 C1068 0.931 . S
H1085 C1073 0.929 . S
H1086 C1074 0.960 . S
H1087 C1074 0.962 . S
H1088 C1074 0.960 . S
H1089 C1075 0.961 . S
H1090 C1075 0.961 . S
H1091 C1075 0.961 . S
H1092 C1076 0.931 . S
H1093 C1081 0.930 . S
H1094 C1082 0.956 . S
H1095 C1082 0.961 . S
H1096 C1082 0.961 . S
H1097 C1083 0.958 . S
H1098 C1083 0.961 . S
H1099 C1083 0.960 . S
C1100 C1101 1.391 . S
C1100 C1102 1.394 . S
C1100 H1116 0.931 1_545 S
C1101 C1100 1.391 . S
C1101 C1105 1.376 . S
C1102 C1100 1.394 . S
C1102 C1103 1.369 . S
C1102 C1106 1.531 . S
C1103 C1102 1.369 . S
C1103 C1104 1.410 . S
C1103 C1111 1.503 . S
C1104 C1103 1.410 . S
C1104 C1105 1.392 . S
C1104 C1107 1.511 . S
C1105 C1101 1.376 . S
C1105 C1104 1.392 . S
C1105 H1117 0.929 . S
C1106 C1102 1.531 . S
C1106 H1118 0.960 . S
C1106 H1119 0.962 . S
C1106 H1120 0.960 . S
C1107 C1104 1.511 . S
C1107 H1121 0.961 . S
C1107 H1122 0.961 . S
C1107 H1123 0.961 . S
C1108 C1109 1.370 . S
C1108 C1110 1.363 . S
C1108 H1124 0.931 . S
C1109 C1108 1.370 . S
C1109 C1113 1.408 . S
C1110 C1108 1.363 . S
C1110 C1111 1.370 . S
C1110 C1114 1.524 . S
C1111 C1103 1.503 . S
C1111 C1110 1.370 . S
C1111 C1112 1.403 . S
C1112 C1111 1.403 . S
C1112 C1113 1.404 . S
C1112 C1115 1.539 . S
C1113 C1109 1.408 . S
C1113 C1112 1.404 . S
C1113 H1125 0.930 . S
C1114 C1110 1.524 . S
C1114 H1126 0.956 . S
C1114 H1127 0.961 . S
C1114 H1128 0.961 . S
C1115 C1112 1.539 . S
C1115 H1129 0.958 . S
C1115 H1130 0.961 . S
C1115 H1131 0.960 . S
H1116 C1100 0.931 1_565 S
H1117 C1105 0.929 . S
H1118 C1106 0.960 . S
H1119 C1106 0.962 . S
H1120 C1106 0.960 . S
H1121 C1107 0.961 . S
H1122 C1107 0.961 . S
H1123 C1107 0.961 . S
H1124 C1108 0.931 . S
H1125 C1113 0.930 . S
H1126 C1114 0.956 . S
H1127 C1114 0.961 . S
H1128 C1114 0.961 . S
H1129 C1115 0.958 . S
H1130 C1115 0.961 . S
H1131 C1115 0.960 . S
C1132 C1133 1.391 . S
C1132 C1134 1.394 . S
C1132 H1148 0.931 . S
C1133 C1132 1.391 . S
C1133 C1137 1.376 . S
C1134 C1132 1.394 . S
C1134 C1135 1.369 . S
C1134 C1138 1.531 . S
C1135 C1134 1.369 . S
C1135 C1136 1.410 . S
C1135 C1143 1.503 . S
C1136 C1135 1.410 . S
C1136 C1137 1.392 . S
C1136 C1139 1.511 . S
C1137 C1133 1.376 . S
C1137 C1136 1.392 . S
C1137 H1149 0.929 . S
C1138 C1134 1.531 . S
C1138 H1150 0.960 . S
C1138 H1151 0.962 . S
C1138 H1152 0.960 . S
C1139 C1136 1.511 . S
C1139 H1153 0.961 . S
C1139 H1154 0.961 . S
C1139 H1155 0.961 . S
C1140 C1141 1.370 . S
C1140 C1142 1.363 . S
C1140 H1156 0.931 . S
C1141 C1140 1.370 . S
C1141 C1145 1.408 . S
C1142 C1140 1.363 . S
C1142 C1143 1.370 . S
C1142 C1146 1.524 . S
C1143 C1135 1.503 . S
C1143 C1142 1.370 . S
C1143 C1144 1.403 . S
C1144 C1143 1.403 . S
C1144 C1145 1.404 . S
C1144 C1147 1.539 . S
C1145 C1141 1.408 . S
C1145 C1144 1.404 . S
C1145 H1157 0.930 . S
C1146 C1142 1.524 . S
C1146 H1158 0.956 . S
C1146 H1159 0.961 . S
C1146 H1160 0.961 . S
C1147 C1144 1.539 . S
C1147 H1161 0.958 . S
C1147 H1162 0.961 . S
C1147 H1163 0.960 . S
H1148 C1132 0.931 . S
H1149 C1137 0.929 . S
H1150 C1138 0.960 . S
H1151 C1138 0.962 . S
H1152 C1138 0.960 . S
H1153 C1139 0.961 . S
H1154 C1139 0.961 . S
H1155 C1139 0.961 . S
H1156 C1140 0.931 . S
H1157 C1145 0.930 . S
H1158 C1146 0.956 . S
H1159 C1146 0.961 . S
H1160 C1146 0.961 . S
H1161 C1147 0.958 . S
H1162 C1147 0.961 . S
H1163 C1147 0.960 . S
C1164 C1165 1.391 . S
C1164 C1166 1.394 . S
C1164 H1180 0.931 . S
C1165 C1164 1.391 . S
C1165 C1169 1.376 . S
C1166 C1164 1.394 . S
C1166 C1167 1.369 . S
C1166 C1170 1.531 . S
C1167 C1166 1.369 . S
C1167 C1168 1.410 . S
C1167 C1175 1.503 . S
C1168 C1167 1.410 . S
C1168 C1169 1.392 . S
C1168 C1171 1.511 . S
C1169 C1165 1.376 . S
C1169 C1168 1.392 . S
C1169 H1181 0.929 1_545 S
C1170 C1166 1.531 . S
C1170 H1182 0.960 . S
C1170 H1183 0.962 . S
C1170 H1184 0.960 . S
C1171 C1168 1.511 . S
C1171 H1185 0.961 . S
C1171 H1186 0.961 . S
C1171 H1187 0.961 . S
C1172 C1173 1.370 . S
C1172 C1174 1.363 . S
C1172 H1188 0.931 . S
C1173 C1172 1.370 . S
C1173 C1177 1.408 . S
C1174 C1172 1.363 . S
C1174 C1175 1.370 . S
C1174 C1178 1.524 . S
C1175 C1167 1.503 . S
C1175 C1174 1.370 . S
C1175 C1176 1.403 . S
C1176 C1175 1.403 . S
C1176 C1177 1.404 . S
C1176 C1179 1.539 . S
C1177 C1173 1.408 . S
C1177 C1176 1.404 . S
C1177 H1189 0.930 . S
C1178 C1174 1.524 . S
C1178 H1190 0.956 . S
C1178 H1191 0.961 . S
C1178 H1192 0.961 . S
C1179 C1176 1.539 . S
C1179 H1193 0.958 . S
C1179 H1194 0.961 . S
C1179 H1195 0.960 . S
H1180 C1164 0.931 . S
H1181 C1169 0.929 1_565 S
H1182 C1170 0.960 . S
H1183 C1170 0.962 . S
H1184 C1170 0.960 . S
H1185 C1171 0.961 . S
H1186 C1171 0.961 . S
H1187 C1171 0.961 . S
H1188 C1172 0.931 . S
H1189 C1177 0.930 . S
H1190 C1178 0.956 . S
H1191 C1178 0.961 . S
H1192 C1178 0.961 . S
H1193 C1179 0.958 . S
H1194 C1179 0.961 . S
H1195 C1179 0.960 . S
C1196 C1197 1.391 . S
C1196 C1198 1.394 . S
C1196 H1212 0.931 . S
C1197 C1196 1.391 . S
C1197 C1201 1.376 . S
C1198 C1196 1.394 . S
C1198 C1199 1.369 . S
C1198 C1202 1.531 . S
C1199 C1198 1.369 . S
C1199 C1200 1.410 . S
C1199 C1207 1.503 . S
C1200 C1199 1.410 . S
C1200 C1201 1.392 . S
C1200 C1203 1.511 . S
C1201 C1197 1.376 . S
C1201 C1200 1.392 . S
C1201 H1213 0.929 . S
C1202 C1198 1.531 . S
C1202 H1214 0.960 . S
C1202 H1215 0.962 . S
C1202 H1216 0.960 . S
C1203 C1200 1.511 . S
C1203 H1217 0.961 . S
C1203 H1218 0.961 . S
C1203 H1219 0.961 . S
C1204 C1205 1.370 . S
C1204 C1206 1.363 . S
C1204 H1220 0.931 . S
C1205 C1204 1.370 . S
C1205 C1209 1.408 . S
C1206 C1204 1.363 . S
C1206 C1207 1.370 . S
C1206 C1210 1.524 . S
C1207 C1199 1.503 . S
C1207 C1206 1.370 . S
C1207 C1208 1.403 . S
C1208 C1207 1.403 . S
C1208 C1209 1.404 . S
C1208 C1211 1.539 . S
C1209 C1205 1.408 . S
C1209 C1208 1.404 . S
C1209 H1221 0.930 . S
C1210 C1206 1.524 . S
C1210 H1222 0.956 . S
C1210 H1223 0.961 . S
C1210 H1224 0.961 . S
C1211 C1208 1.539 . S
C1211 H1225 0.958 . S
C1211 H1226 0.961 . S
C1211 H1227 0.960 . S
H1212 C1196 0.931 . S
H1213 C1201 0.929 . S
H1214 C1202 0.960 . S
H1215 C1202 0.962 . S
H1216 C1202 0.960 . S
H1217 C1203 0.961 . S
H1218 C1203 0.961 . S
H1219 C1203 0.961 . S
H1220 C1204 0.931 . S
H1221 C1209 0.930 . S
H1222 C1210 0.956 . S
H1223 C1210 0.961 . S
H1224 C1210 0.961 . S
H1225 C1211 0.958 . S
H1226 C1211 0.961 . S
H1227 C1211 0.960 . S
C1228 C1229 1.391 . S
C1228 C1230 1.394 . S
C1228 H1244 0.931 . S
C1229 C1228 1.391 . S
C1229 C1233 1.376 . S
C1230 C1228 1.394 . S
C1230 C1231 1.369 . S
C1230 C1234 1.531 . S
C1231 C1230 1.369 . S
C1231 C1232 1.410 . S
C1231 C1239 1.503 . S
C1232 C1231 1.410 . S
C1232 C1233 1.392 . S
C1232 C1235 1.511 . S
C1233 C1229 1.376 . S
C1233 C1232 1.392 . S
C1233 H1245 0.929 . S
C1234 C1230 1.531 . S
C1234 H1246 0.960 . S
C1234 H1247 0.962 . S
C1234 H1248 0.960 . S
C1235 C1232 1.511 . S
C1235 H1249 0.961 . S
C1235 H1250 0.961 . S
C1235 H1251 0.961 . S
C1236 C1237 1.370 . S
C1236 C1238 1.363 . S
C1236 H1252 0.931 . S
C1237 C1236 1.370 . S
C1237 C1241 1.408 . S
C1238 C1236 1.363 . S
C1238 C1239 1.370 . S
C1238 C1242 1.524 . S
C1239 C1231 1.503 . S
C1239 C1238 1.370 . S
C1239 C1240 1.403 . S
C1240 C1239 1.403 . S
C1240 C1241 1.404 . S
C1240 C1243 1.539 . S
C1241 C1237 1.408 . S
C1241 C1240 1.404 . S
C1241 H1253 0.930 . S
C1242 C1238 1.524 . S
C1242 H1254 0.956 . S
C1242 H1255 0.961 . S
C1242 H1256 0.961 . S
C1243 C1240 1.539 . S
C1243 H1257 0.958 . S
C1243 H1258 0.961 . S
C1243 H1259 0.960 . S
H1244 C1228 0.931 . S
H1245 C1233 0.929 . S
H1246 C1234 0.960 . S
H1247 C1234 0.962 . S
H1248 C1234 0.960 . S
H1249 C1235 0.961 . S
H1250 C1235 0.961 . S
H1251 C1235 0.961 . S
H1252 C1236 0.931 . S
H1253 C1241 0.930 . S
H1254 C1242 0.956 . S
H1255 C1242 0.961 . S
H1256 C1242 0.961 . S
H1257 C1243 0.958 . S
H1258 C1243 0.961 . S
H1259 C1243 0.960 . S
C1260 C1261 1.391 . S
C1260 C1262 1.394 . S
C1260 H1276 0.892 1_545 S
C1261 C1260 1.391 . S
C1261 C1265 1.376 . S
C1262 C1260 1.394 . S
C1262 C1263 1.369 . S
C1262 C1266 1.531 1_545 S
C1263 C1262 1.369 . S
C1263 C1264 1.410 . S
C1263 C1271 1.503 . S
C1264 C1263 1.410 . S
C1264 C1265 1.392 . S
C1264 C1267 1.511 . S
C1265 C1261 1.376 . S
C1265 C1264 1.392 . S
C1265 H1277 0.929 . S
C1266 C1262 1.531 1_565 S
C1266 H1278 0.960 . S
C1266 H1279 0.962 . S
C1266 H1280 0.960 . S
C1267 C1264 1.511 . S
C1267 H1281 0.961 . S
C1267 H1282 0.961 . S
C1267 H1283 0.961 . S
C1268 C1269 1.370 . S
C1268 C1270 1.363 . S
C1268 H1284 0.931 . S
C1269 C1268 1.370 . S
C1269 C1273 1.408 . S
C1270 C1268 1.363 . S
C1270 C1271 1.370 . S
C1270 C1274 1.524 . S
C1271 C1263 1.503 . S
C1271 C1270 1.370 . S
C1271 C1272 1.403 . S
C1272 C1271 1.403 . S
C1272 C1273 1.404 . S
C1272 C1275 1.539 . S
C1273 C1269 1.408 . S
C1273 C1272 1.404 . S
C1273 H1285 0.930 . S
C1274 C1270 1.524 . S
C1274 H1286 0.956 . S
C1274 H1287 0.961 . S
C1274 H1288 0.961 . S
C1275 C1272 1.539 . S
C1275 H1289 0.958 . S
C1275 H1290 0.961 . S
C1275 H1291 0.960 . S
H1276 C1260 0.892 1_565 S
H1277 C1265 0.929 . S
H1278 C1266 0.960 . S
H1279 C1266 0.962 . S
H1280 C1266 0.960 . S
H1281 C1267 0.961 . S
H1282 C1267 0.961 . S
H1283 C1267 0.961 . S
H1284 C1268 0.931 . S
H1285 C1273 0.930 . S
H1286 C1274 0.956 . S
H1287 C1274 0.961 . S
H1288 C1274 0.961 . S
H1289 C1275 0.958 . S
H1290 C1275 0.961 . S
H1291 C1275 0.960 . S
C1292 C1293 1.391 . S
C1292 C1294 1.394 . S
C1292 H1308 0.931 . S
C1293 C1292 1.391 . S
C1293 C1297 1.376 . S
C1294 C1292 1.394 . S
C1294 C1295 1.369 . S
C1294 C1298 1.531 . S
C1295 C1294 1.369 . S
C1295 C1296 1.410 . S
C1295 C1303 1.503 . S
C1296 C1295 1.410 . S
C1296 C1297 1.392 . S
C1296 C1299 1.511 . S
C1297 C1293 1.376 . S
C1297 C1296 1.392 . S
C1297 H1309 0.929 . S
C1298 C1294 1.531 . S
C1298 H1310 0.960 . S
C1298 H1311 0.962 . S
C1298 H1312 0.960 . S
C1299 C1296 1.511 . S
C1299 H1313 0.961 . S
C1299 H1314 0.961 . S
C1299 H1315 0.961 . S
C1300 C1301 1.370 . S
C1300 C1302 1.363 . S
C1300 H1316 0.931 . S
C1301 C1300 1.370 . S
C1301 C1305 1.408 . S
C1302 C1300 1.363 . S
C1302 C1303 1.370 . S
C1302 C1306 1.524 . S
C1303 C1295 1.503 . S
C1303 C1302 1.370 . S
C1303 C1304 1.403 . S
C1304 C1303 1.403 . S
C1304 C1305 1.404 . S
C1304 C1307 1.539 . S
C1305 C1301 1.408 . S
C1305 C1304 1.404 . S
C1305 H1317 0.930 . S
C1306 C1302 1.524 . S
C1306 H1318 0.956 . S
C1306 H1319 0.961 . S
C1306 H1320 0.961 . S
C1307 C1304 1.539 . S
C1307 H1321 0.958 . S
C1307 H1322 0.961 . S
C1307 H1323 0.960 . S
H1308 C1292 0.931 . S
H1309 C1297 0.929 . S
H1310 C1298 0.960 . S
H1311 C1298 0.962 . S
H1312 C1298 0.960 . S
H1313 C1299 0.961 . S
H1314 C1299 0.961 . S
H1315 C1299 0.961 . S
H1316 C1300 0.931 . S
H1317 C1305 0.930 . S
H1318 C1306 0.956 . S
H1319 C1306 0.961 . S
H1320 C1306 0.961 . S
H1321 C1307 0.958 . S
H1322 C1307 0.961 . S
H1323 C1307 0.960 . S
C1324 C1325 1.391 . S
C1324 C1326 1.394 . S
C1324 H1340 0.931 . S
C1325 C1324 1.391 . S
C1325 C1329 1.376 . S
C1326 C1324 1.394 . S
C1326 C1327 1.369 . S
C1326 C1330 1.531 . S
C1327 C1326 1.369 . S
C1327 C1328 1.410 . S
C1327 C1335 1.503 . S
C1328 C1327 1.410 . S
C1328 C1329 1.392 . S
C1328 C1331 1.511 . S
C1329 C1325 1.376 . S
C1329 C1328 1.392 . S
C1329 H1341 0.929 . S
C1330 C1326 1.531 . S
C1330 H1342 0.960 . S
C1330 H1343 0.962 . S
C1330 H1344 0.960 . S
C1331 C1328 1.511 . S
C1331 H1345 0.961 . S
C1331 H1346 0.961 . S
C1331 H1347 0.961 . S
C1332 C1333 1.370 . S
C1332 C1334 1.363 . S
C1332 H1348 0.931 . S
C1333 C1332 1.370 . S
C1333 C1337 1.408 . S
C1334 C1332 1.363 . S
C1334 C1335 1.370 . S
C1334 C1338 1.524 . S
C1335 C1327 1.503 . S
C1335 C1334 1.370 . S
C1335 C1336 1.403 . S
C1336 C1335 1.403 . S
C1336 C1337 1.404 . S
C1336 C1339 1.539 . S
C1337 C1333 1.408 . S
C1337 C1336 1.404 . S
C1337 H1349 0.930 . S
C1338 C1334 1.524 . S
C1338 H1350 0.956 . S
C1338 H1351 0.961 . S
C1338 H1352 0.961 . S
C1339 C1336 1.539 . S
C1339 H1353 0.958 . S
C1339 H1354 0.961 . S
C1339 H1355 0.960 . S
H1340 C1324 0.931 . S
H1341 C1329 0.929 . S
H1342 C1330 0.960 . S
H1343 C1330 0.962 . S
H1344 C1330 0.960 . S
H1345 C1331 0.961 . S
H1346 C1331 0.961 . S
H1347 C1331 0.961 . S
H1348 C1332 0.931 . S
H1349 C1337 0.930 . S
H1350 C1338 0.956 . S
H1351 C1338 0.961 . S
H1352 C1338 0.961 . S
H1353 C1339 0.958 . S
H1354 C1339 0.961 . S
H1355 C1339 0.960 . S
C1356 C1357 1.391 . S
C1356 C1358 1.394 . S
C1356 H1372 0.931 . S
C1357 C1356 1.391 . S
C1357 C1361 1.376 . S
C1358 C1356 1.394 . S
C1358 C1359 1.369 . S
C1358 C1362 1.531 . S
C1359 C1358 1.369 . S
C1359 C1360 1.410 . S
C1359 C1367 1.503 . S
C1360 C1359 1.410 . S
C1360 C1361 1.392 . S
C1360 C1363 1.511 . S
C1361 C1357 1.376 . S
C1361 C1360 1.392 . S
C1361 H1373 0.929 . S
C1362 C1358 1.531 . S
C1362 H1374 0.960 . S
C1362 H1375 0.962 . S
C1362 H1376 0.960 . S
C1363 C1360 1.511 . S
C1363 H1377 0.961 . S
C1363 H1378 0.961 . S
C1363 H1379 0.961 . S
C1364 C1365 1.370 . S
C1364 C1366 1.363 . S
C1364 H1380 0.931 . S
C1365 C1364 1.370 . S
C1365 C1369 1.408 . S
C1366 C1364 1.363 . S
C1366 C1367 1.370 . S
C1366 C1370 1.524 . S
C1367 C1359 1.503 . S
C1367 C1366 1.370 . S
C1367 C1368 1.403 . S
C1368 C1367 1.403 . S
C1368 C1369 1.404 . S
C1368 C1371 1.539 . S
C1369 C1365 1.408 . S
C1369 C1368 1.404 . S
C1369 H1381 0.930 . S
C1370 C1366 1.524 . S
C1370 H1382 0.956 . S
C1370 H1383 0.961 . S
C1370 H1384 0.961 . S
C1371 C1368 1.539 . S
C1371 H1385 0.958 . S
C1371 H1386 0.961 . S
C1371 H1387 0.960 . S
H1372 C1356 0.931 . S
H1373 C1361 0.929 . S
H1374 C1362 0.960 . S
H1375 C1362 0.962 . S
H1376 C1362 0.960 . S
H1377 C1363 0.961 . S
H1378 C1363 0.961 . S
H1379 C1363 0.961 . S
H1380 C1364 0.931 . S
H1381 C1369 0.930 . S
H1382 C1370 0.956 . S
H1383 C1370 0.961 . S
H1384 C1370 0.961 . S
H1385 C1371 0.958 . S
H1386 C1371 0.961 . S
H1387 C1371 0.960 . S
C1388 C1389 1.391 . S
C1388 C1390 1.394 . S
C1388 H1404 0.931 . S
C1389 C1388 1.391 . S
C1389 C1393 1.376 . S
C1390 C1388 1.394 . S
C1390 C1391 1.369 . S
C1390 C1394 1.531 . S
C1391 C1390 1.369 . S
C1391 C1392 1.410 1_455 S
C1391 C1399 1.503 . S
C1392 C1391 1.410 1_655 S
C1392 C1393 1.392 1_655 S
C1392 C1395 1.514 1_545 S
C1393 C1389 1.376 . S
C1393 C1392 1.392 1_455 S
C1393 H1405 0.929 . S
C1394 C1390 1.531 . S
C1394 H1406 0.960 . S
C1394 H1407 0.962 . S
C1394 H1408 0.960 . S
C1395 C1392 1.514 1_565 S
C1395 H1409 0.957 . S
C1395 H1410 0.959 . S
C1395 H1411 0.964 1_565 S
C1396 C1397 1.370 1_455 S
C1396 C1398 1.363 . S
C1396 H1412 0.931 . S
C1397 C1396 1.370 1_655 S
C1397 C1401 1.408 . S
C1398 C1396 1.363 . S
C1398 C1399 1.370 . S
C1398 C1402 1.524 1_545 S
C1399 C1391 1.503 . S
C1399 C1398 1.370 . S
C1399 C1400 1.403 1_455 S
C1400 C1399 1.403 1_655 S
C1400 C1401 1.404 . S
C1400 C1403 1.539 . S
C1401 C1397 1.408 . S
C1401 C1400 1.404 . S
C1401 H1413 0.930 . S
C1402 C1398 1.524 1_565 S
C1402 H1414 0.956 1_565 S
C1402 H1415 0.961 . S
C1402 H1416 0.961 . S
C1403 C1400 1.539 . S
C1403 H1417 0.958 . S
C1403 H1418 0.961 . S
C1403 H1419 0.960 . S
H1404 C1388 0.931 . S
H1405 C1393 0.929 . S
H1406 C1394 0.960 . S
H1407 C1394 0.962 . S
H1408 C1394 0.960 . S
H1409 C1395 0.957 . S
H1410 C1395 0.959 . S
H1411 C1395 0.964 1_545 S
H1412 C1396 0.931 . S
H1413 C1401 0.930 . S
H1414 C1402 0.956 1_545 S
H1415 C1402 0.961 . S
H1416 C1402 0.961 . S
H1417 C1403 0.958 . S
H1418 C1403 0.961 . S
H1419 C1403 0.960 . S
C1420 C1421 1.391 . S
C1420 C1422 1.394 . S
C1420 H1436 0.931 . S
C1421 C1420 1.391 . S
C1421 C1425 1.376 . S
C1422 C1420 1.394 . S
C1422 C1423 1.369 . S
C1422 C1426 1.531 . S
C1423 C1422 1.369 . S
C1423 C1424 1.410 . S
C1423 C1431 1.503 . S
C1424 C1423 1.410 . S
C1424 C1425 1.392 . S
C1424 C1427 1.511 . S
C1425 C1421 1.376 . S
C1425 C1424 1.392 . S
C1425 H1437 0.929 . S
C1426 C1422 1.531 . S
C1426 H1438 0.960 . S
C1426 H1439 0.962 . S
C1426 H1440 0.960 . S
C1427 C1424 1.511 . S
C1427 H1441 0.961 . S
C1427 H1442 0.961 . S
C1427 H1443 0.961 . S
C1428 C1429 1.370 . S
C1428 C1430 1.363 . S
C1428 H1444 0.931 . S
C1429 C1428 1.370 . S
C1429 C1433 1.408 . S
C1430 C1428 1.363 . S
C1430 C1431 1.370 . S
C1430 C1434 1.524 . S
C1431 C1423 1.503 . S
C1431 C1430 1.370 . S
C1431 C1432 1.403 . S
C1432 C1431 1.403 . S
C1432 C1433 1.404 . S
C1432 C1435 1.539 . S
C1433 C1429 1.408 . S
C1433 C1432 1.404 . S
C1433 H1445 0.930 . S
C1434 C1430 1.524 . S
C1434 H1446 0.956 . S
C1434 H1447 0.961 . S
C1434 H1448 0.961 . S
C1435 C1432 1.539 . S
C1435 H1449 0.958 . S
C1435 H1450 0.961 . S
C1435 H1451 0.960 . S
H1436 C1420 0.931 . S
H1437 C1425 0.929 . S
H1438 C1426 0.960 . S
H1439 C1426 0.962 . S
H1440 C1426 0.960 . S
H1441 C1427 0.961 . S
H1442 C1427 0.961 . S
H1443 C1427 0.961 . S
H1444 C1428 0.931 . S
H1445 C1433 0.930 . S
H1446 C1434 0.956 . S
H1447 C1434 0.961 . S
H1448 C1434 0.961 . S
H1449 C1435 0.958 . S
H1450 C1435 0.961 . S
H1451 C1435 0.960 . S
C1452 C1453 1.391 . S
C1452 C1454 1.394 . S
C1452 H1468 0.931 . S
C1453 C1452 1.391 . S
C1453 C1457 1.376 . S
C1454 C1452 1.394 . S
C1454 C1455 1.369 . S
C1454 C1458 1.531 . S
C1455 C1454 1.369 . S
C1455 C1456 1.410 . S
C1455 C1463 1.503 . S
C1456 C1455 1.410 . S
C1456 C1457 1.392 . S
C1456 C1459 1.511 . S
C1457 C1453 1.376 . S
C1457 C1456 1.392 . S
C1457 H1469 0.929 . S
C1458 C1454 1.531 . S
C1458 H1470 0.960 . S
C1458 H1471 0.962 . S
C1458 H1472 0.960 . S
C1459 C1456 1.511 . S
C1459 H1473 0.961 . S
C1459 H1474 0.961 . S
C1459 H1475 0.961 . S
C1460 C1461 1.370 . S
C1460 C1462 1.363 . S
C1460 H1476 0.931 . S
C1461 C1460 1.370 . S
C1461 C1465 1.408 . S
C1462 C1460 1.363 . S
C1462 C1463 1.370 . S
C1462 C1466 1.524 . S
C1463 C1455 1.503 . S
C1463 C1462 1.370 . S
C1463 C1464 1.403 . S
C1464 C1463 1.403 . S
C1464 C1465 1.404 . S
C1464 C1467 1.539 . S
C1465 C1461 1.408 . S
C1465 C1464 1.404 . S
C1465 H1477 0.930 . S
C1466 C1462 1.524 . S
C1466 H1478 0.956 . S
C1466 H1479 0.961 . S
C1466 H1480 0.961 . S
C1467 C1464 1.539 . S
C1467 H1481 0.958 . S
C1467 H1482 0.961 . S
C1467 H1483 0.960 . S
H1468 C1452 0.931 . S
H1469 C1457 0.929 . S
H1470 C1458 0.960 . S
H1471 C1458 0.962 . S
H1472 C1458 0.960 . S
H1473 C1459 0.961 . S
H1474 C1459 0.961 . S
H1475 C1459 0.961 . S
H1476 C1460 0.931 . S
H1477 C1465 0.930 . S
H1478 C1466 0.956 . S
H1479 C1466 0.961 . S
H1480 C1466 0.961 . S
H1481 C1467 0.958 . S
H1482 C1467 0.961 . S
H1483 C1467 0.960 . S
C1484 C1485 1.391 . S
C1484 C1486 1.394 . S
C1484 H1500 0.931 . S
C1485 C1484 1.391 . S
C1485 C1489 1.376 . S
C1486 C1484 1.394 . S
C1486 C1487 1.369 . S
C1486 C1490 1.531 . S
C1487 C1486 1.369 . S
C1487 C1488 1.410 . S
C1487 C1495 1.503 . S
C1488 C1487 1.410 . S
C1488 C1489 1.392 . S
C1488 C1491 1.511 . S
C1489 C1485 1.376 . S
C1489 C1488 1.392 . S
C1489 H1501 0.929 . S
C1490 C1486 1.531 . S
C1490 H1502 0.960 . S
C1490 H1503 0.962 . S
C1490 H1504 0.960 . S
C1491 C1488 1.511 . S
C1491 H1505 0.961 . S
C1491 H1506 0.961 . S
C1491 H1507 0.961 . S
C1492 C1493 1.370 . S
C1492 C1494 1.363 . S
C1492 H1508 0.931 . S
C1493 C1492 1.370 . S
C1493 C1497 1.408 . S
C1494 C1492 1.363 . S
C1494 C1495 1.370 . S
C1494 C1498 1.524 . S
C1495 C1487 1.503 . S
C1495 C1494 1.370 . S
C1495 C1496 1.403 . S
C1496 C1495 1.403 . S
C1496 C1497 1.404 . S
C1496 C1499 1.539 . S
C1497 C1493 1.408 . S
C1497 C1496 1.404 . S
C1497 H1509 0.930 . S
C1498 C1494 1.524 . S
C1498 H1510 0.956 . S
C1498 H1511 0.961 . S
C1498 H1512 0.961 . S
C1499 C1496 1.539 . S
C1499 H1513 0.958 . S
C1499 H1514 0.961 . S
C1499 H1515 0.960 . S
H1500 C1484 0.931 . S
H1501 C1489 0.929 . S
H1502 C1490 0.960 . S
H1503 C1490 0.962 . S
H1504 C1490 0.960 . S
H1505 C1491 0.961 . S
H1506 C1491 0.961 . S
H1507 C1491 0.961 . S
H1508 C1492 0.931 . S
H1509 C1497 0.930 . S
H1510 C1498 0.956 . S
H1511 C1498 0.961 . S
H1512 C1498 0.961 . S
H1513 C1499 0.958 . S
H1514 C1499 0.961 . S
H1515 C1499 0.960 . S
C1516 C1517 1.391 1_655 S
C1516 C1518 1.394 . S
C1516 H1532 0.931 . S
C1517 C1516 1.391 1_455 S
C1517 C1521 1.376 . S
C1518 C1516 1.394 . S
C1518 C1519 1.369 1_655 S
C1518 C1522 1.531 . S
C1519 C1518 1.369 1_455 S
C1519 C1520 1.410 . S
C1519 C1527 1.503 . S
C1520 C1519 1.410 . S
C1520 C1521 1.392 . S
C1520 C1523 1.511 . S
C1521 C1517 1.376 . S
C1521 C1520 1.392 . S
C1521 H1533 0.929 . S
C1522 C1518 1.531 . S
C1522 H1534 0.960 . S
C1522 H1535 0.962 . S
C1522 H1536 0.960 . S
C1523 C1520 1.511 . S
C1523 H1537 0.961 . S
C1523 H1538 0.961 . S
C1523 H1539 0.961 . S
C1524 C1525 1.370 1_655 S
C1524 C1526 1.363 . S
C1524 H1540 0.931 . S
C1525 C1524 1.370 1_455 S
C1525 C1529 1.408 . S
C1526 C1524 1.363 . S
C1526 C1527 1.370 1_655 S
C1526 C1530 1.524 . S
C1527 C1519 1.503 . S
C1527 C1526 1.370 1_455 S
C1527 C1528 1.403 . S
C1528 C1527 1.403 . S
C1528 C1529 1.404 . S
C1528 C1531 1.539 . S
C1529 C1525 1.408 . S
C1529 C1528 1.404 . S
C1529 H1541 0.930 . S
C1530 C1526 1.524 . S
C1530 H1542 0.956 . S
C1530 H1543 0.933 1_655 S
C1530 H1544 0.961 . S
C1531 C1528 1.539 . S
C1531 H1545 0.958 . S
C1531 H1546 0.961 . S
C1531 H1547 0.960 . S
H1532 C1516 0.931 . S
H1533 C1521 0.929 . S
H1534 C1522 0.960 . S
H1535 C1522 0.962 . S
H1536 C1522 0.960 . S
H1537 C1523 0.961 . S
H1538 C1523 0.961 . S
H1539 C1523 0.961 . S
H1540 C1524 0.931 . S
H1541 C1529 0.930 . S
H1542 C1530 0.956 . S
H1543 C1530 0.933 1_455 S
H1544 C1530 0.961 . S
H1545 C1531 0.958 . S
H1546 C1531 0.961 . S
H1547 C1531 0.960 . S
C1548 C1549 1.391 . S
C1548 C1550 1.394 . S
C1548 H1564 0.931 . S
C1549 C1548 1.391 . S
C1549 C1553 1.376 . S
C1550 C1548 1.394 . S
C1550 C1551 1.369 . S
C1550 C1554 1.531 . S
C1551 C1550 1.369 . S
C1551 C1552 1.410 . S
C1551 C1559 1.503 . S
C1552 C1551 1.410 . S
C1552 C1553 1.392 . S
C1552 C1555 1.511 . S
C1553 C1549 1.376 . S
C1553 C1552 1.392 . S
C1553 H1565 0.929 . S
C1554 C1550 1.531 . S
C1554 H1566 0.960 . S
C1554 H1567 0.962 . S
C1554 H1568 0.960 . S
C1555 C1552 1.511 . S
C1555 H1569 0.961 . S
C1555 H1570 0.961 . S
C1555 H1571 0.961 . S
C1556 C1557 1.370 . S
C1556 C1558 1.363 . S
C1556 H1572 0.931 . S
C1557 C1556 1.370 . S
C1557 C1561 1.408 . S
C1558 C1556 1.363 . S
C1558 C1559 1.370 . S
C1558 C1562 1.524 . S
C1559 C1551 1.503 . S
C1559 C1558 1.370 . S
C1559 C1560 1.403 . S
C1560 C1559 1.403 . S
C1560 C1561 1.404 . S
C1560 C1563 1.539 . S
C1561 C1557 1.408 . S
C1561 C1560 1.404 . S
C1561 H1573 0.930 . S
C1562 C1558 1.524 . S
C1562 H1574 0.956 . S
C1562 H1575 0.961 . S
C1562 H1576 0.961 . S
C1563 C1560 1.539 . S
C1563 H1577 0.958 . S
C1563 H1578 0.961 . S
C1563 H1579 0.960 . S
H1564 C1548 0.931 . S
H1565 C1553 0.929 . S
H1566 C1554 0.960 . S
H1567 C1554 0.962 . S
H1568 C1554 0.960 . S
H1569 C1555 0.961 . S
H1570 C1555 0.961 . S
H1571 C1555 0.961 . S
H1572 C1556 0.931 . S
H1573 C1561 0.930 . S
H1574 C1562 0.956 . S
H1575 C1562 0.961 . S
H1576 C1562 0.961 . S
H1577 C1563 0.958 . S
H1578 C1563 0.961 . S
H1579 C1563 0.960 . S
C1580 C1581 1.391 . S
C1580 C1582 1.394 . S
C1580 H1596 0.931 . S
C1581 C1580 1.391 . S
C1581 C1585 1.376 . S
C1582 C1580 1.394 . S
C1582 C1583 1.369 . S
C1582 C1586 1.531 1_455 S
C1583 C1582 1.369 . S
C1583 C1584 1.410 . S
C1583 C1591 1.503 . S
C1584 C1583 1.410 . S
C1584 C1585 1.392 . S
C1584 C1587 1.511 . S
C1585 C1581 1.376 . S
C1585 C1584 1.392 . S
C1585 H1597 0.929 . S
C1586 C1582 1.531 1_655 S
C1586 H1598 0.960 . S
C1586 H1599 0.962 . S
C1586 H1600 0.960 . S
C1587 C1584 1.511 . S
C1587 H1601 0.961 . S
C1587 H1602 0.961 . S
C1587 H1603 0.961 . S
C1588 C1589 1.370 . S
C1588 C1590 1.363 . S
C1588 H1604 0.931 . S
C1589 C1588 1.370 . S
C1589 C1593 1.408 . S
C1590 C1588 1.363 . S
C1590 C1591 1.370 . S
C1590 C1594 1.524 . S
C1591 C1583 1.503 . S
C1591 C1590 1.370 . S
C1591 C1592 1.403 . S
C1592 C1591 1.403 . S
C1592 C1593 1.404 . S
C1592 C1595 1.539 . S
C1593 C1589 1.408 . S
C1593 C1592 1.404 . S
C1593 H1605 0.930 . S
C1594 C1590 1.524 . S
C1594 H1606 0.956 1_455 S
C1594 H1607 0.961 . S
C1594 H1608 0.961 . S
C1595 C1592 1.539 . S
C1595 H1609 0.958 . S
C1595 H1610 0.961 . S
C1595 H1611 0.960 . S
H1596 C1580 0.931 . S
H1597 C1585 0.929 . S
H1598 C1586 0.960 . S
H1599 C1586 0.962 . S
H1600 C1586 0.960 . S
H1601 C1587 0.961 . S
H1602 C1587 0.961 . S
H1603 C1587 0.961 . S
H1604 C1588 0.931 . S
H1605 C1593 0.930 . S
H1606 C1594 0.956 1_655 S
H1607 C1594 0.961 . S
H1608 C1594 0.961 . S
H1609 C1595 0.958 . S
H1610 C1595 0.961 . S
H1611 C1595 0.960 . S
C1612 C1613 1.391 . S
C1612 C1614 1.394 . S
C1612 H1628 0.931 . S
C1613 C1612 1.391 . S
C1613 C1617 1.376 . S
C1614 C1612 1.394 . S
C1614 C1615 1.369 . S
C1614 C1618 1.531 . S
C1615 C1614 1.369 . S
C1615 C1616 1.410 . S
C1615 C1623 1.503 . S
C1616 C1615 1.410 . S
C1616 C1617 1.392 . S
C1616 C1619 1.511 . S
C1617 C1613 1.376 . S
C1617 C1616 1.392 . S
C1617 H1629 0.929 . S
C1618 C1614 1.531 . S
C1618 H1630 0.960 . S
C1618 H1631 0.962 . S
C1618 H1632 0.960 . S
C1619 C1616 1.511 . S
C1619 H1633 0.961 . S
C1619 H1634 0.961 . S
C1619 H1635 0.961 . S
C1620 C1621 1.370 . S
C1620 C1622 1.363 . S
C1620 H1636 0.931 . S
C1621 C1620 1.370 . S
C1621 C1625 1.408 . S
C1622 C1620 1.363 . S
C1622 C1623 1.370 . S
C1622 C1626 1.524 . S
C1623 C1615 1.503 . S
C1623 C1622 1.370 . S
C1623 C1624 1.403 . S
C1624 C1623 1.403 . S
C1624 C1625 1.404 . S
C1624 C1627 1.539 . S
C1625 C1621 1.408 . S
C1625 C1624 1.404 . S
C1625 H1637 0.930 . S
C1626 C1622 1.524 . S
C1626 H1638 0.956 . S
C1626 H1639 0.961 . S
C1626 H1640 0.961 . S
C1627 C1624 1.539 . S
C1627 H1641 0.958 . S
C1627 H1642 0.961 . S
C1627 H1643 0.960 . S
H1628 C1612 0.931 . S
H1629 C1617 0.929 . S
H1630 C1618 0.960 . S
H1631 C1618 0.962 . S
H1632 C1618 0.960 . S
H1633 C1619 0.961 . S
H1634 C1619 0.961 . S
H1635 C1619 0.961 . S
H1636 C1620 0.931 . S
H1637 C1625 0.930 . S
H1638 C1626 0.956 . S
H1639 C1626 0.961 . S
H1640 C1626 0.961 . S
H1641 C1627 0.958 . S
H1642 C1627 0.961 . S
H1643 C1627 0.960 . S
C1644 C1645 1.391 . S
C1644 C1646 1.394 . S
C1644 H1660 0.931 . S
C1645 C1644 1.391 . S
C1645 C1649 1.376 . S
C1646 C1644 1.394 . S
C1646 C1647 1.369 . S
C1646 C1650 1.531 . S
C1647 C1646 1.369 . S
C1647 C1648 1.410 . S
C1647 C1655 1.503 . S
C1648 C1647 1.410 . S
C1648 C1649 1.392 . S
C1648 C1651 1.511 . S
C1649 C1645 1.376 . S
C1649 C1648 1.392 . S
C1649 H1661 0.929 . S
C1650 C1646 1.531 . S
C1650 H1662 0.960 . S
C1650 H1663 0.962 . S
C1650 H1664 0.960 . S
C1651 C1648 1.511 . S
C1651 H1665 0.961 . S
C1651 H1666 0.961 . S
C1651 H1667 0.961 . S
C1652 C1653 1.370 . S
C1652 C1654 1.363 . S
C1652 H1668 0.931 . S
C1653 C1652 1.370 . S
C1653 C1657 1.408 . S
C1654 C1652 1.363 . S
C1654 C1655 1.370 . S
C1654 C1658 1.524 . S
C1655 C1647 1.503 . S
C1655 C1654 1.370 . S
C1655 C1656 1.403 . S
C1656 C1655 1.403 . S
C1656 C1657 1.404 . S
C1656 C1659 1.539 . S
C1657 C1653 1.408 . S
C1657 C1656 1.404 . S
C1657 H1669 0.930 . S
C1658 C1654 1.524 . S
C1658 H1670 0.956 . S
C1658 H1671 0.961 . S
C1658 H1672 0.961 . S
C1659 C1656 1.539 . S
C1659 H1673 0.958 . S
C1659 H1674 0.961 . S
C1659 H1675 0.960 . S
H1660 C1644 0.931 . S
H1661 C1649 0.929 . S
H1662 C1650 0.960 . S
H1663 C1650 0.962 . S
H1664 C1650 0.960 . S
H1665 C1651 0.961 . S
H1666 C1651 0.961 . S
H1667 C1651 0.961 . S
H1668 C1652 0.931 . S
H1669 C1657 0.930 . S
H1670 C1658 0.956 . S
H1671 C1658 0.961 . S
H1672 C1658 0.961 . S
H1673 C1659 0.958 . S
H1674 C1659 0.961 . S
H1675 C1659 0.960 . S
C1676 C1677 1.391 . S
C1676 C1678 1.394 . S
C1676 H1692 0.931 . S
C1677 C1676 1.391 . S
C1677 C1681 1.376 . S
C1678 C1676 1.394 . S
C1678 C1679 1.369 . S
C1678 C1682 1.531 . S
C1679 C1678 1.369 . S
C1679 C1680 1.410 . S
C1679 C1687 1.503 . S
C1680 C1679 1.410 . S
C1680 C1681 1.392 . S
C1680 C1683 1.511 . S
C1681 C1677 1.376 . S
C1681 C1680 1.392 . S
C1681 H1693 0.929 . S
C1682 C1678 1.531 . S
C1682 H1694 0.960 . S
C1682 H1695 0.962 . S
C1682 H1696 0.960 . S
C1683 C1680 1.511 . S
C1683 H1697 0.961 . S
C1683 H1698 0.961 . S
C1683 H1699 0.961 . S
C1684 C1685 1.370 . S
C1684 C1686 1.363 . S
C1684 H1700 0.931 . S
C1685 C1684 1.370 . S
C1685 C1689 1.408 . S
C1686 C1684 1.363 . S
C1686 C1687 1.370 . S
C1686 C1690 1.524 . S
C1687 C1679 1.503 . S
C1687 C1686 1.370 . S
C1687 C1688 1.403 . S
C1688 C1687 1.403 . S
C1688 C1689 1.404 . S
C1688 C1691 1.539 . S
C1689 C1685 1.408 . S
C1689 C1688 1.404 . S
C1689 H1701 0.930 . S
C1690 C1686 1.524 . S
C1690 H1702 0.956 . S
C1690 H1703 0.961 . S
C1690 H1704 0.961 . S
C1691 C1688 1.539 . S
C1691 H1705 0.958 . S
C1691 H1706 0.961 . S
C1691 H1707 0.960 . S
H1692 C1676 0.931 . S
H1693 C1681 0.929 . S
H1694 C1682 0.960 . S
H1695 C1682 0.962 . S
H1696 C1682 0.960 . S
H1697 C1683 0.961 . S
H1698 C1683 0.961 . S
H1699 C1683 0.961 . S
H1700 C1684 0.931 . S
H1701 C1689 0.930 . S
H1702 C1690 0.956 . S
H1703 C1690 0.961 . S
H1704 C1690 0.961 . S
H1705 C1691 0.958 . S
H1706 C1691 0.961 . S
H1707 C1691 0.960 . S
C1708 C1709 1.391 1_554 S
C1708 C1710 1.394 . S
C1708 H1724 0.931 1_554 S
C1709 C1708 1.391 1_556 S
C1709 C1713 1.376 1_556 S
C1710 C1708 1.394 . S
C1710 C1711 1.369 . S
C1710 C1714 1.531 . S
C1711 C1710 1.369 . S
C1711 C1712 1.410 . S
C1711 C1719 1.503 . S
C1712 C1711 1.410 . S
C1712 C1713 1.392 . S
C1712 C1715 1.511 . S
C1713 C1709 1.376 1_554 S
C1713 C1712 1.392 . S
C1713 H1725 0.929 . S
C1714 C1710 1.531 . S
C1714 H1726 0.960 . S
C1714 H1727 0.962 . S
C1714 H1728 0.960 . S
C1715 C1712 1.511 . S
C1715 H1729 0.961 . S
C1715 H1730 0.961 . S
C1715 H1731 0.961 . S
C1716 C1717 1.370 . S
C1716 C1718 1.363 . S
C1716 H1732 0.931 . S
C1717 C1716 1.370 . S
C1717 C1721 1.408 . S
C1718 C1716 1.363 . S
C1718 C1719 1.370 . S
C1718 C1722 1.524 . S
C1719 C1711 1.503 . S
C1719 C1718 1.370 . S
C1719 C1720 1.403 . S
C1720 C1719 1.403 . S
C1720 C1721 1.404 . S
C1720 C1723 1.539 . S
C1721 C1717 1.408 . S
C1721 C1720 1.404 . S
C1721 H1733 0.930 . S
C1722 C1718 1.524 . S
C1722 H1734 0.956 . S
C1722 H1735 0.961 . S
C1722 H1736 0.961 . S
C1723 C1720 1.539 . S
C1723 H1737 0.958 . S
C1723 H1738 0.961 . S
C1723 H1739 0.960 . S
H1724 C1708 0.931 1_556 S
H1725 C1713 0.929 . S
H1726 C1714 0.960 . S
H1727 C1714 0.962 . S
H1728 C1714 0.960 . S
H1729 C1715 0.961 . S
H1730 C1715 0.961 . S
H1731 C1715 0.961 . S
H1732 C1716 0.931 . S
H1733 C1721 0.930 . S
H1734 C1722 0.956 . S
H1735 C1722 0.961 . S
H1736 C1722 0.961 . S
H1737 C1723 0.958 . S
H1738 C1723 0.961 . S
H1739 C1723 0.960 . S
C1740 C1741 1.391 . S
C1740 C1742 1.394 . S
C1740 H1756 0.931 . S
C1741 C1740 1.391 . S
C1741 C1745 1.376 . S
C1742 C1740 1.394 . S
C1742 C1743 1.369 . S
C1742 C1746 1.531 . S
C1743 C1742 1.369 . S
C1743 C1744 1.410 . S
C1743 C1751 1.503 . S
C1744 C1743 1.410 . S
C1744 C1745 1.392 . S
C1744 C1747 1.511 . S
C1745 C1741 1.376 . S
C1745 C1744 1.392 . S
C1745 H1757 0.929 . S
C1746 C1742 1.531 . S
C1746 H1758 0.960 . S
C1746 H1759 0.962 . S
C1746 H1760 0.960 . S
C1747 C1744 1.511 . S
C1747 H1761 0.961 . S
C1747 H1762 0.961 . S
C1747 H1763 0.961 . S
C1748 C1749 1.370 . S
C1748 C1750 1.363 . S
C1748 H1764 0.931 . S
C1749 C1748 1.370 . S
C1749 C1753 1.408 . S
C1750 C1748 1.363 . S
C1750 C1751 1.370 . S
C1750 C1754 1.524 . S
C1751 C1743 1.503 . S
C1751 C1750 1.370 . S
C1751 C1752 1.403 . S
C1752 C1751 1.403 . S
C1752 C1753 1.404 . S
C1752 C1755 1.539 . S
C1753 C1749 1.408 . S
C1753 C1752 1.404 . S
C1753 H1765 0.930 . S
C1754 C1750 1.524 . S
C1754 H1766 0.956 . S
C1754 H1767 0.961 . S
C1754 H1768 0.961 . S
C1755 C1752 1.539 . S
C1755 H1769 0.958 . S
C1755 H1770 0.961 . S
C1755 H1771 0.960 . S
H1756 C1740 0.931 . S
H1757 C1745 0.929 . S
H1758 C1746 0.960 . S
H1759 C1746 0.962 . S
H1760 C1746 0.960 . S
H1761 C1747 0.961 . S
H1762 C1747 0.961 . S
H1763 C1747 0.961 . S
H1764 C1748 0.931 . S
H1765 C1753 0.930 . S
H1766 C1754 0.956 . S
H1767 C1754 0.961 . S
H1768 C1754 0.961 . S
H1769 C1755 0.958 . S
H1770 C1755 0.961 . S
H1771 C1755 0.960 . S
C1772 C1773 1.391 . S
C1772 C1774 1.394 . S
C1772 H1788 0.931 . S
C1773 C1772 1.391 . S
C1773 C1777 1.376 . S
C1774 C1772 1.394 . S
C1774 C1775 1.369 . S
C1774 C1778 1.531 . S
C1775 C1774 1.369 . S
C1775 C1776 1.410 . S
C1775 C1783 1.503 . S
C1776 C1775 1.410 . S
C1776 C1777 1.392 . S
C1776 C1779 1.511 . S
C1777 C1773 1.376 . S
C1777 C1776 1.392 . S
C1777 H1789 0.929 . S
C1778 C1774 1.531 . S
C1778 H1790 0.960 . S
C1778 H1791 0.962 . S
C1778 H1792 0.960 . S
C1779 C1776 1.511 . S
C1779 H1793 0.961 . S
C1779 H1794 0.961 . S
C1779 H1795 0.961 . S
C1780 C1781 1.370 . S
C1780 C1782 1.363 . S
C1780 H1796 0.931 . S
C1781 C1780 1.370 . S
C1781 C1785 1.408 . S
C1782 C1780 1.363 . S
C1782 C1783 1.370 . S
C1782 C1786 1.524 . S
C1783 C1775 1.503 . S
C1783 C1782 1.370 . S
C1783 C1784 1.403 . S
C1784 C1783 1.403 . S
C1784 C1785 1.404 . S
C1784 C1787 1.539 . S
C1785 C1781 1.408 . S
C1785 C1784 1.404 . S
C1785 H1797 0.930 . S
C1786 C1782 1.524 . S
C1786 H1798 0.956 . S
C1786 H1799 0.961 . S
C1786 H1800 0.961 . S
C1787 C1784 1.539 . S
C1787 H1801 0.958 . S
C1787 H1802 0.961 . S
C1787 H1803 0.960 . S
H1788 C1772 0.931 . S
H1789 C1777 0.929 . S
H1790 C1778 0.960 . S
H1791 C1778 0.962 . S
H1792 C1778 0.960 . S
H1793 C1779 0.961 . S
H1794 C1779 0.961 . S
H1795 C1779 0.961 . S
H1796 C1780 0.931 . S
H1797 C1785 0.930 . S
H1798 C1786 0.956 . S
H1799 C1786 0.961 . S
H1800 C1786 0.961 . S
H1801 C1787 0.958 . S
H1802 C1787 0.961 . S
H1803 C1787 0.960 . S
C1804 C1805 1.391 . S
C1804 C1806 1.394 . S
C1804 H1820 0.931 . S
C1805 C1804 1.391 . S
C1805 C1809 1.376 . S
C1806 C1804 1.394 . S
C1806 C1807 1.369 . S
C1806 C1810 1.531 . S
C1807 C1806 1.369 . S
C1807 C1808 1.410 . S
C1807 C1815 1.503 . S
C1808 C1807 1.410 . S
C1808 C1809 1.392 . S
C1808 C1811 1.511 . S
C1809 C1805 1.376 . S
C1809 C1808 1.392 . S
C1809 H1821 0.929 . S
C1810 C1806 1.531 . S
C1810 H1822 0.960 . S
C1810 H1823 0.962 . S
C1810 H1824 0.960 . S
C1811 C1808 1.511 . S
C1811 H1825 0.961 . S
C1811 H1826 0.961 . S
C1811 H1827 0.961 . S
C1812 C1813 1.370 . S
C1812 C1814 1.363 . S
C1812 H1828 0.931 . S
C1813 C1812 1.370 . S
C1813 C1817 1.408 . S
C1814 C1812 1.363 . S
C1814 C1815 1.370 . S
C1814 C1818 1.524 . S
C1815 C1807 1.503 . S
C1815 C1814 1.370 . S
C1815 C1816 1.403 . S
C1816 C1815 1.403 . S
C1816 C1817 1.404 . S
C1816 C1819 1.539 . S
C1817 C1813 1.408 . S
C1817 C1816 1.404 . S
C1817 H1829 0.930 . S
C1818 C1814 1.524 . S
C1818 H1830 0.956 . S
C1818 H1831 0.961 . S
C1818 H1832 0.961 . S
C1819 C1816 1.539 . S
C1819 H1833 0.958 . S
C1819 H1834 0.961 . S
C1819 H1835 0.960 . S
H1820 C1804 0.931 . S
H1821 C1809 0.929 . S
H1822 C1810 0.960 . S
H1823 C1810 0.962 . S
H1824 C1810 0.960 . S
H1825 C1811 0.961 . S
H1826 C1811 0.961 . S
H1827 C1811 0.961 . S
H1828 C1812 0.931 . S
H1829 C1817 0.930 . S
H1830 C1818 0.956 . S
H1831 C1818 0.961 . S
H1832 C1818 0.961 . S
H1833 C1819 0.958 . S
H1834 C1819 0.961 . S
H1835 C1819 0.960 . S
C1836 C1837 1.391 . S
C1836 C1838 1.394 . S
C1836 H1852 0.931 . S
C1837 C1836 1.391 . S
C1837 C1841 1.376 . S
C1838 C1836 1.394 . S
C1838 C1839 1.369 . S
C1838 C1842 1.531 . S
C1839 C1838 1.369 . S
C1839 C1840 1.410 . S
C1839 C1847 1.503 . S
C1840 C1839 1.410 . S
C1840 C1841 1.392 . S
C1840 C1843 1.511 . S
C1841 C1837 1.376 . S
C1841 C1840 1.392 . S
C1841 H1853 0.929 . S
C1842 C1838 1.531 . S
C1842 H1854 0.960 . S
C1842 H1855 0.962 . S
C1842 H1856 0.960 . S
C1843 C1840 1.511 . S
C1843 H1857 0.961 . S
C1843 H1858 0.961 . S
C1843 H1859 0.961 . S
C1844 C1845 1.370 . S
C1844 C1846 1.363 . S
C1844 H1860 0.931 . S
C1845 C1844 1.370 . S
C1845 C1849 1.408 . S
C1846 C1844 1.363 . S
C1846 C1847 1.370 . S
C1846 C1850 1.524 . S
C1847 C1839 1.503 . S
C1847 C1846 1.370 . S
C1847 C1848 1.403 . S
C1848 C1847 1.403 . S
C1848 C1849 1.404 . S
C1848 C1851 1.539 . S
C1849 C1845 1.408 . S
C1849 C1848 1.404 . S
C1849 H1861 0.930 . S
C1850 C1846 1.524 . S
C1850 H1862 0.956 . S
C1850 H1863 0.961 . S
C1850 H1864 0.961 . S
C1851 C1848 1.539 . S
C1851 H1865 0.958 . S
C1851 H1866 0.961 . S
C1851 H1867 0.960 . S
H1852 C1836 0.931 . S
H1853 C1841 0.929 . S
H1854 C1842 0.960 . S
H1855 C1842 0.962 . S
H1856 C1842 0.960 . S
H1857 C1843 0.961 . S
H1858 C1843 0.961 . S
H1859 C1843 0.961 . S
H1860 C1844 0.931 . S
H1861 C1849 0.930 . S
H1862 C1850 0.956 . S
H1863 C1850 0.961 . S
H1864 C1850 0.961 . S
H1865 C1851 0.958 . S
H1866 C1851 0.961 . S
H1867 C1851 0.960 . S
C1868 C1869 1.391 . S
C1868 C1870 1.394 . S
C1868 H1884 0.931 1_556 S
C1869 C1868 1.391 . S
C1869 C1873 1.376 . S
C1870 C1868 1.394 . S
C1870 C1871 1.369 . S
C1870 C1874 1.531 1_556 S
C1871 C1870 1.369 . S
C1871 C1872 1.410 . S
C1871 C1879 1.503 . S
C1872 C1871 1.410 . S
C1872 C1873 1.392 . S
C1872 C1875 1.511 . S
C1873 C1869 1.376 . S
C1873 C1872 1.392 . S
C1873 H1885 0.929 . S
C1874 C1870 1.531 1_554 S
C1874 H1886 0.960 . S
C1874 H1887 0.962 . S
C1874 H1888 0.960 . S
C1875 C1872 1.511 . S
C1875 H1889 0.961 . S
C1875 H1890 0.961 . S
C1875 H1891 0.961 . S
C1876 C1877 1.370 1_554 S
C1876 C1878 1.363 . S
C1876 H1892 0.931 . S
C1877 C1876 1.370 1_556 S
C1877 C1881 1.408 . S
C1878 C1876 1.363 . S
C1878 C1879 1.370 1_554 S
C1878 C1882 1.524 . S
C1879 C1871 1.503 . S
C1879 C1878 1.370 1_556 S
C1879 C1880 1.403 . S
C1880 C1879 1.403 . S
C1880 C1881 1.404 . S
C1880 C1883 1.539 . S
C1881 C1877 1.408 . S
C1881 C1880 1.404 . S
C1881 H1893 0.930 . S
C1882 C1878 1.524 . S
C1882 H1894 0.956 . S
C1882 H1895 0.961 . S
C1882 H1896 0.961 . S
C1883 C1880 1.539 . S
C1883 H1897 0.958 . S
C1883 H1898 0.961 . S
C1883 H1899 0.960 . S
H1884 C1868 0.931 1_554 S
H1885 C1873 0.929 . S
H1886 C1874 0.960 . S
H1887 C1874 0.962 . S
H1888 C1874 0.960 . S
H1889 C1875 0.961 . S
H1890 C1875 0.961 . S
H1891 C1875 0.961 . S
H1892 C1876 0.931 . S
H1893 C1881 0.930 . S
H1894 C1882 0.956 . S
H1895 C1882 0.961 . S
H1896 C1882 0.961 . S
H1897 C1883 0.958 . S
H1898 C1883 0.961 . S
H1899 C1883 0.960 . S
C1900 C1901 1.391 . S
C1900 C1902 1.394 . S
C1900 H1916 0.931 . S
C1901 C1900 1.391 . S
C1901 C1905 1.376 . S
C1902 C1900 1.394 . S
C1902 C1903 1.369 . S
C1902 C1906 1.531 . S
C1903 C1902 1.369 . S
C1903 C1904 1.410 . S
C1903 C1911 1.503 . S
C1904 C1903 1.410 . S
C1904 C1905 1.392 . S
C1904 C1907 1.511 . S
C1905 C1901 1.376 . S
C1905 C1904 1.392 . S
C1905 H1917 0.929 . S
C1906 C1902 1.531 . S
C1906 H1918 0.960 . S
C1906 H1919 0.962 . S
C1906 H1920 0.960 . S
C1907 C1904 1.511 . S
C1907 H1921 0.961 . S
C1907 H1922 0.961 . S
C1907 H1923 0.961 . S
C1908 C1909 1.370 . S
C1908 C1910 1.363 . S
C1908 H1924 0.931 . S
C1909 C1908 1.370 . S
C1909 C1913 1.408 . S
C1910 C1908 1.363 . S
C1910 C1911 1.370 . S
C1910 C1914 1.524 . S
C1911 C1903 1.503 . S
C1911 C1910 1.370 . S
C1911 C1912 1.403 . S
C1912 C1911 1.403 . S
C1912 C1913 1.404 . S
C1912 C1915 1.539 . S
C1913 C1909 1.408 . S
C1913 C1912 1.404 . S
C1913 H1925 0.930 . S
C1914 C1910 1.524 . S
C1914 H1926 0.956 . S
C1914 H1927 0.961 . S
C1914 H1928 0.961 . S
C1915 C1912 1.539 . S
C1915 H1929 0.958 . S
C1915 H1930 0.961 . S
C1915 H1931 0.960 . S
H1916 C1900 0.931 . S
H1917 C1905 0.929 . S
H1918 C1906 0.960 . S
H1919 C1906 0.962 . S
H1920 C1906 0.960 . S
H1921 C1907 0.961 . S
H1922 C1907 0.961 . S
H1923 C1907 0.961 . S
H1924 C1908 0.931 . S
H1925 C1913 0.930 . S
H1926 C1914 0.956 . S
H1927 C1914 0.961 . S
H1928 C1914 0.961 . S
H1929 C1915 0.958 . S
H1930 C1915 0.961 . S
H1931 C1915 0.960 . S
C1932 C1933 1.391 . S
C1932 C1934 1.394 . S
C1932 H1948 0.931 . S
C1933 C1932 1.391 . S
C1933 C1937 1.376 . S
C1934 C1932 1.394 . S
C1934 C1935 1.369 . S
C1934 C1938 1.531 . S
C1935 C1934 1.369 . S
C1935 C1936 1.410 . S
C1935 C1943 1.503 . S
C1936 C1935 1.410 . S
C1936 C1937 1.392 . S
C1936 C1939 1.511 1_554 S
C1937 C1933 1.376 . S
C1937 C1936 1.392 . S
C1937 H1949 0.929 . S
C1938 C1934 1.531 . S
C1938 H1950 0.960 . S
C1938 H1951 0.962 . S
C1938 H1952 0.960 . S
C1939 C1936 1.511 1_556 S
C1939 H1953 0.961 . S
C1939 H1954 0.961 . S
C1939 H1955 0.961 1_556 S
C1940 C1941 1.370 1_556 S
C1940 C1942 1.363 . S
C1940 H1956 0.931 . S
C1941 C1940 1.370 1_554 S
C1941 C1945 1.408 . S
C1942 C1940 1.363 . S
C1942 C1943 1.370 1_556 S
C1942 C1946 1.524 . S
C1943 C1935 1.503 . S
C1943 C1942 1.370 1_554 S
C1943 C1944 1.403 . S
C1944 C1943 1.403 . S
C1944 C1945 1.404 . S
C1944 C1947 1.539 . S
C1945 C1941 1.408 . S
C1945 C1944 1.404 . S
C1945 H1957 0.930 . S
C1946 C1942 1.524 . S
C1946 H1958 0.956 . S
C1946 H1959 0.961 . S
C1946 H1960 0.961 . S
C1947 C1944 1.539 . S
C1947 H1961 0.958 . S
C1947 H1962 0.961 . S
C1947 H1963 0.960 . S
H1948 C1932 0.931 . S
H1949 C1937 0.929 . S
H1950 C1938 0.960 . S
H1951 C1938 0.962 . S
H1952 C1938 0.960 . S
H1953 C1939 0.961 . S
H1954 C1939 0.961 . S
H1955 C1939 0.961 1_554 S
H1956 C1940 0.931 . S
H1957 C1945 0.930 . S
H1958 C1946 0.956 . S
H1959 C1946 0.961 . S
H1960 C1946 0.961 . S
H1961 C1947 0.958 . S
H1962 C1947 0.961 . S
H1963 C1947 0.960 . S
C1964 C1965 1.383 1_545 S
C1964 C1966 1.381 1_545 S
C1964 H1980 0.931 . S
C1965 C1964 1.383 1_565 S
C1965 C1969 1.400 . S
C1966 C1964 1.381 1_565 S
C1966 C1967 1.387 . S
C1966 C1970 1.524 1_565 S
C1967 C1966 1.387 . S
C1967 C1968 1.410 . S
C1967 C1975 1.503 . S
C1968 C1967 1.410 . S
C1968 C1969 1.392 . S
C1968 C1971 1.511 . S
C1969 C1965 1.400 . S
C1969 C1968 1.392 . S
C1969 H1981 0.929 . S
C1970 C1966 1.524 1_545 S
C1970 H1982 0.960 . S
C1970 H1983 0.962 . S
C1970 H1984 0.960 . S
C1971 C1968 1.511 . S
C1971 H1985 0.961 . S
C1971 H1986 0.961 . S
C1971 H1987 0.961 . S
C1972 C1973 1.370 . S
C1972 C1974 1.363 . S
C1972 H1988 0.931 . S
C1973 C1972 1.370 . S
C1973 C1977 1.408 . S
C1974 C1972 1.363 . S
C1974 C1975 1.370 . S
C1974 C1978 1.524 . S
C1975 C1967 1.503 . S
C1975 C1974 1.370 . S
C1975 C1976 1.403 . S
C1976 C1975 1.403 . S
C1976 C1977 1.404 . S
C1976 C1979 1.539 . S
C1977 C1973 1.408 . S
C1977 C1976 1.404 . S
C1977 H1989 0.930 . S
C1978 C1974 1.524 . S
C1978 H1990 0.956 . S
C1978 H1991 0.961 . S
C1978 H1992 0.961 . S
C1979 C1976 1.539 . S
C1979 H1993 0.958 . S
C1979 H1994 0.961 . S
C1979 H1995 0.960 . S
H1980 C1964 0.931 . S
H1981 C1969 0.929 . S
H1982 C1970 0.960 . S
H1983 C1970 0.962 . S
H1984 C1970 0.960 . S
H1985 C1971 0.961 . S
H1986 C1971 0.961 . S
H1987 C1971 0.961 . S
H1988 C1972 0.931 . S
H1989 C1977 0.930 . S
H1990 C1978 0.956 . S
H1991 C1978 0.961 . S
H1992 C1978 0.961 . S
H1993 C1979 0.958 . S
H1994 C1979 0.961 . S
H1995 C1979 0.960 . S
C469 C314 1.820 1_556 S
C461 C101 1.825 . S
C501 C327 1.180 . S
C493 C125 1.159 . S
C525 C139 1.973 . S
C533 C340 1.928 . S
C565 C353 1.752 . S
C557 C82 1.804 . S
C597 C361 1.522 . S
C589 C196 1.542 . S
C629 C374 1.746 . S
C621 C234 1.775 . S
C653 C220 0.852 . S
C661 C387 0.884 . S
C693 C400 1.668 1_565 S
C685 C173 1.679 . S
C717 C211 1.058 . S
C725 C418 1.070 . S
C757 C429 1.064 . S
C749 C182 1.012 . S
C781 C201 1.289 . S
C789 C413 1.348 . S
C821 C421 1.339 . S
C813 C239 1.286 . S
C845 C135 1.639 . S
C853 C444 1.647 . S
C877 C87 1.799 . S
C885 C434 1.901 . S
C909 C106 1.153 . S
C917 C439 1.321 . S
C941 C116 1.258 . S
C949 C442 1.272 . S
C973 C59 1.838 . S
C981 C351 1.819 . S
C1005 C268 2.152 . S
C1013 C343 2.159 . S
C1045 C312 1.281 . S
C1037 C291 1.289 . S
C1077 C317 1.435 . S
C1069 C163 1.397 . S
C1101 C78 2.050 1_545 S
C1109 C364 2.044 . S
C1141 C403 1.183 . S
C1133 C215 1.200 . S
C1173 C356 1.612 . S
C1165 C177 1.605 1_545 S
C1205 C382 1.722 . S
C1197 C230 1.774 . S
C1237 C392 1.831 . S
C1229 C272 1.814 . S
C1261 C296 1.060 . S
C1269 C405 1.192 . S
C1293 C158 1.973 . S
C1301 C366 1.926 . S
C1333 C379 1.766 . S
C1325 C253 1.807 . S
C1357 C63 1.545 . S
C1365 C335 1.530 . S
C1397 C348 1.759 . S
C1389 C6 1.766 . S
C1429 C309 0.914 . S
C1421 C30 0.797 . S
C1461 C322 1.668 . S
C1453 C40 1.680 . S
C1485 C21 1.042 . S
C1493 C431 1.072 . S
C1517 C49 1.005 . S
C1525 C416 1.065 . S
C1549 C68 1.245 . S
C1557 C426 1.349 . S
C1581 C11 1.199 1_556 S
C1589 C408 1.344 . S
C1621 C457 1.647 . S
C1613 C154 1.640 . S
C1653 C447 1.908 . S
C1645 C258 1.761 . S
C1685 C452 1.318 . S
C1677 C277 1.171 . S
C1709 C287 1.284 . S
C1717 C455 1.289 . S
C1741 C192 1.821 . S
C1749 C377 1.809 . S
C1781 C369 2.159 . S
C1773 C97 2.143 . S
C1813 C390 1.288 . S
C1805 C120 1.294 . S
C1845 C395 1.426 . S
C1837 C144 1.383 . S
C1869 C249 2.058 . S
C1877 C338 2.052 . S
C1909 C325 1.185 . S
C1901 C25 1.201 . S
C1933 C44 1.616 . S
C1941 C330 1.614 1_554 S
C1973 C304 1.736 . S
C1965 C2 1.742 1_565 S
