# Generated by pormake.
# Topology pyr, (3,6)-cn, num edge types: 1
# Building blocks:
#     Node 0, Type 0, BuildingBlock: KAKCAD_clean_linker_0, # of connection points: 3
#     Node 1, Type 0, BuildingBlock: KAKCAD_clean_linker_0, # of connection points: 3
#     Node 2, Type 0, BuildingBlock: KAKCAD_clean_linker_0, # of connection points: 3
#     Node 3, Type 0, BuildingBlock: KAKCAD_clean_linker_0, # of connection points: 3
#     Node 4, Type 0, BuildingBlock: KAKCAD_clean_linker_0, # of connection points: 3
#     Node 5, Type 0, BuildingBlock: KAKCAD_clean_linker_0, # of connection points: 3
#     Node 6, Type 0, BuildingBlock: KAKCAD_clean_linker_0, # of connection points: 3
#     Node 7, Type 0, BuildingBlock: KAKCAD_clean_linker_0, # of connection points: 3
#     Node 8, Type 1, BuildingBlock: LEVNOQ01_clean_sbu_1, # of connection points: 6
#     Node 9, Type 1, BuildingBlock: LEVNOQ01_clean_sbu_1, # of connection points: 6
#     Node 10, Type 1, BuildingBlock: LEVNOQ01_clean_sbu_1, # of connection points: 6
#     Node 11, Type 1, BuildingBlock: LEVNOQ01_clean_sbu_1, # of connection points: 6
#     Edge 12, Type (0, 1), BuildingBlock: TEMPAE_clean_linker_10, # of connection points: 2
#     Edge 13, Type (0, 1), BuildingBlock: TEMPAE_clean_linker_10, # of connection points: 2
#     Edge 14, Type (0, 1), BuildingBlock: TEMPAE_clean_linker_10, # of connection points: 2
#     Edge 15, Type (0, 1), BuildingBlock: TEMPAE_clean_linker_10, # of connection points: 2
#     Edge 16, Type (0, 1), BuildingBlock: TEMPAE_clean_linker_10, # of connection points: 2
#     Edge 17, Type (0, 1), BuildingBlock: TEMPAE_clean_linker_10, # of connection points: 2
#     Edge 18, Type (0, 1), BuildingBlock: TEMPAE_clean_linker_10, # of connection points: 2
#     Edge 19, Type (0, 1), BuildingBlock: TEMPAE_clean_linker_10, # of connection points: 2
#     Edge 20, Type (0, 1), BuildingBlock: TEMPAE_clean_linker_10, # of connection points: 2
#     Edge 21, Type (0, 1), BuildingBlock: TEMPAE_clean_linker_10, # of connection points: 2
#     Edge 22, Type (0, 1), BuildingBlock: TEMPAE_clean_linker_10, # of connection points: 2
#     Edge 23, Type (0, 1), BuildingBlock: TEMPAE_clean_linker_10, # of connection points: 2
#     Edge 24, Type (0, 1), BuildingBlock: TEMPAE_clean_linker_10, # of connection points: 2
#     Edge 25, Type (0, 1), BuildingBlock: TEMPAE_clean_linker_10, # of connection points: 2
#     Edge 26, Type (0, 1), BuildingBlock: TEMPAE_clean_linker_10, # of connection points: 2
#     Edge 27, Type (0, 1), BuildingBlock: TEMPAE_clean_linker_10, # of connection points: 2
#     Edge 28, Type (0, 1), BuildingBlock: TEMPAE_clean_linker_10, # of connection points: 2
#     Edge 29, Type (0, 1), BuildingBlock: TEMPAE_clean_linker_10, # of connection points: 2
#     Edge 30, Type (0, 1), BuildingBlock: TEMPAE_clean_linker_10, # of connection points: 2
#     Edge 31, Type (0, 1), BuildingBlock: TEMPAE_clean_linker_10, # of connection points: 2
#     Edge 32, Type (0, 1), BuildingBlock: TEMPAE_clean_linker_10, # of connection points: 2
#     Edge 33, Type (0, 1), BuildingBlock: TEMPAE_clean_linker_10, # of connection points: 2
#     Edge 34, Type (0, 1), BuildingBlock: TEMPAE_clean_linker_10, # of connection points: 2
#     Edge 35, Type (0, 1), BuildingBlock: TEMPAE_clean_linker_10, # of connection points: 2
# Relax obj value: 0.034
# Max RMSD: 0.110
# Mean RMSD: 0.045
data_MOF--net-pry--node1-LEVNOQ01_clean_sbu_1--node2-KAKCAD_clean_linker_0--edge1-TEMPAE_clean_linker_10
_symmetry_space_group_name_H-M    P1
_symmetry_Int_Tables_number       1
_symmetry_cell_setting            triclinic
loop_
_symmetry_equiv_pos_as_xyz
'x, y, z'
_cell_length_a     46.285103
_cell_length_b     44.542422
_cell_length_c     44.524185
_cell_angle_alpha  92.536448
_cell_angle_beta   91.257889
_cell_angle_gamma 94.338221
loop_
_atom_site_label
_atom_site_type_symbol
_atom_site_fract_x
_atom_site_fract_y
_atom_site_fract_z
_atom_type_partial_charge
C0 C 0.08939 0.11797 0.2268 0.0
C1 C 0.10908 0.1075 0.24767 0.0
C2 C 0.09838 0.12609 0.1982 0.0
C3 C 0.12741 0.12429 0.18984 0.0
C4 C 0.14713 0.1142 0.21104 0.0
C5 C 0.13804 0.10571 0.23944 0.0
C6 C 0.13721 0.13292 0.15929 0.0
C7 C 0.12552 0.1569 0.14478 0.0
C8 C 0.13526 0.16569 0.11648 0.0
C9 C 0.15758 0.15046 0.10292 0.0
C10 C 0.16969 0.12637 0.11694 0.0
C11 C 0.15882 0.1175 0.14477 0.0
C12 C 0.19426 0.11092 0.10322 0.0
C13 C 0.19608 0.10615 0.07184 0.0
C14 C 0.21646 0.10106 0.12166 0.0
C15 C 0.23965 0.08688 0.1092 0.0
C16 C 0.24161 0.08241 0.0779 0.0
C17 C 0.12245 0.19128 0.10161 0.0
C18 C 0.09243 0.19438 0.10222 0.0
C19 C 0.1401 0.21324 0.0874 0.0
C20 C 0.12814 0.238 0.07485 0.0
C21 C 0.09818 0.24146 0.07608 0.0
C22 C 0.08047 0.21906 0.08962 0.0
C23 C 0.21954 0.09222 0.05934 0.0
H24 H 0.06683 0.11922 0.23233 0.0
H25 H 0.08239 0.13325 0.18249 0.0
H26 H 0.16979 0.11313 0.20589 0.0
H27 H 0.15379 0.09803 0.25513 0.0
H28 H 0.10941 0.16948 0.15596 0.0
H29 H 0.16705 0.09821 0.15509 0.0
H30 H 0.16564 0.15756 0.08151 0.0
H31 H 0.17929 0.11297 0.05686 0.0
H32 H 0.21638 0.10489 0.14584 0.0
H33 H 0.25657 0.08021 0.12413 0.0
H34 H 0.07809 0.17764 0.11248 0.0
H35 H 0.16334 0.21183 0.08679 0.0
H36 H 0.22036 0.08901 0.03512 0.0
H37 H 0.05727 0.22062 0.09056 0.0
H38 H 0.14257 0.25495 0.06504 0.0
C39 C 0.38887 0.94343 0.7132 0.0
C40 C 0.41897 0.94917 0.71786 0.0
C41 C 0.37758 0.92851 0.68677 0.0
C42 C 0.39605 0.91884 0.66424 0.0
C43 C 0.42614 0.92509 0.66855 0.0
C44 C 0.43746 0.94013 0.69503 0.0
C45 C 0.38377 0.90104 0.63717 0.0
C46 C 0.35782 0.9086 0.62335 0.0
C47 C 0.34402 0.89006 0.60004 0.0
C48 C 0.35709 0.86406 0.59014 0.0
C49 C 0.38337 0.8565 0.60304 0.0
C50 C 0.39669 0.87517 0.62644 0.0
C51 C 0.39589 0.82815 0.59294 0.0
C52 C 0.37796 0.80132 0.58896 0.0
C53 C 0.4255 0.82768 0.58672 0.0
C54 C 0.4368 0.80098 0.5762 0.0
C55 C 0.41872 0.7742 0.57187 0.0
C56 C 0.31532 0.89684 0.58707 0.0
C57 C 0.29468 0.90972 0.60532 0.0
C58 C 0.30783 0.88953 0.55664 0.0
C59 C 0.28032 0.89436 0.54501 0.0
C60 C 0.25969 0.90719 0.56332 0.0
C61 C 0.26745 0.91513 0.59355 0.0
C62 C 0.38923 0.7747 0.57864 0.0
H63 H 0.37397 0.94943 0.73049 0.0
H64 H 0.35434 0.92358 0.6845 0.0
H65 H 0.44094 0.91825 0.6515 0.0
H66 H 0.46073 0.94448 0.69771 0.0
H67 H 0.34835 0.92902 0.63093 0.0
H68 H 0.4163 0.86867 0.63729 0.0
H69 H 0.34654 0.84917 0.57266 0.0
H70 H 0.35517 0.80083 0.59414 0.0
H71 H 0.43977 0.84809 0.58943 0.0
H72 H 0.45958 0.80141 0.57107 0.0
H73 H 0.29928 0.91526 0.62894 0.0
H74 H 0.32321 0.88006 0.54165 0.0
H75 H 0.37482 0.75436 0.57638 0.0
H76 H 0.25255 0.92576 0.60829 0.0
H77 H 0.27522 0.88771 0.52171 0.0
C78 C 0.70892 0.45359 0.93459 0.0
C79 C 0.72931 0.43278 0.94116 0.0
C80 C 0.68215 0.44379 0.921 0.0
C81 C 0.67525 0.413 0.9139 0.0
C82 C 0.69519 0.39216 0.92156 0.0
C83 C 0.7219 0.40193 0.935 0.0
C84 C 0.64882 0.40263 0.89589 0.0
C85 C 0.64211 0.41717 0.86958 0.0
C86 C 0.62042 0.40449 0.84928 0.0
C87 C 0.60467 0.37755 0.85619 0.0
C88 C 0.61165 0.36241 0.88198 0.0
C89 C 0.63312 0.37555 0.90218 0.0
C90 C 0.60021 0.33078 0.88495 0.0
C91 C 0.57074 0.3218 0.87941 0.0
C92 C 0.61955 0.30882 0.89094 0.0
C93 C 0.60974 0.27852 0.89124 0.0
C94 C 0.58036 0.26944 0.8856 0.0
C95 C 0.61718 0.41689 0.81909 0.0
C96 C 0.61945 0.44814 0.8153 0.0
C97 C 0.61331 0.39722 0.79352 0.0
C98 C 0.61125 0.40842 0.76494 0.0
C99 C 0.61352 0.43963 0.76103 0.0
C100 C 0.61775 0.4594 0.78654 0.0
C101 C 0.56086 0.29136 0.87992 0.0
H102 H 0.71389 0.47749 0.93944 0.0
H103 H 0.66709 0.4603 0.91547 0.0
H104 H 0.69078 0.36834 0.9158 0.0
H105 H 0.73728 0.38536 0.93924 0.0
H106 H 0.65547 0.43697 0.86368 0.0
H107 H 0.63867 0.36383 0.9221 0.0
H108 H 0.58834 0.3672 0.84039 0.0
H109 H 0.55542 0.33828 0.87465 0.0
H110 H 0.64247 0.31498 0.89473 0.0
H111 H 0.62515 0.2622 0.8963 0.0
H112 H 0.62241 0.4639 0.83454 0.0
H113 H 0.6122 0.37301 0.79542 0.0
H114 H 0.53805 0.28493 0.87566 0.0
H115 H 0.6197 0.48357 0.78432 0.0
H116 H 0.60731 0.39249 0.74595 0.0
C117 C 0.8762 0.57204 0.29141 0.0
C118 C 0.90466 0.57415 0.28093 0.0
C119 C 0.87071 0.57902 0.32154 0.0
C120 C 0.89356 0.58796 0.34221 0.0
C121 C 0.92206 0.58997 0.33178 0.0
C122 C 0.92752 0.58327 0.30152 0.0
C123 C 0.88731 0.59608 0.37417 0.0
C124 C 0.86433 0.58051 0.38854 0.0
C125 C 0.85502 0.59065 0.41682 0.0
C126 C 0.8705 0.61553 0.43168 0.0
C127 C 0.89428 0.63071 0.41834 0.0
C128 C 0.90255 0.62088 0.38958 0.0
C129 C 0.90855 0.6586 0.43331 0.0
C130 C 0.89162 0.68063 0.44577 0.0
C131 C 0.93889 0.66382 0.43466 0.0
C132 C 0.95198 0.69068 0.44801 0.0
C133 C 0.93496 0.71296 0.46007 0.0
C134 C 0.82731 0.57765 0.42917 0.0
C135 C 0.80374 0.56833 0.4096 0.0
C136 C 0.82321 0.57677 0.4604 0.0
C137 C 0.79589 0.56845 0.47167 0.0
C138 C 0.77213 0.56043 0.45197 0.0
C139 C 0.7767 0.55952 0.42084 0.0
C140 C 0.90462 0.70744 0.4589 0.0
H141 H 0.85806 0.56477 0.27638 0.0
H142 H 0.8484 0.57781 0.32849 0.0
H143 H 0.94021 0.59661 0.34701 0.0
H144 H 0.94971 0.58558 0.29423 0.0
H145 H 0.85316 0.56078 0.37726 0.0
H146 H 0.91976 0.63368 0.37854 0.0
H147 H 0.86339 0.62401 0.45324 0.0
H148 H 0.86817 0.67757 0.44455 0.0
H149 H 0.95248 0.64712 0.4254 0.0
H150 H 0.97541 0.69411 0.44867 0.0
H151 H 0.80568 0.56897 0.38545 0.0
H152 H 0.84094 0.58316 0.47622 0.0
H153 H 0.89074 0.72434 0.46714 0.0
H154 H 0.75915 0.55261 0.40495 0.0
H155 H 0.79322 0.56933 0.49578 0.0
C156 C 0.89826 0.86856 0.76751 0.0
C157 C 0.89986 0.89892 0.75985 0.0
C158 C 0.88883 0.86022 0.7959 0.0
C159 C 0.88099 0.88208 0.81743 0.0
C160 C 0.88299 0.91249 0.80977 0.0
C161 C 0.89217 0.92076 0.78137 0.0
C162 C 0.87038 0.87336 0.84757 0.0
C163 C 0.88236 0.85004 0.86292 0.0
C164 C 0.87236 0.84194 0.89132 0.0
C165 C 0.85019 0.85757 0.90446 0.0
C166 C 0.83756 0.88061 0.88937 0.0
C167 C 0.84785 0.88827 0.861 0.0
C168 C 0.8127 0.89577 0.90243 0.0
C169 C 0.79045 0.87898 0.9167 0.0
C170 C 0.81035 0.92687 0.89965 0.0
C171 C 0.78603 0.94063 0.91015 0.0
C172 C 0.76343 0.92362 0.92366 0.0
C173 C 0.88437 0.81647 0.90685 0.0
C174 C 0.88724 0.78886 0.8911 0.0
C175 C 0.89235 0.81925 0.93759 0.0
C176 C 0.90304 0.79495 0.9522 0.0
C177 C 0.90552 0.7672 0.9365 0.0
C178 C 0.89753 0.76449 0.90577 0.0
C179 C 0.76619 0.89272 0.9272 0.0
H180 H 0.90386 0.85116 0.75137 0.0
H181 H 0.88722 0.83655 0.80075 0.0
H182 H 0.87777 0.93007 0.82588 0.0
H183 H 0.89373 0.94442 0.77644 0.0
H184 H 0.89988 0.83848 0.85307 0.0
H185 H 0.83753 0.90524 0.84881 0.0
H186 H 0.84242 0.85137 0.92629 0.0
H187 H 0.79134 0.85497 0.91903 0.0
H188 H 0.82724 0.94059 0.88914 0.0
H189 H 0.78458 0.96443 0.90693 0.0
H190 H 0.88106 0.78593 0.86749 0.0
H191 H 0.89053 0.8403 0.95029 0.0
H192 H 0.74942 0.87901 0.93791 0.0
H193 H 0.89951 0.74355 0.89294 0.0
H194 H 0.90897 0.79774 0.97588 0.0
C195 C 0.60681 0.05585 0.30505 0.0
C196 C 0.59463 0.0723 0.28247 0.0
C197 C 0.61685 0.0703 0.33227 0.0
C198 C 0.6154 0.10162 0.33726 0.0
C199 C 0.60325 0.11796 0.31444 0.0
C200 C 0.59282 0.10344 0.2875 0.0
C201 C 0.627 0.11736 0.36579 0.0
C202 C 0.6521 0.10831 0.38009 0.0
C203 C 0.66369 0.12358 0.40647 0.0
C204 C 0.65001 0.14827 0.41859 0.0
C205 C 0.6251 0.15781 0.40456 0.0
C206 C 0.6136 0.14214 0.37838 0.0
C207 C 0.6116 0.18478 0.41668 0.0
C208 C 0.60582 0.18818 0.44745 0.0
C209 C 0.60479 0.20753 0.39747 0.0
C210 C 0.59252 0.23324 0.4088 0.0
C211 C 0.58654 0.23659 0.43952 0.0
C212 C 0.69069 0.11431 0.42067 0.0
C213 C 0.69442 0.0837 0.42443 0.0
C214 C 0.71326 0.13592 0.42972 0.0
C215 C 0.73934 0.12702 0.44151 0.0
C216 C 0.74335 0.09633 0.44464 0.0
C217 C 0.72041 0.07481 0.43639 0.0
C218 C 0.59319 0.21377 0.45874 0.0
H219 H 0.60834 0.03179 0.30173 0.0
H220 H 0.62562 0.05684 0.34945 0.0
H221 H 0.60235 0.14215 0.31702 0.0
H222 H 0.58399 0.11675 0.27022 0.0
H223 H 0.66335 0.09002 0.37013 0.0
H224 H 0.59396 0.14918 0.36806 0.0
H225 H 0.65899 0.16035 0.43876 0.0
H226 H 0.6108 0.17089 0.46271 0.0
H227 H 0.60927 0.20559 0.37371 0.0
H228 H 0.58737 0.25037 0.39343 0.0
H229 H 0.67722 0.06659 0.41806 0.0
H230 H 0.7111 0.15967 0.42677 0.0
H231 H 0.58889 0.21588 0.48253 0.0
H232 H 0.72259 0.05102 0.439 0.0
H233 H 0.75669 0.14415 0.44721 0.0
C234 C 0.27098 0.59681 0.10585 0.0
C235 C 0.26974 0.59853 0.07444 0.0
C236 C 0.29619 0.60669 0.12219 0.0
C237 C 0.32087 0.61826 0.10745 0.0
C238 C 0.31993 0.61894 0.07585 0.0
C239 C 0.2945 0.60939 0.05951 0.0
C240 C 0.3467 0.63146 0.12517 0.0
C241 C 0.35518 0.61889 0.15212 0.0
C242 C 0.37807 0.63288 0.16996 0.0
C243 C 0.39324 0.65895 0.16038 0.0
C244 C 0.3844 0.67262 0.13429 0.0
C245 C 0.36128 0.65848 0.11664 0.0
C246 C 0.39716 0.70311 0.12734 0.0
C247 C 0.40526 0.7246 0.15075 0.0
C248 C 0.39987 0.71162 0.09746 0.0
C249 C 0.4095 0.74108 0.09119 0.0
C250 C 0.41731 0.76261 0.11464 0.0
C251 C 0.384 0.62303 0.20051 0.0
C252 C 0.36184 0.62185 0.22156 0.0
C253 C 0.41241 0.61865 0.20985 0.0
C254 C 0.41874 0.61397 0.23995 0.0
C255 C 0.39685 0.61408 0.26142 0.0
C256 C 0.36821 0.61753 0.2518 0.0
C257 C 0.41553 0.7538 0.14447 0.0
H258 H 0.25201 0.58899 0.11796 0.0
H259 H 0.29584 0.60638 0.14648 0.0
H260 H 0.33871 0.6273 0.06377 0.0
H261 H 0.29409 0.61073 0.03527 0.0
H262 H 0.34375 0.59854 0.1596 0.0
H263 H 0.35337 0.6695 0.09723 0.0
H264 H 0.41099 0.66949 0.17432 0.0
H265 H 0.40297 0.71925 0.17409 0.0
H266 H 0.39423 0.69564 0.07883 0.0
H267 H 0.41021 0.74706 0.0679 0.0
H268 H 0.33982 0.62567 0.21486 0.0
H269 H 0.4298 0.61943 0.19393 0.0
H270 H 0.42187 0.76952 0.16312 0.0
H271 H 0.35089 0.61778 0.26774 0.0
H272 H 0.44087 0.61039 0.24641 0.0
C273 C 0.08887 0.29812 0.55739 0.0
C274 C 0.05882 0.2917 0.55883 0.0
C275 C 0.10184 0.32548 0.56912 0.0
C276 C 0.08507 0.34705 0.58274 0.0
C277 C 0.05482 0.34103 0.58345 0.0
C278 C 0.04174 0.31358 0.57134 0.0
C279 C 0.09985 0.37464 0.59772 0.0
C280 C 0.12301 0.38997 0.5837 0.0
C281 C 0.1413 0.41214 0.5995 0.0
C282 C 0.13471 0.42048 0.62932 0.0
C283 C 0.11073 0.40624 0.64343 0.0
C284 C 0.0935 0.38324 0.62738 0.0
C285 C 0.10463 0.41371 0.67553 0.0
C286 C 0.1273 0.41894 0.69717 0.0
C287 C 0.07589 0.41444 0.68497 0.0
C288 C 0.06993 0.41964 0.7153 0.0
C289 C 0.09255 0.42442 0.73696 0.0
C290 C 0.1685 0.42431 0.58549 0.0
C291 C 0.18387 0.40532 0.56657 0.0
C292 C 0.17985 0.4543 0.59131 0.0
C293 C 0.20597 0.46483 0.57866 0.0
C294 C 0.22089 0.44575 0.55956 0.0
C295 C 0.2095 0.416 0.55354 0.0
C296 C 0.12132 0.42437 0.72754 0.0
H297 H 0.10246 0.28156 0.54786 0.0
H298 H 0.12522 0.32923 0.56859 0.0
H299 H 0.04141 0.3573 0.59377 0.0
H300 H 0.01851 0.30895 0.57285 0.0
H301 H 0.12732 0.38371 0.56052 0.0
H302 H 0.07619 0.37074 0.63857 0.0
H303 H 0.14866 0.43745 0.64184 0.0
H304 H 0.14968 0.4181 0.69082 0.0
H305 H 0.05792 0.41104 0.66888 0.0
H306 H 0.04754 0.42022 0.72177 0.0
H307 H 0.17657 0.38183 0.5623 0.0
H308 H 0.16858 0.46965 0.60556 0.0
H309 H 0.13918 0.42789 0.74374 0.0
H310 H 0.22098 0.40063 0.53949 0.0
H311 H 0.21448 0.48787 0.58372 0.0
O312 O 0.01116 0.01303 0.58808 0.0
Mg313 Mg 0.03775 0.03627 0.55803 0.0
O314 O 0.98724 0.98556 0.55168 0.0
Mg315 Mg 0.00261 0.00411 0.50466 0.0
O316 O 0.01514 0.05282 0.52361 0.0
O317 O 0.03892 0.08197 0.55983 0.0
O318 O 0.02017 0.02532 0.4581 0.0
O319 O 0.95649 0.02235 0.50161 0.0
Mg320 Mg 0.97797 0.98284 0.45449 0.0
O321 O 0.98717 0.95338 0.4875 0.0
O322 O 0.00814 0.99121 0.42223 0.0
O323 O 0.94375 0.01113 0.45458 0.0
O324 O 0.95986 0.94133 0.44571 0.0
C325 C 0.07333 0.99493 0.52369 0.0
C326 C 0.99222 0.99215 0.57974 0.0
C327 C 0.02305 0.0794 0.53553 0.0
C328 C 0.02165 0.0158 0.43059 0.0
C329 C 0.93901 0.02409 0.47946 0.0
C330 C 0.9722 0.93335 0.46996 0.0
O331 O 0.07445 0.01654 0.5432 0.0
O332 O 0.04957 0.98632 0.50948 0.0
O333 O 0.45833 0.06944 0.03242 0.0
Mg334 Mg 0.50285 0.0751 0.02696 0.0
O335 O 0.45728 0.0226 0.0139 0.0
Mg336 Mg 0.50616 0.01408 0.0007 0.0
O337 O 0.519 0.06304 0.98627 0.0
O338 O 0.51642 0.11088 0.00403 0.0
O339 O 0.55444 0.00515 0.98785 0.0
O340 O 0.4887 0.00646 0.95029 0.0
Mg341 Mg 0.51164 0.94773 0.97563 0.0
O342 O 0.49437 0.96542 0.01357 0.0
O343 O 0.55681 0.95643 0.97612 0.0
O344 O 0.48771 0.95768 0.93739 0.0
O345 O 0.49437 0.91591 0.00282 0.0
C346 C 0.53342 0.04219 0.06969 0.0
C347 C 0.44431 0.04457 0.0255 0.0
C348 C 0.52385 0.09192 0.98339 0.0
C349 C 0.56899 0.98269 0.98066 0.0
C350 C 0.48235 0.98426 0.93146 0.0
C351 C 0.48782 0.93787 0.02062 0.0
O352 O 0.52949 0.06895 0.06352 0.0
O353 O 0.52455 0.02031 0.05137 0.0
O354 O 0.45736 0.54345 0.55211 0.0
Mg355 Mg 0.46709 0.49766 0.55445 0.0
O356 O 0.4891 0.55157 0.51668 0.0
Mg357 Mg 0.49598 0.50155 0.50403 0.0
O358 O 0.50962 0.48968 0.55344 0.0
O359 O 0.48274 0.48892 0.59505 0.0
O360 O 0.50258 0.44904 0.49627 0.0
O361 O 0.54568 0.51473 0.50225 0.0
Mg362 Mg 0.50966 0.4806 0.452 0.0
O363 O 0.48514 0.51681 0.45474 0.0
O364 O 0.48783 0.43787 0.45014 0.0
O365 O 0.55437 0.48469 0.4637 0.0
O366 O 0.50406 0.49851 0.41223 0.0
C367 C 0.42829 0.47101 0.51579 0.0
C368 C 0.47123 0.5615 0.53539 0.0
C369 C 0.50692 0.48538 0.58199 0.0
C370 C 0.49523 0.42914 0.47545 0.0
C371 C 0.56367 0.50251 0.48524 0.0
C372 C 0.48782 0.51687 0.42568 0.0
O373 O 0.4373 0.46192 0.54031 0.0
O374 O 0.44478 0.48959 0.50185 0.0
O375 O 0.04123 0.46308 0.06168 0.0
Mg376 Mg 0.02787 0.50663 0.06776 0.0
O377 O 0.01927 0.45828 0.01721 0.0
Mg378 Mg 0.0024 0.50717 0.01006 0.0
O379 O 0.98593 0.51589 0.05977 0.0
O380 O 0.0062 0.51144 0.10576 0.0
O381 O 0.98409 0.55811 0.00852 0.0
O382 O 0.95684 0.48314 0.00267 0.0
Mg383 Mg 0.99164 0.52609 0.96796 0.0
O384 O 0.01781 0.49303 0.95845 0.0
O385 O 0.01124 0.57023 0.9716 0.0
O386 O 0.94583 0.51837 0.97287 0.0
O387 O 0.99393 0.51725 0.9239 0.0
C388 C 0.06481 0.54607 0.03625 0.0
C389 C 0.0341 0.44725 0.03809 0.0
C390 C 0.98452 0.51754 0.08904 0.0
C391 C 0.99482 0.57854 0.99188 0.0
C392 C 0.938 0.49585 0.98776 0.0
C393 C 0.01196 0.49784 0.93032 0.0
O394 O 0.05803 0.5426 0.06319 0.0
O395 O 0.04931 0.53249 0.01499 0.0
C396 C 0.10679 0.07006 0.28822 0.0
C397 C 0.09927 0.09769 0.27762 0.0
C398 C 0.0962 0.05949 0.31548 0.0
C399 C 0.07787 0.07711 0.33285 0.0
C400 C 0.07119 0.10562 0.32286 0.0
C401 C 0.08177 0.11545 0.29527 0.0
C402 C 0.10348 0.02875 0.32493 0.0
C403 C 0.0519 0.1252 0.34071 0.0
C404 C 0.02302 0.0318 0.37799 0.0
C405 C 0.03552 0.03418 0.4071 0.0
C406 C 0.0361 0.04653 0.35409 0.0
C407 C 0.06275 0.06392 0.35911 0.0
C408 C 0.07518 0.06724 0.38865 0.0
C409 C 0.06123 0.05252 0.41247 0.0
C410 C 0.02169 0.04269 0.32322 0.0
C411 C 0.10363 0.0855 0.39485 0.0
H412 H 0.12012 0.05612 0.27459 0.0
H413 H 0.07617 0.13699 0.28737 0.0
H414 H 0.1116 0.03002 0.34862 0.0
H415 H 0.0836 0.01312 0.32365 0.0
H416 H 0.12002 0.01906 0.31048 0.0
H417 H 0.05147 0.14806 0.33177 0.0
H418 H 0.02945 0.11449 0.34007 0.0
H419 H 0.05929 0.12746 0.36463 0.0
H420 H 0.00286 0.01806 0.37377 0.0
H421 H 0.07095 0.05441 0.43491 0.0
H422 H 0.03576 0.03076 0.30758 0.0
H423 H 0.01862 0.06503 0.31407 0.0
H424 H 0.00025 0.02969 0.32345 0.0
H425 H 0.12116 0.07449 0.38304 0.0
H426 H 0.10935 0.0878 0.41925 0.0
H427 H 0.10277 0.10831 0.38598 0.0
C428 C 0.45466 0.95074 0.76128 0.0
C429 C 0.43079 0.96252 0.74734 0.0
C430 C 0.46359 0.96007 0.79079 0.0
C431 C 0.44818 0.98159 0.80691 0.0
C432 C 0.42523 0.99496 0.79236 0.0
C433 C 0.41684 0.98531 0.76275 0.0
C434 C 0.48832 0.94534 0.80537 0.0
C435 C 0.40831 0.01803 0.80868 0.0
C436 C 0.44759 0.96768 0.89005 0.0
C437 C 0.46956 0.98866 0.90152 0.0
C438 C 0.43914 0.96659 0.85961 0.0
C439 C 0.45348 0.98659 0.83996 0.0
C440 C 0.47456 0.00906 0.85178 0.0
C441 C 0.48221 0.01001 0.88264 0.0
C442 C 0.41618 0.94264 0.84819 0.0
C443 C 0.49043 0.03065 0.83155 0.0
H444 H 0.46548 0.93298 0.74976 0.0
H445 H 0.39875 0.99501 0.75195 0.0
H446 H 0.50375 0.96258 0.81695 0.0
H447 H 0.47973 0.93003 0.82262 0.0
H448 H 0.50033 0.932 0.78882 0.0
H449 H 0.39413 0.02948 0.79309 0.0
H450 H 0.39449 0.00674 0.82554 0.0
H451 H 0.42315 0.03529 0.821 0.0
H452 H 0.43781 0.9512 0.90475 0.0
H453 H 0.49946 0.026 0.8915 0.0
H454 H 0.42624 0.92559 0.83373 0.0
H455 H 0.39961 0.9527 0.83424 0.0
H456 H 0.40515 0.93094 0.86679 0.0
H457 H 0.50531 0.0182 0.81728 0.0
H458 H 0.50339 0.04903 0.84456 0.0
H459 H 0.47498 0.04074 0.81628 0.0
C460 C 0.59204 0.47533 0.72667 0.0
C461 C 0.60913 0.45107 0.73058 0.0
C462 C 0.58255 0.48238 0.69795 0.0
C463 C 0.58991 0.46438 0.67265 0.0
C464 C 0.60953 0.4419 0.67611 0.0
C465 C 0.6191 0.43563 0.7051 0.0
C466 C 0.56208 0.50701 0.69509 0.0
C467 C 0.61815 0.42244 0.64969 0.0
C468 C 0.52466 0.4535 0.62089 0.0
C469 C 0.53091 0.47554 0.60012 0.0
C470 C 0.54502 0.44767 0.64301 0.0
C471 C 0.57208 0.46482 0.64466 0.0
C472 C 0.57948 0.48525 0.62205 0.0
C473 C 0.55867 0.4903 0.59972 0.0
C474 C 0.53646 0.42502 0.66615 0.0
C475 C 0.60827 0.50357 0.62281 0.0
H476 H 0.58421 0.48744 0.74611 0.0
H477 H 0.63311 0.41748 0.70788 0.0
H478 H 0.56791 0.52106 0.67586 0.0
H479 H 0.53969 0.49672 0.69078 0.0
H480 H 0.56218 0.52184 0.71583 0.0
H481 H 0.63838 0.41148 0.65469 0.0
H482 H 0.60062 0.40447 0.64438 0.0
H483 H 0.62125 0.43577 0.62939 0.0
H484 H 0.50323 0.44178 0.62068 0.0
H485 H 0.56339 0.50727 0.58342 0.0
H486 H 0.53303 0.43704 0.688 0.0
H487 H 0.55394 0.40973 0.66965 0.0
H488 H 0.51618 0.41114 0.6595 0.0
H489 H 0.60733 0.52324 0.63886 0.0
H490 H 0.61354 0.51212 0.60035 0.0
H491 H 0.62602 0.49019 0.63059 0.0
C492 C 0.8917 0.57458 0.2256 0.0
C493 C 0.91049 0.56669 0.24873 0.0
C494 C 0.89721 0.56773 0.19521 0.0
C495 C 0.92231 0.55306 0.18773 0.0
C496 C 0.94122 0.54487 0.21095 0.0
C497 C 0.93495 0.55153 0.24107 0.0
C498 C 0.87634 0.57637 0.17113 0.0
C499 C 0.96838 0.52932 0.20401 0.0
C500 C 0.939 0.50937 0.11653 0.0
C501 C 0.95992 0.52943 0.10451 0.0
C502 C 0.92352 0.51808 0.14188 0.0
C503 C 0.92996 0.54713 0.1558 0.0
C504 C 0.9487 0.56842 0.14157 0.0
C505 C 0.96335 0.55929 0.1159 0.0
C506 C 0.90291 0.49504 0.15569 0.0
C507 C 0.95643 0.59955 0.1556 0.0
H508 H 0.87289 0.58658 0.23118 0.0
H509 H 0.94924 0.54469 0.25868 0.0
H510 H 0.88743 0.59283 0.15642 0.0
H511 H 0.86883 0.55624 0.15667 0.0
H512 H 0.85714 0.58646 0.18071 0.0
H513 H 0.981 0.52488 0.22464 0.0
H514 H 0.96265 0.50754 0.19147 0.0
H515 H 0.9825 0.54341 0.18949 0.0
H516 H 0.93672 0.48613 0.10793 0.0
H517 H 0.97995 0.57458 0.10681 0.0
H518 H 0.88387 0.50566 0.1649 0.0
H519 H 0.91416 0.48487 0.17455 0.0
H520 H 0.89524 0.47667 0.13907 0.0
H521 H 0.93702 0.60963 0.16454 0.0
H522 H 0.96674 0.61491 0.13927 0.0
H523 H 0.97193 0.59793 0.17473 0.0
C524 C 0.27892 0.0441 0.07766 0.0
C525 C 0.26754 0.06914 0.06496 0.0
C526 C 0.30563 0.03406 0.06857 0.0
C527 C 0.3216 0.04968 0.04654 0.0
C528 C 0.30925 0.07366 0.03221 0.0
C529 C 0.28236 0.08302 0.04151 0.0
C530 C 0.31763 0.00807 0.08408 0.0
C531 C 0.32549 0.09106 0.00872 0.0
C532 C 0.40332 0.0605 0.05579 0.0
C533 C 0.41294 0.04201 0.03229 0.0
C534 C 0.3738 0.06216 0.06118 0.0
C535 C 0.35297 0.04495 0.04257 0.0
C536 C 0.36243 0.02502 0.01965 0.0
C537 C 0.39242 0.02369 0.01481 0.0
C538 C 0.36495 0.08338 0.0862 0.0
C539 C 0.34092 0.00606 0.99954 0.0
H540 H 0.26734 0.03289 0.09541 0.0
H541 H 0.2738 0.10242 0.03162 0.0
H542 H 0.32748 0.9927 0.06762 0.0
H543 H 0.33494 0.01686 0.10051 0.0
H544 H 0.30066 0.99494 0.09634 0.0
H545 H 0.31154 0.10631 0.99697 0.0
H546 H 0.34411 0.10488 0.01962 0.0
H547 H 0.33432 0.07544 0.99179 0.0
H548 H 0.41903 0.07435 0.06979 0.0
H549 H 0.3997 0.00935 0.99664 0.0
H550 H 0.35045 0.07107 0.10176 0.0
H551 H 0.35271 0.10134 0.07661 0.0
H552 H 0.38387 0.09422 0.09941 0.0
H553 H 0.32393 0.99456 0.01307 0.0
H554 H 0.35149 0.98885 0.98572 0.0
H555 H 0.32994 0.0208 0.9842 0.0
C556 C 0.22677 0.92213 0.52147 0.0
C557 C 0.23043 0.91299 0.55105 0.0
C558 C 0.19993 0.93079 0.51094 0.0
C559 C 0.17643 0.93125 0.5307 0.0
C560 C 0.17943 0.92031 0.55989 0.0
C561 C 0.2062 0.91089 0.5695 0.0
C562 C 0.19733 0.94135 0.47932 0.0
C563 C 0.15504 0.92069 0.58187 0.0
C564 C 0.1267 0.99443 0.52857 0.0
C565 C 0.1001 0.97921 0.51942 0.0
C566 C 0.15193 0.97927 0.5308 0.0
C567 C 0.15079 0.94802 0.52322 0.0
C568 C 0.12456 0.93291 0.5116 0.0
C569 C 0.09934 0.94872 0.50994 0.0
C570 C 0.17935 0.99639 0.54331 0.0
C571 C 0.12271 0.89979 0.50251 0.0
H572 H 0.24517 0.92392 0.50686 0.0
H573 H 0.20834 0.90279 0.59197 0.0
H574 H 0.17613 0.93302 0.46874 0.0
H575 H 0.19857 0.96633 0.47991 0.0
H576 H 0.21495 0.93366 0.46501 0.0
H577 H 0.15994 0.90897 0.60268 0.0
H578 H 0.15109 0.94439 0.58825 0.0
H579 H 0.1347 0.90989 0.57136 0.0
H580 H 0.12757 0.01817 0.53539 0.0
H581 H 0.07887 0.93686 0.50275 0.0
H582 H 0.19753 0.99341 0.52793 0.0
H583 H 0.18545 0.98737 0.56522 0.0
H584 H 0.17688 0.0209 0.5468 0.0
H585 H 0.14214 0.89399 0.48998 0.0
H586 H 0.10302 0.89298 0.48837 0.0
H587 H 0.12187 0.88642 0.52294 0.0
C588 C 0.7731 0.42698 0.97387 0.0
C589 C 0.759 0.44309 0.95229 0.0
C590 C 0.8022 0.43461 0.98221 0.0
C591 C 0.81744 0.45906 0.96881 0.0
C592 C 0.8031 0.47601 0.94772 0.0
C593 C 0.77405 0.46777 0.93965 0.0
C594 C 0.81686 0.41601 0.00472 0.0
C595 C 0.8187 0.50224 0.93292 0.0
C596 C 0.88723 0.49637 0.00388 0.0
C597 C 0.9078 0.48371 0.98575 0.0
C598 C 0.85763 0.48773 0.99934 0.0
C599 C 0.84871 0.4663 0.97587 0.0
C600 C 0.86968 0.45293 0.95803 0.0
C601 C 0.89911 0.46185 0.96324 0.0
C602 C 0.83587 0.50234 0.01883 0.0
C603 C 0.861 0.43016 0.93268 0.0
H604 H 0.76145 0.40811 0.98397 0.0
H605 H 0.76346 0.48001 0.9226 0.0
H606 H 0.83481 0.4048 0.99389 0.0
H607 H 0.82651 0.43076 0.02363 0.0
H608 H 0.80165 0.39844 0.01393 0.0
H609 H 0.80404 0.51399 0.91809 0.0
H610 H 0.8286 0.51878 0.95024 0.0
H611 H 0.83654 0.49415 0.91923 0.0
H612 H 0.89426 0.51358 0.02103 0.0
H613 H 0.9153 0.45253 0.94906 0.0
H614 H 0.82092 0.48488 0.02852 0.0
H615 H 0.82252 0.51637 0.00493 0.0
H616 H 0.84645 0.51685 0.03749 0.0
H617 H 0.84659 0.41144 0.941 0.0
H618 H 0.88004 0.42058 0.92219 0.0
H619 H 0.84862 0.441 0.91508 0.0
C620 C 0.71852 0.56394 0.44755 0.0
C621 C 0.74236 0.55415 0.46338 0.0
C622 C 0.6901 0.55632 0.45615 0.0
C623 C 0.68523 0.53907 0.48174 0.0
C624 C 0.70913 0.53067 0.499 0.0
C625 C 0.73746 0.53807 0.48946 0.0
C626 C 0.66526 0.56558 0.43693 0.0
C627 C 0.70479 0.51282 0.52678 0.0
C628 C 0.6067 0.53587 0.50529 0.0
C629 C 0.59532 0.50981 0.48901 0.0
C630 C 0.63652 0.5448 0.50495 0.0
C631 C 0.65517 0.52719 0.48799 0.0
C632 C 0.64402 0.49975 0.4734 0.0
C633 C 0.6143 0.49143 0.4741 0.0
C634 C 0.64773 0.57395 0.52119 0.0
C635 C 0.66312 0.48015 0.45523 0.0
H636 H 0.72203 0.57726 0.42799 0.0
H637 H 0.75568 0.53041 0.50191 0.0
H638 H 0.653 0.5452 0.42658 0.0
H639 H 0.65001 0.57776 0.45096 0.0
H640 H 0.67273 0.58026 0.41866 0.0
H641 H 0.72521 0.51233 0.54029 0.0
H642 H 0.68815 0.52241 0.54114 0.0
H643 H 0.69686 0.48929 0.52014 0.0
H644 H 0.59219 0.55004 0.51708 0.0
H645 H 0.60575 0.47093 0.46195 0.0
H646 H 0.6523 0.59142 0.50457 0.0
H647 H 0.66834 0.57109 0.53356 0.0
H648 H 0.63182 0.58226 0.53729 0.0
H649 H 0.67043 0.49204 0.43503 0.0
H650 H 0.65168 0.45818 0.44773 0.0
H651 H 0.68275 0.47576 0.46855 0.0
C652 C 0.06458 0.28321 0.08111 0.0
C653 C 0.08574 0.26904 0.06473 0.0
C654 C 0.05439 0.31053 0.07231 0.0
C655 C 0.0656 0.3243 0.04648 0.0
C656 C 0.08594 0.30945 0.02903 0.0
C657 C 0.09579 0.28209 0.03837 0.0
C658 C 0.03277 0.32551 0.09171 0.0
C659 C 0.09834 0.32316 0.00125 0.0
C660 C 0.02728 0.39227 0.02031 0.0
C661 C 0.04359 0.41605 0.03596 0.0
C662 C 0.03469 0.3622 0.02247 0.0
C663 C 0.05907 0.35594 0.04045 0.0
C664 C 0.07641 0.38015 0.05481 0.0
C665 C 0.06843 0.4097 0.05246 0.0
C666 C 0.01571 0.33706 0.00669 0.0
C667 C 0.10278 0.3748 0.0739 0.0
H668 H 0.05682 0.27363 0.10166 0.0
H669 H 0.11173 0.27113 0.0252 0.0
H670 H 0.0434 0.34622 0.10315 0.0
H671 H 0.01454 0.3324 0.07766 0.0
H672 H 0.02386 0.31053 0.10912 0.0
H673 H 0.11086 0.30713 0.98799 0.0
H674 H 0.08079 0.33066 0.98665 0.0
H675 H 0.11297 0.34337 0.00789 0.0
H676 H 0.00804 0.39697 0.00757 0.0
H677 H 0.08144 0.42797 0.06429 0.0
H678 H 0.00355 0.32398 0.02361 0.0
H679 H 0.02911 0.32128 0.99428 0.0
H680 H -0.00011 0.34568 0.9907 0.0
H681 H 0.09601 0.36209 0.09377 0.0
H682 H 0.11502 0.39617 0.08194 0.0
H683 H 0.11757 0.36098 0.06095 0.0
C684 C 0.54647 0.22957 0.90562 0.0
C685 C 0.57016 0.23735 0.88782 0.0
C686 C 0.54001 0.19965 0.91307 0.0
C687 C 0.5576 0.177 0.9022 0.0
C688 C 0.57973 0.1843 0.88179 0.0
C689 C 0.58594 0.21454 0.87503 0.0
C690 C 0.51612 0.19287 0.93493 0.0
C691 C 0.59838 0.16078 0.86895 0.0
C692 C 0.56353 0.12434 0.96446 0.0
C693 C 0.53932 0.10426 0.95791 0.0
C694 C 0.57223 0.14624 0.94438 0.0
C695 C 0.55621 0.14783 0.91711 0.0
C696 C 0.53453 0.12467 0.9085 0.0
C697 C 0.52605 0.10306 0.92931 0.0
C698 C 0.59579 0.17015 0.95441 0.0
C699 C 0.51808 0.12476 0.87892 0.0
H700 H 0.53426 0.24716 0.91556 0.0
H701 H 0.60396 0.22049 0.86072 0.0
H702 H 0.50149 0.17339 0.9263 0.0
H703 H 0.52569 0.1868 0.95671 0.0
H704 H 0.50296 0.21241 0.93916 0.0
H705 H 0.60763 0.16757 0.84723 0.0
H706 H 0.61669 0.1581 0.88485 0.0
H707 H 0.58595 0.13856 0.86545 0.0
H708 H 0.57376 0.12493 0.98667 0.0
H709 H 0.50732 0.08734 0.92435 0.0
H710 H 0.58586 0.19139 0.96071 0.0
H711 H 0.61089 0.17492 0.93595 0.0
H712 H 0.60848 0.16343 0.97416 0.0
H713 H 0.50063 0.14042 0.88102 0.0
H714 H 0.50791 0.10198 0.87227 0.0
H715 H 0.53253 0.13262 0.86083 0.0
C716 C 0.93616 0.75843 0.4957 0.0
C717 C 0.9482 0.74297 0.4714 0.0
C718 C 0.94391 0.78913 0.50225 0.0
C719 C 0.96436 0.80467 0.48423 0.0
C720 C 0.979 0.78838 0.46199 0.0
C721 C 0.97063 0.75776 0.4557 0.0
C722 C 0.92796 0.80551 0.52638 0.0
C723 C 0.00125 0.80396 0.44252 0.0
C724 C 0.94807 0.88207 0.46059 0.0
C725 C 0.96914 0.90101 0.47671 0.0
C726 C 0.94594 0.85094 0.46366 0.0
C727 C 0.96531 0.8381 0.48352 0.0
C728 C 0.98587 0.85708 0.50098 0.0
C729 C 0.98757 0.88847 0.49736 0.0
C730 C 0.92345 0.8317 0.44474 0.0
C731 C 0.00664 0.84418 0.52261 0.0
H732 H 0.91943 0.74695 0.50857 0.0
H733 H 0.98017 0.74613 0.43693 0.0
H734 H 0.94271 0.82256 0.5391 0.0
H735 H 0.91057 0.81754 0.51572 0.0
H736 H 0.91779 0.78971 0.5424 0.0
H737 H 0.01442 0.78762 0.4305 0.0
H738 H 0.99005 0.81675 0.42552 0.0
H739 H 0.01599 0.82027 0.45617 0.0
H740 H 0.93338 0.89154 0.44492 0.0
H741 H 0.00383 0.90298 0.50996 0.0
H742 H 0.90948 0.81752 0.4593 0.0
H743 H 0.93433 0.81633 0.42911 0.0
H744 H 0.90936 0.84539 0.43123 0.0
H745 H 0.9949 0.82788 0.53702 0.0
H746 H 0.01863 0.86201 0.53724 0.0
H747 H 0.02259 0.83172 0.5098 0.0
C748 C 0.45704 0.73712 0.57243 0.0
C749 C 0.4304 0.74548 0.56118 0.0
C750 C 0.46656 0.70853 0.56521 0.0
C751 C 0.44891 0.68775 0.54649 0.0
C752 C 0.42284 0.69669 0.53368 0.0
C753 C 0.41398 0.72547 0.54106 0.0
C754 C 0.49464 0.69994 0.57909 0.0
C755 C 0.40339 0.67523 0.51361 0.0
C756 C 0.47755 0.61424 0.51715 0.0
C757 C 0.46639 0.59403 0.53808 0.0
C758 C 0.4723 0.64496 0.51961 0.0
C759 C 0.45562 0.65561 0.54359 0.0
C760 C 0.44456 0.63533 0.56486 0.0
C761 C 0.45003 0.60488 0.56182 0.0
C762 C 0.48431 0.66594 0.49645 0.0
C763 C 0.42664 0.64572 0.59076 0.0
H764 H 0.46984 0.75235 0.58806 0.0
H765 H 0.39372 0.73201 0.53166 0.0
H766 H 0.48989 0.6834 0.59658 0.0
H767 H 0.50786 0.68902 0.56189 0.0
H768 H 0.50765 0.71975 0.58969 0.0
H769 H 0.38563 0.68666 0.50278 0.0
H770 H 0.41607 0.66452 0.49581 0.0
H771 H 0.39357 0.65695 0.52713 0.0
H772 H 0.4901 0.60602 0.49867 0.0
H773 H 0.4414 0.58952 0.57819 0.0
H774 H 0.49785 0.685 0.50766 0.0
H775 H 0.46629 0.67567 0.48433 0.0
H776 H 0.49761 0.65433 0.47973 0.0
H777 H 0.43914 0.66381 0.60455 0.0
H778 H 0.41996 0.62714 0.60557 0.0
H779 H 0.40685 0.65533 0.58203 0.0
C780 C 0.93483 0.89654 0.71749 0.0
C781 C 0.91009 0.9081 0.72981 0.0
C782 C 0.94629 0.90721 0.69061 0.0
C783 C 0.93261 0.92989 0.67553 0.0
C784 C 0.90677 0.94049 0.68706 0.0
C785 C 0.89591 0.92957 0.71407 0.0
C786 C 0.974 0.89546 0.67931 0.0
C787 C 0.89138 0.9645 0.67168 0.0
C788 C 0.98106 0.98562 0.6338 0.0
C789 C 0.97621 0.9758 0.60354 0.0
C790 C 0.96701 0.97086 0.65715 0.0
C791 C 0.9474 0.94543 0.65037 0.0
C792 C 0.94218 0.93531 0.61992 0.0
C793 C 0.95663 0.95063 0.59681 0.0
C794 C 0.97328 0.98256 0.68921 0.0
C795 C 0.92139 0.90829 0.61182 0.0
H796 H 0.94601 0.88008 0.72958 0.0
H797 H 0.87651 0.93825 0.72317 0.0
H798 H 0.97185 0.88921 0.65492 0.0
H799 H 0.9919 0.91344 0.68232 0.0
H800 H 0.9801 0.87554 0.69146 0.0
H801 H 0.86984 0.9677 0.68135 0.0
H802 H 0.90476 0.98625 0.67408 0.0
H803 H 0.88841 0.95866 0.64727 0.0
H804 H 0.99601 0.00506 0.63946 0.0
H805 H 0.95273 0.94281 0.57357 0.0
H806 H 0.98186 0.96463 0.70261 0.0
H807 H 0.95298 0.98891 0.69975 0.0
H808 H 0.98924 0.00252 0.6907 0.0
H809 H 0.92861 0.88819 0.62284 0.0
H810 H 0.91961 0.90326 0.58715 0.0
H811 H 0.89956 0.91222 0.62026 0.0
C812 C 0.60327 0.04046 0.23624 0.0
C813 C 0.5847 0.0576 0.25315 0.0
C814 C 0.59593 0.03071 0.2064 0.0
C815 C 0.56936 0.03818 0.1934 0.0
C816 C 0.54955 0.05331 0.2113 0.0
C817 C 0.55756 0.063 0.2409 0.0
C818 C 0.61762 0.01465 0.18811 0.0
C819 C 0.52086 0.06147 0.19848 0.0
C820 C 0.56501 0.06109 0.11303 0.0
C821 C 0.54708 0.0374 0.09925 0.0
C822 C 0.57378 0.06063 0.14321 0.0
C823 C 0.56455 0.03573 0.16019 0.0
C824 C 0.54833 0.01059 0.14584 0.0
C825 C 0.53973 0.01171 0.11536 0.0
C826 C 0.59122 0.0879 0.1574 0.0
C827 C 0.53848 0.98344 0.16309 0.0
H828 H 0.6243 0.03627 0.2457 0.0
H829 H 0.543 0.07586 0.25416 0.0
H830 H 0.60667 0.99588 0.17391 0.0
H831 H 0.62859 0.03066 0.17285 0.0
H832 H 0.63443 0.00557 0.20261 0.0
H833 H 0.50637 0.06936 0.21627 0.0
H834 H 0.52468 0.07975 0.18255 0.0
H835 H 0.50958 0.04186 0.18577 0.0
H836 H 0.57114 0.08081 0.1005 0.0
H837 H 0.5259 0.99333 0.10476 0.0
H838 H 0.61048 0.08096 0.16979 0.0
H839 H 0.57779 0.09962 0.17387 0.0
H840 H 0.59866 0.10422 0.14051 0.0
H841 H 0.55624 0.97683 0.17796 0.0
H842 H 0.53091 0.96387 0.14783 0.0
H843 H 0.52032 0.98911 0.17762 0.0
C844 C 0.43046 0.62255 0.30624 0.0
C845 C 0.40412 0.60976 0.29349 0.0
C846 C 0.44078 0.61341 0.3339 0.0
C847 C 0.42417 0.59123 0.34921 0.0
C848 C 0.39577 0.58165 0.33863 0.0
C849 C 0.38615 0.59075 0.31061 0.0
C850 C 0.47095 0.62465 0.34474 0.0
C851 C 0.37692 0.559 0.35507 0.0
C852 C 0.46844 0.52977 0.37612 0.0
C853 C 0.47105 0.53638 0.40715 0.0
C854 C 0.45273 0.54721 0.35743 0.0
C855 C 0.43927 0.57218 0.36999 0.0
C856 C 0.44134 0.57888 0.40142 0.0
C857 C 0.45729 0.56078 0.41975 0.0
C858 C 0.45083 0.53889 0.32407 0.0
C859 C 0.42741 0.60537 0.41566 0.0
H860 H 0.4439 0.63831 0.2937 0.0
H861 H 0.36554 0.5811 0.30123 0.0
H862 H 0.47165 0.62924 0.36943 0.0
H863 H 0.48607 0.60701 0.33962 0.0
H864 H 0.47882 0.64546 0.33363 0.0
H865 H 0.35371 0.55942 0.34831 0.0
H866 H 0.38371 0.53604 0.34971 0.0
H867 H 0.37928 0.56334 0.37977 0.0
H868 H 0.4786 0.51067 0.36624 0.0
H869 H 0.45923 0.56594 0.44377 0.0
H870 H 0.46014 0.55792 0.31121 0.0
H871 H 0.42783 0.53425 0.31664 0.0
H872 H 0.46253 0.51867 0.31809 0.0
H873 H 0.44168 0.62619 0.413 0.0
H874 H 0.42426 0.60274 0.4401 0.0
H875 H 0.40617 0.60848 0.40466 0.0
C876 C 0.06364 0.41233 0.78238 0.0
C877 C 0.08588 0.42995 0.76915 0.0
C878 C 0.0547 0.41945 0.81158 0.0
C879 C 0.06815 0.44495 0.82786 0.0
C880 C 0.09188 0.46164 0.81537 0.0
C881 C 0.10052 0.45389 0.78616 0.0
C882 C 0.02941 0.40098 0.82407 0.0
C883 C 0.10664 0.48917 0.83182 0.0
C884 C 0.01852 0.48965 0.87545 0.0
C885 C 0.02624 0.48269 0.90491 0.0
C886 C 0.03208 0.47751 0.85051 0.0
C887 C 0.05391 0.45748 0.85481 0.0
C888 C 0.06165 0.44982 0.88436 0.0
C889 C 0.04775 0.46263 0.9092 0.0
C890 C 0.0231 0.48646 0.81947 0.0
C891 C 0.0847 0.42833 0.88967 0.0
H892 H 0.05264 0.39344 0.76952 0.0
H893 H 0.11768 0.46762 0.77603 0.0
H894 H 0.0338 0.39616 0.8479 0.0
H895 H 0.00988 0.41394 0.82338 0.0
H896 H 0.02448 0.37931 0.81099 0.0
H897 H 0.1273 0.49684 0.82131 0.0
H898 H 0.09206 0.50783 0.83159 0.0
H899 H 0.11117 0.48458 0.85568 0.0
H900 H 0.00191 0.50504 0.87166 0.0
H901 H 0.05385 0.45716 0.93183 0.0
H902 H 0.01496 0.46619 0.80555 0.0
H903 H 0.04208 0.49707 0.80806 0.0
H904 H 0.00589 0.50254 0.8201 0.0
H905 H 0.07908 0.40664 0.87689 0.0
H906 H 0.0875 0.4238 0.91386 0.0
H907 H 0.10571 0.43779 0.88129 0.0
C908 C 0.73786 0.96638 0.94757 0.0
C909 C 0.73656 0.93763 0.93304 0.0
C910 C 0.71248 0.97935 0.95679 0.0
C911 C 0.68518 0.96322 0.95134 0.0
C912 C 0.68376 0.93443 0.93627 0.0
C913 C 0.70937 0.92207 0.92731 0.0
C914 C 0.71491 0.01003 0.97284 0.0
C915 C 0.65512 0.91644 0.92985 0.0
C916 C 0.61829 0.97207 0.99736 0.0
C917 C 0.6006 0.9862 0.97731 0.0
C918 C 0.64697 0.9669 0.99035 0.0
C919 C 0.65794 0.97545 0.96226 0.0
C920 C 0.64076 0.99175 0.94292 0.0
C921 C 0.6122 0.99697 0.95073 0.0
C922 C 0.66456 0.94985 0.01184 0.0
C923 C 0.65154 0.00125 0.91278 0.0
H924 H 0.75877 0.97851 0.95227 0.0
H925 H 0.70807 0.90016 0.91555 0.0
H926 H 0.7009 0.02536 0.96137 0.0
H927 H 0.70715 0.00809 0.99613 0.0
H928 H 0.73752 0.02039 0.97385 0.0
H929 H 0.65768 0.89479 0.91717 0.0
H930 H 0.64438 0.91142 0.95129 0.0
H931 H 0.64047 0.92976 0.91667 0.0
H932 H 0.60909 0.96339 0.01772 0.0
H933 H 0.59825 0.00736 0.93499 0.0
H934 H 0.68703 0.96036 0.0144 0.0
H935 H 0.66583 0.92641 0.00272 0.0
H936 H 0.65481 0.94897 0.0344 0.0
H937 H 0.67418 0.01136 0.91486 0.0
H938 H 0.63775 0.01772 0.9027 0.0
H939 H 0.6514 0.98113 0.89715 0.0
C940 C 0.7881 0.10288 0.4781 0.0
C941 C 0.77186 0.08668 0.45489 0.0
C942 C 0.81583 0.09489 0.48654 0.0
C943 C 0.82746 0.07006 0.4715 0.0
C944 C 0.81086 0.05318 0.44861 0.0
C945 C 0.78338 0.06178 0.4405 0.0
C946 C 0.83298 0.11348 0.51093 0.0
C947 C 0.82249 0.02651 0.432 0.0
C948 C 0.90753 0.06256 0.4622 0.0
C949 C 0.91268 0.04022 0.48232 0.0
C950 C 0.88036 0.0743 0.46023 0.0
C951 C 0.85762 0.06257 0.47811 0.0
C952 C 0.86321 0.04103 0.49959 0.0
C953 C 0.89094 0.03031 0.50168 0.0
C954 C 0.87551 0.09776 0.43756 0.0
C955 C 0.83942 0.02761 0.51865 0.0
H956 H 0.7792 0.12194 0.48956 0.0
H957 H 0.77124 0.04945 0.4222 0.0
H958 H 0.84029 0.09876 0.5286 0.0
H959 H 0.8527 0.12466 0.50132 0.0
H960 H 0.82024 0.13105 0.52158 0.0
H961 H 0.80608 0.01455 0.41625 0.0
H962 H 0.84158 0.03421 0.41893 0.0
H963 H 0.8298 0.01027 0.4482 0.0
H964 H 0.92451 0.07006 0.44724 0.0
H965 H 0.895 0.01268 0.51692 0.0
H966 H 0.86386 0.11636 0.44783 0.0
H967 H 0.86181 0.08742 0.41851 0.0
H968 H 0.8962 0.10741 0.4285 0.0
H969 H 0.827 0.04555 0.529 0.0
H970 H 0.84801 0.01409 0.53675 0.0
H971 H 0.82402 0.01272 0.50421 0.0
C972 C 0.22512 0.56452 0.06414 0.0
C973 C 0.2419 0.59088 0.05796 0.0
C974 C 0.19652 0.55951 0.05321 0.0
C975 C 0.18444 0.58148 0.03571 0.0
C976 C 0.20201 0.60703 0.02745 0.0
C977 C 0.23065 0.61145 0.03872 0.0
C978 C 0.17858 0.53181 0.06241 0.0
C979 C 0.18998 0.63082 0.0087 0.0
C980 C 0.10963 0.5534 0.00629 0.0
C981 C 0.09305 0.56211 0.03068 0.0
C982 C 0.13945 0.56207 0.00593 0.0
C983 C 0.15259 0.57967 0.03053 0.0
C984 C 0.13517 0.59131 0.05334 0.0
C985 C 0.10557 0.58244 0.05305 0.0
C986 C 0.15724 0.54999 0.9808 0.0
C987 C 0.14819 0.61041 0.07986 0.0
H988 H 0.23401 0.54842 0.07868 0.0
H989 H 0.24361 0.63193 0.034 0.0
H990 H 0.16193 0.53859 0.0784 0.0
H991 H 0.16706 0.5202 0.04256 0.0
H992 H 0.19197 0.51556 0.07341 0.0
H993 H 0.2075 0.64553 0.999 0.0
H994 H 0.17566 0.6204 0.99017 0.0
H995 H 0.17675 0.64519 0.02301 0.0
H996 H 0.09994 0.53784 0.98883 0.0
H997 H 0.0926 0.58967 0.07164 0.0
H998 H 0.16804 0.53017 0.98845 0.0
H999 H 0.17441 0.56713 0.97448 0.0
H1000 H 0.14354 0.54278 0.96057 0.0
H1001 H 0.16038 0.59614 0.09468 0.0
H1002 H 0.13137 0.62082 0.09339 0.0
H1003 H 0.16367 0.62857 0.07227 0.0
C1004 C 0.27216 0.46665 0.56691 0.0
C1005 C 0.24934 0.45567 0.54735 0.0
C1006 C 0.30049 0.47112 0.55653 0.0
C1007 C 0.30595 0.46484 0.52575 0.0
C1008 C 0.28261 0.4557 0.50554 0.0
C1009 C 0.25457 0.45092 0.51666 0.0
C1010 C 0.32482 0.48074 0.57887 0.0
C1011 C 0.28746 0.44935 0.47254 0.0
C1012 C 0.38166 0.49238 0.5033 0.0
C1013 C 0.39688 0.46719 0.50933 0.0
C1014 C 0.35149 0.49153 0.50668 0.0
C1015 C 0.3364 0.46472 0.51575 0.0
C1016 C 0.35141 0.43843 0.51887 0.0
C1017 C 0.38155 0.44009 0.51594 0.0
C1018 C 0.33631 0.52003 0.50318 0.0
C1019 C 0.33607 0.40918 0.52788 0.0
H1020 H 0.26813 0.47006 0.59068 0.0
H1021 H 0.2368 0.44258 0.50151 0.0
H1022 H 0.33908 0.462 0.58129 0.0
H1023 H 0.33831 0.50022 0.57071 0.0
H1024 H 0.3167 0.48703 0.60141 0.0
H1025 H 0.26677 0.44659 0.45923 0.0
H1026 H 0.30154 0.46783 0.46333 0.0
H1027 H 0.29874 0.42835 0.46957 0.0
H1028 H 0.39358 0.51349 0.4986 0.0
H1029 H 0.39341 0.42066 0.52063 0.0
H1030 H 0.33168 0.52982 0.52576 0.0
H1031 H 0.31528 0.51521 0.49084 0.0
H1032 H 0.34976 0.53716 0.49116 0.0
H1033 H 0.32948 0.41154 0.55163 0.0
H1034 H 0.35008 0.39006 0.5257 0.0
H1035 H 0.31611 0.40366 0.51387 0.0
C1036 C 0.90289 0.71214 0.94689 0.0
C1037 C 0.91672 0.74113 0.95177 0.0
C1038 C 0.9147 0.68681 0.95857 0.0
C1039 C 0.94115 0.69043 0.97545 0.0
C1040 C 0.95438 0.71983 0.98185 0.0
C1041 C 0.94198 0.74483 0.96999 0.0
C1042 C 0.89974 0.65596 0.95123 0.0
C1043 C 0.98256 0.72475 0.99971 0.0
C1044 C 0.96522 0.62007 0.01244 0.0
C1045 C 0.98368 0.60898 0.99069 0.0
C1046 C 0.95215 0.64737 0.00864 0.0
C1047 C 0.95703 0.66336 0.9821 0.0
C1048 C 0.97618 0.65254 0.96054 0.0
C1049 C 0.98952 0.62592 0.96532 0.0
C1050 C 0.93253 0.65865 0.03254 0.0
C1051 C 0.98163 0.66833 0.93159 0.0
H1052 H 0.88307 0.70918 0.9333 0.0
H1053 H 0.95284 0.76714 0.97383 0.0
H1054 H 0.91295 0.64335 0.93524 0.0
H1055 H 0.8977 0.64288 0.9718 0.0
H1056 H 0.8778 0.6572 0.94094 0.0
H1057 H 0.98784 0.74888 0.00645 0.0
H1058 H 0.98167 0.71143 0.02019 0.0
H1059 H 0.00045 0.71688 0.98594 0.0
H1060 H 0.9606 0.6072 0.03211 0.0
H1061 H 0.00362 0.61766 0.94822 0.0
H1062 H 0.90987 0.65715 0.02367 0.0
H1063 H 0.93871 0.68272 0.03874 0.0
H1064 H 0.93332 0.64547 0.05312 0.0
H1065 H 0.96102 0.66841 0.91837 0.0
H1066 H 0.99763 0.65735 0.91742 0.0
H1067 H 0.98969 0.69216 0.93652 0.0
C1068 C 0.41899 0.81847 0.12669 0.0
C1069 C 0.42677 0.79423 0.10802 0.0
C1070 C 0.4273 0.8484 0.12018 0.0
C1071 C 0.44297 0.8542 0.09393 0.0
C1072 C 0.45105 0.82988 0.07512 0.0
C1073 C 0.44324 0.80026 0.08265 0.0
C1074 C 0.4189 0.87372 0.14106 0.0
C1075 C 0.46766 0.83505 0.04668 0.0
C1076 C 0.44373 0.92066 0.04575 0.0
C1077 C 0.47316 0.93024 0.04822 0.0
C1078 C 0.432 0.89824 0.064 0.0
C1079 C 0.4504 0.88546 0.08495 0.0
C1080 C 0.47881 0.89882 0.09085 0.0
C1081 C 0.48999 0.92113 0.07212 0.0
C1082 C 0.40145 0.88501 0.05723 0.0
C1083 C 0.49885 0.88649 0.11361 0.0
H1084 H 0.40592 0.81416 0.14614 0.0
H1085 H 0.45003 0.78179 0.06851 0.0
H1086 H 0.43797 0.88975 0.1467 0.0
H1087 H 0.40246 0.88649 0.12976 0.0
H1088 H 0.40977 0.86534 0.16227 0.0
H1089 H 0.47177 0.81364 0.03433 0.0
H1090 H 0.45537 0.84882 0.03146 0.0
H1091 H 0.48881 0.84771 0.05219 0.0
H1092 H 0.43088 0.92768 0.027 0.0
H1093 H 0.51287 0.92854 0.07379 0.0
H1094 H 0.39059 0.87788 0.07796 0.0
H1095 H 0.40212 0.86478 0.04185 0.0
H1096 H 0.38824 0.90134 0.04609 0.0
H1097 H 0.48693 0.87901 0.13364 0.0
H1098 H 0.51668 0.90352 0.12095 0.0
H1099 H 0.50867 0.86664 0.10331 0.0
C1100 C 0.05762 0.23638 0.56292 0.0
C1101 C 0.0462 0.26105 0.54988 0.0
C1102 C 0.0474 0.20688 0.55425 0.0
C1103 C 0.02532 0.20181 0.53161 0.0
C1104 C 0.01334 0.2267 0.51858 0.0
C1105 C 0.02384 0.25619 0.52806 0.0
C1106 C 0.0605 0.18112 0.56929 0.0
C1107 C 0.99006 0.22218 0.49421 0.0
C1108 C 0.0311 0.12228 0.50288 0.0
C1109 C 0.01355 0.10714 0.5234 0.0
C1110 C 0.03203 0.15382 0.50191 0.0
C1111 C 0.01531 0.17018 0.52228 0.0
C1112 C 0.99443 0.15444 0.53968 0.0
C1113 C 0.99389 0.12295 0.5401 0.0
C1114 C 0.05402 0.16966 0.48238 0.0
C1115 C 0.97586 0.17083 0.56142 0.0
H1116 H 0.07468 0.24026 0.58005 0.0
H1117 H 0.01515 0.27539 0.51792 0.0
H1118 H 0.04329 0.16666 0.57974 0.0
H1119 H 0.07101 0.16687 0.55232 0.0
H1120 H 0.07695 0.18906 0.58699 0.0
H1121 H 0.98071 0.24364 0.48891 0.0
H1122 H -0.00062 0.21266 0.47346 0.0
H1123 H 0.97237 0.20581 0.50087 0.0
H1124 H 0.04649 0.10997 0.49018 0.0
H1125 H 0.9805 0.11111 0.55615 0.0
H1126 H 0.07391 0.17667 0.49608 0.0
H1127 H 0.04563 0.19023 0.47338 0.0
H1128 H 0.06008 0.15466 0.46331 0.0
H1129 H 0.98881 0.17749 0.58226 0.0
H1130 H 0.95655 0.15628 0.56763 0.0
H1131 H 0.96857 0.19163 0.55187 0.0
C1132 C 0.58373 0.2924 0.44299 0.0
C1133 C 0.573 0.26373 0.45116 0.0
C1134 C 0.56976 0.31814 0.45165 0.0
C1135 C 0.5443 0.31507 0.46868 0.0
C1136 C 0.53402 0.28632 0.47802 0.0
C1137 C 0.54858 0.26094 0.46921 0.0
C1138 C 0.58163 0.34846 0.4415 0.0
C1139 C 0.50693 0.28219 0.49611 0.0
C1140 C 0.52078 0.38937 0.50104 0.0
C1141 C 0.50228 0.39747 0.47787 0.0
C1142 C 0.53334 0.3616 0.49942 0.0
C1143 C 0.52717 0.34162 0.47407 0.0
C1144 C 0.50668 0.34868 0.45191 0.0
C1145 C 0.4944 0.37645 0.45417 0.0
C1146 C 0.55483 0.35471 0.52366 0.0
C1147 C 0.49941 0.32799 0.42455 0.0
H1148 H 0.60288 0.29463 0.42942 0.0
H1149 H 0.54019 0.23876 0.47544 0.0
H1150 H 0.566 0.35723 0.42544 0.0
H1151 H 0.58446 0.36493 0.46097 0.0
H1152 H 0.60277 0.34727 0.43035 0.0
H1153 H 0.50354 0.25901 0.50428 0.0
H1154 H 0.50796 0.29853 0.51572 0.0
H1155 H 0.48782 0.28671 0.48201 0.0
H1156 H 0.52695 0.40546 0.51948 0.0
H1157 H 0.47988 0.38241 0.43632 0.0
H1158 H 0.57709 0.35758 0.51495 0.0
H1159 H 0.5511 0.33101 0.53019 0.0
H1160 H 0.55365 0.36988 0.54402 0.0
H1161 H 0.51855 0.32769 0.40998 0.0
H1162 H 0.4809 0.33525 0.41109 0.0
H1163 H 0.49405 0.30458 0.43126 0.0
loop_
_geom_bond_atom_site_label_1
_geom_bond_atom_site_label_2
_geom_bond_distance
_geom_bond_site_symmetry_2
_ccdc_geom_bond_type
C0 C1 1.386 . S
C0 C2 1.397 . S
C0 H24 0.931 . S
C1 C0 1.386 . S
C1 C5 1.397 . S
C2 C0 1.397 . S
C2 C3 1.384 . S
C2 H25 0.930 . S
C3 C2 1.384 . S
C3 C4 1.377 . S
C3 C6 1.481 . S
C4 C3 1.377 . S
C4 C5 1.389 . S
C4 H26 0.929 . S
C5 C1 1.397 . S
C5 C4 1.389 . S
C5 H27 0.931 . S
C6 C3 1.481 . S
C6 C7 1.387 . S
C6 C11 1.390 . S
C7 C6 1.387 . S
C7 C8 1.401 . S
C7 H28 0.930 . S
C8 C7 1.401 . S
C8 C9 1.376 . S
C8 C17 1.511 . S
C9 C8 1.376 . S
C9 C10 1.392 . S
C9 H30 0.931 . S
C10 C9 1.392 . S
C10 C11 1.361 . S
C10 C12 1.500 . S
C11 C6 1.390 . S
C11 C10 1.361 . S
C11 H29 0.931 . S
C12 C10 1.500 . S
C12 C13 1.371 . S
C12 C14 1.365 . S
C13 C12 1.371 . S
C13 C23 1.386 . S
C13 H31 0.931 . S
C14 C12 1.365 . S
C14 C15 1.409 . S
C14 H32 0.929 . S
C15 C14 1.409 . S
C15 C16 1.380 . S
C15 H33 0.930 . S
C16 C15 1.380 . S
C16 C23 1.357 . S
C17 C8 1.511 . S
C17 C18 1.341 . S
C17 C19 1.371 . S
C18 C17 1.341 . S
C18 C22 1.394 . S
C18 H34 0.930 . S
C19 C17 1.371 . S
C19 C20 1.392 . S
C19 H35 0.931 . S
C20 C19 1.392 . S
C20 C21 1.331 . S
C20 H38 0.932 . S
C21 C20 1.331 . S
C21 C22 1.336 . S
C22 C18 1.394 . S
C22 C21 1.336 . S
C22 H37 0.929 . S
C23 C13 1.386 . S
C23 C16 1.357 . S
C23 H36 0.928 . S
H24 C0 0.931 . S
H25 C2 0.930 . S
H26 C4 0.929 . S
H27 C5 0.931 . S
H28 C7 0.930 . S
H29 C11 0.931 . S
H30 C9 0.931 . S
H31 C13 0.931 . S
H32 C14 0.929 . S
H33 C15 0.930 . S
H34 C18 0.930 . S
H35 C19 0.931 . S
H36 C23 0.928 . S
H37 C22 0.929 . S
H38 C20 0.932 . S
C39 C40 1.386 . S
C39 C41 1.397 . S
C39 H63 0.931 . S
C40 C39 1.386 . S
C40 C44 1.397 . S
C41 C39 1.397 . S
C41 C42 1.384 . S
C41 H64 0.930 . S
C42 C41 1.384 . S
C42 C43 1.377 . S
C42 C45 1.481 . S
C43 C42 1.377 . S
C43 C44 1.389 . S
C43 H65 0.929 . S
C44 C40 1.397 . S
C44 C43 1.389 . S
C44 H66 0.931 . S
C45 C42 1.481 . S
C45 C46 1.387 . S
C45 C50 1.390 . S
C46 C45 1.387 . S
C46 C47 1.401 . S
C46 H67 0.930 . S
C47 C46 1.401 . S
C47 C48 1.376 . S
C47 C56 1.511 . S
C48 C47 1.376 . S
C48 C49 1.392 . S
C48 H69 0.931 . S
C49 C48 1.392 . S
C49 C50 1.361 . S
C49 C51 1.500 . S
C50 C45 1.390 . S
C50 C49 1.361 . S
C50 H68 0.931 . S
C51 C49 1.500 . S
C51 C52 1.371 . S
C51 C53 1.365 . S
C52 C51 1.371 . S
C52 C62 1.386 . S
C52 H70 0.931 . S
C53 C51 1.365 . S
C53 C54 1.409 . S
C53 H71 0.929 . S
C54 C53 1.409 . S
C54 C55 1.380 . S
C54 H72 0.930 . S
C55 C54 1.380 . S
C55 C62 1.357 . S
C56 C47 1.511 . S
C56 C57 1.341 . S
C56 C58 1.371 . S
C57 C56 1.341 . S
C57 C61 1.394 . S
C57 H73 0.930 . S
C58 C56 1.371 . S
C58 C59 1.392 . S
C58 H74 0.931 . S
C59 C58 1.392 . S
C59 C60 1.331 . S
C59 H77 0.932 . S
C60 C59 1.331 . S
C60 C61 1.336 . S
C61 C57 1.394 . S
C61 C60 1.336 . S
C61 H76 0.929 . S
C62 C52 1.386 . S
C62 C55 1.357 . S
C62 H75 0.928 . S
H63 C39 0.931 . S
H64 C41 0.930 . S
H65 C43 0.929 . S
H66 C44 0.931 . S
H67 C46 0.930 . S
H68 C50 0.931 . S
H69 C48 0.931 . S
H70 C52 0.931 . S
H71 C53 0.929 . S
H72 C54 0.930 . S
H73 C57 0.930 . S
H74 C58 0.931 . S
H75 C62 0.928 . S
H76 C61 0.929 . S
H77 C59 0.932 . S
C78 C79 1.386 . S
C78 C80 1.397 . S
C78 H102 0.931 . S
C79 C78 1.386 . S
C79 C83 1.397 . S
C80 C78 1.397 . S
C80 C81 1.384 . S
C80 H103 0.930 . S
C81 C80 1.384 . S
C81 C82 1.377 . S
C81 C84 1.481 . S
C82 C81 1.377 . S
C82 C83 1.389 . S
C82 H104 0.929 . S
C83 C79 1.397 . S
C83 C82 1.389 . S
C83 H105 0.931 . S
C84 C81 1.481 . S
C84 C85 1.387 . S
C84 C89 1.390 . S
C85 C84 1.387 . S
C85 C86 1.401 . S
C85 H106 0.930 . S
C86 C85 1.401 . S
C86 C87 1.376 . S
C86 C95 1.511 . S
C87 C86 1.376 . S
C87 C88 1.392 . S
C87 H108 0.931 . S
C88 C87 1.392 . S
C88 C89 1.361 . S
C88 C90 1.500 . S
C89 C84 1.390 . S
C89 C88 1.361 . S
C89 H107 0.931 . S
C90 C88 1.500 . S
C90 C91 1.371 . S
C90 C92 1.365 . S
C91 C90 1.371 . S
C91 C101 1.386 . S
C91 H109 0.931 . S
C92 C90 1.365 . S
C92 C93 1.409 . S
C92 H110 0.929 . S
C93 C92 1.409 . S
C93 C94 1.380 . S
C93 H111 0.930 . S
C94 C93 1.380 . S
C94 C101 1.357 . S
C95 C86 1.511 . S
C95 C96 1.341 . S
C95 C97 1.371 . S
C96 C95 1.341 . S
C96 C100 1.394 . S
C96 H112 0.930 . S
C97 C95 1.371 . S
C97 C98 1.392 . S
C97 H113 0.931 . S
C98 C97 1.392 . S
C98 C99 1.331 . S
C98 H116 0.932 . S
C99 C98 1.331 . S
C99 C100 1.336 . S
C100 C96 1.394 . S
C100 C99 1.336 . S
C100 H115 0.929 . S
C101 C91 1.386 . S
C101 C94 1.357 . S
C101 H114 0.928 . S
H102 C78 0.931 . S
H103 C80 0.930 . S
H104 C82 0.929 . S
H105 C83 0.931 . S
H106 C85 0.930 . S
H107 C89 0.931 . S
H108 C87 0.931 . S
H109 C91 0.931 . S
H110 C92 0.929 . S
H111 C93 0.930 . S
H112 C96 0.930 . S
H113 C97 0.931 . S
H114 C101 0.928 . S
H115 C100 0.929 . S
H116 C98 0.932 . S
C117 C118 1.386 . S
C117 C119 1.397 . S
C117 H141 0.931 . S
C118 C117 1.386 . S
C118 C122 1.397 . S
C119 C117 1.397 . S
C119 C120 1.384 . S
C119 H142 0.930 . S
C120 C119 1.384 . S
C120 C121 1.377 . S
C120 C123 1.481 . S
C121 C120 1.377 . S
C121 C122 1.389 . S
C121 H143 0.929 . S
C122 C118 1.397 . S
C122 C121 1.389 . S
C122 H144 0.931 . S
C123 C120 1.481 . S
C123 C124 1.387 . S
C123 C128 1.390 . S
C124 C123 1.387 . S
C124 C125 1.401 . S
C124 H145 0.930 . S
C125 C124 1.401 . S
C125 C126 1.376 . S
C125 C134 1.511 . S
C126 C125 1.376 . S
C126 C127 1.392 . S
C126 H147 0.931 . S
C127 C126 1.392 . S
C127 C128 1.361 . S
C127 C129 1.500 . S
C128 C123 1.390 . S
C128 C127 1.361 . S
C128 H146 0.931 . S
C129 C127 1.500 . S
C129 C130 1.371 . S
C129 C131 1.365 . S
C130 C129 1.371 . S
C130 C140 1.386 . S
C130 H148 0.931 . S
C131 C129 1.365 . S
C131 C132 1.409 . S
C131 H149 0.929 . S
C132 C131 1.409 . S
C132 C133 1.380 . S
C132 H150 0.930 . S
C133 C132 1.380 . S
C133 C140 1.357 . S
C134 C125 1.511 . S
C134 C135 1.341 . S
C134 C136 1.371 . S
C135 C134 1.341 . S
C135 C139 1.394 . S
C135 H151 0.930 . S
C136 C134 1.371 . S
C136 C137 1.392 . S
C136 H152 0.931 . S
C137 C136 1.392 . S
C137 C138 1.331 . S
C137 H155 0.932 . S
C138 C137 1.331 . S
C138 C139 1.336 . S
C139 C135 1.394 . S
C139 C138 1.336 . S
C139 H154 0.929 . S
C140 C130 1.386 . S
C140 C133 1.357 . S
C140 H153 0.928 . S
H141 C117 0.931 . S
H142 C119 0.930 . S
H143 C121 0.929 . S
H144 C122 0.931 . S
H145 C124 0.930 . S
H146 C128 0.931 . S
H147 C126 0.931 . S
H148 C130 0.931 . S
H149 C131 0.929 . S
H150 C132 0.930 . S
H151 C135 0.930 . S
H152 C136 0.931 . S
H153 C140 0.928 . S
H154 C139 0.929 . S
H155 C137 0.932 . S
C156 C157 1.386 . S
C156 C158 1.397 . S
C156 H180 0.931 . S
C157 C156 1.386 . S
C157 C161 1.397 . S
C158 C156 1.397 . S
C158 C159 1.384 . S
C158 H181 0.930 . S
C159 C158 1.384 . S
C159 C160 1.377 . S
C159 C162 1.481 . S
C160 C159 1.377 . S
C160 C161 1.389 . S
C160 H182 0.929 . S
C161 C157 1.397 . S
C161 C160 1.389 . S
C161 H183 0.931 . S
C162 C159 1.481 . S
C162 C163 1.387 . S
C162 C167 1.390 . S
C163 C162 1.387 . S
C163 C164 1.401 . S
C163 H184 0.930 . S
C164 C163 1.401 . S
C164 C165 1.376 . S
C164 C173 1.511 . S
C165 C164 1.376 . S
C165 C166 1.392 . S
C165 H186 0.931 . S
C166 C165 1.392 . S
C166 C167 1.361 . S
C166 C168 1.500 . S
C167 C162 1.390 . S
C167 C166 1.361 . S
C167 H185 0.931 . S
C168 C166 1.500 . S
C168 C169 1.371 . S
C168 C170 1.365 . S
C169 C168 1.371 . S
C169 C179 1.386 . S
C169 H187 0.931 . S
C170 C168 1.365 . S
C170 C171 1.409 . S
C170 H188 0.929 . S
C171 C170 1.409 . S
C171 C172 1.380 . S
C171 H189 0.930 . S
C172 C171 1.380 . S
C172 C179 1.357 . S
C173 C164 1.511 . S
C173 C174 1.341 . S
C173 C175 1.371 . S
C174 C173 1.341 . S
C174 C178 1.394 . S
C174 H190 0.930 . S
C175 C173 1.371 . S
C175 C176 1.392 . S
C175 H191 0.931 . S
C176 C175 1.392 . S
C176 C177 1.331 . S
C176 H194 0.932 . S
C177 C176 1.331 . S
C177 C178 1.336 . S
C178 C174 1.394 . S
C178 C177 1.336 . S
C178 H193 0.929 . S
C179 C169 1.386 . S
C179 C172 1.357 . S
C179 H192 0.928 . S
H180 C156 0.931 . S
H181 C158 0.930 . S
H182 C160 0.929 . S
H183 C161 0.931 . S
H184 C163 0.930 . S
H185 C167 0.931 . S
H186 C165 0.931 . S
H187 C169 0.931 . S
H188 C170 0.929 . S
H189 C171 0.930 . S
H190 C174 0.930 . S
H191 C175 0.931 . S
H192 C179 0.928 . S
H193 C178 0.929 . S
H194 C176 0.932 . S
C195 C196 1.386 . S
C195 C197 1.397 . S
C195 H219 0.931 . S
C196 C195 1.386 . S
C196 C200 1.397 . S
C197 C195 1.397 . S
C197 C198 1.384 . S
C197 H220 0.930 . S
C198 C197 1.384 . S
C198 C199 1.377 . S
C198 C201 1.481 . S
C199 C198 1.377 . S
C199 C200 1.389 . S
C199 H221 0.929 . S
C200 C196 1.397 . S
C200 C199 1.389 . S
C200 H222 0.931 . S
C201 C198 1.481 . S
C201 C202 1.387 . S
C201 C206 1.390 . S
C202 C201 1.387 . S
C202 C203 1.401 . S
C202 H223 0.930 . S
C203 C202 1.401 . S
C203 C204 1.376 . S
C203 C212 1.511 . S
C204 C203 1.376 . S
C204 C205 1.392 . S
C204 H225 0.931 . S
C205 C204 1.392 . S
C205 C206 1.361 . S
C205 C207 1.500 . S
C206 C201 1.390 . S
C206 C205 1.361 . S
C206 H224 0.931 . S
C207 C205 1.500 . S
C207 C208 1.371 . S
C207 C209 1.365 . S
C208 C207 1.371 . S
C208 C218 1.386 . S
C208 H226 0.931 . S
C209 C207 1.365 . S
C209 C210 1.409 . S
C209 H227 0.929 . S
C210 C209 1.409 . S
C210 C211 1.380 . S
C210 H228 0.930 . S
C211 C210 1.380 . S
C211 C218 1.357 . S
C212 C203 1.511 . S
C212 C213 1.341 . S
C212 C214 1.371 . S
C213 C212 1.341 . S
C213 C217 1.394 . S
C213 H229 0.930 . S
C214 C212 1.371 . S
C214 C215 1.392 . S
C214 H230 0.931 . S
C215 C214 1.392 . S
C215 C216 1.331 . S
C215 H233 0.932 . S
C216 C215 1.331 . S
C216 C217 1.336 . S
C217 C213 1.394 . S
C217 C216 1.336 . S
C217 H232 0.929 . S
C218 C208 1.386 . S
C218 C211 1.357 . S
C218 H231 0.928 . S
H219 C195 0.931 . S
H220 C197 0.930 . S
H221 C199 0.929 . S
H222 C200 0.931 . S
H223 C202 0.930 . S
H224 C206 0.931 . S
H225 C204 0.931 . S
H226 C208 0.931 . S
H227 C209 0.929 . S
H228 C210 0.930 . S
H229 C213 0.930 . S
H230 C214 0.931 . S
H231 C218 0.928 . S
H232 C217 0.929 . S
H233 C215 0.932 . S
C234 C235 1.386 . S
C234 C236 1.397 . S
C234 H258 0.931 . S
C235 C234 1.386 . S
C235 C239 1.397 . S
C236 C234 1.397 . S
C236 C237 1.384 . S
C236 H259 0.930 . S
C237 C236 1.384 . S
C237 C238 1.377 . S
C237 C240 1.481 . S
C238 C237 1.377 . S
C238 C239 1.389 . S
C238 H260 0.929 . S
C239 C235 1.397 . S
C239 C238 1.389 . S
C239 H261 0.931 . S
C240 C237 1.481 . S
C240 C241 1.387 . S
C240 C245 1.390 . S
C241 C240 1.387 . S
C241 C242 1.401 . S
C241 H262 0.930 . S
C242 C241 1.401 . S
C242 C243 1.376 . S
C242 C251 1.511 . S
C243 C242 1.376 . S
C243 C244 1.392 . S
C243 H264 0.931 . S
C244 C243 1.392 . S
C244 C245 1.361 . S
C244 C246 1.500 . S
C245 C240 1.390 . S
C245 C244 1.361 . S
C245 H263 0.931 . S
C246 C244 1.500 . S
C246 C247 1.371 . S
C246 C248 1.365 . S
C247 C246 1.371 . S
C247 C257 1.386 . S
C247 H265 0.931 . S
C248 C246 1.365 . S
C248 C249 1.409 . S
C248 H266 0.929 . S
C249 C248 1.409 . S
C249 C250 1.380 . S
C249 H267 0.930 . S
C250 C249 1.380 . S
C250 C257 1.357 . S
C251 C242 1.511 . S
C251 C252 1.341 . S
C251 C253 1.371 . S
C252 C251 1.341 . S
C252 C256 1.394 . S
C252 H268 0.930 . S
C253 C251 1.371 . S
C253 C254 1.392 . S
C253 H269 0.931 . S
C254 C253 1.392 . S
C254 C255 1.331 . S
C254 H272 0.932 . S
C255 C254 1.331 . S
C255 C256 1.336 . S
C256 C252 1.394 . S
C256 C255 1.336 . S
C256 H271 0.929 . S
C257 C247 1.386 . S
C257 C250 1.357 . S
C257 H270 0.928 . S
H258 C234 0.931 . S
H259 C236 0.930 . S
H260 C238 0.929 . S
H261 C239 0.931 . S
H262 C241 0.930 . S
H263 C245 0.931 . S
H264 C243 0.931 . S
H265 C247 0.931 . S
H266 C248 0.929 . S
H267 C249 0.930 . S
H268 C252 0.930 . S
H269 C253 0.931 . S
H270 C257 0.928 . S
H271 C256 0.929 . S
H272 C254 0.932 . S
C273 C274 1.386 . S
C273 C275 1.397 . S
C273 H297 0.931 . S
C274 C273 1.386 . S
C274 C278 1.397 . S
C275 C273 1.397 . S
C275 C276 1.384 . S
C275 H298 0.930 . S
C276 C275 1.384 . S
C276 C277 1.377 . S
C276 C279 1.481 . S
C277 C276 1.377 . S
C277 C278 1.389 . S
C277 H299 0.929 . S
C278 C274 1.397 . S
C278 C277 1.389 . S
C278 H300 0.931 . S
C279 C276 1.481 . S
C279 C280 1.387 . S
C279 C284 1.390 . S
C280 C279 1.387 . S
C280 C281 1.401 . S
C280 H301 0.930 . S
C281 C280 1.401 . S
C281 C282 1.376 . S
C281 C290 1.511 . S
C282 C281 1.376 . S
C282 C283 1.392 . S
C282 H303 0.931 . S
C283 C282 1.392 . S
C283 C284 1.361 . S
C283 C285 1.500 . S
C284 C279 1.390 . S
C284 C283 1.361 . S
C284 H302 0.931 . S
C285 C283 1.500 . S
C285 C286 1.371 . S
C285 C287 1.365 . S
C286 C285 1.371 . S
C286 C296 1.386 . S
C286 H304 0.931 . S
C287 C285 1.365 . S
C287 C288 1.409 . S
C287 H305 0.929 . S
C288 C287 1.409 . S
C288 C289 1.380 . S
C288 H306 0.930 . S
C289 C288 1.380 . S
C289 C296 1.357 . S
C290 C281 1.511 . S
C290 C291 1.341 . S
C290 C292 1.371 . S
C291 C290 1.341 . S
C291 C295 1.394 . S
C291 H307 0.930 . S
C292 C290 1.371 . S
C292 C293 1.392 . S
C292 H308 0.931 . S
C293 C292 1.392 . S
C293 C294 1.331 . S
C293 H311 0.932 . S
C294 C293 1.331 . S
C294 C295 1.336 . S
C295 C291 1.394 . S
C295 C294 1.336 . S
C295 H310 0.929 . S
C296 C286 1.386 . S
C296 C289 1.357 . S
C296 H309 0.928 . S
H297 C273 0.931 . S
H298 C275 0.930 . S
H299 C277 0.929 . S
H300 C278 0.931 . S
H301 C280 0.930 . S
H302 C284 0.931 . S
H303 C282 0.931 . S
H304 C286 0.931 . S
H305 C287 0.929 . S
H306 C288 0.930 . S
H307 C291 0.930 . S
H308 C292 0.931 . S
H309 C296 0.928 . S
H310 C295 0.929 . S
H311 C293 0.932 . S
O312 Mg313 1.990 . S
O312 C326 1.253 1_445 S
Mg313 O312 1.990 . S
Mg313 O316 2.180 . S
Mg313 O317 2.117 . S
Mg313 O331 2.030 1_545 S
O314 Mg315 2.072 1_665 S
O314 C326 1.260 . S
Mg315 O314 2.072 1_445 S
Mg315 O316 2.099 . S
Mg315 O318 2.079 . S
Mg315 O319 2.072 1_455 S
Mg315 O321 2.099 1_445 S
Mg315 O332 2.079 1_545 S
O316 Mg313 2.180 . S
O316 Mg315 2.099 . S
O316 C327 1.279 . S
O317 Mg313 2.117 . S
O317 C327 1.250 . S
O318 Mg315 2.079 . S
O318 C328 1.264 . S
O319 Mg315 2.072 1_655 S
O319 C329 1.260 . S
Mg320 O321 2.180 . S
Mg320 O322 2.030 1_565 S
Mg320 O323 1.990 1_565 S
Mg320 O324 2.117 . S
O321 Mg315 2.099 1_665 S
O321 Mg320 2.180 . S
O321 C330 1.279 . S
O322 Mg320 2.030 1_545 S
O322 C328 1.248 1_655 S
O323 Mg320 1.990 1_545 S
O323 C329 1.253 . S
O324 Mg320 2.117 . S
O324 C330 1.250 . S
C325 O331 1.248 . S
C325 O332 1.264 . S
C326 O312 1.253 1_665 S
C326 O314 1.260 . S
C327 O316 1.279 . S
C327 O317 1.250 . S
C328 O318 1.264 . S
C328 O322 1.248 1_455 S
C329 O319 1.260 . S
C329 O323 1.253 . S
C330 O321 1.279 . S
C330 O324 1.250 . S
O331 Mg313 2.030 1_565 S
O331 C325 1.248 . S
O332 Mg315 2.079 1_565 S
O332 C325 1.264 . S
O333 Mg334 1.990 . S
O333 C347 1.253 . S
Mg334 O333 1.990 . S
Mg334 O337 2.166 1_554 S
Mg334 O338 2.117 1_554 S
Mg334 O352 2.030 . S
O335 Mg336 2.072 . S
O335 C347 1.260 . S
Mg336 O335 2.072 . S
Mg336 O337 2.095 1_554 S
Mg336 O339 2.079 1_554 S
Mg336 O340 2.072 1_554 S
Mg336 O342 2.099 1_545 S
Mg336 O353 2.079 . S
O337 Mg334 2.166 1_556 S
O337 Mg336 2.095 1_556 S
O337 C348 1.293 . S
O338 Mg334 2.117 1_556 S
O338 C348 1.250 . S
O339 Mg336 2.079 1_556 S
O339 C349 1.264 1_545 S
O340 Mg336 2.072 1_556 S
O340 C350 1.260 1_545 S
Mg341 O342 2.180 1_556 S
Mg341 O343 2.030 . S
Mg341 O344 1.990 . S
Mg341 O345 2.117 1_556 S
O342 Mg336 2.099 1_565 S
O342 Mg341 2.180 1_554 S
O342 C351 1.279 . S
O343 Mg341 2.030 . S
O343 C349 1.248 . S
O344 Mg341 1.990 . S
O344 C350 1.253 . S
O345 Mg341 2.117 1_554 S
O345 C351 1.250 . S
C346 O352 1.248 . S
C346 O353 1.264 . S
C347 O333 1.253 . S
C347 O335 1.260 . S
C348 O337 1.293 . S
C348 O338 1.250 . S
C349 O339 1.264 1_565 S
C349 O343 1.248 . S
C350 O340 1.260 1_565 S
C350 O344 1.253 . S
C351 O342 1.279 . S
C351 O345 1.250 . S
O352 Mg334 2.030 . S
O352 C346 1.248 . S
O353 Mg336 2.079 . S
O353 C346 1.264 . S
O354 Mg355 1.990 . S
O354 C368 1.253 . S
Mg355 O354 1.990 . S
Mg355 O358 2.180 . S
Mg355 O359 2.117 . S
Mg355 O373 2.030 . S
O356 Mg357 2.072 . S
O356 C368 1.260 . S
Mg357 O356 2.072 . S
Mg357 O358 2.099 . S
Mg357 O360 2.079 . S
Mg357 O361 2.072 . S
Mg357 O363 2.099 . S
Mg357 O374 2.079 . S
O358 Mg355 2.180 . S
O358 Mg357 2.099 . S
O358 C369 1.279 . S
O359 Mg355 2.117 . S
O359 C369 1.250 . S
O360 Mg357 2.079 . S
O360 C370 1.264 . S
O361 Mg357 2.072 . S
O361 C371 1.260 . S
Mg362 O363 2.180 . S
Mg362 O364 2.030 . S
Mg362 O365 1.990 . S
Mg362 O366 2.117 . S
O363 Mg357 2.099 . S
O363 Mg362 2.180 . S
O363 C372 1.279 . S
O364 Mg362 2.030 . S
O364 C370 1.248 . S
O365 Mg362 1.990 . S
O365 C371 1.253 . S
O366 Mg362 2.117 . S
O366 C372 1.250 . S
C367 O373 1.248 . S
C367 O374 1.264 . S
C368 O354 1.253 . S
C368 O356 1.260 . S
C369 O358 1.279 . S
C369 O359 1.250 . S
C370 O360 1.264 . S
C370 O364 1.248 . S
C371 O361 1.260 . S
C371 O365 1.253 . S
C372 O363 1.279 . S
C372 O366 1.250 . S
O373 Mg355 2.030 . S
O373 C367 1.248 . S
O374 Mg357 2.079 . S
O374 C367 1.264 . S
O375 Mg376 1.990 . S
O375 C389 1.253 . S
Mg376 O375 1.990 . S
Mg376 O379 2.180 1_455 S
Mg376 O380 2.117 1_455 S
Mg376 O394 2.030 . S
O377 Mg378 2.072 . S
O377 C389 1.260 . S
Mg378 O377 2.072 . S
Mg378 O379 2.099 1_455 S
Mg378 O381 2.079 1_454 S
Mg378 O382 2.072 1_455 S
Mg378 O384 2.099 1_554 S
Mg378 O395 2.079 . S
O379 Mg376 2.180 1_655 S
O379 Mg378 2.099 1_655 S
O379 C390 1.279 . S
O380 Mg376 2.117 1_655 S
O380 C390 1.250 . S
O381 Mg378 2.079 1_656 S
O381 C391 1.264 . S
O382 Mg378 2.072 1_655 S
O382 C392 1.260 1_554 S
Mg383 O384 2.180 1_655 S
Mg383 O385 2.030 . S
Mg383 O386 1.990 . S
Mg383 O387 2.117 . S
O384 Mg378 2.099 1_556 S
O384 Mg383 2.180 1_455 S
O384 C393 1.279 . S
O385 Mg383 2.030 . S
O385 C391 1.248 . S
O386 Mg383 1.990 . S
O386 C392 1.253 . S
O387 Mg383 2.117 . S
O387 C393 1.250 1_655 S
C388 O394 1.248 . S
C388 O395 1.264 . S
C389 O375 1.253 . S
C389 O377 1.260 . S
C390 O379 1.279 . S
C390 O380 1.250 . S
C391 O381 1.264 . S
C391 O385 1.248 . S
C392 O382 1.260 1_556 S
C392 O386 1.253 . S
C393 O384 1.279 . S
C393 O387 1.250 1_455 S
O394 Mg376 2.030 . S
O394 C388 1.248 . S
O395 Mg378 2.079 . S
O395 C388 1.264 . S
C396 C397 1.391 . S
C396 C398 1.394 . S
C396 H412 0.931 . S
C397 C396 1.391 . S
C397 C401 1.376 . S
C398 C396 1.394 . S
C398 C399 1.369 . S
C398 C402 1.531 . S
C399 C398 1.369 . S
C399 C400 1.410 . S
C399 C407 1.503 . S
C400 C399 1.410 . S
C400 C401 1.392 . S
C400 C403 1.511 . S
C401 C397 1.376 . S
C401 C400 1.392 . S
C401 H413 0.929 . S
C402 C398 1.531 . S
C402 H414 0.960 . S
C402 H415 0.962 1_545 S
C402 H416 0.960 1_545 S
C403 C400 1.511 . S
C403 H417 0.961 . S
C403 H418 0.961 . S
C403 H419 0.961 . S
C404 C405 1.370 . S
C404 C406 1.363 . S
C404 H420 0.931 1_455 S
C405 C404 1.370 . S
C405 C409 1.408 . S
C406 C404 1.363 . S
C406 C407 1.370 . S
C406 C410 1.524 . S
C407 C399 1.503 . S
C407 C406 1.370 . S
C407 C408 1.403 . S
C408 C407 1.403 . S
C408 C409 1.404 . S
C408 C411 1.539 . S
C409 C405 1.408 . S
C409 C408 1.404 . S
C409 H421 0.930 . S
C410 C406 1.524 . S
C410 H422 0.956 . S
C410 H423 0.961 . S
C410 H424 0.961 1_455 S
C411 C408 1.539 . S
C411 H425 0.958 . S
C411 H426 0.961 . S
C411 H427 0.960 . S
H412 C396 0.931 . S
H413 C401 0.929 . S
H414 C402 0.960 . S
H415 C402 0.962 1_565 S
H416 C402 0.960 1_565 S
H417 C403 0.961 . S
H418 C403 0.961 . S
H419 C403 0.961 . S
H420 C404 0.931 1_655 S
H421 C409 0.930 . S
H422 C410 0.956 . S
H423 C410 0.961 . S
H424 C410 0.961 1_655 S
H425 C411 0.958 . S
H426 C411 0.961 . S
H427 C411 0.960 . S
C428 C429 1.391 . S
C428 C430 1.394 . S
C428 H444 0.931 . S
C429 C428 1.391 . S
C429 C433 1.376 . S
C430 C428 1.394 . S
C430 C431 1.369 . S
C430 C434 1.531 . S
C431 C430 1.369 . S
C431 C432 1.410 . S
C431 C439 1.503 . S
C432 C431 1.410 . S
C432 C433 1.392 . S
C432 C435 1.511 1_565 S
C433 C429 1.376 . S
C433 C432 1.392 . S
C433 H445 0.929 . S
C434 C430 1.531 . S
C434 H446 0.960 . S
C434 H447 0.962 . S
C434 H448 0.960 . S
C435 C432 1.511 1_545 S
C435 H449 0.961 . S
C435 H450 0.961 . S
C435 H451 0.961 . S
C436 C437 1.370 . S
C436 C438 1.363 . S
C436 H452 0.931 . S
C437 C436 1.370 . S
C437 C441 1.408 1_565 S
C438 C436 1.363 . S
C438 C439 1.370 . S
C438 C442 1.524 . S
C439 C431 1.503 . S
C439 C438 1.370 . S
C439 C440 1.403 . S
C440 C439 1.403 . S
C440 C441 1.404 1_565 S
C440 C443 1.539 1_565 S
C441 C437 1.408 1_545 S
C441 C440 1.404 1_545 S
C441 H453 0.930 . S
C442 C438 1.524 . S
C442 H454 0.956 . S
C442 H455 0.961 . S
C442 H456 0.961 . S
C443 C440 1.539 1_545 S
C443 H457 0.958 . S
C443 H458 0.961 . S
C443 H459 0.960 . S
H444 C428 0.931 . S
H445 C433 0.929 . S
H446 C434 0.960 . S
H447 C434 0.962 . S
H448 C434 0.960 . S
H449 C435 0.961 . S
H450 C435 0.961 . S
H451 C435 0.961 . S
H452 C436 0.931 . S
H453 C441 0.930 . S
H454 C442 0.956 . S
H455 C442 0.961 . S
H456 C442 0.961 . S
H457 C443 0.958 . S
H458 C443 0.961 . S
H459 C443 0.960 . S
C460 C461 1.391 . S
C460 C462 1.394 . S
C460 H476 0.931 . S
C461 C460 1.391 . S
C461 C465 1.376 . S
C462 C460 1.394 . S
C462 C463 1.369 . S
C462 C466 1.531 . S
C463 C462 1.369 . S
C463 C464 1.410 . S
C463 C471 1.503 . S
C464 C463 1.410 . S
C464 C465 1.392 . S
C464 C467 1.511 . S
C465 C461 1.376 . S
C465 C464 1.392 . S
C465 H477 0.929 . S
C466 C462 1.531 . S
C466 H478 0.960 . S
C466 H479 0.962 . S
C466 H480 0.960 . S
C467 C464 1.511 . S
C467 H481 0.961 . S
C467 H482 0.961 . S
C467 H483 0.961 . S
C468 C469 1.370 . S
C468 C470 1.363 . S
C468 H484 0.931 . S
C469 C468 1.370 . S
C469 C473 1.408 . S
C470 C468 1.363 . S
C470 C471 1.370 . S
C470 C474 1.524 . S
C471 C463 1.503 . S
C471 C470 1.370 . S
C471 C472 1.403 . S
C472 C471 1.403 . S
C472 C473 1.404 . S
C472 C475 1.539 . S
C473 C469 1.408 . S
C473 C472 1.404 . S
C473 H485 0.930 . S
C474 C470 1.524 . S
C474 H486 0.956 . S
C474 H487 0.961 . S
C474 H488 0.961 . S
C475 C472 1.539 . S
C475 H489 0.958 . S
C475 H490 0.961 . S
C475 H491 0.960 . S
H476 C460 0.931 . S
H477 C465 0.929 . S
H478 C466 0.960 . S
H479 C466 0.962 . S
H480 C466 0.960 . S
H481 C467 0.961 . S
H482 C467 0.961 . S
H483 C467 0.961 . S
H484 C468 0.931 . S
H485 C473 0.930 . S
H486 C474 0.956 . S
H487 C474 0.961 . S
H488 C474 0.961 . S
H489 C475 0.958 . S
H490 C475 0.961 . S
H491 C475 0.960 . S
C492 C493 1.391 . S
C492 C494 1.394 . S
C492 H508 0.931 . S
C493 C492 1.391 . S
C493 C497 1.376 . S
C494 C492 1.394 . S
C494 C495 1.369 . S
C494 C498 1.531 . S
C495 C494 1.369 . S
C495 C496 1.410 . S
C495 C503 1.503 . S
C496 C495 1.410 . S
C496 C497 1.392 . S
C496 C499 1.511 . S
C497 C493 1.376 . S
C497 C496 1.392 . S
C497 H509 0.929 . S
C498 C494 1.531 . S
C498 H510 0.960 . S
C498 H511 0.962 . S
C498 H512 0.960 . S
C499 C496 1.511 . S
C499 H513 0.961 . S
C499 H514 0.961 . S
C499 H515 0.961 1_655 S
C500 C501 1.370 . S
C500 C502 1.363 . S
C500 H516 0.931 . S
C501 C500 1.370 . S
C501 C505 1.408 . S
C502 C500 1.363 . S
C502 C503 1.370 . S
C502 C506 1.524 . S
C503 C495 1.503 . S
C503 C502 1.370 . S
C503 C504 1.403 . S
C504 C503 1.403 . S
C504 C505 1.404 . S
C504 C507 1.539 . S
C505 C501 1.408 . S
C505 C504 1.404 . S
C505 H517 0.930 . S
C506 C502 1.524 . S
C506 H518 0.956 . S
C506 H519 0.961 . S
C506 H520 0.961 . S
C507 C504 1.539 . S
C507 H521 0.958 . S
C507 H522 0.961 1_655 S
C507 H523 0.960 . S
H508 C492 0.931 . S
H509 C497 0.929 . S
H510 C498 0.960 . S
H511 C498 0.962 . S
H512 C498 0.960 . S
H513 C499 0.961 . S
H514 C499 0.961 . S
H515 C499 0.961 1_455 S
H516 C500 0.931 . S
H517 C505 0.930 . S
H518 C506 0.956 . S
H519 C506 0.961 . S
H520 C506 0.961 . S
H521 C507 0.958 . S
H522 C507 0.961 1_455 S
H523 C507 0.960 . S
C524 C525 1.391 . S
C524 C526 1.394 . S
C524 H540 0.931 . S
C525 C524 1.391 . S
C525 C529 1.376 . S
C526 C524 1.394 . S
C526 C527 1.369 . S
C526 C530 1.531 . S
C527 C526 1.369 . S
C527 C528 1.410 . S
C527 C535 1.503 . S
C528 C527 1.410 . S
C528 C529 1.392 . S
C528 C531 1.511 . S
C529 C525 1.376 . S
C529 C528 1.392 . S
C529 H541 0.929 . S
C530 C526 1.531 . S
C530 H542 0.960 . S
C530 H543 0.962 . S
C530 H544 0.960 . S
C531 C528 1.511 . S
C531 H545 0.961 . S
C531 H546 0.961 . S
C531 H547 0.961 1_554 S
C532 C533 1.370 . S
C532 C534 1.363 . S
C532 H548 0.931 . S
C533 C532 1.370 . S
C533 C537 1.408 . S
C534 C532 1.363 . S
C534 C535 1.370 . S
C534 C538 1.524 . S
C535 C527 1.503 . S
C535 C534 1.370 . S
C535 C536 1.403 . S
C536 C535 1.403 . S
C536 C537 1.404 . S
C536 C539 1.539 . S
C537 C533 1.408 . S
C537 C536 1.404 . S
C537 H549 0.930 . S
C538 C534 1.524 . S
C538 H550 0.956 . S
C538 H551 0.961 . S
C538 H552 0.961 . S
C539 C536 1.539 . S
C539 H553 0.958 1_545 S
C539 H554 0.961 1_554 S
C539 H555 0.960 . S
H540 C524 0.931 . S
H541 C529 0.929 . S
H542 C530 0.960 . S
H543 C530 0.962 . S
H544 C530 0.960 . S
H545 C531 0.961 . S
H546 C531 0.961 . S
H547 C531 0.961 1_556 S
H548 C532 0.931 . S
H549 C537 0.930 . S
H550 C538 0.956 . S
H551 C538 0.961 . S
H552 C538 0.961 . S
H553 C539 0.958 1_565 S
H554 C539 0.961 1_556 S
H555 C539 0.960 . S
C556 C557 1.391 . S
C556 C558 1.394 . S
C556 H572 0.931 . S
C557 C556 1.391 . S
C557 C561 1.376 . S
C558 C556 1.394 . S
C558 C559 1.369 . S
C558 C562 1.531 . S
C559 C558 1.369 . S
C559 C560 1.410 . S
C559 C567 1.503 . S
C560 C559 1.410 . S
C560 C561 1.392 . S
C560 C563 1.511 . S
C561 C557 1.376 . S
C561 C560 1.392 . S
C561 H573 0.929 . S
C562 C558 1.531 . S
C562 H574 0.960 . S
C562 H575 0.962 . S
C562 H576 0.960 . S
C563 C560 1.511 . S
C563 H577 0.961 . S
C563 H578 0.961 . S
C563 H579 0.961 . S
C564 C565 1.370 . S
C564 C566 1.363 . S
C564 H580 0.931 1_565 S
C565 C564 1.370 . S
C565 C569 1.408 . S
C566 C564 1.363 . S
C566 C567 1.370 . S
C566 C570 1.524 1_565 S
C567 C559 1.503 . S
C567 C566 1.370 . S
C567 C568 1.403 . S
C568 C567 1.403 . S
C568 C569 1.404 . S
C568 C571 1.539 . S
C569 C565 1.408 . S
C569 C568 1.404 . S
C569 H581 0.930 . S
C570 C566 1.524 1_545 S
C570 H582 0.956 . S
C570 H583 0.956 1_545 S
C570 H584 0.961 . S
C571 C568 1.539 . S
C571 H585 0.958 . S
C571 H586 0.961 . S
C571 H587 0.960 . S
H572 C556 0.931 . S
H573 C561 0.929 . S
H574 C562 0.960 . S
H575 C562 0.962 . S
H576 C562 0.960 . S
H577 C563 0.961 . S
H578 C563 0.961 . S
H579 C563 0.961 . S
H580 C564 0.931 1_545 S
H581 C569 0.930 . S
H582 C570 0.956 . S
H583 C570 0.956 1_565 S
H584 C570 0.961 . S
H585 C571 0.958 . S
H586 C571 0.961 . S
H587 C571 0.960 . S
C588 C589 1.391 . S
C588 C590 1.394 . S
C588 H604 0.931 . S
C589 C588 1.391 . S
C589 C593 1.376 . S
C590 C588 1.394 . S
C590 C591 1.369 . S
C590 C594 1.531 . S
C591 C590 1.369 . S
C591 C592 1.410 . S
C591 C599 1.503 . S
C592 C591 1.410 . S
C592 C593 1.392 . S
C592 C595 1.511 . S
C593 C589 1.376 . S
C593 C592 1.392 . S
C593 H605 0.929 . S
C594 C590 1.531 . S
C594 H606 0.960 . S
C594 H607 0.962 . S
C594 H608 0.960 . S
C595 C592 1.511 . S
C595 H609 0.961 . S
C595 H610 0.961 . S
C595 H611 0.961 . S
C596 C597 1.370 . S
C596 C598 1.363 . S
C596 H612 0.931 1_556 S
C597 C596 1.370 . S
C597 C601 1.408 . S
C598 C596 1.363 . S
C598 C599 1.370 . S
C598 C602 1.524 1_556 S
C599 C591 1.503 . S
C599 C598 1.370 . S
C599 C600 1.403 . S
C600 C599 1.403 . S
C600 C601 1.404 . S
C600 C603 1.539 . S
C601 C597 1.408 . S
C601 C600 1.404 . S
C601 H613 0.930 . S
C602 C598 1.524 1_554 S
C602 H614 0.956 . S
C602 H615 0.961 1_554 S
C602 H616 0.961 . S
C603 C600 1.539 . S
C603 H617 0.958 . S
C603 H618 0.961 . S
C603 H619 0.960 . S
H604 C588 0.931 . S
H605 C593 0.929 . S
H606 C594 0.960 . S
H607 C594 0.962 . S
H608 C594 0.960 . S
H609 C595 0.961 . S
H610 C595 0.961 . S
H611 C595 0.961 . S
H612 C596 0.931 1_554 S
H613 C601 0.930 . S
H614 C602 0.956 . S
H615 C602 0.961 1_556 S
H616 C602 0.961 . S
H617 C603 0.958 . S
H618 C603 0.961 . S
H619 C603 0.960 . S
C620 C621 1.391 . S
C620 C622 1.394 . S
C620 H636 0.931 . S
C621 C620 1.391 . S
C621 C625 1.376 . S
C622 C620 1.394 . S
C622 C623 1.369 . S
C622 C626 1.531 . S
C623 C622 1.369 . S
C623 C624 1.410 . S
C623 C631 1.503 . S
C624 C623 1.410 . S
C624 C625 1.392 . S
C624 C627 1.511 . S
C625 C621 1.376 . S
C625 C624 1.392 . S
C625 H637 0.929 . S
C626 C622 1.531 . S
C626 H638 0.960 . S
C626 H639 0.962 . S
C626 H640 0.960 . S
C627 C624 1.511 . S
C627 H641 0.961 . S
C627 H642 0.961 . S
C627 H643 0.961 . S
C628 C629 1.370 . S
C628 C630 1.363 . S
C628 H644 0.931 . S
C629 C628 1.370 . S
C629 C633 1.408 . S
C630 C628 1.363 . S
C630 C631 1.370 . S
C630 C634 1.524 . S
C631 C623 1.503 . S
C631 C630 1.370 . S
C631 C632 1.403 . S
C632 C631 1.403 . S
C632 C633 1.404 . S
C632 C635 1.539 . S
C633 C629 1.408 . S
C633 C632 1.404 . S
C633 H645 0.930 . S
C634 C630 1.524 . S
C634 H646 0.956 . S
C634 H647 0.961 . S
C634 H648 0.961 . S
C635 C632 1.539 . S
C635 H649 0.958 . S
C635 H650 0.961 . S
C635 H651 0.960 . S
H636 C620 0.931 . S
H637 C625 0.929 . S
H638 C626 0.960 . S
H639 C626 0.962 . S
H640 C626 0.960 . S
H641 C627 0.961 . S
H642 C627 0.961 . S
H643 C627 0.961 . S
H644 C628 0.931 . S
H645 C633 0.930 . S
H646 C634 0.956 . S
H647 C634 0.961 . S
H648 C634 0.961 . S
H649 C635 0.958 . S
H650 C635 0.961 . S
H651 C635 0.960 . S
C652 C653 1.391 . S
C652 C654 1.394 . S
C652 H668 0.931 . S
C653 C652 1.391 . S
C653 C657 1.376 . S
C654 C652 1.394 . S
C654 C655 1.369 . S
C654 C658 1.531 . S
C655 C654 1.369 . S
C655 C656 1.410 . S
C655 C663 1.503 . S
C656 C655 1.410 . S
C656 C657 1.392 . S
C656 C659 1.511 . S
C657 C653 1.376 . S
C657 C656 1.392 . S
C657 H669 0.929 . S
C658 C654 1.531 . S
C658 H670 0.960 . S
C658 H671 0.962 . S
C658 H672 0.960 . S
C659 C656 1.511 . S
C659 H673 0.951 1_554 S
C659 H674 0.961 . S
C659 H675 0.961 . S
C660 C661 1.370 . S
C660 C662 1.363 . S
C660 H676 0.931 . S
C661 C660 1.370 . S
C661 C665 1.408 . S
C662 C660 1.363 . S
C662 C663 1.370 . S
C662 C666 1.524 . S
C663 C655 1.503 . S
C663 C662 1.370 . S
C663 C664 1.403 . S
C664 C663 1.403 . S
C664 C665 1.404 . S
C664 C667 1.539 . S
C665 C661 1.408 . S
C665 C664 1.404 . S
C665 H677 0.930 . S
C666 C662 1.524 . S
C666 H678 0.956 . S
C666 H679 0.961 . S
C666 H680 0.961 . S
C667 C664 1.539 . S
C667 H681 0.958 . S
C667 H682 0.961 . S
C667 H683 0.960 . S
H668 C652 0.931 . S
H669 C657 0.929 . S
H670 C658 0.960 . S
H671 C658 0.962 . S
H672 C658 0.960 . S
H673 C659 0.951 1_556 S
H674 C659 0.961 . S
H675 C659 0.961 . S
H676 C660 0.931 . S
H677 C665 0.930 . S
H678 C666 0.956 . S
H679 C666 0.961 . S
H680 C666 0.961 . S
H681 C667 0.958 . S
H682 C667 0.961 . S
H683 C667 0.960 . S
C684 C685 1.391 . S
C684 C686 1.394 . S
C684 H700 0.931 . S
C685 C684 1.391 . S
C685 C689 1.376 . S
C686 C684 1.394 . S
C686 C687 1.369 . S
C686 C690 1.531 . S
C687 C686 1.369 . S
C687 C688 1.410 . S
C687 C695 1.503 . S
C688 C687 1.410 . S
C688 C689 1.392 . S
C688 C691 1.511 . S
C689 C685 1.376 . S
C689 C688 1.392 . S
C689 H701 0.929 . S
C690 C686 1.531 . S
C690 H702 0.960 . S
C690 H703 0.962 . S
C690 H704 0.960 . S
C691 C688 1.511 . S
C691 H705 0.961 . S
C691 H706 0.961 . S
C691 H707 0.961 . S
C692 C693 1.370 . S
C692 C694 1.363 . S
C692 H708 0.916 1_556 S
C693 C692 1.370 . S
C693 C697 1.408 . S
C694 C692 1.363 . S
C694 C695 1.370 . S
C694 C698 1.524 . S
C695 C687 1.503 . S
C695 C694 1.370 . S
C695 C696 1.403 . S
C696 C695 1.403 . S
C696 C697 1.404 . S
C696 C699 1.539 . S
C697 C693 1.408 . S
C697 C696 1.404 . S
C697 H709 0.930 . S
C698 C694 1.524 . S
C698 H710 0.956 . S
C698 H711 0.961 . S
C698 H712 0.961 1_556 S
C699 C696 1.539 . S
C699 H713 0.958 . S
C699 H714 0.961 . S
C699 H715 0.960 . S
H700 C684 0.931 . S
H701 C689 0.929 . S
H702 C690 0.960 . S
H703 C690 0.962 . S
H704 C690 0.960 . S
H705 C691 0.961 . S
H706 C691 0.961 . S
H707 C691 0.961 . S
H708 C692 0.916 1_554 S
H709 C697 0.930 . S
H710 C698 0.956 . S
H711 C698 0.961 . S
H712 C698 0.961 1_554 S
H713 C699 0.958 . S
H714 C699 0.961 . S
H715 C699 0.960 . S
C716 C717 1.391 . S
C716 C718 1.394 . S
C716 H732 0.931 . S
C717 C716 1.391 . S
C717 C721 1.376 . S
C718 C716 1.394 . S
C718 C719 1.369 . S
C718 C722 1.531 . S
C719 C718 1.369 . S
C719 C720 1.410 . S
C719 C727 1.503 . S
C720 C719 1.410 . S
C720 C721 1.392 . S
C720 C723 1.511 1_655 S
C721 C717 1.376 . S
C721 C720 1.392 . S
C721 H733 0.929 . S
C722 C718 1.531 . S
C722 H734 0.960 . S
C722 H735 0.962 . S
C722 H736 0.960 . S
C723 C720 1.511 1_455 S
C723 H737 0.961 . S
C723 H738 0.966 . S
C723 H739 0.961 . S
C724 C725 1.370 . S
C724 C726 1.363 . S
C724 H740 0.931 . S
C725 C724 1.370 . S
C725 C729 1.408 . S
C726 C724 1.363 . S
C726 C727 1.370 . S
C726 C730 1.524 . S
C727 C719 1.503 . S
C727 C726 1.370 . S
C727 C728 1.403 . S
C728 C727 1.403 . S
C728 C729 1.404 . S
C728 C731 1.539 . S
C729 C725 1.408 . S
C729 C728 1.404 . S
C729 H741 0.930 . S
C730 C726 1.524 . S
C730 H742 0.956 . S
C730 H743 0.961 . S
C730 H744 0.961 . S
C731 C728 1.539 . S
C731 H745 0.958 . S
C731 H746 0.961 1_655 S
C731 H747 0.960 . S
H732 C716 0.931 . S
H733 C721 0.929 . S
H734 C722 0.960 . S
H735 C722 0.962 . S
H736 C722 0.960 . S
H737 C723 0.961 . S
H738 C723 0.966 . S
H739 C723 0.961 . S
H740 C724 0.931 . S
H741 C729 0.930 . S
H742 C730 0.956 . S
H743 C730 0.961 . S
H744 C730 0.961 . S
H745 C731 0.958 . S
H746 C731 0.961 1_455 S
H747 C731 0.960 . S
C748 C749 1.391 . S
C748 C750 1.394 . S
C748 H764 0.931 . S
C749 C748 1.391 . S
C749 C753 1.376 . S
C750 C748 1.394 . S
C750 C751 1.369 . S
C750 C754 1.531 . S
C751 C750 1.369 . S
C751 C752 1.410 . S
C751 C759 1.503 . S
C752 C751 1.410 . S
C752 C753 1.392 . S
C752 C755 1.511 . S
C753 C749 1.376 . S
C753 C752 1.392 . S
C753 H765 0.929 . S
C754 C750 1.531 . S
C754 H766 0.960 . S
C754 H767 0.962 . S
C754 H768 0.960 . S
C755 C752 1.511 . S
C755 H769 0.961 . S
C755 H770 0.961 . S
C755 H771 0.961 . S
C756 C757 1.370 . S
C756 C758 1.363 . S
C756 H772 0.931 . S
C757 C756 1.370 . S
C757 C761 1.408 . S
C758 C756 1.363 . S
C758 C759 1.370 . S
C758 C762 1.524 . S
C759 C751 1.503 . S
C759 C758 1.370 . S
C759 C760 1.403 . S
C760 C759 1.403 . S
C760 C761 1.404 . S
C760 C763 1.539 . S
C761 C757 1.408 . S
C761 C760 1.404 . S
C761 H773 0.930 . S
C762 C758 1.524 . S
C762 H774 0.956 . S
C762 H775 0.961 . S
C762 H776 0.961 . S
C763 C760 1.539 . S
C763 H777 0.958 . S
C763 H778 0.961 . S
C763 H779 0.960 . S
H764 C748 0.931 . S
H765 C753 0.929 . S
H766 C754 0.960 . S
H767 C754 0.962 . S
H768 C754 0.960 . S
H769 C755 0.961 . S
H770 C755 0.961 . S
H771 C755 0.961 . S
H772 C756 0.931 . S
H773 C761 0.930 . S
H774 C762 0.956 . S
H775 C762 0.961 . S
H776 C762 0.961 . S
H777 C763 0.958 . S
H778 C763 0.961 . S
H779 C763 0.960 . S
C780 C781 1.391 . S
C780 C782 1.394 . S
C780 H796 0.931 . S
C781 C780 1.391 . S
C781 C785 1.376 . S
C782 C780 1.394 . S
C782 C783 1.369 . S
C782 C786 1.531 . S
C783 C782 1.369 . S
C783 C784 1.410 . S
C783 C791 1.503 . S
C784 C783 1.410 . S
C784 C785 1.392 . S
C784 C787 1.511 . S
C785 C781 1.376 . S
C785 C784 1.392 . S
C785 H797 0.929 . S
C786 C782 1.531 . S
C786 H798 0.960 . S
C786 H799 0.962 1_655 S
C786 H800 0.960 . S
C787 C784 1.511 . S
C787 H801 0.961 . S
C787 H802 0.961 . S
C787 H803 0.961 . S
C788 C789 1.370 . S
C788 C790 1.363 . S
C788 H804 0.931 1_565 S
C789 C788 1.370 . S
C789 C793 1.408 . S
C790 C788 1.363 . S
C790 C791 1.370 . S
C790 C794 1.536 . S
C791 C783 1.503 . S
C791 C790 1.370 . S
C791 C792 1.403 . S
C792 C791 1.403 . S
C792 C793 1.404 . S
C792 C795 1.539 . S
C793 C789 1.408 . S
C793 C792 1.404 . S
C793 H805 0.930 . S
C794 C790 1.536 . S
C794 H806 0.969 . S
C794 H807 0.954 1_565 S
C794 H808 0.943 1_565 S
C795 C792 1.539 . S
C795 H809 0.958 . S
C795 H810 0.961 . S
C795 H811 0.960 . S
H796 C780 0.931 . S
H797 C785 0.929 . S
H798 C786 0.960 . S
H799 C786 0.962 1_455 S
H800 C786 0.960 . S
H801 C787 0.961 . S
H802 C787 0.961 . S
H803 C787 0.961 . S
H804 C788 0.931 1_545 S
H805 C793 0.930 . S
H806 C794 0.969 . S
H807 C794 0.954 1_545 S
H808 C794 0.943 1_545 S
H809 C795 0.958 . S
H810 C795 0.961 . S
H811 C795 0.960 . S
C812 C813 1.391 . S
C812 C814 1.394 . S
C812 H828 0.931 . S
C813 C812 1.391 . S
C813 C817 1.376 . S
C814 C812 1.394 . S
C814 C815 1.369 . S
C814 C818 1.531 . S
C815 C814 1.369 . S
C815 C816 1.410 . S
C815 C823 1.503 . S
C816 C815 1.410 . S
C816 C817 1.392 . S
C816 C819 1.511 . S
C817 C813 1.376 . S
C817 C816 1.392 . S
C817 H829 0.929 . S
C818 C814 1.531 . S
C818 H830 0.960 . S
C818 H831 0.962 . S
C818 H832 0.960 . S
C819 C816 1.511 . S
C819 H833 0.961 . S
C819 H834 0.961 . S
C819 H835 0.961 . S
C820 C821 1.370 . S
C820 C822 1.363 . S
C820 H836 0.931 . S
C821 C820 1.370 . S
C821 C825 1.408 . S
C822 C820 1.363 . S
C822 C823 1.370 . S
C822 C826 1.524 . S
C823 C815 1.503 . S
C823 C822 1.370 . S
C823 C824 1.403 . S
C824 C823 1.403 . S
C824 C825 1.404 . S
C824 C827 1.539 1_545 S
C825 C821 1.408 . S
C825 C824 1.404 . S
C825 H837 0.930 1_545 S
C826 C822 1.524 . S
C826 H838 0.956 . S
C826 H839 0.961 . S
C826 H840 0.961 . S
C827 C824 1.539 1_565 S
C827 H841 0.958 . S
C827 H842 0.961 . S
C827 H843 0.960 1_565 S
H828 C812 0.931 . S
H829 C817 0.929 . S
H830 C818 0.960 . S
H831 C818 0.962 . S
H832 C818 0.960 . S
H833 C819 0.961 . S
H834 C819 0.961 . S
H835 C819 0.961 . S
H836 C820 0.931 . S
H837 C825 0.930 1_565 S
H838 C826 0.956 . S
H839 C826 0.961 . S
H840 C826 0.961 . S
H841 C827 0.958 . S
H842 C827 0.961 . S
H843 C827 0.960 1_545 S
C844 C845 1.391 . S
C844 C846 1.394 . S
C844 H860 0.931 . S
C845 C844 1.391 . S
C845 C849 1.376 . S
C846 C844 1.394 . S
C846 C847 1.369 . S
C846 C850 1.531 . S
C847 C846 1.369 . S
C847 C848 1.410 . S
C847 C855 1.503 . S
C848 C847 1.410 . S
C848 C849 1.392 . S
C848 C851 1.511 . S
C849 C845 1.376 . S
C849 C848 1.392 . S
C849 H861 0.929 . S
C850 C846 1.531 . S
C850 H862 0.960 . S
C850 H863 0.962 . S
C850 H864 0.960 . S
C851 C848 1.511 . S
C851 H865 0.961 . S
C851 H866 0.961 . S
C851 H867 0.961 . S
C852 C853 1.370 . S
C852 C854 1.363 . S
C852 H868 0.931 . S
C853 C852 1.370 . S
C853 C857 1.408 . S
C854 C852 1.363 . S
C854 C855 1.370 . S
C854 C858 1.524 . S
C855 C847 1.503 . S
C855 C854 1.370 . S
C855 C856 1.403 . S
C856 C855 1.403 . S
C856 C857 1.404 . S
C856 C859 1.539 . S
C857 C853 1.408 . S
C857 C856 1.404 . S
C857 H869 0.930 . S
C858 C854 1.524 . S
C858 H870 0.956 . S
C858 H871 0.961 . S
C858 H872 0.961 . S
C859 C856 1.539 . S
C859 H873 0.958 . S
C859 H874 0.961 . S
C859 H875 0.960 . S
H860 C844 0.931 . S
H861 C849 0.929 . S
H862 C850 0.960 . S
H863 C850 0.962 . S
H864 C850 0.960 . S
H865 C851 0.961 . S
H866 C851 0.961 . S
H867 C851 0.961 . S
H868 C852 0.931 . S
H869 C857 0.930 . S
H870 C858 0.956 . S
H871 C858 0.961 . S
H872 C858 0.961 . S
H873 C859 0.958 . S
H874 C859 0.961 . S
H875 C859 0.960 . S
C876 C877 1.391 . S
C876 C878 1.394 . S
C876 H892 0.931 . S
C877 C876 1.391 . S
C877 C881 1.376 . S
C878 C876 1.394 . S
C878 C879 1.369 . S
C878 C882 1.531 . S
C879 C878 1.369 . S
C879 C880 1.410 . S
C879 C887 1.503 . S
C880 C879 1.410 . S
C880 C881 1.392 . S
C880 C883 1.511 . S
C881 C877 1.376 . S
C881 C880 1.392 . S
C881 H893 0.929 . S
C882 C878 1.531 . S
C882 H894 0.960 . S
C882 H895 0.962 1_455 S
C882 H896 0.960 . S
C883 C880 1.511 . S
C883 H897 0.961 . S
C883 H898 0.961 . S
C883 H899 0.961 . S
C884 C885 1.370 . S
C884 C886 1.363 . S
C884 H900 0.931 . S
C885 C884 1.370 . S
C885 C889 1.408 . S
C886 C884 1.363 . S
C886 C887 1.370 . S
C886 C890 1.524 . S
C887 C879 1.503 . S
C887 C886 1.370 . S
C887 C888 1.403 . S
C888 C887 1.403 . S
C888 C889 1.404 . S
C888 C891 1.539 . S
C889 C885 1.408 . S
C889 C888 1.404 . S
C889 H901 0.930 . S
C890 C886 1.524 . S
C890 H902 0.939 1_455 S
C890 H903 0.961 . S
C890 H904 0.967 . S
C891 C888 1.539 . S
C891 H905 0.958 . S
C891 H906 0.961 . S
C891 H907 0.960 . S
H892 C876 0.931 . S
H893 C881 0.929 . S
H894 C882 0.960 . S
H895 C882 0.962 1_655 S
H896 C882 0.960 . S
H897 C883 0.961 . S
H898 C883 0.961 . S
H899 C883 0.961 . S
H900 C884 0.931 . S
H901 C889 0.930 . S
H902 C890 0.939 1_655 S
H903 C890 0.961 . S
H904 C890 0.967 . S
H905 C891 0.958 . S
H906 C891 0.961 . S
H907 C891 0.960 . S
C908 C909 1.391 . S
C908 C910 1.394 . S
C908 H924 0.931 . S
C909 C908 1.391 . S
C909 C913 1.376 . S
C910 C908 1.394 . S
C910 C911 1.369 . S
C910 C914 1.531 1_565 S
C911 C910 1.369 . S
C911 C912 1.410 . S
C911 C919 1.503 . S
C912 C911 1.410 . S
C912 C913 1.392 . S
C912 C915 1.511 . S
C913 C909 1.376 . S
C913 C912 1.392 . S
C913 H925 0.929 . S
C914 C910 1.531 1_545 S
C914 H926 0.960 . S
C914 H927 0.962 . S
C914 H928 0.960 . S
C915 C912 1.511 . S
C915 H929 0.961 . S
C915 H930 0.961 . S
C915 H931 0.961 . S
C916 C917 1.370 . S
C916 C918 1.363 . S
C916 H932 0.931 1_556 S
C917 C916 1.370 . S
C917 C921 1.408 . S
C918 C916 1.363 . S
C918 C919 1.370 . S
C918 C922 1.524 1_556 S
C919 C911 1.503 . S
C919 C918 1.370 . S
C919 C920 1.403 . S
C920 C919 1.403 . S
C920 C921 1.404 . S
C920 C923 1.539 . S
C921 C917 1.408 . S
C921 C920 1.404 . S
C921 H933 0.930 . S
C922 C918 1.524 1_554 S
C922 H934 0.956 . S
C922 H935 0.961 1_554 S
C922 H936 0.961 . S
C923 C920 1.539 . S
C923 H937 0.958 . S
C923 H938 0.961 . S
C923 H939 0.960 . S
H924 C908 0.931 . S
H925 C913 0.929 . S
H926 C914 0.960 . S
H927 C914 0.962 . S
H928 C914 0.960 . S
H929 C915 0.961 . S
H930 C915 0.961 . S
H931 C915 0.961 . S
H932 C916 0.931 1_554 S
H933 C921 0.930 . S
H934 C922 0.956 . S
H935 C922 0.961 1_556 S
H936 C922 0.961 . S
H937 C923 0.958 . S
H938 C923 0.961 . S
H939 C923 0.960 . S
C940 C941 1.391 . S
C940 C942 1.394 . S
C940 H956 0.931 . S
C941 C940 1.391 . S
C941 C945 1.376 . S
C942 C940 1.394 . S
C942 C943 1.369 . S
C942 C946 1.531 . S
C943 C942 1.369 . S
C943 C944 1.410 . S
C943 C951 1.503 . S
C944 C943 1.410 . S
C944 C945 1.392 . S
C944 C947 1.511 . S
C945 C941 1.376 . S
C945 C944 1.392 . S
C945 H957 0.929 . S
C946 C942 1.531 . S
C946 H958 0.960 . S
C946 H959 0.962 . S
C946 H960 0.960 . S
C947 C944 1.511 . S
C947 H961 0.961 . S
C947 H962 0.961 . S
C947 H963 0.961 . S
C948 C949 1.370 . S
C948 C950 1.363 . S
C948 H964 0.931 . S
C949 C948 1.370 . S
C949 C953 1.408 . S
C950 C948 1.363 . S
C950 C951 1.370 . S
C950 C954 1.524 . S
C951 C943 1.503 . S
C951 C950 1.370 . S
C951 C952 1.403 . S
C952 C951 1.403 . S
C952 C953 1.404 . S
C952 C955 1.539 . S
C953 C949 1.408 . S
C953 C952 1.404 . S
C953 H965 0.930 . S
C954 C950 1.524 . S
C954 H966 0.956 . S
C954 H967 0.961 . S
C954 H968 0.961 . S
C955 C952 1.539 . S
C955 H969 0.958 . S
C955 H970 0.961 1_545 S
C955 H971 0.960 . S
H956 C940 0.931 . S
H957 C945 0.929 . S
H958 C946 0.960 . S
H959 C946 0.962 . S
H960 C946 0.960 . S
H961 C947 0.961 . S
H962 C947 0.961 . S
H963 C947 0.961 . S
H964 C948 0.931 . S
H965 C953 0.930 . S
H966 C954 0.956 . S
H967 C954 0.961 . S
H968 C954 0.961 . S
H969 C955 0.958 . S
H970 C955 0.961 1_565 S
H971 C955 0.960 . S
C972 C973 1.391 . S
C972 C974 1.394 . S
C972 H988 0.931 . S
C973 C972 1.391 . S
C973 C977 1.376 . S
C974 C972 1.394 . S
C974 C975 1.369 . S
C974 C978 1.531 . S
C975 C974 1.369 . S
C975 C976 1.410 . S
C975 C983 1.503 . S
C976 C975 1.410 . S
C976 C977 1.392 . S
C976 C979 1.511 . S
C977 C973 1.376 . S
C977 C976 1.392 . S
C977 H989 0.929 . S
C978 C974 1.531 . S
C978 H990 0.960 . S
C978 H991 0.962 . S
C978 H992 0.960 . S
C979 C976 1.511 . S
C979 H993 0.961 . S
C979 H994 0.961 . S
C979 H995 0.961 . S
C980 C981 1.370 . S
C980 C982 1.363 . S
C980 H996 0.931 1_554 S
C981 C980 1.370 . S
C981 C985 1.408 . S
C982 C980 1.363 . S
C982 C983 1.370 . S
C982 C986 1.524 . S
C983 C975 1.503 . S
C983 C982 1.370 . S
C983 C984 1.403 . S
C984 C983 1.403 . S
C984 C985 1.404 . S
C984 C987 1.539 . S
C985 C981 1.408 . S
C985 C984 1.404 . S
C985 H997 0.930 . S
C986 C982 1.524 . S
C986 H998 0.956 . S
C986 H999 0.961 . S
C986 H1000 0.961 1_554 S
C987 C984 1.539 . S
C987 H1001 0.958 . S
C987 H1002 0.961 . S
C987 H1003 0.960 . S
H988 C972 0.931 . S
H989 C977 0.929 . S
H990 C978 0.960 . S
H991 C978 0.962 . S
H992 C978 0.960 . S
H993 C979 0.961 . S
H994 C979 0.961 . S
H995 C979 0.961 . S
H996 C980 0.931 1_556 S
H997 C985 0.930 . S
H998 C986 0.956 . S
H999 C986 0.961 . S
H1000 C986 0.961 1_556 S
H1001 C987 0.958 . S
H1002 C987 0.961 . S
H1003 C987 0.960 . S
C1004 C1005 1.391 . S
C1004 C1006 1.394 . S
C1004 H1020 0.931 . S
C1005 C1004 1.391 . S
C1005 C1009 1.376 . S
C1006 C1004 1.394 . S
C1006 C1007 1.369 . S
C1006 C1010 1.531 . S
C1007 C1006 1.369 . S
C1007 C1008 1.410 . S
C1007 C1015 1.503 . S
C1008 C1007 1.410 . S
C1008 C1009 1.392 . S
C1008 C1011 1.511 . S
C1009 C1005 1.376 . S
C1009 C1008 1.392 . S
C1009 H1021 0.929 . S
C1010 C1006 1.531 . S
C1010 H1022 0.960 . S
C1010 H1023 0.962 . S
C1010 H1024 0.960 . S
C1011 C1008 1.511 . S
C1011 H1025 0.961 . S
C1011 H1026 0.961 . S
C1011 H1027 0.961 . S
C1012 C1013 1.370 . S
C1012 C1014 1.363 . S
C1012 H1028 0.931 . S
C1013 C1012 1.370 . S
C1013 C1017 1.408 . S
C1014 C1012 1.363 . S
C1014 C1015 1.370 . S
C1014 C1018 1.524 . S
C1015 C1007 1.503 . S
C1015 C1014 1.370 . S
C1015 C1016 1.403 . S
C1016 C1015 1.403 . S
C1016 C1017 1.404 . S
C1016 C1019 1.539 . S
C1017 C1013 1.408 . S
C1017 C1016 1.404 . S
C1017 H1029 0.930 . S
C1018 C1014 1.524 . S
C1018 H1030 0.956 . S
C1018 H1031 0.961 . S
C1018 H1032 0.961 . S
C1019 C1016 1.539 . S
C1019 H1033 0.958 . S
C1019 H1034 0.961 . S
C1019 H1035 0.960 . S
H1020 C1004 0.931 . S
H1021 C1009 0.929 . S
H1022 C1010 0.960 . S
H1023 C1010 0.962 . S
H1024 C1010 0.960 . S
H1025 C1011 0.961 . S
H1026 C1011 0.961 . S
H1027 C1011 0.961 . S
H1028 C1012 0.931 . S
H1029 C1017 0.930 . S
H1030 C1018 0.956 . S
H1031 C1018 0.961 . S
H1032 C1018 0.961 . S
H1033 C1019 0.958 . S
H1034 C1019 0.961 . S
H1035 C1019 0.960 . S
C1036 C1037 1.391 . S
C1036 C1038 1.394 . S
C1036 H1052 0.931 . S
C1037 C1036 1.391 . S
C1037 C1041 1.376 . S
C1038 C1036 1.394 . S
C1038 C1039 1.369 . S
C1038 C1042 1.531 . S
C1039 C1038 1.369 . S
C1039 C1040 1.410 . S
C1039 C1047 1.503 . S
C1040 C1039 1.410 . S
C1040 C1041 1.392 . S
C1040 C1043 1.511 . S
C1041 C1037 1.376 . S
C1041 C1040 1.392 . S
C1041 H1053 0.929 . S
C1042 C1038 1.531 . S
C1042 H1054 0.960 . S
C1042 H1055 0.962 . S
C1042 H1056 0.960 . S
C1043 C1040 1.511 . S
C1043 H1057 0.961 1_655 S
C1043 H1058 0.961 1_655 S
C1043 H1059 0.961 1_655 S
C1044 C1045 1.370 . S
C1044 C1046 1.363 . S
C1044 H1060 0.931 1_556 S
C1045 C1044 1.370 . S
C1045 C1049 1.408 . S
C1046 C1044 1.363 . S
C1046 C1047 1.370 . S
C1046 C1050 1.524 1_556 S
C1047 C1039 1.503 . S
C1047 C1046 1.370 . S
C1047 C1048 1.403 . S
C1048 C1047 1.403 . S
C1048 C1049 1.404 . S
C1048 C1051 1.539 . S
C1049 C1045 1.408 . S
C1049 C1048 1.404 . S
C1049 H1061 0.930 . S
C1050 C1046 1.524 1_554 S
C1050 H1062 0.956 . S
C1050 H1063 0.961 . S
C1050 H1064 0.961 . S
C1051 C1048 1.539 . S
C1051 H1065 0.958 . S
C1051 H1066 0.961 . S
C1051 H1067 0.960 . S
H1052 C1036 0.931 . S
H1053 C1041 0.929 . S
H1054 C1042 0.960 . S
H1055 C1042 0.962 . S
H1056 C1042 0.960 . S
H1057 C1043 0.961 1_455 S
H1058 C1043 0.961 1_455 S
H1059 C1043 0.961 1_455 S
H1060 C1044 0.931 1_554 S
H1061 C1049 0.930 . S
H1062 C1050 0.956 . S
H1063 C1050 0.961 . S
H1064 C1050 0.961 . S
H1065 C1051 0.958 . S
H1066 C1051 0.961 . S
H1067 C1051 0.960 . S
C1068 C1069 1.391 . S
C1068 C1070 1.394 . S
C1068 H1084 0.931 . S
C1069 C1068 1.391 . S
C1069 C1073 1.376 . S
C1070 C1068 1.394 . S
C1070 C1071 1.369 . S
C1070 C1074 1.531 . S
C1071 C1070 1.369 . S
C1071 C1072 1.410 . S
C1071 C1079 1.503 . S
C1072 C1071 1.410 . S
C1072 C1073 1.392 . S
C1072 C1075 1.511 . S
C1073 C1069 1.376 . S
C1073 C1072 1.392 . S
C1073 H1085 0.929 . S
C1074 C1070 1.531 . S
C1074 H1086 0.960 . S
C1074 H1087 0.962 . S
C1074 H1088 0.960 . S
C1075 C1072 1.511 . S
C1075 H1089 0.961 . S
C1075 H1090 0.961 . S
C1075 H1091 0.961 . S
C1076 C1077 1.370 . S
C1076 C1078 1.363 . S
C1076 H1092 0.931 . S
C1077 C1076 1.370 . S
C1077 C1081 1.408 . S
C1078 C1076 1.363 . S
C1078 C1079 1.370 . S
C1078 C1082 1.524 . S
C1079 C1071 1.503 . S
C1079 C1078 1.370 . S
C1079 C1080 1.403 . S
C1080 C1079 1.403 . S
C1080 C1081 1.404 . S
C1080 C1083 1.539 . S
C1081 C1077 1.408 . S
C1081 C1080 1.404 . S
C1081 H1093 0.930 . S
C1082 C1078 1.524 . S
C1082 H1094 0.956 . S
C1082 H1095 0.961 . S
C1082 H1096 0.961 . S
C1083 C1080 1.539 . S
C1083 H1097 0.958 . S
C1083 H1098 0.961 . S
C1083 H1099 0.960 . S
H1084 C1068 0.931 . S
H1085 C1073 0.929 . S
H1086 C1074 0.960 . S
H1087 C1074 0.962 . S
H1088 C1074 0.960 . S
H1089 C1075 0.961 . S
H1090 C1075 0.961 . S
H1091 C1075 0.961 . S
H1092 C1076 0.931 . S
H1093 C1081 0.930 . S
H1094 C1082 0.956 . S
H1095 C1082 0.961 . S
H1096 C1082 0.961 . S
H1097 C1083 0.958 . S
H1098 C1083 0.961 . S
H1099 C1083 0.960 . S
C1100 C1101 1.391 . S
C1100 C1102 1.394 . S
C1100 H1116 0.931 . S
C1101 C1100 1.391 . S
C1101 C1105 1.376 . S
C1102 C1100 1.394 . S
C1102 C1103 1.369 . S
C1102 C1106 1.531 . S
C1103 C1102 1.369 . S
C1103 C1104 1.410 . S
C1103 C1111 1.503 . S
C1104 C1103 1.410 . S
C1104 C1105 1.392 . S
C1104 C1107 1.511 1_455 S
C1105 C1101 1.376 . S
C1105 C1104 1.392 . S
C1105 H1117 0.929 . S
C1106 C1102 1.531 . S
C1106 H1118 0.960 . S
C1106 H1119 0.962 . S
C1106 H1120 0.960 . S
C1107 C1104 1.511 1_655 S
C1107 H1121 0.961 . S
C1107 H1122 0.961 . S
C1107 H1123 0.961 . S
C1108 C1109 1.370 . S
C1108 C1110 1.363 . S
C1108 H1124 0.931 . S
C1109 C1108 1.370 . S
C1109 C1113 1.408 . S
C1110 C1108 1.363 . S
C1110 C1111 1.370 . S
C1110 C1114 1.524 . S
C1111 C1103 1.503 . S
C1111 C1110 1.370 . S
C1111 C1112 1.403 . S
C1112 C1111 1.403 . S
C1112 C1113 1.404 . S
C1112 C1115 1.539 1_455 S
C1113 C1109 1.408 . S
C1113 C1112 1.404 . S
C1113 H1125 0.930 1_455 S
C1114 C1110 1.524 . S
C1114 H1126 0.956 . S
C1114 H1127 0.961 . S
C1114 H1128 0.961 . S
C1115 C1112 1.539 1_655 S
C1115 H1129 0.958 1_655 S
C1115 H1130 0.961 . S
C1115 H1131 0.960 . S
H1116 C1100 0.931 . S
H1117 C1105 0.929 . S
H1118 C1106 0.960 . S
H1119 C1106 0.962 . S
H1120 C1106 0.960 . S
H1121 C1107 0.961 . S
H1122 C1107 0.961 . S
H1123 C1107 0.961 . S
H1124 C1108 0.931 . S
H1125 C1113 0.930 1_655 S
H1126 C1114 0.956 . S
H1127 C1114 0.961 . S
H1128 C1114 0.961 . S
H1129 C1115 0.958 1_455 S
H1130 C1115 0.961 . S
H1131 C1115 0.960 . S
C1132 C1133 1.391 . S
C1132 C1134 1.394 . S
C1132 H1148 0.931 . S
C1133 C1132 1.391 . S
C1133 C1137 1.376 . S
C1134 C1132 1.394 . S
C1134 C1135 1.369 . S
C1134 C1138 1.531 . S
C1135 C1134 1.369 . S
C1135 C1136 1.410 . S
C1135 C1143 1.503 . S
C1136 C1135 1.410 . S
C1136 C1137 1.392 . S
C1136 C1139 1.511 . S
C1137 C1133 1.376 . S
C1137 C1136 1.392 . S
C1137 H1149 0.929 . S
C1138 C1134 1.531 . S
C1138 H1150 0.960 . S
C1138 H1151 0.962 . S
C1138 H1152 0.960 . S
C1139 C1136 1.511 . S
C1139 H1153 0.961 . S
C1139 H1154 0.961 . S
C1139 H1155 0.961 . S
C1140 C1141 1.370 . S
C1140 C1142 1.363 . S
C1140 H1156 0.931 . S
C1141 C1140 1.370 . S
C1141 C1145 1.408 . S
C1142 C1140 1.363 . S
C1142 C1143 1.370 . S
C1142 C1146 1.524 . S
C1143 C1135 1.503 . S
C1143 C1142 1.370 . S
C1143 C1144 1.403 . S
C1144 C1143 1.403 . S
C1144 C1145 1.404 . S
C1144 C1147 1.539 . S
C1145 C1141 1.408 . S
C1145 C1144 1.404 . S
C1145 H1157 0.930 . S
C1146 C1142 1.524 . S
C1146 H1158 0.956 . S
C1146 H1159 0.961 . S
C1146 H1160 0.961 . S
C1147 C1144 1.539 . S
C1147 H1161 0.958 . S
C1147 H1162 0.961 . S
C1147 H1163 0.960 . S
H1148 C1132 0.931 . S
H1149 C1137 0.929 . S
H1150 C1138 0.960 . S
H1151 C1138 0.962 . S
H1152 C1138 0.960 . S
H1153 C1139 0.961 . S
H1154 C1139 0.961 . S
H1155 C1139 0.961 . S
H1156 C1140 0.931 . S
H1157 C1145 0.930 . S
H1158 C1146 0.956 . S
H1159 C1146 0.961 . S
H1160 C1146 0.961 . S
H1161 C1147 0.958 . S
H1162 C1147 0.961 . S
H1163 C1147 0.960 . S
C397 C1 1.617 . S
C405 C328 1.589 . S
C429 C40 1.506 . S
C437 C350 1.459 . S
C469 C369 1.233 . S
C461 C99 1.450 . S
C493 C118 1.828 . S
C501 C390 1.482 . S
C533 C347 1.784 . S
C525 C16 1.837 . S
C565 C325 1.685 . S
C557 C60 1.699 . S
C597 C392 1.295 . S
C589 C79 1.363 . S
C629 C371 1.437 . S
C621 C138 1.483 . S
C653 C21 1.743 . S
C661 C389 1.702 . S
C693 C348 1.352 . S
C685 C94 1.608 . S
C717 C133 1.684 . S
C725 C330 1.537 . S
C749 C55 1.507 . S
C757 C368 1.505 . S
C789 C326 1.595 . S
C781 C157 1.631 . S
C813 C196 1.331 . S
C821 C346 1.301 . S
C845 C255 1.494 . S
C853 C372 1.295 . S
C877 C289 1.719 . S
C885 C393 1.428 . S
C909 C172 1.752 . S
C917 C349 1.732 . S
C949 C329 1.721 . S
C941 C216 1.809 . S
C981 C388 1.201 . S
C973 C235 1.251 . S
C1013 C367 1.526 . S
C1005 C294 1.535 . S
C1037 C177 1.549 . S
C1045 C391 1.523 . S
C1077 C351 1.250 . S
C1069 C250 1.535 . S
C1109 C327 1.343 . S
C1101 C274 1.485 . S
C1133 C211 1.433 . S
C1141 C370 1.432 . S
