# Generated by pormake.
# Topology ctn, (3,4)-cn, num edge types: 1
# Building blocks:
#     Node 0, Type 0, BuildingBlock: KAKCAD_clean_linker_0, # of connection points: 3
#     Node 1, Type 0, BuildingBlock: KAKCAD_clean_linker_0, # of connection points: 3
#     Node 2, Type 0, BuildingBlock: KAKCAD_clean_linker_0, # of connection points: 3
#     Node 3, Type 0, BuildingBlock: KAKCAD_clean_linker_0, # of connection points: 3
#     Node 4, Type 0, BuildingBlock: KAKCAD_clean_linker_0, # of connection points: 3
#     Node 5, Type 0, BuildingBlock: KAKCAD_clean_linker_0, # of connection points: 3
#     Node 6, Type 0, BuildingBlock: KAKCAD_clean_linker_0, # of connection points: 3
#     Node 7, Type 0, BuildingBlock: KAKCAD_clean_linker_0, # of connection points: 3
#     Node 8, Type 0, BuildingBlock: KAKCAD_clean_linker_0, # of connection points: 3
#     Node 9, Type 0, BuildingBlock: KAKCAD_clean_linker_0, # of connection points: 3
#     Node 10, Type 0, BuildingBlock: KAKCAD_clean_linker_0, # of connection points: 3
#     Node 11, Type 0, BuildingBlock: KAKCAD_clean_linker_0, # of connection points: 3
#     Node 12, Type 0, BuildingBlock: KAKCAD_clean_linker_0, # of connection points: 3
#     Node 13, Type 0, BuildingBlock: KAKCAD_clean_linker_0, # of connection points: 3
#     Node 14, Type 0, BuildingBlock: KAKCAD_clean_linker_0, # of connection points: 3
#     Node 15, Type 0, BuildingBlock: KAKCAD_clean_linker_0, # of connection points: 3
#     Node 16, Type 1, BuildingBlock: QUQFOY_clean_sbu_1, # of connection points: 4
#     Node 17, Type 1, BuildingBlock: QUQFOY_clean_sbu_1, # of connection points: 4
#     Node 18, Type 1, BuildingBlock: QUQFOY_clean_sbu_1, # of connection points: 4
#     Node 19, Type 1, BuildingBlock: QUQFOY_clean_sbu_1, # of connection points: 4
#     Node 20, Type 1, BuildingBlock: QUQFOY_clean_sbu_1, # of connection points: 4
#     Node 21, Type 1, BuildingBlock: QUQFOY_clean_sbu_1, # of connection points: 4
#     Node 22, Type 1, BuildingBlock: QUQFOY_clean_sbu_1, # of connection points: 4
#     Node 23, Type 1, BuildingBlock: QUQFOY_clean_sbu_1, # of connection points: 4
#     Node 24, Type 1, BuildingBlock: QUQFOY_clean_sbu_1, # of connection points: 4
#     Node 25, Type 1, BuildingBlock: QUQFOY_clean_sbu_1, # of connection points: 4
#     Node 26, Type 1, BuildingBlock: QUQFOY_clean_sbu_1, # of connection points: 4
#     Node 27, Type 1, BuildingBlock: QUQFOY_clean_sbu_1, # of connection points: 4
#     Edge 28, Type (0, 1), BuildingBlock: UVAHIK_clean_linker_0, # of connection points: 2
#     Edge 29, Type (0, 1), BuildingBlock: UVAHIK_clean_linker_0, # of connection points: 2
#     Edge 30, Type (0, 1), BuildingBlock: UVAHIK_clean_linker_0, # of connection points: 2
#     Edge 31, Type (0, 1), BuildingBlock: UVAHIK_clean_linker_0, # of connection points: 2
#     Edge 32, Type (0, 1), BuildingBlock: UVAHIK_clean_linker_0, # of connection points: 2
#     Edge 33, Type (0, 1), BuildingBlock: UVAHIK_clean_linker_0, # of connection points: 2
#     Edge 34, Type (0, 1), BuildingBlock: UVAHIK_clean_linker_0, # of connection points: 2
#     Edge 35, Type (0, 1), BuildingBlock: UVAHIK_clean_linker_0, # of connection points: 2
#     Edge 36, Type (0, 1), BuildingBlock: UVAHIK_clean_linker_0, # of connection points: 2
#     Edge 37, Type (0, 1), BuildingBlock: UVAHIK_clean_linker_0, # of connection points: 2
#     Edge 38, Type (0, 1), BuildingBlock: UVAHIK_clean_linker_0, # of connection points: 2
#     Edge 39, Type (0, 1), BuildingBlock: UVAHIK_clean_linker_0, # of connection points: 2
#     Edge 40, Type (0, 1), BuildingBlock: UVAHIK_clean_linker_0, # of connection points: 2
#     Edge 41, Type (0, 1), BuildingBlock: UVAHIK_clean_linker_0, # of connection points: 2
#     Edge 42, Type (0, 1), BuildingBlock: UVAHIK_clean_linker_0, # of connection points: 2
#     Edge 43, Type (0, 1), BuildingBlock: UVAHIK_clean_linker_0, # of connection points: 2
#     Edge 44, Type (0, 1), BuildingBlock: UVAHIK_clean_linker_0, # of connection points: 2
#     Edge 45, Type (0, 1), BuildingBlock: UVAHIK_clean_linker_0, # of connection points: 2
#     Edge 46, Type (0, 1), BuildingBlock: UVAHIK_clean_linker_0, # of connection points: 2
#     Edge 47, Type (0, 1), BuildingBlock: UVAHIK_clean_linker_0, # of connection points: 2
#     Edge 48, Type (0, 1), BuildingBlock: UVAHIK_clean_linker_0, # of connection points: 2
#     Edge 49, Type (0, 1), BuildingBlock: UVAHIK_clean_linker_0, # of connection points: 2
#     Edge 50, Type (0, 1), BuildingBlock: UVAHIK_clean_linker_0, # of connection points: 2
#     Edge 51, Type (0, 1), BuildingBlock: UVAHIK_clean_linker_0, # of connection points: 2
#     Edge 52, Type (0, 1), BuildingBlock: UVAHIK_clean_linker_0, # of connection points: 2
#     Edge 53, Type (0, 1), BuildingBlock: UVAHIK_clean_linker_0, # of connection points: 2
#     Edge 54, Type (0, 1), BuildingBlock: UVAHIK_clean_linker_0, # of connection points: 2
#     Edge 55, Type (0, 1), BuildingBlock: UVAHIK_clean_linker_0, # of connection points: 2
#     Edge 56, Type (0, 1), BuildingBlock: UVAHIK_clean_linker_0, # of connection points: 2
#     Edge 57, Type (0, 1), BuildingBlock: UVAHIK_clean_linker_0, # of connection points: 2
#     Edge 58, Type (0, 1), BuildingBlock: UVAHIK_clean_linker_0, # of connection points: 2
#     Edge 59, Type (0, 1), BuildingBlock: UVAHIK_clean_linker_0, # of connection points: 2
#     Edge 60, Type (0, 1), BuildingBlock: UVAHIK_clean_linker_0, # of connection points: 2
#     Edge 61, Type (0, 1), BuildingBlock: UVAHIK_clean_linker_0, # of connection points: 2
#     Edge 62, Type (0, 1), BuildingBlock: UVAHIK_clean_linker_0, # of connection points: 2
#     Edge 63, Type (0, 1), BuildingBlock: UVAHIK_clean_linker_0, # of connection points: 2
#     Edge 64, Type (0, 1), BuildingBlock: UVAHIK_clean_linker_0, # of connection points: 2
#     Edge 65, Type (0, 1), BuildingBlock: UVAHIK_clean_linker_0, # of connection points: 2
#     Edge 66, Type (0, 1), BuildingBlock: UVAHIK_clean_linker_0, # of connection points: 2
#     Edge 67, Type (0, 1), BuildingBlock: UVAHIK_clean_linker_0, # of connection points: 2
#     Edge 68, Type (0, 1), BuildingBlock: UVAHIK_clean_linker_0, # of connection points: 2
#     Edge 69, Type (0, 1), BuildingBlock: UVAHIK_clean_linker_0, # of connection points: 2
#     Edge 70, Type (0, 1), BuildingBlock: UVAHIK_clean_linker_0, # of connection points: 2
#     Edge 71, Type (0, 1), BuildingBlock: UVAHIK_clean_linker_0, # of connection points: 2
#     Edge 72, Type (0, 1), BuildingBlock: UVAHIK_clean_linker_0, # of connection points: 2
#     Edge 73, Type (0, 1), BuildingBlock: UVAHIK_clean_linker_0, # of connection points: 2
#     Edge 74, Type (0, 1), BuildingBlock: UVAHIK_clean_linker_0, # of connection points: 2
#     Edge 75, Type (0, 1), BuildingBlock: UVAHIK_clean_linker_0, # of connection points: 2
# Relax obj value: 0.035
# Max RMSD: 0.143
# Mean RMSD: 0.064
data_MOF--net-ctn--node1-QUQFOY_clean_sbu_1--node2-KAKCAD_clean_linker_0--edge1-UVAHIK_clean_linker_0
_symmetry_space_group_name_H-M    P1
_symmetry_Int_Tables_number       1
_symmetry_cell_setting            triclinic
loop_
_symmetry_equiv_pos_as_xyz
'x, y, z'
_cell_length_a     83.492782
_cell_length_b     83.336951
_cell_length_c     83.443273
_cell_angle_alpha  92.748607
_cell_angle_beta   90.393793
_cell_angle_gamma 94.499072
loop_
_atom_site_label
_atom_site_type_symbol
_atom_site_fract_x
_atom_site_fract_y
_atom_site_fract_z
_atom_type_partial_charge
C0 C 0.08427 0.14626 0.04075 0.0
C1 C 0.07702 0.16079 0.04319 0.0
C2 C 0.08733 0.13689 0.0537 0.0
C3 C 0.08341 0.14196 0.06943 0.0
C4 C 0.07688 0.15694 0.0719 0.0
C5 C 0.0736 0.16619 0.05891 0.0
C6 C 0.08498 0.13112 0.08296 0.0
C7 C 0.09754 0.12083 0.08333 0.0
C8 C 0.09793 0.10916 0.0949 0.0
C9 C 0.08603 0.10833 0.10669 0.0
C10 C 0.07335 0.11846 0.10655 0.0
C11 C 0.07299 0.12986 0.0947 0.0
C12 C 0.05954 0.11592 0.11757 0.0
C13 C 0.05335 0.10021 0.12063 0.0
C14 C 0.0519 0.12904 0.12439 0.0
C15 C 0.03818 0.12646 0.13377 0.0
C16 C 0.03181 0.11071 0.13649 0.0
C17 C 0.10943 0.09647 0.09342 0.0
C18 C 0.11159 0.08858 0.07843 0.0
C19 C 0.11718 0.09117 0.10698 0.0
C20 C 0.12663 0.07802 0.10559 0.0
C21 C 0.1284 0.06982 0.09064 0.0
C22 C 0.12089 0.07541 0.07707 0.0
C23 C 0.03973 0.09765 0.13001 0.0
H24 H 0.08685 0.14174 0.02873 0.0
H25 H 0.09209 0.12532 0.05123 0.0
H26 H 0.074 0.16139 0.08386 0.0
H27 H 0.06813 0.17744 0.06111 0.0
H28 H 0.10684 0.12158 0.07436 0.0
H29 H 0.06276 0.13704 0.09401 0.0
H30 H 0.0862 0.09921 0.1155 0.0
H31 H 0.05875 0.08981 0.1154 0.0
H32 H 0.05644 0.1413 0.12235 0.0
H33 H 0.03234 0.13678 0.13855 0.0
H34 H 0.1055 0.09214 0.06782 0.0
H35 H 0.11578 0.09708 0.11867 0.0
H36 H 0.03533 0.08536 0.1321 0.0
H37 H 0.12163 0.06923 0.06542 0.0
H38 H 0.13242 0.0742 0.11626 0.0
C39 C 0.33276 0.75052 0.2652 0.0
C40 C 0.34154 0.73695 0.26685 0.0
C41 C 0.31814 0.74919 0.25682 0.0
C42 C 0.31198 0.73428 0.24983 0.0
C43 C 0.32089 0.72076 0.25127 0.0
C44 C 0.33547 0.72208 0.2597 0.0
C45 C 0.2962 0.73275 0.24132 0.0
C46 C 0.29188 0.74476 0.23123 0.0
C47 C 0.2769 0.74344 0.22322 0.0
C48 C 0.26627 0.72977 0.22537 0.0
C49 C 0.27056 0.71749 0.23513 0.0
C50 C 0.28543 0.71919 0.2432 0.0
C51 C 0.25974 0.70264 0.23658 0.0
C52 C 0.24311 0.70344 0.23851 0.0
C53 C 0.26605 0.68747 0.23593 0.0
C54 C 0.25599 0.67343 0.23725 0.0
C55 C 0.23937 0.67421 0.23924 0.0
C56 C 0.27269 0.75603 0.21216 0.0
C57 C 0.27754 0.77239 0.21562 0.0
C58 C 0.26419 0.75173 0.19778 0.0
C59 C 0.26089 0.76341 0.18704 0.0
C60 C 0.26624 0.77969 0.19022 0.0
C61 C 0.27445 0.78405 0.20475 0.0
C62 C 0.23303 0.68937 0.23986 0.0
H63 H 0.33719 0.76221 0.27037 0.0
H64 H 0.31153 0.75981 0.25606 0.0
H65 H 0.3166 0.70914 0.24584 0.0
H66 H 0.34184 0.71136 0.26086 0.0
H67 H 0.30043 0.7549 0.22922 0.0
H68 H 0.28853 0.71 0.25119 0.0
H69 H 0.25473 0.72854 0.21926 0.0
H70 H 0.23791 0.71496 0.23917 0.0
H71 H 0.27879 0.68644 0.23425 0.0
H72 H 0.26128 0.66196 0.23691 0.0
H73 H 0.28386 0.77621 0.22669 0.0
H74 H 0.2604 0.73926 0.19457 0.0
H75 H 0.22025 0.69036 0.24126 0.0
H76 H 0.2789 0.79642 0.20758 0.0
H77 H 0.25426 0.7596 0.17614 0.0
C78 C 0.94058 0.45488 0.13751 0.0
C79 C 0.95647 0.45052 0.13628 0.0
C80 C 0.93052 0.45399 0.12395 0.0
C81 C 0.93622 0.44886 0.10888 0.0
C82 C 0.95209 0.44435 0.10778 0.0
C83 C 0.96204 0.44508 0.12131 0.0
C84 C 0.92609 0.44884 0.09413 0.0
C85 C 0.91632 0.46151 0.09158 0.0
C86 C 0.90846 0.46256 0.07676 0.0
C87 C 0.91021 0.45066 0.06451 0.0
C88 C 0.91986 0.43795 0.06691 0.0
C89 C 0.92742 0.43693 0.08183 0.0
C90 C 0.92351 0.4267 0.0534 0.0
C91 C 0.91124 0.41899 0.04354 0.0
C92 C 0.93957 0.42394 0.05014 0.0
C93 C 0.94333 0.4137 0.03726 0.0
C94 C 0.93112 0.40591 0.02741 0.0
C95 C 0.89975 0.47689 0.07349 0.0
C96 C 0.88827 0.48239 0.08422 0.0
C97 C 0.9032 0.48537 0.05964 0.0
C98 C 0.89531 0.49905 0.05652 0.0
C99 C 0.88358 0.50448 0.06706 0.0
C100 C 0.88018 0.496 0.08099 0.0
C101 C 0.91502 0.40854 0.03071 0.0
H102 H 0.93598 0.45906 0.14894 0.0
H103 H 0.91833 0.4574 0.12526 0.0
H104 H 0.95708 0.44075 0.09634 0.0
H105 H 0.97433 0.44197 0.11992 0.0
H106 H 0.91563 0.47113 0.10071 0.0
H107 H 0.93473 0.42698 0.08368 0.0
H108 H 0.90457 0.45167 0.05289 0.0
H109 H 0.89877 0.42094 0.04583 0.0
H110 H 0.94927 0.42989 0.05744 0.0
H111 H 0.95583 0.41176 0.03509 0.0
H112 H 0.88539 0.47602 0.09498 0.0
H113 H 0.91225 0.48159 0.05134 0.0
H114 H 0.90539 0.40269 0.02325 0.0
H115 H 0.87111 0.4997 0.08929 0.0
H116 H 0.89859 0.50547 0.0459 0.0
C117 C 0.70965 0.77617 0.18027 0.0
C118 C 0.72511 0.77357 0.17462 0.0
C119 C 0.70757 0.78726 0.19303 0.0
C120 C 0.72091 0.79601 0.20046 0.0
C121 C 0.73638 0.7933 0.19492 0.0
C122 C 0.73846 0.78221 0.18215 0.0
C123 C 0.71869 0.80801 0.21386 0.0
C124 C 0.70731 0.80468 0.22583 0.0
C125 C 0.70521 0.81594 0.23855 0.0
C126 C 0.71461 0.83068 0.23924 0.0
C127 C 0.72592 0.83433 0.22731 0.0
C128 C 0.72789 0.82291 0.21468 0.0
C129 C 0.73563 0.85008 0.22803 0.0
C130 C 0.72855 0.86437 0.2325 0.0
C131 C 0.75208 0.85092 0.22439 0.0
C132 C 0.76127 0.86569 0.22536 0.0
C133 C 0.75424 0.87996 0.23001 0.0
C134 C 0.69309 0.8124 0.25105 0.0
C135 C 0.67743 0.80631 0.2467 0.0
C136 C 0.697 0.81538 0.26737 0.0
C137 C 0.68545 0.81241 0.27913 0.0
C138 C 0.66968 0.80653 0.27481 0.0
C139 C 0.66583 0.80348 0.25844 0.0
C140 C 0.73775 0.87913 0.23349 0.0
H141 H 0.69912 0.76958 0.17486 0.0
H142 H 0.69549 0.78917 0.1969 0.0
H143 H 0.74692 0.7997 0.20051 0.0
H144 H 0.75052 0.78063 0.17799 0.0
H145 H 0.70032 0.79314 0.22548 0.0
H146 H 0.73631 0.82579 0.20522 0.0
H147 H 0.71304 0.83937 0.24908 0.0
H148 H 0.71587 0.86416 0.23517 0.0
H149 H 0.75792 0.84013 0.22103 0.0
H150 H 0.77389 0.86593 0.22241 0.0
H151 H 0.67403 0.80409 0.23419 0.0
H152 H 0.70905 0.81989 0.27106 0.0
H153 H 0.73198 0.88987 0.23725 0.0
H154 H 0.65375 0.79923 0.25463 0.0
H155 H 0.68893 0.81463 0.29161 0.0
C156 C 0.01546 0.96027 0.40301 0.0
C157 C 0.01943 0.96648 0.38805 0.0
C158 C 0.02739 0.9554 0.4131 0.0
C159 C 0.04358 0.95658 0.40846 0.0
C160 C 0.04747 0.96221 0.39324 0.0
C161 C 0.03555 0.96712 0.38316 0.0
C162 C 0.05642 0.95313 0.41993 0.0
C163 C 0.05425 0.94018 0.43011 0.0
C164 C 0.06569 0.93791 0.44207 0.0
C165 C 0.07957 0.94858 0.44349 0.0
C166 C 0.08196 0.96154 0.43343 0.0
C167 C 0.0704 0.96366 0.42161 0.0
C168 C 0.09594 0.97353 0.4361 0.0
C169 C 0.10051 0.97903 0.45178 0.0
C170 C 0.10457 0.97984 0.42311 0.0
C171 C 0.1175 0.99139 0.42577 0.0
C172 C 0.12206 0.99684 0.44147 0.0
C173 C 0.06263 0.92545 0.45412 0.0
C174 C 0.04726 0.92268 0.46069 0.0
C175 C 0.07535 0.91739 0.46027 0.0
C176 C 0.07298 0.90764 0.47334 0.0
C177 C 0.05779 0.90556 0.48046 0.0
C178 C 0.04486 0.91278 0.47363 0.0
C179 C 0.11342 0.99052 0.45443 0.0
H180 H 0.00313 0.95938 0.40703 0.0
H181 H 0.02397 0.95127 0.4248 0.0
H182 H 0.05981 0.96311 0.38924 0.0
H183 H 0.03906 0.97195 0.37177 0.0
H184 H 0.04356 0.93195 0.42882 0.0
H185 H 0.07186 0.97408 0.41432 0.0
H186 H 0.08832 0.94716 0.45286 0.0
H187 H 0.09388 0.97471 0.46204 0.0
H188 H 0.10139 0.97574 0.4109 0.0
H189 H 0.12402 0.99595 0.41555 0.0
H190 H 0.0372 0.92875 0.45634 0.0
H191 H 0.08728 0.91901 0.45531 0.0
H192 H 0.11642 0.99472 0.46665 0.0
H193 H 0.0329 0.91114 0.47855 0.0
H194 H 0.08325 0.90233 0.47827 0.0
C195 C 0.16914 0.74301 0.76307 0.0
C196 C 0.16671 0.75827 0.75733 0.0
C197 C 0.18096 0.74128 0.77466 0.0
C198 C 0.19042 0.75478 0.78099 0.0
C199 C 0.18801 0.77003 0.7754 0.0
C200 C 0.17639 0.77175 0.7636 0.0
C201 C 0.20266 0.75297 0.79355 0.0
C202 C 0.21403 0.74154 0.79133 0.0
C203 C 0.22569 0.73981 0.80319 0.0
C204 C 0.22565 0.74936 0.81751 0.0
C205 C 0.21409 0.76056 0.82009 0.0
C206 C 0.20279 0.76248 0.80791 0.0
C207 C 0.21345 0.76979 0.83571 0.0
C208 C 0.21532 0.76208 0.85015 0.0
C209 C 0.21074 0.78624 0.83636 0.0
C210 C 0.21 0.7948 0.85112 0.0
C211 C 0.21192 0.78709 0.86557 0.0
C212 C 0.23779 0.72786 0.80078 0.0
C213 C 0.233 0.71184 0.79585 0.0
C214 C 0.25416 0.73233 0.80373 0.0
C215 C 0.26554 0.72096 0.80186 0.0
C216 C 0.26072 0.70486 0.79725 0.0
C217 C 0.24435 0.70042 0.79422 0.0
C218 C 0.21455 0.77062 0.86489 0.0
H219 H 0.16174 0.73238 0.75885 0.0
H220 H 0.18248 0.72941 0.77893 0.0
H221 H 0.19528 0.78061 0.78002 0.0
H222 H 0.17512 0.78364 0.7593 0.0
H223 H 0.21402 0.73423 0.78022 0.0
H224 H 0.19368 0.77094 0.80981 0.0
H225 H 0.23454 0.74791 0.82675 0.0
H226 H 0.21711 0.74934 0.85007 0.0
H227 H 0.20942 0.79255 0.82544 0.0
H228 H 0.20818 0.80753 0.85122 0.0
H229 H 0.22044 0.70808 0.79359 0.0
H230 H 0.25816 0.74463 0.80745 0.0
H231 H 0.2158 0.76425 0.87579 0.0
H232 H 0.24034 0.6881 0.79056 0.0
H233 H 0.27807 0.72467 0.80435 0.0
C234 C 0.94133 0.65268 0.46322 0.0
C235 C 0.93632 0.65479 0.47914 0.0
C236 C 0.93698 0.63831 0.45439 0.0
C237 C 0.92784 0.62563 0.46144 0.0
C238 C 0.92239 0.62807 0.47723 0.0
C239 C 0.92649 0.64255 0.48593 0.0
C240 C 0.92507 0.60952 0.45292 0.0
C241 C 0.93716 0.6034 0.44333 0.0
C242 C 0.93532 0.58771 0.43632 0.0
C243 C 0.92133 0.57789 0.43932 0.0
C244 C 0.90905 0.58372 0.44889 0.0
C245 C 0.91088 0.5997 0.45528 0.0
C246 C 0.89482 0.57285 0.45302 0.0
C247 C 0.88823 0.56084 0.44189 0.0
C248 C 0.88822 0.57386 0.46848 0.0
C249 C 0.87558 0.56301 0.47279 0.0
C250 C 0.86945 0.55073 0.46184 0.0
C251 C 0.94823 0.58155 0.42617 0.0
C252 C 0.95584 0.59137 0.41481 0.0
C253 C 0.95312 0.56595 0.42781 0.0
C254 C 0.9654 0.5603 0.41828 0.0
C255 C 0.97298 0.57014 0.4069 0.0
C256 C 0.96807 0.58574 0.4053 0.0
C257 C 0.87578 0.54979 0.44632 0.0
H258 H 0.94885 0.66203 0.45772 0.0
H259 H 0.94109 0.63702 0.44215 0.0
H260 H 0.91559 0.61855 0.48321 0.0
H261 H 0.92265 0.64385 0.49827 0.0
H262 H 0.94838 0.61058 0.4418 0.0
H263 H 0.90128 0.60448 0.46223 0.0
H264 H 0.92016 0.56561 0.43435 0.0
H265 H 0.89275 0.55987 0.42979 0.0
H266 H 0.89315 0.58269 0.4775 0.0
H267 H 0.871 0.56384 0.48489 0.0
H268 H 0.95224 0.60341 0.41319 0.0
H269 H 0.9476 0.55816 0.43659 0.0
H270 H 0.87111 0.54047 0.43764 0.0
H271 H 0.97381 0.59368 0.39678 0.0
H272 H 0.96883 0.54818 0.41971 0.0
C273 C 0.79778 0.77898 0.84177 0.0
C274 C 0.78355 0.77064 0.84674 0.0
C275 C 0.79788 0.78789 0.82803 0.0
C276 C 0.78377 0.78859 0.81886 0.0
C277 C 0.7695 0.78033 0.8239 0.0
C278 C 0.76938 0.77147 0.83772 0.0
C279 C 0.78405 0.79781 0.80404 0.0
C280 C 0.79723 0.79752 0.79371 0.0
C281 C 0.79792 0.80653 0.77995 0.0
C282 C 0.78525 0.81591 0.7764 0.0
C283 C 0.772 0.81646 0.78666 0.0
C284 C 0.77142 0.80726 0.80037 0.0
C285 C 0.75933 0.82751 0.78377 0.0
C286 C 0.7636 0.84368 0.78059 0.0
C287 C 0.74299 0.82228 0.78506 0.0
C288 C 0.73116 0.83311 0.78353 0.0
C289 C 0.73549 0.8494 0.78094 0.0
C290 C 0.8122 0.80642 0.76963 0.0
C291 C 0.82756 0.81032 0.77633 0.0
C292 C 0.81065 0.80187 0.75324 0.0
C293 C 0.82433 0.80076 0.7438 0.0
C294 C 0.83971 0.80454 0.75055 0.0
C295 C 0.84119 0.80953 0.76684 0.0
C296 C 0.7518 0.85453 0.77928 0.0
H297 H 0.80882 0.77877 0.84863 0.0
H298 H 0.80901 0.79439 0.82469 0.0
H299 H 0.75847 0.78046 0.81701 0.0
H300 H 0.75827 0.76503 0.84117 0.0
H301 H 0.80697 0.79011 0.79624 0.0
H302 H 0.76145 0.80804 0.80855 0.0
H303 H 0.78586 0.82302 0.76585 0.0
H304 H 0.7761 0.84807 0.77967 0.0
H305 H 0.7394 0.80985 0.78743 0.0
H306 H 0.71867 0.82889 0.78494 0.0
H307 H 0.829 0.81391 0.78894 0.0
H308 H 0.79889 0.79876 0.74788 0.0
H309 H 0.75544 0.86701 0.77716 0.0
H310 H 0.85293 0.8124 0.77232 0.0
H311 H 0.82292 0.79695 0.73124 0.0
C312 C 0.2973 0.28252 0.34265 0.0
C313 C 0.28327 0.27367 0.34741 0.0
C314 C 0.29735 0.29115 0.32871 0.0
C315 C 0.28339 0.29107 0.31917 0.0
C316 C 0.26934 0.28224 0.32397 0.0
C317 C 0.26928 0.27365 0.33795 0.0
C318 C 0.28352 0.30017 0.30429 0.0
C319 C 0.29685 0.30034 0.2941 0.0
C320 C 0.29724 0.30918 0.28022 0.0
C321 C 0.2842 0.31799 0.27648 0.0
C322 C 0.27085 0.31813 0.28663 0.0
C323 C 0.27052 0.30906 0.3004 0.0
C324 C 0.2578 0.32869 0.28358 0.0
C325 C 0.26156 0.34496 0.28047 0.0
C326 C 0.2416 0.32291 0.28473 0.0
C327 C 0.22939 0.33332 0.28319 0.0
C328 C 0.23321 0.34972 0.28073 0.0
C329 C 0.3115 0.30945 0.26986 0.0
C330 C 0.32678 0.31416 0.27639 0.0
C331 C 0.30998 0.30466 0.25353 0.0
C332 C 0.32363 0.3042 0.24395 0.0
C333 C 0.33892 0.30888 0.2505 0.0
C334 C 0.34038 0.31403 0.26675 0.0
C335 C 0.24938 0.35539 0.27915 0.0
H336 H 0.3082 0.28297 0.34983 0.0
H337 H 0.3083 0.29806 0.32552 0.0
H338 H 0.25845 0.28176 0.31678 0.0
H339 H 0.25834 0.26676 0.34119 0.0
H340 H 0.30689 0.29339 0.29682 0.0
H341 H 0.26044 0.30951 0.30849 0.0
H342 H 0.28459 0.325 0.26585 0.0
H343 H 0.27395 0.34976 0.27965 0.0
H344 H 0.2384 0.31039 0.28705 0.0
H345 H 0.217 0.32869 0.28453 0.0
H346 H 0.32819 0.31795 0.28896 0.0
H347 H 0.29829 0.30093 0.24829 0.0
H348 H 0.25262 0.36798 0.27715 0.0
H349 H 0.35207 0.31759 0.27206 0.0
H350 H 0.32226 0.30023 0.23143 0.0
C351 C 0.44095 0.95539 0.63816 0.0
C352 C 0.45682 0.95104 0.63667 0.0
C353 C 0.43054 0.95406 0.62485 0.0
C354 C 0.43587 0.9485 0.60978 0.0
C355 C 0.45177 0.94414 0.6084 0.0
C356 C 0.46206 0.94529 0.62169 0.0
C357 C 0.42527 0.94771 0.59531 0.0
C358 C 0.41514 0.96002 0.59251 0.0
C359 C 0.4067 0.96022 0.57788 0.0
C360 C 0.40829 0.94783 0.56608 0.0
C361 C 0.41834 0.9355 0.56872 0.0
C362 C 0.42642 0.9353 0.58347 0.0
C363 C 0.42187 0.92378 0.55557 0.0
C364 C 0.4095 0.91537 0.54634 0.0
C365 C 0.43792 0.92124 0.55202 0.0
C366 C 0.44158 0.91052 0.53952 0.0
C367 C 0.42927 0.90201 0.53031 0.0
C368 C 0.39739 0.97408 0.57431 0.0
C369 C 0.38647 0.98 0.58542 0.0
C370 C 0.3996 0.98161 0.55971 0.0
C371 C 0.39094 0.99466 0.55617 0.0
C372 C 0.37971 0.00043 0.56708 0.0
C373 C 0.37765 0.99301 0.58181 0.0
C374 C 0.41318 0.90443 0.53388 0.0
H375 H 0.43661 0.95984 0.64961 0.0
H376 H 0.41834 0.9574 0.62636 0.0
H377 H 0.45649 0.94024 0.59693 0.0
H378 H 0.47433 0.9422 0.62009 0.0
H379 H 0.41455 0.96998 0.60127 0.0
H380 H 0.434 0.9256 0.58553 0.0
H381 H 0.4022 0.94813 0.5546 0.0
H382 H 0.39704 0.91714 0.54886 0.0
H383 H 0.44769 0.92772 0.55882 0.0
H384 H 0.45407 0.90876 0.53714 0.0
H385 H 0.38453 0.97438 0.59676 0.0
H386 H 0.40822 0.97754 0.55108 0.0
H387 H 0.40349 0.89804 0.52691 0.0
H388 H 0.369 0.99703 0.59042 0.0
H389 H 0.39316 0.00031 0.5449 0.0
C390 C 0.21252 0.27649 0.67579 0.0
C391 C 0.22762 0.27035 0.67346 0.0
C392 C 0.21024 0.2879 0.68821 0.0
C393 C 0.22307 0.29368 0.69838 0.0
C394 C 0.23818 0.28772 0.69606 0.0
C395 C 0.24041 0.27607 0.68383 0.0
C396 C 0.2207 0.30595 0.71136 0.0
C397 C 0.20826 0.30343 0.72242 0.0
C398 C 0.2061 0.31493 0.7349 0.0
C399 C 0.21621 0.32922 0.73598 0.0
C400 C 0.22846 0.33208 0.72477 0.0
C401 C 0.23079 0.32024 0.71264 0.0
C402 C 0.23857 0.34757 0.72558 0.0
C403 C 0.23152 0.3622 0.72835 0.0
C404 C 0.25528 0.34786 0.72355 0.0
C405 C 0.26476 0.36247 0.72449 0.0
C406 C 0.25771 0.3771 0.72736 0.0
C407 C 0.19331 0.31204 0.74687 0.0
C408 C 0.17751 0.3071 0.74191 0.0
C409 C 0.19681 0.31437 0.76335 0.0
C410 C 0.18473 0.31186 0.77467 0.0
C411 C 0.16887 0.30719 0.7697 0.0
C412 C 0.16537 0.30482 0.75321 0.0
C413 C 0.24097 0.37681 0.7292 0.0
H414 H 0.20246 0.27271 0.66788 0.0
H415 H 0.19851 0.29247 0.68968 0.0
H416 H 0.24822 0.29191 0.70387 0.0
H417 H 0.25212 0.27145 0.68266 0.0
H418 H 0.20056 0.29232 0.72155 0.0
H419 H 0.24013 0.32235 0.70384 0.0
H420 H 0.21446 0.33819 0.74552 0.0
H421 H 0.21864 0.36238 0.72976 0.0
H422 H 0.26106 0.33676 0.72148 0.0
H423 H 0.27761 0.36233 0.72289 0.0
H424 H 0.17449 0.3053 0.72927 0.0
H425 H 0.20893 0.31806 0.76749 0.0
H426 H 0.2352 0.38786 0.73159 0.0
H427 H 0.15325 0.30113 0.74908 0.0
H428 H 0.18771 0.31388 0.78729 0.0
C429 C 0.8336 0.25111 0.7623 0.0
C430 C 0.84245 0.23752 0.76341 0.0
C431 C 0.81923 0.25015 0.75353 0.0
C432 C 0.8134 0.2356 0.74556 0.0
C433 C 0.8224 0.22208 0.74641 0.0
C434 C 0.83674 0.22302 0.75527 0.0
C435 C 0.79779 0.23445 0.73673 0.0
C436 C 0.7934 0.24719 0.72764 0.0
C437 C 0.77839 0.24646 0.71975 0.0
C438 C 0.76786 0.23252 0.72082 0.0
C439 C 0.77224 0.21948 0.72951 0.0
C440 C 0.78712 0.22065 0.73758 0.0
C441 C 0.7614 0.20453 0.73013 0.0
C442 C 0.74481 0.20524 0.73245 0.0
C443 C 0.76768 0.18938 0.72857 0.0
C444 C 0.75767 0.17526 0.72953 0.0
C445 C 0.74111 0.17595 0.73206 0.0
C446 C 0.77389 0.26014 0.71022 0.0
C447 C 0.77878 0.27616 0.71524 0.0
C448 C 0.76495 0.2573 0.69585 0.0
C449 C 0.76113 0.27012 0.68671 0.0
C450 C 0.76641 0.28602 0.69158 0.0
C451 C 0.77522 0.28894 0.70593 0.0
C452 C 0.73477 0.1911 0.73342 0.0
H453 H 0.83777 0.26254 0.76821 0.0
H454 H 0.81253 0.26075 0.75327 0.0
H455 H 0.81838 0.21074 0.74023 0.0
H456 H 0.84317 0.21228 0.75597 0.0
H457 H 0.80188 0.25757 0.72643 0.0
H458 H 0.79022 0.2109 0.74486 0.0
H459 H 0.75626 0.23172 0.71481 0.0
H460 H 0.73962 0.21674 0.7338 0.0
H461 H 0.78039 0.18843 0.72658 0.0
H462 H 0.76296 0.1638 0.72861 0.0
H463 H 0.78535 0.27888 0.72639 0.0
H464 H 0.76122 0.24516 0.6914 0.0
H465 H 0.72203 0.19202 0.73521 0.0
H466 H 0.7793 0.30114 0.70997 0.0
H467 H 0.75448 0.26757 0.67557 0.0
C468 C 0.58009 0.63515 0.53704 0.0
C469 C 0.577 0.65148 0.53823 0.0
C470 C 0.5823 0.6267 0.55083 0.0
C471 C 0.58128 0.63437 0.56612 0.0
C472 C 0.57852 0.6508 0.56733 0.0
C473 C 0.57651 0.65931 0.5535 0.0
C474 C 0.58222 0.62493 0.58068 0.0
C475 C 0.59412 0.61407 0.5821 0.0
C476 C 0.5941 0.60376 0.59495 0.0
C477 C 0.58223 0.60489 0.60675 0.0
C478 C 0.57022 0.61574 0.60558 0.0
C479 C 0.57041 0.62579 0.59251 0.0
C480 C 0.55687 0.61576 0.61736 0.0
C481 C 0.55045 0.60122 0.62353 0.0
C482 C 0.55007 0.63015 0.62218 0.0
C483 C 0.5371 0.62995 0.63273 0.0
C484 C 0.53084 0.6154 0.63887 0.0
C485 C 0.60563 0.59097 0.5954 0.0
C486 C 0.61011 0.58295 0.58108 0.0
C487 C 0.61153 0.586 0.61008 0.0
C488 C 0.62118 0.57303 0.61043 0.0
C489 C 0.62541 0.56498 0.5961 0.0
C490 C 0.61999 0.57022 0.58143 0.0
C491 C 0.5377 0.60107 0.63425 0.0
H492 H 0.58062 0.62885 0.52541 0.0
H493 H 0.58427 0.61401 0.54954 0.0
H494 H 0.57775 0.65701 0.57897 0.0
H495 H 0.57404 0.67188 0.55475 0.0
H496 H 0.6033 0.61357 0.57302 0.0
H497 H 0.56085 0.63368 0.59103 0.0
H498 H 0.58202 0.59693 0.61663 0.0
H499 H 0.555 0.58983 0.61981 0.0
H500 H 0.5548 0.6416 0.61785 0.0
H501 H 0.53205 0.64117 0.63619 0.0
H502 H 0.60556 0.5861 0.56956 0.0
H503 H 0.6086 0.59204 0.62133 0.0
H504 H 0.5329 0.58965 0.6386 0.0
H505 H 0.62291 0.56406 0.57023 0.0
H506 H 0.62533 0.56926 0.62188 0.0
C507 C 0.51374 0.46165 0.90276 0.0
C508 C 0.51792 0.46797 0.88789 0.0
C509 C 0.52556 0.45685 0.91304 0.0
C510 C 0.54183 0.45828 0.90869 0.0
C511 C 0.54594 0.4641 0.89361 0.0
C512 C 0.53414 0.4689 0.88334 0.0
C513 C 0.55456 0.45472 0.92022 0.0
C514 C 0.55259 0.4413 0.92982 0.0
C515 C 0.56422 0.43858 0.94144 0.0
C516 C 0.5781 0.44924 0.94305 0.0
C517 C 0.5802 0.46284 0.93375 0.0
C518 C 0.56835 0.46543 0.92234 0.0
C519 C 0.5942 0.47487 0.93671 0.0
C520 C 0.60026 0.47834 0.95239 0.0
C521 C 0.60136 0.48331 0.92403 0.0
C522 C 0.61404 0.49507 0.92702 0.0
C523 C 0.62003 0.49835 0.94268 0.0
C524 C 0.56134 0.42567 0.95306 0.0
C525 C 0.54609 0.42273 0.95983 0.0
C526 C 0.57416 0.41746 0.95878 0.0
C527 C 0.57205 0.40752 0.97174 0.0
C528 C 0.55701 0.40537 0.97915 0.0
C529 C 0.54393 0.41262 0.97264 0.0
C530 C 0.61315 0.48981 0.9553 0.0
H531 H 0.50133 0.46058 0.90653 0.0
H532 H 0.522 0.45254 0.92463 0.0
H533 H 0.55835 0.46519 0.88984 0.0
H534 H 0.53781 0.47383 0.87204 0.0
H535 H 0.54195 0.43304 0.92831 0.0
H536 H 0.56946 0.47624 0.91559 0.0
H537 H 0.58707 0.44725 0.95201 0.0
H538 H 0.59484 0.47249 0.96255 0.0
H539 H 0.5972 0.48082 0.91178 0.0
H540 H 0.61926 0.50153 0.91712 0.0
H541 H 0.53594 0.42887 0.9558 0.0
H542 H 0.586 0.41917 0.95362 0.0
H543 H 0.61747 0.49235 0.96751 0.0
H544 H 0.53208 0.41091 0.97777 0.0
H545 H 0.58242 0.40217 0.97639 0.0
C546 C 0.67419 0.24345 0.2618 0.0
C547 C 0.66833 0.25853 0.25938 0.0
C548 C 0.68589 0.24183 0.27354 0.0
C549 C 0.69206 0.25527 0.28312 0.0
C550 C 0.68636 0.27038 0.28057 0.0
C551 C 0.67462 0.27199 0.26886 0.0
C552 C 0.70424 0.25348 0.29587 0.0
C553 C 0.71673 0.24333 0.29319 0.0
C554 C 0.72817 0.24149 0.30525 0.0
C555 C 0.72708 0.24994 0.32011 0.0
C556 C 0.71459 0.26002 0.32308 0.0
C557 C 0.70326 0.26173 0.31088 0.0
C558 C 0.7132 0.26852 0.33901 0.0
C559 C 0.71566 0.26056 0.35319 0.0
C560 C 0.7093 0.28464 0.34015 0.0
C561 C 0.70796 0.29263 0.35513 0.0
C562 C 0.71047 0.28469 0.36932 0.0
C563 C 0.74106 0.23045 0.30245 0.0
C564 C 0.73733 0.21475 0.29595 0.0
C565 C 0.75709 0.2354 0.30656 0.0
C566 C 0.76915 0.22481 0.30428 0.0
C567 C 0.76542 0.20897 0.298 0.0
C568 C 0.74934 0.2041 0.29384 0.0
C569 C 0.71431 0.26855 0.36817 0.0
H570 H 0.66976 0.23286 0.25458 0.0
H571 H 0.68989 0.22998 0.27528 0.0
H572 H 0.69099 0.28101 0.28761 0.0
H573 H 0.67027 0.28375 0.26745 0.0
H574 H 0.71776 0.23705 0.28161 0.0
H575 H 0.69335 0.26913 0.31325 0.0
H576 H 0.73589 0.24853 0.32944 0.0
H577 H 0.71841 0.24806 0.35272 0.0
H578 H 0.70754 0.29117 0.32945 0.0
H579 H 0.70524 0.30514 0.35559 0.0
H580 H 0.72503 0.21056 0.29287 0.0
H581 H 0.76031 0.24751 0.31144 0.0
H582 H 0.71609 0.26201 0.37887 0.0
H583 H 0.74592 0.19192 0.28928 0.0
H584 H 0.78141 0.22909 0.30736 0.0
C585 C 0.4463 0.14778 0.96904 0.0
C586 C 0.44407 0.14652 0.98562 0.0
C587 C 0.4414 0.13482 0.95836 0.0
C588 C 0.43405 0.12049 0.96411 0.0
C589 C 0.43137 0.11951 0.98066 0.0
C590 C 0.43632 0.13237 0.99127 0.0
C591 C 0.43017 0.10607 0.95326 0.0
C592 C 0.44144 0.10111 0.94206 0.0
C593 C 0.439 0.08615 0.93356 0.0
C594 C 0.42508 0.07612 0.93637 0.0
C595 C 0.41356 0.08095 0.94744 0.0
C596 C 0.41604 0.09618 0.95544 0.0
C597 C 0.3997 0.06964 0.9517 0.0
C598 C 0.39216 0.05862 0.94016 0.0
C599 C 0.39437 0.06933 0.96767 0.0
C600 C 0.38188 0.05835 0.97197 0.0
C601 C 0.37465 0.04718 0.96052 0.0
C602 C 0.45163 0.08056 0.92271 0.0
C603 C 0.45944 0.09115 0.91214 0.0
C604 C 0.45641 0.0648 0.9233 0.0
C605 C 0.46888 0.0598 0.91367 0.0
C606 C 0.47684 0.07046 0.90326 0.0
C607 C 0.4719 0.08615 0.90251 0.0
C608 C 0.37985 0.04737 0.94458 0.0
H609 H 0.45228 0.15856 0.96438 0.0
H610 H 0.44354 0.13592 0.94566 0.0
H611 H 0.42596 0.10857 0.98551 0.0
H612 H 0.43425 0.13115 0.00397 0.0
H613 H 0.45261 0.10845 0.94068 0.0
H614 H 0.40716 0.10024 0.9638 0.0
H615 H 0.4235 0.06433 0.93026 0.0
H616 H 0.39576 0.05862 0.92772 0.0
H617 H 0.40012 0.07725 0.97703 0.0
H618 H 0.3782 0.05824 0.9844 0.0
H619 H 0.45589 0.10331 0.9113 0.0
H620 H 0.45081 0.05645 0.93152 0.0
H621 H 0.37436 0.03886 0.93555 0.0
H622 H 0.47762 0.09456 0.89441 0.0
H623 H 0.47254 0.0477 0.91468 0.0
O624 O 0.23993 0.88272 0.01961 0.0
Cd625 Cd 0.24967 0.89816 0.03769 0.0
Cd626 Cd 0.22633 0.91681 0.02888 0.0
O627 O 0.21958 0.89688 0.01391 0.0
O628 O 0.26265 0.88525 0.05145 0.0
O629 O 0.2408 0.89641 0.05993 0.0
C630 C 0.25257 0.88773 0.06277 0.0
C631 C 0.20673 0.93115 0.04167 0.0
C632 C 0.22727 0.88442 0.01152 0.0
C633 C 0.2608 0.9296 0.02462 0.0
O634 O 0.24602 0.93152 0.02252 0.0
O635 O 0.2651 0.91709 0.03102 0.0
O636 O 0.20866 0.93112 0.02638 0.0
O637 O 0.21551 0.9223 0.04981 0.0
O638 O 0.13786 0.52407 0.27711 0.0
Cd639 Cd 0.12283 0.50553 0.28547 0.0
Cd640 Cd 0.1028 0.51515 0.26318 0.0
O641 O 0.12261 0.52959 0.25675 0.0
O642 O 0.13698 0.49124 0.29624 0.0
O643 O 0.12246 0.4835 0.2745 0.0
C644 C 0.13271 0.48021 0.28533 0.0
C645 C 0.08551 0.50278 0.24343 0.0
C646 C 0.13563 0.53203 0.26478 0.0
C647 C 0.09331 0.51872 0.29801 0.0
O648 O 0.09081 0.52192 0.28353 0.0
O649 O 0.1054 0.51126 0.3017 0.0
O650 O 0.08653 0.51813 0.2464 0.0
O651 O 0.09503 0.49435 0.2512 0.0
O652 O 0.75653 0.67289 0.99077 0.0
Cd653 Cd 0.74773 0.6583 0.00834 0.0
Cd654 Cd 0.77178 0.64014 0.99828 0.0
O655 O 0.77713 0.65922 0.98373 0.0
O656 O 0.73427 0.6721 0.02176 0.0
O657 O 0.75612 0.6621 0.03099 0.0
C658 C 0.7442 0.67087 0.03345 0.0
C659 C 0.79255 0.62844 0.01111 0.0
C660 C 0.76887 0.67125 0.98222 0.0
C661 C 0.73762 0.6255 0.99444 0.0
O662 O 0.75245 0.62404 0.99207 0.0
O663 O 0.73298 0.63829 0.00117 0.0
O664 O 0.79028 0.62668 0.99583 0.0
O665 O 0.78331 0.63748 0.01921 0.0
O666 O 0.90406 0.03372 0.27415 0.0
Cd667 Cd 0.88941 0.04192 0.25682 0.0
Cd668 Cd 0.87232 0.0497 0.28257 0.0
O669 O 0.8916 0.04287 0.29549 0.0
O670 O 0.90237 0.04057 0.23701 0.0
O671 O 0.89561 0.0637 0.24804 0.0
C672 C 0.90305 0.05605 0.23692 0.0
C673 C 0.86324 0.07525 0.28636 0.0
C674 C 0.90317 0.03579 0.28929 0.0
C675 C 0.85672 0.0247 0.25947 0.0
O676 O 0.85603 0.03172 0.27328 0.0
O677 O 0.86869 0.02787 0.25053 0.0
O678 O 0.85997 0.06422 0.29645 0.0
O679 O 0.87215 0.07187 0.27424 0.0
O680 O 0.2567 0.17254 0.48957 0.0
Cd681 Cd 0.24929 0.15678 0.50685 0.0
Cd682 Cd 0.27327 0.14054 0.49511 0.0
O683 O 0.27883 0.16116 0.48292 0.0
O684 O 0.23568 0.16875 0.52192 0.0
O685 O 0.25912 0.16026 0.52893 0.0
C686 C 0.24661 0.16775 0.53274 0.0
C687 C 0.29285 0.12755 0.50831 0.0
C688 C 0.26961 0.17246 0.48157 0.0
C689 C 0.23989 0.12496 0.49038 0.0
O690 O 0.25452 0.12499 0.48634 0.0
O691 O 0.23529 0.13622 0.49959 0.0
O692 O 0.292 0.12738 0.49287 0.0
O693 O 0.28305 0.13598 0.51639 0.0
O694 O 0.40533 0.53359 0.77012 0.0
Cd695 Cd 0.39058 0.54132 0.75262 0.0
Cd696 Cd 0.37322 0.5496 0.77791 0.0
O697 O 0.3926 0.54329 0.79105 0.0
O698 O 0.40391 0.54259 0.733 0.0
O699 O 0.39488 0.56401 0.74558 0.0
C700 C 0.40322 0.558 0.73412 0.0
C701 C 0.36267 0.5744 0.7827 0.0
C702 C 0.40427 0.5361 0.78521 0.0
C703 C 0.35836 0.5236 0.75508 0.0
O704 O 0.35748 0.53116 0.76859 0.0
O705 O 0.37037 0.52653 0.74611 0.0
O706 O 0.36007 0.56285 0.79233 0.0
O707 O 0.37177 0.57202 0.77049 0.0
O708 O 0.73758 0.38361 0.52105 0.0
Cd709 Cd 0.74686 0.3999 0.53864 0.0
Cd710 Cd 0.72273 0.41691 0.52997 0.0
O711 O 0.71605 0.3963 0.51591 0.0
O712 O 0.75981 0.38817 0.55365 0.0
O713 O 0.73725 0.39895 0.56052 0.0
C714 C 0.74913 0.3908 0.56436 0.0
C715 C 0.70451 0.42956 0.54629 0.0
C716 C 0.72442 0.38432 0.51346 0.0
C717 C 0.75618 0.43127 0.52428 0.0
O718 O 0.74123 0.43228 0.52205 0.0
O719 O 0.76116 0.41942 0.53137 0.0
O720 O 0.70371 0.4299 0.53088 0.0
O721 O 0.71525 0.42132 0.55248 0.0
O722 O 0.64186 0.02544 0.77242 0.0
Cd723 Cd 0.62697 0.00715 0.78149 0.0
Cd724 Cd 0.60653 0.01641 0.75925 0.0
O725 O 0.62628 0.03053 0.75215 0.0
O726 O 0.64135 0.9933 0.79257 0.0
O727 O 0.62658 0.98479 0.77123 0.0
C728 C 0.63699 0.98191 0.78206 0.0
C729 C 0.58872 0.00386 0.74005 0.0
C730 C 0.63943 0.0331 0.75993 0.0
C731 C 0.59768 0.02082 0.79415 0.0
O732 O 0.59499 0.02379 0.77964 0.0
O733 O 0.60974 0.0133 0.79779 0.0
O734 O 0.58999 0.01925 0.74269 0.0
O735 O 0.59829 0.99547 0.74779 0.0
O736 O 0.98548 0.27689 0.91319 0.0
Cd737 Cd 0.99372 0.25783 0.89989 0.0
Cd738 Cd 0.00672 0.28145 0.88239 0.0
O739 O 0.99926 0.29624 0.90095 0.0
O740 O 0.9922 0.23977 0.91459 0.0
O741 O 0.01531 0.25031 0.90541 0.0
C742 C 0.00767 0.24019 0.91445 0.0
C743 C 0.03227 0.2867 0.87182 0.0
C744 C 0.98978 0.29174 0.912 0.0
C745 C 0.98064 0.25846 0.86694 0.0
O746 O 0.98952 0.2715 0.8662 0.0
O747 O 0.98106 0.25018 0.8793 0.0
O748 O 0.0208 0.29572 0.86914 0.0
O749 O 0.02937 0.27477 0.88098 0.0
O750 O 0.48513 0.77258 0.41648 0.0
Cd751 Cd 0.49392 0.75463 0.40202 0.0
Cd752 Cd 0.5064 0.77914 0.38564 0.0
O753 O 0.4986 0.79267 0.40498 0.0
O754 O 0.49498 0.73534 0.41503 0.0
O755 O 0.51653 0.74936 0.4062 0.0
C756 C 0.51043 0.73764 0.41438 0.0
C757 C 0.53219 0.78474 0.37575 0.0
C758 C 0.48924 0.78755 0.41589 0.0
C759 C 0.48074 0.75662 0.36918 0.0
O760 O 0.48941 0.76983 0.36897 0.0
O761 O 0.48135 0.7478 0.38114 0.0
O762 O 0.52088 0.79406 0.37336 0.0
O763 O 0.52896 0.77235 0.38422 0.0
O764 O 0.98741 0.77387 0.65395 0.0
Cd765 Cd 0.00693 0.771 0.63921 0.0
Cd766 Cd 0.99669 0.79615 0.62636 0.0
O767 O 0.98482 0.7989 0.64768 0.0
O768 O 0.02174 0.75743 0.65024 0.0
O769 O 0.02782 0.78318 0.64569 0.0
C770 C 0.03181 0.77 0.65163 0.0
C771 C 0.01251 0.8169 0.61541 0.0
C772 C 0.98104 0.78713 0.65638 0.0
C773 C 0.99276 0.76571 0.6067 0.0
O774 O 0.98697 0.77919 0.60952 0.0
O775 O 0.00283 0.76075 0.61641 0.0
O776 O 0.99708 0.81701 0.6158 0.0
O777 O 0.01909 0.80536 0.62212 0.0
O778 O 0.48815 0.27893 0.1575 0.0
Cd779 Cd 0.50732 0.27322 0.1435 0.0
Cd780 Cd 0.4986 0.29748 0.12683 0.0
O781 O 0.48453 0.30192 0.14654 0.0
O782 O 0.52065 0.26021 0.15686 0.0
O783 O 0.52931 0.28405 0.14825 0.0
C784 C 0.53195 0.27164 0.15631 0.0
C785 C 0.5141 0.31815 0.11531 0.0
C786 C 0.48104 0.29184 0.15717 0.0
C787 C 0.49459 0.26458 0.11065 0.0
O788 O 0.49083 0.27905 0.11054 0.0
O789 O 0.50233 0.25987 0.12247 0.0
O790 O 0.49864 0.31719 0.11442 0.0
O791 O 0.52086 0.30774 0.12351 0.0
C792 C 0.19994 0.80758 0.88403 0.0
C793 C 0.21131 0.79618 0.88128 0.0
C794 C 0.1995 0.81619 0.8988 0.0
C795 C 0.21268 0.8157 0.94122 0.0
H796 H 0.20891 0.86177 0.94125 0.0
C797 C 0.23111 0.85901 0.99522 0.0
C798 C 0.22225 0.87245 0.99839 0.0
C799 C 0.22757 0.8487 0.98177 0.0
C800 C 0.20968 0.84888 0.9415 0.0
H801 H 0.23123 0.78506 0.89186 0.0
H802 H 0.23046 0.80006 0.91758 0.0
H803 H 0.20702 0.84581 0.91599 0.0
H804 H 0.20219 0.88514 0.99028 0.0
H805 H 0.19593 0.86702 0.96686 0.0
H806 H 0.21564 0.81883 0.96671 0.0
C807 C 0.2217 0.80214 0.90842 0.0
C808 C 0.20862 0.83973 0.927 0.0
C809 C 0.22216 0.79355 0.89367 0.0
C810 C 0.20932 0.87495 0.98816 0.0
C811 C 0.20578 0.86463 0.97468 0.0
C812 C 0.21373 0.82485 0.95572 0.0
C813 C 0.2104 0.81358 0.91115 0.0
C814 C 0.21035 0.82308 0.92667 0.0
C815 C 0.21507 0.85157 0.97116 0.0
C816 C 0.21248 0.84158 0.956 0.0
H817 H 0.19126 0.80971 0.87482 0.0
H818 H 0.19053 0.82479 0.90059 0.0
H819 H 0.21379 0.80285 0.94139 0.0
H820 H 0.24114 0.8567 0.00285 0.0
H821 H 0.23507 0.83885 0.97933 0.0
C822 C 0.99797 0.55547 0.40315 0.0
C823 C 0.98594 0.56422 0.39667 0.0
C824 C 0.01046 0.55042 0.39353 0.0
C825 C 0.03163 0.55988 0.35616 0.0
H826 H 0.04562 0.51667 0.35758 0.0
C827 C 0.06917 0.53281 0.30623 0.0
C828 C 0.08199 0.52384 0.31047 0.0
C829 C 0.05842 0.5378 0.31778 0.0
C830 C 0.04199 0.52885 0.35723 0.0
H831 H 0.97725 0.57398 0.3749 0.0
H832 H 0.99899 0.56522 0.35817 0.0
H833 H 0.02477 0.52513 0.37589 0.0
H834 H 0.09351 0.513 0.33019 0.0
H835 H 0.0746 0.52181 0.35048 0.0
H836 H 0.04863 0.56357 0.3374 0.0
C837 C 0.99897 0.56254 0.37075 0.0
C838 C 0.03006 0.53368 0.36769 0.0
C839 C 0.98651 0.56756 0.38033 0.0
C840 C 0.08377 0.51991 0.32655 0.0
C841 C 0.07292 0.52488 0.33814 0.0
C842 C 0.04351 0.55506 0.34574 0.0
C843 C 0.01116 0.55405 0.37727 0.0
C844 C 0.02456 0.54916 0.36704 0.0
C845 C 0.06019 0.53396 0.33386 0.0
C846 C 0.04861 0.5394 0.34595 0.0
H847 H 0.99794 0.55285 0.41574 0.0
H848 H 0.01975 0.544 0.39891 0.0
H849 H 0.0279 0.57201 0.35563 0.0
H850 H 0.06738 0.53601 0.29396 0.0
H851 H 0.04857 0.54454 0.31405 0.0
C852 C 0.79591 0.751 0.86397 0.0
C853 C 0.78353 0.76108 0.86126 0.0
C854 C 0.7959 0.74196 0.87764 0.0
C855 C 0.77967 0.74002 0.91845 0.0
H856 H 0.78744 0.69476 0.91395 0.0
C857 C 0.76315 0.69559 0.96741 0.0
C858 C 0.77299 0.68296 0.96981 0.0
C859 C 0.76613 0.7059 0.9549 0.0
C860 C 0.78553 0.70744 0.91549 0.0
H861 H 0.76155 0.76974 0.87082 0.0
H862 H 0.76147 0.75387 0.89468 0.0
H863 H 0.78929 0.7112 0.89054 0.0
H864 H 0.79408 0.67166 0.96127 0.0
H865 H 0.79944 0.68986 0.93954 0.0
H866 H 0.77584 0.7363 0.94336 0.0
C867 C 0.77123 0.75303 0.88626 0.0
C868 C 0.78655 0.71684 0.90205 0.0
C869 C 0.77118 0.76198 0.87253 0.0
C870 C 0.78621 0.68121 0.95971 0.0
C871 C 0.78922 0.69158 0.94719 0.0
C872 C 0.77875 0.73065 0.93189 0.0
C873 C 0.78357 0.7429 0.88894 0.0
C874 C 0.7834 0.73317 0.90336 0.0
C875 C 0.77908 0.7039 0.94451 0.0
C876 C 0.78143 0.71419 0.93053 0.0
H877 H 0.80552 0.74995 0.85542 0.0
H878 H 0.80561 0.73432 0.87944 0.0
H879 H 0.77746 0.75264 0.91986 0.0
H880 H 0.75284 0.69729 0.97494 0.0
H881 H 0.75793 0.71511 0.95307 0.0
C882 C 0.99526 0.98223 0.38502 0.0
C883 C 0.00698 0.97301 0.37794 0.0
C884 C 0.98395 0.98898 0.37554 0.0
C885 C 0.97735 0.00184 0.33463 0.0
H886 H 0.93267 0.00089 0.34722 0.0
C887 C 0.92773 0.02085 0.29281 0.0
C888 C 0.91545 0.02946 0.29966 0.0
C889 C 0.939 0.01432 0.3025 0.0
C890 C 0.94514 0.00145 0.34365 0.0
H891 H 0.01573 0.96338 0.35533 0.0
H892 H 0.99601 0.97526 0.33876 0.0
H893 H 0.95194 0.98839 0.36377 0.0
H894 H 0.90557 0.03817 0.32213 0.0
H895 H 0.92541 0.02695 0.33906 0.0
H896 H 0.97061 0.01496 0.31457 0.0
C897 C 0.99572 0.9774 0.35166 0.0
C898 C 0.95617 0.99425 0.35311 0.0
C899 C 0.00701 0.97059 0.36115 0.0
C900 C 0.91483 0.03156 0.31646 0.0
C901 C 0.92615 0.02504 0.32617 0.0
C902 C 0.96634 0.00908 0.3252 0.0
C903 C 0.98412 0.98674 0.35875 0.0
C904 C 0.97238 0.99433 0.34868 0.0
C905 C 0.93831 0.01627 0.3193 0.0
C906 C 0.9501 0.00893 0.32957 0.0
H907 H 0.99506 0.98459 0.39789 0.0
H908 H 0.97531 0.9963 0.38135 0.0
H909 H 0.98982 0.00234 0.33105 0.0
H910 H 0.92855 0.01895 0.27992 0.0
H911 H 0.94807 0.00745 0.29682 0.0
C912 C 0.24474 0.2582 0.65198 0.0
C913 C 0.23003 0.25817 0.66017 0.0
C914 C 0.24683 0.24705 0.63926 0.0
C915 C 0.22493 0.22426 0.60736 0.0
H916 H 0.26032 0.19678 0.60548 0.0
C917 C 0.22961 0.1782 0.55469 0.0
C918 C 0.24493 0.17558 0.54881 0.0
C919 C 0.22788 0.18686 0.56922 0.0
C920 C 0.25049 0.20451 0.60567 0.0
H921 H 0.20618 0.24587 0.66154 0.0
H922 H 0.20966 0.22698 0.63885 0.0
H923 H 0.25745 0.215 0.62893 0.0
H924 H 0.27049 0.17965 0.55358 0.0
H925 H 0.26757 0.19548 0.5786 0.0
H926 H 0.21829 0.21461 0.58394 0.0
C927 C 0.21954 0.23564 0.64243 0.0
C928 C 0.24882 0.21486 0.61916 0.0
C929 C 0.21754 0.24657 0.65534 0.0
C930 C 0.25852 0.18143 0.55792 0.0
C931 C 0.25681 0.19044 0.57231 0.0
C932 C 0.22675 0.21419 0.59376 0.0
C933 C 0.23417 0.23583 0.63426 0.0
C934 C 0.23598 0.22476 0.62012 0.0
C935 C 0.24145 0.1935 0.57804 0.0
C936 C 0.23951 0.20409 0.59272 0.0
H937 H 0.25456 0.26709 0.6551 0.0
H938 H 0.25817 0.24751 0.63301 0.0
H939 H 0.21505 0.23196 0.60776 0.0
H940 H 0.21892 0.17364 0.54798 0.0
H941 H 0.21584 0.18847 0.57342 0.0
C942 C 0.51721 0.60641 0.66386 0.0
C943 C 0.51688 0.6149 0.64974 0.0
C944 C 0.50356 0.60455 0.67336 0.0
C945 C 0.47446 0.60814 0.69475 0.0
H946 H 0.43636 0.58971 0.67169 0.0
C947 C 0.41728 0.58455 0.72761 0.0
C948 C 0.41266 0.56836 0.72316 0.0
C949 C 0.42814 0.59359 0.71822 0.0
C950 C 0.44685 0.59502 0.67827 0.0
H951 H 0.5022 0.62847 0.63468 0.0
H952 H 0.47813 0.62499 0.65124 0.0
H953 H 0.45978 0.59996 0.65675 0.0
H954 H 0.41495 0.54924 0.70497 0.0
H955 H 0.43361 0.56506 0.68849 0.0
H956 H 0.46176 0.60262 0.71627 0.0
C957 C 0.48902 0.61988 0.65496 0.0
C958 C 0.4602 0.60098 0.66974 0.0
C959 C 0.50278 0.62194 0.64556 0.0
C960 C 0.41835 0.56167 0.70873 0.0
C961 C 0.42896 0.57076 0.69924 0.0
C962 C 0.46104 0.60236 0.70329 0.0
C963 C 0.48922 0.61097 0.66883 0.0
C964 C 0.47431 0.60715 0.67789 0.0
C965 C 0.43428 0.58667 0.70409 0.0
C966 C 0.44729 0.5953 0.69512 0.0
H967 H 0.52797 0.60095 0.66738 0.0
H968 H 0.50403 0.59748 0.68389 0.0
H969 H 0.48515 0.61294 0.70133 0.0
H970 H 0.41311 0.59 0.7387 0.0
H971 H 0.43201 0.60586 0.72219 0.0
C972 C 0.7477 0.3014 0.67581 0.0
C973 C 0.7633 0.29943 0.68131 0.0
C974 C 0.74495 0.31357 0.6654 0.0
C975 C 0.76477 0.35051 0.64767 0.0
H976 H 0.7332 0.33978 0.61376 0.0
C977 C 0.76479 0.37908 0.58591 0.0
C978 C 0.7501 0.38386 0.58024 0.0
C979 C 0.76549 0.37109 0.6002 0.0
C980 C 0.7419 0.34302 0.6233 0.0
H981 H 0.78825 0.30854 0.6804 0.0
H982 H 0.78368 0.32928 0.66171 0.0
H983 H 0.73612 0.3211 0.63492 0.0
H984 H 0.72469 0.38442 0.58526 0.0
H985 H 0.72587 0.36997 0.61008 0.0
H986 H 0.77115 0.37201 0.63525 0.0
C987 C 0.7734 0.32191 0.66579 0.0
C988 C 0.74355 0.33236 0.6355 0.0
C989 C 0.77608 0.30994 0.67643 0.0
C990 C 0.73619 0.38091 0.58937 0.0
C991 C 0.73683 0.37261 0.60351 0.0
C992 C 0.76332 0.36102 0.63527 0.0
C993 C 0.75781 0.32382 0.66 0.0
C994 C 0.75516 0.33584 0.64776 0.0
C995 C 0.75146 0.36747 0.60892 0.0
C996 C 0.75199 0.35726 0.6229 0.0
H997 H 0.73763 0.2935 0.67956 0.0
H998 H 0.73273 0.31485 0.66153 0.0
H999 H 0.77359 0.35382 0.65706 0.0
H1000 H 0.7757 0.38124 0.57913 0.0
H1001 H 0.77688 0.36714 0.60408 0.0
C1002 C 0.47888 0.94158 0.65348 0.0
C1003 C 0.46835 0.95342 0.6503 0.0
C1004 C 0.49112 0.94465 0.66498 0.0
C1005 C 0.50575 0.97349 0.69838 0.0
H1006 H 0.54771 0.96066 0.68573 0.0
C1007 C 0.56405 0.0057 0.72354 0.0
C1008 C 0.57576 0.99622 0.72944 0.0
C1009 C 0.55081 0.99859 0.71489 0.0
C1010 C 0.53603 0.96411 0.68951 0.0
H1011 H 0.46205 0.97755 0.65695 0.0
H1012 H 0.48349 0.98305 0.67681 0.0
H1013 H 0.5241 0.95144 0.66938 0.0
H1014 H 0.58306 0.97187 0.73041 0.0
H1015 H 0.55989 0.95942 0.71481 0.0
H1016 H 0.51787 0.98678 0.71809 0.0
C1017 C 0.48217 0.97125 0.6707 0.0
C1018 C 0.52248 0.9588 0.6802 0.0
C1019 C 0.46987 0.96813 0.65929 0.0
C1020 C 0.57423 0.97948 0.72601 0.0
C1021 C 0.561 0.97236 0.71712 0.0
C1022 C 0.5193 0.97892 0.70756 0.0
C1023 C 0.49315 0.95967 0.67346 0.0
C1024 C 0.50722 0.96372 0.68434 0.0
C1025 C 0.54904 0.98186 0.71178 0.0
C1026 C 0.53459 0.97456 0.70302 0.0
H1027 H 0.47784 0.93005 0.64683 0.0
H1028 H 0.49915 0.93534 0.66702 0.0
H1029 H 0.49416 0.97721 0.70213 0.0
H1030 H 0.56485 0.01863 0.72594 0.0
H1031 H 0.54189 0.00621 0.71066 0.0
C1032 C 0.87082 0.2304 0.76803 0.0
C1033 C 0.85745 0.23845 0.77323 0.0
C1034 C 0.88494 0.23145 0.77726 0.0
C1035 C 0.90707 0.25757 0.80774 0.0
H1036 H 0.92955 0.21985 0.81643 0.0
C1037 C 0.9677 0.26357 0.84075 0.0
C1038 C 0.9688 0.25379 0.85392 0.0
C1039 C 0.95523 0.26053 0.82954 0.0
C1040 C 0.92338 0.23047 0.81408 0.0
H1041 H 0.84833 0.25349 0.79251 0.0
H1042 H 0.87303 0.25557 0.8084 0.0
H1043 H 0.90506 0.21693 0.79983 0.0
H1044 H 0.9582 0.23255 0.8651 0.0
H1045 H 0.93637 0.22726 0.84545 0.0
H1046 H 0.92515 0.27111 0.82211 0.0
C1047 C 0.87262 0.24859 0.79709 0.0
C1048 C 0.90946 0.22882 0.80451 0.0
C1049 C 0.85849 0.24744 0.78795 0.0
C1050 C 0.95766 0.24035 0.85513 0.0
C1051 C 0.9452 0.23727 0.84384 0.0
C1052 C 0.92102 0.25924 0.81715 0.0
C1053 C 0.88601 0.24068 0.79181 0.0
C1054 C 0.90109 0.24235 0.8014 0.0
C1055 C 0.94361 0.2476 0.8312 0.0
C1056 C 0.92927 0.24571 0.82051 0.0
H1057 H 0.8705 0.22352 0.75667 0.0
H1058 H 0.89514 0.22535 0.77285 0.0
H1059 H 0.90095 0.26823 0.80541 0.0
H1060 H 0.97615 0.27394 0.83936 0.0
H1061 H 0.95445 0.26853 0.81976 0.0
C1062 C 0.42614 0.87483 0.51588 0.0
C1063 C 0.43347 0.8906 0.51716 0.0
C1064 C 0.43139 0.86363 0.50446 0.0
C1065 C 0.46717 0.85606 0.48027 0.0
H1066 H 0.43835 0.82405 0.45727 0.0
C1067 C 0.48821 0.81554 0.42799 0.0
C1068 C 0.48278 0.79913 0.42771 0.0
C1069 C 0.48187 0.82654 0.43888 0.0
C1070 C 0.44654 0.83284 0.46373 0.0
H1071 H 0.4513 0.90733 0.50693 0.0
H1072 H 0.46023 0.88795 0.4868 0.0
H1073 H 0.42736 0.84381 0.47585 0.0
H1074 H 0.46642 0.78141 0.43867 0.0
H1075 H 0.45537 0.80067 0.4577 0.0
H1076 H 0.48632 0.84519 0.46808 0.0
C1077 C 0.45079 0.88404 0.4949 0.0
C1078 C 0.44026 0.84415 0.47437 0.0
C1079 C 0.44563 0.89516 0.50637 0.0
C1080 C 0.47088 0.79397 0.43858 0.0
C1081 C 0.46447 0.805 0.44941 0.0
C1082 C 0.47342 0.84484 0.4696 0.0
C1083 C 0.44399 0.86804 0.49404 0.0
C1084 C 0.45051 0.85594 0.48272 0.0
C1085 C 0.4699 0.82139 0.44967 0.0
C1086 C 0.46319 0.83314 0.46117 0.0
H1087 H 0.4168 0.87099 0.52414 0.0
H1088 H 0.42597 0.85138 0.50419 0.0
H1089 H 0.47544 0.86473 0.48678 0.0
H1090 H 0.49734 0.81993 0.41977 0.0
H1091 H 0.48618 0.83913 0.4387 0.0
C1092 C 0.15801 0.29612 0.79522 0.0
C1093 C 0.15594 0.30515 0.78166 0.0
C1094 C 0.14578 0.29429 0.80652 0.0
C1095 C 0.11081 0.31341 0.8223 0.0
H1096 H 0.09566 0.27079 0.83511 0.0
C1097 C 0.0499 0.3015 0.85252 0.0
C1098 C 0.04796 0.28964 0.86391 0.0
C1099 C 0.06423 0.30375 0.84415 0.0
C1100 C 0.09993 0.28281 0.83194 0.0
H1101 H 0.13963 0.31953 0.76938 0.0
H1102 H 0.11833 0.31648 0.7892 0.0
H1103 H 0.11864 0.27397 0.81728 0.0
H1104 H 0.05973 0.27112 0.87578 0.0
H1105 H 0.08501 0.27531 0.86138 0.0
H1106 H 0.09228 0.32236 0.83695 0.0
C1107 C 0.12937 0.31078 0.79106 0.0
C1108 C 0.11305 0.28461 0.82167 0.0
C1109 C 0.14148 0.31241 0.77966 0.0
C1110 C 0.06084 0.28032 0.86703 0.0
C1111 C 0.07529 0.28266 0.8587 0.0
C1112 C 0.09784 0.31166 0.83271 0.0
C1113 C 0.13139 0.30169 0.80458 0.0
C1114 C 0.11839 0.29989 0.8165 0.0
C1115 C 0.07709 0.29431 0.84703 0.0
C1116 C 0.09199 0.2963 0.83738 0.0
H1117 H 0.16902 0.29034 0.79699 0.0
H1118 H 0.14764 0.28726 0.81686 0.0
H1119 H 0.11487 0.32536 0.81871 0.0
H1120 H 0.0402 0.30883 0.84974 0.0
H1121 H 0.06501 0.31261 0.83505 0.0
C1122 C 0.58065 0.67544 0.52109 0.0
C1123 C 0.57336 0.66003 0.52363 0.0
C1124 C 0.57671 0.6836 0.50752 0.0
C1125 C 0.55555 0.67744 0.4677 0.0
H1126 H 0.55111 0.72334 0.47312 0.0
C1127 C 0.51451 0.71275 0.42891 0.0
C1128 C 0.5207 0.72775 0.42369 0.0
C1129 C 0.5235 0.70414 0.43918 0.0
C1130 C 0.55253 0.71057 0.47136 0.0
H1131 H 0.55612 0.64112 0.51413 0.0
H1132 H 0.54881 0.65546 0.49083 0.0
H1133 H 0.56188 0.70909 0.49509 0.0
H1134 H 0.54131 0.74532 0.42477 0.0
H1135 H 0.5569 0.73036 0.44315 0.0
H1136 H 0.54526 0.6789 0.44424 0.0
C1137 C 0.558 0.66112 0.49891 0.0
C1138 C 0.55876 0.70237 0.48394 0.0
C1139 C 0.56211 0.6529 0.51234 0.0
C1140 C 0.53627 0.73375 0.42856 0.0
C1141 C 0.54515 0.72526 0.43911 0.0
C1142 C 0.54908 0.6856 0.45524 0.0
C1143 C 0.56519 0.67662 0.49632 0.0
C1144 C 0.56007 0.68563 0.48239 0.0
C1145 C 0.53874 0.71048 0.44467 0.0
C1146 C 0.54729 0.70218 0.45705 0.0
H1147 H 0.58947 0.68114 0.52957 0.0
H1148 H 0.58269 0.69539 0.50582 0.0
H1149 H 0.55675 0.66464 0.46588 0.0
H1150 H 0.50256 0.70783 0.42532 0.0
H1151 H 0.51824 0.69282 0.44339 0.0
C1152 C 0.86633 0.81546 0.74055 0.0
C1153 C 0.85425 0.80279 0.74084 0.0
C1154 C 0.88038 0.81356 0.7319 0.0
C1155 C 0.8978 0.78713 0.70033 0.0
H1156 H 0.93805 0.80831 0.71672 0.0
C1157 C 0.95932 0.77464 0.67334 0.0
C1158 C 0.96822 0.78851 0.66836 0.0
C1159 C 0.94596 0.77602 0.68315 0.0
C1160 C 0.92687 0.80235 0.71204 0.0
H1161 H 0.84732 0.7782 0.73257 0.0
H1162 H 0.87206 0.7746 0.71795 0.0
H1163 H 0.91339 0.8113 0.73173 0.0
H1164 H 0.97061 0.81463 0.67037 0.0
H1165 H 0.94749 0.81698 0.68791 0.0
H1166 H 0.91151 0.77786 0.68086 0.0
C1167 C 0.87057 0.7862 0.72392 0.0
C1168 C 0.91271 0.80415 0.72054 0.0
C1169 C 0.85641 0.78821 0.73233 0.0
C1170 C 0.96395 0.80374 0.67398 0.0
C1171 C 0.95077 0.8051 0.68404 0.0
C1172 C 0.91201 0.78511 0.69201 0.0
C1173 C 0.88278 0.79885 0.7236 0.0
C1174 C 0.89794 0.79667 0.71473 0.0
C1175 C 0.94147 0.79126 0.68842 0.0
C1176 C 0.92663 0.79279 0.69773 0.0
H1177 H 0.86485 0.82686 0.74694 0.0
H1178 H 0.8893 0.8237 0.73166 0.0
H1179 H 0.88668 0.78144 0.69528 0.0
H1180 H 0.96229 0.76274 0.66915 0.0
H1181 H 0.939 0.76518 0.68647 0.0
C1182 C 0.06403 0.8831 0.49815 0.0
C1183 C 0.05566 0.89675 0.4955 0.0
C1184 C 0.06245 0.87533 0.51261 0.0
C1185 C 0.04808 0.88126 0.55456 0.0
H1186 H 0.04477 0.83456 0.55348 0.0
C1187 C 0.01536 0.84273 0.60144 0.0
C1188 C 0.02201 0.8286 0.60587 0.0
C1189 C 0.02281 0.85232 0.58995 0.0
C1190 C 0.04597 0.84762 0.55403 0.0
H1191 H 0.03918 0.91301 0.50619 0.0
H1192 H 0.03579 0.89904 0.5309 0.0
H1193 H 0.05082 0.84843 0.52896 0.0
H1194 H 0.04212 0.81388 0.60243 0.0
H1195 H 0.05502 0.83057 0.58208 0.0
H1196 H 0.04233 0.8803 0.57952 0.0
C1197 C 0.0439 0.89452 0.522 0.0
C1198 C 0.04945 0.85559 0.53996 0.0
C1199 C 0.04561 0.90237 0.50764 0.0
C1200 C 0.03675 0.82474 0.59929 0.0
C1201 C 0.04408 0.8342 0.58758 0.0
C1202 C 0.04441 0.87327 0.56857 0.0
C1203 C 0.05236 0.88095 0.52473 0.0
C1204 C 0.05022 0.87251 0.53998 0.0
C1205 C 0.03692 0.84783 0.58251 0.0
C1206 C 0.04304 0.85638 0.56836 0.0
H1207 H 0.07178 0.87835 0.48903 0.0
H1208 H 0.06924 0.86499 0.51433 0.0
H1209 H 0.04897 0.89431 0.55512 0.0
H1210 H 0.00402 0.84601 0.60635 0.0
H1211 H 0.01698 0.8627 0.5862 0.0
C1212 C 0.15023 0.7479 0.73304 0.0
C1213 C 0.15399 0.7601 0.74505 0.0
C1214 C 0.13785 0.74928 0.72198 0.0
C1215 C 0.11462 0.77778 0.70206 0.0
H1216 H 0.08087 0.74305 0.69888 0.0
C1217 C 0.05513 0.78336 0.66749 0.0
C1218 C 0.04718 0.76933 0.66033 0.0
C1219 C 0.0689 0.78245 0.67694 0.0
C1220 C 0.09032 0.75274 0.6993 0.0
H1221 H 0.14758 0.78345 0.75457 0.0
H1222 H 0.1264 0.78605 0.7348 0.0
H1223 H 0.10376 0.74106 0.71667 0.0
H1224 H 0.04781 0.74348 0.65671 0.0
H1225 H 0.0722 0.74193 0.67245 0.0
H1226 H 0.10152 0.78932 0.68441 0.0
C1227 C 0.13308 0.77541 0.73411 0.0
C1228 C 0.10338 0.7516 0.70961 0.0
C1229 C 0.14528 0.77392 0.74537 0.0
C1230 C 0.05359 0.75447 0.66226 0.0
C1231 C 0.06752 0.75359 0.67142 0.0
C1232 C 0.10169 0.7788 0.6915 0.0
C1233 C 0.12914 0.76302 0.72245 0.0
C1234 C 0.11559 0.76414 0.71115 0.0
C1235 C 0.07519 0.76751 0.6792 0.0
C1236 C 0.08929 0.76632 0.69004 0.0
H1237 H 0.15688 0.73725 0.73212 0.0
H1238 H 0.13511 0.73963 0.71297 0.0
H1239 H 0.12398 0.78756 0.70298 0.0
H1240 H 0.05037 0.79498 0.66627 0.0
H1241 H 0.07427 0.79342 0.68288 0.0
C1242 C 0.932 0.67794 0.49845 0.0
C1243 C 0.94251 0.66901 0.48922 0.0
C1244 C 0.93808 0.69015 0.50941 0.0
C1245 C 0.9714 0.69934 0.53625 0.0
H1246 H 0.9589 0.7432 0.53906 0.0
C1247 C 0.99778 0.74453 0.58554 0.0
C1248 C 0.98773 0.75579 0.59215 0.0
C1249 C 0.99299 0.73505 0.57184 0.0
C1250 C 0.96235 0.73094 0.53861 0.0
H1251 H 0.96748 0.66593 0.48391 0.0
H1252 H 0.97812 0.68706 0.50342 0.0
H1253 H 0.94881 0.72487 0.5169 0.0
H1254 H 0.96479 0.76596 0.58971 0.0
H1255 H 0.95602 0.74887 0.56634 0.0
H1256 H 0.98418 0.70484 0.55827 0.0
C1257 C 0.96522 0.68475 0.50197 0.0
C1258 C 0.95666 0.72052 0.52584 0.0
C1259 C 0.95915 0.67277 0.49079 0.0
C1260 C 0.97282 0.75743 0.5848 0.0
C1261 C 0.96786 0.74769 0.5713 0.0
C1262 C 0.97682 0.70961 0.54918 0.0
C1263 C 0.95474 0.69334 0.51153 0.0
C1264 C 0.96116 0.70466 0.52458 0.0
C1265 C 0.97786 0.73633 0.56464 0.0
C1266 C 0.97238 0.72556 0.55057 0.0
H1267 H 0.91912 0.67522 0.49742 0.0
H1268 H 0.9298 0.69658 0.51675 0.0
H1269 H 0.97483 0.68705 0.53561 0.0
H1270 H 0.00944 0.74317 0.59086 0.0
H1271 H 0.00121 0.72675 0.56688 0.0
C1272 C 0.77966 0.89641 0.23827 0.0
C1273 C 0.76413 0.89559 0.23154 0.0
C1274 C 0.78893 0.9111 0.23992 0.0
C1275 C 0.78588 0.95491 0.24269 0.0
H1276 H 0.83143 0.95641 0.23349 0.0
C1277 C 0.84543 0.00335 0.23944 0.0
C1278 C 0.84418 0.01192 0.25426 0.0
C1279 C 0.83464 0.99013 0.23526 0.0
C1280 C 0.81869 0.95625 0.23593 0.0
H1281 H 0.74624 0.90957 0.22103 0.0
H1282 H 0.76243 0.93526 0.22401 0.0
H1283 H 0.8148 0.93127 0.2287 0.0
H1284 H 0.83013 0.01374 0.27596 0.0
H1285 H 0.81137 0.99061 0.26868 0.0
H1286 H 0.78983 0.97993 0.24995 0.0
C1287 C 0.76735 0.92453 0.22816 0.0
C1288 C 0.80921 0.9418 0.23337 0.0
C1289 C 0.75808 0.90982 0.22647 0.0
C1290 C 0.83146 0.00739 0.26447 0.0
C1291 C 0.82065 0.99418 0.26027 0.0
C1292 C 0.7954 0.96938 0.24532 0.0
C1293 C 0.78288 0.92532 0.2349 0.0
C1294 C 0.79273 0.94091 0.23687 0.0
C1295 C 0.82233 0.9852 0.24576 0.0
C1296 C 0.81194 0.97017 0.24209 0.0
H1297 H 0.78458 0.88575 0.24257 0.0
H1298 H 0.80074 0.91135 0.24541 0.0
H1299 H 0.77324 0.95458 0.24561 0.0
H1300 H 0.85502 0.00657 0.23123 0.0
H1301 H 0.83609 0.98362 0.22388 0.0
C1302 C 0.79054 0.1974 0.30765 0.0
C1303 C 0.77811 0.19741 0.29618 0.0
C1304 C 0.80196 0.18602 0.30637 0.0
C1305 C 0.81795 0.15511 0.27817 0.0
H1306 H 0.83064 0.13659 0.3176 0.0
C1307 C 0.86035 0.10343 0.27794 0.0
C1308 C 0.85624 0.09099 0.2883 0.0
C1309 C 0.85283 0.11787 0.27923 0.0
C1310 C 0.82717 0.14156 0.30645 0.0
H1311 H 0.76841 0.18573 0.27399 0.0
H1312 H 0.78778 0.16548 0.27219 0.0
H1313 H 0.81345 0.15878 0.31875 0.0
H1314 H 0.84117 0.08404 0.30829 0.0
H1315 H 0.82782 0.10886 0.31026 0.0
H1316 H 0.83091 0.13723 0.26584 0.0
C1317 C 0.78893 0.17446 0.28204 0.0
C1318 C 0.81748 0.15449 0.30712 0.0
C1319 C 0.77762 0.18594 0.28322 0.0
C1320 C 0.8447 0.0934 0.30016 0.0
C1321 C 0.8371 0.10773 0.30137 0.0
C1322 C 0.82752 0.14205 0.27749 0.0
C1323 C 0.80117 0.17423 0.29368 0.0
C1324 C 0.81254 0.16129 0.29298 0.0
C1325 C 0.84095 0.12012 0.29084 0.0
C1326 C 0.83203 0.13494 0.29161 0.0
H1327 H 0.79124 0.20593 0.31788 0.0
H1328 H 0.81134 0.1864 0.31543 0.0
H1329 H 0.81464 0.16021 0.26704 0.0
H1330 H 0.86926 0.10196 0.26871 0.0
H1331 H 0.85627 0.12723 0.27108 0.0
C1332 C 0.34869 0.03978 0.97393 0.0
C1333 C 0.36214 0.035 0.96553 0.0
C1334 C 0.33755 0.02828 0.97991 0.0
C1335 C 0.32479 0.98428 0.97758 0.0
H1336 H 0.30547 0.99467 0.01855 0.0
C1337 C 0.28852 0.93757 0.01514 0.0
C1338 C 0.273 0.94178 0.01902 0.0
C1339 C 0.29968 0.94887 0.00876 0.0
C1340 C 0.31078 0.99166 0.00709 0.0
H1341 H 0.37457 0.01462 0.95663 0.0
H1342 H 0.35547 0.99443 0.96757 0.0
H1343 H 0.32431 0.01444 0.00671 0.0
H1344 H 0.25711 0.96119 0.01978 0.0
H1345 H 0.27681 0.98105 0.00908 0.0
H1346 H 0.31153 0.96123 0.97839 0.0
C1347 C 0.35317 0.00701 0.96918 0.0
C1348 C 0.32146 0.00301 0.0002 0.0
C1349 C 0.36415 0.01854 0.96294 0.0
C1350 C 0.26898 0.9576 0.01685 0.0
C1351 C 0.28023 0.96896 0.01079 0.0
C1352 C 0.31432 0.97283 0.98463 0.0
C1353 C 0.3398 0.01174 0.97791 0.0
C1354 C 0.32851 0.99954 0.98527 0.0
C1355 C 0.29558 0.96463 0.00651 0.0
C1356 C 0.30715 0.97649 0.99938 0.0
H1357 H 0.34688 0.05245 0.97596 0.0
H1358 H 0.32721 0.03239 0.98619 0.0
H1359 H 0.32974 0.98124 0.96597 0.0
H1360 H 0.29192 0.92545 0.01662 0.0
H1361 H 0.3115 0.94532 0.00561 0.0
C1362 C 0.22228 0.37526 0.2908 0.0
C1363 C 0.22051 0.36115 0.28085 0.0
C1364 C 0.21034 0.38606 0.29125 0.0
C1365 C 0.17865 0.40108 0.2678 0.0
H1366 H 0.16474 0.41811 0.30902 0.0
C1367 C 0.13549 0.45233 0.27328 0.0
C1368 C 0.13986 0.46452 0.28509 0.0
C1369 C 0.143 0.43786 0.27279 0.0
C1370 C 0.16855 0.41356 0.29741 0.0
H1371 H 0.20497 0.34726 0.26352 0.0
H1372 H 0.18409 0.36649 0.26405 0.0
H1373 H 0.18252 0.39626 0.30794 0.0
H1374 H 0.15539 0.471 0.30573 0.0
H1375 H 0.1686 0.44613 0.3047 0.0
H1376 H 0.16532 0.41889 0.25726 0.0
C1377 C 0.1947 0.36904 0.27156 0.0
C1378 C 0.17867 0.40101 0.29681 0.0
C1379 C 0.20657 0.35805 0.27131 0.0
C1380 C 0.15167 0.46185 0.29651 0.0
C1381 C 0.15918 0.44748 0.29599 0.0
C1382 C 0.16863 0.4138 0.26839 0.0
C1383 C 0.19646 0.38309 0.28163 0.0
C1384 C 0.18412 0.39492 0.28203 0.0
C1385 C 0.15502 0.43532 0.2841 0.0
C1386 C 0.16381 0.42046 0.28324 0.0
H1387 H 0.23284 0.37786 0.29838 0.0
H1388 H 0.21206 0.39689 0.29898 0.0
H1389 H 0.18276 0.39663 0.25625 0.0
H1390 H 0.12641 0.45403 0.26432 0.0
H1391 H 0.13942 0.42869 0.26355 0.0
C1392 C 0.14648 0.00804 0.45709 0.0
C1393 C 0.13552 0.00935 0.44445 0.0
C1394 C 0.15849 0.02031 0.46066 0.0
C1395 C 0.16775 0.06368 0.45645 0.0
H1396 H 0.21047 0.0544 0.46991 0.0
C1397 C 0.21197 0.11149 0.48861 0.0
C1398 C 0.22822 0.11177 0.48425 0.0
C1399 C 0.20099 0.09903 0.4828 0.0
C1400 C 0.19864 0.05721 0.46604 0.0
H1401 H 0.12878 0.0244 0.42542 0.0
H1402 H 0.14995 0.04578 0.43151 0.0
H1403 H 0.19115 0.03236 0.46072 0.0
H1404 H 0.24564 0.09921 0.47029 0.0
H1405 H 0.22644 0.07756 0.46008 0.0
H1406 H 0.17527 0.08853 0.46166 0.0
C1407 C 0.14912 0.03531 0.43877 0.0
C1408 C 0.18753 0.04457 0.46093 0.0
C1409 C 0.13711 0.023 0.43517 0.0
C1410 C 0.23322 0.09934 0.47393 0.0
C1411 C 0.22224 0.08688 0.46813 0.0
C1412 C 0.17885 0.07631 0.46158 0.0
C1413 C 0.15981 0.03418 0.45168 0.0
C1414 C 0.17192 0.04765 0.4562 0.0
C1415 C 0.206 0.08657 0.47251 0.0
C1416 C 0.19438 0.07321 0.46655 0.0
H1417 H 0.14568 0.99756 0.46433 0.0
H1418 H 0.16645 0.01913 0.47077 0.0
H1419 H 0.15577 0.06644 0.45305 0.0
H1420 H 0.20772 0.12086 0.49656 0.0
H1421 H 0.1886 0.09901 0.48657 0.0
C1422 C 0.73269 0.14715 0.72369 0.0
C1423 C 0.73061 0.1609 0.73367 0.0
C1424 C 0.72331 0.13277 0.72572 0.0
C1425 C 0.69888 0.1115 0.75592 0.0
H1426 H 0.68205 0.08485 0.71931 0.0
C1427 C 0.66587 0.04929 0.76388 0.0
C1428 C 0.65146 0.04592 0.75511 0.0
C1429 C 0.67645 0.06244 0.76037 0.0
C1430 C 0.68663 0.09219 0.72965 0.0
H1431 H 0.71696 0.17034 0.75352 0.0
H1432 H 0.70035 0.14537 0.75682 0.0
H1433 H 0.69801 0.11006 0.715 0.0
H1434 H 0.63721 0.05339 0.73534 0.0
H1435 H 0.65559 0.07641 0.72936 0.0
H1436 H 0.68716 0.09391 0.77058 0.0
C1437 C 0.70939 0.14565 0.74756 0.0
C1438 C 0.69589 0.10655 0.72718 0.0
C1439 C 0.71876 0.16002 0.74554 0.0
C1440 C 0.6482 0.05564 0.74235 0.0
C1441 C 0.65878 0.0688 0.73886 0.0
C1442 C 0.68964 0.09716 0.75838 0.0
C1443 C 0.71165 0.13182 0.73777 0.0
C1444 C 0.70203 0.11642 0.7403 0.0
C1445 C 0.67287 0.07253 0.74803 0.0
C1446 C 0.68334 0.08737 0.74529 0.0
H1447 H 0.7416 0.14749 0.71431 0.0
H1448 H 0.72542 0.12231 0.71804 0.0
H1449 H 0.70362 0.11871 0.76628 0.0
H1450 H 0.66882 0.04199 0.77372 0.0
H1451 H 0.68736 0.06483 0.76748 0.0
C1452 C 0.36452 0.015 0.54704 0.0
C1453 C 0.37007 0.01395 0.56286 0.0
C1454 C 0.35591 0.02785 0.54279 0.0
C1455 C 0.34736 0.06946 0.55571 0.0
H1456 H 0.31407 0.06167 0.523 0.0
C1457 C 0.30435 0.11649 0.53308 0.0
C1458 C 0.30361 0.11701 0.51626 0.0
C1459 C 0.31284 0.10483 0.54029 0.0
C1460 C 0.32336 0.06401 0.53214 0.0
H1461 H 0.37072 0.02562 0.58669 0.0
H1462 H 0.35513 0.04782 0.57937 0.0
H1463 H 0.32711 0.03905 0.53314 0.0
H1464 H 0.31184 0.10622 0.49389 0.0
H1465 H 0.32634 0.08589 0.50646 0.0
H1466 H 0.34323 0.09454 0.55472 0.0
C1467 C 0.35775 0.03882 0.57018 0.0
C1468 C 0.3309 0.05108 0.5379 0.0
C1469 C 0.36652 0.02598 0.57442 0.0
C1470 C 0.31209 0.10614 0.50687 0.0
C1471 C 0.32034 0.09443 0.51404 0.0
C1472 C 0.3396 0.08243 0.55007 0.0
C1473 C 0.35237 0.03993 0.55428 0.0
C1474 C 0.34329 0.05364 0.54946 0.0
C1475 C 0.32049 0.09342 0.53077 0.0
C1476 C 0.32781 0.07982 0.53796 0.0
H1477 H 0.36679 0.00585 0.53786 0.0
H1478 H 0.35223 0.0284 0.53037 0.0
H1479 H 0.35691 0.07191 0.56454 0.0
H1480 H 0.29795 0.12471 0.54063 0.0
H1481 H 0.31282 0.10427 0.55323 0.0
C1482 C 0.62973 0.53758 0.60557 0.0
C1483 C 0.63479 0.55065 0.59631 0.0
C1484 C 0.63743 0.52326 0.60425 0.0
C1485 C 0.67435 0.5056 0.59075 0.0
H1486 H 0.64642 0.46751 0.57851 0.0
C1487 C 0.69955 0.44509 0.57195 0.0
C1488 C 0.69444 0.43966 0.55641 0.0
C1489 C 0.69157 0.45696 0.58038 0.0
C1490 C 0.65434 0.478 0.58211 0.0
H1491 H 0.65227 0.55937 0.57908 0.0
H1492 H 0.66592 0.53446 0.57698 0.0
H1493 H 0.6347 0.49247 0.58713 0.0
H1494 H 0.67638 0.4415 0.53794 0.0
H1495 H 0.66225 0.4619 0.55278 0.0
H1496 H 0.69398 0.49128 0.58521 0.0
C1497 C 0.65598 0.53524 0.58519 0.0
C1498 C 0.64765 0.49224 0.58712 0.0
C1499 C 0.64813 0.54943 0.5863 0.0
C1500 C 0.6806 0.44549 0.54989 0.0
C1501 C 0.67247 0.45711 0.55841 0.0
C1502 C 0.68103 0.4913 0.58597 0.0
C1503 C 0.65049 0.5219 0.59388 0.0
C1504 C 0.6576 0.50629 0.59104 0.0
C1505 C 0.67817 0.46332 0.57352 0.0
C1506 C 0.67108 0.47749 0.58117 0.0
H1507 H 0.6194 0.5382 0.6133 0.0
H1508 H 0.633 0.51316 0.61111 0.0
H1509 H 0.68227 0.51626 0.59378 0.0
H1510 H 0.71023 0.44085 0.57725 0.0
H1511 H 0.69614 0.46151 0.59204 0.0
C1512 C 0.69721 0.30379 0.38825 0.0
C1513 C 0.70935 0.2933 0.38523 0.0
C1514 C 0.6965 0.3123 0.40304 0.0
C1515 C 0.71115 0.31338 0.44515 0.0
H1516 H 0.70441 0.35885 0.44449 0.0
C1517 C 0.72908 0.35884 0.49762 0.0
C1518 C 0.71953 0.37176 0.50081 0.0
C1519 C 0.72558 0.34801 0.48455 0.0
C1520 C 0.70601 0.34611 0.44495 0.0
H1521 H 0.73025 0.28351 0.39543 0.0
H1522 H 0.72905 0.29837 0.4212 0.0
H1523 H 0.7026 0.34235 0.41958 0.0
H1524 H 0.69831 0.38294 0.49321 0.0
H1525 H 0.69212 0.36391 0.47047 0.0
H1526 H 0.7149 0.31725 0.4705 0.0
C1527 C 0.71991 0.29982 0.41222 0.0
C1528 C 0.70499 0.33665 0.43065 0.0
C1529 C 0.72061 0.29132 0.39744 0.0
C1530 C 0.70597 0.37318 0.49104 0.0
C1531 C 0.70248 0.36234 0.47795 0.0
C1532 C 0.71216 0.32285 0.45947 0.0
C1533 C 0.70792 0.31051 0.41515 0.0
C1534 C 0.70779 0.32023 0.43055 0.0
C1535 C 0.71244 0.34983 0.47436 0.0
C1536 C 0.70984 0.33938 0.45949 0.0
H1537 H 0.68819 0.30538 0.3792 0.0
H1538 H 0.68699 0.32027 0.40501 0.0
H1539 H 0.7131 0.30071 0.44551 0.0
H1540 H 0.73961 0.35736 0.5049 0.0
H1541 H 0.73359 0.33861 0.48204 0.0
C1542 C 0.50422 0.07579 0.8916 0.0
C1543 C 0.4904 0.0653 0.89338 0.0
C1544 C 0.51693 0.07104 0.88216 0.0
C1545 C 0.53451 0.03532 0.86376 0.0
H1546 H 0.55326 0.06592 0.83426 0.0
C1547 C 0.5882 0.02201 0.82269 0.0
C1548 C 0.58655 0.02618 0.80667 0.0
C1549 C 0.57739 0.02699 0.83431 0.0
C1550 C 0.54814 0.05724 0.84243 0.0
H1551 H 0.47907 0.0416 0.88668 0.0
H1552 H 0.50125 0.03332 0.87016 0.0
H1553 H 0.53245 0.07397 0.8526 0.0
H1554 H 0.57226 0.03889 0.79032 0.0
H1555 H 0.55351 0.04745 0.81048 0.0
H1556 H 0.54993 0.01845 0.8532 0.0
C1557 C 0.50235 0.04513 0.87625 0.0
C1558 C 0.53633 0.0619 0.85304 0.0
C1559 C 0.48964 0.04988 0.88568 0.0
C1560 C 0.57394 0.03548 0.80254 0.0
C1561 C 0.56322 0.0405 0.81413 0.0
C1562 C 0.54638 0.03067 0.85316 0.0
C1563 C 0.51609 0.0557 0.87431 0.0
C1564 C 0.52925 0.05094 0.86369 0.0
C1565 C 0.56481 0.03631 0.83012 0.0
C1566 C 0.55315 0.04153 0.84223 0.0
H1567 H 0.5053 0.08764 0.89762 0.0
H1568 H 0.52745 0.07937 0.88108 0.0
H1569 H 0.5294 0.02667 0.87195 0.0
H1570 H 0.59778 0.01485 0.82625 0.0
H1571 H 0.57895 0.02368 0.84658 0.0
C1572 C 0.27033 0.26459 0.37283 0.0
C1573 C 0.28327 0.26441 0.36216 0.0
C1574 C 0.27027 0.25575 0.38664 0.0
C1575 C 0.2873 0.22074 0.40329 0.0
H1576 H 0.27249 0.23857 0.44383 0.0
C1577 C 0.28729 0.18485 0.46056 0.0
C1578 C 0.2733 0.18496 0.46982 0.0
C1579 C 0.28997 0.19568 0.4484 0.0
C1580 C 0.27656 0.23339 0.43257 0.0
H1581 H 0.30626 0.25474 0.35757 0.0
H1582 H 0.30622 0.23939 0.38175 0.0
H1583 H 0.27419 0.2552 0.42051 0.0
H1584 H 0.25141 0.19693 0.47392 0.0
H1585 H 0.25598 0.21562 0.45262 0.0
H1586 H 0.28937 0.19883 0.4152 0.0
C1587 C 0.29609 0.24634 0.3794 0.0
C1588 C 0.27753 0.24291 0.41922 0.0
C1589 C 0.29619 0.25524 0.36563 0.0
C1590 C 0.26233 0.19651 0.46703 0.0
C1591 C 0.26499 0.2073 0.45485 0.0
C1592 C 0.28629 0.2112 0.41662 0.0
C1593 C 0.28312 0.24646 0.39003 0.0
C1594 C 0.28277 0.23663 0.40441 0.0
C1595 C 0.27871 0.20684 0.44521 0.0
C1596 C 0.28077 0.21736 0.43138 0.0
H1597 H 0.26028 0.27167 0.37056 0.0
H1598 H 0.26003 0.25595 0.39451 0.0
H1599 H 0.29119 0.21549 0.39199 0.0
H1600 H 0.29604 0.17618 0.46245 0.0
H1601 H 0.30079 0.19519 0.44137 0.0
C1602 C 0.50604 0.47176 0.8607 0.0
C1603 C 0.50558 0.47426 0.87747 0.0
C1604 C 0.49498 0.47848 0.85088 0.0
C1605 C 0.45545 0.49543 0.85107 0.0
H1606 H 0.47113 0.51576 0.81275 0.0
C1607 C 0.41536 0.53244 0.81273 0.0
C1608 C 0.41639 0.53007 0.79598 0.0
C1609 C 0.4264 0.52606 0.82285 0.0
C1610 C 0.46652 0.50999 0.82332 0.0
H1611 H 0.49307 0.48577 0.89704 0.0
H1612 H 0.47371 0.49737 0.8799 0.0
H1613 H 0.48977 0.50325 0.82996 0.0
H1614 H 0.42997 0.51928 0.77676 0.0
H1615 H 0.44905 0.50804 0.79439 0.0
H1616 H 0.43217 0.50208 0.84439 0.0
C1617 C 0.48253 0.49007 0.87437 0.0
C1618 C 0.47721 0.50281 0.83317 0.0
C1619 C 0.49361 0.48339 0.88419 0.0
C1620 C 0.42884 0.52138 0.7896 0.0
C1621 C 0.43985 0.515 0.79971 0.0
C1622 C 0.44474 0.50258 0.8412 0.0
C1623 C 0.48319 0.48782 0.8576 0.0
C1624 C 0.47178 0.49541 0.84714 0.0
C1625 C 0.4387 0.51716 0.81646 0.0
C1626 C 0.45015 0.50991 0.82718 0.0
H1627 H 0.51495 0.46459 0.85515 0.0
H1628 H 0.49563 0.4763 0.838 0.0
H1629 H 0.45087 0.48966 0.86165 0.0
H1630 H 0.40596 0.53912 0.81804 0.0
H1631 H 0.42533 0.52814 0.8357 0.0
C1632 C 0.73994 0.75199 0.16044 0.0
C1633 C 0.72728 0.76218 0.16069 0.0
C1634 C 0.74214 0.74157 0.14713 0.0
C1635 C 0.73211 0.73593 0.10395 0.0
H1636 H 0.74336 0.69215 0.10893 0.0
C1637 C 0.72921 0.68953 0.05094 0.0
C1638 C 0.74218 0.67988 0.04893 0.0
C1639 C 0.72772 0.69899 0.06501 0.0
C1640 C 0.74038 0.70439 0.10737 0.0
H1641 H 0.70702 0.76939 0.1471 0.0
H1642 H 0.71061 0.75099 0.12412 0.0
H1643 H 0.74012 0.70987 0.13272 0.0
H1644 H 0.76355 0.67224 0.06032 0.0
H1645 H 0.76093 0.68887 0.08502 0.0
H1646 H 0.73224 0.73048 0.07866 0.0
C1647 C 0.71898 0.75118 0.13412 0.0
C1648 C 0.73854 0.71455 0.12097 0.0
C1649 C 0.71679 0.7616 0.14739 0.0
C1650 C 0.75342 0.67956 0.06151 0.0
C1651 C 0.7519 0.68903 0.07566 0.0
C1652 C 0.7339 0.72579 0.0904 0.0
C1653 C 0.73174 0.74112 0.13377 0.0
C1654 C 0.73422 0.73039 0.11941 0.0
C1655 C 0.73916 0.69904 0.07743 0.0
C1656 C 0.7379 0.70987 0.09194 0.0
H1657 H 0.74813 0.75202 0.17056 0.0
H1658 H 0.75215 0.73406 0.1472 0.0
H1659 H 0.72914 0.74817 0.10229 0.0
H1660 H 0.72027 0.68999 0.04153 0.0
H1661 H 0.71761 0.70634 0.06613 0.0
C1662 C 0.01394 0.11692 0.15986 0.0
C1663 C 0.0168 0.10772 0.14573 0.0
C1664 C 0.00028 0.11318 0.16903 0.0
C1665 C 0.9729 0.07855 0.17772 0.0
H1666 H 0.9448 0.10944 0.19584 0.0
C1667 C 0.9165 0.05635 0.21045 0.0
C1668 C 0.91298 0.06453 0.22492 0.0
C1669 C 0.92774 0.06319 0.19999 0.0
C1670 C 0.95263 0.10069 0.19098 0.0
H1671 H 0.007 0.08813 0.12961 0.0
H1672 H 0.98343 0.08149 0.1457 0.0
H1673 H 0.96753 0.11871 0.17928 0.0
H1674 H 0.91782 0.08661 0.2395 0.0
H1675 H 0.93795 0.09844 0.22141 0.0
H1676 H 0.95855 0.06059 0.18961 0.0
C1677 C 0.99186 0.0914 0.14982 0.0
C1678 C 0.9656 0.10601 0.1815 0.0
C1679 C 0.0054 0.09517 0.14065 0.0
C1680 C 0.9203 0.08007 0.22837 0.0
C1681 C 0.9318 0.08685 0.21799 0.0
C1682 C 0.96011 0.07328 0.18725 0.0
C1683 C 0.98931 0.10015 0.16425 0.0
C1684 C 0.97574 0.09492 0.17464 0.0
C1685 C 0.936 0.07824 0.20391 0.0
C1686 C 0.94967 0.08422 0.19386 0.0
H1687 H 0.02252 0.12663 0.16412 0.0
H1688 H 0.99862 0.12007 0.18015 0.0
H1689 H 0.98073 0.06978 0.17289 0.0
H1690 H 0.91085 0.04444 0.20737 0.0
H1691 H 0.93027 0.05643 0.18901 0.0
C1692 C 0.26103 0.80785 0.18282 0.0
C1693 C 0.26391 0.79189 0.17811 0.0
C1694 C 0.25966 0.81941 0.17136 0.0
C1695 C 0.27007 0.82698 0.12905 0.0
H1696 H 0.24056 0.8605 0.13401 0.0
C1697 C 0.26927 0.87552 0.08305 0.0
C1698 C 0.25422 0.88007 0.07821 0.0
C1699 C 0.27073 0.86661 0.09663 0.0
C1700 C 0.24878 0.85115 0.13237 0.0
H1701 H 0.26747 0.77568 0.15751 0.0
H1702 H 0.26425 0.79546 0.13767 0.0
H1703 H 0.24181 0.84067 0.15446 0.0
H1704 H 0.22896 0.87944 0.08408 0.0
H1705 H 0.23132 0.86324 0.10749 0.0
H1706 H 0.27648 0.83678 0.10666 0.0
C1707 C 0.26347 0.79921 0.15023 0.0
C1708 C 0.24965 0.83989 0.14422 0.0
C1709 C 0.26503 0.78774 0.16165 0.0
C1710 C 0.24072 0.87611 0.08759 0.0
C1711 C 0.24211 0.86688 0.10105 0.0
C1712 C 0.26906 0.83806 0.11717 0.0
C1713 C 0.26101 0.81526 0.15492 0.0
C1714 C 0.26024 0.82758 0.14264 0.0
C1715 C 0.25709 0.86168 0.10551 0.0
C1716 C 0.25841 0.8503 0.11862 0.0
H1717 H 0.25985 0.81146 0.19537 0.0
H1718 H 0.25787 0.83166 0.17544 0.0
H1719 H 0.2786 0.8179 0.12753 0.0
H1720 H 0.27992 0.87863 0.07616 0.0
H1721 H 0.28254 0.86329 0.09996 0.0
C1722 C 0.96889 0.46723 0.15948 0.0
C1723 C 0.96771 0.4527 0.15017 0.0
C1724 C 0.98091 0.47023 0.17119 0.0
C1725 C 0.02118 0.4581 0.18131 0.0
H1726 H 0.0153 0.48511 0.21962 0.0
C1727 C 0.07166 0.47851 0.22859 0.0
C1728 C 0.07287 0.49518 0.23242 0.0
C1729 C 0.05873 0.4714 0.21928 0.0
C1730 C 0.01709 0.47753 0.20897 0.0
H1731 H 0.97756 0.42953 0.14641 0.0
H1732 H 0.9984 0.43463 0.16712 0.0
H1733 H 0.99207 0.47556 0.20297 0.0
H1734 H 0.06168 0.51749 0.22919 0.0
H1735 H 0.03922 0.50508 0.21317 0.0
H1736 H 0.04629 0.46021 0.18742 0.0
C1737 C 0.99029 0.44387 0.16511 0.0
C1738 C 0.00381 0.47211 0.1994 0.0
C1739 C 0.97833 0.44092 0.15331 0.0
C1740 C 0.06112 0.50461 0.22649 0.0
C1741 C 0.04817 0.49751 0.21742 0.0
C1742 C 0.03445 0.4634 0.19101 0.0
C1743 C 0.99196 0.45872 0.17394 0.0
C1744 C 0.00574 0.46269 0.18521 0.0
C1745 C 0.04672 0.48083 0.2139 0.0
C1746 C 0.03257 0.47351 0.20469 0.0
H1747 H 0.96101 0.47661 0.15718 0.0
H1748 H 0.98196 0.4819 0.17757 0.0
H1749 H 0.02315 0.45102 0.17039 0.0
H1750 H 0.08052 0.47094 0.233 0.0
H1751 H 0.05787 0.4585 0.21667 0.0
C1752 C 0.35836 0.74788 0.29055 0.0
C1753 C 0.35683 0.73826 0.27622 0.0
C1754 C 0.37268 0.74913 0.2994 0.0
C1755 C 0.40915 0.72857 0.30674 0.0
H1756 H 0.4256 0.77068 0.32414 0.0
C1757 C 0.45766 0.73891 0.35701 0.0
C1758 C 0.46888 0.75232 0.35609 0.0
C1759 C 0.44516 0.73618 0.34573 0.0
C1760 C 0.42128 0.75885 0.31923 0.0
H1761 H 0.36927 0.72249 0.25996 0.0
H1762 H 0.39425 0.72456 0.27558 0.0
H1763 H 0.40136 0.76817 0.30754 0.0
H1764 H 0.47634 0.77279 0.34199 0.0
H1765 H 0.45464 0.76793 0.32232 0.0
H1766 H 0.4291 0.71927 0.31855 0.0
C1767 C 0.38427 0.73102 0.27997 0.0
C1768 C 0.40728 0.7574 0.30987 0.0
C1769 C 0.36996 0.72983 0.27104 0.0
C1770 C 0.46782 0.76243 0.34317 0.0
C1771 C 0.45534 0.75971 0.33193 0.0
C1772 C 0.42313 0.73001 0.31621 0.0
C1773 C 0.38579 0.74074 0.2942 0.0
C1774 C 0.401 0.74224 0.30363 0.0
C1775 C 0.44364 0.7468 0.33332 0.0
C1776 C 0.42929 0.74517 0.3226 0.0
H1777 H 0.34839 0.75427 0.29507 0.0
H1778 H 0.3734 0.7565 0.31047 0.0
H1779 H 0.40452 0.71671 0.30217 0.0
H1780 H 0.45815 0.73087 0.36679 0.0
H1781 H 0.43628 0.72617 0.34716 0.0
C1782 C 0.9277 0.37943 0.01174 0.0
C1783 C 0.93538 0.39499 0.01387 0.0
C1784 C 0.93286 0.36864 -0.00014 0.0
C1785 C 0.96868 0.36137 0.97555 0.0
H1786 H 0.93934 0.33047 0.95174 0.0
C1787 C 0.98923 0.3201 0.92335 0.0
C1788 C 0.98342 0.30381 0.92335 0.0
C1789 C 0.98304 0.33148 0.93396 0.0
C1790 C 0.94767 0.33897 0.95839 0.0
H1791 H 0.9538 0.41183 0.00475 0.0
H1792 H 0.96257 0.3932 0.98381 0.0
H1793 H 0.9287 0.35014 0.97064 0.0
H1794 H 0.96649 0.28671 0.93446 0.0
H1795 H 0.9557 0.3066 0.95292 0.0
H1796 H 0.98763 0.35026 0.96322 0.0
C1797 C 0.95291 0.3891 0.99158 0.0
C1798 C 0.94159 0.35022 0.96923 0.0
C1799 C 0.94785 0.3998 0.00352 0.0
C1800 C 0.97126 0.29916 0.93415 0.0
C1801 C 0.96498 0.31056 0.94465 0.0
C1802 C 0.97474 0.35022 0.96464 0.0
C1803 C 0.94571 0.37328 0.98982 0.0
C1804 C 0.95203 0.36153 0.97797 0.0
C1805 C 0.97082 0.32683 0.94468 0.0
C1806 C 0.96431 0.33887 0.956 0.0
H1807 H 0.91813 0.37539 0.01965 0.0
H1808 H 0.92714 0.35651 0.99895 0.0
H1809 H 0.9771 0.36967 0.98231 0.0
H1810 H 0.99858 0.32408 0.91518 0.0
H1811 H 0.98767 0.34397 0.93363 0.0
C1812 C 0.65664 0.81464 0.30074 0.0
C1813 C 0.6572 0.80388 0.28727 0.0
C1814 C 0.6446 0.81247 0.31215 0.0
C1815 C 0.61309 0.7824 0.32625 0.0
H1816 H 0.59389 0.82046 0.3432 0.0
C1817 C 0.5606 0.77797 0.37103 0.0
C1818 C 0.54806 0.78782 0.36825 0.0
C1819 C 0.57518 0.7803 0.36296 0.0
C1820 C 0.59906 0.80969 0.33854 0.0
H1821 H 0.6457 0.78213 0.27555 0.0
H1822 H 0.62437 0.77872 0.29506 0.0
H1823 H 0.61664 0.8234 0.32529 0.0
H1824 H 0.54108 0.80802 0.35506 0.0
H1825 H 0.5662 0.81183 0.34079 0.0
H1826 H 0.59496 0.76867 0.33884 0.0
C1827 C 0.63341 0.78869 0.29698 0.0
C1828 C 0.61228 0.81139 0.32842 0.0
C1829 C 0.64552 0.79079 0.28564 0.0
C1830 C 0.55052 0.80025 0.35753 0.0
C1831 C 0.56501 0.80251 0.34941 0.0
C1832 C 0.59979 0.7807 0.33628 0.0
C1833 C 0.63273 0.79956 0.31034 0.0
C1834 C 0.61934 0.79776 0.32197 0.0
C1835 C 0.57748 0.79247 0.35189 0.0
C1836 C 0.59246 0.79432 0.34237 0.0
H1837 H 0.66531 0.82497 0.30232 0.0
H1838 H 0.64458 0.82096 0.32239 0.0
H1839 H 0.61838 0.77165 0.32173 0.0
H1840 H 0.5591 0.76832 0.37927 0.0
H1841 H 0.58461 0.77249 0.36533 0.0
C1842 C 0.05583 0.17367 0.02829 0.0
C1843 C 0.07177 0.16951 0.02928 0.0
C1844 C 0.0503 0.18059 0.01461 0.0
C1845 C 0.06189 0.20445 0.98089 0.0
H1846 H 0.02295 0.18401 0.9609 0.0
C1847 C 0.03309 0.2301 0.92511 0.0
C1848 C 0.01625 0.23008 0.92522 0.0
C1849 C 0.04107 0.2215 0.93632 0.0
C1850 C 0.03374 0.18999 0.9664 0.0
H1851 H 0.09457 0.16976 0.01702 0.0
H1852 H 0.08493 0.18237 0.99312 0.0
H1853 H 0.03461 0.17215 0.98395 0.0
H1854 H 0.9946 0.22084 0.93702 0.0
H1855 H 0.0084 0.20634 0.95666 0.0
H1856 H 0.06066 0.22274 0.96386 0.0
C1857 C 0.07674 0.18006 0.00291 0.0
C1858 C 0.04044 0.18313 0.97955 0.0
C1859 C 0.08222 0.17284 0.01651 0.0
C1860 C 0.00758 0.22104 0.93651 0.0
C1861 C 0.01552 0.2126 0.94775 0.0
C1862 C 0.05504 0.21149 0.96785 0.0
C1863 C 0.06065 0.18373 0.00175 0.0
C1864 C 0.05441 0.19044 0.98707 0.0
C1865 C 0.03238 0.21279 0.94791 0.0
C1866 C 0.0407 0.2045 0.96063 0.0
H1867 H 0.04748 0.17108 0.03789 0.0
H1868 H 0.03787 0.18344 0.01404 0.0
H1869 H 0.07267 0.21031 0.98654 0.0
H1870 H 0.04011 0.23694 0.91653 0.0
H1871 H 0.05405 0.22175 0.93594 0.0
C1872 C 0.36452 0.32132 0.23955 0.0
C1873 C 0.35342 0.30789 0.24059 0.0
C1874 C 0.37845 0.32023 0.2305 0.0
C1875 C 0.39693 0.29389 0.1994 0.0
H1876 H 0.43634 0.31824 0.21383 0.0
C1877 C 0.45949 0.2813 0.17537 0.0
C1878 C 0.46773 0.29449 0.16832 0.0
C1879 C 0.44586 0.28345 0.18457 0.0
C1880 C 0.42537 0.31144 0.20968 0.0
H1881 H 0.34813 0.28276 0.23331 0.0
H1882 H 0.37272 0.28053 0.21811 0.0
H1883 H 0.41171 0.32079 0.22904 0.0
H1884 H 0.46859 0.32034 0.16593 0.0
H1885 H 0.44495 0.32414 0.18256 0.0
H1886 H 0.41093 0.28407 0.18043 0.0
C1887 C 0.37052 0.29212 0.22371 0.0
C1888 C 0.41122 0.31296 0.21829 0.0
C1889 C 0.35646 0.29333 0.23249 0.0
C1890 C 0.46245 0.30997 0.17119 0.0
C1891 C 0.44899 0.31215 0.18071 0.0
C1892 C 0.41115 0.29214 0.19102 0.0
C1893 C 0.38172 0.30556 0.22256 0.0
C1894 C 0.39679 0.30419 0.21327 0.0
C1895 C 0.44043 0.29886 0.18718 0.0
C1896 C 0.42546 0.30088 0.1961 0.0
H1897 H 0.36234 0.33271 0.24564 0.0
H1898 H 0.38657 0.33093 0.22966 0.0
H1899 H 0.38605 0.28723 0.19489 0.0
H1900 H 0.46322 0.26922 0.17331 0.0
H1901 H 0.43945 0.27305 0.18954 0.0
C1902 C 0.54541 0.40224 0.00658 0.0
C1903 C 0.55524 0.39661 0.99426 0.0
C1904 C 0.54412 0.39453 0.02104 0.0
C1905 C 0.55057 0.35595 0.03935 0.0
H1906 H 0.54371 0.38112 0.07868 0.0
C1907 C 0.53848 0.32609 0.09943 0.0
C1908 C 0.52355 0.32979 0.10568 0.0
C1909 C 0.54577 0.3354 0.08758 0.0
C1910 C 0.54574 0.37397 0.0678 0.0
H1911 H 0.57139 0.37829 0.98757 0.0
H1912 H 0.56958 0.36518 0.01305 0.0
H1913 H 0.54993 0.39482 0.05402 0.0
H1914 H 0.50515 0.34673 0.10542 0.0
H1915 H 0.51809 0.36322 0.0851 0.0
H1916 H 0.54626 0.3351 0.05323 0.0
C1917 C 0.56264 0.37543 0.0114 0.0
C1918 C 0.54916 0.38178 0.05364 0.0
C1919 C 0.5638 0.38306 0.99683 0.0
C1920 C 0.51665 0.34361 0.10078 0.0
C1921 C 0.52408 0.35307 0.0892 0.0
C1922 C 0.54737 0.34816 0.05358 0.0
C1923 C 0.55279 0.38109 0.02371 0.0
C1924 C 0.55113 0.37285 0.03912 0.0
C1925 C 0.53841 0.34873 0.08208 0.0
C1926 C 0.5445 0.35709 0.06783 0.0
H1927 H 0.53886 0.4128 0.00521 0.0
H1928 H 0.53616 0.39907 0.03008 0.0
H1929 H 0.55184 0.34865 0.02841 0.0
H1930 H 0.544 0.31544 0.10293 0.0
H1931 H 0.55686 0.33187 0.0823 0.0
C1932 C 0.65578 0.27365 0.23776 0.0
C1933 C 0.65548 0.26013 0.24726 0.0
C1934 C 0.64351 0.27522 0.22659 0.0
C1935 C 0.61116 0.25165 0.20339 0.0
H1936 H 0.59212 0.2925 0.20151 0.0
C1937 C 0.54968 0.25691 0.17373 0.0
C1938 C 0.54731 0.27055 0.165 0.0
C1939 C 0.56386 0.25593 0.18243 0.0
C1940 C 0.59747 0.28108 0.20168 0.0
H1941 H 0.64187 0.23779 0.25258 0.0
H1942 H 0.62059 0.24048 0.23303 0.0
H1943 H 0.61514 0.29026 0.21922 0.0
H1944 H 0.55808 0.29379 0.15839 0.0
H1945 H 0.58301 0.29202 0.17354 0.0
H1946 H 0.59345 0.24241 0.186 0.0
C1947 C 0.63044 0.24974 0.23406 0.0
C1948 C 0.61064 0.2798 0.21185 0.0
C1949 C 0.64266 0.2482 0.24526 0.0
C1950 C 0.55954 0.28314 0.16502 0.0
C1951 C 0.57378 0.28216 0.17376 0.0
C1952 C 0.59804 0.25294 0.19321 0.0
C1953 C 0.6307 0.26328 0.22462 0.0
C1954 C 0.61747 0.26499 0.21301 0.0
C1955 C 0.57607 0.26856 0.18262 0.0
C1956 C 0.59086 0.2676 0.19243 0.0
H1957 H 0.66559 0.28295 0.23884 0.0
H1958 H 0.64413 0.28571 0.21937 0.0
H1959 H 0.61635 0.24016 0.20379 0.0
H1960 H 0.54049 0.24701 0.17402 0.0
H1961 H 0.5651 0.2454 0.18932 0.0
C1962 C 0.45862 0.15573 0.01102 0.0
C1963 C 0.4503 0.15957 0.99722 0.0
C1964 C 0.46374 0.16771 0.02254 0.0
C1965 C 0.47204 0.21159 0.02979 0.0
H1966 H 0.46575 0.20095 0.07419 0.0
C1967 C 0.48183 0.25826 0.08353 0.0
C1968 C 0.48985 0.25313 0.09703 0.0
C1969 C 0.47714 0.24733 0.07082 0.0
C1970 C 0.46773 0.20405 0.06186 0.0
H1971 H 0.44122 0.179 0.98437 0.0
H1972 H 0.45009 0.20007 0.00469 0.0
H1973 H 0.45738 0.18114 0.05282 0.0
H1974 H 0.49943 0.23255 0.10762 0.0
H1975 H 0.49128 0.21356 0.08546 0.0
H1976 H 0.48236 0.2346 0.03896 0.0
C1977 C 0.45274 0.18777 0.00651 0.0
C1978 C 0.46295 0.1927 0.04961 0.0
C1979 C 0.44765 0.17574 0.9949 0.0
C1980 C 0.49321 0.2369 0.09746 0.0
C1981 C 0.48847 0.22599 0.08479 0.0
C1982 C 0.4768 0.223 0.04209 0.0
C1983 C 0.46061 0.18382 0.02057 0.0
C1984 C 0.46521 0.19626 0.03345 0.0
C1985 C 0.48029 0.23106 0.07139 0.0
C1986 C 0.47484 0.21927 0.05825 0.0
H1987 H 0.46115 0.14341 0.01294 0.0
H1988 H 0.47014 0.16433 0.03304 0.0
H1989 H 0.47405 0.21463 0.01746 0.0
H1990 H 0.47909 0.27069 0.08281 0.0
H1991 H 0.47075 0.25155 0.0607 0.0
C1992 C 0.28218 0.39381 0.73778 0.0
C1993 C 0.26778 0.3926 0.72884 0.0
C1994 C 0.29134 0.40854 0.73977 0.0
C1995 C 0.29884 0.44837 0.72274 0.0
H1996 H 0.31582 0.46084 0.76529 0.0
C1997 C 0.34741 0.50103 0.73612 0.0
C1998 C 0.346 0.51045 0.75041 0.0
C1999 C 0.33674 0.4875 0.73265 0.0
C2000 C 0.31104 0.45762 0.75337 0.0
H2001 H 0.25192 0.40577 0.71459 0.0
H2002 H 0.2679 0.43156 0.71817 0.0
H2003 H 0.29967 0.43538 0.76087 0.0
H2004 H 0.33174 0.51349 0.77184 0.0
H2005 H 0.31313 0.48999 0.76573 0.0
H2006 H 0.31022 0.47071 0.71529 0.0
C2007 C 0.2721 0.4211 0.7236 0.0
C2008 C 0.30195 0.44293 0.7508 0.0
C2009 C 0.26288 0.40637 0.72168 0.0
C2010 C 0.33326 0.50644 0.76079 0.0
C2011 C 0.32264 0.49292 0.75734 0.0
C2012 C 0.30802 0.46306 0.7253 0.0
C2013 C 0.28634 0.42236 0.7328 0.0
C2014 C 0.29581 0.4381 0.73545 0.0
C2015 C 0.32447 0.4831 0.74342 0.0
C2016 C 0.31424 0.46782 0.74065 0.0
H2017 H 0.2862 0.38345 0.74355 0.0
H2018 H 0.30236 0.4091 0.74677 0.0
H2019 H 0.29433 0.44492 0.71077 0.0
H2020 H 0.35706 0.50378 0.72784 0.0
H2021 H 0.33852 0.48012 0.72187 0.0
C2022 C 0.28696 0.69561 0.78744 0.0
C2023 C 0.27267 0.69265 0.79598 0.0
C2024 C 0.29819 0.68401 0.78628 0.0
C2025 C 0.31206 0.64959 0.80649 0.0
H2026 H 0.32734 0.63561 0.76473 0.0
C2027 C 0.34278 0.59068 0.79692 0.0
C2028 C 0.35472 0.58956 0.78524 0.0
C2029 C 0.33433 0.60444 0.79867 0.0
C2030 C 0.32348 0.63957 0.77653 0.0
H2031 H 0.25902 0.67544 0.81022 0.0
H2032 H 0.27873 0.65525 0.80836 0.0
H2033 H 0.30967 0.65757 0.76691 0.0
H2034 H 0.36752 0.60224 0.76653 0.0
H2035 H 0.35307 0.62654 0.76989 0.0
H2036 H 0.3259 0.6318 0.81623 0.0
C2037 C 0.28121 0.66649 0.80251 0.0
C2038 C 0.31329 0.65211 0.77775 0.0
C2039 C 0.26988 0.67796 0.80346 0.0
C2040 C 0.35834 0.60271 0.77561 0.0
C2041 C 0.34997 0.61659 0.77746 0.0
C2042 C 0.3224 0.63721 0.80533 0.0
C2043 C 0.29544 0.66938 0.79388 0.0
C2044 C 0.30725 0.65701 0.7927 0.0
C2045 C 0.33771 0.61755 0.7889 0.0
C2046 C 0.32799 0.6318 0.79029 0.0
H2047 H 0.28935 0.70682 0.78151 0.0
H2048 H 0.3091 0.68654 0.77959 0.0
H2049 H 0.30776 0.65333 0.81821 0.0
H2050 H 0.33961 0.58072 0.80448 0.0
H2051 H 0.32479 0.60455 0.8074 0.0
C2052 C 0.85964 0.52203 0.46518 0.0
C2053 C 0.85705 0.53846 0.46694 0.0
C2054 C 0.84853 0.51044 0.47111 0.0
C2055 C 0.80671 0.50214 0.48138 0.0
H2056 H 0.82224 0.47269 0.51143 0.0
C2057 C 0.763 0.45909 0.51514 0.0
C2058 C 0.76781 0.44376 0.51824 0.0
C2059 C 0.77389 0.47079 0.50906 0.0
C2060 C 0.8177 0.4806 0.50286 0.0
H2061 H 0.84073 0.55572 0.47582 0.0
H2062 H 0.821 0.53533 0.48584 0.0
H2063 H 0.84108 0.49249 0.49962 0.0
H2064 H 0.78774 0.42858 0.51729 0.0
H2065 H 0.80656 0.44869 0.50604 0.0
H2066 H 0.78346 0.49002 0.48406 0.0
C2067 C 0.8317 0.53149 0.48001 0.0
C2068 C 0.82851 0.49199 0.49617 0.0
C2069 C 0.84297 0.54311 0.47435 0.0
C2070 C 0.78373 0.44035 0.51515 0.0
C2071 C 0.79454 0.45195 0.50878 0.0
C2072 C 0.79593 0.49055 0.48782 0.0
C2073 C 0.83452 0.51509 0.47864 0.0
C2074 C 0.82308 0.50288 0.48544 0.0
C2075 C 0.78978 0.46733 0.50564 0.0
C2076 C 0.80127 0.47966 0.49871 0.0
H2077 H 0.87048 0.5182 0.45962 0.0
H2078 H 0.8509 0.49785 0.46987 0.0
H2079 H 0.8023 0.51036 0.47302 0.0
H2080 H 0.75083 0.4621 0.51755 0.0
H2081 H 0.76984 0.48258 0.50716 0.0
C2082 C 0.7091 0.85833 0.7715 0.0
C2083 C 0.72317 0.86125 0.78087 0.0
C2084 C 0.6976 0.86969 0.77153 0.0
C2085 C 0.68291 0.90308 0.79595 0.0
H2086 H 0.66895 0.91938 0.75584 0.0
C2087 C 0.65625 0.96405 0.7936 0.0
C2088 C 0.64419 0.96626 0.78228 0.0
C2089 C 0.66375 0.94969 0.79352 0.0
C2090 C 0.67245 0.91475 0.76714 0.0
H2091 H 0.73611 0.87808 0.79786 0.0
H2092 H 0.716 0.89781 0.79805 0.0
H2093 H 0.68599 0.89681 0.75546 0.0
H2094 H 0.6303 0.95495 0.76216 0.0
H2095 H 0.64329 0.92962 0.76217 0.0
H2096 H 0.66953 0.92094 0.8077 0.0
C2097 C 0.71388 0.88681 0.79063 0.0
C2098 C 0.68224 0.90186 0.7669 0.0
C2099 C 0.72544 0.8756 0.79041 0.0
C2100 C 0.63959 0.95362 0.77102 0.0
C2101 C 0.64709 0.93915 0.77097 0.0
C2102 C 0.67302 0.91582 0.79619 0.0
C2103 C 0.69987 0.88399 0.78118 0.0
C2104 C 0.6879 0.89621 0.78131 0.0
C2105 C 0.65934 0.93706 0.78218 0.0
C2106 C 0.66804 0.92214 0.78181 0.0
H2107 H 0.7071 0.84736 0.76401 0.0
H2108 H 0.68687 0.86724 0.76416 0.0
H2109 H 0.6869 0.89876 0.80723 0.0
H2110 H 0.66016 0.97356 0.8024 0.0
H2111 H 0.67335 0.94867 0.80212 0.0
C2112 C 0.63123 0.52696 0.94228 0.0
C2113 C 0.63311 0.51101 0.94608 0.0
C2114 C 0.64296 0.53922 0.94687 0.0
C2115 C 0.67746 0.54786 0.97534 0.0
H2116 H 0.6854 0.5857 0.95038 0.0
C2117 C 0.73028 0.59647 0.9869 0.0
C2118 C 0.72571 0.6123 0.98902 0.0
C2119 C 0.7191 0.58399 0.98152 0.0
C2120 C 0.68322 0.5752 0.95746 0.0
H2121 H 0.64884 0.49509 0.95693 0.0
H2122 H 0.66979 0.51628 0.96422 0.0
H2123 H 0.66628 0.56378 0.9404 0.0
H2124 H 0.70597 0.62755 0.98706 0.0
H2125 H 0.68652 0.60571 0.9772 0.0
H2126 H 0.69491 0.5592 0.99208 0.0
C2127 C 0.65903 0.51956 0.9583 0.0
C2128 C 0.67222 0.56267 0.95182 0.0
C2129 C 0.64713 0.50737 0.954 0.0
C2130 C 0.70979 0.61544 0.9856 0.0
C2131 C 0.6987 0.60302 0.97989 0.0
C2132 C 0.68869 0.56025 0.98079 0.0
C2133 C 0.65697 0.53571 0.95509 0.0
C2134 C 0.6691 0.54886 0.96074 0.0
C2135 C 0.70328 0.58721 0.97785 0.0
C2136 C 0.69156 0.57404 0.97195 0.0
H2137 H 0.62039 0.53002 0.9363 0.0
H2138 H 0.64078 0.5515 0.9444 0.0
H2139 H 0.67516 0.53765 0.98276 0.0
H2140 H 0.74246 0.59369 0.98949 0.0
H2141 H 0.72287 0.57187 0.97999 0.0
C2142 C 0.23103 0.64534 0.23119 0.0
C2143 C 0.22877 0.65924 0.24087 0.0
C2144 C 0.22139 0.6311 0.23307 0.0
C2145 C 0.19561 0.61036 0.26255 0.0
H2146 H 0.17956 0.5838 0.22556 0.0
C2147 C 0.16193 0.54826 0.26957 0.0
C2148 C 0.14776 0.54497 0.26041 0.0
C2149 C 0.17264 0.56143 0.26641 0.0
C2150 C 0.18391 0.59112 0.236 0.0
H2151 H 0.21457 0.66909 0.2601 0.0
H2152 H 0.19756 0.64431 0.26319 0.0
H2153 H 0.19602 0.60881 0.22164 0.0
H2154 H 0.13404 0.55262 0.24034 0.0
H2155 H 0.15266 0.57566 0.23494 0.0
H2156 H 0.1832 0.59293 0.27692 0.0
C2157 C 0.20691 0.64438 0.25426 0.0
C2158 C 0.19346 0.60536 0.23376 0.0
C2159 C 0.21653 0.65863 0.25236 0.0
C2160 C 0.14484 0.5548 0.24764 0.0
C2161 C 0.15555 0.56798 0.24449 0.0
C2162 C 0.18609 0.59613 0.26479 0.0
C2163 C 0.2093 0.63043 0.24471 0.0
C2164 C 0.19933 0.61518 0.24702 0.0
C2165 C 0.16942 0.57161 0.25402 0.0
C2166 C 0.18008 0.58638 0.25155 0.0
H2167 H 0.24024 0.64548 0.2221 0.0
H2168 H 0.22361 0.62053 0.22561 0.0
H2169 H 0.20012 0.61755 0.27302 0.0
H2170 H 0.16461 0.54087 0.27943 0.0
H2171 H 0.18337 0.56375 0.27379 0.0
C2172 C 0.87083 0.52999 0.07564 0.0
C2173 C 0.87499 0.5189 0.06338 0.0
C2174 C 0.8632 0.54375 0.07195 0.0
C2175 C 0.85828 0.57081 0.03936 0.0
H2176 H 0.81816 0.58057 0.05932 0.0
C2177 C 0.81434 0.60964 0.00961 0.0
C2178 C 0.80468 0.61936 0.01901 0.0
C2179 C 0.82457 0.5996 0.01679 0.0
C2180 C 0.82953 0.57826 0.05387 0.0
H2181 H 0.87369 0.51339 0.03767 0.0
H2182 H 0.8609 0.53754 0.0313 0.0
H2183 H 0.83274 0.55847 0.06881 0.0
H2184 H 0.79864 0.62663 0.04338 0.0
H2185 H 0.8168 0.60917 0.056 0.0
H2186 H 0.85518 0.59042 0.02436 0.0
C2187 C 0.86371 0.53565 0.04373 0.0
C2188 C 0.83783 0.56556 0.05927 0.0
C2189 C 0.87111 0.52183 0.0474 0.0
C2190 C 0.80593 0.61926 0.03581 0.0
C2191 C 0.81624 0.60918 0.04303 0.0
C2192 C 0.85012 0.58359 0.03409 0.0
C2193 C 0.85977 0.54679 0.05593 0.0
C2194 C 0.85203 0.56144 0.05174 0.0
C2195 C 0.8255 0.59904 0.03358 0.0
C2196 C 0.83538 0.58715 0.04092 0.0
H2197 H 0.87377 0.52824 0.08806 0.0
H2198 H 0.86029 0.55219 0.08157 0.0
H2199 H 0.86937 0.56805 0.03355 0.0
H2200 H 0.81367 0.60938 0.99663 0.0
H2201 H 0.83129 0.59179 0.00909 0.0
C2202 C 0.14609 0.05167 0.07523 0.0
C2203 C 0.13728 0.05501 0.08915 0.0
C2204 C 0.15273 0.03692 0.07283 0.0
C2205 C 0.17048 0.00451 0.08851 0.0
H2206 H 0.14914 0.97714 0.05461 0.0
C2207 C 0.19528 0.94442 0.0663 0.0
C2208 C 0.19574 0.94212 0.04951 0.0
C2209 C 0.18639 0.95643 0.07338 0.0
C2210 C 0.15529 0.98463 0.06407 0.0
H2211 H 0.12928 0.04557 0.11183 0.0
H2212 H 0.14151 0.01992 0.10776 0.0
H2213 H 0.13825 0.0025 0.06302 0.0
H2214 H 0.1867 0.95014 0.02705 0.0
H2215 H 0.17161 0.97103 0.03923 0.0
H2216 H 0.18812 0.98722 0.08893 0.0
C2217 C 0.14299 0.0288 0.09871 0.0
C2218 C 0.14898 0.99907 0.06892 0.0
C2219 C 0.1361 0.04352 0.10104 0.0
C2220 C 0.18662 0.95156 0.04002 0.0
C2221 C 0.17782 0.96352 0.04705 0.0
C2222 C 0.17697 0.99013 0.0835 0.0
C2223 C 0.15101 0.02531 0.08442 0.0
C2224 C 0.1567 0.00924 0.08092 0.0
C2225 C 0.17779 0.96632 0.0638 0.0
C2226 C 0.16967 0.98022 0.0709 0.0
H2227 H 0.1476 0.06035 0.06599 0.0
H2228 H 0.15901 0.03443 0.06177 0.0
H2229 H 0.17661 0.01228 0.09777 0.0
H2230 H 0.20219 0.93733 0.07394 0.0
H2231 H 0.18648 0.95813 0.08633 0.0
loop_
_geom_bond_atom_site_label_1
_geom_bond_atom_site_label_2
_geom_bond_distance
_geom_bond_site_symmetry_2
_ccdc_geom_bond_type
C0 C1 1.386 . S
C0 C2 1.397 . S
C0 H24 0.931 . S
C1 C0 1.386 . S
C1 C5 1.397 . S
C2 C0 1.397 . S
C2 C3 1.384 . S
C2 H25 0.930 . S
C3 C2 1.384 . S
C3 C4 1.377 . S
C3 C6 1.481 . S
C4 C3 1.377 . S
C4 C5 1.389 . S
C4 H26 0.929 . S
C5 C1 1.397 . S
C5 C4 1.389 . S
C5 H27 0.931 . S
C6 C3 1.481 . S
C6 C7 1.387 . S
C6 C11 1.390 . S
C7 C6 1.387 . S
C7 C8 1.401 . S
C7 H28 0.930 . S
C8 C7 1.401 . S
C8 C9 1.376 . S
C8 C17 1.511 . S
C9 C8 1.376 . S
C9 C10 1.392 . S
C9 H30 0.931 . S
C10 C9 1.392 . S
C10 C11 1.361 . S
C10 C12 1.500 . S
C11 C6 1.390 . S
C11 C10 1.361 . S
C11 H29 0.931 . S
C12 C10 1.500 . S
C12 C13 1.371 . S
C12 C14 1.365 . S
C13 C12 1.371 . S
C13 C23 1.386 . S
C13 H31 0.931 . S
C14 C12 1.365 . S
C14 C15 1.409 . S
C14 H32 0.929 . S
C15 C14 1.409 . S
C15 C16 1.380 . S
C15 H33 0.930 . S
C16 C15 1.380 . S
C16 C23 1.357 . S
C17 C8 1.511 . S
C17 C18 1.341 . S
C17 C19 1.371 . S
C18 C17 1.341 . S
C18 C22 1.394 . S
C18 H34 0.930 . S
C19 C17 1.371 . S
C19 C20 1.392 . S
C19 H35 0.931 . S
C20 C19 1.392 . S
C20 C21 1.331 . S
C20 H38 0.932 . S
C21 C20 1.331 . S
C21 C22 1.336 . S
C22 C18 1.394 . S
C22 C21 1.336 . S
C22 H37 0.929 . S
C23 C13 1.386 . S
C23 C16 1.357 . S
C23 H36 0.928 . S
H24 C0 0.931 . S
H25 C2 0.930 . S
H26 C4 0.929 . S
H27 C5 0.931 . S
H28 C7 0.930 . S
H29 C11 0.931 . S
H30 C9 0.931 . S
H31 C13 0.931 . S
H32 C14 0.929 . S
H33 C15 0.930 . S
H34 C18 0.930 . S
H35 C19 0.931 . S
H36 C23 0.928 . S
H37 C22 0.929 . S
H38 C20 0.932 . S
C39 C40 1.386 . S
C39 C41 1.397 . S
C39 H63 0.931 . S
C40 C39 1.386 . S
C40 C44 1.397 . S
C41 C39 1.397 . S
C41 C42 1.384 . S
C41 H64 0.930 . S
C42 C41 1.384 . S
C42 C43 1.377 . S
C42 C45 1.481 . S
C43 C42 1.377 . S
C43 C44 1.389 . S
C43 H65 0.929 . S
C44 C40 1.397 . S
C44 C43 1.389 . S
C44 H66 0.931 . S
C45 C42 1.481 . S
C45 C46 1.387 . S
C45 C50 1.390 . S
C46 C45 1.387 . S
C46 C47 1.401 . S
C46 H67 0.930 . S
C47 C46 1.401 . S
C47 C48 1.376 . S
C47 C56 1.511 . S
C48 C47 1.376 . S
C48 C49 1.392 . S
C48 H69 0.931 . S
C49 C48 1.392 . S
C49 C50 1.361 . S
C49 C51 1.500 . S
C50 C45 1.390 . S
C50 C49 1.361 . S
C50 H68 0.931 . S
C51 C49 1.500 . S
C51 C52 1.371 . S
C51 C53 1.365 . S
C52 C51 1.371 . S
C52 C62 1.386 . S
C52 H70 0.931 . S
C53 C51 1.365 . S
C53 C54 1.409 . S
C53 H71 0.929 . S
C54 C53 1.409 . S
C54 C55 1.380 . S
C54 H72 0.930 . S
C55 C54 1.380 . S
C55 C62 1.357 . S
C56 C47 1.511 . S
C56 C57 1.341 . S
C56 C58 1.371 . S
C57 C56 1.341 . S
C57 C61 1.394 . S
C57 H73 0.930 . S
C58 C56 1.371 . S
C58 C59 1.392 . S
C58 H74 0.931 . S
C59 C58 1.392 . S
C59 C60 1.331 . S
C59 H77 0.932 . S
C60 C59 1.331 . S
C60 C61 1.336 . S
C61 C57 1.394 . S
C61 C60 1.336 . S
C61 H76 0.929 . S
C62 C52 1.386 . S
C62 C55 1.357 . S
C62 H75 0.928 . S
H63 C39 0.931 . S
H64 C41 0.930 . S
H65 C43 0.929 . S
H66 C44 0.931 . S
H67 C46 0.930 . S
H68 C50 0.931 . S
H69 C48 0.931 . S
H70 C52 0.931 . S
H71 C53 0.929 . S
H72 C54 0.930 . S
H73 C57 0.930 . S
H74 C58 0.931 . S
H75 C62 0.928 . S
H76 C61 0.929 . S
H77 C59 0.932 . S
C78 C79 1.386 . S
C78 C80 1.397 . S
C78 H102 0.931 . S
C79 C78 1.386 . S
C79 C83 1.397 . S
C80 C78 1.397 . S
C80 C81 1.384 . S
C80 H103 0.930 . S
C81 C80 1.384 . S
C81 C82 1.377 . S
C81 C84 1.481 . S
C82 C81 1.377 . S
C82 C83 1.389 . S
C82 H104 0.929 . S
C83 C79 1.397 . S
C83 C82 1.389 . S
C83 H105 0.931 . S
C84 C81 1.481 . S
C84 C85 1.387 . S
C84 C89 1.390 . S
C85 C84 1.387 . S
C85 C86 1.401 . S
C85 H106 0.930 . S
C86 C85 1.401 . S
C86 C87 1.376 . S
C86 C95 1.511 . S
C87 C86 1.376 . S
C87 C88 1.392 . S
C87 H108 0.931 . S
C88 C87 1.392 . S
C88 C89 1.361 . S
C88 C90 1.500 . S
C89 C84 1.390 . S
C89 C88 1.361 . S
C89 H107 0.931 . S
C90 C88 1.500 . S
C90 C91 1.371 . S
C90 C92 1.365 . S
C91 C90 1.371 . S
C91 C101 1.386 . S
C91 H109 0.931 . S
C92 C90 1.365 . S
C92 C93 1.409 . S
C92 H110 0.929 . S
C93 C92 1.409 . S
C93 C94 1.380 . S
C93 H111 0.930 . S
C94 C93 1.380 . S
C94 C101 1.357 . S
C95 C86 1.511 . S
C95 C96 1.341 . S
C95 C97 1.371 . S
C96 C95 1.341 . S
C96 C100 1.394 . S
C96 H112 0.930 . S
C97 C95 1.371 . S
C97 C98 1.392 . S
C97 H113 0.931 . S
C98 C97 1.392 . S
C98 C99 1.331 . S
C98 H116 0.932 . S
C99 C98 1.331 . S
C99 C100 1.336 . S
C100 C96 1.394 . S
C100 C99 1.336 . S
C100 H115 0.929 . S
C101 C91 1.386 . S
C101 C94 1.357 . S
C101 H114 0.928 . S
H102 C78 0.931 . S
H103 C80 0.930 . S
H104 C82 0.929 . S
H105 C83 0.931 . S
H106 C85 0.930 . S
H107 C89 0.931 . S
H108 C87 0.931 . S
H109 C91 0.931 . S
H110 C92 0.929 . S
H111 C93 0.930 . S
H112 C96 0.930 . S
H113 C97 0.931 . S
H114 C101 0.928 . S
H115 C100 0.929 . S
H116 C98 0.932 . S
C117 C118 1.386 . S
C117 C119 1.397 . S
C117 H141 0.931 . S
C118 C117 1.386 . S
C118 C122 1.397 . S
C119 C117 1.397 . S
C119 C120 1.384 . S
C119 H142 0.930 . S
C120 C119 1.384 . S
C120 C121 1.377 . S
C120 C123 1.481 . S
C121 C120 1.377 . S
C121 C122 1.389 . S
C121 H143 0.929 . S
C122 C118 1.397 . S
C122 C121 1.389 . S
C122 H144 0.931 . S
C123 C120 1.481 . S
C123 C124 1.387 . S
C123 C128 1.390 . S
C124 C123 1.387 . S
C124 C125 1.401 . S
C124 H145 0.930 . S
C125 C124 1.401 . S
C125 C126 1.376 . S
C125 C134 1.511 . S
C126 C125 1.376 . S
C126 C127 1.392 . S
C126 H147 0.931 . S
C127 C126 1.392 . S
C127 C128 1.361 . S
C127 C129 1.500 . S
C128 C123 1.390 . S
C128 C127 1.361 . S
C128 H146 0.931 . S
C129 C127 1.500 . S
C129 C130 1.371 . S
C129 C131 1.365 . S
C130 C129 1.371 . S
C130 C140 1.386 . S
C130 H148 0.931 . S
C131 C129 1.365 . S
C131 C132 1.409 . S
C131 H149 0.929 . S
C132 C131 1.409 . S
C132 C133 1.380 . S
C132 H150 0.930 . S
C133 C132 1.380 . S
C133 C140 1.357 . S
C134 C125 1.511 . S
C134 C135 1.341 . S
C134 C136 1.371 . S
C135 C134 1.341 . S
C135 C139 1.394 . S
C135 H151 0.930 . S
C136 C134 1.371 . S
C136 C137 1.392 . S
C136 H152 0.931 . S
C137 C136 1.392 . S
C137 C138 1.331 . S
C137 H155 0.932 . S
C138 C137 1.331 . S
C138 C139 1.336 . S
C139 C135 1.394 . S
C139 C138 1.336 . S
C139 H154 0.929 . S
C140 C130 1.386 . S
C140 C133 1.357 . S
C140 H153 0.928 . S
H141 C117 0.931 . S
H142 C119 0.930 . S
H143 C121 0.929 . S
H144 C122 0.931 . S
H145 C124 0.930 . S
H146 C128 0.931 . S
H147 C126 0.931 . S
H148 C130 0.931 . S
H149 C131 0.929 . S
H150 C132 0.930 . S
H151 C135 0.930 . S
H152 C136 0.931 . S
H153 C140 0.928 . S
H154 C139 0.929 . S
H155 C137 0.932 . S
C156 C157 1.386 . S
C156 C158 1.397 . S
C156 H180 0.931 . S
C157 C156 1.386 . S
C157 C161 1.397 . S
C158 C156 1.397 . S
C158 C159 1.384 . S
C158 H181 0.930 . S
C159 C158 1.384 . S
C159 C160 1.377 . S
C159 C162 1.481 . S
C160 C159 1.377 . S
C160 C161 1.389 . S
C160 H182 0.929 . S
C161 C157 1.397 . S
C161 C160 1.389 . S
C161 H183 0.931 . S
C162 C159 1.481 . S
C162 C163 1.387 . S
C162 C167 1.390 . S
C163 C162 1.387 . S
C163 C164 1.401 . S
C163 H184 0.930 . S
C164 C163 1.401 . S
C164 C165 1.376 . S
C164 C173 1.511 . S
C165 C164 1.376 . S
C165 C166 1.392 . S
C165 H186 0.931 . S
C166 C165 1.392 . S
C166 C167 1.361 . S
C166 C168 1.500 . S
C167 C162 1.390 . S
C167 C166 1.361 . S
C167 H185 0.931 . S
C168 C166 1.500 . S
C168 C169 1.371 . S
C168 C170 1.365 . S
C169 C168 1.371 . S
C169 C179 1.386 . S
C169 H187 0.931 . S
C170 C168 1.365 . S
C170 C171 1.409 . S
C170 H188 0.929 . S
C171 C170 1.409 . S
C171 C172 1.380 . S
C171 H189 0.930 . S
C172 C171 1.380 . S
C172 C179 1.357 . S
C173 C164 1.511 . S
C173 C174 1.341 . S
C173 C175 1.371 . S
C174 C173 1.341 . S
C174 C178 1.394 . S
C174 H190 0.930 . S
C175 C173 1.371 . S
C175 C176 1.392 . S
C175 H191 0.931 . S
C176 C175 1.392 . S
C176 C177 1.331 . S
C176 H194 0.932 . S
C177 C176 1.331 . S
C177 C178 1.336 . S
C178 C174 1.394 . S
C178 C177 1.336 . S
C178 H193 0.929 . S
C179 C169 1.386 . S
C179 C172 1.357 . S
C179 H192 0.928 . S
H180 C156 0.931 . S
H181 C158 0.930 . S
H182 C160 0.929 . S
H183 C161 0.931 . S
H184 C163 0.930 . S
H185 C167 0.931 . S
H186 C165 0.931 . S
H187 C169 0.931 . S
H188 C170 0.929 . S
H189 C171 0.930 . S
H190 C174 0.930 . S
H191 C175 0.931 . S
H192 C179 0.928 . S
H193 C178 0.929 . S
H194 C176 0.932 . S
C195 C196 1.386 . S
C195 C197 1.397 . S
C195 H219 0.931 . S
C196 C195 1.386 . S
C196 C200 1.397 . S
C197 C195 1.397 . S
C197 C198 1.384 . S
C197 H220 0.930 . S
C198 C197 1.384 . S
C198 C199 1.377 . S
C198 C201 1.481 . S
C199 C198 1.377 . S
C199 C200 1.389 . S
C199 H221 0.929 . S
C200 C196 1.397 . S
C200 C199 1.389 . S
C200 H222 0.931 . S
C201 C198 1.481 . S
C201 C202 1.387 . S
C201 C206 1.390 . S
C202 C201 1.387 . S
C202 C203 1.401 . S
C202 H223 0.930 . S
C203 C202 1.401 . S
C203 C204 1.376 . S
C203 C212 1.511 . S
C204 C203 1.376 . S
C204 C205 1.392 . S
C204 H225 0.931 . S
C205 C204 1.392 . S
C205 C206 1.361 . S
C205 C207 1.500 . S
C206 C201 1.390 . S
C206 C205 1.361 . S
C206 H224 0.931 . S
C207 C205 1.500 . S
C207 C208 1.371 . S
C207 C209 1.365 . S
C208 C207 1.371 . S
C208 C218 1.386 . S
C208 H226 0.931 . S
C209 C207 1.365 . S
C209 C210 1.409 . S
C209 H227 0.929 . S
C210 C209 1.409 . S
C210 C211 1.380 . S
C210 H228 0.930 . S
C211 C210 1.380 . S
C211 C218 1.357 . S
C212 C203 1.511 . S
C212 C213 1.341 . S
C212 C214 1.371 . S
C213 C212 1.341 . S
C213 C217 1.394 . S
C213 H229 0.930 . S
C214 C212 1.371 . S
C214 C215 1.392 . S
C214 H230 0.931 . S
C215 C214 1.392 . S
C215 C216 1.331 . S
C215 H233 0.932 . S
C216 C215 1.331 . S
C216 C217 1.336 . S
C217 C213 1.394 . S
C217 C216 1.336 . S
C217 H232 0.929 . S
C218 C208 1.386 . S
C218 C211 1.357 . S
C218 H231 0.928 . S
H219 C195 0.931 . S
H220 C197 0.930 . S
H221 C199 0.929 . S
H222 C200 0.931 . S
H223 C202 0.930 . S
H224 C206 0.931 . S
H225 C204 0.931 . S
H226 C208 0.931 . S
H227 C209 0.929 . S
H228 C210 0.930 . S
H229 C213 0.930 . S
H230 C214 0.931 . S
H231 C218 0.928 . S
H232 C217 0.929 . S
H233 C215 0.932 . S
C234 C235 1.386 . S
C234 C236 1.397 . S
C234 H258 0.931 . S
C235 C234 1.386 . S
C235 C239 1.397 . S
C236 C234 1.397 . S
C236 C237 1.384 . S
C236 H259 0.930 . S
C237 C236 1.384 . S
C237 C238 1.377 . S
C237 C240 1.481 . S
C238 C237 1.377 . S
C238 C239 1.389 . S
C238 H260 0.929 . S
C239 C235 1.397 . S
C239 C238 1.389 . S
C239 H261 0.931 . S
C240 C237 1.481 . S
C240 C241 1.387 . S
C240 C245 1.390 . S
C241 C240 1.387 . S
C241 C242 1.401 . S
C241 H262 0.930 . S
C242 C241 1.401 . S
C242 C243 1.376 . S
C242 C251 1.511 . S
C243 C242 1.376 . S
C243 C244 1.392 . S
C243 H264 0.931 . S
C244 C243 1.392 . S
C244 C245 1.361 . S
C244 C246 1.500 . S
C245 C240 1.390 . S
C245 C244 1.361 . S
C245 H263 0.931 . S
C246 C244 1.500 . S
C246 C247 1.371 . S
C246 C248 1.365 . S
C247 C246 1.371 . S
C247 C257 1.386 . S
C247 H265 0.931 . S
C248 C246 1.365 . S
C248 C249 1.409 . S
C248 H266 0.929 . S
C249 C248 1.409 . S
C249 C250 1.380 . S
C249 H267 0.930 . S
C250 C249 1.380 . S
C250 C257 1.357 . S
C251 C242 1.511 . S
C251 C252 1.341 . S
C251 C253 1.371 . S
C252 C251 1.341 . S
C252 C256 1.394 . S
C252 H268 0.930 . S
C253 C251 1.371 . S
C253 C254 1.392 . S
C253 H269 0.931 . S
C254 C253 1.392 . S
C254 C255 1.331 . S
C254 H272 0.932 . S
C255 C254 1.331 . S
C255 C256 1.336 . S
C256 C252 1.394 . S
C256 C255 1.336 . S
C256 H271 0.929 . S
C257 C247 1.386 . S
C257 C250 1.357 . S
C257 H270 0.928 . S
H258 C234 0.931 . S
H259 C236 0.930 . S
H260 C238 0.929 . S
H261 C239 0.931 . S
H262 C241 0.930 . S
H263 C245 0.931 . S
H264 C243 0.931 . S
H265 C247 0.931 . S
H266 C248 0.929 . S
H267 C249 0.930 . S
H268 C252 0.930 . S
H269 C253 0.931 . S
H270 C257 0.928 . S
H271 C256 0.929 . S
H272 C254 0.932 . S
C273 C274 1.386 . S
C273 C275 1.397 . S
C273 H297 0.931 . S
C274 C273 1.386 . S
C274 C278 1.397 . S
C275 C273 1.397 . S
C275 C276 1.384 . S
C275 H298 0.930 . S
C276 C275 1.384 . S
C276 C277 1.377 . S
C276 C279 1.481 . S
C277 C276 1.377 . S
C277 C278 1.389 . S
C277 H299 0.929 . S
C278 C274 1.397 . S
C278 C277 1.389 . S
C278 H300 0.931 . S
C279 C276 1.481 . S
C279 C280 1.387 . S
C279 C284 1.390 . S
C280 C279 1.387 . S
C280 C281 1.401 . S
C280 H301 0.930 . S
C281 C280 1.401 . S
C281 C282 1.376 . S
C281 C290 1.511 . S
C282 C281 1.376 . S
C282 C283 1.392 . S
C282 H303 0.931 . S
C283 C282 1.392 . S
C283 C284 1.361 . S
C283 C285 1.500 . S
C284 C279 1.390 . S
C284 C283 1.361 . S
C284 H302 0.931 . S
C285 C283 1.500 . S
C285 C286 1.371 . S
C285 C287 1.365 . S
C286 C285 1.371 . S
C286 C296 1.386 . S
C286 H304 0.931 . S
C287 C285 1.365 . S
C287 C288 1.409 . S
C287 H305 0.929 . S
C288 C287 1.409 . S
C288 C289 1.380 . S
C288 H306 0.930 . S
C289 C288 1.380 . S
C289 C296 1.357 . S
C290 C281 1.511 . S
C290 C291 1.341 . S
C290 C292 1.371 . S
C291 C290 1.341 . S
C291 C295 1.394 . S
C291 H307 0.930 . S
C292 C290 1.371 . S
C292 C293 1.392 . S
C292 H308 0.931 . S
C293 C292 1.392 . S
C293 C294 1.331 . S
C293 H311 0.932 . S
C294 C293 1.331 . S
C294 C295 1.336 . S
C295 C291 1.394 . S
C295 C294 1.336 . S
C295 H310 0.929 . S
C296 C286 1.386 . S
C296 C289 1.357 . S
C296 H309 0.928 . S
H297 C273 0.931 . S
H298 C275 0.930 . S
H299 C277 0.929 . S
H300 C278 0.931 . S
H301 C280 0.930 . S
H302 C284 0.931 . S
H303 C282 0.931 . S
H304 C286 0.931 . S
H305 C287 0.929 . S
H306 C288 0.930 . S
H307 C291 0.930 . S
H308 C292 0.931 . S
H309 C296 0.928 . S
H310 C295 0.929 . S
H311 C293 0.932 . S
C312 C313 1.386 . S
C312 C314 1.397 . S
C312 H336 0.931 . S
C313 C312 1.386 . S
C313 C317 1.397 . S
C314 C312 1.397 . S
C314 C315 1.384 . S
C314 H337 0.930 . S
C315 C314 1.384 . S
C315 C316 1.377 . S
C315 C318 1.481 . S
C316 C315 1.377 . S
C316 C317 1.389 . S
C316 H338 0.929 . S
C317 C313 1.397 . S
C317 C316 1.389 . S
C317 H339 0.931 . S
C318 C315 1.481 . S
C318 C319 1.387 . S
C318 C323 1.390 . S
C319 C318 1.387 . S
C319 C320 1.401 . S
C319 H340 0.930 . S
C320 C319 1.401 . S
C320 C321 1.376 . S
C320 C329 1.511 . S
C321 C320 1.376 . S
C321 C322 1.392 . S
C321 H342 0.931 . S
C322 C321 1.392 . S
C322 C323 1.361 . S
C322 C324 1.500 . S
C323 C318 1.390 . S
C323 C322 1.361 . S
C323 H341 0.931 . S
C324 C322 1.500 . S
C324 C325 1.371 . S
C324 C326 1.365 . S
C325 C324 1.371 . S
C325 C335 1.386 . S
C325 H343 0.931 . S
C326 C324 1.365 . S
C326 C327 1.409 . S
C326 H344 0.929 . S
C327 C326 1.409 . S
C327 C328 1.380 . S
C327 H345 0.930 . S
C328 C327 1.380 . S
C328 C335 1.357 . S
C329 C320 1.511 . S
C329 C330 1.341 . S
C329 C331 1.371 . S
C330 C329 1.341 . S
C330 C334 1.394 . S
C330 H346 0.930 . S
C331 C329 1.371 . S
C331 C332 1.392 . S
C331 H347 0.931 . S
C332 C331 1.392 . S
C332 C333 1.331 . S
C332 H350 0.932 . S
C333 C332 1.331 . S
C333 C334 1.336 . S
C334 C330 1.394 . S
C334 C333 1.336 . S
C334 H349 0.929 . S
C335 C325 1.386 . S
C335 C328 1.357 . S
C335 H348 0.928 . S
H336 C312 0.931 . S
H337 C314 0.930 . S
H338 C316 0.929 . S
H339 C317 0.931 . S
H340 C319 0.930 . S
H341 C323 0.931 . S
H342 C321 0.931 . S
H343 C325 0.931 . S
H344 C326 0.929 . S
H345 C327 0.930 . S
H346 C330 0.930 . S
H347 C331 0.931 . S
H348 C335 0.928 . S
H349 C334 0.929 . S
H350 C332 0.932 . S
C351 C352 1.386 . S
C351 C353 1.397 . S
C351 H375 0.931 . S
C352 C351 1.386 . S
C352 C356 1.397 . S
C353 C351 1.397 . S
C353 C354 1.384 . S
C353 H376 0.930 . S
C354 C353 1.384 . S
C354 C355 1.377 . S
C354 C357 1.481 . S
C355 C354 1.377 . S
C355 C356 1.389 . S
C355 H377 0.929 . S
C356 C352 1.397 . S
C356 C355 1.389 . S
C356 H378 0.931 . S
C357 C354 1.481 . S
C357 C358 1.387 . S
C357 C362 1.390 . S
C358 C357 1.387 . S
C358 C359 1.401 . S
C358 H379 0.930 . S
C359 C358 1.401 . S
C359 C360 1.376 . S
C359 C368 1.511 . S
C360 C359 1.376 . S
C360 C361 1.392 . S
C360 H381 0.931 . S
C361 C360 1.392 . S
C361 C362 1.361 . S
C361 C363 1.500 . S
C362 C357 1.390 . S
C362 C361 1.361 . S
C362 H380 0.931 . S
C363 C361 1.500 . S
C363 C364 1.371 . S
C363 C365 1.365 . S
C364 C363 1.371 . S
C364 C374 1.386 . S
C364 H382 0.931 . S
C365 C363 1.365 . S
C365 C366 1.409 . S
C365 H383 0.929 . S
C366 C365 1.409 . S
C366 C367 1.380 . S
C366 H384 0.930 . S
C367 C366 1.380 . S
C367 C374 1.357 . S
C368 C359 1.511 . S
C368 C369 1.341 . S
C368 C370 1.371 . S
C369 C368 1.341 . S
C369 C373 1.394 . S
C369 H385 0.930 . S
C370 C368 1.371 . S
C370 C371 1.392 . S
C370 H386 0.931 . S
C371 C370 1.392 . S
C371 C372 1.331 . S
C371 H389 0.932 . S
C372 C371 1.331 . S
C372 C373 1.336 . S
C373 C369 1.394 . S
C373 C372 1.336 . S
C373 H388 0.929 . S
C374 C364 1.386 . S
C374 C367 1.357 . S
C374 H387 0.928 . S
H375 C351 0.931 . S
H376 C353 0.930 . S
H377 C355 0.929 . S
H378 C356 0.931 . S
H379 C358 0.930 . S
H380 C362 0.931 . S
H381 C360 0.931 . S
H382 C364 0.931 . S
H383 C365 0.929 . S
H384 C366 0.930 . S
H385 C369 0.930 . S
H386 C370 0.931 . S
H387 C374 0.928 . S
H388 C373 0.929 . S
H389 C371 0.932 . S
C390 C391 1.386 . S
C390 C392 1.397 . S
C390 H414 0.931 . S
C391 C390 1.386 . S
C391 C395 1.397 . S
C392 C390 1.397 . S
C392 C393 1.384 . S
C392 H415 0.930 . S
C393 C392 1.384 . S
C393 C394 1.377 . S
C393 C396 1.481 . S
C394 C393 1.377 . S
C394 C395 1.389 . S
C394 H416 0.929 . S
C395 C391 1.397 . S
C395 C394 1.389 . S
C395 H417 0.931 . S
C396 C393 1.481 . S
C396 C397 1.387 . S
C396 C401 1.390 . S
C397 C396 1.387 . S
C397 C398 1.401 . S
C397 H418 0.930 . S
C398 C397 1.401 . S
C398 C399 1.376 . S
C398 C407 1.511 . S
C399 C398 1.376 . S
C399 C400 1.392 . S
C399 H420 0.931 . S
C400 C399 1.392 . S
C400 C401 1.361 . S
C400 C402 1.500 . S
C401 C396 1.390 . S
C401 C400 1.361 . S
C401 H419 0.931 . S
C402 C400 1.500 . S
C402 C403 1.371 . S
C402 C404 1.365 . S
C403 C402 1.371 . S
C403 C413 1.386 . S
C403 H421 0.931 . S
C404 C402 1.365 . S
C404 C405 1.409 . S
C404 H422 0.929 . S
C405 C404 1.409 . S
C405 C406 1.380 . S
C405 H423 0.930 . S
C406 C405 1.380 . S
C406 C413 1.357 . S
C407 C398 1.511 . S
C407 C408 1.341 . S
C407 C409 1.371 . S
C408 C407 1.341 . S
C408 C412 1.394 . S
C408 H424 0.930 . S
C409 C407 1.371 . S
C409 C410 1.392 . S
C409 H425 0.931 . S
C410 C409 1.392 . S
C410 C411 1.331 . S
C410 H428 0.932 . S
C411 C410 1.331 . S
C411 C412 1.336 . S
C412 C408 1.394 . S
C412 C411 1.336 . S
C412 H427 0.929 . S
C413 C403 1.386 . S
C413 C406 1.357 . S
C413 H426 0.928 . S
H414 C390 0.931 . S
H415 C392 0.930 . S
H416 C394 0.929 . S
H417 C395 0.931 . S
H418 C397 0.930 . S
H419 C401 0.931 . S
H420 C399 0.931 . S
H421 C403 0.931 . S
H422 C404 0.929 . S
H423 C405 0.930 . S
H424 C408 0.930 . S
H425 C409 0.931 . S
H426 C413 0.928 . S
H427 C412 0.929 . S
H428 C410 0.932 . S
C429 C430 1.386 . S
C429 C431 1.397 . S
C429 H453 0.931 . S
C430 C429 1.386 . S
C430 C434 1.397 . S
C431 C429 1.397 . S
C431 C432 1.384 . S
C431 H454 0.930 . S
C432 C431 1.384 . S
C432 C433 1.377 . S
C432 C435 1.481 . S
C433 C432 1.377 . S
C433 C434 1.389 . S
C433 H455 0.929 . S
C434 C430 1.397 . S
C434 C433 1.389 . S
C434 H456 0.931 . S
C435 C432 1.481 . S
C435 C436 1.387 . S
C435 C440 1.390 . S
C436 C435 1.387 . S
C436 C437 1.401 . S
C436 H457 0.930 . S
C437 C436 1.401 . S
C437 C438 1.376 . S
C437 C446 1.511 . S
C438 C437 1.376 . S
C438 C439 1.392 . S
C438 H459 0.931 . S
C439 C438 1.392 . S
C439 C440 1.361 . S
C439 C441 1.500 . S
C440 C435 1.390 . S
C440 C439 1.361 . S
C440 H458 0.931 . S
C441 C439 1.500 . S
C441 C442 1.371 . S
C441 C443 1.365 . S
C442 C441 1.371 . S
C442 C452 1.386 . S
C442 H460 0.931 . S
C443 C441 1.365 . S
C443 C444 1.409 . S
C443 H461 0.929 . S
C444 C443 1.409 . S
C444 C445 1.380 . S
C444 H462 0.930 . S
C445 C444 1.380 . S
C445 C452 1.357 . S
C446 C437 1.511 . S
C446 C447 1.341 . S
C446 C448 1.371 . S
C447 C446 1.341 . S
C447 C451 1.394 . S
C447 H463 0.930 . S
C448 C446 1.371 . S
C448 C449 1.392 . S
C448 H464 0.931 . S
C449 C448 1.392 . S
C449 C450 1.331 . S
C449 H467 0.932 . S
C450 C449 1.331 . S
C450 C451 1.336 . S
C451 C447 1.394 . S
C451 C450 1.336 . S
C451 H466 0.929 . S
C452 C442 1.386 . S
C452 C445 1.357 . S
C452 H465 0.928 . S
H453 C429 0.931 . S
H454 C431 0.930 . S
H455 C433 0.929 . S
H456 C434 0.931 . S
H457 C436 0.930 . S
H458 C440 0.931 . S
H459 C438 0.931 . S
H460 C442 0.931 . S
H461 C443 0.929 . S
H462 C444 0.930 . S
H463 C447 0.930 . S
H464 C448 0.931 . S
H465 C452 0.928 . S
H466 C451 0.929 . S
H467 C449 0.932 . S
C468 C469 1.386 . S
C468 C470 1.397 . S
C468 H492 0.931 . S
C469 C468 1.386 . S
C469 C473 1.397 . S
C470 C468 1.397 . S
C470 C471 1.384 . S
C470 H493 0.930 . S
C471 C470 1.384 . S
C471 C472 1.377 . S
C471 C474 1.481 . S
C472 C471 1.377 . S
C472 C473 1.389 . S
C472 H494 0.929 . S
C473 C469 1.397 . S
C473 C472 1.389 . S
C473 H495 0.931 . S
C474 C471 1.481 . S
C474 C475 1.387 . S
C474 C479 1.390 . S
C475 C474 1.387 . S
C475 C476 1.401 . S
C475 H496 0.930 . S
C476 C475 1.401 . S
C476 C477 1.376 . S
C476 C485 1.511 . S
C477 C476 1.376 . S
C477 C478 1.392 . S
C477 H498 0.931 . S
C478 C477 1.392 . S
C478 C479 1.361 . S
C478 C480 1.500 . S
C479 C474 1.390 . S
C479 C478 1.361 . S
C479 H497 0.931 . S
C480 C478 1.500 . S
C480 C481 1.371 . S
C480 C482 1.365 . S
C481 C480 1.371 . S
C481 C491 1.386 . S
C481 H499 0.931 . S
C482 C480 1.365 . S
C482 C483 1.409 . S
C482 H500 0.929 . S
C483 C482 1.409 . S
C483 C484 1.380 . S
C483 H501 0.930 . S
C484 C483 1.380 . S
C484 C491 1.357 . S
C485 C476 1.511 . S
C485 C486 1.341 . S
C485 C487 1.371 . S
C486 C485 1.341 . S
C486 C490 1.394 . S
C486 H502 0.930 . S
C487 C485 1.371 . S
C487 C488 1.392 . S
C487 H503 0.931 . S
C488 C487 1.392 . S
C488 C489 1.331 . S
C488 H506 0.932 . S
C489 C488 1.331 . S
C489 C490 1.336 . S
C490 C486 1.394 . S
C490 C489 1.336 . S
C490 H505 0.929 . S
C491 C481 1.386 . S
C491 C484 1.357 . S
C491 H504 0.928 . S
H492 C468 0.931 . S
H493 C470 0.930 . S
H494 C472 0.929 . S
H495 C473 0.931 . S
H496 C475 0.930 . S
H497 C479 0.931 . S
H498 C477 0.931 . S
H499 C481 0.931 . S
H500 C482 0.929 . S
H501 C483 0.930 . S
H502 C486 0.930 . S
H503 C487 0.931 . S
H504 C491 0.928 . S
H505 C490 0.929 . S
H506 C488 0.932 . S
C507 C508 1.386 . S
C507 C509 1.397 . S
C507 H531 0.931 . S
C508 C507 1.386 . S
C508 C512 1.397 . S
C509 C507 1.397 . S
C509 C510 1.384 . S
C509 H532 0.930 . S
C510 C509 1.384 . S
C510 C511 1.377 . S
C510 C513 1.481 . S
C511 C510 1.377 . S
C511 C512 1.389 . S
C511 H533 0.929 . S
C512 C508 1.397 . S
C512 C511 1.389 . S
C512 H534 0.931 . S
C513 C510 1.481 . S
C513 C514 1.387 . S
C513 C518 1.390 . S
C514 C513 1.387 . S
C514 C515 1.401 . S
C514 H535 0.930 . S
C515 C514 1.401 . S
C515 C516 1.376 . S
C515 C524 1.511 . S
C516 C515 1.376 . S
C516 C517 1.392 . S
C516 H537 0.931 . S
C517 C516 1.392 . S
C517 C518 1.361 . S
C517 C519 1.500 . S
C518 C513 1.390 . S
C518 C517 1.361 . S
C518 H536 0.931 . S
C519 C517 1.500 . S
C519 C520 1.371 . S
C519 C521 1.365 . S
C520 C519 1.371 . S
C520 C530 1.386 . S
C520 H538 0.931 . S
C521 C519 1.365 . S
C521 C522 1.409 . S
C521 H539 0.929 . S
C522 C521 1.409 . S
C522 C523 1.380 . S
C522 H540 0.930 . S
C523 C522 1.380 . S
C523 C530 1.357 . S
C524 C515 1.511 . S
C524 C525 1.341 . S
C524 C526 1.371 . S
C525 C524 1.341 . S
C525 C529 1.394 . S
C525 H541 0.930 . S
C526 C524 1.371 . S
C526 C527 1.392 . S
C526 H542 0.931 . S
C527 C526 1.392 . S
C527 C528 1.331 . S
C527 H545 0.932 . S
C528 C527 1.331 . S
C528 C529 1.336 . S
C529 C525 1.394 . S
C529 C528 1.336 . S
C529 H544 0.929 . S
C530 C520 1.386 . S
C530 C523 1.357 . S
C530 H543 0.928 . S
H531 C507 0.931 . S
H532 C509 0.930 . S
H533 C511 0.929 . S
H534 C512 0.931 . S
H535 C514 0.930 . S
H536 C518 0.931 . S
H537 C516 0.931 . S
H538 C520 0.931 . S
H539 C521 0.929 . S
H540 C522 0.930 . S
H541 C525 0.930 . S
H542 C526 0.931 . S
H543 C530 0.928 . S
H544 C529 0.929 . S
H545 C527 0.932 . S
C546 C547 1.386 . S
C546 C548 1.397 . S
C546 H570 0.931 . S
C547 C546 1.386 . S
C547 C551 1.397 . S
C548 C546 1.397 . S
C548 C549 1.384 . S
C548 H571 0.930 . S
C549 C548 1.384 . S
C549 C550 1.377 . S
C549 C552 1.481 . S
C550 C549 1.377 . S
C550 C551 1.389 . S
C550 H572 0.929 . S
C551 C547 1.397 . S
C551 C550 1.389 . S
C551 H573 0.931 . S
C552 C549 1.481 . S
C552 C553 1.387 . S
C552 C557 1.390 . S
C553 C552 1.387 . S
C553 C554 1.401 . S
C553 H574 0.930 . S
C554 C553 1.401 . S
C554 C555 1.376 . S
C554 C563 1.511 . S
C555 C554 1.376 . S
C555 C556 1.392 . S
C555 H576 0.931 . S
C556 C555 1.392 . S
C556 C557 1.361 . S
C556 C558 1.500 . S
C557 C552 1.390 . S
C557 C556 1.361 . S
C557 H575 0.931 . S
C558 C556 1.500 . S
C558 C559 1.371 . S
C558 C560 1.365 . S
C559 C558 1.371 . S
C559 C569 1.386 . S
C559 H577 0.931 . S
C560 C558 1.365 . S
C560 C561 1.409 . S
C560 H578 0.929 . S
C561 C560 1.409 . S
C561 C562 1.380 . S
C561 H579 0.930 . S
C562 C561 1.380 . S
C562 C569 1.357 . S
C563 C554 1.511 . S
C563 C564 1.341 . S
C563 C565 1.371 . S
C564 C563 1.341 . S
C564 C568 1.394 . S
C564 H580 0.930 . S
C565 C563 1.371 . S
C565 C566 1.392 . S
C565 H581 0.931 . S
C566 C565 1.392 . S
C566 C567 1.331 . S
C566 H584 0.932 . S
C567 C566 1.331 . S
C567 C568 1.336 . S
C568 C564 1.394 . S
C568 C567 1.336 . S
C568 H583 0.929 . S
C569 C559 1.386 . S
C569 C562 1.357 . S
C569 H582 0.928 . S
H570 C546 0.931 . S
H571 C548 0.930 . S
H572 C550 0.929 . S
H573 C551 0.931 . S
H574 C553 0.930 . S
H575 C557 0.931 . S
H576 C555 0.931 . S
H577 C559 0.931 . S
H578 C560 0.929 . S
H579 C561 0.930 . S
H580 C564 0.930 . S
H581 C565 0.931 . S
H582 C569 0.928 . S
H583 C568 0.929 . S
H584 C566 0.932 . S
C585 C586 1.386 . S
C585 C587 1.397 . S
C585 H609 0.931 . S
C586 C585 1.386 . S
C586 C590 1.397 . S
C587 C585 1.397 . S
C587 C588 1.384 . S
C587 H610 0.930 . S
C588 C587 1.384 . S
C588 C589 1.377 . S
C588 C591 1.481 . S
C589 C588 1.377 . S
C589 C590 1.389 . S
C589 H611 0.929 . S
C590 C586 1.397 . S
C590 C589 1.389 . S
C590 H612 0.931 . S
C591 C588 1.481 . S
C591 C592 1.387 . S
C591 C596 1.390 . S
C592 C591 1.387 . S
C592 C593 1.401 . S
C592 H613 0.930 . S
C593 C592 1.401 . S
C593 C594 1.376 . S
C593 C602 1.511 . S
C594 C593 1.376 . S
C594 C595 1.392 . S
C594 H615 0.931 . S
C595 C594 1.392 . S
C595 C596 1.361 . S
C595 C597 1.500 . S
C596 C591 1.390 . S
C596 C595 1.361 . S
C596 H614 0.931 . S
C597 C595 1.500 . S
C597 C598 1.371 . S
C597 C599 1.365 . S
C598 C597 1.371 . S
C598 C608 1.386 . S
C598 H616 0.931 . S
C599 C597 1.365 . S
C599 C600 1.409 . S
C599 H617 0.929 . S
C600 C599 1.409 . S
C600 C601 1.380 . S
C600 H618 0.930 . S
C601 C600 1.380 . S
C601 C608 1.357 . S
C602 C593 1.511 . S
C602 C603 1.341 . S
C602 C604 1.371 . S
C603 C602 1.341 . S
C603 C607 1.394 . S
C603 H619 0.930 . S
C604 C602 1.371 . S
C604 C605 1.392 . S
C604 H620 0.931 . S
C605 C604 1.392 . S
C605 C606 1.331 . S
C605 H623 0.932 . S
C606 C605 1.331 . S
C606 C607 1.336 . S
C607 C603 1.394 . S
C607 C606 1.336 . S
C607 H622 0.929 . S
C608 C598 1.386 . S
C608 C601 1.357 . S
C608 H621 0.928 . S
H609 C585 0.931 . S
H610 C587 0.930 . S
H611 C589 0.929 . S
H612 C590 0.931 . S
H613 C592 0.930 . S
H614 C596 0.931 . S
H615 C594 0.931 . S
H616 C598 0.931 . S
H617 C599 0.929 . S
H618 C600 0.930 . S
H619 C603 0.930 . S
H620 C604 0.931 . S
H621 C608 0.928 . S
H622 C607 0.929 . S
H623 C605 0.932 . S
O624 Cd625 2.223 . S
O624 C632 1.315 . S
Cd625 O624 2.223 . S
Cd625 O628 2.297 . S
Cd625 O629 2.439 . S
Cd625 O635 2.240 . S
Cd626 O627 2.240 . S
Cd626 O634 2.223 . S
Cd626 O636 2.297 . S
Cd626 O637 2.439 . S
O627 Cd626 2.240 . S
O627 C632 1.279 . S
O628 Cd625 2.297 . S
O628 C630 1.247 . S
O629 Cd625 2.439 . S
O629 C630 1.208 . S
C630 O628 1.247 . S
C630 O629 1.208 . S
C631 O636 1.247 . S
C631 O637 1.208 . S
C632 O624 1.315 . S
C632 O627 1.279 . S
C633 O634 1.315 . S
C633 O635 1.279 . S
O634 Cd626 2.223 . S
O634 C633 1.315 . S
O635 Cd625 2.240 . S
O635 C633 1.279 . S
O636 Cd626 2.297 . S
O636 C631 1.247 . S
O637 Cd626 2.439 . S
O637 C631 1.208 . S
O638 Cd639 2.223 . S
O638 C646 1.315 . S
Cd639 O638 2.223 . S
Cd639 O642 2.297 . S
Cd639 O643 2.439 . S
Cd639 O649 2.240 . S
Cd640 O641 2.240 . S
Cd640 O648 2.223 . S
Cd640 O650 2.297 . S
Cd640 O651 2.439 . S
O641 Cd640 2.240 . S
O641 C646 1.279 . S
O642 Cd639 2.297 . S
O642 C644 1.247 . S
O643 Cd639 2.439 . S
O643 C644 1.208 . S
C644 O642 1.247 . S
C644 O643 1.208 . S
C645 O650 1.247 . S
C645 O651 1.208 . S
C646 O638 1.315 . S
C646 O641 1.279 . S
C647 O648 1.315 . S
C647 O649 1.279 . S
O648 Cd640 2.223 . S
O648 C647 1.315 . S
O649 Cd639 2.240 . S
O649 C647 1.279 . S
O650 Cd640 2.297 . S
O650 C645 1.247 . S
O651 Cd640 2.439 . S
O651 C645 1.208 . S
O652 Cd653 2.223 1_556 S
O652 C660 1.315 . S
Cd653 O652 2.223 1_554 S
Cd653 O656 2.297 . S
Cd653 O657 2.439 . S
Cd653 O663 2.240 . S
Cd654 O655 2.240 . S
Cd654 O662 2.223 . S
Cd654 O664 2.297 1_556 S
Cd654 O665 2.439 1_556 S
O655 Cd654 2.240 . S
O655 C660 1.279 . S
O656 Cd653 2.297 . S
O656 C658 1.247 . S
O657 Cd653 2.439 . S
O657 C658 1.208 . S
C658 O656 1.247 . S
C658 O657 1.208 . S
C659 O664 1.247 . S
C659 O665 1.208 . S
C660 O652 1.315 . S
C660 O655 1.279 . S
C661 O662 1.315 . S
C661 O663 1.279 1_556 S
O662 Cd654 2.223 . S
O662 C661 1.315 . S
O663 Cd653 2.240 . S
O663 C661 1.279 1_554 S
O664 Cd654 2.297 1_554 S
O664 C659 1.247 . S
O665 Cd654 2.439 1_554 S
O665 C659 1.208 . S
O666 Cd667 2.223 . S
O666 C674 1.315 . S
Cd667 O666 2.223 . S
Cd667 O670 2.297 . S
Cd667 O671 2.439 . S
Cd667 O677 2.240 . S
Cd668 O669 2.240 . S
Cd668 O676 2.223 . S
Cd668 O678 2.297 . S
Cd668 O679 2.439 . S
O669 Cd668 2.240 . S
O669 C674 1.279 . S
O670 Cd667 2.297 . S
O670 C672 1.247 . S
O671 Cd667 2.439 . S
O671 C672 1.208 . S
C672 O670 1.247 . S
C672 O671 1.208 . S
C673 O678 1.247 . S
C673 O679 1.208 . S
C674 O666 1.315 . S
C674 O669 1.279 . S
C675 O676 1.315 . S
C675 O677 1.279 . S
O676 Cd668 2.223 . S
O676 C675 1.315 . S
O677 Cd667 2.240 . S
O677 C675 1.279 . S
O678 Cd668 2.297 . S
O678 C673 1.247 . S
O679 Cd668 2.439 . S
O679 C673 1.208 . S
O680 Cd681 2.223 . S
O680 C688 1.315 . S
Cd681 O680 2.223 . S
Cd681 O684 2.297 . S
Cd681 O685 2.439 . S
Cd681 O691 2.240 . S
Cd682 O683 2.240 . S
Cd682 O690 2.223 . S
Cd682 O692 2.297 . S
Cd682 O693 2.439 . S
O683 Cd682 2.240 . S
O683 C688 1.279 . S
O684 Cd681 2.297 . S
O684 C686 1.247 . S
O685 Cd681 2.439 . S
O685 C686 1.208 . S
C686 O684 1.247 . S
C686 O685 1.208 . S
C687 O692 1.247 . S
C687 O693 1.208 . S
C688 O680 1.315 . S
C688 O683 1.279 . S
C689 O690 1.315 . S
C689 O691 1.279 . S
O690 Cd682 2.223 . S
O690 C689 1.315 . S
O691 Cd681 2.240 . S
O691 C689 1.279 . S
O692 Cd682 2.297 . S
O692 C687 1.247 . S
O693 Cd682 2.439 . S
O693 C687 1.208 . S
O694 Cd695 2.223 . S
O694 C702 1.315 . S
Cd695 O694 2.223 . S
Cd695 O698 2.297 . S
Cd695 O699 2.439 . S
Cd695 O705 2.240 . S
Cd696 O697 2.240 . S
Cd696 O704 2.223 . S
Cd696 O706 2.297 . S
Cd696 O707 2.439 . S
O697 Cd696 2.240 . S
O697 C702 1.279 . S
O698 Cd695 2.297 . S
O698 C700 1.247 . S
O699 Cd695 2.439 . S
O699 C700 1.208 . S
C700 O698 1.247 . S
C700 O699 1.208 . S
C701 O706 1.247 . S
C701 O707 1.208 . S
C702 O694 1.315 . S
C702 O697 1.279 . S
C703 O704 1.315 . S
C703 O705 1.279 . S
O704 Cd696 2.223 . S
O704 C703 1.315 . S
O705 Cd695 2.240 . S
O705 C703 1.279 . S
O706 Cd696 2.297 . S
O706 C701 1.247 . S
O707 Cd696 2.439 . S
O707 C701 1.208 . S
O708 Cd709 2.223 . S
O708 C716 1.315 . S
Cd709 O708 2.223 . S
Cd709 O712 2.297 . S
Cd709 O713 2.439 . S
Cd709 O719 2.240 . S
Cd710 O711 2.240 . S
Cd710 O718 2.223 . S
Cd710 O720 2.297 . S
Cd710 O721 2.439 . S
O711 Cd710 2.240 . S
O711 C716 1.279 . S
O712 Cd709 2.297 . S
O712 C714 1.247 . S
O713 Cd709 2.439 . S
O713 C714 1.208 . S
C714 O712 1.247 . S
C714 O713 1.208 . S
C715 O720 1.247 . S
C715 O721 1.208 . S
C716 O708 1.315 . S
C716 O711 1.279 . S
C717 O718 1.315 . S
C717 O719 1.279 . S
O718 Cd710 2.223 . S
O718 C717 1.315 . S
O719 Cd709 2.240 . S
O719 C717 1.279 . S
O720 Cd710 2.297 . S
O720 C715 1.247 . S
O721 Cd710 2.439 . S
O721 C715 1.208 . S
O722 Cd723 2.223 1_545 S
O722 C730 1.315 . S
Cd723 O722 2.223 1_565 S
Cd723 O726 2.297 . S
Cd723 O727 2.439 . S
Cd723 O733 2.240 1_565 S
Cd724 O725 2.240 . S
Cd724 O732 2.223 . S
Cd724 O734 2.297 . S
Cd724 O735 2.439 1_545 S
O725 Cd724 2.240 . S
O725 C730 1.279 . S
O726 Cd723 2.297 . S
O726 C728 1.247 . S
O727 Cd723 2.439 . S
O727 C728 1.208 . S
C728 O726 1.247 . S
C728 O727 1.208 . S
C729 O734 1.247 1_565 S
C729 O735 1.208 . S
C730 O722 1.315 . S
C730 O725 1.279 . S
C731 O732 1.315 . S
C731 O733 1.279 . S
O732 Cd724 2.223 . S
O732 C731 1.315 . S
O733 Cd723 2.240 1_545 S
O733 C731 1.279 . S
O734 Cd724 2.297 . S
O734 C729 1.247 1_545 S
O735 Cd724 2.439 1_565 S
O735 C729 1.208 . S
O736 Cd737 2.223 . S
O736 C744 1.315 . S
Cd737 O736 2.223 . S
Cd737 O740 2.297 1_655 S
Cd737 O741 2.439 1_655 S
Cd737 O747 2.240 . S
Cd738 O739 2.240 . S
Cd738 O746 2.223 1_455 S
Cd738 O748 2.297 . S
Cd738 O749 2.439 . S
O739 Cd738 2.240 . S
O739 C744 1.279 1_455 S
O740 Cd737 2.297 1_455 S
O740 C742 1.247 . S
O741 Cd737 2.439 1_455 S
O741 C742 1.208 . S
C742 O740 1.247 . S
C742 O741 1.208 . S
C743 O748 1.247 . S
C743 O749 1.208 . S
C744 O736 1.315 . S
C744 O739 1.279 1_655 S
C745 O746 1.315 . S
C745 O747 1.279 . S
O746 Cd738 2.223 1_655 S
O746 C745 1.315 . S
O747 Cd737 2.240 . S
O747 C745 1.279 . S
O748 Cd738 2.297 . S
O748 C743 1.247 . S
O749 Cd738 2.439 . S
O749 C743 1.208 . S
O750 Cd751 2.223 . S
O750 C758 1.315 . S
Cd751 O750 2.223 . S
Cd751 O754 2.297 . S
Cd751 O755 2.439 . S
Cd751 O761 2.240 . S
Cd752 O753 2.240 . S
Cd752 O760 2.223 . S
Cd752 O762 2.297 . S
Cd752 O763 2.439 . S
O753 Cd752 2.240 . S
O753 C758 1.279 . S
O754 Cd751 2.297 . S
O754 C756 1.247 . S
O755 Cd751 2.439 . S
O755 C756 1.208 . S
C756 O754 1.247 . S
C756 O755 1.208 . S
C757 O762 1.247 . S
C757 O763 1.208 . S
C758 O750 1.315 . S
C758 O753 1.279 . S
C759 O760 1.315 . S
C759 O761 1.279 . S
O760 Cd752 2.223 . S
O760 C759 1.315 . S
O761 Cd751 2.240 . S
O761 C759 1.279 . S
O762 Cd752 2.297 . S
O762 C757 1.247 . S
O763 Cd752 2.439 . S
O763 C757 1.208 . S
O764 Cd765 2.223 1_655 S
O764 C772 1.315 . S
Cd765 O764 2.223 1_455 S
Cd765 O768 2.297 . S
Cd765 O769 2.439 . S
Cd765 O775 2.240 . S
Cd766 O767 2.240 . S
Cd766 O774 2.223 . S
Cd766 O776 2.297 1_655 S
Cd766 O777 2.439 1_655 S
O767 Cd766 2.240 . S
O767 C772 1.279 . S
O768 Cd765 2.297 . S
O768 C770 1.247 . S
O769 Cd765 2.439 . S
O769 C770 1.208 . S
C770 O768 1.247 . S
C770 O769 1.208 . S
C771 O776 1.247 . S
C771 O777 1.208 . S
C772 O764 1.315 . S
C772 O767 1.279 . S
C773 O774 1.315 . S
C773 O775 1.279 1_655 S
O774 Cd766 2.223 . S
O774 C773 1.315 . S
O775 Cd765 2.240 . S
O775 C773 1.279 1_455 S
O776 Cd766 2.297 1_455 S
O776 C771 1.247 . S
O777 Cd766 2.439 1_455 S
O777 C771 1.208 . S
O778 Cd779 2.223 . S
O778 C786 1.315 . S
Cd779 O778 2.223 . S
Cd779 O782 2.297 . S
Cd779 O783 2.439 . S
Cd779 O789 2.240 . S
Cd780 O781 2.240 . S
Cd780 O788 2.223 . S
Cd780 O790 2.297 . S
Cd780 O791 2.439 . S
O781 Cd780 2.240 . S
O781 C786 1.279 . S
O782 Cd779 2.297 . S
O782 C784 1.247 . S
O783 Cd779 2.439 . S
O783 C784 1.208 . S
C784 O782 1.247 . S
C784 O783 1.208 . S
C785 O790 1.247 . S
C785 O791 1.208 . S
C786 O778 1.315 . S
C786 O781 1.279 . S
C787 O788 1.315 . S
C787 O789 1.279 . S
O788 Cd780 2.223 . S
O788 C787 1.315 . S
O789 Cd779 2.240 . S
O789 C787 1.279 . S
O790 Cd780 2.297 . S
O790 C785 1.247 . S
O791 Cd780 2.439 . S
O791 C785 1.208 . S
C792 C793 1.349 . S
C792 C794 1.327 . S
C792 H817 0.950 . S
C793 C792 1.349 . S
C793 C809 1.349 . S
C794 C792 1.327 . S
C794 C813 1.429 . S
C794 H818 0.950 . S
C795 C812 1.574 . S
C795 C814 1.368 . S
C795 H819 0.949 . S
H796 C800 0.949 . S
C797 C798 1.354 . S
C797 C799 1.295 1_554 S
C797 H820 0.979 . S
C798 C797 1.354 . S
C798 C810 1.349 1_554 S
C799 C797 1.295 1_556 S
C799 C815 1.429 . S
C799 H821 0.950 . S
C800 H796 0.949 . S
C800 C808 1.574 . S
C800 C816 1.368 . S
H801 C809 0.950 . S
H802 C807 0.950 . S
H803 C808 0.949 . S
H804 C810 0.950 . S
H805 C811 0.950 . S
H806 C812 0.949 . S
C807 H802 0.950 . S
C807 C809 1.327 . S
C807 C813 1.429 . S
C808 C800 1.574 . S
C808 H803 0.949 . S
C808 C814 1.368 . S
C809 C793 1.349 . S
C809 H801 0.950 . S
C809 C807 1.327 . S
C810 C798 1.349 1_556 S
C810 H804 0.950 . S
C810 C811 1.327 . S
C811 H805 0.950 . S
C811 C810 1.327 . S
C811 C815 1.429 . S
C812 C795 1.574 . S
C812 H806 0.949 . S
C812 C816 1.368 . S
C813 C794 1.429 . S
C813 C807 1.429 . S
C813 C814 1.523 . S
C814 C795 1.368 . S
C814 C808 1.368 . S
C814 C813 1.523 . S
C815 C799 1.429 . S
C815 C811 1.429 . S
C815 C816 1.523 . S
C816 C800 1.368 . S
C816 C812 1.368 . S
C816 C815 1.523 . S
H817 C792 0.950 . S
H818 C794 0.950 . S
H819 C795 0.949 . S
H820 C797 0.979 . S
H821 C799 0.950 . S
C822 C823 1.349 . S
C822 C824 1.327 . S
C822 H847 0.950 . S
C823 C822 1.349 . S
C823 C839 1.349 . S
C824 C822 1.327 . S
C824 C843 1.458 . S
C824 H848 0.950 . S
C825 C842 1.574 . S
C825 C844 1.368 . S
C825 H849 0.949 . S
H826 C830 0.949 . S
C827 C828 1.349 . S
C827 C829 1.327 . S
C827 H850 0.950 . S
C828 C827 1.349 . S
C828 C840 1.349 . S
C829 C827 1.327 . S
C829 C845 1.429 . S
C829 H851 0.950 . S
C830 H826 0.949 . S
C830 C838 1.574 . S
C830 C846 1.368 . S
H831 C839 0.950 . S
H832 C837 0.920 1_455 S
H833 C838 0.949 . S
H834 C840 0.950 . S
H835 C841 0.950 . S
H836 C842 0.949 . S
C837 H832 0.920 1_655 S
C837 C839 1.327 . S
C837 C843 1.447 . S
C838 C830 1.574 . S
C838 H833 0.949 . S
C838 C844 1.368 . S
C839 C823 1.349 . S
C839 H831 0.950 . S
C839 C837 1.327 . S
C840 C828 1.349 . S
C840 H834 0.950 . S
C840 C841 1.327 . S
C841 H835 0.950 . S
C841 C840 1.327 . S
C841 C845 1.429 . S
C842 C825 1.574 . S
C842 H836 0.949 . S
C842 C846 1.368 . S
C843 C824 1.458 . S
C843 C837 1.447 . S
C843 C844 1.481 1_655 S
C844 C825 1.368 . S
C844 C838 1.368 . S
C844 C843 1.481 1_455 S
C845 C829 1.429 . S
C845 C841 1.429 . S
C845 C846 1.523 . S
C846 C830 1.368 . S
C846 C842 1.368 . S
C846 C845 1.523 . S
H847 C822 0.950 . S
H848 C824 0.950 . S
H849 C825 0.949 . S
H850 C827 0.950 . S
H851 C829 0.950 . S
C852 C853 1.349 . S
C852 C854 1.327 . S
C852 H877 0.950 . S
C853 C852 1.349 . S
C853 C869 1.349 . S
C854 C852 1.327 . S
C854 C873 1.429 . S
C854 H878 0.950 . S
C855 C872 1.574 . S
C855 C874 1.368 . S
C855 H879 0.949 . S
H856 C860 0.949 . S
C857 C858 1.349 . S
C857 C859 1.327 . S
C857 H880 0.950 . S
C858 C857 1.349 . S
C858 C870 1.349 . S
C859 C857 1.327 . S
C859 C875 1.429 . S
C859 H881 0.950 . S
C860 H856 0.949 . S
C860 C868 1.574 . S
C860 C876 1.368 . S
H861 C869 0.950 . S
H862 C867 0.950 . S
H863 C868 0.949 . S
H864 C870 0.950 . S
H865 C871 0.950 . S
H866 C872 0.949 . S
C867 H862 0.950 . S
C867 C869 1.327 . S
C867 C873 1.429 . S
C868 C860 1.574 . S
C868 H863 0.949 . S
C868 C874 1.368 . S
C869 C853 1.349 . S
C869 H861 0.950 . S
C869 C867 1.327 . S
C870 C858 1.349 . S
C870 H864 0.950 . S
C870 C871 1.327 . S
C871 H865 0.950 . S
C871 C870 1.327 . S
C871 C875 1.429 . S
C872 C855 1.574 . S
C872 H866 0.949 . S
C872 C876 1.368 . S
C873 C854 1.429 . S
C873 C867 1.429 . S
C873 C874 1.523 . S
C874 C855 1.368 . S
C874 C868 1.368 . S
C874 C873 1.523 . S
C875 C859 1.429 . S
C875 C871 1.429 . S
C875 C876 1.523 . S
C876 C860 1.368 . S
C876 C872 1.368 . S
C876 C875 1.523 . S
H877 C852 0.950 . S
H878 C854 0.950 . S
H879 C855 0.949 . S
H880 C857 0.950 . S
H881 C859 0.950 . S
C882 C883 1.349 . S
C882 C884 1.327 . S
C882 H907 0.950 . S
C883 C882 1.349 . S
C883 C899 1.349 . S
C884 C882 1.327 . S
C884 C903 1.429 1_455 S
C884 H908 0.949 1_455 S
C885 C902 1.574 . S
C885 C904 1.368 . S
C885 H909 0.949 . S
H886 C890 0.949 . S
C887 C888 1.349 . S
C887 C889 1.327 . S
C887 H910 0.950 . S
C888 C887 1.349 . S
C888 C900 1.349 . S
C889 C887 1.327 . S
C889 C905 1.429 . S
C889 H911 0.950 . S
C890 H886 0.949 . S
C890 C898 1.574 . S
C890 C906 1.368 . S
H891 C899 0.950 . S
H892 C897 0.950 . S
H893 C898 0.949 . S
H894 C900 0.950 . S
H895 C901 0.950 . S
H896 C902 0.949 . S
C897 H892 0.950 . S
C897 C899 1.327 . S
C897 C903 1.429 1_455 S
C898 C890 1.574 . S
C898 H893 0.949 . S
C898 C904 1.368 1_545 S
C899 C883 1.349 . S
C899 H891 0.950 . S
C899 C897 1.327 . S
C900 C888 1.349 . S
C900 H894 0.950 . S
C900 C901 1.327 . S
C901 H895 0.950 . S
C901 C900 1.327 . S
C901 C905 1.429 . S
C902 C885 1.574 . S
C902 H896 0.949 . S
C902 C906 1.368 1_565 S
C903 C884 1.429 1_655 S
C903 C897 1.429 1_655 S
C903 C904 1.523 . S
C904 C885 1.368 . S
C904 C898 1.368 1_565 S
C904 C903 1.523 . S
C905 C889 1.429 . S
C905 C901 1.429 . S
C905 C906 1.523 . S
C906 C890 1.368 . S
C906 C902 1.368 1_545 S
C906 C905 1.523 . S
H907 C882 0.950 . S
H908 C884 0.949 1_655 S
H909 C885 0.949 . S
H910 C887 0.950 . S
H911 C889 0.950 . S
C912 C913 1.349 . S
C912 C914 1.327 . S
C912 H937 0.950 . S
C913 C912 1.349 . S
C913 C929 1.349 . S
C914 C912 1.327 . S
C914 C933 1.429 . S
C914 H938 0.950 . S
C915 C932 1.574 . S
C915 C934 1.368 . S
C915 H939 0.949 . S
H916 C920 0.949 . S
C917 C918 1.349 . S
C917 C919 1.327 . S
C917 H940 0.950 . S
C918 C917 1.349 . S
C918 C930 1.349 . S
C919 C917 1.327 . S
C919 C935 1.429 . S
C919 H941 0.950 . S
C920 H916 0.949 . S
C920 C928 1.574 . S
C920 C936 1.368 . S
H921 C929 0.950 . S
H922 C927 0.950 . S
H923 C928 0.949 . S
H924 C930 0.950 . S
H925 C931 0.950 . S
H926 C932 0.949 . S
C927 H922 0.950 . S
C927 C929 1.327 . S
C927 C933 1.429 . S
C928 C920 1.574 . S
C928 H923 0.949 . S
C928 C934 1.368 . S
C929 C913 1.349 . S
C929 H921 0.950 . S
C929 C927 1.327 . S
C930 C918 1.349 . S
C930 H924 0.950 . S
C930 C931 1.327 . S
C931 H925 0.950 . S
C931 C930 1.327 . S
C931 C935 1.429 . S
C932 C915 1.574 . S
C932 H926 0.949 . S
C932 C936 1.368 . S
C933 C914 1.429 . S
C933 C927 1.429 . S
C933 C934 1.523 . S
C934 C915 1.368 . S
C934 C928 1.368 . S
C934 C933 1.523 . S
C935 C919 1.429 . S
C935 C931 1.429 . S
C935 C936 1.523 . S
C936 C920 1.368 . S
C936 C932 1.368 . S
C936 C935 1.523 . S
H937 C912 0.950 . S
H938 C914 0.950 . S
H939 C915 0.949 . S
H940 C917 0.950 . S
H941 C919 0.950 . S
C942 C943 1.349 . S
C942 C944 1.327 . S
C942 H967 0.950 . S
C943 C942 1.349 . S
C943 C959 1.349 . S
C944 C942 1.327 . S
C944 C963 1.429 . S
C944 H968 0.950 . S
C945 C962 1.574 . S
C945 C964 1.368 . S
C945 H969 0.949 . S
H946 C950 0.949 . S
C947 C948 1.349 . S
C947 C949 1.327 . S
C947 H970 0.950 . S
C948 C947 1.349 . S
C948 C960 1.349 . S
C949 C947 1.327 . S
C949 C965 1.429 . S
C949 H971 0.950 . S
C950 H946 0.949 . S
C950 C958 1.574 . S
C950 C966 1.368 . S
H951 C959 0.950 . S
H952 C957 0.950 . S
H953 C958 0.949 . S
H954 C960 0.950 . S
H955 C961 0.950 . S
H956 C962 0.949 . S
C957 H952 0.950 . S
C957 C959 1.327 . S
C957 C963 1.429 . S
C958 C950 1.574 . S
C958 H953 0.949 . S
C958 C964 1.368 . S
C959 C943 1.349 . S
C959 H951 0.950 . S
C959 C957 1.327 . S
C960 C948 1.349 . S
C960 H954 0.950 . S
C960 C961 1.327 . S
C961 H955 0.950 . S
C961 C960 1.327 . S
C961 C965 1.429 . S
C962 C945 1.574 . S
C962 H956 0.949 . S
C962 C966 1.368 . S
C963 C944 1.429 . S
C963 C957 1.429 . S
C963 C964 1.523 . S
C964 C945 1.368 . S
C964 C958 1.368 . S
C964 C963 1.523 . S
C965 C949 1.429 . S
C965 C961 1.429 . S
C965 C966 1.523 . S
C966 C950 1.368 . S
C966 C962 1.368 . S
C966 C965 1.523 . S
H967 C942 0.950 . S
H968 C944 0.950 . S
H969 C945 0.949 . S
H970 C947 0.950 . S
H971 C949 0.950 . S
C972 C973 1.349 . S
C972 C974 1.327 . S
C972 H997 0.950 . S
C973 C972 1.349 . S
C973 C989 1.349 . S
C974 C972 1.327 . S
C974 C993 1.429 . S
C974 H998 0.950 . S
C975 C992 1.574 . S
C975 C994 1.368 . S
C975 H999 0.949 . S
H976 C980 0.949 . S
C977 C978 1.349 . S
C977 C979 1.327 . S
C977 H1000 0.950 . S
C978 C977 1.349 . S
C978 C990 1.349 . S
C979 C977 1.327 . S
C979 C995 1.429 . S
C979 H1001 0.950 . S
C980 H976 0.949 . S
C980 C988 1.574 . S
C980 C996 1.368 . S
H981 C989 0.950 . S
H982 C987 0.950 . S
H983 C988 0.949 . S
H984 C990 0.950 . S
H985 C991 0.950 . S
H986 C992 0.949 . S
C987 H982 0.950 . S
C987 C989 1.327 . S
C987 C993 1.429 . S
C988 C980 1.574 . S
C988 H983 0.949 . S
C988 C994 1.368 . S
C989 C973 1.349 . S
C989 H981 0.950 . S
C989 C987 1.327 . S
C990 C978 1.349 . S
C990 H984 0.950 . S
C990 C991 1.327 . S
C991 H985 0.950 . S
C991 C990 1.327 . S
C991 C995 1.429 . S
C992 C975 1.574 . S
C992 H986 0.949 . S
C992 C996 1.368 . S
C993 C974 1.429 . S
C993 C987 1.429 . S
C993 C994 1.523 . S
C994 C975 1.368 . S
C994 C988 1.368 . S
C994 C993 1.523 . S
C995 C979 1.429 . S
C995 C991 1.429 . S
C995 C996 1.523 . S
C996 C980 1.368 . S
C996 C992 1.368 . S
C996 C995 1.523 . S
H997 C972 0.950 . S
H998 C974 0.950 . S
H999 C975 0.949 . S
H1000 C977 0.950 . S
H1001 C979 0.950 . S
C1002 C1003 1.349 . S
C1002 C1004 1.327 . S
C1002 H1027 0.950 . S
C1003 C1002 1.349 . S
C1003 C1019 1.349 . S
C1004 C1002 1.327 . S
C1004 C1023 1.429 . S
C1004 H1028 0.950 . S
C1005 C1022 1.574 . S
C1005 C1024 1.368 . S
C1005 H1029 0.949 . S
H1006 C1010 0.949 . S
C1007 C1008 1.349 . S
C1007 C1009 1.327 . S
C1007 H1030 0.950 1_565 S
C1008 C1007 1.349 . S
C1008 C1020 1.349 . S
C1009 C1007 1.327 . S
C1009 C1025 1.429 . S
C1009 H1031 0.950 . S
C1010 H1006 0.949 . S
C1010 C1018 1.574 . S
C1010 C1026 1.368 . S
H1011 C1019 0.950 . S
H1012 C1017 0.950 . S
H1013 C1018 0.949 . S
H1014 C1020 0.950 . S
H1015 C1021 0.950 . S
H1016 C1022 0.949 . S
C1017 H1012 0.950 . S
C1017 C1019 1.327 . S
C1017 C1023 1.429 . S
C1018 C1010 1.574 . S
C1018 H1013 0.949 . S
C1018 C1024 1.368 . S
C1019 C1003 1.349 . S
C1019 H1011 0.950 . S
C1019 C1017 1.327 . S
C1020 C1008 1.349 . S
C1020 H1014 0.950 . S
C1020 C1021 1.327 . S
C1021 H1015 0.950 . S
C1021 C1020 1.327 . S
C1021 C1025 1.429 . S
C1022 C1005 1.574 . S
C1022 H1016 0.949 . S
C1022 C1026 1.368 . S
C1023 C1004 1.429 . S
C1023 C1017 1.429 . S
C1023 C1024 1.523 . S
C1024 C1005 1.368 . S
C1024 C1018 1.368 . S
C1024 C1023 1.523 . S
C1025 C1009 1.429 . S
C1025 C1021 1.429 . S
C1025 C1026 1.523 . S
C1026 C1010 1.368 . S
C1026 C1022 1.368 . S
C1026 C1025 1.523 . S
H1027 C1002 0.950 . S
H1028 C1004 0.950 . S
H1029 C1005 0.949 . S
H1030 C1007 0.950 1_545 S
H1031 C1009 0.950 . S
C1032 C1033 1.349 . S
C1032 C1034 1.327 . S
C1032 H1057 0.950 . S
C1033 C1032 1.349 . S
C1033 C1049 1.349 . S
C1034 C1032 1.327 . S
C1034 C1053 1.429 . S
C1034 H1058 0.950 . S
C1035 C1052 1.574 . S
C1035 C1054 1.368 . S
C1035 H1059 0.949 . S
H1036 C1040 0.949 . S
C1037 C1038 1.349 . S
C1037 C1039 1.327 . S
C1037 H1060 0.950 . S
C1038 C1037 1.349 . S
C1038 C1050 1.349 . S
C1039 C1037 1.327 . S
C1039 C1055 1.429 . S
C1039 H1061 0.950 . S
C1040 H1036 0.949 . S
C1040 C1048 1.574 . S
C1040 C1056 1.368 . S
H1041 C1049 0.950 . S
H1042 C1047 0.950 . S
H1043 C1048 0.949 . S
H1044 C1050 0.950 . S
H1045 C1051 0.950 . S
H1046 C1052 0.949 . S
C1047 H1042 0.950 . S
C1047 C1049 1.327 . S
C1047 C1053 1.429 . S
C1048 C1040 1.574 . S
C1048 H1043 0.949 . S
C1048 C1054 1.368 . S
C1049 C1033 1.349 . S
C1049 H1041 0.950 . S
C1049 C1047 1.327 . S
C1050 C1038 1.349 . S
C1050 H1044 0.950 . S
C1050 C1051 1.327 . S
C1051 H1045 0.950 . S
C1051 C1050 1.327 . S
C1051 C1055 1.429 . S
C1052 C1035 1.574 . S
C1052 H1046 0.949 . S
C1052 C1056 1.368 . S
C1053 C1034 1.429 . S
C1053 C1047 1.429 . S
C1053 C1054 1.523 . S
C1054 C1035 1.368 . S
C1054 C1048 1.368 . S
C1054 C1053 1.523 . S
C1055 C1039 1.429 . S
C1055 C1051 1.429 . S
C1055 C1056 1.523 . S
C1056 C1040 1.368 . S
C1056 C1052 1.368 . S
C1056 C1055 1.523 . S
H1057 C1032 0.950 . S
H1058 C1034 0.950 . S
H1059 C1035 0.949 . S
H1060 C1037 0.950 . S
H1061 C1039 0.950 . S
C1062 C1063 1.349 . S
C1062 C1064 1.327 . S
C1062 H1087 0.950 . S
C1063 C1062 1.349 . S
C1063 C1079 1.349 . S
C1064 C1062 1.327 . S
C1064 C1083 1.429 . S
C1064 H1088 0.950 . S
C1065 C1082 1.574 . S
C1065 C1084 1.368 . S
C1065 H1089 0.949 . S
H1066 C1070 0.949 . S
C1067 C1068 1.349 . S
C1067 C1069 1.327 . S
C1067 H1090 0.950 . S
C1068 C1067 1.349 . S
C1068 C1080 1.349 . S
C1069 C1067 1.327 . S
C1069 C1085 1.429 . S
C1069 H1091 0.950 . S
C1070 H1066 0.949 . S
C1070 C1078 1.574 . S
C1070 C1086 1.368 . S
H1071 C1079 0.950 . S
H1072 C1077 0.950 . S
H1073 C1078 0.949 . S
H1074 C1080 0.950 . S
H1075 C1081 0.950 . S
H1076 C1082 0.949 . S
C1077 H1072 0.950 . S
C1077 C1079 1.327 . S
C1077 C1083 1.429 . S
C1078 C1070 1.574 . S
C1078 H1073 0.949 . S
C1078 C1084 1.368 . S
C1079 C1063 1.349 . S
C1079 H1071 0.950 . S
C1079 C1077 1.327 . S
C1080 C1068 1.349 . S
C1080 H1074 0.950 . S
C1080 C1081 1.327 . S
C1081 H1075 0.950 . S
C1081 C1080 1.327 . S
C1081 C1085 1.429 . S
C1082 C1065 1.574 . S
C1082 H1076 0.949 . S
C1082 C1086 1.368 . S
C1083 C1064 1.429 . S
C1083 C1077 1.429 . S
C1083 C1084 1.523 . S
C1084 C1065 1.368 . S
C1084 C1078 1.368 . S
C1084 C1083 1.523 . S
C1085 C1069 1.429 . S
C1085 C1081 1.429 . S
C1085 C1086 1.523 . S
C1086 C1070 1.368 . S
C1086 C1082 1.368 . S
C1086 C1085 1.523 . S
H1087 C1062 0.950 . S
H1088 C1064 0.950 . S
H1089 C1065 0.949 . S
H1090 C1067 0.950 . S
H1091 C1069 0.950 . S
C1092 C1093 1.349 . S
C1092 C1094 1.327 . S
C1092 H1117 0.950 . S
C1093 C1092 1.349 . S
C1093 C1109 1.349 . S
C1094 C1092 1.327 . S
C1094 C1113 1.429 . S
C1094 H1118 0.950 . S
C1095 C1112 1.574 . S
C1095 C1114 1.368 . S
C1095 H1119 0.949 . S
H1096 C1100 0.949 . S
C1097 C1098 1.349 . S
C1097 C1099 1.327 . S
C1097 H1120 0.950 . S
C1098 C1097 1.349 . S
C1098 C1110 1.349 . S
C1099 C1097 1.327 . S
C1099 C1115 1.429 . S
C1099 H1121 0.950 . S
C1100 H1096 0.949 . S
C1100 C1108 1.574 . S
C1100 C1116 1.368 . S
H1101 C1109 0.950 . S
H1102 C1107 0.950 . S
H1103 C1108 0.949 . S
H1104 C1110 0.950 . S
H1105 C1111 0.950 . S
H1106 C1112 0.949 . S
C1107 H1102 0.950 . S
C1107 C1109 1.327 . S
C1107 C1113 1.429 . S
C1108 C1100 1.574 . S
C1108 H1103 0.949 . S
C1108 C1114 1.368 . S
C1109 C1093 1.349 . S
C1109 H1101 0.950 . S
C1109 C1107 1.327 . S
C1110 C1098 1.349 . S
C1110 H1104 0.950 . S
C1110 C1111 1.327 . S
C1111 H1105 0.950 . S
C1111 C1110 1.327 . S
C1111 C1115 1.429 . S
C1112 C1095 1.574 . S
C1112 H1106 0.949 . S
C1112 C1116 1.368 . S
C1113 C1094 1.429 . S
C1113 C1107 1.429 . S
C1113 C1114 1.523 . S
C1114 C1095 1.368 . S
C1114 C1108 1.368 . S
C1114 C1113 1.523 . S
C1115 C1099 1.429 . S
C1115 C1111 1.429 . S
C1115 C1116 1.523 . S
C1116 C1100 1.368 . S
C1116 C1112 1.368 . S
C1116 C1115 1.523 . S
H1117 C1092 0.950 . S
H1118 C1094 0.950 . S
H1119 C1095 0.949 . S
H1120 C1097 0.950 . S
H1121 C1099 0.950 . S
C1122 C1123 1.349 . S
C1122 C1124 1.327 . S
C1122 H1147 0.950 . S
C1123 C1122 1.349 . S
C1123 C1139 1.349 . S
C1124 C1122 1.327 . S
C1124 C1143 1.429 . S
C1124 H1148 0.950 . S
C1125 C1142 1.574 . S
C1125 C1144 1.368 . S
C1125 H1149 0.949 . S
H1126 C1130 0.949 . S
C1127 C1128 1.349 . S
C1127 C1129 1.327 . S
C1127 H1150 0.950 . S
C1128 C1127 1.349 . S
C1128 C1140 1.349 . S
C1129 C1127 1.327 . S
C1129 C1145 1.429 . S
C1129 H1151 0.950 . S
C1130 H1126 0.949 . S
C1130 C1138 1.574 . S
C1130 C1146 1.368 . S
H1131 C1139 0.950 . S
H1132 C1137 0.950 . S
H1133 C1138 0.949 . S
H1134 C1140 0.950 . S
H1135 C1141 0.950 . S
H1136 C1142 0.949 . S
C1137 H1132 0.950 . S
C1137 C1139 1.327 . S
C1137 C1143 1.429 . S
C1138 C1130 1.574 . S
C1138 H1133 0.949 . S
C1138 C1144 1.368 . S
C1139 C1123 1.349 . S
C1139 H1131 0.950 . S
C1139 C1137 1.327 . S
C1140 C1128 1.349 . S
C1140 H1134 0.950 . S
C1140 C1141 1.327 . S
C1141 H1135 0.950 . S
C1141 C1140 1.327 . S
C1141 C1145 1.429 . S
C1142 C1125 1.574 . S
C1142 H1136 0.949 . S
C1142 C1146 1.368 . S
C1143 C1124 1.429 . S
C1143 C1137 1.429 . S
C1143 C1144 1.523 . S
C1144 C1125 1.368 . S
C1144 C1138 1.368 . S
C1144 C1143 1.523 . S
C1145 C1129 1.429 . S
C1145 C1141 1.429 . S
C1145 C1146 1.523 . S
C1146 C1130 1.368 . S
C1146 C1142 1.368 . S
C1146 C1145 1.523 . S
H1147 C1122 0.950 . S
H1148 C1124 0.950 . S
H1149 C1125 0.949 . S
H1150 C1127 0.950 . S
H1151 C1129 0.950 . S
C1152 C1153 1.349 . S
C1152 C1154 1.327 . S
C1152 H1177 0.950 . S
C1153 C1152 1.349 . S
C1153 C1169 1.349 . S
C1154 C1152 1.327 . S
C1154 C1173 1.429 . S
C1154 H1178 0.950 . S
C1155 C1172 1.574 . S
C1155 C1174 1.368 . S
C1155 H1179 0.949 . S
H1156 C1160 0.949 . S
C1157 C1158 1.349 . S
C1157 C1159 1.327 . S
C1157 H1180 0.950 . S
C1158 C1157 1.349 . S
C1158 C1170 1.349 . S
C1159 C1157 1.327 . S
C1159 C1175 1.429 . S
C1159 H1181 0.950 . S
C1160 H1156 0.949 . S
C1160 C1168 1.574 . S
C1160 C1176 1.368 . S
H1161 C1169 0.950 . S
H1162 C1167 0.950 . S
H1163 C1168 0.949 . S
H1164 C1170 0.950 . S
H1165 C1171 0.950 . S
H1166 C1172 0.949 . S
C1167 H1162 0.950 . S
C1167 C1169 1.327 . S
C1167 C1173 1.429 . S
C1168 C1160 1.574 . S
C1168 H1163 0.949 . S
C1168 C1174 1.368 . S
C1169 C1153 1.349 . S
C1169 H1161 0.950 . S
C1169 C1167 1.327 . S
C1170 C1158 1.349 . S
C1170 H1164 0.950 . S
C1170 C1171 1.327 . S
C1171 H1165 0.950 . S
C1171 C1170 1.327 . S
C1171 C1175 1.429 . S
C1172 C1155 1.574 . S
C1172 H1166 0.949 . S
C1172 C1176 1.368 . S
C1173 C1154 1.429 . S
C1173 C1167 1.429 . S
C1173 C1174 1.523 . S
C1174 C1155 1.368 . S
C1174 C1168 1.368 . S
C1174 C1173 1.523 . S
C1175 C1159 1.429 . S
C1175 C1171 1.429 . S
C1175 C1176 1.523 . S
C1176 C1160 1.368 . S
C1176 C1172 1.368 . S
C1176 C1175 1.523 . S
H1177 C1152 0.950 . S
H1178 C1154 0.950 . S
H1179 C1155 0.949 . S
H1180 C1157 0.950 . S
H1181 C1159 0.950 . S
C1182 C1183 1.349 . S
C1182 C1184 1.327 . S
C1182 H1207 0.950 . S
C1183 C1182 1.349 . S
C1183 C1199 1.349 . S
C1184 C1182 1.327 . S
C1184 C1203 1.429 . S
C1184 H1208 0.950 . S
C1185 C1202 1.574 . S
C1185 C1204 1.368 . S
C1185 H1209 0.949 . S
H1186 C1190 0.949 . S
C1187 C1188 1.349 . S
C1187 C1189 1.327 . S
C1187 H1210 0.950 . S
C1188 C1187 1.349 . S
C1188 C1200 1.349 . S
C1189 C1187 1.327 . S
C1189 C1205 1.429 . S
C1189 H1211 0.950 . S
C1190 H1186 0.949 . S
C1190 C1198 1.574 . S
C1190 C1206 1.368 . S
H1191 C1199 0.950 . S
H1192 C1197 0.950 . S
H1193 C1198 0.949 . S
H1194 C1200 0.950 . S
H1195 C1201 0.950 . S
H1196 C1202 0.949 . S
C1197 H1192 0.950 . S
C1197 C1199 1.327 . S
C1197 C1203 1.429 . S
C1198 C1190 1.574 . S
C1198 H1193 0.949 . S
C1198 C1204 1.368 . S
C1199 C1183 1.349 . S
C1199 H1191 0.950 . S
C1199 C1197 1.327 . S
C1200 C1188 1.349 . S
C1200 H1194 0.950 . S
C1200 C1201 1.327 . S
C1201 H1195 0.950 . S
C1201 C1200 1.327 . S
C1201 C1205 1.429 . S
C1202 C1185 1.574 . S
C1202 H1196 0.949 . S
C1202 C1206 1.368 . S
C1203 C1184 1.429 . S
C1203 C1197 1.429 . S
C1203 C1204 1.523 . S
C1204 C1185 1.368 . S
C1204 C1198 1.368 . S
C1204 C1203 1.523 . S
C1205 C1189 1.429 . S
C1205 C1201 1.429 . S
C1205 C1206 1.523 . S
C1206 C1190 1.368 . S
C1206 C1202 1.368 . S
C1206 C1205 1.523 . S
H1207 C1182 0.950 . S
H1208 C1184 0.950 . S
H1209 C1185 0.949 . S
H1210 C1187 0.950 . S
H1211 C1189 0.950 . S
C1212 C1213 1.349 . S
C1212 C1214 1.327 . S
C1212 H1237 0.950 . S
C1213 C1212 1.349 . S
C1213 C1229 1.349 . S
C1214 C1212 1.327 . S
C1214 C1233 1.429 . S
C1214 H1238 0.950 . S
C1215 C1232 1.574 . S
C1215 C1234 1.368 . S
C1215 H1239 0.949 . S
H1216 C1220 0.949 . S
C1217 C1218 1.349 . S
C1217 C1219 1.327 . S
C1217 H1240 0.950 . S
C1218 C1217 1.349 . S
C1218 C1230 1.349 . S
C1219 C1217 1.327 . S
C1219 C1235 1.429 . S
C1219 H1241 0.950 . S
C1220 H1216 0.949 . S
C1220 C1228 1.574 . S
C1220 C1236 1.368 . S
H1221 C1229 0.950 . S
H1222 C1227 0.950 . S
H1223 C1228 0.949 . S
H1224 C1230 0.950 . S
H1225 C1231 0.950 . S
H1226 C1232 0.949 . S
C1227 H1222 0.950 . S
C1227 C1229 1.327 . S
C1227 C1233 1.429 . S
C1228 C1220 1.574 . S
C1228 H1223 0.949 . S
C1228 C1234 1.368 . S
C1229 C1213 1.349 . S
C1229 H1221 0.950 . S
C1229 C1227 1.327 . S
C1230 C1218 1.349 . S
C1230 H1224 0.950 . S
C1230 C1231 1.327 . S
C1231 H1225 0.950 . S
C1231 C1230 1.327 . S
C1231 C1235 1.429 . S
C1232 C1215 1.574 . S
C1232 H1226 0.949 . S
C1232 C1236 1.368 . S
C1233 C1214 1.429 . S
C1233 C1227 1.429 . S
C1233 C1234 1.523 . S
C1234 C1215 1.368 . S
C1234 C1228 1.368 . S
C1234 C1233 1.523 . S
C1235 C1219 1.429 . S
C1235 C1231 1.429 . S
C1235 C1236 1.523 . S
C1236 C1220 1.368 . S
C1236 C1232 1.368 . S
C1236 C1235 1.523 . S
H1237 C1212 0.950 . S
H1238 C1214 0.950 . S
H1239 C1215 0.949 . S
H1240 C1217 0.950 . S
H1241 C1219 0.950 . S
C1242 C1243 1.349 . S
C1242 C1244 1.327 . S
C1242 H1267 0.950 . S
C1243 C1242 1.349 . S
C1243 C1259 1.349 . S
C1244 C1242 1.327 . S
C1244 C1263 1.429 . S
C1244 H1268 0.950 . S
C1245 C1262 1.574 . S
C1245 C1264 1.368 . S
C1245 H1269 0.949 . S
H1246 C1250 0.949 . S
C1247 C1248 1.349 . S
C1247 C1249 1.327 . S
C1247 H1270 0.950 1_655 S
C1248 C1247 1.349 . S
C1248 C1260 1.349 . S
C1249 C1247 1.327 . S
C1249 C1265 1.429 . S
C1249 H1271 0.950 . S
C1250 H1246 0.949 . S
C1250 C1258 1.574 . S
C1250 C1266 1.368 . S
H1251 C1259 0.950 . S
H1252 C1257 0.950 . S
H1253 C1258 0.949 . S
H1254 C1260 0.950 . S
H1255 C1261 0.950 . S
H1256 C1262 0.949 . S
C1257 H1252 0.950 . S
C1257 C1259 1.327 . S
C1257 C1263 1.429 . S
C1258 C1250 1.574 . S
C1258 H1253 0.949 . S
C1258 C1264 1.368 . S
C1259 C1243 1.349 . S
C1259 H1251 0.950 . S
C1259 C1257 1.327 . S
C1260 C1248 1.349 . S
C1260 H1254 0.950 . S
C1260 C1261 1.327 . S
C1261 H1255 0.950 . S
C1261 C1260 1.327 . S
C1261 C1265 1.429 . S
C1262 C1245 1.574 . S
C1262 H1256 0.949 . S
C1262 C1266 1.368 . S
C1263 C1244 1.429 . S
C1263 C1257 1.429 . S
C1263 C1264 1.523 . S
C1264 C1245 1.368 . S
C1264 C1258 1.368 . S
C1264 C1263 1.523 . S
C1265 C1249 1.429 . S
C1265 C1261 1.429 . S
C1265 C1266 1.523 . S
C1266 C1250 1.368 . S
C1266 C1262 1.368 . S
C1266 C1265 1.523 . S
H1267 C1242 0.950 . S
H1268 C1244 0.950 . S
H1269 C1245 0.949 . S
H1270 C1247 0.950 1_455 S
H1271 C1249 0.950 . S
C1272 C1273 1.349 . S
C1272 C1274 1.327 . S
C1272 H1297 0.950 . S
C1273 C1272 1.349 . S
C1273 C1289 1.349 . S
C1274 C1272 1.327 . S
C1274 C1293 1.429 . S
C1274 H1298 0.950 . S
C1275 C1292 1.574 . S
C1275 C1294 1.368 . S
C1275 H1299 0.949 . S
H1276 C1280 0.949 . S
C1277 C1278 1.349 . S
C1277 C1279 1.327 . S
C1277 H1300 0.950 . S
C1278 C1277 1.349 . S
C1278 C1290 1.349 . S
C1279 C1277 1.327 . S
C1279 C1295 1.429 1_545 S
C1279 H1301 0.950 . S
C1280 H1276 0.949 . S
C1280 C1288 1.574 . S
C1280 C1296 1.368 . S
H1281 C1289 0.950 . S
H1282 C1287 0.950 . S
H1283 C1288 0.949 . S
H1284 C1290 0.950 . S
H1285 C1291 0.950 . S
H1286 C1292 0.949 . S
C1287 H1282 0.950 . S
C1287 C1289 1.327 . S
C1287 C1293 1.429 . S
C1288 C1280 1.574 . S
C1288 H1283 0.949 . S
C1288 C1294 1.368 . S
C1289 C1273 1.349 . S
C1289 H1281 0.950 . S
C1289 C1287 1.327 . S
C1290 C1278 1.349 . S
C1290 H1284 0.950 . S
C1290 C1291 1.327 1_545 S
C1291 H1285 0.950 . S
C1291 C1290 1.327 1_565 S
C1291 C1295 1.429 . S
C1292 C1275 1.574 . S
C1292 H1286 0.949 . S
C1292 C1296 1.368 . S
C1293 C1274 1.429 . S
C1293 C1287 1.429 . S
C1293 C1294 1.523 . S
C1294 C1275 1.368 . S
C1294 C1288 1.368 . S
C1294 C1293 1.523 . S
C1295 C1279 1.429 1_565 S
C1295 C1291 1.429 . S
C1295 C1296 1.523 . S
C1296 C1280 1.368 . S
C1296 C1292 1.368 . S
C1296 C1295 1.523 . S
H1297 C1272 0.950 . S
H1298 C1274 0.950 . S
H1299 C1275 0.949 . S
H1300 C1277 0.950 . S
H1301 C1279 0.950 . S
C1302 C1303 1.349 . S
C1302 C1304 1.327 . S
C1302 H1327 0.950 . S
C1303 C1302 1.349 . S
C1303 C1319 1.349 . S
C1304 C1302 1.327 . S
C1304 C1323 1.429 . S
C1304 H1328 0.950 . S
C1305 C1322 1.574 . S
C1305 C1324 1.368 . S
C1305 H1329 0.949 . S
H1306 C1310 0.949 . S
C1307 C1308 1.349 . S
C1307 C1309 1.327 . S
C1307 H1330 0.950 . S
C1308 C1307 1.349 . S
C1308 C1320 1.349 . S
C1309 C1307 1.327 . S
C1309 C1325 1.429 . S
C1309 H1331 0.950 . S
C1310 H1306 0.949 . S
C1310 C1318 1.574 . S
C1310 C1326 1.368 . S
H1311 C1319 0.950 . S
H1312 C1317 0.950 . S
H1313 C1318 0.949 . S
H1314 C1320 0.950 . S
H1315 C1321 0.950 . S
H1316 C1322 0.949 . S
C1317 H1312 0.950 . S
C1317 C1319 1.327 . S
C1317 C1323 1.429 . S
C1318 C1310 1.574 . S
C1318 H1313 0.949 . S
C1318 C1324 1.368 . S
C1319 C1303 1.349 . S
C1319 H1311 0.950 . S
C1319 C1317 1.327 . S
C1320 C1308 1.349 . S
C1320 H1314 0.950 . S
C1320 C1321 1.327 . S
C1321 H1315 0.950 . S
C1321 C1320 1.327 . S
C1321 C1325 1.429 . S
C1322 C1305 1.574 . S
C1322 H1316 0.949 . S
C1322 C1326 1.368 . S
C1323 C1304 1.429 . S
C1323 C1317 1.429 . S
C1323 C1324 1.523 . S
C1324 C1305 1.368 . S
C1324 C1318 1.368 . S
C1324 C1323 1.523 . S
C1325 C1309 1.429 . S
C1325 C1321 1.429 . S
C1325 C1326 1.523 . S
C1326 C1310 1.368 . S
C1326 C1322 1.368 . S
C1326 C1325 1.523 . S
H1327 C1302 0.950 . S
H1328 C1304 0.950 . S
H1329 C1305 0.949 . S
H1330 C1307 0.950 . S
H1331 C1309 0.950 . S
C1332 C1333 1.349 . S
C1332 C1334 1.327 . S
C1332 H1357 0.950 . S
C1333 C1332 1.349 . S
C1333 C1349 1.349 . S
C1334 C1332 1.327 . S
C1334 C1353 1.429 . S
C1334 H1358 0.950 . S
C1335 C1352 1.574 . S
C1335 C1354 1.368 1_565 S
C1335 H1359 0.949 . S
H1336 C1340 0.953 . S
C1337 C1338 1.349 . S
C1337 C1339 1.327 1_554 S
C1337 H1360 0.950 1_554 S
C1338 C1337 1.349 . S
C1338 C1350 1.349 . S
C1339 C1337 1.327 1_556 S
C1339 C1355 1.429 1_556 S
C1339 H1361 0.950 . S
C1340 H1336 0.953 . S
C1340 C1348 1.574 1_564 S
C1340 C1356 1.368 1_554 S
H1341 C1349 0.950 . S
H1342 C1347 0.950 . S
H1343 C1348 0.949 1_554 S
H1344 C1350 0.950 . S
H1345 C1351 0.950 . S
H1346 C1352 0.949 . S
C1347 H1342 0.950 . S
C1347 C1349 1.327 . S
C1347 C1353 1.429 . S
C1348 C1340 1.574 1_546 S
C1348 H1343 0.949 1_556 S
C1348 C1354 1.368 . S
C1349 C1333 1.349 . S
C1349 H1341 0.950 . S
C1349 C1347 1.327 . S
C1350 C1338 1.349 . S
C1350 H1344 0.950 . S
C1350 C1351 1.327 . S
C1351 H1345 0.950 . S
C1351 C1350 1.327 . S
C1351 C1355 1.429 . S
C1352 C1335 1.574 . S
C1352 H1346 0.949 . S
C1352 C1356 1.368 . S
C1353 C1334 1.429 . S
C1353 C1347 1.429 . S
C1353 C1354 1.523 . S
C1354 C1335 1.368 1_545 S
C1354 C1348 1.368 . S
C1354 C1353 1.523 . S
C1355 C1339 1.429 1_554 S
C1355 C1351 1.429 . S
C1355 C1356 1.523 1_554 S
C1356 C1340 1.368 1_556 S
C1356 C1352 1.368 . S
C1356 C1355 1.523 1_556 S
H1357 C1332 0.950 . S
H1358 C1334 0.950 . S
H1359 C1335 0.949 . S
H1360 C1337 0.950 1_556 S
H1361 C1339 0.950 . S
C1362 C1363 1.349 . S
C1362 C1364 1.327 . S
C1362 H1387 0.950 . S
C1363 C1362 1.349 . S
C1363 C1379 1.349 . S
C1364 C1362 1.327 . S
C1364 C1383 1.429 . S
C1364 H1388 0.950 . S
C1365 C1382 1.574 . S
C1365 C1384 1.368 . S
C1365 H1389 0.949 . S
H1366 C1370 0.949 . S
C1367 C1368 1.349 . S
C1367 C1369 1.327 . S
C1367 H1390 0.950 . S
C1368 C1367 1.349 . S
C1368 C1380 1.349 . S
C1369 C1367 1.327 . S
C1369 C1385 1.429 . S
C1369 H1391 0.950 . S
C1370 H1366 0.949 . S
C1370 C1378 1.574 . S
C1370 C1386 1.368 . S
H1371 C1379 0.950 . S
H1372 C1377 0.950 . S
H1373 C1378 0.949 . S
H1374 C1380 0.950 . S
H1375 C1381 0.950 . S
H1376 C1382 0.949 . S
C1377 H1372 0.950 . S
C1377 C1379 1.327 . S
C1377 C1383 1.429 . S
C1378 C1370 1.574 . S
C1378 H1373 0.949 . S
C1378 C1384 1.368 . S
C1379 C1363 1.349 . S
C1379 H1371 0.950 . S
C1379 C1377 1.327 . S
C1380 C1368 1.349 . S
C1380 H1374 0.950 . S
C1380 C1381 1.327 . S
C1381 H1375 0.950 . S
C1381 C1380 1.327 . S
C1381 C1385 1.429 . S
C1382 C1365 1.574 . S
C1382 H1376 0.949 . S
C1382 C1386 1.368 . S
C1383 C1364 1.429 . S
C1383 C1377 1.429 . S
C1383 C1384 1.523 . S
C1384 C1365 1.368 . S
C1384 C1378 1.368 . S
C1384 C1383 1.523 . S
C1385 C1369 1.429 . S
C1385 C1381 1.429 . S
C1385 C1386 1.523 . S
C1386 C1370 1.368 . S
C1386 C1382 1.368 . S
C1386 C1385 1.523 . S
H1387 C1362 0.950 . S
H1388 C1364 0.950 . S
H1389 C1365 0.949 . S
H1390 C1367 0.950 . S
H1391 C1369 0.950 . S
C1392 C1393 1.349 . S
C1392 C1394 1.327 . S
C1392 H1417 0.950 1_545 S
C1393 C1392 1.349 . S
C1393 C1409 1.349 . S
C1394 C1392 1.327 . S
C1394 C1413 1.429 . S
C1394 H1418 0.950 . S
C1395 C1412 1.574 . S
C1395 C1414 1.368 . S
C1395 H1419 0.949 . S
H1396 C1400 0.949 . S
C1397 C1398 1.349 . S
C1397 C1399 1.327 . S
C1397 H1420 0.950 . S
C1398 C1397 1.349 . S
C1398 C1410 1.349 . S
C1399 C1397 1.327 . S
C1399 C1415 1.429 . S
C1399 H1421 0.950 . S
C1400 H1396 0.949 . S
C1400 C1408 1.574 . S
C1400 C1416 1.368 . S
H1401 C1409 0.950 . S
H1402 C1407 0.950 . S
H1403 C1408 0.949 . S
H1404 C1410 0.950 . S
H1405 C1411 0.950 . S
H1406 C1412 0.949 . S
C1407 H1402 0.950 . S
C1407 C1409 1.327 . S
C1407 C1413 1.429 . S
C1408 C1400 1.574 . S
C1408 H1403 0.949 . S
C1408 C1414 1.368 . S
C1409 C1393 1.349 . S
C1409 H1401 0.950 . S
C1409 C1407 1.327 . S
C1410 C1398 1.349 . S
C1410 H1404 0.950 . S
C1410 C1411 1.327 . S
C1411 H1405 0.950 . S
C1411 C1410 1.327 . S
C1411 C1415 1.429 . S
C1412 C1395 1.574 . S
C1412 H1406 0.949 . S
C1412 C1416 1.368 . S
C1413 C1394 1.429 . S
C1413 C1407 1.429 . S
C1413 C1414 1.523 . S
C1414 C1395 1.368 . S
C1414 C1408 1.368 . S
C1414 C1413 1.523 . S
C1415 C1399 1.429 . S
C1415 C1411 1.429 . S
C1415 C1416 1.523 . S
C1416 C1400 1.368 . S
C1416 C1412 1.368 . S
C1416 C1415 1.523 . S
H1417 C1392 0.950 1_565 S
H1418 C1394 0.950 . S
H1419 C1395 0.949 . S
H1420 C1397 0.950 . S
H1421 C1399 0.950 . S
C1422 C1423 1.349 . S
C1422 C1424 1.327 . S
C1422 H1447 0.950 . S
C1423 C1422 1.349 . S
C1423 C1439 1.349 . S
C1424 C1422 1.327 . S
C1424 C1443 1.429 . S
C1424 H1448 0.950 . S
C1425 C1442 1.574 . S
C1425 C1444 1.368 . S
C1425 H1449 0.949 . S
H1426 C1430 0.949 . S
C1427 C1428 1.349 . S
C1427 C1429 1.327 . S
C1427 H1450 0.950 . S
C1428 C1427 1.349 . S
C1428 C1440 1.349 . S
C1429 C1427 1.327 . S
C1429 C1445 1.429 . S
C1429 H1451 0.950 . S
C1430 H1426 0.949 . S
C1430 C1438 1.574 . S
C1430 C1446 1.368 . S
H1431 C1439 0.950 . S
H1432 C1437 0.950 . S
H1433 C1438 0.949 . S
H1434 C1440 0.950 . S
H1435 C1441 0.950 . S
H1436 C1442 0.949 . S
C1437 H1432 0.950 . S
C1437 C1439 1.327 . S
C1437 C1443 1.429 . S
C1438 C1430 1.574 . S
C1438 H1433 0.949 . S
C1438 C1444 1.368 . S
C1439 C1423 1.349 . S
C1439 H1431 0.950 . S
C1439 C1437 1.327 . S
C1440 C1428 1.349 . S
C1440 H1434 0.950 . S
C1440 C1441 1.327 . S
C1441 H1435 0.950 . S
C1441 C1440 1.327 . S
C1441 C1445 1.429 . S
C1442 C1425 1.574 . S
C1442 H1436 0.949 . S
C1442 C1446 1.368 . S
C1443 C1424 1.429 . S
C1443 C1437 1.429 . S
C1443 C1444 1.523 . S
C1444 C1425 1.368 . S
C1444 C1438 1.368 . S
C1444 C1443 1.523 . S
C1445 C1429 1.429 . S
C1445 C1441 1.429 . S
C1445 C1446 1.523 . S
C1446 C1430 1.368 . S
C1446 C1442 1.368 . S
C1446 C1445 1.523 . S
H1447 C1422 0.950 . S
H1448 C1424 0.950 . S
H1449 C1425 0.949 . S
H1450 C1427 0.950 . S
H1451 C1429 0.950 . S
C1452 C1453 1.349 . S
C1452 C1454 1.327 . S
C1452 H1477 0.950 . S
C1453 C1452 1.349 . S
C1453 C1469 1.349 . S
C1454 C1452 1.327 . S
C1454 C1473 1.429 1_565 S
C1454 H1478 0.950 . S
C1455 C1472 1.574 . S
C1455 C1474 1.368 . S
C1455 H1479 0.949 . S
H1456 C1460 0.949 . S
C1457 C1458 1.349 . S
C1457 C1459 1.327 . S
C1457 H1480 0.950 . S
C1458 C1457 1.349 . S
C1458 C1470 1.349 . S
C1459 C1457 1.327 . S
C1459 C1475 1.429 . S
C1459 H1481 0.950 . S
C1460 H1456 0.949 . S
C1460 C1468 1.574 . S
C1460 C1476 1.368 . S
H1461 C1469 0.950 . S
H1462 C1467 0.950 . S
H1463 C1468 0.949 . S
H1464 C1470 0.950 . S
H1465 C1471 0.950 . S
H1466 C1472 0.949 . S
C1467 H1462 0.950 . S
C1467 C1469 1.327 1_545 S
C1467 C1473 1.429 . S
C1468 C1460 1.574 . S
C1468 H1463 0.949 . S
C1468 C1474 1.368 . S
C1469 C1453 1.349 . S
C1469 H1461 0.950 . S
C1469 C1467 1.327 1_565 S
C1470 C1458 1.349 . S
C1470 H1464 0.950 . S
C1470 C1471 1.327 . S
C1471 H1465 0.950 . S
C1471 C1470 1.327 . S
C1471 C1475 1.429 . S
C1472 C1455 1.574 . S
C1472 H1466 0.949 . S
C1472 C1476 1.368 . S
C1473 C1454 1.429 1_545 S
C1473 C1467 1.429 . S
C1473 C1474 1.523 . S
C1474 C1455 1.368 . S
C1474 C1468 1.368 . S
C1474 C1473 1.523 . S
C1475 C1459 1.429 . S
C1475 C1471 1.429 . S
C1475 C1476 1.523 . S
C1476 C1460 1.368 . S
C1476 C1472 1.368 . S
C1476 C1475 1.523 . S
H1477 C1452 0.950 . S
H1478 C1454 0.950 . S
H1479 C1455 0.949 . S
H1480 C1457 0.950 . S
H1481 C1459 0.950 . S
C1482 C1483 1.349 . S
C1482 C1484 1.327 . S
C1482 H1507 0.950 . S
C1483 C1482 1.349 . S
C1483 C1499 1.349 . S
C1484 C1482 1.327 . S
C1484 C1503 1.429 . S
C1484 H1508 0.950 . S
C1485 C1502 1.574 . S
C1485 C1504 1.368 . S
C1485 H1509 0.949 . S
H1486 C1490 0.949 . S
C1487 C1488 1.349 . S
C1487 C1489 1.327 . S
C1487 H1510 0.950 . S
C1488 C1487 1.349 . S
C1488 C1500 1.349 . S
C1489 C1487 1.327 . S
C1489 C1505 1.429 . S
C1489 H1511 0.950 . S
C1490 H1486 0.949 . S
C1490 C1498 1.574 . S
C1490 C1506 1.368 . S
H1491 C1499 0.950 . S
H1492 C1497 0.950 . S
H1493 C1498 0.949 . S
H1494 C1500 0.950 . S
H1495 C1501 0.950 . S
H1496 C1502 0.949 . S
C1497 H1492 0.950 . S
C1497 C1499 1.327 . S
C1497 C1503 1.429 . S
C1498 C1490 1.574 . S
C1498 H1493 0.949 . S
C1498 C1504 1.368 . S
C1499 C1483 1.349 . S
C1499 H1491 0.950 . S
C1499 C1497 1.327 . S
C1500 C1488 1.349 . S
C1500 H1494 0.950 . S
C1500 C1501 1.327 . S
C1501 H1495 0.950 . S
C1501 C1500 1.327 . S
C1501 C1505 1.429 . S
C1502 C1485 1.574 . S
C1502 H1496 0.949 . S
C1502 C1506 1.368 . S
C1503 C1484 1.429 . S
C1503 C1497 1.429 . S
C1503 C1504 1.523 . S
C1504 C1485 1.368 . S
C1504 C1498 1.368 . S
C1504 C1503 1.523 . S
C1505 C1489 1.429 . S
C1505 C1501 1.429 . S
C1505 C1506 1.523 . S
C1506 C1490 1.368 . S
C1506 C1502 1.368 . S
C1506 C1505 1.523 . S
H1507 C1482 0.950 . S
H1508 C1484 0.950 . S
H1509 C1485 0.949 . S
H1510 C1487 0.950 . S
H1511 C1489 0.950 . S
C1512 C1513 1.349 . S
C1512 C1514 1.327 . S
C1512 H1537 0.950 . S
C1513 C1512 1.349 . S
C1513 C1529 1.349 . S
C1514 C1512 1.327 . S
C1514 C1533 1.429 . S
C1514 H1538 0.950 . S
C1515 C1532 1.574 . S
C1515 C1534 1.368 . S
C1515 H1539 0.949 . S
H1516 C1520 0.949 . S
C1517 C1518 1.349 . S
C1517 C1519 1.327 . S
C1517 H1540 0.950 . S
C1518 C1517 1.349 . S
C1518 C1530 1.349 . S
C1519 C1517 1.327 . S
C1519 C1535 1.429 . S
C1519 H1541 0.950 . S
C1520 H1516 0.949 . S
C1520 C1528 1.574 . S
C1520 C1536 1.368 . S
H1521 C1529 0.950 . S
H1522 C1527 0.950 . S
H1523 C1528 0.949 . S
H1524 C1530 0.950 . S
H1525 C1531 0.950 . S
H1526 C1532 0.949 . S
C1527 H1522 0.950 . S
C1527 C1529 1.327 . S
C1527 C1533 1.429 . S
C1528 C1520 1.574 . S
C1528 H1523 0.949 . S
C1528 C1534 1.368 . S
C1529 C1513 1.349 . S
C1529 H1521 0.950 . S
C1529 C1527 1.327 . S
C1530 C1518 1.349 . S
C1530 H1524 0.950 . S
C1530 C1531 1.327 . S
C1531 H1525 0.950 . S
C1531 C1530 1.327 . S
C1531 C1535 1.429 . S
C1532 C1515 1.574 . S
C1532 H1526 0.949 . S
C1532 C1536 1.368 . S
C1533 C1514 1.429 . S
C1533 C1527 1.429 . S
C1533 C1534 1.523 . S
C1534 C1515 1.368 . S
C1534 C1528 1.368 . S
C1534 C1533 1.523 . S
C1535 C1519 1.429 . S
C1535 C1531 1.429 . S
C1535 C1536 1.523 . S
C1536 C1520 1.368 . S
C1536 C1532 1.368 . S
C1536 C1535 1.523 . S
H1537 C1512 0.950 . S
H1538 C1514 0.950 . S
H1539 C1515 0.949 . S
H1540 C1517 0.950 . S
H1541 C1519 0.950 . S
C1542 C1543 1.349 . S
C1542 C1544 1.327 . S
C1542 H1567 0.950 . S
C1543 C1542 1.349 . S
C1543 C1559 1.349 . S
C1544 C1542 1.327 . S
C1544 C1563 1.429 . S
C1544 H1568 0.950 . S
C1545 C1562 1.574 . S
C1545 C1564 1.368 . S
C1545 H1569 0.949 . S
H1546 C1550 0.949 . S
C1547 C1548 1.349 . S
C1547 C1549 1.327 . S
C1547 H1570 0.950 . S
C1548 C1547 1.349 . S
C1548 C1560 1.349 . S
C1549 C1547 1.327 . S
C1549 C1565 1.429 . S
C1549 H1571 0.950 . S
C1550 H1546 0.949 . S
C1550 C1558 1.574 . S
C1550 C1566 1.368 . S
H1551 C1559 0.950 . S
H1552 C1557 0.950 . S
H1553 C1558 0.949 . S
H1554 C1560 0.950 . S
H1555 C1561 0.950 . S
H1556 C1562 0.949 . S
C1557 H1552 0.950 . S
C1557 C1559 1.327 . S
C1557 C1563 1.429 . S
C1558 C1550 1.574 . S
C1558 H1553 0.949 . S
C1558 C1564 1.368 . S
C1559 C1543 1.349 . S
C1559 H1551 0.950 . S
C1559 C1557 1.327 . S
C1560 C1548 1.349 . S
C1560 H1554 0.950 . S
C1560 C1561 1.327 . S
C1561 H1555 0.950 . S
C1561 C1560 1.327 . S
C1561 C1565 1.429 . S
C1562 C1545 1.574 . S
C1562 H1556 0.949 . S
C1562 C1566 1.368 . S
C1563 C1544 1.429 . S
C1563 C1557 1.429 . S
C1563 C1564 1.523 . S
C1564 C1545 1.368 . S
C1564 C1558 1.368 . S
C1564 C1563 1.523 . S
C1565 C1549 1.429 . S
C1565 C1561 1.429 . S
C1565 C1566 1.523 . S
C1566 C1550 1.368 . S
C1566 C1562 1.368 . S
C1566 C1565 1.523 . S
H1567 C1542 0.950 . S
H1568 C1544 0.950 . S
H1569 C1545 0.949 . S
H1570 C1547 0.950 . S
H1571 C1549 0.950 . S
C1572 C1573 1.349 . S
C1572 C1574 1.327 . S
C1572 H1597 0.950 . S
C1573 C1572 1.349 . S
C1573 C1589 1.349 . S
C1574 C1572 1.327 . S
C1574 C1593 1.429 . S
C1574 H1598 0.950 . S
C1575 C1592 1.574 . S
C1575 C1594 1.368 . S
C1575 H1599 0.949 . S
H1576 C1580 0.949 . S
C1577 C1578 1.349 . S
C1577 C1579 1.327 . S
C1577 H1600 0.950 . S
C1578 C1577 1.349 . S
C1578 C1590 1.349 . S
C1579 C1577 1.327 . S
C1579 C1595 1.429 . S
C1579 H1601 0.950 . S
C1580 H1576 0.949 . S
C1580 C1588 1.574 . S
C1580 C1596 1.368 . S
H1581 C1589 0.950 . S
H1582 C1587 0.950 . S
H1583 C1588 0.949 . S
H1584 C1590 0.950 . S
H1585 C1591 0.950 . S
H1586 C1592 0.949 . S
C1587 H1582 0.950 . S
C1587 C1589 1.327 . S
C1587 C1593 1.429 . S
C1588 C1580 1.574 . S
C1588 H1583 0.949 . S
C1588 C1594 1.368 . S
C1589 C1573 1.349 . S
C1589 H1581 0.950 . S
C1589 C1587 1.327 . S
C1590 C1578 1.349 . S
C1590 H1584 0.950 . S
C1590 C1591 1.327 . S
C1591 H1585 0.950 . S
C1591 C1590 1.327 . S
C1591 C1595 1.429 . S
C1592 C1575 1.574 . S
C1592 H1586 0.949 . S
C1592 C1596 1.368 . S
C1593 C1574 1.429 . S
C1593 C1587 1.429 . S
C1593 C1594 1.523 . S
C1594 C1575 1.368 . S
C1594 C1588 1.368 . S
C1594 C1593 1.523 . S
C1595 C1579 1.429 . S
C1595 C1591 1.429 . S
C1595 C1596 1.523 . S
C1596 C1580 1.368 . S
C1596 C1592 1.368 . S
C1596 C1595 1.523 . S
H1597 C1572 0.950 . S
H1598 C1574 0.950 . S
H1599 C1575 0.949 . S
H1600 C1577 0.950 . S
H1601 C1579 0.950 . S
C1602 C1603 1.349 . S
C1602 C1604 1.327 . S
C1602 H1627 0.950 . S
C1603 C1602 1.349 . S
C1603 C1619 1.349 . S
C1604 C1602 1.327 . S
C1604 C1623 1.429 . S
C1604 H1628 0.950 . S
C1605 C1622 1.574 . S
C1605 C1624 1.368 . S
C1605 H1629 0.949 . S
H1606 C1610 0.949 . S
C1607 C1608 1.349 . S
C1607 C1609 1.327 . S
C1607 H1630 0.950 . S
C1608 C1607 1.349 . S
C1608 C1620 1.349 . S
C1609 C1607 1.327 . S
C1609 C1625 1.429 . S
C1609 H1631 0.950 . S
C1610 H1606 0.949 . S
C1610 C1618 1.574 . S
C1610 C1626 1.368 . S
H1611 C1619 0.950 . S
H1612 C1617 0.950 . S
H1613 C1618 0.949 . S
H1614 C1620 0.950 . S
H1615 C1621 0.950 . S
H1616 C1622 0.949 . S
C1617 H1612 0.950 . S
C1617 C1619 1.327 . S
C1617 C1623 1.429 . S
C1618 C1610 1.574 . S
C1618 H1613 0.949 . S
C1618 C1624 1.368 . S
C1619 C1603 1.349 . S
C1619 H1611 0.950 . S
C1619 C1617 1.327 . S
C1620 C1608 1.349 . S
C1620 H1614 0.950 . S
C1620 C1621 1.327 . S
C1621 H1615 0.950 . S
C1621 C1620 1.327 . S
C1621 C1625 1.429 . S
C1622 C1605 1.574 . S
C1622 H1616 0.949 . S
C1622 C1626 1.368 . S
C1623 C1604 1.429 . S
C1623 C1617 1.429 . S
C1623 C1624 1.523 . S
C1624 C1605 1.368 . S
C1624 C1618 1.368 . S
C1624 C1623 1.523 . S
C1625 C1609 1.429 . S
C1625 C1621 1.429 . S
C1625 C1626 1.523 . S
C1626 C1610 1.368 . S
C1626 C1622 1.368 . S
C1626 C1625 1.523 . S
H1627 C1602 0.950 . S
H1628 C1604 0.950 . S
H1629 C1605 0.949 . S
H1630 C1607 0.950 . S
H1631 C1609 0.950 . S
C1632 C1633 1.349 . S
C1632 C1634 1.327 . S
C1632 H1657 0.950 . S
C1633 C1632 1.349 . S
C1633 C1649 1.349 . S
C1634 C1632 1.327 . S
C1634 C1653 1.429 . S
C1634 H1658 0.950 . S
C1635 C1652 1.574 . S
C1635 C1654 1.368 . S
C1635 H1659 0.949 . S
H1636 C1640 0.949 . S
C1637 C1638 1.349 . S
C1637 C1639 1.327 . S
C1637 H1660 0.950 . S
C1638 C1637 1.349 . S
C1638 C1650 1.349 . S
C1639 C1637 1.327 . S
C1639 C1655 1.429 . S
C1639 H1661 0.950 . S
C1640 H1636 0.949 . S
C1640 C1648 1.574 . S
C1640 C1656 1.368 . S
H1641 C1649 0.950 . S
H1642 C1647 0.950 . S
H1643 C1648 0.949 . S
H1644 C1650 0.950 . S
H1645 C1651 0.950 . S
H1646 C1652 0.949 . S
C1647 H1642 0.950 . S
C1647 C1649 1.327 . S
C1647 C1653 1.429 . S
C1648 C1640 1.574 . S
C1648 H1643 0.949 . S
C1648 C1654 1.368 . S
C1649 C1633 1.349 . S
C1649 H1641 0.950 . S
C1649 C1647 1.327 . S
C1650 C1638 1.349 . S
C1650 H1644 0.950 . S
C1650 C1651 1.327 . S
C1651 H1645 0.950 . S
C1651 C1650 1.327 . S
C1651 C1655 1.429 . S
C1652 C1635 1.574 . S
C1652 H1646 0.949 . S
C1652 C1656 1.368 . S
C1653 C1634 1.429 . S
C1653 C1647 1.429 . S
C1653 C1654 1.523 . S
C1654 C1635 1.368 . S
C1654 C1648 1.368 . S
C1654 C1653 1.523 . S
C1655 C1639 1.429 . S
C1655 C1651 1.429 . S
C1655 C1656 1.523 . S
C1656 C1640 1.368 . S
C1656 C1652 1.368 . S
C1656 C1655 1.523 . S
H1657 C1632 0.950 . S
H1658 C1634 0.950 . S
H1659 C1635 0.949 . S
H1660 C1637 0.950 . S
H1661 C1639 0.950 . S
C1662 C1663 1.349 . S
C1662 C1664 1.327 . S
C1662 H1687 0.950 . S
C1663 C1662 1.349 . S
C1663 C1679 1.349 . S
C1664 C1662 1.327 . S
C1664 C1683 1.429 . S
C1664 H1688 0.950 . S
C1665 C1682 1.574 . S
C1665 C1684 1.368 1_655 S
C1665 H1689 0.949 . S
H1666 C1670 0.949 . S
C1667 C1668 1.349 . S
C1667 C1669 1.327 . S
C1667 H1690 0.950 . S
C1668 C1667 1.349 . S
C1668 C1680 1.349 . S
C1669 C1667 1.327 . S
C1669 C1685 1.429 . S
C1669 H1691 0.950 . S
C1670 H1666 0.949 . S
C1670 C1678 1.574 1_655 S
C1670 C1686 1.368 . S
H1671 C1679 0.950 . S
H1672 C1677 0.950 . S
H1673 C1678 0.949 . S
H1674 C1680 0.950 . S
H1675 C1681 0.950 . S
H1676 C1682 0.949 . S
C1677 H1672 0.950 . S
C1677 C1679 1.327 . S
C1677 C1683 1.429 . S
C1678 C1670 1.574 1_455 S
C1678 H1673 0.949 . S
C1678 C1684 1.368 . S
C1679 C1663 1.349 . S
C1679 H1671 0.950 . S
C1679 C1677 1.327 . S
C1680 C1668 1.349 . S
C1680 H1674 0.950 . S
C1680 C1681 1.327 . S
C1681 H1675 0.950 . S
C1681 C1680 1.327 . S
C1681 C1685 1.429 . S
C1682 C1665 1.574 . S
C1682 H1676 0.949 . S
C1682 C1686 1.368 . S
C1683 C1664 1.429 . S
C1683 C1677 1.429 . S
C1683 C1684 1.523 . S
C1684 C1665 1.368 1_455 S
C1684 C1678 1.368 . S
C1684 C1683 1.523 . S
C1685 C1669 1.429 . S
C1685 C1681 1.429 . S
C1685 C1686 1.523 . S
C1686 C1670 1.368 . S
C1686 C1682 1.368 . S
C1686 C1685 1.523 . S
H1687 C1662 0.950 . S
H1688 C1664 0.950 . S
H1689 C1665 0.949 . S
H1690 C1667 0.950 . S
H1691 C1669 0.950 . S
C1692 C1693 1.349 . S
C1692 C1694 1.327 . S
C1692 H1717 0.950 . S
C1693 C1692 1.349 . S
C1693 C1709 1.349 . S
C1694 C1692 1.327 . S
C1694 C1713 1.429 . S
C1694 H1718 0.950 . S
C1695 C1712 1.574 . S
C1695 C1714 1.368 . S
C1695 H1719 0.949 . S
H1696 C1700 0.949 . S
C1697 C1698 1.349 . S
C1697 C1699 1.327 . S
C1697 H1720 0.950 . S
C1698 C1697 1.349 . S
C1698 C1710 1.349 . S
C1699 C1697 1.327 . S
C1699 C1715 1.429 . S
C1699 H1721 0.950 . S
C1700 H1696 0.949 . S
C1700 C1708 1.574 . S
C1700 C1716 1.368 . S
H1701 C1709 0.950 . S
H1702 C1707 0.950 . S
H1703 C1708 0.949 . S
H1704 C1710 0.950 . S
H1705 C1711 0.950 . S
H1706 C1712 0.949 . S
C1707 H1702 0.950 . S
C1707 C1709 1.327 . S
C1707 C1713 1.429 . S
C1708 C1700 1.574 . S
C1708 H1703 0.949 . S
C1708 C1714 1.368 . S
C1709 C1693 1.349 . S
C1709 H1701 0.950 . S
C1709 C1707 1.327 . S
C1710 C1698 1.349 . S
C1710 H1704 0.950 . S
C1710 C1711 1.327 . S
C1711 H1705 0.950 . S
C1711 C1710 1.327 . S
C1711 C1715 1.429 . S
C1712 C1695 1.574 . S
C1712 H1706 0.949 . S
C1712 C1716 1.368 . S
C1713 C1694 1.429 . S
C1713 C1707 1.429 . S
C1713 C1714 1.523 . S
C1714 C1695 1.368 . S
C1714 C1708 1.368 . S
C1714 C1713 1.523 . S
C1715 C1699 1.429 . S
C1715 C1711 1.429 . S
C1715 C1716 1.523 . S
C1716 C1700 1.368 . S
C1716 C1712 1.368 . S
C1716 C1715 1.523 . S
H1717 C1692 0.950 . S
H1718 C1694 0.950 . S
H1719 C1695 0.949 . S
H1720 C1697 0.950 . S
H1721 C1699 0.950 . S
C1722 C1723 1.349 . S
C1722 C1724 1.327 . S
C1722 H1747 0.950 . S
C1723 C1722 1.349 . S
C1723 C1739 1.349 . S
C1724 C1722 1.327 . S
C1724 C1743 1.429 . S
C1724 H1748 0.950 . S
C1725 C1742 1.574 . S
C1725 C1744 1.368 1_455 S
C1725 H1749 0.949 . S
H1726 C1730 0.949 . S
C1727 C1728 1.349 . S
C1727 C1729 1.327 . S
C1727 H1750 0.950 . S
C1728 C1727 1.349 . S
C1728 C1740 1.349 . S
C1729 C1727 1.327 . S
C1729 C1745 1.429 . S
C1729 H1751 0.950 . S
C1730 H1726 0.949 . S
C1730 C1738 1.574 1_455 S
C1730 C1746 1.368 . S
H1731 C1739 0.950 . S
H1732 C1737 0.950 . S
H1733 C1738 0.949 . S
H1734 C1740 0.950 . S
H1735 C1741 0.950 . S
H1736 C1742 0.949 . S
C1737 H1732 0.950 . S
C1737 C1739 1.327 . S
C1737 C1743 1.429 . S
C1738 C1730 1.574 1_655 S
C1738 H1733 0.949 . S
C1738 C1744 1.368 . S
C1739 C1723 1.349 . S
C1739 H1731 0.950 . S
C1739 C1737 1.327 . S
C1740 C1728 1.349 . S
C1740 H1734 0.950 . S
C1740 C1741 1.327 . S
C1741 H1735 0.950 . S
C1741 C1740 1.327 . S
C1741 C1745 1.429 . S
C1742 C1725 1.574 . S
C1742 H1736 0.949 . S
C1742 C1746 1.368 . S
C1743 C1724 1.429 . S
C1743 C1737 1.429 . S
C1743 C1744 1.523 . S
C1744 C1725 1.368 1_655 S
C1744 C1738 1.368 . S
C1744 C1743 1.523 . S
C1745 C1729 1.429 . S
C1745 C1741 1.429 . S
C1745 C1746 1.523 . S
C1746 C1730 1.368 . S
C1746 C1742 1.368 . S
C1746 C1745 1.523 . S
H1747 C1722 0.950 . S
H1748 C1724 0.950 . S
H1749 C1725 0.949 . S
H1750 C1727 0.950 . S
H1751 C1729 0.950 . S
C1752 C1753 1.349 . S
C1752 C1754 1.327 . S
C1752 H1777 0.950 . S
C1753 C1752 1.349 . S
C1753 C1769 1.349 . S
C1754 C1752 1.327 . S
C1754 C1773 1.429 . S
C1754 H1778 0.950 . S
C1755 C1772 1.574 . S
C1755 C1774 1.368 . S
C1755 H1779 0.949 . S
H1756 C1760 0.949 . S
C1757 C1758 1.349 . S
C1757 C1759 1.327 . S
C1757 H1780 0.950 . S
C1758 C1757 1.349 . S
C1758 C1770 1.349 . S
C1759 C1757 1.327 . S
C1759 C1775 1.429 . S
C1759 H1781 0.950 . S
C1760 H1756 0.949 . S
C1760 C1768 1.574 . S
C1760 C1776 1.368 . S
H1761 C1769 0.950 . S
H1762 C1767 0.950 . S
H1763 C1768 0.949 . S
H1764 C1770 0.950 . S
H1765 C1771 0.950 . S
H1766 C1772 0.949 . S
C1767 H1762 0.950 . S
C1767 C1769 1.327 . S
C1767 C1773 1.429 . S
C1768 C1760 1.574 . S
C1768 H1763 0.949 . S
C1768 C1774 1.368 . S
C1769 C1753 1.349 . S
C1769 H1761 0.950 . S
C1769 C1767 1.327 . S
C1770 C1758 1.349 . S
C1770 H1764 0.950 . S
C1770 C1771 1.327 . S
C1771 H1765 0.950 . S
C1771 C1770 1.327 . S
C1771 C1775 1.429 . S
C1772 C1755 1.574 . S
C1772 H1766 0.949 . S
C1772 C1776 1.368 . S
C1773 C1754 1.429 . S
C1773 C1767 1.429 . S
C1773 C1774 1.523 . S
C1774 C1755 1.368 . S
C1774 C1768 1.368 . S
C1774 C1773 1.523 . S
C1775 C1759 1.429 . S
C1775 C1771 1.429 . S
C1775 C1776 1.523 . S
C1776 C1760 1.368 . S
C1776 C1772 1.368 . S
C1776 C1775 1.523 . S
H1777 C1752 0.950 . S
H1778 C1754 0.950 . S
H1779 C1755 0.949 . S
H1780 C1757 0.950 . S
H1781 C1759 0.950 . S
C1782 C1783 1.349 . S
C1782 C1784 1.327 . S
C1782 H1807 0.950 . S
C1783 C1782 1.349 . S
C1783 C1799 1.349 . S
C1784 C1782 1.327 . S
C1784 C1803 1.429 . S
C1784 H1808 0.950 1_554 S
C1785 C1802 1.574 . S
C1785 C1804 1.368 . S
C1785 H1809 0.918 1_556 S
H1786 C1790 0.949 . S
C1787 C1788 1.349 . S
C1787 C1789 1.327 . S
C1787 H1810 0.950 1_655 S
C1788 C1787 1.349 . S
C1788 C1800 1.349 . S
C1789 C1787 1.327 . S
C1789 C1805 1.429 . S
C1789 H1811 0.950 . S
C1790 H1786 0.949 . S
C1790 C1798 1.574 . S
C1790 C1806 1.368 . S
H1791 C1799 0.950 . S
H1792 C1797 0.950 . S
H1793 C1798 0.949 . S
H1794 C1800 0.950 . S
H1795 C1801 0.950 . S
H1796 C1802 0.949 . S
C1797 H1792 0.950 . S
C1797 C1799 1.327 . S
C1797 C1803 1.429 . S
C1798 C1790 1.574 . S
C1798 H1793 0.949 . S
C1798 C1804 1.368 . S
C1799 C1783 1.349 . S
C1799 H1791 0.950 . S
C1799 C1797 1.327 . S
C1800 C1788 1.349 . S
C1800 H1794 0.950 . S
C1800 C1801 1.327 . S
C1801 H1795 0.950 . S
C1801 C1800 1.327 . S
C1801 C1805 1.429 . S
C1802 C1785 1.574 . S
C1802 H1796 0.949 . S
C1802 C1806 1.368 . S
C1803 C1784 1.429 . S
C1803 C1797 1.429 . S
C1803 C1804 1.523 1_554 S
C1804 C1785 1.368 . S
C1804 C1798 1.368 . S
C1804 C1803 1.523 1_556 S
C1805 C1789 1.429 . S
C1805 C1801 1.429 . S
C1805 C1806 1.523 . S
C1806 C1790 1.368 . S
C1806 C1802 1.368 . S
C1806 C1805 1.523 . S
H1807 C1782 0.950 . S
H1808 C1784 0.950 1_556 S
H1809 C1785 0.918 1_554 S
H1810 C1787 0.950 1_455 S
H1811 C1789 0.950 . S
C1812 C1813 1.349 . S
C1812 C1814 1.327 . S
C1812 H1837 0.950 . S
C1813 C1812 1.349 . S
C1813 C1829 1.349 . S
C1814 C1812 1.327 . S
C1814 C1833 1.429 . S
C1814 H1838 0.950 . S
C1815 C1832 1.574 . S
C1815 C1834 1.368 . S
C1815 H1839 0.949 . S
H1816 C1820 0.949 . S
C1817 C1818 1.349 . S
C1817 C1819 1.327 . S
C1817 H1840 0.950 . S
C1818 C1817 1.349 . S
C1818 C1830 1.349 . S
C1819 C1817 1.327 . S
C1819 C1835 1.429 . S
C1819 H1841 0.950 . S
C1820 H1816 0.949 . S
C1820 C1828 1.574 . S
C1820 C1836 1.368 . S
H1821 C1829 0.950 . S
H1822 C1827 0.950 . S
H1823 C1828 0.949 . S
H1824 C1830 0.950 . S
H1825 C1831 0.950 . S
H1826 C1832 0.949 . S
C1827 H1822 0.950 . S
C1827 C1829 1.327 . S
C1827 C1833 1.429 . S
C1828 C1820 1.574 . S
C1828 H1823 0.949 . S
C1828 C1834 1.368 . S
C1829 C1813 1.349 . S
C1829 H1821 0.950 . S
C1829 C1827 1.327 . S
C1830 C1818 1.349 . S
C1830 H1824 0.950 . S
C1830 C1831 1.327 . S
C1831 H1825 0.950 . S
C1831 C1830 1.327 . S
C1831 C1835 1.429 . S
C1832 C1815 1.574 . S
C1832 H1826 0.949 . S
C1832 C1836 1.368 . S
C1833 C1814 1.429 . S
C1833 C1827 1.429 . S
C1833 C1834 1.523 . S
C1834 C1815 1.368 . S
C1834 C1828 1.368 . S
C1834 C1833 1.523 . S
C1835 C1819 1.429 . S
C1835 C1831 1.429 . S
C1835 C1836 1.523 . S
C1836 C1820 1.368 . S
C1836 C1832 1.368 . S
C1836 C1835 1.523 . S
H1837 C1812 0.950 . S
H1838 C1814 0.950 . S
H1839 C1815 0.949 . S
H1840 C1817 0.950 . S
H1841 C1819 0.950 . S
C1842 C1843 1.349 . S
C1842 C1844 1.327 . S
C1842 H1867 0.950 . S
C1843 C1842 1.349 . S
C1843 C1859 1.349 . S
C1844 C1842 1.327 . S
C1844 C1863 1.429 . S
C1844 H1868 0.950 . S
C1845 C1862 1.574 1_554 S
C1845 C1864 1.368 . S
C1845 H1869 0.949 . S
H1846 C1850 0.949 . S
C1847 C1848 1.349 . S
C1847 C1849 1.327 . S
C1847 H1870 0.950 . S
C1848 C1847 1.349 . S
C1848 C1860 1.349 . S
C1849 C1847 1.327 . S
C1849 C1865 1.429 . S
C1849 H1871 0.950 . S
C1850 H1846 0.949 . S
C1850 C1858 1.574 1_556 S
C1850 C1866 1.368 . S
H1851 C1859 0.950 . S
H1852 C1857 0.950 . S
H1853 C1858 0.949 . S
H1854 C1860 0.950 . S
H1855 C1861 0.950 . S
H1856 C1862 0.949 . S
C1857 H1852 0.950 . S
C1857 C1859 1.327 . S
C1857 C1863 1.429 . S
C1858 C1850 1.574 1_554 S
C1858 H1853 0.949 . S
C1858 C1864 1.368 . S
C1859 C1843 1.349 . S
C1859 H1851 0.950 . S
C1859 C1857 1.327 . S
C1860 C1848 1.349 . S
C1860 H1854 0.950 . S
C1860 C1861 1.327 . S
C1861 H1855 0.950 . S
C1861 C1860 1.327 . S
C1861 C1865 1.429 . S
C1862 C1845 1.574 1_556 S
C1862 H1856 0.949 . S
C1862 C1866 1.368 . S
C1863 C1844 1.429 . S
C1863 C1857 1.429 . S
C1863 C1864 1.523 . S
C1864 C1845 1.368 . S
C1864 C1858 1.368 . S
C1864 C1863 1.523 . S
C1865 C1849 1.429 . S
C1865 C1861 1.429 . S
C1865 C1866 1.523 . S
C1866 C1850 1.368 . S
C1866 C1862 1.368 . S
C1866 C1865 1.523 . S
H1867 C1842 0.950 . S
H1868 C1844 0.950 . S
H1869 C1845 0.949 . S
H1870 C1847 0.950 . S
H1871 C1849 0.950 . S
C1872 C1873 1.349 . S
C1872 C1874 1.327 . S
C1872 H1897 0.950 . S
C1873 C1872 1.349 . S
C1873 C1889 1.349 . S
C1874 C1872 1.327 . S
C1874 C1893 1.429 . S
C1874 H1898 0.950 . S
C1875 C1892 1.574 . S
C1875 C1894 1.368 . S
C1875 H1899 0.949 . S
H1876 C1880 0.949 . S
C1877 C1878 1.349 . S
C1877 C1879 1.327 . S
C1877 H1900 0.950 . S
C1878 C1877 1.349 . S
C1878 C1890 1.349 . S
C1879 C1877 1.327 . S
C1879 C1895 1.429 . S
C1879 H1901 0.950 . S
C1880 H1876 0.949 . S
C1880 C1888 1.574 . S
C1880 C1896 1.368 . S
H1881 C1889 0.950 . S
H1882 C1887 0.950 . S
H1883 C1888 0.949 . S
H1884 C1890 0.950 . S
H1885 C1891 0.950 . S
H1886 C1892 0.949 . S
C1887 H1882 0.950 . S
C1887 C1889 1.327 . S
C1887 C1893 1.429 . S
C1888 C1880 1.574 . S
C1888 H1883 0.949 . S
C1888 C1894 1.368 . S
C1889 C1873 1.349 . S
C1889 H1881 0.950 . S
C1889 C1887 1.327 . S
C1890 C1878 1.349 . S
C1890 H1884 0.950 . S
C1890 C1891 1.327 . S
C1891 H1885 0.950 . S
C1891 C1890 1.327 . S
C1891 C1895 1.429 . S
C1892 C1875 1.574 . S
C1892 H1886 0.949 . S
C1892 C1896 1.368 . S
C1893 C1874 1.429 . S
C1893 C1887 1.429 . S
C1893 C1894 1.523 . S
C1894 C1875 1.368 . S
C1894 C1888 1.368 . S
C1894 C1893 1.523 . S
C1895 C1879 1.429 . S
C1895 C1891 1.429 . S
C1895 C1896 1.523 . S
C1896 C1880 1.368 . S
C1896 C1892 1.368 . S
C1896 C1895 1.523 . S
H1897 C1872 0.950 . S
H1898 C1874 0.950 . S
H1899 C1875 0.949 . S
H1900 C1877 0.950 . S
H1901 C1879 0.950 . S
C1902 C1903 1.349 . S
C1902 C1904 1.327 . S
C1902 H1927 0.950 . S
C1903 C1902 1.349 . S
C1903 C1919 1.349 . S
C1904 C1902 1.327 . S
C1904 C1923 1.429 . S
C1904 H1928 0.950 . S
C1905 C1922 1.574 . S
C1905 C1924 1.368 . S
C1905 H1929 0.949 . S
H1906 C1910 0.949 . S
C1907 C1908 1.349 . S
C1907 C1909 1.327 . S
C1907 H1930 0.950 . S
C1908 C1907 1.349 . S
C1908 C1920 1.349 . S
C1909 C1907 1.327 . S
C1909 C1925 1.429 . S
C1909 H1931 0.950 . S
C1910 H1906 0.949 . S
C1910 C1918 1.574 . S
C1910 C1926 1.368 . S
H1911 C1919 0.950 . S
H1912 C1917 0.950 . S
H1913 C1918 0.949 . S
H1914 C1920 0.950 . S
H1915 C1921 0.950 . S
H1916 C1922 0.949 . S
C1917 H1912 0.950 . S
C1917 C1919 1.327 . S
C1917 C1923 1.429 . S
C1918 C1910 1.574 . S
C1918 H1913 0.949 . S
C1918 C1924 1.368 . S
C1919 C1903 1.349 . S
C1919 H1911 0.950 . S
C1919 C1917 1.327 . S
C1920 C1908 1.349 . S
C1920 H1914 0.950 . S
C1920 C1921 1.327 . S
C1921 H1915 0.950 . S
C1921 C1920 1.327 . S
C1921 C1925 1.429 . S
C1922 C1905 1.574 . S
C1922 H1916 0.949 . S
C1922 C1926 1.368 . S
C1923 C1904 1.429 . S
C1923 C1917 1.429 . S
C1923 C1924 1.523 1_556 S
C1924 C1905 1.368 . S
C1924 C1918 1.368 . S
C1924 C1923 1.523 1_554 S
C1925 C1909 1.429 . S
C1925 C1921 1.429 . S
C1925 C1926 1.523 . S
C1926 C1910 1.368 . S
C1926 C1922 1.368 . S
C1926 C1925 1.523 . S
H1927 C1902 0.950 . S
H1928 C1904 0.950 . S
H1929 C1905 0.949 . S
H1930 C1907 0.950 . S
H1931 C1909 0.950 . S
C1932 C1933 1.349 . S
C1932 C1934 1.327 . S
C1932 H1957 0.950 . S
C1933 C1932 1.349 . S
C1933 C1949 1.349 . S
C1934 C1932 1.327 . S
C1934 C1953 1.429 . S
C1934 H1958 0.950 . S
C1935 C1952 1.574 . S
C1935 C1954 1.368 . S
C1935 H1959 0.949 . S
H1936 C1940 0.949 . S
C1937 C1938 1.349 . S
C1937 C1939 1.327 . S
C1937 H1960 0.950 . S
C1938 C1937 1.349 . S
C1938 C1950 1.349 . S
C1939 C1937 1.327 . S
C1939 C1955 1.429 . S
C1939 H1961 0.950 . S
C1940 H1936 0.949 . S
C1940 C1948 1.574 . S
C1940 C1956 1.368 . S
H1941 C1949 0.950 . S
H1942 C1947 0.950 . S
H1943 C1948 0.949 . S
H1944 C1950 0.950 . S
H1945 C1951 0.950 . S
H1946 C1952 0.949 . S
C1947 H1942 0.950 . S
C1947 C1949 1.327 . S
C1947 C1953 1.429 . S
C1948 C1940 1.574 . S
C1948 H1943 0.949 . S
C1948 C1954 1.368 . S
C1949 C1933 1.349 . S
C1949 H1941 0.950 . S
C1949 C1947 1.327 . S
C1950 C1938 1.349 . S
C1950 H1944 0.950 . S
C1950 C1951 1.327 . S
C1951 H1945 0.950 . S
C1951 C1950 1.327 . S
C1951 C1955 1.429 . S
C1952 C1935 1.574 . S
C1952 H1946 0.949 . S
C1952 C1956 1.368 . S
C1953 C1934 1.429 . S
C1953 C1947 1.429 . S
C1953 C1954 1.523 . S
C1954 C1935 1.368 . S
C1954 C1948 1.368 . S
C1954 C1953 1.523 . S
C1955 C1939 1.429 . S
C1955 C1951 1.429 . S
C1955 C1956 1.523 . S
C1956 C1940 1.368 . S
C1956 C1952 1.368 . S
C1956 C1955 1.523 . S
H1957 C1932 0.950 . S
H1958 C1934 0.950 . S
H1959 C1935 0.949 . S
H1960 C1937 0.950 . S
H1961 C1939 0.950 . S
C1962 C1963 1.349 . S
C1962 C1964 1.327 1_556 S
C1962 H1987 0.950 . S
C1963 C1962 1.349 . S
C1963 C1979 1.349 . S
C1964 C1962 1.327 1_554 S
C1964 C1983 1.429 . S
C1964 H1988 0.950 . S
C1965 C1982 1.574 . S
C1965 C1984 1.368 . S
C1965 H1989 0.949 . S
H1966 C1970 0.949 . S
C1967 C1968 1.349 . S
C1967 C1969 1.327 . S
C1967 H1990 0.950 . S
C1968 C1967 1.349 . S
C1968 C1980 1.349 . S
C1969 C1967 1.327 . S
C1969 C1985 1.429 . S
C1969 H1991 0.950 . S
C1970 H1966 0.949 . S
C1970 C1978 1.574 . S
C1970 C1986 1.368 . S
H1971 C1979 0.950 . S
H1972 C1977 0.950 . S
H1973 C1978 0.949 . S
H1974 C1980 0.950 . S
H1975 C1981 0.950 . S
H1976 C1982 0.949 . S
C1977 H1972 0.950 . S
C1977 C1979 1.327 1_554 S
C1977 C1983 1.429 . S
C1978 C1970 1.574 . S
C1978 H1973 0.949 . S
C1978 C1984 1.368 . S
C1979 C1963 1.349 . S
C1979 H1971 0.950 . S
C1979 C1977 1.327 1_556 S
C1980 C1968 1.349 . S
C1980 H1974 0.950 . S
C1980 C1981 1.327 . S
C1981 H1975 0.950 . S
C1981 C1980 1.327 . S
C1981 C1985 1.429 . S
C1982 C1965 1.574 . S
C1982 H1976 0.949 . S
C1982 C1986 1.368 . S
C1983 C1964 1.429 . S
C1983 C1977 1.429 . S
C1983 C1984 1.523 . S
C1984 C1965 1.368 . S
C1984 C1978 1.368 . S
C1984 C1983 1.523 . S
C1985 C1969 1.429 . S
C1985 C1981 1.429 . S
C1985 C1986 1.523 . S
C1986 C1970 1.368 . S
C1986 C1982 1.368 . S
C1986 C1985 1.523 . S
H1987 C1962 0.950 . S
H1988 C1964 0.950 . S
H1989 C1965 0.949 . S
H1990 C1967 0.950 . S
H1991 C1969 0.950 . S
C1992 C1993 1.349 . S
C1992 C1994 1.327 . S
C1992 H2017 0.950 . S
C1993 C1992 1.349 . S
C1993 C2009 1.349 . S
C1994 C1992 1.327 . S
C1994 C2013 1.429 . S
C1994 H2018 0.950 . S
C1995 C2012 1.574 . S
C1995 C2014 1.368 . S
C1995 H2019 0.949 . S
H1996 C2000 0.949 . S
C1997 C1998 1.349 . S
C1997 C1999 1.327 . S
C1997 H2020 0.950 . S
C1998 C1997 1.349 . S
C1998 C2010 1.349 . S
C1999 C1997 1.327 . S
C1999 C2015 1.429 . S
C1999 H2021 0.950 . S
C2000 H1996 0.949 . S
C2000 C2008 1.574 . S
C2000 C2016 1.368 . S
H2001 C2009 0.950 . S
H2002 C2007 0.950 . S
H2003 C2008 0.949 . S
H2004 C2010 0.950 . S
H2005 C2011 0.950 . S
H2006 C2012 0.949 . S
C2007 H2002 0.950 . S
C2007 C2009 1.327 . S
C2007 C2013 1.429 . S
C2008 C2000 1.574 . S
C2008 H2003 0.949 . S
C2008 C2014 1.368 . S
C2009 C1993 1.349 . S
C2009 H2001 0.950 . S
C2009 C2007 1.327 . S
C2010 C1998 1.349 . S
C2010 H2004 0.950 . S
C2010 C2011 1.327 . S
C2011 H2005 0.950 . S
C2011 C2010 1.327 . S
C2011 C2015 1.429 . S
C2012 C1995 1.574 . S
C2012 H2006 0.949 . S
C2012 C2016 1.368 . S
C2013 C1994 1.429 . S
C2013 C2007 1.429 . S
C2013 C2014 1.523 . S
C2014 C1995 1.368 . S
C2014 C2008 1.368 . S
C2014 C2013 1.523 . S
C2015 C1999 1.429 . S
C2015 C2011 1.429 . S
C2015 C2016 1.523 . S
C2016 C2000 1.368 . S
C2016 C2012 1.368 . S
C2016 C2015 1.523 . S
H2017 C1992 0.950 . S
H2018 C1994 0.950 . S
H2019 C1995 0.949 . S
H2020 C1997 0.950 . S
H2021 C1999 0.950 . S
C2022 C2023 1.349 . S
C2022 C2024 1.327 . S
C2022 H2047 0.950 . S
C2023 C2022 1.349 . S
C2023 C2039 1.349 . S
C2024 C2022 1.327 . S
C2024 C2043 1.429 . S
C2024 H2048 0.950 . S
C2025 C2042 1.574 . S
C2025 C2044 1.368 . S
C2025 H2049 0.949 . S
H2026 C2030 0.949 . S
C2027 C2028 1.349 . S
C2027 C2029 1.327 . S
C2027 H2050 0.950 . S
C2028 C2027 1.349 . S
C2028 C2040 1.349 . S
C2029 C2027 1.327 . S
C2029 C2045 1.429 . S
C2029 H2051 0.950 . S
C2030 H2026 0.949 . S
C2030 C2038 1.574 . S
C2030 C2046 1.368 . S
H2031 C2039 0.950 . S
H2032 C2037 0.950 . S
H2033 C2038 0.949 . S
H2034 C2040 0.950 . S
H2035 C2041 0.950 . S
H2036 C2042 0.949 . S
C2037 H2032 0.950 . S
C2037 C2039 1.327 . S
C2037 C2043 1.429 . S
C2038 C2030 1.574 . S
C2038 H2033 0.949 . S
C2038 C2044 1.368 . S
C2039 C2023 1.349 . S
C2039 H2031 0.950 . S
C2039 C2037 1.327 . S
C2040 C2028 1.349 . S
C2040 H2034 0.950 . S
C2040 C2041 1.327 . S
C2041 H2035 0.950 . S
C2041 C2040 1.327 . S
C2041 C2045 1.429 . S
C2042 C2025 1.574 . S
C2042 H2036 0.949 . S
C2042 C2046 1.368 . S
C2043 C2024 1.429 . S
C2043 C2037 1.429 . S
C2043 C2044 1.523 . S
C2044 C2025 1.368 . S
C2044 C2038 1.368 . S
C2044 C2043 1.523 . S
C2045 C2029 1.429 . S
C2045 C2041 1.429 . S
C2045 C2046 1.523 . S
C2046 C2030 1.368 . S
C2046 C2042 1.368 . S
C2046 C2045 1.523 . S
H2047 C2022 0.950 . S
H2048 C2024 0.950 . S
H2049 C2025 0.949 . S
H2050 C2027 0.950 . S
H2051 C2029 0.950 . S
C2052 C2053 1.349 . S
C2052 C2054 1.327 . S
C2052 H2077 0.950 . S
C2053 C2052 1.349 . S
C2053 C2069 1.349 . S
C2054 C2052 1.327 . S
C2054 C2073 1.429 . S
C2054 H2078 0.950 . S
C2055 C2072 1.574 . S
C2055 C2074 1.368 . S
C2055 H2079 0.949 . S
H2056 C2060 0.949 . S
C2057 C2058 1.349 . S
C2057 C2059 1.327 . S
C2057 H2080 0.950 . S
C2058 C2057 1.349 . S
C2058 C2070 1.349 . S
C2059 C2057 1.327 . S
C2059 C2075 1.429 . S
C2059 H2081 0.950 . S
C2060 H2056 0.949 . S
C2060 C2068 1.574 . S
C2060 C2076 1.368 . S
H2061 C2069 0.950 . S
H2062 C2067 0.950 . S
H2063 C2068 0.949 . S
H2064 C2070 0.950 . S
H2065 C2071 0.950 . S
H2066 C2072 0.949 . S
C2067 H2062 0.950 . S
C2067 C2069 1.327 . S
C2067 C2073 1.429 . S
C2068 C2060 1.574 . S
C2068 H2063 0.949 . S
C2068 C2074 1.368 . S
C2069 C2053 1.349 . S
C2069 H2061 0.950 . S
C2069 C2067 1.327 . S
C2070 C2058 1.349 . S
C2070 H2064 0.950 . S
C2070 C2071 1.327 . S
C2071 H2065 0.950 . S
C2071 C2070 1.327 . S
C2071 C2075 1.429 . S
C2072 C2055 1.574 . S
C2072 H2066 0.949 . S
C2072 C2076 1.368 . S
C2073 C2054 1.429 . S
C2073 C2067 1.429 . S
C2073 C2074 1.523 . S
C2074 C2055 1.368 . S
C2074 C2068 1.368 . S
C2074 C2073 1.523 . S
C2075 C2059 1.429 . S
C2075 C2071 1.429 . S
C2075 C2076 1.523 . S
C2076 C2060 1.368 . S
C2076 C2072 1.368 . S
C2076 C2075 1.523 . S
H2077 C2052 0.950 . S
H2078 C2054 0.950 . S
H2079 C2055 0.949 . S
H2080 C2057 0.950 . S
H2081 C2059 0.950 . S
C2082 C2083 1.349 . S
C2082 C2084 1.327 . S
C2082 H2107 0.950 . S
C2083 C2082 1.349 . S
C2083 C2099 1.349 . S
C2084 C2082 1.327 . S
C2084 C2103 1.429 . S
C2084 H2108 0.950 . S
C2085 C2102 1.574 . S
C2085 C2104 1.368 . S
C2085 H2109 0.949 . S
H2086 C2090 0.949 . S
C2087 C2088 1.349 . S
C2087 C2089 1.327 . S
C2087 H2110 0.950 . S
C2088 C2087 1.349 . S
C2088 C2100 1.349 . S
C2089 C2087 1.327 . S
C2089 C2105 1.429 . S
C2089 H2111 0.950 . S
C2090 H2086 0.949 . S
C2090 C2098 1.574 . S
C2090 C2106 1.368 . S
H2091 C2099 0.950 . S
H2092 C2097 0.950 . S
H2093 C2098 0.949 . S
H2094 C2100 0.950 . S
H2095 C2101 0.950 . S
H2096 C2102 0.949 . S
C2097 H2092 0.950 . S
C2097 C2099 1.327 . S
C2097 C2103 1.429 . S
C2098 C2090 1.574 . S
C2098 H2093 0.949 . S
C2098 C2104 1.368 . S
C2099 C2083 1.349 . S
C2099 H2091 0.950 . S
C2099 C2097 1.327 . S
C2100 C2088 1.349 . S
C2100 H2094 0.950 . S
C2100 C2101 1.327 . S
C2101 H2095 0.950 . S
C2101 C2100 1.327 . S
C2101 C2105 1.429 . S
C2102 C2085 1.574 . S
C2102 H2096 0.949 . S
C2102 C2106 1.368 . S
C2103 C2084 1.429 . S
C2103 C2097 1.429 . S
C2103 C2104 1.523 . S
C2104 C2085 1.368 . S
C2104 C2098 1.368 . S
C2104 C2103 1.523 . S
C2105 C2089 1.429 . S
C2105 C2101 1.429 . S
C2105 C2106 1.523 . S
C2106 C2090 1.368 . S
C2106 C2102 1.368 . S
C2106 C2105 1.523 . S
H2107 C2082 0.950 . S
H2108 C2084 0.950 . S
H2109 C2085 0.949 . S
H2110 C2087 0.950 . S
H2111 C2089 0.950 . S
C2112 C2113 1.349 . S
C2112 C2114 1.327 . S
C2112 H2137 0.950 . S
C2113 C2112 1.349 . S
C2113 C2129 1.349 . S
C2114 C2112 1.327 . S
C2114 C2133 1.429 . S
C2114 H2138 0.950 . S
C2115 C2132 1.574 . S
C2115 C2134 1.368 . S
C2115 H2139 0.949 . S
H2116 C2120 0.949 . S
C2117 C2118 1.349 . S
C2117 C2119 1.327 . S
C2117 H2140 0.950 . S
C2118 C2117 1.349 . S
C2118 C2130 1.349 . S
C2119 C2117 1.327 . S
C2119 C2135 1.429 . S
C2119 H2141 0.950 . S
C2120 H2116 0.949 . S
C2120 C2128 1.574 . S
C2120 C2136 1.368 . S
H2121 C2129 0.950 . S
H2122 C2127 0.950 . S
H2123 C2128 0.949 . S
H2124 C2130 0.950 . S
H2125 C2131 0.950 . S
H2126 C2132 0.949 . S
C2127 H2122 0.950 . S
C2127 C2129 1.327 . S
C2127 C2133 1.429 . S
C2128 C2120 1.574 . S
C2128 H2123 0.949 . S
C2128 C2134 1.368 . S
C2129 C2113 1.349 . S
C2129 H2121 0.950 . S
C2129 C2127 1.327 . S
C2130 C2118 1.349 . S
C2130 H2124 0.950 . S
C2130 C2131 1.327 . S
C2131 H2125 0.950 . S
C2131 C2130 1.327 . S
C2131 C2135 1.429 . S
C2132 C2115 1.574 . S
C2132 H2126 0.949 . S
C2132 C2136 1.368 . S
C2133 C2114 1.429 . S
C2133 C2127 1.429 . S
C2133 C2134 1.523 . S
C2134 C2115 1.368 . S
C2134 C2128 1.368 . S
C2134 C2133 1.523 . S
C2135 C2119 1.429 . S
C2135 C2131 1.429 . S
C2135 C2136 1.523 . S
C2136 C2120 1.368 . S
C2136 C2132 1.368 . S
C2136 C2135 1.523 . S
H2137 C2112 0.950 . S
H2138 C2114 0.950 . S
H2139 C2115 0.949 . S
H2140 C2117 0.950 . S
H2141 C2119 0.950 . S
C2142 C2143 1.349 . S
C2142 C2144 1.327 . S
C2142 H2167 0.950 . S
C2143 C2142 1.349 . S
C2143 C2159 1.349 . S
C2144 C2142 1.327 . S
C2144 C2163 1.429 . S
C2144 H2168 0.950 . S
C2145 C2162 1.574 . S
C2145 C2164 1.368 . S
C2145 H2169 0.949 . S
H2146 C2150 0.949 . S
C2147 C2148 1.349 . S
C2147 C2149 1.327 . S
C2147 H2170 0.950 . S
C2148 C2147 1.349 . S
C2148 C2160 1.349 . S
C2149 C2147 1.327 . S
C2149 C2165 1.429 . S
C2149 H2171 0.950 . S
C2150 H2146 0.949 . S
C2150 C2158 1.574 . S
C2150 C2166 1.368 . S
H2151 C2159 0.950 . S
H2152 C2157 0.950 . S
H2153 C2158 0.949 . S
H2154 C2160 0.950 . S
H2155 C2161 0.950 . S
H2156 C2162 0.949 . S
C2157 H2152 0.950 . S
C2157 C2159 1.327 . S
C2157 C2163 1.429 . S
C2158 C2150 1.574 . S
C2158 H2153 0.949 . S
C2158 C2164 1.368 . S
C2159 C2143 1.349 . S
C2159 H2151 0.950 . S
C2159 C2157 1.327 . S
C2160 C2148 1.349 . S
C2160 H2154 0.950 . S
C2160 C2161 1.327 . S
C2161 H2155 0.950 . S
C2161 C2160 1.327 . S
C2161 C2165 1.429 . S
C2162 C2145 1.574 . S
C2162 H2156 0.949 . S
C2162 C2166 1.368 . S
C2163 C2144 1.429 . S
C2163 C2157 1.429 . S
C2163 C2164 1.523 . S
C2164 C2145 1.368 . S
C2164 C2158 1.368 . S
C2164 C2163 1.523 . S
C2165 C2149 1.429 . S
C2165 C2161 1.429 . S
C2165 C2166 1.523 . S
C2166 C2150 1.368 . S
C2166 C2162 1.368 . S
C2166 C2165 1.523 . S
H2167 C2142 0.950 . S
H2168 C2144 0.950 . S
H2169 C2145 0.949 . S
H2170 C2147 0.950 . S
H2171 C2149 0.950 . S
C2172 C2173 1.349 . S
C2172 C2174 1.327 . S
C2172 H2197 0.950 . S
C2173 C2172 1.349 . S
C2173 C2189 1.349 . S
C2174 C2172 1.327 . S
C2174 C2193 1.429 . S
C2174 H2198 0.950 . S
C2175 C2192 1.574 . S
C2175 C2194 1.368 . S
C2175 H2199 0.949 . S
H2176 C2180 0.949 . S
C2177 C2178 1.349 . S
C2177 C2179 1.327 . S
C2177 H2200 0.950 . S
C2178 C2177 1.349 . S
C2178 C2190 1.349 . S
C2179 C2177 1.327 . S
C2179 C2195 1.429 . S
C2179 H2201 0.950 . S
C2180 H2176 0.949 . S
C2180 C2188 1.574 . S
C2180 C2196 1.368 . S
H2181 C2189 0.950 . S
H2182 C2187 0.950 . S
H2183 C2188 0.949 . S
H2184 C2190 0.950 . S
H2185 C2191 0.950 . S
H2186 C2192 0.949 . S
C2187 H2182 0.950 . S
C2187 C2189 1.327 . S
C2187 C2193 1.429 . S
C2188 C2180 1.574 . S
C2188 H2183 0.949 . S
C2188 C2194 1.368 . S
C2189 C2173 1.349 . S
C2189 H2181 0.950 . S
C2189 C2187 1.327 . S
C2190 C2178 1.349 . S
C2190 H2184 0.950 . S
C2190 C2191 1.327 . S
C2191 H2185 0.950 . S
C2191 C2190 1.327 . S
C2191 C2195 1.429 . S
C2192 C2175 1.574 . S
C2192 H2186 0.949 . S
C2192 C2196 1.368 . S
C2193 C2174 1.429 . S
C2193 C2187 1.429 . S
C2193 C2194 1.523 . S
C2194 C2175 1.368 . S
C2194 C2188 1.368 . S
C2194 C2193 1.523 . S
C2195 C2179 1.429 . S
C2195 C2191 1.429 . S
C2195 C2196 1.523 . S
C2196 C2180 1.368 . S
C2196 C2192 1.368 . S
C2196 C2195 1.523 . S
H2197 C2172 0.950 . S
H2198 C2174 0.950 . S
H2199 C2175 0.949 . S
H2200 C2177 0.950 . S
H2201 C2179 0.950 . S
C2202 C2203 1.349 . S
C2202 C2204 1.327 . S
C2202 H2227 0.950 . S
C2203 C2202 1.349 . S
C2203 C2219 1.349 . S
C2204 C2202 1.327 . S
C2204 C2223 1.429 . S
C2204 H2228 0.950 . S
C2205 C2222 1.574 . S
C2205 C2224 1.368 . S
C2205 H2229 0.949 . S
H2206 C2210 0.949 . S
C2207 C2208 1.349 . S
C2207 C2209 1.327 . S
C2207 H2230 0.950 . S
C2208 C2207 1.349 . S
C2208 C2220 1.349 . S
C2209 C2207 1.327 . S
C2209 C2225 1.429 . S
C2209 H2231 0.950 . S
C2210 H2206 0.949 . S
C2210 C2218 1.574 . S
C2210 C2226 1.368 . S
H2211 C2219 0.950 . S
H2212 C2217 0.950 . S
H2213 C2218 0.949 . S
H2214 C2220 0.950 . S
H2215 C2221 0.950 . S
H2216 C2222 0.952 1_565 S
C2217 H2212 0.950 . S
C2217 C2219 1.327 . S
C2217 C2223 1.429 . S
C2218 C2210 1.574 . S
C2218 H2213 0.949 . S
C2218 C2224 1.368 . S
C2219 C2203 1.349 . S
C2219 H2211 0.950 . S
C2219 C2217 1.327 . S
C2220 C2208 1.349 . S
C2220 H2214 0.950 . S
C2220 C2221 1.327 . S
C2221 H2215 0.950 . S
C2221 C2220 1.327 . S
C2221 C2225 1.429 . S
C2222 C2205 1.574 . S
C2222 H2216 0.952 1_545 S
C2222 C2226 1.368 . S
C2223 C2204 1.429 . S
C2223 C2217 1.429 . S
C2223 C2224 1.523 . S
C2224 C2205 1.368 . S
C2224 C2218 1.368 . S
C2224 C2223 1.523 . S
C2225 C2209 1.429 . S
C2225 C2221 1.429 . S
C2225 C2226 1.523 1_565 S
C2226 C2210 1.368 . S
C2226 C2222 1.368 . S
C2226 C2225 1.523 1_545 S
H2227 C2202 0.950 . S
H2228 C2204 0.950 . S
H2229 C2205 0.949 . S
H2230 C2207 0.950 . S
H2231 C2209 0.950 . S
C798 C632 1.643 . S
C793 C211 1.651 . S
C828 C647 1.742 . S
C823 C255 1.779 . S
C853 C274 1.756 . S
C858 C660 1.746 . S
C888 C674 1.561 . S
C883 C157 1.588 . S
C918 C686 1.700 . S
C913 C391 1.762 . S
C948 C700 1.299 . S
C943 C484 1.295 . S
C973 C450 1.822 . S
C978 C714 1.782 . S
C1008 C729 1.477 . S
C1003 C352 1.484 . S
C1033 C430 1.710 . S
C1038 C745 1.699 . S
C1068 C758 1.530 . S
C1063 C367 1.538 . S
C1093 C411 1.644 . S
C1098 C743 1.597 . S
C1128 C756 1.504 . S
C1123 C469 1.486 . S
C1153 C294 1.904 . S
C1158 C772 1.895 . S
C1183 C177 1.584 . S
C1188 C771 1.581 . S
C1213 C196 1.802 . S
C1218 C770 1.744 . S
C1243 C235 1.639 . S
C1248 C773 1.618 . S
C1273 C133 1.732 . S
C1278 C675 1.724 . S
C1303 C567 1.515 . S
C1308 C673 1.486 . S
C1338 C633 1.545 . S
C1333 C601 1.567 . S
C1368 C644 1.796 . S
C1363 C328 1.822 . S
C1393 C172 1.621 1_545 S
C1398 C689 1.609 . S
C1428 C730 1.961 . S
C1423 C445 1.968 . S
C1458 C687 1.529 . S
C1453 C372 1.535 . S
C1488 C715 1.489 . S
C1483 C489 1.480 . S
C1518 C716 1.643 . S
C1513 C562 1.651 . S
C1543 C606 1.779 . S
C1548 C731 1.742 . S
C1573 C313 1.756 . S
C1578 C688 1.746 . S
C1608 C702 1.561 . S
C1603 C508 1.588 . S
C1633 C118 1.762 . S
C1638 C658 1.700 . S
C1668 C672 1.299 . S
C1663 C16 1.295 . S
C1698 C630 1.782 . S
C1693 C60 1.822 . S
C1728 C645 1.477 . S
C1723 C79 1.484 . S
C1753 C40 1.710 . S
C1758 C759 1.699 . S
C1783 C94 1.538 . S
C1788 C744 1.529 . S
C1813 C138 1.644 . S
C1818 C757 1.597 . S
C1843 C1 1.486 . S
C1848 C742 1.505 . S
C1878 C786 1.895 . S
C1873 C333 1.904 . S
C1908 C785 1.581 . S
C1903 C528 1.584 . S
C1938 C784 1.744 . S
C1933 C547 1.802 . S
C1963 C586 1.639 . S
C1968 C787 1.618 . S
C1993 C406 1.732 . S
C1998 C703 1.724 . S
C2028 C701 1.486 . S
C2023 C216 1.515 . S
C2058 C717 1.545 . S
C2053 C250 1.566 . S
C2088 C728 1.796 . S
C2083 C289 1.822 . S
C2113 C523 1.622 . S
C2118 C661 1.609 . S
C2148 C646 1.961 . S
C2143 C55 1.968 . S
C2173 C99 1.536 . S
C2178 C659 1.530 . S
C2208 C631 1.489 . S
C2203 C21 1.480 . S
