# Generated by pormake.
# Topology rtl, (3,6)-cn, num edge types: 1
# Building blocks:
#     Node 0, Type 0, BuildingBlock: CUQRIR_clean_linker_1, # of connection points: 3
#     Node 1, Type 0, BuildingBlock: CUQRIR_clean_linker_1, # of connection points: 3
#     Node 2, Type 0, BuildingBlock: CUQRIR_clean_linker_1, # of connection points: 3
#     Node 3, Type 0, BuildingBlock: CUQRIR_clean_linker_1, # of connection points: 3
#     Node 4, Type 1, BuildingBlock: LEVNOQ01_clean_sbu_1, # of connection points: 6
#     Node 5, Type 1, BuildingBlock: LEVNOQ01_clean_sbu_1, # of connection points: 6
#     Edge 6, Type (0, 1), BuildingBlock: UVAHIK_clean_linker_0, # of connection points: 2
#     Edge 7, Type (0, 1), BuildingBlock: UVAHIK_clean_linker_0, # of connection points: 2
#     Edge 8, Type (0, 1), BuildingBlock: UVAHIK_clean_linker_0, # of connection points: 2
#     Edge 9, Type (0, 1), BuildingBlock: UVAHIK_clean_linker_0, # of connection points: 2
#     Edge 10, Type (0, 1), BuildingBlock: UVAHIK_clean_linker_0, # of connection points: 2
#     Edge 11, Type (0, 1), BuildingBlock: UVAHIK_clean_linker_0, # of connection points: 2
#     Edge 12, Type (0, 1), BuildingBlock: UVAHIK_clean_linker_0, # of connection points: 2
#     Edge 13, Type (0, 1), BuildingBlock: UVAHIK_clean_linker_0, # of connection points: 2
#     Edge 14, Type (0, 1), BuildingBlock: UVAHIK_clean_linker_0, # of connection points: 2
#     Edge 15, Type (0, 1), BuildingBlock: UVAHIK_clean_linker_0, # of connection points: 2
#     Edge 16, Type (0, 1), BuildingBlock: UVAHIK_clean_linker_0, # of connection points: 2
#     Edge 17, Type (0, 1), BuildingBlock: UVAHIK_clean_linker_0, # of connection points: 2
# Relax obj value: 0.023
# Max RMSD: 0.126
# Mean RMSD: 0.104
data_MOF--net-rtl--node1-LEVNOQ01_clean_sbu_1--node2-CUQRIR_clean_linker_1--edge1-UVAHIK_clean_linker_0
_symmetry_space_group_name_H-M    P1
_symmetry_Int_Tables_number       1
_symmetry_cell_setting            triclinic
loop_
_symmetry_equiv_pos_as_xyz
'x, y, z'
_cell_length_a     44.570287
_cell_length_b     43.734128
_cell_length_c     26.7778
_cell_angle_alpha  90.133193
_cell_angle_beta   97.973046
_cell_angle_gamma 89.916277
loop_
_atom_site_label
_atom_site_type_symbol
_atom_site_fract_x
_atom_site_fract_y
_atom_site_fract_z
_atom_type_partial_charge
C0 C 0.21024 0.78899 0.0707 0.0
N1 N 0.19157 0.81256 0.07841 0.0
N2 N 0.22803 0.78143 0.11419 0.0
C3 C 0.21309 0.7752 0.02004 0.0
C4 C 0.21972 0.80137 0.1485 0.0
N5 N 0.19785 0.8205 0.1267 0.0
C6 C 0.23138 0.80068 0.20401 0.0
H7 H 0.2361 0.76567 0.01924 0.0
H8 H 0.2083 0.79246 0.98968 0.0
H9 H 0.19641 0.75638 0.01237 0.0
H10 H 0.25017 0.81736 0.21203 0.0
H11 H 0.24004 0.77765 0.21587 0.0
H12 H 0.2133 0.80721 0.22662 0.0
C13 C 0.71563 0.70994 0.62932 0.0
N14 N 0.69585 0.68829 0.60881 0.0
N15 N 0.72283 0.72924 0.59334 0.0
C16 C 0.72562 0.71421 0.68496 0.0
C17 C 0.70652 0.7188 0.55025 0.0
N18 N 0.68994 0.69407 0.55968 0.0
C19 C 0.70806 0.73175 0.49869 0.0
H20 H 0.70726 0.70781 0.70697 0.0
H21 H 0.73232 0.73823 0.6939 0.0
H22 H 0.74545 0.69925 0.6968 0.0
H23 H 0.73004 0.74333 0.49722 0.0
H24 H 0.68961 0.74877 0.48985 0.0
H25 H 0.70489 0.71351 0.46957 0.0
C26 C 0.78772 0.22063 0.04446 0.0
N27 N 0.80826 0.19928 0.03461 0.0
N28 N 0.77744 0.23665 1.00231 0.0
C29 C 0.77922 0.22746 0.09577 0.0
C30 C 0.79239 0.2244 0.96644 0.0
N31 N 0.81135 0.2019 0.98609 0.0
C32 C 0.78669 0.23286 0.91146 0.0
H33 H 0.76043 0.21213 0.10271 0.0
H34 H 0.77144 0.25147 0.09817 0.0
H35 H 0.7987 0.22345 0.12562 0.0
H36 H 0.80358 0.25023 0.9038 0.0
H37 H 0.76371 0.24269 0.90123 0.0
H38 H 0.78912 0.21263 0.88727 0.0
C39 C 0.27579 0.29867 0.44164 0.0
N40 N 0.29588 0.32029 0.46123 0.0
N41 N 0.26019 0.28767 0.47752 0.0
C42 C 0.26961 0.28991 0.38678 0.0
C43 C 0.27118 0.30345 0.51957 0.0
N44 N 0.29281 0.32341 0.50968 0.0
C45 C 0.26146 0.29868 0.57052 0.0
H46 H 0.24674 0.27973 0.37724 0.0
H47 H 0.28662 0.27274 0.37862 0.0
H48 H 0.27146 0.31012 0.36243 0.0
H49 H 0.25083 0.27591 0.57306 0.0
H50 H 0.24464 0.31652 0.57675 0.0
H51 H 0.28109 0.30091 0.60068 0.0
O52 O -0.00187 0.06988 0.64299 0.0
Mg53 Mg 0.03626 0.04875 0.62169 0.0
O54 O 0.96998 0.03283 0.60518 0.0
Mg55 Mg 0.00022 0.00504 0.55402 0.0
O56 O 0.03602 0.04392 0.5458 0.0
O57 O 0.06529 0.07733 0.59477 0.0
O58 O 0.0322 0.97893 0.50279 0.0
O59 O 0.97255 0.02932 0.48348 0.0
Mg60 Mg 0.97449 0.95973 0.49174 0.0
O61 O 0.96248 0.96712 0.56204 0.0
O62 O 0.01273 0.93372 0.48533 0.0
O63 O 0.95942 0.99046 0.43293 0.0
O64 O 0.94099 0.93218 0.50604 0.0
C65 C 0.04822 0.98695 0.6619 0.0
C66 C 0.97283 0.05663 0.6333 0.0
C67 C 0.0561 0.0658 0.55094 0.0
C68 C 0.03441 0.95204 0.48483 0.0
C69 C 0.96039 0.01899 0.44077 0.0
C70 C 0.94324 0.94494 0.5498 0.0
O71 O 0.05705 0.01432 0.66765 0.0
O72 O 0.028 0.97976 0.62499 0.0
O73 O 0.52432 0.49078 0.15981 0.0
Mg74 Mg 0.51025 0.4617 0.09733 0.0
O75 O 0.52191 0.5293 0.10711 0.0
Mg76 Mg 0.49335 0.5066 0.03653 0.0
O77 O 0.52835 0.46497 0.03121 0.0
O78 O 0.54226 0.43037 0.09239 0.0
O79 O 0.46451 0.48402 0.96468 0.0
O80 O 0.52717 0.52991 0.98693 0.0
Mg81 Mg 0.46315 0.55581 0.96604 0.0
O82 O 0.46073 0.54827 0.04039 0.0
O83 O 0.44091 0.5216 0.91974 0.0
O84 O 0.50532 0.57139 0.95142 0.0
O85 O 0.4367 0.58664 0.99577 0.0
C86 C 0.45084 0.45825 0.09825 0.0
C87 C 0.52912 0.51866 0.15144 0.0
C88 C 0.54432 0.4412 0.04832 0.0
C89 C 0.44616 0.49335 0.92669 0.0
C90 C 0.52827 0.55429 0.96099 0.0
C91 C 0.44288 0.57198 0.03769 0.0
O92 O 0.47003 0.4376 0.09478 0.0
O93 O 0.4571 0.4855 0.08612 0.0
C94 C 0.244 0.23424 0.46399 0.0
C95 C 0.2368 0.26491 0.47167 0.0
C96 C 0.22125 0.212 0.45833 0.0
C97 C 0.14214 0.19936 0.48368 0.0
H98 H 0.1495 0.12519 0.40656 0.0
C99 C 0.05463 0.1061 0.48681 0.0
C100 C 0.0683 0.07937 0.50801 0.0
C101 C 0.07184 0.12774 0.46496 0.0
C102 C 0.14704 0.14593 0.42781 0.0
H103 H 0.20075 0.29703 0.4778 0.0
H104 H 0.16052 0.25862 0.4659 0.0
H105 H 0.18642 0.16632 0.40439 0.0
H106 H 0.10955 0.05271 0.51901 0.0
H107 H 0.1395 0.09003 0.47955 0.0
H108 H 0.10292 0.17895 0.50722 0.0
C109 C 0.1837 0.25122 0.46595 0.0
C110 C 0.16835 0.16941 0.42708 0.0
C111 C 0.20658 0.2733 0.47253 0.0
C112 C 0.09839 0.07289 0.50182 0.0
C113 C 0.11557 0.09439 0.47956 0.0
C114 C 0.12065 0.17619 0.4837 0.0
C115 C 0.19072 0.22013 0.45936 0.0
C116 C 0.16658 0.19621 0.45595 0.0
C117 C 0.10295 0.12287 0.46399 0.0
C118 C 0.12315 0.14897 0.45658 0.0
H119 H 0.26733 0.22755 0.46318 0.0
H120 H 0.22778 0.18837 0.45432 0.0
H121 H 0.14017 0.21919 0.50728 0.0
H122 H 0.03162 0.11183 0.49216 0.0
H123 H 0.06147 0.14938 0.45278 0.0
C124 C 0.2807 0.76598 0.14373 0.0
C125 C 0.25121 0.75829 0.12199 0.0
C126 C 0.30339 0.74368 0.15077 0.0
C127 C 0.31662 0.65968 0.15458 0.0
H128 H 0.39306 0.6816 0.11092 0.0
C129 C 0.39709 0.5741 0.07919 0.0
C130 C 0.42758 0.58208 0.07987 0.0
C131 C 0.37771 0.59294 0.10236 0.0
C132 C 0.37224 0.67512 0.12467 0.0
H133 H 0.22193 0.7215 0.09146 0.0
H134 H 0.26169 0.68234 0.10271 0.0
H135 H 0.35453 0.72041 0.11405 0.0
H136 H 0.46263 0.61407 0.10895 0.0
H137 H 0.42921 0.64638 0.1516 0.0
H138 H 0.33414 0.61404 0.16361 0.0
C139 C 0.26729 0.70549 0.11503 0.0
C140 C 0.35 0.69748 0.12619 0.0
C141 C 0.24462 0.72786 0.10799 0.0
C142 C 0.43925 0.60723 0.10872 0.0
C143 C 0.41995 0.62599 0.13228 0.0
C144 C 0.33898 0.63725 0.15324 0.0
C145 C 0.29703 0.71319 0.13613 0.0
C146 C 0.32165 0.68992 0.13999 0.0
C147 C 0.38857 0.62018 0.12648 0.0
C148 C 0.36684 0.64454 0.13708 0.0
H149 H 0.28622 0.78938 0.15461 0.0
H150 H 0.32596 0.75035 0.16749 0.0
H151 H 0.29519 0.65322 0.16623 0.0
H152 H 0.38752 0.55514 0.05616 0.0
H153 H 0.35374 0.58769 0.09681 0.0
C154 C 0.73313 0.78422 0.58436 0.0
C155 C 0.74321 0.7549 0.5997 0.0
C156 C 0.75299 0.80912 0.59059 0.0
C157 C 0.82865 0.83369 0.65674 0.0
H158 H 0.82438 0.89152 0.54656 0.0
C159 C 0.92879 0.90549 0.60766 0.0
C160 C 0.92274 0.93387 0.58413 0.0
C161 C 0.9053 0.88831 0.62312 0.0
C162 C 0.82555 0.87603 0.57828 0.0
H163 H 0.78152 0.72828 0.6335 0.0
H164 H 0.81667 0.77146 0.64334 0.0
H165 H 0.78633 0.85175 0.5446 0.0
H166 H 0.88813 0.96759 0.56102 0.0
H167 H 0.84699 0.93789 0.58883 0.0
H168 H 0.86889 0.85735 0.68903 0.0
C169 C 0.79332 0.77562 0.62762 0.0
C170 C 0.80367 0.8531 0.57712 0.0
C171 C 0.77336 0.75082 0.62169 0.0
C172 C 0.89339 0.94603 0.58013 0.0
C173 C 0.86982 0.9288 0.59533 0.0
C174 C 0.8507 0.85656 0.6577 0.0
C175 C 0.78346 0.80513 0.61198 0.0
C176 C 0.80522 0.83123 0.61583 0.0
C177 C 0.87527 0.89908 0.61455 0.0
C178 C 0.84969 0.87768 0.61803 0.0
H179 H 0.7098 0.7878 0.56789 0.0
H180 H 0.74441 0.83152 0.57879 0.0
H181 H 0.83025 0.81766 0.68776 0.0
H182 H 0.95115 0.89537 0.60988 0.0
H183 H 0.91029 0.86545 0.63742 0.0
C184 C 0.72523 0.25373 1.00627 0.0
C185 C 0.75457 0.26008 0.9961 0.0
C186 C 0.70262 0.27605 0.99845 0.0
C187 C 0.69012 0.35845 0.99387 0.0
H188 H 0.60956 0.3354 0.9315 0.0
C189 C 0.58798 0.43956 0.9983 0.0
C190 C 0.56422 0.42479 0.01782 0.0
C191 C 0.611 0.42222 0.98081 0.0
C192 C 0.63195 0.34228 0.94884 0.0
H193 H 0.78372 0.29436 0.9704 0.0
H194 H 0.74416 0.33398 0.9575 0.0
H195 H 0.65126 0.29909 0.93284 0.0
H196 H 0.54444 0.38094 0.0313 0.0
H197 H 0.5838 0.35094 1.00049 0.0
H198 H 0.6705 0.40102 0.01241 0.0
C199 C 0.7386 0.3117 0.97119 0.0
C200 C 0.65579 0.32145 0.94968 0.0
C201 C 0.76113 0.28917 0.97843 0.0
C202 C 0.56252 0.3928 0.01616 0.0
C203 C 0.58508 0.37561 0.99825 0.0
C204 C 0.66616 0.37925 0.99344 0.0
C205 C 0.70903 0.30526 0.98076 0.0
C206 C 0.6849 0.32894 0.97365 0.0
C207 C 0.61019 0.38999 0.98202 0.0
C208 C 0.63657 0.37098 0.97248 0.0
H209 H 0.71981 0.23134 0.01967 0.0
H210 H 0.68016 0.27056 1.00684 0.0
H211 H 0.71234 0.36483 0.01265 0.0
H212 H 0.58984 0.46425 0.99975 0.0
H213 H 0.62995 0.43396 0.9682 0.0
C214 C 0.15126 0.83961 0.15558 0.0
C215 C 0.18216 0.84307 0.15251 0.0
C216 C 0.13724 0.85795 0.18847 0.0
C217 C 0.15702 0.90211 0.30647 0.0
H218 H 0.07141 0.92192 0.28451 0.0
C219 C 0.07752 0.96608 0.43747 0.0
C220 C 0.05891 0.94368 0.45509 0.0
C221 C 0.09611 0.9586 0.40094 0.0
C222 C 0.09545 0.91687 0.29077 0.0
H223 H 0.22235 0.86936 0.17803 0.0
H224 H 0.19785 0.90221 0.23462 0.0
H225 H 0.09564 0.90178 0.21477 0.0
H226 H 0.04696 0.8955 0.45084 0.0
H227 H 0.07914 0.88281 0.3873 0.0
H228 H 0.15633 0.91686 0.38296 0.0
C229 C 0.18447 0.88488 0.21288 0.0
C230 C 0.10928 0.90507 0.25109 0.0
C231 C 0.19846 0.86635 0.18026 0.0
C232 C 0.0608 0.91338 0.43791 0.0
C233 C 0.07913 0.90605 0.40147 0.0
C234 C 0.14318 0.91419 0.34604 0.0
C235 C 0.15389 0.88027 0.21866 0.0
C236 C 0.14008 0.89675 0.25873 0.0
C237 C 0.09625 0.9287 0.38177 0.0
C238 C 0.11218 0.92101 0.33866 0.0
H239 H 0.13848 0.82152 0.13476 0.0
H240 H 0.11378 0.85342 0.1922 0.0
H241 H 0.18065 0.89559 0.31411 0.0
H242 H 0.0765 0.98962 0.44978 0.0
H243 H 0.10927 0.97636 0.38609 0.0
C244 C 0.64891 0.66569 0.63126 0.0
C245 C 0.68062 0.66614 0.63617 0.0
C246 C 0.63416 0.6483 0.66421 0.0
C247 C 0.64548 0.58952 0.76685 0.0
H248 H 0.57925 0.63382 0.81335 0.0
C249 C 0.56742 0.54076 0.90617 0.0
C250 C 0.55504 0.56207 0.93693 0.0
C251 C 0.58629 0.55063 0.87158 0.0
C252 C 0.59795 0.62123 0.8014 0.0
H253 H 0.72178 0.64708 0.67632 0.0
H254 H 0.69627 0.61748 0.73531 0.0
H255 H 0.6035 0.65467 0.74568 0.0
H256 H 0.55482 0.60957 0.95956 0.0
H257 H 0.58891 0.62653 0.90169 0.0
H258 H 0.64031 0.55655 0.82435 0.0
C259 C 0.6826 0.63019 0.7058 0.0
C260 C 0.61152 0.63293 0.76165 0.0
C261 C 0.69728 0.64732 0.67237 0.0
C262 C 0.56402 0.59275 0.93604 0.0
C263 C 0.5832 0.60248 0.90234 0.0
C264 C 0.6319 0.5778 0.80703 0.0
C265 C 0.65087 0.6313 0.70327 0.0
C266 C 0.63552 0.61736 0.7438 0.0
C267 C 0.59325 0.5819 0.86775 0.0
C268 C 0.60816 0.59373 0.82514 0.0
H269 H 0.6356 0.68012 0.60376 0.0
H270 H 0.60967 0.64912 0.66023 0.0
H271 H 0.66376 0.57676 0.75388 0.0
H272 H 0.56049 0.51702 0.90582 0.0
H273 H 0.59365 0.53413 0.84561 0.0
C274 C 0.81022 0.16131 0.10297 0.0
C275 C 0.82525 0.17913 0.07069 0.0
C276 C 0.8266 0.14487 0.14242 0.0
C277 C 0.90136 0.1118 0.1881 0.0
H278 H 0.87361 0.1166 0.31903 0.0
C279 C 0.94091 0.02819 0.34993 0.0
C280 C 0.94763 0.03976 0.39931 0.0
C281 C 0.9283 0.04692 0.31036 0.0
C282 C 0.88183 0.11528 0.28287 0.0
H283 H 0.86908 0.19285 0.05278 0.0
H284 H 0.89803 0.16343 0.12123 0.0
H285 H 0.84684 0.14495 0.2478 0.0
H286 H 0.94658 0.08039 0.44554 0.0
H287 H 0.92393 0.11323 0.37603 0.0
H288 H 0.93613 0.08182 0.22306 0.0
C289 C 0.87352 0.16234 0.11625 0.0
C290 C 0.86629 0.13123 0.24191 0.0
C291 C 0.85704 0.17904 0.07699 0.0
C292 C 0.94164 0.07076 0.408 0.0
C293 C 0.92859 0.0895 0.36827 0.0
C294 C 0.9167 0.09559 0.22893 0.0
C295 C 0.85844 0.14561 0.15012 0.0
C296 C 0.87569 0.12944 0.19392 0.0
C297 C 0.92177 0.07773 0.319 0.0
C298 C 0.90695 0.09691 0.27669 0.0
H299 H 0.78571 0.16068 0.09824 0.0
H300 H 0.81431 0.13169 0.16713 0.0
H301 H 0.90913 0.10988 0.15164 0.0
H302 H 0.94533 0.00448 0.34167 0.0
H303 H 0.923 0.03703 0.27305 0.0
C304 C 0.29726 0.36515 0.57194 0.0
C305 C 0.31099 0.34238 0.54596 0.0
C306 C 0.3141 0.38123 0.61142 0.0
C307 C 0.37936 0.37386 0.70916 0.0
H308 H 0.37237 0.46188 0.71964 0.0
C309 C 0.44552 0.44561 0.87352 0.0
C310 C 0.43085 0.47179 0.88875 0.0
C311 C 0.43229 0.42843 0.83176 0.0
C312 C 0.37427 0.43723 0.71787 0.0
H313 H 0.35274 0.31849 0.53985 0.0
H314 H 0.3825 0.34643 0.60984 0.0
H315 H 0.34723 0.43565 0.64525 0.0
H316 H 0.39003 0.49919 0.87484 0.0
H317 H 0.3665 0.46876 0.80433 0.0
H318 H 0.4056 0.3753 0.7826 0.0
C319 C 0.35876 0.35196 0.59947 0.0
C320 C 0.36 0.42226 0.67493 0.0
C321 C 0.34195 0.33624 0.55932 0.0
C322 C 0.40208 0.47937 0.86351 0.0
C323 C 0.38872 0.46206 0.82262 0.0
C324 C 0.39338 0.38884 0.7526 0.0
C325 C 0.34492 0.37446 0.62621 0.0
C326 C 0.36207 0.3904 0.6703 0.0
C327 C 0.40401 0.43695 0.80496 0.0
C328 C 0.39062 0.42072 0.75789 0.0
H329 H 0.27333 0.36997 0.5622 0.0
H330 H 0.30276 0.39828 0.63152 0.0
H331 H 0.38116 0.34922 0.70672 0.0
H332 H 0.46781 0.43936 0.89216 0.0
H333 H 0.44479 0.40927 0.81932 0.0
C334 C 0.67856 0.64546 0.51442 0.0
C335 C 0.6711 0.67597 0.52283 0.0
C336 C 0.66204 0.62873 0.47526 0.0
C337 C 0.60823 0.63953 0.35613 0.0
H338 H 0.59967 0.55178 0.36679 0.0
C339 C 0.55919 0.56495 0.18436 0.0
C340 C 0.54323 0.53832 0.19343 0.0
C341 C 0.57393 0.58221 0.22468 0.0
C342 C 0.60135 0.57634 0.36318 0.0
H343 H 0.64017 0.7128 0.49908 0.0
H344 H 0.61018 0.68342 0.43213 0.0
H345 H 0.62506 0.58035 0.43788 0.0
H346 H 0.52902 0.50972 0.25184 0.0
H347 H 0.55324 0.54034 0.32167 0.0
H348 H 0.58317 0.63568 0.28227 0.0
C349 C 0.62941 0.67247 0.45415 0.0
C350 C 0.61652 0.59276 0.40394 0.0
C351 C 0.64629 0.68928 0.49276 0.0
C352 C 0.54151 0.5299 0.24355 0.0
C353 C 0.55568 0.5474 0.28373 0.0
C354 C 0.5926 0.62316 0.31563 0.0
C355 C 0.63733 0.64206 0.44417 0.0
C356 C 0.62037 0.62461 0.40102 0.0
C357 C 0.57258 0.57356 0.27506 0.0
C358 C 0.589 0.59127 0.31841 0.0
H359 H 0.69785 0.63499 0.53707 0.0
H360 H 0.6693 0.60564 0.46856 0.0
H361 H 0.61107 0.66391 0.35179 0.0
H362 H 0.56104 0.57195 0.14613 0.0
H363 H 0.58698 0.60192 0.21619 0.0
C364 C 0.82324 0.15138 0.95248 0.0
C365 C 0.82934 0.18277 0.95802 0.0
C366 C 0.83611 0.13418 0.91655 0.0
C367 C 0.86417 0.14604 0.79559 0.0
H368 H 0.90151 0.06608 0.8155 0.0
C369 C 0.94667 0.09977 0.66929 0.0
C370 C 0.94764 0.06841 0.65838 0.0
C371 C 0.92713 0.11102 0.7013 0.0
C372 C 0.89056 0.08812 0.80904 0.0
H373 H 0.85498 0.22044 0.93382 0.0
H374 H 0.87777 0.19061 0.87147 0.0
H375 H 0.87956 0.09052 0.88461 0.0
H376 H 0.928 0.02427 0.67073 0.0
H377 H 0.89351 0.04407 0.72745 0.0
H378 H 0.87542 0.14408 0.7206 0.0
C379 C 0.86266 0.17926 0.89387 0.0
C380 C 0.87817 0.10216 0.8487 0.0
C381 C 0.84994 0.19628 0.92974 0.0
C382 C 0.92748 0.04861 0.67819 0.0
C383 C 0.90805 0.05988 0.71103 0.0
C384 C 0.87636 0.13202 0.75608 0.0
C385 C 0.85508 0.14829 0.8856 0.0
C386 C 0.86569 0.13169 0.84278 0.0
C387 C 0.90815 0.09117 0.7237 0.0
C388 C 0.89053 0.10331 0.76273 0.0
H389 H 0.80718 0.14069 0.97378 0.0
H390 H 0.82993 0.11034 0.9111 0.0
H391 H 0.85395 0.16844 0.78942 0.0
H392 H 0.962 0.11556 0.65461 0.0
H393 H 0.92812 0.13515 0.71058 0.0
C394 C 0.33225 0.32557 0.40065 0.0
C395 C 0.31399 0.33919 0.43312 0.0
C396 C 0.34447 0.34312 0.36499 0.0
C397 C 0.36726 0.41807 0.32759 0.0
H398 H 0.34368 0.38762 0.19164 0.0
C399 C 0.41367 0.47272 0.15689 0.0
C400 C 0.42503 0.45107 0.12545 0.0
C401 C 0.39483 0.46343 0.19197 0.0
C402 C 0.35061 0.39642 0.2293 0.0
H403 H 0.29601 0.38199 0.45672 0.0
H404 H 0.31856 0.41321 0.39521 0.0
H405 H 0.32494 0.36247 0.26224 0.0
H406 H 0.42373 0.40338 0.10313 0.0
H407 H 0.39135 0.38729 0.16349 0.0
H408 H 0.39433 0.45101 0.29503 0.0
C409 C 0.32291 0.38883 0.39695 0.0
C410 C 0.33982 0.38201 0.26968 0.0
C411 C 0.31024 0.37109 0.43225 0.0
C412 C 0.41536 0.42059 0.12692 0.0
C413 C 0.3966 0.41139 0.16156 0.0
C414 C 0.37852 0.43227 0.28711 0.0
C415 C 0.33913 0.37476 0.36178 0.0
C416 C 0.34862 0.3922 0.31927 0.0
C417 C 0.38687 0.43242 0.19575 0.0
C418 C 0.37097 0.42106 0.23756 0.0
H419 H 0.33572 0.30106 0.40124 0.0
H420 H 0.35733 0.33182 0.33879 0.0
H421 H 0.37424 0.42638 0.36556 0.0
H422 H 0.42088 0.49636 0.15674 0.0
H423 H 0.38738 0.48031 0.21723 0.0
C424 C 0.17439 0.85995 0.03358 0.0
C425 C 0.17125 0.82843 0.04047 0.0
C426 C 0.15689 0.87489 0.99351 0.0
C427 C 0.11389 0.86015 0.86714 0.0
H428 H 0.08826 0.94408 0.88118 0.0
C429 C 0.04835 0.93498 0.70406 0.0
C430 C 0.0607 0.96441 0.70091 0.0
C431 C 0.05883 0.91569 0.74483 0.0
C432 C 0.09525 0.92061 0.87665 0.0
H433 H 0.14666 0.78792 0.01262 0.0
H434 H 0.11568 0.81397 0.94253 0.0
H435 H 0.11094 0.91603 0.95541 0.0
H436 H 0.09486 -0.00418 0.73701 0.0
H437 H 0.11263 0.96263 0.80697 0.0
H438 H 0.09828 0.86516 0.78792 0.0
C439 C 0.13203 0.82714 0.96744 0.0
C440 C 0.10839 0.90456 0.91918 0.0
C441 C 0.1496 0.81223 1.00759 0.0
C442 C 0.08442 0.97354 0.73826 0.0
C443 C 0.09459 0.95455 0.77873 0.0
C444 C 0.10052 0.87624 0.82446 0.0
C445 C 0.13574 0.85862 0.95945 0.0
C446 C 0.11864 0.87439 0.91489 0.0
C447 C 0.08158 0.9257 0.78319 0.0
C448 C 0.09184 0.90692 0.82863 0.0
H449 H 0.19125 0.87276 0.05809 0.0
H450 H 0.16077 0.89903 0.98822 0.0
H451 H 0.12167 0.83701 0.86229 0.0
H452 H 0.03009 0.92723 0.67597 0.0
H453 H 0.0485 0.89344 0.74724 0.0
loop_
_geom_bond_atom_site_label_1
_geom_bond_atom_site_label_2
_geom_bond_distance
_geom_bond_site_symmetry_2
_ccdc_geom_bond_type
C0 N1 1.317 . S
C0 N2 1.348 . S
C0 C3 1.485 1_554 S
N1 C0 1.317 . S
N1 N5 1.370 . S
N2 C0 1.348 . S
N2 C4 1.346 . S
C3 C0 1.485 1_556 S
C3 H7 0.960 . S
C3 H8 0.961 . S
C3 H9 0.960 . S
C4 N2 1.346 . S
C4 N5 1.307 . S
C4 C6 1.486 . S
N5 N1 1.370 . S
N5 C4 1.307 . S
C6 C4 1.486 . S
C6 H10 0.960 . S
C6 H11 0.960 . S
C6 H12 0.959 . S
H7 C3 0.960 . S
H8 C3 0.961 . S
H9 C3 0.960 . S
H10 C6 0.960 . S
H11 C6 0.960 . S
H12 C6 0.959 . S
C13 N14 1.317 . S
C13 N15 1.348 . S
C13 C16 1.485 . S
N14 C13 1.317 . S
N14 N18 1.370 . S
N15 C13 1.348 . S
N15 C17 1.346 . S
C16 C13 1.485 . S
C16 H20 0.960 . S
C16 H21 0.961 . S
C16 H22 0.960 . S
C17 N15 1.346 . S
C17 N18 1.307 . S
C17 C19 1.486 . S
N18 N14 1.370 . S
N18 C17 1.307 . S
C19 C17 1.486 . S
C19 H23 0.960 . S
C19 H24 0.960 . S
C19 H25 0.959 . S
H20 C16 0.960 . S
H21 C16 0.961 . S
H22 C16 0.960 . S
H23 C19 0.960 . S
H24 C19 0.960 . S
H25 C19 0.959 . S
C26 N27 1.317 . S
C26 N28 1.348 . S
C26 C29 1.485 . S
N27 C26 1.317 . S
N27 N31 1.370 1_554 S
N28 C26 1.348 . S
N28 C30 1.346 1_554 S
C29 C26 1.485 . S
C29 H33 0.960 . S
C29 H34 0.961 . S
C29 H35 0.960 . S
C30 N28 1.346 1_556 S
C30 N31 1.307 . S
C30 C32 1.486 . S
N31 N27 1.370 1_556 S
N31 C30 1.307 . S
C32 C30 1.486 . S
C32 H36 0.960 . S
C32 H37 0.960 . S
C32 H38 0.959 . S
H33 C29 0.960 . S
H34 C29 0.961 . S
H35 C29 0.960 . S
H36 C32 0.960 . S
H37 C32 0.960 . S
H38 C32 0.959 . S
C39 N40 1.317 . S
C39 N41 1.348 . S
C39 C42 1.485 . S
N40 C39 1.317 . S
N40 N44 1.370 . S
N41 C39 1.348 . S
N41 C43 1.346 . S
C42 C39 1.485 . S
C42 H46 0.960 . S
C42 H47 0.961 . S
C42 H48 0.960 . S
C43 N41 1.346 . S
C43 N44 1.307 . S
C43 C45 1.486 . S
N44 N40 1.370 . S
N44 C43 1.307 . S
C45 C43 1.486 . S
C45 H49 0.960 . S
C45 H50 0.960 . S
C45 H51 0.959 . S
H46 C42 0.960 . S
H47 C42 0.961 . S
H48 C42 0.960 . S
H49 C45 0.960 . S
H50 C45 0.960 . S
H51 C45 0.959 . S
O52 Mg53 1.990 . S
O52 C66 1.253 1_455 S
Mg53 O52 1.990 . S
Mg53 O56 2.180 . S
Mg53 O57 2.117 . S
Mg53 O71 2.030 . S
O54 Mg55 2.072 1_655 S
O54 C66 1.260 . S
Mg55 O54 2.072 1_455 S
Mg55 O56 2.099 . S
Mg55 O58 2.079 1_545 S
Mg55 O59 2.072 1_455 S
Mg55 O61 2.099 1_445 S
Mg55 O72 2.079 1_545 S
O56 Mg53 2.180 . S
O56 Mg55 2.099 . S
O56 C67 1.279 . S
O57 Mg53 2.117 . S
O57 C67 1.250 . S
O58 Mg55 2.079 1_565 S
O58 C68 1.264 . S
O59 Mg55 2.072 1_655 S
O59 C69 1.260 . S
Mg60 O61 2.180 . S
Mg60 O62 2.030 1_655 S
Mg60 O63 1.990 1_565 S
Mg60 O64 2.117 . S
O61 Mg55 2.099 1_665 S
O61 Mg60 2.180 . S
O61 C70 1.279 . S
O62 Mg60 2.030 1_455 S
O62 C68 1.248 . S
O63 Mg60 1.990 1_545 S
O63 C69 1.253 . S
O64 Mg60 2.117 . S
O64 C70 1.250 . S
C65 O71 1.248 1_565 S
C65 O72 1.264 . S
C66 O52 1.253 1_655 S
C66 O54 1.260 . S
C67 O56 1.279 . S
C67 O57 1.250 . S
C68 O58 1.264 . S
C68 O62 1.248 . S
C69 O59 1.260 . S
C69 O63 1.253 . S
C70 O61 1.279 . S
C70 O64 1.250 . S
O71 Mg53 2.030 . S
O71 C65 1.248 1_545 S
O72 Mg55 2.079 1_565 S
O72 C65 1.264 . S
O73 Mg74 1.990 . S
O73 C87 1.253 . S
Mg74 O73 1.990 . S
Mg74 O77 2.180 . S
Mg74 O78 2.117 . S
Mg74 O92 2.030 . S
O75 Mg76 2.072 . S
O75 C87 1.260 . S
Mg76 O75 2.072 . S
Mg76 O77 2.099 . S
Mg76 O79 2.079 1_554 S
Mg76 O80 2.072 1_554 S
Mg76 O82 2.099 . S
Mg76 O93 2.079 . S
O77 Mg74 2.180 . S
O77 Mg76 2.099 . S
O77 C88 1.279 . S
O78 Mg74 2.117 . S
O78 C88 1.250 . S
O79 Mg76 2.079 1_556 S
O79 C89 1.264 . S
O80 Mg76 2.072 1_556 S
O80 C90 1.260 . S
Mg81 O82 2.180 1_556 S
Mg81 O83 2.030 . S
Mg81 O84 1.990 . S
Mg81 O85 2.117 . S
O82 Mg76 2.099 . S
O82 Mg81 2.180 1_554 S
O82 C91 1.279 . S
O83 Mg81 2.030 . S
O83 C89 1.248 . S
O84 Mg81 1.990 . S
O84 C90 1.253 . S
O85 Mg81 2.117 . S
O85 C91 1.250 1_556 S
C86 O92 1.248 . S
C86 O93 1.264 . S
C87 O73 1.253 . S
C87 O75 1.260 . S
C88 O77 1.279 . S
C88 O78 1.250 . S
C89 O79 1.264 . S
C89 O83 1.248 . S
C90 O80 1.260 . S
C90 O84 1.253 . S
C91 O82 1.279 . S
C91 O85 1.250 1_554 S
O92 Mg74 2.030 . S
O92 C86 1.248 . S
O93 Mg76 2.079 . S
O93 C86 1.264 . S
C94 C95 1.349 . S
C94 C96 1.327 . S
C94 H119 0.950 . S
C95 C94 1.349 . S
C95 C111 1.349 . S
C96 C94 1.327 . S
C96 C115 1.429 . S
C96 H120 0.950 . S
C97 C114 1.574 . S
C97 C116 1.368 . S
C97 H121 0.949 . S
H98 C102 0.949 . S
C99 C100 1.349 . S
C99 C101 1.327 . S
C99 H122 0.950 . S
C100 C99 1.349 . S
C100 C112 1.349 . S
C101 C99 1.327 . S
C101 C117 1.429 . S
C101 H123 0.950 . S
C102 H98 0.949 . S
C102 C110 1.574 . S
C102 C118 1.368 . S
H103 C111 0.950 . S
H104 C109 0.950 . S
H105 C110 0.949 . S
H106 C112 0.950 . S
H107 C113 0.950 . S
H108 C114 0.949 . S
C109 H104 0.950 . S
C109 C111 1.327 . S
C109 C115 1.429 . S
C110 C102 1.574 . S
C110 H105 0.949 . S
C110 C116 1.368 . S
C111 C95 1.349 . S
C111 H103 0.950 . S
C111 C109 1.327 . S
C112 C100 1.349 . S
C112 H106 0.950 . S
C112 C113 1.327 . S
C113 H107 0.950 . S
C113 C112 1.327 . S
C113 C117 1.429 . S
C114 C97 1.574 . S
C114 H108 0.949 . S
C114 C118 1.368 . S
C115 C96 1.429 . S
C115 C109 1.429 . S
C115 C116 1.523 . S
C116 C97 1.368 . S
C116 C110 1.368 . S
C116 C115 1.523 . S
C117 C101 1.429 . S
C117 C113 1.429 . S
C117 C118 1.523 . S
C118 C102 1.368 . S
C118 C114 1.368 . S
C118 C117 1.523 . S
H119 C94 0.950 . S
H120 C96 0.950 . S
H121 C97 0.949 . S
H122 C99 0.950 . S
H123 C101 0.950 . S
C124 C125 1.349 . S
C124 C126 1.327 . S
C124 H149 0.950 . S
C125 C124 1.349 . S
C125 C141 1.349 . S
C126 C124 1.327 . S
C126 C145 1.429 . S
C126 H150 0.950 . S
C127 C144 1.574 . S
C127 C146 1.368 . S
C127 H151 0.949 . S
H128 C132 0.949 . S
C129 C130 1.349 . S
C129 C131 1.327 . S
C129 H152 0.950 . S
C130 C129 1.349 . S
C130 C142 1.349 . S
C131 C129 1.327 . S
C131 C147 1.429 . S
C131 H153 0.950 . S
C132 H128 0.949 . S
C132 C140 1.574 . S
C132 C148 1.368 . S
H133 C141 0.950 . S
H134 C139 0.950 . S
H135 C140 0.949 . S
H136 C142 0.950 1_556 S
H137 C143 0.950 1_556 S
H138 C144 0.949 . S
C139 H134 0.950 . S
C139 C141 1.327 . S
C139 C145 1.429 . S
C140 C132 1.574 . S
C140 H135 0.949 . S
C140 C146 1.368 . S
C141 C125 1.349 . S
C141 H133 0.950 . S
C141 C139 1.327 . S
C142 C130 1.349 . S
C142 H136 0.950 1_554 S
C142 C143 1.327 . S
C143 H137 0.950 1_554 S
C143 C142 1.327 . S
C143 C147 1.429 . S
C144 C127 1.574 . S
C144 H138 0.949 . S
C144 C148 1.368 . S
C145 C126 1.429 . S
C145 C139 1.429 . S
C145 C146 1.523 . S
C146 C127 1.368 . S
C146 C140 1.368 . S
C146 C145 1.523 . S
C147 C131 1.429 . S
C147 C143 1.429 . S
C147 C148 1.523 . S
C148 C132 1.368 . S
C148 C144 1.368 . S
C148 C147 1.523 . S
H149 C124 0.950 . S
H150 C126 0.950 . S
H151 C127 0.949 . S
H152 C129 0.950 . S
H153 C131 0.950 . S
C154 C155 1.349 . S
C154 C156 1.327 . S
C154 H179 0.950 . S
C155 C154 1.349 . S
C155 C171 1.349 . S
C156 C154 1.327 . S
C156 C175 1.429 . S
C156 H180 0.950 . S
C157 C174 1.574 . S
C157 C176 1.368 . S
C157 H181 0.949 . S
H158 C162 0.949 . S
C159 C160 1.349 . S
C159 C161 1.327 . S
C159 H182 0.950 . S
C160 C159 1.349 . S
C160 C172 1.349 . S
C161 C159 1.327 . S
C161 C177 1.429 . S
C161 H183 0.950 . S
C162 H158 0.949 . S
C162 C170 1.574 . S
C162 C178 1.368 . S
H163 C171 0.950 . S
H164 C169 0.950 . S
H165 C170 0.949 . S
H166 C172 0.950 . S
H167 C173 0.950 . S
H168 C174 0.949 . S
C169 H164 0.950 . S
C169 C171 1.327 . S
C169 C175 1.429 . S
C170 C162 1.574 . S
C170 H165 0.949 . S
C170 C176 1.368 . S
C171 C155 1.349 . S
C171 H163 0.950 . S
C171 C169 1.327 . S
C172 C160 1.349 . S
C172 H166 0.950 . S
C172 C173 1.327 . S
C173 H167 0.950 . S
C173 C172 1.327 . S
C173 C177 1.429 . S
C174 C157 1.574 . S
C174 H168 0.949 . S
C174 C178 1.368 . S
C175 C156 1.429 . S
C175 C169 1.429 . S
C175 C176 1.523 . S
C176 C157 1.368 . S
C176 C170 1.368 . S
C176 C175 1.523 . S
C177 C161 1.429 . S
C177 C173 1.429 . S
C177 C178 1.523 . S
C178 C162 1.368 . S
C178 C174 1.368 . S
C178 C177 1.523 . S
H179 C154 0.950 . S
H180 C156 0.950 . S
H181 C157 0.949 . S
H182 C159 0.950 . S
H183 C161 0.950 . S
C184 C185 1.339 1_556 S
C184 C186 1.327 . S
C184 H209 0.950 . S
C185 C184 1.339 1_554 S
C185 C201 1.361 . S
C186 C184 1.327 . S
C186 C205 1.429 1_556 S
C186 H210 0.950 . S
C187 C204 1.574 . S
C187 C206 1.368 . S
C187 H211 0.949 . S
H188 C192 0.949 . S
C189 C190 1.349 . S
C189 C191 1.327 . S
C189 H212 0.950 . S
C190 C189 1.349 . S
C190 C202 1.349 1_554 S
C191 C189 1.327 . S
C191 C207 1.429 . S
C191 H213 0.950 . S
C192 H188 0.949 . S
C192 C200 1.574 . S
C192 C208 1.368 1_556 S
H193 C201 0.950 . S
H194 C199 0.950 . S
H195 C200 0.949 . S
H196 C202 0.950 . S
H197 C203 0.950 . S
H198 C204 0.949 . S
C199 H194 0.950 . S
C199 C201 1.327 . S
C199 C205 1.429 . S
C200 C192 1.574 . S
C200 H195 0.949 . S
C200 C206 1.368 1_556 S
C201 C185 1.361 . S
C201 H193 0.950 . S
C201 C199 1.327 . S
C202 C190 1.349 1_556 S
C202 H196 0.950 . S
C202 C203 1.327 . S
C203 H197 0.950 . S
C203 C202 1.327 . S
C203 C207 1.429 1_556 S
C204 C187 1.574 . S
C204 H198 0.949 . S
C204 C208 1.368 . S
C205 C186 1.429 1_554 S
C205 C199 1.429 . S
C205 C206 1.523 . S
C206 C187 1.368 . S
C206 C200 1.368 1_554 S
C206 C205 1.523 . S
C207 C191 1.429 . S
C207 C203 1.429 1_554 S
C207 C208 1.523 . S
C208 C192 1.368 1_554 S
C208 C204 1.368 . S
C208 C207 1.523 . S
H209 C184 0.950 . S
H210 C186 0.950 . S
H211 C187 0.949 . S
H212 C189 0.950 . S
H213 C191 0.950 . S
C214 C215 1.349 . S
C214 C216 1.327 . S
C214 H239 0.950 . S
C215 C214 1.349 . S
C215 C231 1.349 . S
C216 C214 1.327 . S
C216 C235 1.429 . S
C216 H240 0.950 . S
C217 C234 1.574 . S
C217 C236 1.368 . S
C217 H241 0.949 . S
H218 C222 0.949 . S
C219 C220 1.349 . S
C219 C221 1.327 . S
C219 H242 0.950 . S
C220 C219 1.349 . S
C220 C232 1.349 . S
C221 C219 1.327 . S
C221 C237 1.429 . S
C221 H243 0.950 . S
C222 H218 0.949 . S
C222 C230 1.574 . S
C222 C238 1.368 . S
H223 C231 0.950 . S
H224 C229 0.950 . S
H225 C230 0.949 . S
H226 C232 0.950 . S
H227 C233 0.950 . S
H228 C234 0.949 . S
C229 H224 0.950 . S
C229 C231 1.327 . S
C229 C235 1.429 . S
C230 C222 1.574 . S
C230 H225 0.949 . S
C230 C236 1.368 . S
C231 C215 1.349 . S
C231 H223 0.950 . S
C231 C229 1.327 . S
C232 C220 1.349 . S
C232 H226 0.950 . S
C232 C233 1.327 . S
C233 H227 0.950 . S
C233 C232 1.327 . S
C233 C237 1.429 . S
C234 C217 1.574 . S
C234 H228 0.949 . S
C234 C238 1.368 . S
C235 C216 1.429 . S
C235 C229 1.429 . S
C235 C236 1.523 . S
C236 C217 1.368 . S
C236 C230 1.368 . S
C236 C235 1.523 . S
C237 C221 1.429 . S
C237 C233 1.429 . S
C237 C238 1.523 . S
C238 C222 1.368 . S
C238 C234 1.368 . S
C238 C237 1.523 . S
H239 C214 0.950 . S
H240 C216 0.950 . S
H241 C217 0.949 . S
H242 C219 0.950 . S
H243 C221 0.950 . S
C244 C245 1.349 . S
C244 C246 1.327 . S
C244 H269 0.950 . S
C245 C244 1.349 . S
C245 C261 1.349 . S
C246 C244 1.327 . S
C246 C265 1.429 . S
C246 H270 0.950 . S
C247 C264 1.574 . S
C247 C266 1.368 . S
C247 H271 0.949 . S
H248 C252 0.949 . S
C249 C250 1.349 . S
C249 C251 1.327 . S
C249 H272 0.950 . S
C250 C249 1.349 . S
C250 C262 1.349 . S
C251 C249 1.327 . S
C251 C267 1.429 . S
C251 H273 0.950 . S
C252 H248 0.949 . S
C252 C260 1.574 . S
C252 C268 1.368 . S
H253 C261 0.950 . S
H254 C259 0.950 . S
H255 C260 0.949 . S
H256 C262 0.950 . S
H257 C263 0.950 . S
H258 C264 0.949 . S
C259 H254 0.950 . S
C259 C261 1.327 . S
C259 C265 1.429 . S
C260 C252 1.574 . S
C260 H255 0.949 . S
C260 C266 1.368 . S
C261 C245 1.349 . S
C261 H253 0.950 . S
C261 C259 1.327 . S
C262 C250 1.349 . S
C262 H256 0.950 . S
C262 C263 1.327 . S
C263 H257 0.950 . S
C263 C262 1.327 . S
C263 C267 1.429 . S
C264 C247 1.574 . S
C264 H258 0.949 . S
C264 C268 1.368 . S
C265 C246 1.429 . S
C265 C259 1.429 . S
C265 C266 1.523 . S
C266 C247 1.368 . S
C266 C260 1.368 . S
C266 C265 1.523 . S
C267 C251 1.429 . S
C267 C263 1.429 . S
C267 C268 1.523 . S
C268 C252 1.368 . S
C268 C264 1.368 . S
C268 C267 1.523 . S
H269 C244 0.950 . S
H270 C246 0.950 . S
H271 C247 0.949 . S
H272 C249 0.950 . S
H273 C251 0.950 . S
C274 C275 1.349 . S
C274 C276 1.327 . S
C274 H299 0.950 . S
C275 C274 1.349 . S
C275 C291 1.349 . S
C276 C274 1.327 . S
C276 C295 1.429 . S
C276 H300 0.950 . S
C277 C294 1.574 . S
C277 C296 1.368 . S
C277 H301 0.949 . S
H278 C282 0.949 . S
C279 C280 1.349 . S
C279 C281 1.327 . S
C279 H302 0.950 1_655 S
C280 C279 1.349 . S
C280 C292 1.349 . S
C281 C279 1.327 . S
C281 C297 1.429 . S
C281 H303 0.950 . S
C282 H278 0.949 . S
C282 C290 1.574 . S
C282 C298 1.368 . S
H283 C291 0.950 . S
H284 C289 0.950 . S
H285 C290 0.949 . S
H286 C292 0.950 . S
H287 C293 0.950 . S
H288 C294 0.949 . S
C289 H284 0.950 . S
C289 C291 1.327 . S
C289 C295 1.429 . S
C290 C282 1.574 . S
C290 H285 0.949 . S
C290 C296 1.368 . S
C291 C275 1.349 . S
C291 H283 0.950 . S
C291 C289 1.327 . S
C292 C280 1.349 . S
C292 H286 0.950 . S
C292 C293 1.327 . S
C293 H287 0.950 . S
C293 C292 1.327 . S
C293 C297 1.429 . S
C294 C277 1.574 . S
C294 H288 0.949 . S
C294 C298 1.368 . S
C295 C276 1.429 . S
C295 C289 1.429 . S
C295 C296 1.523 . S
C296 C277 1.368 . S
C296 C290 1.368 . S
C296 C295 1.523 . S
C297 C281 1.429 . S
C297 C293 1.429 . S
C297 C298 1.523 . S
C298 C282 1.368 . S
C298 C294 1.368 . S
C298 C297 1.523 . S
H299 C274 0.950 . S
H300 C276 0.950 . S
H301 C277 0.949 . S
H302 C279 0.950 1_455 S
H303 C281 0.950 . S
C304 C305 1.349 . S
C304 C306 1.327 . S
C304 H329 0.950 . S
C305 C304 1.349 . S
C305 C321 1.349 . S
C306 C304 1.327 . S
C306 C325 1.429 . S
C306 H330 0.950 . S
C307 C324 1.574 . S
C307 C326 1.368 . S
C307 H331 0.949 . S
H308 C312 0.949 . S
C309 C310 1.349 . S
C309 C311 1.327 . S
C309 H332 0.950 . S
C310 C309 1.349 . S
C310 C322 1.349 . S
C311 C309 1.327 . S
C311 C327 1.429 . S
C311 H333 0.950 . S
C312 H308 0.949 . S
C312 C320 1.574 . S
C312 C328 1.368 . S
H313 C321 0.950 . S
H314 C319 0.950 . S
H315 C320 0.949 . S
H316 C322 0.950 . S
H317 C323 0.950 . S
H318 C324 0.949 . S
C319 H314 0.950 . S
C319 C321 1.327 . S
C319 C325 1.429 . S
C320 C312 1.574 . S
C320 H315 0.949 . S
C320 C326 1.368 . S
C321 C305 1.349 . S
C321 H313 0.950 . S
C321 C319 1.327 . S
C322 C310 1.349 . S
C322 H316 0.950 . S
C322 C323 1.327 . S
C323 H317 0.950 . S
C323 C322 1.327 . S
C323 C327 1.429 . S
C324 C307 1.574 . S
C324 H318 0.949 . S
C324 C328 1.368 . S
C325 C306 1.429 . S
C325 C319 1.429 . S
C325 C326 1.523 . S
C326 C307 1.368 . S
C326 C320 1.368 . S
C326 C325 1.523 . S
C327 C311 1.429 . S
C327 C323 1.429 . S
C327 C328 1.523 . S
C328 C312 1.368 . S
C328 C324 1.368 . S
C328 C327 1.523 . S
H329 C304 0.950 . S
H330 C306 0.950 . S
H331 C307 0.949 . S
H332 C309 0.950 . S
H333 C311 0.950 . S
C334 C335 1.349 . S
C334 C336 1.327 . S
C334 H359 0.950 . S
C335 C334 1.349 . S
C335 C351 1.349 . S
C336 C334 1.327 . S
C336 C355 1.429 . S
C336 H360 0.950 . S
C337 C354 1.574 . S
C337 C356 1.368 . S
C337 H361 0.949 . S
H338 C342 0.949 . S
C339 C340 1.349 . S
C339 C341 1.327 . S
C339 H362 0.950 . S
C340 C339 1.349 . S
C340 C352 1.349 . S
C341 C339 1.327 . S
C341 C357 1.429 . S
C341 H363 0.950 . S
C342 H338 0.949 . S
C342 C350 1.574 . S
C342 C358 1.368 . S
H343 C351 0.950 . S
H344 C349 0.950 . S
H345 C350 0.949 . S
H346 C352 0.950 . S
H347 C353 0.950 . S
H348 C354 0.949 . S
C349 H344 0.950 . S
C349 C351 1.327 . S
C349 C355 1.429 . S
C350 C342 1.574 . S
C350 H345 0.949 . S
C350 C356 1.368 . S
C351 C335 1.349 . S
C351 H343 0.950 . S
C351 C349 1.327 . S
C352 C340 1.349 . S
C352 H346 0.950 . S
C352 C353 1.327 . S
C353 H347 0.950 . S
C353 C352 1.327 . S
C353 C357 1.429 . S
C354 C337 1.574 . S
C354 H348 0.949 . S
C354 C358 1.368 . S
C355 C336 1.429 . S
C355 C349 1.429 . S
C355 C356 1.523 . S
C356 C337 1.368 . S
C356 C350 1.368 . S
C356 C355 1.523 . S
C357 C341 1.429 . S
C357 C353 1.429 . S
C357 C358 1.523 . S
C358 C342 1.368 . S
C358 C354 1.368 . S
C358 C357 1.523 . S
H359 C334 0.950 . S
H360 C336 0.950 . S
H361 C337 0.949 . S
H362 C339 0.950 . S
H363 C341 0.950 . S
C364 C365 1.349 . S
C364 C366 1.327 . S
C364 H389 0.950 . S
C365 C364 1.349 . S
C365 C381 1.349 . S
C366 C364 1.327 . S
C366 C385 1.429 . S
C366 H390 0.950 . S
C367 C384 1.574 . S
C367 C386 1.368 . S
C367 H391 0.949 . S
H368 C372 0.949 . S
C369 C370 1.349 . S
C369 C371 1.327 . S
C369 H392 0.950 . S
C370 C369 1.349 . S
C370 C382 1.349 . S
C371 C369 1.327 . S
C371 C387 1.429 . S
C371 H393 0.950 . S
C372 H368 0.949 . S
C372 C380 1.574 . S
C372 C388 1.368 . S
H373 C381 0.950 . S
H374 C379 0.950 . S
H375 C380 0.949 . S
H376 C382 0.950 . S
H377 C383 0.950 . S
H378 C384 0.949 . S
C379 H374 0.950 . S
C379 C381 1.327 . S
C379 C385 1.429 . S
C380 C372 1.574 . S
C380 H375 0.949 . S
C380 C386 1.368 . S
C381 C365 1.349 . S
C381 H373 0.950 . S
C381 C379 1.327 . S
C382 C370 1.349 . S
C382 H376 0.950 . S
C382 C383 1.327 . S
C383 H377 0.950 . S
C383 C382 1.327 . S
C383 C387 1.429 . S
C384 C367 1.574 . S
C384 H378 0.949 . S
C384 C388 1.368 . S
C385 C366 1.429 . S
C385 C379 1.429 . S
C385 C386 1.523 . S
C386 C367 1.368 . S
C386 C380 1.368 . S
C386 C385 1.523 . S
C387 C371 1.429 . S
C387 C383 1.429 . S
C387 C388 1.523 . S
C388 C372 1.368 . S
C388 C384 1.368 . S
C388 C387 1.523 . S
H389 C364 0.950 . S
H390 C366 0.950 . S
H391 C367 0.949 . S
H392 C369 0.950 . S
H393 C371 0.950 . S
C394 C395 1.349 . S
C394 C396 1.327 . S
C394 H419 0.950 . S
C395 C394 1.349 . S
C395 C411 1.349 . S
C396 C394 1.327 . S
C396 C415 1.429 . S
C396 H420 0.950 . S
C397 C414 1.574 . S
C397 C416 1.368 . S
C397 H421 0.949 . S
H398 C402 0.949 . S
C399 C400 1.349 . S
C399 C401 1.327 . S
C399 H422 0.950 . S
C400 C399 1.349 . S
C400 C412 1.349 . S
C401 C399 1.327 . S
C401 C417 1.429 . S
C401 H423 0.950 . S
C402 H398 0.949 . S
C402 C410 1.574 . S
C402 C418 1.368 . S
H403 C411 0.950 . S
H404 C409 0.950 . S
H405 C410 0.949 . S
H406 C412 0.950 . S
H407 C413 0.950 . S
H408 C414 0.949 . S
C409 H404 0.950 . S
C409 C411 1.327 . S
C409 C415 1.429 . S
C410 C402 1.574 . S
C410 H405 0.949 . S
C410 C416 1.368 . S
C411 C395 1.349 . S
C411 H403 0.950 . S
C411 C409 1.327 . S
C412 C400 1.349 . S
C412 H406 0.950 . S
C412 C413 1.327 . S
C413 H407 0.950 . S
C413 C412 1.327 . S
C413 C417 1.429 . S
C414 C397 1.574 . S
C414 H408 0.949 . S
C414 C418 1.368 . S
C415 C396 1.429 . S
C415 C409 1.429 . S
C415 C416 1.523 . S
C416 C397 1.368 . S
C416 C410 1.368 . S
C416 C415 1.523 . S
C417 C401 1.429 . S
C417 C413 1.429 . S
C417 C418 1.523 . S
C418 C402 1.368 . S
C418 C414 1.368 . S
C418 C417 1.523 . S
H419 C394 0.950 . S
H420 C396 0.950 . S
H421 C397 0.949 . S
H422 C399 0.950 . S
H423 C401 0.950 . S
C424 C425 1.349 1_556 S
C424 C426 1.327 . S
C424 H449 0.950 1_556 S
C425 C424 1.349 1_554 S
C425 C441 1.349 1_554 S
C426 C424 1.327 . S
C426 C445 1.429 . S
C426 H450 0.950 . S
C427 C444 1.574 . S
C427 C446 1.368 . S
C427 H451 0.949 . S
H428 C432 0.949 . S
C429 C430 1.349 . S
C429 C431 1.327 . S
C429 H452 0.950 . S
C430 C429 1.349 . S
C430 C442 1.349 . S
C431 C429 1.327 . S
C431 C447 1.429 . S
C431 H453 0.950 . S
C432 H428 0.949 . S
C432 C440 1.574 . S
C432 C448 1.368 . S
H433 C441 0.950 . S
H434 C439 0.950 . S
H435 C440 0.949 . S
H436 C442 0.950 . S
H437 C443 0.950 . S
H438 C444 0.949 . S
C439 H434 0.950 . S
C439 C441 1.327 . S
C439 C445 1.429 . S
C440 C432 1.574 . S
C440 H435 0.949 . S
C440 C446 1.368 . S
C441 C425 1.349 1_556 S
C441 H433 0.950 . S
C441 C439 1.327 . S
C442 C430 1.349 . S
C442 H436 0.950 . S
C442 C443 1.327 . S
C443 H437 0.950 . S
C443 C442 1.327 . S
C443 C447 1.429 . S
C444 C427 1.574 . S
C444 H438 0.949 . S
C444 C448 1.368 . S
C445 C426 1.429 . S
C445 C439 1.429 . S
C445 C446 1.523 . S
C446 C427 1.368 . S
C446 C440 1.368 . S
C446 C445 1.523 . S
C447 C431 1.429 . S
C447 C443 1.429 . S
C447 C448 1.523 . S
C448 C432 1.368 . S
C448 C444 1.368 . S
C448 C447 1.523 . S
H449 C424 0.950 1_554 S
H450 C426 0.950 . S
H451 C427 0.949 . S
H452 C429 0.950 . S
H453 C431 0.950 . S
C100 C67 1.273 . S
C95 N41 1.470 . S
C125 N2 1.469 . S
C130 C91 1.272 . S
C155 N15 1.638 . S
C160 C70 1.414 . S
C185 N28 1.634 . S
C190 C88 1.413 . S
C220 C68 1.460 . S
C215 N5 1.498 . S
C250 C90 1.531 . S
C245 N14 1.593 . S
C275 N27 1.558 . S
C280 C69 1.516 . S
C305 N44 1.490 . S
C310 C89 1.450 . S
C340 C87 1.516 . S
C335 N18 1.559 . S
C370 C66 1.531 . S
C365 N31 1.596 . S
C400 C86 1.460 . S
C395 N40 1.494 . S
C425 N1 1.491 . S
C430 C65 1.450 . S
