# Generated by pormake.
# Topology zzz, (3,6)-cn, num edge types: 1
# Building blocks:
#     Node 0, Type 0, BuildingBlock: VETTIZ_charged_linker_0, # of connection points: 3
#     Node 1, Type 0, BuildingBlock: VETTIZ_charged_linker_0, # of connection points: 3
#     Node 2, Type 0, BuildingBlock: VETTIZ_charged_linker_0, # of connection points: 3
#     Node 3, Type 0, BuildingBlock: VETTIZ_charged_linker_0, # of connection points: 3
#     Node 4, Type 0, BuildingBlock: VETTIZ_charged_linker_0, # of connection points: 3
#     Node 5, Type 0, BuildingBlock: VETTIZ_charged_linker_0, # of connection points: 3
#     Node 6, Type 0, BuildingBlock: VETTIZ_charged_linker_0, # of connection points: 3
#     Node 7, Type 0, BuildingBlock: VETTIZ_charged_linker_0, # of connection points: 3
#     Node 8, Type 1, BuildingBlock: KUMBOL_clean_sbu_0, # of connection points: 6
#     Node 9, Type 1, BuildingBlock: KUMBOL_clean_sbu_0, # of connection points: 6
#     Node 10, Type 1, BuildingBlock: KUMBOL_clean_sbu_0, # of connection points: 6
#     Node 11, Type 1, BuildingBlock: KUMBOL_clean_sbu_0, # of connection points: 6
#     Edge 12, Type (0, 1), BuildingBlock: MIFKUJ_clean_linker_0, # of connection points: 2
#     Edge 13, Type (0, 1), BuildingBlock: MIFKUJ_clean_linker_0, # of connection points: 2
#     Edge 14, Type (0, 1), BuildingBlock: MIFKUJ_clean_linker_0, # of connection points: 2
#     Edge 15, Type (0, 1), BuildingBlock: MIFKUJ_clean_linker_0, # of connection points: 2
#     Edge 16, Type (0, 1), BuildingBlock: MIFKUJ_clean_linker_0, # of connection points: 2
#     Edge 17, Type (0, 1), BuildingBlock: MIFKUJ_clean_linker_0, # of connection points: 2
#     Edge 18, Type (0, 1), BuildingBlock: MIFKUJ_clean_linker_0, # of connection points: 2
#     Edge 19, Type (0, 1), BuildingBlock: MIFKUJ_clean_linker_0, # of connection points: 2
#     Edge 20, Type (0, 1), BuildingBlock: MIFKUJ_clean_linker_0, # of connection points: 2
#     Edge 21, Type (0, 1), BuildingBlock: MIFKUJ_clean_linker_0, # of connection points: 2
#     Edge 22, Type (0, 1), BuildingBlock: MIFKUJ_clean_linker_0, # of connection points: 2
#     Edge 23, Type (0, 1), BuildingBlock: MIFKUJ_clean_linker_0, # of connection points: 2
#     Edge 24, Type (0, 1), BuildingBlock: MIFKUJ_clean_linker_0, # of connection points: 2
#     Edge 25, Type (0, 1), BuildingBlock: MIFKUJ_clean_linker_0, # of connection points: 2
#     Edge 26, Type (0, 1), BuildingBlock: MIFKUJ_clean_linker_0, # of connection points: 2
#     Edge 27, Type (0, 1), BuildingBlock: MIFKUJ_clean_linker_0, # of connection points: 2
#     Edge 28, Type (0, 1), BuildingBlock: MIFKUJ_clean_linker_0, # of connection points: 2
#     Edge 29, Type (0, 1), BuildingBlock: MIFKUJ_clean_linker_0, # of connection points: 2
#     Edge 30, Type (0, 1), BuildingBlock: MIFKUJ_clean_linker_0, # of connection points: 2
#     Edge 31, Type (0, 1), BuildingBlock: MIFKUJ_clean_linker_0, # of connection points: 2
#     Edge 32, Type (0, 1), BuildingBlock: MIFKUJ_clean_linker_0, # of connection points: 2
#     Edge 33, Type (0, 1), BuildingBlock: MIFKUJ_clean_linker_0, # of connection points: 2
#     Edge 34, Type (0, 1), BuildingBlock: MIFKUJ_clean_linker_0, # of connection points: 2
#     Edge 35, Type (0, 1), BuildingBlock: MIFKUJ_clean_linker_0, # of connection points: 2
# Relax obj value: 0.279
# Max RMSD: 0.230
# Mean RMSD: 0.213
data_MOF--net-zzz--node1-KUMBOL_clean_sbu_0--node2-VETTIZ_charged_linker_0--edge1-MIFKUJ_clean_linker_0
_symmetry_space_group_name_H-M    P1
_symmetry_Int_Tables_number       1
_symmetry_cell_setting            triclinic
loop_
_symmetry_equiv_pos_as_xyz
'x, y, z'
_cell_length_a     70.874255
_cell_length_b     70.868808
_cell_length_c     24.852403
_cell_angle_alpha  90.239119
_cell_angle_beta   90.147589
_cell_angle_gamma 89.989599
loop_
_atom_site_label
_atom_site_type_symbol
_atom_site_fract_x
_atom_site_fract_y
_atom_site_fract_z
_atom_type_partial_charge
C0 C 0.78823 0.53365 0.21617 0.0
C1 C 0.80621 0.54048 0.23274 0.0
C2 C 0.81514 0.55424 0.20124 0.0
C3 C 0.78903 0.55444 0.13837 0.0
C4 C 0.77973 0.54112 0.16887 0.0
C5 C 0.7605 0.53654 0.1442 0.0
H6 H 0.6963 0.55816 0.94332 0.0
C7 C 0.77709 0.55962 0.09203 0.0
C8 C 0.75994 0.54963 0.09506 0.0
H9 H 0.68894 0.51529 0.06394 0.0
H10 H 0.71996 0.52302 0.10227 0.0
H11 H 0.71627 0.59023 0.01698 0.0
H12 H 0.73449 0.54556 0.91296 0.0
H13 H 0.7523 0.5625 0.90728 0.0
H14 H 0.72852 0.56834 0.88713 0.0
H15 H 0.71385 0.59046 0.94506 0.0
H16 H 0.73478 0.59937 0.97789 0.0
C17 C 0.74499 0.54149 0.18521 0.0
C18 C 0.76035 0.51558 0.12749 0.0
C19 C 0.80574 0.59968 0.94506 0.0
C20 C 0.79893 0.60589 0.89486 0.0
C21 C 0.77942 0.60453 0.88424 0.0
C22 C 0.76731 0.59561 0.92072 0.0
C23 C 0.77475 0.58793 0.96841 0.0
C24 C 0.79347 0.5908 0.98091 0.0
C25 C 0.7989 0.5821 0.03373 0.0
C26 C 0.78069 0.57208 0.04867 0.0
C27 C 0.76669 0.57551 0.01031 0.0
C28 C 0.80371 0.5984 0.07353 0.0
C29 C 0.81526 0.56797 0.02338 0.0
C30 C 0.70111 0.55063 0.97867 0.0
C31 C 0.68999 0.53645 1.00123 0.0
C32 C 0.69721 0.52645 0.046 0.0
C33 C 0.71517 0.53095 0.06815 0.0
C34 C 0.72617 0.54528 0.04451 0.0
C35 C 0.71894 0.55457 1.00001 0.0
C36 C 0.73262 0.56802 0.97562 0.0
C37 C 0.74919 0.56601 0.01345 0.0
C38 C 0.74564 0.55284 0.05479 0.0
C39 C 0.724 0.58811 0.9785 0.0
C40 C 0.73722 0.56095 0.91772 0.0
H41 H 0.81465 0.57141 0.13285 0.0
H42 H 0.78098 0.52308 0.23968 0.0
H43 H 0.77324 0.51207 0.10407 0.0
H44 H 0.74821 0.51202 0.10154 0.0
H45 H 0.76 0.50633 0.16349 0.0
H46 H 0.74687 0.55617 0.20029 0.0
H47 H 0.74558 0.53181 0.22024 0.0
H48 H 0.73073 0.54066 0.16746 0.0
H49 H 0.82059 0.60035 0.95498 0.0
H50 H 0.77361 0.60963 0.84667 0.0
H51 H 0.75276 0.59441 0.90931 0.0
H52 H 0.79771 0.61214 0.06027 0.0
H53 H 0.81919 0.60035 0.0776 0.0
H54 H 0.79754 0.5961 0.11394 0.0
H55 H 0.81288 0.56003 0.98525 0.0
H56 H 0.8166 0.55705 0.05463 0.0
H57 H 0.82898 0.57544 0.01995 0.0
H58 H 0.82895 0.55956 0.21243 0.0
C59 C 0.80674 0.56117 0.15471 0.0
C60 C 0.92252 0.79852 0.92162 0.0
C61 C 0.91362 0.81581 0.93344 0.0
C62 C 0.91237 0.82159 0.98773 0.0
C63 C 0.93224 0.79543 0.01467 0.0
C64 C 0.93153 0.78857 0.96281 0.0
C65 C 0.94245 0.77054 0.95655 0.0
H66 H 0.99336 0.69947 0.06285 0.0
C67 C 0.94547 0.78343 0.04554 0.0
C68 C 0.95104 0.76854 0.01242 0.0
H69 H 0.96773 0.7053 0.90526 0.0
H70 H 0.95844 0.73639 0.92603 0.0
H71 H 0.00991 0.74915 0.05437 0.0
H72 H 0.96292 0.72506 0.14345 0.0
H73 H 0.97999 0.73816 0.18167 0.0
H74 H 0.98644 0.71589 0.15231 0.0
H75 H 0.01395 0.7306 0.10231 0.0
H76 H 0.00934 0.75429 0.12439 0.0
C77 C 0.95792 0.77372 0.91342 0.0
C78 C 0.92808 0.75459 0.94313 0.0
C79 C 0.96911 0.81011 0.22054 0.0
C80 C 0.98409 0.80623 0.25559 0.0
C81 C 0.99451 0.78938 0.24661 0.0
C82 C 0.98988 0.77687 0.20339 0.0
C83 C 0.97506 0.78149 0.16772 0.0
C84 C 0.96511 0.79802 0.17738 0.0
C85 C 0.95107 0.80236 0.13448 0.0
C86 C 0.95421 0.78607 0.09625 0.0
C87 C 0.96796 0.77323 0.11542 0.0
C88 C 0.9565 0.82169 0.10932 0.0
C89 C 0.93109 0.80164 0.15987 0.0
C90 C 0.98561 0.70757 0.03332 0.0
C91 C 0.98032 0.69922 0.98302 0.0
C92 C 0.9711 0.71066 0.94505 0.0
C93 C 0.96565 0.72898 0.95722 0.0
C94 C 0.96958 0.73666 0.00796 0.0
C95 C 0.98008 0.72659 0.04486 0.0
C96 C 0.9843 0.739 0.09424 0.0
C97 C 0.97232 0.75675 0.08314 0.0
C98 C 0.96399 0.75489 0.0318 0.0
C99 C 0.00555 0.74353 0.09417 0.0
C100 C 0.97808 0.72897 0.14598 0.0
H101 H 0.9211 0.8173 0.06823 0.0
H102 H 0.92377 0.79344 0.88065 0.0
H103 H 0.91334 0.75864 0.95329 0.0
H104 H 0.93069 0.74165 0.96688 0.0
H105 H 0.92826 0.75096 0.89962 0.0
H106 H 0.96411 0.78807 0.91759 0.0
H107 H 0.95203 0.77237 0.87213 0.0
H108 H 0.97007 0.76406 0.91748 0.0
H109 H 0.96109 0.82304 0.22467 0.0
H110 H 0.00617 0.78589 0.27296 0.0
H111 H 0.99801 0.76418 0.19877 0.0
H112 H 0.97204 0.82396 0.11048 0.0
H113 H 0.94984 0.83359 0.13144 0.0
H114 H 0.95289 0.82289 0.06633 0.0
H115 H 0.93052 0.79138 0.19362 0.0
H116 H 0.9202 0.79664 0.13119 0.0
H117 H 0.92688 0.81563 0.17616 0.0
H118 H 0.90508 0.83449 0.99852 0.0
C119 C 0.92167 0.81154 0.02831 0.0
C120 C 0.81076 0.98166 0.04689 0.0
C121 C 0.82204 0.9733 0.00606 0.0
C122 C 0.81541 0.95703 0.97978 0.0
C123 C 0.78639 0.95807 0.0308 0.0
C124 C 0.79297 0.97349 0.05938 0.0
C125 C 0.77885 0.97932 0.10268 0.0
H126 H 0.69234 0.96052 0.21971 0.0
C127 C 0.76735 0.9532 0.05009 0.0
C128 C 0.76272 0.96517 0.09362 0.0
H129 H 0.73068 1.0045 0.26918 0.0
H130 H 0.75272 0.99518 0.19775 0.0
H131 H 0.6941 0.97069 0.10449 0.0
H132 H 0.72188 0.9276 0.19457 0.0
H133 H 0.71427 0.91707 0.13399 0.0
H134 H 0.69719 0.92779 0.17817 0.0
H135 H 0.68357 0.94796 0.11278 0.0
H136 H 0.6985 0.95328 0.05604 0.0
C137 C 0.77248 0.99975 0.09207 0.0
C138 C 0.7882 0.97681 0.15823 0.0
C139 C 0.72698 0.91011 0.93424 0.0
C140 C 0.70742 0.90651 0.93489 0.0
C141 C 0.69754 0.9098 0.98339 0.0
C142 C 0.70633 0.91863 0.02718 0.0
C143 C 0.72507 0.92475 0.02242 0.0
C144 C 0.73532 0.91977 0.9775 0.0
C145 C 0.75484 0.92807 0.9785 0.0
C146 C 0.75405 0.94001 0.02963 0.0
C147 C 0.73664 0.93789 0.05505 0.0
C148 C 0.75716 0.94037 0.9274 0.0
C149 C 0.76918 0.91157 0.9832 0.0
C150 C 0.70563 0.96797 0.21605 0.0
C151 C 0.70994 0.9829 0.2509 0.0
C152 C 0.7271 0.99275 0.24312 0.0
C153 C 0.73988 0.98729 0.20185 0.0
C154 C 0.73526 0.97207 0.16738 0.0
C155 C 0.71813 0.96303 0.17492 0.0
C156 C 0.71409 0.94851 0.13285 0.0
C157 C 0.73207 0.94915 0.10039 0.0
C158 C 0.74477 0.96295 0.11996 0.0
C159 C 0.69665 0.95527 0.09989 0.0
C160 C 0.71158 0.92919 0.16102 0.0
H161 H 0.79368 0.93722 0.9695 0.0
H162 H 0.81567 0.99403 0.06839 0.0
H163 H 0.79451 0.9625 0.16163 0.0
H164 H 0.77801 0.97825 0.19145 0.0
H165 H 0.79961 0.98737 0.16432 0.0
H166 H 0.76801 1.0014 0.04942 0.0
H167 H 0.78419 0.00981 0.10005 0.0
H168 H 0.76033 1.00385 0.11716 0.0
H169 H 0.73534 0.90703 0.89893 0.0
H170 H 0.68254 0.90723 0.98644 0.0
H171 H 0.69775 0.92139 0.06174 0.0
H172 H 0.74431 0.94909 0.92055 0.0
H173 H 0.75935 0.93143 0.89114 0.0
H174 H 0.76891 0.9505 0.92993 0.0
H175 H 0.76238 0.89824 0.99664 0.0
H176 H 0.78022 0.91445 0.01388 0.0
H177 H 0.77605 0.90854 0.94398 0.0
H178 H 0.82378 0.95036 0.94857 0.0
C179 C 0.79783 0.94941 0.99195 0.0
C180 C 0.53999 0.73913 0.27485 0.0
C181 C 0.54984 0.7239 0.29933 0.0
C182 C 0.56881 0.72078 0.28497 0.0
C183 C 0.56679 0.74464 0.21642 0.0
C184 C 0.54912 0.74978 0.2342 0.0
C185 C 0.54254 0.76756 0.20528 0.0
H186 H 0.55909 0.82737 0.99115 0.0
C187 C 0.57153 0.75569 0.16853 0.0
C188 C 0.55784 0.76989 0.16206 0.0
H189 H 0.51755 0.83607 0.11495 0.0
H190 H 0.52684 0.80629 0.15759 0.0
H191 H 0.59401 0.81154 0.05911 0.0
H192 H 0.54769 0.78673 0.97398 0.0
H193 H 0.56423 0.76835 0.97692 0.0
H194 H 0.56995 0.7899 0.94183 0.0
H195 H 0.59019 0.81218 0.98757 0.0
H196 H 0.6026 0.79292 0.01823 0.0
C197 C 0.54286 0.78393 0.24637 0.0
C198 C 0.5229 0.76425 0.18041 0.0
C199 C 0.61348 0.72351 0.03295 0.0
C200 C 0.61217 0.72445 0.97654 0.0
C201 C 0.60678 0.74179 0.95331 0.0
C202 C 0.5999 0.75651 0.98552 0.0
C203 C 0.59736 0.7535 0.04089 0.0
C204 C 0.60456 0.73736 0.06403 0.0
C205 C 0.59768 0.73462 0.12067 0.0
C206 C 0.58462 0.75161 0.12696 0.0
C207 C 0.58481 0.7627 0.08056 0.0
C208 C 0.61488 0.73549 0.15938 0.0
C209 C 0.58676 0.7156 0.12223 0.0
C210 C 0.55228 0.82309 0.02814 0.0
C211 C 0.53805 0.83423 0.05062 0.0
C212 C 0.52887 0.82781 0.09753 0.0
C213 C 0.53439 0.8107 0.12246 0.0
C214 C 0.54915 0.79993 0.09996 0.0
C215 C 0.55748 0.80618 0.05287 0.0
C216 C 0.57152 0.7925 0.03073 0.0
C217 C 0.57239 0.77826 0.07583 0.0
C218 C 0.55894 0.78213 0.11621 0.0
C219 C 0.59063 0.80275 0.02315 0.0
C220 C 0.56308 0.78395 0.9781 0.0
H221 H 0.5917 0.72803 0.23499 0.0
H222 H 0.52572 0.74252 0.2869 0.0
H223 H 0.52299 0.75136 0.15471 0.0
H224 H 0.51845 0.77616 0.15482 0.0
H225 H 0.51213 0.76235 0.21232 0.0
H226 H 0.55629 0.78389 0.26961 0.0
H227 H 0.53104 0.78256 0.2754 0.0
H228 H 0.54198 0.79787 0.22716 0.0
H229 H 0.61867 0.7109 0.0524 0.0
H230 H 0.60603 0.74349 0.91012 0.0
H231 H 0.5955 0.76909 0.9654 0.0
H232 H 0.62791 0.74047 0.13899 0.0
H233 H 0.61812 0.72139 0.17647 0.0
H234 H 0.61253 0.74561 0.19293 0.0
H235 H 0.57635 0.71484 0.08868 0.0
H236 H 0.57873 0.71325 0.15925 0.0
H237 H 0.59655 0.70345 0.11814 0.0
H238 H 0.57691 0.70952 0.30326 0.0
C239 C 0.57737 0.73128 0.24464 0.0
C240 C 0.32101 0.48719 0.1205 0.0
C241 C 0.33297 0.4798 0.16117 0.0
C242 C 0.32767 0.46318 0.18761 0.0
C243 C 0.29854 0.46194 0.13704 0.0
C244 C 0.30383 0.47773 0.10841 0.0
C245 C 0.28915 0.4824 0.06551 0.0
H246 H 0.20324 0.45798 0.95365 0.0
C247 C 0.28003 0.45543 0.11755 0.0
C248 C 0.27439 0.46686 0.07408 0.0
H249 H 0.23801 0.50472 0.90375 0.0
H250 H 0.26151 0.49629 0.97201 0.0
H251 H 0.23716 0.42759 0.96729 0.0
H252 H 0.20427 0.4644 0.06426 0.0
H253 H 0.21212 0.4481 0.11201 0.0
H254 H 0.1977 0.44023 0.05638 0.0
H255 H 0.21288 0.42416 0.98518 0.0
H256 H 0.23182 0.41488 0.026 0.0
C257 C 0.29848 0.4809 0.00973 0.0
C258 C 0.28106 0.50217 0.07735 0.0
C259 C 0.2416 0.41196 0.23506 0.0
C260 C 0.22292 0.40556 0.23 0.0
C261 C 0.21434 0.4055 0.17881 0.0
C262 C 0.22316 0.41421 0.13524 0.0
C263 C 0.24066 0.42311 0.1431 0.0
C264 C 0.2502 0.42073 0.19102 0.0
C265 C 0.26907 0.43043 0.19079 0.0
C266 C 0.26799 0.44112 0.13765 0.0
C267 C 0.25122 0.43692 0.11057 0.0
C268 C 0.28456 0.4149 0.1903 0.0
C269 C 0.27007 0.44396 0.23993 0.0
C270 C 0.21605 0.46628 0.95597 0.0
C271 C 0.21877 0.4818 0.9221 0.0
C272 C 0.23545 0.4926 0.92908 0.0
C273 C 0.24912 0.48765 0.96857 0.0
C274 C 0.24604 0.47186 1.00184 0.0
C275 C 0.22956 0.46165 0.99471 0.0
C276 C 0.22748 0.44589 0.03386 0.0
C277 C 0.24553 0.44788 0.06584 0.0
C278 C 0.25674 0.46302 0.04746 0.0
C279 C 0.22717 0.42708 1.00174 0.0
C280 C 0.2095 0.44967 0.06833 0.0
H281 H 0.30752 0.44185 0.19803 0.0
H282 H 0.32493 0.49983 0.09896 0.0
H283 H 0.27671 0.5033 0.12021 0.0
H284 H 0.26843 0.50528 0.05293 0.0
H285 H 0.29179 0.51325 0.06954 0.0
H286 H 0.30614 0.46727 1.00571 0.0
H287 H 0.30878 0.49252 1.00385 0.0
H288 H 0.28807 0.48137 0.97671 0.0
H289 H 0.2486 0.41174 0.27384 0.0
H290 H 0.2 0.40052 0.17364 0.0
H291 H 0.2154 0.4148 0.09825 0.0
H292 H 0.27873 0.40056 0.18241 0.0
H293 H 0.29209 0.41419 0.2295 0.0
H294 H 0.29501 0.41721 0.15777 0.0
H295 H 0.25694 0.45251 0.24284 0.0
H296 H 0.28179 0.45413 0.23786 0.0
H297 H 0.2717 0.43594 0.27796 0.0
H298 H 0.33665 0.45724 0.2186 0.0
C299 C 0.3107 0.45425 0.17566 0.0
C300 C 0.10334 0.23616 0.23479 0.0
C301 C 0.10827 0.21695 0.23163 0.0
C302 C 0.10662 0.20765 0.18154 0.0
C303 C 0.09081 0.23484 0.14399 0.0
C304 C 0.0944 0.24473 0.19076 0.0
C305 C 0.08605 0.26424 0.18936 0.0
H306 H 0.01753 0.32238 0.10573 0.0
C307 C 0.07764 0.24611 0.1109 0.0
C308 C 0.07477 0.26337 0.13685 0.0
H309 H 0.06339 0.3329 0.21713 0.0
H310 H 0.07771 0.30366 0.19213 0.0
H311 H 0.04964 0.30113 1.00437 0.0
H312 H 0.01307 0.27388 0.12139 0.0
H313 H 0.00999 0.26698 0.05279 0.0
H314 H 1.00325 0.2903 0.07376 0.0
H315 H 0.02514 0.3077 0.00837 0.0
H316 H 0.0319 0.28569 0.97838 0.0
C317 C 0.10263 0.27858 0.18679 0.0
C318 C 0.07316 0.26668 0.23923 0.0
C319 C 0.04803 0.2127 0.95287 0.0
C320 C 0.03263 0.21576 0.9186 0.0
C321 C 0.02195 0.23251 0.92655 0.0
C322 C 0.027 0.24594 0.96707 0.0
C323 C 0.04276 0.24254 1.00061 0.0
C324 C 0.05265 0.22587 0.99288 0.0
C325 C 0.06774 0.2229 0.03379 0.0
C326 C 0.06636 0.24095 0.06604 0.0
C327 C 0.05176 0.25287 0.04731 0.0
C328 C 0.08692 0.22148 1.00404 0.0
C329 C 0.06237 0.20515 0.06735 0.0
C330 C 0.03062 0.31815 0.12471 0.0
C331 C 0.03915 0.32981 0.16487 0.0
C332 C 0.05642 0.32416 0.18718 0.0
C333 C 0.06471 0.30707 0.17283 0.0
C334 C 0.05568 0.29501 0.13613 0.0
C335 C 0.0395 0.3008 0.10999 0.0
C336 C 0.03384 0.28631 0.06691 0.0
C337 C 0.04889 0.27082 0.074 0.0
C338 C 0.06108 0.27613 0.11652 0.0
C339 C 0.03515 0.29567 0.01128 0.0
C340 C 0.01389 0.27894 0.07916 0.0
H341 H 0.09668 0.20843 0.1015 0.0
H342 H 0.10512 0.24393 0.27206 0.0
H343 H 0.06339 0.25447 0.24286 0.0
H344 H 0.06424 0.27937 0.23769 0.0
H345 H 0.08166 0.26759 0.27675 0.0
H346 H 0.11652 0.27164 0.18012 0.0
H347 H 0.10391 0.28679 0.2248 0.0
H348 H 0.10098 0.28851 0.15266 0.0
H349 H 0.05614 0.19977 0.95009 0.0
H350 H 0.0098 0.23528 0.90129 0.0
H351 H 0.01839 0.25831 0.97152 0.0
H352 H 0.08747 0.23156 0.96986 0.0
H353 H 0.08917 0.20708 0.98746 0.0
H354 H 0.09906 0.22529 0.0299 0.0
H355 H 0.04726 0.20121 0.0625 0.0
H356 H 0.06399 0.20746 0.11119 0.0
H357 H 0.07082 0.19265 0.05521 0.0
H358 H 0.11036 0.19291 0.17717 0.0
C359 C 0.09816 0.21657 0.13765 0.0
C360 C 0.29627 0.03338 0.93893 0.0
C361 C 0.31452 0.03981 0.92357 0.0
C362 C 0.32345 0.05351 0.9557 0.0
C363 C 0.29686 0.05461 0.01628 0.0
C364 C 0.28754 0.04126 0.98551 0.0
C365 C 0.26808 0.03715 0.00926 0.0
H366 H 0.20372 0.06079 0.2084 0.0
C367 C 0.28481 0.06019 0.06191 0.0
C368 C 0.26754 0.05042 0.05843 0.0
H369 H 0.19536 0.01816 0.08657 0.0
H370 H 0.22678 0.02483 0.04966 0.0
H371 H 0.24181 0.04681 0.23944 0.0
H372 H 0.22488 0.09223 0.13688 0.0
H373 H 0.24339 0.10076 0.17763 0.0
H374 H 0.22211 0.0922 0.20868 0.0
H375 H 0.23645 0.06969 0.26617 0.0
H376 H 0.26006 0.06328 0.24593 0.0
C377 C 0.26738 0.01626 0.02598 0.0
C378 C 0.25287 0.04227 0.96747 0.0
C379 C 0.31394 0.10101 0.20744 0.0
C380 C 0.30754 0.10678 0.25839 0.0
C381 C 0.28818 0.1051 0.27036 0.0
C382 C 0.27579 0.09633 0.23395 0.0
C383 C 0.28286 0.08894 0.18534 0.0
C384 C 0.30148 0.09202 0.17206 0.0
C385 C 0.30675 0.08292 0.11962 0.0
C386 C 0.28853 0.07278 0.10518 0.0
C387 C 0.27464 0.07639 0.14358 0.0
C388 C 0.32317 0.06887 0.13061 0.0
C389 C 0.31139 0.09895 0.07924 0.0
C390 C 0.20844 0.05305 0.17319 0.0
C391 C 0.19692 0.03926 0.14984 0.0
C392 C 0.20396 0.02902 0.10513 0.0
C393 C 0.22214 0.03291 0.08378 0.0
C394 C 0.23354 0.04689 0.10814 0.0
C395 C 0.22647 0.0564 0.15263 0.0
C396 C 0.24048 0.06945 0.17773 0.0
C397 C 0.257 0.0671 0.1401 0.0
C398 C 0.25322 0.05396 0.09844 0.0
C399 C 0.24493 0.06213 0.23535 0.0
C400 C 0.23236 0.08976 0.17564 0.0
H401 H 0.32278 0.07111 0.0233 0.0
H402 H 0.28901 0.02281 0.91509 0.0
H403 H 0.25503 0.0569 0.95273 0.0
H404 H 0.23852 0.04163 0.98445 0.0
H405 H 0.25351 0.03254 0.93234 0.0
H406 H 0.27991 0.01263 0.05091 0.0
H407 H 0.26733 0.00691 0.98998 0.0
H408 H 0.25483 0.01301 0.05038 0.0
H409 H 0.32874 0.10187 0.197 0.0
H410 H 0.28284 0.10967 0.30906 0.0
H411 H 0.26137 0.09492 0.24622 0.0
H412 H 0.32147 0.062 0.17049 0.0
H413 H 0.33702 0.0762 0.13065 0.0
H414 H 0.32374 0.05702 0.10174 0.0
H415 H 0.30477 0.11259 0.09111 0.0
H416 H 0.30571 0.09606 0.03843 0.0
H417 H 0.32683 0.10142 0.07654 0.0
H418 H 0.3375 0.05847 0.94591 0.0
C419 C 0.31481 0.0609 1.00119 0.0
C420 C 0.47079 0.28483 0.91632 0.0
C421 C 0.46222 0.30158 0.89614 0.0
C422 C 0.44525 0.30774 0.91979 0.0
C423 C 0.44628 0.28247 0.98435 0.0
C424 C 0.46228 0.27527 0.96035 0.0
C425 C 0.46808 0.25685 0.98758 0.0
H426 H 0.45599 0.20093 0.21238 0.0
C427 C 0.4419 0.27141 0.03266 0.0
C428 C 0.45443 0.25602 0.03555 0.0
H429 H 0.49108 0.18693 0.07636 0.0
H430 H 0.48163 0.2164 0.03223 0.0
H431 H 0.46875 0.24164 0.22047 0.0
H432 H 0.4201 0.21566 0.14917 0.0
H433 H 0.4124 0.23523 0.18734 0.0
H434 H 0.42508 0.21657 0.22008 0.0
H435 H 0.44787 0.23754 0.25897 0.0
H436 H 0.45147 0.25934 0.22283 0.0
C437 C 0.48881 0.2581 0.0059 0.0
C438 C 0.46454 0.24059 0.94744 0.0
C439 C 0.39997 0.303 0.17019 0.0
C440 C 0.40061 0.30198 0.22669 0.0
C441 C 0.40734 0.2852 0.25038 0.0
C442 C 0.41549 0.27098 0.21868 0.0
C443 C 0.41771 0.27389 0.1631 0.0
C444 C 0.40976 0.28961 0.13974 0.0
C445 C 0.41625 0.29238 0.08285 0.0
C446 C 0.42967 0.27578 0.0761 0.0
C447 C 0.42998 0.26476 0.12247 0.0
C448 C 0.42654 0.31183 0.0794 0.0
C449 C 0.39876 0.29034 0.0457 0.0
C450 C 0.46181 0.20406 0.17317 0.0
C451 C 0.47443 0.19159 0.14838 0.0
C452 C 0.48127 0.19626 0.09657 0.0
C453 C 0.47576 0.21331 0.07096 0.0
C454 C 0.46308 0.22565 0.09706 0.0
C455 C 0.4564 0.22065 0.14737 0.0
C456 C 0.44333 0.23492 0.17097 0.0
C457 C 0.44177 0.2487 0.12508 0.0
C458 C 0.45373 0.24384 0.08172 0.0
C459 C 0.45319 0.2438 0.22104 0.0
C460 C 0.42421 0.22519 0.18292 0.0
H461 H 0.42435 0.3039 0.97811 0.0
H462 H 0.48358 0.27939 0.8983 0.0
H463 H 0.45019 0.24174 0.92951 0.0
H464 H 0.46525 0.22663 0.96668 0.0
H465 H 0.47498 0.24099 0.91416 0.0
H466 H 0.491 0.27079 0.03161 0.0
H467 H 0.49837 0.25912 0.97066 0.0
H468 H 0.49306 0.24565 0.02963 0.0
H469 H 0.39435 0.31533 0.15017 0.0
H470 H 0.40794 0.28365 0.29365 0.0
H471 H 0.42088 0.25888 0.23933 0.0
H472 H 0.43007 0.31777 0.11968 0.0
H473 H 0.41777 0.32251 0.05837 0.0
H474 H 0.44042 0.31088 0.05934 0.0
H475 H 0.38901 0.27929 0.06091 0.0
H476 H 0.40244 0.28569 1.00449 0.0
H477 H 0.39072 0.30378 0.04362 0.0
H478 H 0.43831 0.3205 0.90633 0.0
C479 C 0.43719 0.2982 0.96256 0.0
Gd480 Gd 0.9913 0.01841 0.53189 0.0
Gd481 Gd 0.0267 1.00504 0.6322 0.0
C482 C 0.0442 0.04878 0.76018 0.0
C483 C 0.07668 0.05536 0.73627 0.0
C484 C 0.05818 0.03274 0.68418 0.0
C485 C 0.04267 0.03625 0.71601 0.0
C486 C 0.0755 0.04198 0.69468 0.0
C487 C 0.06109 0.05863 0.76932 0.0
C488 C 0.02894 0.05064 0.795 0.0
C489 C 0.01244 0.04065 0.78473 0.0
N490 N 0.02638 0.02677 0.70557 0.0
C491 C 0.01139 0.02874 0.73999 0.0
H492 H 0.99832 0.02142 0.73405 0.0
C493 C 0.07281 0.01293 0.62046 0.0
N494 N 0.05677 0.01925 0.64569 0.0
C495 C 0.09011 0.02197 0.62824 0.0
C496 C 0.0914 0.03684 0.66484 0.0
H497 H 0.07221 1.00089 0.59365 0.0
H498 H 0.06235 0.06851 0.80255 0.0
H499 H 0.01928 1.00092 0.43182 0.0
H500 H 0.03002 0.05927 0.83077 0.0
H501 H 1.00051 0.04196 0.81153 0.0
H502 H 0.08979 0.0627 0.74456 0.0
H503 H 0.94583 0.02472 0.56689 0.0
H504 H 0.98746 0.96163 0.33965 0.0
H505 H 0.01706 0.97913 0.35655 0.0
H506 H 0.92739 0.96053 0.42501 0.0
H507 H 0.1025 0.01723 0.60666 0.0
H508 H 0.10489 0.04364 0.67157 0.0
H509 H 0.95491 0.95323 0.36863 0.0
H510 H 0.91509 0.00899 0.55496 0.0
N511 N 0.99129 0.99593 0.46069 0.0
C512 C 0.98858 0.97081 0.37427 0.0
C513 C 1.00514 0.98089 0.38323 0.0
C514 C 0.97328 0.97335 0.40867 0.0
C515 C 0.97491 0.9865 0.45126 0.0
C516 C 0.00624 0.99347 0.42649 0.0
N517 N 0.96093 1.00496 0.51863 0.0
C518 C 0.95938 0.99082 0.48215 0.0
C519 C 0.92746 1.00352 0.53474 0.0
C520 C 0.92599 0.98794 0.50063 0.0
C521 C 0.94496 0.01226 0.54185 0.0
C522 C 0.9419 0.98183 0.47233 0.0
H523 H 0.91236 0.98135 0.49441 0.0
O524 O 0.9714 0.04033 0.50987 0.0
O525 O 0.01131 0.0295 0.59565 0.0
O526 O 0.99749 0.9996 0.66729 0.0
O527 O 0.9749 0.00713 0.60254 0.0
O528 O 0.98399 0.03988 0.59519 0.0
O529 O 0.9967 0.03634 0.46296 0.0
O530 O 0.0477 0.98469 0.65823 0.0
O531 O 0.00677 0.99397 0.56853 0.0
O532 O 0.02031 0.02426 0.49639 0.0
O533 O 0.04278 0.01455 0.55887 0.0
O534 O 0.03412 0.98373 0.56852 0.0
O535 O 0.0201 0.98467 0.69435 0.0
C536 C 1.0002 0.04123 0.61827 0.0
C537 C 0.94061 0.96773 0.43269 0.0
C538 C 0.95625 0.96362 0.40054 0.0
C539 C 0.98204 0.04696 0.47207 0.0
C540 C 0.98493 0.06749 0.47321 0.0
C541 C 0.96934 0.07936 0.46563 0.0
C542 C 1.00287 0.07539 0.48182 0.0
C543 C 1.00546 0.09508 0.48025 0.0
C544 C 0.97165 0.09888 0.46574 0.0
C545 C 0.98956 0.10672 0.4724 0.0
C546 C 0.97975 1.0014 0.65111 0.0
C547 C 0.01781 0.98213 0.54606 0.0
C548 C 0.03573 0.97532 0.68705 0.0
C549 C 0.03404 0.95504 0.67407 0.0
C550 C 0.05006 0.9446 0.65913 0.0
C551 C 0.01631 0.94621 0.67356 0.0
C552 C 0.01451 0.92712 0.65912 0.0
C553 C 0.04831 0.92572 0.64353 0.0
C554 C 0.03066 0.91698 0.6435 0.0
C555 C 0.03798 0.02121 0.51133 0.0
H556 H 0.95538 0.0735 0.45939 0.0
H557 H 0.01482 0.06619 0.48903 0.0
H558 H 0.95958 0.10797 0.45943 0.0
H559 H 0.99096 0.12189 0.46952 0.0
H560 H 0.06389 0.95109 0.6589 0.0
H561 H 1.00381 0.95419 0.68412 0.0
H562 H 0.06071 0.9178 0.63186 0.0
H563 H 0.02974 0.90219 0.63272 0.0
Gd564 Gd 0.50654 0.98833 0.53346 0.0
Gd565 Gd 0.51262 0.02837 0.62659 0.0
C566 C 0.46589 0.05696 0.7234 0.0
C567 C 0.46347 0.08752 0.67996 0.0
C568 C 0.48631 0.06436 0.64851 0.0
C569 C 0.48013 0.05168 0.68669 0.0
C570 C 0.47839 0.0826 0.64558 0.0
C571 C 0.45725 0.07472 0.71886 0.0
C572 C 0.46128 0.04454 0.76487 0.0
C573 C 0.47111 0.02759 0.76968 0.0
N574 N 0.48874 0.03459 0.68995 0.0
C575 C 0.48484 0.02282 0.73189 0.0
H576 H 0.49215 0.00964 0.73688 0.0
C577 C 0.50923 0.07223 0.58338 0.0
N578 N 0.50085 0.05925 0.61632 0.0
C579 C 0.50187 0.09047 0.57906 0.0
C580 C 0.48616 0.09558 0.60959 0.0
H581 H 0.52128 0.06832 0.55924 0.0
H582 H 0.44613 0.07891 0.74627 0.0
H583 H 0.52665 0.0101 0.42637 0.0
H584 H 0.4506 0.04817 0.79426 0.0
H585 H 0.46835 0.01822 0.80278 0.0
H586 H 0.45707 0.10138 0.67792 0.0
H587 H 0.49814 0.94545 0.58267 0.0
H588 H 0.57245 0.97663 0.37008 0.0
H589 H 0.55266 1.00521 0.36372 0.0
H590 H 0.56853 0.92079 0.47707 0.0
H591 H 0.50821 0.10051 0.55195 0.0
H592 H 0.48049 0.10973 0.60619 0.0
H593 H 0.57895 0.94555 0.41473 0.0
H594 H 0.51345 0.91428 0.58758 0.0
N595 N 0.53144 0.98475 0.4704 0.0
C596 C 0.561 0.97871 0.39828 0.0
C597 C 0.5498 0.9948 0.39438 0.0
C598 C 0.55685 0.9652 0.43726 0.0
C599 C 0.5416 0.96854 0.47253 0.0
C600 C 0.53491 0.99751 0.43043 0.0
N601 N 0.52005 0.95786 0.53656 0.0
C602 C 0.53582 0.95469 0.50737 0.0
C603 C 0.52016 0.92558 0.56567 0.0
C604 C 0.53726 0.92256 0.53927 0.0
C605 C 0.51153 0.94327 0.56297 0.0
C606 C 0.54505 0.93705 0.5084 0.0
H607 H 0.54385 0.90878 0.54088 0.0
O608 O 0.48471 0.96857 0.50911 0.0
O609 O 0.49218 0.00833 0.58993 0.0
O610 O 0.51437 1.00065 0.67291 0.0
O611 O 0.51917 0.97648 0.60991 0.0
O612 O 0.48282 0.98081 0.59039 0.0
O613 O 0.49175 0.99205 0.45764 0.0
O614 O 0.53373 0.04895 0.64931 0.0
O615 O 0.52726 0.00769 0.57252 0.0
O616 O 0.50414 0.0169 0.49144 0.0
O617 O 0.49435 0.03808 0.55712 0.0
O618 O 0.53579 0.03541 0.56754 0.0
O619 O 0.52754 0.02558 0.70265 0.0
C620 C 0.4802 0.99731 0.61089 0.0
C621 C 0.56109 0.93414 0.47636 0.0
C622 C 0.56698 0.94821 0.44075 0.0
C623 C 0.47991 0.97842 0.46734 0.0
C624 C 0.45975 0.98295 0.46352 0.0
C625 C 0.44692 0.96869 0.44978 0.0
C626 C 0.45309 1.00115 0.47573 0.0
C627 C 0.43374 1.0053 0.4725 0.0
C628 C 0.42764 0.97258 0.44761 0.0
C629 C 0.42107 0.99076 0.45853 0.0
C630 C 0.51838 0.98291 0.65999 0.0
C631 C 0.53894 0.01862 0.55017 0.0
C632 C 0.53836 0.04009 0.6931 0.0
C633 C 0.5587 0.03797 0.70195 0.0
C634 C 0.5691 0.05397 0.71695 0.0
C635 C 0.56797 0.02065 0.69387 0.0
C636 C 0.5876 0.01931 0.70179 0.0
C637 C 0.58853 0.05276 0.72436 0.0
C638 C 0.59773 0.03556 0.71722 0.0
C639 C 0.49646 0.03321 0.50601 0.0
H640 H 0.45182 0.95452 0.44095 0.0
H641 H 0.46295 0.01207 0.48754 0.0
H642 H 0.41778 0.96154 0.43669 0.0
H643 H 0.40611 0.99352 0.45441 0.0
H644 H 0.56215 0.06745 0.72277 0.0
H645 H 0.55998 0.00834 0.6813 0.0
H646 H 0.59648 0.06515 0.73618 0.0
H647 H 0.61277 0.03494 0.72488 0.0
Gd648 Gd 0.49148 0.51588 0.61823 0.0
Gd649 Gd 0.53208 0.50087 0.53693 0.0
C650 C 0.59273 0.50358 0.60001 0.0
C651 C 0.60605 0.52887 0.54651 0.0
C652 C 0.5734 0.51926 0.53328 0.0
C653 C 0.57525 0.50593 0.57343 0.0
C654 C 0.58892 0.53056 0.51845 0.0
C655 C 0.60795 0.5154 0.58723 0.0
C656 C 0.59451 0.48918 0.63796 0.0
C657 C 0.57927 0.47725 0.64756 0.0
N658 N 0.5602 0.49482 0.58522 0.0
C659 C 0.56225 0.48012 0.62022 0.0
H660 H 0.55079 0.47071 0.62855 0.0
C661 C 0.55513 0.53151 0.46174 0.0
N662 N 0.55673 0.52048 0.5067 0.0
C663 C 0.57005 0.54308 0.44578 0.0
C664 C 0.58694 0.54282 0.47477 0.0
H665 H 0.54204 0.53176 0.4393 0.0
H666 H 0.62138 0.51395 0.60777 0.0
H667 H 0.46732 0.53834 0.52244 0.0
H668 H 0.60767 0.48692 0.65925 0.0
H669 H 0.58058 0.46586 0.6762 0.0
H670 H 0.61806 0.53757 0.5361 0.0
H671 H 0.4899 0.48703 0.72631 0.0
H672 H 0.40882 0.52685 0.5431 0.0
H673 H 0.43439 0.54295 0.49441 0.0
H674 H 0.40766 0.48385 0.69119 0.0
H675 H 0.56851 0.55218 0.41117 0.0
H676 H 0.59852 0.55174 0.4622 0.0
H677 H 0.39895 0.50444 0.61601 0.0
H678 H 0.4663 0.46975 0.77851 0.0
N679 N 0.46084 0.51793 0.58214 0.0
C680 C 0.42333 0.52385 0.55354 0.0
C681 C 0.43772 0.53313 0.52631 0.0
C682 C 0.4278 0.51149 0.5954 0.0
C683 C 0.44695 0.50892 0.60927 0.0
C684 C 0.45644 0.53024 0.54182 0.0
N685 N 0.47017 0.49743 0.66853 0.0
C686 C 0.45178 0.49814 0.65342 0.0
C687 C 0.462 0.47772 0.74349 0.0
C688 C 0.44307 0.47826 0.72822 0.0
C689 C 0.47537 0.48766 0.71366 0.0
C690 C 0.4377 0.48879 0.68326 0.0
H691 H 0.43269 0.47079 0.75193 0.0
O692 O 0.49276 0.53161 0.69369 0.0
O693 O 0.52285 0.51379 0.61325 0.0
O694 O 0.52117 0.47729 0.59224 0.0
O695 O 0.48954 0.48419 0.60981 0.0
O696 O 0.51108 0.50882 0.68736 0.0
O697 O 0.48077 0.54464 0.62085 0.0
O698 O 0.54287 0.49282 0.45901 0.0
O699 O 0.50083 0.5032 0.54064 0.0
O700 O 0.49992 0.53812 0.55689 0.0
O701 O 0.5319 0.53284 0.54528 0.0
O702 O 0.51279 0.50897 0.46724 0.0
O703 O 0.53456 0.47115 0.5156 0.0
C704 C 0.5267 0.50957 0.66135 0.0
C705 C 0.41868 0.49076 0.66846 0.0
C706 C 0.41373 0.50236 0.62525 0.0
C707 C 0.48517 0.54643 0.67142 0.0
C708 C 0.48151 0.56377 0.70155 0.0
C709 C 0.46375 0.57237 0.69874 0.0
C710 C 0.49653 0.5731 0.72682 0.0
C711 C 0.4942 0.59151 0.74709 0.0
C712 C 0.46106 0.59028 0.72093 0.0
C713 C 0.47619 0.59991 0.7444 0.0
C714 C 0.50401 0.47231 0.60901 0.0
C715 C 0.49705 0.50747 0.49251 0.0
C716 C 0.53995 0.47492 0.46658 0.0
C717 C 0.53075 0.46498 0.42153 0.0
C718 C 0.53837 0.46705 0.36975 0.0
C719 C 0.5148 0.45348 0.42887 0.0
C720 C 0.50691 0.4438 0.3848 0.0
C721 C 0.53027 0.45779 0.32587 0.0
C722 C 0.51468 0.44615 0.33329 0.0
C723 C 0.51694 0.544 0.54306 0.0
H724 H 0.45211 0.5654 0.67848 0.0
H725 H 0.51021 0.56628 0.72838 0.0
H726 H 0.44737 0.59697 0.71831 0.0
H727 H 0.47389 0.61419 0.75854 0.0
H728 H 0.55065 0.47586 0.36327 0.0
H729 H 0.50883 0.45164 0.46864 0.0
H730 H 0.5362 0.45951 0.2861 0.0
H731 H 0.50869 0.4389 0.29878 0.0
Gd732 Gd 1.00106 0.49302 0.6308 0.0
Gd733 Gd 0.01691 0.52991 0.54085 0.0
C734 C 0.00869 0.592 0.58697 0.0
C735 C 0.98582 0.60238 0.52055 0.0
C736 C 0.99794 0.57026 0.51844 0.0
C737 C 0.00856 0.57376 0.56396 0.0
C738 C 0.98704 0.58474 0.49493 0.0
C739 C 0.99667 0.60602 0.56655 0.0
C740 C 0.02168 0.59598 0.62769 0.0
C741 C 0.0347 0.58224 0.64283 0.0
N742 N 0.02028 0.55998 0.5821 0.0
C743 C 0.03404 0.56439 0.61875 0.0
H744 H 0.04437 0.55426 0.63111 0.0
C745 C 0.99293 0.55055 0.44303 0.0
N746 N 0.99987 0.5533 0.49396 0.0
C747 C 0.98191 0.56439 0.41823 0.0
C748 C 0.97856 0.58141 0.4449 0.0
H749 H 0.99528 0.53732 0.42239 0.0
H750 H 0.99634 0.61998 0.58447 0.0
H751 H 0.96865 0.47831 0.53718 0.0
H752 H 0.02228 0.60986 0.64567 0.0
H753 H 0.04525 0.5853 0.6731 0.0
H754 H 0.97727 0.61357 0.50365 0.0
H755 H 0.03231 0.47956 0.72415 0.0
H756 H 0.97558 0.41937 0.51281 0.0
H757 H 0.95905 0.44921 0.49305 0.0
H758 H 0.02417 0.40249 0.63697 0.0
H759 H 0.97595 0.56186 0.37872 0.0
H760 H 0.9701 0.59217 0.42551 0.0
H761 H 0.99911 0.40212 0.56829 0.0
H762 H 0.04888 0.45063 0.7528 0.0
N763 N 0.99133 0.46592 0.58187 0.0
C764 C 0.98008 0.4323 0.53244 0.0
C765 C 0.97067 0.44907 0.5214 0.0
C766 C 0.99481 0.43229 0.56987 0.0
C767 C 1.00029 0.44952 0.59404 0.0
C768 C 0.97629 0.46572 0.54707 0.0
N769 N 0.01821 0.46623 0.65843 0.0
C770 C 0.01418 0.44971 0.63332 0.0
C771 C 0.03926 0.45017 0.71893 0.0
C772 C 0.03592 0.43322 0.69189 0.0
C773 C 0.0299 0.46651 0.70245 0.0
C774 C 0.02292 0.43273 0.64945 0.0
H775 H 0.04295 0.42049 0.70527 0.0
O776 O 0.99613 0.488 0.71547 0.0
O777 O 1.00294 0.52461 0.62057 0.0
O778 O 0.03937 0.52353 0.60426 0.0
O779 O 0.03307 0.49235 0.62551 0.0
O780 O 0.01144 0.5134 0.69381 0.0
O781 O 0.97272 0.48724 0.65905 0.0
O782 O 0.03118 0.54243 0.47202 0.0
O783 O 0.01382 0.49875 0.55106 0.0
O784 O 0.9753 0.50481 0.58752 0.0
O785 O 0.98534 0.52797 0.52768 0.0
O786 O 0.00627 0.50938 0.47733 0.0
O787 O 0.04544 0.52164 0.51957 0.0
C788 C 0.00866 0.52882 0.6678 0.0
C789 C 0.01775 0.41567 0.62471 0.0
C790 C 1.0036 0.41546 0.5854 0.0
C791 C 0.97792 0.48734 0.70952 0.0
C792 C 0.96734 0.4996 0.74623 0.0
C793 C 0.96564 0.49439 0.80028 0.0
C794 C 0.95975 0.51684 0.72865 0.0
C795 C 0.94993 0.5286 0.76466 0.0
C796 C 0.95626 0.50614 0.83647 0.0
C797 C 0.94834 0.52305 0.81887 0.0
C798 C 0.04456 0.50708 0.62491 0.0
C799 C 0.00799 0.49408 0.50463 0.0
C800 C 0.04522 0.53071 0.47444 0.0
C801 C 0.04915 0.5191 0.42636 0.0
C802 C 0.03701 0.51919 0.38147 0.0
C803 C 0.06408 0.50611 0.42801 0.0
C804 C 0.06645 0.49283 0.38661 0.0
C805 C 0.03948 0.50611 0.33988 0.0
C806 C 0.05399 0.49283 0.34263 0.0
C807 C 0.97201 0.51738 0.54932 0.0
H808 H 0.97167 0.48127 0.81451 0.0
H809 H 0.96145 0.52104 0.68706 0.0
H810 H 0.95489 0.50201 0.87817 0.0
H811 H 0.94047 0.53147 0.84753 0.0
H812 H 0.02535 0.529 0.37898 0.0
H813 H 0.0734 0.50581 0.46269 0.0
H814 H 0.02996 0.50612 0.30575 0.0
H815 H 0.05562 0.48271 0.31018 0.0
H816 H 0.18358 0.00686 0.19671 0.0
H817 H 0.15549 1.00362 0.2535 0.0
H818 H 0.13979 0.06105 0.21737 0.0
H819 H 0.16825 0.06442 0.16281 0.0
H820 H 0.13551 0.05715 0.31667 0.0
H821 H 0.1153 0.01894 0.16848 0.0
H822 H 0.11703 0.99346 0.10079 0.0
H823 H 0.11969 0.95216 0.2265 0.0
H824 H 0.11824 0.97741 0.29498 0.0
H825 H 0.04067 0.0473 0.42963 0.0
H826 H 0.06654 0.05099 0.36422 0.0
H827 H 0.09487 1.003 0.43332 0.0
H828 H 0.06959 0.99977 0.49927 0.0
H829 H 0.09167 1.00268 0.31627 0.0
H830 H 0.10923 0.04292 0.46414 0.0
H831 H 0.10624 0.0694 0.52791 0.0
H832 H 0.10796 0.10873 0.39719 0.0
H833 H 0.10989 0.08241 0.33222 0.0
C834 C 0.17384 0.01858 0.1998 0.0
C835 C 0.17801 0.0358 0.17459 0.0
C836 C 0.15772 0.01678 0.23247 0.0
C837 C 0.14517 0.03204 0.2399 0.0
C838 C 0.14909 0.04902 0.21293 0.0
C839 C 0.16531 0.0509 0.18111 0.0
C840 C 0.12859 0.0308 0.27774 0.0
C841 C 0.12574 0.04538 0.31566 0.0
C842 C 0.11588 0.01531 0.27789 0.0
C843 C 0.11686 1.00009 0.23684 0.0
C844 C 0.11641 1.00444 0.18169 0.0
C845 C 0.11732 0.99003 0.14318 0.0
C846 C 0.11853 0.97121 0.15933 0.0
C847 C 0.11879 0.96675 0.21404 0.0
C848 C 0.11792 0.9811 0.25272 0.0
C849 C 0.05259 0.0378 0.43133 0.0
C850 C 0.05336 0.0237 0.47098 0.0
C851 C 0.06732 0.03982 0.39378 0.0
C852 C 0.0828 0.02734 0.394 0.0
C853 C 0.08322 0.0129 0.43247 0.0
C854 C 0.06882 0.01122 0.4707 0.0
C855 C 0.09858 0.0291 0.35432 0.0
C856 C 0.10133 0.01456 0.31652 0.0
C857 C 0.11097 0.0448 0.35372 0.0
C858 C 0.10925 0.0606 0.39301 0.0
C859 C 0.10846 0.05716 0.44872 0.0
C860 C 0.10699 0.07217 0.48517 0.0
C861 C 0.10672 0.09074 0.46657 0.0
C862 C 0.10794 0.09433 0.41149 0.0
C863 C 0.1091 0.07937 0.37482 0.0
H864 H 0.10565 0.10236 0.49482 0.0
H865 H 0.11921 0.96007 0.12946 0.0
H866 H 0.47733 0.15487 0.11042 0.0
H867 H 0.48172 0.12608 0.16391 0.0
H868 H 0.48686 0.15996 0.30789 0.0
H869 H 0.48369 0.18844 0.25463 0.0
H870 H 0.50941 0.13338 0.31908 0.0
H871 H 0.44326 0.13404 0.27023 0.0
H872 H 0.4159 0.13496 0.20861 0.0
H873 H 0.43625 0.08543 0.12722 0.0
H874 H 0.4638 0.08435 0.18818 0.0
H875 H 0.47747 0.06693 0.51678 0.0
H876 H 0.47451 0.09207 0.44996 0.0
H877 H 0.49893 0.05569 0.32966 0.0
H878 H 0.50305 0.03092 0.39692 0.0
H879 H 0.46281 0.08146 0.30274 0.0
H880 H 0.52784 0.08045 0.36669 0.0
H881 H 0.55158 0.07995 0.43935 0.0
H882 H 0.53022 0.13247 0.50074 0.0
H883 H 0.50596 0.13298 0.42934 0.0
C884 C 0.47983 0.15615 0.15328 0.0
C885 C 0.47991 0.17403 0.17814 0.0
C886 C 0.48202 0.13964 0.18413 0.0
C887 C 0.48414 0.14064 0.24058 0.0
C888 C 0.48514 0.15856 0.26473 0.0
C889 C 0.48319 0.17494 0.23406 0.0
C890 C 0.48508 0.12329 0.27518 0.0
C891 C 0.4991 0.12214 0.31532 0.0
C892 C 0.47183 0.10832 0.27083 0.0
C893 C 0.4556 0.10919 0.23339 0.0
C894 C 0.44194 0.12344 0.23891 0.0
C895 C 0.4264 0.12397 0.20419 0.0
C896 C 0.42436 0.11028 0.16395 0.0
C897 C 0.43787 0.09605 0.15832 0.0
C898 C 0.45344 0.09547 0.19291 0.0
C899 C 0.48257 0.06436 0.47645 0.0
C900 C 0.49151 0.04721 0.46332 0.0
C901 C 0.48057 0.07866 0.43802 0.0
C902 C 0.48681 0.07588 0.38501 0.0
C903 C 0.49419 0.05822 0.37047 0.0
C904 C 0.49663 0.04407 0.40923 0.0
C905 C 0.48693 0.09184 0.3461 0.0
C906 C 0.47314 0.09269 0.30561 0.0
C907 C 0.50012 0.10673 0.3508 0.0
C908 C 0.51494 0.10663 0.39306 0.0
C909 C 0.52806 0.09178 0.39605 0.0
C910 C 0.54162 0.0915 0.43698 0.0
C911 C 0.54239 0.10615 0.47471 0.0
C912 C 0.52961 0.12113 0.47148 0.0
C913 C 0.51592 0.1214 0.43088 0.0
H914 H 0.55289 0.10591 0.50639 0.0
H915 H 0.41229 0.11069 0.13719 0.0
H916 H 0.33693 0.50896 0.23166 0.0
H917 H 0.36518 0.51615 0.28529 0.0
H918 H 0.39706 0.47615 0.191 0.0
H919 H 0.36883 0.46901 0.13778 0.0
H920 H 0.38213 0.49053 0.34814 0.0
H921 H 0.44441 0.48553 0.20262 0.0
H922 H 0.45182 0.49217 0.10766 0.0
H923 H 0.40995 0.53596 0.10525 0.0
H924 H 0.40245 0.52975 0.20041 0.0
H925 H 0.47002 0.47986 0.4996 0.0
H926 H 0.44283 0.47542 0.44057 0.0
H927 H 0.4547 0.5286 0.36375 0.0
H928 H 0.48333 0.53159 0.41795 0.0
H929 H 0.44695 0.50676 0.29096 0.0
H930 H 0.39296 0.51664 0.44674 0.0
H931 H 0.37847 0.50657 0.53213 0.0
H932 H 0.40032 0.45062 0.50921 0.0
H933 H 0.41385 0.46013 0.42216 0.0
C934 C 0.3502 0.50241 0.22081 0.0
C935 C 0.3508 0.48883 0.17953 0.0
C936 C 0.36631 0.50629 0.25202 0.0
C937 C 0.3834 0.49672 0.24253 0.0
C938 C 0.38425 0.48396 0.19907 0.0
C939 C 0.36812 0.48 0.16814 0.0
C940 C 0.39954 0.49855 0.28144 0.0
C941 C 0.39628 0.49441 0.33575 0.0
C942 C 0.41817 0.50292 0.2654 0.0
C943 C 0.4228 0.50708 0.20854 0.0
C944 C 0.43686 0.49665 0.18192 0.0
C945 C 0.44106 0.50032 0.12804 0.0
C946 C 0.43133 0.51445 0.10041 0.0
C947 C 0.41743 0.52498 0.12666 0.0
C948 C 0.41319 0.52138 0.18056 0.0
C949 C 0.46654 0.49073 0.47072 0.0
C950 C 0.47861 0.50626 0.46408 0.0
C951 C 0.4506 0.48839 0.43734 0.0
C952 C 0.44578 0.50197 0.39819 0.0
C953 C 0.45775 0.51777 0.39314 0.0
C954 C 0.47414 0.51961 0.42448 0.0
C955 C 0.42957 0.49944 0.35904 0.0
C956 C 0.4328 0.50328 0.30407 0.0
C957 C 0.41089 0.49445 0.37431 0.0
C958 C 0.40538 0.48939 0.4296 0.0
C959 C 0.39501 0.50231 0.46059 0.0
C960 C 0.38664 0.4966 0.50872 0.0
C961 C 0.3888 0.47807 0.52668 0.0
C962 C 0.39893 0.46507 0.49581 0.0
C963 C 0.40681 0.47058 0.44684 0.0
H964 H 0.38246 0.47374 0.56422 0.0
H965 H 0.43459 0.51725 0.05867 0.0
H966 H 0.0134 0.33322 0.2455 0.0
H967 H 0.00781 0.36121 0.30184 0.0
H968 H 0.04284 0.39424 0.19652 0.0
H969 H 0.0484 0.3662 0.1404 0.0
H970 H 0.03448 0.38043 0.35825 0.0
H971 H 0.03055 0.44158 0.20904 0.0
H972 H 0.02036 0.44791 0.11584 0.0
H973 H 0.97978 0.40307 0.12539 0.0
H974 H 0.98955 0.39664 0.21886 0.0
H975 H 0.03716 0.46829 0.51404 0.0
H976 H 0.04366 0.44149 0.45523 0.0
H977 H 0.99075 0.45081 0.37285 0.0
H978 H 0.9857 0.47898 0.42719 0.0
H979 H 0.0112 0.44315 0.30174 0.0
H980 H 0.01017 0.39161 0.4663 0.0
H981 H 0.02451 0.3795 0.55019 0.0
H982 H 0.07795 0.40304 0.50536 0.0
H983 H 0.06421 0.41398 0.41959 0.0
C984 C 0.01918 0.34665 0.23302 0.0
C985 C 0.03078 0.34758 0.18724 0.0
C986 C 0.01627 0.36263 0.26584 0.0
C987 C 0.02483 0.38006 0.2538 0.0
C988 C 0.03578 0.38118 0.20667 0.0
C989 C 0.03879 0.36515 0.17408 0.0
C990 C 0.02334 0.39652 0.29239 0.0
C991 C 0.02907 0.39409 0.34606 0.0
C992 C 0.0171 0.41467 0.27664 0.0
C993 C 0.01092 0.41852 0.22074 0.0
C994 C 0.01941 0.43312 0.19129 0.0
C995 C 0.01371 0.43672 0.13842 0.0
C996 C 0.99948 0.42586 0.11465 0.0
C997 C 0.99086 0.41142 0.14378 0.0
C998 C 0.99648 0.40778 0.19668 0.0
C999 C 0.0268 0.46434 0.48391 0.0
C1000 C 0.01068 0.47558 0.47621 0.0
C1001 C 0.03038 0.44861 0.45025 0.0
C1002 C 0.0176 0.44317 0.40908 0.0
C1003 C 1.00121 0.45433 0.4031 0.0
C1004 C 0.99811 0.47046 0.43486 0.0
C1005 C 0.02123 0.42699 0.36965 0.0
C1006 C 0.01619 0.42947 0.31497 0.0
C1007 C 0.02845 0.40893 0.38425 0.0
C1008 C 0.03596 0.4045 0.43812 0.0
C1009 C 0.02488 0.3945 0.47496 0.0
C1010 C 0.03297 0.38756 0.52234 0.0
C1011 C 0.05198 0.39095 0.5338 0.0
C1012 C 0.06314 0.40072 0.49701 0.0
C1013 C 0.05527 0.40708 0.44875 0.0
H1014 H 0.05812 0.38576 0.5708 0.0
H1015 H 0.9951 0.42865 0.0737 0.0
H1016 H 0.82827 1.00457 0.94481 0.0
H1017 H 0.85651 0.01104 0.89077 0.0
H1018 H 0.88513 0.96437 0.96601 0.0
H1019 H 0.85691 0.95794 0.01989 0.0
H1020 H 0.91 0.99357 0.94502 0.0
H1021 H 0.86345 0.95769 0.84861 0.0
H1022 H 0.83175 0.95094 0.81227 0.0
H1023 H 0.83374 1.00173 0.71883 0.0
H1024 H 0.86535 0.00894 0.75536 0.0
H1025 H 0.97878 0.97722 0.73825 0.0
H1026 H 0.9533 0.97358 0.80446 0.0
H1027 H 0.92074 0.01601 0.72194 0.0
H1028 H 0.94591 0.0196 0.65662 0.0
H1029 H 0.89806 0.98925 0.74864 0.0
H1030 H 0.94477 0.0249 0.84378 0.0
H1031 H 0.97645 0.03183 0.88 0.0
H1032 H 0.97462 0.98128 0.97446 0.0
H1033 H 0.94296 0.97395 0.9384 0.0
C1034 C 0.84087 0.99624 0.95147 0.0
C1035 C 0.84049 0.98099 0.98742 0.0
C1036 C 0.85695 0.99975 0.91997 0.0
C1037 C 0.87297 0.98803 0.92355 0.0
C1038 C 0.87306 0.97365 0.96234 0.0
C1039 C 0.85695 0.97007 0.99351 0.0
C1040 C 0.88882 0.9896 0.88377 0.0
C1041 C 0.90742 0.99237 0.90211 0.0
C1042 C 0.8856 0.98832 0.82753 0.0
C1043 C 0.86666 0.98397 0.80521 0.0
C1044 C 0.85706 0.9675 0.82066 0.0
C1045 C 0.83912 0.96357 0.79998 0.0
C1046 C 0.83071 0.97592 0.76338 0.0
C1047 C 0.84025 0.9922 0.74727 0.0
C1048 C 0.85818 0.99621 0.76794 0.0
C1049 C 0.96613 0.98568 0.73415 0.0
C1050 C 0.96427 0.99839 0.69104 0.0
C1051 C 0.95157 0.98369 0.77228 0.0
C1052 C 0.93497 0.99463 0.76883 0.0
C1053 C 0.93319 0.00723 0.72566 0.0
C1054 C 0.94761 0.00913 0.68764 0.0
C1055 C 0.91939 0.99311 0.80963 0.0
C1056 C 0.90076 0.9904 0.79149 0.0
C1057 C 0.92264 0.99436 0.86592 0.0
C1058 C 0.94159 0.99878 0.888 0.0
C1059 C 0.95118 0.0152 0.87201 0.0
C1060 C 0.96912 0.01921 0.89253 0.0
C1061 C 0.97758 0.00697 0.92934 0.0
C1062 C 0.96806 0.99073 0.94587 0.0
C1063 C 0.95011 0.98665 0.92547 0.0
H1064 H 0.99148 0.0101 0.94515 0.0
H1065 H 0.81682 0.97286 0.7474 0.0
H1066 H 0.55864 0.86656 0.04734 0.0
H1067 H 0.55415 0.89353 0.98693 0.0
H1068 H 0.50287 0.86836 0.92655 0.0
H1069 H 0.50729 0.84147 0.98762 0.0
H1070 H 0.52798 0.87839 0.84565 0.0
H1071 H 0.50084 0.90768 1.00261 0.0
H1072 H 0.50054 0.91822 0.09728 0.0
H1073 H 0.54901 0.95307 0.06866 0.0
H1074 H 0.54976 0.94253 0.97396 0.0
H1075 H 0.49778 0.95105 0.67337 0.0
H1076 H 0.50039 0.92742 0.74403 0.0
H1077 H 0.54485 0.95985 0.81911 0.0
H1078 H 0.54162 0.98397 0.74856 0.0
H1079 H 0.52427 0.94623 0.89421 0.0
H1080 H 0.55182 0.91856 0.73891 0.0
H1081 H 0.55427 0.90751 0.64515 0.0
H1082 H 0.50904 0.86838 0.67074 0.0
H1083 H 0.50557 0.87984 0.76398 0.0
C1084 C 0.54608 0.86714 0.02243 0.0
C1085 C 0.53307 0.85215 0.023 0.0
C1086 C 0.54357 0.8825 0.9877 0.0
C1087 C 0.52812 0.8831 0.95216 0.0
C1088 C 0.51485 0.86831 0.95368 0.0
C1089 C 0.51726 0.85305 0.98896 0.0
C1090 C 0.52656 0.89835 0.91082 0.0
C1091 C 0.52682 0.89322 0.85622 0.0
C1092 C 0.52595 0.91777 0.92447 0.0
C1093 C 0.52546 0.92417 0.98132 0.0
C1094 C 0.51153 0.91747 0.01661 0.0
C1095 C 0.51126 0.92347 0.07026 0.0
C1096 C 0.52477 0.93627 0.08901 0.0
C1097 C 0.53856 0.94314 0.0541 0.0
C1098 C 0.5389 0.93717 1.00042 0.0
C1099 C 0.50841 0.95292 0.70419 0.0
C1100 C 0.52008 0.96893 0.7041 0.0
C1101 C 0.50984 0.93943 0.74498 0.0
C1102 C 0.52326 0.94136 0.78645 0.0
C1103 C 0.53452 0.95777 0.78745 0.0
C1104 C 0.5328 0.97151 0.74694 0.0
C1105 C 0.52535 0.9263 0.82853 0.0
C1106 C 0.52533 0.93143 0.88332 0.0
C1107 C 0.52653 0.90682 0.81504 0.0
C1108 C 0.52836 0.90017 0.75852 0.0
C1109 C 0.54225 0.90774 0.72449 0.0
C1110 C 0.54387 0.90134 0.67146 0.0
C1111 C 0.53204 0.88706 0.65226 0.0
C1112 C 0.51829 0.87936 0.68579 0.0
C1113 C 0.51641 0.88587 0.73867 0.0
H1114 H 0.53342 0.88207 0.61124 0.0
H1115 H 0.52454 0.9409 0.13056 0.0
H1116 H 0.67714 0.50258 0.96093 0.0
H1117 H 0.64947 0.49748 0.90259 0.0
H1118 H 0.63382 0.55591 0.92197 0.0
H1119 H 0.66136 0.56099 0.97991 0.0
H1120 H 0.60275 0.53369 0.92253 0.0
H1121 H 0.65758 0.54173 0.8123 0.0
H1122 H 0.68976 0.53471 0.78048 0.0
H1123 H 0.67256 0.47863 0.73635 0.0
H1124 H 0.64033 0.48524 0.76871 0.0
H1125 H 0.55615 0.53419 0.64299 0.0
H1126 H 0.58478 0.5382 0.69858 0.0
H1127 H 0.56586 0.49378 0.80337 0.0
H1128 H 0.5377 0.48944 0.74742 0.0
H1129 H 0.61459 0.51086 0.73654 0.0
H1130 H 0.57099 0.51421 0.93359 0.0
H1131 H 0.53896 0.5233 0.96248 0.0
H1132 H 0.53406 0.56059 0.82739 0.0
H1133 H 0.56618 0.55211 0.79853 0.0
C1134 C 0.6675 0.51418 0.95385 0.0
C1135 C 0.6714 0.53216 0.97526 0.0
C1136 C 0.6518 0.51133 0.91998 0.0
C1137 C 0.63961 0.52638 0.90709 0.0
C1138 C 0.64295 0.54406 0.931 0.0
C1139 C 0.65869 0.54695 0.96427 0.0
C1140 C 0.62395 0.52407 0.86686 0.0
C1141 C 0.60538 0.52861 0.88202 0.0
C1142 C 0.62728 0.51787 0.81331 0.0
C1143 C 0.6466 0.51391 0.7935 0.0
C1144 C 0.6607 0.52785 0.79623 0.0
C1145 C 0.67894 0.52395 0.77802 0.0
C1146 C 0.68321 0.50621 0.75655 0.0
C1147 C 0.66924 0.49235 0.75309 0.0
C1148 C 0.65098 0.49617 0.77133 0.0
C1149 C 0.55844 0.52496 0.677 0.0
C1150 C 0.54501 0.51112 0.69003 0.0
C1151 C 0.57473 0.52729 0.70882 0.0
C1152 C 0.57753 0.51621 0.75503 0.0
C1153 C 0.5641 0.50239 0.76779 0.0
C1154 C 0.54801 0.49995 0.73584 0.0
C1155 C 0.59347 0.51999 0.79289 0.0
C1156 C 0.61202 0.5158 0.77722 0.0
C1157 C 0.59017 0.52678 0.8457 0.0
C1158 C 0.57092 0.53225 0.86342 0.0
C1159 C 0.5631 0.52438 0.91015 0.0
C1160 C 0.54493 0.52946 0.92655 0.0
C1161 C 0.53444 0.54242 0.89661 0.0
C1162 C 0.54212 0.55041 0.8503 0.0
C1163 C 0.5603 0.54544 0.83384 0.0
H1164 H 0.52038 0.54633 0.90942 0.0
H1165 H 0.69734 0.50322 0.74248 0.0
H1166 H 0.95509 0.67562 0.93503 0.0
H1167 H 0.96119 0.64686 0.88604 0.0
H1168 H 0.01824 0.64615 0.94728 0.0
H1169 H 0.01263 0.67677 0.99172 0.0
H1170 H 0.02151 0.63588 0.85478 0.0
H1171 H 0.9776 0.6116 0.98114 0.0
H1172 H 0.94849 0.60953 0.03502 0.0
H1173 H 0.91536 0.60603 0.89037 0.0
H1174 H 0.94427 0.60838 0.83569 0.0
H1175 H 0.0299 0.53957 0.75243 0.0
H1176 H 0.02619 0.56685 0.81132 0.0
H1177 H 0.98029 0.58682 0.71295 0.0
H1178 H 0.98343 0.55867 0.65462 0.0
H1179 H 0.97345 0.58588 0.82801 0.0
H1180 H 0.02441 0.63089 0.72784 0.0
H1181 H 0.05554 0.63233 0.68349 0.0
H1182 H 0.07742 0.59175 0.79531 0.0
H1183 H 0.04658 0.59053 0.84096 0.0
C1184 C 0.96898 0.66936 0.93866 0.0
C1185 C 0.98343 0.67888 0.967 0.0
C1186 C 0.97239 0.65247 0.911 0.0
C1187 C 0.99013 0.64362 0.91299 0.0
C1188 C 1.00436 0.65245 0.94437 0.0
C1189 C 1.0011 0.6699 0.97077 0.0
C1190 C 0.99398 0.62615 0.8791 0.0
C1191 C 0.01101 0.62485 0.85022 0.0
C1192 C 0.9805 0.61144 0.87156 0.0
C1193 C 0.96309 0.6102 0.90435 0.0
C1194 C 0.9641 0.61049 0.96085 0.0
C1195 C 0.94764 0.60926 0.99153 0.0
C1196 C 0.93009 0.60764 0.96614 0.0
C1197 C 0.92896 0.60725 0.91001 0.0
C1198 C 0.94538 0.60849 0.87916 0.0
C1199 C 0.01925 0.54997 0.74248 0.0
C1200 C 0.00735 0.54717 0.69767 0.0
C1201 C 0.01733 0.56582 0.77598 0.0
C1202 C 1.00357 0.5796 0.76568 0.0
C1203 C 0.9914 0.57674 0.72124 0.0
C1204 C 0.99325 0.5607 0.68758 0.0
C1205 C 1.00078 0.59584 0.80427 0.0
C1206 C 0.98389 0.59692 0.83355 0.0
C1207 C 0.01469 0.60985 0.81414 0.0
C1208 C 0.03299 0.60991 0.78592 0.0
C1209 C 0.03583 0.62211 0.74241 0.0
C1210 C 0.05347 0.62305 0.71742 0.0
C1211 C 0.0684 0.61196 0.73614 0.0
C1212 C 0.06578 0.60012 0.78033 0.0
C1213 C 0.04821 0.59927 0.80564 0.0
H1214 H 0.08202 0.61264 0.71666 0.0
H1215 H 0.91737 0.60669 0.98998 0.0
H1216 H 0.09056 0.22145 0.32831 0.0
H1217 H 0.08638 0.19738 0.396 0.0
H1218 H 0.12668 0.16176 0.31482 0.0
H1219 H 0.13156 0.18624 0.24723 0.0
H1220 H 0.09038 0.14831 0.31277 0.0
H1221 H 0.13295 0.17089 0.44624 0.0
H1222 H 0.1482 0.19451 0.50497 0.0
H1223 H 0.09531 0.20549 0.58286 0.0
H1224 H 0.07963 0.18219 0.52398 0.0
H1225 H 0.03805 0.08018 0.43841 0.0
H1226 H 0.06755 0.09638 0.42272 0.0
H1227 H 0.04576 0.14595 0.50266 0.0
H1228 H 0.01682 0.12906 0.52364 0.0
H1229 H 0.08175 0.14685 0.51066 0.0
H1230 H 0.03805 0.13459 0.36418 0.0
H1231 H 0.01959 0.11437 0.30254 0.0
H1232 H 0.07066 0.08898 0.2442 0.0
H1233 H 0.08939 0.10907 0.30552 0.0
C1234 C 0.09941 0.20902 0.32613 0.0
C1235 C 0.11107 0.20563 0.28132 0.0
C1236 C 0.09695 0.19517 0.36518 0.0
C1237 C 0.10607 0.1777 0.36016 0.0
C1238 C 0.11946 0.17515 0.31927 0.0
C1239 C 0.1221 0.1891 0.28041 0.0
C1240 C 0.09807 0.16119 0.38834 0.0
C1241 C 0.08903 0.14761 0.35622 0.0
C1242 C 0.09573 0.16076 0.4448 0.0
C1243 C 0.1051 0.17477 0.48052 0.0
C1244 C 0.12453 0.17842 0.47562 0.0
C1245 C 0.13325 0.19176 0.50899 0.0
C1246 C 0.12273 0.20149 0.54761 0.0
C1247 C 0.10344 0.19791 0.55297 0.0
C1248 C 0.09463 0.18462 0.51965 0.0
C1249 C 0.03977 0.09415 0.45521 0.0
C1250 C 0.02473 0.10344 0.48105 0.0
C1251 C 0.0567 0.10354 0.44558 0.0
C1252 C 0.05864 0.12265 0.45953 0.0
C1253 C 0.04451 0.1313 0.49053 0.0
C1254 C 0.02778 0.12171 0.50168 0.0
C1255 C 0.07356 0.13447 0.43482 0.0
C1256 C 0.08372 0.14716 0.4674 0.0
C1257 C 0.07637 0.13468 0.37832 0.0
C1258 C 0.06509 0.12294 0.3405 0.0
C1259 C 0.04532 0.12459 0.33848 0.0
C1260 C 0.03481 0.11319 0.3035 0.0
C1261 C 0.04393 0.10029 0.26977 0.0
C1262 C 0.06359 0.09888 0.27062 0.0
C1263 C 0.07416 0.11025 0.30552 0.0
H1264 H 0.03577 0.09146 0.24275 0.0
H1265 H 0.12951 0.21181 0.5734 0.0
H1266 H 0.30735 0.09349 0.36076 0.0
H1267 H 0.33455 0.09024 0.419 0.0
H1268 H 0.36752 0.12449 0.31117 0.0
H1269 H 0.34005 0.12784 0.25211 0.0
H1270 H 0.38103 0.0898 0.31845 0.0
H1271 H 0.36525 0.13657 0.45028 0.0
H1272 H 0.34369 0.15411 0.51014 0.0
H1273 H 0.33033 0.10293 0.59372 0.0
H1274 H 0.35158 0.08506 0.53366 0.0
H1275 H 0.45056 0.03772 0.43689 0.0
H1276 H 0.43565 0.06843 0.42618 0.0
H1277 H 0.38598 0.04797 0.50734 0.0
H1278 H 0.40132 0.01759 0.52142 0.0
H1279 H 0.38788 0.08559 0.51677 0.0
H1280 H 0.39171 0.03904 0.37477 0.0
H1281 H 0.40853 0.01729 0.31383 0.0
H1282 H 0.43877 0.06382 0.24587 0.0
H1283 H 0.42237 0.08594 0.30721 0.0
C1284 C 0.32004 0.10121 0.35067 0.0
C1285 C 0.32161 0.11068 0.30132 0.0
C1286 C 0.33569 0.09936 0.38429 0.0
C1287 C 0.35315 0.1071 0.36952 0.0
C1288 C 0.35419 0.11839 0.32334 0.0
C1289 C 0.3385 0.12023 0.28956 0.0
C1290 C 0.37058 0.0997 0.39494 0.0
C1291 C 0.38303 0.0896 0.36176 0.0
C1292 C 0.37277 0.09879 0.45145 0.0
C1293 C 0.36018 0.10953 0.48801 0.0
C1294 C 0.35772 0.12907 0.48147 0.0
C1295 C 0.34553 0.13906 0.51534 0.0
C1296 C 0.33571 0.12965 0.55586 0.0
C1297 C 0.33803 0.11022 0.56254 0.0
C1298 C 0.35021 0.10018 0.52878 0.0
C1299 C 0.43684 0.03998 0.45483 0.0
C1300 C 0.42686 0.025 0.47847 0.0
C1301 C 0.42828 0.05758 0.44842 0.0
C1302 C 0.40947 0.06027 0.46429 0.0
C1303 C 0.40043 0.04614 0.49407 0.0
C1304 C 0.40909 0.02865 0.50131 0.0
C1305 C 0.39793 0.07551 0.44016 0.0
C1306 C 0.38655 0.08678 0.47343 0.0
C1307 C 0.39624 0.07712 0.38352 0.0
C1308 C 0.40603 0.06407 0.34608 0.0
C1309 C 0.40205 0.04463 0.34706 0.0
C1310 C 0.41151 0.03226 0.31249 0.0
C1311 C 0.42478 0.03921 0.27616 0.0
C1312 C 0.42855 0.05855 0.27421 0.0
C1313 C 0.4192 0.07099 0.30891 0.0
H1314 H 0.4321 0.02963 0.24939 0.0
H1315 H 0.32626 0.13741 0.58199 0.0
H1316 H 0.40985 0.33772 0.19509 0.0
H1317 H 0.4164 0.36431 0.2512 0.0
H1318 H 0.39693 0.33395 0.39048 0.0
H1319 H 0.38944 0.30669 0.33318 0.0
H1320 H 0.40246 0.38827 0.3202 0.0
H1321 H 0.43094 0.34276 0.48808 0.0
H1322 H 0.43905 0.30956 0.50768 0.0
H1323 H 0.45371 0.3006 0.34193 0.0
H1324 H 0.44589 0.33377 0.32165 0.0
H1325 H 0.47251 0.45049 0.43107 0.0
H1326 H 0.44537 0.42882 0.43325 0.0
H1327 H 0.47921 0.38574 0.35676 0.0
H1328 H 0.50601 0.40723 0.35455 0.0
H1329 H 0.45786 0.37036 0.43097 0.0
H1330 H 0.45162 0.41436 0.2868 0.0
H1331 H 0.44765 0.44478 0.24063 0.0
H1332 H 0.39501 0.4536 0.32203 0.0
H1333 H 0.39907 0.42356 0.37056 0.0
C1334 C 0.40586 0.33666 0.23694 0.0
C1335 C 0.39924 0.31966 0.25926 0.0
C1336 C 0.40978 0.35212 0.26939 0.0
C1337 C 0.40745 0.35107 0.32521 0.0
C1338 C 0.39904 0.33495 0.34744 0.0
C1339 C 0.39491 0.31934 0.31461 0.0
C1340 C 0.4172 0.36544 0.3586 0.0
C1341 C 0.41419 0.3845 0.3462 0.0
C1342 C 0.43273 0.36044 0.3915 0.0
C1343 C 0.43754 0.34057 0.4033 0.0
C1344 C 0.43588 0.33366 0.45592 0.0
C1345 C 0.44045 0.31488 0.46713 0.0
C1346 C 0.4468 0.30296 0.42603 0.0
C1347 C 0.44872 0.30982 0.37368 0.0
C1348 C 0.44423 0.3286 0.36232 0.0
C1349 C 0.47409 0.43628 0.41559 0.0
C1350 C 0.49116 0.43049 0.39209 0.0
C1351 C 0.45865 0.42397 0.41669 0.0
C1352 C 0.46027 0.40569 0.39498 0.0
C1353 C 0.47765 0.39972 0.37403 0.0
C1354 C 0.49291 0.41202 0.37237 0.0
C1355 C 0.44378 0.39302 0.38946 0.0
C1356 C 0.44549 0.37439 0.40786 0.0
C1357 C 0.42767 0.39824 0.35925 0.0
C1358 C 0.42587 0.41694 0.33331 0.0
C1359 C 0.43944 0.42301 0.29596 0.0
C1360 C 0.43716 0.44015 0.26928 0.0
C1361 C 0.42117 0.45115 0.27871 0.0
C1362 C 0.40748 0.44514 0.31517 0.0
C1363 C 0.40982 0.42811 0.34254 0.0
H1364 H 0.41933 0.46418 0.25716 0.0
H1365 H 0.4503 0.28842 0.43478 0.0
H1366 H 0.19656 0.37849 0.25512 0.0
H1367 H 0.16917 0.38387 0.31319 0.0
H1368 H 0.19339 0.43675 0.36575 0.0
H1369 H 0.22091 0.43091 0.311 0.0
H1370 H 0.17065 0.42698 0.43716 0.0
H1371 H 0.16672 0.43141 0.24202 0.0
H1372 H 0.16807 0.41909 0.14907 0.0
H1373 H 0.12563 0.37799 0.18683 0.0
H1374 H 0.12413 0.39006 0.28013 0.0
H1375 H 0.10364 0.49988 0.40356 0.0
H1376 H 0.12957 0.47721 0.40334 0.0
H1377 H 0.08991 0.43176 0.37849 0.0
H1378 H 0.06397 0.45462 0.37605 0.0
H1379 H 0.11674 0.42959 0.30989 0.0
H1380 H 0.11658 0.441 0.50367 0.0
H1381 H 0.11752 0.46228 0.58262 0.0
H1382 H 0.17166 0.48308 0.53354 0.0
H1383 H 0.17091 0.46234 0.45394 0.0
C1384 C 0.19639 0.39074 0.28131 0.0
C1385 C 0.21068 0.40442 0.27793 0.0
C1386 C 0.18068 0.39391 0.3141 0.0
C1387 C 0.17883 0.41111 0.34203 0.0
C1388 C 0.19431 0.42345 0.34428 0.0
C1389 C 0.21016 0.42006 0.31282 0.0
C1390 C 0.16012 0.41819 0.35973 0.0
C1391 C 0.15874 0.42741 0.40967 0.0
C1392 C 0.14455 0.41877 0.32388 0.0
C1393 C 0.14552 0.41141 0.26808 0.0
C1394 C 0.15777 0.41967 0.2305 0.0
C1395 C 0.15854 0.41276 0.17779 0.0
C1396 C 0.14701 0.3977 0.16213 0.0
C1397 C 0.13461 0.3896 0.19909 0.0
C1398 C 0.13379 0.39646 0.25186 0.0
C1399 C 0.10048 0.485 0.39883 0.0
C1400 C 0.0819 0.47893 0.38975 0.0
C1401 C 0.11527 0.47202 0.39937 0.0
C1402 C 0.11166 0.45266 0.39251 0.0
C1403 C 0.09298 0.44657 0.38471 0.0
C1404 C 0.07822 0.45961 0.38299 0.0
C1405 C 0.1275 0.43915 0.38648 0.0
C1406 C 0.12825 0.42861 0.33864 0.0
C1407 C 0.1429 0.43839 0.42294 0.0
C1408 C 0.14363 0.45011 0.47262 0.0
C1409 C 0.12867 0.45012 0.5097 0.0
C1410 C 0.12916 0.46214 0.5545 0.0
C1411 C 0.14459 0.47411 0.56271 0.0
C1412 C 0.15969 0.47387 0.52688 0.0
C1413 C 0.15925 0.46196 0.48202 0.0
H1414 H 0.14491 0.48367 0.59663 0.0
H1415 H 0.14764 0.39236 0.12132 0.0
H1416 H 0.89978 0.80786 0.83168 0.0
H1417 H 0.90355 0.82805 0.75285 0.0
H1418 H 0.92076 0.87409 0.85571 0.0
H1419 H 0.91783 0.85414 0.93372 0.0
H1420 H 0.90415 0.88678 0.76031 0.0
H1421 H 0.95359 0.84263 0.82288 0.0
H1422 H 0.96492 0.81066 0.8445 0.0
H1423 H 0.9503 0.79177 0.68533 0.0
H1424 H 0.93876 0.82372 0.66297 0.0
H1425 H 0.98872 0.93144 0.73906 0.0
H1426 H 0.9597 0.91407 0.75208 0.0
H1427 H 0.96915 0.88358 0.60391 0.0
H1428 H 0.99873 0.90094 0.59102 0.0
H1429 H 0.96292 0.86037 0.68218 0.0
H1430 H 0.92964 0.91335 0.61905 0.0
H1431 H 0.92306 0.9473 0.60865 0.0
H1432 H 0.90988 0.95158 0.77682 0.0
H1433 H 0.91673 0.91786 0.78852 0.0
C1434 C 0.90387 0.82244 0.83767 0.0
C1435 C 0.90909 0.82913 0.88908 0.0
C1436 C 0.90579 0.83401 0.79256 0.0
C1437 C 0.91278 0.85243 0.79845 0.0
C1438 C 0.91533 0.85991 0.85024 0.0
C1439 C 0.91362 0.84836 0.89514 0.0
C1440 C 0.92188 0.86227 0.75303 0.0
C1441 C 0.9168 0.881 0.74211 0.0
C1442 C 0.93815 0.85453 0.72846 0.0
C1443 C 0.9451 0.8354 0.74154 0.0
C1444 C 0.9527 0.8316 0.79265 0.0
C1445 C 0.95914 0.8135 0.80505 0.0
C1446 C 0.95822 0.79913 0.76645 0.0
C1447 C 0.95093 0.80289 0.71527 0.0
C1448 C 0.94444 0.82099 0.70269 0.0
C1449 C 0.9844 0.92146 0.70827 0.0
C1450 C 0.99596 0.91765 0.6637 0.0
C1451 C 0.96766 0.91159 0.71558 0.0
C1452 C 0.96191 0.89784 0.67819 0.0
C1453 C 0.97315 0.89433 0.63277 0.0
C1454 C 0.99006 0.90415 0.62562 0.0
C1455 C 0.94588 0.88535 0.69188 0.0
C1456 C 0.94968 0.86603 0.69702 0.0
C1457 C 0.92866 0.89274 0.71178 0.0
C1458 C 0.92363 0.91296 0.70458 0.0
C1459 C 0.92532 0.92153 0.65383 0.0
C1460 C 0.92159 0.94077 0.64772 0.0
C1461 C 0.91605 0.95162 0.69199 0.0
C1462 C 0.91413 0.94321 0.74245 0.0
C1463 C 0.91788 0.92399 0.74882 0.0
H1464 H 0.91327 0.96652 0.68712 0.0
H1465 H 0.96323 0.78512 0.77612 0.0
H1466 H 0.71722 0.91873 0.83358 0.0
H1467 H 0.69525 0.92707 0.76383 0.0
H1468 H 0.65045 0.89909 0.84865 0.0
H1469 H 0.67281 0.88895 0.91748 0.0
H1470 H 0.64443 0.90706 0.72677 0.0
H1471 H 0.65525 0.93815 0.90156 0.0
H1472 H 0.67695 0.9478 0.97442 0.0
H1473 H 0.70988 0.97955 0.86174 0.0
H1474 H 0.68824 0.97013 0.78821 0.0
H1475 H 0.57571 0.9848 0.7377 0.0
H1476 H 0.59505 0.95649 0.74903 0.0
H1477 H 0.64154 0.98425 0.67072 0.0
H1478 H 0.62223 0.01237 0.65804 0.0
H1479 H 0.64598 0.97429 0.78391 0.0
H1480 H 0.62543 0.94912 0.61448 0.0
H1481 H 0.6024 0.93778 0.54742 0.0
H1482 H 0.58617 0.89288 0.65315 0.0
H1483 H 0.60831 0.90455 0.72208 0.0
C1484 C 0.7031 0.91308 0.83651 0.0
C1485 C 0.69669 0.90399 0.88344 0.0
C1486 C 0.69044 0.91796 0.79594 0.0
C1487 C 0.67116 0.91431 0.80227 0.0
C1488 C 0.66528 0.9023 0.84359 0.0
C1489 C 0.67808 0.89689 0.8836 0.0
C1490 C 0.65757 0.92768 0.77838 0.0
C1491 C 0.64456 0.92174 0.73921 0.0
C1492 C 0.65783 0.94676 0.79511 0.0
C1493 C 0.67022 0.95338 0.83951 0.0
C1494 C 0.6671 0.94724 0.89243 0.0
C1495 C 0.67938 0.95265 0.9338 0.0
C1496 C 0.69486 0.96419 0.92269 0.0
C1497 C 0.69791 0.97058 0.87027 0.0
C1498 C 0.68559 0.96529 0.82878 0.0
C1499 C 0.58977 0.98461 0.72087 0.0
C1500 C 0.59754 1.00094 0.69771 0.0
C1501 C 0.6008 0.96842 0.72744 0.0
C1502 C 0.6197 0.9684 0.71092 0.0
C1503 C 0.62696 0.98406 0.68369 0.0
C1504 C 0.61594 1.00015 0.67682 0.0
C1505 C 0.63283 0.95391 0.73115 0.0
C1506 C 0.64576 0.95967 0.77066 0.0
C1507 C 0.63202 0.93471 0.71529 0.0
C1508 C 0.61841 0.9279 0.67396 0.0
C1509 C 0.61668 0.93707 0.62402 0.0
C1510 C 0.60376 0.93058 0.58558 0.0
C1511 C 0.59273 0.9147 0.59615 0.0
C1512 C 0.59459 0.90529 0.64516 0.0
C1513 C 0.60727 0.91189 0.68404 0.0
H1514 H 0.5828 0.90961 0.5663 0.0
H1515 H 0.70446 0.9682 0.95469 0.0
H1516 H 0.61953 0.71834 0.8678 0.0
H1517 H 0.60694 0.69226 0.81367 0.0
H1518 H 0.58929 0.664 0.95829 0.0
H1519 H 0.60064 0.68967 0.01182 0.0
H1520 H 0.59874 0.63886 0.88447 0.0
H1521 H 0.56085 0.69588 0.89996 0.0
H1522 H 0.55491 0.72988 0.88729 0.0
H1523 H 0.56128 0.7232 0.71645 0.0
H1524 H 0.56758 0.68918 0.72832 0.0
H1525 H 0.49528 0.61742 0.82946 0.0
H1526 H 0.52181 0.63726 0.85673 0.0
H1527 H 0.55738 0.6097 0.74007 0.0
H1528 H 0.5307 0.59062 0.70974 0.0
H1529 H 0.54315 0.66174 0.78206 0.0
H1530 H 0.60115 0.60553 0.82535 0.0
H1531 H 0.60547 0.57447 0.86847 0.0
H1532 H 0.55319 0.58152 0.9531 0.0
H1533 H 0.54867 0.6126 0.911 0.0
C1534 C 0.61332 0.70642 0.88824 0.0
C1535 C 0.61086 0.70659 0.94454 0.0
C1536 C 0.60626 0.69146 0.85714 0.0
C1537 C 0.59691 0.67638 0.88203 0.0
C1538 C 0.5965 0.67546 0.93818 0.0
C1539 C 0.60325 0.69036 0.96904 0.0
C1540 C 0.58476 0.66317 0.85147 0.0
C1541 C 0.5869 0.64377 0.86054 0.0
C1542 C 0.56889 0.66972 0.82229 0.0
C1543 C 0.56496 0.69009 0.81506 0.0
C1544 C 0.56112 0.7017 0.85975 0.0
C1545 C 0.55768 0.72096 0.85272 0.0
C1546 C 0.55778 0.72871 0.8011 0.0
C1547 C 0.56127 0.71719 0.75641 0.0
C1548 C 0.5648 0.69793 0.76326 0.0
C1549 C 0.50865 0.61565 0.80911 0.0
C1550 C 0.51074 0.60241 0.76721 0.0
C1551 C 0.52382 0.62692 0.82504 0.0
C1552 C 0.54146 0.62485 0.80033 0.0
C1553 C 0.54386 0.61133 0.75976 0.0
C1554 C 0.52859 0.60032 0.74292 0.0
C1555 C 0.5571 0.63747 0.81573 0.0
C1556 C 0.5555 0.65671 0.8036 0.0
C1557 C 0.573 0.63087 0.84433 0.0
C1558 C 0.57443 0.61125 0.86426 0.0
C1559 C 0.59047 0.60031 0.85259 0.0
C1560 C 0.59302 0.58278 0.87719 0.0
C1561 C 0.57971 0.57617 0.91394 0.0
C1562 C 0.56353 0.58674 0.92485 0.0
C1563 C 0.56089 0.60424 0.90029 0.0
H1564 H 0.58191 0.56283 0.93398 0.0
H1565 H 0.5551 0.74362 0.79572 0.0
H1566 H 0.83288 0.62452 0.90396 0.0
H1567 H 0.85912 0.62143 0.84223 0.0
H1568 H 0.82215 0.5964 0.72348 0.0
H1569 H 0.79625 0.59771 0.78706 0.0
H1570 H 0.84726 0.57315 0.74375 0.0
H1571 H 0.85161 0.63713 0.69731 0.0
H1572 H 0.85158 0.67168 0.70883 0.0
H1573 H 0.90058 0.66806 0.8102 0.0
H1574 H 0.90076 0.63346 0.80008 0.0
H1575 H 0.93107 0.53328 0.66897 0.0
H1576 H 0.90751 0.55733 0.64931 0.0
H1577 H 0.92106 0.58573 0.79819 0.0
H1578 H 0.94561 0.56257 0.81639 0.0
H1579 H 0.90608 0.61043 0.72569 0.0
H1580 H 0.89108 0.54716 0.79804 0.0
H1581 H 0.891 0.51241 0.7908 0.0
H1582 H 0.86114 0.51586 0.64049 0.0
H1583 H 0.86123 0.55065 0.64672 0.0
C1584 C 0.8302 0.61865 0.86436 0.0
C1585 C 0.81257 0.61068 0.85151 0.0
C1586 C 0.84523 0.61725 0.8284 0.0
C1587 C 0.84275 0.60847 0.77806 0.0
C1588 C 0.8245 0.60304 0.76227 0.0
C1589 C 0.80958 0.60396 0.79878 0.0
C1590 C 0.85947 0.60104 0.74871 0.0
C1591 C 0.85984 0.58159 0.73773 0.0
C1592 C 0.87613 0.61179 0.74149 0.0
C1593 C 0.87618 0.63264 0.74785 0.0
C1594 C 0.86232 0.64367 0.72231 0.0
C1595 C 0.86229 0.66328 0.72858 0.0
C1596 C 0.87608 0.67206 0.7602 0.0
C1597 C 0.88994 0.66124 0.78562 0.0
C1598 C 0.89004 0.64163 0.77951 0.0
C1599 C 0.92975 0.54513 0.69633 0.0
C1600 C 0.93976 0.54562 0.74535 0.0
C1601 C 0.91618 0.55887 0.68502 0.0
C1602 C 0.91216 0.57297 0.72313 0.0
C1603 C 0.92385 0.57489 0.76843 0.0
C1604 C 0.93765 0.56141 0.77927 0.0
C1605 C 0.89369 0.58274 0.72314 0.0
C1606 C 0.89309 0.60244 0.72903 0.0
C1607 C 0.87671 0.5723 0.72582 0.0
C1608 C 0.87634 0.55143 0.72256 0.0
C1609 C 0.88454 0.54048 0.76344 0.0
C1610 C 0.8845 0.52079 0.7595 0.0
C1611 C 0.8761 0.51193 0.71516 0.0
C1612 C 0.86767 0.52274 0.67476 0.0
C1613 C 0.86771 0.54243 0.67846 0.0
H1614 H 0.8761 0.49669 0.71216 0.0
H1615 H 0.87602 0.68725 0.765 0.0
H1616 H 0.05711 0.19614 0.85375 0.0
H1617 H 0.05099 0.16816 0.79935 0.0
H1618 H 0.99155 0.17298 0.83333 0.0
H1619 H 0.99782 0.20075 0.89022 0.0
H1620 H 1.0006 0.13859 0.84609 0.0
H1621 H 0.01305 0.18086 0.70366 0.0
H1622 H 0.02974 0.20457 0.64933 0.0
H1623 H 0.07629 0.16648 0.62858 0.0
H1624 H 0.06007 0.14266 0.68378 0.0
H1625 H 0.97587 0.0615 0.67788 0.0
H1626 H 0.98015 0.09184 0.72112 0.0
H1627 H 0.03902 0.09134 0.6776 0.0
H1628 H 0.03398 0.06164 0.6277 0.0
H1629 H 0.02896 0.12442 0.66837 0.0
H1630 H 0.01887 0.08897 0.84164 0.0
H1631 H 1.0015 0.06561 0.89663 0.0
H1632 H 0.94921 0.09288 0.8569 0.0
H1633 H 0.96639 0.11616 0.80174 0.0
C1634 C 0.04266 0.19142 0.8494 0.0
C1635 C 0.02799 0.2008 0.87709 0.0
C1636 C 0.03913 0.17538 0.81753 0.0
C1637 C 0.02074 0.16822 0.81128 0.0
C1638 C 0.00591 0.17802 0.83712 0.0
C1639 C 0.00947 0.19411 0.86935 0.0
C1640 C 0.01728 0.14984 0.78151 0.0
C1641 C 0.00662 0.13573 0.8068 0.0
C1642 C 0.02535 0.14554 0.73052 0.0
C1643 C 0.03541 0.16003 0.69847 0.0
C1644 C 0.02695 0.17761 0.68814 0.0
C1645 C 0.03631 0.19106 0.65707 0.0
C1646 C 0.05408 0.18705 0.63566 0.0
C1647 C 0.06254 0.16958 0.64531 0.0
C1648 C 0.05327 0.1561 0.67653 0.0
C1649 C 0.98986 0.06768 0.67799 0.0
C1650 C 1.00474 0.05861 0.65078 0.0
C1651 C 0.99241 0.08508 0.70407 0.0
C1652 C 0.01017 0.09395 0.70594 0.0
C1653 C 0.02515 0.08495 0.67817 0.0
C1654 C 0.02239 0.06771 0.65018 0.0
C1655 C 0.01267 0.113 0.73359 0.0
C1656 C 0.02307 0.12729 0.70778 0.0
C1657 C 1.00424 0.11763 0.78394 0.0
C1658 C 0.99381 0.10366 0.81617 0.0
C1659 C 1.00364 0.08956 0.84385 0.0
C1660 C 0.99386 0.07652 0.87537 0.0
C1661 C 0.97423 0.0776 0.87963 0.0
C1662 C 0.96439 0.09193 0.85314 0.0
C1663 C 0.97415 0.10507 0.82196 0.0
H1664 H 0.96667 0.06746 0.90386 0.0
H1665 H 0.06125 0.19747 0.61146 0.0
H1666 H 0.33043 0.06099 0.84506 0.0
H1667 H 0.35613 0.05203 0.78598 0.0
H1668 H 0.34962 0.9939 0.83364 0.0
H1669 H 0.32451 1.0033 0.89646 0.0
H1670 H 0.38406 1.00136 0.83968 0.0
H1671 H 0.3408 0.01366 0.69408 0.0
H1672 H 0.31737 0.03224 0.64316 0.0
H1673 H 0.35728 0.07749 0.62778 0.0
H1674 H 0.3809 0.05915 0.6779 0.0
H1675 H 0.46105 0.97372 0.67548 0.0
H1676 H 0.43071 0.97825 0.7183 0.0
H1677 H 0.42922 0.0357 0.66122 0.0
H1678 H 0.45858 0.03002 0.61157 0.0
H1679 H 0.39712 0.02611 0.65739 0.0
H1680 H 0.43502 0.01792 0.82744 0.0
H1681 H 0.45782 1.00089 0.88524 0.0
H1682 H 0.42724 0.94932 0.85978 0.0
H1683 H 0.40435 0.96613 0.80212 0.0
C1684 C 0.33406 0.04617 0.84183 0.0
C1685 C 0.32532 0.03287 0.8756 0.0
C1686 C 0.34882 0.04099 0.80747 0.0
C1687 C 0.35498 0.02216 0.80415 0.0
C1688 C 0.3453 0.00856 0.83506 0.0
C1689 C 0.33068 0.01385 0.87048 0.0
C1690 C 0.37268 0.01719 0.77341 0.0
C1691 C 0.38669 0.00653 0.79936 0.0
C1692 C 0.37671 0.02425 0.72125 0.0
C1693 C 0.36259 0.03505 0.68989 0.0
C1694 C 0.34455 0.02757 0.67972 0.0
C1695 C 0.33125 0.03804 0.65082 0.0
C1696 C 0.33584 0.05602 0.63195 0.0
C1697 C 0.35375 0.06352 0.64181 0.0
C1698 C 0.36713 0.05306 0.67029 0.0
C1699 C 0.45437 0.98743 0.67261 0.0
C1700 C 0.4628 1.00182 0.64219 0.0
C1701 C 0.437 0.99019 0.69834 0.0
C1702 C 0.42765 0.00771 0.69641 0.0
C1703 C 0.43596 0.02206 0.66482 0.0
C1704 C 0.45306 0.019 0.63712 0.0
C1705 C 0.40883 0.0107 0.72428 0.0
C1706 C 0.39454 0.02091 0.69768 0.0
C1707 C 0.40452 1.00332 0.77607 0.0
C1708 C 0.41847 0.99313 0.80928 0.0
C1709 C 0.43346 1.00289 0.83349 0.0
C1710 C 0.44627 0.99332 0.86649 0.0
C1711 C 0.44412 0.97399 0.87559 0.0
C1712 C 0.429 0.96425 0.85233 0.0
C1713 C 0.41608 0.9738 0.81969 0.0
H1714 H 0.45407 0.9666 0.90101 0.0
H1715 H 0.32551 0.06414 0.60977 0.0
H1716 H 0.49928 0.31303 0.88005 0.0
H1717 H 0.50993 0.3388 0.82172 0.0
H1718 H 0.45312 0.34494 0.76082 0.0
H1719 H 0.44333 0.318 0.81281 0.0
H1720 H 0.47107 0.35554 0.68874 0.0
H1721 H 0.47749 0.37322 0.87485 0.0
H1722 H 0.48925 0.3711 0.96817 0.0
H1723 H 0.54619 0.37736 0.91234 0.0
H1724 H 0.53476 0.37932 0.8186 0.0
H1725 H 0.47071 0.45506 0.63783 0.0
H1726 H 0.46637 0.42426 0.68003 0.0
H1727 H 0.5263 0.41434 0.67277 0.0
H1728 H 0.53079 0.44511 0.63083 0.0
H1729 H 0.51018 0.4053 0.7743 0.0
H1730 H 0.49628 0.39327 0.58325 0.0
H1731 H 0.47824 0.4007 0.50115 0.0
H1732 H 0.42638 0.38877 0.58328 0.0
H1733 H 0.44411 0.38151 0.6661 0.0
C1734 C 0.4893 0.31944 0.85258 0.0
C1735 C 0.47031 0.31366 0.85232 0.0
C1736 C 0.49527 0.33459 0.82006 0.0
C1737 C 0.48224 0.34475 0.78811 0.0
C1738 C 0.46367 0.33783 0.78495 0.0
C1739 C 0.45795 0.32236 0.81546 0.0
C1740 C 0.48727 0.36287 0.75956 0.0
C1741 C 0.47949 0.36636 0.70827 0.0
C1742 C 0.49839 0.37738 0.78359 0.0
C1743 C 0.5053 0.37616 0.83976 0.0
C1744 C 0.49253 0.37402 0.8825 0.0
C1745 C 0.49913 0.37286 0.93544 0.0
C1746 C 0.51846 0.37402 0.94616 0.0
C1747 C 0.53123 0.37641 0.90396 0.0
C1748 C 0.5247 0.37755 0.85093 0.0
C1749 C 0.48302 0.44641 0.64521 0.0
C1750 C 0.50117 0.45289 0.63133 0.0
C1751 C 0.48049 0.42869 0.66925 0.0
C1752 C 0.49601 0.41685 0.67971 0.0
C1753 C 0.51409 0.42318 0.66548 0.0
C1754 C 0.51663 0.44086 0.64124 0.0
C1755 C 0.4934 0.39789 0.70521 0.0
C1756 C 0.50181 0.39429 0.75538 0.0
C1757 C 0.48193 0.38371 0.68177 0.0
C1758 C 0.47151 0.38698 0.63091 0.0
C1759 C 0.48104 0.39223 0.58375 0.0
C1760 C 0.47084 0.39645 0.53711 0.0
C1761 C 0.45115 0.39534 0.53717 0.0
C1762 C 0.44162 0.38969 0.58344 0.0
C1763 C 0.45173 0.38549 0.63017 0.0
H1764 H 0.44317 0.39891 0.5016 0.0
H1765 H 0.52354 0.37312 0.98717 0.0
H1766 H 0.1984 0.45702 0.86035 0.0
H1767 H 0.17039 0.46309 0.80717 0.0
H1768 H 0.17694 0.5229 0.83437 0.0
H1769 H 0.20451 0.51666 0.89186 0.0
H1770 H 0.1422 0.51602 0.84385 0.0
H1771 H 0.18451 0.49916 0.70509 0.0
H1772 H 0.20822 0.48134 0.65321 0.0
H1773 H 0.17087 0.43373 0.64459 0.0
H1774 H 0.14704 0.45114 0.69718 0.0
H1775 H 0.06917 0.53546 0.65366 0.0
H1776 H 0.09957 0.53276 0.69889 0.0
H1777 H 0.094 0.47218 0.69961 0.0
H1778 H 0.06392 0.47479 0.65192 0.0
H1779 H 0.12834 0.48123 0.67503 0.0
H1780 H 0.08601 0.50148 0.81459 0.0
H1781 H 0.06206 0.5228 0.85331 0.0
H1782 H 0.1012 0.56896 0.8466 0.0
H1783 H 0.12527 0.548 0.80691 0.0
C1784 C 0.19398 0.47153 0.85522 0.0
C1785 C 0.20373 0.48632 0.88133 0.0
C1786 C 0.17797 0.47503 0.82381 0.0
C1787 C 0.17142 0.49352 0.8156 0.0
C1788 C 0.18155 0.50847 0.8398 0.0
C1789 C 0.19752 0.50492 0.87222 0.0
C1790 C 0.1535 0.4969 0.78431 0.0
C1791 C 0.13948 0.50876 0.80613 0.0
C1792 C 0.14947 0.48728 0.73532 0.0
C1793 C 0.16406 0.4764 0.70566 0.0
C1794 C 0.18144 0.4848 0.69277 0.0
C1795 C 0.19488 0.47479 0.66308 0.0
C1796 C 0.19108 0.4564 0.64577 0.0
C1797 C 0.17383 0.44796 0.6582 0.0
C1798 C 0.16035 0.45788 0.68798 0.0
C1799 C 0.07431 0.52153 0.66327 0.0
C1800 C 0.06366 0.50536 0.65021 0.0
C1801 C 0.09175 0.52002 0.68974 0.0
C1802 C 0.09898 0.50229 0.70437 0.0
C1803 C 0.08869 0.48607 0.68974 0.0
C1804 C 0.07131 0.48759 0.66288 0.0
C1805 C 0.11745 0.50057 0.73364 0.0
C1806 C 0.13142 0.48882 0.71188 0.0
C1807 C 0.12162 0.51078 0.78144 0.0
C1808 C 0.1074 0.52319 0.80737 0.0
C1809 C 0.08949 0.51619 0.82122 0.0
C1810 C 0.07588 0.52822 0.84327 0.0
C1811 C 0.08008 0.54724 0.85223 0.0
C1812 C 0.09795 0.55424 0.83951 0.0
C1813 C 0.11159 0.54229 0.81729 0.0
H1814 H 0.06951 0.55655 0.86909 0.0
H1815 H 0.20147 0.44871 0.62258 0.0
H1816 H 0.01899 0.82057 0.28514 0.0
H1817 H 0.02544 0.84828 0.34203 0.0
H1818 H 0.96601 0.8535 0.37591 0.0
H1819 H 0.95973 0.82553 0.32157 0.0
H1820 H 0.01674 0.88241 0.32766 0.0
H1821 H 0.95657 0.8799 0.48825 0.0
H1822 H 0.9405 0.85685 0.54637 0.0
H1823 H 0.98739 0.81887 0.53088 0.0
H1824 H 1.00392 0.84183 0.47361 0.0
H1825 H 0.98387 0.96177 0.53981 0.0
H1826 H 0.97845 0.93154 0.49289 0.0
H1827 H 0.03731 0.92978 0.44948 0.0
H1828 H 0.04196 0.96058 0.48954 0.0
H1829 H 0.98738 0.8985 0.50255 0.0
H1830 H 0.05094 0.90525 0.37028 0.0
H1831 H 0.06806 0.92791 0.3129 0.0
H1832 H 0.01569 0.95467 0.27109 0.0
H1833 H 0.9984 0.93191 0.32819 0.0
C1834 C 0.00739 0.82724 0.30618 0.0
C1835 C 0.98882 0.8207 0.29835 0.0
C1836 C 0.01104 0.8433 0.33837 0.0
C1837 C 0.99627 0.85325 0.36397 0.0
C1838 C 0.97784 0.84616 0.35795 0.0
C1839 C 0.97422 0.83012 0.32617 0.0
C1840 C 0.99979 0.87184 0.39261 0.0
C1841 C 0.01064 0.88565 0.36662 0.0
C1842 C 0.9915 0.87668 0.44288 0.0
C1843 C 0.98139 0.86253 0.47599 0.0
C1844 C 0.96345 0.86662 0.49712 0.0
C1845 C 0.95427 0.85357 0.53002 0.0
C1846 C 0.96288 0.83637 0.54211 0.0
C1847 C 0.9807 0.83217 0.52131 0.0
C1848 C 0.98997 0.84519 0.48855 0.0
C1849 C 0.99538 0.95528 0.51795 0.0
C1850 C 0.01312 0.9642 0.51618 0.0
C1851 C 0.9924 0.93774 0.49167 0.0
C1852 C 0.00724 0.92828 0.46454 0.0
C1853 C 0.02513 0.93691 0.46582 0.0
C1854 C 0.0279 0.95458 0.4901 0.0
C1855 C 1.00449 0.90907 0.43795 0.0
C1856 C 0.9937 0.89516 0.4641 0.0
C1857 C 0.01308 0.90392 0.38823 0.0
C1858 C 0.0235 0.91757 0.35493 0.0
C1859 C 0.04316 0.91611 0.34914 0.0
C1860 C 0.05288 0.9289 0.31669 0.0
C1861 C 0.043 0.94291 0.28898 0.0
C1862 C 0.02337 0.94402 0.29328 0.0
C1863 C 0.01363 0.93134 0.32603 0.0
H1864 H 0.05052 0.95278 0.26378 0.0
H1865 H 0.95578 0.82631 0.5677 0.0
H1866 H 0.69586 0.96005 0.32894 0.0
H1867 H 0.66878 0.96578 0.38758 0.0
H1868 H 0.66372 0.02216 0.32431 0.0
H1869 H 0.69141 0.01658 0.26695 0.0
H1870 H 0.65472 0.02328 0.42525 0.0
H1871 H 0.63612 0.98264 0.28011 0.0
H1872 H 0.63714 0.95456 0.22125 0.0
H1873 H 0.62652 0.91885 0.357 0.0
H1874 H 0.62576 0.94669 0.41687 0.0
H1875 H 0.55808 0.03956 0.47833 0.0
H1876 H 0.58865 0.03317 0.43678 0.0
H1877 H 0.59256 0.98084 0.52413 0.0
H1878 H 0.56168 0.9873 0.56598 0.0
H1879 H 0.60286 0.97636 0.41785 0.0
H1880 H 0.619 0.01803 0.56059 0.0
H1881 H 0.61655 0.04658 0.61722 0.0
H1882 H 0.62988 0.08121 0.48123 0.0
H1883 H 0.63217 0.05287 0.4236 0.0
C1884 C 0.68922 0.97383 0.32846 0.0
C1885 C 0.69586 0.9879 0.29342 0.0
C1886 C 0.67354 0.97703 0.36156 0.0
C1887 C 0.66366 0.99425 0.35962 0.0
C1888 C 0.67089 0.00869 0.32662 0.0
C1889 C 0.68682 0.00556 0.29396 0.0
C1890 C 0.64558 0.99693 0.39053 0.0
C1891 C 0.64331 0.01312 0.42281 0.0
C1892 C 0.63065 0.98351 0.38901 0.0
C1893 C 0.63116 0.96674 0.3531 0.0
C1894 C 0.63418 0.96878 0.29751 0.0
C1895 C 0.63469 0.95291 0.26394 0.0
C1896 C 0.63197 0.93493 0.2854 0.0
C1897 C 0.62868 0.93278 0.34046 0.0
C1898 C 0.62823 0.9486 0.37423 0.0
C1899 C 0.56542 0.02665 0.48858 0.0
C1900 C 0.55722 0.01369 0.52423 0.0
C1901 C 0.58299 0.02304 0.465 0.0
C1902 C 0.5931 0.00655 0.47726 0.0
C1903 C 0.58508 0.99364 0.51369 0.0
C1904 C 0.56738 0.99727 0.53739 0.0
C1905 C 0.61186 1.00289 0.45122 0.0
C1906 C 0.61427 0.98651 0.42005 0.0
C1907 C 0.62677 0.01624 0.45315 0.0
C1908 C 0.62564 0.03332 0.48774 0.0
C1909 C 0.6213 0.03174 0.54273 0.0
C1910 C 0.61995 0.04788 0.575 0.0
C1911 C 0.62302 0.06569 0.55283 0.0
C1912 C 0.6275 0.0674 0.49835 0.0
C1913 C 0.62886 0.05129 0.46587 0.0
H1914 H 0.62195 0.07817 0.57789 0.0
H1915 H 0.63235 0.92266 0.25935 0.0
H1916 H 0.56383 0.71141 0.39526 0.0
H1917 H 0.55527 0.6823 0.44151 0.0
H1918 H 0.50767 0.67527 0.33527 0.0
H1919 H 0.51658 0.70426 0.28726 0.0
H1920 H 0.50536 0.66481 0.46449 0.0
H1921 H 0.5379 0.65289 0.29258 0.0
H1922 H 0.56393 0.65937 0.2296 0.0
H1923 H 0.60434 0.64471 0.35149 0.0
H1924 H 0.57853 0.63851 0.41552 0.0
H1925 H 0.48942 0.5671 0.50268 0.0
H1926 H 0.49279 0.59884 0.46628 0.0
H1927 H 0.55253 0.59731 0.49985 0.0
H1928 H 0.54927 0.56526 0.53514 0.0
H1929 H 0.54823 0.61298 0.4082 0.0
H1930 H 0.52025 0.62358 0.57818 0.0
H1931 H 0.49747 0.61884 0.65158 0.0
H1932 H 0.4524 0.63763 0.54915 0.0
H1933 H 0.47493 0.64229 0.47478 0.0
C1934 C 0.55121 0.70399 0.38257 0.0
C1935 C 0.54099 0.71013 0.33716 0.0
C1936 C 0.54635 0.68731 0.40911 0.0
C1937 C 0.53095 0.67648 0.39161 0.0
C1938 C 0.5196 0.68343 0.34956 0.0
C1939 C 0.52462 0.70009 0.32237 0.0
C1940 C 0.52837 0.65697 0.4128 0.0
C1941 C 0.51445 0.65336 0.45151 0.0
C1942 C 0.54084 0.64224 0.39791 0.0
C1943 C 0.5563 0.64543 0.35894 0.0
C1944 C 0.55234 0.6512 0.30606 0.0
C1945 C 0.56705 0.65481 0.27016 0.0
C1946 C 0.58578 0.6525 0.28657 0.0
C1947 C 0.58983 0.64652 0.33885 0.0
C1948 C 0.57517 0.64295 0.37494 0.0
C1949 C 0.50328 0.57351 0.50257 0.0
C1950 C 0.51907 0.56355 0.52189 0.0
C1951 C 0.5052 0.59178 0.48185 0.0
C1952 C 0.52289 0.60079 0.48085 0.0
C1953 C 0.5387 0.5908 0.49996 0.0
C1954 C 0.53682 0.57242 0.5202 0.0
C1955 C 0.52487 0.62049 0.45946 0.0
C1956 C 0.53887 0.62425 0.42099 0.0
C1957 C 0.51282 0.63546 0.47588 0.0
C1958 C 0.49925 0.63312 0.52074 0.0
C1959 C 0.50546 0.62661 0.5712 0.0
C1960 C 0.4926 0.62394 0.613 0.0
C1961 C 0.47348 0.62786 0.60501 0.0
C1962 C 0.46721 0.63457 0.55525 0.0
C1963 C 0.48003 0.63726 0.51327 0.0
H1964 H 0.46353 0.62574 0.63739 0.0
H1965 H 0.59715 0.65531 0.25875 0.0
H1966 H 0.81887 0.50475 0.25672 0.0
H1967 H 0.84331 0.49656 0.32317 0.0
H1968 H 0.84329 0.55406 0.38091 0.0
H1969 H 0.81862 0.56192 0.31634 0.0
H1970 H 0.87732 0.50727 0.3267 0.0
H1971 H 0.86192 0.55914 0.50596 0.0
H1972 H 0.83473 0.57107 0.5575 0.0
H1973 H 0.80179 0.52328 0.50716 0.0
H1974 H 0.8289 0.51083 0.45623 0.0
H1975 H 0.96109 0.5323 0.45272 0.0
H1976 H 0.93007 0.53303 0.41194 0.0
H1977 H 0.90707 0.5044 0.54972 0.0
H1978 H 0.93844 0.50445 0.59229 0.0
H1979 H 0.88253 0.53017 0.51506 0.0
H1980 H 0.91628 0.48052 0.43304 0.0
H1981 H 0.94358 0.46533 0.38942 0.0
H1982 H 0.93785 0.50234 0.254 0.0
H1983 H 0.91076 0.51805 0.29734 0.0
C1984 C 0.82351 0.51537 0.28528 0.0
C1985 C 0.81661 0.53392 0.28167 0.0
C1986 C 0.83772 0.51078 0.32283 0.0
C1987 C 0.84532 0.52463 0.35771 0.0
C1988 C 0.83761 0.5429 0.35578 0.0
C1989 C 0.82342 0.54743 0.31864 0.0
C1990 C 0.86243 0.52069 0.39203 0.0
C1991 C 0.87829 0.51218 0.36799 0.0
C1992 C 0.8639 0.52665 0.44662 0.0
C1993 C 0.84743 0.53414 0.47672 0.0
C1994 C 0.8489 0.55113 0.50597 0.0
C1995 C 0.8335 0.55798 0.53513 0.0
C1996 C 0.81652 0.54798 0.53543 0.0
C1997 C 0.81493 0.53106 0.5067 0.0
C1998 C 0.83031 0.52411 0.47762 0.0
C1999 C 0.94951 0.52664 0.47535 0.0
C2000 C 0.95248 0.51861 0.52635 0.0
C2001 C 0.93165 0.52674 0.45135 0.0
C2002 C 0.91612 0.51845 0.47702 0.0
C2003 C 0.91879 0.51081 0.52872 0.0
C2004 C 0.93679 0.5108 0.55299 0.0
C2005 C 0.89738 0.51756 0.44879 0.0
C2006 C 0.88135 0.52513 0.47392 0.0
C2007 C 0.89557 0.5103 0.39574 0.0
C2008 C 0.91152 0.50054 0.36862 0.0
C2009 C 0.92088 0.48548 0.39405 0.0
C2010 C 0.93633 0.47678 0.3694 0.0
C2011 C 0.94245 0.48287 0.31898 0.0
C2012 C 0.93309 0.49764 0.29306 0.0
C2013 C 0.91767 0.50644 0.31765 0.0
H2014 H 0.95443 0.47614 0.29999 0.0
H2015 H 0.80461 0.55331 0.55803 0.0
loop_
_geom_bond_atom_site_label_1
_geom_bond_atom_site_label_2
_geom_bond_distance
_geom_bond_site_symmetry_2
_ccdc_geom_bond_type
C0 C1 1.391 . S
C0 C4 1.391 . S
C0 H42 0.948 . S
C1 C0 1.391 . S
C1 C2 1.391 . S
C2 C1 1.391 . S
C2 H58 0.947 . S
C2 C59 1.392 . S
C3 C4 1.391 . S
C3 C7 1.397 . S
C3 C59 1.419 . S
C4 C0 1.391 . S
C4 C3 1.391 . S
C4 C5 1.399 . S
C5 C4 1.399 . S
C5 C8 1.396 . S
C5 C17 1.453 . S
C5 C18 1.684 . S
H6 C30 0.948 . S
C7 C3 1.397 . S
C7 C8 1.394 . S
C7 C26 1.723 . S
C8 C5 1.396 . S
C8 C7 1.394 . S
C8 C38 1.723 . S
H9 C32 0.947 . S
H10 C33 0.948 . S
H11 C39 0.982 . S
H12 C40 0.979 1_554 S
H13 C40 0.980 . S
H14 C40 0.983 . S
H15 C39 0.979 1_556 S
H16 C39 0.977 1_556 S
C17 C5 1.453 . S
C17 H46 0.982 . S
C17 H47 0.979 . S
C17 H48 0.977 . S
C18 C5 1.684 . S
C18 H43 0.979 . S
C18 H44 0.980 . S
C18 H45 0.983 . S
C19 C20 1.391 1_554 S
C19 C24 1.391 . S
C19 H49 0.948 . S
C20 C19 1.391 1_556 S
C20 C21 1.391 . S
C21 C20 1.391 . S
C21 C22 1.392 . S
C21 H50 0.947 . S
C22 C21 1.392 . S
C22 C23 1.419 1_556 S
C22 H51 0.948 . S
C23 C22 1.419 1_554 S
C23 C24 1.391 . S
C23 C27 1.397 . S
C24 C19 1.391 . S
C24 C23 1.391 . S
C24 C25 1.399 . S
C25 C24 1.399 . S
C25 C26 1.396 . S
C25 C28 1.453 . S
C25 C29 1.684 . S
C26 C7 1.723 . S
C26 C25 1.396 . S
C26 C27 1.394 . S
C27 C23 1.397 . S
C27 C26 1.394 . S
C27 C37 1.723 . S
C28 C25 1.453 . S
C28 H52 0.982 . S
C28 H53 0.979 . S
C28 H54 0.977 . S
C29 C25 1.684 . S
C29 H55 0.979 . S
C29 H56 0.980 . S
C29 H57 0.983 . S
C30 H6 0.948 . S
C30 C31 1.391 . S
C30 C35 1.391 . S
C31 C30 1.391 . S
C31 C32 1.391 . S
C32 H9 0.947 . S
C32 C31 1.391 . S
C32 C33 1.392 . S
C33 H10 0.948 . S
C33 C32 1.392 . S
C33 C34 1.419 . S
C34 C33 1.419 . S
C34 C35 1.391 . S
C34 C38 1.397 . S
C35 C30 1.391 . S
C35 C34 1.391 . S
C35 C36 1.399 . S
C36 C35 1.399 . S
C36 C37 1.396 . S
C36 C39 1.453 . S
C36 C40 1.684 1_554 S
C37 C27 1.723 . S
C37 C36 1.396 . S
C37 C38 1.394 . S
C38 C8 1.723 . S
C38 C34 1.397 . S
C38 C37 1.394 . S
C39 H11 0.982 . S
C39 H15 0.979 1_554 S
C39 H16 0.977 1_554 S
C39 C36 1.453 . S
C40 H12 0.979 1_556 S
C40 H13 0.980 . S
C40 H14 0.983 . S
C40 C36 1.684 1_556 S
H41 C59 0.948 . S
H42 C0 0.948 . S
H43 C18 0.979 . S
H44 C18 0.980 . S
H45 C18 0.983 . S
H46 C17 0.982 . S
H47 C17 0.979 . S
H48 C17 0.977 . S
H49 C19 0.948 . S
H50 C21 0.947 . S
H51 C22 0.948 . S
H52 C28 0.982 . S
H53 C28 0.979 . S
H54 C28 0.977 . S
H55 C29 0.979 . S
H56 C29 0.980 . S
H57 C29 0.983 . S
H58 C2 0.947 . S
C59 C2 1.392 . S
C59 C3 1.419 . S
C59 H41 0.948 . S
C60 C61 1.391 . S
C60 C64 1.391 1_556 S
C60 H102 0.948 . S
C61 C60 1.391 . S
C61 C62 1.391 1_556 S
C62 C61 1.391 1_554 S
C62 H118 0.947 . S
C62 C119 1.392 . S
C63 C64 1.391 . S
C63 C67 1.397 . S
C63 C119 1.419 . S
C64 C60 1.391 1_554 S
C64 C63 1.391 . S
C64 C65 1.399 . S
C65 C64 1.399 . S
C65 C68 1.396 . S
C65 C77 1.443 1_554 S
C65 C78 1.684 1_554 S
H66 C90 0.948 . S
C67 C63 1.397 . S
C67 C68 1.394 . S
C67 C86 1.723 . S
C68 C65 1.396 . S
C68 C67 1.394 . S
C68 C98 1.723 . S
H69 C92 0.947 . S
H70 C93 0.948 . S
H71 C99 0.982 . S
H72 C100 0.979 . S
H73 C100 0.980 . S
H74 C100 0.983 . S
H75 C99 0.979 . S
H76 C99 0.977 . S
C77 C65 1.443 1_556 S
C77 H106 0.974 1_556 S
C77 H107 1.001 . S
C77 H108 0.974 1_556 S
C78 C65 1.684 1_556 S
C78 H103 0.979 . S
C78 H104 0.980 . S
C78 H105 0.983 . S
C79 C80 1.391 . S
C79 C84 1.391 . S
C79 H109 0.948 . S
C80 C79 1.391 . S
C80 C81 1.391 . S
C81 C80 1.391 . S
C81 C82 1.392 . S
C81 H110 0.947 . S
C82 C81 1.392 . S
C82 C83 1.419 . S
C82 H111 0.948 . S
C83 C82 1.419 . S
C83 C84 1.391 . S
C83 C87 1.397 . S
C84 C79 1.391 . S
C84 C83 1.391 . S
C84 C85 1.399 . S
C85 C84 1.399 . S
C85 C86 1.396 . S
C85 C88 1.453 . S
C85 C89 1.684 . S
C86 C67 1.723 . S
C86 C85 1.396 . S
C86 C87 1.394 . S
C87 C83 1.397 . S
C87 C86 1.394 . S
C87 C97 1.723 . S
C88 C85 1.453 . S
C88 H112 0.982 . S
C88 H113 0.979 . S
C88 H114 0.977 . S
C89 C85 1.684 . S
C89 H115 0.979 . S
C89 H116 0.980 . S
C89 H117 0.983 . S
C90 H66 0.948 . S
C90 C91 1.391 . S
C90 C95 1.391 . S
C91 C90 1.391 . S
C91 C92 1.391 . S
C92 H69 0.947 . S
C92 C91 1.391 . S
C92 C93 1.392 . S
C93 H70 0.948 . S
C93 C92 1.392 . S
C93 C94 1.419 . S
C94 C93 1.419 . S
C94 C95 1.391 . S
C94 C98 1.397 . S
C95 C90 1.391 . S
C95 C94 1.391 . S
C95 C96 1.399 . S
C96 C95 1.399 . S
C96 C97 1.396 . S
C96 C99 1.453 . S
C96 C100 1.684 . S
C97 C87 1.723 . S
C97 C96 1.396 . S
C97 C98 1.394 . S
C98 C68 1.723 . S
C98 C94 1.397 . S
C98 C97 1.394 . S
C99 H71 0.982 . S
C99 H75 0.979 . S
C99 H76 0.977 . S
C99 C96 1.453 . S
C100 H72 0.979 . S
C100 H73 0.980 . S
C100 H74 0.983 . S
C100 C96 1.684 . S
H101 C119 0.948 . S
H102 C60 0.948 . S
H103 C78 0.979 . S
H104 C78 0.980 . S
H105 C78 0.983 . S
H106 C77 0.974 1_554 S
H107 C77 1.001 . S
H108 C77 0.974 1_554 S
H109 C79 0.948 . S
H110 C81 0.947 . S
H111 C82 0.948 . S
H112 C88 0.982 . S
H113 C88 0.979 . S
H114 C88 0.977 . S
H115 C89 0.979 . S
H116 C89 0.980 . S
H117 C89 0.983 . S
H118 C62 0.947 . S
C119 C62 1.392 . S
C119 C63 1.419 . S
C119 H101 0.948 . S
C120 C121 1.391 . S
C120 C124 1.391 . S
C120 H162 0.948 . S
C121 C120 1.391 . S
C121 C122 1.391 . S
C122 C121 1.391 . S
C122 H178 0.947 . S
C122 C179 1.392 . S
C123 C124 1.391 . S
C123 C127 1.397 . S
C123 C179 1.419 . S
C124 C120 1.391 . S
C124 C123 1.391 . S
C124 C125 1.399 . S
C125 C124 1.399 . S
C125 C128 1.396 . S
C125 C137 1.453 . S
C125 C138 1.684 . S
H126 C150 0.948 . S
C127 C123 1.397 . S
C127 C128 1.394 . S
C127 C146 1.723 . S
C128 C125 1.396 . S
C128 C127 1.394 . S
C128 C158 1.723 . S
H129 C152 0.947 . S
H130 C153 0.948 . S
H131 C159 0.982 . S
H132 C160 0.979 . S
H133 C160 0.980 . S
H134 C160 0.983 . S
H135 C159 0.979 . S
H136 C159 0.977 . S
C137 C125 1.453 . S
C137 H166 0.982 . S
C137 H167 0.979 . S
C137 H168 0.977 . S
C138 C125 1.684 . S
C138 H163 0.979 . S
C138 H164 0.980 . S
C138 H165 0.983 . S
C139 C140 1.391 . S
C139 C144 1.391 1_556 S
C139 H169 0.948 . S
C140 C139 1.391 . S
C140 C141 1.391 1_556 S
C141 C140 1.391 1_554 S
C141 C142 1.392 . S
C141 H170 0.947 . S
C142 C141 1.392 . S
C142 C143 1.419 . S
C142 H171 0.948 . S
C143 C142 1.419 . S
C143 C144 1.391 . S
C143 C147 1.397 . S
C144 C139 1.391 1_554 S
C144 C143 1.391 . S
C144 C145 1.399 . S
C145 C144 1.399 . S
C145 C146 1.396 . S
C145 C148 1.455 . S
C145 C149 1.684 1_554 S
C146 C127 1.723 . S
C146 C145 1.396 . S
C146 C147 1.394 . S
C147 C143 1.397 . S
C147 C146 1.394 . S
C147 C157 1.723 . S
C148 C145 1.455 . S
C148 H172 0.984 . S
C148 H173 0.975 1_554 S
C148 H174 0.977 . S
C149 C145 1.684 1_556 S
C149 H175 0.979 . S
C149 H176 0.980 . S
C149 H177 0.983 . S
C150 H126 0.948 . S
C150 C151 1.391 . S
C150 C155 1.391 . S
C151 C150 1.391 . S
C151 C152 1.391 . S
C152 H129 0.947 . S
C152 C151 1.391 . S
C152 C153 1.392 . S
C153 H130 0.948 . S
C153 C152 1.392 . S
C153 C154 1.419 . S
C154 C153 1.419 . S
C154 C155 1.391 . S
C154 C158 1.397 . S
C155 C150 1.391 . S
C155 C154 1.391 . S
C155 C156 1.399 . S
C156 C155 1.399 . S
C156 C157 1.396 . S
C156 C159 1.453 . S
C156 C160 1.684 . S
C157 C147 1.723 . S
C157 C156 1.396 . S
C157 C158 1.394 . S
C158 C128 1.723 . S
C158 C154 1.397 . S
C158 C157 1.394 . S
C159 H131 0.982 . S
C159 H135 0.979 . S
C159 H136 0.977 . S
C159 C156 1.453 . S
C160 H132 0.979 . S
C160 H133 0.980 . S
C160 H134 0.983 . S
C160 C156 1.684 . S
H161 C179 0.948 . S
H162 C120 0.948 . S
H163 C138 0.979 . S
H164 C138 0.980 . S
H165 C138 0.983 . S
H166 C137 0.982 . S
H167 C137 0.979 . S
H168 C137 0.977 . S
H169 C139 0.948 . S
H170 C141 0.947 . S
H171 C142 0.948 . S
H172 C148 0.984 . S
H173 C148 0.975 1_556 S
H174 C148 0.977 . S
H175 C149 0.979 . S
H176 C149 0.980 . S
H177 C149 0.983 . S
H178 C122 0.947 . S
C179 C122 1.392 . S
C179 C123 1.419 . S
C179 H161 0.948 . S
C180 C181 1.391 . S
C180 C184 1.391 . S
C180 H222 0.948 . S
C181 C180 1.391 . S
C181 C182 1.391 . S
C182 C181 1.391 . S
C182 H238 0.947 . S
C182 C239 1.392 . S
C183 C184 1.391 . S
C183 C187 1.397 . S
C183 C239 1.419 . S
C184 C180 1.391 . S
C184 C183 1.391 . S
C184 C185 1.399 . S
C185 C184 1.399 . S
C185 C188 1.396 . S
C185 C197 1.453 . S
C185 C198 1.684 . S
H186 C210 0.948 . S
C187 C183 1.397 . S
C187 C188 1.394 . S
C187 C206 1.723 . S
C188 C185 1.396 . S
C188 C187 1.394 . S
C188 C218 1.723 . S
H189 C212 0.947 . S
H190 C213 0.948 . S
H191 C219 0.982 . S
H192 C220 0.979 1_554 S
H193 C220 0.980 . S
H194 C220 0.983 . S
H195 C219 0.979 1_556 S
H196 C219 0.977 1_556 S
C197 C185 1.453 . S
C197 H226 0.982 . S
C197 H227 0.979 . S
C197 H228 0.977 . S
C198 C185 1.684 . S
C198 H223 0.979 . S
C198 H224 0.980 . S
C198 H225 0.983 . S
C199 C200 1.391 1_554 S
C199 C204 1.391 . S
C199 H229 0.948 . S
C200 C199 1.391 1_556 S
C200 C201 1.391 . S
C201 C200 1.391 . S
C201 C202 1.392 . S
C201 H230 0.947 . S
C202 C201 1.392 . S
C202 C203 1.419 1_556 S
C202 H231 0.948 . S
C203 C202 1.419 1_554 S
C203 C204 1.391 . S
C203 C207 1.397 . S
C204 C199 1.391 . S
C204 C203 1.391 . S
C204 C205 1.399 . S
C205 C204 1.399 . S
C205 C206 1.396 . S
C205 C208 1.453 . S
C205 C209 1.684 . S
C206 C187 1.723 . S
C206 C205 1.396 . S
C206 C207 1.394 . S
C207 C203 1.397 . S
C207 C206 1.394 . S
C207 C217 1.723 . S
C208 C205 1.453 . S
C208 H232 0.982 . S
C208 H233 0.979 . S
C208 H234 0.977 . S
C209 C205 1.684 . S
C209 H235 0.979 . S
C209 H236 0.980 . S
C209 H237 0.983 . S
C210 H186 0.948 . S
C210 C211 1.391 . S
C210 C215 1.391 . S
C211 C210 1.391 . S
C211 C212 1.391 . S
C212 H189 0.947 . S
C212 C211 1.391 . S
C212 C213 1.392 . S
C213 H190 0.948 . S
C213 C212 1.392 . S
C213 C214 1.419 . S
C214 C213 1.419 . S
C214 C215 1.391 . S
C214 C218 1.397 . S
C215 C210 1.391 . S
C215 C214 1.391 . S
C215 C216 1.399 . S
C216 C215 1.399 . S
C216 C217 1.396 . S
C216 C219 1.453 . S
C216 C220 1.684 1_554 S
C217 C207 1.723 . S
C217 C216 1.396 . S
C217 C218 1.394 . S
C218 C188 1.723 . S
C218 C214 1.397 . S
C218 C217 1.394 . S
C219 H191 0.982 . S
C219 H195 0.979 1_554 S
C219 H196 0.977 1_554 S
C219 C216 1.453 . S
C220 H192 0.979 1_556 S
C220 H193 0.980 . S
C220 H194 0.983 . S
C220 C216 1.684 1_556 S
H221 C239 0.948 . S
H222 C180 0.948 . S
H223 C198 0.979 . S
H224 C198 0.980 . S
H225 C198 0.983 . S
H226 C197 0.982 . S
H227 C197 0.979 . S
H228 C197 0.977 . S
H229 C199 0.948 . S
H230 C201 0.947 . S
H231 C202 0.948 . S
H232 C208 0.982 . S
H233 C208 0.979 . S
H234 C208 0.977 . S
H235 C209 0.979 . S
H236 C209 0.980 . S
H237 C209 0.983 . S
H238 C182 0.947 . S
C239 C182 1.392 . S
C239 C183 1.419 . S
C239 H221 0.948 . S
C240 C241 1.391 . S
C240 C244 1.391 . S
C240 H282 0.948 1_554 S
C241 C240 1.391 . S
C241 C242 1.391 . S
C242 C241 1.391 . S
C242 H298 0.947 . S
C242 C299 1.392 . S
C243 C244 1.391 . S
C243 C247 1.397 . S
C243 C299 1.419 . S
C244 C240 1.391 . S
C244 C243 1.391 . S
C244 C245 1.399 1_554 S
C245 C244 1.399 1_556 S
C245 C248 1.396 . S
C245 C257 1.453 . S
C245 C258 1.684 . S
H246 C270 0.948 . S
C247 C243 1.397 . S
C247 C248 1.394 1_554 S
C247 C266 1.723 . S
C248 C245 1.396 . S
C248 C247 1.394 1_556 S
C248 C278 1.723 . S
H249 C272 0.947 . S
H250 C273 0.948 . S
H251 C279 0.982 . S
H252 C280 0.979 . S
H253 C280 0.980 . S
H254 C280 0.983 . S
H255 C279 0.979 . S
H256 C279 0.977 . S
C257 C245 1.453 . S
C257 H286 0.982 . S
C257 H287 0.979 . S
C257 H288 0.977 . S
C258 C245 1.684 . S
C258 H283 0.979 . S
C258 H284 0.980 . S
C258 H285 0.983 . S
C259 C260 1.391 . S
C259 C264 1.391 . S
C259 H289 0.948 . S
C260 C259 1.391 . S
C260 C261 1.391 . S
C261 C260 1.391 . S
C261 C262 1.392 . S
C261 H290 0.947 . S
C262 C261 1.392 . S
C262 C263 1.419 . S
C262 H291 0.948 . S
C263 C262 1.419 . S
C263 C264 1.391 . S
C263 C267 1.397 . S
C264 C259 1.391 . S
C264 C263 1.391 . S
C264 C265 1.399 . S
C265 C264 1.399 . S
C265 C266 1.396 . S
C265 C268 1.453 . S
C265 C269 1.684 . S
C266 C247 1.723 . S
C266 C265 1.396 . S
C266 C267 1.394 . S
C267 C263 1.397 . S
C267 C266 1.394 . S
C267 C277 1.723 1_554 S
C268 C265 1.453 . S
C268 H292 0.982 . S
C268 H293 0.979 . S
C268 H294 0.977 . S
C269 C265 1.684 . S
C269 H295 0.979 . S
C269 H296 0.980 . S
C269 H297 0.983 . S
C270 H246 0.948 . S
C270 C271 1.391 . S
C270 C275 1.391 . S
C271 C270 1.391 . S
C271 C272 1.391 . S
C272 H249 0.947 . S
C272 C271 1.391 . S
C272 C273 1.392 . S
C273 H250 0.948 . S
C273 C272 1.392 . S
C273 C274 1.419 . S
C274 C273 1.419 . S
C274 C275 1.391 . S
C274 C278 1.397 . S
C275 C270 1.391 . S
C275 C274 1.391 . S
C275 C276 1.399 . S
C276 C275 1.399 . S
C276 C277 1.396 . S
C276 C279 1.453 . S
C276 C280 1.684 . S
C277 C267 1.723 1_556 S
C277 C276 1.396 . S
C277 C278 1.394 . S
C278 C248 1.723 . S
C278 C274 1.397 . S
C278 C277 1.394 . S
C279 H251 0.982 . S
C279 H255 0.979 . S
C279 H256 0.977 . S
C279 C276 1.453 . S
C280 H252 0.979 . S
C280 H253 0.980 . S
C280 H254 0.983 . S
C280 C276 1.684 . S
H281 C299 0.948 . S
H282 C240 0.948 1_556 S
H283 C258 0.979 . S
H284 C258 0.980 . S
H285 C258 0.983 . S
H286 C257 0.982 . S
H287 C257 0.979 . S
H288 C257 0.977 . S
H289 C259 0.948 . S
H290 C261 0.947 . S
H291 C262 0.948 . S
H292 C268 0.982 . S
H293 C268 0.979 . S
H294 C268 0.977 . S
H295 C269 0.979 . S
H296 C269 0.980 . S
H297 C269 0.983 . S
H298 C242 0.947 . S
C299 C242 1.392 . S
C299 C243 1.419 . S
C299 H281 0.948 . S
C300 C301 1.391 . S
C300 C304 1.391 . S
C300 H342 0.948 . S
C301 C300 1.391 . S
C301 C302 1.391 . S
C302 C301 1.391 . S
C302 H358 0.947 . S
C302 C359 1.392 . S
C303 C304 1.391 . S
C303 C307 1.397 . S
C303 C359 1.419 . S
C304 C300 1.391 . S
C304 C303 1.391 . S
C304 C305 1.399 . S
C305 C304 1.399 . S
C305 C308 1.396 . S
C305 C317 1.453 . S
C305 C318 1.684 . S
H306 C330 0.948 1_556 S
C307 C303 1.397 . S
C307 C308 1.394 . S
C307 C326 1.723 1_554 S
C308 C305 1.396 . S
C308 C307 1.394 . S
C308 C338 1.723 . S
H309 C332 0.947 . S
H310 C333 0.948 . S
H311 C339 0.982 . S
H312 C340 0.979 . S
H313 C340 0.980 . S
H314 C340 0.983 . S
H315 C339 0.979 . S
H316 C339 0.977 . S
C317 C305 1.453 . S
C317 H346 0.982 . S
C317 H347 0.979 . S
C317 H348 0.977 . S
C318 C305 1.684 . S
C318 H343 0.979 . S
C318 H344 0.980 . S
C318 H345 0.983 . S
C319 C320 1.391 . S
C319 C324 1.391 . S
C319 H349 0.948 . S
C320 C319 1.391 . S
C320 C321 1.391 . S
C321 C320 1.391 . S
C321 C322 1.392 . S
C321 H350 0.947 . S
C322 C321 1.392 . S
C322 C323 1.419 . S
C322 H351 0.948 . S
C323 C322 1.419 . S
C323 C324 1.391 . S
C323 C327 1.397 . S
C324 C319 1.391 . S
C324 C323 1.391 . S
C324 C325 1.399 . S
C325 C324 1.399 . S
C325 C326 1.396 . S
C325 C328 1.453 . S
C325 C329 1.684 . S
C326 C307 1.723 1_556 S
C326 C325 1.396 . S
C326 C327 1.394 . S
C327 C323 1.397 . S
C327 C326 1.394 . S
C327 C337 1.723 . S
C328 C325 1.453 . S
C328 H352 0.982 . S
C328 H353 0.979 . S
C328 H354 0.977 . S
C329 C325 1.684 . S
C329 H355 0.979 . S
C329 H356 0.980 . S
C329 H357 0.983 . S
C330 H306 0.948 1_554 S
C330 C331 1.391 . S
C330 C335 1.391 . S
C331 C330 1.391 . S
C331 C332 1.391 . S
C332 H309 0.947 . S
C332 C331 1.391 . S
C332 C333 1.392 . S
C333 H310 0.948 . S
C333 C332 1.392 . S
C333 C334 1.419 . S
C334 C333 1.419 . S
C334 C335 1.391 . S
C334 C338 1.397 . S
C335 C330 1.391 . S
C335 C334 1.391 . S
C335 C336 1.399 1_554 S
C336 C335 1.399 1_556 S
C336 C337 1.396 . S
C336 C339 1.453 . S
C336 C340 1.684 . S
C337 C327 1.723 . S
C337 C336 1.396 . S
C337 C338 1.394 1_556 S
C338 C308 1.723 . S
C338 C334 1.397 . S
C338 C337 1.394 1_554 S
C339 H311 0.982 . S
C339 H315 0.979 . S
C339 H316 0.977 . S
C339 C336 1.453 . S
C340 H312 0.979 . S
C340 H313 0.980 . S
C340 H314 0.983 . S
C340 C336 1.684 . S
H341 C359 0.948 . S
H342 C300 0.948 . S
H343 C318 0.979 . S
H344 C318 0.980 . S
H345 C318 0.983 . S
H346 C317 0.982 . S
H347 C317 0.979 . S
H348 C317 0.977 . S
H349 C319 0.948 . S
H350 C321 0.947 . S
H351 C322 0.948 . S
H352 C328 0.982 . S
H353 C328 0.979 . S
H354 C328 0.977 . S
H355 C329 0.979 . S
H356 C329 0.980 . S
H357 C329 0.983 . S
H358 C302 0.947 . S
C359 C302 1.392 . S
C359 C303 1.419 . S
C359 H341 0.948 . S
C360 C361 1.391 . S
C360 C364 1.391 . S
C360 H402 0.948 . S
C361 C360 1.391 . S
C361 C362 1.391 . S
C362 C361 1.391 . S
C362 H418 0.947 . S
C362 C419 1.392 . S
C363 C364 1.391 . S
C363 C367 1.397 . S
C363 C419 1.419 . S
C364 C360 1.391 . S
C364 C363 1.391 . S
C364 C365 1.399 . S
C365 C364 1.399 . S
C365 C368 1.396 . S
C365 C377 1.453 . S
C365 C378 1.684 . S
H366 C390 0.948 . S
C367 C363 1.397 . S
C367 C368 1.394 . S
C367 C386 1.723 1_556 S
C368 C365 1.396 . S
C368 C367 1.394 . S
C368 C398 1.723 1_556 S
H369 C392 0.947 . S
H370 C393 0.948 . S
H371 C399 0.982 . S
H372 C400 0.979 . S
H373 C400 0.980 . S
H374 C400 0.983 . S
H375 C399 0.979 . S
H376 C399 0.977 . S
C377 C365 1.453 . S
C377 H406 0.982 . S
C377 H407 0.979 . S
C377 H408 0.977 . S
C378 C365 1.684 . S
C378 H403 0.979 . S
C378 H404 0.980 . S
C378 H405 0.983 . S
C379 C380 1.391 . S
C379 C384 1.391 . S
C379 H409 0.948 . S
C380 C379 1.391 . S
C380 C381 1.391 . S
C381 C380 1.391 . S
C381 C382 1.392 . S
C381 H410 0.947 . S
C382 C381 1.392 . S
C382 C383 1.419 . S
C382 H411 0.948 . S
C383 C382 1.419 . S
C383 C384 1.391 . S
C383 C387 1.397 . S
C384 C379 1.391 . S
C384 C383 1.391 . S
C384 C385 1.399 . S
C385 C384 1.399 . S
C385 C386 1.396 . S
C385 C388 1.453 . S
C385 C389 1.679 1_554 S
C386 C367 1.723 1_554 S
C386 C385 1.396 . S
C386 C387 1.394 . S
C387 C383 1.397 . S
C387 C386 1.394 . S
C387 C397 1.723 . S
C388 C385 1.453 . S
C388 H412 0.982 . S
C388 H413 0.979 . S
C388 H414 0.977 1_554 S
C389 C385 1.679 1_556 S
C389 H415 0.977 1_556 S
C389 H416 0.990 . S
C389 H417 0.980 1_556 S
C390 H366 0.948 . S
C390 C391 1.391 . S
C390 C395 1.391 . S
C391 C390 1.391 . S
C391 C392 1.391 1_554 S
C392 H369 0.947 . S
C392 C391 1.391 1_556 S
C392 C393 1.392 . S
C393 H370 0.948 . S
C393 C392 1.392 . S
C393 C394 1.419 1_556 S
C394 C393 1.419 1_554 S
C394 C395 1.391 . S
C394 C398 1.397 . S
C395 C390 1.391 . S
C395 C394 1.391 . S
C395 C396 1.399 . S
C396 C395 1.399 . S
C396 C397 1.396 . S
C396 C399 1.453 . S
C396 C400 1.684 . S
C397 C387 1.723 . S
C397 C396 1.396 . S
C397 C398 1.394 . S
C398 C368 1.723 1_554 S
C398 C394 1.397 . S
C398 C397 1.394 . S
C399 H371 0.982 . S
C399 H375 0.979 . S
C399 H376 0.977 . S
C399 C396 1.453 . S
C400 H372 0.979 . S
C400 H373 0.980 . S
C400 H374 0.983 . S
C400 C396 1.684 . S
H401 C419 0.948 . S
H402 C360 0.948 . S
H403 C378 0.979 . S
H404 C378 0.980 . S
H405 C378 0.983 . S
H406 C377 0.982 . S
H407 C377 0.979 . S
H408 C377 0.977 . S
H409 C379 0.948 . S
H410 C381 0.947 . S
H411 C382 0.948 . S
H412 C388 0.982 . S
H413 C388 0.979 . S
H414 C388 0.977 1_556 S
H415 C389 0.977 1_554 S
H416 C389 0.990 . S
H417 C389 0.980 1_554 S
H418 C362 0.947 . S
C419 C362 1.392 . S
C419 C363 1.419 . S
C419 H401 0.948 . S
C420 C421 1.391 . S
C420 C424 1.391 . S
C420 H462 0.948 . S
C421 C420 1.391 . S
C421 C422 1.391 . S
C422 C421 1.391 . S
C422 H478 0.947 . S
C422 C479 1.392 . S
C423 C424 1.391 . S
C423 C427 1.397 . S
C423 C479 1.419 . S
C424 C420 1.391 . S
C424 C423 1.391 . S
C424 C425 1.399 . S
C425 C424 1.399 . S
C425 C428 1.396 . S
C425 C437 1.453 . S
C425 C438 1.684 . S
H426 C450 0.948 . S
C427 C423 1.397 . S
C427 C428 1.394 . S
C427 C446 1.723 1_556 S
C428 C425 1.396 . S
C428 C427 1.394 . S
C428 C458 1.723 1_556 S
H429 C452 0.947 1_556 S
H430 C453 0.948 . S
H431 C459 0.982 . S
H432 C460 0.979 . S
H433 C460 0.980 . S
H434 C460 0.983 . S
H435 C459 0.979 . S
H436 C459 0.977 . S
C437 C425 1.453 . S
C437 H466 0.982 . S
C437 H467 0.979 . S
C437 H468 0.977 . S
C438 C425 1.684 . S
C438 H463 0.979 . S
C438 H464 0.980 . S
C438 H465 0.983 . S
C439 C440 1.391 . S
C439 C444 1.391 . S
C439 H469 0.948 . S
C440 C439 1.391 . S
C440 C441 1.391 . S
C441 C440 1.391 . S
C441 C442 1.392 . S
C441 H470 0.947 . S
C442 C441 1.392 . S
C442 C443 1.419 . S
C442 H471 0.948 . S
C443 C442 1.419 . S
C443 C444 1.391 . S
C443 C447 1.397 . S
C444 C439 1.391 . S
C444 C443 1.391 . S
C444 C445 1.399 . S
C445 C444 1.399 . S
C445 C446 1.396 . S
C445 C448 1.453 . S
C445 C449 1.684 . S
C446 C427 1.723 1_554 S
C446 C445 1.396 . S
C446 C447 1.394 . S
C447 C443 1.397 . S
C447 C446 1.394 . S
C447 C457 1.723 . S
C448 C445 1.453 . S
C448 H472 0.982 . S
C448 H473 0.979 . S
C448 H474 0.977 1_554 S
C449 C445 1.684 . S
C449 H475 0.979 . S
C449 H476 0.980 1_554 S
C449 H477 0.983 . S
C450 H426 0.948 . S
C450 C451 1.391 . S
C450 C455 1.391 . S
C451 C450 1.391 . S
C451 C452 1.391 . S
C452 H429 0.947 1_554 S
C452 C451 1.391 . S
C452 C453 1.392 1_554 S
C453 H430 0.948 . S
C453 C452 1.392 1_556 S
C453 C454 1.419 1_556 S
C454 C453 1.419 1_554 S
C454 C455 1.391 . S
C454 C458 1.397 . S
C455 C450 1.391 . S
C455 C454 1.391 . S
C455 C456 1.399 . S
C456 C455 1.399 . S
C456 C457 1.396 . S
C456 C459 1.453 . S
C456 C460 1.684 . S
C457 C447 1.723 . S
C457 C456 1.396 . S
C457 C458 1.394 . S
C458 C428 1.723 1_554 S
C458 C454 1.397 . S
C458 C457 1.394 . S
C459 H431 0.982 . S
C459 H435 0.979 . S
C459 H436 0.977 . S
C459 C456 1.453 . S
C460 H432 0.979 . S
C460 H433 0.980 . S
C460 H434 0.983 . S
C460 C456 1.684 . S
H461 C479 0.948 . S
H462 C420 0.948 . S
H463 C438 0.979 . S
H464 C438 0.980 . S
H465 C438 0.983 . S
H466 C437 0.982 . S
H467 C437 0.979 . S
H468 C437 0.977 . S
H469 C439 0.948 . S
H470 C441 0.947 . S
H471 C442 0.948 . S
H472 C448 0.982 . S
H473 C448 0.979 . S
H474 C448 0.977 1_556 S
H475 C449 0.979 . S
H476 C449 0.980 1_556 S
H477 C449 0.983 . S
H478 C422 0.947 . S
C479 C422 1.392 . S
C479 C423 1.419 . S
C479 H461 0.948 . S
Gd480 N511 2.661 . S
Gd480 N517 2.601 . S
Gd480 O524 2.545 . S
Gd480 O525 2.606 1_655 S
Gd480 O527 2.429 . S
Gd480 O528 2.545 1_655 S
Gd480 O529 2.412 . S
Gd480 O531 2.362 1_545 S
Gd480 O532 2.324 1_655 S
Gd480 C539 2.828 . S
Gd481 N490 2.661 1_565 S
Gd481 N494 2.601 . S
Gd481 O525 2.362 1_565 S
Gd481 O526 2.324 1_455 S
Gd481 O530 2.545 . S
Gd481 O531 2.606 1_455 S
Gd481 O533 2.429 . S
Gd481 O534 2.545 . S
Gd481 O535 2.412 . S
Gd481 C548 2.828 . S
C482 C485 1.417 . S
C482 C487 1.431 . S
C482 C488 1.412 . S
C483 C486 1.437 . S
C483 C487 1.317 . S
C483 H502 0.929 . S
C484 C485 1.426 . S
C484 C486 1.413 . S
C484 N494 1.359 1_545 S
C485 C482 1.417 . S
C485 C484 1.426 . S
C485 N490 1.350 . S
C486 C483 1.437 . S
C486 C484 1.413 . S
C486 C496 1.391 1_545 S
C487 C482 1.431 . S
C487 C483 1.317 . S
C487 H498 0.930 . S
C488 C482 1.412 . S
C488 C489 1.355 . S
C488 H500 0.930 . S
C489 C488 1.355 . S
C489 C491 1.402 . S
C489 H501 0.930 1_455 S
N490 Gd481 2.661 1_545 S
N490 C485 1.350 . S
N490 C491 1.307 . S
C491 C489 1.402 . S
C491 N490 1.307 . S
C491 H492 0.930 1_455 S
H492 C491 0.930 1_655 S
C493 N494 1.334 . S
C493 C495 1.394 . S
C493 H497 0.930 . S
N494 Gd481 2.601 . S
N494 C484 1.359 1_565 S
N494 C493 1.334 . S
C495 C493 1.394 . S
C495 C496 1.359 . S
C495 H507 0.930 . S
C496 C486 1.391 1_565 S
C496 C495 1.359 . S
C496 H508 0.929 . S
H497 C493 0.930 . S
H498 C487 0.930 . S
H499 C516 0.930 . S
H500 C488 0.930 . S
H501 C489 0.930 1_655 S
H502 C483 0.929 . S
H503 C521 0.930 . S
H504 C512 0.930 . S
H505 C513 0.930 . S
H506 C537 0.929 . S
H507 C495 0.930 . S
H508 C496 0.929 . S
H509 C538 0.930 . S
H510 C519 0.930 . S
N511 Gd480 2.661 . S
N511 C515 1.346 1_545 S
N511 C516 1.307 1_645 S
C512 H504 0.930 . S
C512 C513 1.355 1_655 S
C512 C514 1.412 . S
C513 H505 0.930 . S
C513 C512 1.355 1_455 S
C513 C516 1.402 . S
C514 C512 1.412 . S
C514 C515 1.434 . S
C514 C538 1.431 . S
C515 N511 1.346 1_565 S
C515 C514 1.434 . S
C515 C518 1.414 1_565 S
C516 H499 0.930 . S
C516 N511 1.307 1_465 S
C516 C513 1.402 . S
N517 Gd480 2.601 . S
N517 C518 1.359 . S
N517 C521 1.334 . S
C518 C515 1.414 1_545 S
C518 N517 1.359 . S
C518 C522 1.413 . S
C519 H510 0.930 . S
C519 C520 1.359 . S
C519 C521 1.394 . S
C520 C519 1.359 . S
C520 C522 1.391 . S
C520 H523 0.929 . S
C521 H503 0.930 . S
C521 N517 1.334 . S
C521 C519 1.394 . S
C522 C518 1.413 . S
C522 C520 1.391 . S
C522 C537 1.437 1_545 S
H523 C520 0.929 . S
O524 Gd480 2.545 . S
O524 C539 1.258 . S
O525 Gd480 2.606 1_455 S
O525 Gd481 2.362 1_545 S
O525 C536 1.284 . S
O526 Gd481 2.324 1_655 S
O526 C546 1.254 1_565 S
O527 Gd480 2.429 . S
O527 C546 1.268 . S
O528 Gd480 2.545 1_455 S
O528 C536 1.250 . S
O529 Gd480 2.412 . S
O529 C539 1.252 . S
O530 Gd481 2.545 . S
O530 C548 1.258 . S
O531 Gd480 2.362 1_565 S
O531 Gd481 2.606 1_655 S
O531 C547 1.284 . S
O532 Gd480 2.324 1_455 S
O532 C555 1.254 . S
O533 Gd481 2.429 . S
O533 C555 1.268 1_565 S
O534 Gd481 2.545 . S
O534 C547 1.250 1_455 S
O535 Gd481 2.412 . S
O535 C548 1.252 . S
C536 O525 1.284 . S
C536 O528 1.250 . S
C537 H506 0.929 . S
C537 C522 1.437 1_565 S
C537 C538 1.317 . S
C538 H509 0.930 . S
C538 C514 1.431 . S
C538 C537 1.317 . S
C539 Gd480 2.828 . S
C539 O524 1.258 . S
C539 O529 1.252 . S
C539 C540 1.497 . S
C540 C539 1.497 . S
C540 C541 1.395 . S
C540 C542 1.380 . S
C541 C540 1.395 . S
C541 C544 1.398 . S
C541 H556 0.930 . S
C542 C540 1.380 . S
C542 C543 1.391 . S
C542 H557 0.930 1_655 S
C543 C542 1.391 . S
C543 C545 1.387 . S
C544 C541 1.398 . S
C544 C545 1.380 . S
C544 H558 0.930 . S
C545 C543 1.387 . S
C545 C544 1.380 . S
C545 H559 0.930 . S
C546 O526 1.254 1_545 S
C546 O527 1.268 . S
C547 O531 1.284 . S
C547 O534 1.250 1_655 S
C548 Gd481 2.828 . S
C548 O530 1.258 . S
C548 O535 1.252 . S
C548 C549 1.497 . S
C549 C548 1.497 . S
C549 C550 1.395 . S
C549 C551 1.380 . S
C550 C549 1.395 . S
C550 C553 1.398 . S
C550 H560 0.930 . S
C551 C549 1.380 . S
C551 C552 1.391 . S
C551 H561 0.930 1_455 S
C552 C551 1.391 . S
C552 C554 1.387 . S
C553 C550 1.398 . S
C553 C554 1.380 . S
C553 H562 0.930 . S
C554 C552 1.387 . S
C554 C553 1.380 . S
C554 H563 0.930 . S
C555 O532 1.254 . S
C555 O533 1.268 1_545 S
H556 C541 0.930 . S
H557 C542 0.930 1_455 S
H558 C544 0.930 . S
H559 C545 0.930 . S
H560 C550 0.930 . S
H561 C551 0.930 1_655 S
H562 C553 0.930 . S
H563 C554 0.930 . S
Gd564 N595 2.661 . S
Gd564 N601 2.601 . S
Gd564 O608 2.545 . S
Gd564 O609 2.606 1_565 S
Gd564 O611 2.429 . S
Gd564 O612 2.545 1_565 S
Gd564 O613 2.412 . S
Gd564 O615 2.362 . S
Gd564 O616 2.324 1_565 S
Gd564 C623 2.828 . S
Gd565 N574 2.661 . S
Gd565 N578 2.601 . S
Gd565 O609 2.362 . S
Gd565 O610 2.324 1_545 S
Gd565 O614 2.545 . S
Gd565 O615 2.606 1_545 S
Gd565 O617 2.429 . S
Gd565 O618 2.545 . S
Gd565 O619 2.412 . S
Gd565 C632 2.828 . S
C566 C569 1.417 . S
C566 C571 1.431 . S
C566 C572 1.412 . S
C567 C570 1.437 . S
C567 C571 1.317 . S
C567 H586 0.929 . S
C568 C569 1.426 . S
C568 C570 1.413 . S
C568 N578 1.359 . S
C569 C566 1.417 . S
C569 C568 1.426 . S
C569 N574 1.350 . S
C570 C567 1.437 . S
C570 C568 1.413 . S
C570 C580 1.391 . S
C571 C566 1.431 . S
C571 C567 1.317 . S
C571 H582 0.930 . S
C572 C566 1.412 . S
C572 C573 1.355 . S
C572 H584 0.930 . S
C573 C572 1.355 . S
C573 C575 1.402 . S
C573 H585 0.930 1_545 S
N574 Gd565 2.661 . S
N574 C569 1.350 . S
N574 C575 1.307 . S
C575 C573 1.402 . S
C575 N574 1.307 . S
C575 H576 0.930 1_545 S
H576 C575 0.930 1_565 S
C577 N578 1.334 . S
C577 C579 1.394 . S
C577 H581 0.930 . S
N578 Gd565 2.601 . S
N578 C568 1.359 . S
N578 C577 1.334 . S
C579 C577 1.394 . S
C579 C580 1.359 . S
C579 H591 0.930 . S
C580 C570 1.391 . S
C580 C579 1.359 . S
C580 H592 0.929 . S
H581 C577 0.930 . S
H582 C571 0.930 . S
H583 C600 0.930 . S
H584 C572 0.930 . S
H585 C573 0.930 1_565 S
H586 C567 0.929 . S
H587 C605 0.930 . S
H588 C596 0.930 . S
H589 C597 0.930 . S
H590 C621 0.929 . S
H591 C579 0.930 . S
H592 C580 0.929 . S
H593 C622 0.930 . S
H594 C603 0.930 . S
N595 Gd564 2.661 . S
N595 C599 1.350 . S
N595 C600 1.307 1_565 S
C596 H588 0.930 . S
C596 C597 1.355 1_565 S
C596 C598 1.412 . S
C597 H589 0.930 . S
C597 C596 1.355 1_545 S
C597 C600 1.402 . S
C598 C596 1.412 . S
C598 C599 1.417 . S
C598 C622 1.431 . S
C599 N595 1.350 . S
C599 C598 1.417 . S
C599 C602 1.426 . S
C600 H583 0.930 . S
C600 N595 1.307 1_545 S
C600 C597 1.402 . S
N601 Gd564 2.601 . S
N601 C602 1.359 . S
N601 C605 1.334 . S
C602 C599 1.426 . S
C602 N601 1.359 . S
C602 C606 1.413 . S
C603 H594 0.930 . S
C603 C604 1.359 . S
C603 C605 1.394 . S
C604 C603 1.359 . S
C604 C606 1.391 . S
C604 H607 0.929 . S
C605 H587 0.930 . S
C605 N601 1.334 . S
C605 C603 1.394 . S
C606 C602 1.413 . S
C606 C604 1.391 . S
C606 C621 1.437 . S
H607 C604 0.929 . S
O608 Gd564 2.545 . S
O608 C623 1.258 . S
O609 Gd564 2.606 1_545 S
O609 Gd565 2.362 . S
O609 C620 1.284 . S
O610 Gd565 2.324 1_565 S
O610 C630 1.254 . S
O611 Gd564 2.429 . S
O611 C630 1.268 . S
O612 Gd564 2.545 1_545 S
O612 C620 1.250 . S
O613 Gd564 2.412 . S
O613 C623 1.252 . S
O614 Gd565 2.545 . S
O614 C632 1.258 . S
O615 Gd564 2.362 . S
O615 Gd565 2.606 1_565 S
O615 C631 1.284 . S
O616 Gd564 2.324 1_545 S
O616 C639 1.254 . S
O617 Gd565 2.429 . S
O617 C639 1.268 . S
O618 Gd565 2.545 . S
O618 C631 1.250 1_545 S
O619 Gd565 2.412 . S
O619 C632 1.252 . S
C620 O609 1.284 . S
C620 O612 1.250 . S
C621 H590 0.929 . S
C621 C606 1.437 . S
C621 C622 1.317 . S
C622 H593 0.930 . S
C622 C598 1.431 . S
C622 C621 1.317 . S
C623 Gd564 2.828 . S
C623 O608 1.258 . S
C623 O613 1.252 . S
C623 C624 1.497 . S
C624 C623 1.497 . S
C624 C625 1.395 . S
C624 C626 1.430 . S
C625 C624 1.395 . S
C625 C628 1.398 . S
C625 H640 0.930 . S
C626 C624 1.430 . S
C626 C627 1.396 . S
C626 H641 0.877 1_565 S
C627 C626 1.396 . S
C627 C629 1.387 . S
C628 C625 1.398 . S
C628 C629 1.380 . S
C628 H642 0.930 . S
C629 C627 1.387 . S
C629 C628 1.380 . S
C629 H643 0.930 . S
C630 O610 1.254 . S
C630 O611 1.268 . S
C631 O615 1.284 . S
C631 O618 1.250 1_565 S
C632 Gd565 2.828 . S
C632 O614 1.258 . S
C632 O619 1.252 . S
C632 C633 1.497 . S
C633 C632 1.497 . S
C633 C634 1.395 . S
C633 C635 1.380 . S
C634 C633 1.395 . S
C634 C637 1.398 . S
C634 H644 0.930 . S
C635 C633 1.380 . S
C635 C636 1.391 . S
C635 H645 0.933 . S
C636 C635 1.391 . S
C636 C638 1.387 . S
C637 C634 1.398 . S
C637 C638 1.380 . S
C637 H646 0.930 . S
C638 C636 1.387 . S
C638 C637 1.380 . S
C638 H647 0.930 . S
C639 O616 1.254 . S
C639 O617 1.268 . S
H640 C625 0.930 . S
H641 C626 0.877 1_545 S
H642 C628 0.930 . S
H643 C629 0.930 . S
H644 C634 0.930 . S
H645 C635 0.933 . S
H646 C637 0.930 . S
H647 C638 0.930 . S
Gd648 N679 2.661 . S
Gd648 N685 2.601 . S
Gd648 O692 2.545 . S
Gd648 O693 2.606 . S
Gd648 O695 2.429 . S
Gd648 O696 2.545 . S
Gd648 O697 2.412 . S
Gd648 O699 2.362 . S
Gd648 O700 2.324 . S
Gd648 C707 2.828 . S
Gd649 N658 2.661 . S
Gd649 N662 2.601 . S
Gd649 O693 2.362 . S
Gd649 O694 2.324 . S
Gd649 O698 2.545 . S
Gd649 O699 2.606 . S
Gd649 O701 2.429 . S
Gd649 O702 2.545 . S
Gd649 O703 2.412 . S
Gd649 C716 2.828 . S
C650 C653 1.417 . S
C650 C655 1.431 . S
C650 C656 1.412 . S
C651 C654 1.437 . S
C651 C655 1.317 . S
C651 H670 0.929 . S
C652 C653 1.426 . S
C652 C654 1.413 . S
C652 N662 1.359 . S
C653 C650 1.417 . S
C653 C652 1.426 . S
C653 N658 1.350 . S
C654 C651 1.437 . S
C654 C652 1.413 . S
C654 C664 1.391 . S
C655 C650 1.431 . S
C655 C651 1.317 . S
C655 H666 0.930 . S
C656 C650 1.412 . S
C656 C657 1.355 . S
C656 H668 0.930 . S
C657 C656 1.355 . S
C657 C659 1.402 . S
C657 H669 0.930 . S
N658 Gd649 2.661 . S
N658 C653 1.350 . S
N658 C659 1.307 . S
C659 C657 1.402 . S
C659 N658 1.307 . S
C659 H660 0.930 . S
H660 C659 0.930 . S
C661 N662 1.334 . S
C661 C663 1.394 . S
C661 H665 0.930 . S
N662 Gd649 2.601 . S
N662 C652 1.359 . S
N662 C661 1.334 . S
C663 C661 1.394 . S
C663 C664 1.359 . S
C663 H675 0.930 . S
C664 C654 1.391 . S
C664 C663 1.359 . S
C664 H676 0.929 . S
H665 C661 0.930 . S
H666 C655 0.930 . S
H667 C684 0.930 . S
H668 C656 0.930 . S
H669 C657 0.930 . S
H670 C651 0.929 . S
H671 C689 0.930 . S
H672 C680 0.930 . S
H673 C681 0.930 . S
H674 C705 0.929 . S
H675 C663 0.930 . S
H676 C664 0.929 . S
H677 C706 0.930 . S
H678 C687 0.930 . S
N679 Gd648 2.661 . S
N679 C683 1.350 . S
N679 C684 1.307 . S
C680 H672 0.930 . S
C680 C681 1.355 . S
C680 C682 1.412 . S
C681 H673 0.930 . S
C681 C680 1.355 . S
C681 C684 1.402 . S
C682 C680 1.412 . S
C682 C683 1.417 . S
C682 C706 1.431 . S
C683 N679 1.350 . S
C683 C682 1.417 . S
C683 C686 1.426 . S
C684 H667 0.930 . S
C684 N679 1.307 . S
C684 C681 1.402 . S
N685 Gd648 2.601 . S
N685 C686 1.359 . S
N685 C689 1.334 . S
C686 C683 1.426 . S
C686 N685 1.359 . S
C686 C690 1.413 . S
C687 H678 0.930 . S
C687 C688 1.359 . S
C687 C689 1.394 . S
C688 C687 1.359 . S
C688 C690 1.391 . S
C688 H691 0.929 . S
C689 H671 0.930 . S
C689 N685 1.334 . S
C689 C687 1.394 . S
C690 C686 1.413 . S
C690 C688 1.391 . S
C690 C705 1.437 . S
H691 C688 0.929 . S
O692 Gd648 2.545 . S
O692 C707 1.258 . S
O693 Gd648 2.606 . S
O693 Gd649 2.362 . S
O693 C704 1.284 . S
O694 Gd649 2.324 . S
O694 C714 1.254 . S
O695 Gd648 2.429 . S
O695 C714 1.268 . S
O696 Gd648 2.545 . S
O696 C704 1.250 . S
O697 Gd648 2.412 . S
O697 C707 1.252 . S
O698 Gd649 2.545 . S
O698 C716 1.258 . S
O699 Gd648 2.362 . S
O699 Gd649 2.606 . S
O699 C715 1.284 . S
O700 Gd648 2.324 . S
O700 C723 1.254 . S
O701 Gd649 2.429 . S
O701 C723 1.268 . S
O702 Gd649 2.545 . S
O702 C715 1.250 . S
O703 Gd649 2.412 . S
O703 C716 1.252 . S
C704 O693 1.284 . S
C704 O696 1.250 . S
C705 H674 0.929 . S
C705 C690 1.437 . S
C705 C706 1.317 . S
C706 H677 0.930 . S
C706 C682 1.431 . S
C706 C705 1.317 . S
C707 Gd648 2.828 . S
C707 O692 1.258 . S
C707 O697 1.252 . S
C707 C708 1.497 . S
C708 C707 1.497 . S
C708 C709 1.395 . S
C708 C710 1.380 . S
C709 C708 1.395 . S
C709 C712 1.398 . S
C709 H724 0.930 . S
C710 C708 1.380 . S
C710 C711 1.391 . S
C710 H725 0.930 . S
C711 C710 1.391 . S
C711 C713 1.387 . S
C712 C709 1.398 . S
C712 C713 1.380 . S
C712 H726 0.930 . S
C713 C711 1.387 . S
C713 C712 1.380 . S
C713 H727 0.930 . S
C714 O694 1.254 . S
C714 O695 1.268 . S
C715 O699 1.284 . S
C715 O702 1.250 . S
C716 Gd649 2.828 . S
C716 O698 1.258 . S
C716 O703 1.252 . S
C716 C717 1.497 . S
C717 C716 1.497 . S
C717 C718 1.395 . S
C717 C719 1.380 . S
C718 C717 1.395 . S
C718 C721 1.398 . S
C718 H728 0.930 . S
C719 C717 1.380 . S
C719 C720 1.391 . S
C719 H729 0.930 . S
C720 C719 1.391 . S
C720 C722 1.387 . S
C721 C718 1.398 . S
C721 C722 1.380 . S
C721 H730 0.930 . S
C722 C720 1.387 . S
C722 C721 1.380 . S
C722 H731 0.930 . S
C723 O700 1.254 . S
C723 O701 1.268 . S
H724 C709 0.930 . S
H725 C710 0.930 . S
H726 C712 0.930 . S
H727 C713 0.930 . S
H728 C718 0.930 . S
H729 C719 0.930 . S
H730 C721 0.930 . S
H731 C722 0.930 . S
Gd732 N763 2.661 . S
Gd732 N769 2.601 . S
Gd732 O776 2.545 . S
Gd732 O777 2.588 1_655 S
Gd732 O779 2.429 1_655 S
Gd732 O780 2.545 . S
Gd732 O781 2.412 . S
Gd732 O783 2.362 1_655 S
Gd732 O784 2.324 . S
Gd732 C791 2.828 . S
Gd733 N742 2.661 . S
Gd733 N746 2.601 . S
Gd733 O777 2.392 . S
Gd733 O778 2.324 . S
Gd733 O782 2.545 . S
Gd733 O783 2.606 . S
Gd733 O785 2.429 1_455 S
Gd733 O786 2.545 . S
Gd733 O787 2.412 . S
Gd733 C800 2.828 . S
C734 C737 1.417 . S
C734 C739 1.431 . S
C734 C740 1.412 . S
C735 C738 1.437 . S
C735 C739 1.317 . S
C735 H754 0.929 . S
C736 C737 1.426 . S
C736 C738 1.413 . S
C736 N746 1.359 . S
C737 C734 1.417 . S
C737 C736 1.426 . S
C737 N742 1.350 . S
C738 C735 1.437 . S
C738 C736 1.413 . S
C738 C748 1.391 . S
C739 C734 1.431 . S
C739 C735 1.317 . S
C739 H750 0.930 . S
C740 C734 1.412 . S
C740 C741 1.355 . S
C740 H752 0.930 . S
C741 C740 1.355 . S
C741 C743 1.402 . S
C741 H753 0.930 . S
N742 Gd733 2.661 . S
N742 C737 1.350 . S
N742 C743 1.307 . S
C743 C741 1.402 . S
C743 N742 1.307 . S
C743 H744 0.930 . S
H744 C743 0.930 . S
C745 N746 1.334 . S
C745 C747 1.394 . S
C745 H749 0.930 1_455 S
N746 Gd733 2.601 . S
N746 C736 1.359 . S
N746 C745 1.334 . S
C747 C745 1.394 . S
C747 C748 1.359 . S
C747 H759 0.930 1_455 S
C748 C738 1.391 . S
C748 C747 1.359 . S
C748 H760 0.929 . S
H749 C745 0.930 1_655 S
H750 C739 0.930 . S
H751 C768 0.930 . S
H752 C740 0.930 . S
H753 C741 0.930 . S
H754 C735 0.929 . S
H755 C773 0.930 . S
H756 C764 0.930 . S
H757 C765 0.930 . S
H758 C789 0.929 . S
H759 C747 0.930 1_655 S
H760 C748 0.929 . S
H761 C790 0.930 . S
H762 C771 0.930 . S
N763 Gd732 2.661 . S
N763 C767 1.350 . S
N763 C768 1.307 . S
C764 H756 0.930 . S
C764 C765 1.355 . S
C764 C766 1.412 . S
C765 H757 0.930 . S
C765 C764 1.355 . S
C765 C768 1.402 . S
C766 C764 1.412 . S
C766 C767 1.417 . S
C766 C790 1.431 . S
C767 N763 1.350 . S
C767 C766 1.417 . S
C767 C770 1.426 . S
C768 H751 0.930 . S
C768 N763 1.307 . S
C768 C765 1.402 . S
N769 Gd732 2.601 . S
N769 C770 1.359 . S
N769 C773 1.334 1_655 S
C770 C767 1.426 . S
C770 N769 1.359 . S
C770 C774 1.413 . S
C771 H762 0.930 . S
C771 C772 1.359 1_455 S
C771 C773 1.394 . S
C772 C771 1.359 1_655 S
C772 C774 1.391 . S
C772 H775 0.929 . S
C773 H755 0.930 . S
C773 N769 1.334 1_455 S
C773 C771 1.394 . S
C774 C770 1.413 . S
C774 C772 1.391 . S
C774 C789 1.437 . S
H775 C772 0.929 . S
O776 Gd732 2.545 . S
O776 C791 1.258 . S
O777 Gd732 2.588 1_455 S
O777 Gd733 2.392 . S
O777 C788 1.264 1_455 S
O778 Gd733 2.324 . S
O778 C798 1.254 . S
O779 Gd732 2.429 1_455 S
O779 C798 1.268 . S
O780 Gd732 2.545 . S
O780 C788 1.250 . S
O781 Gd732 2.412 . S
O781 C791 1.252 . S
O782 Gd733 2.545 . S
O782 C800 1.258 . S
O783 Gd732 2.362 1_455 S
O783 Gd733 2.606 . S
O783 C799 1.284 . S
O784 Gd732 2.324 . S
O784 C807 1.254 . S
O785 Gd733 2.429 1_655 S
O785 C807 1.268 . S
O786 Gd733 2.545 . S
O786 C799 1.250 . S
O787 Gd733 2.412 . S
O787 C800 1.252 . S
C788 O777 1.264 1_655 S
C788 O780 1.250 . S
C789 H758 0.929 . S
C789 C774 1.437 . S
C789 C790 1.317 . S
C790 H761 0.930 . S
C790 C766 1.431 . S
C790 C789 1.317 . S
C791 Gd732 2.828 . S
C791 O776 1.258 . S
C791 O781 1.252 . S
C791 C792 1.497 . S
C792 C791 1.497 . S
C792 C793 1.395 . S
C792 C794 1.380 . S
C793 C792 1.395 . S
C793 C796 1.398 . S
C793 H808 0.930 . S
C794 C792 1.380 . S
C794 C795 1.391 . S
C794 H809 0.930 . S
C795 C794 1.391 . S
C795 C797 1.387 . S
C796 C793 1.398 . S
C796 C797 1.380 . S
C796 H810 0.930 . S
C797 C795 1.387 . S
C797 C796 1.380 . S
C797 H811 0.930 . S
C798 O778 1.254 . S
C798 O779 1.268 . S
C799 O783 1.284 . S
C799 O786 1.250 . S
C800 Gd733 2.828 . S
C800 O782 1.258 . S
C800 O787 1.252 . S
C800 C801 1.497 . S
C801 C800 1.497 . S
C801 C802 1.395 . S
C801 C803 1.380 . S
C802 C801 1.395 . S
C802 C805 1.398 . S
C802 H812 0.930 . S
C803 C801 1.380 . S
C803 C804 1.391 . S
C803 H813 0.930 . S
C804 C803 1.391 . S
C804 C806 1.387 . S
C805 C802 1.398 . S
C805 C806 1.380 . S
C805 H814 0.930 . S
C806 C804 1.387 . S
C806 C805 1.380 . S
C806 H815 0.930 . S
C807 O784 1.254 . S
C807 O785 1.268 . S
H808 C793 0.930 . S
H809 C794 0.930 . S
H810 C796 0.930 . S
H811 C797 0.930 . S
H812 C802 0.930 . S
H813 C803 0.930 . S
H814 C805 0.930 . S
H815 C806 0.930 . S
H816 C834 0.951 . S
H817 C836 0.951 . S
H818 C838 0.950 . S
H819 C839 0.950 . S
H820 C841 0.950 . S
H821 C844 0.950 . S
H822 C845 0.958 . S
H823 C847 0.950 . S
H824 C848 0.950 . S
H825 C849 0.951 . S
H826 C851 0.951 . S
H827 C853 0.950 . S
H828 C854 0.950 . S
H829 C856 0.950 . S
H830 C859 0.950 . S
H831 C860 0.950 . S
H832 C862 0.950 . S
H833 C863 0.950 . S
C834 H816 0.951 . S
C834 C835 1.366 . S
C834 C836 1.388 . S
C835 C834 1.366 . S
C835 C839 1.385 . S
C836 H817 0.951 . S
C836 C834 1.388 . S
C836 C837 1.366 . S
C837 C836 1.366 . S
C837 C838 1.414 . S
C837 C840 1.499 . S
C838 H818 0.950 . S
C838 C837 1.414 . S
C838 C839 1.374 . S
C839 H819 0.950 . S
C839 C835 1.385 . S
C839 C838 1.374 . S
C840 C837 1.499 . S
C840 C841 1.373 . S
C840 C842 1.389 . S
C841 H820 0.950 . S
C841 C840 1.373 . S
C841 C857 1.377 . S
C842 C840 1.389 . S
C842 C843 1.524 . S
C842 C856 1.377 . S
C843 C842 1.524 . S
C843 C844 1.397 . S
C843 C848 1.363 . S
C844 H821 0.950 . S
C844 C843 1.397 . S
C844 C845 1.287 1_545 S
C845 H822 0.958 . S
C845 C844 1.287 1_565 S
C845 C846 1.329 . S
C846 C845 1.329 . S
C846 C847 1.524 . S
C846 H865 0.913 . S
C847 H823 0.950 . S
C847 C846 1.524 . S
C847 C848 1.415 1_565 S
C848 H824 0.950 . S
C848 C843 1.363 . S
C848 C847 1.415 1_545 S
C849 H825 0.951 . S
C849 C850 1.366 . S
C849 C851 1.388 . S
C850 C849 1.366 . S
C850 C854 1.385 . S
C851 H826 0.951 . S
C851 C849 1.388 . S
C851 C852 1.366 . S
C852 C851 1.366 . S
C852 C853 1.414 . S
C852 C855 1.499 . S
C853 H827 0.950 . S
C853 C852 1.414 . S
C853 C854 1.374 . S
C854 H828 0.950 . S
C854 C850 1.385 . S
C854 C853 1.374 . S
C855 C852 1.499 . S
C855 C856 1.373 . S
C855 C857 1.389 . S
C856 H829 0.950 . S
C856 C842 1.377 . S
C856 C855 1.373 . S
C857 C841 1.377 . S
C857 C855 1.389 . S
C857 C858 1.524 . S
C858 C857 1.524 . S
C858 C859 1.397 . S
C858 C863 1.363 . S
C859 H830 0.950 . S
C859 C858 1.397 . S
C859 C860 1.334 . S
C860 H831 0.950 . S
C860 C859 1.334 . S
C860 C861 1.287 . S
C861 C860 1.287 . S
C861 C862 1.524 . S
C861 H864 0.999 . S
C862 H832 0.950 . S
C862 C861 1.524 . S
C862 C863 1.415 . S
C863 H833 0.950 . S
C863 C858 1.363 . S
C863 C862 1.415 . S
H864 C861 0.999 . S
H865 C846 0.913 . S
H866 C884 0.951 . S
H867 C886 0.951 . S
H868 C888 0.950 . S
H869 C889 0.950 . S
H870 C891 0.950 . S
H871 C894 0.950 . S
H872 C895 0.950 . S
H873 C897 0.950 . S
H874 C898 0.950 . S
H875 C899 0.951 . S
H876 C901 0.951 . S
H877 C903 0.950 . S
H878 C904 0.950 . S
H879 C906 0.950 . S
H880 C909 0.950 . S
H881 C910 0.950 . S
H882 C912 0.950 . S
H883 C913 0.950 . S
C884 H866 0.951 . S
C884 C885 1.366 . S
C884 C886 1.388 . S
C885 C884 1.366 . S
C885 C889 1.385 . S
C886 H867 0.951 . S
C886 C884 1.388 . S
C886 C887 1.366 . S
C887 C886 1.366 . S
C887 C888 1.414 . S
C887 C890 1.499 . S
C888 H868 0.950 . S
C888 C887 1.414 . S
C888 C889 1.374 . S
C889 H869 0.950 . S
C889 C885 1.385 . S
C889 C888 1.374 . S
C890 C887 1.499 . S
C890 C891 1.373 . S
C890 C892 1.389 . S
C891 H870 0.950 . S
C891 C890 1.373 . S
C891 C907 1.377 . S
C892 C890 1.389 . S
C892 C893 1.524 . S
C892 C906 1.377 . S
C893 C892 1.524 . S
C893 C894 1.397 . S
C893 C898 1.363 . S
C894 H871 0.950 . S
C894 C893 1.397 . S
C894 C895 1.334 . S
C895 H872 0.950 . S
C895 C894 1.334 . S
C895 C896 1.287 . S
C896 C895 1.287 . S
C896 C897 1.524 . S
C896 H915 0.913 . S
C897 H873 0.950 . S
C897 C896 1.524 . S
C897 C898 1.415 . S
C898 H874 0.950 . S
C898 C893 1.363 . S
C898 C897 1.415 . S
C899 H875 0.951 . S
C899 C900 1.366 . S
C899 C901 1.388 . S
C900 C899 1.366 . S
C900 C904 1.385 . S
C901 H876 0.951 . S
C901 C899 1.388 . S
C901 C902 1.366 . S
C902 C901 1.366 . S
C902 C903 1.414 . S
C902 C905 1.499 . S
C903 H877 0.950 . S
C903 C902 1.414 . S
C903 C904 1.374 . S
C904 H878 0.950 . S
C904 C900 1.385 . S
C904 C903 1.374 . S
C905 C902 1.499 . S
C905 C906 1.373 . S
C905 C907 1.389 . S
C906 H879 0.950 . S
C906 C892 1.377 . S
C906 C905 1.373 . S
C907 C891 1.377 . S
C907 C905 1.389 . S
C907 C908 1.524 . S
C908 C907 1.524 . S
C908 C909 1.397 . S
C908 C913 1.363 . S
C909 H880 0.950 . S
C909 C908 1.397 . S
C909 C910 1.334 . S
C910 H881 0.950 . S
C910 C909 1.334 . S
C910 C911 1.287 . S
C911 C910 1.287 . S
C911 C912 1.524 . S
C911 H914 0.999 . S
C912 H882 0.950 . S
C912 C911 1.524 . S
C912 C913 1.415 . S
C913 H883 0.950 . S
C913 C908 1.363 . S
C913 C912 1.415 . S
H914 C911 0.999 . S
H915 C896 0.913 . S
H916 C934 0.951 . S
H917 C936 0.951 . S
H918 C938 0.950 . S
H919 C939 0.950 . S
H920 C941 0.950 . S
H921 C944 0.950 . S
H922 C945 0.950 . S
H923 C947 0.950 . S
H924 C948 0.950 . S
H925 C949 0.951 . S
H926 C951 0.951 . S
H927 C953 0.950 . S
H928 C954 0.950 . S
H929 C956 0.950 . S
H930 C959 0.950 . S
H931 C960 0.950 . S
H932 C962 0.950 . S
H933 C963 0.950 . S
C934 H916 0.951 . S
C934 C935 1.366 . S
C934 C936 1.388 . S
C935 C934 1.366 . S
C935 C939 1.385 . S
C936 H917 0.951 . S
C936 C934 1.388 . S
C936 C937 1.366 . S
C937 C936 1.366 . S
C937 C938 1.414 . S
C937 C940 1.499 . S
C938 H918 0.950 . S
C938 C937 1.414 . S
C938 C939 1.374 . S
C939 H919 0.950 . S
C939 C935 1.385 . S
C939 C938 1.374 . S
C940 C937 1.499 . S
C940 C941 1.373 . S
C940 C942 1.389 . S
C941 H920 0.950 . S
C941 C940 1.373 . S
C941 C957 1.377 . S
C942 C940 1.389 . S
C942 C943 1.524 . S
C942 C956 1.377 . S
C943 C942 1.524 . S
C943 C944 1.397 . S
C943 C948 1.363 . S
C944 H921 0.950 . S
C944 C943 1.397 . S
C944 C945 1.334 . S
C945 H922 0.950 . S
C945 C944 1.334 . S
C945 C946 1.287 . S
C946 C945 1.287 . S
C946 C947 1.524 . S
C946 H965 0.913 . S
C947 H923 0.950 . S
C947 C946 1.524 . S
C947 C948 1.415 . S
C948 H924 0.950 . S
C948 C943 1.363 . S
C948 C947 1.415 . S
C949 H925 0.951 . S
C949 C950 1.366 . S
C949 C951 1.388 . S
C950 C949 1.366 . S
C950 C954 1.385 . S
C951 H926 0.951 . S
C951 C949 1.388 . S
C951 C952 1.366 . S
C952 C951 1.366 . S
C952 C953 1.414 . S
C952 C955 1.499 . S
C953 H927 0.950 . S
C953 C952 1.414 . S
C953 C954 1.374 . S
C954 H928 0.950 . S
C954 C950 1.385 . S
C954 C953 1.374 . S
C955 C952 1.499 . S
C955 C956 1.373 . S
C955 C957 1.389 . S
C956 H929 0.950 . S
C956 C942 1.377 . S
C956 C955 1.373 . S
C957 C941 1.377 . S
C957 C955 1.389 . S
C957 C958 1.524 . S
C958 C957 1.524 . S
C958 C959 1.397 . S
C958 C963 1.363 . S
C959 H930 0.950 . S
C959 C958 1.397 . S
C959 C960 1.334 . S
C960 H931 0.950 . S
C960 C959 1.334 . S
C960 C961 1.287 . S
C961 C960 1.287 . S
C961 C962 1.524 . S
C961 H964 0.999 . S
C962 H932 0.950 . S
C962 C961 1.524 . S
C962 C963 1.415 . S
C963 H933 0.950 . S
C963 C958 1.363 . S
C963 C962 1.415 . S
H964 C961 0.999 . S
H965 C946 0.913 . S
H966 C984 0.951 . S
H967 C986 0.951 . S
H968 C988 0.950 . S
H969 C989 0.950 . S
H970 C991 0.950 . S
H971 C994 0.950 . S
H972 C995 0.950 . S
H973 C997 0.950 . S
H974 C998 0.950 . S
H975 C999 0.951 . S
H976 C1001 0.951 . S
H977 C1003 0.950 . S
H978 C1004 0.980 . S
H979 C1006 0.950 . S
H980 C1009 0.950 . S
H981 C1010 0.950 . S
H982 C1012 0.950 . S
H983 C1013 0.950 . S
C984 H966 0.951 . S
C984 C985 1.366 . S
C984 C986 1.388 . S
C985 C984 1.366 . S
C985 C989 1.385 . S
C986 H967 0.951 . S
C986 C984 1.388 . S
C986 C987 1.366 . S
C987 C986 1.366 . S
C987 C988 1.414 . S
C987 C990 1.499 . S
C988 H968 0.950 . S
C988 C987 1.414 . S
C988 C989 1.374 . S
C989 H969 0.950 . S
C989 C985 1.385 . S
C989 C988 1.374 . S
C990 C987 1.499 . S
C990 C991 1.373 . S
C990 C992 1.389 . S
C991 H970 0.950 . S
C991 C990 1.373 . S
C991 C1007 1.377 . S
C992 C990 1.389 . S
C992 C993 1.524 . S
C992 C1006 1.377 . S
C993 C992 1.524 . S
C993 C994 1.397 . S
C993 C998 1.363 . S
C994 H971 0.950 . S
C994 C993 1.397 . S
C994 C995 1.334 . S
C995 H972 0.950 . S
C995 C994 1.334 . S
C995 C996 1.287 . S
C996 C995 1.287 . S
C996 C997 1.524 . S
C996 H1015 0.913 . S
C997 H973 0.950 . S
C997 C996 1.524 . S
C997 C998 1.415 . S
C998 H974 0.950 . S
C998 C993 1.363 . S
C998 C997 1.415 . S
C999 H975 0.951 . S
C999 C1000 1.366 . S
C999 C1001 1.388 . S
C1000 C999 1.366 . S
C1000 C1004 1.385 . S
C1001 H976 0.951 . S
C1001 C999 1.388 . S
C1001 C1002 1.366 . S
C1002 C1001 1.366 . S
C1002 C1003 1.414 . S
C1002 C1005 1.499 . S
C1003 H977 0.950 . S
C1003 C1002 1.414 . S
C1003 C1004 1.374 . S
C1004 H978 0.980 . S
C1004 C1000 1.385 . S
C1004 C1003 1.374 . S
C1005 C1002 1.499 . S
C1005 C1006 1.373 . S
C1005 C1007 1.389 . S
C1006 H979 0.950 . S
C1006 C992 1.377 . S
C1006 C1005 1.373 . S
C1007 C991 1.377 . S
C1007 C1005 1.389 . S
C1007 C1008 1.524 . S
C1008 C1007 1.524 . S
C1008 C1009 1.397 . S
C1008 C1013 1.363 . S
C1009 H980 0.950 . S
C1009 C1008 1.397 . S
C1009 C1010 1.334 . S
C1010 H981 0.950 . S
C1010 C1009 1.334 . S
C1010 C1011 1.287 . S
C1011 C1010 1.287 . S
C1011 C1012 1.524 . S
C1011 H1014 0.999 . S
C1012 H982 0.950 . S
C1012 C1011 1.524 . S
C1012 C1013 1.415 . S
C1013 H983 0.950 . S
C1013 C1008 1.363 . S
C1013 C1012 1.415 . S
H1014 C1011 0.999 . S
H1015 C996 0.913 . S
H1016 C1034 0.951 . S
H1017 C1036 0.951 . S
H1018 C1038 0.950 . S
H1019 C1039 0.950 . S
H1020 C1041 0.950 . S
H1021 C1044 0.950 . S
H1022 C1045 0.950 . S
H1023 C1047 0.950 1_545 S
H1024 C1048 0.990 . S
H1025 C1049 0.951 . S
H1026 C1051 0.951 . S
H1027 C1053 0.950 1_545 S
H1028 C1054 0.950 . S
H1029 C1056 0.950 . S
H1030 C1059 0.950 . S
H1031 C1060 0.950 . S
H1032 C1062 0.950 . S
H1033 C1063 0.950 . S
C1034 H1016 0.951 . S
C1034 C1035 1.366 . S
C1034 C1036 1.388 1_554 S
C1035 C1034 1.366 . S
C1035 C1039 1.385 . S
C1036 H1017 0.951 . S
C1036 C1034 1.388 1_556 S
C1036 C1037 1.366 . S
C1037 C1036 1.366 . S
C1037 C1038 1.414 . S
C1037 C1040 1.499 . S
C1038 H1018 0.950 . S
C1038 C1037 1.414 . S
C1038 C1039 1.374 1_556 S
C1039 H1019 0.950 . S
C1039 C1035 1.385 . S
C1039 C1038 1.374 1_554 S
C1040 C1037 1.499 . S
C1040 C1041 1.373 . S
C1040 C1042 1.389 . S
C1041 H1020 0.950 . S
C1041 C1040 1.373 . S
C1041 C1057 1.377 . S
C1042 C1040 1.389 . S
C1042 C1043 1.524 . S
C1042 C1056 1.377 . S
C1043 C1042 1.524 . S
C1043 C1044 1.397 . S
C1043 C1048 1.363 . S
C1044 H1021 0.950 . S
C1044 C1043 1.397 . S
C1044 C1045 1.334 . S
C1045 H1022 0.950 . S
C1045 C1044 1.334 . S
C1045 C1046 1.287 . S
C1046 C1045 1.287 . S
C1046 C1047 1.524 . S
C1046 H1065 0.913 . S
C1047 H1023 0.950 1_565 S
C1047 C1046 1.524 . S
C1047 C1048 1.415 . S
C1048 H1024 0.990 . S
C1048 C1043 1.363 . S
C1048 C1047 1.415 . S
C1049 H1025 0.951 . S
C1049 C1050 1.366 . S
C1049 C1051 1.388 . S
C1050 C1049 1.366 . S
C1050 C1054 1.385 1_565 S
C1051 H1026 0.951 . S
C1051 C1049 1.388 . S
C1051 C1052 1.366 . S
C1052 C1051 1.366 . S
C1052 C1053 1.414 . S
C1052 C1055 1.499 . S
C1053 H1027 0.950 1_565 S
C1053 C1052 1.414 . S
C1053 C1054 1.374 1_565 S
C1054 H1028 0.950 . S
C1054 C1050 1.385 1_545 S
C1054 C1053 1.374 1_545 S
C1055 C1052 1.499 . S
C1055 C1056 1.373 . S
C1055 C1057 1.389 . S
C1056 H1029 0.950 . S
C1056 C1042 1.377 . S
C1056 C1055 1.373 . S
C1057 C1041 1.377 . S
C1057 C1055 1.389 . S
C1057 C1058 1.524 . S
C1058 C1057 1.524 . S
C1058 C1059 1.397 . S
C1058 C1063 1.363 . S
C1059 H1030 0.950 . S
C1059 C1058 1.397 . S
C1059 C1060 1.334 . S
C1060 H1031 0.950 . S
C1060 C1059 1.334 . S
C1060 C1061 1.287 . S
C1061 C1060 1.287 . S
C1061 C1062 1.524 . S
C1061 H1064 1.005 1_655 S
C1062 H1032 0.950 . S
C1062 C1061 1.524 . S
C1062 C1063 1.415 . S
C1063 H1033 0.950 . S
C1063 C1058 1.363 . S
C1063 C1062 1.415 . S
H1064 C1061 1.005 1_455 S
H1065 C1046 0.913 . S
H1066 C1084 0.951 . S
H1067 C1086 0.951 . S
H1068 C1088 0.950 . S
H1069 C1089 0.950 . S
H1070 C1091 0.950 . S
H1071 C1094 0.950 1_556 S
H1072 C1095 0.950 . S
H1073 C1097 0.950 . S
H1074 C1098 0.950 . S
H1075 C1099 0.951 . S
H1076 C1101 0.951 . S
H1077 C1103 0.950 . S
H1078 C1104 0.950 . S
H1079 C1106 0.950 . S
H1080 C1109 0.950 . S
H1081 C1110 0.950 . S
H1082 C1112 0.950 . S
H1083 C1113 0.950 . S
C1084 H1066 0.951 . S
C1084 C1085 1.366 . S
C1084 C1086 1.388 1_554 S
C1085 C1084 1.366 . S
C1085 C1089 1.385 . S
C1086 H1067 0.951 . S
C1086 C1084 1.388 1_556 S
C1086 C1087 1.366 . S
C1087 C1086 1.366 . S
C1087 C1088 1.414 . S
C1087 C1090 1.499 . S
C1088 H1068 0.950 . S
C1088 C1087 1.414 . S
C1088 C1089 1.374 1_556 S
C1089 H1069 0.950 . S
C1089 C1085 1.385 . S
C1089 C1088 1.374 1_554 S
C1090 C1087 1.499 . S
C1090 C1091 1.373 . S
C1090 C1092 1.389 . S
C1091 H1070 0.950 . S
C1091 C1090 1.373 . S
C1091 C1107 1.377 . S
C1092 C1090 1.389 . S
C1092 C1093 1.524 . S
C1092 C1106 1.377 . S
C1093 C1092 1.524 . S
C1093 C1094 1.397 1_556 S
C1093 C1098 1.363 . S
C1094 H1071 0.950 1_554 S
C1094 C1093 1.397 1_554 S
C1094 C1095 1.334 . S
C1095 H1072 0.950 . S
C1095 C1094 1.334 . S
C1095 C1096 1.287 . S
C1096 C1095 1.287 . S
C1096 C1097 1.524 . S
C1096 H1115 0.913 . S
C1097 H1073 0.950 . S
C1097 C1096 1.524 . S
C1097 C1098 1.415 1_554 S
C1098 H1074 0.950 . S
C1098 C1093 1.363 . S
C1098 C1097 1.415 1_556 S
C1099 H1075 0.951 . S
C1099 C1100 1.366 . S
C1099 C1101 1.388 . S
C1100 C1099 1.366 . S
C1100 C1104 1.385 . S
C1101 H1076 0.951 . S
C1101 C1099 1.388 . S
C1101 C1102 1.366 . S
C1102 C1101 1.366 . S
C1102 C1103 1.414 . S
C1102 C1105 1.499 . S
C1103 H1077 0.950 . S
C1103 C1102 1.414 . S
C1103 C1104 1.374 . S
C1104 H1078 0.950 . S
C1104 C1100 1.385 . S
C1104 C1103 1.374 . S
C1105 C1102 1.499 . S
C1105 C1106 1.373 . S
C1105 C1107 1.389 . S
C1106 H1079 0.950 . S
C1106 C1092 1.377 . S
C1106 C1105 1.373 . S
C1107 C1091 1.377 . S
C1107 C1105 1.389 . S
C1107 C1108 1.524 . S
C1108 C1107 1.524 . S
C1108 C1109 1.397 . S
C1108 C1113 1.363 . S
C1109 H1080 0.950 . S
C1109 C1108 1.397 . S
C1109 C1110 1.334 . S
C1110 H1081 0.950 . S
C1110 C1109 1.334 . S
C1110 C1111 1.287 . S
C1111 C1110 1.287 . S
C1111 C1112 1.524 . S
C1111 H1114 0.999 . S
C1112 H1082 0.950 . S
C1112 C1111 1.524 . S
C1112 C1113 1.415 . S
C1113 H1083 0.950 . S
C1113 C1108 1.363 . S
C1113 C1112 1.415 . S
H1114 C1111 0.999 . S
H1115 C1096 0.913 . S
H1116 C1134 0.951 . S
H1117 C1136 0.951 . S
H1118 C1138 0.950 . S
H1119 C1139 0.950 1_554 S
H1120 C1141 0.950 . S
H1121 C1144 0.950 . S
H1122 C1145 0.950 . S
H1123 C1147 0.950 . S
H1124 C1148 0.950 . S
H1125 C1149 0.951 . S
H1126 C1151 0.951 . S
H1127 C1153 0.950 . S
H1128 C1154 0.950 . S
H1129 C1156 0.950 . S
H1130 C1159 0.950 . S
H1131 C1160 0.950 . S
H1132 C1162 0.950 . S
H1133 C1163 0.950 . S
C1134 H1116 0.951 . S
C1134 C1135 1.366 . S
C1134 C1136 1.388 1_554 S
C1135 C1134 1.366 . S
C1135 C1139 1.385 1_554 S
C1136 H1117 0.951 . S
C1136 C1134 1.388 1_556 S
C1136 C1137 1.366 . S
C1137 C1136 1.366 . S
C1137 C1138 1.414 . S
C1137 C1140 1.499 . S
C1138 H1118 0.950 . S
C1138 C1137 1.414 . S
C1138 C1139 1.374 . S
C1139 H1119 0.950 1_556 S
C1139 C1135 1.385 1_556 S
C1139 C1138 1.374 . S
C1140 C1137 1.499 . S
C1140 C1141 1.373 . S
C1140 C1142 1.389 . S
C1141 H1120 0.950 . S
C1141 C1140 1.373 . S
C1141 C1157 1.377 . S
C1142 C1140 1.389 . S
C1142 C1143 1.524 . S
C1142 C1156 1.377 . S
C1143 C1142 1.524 . S
C1143 C1144 1.397 . S
C1143 C1148 1.363 . S
C1144 H1121 0.950 . S
C1144 C1143 1.397 . S
C1144 C1145 1.334 . S
C1145 H1122 0.950 . S
C1145 C1144 1.334 . S
C1145 C1146 1.287 . S
C1146 C1145 1.287 . S
C1146 C1147 1.524 . S
C1146 H1165 0.913 . S
C1147 H1123 0.950 . S
C1147 C1146 1.524 . S
C1147 C1148 1.415 . S
C1148 H1124 0.950 . S
C1148 C1143 1.363 . S
C1148 C1147 1.415 . S
C1149 H1125 0.951 . S
C1149 C1150 1.366 . S
C1149 C1151 1.388 . S
C1150 C1149 1.366 . S
C1150 C1154 1.385 . S
C1151 H1126 0.951 . S
C1151 C1149 1.388 . S
C1151 C1152 1.366 . S
C1152 C1151 1.366 . S
C1152 C1153 1.414 . S
C1152 C1155 1.499 . S
C1153 H1127 0.950 . S
C1153 C1152 1.414 . S
C1153 C1154 1.374 . S
C1154 H1128 0.950 . S
C1154 C1150 1.385 . S
C1154 C1153 1.374 . S
C1155 C1152 1.499 . S
C1155 C1156 1.373 . S
C1155 C1157 1.389 . S
C1156 H1129 0.950 . S
C1156 C1142 1.377 . S
C1156 C1155 1.373 . S
C1157 C1141 1.377 . S
C1157 C1155 1.389 . S
C1157 C1158 1.524 . S
C1158 C1157 1.524 . S
C1158 C1159 1.397 . S
C1158 C1163 1.363 . S
C1159 H1130 0.950 . S
C1159 C1158 1.397 . S
C1159 C1160 1.334 . S
C1160 H1131 0.950 . S
C1160 C1159 1.334 . S
C1160 C1161 1.287 . S
C1161 C1160 1.287 . S
C1161 C1162 1.524 . S
C1161 H1164 0.999 . S
C1162 H1132 0.950 . S
C1162 C1161 1.524 . S
C1162 C1163 1.415 . S
C1163 H1133 0.950 . S
C1163 C1158 1.363 . S
C1163 C1162 1.415 . S
H1164 C1161 0.999 . S
H1165 C1146 0.913 . S
H1166 C1184 0.951 . S
H1167 C1186 0.951 . S
H1168 C1188 0.950 . S
H1169 C1189 0.950 . S
H1170 C1191 0.950 . S
H1171 C1194 0.950 . S
H1172 C1195 0.950 1_554 S
H1173 C1197 0.950 . S
H1174 C1198 0.950 . S
H1175 C1199 0.951 1_455 S
H1176 C1201 0.938 1_455 S
H1177 C1203 0.950 . S
H1178 C1204 0.950 . S
H1179 C1206 0.950 . S
H1180 C1209 0.950 . S
H1181 C1210 0.950 . S
H1182 C1212 0.950 . S
H1183 C1213 0.950 . S
C1184 H1166 0.951 . S
C1184 C1185 1.366 1_556 S
C1184 C1186 1.388 . S
C1185 C1184 1.366 1_554 S
C1185 C1189 1.385 . S
C1186 H1167 0.951 . S
C1186 C1184 1.388 . S
C1186 C1187 1.366 . S
C1187 C1186 1.366 . S
C1187 C1188 1.414 . S
C1187 C1190 1.499 . S
C1188 H1168 0.950 . S
C1188 C1187 1.414 . S
C1188 C1189 1.374 1_556 S
C1189 H1169 0.950 . S
C1189 C1185 1.385 . S
C1189 C1188 1.374 1_554 S
C1190 C1187 1.499 . S
C1190 C1191 1.373 . S
C1190 C1192 1.389 . S
C1191 H1170 0.950 . S
C1191 C1190 1.373 . S
C1191 C1207 1.377 . S
C1192 C1190 1.389 . S
C1192 C1193 1.524 . S
C1192 C1206 1.377 . S
C1193 C1192 1.524 . S
C1193 C1194 1.397 . S
C1193 C1198 1.363 . S
C1194 H1171 0.950 . S
C1194 C1193 1.397 . S
C1194 C1195 1.334 . S
C1195 H1172 0.950 1_556 S
C1195 C1194 1.334 . S
C1195 C1196 1.287 . S
C1196 C1195 1.287 . S
C1196 C1197 1.524 . S
C1196 H1215 0.913 . S
C1197 H1173 0.950 . S
C1197 C1196 1.524 . S
C1197 C1198 1.415 . S
C1198 H1174 0.950 . S
C1198 C1193 1.363 . S
C1198 C1197 1.415 . S
C1199 H1175 0.951 1_655 S
C1199 C1200 1.366 . S
C1199 C1201 1.388 . S
C1200 C1199 1.366 . S
C1200 C1204 1.385 . S
C1201 H1176 0.938 1_655 S
C1201 C1199 1.388 . S
C1201 C1202 1.366 . S
C1202 C1201 1.366 . S
C1202 C1203 1.414 . S
C1202 C1205 1.499 . S
C1203 H1177 0.950 . S
C1203 C1202 1.414 . S
C1203 C1204 1.374 . S
C1204 H1178 0.950 . S
C1204 C1200 1.385 . S
C1204 C1203 1.374 . S
C1205 C1202 1.499 . S
C1205 C1206 1.373 . S
C1205 C1207 1.389 . S
C1206 H1179 0.950 . S
C1206 C1192 1.377 . S
C1206 C1205 1.373 . S
C1207 C1191 1.377 . S
C1207 C1205 1.389 . S
C1207 C1208 1.524 . S
C1208 C1207 1.524 . S
C1208 C1209 1.397 . S
C1208 C1213 1.363 1_655 S
C1209 H1180 0.950 . S
C1209 C1208 1.397 . S
C1209 C1210 1.334 1_655 S
C1210 H1181 0.950 . S
C1210 C1209 1.334 1_455 S
C1210 C1211 1.287 . S
C1211 C1210 1.287 . S
C1211 C1212 1.524 . S
C1211 H1214 0.999 . S
C1212 H1182 0.950 . S
C1212 C1211 1.524 . S
C1212 C1213 1.415 . S
C1213 H1183 0.950 . S
C1213 C1208 1.363 1_455 S
C1213 C1212 1.415 . S
H1214 C1211 0.999 . S
H1215 C1196 0.913 . S
H1216 C1234 0.951 . S
H1217 C1236 0.951 . S
H1218 C1238 0.950 . S
H1219 C1239 0.950 . S
H1220 C1241 0.950 . S
H1221 C1244 0.950 . S
H1222 C1245 0.950 . S
H1223 C1247 0.950 . S
H1224 C1248 0.950 . S
H1225 C1249 0.951 . S
H1226 C1251 0.951 . S
H1227 C1253 0.950 1_655 S
H1228 C1254 0.950 . S
H1229 C1256 0.950 . S
H1230 C1259 0.950 . S
H1231 C1260 0.950 . S
H1232 C1262 0.950 . S
H1233 C1263 0.950 . S
C1234 H1216 0.951 . S
C1234 C1235 1.366 . S
C1234 C1236 1.388 . S
C1235 C1234 1.366 . S
C1235 C1239 1.385 . S
C1236 H1217 0.951 . S
C1236 C1234 1.388 . S
C1236 C1237 1.366 . S
C1237 C1236 1.366 . S
C1237 C1238 1.414 . S
C1237 C1240 1.499 . S
C1238 H1218 0.950 . S
C1238 C1237 1.414 . S
C1238 C1239 1.374 . S
C1239 H1219 0.950 . S
C1239 C1235 1.385 . S
C1239 C1238 1.374 . S
C1240 C1237 1.499 . S
C1240 C1241 1.373 . S
C1240 C1242 1.389 . S
C1241 H1220 0.950 . S
C1241 C1240 1.373 . S
C1241 C1257 1.377 . S
C1242 C1240 1.389 . S
C1242 C1243 1.524 . S
C1242 C1256 1.377 . S
C1243 C1242 1.524 . S
C1243 C1244 1.397 . S
C1243 C1248 1.363 . S
C1244 H1221 0.950 . S
C1244 C1243 1.397 . S
C1244 C1245 1.334 . S
C1245 H1222 0.950 . S
C1245 C1244 1.334 . S
C1245 C1246 1.287 . S
C1246 C1245 1.287 . S
C1246 C1247 1.524 . S
C1246 H1265 0.913 . S
C1247 H1223 0.950 . S
C1247 C1246 1.524 . S
C1247 C1248 1.415 . S
C1248 H1224 0.950 . S
C1248 C1243 1.363 . S
C1248 C1247 1.415 . S
C1249 H1225 0.951 . S
C1249 C1250 1.366 . S
C1249 C1251 1.388 . S
C1250 C1249 1.366 . S
C1250 C1254 1.385 1_455 S
C1251 H1226 0.951 . S
C1251 C1249 1.388 . S
C1251 C1252 1.366 . S
C1252 C1251 1.366 . S
C1252 C1253 1.414 . S
C1252 C1255 1.499 . S
C1253 H1227 0.950 1_455 S
C1253 C1252 1.414 . S
C1253 C1254 1.374 1_455 S
C1254 H1228 0.950 . S
C1254 C1250 1.385 1_655 S
C1254 C1253 1.374 1_655 S
C1255 C1252 1.499 . S
C1255 C1256 1.373 . S
C1255 C1257 1.389 . S
C1256 H1229 0.950 . S
C1256 C1242 1.377 . S
C1256 C1255 1.373 . S
C1257 C1241 1.377 . S
C1257 C1255 1.389 . S
C1257 C1258 1.524 . S
C1258 C1257 1.524 . S
C1258 C1259 1.397 . S
C1258 C1263 1.363 . S
C1259 H1230 0.950 . S
C1259 C1258 1.397 . S
C1259 C1260 1.334 . S
C1260 H1231 0.950 . S
C1260 C1259 1.334 . S
C1260 C1261 1.287 . S
C1261 C1260 1.287 . S
C1261 C1262 1.524 . S
C1261 H1264 0.999 . S
C1262 H1232 0.950 . S
C1262 C1261 1.524 . S
C1262 C1263 1.415 . S
C1263 H1233 0.950 . S
C1263 C1258 1.363 . S
C1263 C1262 1.415 . S
H1264 C1261 0.999 . S
H1265 C1246 0.913 . S
H1266 C1284 0.951 . S
H1267 C1286 0.951 . S
H1268 C1288 0.950 . S
H1269 C1289 0.950 . S
H1270 C1291 0.950 . S
H1271 C1294 0.950 . S
H1272 C1295 0.950 . S
H1273 C1297 0.950 . S
H1274 C1298 0.950 . S
H1275 C1299 0.951 . S
H1276 C1301 0.951 . S
H1277 C1303 0.950 . S
H1278 C1304 0.921 1_565 S
H1279 C1306 0.950 . S
H1280 C1309 0.950 . S
H1281 C1310 0.950 . S
H1282 C1312 0.950 . S
H1283 C1313 0.950 . S
C1284 H1266 0.951 . S
C1284 C1285 1.366 . S
C1284 C1286 1.388 . S
C1285 C1284 1.366 . S
C1285 C1289 1.385 . S
C1286 H1267 0.951 . S
C1286 C1284 1.388 . S
C1286 C1287 1.366 . S
C1287 C1286 1.366 . S
C1287 C1288 1.414 . S
C1287 C1290 1.499 . S
C1288 H1268 0.950 . S
C1288 C1287 1.414 . S
C1288 C1289 1.374 . S
C1289 H1269 0.950 . S
C1289 C1285 1.385 . S
C1289 C1288 1.374 . S
C1290 C1287 1.499 . S
C1290 C1291 1.373 . S
C1290 C1292 1.389 . S
C1291 H1270 0.950 . S
C1291 C1290 1.373 . S
C1291 C1307 1.377 . S
C1292 C1290 1.389 . S
C1292 C1293 1.524 . S
C1292 C1306 1.377 . S
C1293 C1292 1.524 . S
C1293 C1294 1.397 . S
C1293 C1298 1.363 . S
C1294 H1271 0.950 . S
C1294 C1293 1.397 . S
C1294 C1295 1.334 . S
C1295 H1272 0.950 . S
C1295 C1294 1.334 . S
C1295 C1296 1.287 . S
C1296 C1295 1.287 . S
C1296 C1297 1.524 . S
C1296 H1315 0.913 . S
C1297 H1273 0.950 . S
C1297 C1296 1.524 . S
C1297 C1298 1.415 . S
C1298 H1274 0.950 . S
C1298 C1293 1.363 . S
C1298 C1297 1.415 . S
C1299 H1275 0.951 . S
C1299 C1300 1.366 . S
C1299 C1301 1.388 . S
C1300 C1299 1.366 . S
C1300 C1304 1.392 . S
C1301 H1276 0.951 . S
C1301 C1299 1.388 . S
C1301 C1302 1.366 . S
C1302 C1301 1.366 . S
C1302 C1303 1.414 . S
C1302 C1305 1.499 . S
C1303 H1277 0.950 . S
C1303 C1302 1.414 . S
C1303 C1304 1.398 . S
C1304 H1278 0.921 1_545 S
C1304 C1300 1.392 . S
C1304 C1303 1.398 . S
C1305 C1302 1.499 . S
C1305 C1306 1.373 . S
C1305 C1307 1.389 . S
C1306 H1279 0.950 . S
C1306 C1292 1.377 . S
C1306 C1305 1.373 . S
C1307 C1291 1.377 . S
C1307 C1305 1.389 . S
C1307 C1308 1.524 . S
C1308 C1307 1.524 . S
C1308 C1309 1.397 1_545 S
C1308 C1313 1.363 . S
C1309 H1280 0.950 . S
C1309 C1308 1.397 1_565 S
C1309 C1310 1.334 . S
C1310 H1281 0.950 . S
C1310 C1309 1.334 . S
C1310 C1311 1.287 . S
C1311 C1310 1.287 . S
C1311 C1312 1.524 1_565 S
C1311 H1314 0.999 . S
C1312 H1282 0.950 . S
C1312 C1311 1.524 1_545 S
C1312 C1313 1.415 . S
C1313 H1283 0.950 . S
C1313 C1308 1.363 . S
C1313 C1312 1.415 . S
H1314 C1311 0.999 . S
H1315 C1296 0.913 . S
H1316 C1334 0.951 . S
H1317 C1336 0.951 . S
H1318 C1338 0.950 . S
H1319 C1339 0.950 . S
H1320 C1341 0.950 . S
H1321 C1344 0.950 . S
H1322 C1345 0.950 . S
H1323 C1347 0.950 . S
H1324 C1348 0.950 . S
H1325 C1349 0.951 . S
H1326 C1351 0.951 . S
H1327 C1353 0.950 . S
H1328 C1354 0.950 . S
H1329 C1356 0.950 . S
H1330 C1359 0.950 . S
H1331 C1360 0.950 . S
H1332 C1362 0.950 . S
H1333 C1363 0.950 . S
C1334 H1316 0.951 . S
C1334 C1335 1.366 . S
C1334 C1336 1.388 . S
C1335 C1334 1.366 . S
C1335 C1339 1.385 . S
C1336 H1317 0.951 . S
C1336 C1334 1.388 . S
C1336 C1337 1.366 . S
C1337 C1336 1.366 . S
C1337 C1338 1.414 . S
C1337 C1340 1.499 . S
C1338 H1318 0.950 . S
C1338 C1337 1.414 . S
C1338 C1339 1.374 . S
C1339 H1319 0.950 . S
C1339 C1335 1.385 . S
C1339 C1338 1.374 . S
C1340 C1337 1.499 . S
C1340 C1341 1.373 . S
C1340 C1342 1.389 . S
C1341 H1320 0.950 . S
C1341 C1340 1.373 . S
C1341 C1357 1.377 . S
C1342 C1340 1.389 . S
C1342 C1343 1.524 . S
C1342 C1356 1.377 . S
C1343 C1342 1.524 . S
C1343 C1344 1.397 . S
C1343 C1348 1.363 . S
C1344 H1321 0.950 . S
C1344 C1343 1.397 . S
C1344 C1345 1.334 . S
C1345 H1322 0.950 . S
C1345 C1344 1.334 . S
C1345 C1346 1.287 . S
C1346 C1345 1.287 . S
C1346 C1347 1.524 . S
C1346 H1365 0.913 . S
C1347 H1323 0.950 . S
C1347 C1346 1.524 . S
C1347 C1348 1.415 . S
C1348 H1324 0.950 . S
C1348 C1343 1.363 . S
C1348 C1347 1.415 . S
C1349 H1325 0.951 . S
C1349 C1350 1.366 . S
C1349 C1351 1.388 . S
C1350 C1349 1.366 . S
C1350 C1354 1.385 . S
C1351 H1326 0.951 . S
C1351 C1349 1.388 . S
C1351 C1352 1.366 . S
C1352 C1351 1.366 . S
C1352 C1353 1.414 . S
C1352 C1355 1.499 . S
C1353 H1327 0.950 . S
C1353 C1352 1.414 . S
C1353 C1354 1.374 . S
C1354 H1328 0.950 . S
C1354 C1350 1.385 . S
C1354 C1353 1.374 . S
C1355 C1352 1.499 . S
C1355 C1356 1.373 . S
C1355 C1357 1.389 . S
C1356 H1329 0.950 . S
C1356 C1342 1.377 . S
C1356 C1355 1.373 . S
C1357 C1341 1.377 . S
C1357 C1355 1.389 . S
C1357 C1358 1.524 . S
C1358 C1357 1.524 . S
C1358 C1359 1.397 . S
C1358 C1363 1.363 . S
C1359 H1330 0.950 . S
C1359 C1358 1.397 . S
C1359 C1360 1.334 . S
C1360 H1331 0.950 . S
C1360 C1359 1.334 . S
C1360 C1361 1.287 . S
C1361 C1360 1.287 . S
C1361 C1362 1.524 . S
C1361 H1364 0.999 . S
C1362 H1332 0.950 . S
C1362 C1361 1.524 . S
C1362 C1363 1.415 . S
C1363 H1333 0.950 . S
C1363 C1358 1.363 . S
C1363 C1362 1.415 . S
H1364 C1361 0.999 . S
H1365 C1346 0.913 . S
H1366 C1384 0.951 . S
H1367 C1386 0.951 . S
H1368 C1388 0.950 . S
H1369 C1389 0.950 . S
H1370 C1391 0.950 . S
H1371 C1394 0.950 . S
H1372 C1395 0.950 . S
H1373 C1397 0.950 . S
H1374 C1398 0.950 . S
H1375 C1399 0.951 . S
H1376 C1401 0.951 . S
H1377 C1403 0.950 . S
H1378 C1404 0.950 . S
H1379 C1406 0.950 . S
H1380 C1409 0.950 . S
H1381 C1410 0.950 . S
H1382 C1412 0.950 . S
H1383 C1413 0.950 . S
C1384 H1366 0.951 . S
C1384 C1385 1.366 . S
C1384 C1386 1.388 . S
C1385 C1384 1.366 . S
C1385 C1389 1.385 . S
C1386 H1367 0.951 . S
C1386 C1384 1.388 . S
C1386 C1387 1.366 . S
C1387 C1386 1.366 . S
C1387 C1388 1.414 . S
C1387 C1390 1.499 . S
C1388 H1368 0.950 . S
C1388 C1387 1.414 . S
C1388 C1389 1.374 . S
C1389 H1369 0.950 . S
C1389 C1385 1.385 . S
C1389 C1388 1.374 . S
C1390 C1387 1.499 . S
C1390 C1391 1.373 . S
C1390 C1392 1.389 . S
C1391 H1370 0.950 . S
C1391 C1390 1.373 . S
C1391 C1407 1.377 . S
C1392 C1390 1.389 . S
C1392 C1393 1.524 . S
C1392 C1406 1.377 . S
C1393 C1392 1.524 . S
C1393 C1394 1.397 . S
C1393 C1398 1.363 . S
C1394 H1371 0.950 . S
C1394 C1393 1.397 . S
C1394 C1395 1.334 . S
C1395 H1372 0.950 . S
C1395 C1394 1.334 . S
C1395 C1396 1.287 . S
C1396 C1395 1.287 . S
C1396 C1397 1.524 . S
C1396 H1415 0.913 . S
C1397 H1373 0.950 . S
C1397 C1396 1.524 . S
C1397 C1398 1.415 . S
C1398 H1374 0.950 . S
C1398 C1393 1.363 . S
C1398 C1397 1.415 . S
C1399 H1375 0.951 . S
C1399 C1400 1.366 . S
C1399 C1401 1.388 . S
C1400 C1399 1.366 . S
C1400 C1404 1.385 . S
C1401 H1376 0.951 . S
C1401 C1399 1.388 . S
C1401 C1402 1.366 . S
C1402 C1401 1.366 . S
C1402 C1403 1.414 . S
C1402 C1405 1.499 . S
C1403 H1377 0.950 . S
C1403 C1402 1.414 . S
C1403 C1404 1.374 . S
C1404 H1378 0.950 . S
C1404 C1400 1.385 . S
C1404 C1403 1.374 . S
C1405 C1402 1.499 . S
C1405 C1406 1.373 . S
C1405 C1407 1.389 . S
C1406 H1379 0.950 . S
C1406 C1392 1.377 . S
C1406 C1405 1.373 . S
C1407 C1391 1.377 . S
C1407 C1405 1.389 . S
C1407 C1408 1.524 . S
C1408 C1407 1.524 . S
C1408 C1409 1.397 . S
C1408 C1413 1.363 . S
C1409 H1380 0.950 . S
C1409 C1408 1.397 . S
C1409 C1410 1.334 . S
C1410 H1381 0.950 . S
C1410 C1409 1.334 . S
C1410 C1411 1.287 . S
C1411 C1410 1.287 . S
C1411 C1412 1.524 . S
C1411 H1414 0.999 . S
C1412 H1382 0.950 . S
C1412 C1411 1.524 . S
C1412 C1413 1.415 . S
C1413 H1383 0.950 . S
C1413 C1408 1.363 . S
C1413 C1412 1.415 . S
H1414 C1411 0.999 . S
H1415 C1396 0.913 . S
H1416 C1434 0.951 . S
H1417 C1436 0.951 . S
H1418 C1438 0.950 . S
H1419 C1439 0.950 1_554 S
H1420 C1441 0.950 . S
H1421 C1444 0.950 . S
H1422 C1445 0.951 1_455 S
H1423 C1447 0.950 . S
H1424 C1448 0.950 . S
H1425 C1449 0.951 . S
H1426 C1451 0.951 . S
H1427 C1453 0.950 . S
H1428 C1454 0.950 . S
H1429 C1456 0.950 . S
H1430 C1459 0.950 . S
H1431 C1460 0.950 . S
H1432 C1462 0.950 . S
H1433 C1463 0.950 . S
C1434 H1416 0.951 . S
C1434 C1435 1.366 . S
C1434 C1436 1.388 . S
C1435 C1434 1.366 . S
C1435 C1439 1.385 . S
C1436 H1417 0.951 . S
C1436 C1434 1.388 . S
C1436 C1437 1.366 . S
C1437 C1436 1.366 . S
C1437 C1438 1.414 . S
C1437 C1440 1.499 . S
C1438 H1418 0.950 . S
C1438 C1437 1.414 . S
C1438 C1439 1.374 . S
C1439 H1419 0.950 1_556 S
C1439 C1435 1.385 . S
C1439 C1438 1.374 . S
C1440 C1437 1.499 . S
C1440 C1441 1.373 . S
C1440 C1442 1.389 . S
C1441 H1420 0.950 . S
C1441 C1440 1.373 . S
C1441 C1457 1.377 . S
C1442 C1440 1.389 . S
C1442 C1443 1.524 . S
C1442 C1456 1.377 . S
C1443 C1442 1.524 . S
C1443 C1444 1.397 . S
C1443 C1448 1.363 . S
C1444 H1421 0.950 . S
C1444 C1443 1.397 . S
C1444 C1445 1.334 . S
C1445 H1422 0.951 1_655 S
C1445 C1444 1.334 . S
C1445 C1446 1.287 1_655 S
C1446 C1445 1.287 1_455 S
C1446 C1447 1.524 . S
C1446 H1465 0.913 . S
C1447 H1423 0.950 . S
C1447 C1446 1.524 . S
C1447 C1448 1.415 1_455 S
C1448 H1424 0.950 . S
C1448 C1443 1.363 . S
C1448 C1447 1.415 1_655 S
C1449 H1425 0.951 . S
C1449 C1450 1.366 1_655 S
C1449 C1451 1.388 . S
C1450 C1449 1.366 1_455 S
C1450 C1454 1.385 . S
C1451 H1426 0.951 . S
C1451 C1449 1.388 . S
C1451 C1452 1.366 . S
C1452 C1451 1.366 . S
C1452 C1453 1.414 . S
C1452 C1455 1.499 . S
C1453 H1427 0.950 . S
C1453 C1452 1.414 . S
C1453 C1454 1.374 1_655 S
C1454 H1428 0.950 . S
C1454 C1450 1.385 . S
C1454 C1453 1.374 1_455 S
C1455 C1452 1.499 . S
C1455 C1456 1.373 . S
C1455 C1457 1.389 . S
C1456 H1429 0.950 . S
C1456 C1442 1.377 . S
C1456 C1455 1.373 . S
C1457 C1441 1.377 . S
C1457 C1455 1.389 . S
C1457 C1458 1.524 . S
C1458 C1457 1.524 . S
C1458 C1459 1.397 . S
C1458 C1463 1.363 . S
C1459 H1430 0.950 . S
C1459 C1458 1.397 . S
C1459 C1460 1.334 . S
C1460 H1431 0.950 . S
C1460 C1459 1.334 . S
C1460 C1461 1.287 . S
C1461 C1460 1.287 . S
C1461 C1462 1.524 . S
C1461 H1464 0.999 . S
C1462 H1432 0.950 . S
C1462 C1461 1.524 . S
C1462 C1463 1.415 . S
C1463 H1433 0.950 . S
C1463 C1458 1.363 . S
C1463 C1462 1.415 . S
H1464 C1461 0.999 . S
H1465 C1446 0.913 . S
H1466 C1484 0.951 . S
H1467 C1486 0.951 . S
H1468 C1488 0.950 . S
H1469 C1489 0.950 . S
H1470 C1491 0.950 . S
H1471 C1494 0.950 . S
H1472 C1495 0.950 . S
H1473 C1497 0.950 . S
H1474 C1498 0.950 . S
H1475 C1499 0.951 . S
H1476 C1501 0.951 . S
H1477 C1503 0.950 . S
H1478 C1504 0.950 . S
H1479 C1506 0.976 . S
H1480 C1509 0.950 . S
H1481 C1510 0.950 . S
H1482 C1512 0.950 . S
H1483 C1513 0.950 . S
C1484 H1466 0.951 . S
C1484 C1485 1.366 . S
C1484 C1486 1.388 . S
C1485 C1484 1.366 . S
C1485 C1489 1.385 . S
C1486 H1467 0.951 . S
C1486 C1484 1.388 . S
C1486 C1487 1.366 . S
C1487 C1486 1.366 . S
C1487 C1488 1.414 . S
C1487 C1490 1.499 . S
C1488 H1468 0.950 . S
C1488 C1487 1.414 . S
C1488 C1489 1.374 . S
C1489 H1469 0.950 . S
C1489 C1485 1.385 . S
C1489 C1488 1.374 . S
C1490 C1487 1.499 . S
C1490 C1491 1.373 . S
C1490 C1492 1.389 . S
C1491 H1470 0.950 . S
C1491 C1490 1.373 . S
C1491 C1507 1.377 . S
C1492 C1490 1.389 . S
C1492 C1493 1.524 . S
C1492 C1506 1.377 . S
C1493 C1492 1.524 . S
C1493 C1494 1.397 1_556 S
C1493 C1498 1.363 1_565 S
C1494 H1471 0.950 . S
C1494 C1493 1.397 1_554 S
C1494 C1495 1.334 . S
C1495 H1472 0.950 . S
C1495 C1494 1.334 . S
C1495 C1496 1.227 1_565 S
C1496 C1495 1.227 1_545 S
C1496 C1497 1.564 . S
C1496 H1515 0.937 . S
C1497 H1473 0.950 . S
C1497 C1496 1.564 . S
C1497 C1498 1.415 1_554 S
C1498 H1474 0.950 . S
C1498 C1493 1.363 1_545 S
C1498 C1497 1.415 1_556 S
C1499 H1475 0.951 . S
C1499 C1500 1.366 1_565 S
C1499 C1501 1.388 . S
C1500 C1499 1.366 1_545 S
C1500 C1504 1.385 . S
C1501 H1476 0.951 . S
C1501 C1499 1.388 . S
C1501 C1502 1.366 . S
C1502 C1501 1.366 . S
C1502 C1503 1.414 1_565 S
C1502 C1505 1.499 . S
C1503 H1477 0.950 . S
C1503 C1502 1.414 1_545 S
C1503 C1504 1.374 . S
C1504 H1478 0.950 . S
C1504 C1500 1.385 . S
C1504 C1503 1.374 . S
C1505 C1502 1.499 . S
C1505 C1506 1.373 . S
C1505 C1507 1.389 . S
C1506 H1479 0.976 . S
C1506 C1492 1.377 . S
C1506 C1505 1.373 . S
C1507 C1491 1.377 . S
C1507 C1505 1.389 . S
C1507 C1508 1.524 . S
C1508 C1507 1.524 . S
C1508 C1509 1.397 . S
C1508 C1513 1.363 . S
C1509 H1480 0.950 . S
C1509 C1508 1.397 . S
C1509 C1510 1.334 . S
C1510 H1481 0.950 . S
C1510 C1509 1.334 . S
C1510 C1511 1.287 . S
C1511 C1510 1.287 . S
C1511 C1512 1.524 . S
C1511 H1514 0.999 . S
C1512 H1482 0.950 . S
C1512 C1511 1.524 . S
C1512 C1513 1.415 . S
C1513 H1483 0.950 . S
C1513 C1508 1.363 . S
C1513 C1512 1.415 . S
H1514 C1511 0.999 . S
H1515 C1496 0.937 . S
H1516 C1534 0.951 . S
H1517 C1536 0.951 . S
H1518 C1538 0.950 . S
H1519 C1539 0.950 1_554 S
H1520 C1541 0.950 . S
H1521 C1544 0.950 . S
H1522 C1545 0.950 . S
H1523 C1547 0.950 . S
H1524 C1548 0.950 . S
H1525 C1549 0.951 . S
H1526 C1551 0.951 . S
H1527 C1553 0.950 . S
H1528 C1554 0.950 . S
H1529 C1556 0.950 . S
H1530 C1559 0.950 . S
H1531 C1560 0.950 . S
H1532 C1562 0.950 1_554 S
H1533 C1563 0.950 . S
C1534 H1516 0.951 . S
C1534 C1535 1.366 . S
C1534 C1536 1.388 . S
C1535 C1534 1.366 . S
C1535 C1539 1.385 . S
C1536 H1517 0.951 . S
C1536 C1534 1.388 . S
C1536 C1537 1.366 . S
C1537 C1536 1.366 . S
C1537 C1538 1.414 . S
C1537 C1540 1.499 . S
C1538 H1518 0.950 . S
C1538 C1537 1.414 . S
C1538 C1539 1.374 . S
C1539 H1519 0.950 1_556 S
C1539 C1535 1.385 . S
C1539 C1538 1.374 . S
C1540 C1537 1.499 . S
C1540 C1541 1.373 . S
C1540 C1542 1.389 . S
C1541 H1520 0.950 . S
C1541 C1540 1.373 . S
C1541 C1557 1.377 . S
C1542 C1540 1.389 . S
C1542 C1543 1.524 . S
C1542 C1556 1.377 . S
C1543 C1542 1.524 . S
C1543 C1544 1.397 . S
C1543 C1548 1.363 . S
C1544 H1521 0.950 . S
C1544 C1543 1.397 . S
C1544 C1545 1.334 . S
C1545 H1522 0.950 . S
C1545 C1544 1.334 . S
C1545 C1546 1.287 . S
C1546 C1545 1.287 . S
C1546 C1547 1.524 . S
C1546 H1565 0.913 . S
C1547 H1523 0.950 . S
C1547 C1546 1.524 . S
C1547 C1548 1.415 . S
C1548 H1524 0.950 . S
C1548 C1543 1.363 . S
C1548 C1547 1.415 . S
C1549 H1525 0.951 . S
C1549 C1550 1.366 . S
C1549 C1551 1.388 . S
C1550 C1549 1.366 . S
C1550 C1554 1.385 . S
C1551 H1526 0.951 . S
C1551 C1549 1.388 . S
C1551 C1552 1.366 . S
C1552 C1551 1.366 . S
C1552 C1553 1.414 . S
C1552 C1555 1.499 . S
C1553 H1527 0.950 . S
C1553 C1552 1.414 . S
C1553 C1554 1.374 . S
C1554 H1528 0.950 . S
C1554 C1550 1.385 . S
C1554 C1553 1.374 . S
C1555 C1552 1.499 . S
C1555 C1556 1.373 . S
C1555 C1557 1.389 . S
C1556 H1529 0.950 . S
C1556 C1542 1.377 . S
C1556 C1555 1.373 . S
C1557 C1541 1.377 . S
C1557 C1555 1.389 . S
C1557 C1558 1.524 . S
C1558 C1557 1.524 . S
C1558 C1559 1.397 . S
C1558 C1563 1.363 . S
C1559 H1530 0.950 . S
C1559 C1558 1.397 . S
C1559 C1560 1.334 . S
C1560 H1531 0.950 . S
C1560 C1559 1.334 . S
C1560 C1561 1.287 . S
C1561 C1560 1.287 . S
C1561 C1562 1.524 . S
C1561 H1564 0.999 . S
C1562 H1532 0.950 1_556 S
C1562 C1561 1.524 . S
C1562 C1563 1.415 . S
C1563 H1533 0.950 . S
C1563 C1558 1.363 . S
C1563 C1562 1.415 . S
H1564 C1561 0.999 . S
H1565 C1546 0.913 . S
H1566 C1584 0.951 . S
H1567 C1586 0.951 . S
H1568 C1588 0.950 . S
H1569 C1589 0.950 . S
H1570 C1591 0.950 . S
H1571 C1594 0.950 . S
H1572 C1595 0.950 . S
H1573 C1597 0.950 . S
H1574 C1598 0.950 . S
H1575 C1599 0.951 . S
H1576 C1601 0.951 . S
H1577 C1603 0.950 . S
H1578 C1604 0.950 . S
H1579 C1606 0.950 . S
H1580 C1609 0.950 . S
H1581 C1610 0.950 . S
H1582 C1612 0.950 . S
H1583 C1613 0.950 . S
C1584 H1566 0.951 . S
C1584 C1585 1.366 . S
C1584 C1586 1.388 . S
C1585 C1584 1.366 . S
C1585 C1589 1.385 . S
C1586 H1567 0.951 . S
C1586 C1584 1.388 . S
C1586 C1587 1.366 . S
C1587 C1586 1.366 . S
C1587 C1588 1.414 . S
C1587 C1590 1.499 . S
C1588 H1568 0.950 . S
C1588 C1587 1.414 . S
C1588 C1589 1.374 . S
C1589 H1569 0.950 . S
C1589 C1585 1.385 . S
C1589 C1588 1.374 . S
C1590 C1587 1.499 . S
C1590 C1591 1.373 . S
C1590 C1592 1.389 . S
C1591 H1570 0.950 . S
C1591 C1590 1.373 . S
C1591 C1607 1.377 . S
C1592 C1590 1.389 . S
C1592 C1593 1.524 . S
C1592 C1606 1.377 . S
C1593 C1592 1.524 . S
C1593 C1594 1.397 . S
C1593 C1598 1.363 . S
C1594 H1571 0.950 . S
C1594 C1593 1.397 . S
C1594 C1595 1.334 . S
C1595 H1572 0.950 . S
C1595 C1594 1.334 . S
C1595 C1596 1.287 . S
C1596 C1595 1.287 . S
C1596 C1597 1.524 . S
C1596 H1615 0.913 . S
C1597 H1573 0.950 . S
C1597 C1596 1.524 . S
C1597 C1598 1.415 . S
C1598 H1574 0.950 . S
C1598 C1593 1.363 . S
C1598 C1597 1.415 . S
C1599 H1575 0.951 . S
C1599 C1600 1.366 . S
C1599 C1601 1.388 . S
C1600 C1599 1.366 . S
C1600 C1604 1.385 . S
C1601 H1576 0.951 . S
C1601 C1599 1.388 . S
C1601 C1602 1.366 . S
C1602 C1601 1.366 . S
C1602 C1603 1.414 . S
C1602 C1605 1.499 . S
C1603 H1577 0.950 . S
C1603 C1602 1.414 . S
C1603 C1604 1.374 . S
C1604 H1578 0.950 . S
C1604 C1600 1.385 . S
C1604 C1603 1.374 . S
C1605 C1602 1.499 . S
C1605 C1606 1.373 . S
C1605 C1607 1.389 . S
C1606 H1579 0.950 . S
C1606 C1592 1.377 . S
C1606 C1605 1.373 . S
C1607 C1591 1.377 . S
C1607 C1605 1.389 . S
C1607 C1608 1.524 . S
C1608 C1607 1.524 . S
C1608 C1609 1.397 . S
C1608 C1613 1.363 . S
C1609 H1580 0.950 . S
C1609 C1608 1.397 . S
C1609 C1610 1.334 . S
C1610 H1581 0.950 . S
C1610 C1609 1.334 . S
C1610 C1611 1.287 . S
C1611 C1610 1.287 . S
C1611 C1612 1.524 . S
C1611 H1614 0.999 . S
C1612 H1582 0.950 . S
C1612 C1611 1.524 . S
C1612 C1613 1.415 . S
C1613 H1583 0.950 . S
C1613 C1608 1.363 . S
C1613 C1612 1.415 . S
H1614 C1611 0.999 . S
H1615 C1596 0.913 . S
H1616 C1634 0.951 . S
H1617 C1636 0.951 . S
H1618 C1638 0.950 . S
H1619 C1639 0.950 . S
H1620 C1641 0.950 . S
H1621 C1644 0.950 . S
H1622 C1645 0.950 . S
H1623 C1647 0.950 . S
H1624 C1648 0.950 . S
H1625 C1649 0.951 . S
H1626 C1651 0.951 . S
H1627 C1653 0.950 . S
H1628 C1654 0.950 . S
H1629 C1656 0.950 . S
H1630 C1659 0.950 . S
H1631 C1660 0.950 . S
H1632 C1662 0.950 . S
H1633 C1663 0.950 1_455 S
C1634 H1616 0.951 . S
C1634 C1635 1.366 . S
C1634 C1636 1.388 . S
C1635 C1634 1.366 . S
C1635 C1639 1.385 . S
C1636 H1617 0.951 . S
C1636 C1634 1.388 . S
C1636 C1637 1.366 . S
C1637 C1636 1.366 . S
C1637 C1638 1.414 . S
C1637 C1640 1.499 . S
C1638 H1618 0.950 . S
C1638 C1637 1.414 . S
C1638 C1639 1.374 . S
C1639 H1619 0.950 . S
C1639 C1635 1.385 . S
C1639 C1638 1.374 . S
C1640 C1637 1.499 . S
C1640 C1641 1.373 . S
C1640 C1642 1.389 . S
C1641 H1620 0.950 . S
C1641 C1640 1.373 . S
C1641 C1657 1.377 . S
C1642 C1640 1.389 . S
C1642 C1643 1.524 . S
C1642 C1656 1.377 . S
C1643 C1642 1.524 . S
C1643 C1644 1.397 . S
C1643 C1648 1.363 . S
C1644 H1621 0.950 . S
C1644 C1643 1.397 . S
C1644 C1645 1.334 . S
C1645 H1622 0.950 . S
C1645 C1644 1.334 . S
C1645 C1646 1.287 . S
C1646 C1645 1.287 . S
C1646 C1647 1.524 . S
C1646 H1665 0.913 . S
C1647 H1623 0.950 . S
C1647 C1646 1.524 . S
C1647 C1648 1.415 . S
C1648 H1624 0.950 . S
C1648 C1643 1.363 . S
C1648 C1647 1.415 . S
C1649 H1625 0.951 . S
C1649 C1650 1.366 . S
C1649 C1651 1.388 . S
C1650 C1649 1.366 . S
C1650 C1654 1.385 . S
C1651 H1626 0.951 . S
C1651 C1649 1.388 . S
C1651 C1652 1.366 . S
C1652 C1651 1.366 . S
C1652 C1653 1.414 . S
C1652 C1655 1.499 . S
C1653 H1627 0.950 . S
C1653 C1652 1.414 . S
C1653 C1654 1.374 . S
C1654 H1628 0.950 . S
C1654 C1650 1.385 . S
C1654 C1653 1.374 . S
C1655 C1652 1.499 . S
C1655 C1656 1.373 . S
C1655 C1657 1.389 . S
C1656 H1629 0.950 . S
C1656 C1642 1.377 . S
C1656 C1655 1.373 . S
C1657 C1641 1.377 . S
C1657 C1655 1.389 . S
C1657 C1658 1.524 . S
C1658 C1657 1.524 . S
C1658 C1659 1.397 . S
C1658 C1663 1.363 1_455 S
C1659 H1630 0.950 . S
C1659 C1658 1.397 . S
C1659 C1660 1.334 1_455 S
C1660 H1631 0.950 . S
C1660 C1659 1.334 1_655 S
C1660 C1661 1.287 . S
C1661 C1660 1.287 . S
C1661 C1662 1.524 . S
C1661 H1664 0.999 . S
C1662 H1632 0.950 . S
C1662 C1661 1.524 . S
C1662 C1663 1.415 . S
C1663 H1633 0.950 1_655 S
C1663 C1658 1.363 1_655 S
C1663 C1662 1.415 . S
H1664 C1661 0.999 . S
H1665 C1646 0.913 . S
H1666 C1684 0.951 . S
H1667 C1686 0.951 . S
H1668 C1688 0.950 . S
H1669 C1689 0.950 . S
H1670 C1691 0.950 . S
H1671 C1694 0.950 . S
H1672 C1695 0.950 . S
H1673 C1697 0.950 . S
H1674 C1698 0.950 . S
H1675 C1699 0.951 . S
H1676 C1701 0.951 . S
H1677 C1703 0.950 . S
H1678 C1704 0.950 . S
H1679 C1706 0.950 . S
H1680 C1709 0.950 . S
H1681 C1710 0.950 . S
H1682 C1712 0.950 . S
H1683 C1713 0.950 . S
C1684 H1666 0.951 . S
C1684 C1685 1.366 . S
C1684 C1686 1.388 . S
C1685 C1684 1.366 . S
C1685 C1689 1.385 . S
C1686 H1667 0.951 . S
C1686 C1684 1.388 . S
C1686 C1687 1.366 . S
C1687 C1686 1.366 . S
C1687 C1688 1.414 . S
C1687 C1690 1.499 . S
C1688 H1668 0.950 . S
C1688 C1687 1.414 . S
C1688 C1689 1.374 . S
C1689 H1669 0.950 . S
C1689 C1685 1.385 . S
C1689 C1688 1.374 . S
C1690 C1687 1.499 . S
C1690 C1691 1.373 . S
C1690 C1692 1.389 . S
C1691 H1670 0.950 . S
C1691 C1690 1.373 . S
C1691 C1707 1.377 . S
C1692 C1690 1.389 . S
C1692 C1693 1.524 . S
C1692 C1706 1.377 . S
C1693 C1692 1.524 . S
C1693 C1694 1.397 . S
C1693 C1698 1.363 . S
C1694 H1671 0.950 . S
C1694 C1693 1.397 . S
C1694 C1695 1.334 . S
C1695 H1672 0.950 . S
C1695 C1694 1.334 . S
C1695 C1696 1.287 . S
C1696 C1695 1.287 . S
C1696 C1697 1.524 . S
C1696 H1715 0.913 . S
C1697 H1673 0.950 . S
C1697 C1696 1.524 . S
C1697 C1698 1.415 . S
C1698 H1674 0.950 . S
C1698 C1693 1.363 . S
C1698 C1697 1.415 . S
C1699 H1675 0.951 . S
C1699 C1700 1.366 . S
C1699 C1701 1.388 . S
C1700 C1699 1.366 . S
C1700 C1704 1.385 . S
C1701 H1676 0.951 . S
C1701 C1699 1.388 . S
C1701 C1702 1.366 . S
C1702 C1701 1.366 . S
C1702 C1703 1.414 . S
C1702 C1705 1.499 . S
C1703 H1677 0.950 . S
C1703 C1702 1.414 . S
C1703 C1704 1.374 . S
C1704 H1678 0.950 . S
C1704 C1700 1.385 . S
C1704 C1703 1.374 . S
C1705 C1702 1.499 . S
C1705 C1706 1.373 . S
C1705 C1707 1.389 . S
C1706 H1679 0.950 . S
C1706 C1692 1.377 . S
C1706 C1705 1.373 . S
C1707 C1691 1.377 . S
C1707 C1705 1.389 . S
C1707 C1708 1.524 . S
C1708 C1707 1.524 . S
C1708 C1709 1.397 . S
C1708 C1713 1.363 1_545 S
C1709 H1680 0.950 . S
C1709 C1708 1.397 . S
C1709 C1710 1.334 1_545 S
C1710 H1681 0.950 . S
C1710 C1709 1.334 1_565 S
C1710 C1711 1.287 . S
C1711 C1710 1.287 . S
C1711 C1712 1.524 . S
C1711 H1714 0.999 . S
C1712 H1682 0.950 . S
C1712 C1711 1.524 . S
C1712 C1713 1.415 . S
C1713 H1683 0.950 . S
C1713 C1708 1.363 1_565 S
C1713 C1712 1.415 . S
H1714 C1711 0.999 . S
H1715 C1696 0.913 . S
H1716 C1734 0.951 . S
H1717 C1736 0.951 . S
H1718 C1738 0.950 . S
H1719 C1739 0.950 . S
H1720 C1741 0.950 . S
H1721 C1744 0.950 . S
H1722 C1745 0.950 . S
H1723 C1747 0.950 . S
H1724 C1748 0.950 . S
H1725 C1749 0.951 . S
H1726 C1751 0.951 . S
H1727 C1753 0.950 . S
H1728 C1754 0.950 . S
H1729 C1756 0.950 . S
H1730 C1759 0.950 . S
H1731 C1760 0.950 . S
H1732 C1762 0.950 . S
H1733 C1763 0.950 . S
C1734 H1716 0.951 . S
C1734 C1735 1.366 . S
C1734 C1736 1.388 . S
C1735 C1734 1.366 . S
C1735 C1739 1.385 . S
C1736 H1717 0.951 . S
C1736 C1734 1.388 . S
C1736 C1737 1.366 . S
C1737 C1736 1.366 . S
C1737 C1738 1.414 . S
C1737 C1740 1.499 . S
C1738 H1718 0.950 . S
C1738 C1737 1.414 . S
C1738 C1739 1.374 . S
C1739 H1719 0.950 . S
C1739 C1735 1.385 . S
C1739 C1738 1.374 . S
C1740 C1737 1.499 . S
C1740 C1741 1.373 . S
C1740 C1742 1.389 . S
C1741 H1720 0.950 . S
C1741 C1740 1.373 . S
C1741 C1757 1.377 . S
C1742 C1740 1.389 . S
C1742 C1743 1.524 . S
C1742 C1756 1.377 . S
C1743 C1742 1.524 . S
C1743 C1744 1.397 . S
C1743 C1748 1.363 . S
C1744 H1721 0.950 . S
C1744 C1743 1.397 . S
C1744 C1745 1.334 . S
C1745 H1722 0.950 . S
C1745 C1744 1.334 . S
C1745 C1746 1.287 . S
C1746 C1745 1.287 . S
C1746 C1747 1.524 . S
C1746 H1765 0.913 . S
C1747 H1723 0.950 . S
C1747 C1746 1.524 . S
C1747 C1748 1.415 . S
C1748 H1724 0.950 . S
C1748 C1743 1.363 . S
C1748 C1747 1.415 . S
C1749 H1725 0.951 . S
C1749 C1750 1.366 . S
C1749 C1751 1.388 . S
C1750 C1749 1.366 . S
C1750 C1754 1.385 . S
C1751 H1726 0.951 . S
C1751 C1749 1.388 . S
C1751 C1752 1.366 . S
C1752 C1751 1.366 . S
C1752 C1753 1.414 . S
C1752 C1755 1.499 . S
C1753 H1727 0.950 . S
C1753 C1752 1.414 . S
C1753 C1754 1.374 . S
C1754 H1728 0.950 . S
C1754 C1750 1.385 . S
C1754 C1753 1.374 . S
C1755 C1752 1.499 . S
C1755 C1756 1.373 . S
C1755 C1757 1.389 . S
C1756 H1729 0.950 . S
C1756 C1742 1.377 . S
C1756 C1755 1.373 . S
C1757 C1741 1.377 . S
C1757 C1755 1.389 . S
C1757 C1758 1.524 . S
C1758 C1757 1.524 . S
C1758 C1759 1.397 . S
C1758 C1763 1.363 . S
C1759 H1730 0.950 . S
C1759 C1758 1.397 . S
C1759 C1760 1.334 . S
C1760 H1731 0.950 . S
C1760 C1759 1.334 . S
C1760 C1761 1.287 . S
C1761 C1760 1.287 . S
C1761 C1762 1.524 . S
C1761 H1764 0.999 . S
C1762 H1732 0.950 . S
C1762 C1761 1.524 . S
C1762 C1763 1.415 . S
C1763 H1733 0.950 . S
C1763 C1758 1.363 . S
C1763 C1762 1.415 . S
H1764 C1761 0.999 . S
H1765 C1746 0.913 . S
H1766 C1784 0.951 . S
H1767 C1786 0.951 . S
H1768 C1788 0.950 . S
H1769 C1789 0.950 . S
H1770 C1791 0.950 . S
H1771 C1794 0.950 . S
H1772 C1795 0.950 . S
H1773 C1797 0.950 . S
H1774 C1798 0.950 . S
H1775 C1799 0.951 . S
H1776 C1801 0.951 . S
H1777 C1803 0.950 . S
H1778 C1804 0.950 . S
H1779 C1806 0.950 . S
H1780 C1809 0.950 . S
H1781 C1810 0.950 . S
H1782 C1812 0.950 . S
H1783 C1813 0.950 . S
C1784 H1766 0.951 . S
C1784 C1785 1.366 . S
C1784 C1786 1.388 . S
C1785 C1784 1.366 . S
C1785 C1789 1.385 . S
C1786 H1767 0.951 . S
C1786 C1784 1.388 . S
C1786 C1787 1.366 . S
C1787 C1786 1.366 . S
C1787 C1788 1.414 . S
C1787 C1790 1.499 . S
C1788 H1768 0.950 . S
C1788 C1787 1.414 . S
C1788 C1789 1.374 . S
C1789 H1769 0.950 . S
C1789 C1785 1.385 . S
C1789 C1788 1.374 . S
C1790 C1787 1.499 . S
C1790 C1791 1.373 . S
C1790 C1792 1.389 . S
C1791 H1770 0.950 . S
C1791 C1790 1.373 . S
C1791 C1807 1.377 . S
C1792 C1790 1.389 . S
C1792 C1793 1.524 . S
C1792 C1806 1.377 . S
C1793 C1792 1.524 . S
C1793 C1794 1.397 . S
C1793 C1798 1.363 . S
C1794 H1771 0.950 . S
C1794 C1793 1.397 . S
C1794 C1795 1.334 . S
C1795 H1772 0.950 . S
C1795 C1794 1.334 . S
C1795 C1796 1.287 . S
C1796 C1795 1.287 . S
C1796 C1797 1.524 . S
C1796 H1815 0.913 . S
C1797 H1773 0.950 . S
C1797 C1796 1.524 . S
C1797 C1798 1.415 . S
C1798 H1774 0.950 . S
C1798 C1793 1.363 . S
C1798 C1797 1.415 . S
C1799 H1775 0.951 . S
C1799 C1800 1.366 . S
C1799 C1801 1.388 . S
C1800 C1799 1.366 . S
C1800 C1804 1.385 . S
C1801 H1776 0.951 . S
C1801 C1799 1.388 . S
C1801 C1802 1.366 . S
C1802 C1801 1.366 . S
C1802 C1803 1.414 . S
C1802 C1805 1.499 . S
C1803 H1777 0.950 . S
C1803 C1802 1.414 . S
C1803 C1804 1.374 . S
C1804 H1778 0.950 . S
C1804 C1800 1.385 . S
C1804 C1803 1.374 . S
C1805 C1802 1.499 . S
C1805 C1806 1.373 . S
C1805 C1807 1.389 . S
C1806 H1779 0.950 . S
C1806 C1792 1.377 . S
C1806 C1805 1.373 . S
C1807 C1791 1.377 . S
C1807 C1805 1.389 . S
C1807 C1808 1.524 . S
C1808 C1807 1.524 . S
C1808 C1809 1.397 . S
C1808 C1813 1.363 . S
C1809 H1780 0.950 . S
C1809 C1808 1.397 . S
C1809 C1810 1.334 . S
C1810 H1781 0.950 . S
C1810 C1809 1.334 . S
C1810 C1811 1.287 . S
C1811 C1810 1.287 . S
C1811 C1812 1.524 . S
C1811 H1814 0.999 . S
C1812 H1782 0.950 . S
C1812 C1811 1.524 . S
C1812 C1813 1.415 . S
C1813 H1783 0.950 . S
C1813 C1808 1.363 . S
C1813 C1812 1.415 . S
H1814 C1811 0.999 . S
H1815 C1796 0.913 . S
H1816 C1834 0.951 . S
H1817 C1836 0.951 . S
H1818 C1838 0.950 . S
H1819 C1839 0.950 . S
H1820 C1841 0.950 . S
H1821 C1844 0.950 . S
H1822 C1845 0.950 . S
H1823 C1847 0.950 . S
H1824 C1848 0.950 . S
H1825 C1849 0.951 . S
H1826 C1851 0.951 . S
H1827 C1853 0.950 . S
H1828 C1854 0.950 . S
H1829 C1856 0.950 . S
H1830 C1859 0.950 1_455 S
H1831 C1860 0.950 . S
H1832 C1862 0.950 . S
H1833 C1863 0.950 . S
C1834 H1816 0.951 . S
C1834 C1835 1.366 . S
C1834 C1836 1.388 . S
C1835 C1834 1.366 . S
C1835 C1839 1.385 . S
C1836 H1817 0.951 . S
C1836 C1834 1.388 . S
C1836 C1837 1.366 . S
C1837 C1836 1.366 . S
C1837 C1838 1.414 . S
C1837 C1840 1.499 . S
C1838 H1818 0.950 . S
C1838 C1837 1.414 . S
C1838 C1839 1.374 . S
C1839 H1819 0.950 . S
C1839 C1835 1.385 . S
C1839 C1838 1.374 . S
C1840 C1837 1.499 . S
C1840 C1841 1.373 . S
C1840 C1842 1.389 . S
C1841 H1820 0.950 . S
C1841 C1840 1.373 . S
C1841 C1857 1.377 . S
C1842 C1840 1.389 . S
C1842 C1843 1.524 . S
C1842 C1856 1.377 . S
C1843 C1842 1.524 . S
C1843 C1844 1.397 . S
C1843 C1848 1.363 . S
C1844 H1821 0.950 . S
C1844 C1843 1.397 . S
C1844 C1845 1.334 . S
C1845 H1822 0.950 . S
C1845 C1844 1.334 . S
C1845 C1846 1.287 . S
C1846 C1845 1.287 . S
C1846 C1847 1.524 . S
C1846 H1865 0.913 . S
C1847 H1823 0.950 . S
C1847 C1846 1.524 . S
C1847 C1848 1.415 . S
C1848 H1824 0.950 . S
C1848 C1843 1.363 . S
C1848 C1847 1.415 . S
C1849 H1825 0.951 . S
C1849 C1850 1.366 . S
C1849 C1851 1.388 . S
C1850 C1849 1.366 . S
C1850 C1854 1.385 . S
C1851 H1826 0.951 . S
C1851 C1849 1.388 . S
C1851 C1852 1.366 . S
C1852 C1851 1.366 . S
C1852 C1853 1.414 . S
C1852 C1855 1.499 . S
C1853 H1827 0.950 . S
C1853 C1852 1.414 . S
C1853 C1854 1.374 . S
C1854 H1828 0.950 . S
C1854 C1850 1.385 . S
C1854 C1853 1.374 . S
C1855 C1852 1.499 . S
C1855 C1856 1.373 . S
C1855 C1857 1.389 . S
C1856 H1829 0.950 . S
C1856 C1842 1.377 . S
C1856 C1855 1.373 . S
C1857 C1841 1.377 . S
C1857 C1855 1.389 . S
C1857 C1858 1.524 . S
C1858 C1857 1.524 . S
C1858 C1859 1.397 . S
C1858 C1863 1.363 . S
C1859 H1830 0.950 1_655 S
C1859 C1858 1.397 . S
C1859 C1860 1.334 1_655 S
C1860 H1831 0.950 . S
C1860 C1859 1.334 1_455 S
C1860 C1861 1.287 . S
C1861 C1860 1.287 . S
C1861 C1862 1.524 1_455 S
C1861 H1864 0.999 . S
C1862 H1832 0.950 . S
C1862 C1861 1.524 1_655 S
C1862 C1863 1.415 . S
C1863 H1833 0.950 . S
C1863 C1858 1.363 . S
C1863 C1862 1.415 . S
H1864 C1861 0.999 . S
H1865 C1846 0.913 . S
H1866 C1884 0.951 . S
H1867 C1886 0.951 . S
H1868 C1888 0.950 . S
H1869 C1889 0.950 . S
H1870 C1891 0.950 . S
H1871 C1894 0.950 . S
H1872 C1895 0.950 . S
H1873 C1897 0.950 . S
H1874 C1898 0.950 . S
H1875 C1899 0.951 1_545 S
H1876 C1901 0.963 . S
H1877 C1903 0.950 . S
H1878 C1904 0.950 . S
H1879 C1906 0.950 . S
H1880 C1909 0.950 . S
H1881 C1910 0.950 . S
H1882 C1912 0.992 . S
H1883 C1913 0.949 1_545 S
C1884 H1866 0.951 . S
C1884 C1885 1.366 . S
C1884 C1886 1.388 . S
C1885 C1884 1.366 . S
C1885 C1889 1.385 . S
C1886 H1867 0.951 . S
C1886 C1884 1.388 . S
C1886 C1887 1.366 . S
C1887 C1886 1.366 . S
C1887 C1888 1.414 . S
C1887 C1890 1.499 . S
C1888 H1868 0.950 . S
C1888 C1887 1.414 . S
C1888 C1889 1.374 . S
C1889 H1869 0.950 . S
C1889 C1885 1.385 . S
C1889 C1888 1.374 . S
C1890 C1887 1.499 . S
C1890 C1891 1.373 . S
C1890 C1892 1.389 . S
C1891 H1870 0.950 . S
C1891 C1890 1.373 . S
C1891 C1907 1.377 . S
C1892 C1890 1.389 . S
C1892 C1893 1.524 . S
C1892 C1906 1.377 . S
C1893 C1892 1.524 . S
C1893 C1894 1.397 . S
C1893 C1898 1.363 . S
C1894 H1871 0.950 . S
C1894 C1893 1.397 . S
C1894 C1895 1.334 . S
C1895 H1872 0.950 . S
C1895 C1894 1.334 . S
C1895 C1896 1.287 . S
C1896 C1895 1.287 . S
C1896 C1897 1.524 . S
C1896 H1915 0.913 . S
C1897 H1873 0.950 . S
C1897 C1896 1.524 . S
C1897 C1898 1.415 . S
C1898 H1874 0.950 . S
C1898 C1893 1.363 . S
C1898 C1897 1.415 . S
C1899 H1875 0.951 1_565 S
C1899 C1900 1.366 . S
C1899 C1901 1.388 . S
C1900 C1899 1.366 . S
C1900 C1904 1.385 . S
C1901 H1876 0.963 . S
C1901 C1899 1.388 . S
C1901 C1902 1.366 . S
C1902 C1901 1.366 . S
C1902 C1903 1.414 . S
C1902 C1905 1.499 . S
C1903 H1877 0.950 . S
C1903 C1902 1.414 . S
C1903 C1904 1.374 . S
C1904 H1878 0.950 . S
C1904 C1900 1.385 . S
C1904 C1903 1.374 . S
C1905 C1902 1.499 . S
C1905 C1906 1.373 . S
C1905 C1907 1.389 . S
C1906 H1879 0.950 . S
C1906 C1892 1.377 . S
C1906 C1905 1.373 . S
C1907 C1891 1.377 . S
C1907 C1905 1.389 . S
C1907 C1908 1.524 . S
C1908 C1907 1.524 . S
C1908 C1909 1.397 . S
C1908 C1913 1.363 . S
C1909 H1880 0.950 . S
C1909 C1908 1.397 . S
C1909 C1910 1.334 . S
C1910 H1881 0.950 . S
C1910 C1909 1.334 . S
C1910 C1911 1.287 . S
C1911 C1910 1.287 . S
C1911 C1912 1.495 1_565 S
C1911 H1914 0.999 . S
C1912 H1882 0.992 . S
C1912 C1911 1.495 1_545 S
C1912 C1913 1.398 1_545 S
C1913 H1883 0.949 1_565 S
C1913 C1908 1.363 . S
C1913 C1912 1.398 1_565 S
H1914 C1911 0.999 . S
H1915 C1896 0.913 . S
H1916 C1934 0.951 . S
H1917 C1936 0.951 . S
H1918 C1938 0.950 . S
H1919 C1939 0.950 . S
H1920 C1941 0.950 . S
H1921 C1944 0.950 . S
H1922 C1945 0.950 . S
H1923 C1947 0.950 . S
H1924 C1948 0.950 . S
H1925 C1949 0.951 . S
H1926 C1951 0.951 . S
H1927 C1953 0.950 . S
H1928 C1954 0.950 . S
H1929 C1956 0.950 . S
H1930 C1959 0.950 . S
H1931 C1960 0.950 . S
H1932 C1962 0.950 . S
H1933 C1963 0.950 . S
C1934 H1916 0.951 . S
C1934 C1935 1.366 . S
C1934 C1936 1.388 . S
C1935 C1934 1.366 . S
C1935 C1939 1.385 . S
C1936 H1917 0.951 . S
C1936 C1934 1.388 . S
C1936 C1937 1.366 . S
C1937 C1936 1.366 . S
C1937 C1938 1.414 . S
C1937 C1940 1.499 . S
C1938 H1918 0.950 . S
C1938 C1937 1.414 . S
C1938 C1939 1.374 . S
C1939 H1919 0.950 . S
C1939 C1935 1.385 . S
C1939 C1938 1.374 . S
C1940 C1937 1.499 . S
C1940 C1941 1.373 . S
C1940 C1942 1.389 . S
C1941 H1920 0.950 . S
C1941 C1940 1.373 . S
C1941 C1957 1.377 . S
C1942 C1940 1.389 . S
C1942 C1943 1.524 . S
C1942 C1956 1.377 . S
C1943 C1942 1.524 . S
C1943 C1944 1.397 . S
C1943 C1948 1.363 . S
C1944 H1921 0.950 . S
C1944 C1943 1.397 . S
C1944 C1945 1.334 . S
C1945 H1922 0.950 . S
C1945 C1944 1.334 . S
C1945 C1946 1.287 . S
C1946 C1945 1.287 . S
C1946 C1947 1.524 . S
C1946 H1965 0.913 . S
C1947 H1923 0.950 . S
C1947 C1946 1.524 . S
C1947 C1948 1.415 . S
C1948 H1924 0.950 . S
C1948 C1943 1.363 . S
C1948 C1947 1.415 . S
C1949 H1925 0.951 . S
C1949 C1950 1.366 . S
C1949 C1951 1.388 . S
C1950 C1949 1.366 . S
C1950 C1954 1.385 . S
C1951 H1926 0.951 . S
C1951 C1949 1.388 . S
C1951 C1952 1.366 . S
C1952 C1951 1.366 . S
C1952 C1953 1.414 . S
C1952 C1955 1.499 . S
C1953 H1927 0.950 . S
C1953 C1952 1.414 . S
C1953 C1954 1.374 . S
C1954 H1928 0.950 . S
C1954 C1950 1.385 . S
C1954 C1953 1.374 . S
C1955 C1952 1.499 . S
C1955 C1956 1.373 . S
C1955 C1957 1.389 . S
C1956 H1929 0.950 . S
C1956 C1942 1.377 . S
C1956 C1955 1.373 . S
C1957 C1941 1.377 . S
C1957 C1955 1.389 . S
C1957 C1958 1.524 . S
C1958 C1957 1.524 . S
C1958 C1959 1.397 . S
C1958 C1963 1.363 . S
C1959 H1930 0.950 . S
C1959 C1958 1.397 . S
C1959 C1960 1.334 . S
C1960 H1931 0.950 . S
C1960 C1959 1.334 . S
C1960 C1961 1.287 . S
C1961 C1960 1.287 . S
C1961 C1962 1.524 . S
C1961 H1964 0.999 . S
C1962 H1932 0.950 . S
C1962 C1961 1.524 . S
C1962 C1963 1.415 . S
C1963 H1933 0.950 . S
C1963 C1958 1.363 . S
C1963 C1962 1.415 . S
H1964 C1961 0.999 . S
H1965 C1946 0.913 . S
H1966 C1984 0.951 . S
H1967 C1986 0.951 . S
H1968 C1988 0.950 . S
H1969 C1989 0.950 . S
H1970 C1991 0.950 . S
H1971 C1994 0.950 . S
H1972 C1995 0.950 . S
H1973 C1997 0.950 . S
H1974 C1998 0.950 . S
H1975 C1999 0.951 . S
H1976 C2001 0.951 . S
H1977 C2003 0.950 . S
H1978 C2004 0.950 . S
H1979 C2006 0.950 . S
H1980 C2009 0.950 . S
H1981 C2010 0.950 . S
H1982 C2012 0.950 . S
H1983 C2013 0.950 . S
C1984 H1966 0.951 . S
C1984 C1985 1.366 . S
C1984 C1986 1.388 . S
C1985 C1984 1.366 . S
C1985 C1989 1.385 . S
C1986 H1967 0.951 . S
C1986 C1984 1.388 . S
C1986 C1987 1.366 . S
C1987 C1986 1.366 . S
C1987 C1988 1.414 . S
C1987 C1990 1.499 . S
C1988 H1968 0.950 . S
C1988 C1987 1.414 . S
C1988 C1989 1.374 . S
C1989 H1969 0.950 . S
C1989 C1985 1.385 . S
C1989 C1988 1.374 . S
C1990 C1987 1.499 . S
C1990 C1991 1.373 . S
C1990 C1992 1.389 . S
C1991 H1970 0.950 . S
C1991 C1990 1.373 . S
C1991 C2007 1.377 . S
C1992 C1990 1.389 . S
C1992 C1993 1.524 . S
C1992 C2006 1.377 . S
C1993 C1992 1.524 . S
C1993 C1994 1.397 . S
C1993 C1998 1.363 . S
C1994 H1971 0.950 . S
C1994 C1993 1.397 . S
C1994 C1995 1.334 . S
C1995 H1972 0.950 . S
C1995 C1994 1.334 . S
C1995 C1996 1.287 . S
C1996 C1995 1.287 . S
C1996 C1997 1.524 . S
C1996 H2015 0.913 . S
C1997 H1973 0.950 . S
C1997 C1996 1.524 . S
C1997 C1998 1.415 . S
C1998 H1974 0.950 . S
C1998 C1993 1.363 . S
C1998 C1997 1.415 . S
C1999 H1975 0.951 . S
C1999 C2000 1.366 . S
C1999 C2001 1.388 . S
C2000 C1999 1.366 . S
C2000 C2004 1.385 . S
C2001 H1976 0.951 . S
C2001 C1999 1.388 . S
C2001 C2002 1.366 . S
C2002 C2001 1.366 . S
C2002 C2003 1.414 . S
C2002 C2005 1.499 . S
C2003 H1977 0.950 . S
C2003 C2002 1.414 . S
C2003 C2004 1.374 . S
C2004 H1978 0.950 . S
C2004 C2000 1.385 . S
C2004 C2003 1.374 . S
C2005 C2002 1.499 . S
C2005 C2006 1.373 . S
C2005 C2007 1.389 . S
C2006 H1979 0.950 . S
C2006 C1992 1.377 . S
C2006 C2005 1.373 . S
C2007 C1991 1.377 . S
C2007 C2005 1.389 . S
C2007 C2008 1.524 . S
C2008 C2007 1.524 . S
C2008 C2009 1.397 . S
C2008 C2013 1.363 . S
C2009 H1980 0.950 . S
C2009 C2008 1.397 . S
C2009 C2010 1.334 . S
C2010 H1981 0.950 . S
C2010 C2009 1.334 . S
C2010 C2011 1.287 . S
C2011 C2010 1.287 . S
C2011 C2012 1.524 . S
C2011 H2014 0.999 . S
C2012 H1982 0.950 . S
C2012 C2011 1.524 . S
C2012 C2013 1.415 . S
C2013 H1983 0.950 . S
C2013 C2008 1.363 . S
C2013 C2012 1.415 . S
H2014 C2011 0.999 . S
H2015 C1996 0.913 . S
C835 C391 2.157 . S
C850 C555 2.108 . S
C900 C639 2.144 . S
C885 C451 2.189 . S
C950 C715 2.107 . S
C935 C241 2.047 . S
C1000 C799 2.083 . S
C985 C331 2.023 . S
C1050 C546 2.109 1_565 S
C1035 C121 1.951 . S
C1085 C211 2.128 . S
C1100 C630 2.143 . S
C1135 C31 2.258 . S
C1150 C704 2.108 . S
C1185 C91 2.090 . S
C1200 C788 2.082 . S
C1250 C543 0.424 1_455 S
C1235 C301 0.578 . S
C1300 C627 0.401 1_545 S
C1285 C380 0.317 . S
C1350 C720 0.445 . S
C1335 C440 0.290 . S
C1385 C260 0.595 . S
C1400 C804 0.450 . S
C1435 C61 0.471 . S
C1450 C552 0.422 . S
C1500 C636 0.398 . S
C1485 C140 0.446 . S
C1550 C711 0.446 . S
C1535 C200 0.480 . S
C1585 C20 0.493 . S
C1600 C795 0.453 . S
C1635 C320 2.677 . S
C1650 C536 2.696 . S
C1685 C361 2.379 . S
C1700 C620 2.650 . S
C1750 C714 2.657 . S
C1735 C421 2.260 . S
C1800 C798 2.696 . S
C1785 C271 2.538 . S
C1835 C80 2.734 . S
C1850 C547 2.696 . S
C1900 C631 2.650 . S
C1885 C151 2.687 . S
C1950 C723 2.656 . S
C1935 C181 2.194 . S
C1985 C1 2.229 . S
C2000 C807 2.696 . S
