# Generated by pormake.
# Topology apo, (3,6)-cn, num edge types: 1
# Building blocks:
#     Node 0, Type 0, BuildingBlock: QEWDON_clean_linker_0, # of connection points: 3
#     Node 1, Type 0, BuildingBlock: QEWDON_clean_linker_0, # of connection points: 3
#     Node 2, Type 0, BuildingBlock: QEWDON_clean_linker_0, # of connection points: 3
#     Node 3, Type 0, BuildingBlock: QEWDON_clean_linker_0, # of connection points: 3
#     Node 4, Type 0, BuildingBlock: QEWDON_clean_linker_0, # of connection points: 3
#     Node 5, Type 0, BuildingBlock: QEWDON_clean_linker_0, # of connection points: 3
#     Node 6, Type 0, BuildingBlock: QEWDON_clean_linker_0, # of connection points: 3
#     Node 7, Type 0, BuildingBlock: QEWDON_clean_linker_0, # of connection points: 3
#     Node 8, Type 1, BuildingBlock: KUMJIN_clean_sbu_1, # of connection points: 6
#     Node 9, Type 1, BuildingBlock: KUMJIN_clean_sbu_1, # of connection points: 6
#     Node 10, Type 1, BuildingBlock: KUMJIN_clean_sbu_1, # of connection points: 6
#     Node 11, Type 1, BuildingBlock: KUMJIN_clean_sbu_1, # of connection points: 6
#     Edge 12, Type (0, 1), BuildingBlock: ZUJKAS_clean_linker_0, # of connection points: 2
#     Edge 13, Type (0, 1), BuildingBlock: ZUJKAS_clean_linker_0, # of connection points: 2
#     Edge 14, Type (0, 1), BuildingBlock: ZUJKAS_clean_linker_0, # of connection points: 2
#     Edge 15, Type (0, 1), BuildingBlock: ZUJKAS_clean_linker_0, # of connection points: 2
#     Edge 16, Type (0, 1), BuildingBlock: ZUJKAS_clean_linker_0, # of connection points: 2
#     Edge 17, Type (0, 1), BuildingBlock: ZUJKAS_clean_linker_0, # of connection points: 2
#     Edge 18, Type (0, 1), BuildingBlock: ZUJKAS_clean_linker_0, # of connection points: 2
#     Edge 19, Type (0, 1), BuildingBlock: ZUJKAS_clean_linker_0, # of connection points: 2
#     Edge 20, Type (0, 1), BuildingBlock: ZUJKAS_clean_linker_0, # of connection points: 2
#     Edge 21, Type (0, 1), BuildingBlock: ZUJKAS_clean_linker_0, # of connection points: 2
#     Edge 22, Type (0, 1), BuildingBlock: ZUJKAS_clean_linker_0, # of connection points: 2
#     Edge 23, Type (0, 1), BuildingBlock: ZUJKAS_clean_linker_0, # of connection points: 2
#     Edge 24, Type (0, 1), BuildingBlock: ZUJKAS_clean_linker_0, # of connection points: 2
#     Edge 25, Type (0, 1), BuildingBlock: ZUJKAS_clean_linker_0, # of connection points: 2
#     Edge 26, Type (0, 1), BuildingBlock: ZUJKAS_clean_linker_0, # of connection points: 2
#     Edge 27, Type (0, 1), BuildingBlock: ZUJKAS_clean_linker_0, # of connection points: 2
#     Edge 28, Type (0, 1), BuildingBlock: ZUJKAS_clean_linker_0, # of connection points: 2
#     Edge 29, Type (0, 1), BuildingBlock: ZUJKAS_clean_linker_0, # of connection points: 2
#     Edge 30, Type (0, 1), BuildingBlock: ZUJKAS_clean_linker_0, # of connection points: 2
#     Edge 31, Type (0, 1), BuildingBlock: ZUJKAS_clean_linker_0, # of connection points: 2
#     Edge 32, Type (0, 1), BuildingBlock: ZUJKAS_clean_linker_0, # of connection points: 2
#     Edge 33, Type (0, 1), BuildingBlock: ZUJKAS_clean_linker_0, # of connection points: 2
#     Edge 34, Type (0, 1), BuildingBlock: ZUJKAS_clean_linker_0, # of connection points: 2
#     Edge 35, Type (0, 1), BuildingBlock: ZUJKAS_clean_linker_0, # of connection points: 2
# Relax obj value: 0.074
# Max RMSD: 0.250
# Mean RMSD: 0.202
data_MOF--net-apo--node1-KUMJIN_clean_sbu_1--node2-QEWDON_clean_linker_0--edge1-ZUJKAS_clean_linker_0
_symmetry_space_group_name_H-M    P1
_symmetry_Int_Tables_number       1
_symmetry_cell_setting            triclinic
loop_
_symmetry_equiv_pos_as_xyz
'x, y, z'
_cell_length_a     37.977444
_cell_length_b     55.95753
_cell_length_c     64.619265
_cell_angle_alpha  89.987703
_cell_angle_beta   89.970812
_cell_angle_gamma 90.17831
loop_
_atom_site_label
_atom_site_type_symbol
_atom_site_fract_x
_atom_site_fract_y
_atom_site_fract_z
_atom_type_partial_charge
H0 H 0.2783 0.39493 0.38928 0.0
C1 C 0.28913 0.39257 0.40466 0.0
C2 C 0.32021 0.40463 0.41034 0.0
C3 C 0.27029 0.37913 0.41933 0.0
H4 H 0.35692 0.41143 0.43512 0.0
C5 C 0.33309 0.40208 0.43062 0.0
C6 C 0.31459 0.38862 0.44544 0.0
C7 C 0.28302 0.3773 0.43967 0.0
C8 C 0.23487 0.36987 0.41426 0.0
H9 H 0.268 0.36733 0.45105 0.0
C10 C 0.23009 0.35101 0.40011 0.0
C11 C 0.19587 0.34297 0.39521 0.0
C12 C 0.2054 0.38049 0.42355 0.0
H13 H 0.20864 0.39504 0.43446 0.0
C14 C 0.17154 0.37271 0.41859 0.0
H15 H 0.25278 0.34267 0.39298 0.0
C16 C 0.16673 0.35414 0.40449 0.0
H17 H 0.14019 0.34816 0.40111 0.0
H18 H 0.14894 0.38107 0.42576 0.0
H19 H 0.23729 0.12712 0.88717 0.0
C20 C 0.22575 0.12742 0.90251 0.0
C21 C 0.19417 0.11492 0.90646 0.0
C22 C 0.24349 0.13936 0.91856 0.0
H23 H 0.15665 0.10483 0.93006 0.0
C24 C 0.18009 0.1152 0.92663 0.0
C25 C 0.19728 0.1273 0.9428 0.0
C26 C 0.22898 0.13935 0.93857 0.0
C27 C 0.2792 0.14944 0.9152 0.0
H28 H 0.24275 0.14855 0.95093 0.0
C29 C 0.28587 0.16692 0.89995 0.0
C30 C 0.32024 0.17608 0.89717 0.0
C31 C 0.3071 0.1412 0.92753 0.0
H32 H 0.30262 0.12769 0.93927 0.0
C33 C 0.34107 0.15006 0.92471 0.0
H34 H 0.26445 0.17342 0.89043 0.0
C35 C 0.34766 0.16735 0.90967 0.0
H36 H 0.37421 0.17426 0.9081 0.0
H37 H 0.36238 0.14357 0.93429 0.0
H38 H 0.76332 0.13113 0.63683 0.0
C39 C 0.77754 0.13285 0.62235 0.0
C40 C 0.80987 0.12101 0.61965 0.0
C41 C 0.76279 0.14608 0.60608 0.0
H42 H 0.85238 0.11374 0.59841 0.0
C43 C 0.82764 0.12301 0.6006 0.0
C44 C 0.81309 0.13611 0.58412 0.0
C45 C 0.78066 0.14762 0.5871 0.0
C46 C 0.72707 0.15637 0.60789 0.0
H47 H 0.76855 0.1572 0.57439 0.0
C48 C 0.71941 0.17458 0.62226 0.0
C49 C 0.68596 0.18548 0.6223 0.0
C50 C 0.70075 0.14859 0.59417 0.0
H51 H 0.70611 0.13456 0.58306 0.0
C52 C 0.66739 0.15886 0.5946 0.0
H53 H 0.73976 0.18092 0.63268 0.0
C54 C 0.66006 0.17727 0.60844 0.0
H55 H 0.63402 0.18513 0.60834 0.0
H56 H 0.64726 0.15271 0.58399 0.0
H57 H 0.7442 0.39001 0.13737 0.0
C58 C 0.73118 0.38731 0.12263 0.0
C59 C 0.69926 0.39905 0.1183 0.0
C60 C 0.74779 0.37345 0.10741 0.0
H61 H 0.65897 0.40474 0.09523 0.0
C62 C 0.68358 0.39588 0.09872 0.0
C63 C 0.7 0.38212 0.08332 0.0
C64 C 0.73217 0.37099 0.08784 0.0
C65 C 0.78329 0.36351 0.11101 0.0
H66 H 0.7453 0.36043 0.0761 0.0
C67 C 0.78913 0.34556 0.12589 0.0
C68 C 0.82286 0.33537 0.12812 0.0
C69 C 0.81146 0.37167 0.09882 0.0
H70 H 0.80744 0.38549 0.08732 0.0
C71 C 0.84502 0.36215 0.10139 0.0
H72 H 0.76726 0.33893 0.13505 0.0
C73 C 0.85073 0.34411 0.11587 0.0
H74 H 0.87707 0.33697 0.1175 0.0
H75 H 0.86665 0.36866 0.09202 0.0
H76 H 0.67861 0.65555 0.6421 0.0
C77 C 0.67688 0.65154 0.62573 0.0
C78 C 0.66902 0.62812 0.61908 0.0
C79 C 0.6809 0.67011 0.6113 0.0
H80 H 0.65852 0.60589 0.59246 0.0
C81 C 0.66611 0.62356 0.59769 0.0
C82 C 0.67052 0.64193 0.58304 0.0
C83 C 0.67805 0.66514 0.59008 0.0
C84 C 0.68338 0.69528 0.61816 0.0
H85 H 0.68123 0.6796 0.57907 0.0
C86 C 0.71308 0.70412 0.62882 0.0
C87 C 0.71542 0.72863 0.6339 0.0
C88 C 0.65577 0.71088 0.61318 0.0
H89 H 0.63272 0.70439 0.60502 0.0
C90 C 0.65756 0.7349 0.61868 0.0
H91 H 0.73468 0.69221 0.63239 0.0
C92 C 0.68713 0.74376 0.6289 0.0
H93 H 0.68781 0.76254 0.63296 0.0
H94 H 0.63603 0.74675 0.61487 0.0
H95 H 0.8271 0.86786 0.14492 0.0
C96 C 0.82982 0.87173 0.12856 0.0
C97 C 0.83957 0.89484 0.12202 0.0
C98 C 0.82529 0.85323 0.1141 0.0
H99 H 0.85324 0.91664 0.09567 0.0
C100 C 0.84398 0.89926 0.10072 0.0
C101 C 0.83896 0.88108 0.08599 0.0
C102 C 0.82935 0.85815 0.0929 0.0
C103 C 0.82061 0.82815 0.12105 0.0
H104 H 0.8255 0.84386 0.08181 0.0
C105 C 0.79327 0.82137 0.13465 0.0
C106 C 0.78994 0.79736 0.14113 0.0
C107 C 0.84447 0.81077 0.11408 0.0
H108 H 0.86585 0.81558 0.10376 0.0
C109 C 0.84137 0.78712 0.12054 0.0
H110 H 0.77469 0.83463 0.14007 0.0
C111 C 0.81437 0.78042 0.13395 0.0
H112 H 0.8122 0.76182 0.13843 0.0
H113 H 0.85992 0.7739 0.11508 0.0
H114 H 0.18262 0.86329 0.38021 0.0
C115 C 0.18144 0.86673 0.39671 0.0
C116 C 0.17392 0.88987 0.40401 0.0
C117 C 0.18439 0.84755 0.41059 0.0
H118 H 0.16558 0.9115 0.43125 0.0
C119 C 0.17085 0.89368 0.42549 0.0
C120 C 0.17381 0.87463 0.43957 0.0
C121 C 0.18067 0.85164 0.4319 0.0
C122 C 0.18609 0.82267 0.40298 0.0
H123 H 0.18148 0.83655 0.44242 0.0
C124 C 0.21624 0.81371 0.39296 0.0
C125 C 0.218 0.78934 0.38746 0.0
C126 C 0.15743 0.80739 0.40681 0.0
H127 H 0.13402 0.81399 0.41448 0.0
C128 C 0.15873 0.78348 0.40088 0.0
H129 H 0.23863 0.82536 0.39025 0.0
C130 C 0.18882 0.77445 0.39138 0.0
H131 H 0.18929 0.75576 0.38703 0.0
H132 H 0.13647 0.77184 0.40384 0.0
H133 H 0.34117 0.66456 0.88022 0.0
C134 C 0.3421 0.66085 0.89668 0.0
C135 C 0.35101 0.63779 0.90369 0.0
C136 C 0.33722 0.67959 0.91087 0.0
H137 H 0.3605 0.61583 0.93063 0.0
C138 C 0.35385 0.63355 0.92511 0.0
C139 C 0.34842 0.652 0.93948 0.0
C140 C 0.33985 0.67486 0.93217 0.0
C141 C 0.33351 0.70472 0.90383 0.0
H142 H 0.33672 0.68941 0.9431 0.0
C143 C 0.30753 0.71166 0.88944 0.0
C144 C 0.30345 0.73601 0.88404 0.0
C145 C 0.35599 0.72218 0.91226 0.0
H146 H 0.37649 0.71729 0.92311 0.0
C147 C 0.35225 0.74611 0.90693 0.0
H148 H 0.29038 0.69821 0.88278 0.0
C149 C 0.32606 0.75304 0.89315 0.0
H150 H 0.32319 0.77193 0.88998 0.0
H151 H 0.36946 0.75941 0.91374 0.0
Eu152 Eu 0.04801 0.12155 0.2421 0.0
C153 C 0.91838 0.0725 0.28022 0.0
N154 N 0.92355 0.09632 0.27754 0.0
C155 C 0.86601 0.10024 0.26277 0.0
C156 C 0.88715 0.06137 0.27338 0.0
C157 C 0.89757 0.11045 0.26966 0.0
C158 C 0.86096 0.07554 0.26438 0.0
C159 C 0.93916 0.03478 0.2939 0.0
C160 C 0.94411 0.05943 0.29032 0.0
C161 C 0.90891 0.02333 0.28618 0.0
C162 C 0.88289 0.03662 0.27602 0.0
Eu163 Eu 0.97778 0.11213 0.28898 0.0
N164 N 0.97274 0.07113 0.2979 0.0
C165 C 0.96405 0.0226 0.30585 0.0
C166 C 0.99494 0.05987 0.3113 0.0
C167 C 0.99166 0.03533 0.31497 0.0
H168 H 0.90156 0.12952 0.2684 0.0
H169 H 0.01006 0.02635 0.3251 0.0
H170 H 0.11393 0.08303 0.25509 0.0
H171 H 0.05862 0.21719 0.2279 0.0
H172 H 0.01493 0.06984 0.31944 0.0
H173 H 0.96127 1.00365 0.30893 0.0
H174 H 0.03175 0.17679 0.22575 0.0
H175 H 0.84569 0.11139 0.25615 0.0
H176 H 0.90486 1.00435 0.28856 0.0
H177 H 0.85927 0.02767 0.27065 0.0
H178 H 0.17159 0.08473 0.27234 0.0
H179 H 0.83657 0.06767 0.25893 0.0
H180 H 0.11527 0.22282 0.24626 0.0
N181 N 0.10591 0.12071 0.25608 0.0
C182 C 0.12148 0.14234 0.25914 0.0
C183 C 0.15752 0.10109 0.26904 0.0
C184 C 0.15507 0.14418 0.26833 0.0
C185 C 0.12438 0.1002 0.25965 0.0
C186 C 0.17264 0.12318 0.2738 0.0
N187 N 0.07268 0.16024 0.24285 0.0
C188 C 0.05663 0.17924 0.23361 0.0
C189 C 0.12083 0.18528 0.25373 0.0
C190 C 0.1047 0.16266 0.25193 0.0
C191 C 0.10375 0.20513 0.24519 0.0
C192 C 0.07174 0.20203 0.23483 0.0
H193 H 0.19846 0.12381 0.28091 0.0
H194 H 0.19608 0.16859 0.2784 0.0
H195 H 0.16602 0.2046 0.26565 0.0
O196 O 0.03329 0.12519 0.20958 0.0
O197 O 0.03668 0.15022 0.2661 0.0
O198 O 0.03103 0.1288 0.29579 0.0
O199 O 0.08555 0.11352 0.21738 0.0
O200 O 0.99325 0.13655 0.23651 0.0
O201 O 0.96767 0.14475 0.2686 0.0
O202 O 0.95669 0.10748 0.32028 0.0
O203 O 0.96549 0.09944 0.25616 0.0
O204 O 0.01863 0.08638 0.24407 0.0
O205 O 0.95364 0.14192 0.30559 0.0
O206 O 0.03409 0.09893 0.29352 0.0
O207 O 0.052 0.08716 0.26095 0.0
C208 C 0.04294 0.14758 0.28587 0.0
C209 C 0.06115 0.0991 0.18625 0.0
C210 C 0.07072 0.08727 0.15027 0.0
C211 C 0.0568 0.06455 0.15496 0.0
C212 C 0.04751 0.07635 0.19059 0.0
C213 C 0.04529 0.05919 0.17498 0.0
C214 C 0.0727 0.10452 0.16613 0.0
C215 C 0.97084 0.14827 0.24842 0.0
C216 C 0.0632 0.11739 0.20253 0.0
C217 C 0.17051 0.16681 0.27111 0.0
C218 C 0.15345 0.18732 0.26379 0.0
C219 C 0.98432 0.08417 0.24547 0.0
C220 C 0.96403 0.14101 0.34171 0.0
C221 C 0.96303 0.14616 0.37931 0.0
C222 C 0.99456 0.15933 0.37794 0.0
C223 C 0.99538 0.15431 0.34081 0.0
C224 C 0.94777 0.13708 0.36101 0.0
C225 C 0.01054 0.16331 0.35882 0.0
C226 C 0.05229 0.08479 0.28125 0.0
C227 C 0.94962 0.12999 0.32276 0.0
H228 H 0.05438 0.05098 0.14308 0.0
H229 H 0.0386 0.0719 0.20602 0.0
H230 H 0.03452 0.04168 0.17839 0.0
H231 H 0.0836 0.12207 0.16293 0.0
H232 H 0.00677 0.16676 0.39166 0.0
H233 H 0.00831 0.15758 0.3262 0.0
H234 H 0.92383 0.12652 0.36181 0.0
H235 H 0.03492 0.17327 0.35796 0.0
Eu236 Eu 0.46066 0.40144 0.74416 0.0
C237 C 0.61828 0.42086 0.77421 0.0
N238 N 0.59909 0.40047 0.77649 0.0
C239 C 0.64936 0.37685 0.76751 0.0
C240 C 0.65386 0.41997 0.76801 0.0
C241 C 0.61416 0.37863 0.77363 0.0
C242 C 0.66926 0.39762 0.76456 0.0
C243 C 0.62124 0.46421 0.77532 0.0
C244 C 0.60216 0.44274 0.77786 0.0
C245 C 0.6566 0.46338 0.769 0.0
C246 C 0.67287 0.44134 0.76538 0.0
Eu247 Eu 0.53948 0.40526 0.78584 0.0
N248 N 0.56748 0.44304 0.78322 0.0
C249 C 0.60412 0.4859 0.77905 0.0
C250 C 0.55117 0.46406 0.7878 0.0
C251 C 0.56904 0.48579 0.78553 0.0
H252 H 0.59917 0.36255 0.77645 0.0
H253 H 0.55577 0.50245 0.78886 0.0
H254 H 0.39494 0.43349 0.76444 0.0
H255 H 0.46859 0.30515 0.72883 0.0
H256 H 0.52452 0.46424 0.79333 0.0
H257 H 0.61783 0.50277 0.77721 0.0
H258 H 0.48692 0.34712 0.72608 0.0
H259 H 0.66116 0.35948 0.76514 0.0
H260 H 0.67159 0.47971 0.76685 0.0
H261 H 0.70018 0.441 0.76054 0.0
H262 H 0.33613 0.4266 0.7798 0.0
H263 H 0.69653 0.39619 0.75979 0.0
H264 H 0.41255 0.2948 0.74621 0.0
N265 N 0.40415 0.39668 0.75861 0.0
C266 C 0.3913 0.37398 0.7594 0.0
C267 C 0.35143 0.41166 0.77419 0.0
C268 C 0.35797 0.36923 0.76814 0.0
C269 C 0.38476 0.4155 0.76559 0.0
C270 C 0.33802 0.38843 0.77554 0.0
N271 N 0.44469 0.3604 0.74428 0.0
C272 C 0.46385 0.34286 0.73496 0.0
C273 C 0.39993 0.33156 0.75348 0.0
C274 C 0.41227 0.35534 0.75227 0.0
C275 C 0.42106 0.31328 0.74556 0.0
C276 C 0.45285 0.31903 0.73591 0.0
H277 H 0.3123 0.3855 0.78237 0.0
H278 H 0.3205 0.34154 0.77639 0.0
H279 H 0.35717 0.30859 0.76353 0.0
O280 O 0.45793 0.39372 0.71102 0.0
O281 O 0.45249 0.38948 0.77755 0.0
O282 O 0.50502 0.37218 0.78515 0.0
O283 O 0.42096 0.4183 0.72458 0.0
O284 O 0.5144 0.38577 0.73579 0.0
O285 O 0.53603 0.37152 0.7667 0.0
O286 O 0.53041 0.41367 0.81844 0.0
O287 O 0.54914 0.42301 0.75452 0.0
O288 O 0.49496 0.4345 0.74166 0.0
O289 O 0.57324 0.39041 0.81003 0.0
O290 O 0.48894 0.42599 0.79257 0.0
O291 O 0.46211 0.43652 0.76154 0.0
C292 C 0.47067 0.37279 0.78682 0.0
C293 C 0.43795 0.42515 0.68994 0.0
C294 C 0.43196 0.4336 0.65301 0.0
C295 C 0.44856 0.45582 0.65618 0.0
C296 C 0.45435 0.44739 0.69275 0.0
C297 C 0.45969 0.46261 0.67593 0.0
C298 C 0.4269 0.41827 0.67007 0.0
C299 C 0.53524 0.37142 0.74636 0.0
C300 C 0.43267 0.40885 0.70754 0.0
C301 C 0.34593 0.34554 0.76959 0.0
C302 C 0.36687 0.32677 0.76232 0.0
C303 C 0.52933 0.4369 0.74299 0.0
C304 C 0.54575 0.38345 0.84217 0.0
C305 C 0.55054 0.37151 0.87846 0.0
C306 C 0.52669 0.35272 0.87463 0.0
C307 C 0.52226 0.36451 0.83873 0.0
C308 C 0.55996 0.38687 0.86204 0.0
C309 C 0.51271 0.34928 0.85488 0.0
C310 C 0.46812 0.43985 0.78144 0.0
C311 C 0.55535 0.39972 0.82517 0.0
H312 H 0.45332 0.46787 0.64335 0.0
H313 H 0.46291 0.45296 0.70795 0.0
H314 H 0.47253 0.47971 0.6782 0.0
H315 H 0.41396 0.40114 0.66798 0.0
H316 H 0.51927 0.34041 0.88682 0.0
H317 H 0.51141 0.36146 0.82355 0.0
H318 H 0.57799 0.40161 0.86472 0.0
H319 H 0.49457 0.33468 0.85204 0.0
Eu320 Eu 0.03523 0.90707 0.73793 0.0
C321 C 0.8892 0.87939 0.76764 0.0
N322 N 0.90568 0.90086 0.7699 0.0
C323 C 0.8547 0.92086 0.7565 0.0
C324 C 0.85537 0.87779 0.75871 0.0
C325 C 0.888 0.92154 0.76571 0.0
C326 C 0.8386 0.89886 0.75259 0.0
C327 C 0.88805 0.83673 0.77457 0.0
C328 C 0.90527 0.85906 0.77541 0.0
C329 C 0.8551 0.83491 0.76484 0.0
C330 C 0.83886 0.85538 0.75686 0.0
Eu331 Eu 0.96351 0.89948 0.78393 0.0
N332 N 0.93762 0.86119 0.78414 0.0
C333 C 0.90441 0.81694 0.78368 0.0
C334 C 0.95308 0.84228 0.79386 0.0
C335 C 0.93686 0.8198 0.7936 0.0
H336 H 0.89912 0.9387 0.76968 0.0
H337 H 0.94945 0.8047 0.80095 0.0
H338 H 0.10958 0.88903 0.76034 0.0
H339 H 0.00689 0.99301 0.70093 0.0
H340 H 0.97822 0.84457 0.80146 0.0
H341 H 0.89202 0.79947 0.78336 0.0
H342 H 1.00041 0.94968 0.70678 0.0
H343 H 0.84126 0.93731 0.75272 0.0
H344 H 0.84169 0.81784 0.76373 0.0
H345 H 0.81308 0.85379 0.74981 0.0
H346 H 0.16496 0.90669 0.77386 0.0
H347 H 0.81263 0.89841 0.74566 0.0
H348 H 0.05546 0.01523 0.71783 0.0
N349 N 0.08913 0.92238 0.75039 0.0
C350 C 0.09507 0.94611 0.74765 0.0
C351 C 0.14542 0.91799 0.76664 0.0
C352 C 0.12599 0.95698 0.75523 0.0
C353 C 0.11418 0.90804 0.759 0.0
C354 C 0.15115 0.94262 0.765 0.0
N355 N 0.04186 0.94792 0.72883 0.0
C356 C 0.02048 0.95939 0.71509 0.0
C357 C 0.07601 0.98394 0.73337 0.0
C358 C 0.07033 0.95936 0.7369 0.0
C359 C 0.05208 0.99632 0.7209 0.0
C360 C 0.02461 0.98387 0.71137 0.0
H361 H 0.17527 0.95029 0.77104 0.0
H362 H 0.15429 0.99045 0.75858 0.0
H363 H 0.11051 0.01408 0.73943 0.0
O364 O 0.05589 0.91054 0.70641 0.0
O365 O 0.04635 0.9199 0.77085 0.0
O366 O 0.99345 0.93441 0.78179 0.0
O367 O 0.06183 0.87729 0.72281 0.0
O368 O 0.97954 0.92073 0.73231 0.0
O369 O 0.96074 0.9335 0.76441 0.0
O370 O 0.97806 0.89729 0.81662 0.0
O371 O 0.97287 0.87004 0.76017 0.0
O372 O 0.98194 0.89102 0.73043 0.0
O373 O 0.92544 0.90775 0.80823 0.0
O374 O 0.01759 0.88336 0.79012 0.0
O375 O 0.04156 0.87387 0.75792 0.0
C376 C 0.02785 0.93596 0.78082 0.0
C377 C 0.05142 0.87525 0.68679 0.0
C378 C 0.05251 0.86816 0.64946 0.0
C379 C 0.02401 0.85223 0.65173 0.0
C380 C 0.02301 0.85925 0.68864 0.0
C381 C 0.00945 0.84784 0.67119 0.0
C382 C 0.06618 0.87958 0.66718 0.0
C383 C 0.9612 0.93534 0.74408 0.0
C384 C 0.06474 0.88818 0.70508 0.0
C385 C 0.13094 0.98168 0.7526 0.0
C386 C 0.10595 0.99515 0.74175 0.0
C387 C 0.9685 0.87258 0.74017 0.0
C388 C 0.94833 0.92338 0.83925 0.0
C389 C 0.93784 0.9353 0.87515 0.0
C390 C 0.94803 0.95877 0.86992 0.0
C391 C 0.95852 0.94681 0.83441 0.0
C392 C 0.93825 0.91766 0.85957 0.0
C393 C 0.9584 0.96439 0.84973 0.0
C394 C 0.03931 0.87111 0.77817 0.0
C395 C 0.94768 0.90472 0.82328 0.0
H396 H 0.0132 0.84292 0.63847 0.0
H397 H 0.01123 0.85561 0.70355 0.0
H398 H 0.98755 0.83555 0.67277 0.0
H399 H 0.08778 0.89218 0.66569 0.0
H400 H 0.94752 0.97292 0.88134 0.0
H401 H 0.96635 0.9515 0.81881 0.0
H402 H 0.93104 0.89938 0.8632 0.0
H403 H 0.96614 0.9825 0.84591 0.0
Eu404 Eu 0.47525 0.61643 0.24149 0.0
C405 C 0.61269 0.6553 0.27541 0.0
N406 N 0.60499 0.63186 0.27249 0.0
C407 C 0.65965 0.6261 0.2547 0.0
C408 C 0.64367 0.66541 0.26711 0.0
C409 C 0.62838 0.61695 0.26303 0.0
C410 C 0.6671 0.6505 0.25649 0.0
C411 C 0.59719 0.69339 0.29061 0.0
C412 C 0.58967 0.66906 0.28696 0.0
C413 C 0.62711 0.70388 0.28152 0.0
C414 C 0.65033 0.68991 0.26981 0.0
Eu415 Eu 0.55096 0.61791 0.28591 0.0
N416 N 0.56102 0.65834 0.29559 0.0
C417 C 0.57506 0.70625 0.30383 0.0
C418 C 0.5413 0.67025 0.30992 0.0
C419 C 0.54743 0.69448 0.31386 0.0
H420 H 0.62235 0.59814 0.26152 0.0
H421 H 0.5311 0.70399 0.32484 0.0
H422 H 0.41779 0.6604 0.25327 0.0
H423 H 0.44256 0.52364 0.22429 0.0
H424 H 0.52098 0.66113 0.31855 0.0
H425 H 0.57991 0.72498 0.30704 0.0
H426 H 0.47788 0.56101 0.22269 0.0
H427 H 0.67784 0.61438 0.24679 0.0
H428 H 0.63302 0.72264 0.2839 0.0
H429 H 0.67367 0.69812 0.26325 0.0
H430 H 0.35998 0.66457 0.27032 0.0
H431 H 0.69119 0.65758 0.24988 0.0
H432 H 0.38668 0.52282 0.24407 0.0
N433 N 0.41812 0.6225 0.25531 0.0
C434 C 0.39849 0.60256 0.25872 0.0
C435 C 0.37078 0.64698 0.26756 0.0
C436 C 0.36481 0.60399 0.26782 0.0
C437 C 0.40383 0.64458 0.25825 0.0
C438 C 0.35153 0.62657 0.27287 0.0
N439 N 0.44243 0.58054 0.2416 0.0
C440 C 0.45333 0.56066 0.23118 0.0
C441 C 0.38994 0.56013 0.25282 0.0
C442 C 0.41078 0.58093 0.25133 0.0
C443 C 0.40196 0.53918 0.24332 0.0
C444 C 0.43346 0.53958 0.23209 0.0
H445 H 0.32576 0.62847 0.27987 0.0
H446 H 0.31911 0.58374 0.27783 0.0
H447 H 0.34118 0.54528 0.2647 0.0
O448 O 0.49 0.61454 0.20887 0.0
O449 O 0.48209 0.58505 0.26371 0.0
O450 O 0.49703 0.60346 0.294 0.0
O451 O 0.43899 0.62811 0.21721 0.0
O452 O 0.52552 0.59629 0.2338 0.0
O453 O 0.55309 0.58544 0.26467 0.0
O454 O 0.57505 0.61898 0.31701 0.0
O455 O 0.56052 0.63037 0.25282 0.0
O456 O 0.50955 0.64937 0.24472 0.0
O457 O 0.57463 0.58589 0.29906 0.0
O458 O 0.49699 0.6332 0.29388 0.0
O459 O 0.47798 0.64891 0.26286 0.0
C460 C 0.48185 0.58586 0.284 0.0
C461 C 0.46547 0.64375 0.18712 0.0
C462 C 0.45761 0.65891 0.15195 0.0
C463 C 0.47474 0.6802 0.15785 0.0
C464 C 0.48237 0.66511 0.19268 0.0
C465 C 0.48702 0.68322 0.17807 0.0
C466 C 0.45311 0.64071 0.16681 0.0
C467 C 0.5468 0.58251 0.2447 0.0
C468 C 0.46115 0.62436 0.20223 0.0
C469 C 0.34484 0.58304 0.27061 0.0
C470 C 0.35737 0.56115 0.2631 0.0
C471 C 0.54395 0.6483 0.24422 0.0
C472 C 0.60267 0.58382 0.33282 0.0
C473 C 0.62508 0.58168 0.36829 0.0
C474 C 0.63971 0.55922 0.36377 0.0
C475 C 0.61744 0.56131 0.32878 0.0
C476 C 0.60643 0.59392 0.35269 0.0
C477 C 0.63582 0.54914 0.34417 0.0
C478 C 0.47819 0.64871 0.28325 0.0
C479 C 0.58382 0.59655 0.31612 0.0
H480 H 0.47825 0.69469 0.14692 0.0
H481 H 0.49198 0.66777 0.20827 0.0
H482 H 0.50011 0.69967 0.18244 0.0
H483 H 0.44049 0.62402 0.16254 0.0
H484 H 0.65377 0.54925 0.3755 0.0
H485 H 0.61499 0.55312 0.31366 0.0
H486 H 0.5952 0.6113 0.35596 0.0
H487 H 0.64708 0.5318 0.3409 0.0
H488 H 0.12074 0.92244 0.40656 0.0
H489 H 0.10623 0.95425 0.38225 0.0
H490 H 0.19316 0.93352 0.34333 0.0
H491 H 0.20849 0.90175 0.36797 0.0
H492 H 0.18738 0.98398 0.35017 0.0
H493 H 0.06073 0.94404 0.32502 0.0
H494 H 0.06478 0.94647 0.35262 0.0
H495 H 0.094 0.92714 0.33855 0.0
C496 C 0.13712 0.92477 0.39298 0.0
C497 C 0.16592 0.90959 0.38927 0.0
C498 C 0.12849 0.9428 0.37896 0.0
C499 C 0.14828 0.94602 0.36084 0.0
C500 C 0.1774 0.93121 0.35717 0.0
H501 H 0.06681 0.04121 0.2644 0.0
H502 H 0.09484 1.00705 0.28149 0.0
C503 C 0.18602 0.91303 0.3712 0.0
C504 C 0.13844 0.96507 0.34597 0.0
H505 H 0.06971 0.98529 0.31684 0.0
C506 C 0.16185 0.98415 0.34265 0.0
C507 C 0.10533 0.96509 0.33594 0.0
C508 C 0.07987 0.94448 0.33802 0.0
C509 C 0.15232 1.00381 0.33033 0.0
C510 C 0.11837 1.00447 0.32133 0.0
C511 C 0.09564 0.98487 0.32388 0.0
C512 C 0.10503 0.0258 0.31017 0.0
C513 C 0.17857 0.02377 0.32718 0.0
C514 C 0.10175 0.04772 0.32055 0.0
C515 C 0.08584 0.0672 0.31082 0.0
C516 C 0.0726 0.06505 0.29061 0.0
C517 C 0.07692 0.04337 0.27997 0.0
C518 C 0.09277 0.02384 0.28973 0.0
H519 H 0.20601 0.01748 0.32952 0.0
H520 H 0.17632 0.03155 0.31143 0.0
H521 H 0.1734 0.03811 0.33863 0.0
H522 H 0.11036 0.04953 0.33644 0.0
H523 H 0.08295 0.08376 0.31934 0.0
H524 H 0.31543 0.6245 0.86846 0.0
H525 H 0.33048 0.59202 0.84441 0.0
H526 H 0.42182 0.57532 0.88118 0.0
H527 H 0.40721 0.60765 0.90508 0.0
H528 H 0.43209 0.5795 0.83549 0.0
H529 H 0.32384 0.51807 0.85967 0.0
H530 H 0.31285 0.54861 0.85375 0.0
H531 H 0.33919 0.5421 0.87605 0.0
C532 C 0.33878 0.61394 0.87133 0.0
C533 C 0.35994 0.61847 0.88877 0.0
C534 C 0.34722 0.59535 0.85766 0.0
C535 C 0.37709 0.58118 0.86115 0.0
C536 C 0.39857 0.58598 0.87829 0.0
H537 H 0.46135 0.44743 0.82302 0.0
H538 H 0.43645 0.48228 0.84042 0.0
C539 C 0.39003 0.60436 0.892 0.0
C540 C 0.38626 0.56119 0.8471 0.0
H541 H 0.36384 0.50374 0.83479 0.0
C542 C 0.41695 0.56304 0.83509 0.0
C543 C 0.36657 0.53971 0.84682 0.0
C544 C 0.33383 0.53675 0.8598 0.0
C545 C 0.42881 0.54378 0.82304 0.0
C546 C 0.40945 0.52217 0.82302 0.0
C547 C 0.37844 0.52043 0.83476 0.0
C548 C 0.42255 0.50063 0.81216 0.0
C549 C 0.46266 0.54628 0.81099 0.0
C550 C 0.42248 0.49929 0.79048 0.0
C551 C 0.43656 0.4793 0.78043 0.0
C552 C 0.45114 0.4604 0.79193 0.0
C553 C 0.45052 0.46169 0.81367 0.0
C554 C 0.4362 0.48156 0.82367 0.0
H555 H 0.47668 0.56325 0.81455 0.0
H556 H 0.48045 0.53107 0.81442 0.0
H557 H 0.45678 0.54589 0.79417 0.0
H558 H 0.41188 0.51382 0.78134 0.0
H559 H 0.4367 0.47891 0.76367 0.0
H560 H 0.68751 0.58077 0.61718 0.0
H561 H 0.66768 0.54828 0.63978 0.0
H562 H 0.61254 0.59891 0.67806 0.0
H563 H 0.63138 0.63148 0.65529 0.0
H564 H 0.65464 0.55992 0.69966 0.0
H565 H 0.55926 0.52858 0.64007 0.0
H566 H 0.60389 0.5335 0.63166 0.0
H567 H 0.57767 0.55838 0.63987 0.0
C568 C 0.67123 0.58505 0.63043 0.0
C569 C 0.66082 0.60878 0.63427 0.0
C570 C 0.66007 0.56646 0.64337 0.0
C571 C 0.63842 0.5712 0.66047 0.0
C572 C 0.6293 0.59491 0.66495 0.0
H573 H 0.49903 0.47812 0.72917 0.0
H574 H 0.52681 0.51053 0.70966 0.0
C575 C 0.64029 0.61352 0.65195 0.0
C576 C 0.62345 0.55131 0.67287 0.0
H577 H 0.56342 0.5058 0.67064 0.0
C578 C 0.6348 0.54801 0.69335 0.0
C579 C 0.5973 0.53601 0.66461 0.0
C580 C 0.58349 0.53926 0.6429 0.0
C581 C 0.62081 0.52959 0.70573 0.0
C582 C 0.59492 0.51415 0.69736 0.0
C583 C 0.58342 0.5176 0.67695 0.0
C584 C 0.57865 0.49463 0.70965 0.0
C585 C 0.63319 0.52702 0.7278 0.0
C586 C 0.59854 0.47484 0.71597 0.0
C587 C 0.58256 0.45603 0.72679 0.0
C588 C 0.54641 0.45674 0.73153 0.0
C589 C 0.52671 0.47674 0.72536 0.0
C590 C 0.54262 0.4954 0.71439 0.0
H591 H 0.64831 0.54291 0.73308 0.0
H592 H 0.61046 0.52423 0.73836 0.0
H593 H 0.65048 0.51113 0.72906 0.0
H594 H 0.6263 0.47374 0.71223 0.0
H595 H 0.59843 0.44081 0.7312 0.0
H596 H 0.82382 0.94257 0.1198 0.0
H597 H 0.84499 0.97462 0.14243 0.0
H598 H 0.89586 0.92271 0.18146 0.0
H599 H 0.87566 0.89054 0.15865 0.0
H600 H 0.85491 0.96339 0.20221 0.0
H601 H 0.95513 0.99073 0.14382 0.0
H602 H 0.91066 0.98683 0.13478 0.0
H603 H 0.93497 0.96145 0.14379 0.0
C604 C 0.83941 0.93793 0.13323 0.0
C605 C 0.84828 0.91396 0.13728 0.0
C606 C 0.85134 0.95626 0.14618 0.0
C607 C 0.87221 0.951 0.16347 0.0
C608 C 0.87972 0.92709 0.16817 0.0
H609 H 0.01306 0.04173 0.23374 0.0
H610 H 0.98469 1.00926 0.21452 0.0
C611 C 0.86797 0.90872 0.15517 0.0
C612 C 0.88801 0.97053 0.17588 0.0
H613 H 0.95099 0.01419 0.17402 0.0
C614 C 0.87584 0.97456 0.19609 0.0
C615 C 0.91555 0.98485 0.16785 0.0
C616 C 0.93016 0.98077 0.14642 0.0
C617 C 0.89033 0.99282 0.20842 0.0
C618 C 0.91757 1.00732 0.20027 0.0
C619 C 0.92995 1.0031 0.18015 0.0
C620 C 0.9341 0.02674 0.21247 0.0
C621 C 0.87693 0.99628 0.23018 0.0
C622 C 0.91512 0.04743 0.21746 0.0
C623 C 0.93143 0.06616 0.22817 0.0
C624 C 0.96684 0.0644 0.23425 0.0
C625 C 0.98573 0.04363 0.22923 0.0
C626 C 0.96955 0.02503 0.21835 0.0
H627 H 0.86016 0.98112 0.23537 0.0
H628 H 0.89929 0.99834 0.24112 0.0
H629 H 0.86104 0.01287 0.23088 0.0
H630 H 0.88791 0.04927 0.21273 0.0
H631 H 0.91651 0.08218 0.23136 0.0
H632 H 0.87702 0.11906 0.63488 0.0
H633 H 0.90136 0.08959 0.65896 0.0
H634 H 0.79907 0.05647 0.66453 0.0
H635 H 0.77446 0.08631 0.64094 0.0
H636 H 0.83202 0.05731 0.70127 0.0
H637 H 0.92322 0.02242 0.64153 0.0
H638 H 0.92985 0.05355 0.64689 0.0
H639 H 0.88905 0.04361 0.63558 0.0
C640 C 0.85971 0.10559 0.6414 0.0
C641 C 0.8239 0.10488 0.63594 0.0
C642 C 0.87367 0.08868 0.65506 0.0
C643 C 0.85226 0.0704 0.66316 0.0
C644 C 0.81617 0.0703 0.65841 0.0
H645 H 0.92854 0.93395 0.70671 0.0
H646 H 0.90012 0.96694 0.68841 0.0
C647 C 0.8021 0.0874 0.64497 0.0
C648 C 0.86759 0.05088 0.67592 0.0
H649 H 0.9297 1.00687 0.67536 0.0
C650 C 0.85336 0.04625 0.69561 0.0
C651 C 0.89506 0.03617 0.66841 0.0
C652 C 0.90997 0.03898 0.64687 0.0
C653 C 0.8659 0.02741 0.70798 0.0
C654 C 0.89407 0.01318 0.7007 0.0
C655 C 0.90826 0.01785 0.68103 0.0
C656 C 0.90872 0.99286 0.71279 0.0
C657 C 0.84814 0.02254 0.72845 0.0
C658 C 0.92268 0.99629 0.73272 0.0
C659 C 0.93846 0.97731 0.74333 0.0
C660 C 0.94125 0.95473 0.73398 0.0
C661 C 0.92683 0.95122 0.71421 0.0
C662 C 0.91067 0.97007 0.70375 0.0
H663 H 0.8212 0.03022 0.72898 0.0
H664 H 0.8463 1.00306 0.73156 0.0
H665 H 0.86374 0.03092 0.74104 0.0
H666 H 0.92233 0.0138 0.73984 0.0
H667 H 0.94977 0.98052 0.75847 0.0
H668 H 0.69501 0.39462 0.16073 0.0
H669 H 0.66977 0.42323 0.1854 0.0
H670 H 0.64264 0.47015 0.13503 0.0
H671 H 0.66863 0.44231 0.11042 0.0
H672 H 0.68888 0.47616 0.18884 0.0
H673 H 0.54891 0.45764 0.16946 0.0
H674 H 0.58375 0.43647 0.1645 0.0
H675 H 0.57794 0.46174 0.14774 0.0
C676 C 0.68387 0.41109 0.15491 0.0
C677 C 0.68351 0.41597 0.13352 0.0
C678 C 0.66935 0.42735 0.16902 0.0
C679 C 0.65399 0.4486 0.16196 0.0
C680 C 0.65387 0.45363 0.14073 0.0
H681 H 0.54722 0.57347 0.20313 0.0
H682 H 0.57439 0.54005 0.18509 0.0
C683 C 0.66854 0.43756 0.12667 0.0
C684 C 0.63837 0.46594 0.17661 0.0
H685 H 0.56056 0.49252 0.18926 0.0
C686 C 0.66079 0.47958 0.18921 0.0
C687 C 0.60177 0.47032 0.17693 0.0
C688 C 0.57654 0.45568 0.16408 0.0
C689 C 0.64767 0.49833 0.20146 0.0
C690 C 0.61107 0.50314 0.20137 0.0
C691 C 0.5886 0.48889 0.18927 0.0
C692 C 0.59562 0.52368 0.21272 0.0
C693 C 0.67327 0.51351 0.21358 0.0
C694 C 0.59845 0.52564 0.23433 0.0
C695 C 0.5831 0.54493 0.24475 0.0
C696 C 0.56426 0.56246 0.23377 0.0
C697 C 0.56147 0.56035 0.21214 0.0
C698 C 0.57696 0.5412 0.20176 0.0
H699 H 0.7008 0.5111 0.20816 0.0
H700 H 0.66642 0.53274 0.2124 0.0
H701 H 0.67213 0.50832 0.23014 0.0
H702 H 0.61207 0.51208 0.24317 0.0
H703 H 0.58555 0.54587 0.26143 0.0
H704 H 0.34386 0.44957 0.41893 0.0
H705 H 0.3716 0.47811 0.39548 0.0
H706 H 0.3631 0.42736 0.34549 0.0
H707 H 0.33497 0.39857 0.369 0.0
H708 H 0.43301 0.47395 0.37358 0.0
H709 H 0.31991 0.48719 0.32025 0.0
H710 H 0.31534 0.47245 0.34496 0.0
H711 H 0.33378 0.45673 0.32328 0.0
C712 C 0.34813 0.44435 0.40299 0.0
C713 C 0.33742 0.42172 0.39585 0.0
C714 C 0.36383 0.46076 0.38957 0.0
C715 C 0.3691 0.45501 0.36868 0.0
C716 C 0.35865 0.43238 0.36145 0.0
H717 H 0.46865 0.54019 0.27114 0.0
H718 H 0.44107 0.50776 0.29084 0.0
C719 C 0.34271 0.41593 0.3749 0.0
C720 C 0.38622 0.47271 0.35478 0.0
H721 H 0.37286 0.50736 0.31193 0.0
C722 C 0.41986 0.48121 0.36008 0.0
C723 C 0.36907 0.48214 0.33714 0.0
C724 C 0.33241 0.47436 0.3311 0.0
C725 C 0.4367 0.49899 0.34834 0.0
C726 C 0.41929 0.50871 0.33096 0.0
C727 C 0.38604 0.49986 0.32532 0.0
C728 C 0.43488 0.52855 0.31881 0.0
C729 C 0.47307 0.5072 0.35458 0.0
C730 C 0.44002 0.55106 0.32792 0.0
C731 C 0.45524 0.5697 0.31659 0.0
C732 C 0.46546 0.56618 0.29591 0.0
C733 C 0.4602 0.54362 0.28683 0.0
C734 C 0.44475 0.52502 0.29812 0.0
H735 H 0.48606 0.4942 0.36506 0.0
H736 H 0.49001 0.50993 0.34076 0.0
H737 H 0.47103 0.52452 0.36285 0.0
H738 H 0.43215 0.55421 0.3438 0.0
H739 H 0.45881 0.58691 0.32399 0.0
H740 H 0.12367 0.10874 0.89866 0.0
H741 H 0.09625 0.07976 0.87525 0.0
H742 H 0.19869 0.05789 0.8539 0.0
H743 H 0.22651 0.08627 0.87769 0.0
H744 H 0.13622 0.06669 0.82185 0.0
H745 H 0.11233 1.00366 0.88719 0.0
H746 H 0.10157 0.03469 0.89101 0.0
H747 H 0.14669 0.02606 0.88799 0.0
C748 C 0.14043 0.09784 0.88895 0.0
C749 C 0.17735 0.09975 0.89022 0.0
C750 C 0.12468 0.0814 0.87551 0.0
C751 C 0.1455 0.06665 0.86298 0.0
C752 C 0.18222 0.0692 0.86344 0.0
H753 H 0.09304 0.93507 0.79849 0.0
H754 H 0.12275 0.96746 0.81726 0.0
C755 C 0.19804 0.08555 0.87698 0.0
C756 C 0.12899 0.04753 0.85042 0.0
H757 H 0.0906 0.99244 0.85443 0.0
C758 C 0.1262 0.05046 0.82892 0.0
C759 C 0.11629 0.02633 0.85974 0.0
C760 C 0.11941 0.02225 0.88274 0.0
C761 C 0.11047 0.03275 0.8165 0.0
C762 C 0.09735 0.0117 0.82588 0.0
C763 C 0.10062 1.00866 0.84734 0.0
C764 C 0.08001 0.99259 0.81371 0.0
C765 C 0.10827 0.03642 0.79342 0.0
C766 C 0.04611 0.996 0.80563 0.0
C767 C 0.02912 0.97754 0.79495 0.0
C768 C 0.04588 0.95543 0.79207 0.0
C769 C 0.0798 0.95207 0.80019 0.0
C770 C 0.0967 0.97048 0.81098 0.0
H771 H 0.12396 0.05209 0.78821 0.0
H772 H 0.11773 0.02025 0.78519 0.0
H773 H 0.08039 0.03926 0.78893 0.0
H774 H 0.03266 0.01286 0.80781 0.0
H775 H 1.00295 0.98059 0.78885 0.0
H776 H 0.12864 0.13098 0.95564 0.0
H777 H 0.1056 0.12683 0.99088 0.0
H778 H 0.21098 0.11602 0.01378 0.0
H779 H 0.23417 0.12004 0.97868 0.0
H780 H 0.11048 0.08802 0.01673 0.0
H781 H 0.17362 0.16697 0.05301 0.0
H782 H 0.17123 0.16305 0.02531 0.0
H783 H 0.20432 0.14772 0.0401 0.0
C784 C 0.14692 0.12778 0.9682 0.0
C785 C 0.18329 0.12598 0.96433 0.0
C786 C 0.13372 0.1255 0.98833 0.0
C787 C 0.1566 0.12149 1.00503 0.0
C788 C 0.1929 0.11972 1.00124 0.0
H789 H 0.10857 0.05867 0.12409 0.0
H790 H 0.12789 0.0675 0.08882 0.0
C791 C 0.20612 0.12203 0.98113 0.0
C792 C 0.1424 0.11792 0.02625 0.0
H793 H 0.1482 0.13827 0.076 0.0
C794 C 0.11854 0.09911 0.02966 0.0
C795 C 0.15256 0.13259 0.04308 0.0
C796 C 0.17656 0.15386 0.04021 0.0
C797 C 0.10532 0.09416 0.04952 0.0
C798 C 0.11674 0.10814 0.0665 0.0
C799 C 0.1398 0.12738 0.06301 0.0
C800 C 0.10525 0.10293 0.08803 0.0
C801 C 0.07902 0.07411 0.05209 0.0
C802 C 0.08694 0.12015 0.09955 0.0
C803 C 0.07588 0.11516 0.11977 0.0
C804 C 0.08307 0.09286 0.12891 0.0
C805 C 0.10196 0.07582 0.11741 0.0
C806 C 0.11303 0.08084 0.09722 0.0
H807 H 0.06576 0.0697 0.03724 0.0
H808 H 0.09291 0.05785 0.05751 0.0
H809 H 0.05862 0.07877 0.06372 0.0
H810 H 0.08078 0.13735 0.09279 0.0
H811 H 0.06114 0.12862 0.12811 0.0
H812 H 0.38172 0.38175 0.45959 0.0
H813 H 0.40288 0.38492 0.49528 0.0
H814 H 0.29691 0.39856 0.51613 0.0
H815 H 0.2756 0.3952 0.48056 0.0
H816 H 0.39982 0.42384 0.51952 0.0
H817 H 0.32885 0.34954 0.55797 0.0
H818 H 0.33194 0.35209 0.53017 0.0
H819 H 0.29979 0.36918 0.54426 0.0
C820 C 0.3629 0.38516 0.47183 0.0
C821 C 0.32698 0.38816 0.46727 0.0
C822 C 0.375 0.38691 0.49222 0.0
C823 C 0.35145 0.39167 0.50845 0.0
C824 C 0.31547 0.39426 0.50397 0.0
H825 H 0.39823 0.46126 0.62436 0.0
H826 H 0.37996 0.45012 0.58941 0.0
C827 C 0.30332 0.39237 0.48361 0.0
C828 C 0.36485 0.39584 0.52976 0.0
H829 H 0.35433 0.37915 0.58026 0.0
C830 C 0.39009 0.4139 0.53276 0.0
C831 C 0.35253 0.38269 0.54704 0.0
C832 C 0.32706 0.36213 0.54471 0.0
C833 C 0.40256 0.41964 0.5526 0.0
C834 C 0.38885 0.40736 0.56998 0.0
C835 C 0.36446 0.38878 0.56695 0.0
C836 C 0.39918 0.41382 0.59143 0.0
C837 C 0.4305 0.43873 0.5547 0.0
C838 C 0.41503 0.3969 0.60445 0.0
C839 C 0.42539 0.4032 0.62451 0.0
C840 C 0.42 0.42655 0.63194 0.0
C841 C 0.40342 0.44328 0.61898 0.0
C842 C 0.39298 0.43695 0.59898 0.0
H843 H 0.44531 0.44128 0.54003 0.0
H844 H 0.41778 0.45596 0.55864 0.0
H845 H 0.44947 0.43426 0.56718 0.0
H846 H 0.41991 0.37892 0.59896 0.0
H847 H 0.43829 0.38994 0.63405 0.0
H848 H 0.63074 0.37533 0.07274 0.0
H849 H 0.60522 0.37422 0.03795 0.0
H850 H 0.70845 0.38391 1.01139 0.0
H851 H 0.73407 0.38568 0.0461 0.0
H852 H 0.6565 0.41415 0.99447 0.0
H853 H 0.61221 0.31948 0.99574 0.0
H854 H 0.59726 0.33713 0.01721 0.0
H855 H 0.64348 0.33133 0.01413 0.0
C856 C 0.64801 0.37726 0.05949 0.0
C857 C 0.68448 0.38046 0.06221 0.0
C858 C 0.63342 0.37641 0.03963 0.0
C859 C 0.65501 0.37866 0.02208 0.0
C860 C 0.69136 0.38197 0.02472 0.0
H861 H 0.61901 0.38149 0.88885 0.0
H862 H 0.6444 0.38435 0.92359 0.0
C863 C 0.70598 0.38278 0.04457 0.0
C864 C 0.63961 0.37817 1.00098 0.0
H865 H 0.59378 0.34293 0.96722 0.0
C866 C 0.6429 0.39856 0.98846 0.0
C867 C 0.62184 0.35782 0.99321 0.0
C868 C 0.61867 0.3351 1.00566 0.0
C869 C 0.62832 0.39932 0.96848 0.0
C870 C 0.61056 0.37895 0.96069 0.0
C871 C 0.60733 0.35855 0.97323 0.0
C872 C 0.59507 0.37834 0.93959 0.0
C873 C 0.63133 0.4221 0.9561 0.0
C874 C 0.55901 0.3737 0.93701 0.0
C875 C 0.54447 0.37196 0.9172 0.0
C876 C 0.56574 0.37473 0.89951 0.0
C877 C 0.60181 0.37964 0.90214 0.0
C878 C 0.61636 0.3813 0.92199 0.0
H879 H 0.637 0.43775 0.96616 0.0
H880 H 0.65327 0.42038 0.94486 0.0
H881 H 0.60677 0.42562 0.94731 0.0
H882 H 0.54209 0.37134 0.95036 0.0
H883 H 0.51653 0.36843 0.91572 0.0
H884 H 0.84519 0.09924 0.56354 0.0
H885 H 0.87163 0.09988 0.52902 0.0
H886 H 0.84498 0.17438 0.52279 0.0
H887 H 0.81968 0.17414 0.55759 0.0
H888 H 0.84008 0.10994 0.49163 0.0
H889 H 0.94862 0.17401 0.50702 0.0
H890 H 0.92373 0.15996 0.5275 0.0
H891 H 0.90597 0.18524 0.51389 0.0
C892 C 0.84557 0.1159 0.55502 0.0
C893 C 0.83051 0.13669 0.56344 0.0
C894 C 0.8604 0.11617 0.53519 0.0
C895 C 0.86066 0.13724 0.52339 0.0
C896 C 0.84565 0.15802 0.53173 0.0
H897 H 0.89346 0.15033 0.39013 0.0
H898 H 0.86777 0.14685 0.42483 0.0
C899 C 0.83088 0.15778 0.55156 0.0
C900 C 0.87579 0.13731 0.50217 0.0
H901 H 0.93791 0.16421 0.47179 0.0
C902 C 0.86157 0.12173 0.4873 0.0
C903 C 0.90409 0.15251 0.49659 0.0
C904 C 0.92176 0.16872 0.51212 0.0
C905 C 0.87455 0.12118 0.46691 0.0
C906 C 0.90208 0.13695 0.46117 0.0
C907 C 0.91659 0.15228 0.47614 0.0
C908 C 0.91684 0.1376 0.43985 0.0
C909 C 0.85909 0.10343 0.45185 0.0
C910 C 0.95294 0.13375 0.43674 0.0
C911 C 0.96765 0.13588 0.41701 0.0
C912 C 0.9466 0.142 0.39991 0.0
C913 C 0.91027 0.14532 0.40294 0.0
C914 C 0.89557 0.1433 0.42276 0.0
H915 H 0.84543 0.08854 0.45996 0.0
H916 H 0.83949 0.11261 0.44194 0.0
H917 H 0.87979 0.09582 0.44168 0.0
H918 H 0.96987 0.12929 0.44966 0.0
H919 H 0.99565 0.13291 0.41515 0.0
H920 H 0.82442 0.92158 0.06345 0.0
H921 H 0.83989 0.93 0.0275 0.0
H922 H 0.8838 0.85936 0.02148 0.0
H923 H 0.8705 0.85131 0.05774 0.0
H924 H 0.92693 0.89134 1.0055 0.0
H925 H 0.79317 0.90864 0.97516 0.0
H926 H 0.80396 0.9277 0.99655 0.0
H927 H 0.8006 0.89591 1.00042 0.0
C928 C 0.83749 0.90783 0.05453 0.0
C929 C 0.84606 0.88571 0.0636 0.0
C930 C 0.84586 0.91257 0.03384 0.0
C931 C 0.86242 0.89517 0.0216 0.0
C932 C 0.87076 0.87302 0.03053 0.0
H933 H 0.88553 0.90439 0.88761 0.0
H934 H 0.86843 0.89387 0.92289 0.0
C935 C 0.86276 0.86835 0.05127 0.0
C936 C 0.8727 0.9004 0.99982 0.0
H937 H 0.84116 0.91996 0.95331 0.0
C938 C 0.90809 0.89745 0.99406 0.0
C939 C 0.8481 0.90805 0.98477 0.0
C940 C 0.80928 0.91002 0.98946 0.0
C941 C 0.91967 0.90228 0.97384 0.0
C942 C 0.89541 0.91102 0.95905 0.0
C943 C 0.85988 0.91357 0.96469 0.0
C944 C 0.90623 0.91737 0.9376 0.0
C945 C 0.95767 0.89745 0.96846 0.0
C946 C 0.93295 0.93428 0.93403 0.0
C947 C 0.94331 0.94 0.91385 0.0
C948 C 0.92675 0.92924 0.89671 0.0
C949 C 0.89944 0.91268 0.90036 0.0
C950 C 0.88935 0.9068 0.92056 0.0
H951 H 0.96954 0.88417 0.97915 0.0
H952 H 0.96033 0.89072 0.95238 0.0
H953 H 0.97301 0.91428 0.96986 0.0
H954 H 0.94581 0.94314 0.94688 0.0
H955 H 0.9646 0.95268 0.91173 0.0
H956 H 0.63772 0.67031 0.55424 0.0
H957 H 0.62888 0.66229 0.51742 0.0
H958 H 0.6814 0.59455 0.52391 0.0
H959 H 0.6913 0.60264 0.56069 0.0
H960 H 0.68214 0.65166 0.48617 0.0
H961 H 0.58395 0.57877 0.49662 0.0
H962 H 0.59443 0.59991 0.51685 0.0
H963 H 0.62395 0.57574 0.51128 0.0
C964 C 0.64787 0.65383 0.54784 0.0
C965 C 0.66534 0.63714 0.56051 0.0
C966 C 0.64254 0.64922 0.5268 0.0
C967 C 0.65415 0.62774 0.518 0.0
C968 C 0.67175 0.61109 0.53048 0.0
H969 H 0.68492 0.58393 0.3916 0.0
H970 H 0.69081 0.59714 0.42752 0.0
C971 C 0.67731 0.61573 0.55152 0.0
C972 C 0.64812 0.62285 0.49572 0.0
H973 H 0.6051 0.58529 0.46253 0.0
C974 C 0.6652 0.63722 0.48097 0.0
C975 C 0.62565 0.60421 0.48901 0.0
C976 C 0.60565 0.58884 0.50421 0.0
C977 C 0.66114 0.63299 0.45967 0.0
C978 C 0.63956 0.61385 0.45298 0.0
C979 C 0.62173 0.5999 0.46771 0.0
C980 C 0.63623 0.60739 0.43079 0.0
C981 C 0.67992 0.64902 0.44445 0.0
C982 C 0.60353 0.60874 0.42071 0.0
C983 C 0.60009 0.60122 0.40013 0.0
C984 C 0.62919 0.59187 0.38941 0.0
C985 C 0.66198 0.59091 0.39949 0.0
C986 C 0.66545 0.5986 0.41996 0.0
H987 H 0.68837 0.66609 0.4517 0.0
H988 H 0.70374 0.63977 0.43861 0.0
H989 H 0.66277 0.65307 0.43099 0.0
H990 H 0.58061 0.61535 0.42887 0.0
H991 H 0.57444 0.60195 0.39284 0.0
H992 H 0.40235 0.6276 0.95791 0.0
H993 H 0.41621 0.62542 0.9948 0.0
H994 H 0.32297 0.66609 1.0089 0.0
H995 H 0.30888 0.66831 0.97199 0.0
H996 H 0.38219 0.68484 0.02668 0.0
H997 H 0.37425 0.5877 0.04286 0.0
H998 H 0.40199 0.5949 0.02121 0.0
H999 H 0.35557 0.60099 0.01989 0.0
C1000 C 0.38429 0.63555 0.96889 0.0
C1001 C 0.3545 0.64815 0.962 0.0
C1002 C 0.39226 0.63428 0.99 0.0
C1003 C 0.37045 0.64539 1.00465 0.0
C1004 C 0.34014 0.65736 0.99787 0.0
H1005 H 0.39536 0.63864 0.13916 0.0
H1006 H 0.37326 0.63482 0.10369 0.0
C1007 C 0.33219 0.65867 0.97678 0.0
C1008 C 0.38087 0.64636 0.0268 0.0
H1009 H 0.40279 0.61182 0.06845 0.0
C1010 C 0.38642 0.66886 0.03585 0.0
C1011 C 0.38607 0.62552 0.03883 0.0
C1012 C 0.37884 0.60091 0.03029 0.0
C1013 C 0.39789 0.67111 0.0564 0.0
C1014 C 0.40457 0.65028 0.06814 0.0
C1015 C 0.39806 0.62776 0.05933 0.0
C1016 C 0.41862 0.65163 0.08954 0.0
C1017 C 0.40259 0.6958 0.0654 0.0
C1018 C 0.45177 0.66189 0.09329 0.0
C1019 C 0.46454 0.66401 0.11349 0.0
C1020 C 0.44448 0.65581 0.13039 0.0
C1021 C 0.41162 0.64498 0.12651 0.0
C1022 C 0.39887 0.64286 0.10627 0.0
H1023 H 0.3878 0.70945 0.05647 0.0
H1024 H 0.3937 0.69637 0.08177 0.0
H1025 H 0.43091 0.70071 0.06496 0.0
H1026 H 0.46777 0.66832 0.08056 0.0
H1027 H 0.49025 0.67197 0.11585 0.0
H1028 H 0.20808 0.85461 0.47269 0.0
H1029 H 0.19126 0.85665 0.50927 0.0
H1030 H 0.10657 0.90454 0.49399 0.0
H1031 H 0.12248 0.9022 0.45735 0.0
H1032 H 0.16251 0.91211 0.53438 0.0
H1033 H 0.08201 0.82921 0.5255 0.0
H1034 H 0.12409 0.83163 0.51267 0.0
H1035 H 0.08806 0.84976 0.50423 0.0
C1036 C 0.186 0.8657 0.4771 0.0
C1037 C 0.16655 0.87815 0.46203 0.0
C1038 C 0.17662 0.86696 0.49801 0.0
C1039 C 0.14775 0.88076 0.50423 0.0
C1040 C 0.1291 0.89394 0.48943 0.0
H1041 H 0.01708 0.87549 0.61323 0.0
H1042 H 0.0417 0.8801 0.57851 0.0
C1043 C 0.13837 0.89265 0.46852 0.0
C1044 C 0.1352 0.87986 0.52588 0.0
H1045 H 0.08309 0.84715 0.55832 0.0
C1046 C 0.14525 0.89792 0.53973 0.0
C1047 C 0.11252 0.86139 0.5326 0.0
C1048 C 0.1008 0.84182 0.51808 0.0
C1049 C 0.13298 0.89799 0.56028 0.0
C1050 C 0.1104 0.87939 0.56708 0.0
C1051 C 0.10043 0.86137 0.55312 0.0
C1052 C 0.09603 0.87838 0.58844 0.0
C1053 C 0.14358 0.91824 0.57439 0.0
C1054 C 0.1184 0.876 0.60561 0.0
C1055 C 0.10436 0.87331 0.62553 0.0
C1056 C 0.06768 0.87271 0.62859 0.0
C1057 C 0.04543 0.87553 0.61137 0.0
C1058 C 0.05945 0.87828 0.59153 0.0
H1059 H 0.15363 0.93388 0.56555 0.0
H1060 H 0.12103 0.92407 0.58408 0.0
H1061 H 0.16485 0.91208 0.58486 0.0
H1062 H 0.14669 0.87552 0.60355 0.0
H1063 H 0.12219 0.8709 0.63843 0.0
H1064 H 0.22467 0.29836 0.39736 0.0
H1065 H 0.20719 0.26289 0.37731 0.0
H1066 H 0.13554 0.30595 0.3416 0.0
H1067 H 0.15252 0.34128 0.3617 0.0
H1068 H 0.12852 0.24964 0.37549 0.0
H1069 H 0.19295 0.26178 0.29888 0.0
H1070 H 0.21082 0.27432 0.32246 0.0
H1071 H 0.17319 0.28777 0.31046 0.0
C1072 C 0.20585 0.30031 0.38489 0.0
C1073 C 0.18989 0.3225 0.38106 0.0
C1074 C 0.19582 0.28008 0.37353 0.0
C1075 C 0.17028 0.28189 0.35791 0.0
C1076 C 0.15558 0.30426 0.35343 0.0
H1077 H 0.04249 0.19537 0.2785 0.0
H1078 H 0.07611 0.22648 0.29643 0.0
C1079 C 0.16518 0.32437 0.36496 0.0
C1080 C 0.1559 0.2602 0.34782 0.0
H1081 H 0.1484 0.23204 0.30115 0.0
C1082 C 0.13328 0.24547 0.35933 0.0
C1083 C 0.16179 0.25519 0.32669 0.0
C1084 C 0.18617 0.27045 0.31382 0.0
C1085 C 0.11528 0.22632 0.35006 0.0
C1086 C 0.12087 0.22135 0.32883 0.0
C1087 C 0.14424 0.23578 0.31744 0.0
C1088 C 0.10114 0.20218 0.31789 0.0
C1089 C 0.08866 0.21257 0.3627 0.0
C1090 C 0.10422 0.17813 0.32387 0.0
C1091 C 0.08489 0.16033 0.31367 0.0
C1092 C 0.06263 0.16628 0.29711 0.0
C1093 C 0.05974 0.1903 0.29109 0.0
C1094 C 0.0789 0.20807 0.30132 0.0
H1095 H 0.08313 0.2213 0.37779 0.0
H1096 H 0.06358 0.21093 0.354 0.0
H1097 H 0.09869 0.19434 0.36584 0.0
H1098 H 0.12175 0.17309 0.33633 0.0
H1099 H 0.08778 0.14189 0.31848 0.0
H1100 H 0.28429 0.21784 0.8908 0.0
H1101 H 0.30261 0.25186 0.86924 0.0
H1102 H 0.39296 0.21202 0.84844 0.0
H1103 H 0.37458 0.17802 0.8696 0.0
H1104 H 0.36668 0.27605 0.8743 0.0
H1105 H 0.3557 0.24059 0.79456 0.0
H1106 H 0.33383 0.22678 0.81635 0.0
H1107 H 0.37976 0.22125 0.81157 0.0
C1108 C 0.30752 0.21615 0.88119 0.0
C1109 C 0.32803 0.19529 0.88191 0.0
C1110 C 0.31808 0.23563 0.86899 0.0
C1111 C 0.349 0.23442 0.85708 0.0
C1112 C 0.36871 0.21325 0.85719 0.0
H1113 H 0.49203 0.32665 0.79169 0.0
H1114 H 0.45999 0.29395 0.80862 0.0
C1115 C 0.35831 0.19389 0.86943 0.0
C1116 C 0.36265 0.25585 0.84605 0.0
H1117 H 0.39164 0.27552 0.79893 0.0
C1118 C 0.37165 0.27609 0.85777 0.0
C1119 C 0.3693 0.25582 0.8245 0.0
C1120 C 0.35884 0.23503 0.81096 0.0
C1121 C 0.38845 0.2959 0.84869 0.0
C1122 C 0.3959 0.29561 0.82723 0.0
C1123 C 0.38607 0.27564 0.8154 0.0
C1124 C 0.41497 0.31552 0.81694 0.0
C1125 C 0.3994 0.31657 0.86226 0.0
C1126 C 0.40021 0.33846 0.81594 0.0
C1127 C 0.41857 0.35717 0.80641 0.0
C1128 C 0.45185 0.35321 0.79756 0.0
C1129 C 0.46655 0.33024 0.79854 0.0
C1130 C 0.44818 0.31153 0.80806 0.0
H1131 H 0.3986 0.31184 0.87895 0.0
H1132 H 0.42644 0.32268 0.85831 0.0
H1133 H 0.38119 0.33176 0.85971 0.0
H1134 H 0.3744 0.34185 0.82241 0.0
H1135 H 0.40668 0.37473 0.80591 0.0
H1136 H 0.69508 0.18876 0.66436 0.0
H1137 H 0.67369 0.22074 0.68727 0.0
H1138 H 0.63746 0.26017 0.63407 0.0
H1139 H 0.658 0.22824 0.61133 0.0
H1140 H 0.68622 0.26992 0.69052 0.0
H1141 H 0.5479 0.25238 0.6678 0.0
H1142 H 0.58326 0.23221 0.66144 0.0
H1143 H 0.57577 0.2585 0.646 0.0
C1144 C 0.68292 0.20442 0.65762 0.0
C1145 C 0.67765 0.20588 0.63613 0.0
C1146 C 0.67066 0.22262 0.67069 0.0
C1147 C 0.65312 0.24254 0.66241 0.0
C1148 C 0.64994 0.24465 0.64085 0.0
H1149 H 0.55142 0.37081 0.70515 0.0
H1150 H 0.58217 0.3395 0.68589 0.0
C1151 C 0.66181 0.22645 0.62787 0.0
C1152 C 0.63687 0.26076 0.67612 0.0
H1153 H 0.55868 0.28841 0.68645 0.0
C1154 C 0.6583 0.27383 0.68979 0.0
C1155 C 0.60032 0.26572 0.67528 0.0
C1156 C 0.5754 0.2513 0.662 0.0
C1157 C 0.64431 0.2923 0.70206 0.0
C1158 C 0.60806 0.29771 0.70063 0.0
C1159 C 0.58656 0.28435 0.68732 0.0
C1160 C 0.59174 0.31729 0.71268 0.0
C1161 C 0.6684 0.30634 0.7161 0.0
C1162 C 0.58682 0.31509 0.73411 0.0
C1163 C 0.56893 0.33282 0.74514 0.0
C1164 C 0.55586 0.35318 0.73494 0.0
C1165 C 0.56123 0.35542 0.71349 0.0
C1166 C 0.57886 0.33758 0.70247 0.0
H1167 H 0.6966 0.3023 0.71321 0.0
H1168 H 0.6641 0.32582 0.714 0.0
H1169 H 0.66226 0.30194 0.73245 0.0
H1170 H 0.59599 0.29934 0.7422 0.0
H1171 H 0.56456 0.33026 0.76155 0.0
H1172 H 0.8005 0.33032 0.16842 0.0
H1173 H 0.81534 0.29796 0.19264 0.0
H1174 H 0.87497 0.2629 0.1447 0.0
H1175 H 0.85977 0.29468 0.12048 0.0
H1176 H 0.83105 0.23176 0.16819 0.0
H1177 H 0.91483 0.28995 0.21805 0.0
H1178 H 0.87027 0.29943 0.21355 0.0
H1179 H 0.90107 0.29895 0.19248 0.0
C1180 C 0.81643 0.31555 0.16303 0.0
C1181 C 0.82935 0.3152 0.14262 0.0
C1182 C 0.82512 0.2972 0.1769 0.0
C1183 C 0.84672 0.27823 0.17054 0.0
C1184 C 0.85847 0.27744 0.14998 0.0
H1185 H 0.96635 0.15871 0.20717 0.0
H1186 H 0.93135 0.18957 0.19056 0.0
C1187 C 0.84995 0.29571 0.13619 0.0
C1188 C 0.8582 0.25932 0.18516 0.0
H1189 H 0.91392 0.24894 0.22566 0.0
C1190 C 0.84879 0.23554 0.18094 0.0
C1191 C 0.88122 0.2643 0.20184 0.0
C1192 C 0.89274 0.28948 0.20679 0.0
C1193 C 0.8627 0.21654 0.19251 0.0
C1194 C 0.88718 0.22142 0.20847 0.0
C1195 C 0.89522 0.24526 0.21338 0.0
C1196 C 0.90715 0.20207 0.21886 0.0
C1197 C 0.8515 0.19136 0.1873 0.0
C1198 C 0.9058 0.19909 0.24042 0.0
C1199 C 0.92602 0.18139 0.25009 0.0
C1200 C 0.94828 0.16654 0.23836 0.0
C1201 C 0.94948 0.16967 0.21676 0.0
C1202 C 0.92925 0.18725 0.20716 0.0
H1203 H 0.82523 0.19103 0.17974 0.0
H1204 H 0.87077 0.18349 0.17635 0.0
H1205 H 0.85053 0.17996 0.20136 0.0
H1206 H 0.88914 0.21049 0.24976 0.0
H1207 H 0.9245 0.17957 0.26675 0.0
H1208 H 0.75294 0.71105 0.66697 0.0
H1209 H 0.80177 0.73072 0.68531 0.0
H1210 H 0.79772 0.78941 0.64212 0.0
H1211 H 0.74985 0.7697 0.62355 0.0
H1212 H 0.86614 0.77541 0.65137 0.0
H1213 H 0.78705 0.78898 0.72292 0.0
H1214 H 0.79082 0.75861 0.71417 0.0
H1215 H 0.76739 0.77998 0.69871 0.0
C1216 C 0.76285 0.72797 0.66125 0.0
C1217 C 0.74721 0.73898 0.64399 0.0
C1218 C 0.79049 0.73931 0.67185 0.0
C1219 C 0.80291 0.76178 0.66533 0.0
C1220 C 0.78839 0.7722 0.64755 0.0
H1221 H 0.93187 0.87943 0.70438 0.0
H1222 H 0.89457 0.85049 0.68616 0.0
C1223 C 0.76087 0.76096 0.63702 0.0
C1224 C 0.83022 0.77506 0.67717 0.0
H1225 H 0.84497 0.80402 0.72296 0.0
C1226 C 0.86162 0.78152 0.66707 0.0
C1227 C 0.82426 0.78308 0.69766 0.0
C1228 C 0.79048 0.77752 0.70902 0.0
C1229 C 0.88696 0.796 0.67681 0.0
C1230 C 0.88056 0.80446 0.69706 0.0
C1231 C 0.84972 0.79747 0.70741 0.0
C1232 C 0.90478 0.82147 0.70745 0.0
C1233 C 0.92043 0.8022 0.66541 0.0
C1234 C 0.92286 0.81474 0.72544 0.0
C1235 C 0.94439 0.83119 0.73575 0.0
C1236 C 0.94753 0.85479 0.72855 0.0
C1237 C 0.9299 0.86137 0.71032 0.0
C1238 C 0.90863 0.84486 0.69989 0.0
H1239 H 0.92465 0.79043 0.65179 0.0
H1240 H 0.91901 0.82094 0.65986 0.0
H1241 H 0.9435 0.80072 0.67588 0.0
H1242 H 0.92022 0.79678 0.73152 0.0
H1243 H 0.95838 0.82548 0.74947 0.0
H1244 H 0.71947 0.80675 0.13722 0.0
H1245 H 0.6709 0.78797 0.15647 0.0
H1246 H 0.74596 0.75014 0.19422 0.0
H1247 H 0.7943 0.76902 0.17532 0.0
H1248 H 0.65962 0.73901 0.15737 0.0
H1249 H 0.67524 0.77318 0.23719 0.0
H1250 H 0.69544 0.78756 0.21512 0.0
H1251 H 0.71565 0.76181 0.22678 0.0
C1252 C 0.72552 0.79495 0.15002 0.0
C1253 C 0.76066 0.7893 0.15474 0.0
C1254 C 0.69779 0.78414 0.16092 0.0
C1255 C 0.70477 0.76781 0.17693 0.0
C1256 C 0.73987 0.763 0.18222 0.0
H1257 H 0.60475 0.64277 0.22266 0.0
H1258 H 0.64026 0.67393 0.206 0.0
C1259 C 0.76749 0.77365 0.17128 0.0
C1260 C 0.67587 0.75378 0.18665 0.0
H1261 H 0.64265 0.73633 0.23349 0.0
C1262 C 0.65547 0.73877 0.17397 0.0
C1263 C 0.67029 0.75352 0.20832 0.0
C1264 C 0.69008 0.77006 0.22263 0.0
C1265 C 0.63102 0.72264 0.18248 0.0
C1266 C 0.62703 0.72141 0.20419 0.0
C1267 C 0.64604 0.73722 0.21683 0.0
C1268 C 0.60496 0.70275 0.21403 0.0
C1269 C 0.61015 0.7066 0.16826 0.0
C1270 C 0.57346 0.7087 0.22413 0.0
C1271 C 0.55304 0.69088 0.23357 0.0
C1272 C 0.56425 0.66698 0.23335 0.0
C1273 C 0.5957 0.6611 0.22316 0.0
C1274 C 0.61588 0.67883 0.21358 0.0
H1275 H 0.61065 0.7131 0.15201 0.0
H1276 H 0.62158 0.68837 0.16859 0.0
H1277 H 0.58234 0.70526 0.17348 0.0
H1278 H 0.5647 0.72709 0.22467 0.0
H1279 H 0.52895 0.69585 0.24144 0.0
H1280 H 0.25198 0.74907 0.39959 0.0
H1281 H 0.30042 0.72873 0.38214 0.0
H1282 H 0.30451 0.7849 0.33646 0.0
H1283 H 0.25614 0.80561 0.35419 0.0
H1284 H 0.29685 0.71158 0.3429 0.0
H1285 H 0.40839 0.77555 0.34962 0.0
H1286 H 0.36906 0.778 0.36518 0.0
H1287 H 0.36892 0.78788 0.33872 0.0
C1288 C 0.26352 0.75724 0.38597 0.0
C1289 C 0.25018 0.77884 0.37815 0.0
C1290 C 0.29123 0.74563 0.37603 0.0
C1291 C 0.30626 0.7553 0.35803 0.0
C1292 C 0.2938 0.7773 0.35054 0.0
H1293 H 0.45594 0.69283 0.27065 0.0
H1294 H 0.41467 0.71946 0.28853 0.0
C1295 C 0.26612 0.78909 0.36063 0.0
C1296 C 0.33277 0.74117 0.34638 0.0
H1297 H 0.41753 0.74141 0.32851 0.0
C1298 C 0.32326 0.71812 0.33982 0.0
C1299 C 0.36714 0.74976 0.34221 0.0
C1300 C 0.37921 0.77407 0.34943 0.0
C1301 C 0.34711 0.70338 0.32929 0.0
C1302 C 0.38165 0.71178 0.32541 0.0
C1303 C 0.39106 0.735 0.33159 0.0
C1304 C 0.40833 0.69646 0.3152 0.0
C1305 C 0.33495 0.67899 0.32225 0.0
C1306 C 0.41909 0.67502 0.3245 0.0
C1307 C 0.44244 0.65977 0.3143 0.0
C1308 C 0.45549 0.66571 0.2946 0.0
C1309 C 0.44583 0.68765 0.28568 0.0
C1310 C 0.42243 0.70291 0.2959 0.0
H1311 H 0.30578 0.6778 0.32143 0.0
H1312 H 0.34597 0.67455 0.30683 0.0
H1313 H 0.34421 0.66534 0.33344 0.0
H1314 H 0.40902 0.66992 0.33955 0.0
H1315 H 0.44956 0.64305 0.32161 0.0
H1316 H 0.30684 0.77217 0.8555 0.0
H1317 H 0.25864 0.79028 0.83658 0.0
H1318 H 0.18799 0.73557 0.85902 0.0
H1319 H 0.23566 0.71857 0.87971 0.0
H1320 H 0.21772 0.77879 0.80727 0.0
H1321 H 0.13388 0.79219 0.87661 0.0
H1322 H 0.17847 0.78156 0.87843 0.0
H1323 H 0.14332 0.76137 0.87157 0.0
C1324 C 0.28098 0.7641 0.85673 0.0
C1325 C 0.27509 0.74428 0.86973 0.0
C1326 C 0.2534 0.77436 0.84563 0.0
C1327 C 0.21923 0.76481 0.84681 0.0
C1328 C 0.21375 0.74387 0.85844 0.0
H1329 H 0.0628 0.8288 0.76255 0.0
H1330 H 0.10358 0.80064 0.77876 0.0
C1331 C 0.24128 0.73386 0.86999 0.0
C1332 C 0.18972 0.77744 0.83624 0.0
H1333 H 0.10995 0.80388 0.84459 0.0
C1334 C 0.19413 0.78424 0.81545 0.0
C1335 C 0.15904 0.78489 0.84693 0.0
C1336 C 0.15346 0.77985 0.86965 0.0
C1337 C 0.16952 0.7988 0.80528 0.0
C1338 C 0.13849 0.80582 0.81583 0.0
C1339 C 0.13356 0.79844 0.83642 0.0
C1340 C 0.11185 0.82199 0.80632 0.0
C1341 C 0.17814 0.80748 0.78373 0.0
C1342 C 0.10124 0.84278 0.81682 0.0
C1343 C 0.07698 0.85844 0.80788 0.0
C1344 C 0.06329 0.85385 0.7881 0.0
C1345 C 0.0734 0.83292 0.7777 0.0
C1346 C 0.09694 0.81692 0.78689 0.0
H1347 H 0.20687 0.80664 0.78055 0.0
H1348 H 0.16472 0.79586 0.77225 0.0
H1349 H 0.1693 0.82617 0.78135 0.0
H1350 H 0.11219 0.84715 0.83183 0.0
H1351 H 0.06971 0.8745 0.81619 0.0
loop_
_geom_bond_atom_site_label_1
_geom_bond_atom_site_label_2
_geom_bond_distance
_geom_bond_site_symmetry_2
_ccdc_geom_bond_type
H0 C1 0.949 . S
C1 H0 0.949 . S
C1 C2 1.395 . S
C1 C3 1.391 . S
C2 C1 1.395 . S
C2 C5 1.390 . S
C3 C1 1.391 . S
C3 C7 1.387 . S
C3 C8 1.491 . S
H4 C5 0.950 . S
C5 C2 1.390 . S
C5 H4 0.950 . S
C5 C6 1.378 . S
C6 C5 1.378 . S
C6 C7 1.409 . S
C7 C3 1.387 . S
C7 C6 1.409 . S
C7 H9 0.951 . S
C8 C3 1.491 . S
C8 C10 1.382 . S
C8 C12 1.404 . S
H9 C7 0.951 . S
C10 C8 1.382 . S
C10 C11 1.390 . S
C10 H15 0.949 . S
C11 C10 1.390 . S
C11 C16 1.399 . S
C12 C8 1.404 . S
C12 H13 0.950 . S
C12 C14 1.375 . S
H13 C12 0.950 . S
C14 C12 1.375 . S
C14 C16 1.382 . S
C14 H18 0.950 . S
H15 C10 0.949 . S
C16 C11 1.399 . S
C16 C14 1.382 . S
C16 H17 0.952 . S
H17 C16 0.952 . S
H18 C14 0.950 . S
H19 C20 0.949 . S
C20 H19 0.949 . S
C20 C21 1.395 . S
C20 C22 1.391 . S
C21 C20 1.395 . S
C21 C24 1.390 . S
C22 C20 1.391 . S
C22 C26 1.387 . S
C22 C27 1.491 . S
H23 C24 0.950 . S
C24 C21 1.390 . S
C24 H23 0.950 . S
C24 C25 1.378 . S
C25 C24 1.378 . S
C25 C26 1.409 . S
C26 C22 1.387 . S
C26 C25 1.409 . S
C26 H28 0.951 . S
C27 C22 1.491 . S
C27 C29 1.382 . S
C27 C31 1.404 . S
H28 C26 0.951 . S
C29 C27 1.382 . S
C29 C30 1.390 . S
C29 H34 0.949 . S
C30 C29 1.390 . S
C30 C35 1.399 . S
C31 C27 1.404 . S
C31 H32 0.950 . S
C31 C33 1.375 . S
H32 C31 0.950 . S
C33 C31 1.375 . S
C33 C35 1.382 . S
C33 H37 0.950 . S
H34 C29 0.949 . S
C35 C30 1.399 . S
C35 C33 1.382 . S
C35 H36 0.952 . S
H36 C35 0.952 . S
H37 C33 0.950 . S
H38 C39 0.949 . S
C39 H38 0.949 . S
C39 C40 1.395 . S
C39 C41 1.391 . S
C40 C39 1.395 . S
C40 C43 1.390 . S
C41 C39 1.391 . S
C41 C45 1.387 . S
C41 C46 1.491 . S
H42 C43 0.950 . S
C43 C40 1.390 . S
C43 H42 0.950 . S
C43 C44 1.378 . S
C44 C43 1.378 . S
C44 C45 1.409 . S
C45 C41 1.387 . S
C45 C44 1.409 . S
C45 H47 0.951 . S
C46 C41 1.491 . S
C46 C48 1.382 . S
C46 C50 1.404 . S
H47 C45 0.951 . S
C48 C46 1.382 . S
C48 C49 1.390 . S
C48 H53 0.949 . S
C49 C48 1.390 . S
C49 C54 1.399 . S
C50 C46 1.404 . S
C50 H51 0.950 . S
C50 C52 1.375 . S
H51 C50 0.950 . S
C52 C50 1.375 . S
C52 C54 1.382 . S
C52 H56 0.950 . S
H53 C48 0.949 . S
C54 C49 1.399 . S
C54 C52 1.382 . S
C54 H55 0.952 . S
H55 C54 0.952 . S
H56 C52 0.950 . S
H57 C58 0.949 . S
C58 H57 0.949 . S
C58 C59 1.395 . S
C58 C60 1.391 . S
C59 C58 1.395 . S
C59 C62 1.390 . S
C60 C58 1.391 . S
C60 C64 1.387 . S
C60 C65 1.491 . S
H61 C62 0.950 . S
C62 C59 1.390 . S
C62 H61 0.950 . S
C62 C63 1.378 . S
C63 C62 1.378 . S
C63 C64 1.409 . S
C64 C60 1.387 . S
C64 C63 1.409 . S
C64 H66 0.951 . S
C65 C60 1.491 . S
C65 C67 1.382 . S
C65 C69 1.404 . S
H66 C64 0.951 . S
C67 C65 1.382 . S
C67 C68 1.390 . S
C67 H72 0.949 . S
C68 C67 1.390 . S
C68 C73 1.399 . S
C69 C65 1.404 . S
C69 H70 0.950 . S
C69 C71 1.375 . S
H70 C69 0.950 . S
C71 C69 1.375 . S
C71 C73 1.382 . S
C71 H75 0.950 . S
H72 C67 0.949 . S
C73 C68 1.399 . S
C73 C71 1.382 . S
C73 H74 0.952 . S
H74 C73 0.952 . S
H75 C71 0.950 . S
H76 C77 0.949 . S
C77 H76 0.949 . S
C77 C78 1.395 . S
C77 C79 1.391 . S
C78 C77 1.395 . S
C78 C81 1.390 . S
C79 C77 1.391 . S
C79 C83 1.387 . S
C79 C84 1.491 . S
H80 C81 0.950 . S
C81 C78 1.390 . S
C81 H80 0.950 . S
C81 C82 1.378 . S
C82 C81 1.378 . S
C82 C83 1.409 . S
C83 C79 1.387 . S
C83 C82 1.409 . S
C83 H85 0.951 . S
C84 C79 1.491 . S
C84 C86 1.382 . S
C84 C88 1.404 . S
H85 C83 0.951 . S
C86 C84 1.382 . S
C86 C87 1.390 . S
C86 H91 0.949 . S
C87 C86 1.390 . S
C87 C92 1.399 . S
C88 C84 1.404 . S
C88 H89 0.950 . S
C88 C90 1.375 . S
H89 C88 0.950 . S
C90 C88 1.375 . S
C90 C92 1.382 . S
C90 H94 0.950 . S
H91 C86 0.949 . S
C92 C87 1.399 . S
C92 C90 1.382 . S
C92 H93 0.952 . S
H93 C92 0.952 . S
H94 C90 0.950 . S
H95 C96 0.949 . S
C96 H95 0.949 . S
C96 C97 1.395 . S
C96 C98 1.391 . S
C97 C96 1.395 . S
C97 C100 1.390 . S
C98 C96 1.391 . S
C98 C102 1.387 . S
C98 C103 1.491 . S
H99 C100 0.950 . S
C100 C97 1.390 . S
C100 H99 0.950 . S
C100 C101 1.378 . S
C101 C100 1.378 . S
C101 C102 1.409 . S
C102 C98 1.387 . S
C102 C101 1.409 . S
C102 H104 0.951 . S
C103 C98 1.491 . S
C103 C105 1.382 . S
C103 C107 1.404 . S
H104 C102 0.951 . S
C105 C103 1.382 . S
C105 C106 1.390 . S
C105 H110 0.949 . S
C106 C105 1.390 . S
C106 C111 1.399 . S
C107 C103 1.404 . S
C107 H108 0.950 . S
C107 C109 1.375 . S
H108 C107 0.950 . S
C109 C107 1.375 . S
C109 C111 1.382 . S
C109 H113 0.950 . S
H110 C105 0.949 . S
C111 C106 1.399 . S
C111 C109 1.382 . S
C111 H112 0.952 . S
H112 C111 0.952 . S
H113 C109 0.950 . S
H114 C115 0.949 . S
C115 H114 0.949 . S
C115 C116 1.395 . S
C115 C117 1.391 . S
C116 C115 1.395 . S
C116 C119 1.390 . S
C117 C115 1.391 . S
C117 C121 1.387 . S
C117 C122 1.491 . S
H118 C119 0.950 . S
C119 C116 1.390 . S
C119 H118 0.950 . S
C119 C120 1.378 . S
C120 C119 1.378 . S
C120 C121 1.409 . S
C121 C117 1.387 . S
C121 C120 1.409 . S
C121 H123 0.951 . S
C122 C117 1.491 . S
C122 C124 1.382 . S
C122 C126 1.404 . S
H123 C121 0.951 . S
C124 C122 1.382 . S
C124 C125 1.390 . S
C124 H129 0.949 . S
C125 C124 1.390 . S
C125 C130 1.399 . S
C126 C122 1.404 . S
C126 H127 0.950 . S
C126 C128 1.375 . S
H127 C126 0.950 . S
C128 C126 1.375 . S
C128 C130 1.382 . S
C128 H132 0.950 . S
H129 C124 0.949 . S
C130 C125 1.399 . S
C130 C128 1.382 . S
C130 H131 0.952 . S
H131 C130 0.952 . S
H132 C128 0.950 . S
H133 C134 0.949 . S
C134 H133 0.949 . S
C134 C135 1.395 . S
C134 C136 1.391 . S
C135 C134 1.395 . S
C135 C138 1.390 . S
C136 C134 1.391 . S
C136 C140 1.387 . S
C136 C141 1.491 . S
H137 C138 0.950 . S
C138 C135 1.390 . S
C138 H137 0.950 . S
C138 C139 1.378 . S
C139 C138 1.378 . S
C139 C140 1.409 . S
C140 C136 1.387 . S
C140 C139 1.409 . S
C140 H142 0.951 . S
C141 C136 1.491 . S
C141 C143 1.382 . S
C141 C145 1.404 . S
H142 C140 0.951 . S
C143 C141 1.382 . S
C143 C144 1.390 . S
C143 H148 0.949 . S
C144 C143 1.390 . S
C144 C149 1.399 . S
C145 C141 1.404 . S
C145 H146 0.950 . S
C145 C147 1.375 . S
H146 C145 0.950 . S
C147 C145 1.375 . S
C147 C149 1.382 . S
C147 H151 0.950 . S
H148 C143 0.949 . S
C149 C144 1.399 . S
C149 C147 1.382 . S
C149 H150 0.952 . S
H150 C149 0.952 . S
H151 C147 0.950 . S
Eu152 N181 2.600 . S
Eu152 N187 2.562 . S
Eu152 O196 2.462 . S
Eu152 O197 2.373 . S
Eu152 O199 2.432 . S
Eu152 O200 2.295 . S
Eu152 O204 2.354 . S
Eu152 O207 2.372 . S
Eu152 C216 2.787 . S
C153 N154 1.365 . S
C153 C156 1.405 . S
C153 C160 1.448 . S
N154 C153 1.365 . S
N154 C157 1.319 . S
N154 Eu163 2.600 . S
C155 C157 1.397 . S
C155 C158 1.367 . S
C155 H175 0.931 . S
C156 C153 1.405 . S
C156 C158 1.403 . S
C156 C162 1.439 . S
C157 N154 1.319 . S
C157 C155 1.397 . S
C157 H168 0.930 . S
C158 C155 1.367 . S
C158 C156 1.403 . S
C158 H179 0.929 . S
C159 C160 1.430 . S
C159 C161 1.387 . S
C159 C165 1.404 . S
C160 C153 1.448 . S
C160 C159 1.430 . S
C160 N164 1.351 . S
C161 C159 1.387 . S
C161 C162 1.374 . S
C161 H176 0.931 . S
C162 C156 1.439 . S
C162 C161 1.374 . S
C162 H177 0.931 . S
Eu163 N154 2.600 . S
Eu163 N164 2.562 . S
Eu163 O198 2.310 1_655 S
Eu163 O201 2.372 . S
Eu163 O202 2.462 . S
Eu163 O203 2.373 . S
Eu163 O205 2.432 . S
Eu163 O206 2.291 1_655 S
Eu163 C227 2.787 . S
N164 C160 1.351 . S
N164 Eu163 2.562 . S
N164 C166 1.325 . S
C165 C159 1.404 . S
C165 C167 1.366 . S
C165 H173 0.930 1_545 S
C166 N164 1.325 . S
C166 C167 1.416 . S
C166 H172 0.929 . S
C167 C165 1.366 . S
C167 C166 1.416 . S
C167 H169 0.930 1_545 S
H168 C157 0.930 . S
H169 C167 0.930 1_565 S
H170 C185 0.930 . S
H171 C192 0.930 . S
H172 C166 0.929 . S
H173 C165 0.930 1_565 S
H174 C188 0.929 . S
H175 C155 0.931 . S
H176 C161 0.931 . S
H177 C162 0.931 . S
H178 C183 0.931 . S
H179 C158 0.929 . S
H180 C191 0.930 . S
N181 Eu152 2.600 . S
N181 C182 1.365 . S
N181 C185 1.319 . S
C182 N181 1.365 . S
C182 C184 1.405 . S
C182 C190 1.448 . S
C183 H178 0.931 . S
C183 C185 1.397 . S
C183 C186 1.367 . S
C184 C182 1.405 . S
C184 C186 1.403 . S
C184 C217 1.439 . S
C185 H170 0.930 . S
C185 N181 1.319 . S
C185 C183 1.397 . S
C186 C183 1.367 . S
C186 C184 1.403 . S
C186 H193 0.929 . S
N187 Eu152 2.562 . S
N187 C188 1.325 . S
N187 C190 1.351 . S
C188 H174 0.929 . S
C188 N187 1.325 . S
C188 C192 1.416 . S
C189 C190 1.430 . S
C189 C191 1.404 . S
C189 C218 1.387 . S
C190 C182 1.448 . S
C190 N187 1.351 . S
C190 C189 1.430 . S
C191 H180 0.930 . S
C191 C189 1.404 . S
C191 C192 1.366 . S
C192 H171 0.930 . S
C192 C188 1.416 . S
C192 C191 1.366 . S
H193 C186 0.929 . S
H194 C217 0.931 . S
H195 C218 0.931 . S
O196 Eu152 2.462 . S
O196 C216 1.252 . S
O197 Eu152 2.373 . S
O197 C208 1.249 . S
O198 Eu163 2.310 1_455 S
O198 C208 1.296 . S
O199 Eu152 2.432 . S
O199 C216 1.268 . S
O200 Eu152 2.295 . S
O200 C215 1.251 1_455 S
O201 Eu163 2.372 . S
O201 C215 1.257 . S
O202 Eu163 2.462 . S
O202 C227 1.252 . S
O203 Eu163 2.373 . S
O203 C219 1.249 . S
O204 Eu152 2.354 . S
O204 C219 1.240 1_455 S
O205 Eu163 2.432 . S
O205 C227 1.268 . S
O206 Eu163 2.291 1_455 S
O206 C226 1.255 . S
O207 Eu152 2.372 . S
O207 C226 1.257 . S
C208 O197 1.249 . S
C208 O198 1.296 . S
C209 C212 1.382 . S
C209 C214 1.390 . S
C209 C216 1.506 . S
C210 C211 1.398 . S
C210 C214 1.392 . S
C211 C210 1.398 . S
C211 C213 1.372 . S
C211 H228 0.931 . S
C212 C209 1.382 . S
C212 C213 1.390 . S
C212 H229 0.931 . S
C213 C211 1.372 . S
C213 C212 1.390 . S
C213 H230 0.929 . S
C214 C209 1.390 . S
C214 C210 1.392 . S
C214 H231 0.930 . S
C215 O200 1.251 1_655 S
C215 O201 1.257 . S
C216 Eu152 2.787 . S
C216 O196 1.252 . S
C216 O199 1.268 . S
C216 C209 1.506 . S
C217 C184 1.439 . S
C217 H194 0.931 . S
C217 C218 1.374 . S
C218 C189 1.387 . S
C218 H195 0.931 . S
C218 C217 1.374 . S
C219 O203 1.249 . S
C219 O204 1.240 1_655 S
C220 C223 1.382 . S
C220 C224 1.390 . S
C220 C227 1.506 . S
C221 C222 1.398 . S
C221 C224 1.392 . S
C222 C221 1.398 . S
C222 C225 1.372 . S
C222 H232 0.931 . S
C223 C220 1.382 . S
C223 C225 1.390 . S
C223 H233 0.931 . S
C224 C220 1.390 . S
C224 C221 1.392 . S
C224 H234 0.930 . S
C225 C222 1.372 . S
C225 C223 1.390 . S
C225 H235 0.929 . S
C226 O206 1.255 . S
C226 O207 1.257 . S
C227 Eu163 2.787 . S
C227 O202 1.252 . S
C227 O205 1.268 . S
C227 C220 1.506 . S
H228 C211 0.931 . S
H229 C212 0.931 . S
H230 C213 0.929 . S
H231 C214 0.930 . S
H232 C222 0.931 . S
H233 C223 0.931 . S
H234 C224 0.930 . S
H235 C225 0.929 . S
Eu236 N265 2.600 . S
Eu236 N271 2.562 . S
Eu236 O280 2.462 . S
Eu236 O281 2.373 . S
Eu236 O283 2.432 . S
Eu236 O284 2.291 . S
Eu236 O288 2.335 . S
Eu236 O291 2.372 . S
Eu236 C300 2.787 . S
C237 N238 1.365 . S
C237 C240 1.405 . S
C237 C244 1.448 . S
N238 C237 1.365 . S
N238 C241 1.319 . S
N238 Eu247 2.600 . S
C239 C241 1.397 . S
C239 C242 1.367 . S
C239 H259 0.931 . S
C240 C237 1.405 . S
C240 C242 1.403 . S
C240 C246 1.439 . S
C241 N238 1.319 . S
C241 C239 1.397 . S
C241 H252 0.930 . S
C242 C239 1.367 . S
C242 C240 1.403 . S
C242 H263 0.929 . S
C243 C244 1.430 . S
C243 C245 1.387 . S
C243 C249 1.404 . S
C244 C237 1.448 . S
C244 C243 1.430 . S
C244 N248 1.351 . S
C245 C243 1.387 . S
C245 C246 1.374 . S
C245 H260 0.931 . S
C246 C240 1.439 . S
C246 C245 1.374 . S
C246 H261 0.931 . S
Eu247 N238 2.600 . S
Eu247 N248 2.562 . S
Eu247 O282 2.335 . S
Eu247 O285 2.372 . S
Eu247 O286 2.462 . S
Eu247 O287 2.373 . S
Eu247 O289 2.432 . S
Eu247 O290 2.291 . S
Eu247 C311 2.787 . S
N248 C244 1.351 . S
N248 Eu247 2.562 . S
N248 C250 1.325 . S
C249 C243 1.404 . S
C249 C251 1.366 . S
C249 H257 0.930 . S
C250 N248 1.325 . S
C250 C251 1.416 . S
C250 H256 0.929 . S
C251 C249 1.366 . S
C251 C250 1.416 . S
C251 H253 0.930 . S
H252 C241 0.930 . S
H253 C251 0.930 . S
H254 C269 0.930 . S
H255 C276 0.930 . S
H256 C250 0.929 . S
H257 C249 0.930 . S
H258 C272 0.929 . S
H259 C239 0.931 . S
H260 C245 0.931 . S
H261 C246 0.931 . S
H262 C267 0.931 . S
H263 C242 0.929 . S
H264 C275 0.930 . S
N265 Eu236 2.600 . S
N265 C266 1.365 . S
N265 C269 1.319 . S
C266 N265 1.365 . S
C266 C268 1.405 . S
C266 C274 1.448 . S
C267 H262 0.931 . S
C267 C269 1.397 . S
C267 C270 1.367 . S
C268 C266 1.405 . S
C268 C270 1.403 . S
C268 C301 1.439 . S
C269 H254 0.930 . S
C269 N265 1.319 . S
C269 C267 1.397 . S
C270 C267 1.367 . S
C270 C268 1.403 . S
C270 H277 0.929 . S
N271 Eu236 2.562 . S
N271 C272 1.325 . S
N271 C274 1.351 . S
C272 H258 0.929 . S
C272 N271 1.325 . S
C272 C276 1.416 . S
C273 C274 1.430 . S
C273 C275 1.404 . S
C273 C302 1.387 . S
C274 C266 1.448 . S
C274 N271 1.351 . S
C274 C273 1.430 . S
C275 H264 0.930 . S
C275 C273 1.404 . S
C275 C276 1.366 . S
C276 H255 0.930 . S
C276 C272 1.416 . S
C276 C275 1.366 . S
H277 C270 0.929 . S
H278 C301 0.931 . S
H279 C302 0.931 . S
O280 Eu236 2.462 . S
O280 C300 1.252 . S
O281 Eu236 2.373 . S
O281 C292 1.249 . S
O282 Eu247 2.335 . S
O282 C292 1.264 . S
O283 Eu236 2.432 . S
O283 C300 1.268 . S
O284 Eu236 2.291 . S
O284 C299 1.255 . S
O285 Eu247 2.372 . S
O285 C299 1.257 . S
O286 Eu247 2.462 . S
O286 C311 1.252 . S
O287 Eu247 2.373 . S
O287 C303 1.249 . S
O288 Eu236 2.335 . S
O288 C303 1.264 . S
O289 Eu247 2.432 . S
O289 C311 1.268 . S
O290 Eu247 2.291 . S
O290 C310 1.255 . S
O291 Eu236 2.372 . S
O291 C310 1.257 . S
C292 O281 1.249 . S
C292 O282 1.264 . S
C293 C296 1.382 . S
C293 C298 1.390 . S
C293 C300 1.506 . S
C294 C295 1.398 . S
C294 C298 1.392 . S
C295 C294 1.398 . S
C295 C297 1.372 . S
C295 H312 0.931 . S
C296 C293 1.382 . S
C296 C297 1.390 . S
C296 H313 0.931 . S
C297 C295 1.372 . S
C297 C296 1.390 . S
C297 H314 0.929 . S
C298 C293 1.390 . S
C298 C294 1.392 . S
C298 H315 0.930 . S
C299 O284 1.255 . S
C299 O285 1.257 . S
C300 Eu236 2.787 . S
C300 O280 1.252 . S
C300 O283 1.268 . S
C300 C293 1.506 . S
C301 C268 1.439 . S
C301 H278 0.931 . S
C301 C302 1.374 . S
C302 C273 1.387 . S
C302 H279 0.931 . S
C302 C301 1.374 . S
C303 O287 1.249 . S
C303 O288 1.264 . S
C304 C307 1.382 . S
C304 C308 1.390 . S
C304 C311 1.506 . S
C305 C306 1.398 . S
C305 C308 1.392 . S
C306 C305 1.398 . S
C306 C309 1.372 . S
C306 H316 0.931 . S
C307 C304 1.382 . S
C307 C309 1.390 . S
C307 H317 0.931 . S
C308 C304 1.390 . S
C308 C305 1.392 . S
C308 H318 0.930 . S
C309 C306 1.372 . S
C309 C307 1.390 . S
C309 H319 0.929 . S
C310 O290 1.255 . S
C310 O291 1.257 . S
C311 Eu247 2.787 . S
C311 O286 1.252 . S
C311 O289 1.268 . S
C311 C304 1.506 . S
H312 C295 0.931 . S
H313 C296 0.931 . S
H314 C297 0.929 . S
H315 C298 0.930 . S
H316 C306 0.931 . S
H317 C307 0.931 . S
H318 C308 0.930 . S
H319 C309 0.929 . S
Eu320 N349 2.600 . S
Eu320 N355 2.562 . S
Eu320 O364 2.462 . S
Eu320 O365 2.373 . S
Eu320 O367 2.432 . S
Eu320 O368 2.291 . S
Eu320 O372 2.335 . S
Eu320 O375 2.372 . S
Eu320 C384 2.787 . S
C321 N322 1.365 . S
C321 C324 1.405 . S
C321 C328 1.448 . S
N322 C321 1.365 . S
N322 C325 1.319 . S
N322 Eu331 2.600 . S
C323 C325 1.397 . S
C323 C326 1.367 . S
C323 H343 0.931 . S
C324 C321 1.405 . S
C324 C326 1.403 . S
C324 C330 1.439 . S
C325 N322 1.319 . S
C325 C323 1.397 . S
C325 H336 0.930 . S
C326 C323 1.367 . S
C326 C324 1.403 . S
C326 H347 0.929 . S
C327 C328 1.430 . S
C327 C329 1.387 . S
C327 C333 1.404 . S
C328 C321 1.448 . S
C328 C327 1.430 . S
C328 N332 1.351 . S
C329 C327 1.387 . S
C329 C330 1.374 . S
C329 H344 0.931 . S
C330 C324 1.439 . S
C330 C329 1.374 . S
C330 H345 0.931 . S
Eu331 N322 2.600 . S
Eu331 N332 2.562 . S
Eu331 O366 2.335 1_655 S
Eu331 O369 2.372 . S
Eu331 O370 2.462 . S
Eu331 O371 2.373 . S
Eu331 O373 2.432 . S
Eu331 O374 2.291 1_655 S
Eu331 C395 2.787 . S
N332 C328 1.351 . S
N332 Eu331 2.562 . S
N332 C334 1.325 . S
C333 C327 1.404 . S
C333 C335 1.366 . S
C333 H341 0.930 . S
C334 N332 1.325 . S
C334 C335 1.416 . S
C334 H340 0.929 . S
C335 C333 1.366 . S
C335 C334 1.416 . S
C335 H337 0.930 . S
H336 C325 0.930 . S
H337 C335 0.930 . S
H338 C353 0.930 . S
H339 C360 0.930 1_545 S
H340 C334 0.929 . S
H341 C333 0.930 . S
H342 C356 0.929 . S
H343 C323 0.931 . S
H344 C329 0.931 . S
H345 C330 0.931 . S
H346 C351 0.931 . S
H347 C326 0.929 . S
H348 C359 0.930 1_545 S
N349 Eu320 2.600 . S
N349 C350 1.365 . S
N349 C353 1.319 . S
C350 N349 1.365 . S
C350 C352 1.405 . S
C350 C358 1.448 . S
C351 H346 0.931 . S
C351 C353 1.397 . S
C351 C354 1.367 . S
C352 C350 1.405 . S
C352 C354 1.403 . S
C352 C385 1.439 . S
C353 H338 0.930 . S
C353 N349 1.319 . S
C353 C351 1.397 . S
C354 C351 1.367 . S
C354 C352 1.403 . S
C354 H361 0.929 . S
N355 Eu320 2.562 . S
N355 C356 1.325 . S
N355 C358 1.351 . S
C356 H342 0.929 . S
C356 N355 1.325 . S
C356 C360 1.416 . S
C357 C358 1.430 . S
C357 C359 1.404 . S
C357 C386 1.387 . S
C358 C350 1.448 . S
C358 N355 1.351 . S
C358 C357 1.430 . S
C359 H348 0.930 1_565 S
C359 C357 1.404 . S
C359 C360 1.366 . S
C360 H339 0.930 1_565 S
C360 C356 1.416 . S
C360 C359 1.366 . S
H361 C354 0.929 . S
H362 C385 0.931 . S
H363 C386 0.931 . S
O364 Eu320 2.462 . S
O364 C384 1.252 . S
O365 Eu320 2.373 . S
O365 C376 1.249 . S
O366 Eu331 2.335 1_455 S
O366 C376 1.264 . S
O367 Eu320 2.432 . S
O367 C384 1.268 . S
O368 Eu320 2.291 . S
O368 C383 1.255 1_455 S
O369 Eu331 2.372 . S
O369 C383 1.257 . S
O370 Eu331 2.462 . S
O370 C395 1.252 . S
O371 Eu331 2.373 . S
O371 C387 1.249 . S
O372 Eu320 2.335 . S
O372 C387 1.264 1_455 S
O373 Eu331 2.432 . S
O373 C395 1.268 . S
O374 Eu331 2.291 1_455 S
O374 C394 1.255 . S
O375 Eu320 2.372 . S
O375 C394 1.257 . S
C376 O365 1.249 . S
C376 O366 1.264 . S
C377 C380 1.382 . S
C377 C382 1.390 . S
C377 C384 1.506 . S
C378 C379 1.398 . S
C378 C382 1.392 . S
C379 C378 1.398 . S
C379 C381 1.372 . S
C379 H396 0.931 . S
C380 C377 1.382 . S
C380 C381 1.390 . S
C380 H397 0.931 . S
C381 C379 1.372 . S
C381 C380 1.390 . S
C381 H398 0.929 . S
C382 C377 1.390 . S
C382 C378 1.392 . S
C382 H399 0.930 . S
C383 O368 1.255 1_655 S
C383 O369 1.257 . S
C384 Eu320 2.787 . S
C384 O364 1.252 . S
C384 O367 1.268 . S
C384 C377 1.506 . S
C385 C352 1.439 . S
C385 H362 0.931 . S
C385 C386 1.374 . S
C386 C357 1.387 . S
C386 H363 0.931 . S
C386 C385 1.374 . S
C387 O371 1.249 . S
C387 O372 1.264 1_655 S
C388 C391 1.382 . S
C388 C392 1.390 . S
C388 C395 1.506 . S
C389 C390 1.398 . S
C389 C392 1.392 . S
C390 C389 1.398 . S
C390 C393 1.372 . S
C390 H400 0.931 . S
C391 C388 1.382 . S
C391 C393 1.390 . S
C391 H401 0.931 . S
C392 C388 1.390 . S
C392 C389 1.392 . S
C392 H402 0.930 . S
C393 C390 1.372 . S
C393 C391 1.390 . S
C393 H403 0.929 . S
C394 O374 1.255 . S
C394 O375 1.257 . S
C395 Eu331 2.787 . S
C395 O370 1.252 . S
C395 O373 1.268 . S
C395 C388 1.506 . S
H396 C379 0.931 . S
H397 C380 0.931 . S
H398 C381 0.929 . S
H399 C382 0.930 . S
H400 C390 0.931 . S
H401 C391 0.931 . S
H402 C392 0.930 . S
H403 C393 0.929 . S
Eu404 N433 2.600 . S
Eu404 N439 2.562 . S
Eu404 O448 2.462 . S
Eu404 O449 2.373 . S
Eu404 O451 2.432 . S
Eu404 O452 2.291 . S
Eu404 O456 2.335 . S
Eu404 O459 2.372 . S
Eu404 C468 2.787 . S
C405 N406 1.365 . S
C405 C408 1.405 . S
C405 C412 1.448 . S
N406 C405 1.365 . S
N406 C409 1.319 . S
N406 Eu415 2.600 . S
C407 C409 1.397 . S
C407 C410 1.367 . S
C407 H427 0.931 . S
C408 C405 1.405 . S
C408 C410 1.403 . S
C408 C414 1.439 . S
C409 N406 1.319 . S
C409 C407 1.397 . S
C409 H420 0.930 . S
C410 C407 1.367 . S
C410 C408 1.403 . S
C410 H431 0.929 . S
C411 C412 1.430 . S
C411 C413 1.387 . S
C411 C417 1.404 . S
C412 C405 1.448 . S
C412 C411 1.430 . S
C412 N416 1.351 . S
C413 C411 1.387 . S
C413 C414 1.374 . S
C413 H428 0.931 . S
C414 C408 1.439 . S
C414 C413 1.374 . S
C414 H429 0.931 . S
Eu415 N406 2.600 . S
Eu415 N416 2.562 . S
Eu415 O450 2.335 . S
Eu415 O453 2.372 . S
Eu415 O454 2.462 . S
Eu415 O455 2.373 . S
Eu415 O457 2.432 . S
Eu415 O458 2.291 . S
Eu415 C479 2.787 . S
N416 C412 1.351 . S
N416 Eu415 2.562 . S
N416 C418 1.325 . S
C417 C411 1.404 . S
C417 C419 1.366 . S
C417 H425 0.930 . S
C418 N416 1.325 . S
C418 C419 1.416 . S
C418 H424 0.929 . S
C419 C417 1.366 . S
C419 C418 1.416 . S
C419 H421 0.930 . S
H420 C409 0.930 . S
H421 C419 0.930 . S
H422 C437 0.930 . S
H423 C444 0.930 . S
H424 C418 0.929 . S
H425 C417 0.930 . S
H426 C440 0.929 . S
H427 C407 0.931 . S
H428 C413 0.931 . S
H429 C414 0.931 . S
H430 C435 0.931 . S
H431 C410 0.929 . S
H432 C443 0.930 . S
N433 Eu404 2.600 . S
N433 C434 1.365 . S
N433 C437 1.319 . S
C434 N433 1.365 . S
C434 C436 1.405 . S
C434 C442 1.448 . S
C435 H430 0.931 . S
C435 C437 1.397 . S
C435 C438 1.367 . S
C436 C434 1.405 . S
C436 C438 1.403 . S
C436 C469 1.439 . S
C437 H422 0.930 . S
C437 N433 1.319 . S
C437 C435 1.397 . S
C438 C435 1.367 . S
C438 C436 1.403 . S
C438 H445 0.929 . S
N439 Eu404 2.562 . S
N439 C440 1.325 . S
N439 C442 1.351 . S
C440 H426 0.929 . S
C440 N439 1.325 . S
C440 C444 1.416 . S
C441 C442 1.430 . S
C441 C443 1.404 . S
C441 C470 1.387 . S
C442 C434 1.448 . S
C442 N439 1.351 . S
C442 C441 1.430 . S
C443 H432 0.930 . S
C443 C441 1.404 . S
C443 C444 1.366 . S
C444 H423 0.930 . S
C444 C440 1.416 . S
C444 C443 1.366 . S
H445 C438 0.929 . S
H446 C469 0.931 . S
H447 C470 0.931 . S
O448 Eu404 2.462 . S
O448 C468 1.252 . S
O449 Eu404 2.373 . S
O449 C460 1.249 . S
O450 Eu415 2.335 . S
O450 C460 1.264 . S
O451 Eu404 2.432 . S
O451 C468 1.268 . S
O452 Eu404 2.291 . S
O452 C467 1.255 . S
O453 Eu415 2.372 . S
O453 C467 1.257 . S
O454 Eu415 2.462 . S
O454 C479 1.252 . S
O455 Eu415 2.373 . S
O455 C471 1.249 . S
O456 Eu404 2.335 . S
O456 C471 1.264 . S
O457 Eu415 2.432 . S
O457 C479 1.268 . S
O458 Eu415 2.291 . S
O458 C478 1.255 . S
O459 Eu404 2.372 . S
O459 C478 1.257 . S
C460 O449 1.249 . S
C460 O450 1.264 . S
C461 C464 1.382 . S
C461 C466 1.390 . S
C461 C468 1.506 . S
C462 C463 1.398 . S
C462 C466 1.392 . S
C463 C462 1.398 . S
C463 C465 1.372 . S
C463 H480 0.931 . S
C464 C461 1.382 . S
C464 C465 1.390 . S
C464 H481 0.931 . S
C465 C463 1.372 . S
C465 C464 1.390 . S
C465 H482 0.929 . S
C466 C461 1.390 . S
C466 C462 1.392 . S
C466 H483 0.930 . S
C467 O452 1.255 . S
C467 O453 1.257 . S
C468 Eu404 2.787 . S
C468 O448 1.252 . S
C468 O451 1.268 . S
C468 C461 1.506 . S
C469 C436 1.439 . S
C469 H446 0.931 . S
C469 C470 1.374 . S
C470 C441 1.387 . S
C470 H447 0.931 . S
C470 C469 1.374 . S
C471 O455 1.249 . S
C471 O456 1.264 . S
C472 C475 1.382 . S
C472 C476 1.390 . S
C472 C479 1.506 . S
C473 C474 1.398 . S
C473 C476 1.392 . S
C474 C473 1.398 . S
C474 C477 1.372 . S
C474 H484 0.931 . S
C475 C472 1.382 . S
C475 C477 1.390 . S
C475 H485 0.931 . S
C476 C472 1.390 . S
C476 C473 1.392 . S
C476 H486 0.930 . S
C477 C474 1.372 . S
C477 C475 1.390 . S
C477 H487 0.929 . S
C478 O458 1.255 . S
C478 O459 1.257 . S
C479 Eu415 2.787 . S
C479 O454 1.252 . S
C479 O457 1.268 . S
C479 C472 1.506 . S
H480 C463 0.931 . S
H481 C464 0.931 . S
H482 C465 0.929 . S
H483 C466 0.930 . S
H484 C474 0.931 . S
H485 C475 0.931 . S
H486 C476 0.930 . S
H487 C477 0.929 . S
H488 C496 0.929 . S
H489 C498 0.930 . S
H490 C500 0.930 . S
H491 C503 0.929 . S
H492 C506 0.930 . S
H493 C508 0.960 . S
H494 C508 0.960 . S
H495 C508 0.960 . S
C496 H488 0.929 . S
C496 C497 1.377 . S
C496 C498 1.384 . S
C497 C496 1.377 . S
C497 C503 1.390 . S
C498 H489 0.930 . S
C498 C496 1.384 . S
C498 C499 1.372 . S
C499 C498 1.372 . S
C499 C500 1.400 . S
C499 C504 1.490 . S
C500 H490 0.930 . S
C500 C499 1.400 . S
C500 C503 1.386 . S
H501 C517 0.930 . S
H502 C518 0.931 1_565 S
C503 H491 0.929 . S
C503 C497 1.390 . S
C503 C500 1.386 . S
C504 C499 1.490 . S
C504 C506 1.395 . S
C504 C507 1.403 . S
H505 C511 0.930 . S
C506 H492 0.930 . S
C506 C504 1.395 . S
C506 C509 1.403 . S
C507 C504 1.403 . S
C507 C508 1.524 . S
C507 C511 1.400 . S
C508 H493 0.960 . S
C508 H494 0.960 . S
C508 H495 0.960 . S
C508 C507 1.524 . S
C509 C506 1.403 . S
C509 C510 1.392 . S
C509 C513 1.495 1_565 S
C510 C509 1.392 . S
C510 C511 1.385 . S
C510 C512 1.478 1_565 S
C511 H505 0.930 . S
C511 C507 1.400 . S
C511 C510 1.385 . S
C512 C510 1.478 1_545 S
C512 C514 1.381 . S
C512 C518 1.383 . S
C513 C509 1.495 1_545 S
C513 H519 0.959 . S
C513 H520 0.961 . S
C513 H521 0.960 . S
C514 C512 1.381 . S
C514 C515 1.394 . S
C514 H522 0.930 . S
C515 C514 1.394 . S
C515 C516 1.383 . S
C515 H523 0.929 . S
C516 C515 1.383 . S
C516 C517 1.377 . S
C517 H501 0.930 . S
C517 C516 1.377 . S
C517 C518 1.379 . S
C518 H502 0.931 1_545 S
C518 C512 1.383 . S
C518 C517 1.379 . S
H519 C513 0.959 . S
H520 C513 0.961 . S
H521 C513 0.960 . S
H522 C514 0.930 . S
H523 C515 0.929 . S
H524 C532 0.929 . S
H525 C534 0.930 . S
H526 C536 0.930 . S
H527 C539 0.929 . S
H528 C542 0.930 . S
H529 C544 0.960 . S
H530 C544 0.960 . S
H531 C544 0.960 . S
C532 H524 0.929 . S
C532 C533 1.377 . S
C532 C534 1.384 . S
C533 C532 1.377 . S
C533 C539 1.390 . S
C534 H525 0.930 . S
C534 C532 1.384 . S
C534 C535 1.372 . S
C535 C534 1.372 . S
C535 C536 1.400 . S
C535 C540 1.490 . S
C536 H526 0.930 . S
C536 C535 1.400 . S
C536 C539 1.386 . S
H537 C553 0.930 . S
H538 C554 0.931 . S
C539 H527 0.929 . S
C539 C533 1.390 . S
C539 C536 1.386 . S
C540 C535 1.490 . S
C540 C542 1.395 . S
C540 C543 1.403 . S
H541 C547 0.930 . S
C542 H528 0.930 . S
C542 C540 1.395 . S
C542 C545 1.403 . S
C543 C540 1.403 . S
C543 C544 1.524 . S
C543 C547 1.400 . S
C544 H529 0.960 . S
C544 H530 0.960 . S
C544 H531 0.960 . S
C544 C543 1.524 . S
C545 C542 1.403 . S
C545 C546 1.392 . S
C545 C549 1.495 . S
C546 C545 1.392 . S
C546 C547 1.385 . S
C546 C548 1.478 . S
C547 H541 0.930 . S
C547 C543 1.400 . S
C547 C546 1.385 . S
C548 C546 1.478 . S
C548 C550 1.381 . S
C548 C554 1.383 . S
C549 C545 1.495 . S
C549 H555 0.959 . S
C549 H556 0.961 . S
C549 H557 0.960 . S
C550 C548 1.381 . S
C550 C551 1.394 . S
C550 H558 0.930 . S
C551 C550 1.394 . S
C551 C552 1.383 . S
C551 H559 0.929 . S
C552 C551 1.383 . S
C552 C553 1.377 . S
C553 H537 0.930 . S
C553 C552 1.377 . S
C553 C554 1.379 . S
C554 H538 0.931 . S
C554 C548 1.383 . S
C554 C553 1.379 . S
H555 C549 0.959 . S
H556 C549 0.961 . S
H557 C549 0.960 . S
H558 C550 0.930 . S
H559 C551 0.929 . S
H560 C568 0.929 . S
H561 C570 0.930 . S
H562 C572 0.930 . S
H563 C575 0.929 . S
H564 C578 0.930 . S
H565 C580 0.960 . S
H566 C580 0.960 . S
H567 C580 0.960 . S
C568 H560 0.929 . S
C568 C569 1.377 . S
C568 C570 1.384 . S
C569 C568 1.377 . S
C569 C575 1.390 . S
C570 H561 0.930 . S
C570 C568 1.384 . S
C570 C571 1.372 . S
C571 C570 1.372 . S
C571 C572 1.400 . S
C571 C576 1.490 . S
C572 H562 0.930 . S
C572 C571 1.400 . S
C572 C575 1.386 . S
H573 C589 0.930 . S
H574 C590 0.931 . S
C575 H563 0.929 . S
C575 C569 1.390 . S
C575 C572 1.386 . S
C576 C571 1.490 . S
C576 C578 1.395 . S
C576 C579 1.403 . S
H577 C583 0.930 . S
C578 H564 0.930 . S
C578 C576 1.395 . S
C578 C581 1.403 . S
C579 C576 1.403 . S
C579 C580 1.524 . S
C579 C583 1.400 . S
C580 H565 0.960 . S
C580 H566 0.960 . S
C580 H567 0.960 . S
C580 C579 1.524 . S
C581 C578 1.403 . S
C581 C582 1.392 . S
C581 C585 1.495 . S
C582 C581 1.392 . S
C582 C583 1.385 . S
C582 C584 1.478 . S
C583 H577 0.930 . S
C583 C579 1.400 . S
C583 C582 1.385 . S
C584 C582 1.478 . S
C584 C586 1.381 . S
C584 C590 1.383 . S
C585 C581 1.495 . S
C585 H591 0.959 . S
C585 H592 0.961 . S
C585 H593 0.960 . S
C586 C584 1.381 . S
C586 C587 1.394 . S
C586 H594 0.930 . S
C587 C586 1.394 . S
C587 C588 1.383 . S
C587 H595 0.929 . S
C588 C587 1.383 . S
C588 C589 1.377 . S
C589 H573 0.930 . S
C589 C588 1.377 . S
C589 C590 1.379 . S
C590 H574 0.931 . S
C590 C584 1.383 . S
C590 C589 1.379 . S
H591 C585 0.959 . S
H592 C585 0.961 . S
H593 C585 0.960 . S
H594 C586 0.930 . S
H595 C587 0.929 . S
H596 C604 0.929 . S
H597 C606 0.930 . S
H598 C608 0.930 . S
H599 C611 0.929 . S
H600 C614 0.930 . S
H601 C616 0.960 . S
H602 C616 0.960 . S
H603 C616 0.960 . S
C604 H596 0.929 . S
C604 C605 1.377 . S
C604 C606 1.384 . S
C605 C604 1.377 . S
C605 C611 1.390 . S
C606 H597 0.930 . S
C606 C604 1.384 . S
C606 C607 1.372 . S
C607 C606 1.372 . S
C607 C608 1.400 . S
C607 C612 1.490 . S
C608 H598 0.930 . S
C608 C607 1.400 . S
C608 C611 1.386 . S
H609 C625 0.930 . S
H610 C626 0.931 . S
C611 H599 0.929 . S
C611 C605 1.390 . S
C611 C608 1.386 . S
C612 C607 1.490 . S
C612 C614 1.395 . S
C612 C615 1.403 . S
H613 C619 0.930 . S
C614 H600 0.930 . S
C614 C612 1.395 . S
C614 C617 1.403 . S
C615 C612 1.403 . S
C615 C616 1.524 . S
C615 C619 1.400 . S
C616 H601 0.960 . S
C616 H602 0.960 . S
C616 H603 0.960 . S
C616 C615 1.524 . S
C617 C614 1.403 . S
C617 C618 1.392 . S
C617 C621 1.495 . S
C618 C617 1.392 . S
C618 C619 1.385 . S
C618 C620 1.476 1_565 S
C619 H613 0.930 . S
C619 C615 1.400 . S
C619 C618 1.385 . S
C620 C618 1.476 1_545 S
C620 C622 1.383 . S
C620 C626 1.382 1_545 S
C621 C617 1.495 . S
C621 H627 0.959 . S
C621 H628 0.961 . S
C621 H629 0.960 . S
C622 C620 1.383 . S
C622 C623 1.394 . S
C622 H630 0.930 . S
C623 C622 1.394 . S
C623 C624 1.383 . S
C623 H631 0.929 . S
C624 C623 1.383 . S
C624 C625 1.377 . S
C625 H609 0.930 . S
C625 C624 1.377 . S
C625 C626 1.379 1_545 S
C626 H610 0.931 . S
C626 C620 1.382 1_565 S
C626 C625 1.379 1_565 S
H627 C621 0.959 . S
H628 C621 0.961 . S
H629 C621 0.960 . S
H630 C622 0.930 . S
H631 C623 0.929 . S
H632 C640 0.929 . S
H633 C642 0.930 . S
H634 C644 0.930 . S
H635 C647 0.929 . S
H636 C650 0.930 . S
H637 C652 0.960 . S
H638 C652 0.960 . S
H639 C652 0.960 . S
C640 H632 0.929 . S
C640 C641 1.377 . S
C640 C642 1.384 . S
C641 C640 1.377 . S
C641 C647 1.390 . S
C642 H633 0.930 . S
C642 C640 1.384 . S
C642 C643 1.372 . S
C643 C642 1.372 . S
C643 C644 1.400 . S
C643 C648 1.490 . S
C644 H634 0.930 . S
C644 C643 1.400 . S
C644 C647 1.386 . S
H645 C661 0.930 . S
H646 C662 0.931 . S
C647 H635 0.929 . S
C647 C641 1.390 . S
C647 C644 1.386 . S
C648 C643 1.490 . S
C648 C650 1.395 . S
C648 C651 1.403 . S
H649 C655 0.930 1_565 S
C650 H636 0.930 . S
C650 C648 1.395 . S
C650 C653 1.403 . S
C651 C648 1.403 . S
C651 C652 1.524 . S
C651 C655 1.400 . S
C652 H637 0.960 . S
C652 H638 0.960 . S
C652 H639 0.960 . S
C652 C651 1.524 . S
C653 C650 1.403 . S
C653 C654 1.392 . S
C653 C657 1.495 . S
C654 C653 1.392 . S
C654 C655 1.385 . S
C654 C656 1.478 . S
C655 H649 0.930 1_545 S
C655 C651 1.400 . S
C655 C654 1.385 . S
C656 C654 1.478 . S
C656 C658 1.381 . S
C656 C662 1.383 1_545 S
C657 C653 1.495 . S
C657 H663 0.959 . S
C657 H664 0.961 . S
C657 H665 0.960 . S
C658 C656 1.381 . S
C658 C659 1.394 1_545 S
C658 H666 0.930 . S
C659 C658 1.394 1_565 S
C659 C660 1.383 . S
C659 H667 0.929 . S
C660 C659 1.383 . S
C660 C661 1.377 . S
C661 H645 0.930 . S
C661 C660 1.377 . S
C661 C662 1.379 . S
C662 H646 0.931 . S
C662 C656 1.383 1_565 S
C662 C661 1.379 . S
H663 C657 0.959 . S
H664 C657 0.961 . S
H665 C657 0.960 . S
H666 C658 0.930 . S
H667 C659 0.929 . S
H668 C676 0.929 . S
H669 C678 0.930 . S
H670 C680 0.930 . S
H671 C683 0.929 . S
H672 C686 0.930 . S
H673 C688 0.960 . S
H674 C688 0.960 . S
H675 C688 0.960 . S
C676 H668 0.929 . S
C676 C677 1.377 . S
C676 C678 1.384 . S
C677 C676 1.377 . S
C677 C683 1.390 . S
C678 H669 0.930 . S
C678 C676 1.384 . S
C678 C679 1.372 . S
C679 C678 1.372 . S
C679 C680 1.400 . S
C679 C684 1.490 . S
C680 H670 0.930 . S
C680 C679 1.400 . S
C680 C683 1.386 . S
H681 C697 0.930 . S
H682 C698 0.931 . S
C683 H671 0.929 . S
C683 C677 1.390 . S
C683 C680 1.386 . S
C684 C679 1.490 . S
C684 C686 1.395 . S
C684 C687 1.403 . S
H685 C691 0.930 . S
C686 H672 0.930 . S
C686 C684 1.395 . S
C686 C689 1.403 . S
C687 C684 1.403 . S
C687 C688 1.524 . S
C687 C691 1.400 . S
C688 H673 0.960 . S
C688 H674 0.960 . S
C688 H675 0.960 . S
C688 C687 1.524 . S
C689 C686 1.403 . S
C689 C690 1.392 . S
C689 C693 1.495 . S
C690 C689 1.392 . S
C690 C691 1.385 . S
C690 C692 1.478 . S
C691 H685 0.930 . S
C691 C687 1.400 . S
C691 C690 1.385 . S
C692 C690 1.478 . S
C692 C694 1.381 . S
C692 C698 1.383 . S
C693 C689 1.495 . S
C693 H699 0.959 . S
C693 H700 0.961 . S
C693 H701 0.960 . S
C694 C692 1.381 . S
C694 C695 1.394 . S
C694 H702 0.930 . S
C695 C694 1.394 . S
C695 C696 1.383 . S
C695 H703 0.929 . S
C696 C695 1.383 . S
C696 C697 1.377 . S
C697 H681 0.930 . S
C697 C696 1.377 . S
C697 C698 1.379 . S
C698 H682 0.931 . S
C698 C692 1.383 . S
C698 C697 1.379 . S
H699 C693 0.959 . S
H700 C693 0.961 . S
H701 C693 0.960 . S
H702 C694 0.930 . S
H703 C695 0.929 . S
H704 C712 0.929 . S
H705 C714 0.930 . S
H706 C716 0.930 . S
H707 C719 0.929 . S
H708 C722 0.930 . S
H709 C724 0.960 . S
H710 C724 0.960 . S
H711 C724 0.960 . S
C712 H704 0.929 . S
C712 C713 1.377 . S
C712 C714 1.384 . S
C713 C712 1.377 . S
C713 C719 1.390 . S
C714 H705 0.930 . S
C714 C712 1.384 . S
C714 C715 1.372 . S
C715 C714 1.372 . S
C715 C716 1.400 . S
C715 C720 1.490 . S
C716 H706 0.930 . S
C716 C715 1.400 . S
C716 C719 1.386 . S
H717 C733 0.930 . S
H718 C734 0.931 . S
C719 H707 0.929 . S
C719 C713 1.390 . S
C719 C716 1.386 . S
C720 C715 1.490 . S
C720 C722 1.395 . S
C720 C723 1.403 . S
H721 C727 0.930 . S
C722 H708 0.930 . S
C722 C720 1.395 . S
C722 C725 1.403 . S
C723 C720 1.403 . S
C723 C724 1.524 . S
C723 C727 1.400 . S
C724 H709 0.960 . S
C724 H710 0.960 . S
C724 H711 0.960 . S
C724 C723 1.524 . S
C725 C722 1.403 . S
C725 C726 1.392 . S
C725 C729 1.495 . S
C726 C725 1.392 . S
C726 C727 1.385 . S
C726 C728 1.478 . S
C727 H721 0.930 . S
C727 C723 1.400 . S
C727 C726 1.385 . S
C728 C726 1.478 . S
C728 C730 1.381 . S
C728 C734 1.383 . S
C729 C725 1.495 . S
C729 H735 0.959 . S
C729 H736 0.961 . S
C729 H737 0.960 . S
C730 C728 1.381 . S
C730 C731 1.394 . S
C730 H738 0.930 . S
C731 C730 1.394 . S
C731 C732 1.383 . S
C731 H739 0.929 . S
C732 C731 1.383 . S
C732 C733 1.377 . S
C733 H717 0.930 . S
C733 C732 1.377 . S
C733 C734 1.379 . S
C734 H718 0.931 . S
C734 C728 1.383 . S
C734 C733 1.379 . S
H735 C729 0.959 . S
H736 C729 0.961 . S
H737 C729 0.960 . S
H738 C730 0.930 . S
H739 C731 0.929 . S
H740 C748 0.929 . S
H741 C750 0.930 . S
H742 C752 0.930 . S
H743 C755 0.929 . S
H744 C758 0.930 . S
H745 C760 0.977 . S
H746 C760 0.960 . S
H747 C760 0.960 . S
C748 H740 0.929 . S
C748 C749 1.377 . S
C748 C750 1.384 . S
C749 C748 1.377 . S
C749 C755 1.390 . S
C750 H741 0.930 . S
C750 C748 1.384 . S
C750 C751 1.372 . S
C751 C750 1.372 . S
C751 C752 1.400 . S
C751 C756 1.490 . S
C752 H742 0.930 . S
C752 C751 1.400 . S
C752 C755 1.386 . S
H753 C769 0.930 . S
H754 C770 0.932 . S
C755 H743 0.929 . S
C755 C749 1.390 . S
C755 C752 1.386 . S
C756 C751 1.490 . S
C756 C758 1.395 . S
C756 C759 1.403 . S
H757 C763 0.930 1_565 S
C758 H744 0.930 . S
C758 C756 1.395 . S
C758 C761 1.403 . S
C759 C756 1.403 . S
C759 C760 1.524 . S
C759 C763 1.400 . S
C760 H745 0.977 . S
C760 H746 0.960 . S
C760 H747 0.960 . S
C760 C759 1.524 . S
C761 C758 1.403 . S
C761 C762 1.392 . S
C761 C765 1.495 . S
C762 C761 1.392 . S
C762 C763 1.385 . S
C762 C764 1.478 . S
C763 H757 0.930 1_545 S
C763 C759 1.400 . S
C763 C762 1.385 . S
C764 C762 1.478 . S
C764 C766 1.381 1_545 S
C764 C770 1.383 1_545 S
C765 C761 1.495 . S
C765 H771 0.959 . S
C765 H772 0.961 . S
C765 H773 0.960 . S
C766 C764 1.381 1_565 S
C766 C767 1.394 . S
C766 H774 0.923 1_565 S
C767 C766 1.394 . S
C767 C768 1.383 . S
C767 H775 0.929 . S
C768 C767 1.383 . S
C768 C769 1.377 . S
C769 H753 0.930 . S
C769 C768 1.377 . S
C769 C770 1.379 . S
C770 H754 0.932 . S
C770 C764 1.383 1_565 S
C770 C769 1.379 . S
H771 C765 0.959 . S
H772 C765 0.961 . S
H773 C765 0.960 . S
H774 C766 0.923 1_545 S
H775 C767 0.929 . S
H776 C784 0.929 . S
H777 C786 0.930 . S
H778 C788 0.930 1_554 S
H779 C791 0.929 . S
H780 C794 0.930 . S
H781 C796 0.960 . S
H782 C796 0.960 . S
H783 C796 0.960 . S
C784 H776 0.929 . S
C784 C785 1.377 . S
C784 C786 1.384 . S
C785 C784 1.377 . S
C785 C791 1.390 . S
C786 H777 0.930 . S
C786 C784 1.384 . S
C786 C787 1.372 . S
C787 C786 1.372 . S
C787 C788 1.400 . S
C787 C792 1.490 1_556 S
C788 H778 0.930 1_556 S
C788 C787 1.400 . S
C788 C791 1.386 . S
H789 C805 0.930 . S
H790 C806 0.931 . S
C791 H779 0.929 . S
C791 C785 1.390 . S
C791 C788 1.386 . S
C792 C787 1.490 1_554 S
C792 C794 1.395 . S
C792 C795 1.403 . S
H793 C799 0.930 . S
C794 H780 0.930 . S
C794 C792 1.395 . S
C794 C797 1.403 . S
C795 C792 1.403 . S
C795 C796 1.524 . S
C795 C799 1.400 . S
C796 H781 0.960 . S
C796 H782 0.960 . S
C796 H783 0.960 . S
C796 C795 1.524 . S
C797 C794 1.403 . S
C797 C798 1.392 . S
C797 C801 1.495 . S
C798 C797 1.392 . S
C798 C799 1.385 . S
C798 C800 1.478 . S
C799 H793 0.930 . S
C799 C795 1.400 . S
C799 C798 1.385 . S
C800 C798 1.478 . S
C800 C802 1.381 . S
C800 C806 1.383 . S
C801 C797 1.495 . S
C801 H807 0.959 . S
C801 H808 0.961 . S
C801 H809 0.960 . S
C802 C800 1.381 . S
C802 C803 1.394 . S
C802 H810 0.930 . S
C803 C802 1.394 . S
C803 C804 1.383 . S
C803 H811 0.929 . S
C804 C803 1.383 . S
C804 C805 1.377 . S
C805 H789 0.930 . S
C805 C804 1.377 . S
C805 C806 1.379 . S
C806 H790 0.931 . S
C806 C800 1.383 . S
C806 C805 1.379 . S
H807 C801 0.959 . S
H808 C801 0.961 . S
H809 C801 0.960 . S
H810 C802 0.930 . S
H811 C803 0.929 . S
H812 C820 0.929 . S
H813 C822 0.930 . S
H814 C824 0.930 . S
H815 C827 0.929 . S
H816 C830 0.930 . S
H817 C832 0.960 . S
H818 C832 0.960 . S
H819 C832 0.960 . S
C820 H812 0.929 . S
C820 C821 1.377 . S
C820 C822 1.384 . S
C821 C820 1.377 . S
C821 C827 1.390 . S
C822 H813 0.930 . S
C822 C820 1.384 . S
C822 C823 1.372 . S
C823 C822 1.372 . S
C823 C824 1.400 . S
C823 C828 1.490 . S
C824 H814 0.930 . S
C824 C823 1.400 . S
C824 C827 1.386 . S
H825 C841 0.930 . S
H826 C842 0.931 . S
C827 H815 0.929 . S
C827 C821 1.390 . S
C827 C824 1.386 . S
C828 C823 1.490 . S
C828 C830 1.395 . S
C828 C831 1.403 . S
H829 C835 0.930 . S
C830 H816 0.930 . S
C830 C828 1.395 . S
C830 C833 1.403 . S
C831 C828 1.403 . S
C831 C832 1.524 . S
C831 C835 1.400 . S
C832 H817 0.960 . S
C832 H818 0.960 . S
C832 H819 0.960 . S
C832 C831 1.524 . S
C833 C830 1.403 . S
C833 C834 1.392 . S
C833 C837 1.495 . S
C834 C833 1.392 . S
C834 C835 1.385 . S
C834 C836 1.478 . S
C835 H829 0.930 . S
C835 C831 1.400 . S
C835 C834 1.385 . S
C836 C834 1.478 . S
C836 C838 1.381 . S
C836 C842 1.383 . S
C837 C833 1.495 . S
C837 H843 0.959 . S
C837 H844 0.961 . S
C837 H845 0.960 . S
C838 C836 1.381 . S
C838 C839 1.394 . S
C838 H846 0.930 . S
C839 C838 1.394 . S
C839 C840 1.383 . S
C839 H847 0.929 . S
C840 C839 1.383 . S
C840 C841 1.377 . S
C841 H825 0.930 . S
C841 C840 1.377 . S
C841 C842 1.379 . S
C842 H826 0.931 . S
C842 C836 1.383 . S
C842 C841 1.379 . S
H843 C837 0.959 . S
H844 C837 0.961 . S
H845 C837 0.960 . S
H846 C838 0.930 . S
H847 C839 0.929 . S
H848 C856 0.929 . S
H849 C858 0.930 . S
H850 C860 0.930 1_556 S
H851 C863 0.929 . S
H852 C866 0.930 . S
H853 C868 0.960 . S
H854 C868 0.960 . S
H855 C868 0.960 . S
C856 H848 0.929 . S
C856 C857 1.377 . S
C856 C858 1.384 . S
C857 C856 1.377 . S
C857 C863 1.390 . S
C858 H849 0.930 . S
C858 C856 1.384 . S
C858 C859 1.372 . S
C859 C858 1.372 . S
C859 C860 1.400 . S
C859 C864 1.490 1_554 S
C860 H850 0.930 1_554 S
C860 C859 1.400 . S
C860 C863 1.386 . S
H861 C877 0.930 . S
H862 C878 0.931 . S
C863 H851 0.929 . S
C863 C857 1.390 . S
C863 C860 1.386 . S
C864 C859 1.490 1_556 S
C864 C866 1.395 . S
C864 C867 1.403 . S
H865 C871 0.930 . S
C866 H852 0.930 . S
C866 C864 1.395 . S
C866 C869 1.403 . S
C867 C864 1.403 . S
C867 C868 1.524 . S
C867 C871 1.400 . S
C868 H853 0.960 . S
C868 H854 0.960 . S
C868 H855 0.960 . S
C868 C867 1.524 . S
C869 C866 1.403 . S
C869 C870 1.392 . S
C869 C873 1.495 . S
C870 C869 1.392 . S
C870 C871 1.385 . S
C870 C872 1.478 . S
C871 H865 0.930 . S
C871 C867 1.400 . S
C871 C870 1.385 . S
C872 C870 1.478 . S
C872 C874 1.381 . S
C872 C878 1.383 . S
C873 C869 1.495 . S
C873 H879 0.959 . S
C873 H880 0.961 . S
C873 H881 0.960 . S
C874 C872 1.381 . S
C874 C875 1.394 . S
C874 H882 0.930 . S
C875 C874 1.394 . S
C875 C876 1.383 . S
C875 H883 0.929 . S
C876 C875 1.383 . S
C876 C877 1.377 . S
C877 H861 0.930 . S
C877 C876 1.377 . S
C877 C878 1.379 . S
C878 H862 0.931 . S
C878 C872 1.383 . S
C878 C877 1.379 . S
H879 C873 0.959 . S
H880 C873 0.961 . S
H881 C873 0.960 . S
H882 C874 0.930 . S
H883 C875 0.929 . S
H884 C892 0.929 . S
H885 C894 0.930 . S
H886 C896 0.930 . S
H887 C899 0.929 . S
H888 C902 0.930 . S
H889 C904 0.960 . S
H890 C904 0.960 . S
H891 C904 0.960 . S
C892 H884 0.929 . S
C892 C893 1.377 . S
C892 C894 1.384 . S
C893 C892 1.377 . S
C893 C899 1.390 . S
C894 H885 0.930 . S
C894 C892 1.384 . S
C894 C895 1.372 . S
C895 C894 1.372 . S
C895 C896 1.400 . S
C895 C900 1.490 . S
C896 H886 0.930 . S
C896 C895 1.400 . S
C896 C899 1.386 . S
H897 C913 0.930 . S
H898 C914 0.931 . S
C899 H887 0.929 . S
C899 C893 1.390 . S
C899 C896 1.386 . S
C900 C895 1.490 . S
C900 C902 1.395 . S
C900 C903 1.403 . S
H901 C907 0.930 . S
C902 H888 0.930 . S
C902 C900 1.395 . S
C902 C905 1.403 . S
C903 C900 1.403 . S
C903 C904 1.524 . S
C903 C907 1.400 . S
C904 H889 0.960 . S
C904 H890 0.960 . S
C904 H891 0.960 . S
C904 C903 1.524 . S
C905 C902 1.403 . S
C905 C906 1.392 . S
C905 C909 1.495 . S
C906 C905 1.392 . S
C906 C907 1.385 . S
C906 C908 1.478 . S
C907 H901 0.930 . S
C907 C903 1.400 . S
C907 C906 1.385 . S
C908 C906 1.478 . S
C908 C910 1.381 . S
C908 C914 1.383 . S
C909 C905 1.495 . S
C909 H915 0.959 . S
C909 H916 0.961 . S
C909 H917 0.960 . S
C910 C908 1.381 . S
C910 C911 1.394 . S
C910 H918 0.930 . S
C911 C910 1.394 . S
C911 C912 1.383 . S
C911 H919 0.929 . S
C912 C911 1.383 . S
C912 C913 1.377 . S
C913 H897 0.930 . S
C913 C912 1.377 . S
C913 C914 1.379 . S
C914 H898 0.931 . S
C914 C908 1.383 . S
C914 C913 1.379 . S
H915 C909 0.959 . S
H916 C909 0.961 . S
H917 C909 0.960 . S
H918 C910 0.930 . S
H919 C911 0.929 . S
H920 C928 0.929 . S
H921 C930 0.930 . S
H922 C932 0.930 1_556 S
H923 C935 0.929 . S
H924 C938 0.930 . S
H925 C940 0.960 . S
H926 C940 0.960 . S
H927 C940 0.960 . S
C928 H920 0.929 . S
C928 C929 1.377 . S
C928 C930 1.384 . S
C929 C928 1.377 . S
C929 C935 1.390 . S
C930 H921 0.930 . S
C930 C928 1.384 . S
C930 C931 1.372 . S
C931 C930 1.372 . S
C931 C932 1.400 . S
C931 C936 1.490 1_554 S
C932 H922 0.930 1_554 S
C932 C931 1.400 . S
C932 C935 1.386 . S
H933 C949 0.930 . S
H934 C950 0.931 . S
C935 H923 0.929 . S
C935 C929 1.390 . S
C935 C932 1.386 . S
C936 C931 1.490 1_556 S
C936 C938 1.395 . S
C936 C939 1.403 . S
H937 C943 0.930 . S
C938 H924 0.930 . S
C938 C936 1.395 . S
C938 C941 1.403 . S
C939 C936 1.403 . S
C939 C940 1.524 . S
C939 C943 1.400 . S
C940 H925 0.960 . S
C940 H926 0.960 . S
C940 H927 0.960 . S
C940 C939 1.524 . S
C941 C938 1.403 . S
C941 C942 1.392 . S
C941 C945 1.495 . S
C942 C941 1.392 . S
C942 C943 1.385 . S
C942 C944 1.478 . S
C943 H937 0.930 . S
C943 C939 1.400 . S
C943 C942 1.385 . S
C944 C942 1.478 . S
C944 C946 1.381 . S
C944 C950 1.383 . S
C945 C941 1.495 . S
C945 H951 0.959 . S
C945 H952 0.961 . S
C945 H953 0.960 . S
C946 C944 1.381 . S
C946 C947 1.394 . S
C946 H954 0.930 . S
C947 C946 1.394 . S
C947 C948 1.383 . S
C947 H955 0.929 . S
C948 C947 1.383 . S
C948 C949 1.377 . S
C949 H933 0.930 . S
C949 C948 1.377 . S
C949 C950 1.379 . S
C950 H934 0.931 . S
C950 C944 1.383 . S
C950 C949 1.379 . S
H951 C945 0.959 . S
H952 C945 0.961 . S
H953 C945 0.960 . S
H954 C946 0.930 . S
H955 C947 0.929 . S
H956 C964 0.929 . S
H957 C966 0.930 . S
H958 C968 0.930 . S
H959 C971 0.929 . S
H960 C974 0.930 . S
H961 C976 0.960 . S
H962 C976 0.960 . S
H963 C976 0.960 . S
C964 H956 0.929 . S
C964 C965 1.377 . S
C964 C966 1.384 . S
C965 C964 1.377 . S
C965 C971 1.390 . S
C966 H957 0.930 . S
C966 C964 1.384 . S
C966 C967 1.372 . S
C967 C966 1.372 . S
C967 C968 1.400 . S
C967 C972 1.490 . S
C968 H958 0.930 . S
C968 C967 1.400 . S
C968 C971 1.386 . S
H969 C985 0.930 . S
H970 C986 0.931 . S
C971 H959 0.929 . S
C971 C965 1.390 . S
C971 C968 1.386 . S
C972 C967 1.490 . S
C972 C974 1.395 . S
C972 C975 1.403 . S
H973 C979 0.930 . S
C974 H960 0.930 . S
C974 C972 1.395 . S
C974 C977 1.403 . S
C975 C972 1.403 . S
C975 C976 1.524 . S
C975 C979 1.400 . S
C976 H961 0.960 . S
C976 H962 0.960 . S
C976 H963 0.960 . S
C976 C975 1.524 . S
C977 C974 1.403 . S
C977 C978 1.392 . S
C977 C981 1.495 . S
C978 C977 1.392 . S
C978 C979 1.385 . S
C978 C980 1.478 . S
C979 H973 0.930 . S
C979 C975 1.400 . S
C979 C978 1.385 . S
C980 C978 1.478 . S
C980 C982 1.381 . S
C980 C986 1.383 . S
C981 C977 1.495 . S
C981 H987 0.959 . S
C981 H988 0.961 . S
C981 H989 0.960 . S
C982 C980 1.381 . S
C982 C983 1.394 . S
C982 H990 0.930 . S
C983 C982 1.394 . S
C983 C984 1.383 . S
C983 H991 0.929 . S
C984 C983 1.383 . S
C984 C985 1.377 . S
C985 H969 0.930 . S
C985 C984 1.377 . S
C985 C986 1.379 . S
C986 H970 0.931 . S
C986 C980 1.383 . S
C986 C985 1.379 . S
H987 C981 0.959 . S
H988 C981 0.961 . S
H989 C981 0.960 . S
H990 C982 0.930 . S
H991 C983 0.929 . S
H992 C1000 0.929 . S
H993 C1002 0.930 . S
H994 C1004 0.930 1_554 S
H995 C1007 0.929 . S
H996 C1010 0.930 . S
H997 C1012 0.960 . S
H998 C1012 0.960 . S
H999 C1012 0.960 . S
C1000 H992 0.929 . S
C1000 C1001 1.377 . S
C1000 C1002 1.384 . S
C1001 C1000 1.377 . S
C1001 C1007 1.390 . S
C1002 H993 0.930 . S
C1002 C1000 1.384 . S
C1002 C1003 1.372 . S
C1003 C1002 1.372 . S
C1003 C1004 1.400 . S
C1003 C1008 1.490 1_556 S
C1004 H994 0.930 1_556 S
C1004 C1003 1.400 . S
C1004 C1007 1.386 . S
H1005 C1021 0.930 . S
H1006 C1022 0.931 . S
C1007 H995 0.929 . S
C1007 C1001 1.390 . S
C1007 C1004 1.386 . S
C1008 C1003 1.490 1_554 S
C1008 C1010 1.395 . S
C1008 C1011 1.403 . S
H1009 C1015 0.930 . S
C1010 H996 0.930 . S
C1010 C1008 1.395 . S
C1010 C1013 1.403 . S
C1011 C1008 1.403 . S
C1011 C1012 1.524 . S
C1011 C1015 1.400 . S
C1012 H997 0.960 . S
C1012 H998 0.960 . S
C1012 H999 0.960 . S
C1012 C1011 1.524 . S
C1013 C1010 1.403 . S
C1013 C1014 1.392 . S
C1013 C1017 1.495 . S
C1014 C1013 1.392 . S
C1014 C1015 1.385 . S
C1014 C1016 1.478 . S
C1015 H1009 0.930 . S
C1015 C1011 1.400 . S
C1015 C1014 1.385 . S
C1016 C1014 1.478 . S
C1016 C1018 1.381 . S
C1016 C1022 1.383 . S
C1017 C1013 1.495 . S
C1017 H1023 0.959 . S
C1017 H1024 0.961 . S
C1017 H1025 0.960 . S
C1018 C1016 1.381 . S
C1018 C1019 1.394 . S
C1018 H1026 0.930 . S
C1019 C1018 1.394 . S
C1019 C1020 1.383 . S
C1019 H1027 0.929 . S
C1020 C1019 1.383 . S
C1020 C1021 1.377 . S
C1021 H1005 0.930 . S
C1021 C1020 1.377 . S
C1021 C1022 1.379 . S
C1022 H1006 0.931 . S
C1022 C1016 1.383 . S
C1022 C1021 1.379 . S
H1023 C1017 0.959 . S
H1024 C1017 0.961 . S
H1025 C1017 0.960 . S
H1026 C1018 0.930 . S
H1027 C1019 0.929 . S
H1028 C1036 0.929 . S
H1029 C1038 0.930 . S
H1030 C1040 0.930 . S
H1031 C1043 0.929 . S
H1032 C1046 0.930 . S
H1033 C1048 0.960 . S
H1034 C1048 0.960 . S
H1035 C1048 0.960 . S
C1036 H1028 0.929 . S
C1036 C1037 1.377 . S
C1036 C1038 1.384 . S
C1037 C1036 1.377 . S
C1037 C1043 1.390 . S
C1038 H1029 0.930 . S
C1038 C1036 1.384 . S
C1038 C1039 1.372 . S
C1039 C1038 1.372 . S
C1039 C1040 1.400 . S
C1039 C1044 1.490 . S
C1040 H1030 0.930 . S
C1040 C1039 1.400 . S
C1040 C1043 1.386 . S
H1041 C1057 0.930 . S
H1042 C1058 0.931 . S
C1043 H1031 0.929 . S
C1043 C1037 1.390 . S
C1043 C1040 1.386 . S
C1044 C1039 1.490 . S
C1044 C1046 1.395 . S
C1044 C1047 1.403 . S
H1045 C1051 0.930 . S
C1046 H1032 0.930 . S
C1046 C1044 1.395 . S
C1046 C1049 1.403 . S
C1047 C1044 1.403 . S
C1047 C1048 1.524 . S
C1047 C1051 1.400 . S
C1048 H1033 0.960 . S
C1048 H1034 0.960 . S
C1048 H1035 0.960 . S
C1048 C1047 1.524 . S
C1049 C1046 1.403 . S
C1049 C1050 1.392 . S
C1049 C1053 1.495 . S
C1050 C1049 1.392 . S
C1050 C1051 1.385 . S
C1050 C1052 1.478 . S
C1051 H1045 0.930 . S
C1051 C1047 1.400 . S
C1051 C1050 1.385 . S
C1052 C1050 1.478 . S
C1052 C1054 1.381 . S
C1052 C1058 1.383 . S
C1053 C1049 1.495 . S
C1053 H1059 0.959 . S
C1053 H1060 0.961 . S
C1053 H1061 0.960 . S
C1054 C1052 1.381 . S
C1054 C1055 1.394 . S
C1054 H1062 0.930 . S
C1055 C1054 1.394 . S
C1055 C1056 1.383 . S
C1055 H1063 0.929 . S
C1056 C1055 1.383 . S
C1056 C1057 1.377 . S
C1057 H1041 0.930 . S
C1057 C1056 1.377 . S
C1057 C1058 1.379 . S
C1058 H1042 0.931 . S
C1058 C1052 1.383 . S
C1058 C1057 1.379 . S
H1059 C1053 0.959 . S
H1060 C1053 0.961 . S
H1061 C1053 0.960 . S
H1062 C1054 0.930 . S
H1063 C1055 0.929 . S
H1064 C1072 0.929 . S
H1065 C1074 0.930 . S
H1066 C1076 0.930 . S
H1067 C1079 0.929 . S
H1068 C1082 0.930 . S
H1069 C1084 0.960 . S
H1070 C1084 0.960 . S
H1071 C1084 0.960 . S
C1072 H1064 0.929 . S
C1072 C1073 1.377 . S
C1072 C1074 1.384 . S
C1073 C1072 1.377 . S
C1073 C1079 1.390 . S
C1074 H1065 0.930 . S
C1074 C1072 1.384 . S
C1074 C1075 1.372 . S
C1075 C1074 1.372 . S
C1075 C1076 1.400 . S
C1075 C1080 1.490 . S
C1076 H1066 0.930 . S
C1076 C1075 1.400 . S
C1076 C1079 1.386 . S
H1077 C1093 0.930 . S
H1078 C1094 0.931 . S
C1079 H1067 0.929 . S
C1079 C1073 1.390 . S
C1079 C1076 1.386 . S
C1080 C1075 1.490 . S
C1080 C1082 1.395 . S
C1080 C1083 1.403 . S
H1081 C1087 0.930 . S
C1082 H1068 0.930 . S
C1082 C1080 1.395 . S
C1082 C1085 1.403 . S
C1083 C1080 1.403 . S
C1083 C1084 1.524 . S
C1083 C1087 1.400 . S
C1084 H1069 0.960 . S
C1084 H1070 0.960 . S
C1084 H1071 0.960 . S
C1084 C1083 1.524 . S
C1085 C1082 1.403 . S
C1085 C1086 1.392 . S
C1085 C1089 1.495 . S
C1086 C1085 1.392 . S
C1086 C1087 1.385 . S
C1086 C1088 1.478 . S
C1087 H1081 0.930 . S
C1087 C1083 1.400 . S
C1087 C1086 1.385 . S
C1088 C1086 1.478 . S
C1088 C1090 1.381 . S
C1088 C1094 1.383 . S
C1089 C1085 1.495 . S
C1089 H1095 0.959 . S
C1089 H1096 0.961 . S
C1089 H1097 0.960 . S
C1090 C1088 1.381 . S
C1090 C1091 1.394 . S
C1090 H1098 0.930 . S
C1091 C1090 1.394 . S
C1091 C1092 1.383 . S
C1091 H1099 0.929 . S
C1092 C1091 1.383 . S
C1092 C1093 1.377 . S
C1093 H1077 0.930 . S
C1093 C1092 1.377 . S
C1093 C1094 1.379 . S
C1094 H1078 0.931 . S
C1094 C1088 1.383 . S
C1094 C1093 1.379 . S
H1095 C1089 0.959 . S
H1096 C1089 0.961 . S
H1097 C1089 0.960 . S
H1098 C1090 0.930 . S
H1099 C1091 0.929 . S
H1100 C1108 0.929 . S
H1101 C1110 0.930 . S
H1102 C1112 0.930 . S
H1103 C1115 0.929 . S
H1104 C1118 0.930 . S
H1105 C1120 0.960 . S
H1106 C1120 0.960 . S
H1107 C1120 0.960 . S
C1108 H1100 0.929 . S
C1108 C1109 1.377 . S
C1108 C1110 1.384 . S
C1109 C1108 1.377 . S
C1109 C1115 1.390 . S
C1110 H1101 0.930 . S
C1110 C1108 1.384 . S
C1110 C1111 1.372 . S
C1111 C1110 1.372 . S
C1111 C1112 1.400 . S
C1111 C1116 1.490 . S
C1112 H1102 0.930 . S
C1112 C1111 1.400 . S
C1112 C1115 1.386 . S
H1113 C1129 0.930 . S
H1114 C1130 0.931 . S
C1115 H1103 0.929 . S
C1115 C1109 1.390 . S
C1115 C1112 1.386 . S
C1116 C1111 1.490 . S
C1116 C1118 1.395 . S
C1116 C1119 1.403 . S
H1117 C1123 0.930 . S
C1118 H1104 0.930 . S
C1118 C1116 1.395 . S
C1118 C1121 1.403 . S
C1119 C1116 1.403 . S
C1119 C1120 1.524 . S
C1119 C1123 1.400 . S
C1120 H1105 0.960 . S
C1120 H1106 0.960 . S
C1120 H1107 0.960 . S
C1120 C1119 1.524 . S
C1121 C1118 1.403 . S
C1121 C1122 1.392 . S
C1121 C1125 1.495 . S
C1122 C1121 1.392 . S
C1122 C1123 1.385 . S
C1122 C1124 1.478 . S
C1123 H1117 0.930 . S
C1123 C1119 1.400 . S
C1123 C1122 1.385 . S
C1124 C1122 1.478 . S
C1124 C1126 1.381 . S
C1124 C1130 1.383 . S
C1125 C1121 1.495 . S
C1125 H1131 0.959 . S
C1125 H1132 0.961 . S
C1125 H1133 0.960 . S
C1126 C1124 1.381 . S
C1126 C1127 1.394 . S
C1126 H1134 0.930 . S
C1127 C1126 1.394 . S
C1127 C1128 1.383 . S
C1127 H1135 0.929 . S
C1128 C1127 1.383 . S
C1128 C1129 1.377 . S
C1129 H1113 0.930 . S
C1129 C1128 1.377 . S
C1129 C1130 1.379 . S
C1130 H1114 0.931 . S
C1130 C1124 1.383 . S
C1130 C1129 1.379 . S
H1131 C1125 0.959 . S
H1132 C1125 0.961 . S
H1133 C1125 0.960 . S
H1134 C1126 0.930 . S
H1135 C1127 0.929 . S
H1136 C1144 0.929 . S
H1137 C1146 0.930 . S
H1138 C1148 0.930 . S
H1139 C1151 0.929 . S
H1140 C1154 0.930 . S
H1141 C1156 0.960 . S
H1142 C1156 0.960 . S
H1143 C1156 0.960 . S
C1144 H1136 0.929 . S
C1144 C1145 1.377 . S
C1144 C1146 1.384 . S
C1145 C1144 1.377 . S
C1145 C1151 1.390 . S
C1146 H1137 0.930 . S
C1146 C1144 1.384 . S
C1146 C1147 1.372 . S
C1147 C1146 1.372 . S
C1147 C1148 1.400 . S
C1147 C1152 1.490 . S
C1148 H1138 0.930 . S
C1148 C1147 1.400 . S
C1148 C1151 1.386 . S
H1149 C1165 0.930 . S
H1150 C1166 0.931 . S
C1151 H1139 0.929 . S
C1151 C1145 1.390 . S
C1151 C1148 1.386 . S
C1152 C1147 1.490 . S
C1152 C1154 1.395 . S
C1152 C1155 1.403 . S
H1153 C1159 0.930 . S
C1154 H1140 0.930 . S
C1154 C1152 1.395 . S
C1154 C1157 1.403 . S
C1155 C1152 1.403 . S
C1155 C1156 1.524 . S
C1155 C1159 1.400 . S
C1156 H1141 0.960 . S
C1156 H1142 0.960 . S
C1156 H1143 0.960 . S
C1156 C1155 1.524 . S
C1157 C1154 1.403 . S
C1157 C1158 1.392 . S
C1157 C1161 1.495 . S
C1158 C1157 1.392 . S
C1158 C1159 1.385 . S
C1158 C1160 1.478 . S
C1159 H1153 0.930 . S
C1159 C1155 1.400 . S
C1159 C1158 1.385 . S
C1160 C1158 1.478 . S
C1160 C1162 1.381 . S
C1160 C1166 1.383 . S
C1161 C1157 1.495 . S
C1161 H1167 0.959 . S
C1161 H1168 0.961 . S
C1161 H1169 0.960 . S
C1162 C1160 1.381 . S
C1162 C1163 1.394 . S
C1162 H1170 0.930 . S
C1163 C1162 1.394 . S
C1163 C1164 1.383 . S
C1163 H1171 0.929 . S
C1164 C1163 1.383 . S
C1164 C1165 1.377 . S
C1165 H1149 0.930 . S
C1165 C1164 1.377 . S
C1165 C1166 1.379 . S
C1166 H1150 0.931 . S
C1166 C1160 1.383 . S
C1166 C1165 1.379 . S
H1167 C1161 0.959 . S
H1168 C1161 0.961 . S
H1169 C1161 0.960 . S
H1170 C1162 0.930 . S
H1171 C1163 0.929 . S
H1172 C1180 0.929 . S
H1173 C1182 0.930 . S
H1174 C1184 0.930 . S
H1175 C1187 0.929 . S
H1176 C1190 0.930 . S
H1177 C1192 0.960 . S
H1178 C1192 0.960 . S
H1179 C1192 0.960 . S
C1180 H1172 0.929 . S
C1180 C1181 1.377 . S
C1180 C1182 1.384 . S
C1181 C1180 1.377 . S
C1181 C1187 1.390 . S
C1182 H1173 0.930 . S
C1182 C1180 1.384 . S
C1182 C1183 1.372 . S
C1183 C1182 1.372 . S
C1183 C1184 1.400 . S
C1183 C1188 1.490 . S
C1184 H1174 0.930 . S
C1184 C1183 1.400 . S
C1184 C1187 1.386 . S
H1185 C1201 0.930 . S
H1186 C1202 0.931 . S
C1187 H1175 0.929 . S
C1187 C1181 1.390 . S
C1187 C1184 1.386 . S
C1188 C1183 1.490 . S
C1188 C1190 1.395 . S
C1188 C1191 1.403 . S
H1189 C1195 0.930 . S
C1190 H1176 0.930 . S
C1190 C1188 1.395 . S
C1190 C1193 1.403 . S
C1191 C1188 1.403 . S
C1191 C1192 1.524 . S
C1191 C1195 1.400 . S
C1192 H1177 0.960 . S
C1192 H1178 0.960 . S
C1192 H1179 0.960 . S
C1192 C1191 1.524 . S
C1193 C1190 1.403 . S
C1193 C1194 1.392 . S
C1193 C1197 1.495 . S
C1194 C1193 1.392 . S
C1194 C1195 1.385 . S
C1194 C1196 1.478 . S
C1195 H1189 0.930 . S
C1195 C1191 1.400 . S
C1195 C1194 1.385 . S
C1196 C1194 1.478 . S
C1196 C1198 1.381 . S
C1196 C1202 1.383 . S
C1197 C1193 1.495 . S
C1197 H1203 0.959 . S
C1197 H1204 0.961 . S
C1197 H1205 0.960 . S
C1198 C1196 1.381 . S
C1198 C1199 1.394 . S
C1198 H1206 0.930 . S
C1199 C1198 1.394 . S
C1199 C1200 1.383 . S
C1199 H1207 0.929 . S
C1200 C1199 1.383 . S
C1200 C1201 1.377 . S
C1201 H1185 0.930 . S
C1201 C1200 1.377 . S
C1201 C1202 1.379 . S
C1202 H1186 0.931 . S
C1202 C1196 1.383 . S
C1202 C1201 1.379 . S
H1203 C1197 0.959 . S
H1204 C1197 0.961 . S
H1205 C1197 0.960 . S
H1206 C1198 0.930 . S
H1207 C1199 0.929 . S
H1208 C1216 0.929 . S
H1209 C1218 0.930 . S
H1210 C1220 0.930 . S
H1211 C1223 0.929 . S
H1212 C1226 0.930 . S
H1213 C1228 0.960 . S
H1214 C1228 0.960 . S
H1215 C1228 0.960 . S
C1216 H1208 0.929 . S
C1216 C1217 1.377 . S
C1216 C1218 1.384 . S
C1217 C1216 1.377 . S
C1217 C1223 1.390 . S
C1218 H1209 0.930 . S
C1218 C1216 1.384 . S
C1218 C1219 1.372 . S
C1219 C1218 1.372 . S
C1219 C1220 1.400 . S
C1219 C1224 1.490 . S
C1220 H1210 0.930 . S
C1220 C1219 1.400 . S
C1220 C1223 1.386 . S
H1221 C1237 0.930 . S
H1222 C1238 0.931 . S
C1223 H1211 0.929 . S
C1223 C1217 1.390 . S
C1223 C1220 1.386 . S
C1224 C1219 1.490 . S
C1224 C1226 1.395 . S
C1224 C1227 1.403 . S
H1225 C1231 0.930 . S
C1226 H1212 0.930 . S
C1226 C1224 1.395 . S
C1226 C1229 1.403 . S
C1227 C1224 1.403 . S
C1227 C1228 1.524 . S
C1227 C1231 1.400 . S
C1228 H1213 0.960 . S
C1228 H1214 0.960 . S
C1228 H1215 0.960 . S
C1228 C1227 1.524 . S
C1229 C1226 1.403 . S
C1229 C1230 1.392 . S
C1229 C1233 1.495 . S
C1230 C1229 1.392 . S
C1230 C1231 1.385 . S
C1230 C1232 1.478 . S
C1231 H1225 0.930 . S
C1231 C1227 1.400 . S
C1231 C1230 1.385 . S
C1232 C1230 1.478 . S
C1232 C1234 1.381 . S
C1232 C1238 1.383 . S
C1233 C1229 1.495 . S
C1233 H1239 0.959 . S
C1233 H1240 0.961 . S
C1233 H1241 0.960 . S
C1234 C1232 1.381 . S
C1234 C1235 1.394 . S
C1234 H1242 0.930 . S
C1235 C1234 1.394 . S
C1235 C1236 1.383 . S
C1235 H1243 0.929 . S
C1236 C1235 1.383 . S
C1236 C1237 1.377 . S
C1237 H1221 0.930 . S
C1237 C1236 1.377 . S
C1237 C1238 1.379 . S
C1238 H1222 0.931 . S
C1238 C1232 1.383 . S
C1238 C1237 1.379 . S
H1239 C1233 0.959 . S
H1240 C1233 0.961 . S
H1241 C1233 0.960 . S
H1242 C1234 0.930 . S
H1243 C1235 0.929 . S
H1244 C1252 0.929 . S
H1245 C1254 0.930 . S
H1246 C1256 0.930 . S
H1247 C1259 0.929 . S
H1248 C1262 0.930 . S
H1249 C1264 0.960 . S
H1250 C1264 0.960 . S
H1251 C1264 0.960 . S
C1252 H1244 0.929 . S
C1252 C1253 1.377 . S
C1252 C1254 1.384 . S
C1253 C1252 1.377 . S
C1253 C1259 1.390 . S
C1254 H1245 0.930 . S
C1254 C1252 1.384 . S
C1254 C1255 1.372 . S
C1255 C1254 1.372 . S
C1255 C1256 1.400 . S
C1255 C1260 1.490 . S
C1256 H1246 0.930 . S
C1256 C1255 1.400 . S
C1256 C1259 1.386 . S
H1257 C1273 0.930 . S
H1258 C1274 0.931 . S
C1259 H1247 0.929 . S
C1259 C1253 1.390 . S
C1259 C1256 1.386 . S
C1260 C1255 1.490 . S
C1260 C1262 1.395 . S
C1260 C1263 1.403 . S
H1261 C1267 0.930 . S
C1262 H1248 0.930 . S
C1262 C1260 1.395 . S
C1262 C1265 1.403 . S
C1263 C1260 1.403 . S
C1263 C1264 1.524 . S
C1263 C1267 1.400 . S
C1264 H1249 0.960 . S
C1264 H1250 0.960 . S
C1264 H1251 0.960 . S
C1264 C1263 1.524 . S
C1265 C1262 1.403 . S
C1265 C1266 1.392 . S
C1265 C1269 1.495 . S
C1266 C1265 1.392 . S
C1266 C1267 1.385 . S
C1266 C1268 1.478 . S
C1267 H1261 0.930 . S
C1267 C1263 1.400 . S
C1267 C1266 1.385 . S
C1268 C1266 1.478 . S
C1268 C1270 1.381 . S
C1268 C1274 1.383 . S
C1269 C1265 1.495 . S
C1269 H1275 0.959 . S
C1269 H1276 0.961 . S
C1269 H1277 0.960 . S
C1270 C1268 1.381 . S
C1270 C1271 1.394 . S
C1270 H1278 0.930 . S
C1271 C1270 1.394 . S
C1271 C1272 1.383 . S
C1271 H1279 0.929 . S
C1272 C1271 1.383 . S
C1272 C1273 1.377 . S
C1273 H1257 0.930 . S
C1273 C1272 1.377 . S
C1273 C1274 1.379 . S
C1274 H1258 0.931 . S
C1274 C1268 1.383 . S
C1274 C1273 1.379 . S
H1275 C1269 0.959 . S
H1276 C1269 0.961 . S
H1277 C1269 0.960 . S
H1278 C1270 0.930 . S
H1279 C1271 0.929 . S
H1280 C1288 0.929 . S
H1281 C1290 0.930 . S
H1282 C1292 0.930 . S
H1283 C1295 0.929 . S
H1284 C1298 0.930 . S
H1285 C1300 0.960 . S
H1286 C1300 0.960 . S
H1287 C1300 0.960 . S
C1288 H1280 0.929 . S
C1288 C1289 1.377 . S
C1288 C1290 1.384 . S
C1289 C1288 1.377 . S
C1289 C1295 1.390 . S
C1290 H1281 0.930 . S
C1290 C1288 1.384 . S
C1290 C1291 1.372 . S
C1291 C1290 1.372 . S
C1291 C1292 1.400 . S
C1291 C1296 1.490 . S
C1292 H1282 0.930 . S
C1292 C1291 1.400 . S
C1292 C1295 1.386 . S
H1293 C1309 0.930 . S
H1294 C1310 0.931 . S
C1295 H1283 0.929 . S
C1295 C1289 1.390 . S
C1295 C1292 1.386 . S
C1296 C1291 1.490 . S
C1296 C1298 1.395 . S
C1296 C1299 1.403 . S
H1297 C1303 0.930 . S
C1298 H1284 0.930 . S
C1298 C1296 1.395 . S
C1298 C1301 1.403 . S
C1299 C1296 1.403 . S
C1299 C1300 1.524 . S
C1299 C1303 1.400 . S
C1300 H1285 0.960 . S
C1300 H1286 0.960 . S
C1300 H1287 0.960 . S
C1300 C1299 1.524 . S
C1301 C1298 1.403 . S
C1301 C1302 1.392 . S
C1301 C1305 1.495 . S
C1302 C1301 1.392 . S
C1302 C1303 1.385 . S
C1302 C1304 1.478 . S
C1303 H1297 0.930 . S
C1303 C1299 1.400 . S
C1303 C1302 1.385 . S
C1304 C1302 1.478 . S
C1304 C1306 1.381 . S
C1304 C1310 1.383 . S
C1305 C1301 1.495 . S
C1305 H1311 0.959 . S
C1305 H1312 0.961 . S
C1305 H1313 0.960 . S
C1306 C1304 1.381 . S
C1306 C1307 1.394 . S
C1306 H1314 0.930 . S
C1307 C1306 1.394 . S
C1307 C1308 1.383 . S
C1307 H1315 0.929 . S
C1308 C1307 1.383 . S
C1308 C1309 1.377 . S
C1309 H1293 0.930 . S
C1309 C1308 1.377 . S
C1309 C1310 1.379 . S
C1310 H1294 0.931 . S
C1310 C1304 1.383 . S
C1310 C1309 1.379 . S
H1311 C1305 0.959 . S
H1312 C1305 0.961 . S
H1313 C1305 0.960 . S
H1314 C1306 0.930 . S
H1315 C1307 0.929 . S
H1316 C1324 0.929 . S
H1317 C1326 0.930 . S
H1318 C1328 0.930 . S
H1319 C1331 0.929 . S
H1320 C1334 0.930 . S
H1321 C1336 0.960 . S
H1322 C1336 0.960 . S
H1323 C1336 0.960 . S
C1324 H1316 0.929 . S
C1324 C1325 1.377 . S
C1324 C1326 1.384 . S
C1325 C1324 1.377 . S
C1325 C1331 1.390 . S
C1326 H1317 0.930 . S
C1326 C1324 1.384 . S
C1326 C1327 1.372 . S
C1327 C1326 1.372 . S
C1327 C1328 1.400 . S
C1327 C1332 1.490 . S
C1328 H1318 0.930 . S
C1328 C1327 1.400 . S
C1328 C1331 1.386 . S
H1329 C1345 0.930 . S
H1330 C1346 0.931 . S
C1331 H1319 0.929 . S
C1331 C1325 1.390 . S
C1331 C1328 1.386 . S
C1332 C1327 1.490 . S
C1332 C1334 1.395 . S
C1332 C1335 1.403 . S
H1333 C1339 0.930 . S
C1334 H1320 0.930 . S
C1334 C1332 1.395 . S
C1334 C1337 1.403 . S
C1335 C1332 1.403 . S
C1335 C1336 1.524 . S
C1335 C1339 1.400 . S
C1336 H1321 0.960 . S
C1336 H1322 0.960 . S
C1336 H1323 0.960 . S
C1336 C1335 1.524 . S
C1337 C1334 1.403 . S
C1337 C1338 1.392 . S
C1337 C1341 1.495 . S
C1338 C1337 1.392 . S
C1338 C1339 1.385 . S
C1338 C1340 1.478 . S
C1339 H1333 0.930 . S
C1339 C1335 1.400 . S
C1339 C1338 1.385 . S
C1340 C1338 1.478 . S
C1340 C1342 1.381 . S
C1340 C1346 1.383 . S
C1341 C1337 1.495 . S
C1341 H1347 0.959 . S
C1341 H1348 0.961 . S
C1341 H1349 0.960 . S
C1342 C1340 1.381 . S
C1342 C1343 1.394 . S
C1342 H1350 0.930 . S
C1343 C1342 1.394 . S
C1343 C1344 1.383 . S
C1343 H1351 0.929 . S
C1344 C1343 1.383 . S
C1344 C1345 1.377 . S
C1345 H1329 0.930 . S
C1345 C1344 1.377 . S
C1345 C1346 1.379 . S
C1346 H1330 0.931 . S
C1346 C1340 1.383 . S
C1346 C1345 1.379 . S
H1347 C1341 0.959 . S
H1348 C1341 0.961 . S
H1349 C1341 0.960 . S
H1350 C1342 0.930 . S
H1351 C1343 0.929 . S
C497 C116 1.837 . S
C516 C226 1.832 . S
C552 C310 1.814 . S
C533 C135 1.840 . S
C588 C303 1.828 . S
C569 C78 1.830 . S
C605 C97 1.831 . S
C624 C219 1.833 . S
C660 C383 1.814 . S
C641 C40 1.837 . S
C696 C467 1.814 . S
C677 C59 1.839 . S
C713 C2 1.833 . S
C732 C460 1.841 . S
C749 C21 1.831 . S
C768 C376 1.843 . S
C804 C210 1.599 . S
C785 C25 1.767 . S
C840 C294 1.611 . S
C821 C6 1.767 . S
C876 C305 1.541 . S
C857 C63 1.773 . S
C912 C221 1.526 . S
C893 C44 1.773 . S
C948 C389 1.629 . S
C929 C101 1.765 . S
C965 C82 1.763 . S
C984 C473 1.611 . S
C1020 C462 1.499 . S
C1001 C139 1.770 . S
C1037 C120 1.772 . S
C1056 C378 1.511 . S
C1092 C208 1.544 . S
C1073 C11 1.467 . S
C1128 C292 1.538 . S
C1109 C30 1.474 . S
C1145 C49 1.459 . S
C1164 C299 1.491 . S
C1200 C215 1.511 . S
C1181 C68 1.466 . S
C1236 C387 1.544 . S
C1217 C87 1.422 . S
C1253 C106 1.430 . S
C1272 C471 1.542 . S
C1289 C125 1.422 . S
C1308 C478 1.510 . S
C1325 C144 1.413 . S
C1344 C394 1.487 . S
