# Generated by pormake.
# Topology anh, (6,3)-cn, num edge types: 1
# Building blocks:
#     Node 0, Type 0, BuildingBlock: PAMTOO_clean_sbu_0, # of connection points: 6
#     Node 1, Type 0, BuildingBlock: PAMTOO_clean_sbu_0, # of connection points: 6
#     Node 2, Type 0, BuildingBlock: PAMTOO_clean_sbu_0, # of connection points: 6
#     Node 3, Type 1, BuildingBlock: BELTOD_clean_linker_0, # of connection points: 3
#     Node 4, Type 1, BuildingBlock: BELTOD_clean_linker_0, # of connection points: 3
#     Node 5, Type 1, BuildingBlock: BELTOD_clean_linker_0, # of connection points: 3
#     Node 6, Type 1, BuildingBlock: BELTOD_clean_linker_0, # of connection points: 3
#     Node 7, Type 1, BuildingBlock: BELTOD_clean_linker_0, # of connection points: 3
#     Node 8, Type 1, BuildingBlock: BELTOD_clean_linker_0, # of connection points: 3
#     Edge 9, Type (0, 1), BuildingBlock: AJUNOK_clean_linker_0, # of connection points: 2
#     Edge 10, Type (0, 1), BuildingBlock: AJUNOK_clean_linker_0, # of connection points: 2
#     Edge 11, Type (0, 1), BuildingBlock: AJUNOK_clean_linker_0, # of connection points: 2
#     Edge 12, Type (0, 1), BuildingBlock: AJUNOK_clean_linker_0, # of connection points: 2
#     Edge 13, Type (0, 1), BuildingBlock: AJUNOK_clean_linker_0, # of connection points: 2
#     Edge 14, Type (0, 1), BuildingBlock: AJUNOK_clean_linker_0, # of connection points: 2
#     Edge 15, Type (0, 1), BuildingBlock: AJUNOK_clean_linker_0, # of connection points: 2
#     Edge 16, Type (0, 1), BuildingBlock: AJUNOK_clean_linker_0, # of connection points: 2
#     Edge 17, Type (0, 1), BuildingBlock: AJUNOK_clean_linker_0, # of connection points: 2
#     Edge 18, Type (0, 1), BuildingBlock: AJUNOK_clean_linker_0, # of connection points: 2
#     Edge 19, Type (0, 1), BuildingBlock: AJUNOK_clean_linker_0, # of connection points: 2
#     Edge 20, Type (0, 1), BuildingBlock: AJUNOK_clean_linker_0, # of connection points: 2
#     Edge 21, Type (0, 1), BuildingBlock: AJUNOK_clean_linker_0, # of connection points: 2
#     Edge 22, Type (0, 1), BuildingBlock: AJUNOK_clean_linker_0, # of connection points: 2
#     Edge 23, Type (0, 1), BuildingBlock: AJUNOK_clean_linker_0, # of connection points: 2
#     Edge 24, Type (0, 1), BuildingBlock: AJUNOK_clean_linker_0, # of connection points: 2
#     Edge 25, Type (0, 1), BuildingBlock: AJUNOK_clean_linker_0, # of connection points: 2
#     Edge 26, Type (0, 1), BuildingBlock: AJUNOK_clean_linker_0, # of connection points: 2
# Relax obj value: 0.219
# Max RMSD: 0.209
# Mean RMSD: 0.159
data_MOF--net-anh--node1-PAMTOO_clean_sbu_0--node2-BELTOD_clean_linker_0--edge1-AJUNOK_clean_linker_0
_symmetry_space_group_name_H-M    P1
_symmetry_Int_Tables_number       1
_symmetry_cell_setting            triclinic
loop_
_symmetry_equiv_pos_as_xyz
'x, y, z'
_cell_length_a     28.787128
_cell_length_b     26.107299
_cell_length_c     47.175295
_cell_angle_alpha  91.418564
_cell_angle_beta   94.852493
_cell_angle_gamma 104.07363
loop_
_atom_site_label
_atom_site_type_symbol
_atom_site_fract_x
_atom_site_fract_y
_atom_site_fract_z
_atom_type_partial_charge
Dy0 Dy 1.03023 0.6103 0.13974 0.0
Dy1 Dy 0.99656 0.48451 0.12891 0.0
C2 C 1.00944 0.56142 0.0784 0.0
O3 O 0.94545 0.59552 0.14174 0.0
O4 O 0.92262 0.50838 0.12627 0.0
O5 O 0.06526 0.68458 0.1229 0.0
O6 O 0.04105 0.68321 0.16521 0.0
O7 O 0.99145 0.50033 0.17516 0.0
O8 O 0.04861 0.57744 0.18098 0.0
O9 O 0.08156 0.49781 0.13185 0.0
O10 O 0.10299 0.58817 0.13157 0.0
O11 O 0.99613 0.40558 0.14207 0.0
O12 O 0.95161 0.41635 0.10447 0.0
C13 C 0.90957 0.55239 0.1337 0.0
O14 O 0.99495 0.59225 0.09591 0.0
O15 O 1.02115 0.51911 0.08794 0.0
C16 C 0.11472 0.74441 0.15769 0.0
C17 C 0.20859 0.8069 0.17544 0.0
C18 C 0.17507 0.82844 0.15939 0.0
C19 C 0.12865 0.79756 0.15068 0.0
C20 C 0.14813 0.72256 0.17356 0.0
C21 C 0.19451 0.75347 0.18237 0.0
C22 C 0.06664 0.71136 0.14681 0.0
C23 C 1.02253 0.53573 0.19171 0.0
C24 C 0.11661 0.54252 0.1311 0.0
C25 C 0.91868 0.34709 0.13409 0.0
C26 C 0.83911 0.27759 0.1561 0.0
C27 C 0.8506 0.33225 0.16309 0.0
C28 C 0.89008 0.36655 0.15234 0.0
C29 C 0.90687 0.29279 0.12667 0.0
C30 C 0.86756 0.25843 0.13753 0.0
C31 C 0.96094 0.38308 0.12306 0.0
H32 H 0.18471 0.86935 0.15369 0.0
H33 H 0.10372 0.8151 0.13818 0.0
H34 H 0.13856 0.68137 0.17879 0.0
H35 H 0.21969 0.73522 0.19412 0.0
H36 H 0.82961 0.34834 0.17736 0.0
H37 H 0.89856 0.40828 0.15846 0.0
H38 H 0.9282 0.27685 0.11256 0.0
H39 H 0.8593 0.21677 0.13129 0.0
Dy40 Dy 0.50351 0.99236 0.52056 0.0
Dy41 Dy 0.62265 0.02738 0.52584 0.0
C42 C 0.56485 0.00828 0.58059 0.0
O43 O 0.51972 0.08145 0.51935 0.0
O44 O 0.60175 0.1043 0.53195 0.0
O45 O 0.43827 0.95408 0.53874 0.0
O46 O 0.4344 0.98892 0.49769 0.0
O47 O 0.59669 0.04372 0.48192 0.0
O48 O 0.52631 0.98024 0.47708 0.0
O49 O 0.60538 0.93832 0.52007 0.0
O50 O 0.52483 0.91569 0.52718 0.0
O51 O 0.68922 0.02533 0.50848 0.0
O52 O 0.69032 0.06977 0.5481 0.0
C53 C 0.56054 0.11718 0.52624 0.0
O54 O 0.52877 0.02043 0.5657 0.0
O55 O 0.60108 0.99855 0.56817 0.0
C56 C 0.37526 0.91111 0.50501 0.0
C57 C 0.30769 0.81683 0.48528 0.0
C58 C 0.29513 0.85286 0.50402 0.0
C59 C 0.32862 0.89969 0.51373 0.0
C60 C 0.38816 0.875 0.48654 0.0
C61 C 0.35462 0.82828 0.47671 0.0
C62 C 0.4106 0.95956 0.51627 0.0
C63 C 0.56118 0.01301 0.4657 0.0
C64 C 0.56555 0.90255 0.52401 0.0
C65 C 0.74929 0.10472 0.51728 0.0
C66 C 0.81509 0.1912 0.4966 0.0
C67 C 0.76523 0.18428 0.49022 0.0
C68 C 0.7326 0.14144 0.50053 0.0
C69 C 0.79886 0.11137 0.52364 0.0
C70 C 0.83149 0.15409 0.51333 0.0
C71 C 0.71536 0.05915 0.5279 0.0
H72 H 0.25925 0.84495 0.51097 0.0
H73 H 0.31819 0.92689 0.52819 0.0
H74 H 0.42427 0.88277 0.47992 0.0
H75 H 0.36555 0.80071 0.46274 0.0
H76 H 0.7515 0.21207 0.47733 0.0
H77 H 0.69438 0.13676 0.49531 0.0
H78 H 0.81237 0.0832 0.53637 0.0
H79 H 0.86963 0.15745 0.51798 0.0
Dy80 Dy 0.57485 0.46259 0.84753 0.0
Dy81 Dy 0.46086 0.43405 0.82984 0.0
C82 C 0.53447 0.45493 0.78272 0.0
O83 O 0.55844 0.54299 0.8485 0.0
O84 O 0.48299 0.5219 0.82463 0.0
O85 O 0.63558 0.49882 0.87755 0.0
O86 O 0.64489 0.45221 0.84057 0.0
O87 O 0.47423 0.46808 0.87492 0.0
O88 O 0.53775 0.43338 0.8859 0.0
O89 O 0.47495 0.35402 0.83853 0.0
O90 O 0.556 0.37614 0.83472 0.0
O91 O 0.38807 0.40105 0.83992 0.0
O92 O 0.40132 0.4351 0.79905 0.0
C93 C 0.52124 0.55741 0.83585 0.0
O94 O 0.56643 0.48321 0.80209 0.0
O95 O 0.49557 0.4224 0.79028 0.0
C96 C 0.71004 0.52215 0.858 0.0
C97 C 0.7977 0.59252 0.84931 0.0
C98 C 0.75822 0.58567 0.82871 0.0
C99 C 0.71446 0.55062 0.83306 0.0
C100 C 0.74902 0.52987 0.87874 0.0
C101 C 0.79246 0.56481 0.87447 0.0
C102 C 0.66592 0.48284 0.86257 0.0
C103 C 0.50283 0.45249 0.89405 0.0
C104 C 0.51561 0.34011 0.83627 0.0
C105 C 0.34126 0.45908 0.82295 0.0
C106 C 0.30685 0.54952 0.8326 0.0
C107 C 0.32271 0.52308 0.8556 0.0
C108 C 0.33976 0.47836 0.85086 0.0
C109 C 0.32273 0.48371 0.79997 0.0
C110 C 0.30576 0.52872 0.80475 0.0
C111 C 0.37 0.42073 0.81757 0.0
H112 H 0.76154 0.60635 0.80909 0.0
H113 H 0.68445 0.54508 0.81685 0.0
H114 H 0.74603 0.50832 0.89811 0.0
H115 H 0.82223 0.56997 0.89083 0.0
H116 H 0.32312 0.53788 0.87731 0.0
H117 H 0.35395 0.46063 0.86909 0.0
H118 H 0.32397 0.46997 0.77825 0.0
H119 H 0.29395 0.54861 0.78666 0.0
P120 P 0.56367 0.00386 0.2432 0.0
H121 H 0.51857 0.94578 0.18992 0.0
H122 H 0.43464 0.90276 0.17367 0.0
H123 H 0.3881 0.97641 0.24532 0.0
H124 H 0.47189 0.01899 0.26158 0.0
H125 H 0.65568 0.07075 0.26716 0.0
H126 H 0.71846 0.13624 0.24708 0.0
H127 H 0.62751 0.12526 0.16855 0.0
H128 H 0.56398 0.05967 0.18904 0.0
H129 H 0.55562 0.92477 0.28635 0.0
H130 H 0.56783 0.09245 0.28439 0.0
O131 O 0.58733 0.95317 0.23601 0.0
H132 H 0.55426 0.92917 0.33808 0.0
H133 H 0.56562 0.09702 0.33631 0.0
C134 C 0.50188 0.98521 0.2272 0.0
C135 C 0.4903 0.95364 0.20183 0.0
C136 C 0.44223 0.92886 0.19259 0.0
C137 C 0.40467 0.93496 0.2086 0.0
C138 C 0.41621 0.96962 0.23292 0.0
C139 C 0.46426 0.99452 0.24209 0.0
C140 C 0.60433 0.06106 0.22998 0.0
C141 C 0.64843 0.08339 0.24591 0.0
C142 C 0.68476 0.12038 0.23423 0.0
C143 C 0.67838 0.13552 0.20604 0.0
C144 C 0.63356 0.11456 0.19034 0.0
C145 C 0.59708 0.07723 0.2021 0.0
C146 C 0.5633 0.00855 0.28157 0.0
C147 C 0.55839 0.96269 0.29708 0.0
C148 C 0.5572 0.96515 0.32666 0.0
C149 C 0.56057 0.01356 0.34142 0.0
C150 C 0.5642 0.05934 0.3257 0.0
C151 C 0.56535 0.05679 0.29602 0.0
P152 P 0.60591 0.52238 0.57103 0.0
H153 H 0.666 0.45867 0.54824 0.0
H154 H 0.6527 0.36559 0.53655 0.0
H155 H 0.50017 0.34496 0.54133 0.0
H156 H 0.51464 0.43946 0.55535 0.0
H157 H 0.60827 0.61995 0.60197 0.0
H158 H 0.59739 0.70593 0.58836 0.0
H159 H 0.55105 0.64404 0.50235 0.0
H160 H 0.56318 0.55684 0.51609 0.0
H161 H 0.65917 0.49006 0.61999 0.0
H162 H 0.51988 0.52138 0.60078 0.0
O163 O 0.66567 0.54429 0.57288 0.0
H164 H 0.64065 0.47144 0.66889 0.0
H165 H 0.50137 0.50365 0.64998 0.0
C166 C 0.59127 0.45746 0.55207 0.0
C167 C 0.62927 0.43504 0.54596 0.0
C168 C 0.62149 0.38089 0.53899 0.0
C169 C 0.57507 0.3467 0.53719 0.0
C170 C 0.53653 0.3695 0.54237 0.0
C171 C 0.54458 0.42403 0.5499 0.0
C172 C 0.58515 0.58075 0.56037 0.0
C173 C 0.59445 0.62393 0.58027 0.0
C174 C 0.58878 0.67364 0.57241 0.0
C175 C 0.57333 0.6822 0.54429 0.0
C176 C 0.56261 0.63874 0.52429 0.0
C177 C 0.56919 0.58868 0.53216 0.0
C178 C 0.59133 0.5083 0.60696 0.0
C179 C 0.62469 0.49328 0.62635 0.0
C180 C 0.61407 0.48261 0.6543 0.0
C181 C 0.56958 0.48608 0.66331 0.0
C182 C 0.53573 0.5 0.64359 0.0
C183 C 0.54642 0.51064 0.61557 0.0
P184 P 0.12914 0.79311 0.91117 0.0
H185 H 0.16826 0.81027 0.85571 0.0
H186 H 0.22175 0.76587 0.83234 0.0
H187 H 0.25876 0.70284 0.91256 0.0
H188 H 0.20567 0.74693 0.93567 0.0
H189 H 0.03996 0.82691 0.90695 0.0
H190 H 0.9615 0.78574 0.88215 0.0
H191 H 1.02566 0.68224 0.83418 0.0
H192 H 0.10258 0.71988 0.86078 0.0
H193 H 0.10534 0.8108 0.96944 0.0
H194 H 0.10978 0.67855 0.91403 0.0
O195 O 0.14134 0.85631 0.92269 0.0
H196 H 0.07502 0.74981 0.00611 0.0
H197 H 0.07926 0.61739 0.95057 0.0
C198 C 0.18097 0.77909 0.89696 0.0
C199 C 0.18896 0.78808 0.86838 0.0
C200 C 0.21938 0.76275 0.85505 0.0
C201 C 0.24297 0.72968 0.87053 0.0
C202 C 0.24042 0.72757 0.90008 0.0
C203 C 0.20972 0.75241 0.91326 0.0
C204 C 0.07761 0.77766 0.88531 0.0
C205 C 0.03751 0.7969 0.89024 0.0
C206 C 0.99262 0.77352 0.87582 0.0
C207 C 0.98737 0.73081 0.85603 0.0
C208 C 1.02857 0.71504 0.84929 0.0
C209 C 0.07299 0.7373 0.86429 0.0
C210 C 0.11074 0.74926 0.93929 0.0
C211 C 0.10038 0.76876 0.96529 0.0
C212 C 0.08276 0.73386 0.98612 0.0
C213 C 0.07516 0.6789 0.98122 0.0
C214 C 0.08557 0.65953 0.9551 0.0
C215 C 0.10292 0.69444 0.93425 0.0
P216 P 0.08684 0.45726 0.40552 0.0
H217 H 0.15721 0.48691 0.45521 0.0
H218 H 0.20585 0.57283 0.47499 0.0
H219 H 0.12624 0.6516 0.41637 0.0
H220 H 0.07778 0.56575 0.39664 0.0
H221 H 1.02701 0.35257 0.39043 0.0
H222 H 0.96105 0.29472 0.41232 0.0
H223 H 0.966 0.41848 0.47583 0.0
H224 H 1.03308 0.47592 0.45409 0.0
H225 H 0.14713 0.4831 0.3591 0.0
H226 H 0.99667 0.45925 0.37119 0.0
O227 O 0.12768 0.42145 0.40669 0.0
H228 H 0.13077 0.50309 0.30941 0.0
H229 H 0.9801 0.47949 0.32134 0.0
C230 C 0.11461 0.51992 0.42406 0.0
C231 C 0.14969 0.52267 0.44693 0.0
C232 C 0.17745 0.57174 0.45822 0.0
C233 C 0.17055 0.61879 0.44673 0.0
C234 C 0.1331 0.6159 0.42513 0.0
C235 C 0.10521 0.56683 0.41397 0.0
C236 C 0.035 0.41836 0.42069 0.0
C237 C 1.01369 0.36739 0.40897 0.0
C238 C 0.97588 0.33443 0.42145 0.0
C239 C 0.95859 0.35175 0.44601 0.0
C240 C 0.97916 0.40358 0.45727 0.0
C241 C 1.01723 0.43661 0.44474 0.0
C242 C 0.07302 0.46873 0.36863 0.0
C243 C 0.11051 0.48178 0.35097 0.0
C244 C 0.10121 0.49369 0.32269 0.0
C245 C 0.05422 0.49324 0.31163 0.0
C246 C 1.01659 0.4799 0.32934 0.0
C247 C 1.02601 0.46822 0.35775 0.0
P248 P 0.56643 0.96513 0.8004 0.0
H249 H 0.58365 0.02927 0.85414 0.0
H250 H 0.56732 0.11479 0.86543 0.0
H251 H 0.4714 0.09769 0.78859 0.0
H252 H 0.4867 0.0113 0.7778 0.0
H253 H 0.6194 0.88564 0.79379 0.0
H254 H 0.60609 0.79235 0.80338 0.0
H255 H 0.47103 0.79533 0.83597 0.0
H256 H 0.48447 0.88989 0.82558 0.0
H257 H 0.5975 0.05493 0.76555 0.0
H258 H 0.52926 0.88878 0.75102 0.0
O259 O 0.62456 0.98837 0.81158 0.0
H260 H 0.59529 0.06555 0.71405 0.0
H261 H 0.5283 0.89921 0.69942 0.0
C262 C 0.53707 0.01354 0.81487 0.0
C263 C 0.55762 0.04272 0.84021 0.0
C264 C 0.54889 0.09235 0.84641 0.0
C265 C 0.51944 0.11438 0.82737 0.0
C266 C 0.49475 0.08251 0.8036 0.0
C267 C 0.50334 0.03266 0.79748 0.0
C268 C 0.55331 0.89544 0.80922 0.0
C269 C 0.58689 0.86656 0.80316 0.0
C270 C 0.57928 0.81284 0.80875 0.0
C271 C 0.53752 0.78559 0.82055 0.0
C272 C 0.50341 0.81448 0.82654 0.0
C273 C 0.51116 0.86882 0.82083 0.0
C274 C 0.56365 0.97111 0.76221 0.0
C275 C 0.58205 0.02073 0.75129 0.0
C276 C 0.58067 0.02685 0.72192 0.0
C277 C 0.56145 0.98324 0.70287 0.0
C278 C 0.54334 0.9334 0.71375 0.0
C279 C 0.54397 0.92745 0.74323 0.0
P280 P 0.50649 0.52079 0.11526 0.0
H281 H 0.57954 0.47635 0.15307 0.0
H282 H 0.66595 0.48331 0.15678 0.0
H283 H 0.68517 0.61122 0.10007 0.0
H284 H 0.59732 0.60317 0.09576 0.0
H285 H 0.40454 0.45326 0.10371 0.0
H286 H 0.32206 0.45908 0.10718 0.0
H287 H 0.37468 0.61849 0.14199 0.0
H288 H 0.45799 0.61242 0.13773 0.0
H289 H 0.55698 0.46395 0.07926 0.0
H290 H 0.45202 0.55609 0.06571 0.0
O291 O 0.4957 0.45938 0.12666 0.0
H292 H 0.55594 0.44934 0.02819 0.0
H293 H 0.44684 0.53656 0.01447 0.0
C294 C 0.5775 0.53989 0.12461 0.0
C295 C 0.60128 0.50714 0.14152 0.0
C296 C 0.65271 0.51063 0.14333 0.0
C297 C 0.68653 0.54752 0.12854 0.0
C298 C 0.66324 0.58174 0.1123 0.0
C299 C 0.61128 0.57755 0.11006 0.0
C300 C 0.44159 0.53168 0.12067 0.0
C301 C 0.39949 0.49008 0.1124 0.0
C302 C 0.35024 0.49353 0.11448 0.0
C303 C 0.33692 0.5394 0.12493 0.0
C304 C 0.3793 0.58168 0.13321 0.0
C305 C 0.42913 0.57815 0.13105 0.0
C306 C 0.50434 0.51081 0.07673 0.0
C307 C 0.53306 0.48047 0.06535 0.0
C308 C 0.53167 0.47112 0.03592 0.0
C309 C 0.49997 0.48998 0.01686 0.0
C310 C 0.47157 0.52103 0.0283 0.0
C311 C 0.47416 0.53183 0.05783 0.0
C312 C 0.19057 0.49552 0.12764 0.0
C313 C 0.17296 0.5423 0.12964 0.0
C314 C 0.24117 0.49519 0.12624 0.0
C315 C 0.28069 0.54155 0.12683 0.0
H316 H 0.16463 0.45768 0.12709 0.0
H317 H 0.24912 0.45686 0.12496 0.0
S318 S 0.25734 0.67667 0.13154 0.0
N319 N 0.20287 0.63768 0.13193 0.0
N320 N 0.29408 0.63731 0.12928 0.0
C321 C 0.26338 0.58875 0.12885 0.0
C322 C 0.21173 0.58901 0.13019 0.0
C323 C 0.84501 0.24534 0.45562 0.0
C324 C 0.85001 0.23555 0.48478 0.0
C325 C 0.87951 0.28397 0.44346 0.0
C326 C 0.92027 0.31469 0.45999 0.0
H327 H 0.81496 0.2218 0.44186 0.0
H328 H 0.87455 0.28934 0.42081 0.0
S329 S 0.94864 0.3069 0.53776 0.0
N330 N 0.89744 0.26192 0.53024 0.0
N331 N 0.96277 0.33365 0.50731 0.0
C332 C 0.92491 0.30645 0.48936 0.0
C333 C 0.88978 0.26706 0.50174 0.0
C334 C 0.56603 0.65423 0.84168 0.0
C335 C 0.52314 0.61554 0.83332 0.0
C336 C 0.56973 0.70858 0.83818 0.0
C337 C 0.53073 0.72749 0.82625 0.0
H338 H 0.59757 0.64251 0.85063 0.0
H339 H 0.60386 0.73615 0.84478 0.0
S340 S 0.40959 0.64356 0.80146 0.0
N341 N 0.43994 0.60099 0.8132 0.0
N342 N 0.4473 0.70246 0.80642 0.0
C343 C 0.48724 0.68948 0.8184 0.0
C344 C 0.48341 0.63395 0.82191 0.0
C345 C 0.83346 0.59779 0.13193 0.0
C346 C 0.85269 0.55182 0.1327 0.0
C347 C 0.78197 0.59643 0.13019 0.0
C348 C 0.74374 0.54906 0.1298 0.0
H349 H 0.85866 0.6361 0.13232 0.0
H350 H 0.77216 0.63388 0.12957 0.0
S351 S 0.77097 0.41593 0.13082 0.0
N352 N 0.82513 0.45626 0.13214 0.0
N353 N 0.73264 0.45388 0.12983 0.0
C354 C 0.76262 0.50296 0.13068 0.0
C355 C 0.81481 0.50429 0.13183 0.0
C356 C 0.24731 0.73326 0.49451 0.0
C357 C 0.27199 0.76716 0.47497 0.0
C358 C 0.21432 0.6855 0.48527 0.0
C359 C 0.20422 0.67035 0.45613 0.0
H360 H 0.25419 0.7433 0.51714 0.0
H361 H 0.19649 0.66028 0.50103 0.0
S362 S 0.25863 0.74557 0.39641 0.0
N363 N 0.28352 0.78264 0.42519 0.0
N364 N 0.22173 0.693 0.40783 0.0
C365 C 0.22828 0.7042 0.43639 0.0
C366 C 0.26215 0.7525 0.44581 0.0
C367 C 0.47391 0.24177 0.8302 0.0
C368 C 0.51663 0.28246 0.83494 0.0
C369 C 0.47477 0.18777 0.82793 0.0
C370 C 0.51835 0.17179 0.83077 0.0
H371 H 0.43939 0.25164 0.8278 0.0
H372 H 0.44097 0.15827 0.82402 0.0
S373 S 0.64055 0.26191 0.84295 0.0
N374 N 0.60406 0.30186 0.84229 0.0
N375 N 0.60541 0.20167 0.8379 0.0
C376 C 0.5612 0.212 0.83563 0.0
C377 C 0.56042 0.26676 0.83774 0.0
C378 C 0.61031 0.83249 0.53664 0.0
C379 C 0.56718 0.84548 0.52668 0.0
C380 C 0.61201 0.77981 0.54164 0.0
C381 C 0.57098 0.7372 0.5363 0.0
H382 H 0.64287 0.8635 0.54155 0.0
H383 H 0.64583 0.77237 0.55008 0.0
S384 S 0.44951 0.74858 0.5087 0.0
N385 N 0.48242 0.81019 0.51089 0.0
N386 N 0.48616 0.71169 0.51959 0.0
C387 C 0.52799 0.74926 0.52547 0.0
C388 C 0.52596 0.80307 0.52089 0.0
C389 C 0.88619 0.60749 0.84989 0.0
C390 C 0.84514 0.62718 0.84493 0.0
C391 C 0.9322 0.64102 0.85134 0.0
C392 C 0.93906 0.69563 0.84771 0.0
H393 H 0.88266 0.56619 0.8541 0.0
H394 H 0.96242 0.6243 0.85727 0.0
S395 S 0.84328 0.76529 0.82967 0.0
N396 N 0.81389 0.7034 0.83333 0.0
N397 N 0.90102 0.76668 0.83529 0.0
C398 C 0.89838 0.71514 0.84043 0.0
C399 C 0.85124 0.6808 0.8391 0.0
C400 C 0.28595 0.86994 0.16459 0.0
C401 C 0.25825 0.83993 0.18448 0.0
C402 C 0.333 0.90058 0.17249 0.0
C403 C 0.35413 0.90322 0.20072 0.0
H404 H 0.27142 0.8691 0.1426 0.0
H405 H 0.35292 0.92263 0.15637 0.0
S406 S 0.29684 0.83254 0.26104 0.0
N407 N 0.25548 0.81542 0.23377 0.0
N408 N 0.34358 0.87243 0.24853 0.0
C409 C 0.32668 0.87366 0.22083 0.0
C410 C 0.27898 0.84216 0.21274 0.0
C411 C 0.53195 0.19563 0.54432 0.0
C412 C 0.56113 0.17482 0.527 0.0
C413 C 0.5356 0.2507 0.5469 0.0
C414 C 0.56805 0.28749 0.53189 0.0
H415 H 0.50735 0.16936 0.55681 0.0
H416 H 0.51386 0.26456 0.56156 0.0
S417 S 0.647 0.25146 0.48013 0.0
N418 N 0.62052 0.19447 0.49284 0.0
N419 N 0.62566 0.2966 0.49618 0.0
C420 C 0.59543 0.2663 0.51326 0.0
C421 C 0.59242 0.21053 0.51121 0.0
C422 C 0.32335 0.63908 0.8567 0.0
C423 C 0.29305 0.59958 0.8381 0.0
C424 C 0.30846 0.68361 0.86552 0.0
C425 C 0.26291 0.69032 0.85588 0.0
H426 H 0.35818 0.63459 0.86527 0.0
H427 H 0.33179 0.71179 0.88098 0.0
S428 S 0.17114 0.59968 0.8059 0.0
N429 N 0.21648 0.57118 0.80933 0.0
N430 N 0.18841 0.65508 0.82581 0.0
C431 C 0.23339 0.65265 0.83602 0.0
C432 C 0.2485 0.60719 0.82713 0.0
C433 C 0.75227 0.25109 0.16753 0.0
C434 C 0.79822 0.24065 0.16857 0.0
C435 C 0.71351 0.21669 0.17917 0.0
C436 C 0.71931 0.17094 0.19284 0.0
H437 H 0.7461 0.28594 0.15739 0.0
H438 H 0.67893 0.22645 0.17788 0.0
S439 S 0.83215 0.12556 0.2014 0.0
N440 N 0.84697 0.18101 0.18452 0.0
N441 N 0.77464 0.11675 0.20619 0.0
C442 C 0.76504 0.16011 0.19397 0.0
C443 C 0.80426 0.19475 0.18191 0.0
C444 C 0.9972 0.61846 0.03848 0.0
C445 C 1.02109 0.58167 0.05016 0.0
C446 C 1.01393 0.64817 0.0155 0.0
C447 C 0.05522 0.64229 0.00322 0.0
H448 H 0.96643 0.62609 0.04798 0.0
H449 H 0.99517 0.67714 0.0078 0.0
S450 S 0.12953 0.54941 0.02473 0.0
N451 N 0.08688 0.53912 0.04676 0.0
N452 N 0.1184 0.59513 0.00341 0.0
C453 C 0.07803 0.60365 0.01361 0.0
C454 C 0.0609 0.57322 0.03709 0.0
C455 C 0.52605 0.97842 0.41619 0.0
C456 C 0.56088 0.01518 0.43406 0.0
C457 C 0.52592 0.97858 0.38638 0.0
C458 C 0.56035 0.01574 0.37309 0.0
H459 H 0.49884 0.94877 0.42524 0.0
H460 H 0.49849 0.94931 0.37361 0.0
S461 S 0.65942 0.12074 0.40982 0.0
N462 N 0.63073 0.09037 0.43588 0.0
N463 N 0.63047 0.09009 0.38009 0.0
C464 C 0.59507 0.05308 0.3906 0.0
C465 C 0.59538 0.05291 0.42096 0.0
C466 C 0.58542 0.49415 0.74432 0.0
C467 C 0.54242 0.46089 0.75202 0.0
C468 C 0.5938 0.50178 0.7157 0.0
C469 C 0.55951 0.47674 0.69346 0.0
H470 H 0.613 0.51481 0.76051 0.0
H471 H 0.62726 0.52815 0.71094 0.0
S472 S 0.44174 0.38427 0.70168 0.0
N473 N 0.46538 0.40176 0.73466 0.0
N474 N 0.48154 0.41603 0.68093 0.0
C475 C 0.51652 0.44311 0.70071 0.0
C476 C 0.50794 0.43513 0.72992 0.0
C477 C 0.58698 0.96789 0.62579 0.0
C478 C 0.56376 0.00316 0.61181 0.0
C479 C 0.5853 0.96093 0.65514 0.0
C480 C 0.56118 0.98977 0.6717 0.0
H481 H 0.60603 0.94481 0.6139 0.0
H482 H 0.60358 0.93334 0.66504 0.0
S483 S 0.49523 0.08755 0.64571 0.0
N484 N 0.51585 0.06725 0.61695 0.0
N485 N 0.51365 0.05486 0.67217 0.0
C486 C 0.53815 0.0254 0.6581 0.0
C487 C 0.53914 0.03188 0.62815 0.0
C488 C 0.4925 0.50799 0.93621 0.0
C489 C 0.49833 0.45981 0.92494 0.0
C490 C 0.49255 0.51723 0.96577 0.0
C491 C 0.49742 0.47823 0.98527 0.0
H492 H 0.48967 0.53953 0.92217 0.0
H493 H 0.49004 0.55585 0.97338 0.0
S494 S 0.5063 0.34222 0.96562 0.0
N495 N 0.50554 0.37136 0.93499 0.0
N496 N 0.50246 0.38692 0.99011 0.0
C497 C 0.50076 0.42881 0.97386 0.0
C498 C 0.50199 0.42007 0.94387 0.0
C499 C 1.00191 0.48187 0.23434 0.0
C500 C 1.02939 0.52744 0.22274 0.0
C501 C 1.00933 0.47169 0.26323 0.0
C502 C 0.04474 0.50646 0.28161 0.0
H503 H 0.97482 0.4533 0.22096 0.0
H504 H 0.98804 0.43564 0.27108 0.0
S505 S 0.12391 0.63328 0.26287 0.0
N506 N 0.09185 0.60917 0.2327 0.0
N507 N 0.10547 0.58973 0.28683 0.0
C508 C 0.07158 0.55277 0.2706 0.0
C509 C 0.06398 0.56336 0.24124 0.0
loop_
_geom_bond_atom_site_label_1
_geom_bond_atom_site_label_2
_geom_bond_distance
_geom_bond_site_symmetry_2
_ccdc_geom_bond_type
Dy0 O3 2.307 1_455 S
Dy0 O5 2.395 . S
Dy0 O6 2.379 . S
Dy0 O8 2.339 . S
Dy0 O10 2.298 . S
Dy0 O14 2.275 . S
Dy0 C22 2.738 . S
Dy1 O4 2.298 . S
Dy1 O7 2.275 1_655 S
Dy1 O9 2.307 1_655 S
Dy1 O11 2.395 . S
Dy1 O12 2.379 . S
Dy1 O15 2.339 . S
Dy1 C31 2.738 . S
C2 O14 1.254 . S
C2 O15 1.257 1_455 S
O3 Dy0 2.307 1_655 S
O3 C13 1.266 . S
O4 Dy1 2.298 . S
O4 C13 1.236 . S
O5 Dy0 2.395 . S
O5 C22 1.255 . S
O6 Dy0 2.379 . S
O6 C22 1.249 . S
O7 Dy1 2.275 1_455 S
O7 C23 1.254 . S
O8 Dy0 2.339 . S
O8 C23 1.257 . S
O9 Dy1 2.307 1_455 S
O9 C24 1.266 . S
O10 Dy0 2.298 . S
O10 C24 1.236 . S
O11 Dy1 2.395 . S
O11 C31 1.255 . S
O12 Dy1 2.379 . S
O12 C31 1.249 . S
C13 O3 1.266 . S
C13 O4 1.236 . S
O14 Dy0 2.275 . S
O14 C2 1.254 . S
O15 Dy1 2.339 . S
O15 C2 1.257 1_655 S
C16 C19 1.344 . S
C16 C20 1.328 . S
C16 C22 1.516 . S
C17 C18 1.304 . S
C17 C21 1.323 . S
C18 C17 1.304 . S
C18 C19 1.371 . S
C18 H32 0.930 . S
C19 C16 1.344 . S
C19 C18 1.371 . S
C19 H33 0.931 . S
C20 C16 1.328 . S
C20 C21 1.433 . S
C20 H34 0.931 . S
C21 C17 1.323 . S
C21 C20 1.433 . S
C21 H35 0.933 . S
C22 Dy0 2.738 . S
C22 O5 1.255 . S
C22 O6 1.249 . S
C22 C16 1.516 . S
C23 O7 1.254 . S
C23 O8 1.257 . S
C24 O9 1.266 . S
C24 O10 1.236 . S
C25 C28 1.344 . S
C25 C29 1.328 . S
C25 C31 1.516 . S
C26 C27 1.304 . S
C26 C30 1.323 . S
C27 C26 1.304 . S
C27 C28 1.371 . S
C27 H36 0.930 . S
C28 C25 1.344 . S
C28 C27 1.371 . S
C28 H37 0.931 . S
C29 C25 1.328 . S
C29 C30 1.433 . S
C29 H38 0.931 . S
C30 C26 1.323 . S
C30 C29 1.433 . S
C30 H39 0.933 . S
C31 Dy1 2.738 . S
C31 O11 1.255 . S
C31 O12 1.249 . S
C31 C25 1.516 . S
H32 C18 0.930 . S
H33 C19 0.931 . S
H34 C20 0.931 . S
H35 C21 0.933 . S
H36 C27 0.930 . S
H37 C28 0.931 . S
H38 C29 0.931 . S
H39 C30 0.933 . S
Dy40 O43 2.307 1_565 S
Dy40 O45 2.395 . S
Dy40 O46 2.379 . S
Dy40 O48 2.339 1_565 S
Dy40 O50 2.298 . S
Dy40 O54 2.275 1_565 S
Dy40 C62 2.738 . S
Dy41 O44 2.298 . S
Dy41 O47 2.275 . S
Dy41 O49 2.307 1_545 S
Dy41 O51 2.395 . S
Dy41 O52 2.379 . S
Dy41 O55 2.339 . S
Dy41 C71 2.738 . S
C42 O54 1.254 . S
C42 O55 1.257 . S
O43 Dy40 2.307 1_545 S
O43 C53 1.266 . S
O44 Dy41 2.298 . S
O44 C53 1.236 . S
O45 Dy40 2.395 . S
O45 C62 1.255 . S
O46 Dy40 2.379 . S
O46 C62 1.249 . S
O47 Dy41 2.275 . S
O47 C63 1.254 . S
O48 Dy40 2.339 1_545 S
O48 C63 1.257 . S
O49 Dy41 2.307 1_565 S
O49 C64 1.266 . S
O50 Dy40 2.298 . S
O50 C64 1.236 . S
O51 Dy41 2.395 . S
O51 C71 1.255 . S
O52 Dy41 2.379 . S
O52 C71 1.249 . S
C53 O43 1.266 . S
C53 O44 1.236 . S
O54 Dy40 2.275 1_545 S
O54 C42 1.254 . S
O55 Dy41 2.339 . S
O55 C42 1.257 . S
C56 C59 1.344 . S
C56 C60 1.328 . S
C56 C62 1.516 . S
C57 C58 1.304 . S
C57 C61 1.323 . S
C58 C57 1.304 . S
C58 C59 1.371 . S
C58 H72 0.930 . S
C59 C56 1.344 . S
C59 C58 1.371 . S
C59 H73 0.931 . S
C60 C56 1.328 . S
C60 C61 1.433 . S
C60 H74 0.931 . S
C61 C57 1.323 . S
C61 C60 1.433 . S
C61 H75 0.933 . S
C62 Dy40 2.738 . S
C62 O45 1.255 . S
C62 O46 1.249 . S
C62 C56 1.516 . S
C63 O47 1.254 . S
C63 O48 1.257 . S
C64 O49 1.266 . S
C64 O50 1.236 . S
C65 C68 1.344 . S
C65 C69 1.328 . S
C65 C71 1.516 . S
C66 C67 1.304 . S
C66 C70 1.323 . S
C67 C66 1.304 . S
C67 C68 1.371 . S
C67 H76 0.930 . S
C68 C65 1.344 . S
C68 C67 1.371 . S
C68 H77 0.931 . S
C69 C65 1.328 . S
C69 C70 1.433 . S
C69 H78 0.931 . S
C70 C66 1.323 . S
C70 C69 1.433 . S
C70 H79 0.933 . S
C71 Dy41 2.738 . S
C71 O51 1.255 . S
C71 O52 1.249 . S
C71 C65 1.516 . S
H72 C58 0.930 . S
H73 C59 0.931 . S
H74 C60 0.931 . S
H75 C61 0.933 . S
H76 C67 0.930 . S
H77 C68 0.931 . S
H78 C69 0.931 . S
H79 C70 0.933 . S
Dy80 O83 2.307 . S
Dy80 O85 2.395 . S
Dy80 O86 2.379 . S
Dy80 O88 2.339 . S
Dy80 O90 2.298 . S
Dy80 O94 2.275 . S
Dy80 C102 2.738 . S
Dy81 O84 2.298 . S
Dy81 O87 2.275 . S
Dy81 O89 2.307 . S
Dy81 O91 2.395 . S
Dy81 O92 2.379 . S
Dy81 O95 2.339 . S
Dy81 C111 2.738 . S
C82 O94 1.254 . S
C82 O95 1.257 . S
O83 Dy80 2.307 . S
O83 C93 1.266 . S
O84 Dy81 2.298 . S
O84 C93 1.236 . S
O85 Dy80 2.395 . S
O85 C102 1.255 . S
O86 Dy80 2.379 . S
O86 C102 1.249 . S
O87 Dy81 2.275 . S
O87 C103 1.254 . S
O88 Dy80 2.339 . S
O88 C103 1.257 . S
O89 Dy81 2.307 . S
O89 C104 1.266 . S
O90 Dy80 2.298 . S
O90 C104 1.236 . S
O91 Dy81 2.395 . S
O91 C111 1.255 . S
O92 Dy81 2.379 . S
O92 C111 1.249 . S
C93 O83 1.266 . S
C93 O84 1.236 . S
O94 Dy80 2.275 . S
O94 C82 1.254 . S
O95 Dy81 2.339 . S
O95 C82 1.257 . S
C96 C99 1.344 . S
C96 C100 1.328 . S
C96 C102 1.516 . S
C97 C98 1.304 . S
C97 C101 1.323 . S
C98 C97 1.304 . S
C98 C99 1.371 . S
C98 H112 0.930 . S
C99 C96 1.344 . S
C99 C98 1.371 . S
C99 H113 0.931 . S
C100 C96 1.328 . S
C100 C101 1.433 . S
C100 H114 0.931 . S
C101 C97 1.323 . S
C101 C100 1.433 . S
C101 H115 0.933 . S
C102 Dy80 2.738 . S
C102 O85 1.255 . S
C102 O86 1.249 . S
C102 C96 1.516 . S
C103 O87 1.254 . S
C103 O88 1.257 . S
C104 O89 1.266 . S
C104 O90 1.236 . S
C105 C108 1.344 . S
C105 C109 1.328 . S
C105 C111 1.516 . S
C106 C107 1.304 . S
C106 C110 1.323 . S
C107 C106 1.304 . S
C107 C108 1.371 . S
C107 H116 0.930 . S
C108 C105 1.344 . S
C108 C107 1.371 . S
C108 H117 0.931 . S
C109 C105 1.328 . S
C109 C110 1.433 . S
C109 H118 0.931 . S
C110 C106 1.323 . S
C110 C109 1.433 . S
C110 H119 0.933 . S
C111 Dy81 2.738 . S
C111 O91 1.255 . S
C111 O92 1.249 . S
C111 C105 1.516 . S
H112 C98 0.930 . S
H113 C99 0.931 . S
H114 C100 0.931 . S
H115 C101 0.933 . S
H116 C107 0.930 . S
H117 C108 0.931 . S
H118 C109 0.931 . S
H119 C110 0.933 . S
P120 O131 1.490 . S
P120 C134 1.812 . S
P120 C140 1.803 1_565 S
P120 C146 1.819 1_565 S
H121 C135 0.941 . S
H122 C136 0.939 . S
H123 C138 0.940 . S
H124 C139 0.940 1_545 S
H125 C141 0.939 . S
H126 C142 0.942 . S
H127 C144 0.940 . S
H128 C145 0.939 . S
H129 C147 0.941 . S
H130 C151 0.939 . S
O131 P120 1.490 . S
H132 C148 0.939 . S
H133 C150 0.940 . S
C134 P120 1.812 . S
C134 C135 1.389 . S
C134 C139 1.391 . S
C135 H121 0.941 . S
C135 C134 1.389 . S
C135 C136 1.397 . S
C136 H122 0.939 . S
C136 C135 1.397 . S
C136 C137 1.378 . S
C137 C136 1.378 . S
C137 C138 1.378 . S
C138 H123 0.940 . S
C138 C137 1.378 . S
C138 C139 1.396 . S
C139 H124 0.940 1_565 S
C139 C134 1.391 . S
C139 C138 1.396 . S
C140 P120 1.803 1_545 S
C140 C141 1.378 . S
C140 C145 1.400 . S
C141 H125 0.939 . S
C141 C140 1.378 . S
C141 C142 1.361 . S
C142 H126 0.942 . S
C142 C141 1.361 . S
C142 C143 1.369 . S
C143 C142 1.369 . S
C143 C144 1.404 . S
C144 H127 0.940 . S
C144 C143 1.404 . S
C144 C145 1.389 . S
C145 H128 0.939 . S
C145 C140 1.400 . S
C145 C144 1.389 . S
C146 P120 1.819 1_545 S
C146 C147 1.391 1_545 S
C146 C151 1.391 . S
C147 H129 0.941 . S
C147 C146 1.391 1_565 S
C147 C148 1.396 . S
C148 H132 0.939 . S
C148 C147 1.396 . S
C148 C149 1.397 1_565 S
C149 C148 1.397 1_545 S
C149 C150 1.385 . S
C150 H133 0.940 . S
C150 C149 1.385 . S
C150 C151 1.388 . S
C151 H130 0.939 . S
C151 C146 1.391 . S
C151 C150 1.388 . S
P152 O163 1.490 . S
P152 C166 1.812 . S
P152 C172 1.803 . S
P152 C178 1.819 . S
H153 C167 0.941 . S
H154 C168 0.939 . S
H155 C170 0.940 . S
H156 C171 0.940 . S
H157 C173 0.939 . S
H158 C174 0.942 . S
H159 C176 0.940 . S
H160 C177 0.939 . S
H161 C179 0.941 . S
H162 C183 0.939 . S
O163 P152 1.490 . S
H164 C180 0.939 . S
H165 C182 0.940 . S
C166 P152 1.812 . S
C166 C167 1.389 . S
C166 C171 1.391 . S
C167 H153 0.941 . S
C167 C166 1.389 . S
C167 C168 1.397 . S
C168 H154 0.939 . S
C168 C167 1.397 . S
C168 C169 1.378 . S
C169 C168 1.378 . S
C169 C170 1.378 . S
C170 H155 0.940 . S
C170 C169 1.378 . S
C170 C171 1.396 . S
C171 H156 0.940 . S
C171 C166 1.391 . S
C171 C170 1.396 . S
C172 P152 1.803 . S
C172 C173 1.378 . S
C172 C177 1.400 . S
C173 H157 0.939 . S
C173 C172 1.378 . S
C173 C174 1.361 . S
C174 H158 0.942 . S
C174 C173 1.361 . S
C174 C175 1.369 . S
C175 C174 1.369 . S
C175 C176 1.404 . S
C176 H159 0.940 . S
C176 C175 1.404 . S
C176 C177 1.389 . S
C177 H160 0.939 . S
C177 C172 1.400 . S
C177 C176 1.389 . S
C178 P152 1.819 . S
C178 C179 1.391 . S
C178 C183 1.391 . S
C179 H161 0.941 . S
C179 C178 1.391 . S
C179 C180 1.396 . S
C180 H164 0.939 . S
C180 C179 1.396 . S
C180 C181 1.397 . S
C181 C180 1.397 . S
C181 C182 1.385 . S
C182 H165 0.940 . S
C182 C181 1.385 . S
C182 C183 1.388 . S
C183 H162 0.939 . S
C183 C178 1.391 . S
C183 C182 1.388 . S
P184 O195 1.490 . S
P184 C198 1.812 . S
P184 C204 1.803 1_455 S
P184 C210 1.819 . S
H185 C199 0.941 . S
H186 C200 0.939 . S
H187 C202 0.940 . S
H188 C203 0.940 . S
H189 C205 0.939 . S
H190 C206 0.942 . S
H191 C208 0.940 . S
H192 C209 0.939 . S
H193 C211 0.941 . S
H194 C215 0.939 . S
O195 P184 1.490 . S
H196 C212 0.939 1_554 S
H197 C214 0.940 . S
C198 P184 1.812 . S
C198 C199 1.389 . S
C198 C203 1.391 . S
C199 H185 0.941 . S
C199 C198 1.389 . S
C199 C200 1.397 . S
C200 H186 0.939 . S
C200 C199 1.397 . S
C200 C201 1.378 . S
C201 C200 1.378 . S
C201 C202 1.378 . S
C202 H187 0.940 . S
C202 C201 1.378 . S
C202 C203 1.396 . S
C203 H188 0.940 . S
C203 C198 1.391 . S
C203 C202 1.396 . S
C204 P184 1.803 1_655 S
C204 C205 1.378 . S
C204 C209 1.400 . S
C205 H189 0.939 . S
C205 C204 1.378 . S
C205 C206 1.361 . S
C206 H190 0.942 . S
C206 C205 1.361 . S
C206 C207 1.369 . S
C207 C206 1.369 . S
C207 C208 1.404 . S
C208 H191 0.940 . S
C208 C207 1.404 . S
C208 C209 1.389 . S
C209 H192 0.939 . S
C209 C204 1.400 . S
C209 C208 1.389 . S
C210 P184 1.819 . S
C210 C211 1.391 . S
C210 C215 1.391 1_455 S
C211 H193 0.941 . S
C211 C210 1.391 . S
C211 C212 1.396 . S
C212 H196 0.939 1_556 S
C212 C211 1.396 . S
C212 C213 1.397 1_556 S
C213 C212 1.397 1_554 S
C213 C214 1.385 1_454 S
C214 H197 0.940 . S
C214 C213 1.385 1_656 S
C214 C215 1.388 . S
C215 H194 0.939 . S
C215 C210 1.391 1_655 S
C215 C214 1.388 . S
P216 O227 1.490 . S
P216 C230 1.812 . S
P216 C236 1.803 1_455 S
P216 C242 1.819 . S
H217 C231 0.941 . S
H218 C232 0.939 . S
H219 C234 0.940 . S
H220 C235 0.940 . S
H221 C237 0.939 . S
H222 C238 0.942 . S
H223 C240 0.940 . S
H224 C241 0.939 . S
H225 C243 0.941 . S
H226 C247 0.939 . S
O227 P216 1.490 . S
H228 C244 0.939 . S
H229 C246 0.940 . S
C230 P216 1.812 . S
C230 C231 1.389 . S
C230 C235 1.391 . S
C231 H217 0.941 . S
C231 C230 1.389 . S
C231 C232 1.397 . S
C232 H218 0.939 . S
C232 C231 1.397 . S
C232 C233 1.378 . S
C233 C232 1.378 . S
C233 C234 1.378 . S
C234 H219 0.940 . S
C234 C233 1.378 . S
C234 C235 1.396 . S
C235 H220 0.940 . S
C235 C230 1.391 . S
C235 C234 1.396 . S
C236 P216 1.803 1_655 S
C236 C237 1.378 . S
C236 C241 1.400 . S
C237 H221 0.939 . S
C237 C236 1.378 . S
C237 C238 1.361 . S
C238 H222 0.942 . S
C238 C237 1.361 . S
C238 C239 1.369 . S
C239 C238 1.369 . S
C239 C240 1.404 . S
C240 H223 0.940 . S
C240 C239 1.404 . S
C240 C241 1.389 . S
C241 H224 0.939 . S
C241 C236 1.400 . S
C241 C240 1.389 . S
C242 P216 1.819 . S
C242 C243 1.391 . S
C242 C247 1.391 1_455 S
C243 H225 0.941 . S
C243 C242 1.391 . S
C243 C244 1.396 . S
C244 H228 0.939 . S
C244 C243 1.396 . S
C244 C245 1.413 . S
C245 C244 1.413 . S
C245 C246 1.373 1_455 S
C246 H229 0.940 . S
C246 C245 1.373 1_655 S
C246 C247 1.388 . S
C247 H226 0.939 . S
C247 C242 1.391 1_655 S
C247 C246 1.388 . S
P248 O259 1.490 . S
P248 C262 1.812 . S
P248 C268 1.803 1_545 S
P248 C274 1.819 . S
H249 C263 0.941 . S
H250 C264 0.939 . S
H251 C266 0.940 . S
H252 C267 0.940 . S
H253 C269 0.939 . S
H254 C270 0.942 . S
H255 C272 0.940 . S
H256 C273 0.939 . S
H257 C275 0.941 . S
H258 C279 0.939 . S
O259 P248 1.490 . S
H260 C276 0.939 . S
H261 C278 0.940 . S
C262 P248 1.812 . S
C262 C263 1.389 . S
C262 C267 1.391 . S
C263 H249 0.941 . S
C263 C262 1.389 . S
C263 C264 1.397 . S
C264 H250 0.939 . S
C264 C263 1.397 . S
C264 C265 1.378 . S
C265 C264 1.378 . S
C265 C266 1.378 . S
C266 H251 0.940 . S
C266 C265 1.378 . S
C266 C267 1.396 . S
C267 H252 0.940 . S
C267 C262 1.391 . S
C267 C266 1.396 . S
C268 P248 1.803 1_565 S
C268 C269 1.378 . S
C268 C273 1.400 . S
C269 H253 0.939 . S
C269 C268 1.378 . S
C269 C270 1.361 . S
C270 H254 0.942 . S
C270 C269 1.361 . S
C270 C271 1.369 . S
C271 C270 1.369 . S
C271 C272 1.404 . S
C272 H255 0.940 . S
C272 C271 1.404 . S
C272 C273 1.389 . S
C273 H256 0.939 . S
C273 C268 1.400 . S
C273 C272 1.389 . S
C274 P248 1.819 . S
C274 C275 1.391 . S
C274 C279 1.391 1_545 S
C275 H257 0.941 . S
C275 C274 1.391 . S
C275 C276 1.396 . S
C276 H260 0.939 . S
C276 C275 1.396 . S
C276 C277 1.397 . S
C277 C276 1.397 . S
C277 C278 1.385 1_545 S
C278 H261 0.940 . S
C278 C277 1.385 1_565 S
C278 C279 1.388 . S
C279 H258 0.939 . S
C279 C274 1.391 1_565 S
C279 C278 1.388 . S
P280 O291 1.490 . S
P280 C294 1.812 . S
P280 C300 1.803 . S
P280 C306 1.819 . S
H281 C295 0.941 . S
H282 C296 0.939 . S
H283 C298 0.940 . S
H284 C299 0.940 . S
H285 C301 0.939 . S
H286 C302 0.942 . S
H287 C304 0.940 . S
H288 C305 0.939 . S
H289 C307 0.941 . S
H290 C311 0.939 . S
O291 P280 1.490 . S
H292 C308 0.939 . S
H293 C310 0.940 . S
C294 P280 1.812 . S
C294 C295 1.389 . S
C294 C299 1.391 . S
C295 H281 0.941 . S
C295 C294 1.389 . S
C295 C296 1.397 . S
C296 H282 0.939 . S
C296 C295 1.397 . S
C296 C297 1.378 . S
C297 C296 1.378 . S
C297 C298 1.378 . S
C298 H283 0.940 . S
C298 C297 1.378 . S
C298 C299 1.396 . S
C299 H284 0.940 . S
C299 C294 1.391 . S
C299 C298 1.396 . S
C300 P280 1.803 . S
C300 C301 1.378 . S
C300 C305 1.400 . S
C301 H285 0.939 . S
C301 C300 1.378 . S
C301 C302 1.361 . S
C302 H286 0.942 . S
C302 C301 1.361 . S
C302 C303 1.369 . S
C303 C302 1.369 . S
C303 C304 1.404 . S
C304 H287 0.940 . S
C304 C303 1.404 . S
C304 C305 1.389 . S
C305 H288 0.939 . S
C305 C300 1.400 . S
C305 C304 1.389 . S
C306 P280 1.819 . S
C306 C307 1.391 . S
C306 C311 1.391 . S
C307 H289 0.941 . S
C307 C306 1.391 . S
C307 C308 1.396 . S
C308 H292 0.939 . S
C308 C307 1.396 . S
C308 C309 1.397 . S
C309 C308 1.397 . S
C309 C310 1.385 . S
C310 H293 0.940 . S
C310 C309 1.385 . S
C310 C311 1.388 . S
C311 H290 0.939 . S
C311 C306 1.391 . S
C311 C310 1.388 . S
C312 C313 1.369 . S
C312 C314 1.419 . S
C312 H316 0.930 . S
C313 C312 1.369 . S
C313 C322 1.429 . S
C314 C312 1.419 . S
C314 C315 1.363 . S
C314 H317 0.929 . S
C315 C314 1.363 . S
C315 C321 1.428 . S
H316 C312 0.930 . S
H317 C314 0.929 . S
S318 N319 1.613 . S
S318 N320 1.610 . S
N319 S318 1.613 . S
N319 C322 1.350 . S
N320 S318 1.610 . S
N320 C321 1.351 . S
C321 C315 1.428 . S
C321 N320 1.351 . S
C321 C322 1.434 . S
C322 C313 1.429 . S
C322 N319 1.350 . S
C322 C321 1.434 . S
C323 C324 1.369 . S
C323 C325 1.419 . S
C323 H327 0.930 . S
C324 C323 1.369 . S
C324 C333 1.429 . S
C325 C323 1.419 . S
C325 C326 1.363 . S
C325 H328 0.929 . S
C326 C325 1.363 . S
C326 C332 1.428 . S
H327 C323 0.930 . S
H328 C325 0.929 . S
S329 N330 1.613 . S
S329 N331 1.610 . S
N330 S329 1.613 . S
N330 C333 1.350 . S
N331 S329 1.610 . S
N331 C332 1.351 . S
C332 C326 1.428 . S
C332 N331 1.351 . S
C332 C333 1.434 . S
C333 C324 1.429 . S
C333 N330 1.350 . S
C333 C332 1.434 . S
C334 C335 1.369 . S
C334 C336 1.419 . S
C334 H338 0.930 . S
C335 C334 1.369 . S
C335 C344 1.429 . S
C336 C334 1.419 . S
C336 C337 1.363 . S
C336 H339 0.929 . S
C337 C336 1.363 . S
C337 C343 1.428 . S
H338 C334 0.930 . S
H339 C336 0.929 . S
S340 N341 1.613 . S
S340 N342 1.610 . S
N341 S340 1.613 . S
N341 C344 1.350 . S
N342 S340 1.610 . S
N342 C343 1.351 . S
C343 C337 1.428 . S
C343 N342 1.351 . S
C343 C344 1.434 . S
C344 C335 1.429 . S
C344 N341 1.350 . S
C344 C343 1.434 . S
C345 C346 1.369 . S
C345 C347 1.419 . S
C345 H349 0.930 . S
C346 C345 1.369 . S
C346 C355 1.429 . S
C347 C345 1.419 . S
C347 C348 1.363 . S
C347 H350 0.929 . S
C348 C347 1.363 . S
C348 C354 1.428 . S
H349 C345 0.930 . S
H350 C347 0.929 . S
S351 N352 1.613 . S
S351 N353 1.610 . S
N352 S351 1.613 . S
N352 C355 1.350 . S
N353 S351 1.610 . S
N353 C354 1.351 . S
C354 C348 1.428 . S
C354 N353 1.351 . S
C354 C355 1.434 . S
C355 C346 1.429 . S
C355 N352 1.350 . S
C355 C354 1.434 . S
C356 C357 1.369 . S
C356 C358 1.419 . S
C356 H360 0.930 . S
C357 C356 1.369 . S
C357 C366 1.429 . S
C358 C356 1.419 . S
C358 C359 1.363 . S
C358 H361 0.929 . S
C359 C358 1.363 . S
C359 C365 1.428 . S
H360 C356 0.930 . S
H361 C358 0.929 . S
S362 N363 1.613 . S
S362 N364 1.610 . S
N363 S362 1.613 . S
N363 C366 1.350 . S
N364 S362 1.610 . S
N364 C365 1.351 . S
C365 C359 1.428 . S
C365 N364 1.351 . S
C365 C366 1.434 . S
C366 C357 1.429 . S
C366 N363 1.350 . S
C366 C365 1.434 . S
C367 C368 1.369 . S
C367 C369 1.419 . S
C367 H371 0.930 . S
C368 C367 1.369 . S
C368 C377 1.429 . S
C369 C367 1.419 . S
C369 C370 1.363 . S
C369 H372 0.929 . S
C370 C369 1.363 . S
C370 C376 1.428 . S
H371 C367 0.930 . S
H372 C369 0.929 . S
S373 N374 1.613 . S
S373 N375 1.610 . S
N374 S373 1.613 . S
N374 C377 1.350 . S
N375 S373 1.610 . S
N375 C376 1.351 . S
C376 C370 1.428 . S
C376 N375 1.351 . S
C376 C377 1.434 . S
C377 C368 1.429 . S
C377 N374 1.350 . S
C377 C376 1.434 . S
C378 C379 1.369 . S
C378 C380 1.419 . S
C378 H382 0.930 . S
C379 C378 1.369 . S
C379 C388 1.429 . S
C380 C378 1.419 . S
C380 C381 1.363 . S
C380 H383 0.929 . S
C381 C380 1.363 . S
C381 C387 1.428 . S
H382 C378 0.930 . S
H383 C380 0.929 . S
S384 N385 1.613 . S
S384 N386 1.610 . S
N385 S384 1.613 . S
N385 C388 1.350 . S
N386 S384 1.610 . S
N386 C387 1.351 . S
C387 C381 1.428 . S
C387 N386 1.351 . S
C387 C388 1.434 . S
C388 C379 1.429 . S
C388 N385 1.350 . S
C388 C387 1.434 . S
C389 C390 1.369 . S
C389 C391 1.419 . S
C389 H393 0.930 . S
C390 C389 1.369 . S
C390 C399 1.429 . S
C391 C389 1.419 . S
C391 C392 1.363 . S
C391 H394 0.929 . S
C392 C391 1.363 . S
C392 C398 1.428 . S
H393 C389 0.930 . S
H394 C391 0.929 . S
S395 N396 1.613 . S
S395 N397 1.610 . S
N396 S395 1.613 . S
N396 C399 1.350 . S
N397 S395 1.610 . S
N397 C398 1.351 . S
C398 C392 1.428 . S
C398 N397 1.351 . S
C398 C399 1.434 . S
C399 C390 1.429 . S
C399 N396 1.350 . S
C399 C398 1.434 . S
C400 C401 1.369 . S
C400 C402 1.419 . S
C400 H404 0.930 . S
C401 C400 1.369 . S
C401 C410 1.429 . S
C402 C400 1.419 . S
C402 C403 1.363 . S
C402 H405 0.929 . S
C403 C402 1.363 . S
C403 C409 1.428 . S
H404 C400 0.930 . S
H405 C402 0.929 . S
S406 N407 1.613 . S
S406 N408 1.610 . S
N407 S406 1.613 . S
N407 C410 1.350 . S
N408 S406 1.610 . S
N408 C409 1.351 . S
C409 C403 1.428 . S
C409 N408 1.351 . S
C409 C410 1.434 . S
C410 C401 1.429 . S
C410 N407 1.350 . S
C410 C409 1.434 . S
C411 C412 1.369 . S
C411 C413 1.419 . S
C411 H415 0.930 . S
C412 C411 1.369 . S
C412 C421 1.429 . S
C413 C411 1.419 . S
C413 C414 1.363 . S
C413 H416 0.929 . S
C414 C413 1.363 . S
C414 C420 1.428 . S
H415 C411 0.930 . S
H416 C413 0.929 . S
S417 N418 1.613 . S
S417 N419 1.610 . S
N418 S417 1.613 . S
N418 C421 1.350 . S
N419 S417 1.610 . S
N419 C420 1.351 . S
C420 C414 1.428 . S
C420 N419 1.351 . S
C420 C421 1.434 . S
C421 C412 1.429 . S
C421 N418 1.350 . S
C421 C420 1.434 . S
C422 C423 1.369 . S
C422 C424 1.419 . S
C422 H426 0.930 . S
C423 C422 1.369 . S
C423 C432 1.429 . S
C424 C422 1.419 . S
C424 C425 1.363 . S
C424 H427 0.929 . S
C425 C424 1.363 . S
C425 C431 1.428 . S
H426 C422 0.930 . S
H427 C424 0.929 . S
S428 N429 1.613 . S
S428 N430 1.610 . S
N429 S428 1.613 . S
N429 C432 1.350 . S
N430 S428 1.610 . S
N430 C431 1.351 . S
C431 C425 1.428 . S
C431 N430 1.351 . S
C431 C432 1.434 . S
C432 C423 1.429 . S
C432 N429 1.350 . S
C432 C431 1.434 . S
C433 C434 1.369 . S
C433 C435 1.419 . S
C433 H437 0.930 . S
C434 C433 1.369 . S
C434 C443 1.429 . S
C435 C433 1.419 . S
C435 C436 1.363 . S
C435 H438 0.929 . S
C436 C435 1.363 . S
C436 C442 1.428 . S
H437 C433 0.930 . S
H438 C435 0.929 . S
S439 N440 1.613 . S
S439 N441 1.610 . S
N440 S439 1.613 . S
N440 C443 1.350 . S
N441 S439 1.610 . S
N441 C442 1.351 . S
C442 C436 1.428 . S
C442 N441 1.351 . S
C442 C443 1.434 . S
C443 C434 1.429 . S
C443 N440 1.350 . S
C443 C442 1.434 . S
C444 C445 1.369 . S
C444 C446 1.419 . S
C444 H448 0.930 . S
C445 C444 1.369 . S
C445 C454 1.429 1_455 S
C446 C444 1.419 . S
C446 C447 1.363 . S
C446 H449 0.929 . S
C447 C446 1.363 . S
C447 C453 1.428 . S
H448 C444 0.930 . S
H449 C446 0.929 . S
S450 N451 1.613 . S
S450 N452 1.610 . S
N451 S450 1.613 . S
N451 C454 1.350 . S
N452 S450 1.610 . S
N452 C453 1.351 1_655 S
C453 C447 1.428 . S
C453 N452 1.351 1_455 S
C453 C454 1.434 1_455 S
C454 C445 1.429 1_655 S
C454 N451 1.350 . S
C454 C453 1.434 1_655 S
C455 C456 1.369 . S
C455 C457 1.419 . S
C455 H459 0.930 . S
C456 C455 1.369 . S
C456 C465 1.429 . S
C457 C455 1.419 . S
C457 C458 1.363 . S
C457 H460 0.929 . S
C458 C457 1.363 . S
C458 C464 1.428 . S
H459 C455 0.930 . S
H460 C457 0.929 . S
S461 N462 1.613 . S
S461 N463 1.610 . S
N462 S461 1.613 . S
N462 C465 1.350 . S
N463 S461 1.610 . S
N463 C464 1.351 . S
C464 C458 1.428 . S
C464 N463 1.351 . S
C464 C465 1.434 . S
C465 C456 1.429 . S
C465 N462 1.350 . S
C465 C464 1.434 . S
C466 C467 1.369 . S
C466 C468 1.419 . S
C466 H470 0.930 . S
C467 C466 1.369 . S
C467 C476 1.429 . S
C468 C466 1.419 . S
C468 C469 1.363 . S
C468 H471 0.929 . S
C469 C468 1.363 . S
C469 C475 1.428 . S
H470 C466 0.930 . S
H471 C468 0.929 . S
S472 N473 1.613 . S
S472 N474 1.610 . S
N473 S472 1.613 . S
N473 C476 1.350 . S
N474 S472 1.610 . S
N474 C475 1.351 . S
C475 C469 1.428 . S
C475 N474 1.351 . S
C475 C476 1.434 . S
C476 C467 1.429 . S
C476 N473 1.350 . S
C476 C475 1.434 . S
C477 C478 1.369 1_565 S
C477 C479 1.419 . S
C477 H481 0.930 . S
C478 C477 1.369 1_545 S
C478 C487 1.429 . S
C479 C477 1.419 . S
C479 C480 1.363 1_565 S
C479 H482 0.929 . S
C480 C479 1.363 1_545 S
C480 C486 1.428 . S
H481 C477 0.930 . S
H482 C479 0.929 . S
S483 N484 1.613 . S
S483 N485 1.610 . S
N484 S483 1.613 . S
N484 C487 1.350 . S
N485 S483 1.610 . S
N485 C486 1.351 . S
C486 C480 1.428 . S
C486 N485 1.351 . S
C486 C487 1.434 . S
C487 C478 1.429 . S
C487 N484 1.350 . S
C487 C486 1.434 . S
C488 C489 1.369 . S
C488 C490 1.419 . S
C488 H492 0.930 . S
C489 C488 1.369 . S
C489 C498 1.429 . S
C490 C488 1.419 . S
C490 C491 1.363 . S
C490 H493 0.929 . S
C491 C490 1.363 . S
C491 C497 1.428 . S
H492 C488 0.930 . S
H493 C490 0.929 . S
S494 N495 1.613 . S
S494 N496 1.610 . S
N495 S494 1.613 . S
N495 C498 1.350 . S
N496 S494 1.610 . S
N496 C497 1.351 . S
C497 C491 1.428 . S
C497 N496 1.351 . S
C497 C498 1.434 . S
C498 C489 1.429 . S
C498 N495 1.350 . S
C498 C497 1.434 . S
C499 C500 1.369 . S
C499 C501 1.419 . S
C499 H503 0.930 . S
C500 C499 1.369 . S
C500 C509 1.429 1_455 S
C501 C499 1.419 . S
C501 C502 1.363 1_455 S
C501 H504 0.929 . S
C502 C501 1.363 1_655 S
C502 C508 1.428 . S
H503 C499 0.930 . S
H504 C501 0.929 . S
S505 N506 1.613 . S
S505 N507 1.610 . S
N506 S505 1.613 . S
N506 C509 1.350 . S
N507 S505 1.610 . S
N507 C508 1.351 . S
C508 C502 1.428 . S
C508 N507 1.351 . S
C508 C509 1.434 . S
C509 C500 1.429 1_655 S
C509 N506 1.350 . S
C509 C508 1.434 . S
C313 C24 3.008 . S
C315 C303 2.922 . S
C324 C66 1.278 . S
C326 C239 1.317 . S
C335 C93 1.924 . S
C337 C271 1.854 . S
C346 C13 3.138 . S
C348 C297 3.081 . S
C359 C233 1.345 . S
C357 C57 1.344 . S
C370 C265 1.918 . S
C368 C104 2.003 . S
C379 C64 1.996 . S
C381 C175 1.922 . S
C390 C97 0.900 . S
C392 C207 0.956 . S
C401 C17 1.426 . S
C403 C137 1.496 . S
C414 C169 1.857 . S
C412 C53 1.913 . S
C425 C201 0.612 . S
C423 C106 0.700 . S
C434 C26 1.320 . S
C436 C143 1.333 . S
C447 C213 1.043 . S
C445 C2 1.043 . S
C456 C63 1.449 . S
C458 C149 1.451 . S
C467 C82 1.362 . S
C469 C181 1.367 . S
C480 C277 1.347 . S
C478 C42 1.375 . S
C491 C309 1.764 1_556 S
C489 C103 1.749 . S
C500 C23 1.466 . S
C502 C245 1.461 1_655 S
