# Generated by pormake.
# Topology zzz, (3,6)-cn, num edge types: 1
# Building blocks:
#     Node 0, Type 0, BuildingBlock: KAKCAD_clean_linker_0, # of connection points: 3
#     Node 1, Type 0, BuildingBlock: KAKCAD_clean_linker_0, # of connection points: 3
#     Node 2, Type 0, BuildingBlock: KAKCAD_clean_linker_0, # of connection points: 3
#     Node 3, Type 0, BuildingBlock: KAKCAD_clean_linker_0, # of connection points: 3
#     Node 4, Type 0, BuildingBlock: KAKCAD_clean_linker_0, # of connection points: 3
#     Node 5, Type 0, BuildingBlock: KAKCAD_clean_linker_0, # of connection points: 3
#     Node 6, Type 0, BuildingBlock: KAKCAD_clean_linker_0, # of connection points: 3
#     Node 7, Type 0, BuildingBlock: KAKCAD_clean_linker_0, # of connection points: 3
#     Node 8, Type 1, BuildingBlock: KUMBUR_clean_sbu_0, # of connection points: 6
#     Node 9, Type 1, BuildingBlock: KUMBUR_clean_sbu_0, # of connection points: 6
#     Node 10, Type 1, BuildingBlock: KUMBUR_clean_sbu_0, # of connection points: 6
#     Node 11, Type 1, BuildingBlock: KUMBUR_clean_sbu_0, # of connection points: 6
#     Edge 12, Type (0, 1), BuildingBlock: OJICUG_clean_linker_0, # of connection points: 2
#     Edge 13, Type (0, 1), BuildingBlock: OJICUG_clean_linker_0, # of connection points: 2
#     Edge 14, Type (0, 1), BuildingBlock: OJICUG_clean_linker_0, # of connection points: 2
#     Edge 15, Type (0, 1), BuildingBlock: OJICUG_clean_linker_0, # of connection points: 2
#     Edge 16, Type (0, 1), BuildingBlock: OJICUG_clean_linker_0, # of connection points: 2
#     Edge 17, Type (0, 1), BuildingBlock: OJICUG_clean_linker_0, # of connection points: 2
#     Edge 18, Type (0, 1), BuildingBlock: OJICUG_clean_linker_0, # of connection points: 2
#     Edge 19, Type (0, 1), BuildingBlock: OJICUG_clean_linker_0, # of connection points: 2
#     Edge 20, Type (0, 1), BuildingBlock: OJICUG_clean_linker_0, # of connection points: 2
#     Edge 21, Type (0, 1), BuildingBlock: OJICUG_clean_linker_0, # of connection points: 2
#     Edge 22, Type (0, 1), BuildingBlock: OJICUG_clean_linker_0, # of connection points: 2
#     Edge 23, Type (0, 1), BuildingBlock: OJICUG_clean_linker_0, # of connection points: 2
#     Edge 24, Type (0, 1), BuildingBlock: OJICUG_clean_linker_0, # of connection points: 2
#     Edge 25, Type (0, 1), BuildingBlock: OJICUG_clean_linker_0, # of connection points: 2
#     Edge 26, Type (0, 1), BuildingBlock: OJICUG_clean_linker_0, # of connection points: 2
#     Edge 27, Type (0, 1), BuildingBlock: OJICUG_clean_linker_0, # of connection points: 2
#     Edge 28, Type (0, 1), BuildingBlock: OJICUG_clean_linker_0, # of connection points: 2
#     Edge 29, Type (0, 1), BuildingBlock: OJICUG_clean_linker_0, # of connection points: 2
#     Edge 30, Type (0, 1), BuildingBlock: OJICUG_clean_linker_0, # of connection points: 2
#     Edge 31, Type (0, 1), BuildingBlock: OJICUG_clean_linker_0, # of connection points: 2
#     Edge 32, Type (0, 1), BuildingBlock: OJICUG_clean_linker_0, # of connection points: 2
#     Edge 33, Type (0, 1), BuildingBlock: OJICUG_clean_linker_0, # of connection points: 2
#     Edge 34, Type (0, 1), BuildingBlock: OJICUG_clean_linker_0, # of connection points: 2
#     Edge 35, Type (0, 1), BuildingBlock: OJICUG_clean_linker_0, # of connection points: 2
# Relax obj value: 0.334
# Max RMSD: 0.221
# Mean RMSD: 0.214
data_MOF--net-zzz--node1-KUMBUR_clean_sbu_0--node2-KAKCAD_clean_linker_0--edge1-OJICUG_clean_linker_0
_symmetry_space_group_name_H-M    P1
_symmetry_Int_Tables_number       1
_symmetry_cell_setting            triclinic
loop_
_symmetry_equiv_pos_as_xyz
'x, y, z'
_cell_length_a     43.579771
_cell_length_b     43.503034
_cell_length_c     15.271539
_cell_angle_alpha  90.868472
_cell_angle_beta   89.682405
_cell_angle_gamma 89.983899
loop_
_atom_site_label
_atom_site_type_symbol
_atom_site_fract_x
_atom_site_fract_y
_atom_site_fract_z
_atom_type_partial_charge
C0 C 0.83766 0.64053 0.07969 0.0
C1 C 0.84205 0.61864 1.01169 0.0
C2 C 0.81158 0.63908 0.13323 0.0
C3 C 0.78905 0.61672 0.11671 0.0
C4 C 0.7903 0.59989 0.03774 0.0
C5 C 0.81659 0.60077 0.98566 0.0
C6 C 0.76978 0.60479 0.18868 0.0
C7 C 0.73967 0.59543 0.17259 0.0
C8 C 0.7241 0.57597 0.23028 0.0
C9 C 0.73933 0.56579 0.30669 0.0
C10 C 0.76942 0.57651 0.32571 0.0
C11 C 0.78396 0.59619 0.26665 0.0
C12 C 0.78841 0.56599 0.40081 0.0
C13 C 0.79726 0.58738 0.46593 0.0
C14 C 0.80487 0.53828 0.39361 0.0
C15 C 0.83064 0.5329 0.44652 0.0
C16 C 0.84077 0.55514 0.5083 0.0
C17 C 0.69278 0.56601 0.20281 0.0
C18 C 0.67016 0.58868 0.19216 0.0
C19 C 0.68824 0.53703 0.16264 0.0
C20 C 0.66271 0.53168 0.10806 0.0
C21 C 0.64159 0.55539 0.09166 0.0
C22 C 0.64502 0.58347 0.13719 0.0
C23 C 0.82283 0.58194 0.51932 0.0
H24 H 0.85583 0.65622 0.09838 0.0
H25 H 0.81059 0.65312 0.19239 0.0
H26 H 0.77302 0.58277 1.02228 0.0
H27 H 0.81811 0.58409 0.93264 0.0
H28 H 0.72884 0.60193 0.11174 0.0
H29 H 0.80766 0.60268 0.27815 0.0
H30 H 0.72802 0.54995 0.35035 0.0
H31 H 0.78552 0.60928 0.47175 0.0
H32 H 0.79931 0.52181 0.34221 0.0
H33 H 0.84373 0.5121 0.43459 0.0
H34 H 0.67328 0.61141 0.22074 0.0
H35 H 0.70566 0.51939 0.16758 0.0
H36 H 0.82916 0.59943 0.56705 0.0
H37 H 0.62901 0.602 0.12681 0.0
H38 H 0.66072 0.5098 0.07381 0.0
C39 C 0.9199 0.81744 0.97423 0.0
C40 C 0.92902 0.84834 0.98279 0.0
C41 C 0.92128 0.79791 0.04629 0.0
C42 C 0.93258 0.80884 0.12747 0.0
C43 C 0.93573 0.84095 0.13855 0.0
C44 C 0.93349 0.86039 0.06767 0.0
C45 C 0.94705 0.7876 0.19228 0.0
C46 C 0.95859 0.75877 0.1655 0.0
C47 C 0.97912 0.74213 0.21737 0.0
C48 C 0.99046 0.7562 0.29565 0.0
C49 C 0.97801 0.78483 0.32563 0.0
C50 C 0.95472 0.79845 0.27626 0.0
C51 C 0.99048 0.80419 0.40011 0.0
C52 C 0.96989 0.81976 0.45691 0.0
C53 C 1.02108 0.81432 0.39907 0.0
C54 C 0.03 0.84093 0.44657 0.0
C55 C 1.00843 0.85893 0.495 0.0
C56 C 0.98781 0.71061 0.18359 0.0
C57 C 0.9641 0.68955 0.16482 0.0
C58 C 1.01737 0.70391 0.15053 0.0
C59 C 0.02249 0.67773 0.09607 0.0
C60 C 0.99805 0.65801 0.07236 0.0
C61 C 0.96908 0.66388 0.10993 0.0
C62 C 0.97846 0.84678 0.50209 0.0
H63 H 0.91473 0.80763 0.91041 0.0
H64 H 0.91606 0.77385 0.03563 0.0
H65 H 0.94363 0.85148 0.19872 0.0
H66 H 0.93989 0.88416 0.0788 0.0
H67 H 0.95292 0.74935 0.10169 0.0
H68 H 0.94442 0.81947 0.30085 0.0
H69 H 1.00806 0.74488 0.33319 0.0
H70 H 0.94609 0.81263 0.46001 0.0
H71 H 0.03767 0.80309 0.35627 0.0
H72 H 0.05375 0.84781 0.44176 0.0
H73 H 0.941 0.69408 0.18826 0.0
H74 H 0.036 0.7199 0.16195 0.0
H75 H 0.96064 0.85887 0.53791 0.0
H76 H 0.94983 0.64912 0.09437 0.0
H77 H 0.04512 0.67394 0.06832 0.0
C78 C 0.72676 0.9207 0.98211 0.0
C79 C 0.69814 0.93522 0.99178 0.0
C80 C 0.74573 0.91696 0.05499 0.0
C81 C 0.73685 0.92894 0.13788 0.0
C82 C 0.70603 0.93822 0.14867 0.0
C83 C 0.687 0.94118 0.0768 0.0
C84 C 0.76027 0.93915 0.2042 0.0
C85 C 0.79012 0.94689 0.17707 0.0
C86 C 0.80915 0.96626 0.22757 0.0
C87 C 0.79656 0.98021 0.30473 0.0
C88 C 0.76708 0.97112 0.33547 0.0
C89 C 0.75092 0.9485 0.28857 0.0
C90 C 0.74867 0.98831 0.40337 0.0
C91 C 0.73835 0.97335 0.4792 0.0
C92 C 0.73303 1.01492 0.37808 0.0
C93 C 0.70664 0.02511 0.4233 0.0
C94 C 0.69509 1.00937 0.49695 0.0
C95 C 0.84058 0.9729 0.19065 0.0
C96 C 0.85784 0.94846 0.15342 0.0
C97 C 0.85119 1.00307 0.17745 0.0
C98 C 0.87702 1.00854 0.12341 0.0
C99 C 0.89248 0.98403 0.08061 0.0
C100 C 0.88305 0.95393 0.09847 0.0
C101 C 0.71232 0.98396 0.52599 0.0
H102 H 0.7356 0.91485 0.91755 0.0
H103 H 0.76835 0.90737 0.0441 0.0
H104 H 0.69712 0.94718 0.21 0.0
H105 H 0.66507 0.95233 0.08776 0.0
H106 H 0.79816 0.93997 0.11268 0.0
H107 H 0.7289 0.94123 0.31397 0.0
H108 H 0.80935 0.99771 0.34004 0.0
H109 H 0.74929 0.95224 0.49913 0.0
H110 H 0.73952 0.0263 0.31813 0.0
H111 H 0.69436 0.0443 0.39614 0.0
H112 H 0.85068 0.92488 0.16284 0.0
H113 H 0.83848 1.02246 0.20423 0.0
H114 H 0.70523 0.97138 0.58318 0.0
H115 H 0.8947 0.93454 0.06781 0.0
H116 H 0.88385 0.03203 0.11118 0.0
C117 C 0.54052 0.72374 0.4514 0.0
C118 C 0.56039 0.71364 0.51787 0.0
C119 C 0.54816 0.74898 0.39909 0.0
C120 C 0.57585 0.76497 0.41142 0.0
C121 C 0.59484 0.75622 0.48086 0.0
C122 C 0.58711 0.73116 0.53385 0.0
C123 C 0.58907 0.78276 0.33738 0.0
C124 C 0.58177 0.81386 0.31953 0.0
C125 C 0.59369 0.82788 0.24303 0.0
C126 C 0.61142 0.81014 0.18409 0.0
C127 C 0.61692 0.779 0.1984 0.0
C128 C 0.60692 0.76599 0.27689 0.0
C129 C 0.62491 0.7582 0.12405 0.0
C130 C 0.60697 0.75957 0.04813 0.0
C131 C 0.64333 0.73219 0.13699 0.0
C132 C 0.63939 0.70598 0.08416 0.0
C133 C 0.6162 0.70527 1.02015 0.0
C134 C 0.58532 0.85941 0.21401 0.0
C135 C 0.55499 0.86599 0.18937 0.0
C136 C 0.6088 0.87955 0.18738 0.0
C137 C 0.60257 0.90392 0.13117 0.0
C138 C 0.57268 0.90897 0.10101 0.0
C139 C 0.54873 0.89059 0.13332 0.0
C140 C 0.60256 0.73328 0.99664 0.0
H141 H 0.51996 0.71095 0.43539 0.0
H142 H 0.53357 0.75443 0.34423 0.0
H143 H 0.61673 0.76752 0.49056 0.0
H144 H 0.60281 0.72485 0.5852 0.0
H145 H 0.56687 0.82675 0.36362 0.0
H146 H 0.61039 0.74161 0.28734 0.0
H147 H 0.61877 0.81996 0.12251 0.0
H148 H 0.59276 0.77943 0.03548 0.0
H149 H 0.65806 0.73091 0.19371 0.0
H150 H 0.65166 0.68526 0.10092 0.0
H151 H 0.53653 0.85058 0.2071 0.0
H152 H 0.63244 0.87487 0.2043 0.0
H153 H 0.58504 0.73423 0.94685 0.0
H154 H 0.52548 0.89401 0.11073 0.0
H155 H 0.62137 0.91774 0.10727 0.0
C156 C 0.23461 0.45369 0.38397 0.0
C157 C 0.20854 0.43722 0.35567 0.0
C158 C 0.26116 0.4539 0.33286 0.0
C159 C 0.26206 0.43776 0.25262 0.0
C160 C 0.23879 0.41633 0.23427 0.0
C161 C 0.21236 0.41564 0.28662 0.0
C162 C 0.2815 0.45011 0.18134 0.0
C163 C 0.31135 0.46016 0.19887 0.0
C164 C 0.32622 0.48103 0.14392 0.0
C165 C 0.31095 0.49153 0.06809 0.0
C166 C 0.28142 0.47991 0.04685 0.0
C167 C 0.26738 0.45901 0.10343 0.0
C168 C 0.26226 0.49121 0.97312 0.0
C169 C 0.24581 0.51884 0.98292 0.0
C170 C 0.25361 0.47068 0.90566 0.0
C171 C 0.22824 0.47686 0.85222 0.0
C172 C 0.21027 0.50353 0.86569 0.0
C173 C 0.35628 0.49308 0.17509 0.0
C174 C 0.35684 0.51832 0.2338 0.0
C175 C 0.38241 0.47419 0.16867 0.0
C176 C 0.40783 0.47941 0.22304 0.0
C177 C 0.40765 0.5036 0.28506 0.0
C178 C 0.38234 0.5236 0.28801 0.0
C179 C 0.2202 0.52493 0.93007 0.0
H180 H 0.23349 0.47001 0.43798 0.0
H181 H 0.27895 0.47025 0.35011 0.0
H182 H 0.23945 0.40272 0.17429 0.0
H183 H 0.19357 0.40099 0.2661 0.0
H184 H 0.32226 0.45345 0.25939 0.0
H185 H 0.2439 0.45205 0.09062 0.0
H186 H 0.32165 0.5086 0.02707 0.0
H187 H 0.25126 0.53466 0.03604 0.0
H188 H 0.2654 0.44888 0.89769 0.0
H189 H 0.2221 0.46004 0.80241 0.0
H190 H 0.33661 0.53255 0.24256 0.0
H191 H 0.38226 0.45404 0.12613 0.0
H192 H 0.20707 0.54558 0.94391 0.0
H193 H 0.38146 0.54218 0.33593 0.0
H194 H 0.427 0.4636 0.21967 0.0
C195 C 0.10964 0.25028 0.42192 0.0
C196 C 0.12116 0.22056 0.40478 0.0
C197 C 0.10774 0.27151 0.35509 0.0
C198 C 0.11772 0.26364 0.26998 0.0
C199 C 0.13514 0.23662 0.25807 0.0
C200 C 0.13685 0.21516 0.32521 0.0
C201 C 0.1033 0.27913 0.19418 0.0
C202 C 0.09443 0.30995 0.20097 0.0
C203 C 0.07212 0.32231 0.14575 0.0
C204 C 0.06014 0.30355 0.07649 0.0
C205 C 0.07145 0.27302 0.06297 0.0
C206 C 0.09241 0.26135 0.12372 0.0
C207 C 0.06116 0.25096 0.9917 0.0
C208 C 0.03009 0.24364 0.97871 0.0
C209 C 0.08324 0.23228 0.94883 0.0
C210 C 0.0749 0.20565 0.90176 0.0
C211 C 0.04391 0.19684 0.89321 0.0
C212 C 0.06104 0.35393 0.17087 0.0
C213 C 0.03292 0.35779 0.21582 0.0
C214 C 0.0827 0.3779 0.17697 0.0
C215 C 0.07771 0.40348 0.23239 0.0
C216 C 0.05065 0.40626 0.28243 0.0
C217 C 0.02768 0.38381 0.27047 0.0
C218 C 1.0216 0.21717 0.92964 0.0
H219 H 0.09781 0.25593 0.48255 0.0
H220 H 0.09462 0.29221 0.36828 0.0
H221 H 0.14454 0.23052 0.19435 0.0
H222 H 0.14728 0.19302 0.31112 0.0
H223 H 0.10325 0.32398 0.25449 0.0
H224 H 0.09848 0.23722 0.11941 0.0
H225 H 0.04275 0.31262 0.03359 0.0
H226 H 1.01238 0.25728 1.01068 0.0
H227 H 0.10746 0.23718 0.95679 0.0
H228 H 0.09321 0.19123 0.87648 0.0
H229 H 1.01611 0.33946 0.21486 0.0
H230 H 0.10485 0.37546 0.14497 0.0
H231 H 0.99739 0.21234 0.92276 0.0
H232 H 1.00663 0.3852 0.30834 0.0
H233 H 0.09577 0.42037 0.23956 0.0
C234 C 0.30902 0.11511 0.39454 0.0
C235 C 0.33983 0.12299 0.37874 0.0
C236 C 0.28737 0.1174 0.3284 0.0
C237 C 0.29599 0.1277 0.24488 0.0
C238 C 0.32507 0.1414 0.23525 0.0
C239 C 0.3469 0.13899 0.30174 0.0
C240 C 0.27872 0.11596 0.16711 0.0
C241 C 0.24723 0.10972 0.17425 0.0
C242 C 0.23334 0.08665 0.12282 0.0
C243 C 0.2511 0.07168 0.05617 0.0
C244 C 0.28198 0.08083 0.04075 0.0
C245 C 0.2952 0.10292 0.09659 0.0
C246 C 0.30351 0.06493 0.97812 0.0
C247 C 0.32228 0.04129 1.00916 0.0
C248 C 0.3119 0.07887 0.89891 0.0
C249 C 0.33873 0.06984 0.85309 0.0
C250 C 0.35848 0.04705 0.88623 0.0
C251 C 0.20261 0.07557 0.15413 0.0
C252 C 0.20034 0.04691 0.19489 0.0
C253 C 0.17824 0.09661 0.1664 0.0
C254 C 0.15351 0.09008 0.22297 0.0
C255 C 0.15267 0.06249 0.27 0.0
C256 C 0.17581 0.0405 0.25214 0.0
C257 C 0.34928 0.0326 0.96448 0.0
H258 H 0.3022 0.10312 0.45308 0.0
H259 H 0.26522 0.10696 0.34006 0.0
H260 H 0.33209 0.15089 0.17312 0.0
H261 H 0.37011 0.14667 0.28889 0.0
H262 H 0.23426 0.12021 0.22764 0.0
H263 H 0.3196 0.10725 0.09021 0.0
H264 H 0.2413 0.05287 1.01845 0.0
H265 H 0.31724 0.03099 0.07178 0.0
H266 H 0.29852 0.0979 0.8747 0.0
H267 H 0.34429 0.08139 0.79279 0.0
H268 H 0.21887 0.03041 0.18845 0.0
H269 H 0.17948 0.11911 0.13717 0.0
H270 H 0.36371 1.0156 0.9947 0.0
H271 H 0.17575 1.01876 0.28577 0.0
H272 H 0.13627 0.10763 0.2347 0.0
C273 C 0.46642 0.32685 0.83349 0.0
C274 C 0.49312 0.3443 0.85024 0.0
C275 C 0.45888 0.30133 0.88481 0.0
C276 C 0.47811 0.29203 0.95308 0.0
C277 C 0.50581 0.30793 0.96594 0.0
C278 C 0.51322 0.33367 0.91544 0.0
C279 C 0.46531 0.27323 1.0255 0.0
C280 C 0.47393 0.24239 0.04151 0.0
C281 C 0.4628 0.22738 0.11723 0.0
C282 C 0.4445 0.24391 0.17755 0.0
C283 C 0.43779 0.27499 0.16526 0.0
C284 C 0.44693 0.28888 0.08716 0.0
C285 C 0.42964 0.29509 0.24116 0.0
C286 C 0.41011 0.32044 0.23093 0.0
C287 C 0.44805 0.29382 0.31613 0.0
C288 C 0.45134 0.31969 0.37013 0.0
C289 C 0.43606 0.34727 0.35049 0.0
C290 C 0.47365 0.19663 0.14548 0.0
C291 C 0.45216 0.17316 0.16166 0.0
C292 C 0.50314 0.19396 0.18113 0.0
C293 C 0.51006 0.17001 0.2383 0.0
C294 C 0.48778 0.14793 0.26022 0.0
C295 C 0.45927 0.14886 0.2177 0.0
C296 C 0.41291 0.3462 0.28631 0.0
H297 H 0.45057 0.33355 0.78291 0.0
H298 H 0.43702 0.29002 0.87471 0.0
H299 H 0.52059 0.30197 1.01991 0.0
H300 H 0.53379 0.34637 0.93193 0.0
H301 H 0.48949 0.23052 0.99696 0.0
H302 H 0.44254 0.31319 0.07823 0.0
H303 H 0.43791 0.23333 0.23875 0.0
H304 H 0.39506 0.32164 0.17485 0.0
H305 H 0.46323 0.2745 0.32652 0.0
H306 H 0.46902 0.31889 0.41946 0.0
H307 H 0.42905 0.17497 0.13653 0.0
H308 H 0.51991 0.212 0.17148 0.0
H309 H 0.39938 0.36638 0.27219 0.0
H310 H 0.44158 0.13229 0.23337 0.0
H311 H 0.53232 0.16977 0.26953 0.0
Tb312 Tb 0.05826 1.02213 0.76326 0.0
C313 C 0.93636 0.9941 0.57165 0.0
C314 C 0.95012 0.96208 0.44678 0.0
C315 C 0.89838 0.9599 0.50625 0.0
C316 C 0.958 0.98422 0.51149 0.0
C317 C 0.90614 0.98244 0.56905 0.0
C318 C 0.92036 0.94969 0.44528 0.0
C319 C 0.89272 1.01803 0.68584 0.0
N320 N 0.94452 1.01628 0.63013 0.0
C321 C 0.92285 0.02905 0.68525 0.0
C322 C 0.88436 0.99444 0.6279 0.0
Tb323 Tb 0.99396 0.03448 0.62145 0.0
N324 N 0.98627 0.99736 0.51373 0.0
C325 C 1.00726 0.99002 0.4494 0.0
C326 C 0.97204 0.95368 0.38384 0.0
C327 C 1.00063 0.96791 0.38481 0.0
H328 H 0.92908 0.04736 0.73034 0.0
H329 H 1.01767 0.96189 0.33566 0.0
H330 H 0.91394 0.93272 0.39606 0.0
H331 H 0.87597 0.02782 0.73078 0.0
H332 H 0.02972 1.00013 0.44743 0.0
H333 H 0.02855 0.0967 0.04129 0.0
H334 H 0.96692 0.93674 0.33326 0.0
H335 H 0.12713 1.00655 0.68233 0.0
H336 H 1.02019 0.05611 0.93413 0.0
H337 H 0.17902 0.02907 0.68286 0.0
H338 H 0.87531 0.95067 0.50317 0.0
H339 H 0.07679 0.12641 0.04062 0.0
H340 H 0.12947 0.13382 0.97835 0.0
H341 H 0.86093 0.98612 0.62788 0.0
H342 H 0.17058 0.11569 0.87929 0.0
N343 N 0.06345 0.06101 0.8687 0.0
C344 C 0.04181 0.06764 0.9319 0.0
C345 C 0.0734 0.1081 0.99273 0.0
C346 C 0.0962 0.10041 0.93181 0.0
C347 C 0.04628 0.09129 0.99358 0.0
C348 C 0.09053 0.07637 0.8706 0.0
H349 H 0.18941 0.07638 0.76952 0.0
N350 N 0.10745 0.04186 0.76286 0.0
C351 C 0.16071 0.04011 0.71975 0.0
C352 C 0.11336 0.06651 0.81506 0.0
C353 C 0.13119 0.0275 0.71948 0.0
C354 C 0.16646 0.06683 0.76843 0.0
C355 C 0.14285 0.07992 0.81883 0.0
O356 O 0.08919 0.98666 0.79094 0.0
O357 O 0.02471 1.00149 0.67629 0.0
O358 O 0.9772 1.00601 0.72934 0.0
O359 O 1.01377 1.01741 0.83509 0.0
O360 O 0.06819 0.985 0.66726 0.0
O361 O 0.05234 0.99745 0.87987 0.0
O362 O 0.96261 0.07016 0.60104 0.0
O363 O 0.02825 0.05575 0.70605 0.0
O364 O 0.07778 0.04291 0.6439 0.0
O365 O 0.03706 0.03951 0.54485 0.0
O366 O 0.98397 0.07002 0.72127 0.0
O367 O 0.99758 0.05958 0.50495 0.0
C368 C 0.04093 0.98139 0.63744 0.0
C369 C 0.06627 0.94514 0.85892 0.0
C370 C 0.02909 0.90345 0.84183 0.0
C371 C 0.03627 0.93499 0.84176 0.0
C372 C 0.05312 0.88221 0.85446 0.0
C373 C 0.08968 0.92362 0.87115 0.0
C374 C 0.08314 0.89229 0.86799 0.0
C375 C 0.98586 1.00788 0.81229 0.0
C376 C 0.074 0.97797 0.85914 0.0
C377 C 0.14819 0.10491 0.87597 0.0
C378 C 0.12483 0.11519 0.93242 0.0
C379 C 1.01154 0.07516 0.74635 0.0
C380 C 0.98668 0.11211 0.53794 0.0
C381 C 1.01765 0.12064 0.52932 0.0
C382 C 0.02672 0.15123 0.54358 0.0
C383 C 1.00456 0.17322 0.56861 0.0
C384 C 0.96483 0.13452 0.56148 0.0
C385 C 0.97381 0.16485 0.57732 0.0
C386 C 0.0665 0.04431 0.56316 0.0
C387 C 0.97725 0.07965 0.53236 0.0
H388 H 1.01856 0.95174 0.82943 0.0
H389 H 0.04878 0.85777 0.85771 0.0
H390 H 0.11305 0.93108 0.88271 0.0
H391 H 0.10128 0.87573 0.87807 0.0
H392 H 0.03481 0.10359 0.51229 0.0
H393 H 1.01079 0.19712 0.5785 0.0
H394 H 0.9409 0.12838 0.56952 0.0
H395 H 0.95686 0.18197 0.59584 0.0
Tb396 Tb 0.53195 0.06369 0.75917 0.0
C397 C 0.56324 0.94051 0.56355 0.0
C398 C 0.59395 0.95553 0.439 0.0
C399 C 0.59721 0.90331 0.49202 0.0
C400 C 0.57214 0.96264 0.50514 0.0
C401 C 0.5753 0.91042 0.557 0.0
C402 C 0.60657 0.92586 0.43321 0.0
C403 C 0.54129 0.89582 0.67438 0.0
N404 N 0.54177 0.94809 0.62457 0.0
C405 C 0.52982 0.92583 0.67761 0.0
C406 C 0.56434 0.88812 0.61426 0.0
Tb407 Tb 0.52174 0.99694 0.61984 0.0
N408 N 0.55904 0.99093 0.51211 0.0
C409 C 0.56657 1.01293 0.45206 0.0
C410 C 0.60214 0.97827 0.37975 0.0
C411 C 0.58834 1.00706 0.38632 0.0
H412 H 0.51175 0.93152 0.72391 0.0
H413 H 0.59445 0.02485 0.34062 0.0
H414 H 0.62323 0.92 0.3827 0.0
H415 H 0.53219 0.87862 0.71791 0.0
H416 H 0.557 0.03568 0.45478 0.0
H417 H 0.46016 0.02864 0.0349 0.0
H418 H 0.61886 0.97376 0.32834 0.0
H419 H 0.5415 0.13232 0.67458 0.0
H420 H 0.49802 1.02126 0.92078 0.0
H421 H 0.51768 0.18368 0.68354 0.0
H422 H 0.60669 0.88034 0.48584 0.0
H423 H 0.43226 0.07778 0.05005 0.0
H424 H 0.42419 0.13144 0.99907 0.0
H425 H 0.573 0.86477 0.61125 0.0
H426 H 0.43911 0.17345 0.90173 0.0
N427 N 0.49408 0.06656 0.86762 0.0
C428 C 0.48764 0.04355 0.92573 0.0
C429 C 0.44952 0.07496 0.99921 0.0
C430 C 0.45638 0.09872 0.94204 0.0
C431 C 0.46533 0.04732 0.99115 0.0
C432 C 0.47903 0.0938 0.87654 0.0
H433 H 0.47374 0.19309 0.78355 0.0
N434 N 0.50966 0.11176 0.76224 0.0
C435 C 0.50848 0.1651 0.722 0.0
C436 C 0.48694 0.11712 0.82132 0.0
C437 C 0.5217 0.13584 0.71654 0.0
C438 C 0.48372 0.17031 0.7784 0.0
C439 C 0.4731 0.14639 0.83055 0.0
O440 O 0.56698 0.09623 0.77769 0.0
O441 O 0.55388 0.02876 0.67715 0.0
O442 O 0.54816 0.98107 0.73295 0.0
O443 O 0.53986 1.02111 0.8335 0.0
O444 O 0.56885 0.07275 0.66413 0.0
O445 O 0.55643 0.06354 0.87759 0.0
O446 O 0.48629 0.96493 0.60173 0.0
O447 O 0.49939 0.03222 0.70045 0.0
O448 O 0.50988 0.08096 0.63979 0.0
O449 O 0.51486 0.03902 0.54288 0.0
O450 O 0.48581 0.98775 0.71684 0.0
O451 O 0.49781 0.99699 0.5005 0.0
C452 C 0.5739 0.04486 0.6391 0.0
C453 C 0.60841 0.07697 0.85446 0.0
C454 C 0.6499 0.03928 0.8454 0.0
C455 C 0.61864 0.04683 0.83843 0.0
C456 C 0.67105 0.06324 0.86159 0.0
C457 C 0.62976 0.10038 0.87041 0.0
C458 C 0.66101 0.09355 0.87273 0.0
C459 C 0.54783 0.9923 0.81425 0.0
C460 C 0.57563 0.08445 0.85084 0.0
C461 C 0.45004 0.15119 0.89384 0.0
C462 C 0.44165 0.12734 0.94943 0.0
C463 C 0.47989 1.01568 0.73942 0.0
C464 C 0.4452 0.98576 0.52637 0.0
C465 C 0.43628 1.01645 0.51497 0.0
C466 C 0.4053 0.02486 0.52043 0.0
C467 C 0.38316 1.00237 0.53916 0.0
C468 C 0.42276 0.96348 0.54368 0.0
C469 C 0.39191 0.97183 0.55048 0.0
C470 C 0.50894 0.06849 0.5597 0.0
C471 C 0.47778 0.97705 0.52865 0.0
H472 H 0.60206 0.02918 0.82248 0.0
H473 H 0.69526 0.05862 0.86963 0.0
H474 H 0.62225 0.1239 0.88094 0.0
H475 H 0.67745 0.11168 0.88572 0.0
H476 H 0.45327 0.03395 0.50245 0.0
H477 H 0.35902 1.00824 0.54224 0.0
H478 H 0.42921 0.93973 0.55352 0.0
H479 H 0.37473 0.95456 0.56403 0.0
Tb480 Tb 0.56046 0.52018 0.64625 0.0
C481 C 0.42409 0.51857 0.67289 0.0
C482 C 0.4073 0.55081 0.55388 0.0
C483 C 0.37203 0.51393 0.61626 0.0
C484 C 0.43031 0.54149 0.61293 0.0
C485 C 0.39457 0.50504 0.67599 0.0
C486 C 0.37837 0.53674 0.55543 0.0
C487 C 0.41035 0.47686 0.80259 0.0
N488 N 0.44634 0.51031 0.73009 0.0
C489 C 0.43908 0.49091 0.79763 0.0
C490 C 0.38812 0.48362 0.7408 0.0
Tb491 Tb 0.49131 0.53831 0.72095 0.0
N492 N 0.45873 0.55447 0.61172 0.0
C493 C 0.46538 0.57661 0.55124 0.0
C494 C 0.41392 0.57408 0.49473 0.0
C495 C 0.4431 0.58695 0.49331 0.0
H496 H 0.45592 0.48545 0.84687 0.0
H497 H 0.44875 0.60432 0.44586 0.0
H498 H 0.36062 0.54353 0.51021 0.0
H499 H 0.40533 0.46095 0.85457 0.0
H500 H 0.48817 0.58556 0.54256 0.0
H501 H 0.61563 0.45988 0.91292 0.0
H502 H 0.39683 0.58195 0.44897 0.0
H503 H 0.58955 0.57162 0.50331 0.0
H504 H 0.57326 0.47226 0.81816 0.0
H505 H 0.63775 0.60011 0.48403 0.0
H506 H 0.34939 0.50364 0.61755 0.0
H507 H 0.66367 0.48968 0.90694 0.0
H508 H 0.69428 0.53137 0.83901 0.0
H509 H 0.36575 0.47285 0.74522 0.0
H510 H 0.69999 0.56991 0.72445 0.0
N511 N 0.59679 0.5081 0.74956 0.0
C512 C 0.59416 0.48487 0.80904 0.0
C513 C 0.64522 0.49491 0.86227 0.0
C514 C 0.64818 0.51833 0.8013 0.0
C515 C 0.61825 0.47792 0.86541 0.0
C516 C 0.62348 0.52427 0.74417 0.0
H517 H 0.6794 0.59519 0.59178 0.0
N518 N 0.60309 0.55081 0.6233 0.0
C519 C 0.63486 0.58528 0.53973 0.0
C520 C 0.62662 0.54634 0.67988 0.0
C521 C 0.60763 0.56887 0.55089 0.0
C522 C 0.65825 0.58251 0.6008 0.0
C523 C 0.65459 0.56252 0.67089 0.0
O524 O 0.57544 0.51708 0.51572 0.0
O525 O 0.51489 0.52666 0.5963 0.0
O526 O 0.49095 0.48738 0.7142 0.0
O527 O 0.54311 0.47685 0.69969 0.0
O528 O 0.51508 0.52633 0.59567 0.0
O529 O 0.57623 0.4774 0.59674 0.0
O530 O 0.47603 0.53811 0.8516 0.0
O531 O 0.53686 0.53157 0.77109 0.0
O532 O 0.56102 0.57115 0.65504 0.0
O533 O 0.50934 0.58269 0.6776 0.0
O534 O 0.53672 0.53193 0.77184 0.0
O535 O 0.47396 0.57934 0.77702 0.0
C536 C 0.50573 0.50601 0.53925 0.0
C537 C 0.56732 0.47025 0.44443 0.0
C538 C 0.52589 0.43987 0.38014 0.0
C539 C 0.5407 0.45232 0.45413 0.0
C540 C 0.53934 0.44393 0.29692 0.0
C541 C 0.58015 0.47411 0.36097 0.0
C542 C 0.56635 0.46076 0.2877 0.0
C543 C 0.51451 0.46797 0.71528 0.0
C544 C 0.5804 0.48781 0.51814 0.0
C545 C 0.67854 0.55747 0.72997 0.0
C546 C 0.67533 0.53546 0.79502 0.0
C547 C 0.54597 0.55187 0.82934 0.0
C548 C 0.48214 0.58408 0.92975 0.0
C549 C 0.50847 0.60249 0.92285 0.0
C550 C 0.52227 0.61511 0.99815 0.0
C551 C 0.50793 0.61069 0.08006 0.0
C552 C 0.46851 0.57967 1.01189 0.0
C553 C 0.48122 0.5932 0.08658 0.0
C554 C 0.53786 0.59106 0.65875 0.0
C555 C 0.46994 0.56724 0.85361 0.0
H556 H 0.53083 0.44924 0.51862 0.0
H557 H 0.52924 0.43376 0.2387 0.0
H558 H 0.60058 0.48797 0.35235 0.0
H559 H 0.57637 0.46382 0.2234 0.0
H560 H 0.51882 0.60594 0.85921 0.0
H561 H 0.51709 0.62102 0.13931 0.0
H562 H 0.44824 0.56544 1.0183 0.0
H563 H 0.47053 0.58984 0.14989 0.0
Tb564 Tb 0.03454 0.56306 0.63922 0.0
C565 C 0.04056 0.42904 0.69436 0.0
C566 C 1.01007 0.40717 0.57633 0.0
C567 C 0.04872 0.37594 0.64586 0.0
C568 C 1.0177 0.43229 0.63214 0.0
C569 C 0.05569 0.40045 0.70303 0.0
C570 C 0.026 0.3793 0.58265 0.0
C571 C 0.08144 0.42087 0.8303 0.0
N572 N 0.04696 0.45315 0.74905 0.0
C573 C 0.06596 0.44864 0.81967 0.0
C574 C 0.07668 0.39683 0.77091 0.0
Tb575 Tb 1.01744 0.49675 0.72851 0.0
N576 N 1.00276 0.45968 0.62653 0.0
C577 C 0.97978 0.46294 0.56607 0.0
C578 C 0.9864 0.41055 0.51607 0.0
C579 C 0.97109 0.43848 0.51137 0.0
H580 H 0.07023 0.46706 0.86647 0.0
H581 H 0.95315 0.44156 0.46353 0.0
H582 H 1.02055 0.36 0.53981 0.0
H583 H 0.09704 0.41806 0.88451 0.0
H584 H 0.9689 0.48462 0.55431 0.0
H585 H 0.09611 0.6228 0.90102 0.0
H586 H 0.97991 0.39181 0.47242 0.0
H587 H 0.98221 0.58962 0.49516 0.0
H588 H 0.08192 0.57834 0.81342 0.0
H589 H 0.95461 0.63786 0.47006 0.0
H590 H 0.06031 0.35401 0.65128 0.0
H591 H 0.06829 0.67175 0.8861 0.0
H592 H 0.02756 0.70189 0.81294 0.0
H593 H 0.08862 0.37524 0.77961 0.0
H594 H 0.98852 0.70564 0.69852 0.0
N595 N 0.04771 0.60155 0.73805 0.0
C596 C 0.07052 0.59958 0.79946 0.0
C597 C 0.06247 0.65237 0.84399 0.0
C598 C 0.03915 0.6545 0.7821 0.0
C599 C 0.07836 0.62487 0.85214 0.0
C600 C 0.03235 0.62856 0.72859 0.0
H601 H 0.96154 0.6822 0.57073 0.0
N602 N 1.00437 0.60566 0.61209 0.0
C603 C 0.96989 0.63609 0.52541 0.0
C604 C 1.00992 0.63056 0.6646 0.0
C605 C 0.98577 0.60879 0.53998 0.0
C606 C 0.9738 0.66099 0.58245 0.0
C607 C 0.99435 0.65869 0.65196 0.0
O608 O 0.0361 0.57401 0.50602 0.0
O609 O 0.02834 0.51578 0.59834 0.0
O610 O 0.06824 0.49678 0.72339 0.0
O611 O 0.07867 0.54794 0.69285 0.0
O612 O 0.02869 0.516 0.59772 0.0
O613 O 0.07636 0.57827 0.58481 0.0
O614 O 1.01759 0.48555 0.86158 0.0
O615 O 0.02355 0.54402 0.76913 0.0
O616 O 0.98362 0.56321 0.6456 0.0
O617 O 0.97289 0.51235 0.67974 0.0
O618 O 0.02321 0.5439 0.76984 0.0
O619 O 0.97647 0.48096 0.78666 0.0
C620 C 0.04941 0.50464 0.54553 0.0
C621 C 0.08261 0.56614 0.43375 0.0
C622 C 0.11353 0.52426 0.37224 0.0
C623 C 0.10034 0.53954 0.445 0.0
C624 C 0.1103 0.53732 0.28877 0.0
C625 C 0.07945 0.57848 0.3501 0.0
C626 C 0.0935 0.56426 0.27809 0.0
C627 C 0.08759 0.52025 0.71741 0.0
C628 C 0.06512 0.58015 0.50635 0.0
C629 C 1.00046 0.68404 0.70696 0.0
C630 C 0.02277 0.68195 0.77186 0.0
C631 C 1.00298 0.55501 0.82394 0.0
C632 C 0.97196 0.49414 0.93744 0.0
C633 C 0.95331 0.52001 0.92501 0.0
C634 C 0.94099 0.53631 0.9972 0.0
C635 C 0.94623 0.52504 0.082 0.0
C636 C 0.9771 0.48357 1.0223 0.0
C637 C 0.96406 0.49884 0.09416 0.0
C638 C 0.96409 0.53995 0.65402 0.0
C639 C 0.98857 0.47946 0.86417 0.0
H640 H 0.10305 0.53033 0.50989 0.0
H641 H 0.12117 0.52705 0.23151 0.0
H642 H 0.06579 0.59896 0.34039 0.0
H643 H 0.09113 0.57399 0.21365 0.0
H644 H 0.94933 0.52798 0.85928 0.0
H645 H 0.93614 0.53606 0.13927 0.0
H646 H 0.99157 0.46372 0.03298 0.0
H647 H 0.96798 0.49049 0.15959 0.0
C648 C 0.13981 0.0458 0.42347 0.0
C649 C 0.12992 0.05789 0.34356 0.0
H650 H 0.12827 0.032 0.55215 0.0
C651 C 0.0987 0.06617 0.33678 0.0
H652 H 0.16362 0.03949 0.43232 0.0
C653 C 0.07809 0.06183 0.4074 0.0
C654 C 0.08825 0.04995 0.4878 0.0
H655 H 0.09008 0.07554 0.2764 0.0
H656 H 0.05422 0.06789 0.39892 0.0
C657 C 0.11943 0.04201 0.49384 0.0
C658 C 0.48765 0.0951 0.32922 0.0
C659 C 0.49286 0.12698 0.33557 0.0
H660 H 0.4894 0.05157 0.39356 0.0
C661 C 0.50228 0.13938 0.41645 0.0
H662 H 0.48021 0.08483 0.26788 0.0
C663 C 0.5065 0.12059 0.48894 0.0
C664 C 0.50211 0.08862 0.48314 0.0
H665 H 0.50609 0.16388 0.42407 0.0
H666 H 0.51394 0.13132 0.54876 0.0
C667 C 0.49277 0.07609 0.40165 0.0
C668 C 0.45596 0.52741 0.34626 0.0
C669 C 0.43214 0.50578 0.35255 0.0
H670 H 0.49818 0.54449 0.40122 0.0
C671 C 0.43212 0.4854 0.42309 0.0
H672 H 0.45683 0.54296 0.29159 0.0
C673 C 0.45534 0.48671 0.48634 0.0
C674 C 0.47863 0.50894 0.48191 0.0
H675 H 0.4143 0.46818 0.42864 0.0
H676 H 0.45527 0.47008 0.53848 0.0
C677 C 0.47933 0.52854 0.40944 0.0
C678 C 0.02498 0.45309 0.35327 0.0
C679 C 0.04822 0.43058 0.35308 0.0
H680 H 1.00717 0.49462 0.41376 0.0
C681 C 0.07028 0.43193 0.42001 0.0
H682 H 1.00799 0.45307 0.30178 0.0
C683 C 0.06918 0.45502 0.48525 0.0
C684 C 0.0458 0.47727 0.48653 0.0
H685 H 0.08871 0.41523 0.42131 0.0
H686 H 0.08708 0.45583 0.5342 0.0
C687 C 0.02426 0.47663 0.418 0.0
C688 C 0.91323 0.97866 0.9265 0.0
C689 C 0.91694 0.98952 1.01312 0.0
H690 H 0.93181 0.97553 0.79621 0.0
C691 C 0.94419 1.00511 0.0343 0.0
H692 H 0.89263 0.96627 0.90818 0.0
C693 C 0.96702 1.00994 0.97032 0.0
C694 C 0.96287 1.00022 0.88257 0.0
H695 H 0.94798 1.01331 0.10069 0.0
H696 H 0.98771 1.02172 0.98994 0.0
C697 C 0.9357 0.98413 0.86212 0.0
C698 C 0.57348 0.92188 0.94159 0.0
C699 C 0.56723 0.93085 0.02865 0.0
H700 H 0.57346 0.93434 0.80644 0.0
C701 C 0.55614 0.96063 0.04544 0.0
H702 H 0.58257 0.89917 0.92709 0.0
C703 C 0.55075 0.98083 0.97621 0.0
C704 C 0.5559 0.97158 0.88828 0.0
H705 H 0.5516 0.96826 0.11212 0.0
H706 H 0.54225 1.00362 0.99199 0.0
C707 C 0.56799 0.94199 0.87235 0.0
C708 C 0.59586 0.5289 1.02111 0.0
C709 C 0.61802 0.55243 1.02108 0.0
H710 H 0.55529 0.51023 0.96002 0.0
C711 C 0.61714 0.57415 0.95377 0.0
H712 H 0.59558 0.51218 0.07293 0.0
C713 C 0.59474 0.57248 0.88835 0.0
C714 C 0.57293 0.54875 0.88723 0.0
H715 H 0.63366 0.59274 0.95228 0.0
H716 H 0.59411 0.59017 0.83917 0.0
C717 C 0.57307 0.52755 0.95601 0.0
C718 C 0.02493 0.6103 1.00994 0.0
C719 C 1.00167 0.6327 1.00455 0.0
H720 H 0.04361 0.56787 0.95733 0.0
C721 C 0.98057 0.63003 0.93523 0.0
H722 H 0.04117 0.61119 0.06333 0.0
C723 C 0.98251 0.60577 0.87368 0.0
C724 C 1.00594 0.58368 0.87801 0.0
H725 H 0.96217 0.6466 0.92916 0.0
H726 H 0.9652 0.60394 0.82318 0.0
C727 C 0.02655 0.58567 0.94868 0.0
C728 C 0.09631 0.16895 0.40862 0.0
C729 C 0.10806 0.19455 0.45516 0.0
H730 H 0.06096 0.1351 0.40077 0.0
C731 C 0.09846 0.19927 0.54252 0.0
H732 H 0.10316 0.16407 0.34161 0.0
C733 C 0.07327 0.18322 0.57526 0.0
C734 C 0.05839 0.16111 0.5228 0.0
H735 H 0.10788 0.21791 0.58175 0.0
H736 H 0.06386 0.18996 0.63842 0.0
C737 C 0.0717 0.15234 0.44235 0.0
C738 C 0.35883 0.09772 0.51536 0.0
C739 C 0.36421 0.10683 0.42843 0.0
H740 H 0.36738 0.06375 0.61268 0.0
C741 C 0.3889 0.09326 0.382 0.0
H742 H 0.34082 0.10838 0.55441 0.0
C743 C 0.40449 0.06822 0.41634 0.0
C744 C 0.39556 0.0562 0.49727 0.0
H745 H 0.39405 0.09946 0.31514 0.0
H746 H 0.42133 0.05641 0.37561 0.0
C747 C 0.37398 0.0722 0.54891 0.0
C748 C 0.46913 0.37929 0.45202 0.0
C749 C 0.45035 0.3772 0.37727 0.0
H750 H 0.50864 0.40005 0.51057 0.0
C751 C 0.45185 0.40119 0.31638 0.0
H752 H 0.46769 0.36228 0.50287 0.0
C753 C 0.47477 0.42341 0.32237 0.0
C754 C 0.49695 0.42203 0.38846 0.0
H755 H 0.43765 0.40125 0.25854 0.0
H756 H 0.47649 0.4403 0.2712 0.0
C757 C 0.49256 0.40122 0.45693 0.0
C758 C 0.17282 0.46795 0.45385 0.0
C759 C 0.17742 0.44972 0.37779 0.0
H760 H 0.15012 0.50695 0.51069 0.0
C761 C 0.155 0.45092 0.31172 0.0
H762 H 0.18839 0.46657 0.50863 0.0
C763 C 0.13224 0.47338 0.31451 0.0
C764 C 0.13156 0.49547 0.38244 0.0
H765 H 0.1567 0.43698 0.25267 0.0
H766 H 0.11666 0.47485 0.25973 0.0
C767 C 0.15053 0.49108 0.45544 0.0
C768 C 0.96283 0.84846 0.85055 0.0
C769 C 0.94326 0.86492 0.90807 0.0
H770 H 1.00516 0.84847 0.77948 0.0
C771 C 0.94661 0.89704 0.91329 0.0
H772 H 0.96052 0.82386 0.84126 0.0
C773 C 0.97356 0.91073 0.88335 0.0
C774 C 0.9965 0.8928 0.84203 0.0
H775 H 0.93094 0.91082 0.95274 0.0
H776 H 0.97767 0.93436 0.90261 0.0
C777 C 0.98909 0.86247 0.81683 0.0
C778 C 0.70228 0.97084 0.86608 0.0
C779 C 0.68377 0.95191 0.91842 0.0
H780 H 0.70561 1.01316 0.79728 0.0
C781 C 0.65202 0.95722 0.92022 0.0
H782 H 0.72681 0.96714 0.86136 0.0
C783 C 0.64025 0.98464 0.88859 0.0
C784 C 0.65975 1.00646 0.84992 0.0
H785 H 0.63702 0.94251 0.95772 0.0
H786 H 0.61669 0.99 0.90449 0.0
C787 C 0.69023 0.99778 0.83116 0.0
C788 C 0.596 0.65414 0.06531 0.0
C789 C 0.5998 0.676 0.99909 0.0
H790 H 0.56949 0.61712 0.11517 0.0
C791 C 0.58164 0.67316 0.92343 0.0
H792 H 0.60933 0.65516 0.12482 0.0
C793 C 0.55727 0.65227 0.92049 0.0
C794 C 0.55125 0.63309 0.99202 0.0
H795 H 0.58451 0.68881 0.86956 0.0
H796 H 0.54202 0.65287 0.86486 0.0
C797 C 0.57231 0.63273 0.06117 0.0
C798 C 0.89672 0.60848 0.05255 0.0
C799 C 0.87361 0.60758 0.98833 0.0
H800 H 0.9369 0.58748 0.1036 0.0
C801 C 0.87846 0.58865 0.91383 0.0
H802 H 0.89492 0.62312 0.11016 0.0
C803 C 0.90179 0.5666 0.91312 0.0
C804 C 0.92166 0.56415 0.98504 0.0
H805 H 0.8624 0.58854 0.86002 0.0
H806 H 0.90234 0.54999 0.85967 0.0
C807 C 0.92063 0.58724 0.05023 0.0
C808 C 1.00787 0.15089 0.87481 0.0
C809 C 0.03533 0.166 0.85153 0.0
H810 H 0.97921 0.11102 0.86013 0.0
C811 C 0.05499 0.15043 0.7912 0.0
H812 H 0.99214 0.16103 0.922 0.0
C813 C 0.0477 0.12101 0.75718 0.0
C814 C 1.02057 0.10607 0.78241 0.0
H815 H 0.07615 0.16083 0.76941 0.0
H816 H 0.06329 0.11 0.71096 0.0
C817 C 1.00049 0.12175 0.83997 0.0
C818 C 0.40586 0.06067 0.79324 0.0
C819 C 0.38896 0.03908 0.84259 0.0
H820 H 0.44721 0.07036 0.72005 0.0
C821 C 0.40213 1.00973 0.85259 0.0
H822 H 0.39703 0.08359 0.78343 0.0
C823 C 0.43138 1.00275 0.8191 0.0
C824 C 0.44865 0.02459 0.77316 0.0
H825 H 0.38993 0.99179 0.88649 0.0
H826 H 0.44067 0.98004 0.83011 0.0
C827 C 0.43506 0.05334 0.75785 0.0
C828 C 0.47403 0.39378 0.78206 0.0
C829 C 0.49871 0.37465 0.80585 0.0
H830 H 0.4595 0.43696 0.73118 0.0
C831 C 0.52868 0.38578 0.79134 0.0
H832 H 0.45054 0.38653 0.79193 0.0
C833 C 0.53374 0.41545 0.75896 0.0
C834 C 0.50903 0.43509 0.73973 0.0
H835 H 0.54844 0.37172 0.80599 0.0
H836 H 0.55718 0.42318 0.75103 0.0
C837 C 0.47914 0.42329 0.74871 0.0
C838 C 0.16886 0.53732 0.79913 0.0
C839 C 0.18019 0.50781 0.81832 0.0
H840 H 0.13159 0.56442 0.75129 0.0
C841 C 0.1616 0.48236 0.79566 0.0
H842 H 0.18251 0.55758 0.81295 0.0
C843 C 0.1324 0.48633 0.75881 0.0
C844 C 0.12037 0.51586 0.74482 0.0
H845 H 0.16903 0.45917 0.80904 0.0
H846 H 0.11913 0.46612 0.74236 0.0
C847 C 0.13951 0.54126 0.76289 0.0
C848 C 0.04233 0.90708 0.50252 0.0
C849 C 1.01646 0.89065 0.53292 0.0
H850 H 0.07011 0.94778 0.51196 0.0
C851 C 0.99793 0.90568 0.5973 0.0
H852 H 0.05708 0.89776 0.45169 0.0
C853 C 1.00478 0.9356 0.62845 0.0
C854 C 0.03086 0.95129 0.59842 0.0
H855 H 0.97822 0.89445 0.62556 0.0
H856 H 0.99017 0.946 0.67823 0.0
C857 C 0.0497 0.9364 0.53609 0.0
C858 C 0.6528 0.04854 0.53091 0.0
C859 C 0.66458 1.01848 0.53911 0.0
H860 H 0.61536 0.07971 0.55322 0.0
C861 C 0.64615 0.99717 0.58504 0.0
H862 H 0.66611 0.06636 0.50002 0.0
C863 C 0.61708 1.0055 0.61915 0.0
C864 C 0.60487 0.03496 0.60541 0.0
H865 H 0.65366 0.97372 0.59344 0.0
H866 H 0.60399 0.98869 0.65509 0.0
C867 C 0.62351 0.05646 0.56259 0.0
C868 C 0.57902 0.66463 0.59005 0.0
C869 C 0.55453 0.68374 0.56455 0.0
H870 H 0.5931 0.62164 0.64371 0.0
C871 C 0.52445 0.67297 0.57959 0.0
H872 H 0.60258 0.67163 0.57997 0.0
C873 C 0.5191 0.64362 0.61392 0.0
C874 C 0.54363 0.62392 0.63449 0.0
H875 H 0.50483 0.68703 0.56362 0.0
H876 H 0.49559 0.63608 0.62173 0.0
C877 C 0.57362 0.63542 0.62522 0.0
C878 C 0.88983 0.57715 0.57432 0.0
C879 C 0.87102 0.55149 0.55534 0.0
H880 H 0.93268 0.59393 0.62399 0.0
C881 C 0.8823 0.52227 0.57777 0.0
H882 H 0.88241 0.60013 0.55841 0.0
C883 C 0.91178 0.51873 0.61345 0.0
C884 C 0.93116 0.54425 0.62771 0.0
H885 H 0.86849 0.5019 0.56685 0.0
H886 H 0.91962 0.49573 0.62752 0.0
C887 C 0.9192 0.57359 0.61059 0.0
loop_
_geom_bond_atom_site_label_1
_geom_bond_atom_site_label_2
_geom_bond_distance
_geom_bond_site_symmetry_2
_ccdc_geom_bond_type
C0 C1 1.386 . S
C0 C2 1.397 . S
C0 H24 0.931 1_554 S
C1 C0 1.386 . S
C1 C5 1.397 . S
C2 C0 1.397 . S
C2 C3 1.384 . S
C2 H25 0.930 . S
C3 C2 1.384 . S
C3 C4 1.377 . S
C3 C6 1.481 . S
C4 C3 1.377 . S
C4 C5 1.389 . S
C4 H26 0.929 . S
C5 C1 1.397 . S
C5 C4 1.389 . S
C5 H27 0.931 . S
C6 C3 1.481 . S
C6 C7 1.387 . S
C6 C11 1.390 . S
C7 C6 1.387 . S
C7 C8 1.401 . S
C7 H28 0.930 . S
C8 C7 1.401 . S
C8 C9 1.376 . S
C8 C17 1.511 . S
C9 C8 1.376 . S
C9 C10 1.392 . S
C9 H30 0.931 . S
C10 C9 1.392 . S
C10 C11 1.361 . S
C10 C12 1.500 . S
C11 C6 1.390 . S
C11 C10 1.361 . S
C11 H29 0.931 . S
C12 C10 1.500 . S
C12 C13 1.371 . S
C12 C14 1.365 . S
C13 C12 1.371 . S
C13 C23 1.386 . S
C13 H31 0.931 . S
C14 C12 1.365 . S
C14 C15 1.409 . S
C14 H32 0.929 . S
C15 C14 1.409 . S
C15 C16 1.380 . S
C15 H33 0.930 . S
C16 C15 1.380 . S
C16 C23 1.357 . S
C17 C8 1.511 . S
C17 C18 1.341 . S
C17 C19 1.371 . S
C18 C17 1.341 . S
C18 C22 1.394 . S
C18 H34 0.930 . S
C19 C17 1.371 . S
C19 C20 1.392 . S
C19 H35 0.931 . S
C20 C19 1.392 . S
C20 C21 1.331 . S
C20 H38 0.932 . S
C21 C20 1.331 . S
C21 C22 1.336 . S
C22 C18 1.394 . S
C22 C21 1.336 . S
C22 H37 0.929 . S
C23 C13 1.386 . S
C23 C16 1.357 . S
C23 H36 0.928 . S
H24 C0 0.931 1_556 S
H25 C2 0.930 . S
H26 C4 0.929 . S
H27 C5 0.931 . S
H28 C7 0.930 . S
H29 C11 0.931 . S
H30 C9 0.931 . S
H31 C13 0.931 . S
H32 C14 0.929 . S
H33 C15 0.930 . S
H34 C18 0.930 . S
H35 C19 0.931 . S
H36 C23 0.928 . S
H37 C22 0.929 . S
H38 C20 0.932 . S
C39 C40 1.386 . S
C39 C41 1.397 . S
C39 H63 0.931 1_554 S
C40 C39 1.386 . S
C40 C44 1.397 . S
C41 C39 1.397 . S
C41 C42 1.384 . S
C41 H64 0.930 . S
C42 C41 1.384 . S
C42 C43 1.377 . S
C42 C45 1.481 . S
C43 C42 1.377 . S
C43 C44 1.389 . S
C43 H65 0.929 . S
C44 C40 1.397 . S
C44 C43 1.389 . S
C44 H66 0.931 . S
C45 C42 1.481 . S
C45 C46 1.387 . S
C45 C50 1.390 . S
C46 C45 1.387 . S
C46 C47 1.401 . S
C46 H67 0.930 . S
C47 C46 1.401 . S
C47 C48 1.376 . S
C47 C56 1.511 . S
C48 C47 1.376 . S
C48 C49 1.392 . S
C48 H69 0.931 . S
C49 C48 1.392 . S
C49 C50 1.361 . S
C49 C51 1.500 . S
C50 C45 1.390 . S
C50 C49 1.361 . S
C50 H68 0.931 . S
C51 C49 1.500 . S
C51 C52 1.371 . S
C51 C53 1.365 . S
C52 C51 1.371 . S
C52 C62 1.386 . S
C52 H70 0.931 . S
C53 C51 1.365 . S
C53 C54 1.409 . S
C53 H71 0.929 . S
C54 C53 1.409 . S
C54 C55 1.380 . S
C54 H72 0.930 . S
C55 C54 1.380 . S
C55 C62 1.357 . S
C56 C47 1.511 . S
C56 C57 1.341 . S
C56 C58 1.371 . S
C57 C56 1.341 . S
C57 C61 1.394 . S
C57 H73 0.930 . S
C58 C56 1.371 . S
C58 C59 1.392 . S
C58 H74 0.931 . S
C59 C58 1.392 . S
C59 C60 1.331 . S
C59 H77 0.932 . S
C60 C59 1.331 . S
C60 C61 1.336 . S
C61 C57 1.394 . S
C61 C60 1.336 . S
C61 H76 0.929 . S
C62 C52 1.386 . S
C62 C55 1.357 . S
C62 H75 0.928 . S
H63 C39 0.931 1_556 S
H64 C41 0.930 . S
H65 C43 0.929 . S
H66 C44 0.931 . S
H67 C46 0.930 . S
H68 C50 0.931 . S
H69 C48 0.931 . S
H70 C52 0.931 . S
H71 C53 0.929 . S
H72 C54 0.930 . S
H73 C57 0.930 . S
H74 C58 0.931 . S
H75 C62 0.928 . S
H76 C61 0.929 . S
H77 C59 0.932 . S
C78 C79 1.386 . S
C78 C80 1.397 . S
C78 H102 0.931 1_554 S
C79 C78 1.386 . S
C79 C83 1.397 . S
C80 C78 1.397 . S
C80 C81 1.384 . S
C80 H103 0.930 . S
C81 C80 1.384 . S
C81 C82 1.377 . S
C81 C84 1.481 . S
C82 C81 1.377 . S
C82 C83 1.389 . S
C82 H104 0.929 . S
C83 C79 1.397 . S
C83 C82 1.389 . S
C83 H105 0.931 . S
C84 C81 1.481 . S
C84 C85 1.387 . S
C84 C89 1.390 . S
C85 C84 1.387 . S
C85 C86 1.401 . S
C85 H106 0.930 . S
C86 C85 1.401 . S
C86 C87 1.376 . S
C86 C95 1.511 . S
C87 C86 1.376 . S
C87 C88 1.392 . S
C87 H108 0.931 . S
C88 C87 1.392 . S
C88 C89 1.361 . S
C88 C90 1.500 . S
C89 C84 1.390 . S
C89 C88 1.361 . S
C89 H107 0.931 . S
C90 C88 1.500 . S
C90 C91 1.371 . S
C90 C92 1.365 . S
C91 C90 1.371 . S
C91 C101 1.386 . S
C91 H109 0.931 . S
C92 C90 1.365 . S
C92 C93 1.409 . S
C92 H110 0.929 . S
C93 C92 1.409 . S
C93 C94 1.380 . S
C93 H111 0.930 . S
C94 C93 1.380 . S
C94 C101 1.357 . S
C95 C86 1.511 . S
C95 C96 1.341 . S
C95 C97 1.371 . S
C96 C95 1.341 . S
C96 C100 1.394 . S
C96 H112 0.930 . S
C97 C95 1.371 . S
C97 C98 1.392 . S
C97 H113 0.931 . S
C98 C97 1.392 . S
C98 C99 1.331 . S
C98 H116 0.932 . S
C99 C98 1.331 . S
C99 C100 1.336 . S
C100 C96 1.394 . S
C100 C99 1.336 . S
C100 H115 0.929 . S
C101 C91 1.386 . S
C101 C94 1.357 . S
C101 H114 0.928 . S
H102 C78 0.931 1_556 S
H103 C80 0.930 . S
H104 C82 0.929 . S
H105 C83 0.931 . S
H106 C85 0.930 . S
H107 C89 0.931 . S
H108 C87 0.931 . S
H109 C91 0.931 . S
H110 C92 0.929 . S
H111 C93 0.930 . S
H112 C96 0.930 . S
H113 C97 0.931 . S
H114 C101 0.928 . S
H115 C100 0.929 . S
H116 C98 0.932 . S
C117 C118 1.386 . S
C117 C119 1.397 . S
C117 H141 0.931 . S
C118 C117 1.386 . S
C118 C122 1.397 . S
C119 C117 1.397 . S
C119 C120 1.384 . S
C119 H142 0.930 . S
C120 C119 1.384 . S
C120 C121 1.377 . S
C120 C123 1.481 . S
C121 C120 1.377 . S
C121 C122 1.389 . S
C121 H143 0.929 . S
C122 C118 1.397 . S
C122 C121 1.389 . S
C122 H144 0.931 . S
C123 C120 1.481 . S
C123 C124 1.387 . S
C123 C128 1.390 . S
C124 C123 1.387 . S
C124 C125 1.401 . S
C124 H145 0.930 . S
C125 C124 1.401 . S
C125 C126 1.376 . S
C125 C134 1.511 . S
C126 C125 1.376 . S
C126 C127 1.392 . S
C126 H147 0.931 . S
C127 C126 1.392 . S
C127 C128 1.361 . S
C127 C129 1.500 . S
C128 C123 1.390 . S
C128 C127 1.361 . S
C128 H146 0.931 . S
C129 C127 1.500 . S
C129 C130 1.371 . S
C129 C131 1.365 . S
C130 C129 1.371 . S
C130 C140 1.386 . S
C130 H148 0.931 . S
C131 C129 1.365 . S
C131 C132 1.409 . S
C131 H149 0.929 . S
C132 C131 1.409 . S
C132 C133 1.380 . S
C132 H150 0.930 . S
C133 C132 1.380 . S
C133 C140 1.357 . S
C134 C125 1.511 . S
C134 C135 1.341 . S
C134 C136 1.371 . S
C135 C134 1.341 . S
C135 C139 1.394 . S
C135 H151 0.930 . S
C136 C134 1.371 . S
C136 C137 1.392 . S
C136 H152 0.931 . S
C137 C136 1.392 . S
C137 C138 1.331 . S
C137 H155 0.932 . S
C138 C137 1.331 . S
C138 C139 1.336 . S
C139 C135 1.394 . S
C139 C138 1.336 . S
C139 H154 0.929 . S
C140 C130 1.386 . S
C140 C133 1.357 . S
C140 H153 0.928 1_554 S
H141 C117 0.931 . S
H142 C119 0.930 . S
H143 C121 0.929 . S
H144 C122 0.931 . S
H145 C124 0.930 . S
H146 C128 0.931 . S
H147 C126 0.931 . S
H148 C130 0.931 . S
H149 C131 0.929 . S
H150 C132 0.930 . S
H151 C135 0.930 . S
H152 C136 0.931 . S
H153 C140 0.928 1_556 S
H154 C139 0.929 . S
H155 C137 0.932 . S
C156 C157 1.386 . S
C156 C158 1.397 . S
C156 H180 0.931 . S
C157 C156 1.386 . S
C157 C161 1.397 . S
C158 C156 1.397 . S
C158 C159 1.384 . S
C158 H181 0.930 . S
C159 C158 1.384 . S
C159 C160 1.377 . S
C159 C162 1.481 . S
C160 C159 1.377 . S
C160 C161 1.389 . S
C160 H182 0.929 . S
C161 C157 1.397 . S
C161 C160 1.389 . S
C161 H183 0.931 . S
C162 C159 1.481 . S
C162 C163 1.387 . S
C162 C167 1.390 . S
C163 C162 1.387 . S
C163 C164 1.401 . S
C163 H184 0.930 . S
C164 C163 1.401 . S
C164 C165 1.376 1_554 S
C164 C173 1.511 . S
C165 C164 1.376 1_556 S
C165 C166 1.392 . S
C165 H186 0.931 . S
C166 C165 1.392 . S
C166 C167 1.361 1_556 S
C166 C168 1.500 . S
C167 C162 1.390 . S
C167 C166 1.361 1_554 S
C167 H185 0.931 1_554 S
C168 C166 1.500 . S
C168 C169 1.371 . S
C168 C170 1.365 . S
C169 C168 1.371 . S
C169 C179 1.386 . S
C169 H187 0.931 . S
C170 C168 1.365 . S
C170 C171 1.409 . S
C170 H188 0.929 . S
C171 C170 1.409 . S
C171 C172 1.380 . S
C171 H189 0.930 . S
C172 C171 1.380 . S
C172 C179 1.357 . S
C173 C164 1.511 . S
C173 C174 1.341 . S
C173 C175 1.371 . S
C174 C173 1.341 . S
C174 C178 1.394 . S
C174 H190 0.930 . S
C175 C173 1.371 . S
C175 C176 1.392 . S
C175 H191 0.931 1_554 S
C176 C175 1.392 . S
C176 C177 1.331 . S
C176 H194 0.932 1_554 S
C177 C176 1.331 . S
C177 C178 1.336 . S
C178 C174 1.394 . S
C178 C177 1.336 . S
C178 H193 0.929 . S
C179 C169 1.386 . S
C179 C172 1.357 . S
C179 H192 0.928 . S
H180 C156 0.931 . S
H181 C158 0.930 . S
H182 C160 0.929 . S
H183 C161 0.931 . S
H184 C163 0.930 . S
H185 C167 0.931 1_556 S
H186 C165 0.931 . S
H187 C169 0.931 . S
H188 C170 0.929 . S
H189 C171 0.930 . S
H190 C174 0.930 . S
H191 C175 0.931 1_556 S
H192 C179 0.928 . S
H193 C178 0.929 . S
H194 C176 0.932 1_556 S
C195 C196 1.386 . S
C195 C197 1.397 . S
C195 H219 0.931 . S
C196 C195 1.386 . S
C196 C200 1.397 . S
C197 C195 1.397 . S
C197 C198 1.384 . S
C197 H220 0.930 . S
C198 C197 1.384 . S
C198 C199 1.377 . S
C198 C201 1.481 . S
C199 C198 1.377 . S
C199 C200 1.389 . S
C199 H221 0.929 . S
C200 C196 1.397 . S
C200 C199 1.389 . S
C200 H222 0.931 . S
C201 C198 1.481 . S
C201 C202 1.387 . S
C201 C206 1.390 . S
C202 C201 1.387 . S
C202 C203 1.401 . S
C202 H223 0.930 . S
C203 C202 1.401 . S
C203 C204 1.376 1_554 S
C203 C212 1.511 . S
C204 C203 1.376 1_556 S
C204 C205 1.392 . S
C204 H225 0.931 . S
C205 C204 1.392 . S
C205 C206 1.361 1_556 S
C205 C207 1.500 . S
C206 C201 1.390 . S
C206 C205 1.361 1_554 S
C206 H224 0.931 1_554 S
C207 C205 1.500 . S
C207 C208 1.371 . S
C207 C209 1.365 . S
C208 C207 1.371 . S
C208 C218 1.386 . S
C208 H226 0.931 . S
C209 C207 1.365 . S
C209 C210 1.409 . S
C209 H227 0.929 . S
C210 C209 1.409 . S
C210 C211 1.380 . S
C210 H228 0.930 . S
C211 C210 1.380 . S
C211 C218 1.357 . S
C212 C203 1.511 . S
C212 C213 1.341 . S
C212 C214 1.371 . S
C213 C212 1.341 . S
C213 C217 1.394 . S
C213 H229 0.930 . S
C214 C212 1.371 . S
C214 C215 1.392 . S
C214 H230 0.931 1_554 S
C215 C214 1.392 . S
C215 C216 1.331 . S
C215 H233 0.932 1_554 S
C216 C215 1.331 . S
C216 C217 1.336 . S
C217 C213 1.394 . S
C217 C216 1.336 . S
C217 H232 0.929 . S
C218 C208 1.386 . S
C218 C211 1.357 . S
C218 H231 0.928 . S
H219 C195 0.931 . S
H220 C197 0.930 . S
H221 C199 0.929 . S
H222 C200 0.931 . S
H223 C202 0.930 . S
H224 C206 0.931 1_556 S
H225 C204 0.931 . S
H226 C208 0.931 . S
H227 C209 0.929 . S
H228 C210 0.930 . S
H229 C213 0.930 . S
H230 C214 0.931 1_556 S
H231 C218 0.928 . S
H232 C217 0.929 . S
H233 C215 0.932 1_556 S
C234 C235 1.386 . S
C234 C236 1.397 . S
C234 H258 0.931 . S
C235 C234 1.386 . S
C235 C239 1.397 . S
C236 C234 1.397 . S
C236 C237 1.384 . S
C236 H259 0.930 . S
C237 C236 1.384 . S
C237 C238 1.377 . S
C237 C240 1.481 . S
C238 C237 1.377 . S
C238 C239 1.389 . S
C238 H260 0.929 . S
C239 C235 1.397 . S
C239 C238 1.389 . S
C239 H261 0.931 . S
C240 C237 1.481 . S
C240 C241 1.387 . S
C240 C245 1.385 1_554 S
C241 C240 1.387 . S
C241 C242 1.401 . S
C241 H262 0.930 . S
C242 C241 1.401 . S
C242 C243 1.376 1_554 S
C242 C251 1.511 . S
C243 C242 1.376 1_556 S
C243 C244 1.392 . S
C243 H264 0.931 . S
C244 C243 1.392 . S
C244 C245 1.365 . S
C244 C246 1.500 . S
C245 C240 1.385 1_556 S
C245 C244 1.365 . S
C245 H263 0.932 . S
C246 C244 1.500 . S
C246 C247 1.371 . S
C246 C248 1.365 . S
C247 C246 1.371 . S
C247 C257 1.386 . S
C247 H265 0.931 . S
C248 C246 1.365 . S
C248 C249 1.409 . S
C248 H266 0.929 . S
C249 C248 1.409 . S
C249 C250 1.380 . S
C249 H267 0.930 . S
C250 C249 1.380 . S
C250 C257 1.357 . S
C251 C242 1.511 . S
C251 C252 1.341 . S
C251 C253 1.371 . S
C252 C251 1.341 . S
C252 C256 1.394 . S
C252 H268 0.930 . S
C253 C251 1.371 . S
C253 C254 1.392 . S
C253 H269 0.931 1_554 S
C254 C253 1.392 . S
C254 C255 1.331 . S
C254 H272 0.932 1_554 S
C255 C254 1.331 . S
C255 C256 1.336 . S
C256 C252 1.394 . S
C256 C255 1.336 . S
C256 H271 0.929 . S
C257 C247 1.386 . S
C257 C250 1.357 . S
C257 H270 0.928 . S
H258 C234 0.931 . S
H259 C236 0.930 . S
H260 C238 0.929 . S
H261 C239 0.931 . S
H262 C241 0.930 . S
H263 C245 0.932 . S
H264 C243 0.931 . S
H265 C247 0.931 . S
H266 C248 0.929 . S
H267 C249 0.930 . S
H268 C252 0.930 . S
H269 C253 0.931 1_556 S
H270 C257 0.928 . S
H271 C256 0.929 . S
H272 C254 0.932 1_556 S
C273 C274 1.386 . S
C273 C275 1.397 . S
C273 H297 0.931 . S
C274 C273 1.386 . S
C274 C278 1.397 . S
C275 C273 1.397 . S
C275 C276 1.384 . S
C275 H298 0.930 . S
C276 C275 1.384 . S
C276 C277 1.377 . S
C276 C279 1.481 . S
C277 C276 1.377 . S
C277 C278 1.389 . S
C277 H299 0.929 . S
C278 C274 1.397 . S
C278 C277 1.389 . S
C278 H300 0.931 . S
C279 C276 1.481 . S
C279 C280 1.387 . S
C279 C284 1.390 1_556 S
C280 C279 1.387 . S
C280 C281 1.401 1_556 S
C280 H301 0.930 . S
C281 C280 1.401 1_554 S
C281 C282 1.376 . S
C281 C290 1.511 . S
C282 C281 1.376 . S
C282 C283 1.392 . S
C282 H303 0.931 . S
C283 C282 1.392 . S
C283 C284 1.361 . S
C283 C285 1.500 . S
C284 C279 1.390 1_554 S
C284 C283 1.361 . S
C284 H302 0.931 1_554 S
C285 C283 1.500 . S
C285 C286 1.371 . S
C285 C287 1.365 . S
C286 C285 1.371 . S
C286 C296 1.386 . S
C286 H304 0.931 . S
C287 C285 1.365 . S
C287 C288 1.409 . S
C287 H305 0.929 . S
C288 C287 1.409 . S
C288 C289 1.380 . S
C288 H306 0.930 . S
C289 C288 1.380 . S
C289 C296 1.357 . S
C290 C281 1.511 . S
C290 C291 1.341 . S
C290 C292 1.371 . S
C291 C290 1.341 . S
C291 C295 1.394 . S
C291 H307 0.930 1_554 S
C292 C290 1.371 . S
C292 C293 1.392 . S
C292 H308 0.931 . S
C293 C292 1.392 . S
C293 C294 1.331 . S
C293 H311 0.932 . S
C294 C293 1.331 . S
C294 C295 1.336 . S
C295 C291 1.394 . S
C295 C294 1.336 . S
C295 H310 0.929 1_554 S
C296 C286 1.386 . S
C296 C289 1.357 . S
C296 H309 0.928 . S
H297 C273 0.931 . S
H298 C275 0.930 . S
H299 C277 0.929 . S
H300 C278 0.931 . S
H301 C280 0.930 . S
H302 C284 0.931 1_556 S
H303 C282 0.931 . S
H304 C286 0.931 . S
H305 C287 0.929 . S
H306 C288 0.930 . S
H307 C291 0.930 1_556 S
H308 C292 0.931 . S
H309 C296 0.928 . S
H310 C295 0.929 1_556 S
H311 C293 0.932 . S
Tb312 N343 2.660 1_565 S
Tb312 N350 2.600 . S
Tb312 O356 2.546 . S
Tb312 O357 2.610 1_455 S
Tb312 O359 2.320 1_455 S
Tb312 O360 2.552 . S
Tb312 O361 2.413 . S
Tb312 O363 2.362 1_565 S
Tb312 O364 2.421 . S
Tb312 C376 2.833 . S
C313 C316 1.432 1_545 S
C313 C317 1.414 1_545 S
C313 N320 1.359 . S
C314 C316 1.417 . S
C314 C318 1.432 . S
C314 C326 1.410 . S
C315 C317 1.444 . S
C315 C318 1.317 . S
C315 H338 0.929 . S
C316 C313 1.432 1_565 S
C316 C314 1.417 . S
C316 N324 1.360 . S
C317 C313 1.414 1_565 S
C317 C315 1.444 . S
C317 C322 1.385 1_565 S
C318 C314 1.432 . S
C318 C315 1.317 . S
C318 H330 0.930 . S
C319 C321 1.392 . S
C319 C322 1.370 . S
C319 H331 0.931 . S
N320 C313 1.359 . S
N320 C321 1.327 . S
N320 Tb323 2.600 . S
C321 C319 1.392 . S
C321 N320 1.327 . S
C321 H328 0.930 . S
C322 C317 1.385 1_545 S
C322 C319 1.370 . S
C322 H341 0.930 . S
Tb323 N320 2.600 . S
Tb323 N324 2.660 1_545 S
Tb323 O357 2.362 1_545 S
Tb323 O358 2.421 . S
Tb323 O362 2.546 . S
Tb323 O363 2.610 1_655 S
Tb323 O365 2.320 1_655 S
Tb323 O366 2.543 1_655 S
Tb323 O367 2.413 . S
Tb323 C387 2.833 . S
N324 C316 1.360 . S
N324 Tb323 2.660 1_565 S
N324 C325 1.305 . S
C325 N324 1.305 . S
C325 C327 1.407 . S
C325 H332 0.930 1_655 S
C326 C314 1.410 . S
C326 C327 1.345 . S
C326 H334 0.930 . S
C327 C325 1.407 . S
C327 C326 1.345 . S
C327 H329 0.930 1_655 S
H328 C321 0.930 . S
H329 C327 0.930 1_455 S
H330 C318 0.930 . S
H331 C319 0.931 . S
H332 C325 0.930 1_455 S
H333 C347 0.930 1_654 S
H334 C326 0.930 . S
H335 C353 0.930 . S
H336 C344 0.930 1_655 S
H337 C351 0.931 . S
H338 C315 0.929 . S
H339 C345 0.930 . S
H340 C378 0.930 . S
H341 C322 0.930 . S
H342 C377 0.929 . S
N343 Tb312 2.660 1_545 S
N343 C344 1.305 . S
N343 C348 1.360 . S
C344 H336 0.930 1_455 S
C344 N343 1.305 . S
C344 C347 1.407 . S
C345 H339 0.930 . S
C345 C346 1.410 1_554 S
C345 C347 1.345 1_554 S
C346 C345 1.410 1_556 S
C346 C348 1.417 . S
C346 C378 1.432 1_556 S
C347 H333 0.930 1_456 S
C347 C344 1.407 . S
C347 C345 1.345 1_556 S
C348 N343 1.360 . S
C348 C346 1.417 . S
C348 C352 1.432 . S
H349 C354 0.930 . S
N350 Tb312 2.600 . S
N350 C352 1.359 1_565 S
N350 C353 1.327 . S
C351 H337 0.931 . S
C351 C353 1.392 . S
C351 C354 1.370 1_565 S
C352 C348 1.432 . S
C352 N350 1.359 1_545 S
C352 C355 1.414 . S
C353 H335 0.930 . S
C353 N350 1.327 . S
C353 C351 1.392 . S
C354 H349 0.930 . S
C354 C351 1.370 1_545 S
C354 C355 1.385 . S
C355 C352 1.414 . S
C355 C354 1.385 . S
C355 C377 1.444 . S
O356 Tb312 2.546 . S
O356 C376 1.251 . S
O357 Tb312 2.610 1_655 S
O357 Tb323 2.362 1_565 S
O357 C368 1.283 . S
O358 Tb323 2.421 . S
O358 C375 1.262 . S
O359 Tb312 2.320 1_655 S
O359 C375 1.260 1_565 S
O360 Tb312 2.552 . S
O360 C368 1.243 1_455 S
O361 Tb312 2.413 . S
O361 C376 1.256 . S
O362 Tb323 2.546 . S
O362 C387 1.251 . S
O363 Tb312 2.362 1_545 S
O363 Tb323 2.610 1_455 S
O363 C379 1.283 . S
O364 Tb312 2.421 . S
O364 C386 1.262 1_565 S
O365 Tb323 2.320 1_455 S
O365 C386 1.260 . S
O366 Tb323 2.543 1_455 S
O366 C379 1.258 . S
O367 Tb323 2.413 . S
O367 C387 1.256 . S
C368 O357 1.283 . S
C368 O360 1.243 1_655 S
C369 C371 1.382 . S
C369 C373 1.393 . S
C369 C376 1.500 . S
C370 C371 1.400 . S
C370 C372 1.384 . S
C371 C369 1.382 . S
C371 C370 1.400 . S
C371 H388 0.930 . S
C372 C370 1.384 . S
C372 C374 1.392 . S
C372 H389 0.931 1_556 S
C373 C369 1.393 . S
C373 C374 1.401 . S
C373 H390 0.930 . S
C374 C372 1.392 . S
C374 C373 1.401 . S
C374 H391 0.930 . S
C375 O358 1.262 . S
C375 O359 1.260 1_545 S
C376 Tb312 2.833 . S
C376 O356 1.251 . S
C376 O361 1.256 . S
C376 C369 1.500 . S
C377 H342 0.929 . S
C377 C355 1.444 . S
C377 C378 1.317 1_556 S
C378 H340 0.930 . S
C378 C346 1.432 1_554 S
C378 C377 1.317 1_554 S
C379 O363 1.283 . S
C379 O366 1.258 . S
C380 C381 1.382 . S
C380 C384 1.393 . S
C380 C387 1.500 . S
C381 C380 1.382 . S
C381 C382 1.400 . S
C381 H392 0.930 1_655 S
C382 C381 1.400 . S
C382 C383 1.384 . S
C383 C382 1.384 . S
C383 C385 1.392 . S
C383 H393 0.931 . S
C384 C380 1.393 . S
C384 C385 1.401 . S
C384 H394 0.930 . S
C385 C383 1.392 . S
C385 C384 1.401 . S
C385 H395 0.930 . S
C386 O364 1.262 1_545 S
C386 O365 1.260 . S
C387 Tb323 2.833 . S
C387 O362 1.251 . S
C387 O367 1.256 . S
C387 C380 1.500 . S
H388 C371 0.930 . S
H389 C372 0.931 1_554 S
H390 C373 0.930 . S
H391 C374 0.930 . S
H392 C381 0.930 1_455 S
H393 C383 0.931 . S
H394 C384 0.930 . S
H395 C385 0.930 . S
Tb396 N427 2.660 . S
Tb396 N434 2.600 . S
Tb396 O440 2.546 . S
Tb396 O441 2.610 1_545 S
Tb396 O443 2.320 1_545 S
Tb396 O444 2.552 . S
Tb396 O445 2.413 . S
Tb396 O447 2.362 . S
Tb396 O448 2.421 . S
Tb396 C460 2.833 . S
C397 C400 1.432 . S
C397 C401 1.414 . S
C397 N404 1.359 . S
C398 C400 1.417 . S
C398 C402 1.432 . S
C398 C410 1.410 . S
C399 C401 1.444 . S
C399 C402 1.317 . S
C399 H422 0.929 . S
C400 C397 1.432 . S
C400 C398 1.417 . S
C400 N408 1.360 . S
C401 C397 1.414 . S
C401 C399 1.444 . S
C401 C406 1.385 . S
C402 C398 1.432 . S
C402 C399 1.317 . S
C402 H414 0.930 . S
C403 C405 1.392 . S
C403 C406 1.370 . S
C403 H415 0.931 . S
N404 C397 1.359 . S
N404 C405 1.327 . S
N404 Tb407 2.600 . S
C405 C403 1.392 . S
C405 N404 1.327 . S
C405 H412 0.930 . S
C406 C401 1.385 . S
C406 C403 1.370 . S
C406 H425 0.930 . S
Tb407 N404 2.600 . S
Tb407 N408 2.660 . S
Tb407 O441 2.362 . S
Tb407 O442 2.421 . S
Tb407 O446 2.546 . S
Tb407 O447 2.610 1_565 S
Tb407 O449 2.320 1_565 S
Tb407 O450 2.552 1_565 S
Tb407 O451 2.413 . S
Tb407 C471 2.833 . S
N408 C400 1.360 . S
N408 Tb407 2.660 . S
N408 C409 1.305 1_565 S
C409 N408 1.305 1_545 S
C409 C411 1.407 1_545 S
C409 H416 0.930 . S
C410 C398 1.410 . S
C410 C411 1.354 . S
C410 H418 0.930 . S
C411 C409 1.407 1_565 S
C411 C410 1.354 . S
C411 H413 0.922 1_565 S
H412 C405 0.930 . S
H413 C411 0.922 1_545 S
H414 C402 0.930 . S
H415 C403 0.931 . S
H416 C409 0.930 . S
H417 C431 0.930 1_564 S
H418 C410 0.930 . S
H419 C437 0.930 . S
H420 C428 0.930 1_565 S
H421 C435 0.931 . S
H422 C399 0.929 . S
H423 C429 0.930 . S
H424 C462 0.930 . S
H425 C406 0.930 . S
H426 C461 0.929 . S
N427 Tb396 2.660 . S
N427 C428 1.305 . S
N427 C432 1.360 . S
C428 H420 0.930 1_545 S
C428 N427 1.305 . S
C428 C431 1.407 . S
C429 H423 0.930 . S
C429 C430 1.410 1_554 S
C429 C431 1.345 1_554 S
C430 C429 1.410 1_556 S
C430 C432 1.417 . S
C430 C462 1.432 1_556 S
C431 H417 0.930 1_546 S
C431 C428 1.407 . S
C431 C429 1.345 1_556 S
C432 N427 1.360 . S
C432 C430 1.417 . S
C432 C436 1.432 . S
H433 C438 0.930 . S
N434 Tb396 2.600 . S
N434 C436 1.359 . S
N434 C437 1.327 . S
C435 H421 0.931 . S
C435 C437 1.392 . S
C435 C438 1.370 . S
C436 C432 1.432 . S
C436 N434 1.359 . S
C436 C439 1.414 . S
C437 H419 0.930 . S
C437 N434 1.327 . S
C437 C435 1.392 . S
C438 H433 0.930 . S
C438 C435 1.370 . S
C438 C439 1.385 . S
C439 C436 1.414 . S
C439 C438 1.385 . S
C439 C461 1.444 . S
O440 Tb396 2.546 . S
O440 C460 1.251 . S
O441 Tb396 2.610 1_565 S
O441 Tb407 2.362 . S
O441 C452 1.283 . S
O442 Tb407 2.421 . S
O442 C459 1.262 . S
O443 Tb396 2.320 1_565 S
O443 C459 1.260 . S
O444 Tb396 2.552 . S
O444 C452 1.243 1_545 S
O445 Tb396 2.413 . S
O445 C460 1.256 . S
O446 Tb407 2.546 . S
O446 C471 1.251 . S
O447 Tb396 2.362 . S
O447 Tb407 2.610 1_545 S
O447 C463 1.283 . S
O448 Tb396 2.421 . S
O448 C470 1.262 . S
O449 Tb407 2.320 1_545 S
O449 C470 1.260 . S
O450 Tb407 2.552 1_545 S
O450 C463 1.243 . S
O451 Tb407 2.413 . S
O451 C471 1.256 . S
C452 O441 1.283 . S
C452 O444 1.243 1_565 S
C453 C455 1.382 . S
C453 C457 1.393 . S
C453 C460 1.500 . S
C454 C455 1.400 . S
C454 C456 1.384 . S
C455 C453 1.382 . S
C455 C454 1.400 . S
C455 H472 0.930 . S
C456 C454 1.384 . S
C456 C458 1.392 . S
C456 H473 0.931 1_556 S
C457 C453 1.393 . S
C457 C458 1.401 . S
C457 H474 0.930 . S
C458 C456 1.392 . S
C458 C457 1.401 . S
C458 H475 0.930 . S
C459 O442 1.262 . S
C459 O443 1.260 . S
C460 Tb396 2.833 . S
C460 O440 1.251 . S
C460 O445 1.256 . S
C460 C453 1.500 . S
C461 H426 0.929 . S
C461 C439 1.444 . S
C461 C462 1.317 1_556 S
C462 H424 0.930 . S
C462 C430 1.432 1_554 S
C462 C461 1.317 1_554 S
C463 O447 1.283 . S
C463 O450 1.243 . S
C464 C465 1.382 . S
C464 C468 1.393 . S
C464 C471 1.500 . S
C465 C464 1.382 . S
C465 C466 1.400 . S
C465 H476 0.930 1_565 S
C466 C465 1.400 . S
C466 C467 1.384 . S
C467 C466 1.384 . S
C467 C469 1.392 . S
C467 H477 0.931 . S
C468 C464 1.393 . S
C468 C469 1.401 . S
C468 H478 0.930 . S
C469 C467 1.392 . S
C469 C468 1.401 . S
C469 H479 0.930 . S
C470 O448 1.262 . S
C470 O449 1.260 . S
C471 Tb407 2.833 . S
C471 O446 1.251 . S
C471 O451 1.256 . S
C471 C464 1.500 . S
H472 C455 0.930 . S
H473 C456 0.931 1_554 S
H474 C457 0.930 . S
H475 C458 0.930 . S
H476 C465 0.930 1_545 S
H477 C467 0.931 . S
H478 C468 0.930 . S
H479 C469 0.930 . S
Tb480 N511 2.660 . S
Tb480 N518 2.600 . S
Tb480 O524 2.546 . S
Tb480 O525 2.610 . S
Tb480 O527 2.320 . S
Tb480 O528 2.552 . S
Tb480 O529 2.413 . S
Tb480 O531 2.362 . S
Tb480 O532 2.421 . S
Tb480 C544 2.833 . S
C481 C484 1.432 . S
C481 C485 1.414 . S
C481 N488 1.359 . S
C482 C484 1.417 . S
C482 C486 1.432 . S
C482 C494 1.410 . S
C483 C485 1.444 . S
C483 C486 1.317 . S
C483 H506 0.929 . S
C484 C481 1.432 . S
C484 C482 1.417 . S
C484 N492 1.360 . S
C485 C481 1.414 . S
C485 C483 1.444 . S
C485 C490 1.385 . S
C486 C482 1.432 . S
C486 C483 1.317 . S
C486 H498 0.930 . S
C487 C489 1.392 . S
C487 C490 1.370 . S
C487 H499 0.931 . S
N488 C481 1.359 . S
N488 C489 1.327 . S
N488 Tb491 2.600 . S
C489 C487 1.392 . S
C489 N488 1.327 . S
C489 H496 0.930 . S
C490 C485 1.385 . S
C490 C487 1.370 . S
C490 H509 0.930 . S
Tb491 N488 2.600 . S
Tb491 N492 2.660 . S
Tb491 O525 2.362 . S
Tb491 O526 2.421 . S
Tb491 O530 2.546 . S
Tb491 O531 2.610 . S
Tb491 O533 2.320 . S
Tb491 O534 2.552 . S
Tb491 O535 2.413 . S
Tb491 C555 2.833 . S
N492 C484 1.360 . S
N492 Tb491 2.660 . S
N492 C493 1.305 . S
C493 N492 1.305 . S
C493 C495 1.407 . S
C493 H500 0.930 . S
C494 C482 1.410 . S
C494 C495 1.345 . S
C494 H502 0.930 . S
C495 C493 1.407 . S
C495 C494 1.345 . S
C495 H497 0.930 . S
H496 C489 0.930 . S
H497 C495 0.930 . S
H498 C486 0.930 . S
H499 C487 0.931 . S
H500 C493 0.930 . S
H501 C515 0.930 . S
H502 C494 0.930 . S
H503 C521 0.930 . S
H504 C512 0.930 . S
H505 C519 0.931 . S
H506 C483 0.929 . S
H507 C513 0.930 . S
H508 C546 0.930 . S
H509 C490 0.930 . S
H510 C545 0.929 . S
N511 Tb480 2.660 . S
N511 C512 1.305 . S
N511 C516 1.360 . S
C512 H504 0.930 . S
C512 N511 1.305 . S
C512 C515 1.407 . S
C513 H507 0.930 . S
C513 C514 1.410 . S
C513 C515 1.345 . S
C514 C513 1.410 . S
C514 C516 1.417 . S
C514 C546 1.432 . S
C515 H501 0.930 . S
C515 C512 1.407 . S
C515 C513 1.345 . S
C516 N511 1.360 . S
C516 C514 1.417 . S
C516 C520 1.432 . S
H517 C522 0.930 . S
N518 Tb480 2.600 . S
N518 C520 1.359 . S
N518 C521 1.327 . S
C519 H505 0.931 . S
C519 C521 1.392 . S
C519 C522 1.370 . S
C520 C516 1.432 . S
C520 N518 1.359 . S
C520 C523 1.414 . S
C521 H503 0.930 . S
C521 N518 1.327 . S
C521 C519 1.392 . S
C522 H517 0.930 . S
C522 C519 1.370 . S
C522 C523 1.385 . S
C523 C520 1.414 . S
C523 C522 1.385 . S
C523 C545 1.444 . S
O524 Tb480 2.546 . S
O524 C544 1.251 . S
O525 Tb480 2.610 . S
O525 Tb491 2.362 . S
O525 C536 1.283 . S
O526 Tb491 2.421 . S
O526 C543 1.262 . S
O527 Tb480 2.320 . S
O527 C543 1.260 . S
O528 Tb480 2.552 . S
O528 C536 1.243 . S
O529 Tb480 2.413 . S
O529 C544 1.256 . S
O530 Tb491 2.546 . S
O530 C555 1.251 . S
O531 Tb480 2.362 . S
O531 Tb491 2.610 . S
O531 C547 1.283 . S
O532 Tb480 2.421 . S
O532 C554 1.262 . S
O533 Tb491 2.320 . S
O533 C554 1.260 . S
O534 Tb491 2.552 . S
O534 C547 1.243 . S
O535 Tb491 2.413 . S
O535 C555 1.256 . S
C536 O525 1.283 . S
C536 O528 1.243 . S
C537 C539 1.382 . S
C537 C541 1.393 . S
C537 C544 1.500 . S
C538 C539 1.400 . S
C538 C540 1.384 . S
C539 C537 1.382 . S
C539 C538 1.400 . S
C539 H556 0.930 . S
C540 C538 1.384 . S
C540 C542 1.392 . S
C540 H557 0.931 . S
C541 C537 1.393 . S
C541 C542 1.401 . S
C541 H558 0.930 . S
C542 C540 1.392 . S
C542 C541 1.401 . S
C542 H559 0.930 . S
C543 O526 1.262 . S
C543 O527 1.260 . S
C544 Tb480 2.833 . S
C544 O524 1.251 . S
C544 O529 1.256 . S
C544 C537 1.500 . S
C545 H510 0.929 . S
C545 C523 1.444 . S
C545 C546 1.317 . S
C546 H508 0.930 . S
C546 C514 1.432 . S
C546 C545 1.317 . S
C547 O531 1.283 . S
C547 O534 1.243 . S
C548 C549 1.382 . S
C548 C552 1.393 1_556 S
C548 C555 1.500 . S
C549 C548 1.382 . S
C549 C550 1.409 . S
C549 H560 0.930 . S
C550 C549 1.409 . S
C550 C551 1.374 1_556 S
C551 C550 1.374 1_554 S
C551 C553 1.392 . S
C551 H561 0.931 . S
C552 C548 1.393 1_554 S
C552 C553 1.401 . S
C552 H562 0.930 . S
C553 C551 1.392 . S
C553 C552 1.401 . S
C553 H563 0.930 . S
C554 O532 1.262 . S
C554 O533 1.260 . S
C555 Tb491 2.833 . S
C555 O530 1.251 . S
C555 O535 1.256 . S
C555 C548 1.500 . S
H556 C539 0.930 . S
H557 C540 0.931 . S
H558 C541 0.930 . S
H559 C542 0.930 . S
H560 C549 0.930 . S
H561 C551 0.931 . S
H562 C552 0.930 . S
H563 C553 0.930 . S
Tb564 N595 2.660 . S
Tb564 N602 2.600 . S
Tb564 O608 2.546 . S
Tb564 O609 2.610 . S
Tb564 O611 2.320 . S
Tb564 O612 2.552 . S
Tb564 O613 2.413 . S
Tb564 O615 2.350 1_455 S
Tb564 O616 2.421 1_455 S
Tb564 C628 2.833 . S
C565 C568 1.432 . S
C565 C569 1.414 . S
C565 N572 1.359 . S
C566 C568 1.417 . S
C566 C570 1.432 . S
C566 C578 1.410 . S
C567 C569 1.444 . S
C567 C570 1.317 . S
C567 H590 0.929 . S
C568 C565 1.432 . S
C568 C566 1.417 . S
C568 N576 1.360 . S
C569 C565 1.414 . S
C569 C567 1.444 . S
C569 C574 1.364 1_655 S
C570 C566 1.432 . S
C570 C567 1.317 . S
C570 H582 0.930 . S
C571 C573 1.392 . S
C571 C574 1.386 . S
C571 H583 0.931 . S
N572 C565 1.359 . S
N572 C573 1.327 1_655 S
N572 Tb575 2.600 . S
C573 C571 1.392 . S
C573 N572 1.327 1_455 S
C573 H580 0.930 . S
C574 C569 1.364 1_455 S
C574 C571 1.386 . S
C574 H593 0.935 . S
Tb575 N572 2.600 . S
Tb575 N576 2.660 . S
Tb575 O609 2.362 1_655 S
Tb575 O610 2.421 1_655 S
Tb575 O614 2.546 . S
Tb575 O615 2.617 . S
Tb575 O617 2.320 . S
Tb575 O618 2.552 . S
Tb575 O619 2.413 . S
Tb575 C639 2.833 . S
N576 C568 1.360 . S
N576 Tb575 2.660 . S
N576 C577 1.305 . S
C577 N576 1.305 . S
C577 C579 1.407 . S
C577 H584 0.930 . S
C578 C566 1.410 . S
C578 C579 1.345 . S
C578 H586 0.930 . S
C579 C577 1.407 . S
C579 C578 1.345 . S
C579 H581 0.930 . S
H580 C573 0.930 . S
H581 C579 0.930 . S
H582 C570 0.930 . S
H583 C571 0.931 . S
H584 C577 0.930 . S
H585 C599 0.930 . S
H586 C578 0.930 . S
H587 C605 0.930 . S
H588 C596 0.930 . S
H589 C603 0.931 . S
H590 C567 0.929 . S
H591 C597 0.930 . S
H592 C630 0.930 . S
H593 C574 0.935 . S
H594 C629 0.929 . S
N595 Tb564 2.660 . S
N595 C596 1.305 . S
N595 C600 1.360 . S
C596 H588 0.930 . S
C596 N595 1.305 . S
C596 C599 1.407 . S
C597 H591 0.930 . S
C597 C598 1.410 . S
C597 C599 1.345 . S
C598 C597 1.410 . S
C598 C600 1.417 . S
C598 C630 1.432 . S
C599 H585 0.930 . S
C599 C596 1.407 . S
C599 C597 1.345 . S
C600 N595 1.360 . S
C600 C598 1.417 . S
C600 C604 1.432 . S
H601 C606 0.930 . S
N602 Tb564 2.600 . S
N602 C604 1.359 . S
N602 C605 1.327 1_455 S
C603 H589 0.931 . S
C603 C605 1.392 . S
C603 C606 1.370 1_655 S
C604 C600 1.432 . S
C604 N602 1.359 . S
C604 C607 1.414 . S
C605 H587 0.930 . S
C605 N602 1.327 1_655 S
C605 C603 1.392 . S
C606 H601 0.930 . S
C606 C603 1.370 1_455 S
C606 C607 1.385 . S
C607 C604 1.414 . S
C607 C606 1.385 . S
C607 C629 1.444 . S
O608 Tb564 2.546 . S
O608 C628 1.251 . S
O609 Tb564 2.610 . S
O609 Tb575 2.362 1_455 S
O609 C620 1.283 . S
O610 Tb575 2.421 1_455 S
O610 C627 1.262 . S
O611 Tb564 2.320 . S
O611 C627 1.260 . S
O612 Tb564 2.552 . S
O612 C620 1.243 . S
O613 Tb564 2.413 . S
O613 C628 1.256 . S
O614 Tb575 2.546 . S
O614 C639 1.251 . S
O615 Tb564 2.350 1_655 S
O615 Tb575 2.617 . S
O615 C631 1.292 . S
O616 Tb564 2.421 1_655 S
O616 C638 1.262 . S
O617 Tb575 2.320 . S
O617 C638 1.260 . S
O618 Tb575 2.552 . S
O618 C631 1.243 . S
O619 Tb575 2.413 . S
O619 C639 1.256 . S
C620 O609 1.283 . S
C620 O612 1.243 . S
C621 C623 1.382 . S
C621 C625 1.393 . S
C621 C628 1.500 . S
C622 C623 1.400 . S
C622 C624 1.384 . S
C623 C621 1.382 . S
C623 C622 1.400 . S
C623 H640 0.930 . S
C624 C622 1.384 . S
C624 C626 1.392 . S
C624 H641 0.931 . S
C625 C621 1.393 . S
C625 C626 1.401 . S
C625 H642 0.930 . S
C626 C624 1.392 . S
C626 C625 1.401 . S
C626 H643 0.930 . S
C627 O610 1.262 . S
C627 O611 1.260 . S
C628 Tb564 2.833 . S
C628 O608 1.251 . S
C628 O613 1.256 . S
C628 C621 1.500 . S
C629 H594 0.929 . S
C629 C607 1.444 . S
C629 C630 1.317 . S
C630 H592 0.930 . S
C630 C598 1.432 . S
C630 C629 1.317 . S
C631 O615 1.292 . S
C631 O618 1.243 . S
C632 C633 1.382 . S
C632 C636 1.393 1_556 S
C632 C639 1.500 . S
C633 C632 1.382 . S
C633 C634 1.400 . S
C633 H644 0.930 . S
C634 C633 1.400 . S
C634 C635 1.384 1_556 S
C635 C634 1.384 1_554 S
C635 C637 1.392 . S
C635 H645 0.931 . S
C636 C632 1.393 1_554 S
C636 C637 1.401 . S
C636 H646 0.930 . S
C637 C635 1.392 . S
C637 C636 1.401 . S
C637 H647 0.930 . S
C638 O616 1.262 . S
C638 O617 1.260 . S
C639 Tb575 2.833 . S
C639 O614 1.251 . S
C639 O619 1.256 . S
C639 C632 1.500 . S
H640 C623 0.930 . S
H641 C624 0.931 . S
H642 C625 0.930 . S
H643 C626 0.930 . S
H644 C633 0.930 . S
H645 C635 0.931 . S
H646 C636 0.930 . S
H647 C637 0.930 . S
C648 C649 1.387 . S
C648 H652 0.950 . S
C648 C657 1.390 . S
C649 C648 1.387 . S
C649 C651 1.387 . S
H650 C657 0.950 . S
C651 C649 1.387 . S
C651 C653 1.390 . S
C651 H655 0.950 . S
H652 C648 0.950 . S
C653 C651 1.390 . S
C653 C654 1.387 . S
C653 H656 0.950 . S
C654 C653 1.387 . S
C654 C657 1.387 . S
H655 C651 0.950 . S
H656 C653 0.950 . S
C657 C648 1.390 . S
C657 H650 0.950 . S
C657 C654 1.387 . S
C658 C659 1.387 . S
C658 H662 0.950 . S
C658 C667 1.390 . S
C659 C658 1.387 . S
C659 C661 1.387 . S
H660 C667 0.950 . S
C661 C659 1.387 . S
C661 C663 1.390 . S
C661 H665 0.950 . S
H662 C658 0.950 . S
C663 C661 1.390 . S
C663 C664 1.387 . S
C663 H666 0.950 . S
C664 C663 1.387 . S
C664 C667 1.387 . S
H665 C661 0.950 . S
H666 C663 0.950 . S
C667 C658 1.390 . S
C667 H660 0.950 . S
C667 C664 1.387 . S
C668 C669 1.387 . S
C668 H672 0.950 . S
C668 C677 1.390 . S
C669 C668 1.387 . S
C669 C671 1.387 . S
H670 C677 0.950 . S
C671 C669 1.387 . S
C671 C673 1.390 . S
C671 H675 0.950 . S
H672 C668 0.950 . S
C673 C671 1.390 . S
C673 C674 1.387 . S
C673 H676 0.950 . S
C674 C673 1.387 . S
C674 C677 1.387 . S
H675 C671 0.950 . S
H676 C673 0.950 . S
C677 C668 1.390 . S
C677 H670 0.950 . S
C677 C674 1.387 . S
C678 C679 1.387 . S
C678 H682 0.950 . S
C678 C687 1.390 . S
C679 C678 1.387 . S
C679 C681 1.387 . S
H680 C687 0.950 . S
C681 C679 1.387 . S
C681 C683 1.390 . S
C681 H685 0.950 . S
H682 C678 0.950 . S
C683 C681 1.390 . S
C683 C684 1.387 . S
C683 H686 0.950 . S
C684 C683 1.387 . S
C684 C687 1.387 . S
H685 C681 0.950 . S
H686 C683 0.950 . S
C687 C678 1.390 . S
C687 H680 0.950 . S
C687 C684 1.387 . S
C688 C689 1.387 . S
C688 H692 0.950 . S
C688 C697 1.390 1_554 S
C689 C688 1.387 . S
C689 C691 1.387 . S
H690 C697 0.950 1_545 S
C691 C689 1.387 . S
C691 C693 1.390 1_554 S
C691 H695 0.950 . S
H692 C688 0.950 . S
C693 C691 1.390 1_556 S
C693 C694 1.387 . S
C693 H696 0.950 . S
C694 C693 1.387 . S
C694 C697 1.387 . S
H695 C691 0.950 . S
H696 C693 0.950 . S
C697 C688 1.390 1_556 S
C697 H690 0.950 1_565 S
C697 C694 1.387 . S
C698 C699 1.387 . S
C698 H702 0.950 . S
C698 C707 1.390 1_554 S
C699 C698 1.387 . S
C699 C701 1.387 . S
H700 C707 0.950 . S
C701 C699 1.387 . S
C701 C703 1.390 1_554 S
C701 H705 0.950 . S
H702 C698 0.950 . S
C703 C701 1.390 1_556 S
C703 C704 1.387 . S
C703 H706 0.950 . S
C704 C703 1.387 . S
C704 C707 1.387 . S
H705 C701 0.950 . S
H706 C703 0.950 . S
C707 C698 1.390 1_556 S
C707 H700 0.950 . S
C707 C704 1.387 . S
C708 C709 1.387 . S
C708 H712 0.950 . S
C708 C717 1.390 1_554 S
C709 C708 1.387 . S
C709 C711 1.387 . S
H710 C717 0.950 . S
C711 C709 1.387 . S
C711 C713 1.390 1_554 S
C711 H715 0.950 . S
H712 C708 0.950 . S
C713 C711 1.390 1_556 S
C713 C714 1.387 . S
C713 H716 0.950 . S
C714 C713 1.387 . S
C714 C717 1.387 . S
H715 C711 0.950 . S
H716 C713 0.950 . S
C717 C708 1.390 1_556 S
C717 H710 0.950 . S
C717 C714 1.387 . S
C718 C719 1.387 . S
C718 H722 0.950 . S
C718 C727 1.390 1_554 S
C719 C718 1.387 . S
C719 C721 1.387 . S
H720 C727 0.950 . S
C721 C719 1.387 . S
C721 C723 1.390 1_554 S
C721 H725 0.950 . S
H722 C718 0.950 . S
C723 C721 1.390 1_556 S
C723 C724 1.387 . S
C723 H726 0.950 . S
C724 C723 1.387 . S
C724 C727 1.387 . S
H725 C721 0.950 . S
H726 C723 0.950 . S
C727 C718 1.390 1_556 S
C727 H720 0.950 . S
C727 C724 1.387 . S
C728 C729 1.387 . S
C728 H732 0.950 . S
C728 C737 1.390 . S
C729 C728 1.387 . S
C729 C731 1.387 . S
H730 C737 0.950 . S
C731 C729 1.387 . S
C731 C733 1.390 . S
C731 H735 0.950 . S
H732 C728 0.950 . S
C733 C731 1.390 . S
C733 C734 1.387 . S
C733 H736 0.950 . S
C734 C733 1.387 . S
C734 C737 1.387 . S
H735 C731 0.950 . S
H736 C733 0.950 . S
C737 C728 1.390 . S
C737 H730 0.950 . S
C737 C734 1.387 . S
C738 C739 1.387 . S
C738 H742 0.950 . S
C738 C747 1.390 . S
C739 C738 1.387 . S
C739 C741 1.387 . S
H740 C747 0.950 . S
C741 C739 1.387 . S
C741 C743 1.390 . S
C741 H745 0.950 . S
H742 C738 0.950 . S
C743 C741 1.390 . S
C743 C744 1.387 . S
C743 H746 0.950 1_545 S
C744 C743 1.387 . S
C744 C747 1.387 . S
H745 C741 0.950 . S
H746 C743 0.950 1_565 S
C747 C738 1.390 . S
C747 H740 0.950 . S
C747 C744 1.387 . S
C748 C749 1.387 . S
C748 H752 0.950 . S
C748 C757 1.390 . S
C749 C748 1.387 . S
C749 C751 1.387 . S
H750 C757 0.950 . S
C751 C749 1.387 . S
C751 C753 1.390 . S
C751 H755 0.950 . S
H752 C748 0.950 . S
C753 C751 1.390 . S
C753 C754 1.387 . S
C753 H756 0.950 . S
C754 C753 1.387 . S
C754 C757 1.387 . S
H755 C751 0.950 . S
H756 C753 0.950 . S
C757 C748 1.390 . S
C757 H750 0.950 . S
C757 C754 1.387 . S
C758 C759 1.387 . S
C758 H762 0.950 . S
C758 C767 1.390 . S
C759 C758 1.387 . S
C759 C761 1.387 . S
H760 C767 0.950 . S
C761 C759 1.387 . S
C761 C763 1.390 . S
C761 H765 0.950 . S
H762 C758 0.950 . S
C763 C761 1.390 . S
C763 C764 1.387 . S
C763 H766 0.950 . S
C764 C763 1.387 . S
C764 C767 1.387 . S
H765 C761 0.950 . S
H766 C763 0.950 . S
C767 C758 1.390 . S
C767 H760 0.950 . S
C767 C764 1.387 . S
C768 C769 1.387 1_556 S
C768 H772 0.950 . S
C768 C777 1.390 . S
C769 C768 1.387 1_554 S
C769 C771 1.387 . S
H770 C777 0.950 . S
C771 C769 1.387 . S
C771 C773 1.390 . S
C771 H775 0.950 . S
H772 C768 0.950 . S
C773 C771 1.390 . S
C773 C774 1.387 1_654 S
C773 H776 0.950 1_655 S
C774 C773 1.387 1_456 S
C774 C777 1.387 1_455 S
H775 C771 0.950 . S
H776 C773 0.950 1_455 S
C777 C768 1.390 . S
C777 H770 0.950 . S
C777 C774 1.387 1_655 S
C778 C779 1.387 1_556 S
C778 H782 0.950 . S
C778 C787 1.390 . S
C779 C778 1.387 1_554 S
C779 C781 1.387 . S
H780 C787 0.950 1_545 S
C781 C779 1.387 . S
C781 C783 1.390 . S
C781 H785 0.950 . S
H782 C778 0.950 . S
C783 C781 1.390 . S
C783 C784 1.387 1_564 S
C783 H786 0.950 1_565 S
C784 C783 1.387 1_546 S
C784 C787 1.387 1_545 S
H785 C781 0.950 . S
H786 C783 0.950 1_545 S
C787 C778 1.390 . S
C787 H780 0.950 1_565 S
C787 C784 1.387 1_565 S
C788 C789 1.387 . S
C788 H792 0.950 . S
C788 C797 1.390 . S
C789 C788 1.387 . S
C789 C791 1.387 1_554 S
H790 C797 0.950 . S
C791 C789 1.387 1_556 S
C791 C793 1.390 . S
C791 H795 0.950 . S
H792 C788 0.950 . S
C793 C791 1.390 . S
C793 C794 1.387 . S
C793 H796 0.950 . S
C794 C793 1.387 . S
C794 C797 1.387 1_556 S
H795 C791 0.950 . S
H796 C793 0.950 . S
C797 C788 1.390 . S
C797 H790 0.950 . S
C797 C794 1.387 1_554 S
C798 C799 1.387 . S
C798 H802 0.950 . S
C798 C807 1.390 . S
C799 C798 1.387 . S
C799 C801 1.387 1_554 S
H800 C807 0.950 . S
C801 C799 1.387 1_556 S
C801 C803 1.390 . S
C801 H805 0.950 . S
H802 C798 0.950 . S
C803 C801 1.390 . S
C803 C804 1.387 . S
C803 H806 0.950 . S
C804 C803 1.387 . S
C804 C807 1.387 1_556 S
H805 C801 0.950 . S
H806 C803 0.950 . S
C807 C798 1.390 . S
C807 H800 0.950 . S
C807 C804 1.387 1_554 S
C808 C809 1.387 . S
C808 H812 0.950 . S
C808 C817 1.390 . S
C809 C808 1.387 . S
C809 C811 1.387 . S
H810 C817 0.950 . S
C811 C809 1.387 . S
C811 C813 1.390 . S
C811 H815 0.950 . S
H812 C808 0.950 . S
C813 C811 1.390 . S
C813 C814 1.387 . S
C813 H816 0.950 . S
C814 C813 1.387 . S
C814 C817 1.387 . S
H815 C811 0.950 . S
H816 C813 0.950 . S
C817 C808 1.390 . S
C817 H810 0.950 . S
C817 C814 1.387 . S
C818 C819 1.387 . S
C818 H822 0.950 . S
C818 C827 1.390 . S
C819 C818 1.387 . S
C819 C821 1.387 . S
H820 C827 0.950 . S
C821 C819 1.387 . S
C821 C823 1.390 . S
C821 H825 0.950 . S
H822 C818 0.950 . S
C823 C821 1.390 . S
C823 C824 1.387 . S
C823 H826 0.950 . S
C824 C823 1.387 . S
C824 C827 1.387 . S
H825 C821 0.950 . S
H826 C823 0.950 . S
C827 C818 1.390 . S
C827 H820 0.950 . S
C827 C824 1.387 . S
C828 C829 1.387 . S
C828 H832 0.950 . S
C828 C837 1.390 . S
C829 C828 1.387 . S
C829 C831 1.387 . S
H830 C837 0.950 . S
C831 C829 1.387 . S
C831 C833 1.390 . S
C831 H835 0.950 . S
H832 C828 0.950 . S
C833 C831 1.390 . S
C833 C834 1.387 . S
C833 H836 0.950 . S
C834 C833 1.387 . S
C834 C837 1.387 . S
H835 C831 0.950 . S
H836 C833 0.950 . S
C837 C828 1.390 . S
C837 H830 0.950 . S
C837 C834 1.387 . S
C838 C839 1.387 . S
C838 H842 0.950 . S
C838 C847 1.390 . S
C839 C838 1.387 . S
C839 C841 1.387 . S
H840 C847 0.950 . S
C841 C839 1.387 . S
C841 C843 1.390 . S
C841 H845 0.950 . S
H842 C838 0.950 . S
C843 C841 1.390 . S
C843 C844 1.387 . S
C843 H846 0.950 . S
C844 C843 1.387 . S
C844 C847 1.387 . S
H845 C841 0.950 . S
H846 C843 0.950 . S
C847 C838 1.390 . S
C847 H840 0.950 . S
C847 C844 1.387 . S
C848 C849 1.387 . S
C848 H852 0.950 . S
C848 C857 1.390 . S
C849 C848 1.387 . S
C849 C851 1.387 . S
H850 C857 0.950 . S
C851 C849 1.387 . S
C851 C853 1.390 . S
C851 H855 0.950 . S
H852 C848 0.950 . S
C853 C851 1.390 . S
C853 C854 1.387 . S
C853 H856 0.950 . S
C854 C853 1.387 . S
C854 C857 1.387 . S
H855 C851 0.950 . S
H856 C853 0.950 . S
C857 C848 1.390 . S
C857 H850 0.950 . S
C857 C854 1.387 . S
C858 C859 1.387 . S
C858 H862 0.950 . S
C858 C867 1.390 . S
C859 C858 1.387 . S
C859 C861 1.387 . S
H860 C867 0.950 1_545 S
C861 C859 1.387 . S
C861 C863 1.390 . S
C861 H865 0.950 . S
H862 C858 0.950 . S
C863 C861 1.390 . S
C863 C864 1.387 . S
C863 H866 0.950 . S
C864 C863 1.387 . S
C864 C867 1.387 . S
H865 C861 0.950 . S
H866 C863 0.950 . S
C867 C858 1.390 . S
C867 H860 0.950 1_565 S
C867 C864 1.387 . S
C868 C869 1.387 . S
C868 H872 0.950 . S
C868 C877 1.390 . S
C869 C868 1.387 . S
C869 C871 1.387 . S
H870 C877 0.950 . S
C871 C869 1.387 . S
C871 C873 1.390 . S
C871 H875 0.950 . S
H872 C868 0.950 . S
C873 C871 1.390 . S
C873 C874 1.387 . S
C873 H876 0.950 . S
C874 C873 1.387 . S
C874 C877 1.387 . S
H875 C871 0.950 . S
H876 C873 0.950 . S
C877 C868 1.390 . S
C877 H870 0.950 . S
C877 C874 1.387 . S
C878 C879 1.387 . S
C878 H882 0.950 . S
C878 C887 1.390 . S
C879 C878 1.387 . S
C879 C881 1.387 . S
H880 C887 0.950 . S
C881 C879 1.387 . S
C881 C883 1.390 . S
C881 H885 0.950 . S
H882 C878 0.950 . S
C883 C881 1.390 . S
C883 C884 1.387 . S
C883 H886 0.950 . S
C884 C883 1.387 . S
C884 C887 1.387 . S
H885 C881 0.950 . S
H886 C883 0.950 . S
C887 C878 1.390 . S
C887 H880 0.950 . S
C887 C884 1.387 . S
C649 C255 2.595 . S
C654 C386 2.739 . S
C664 C470 2.756 . S
C659 C294 2.585 . S
C674 C536 2.548 . S
C669 C177 2.671 . S
C684 C620 2.554 . S
C679 C216 2.678 . S
C694 C375 2.738 1_565 S
C689 C99 2.607 . S
C699 C138 2.569 . S
C704 C459 2.755 . S
C709 C21 2.686 . S
C714 C547 2.547 . S
C719 C60 2.692 . S
C724 C631 2.554 . S
C734 C382 1.182 1_455 S
C729 C196 1.007 . S
C744 C466 1.110 1_545 S
C739 C235 0.967 . S
C754 C538 1.096 . S
C749 C289 0.952 . S
C759 C157 0.998 . S
C764 C622 1.168 . S
C769 C40 1.018 . S
C774 C370 1.182 . S
C784 C454 1.110 . S
C779 C79 0.971 . S
C794 C550 1.096 . S
C789 C133 0.958 . S
C799 C1 1.009 . S
C804 C634 1.168 . S
C809 C211 3.036 . S
C814 C379 3.262 . S
C819 C250 3.006 . S
C824 C463 3.231 . S
C834 C543 3.412 . S
C829 C274 2.927 . S
C844 C627 3.430 . S
C839 C172 2.935 . S
C849 C55 3.034 . S
C854 C368 3.265 . S
C864 C452 3.232 . S
C859 C94 3.004 . S
C874 C554 3.412 . S
C869 C118 2.920 . S
C879 C16 2.932 . S
C884 C638 3.430 . S
