# Generated by pormake.
# Topology pyr, (3,6)-cn, num edge types: 1
# Building blocks:
#     Node 0, Type 0, BuildingBlock: BETDAH_clean_linker_0, # of connection points: 3
#     Node 1, Type 0, BuildingBlock: BETDAH_clean_linker_0, # of connection points: 3
#     Node 2, Type 0, BuildingBlock: BETDAH_clean_linker_0, # of connection points: 3
#     Node 3, Type 0, BuildingBlock: BETDAH_clean_linker_0, # of connection points: 3
#     Node 4, Type 0, BuildingBlock: BETDAH_clean_linker_0, # of connection points: 3
#     Node 5, Type 0, BuildingBlock: BETDAH_clean_linker_0, # of connection points: 3
#     Node 6, Type 0, BuildingBlock: BETDAH_clean_linker_0, # of connection points: 3
#     Node 7, Type 0, BuildingBlock: BETDAH_clean_linker_0, # of connection points: 3
#     Node 8, Type 1, BuildingBlock: BETDEL_clean_sbu_0, # of connection points: 6
#     Node 9, Type 1, BuildingBlock: BETDEL_clean_sbu_0, # of connection points: 6
#     Node 10, Type 1, BuildingBlock: BETDEL_clean_sbu_0, # of connection points: 6
#     Node 11, Type 1, BuildingBlock: BETDEL_clean_sbu_0, # of connection points: 6
#     Edge 12, Type (0, 1), BuildingBlock: XIVTED_clean_linker_0, # of connection points: 2
#     Edge 13, Type (0, 1), BuildingBlock: XIVTED_clean_linker_0, # of connection points: 2
#     Edge 14, Type (0, 1), BuildingBlock: XIVTED_clean_linker_0, # of connection points: 2
#     Edge 15, Type (0, 1), BuildingBlock: XIVTED_clean_linker_0, # of connection points: 2
#     Edge 16, Type (0, 1), BuildingBlock: XIVTED_clean_linker_0, # of connection points: 2
#     Edge 17, Type (0, 1), BuildingBlock: XIVTED_clean_linker_0, # of connection points: 2
#     Edge 18, Type (0, 1), BuildingBlock: XIVTED_clean_linker_0, # of connection points: 2
#     Edge 19, Type (0, 1), BuildingBlock: XIVTED_clean_linker_0, # of connection points: 2
#     Edge 20, Type (0, 1), BuildingBlock: XIVTED_clean_linker_0, # of connection points: 2
#     Edge 21, Type (0, 1), BuildingBlock: XIVTED_clean_linker_0, # of connection points: 2
#     Edge 22, Type (0, 1), BuildingBlock: XIVTED_clean_linker_0, # of connection points: 2
#     Edge 23, Type (0, 1), BuildingBlock: XIVTED_clean_linker_0, # of connection points: 2
#     Edge 24, Type (0, 1), BuildingBlock: XIVTED_clean_linker_0, # of connection points: 2
#     Edge 25, Type (0, 1), BuildingBlock: XIVTED_clean_linker_0, # of connection points: 2
#     Edge 26, Type (0, 1), BuildingBlock: XIVTED_clean_linker_0, # of connection points: 2
#     Edge 27, Type (0, 1), BuildingBlock: XIVTED_clean_linker_0, # of connection points: 2
#     Edge 28, Type (0, 1), BuildingBlock: XIVTED_clean_linker_0, # of connection points: 2
#     Edge 29, Type (0, 1), BuildingBlock: XIVTED_clean_linker_0, # of connection points: 2
#     Edge 30, Type (0, 1), BuildingBlock: XIVTED_clean_linker_0, # of connection points: 2
#     Edge 31, Type (0, 1), BuildingBlock: XIVTED_clean_linker_0, # of connection points: 2
#     Edge 32, Type (0, 1), BuildingBlock: XIVTED_clean_linker_0, # of connection points: 2
#     Edge 33, Type (0, 1), BuildingBlock: XIVTED_clean_linker_0, # of connection points: 2
#     Edge 34, Type (0, 1), BuildingBlock: XIVTED_clean_linker_0, # of connection points: 2
#     Edge 35, Type (0, 1), BuildingBlock: XIVTED_clean_linker_0, # of connection points: 2
# Relax obj value: 0.072
# Max RMSD: 0.185
# Mean RMSD: 0.133
data_MOF--net-pyr--node1-BETDEL_clean_sbu_0--node2-BETDAH_clean_linker_0--edge1-XIVTED_clean_linker_0
_symmetry_space_group_name_H-M    P1
_symmetry_Int_Tables_number       1
_symmetry_cell_setting            triclinic
loop_
_symmetry_equiv_pos_as_xyz
'x, y, z'
_cell_length_a     35.911931
_cell_length_b     38.348655
_cell_length_c     36.584372
_cell_angle_alpha  92.396924
_cell_angle_beta   90.197546
_cell_angle_gamma 101.71571
loop_
_atom_site_label
_atom_site_type_symbol
_atom_site_fract_x
_atom_site_fract_y
_atom_site_fract_z
_atom_type_partial_charge
H0 H 0.24546 0.16076 0.23554 0.0
H1 H 0.28161 0.24376 0.16045 0.0
H2 H 0.18857 0.24948 0.23239 0.0
C3 C 0.24254 0.18585 0.2244 0.0
C4 C 0.21427 0.2035 0.23775 0.0
C5 C 0.26638 0.19984 0.19607 0.0
C6 C 0.26267 0.23224 0.18176 0.0
C7 C 0.23455 0.24993 0.19433 0.0
C8 C 0.20982 0.23533 0.22201 0.0
N9 N 0.23338 0.28326 0.17971 0.0
C10 C 0.20021 0.29542 0.1735 0.0
H11 H 0.35356 0.82425 0.75078 0.0
H12 H 0.28104 0.896 0.72096 0.0
H13 H 0.31899 0.82833 0.63905 0.0
C14 C 0.33688 0.83459 0.7307 0.0
C15 C 0.33758 0.82235 0.69413 0.0
C16 C 0.31705 0.8616 0.7409 0.0
C17 C 0.29661 0.87534 0.71379 0.0
C18 C 0.29762 0.86333 0.67702 0.0
C19 C 0.31837 0.83731 0.6675 0.0
N20 N 0.28007 0.87802 0.64832 0.0
C21 C 0.24844 0.89349 0.65172 0.0
H22 H 0.70092 0.34482 0.94236 0.0
H23 H 0.67647 0.43745 0.89149 0.0
H24 H 0.58819 0.34508 0.90278 0.0
C25 C 0.68129 0.35827 0.92888 0.0
C26 C 0.64355 0.34026 0.92272 0.0
C27 C 0.6936 0.39356 0.91802 0.0
C28 C 0.66757 0.41044 0.90033 0.0
C29 C 0.62957 0.39282 0.89505 0.0
C30 C 0.61775 0.35818 0.90665 0.0
N31 N 0.60203 0.4098 0.87977 0.0
C32 C 0.60842 0.4304 0.84926 0.0
H33 H 0.80534 0.72536 0.44611 0.0
H34 H 0.90835 0.72129 0.38765 0.0
H35 H 0.82496 0.62542 0.40106 0.0
C36 C 0.82299 0.71042 0.43057 0.0
C37 C 0.8108 0.67344 0.42507 0.0
C38 C 0.8582 0.72811 0.41747 0.0
C39 C 0.88049 0.70848 0.39693 0.0
C40 C 0.8681 0.67162 0.39051 0.0
C41 C 0.83337 0.65416 0.40459 0.0
N42 N 0.89299 0.65135 0.3746 0.0
C43 C 0.8946 0.64546 0.33707 0.0
H44 H 0.91305 0.86179 0.87867 0.0
H45 H 0.81489 0.81383 0.93991 0.0
H46 H 0.80521 0.89087 0.86059 0.0
C47 C 0.88333 0.85932 0.88556 0.0
C48 C 0.86103 0.87887 0.86659 0.0
C49 C 0.86708 0.83568 0.91223 0.0
C50 C 0.82832 0.83253 0.92016 0.0
C51 C 0.80626 0.853 0.90253 0.0
C52 C 0.82255 0.87602 0.87544 0.0
N53 N 0.76735 0.84866 0.91163 0.0
C54 C 0.74746 0.87608 0.911 0.0
H55 H 0.76139 0.15717 0.35084 0.0
H56 H 0.78252 0.22984 0.44462 0.0
H57 H 0.713 0.25162 0.35639 0.0
C58 C 0.75783 0.18176 0.36476 0.0
C59 C 0.73523 0.20334 0.34881 0.0
C60 C 0.7746 0.19094 0.39945 0.0
C61 C 0.7693 0.22222 0.41799 0.0
C62 C 0.7468 0.24378 0.40296 0.0
C63 C 0.72969 0.23437 0.36837 0.0
N64 N 0.74276 0.275 0.42341 0.0
C65 C 0.71381 0.29353 0.41853 0.0
H66 H 0.33495 0.75293 0.14899 0.0
H67 H 0.34802 0.67952 0.23179 0.0
H68 H 0.43949 0.76711 0.21055 0.0
C69 C 0.35181 0.74474 0.17043 0.0
C70 C 0.3889 0.76392 0.17739 0.0
C71 C 0.33675 0.71427 0.18989 0.0
C72 C 0.3594 0.70293 0.21667 0.0
C73 C 0.39662 0.72212 0.22391 0.0
C74 C 0.41097 0.75232 0.20428 0.0
N75 N 0.42086 0.71213 0.2505 0.0
C76 C 0.41065 0.68483 0.27454 0.0
H77 H 0.19366 0.36444 0.64001 0.0
H78 H 0.17939 0.4574 0.70422 0.0
H79 H 0.0926 0.36203 0.70327 0.0
C80 C 0.17696 0.37746 0.65877 0.0
C81 C 0.14188 0.35857 0.67072 0.0
C82 C 0.19065 0.41317 0.67033 0.0
C83 C 0.16961 0.42965 0.69565 0.0
C84 C 0.13426 0.41093 0.70756 0.0
C85 C 0.12049 0.37571 0.69487 0.0
N86 N 0.1099 0.4283 0.72853 0.0
C87 C 0.11942 0.44366 0.76316 0.0
Dy88 Dy 0.02541 0.0534 0.50251 0.0
C89 C 0.9724 0.00026 0.64419 0.0
C90 C 0.06036 0.08682 0.44385 0.0
Dy91 Dy 0.98782 0.03157 0.57905 0.0
O92 O 0.0772 0.08038 0.47351 0.0
O93 O 0.0238 0.07472 0.44585 0.0
O94 O 0.05749 0.00942 0.50723 0.0
O95 O 0.04406 0.03646 0.55498 0.0
C96 C 0.05843 0.01103 0.54274 0.0
C97 C 0.94088 0.06085 0.53774 0.0
O98 O 0.02617 0.08335 0.59501 0.0
O99 O 0.03576 0.10468 0.53633 0.0
O100 O 0.9792 0.98385 0.6139 0.0
O101 O 0.9746 0.03397 0.63906 0.0
O102 O 0.93228 0.04977 0.57034 0.0
O103 O 0.97333 0.05539 0.53042 0.0
O104 O 0.98294 0.00488 0.48417 0.0
O105 O 0.97224 0.98224 0.54243 0.0
C106 C 0.03803 0.10942 0.57249 0.0
C107 C 0.9689 0.97883 0.50616 0.0
Dy108 Dy 0.54506 0.06511 0.06976 0.0
C109 C 0.4263 0.98659 0.9692 0.0
C110 C 0.595 0.1073 0.11775 0.0
Dy111 Dy 0.48199 0.03004 0.00991 0.0
O112 O 0.5985 0.07634 0.10421 0.0
O113 O 0.56451 0.11564 0.10449 0.0
O114 O 0.54563 0.01102 0.09022 0.0
O115 O 0.49575 0.02058 0.06652 0.0
C116 C 0.51166 0.99685 0.07832 0.0
C117 C 0.52263 0.09312 0.98869 0.0
O118 O 0.4467 0.05348 0.05046 0.0
O119 O 0.49414 0.08572 0.08986 0.0
O120 O 0.42816 0.02032 0.97663 0.0
O121 O 0.4547 0.97622 0.98468 0.0
O122 O 0.49555 0.07359 0.96891 0.0
O123 O 0.52564 0.07724 0.01738 0.0
O124 O 0.57962 0.05165 0.02226 0.0
O125 O 0.53263 0.00705 0.99509 0.0
C126 C 0.45817 0.0765 0.07833 0.0
C127 C 0.56879 0.0233 0.99962 0.0
Dy128 Dy 0.51235 0.50714 0.53009 0.0
C129 C 0.4635 0.62541 0.60485 0.0
C130 C 0.54797 0.45893 0.49519 0.0
Dy131 Dy 0.49405 0.5724 0.57277 0.0
O132 O 0.51634 0.45086 0.51296 0.0
O133 O 0.56007 0.49323 0.49655 0.0
O134 O 0.45018 0.48247 0.52652 0.0
O135 O 0.472 0.51535 0.57239 0.0
C136 C 0.4421 0.49834 0.55672 0.0
C137 C 0.56431 0.5807 0.54611 0.0
O138 O 0.51583 0.54654 0.6193 0.0
O139 O 0.54286 0.50637 0.5841 0.0
O140 O 0.49059 0.6299 0.5811 0.0
O141 O 0.45291 0.59178 0.61125 0.0
O142 O 0.55642 0.59607 0.57662 0.0
O143 O 0.53423 0.56419 0.53042 0.0
O144 O 0.49053 0.53393 0.48401 0.0
O145 O 0.46048 0.57073 0.52041 0.0
C146 C 0.53746 0.52242 0.61602 0.0
C147 C 0.46721 0.55652 0.48799 0.0
Dy148 Dy 0.02169 0.51895 0.06318 0.0
C149 C 0.99145 0.65087 0.01588 0.0
C150 C 0.04512 0.45891 0.08282 0.0
Dy151 Dy 0.01371 0.59014 0.03506 0.0
O152 O 0.02803 0.47838 0.10407 0.0
O153 O 0.04928 0.47208 0.05061 0.0
O154 O 0.97041 0.51855 0.09783 0.0
O155 O 0.00751 0.56717 0.08849 0.0
C156 C 0.97661 0.55299 0.10294 0.0
C157 C 0.05856 0.55587 0.99495 0.0
O158 O 0.06056 0.60948 0.07541 0.0
O159 O 0.07782 0.55473 0.07932 0.0
O160 O 0.01614 0.63618 0.99864 0.0
O161 O 0.97887 0.63249 0.04391 0.0
O162 O 0.06463 0.59029 0.99982 0.0
O163 O 0.02775 0.54192 0.00969 0.0
O164 O 0.97253 0.49904 0.02536 0.0
O165 O 0.95817 0.55459 0.0171 0.0
C166 C 0.08478 0.5898 0.08561 0.0
C167 C 0.94965 0.51926 0.01333 0.0
H168 H 0.2386 0.18014 0.30089 0.0
H169 H 0.03109 0.10624 0.3797 0.0
H170 H 0.13659 0.19382 0.24561 0.0
H171 H 0.1363 0.10966 0.4383 0.0
H172 H 0.06767 0.13701 0.32937 0.0
H173 H 0.2002 0.15299 0.35081 0.0
C174 C 0.208 0.17736 0.29929 0.0
C175 C 0.19071 0.18895 0.26895 0.0
C176 C 0.08261 0.13107 0.35334 0.0
C177 C 0.14628 0.15785 0.32626 0.0
C178 C 0.0618 0.11348 0.38193 0.0
C179 C 0.08078 0.10534 0.41304 0.0
C180 C 0.12253 0.14027 0.35606 0.0
C181 C 0.12052 0.11533 0.41476 0.0
C182 C 0.18603 0.16197 0.3279 0.0
C183 C 0.15098 0.18526 0.26861 0.0
N184 N 0.14 0.13212 0.38669 0.0
N185 N 0.12999 0.16975 0.29676 0.0
H186 H 0.32123 0.82785 0.80547 0.0
H187 H 0.37508 0.00969 0.9263 0.0
H188 H 0.32299 0.93184 0.76355 0.0
H189 H 0.41808 0.91567 0.94943 0.0
H190 H 0.33893 0.97719 0.87431 0.0
H191 H 0.34019 0.85614 0.86567 0.0
C192 C 0.32521 0.85656 0.80888 0.0
C193 C 0.32121 0.87748 0.77898 0.0
C194 C 0.35585 0.96354 0.89109 0.0
C195 C 0.34199 0.90978 0.84814 0.0
C196 C 0.37636 0.98198 0.92082 0.0
C197 C 0.39989 0.96538 0.94186 0.0
C198 C 0.35862 0.92816 0.88258 0.0
C199 C 0.40047 0.92946 0.93365 0.0
C200 C 0.33587 0.8726 0.84332 0.0
C201 C 0.32556 0.91447 0.78557 0.0
N202 N 0.38032 0.91205 0.90441 0.0
N203 N 0.33603 0.92944 0.81933 0.0
H204 H 0.59231 0.49533 0.84155 0.0
H205 H 0.57748 0.46909 0.62329 0.0
H206 H 0.62235 0.40628 0.78145 0.0
H207 H 0.53772 0.55237 0.68532 0.0
H208 H 0.60247 0.45036 0.67987 0.0
H209 H 0.5813 0.52169 0.78356 0.0
C210 C 0.59733 0.4818 0.81599 0.0
C211 C 0.60836 0.44889 0.81585 0.0
C212 C 0.58849 0.47289 0.68102 0.0
C213 C 0.5951 0.47812 0.74972 0.0
C214 C 0.57421 0.48362 0.64871 0.0
C215 C 0.55506 0.51213 0.64953 0.0
C216 C 0.58368 0.49082 0.71441 0.0
C217 C 0.55189 0.53001 0.68332 0.0
C218 C 0.59083 0.49664 0.78295 0.0
C219 C 0.61406 0.43192 0.78235 0.0
N220 N 0.56584 0.51894 0.71437 0.0
N221 N 0.60707 0.44661 0.7505 0.0
H222 H 0.8558 0.5881 0.29864 0.0
H223 H 0.99567 0.62244 0.12836 0.0
H224 H 0.94386 0.68199 0.28995 0.0
H225 H 0.91488 0.52429 0.14289 0.0
H226 H 0.96952 0.64911 0.18187 0.0
H227 H 0.86951 0.56871 0.23628 0.0
C228 C 0.87761 0.60485 0.28318 0.0
C229 C 0.89886 0.63651 0.29897 0.0
C230 C 0.95723 0.62187 0.17312 0.0
C231 C 0.91513 0.61455 0.22829 0.0
C232 C 0.97208 0.60668 0.14256 0.0
C233 C 0.95774 0.57097 0.13163 0.0
C234 C 0.92786 0.60115 0.19282 0.0
C235 C 0.92702 0.5518 0.15073 0.0
C236 C 0.88553 0.5938 0.24774 0.0
C237 C 0.92695 0.65736 0.27835 0.0
N238 N 0.91336 0.56701 0.18064 0.0
N239 N 0.93455 0.64586 0.24405 0.0
H240 H 0.32077 0.17324 0.23231 0.0
H241 H 0.38759 0.07957 0.05287 0.0
H242 H 0.27557 0.18216 0.12452 0.0
H243 H 0.46258 0.11064 0.14633 0.0
H244 H 0.34049 0.10827 0.08274 0.0
H245 H 0.36779 0.14172 0.20485 0.0
C246 C 0.32072 0.16838 0.20293 0.0
C247 C 0.29453 0.18032 0.18052 0.0
C248 C 0.36723 0.10875 0.09673 0.0
C249 C 0.34748 0.14431 0.14925 0.0
C250 C 0.39409 0.09222 0.07981 0.0
C251 C 0.42915 0.09278 0.09711 0.0
C252 C 0.37517 0.12561 0.13144 0.0
C253 C 0.43599 0.10977 0.13195 0.0
C254 C 0.34755 0.15065 0.18733 0.0
C255 C 0.29557 0.17361 0.14263 0.0
N256 N 0.40913 0.12546 0.1481 0.0
N257 N 0.3215 0.15588 0.12819 0.0
H258 H 0.23352 0.95722 0.6763 0.0
H259 H 0.07657 0.94787 0.52281 0.0
H260 H 0.18807 0.86156 0.61154 0.0
H261 H 0.08833 0.02651 0.61208 0.0
H262 H 0.11737 0.91591 0.55589 0.0
H263 H 0.18054 0.98356 0.65509 0.0
C264 C 0.21181 0.94157 0.65832 0.0
C265 C 0.21465 0.90729 0.64562 0.0
C266 C 0.11072 0.9399 0.56855 0.0
C267 C 0.15516 0.93715 0.6207 0.0
C268 C 0.08753 0.95818 0.54961 0.0
C269 C 0.07941 0.9899 0.5647 0.0
C270 C 0.12661 0.95385 0.60254 0.0
C271 C 0.09409 0.0021 0.59957 0.0
C272 C 0.18174 0.95654 0.64618 0.0
C273 C 0.18648 0.88807 0.62198 0.0
N274 N 0.11759 0.98434 0.61715 0.0
N275 N 0.15813 0.90342 0.60989 0.0
H276 H 0.75992 0.36815 0.91489 0.0
H277 H 0.89056 0.55023 0.99387 0.0
H278 H 0.71731 0.46352 0.9415 0.0
H279 H 0.92556 0.44888 0.99176 0.0
H280 H 0.82953 0.52075 0.96657 0.0
H281 H 0.82336 0.39935 0.93498 0.0
C282 C 0.76385 0.39565 0.9249 0.0
C283 C 0.73303 0.41309 0.92679 0.0
C284 C 0.85063 0.505 0.97198 0.0
C285 C 0.80579 0.44908 0.94939 0.0
C286 C 0.88554 0.52181 0.98751 0.0
C287 C 0.9132 0.50197 0.99536 0.0
C288 C 0.84333 0.4681 0.96399 0.0
C289 C 0.90502 0.46521 0.98645 0.0
C290 C 0.80013 0.41347 0.93623 0.0
C291 C 0.74015 0.44902 0.9392 0.0
N292 N 0.87081 0.44946 0.97129 0.0
N293 N 0.77572 0.46575 0.95017 0.0
H294 H 0.79258 0.68195 0.49639 0.0
H295 H 0.58281 0.5633 0.47599 0.0
H296 H 0.751 0.623 0.39648 0.0
H297 H 0.6309 0.61623 0.57678 0.0
H298 H 0.64475 0.58128 0.44681 0.0
H299 H 0.73425 0.65495 0.52672 0.0
C300 C 0.77101 0.66327 0.48083 0.0
C301 C 0.77628 0.65507 0.44375 0.0
C302 C 0.64181 0.58865 0.47539 0.0
C303 C 0.70927 0.62383 0.47836 0.0
C304 C 0.60655 0.57833 0.49206 0.0
C305 C 0.60184 0.58849 0.52876 0.0
C306 C 0.67236 0.6094 0.49562 0.0
C307 C 0.63331 0.60809 0.54834 0.0
C308 C 0.73777 0.64769 0.49821 0.0
C309 C 0.74786 0.63009 0.4251 0.0
N310 N 0.66714 0.6181 0.53146 0.0
N311 N 0.7153 0.61558 0.44252 0.0
H312 H 0.15424 0.32824 0.21531 0.0
H313 H 0.08193 0.41584 0.04156 0.0
H314 H 0.17897 0.30026 0.10408 0.0
H315 H 0.04463 0.43384 0.15141 0.0
H316 H 0.11362 0.3698 0.06352 0.0
H317 H 0.10957 0.36335 0.19252 0.0
C318 C 0.14958 0.32905 0.1861 0.0
C319 C 0.16985 0.31156 0.16135 0.0
C320 C 0.09816 0.38352 0.0828 0.0
C321 C 0.11992 0.35183 0.1351 0.0
C322 C 0.08012 0.40978 0.07024 0.0
C323 C 0.06097 0.42873 0.0948 0.0
C324 C 0.09732 0.37647 0.12024 0.0
C325 C 0.05932 0.41988 0.13165 0.0
C326 C 0.12429 0.34909 0.17307 0.0
C327 C 0.16351 0.31346 0.12384 0.0
N328 N 0.07763 0.39462 0.14335 0.0
N329 N 0.13932 0.33357 0.11178 0.0
H330 H 0.65741 0.30847 0.98616 0.0
H331 H 0.52007 0.12384 0.92404 0.0
H332 H 0.60061 0.28633 0.88114 0.0
H333 H 0.57533 0.14113 0.02998 0.0
H334 H 0.55349 0.18249 0.90718 0.0
H335 H 0.63198 0.24662 0.0021 0.0
C336 C 0.6399 0.29051 0.96638 0.0
C337 C 0.6307 0.3026 0.93244 0.0
C338 C 0.55857 0.17361 0.93411 0.0
C339 C 0.60154 0.2322 0.95045 0.0
C340 C 0.53944 0.14007 0.94374 0.0
C341 C 0.54482 0.12787 0.9785 0.0
C342 C 0.58316 0.19539 0.95953 0.0
C343 C 0.57038 0.1498 0.00293 0.0
C344 C 0.6253 0.25532 0.97553 0.0
C345 C 0.6078 0.27834 0.90786 0.0
N346 N 0.58851 0.18276 0.99306 0.0
N347 N 0.59393 0.24444 0.91742 0.0
H348 H 0.85376 0.75988 0.48481 0.0
H349 H 0.96818 0.9532 0.43443 0.0
H350 H 0.89716 0.78256 0.3766 0.0
H351 H 0.92662 0.92382 0.5418 0.0
H352 H 0.93982 0.89265 0.4108 0.0
H353 H 0.87778 0.82154 0.50422 0.0
C354 C 0.868 0.77798 0.46492 0.0
C355 C 0.87301 0.76605 0.42885 0.0
C356 C 0.93687 0.89965 0.43947 0.0
C357 C 0.90159 0.83712 0.4513 0.0
C358 C 0.95289 0.9342 0.45295 0.0
C359 C 0.95001 0.94357 0.49022 0.0
C360 C 0.91776 0.87454 0.46347 0.0
C361 C 0.92996 0.91785 0.51296 0.0
C362 C 0.88202 0.81327 0.47615 0.0
C363 C 0.89275 0.79063 0.40469 0.0
N364 N 0.91476 0.88464 0.49925 0.0
N365 N 0.90635 0.82511 0.41635 0.0
H366 H 0.38783 0.82305 0.63826 0.0
H367 H 0.40894 0.62134 0.65751 0.0
H368 H 0.33605 0.75848 0.72548 0.0
H369 H 0.4799 0.69523 0.58851 0.0
H370 H 0.38019 0.67021 0.68194 0.0
H371 H 0.42032 0.77552 0.61853 0.0
C372 C 0.38336 0.7988 0.65325 0.0
C373 C 0.35909 0.79452 0.68337 0.0
C374 C 0.40221 0.67572 0.66161 0.0
C375 C 0.39607 0.73997 0.66097 0.0
C376 C 0.41851 0.64787 0.64765 0.0
C377 C 0.44667 0.65437 0.62094 0.0
C378 C 0.41399 0.71008 0.64842 0.0
C379 C 0.45819 0.68913 0.60905 0.0
C380 C 0.40203 0.77175 0.64211 0.0
C381 C 0.35466 0.76281 0.70218 0.0
N382 N 0.44164 0.71565 0.62271 0.0
N383 N 0.37274 0.73655 0.69047 0.0
H384 H 0.91957 0.93697 0.86674 0.0
H385 H 0.94407 0.92971 0.65178 0.0
H386 H 0.8399 0.86623 0.79536 0.0
H387 H 0.97019 0.03042 0.71303 0.0
H388 H 0.91679 0.90099 0.70694 0.0
H389 H 0.9487 0.96769 0.81283 0.0
C390 C 0.90816 0.92819 0.8397 0.0
C391 C 0.87722 0.89942 0.83519 0.0
C392 C 0.92868 0.92934 0.70827 0.0
C393 C 0.91078 0.93329 0.77403 0.0
C394 C 0.94445 0.94566 0.67699 0.0
C395 C 0.95923 0.98243 0.67801 0.0
C396 C 0.92846 0.94984 0.74092 0.0
C397 C 0.9589 0.00198 0.71124 0.0
C398 C 0.92469 0.94559 0.80914 0.0
C399 C 0.86349 0.88862 0.79977 0.0
N400 N 0.94388 0.98539 0.74158 0.0
N401 N 0.88064 0.90532 0.77043 0.0
H402 H 0.76433 0.17256 0.28902 0.0
H403 H 0.58093 0.1629 0.16108 0.0
H404 H 0.66461 0.21076 0.32454 0.0
H405 H 0.66272 0.0959 0.14315 0.0
H406 H 0.61715 0.19008 0.21567 0.0
H407 H 0.73269 0.15296 0.23039 0.0
C408 C 0.73577 0.17679 0.28464 0.0
C409 C 0.71706 0.19308 0.31213 0.0
C410 C 0.62732 0.16965 0.19958 0.0
C411 C 0.681 0.17133 0.24449 0.0
C412 C 0.60683 0.15432 0.16835 0.0
C413 C 0.61885 0.12706 0.14777 0.0
C414 C 0.66022 0.15785 0.20997 0.0
C415 C 0.65245 0.11677 0.1584 0.0
C416 C 0.71784 0.16577 0.251 0.0
C417 C 0.68041 0.19867 0.30422 0.0
N418 N 0.67193 0.13211 0.18883 0.0
N419 N 0.66357 0.18774 0.2712 0.0
H420 H 0.3777 0.68859 0.34032 0.0
H421 H 0.47629 0.53672 0.41611 0.0
H422 H 0.43769 0.62426 0.27266 0.0
H423 H 0.41926 0.60361 0.48443 0.0
H424 H 0.45377 0.5619 0.36208 0.0
H425 H 0.38347 0.65109 0.39194 0.0
C426 C 0.39126 0.66595 0.33626 0.0
C427 C 0.40713 0.65914 0.30253 0.0
C428 C 0.44585 0.5708 0.38889 0.0
C429 C 0.41476 0.61685 0.36119 0.0
C430 C 0.45871 0.55641 0.41981 0.0
C431 C 0.45013 0.56839 0.45497 0.0
C432 C 0.42435 0.59747 0.39308 0.0
C433 C 0.42697 0.5938 0.45794 0.0
C434 C 0.39479 0.64471 0.36567 0.0
C435 C 0.42493 0.63002 0.29841 0.0
N436 N 0.41524 0.60774 0.42743 0.0
N437 N 0.42864 0.61008 0.32756 0.0
H438 H 0.09583 0.40748 0.82281 0.0
H439 H 0.11502 0.5857 0.94929 0.0
H440 H 0.14627 0.51195 0.7871 0.0
H441 H 0.0433 0.4851 0.97407 0.0
H442 H 0.13866 0.55683 0.89576 0.0
H443 H 0.08876 0.4333 0.88424 0.0
C444 C 0.10616 0.4358 0.8283 0.0
C445 C 0.12167 0.4578 0.80033 0.0
C446 C 0.11809 0.54099 0.91316 0.0
C447 C 0.11316 0.48756 0.86985 0.0
C448 C 0.10466 0.55741 0.94374 0.0
C449 C 0.07683 0.53779 0.96581 0.0
C450 C 0.1037 0.50468 0.90474 0.0
C451 C 0.06455 0.50122 0.95756 0.0
C452 C 0.10194 0.45054 0.86318 0.0
C453 C 0.13431 0.49427 0.80829 0.0
N454 N 0.07783 0.48589 0.92749 0.0
N455 N 0.1295 0.50816 0.84236 0.0
H456 H 0.67833 0.87457 0.88137 0.0
H457 H 0.64644 0.04026 0.00901 0.0
H458 H 0.76543 0.93759 0.95139 0.0
H459 H 0.55762 0.97093 0.94535 0.0
H460 H 0.693 0.00933 0.98077 0.0
H461 H 0.63641 0.91603 0.89676 0.0
C462 C 0.68873 0.89762 0.89946 0.0
C463 C 0.72504 0.90302 0.91522 0.0
C464 C 0.66336 0.00116 0.97274 0.0
C465 C 0.6775 0.94997 0.93353 0.0
C466 C 0.63676 0.01886 0.9888 0.0
C467 C 0.59797 0.00788 0.97993 0.0
C468 C 0.65107 0.97234 0.94761 0.0
C469 C 0.58714 0.98004 0.95344 0.0
C470 C 0.66487 0.92116 0.9084 0.0
C471 C 0.73745 0.93285 0.93873 0.0
N472 N 0.61348 0.96308 0.93847 0.0
N473 N 0.71354 0.95515 0.94749 0.0
H474 H 0.7656 0.16628 0.46802 0.0
H475 H 0.95387 0.08513 0.46817 0.0
H476 H 0.83401 0.16306 0.37181 0.0
H477 H 0.87163 0.0737 0.55469 0.0
H478 H 0.91171 0.11385 0.43177 0.0
H479 H 0.8051 0.13222 0.49975 0.0
C480 C 0.78897 0.15823 0.45357 0.0
C481 C 0.79678 0.16767 0.41739 0.0
C482 C 0.90289 0.10485 0.45864 0.0
C483 C 0.84246 0.12874 0.45359 0.0
C484 C 0.92694 0.08858 0.47938 0.0
C485 C 0.91622 0.07727 0.51447 0.0
C486 C 0.86813 0.10989 0.47337 0.0
C487 C 0.88106 0.08219 0.5278 0.0
C488 C 0.8115 0.1387 0.47164 0.0
C489 C 0.82709 0.1562 0.39973 0.0
N490 N 0.85841 0.09825 0.50735 0.0
N491 N 0.84916 0.13759 0.41815 0.0
H492 H 0.31192 0.64186 0.18021 0.0
H493 H 0.10663 0.6601 0.10752 0.0
H494 H 0.27285 0.74105 0.17916 0.0
H495 H 0.14382 0.55985 0.10805 0.0
H496 H 0.16592 0.68923 0.13787 0.0
H497 H 0.24884 0.61025 0.15883 0.0
C498 C 0.28991 0.6569 0.17599 0.0
C499 C 0.29772 0.69416 0.18108 0.0
C500 C 0.16111 0.66083 0.13149 0.0
C501 C 0.22579 0.65833 0.15621 0.0
C502 C 0.12723 0.64415 0.11405 0.0
C503 C 0.12029 0.60748 0.10494 0.0
C504 C 0.18848 0.6408 0.13985 0.0
C505 C 0.14801 0.58821 0.11439 0.0
C506 C 0.25401 0.6389 0.16355 0.0
C507 C 0.26824 0.71237 0.17494 0.0
N508 N 0.18098 0.60515 0.13116 0.0
N509 N 0.23373 0.69433 0.16261 0.0
H510 H 0.20611 0.41674 0.59796 0.0
H511 H 0.42298 0.51738 0.62613 0.0
H512 H 0.2541 0.45491 0.70391 0.0
H513 H 0.37505 0.46523 0.52495 0.0
H514 H 0.35991 0.50276 0.65398 0.0
H515 H 0.26596 0.44299 0.56969 0.0
C516 C 0.22935 0.43088 0.61525 0.0
C517 C 0.22547 0.43317 0.65336 0.0
C518 C 0.36319 0.49477 0.62562 0.0
C519 C 0.29433 0.46327 0.62117 0.0
C520 C 0.39909 0.50314 0.60972 0.0
C521 C 0.40413 0.49218 0.5733 0.0
C522 C 0.33225 0.4755 0.60482 0.0
C523 C 0.37239 0.47387 0.55321 0.0
C524 C 0.26352 0.44589 0.59911 0.0
C525 C 0.25611 0.45244 0.67443 0.0
N526 N 0.33787 0.46599 0.56927 0.0
N527 N 0.28954 0.46644 0.65808 0.0
H528 H 0.86491 0.81679 0.98394 0.0
H529 H 0.01275 0.68791 0.95511 0.0
H530 H 0.9206 0.80186 0.88171 0.0
H531 H 0.93872 0.68426 0.04809 0.0
H532 H 0.98627 0.73661 0.93184 0.0
H533 H 0.89836 0.77476 0.01157 0.0
C534 C 0.88422 0.80477 0.9673 0.0
C535 C 0.8897 0.81273 0.93032 0.0
C536 C 0.97593 0.72532 0.95743 0.0
C537 C 0.92842 0.76498 0.96197 0.0
C538 C 0.99109 0.6976 0.97076 0.0
C539 C 0.97766 0.682 0.0034 0.0
C540 C 0.94718 0.73758 0.97696 0.0
C541 C 0.94968 0.69556 0.0227 0.0
C542 C 0.9034 0.7809 0.98316 0.0
C543 C 0.91571 0.7969 0.91037 0.0
N544 N 0.9352 0.72254 0.00908 0.0
N545 N 0.93394 0.77368 0.92641 0.0
H546 H 0.35309 0.81721 0.15709 0.0
H547 H 0.54502 0.94259 0.096 0.0
H548 H 0.46083 0.78393 0.15054 0.0
H549 H 0.43508 0.96804 0.07752 0.0
H550 H 0.51388 0.8836 0.11465 0.0
H551 H 0.38134 0.87175 0.12656 0.0
C552 C 0.38254 0.82114 0.14888 0.0
C553 C 0.40474 0.79609 0.15681 0.0
C554 C 0.49644 0.90186 0.10621 0.0
C555 C 0.43729 0.85861 0.12229 0.0
C556 C 0.51423 0.93555 0.09562 0.0
C557 C 0.49252 0.96017 0.08559 0.0
C558 C 0.45657 0.89284 0.10731 0.0
C559 C 0.45276 0.94972 0.08525 0.0
C560 C 0.39866 0.85233 0.13155 0.0
C561 C 0.44285 0.80282 0.1458 0.0
N562 N 0.43596 0.9169 0.09647 0.0
N563 N 0.45794 0.8335 0.12941 0.0
H564 H 0.14281 0.33235 0.60022 0.0
H565 H 0.04255 0.13282 0.64473 0.0
H566 H 0.10658 0.30086 0.70845 0.0
H567 H 0.07026 0.16855 0.53584 0.0
H568 H 0.06819 0.19326 0.66931 0.0
H569 H 0.11873 0.27147 0.57688 0.0
C570 C 0.12999 0.31252 0.61914 0.0
C571 C 0.12687 0.32163 0.65638 0.0
C572 C 0.06863 0.1878 0.64005 0.0
C573 C 0.09879 0.25181 0.62974 0.0
C574 C 0.05408 0.15329 0.62598 0.0
C575 C 0.05414 0.14555 0.58812 0.0
C576 C 0.08347 0.21472 0.6161 0.0
C577 C 0.06945 0.17319 0.56519 0.0
C578 C 0.11602 0.27778 0.60575 0.0
C579 C 0.10931 0.29499 0.6795 0.0
N580 N 0.08346 0.20649 0.57955 0.0
N581 N 0.09599 0.26122 0.66581 0.0
H582 H 0.72242 0.36146 0.39858 0.0
H583 H 0.52837 0.38618 0.49383 0.0
H584 H 0.64225 0.27533 0.44364 0.0
H585 H 0.61388 0.47305 0.45694 0.0
H586 H 0.56518 0.34395 0.46809 0.0
H587 H 0.67828 0.40143 0.41144 0.0
C588 C 0.69506 0.35092 0.41048 0.0
C589 C 0.68556 0.31531 0.41997 0.0
C590 C 0.57576 0.37223 0.46538 0.0
C591 C 0.63546 0.36064 0.43555 0.0
C592 C 0.55476 0.3963 0.48005 0.0
C593 C 0.56834 0.43307 0.47771 0.0
C594 C 0.61054 0.38511 0.44827 0.0
C595 C 0.60257 0.44486 0.45951 0.0
C596 C 0.67001 0.37368 0.41806 0.0
C597 C 0.65023 0.30274 0.43579 0.0
N598 N 0.62262 0.42096 0.44567 0.0
N599 N 0.62648 0.32549 0.44339 0.0
loop_
_geom_bond_atom_site_label_1
_geom_bond_atom_site_label_2
_geom_bond_distance
_geom_bond_site_symmetry_2
_ccdc_geom_bond_type
H0 C3 0.929 . S
H1 C6 0.929 . S
H2 C8 0.930 . S
C3 H0 0.929 . S
C3 C4 1.398 . S
C3 C5 1.396 . S
C4 C3 1.398 . S
C4 C8 1.407 . S
C5 C3 1.396 . S
C5 C6 1.394 . S
C6 H1 0.929 . S
C6 C5 1.394 . S
C6 C7 1.382 . S
C7 C6 1.382 . S
C7 C8 1.392 . S
C7 N9 1.420 . S
C8 H2 0.930 . S
C8 C4 1.407 . S
C8 C7 1.392 . S
N9 C7 1.420 . S
N9 C10 1.244 . S
C10 N9 1.244 . S
H11 C14 0.929 . S
H12 C17 0.929 . S
H13 C19 0.930 . S
C14 H11 0.929 . S
C14 C15 1.398 . S
C14 C16 1.396 . S
C15 C14 1.398 . S
C15 C19 1.407 . S
C16 C14 1.396 . S
C16 C17 1.394 . S
C17 H12 0.929 . S
C17 C16 1.394 . S
C17 C18 1.382 . S
C18 C17 1.382 . S
C18 C19 1.392 . S
C18 N20 1.420 . S
C19 H13 0.930 . S
C19 C15 1.407 . S
C19 C18 1.392 . S
N20 C18 1.420 . S
N20 C21 1.244 . S
C21 N20 1.244 . S
H22 C25 0.929 . S
H23 C28 0.929 . S
H24 C30 0.930 . S
C25 H22 0.929 . S
C25 C26 1.398 . S
C25 C27 1.396 . S
C26 C25 1.398 . S
C26 C30 1.407 . S
C27 C25 1.396 . S
C27 C28 1.394 . S
C28 H23 0.929 . S
C28 C27 1.394 . S
C28 C29 1.382 . S
C29 C28 1.382 . S
C29 C30 1.392 . S
C29 N31 1.420 . S
C30 H24 0.930 . S
C30 C26 1.407 . S
C30 C29 1.392 . S
N31 C29 1.420 . S
N31 C32 1.244 . S
C32 N31 1.244 . S
H33 C36 0.929 . S
H34 C39 0.929 . S
H35 C41 0.930 . S
C36 H33 0.929 . S
C36 C37 1.398 . S
C36 C38 1.396 . S
C37 C36 1.398 . S
C37 C41 1.407 . S
C38 C36 1.396 . S
C38 C39 1.394 . S
C39 H34 0.929 . S
C39 C38 1.394 . S
C39 C40 1.382 . S
C40 C39 1.382 . S
C40 C41 1.392 . S
C40 N42 1.420 . S
C41 H35 0.930 . S
C41 C37 1.407 . S
C41 C40 1.392 . S
N42 C40 1.420 . S
N42 C43 1.244 . S
C43 N42 1.244 . S
H44 C47 0.929 . S
H45 C50 0.929 . S
H46 C52 0.930 . S
C47 H44 0.929 . S
C47 C48 1.398 . S
C47 C49 1.396 . S
C48 C47 1.398 . S
C48 C52 1.407 . S
C49 C47 1.396 . S
C49 C50 1.394 . S
C50 H45 0.929 . S
C50 C49 1.394 . S
C50 C51 1.382 . S
C51 C50 1.382 . S
C51 C52 1.392 . S
C51 N53 1.420 . S
C52 H46 0.930 . S
C52 C48 1.407 . S
C52 C51 1.392 . S
N53 C51 1.420 . S
N53 C54 1.244 . S
C54 N53 1.244 . S
H55 C58 0.929 . S
H56 C61 0.929 . S
H57 C63 0.930 . S
C58 H55 0.929 . S
C58 C59 1.398 . S
C58 C60 1.396 . S
C59 C58 1.398 . S
C59 C63 1.407 . S
C60 C58 1.396 . S
C60 C61 1.394 . S
C61 H56 0.929 . S
C61 C60 1.394 . S
C61 C62 1.382 . S
C62 C61 1.382 . S
C62 C63 1.392 . S
C62 N64 1.420 . S
C63 H57 0.930 . S
C63 C59 1.407 . S
C63 C62 1.392 . S
N64 C62 1.420 . S
N64 C65 1.244 . S
C65 N64 1.244 . S
H66 C69 0.929 . S
H67 C72 0.929 . S
H68 C74 0.930 . S
C69 H66 0.929 . S
C69 C70 1.398 . S
C69 C71 1.396 . S
C70 C69 1.398 . S
C70 C74 1.407 . S
C71 C69 1.396 . S
C71 C72 1.394 . S
C72 H67 0.929 . S
C72 C71 1.394 . S
C72 C73 1.382 . S
C73 C72 1.382 . S
C73 C74 1.392 . S
C73 N75 1.420 . S
C74 H68 0.930 . S
C74 C70 1.407 . S
C74 C73 1.392 . S
N75 C73 1.420 . S
N75 C76 1.244 . S
C76 N75 1.244 . S
H77 C80 0.929 . S
H78 C83 0.929 . S
H79 C85 0.930 . S
C80 H77 0.929 . S
C80 C81 1.398 . S
C80 C82 1.396 . S
C81 C80 1.398 . S
C81 C85 1.407 . S
C82 C80 1.396 . S
C82 C83 1.394 . S
C83 H78 0.929 . S
C83 C82 1.394 . S
C83 C84 1.382 . S
C84 C83 1.382 . S
C84 C85 1.392 . S
C84 N86 1.420 . S
C85 H79 0.930 . S
C85 C81 1.407 . S
C85 C84 1.392 . S
N86 C84 1.420 . S
N86 C87 1.244 . S
C87 N86 1.244 . S
Dy88 O92 2.398 . S
Dy88 O93 2.491 . S
Dy88 O94 2.403 . S
Dy88 O95 2.664 . S
Dy88 O99 2.326 . S
Dy88 O103 2.310 1_455 S
Dy88 O104 2.360 1_545 S
C89 O100 1.185 . S
C89 O101 1.355 . S
C90 O92 1.185 . S
C90 O93 1.355 . S
Dy91 O95 2.310 1_655 S
Dy91 O98 2.351 1_655 S
Dy91 O100 2.398 1_545 S
Dy91 O101 2.491 1_545 S
Dy91 O102 2.403 . S
Dy91 O103 2.664 . S
Dy91 O105 2.326 1_545 S
O92 Dy88 2.398 . S
O92 C90 1.185 . S
O93 Dy88 2.491 . S
O93 C90 1.355 . S
O94 Dy88 2.403 . S
O94 C96 1.254 . S
O95 Dy88 2.664 . S
O95 Dy91 2.310 1_455 S
O95 C96 1.268 . S
C96 O94 1.254 . S
C96 O95 1.268 . S
C97 O102 1.254 . S
C97 O103 1.268 . S
O98 Dy91 2.351 1_455 S
O98 C106 1.249 . S
O99 Dy88 2.326 . S
O99 C106 1.267 . S
O100 C89 1.185 . S
O100 Dy91 2.398 1_565 S
O101 C89 1.355 . S
O101 Dy91 2.491 1_565 S
O102 Dy91 2.403 . S
O102 C97 1.254 . S
O103 Dy88 2.310 1_655 S
O103 Dy91 2.664 . S
O103 C97 1.268 . S
O104 Dy88 2.360 1_565 S
O104 C107 1.236 1_455 S
O105 Dy91 2.326 1_565 S
O105 C107 1.267 . S
C106 O98 1.249 . S
C106 O99 1.267 . S
C107 O104 1.236 1_655 S
C107 O105 1.267 . S
Dy108 O112 2.398 . S
Dy108 O113 2.491 . S
Dy108 O114 2.403 1_545 S
Dy108 O115 2.664 1_545 S
Dy108 O119 2.326 . S
Dy108 O123 2.310 . S
Dy108 O124 2.351 . S
C109 O120 1.185 1_565 S
C109 O121 1.355 . S
C110 O112 1.185 . S
C110 O113 1.355 . S
Dy111 O115 2.310 1_545 S
Dy111 O118 2.351 . S
Dy111 O120 2.398 1_554 S
Dy111 O121 2.491 1_544 S
Dy111 O122 2.403 1_554 S
Dy111 O123 2.664 . S
Dy111 O125 2.326 . S
O112 Dy108 2.398 . S
O112 C110 1.185 . S
O113 Dy108 2.491 . S
O113 C110 1.355 . S
O114 Dy108 2.403 1_565 S
O114 C116 1.254 . S
O115 Dy108 2.664 1_565 S
O115 Dy111 2.310 1_565 S
O115 C116 1.268 . S
C116 O114 1.254 . S
C116 O115 1.268 . S
C117 O122 1.254 1_554 S
C117 O123 1.268 . S
O118 Dy111 2.351 . S
O118 C126 1.249 . S
O119 Dy108 2.326 . S
O119 C126 1.267 . S
O120 C109 1.185 1_545 S
O120 Dy111 2.398 1_556 S
O121 C109 1.355 . S
O121 Dy111 2.491 1_566 S
O122 Dy111 2.403 1_556 S
O122 C117 1.254 1_556 S
O123 Dy108 2.310 . S
O123 Dy111 2.664 . S
O123 C117 1.268 . S
O124 Dy108 2.351 . S
O124 C127 1.250 . S
O125 Dy111 2.326 . S
O125 C127 1.274 . S
C126 O118 1.249 . S
C126 O119 1.267 . S
C127 O124 1.250 . S
C127 O125 1.274 . S
Dy128 O132 2.398 . S
Dy128 O133 2.491 . S
Dy128 O134 2.403 . S
Dy128 O135 2.664 . S
Dy128 O139 2.326 . S
Dy128 O143 2.310 . S
Dy128 O144 2.351 . S
C129 O140 1.185 . S
C129 O141 1.355 . S
C130 O132 1.185 . S
C130 O133 1.355 . S
Dy131 O135 2.310 . S
Dy131 O138 2.351 . S
Dy131 O140 2.398 . S
Dy131 O141 2.491 . S
Dy131 O142 2.403 . S
Dy131 O143 2.664 . S
Dy131 O145 2.326 . S
O132 Dy128 2.398 . S
O132 C130 1.185 . S
O133 Dy128 2.491 . S
O133 C130 1.355 . S
O134 Dy128 2.403 . S
O134 C136 1.254 . S
O135 Dy128 2.664 . S
O135 Dy131 2.310 . S
O135 C136 1.268 . S
C136 O134 1.254 . S
C136 O135 1.268 . S
C137 O142 1.254 . S
C137 O143 1.268 . S
O138 Dy131 2.351 . S
O138 C146 1.249 . S
O139 Dy128 2.326 . S
O139 C146 1.267 . S
O140 C129 1.185 . S
O140 Dy131 2.398 . S
O141 C129 1.355 . S
O141 Dy131 2.491 . S
O142 Dy131 2.403 . S
O142 C137 1.254 . S
O143 Dy128 2.310 . S
O143 Dy131 2.664 . S
O143 C137 1.268 . S
O144 Dy128 2.351 . S
O144 C147 1.249 . S
O145 Dy131 2.326 . S
O145 C147 1.267 . S
C146 O138 1.249 . S
C146 O139 1.267 . S
C147 O144 1.249 . S
C147 O145 1.267 . S
Dy148 O152 2.398 . S
Dy148 O153 2.491 . S
Dy148 O154 2.410 . S
Dy148 O155 2.663 1_455 S
Dy148 O159 2.326 . S
Dy148 O163 2.289 1_554 S
Dy148 O164 2.351 1_455 S
C149 O160 1.185 . S
C149 O161 1.355 1_556 S
C150 O152 1.185 . S
C150 O153 1.355 . S
Dy151 O155 2.309 1_455 S
Dy151 O158 2.351 . S
Dy151 O160 2.398 1_454 S
Dy151 O161 2.491 1_455 S
Dy151 O162 2.403 1_554 S
Dy151 O163 2.664 1_554 S
Dy151 O165 2.326 1_454 S
O152 Dy148 2.398 . S
O152 C150 1.185 . S
O153 Dy148 2.491 . S
O153 C150 1.355 . S
O154 Dy148 2.410 . S
O154 C156 1.248 1_455 S
O155 Dy148 2.663 1_655 S
O155 Dy151 2.309 1_655 S
O155 C156 1.268 . S
C156 O154 1.248 1_655 S
C156 O155 1.268 . S
C157 O162 1.254 . S
C157 O163 1.291 . S
O158 Dy151 2.351 . S
O158 C166 1.249 . S
O159 Dy148 2.326 . S
O159 C166 1.267 . S
O160 C149 1.185 . S
O160 Dy151 2.398 1_656 S
O161 C149 1.355 1_554 S
O161 Dy151 2.491 1_655 S
O162 Dy151 2.403 1_556 S
O162 C157 1.254 . S
O163 Dy148 2.289 1_556 S
O163 Dy151 2.664 1_556 S
O163 C157 1.291 . S
O164 Dy148 2.351 1_655 S
O164 C167 1.249 1_554 S
O165 Dy151 2.326 1_656 S
O165 C167 1.267 . S
C166 O158 1.249 . S
C166 O159 1.267 . S
C167 O164 1.249 1_556 S
C167 O165 1.267 . S
H168 C174 0.930 . S
H169 C178 0.930 . S
H170 C183 0.929 . S
H171 C181 0.929 . S
H172 C176 0.929 . S
H173 C182 0.929 . S
C174 H168 0.930 . S
C174 C175 1.367 . S
C174 C182 1.378 . S
C175 C174 1.367 . S
C175 C183 1.433 . S
C176 H172 0.929 . S
C176 C178 1.378 . S
C176 C180 1.350 . S
C177 C180 1.463 . S
C177 C182 1.350 . S
C177 N185 1.427 . S
C178 H169 0.930 . S
C178 C176 1.378 . S
C178 C179 1.367 . S
C179 C178 1.367 . S
C179 C181 1.433 . S
C180 C176 1.350 . S
C180 C177 1.463 . S
C180 N184 1.427 . S
C181 H171 0.929 . S
C181 C179 1.433 . S
C181 N184 1.384 . S
C182 H173 0.929 . S
C182 C174 1.378 . S
C182 C177 1.350 . S
C183 H170 0.929 . S
C183 C175 1.433 . S
C183 N185 1.384 . S
N184 C180 1.427 . S
N184 C181 1.384 . S
N185 C177 1.427 . S
N185 C183 1.384 . S
H186 C192 0.930 . S
H187 C196 0.930 1_545 S
H188 C201 0.929 . S
H189 C199 0.929 . S
H190 C194 0.929 1_545 S
H191 C200 0.929 . S
C192 H186 0.930 . S
C192 C193 1.367 . S
C192 C200 1.378 . S
C193 C192 1.367 . S
C193 C201 1.433 . S
C194 H190 0.929 1_565 S
C194 C196 1.378 . S
C194 C198 1.350 . S
C195 C198 1.463 . S
C195 C200 1.350 . S
C195 N203 1.427 . S
C196 H187 0.930 1_565 S
C196 C194 1.378 . S
C196 C197 1.367 . S
C197 C196 1.367 . S
C197 C199 1.433 . S
C198 C194 1.350 . S
C198 C195 1.463 . S
C198 N202 1.427 . S
C199 H189 0.929 . S
C199 C197 1.433 . S
C199 N202 1.384 . S
C200 H191 0.929 . S
C200 C192 1.378 . S
C200 C195 1.350 . S
C201 H188 0.929 . S
C201 C193 1.433 . S
C201 N203 1.384 . S
N202 C198 1.427 . S
N202 C199 1.384 . S
N203 C195 1.427 . S
N203 C201 1.384 . S
H204 C210 0.930 . S
H205 C214 0.930 . S
H206 C219 0.929 . S
H207 C217 0.929 . S
H208 C212 0.929 . S
H209 C218 0.929 . S
C210 H204 0.930 . S
C210 C211 1.367 . S
C210 C218 1.378 . S
C211 C210 1.367 . S
C211 C219 1.433 . S
C212 H208 0.929 . S
C212 C214 1.378 . S
C212 C216 1.350 . S
C213 C216 1.463 . S
C213 C218 1.350 . S
C213 N221 1.427 . S
C214 H205 0.930 . S
C214 C212 1.378 . S
C214 C215 1.367 . S
C215 C214 1.367 . S
C215 C217 1.433 . S
C216 C212 1.350 . S
C216 C213 1.463 . S
C216 N220 1.427 . S
C217 H207 0.929 . S
C217 C215 1.433 . S
C217 N220 1.384 . S
C218 H209 0.929 . S
C218 C210 1.378 . S
C218 C213 1.350 . S
C219 H206 0.929 . S
C219 C211 1.433 . S
C219 N221 1.384 . S
N220 C216 1.427 . S
N220 C217 1.384 . S
N221 C213 1.427 . S
N221 C219 1.384 . S
H222 C228 0.930 . S
H223 C232 0.930 1_455 S
H224 C237 0.929 . S
H225 C235 0.929 . S
H226 C230 0.946 . S
H227 C236 0.929 . S
C228 H222 0.930 . S
C228 C229 1.367 . S
C228 C236 1.378 . S
C229 C228 1.367 . S
C229 C237 1.433 . S
C230 H226 0.946 . S
C230 C232 1.378 . S
C230 C234 1.350 . S
C231 C234 1.463 . S
C231 C236 1.350 . S
C231 N239 1.427 . S
C232 H223 0.930 1_655 S
C232 C230 1.378 . S
C232 C233 1.367 . S
C233 C232 1.367 . S
C233 C235 1.433 . S
C234 C230 1.350 . S
C234 C231 1.463 . S
C234 N238 1.427 . S
C235 H225 0.929 . S
C235 C233 1.433 . S
C235 N238 1.384 . S
C236 H227 0.929 . S
C236 C228 1.378 . S
C236 C231 1.350 . S
C237 H224 0.929 . S
C237 C229 1.433 . S
C237 N239 1.384 . S
N238 C234 1.427 . S
N238 C235 1.384 . S
N239 C231 1.427 . S
N239 C237 1.384 . S
H240 C246 0.930 . S
H241 C250 0.930 . S
H242 C255 0.929 . S
H243 C253 0.929 . S
H244 C248 0.929 . S
H245 C254 0.929 . S
C246 H240 0.930 . S
C246 C247 1.367 . S
C246 C254 1.378 . S
C247 C246 1.367 . S
C247 C255 1.433 . S
C248 H244 0.929 . S
C248 C250 1.378 . S
C248 C252 1.350 . S
C249 C252 1.463 . S
C249 C254 1.350 . S
C249 N257 1.427 . S
C250 H241 0.930 . S
C250 C248 1.378 . S
C250 C251 1.367 . S
C251 C250 1.367 . S
C251 C253 1.433 . S
C252 C248 1.350 . S
C252 C249 1.463 . S
C252 N256 1.427 . S
C253 H243 0.929 . S
C253 C251 1.433 . S
C253 N256 1.384 . S
C254 H245 0.929 . S
C254 C246 1.378 . S
C254 C249 1.350 . S
C255 H242 0.929 . S
C255 C247 1.433 . S
C255 N257 1.384 . S
N256 C252 1.427 . S
N256 C253 1.384 . S
N257 C249 1.427 . S
N257 C255 1.384 . S
H258 C264 0.930 . S
H259 C268 0.930 . S
H260 C273 0.929 . S
H261 C271 0.929 . S
H262 C266 0.929 . S
H263 C272 0.929 . S
C264 H258 0.930 . S
C264 C265 1.367 . S
C264 C272 1.378 . S
C265 C264 1.367 . S
C265 C273 1.433 . S
C266 H262 0.929 . S
C266 C268 1.378 1_565 S
C266 C270 1.350 . S
C267 C270 1.463 . S
C267 C272 1.350 . S
C267 N275 1.427 . S
C268 H259 0.930 . S
C268 C266 1.378 1_545 S
C268 C269 1.367 1_545 S
C269 C268 1.367 1_565 S
C269 C271 1.433 . S
C270 C266 1.350 . S
C270 C267 1.463 . S
C270 N274 1.427 . S
C271 H261 0.929 . S
C271 C269 1.433 . S
C271 N274 1.384 . S
C272 H263 0.929 . S
C272 C264 1.378 . S
C272 C267 1.350 . S
C273 H260 0.929 . S
C273 C265 1.433 . S
C273 N275 1.384 . S
N274 C270 1.427 . S
N274 C271 1.384 . S
N275 C267 1.427 . S
N275 C273 1.384 . S
H276 C282 0.930 . S
H277 C286 0.930 . S
H278 C291 0.929 . S
H279 C289 0.929 . S
H280 C284 0.929 . S
H281 C290 0.929 . S
C282 H276 0.930 . S
C282 C283 1.367 . S
C282 C290 1.378 . S
C283 C282 1.367 . S
C283 C291 1.433 . S
C284 H280 0.929 . S
C284 C286 1.378 . S
C284 C288 1.350 . S
C285 C288 1.463 . S
C285 C290 1.350 . S
C285 N293 1.427 . S
C286 H277 0.930 . S
C286 C284 1.378 . S
C286 C287 1.367 . S
C287 C286 1.367 . S
C287 C289 1.433 . S
C288 C284 1.350 . S
C288 C285 1.463 . S
C288 N292 1.427 . S
C289 H279 0.929 . S
C289 C287 1.433 . S
C289 N292 1.384 . S
C290 H281 0.929 . S
C290 C282 1.378 . S
C290 C285 1.350 . S
C291 H278 0.929 . S
C291 C283 1.433 . S
C291 N293 1.384 . S
N292 C288 1.427 . S
N292 C289 1.384 . S
N293 C285 1.427 . S
N293 C291 1.384 . S
H294 C300 0.930 . S
H295 C304 0.930 . S
H296 C309 0.929 . S
H297 C307 0.929 . S
H298 C302 0.929 . S
H299 C308 0.929 . S
C300 H294 0.930 . S
C300 C301 1.367 . S
C300 C308 1.378 . S
C301 C300 1.367 . S
C301 C309 1.433 . S
C302 H298 0.929 . S
C302 C304 1.378 . S
C302 C306 1.350 . S
C303 C306 1.463 . S
C303 C308 1.350 . S
C303 N311 1.427 . S
C304 H295 0.930 . S
C304 C302 1.378 . S
C304 C305 1.367 . S
C305 C304 1.367 . S
C305 C307 1.433 . S
C306 C302 1.350 . S
C306 C303 1.463 . S
C306 N310 1.427 . S
C307 H297 0.929 . S
C307 C305 1.433 . S
C307 N310 1.384 . S
C308 H299 0.929 . S
C308 C300 1.378 . S
C308 C303 1.350 . S
C309 H296 0.929 . S
C309 C301 1.433 . S
C309 N311 1.384 . S
N310 C306 1.427 . S
N310 C307 1.384 . S
N311 C303 1.427 . S
N311 C309 1.384 . S
H312 C318 0.930 . S
H313 C322 0.930 . S
H314 C327 0.929 . S
H315 C325 0.929 . S
H316 C320 0.929 . S
H317 C326 0.929 . S
C318 H312 0.930 . S
C318 C319 1.367 . S
C318 C326 1.378 . S
C319 C318 1.367 . S
C319 C327 1.433 . S
C320 H316 0.929 . S
C320 C322 1.378 . S
C320 C324 1.350 . S
C321 C324 1.463 . S
C321 C326 1.350 . S
C321 N329 1.427 . S
C322 H313 0.930 . S
C322 C320 1.378 . S
C322 C323 1.367 . S
C323 C322 1.367 . S
C323 C325 1.433 . S
C324 C320 1.350 . S
C324 C321 1.463 . S
C324 N328 1.427 . S
C325 H315 0.929 . S
C325 C323 1.433 . S
C325 N328 1.384 . S
C326 H317 0.929 . S
C326 C318 1.378 . S
C326 C321 1.350 . S
C327 H314 0.929 . S
C327 C319 1.433 . S
C327 N329 1.384 . S
N328 C324 1.427 . S
N328 C325 1.384 . S
N329 C321 1.427 . S
N329 C327 1.384 . S
H330 C336 0.930 . S
H331 C340 0.930 . S
H332 C345 0.929 . S
H333 C343 0.929 . S
H334 C338 0.929 . S
H335 C344 0.929 1_554 S
C336 H330 0.930 . S
C336 C337 1.367 . S
C336 C344 1.378 . S
C337 C336 1.367 . S
C337 C345 1.433 . S
C338 H334 0.929 . S
C338 C340 1.378 . S
C338 C342 1.350 . S
C339 C342 1.463 . S
C339 C344 1.350 . S
C339 N347 1.427 . S
C340 H331 0.930 . S
C340 C338 1.378 . S
C340 C341 1.367 1_556 S
C341 C340 1.367 1_554 S
C341 C343 1.433 . S
C342 C338 1.350 . S
C342 C339 1.463 . S
C342 N346 1.427 1_556 S
C343 H333 0.929 . S
C343 C341 1.433 . S
C343 N346 1.384 . S
C344 H335 0.929 1_556 S
C344 C336 1.378 . S
C344 C339 1.350 . S
C345 H332 0.929 . S
C345 C337 1.433 . S
C345 N347 1.384 . S
N346 C342 1.427 1_554 S
N346 C343 1.384 . S
N347 C339 1.427 . S
N347 C345 1.384 . S
H348 C354 0.930 . S
H349 C358 0.930 . S
H350 C363 0.929 . S
H351 C361 0.929 . S
H352 C356 0.929 . S
H353 C362 0.929 . S
C354 H348 0.930 . S
C354 C355 1.367 . S
C354 C362 1.378 . S
C355 C354 1.367 . S
C355 C363 1.433 . S
C356 H352 0.929 . S
C356 C358 1.378 . S
C356 C360 1.350 . S
C357 C360 1.463 . S
C357 C362 1.350 . S
C357 N365 1.427 . S
C358 H349 0.930 . S
C358 C356 1.378 . S
C358 C359 1.367 . S
C359 C358 1.367 . S
C359 C361 1.433 . S
C360 C356 1.350 . S
C360 C357 1.463 . S
C360 N364 1.427 . S
C361 H351 0.929 . S
C361 C359 1.433 . S
C361 N364 1.384 . S
C362 H353 0.929 . S
C362 C354 1.378 . S
C362 C357 1.350 . S
C363 H350 0.929 . S
C363 C355 1.433 . S
C363 N365 1.384 . S
N364 C360 1.427 . S
N364 C361 1.384 . S
N365 C357 1.427 . S
N365 C363 1.384 . S
H366 C372 0.930 . S
H367 C376 0.930 . S
H368 C381 0.929 . S
H369 C379 0.929 . S
H370 C374 0.929 . S
H371 C380 0.929 . S
C372 H366 0.930 . S
C372 C373 1.367 . S
C372 C380 1.378 . S
C373 C372 1.367 . S
C373 C381 1.433 . S
C374 H370 0.929 . S
C374 C376 1.378 . S
C374 C378 1.350 . S
C375 C378 1.463 . S
C375 C380 1.350 . S
C375 N383 1.427 . S
C376 H367 0.930 . S
C376 C374 1.378 . S
C376 C377 1.367 . S
C377 C376 1.367 . S
C377 C379 1.433 . S
C378 C374 1.350 . S
C378 C375 1.463 . S
C378 N382 1.427 . S
C379 H369 0.929 . S
C379 C377 1.433 . S
C379 N382 1.384 . S
C380 H371 0.929 . S
C380 C372 1.378 . S
C380 C375 1.350 . S
C381 H368 0.929 . S
C381 C373 1.433 . S
C381 N383 1.384 . S
N382 C378 1.427 . S
N382 C379 1.384 . S
N383 C375 1.427 . S
N383 C381 1.384 . S
H384 C390 0.930 . S
H385 C394 0.930 . S
H386 C399 0.929 . S
H387 C397 0.929 . S
H388 C392 0.929 . S
H389 C398 0.929 . S
C390 H384 0.930 . S
C390 C391 1.367 . S
C390 C398 1.378 . S
C391 C390 1.367 . S
C391 C399 1.433 . S
C392 H388 0.929 . S
C392 C394 1.378 . S
C392 C396 1.350 . S
C393 C396 1.463 . S
C393 C398 1.350 . S
C393 N401 1.427 . S
C394 H385 0.930 . S
C394 C392 1.378 . S
C394 C395 1.367 . S
C395 C394 1.367 . S
C395 C397 1.433 . S
C396 C392 1.350 . S
C396 C393 1.463 . S
C396 N400 1.427 . S
C397 H387 0.929 . S
C397 C395 1.433 . S
C397 N400 1.384 . S
C398 H389 0.929 . S
C398 C390 1.378 . S
C398 C393 1.350 . S
C399 H386 0.929 . S
C399 C391 1.433 . S
C399 N401 1.384 . S
N400 C396 1.427 . S
N400 C397 1.384 . S
N401 C393 1.427 . S
N401 C399 1.384 . S
H402 C408 0.930 . S
H403 C412 0.930 . S
H404 C417 0.929 . S
H405 C415 0.929 . S
H406 C410 0.929 . S
H407 C416 0.929 . S
C408 H402 0.930 . S
C408 C409 1.367 . S
C408 C416 1.378 . S
C409 C408 1.367 . S
C409 C417 1.433 . S
C410 H406 0.929 . S
C410 C412 1.378 . S
C410 C414 1.350 . S
C411 C414 1.463 . S
C411 C416 1.350 . S
C411 N419 1.427 . S
C412 H403 0.930 . S
C412 C410 1.378 . S
C412 C413 1.367 . S
C413 C412 1.367 . S
C413 C415 1.433 . S
C414 C410 1.350 . S
C414 C411 1.463 . S
C414 N418 1.427 . S
C415 H405 0.929 . S
C415 C413 1.433 . S
C415 N418 1.384 . S
C416 H407 0.929 . S
C416 C408 1.378 . S
C416 C411 1.350 . S
C417 H404 0.929 . S
C417 C409 1.433 . S
C417 N419 1.384 . S
N418 C414 1.427 . S
N418 C415 1.384 . S
N419 C411 1.427 . S
N419 C417 1.384 . S
H420 C426 0.930 . S
H421 C430 0.930 . S
H422 C435 0.929 . S
H423 C433 0.929 . S
H424 C428 0.929 . S
H425 C434 0.929 . S
C426 H420 0.930 . S
C426 C427 1.367 . S
C426 C434 1.378 . S
C427 C426 1.367 . S
C427 C435 1.433 . S
C428 H424 0.929 . S
C428 C430 1.378 . S
C428 C432 1.350 . S
C429 C432 1.463 . S
C429 C434 1.350 . S
C429 N437 1.427 . S
C430 H421 0.930 . S
C430 C428 1.378 . S
C430 C431 1.367 . S
C431 C430 1.367 . S
C431 C433 1.433 . S
C432 C428 1.350 . S
C432 C429 1.463 . S
C432 N436 1.427 . S
C433 H423 0.929 . S
C433 C431 1.433 . S
C433 N436 1.384 . S
C434 H425 0.929 . S
C434 C426 1.378 . S
C434 C429 1.350 . S
C435 H422 0.929 . S
C435 C427 1.433 . S
C435 N437 1.384 . S
N436 C432 1.427 . S
N436 C433 1.384 . S
N437 C429 1.427 . S
N437 C435 1.384 . S
H438 C444 0.930 . S
H439 C448 0.930 . S
H440 C453 0.929 . S
H441 C451 0.929 . S
H442 C446 0.929 . S
H443 C452 0.929 . S
C444 H438 0.930 . S
C444 C445 1.367 . S
C444 C452 1.378 . S
C445 C444 1.367 . S
C445 C453 1.433 . S
C446 H442 0.929 . S
C446 C448 1.378 . S
C446 C450 1.350 . S
C447 C450 1.463 . S
C447 C452 1.350 . S
C447 N455 1.427 . S
C448 H439 0.930 . S
C448 C446 1.378 . S
C448 C449 1.367 . S
C449 C448 1.367 . S
C449 C451 1.433 . S
C450 C446 1.350 . S
C450 C447 1.463 . S
C450 N454 1.427 . S
C451 H441 0.929 . S
C451 C449 1.433 . S
C451 N454 1.384 . S
C452 H443 0.929 . S
C452 C444 1.378 . S
C452 C447 1.350 . S
C453 H440 0.929 . S
C453 C445 1.433 . S
C453 N455 1.384 . S
N454 C450 1.427 . S
N454 C451 1.384 . S
N455 C447 1.427 . S
N455 C453 1.384 . S
H456 C462 0.930 . S
H457 C466 0.930 . S
H458 C471 0.929 . S
H459 C469 0.929 . S
H460 C464 0.929 . S
H461 C470 0.929 . S
C462 H456 0.930 . S
C462 C463 1.367 . S
C462 C470 1.378 . S
C463 C462 1.367 . S
C463 C471 1.433 . S
C464 H460 0.929 . S
C464 C466 1.378 1_556 S
C464 C468 1.350 . S
C465 C468 1.463 . S
C465 C470 1.350 . S
C465 N473 1.427 . S
C466 H457 0.930 . S
C466 C464 1.378 1_554 S
C466 C467 1.367 1_554 S
C467 C466 1.367 1_556 S
C467 C469 1.433 . S
C468 C464 1.350 . S
C468 C465 1.463 . S
C468 N472 1.427 . S
C469 H459 0.929 . S
C469 C467 1.433 . S
C469 N472 1.384 . S
C470 H461 0.929 . S
C470 C462 1.378 . S
C470 C465 1.350 . S
C471 H458 0.929 . S
C471 C463 1.433 . S
C471 N473 1.384 . S
N472 C468 1.427 . S
N472 C469 1.384 . S
N473 C465 1.427 . S
N473 C471 1.384 . S
H474 C480 0.930 . S
H475 C484 0.930 . S
H476 C489 0.929 . S
H477 C487 0.929 . S
H478 C482 0.929 . S
H479 C488 0.929 . S
C480 H474 0.930 . S
C480 C481 1.367 . S
C480 C488 1.378 . S
C481 C480 1.367 . S
C481 C489 1.433 . S
C482 H478 0.929 . S
C482 C484 1.378 . S
C482 C486 1.350 . S
C483 C486 1.463 . S
C483 C488 1.350 . S
C483 N491 1.427 . S
C484 H475 0.930 . S
C484 C482 1.378 . S
C484 C485 1.367 . S
C485 C484 1.367 . S
C485 C487 1.433 . S
C486 C482 1.350 . S
C486 C483 1.463 . S
C486 N490 1.427 . S
C487 H477 0.929 . S
C487 C485 1.433 . S
C487 N490 1.384 . S
C488 H479 0.929 . S
C488 C480 1.378 . S
C488 C483 1.350 . S
C489 H476 0.929 . S
C489 C481 1.433 . S
C489 N491 1.384 . S
N490 C486 1.427 . S
N490 C487 1.384 . S
N491 C483 1.427 . S
N491 C489 1.384 . S
H492 C498 0.930 . S
H493 C502 0.930 . S
H494 C507 0.929 . S
H495 C505 0.929 . S
H496 C500 0.929 . S
H497 C506 0.929 . S
C498 H492 0.930 . S
C498 C499 1.367 . S
C498 C506 1.378 . S
C499 C498 1.367 . S
C499 C507 1.433 . S
C500 H496 0.929 . S
C500 C502 1.378 . S
C500 C504 1.350 . S
C501 C504 1.463 . S
C501 C506 1.350 . S
C501 N509 1.427 . S
C502 H493 0.930 . S
C502 C500 1.378 . S
C502 C503 1.367 . S
C503 C502 1.367 . S
C503 C505 1.433 . S
C504 C500 1.350 . S
C504 C501 1.463 . S
C504 N508 1.427 . S
C505 H495 0.929 . S
C505 C503 1.433 . S
C505 N508 1.384 . S
C506 H497 0.929 . S
C506 C498 1.378 . S
C506 C501 1.350 . S
C507 H494 0.929 . S
C507 C499 1.433 . S
C507 N509 1.384 . S
N508 C504 1.427 . S
N508 C505 1.384 . S
N509 C501 1.427 . S
N509 C507 1.384 . S
H510 C516 0.930 . S
H511 C520 0.930 . S
H512 C525 0.929 . S
H513 C523 0.929 . S
H514 C518 0.929 . S
H515 C524 0.929 . S
C516 H510 0.930 . S
C516 C517 1.367 . S
C516 C524 1.378 . S
C517 C516 1.367 . S
C517 C525 1.433 . S
C518 H514 0.929 . S
C518 C520 1.378 . S
C518 C522 1.350 . S
C519 C522 1.463 . S
C519 C524 1.350 . S
C519 N527 1.427 . S
C520 H511 0.930 . S
C520 C518 1.378 . S
C520 C521 1.367 . S
C521 C520 1.367 . S
C521 C523 1.433 . S
C522 C518 1.350 . S
C522 C519 1.463 . S
C522 N526 1.427 . S
C523 H513 0.929 . S
C523 C521 1.433 . S
C523 N526 1.384 . S
C524 H515 0.929 . S
C524 C516 1.378 . S
C524 C519 1.350 . S
C525 H512 0.929 . S
C525 C517 1.433 . S
C525 N527 1.384 . S
N526 C522 1.427 . S
N526 C523 1.384 . S
N527 C519 1.427 . S
N527 C525 1.384 . S
H528 C534 0.930 . S
H529 C538 0.930 . S
H530 C543 0.929 . S
H531 C541 0.929 . S
H532 C536 0.929 . S
H533 C542 0.929 . S
C534 H528 0.930 . S
C534 C535 1.367 . S
C534 C542 1.378 . S
C535 C534 1.367 . S
C535 C543 1.433 . S
C536 H532 0.929 . S
C536 C538 1.378 . S
C536 C540 1.350 . S
C537 C540 1.463 . S
C537 C542 1.350 . S
C537 N545 1.427 . S
C538 H529 0.930 . S
C538 C536 1.378 . S
C538 C539 1.367 . S
C539 C538 1.367 . S
C539 C541 1.433 . S
C540 C536 1.350 . S
C540 C537 1.463 . S
C540 N544 1.427 . S
C541 H531 0.929 . S
C541 C539 1.433 . S
C541 N544 1.384 . S
C542 H533 0.929 . S
C542 C534 1.378 . S
C542 C537 1.350 . S
C543 H530 0.929 . S
C543 C535 1.433 . S
C543 N545 1.384 . S
N544 C540 1.427 . S
N544 C541 1.384 . S
N545 C537 1.427 . S
N545 C543 1.384 . S
H546 C552 0.930 . S
H547 C556 0.930 . S
H548 C561 0.929 . S
H549 C559 0.929 . S
H550 C554 0.929 . S
H551 C560 0.929 . S
C552 H546 0.930 . S
C552 C553 1.367 . S
C552 C560 1.378 . S
C553 C552 1.367 . S
C553 C561 1.433 . S
C554 H550 0.929 . S
C554 C556 1.378 . S
C554 C558 1.350 . S
C555 C558 1.463 . S
C555 C560 1.350 . S
C555 N563 1.427 . S
C556 H547 0.930 . S
C556 C554 1.378 . S
C556 C557 1.367 . S
C557 C556 1.367 . S
C557 C559 1.433 . S
C558 C554 1.350 . S
C558 C555 1.463 . S
C558 N562 1.427 . S
C559 H549 0.929 . S
C559 C557 1.433 . S
C559 N562 1.384 . S
C560 H551 0.929 . S
C560 C552 1.378 . S
C560 C555 1.350 . S
C561 H548 0.929 . S
C561 C553 1.433 . S
C561 N563 1.384 . S
N562 C558 1.427 . S
N562 C559 1.384 . S
N563 C555 1.427 . S
N563 C561 1.384 . S
H564 C570 0.930 . S
H565 C574 0.930 . S
H566 C579 0.929 . S
H567 C577 0.929 . S
H568 C572 0.929 . S
H569 C578 0.929 . S
C570 H564 0.930 . S
C570 C571 1.367 . S
C570 C578 1.378 . S
C571 C570 1.367 . S
C571 C579 1.433 . S
C572 H568 0.929 . S
C572 C574 1.378 . S
C572 C576 1.350 . S
C573 C576 1.463 . S
C573 C578 1.350 . S
C573 N581 1.427 . S
C574 H565 0.930 . S
C574 C572 1.378 . S
C574 C575 1.367 . S
C575 C574 1.367 . S
C575 C577 1.433 . S
C576 C572 1.350 . S
C576 C573 1.463 . S
C576 N580 1.427 . S
C577 H567 0.929 . S
C577 C575 1.433 . S
C577 N580 1.384 . S
C578 H569 0.929 . S
C578 C570 1.378 . S
C578 C573 1.350 . S
C579 H566 0.929 . S
C579 C571 1.433 . S
C579 N581 1.384 . S
N580 C576 1.427 . S
N580 C577 1.384 . S
N581 C573 1.427 . S
N581 C579 1.384 . S
H582 C588 0.930 . S
H583 C592 0.930 . S
H584 C597 0.929 . S
H585 C595 0.929 . S
H586 C590 0.929 . S
H587 C596 0.929 . S
C588 H582 0.930 . S
C588 C589 1.367 . S
C588 C596 1.378 . S
C589 C588 1.367 . S
C589 C597 1.433 . S
C590 H586 0.929 . S
C590 C592 1.378 . S
C590 C594 1.350 . S
C591 C594 1.463 . S
C591 C596 1.350 . S
C591 N599 1.427 . S
C592 H583 0.930 . S
C592 C590 1.378 . S
C592 C593 1.367 . S
C593 C592 1.367 . S
C593 C595 1.433 . S
C594 C590 1.350 . S
C594 C591 1.463 . S
C594 N598 1.427 . S
C595 H585 0.929 . S
C595 C593 1.433 . S
C595 N598 1.384 . S
C596 H587 0.929 . S
C596 C588 1.378 . S
C596 C591 1.350 . S
C597 H584 0.929 . S
C597 C589 1.433 . S
C597 N599 1.384 . S
N598 C594 1.427 . S
N598 C595 1.384 . S
N599 C591 1.427 . S
N599 C597 1.384 . S
C175 C4 1.506 . S
C179 C90 1.508 . S
C193 C16 1.592 . S
C197 C109 1.563 . S
C215 C146 1.380 . S
C211 C32 1.395 . S
C229 C43 1.568 . S
C233 C156 1.522 . S
C251 C126 2.267 . S
C247 C5 2.220 . S
C269 C96 1.191 1_565 S
C265 C21 1.219 . S
C287 C167 1.456 . S
C283 C27 1.476 . S
C305 C137 1.329 . S
C301 C37 1.345 . S
C319 C10 1.619 . S
C323 C150 1.616 . S
C341 C117 1.822 . S
C337 C26 1.886 . S
C355 C38 1.558 . S
C359 C107 1.556 . S
C373 C15 1.351 . S
C377 C129 1.330 . S
C395 C89 1.622 . S
C391 C48 1.624 . S
C409 C59 1.433 . S
C413 C110 1.411 . S
C427 C76 1.688 . S
C431 C147 1.660 . S
C445 C87 1.443 . S
C449 C157 1.422 . S
C463 C54 1.674 . S
C467 C127 1.685 1_566 S
C485 C97 1.847 . S
C481 C60 1.905 . S
C503 C166 1.362 . S
C499 C71 1.388 . S
C521 C136 1.268 . S
C517 C82 1.315 . S
C535 C49 1.824 . S
C539 C149 1.863 . S
C557 C116 1.425 . S
C553 C70 1.478 . S
C575 C106 1.876 . S
C571 C81 1.885 . S
C589 C65 1.290 . S
C593 C130 1.270 . S
