# Generated by pormake.
# Topology llj, (12,3)-cn, num edge types: 1
# Building blocks:
#     Node 0, Type 0, BuildingBlock: QEWDON_clean_sbu_0, # of connection points: 12
#     Node 1, Type 0, BuildingBlock: QEWDON_clean_sbu_0, # of connection points: 12
#     Node 2, Type 1, BuildingBlock: QEWDON_clean_linker_0, # of connection points: 3
#     Node 3, Type 1, BuildingBlock: QEWDON_clean_linker_0, # of connection points: 3
#     Node 4, Type 1, BuildingBlock: QEWDON_clean_linker_0, # of connection points: 3
#     Node 5, Type 1, BuildingBlock: QEWDON_clean_linker_0, # of connection points: 3
#     Node 6, Type 1, BuildingBlock: QEWDON_clean_linker_0, # of connection points: 3
#     Node 7, Type 1, BuildingBlock: QEWDON_clean_linker_0, # of connection points: 3
#     Node 8, Type 1, BuildingBlock: QEWDON_clean_linker_0, # of connection points: 3
#     Node 9, Type 1, BuildingBlock: QEWDON_clean_linker_0, # of connection points: 3
#     Edge 10, Type (0, 1), BuildingBlock: MIFKUJ_clean_linker_0, # of connection points: 2
#     Edge 11, Type (0, 1), BuildingBlock: MIFKUJ_clean_linker_0, # of connection points: 2
#     Edge 12, Type (0, 1), BuildingBlock: MIFKUJ_clean_linker_0, # of connection points: 2
#     Edge 13, Type (0, 1), BuildingBlock: MIFKUJ_clean_linker_0, # of connection points: 2
#     Edge 14, Type (0, 1), BuildingBlock: MIFKUJ_clean_linker_0, # of connection points: 2
#     Edge 15, Type (0, 1), BuildingBlock: MIFKUJ_clean_linker_0, # of connection points: 2
#     Edge 16, Type (0, 1), BuildingBlock: MIFKUJ_clean_linker_0, # of connection points: 2
#     Edge 17, Type (0, 1), BuildingBlock: MIFKUJ_clean_linker_0, # of connection points: 2
#     Edge 18, Type (0, 1), BuildingBlock: MIFKUJ_clean_linker_0, # of connection points: 2
#     Edge 19, Type (0, 1), BuildingBlock: MIFKUJ_clean_linker_0, # of connection points: 2
#     Edge 20, Type (0, 1), BuildingBlock: MIFKUJ_clean_linker_0, # of connection points: 2
#     Edge 21, Type (0, 1), BuildingBlock: MIFKUJ_clean_linker_0, # of connection points: 2
#     Edge 22, Type (0, 1), BuildingBlock: MIFKUJ_clean_linker_0, # of connection points: 2
#     Edge 23, Type (0, 1), BuildingBlock: MIFKUJ_clean_linker_0, # of connection points: 2
#     Edge 24, Type (0, 1), BuildingBlock: MIFKUJ_clean_linker_0, # of connection points: 2
#     Edge 25, Type (0, 1), BuildingBlock: MIFKUJ_clean_linker_0, # of connection points: 2
#     Edge 26, Type (0, 1), BuildingBlock: MIFKUJ_clean_linker_0, # of connection points: 2
#     Edge 27, Type (0, 1), BuildingBlock: MIFKUJ_clean_linker_0, # of connection points: 2
#     Edge 28, Type (0, 1), BuildingBlock: MIFKUJ_clean_linker_0, # of connection points: 2
#     Edge 29, Type (0, 1), BuildingBlock: MIFKUJ_clean_linker_0, # of connection points: 2
#     Edge 30, Type (0, 1), BuildingBlock: MIFKUJ_clean_linker_0, # of connection points: 2
#     Edge 31, Type (0, 1), BuildingBlock: MIFKUJ_clean_linker_0, # of connection points: 2
#     Edge 32, Type (0, 1), BuildingBlock: MIFKUJ_clean_linker_0, # of connection points: 2
#     Edge 33, Type (0, 1), BuildingBlock: MIFKUJ_clean_linker_0, # of connection points: 2
# Relax obj value: 0.027
# Max RMSD: 0.179
# Mean RMSD: 0.154
data_MOF--net-llj--node1-QEWDON_clean_sbu_0--node2-QEWDON_clean_linker_0--edge1-MIFKUJ_clean_linker_0
_symmetry_space_group_name_H-M    P1
_symmetry_Int_Tables_number       1
_symmetry_cell_setting            triclinic
loop_
_symmetry_equiv_pos_as_xyz
'x, y, z'
_cell_length_a     52.090716
_cell_length_b     52.095655
_cell_length_c     30.982198
_cell_angle_alpha  91.115341
_cell_angle_beta   90.991522
_cell_angle_gamma 90.039945
loop_
_atom_site_label
_atom_site_type_symbol
_atom_site_fract_x
_atom_site_fract_y
_atom_site_fract_z
_atom_type_partial_charge
Zn0 Zn 0.95706 0.06853 0.97564 0.0
Zn1 Zn 0.96347 0.06246 0.07724 0.0
O2 O 0.98217 0.05748 0.02224 0.0
H3 H 0.99494 0.04437 0.01732 0.0
C4 C 0.94342 0.00111 0.88186 0.0
O5 O 0.96697 0.00421 0.89689 0.0
Zn6 Zn 0.0299 0.95245 0.05358 0.0
Zn7 Zn 0.03192 0.95407 0.95005 0.0
O8 O 0.0094 0.96199 0.00135 0.0
H9 H 0.99478 0.97338 0.00084 0.0
Zn10 Zn 0.93744 0.96873 0.95839 0.0
O11 O 0.94408 0.99368 0.00835 0.0
Zn12 Zn 0.93938 0.97251 0.06027 0.0
H13 H 0.95378 0.00944 0.00674 0.0
Zn14 Zn 0.05511 0.04419 0.96271 0.0
O15 O 0.04262 0.02275 0.01156 0.0
H16 H 0.02923 0.01002 0.00818 0.0
Zn17 Zn 0.0526 0.04114 0.06658 0.0
C18 C 0.04914 0.01246 0.88305 0.0
O19 O 0.02481 0.01232 0.89346 0.0
O20 O 0.92998 0.09367 0.99896 0.0
O21 O 0.93506 0.08912 0.0699 0.0
O22 O 0.06337 0.9318 0.96582 0.0
O23 O 0.05892 0.92858 0.03691 0.0
O24 O 0.91483 0.93787 0.97506 0.0
O25 O 0.91471 0.94308 0.04652 0.0
C26 C 0.01271 0.07036 0.12051 0.0
O27 O 0.07956 0.07279 0.98371 0.0
O28 O 0.07766 0.07036 0.0553 0.0
O29 O 0.01268 0.94441 0.8929 0.0
C30 C 0.92401 0.09963 0.03762 0.0
O31 O 0.97226 0.07576 0.91569 0.0
C32 C 0.98281 0.93974 0.09649 0.0
O33 O 0.92812 0.98645 0.90133 0.0
C34 C 0.07051 0.92281 0.00207 0.0
O35 O 0.06518 0.02477 0.90686 0.0
C36 C 0.931 0.01876 0.1119 0.0
O37 O 0.98896 0.07563 0.12316 0.0
O38 O 0.01955 0.05504 0.09041 0.0
C39 C 0.90722 0.9312 0.01211 0.0
O40 O 0.00645 0.93409 0.09419 0.0
O41 O 0.9745 0.95848 0.07457 0.0
C42 C 0.06274 0.99195 0.10402 0.0
O43 O 0.92454 0.99534 0.10715 0.0
O44 O 0.94878 0.02733 0.08854 0.0
C45 C 0.08647 0.08052 0.02141 0.0
O46 O 0.06931 0.01542 0.10655 0.0
O47 O 0.04486 0.98564 0.07739 0.0
C48 C 0.99001 0.93554 0.89495 0.0
O49 O 0.9795 0.93332 0.93295 0.0
C50 C 0.99652 0.07769 0.91369 0.0
O51 O 0.01045 0.07457 0.94893 0.0
Zn52 Zn 0.45374 0.56378 0.45865 0.0
Zn53 Zn 0.46527 0.5632 0.5597 0.0
O54 O 0.48261 0.55886 0.5032 0.0
H55 H 0.49844 0.54979 0.49788 0.0
C56 C 0.43473 0.50053 0.37201 0.0
O57 O 0.4589 0.50441 0.38312 0.0
Zn58 Zn 0.53761 0.4522 0.55035 0.0
Zn59 Zn 0.53475 0.43211 0.45176 0.0
O60 O 0.51923 0.45719 0.49421 0.0
H61 H 0.50871 0.47181 0.48691 0.0
Zn62 Zn 0.43523 0.46939 0.44989 0.0
O63 O 0.44582 0.49455 0.49803 0.0
Zn64 Zn 0.44516 0.47271 0.55 0.0
H65 H 0.45632 0.50961 0.49419 0.0
Zn66 Zn 0.56451 0.5513 0.45277 0.0
O67 O 0.54999 0.52797 0.49786 0.0
H68 H 0.53773 0.51433 0.49235 0.0
Zn69 Zn 0.5567 0.54507 0.55482 0.0
C70 C 0.57887 0.5089 0.39504 0.0
O71 O 0.56938 0.4957 0.42677 0.0
O72 O 0.42314 0.58461 0.48254 0.0
O73 O 0.43471 0.58722 0.55193 0.0
O74 O 0.56384 0.41008 0.47751 0.0
O75 O 0.56587 0.42523 0.54518 0.0
O76 O 0.41506 0.43795 0.47061 0.0
O77 O 0.41922 0.44387 0.54159 0.0
C78 C 0.51411 0.57299 0.60355 0.0
O79 O 0.58473 0.58221 0.47905 0.0
O80 O 0.58084 0.57566 0.54947 0.0
O81 O 0.51037 0.41601 0.40531 0.0
C82 C 0.4196 0.5931 0.52084 0.0
O83 O 0.4659 0.57368 0.39785 0.0
C84 C 0.48842 0.44549 0.58996 0.0
O85 O 0.42104 0.48601 0.39468 0.0
C86 C 0.57378 0.41002 0.51541 0.0
O87 O 0.57894 0.53329 0.39785 0.0
C88 C 0.44076 0.51752 0.60591 0.0
O89 O 0.4903 0.57832 0.60443 0.0
O90 O 0.52177 0.55697 0.57504 0.0
C91 C 0.40983 0.4316 0.50897 0.0
O92 O 0.51208 0.4401 0.59373 0.0
O93 O 0.48077 0.45906 0.55874 0.0
C94 C 0.56902 0.49546 0.59306 0.0
O95 O 0.43547 0.49374 0.60233 0.0
O96 O 0.45336 0.52772 0.57583 0.0
C97 C 0.58974 0.58844 0.51832 0.0
O98 O 0.57399 0.51931 0.59379 0.0
O99 O 0.55167 0.48713 0.56702 0.0
C100 C 0.49401 0.42998 0.38597 0.0
O101 O 0.49311 0.45465 0.39547 0.0
C102 C 0.48019 0.59343 0.39725 0.0
O103 O 0.48549 0.60565 0.43384 0.0
H104 H 0.3497 0.28312 0.0408 0.0
C105 C 0.3547 0.29403 0.01272 0.0
C106 C 0.36459 0.31904 0.01796 0.0
C107 C 0.35214 0.2826 0.97147 0.0
H108 H 0.37866 0.35208 0.98484 0.0
C109 C 0.37094 0.33286 0.98107 0.0
C110 C 0.36846 0.32172 0.93948 0.0
C111 C 0.35906 0.29652 0.93513 0.0
C112 C 0.34333 0.25567 0.96627 0.0
H113 H 0.35758 0.28741 0.90343 0.0
C114 C 0.3209 0.24735 0.9864 0.0
C115 C 0.31196 0.22201 0.98011 0.0
C116 C 0.35717 0.23826 0.9405 0.0
H117 H 0.37465 0.24415 0.92502 0.0
C118 C 0.34868 0.21304 0.93467 0.0
H119 H 0.31025 0.26076 0.0064 0.0
C120 C 0.32618 0.20495 0.95408 0.0
H121 H 0.31965 0.18548 0.94781 0.0
H122 H 0.35941 0.19977 0.91463 0.0
H123 H 0.73667 0.37974 0.06233 0.0
C124 C 0.72683 0.38194 0.0315 0.0
C125 C 0.70205 0.39257 0.03 0.0
C126 C 0.73956 0.37589 0.99297 0.0
H127 H 0.67052 0.40419 0.98873 0.0
C128 C 0.68959 0.39584 0.98998 0.0
C129 C 0.70198 0.38948 0.95153 0.0
C130 C 0.72702 0.3798 0.95313 0.0
C131 C 0.76644 0.36674 0.99356 0.0
H132 H 0.73675 0.37526 0.92327 0.0
C133 C 0.77356 0.34469 0.01633 0.0
C134 C 0.79857 0.33449 0.01289 0.0
C135 C 0.78475 0.37935 0.9689 0.0
H136 H 0.77969 0.39647 0.95135 0.0
C137 C 0.80965 0.36985 0.96622 0.0
H138 H 0.75937 0.3352 0.03558 0.0
C139 C 0.81646 0.34746 0.98747 0.0
H140 H 0.83561 0.34002 0.98276 0.0
H141 H 0.82357 0.37954 0.94673 0.0
H142 H 0.68744 0.68317 0.95879 0.0
C143 C 0.67292 0.67902 0.98232 0.0
C144 C 0.6477 0.67302 0.96852 0.0
C145 C 0.67959 0.67874 0.02644 0.0
H146 H 0.61012 0.66116 0.98855 0.0
C147 C 0.62923 0.66692 0.99929 0.0
C148 C 0.63568 0.66644 0.04343 0.0
C149 C 0.66086 0.67268 0.05664 0.0
C150 C 0.70638 0.6831 0.04165 0.0
H151 H 0.66605 0.67275 0.09069 0.0
C152 C 0.71944 0.70604 0.0329 0.0
C153 C 0.74376 0.71092 0.05188 0.0
C154 C 0.71833 0.66473 0.06787 0.0
H155 H 0.70866 0.6469 0.07484 0.0
C156 C 0.74269 0.66929 0.08571 0.0
H157 H 0.71025 0.72049 0.01326 0.0
C158 C 0.75526 0.69236 0.07817 0.0
H159 H 0.77402 0.69575 0.09288 0.0
H160 H 0.7517 0.65507 0.10596 0.0
H161 H 0.27166 0.64588 0.06264 0.0
C162 C 0.2804 0.6422 0.03162 0.0
C163 C 0.30505 0.63138 0.02965 0.0
C164 C 0.26657 0.64759 0.99361 0.0
H165 H 0.33419 0.61674 0.98704 0.0
C166 C 0.31562 0.62604 0.98911 0.0
C167 C 0.30188 0.63125 0.95097 0.0
C168 C 0.27745 0.64241 0.95327 0.0
C169 C 0.2396 0.65566 0.99637 0.0
H170 H 0.2664 0.64573 0.92392 0.0
C171 C 0.23292 0.68175 0.99573 0.0
C172 C 0.20719 0.68923 0.00095 0.0
C173 C 0.22053 0.63703 0.00153 0.0
H174 H 0.22548 0.61684 0.00222 0.0
C175 C 0.19496 0.64434 0.00615 0.0
H176 H 0.24777 0.69612 0.99234 0.0
C177 C 0.18829 0.67027 0.00604 0.0
H178 H 0.16831 0.67552 0.00965 0.0
H179 H 0.18029 0.62988 0.01007 0.0
H180 H 0.87678 0.77512 0.55514 0.0
C181 C 0.87682 0.7833 0.52322 0.0
C182 C 0.88365 0.80914 0.51805 0.0
C183 C 0.87099 0.76757 0.48719 0.0
H184 H 0.88919 0.83906 0.47183 0.0
C185 C 0.88395 0.81915 0.47628 0.0
C186 C 0.87832 0.80345 0.43998 0.0
C187 C 0.872 0.77756 0.44559 0.0
C188 C 0.86449 0.74043 0.49319 0.0
H189 H 0.86785 0.76524 0.41772 0.0
C190 C 0.83902 0.73326 0.50061 0.0
C191 C 0.83272 0.7074 0.50739 0.0
C192 C 0.88382 0.72174 0.49252 0.0
H193 H 0.90357 0.72707 0.48693 0.0
C194 C 0.87772 0.69605 0.49933 0.0
H195 H 0.82423 0.74788 0.50155 0.0
C196 C 0.85236 0.68887 0.50678 0.0
H197 H 0.84805 0.66877 0.51137 0.0
H198 H 0.89269 0.68165 0.49875 0.0
H199 H 0.2022 0.86041 0.58055 0.0
C200 C 0.19432 0.86245 0.54818 0.0
C201 C 0.16906 0.87138 0.54203 0.0
C202 C 0.20999 0.85736 0.51275 0.0
H203 H 0.14031 0.88176 0.49441 0.0
C204 C 0.15939 0.87401 0.49968 0.0
C205 C 0.17498 0.86894 0.46395 0.0
C206 C 0.20036 0.86074 0.47076 0.0
C207 C 0.23733 0.85139 0.51984 0.0
H208 H 0.21278 0.85747 0.44347 0.0
C209 C 0.24536 0.82615 0.52759 0.0
C210 C 0.27158 0.82072 0.53459 0.0
C211 C 0.25545 0.87126 0.51922 0.0
H212 H 0.24947 0.89082 0.51331 0.0
C213 C 0.28141 0.86604 0.5264 0.0
H214 H 0.23123 0.81089 0.52823 0.0
C215 C 0.28948 0.84096 0.534 0.0
H216 H 0.30981 0.83736 0.53853 0.0
H217 H 0.29535 0.88144 0.52579 0.0
H218 H 0.19117 0.18099 0.46904 0.0
C219 C 0.17709 0.17696 0.49337 0.0
C220 C 0.15192 0.16985 0.48095 0.0
C221 C 0.18431 0.17797 0.53727 0.0
H222 H 0.11523 0.15686 0.50305 0.0
C223 C 0.13415 0.16371 0.51283 0.0
C224 C 0.14107 0.16466 0.55682 0.0
C225 C 0.16614 0.17227 0.56861 0.0
C226 C 0.21122 0.18281 0.55124 0.0
H227 H 0.17182 0.17353 0.6024 0.0
C228 C 0.22357 0.20619 0.54286 0.0
C229 C 0.24803 0.2114 0.56106 0.0
C230 C 0.22397 0.16439 0.57628 0.0
H231 H 0.21481 0.14626 0.58302 0.0
C232 C 0.24847 0.16931 0.59331 0.0
H233 H 0.21375 0.22068 0.52413 0.0
C234 C 0.26035 0.19278 0.58616 0.0
H235 H 0.27921 0.19645 0.60027 0.0
H236 H 0.25809 0.15504 0.61268 0.0
H237 H 0.77493 0.14012 0.58458 0.0
C238 C 0.78331 0.13791 0.55294 0.0
C239 C 0.80947 0.13159 0.54914 0.0
C240 C 0.76769 0.14039 0.51585 0.0
H241 H 0.83977 0.12291 0.50442 0.0
C242 C 0.81991 0.12871 0.50781 0.0
C243 C 0.80444 0.13116 0.47067 0.0
C244 C 0.77836 0.13688 0.4749 0.0
C245 C 0.74001 0.14604 0.519 0.0
H246 H 0.76631 0.13868 0.44622 0.0
C247 C 0.73164 0.16909 0.53834 0.0
C248 C 0.70565 0.17668 0.53486 0.0
C249 C 0.7221 0.12955 0.49861 0.0
H250 H 0.72822 0.11169 0.48356 0.0
C251 C 0.69625 0.13626 0.49658 0.0
H252 H 0.7457 0.18141 0.55444 0.0
C253 C 0.68811 0.15975 0.51378 0.0
H254 H 0.66816 0.16483 0.50895 0.0
H255 H 0.68258 0.12358 0.48028 0.0
H256 H 0.09739 0.1125 0.09093 0.0
H257 H 0.13139 0.14526 0.09645 0.0
H258 H 0.15543 0.12468 0.96772 0.0
H259 H 0.1211 0.09332 0.96126 0.0
H260 H 0.18099 0.1429 0.09559 0.0
H261 H 0.1786 0.16911 0.91475 0.0
H262 H 0.14643 0.17285 0.8561 0.0
H263 H 0.08841 0.19128 0.94846 0.0
H264 H 0.12027 0.18737 0.00786 0.0
H265 H 0.30055 0.17537 0.01445 0.0
H266 H 0.25864 0.15971 0.03547 0.0
H267 H 0.22565 0.23412 0.01114 0.0
H268 H 0.26727 0.24947 0.98739 0.0
H269 H 0.19791 0.20028 0.97334 0.0
H270 H 0.22999 0.2089 0.1159 0.0
H271 H 0.26066 0.20538 0.17697 0.0
H272 H 0.2567 0.12315 0.16723 0.0
H273 H 0.2263 0.12613 0.10568 0.0
C274 C 0.10978 0.11532 0.0637 0.0
C275 C 0.10638 0.10064 0.02545 0.0
C276 C 0.12918 0.13396 0.0669 0.0
C277 C 0.14554 0.13796 0.03206 0.0
C278 C 0.14246 0.12276 0.99442 0.0
C279 C 0.12288 0.10466 0.99086 0.0
C280 C 0.16668 0.15708 0.03494 0.0
C281 C 0.18457 0.15573 0.06921 0.0
C282 C 0.17093 0.1745 0.00128 0.0
C283 C 0.15186 0.17803 0.96572 0.0
C284 C 0.15905 0.17425 0.92253 0.0
C285 C 0.14083 0.17629 0.88915 0.0
C286 C 0.11539 0.18246 0.89846 0.0
C287 C 0.10812 0.18653 0.94127 0.0
C288 C 0.12624 0.18431 0.97483 0.0
C289 C 0.28441 0.18846 0.01365 0.0
C290 C 0.28727 0.21361 0.99873 0.0
C291 C 0.26048 0.17959 0.02643 0.0
C292 C 0.23895 0.1958 0.0254 0.0
C293 C 0.24198 0.22127 0.01238 0.0
C294 C 0.26588 0.23009 0.99912 0.0
C295 C 0.21298 0.18516 0.03292 0.0
C296 C 0.1941 0.18811 0.00051 0.0
C297 C 0.20763 0.16974 0.06884 0.0
C298 C 0.22589 0.16776 0.106 0.0
C299 C 0.23577 0.19005 0.12658 0.0
C300 C 0.2531 0.18815 0.16133 0.0
C301 C 0.26064 0.16406 0.17595 0.0
C302 C 0.25083 0.1418 0.15589 0.0
C303 C 0.2335 0.14359 0.12111 0.0
H304 H 0.27406 0.16263 0.20285 0.0
H305 H 0.10131 0.18401 0.87254 0.0
H306 H 0.90423 0.11673 0.11448 0.0
H307 H 0.87423 0.15228 0.12607 0.0
H308 H 0.87304 0.16626 0.98915 0.0
H309 H 0.90148 0.1301 0.97723 0.0
H310 H 0.87709 0.19932 0.11845 0.0
H311 H 0.82223 0.192 0.95108 0.0
H312 H 0.80425 0.15789 0.90322 0.0
H313 H 0.80032 0.10706 0.01035 0.0
H314 H 0.81785 0.14101 0.05901 0.0
H315 H 0.84574 0.31965 0.04496 0.0
H316 H 0.85918 0.27691 0.06427 0.0
H317 H 0.78089 0.25019 0.05103 0.0
H318 H 0.76781 0.29228 0.02626 0.0
H319 H 0.80604 0.21779 0.01516 0.0
H320 H 0.81762 0.25333 0.15325 0.0
H321 H 0.83013 0.28418 0.2112 0.0
H322 H 0.90962 0.27339 0.18133 0.0
H323 H 0.89761 0.24277 0.12276 0.0
C324 C 0.89708 0.12706 0.08683 0.0
C325 C 0.90497 0.12031 0.04492 0.0
C326 C 0.88006 0.14751 0.09347 0.0
C327 C 0.8708 0.16173 0.05842 0.0
C328 C 0.87898 0.1551 0.01666 0.0
C329 C 0.89553 0.13446 0.00994 0.0
C330 C 0.85408 0.1846 0.06505 0.0
C331 C 0.86135 0.20327 0.09623 0.0
C332 C 0.83258 0.18932 0.03778 0.0
C333 C 0.82153 0.16902 0.00866 0.0
C334 C 0.81735 0.17362 0.96451 0.0
C335 C 0.80728 0.15429 0.93722 0.0
C336 C 0.8012 0.13031 0.95372 0.0
C337 C 0.80511 0.12562 0.99759 0.0
C338 C 0.81515 0.14488 0.02502 0.0
C339 C 0.8313 0.30473 0.04573 0.0
C340 C 0.80572 0.30956 0.03294 0.0
C341 C 0.83896 0.28024 0.05797 0.0
C342 C 0.82109 0.26009 0.05973 0.0
C343 C 0.79519 0.26526 0.04982 0.0
C344 C 0.78763 0.2896 0.03617 0.0
C345 C 0.83007 0.23328 0.06685 0.0
C346 C 0.82131 0.21377 0.03827 0.0
C347 C 0.84919 0.22733 0.09821 0.0
C348 C 0.85667 0.24577 0.13344 0.0
C349 C 0.83777 0.25764 0.15884 0.0
C350 C 0.84477 0.27508 0.19183 0.0
C351 C 0.87065 0.28075 0.19992 0.0
C352 C 0.88958 0.26896 0.17505 0.0
C353 C 0.88268 0.25151 0.142 0.0
H354 H 0.87603 0.29426 0.22547 0.0
H355 H 0.79344 0.11537 0.93252 0.0
H356 H 0.89134 0.89754 0.94798 0.0
H357 H 0.86098 0.86202 0.95352 0.0
H358 H 0.85061 0.88082 0.08829 0.0
H359 H 0.88134 0.91602 0.08336 0.0
H360 H 0.85872 0.83066 0.07571 0.0
H361 H 0.80413 0.89442 0.01235 0.0
H362 H 0.79171 0.92649 0.95837 0.0
H363 H 0.79226 0.86824 0.85842 0.0
H364 H 0.80502 0.83586 0.91173 0.0
H365 H 0.75815 0.74534 0.11436 0.0
H366 H 0.78345 0.78448 0.10639 0.0
H367 H 0.78588 0.77043 0.96868 0.0
H368 H 0.75939 0.73184 0.97663 0.0
H369 H 0.78133 0.81892 0.98216 0.0
H370 H 0.83607 0.75499 0.0423 0.0
H371 H 0.85212 0.72266 0.09313 0.0
H372 H 0.8562 0.77994 0.19457 0.0
H373 H 0.83958 0.81249 0.14467 0.0
C374 C 0.88255 0.89419 0.9788 0.0
C375 C 0.88881 0.90964 0.01524 0.0
C376 C 0.86505 0.87398 0.98181 0.0
C377 C 0.85325 0.86899 0.02117 0.0
C378 C 0.85937 0.88442 0.05753 0.0
C379 C 0.87701 0.90451 0.05466 0.0
C380 C 0.83557 0.84684 0.0251 0.0
C381 C 0.84167 0.82821 0.05559 0.0
C382 C 0.81365 0.84336 0.99801 0.0
C383 C 0.80575 0.86276 0.96599 0.0
C384 C 0.80178 0.88848 0.97881 0.0
C385 C 0.79465 0.90671 0.94834 0.0
C386 C 0.79126 0.89942 0.90497 0.0
C387 C 0.79492 0.87386 0.89201 0.0
C388 C 0.80207 0.85556 0.92235 0.0
C389 C 0.7639 0.75084 0.08239 0.0
C390 C 0.75705 0.73565 0.0461 0.0
C391 C 0.77851 0.77306 0.07785 0.0
C392 C 0.78722 0.7801 0.03707 0.0
C393 C 0.77955 0.76536 0.00053 0.0
C394 C 0.76444 0.74336 0.005 0.0
C395 C 0.80466 0.80251 0.03273 0.0
C396 C 0.79849 0.82124 0.00219 0.0
C397 C 0.8269 0.80591 0.05934 0.0
C398 C 0.83614 0.78612 0.08982 0.0
C399 C 0.84001 0.76063 0.07559 0.0
C400 C 0.84927 0.74227 0.10424 0.0
C401 C 0.85505 0.74921 0.14711 0.0
C402 C 0.85159 0.77455 0.16142 0.0
C403 C 0.8422 0.79295 0.13298 0.0
H404 H 0.86231 0.73498 0.16918 0.0
H405 H 0.78575 0.91356 0.88143 0.0
H406 H 0.10784 0.91457 0.94235 0.0
H407 H 0.13968 0.88005 0.94128 0.0
H408 H 0.11115 0.85267 0.06202 0.0
H409 H 0.08031 0.88781 0.06442 0.0
H410 H 0.16131 0.84797 0.06084 0.0
H411 H 0.09089 0.82775 0.96018 0.0
H412 H 0.06294 0.83657 0.89707 0.0
H413 H 0.12872 0.83765 0.81551 0.0
H414 H 0.1571 0.82916 0.87827 0.0
H415 H 0.17675 0.71391 0.05892 0.0
H416 H 0.16213 0.75844 0.05775 0.0
H417 H 0.20639 0.77122 0.94372 0.0
H418 H 0.22102 0.72641 0.94462 0.0
H419 H 0.15629 0.78745 0.9353 0.0
H420 H 0.22539 0.79891 0.03574 0.0
H421 H 0.25263 0.79013 0.09958 0.0
H422 H 0.18899 0.80522 0.18253 0.0
H423 H 0.16121 0.81366 0.11917 0.0
C424 C 0.10864 0.90138 0.96895 0.0
C425 C 0.09142 0.90372 0.00326 0.0
C426 C 0.12676 0.88163 0.96821 0.0
C427 C 0.12745 0.86346 0.00112 0.0
C428 C 0.11093 0.86639 0.03619 0.0
C429 C 0.09326 0.88648 0.03748 0.0
C430 C 0.14413 0.84047 0.99814 0.0
C431 C 0.16015 0.83466 0.0335 0.0
C432 C 0.14325 0.82354 0.96179 0.0
C433 C 0.12612 0.82807 0.92395 0.0
C434 C 0.09939 0.82997 0.92881 0.0
C435 C 0.08348 0.8349 0.89311 0.0
C436 C 0.09405 0.8377 0.85233 0.0
C437 C 0.12056 0.8355 0.84713 0.0
C438 C 0.13656 0.83061 0.88273 0.0
C439 C 0.18346 0.72625 0.03373 0.0
C440 C 0.1999 0.71671 0.00173 0.0
C441 C 0.17529 0.75173 0.03331 0.0
C442 C 0.18336 0.76817 0.00086 0.0
C443 C 0.20007 0.75884 0.96916 0.0
C444 C 0.20847 0.73334 0.9698 0.0
C445 C 0.17274 0.79449 0.99872 0.0
C446 C 0.15786 0.80094 0.96235 0.0
C447 C 0.17452 0.8119 0.03428 0.0
C448 C 0.19114 0.80673 0.07258 0.0
C449 C 0.21711 0.80013 0.06755 0.0
C450 C 0.23267 0.79525 0.10368 0.0
C451 C 0.22253 0.79706 0.14508 0.0
C452 C 0.19681 0.8038 0.15044 0.0
C453 C 0.18115 0.80866 0.11442 0.0
H454 H 0.23462 0.79329 0.17301 0.0
H455 H 0.08172 0.84153 0.82473 0.0
H456 H 0.6222 0.59361 0.58813 0.0
H457 H 0.65994 0.62125 0.5941 0.0
H458 H 0.63728 0.65829 0.47593 0.0
H459 H 0.60031 0.62962 0.46866 0.0
H460 H 0.68198 0.64165 0.46693 0.0
H461 H 0.64737 0.69637 0.58147 0.0
H462 H 0.62746 0.70782 0.65099 0.0
H463 H 0.6814 0.6599 0.71779 0.0
H464 H 0.70231 0.64902 0.64886 0.0
H465 H 0.78985 0.72352 0.46372 0.0
H466 H 0.74554 0.70932 0.47274 0.0
H467 H 0.77014 0.65938 0.57484 0.0
H468 H 0.81451 0.67388 0.56658 0.0
H469 H 0.72425 0.68506 0.59304 0.0
H470 H 0.76086 0.63458 0.47751 0.0
H471 H 0.78315 0.628 0.40859 0.0
H472 H 0.72356 0.66921 0.34217 0.0
H473 H 0.7011 0.67636 0.41085 0.0
C474 C 0.62493 0.6081 0.56401 0.0
C475 C 0.60864 0.60912 0.52744 0.0
C476 C 0.64646 0.62413 0.56766 0.0
C477 C 0.65167 0.6419 0.53536 0.0
C478 C 0.63391 0.64456 0.50105 0.0
C479 C 0.61277 0.62816 0.49687 0.0
C480 C 0.67737 0.65432 0.53315 0.0
C481 C 0.69083 0.65171 0.49434 0.0
C482 C 0.68962 0.66657 0.56914 0.0
C483 C 0.67619 0.67171 0.61009 0.0
C484 C 0.65484 0.68814 0.61097 0.0
C485 C 0.64353 0.69469 0.65027 0.0
C486 C 0.65304 0.68444 0.68869 0.0
C487 C 0.67402 0.66777 0.68798 0.0
C488 C 0.68576 0.66161 0.64889 0.0
C489 C 0.78578 0.7098 0.48853 0.0
C490 C 0.80569 0.69969 0.51427 0.0
C491 C 0.76049 0.70162 0.49349 0.0
C492 C 0.75464 0.68314 0.5242 0.0
C493 C 0.7743 0.67363 0.55093 0.0
C494 C 0.79963 0.68174 0.54588 0.0
C495 C 0.72825 0.67275 0.52679 0.0
C496 C 0.71498 0.6754 0.56562 0.0
C497 C 0.71604 0.66066 0.49073 0.0
C498 C 0.72945 0.65624 0.44938 0.0
C499 C 0.75262 0.64242 0.44826 0.0
C500 C 0.76526 0.63856 0.40924 0.0
C501 C 0.75481 0.64824 0.37105 0.0
C502 C 0.73165 0.66175 0.37179 0.0
C503 C 0.71895 0.6657 0.41074 0.0
H504 H 0.76463 0.64523 0.34086 0.0
H505 H 0.64428 0.68958 0.71903 0.0
H506 H 0.41559 0.6274 0.58803 0.0
H507 H 0.38425 0.66176 0.59602 0.0
H508 H 0.3442 0.63443 0.48087 0.0
H509 H 0.37645 0.60086 0.47138 0.0
H510 H 0.35103 0.68208 0.47469 0.0
H511 H 0.31887 0.63129 0.5896 0.0
H512 H 0.32135 0.60624 0.65631 0.0
H513 H 0.35031 0.67225 0.72655 0.0
H514 H 0.34809 0.69772 0.66025 0.0
H515 H 0.25595 0.77729 0.49046 0.0
H516 H 0.27442 0.73425 0.49489 0.0
H517 H 0.32656 0.76076 0.59585 0.0
H518 H 0.30772 0.80369 0.59243 0.0
H519 H 0.30932 0.71134 0.60968 0.0
H520 H 0.34586 0.75992 0.49438 0.0
H521 H 0.3442 0.78548 0.42822 0.0
H522 H 0.30785 0.7227 0.35914 0.0
H523 H 0.30897 0.69689 0.42513 0.0
C524 C 0.39989 0.62847 0.56475 0.0
C525 C 0.39861 0.61157 0.52884 0.0
C526 C 0.38179 0.64804 0.56957 0.0
C527 C 0.36158 0.65063 0.53933 0.0
C528 C 0.35962 0.63293 0.5046 0.0
C529 C 0.37805 0.61372 0.49921 0.0
C530 C 0.34421 0.67326 0.54128 0.0
C531 C 0.34141 0.68801 0.50402 0.0
C532 C 0.33224 0.68162 0.57984 0.0
C533 C 0.33342 0.66638 0.61985 0.0
C534 C 0.32589 0.64044 0.6192 0.0
C535 C 0.32724 0.62617 0.65695 0.0
C536 C 0.33605 0.63765 0.69555 0.0
C537 C 0.34348 0.66342 0.69658 0.0
C538 C 0.3421 0.6778 0.65897 0.0
C539 C 0.27092 0.77382 0.51432 0.0
C540 C 0.28059 0.79397 0.54075 0.0
C541 C 0.28155 0.74925 0.51665 0.0
C542 C 0.30209 0.74443 0.5453 0.0
C543 C 0.31077 0.7641 0.57345 0.0
C544 C 0.30017 0.78867 0.57113 0.0
C545 C 0.31616 0.71972 0.5431 0.0
C546 C 0.31852 0.70487 0.58027 0.0
C547 C 0.32778 0.71116 0.50451 0.0
C548 C 0.32722 0.7266 0.46478 0.0
C549 C 0.33733 0.75165 0.46516 0.0
C550 C 0.33651 0.76616 0.42769 0.0
C551 C 0.32585 0.75575 0.38953 0.0
C552 C 0.31605 0.73076 0.38874 0.0
C553 C 0.31677 0.71618 0.42616 0.0
H554 H 0.32524 0.76701 0.36054 0.0
H555 H 0.33699 0.62665 0.72472 0.0
H556 H 0.38588 0.41876 0.58348 0.0
H557 H 0.35617 0.38315 0.59392 0.0
H558 H 0.36468 0.35927 0.46095 0.0
H559 H 0.39394 0.3951 0.44986 0.0
H560 H 0.31575 0.35805 0.48263 0.0
H561 H 0.39596 0.32951 0.55 0.0
H562 H 0.4321 0.33502 0.60191 0.0
H563 H 0.37951 0.33699 0.70707 0.0
H564 H 0.34301 0.33198 0.65575 0.0
H565 H 0.26465 0.2322 0.48654 0.0
H566 H 0.29034 0.27128 0.47934 0.0
H567 H 0.28508 0.2861 0.61658 0.0
H568 H 0.26064 0.2463 0.62384 0.0
H569 H 0.3309 0.2939 0.59643 0.0
H570 H 0.25153 0.32232 0.53657 0.0
H571 H 0.21283 0.3215 0.4896 0.0
H572 H 0.25987 0.32428 0.37734 0.0
H573 H 0.29889 0.32476 0.42362 0.0
C574 C 0.38148 0.4059 0.55647 0.0
C575 C 0.39228 0.40976 0.5158 0.0
C576 C 0.36453 0.38555 0.56255 0.0
C577 C 0.3584 0.36839 0.52842 0.0
C578 C 0.3691 0.37227 0.48778 0.0
C579 C 0.38585 0.39275 0.48151 0.0
C580 C 0.34074 0.34645 0.53476 0.0
C581 C 0.31922 0.3438 0.50712 0.0
C582 C 0.34464 0.32854 0.56806 0.0
C583 C 0.36672 0.33051 0.59897 0.0
C584 C 0.39209 0.33117 0.58418 0.0
C585 C 0.41264 0.33424 0.61351 0.0
C586 C 0.40809 0.33639 0.65775 0.0
C587 C 0.383 0.33532 0.67279 0.0
C588 C 0.36238 0.33235 0.6436 0.0
C589 C 0.26875 0.24408 0.51491 0.0
C590 C 0.26069 0.23647 0.55565 0.0
C591 C 0.28334 0.26645 0.51087 0.0
C592 C 0.28949 0.28193 0.54738 0.0
C593 C 0.28074 0.27453 0.58795 0.0
C594 C 0.26665 0.25192 0.59207 0.0
C595 C 0.30601 0.30512 0.54365 0.0
C596 C 0.32731 0.30809 0.57189 0.0
C597 C 0.30157 0.3237 0.51159 0.0
C598 C 0.27815 0.32332 0.48358 0.0
C599 C 0.25363 0.32255 0.50185 0.0
C600 C 0.23164 0.32218 0.47535 0.0
C601 C 0.23389 0.32277 0.43051 0.0
C602 C 0.25815 0.32379 0.41208 0.0
C603 C 0.28022 0.32413 0.43843 0.0
H604 H 0.21684 0.3225 0.41005 0.0
H605 H 0.42401 0.33887 0.68038 0.0
H606 H 0.59476 0.39892 0.59459 0.0
H607 H 0.62505 0.36458 0.61179 0.0
H608 H 0.62665 0.34209 0.47705 0.0
H609 H 0.59735 0.37677 0.45957 0.0
H610 H 0.62142 0.31736 0.60925 0.0
H611 H 0.6787 0.31366 0.44676 0.0
H612 H 0.69982 0.34381 0.39826 0.0
H613 H 0.70229 0.40124 0.49952 0.0
H614 H 0.68164 0.37127 0.5489 0.0
H615 H 0.65762 0.19206 0.56184 0.0
H616 H 0.64212 0.23542 0.57123 0.0
H617 H 0.71916 0.26449 0.55764 0.0
H618 H 0.73414 0.22156 0.54123 0.0
H619 H 0.69365 0.29229 0.5154 0.0
H620 H 0.68086 0.26776 0.65777 0.0
H621 H 0.66797 0.24142 0.71899 0.0
H622 H 0.58888 0.24771 0.67933 0.0
H623 H 0.60129 0.27377 0.61749 0.0
C624 C 0.60204 0.387 0.56853 0.0
C625 C 0.59373 0.39071 0.52567 0.0
C626 C 0.61925 0.36727 0.57845 0.0
C627 C 0.62856 0.35092 0.54573 0.0
C628 C 0.62046 0.35484 0.50286 0.0
C629 C 0.60343 0.3746 0.4929 0.0
C630 C 0.64502 0.32847 0.55627 0.0
C631 C 0.63742 0.31199 0.58908 0.0
C632 C 0.66672 0.32194 0.53156 0.0
C633 C 0.67843 0.34026 0.50146 0.0
C634 C 0.68379 0.3327 0.45873 0.0
C635 C 0.69573 0.34974 0.4311 0.0
C636 C 0.70247 0.37438 0.44587 0.0
C637 C 0.69707 0.38214 0.48816 0.0
C638 C 0.68518 0.36516 0.51593 0.0
C639 C 0.67136 0.20756 0.56009 0.0
C640 C 0.69716 0.20286 0.54954 0.0
C641 C 0.66249 0.23257 0.56682 0.0
C642 C 0.6794 0.25357 0.56567 0.0
C643 C 0.70553 0.2488 0.55839 0.0
C644 C 0.71422 0.22389 0.54971 0.0
C645 C 0.66934 0.2804 0.56712 0.0
C646 C 0.67808 0.29776 0.53643 0.0
C647 C 0.64974 0.28836 0.59564 0.0
C648 C 0.64206 0.27267 0.63282 0.0
C649 C 0.66073 0.26341 0.66193 0.0
C650 C 0.6535 0.24853 0.69677 0.0
C651 C 0.62762 0.24287 0.70302 0.0
C652 C 0.60892 0.25212 0.67446 0.0
C653 C 0.61604 0.26699 0.63955 0.0
H654 H 0.62207 0.23134 0.73001 0.0
H655 H 0.71191 0.38745 0.42452 0.0
H656 H 0.004 0.11066 0.1758 0.0
H657 H 0.03406 0.13105 0.22714 0.0
H658 H 0.09378 0.07936 0.18574 0.0
H659 H 0.06378 0.05894 0.13453 0.0
H660 H 0.08965 0.08194 0.27381 0.0
H661 H 0.0984 0.14021 0.15942 0.0
H662 H 0.08401 0.16899 0.10153 0.0
H663 H 0.04728 0.21788 0.19495 0.0
H664 H 0.06112 0.18916 0.25331 0.0
H665 H 0.17734 0.14332 0.41785 0.0
H666 H 0.16025 0.13031 0.34647 0.0
H667 H 0.09174 0.17458 0.36964 0.0
H668 H 0.10883 0.18781 0.44068 0.0
H669 H 0.10644 0.1757 0.28356 0.0
H670 H 0.09283 0.11353 0.3955 0.0
H671 H 0.10691 0.08437 0.453 0.0
H672 H 0.15306 0.04234 0.36246 0.0
H673 H 0.13955 0.07156 0.30455 0.0
C674 C 0.02355 0.10364 0.17738 0.0
C675 C 0.03143 0.08297 0.15083 0.0
C676 C 0.04077 0.11548 0.20658 0.0
C677 C 0.06623 0.10688 0.21 0.0
C678 C 0.07423 0.08638 0.18351 0.0
C679 C 0.05703 0.07468 0.15408 0.0
C680 C 0.0839 0.1183 0.24318 0.0
C681 C 0.09381 0.10236 0.27537 0.0
C682 C 0.08899 0.14499 0.24555 0.0
C683 C 0.08062 0.1624 0.21067 0.0
C684 C 0.08706 0.15698 0.16754 0.0
C685 C 0.07905 0.1733 0.13467 0.0
C686 C 0.0647 0.19522 0.14455 0.0
C687 C 0.05838 0.20088 0.18735 0.0
C688 C 0.06633 0.1846 0.22034 0.0
C689 C 0.15901 0.1509 0.40711 0.0
C690 C 0.14428 0.16637 0.43488 0.0
C691 C 0.1492 0.14335 0.36648 0.0
C692 C 0.12457 0.15119 0.35307 0.0
C693 C 0.11076 0.16827 0.37937 0.0
C694 C 0.12047 0.17571 0.42001 0.0
C695 C 0.11182 0.13936 0.31438 0.0
C696 C 0.10271 0.15522 0.28138 0.0
C697 C 0.10745 0.11256 0.31115 0.0
C698 C 0.11545 0.09491 0.34586 0.0
C699 C 0.10615 0.0982 0.38795 0.0
C700 C 0.114 0.08165 0.4206 0.0
C701 C 0.13094 0.06156 0.41142 0.0
C702 C 0.14 0.05795 0.36954 0.0
C703 C 0.13226 0.0745 0.3368 0.0
H704 H 0.13698 0.04875 0.43673 0.0
H705 H 0.05852 0.20784 0.11906 0.0
H706 H 0.88362 0.01011 0.14402 0.0
H707 H 0.86093 0.03559 0.1981 0.0
H708 H 0.92325 0.09017 0.20343 0.0
H709 H 0.94621 0.06445 0.14978 0.0
H710 H 0.90947 0.07274 0.2834 0.0
H711 H 0.8673 0.10585 0.15784 0.0
H712 H 0.84364 0.10294 0.08814 0.0
H713 H 0.78057 0.06655 0.15006 0.0
H714 H 0.80419 0.06854 0.21972 0.0
H715 H 0.84804 0.15091 0.43693 0.0
H716 H 0.86823 0.13824 0.36896 0.0
H717 H 0.80587 0.08555 0.34092 0.0
H718 H 0.78529 0.09879 0.40812 0.0
H719 H 0.82069 0.10636 0.26904 0.0
H720 H 0.86233 0.06566 0.3885 0.0
H721 H 0.88468 0.06393 0.45921 0.0
H722 H 0.94654 0.10897 0.41074 0.0
H723 H 0.92434 0.11132 0.33988 0.0
C724 C 0.89245 0.02766 0.1564 0.0
C725 C 0.91678 0.03536 0.14244 0.0
C726 C 0.87934 0.04229 0.18706 0.0
C727 C 0.8903 0.06488 0.20441 0.0
C728 C 0.9144 0.07285 0.19016 0.0
C729 C 0.92746 0.05824 0.15929 0.0
C730 C 0.87748 0.07895 0.2399 0.0
C731 C 0.89028 0.08062 0.28004 0.0
C732 C 0.85206 0.08827 0.23574 0.0
C733 C 0.83767 0.08719 0.1939 0.0
C734 C 0.8485 0.09703 0.15642 0.0
C735 C 0.83508 0.09558 0.11697 0.0
C736 C 0.81061 0.08462 0.1147 0.0
C737 C 0.79953 0.07505 0.15186 0.0
C738 C 0.81296 0.07631 0.19133 0.0
C739 C 0.83855 0.13688 0.41588 0.0
C740 C 0.81526 0.12567 0.42772 0.0
C741 C 0.85007 0.12963 0.37718 0.0
C742 C 0.83879 0.11059 0.35029 0.0
C743 C 0.81491 0.10027 0.36116 0.0
C744 C 0.80319 0.10781 0.39953 0.0
C745 C 0.85266 0.10004 0.31255 0.0
C746 C 0.84004 0.09887 0.27216 0.0
C747 C 0.87802 0.0905 0.31663 0.0
C748 C 0.89154 0.08892 0.35906 0.0
C749 C 0.88062 0.07535 0.39302 0.0
C750 C 0.89326 0.07424 0.43311 0.0
C751 C 0.91697 0.0864 0.4395 0.0
C752 C 0.92814 0.09962 0.40576 0.0
C753 C 0.91554 0.10084 0.36563 0.0
H754 H 0.92673 0.08552 0.47056 0.0
H755 H 0.80022 0.08355 0.08417 0.0
H756 H 0.99176 0.89119 0.12381 0.0
H757 H 0.96602 0.86603 0.17279 0.0
H758 H 0.91005 0.92691 0.17855 0.0
H759 H 0.93602 0.95227 0.13023 0.0
H760 H 0.92734 0.91164 0.25818 0.0
H761 H 0.89957 0.87229 0.12531 0.0
H762 H 0.9051 0.84987 0.05536 0.0
H763 H 0.93399 0.78357 0.12016 0.0
H764 H 0.93042 0.80613 0.19031 0.0
H765 H 0.85476 0.84572 0.40752 0.0
H766 H 0.86376 0.86666 0.33929 0.0
H767 H 0.9176 0.80654 0.30736 0.0
H768 H 0.90772 0.78505 0.37469 0.0
H769 H 0.89538 0.82254 0.23616 0.0
H770 H 0.93643 0.86297 0.35997 0.0
H771 H 0.93807 0.884 0.43198 0.0
H772 H 0.89027 0.94502 0.38553 0.0
H773 H 0.88801 0.92411 0.31337 0.0
C774 C 0.97382 0.89914 0.13509 0.0
C775 C 0.96583 0.92381 0.12291 0.0
C776 C 0.95905 0.88463 0.16285 0.0
C777 C 0.93602 0.89451 0.17897 0.0
C778 C 0.9277 0.91887 0.16618 0.0
C779 C 0.94246 0.93333 0.1383 0.0
C780 C 0.92194 0.88046 0.21228 0.0
C781 C 0.91986 0.89235 0.25305 0.0
C782 C 0.91305 0.85491 0.2058 0.0
C783 C 0.91496 0.84116 0.16334 0.0
C784 C 0.90754 0.85312 0.12473 0.0
C785 C 0.91042 0.84039 0.08496 0.0
C786 C 0.91979 0.81531 0.08333 0.0
C787 C 0.92668 0.80301 0.12145 0.0
C788 C 0.92444 0.81586 0.16124 0.0
C789 C 0.86809 0.83677 0.38539 0.0
C790 C 0.88077 0.81398 0.39631 0.0
C791 C 0.87327 0.84873 0.34654 0.0
C792 C 0.89182 0.83849 0.31867 0.0
C793 C 0.90327 0.81484 0.32835 0.0
C794 C 0.89769 0.8026 0.36682 0.0
C795 C 0.9013 0.85361 0.28204 0.0
C796 C 0.90254 0.84197 0.24084 0.0
C797 C 0.9103 0.8791 0.2882 0.0
C798 C 0.91179 0.89182 0.33145 0.0
C799 C 0.92612 0.88078 0.36521 0.0
C800 C 0.92717 0.89268 0.40603 0.0
C801 C 0.91422 0.9158 0.41336 0.0
C802 C 0.90024 0.92709 0.37983 0.0
C803 C 0.89906 0.91522 0.33897 0.0
H804 H 0.91506 0.92499 0.44498 0.0
H805 H 0.92171 0.8054 0.05253 0.0
H806 H 0.11113 0.99574 0.13825 0.0
H807 H 0.13171 0.96735 0.19039 0.0
H808 H 0.06556 0.91751 0.1842 0.0
H809 H 0.04492 0.94612 0.13264 0.0
H810 H 0.07871 0.93397 0.26686 0.0
H811 H 0.12131 0.89744 0.14379 0.0
H812 H 0.14743 0.8982 0.07815 0.0
H813 H 0.21106 0.92948 0.15142 0.0
H814 H 0.18526 0.92962 0.21736 0.0
H815 H 0.13029 0.85291 0.42485 0.0
H816 H 0.11252 0.86642 0.35516 0.0
H817 H 0.17985 0.91287 0.33563 0.0
H818 H 0.19801 0.89858 0.40442 0.0
H819 H 0.16474 0.89339 0.26152 0.0
H820 H 0.12331 0.9379 0.37814 0.0
H821 H 0.09925 0.94176 0.44582 0.0
H822 H 0.03568 0.90112 0.38662 0.0
H823 H 0.05955 0.89667 0.31875 0.0
C824 C 0.10115 0.97848 0.14741 0.0
C825 C 0.07635 0.973 0.13102 0.0
C826 C 0.11302 0.9622 0.17699 0.0
C827 C 0.10025 0.94021 0.1909 0.0
C828 C 0.07585 0.93427 0.17359 0.0
C829 C 0.0641 0.95048 0.14378 0.0
C830 C 0.1111 0.92515 0.22696 0.0
C831 C 0.09728 0.92458 0.26539 0.0
C832 C 0.13574 0.91378 0.22541 0.0
C833 C 0.15124 0.9137 0.18559 0.0
C834 C 0.14079 0.90471 0.14591 0.0
C835 C 0.15555 0.90492 0.10864 0.0
C836 C 0.18084 0.91381 0.11063 0.0
C837 C 0.19146 0.92258 0.14991 0.0
C838 C 0.17678 0.92253 0.18726 0.0
C839 C 0.14138 0.86571 0.40528 0.0
C840 C 0.16542 0.87482 0.41997 0.0
C841 C 0.13123 0.87348 0.36559 0.0
C842 C 0.14461 0.89109 0.3405 0.0
C843 C 0.16914 0.89929 0.35434 0.0
C844 C 0.1795 0.89115 0.39365 0.0
C845 C 0.13241 0.90239 0.30151 0.0
C846 C 0.14598 0.90238 0.2627 0.0
C847 C 0.1078 0.91389 0.30288 0.0
C848 C 0.09333 0.91668 0.34355 0.0
C849 C 0.10427 0.92963 0.37966 0.0
C850 C 0.09067 0.93194 0.41804 0.0
C851 C 0.06598 0.92162 0.42055 0.0
C852 C 0.05482 0.90904 0.38465 0.0
C853 C 0.06838 0.90662 0.34622 0.0
H854 H 0.05547 0.92343 0.45029 0.0
H855 H 0.19221 0.9139 0.08173 0.0
H856 H 0.02071 0.98285 0.82572 0.0
H857 H 0.03668 0.95687 0.76487 0.0
H858 H 0.11387 0.98212 0.79483 0.0
H859 H 0.09824 0.00827 0.85486 0.0
H860 H 0.10226 0.98378 0.70856 0.0
H861 H 0.09383 0.92386 0.82589 0.0
H862 H 0.06931 0.90196 0.88179 0.0
H863 H 0.01768 0.87103 0.78451 0.0
H864 H 0.04168 0.89309 0.72807 0.0
H865 H 0.18667 0.89966 0.61143 0.0
H866 H 0.16164 0.92032 0.66784 0.0
H867 H 0.0922 0.88744 0.61282 0.0
H868 H 0.11735 0.86587 0.55646 0.0
H869 H 0.09359 0.88883 0.70549 0.0
H870 H 0.10428 0.94528 0.58749 0.0
H871 H 0.12833 0.96756 0.5315 0.0
H872 H 0.1745 0.00567 0.62945 0.0
H873 H 0.15099 0.98328 0.68604 0.0
C874 C 0.04109 0.9828 0.81936 0.0
C875 C 0.05824 0.99744 0.84533 0.0
C876 C 0.05015 0.96789 0.78477 0.0
C877 C 0.07646 0.96729 0.77588 0.0
C878 C 0.09349 0.98228 0.80123 0.0
C879 C 0.0845 0.99718 0.83562 0.0
C880 C 0.0866 0.95104 0.74036 0.0
C881 C 0.10047 0.96302 0.70801 0.0
C882 C 0.08351 0.92403 0.73897 0.0
C883 C 0.0694 0.91034 0.7728 0.0
C884 C 0.07715 0.91253 0.81645 0.0
C885 C 0.06334 0.9001 0.84823 0.0
C886 C 0.04188 0.88522 0.83672 0.0
C887 C 0.0343 0.88258 0.79337 0.0
C888 C 0.04799 0.89506 0.76148 0.0
C889 C 0.16619 0.89613 0.61186 0.0
C890 C 0.15402 0.88112 0.57929 0.0
C891 C 0.15187 0.90818 0.64398 0.0
C892 C 0.12506 0.90568 0.6441 0.0
C893 C 0.11288 0.88965 0.61313 0.0
C894 C 0.12725 0.87753 0.58083 0.0
C895 C 0.10994 0.92159 0.67458 0.0
C896 C 0.09508 0.9096 0.70577 0.0
C897 C 0.11198 0.94868 0.67492 0.0
C898 C 0.12598 0.96245 0.641 0.0
C899 C 0.11968 0.95827 0.59709 0.0
C900 C 0.13321 0.97094 0.56524 0.0
C901 C 0.15296 0.98799 0.57691 0.0
C902 C 0.1592 0.99245 0.62046 0.0
C903 C 0.14576 0.97979 0.65244 0.0
H904 H 0.16341 0.99778 0.5522 0.0
H905 H 0.03118 0.87566 0.86138 0.0
H906 H 0.97362 0.08614 0.83508 0.0
H907 H 0.99389 0.10203 0.77014 0.0
H908 H 0.06759 0.10171 0.8359 0.0
H909 H 0.04744 0.08631 0.901 0.0
H910 H 0.05968 0.14631 0.79497 0.0
H911 H 0.05238 0.05521 0.75839 0.0
H912 H 0.02784 0.01493 0.74924 0.0
H913 H 0.97765 0.0505 0.65693 0.0
H914 H 0.00194 0.09111 0.66541 0.0
H915 H 0.15177 0.1384 0.63086 0.0
H916 H 0.12212 0.12569 0.68648 0.0
H917 H 0.05879 0.15697 0.61342 0.0
H918 H 0.08853 0.17141 0.55843 0.0
H919 H 0.0558 0.10055 0.65291 0.0
H920 H 0.06498 0.19041 0.68412 0.0
H921 H 0.08898 0.23101 0.6931 0.0
H922 H 0.13375 0.19888 0.7962 0.0
H923 H 0.11018 0.15784 0.78759 0.0
C924 C 0.99414 0.08941 0.83563 0.0
C925 C 0.00887 0.08525 0.87329 0.0
C926 C 0.00571 0.0984 0.79846 0.0
C927 C 0.03225 0.10312 0.79825 0.0
C928 C 0.04705 0.0984 0.8355 0.0
C929 C 0.0355 0.08948 0.87263 0.0
C930 C 0.04474 0.11336 0.75957 0.0
C931 C 0.0589 0.13623 0.764 0.0
C932 C 0.04301 0.1007 0.71879 0.0
C933 C 0.02889 0.07617 0.71264 0.0
C934 C 0.0361 0.05444 0.73615 0.0
C935 C 0.02226 0.03157 0.73111 0.0
C936 C 0.00121 0.03017 0.70263 0.0
C937 C 0.994 0.05163 0.67894 0.0
C938 C 0.00785 0.07455 0.68372 0.0
C939 C 0.13165 0.14312 0.62674 0.0
C940 C 0.1227 0.15633 0.59022 0.0
C941 C 0.1147 0.13549 0.65837 0.0
C942 C 0.08838 0.14041 0.65387 0.0
C943 C 0.07909 0.15293 0.61717 0.0
C944 C 0.09614 0.16107 0.58578 0.0
C945 C 0.07105 0.13312 0.68879 0.0
C946 C 0.05613 0.11081 0.68373 0.0
C947 C 0.07187 0.14638 0.72897 0.0
C948 C 0.08603 0.17096 0.73481 0.0
C949 C 0.08012 0.19189 0.70844 0.0
C950 C 0.09358 0.21499 0.71358 0.0
C951 C 0.11292 0.21746 0.74518 0.0
C952 C 0.11876 0.19685 0.77181 0.0
C953 C 0.10534 0.17368 0.76684 0.0
H954 H 0.12334 0.23535 0.74911 0.0
H955 H 0.99059 0.01242 0.69886 0.0
H956 H 0.97093 0.03143 0.82746 0.0
H957 H 0.95379 0.05746 0.76816 0.0
H958 H 0.87727 0.03121 0.79507 0.0
H959 H 0.894 0.00519 0.85346 0.0
H960 H 0.89096 0.02781 0.70677 0.0
H961 H 0.89458 0.08726 0.83037 0.0
H962 H 0.91674 0.11215 0.88839 0.0
H963 H 0.96292 0.14935 0.7946 0.0
H964 H 0.94139 0.12424 0.73607 0.0
H965 H 0.79565 0.10202 0.61653 0.0
H966 H 0.82388 0.08401 0.67182 0.0
H967 H 0.88782 0.12641 0.6226 0.0
H968 H 0.85947 0.14503 0.56749 0.0
H969 H 0.88877 0.12305 0.71376 0.0
H970 H 0.88256 0.06817 0.58971 0.0
H971 H 0.8608 0.044 0.53046 0.0
H972 H 0.82182 0.99805 0.62246 0.0
H973 H 0.84301 0.02225 0.68233 0.0
C974 C 0.95047 0.03118 0.82057 0.0
C975 C 0.93381 0.0162 0.84506 0.0
C976 C 0.94075 0.0461 0.78687 0.0
C977 C 0.91428 0.04625 0.77751 0.0
C978 C 0.89775 0.03129 0.80184 0.0
C979 C 0.90739 0.01638 0.83517 0.0
C980 C 0.90326 0.06168 0.74228 0.0
C981 C 0.89049 0.04863 0.70824 0.0
C982 C 0.90345 0.08884 0.7436 0.0
C983 C 0.91659 0.10365 0.77889 0.0
C984 C 0.90967 0.10052 0.82215 0.0
C985 C 0.92205 0.11473 0.85513 0.0
C986 C 0.9412 0.13235 0.84519 0.0
C987 C 0.94802 0.13576 0.80225 0.0
C988 C 0.93578 0.1215 0.76918 0.0
C989 C 0.81551 0.10818 0.61825 0.0
C990 C 0.82538 0.1248 0.58745 0.0
C991 C 0.83169 0.09767 0.64961 0.0
C992 C 0.85801 0.10353 0.65069 0.0
C993 C 0.8676 0.12154 0.62206 0.0
C994 C 0.85141 0.13204 0.59055 0.0
C995 C 0.87558 0.08908 0.67934 0.0
C996 C 0.88967 0.10226 0.71182 0.0
C997 C 0.8769 0.06197 0.67644 0.0
C998 C 0.86423 0.04719 0.64054 0.0
C999 C 0.86919 0.05305 0.59734 0.0
C1000 C 0.85698 0.03932 0.56363 0.0
C1001 C 0.8399 0.01953 0.57269 0.0
C1002 C 0.83504 0.0134 0.61549 0.0
C1003 C 0.84716 0.02711 0.64933 0.0
H1004 H 0.83047 0.00892 0.54655 0.0
H1005 H 0.9508 0.1433 0.87076 0.0
H1006 H 0.00645 0.9365 0.81181 0.0
H1007 H 0.98492 0.91875 0.74722 0.0
H1008 H 0.92128 0.89503 0.82432 0.0
H1009 H 0.94255 0.91317 0.889 0.0
H1010 H 0.94055 0.85595 0.77227 0.0
H1011 H 0.91163 0.94232 0.75772 0.0
H1012 H 0.9148 0.98926 0.75327 0.0
H1013 H 0.96282 0.98165 0.64266 0.0
H1014 H 0.96005 0.93444 0.64648 0.0
H1015 H 0.86168 0.81218 0.59767 0.0
H1016 H 0.87711 0.83649 0.66135 0.0
H1017 H 0.93961 0.86648 0.58787 0.0
H1018 H 0.92435 0.84223 0.52418 0.0
H1019 H 0.91915 0.90332 0.63899 0.0
H1020 H 0.94915 0.81679 0.65504 0.0
H1021 H 0.94487 0.76973 0.65834 0.0
H1022 H 0.89509 0.77787 0.76678 0.0
H1023 H 0.89878 0.82503 0.76371 0.0
C1024 C 0.98767 0.92799 0.81489 0.0
C1025 C 0.97623 0.92632 0.85548 0.0
C1026 C 0.97538 0.91783 0.77796 0.0
C1027 C 0.95145 0.90569 0.78101 0.0
C1028 C 0.93975 0.90435 0.82135 0.0
C1029 C 0.95193 0.91473 0.85824 0.0
C1030 C 0.93945 0.89297 0.74256 0.0
C1031 C 0.93545 0.86636 0.74337 0.0
C1032 C 0.93351 0.90649 0.70454 0.0
C1033 C 0.93585 0.93483 0.70269 0.0
C1034 C 0.92312 0.95062 0.73274 0.0
C1035 C 0.92479 0.97731 0.73027 0.0
C1036 C 0.93908 0.9885 0.69788 0.0
C1037 C 0.95176 0.97297 0.66779 0.0
C1038 C 0.95012 0.94622 0.67004 0.0
C1039 C 0.87871 0.82395 0.59511 0.0
C1040 C 0.89186 0.82518 0.55596 0.0
C1041 C 0.88748 0.83785 0.63147 0.0
C1042 C 0.9097 0.85303 0.62947 0.0
C1043 C 0.92241 0.85491 0.59011 0.0
C1044 C 0.91361 0.84109 0.55371 0.0
C1045 C 0.92022 0.86628 0.66871 0.0
C1046 C 0.92411 0.89293 0.66798 0.0
C1047 C 0.92617 0.85279 0.70682 0.0
C1048 C 0.92402 0.82444 0.70885 0.0
C1049 C 0.93713 0.80855 0.67937 0.0
C1050 C 0.93484 0.78186 0.68123 0.0
C1051 C 0.91966 0.77082 0.71267 0.0
C1052 C 0.9068 0.78645 0.74239 0.0
C1053 C 0.909 0.81316 0.74063 0.0
H1054 H 0.91791 0.75015 0.71407 0.0
H1055 H 0.94026 0.0092 0.69603 0.0
H1056 H 0.50646 0.61784 0.64861 0.0
H1057 H 0.53523 0.6384 0.70214 0.0
H1058 H 0.59098 0.57839 0.68198 0.0
H1059 H 0.56201 0.55771 0.62952 0.0
H1060 H 0.58281 0.58693 0.76639 0.0
H1061 H 0.60254 0.63603 0.64545 0.0
H1062 H 0.59339 0.6615 0.58085 0.0
H1063 H 0.55918 0.72044 0.6597 0.0
H1064 H 0.56761 0.69504 0.72479 0.0
H1065 H 0.6731 0.64576 0.90658 0.0
H1066 H 0.65662 0.63335 0.8346 0.0
H1067 H 0.58994 0.68088 0.85415 0.0
H1068 H 0.60629 0.6933 0.92621 0.0
H1069 H 0.60849 0.67869 0.76502 0.0
H1070 H 0.58468 0.62391 0.8835 0.0
H1071 H 0.59452 0.59696 0.9462 0.0
H1072 H 0.64013 0.54707 0.86657 0.0
H1073 H 0.63094 0.57407 0.80354 0.0
C1074 C 0.52492 0.6091 0.65536 0.0
C1075 C 0.53213 0.58613 0.63426 0.0
C1076 C 0.5414 0.62096 0.68578 0.0
C1077 C 0.56537 0.61005 0.69575 0.0
C1078 C 0.57264 0.58723 0.67464 0.0
C1079 C 0.55618 0.57548 0.64421 0.0
C1080 C 0.58221 0.62171 0.72987 0.0
C1081 C 0.58893 0.60683 0.76554 0.0
C1082 C 0.59002 0.64772 0.72889 0.0
C1083 C 0.58544 0.66346 0.69003 0.0
C1084 C 0.59279 0.65428 0.64901 0.0
C1085 C 0.58772 0.6687 0.61227 0.0
C1086 C 0.57556 0.6925 0.61613 0.0
C1087 C 0.56853 0.70196 0.65676 0.0
C1088 C 0.57347 0.68756 0.69362 0.0
C1089 C 0.65538 0.65425 0.89492 0.0
C1090 C 0.64084 0.67031 0.92202 0.0
C1091 C 0.64597 0.6471 0.85388 0.0
C1092 C 0.62197 0.65604 0.83931 0.0
C1093 C 0.60851 0.67384 0.86479 0.0
C1094 C 0.61778 0.68078 0.90599 0.0
C1095 C 0.60907 0.64384 0.80118 0.0
C1096 C 0.60291 0.65865 0.76508 0.0
C1097 C 0.60215 0.61757 0.80124 0.0
C1098 C 0.6074 0.60117 0.83897 0.0
C1099 C 0.597 0.60732 0.87946 0.0
C1100 C 0.60243 0.59203 0.91504 0.0
C1101 C 0.61801 0.57035 0.9104 0.0
C1102 C 0.62812 0.5639 0.87014 0.0
C1103 C 0.62282 0.5792 0.83448 0.0
H1104 H 0.62218 0.55852 0.93798 0.0
H1105 H 0.57172 0.70369 0.58767 0.0
H1106 H 0.41589 0.49897 0.675 0.0
H1107 H 0.39136 0.52298 0.72824 0.0
H1108 H 0.4166 0.59413 0.67392 0.0
H1109 H 0.44242 0.56997 0.62233 0.0
H1110 H 0.41347 0.59981 0.75742 0.0
H1111 H 0.35659 0.57002 0.64802 0.0
H1112 H 0.33648 0.53944 0.596 0.0
H1113 H 0.31023 0.49374 0.70034 0.0
H1114 H 0.33037 0.52397 0.75307 0.0
H1115 H 0.31334 0.66016 0.88105 0.0
H1116 H 0.33542 0.64544 0.8153 0.0
H1117 H 0.33587 0.56804 0.86244 0.0
H1118 H 0.31424 0.58268 0.92787 0.0
H1119 H 0.3228 0.57236 0.7723 0.0
H1120 H 0.38709 0.60287 0.87954 0.0
H1121 H 0.40602 0.63646 0.92747 0.0
H1122 H 0.41593 0.6853 0.8189 0.0
H1123 H 0.3967 0.65208 0.77042 0.0
C1124 C 0.41625 0.51973 0.67425 0.0
C1125 C 0.42987 0.53258 0.64237 0.0
C1126 C 0.40215 0.53345 0.70472 0.0
C1127 C 0.40115 0.56035 0.70378 0.0
C1128 C 0.41649 0.57334 0.67451 0.0
C1129 C 0.43098 0.55951 0.64442 0.0
C1130 C 0.38359 0.57456 0.73286 0.0
C1131 C 0.39352 0.59414 0.76003 0.0
C1132 C 0.35744 0.56745 0.73597 0.0
C1133 C 0.34505 0.54925 0.70451 0.0
C1134 C 0.34661 0.55341 0.6599 0.0
C1135 C 0.33518 0.53615 0.63028 0.0
C1136 C 0.32204 0.51469 0.64487 0.0
C1137 C 0.32033 0.51044 0.68912 0.0
C1138 C 0.3317 0.52766 0.7189 0.0
C1139 C 0.31788 0.63999 0.87682 0.0
C1140 C 0.31237 0.62251 0.90931 0.0
C1141 C 0.33048 0.63164 0.83953 0.0
C1142 C 0.33736 0.6057 0.83434 0.0
C1143 C 0.33069 0.58811 0.86591 0.0
C1144 C 0.31847 0.59647 0.90324 0.0
C1145 C 0.35301 0.59678 0.7977 0.0
C1146 C 0.34265 0.57824 0.76903 0.0
C1147 C 0.3785 0.60536 0.79243 0.0
C1148 C 0.39028 0.62513 0.82149 0.0
C1149 C 0.39316 0.62084 0.86597 0.0
C1150 C 0.40396 0.6398 0.89321 0.0
C1151 C 0.41212 0.66303 0.87625 0.0
C1152 C 0.40957 0.66732 0.83199 0.0
C1153 C 0.39874 0.64843 0.80462 0.0
H1154 H 0.42048 0.67768 0.89739 0.0
H1155 H 0.31318 0.50138 0.62187 0.0
H1156 H 0.44908 0.4119 0.57713 0.0
H1157 H 0.42209 0.39294 0.63248 0.0
H1158 H 0.46315 0.43683 0.73095 0.0
H1159 H 0.48934 0.45654 0.67545 0.0
H1160 H 0.4634 0.38087 0.73688 0.0
H1161 H 0.40518 0.45226 0.71001 0.0
H1162 H 0.37503 0.47816 0.66655 0.0
H1163 H 0.32691 0.41226 0.64446 0.0
H1164 H 0.35679 0.38581 0.68704 0.0
H1165 H 0.41027 0.35333 0.93346 0.0
H1166 H 0.42545 0.37515 0.87024 0.0
H1167 H 0.36333 0.34224 0.7936 0.0
H1168 H 0.34674 0.32176 0.85783 0.0
H1169 H 0.37086 0.38915 0.76943 0.0
H1170 H 0.42487 0.31732 0.78863 0.0
H1171 H 0.45297 0.28691 0.82699 0.0
H1172 H 0.50729 0.34728 0.85484 0.0
H1173 H 0.47934 0.37815 0.81718 0.0
C1174 C 0.45136 0.41838 0.61038 0.0
C1175 C 0.47051 0.43626 0.62217 0.0
C1176 C 0.43619 0.40736 0.64191 0.0
C1177 C 0.44047 0.41378 0.68561 0.0
C1178 C 0.45941 0.43193 0.69727 0.0
C1179 C 0.47434 0.4431 0.66575 0.0
C1180 C 0.4278 0.39926 0.71968 0.0
C1181 C 0.44322 0.38289 0.74438 0.0
C1182 C 0.40117 0.40085 0.72752 0.0
C1183 C 0.38357 0.41686 0.7011 0.0
C1184 C 0.38844 0.44313 0.69526 0.0
C1185 C 0.37135 0.45796 0.6709 0.0
C1186 C 0.34928 0.44679 0.65245 0.0
C1187 C 0.34409 0.42085 0.65861 0.0
C1188 C 0.36111 0.40592 0.68278 0.0
C1189 C 0.39939 0.35112 0.90352 0.0
C1190 C 0.37723 0.3357 0.90092 0.0
C1191 C 0.40839 0.36332 0.86711 0.0
C1192 C 0.39589 0.35986 0.82689 0.0
C1193 C 0.37341 0.34502 0.82422 0.0
C1194 C 0.36412 0.33311 0.8609 0.0
C1195 C 0.40673 0.37152 0.78784 0.0
C1196 C 0.39101 0.38706 0.76189 0.0
C1197 C 0.43296 0.36857 0.77769 0.0
C1198 C 0.44989 0.35009 0.80038 0.0
C1199 C 0.44272 0.32415 0.80322 0.0
C1200 C 0.45863 0.30683 0.82479 0.0
C1201 C 0.48187 0.31517 0.84342 0.0
C1202 C 0.48927 0.34085 0.84043 0.0
C1203 C 0.47341 0.35827 0.81893 0.0
H1204 H 0.49416 0.30172 0.86011 0.0
H1205 H 0.33613 0.45825 0.63352 0.0
H1206 H 0.61637 0.50436 0.62779 0.0
H1207 H 0.63917 0.4795 0.68217 0.0
H1208 H 0.57779 0.42387 0.67993 0.0
H1209 H 0.55473 0.44898 0.62574 0.0
H1210 H 0.59086 0.44158 0.76214 0.0
H1211 H 0.63372 0.40945 0.6383 0.0
H1212 H 0.65726 0.41186 0.57006 0.0
H1213 H 0.7203 0.44895 0.63708 0.0
H1214 H 0.69676 0.44743 0.70534 0.0
H1215 H 0.65684 0.36977 0.9202 0.0
H1216 H 0.63459 0.38057 0.85256 0.0
H1217 H 0.69583 0.43301 0.82303 0.0
H1218 H 0.71866 0.421 0.88932 0.0
H1219 H 0.68081 0.41106 0.75269 0.0
H1220 H 0.63658 0.45191 0.8711 0.0
H1221 H 0.61359 0.45306 0.94008 0.0
H1222 H 0.55475 0.40416 0.88494 0.0
H1223 H 0.5776 0.40242 0.81582 0.0
C1224 C 0.60783 0.48665 0.63842 0.0
C1225 C 0.5837 0.47853 0.62224 0.0
C1226 C 0.62097 0.47241 0.66936 0.0
C1227 C 0.61025 0.44976 0.68486 0.0
C1228 C 0.58643 0.44127 0.66821 0.0
C1229 C 0.57333 0.45549 0.63695 0.0
C1230 C 0.62321 0.43614 0.72063 0.0
C1231 C 0.61035 0.4344 0.75987 0.0
C1232 C 0.64892 0.42756 0.71787 0.0
C1233 C 0.66332 0.42841 0.67689 0.0
C1234 C 0.6525 0.41827 0.63834 0.0
C1235 C 0.66586 0.41947 0.59969 0.0
C1236 C 0.69029 0.43048 0.59926 0.0
C1237 C 0.70137 0.44039 0.63746 0.0
C1238 C 0.68799 0.43938 0.67614 0.0
C1239 C 0.66556 0.38335 0.89884 0.0
C1240 C 0.68931 0.39468 0.9097 0.0
C1241 C 0.65284 0.38964 0.86041 0.0
C1242 C 0.66324 0.40805 0.83307 0.0
C1243 C 0.68738 0.41877 0.84351 0.0
C1244 C 0.70038 0.412 0.88137 0.0
C1245 C 0.64867 0.41705 0.79458 0.0
C1246 C 0.66121 0.41794 0.75485 0.0
C1247 C 0.62286 0.42548 0.79708 0.0
C1248 C 0.60895 0.4268 0.83846 0.0
C1249 C 0.61882 0.44128 0.87378 0.0
C1250 C 0.60581 0.44205 0.91289 0.0
C1251 C 0.58277 0.42862 0.91692 0.0
C1252 C 0.57263 0.4145 0.8818 0.0
C1253 C 0.58559 0.41362 0.84265 0.0
H1254 H 0.57274 0.4292 0.94722 0.0
H1255 H 0.70064 0.43137 0.56933 0.0
H1256 H 0.58094 0.45716 0.37901 0.0
H1257 H 0.59999 0.43495 0.3171 0.0
H1258 H 0.62014 0.50776 0.26308 0.0
H1259 H 0.60163 0.53018 0.32521 0.0
H1260 H 0.59748 0.47133 0.20264 0.0
H1261 H 0.66588 0.47671 0.31194 0.0
H1262 H 0.68219 0.47012 0.38614 0.0
H1263 H 0.66712 0.38927 0.37266 0.0
H1264 H 0.65066 0.39544 0.29844 0.0
H1265 H 0.68784 0.44156 0.04628 0.0
H1266 H 0.66572 0.45872 0.10937 0.0
H1267 H 0.66571 0.38333 0.16495 0.0
H1268 H 0.6891 0.36638 0.10223 0.0
H1269 H 0.67474 0.4172 0.22566 0.0
H1270 H 0.61128 0.40979 0.11394 0.0
H1271 H 0.59203 0.41523 0.04141 0.0
H1272 H 0.59342 0.49712 0.05978 0.0
H1273 H 0.61311 0.49222 0.1321 0.0
C1274 C 0.5894 0.46849 0.35396 0.0
C1275 C 0.58976 0.49547 0.35704 0.0
C1276 C 0.60022 0.45574 0.31862 0.0
C1277 C 0.6115 0.46975 0.28569 0.0
C1278 C 0.61145 0.49665 0.28817 0.0
C1279 C 0.6009 0.5094 0.32374 0.0
C1280 C 0.62425 0.45638 0.24937 0.0
C1281 C 0.6145 0.45965 0.20743 0.0
C1282 C 0.64584 0.44046 0.25609 0.0
C1283 C 0.6569 0.43655 0.29984 0.0
C1284 C 0.66607 0.45753 0.32485 0.0
C1285 C 0.67535 0.45388 0.36688 0.0
C1286 C 0.67565 0.42931 0.38416 0.0
C1287 C 0.66692 0.40829 0.35927 0.0
C1288 C 0.65767 0.41184 0.31717 0.0
C1289 C 0.68318 0.42872 0.07212 0.0
C1290 C 0.68986 0.40267 0.06947 0.0
C1291 C 0.67039 0.43846 0.10799 0.0
C1292 C 0.66335 0.42219 0.14142 0.0
C1293 C 0.67073 0.39622 0.1394 0.0
C1294 C 0.68404 0.38654 0.10371 0.0
C1295 C 0.64836 0.43251 0.17826 0.0
C1296 C 0.65761 0.42864 0.2205 0.0
C1297 C 0.62599 0.44759 0.17178 0.0
C1298 C 0.61388 0.45062 0.12838 0.0
C1299 C 0.60765 0.42897 0.10242 0.0
C1300 C 0.59665 0.43195 0.06133 0.0
C1301 C 0.59156 0.4565 0.04598 0.0
C1302 C 0.5974 0.47811 0.07171 0.0
C1303 C 0.60847 0.47524 0.11277 0.0
H1304 H 0.58303 0.45879 0.01419 0.0
H1305 H 0.68263 0.42659 0.41685 0.0
H1306 H 0.47031 0.57555 0.31489 0.0
H1307 H 0.49143 0.58823 0.24861 0.0
H1308 H 0.53757 0.64294 0.32206 0.0
H1309 H 0.51616 0.63079 0.3879 0.0
H1310 H 0.5234 0.66284 0.24833 0.0
H1311 H 0.55659 0.58174 0.29593 0.0
H1312 H 0.55278 0.53628 0.31492 0.0
H1313 H 0.52994 0.51689 0.18457 0.0
H1314 H 0.53191 0.56258 0.16537 0.0
H1315 H 0.6437 0.63547 0.11263 0.0
H1316 H 0.61303 0.62319 0.16704 0.0
H1317 H 0.55334 0.66479 0.10021 0.0
H1318 H 0.58431 0.67826 0.04661 0.0
H1319 H 0.57058 0.59606 0.1655 0.0
H1320 H 0.51199 0.68971 0.17467 0.0
H1321 H 0.51713 0.73595 0.16115 0.0
H1322 H 0.59822 0.73011 0.18635 0.0
H1323 H 0.59349 0.68393 0.20054 0.0
C1324 C 0.48495 0.59024 0.31682 0.0
C1325 C 0.49183 0.60186 0.3567 0.0
C1326 C 0.49694 0.59755 0.27893 0.0
C1327 C 0.51636 0.61629 0.28045 0.0
C1328 C 0.52263 0.62846 0.32005 0.0
C1329 C 0.51046 0.62137 0.35776 0.0
C1330 C 0.53134 0.62239 0.24165 0.0
C1331 C 0.53351 0.64819 0.22996 0.0
C1332 C 0.54478 0.60329 0.21794 0.0
C1333 C 0.54405 0.57571 0.22934 0.0
C1334 C 0.55045 0.56787 0.27138 0.0
C1335 C 0.54861 0.54203 0.28221 0.0
C1336 C 0.54133 0.52365 0.25093 0.0
C1337 C 0.53558 0.53115 0.2088 0.0
C1338 C 0.53685 0.55706 0.19801 0.0
C1339 C 0.62413 0.64232 0.10973 0.0
C1340 C 0.61659 0.65821 0.07558 0.0
C1341 C 0.60652 0.63497 0.14059 0.0
C1342 C 0.58092 0.64324 0.13798 0.0
C1343 C 0.57307 0.65846 0.10322 0.0
C1344 C 0.59076 0.66598 0.07242 0.0
C1345 C 0.56287 0.63653 0.17261 0.0
C1346 C 0.5601 0.61063 0.18342 0.0
C1347 C 0.54934 0.65555 0.19621 0.0
C1348 C 0.55241 0.68333 0.1881 0.0
C1349 C 0.53089 0.69833 0.17739 0.0
C1350 C 0.53374 0.72452 0.16962 0.0
C1351 C 0.558 0.73594 0.17272 0.0
C1352 C 0.57946 0.72122 0.18377 0.0
C1353 C 0.57671 0.69503 0.19164 0.0
H1354 H 0.56017 0.75621 0.16666 0.0
H1355 H 0.54015 0.50362 0.25935 0.0
H1356 H 0.45857 0.53032 0.31295 0.0
H1357 H 0.43825 0.55519 0.25532 0.0
H1358 H 0.36403 0.52651 0.29127 0.0
H1359 H 0.38411 0.50159 0.34831 0.0
H1360 H 0.36895 0.52467 0.20681 0.0
H1361 H 0.38557 0.58681 0.32073 0.0
H1362 H 0.4113 0.61256 0.37321 0.0
H1363 H 0.45428 0.64433 0.26996 0.0
H1364 H 0.42925 0.61825 0.21688 0.0
H1365 H 0.28519 0.60695 0.09883 0.0
H1366 H 0.30887 0.58783 0.15883 0.0
H1367 H 0.37991 0.61666 0.10909 0.0
H1368 H 0.35623 0.6366 0.0496 0.0
H1369 H 0.37897 0.61915 0.1981 0.0
H1370 H 0.36231 0.55692 0.08463 0.0
H1371 H 0.33528 0.53254 0.03214 0.0
H1372 H 0.29186 0.50162 0.13564 0.0
H1373 H 0.31839 0.52616 0.18874 0.0
C1374 C 0.43792 0.52942 0.30856 0.0
C1375 C 0.42292 0.51431 0.33551 0.0
C1376 C 0.42634 0.54367 0.27575 0.0
C1377 C 0.39958 0.54305 0.26954 0.0
C1378 C 0.3847 0.52739 0.29566 0.0
C1379 C 0.39623 0.51315 0.32829 0.0
C1380 C 0.38686 0.55833 0.23549 0.0
C1381 C 0.37095 0.54537 0.20525 0.0
C1382 C 0.39006 0.58526 0.23274 0.0
C1383 C 0.40567 0.60036 0.26481 0.0
C1384 C 0.40072 0.59903 0.30921 0.0
C1385 C 0.41512 0.61376 0.33907 0.0
C1386 C 0.43432 0.63016 0.3249 0.0
C1387 C 0.4393 0.63172 0.28086 0.0
C1388 C 0.42508 0.61689 0.25089 0.0
C1389 C 0.30575 0.60985 0.10127 0.0
C1390 C 0.31887 0.6231 0.06927 0.0
C1391 C 0.31929 0.59871 0.13535 0.0
C1392 C 0.34617 0.60043 0.13786 0.0
C1393 C 0.35918 0.61498 0.10753 0.0
C1394 C 0.34565 0.62618 0.07345 0.0
C1395 C 0.36076 0.5855 0.17021 0.0
C1396 C 0.3771 0.59846 0.19978 0.0
C1397 C 0.35801 0.55854 0.1725 0.0
C1398 C 0.34219 0.54357 0.14063 0.0
C1399 C 0.34688 0.54507 0.09618 0.0
C1400 C 0.33166 0.5312 0.06632 0.0
C1401 C 0.31183 0.51558 0.08054 0.0
C1402 C 0.30721 0.51375 0.12467 0.0
C1403 C 0.32234 0.52763 0.15466 0.0
H1404 H 0.30007 0.50486 0.05737 0.0
H1405 H 0.44542 0.64158 0.34805 0.0
H1406 H 0.4619 0.45508 0.33013 0.0
H1407 H 0.43509 0.4362 0.27228 0.0
H1408 H 0.45973 0.36046 0.30874 0.0
H1409 H 0.48697 0.3792 0.36598 0.0
H1410 H 0.46397 0.3666 0.22463 0.0
H1411 H 0.39738 0.38281 0.32902 0.0
H1412 H 0.37365 0.41053 0.37999 0.0
H1413 H 0.35308 0.46098 0.27708 0.0
H1414 H 0.37672 0.43356 0.22548 0.0
H1415 H 0.38499 0.29395 0.08731 0.0
H1416 H 0.40107 0.31272 0.15512 0.0
H1417 H 0.37616 0.38763 0.11495 0.0
H1418 H 0.3587 0.36875 0.04771 0.0
H1419 H 0.37091 0.38273 0.2013 0.0
H1420 H 0.43688 0.36867 0.09771 0.0
H1421 H 0.46236 0.34376 0.04528 0.0
H1422 H 0.48636 0.29257 0.14516 0.0
H1423 H 0.46067 0.31697 0.19808 0.0
C1424 C 0.46142 0.4344 0.32609 0.0
C1425 C 0.47664 0.41864 0.35251 0.0
C1426 C 0.44597 0.42362 0.29313 0.0
C1427 C 0.44522 0.39688 0.28641 0.0
C1428 C 0.46002 0.38113 0.31333 0.0
C1429 C 0.47559 0.39188 0.34603 0.0
C1430 C 0.43034 0.38531 0.2497 0.0
C1431 C 0.44352 0.36975 0.22002 0.0
C1432 C 0.40388 0.39022 0.24277 0.0
C1433 C 0.38892 0.40621 0.27345 0.0
C1434 C 0.38782 0.39983 0.31728 0.0
C1435 C 0.37438 0.41547 0.34628 0.0
C1436 C 0.36192 0.43752 0.3318 0.0
C1437 C 0.36272 0.44387 0.28823 0.0
C1438 C 0.37605 0.42824 0.25907 0.0
C1439 C 0.38214 0.31428 0.09331 0.0
C1440 C 0.3708 0.32988 0.06171 0.0
C1441 C 0.39161 0.32504 0.132 0.0
C1442 C 0.39035 0.35166 0.13963 0.0
C1443 C 0.37752 0.36707 0.10956 0.0
C1444 C 0.3678 0.35628 0.07095 0.0
C1445 C 0.40449 0.36356 0.17689 0.0
C1446 C 0.39128 0.37935 0.2063 0.0
C1447 C 0.43108 0.35914 0.18346 0.0
C1448 C 0.44664 0.34449 0.15175 0.0
C1449 C 0.44743 0.35198 0.10842 0.0
C1450 C 0.46193 0.33797 0.07863 0.0
C1451 C 0.47592 0.31656 0.09186 0.0
C1452 C 0.47548 0.30914 0.13494 0.0
C1453 C 0.46096 0.32306 0.16486 0.0
H1454 H 0.48715 0.30574 0.06875 0.0
H1455 H 0.35163 0.44967 0.35433 0.0
loop_
_geom_bond_atom_site_label_1
_geom_bond_atom_site_label_2
_geom_bond_distance
_geom_bond_site_symmetry_2
_ccdc_geom_bond_type
Zn0 O2 1.933 1_556 S
Zn0 O20 1.985 . S
Zn0 O31 1.955 . S
Zn1 O2 1.911 . S
Zn1 O21 1.970 . S
Zn1 O37 1.945 . S
Zn1 O44 1.981 . S
O2 Zn0 1.933 1_554 S
O2 Zn1 1.911 . S
O2 H3 0.841 1_655 S
H3 O2 0.841 1_455 S
C4 O5 1.246 . S
C4 O33 1.277 1_545 S
O5 C4 1.246 . S
Zn6 O8 1.911 . S
Zn6 O23 1.970 . S
Zn6 O40 1.945 . S
Zn6 O47 1.981 . S
Zn7 O8 1.933 1_556 S
Zn7 O22 1.985 . S
Zn7 O29 1.955 . S
O8 Zn6 1.911 . S
O8 Zn7 1.933 1_554 S
O8 H9 0.841 1_455 S
H9 O8 0.841 1_655 S
Zn10 O11 1.933 1_556 S
Zn10 O24 1.985 . S
Zn10 O33 1.954 . S
O11 Zn10 1.933 1_554 S
O11 Zn12 1.911 . S
O11 H13 0.841 1_565 S
Zn12 O11 1.911 . S
Zn12 O25 1.970 . S
Zn12 O41 1.981 . S
Zn12 O43 1.945 . S
H13 O11 0.841 1_545 S
Zn14 O15 1.933 1_556 S
Zn14 O27 1.985 . S
Zn14 O35 1.955 . S
O15 Zn14 1.933 1_554 S
O15 H16 0.841 1_545 S
O15 Zn17 1.911 . S
H16 O15 0.841 1_565 S
Zn17 O15 1.911 . S
Zn17 O28 1.970 . S
Zn17 O38 1.981 . S
Zn17 O46 1.945 . S
C18 O19 1.246 . S
C18 O35 1.276 1_565 S
O19 C18 1.246 . S
O20 Zn0 1.985 . S
O20 C30 1.245 1_556 S
O21 Zn1 1.970 . S
O21 C30 1.263 . S
O22 Zn7 1.985 . S
O22 C34 1.245 1_556 S
O23 Zn6 1.970 . S
O23 C34 1.263 . S
O24 Zn10 1.985 . S
O24 C39 1.245 1_556 S
O25 Zn12 1.970 . S
O25 C39 1.263 . S
C26 O37 1.262 1_455 S
C26 O38 1.245 . S
O27 Zn14 1.985 . S
O27 C45 1.245 1_556 S
O28 Zn17 1.970 . S
O28 C45 1.263 . S
O29 Zn7 1.955 . S
O29 C48 1.276 1_455 S
C30 O20 1.245 1_554 S
C30 O21 1.263 . S
O31 Zn0 1.955 . S
O31 C50 1.276 1_655 S
C32 O40 1.262 1_655 S
C32 O41 1.245 . S
O33 C4 1.277 1_565 S
O33 Zn10 1.954 . S
C34 O22 1.245 1_554 S
C34 O23 1.263 . S
O35 Zn14 1.955 . S
O35 C18 1.276 1_545 S
C36 O43 1.262 1_545 S
C36 O44 1.245 . S
O37 Zn1 1.945 . S
O37 C26 1.262 1_655 S
O38 Zn17 1.981 . S
O38 C26 1.245 . S
C39 O24 1.245 1_554 S
C39 O25 1.263 . S
O40 Zn6 1.945 . S
O40 C32 1.262 1_455 S
O41 Zn12 1.981 . S
O41 C32 1.245 . S
C42 O46 1.262 1_565 S
C42 O47 1.245 . S
O43 Zn12 1.945 . S
O43 C36 1.262 1_565 S
O44 Zn1 1.981 . S
O44 C36 1.245 . S
C45 O27 1.245 1_554 S
C45 O28 1.263 . S
O46 Zn17 1.945 . S
O46 C42 1.262 1_545 S
O47 Zn6 1.981 . S
O47 C42 1.245 . S
C48 O29 1.276 1_655 S
C48 O49 1.246 . S
O49 C48 1.246 . S
C50 O31 1.276 1_455 S
C50 O51 1.246 . S
O51 C50 1.246 . S
Zn52 O54 1.933 . S
Zn52 O72 1.985 . S
Zn52 O83 1.955 . S
Zn53 O54 1.911 . S
Zn53 O73 1.970 . S
Zn53 O89 1.945 . S
Zn53 O96 1.981 . S
O54 Zn52 1.933 . S
O54 Zn53 1.911 . S
O54 H55 0.841 . S
H55 O54 0.841 . S
C56 O57 1.246 . S
C56 O85 1.276 . S
O57 C56 1.246 . S
Zn58 O60 1.911 . S
Zn58 O75 1.970 . S
Zn58 O92 1.945 . S
Zn58 O99 1.981 . S
Zn59 O60 1.933 . S
Zn59 O74 1.985 . S
Zn59 O81 1.955 . S
O60 Zn58 1.911 . S
O60 Zn59 1.933 . S
O60 H61 0.841 . S
H61 O60 0.841 . S
Zn62 O63 1.933 . S
Zn62 O76 1.985 . S
Zn62 O85 1.955 . S
O63 Zn62 1.933 . S
O63 Zn64 1.911 . S
O63 H65 0.841 . S
Zn64 O63 1.911 . S
Zn64 O77 1.970 . S
Zn64 O93 1.981 . S
Zn64 O95 1.945 . S
H65 O63 0.841 . S
Zn66 O67 1.933 . S
Zn66 O79 1.985 . S
Zn66 O87 1.955 . S
O67 Zn66 1.933 . S
O67 H68 0.841 . S
O67 Zn69 1.911 . S
H68 O67 0.841 . S
Zn69 O67 1.911 . S
Zn69 O80 1.970 . S
Zn69 O90 1.981 . S
Zn69 O98 1.945 . S
C70 O71 1.246 . S
C70 O87 1.276 . S
O71 C70 1.246 . S
O72 Zn52 1.985 . S
O72 C82 1.245 . S
O73 Zn53 1.970 . S
O73 C82 1.263 . S
O74 Zn59 1.985 . S
O74 C86 1.245 . S
O75 Zn58 1.970 . S
O75 C86 1.263 . S
O76 Zn62 1.985 . S
O76 C91 1.245 . S
O77 Zn64 1.970 . S
O77 C91 1.263 . S
C78 O89 1.262 . S
C78 O90 1.245 . S
O79 Zn66 1.985 . S
O79 C97 1.245 . S
O80 Zn69 1.970 . S
O80 C97 1.263 . S
O81 Zn59 1.955 . S
O81 C100 1.276 . S
C82 O72 1.245 . S
C82 O73 1.263 . S
O83 Zn52 1.955 . S
O83 C102 1.276 . S
C84 O92 1.262 . S
C84 O93 1.245 . S
O85 C56 1.276 . S
O85 Zn62 1.955 . S
C86 O74 1.245 . S
C86 O75 1.263 . S
O87 Zn66 1.955 . S
O87 C70 1.276 . S
C88 O95 1.262 . S
C88 O96 1.245 . S
O89 Zn53 1.945 . S
O89 C78 1.262 . S
O90 Zn69 1.981 . S
O90 C78 1.245 . S
C91 O76 1.245 . S
C91 O77 1.263 . S
O92 Zn58 1.945 . S
O92 C84 1.262 . S
O93 Zn64 1.981 . S
O93 C84 1.245 . S
C94 O98 1.262 . S
C94 O99 1.245 . S
O95 Zn64 1.945 . S
O95 C88 1.262 . S
O96 Zn53 1.981 . S
O96 C88 1.245 . S
C97 O79 1.245 . S
C97 O80 1.263 . S
O98 Zn69 1.945 . S
O98 C94 1.262 . S
O99 Zn58 1.981 . S
O99 C94 1.245 . S
C100 O81 1.276 . S
C100 O101 1.246 . S
O101 C100 1.246 . S
C102 O83 1.276 . S
C102 O103 1.246 . S
O103 C102 1.246 . S
H104 C105 0.949 . S
C105 H104 0.949 . S
C105 C106 1.395 . S
C105 C107 1.391 1_554 S
C106 C105 1.395 . S
C106 C109 1.390 . S
C107 C105 1.391 1_556 S
C107 C111 1.387 . S
C107 C112 1.491 . S
H108 C109 0.950 . S
C109 C106 1.390 . S
C109 H108 0.950 . S
C109 C110 1.378 1_554 S
C110 C109 1.378 1_556 S
C110 C111 1.409 . S
C111 C107 1.387 . S
C111 C110 1.409 . S
C111 H113 0.951 . S
C112 C107 1.491 . S
C112 C114 1.382 1_556 S
C112 C116 1.404 . S
H113 C111 0.951 . S
C114 C112 1.382 1_554 S
C114 C115 1.388 1_554 S
C114 H119 0.949 . S
C115 C114 1.388 1_556 S
C115 C120 1.411 . S
C116 C112 1.404 . S
C116 H117 0.950 . S
C116 C118 1.375 . S
H117 C116 0.950 . S
C118 C116 1.375 . S
C118 C120 1.382 . S
C118 H122 0.950 . S
H119 C114 0.949 . S
C120 C115 1.411 . S
C120 C118 1.382 . S
C120 H121 0.952 . S
H121 C120 0.952 . S
H122 C118 0.950 . S
H123 C124 0.949 . S
C124 H123 0.949 . S
C124 C125 1.395 . S
C124 C126 1.391 1_554 S
C125 C124 1.395 . S
C125 C128 1.390 . S
C126 C124 1.391 1_556 S
C126 C130 1.387 . S
C126 C131 1.491 . S
H127 C128 0.950 . S
C128 C125 1.390 . S
C128 H127 0.950 . S
C128 C129 1.378 1_554 S
C129 C128 1.378 1_556 S
C129 C130 1.409 . S
C130 C126 1.387 . S
C130 C129 1.409 . S
C130 H132 0.951 . S
C131 C126 1.491 . S
C131 C133 1.382 1_556 S
C131 C135 1.404 . S
H132 C130 0.951 . S
C133 C131 1.382 1_554 S
C133 C134 1.390 . S
C133 H138 0.949 . S
C134 C133 1.390 . S
C134 C139 1.399 1_554 S
C135 C131 1.404 . S
C135 H136 0.950 . S
C135 C137 1.375 . S
H136 C135 0.950 . S
C137 C135 1.375 . S
C137 C139 1.382 . S
C137 H141 0.950 . S
H138 C133 0.949 . S
C139 C134 1.399 1_556 S
C139 C137 1.382 . S
C139 H140 0.952 . S
H140 C139 0.952 . S
H141 C137 0.950 . S
H142 C143 0.949 . S
C143 H142 0.949 . S
C143 C144 1.395 . S
C143 C145 1.391 1_556 S
C144 C143 1.395 . S
C144 C147 1.390 1_556 S
C145 C143 1.391 1_554 S
C145 C149 1.387 . S
C145 C150 1.491 . S
H146 C147 0.950 . S
C147 C144 1.390 1_554 S
C147 H146 0.950 . S
C147 C148 1.378 . S
C148 C147 1.378 . S
C148 C149 1.409 . S
C149 C145 1.387 . S
C149 C148 1.409 . S
C149 H151 0.951 . S
C150 C145 1.491 . S
C150 C152 1.382 . S
C150 C154 1.404 . S
H151 C149 0.951 . S
C152 C150 1.382 . S
C152 C153 1.390 . S
C152 H157 0.949 1_554 S
C153 C152 1.390 . S
C153 C158 1.399 . S
C154 C150 1.404 . S
C154 H155 0.950 . S
C154 C156 1.375 . S
H155 C154 0.950 . S
C156 C154 1.375 . S
C156 C158 1.382 . S
C156 H160 0.950 . S
H157 C152 0.949 1_556 S
C158 C153 1.399 . S
C158 C156 1.382 . S
C158 H159 0.952 . S
H159 C158 0.952 . S
H160 C156 0.950 . S
H161 C162 0.949 . S
C162 H161 0.949 . S
C162 C163 1.395 . S
C162 C164 1.391 1_554 S
C163 C162 1.395 . S
C163 C166 1.390 . S
C164 C162 1.391 1_556 S
C164 C168 1.387 . S
C164 C169 1.491 . S
H165 C166 0.950 . S
C166 C163 1.390 . S
C166 H165 0.950 . S
C166 C167 1.378 1_554 S
C167 C166 1.378 1_556 S
C167 C168 1.409 . S
C168 C164 1.387 . S
C168 C167 1.409 . S
C168 H170 0.951 . S
C169 C164 1.491 . S
C169 C171 1.382 1_556 S
C169 C173 1.404 . S
H170 C168 0.951 . S
C171 C169 1.382 1_554 S
C171 C172 1.393 . S
C171 H176 0.949 . S
C172 C171 1.393 . S
C172 C177 1.382 1_554 S
C173 C169 1.404 . S
C173 H174 0.950 . S
C173 C175 1.375 . S
H174 C173 0.950 . S
C175 C173 1.375 . S
C175 C177 1.382 . S
C175 H179 0.950 . S
H176 C171 0.949 . S
C177 C172 1.382 1_556 S
C177 C175 1.382 . S
C177 H178 0.952 . S
H178 C177 0.952 . S
H179 C175 0.950 . S
H180 C181 0.949 . S
C181 H180 0.949 . S
C181 C182 1.395 . S
C181 C183 1.391 . S
C182 C181 1.395 . S
C182 C185 1.390 . S
C183 C181 1.391 . S
C183 C187 1.387 . S
C183 C188 1.491 . S
H184 C185 0.950 . S
C185 C182 1.390 . S
C185 H184 0.950 . S
C185 C186 1.378 . S
C186 C185 1.378 . S
C186 C187 1.409 . S
C187 C183 1.387 . S
C187 C186 1.409 . S
C187 H189 0.951 . S
C188 C183 1.491 . S
C188 C190 1.382 . S
C188 C192 1.404 . S
H189 C187 0.951 . S
C190 C188 1.382 . S
C190 C191 1.390 . S
C190 H195 0.949 . S
C191 C190 1.390 . S
C191 C196 1.399 . S
C192 C188 1.404 . S
C192 H193 0.950 . S
C192 C194 1.375 . S
H193 C192 0.950 . S
C194 C192 1.375 . S
C194 C196 1.382 . S
C194 H198 0.950 . S
H195 C190 0.949 . S
C196 C191 1.399 . S
C196 C194 1.382 . S
C196 H197 0.952 . S
H197 C196 0.952 . S
H198 C194 0.950 . S
H199 C200 0.949 . S
C200 H199 0.949 . S
C200 C201 1.395 . S
C200 C202 1.391 . S
C201 C200 1.395 . S
C201 C204 1.390 . S
C202 C200 1.391 . S
C202 C206 1.387 . S
C202 C207 1.491 . S
H203 C204 0.950 . S
C204 C201 1.390 . S
C204 H203 0.950 . S
C204 C205 1.378 . S
C205 C204 1.378 . S
C205 C206 1.409 . S
C206 C202 1.387 . S
C206 C205 1.409 . S
C206 H208 0.951 . S
C207 C202 1.491 . S
C207 C209 1.382 . S
C207 C211 1.404 . S
H208 C206 0.951 . S
C209 C207 1.382 . S
C209 C210 1.390 . S
C209 H214 0.949 . S
C210 C209 1.390 . S
C210 C215 1.399 . S
C211 C207 1.404 . S
C211 H212 0.950 . S
C211 C213 1.375 . S
H212 C211 0.950 . S
C213 C211 1.375 . S
C213 C215 1.382 . S
C213 H217 0.950 . S
H214 C209 0.949 . S
C215 C210 1.399 . S
C215 C213 1.382 . S
C215 H216 0.952 . S
H216 C215 0.952 . S
H217 C213 0.950 . S
H218 C219 0.949 . S
C219 H218 0.949 . S
C219 C220 1.395 . S
C219 C221 1.391 . S
C220 C219 1.395 . S
C220 C223 1.390 . S
C221 C219 1.391 . S
C221 C225 1.387 . S
C221 C226 1.491 . S
H222 C223 0.950 . S
C223 C220 1.390 . S
C223 H222 0.950 . S
C223 C224 1.378 . S
C224 C223 1.378 . S
C224 C225 1.409 . S
C225 C221 1.387 . S
C225 C224 1.409 . S
C225 H227 0.951 . S
C226 C221 1.491 . S
C226 C228 1.382 . S
C226 C230 1.404 . S
H227 C225 0.951 . S
C228 C226 1.382 . S
C228 C229 1.390 . S
C228 H233 0.949 . S
C229 C228 1.390 . S
C229 C234 1.399 . S
C230 C226 1.404 . S
C230 H231 0.950 . S
C230 C232 1.375 . S
H231 C230 0.950 . S
C232 C230 1.375 . S
C232 C234 1.382 . S
C232 H236 0.950 . S
H233 C228 0.949 . S
C234 C229 1.399 . S
C234 C232 1.382 . S
C234 H235 0.952 . S
H235 C234 0.952 . S
H236 C232 0.950 . S
H237 C238 0.949 . S
C238 H237 0.949 . S
C238 C239 1.395 . S
C238 C240 1.391 . S
C239 C238 1.395 . S
C239 C242 1.390 . S
C240 C238 1.391 . S
C240 C244 1.387 . S
C240 C245 1.491 . S
H241 C242 0.950 . S
C242 C239 1.390 . S
C242 H241 0.950 . S
C242 C243 1.378 . S
C243 C242 1.378 . S
C243 C244 1.409 . S
C244 C240 1.387 . S
C244 C243 1.409 . S
C244 H246 0.951 . S
C245 C240 1.491 . S
C245 C247 1.382 . S
C245 C249 1.404 . S
H246 C244 0.951 . S
C247 C245 1.382 . S
C247 C248 1.390 . S
C247 H252 0.949 . S
C248 C247 1.390 . S
C248 C253 1.399 . S
C249 C245 1.404 . S
C249 H250 0.950 . S
C249 C251 1.375 . S
H250 C249 0.950 . S
C251 C249 1.375 . S
C251 C253 1.382 . S
C251 H255 0.950 . S
H252 C247 0.949 . S
C253 C248 1.399 . S
C253 C251 1.382 . S
C253 H254 0.952 . S
H254 C253 0.952 . S
H255 C251 0.950 . S
H256 C274 0.951 . S
H257 C276 0.951 . S
H258 C278 0.950 . S
H259 C279 0.950 . S
H260 C281 0.950 . S
H261 C284 0.950 . S
H262 C285 0.950 . S
H263 C287 0.950 . S
H264 C288 0.950 . S
H265 C289 0.951 1_556 S
H266 C291 0.951 1_556 S
H267 C293 0.950 . S
H268 C294 0.950 . S
H269 C296 0.950 . S
H270 C299 0.950 . S
H271 C300 0.950 . S
H272 C302 0.950 . S
H273 C303 0.950 . S
C274 H256 0.951 . S
C274 C275 1.366 . S
C274 C276 1.388 . S
C275 C274 1.366 . S
C275 C279 1.385 1_554 S
C276 H257 0.951 . S
C276 C274 1.388 . S
C276 C277 1.366 . S
C277 C276 1.366 . S
C277 C278 1.414 1_554 S
C277 C280 1.499 . S
C278 H258 0.950 . S
C278 C277 1.414 1_556 S
C278 C279 1.374 . S
C279 H259 0.950 . S
C279 C275 1.385 1_556 S
C279 C278 1.374 . S
C280 C277 1.499 . S
C280 C281 1.373 . S
C280 C282 1.389 1_554 S
C281 H260 0.950 . S
C281 C280 1.373 . S
C281 C297 1.377 . S
C282 C280 1.389 1_556 S
C282 C283 1.524 . S
C282 C296 1.377 . S
C283 C282 1.524 . S
C283 C284 1.397 . S
C283 C288 1.363 . S
C284 H261 0.950 . S
C284 C283 1.397 . S
C284 C285 1.334 . S
C285 H262 0.950 . S
C285 C284 1.334 . S
C285 C286 1.287 . S
C286 C285 1.287 . S
C286 C287 1.524 . S
C286 H305 0.913 . S
C287 H263 0.950 . S
C287 C286 1.524 . S
C287 C288 1.415 . S
C288 H264 0.950 . S
C288 C283 1.363 . S
C288 C287 1.415 . S
C289 H265 0.951 1_554 S
C289 C290 1.366 . S
C289 C291 1.388 . S
C290 C289 1.366 . S
C290 C294 1.385 . S
C291 H266 0.951 1_554 S
C291 C289 1.388 . S
C291 C292 1.366 . S
C292 C291 1.366 . S
C292 C293 1.414 . S
C292 C295 1.499 . S
C293 H267 0.950 . S
C293 C292 1.414 . S
C293 C294 1.374 . S
C294 H268 0.950 . S
C294 C290 1.385 . S
C294 C293 1.374 . S
C295 C292 1.499 . S
C295 C296 1.373 1_554 S
C295 C297 1.389 . S
C296 H269 0.950 . S
C296 C282 1.377 . S
C296 C295 1.373 1_556 S
C297 C281 1.377 . S
C297 C295 1.389 . S
C297 C298 1.524 . S
C298 C297 1.524 . S
C298 C299 1.397 . S
C298 C303 1.363 . S
C299 H270 0.950 . S
C299 C298 1.397 . S
C299 C300 1.334 . S
C300 H271 0.950 . S
C300 C299 1.334 . S
C300 C301 1.287 . S
C301 C300 1.287 . S
C301 C302 1.524 . S
C301 H304 0.999 . S
C302 H272 0.950 . S
C302 C301 1.524 . S
C302 C303 1.415 . S
C303 H273 0.950 . S
C303 C298 1.363 . S
C303 C302 1.415 . S
H304 C301 0.999 . S
H305 C286 0.913 . S
H306 C324 0.951 . S
H307 C326 0.951 . S
H308 C328 0.950 . S
H309 C329 0.950 . S
H310 C331 0.950 . S
H311 C334 0.950 . S
H312 C335 0.950 . S
H313 C337 0.950 . S
H314 C338 0.950 . S
H315 C339 0.951 1_556 S
H316 C341 0.951 1_556 S
H317 C343 0.950 . S
H318 C344 0.950 . S
H319 C346 0.950 . S
H320 C349 0.950 . S
H321 C350 0.950 . S
H322 C352 0.950 . S
H323 C353 0.950 . S
C324 H306 0.951 . S
C324 C325 1.366 . S
C324 C326 1.388 . S
C325 C324 1.366 . S
C325 C329 1.385 1_554 S
C326 H307 0.951 . S
C326 C324 1.388 . S
C326 C327 1.366 . S
C327 C326 1.366 . S
C327 C328 1.414 1_554 S
C327 C330 1.499 . S
C328 H308 0.950 . S
C328 C327 1.414 1_556 S
C328 C329 1.374 . S
C329 H309 0.950 . S
C329 C325 1.385 1_556 S
C329 C328 1.374 . S
C330 C327 1.499 . S
C330 C331 1.373 . S
C330 C332 1.389 1_554 S
C331 H310 0.950 . S
C331 C330 1.373 . S
C331 C347 1.377 . S
C332 C330 1.389 1_556 S
C332 C333 1.524 . S
C332 C346 1.377 . S
C333 C332 1.524 . S
C333 C334 1.397 . S
C333 C338 1.363 . S
C334 H311 0.950 . S
C334 C333 1.397 . S
C334 C335 1.334 . S
C335 H312 0.950 . S
C335 C334 1.334 . S
C335 C336 1.287 . S
C336 C335 1.287 . S
C336 C337 1.524 . S
C336 H355 0.913 . S
C337 H313 0.950 . S
C337 C336 1.524 . S
C337 C338 1.415 . S
C338 H314 0.950 . S
C338 C333 1.363 . S
C338 C337 1.415 . S
C339 H315 0.951 1_554 S
C339 C340 1.366 . S
C339 C341 1.388 . S
C340 C339 1.366 . S
C340 C344 1.385 . S
C341 H316 0.951 1_554 S
C341 C339 1.388 . S
C341 C342 1.366 . S
C342 C341 1.366 . S
C342 C343 1.414 . S
C342 C345 1.499 . S
C343 H317 0.950 . S
C343 C342 1.414 . S
C343 C344 1.374 . S
C344 H318 0.950 . S
C344 C340 1.385 . S
C344 C343 1.374 . S
C345 C342 1.499 . S
C345 C346 1.373 1_554 S
C345 C347 1.389 . S
C346 H319 0.950 . S
C346 C332 1.377 . S
C346 C345 1.373 1_556 S
C347 C331 1.377 . S
C347 C345 1.389 . S
C347 C348 1.524 . S
C348 C347 1.524 . S
C348 C349 1.397 . S
C348 C353 1.363 . S
C349 H320 0.950 . S
C349 C348 1.397 . S
C349 C350 1.334 . S
C350 H321 0.950 . S
C350 C349 1.334 . S
C350 C351 1.287 . S
C351 C350 1.287 . S
C351 C352 1.524 . S
C351 H354 0.999 . S
C352 H322 0.950 . S
C352 C351 1.524 . S
C352 C353 1.415 . S
C353 H323 0.950 . S
C353 C348 1.363 . S
C353 C352 1.415 . S
H354 C351 0.999 . S
H355 C336 0.913 . S
H356 C374 0.951 . S
H357 C376 0.951 . S
H358 C378 0.950 . S
H359 C379 0.950 . S
H360 C381 0.950 . S
H361 C384 0.950 . S
H362 C385 0.950 . S
H363 C387 0.950 . S
H364 C388 0.950 . S
H365 C389 0.951 . S
H366 C391 0.951 . S
H367 C393 0.950 . S
H368 C394 0.950 . S
H369 C396 0.950 . S
H370 C399 0.950 . S
H371 C400 0.950 . S
H372 C402 0.950 . S
H373 C403 0.950 . S
C374 H356 0.951 . S
C374 C375 1.366 1_556 S
C374 C376 1.388 . S
C375 C374 1.366 1_554 S
C375 C379 1.385 . S
C376 H357 0.951 . S
C376 C374 1.388 . S
C376 C377 1.357 1_556 S
C377 C376 1.357 1_554 S
C377 C378 1.423 . S
C377 C380 1.499 . S
C378 H358 0.950 . S
C378 C377 1.423 . S
C378 C379 1.374 . S
C379 H359 0.950 . S
C379 C375 1.385 . S
C379 C378 1.374 . S
C380 C377 1.499 . S
C380 C381 1.385 . S
C380 C382 1.378 1_554 S
C381 H360 0.950 . S
C381 C380 1.385 . S
C381 C397 1.377 . S
C382 C380 1.378 1_556 S
C382 C383 1.524 . S
C382 C396 1.377 . S
C383 C382 1.524 . S
C383 C384 1.397 . S
C383 C388 1.363 . S
C384 H361 0.950 . S
C384 C383 1.397 . S
C384 C385 1.334 . S
C385 H362 0.950 . S
C385 C384 1.334 . S
C385 C386 1.287 . S
C386 C385 1.287 . S
C386 C387 1.524 . S
C386 H405 0.913 . S
C387 H363 0.950 . S
C387 C386 1.524 . S
C387 C388 1.415 . S
C388 H364 0.950 . S
C388 C383 1.363 . S
C388 C387 1.415 . S
C389 H365 0.951 . S
C389 C390 1.366 1_554 S
C389 C391 1.388 . S
C390 C389 1.366 1_556 S
C390 C394 1.385 . S
C391 H366 0.951 . S
C391 C389 1.388 . S
C391 C392 1.365 1_554 S
C392 C391 1.365 1_556 S
C392 C393 1.414 . S
C392 C395 1.499 . S
C393 H367 0.950 . S
C393 C392 1.414 . S
C393 C394 1.374 . S
C394 H368 0.950 . S
C394 C390 1.385 . S
C394 C393 1.374 . S
C395 C392 1.499 . S
C395 C396 1.374 . S
C395 C397 1.388 1_556 S
C396 H369 0.950 . S
C396 C382 1.377 . S
C396 C395 1.374 . S
C397 C381 1.377 . S
C397 C395 1.388 1_554 S
C397 C398 1.524 . S
C398 C397 1.524 . S
C398 C399 1.397 . S
C398 C403 1.363 . S
C399 H370 0.950 . S
C399 C398 1.397 . S
C399 C400 1.334 . S
C400 H371 0.950 . S
C400 C399 1.334 . S
C400 C401 1.287 . S
C401 C400 1.287 . S
C401 C402 1.524 . S
C401 H404 0.999 . S
C402 H372 0.950 . S
C402 C401 1.524 . S
C402 C403 1.415 . S
C403 H373 0.950 . S
C403 C398 1.363 . S
C403 C402 1.415 . S
H404 C401 0.999 . S
H405 C386 0.913 . S
H406 C424 0.951 . S
H407 C426 0.951 . S
H408 C428 0.950 . S
H409 C429 0.950 . S
H410 C431 0.950 . S
H411 C434 0.950 . S
H412 C435 0.950 . S
H413 C437 0.950 . S
H414 C438 0.950 . S
H415 C439 0.951 . S
H416 C441 0.951 . S
H417 C443 0.950 . S
H418 C444 0.950 . S
H419 C446 0.950 . S
H420 C449 0.950 . S
H421 C450 0.950 . S
H422 C452 0.950 . S
H423 C453 0.950 . S
C424 H406 0.951 . S
C424 C425 1.366 1_556 S
C424 C426 1.388 . S
C425 C424 1.366 1_554 S
C425 C429 1.385 . S
C426 H407 0.951 . S
C426 C424 1.388 . S
C426 C427 1.366 1_556 S
C427 C426 1.366 1_554 S
C427 C428 1.414 . S
C427 C430 1.499 . S
C428 H408 0.950 . S
C428 C427 1.414 . S
C428 C429 1.374 . S
C429 H409 0.950 . S
C429 C425 1.385 . S
C429 C428 1.374 . S
C430 C427 1.499 . S
C430 C431 1.373 . S
C430 C432 1.389 1_554 S
C431 H410 0.950 . S
C431 C430 1.373 . S
C431 C447 1.377 . S
C432 C430 1.389 1_556 S
C432 C433 1.524 . S
C432 C446 1.377 . S
C433 C432 1.524 . S
C433 C434 1.397 . S
C433 C438 1.363 . S
C434 H411 0.950 . S
C434 C433 1.397 . S
C434 C435 1.334 . S
C435 H412 0.950 . S
C435 C434 1.334 . S
C435 C436 1.287 . S
C436 C435 1.287 . S
C436 C437 1.524 . S
C436 H455 0.913 . S
C437 H413 0.950 . S
C437 C436 1.524 . S
C437 C438 1.415 . S
C438 H414 0.950 . S
C438 C433 1.363 . S
C438 C437 1.415 . S
C439 H415 0.951 . S
C439 C440 1.366 . S
C439 C441 1.388 . S
C440 C439 1.366 . S
C440 C444 1.385 1_554 S
C441 H416 0.951 . S
C441 C439 1.388 . S
C441 C442 1.366 . S
C442 C441 1.366 . S
C442 C443 1.414 1_554 S
C442 C445 1.499 . S
C443 H417 0.950 . S
C443 C442 1.414 1_556 S
C443 C444 1.374 . S
C444 H418 0.950 . S
C444 C440 1.385 1_556 S
C444 C443 1.374 . S
C445 C442 1.499 . S
C445 C446 1.373 1_554 S
C445 C447 1.389 . S
C446 H419 0.950 . S
C446 C432 1.377 . S
C446 C445 1.373 1_556 S
C447 C431 1.377 . S
C447 C445 1.389 . S
C447 C448 1.524 . S
C448 C447 1.524 . S
C448 C449 1.397 . S
C448 C453 1.363 . S
C449 H420 0.950 . S
C449 C448 1.397 . S
C449 C450 1.334 . S
C450 H421 0.950 . S
C450 C449 1.334 . S
C450 C451 1.287 . S
C451 C450 1.287 . S
C451 C452 1.524 . S
C451 H454 0.999 . S
C452 H422 0.950 . S
C452 C451 1.524 . S
C452 C453 1.415 . S
C453 H423 0.950 . S
C453 C448 1.363 . S
C453 C452 1.415 . S
H454 C451 0.999 . S
H455 C436 0.913 . S
H456 C474 0.951 . S
H457 C476 0.951 . S
H458 C478 0.950 . S
H459 C479 0.950 . S
H460 C481 0.950 . S
H461 C484 0.950 . S
H462 C485 0.950 . S
H463 C487 0.950 . S
H464 C488 0.950 . S
H465 C489 0.951 . S
H466 C491 0.951 . S
H467 C493 0.950 . S
H468 C494 0.950 . S
H469 C496 0.950 . S
H470 C499 0.950 . S
H471 C500 0.950 . S
H472 C502 0.950 . S
H473 C503 0.950 . S
C474 H456 0.951 . S
C474 C475 1.366 . S
C474 C476 1.388 . S
C475 C474 1.366 . S
C475 C479 1.385 . S
C476 H457 0.951 . S
C476 C474 1.388 . S
C476 C477 1.366 . S
C477 C476 1.366 . S
C477 C478 1.414 . S
C477 C480 1.499 . S
C478 H458 0.950 . S
C478 C477 1.414 . S
C478 C479 1.374 . S
C479 H459 0.950 . S
C479 C475 1.385 . S
C479 C478 1.374 . S
C480 C477 1.499 . S
C480 C481 1.373 . S
C480 C482 1.389 . S
C481 H460 0.950 . S
C481 C480 1.373 . S
C481 C497 1.377 . S
C482 C480 1.389 . S
C482 C483 1.524 . S
C482 C496 1.377 . S
C483 C482 1.524 . S
C483 C484 1.397 . S
C483 C488 1.363 . S
C484 H461 0.950 . S
C484 C483 1.397 . S
C484 C485 1.334 . S
C485 H462 0.950 . S
C485 C484 1.334 . S
C485 C486 1.287 . S
C486 C485 1.287 . S
C486 C487 1.524 . S
C486 H505 0.913 . S
C487 H463 0.950 . S
C487 C486 1.524 . S
C487 C488 1.415 . S
C488 H464 0.950 . S
C488 C483 1.363 . S
C488 C487 1.415 . S
C489 H465 0.951 . S
C489 C490 1.366 . S
C489 C491 1.388 . S
C490 C489 1.366 . S
C490 C494 1.385 . S
C491 H466 0.951 . S
C491 C489 1.388 . S
C491 C492 1.366 . S
C492 C491 1.366 . S
C492 C493 1.414 . S
C492 C495 1.499 . S
C493 H467 0.950 . S
C493 C492 1.414 . S
C493 C494 1.374 . S
C494 H468 0.950 . S
C494 C490 1.385 . S
C494 C493 1.374 . S
C495 C492 1.499 . S
C495 C496 1.373 . S
C495 C497 1.389 . S
C496 H469 0.950 . S
C496 C482 1.377 . S
C496 C495 1.373 . S
C497 C481 1.377 . S
C497 C495 1.389 . S
C497 C498 1.524 . S
C498 C497 1.524 . S
C498 C499 1.397 . S
C498 C503 1.363 . S
C499 H470 0.950 . S
C499 C498 1.397 . S
C499 C500 1.334 . S
C500 H471 0.950 . S
C500 C499 1.334 . S
C500 C501 1.287 . S
C501 C500 1.287 . S
C501 C502 1.524 . S
C501 H504 0.999 . S
C502 H472 0.950 . S
C502 C501 1.524 . S
C502 C503 1.415 . S
C503 H473 0.950 . S
C503 C498 1.363 . S
C503 C502 1.415 . S
H504 C501 0.999 . S
H505 C486 0.913 . S
H506 C524 0.951 . S
H507 C526 0.951 . S
H508 C528 0.950 . S
H509 C529 0.950 . S
H510 C531 0.950 . S
H511 C534 0.950 . S
H512 C535 0.950 . S
H513 C537 0.950 . S
H514 C538 0.950 . S
H515 C539 0.951 . S
H516 C541 0.951 . S
H517 C543 0.950 . S
H518 C544 0.950 . S
H519 C546 0.950 . S
H520 C549 0.950 . S
H521 C550 0.950 . S
H522 C552 0.950 . S
H523 C553 0.950 . S
C524 H506 0.951 . S
C524 C525 1.366 . S
C524 C526 1.388 . S
C525 C524 1.366 . S
C525 C529 1.385 . S
C526 H507 0.951 . S
C526 C524 1.388 . S
C526 C527 1.366 . S
C527 C526 1.366 . S
C527 C528 1.414 . S
C527 C530 1.499 . S
C528 H508 0.950 . S
C528 C527 1.414 . S
C528 C529 1.374 . S
C529 H509 0.950 . S
C529 C525 1.385 . S
C529 C528 1.374 . S
C530 C527 1.499 . S
C530 C531 1.373 . S
C530 C532 1.389 . S
C531 H510 0.950 . S
C531 C530 1.373 . S
C531 C547 1.377 . S
C532 C530 1.389 . S
C532 C533 1.524 . S
C532 C546 1.377 . S
C533 C532 1.524 . S
C533 C534 1.397 . S
C533 C538 1.363 . S
C534 H511 0.950 . S
C534 C533 1.397 . S
C534 C535 1.334 . S
C535 H512 0.950 . S
C535 C534 1.334 . S
C535 C536 1.287 . S
C536 C535 1.287 . S
C536 C537 1.524 . S
C536 H555 0.913 . S
C537 H513 0.950 . S
C537 C536 1.524 . S
C537 C538 1.415 . S
C538 H514 0.950 . S
C538 C533 1.363 . S
C538 C537 1.415 . S
C539 H515 0.951 . S
C539 C540 1.366 . S
C539 C541 1.388 . S
C540 C539 1.366 . S
C540 C544 1.385 . S
C541 H516 0.951 . S
C541 C539 1.388 . S
C541 C542 1.366 . S
C542 C541 1.366 . S
C542 C543 1.414 . S
C542 C545 1.499 . S
C543 H517 0.950 . S
C543 C542 1.414 . S
C543 C544 1.374 . S
C544 H518 0.950 . S
C544 C540 1.385 . S
C544 C543 1.374 . S
C545 C542 1.499 . S
C545 C546 1.373 . S
C545 C547 1.389 . S
C546 H519 0.950 . S
C546 C532 1.377 . S
C546 C545 1.373 . S
C547 C531 1.377 . S
C547 C545 1.389 . S
C547 C548 1.524 . S
C548 C547 1.524 . S
C548 C549 1.397 . S
C548 C553 1.363 . S
C549 H520 0.950 . S
C549 C548 1.397 . S
C549 C550 1.334 . S
C550 H521 0.950 . S
C550 C549 1.334 . S
C550 C551 1.287 . S
C551 C550 1.287 . S
C551 C552 1.524 . S
C551 H554 0.999 . S
C552 H522 0.950 . S
C552 C551 1.524 . S
C552 C553 1.415 . S
C553 H523 0.950 . S
C553 C548 1.363 . S
C553 C552 1.415 . S
H554 C551 0.999 . S
H555 C536 0.913 . S
H556 C574 0.951 . S
H557 C576 0.951 . S
H558 C578 0.950 . S
H559 C579 0.950 . S
H560 C581 0.950 . S
H561 C584 0.950 . S
H562 C585 0.950 . S
H563 C587 0.950 . S
H564 C588 0.950 . S
H565 C589 0.951 . S
H566 C591 0.951 . S
H567 C593 0.950 . S
H568 C594 0.950 . S
H569 C596 0.950 . S
H570 C599 0.950 . S
H571 C600 0.950 . S
H572 C602 0.950 . S
H573 C603 0.950 . S
C574 H556 0.951 . S
C574 C575 1.366 . S
C574 C576 1.388 . S
C575 C574 1.366 . S
C575 C579 1.385 . S
C576 H557 0.951 . S
C576 C574 1.388 . S
C576 C577 1.366 . S
C577 C576 1.366 . S
C577 C578 1.414 . S
C577 C580 1.499 . S
C578 H558 0.950 . S
C578 C577 1.414 . S
C578 C579 1.374 . S
C579 H559 0.950 . S
C579 C575 1.385 . S
C579 C578 1.374 . S
C580 C577 1.499 . S
C580 C581 1.373 . S
C580 C582 1.389 . S
C581 H560 0.950 . S
C581 C580 1.373 . S
C581 C597 1.377 . S
C582 C580 1.389 . S
C582 C583 1.524 . S
C582 C596 1.377 . S
C583 C582 1.524 . S
C583 C584 1.397 . S
C583 C588 1.363 . S
C584 H561 0.950 . S
C584 C583 1.397 . S
C584 C585 1.334 . S
C585 H562 0.950 . S
C585 C584 1.334 . S
C585 C586 1.287 . S
C586 C585 1.287 . S
C586 C587 1.524 . S
C586 H605 0.913 . S
C587 H563 0.950 . S
C587 C586 1.524 . S
C587 C588 1.415 . S
C588 H564 0.950 . S
C588 C583 1.363 . S
C588 C587 1.415 . S
C589 H565 0.951 . S
C589 C590 1.366 . S
C589 C591 1.388 . S
C590 C589 1.366 . S
C590 C594 1.385 . S
C591 H566 0.951 . S
C591 C589 1.388 . S
C591 C592 1.366 . S
C592 C591 1.366 . S
C592 C593 1.414 . S
C592 C595 1.499 . S
C593 H567 0.950 . S
C593 C592 1.414 . S
C593 C594 1.374 . S
C594 H568 0.950 . S
C594 C590 1.385 . S
C594 C593 1.374 . S
C595 C592 1.499 . S
C595 C596 1.373 . S
C595 C597 1.389 . S
C596 H569 0.950 . S
C596 C582 1.377 . S
C596 C595 1.373 . S
C597 C581 1.377 . S
C597 C595 1.389 . S
C597 C598 1.524 . S
C598 C597 1.524 . S
C598 C599 1.397 . S
C598 C603 1.363 . S
C599 H570 0.950 . S
C599 C598 1.397 . S
C599 C600 1.334 . S
C600 H571 0.950 . S
C600 C599 1.334 . S
C600 C601 1.287 . S
C601 C600 1.287 . S
C601 C602 1.524 . S
C601 H604 0.999 . S
C602 H572 0.950 . S
C602 C601 1.524 . S
C602 C603 1.415 . S
C603 H573 0.950 . S
C603 C598 1.363 . S
C603 C602 1.415 . S
H604 C601 0.999 . S
H605 C586 0.913 . S
H606 C624 0.951 . S
H607 C626 0.951 . S
H608 C628 0.950 . S
H609 C629 0.950 . S
H610 C631 0.950 . S
H611 C634 0.950 . S
H612 C635 0.950 . S
H613 C637 0.950 . S
H614 C638 0.950 . S
H615 C639 0.951 . S
H616 C641 0.951 . S
H617 C643 0.950 . S
H618 C644 0.950 . S
H619 C646 0.950 . S
H620 C649 0.950 . S
H621 C650 0.950 . S
H622 C652 0.950 . S
H623 C653 0.950 . S
C624 H606 0.951 . S
C624 C625 1.366 . S
C624 C626 1.388 . S
C625 C624 1.366 . S
C625 C629 1.385 . S
C626 H607 0.951 . S
C626 C624 1.388 . S
C626 C627 1.366 . S
C627 C626 1.366 . S
C627 C628 1.414 . S
C627 C630 1.499 . S
C628 H608 0.950 . S
C628 C627 1.414 . S
C628 C629 1.374 . S
C629 H609 0.950 . S
C629 C625 1.385 . S
C629 C628 1.374 . S
C630 C627 1.499 . S
C630 C631 1.373 . S
C630 C632 1.389 . S
C631 H610 0.950 . S
C631 C630 1.373 . S
C631 C647 1.377 . S
C632 C630 1.389 . S
C632 C633 1.524 . S
C632 C646 1.377 . S
C633 C632 1.524 . S
C633 C634 1.397 . S
C633 C638 1.363 . S
C634 H611 0.950 . S
C634 C633 1.397 . S
C634 C635 1.334 . S
C635 H612 0.950 . S
C635 C634 1.334 . S
C635 C636 1.287 . S
C636 C635 1.287 . S
C636 C637 1.524 . S
C636 H655 0.913 . S
C637 H613 0.950 . S
C637 C636 1.524 . S
C637 C638 1.415 . S
C638 H614 0.950 . S
C638 C633 1.363 . S
C638 C637 1.415 . S
C639 H615 0.951 . S
C639 C640 1.366 . S
C639 C641 1.388 . S
C640 C639 1.366 . S
C640 C644 1.385 . S
C641 H616 0.951 . S
C641 C639 1.388 . S
C641 C642 1.366 . S
C642 C641 1.366 . S
C642 C643 1.414 . S
C642 C645 1.499 . S
C643 H617 0.950 . S
C643 C642 1.414 . S
C643 C644 1.374 . S
C644 H618 0.950 . S
C644 C640 1.385 . S
C644 C643 1.374 . S
C645 C642 1.499 . S
C645 C646 1.373 . S
C645 C647 1.389 . S
C646 H619 0.950 . S
C646 C632 1.377 . S
C646 C645 1.373 . S
C647 C631 1.377 . S
C647 C645 1.389 . S
C647 C648 1.524 . S
C648 C647 1.524 . S
C648 C649 1.397 . S
C648 C653 1.363 . S
C649 H620 0.950 . S
C649 C648 1.397 . S
C649 C650 1.334 . S
C650 H621 0.950 . S
C650 C649 1.334 . S
C650 C651 1.287 . S
C651 C650 1.287 . S
C651 C652 1.524 . S
C651 H654 0.999 . S
C652 H622 0.950 . S
C652 C651 1.524 . S
C652 C653 1.415 . S
C653 H623 0.950 . S
C653 C648 1.363 . S
C653 C652 1.415 . S
H654 C651 0.999 . S
H655 C636 0.913 . S
H656 C674 0.939 1_655 S
H657 C676 0.951 . S
H658 C678 0.950 . S
H659 C679 0.950 . S
H660 C681 0.950 . S
H661 C684 0.950 . S
H662 C685 0.950 . S
H663 C687 0.950 . S
H664 C688 0.950 . S
H665 C689 0.951 . S
H666 C691 0.951 . S
H667 C693 0.950 . S
H668 C694 0.950 . S
H669 C696 0.950 . S
H670 C699 0.950 . S
H671 C700 0.950 . S
H672 C702 0.950 . S
H673 C703 0.950 . S
C674 H656 0.939 1_455 S
C674 C675 1.366 . S
C674 C676 1.388 . S
C675 C674 1.366 . S
C675 C679 1.385 . S
C676 H657 0.951 . S
C676 C674 1.388 . S
C676 C677 1.366 . S
C677 C676 1.366 . S
C677 C678 1.414 . S
C677 C680 1.499 . S
C678 H658 0.950 . S
C678 C677 1.414 . S
C678 C679 1.374 . S
C679 H659 0.950 . S
C679 C675 1.385 . S
C679 C678 1.374 . S
C680 C677 1.499 . S
C680 C681 1.373 . S
C680 C682 1.389 . S
C681 H660 0.950 . S
C681 C680 1.373 . S
C681 C697 1.377 . S
C682 C680 1.389 . S
C682 C683 1.524 . S
C682 C696 1.377 . S
C683 C682 1.524 . S
C683 C684 1.397 . S
C683 C688 1.363 1_455 S
C684 H661 0.950 . S
C684 C683 1.397 . S
C684 C685 1.334 1_455 S
C685 H662 0.950 . S
C685 C684 1.334 1_655 S
C685 C686 1.287 . S
C686 C685 1.287 . S
C686 C687 1.524 . S
C686 H705 0.913 . S
C687 H663 0.950 . S
C687 C686 1.524 . S
C687 C688 1.415 . S
C688 H664 0.950 . S
C688 C683 1.363 1_655 S
C688 C687 1.415 . S
C689 H665 0.951 . S
C689 C690 1.366 . S
C689 C691 1.388 . S
C690 C689 1.366 . S
C690 C694 1.385 . S
C691 H666 0.951 . S
C691 C689 1.388 . S
C691 C692 1.366 . S
C692 C691 1.366 . S
C692 C693 1.414 . S
C692 C695 1.499 . S
C693 H667 0.950 . S
C693 C692 1.414 . S
C693 C694 1.374 . S
C694 H668 0.950 . S
C694 C690 1.385 . S
C694 C693 1.374 . S
C695 C692 1.499 . S
C695 C696 1.373 . S
C695 C697 1.389 . S
C696 H669 0.950 . S
C696 C682 1.377 . S
C696 C695 1.373 . S
C697 C681 1.377 . S
C697 C695 1.389 . S
C697 C698 1.524 . S
C698 C697 1.524 . S
C698 C699 1.397 . S
C698 C703 1.363 . S
C699 H670 0.950 . S
C699 C698 1.397 . S
C699 C700 1.334 . S
C700 H671 0.950 . S
C700 C699 1.334 . S
C700 C701 1.287 . S
C701 C700 1.287 . S
C701 C702 1.524 . S
C701 H704 0.999 . S
C702 H672 0.950 . S
C702 C701 1.524 . S
C702 C703 1.415 . S
C703 H673 0.950 . S
C703 C698 1.363 . S
C703 C702 1.415 . S
H704 C701 0.999 . S
H705 C686 0.913 . S
H706 C724 0.951 . S
H707 C726 0.951 . S
H708 C728 0.950 . S
H709 C729 0.950 . S
H710 C731 0.950 . S
H711 C734 0.950 . S
H712 C735 0.950 . S
H713 C737 0.950 . S
H714 C738 0.950 . S
H715 C739 0.951 . S
H716 C741 0.951 . S
H717 C743 0.950 . S
H718 C744 0.950 . S
H719 C746 0.950 . S
H720 C749 0.950 . S
H721 C750 0.950 . S
H722 C752 0.950 . S
H723 C753 0.950 . S
C724 H706 0.951 . S
C724 C725 1.366 . S
C724 C726 1.388 . S
C725 C724 1.366 . S
C725 C729 1.385 . S
C726 H707 0.951 . S
C726 C724 1.388 . S
C726 C727 1.366 . S
C727 C726 1.366 . S
C727 C728 1.414 . S
C727 C730 1.499 . S
C728 H708 0.950 . S
C728 C727 1.414 . S
C728 C729 1.374 . S
C729 H709 0.950 . S
C729 C725 1.385 . S
C729 C728 1.374 . S
C730 C727 1.499 . S
C730 C731 1.373 . S
C730 C732 1.389 . S
C731 H710 0.950 . S
C731 C730 1.373 . S
C731 C747 1.377 . S
C732 C730 1.389 . S
C732 C733 1.524 . S
C732 C746 1.377 . S
C733 C732 1.524 . S
C733 C734 1.397 . S
C733 C738 1.363 . S
C734 H711 0.950 . S
C734 C733 1.397 . S
C734 C735 1.334 . S
C735 H712 0.950 . S
C735 C734 1.334 . S
C735 C736 1.287 . S
C736 C735 1.287 . S
C736 C737 1.524 . S
C736 H755 0.913 . S
C737 H713 0.950 . S
C737 C736 1.524 . S
C737 C738 1.415 . S
C738 H714 0.950 . S
C738 C733 1.363 . S
C738 C737 1.415 . S
C739 H715 0.951 . S
C739 C740 1.366 . S
C739 C741 1.388 . S
C740 C739 1.366 . S
C740 C744 1.385 . S
C741 H716 0.951 . S
C741 C739 1.388 . S
C741 C742 1.366 . S
C742 C741 1.366 . S
C742 C743 1.414 . S
C742 C745 1.499 . S
C743 H717 0.950 . S
C743 C742 1.414 . S
C743 C744 1.374 . S
C744 H718 0.950 . S
C744 C740 1.385 . S
C744 C743 1.374 . S
C745 C742 1.499 . S
C745 C746 1.373 . S
C745 C747 1.389 . S
C746 H719 0.950 . S
C746 C732 1.377 . S
C746 C745 1.373 . S
C747 C731 1.377 . S
C747 C745 1.389 . S
C747 C748 1.524 . S
C748 C747 1.524 . S
C748 C749 1.397 . S
C748 C753 1.363 . S
C749 H720 0.950 . S
C749 C748 1.397 . S
C749 C750 1.334 . S
C750 H721 0.950 . S
C750 C749 1.334 . S
C750 C751 1.287 . S
C751 C750 1.287 . S
C751 C752 1.524 . S
C751 H754 0.999 . S
C752 H722 0.950 . S
C752 C751 1.524 . S
C752 C753 1.415 . S
C753 H723 0.950 . S
C753 C748 1.363 . S
C753 C752 1.415 . S
H754 C751 0.999 . S
H755 C736 0.913 . S
H756 C774 0.951 . S
H757 C776 0.951 . S
H758 C778 0.950 . S
H759 C779 0.950 . S
H760 C781 0.950 . S
H761 C784 0.950 . S
H762 C785 0.950 . S
H763 C787 0.950 . S
H764 C788 0.950 . S
H765 C789 0.951 . S
H766 C791 0.951 . S
H767 C793 0.950 . S
H768 C794 0.950 . S
H769 C796 0.950 . S
H770 C799 0.950 . S
H771 C800 0.950 . S
H772 C802 0.950 . S
H773 C803 0.950 . S
C774 H756 0.951 . S
C774 C775 1.366 . S
C774 C776 1.388 . S
C775 C774 1.366 . S
C775 C779 1.385 . S
C776 H757 0.951 . S
C776 C774 1.388 . S
C776 C777 1.366 . S
C777 C776 1.366 . S
C777 C778 1.414 . S
C777 C780 1.499 . S
C778 H758 0.950 . S
C778 C777 1.414 . S
C778 C779 1.374 . S
C779 H759 0.950 . S
C779 C775 1.385 . S
C779 C778 1.374 . S
C780 C777 1.499 . S
C780 C781 1.373 . S
C780 C782 1.389 . S
C781 H760 0.950 . S
C781 C780 1.373 . S
C781 C797 1.377 . S
C782 C780 1.389 . S
C782 C783 1.524 . S
C782 C796 1.377 . S
C783 C782 1.524 . S
C783 C784 1.397 . S
C783 C788 1.363 . S
C784 H761 0.950 . S
C784 C783 1.397 . S
C784 C785 1.334 . S
C785 H762 0.950 . S
C785 C784 1.334 . S
C785 C786 1.287 . S
C786 C785 1.287 . S
C786 C787 1.524 . S
C786 H805 0.913 . S
C787 H763 0.950 . S
C787 C786 1.524 . S
C787 C788 1.415 . S
C788 H764 0.950 . S
C788 C783 1.363 . S
C788 C787 1.415 . S
C789 H765 0.951 . S
C789 C790 1.366 . S
C789 C791 1.388 . S
C790 C789 1.366 . S
C790 C794 1.385 . S
C791 H766 0.951 . S
C791 C789 1.388 . S
C791 C792 1.366 . S
C792 C791 1.366 . S
C792 C793 1.414 . S
C792 C795 1.499 . S
C793 H767 0.950 . S
C793 C792 1.414 . S
C793 C794 1.374 . S
C794 H768 0.950 . S
C794 C790 1.385 . S
C794 C793 1.374 . S
C795 C792 1.499 . S
C795 C796 1.373 . S
C795 C797 1.389 . S
C796 H769 0.950 . S
C796 C782 1.377 . S
C796 C795 1.373 . S
C797 C781 1.377 . S
C797 C795 1.389 . S
C797 C798 1.524 . S
C798 C797 1.524 . S
C798 C799 1.397 . S
C798 C803 1.363 . S
C799 H770 0.950 . S
C799 C798 1.397 . S
C799 C800 1.334 . S
C800 H771 0.950 . S
C800 C799 1.334 . S
C800 C801 1.287 . S
C801 C800 1.287 . S
C801 C802 1.524 . S
C801 H804 0.999 . S
C802 H772 0.950 . S
C802 C801 1.524 . S
C802 C803 1.415 . S
C803 H773 0.950 . S
C803 C798 1.363 . S
C803 C802 1.415 . S
H804 C801 0.999 . S
H805 C786 0.913 . S
H806 C824 0.951 1_545 S
H807 C826 0.951 . S
H808 C828 0.950 . S
H809 C829 0.950 . S
H810 C831 0.950 . S
H811 C834 0.950 . S
H812 C835 0.950 . S
H813 C837 0.950 . S
H814 C838 0.950 1_545 S
H815 C839 0.951 . S
H816 C841 0.951 . S
H817 C843 0.950 . S
H818 C844 0.950 . S
H819 C846 0.950 . S
H820 C849 0.950 . S
H821 C850 0.950 . S
H822 C852 0.950 . S
H823 C853 0.950 . S
C824 H806 0.951 1_565 S
C824 C825 1.366 . S
C824 C826 1.388 . S
C825 C824 1.366 . S
C825 C829 1.385 . S
C826 H807 0.951 . S
C826 C824 1.388 . S
C826 C827 1.366 . S
C827 C826 1.366 . S
C827 C828 1.414 . S
C827 C830 1.499 . S
C828 H808 0.950 . S
C828 C827 1.414 . S
C828 C829 1.374 . S
C829 H809 0.950 . S
C829 C825 1.385 . S
C829 C828 1.374 . S
C830 C827 1.499 . S
C830 C831 1.373 . S
C830 C832 1.389 . S
C831 H810 0.950 . S
C831 C830 1.373 . S
C831 C847 1.377 . S
C832 C830 1.389 . S
C832 C833 1.524 . S
C832 C846 1.377 . S
C833 C832 1.524 . S
C833 C834 1.397 . S
C833 C838 1.363 . S
C834 H811 0.950 . S
C834 C833 1.397 . S
C834 C835 1.334 . S
C835 H812 0.950 . S
C835 C834 1.334 . S
C835 C836 1.287 . S
C836 C835 1.287 . S
C836 C837 1.524 1_565 S
C836 H855 0.903 1_565 S
C837 H813 0.950 . S
C837 C836 1.524 1_545 S
C837 C838 1.415 1_545 S
C838 H814 0.950 1_565 S
C838 C833 1.363 . S
C838 C837 1.415 1_565 S
C839 H815 0.951 . S
C839 C840 1.366 . S
C839 C841 1.388 . S
C840 C839 1.366 . S
C840 C844 1.385 . S
C841 H816 0.951 . S
C841 C839 1.388 . S
C841 C842 1.366 . S
C842 C841 1.366 . S
C842 C843 1.414 . S
C842 C845 1.499 . S
C843 H817 0.950 . S
C843 C842 1.414 . S
C843 C844 1.374 . S
C844 H818 0.950 . S
C844 C840 1.385 . S
C844 C843 1.374 . S
C845 C842 1.499 . S
C845 C846 1.373 . S
C845 C847 1.389 . S
C846 H819 0.950 . S
C846 C832 1.377 . S
C846 C845 1.373 . S
C847 C831 1.377 . S
C847 C845 1.389 . S
C847 C848 1.524 . S
C848 C847 1.524 . S
C848 C849 1.397 . S
C848 C853 1.363 . S
C849 H820 0.950 . S
C849 C848 1.397 . S
C849 C850 1.334 . S
C850 H821 0.950 . S
C850 C849 1.334 . S
C850 C851 1.287 . S
C851 C850 1.287 . S
C851 C852 1.524 . S
C851 H854 0.999 . S
C852 H822 0.950 . S
C852 C851 1.524 . S
C852 C853 1.415 . S
C853 H823 0.950 . S
C853 C848 1.363 . S
C853 C852 1.415 . S
H854 C851 0.999 . S
H855 C836 0.903 1_545 S
H856 C874 0.951 . S
H857 C876 0.951 . S
H858 C878 0.950 . S
H859 C879 0.950 . S
H860 C881 0.950 . S
H861 C884 0.950 . S
H862 C885 0.950 . S
H863 C887 0.950 . S
H864 C888 0.950 . S
H865 C889 0.951 . S
H866 C891 0.951 . S
H867 C893 0.950 . S
H868 C894 0.950 . S
H869 C896 0.950 . S
H870 C899 0.950 . S
H871 C900 0.950 . S
H872 C902 0.950 . S
H873 C903 0.950 . S
C874 H856 0.951 . S
C874 C875 1.366 . S
C874 C876 1.388 . S
C875 C874 1.366 . S
C875 C879 1.385 . S
C876 H857 0.951 . S
C876 C874 1.388 . S
C876 C877 1.366 . S
C877 C876 1.366 . S
C877 C878 1.414 . S
C877 C880 1.499 . S
C878 H858 0.950 . S
C878 C877 1.414 . S
C878 C879 1.374 . S
C879 H859 0.950 . S
C879 C875 1.385 . S
C879 C878 1.374 . S
C880 C877 1.499 . S
C880 C881 1.373 . S
C880 C882 1.389 . S
C881 H860 0.950 . S
C881 C880 1.373 . S
C881 C897 1.377 . S
C882 C880 1.389 . S
C882 C883 1.524 . S
C882 C896 1.377 . S
C883 C882 1.524 . S
C883 C884 1.397 . S
C883 C888 1.363 . S
C884 H861 0.950 . S
C884 C883 1.397 . S
C884 C885 1.334 . S
C885 H862 0.950 . S
C885 C884 1.334 . S
C885 C886 1.287 . S
C886 C885 1.287 . S
C886 C887 1.524 . S
C886 H905 0.913 . S
C887 H863 0.950 . S
C887 C886 1.524 . S
C887 C888 1.415 . S
C888 H864 0.950 . S
C888 C883 1.363 . S
C888 C887 1.415 . S
C889 H865 0.951 . S
C889 C890 1.366 . S
C889 C891 1.388 . S
C890 C889 1.366 . S
C890 C894 1.385 . S
C891 H866 0.951 . S
C891 C889 1.388 . S
C891 C892 1.366 . S
C892 C891 1.366 . S
C892 C893 1.414 . S
C892 C895 1.499 . S
C893 H867 0.950 . S
C893 C892 1.414 . S
C893 C894 1.374 . S
C894 H868 0.950 . S
C894 C890 1.385 . S
C894 C893 1.374 . S
C895 C892 1.499 . S
C895 C896 1.373 . S
C895 C897 1.389 . S
C896 H869 0.950 . S
C896 C882 1.377 . S
C896 C895 1.373 . S
C897 C881 1.377 . S
C897 C895 1.389 . S
C897 C898 1.524 . S
C898 C897 1.524 . S
C898 C899 1.397 . S
C898 C903 1.363 . S
C899 H870 0.950 . S
C899 C898 1.397 . S
C899 C900 1.338 1_565 S
C900 H871 0.950 . S
C900 C899 1.338 1_545 S
C900 C901 1.283 . S
C901 C900 1.283 . S
C901 C902 1.524 . S
C901 H904 0.999 . S
C902 H872 0.950 . S
C902 C901 1.524 . S
C902 C903 1.415 1_545 S
C903 H873 0.950 . S
C903 C898 1.363 . S
C903 C902 1.415 1_565 S
H904 C901 0.999 . S
H905 C886 0.913 . S
H906 C924 0.951 . S
H907 C926 0.951 . S
H908 C928 0.950 . S
H909 C929 0.950 . S
H910 C931 0.950 . S
H911 C934 0.950 . S
H912 C935 0.950 . S
H913 C937 0.950 . S
H914 C938 0.950 . S
H915 C939 0.951 . S
H916 C941 0.951 . S
H917 C943 0.950 . S
H918 C944 0.950 . S
H919 C946 0.950 . S
H920 C949 0.950 . S
H921 C950 0.950 . S
H922 C952 0.950 . S
H923 C953 0.950 . S
C924 H906 0.951 . S
C924 C925 1.366 . S
C924 C926 1.388 . S
C925 C924 1.366 . S
C925 C929 1.385 . S
C926 H907 0.951 . S
C926 C924 1.388 . S
C926 C927 1.366 . S
C927 C926 1.366 . S
C927 C928 1.414 . S
C927 C930 1.499 . S
C928 H908 0.950 . S
C928 C927 1.414 . S
C928 C929 1.374 . S
C929 H909 0.950 . S
C929 C925 1.385 . S
C929 C928 1.374 . S
C930 C927 1.499 . S
C930 C931 1.373 . S
C930 C932 1.389 . S
C931 H910 0.950 . S
C931 C930 1.373 . S
C931 C947 1.377 . S
C932 C930 1.389 . S
C932 C933 1.524 . S
C932 C946 1.377 . S
C933 C932 1.524 . S
C933 C934 1.397 . S
C933 C938 1.363 . S
C934 H911 0.950 . S
C934 C933 1.397 . S
C934 C935 1.334 . S
C935 H912 0.950 . S
C935 C934 1.334 . S
C935 C936 1.287 . S
C936 C935 1.287 . S
C936 C937 1.524 . S
C936 H955 0.913 . S
C937 H913 0.950 . S
C937 C936 1.524 . S
C937 C938 1.415 . S
C938 H914 0.950 . S
C938 C933 1.363 . S
C938 C937 1.415 . S
C939 H915 0.951 . S
C939 C940 1.366 . S
C939 C941 1.388 . S
C940 C939 1.366 . S
C940 C944 1.385 . S
C941 H916 0.951 . S
C941 C939 1.388 . S
C941 C942 1.366 . S
C942 C941 1.366 . S
C942 C943 1.414 . S
C942 C945 1.499 . S
C943 H917 0.950 . S
C943 C942 1.414 . S
C943 C944 1.374 . S
C944 H918 0.950 . S
C944 C940 1.385 . S
C944 C943 1.374 . S
C945 C942 1.499 . S
C945 C946 1.373 . S
C945 C947 1.389 . S
C946 H919 0.950 . S
C946 C932 1.377 . S
C946 C945 1.373 . S
C947 C931 1.377 . S
C947 C945 1.389 . S
C947 C948 1.524 . S
C948 C947 1.524 . S
C948 C949 1.397 . S
C948 C953 1.363 . S
C949 H920 0.950 . S
C949 C948 1.397 . S
C949 C950 1.334 . S
C950 H921 0.950 . S
C950 C949 1.334 . S
C950 C951 1.287 . S
C951 C950 1.287 . S
C951 C952 1.524 . S
C951 H954 0.999 . S
C952 H922 0.950 . S
C952 C951 1.524 . S
C952 C953 1.415 . S
C953 H923 0.950 . S
C953 C948 1.363 . S
C953 C952 1.415 . S
H954 C951 0.999 . S
H955 C936 0.913 . S
H956 C974 0.951 . S
H957 C976 0.951 . S
H958 C978 0.950 . S
H959 C979 0.950 . S
H960 C981 0.950 . S
H961 C984 0.950 . S
H962 C985 0.950 . S
H963 C987 0.950 . S
H964 C988 0.950 . S
H965 C989 0.951 . S
H966 C991 0.951 . S
H967 C993 0.950 . S
H968 C994 0.950 . S
H969 C996 0.950 . S
H970 C999 0.950 . S
H971 C1000 0.950 1_565 S
H972 C1002 0.950 1_565 S
H973 C1003 0.950 . S
C974 H956 0.951 . S
C974 C975 1.366 . S
C974 C976 1.388 . S
C975 C974 1.366 . S
C975 C979 1.385 . S
C976 H957 0.951 . S
C976 C974 1.388 . S
C976 C977 1.366 . S
C977 C976 1.366 . S
C977 C978 1.414 . S
C977 C980 1.499 . S
C978 H958 0.950 . S
C978 C977 1.414 . S
C978 C979 1.374 . S
C979 H959 0.950 . S
C979 C975 1.385 . S
C979 C978 1.374 . S
C980 C977 1.499 . S
C980 C981 1.373 . S
C980 C982 1.389 . S
C981 H960 0.950 . S
C981 C980 1.373 . S
C981 C997 1.377 . S
C982 C980 1.389 . S
C982 C983 1.524 . S
C982 C996 1.377 . S
C983 C982 1.524 . S
C983 C984 1.397 . S
C983 C988 1.363 . S
C984 H961 0.950 . S
C984 C983 1.397 . S
C984 C985 1.334 . S
C985 H962 0.950 . S
C985 C984 1.334 . S
C985 C986 1.287 . S
C986 C985 1.287 . S
C986 C987 1.524 . S
C986 H1005 0.913 . S
C987 H963 0.950 . S
C987 C986 1.524 . S
C987 C988 1.415 . S
C988 H964 0.950 . S
C988 C983 1.363 . S
C988 C987 1.415 . S
C989 H965 0.951 . S
C989 C990 1.366 . S
C989 C991 1.388 . S
C990 C989 1.366 . S
C990 C994 1.385 . S
C991 H966 0.951 . S
C991 C989 1.388 . S
C991 C992 1.366 . S
C992 C991 1.366 . S
C992 C993 1.414 . S
C992 C995 1.499 . S
C993 H967 0.950 . S
C993 C992 1.414 . S
C993 C994 1.374 . S
C994 H968 0.950 . S
C994 C990 1.385 . S
C994 C993 1.374 . S
C995 C992 1.499 . S
C995 C996 1.373 . S
C995 C997 1.389 . S
C996 H969 0.950 . S
C996 C982 1.377 . S
C996 C995 1.373 . S
C997 C981 1.377 . S
C997 C995 1.389 . S
C997 C998 1.524 . S
C998 C997 1.524 . S
C998 C999 1.397 . S
C998 C1003 1.363 . S
C999 H970 0.950 . S
C999 C998 1.397 . S
C999 C1000 1.334 . S
C1000 H971 0.950 1_545 S
C1000 C999 1.334 . S
C1000 C1001 1.287 1_545 S
C1001 C1000 1.287 1_565 S
C1001 C1002 1.524 1_565 S
C1001 H1004 0.999 . S
C1002 H972 0.950 1_545 S
C1002 C1001 1.524 1_545 S
C1002 C1003 1.415 . S
C1003 H973 0.950 . S
C1003 C998 1.363 . S
C1003 C1002 1.415 . S
H1004 C1001 0.999 . S
H1005 C986 0.913 . S
H1006 C1024 0.951 1_455 S
H1007 C1026 0.951 . S
H1008 C1028 0.950 . S
H1009 C1029 0.950 . S
H1010 C1031 0.950 . S
H1011 C1034 0.950 . S
H1012 C1035 0.950 . S
H1013 C1037 0.950 1_455 S
H1014 C1038 0.950 . S
H1015 C1039 0.951 . S
H1016 C1041 0.951 . S
H1017 C1043 0.950 . S
H1018 C1044 0.950 . S
H1019 C1046 0.950 . S
H1020 C1049 0.950 . S
H1021 C1050 0.950 . S
H1022 C1052 0.950 . S
H1023 C1053 0.950 . S
C1024 H1006 0.951 1_655 S
C1024 C1025 1.366 . S
C1024 C1026 1.388 . S
C1025 C1024 1.366 . S
C1025 C1029 1.385 . S
C1026 H1007 0.951 . S
C1026 C1024 1.388 . S
C1026 C1027 1.366 . S
C1027 C1026 1.366 . S
C1027 C1028 1.414 . S
C1027 C1030 1.499 . S
C1028 H1008 0.950 . S
C1028 C1027 1.414 . S
C1028 C1029 1.374 . S
C1029 H1009 0.950 . S
C1029 C1025 1.385 . S
C1029 C1028 1.374 . S
C1030 C1027 1.499 . S
C1030 C1031 1.373 . S
C1030 C1032 1.389 . S
C1031 H1010 0.950 . S
C1031 C1030 1.373 . S
C1031 C1047 1.377 . S
C1032 C1030 1.389 . S
C1032 C1033 1.524 . S
C1032 C1046 1.377 . S
C1033 C1032 1.524 . S
C1033 C1034 1.397 . S
C1033 C1038 1.363 . S
C1034 H1011 0.950 . S
C1034 C1033 1.397 . S
C1034 C1035 1.334 . S
C1035 H1012 0.950 . S
C1035 C1034 1.334 . S
C1035 C1036 1.287 . S
C1036 C1035 1.287 . S
C1036 C1037 1.524 . S
C1036 H1055 0.913 . S
C1037 H1013 0.950 1_655 S
C1037 C1036 1.524 . S
C1037 C1038 1.415 . S
C1038 H1014 0.950 . S
C1038 C1033 1.363 . S
C1038 C1037 1.415 . S
C1039 H1015 0.951 . S
C1039 C1040 1.366 . S
C1039 C1041 1.388 . S
C1040 C1039 1.366 . S
C1040 C1044 1.385 . S
C1041 H1016 0.951 . S
C1041 C1039 1.388 . S
C1041 C1042 1.366 . S
C1042 C1041 1.366 . S
C1042 C1043 1.414 . S
C1042 C1045 1.499 . S
C1043 H1017 0.950 . S
C1043 C1042 1.414 . S
C1043 C1044 1.374 . S
C1044 H1018 0.950 . S
C1044 C1040 1.385 . S
C1044 C1043 1.374 . S
C1045 C1042 1.499 . S
C1045 C1046 1.373 . S
C1045 C1047 1.389 . S
C1046 H1019 0.950 . S
C1046 C1032 1.377 . S
C1046 C1045 1.373 . S
C1047 C1031 1.377 . S
C1047 C1045 1.389 . S
C1047 C1048 1.524 . S
C1048 C1047 1.524 . S
C1048 C1049 1.397 . S
C1048 C1053 1.363 . S
C1049 H1020 0.950 . S
C1049 C1048 1.397 . S
C1049 C1050 1.334 . S
C1050 H1021 0.950 . S
C1050 C1049 1.334 . S
C1050 C1051 1.287 . S
C1051 C1050 1.287 . S
C1051 C1052 1.524 . S
C1051 H1054 0.999 . S
C1052 H1022 0.950 . S
C1052 C1051 1.524 . S
C1052 C1053 1.415 . S
C1053 H1023 0.950 . S
C1053 C1048 1.363 . S
C1053 C1052 1.415 . S
H1054 C1051 0.999 . S
H1055 C1036 0.913 . S
H1056 C1074 0.951 . S
H1057 C1076 0.951 . S
H1058 C1078 0.950 . S
H1059 C1079 0.950 . S
H1060 C1081 0.950 . S
H1061 C1084 0.950 . S
H1062 C1085 0.950 . S
H1063 C1087 0.950 . S
H1064 C1088 0.950 . S
H1065 C1089 0.951 . S
H1066 C1091 0.951 . S
H1067 C1093 0.950 . S
H1068 C1094 0.950 . S
H1069 C1096 0.950 . S
H1070 C1099 0.950 . S
H1071 C1100 0.950 . S
H1072 C1102 0.950 . S
H1073 C1103 0.950 . S
C1074 H1056 0.951 . S
C1074 C1075 1.366 . S
C1074 C1076 1.388 . S
C1075 C1074 1.366 . S
C1075 C1079 1.385 . S
C1076 H1057 0.951 . S
C1076 C1074 1.388 . S
C1076 C1077 1.366 . S
C1077 C1076 1.366 . S
C1077 C1078 1.414 . S
C1077 C1080 1.499 . S
C1078 H1058 0.950 . S
C1078 C1077 1.414 . S
C1078 C1079 1.374 . S
C1079 H1059 0.950 . S
C1079 C1075 1.385 . S
C1079 C1078 1.374 . S
C1080 C1077 1.499 . S
C1080 C1081 1.373 . S
C1080 C1082 1.389 . S
C1081 H1060 0.950 . S
C1081 C1080 1.373 . S
C1081 C1097 1.377 . S
C1082 C1080 1.389 . S
C1082 C1083 1.524 . S
C1082 C1096 1.377 . S
C1083 C1082 1.524 . S
C1083 C1084 1.397 . S
C1083 C1088 1.363 . S
C1084 H1061 0.950 . S
C1084 C1083 1.397 . S
C1084 C1085 1.334 . S
C1085 H1062 0.950 . S
C1085 C1084 1.334 . S
C1085 C1086 1.287 . S
C1086 C1085 1.287 . S
C1086 C1087 1.524 . S
C1086 H1105 0.913 . S
C1087 H1063 0.950 . S
C1087 C1086 1.524 . S
C1087 C1088 1.415 . S
C1088 H1064 0.950 . S
C1088 C1083 1.363 . S
C1088 C1087 1.415 . S
C1089 H1065 0.951 . S
C1089 C1090 1.366 . S
C1089 C1091 1.388 . S
C1090 C1089 1.366 . S
C1090 C1094 1.385 . S
C1091 H1066 0.951 . S
C1091 C1089 1.388 . S
C1091 C1092 1.366 . S
C1092 C1091 1.366 . S
C1092 C1093 1.414 . S
C1092 C1095 1.499 . S
C1093 H1067 0.950 . S
C1093 C1092 1.414 . S
C1093 C1094 1.374 . S
C1094 H1068 0.950 . S
C1094 C1090 1.385 . S
C1094 C1093 1.374 . S
C1095 C1092 1.499 . S
C1095 C1096 1.373 . S
C1095 C1097 1.389 . S
C1096 H1069 0.950 . S
C1096 C1082 1.377 . S
C1096 C1095 1.373 . S
C1097 C1081 1.377 . S
C1097 C1095 1.389 . S
C1097 C1098 1.524 . S
C1098 C1097 1.524 . S
C1098 C1099 1.397 . S
C1098 C1103 1.363 . S
C1099 H1070 0.950 . S
C1099 C1098 1.397 . S
C1099 C1100 1.334 . S
C1100 H1071 0.950 . S
C1100 C1099 1.334 . S
C1100 C1101 1.287 . S
C1101 C1100 1.287 . S
C1101 C1102 1.524 . S
C1101 H1104 0.999 . S
C1102 H1072 0.950 . S
C1102 C1101 1.524 . S
C1102 C1103 1.415 . S
C1103 H1073 0.950 . S
C1103 C1098 1.363 . S
C1103 C1102 1.415 . S
H1104 C1101 0.999 . S
H1105 C1086 0.913 . S
H1106 C1124 0.951 . S
H1107 C1126 0.951 . S
H1108 C1128 0.950 . S
H1109 C1129 0.950 . S
H1110 C1131 0.950 . S
H1111 C1134 0.950 . S
H1112 C1135 0.950 . S
H1113 C1137 0.950 . S
H1114 C1138 0.950 . S
H1115 C1139 0.951 . S
H1116 C1141 0.951 . S
H1117 C1143 0.950 . S
H1118 C1144 0.950 . S
H1119 C1146 0.950 . S
H1120 C1149 0.950 . S
H1121 C1150 0.950 . S
H1122 C1152 0.950 . S
H1123 C1153 0.950 . S
C1124 H1106 0.951 . S
C1124 C1125 1.366 . S
C1124 C1126 1.388 . S
C1125 C1124 1.366 . S
C1125 C1129 1.385 . S
C1126 H1107 0.951 . S
C1126 C1124 1.388 . S
C1126 C1127 1.366 . S
C1127 C1126 1.366 . S
C1127 C1128 1.414 . S
C1127 C1130 1.499 . S
C1128 H1108 0.950 . S
C1128 C1127 1.414 . S
C1128 C1129 1.374 . S
C1129 H1109 0.950 . S
C1129 C1125 1.385 . S
C1129 C1128 1.374 . S
C1130 C1127 1.499 . S
C1130 C1131 1.373 . S
C1130 C1132 1.389 . S
C1131 H1110 0.950 . S
C1131 C1130 1.373 . S
C1131 C1147 1.377 . S
C1132 C1130 1.389 . S
C1132 C1133 1.524 . S
C1132 C1146 1.377 . S
C1133 C1132 1.524 . S
C1133 C1134 1.397 . S
C1133 C1138 1.363 . S
C1134 H1111 0.950 . S
C1134 C1133 1.397 . S
C1134 C1135 1.334 . S
C1135 H1112 0.950 . S
C1135 C1134 1.334 . S
C1135 C1136 1.287 . S
C1136 C1135 1.287 . S
C1136 C1137 1.524 . S
C1136 H1155 0.913 . S
C1137 H1113 0.950 . S
C1137 C1136 1.524 . S
C1137 C1138 1.415 . S
C1138 H1114 0.950 . S
C1138 C1133 1.363 . S
C1138 C1137 1.415 . S
C1139 H1115 0.951 . S
C1139 C1140 1.366 . S
C1139 C1141 1.388 . S
C1140 C1139 1.366 . S
C1140 C1144 1.385 . S
C1141 H1116 0.951 . S
C1141 C1139 1.388 . S
C1141 C1142 1.366 . S
C1142 C1141 1.366 . S
C1142 C1143 1.414 . S
C1142 C1145 1.499 . S
C1143 H1117 0.950 . S
C1143 C1142 1.414 . S
C1143 C1144 1.374 . S
C1144 H1118 0.950 . S
C1144 C1140 1.385 . S
C1144 C1143 1.374 . S
C1145 C1142 1.499 . S
C1145 C1146 1.373 . S
C1145 C1147 1.389 . S
C1146 H1119 0.950 . S
C1146 C1132 1.377 . S
C1146 C1145 1.373 . S
C1147 C1131 1.377 . S
C1147 C1145 1.389 . S
C1147 C1148 1.524 . S
C1148 C1147 1.524 . S
C1148 C1149 1.397 . S
C1148 C1153 1.363 . S
C1149 H1120 0.950 . S
C1149 C1148 1.397 . S
C1149 C1150 1.334 . S
C1150 H1121 0.950 . S
C1150 C1149 1.334 . S
C1150 C1151 1.287 . S
C1151 C1150 1.287 . S
C1151 C1152 1.524 . S
C1151 H1154 0.999 . S
C1152 H1122 0.950 . S
C1152 C1151 1.524 . S
C1152 C1153 1.415 . S
C1153 H1123 0.950 . S
C1153 C1148 1.363 . S
C1153 C1152 1.415 . S
H1154 C1151 0.999 . S
H1155 C1136 0.913 . S
H1156 C1174 0.951 . S
H1157 C1176 0.951 . S
H1158 C1178 0.950 . S
H1159 C1179 0.950 . S
H1160 C1181 0.950 . S
H1161 C1184 0.950 . S
H1162 C1185 0.950 . S
H1163 C1187 0.950 . S
H1164 C1188 0.950 . S
H1165 C1189 0.951 . S
H1166 C1191 0.951 . S
H1167 C1193 0.950 . S
H1168 C1194 0.950 . S
H1169 C1196 0.950 . S
H1170 C1199 0.950 . S
H1171 C1200 0.950 . S
H1172 C1202 0.950 . S
H1173 C1203 0.950 . S
C1174 H1156 0.951 . S
C1174 C1175 1.366 . S
C1174 C1176 1.388 . S
C1175 C1174 1.366 . S
C1175 C1179 1.385 . S
C1176 H1157 0.951 . S
C1176 C1174 1.388 . S
C1176 C1177 1.366 . S
C1177 C1176 1.366 . S
C1177 C1178 1.414 . S
C1177 C1180 1.499 . S
C1178 H1158 0.950 . S
C1178 C1177 1.414 . S
C1178 C1179 1.374 . S
C1179 H1159 0.950 . S
C1179 C1175 1.385 . S
C1179 C1178 1.374 . S
C1180 C1177 1.499 . S
C1180 C1181 1.373 . S
C1180 C1182 1.389 . S
C1181 H1160 0.950 . S
C1181 C1180 1.373 . S
C1181 C1197 1.377 . S
C1182 C1180 1.389 . S
C1182 C1183 1.524 . S
C1182 C1196 1.377 . S
C1183 C1182 1.524 . S
C1183 C1184 1.397 . S
C1183 C1188 1.363 . S
C1184 H1161 0.950 . S
C1184 C1183 1.397 . S
C1184 C1185 1.334 . S
C1185 H1162 0.950 . S
C1185 C1184 1.334 . S
C1185 C1186 1.287 . S
C1186 C1185 1.287 . S
C1186 C1187 1.524 . S
C1186 H1205 0.913 . S
C1187 H1163 0.950 . S
C1187 C1186 1.524 . S
C1187 C1188 1.415 . S
C1188 H1164 0.950 . S
C1188 C1183 1.363 . S
C1188 C1187 1.415 . S
C1189 H1165 0.951 . S
C1189 C1190 1.366 . S
C1189 C1191 1.388 . S
C1190 C1189 1.366 . S
C1190 C1194 1.385 . S
C1191 H1166 0.951 . S
C1191 C1189 1.388 . S
C1191 C1192 1.366 . S
C1192 C1191 1.366 . S
C1192 C1193 1.414 . S
C1192 C1195 1.499 . S
C1193 H1167 0.950 . S
C1193 C1192 1.414 . S
C1193 C1194 1.374 . S
C1194 H1168 0.950 . S
C1194 C1190 1.385 . S
C1194 C1193 1.374 . S
C1195 C1192 1.499 . S
C1195 C1196 1.373 . S
C1195 C1197 1.389 . S
C1196 H1169 0.950 . S
C1196 C1182 1.377 . S
C1196 C1195 1.373 . S
C1197 C1181 1.377 . S
C1197 C1195 1.389 . S
C1197 C1198 1.524 . S
C1198 C1197 1.524 . S
C1198 C1199 1.397 . S
C1198 C1203 1.363 . S
C1199 H1170 0.950 . S
C1199 C1198 1.397 . S
C1199 C1200 1.334 . S
C1200 H1171 0.950 . S
C1200 C1199 1.334 . S
C1200 C1201 1.287 . S
C1201 C1200 1.287 . S
C1201 C1202 1.524 . S
C1201 H1204 0.999 . S
C1202 H1172 0.950 . S
C1202 C1201 1.524 . S
C1202 C1203 1.415 . S
C1203 H1173 0.950 . S
C1203 C1198 1.363 . S
C1203 C1202 1.415 . S
H1204 C1201 0.999 . S
H1205 C1186 0.913 . S
H1206 C1224 0.951 . S
H1207 C1226 0.951 . S
H1208 C1228 0.950 . S
H1209 C1229 0.950 . S
H1210 C1231 0.950 . S
H1211 C1234 0.950 . S
H1212 C1235 0.950 . S
H1213 C1237 0.950 . S
H1214 C1238 0.950 . S
H1215 C1239 0.951 . S
H1216 C1241 0.951 . S
H1217 C1243 0.950 . S
H1218 C1244 0.950 . S
H1219 C1246 0.950 . S
H1220 C1249 0.950 . S
H1221 C1250 0.950 . S
H1222 C1252 0.950 . S
H1223 C1253 0.950 . S
C1224 H1206 0.951 . S
C1224 C1225 1.366 . S
C1224 C1226 1.388 . S
C1225 C1224 1.366 . S
C1225 C1229 1.385 . S
C1226 H1207 0.951 . S
C1226 C1224 1.388 . S
C1226 C1227 1.366 . S
C1227 C1226 1.366 . S
C1227 C1228 1.414 . S
C1227 C1230 1.499 . S
C1228 H1208 0.950 . S
C1228 C1227 1.414 . S
C1228 C1229 1.374 . S
C1229 H1209 0.950 . S
C1229 C1225 1.385 . S
C1229 C1228 1.374 . S
C1230 C1227 1.499 . S
C1230 C1231 1.373 . S
C1230 C1232 1.389 . S
C1231 H1210 0.950 . S
C1231 C1230 1.373 . S
C1231 C1247 1.377 . S
C1232 C1230 1.389 . S
C1232 C1233 1.524 . S
C1232 C1246 1.377 . S
C1233 C1232 1.524 . S
C1233 C1234 1.397 . S
C1233 C1238 1.363 . S
C1234 H1211 0.950 . S
C1234 C1233 1.397 . S
C1234 C1235 1.334 . S
C1235 H1212 0.950 . S
C1235 C1234 1.334 . S
C1235 C1236 1.287 . S
C1236 C1235 1.287 . S
C1236 C1237 1.524 . S
C1236 H1255 0.913 . S
C1237 H1213 0.950 . S
C1237 C1236 1.524 . S
C1237 C1238 1.415 . S
C1238 H1214 0.950 . S
C1238 C1233 1.363 . S
C1238 C1237 1.415 . S
C1239 H1215 0.951 . S
C1239 C1240 1.366 . S
C1239 C1241 1.388 . S
C1240 C1239 1.366 . S
C1240 C1244 1.385 . S
C1241 H1216 0.951 . S
C1241 C1239 1.388 . S
C1241 C1242 1.366 . S
C1242 C1241 1.366 . S
C1242 C1243 1.414 . S
C1242 C1245 1.499 . S
C1243 H1217 0.950 . S
C1243 C1242 1.414 . S
C1243 C1244 1.374 . S
C1244 H1218 0.950 . S
C1244 C1240 1.385 . S
C1244 C1243 1.374 . S
C1245 C1242 1.499 . S
C1245 C1246 1.373 . S
C1245 C1247 1.389 . S
C1246 H1219 0.950 . S
C1246 C1232 1.377 . S
C1246 C1245 1.373 . S
C1247 C1231 1.377 . S
C1247 C1245 1.389 . S
C1247 C1248 1.524 . S
C1248 C1247 1.524 . S
C1248 C1249 1.397 . S
C1248 C1253 1.363 . S
C1249 H1220 0.950 . S
C1249 C1248 1.397 . S
C1249 C1250 1.334 . S
C1250 H1221 0.950 . S
C1250 C1249 1.334 . S
C1250 C1251 1.287 . S
C1251 C1250 1.287 . S
C1251 C1252 1.524 . S
C1251 H1254 0.999 . S
C1252 H1222 0.950 . S
C1252 C1251 1.524 . S
C1252 C1253 1.415 . S
C1253 H1223 0.950 . S
C1253 C1248 1.363 . S
C1253 C1252 1.415 . S
H1254 C1251 0.999 . S
H1255 C1236 0.913 . S
H1256 C1274 0.951 . S
H1257 C1276 0.951 . S
H1258 C1278 0.950 . S
H1259 C1279 0.950 . S
H1260 C1281 0.950 . S
H1261 C1284 0.950 . S
H1262 C1285 0.950 . S
H1263 C1287 0.950 . S
H1264 C1288 0.950 . S
H1265 C1289 0.951 . S
H1266 C1291 0.951 . S
H1267 C1293 0.950 . S
H1268 C1294 0.950 . S
H1269 C1296 0.950 . S
H1270 C1299 0.950 . S
H1271 C1300 0.950 . S
H1272 C1302 0.950 . S
H1273 C1303 0.950 . S
C1274 H1256 0.951 . S
C1274 C1275 1.366 . S
C1274 C1276 1.388 . S
C1275 C1274 1.366 . S
C1275 C1279 1.385 . S
C1276 H1257 0.951 . S
C1276 C1274 1.388 . S
C1276 C1277 1.366 . S
C1277 C1276 1.366 . S
C1277 C1278 1.414 . S
C1277 C1280 1.499 . S
C1278 H1258 0.950 . S
C1278 C1277 1.414 . S
C1278 C1279 1.374 . S
C1279 H1259 0.950 . S
C1279 C1275 1.385 . S
C1279 C1278 1.374 . S
C1280 C1277 1.499 . S
C1280 C1281 1.373 . S
C1280 C1282 1.389 . S
C1281 H1260 0.950 . S
C1281 C1280 1.373 . S
C1281 C1297 1.377 . S
C1282 C1280 1.389 . S
C1282 C1283 1.524 . S
C1282 C1296 1.377 . S
C1283 C1282 1.524 . S
C1283 C1284 1.397 . S
C1283 C1288 1.363 . S
C1284 H1261 0.950 . S
C1284 C1283 1.397 . S
C1284 C1285 1.334 . S
C1285 H1262 0.950 . S
C1285 C1284 1.334 . S
C1285 C1286 1.287 . S
C1286 C1285 1.287 . S
C1286 C1287 1.524 . S
C1286 H1305 0.913 . S
C1287 H1263 0.950 . S
C1287 C1286 1.524 . S
C1287 C1288 1.415 . S
C1288 H1264 0.950 . S
C1288 C1283 1.363 . S
C1288 C1287 1.415 . S
C1289 H1265 0.951 . S
C1289 C1290 1.366 . S
C1289 C1291 1.388 . S
C1290 C1289 1.366 . S
C1290 C1294 1.385 . S
C1291 H1266 0.951 . S
C1291 C1289 1.388 . S
C1291 C1292 1.366 . S
C1292 C1291 1.366 . S
C1292 C1293 1.414 . S
C1292 C1295 1.499 . S
C1293 H1267 0.950 . S
C1293 C1292 1.414 . S
C1293 C1294 1.374 . S
C1294 H1268 0.950 . S
C1294 C1290 1.385 . S
C1294 C1293 1.374 . S
C1295 C1292 1.499 . S
C1295 C1296 1.373 . S
C1295 C1297 1.389 . S
C1296 H1269 0.950 . S
C1296 C1282 1.377 . S
C1296 C1295 1.373 . S
C1297 C1281 1.377 . S
C1297 C1295 1.389 . S
C1297 C1298 1.524 . S
C1298 C1297 1.524 . S
C1298 C1299 1.397 . S
C1298 C1303 1.363 . S
C1299 H1270 0.950 . S
C1299 C1298 1.397 . S
C1299 C1300 1.334 . S
C1300 H1271 0.950 . S
C1300 C1299 1.334 . S
C1300 C1301 1.287 . S
C1301 C1300 1.287 . S
C1301 C1302 1.524 . S
C1301 H1304 0.999 . S
C1302 H1272 0.950 . S
C1302 C1301 1.524 . S
C1302 C1303 1.415 . S
C1303 H1273 0.950 . S
C1303 C1298 1.363 . S
C1303 C1302 1.415 . S
H1304 C1301 0.999 . S
H1305 C1286 0.913 . S
H1306 C1324 0.951 . S
H1307 C1326 0.951 . S
H1308 C1328 0.950 . S
H1309 C1329 0.950 . S
H1310 C1331 0.950 . S
H1311 C1334 0.950 . S
H1312 C1335 0.950 . S
H1313 C1337 0.950 . S
H1314 C1338 0.950 . S
H1315 C1339 0.951 . S
H1316 C1341 0.951 . S
H1317 C1343 0.950 . S
H1318 C1344 0.950 . S
H1319 C1346 0.950 . S
H1320 C1349 0.950 . S
H1321 C1350 0.950 . S
H1322 C1352 0.950 . S
H1323 C1353 0.950 . S
C1324 H1306 0.951 . S
C1324 C1325 1.366 . S
C1324 C1326 1.388 . S
C1325 C1324 1.366 . S
C1325 C1329 1.385 . S
C1326 H1307 0.951 . S
C1326 C1324 1.388 . S
C1326 C1327 1.366 . S
C1327 C1326 1.366 . S
C1327 C1328 1.414 . S
C1327 C1330 1.499 . S
C1328 H1308 0.950 . S
C1328 C1327 1.414 . S
C1328 C1329 1.374 . S
C1329 H1309 0.950 . S
C1329 C1325 1.385 . S
C1329 C1328 1.374 . S
C1330 C1327 1.499 . S
C1330 C1331 1.373 . S
C1330 C1332 1.389 . S
C1331 H1310 0.950 . S
C1331 C1330 1.373 . S
C1331 C1347 1.377 . S
C1332 C1330 1.389 . S
C1332 C1333 1.524 . S
C1332 C1346 1.377 . S
C1333 C1332 1.524 . S
C1333 C1334 1.397 . S
C1333 C1338 1.363 . S
C1334 H1311 0.950 . S
C1334 C1333 1.397 . S
C1334 C1335 1.334 . S
C1335 H1312 0.950 . S
C1335 C1334 1.334 . S
C1335 C1336 1.287 . S
C1336 C1335 1.287 . S
C1336 C1337 1.524 . S
C1336 H1355 0.913 . S
C1337 H1313 0.950 . S
C1337 C1336 1.524 . S
C1337 C1338 1.415 . S
C1338 H1314 0.950 . S
C1338 C1333 1.363 . S
C1338 C1337 1.415 . S
C1339 H1315 0.951 . S
C1339 C1340 1.366 . S
C1339 C1341 1.388 . S
C1340 C1339 1.366 . S
C1340 C1344 1.385 . S
C1341 H1316 0.951 . S
C1341 C1339 1.388 . S
C1341 C1342 1.366 . S
C1342 C1341 1.366 . S
C1342 C1343 1.414 . S
C1342 C1345 1.499 . S
C1343 H1317 0.950 . S
C1343 C1342 1.414 . S
C1343 C1344 1.374 . S
C1344 H1318 0.950 . S
C1344 C1340 1.385 . S
C1344 C1343 1.374 . S
C1345 C1342 1.499 . S
C1345 C1346 1.373 . S
C1345 C1347 1.389 . S
C1346 H1319 0.950 . S
C1346 C1332 1.377 . S
C1346 C1345 1.373 . S
C1347 C1331 1.377 . S
C1347 C1345 1.389 . S
C1347 C1348 1.524 . S
C1348 C1347 1.524 . S
C1348 C1349 1.397 . S
C1348 C1353 1.363 . S
C1349 H1320 0.950 . S
C1349 C1348 1.397 . S
C1349 C1350 1.334 . S
C1350 H1321 0.950 . S
C1350 C1349 1.334 . S
C1350 C1351 1.287 . S
C1351 C1350 1.287 . S
C1351 C1352 1.524 . S
C1351 H1354 0.999 . S
C1352 H1322 0.950 . S
C1352 C1351 1.524 . S
C1352 C1353 1.415 . S
C1353 H1323 0.950 . S
C1353 C1348 1.363 . S
C1353 C1352 1.415 . S
H1354 C1351 0.999 . S
H1355 C1336 0.913 . S
H1356 C1374 0.951 . S
H1357 C1376 0.951 . S
H1358 C1378 0.950 . S
H1359 C1379 0.950 . S
H1360 C1381 0.950 . S
H1361 C1384 0.950 . S
H1362 C1385 0.950 . S
H1363 C1387 0.950 . S
H1364 C1388 0.950 . S
H1365 C1389 0.951 . S
H1366 C1391 0.951 . S
H1367 C1393 0.950 . S
H1368 C1394 0.950 . S
H1369 C1396 0.950 . S
H1370 C1399 0.950 . S
H1371 C1400 0.950 . S
H1372 C1402 0.950 . S
H1373 C1403 0.950 . S
C1374 H1356 0.951 . S
C1374 C1375 1.366 . S
C1374 C1376 1.388 . S
C1375 C1374 1.366 . S
C1375 C1379 1.385 . S
C1376 H1357 0.951 . S
C1376 C1374 1.388 . S
C1376 C1377 1.366 . S
C1377 C1376 1.366 . S
C1377 C1378 1.414 . S
C1377 C1380 1.499 . S
C1378 H1358 0.950 . S
C1378 C1377 1.414 . S
C1378 C1379 1.374 . S
C1379 H1359 0.950 . S
C1379 C1375 1.385 . S
C1379 C1378 1.374 . S
C1380 C1377 1.499 . S
C1380 C1381 1.373 . S
C1380 C1382 1.389 . S
C1381 H1360 0.950 . S
C1381 C1380 1.373 . S
C1381 C1397 1.377 . S
C1382 C1380 1.389 . S
C1382 C1383 1.524 . S
C1382 C1396 1.377 . S
C1383 C1382 1.524 . S
C1383 C1384 1.397 . S
C1383 C1388 1.363 . S
C1384 H1361 0.950 . S
C1384 C1383 1.397 . S
C1384 C1385 1.334 . S
C1385 H1362 0.950 . S
C1385 C1384 1.334 . S
C1385 C1386 1.287 . S
C1386 C1385 1.287 . S
C1386 C1387 1.524 . S
C1386 H1405 0.913 . S
C1387 H1363 0.950 . S
C1387 C1386 1.524 . S
C1387 C1388 1.415 . S
C1388 H1364 0.950 . S
C1388 C1383 1.363 . S
C1388 C1387 1.415 . S
C1389 H1365 0.951 . S
C1389 C1390 1.366 . S
C1389 C1391 1.388 . S
C1390 C1389 1.366 . S
C1390 C1394 1.385 . S
C1391 H1366 0.951 . S
C1391 C1389 1.388 . S
C1391 C1392 1.366 . S
C1392 C1391 1.366 . S
C1392 C1393 1.414 . S
C1392 C1395 1.499 . S
C1393 H1367 0.950 . S
C1393 C1392 1.414 . S
C1393 C1394 1.374 . S
C1394 H1368 0.950 . S
C1394 C1390 1.385 . S
C1394 C1393 1.374 . S
C1395 C1392 1.499 . S
C1395 C1396 1.373 . S
C1395 C1397 1.389 . S
C1396 H1369 0.950 . S
C1396 C1382 1.377 . S
C1396 C1395 1.373 . S
C1397 C1381 1.377 . S
C1397 C1395 1.389 . S
C1397 C1398 1.524 . S
C1398 C1397 1.524 . S
C1398 C1399 1.397 . S
C1398 C1403 1.363 . S
C1399 H1370 0.950 . S
C1399 C1398 1.397 . S
C1399 C1400 1.334 . S
C1400 H1371 0.950 . S
C1400 C1399 1.334 . S
C1400 C1401 1.287 . S
C1401 C1400 1.287 . S
C1401 C1402 1.524 . S
C1401 H1404 0.999 . S
C1402 H1372 0.950 . S
C1402 C1401 1.524 . S
C1402 C1403 1.415 . S
C1403 H1373 0.950 . S
C1403 C1398 1.363 . S
C1403 C1402 1.415 . S
H1404 C1401 0.999 . S
H1405 C1386 0.913 . S
H1406 C1424 0.951 . S
H1407 C1426 0.951 . S
H1408 C1428 0.950 . S
H1409 C1429 0.950 . S
H1410 C1431 0.950 . S
H1411 C1434 0.950 . S
H1412 C1435 0.950 . S
H1413 C1437 0.950 . S
H1414 C1438 0.950 . S
H1415 C1439 0.951 . S
H1416 C1441 0.951 . S
H1417 C1443 0.950 . S
H1418 C1444 0.950 . S
H1419 C1446 0.950 . S
H1420 C1449 0.950 . S
H1421 C1450 0.950 . S
H1422 C1452 0.950 . S
H1423 C1453 0.950 . S
C1424 H1406 0.951 . S
C1424 C1425 1.366 . S
C1424 C1426 1.388 . S
C1425 C1424 1.366 . S
C1425 C1429 1.385 . S
C1426 H1407 0.951 . S
C1426 C1424 1.388 . S
C1426 C1427 1.366 . S
C1427 C1426 1.366 . S
C1427 C1428 1.414 . S
C1427 C1430 1.499 . S
C1428 H1408 0.950 . S
C1428 C1427 1.414 . S
C1428 C1429 1.374 . S
C1429 H1409 0.950 . S
C1429 C1425 1.385 . S
C1429 C1428 1.374 . S
C1430 C1427 1.499 . S
C1430 C1431 1.373 . S
C1430 C1432 1.389 . S
C1431 H1410 0.950 . S
C1431 C1430 1.373 . S
C1431 C1447 1.377 . S
C1432 C1430 1.389 . S
C1432 C1433 1.524 . S
C1432 C1446 1.377 . S
C1433 C1432 1.524 . S
C1433 C1434 1.397 . S
C1433 C1438 1.363 . S
C1434 H1411 0.950 . S
C1434 C1433 1.397 . S
C1434 C1435 1.334 . S
C1435 H1412 0.950 . S
C1435 C1434 1.334 . S
C1435 C1436 1.287 . S
C1436 C1435 1.287 . S
C1436 C1437 1.524 . S
C1436 H1455 0.913 . S
C1437 H1413 0.950 . S
C1437 C1436 1.524 . S
C1437 C1438 1.415 . S
C1438 H1414 0.950 . S
C1438 C1433 1.363 . S
C1438 C1437 1.415 . S
C1439 H1415 0.951 . S
C1439 C1440 1.366 . S
C1439 C1441 1.388 . S
C1440 C1439 1.366 . S
C1440 C1444 1.385 . S
C1441 H1416 0.951 . S
C1441 C1439 1.388 . S
C1441 C1442 1.366 . S
C1442 C1441 1.366 . S
C1442 C1443 1.414 . S
C1442 C1445 1.499 . S
C1443 H1417 0.950 . S
C1443 C1442 1.414 . S
C1443 C1444 1.374 . S
C1444 H1418 0.950 . S
C1444 C1440 1.385 . S
C1444 C1443 1.374 . S
C1445 C1442 1.499 . S
C1445 C1446 1.373 . S
C1445 C1447 1.389 . S
C1446 H1419 0.950 . S
C1446 C1432 1.377 . S
C1446 C1445 1.373 . S
C1447 C1431 1.377 . S
C1447 C1445 1.389 . S
C1447 C1448 1.524 . S
C1448 C1447 1.524 . S
C1448 C1449 1.397 . S
C1448 C1453 1.363 . S
C1449 H1420 0.950 . S
C1449 C1448 1.397 . S
C1449 C1450 1.334 . S
C1450 H1421 0.950 . S
C1450 C1449 1.334 . S
C1450 C1451 1.287 . S
C1451 C1450 1.287 . S
C1451 C1452 1.524 . S
C1451 H1454 0.999 . S
C1452 H1422 0.950 . S
C1452 C1451 1.524 . S
C1452 C1453 1.415 . S
C1453 H1423 0.950 . S
C1453 C1448 1.363 . S
C1453 C1452 1.415 . S
H1454 C1451 0.999 . S
H1455 C1436 0.913 . S
C275 C45 1.582 . S
C290 C115 1.506 1_554 S
C325 C30 1.584 . S
C340 C134 1.507 . S
C375 C39 1.582 . S
C390 C153 1.413 1_556 S
C440 C172 1.513 . S
C425 C34 1.585 . S
C475 C97 1.582 . S
C490 C191 1.512 . S
C540 C210 1.508 . S
C525 C82 1.585 . S
C590 C229 1.411 . S
C575 C91 1.582 . S
C640 C248 1.507 . S
C625 C86 1.585 . S
C690 C220 1.607 . S
C675 C26 1.581 . S
C740 C243 1.532 . S
C725 C36 1.481 . S
C790 C186 1.620 . S
C775 C32 1.568 . S
C840 C205 1.531 . S
C825 C42 1.484 . S
C875 C18 1.748 . S
C890 C201 1.794 . S
C940 C224 1.706 . S
C925 C50 1.644 . S
C975 C4 1.750 . S
C990 C239 1.790 . S
C1025 C48 1.659 . S
C1040 C182 1.701 . S
C1090 C144 1.607 . S
C1075 C78 1.580 . S
C1125 C88 1.481 . S
C1140 C167 1.532 . S
C1190 C110 1.620 . S
C1175 C84 1.568 . S
C1240 C129 1.530 . S
C1225 C94 1.483 . S
C1290 C125 1.795 . S
C1275 C70 1.749 . S
C1340 C148 1.706 . S
C1325 C102 1.644 . S
C1375 C56 1.750 . S
C1390 C163 1.790 . S
C1425 C100 1.659 . S
C1440 C106 1.701 . S
