# Generated by pormake.
# Topology rtl, (3,6)-cn, num edge types: 1
# Building blocks:
#     Node 0, Type 0, BuildingBlock: INOVEN_clean_linker_0, # of connection points: 3
#     Node 1, Type 0, BuildingBlock: INOVEN_clean_linker_0, # of connection points: 3
#     Node 2, Type 0, BuildingBlock: INOVEN_clean_linker_0, # of connection points: 3
#     Node 3, Type 0, BuildingBlock: INOVEN_clean_linker_0, # of connection points: 3
#     Node 4, Type 1, BuildingBlock: CIFDUS_clean_sbu_1, # of connection points: 6
#     Node 5, Type 1, BuildingBlock: CIFDUS_clean_sbu_1, # of connection points: 6
#     Edge 6, Type (0, 1), BuildingBlock: FUNLAD_clean_linker_0, # of connection points: 2
#     Edge 7, Type (0, 1), BuildingBlock: FUNLAD_clean_linker_0, # of connection points: 2
#     Edge 8, Type (0, 1), BuildingBlock: FUNLAD_clean_linker_0, # of connection points: 2
#     Edge 9, Type (0, 1), BuildingBlock: FUNLAD_clean_linker_0, # of connection points: 2
#     Edge 10, Type (0, 1), BuildingBlock: FUNLAD_clean_linker_0, # of connection points: 2
#     Edge 11, Type (0, 1), BuildingBlock: FUNLAD_clean_linker_0, # of connection points: 2
#     Edge 12, Type (0, 1), BuildingBlock: FUNLAD_clean_linker_0, # of connection points: 2
#     Edge 13, Type (0, 1), BuildingBlock: FUNLAD_clean_linker_0, # of connection points: 2
#     Edge 14, Type (0, 1), BuildingBlock: FUNLAD_clean_linker_0, # of connection points: 2
#     Edge 15, Type (0, 1), BuildingBlock: FUNLAD_clean_linker_0, # of connection points: 2
#     Edge 16, Type (0, 1), BuildingBlock: FUNLAD_clean_linker_0, # of connection points: 2
#     Edge 17, Type (0, 1), BuildingBlock: FUNLAD_clean_linker_0, # of connection points: 2
# Relax obj value: 0.015
# Max RMSD: 0.114
# Mean RMSD: 0.084
data_MOF--net-rtl--node1-CIFDUS_clean_sbu_1--node2-INOVEN_clean_linker_0--edge1-FUNLAD_clean_linker_0
_symmetry_space_group_name_H-M    P1
_symmetry_Int_Tables_number       1
_symmetry_cell_setting            triclinic
loop_
_symmetry_equiv_pos_as_xyz
'x, y, z'
_cell_length_a     39.995418
_cell_length_b     40.675832
_cell_length_c     25.821245
_cell_angle_alpha  91.118602
_cell_angle_beta   100.99189
_cell_angle_gamma 90.191764
loop_
_atom_site_label
_atom_site_type_symbol
_atom_site_fract_x
_atom_site_fract_y
_atom_site_fract_z
_atom_type_partial_charge
H0 H 0.2324 0.81649 0.01191 0.0
H1 H 0.1648 0.88302 0.07262 0.0
H2 H 0.23192 0.82091 0.17789 0.0
N3 N 0.26071 0.7915 0.10272 0.0
N4 N 0.26811 0.77578 0.14438 0.0
C5 C 0.2225 0.82719 0.04463 0.0
C6 C 0.19688 0.85122 0.03554 0.0
C7 C 0.23497 0.81595 0.09559 0.0
C8 C 0.22193 0.82914 0.13833 0.0
C9 C 0.19669 0.85349 0.13045 0.0
C10 C 0.18432 0.86434 0.07892 0.0
H11 H 0.74281 0.73252 0.70303 0.0
H12 H 0.66301 0.68111 0.59686 0.0
H13 H 0.74002 0.73463 0.53633 0.0
N14 N 0.77307 0.75777 0.63109 0.0
N15 N 0.78965 0.76436 0.59625 0.0
C16 C 0.73052 0.72533 0.66329 0.0
C17 C 0.70181 0.70453 0.65504 0.0
C18 C 0.74421 0.7364 0.62076 0.0
C19 C 0.72887 0.7266 0.569 0.0
C20 C 0.69937 0.70658 0.55942 0.0
C21 C 0.68613 0.69575 0.60307 0.0
H22 H 0.80895 0.23096 0.89795 0.0
H23 H 0.88056 0.17541 0.00746 0.0
H24 H 0.8138 0.24478 0.06422 0.0
N25 N 0.7821 0.26387 0.96713 0.0
N26 N 0.7761 0.28512 0.99956 0.0
C27 C 0.82039 0.22482 0.93807 0.0
C28 C 0.84685 0.20184 0.94757 0.0
C29 C 0.80864 0.24053 0.97965 0.0
C30 C 0.82294 0.23258 0.032 0.0
C31 C 0.84872 0.20867 0.04269 0.0
C32 C 0.86059 0.19359 0.99999 0.0
H33 H 0.30957 0.32343 0.39694 0.0
H34 H 0.37775 0.38697 0.50405 0.0
H35 H 0.3188 0.31292 0.56394 0.0
N36 N 0.28786 0.2887 0.46829 0.0
N37 N 0.2829 0.26974 0.5035 0.0
C38 C 0.32098 0.33135 0.43673 0.0
C39 C 0.34531 0.3569 0.44511 0.0
C40 C 0.31151 0.31531 0.47912 0.0
C41 C 0.32591 0.32549 0.53103 0.0
C42 C 0.3496 0.35166 0.54064 0.0
C43 C 0.35923 0.36711 0.49726 0.0
O44 O 0.9974 0.0595 0.47722 0.0
Mn45 Mn 0.02171 0.02855 0.53781 0.0
O46 O 0.95528 0.02985 0.42728 0.0
Mn47 Mn 0.97087 0.9897 0.45348 0.0
O48 O 0.04618 0.99784 0.59855 0.0
O49 O 0.05992 0.06182 0.55329 0.0
Mn50 Mn 0.07132 0.0686 0.62195 0.0
O51 O 0.9953 0.05235 0.5908 0.0
O52 O 0.08658 0.0288 0.65004 0.0
O53 O 0.04781 1.00455 0.48472 0.0
O54 O 1.00882 0.97357 0.43034 0.0
O55 O 0.09961 0.0954 0.59303 0.0
O56 O 0.03314 0.08529 0.64335 0.0
C57 C 0.96077 0.97361 0.52714 0.0
C58 C 0.97122 0.0569 0.43945 0.0
C59 C 0.07166 1.00128 0.63733 0.0
C60 C 0.08331 0.08301 0.54881 0.0
C61 C 1.00292 0.07435 0.62779 0.0
C62 C 0.03944 0.98337 0.44662 0.0
O63 O 0.98351 0.99536 0.52221 0.0
O64 O 0.94345 0.96212 0.48299 0.0
O65 O 0.54233 0.56611 0.11229 0.0
Mn66 Mn 0.52046 0.53424 0.04935 0.0
O67 O 0.58344 0.53787 0.16427 0.0
Mn68 Mn 0.56895 0.49721 0.13536 0.0
O69 O 0.49815 0.50256 0.98609 0.0
O70 O 0.48204 0.56634 0.03243 0.0
Mn71 Mn 0.47197 0.57259 0.96405 0.0
O72 O 0.54825 0.55855 0.99995 0.0
O73 O 0.45814 0.5321 0.93394 0.0
O74 O 0.49257 0.51007 0.0988 0.0
O75 O 0.53023 0.48019 0.15444 0.0
O76 O 0.44248 0.59869 0.99311 0.0
O77 O 0.511 0.59014 0.94649 0.0
C78 C 0.58311 0.4811 0.06386 0.0
C79 C 0.56747 0.5644 0.15157 0.0
C80 C 0.47336 0.50509 0.9463 0.0
C81 C 0.4584 0.58706 0.03722 0.0
C82 C 0.54123 0.58023 0.96382 0.0
C83 C 0.49987 0.48933 0.13629 0.0
O84 O 0.5591 0.50199 0.06642 0.0
O85 O 0.59846 0.47016 0.10885 0.0
C86 C 0.23637 0.23885 0.44504 0.0
C87 C 0.25949 0.24296 0.49328 0.0
C88 C 0.21354 0.21212 0.43703 0.0
C89 C 0.21375 0.18899 0.47698 0.0
C90 C 0.23727 0.19309 0.52459 0.0
C91 C 0.25961 0.21993 0.53277 0.0
C92 C 0.19003 0.16034 0.47149 0.0
C93 C 0.15844 0.15974 0.44148 0.0
C94 C 0.1332 0.13437 0.44987 0.0
C95 C 0.10037 0.14437 0.45479 0.0
C96 C 0.08017 0.12422 0.4799 0.0
C97 C 0.09237 0.09368 0.4994 0.0
H98 H 0.16786 0.09308 0.45738 0.0
C99 C 0.12279 0.08168 0.48704 0.0
C100 C 0.14308 0.10184 0.46225 0.0
H101 H 0.13295 0.05841 0.50243 0.0
H102 H 0.23579 0.2563 0.41376 0.0
H103 H 0.19616 0.20945 0.39953 0.0
H104 H 0.23805 0.1757 0.55604 0.0
H105 H 0.27726 0.22271 0.57004 0.0
H106 H 0.19745 0.14043 0.4987 0.0
H107 H 0.14925 0.18089 0.41803 0.0
H108 H 0.09197 0.16917 0.44498 0.0
H109 H 0.05711 0.13425 0.48995 0.0
C110 C 0.3187 0.74999 0.11928 0.0
C111 C 0.29407 0.75158 0.1515 0.0
C112 C 0.34323 0.7252 0.12612 0.0
C113 C 0.34342 0.7013 0.16493 0.0
C114 C 0.31893 0.70314 0.19726 0.0
C115 C 0.29484 0.72838 0.19113 0.0
C116 C 0.36631 0.67238 0.16797 0.0
C117 C 0.39787 0.67418 0.15694 0.0
C118 C 0.41754 0.64514 0.14365 0.0
C119 C 0.4518 0.64972 0.13952 0.0
C120 C 0.46804 0.62696 0.11147 0.0
C121 C 0.45016 0.59939 0.08696 0.0
H122 H 0.3749 0.61064 0.12659 0.0
C123 C 0.41751 0.59269 0.09656 0.0
C124 C 0.40129 0.61526 0.12483 0.0
H125 H 0.403 0.57189 0.07701 0.0
H126 H 0.31881 0.76767 0.0885 0.0
H127 H 0.36113 0.72404 0.09953 0.0
H128 H 0.31823 0.68482 0.22695 0.0
H129 H 0.27607 0.72929 0.21631 0.0
H130 H 0.35611 0.64892 0.17724 0.0
H131 H 0.40869 0.69831 0.15266 0.0
H132 H 0.46503 0.67239 0.1537 0.0
H133 H 0.493 0.63298 0.10362 0.0
C134 C 0.82528 0.80717 0.65051 0.0
C135 C 0.81786 0.78646 0.60535 0.0
C136 C 0.85228 0.82992 0.65633 0.0
C137 C 0.87238 0.83211 0.61725 0.0
C138 C 0.86536 0.81063 0.57318 0.0
C139 C 0.83822 0.78834 0.5671 0.0
C140 C 0.90026 0.85675 0.61955 0.0
C141 C 0.90094 0.88655 0.64372 0.0
C142 C 0.92326 0.91343 0.63106 0.0
C143 C 0.90953 0.94499 0.62199 0.0
C144 C 0.92528 0.96786 0.59448 0.0
C145 C 0.9553 0.95967 0.57677 0.0
H146 H 0.9675 0.88327 0.62769 0.0
C147 C 0.9715 0.92998 0.59243 0.0
C148 C 0.9557 0.90702 0.61965 0.0
H149 H 0.99438 0.92293 0.5784 0.0
H150 H 0.80993 0.8062 0.68076 0.0
H151 H 0.85732 0.84561 0.6913 0.0
H152 H 0.88041 0.81167 0.5425 0.0
H153 H 0.83286 0.77259 0.53216 0.0
H154 H 0.91846 0.85178 0.59409 0.0
H155 H 0.88094 0.89311 0.66508 0.0
H156 H 0.88478 0.95071 0.63093 0.0
H157 H 0.91198 0.99035 0.58188 0.0
C158 C 0.74854 0.33602 0.01834 0.0
C159 C 0.74915 0.30801 0.98621 0.0
C160 C 0.72223 0.35886 0.00668 0.0
C161 C 0.69564 0.35382 0.96283 0.0
C162 C 0.69607 0.32553 0.93095 0.0
C163 C 0.72279 0.30301 0.94205 0.0
C164 C 0.66568 0.37602 0.95319 0.0
C165 C 0.66837 0.40857 0.96423 0.0
C166 C 0.63927 0.43033 0.97015 0.0
C167 C 0.64608 0.46395 0.98116 0.0
C168 C 0.62366 0.48331 1.00389 0.0
C169 C 0.59397 0.46941 0.01571 0.0
H170 H 0.60054 0.39216 0.96732 0.0
C171 C 0.58477 0.43724 0.99797 0.0
C172 C 0.60719 0.41776 0.97533 0.0
H173 H 0.5623 0.42581 0.00769 0.0
H174 H 0.76847 0.34012 0.05267 0.0
H175 H 0.72215 0.37983 0.03314 0.0
H176 H 0.67563 0.32078 0.89753 0.0
H177 H 0.72242 0.2814 0.91678 0.0
H178 H 0.64099 0.36477 0.93853 0.0
H179 H 0.69374 0.41938 0.97439 0.0
H180 H 0.67038 0.47449 0.97727 0.0
H181 H 0.63169 0.50783 0.01835 0.0
C182 C 0.17665 0.90099 0.18057 0.0
C183 C 0.18286 0.86713 0.17597 0.0
C184 C 0.16251 0.91349 0.22248 0.0
C185 C 0.1543 0.89233 0.26082 0.0
C186 C 0.16092 0.8586 0.25643 0.0
C187 C 0.17512 0.84616 0.21473 0.0
C188 C 0.13596 0.90369 0.3029 0.0
C189 C 0.13444 0.93524 0.3195 0.0
C190 C 0.11164 0.94592 0.35599 0.0
C191 C 0.11921 0.97468 0.38731 0.0
C192 C 0.09658 0.9864 0.41874 0.0
C193 C 0.06563 0.96985 0.41857 0.0
H194 H 0.07352 0.90751 0.33227 0.0
C195 C 0.05844 0.94085 0.38784 0.0
C196 C 0.08099 0.92911 0.35694 0.0
H197 H 0.03486 0.92742 0.38666 0.0
H198 H 0.18256 0.91785 0.15157 0.0
H199 H 0.15712 0.9395 0.22357 0.0
H200 H 0.15452 0.84163 0.28494 0.0
H201 H 0.17916 0.81991 0.21207 0.0
H202 H 0.12283 0.88486 0.3208 0.0
H203 H 0.15 0.95392 0.30592 0.0
H204 H 0.14246 0.98833 0.38692 0.0
H205 H 0.10274 0.00894 0.44163 0.0
C206 C 0.67773 0.65904 0.70177 0.0
C207 C 0.68802 0.69208 0.70063 0.0
C208 C 0.66385 0.64751 0.74389 0.0
C209 C 0.65995 0.66883 0.78591 0.0
C210 C 0.67054 0.70174 0.78492 0.0
C211 C 0.6846 0.7132 0.743 0.0
C212 C 0.642 0.6586 0.82855 0.0
C213 C 0.63855 0.62713 0.84244 0.0
C214 C 0.61579 0.6172 0.87897 0.0
C215 C 0.6214 0.58738 0.9059 0.0
C216 C 0.59818 0.57592 0.936 0.0
C217 C 0.56856 0.59383 0.93882 0.0
H218 H 0.58078 0.65814 0.86233 0.0
C219 C 0.56351 0.62404 0.91304 0.0
C220 C 0.58672 0.63557 0.88351 0.0
H221 H 0.54097 0.63848 0.91439 0.0
H222 H 0.68026 0.64209 0.66989 0.0
H223 H 0.65522 0.62221 0.74233 0.0
H224 H 0.66745 0.71882 0.81636 0.0
H225 H 0.69195 0.73886 0.74308 0.0
H226 H 0.63089 0.67809 0.84898 0.0
H227 H 0.65233 0.6078 0.82607 0.0
H228 H 0.6434 0.57256 0.9027 0.0
H229 H 0.60261 0.55242 0.95501 0.0
C230 C 0.89722 0.19122 0.11465 0.0
C231 C 0.8625 0.19866 0.09807 0.0
C232 C 0.9095 0.17945 0.16539 0.0
C233 C 0.88733 0.17503 0.20112 0.0
C234 C 0.85288 0.18338 0.18493 0.0
C235 C 0.84063 0.19501 0.13426 0.0
C236 C 0.89789 0.15919 0.25348 0.0
C237 C 0.93031 0.15229 0.27666 0.0
C238 C 0.93915 0.13119 0.32413 0.0
C239 C 0.97253 0.13183 0.35408 0.0
C240 C 0.9827 0.10919 0.39443 0.0
C241 C 0.95975 0.08516 0.40508 0.0
H242 H 0.89025 0.10578 0.31431 0.0
C243 C 0.92604 0.08552 0.37675 0.0
C244 C 0.91589 0.10804 0.33683 0.0
H245 H 0.90768 0.06733 0.38388 0.0
H246 H 0.91495 0.19414 0.08816 0.0
H247 H 0.93611 0.17304 0.17548 0.0
H248 H 0.83503 0.18007 0.21117 0.0
H249 H 0.81368 0.20001 0.12291 0.0
H250 H 0.8774 0.15218 0.27324 0.0
H251 H 0.95132 0.16149 0.25992 0.0
H252 H 0.99113 0.14916 0.34508 0.0
H253 H 1.00894 0.10931 0.41509 0.0
C254 C 0.39817 0.37274 0.61118 0.0
C255 C 0.36381 0.36305 0.59587 0.0
C256 C 0.41093 0.38463 0.66255 0.0
C257 C 0.38958 0.38696 0.70004 0.0
C258 C 0.35545 0.37675 0.68482 0.0
C259 C 0.34274 0.36498 0.6336 0.0
C260 C 0.40054 0.40243 0.75362 0.0
C261 C 0.43299 0.41013 0.7765 0.0
C262 C 0.44187 0.43088 0.82575 0.0
C263 C 0.47529 0.43074 0.85558 0.0
C264 C 0.48533 0.45323 0.89782 0.0
C265 C 0.46218 0.47661 0.91034 0.0
H266 H 0.39277 0.45518 0.81815 0.0
C267 C 0.42846 0.47566 0.88214 0.0
C268 C 0.41844 0.4533 0.84044 0.0
H269 H 0.40998 0.49337 0.89077 0.0
H270 H 0.41527 0.37127 0.58337 0.0
H271 H 0.4372 0.3927 0.67193 0.0
H272 H 0.33821 0.37852 0.71242 0.0
H273 H 0.31604 0.35826 0.62322 0.0
H274 H 0.38029 0.4083 0.77481 0.0
H275 H 0.45386 0.40193 0.75825 0.0
H276 H 0.49399 0.41394 0.84506 0.0
H277 H 0.51159 0.45359 0.91846 0.0
C278 C 0.66527 0.66659 0.4932 0.0
C279 C 0.68242 0.69702 0.50417 0.0
C280 C 0.64964 0.65757 0.44166 0.0
C281 C 0.65131 0.6784 0.39946 0.0
C282 C 0.66855 0.70857 0.40992 0.0
C283 C 0.6834 0.71805 0.46166 0.0
C284 C 0.63791 0.66767 0.34403 0.0
C285 C 0.6085 0.6507 0.32965 0.0
C286 C 0.59783 0.63459 0.2768 0.0
C287 C 0.56304 0.62881 0.25664 0.0
C288 C 0.55269 0.60847 0.2119 0.0
C289 C 0.57708 0.59293 0.18752 0.0
H290 H 0.64904 0.62422 0.26468 0.0
C291 C 0.61173 0.60007 0.20594 0.0
C292 C 0.62203 0.62091 0.24979 0.0
H293 H 0.63101 0.588 0.18819 0.0
H294 H 0.66455 0.64918 0.52413 0.0
H295 H 0.63737 0.63369 0.43462 0.0
H296 H 0.67039 0.72495 0.37798 0.0
H297 H 0.69556 0.74197 0.46808 0.0
H298 H 0.6529 0.6737 0.31452 0.0
H299 H 0.5921 0.64748 0.35828 0.0
H300 H 0.54389 0.63883 0.27694 0.0
H301 H 0.52587 0.60281 0.1991 0.0
C302 C 0.86903 0.15407 0.90027 0.0
C303 C 0.86073 0.18758 0.90254 0.0
C304 C 0.88279 0.14127 0.85809 0.0
C305 C 0.88854 0.16183 0.81732 0.0
C306 C 0.88003 0.1952 0.81965 0.0
C307 C 0.86626 0.2079 0.86153 0.0
C308 C 0.90612 0.15055 0.77434 0.0
C309 C 0.90949 0.11888 0.75977 0.0
C310 C 0.93147 0.10903 0.72158 0.0
C311 C 0.92508 0.07938 0.69226 0.0
C312 C 0.94724 0.0686 0.65938 0.0
C313 C 0.97653 0.08705 0.6561 0.0
H314 H 0.96695 0.15015 0.73998 0.0
C315 C 0.9824 0.11698 0.6846 0.0
C316 C 0.96034 0.12776 0.71696 0.0
H317 H 1.00474 0.13182 0.6831 0.0
H318 H 0.86493 0.13773 0.93113 0.0
H319 H 0.88973 0.11559 0.85854 0.0
H320 H 0.88455 0.21175 0.78928 0.0
H321 H 0.86072 0.23394 0.86239 0.0
H322 H 0.91696 0.16968 0.75369 0.0
H323 H 0.89614 0.09958 0.7762 0.0
H324 H 0.90322 0.0643 0.69546 0.0
H325 H 0.9422 0.04527 0.63832 0.0
C326 C 0.36359 0.40562 0.39762 0.0
C327 C 0.35723 0.37164 0.39936 0.0
C328 C 0.3764 0.41884 0.3555 0.0
C329 C 0.38306 0.39829 0.31413 0.0
C330 C 0.3761 0.36451 0.31561 0.0
C331 C 0.36336 0.35136 0.35751 0.0
C332 C 0.40037 0.41008 0.27168 0.0
C333 C 0.40355 0.44185 0.25914 0.0
C334 C 0.42618 0.45229 0.22267 0.0
C335 C 0.41994 0.48179 0.19497 0.0
C336 C 0.44285 0.4933 0.16429 0.0
C337 C 0.47275 0.47575 0.16176 0.0
H338 H 0.46211 0.41216 0.24047 0.0
C339 C 0.47846 0.44593 0.18851 0.0
C340 C 0.45563 0.43441 0.21859 0.0
H341 H 0.50125 0.4318 0.18747 0.0
H342 H 0.35893 0.42197 0.42903 0.0
H343 H 0.38203 0.44489 0.35661 0.0
H344 H 0.38131 0.34797 0.28474 0.0
H345 H 0.35932 0.32502 0.35784 0.0
H346 H 0.41166 0.39128 0.25012 0.0
H347 H 0.38986 0.46084 0.27641 0.0
H348 H 0.39764 0.49624 0.19783 0.0
H349 H 0.43793 0.51653 0.14452 0.0
C350 C 0.1486 0.86951 0.9641 0.0
C351 C 0.18345 0.86274 0.98094 0.0
C352 C 0.13629 0.88142 0.91349 0.0
C353 C 0.15856 0.88667 0.87817 0.0
C354 C 0.19323 0.87935 0.89483 0.0
C355 C 0.20552 0.86757 0.94538 0.0
C356 C 0.14772 0.90211 0.82558 0.0
C357 C 0.11513 0.9078 0.80186 0.0
C358 C 0.1057 0.92835 0.75386 0.0
C359 C 0.07221 0.92697 0.72433 0.0
C360 C 0.06139 0.94914 0.68353 0.0
C361 C 0.08381 0.97336 0.67192 0.0
H362 H 0.15413 0.95452 0.76222 0.0
C363 C 0.11764 0.97368 0.69973 0.0
C364 C 0.12843 0.95167 0.74016 0.0
H365 H 0.13559 0.99207 0.69182 0.0
H366 H 0.13074 0.86568 0.99013 0.0
H367 H 0.10951 0.88712 0.9031 0.0
H368 H 0.21116 0.88337 0.86895 0.0
H369 H 0.23256 0.86309 0.95701 0.0
H370 H 0.16811 0.90968 0.80604 0.0
H371 H 0.09436 0.89799 0.81853 0.0
H372 H 0.054 0.90948 0.73409 0.0
H373 H 0.03506 0.94859 0.66337 0.0
loop_
_geom_bond_atom_site_label_1
_geom_bond_atom_site_label_2
_geom_bond_distance
_geom_bond_site_symmetry_2
_ccdc_geom_bond_type
H0 C5 0.929 1_556 S
H1 C10 0.931 . S
H2 C8 0.930 . S
N3 N4 1.234 . S
N3 C7 1.453 . S
N4 N3 1.234 . S
C5 H0 0.929 1_554 S
C5 C6 1.373 . S
C5 C7 1.368 . S
C6 C5 1.373 . S
C6 C10 1.397 . S
C7 N3 1.453 . S
C7 C5 1.368 . S
C7 C8 1.373 . S
C8 H2 0.930 . S
C8 C7 1.373 . S
C8 C9 1.371 . S
C9 C8 1.371 . S
C9 C10 1.383 . S
C10 H1 0.931 . S
C10 C6 1.397 . S
C10 C9 1.383 . S
H11 C16 0.929 . S
H12 C21 0.931 . S
H13 C19 0.930 . S
N14 N15 1.234 . S
N14 C18 1.453 . S
N15 N14 1.234 . S
C16 H11 0.929 . S
C16 C17 1.373 . S
C16 C18 1.368 . S
C17 C16 1.373 . S
C17 C21 1.397 . S
C18 N14 1.453 . S
C18 C16 1.368 . S
C18 C19 1.373 . S
C19 H13 0.930 . S
C19 C18 1.373 . S
C19 C20 1.371 . S
C20 C19 1.371 . S
C20 C21 1.383 . S
C21 H12 0.931 . S
C21 C17 1.397 . S
C21 C20 1.383 . S
H22 C27 0.929 . S
H23 C32 0.931 . S
H24 C30 0.930 . S
N25 N26 1.234 1_556 S
N25 C29 1.453 . S
N26 N25 1.234 1_554 S
C27 H22 0.929 . S
C27 C28 1.373 . S
C27 C29 1.368 . S
C28 C27 1.373 . S
C28 C32 1.397 1_556 S
C29 N25 1.453 . S
C29 C27 1.368 . S
C29 C30 1.373 1_556 S
C30 H24 0.930 . S
C30 C29 1.373 1_554 S
C30 C31 1.371 . S
C31 C30 1.371 . S
C31 C32 1.383 . S
C32 H23 0.931 . S
C32 C28 1.397 1_554 S
C32 C31 1.383 . S
H33 C38 0.929 . S
H34 C43 0.931 . S
H35 C41 0.930 . S
N36 N37 1.234 . S
N36 C40 1.453 . S
N37 N36 1.234 . S
C38 H33 0.929 . S
C38 C39 1.373 . S
C38 C40 1.368 . S
C39 C38 1.373 . S
C39 C43 1.397 . S
C40 N36 1.453 . S
C40 C38 1.368 . S
C40 C41 1.373 . S
C41 H35 0.930 . S
C41 C40 1.373 . S
C41 C42 1.371 . S
C42 C41 1.371 . S
C42 C43 1.383 . S
C43 H34 0.931 . S
C43 C39 1.397 . S
C43 C42 1.383 . S
O44 Mn45 2.163 1_655 S
O44 C58 1.244 . S
Mn45 O44 2.163 1_455 S
Mn45 O48 2.160 1_545 S
Mn45 O49 2.221 . S
Mn45 O51 2.163 1_455 S
Mn45 O53 2.160 1_545 S
Mn45 O63 2.221 1_445 S
O46 Mn47 2.087 1_545 S
O46 C58 1.256 . S
Mn47 O46 2.087 1_565 S
Mn47 O54 2.089 1_655 S
Mn47 O63 2.290 . S
Mn47 O64 2.251 . S
O48 Mn45 2.160 1_565 S
O48 C59 1.239 . S
O49 Mn45 2.221 . S
O49 Mn50 2.290 . S
O49 C60 1.278 . S
Mn50 O49 2.290 . S
Mn50 O52 2.089 . S
Mn50 O55 2.251 . S
Mn50 O56 2.087 . S
O51 Mn45 2.163 1_655 S
O51 C61 1.244 . S
O52 Mn50 2.089 . S
O52 C59 1.256 1_545 S
O53 Mn45 2.160 1_565 S
O53 C62 1.239 . S
O54 Mn47 2.089 1_455 S
O54 C62 1.256 . S
O55 Mn50 2.251 . S
O55 C60 1.241 . S
O56 Mn50 2.087 . S
O56 C61 1.256 1_455 S
C57 O63 1.278 . S
C57 O64 1.241 . S
C58 O44 1.244 . S
C58 O46 1.256 . S
C59 O48 1.239 . S
C59 O52 1.256 1_565 S
C60 O49 1.278 . S
C60 O55 1.241 . S
C61 O51 1.244 . S
C61 O56 1.256 1_655 S
C62 O53 1.239 . S
C62 O54 1.256 . S
O63 Mn45 2.221 1_665 S
O63 Mn47 2.290 . S
O63 C57 1.278 . S
O64 Mn47 2.251 . S
O64 C57 1.241 . S
O65 Mn66 2.163 . S
O65 C79 1.244 . S
Mn66 O65 2.163 . S
Mn66 O69 2.160 1_554 S
Mn66 O70 2.221 . S
Mn66 O72 2.163 1_554 S
Mn66 O74 2.160 . S
Mn66 O84 2.221 . S
O67 Mn68 2.087 . S
O67 C79 1.256 . S
Mn68 O67 2.087 . S
Mn68 O75 2.089 . S
Mn68 O84 2.290 . S
Mn68 O85 2.251 . S
O69 Mn66 2.160 1_556 S
O69 C80 1.239 . S
O70 Mn66 2.221 . S
O70 Mn71 2.290 1_554 S
O70 C81 1.278 . S
Mn71 O70 2.290 1_556 S
Mn71 O73 2.089 . S
Mn71 O76 2.235 1_556 S
Mn71 O77 2.087 . S
O72 Mn66 2.163 1_556 S
O72 C82 1.244 . S
O73 Mn71 2.089 . S
O73 C80 1.256 . S
O74 Mn66 2.160 . S
O74 C83 1.239 . S
O75 Mn68 2.089 . S
O75 C83 1.256 . S
O76 Mn71 2.235 1_554 S
O76 C81 1.258 . S
O77 Mn71 2.087 . S
O77 C82 1.256 . S
C78 O84 1.278 . S
C78 O85 1.241 . S
C79 O65 1.244 . S
C79 O67 1.256 . S
C80 O69 1.239 . S
C80 O73 1.256 . S
C81 O70 1.278 . S
C81 O76 1.258 . S
C82 O72 1.244 . S
C82 O77 1.256 . S
C83 O74 1.239 . S
C83 O75 1.256 . S
O84 Mn66 2.221 . S
O84 Mn68 2.290 . S
O84 C78 1.278 . S
O85 Mn68 2.251 . S
O85 C78 1.241 . S
C86 C87 1.386 . S
C86 C88 1.383 . S
C86 H102 0.951 . S
C87 C86 1.386 . S
C87 C91 1.383 . S
C88 C86 1.383 . S
C88 C89 1.402 . S
C88 H103 0.951 . S
C89 C88 1.402 . S
C89 C90 1.375 . S
C89 C92 1.481 . S
C90 C89 1.375 . S
C90 C91 1.367 . S
C90 H104 0.951 . S
C91 C87 1.383 . S
C91 C90 1.367 . S
C91 H105 0.950 . S
C92 C89 1.481 . S
C92 C93 1.297 . S
C92 H106 0.950 . S
C93 C92 1.297 . S
C93 C94 1.479 . S
C93 H107 0.950 . S
C94 C93 1.479 . S
C94 C95 1.375 . S
C94 C100 1.404 . S
C95 C94 1.375 . S
C95 C96 1.369 . S
C95 H108 0.950 . S
C96 C95 1.369 . S
C96 C97 1.392 . S
C96 H109 0.951 . S
C97 C96 1.392 . S
C97 C99 1.384 . S
H98 C100 0.949 . S
C99 C97 1.384 . S
C99 C100 1.385 . S
C99 H101 0.950 . S
C100 C94 1.404 . S
C100 H98 0.949 . S
C100 C99 1.385 . S
H101 C99 0.950 . S
H102 C86 0.951 . S
H103 C88 0.951 . S
H104 C90 0.951 . S
H105 C91 0.950 . S
H106 C92 0.950 . S
H107 C93 0.950 . S
H108 C95 0.950 . S
H109 C96 0.951 . S
C110 C111 1.386 . S
C110 C112 1.383 . S
C110 H126 0.951 . S
C111 C110 1.386 . S
C111 C115 1.383 . S
C112 C110 1.383 . S
C112 C113 1.402 . S
C112 H127 0.951 . S
C113 C112 1.402 . S
C113 C114 1.375 . S
C113 C116 1.481 . S
C114 C113 1.375 . S
C114 C115 1.367 . S
C114 H128 0.951 . S
C115 C111 1.383 . S
C115 C114 1.367 . S
C115 H129 0.950 . S
C116 C113 1.481 . S
C116 C117 1.297 . S
C116 H130 0.950 . S
C117 C116 1.297 . S
C117 C118 1.479 . S
C117 H131 0.950 . S
C118 C117 1.479 . S
C118 C119 1.375 . S
C118 C124 1.404 . S
C119 C118 1.375 . S
C119 C120 1.369 . S
C119 H132 0.950 . S
C120 C119 1.369 . S
C120 C121 1.392 . S
C120 H133 0.951 . S
C121 C120 1.392 . S
C121 C123 1.384 . S
H122 C124 0.949 . S
C123 C121 1.384 . S
C123 C124 1.385 . S
C123 H125 0.950 . S
C124 C118 1.404 . S
C124 H122 0.949 . S
C124 C123 1.385 . S
H125 C123 0.950 . S
H126 C110 0.951 . S
H127 C112 0.951 . S
H128 C114 0.951 . S
H129 C115 0.950 . S
H130 C116 0.950 . S
H131 C117 0.950 . S
H132 C119 0.950 . S
H133 C120 0.951 . S
C134 C135 1.386 . S
C134 C136 1.383 . S
C134 H150 0.951 . S
C135 C134 1.386 . S
C135 C139 1.383 . S
C136 C134 1.383 . S
C136 C137 1.402 . S
C136 H151 0.951 . S
C137 C136 1.402 . S
C137 C138 1.375 . S
C137 C140 1.481 . S
C138 C137 1.375 . S
C138 C139 1.367 . S
C138 H152 0.951 . S
C139 C135 1.383 . S
C139 C138 1.367 . S
C139 H153 0.950 . S
C140 C137 1.481 . S
C140 C141 1.297 . S
C140 H154 0.950 . S
C141 C140 1.297 . S
C141 C142 1.479 . S
C141 H155 0.950 . S
C142 C141 1.479 . S
C142 C143 1.375 . S
C142 C148 1.404 . S
C143 C142 1.375 . S
C143 C144 1.369 . S
C143 H156 0.950 . S
C144 C143 1.369 . S
C144 C145 1.392 . S
C144 H157 0.951 . S
C145 C144 1.392 . S
C145 C147 1.384 . S
H146 C148 0.949 . S
C147 C145 1.384 . S
C147 C148 1.385 . S
C147 H149 0.950 . S
C148 C142 1.404 . S
C148 H146 0.949 . S
C148 C147 1.385 . S
H149 C147 0.950 . S
H150 C134 0.951 . S
H151 C136 0.951 . S
H152 C138 0.951 . S
H153 C139 0.950 . S
H154 C140 0.950 . S
H155 C141 0.950 . S
H156 C143 0.950 . S
H157 C144 0.951 . S
C158 C159 1.386 . S
C158 C160 1.383 . S
C158 H174 0.951 . S
C159 C158 1.386 . S
C159 C163 1.383 1_554 S
C160 C158 1.383 . S
C160 C161 1.402 1_554 S
C160 H175 0.951 . S
C161 C160 1.402 1_556 S
C161 C162 1.375 . S
C161 C164 1.481 . S
C162 C161 1.375 . S
C162 C163 1.367 . S
C162 H176 0.951 . S
C163 C159 1.383 1_556 S
C163 C162 1.367 . S
C163 H177 0.950 . S
C164 C161 1.481 . S
C164 C165 1.297 1_556 S
C164 H178 0.950 . S
C165 C164 1.297 1_554 S
C165 C166 1.479 . S
C165 H179 0.950 . S
C166 C165 1.479 . S
C166 C167 1.375 . S
C166 C172 1.404 1_554 S
C167 C166 1.375 . S
C167 C168 1.369 . S
C167 H180 0.950 . S
C168 C167 1.369 . S
C168 C169 1.392 . S
C168 H181 0.951 . S
C169 C168 1.392 . S
C169 C171 1.384 1_554 S
H170 C172 0.949 . S
C171 C169 1.384 1_556 S
C171 C172 1.385 . S
C171 H173 0.950 . S
C172 C166 1.404 1_556 S
C172 H170 0.949 . S
C172 C171 1.385 . S
H173 C171 0.950 . S
H174 C158 0.951 . S
H175 C160 0.951 . S
H176 C162 0.951 . S
H177 C163 0.950 . S
H178 C164 0.950 . S
H179 C165 0.950 . S
H180 C167 0.950 . S
H181 C168 0.951 . S
C182 C183 1.386 . S
C182 C184 1.383 . S
C182 H198 0.951 . S
C183 C182 1.386 . S
C183 C187 1.383 . S
C184 C182 1.383 . S
C184 C185 1.402 . S
C184 H199 0.951 . S
C185 C184 1.402 . S
C185 C186 1.375 . S
C185 C188 1.481 . S
C186 C185 1.375 . S
C186 C187 1.367 . S
C186 H200 0.951 . S
C187 C183 1.383 . S
C187 C186 1.367 . S
C187 H201 0.950 . S
C188 C185 1.481 . S
C188 C189 1.297 . S
C188 H202 0.950 . S
C189 C188 1.297 . S
C189 C190 1.479 . S
C189 H203 0.950 . S
C190 C189 1.479 . S
C190 C191 1.375 . S
C190 C196 1.404 . S
C191 C190 1.375 . S
C191 C192 1.369 . S
C191 H204 0.950 . S
C192 C191 1.369 . S
C192 C193 1.392 . S
C192 H205 0.951 1_565 S
C193 C192 1.392 . S
C193 C195 1.384 . S
H194 C196 0.949 . S
C195 C193 1.384 . S
C195 C196 1.385 . S
C195 H197 0.950 . S
C196 C190 1.404 . S
C196 H194 0.949 . S
C196 C195 1.385 . S
H197 C195 0.950 . S
H198 C182 0.951 . S
H199 C184 0.951 . S
H200 C186 0.951 . S
H201 C187 0.950 . S
H202 C188 0.950 . S
H203 C189 0.950 . S
H204 C191 0.950 . S
H205 C192 0.951 1_545 S
C206 C207 1.386 . S
C206 C208 1.383 . S
C206 H222 0.951 . S
C207 C206 1.386 . S
C207 C211 1.383 . S
C208 C206 1.383 . S
C208 C209 1.402 . S
C208 H223 0.951 . S
C209 C208 1.402 . S
C209 C210 1.375 . S
C209 C212 1.481 . S
C210 C209 1.375 . S
C210 C211 1.367 . S
C210 H224 0.951 . S
C211 C207 1.383 . S
C211 C210 1.367 . S
C211 H225 0.950 . S
C212 C209 1.481 . S
C212 C213 1.297 . S
C212 H226 0.950 . S
C213 C212 1.297 . S
C213 C214 1.479 . S
C213 H227 0.950 . S
C214 C213 1.479 . S
C214 C215 1.375 . S
C214 C220 1.404 . S
C215 C214 1.375 . S
C215 C216 1.369 . S
C215 H228 0.950 . S
C216 C215 1.369 . S
C216 C217 1.392 . S
C216 H229 0.951 . S
C217 C216 1.392 . S
C217 C219 1.384 . S
H218 C220 0.949 . S
C219 C217 1.384 . S
C219 C220 1.385 . S
C219 H221 0.950 . S
C220 C214 1.404 . S
C220 H218 0.949 . S
C220 C219 1.385 . S
H221 C219 0.950 . S
H222 C206 0.951 . S
H223 C208 0.951 . S
H224 C210 0.951 . S
H225 C211 0.950 . S
H226 C212 0.950 . S
H227 C213 0.950 . S
H228 C215 0.950 . S
H229 C216 0.951 . S
C230 C231 1.386 . S
C230 C232 1.383 . S
C230 H246 0.951 . S
C231 C230 1.386 . S
C231 C235 1.383 . S
C232 C230 1.383 . S
C232 C233 1.402 . S
C232 H247 0.951 . S
C233 C232 1.402 . S
C233 C234 1.375 . S
C233 C236 1.481 . S
C234 C233 1.375 . S
C234 C235 1.367 . S
C234 H248 0.951 . S
C235 C231 1.383 . S
C235 C234 1.367 . S
C235 H249 0.950 . S
C236 C233 1.481 . S
C236 C237 1.297 . S
C236 H250 0.950 . S
C237 C236 1.297 . S
C237 C238 1.479 . S
C237 H251 0.950 . S
C238 C237 1.479 . S
C238 C239 1.375 . S
C238 C244 1.404 . S
C239 C238 1.375 . S
C239 C240 1.369 . S
C239 H252 0.950 . S
C240 C239 1.369 . S
C240 C241 1.392 . S
C240 H253 0.951 1_655 S
C241 C240 1.392 . S
C241 C243 1.384 . S
H242 C244 0.949 . S
C243 C241 1.384 . S
C243 C244 1.385 . S
C243 H245 0.950 . S
C244 C238 1.404 . S
C244 H242 0.949 . S
C244 C243 1.385 . S
H245 C243 0.950 . S
H246 C230 0.951 . S
H247 C232 0.951 . S
H248 C234 0.951 . S
H249 C235 0.950 . S
H250 C236 0.950 . S
H251 C237 0.950 . S
H252 C239 0.950 . S
H253 C240 0.951 1_455 S
C254 C255 1.386 . S
C254 C256 1.383 . S
C254 H270 0.951 . S
C255 C254 1.386 . S
C255 C259 1.383 . S
C256 C254 1.383 . S
C256 C257 1.402 . S
C256 H271 0.951 . S
C257 C256 1.402 . S
C257 C258 1.375 . S
C257 C260 1.481 . S
C258 C257 1.375 . S
C258 C259 1.367 . S
C258 H272 0.951 . S
C259 C255 1.383 . S
C259 C258 1.367 . S
C259 H273 0.950 . S
C260 C257 1.481 . S
C260 C261 1.297 . S
C260 H274 0.950 . S
C261 C260 1.297 . S
C261 C262 1.479 . S
C261 H275 0.950 . S
C262 C261 1.479 . S
C262 C263 1.375 . S
C262 C268 1.404 . S
C263 C262 1.375 . S
C263 C264 1.369 . S
C263 H276 0.950 . S
C264 C263 1.369 . S
C264 C265 1.392 . S
C264 H277 0.951 . S
C265 C264 1.392 . S
C265 C267 1.384 . S
H266 C268 0.949 . S
C267 C265 1.384 . S
C267 C268 1.385 . S
C267 H269 0.950 . S
C268 C262 1.404 . S
C268 H266 0.949 . S
C268 C267 1.385 . S
H269 C267 0.950 . S
H270 C254 0.951 . S
H271 C256 0.951 . S
H272 C258 0.951 . S
H273 C259 0.950 . S
H274 C260 0.950 . S
H275 C261 0.950 . S
H276 C263 0.950 . S
H277 C264 0.951 . S
C278 C279 1.386 . S
C278 C280 1.383 . S
C278 H294 0.951 . S
C279 C278 1.386 . S
C279 C283 1.383 . S
C280 C278 1.383 . S
C280 C281 1.402 . S
C280 H295 0.951 . S
C281 C280 1.402 . S
C281 C282 1.375 . S
C281 C284 1.481 . S
C282 C281 1.375 . S
C282 C283 1.367 . S
C282 H296 0.951 . S
C283 C279 1.383 . S
C283 C282 1.367 . S
C283 H297 0.950 . S
C284 C281 1.481 . S
C284 C285 1.297 . S
C284 H298 0.950 . S
C285 C284 1.297 . S
C285 C286 1.479 . S
C285 H299 0.950 . S
C286 C285 1.479 . S
C286 C287 1.375 . S
C286 C292 1.404 . S
C287 C286 1.375 . S
C287 C288 1.369 . S
C287 H300 0.950 . S
C288 C287 1.369 . S
C288 C289 1.392 . S
C288 H301 0.951 . S
C289 C288 1.392 . S
C289 C291 1.384 . S
H290 C292 0.949 . S
C291 C289 1.384 . S
C291 C292 1.385 . S
C291 H293 0.950 . S
C292 C286 1.404 . S
C292 H290 0.949 . S
C292 C291 1.385 . S
H293 C291 0.950 . S
H294 C278 0.951 . S
H295 C280 0.951 . S
H296 C282 0.951 . S
H297 C283 0.950 . S
H298 C284 0.950 . S
H299 C285 0.950 . S
H300 C287 0.950 . S
H301 C288 0.951 . S
C302 C303 1.386 . S
C302 C304 1.383 . S
C302 H318 0.951 . S
C303 C302 1.386 . S
C303 C307 1.383 . S
C304 C302 1.383 . S
C304 C305 1.402 . S
C304 H319 0.951 . S
C305 C304 1.402 . S
C305 C306 1.375 . S
C305 C308 1.481 . S
C306 C305 1.375 . S
C306 C307 1.367 . S
C306 H320 0.951 . S
C307 C303 1.383 . S
C307 C306 1.367 . S
C307 H321 0.950 . S
C308 C305 1.481 . S
C308 C309 1.297 . S
C308 H322 0.950 . S
C309 C308 1.297 . S
C309 C310 1.479 . S
C309 H323 0.950 . S
C310 C309 1.479 . S
C310 C311 1.375 . S
C310 C316 1.404 . S
C311 C310 1.375 . S
C311 C312 1.369 . S
C311 H324 0.950 . S
C312 C311 1.369 . S
C312 C313 1.392 . S
C312 H325 0.951 . S
C313 C312 1.392 . S
C313 C315 1.384 . S
H314 C316 0.949 . S
C315 C313 1.384 . S
C315 C316 1.385 . S
C315 H317 0.950 . S
C316 C310 1.404 . S
C316 H314 0.949 . S
C316 C315 1.385 . S
H317 C315 0.950 . S
H318 C302 0.951 . S
H319 C304 0.951 . S
H320 C306 0.951 . S
H321 C307 0.950 . S
H322 C308 0.950 . S
H323 C309 0.950 . S
H324 C311 0.950 . S
H325 C312 0.951 . S
C326 C327 1.386 . S
C326 C328 1.383 . S
C326 H342 0.951 . S
C327 C326 1.386 . S
C327 C331 1.383 . S
C328 C326 1.383 . S
C328 C329 1.402 . S
C328 H343 0.951 . S
C329 C328 1.402 . S
C329 C330 1.375 . S
C329 C332 1.481 . S
C330 C329 1.375 . S
C330 C331 1.367 . S
C330 H344 0.951 . S
C331 C327 1.383 . S
C331 C330 1.367 . S
C331 H345 0.950 . S
C332 C329 1.481 . S
C332 C333 1.297 . S
C332 H346 0.950 . S
C333 C332 1.297 . S
C333 C334 1.479 . S
C333 H347 0.950 . S
C334 C333 1.479 . S
C334 C335 1.375 . S
C334 C340 1.404 . S
C335 C334 1.375 . S
C335 C336 1.369 . S
C335 H348 0.950 . S
C336 C335 1.369 . S
C336 C337 1.392 . S
C336 H349 0.951 . S
C337 C336 1.392 . S
C337 C339 1.384 . S
H338 C340 0.949 . S
C339 C337 1.384 . S
C339 C340 1.385 . S
C339 H341 0.950 . S
C340 C334 1.404 . S
C340 H338 0.949 . S
C340 C339 1.385 . S
H341 C339 0.950 . S
H342 C326 0.951 . S
H343 C328 0.951 . S
H344 C330 0.951 . S
H345 C331 0.950 . S
H346 C332 0.950 . S
H347 C333 0.950 . S
H348 C335 0.950 . S
H349 C336 0.951 . S
C350 C351 1.386 . S
C350 C352 1.383 . S
C350 H366 0.951 . S
C351 C350 1.386 . S
C351 C355 1.383 . S
C352 C350 1.383 . S
C352 C353 1.402 . S
C352 H367 0.951 . S
C353 C352 1.402 . S
C353 C354 1.375 . S
C353 C356 1.481 . S
C354 C353 1.375 . S
C354 C355 1.367 . S
C354 H368 0.951 . S
C355 C351 1.383 . S
C355 C354 1.367 . S
C355 H369 0.950 . S
C356 C353 1.481 . S
C356 C357 1.297 . S
C356 H370 0.950 . S
C357 C356 1.297 . S
C357 C358 1.479 . S
C357 H371 0.950 . S
C358 C357 1.479 . S
C358 C359 1.375 . S
C358 C364 1.404 . S
C359 C358 1.375 . S
C359 C360 1.369 . S
C359 H372 0.950 . S
C360 C359 1.369 . S
C360 C361 1.392 . S
C360 H373 0.951 . S
C361 C360 1.392 . S
C361 C363 1.384 . S
H362 C364 0.949 . S
C363 C361 1.384 . S
C363 C364 1.385 . S
C363 H365 0.950 . S
C364 C358 1.404 . S
C364 H362 0.949 . S
C364 C363 1.385 . S
H365 C363 0.950 . S
H366 C350 0.951 . S
H367 C352 0.951 . S
H368 C354 0.951 . S
H369 C355 0.950 . S
H370 C356 0.950 . S
H371 C357 0.950 . S
H372 C359 0.950 . S
H373 C360 0.951 . S
C97 C60 1.290 . S
C87 N37 1.406 . S
C111 N4 1.449 . S
C121 C81 1.308 . S
C135 N15 1.594 . S
C145 C57 1.429 . S
C159 N26 1.615 . S
C169 C78 1.458 . S
C193 C62 1.480 . S
C183 C9 1.496 . S
C217 C82 1.588 . S
C207 C17 1.617 . S
C231 C31 1.601 . S
C241 C58 1.584 . S
C255 C42 1.516 . S
C265 C80 1.432 . S
C289 C79 1.495 . S
C279 C20 1.505 . S
C313 C61 1.473 . S
C303 C28 1.522 . S
C337 C83 1.361 . S
C327 C39 1.453 . S
C351 C6 1.455 1_556 S
C361 C59 1.341 . S
