# Generated by pormake.
# Topology pyr, (3,6)-cn, num edge types: 1
# Building blocks:
#     Node 0, Type 0, BuildingBlock: PAMTOO_clean_linker_0, # of connection points: 3
#     Node 1, Type 0, BuildingBlock: PAMTOO_clean_linker_0, # of connection points: 3
#     Node 2, Type 0, BuildingBlock: PAMTOO_clean_linker_0, # of connection points: 3
#     Node 3, Type 0, BuildingBlock: PAMTOO_clean_linker_0, # of connection points: 3
#     Node 4, Type 0, BuildingBlock: PAMTOO_clean_linker_0, # of connection points: 3
#     Node 5, Type 0, BuildingBlock: PAMTOO_clean_linker_0, # of connection points: 3
#     Node 6, Type 0, BuildingBlock: PAMTOO_clean_linker_0, # of connection points: 3
#     Node 7, Type 0, BuildingBlock: PAMTOO_clean_linker_0, # of connection points: 3
#     Node 8, Type 1, BuildingBlock: MIDCAF_clean_sbu_0, # of connection points: 6
#     Node 9, Type 1, BuildingBlock: MIDCAF_clean_sbu_0, # of connection points: 6
#     Node 10, Type 1, BuildingBlock: MIDCAF_clean_sbu_0, # of connection points: 6
#     Node 11, Type 1, BuildingBlock: MIDCAF_clean_sbu_0, # of connection points: 6
#     Edge 12, Type (0, 1), BuildingBlock: XUDNAN_clean_linker_2, # of connection points: 2
#     Edge 13, Type (0, 1), BuildingBlock: XUDNAN_clean_linker_2, # of connection points: 2
#     Edge 14, Type (0, 1), BuildingBlock: XUDNAN_clean_linker_2, # of connection points: 2
#     Edge 15, Type (0, 1), BuildingBlock: XUDNAN_clean_linker_2, # of connection points: 2
#     Edge 16, Type (0, 1), BuildingBlock: XUDNAN_clean_linker_2, # of connection points: 2
#     Edge 17, Type (0, 1), BuildingBlock: XUDNAN_clean_linker_2, # of connection points: 2
#     Edge 18, Type (0, 1), BuildingBlock: XUDNAN_clean_linker_2, # of connection points: 2
#     Edge 19, Type (0, 1), BuildingBlock: XUDNAN_clean_linker_2, # of connection points: 2
#     Edge 20, Type (0, 1), BuildingBlock: XUDNAN_clean_linker_2, # of connection points: 2
#     Edge 21, Type (0, 1), BuildingBlock: XUDNAN_clean_linker_2, # of connection points: 2
#     Edge 22, Type (0, 1), BuildingBlock: XUDNAN_clean_linker_2, # of connection points: 2
#     Edge 23, Type (0, 1), BuildingBlock: XUDNAN_clean_linker_2, # of connection points: 2
#     Edge 24, Type (0, 1), BuildingBlock: XUDNAN_clean_linker_2, # of connection points: 2
#     Edge 25, Type (0, 1), BuildingBlock: XUDNAN_clean_linker_2, # of connection points: 2
#     Edge 26, Type (0, 1), BuildingBlock: XUDNAN_clean_linker_2, # of connection points: 2
#     Edge 27, Type (0, 1), BuildingBlock: XUDNAN_clean_linker_2, # of connection points: 2
#     Edge 28, Type (0, 1), BuildingBlock: XUDNAN_clean_linker_2, # of connection points: 2
#     Edge 29, Type (0, 1), BuildingBlock: XUDNAN_clean_linker_2, # of connection points: 2
#     Edge 30, Type (0, 1), BuildingBlock: XUDNAN_clean_linker_2, # of connection points: 2
#     Edge 31, Type (0, 1), BuildingBlock: XUDNAN_clean_linker_2, # of connection points: 2
#     Edge 32, Type (0, 1), BuildingBlock: XUDNAN_clean_linker_2, # of connection points: 2
#     Edge 33, Type (0, 1), BuildingBlock: XUDNAN_clean_linker_2, # of connection points: 2
#     Edge 34, Type (0, 1), BuildingBlock: XUDNAN_clean_linker_2, # of connection points: 2
#     Edge 35, Type (0, 1), BuildingBlock: XUDNAN_clean_linker_2, # of connection points: 2
# Relax obj value: 0.095
# Max RMSD: 0.201
# Mean RMSD: 0.141
data_MOF--net-pyr--node1-MIDCAF_clean_sbu_0--node2-PAMTOO_clean_linker_0--edge1-XUDNAN_clean_linker_2
_symmetry_space_group_name_H-M    P1
_symmetry_Int_Tables_number       1
_symmetry_cell_setting            triclinic
loop_
_symmetry_equiv_pos_as_xyz
'x, y, z'
_cell_length_a     34.638757
_cell_length_b     35.89092
_cell_length_c     35.311627
_cell_angle_alpha  89.797369
_cell_angle_beta   91.239386
_cell_angle_gamma 95.306038
loop_
_atom_site_label
_atom_site_type_symbol
_atom_site_fract_x
_atom_site_fract_y
_atom_site_fract_z
_atom_type_partial_charge
H0 H 0.1915 0.2633 0.2658 0.0
H1 H 0.28361 0.19569 0.29559 0.0
H2 H 0.2907 0.25926 0.19345 0.0
H3 H 0.29611 0.16886 0.19881 0.0
C4 C 0.32176 0.17428 0.21823 0.0
O5 O 0.32261 0.20963 0.23399 0.0
H6 H 0.31921 0.15324 0.24145 0.0
C7 C 0.21929 0.25368 0.2593 0.0
C8 C 0.23875 0.26571 0.22585 0.0
C9 C 0.23573 0.22919 0.28504 0.0
C10 C 0.27103 0.21522 0.27652 0.0
C11 C 0.28969 0.22508 0.2428 0.0
C12 C 0.27422 0.2508 0.21818 0.0
H13 H 0.29049 0.87936 0.76277 0.0
H14 H 0.26898 0.79679 0.67415 0.0
H15 H 0.35905 0.78586 0.75748 0.0
H16 H 0.38042 0.78091 0.67746 0.0
C17 C 0.354 0.76418 0.66618 0.0
O18 O 0.32687 0.75878 0.69427 0.0
H19 H 0.34201 0.78057 0.64258 0.0
C20 C 0.29633 0.85342 0.74937 0.0
C21 C 0.3261 0.8335 0.76458 0.0
C22 C 0.27481 0.84051 0.71689 0.0
C23 C 0.28463 0.80752 0.69927 0.0
C24 C 0.31532 0.78826 0.71352 0.0
C25 C 0.33534 0.80079 0.74664 0.0
H26 H 0.81583 0.26682 0.86924 0.0
H27 H 0.72303 0.23894 0.7886 0.0
H28 H 0.80402 0.33368 0.76866 0.0
H29 H 0.70536 0.32711 0.77182 0.0
C30 C 0.70679 0.3107 0.74523 0.0
O31 O 0.74146 0.29455 0.74347 0.0
H32 H 0.68268 0.28799 0.74538 0.0
C33 C 0.80132 0.27216 0.84267 0.0
C34 C 0.81473 0.30336 0.82065 0.0
C35 C 0.76831 0.24852 0.83179 0.0
C36 C 0.74921 0.25578 0.79739 0.0
C37 C 0.76195 0.28661 0.7751 0.0
C38 C 0.79466 0.31014 0.78651 0.0
H39 H 0.7912 0.7735 0.35411 0.0
H40 H 0.82056 0.6834 0.28313 0.0
H41 H 0.90134 0.77891 0.2989 0.0
H42 H 0.90189 0.75799 0.22033 0.0
C43 C 0.88325 0.73118 0.22246 0.0
O44 O 0.88431 0.71855 0.2595 0.0
H45 H 0.85302 0.73638 0.21401 0.0
C46 C 0.81184 0.76084 0.33696 0.0
C47 C 0.84833 0.78044 0.33069 0.0
C48 C 0.80195 0.72469 0.32214 0.0
C49 C 0.8269 0.71076 0.29573 0.0
C50 C 0.86152 0.7315 0.28618 0.0
C51 C 0.87298 0.76522 0.30479 0.0
H52 H 0.89079 0.94757 0.8531 0.0
H53 H 0.88336 0.88509 0.95748 0.0
H54 H 0.97103 0.86525 0.87839 0.0
H55 H 0.91101 0.80013 0.91625 0.0
C56 C 0.92007 0.81014 0.94522 0.0
O57 O 0.94024 0.84512 0.94337 0.0
H58 H 0.89321 0.81197 0.96156 0.0
C59 C 0.90183 0.92714 0.87216 0.0
C60 C 0.93397 0.90827 0.86164 0.0
C61 C 0.88276 0.91854 0.90636 0.0
C62 C 0.89703 0.89166 0.93065 0.0
C63 C 0.92827 0.87216 0.92027 0.0
C64 C 0.94657 0.8803 0.88582 0.0
H65 H 0.695 0.08169 0.33824 0.0
H66 H 0.62686 0.1722 0.36639 0.0
H67 H 0.724 0.14966 0.43688 0.0
H68 H 0.66709 0.173 0.48132 0.0
C69 C 0.6492 0.18792 0.46076 0.0
O70 O 0.66832 0.19267 0.42695 0.0
H71 H 0.62109 0.17067 0.4561 0.0
C72 C 0.68905 0.10441 0.35673 0.0
C73 C 0.71277 0.11226 0.38909 0.0
C74 C 0.65793 0.12596 0.348 0.0
C75 C 0.65074 0.15542 0.3723 0.0
C76 C 0.67448 0.1636 0.40434 0.0
C77 C 0.70548 0.14237 0.41238 0.0
H78 H 0.389 0.64204 0.05576 0.0
H79 H 0.43744 0.58042 0.14781 0.0
H80 H 0.48962 0.68909 0.11825 0.0
H81 H 0.54823 0.64472 0.14919 0.0
C82 C 0.52892 0.62201 0.16231 0.0
O83 O 0.49206 0.63313 0.16492 0.0
H84 H 0.52868 0.59655 0.14432 0.0
C85 C 0.41142 0.63905 0.07717 0.0
C86 C 0.44011 0.66871 0.08344 0.0
C87 C 0.40984 0.60703 0.10058 0.0
C88 C 0.43832 0.60457 0.12923 0.0
C89 C 0.46718 0.63399 0.13514 0.0
C90 C 0.46789 0.66596 0.11251 0.0
H91 H 0.07928 0.35466 0.66898 0.0
H92 H 0.13364 0.46458 0.69587 0.0
H93 H 0.17142 0.40558 0.60051 0.0
H94 H 0.22578 0.44493 0.66786 0.0
C95 C 0.21744 0.47205 0.65626 0.0
O96 O 0.18073 0.46778 0.63979 0.0
H97 H 0.21742 0.49222 0.68006 0.0
C98 C 0.10015 0.37816 0.66276 0.0
C99 C 0.1248 0.37622 0.63176 0.0
C100 C 0.10285 0.40987 0.68621 0.0
C101 C 0.13024 0.44003 0.67791 0.0
C102 C 0.15476 0.43839 0.64722 0.0
C103 C 0.15223 0.40652 0.62425 0.0
Zn104 Zn 0.98888 0.07187 0.57282 0.0
Zn105 Zn 0.07942 0.00169 0.48593 0.0
Zn106 Zn 0.03603 0.03733 0.53297 0.0
C107 C 0.09916 0.0783 0.47576 0.0
C108 C 0.00378 0.97883 0.4659 0.0
O109 O 0.03713 0.01262 0.59165 0.0
O110 O 0.99472 0.04454 0.62048 0.0
C111 C 0.04481 0.12654 0.54887 0.0
O112 O 0.07751 0.08 0.50492 0.0
O113 O 0.10321 0.04727 0.46038 0.0
O114 O 0.03748 0.97109 0.45798 0.0
O115 O 0.99888 0.0036 0.49134 0.0
O116 O 0.01479 0.12271 0.56861 0.0
O117 O 0.0572 0.09787 0.53269 0.0
O118 O 0.9762 0.0298 0.50686 0.0
O119 O 0.94013 0.0613 0.54374 0.0
C120 C 0.94323 0.04181 0.51452 0.0
O121 O 0.06804 1.00021 0.57002 0.0
O122 O 0.1078 0.97872 0.52882 0.0
C123 C 0.01764 0.01919 0.62134 0.0
C124 C 0.09672 0.98108 0.56258 0.0
Zn125 Zn 0.51791 0.05359 0.97055 0.0
Zn126 Zn 0.58086 0.9648 0.06296 0.0
Zn127 Zn 0.54954 0.00842 0.01836 0.0
C128 C 0.63649 0.98342 0.00962 0.0
C129 C 0.51915 0.92204 0.03217 0.0
O130 O 0.52202 0.04993 0.05331 0.0
O131 O 0.49505 0.08414 0.00959 0.0
C132 C 0.59634 0.06384 0.95856 0.0
O133 O 0.61169 0.00712 1.00135 0.0
O134 O 0.62892 0.95922 0.03504 0.0
O135 O 0.54135 0.92228 0.06091 0.0
O136 O 0.51941 0.95105 0.01044 0.0
O137 O 0.56529 0.07561 0.94621 0.0
O138 O 0.59581 0.03829 0.98441 0.0
O139 O 0.50373 0.9748 0.9832 0.0
O140 O 0.48426 0.01601 0.94189 0.0
C141 C 0.48267 0.98286 0.95415 0.0
O142 O 0.54586 0.03053 0.07745 0.0
O143 O 0.58353 0.99465 0.10948 0.0
C144 C 0.50153 0.07696 0.04407 0.0
C145 C 0.56317 0.02202 0.10863 0.0
Zn146 Zn 0.58809 0.56718 0.55575 0.0
Zn147 Zn 0.50356 0.47062 0.46511 0.0
Zn148 Zn 0.54596 0.51791 0.5103 0.0
C149 C 0.55452 0.42865 0.50512 0.0
C150 C 0.53987 0.5246 0.4185 0.0
O151 O 0.50583 0.54934 0.54388 0.0
O152 O 0.54344 0.58978 0.57862 0.0
C153 C 0.60877 0.49492 0.57349 0.0
O154 O 0.56486 0.46096 0.51989 0.0
O155 O 0.52756 0.42506 0.48041 0.0
O156 O 0.51741 0.49489 0.41638 0.0
O157 O 0.55399 0.53637 0.45086 0.0
O158 O 0.61503 0.52866 0.58377 0.0
O159 O 0.58423 0.48564 0.5464 0.0
O160 O 0.58345 0.55552 0.47389 0.0
O161 O 0.61758 0.59344 0.51397 0.0
C162 C 0.6104 0.58212 0.48048 0.0
O163 O 0.48409 0.51987 0.52443 0.0
O164 O 0.45262 0.47905 0.48518 0.0
C165 C 0.50991 0.57652 0.56794 0.0
C166 C 0.45221 0.50251 0.51164 0.0
Zn167 Zn 0.10696 0.54354 0.97426 0.0
Zn168 Zn 0.01485 0.46039 0.07097 0.0
Zn169 Zn 0.06343 0.50576 0.02303 0.0
C170 C 0.09335 0.44807 0.08739 0.0
C171 C 0.99569 0.44273 0.99421 0.0
O172 O 0.05096 0.56574 0.0276 0.0
O173 O 0.08934 0.59289 0.9843 0.0
C174 C 0.15675 0.51187 0.02602 0.0
O175 O 0.09988 0.4731 0.06135 0.0
O176 O 0.05905 0.43797 0.09715 0.0
O177 O 0.98564 0.43294 0.02728 0.0
O178 O 0.02387 0.46808 0.98908 0.0
O179 O 0.15695 0.53126 0.99612 0.0
O180 O 0.1243 0.49953 0.04076 0.0
O181 O 0.05145 0.48449 0.96433 0.0
O182 O 0.08883 0.52004 0.92613 0.0
C183 C 0.06333 0.49313 0.93082 0.0
O184 O 0.02744 0.54293 0.05289 0.0
O185 O 0.99387 0.50575 0.09332 0.0
C186 C 0.06387 0.59515 0.00898 0.0
C187 C 0.00269 0.53794 0.07959 0.0
H188 H 0.16203 0.19542 0.29393 0.0
H189 H 0.26676 0.23467 0.35654 0.0
H190 H 0.23832 0.20813 0.41551 0.0
H191 H 0.09189 0.20689 0.37188 0.0
H192 H 0.0629 0.16436 0.35895 0.0
H193 H 0.08864 0.19194 0.32313 0.0
H194 H 0.12254 0.13396 0.30294 0.0
H195 H 0.09693 0.10631 0.33856 0.0
H196 H 0.14915 0.10936 0.33796 0.0
H197 H 0.20251 0.16998 0.46558 0.0
H198 H 0.16298 0.12168 0.50174 0.0
H199 H 0.08122 0.10717 0.40745 0.0
C200 C 0.17834 0.19943 0.32034 0.0
C201 C 0.21636 0.21748 0.32089 0.0
C202 C 0.23748 0.22113 0.35567 0.0
C203 C 0.22149 0.20629 0.3893 0.0
C204 C 0.18427 0.18782 0.38776 0.0
C205 C 0.1629 0.18439 0.35417 0.0
C206 C 0.12544 0.15968 0.35935 0.0
C207 C 0.09013 0.18206 0.35295 0.0
C208 C 0.12343 0.1253 0.33317 0.0
C209 C 0.12974 0.14869 0.40065 0.0
C210 C 0.16353 0.16578 0.41677 0.0
C211 C 0.1754 0.15734 0.45363 0.0
C212 C 0.1526 0.13022 0.47421 0.0
C213 C 0.11824 0.11217 0.458 0.0
C214 C 0.10659 0.12181 0.42094 0.0
H215 H 0.37366 0.89794 0.7689 0.0
H216 H 0.3294 0.80232 0.83525 0.0
H217 H 0.36504 0.82932 0.89213 0.0
H218 H 0.46979 0.9073 0.8132 0.0
H219 H 0.47401 0.95766 0.81041 0.0
H220 H 0.44508 0.93037 0.77565 0.0
H221 H 0.38581 0.96627 0.7913 0.0
H222 H 0.4145 0.99353 0.8262 0.0
H223 H 0.36985 0.96747 0.8395 0.0
H224 H 0.40197 0.87064 0.94301 0.0
H225 H 0.4413 0.91906 0.98089 0.0
H226 H 0.46602 0.98315 0.8788 0.0
C227 C 0.3717 0.8827 0.79544 0.0
C228 C 0.34882 0.84828 0.79806 0.0
C229 C 0.34695 0.82878 0.83296 0.0
C230 C 0.36696 0.84395 0.86529 0.0
C231 C 0.38913 0.87827 0.8619 0.0
C232 C 0.392 0.89705 0.82763 0.0
C233 C 0.41812 0.93306 0.83103 0.0
C234 C 0.45387 0.93201 0.8061 0.0
C235 C 0.39572 0.96708 0.82145 0.0
C236 C 0.42911 0.93204 0.87266 0.0
C237 C 0.41199 0.90045 0.89024 0.0
C238 C 0.41641 0.89488 0.92922 0.0
C239 C 0.43932 0.9221 0.9505 0.0
C240 C 0.45826 0.9538 0.93263 0.0
C241 C 0.45256 0.95881 0.89327 0.0
H242 H 0.64231 0.31581 0.69915 0.0
H243 H 0.75941 0.36626 0.71979 0.0
H244 H 0.74893 0.41469 0.67166 0.0
H245 H 0.63762 0.33695 0.59551 0.0
H246 H 0.58771 0.34736 0.59666 0.0
H247 H 0.60517 0.31326 0.6288 0.0
H248 H 0.58262 0.34921 0.68623 0.0
H249 H 0.56423 0.3832 0.65474 0.0
H250 H 0.59867 0.39816 0.69188 0.0
H251 H 0.7235 0.4616 0.62857 0.0
H252 H 0.68499 0.50432 0.5921 0.0
H253 H 0.5839 0.4239 0.59802 0.0
C254 C 0.66608 0.3364 0.69257 0.0
C255 C 0.70207 0.33684 0.71235 0.0
C256 C 0.73206 0.36497 0.70418 0.0
C257 C 0.72631 0.39254 0.67695 0.0
C258 C 0.69039 0.39156 0.65818 0.0
C259 C 0.6608 0.36411 0.66539 0.0
C260 C 0.62392 0.37142 0.64367 0.0
C261 C 0.61296 0.34042 0.61441 0.0
C262 C 0.5904 0.37577 0.67076 0.0
C263 C 0.63694 0.40816 0.62447 0.0
C264 C 0.67556 0.41891 0.63288 0.0
C265 C 0.6935 0.45317 0.62115 0.0
C266 C 0.67136 0.4773 0.60066 0.0
C267 C 0.63173 0.46711 0.59197 0.0
C268 C 0.61441 0.43189 0.60359 0.0
H269 H 0.92982 0.67274 0.23662 0.0
H270 H 0.87081 0.72875 0.14631 0.0
H271 H 0.89543 0.68612 0.09948 0.0
H272 H 0.01467 0.6569 0.18454 0.0
H273 H 0.01961 0.61159 0.20529 0.0
H274 H 0.99748 0.64657 0.2316 0.0
H275 H 0.9361 0.60053 0.2403 0.0
H276 H 0.95809 0.56539 0.2141 0.0
H277 H 0.91144 0.57931 0.19919 0.0
H278 H 0.92606 0.63703 0.0626 0.0
H279 H 0.9612 0.58514 0.03843 0.0
H280 H 0.999 0.56061 0.15282 0.0
C281 C 0.92167 0.67579 0.20708 0.0
C282 C 0.89759 0.70353 0.19511 0.0
C283 C 0.88857 0.70717 0.15604 0.0
C284 C 0.90249 0.6832 0.12929 0.0
C285 C 0.92561 0.65578 0.14205 0.0
C286 C 0.93513 0.65193 0.18001 0.0
C287 C 0.96048 0.62016 0.18625 0.0
C288 C 1.00043 0.63469 0.2029 0.0
C289 C 0.94031 0.58954 0.21145 0.0
C290 C 0.9636 0.60667 0.14593 0.0
C291 C 0.94339 0.62768 0.12082 0.0
C292 C 0.94202 0.62044 0.082 0.0
C293 C 0.96208 0.59111 0.06851 0.0
C294 C 0.98306 0.56953 0.0938 0.0
C295 C 0.98343 0.57712 0.13297 0.0
H296 H 0.36427 0.11323 0.21492 0.0
H297 H 0.35739 0.22424 0.16809 0.0
H298 H 0.41023 0.21392 0.12448 0.0
H299 H 0.47266 0.11044 0.20429 0.0
H300 H 0.46711 0.06169 0.19146 0.0
H301 H 0.43371 0.07986 0.22362 0.0
H302 H 0.37598 0.05486 0.17997 0.0
H303 H 0.40911 0.03669 0.14781 0.0
H304 H 0.37541 0.06864 0.13081 0.0
H305 H 0.45664 0.18904 0.08082 0.0
H306 H 0.49289 0.15095 0.03872 0.0
H307 H 0.4709 0.05535 0.11314 0.0
C308 C 0.37494 0.1358 0.19639 0.0
C309 C 0.35765 0.17005 0.19566 0.0
C310 C 0.37105 0.19832 0.16985 0.0
C311 C 0.40103 0.19266 0.14502 0.0
C312 C 0.41729 0.15851 0.14626 0.0
C313 C 0.40495 0.13057 0.17143 0.0
C314 C 0.42455 0.09512 0.16422 0.0
C315 C 0.45107 0.08626 0.19791 0.0
C316 C 0.39446 0.06189 0.15515 0.0
C317 C 0.44823 0.10689 0.12984 0.0
C318 C 0.44416 0.14383 0.12052 0.0
C319 C 0.46062 0.16035 0.08825 0.0
C320 C 0.48104 0.13843 0.06443 0.0
C321 C 0.48493 0.10034 0.07287 0.0
C322 C 0.46906 0.08462 0.10649 0.0
H323 H 0.25311 0.84937 0.64171 0.0
H324 H 0.22438 0.88112 0.75564 0.0
H325 H 0.17544 0.92011 0.72914 0.0
H326 H 0.24233 0.93555 0.59671 0.0
H327 H 0.22027 0.91521 0.55397 0.0
H328 H 0.25301 0.88965 0.58192 0.0
H329 H 0.20021 0.8339 0.5871 0.0
H330 H 0.16735 0.85921 0.55895 0.0
H331 H 0.1533 0.84175 0.60504 0.0
H332 H 0.13261 0.95984 0.68933 0.0
H333 H 0.09655 0.99223 0.63994 0.0
H334 H 0.14782 0.92829 0.55338 0.0
C335 C 0.23615 0.86381 0.66134 0.0
C336 C 0.24325 0.8622 0.70093 0.0
C337 C 0.22049 0.8824 0.72518 0.0
C338 C 0.19226 0.90447 0.71042 0.0
C339 C 0.18646 0.90569 0.6713 0.0
C340 C 0.2074 0.88544 0.64716 0.0
C341 C 0.19547 0.89127 0.60623 0.0
C342 C 0.22981 0.90898 0.58338 0.0
C343 C 0.17804 0.85433 0.58828 0.0
C344 C 0.16491 0.91835 0.61105 0.0
C345 C 0.16023 0.92658 0.64874 0.0
C346 C 0.13529 0.95277 0.65979 0.0
C347 C 0.11446 0.97072 0.63157 0.0
C348 C 0.11789 0.96179 0.59284 0.0
C349 C 0.14373 0.93531 0.58274 0.0
H350 H 0.87745 0.28824 0.86656 0.0
H351 H 0.82589 0.37997 0.80983 0.0
H352 H 0.87379 0.42463 0.84165 0.0
H353 H 0.88238 0.33061 0.95373 0.0
H354 H 0.92693 0.31267 0.96951 0.0
H355 H 0.89595 0.28702 0.93525 0.0
H356 H 0.95297 0.2879 0.88877 0.0
H357 H 0.98432 0.31343 0.92305 0.0
H358 H 0.97871 0.33194 0.87594 0.0
H359 H 0.92272 0.4601 0.88465 0.0
H360 H 0.96435 0.48337 0.93894 0.0
H361 H 0.97596 0.36935 0.97496 0.0
C362 C 0.87601 0.31763 0.86045 0.0
C363 C 0.84736 0.33013 0.83537 0.0
C364 C 0.84776 0.36909 0.82799 0.0
C365 C 0.87485 0.3949 0.84622 0.0
C366 C 0.90118 0.38156 0.87215 0.0
C367 C 0.90181 0.34381 0.87943 0.0
C368 C 0.92899 0.33692 0.91243 0.0
C369 C 0.90725 0.31556 0.94462 0.0
C370 C 0.96328 0.31633 0.89925 0.0
C371 C 0.94217 0.37676 0.92373 0.0
C372 C 0.92698 0.40206 0.89921 0.0
C373 C 0.9348 0.44054 0.90396 0.0
C374 C 0.95829 0.45348 0.93486 0.0
C375 C 0.97279 0.42804 0.96107 0.0
C376 C 0.96483 0.38924 0.95536 0.0
H377 H 0.76818 0.72856 0.39211 0.0
H378 H 0.75741 0.66531 0.28683 0.0
H379 H 0.70684 0.62199 0.31538 0.0
H380 H 0.75401 0.65631 0.45557 0.0
H381 H 0.72472 0.68027 0.48739 0.0
H382 H 0.75973 0.70666 0.45861 0.0
H383 H 0.70608 0.74491 0.43031 0.0
H384 H 0.6709 0.71907 0.4595 0.0
H385 H 0.66319 0.72072 0.4089 0.0
H386 H 0.66356 0.5807 0.35959 0.0
H387 H 0.62409 0.5516 0.4112 0.0
H388 H 0.6547 0.64911 0.48141 0.0
C389 C 0.75466 0.70663 0.37405 0.0
C390 C 0.76768 0.70075 0.33693 0.0
C391 C 0.74923 0.67034 0.31561 0.0
C392 C 0.72004 0.64562 0.33146 0.0
C393 C 0.70866 0.65219 0.36828 0.0
C394 C 0.72471 0.68261 0.3888 0.0
C395 C 0.70721 0.68405 0.42758 0.0
C396 C 0.73827 0.68167 0.45912 0.0
C397 C 0.68555 0.71927 0.4318 0.0
C398 C 0.67943 0.64906 0.42614 0.0
C399 C 0.68097 0.63069 0.39195 0.0
C400 C 0.66091 0.59567 0.38582 0.0
C401 C 0.63817 0.57952 0.41514 0.0
C402 C 0.63431 0.59903 0.44945 0.0
C403 C 0.65577 0.63404 0.45499 0.0
H404 H 0.18819 0.31994 0.24133 0.0
H405 H 0.25096 0.27559 0.14861 0.0
H406 H 0.22794 0.32341 0.10643 0.0
H407 H 0.10378 0.33132 0.18397 0.0
H408 H 0.09213 0.37256 0.20867 0.0
H409 H 0.11786 0.33803 0.2331 0.0
H410 H 0.17265 0.3894 0.25125 0.0
H411 H 0.1473 0.42398 0.22631 0.0
H412 H 0.19653 0.41724 0.2145 0.0
H413 H 0.19782 0.37672 0.07325 0.0
H414 H 0.15335 0.4222 0.04959 0.0
H415 H 0.10314 0.42536 0.16075 0.0
C416 C 0.19713 0.31964 0.21221 0.0
C417 C 0.2227 0.29386 0.19931 0.0
C418 C 0.23309 0.29554 0.16049 0.0
C419 C 0.21982 0.32264 0.13586 0.0
C420 C 0.19521 0.34763 0.1498 0.0
C421 C 0.18315 0.34571 0.18682 0.0
C422 C 0.15327 0.37317 0.19368 0.0
C423 C 0.11446 0.35254 0.20554 0.0
C424 C 0.16835 0.40269 0.22319 0.0
C425 C 0.15011 0.39048 0.15461 0.0
C426 C 0.1754 0.37617 0.12996 0.0
C427 C 0.17781 0.38801 0.0923 0.0
C428 C 0.15269 0.41407 0.07916 0.0
C429 C 0.12499 0.42734 0.10337 0.0
C430 C 0.12423 0.4158 0.14171 0.0
H431 H 0.7284 0.18031 0.81319 0.0
H432 H 0.76924 0.24889 0.90988 0.0
H433 H 0.73972 0.2013 0.95272 0.0
H434 H 0.63686 0.1587 0.84833 0.0
H435 H 0.63013 0.1118 0.82969 0.0
H436 H 0.66193 0.14669 0.80649 0.0
H437 H 0.71812 0.10389 0.81287 0.0
H438 H 0.68634 0.06888 0.83632 0.0
H439 H 0.7314 0.0867 0.85894 0.0
H440 H 0.69948 0.15129 0.98534 0.0
H441 H 0.64598 0.10523 0.00464 0.0
H442 H 0.62563 0.07182 0.88766 0.0
C443 C 0.73163 0.18528 0.84334 0.0
C444 C 0.75221 0.21831 0.85778 0.0
C445 C 0.75525 0.2234 0.89765 0.0
C446 C 0.73829 0.19649 0.92246 0.0
C447 C 0.71784 0.16469 0.90722 0.0
C448 C 0.71406 0.15909 0.86858 0.0
C449 C 0.68588 0.1253 0.85946 0.0
C450 C 0.65168 0.1363 0.83454 0.0
C451 C 0.70669 0.09436 0.84079 0.0
C452 C 0.6731 0.11394 0.89893 0.0
C453 C 0.69289 0.13632 0.92613 0.0
C454 C 0.68434 0.13305 0.96444 0.0
C455 C 0.65407 0.10687 0.97517 0.0
C456 C 0.63277 0.08455 0.94765 0.0
C457 C 0.64256 0.08784 0.90918 0.0
H458 H 0.90376 0.83901 0.31271 0.0
H459 H 0.82467 0.80018 0.40178 0.0
H460 H 0.84827 0.85415 0.44026 0.0
H461 H 0.98143 0.85846 0.37544 0.0
H462 H 0.00296 0.89836 0.34978 0.0
H463 H 0.97377 0.86189 0.32493 0.0
H464 H 0.92968 0.9108 0.29823 0.0
H465 H 0.95876 0.94746 0.32325 0.0
H466 H 0.90722 0.94071 0.33042 0.0
H467 H 0.88413 0.909 0.4725 0.0
H468 H 0.93558 0.95453 0.49879 0.0
H469 H 0.99726 0.95241 0.39341 0.0
C470 C 0.89095 0.84159 0.3401 0.0
C471 C 0.86129 0.81503 0.35315 0.0
C472 C 0.84595 0.82042 0.3896 0.0
C473 C 0.85945 0.8511 0.41216 0.0
C474 C 0.88901 0.87609 0.39859 0.0
C475 C 0.90503 0.87135 0.36365 0.0
C476 C 0.94045 0.89878 0.35817 0.0
C477 C 0.97679 0.87813 0.35172 0.0
C478 C 0.9336 0.92606 0.32558 0.0
C479 C 0.94257 0.91866 0.39604 0.0
C480 C 0.91182 0.90607 0.41842 0.0
C481 C 0.9082 0.91931 0.45514 0.0
C482 C 0.93744 0.94524 0.4698 0.0
C483 C 0.97017 0.95694 0.44803 0.0
C484 C 0.97235 0.94398 0.4105 0.0
H485 H 0.41157 0.72264 0.69295 0.0
H486 H 0.32221 0.72377 0.6054 0.0
H487 H 0.34726 0.66909 0.57488 0.0
H488 H 0.48574 0.70546 0.63588 0.0
H489 H 0.50915 0.67471 0.66763 0.0
H490 H 0.48004 0.70895 0.68635 0.0
H491 H 0.4378 0.65679 0.7213 0.0
H492 H 0.46709 0.6223 0.70286 0.0
H493 H 0.4153 0.61736 0.69492 0.0
H494 H 0.38896 0.62205 0.54816 0.0
H495 H 0.44207 0.58523 0.52901 0.0
H496 H 0.50298 0.61248 0.63517 0.0
C497 C 0.39668 0.71057 0.66799 0.0
C498 C 0.36515 0.72737 0.65132 0.0
C499 C 0.34645 0.71121 0.61848 0.0
C500 C 0.36045 0.68016 0.60105 0.0
C501 C 0.39274 0.66519 0.61722 0.0
C502 C 0.41024 0.67951 0.65034 0.0
C503 C 0.44649 0.66054 0.66013 0.0
C504 C 0.48246 0.68912 0.66261 0.0
C505 C 0.44135 0.6379 0.697 0.0
C506 C 0.44792 0.63492 0.62629 0.0
C507 C 0.41631 0.63746 0.60218 0.0
C508 C 0.41319 0.61896 0.56741 0.0
C509 C 0.44334 0.59775 0.55688 0.0
C510 C 0.47596 0.59478 0.58117 0.0
C511 C 0.47792 0.61343 0.61643 0.0
H512 H 0.95279 0.97781 0.83117 0.0
H513 H 0.95995 0.85979 0.80961 0.0
H514 H 0.99056 0.87552 0.74819 0.0
H515 H 0.92607 0.00208 0.73897 0.0
H516 H 0.95358 0.04724 0.73969 0.0
H517 H 0.93615 0.02641 0.78318 0.0
H518 H 0.00633 0.03249 0.81108 0.0
H519 H 0.02401 0.05307 0.7674 0.0
H520 H 0.04406 0.01208 0.78617 0.0
H521 H 0.01475 0.90464 0.68555 0.0
H522 H 0.02768 0.944 0.62842 0.0
H523 H 0.00587 0.04223 0.69272 0.0
C524 C 0.96096 0.95523 0.81366 0.0
C525 C 0.95394 0.91756 0.82531 0.0
C526 C 0.96542 0.88892 0.80157 0.0
C527 C 0.98281 0.89758 0.76658 0.0
C528 C 0.98898 0.93507 0.75583 0.0
C529 C 0.97849 0.96339 0.77887 0.0
C530 C 0.98604 1.00124 0.76017 0.0
C531 C 0.94822 0.02034 0.7552 0.0
C532 C 0.01695 0.02618 0.78255 0.0
C533 C 1.00123 0.98983 0.72248 0.0
C534 C 0.00326 0.95163 0.72046 0.0
C535 C 0.01391 0.93465 0.68713 0.0
C536 C 0.02149 0.9572 0.65487 0.0
C537 C 0.0184 0.99622 0.65629 0.0
C538 C 0.00908 0.01256 0.69089 0.0
H539 H 0.62911 0.05767 0.31994 0.0
H540 H 0.63285 0.17662 0.29662 0.0
H541 H 0.59773 0.16318 0.23576 0.0
H542 H 0.65031 0.0307 0.23036 0.0
H543 H 0.61908 0.98765 0.23032 0.0
H544 H 0.63829 0.00716 0.27432 0.0
H545 H 0.56846 0.00717 0.29952 0.0
H546 H 0.54905 0.98778 0.25529 0.0
H547 H 0.5329 0.03068 0.27286 0.0
H548 H 0.57083 0.13604 0.17306 0.0
H549 H 0.5576 0.09791 0.11507 0.0
H550 H 0.57008 0.9973 0.1806 0.0
C551 C 0.62204 0.08093 0.3023 0.0
C552 C 0.63369 0.11818 0.31309 0.0
C553 C 0.62377 0.14784 0.28921 0.0
C554 C 0.6038 0.14048 0.25457 0.0
C555 C 0.59343 0.10332 0.24441 0.0
C556 C 0.60203 0.07407 0.26783 0.0
C557 C 0.59117 0.03664 0.24915 0.0
C558 C 0.62683 0.01426 0.24583 0.0
C559 C 0.55844 0.01425 0.27048 0.0
C560 C 0.57701 0.04931 0.21082 0.0
C561 C 0.57768 0.08782 0.20869 0.0
C562 C 0.56931 0.10583 0.17472 0.0
C563 C 0.56146 0.08397 0.14192 0.0
C564 C 0.56219 0.04465 0.14348 0.0
C565 C 0.5688 0.02729 0.17867 0.0
H566 H 0.53393 0.5539 0.19662 0.0
H567 H 0.553 0.67319 0.2168 0.0
H568 H 0.56533 0.66124 0.28494 0.0
H569 H 0.48202 0.53147 0.27551 0.0
H570 H 0.5018 0.4877 0.28556 0.0
H571 H 0.501 0.50521 0.23784 0.0
H572 H 0.5753 0.5022 0.23385 0.0
H573 H 0.57629 0.48413 0.28153 0.0
H574 H 0.60701 0.52552 0.26929 0.0
H575 H 0.56439 0.63649 0.35158 0.0
H576 H 0.55499 0.60055 0.41112 0.0
H577 H 0.54017 0.49735 0.34679 0.0
C578 C 0.54214 0.57736 0.21522 0.0
C579 C 0.54337 0.61441 0.20165 0.0
C580 C 0.5528 0.64461 0.22683 0.0
C581 C 0.55975 0.63807 0.26545 0.0
C582 C 0.55746 0.60115 0.27819 0.0
C583 C 0.54951 0.57127 0.2537 0.0
C584 C 0.54559 0.53447 0.27486 0.0
C585 C 0.50521 0.51351 0.26804 0.0
C586 C 0.57799 0.51015 0.26425 0.0
C587 C 0.55081 0.54838 0.31516 0.0
C588 C 0.55795 0.58688 0.31657 0.0
C589 C 0.56 0.60625 0.35084 0.0
C590 C 0.55469 0.58566 0.38448 0.0
C591 C 0.54807 0.54617 0.38353 0.0
C592 C 0.54616 0.52747 0.34839 0.0
H593 H 0.06909 0.46951 0.71439 0.0
H594 H 0.08514 0.35314 0.73721 0.0
H595 H 0.05791 0.35893 0.80058 0.0
H596 H 0.10682 0.50167 0.79504 0.0
H597 H 0.07546 0.53829 0.80231 0.0
H598 H 0.08275 0.52211 0.75534 0.0
H599 H 0.00851 0.50712 0.7456 0.0
H600 H 1.001 0.52345 0.7929 0.0
H601 H 0.98173 0.47708 0.7788 0.0
H602 H 0.04441 0.38069 0.8656 0.0
H603 H 0.0508 0.41695 0.92523 0.0
H604 H 0.04716 0.51973 0.86137 0.0
C605 C 0.06576 0.44493 0.73231 0.0
C606 C 0.07924 0.41093 0.7208 0.0
C607 C 0.07442 0.37937 0.74505 0.0
C608 C 0.05891 0.38241 0.78119 0.0
C609 C 0.04804 0.41706 0.79257 0.0
C610 C 0.05099 0.44774 0.76857 0.0
C611 C 0.04465 0.48334 0.78937 0.0
C612 C 0.07949 0.51304 0.78529 0.0
C613 C 0.0067 0.49864 0.77586 0.0
C614 C 0.04131 0.46854 0.8294 0.0
C615 C 0.04146 0.43001 0.83059 0.0
C616 C 0.04324 0.41071 0.86493 0.0
C617 C 0.04682 0.43146 0.89868 0.0
C618 C 0.04925 0.47096 0.89755 0.0
C619 C 0.04484 0.48945 0.86273 0.0
H620 H 0.81614 0.88411 0.93545 0.0
H621 H 0.8685 0.99269 0.8999 0.0
H622 H 0.8097 0.02157 0.91938 0.0
H623 H 0.71734 0.8978 0.90643 0.0
H624 H 0.69679 0.87254 0.94652 0.0
H625 H 0.74205 0.86071 0.92781 0.0
H626 H 0.77493 0.8708 0.9941 0.0
H627 H 0.72981 0.88263 0.01301 0.0
H628 H 0.77273 0.91484 0.01799 0.0
H629 H 0.74596 0.03883 0.94758 0.0
H630 H 0.68385 0.04191 0.9803 0.0
H631 H 0.67367 0.92185 0.99487 0.0
C632 C 0.81536 0.914 0.93178 0.0
C633 C 0.84706 0.93619 0.91636 0.0
C634 C 0.84448 0.9751 0.91144 0.0
C635 C 0.81126 0.99174 0.92254 0.0
C636 C 0.78075 0.96902 0.93819 0.0
C637 C 0.78255 0.93092 0.94254 0.0
C638 C 0.74651 0.91258 0.96081 0.0
C639 C 0.72437 0.88424 0.93377 0.0
C640 C 0.75661 0.89414 0.99872 0.0
C641 C 0.72429 0.94634 0.96674 0.0
C642 C 0.74426 0.97868 0.9534 0.0
C643 C 0.72981 0.01348 0.95735 0.0
C644 C 0.69415 0.01508 0.97539 0.0
C645 C 0.67322 0.98225 0.98895 0.0
C646 C 0.68874 0.94752 0.98446 0.0
H647 H 0.73276 0.08597 0.45867 0.0
H648 H 0.76771 0.08906 0.34151 0.0
H649 H 0.82705 0.05922 0.35981 0.0
H650 H 0.82136 0.114 0.49696 0.0
H651 H 0.81686 0.08514 0.53881 0.0
H652 H 0.77416 0.09927 0.51522 0.0
H653 H 0.74696 0.02974 0.5086 0.0
H654 H 0.78985 0.01538 0.53217 0.0
H655 H 0.7755 0.99699 0.48602 0.0
H656 H 0.88762 0.03894 0.39288 0.0
H657 H 0.94304 0.03259 0.43713 0.0
H658 H 0.86754 0.04243 0.53213 0.0
C659 C 0.75251 0.07965 0.43672 0.0
C660 C 0.74565 0.08981 0.39869 0.0
C661 C 0.77215 0.08108 0.37078 0.0
C662 C 0.80593 0.06414 0.38093 0.0
C663 C 0.81245 0.0556 0.41901 0.0
C664 C 0.78616 0.06281 0.44638 0.0
C665 C 0.80151 0.05509 0.48574 0.0
C666 C 0.80361 0.09047 0.51061 0.0
C667 C 0.77699 0.02234 0.50421 0.0
C668 C 0.84143 0.04435 0.47656 0.0
C669 C 0.84707 0.0439 0.43792 0.0
C670 C 0.88318 0.03833 0.42313 0.0
C671 C 0.9145 0.0345 0.44846 0.0
C672 C 0.90946 0.03655 0.48805 0.0
C673 C 0.87213 0.04022 0.50201 0.0
H674 H 0.37618 0.57534 0.03625 0.0
H675 H 0.36634 0.5759 0.15836 0.0
H676 H 0.30394 0.53697 0.15289 0.0
H677 H 0.28467 0.5906 0.0157 0.0
H678 H 0.27809 0.5612 0.97434 0.0
H679 H 0.32582 0.5804 0.98843 0.0
H680 H 0.34879 0.51366 0.99115 0.0
H681 H 0.30078 0.49418 0.97707 0.0
H682 H 0.3233 0.47823 0.01991 0.0
H683 H 0.23682 0.5108 0.13353 0.0
H684 H 0.17228 0.50117 0.10191 0.0
H685 H 0.22647 0.5153 0.99269 0.0
C686 C 0.36143 0.56622 0.06185 0.0
C687 C 0.37616 0.5784 0.09767 0.0
C688 C 0.35592 0.56631 0.13062 0.0
C689 C 0.32042 0.54416 0.12779 0.0
C690 C 0.30587 0.53377 0.09187 0.0
C691 C 0.32611 0.54399 0.05948 0.0
C692 C 0.30216 0.5338 0.02412 0.0
C693 C 0.29739 0.56856 0.99924 0.0
C694 C 0.31981 0.50314 1.00175 0.0
C695 C 0.26432 0.51892 0.04161 0.0
C696 C 0.26717 0.5181 0.08071 0.0
C697 C 0.23449 0.51018 0.10292 0.0
C698 C 0.1979 0.50455 0.08475 0.0
C699 C 0.19447 0.50718 0.04488 0.0
C700 C 0.22831 0.51267 0.02323 0.0
H701 H 0.29406 0.4923 0.67043 0.0
H702 H 0.20886 0.48194 0.57815 0.0
H703 H 0.26005 0.49952 0.53276 0.0
H704 H 0.35902 0.57123 0.62681 0.0
H705 H 0.40251 0.55223 0.64389 0.0
H706 H 0.35879 0.54584 0.67092 0.0
H707 H 0.36172 0.47402 0.67039 0.0
H708 H 0.40561 0.47996 0.64395 0.0
H709 H 0.36462 0.45025 0.62577 0.0
H710 H 0.31984 0.50876 0.49665 0.0
H711 H 0.38552 0.50707 0.4717 0.0
H712 H 0.43368 0.51112 0.58611 0.0
C713 C 0.28619 0.49485 0.64074 0.0
C714 C 0.24742 0.48632 0.62805 0.0
C715 C 0.23815 0.48882 0.58887 0.0
C716 C 0.26707 0.49901 0.56276 0.0
C717 C 0.30506 0.50673 0.57615 0.0
C718 C 0.31479 0.50496 0.61423 0.0
C719 C 0.35844 0.51037 0.62055 0.0
C720 C 0.37039 0.54709 0.6418 0.0
C721 C 0.37346 0.47663 0.64137 0.0
C722 C 0.37167 0.51283 0.57993 0.0
C723 C 0.34029 0.51177 0.55491 0.0
C724 C 0.34468 0.51041 0.51588 0.0
C725 C 0.38201 0.50925 0.50201 0.0
C726 C 0.41443 0.50935 0.52706 0.0
C727 C 0.40933 0.5119 0.56646 0.0
H728 H 0.9653 0.76205 0.91121 0.0
H729 H 0.92957 0.79632 0.02152 0.0
H730 H 0.96581 0.74716 0.05188 0.0
H731 H 0.95431 0.66551 0.92874 0.0
H732 H 0.99553 0.65534 0.9016 0.0
H733 H 0.96991 0.69528 0.88968 0.0
H734 H 0.03393 0.73858 0.89638 0.0
H735 H 0.05979 0.69867 0.90822 0.0
H736 H 0.06218 0.73817 0.93984 0.0
H737 H 0.00391 0.6906 0.06927 0.0
H738 H 0.03885 0.63293 0.07112 0.0
H739 H 0.04658 0.63682 0.94886 0.0
C740 C 0.9656 0.75949 0.94179 0.0
C741 C 0.94458 0.78261 0.96411 0.0
C742 C 0.94551 0.7786 0.00404 0.0
C743 C 0.966 0.75084 0.02145 0.0
C744 C 0.98567 0.72769 0.99845 0.0
C745 C 0.98569 0.73198 0.95946 0.0
C746 C 0.00715 0.7026 0.94067 0.0
C747 C 0.9801 0.67825 0.9136 0.0
C748 C 0.04289 0.72059 0.92007 0.0
C749 C 0.01876 0.68067 0.97498 0.0
C750 C 0.00656 0.69549 0.00822 0.0
C751 C 0.01359 0.67887 0.04332 0.0
C752 C 0.0331 0.64604 0.04418 0.0
C753 C 0.04482 0.63027 0.01015 0.0
C754 C 0.038 0.64831 0.9754 0.0
H755 H 0.42666 0.73512 0.11309 0.0
H756 H 0.45401 0.68239 0.00831 0.0
H757 H 0.46472 0.74487 0.97777 0.0
H758 H 0.38078 0.81789 0.06889 0.0
H759 H 0.40168 0.84832 0.10593 0.0
H760 H 0.38752 0.79974 0.116 0.0
H761 H 0.457 0.79183 0.14172 0.0
H762 H 0.47128 0.84008 0.13174 0.0
H763 H 0.49779 0.80418 0.11184 0.0
H764 H 0.4856 0.81306 0.96374 0.0
H765 H 0.51436 0.87894 0.96803 0.0
H766 H 0.47126 0.88617 0.08154 0.0
C767 C 0.43347 0.73685 0.08329 0.0
C768 C 0.43927 0.70439 0.06277 0.0
C769 C 0.44898 0.70721 0.02414 0.0
C770 C 0.45501 0.74251 0.00668 0.0
C771 C 0.45044 0.77437 0.02818 0.0
C772 C 0.43926 0.77166 0.06558 0.0
C773 C 0.4411 0.80957 0.08426 0.0
C774 C 0.40034 0.81946 0.09435 0.0
C775 C 0.46843 0.8115 0.11941 0.0
C776 C 0.45751 0.83397 0.05246 0.0
C777 C 0.46192 0.81351 0.01993 0.0
C778 C 0.48114 0.82955 0.9886 0.0
C779 C 0.49729 0.86693 0.99115 0.0
C780 C 0.494 0.88753 0.02477 0.0
C781 C 0.47294 0.87115 0.05515 0.0
H782 H 0.05956 0.33872 0.60129 0.0
H783 H 0.18419 0.33597 0.61043 0.0
H784 H 0.1785 0.27417 0.57878 0.0
H785 H 0.03539 0.24824 0.6255 0.0
H786 H 0.99422 0.24033 0.59349 0.0
H787 H 0.00914 0.28681 0.60993 0.0
H788 H 0.01536 0.30998 0.54049 0.0
H789 H 1.00043 0.26334 0.52378 0.0
H790 H 0.04555 0.28718 0.50856 0.0
H791 H 0.15756 0.20797 0.55729 0.0
H792 H 0.12328 0.14487 0.54779 0.0
H793 H 0.01312 0.19252 0.54966 0.0
C794 C 0.08572 0.32546 0.59578 0.0
C795 C 0.12228 0.34198 0.60819 0.0
C796 C 0.15593 0.32387 0.6007 0.0
C797 C 0.15295 0.28881 0.58275 0.0
C798 C 0.11621 0.27268 0.57186 0.0
C799 C 0.08324 0.29076 0.57768 0.0
C800 C 0.04686 0.26624 0.56697 0.0
C801 C 0.01986 0.26003 0.601 0.0
C802 C 0.02582 0.28267 0.53291 0.0
C803 C 0.06425 0.23075 0.55624 0.0
C804 C 0.10432 0.23503 0.5585 0.0
C805 C 0.12629 0.20464 0.5541 0.0
C806 C 0.10672 0.16895 0.54822 0.0
C807 C 0.06578 0.16413 0.54673 0.0
C808 C 0.04453 0.19562 0.5498 0.0
H809 H 0.5799 0.21597 0.47574 0.0
H810 H 0.70414 0.24448 0.48136 0.0
H811 H 0.69375 0.30813 0.50383 0.0
H812 H 0.55487 0.2991 0.43888 0.0
H813 H 0.51113 0.30074 0.46535 0.0
H814 H 0.52887 0.25645 0.4553 0.0
H815 H 0.52996 0.24086 0.52716 0.0
H816 H 0.5123 0.28538 0.53734 0.0
H817 H 0.55657 0.27283 0.55967 0.0
H818 H 0.66912 0.37088 0.51757 0.0
H819 H 0.63259 0.42698 0.51877 0.0
H820 H 0.52478 0.35627 0.50626 0.0
C821 C 0.60488 0.23542 0.48244 0.0
C822 C 0.6428 0.22557 0.47687 0.0
C823 C 0.67487 0.25174 0.48554 0.0
C824 C 0.66922 0.28776 0.4985 0.0
C825 C 0.63133 0.29687 0.50315 0.0
C826 C 0.59973 0.27127 0.49563 0.0
C827 C 0.56198 0.28873 0.49984 0.0
C828 C 0.53783 0.28611 0.46263 0.0
C829 C 0.53884 0.27088 0.53298 0.0
C830 C 0.5772 0.32862 0.50882 0.0
C831 C 0.61724 0.33275 0.51144 0.0
C832 C 0.63774 0.36783 0.51638 0.0
C833 C 0.61679 0.39952 0.5174 0.0
C834 C 0.5759 0.39578 0.51338 0.0
C835 C 0.55602 0.35979 0.51013 0.0
loop_
_geom_bond_atom_site_label_1
_geom_bond_atom_site_label_2
_geom_bond_distance
_geom_bond_site_symmetry_2
_ccdc_geom_bond_type
H0 C7 0.929 . S
H1 C10 0.930 . S
H2 C12 0.929 . S
H3 C4 0.969 . S
C4 H3 0.969 . S
C4 O5 1.550 . S
C4 H6 0.973 . S
O5 C4 1.550 . S
O5 C11 1.412 . S
H6 C4 0.973 . S
C7 H0 0.929 . S
C7 C8 1.400 . S
C7 C9 1.364 . S
C8 C7 1.400 . S
C8 C12 1.377 . S
C9 C7 1.364 . S
C9 C10 1.374 . S
C10 H1 0.930 . S
C10 C9 1.374 . S
C10 C11 1.383 . S
C11 O5 1.412 . S
C11 C10 1.383 . S
C11 C12 1.394 . S
C12 H2 0.929 . S
C12 C8 1.377 . S
C12 C11 1.394 . S
H13 C20 0.929 . S
H14 C23 0.930 . S
H15 C25 0.929 . S
H16 C17 0.969 . S
C17 H16 0.969 . S
C17 O18 1.550 . S
C17 H19 0.973 . S
O18 C17 1.550 . S
O18 C24 1.412 . S
H19 C17 0.973 . S
C20 H13 0.929 . S
C20 C21 1.400 . S
C20 C22 1.364 . S
C21 C20 1.400 . S
C21 C25 1.377 . S
C22 C20 1.364 . S
C22 C23 1.374 . S
C23 H14 0.930 . S
C23 C22 1.374 . S
C23 C24 1.383 . S
C24 O18 1.412 . S
C24 C23 1.383 . S
C24 C25 1.394 . S
C25 H15 0.929 . S
C25 C21 1.377 . S
C25 C24 1.394 . S
H26 C33 0.929 . S
H27 C36 0.930 . S
H28 C38 0.929 . S
H29 C30 0.969 . S
C30 H29 0.969 . S
C30 O31 1.550 . S
C30 H32 0.973 . S
O31 C30 1.550 . S
O31 C37 1.412 . S
H32 C30 0.973 . S
C33 H26 0.929 . S
C33 C34 1.400 . S
C33 C35 1.364 . S
C34 C33 1.400 . S
C34 C38 1.377 . S
C35 C33 1.364 . S
C35 C36 1.374 . S
C36 H27 0.930 . S
C36 C35 1.374 . S
C36 C37 1.383 . S
C37 O31 1.412 . S
C37 C36 1.383 . S
C37 C38 1.394 . S
C38 H28 0.929 . S
C38 C34 1.377 . S
C38 C37 1.394 . S
H39 C46 0.929 . S
H40 C49 0.930 . S
H41 C51 0.929 . S
H42 C43 0.969 . S
C43 H42 0.969 . S
C43 O44 1.550 . S
C43 H45 0.973 . S
O44 C43 1.550 . S
O44 C50 1.412 . S
H45 C43 0.973 . S
C46 H39 0.929 . S
C46 C47 1.400 . S
C46 C48 1.364 . S
C47 C46 1.400 . S
C47 C51 1.377 . S
C48 C46 1.364 . S
C48 C49 1.374 . S
C49 H40 0.930 . S
C49 C48 1.374 . S
C49 C50 1.383 . S
C50 O44 1.412 . S
C50 C49 1.383 . S
C50 C51 1.394 . S
C51 H41 0.929 . S
C51 C47 1.377 . S
C51 C50 1.394 . S
H52 C59 0.929 . S
H53 C62 0.930 . S
H54 C64 0.929 1_455 S
H55 C56 0.969 . S
C56 H55 0.969 . S
C56 O57 1.550 1_655 S
C56 H58 0.970 . S
O57 C56 1.550 1_455 S
O57 C63 1.412 1_455 S
H58 C56 0.970 . S
C59 H52 0.929 . S
C59 C60 1.400 . S
C59 C61 1.364 . S
C60 C59 1.400 . S
C60 C64 1.377 . S
C61 C59 1.364 . S
C61 C62 1.374 . S
C62 H53 0.930 . S
C62 C61 1.374 . S
C62 C63 1.383 . S
C63 O57 1.412 1_655 S
C63 C62 1.383 . S
C63 C64 1.394 . S
C64 H54 0.929 1_655 S
C64 C60 1.377 . S
C64 C63 1.394 . S
H65 C72 0.929 . S
H66 C75 0.930 . S
H67 C77 0.929 . S
H68 C69 0.969 . S
C69 H68 0.969 . S
C69 O70 1.550 . S
C69 H71 0.973 . S
O70 C69 1.550 . S
O70 C76 1.412 . S
H71 C69 0.973 . S
C72 H65 0.929 . S
C72 C73 1.400 . S
C72 C74 1.364 . S
C73 C72 1.400 . S
C73 C77 1.377 . S
C74 C72 1.364 . S
C74 C75 1.374 . S
C75 H66 0.930 . S
C75 C74 1.374 . S
C75 C76 1.383 . S
C76 O70 1.412 . S
C76 C75 1.383 . S
C76 C77 1.394 . S
C77 H67 0.929 . S
C77 C73 1.377 . S
C77 C76 1.394 . S
H78 C85 0.929 . S
H79 C88 0.930 . S
H80 C90 0.929 . S
H81 C82 0.969 . S
C82 H81 0.969 . S
C82 O83 1.550 . S
C82 H84 0.973 . S
O83 C82 1.550 . S
O83 C89 1.412 . S
H84 C82 0.973 . S
C85 H78 0.929 . S
C85 C86 1.400 . S
C85 C87 1.364 . S
C86 C85 1.400 . S
C86 C90 1.377 . S
C87 C85 1.364 . S
C87 C88 1.374 . S
C88 H79 0.930 . S
C88 C87 1.374 . S
C88 C89 1.383 . S
C89 O83 1.412 . S
C89 C88 1.383 . S
C89 C90 1.394 . S
C90 H80 0.929 . S
C90 C86 1.377 . S
C90 C89 1.394 . S
H91 C98 0.929 . S
H92 C101 0.930 . S
H93 C103 0.929 . S
H94 C95 0.969 . S
C95 H94 0.969 . S
C95 O96 1.550 . S
C95 H97 0.973 . S
O96 C95 1.550 . S
O96 C102 1.412 . S
H97 C95 0.973 . S
C98 H91 0.929 . S
C98 C99 1.400 . S
C98 C100 1.364 . S
C99 C98 1.400 . S
C99 C103 1.377 . S
C100 C98 1.364 . S
C100 C101 1.374 . S
C101 H92 0.930 . S
C101 C100 1.374 . S
C101 C102 1.383 . S
C102 O96 1.412 . S
C102 C101 1.383 . S
C102 C103 1.394 . S
C103 H93 0.929 . S
C103 C99 1.377 . S
C103 C102 1.394 . S
Zn104 O110 1.920 . S
Zn104 O116 1.898 . S
Zn104 O119 1.905 . S
Zn105 O113 1.905 1_565 S
Zn105 O114 1.898 . S
Zn105 O122 1.920 . S
Zn106 O109 2.080 1_455 S
Zn106 O112 2.114 . S
Zn106 O115 2.120 1_445 S
Zn106 O117 2.120 . S
Zn106 O118 2.114 1_455 S
Zn106 O121 2.080 . S
C107 O112 1.166 . S
C107 O113 1.182 . S
C108 O114 1.167 1_655 S
C108 O115 1.299 . S
O109 Zn106 2.080 1_655 S
O109 C123 1.305 . S
O110 Zn104 1.920 . S
O110 C123 1.234 . S
C111 O116 1.167 1_455 S
C111 O117 1.299 . S
O112 Zn106 2.114 . S
O112 C107 1.166 . S
O113 Zn105 1.905 1_545 S
O113 C107 1.182 . S
O114 Zn105 1.898 . S
O114 C108 1.167 1_455 S
O115 Zn106 2.120 1_665 S
O115 C108 1.299 . S
O116 Zn104 1.898 . S
O116 C111 1.167 1_655 S
O117 Zn106 2.120 . S
O117 C111 1.299 . S
O118 Zn106 2.114 1_655 S
O118 C120 1.166 . S
O119 Zn104 1.905 . S
O119 C120 1.182 . S
C120 O118 1.166 . S
C120 O119 1.182 . S
O121 Zn106 2.080 . S
O121 C124 1.305 1_545 S
O122 Zn105 1.920 . S
O122 C124 1.234 . S
C123 O109 1.305 . S
C123 O110 1.234 . S
C124 O121 1.305 1_565 S
C124 O122 1.234 . S
Zn125 O131 1.920 1_556 S
Zn125 O137 1.898 . S
Zn125 O140 1.905 . S
Zn126 O134 1.905 . S
Zn126 O135 1.898 . S
Zn126 O143 1.920 . S
Zn127 O130 2.080 . S
Zn127 O133 2.114 1_545 S
Zn127 O136 2.120 1_545 S
Zn127 O138 2.125 . S
Zn127 O139 2.114 1_544 S
Zn127 O142 2.080 . S
C128 O133 1.166 . S
C128 O134 1.182 . S
C129 O135 1.167 . S
C129 O136 1.299 . S
O130 Zn127 2.080 . S
O130 C144 1.305 . S
O131 Zn125 1.920 1_554 S
O131 C144 1.234 . S
C132 O137 1.167 . S
C132 O138 1.283 1_556 S
O133 Zn127 2.114 1_565 S
O133 C128 1.166 . S
O134 Zn126 1.905 . S
O134 C128 1.182 . S
O135 Zn126 1.898 . S
O135 C129 1.167 . S
O136 Zn127 2.120 1_565 S
O136 C129 1.299 . S
O137 Zn125 1.898 . S
O137 C132 1.167 . S
O138 Zn127 2.125 . S
O138 C132 1.283 1_554 S
O139 Zn127 2.114 1_566 S
O139 C141 1.166 . S
O140 Zn125 1.905 . S
O140 C141 1.182 1_545 S
C141 O139 1.166 . S
C141 O140 1.182 1_565 S
O142 Zn127 2.080 . S
O142 C145 1.305 . S
O143 Zn126 1.920 . S
O143 C145 1.234 1_565 S
C144 O130 1.305 . S
C144 O131 1.234 . S
C145 O142 1.305 . S
C145 O143 1.234 1_545 S
Zn146 O152 1.920 . S
Zn146 O158 1.898 . S
Zn146 O161 1.905 . S
Zn147 O155 1.905 . S
Zn147 O156 1.898 . S
Zn147 O164 1.920 . S
Zn148 O151 2.080 . S
Zn148 O154 2.114 . S
Zn148 O157 2.120 . S
Zn148 O159 2.120 . S
Zn148 O160 2.114 . S
Zn148 O163 2.080 . S
C149 O154 1.166 . S
C149 O155 1.182 . S
C150 O156 1.167 . S
C150 O157 1.299 . S
O151 Zn148 2.080 . S
O151 C165 1.305 . S
O152 Zn146 1.920 . S
O152 C165 1.234 . S
C153 O158 1.167 . S
C153 O159 1.299 . S
O154 Zn148 2.114 . S
O154 C149 1.166 . S
O155 Zn147 1.905 . S
O155 C149 1.182 . S
O156 Zn147 1.898 . S
O156 C150 1.167 . S
O157 Zn148 2.120 . S
O157 C150 1.299 . S
O158 Zn146 1.898 . S
O158 C153 1.167 . S
O159 Zn148 2.120 . S
O159 C153 1.299 . S
O160 Zn148 2.114 . S
O160 C162 1.166 . S
O161 Zn146 1.905 . S
O161 C162 1.182 . S
C162 O160 1.166 . S
C162 O161 1.182 . S
O163 Zn148 2.080 . S
O163 C166 1.305 . S
O164 Zn147 1.920 . S
O164 C166 1.234 . S
C165 O151 1.305 . S
C165 O152 1.234 . S
C166 O163 1.305 . S
C166 O164 1.234 . S
Zn167 O173 1.920 . S
Zn167 O179 1.898 . S
Zn167 O182 1.905 . S
Zn168 O176 1.905 1_655 S
Zn168 O177 1.898 . S
Zn168 O185 1.920 . S
Zn169 O172 2.080 1_554 S
Zn169 O175 2.114 . S
Zn169 O178 2.120 1_554 S
Zn169 O180 2.120 . S
Zn169 O181 2.114 1_554 S
Zn169 O184 2.080 . S
C170 O175 1.166 . S
C170 O176 1.182 . S
C171 O177 1.167 1_556 S
C171 O178 1.299 1_655 S
O172 Zn169 2.080 1_556 S
O172 C186 1.305 . S
O173 Zn167 1.920 . S
O173 C186 1.234 . S
C174 O179 1.167 1_554 S
C174 O180 1.299 . S
O175 Zn169 2.114 . S
O175 C170 1.166 . S
O176 Zn168 1.905 1_455 S
O176 C170 1.182 . S
O177 Zn168 1.898 . S
O177 C171 1.167 1_554 S
O178 Zn169 2.120 1_556 S
O178 C171 1.299 1_455 S
O179 Zn167 1.898 . S
O179 C174 1.167 1_556 S
O180 Zn169 2.120 . S
O180 C174 1.299 . S
O181 Zn169 2.114 1_556 S
O181 C183 1.166 . S
O182 Zn167 1.905 . S
O182 C183 1.182 . S
C183 O181 1.166 . S
C183 O182 1.182 . S
O184 Zn169 2.080 . S
O184 C187 1.305 . S
O185 Zn168 1.920 . S
O185 C187 1.234 1_655 S
C186 O172 1.305 . S
C186 O173 1.234 . S
C187 O184 1.305 . S
C187 O185 1.234 1_455 S
H188 C200 0.930 . S
H189 C202 0.930 . S
H190 C203 0.930 . S
H191 C207 0.959 . S
H192 C207 0.959 . S
H193 C207 0.961 . S
H194 C208 0.960 . S
H195 C208 0.961 . S
H196 C208 0.959 . S
H197 C211 0.929 . S
H198 C212 0.931 . S
H199 C214 0.930 . S
C200 H188 0.930 . S
C200 C201 1.399 . S
C200 C205 1.399 . S
C201 C200 1.399 . S
C201 C202 1.376 . S
C202 H189 0.930 . S
C202 C201 1.376 . S
C202 C203 1.388 . S
C203 H190 0.930 . S
C203 C202 1.388 . S
C203 C204 1.390 . S
C204 C203 1.390 . S
C204 C205 1.394 . S
C204 C210 1.465 . S
C205 C200 1.399 . S
C205 C204 1.394 . S
C205 C206 1.516 . S
C206 C205 1.516 . S
C206 C207 1.502 . S
C206 C208 1.561 . S
C206 C209 1.526 . S
C207 H191 0.959 . S
C207 H192 0.959 . S
C207 H193 0.961 . S
C207 C206 1.502 . S
C208 H194 0.960 . S
C208 H195 0.961 . S
C208 H196 0.959 . S
C208 C206 1.561 . S
C209 C206 1.526 . S
C209 C210 1.396 . S
C209 C214 1.390 . S
C210 C204 1.465 . S
C210 C209 1.396 . S
C210 C211 1.399 . S
C211 H197 0.929 . S
C211 C210 1.399 . S
C211 C212 1.385 . S
C212 H198 0.931 . S
C212 C211 1.385 . S
C212 C213 1.389 . S
C213 C212 1.389 . S
C213 C214 1.387 . S
C214 H199 0.930 . S
C214 C209 1.390 . S
C214 C213 1.387 . S
H215 C227 0.930 . S
H216 C229 0.930 . S
H217 C230 0.930 . S
H218 C234 0.959 . S
H219 C234 0.959 1_545 S
H220 C234 0.961 . S
H221 C235 0.960 . S
H222 C235 0.961 . S
H223 C235 0.959 1_565 S
H224 C238 0.929 . S
H225 C239 0.931 . S
H226 C241 0.930 1_545 S
C227 H215 0.930 . S
C227 C228 1.399 . S
C227 C232 1.399 . S
C228 C227 1.399 . S
C228 C229 1.376 . S
C229 H216 0.930 . S
C229 C228 1.376 . S
C229 C230 1.388 . S
C230 H217 0.930 . S
C230 C229 1.388 . S
C230 C231 1.390 . S
C231 C230 1.390 . S
C231 C232 1.394 . S
C231 C237 1.465 . S
C232 C227 1.399 . S
C232 C231 1.394 . S
C232 C233 1.516 . S
C233 C232 1.516 . S
C233 C234 1.502 . S
C233 C235 1.561 1_565 S
C233 C236 1.526 . S
C234 H218 0.959 . S
C234 H219 0.959 1_565 S
C234 H220 0.961 . S
C234 C233 1.502 . S
C235 H221 0.960 . S
C235 H222 0.961 . S
C235 H223 0.959 1_545 S
C235 C233 1.561 1_545 S
C236 C233 1.526 . S
C236 C237 1.396 . S
C236 C241 1.390 . S
C237 C231 1.465 . S
C237 C236 1.396 . S
C237 C238 1.399 . S
C238 H224 0.929 . S
C238 C237 1.399 . S
C238 C239 1.385 . S
C239 H225 0.931 . S
C239 C238 1.385 . S
C239 C240 1.389 . S
C240 C239 1.389 . S
C240 C241 1.387 . S
C241 H226 0.930 1_565 S
C241 C236 1.390 . S
C241 C240 1.387 . S
H242 C254 0.930 . S
H243 C256 0.930 . S
H244 C257 0.930 . S
H245 C261 0.959 . S
H246 C261 0.959 . S
H247 C261 0.961 . S
H248 C262 0.960 . S
H249 C262 0.961 . S
H250 C262 0.959 . S
H251 C265 0.929 . S
H252 C266 0.931 . S
H253 C268 0.930 . S
C254 H242 0.930 . S
C254 C255 1.399 . S
C254 C259 1.399 . S
C255 C254 1.399 . S
C255 C256 1.376 . S
C256 H243 0.930 . S
C256 C255 1.376 . S
C256 C257 1.388 . S
C257 H244 0.930 . S
C257 C256 1.388 . S
C257 C258 1.390 . S
C258 C257 1.390 . S
C258 C259 1.394 . S
C258 C264 1.465 . S
C259 C254 1.399 . S
C259 C258 1.394 . S
C259 C260 1.516 . S
C260 C259 1.516 . S
C260 C261 1.502 . S
C260 C262 1.561 . S
C260 C263 1.526 . S
C261 H245 0.959 . S
C261 H246 0.959 . S
C261 H247 0.961 . S
C261 C260 1.502 . S
C262 H248 0.960 . S
C262 H249 0.961 . S
C262 H250 0.959 . S
C262 C260 1.561 . S
C263 C260 1.526 . S
C263 C264 1.396 . S
C263 C268 1.390 . S
C264 C258 1.465 . S
C264 C263 1.396 . S
C264 C265 1.399 . S
C265 H251 0.929 . S
C265 C264 1.399 . S
C265 C266 1.385 . S
C266 H252 0.931 . S
C266 C265 1.385 . S
C266 C267 1.389 . S
C267 C266 1.389 . S
C267 C268 1.387 . S
C268 H253 0.930 . S
C268 C263 1.390 . S
C268 C267 1.387 . S
H269 C281 0.930 . S
H270 C283 0.930 . S
H271 C284 0.930 . S
H272 C288 0.959 . S
H273 C288 0.959 . S
H274 C288 0.961 . S
H275 C289 0.960 . S
H276 C289 0.961 1_455 S
H277 C289 0.959 . S
H278 C292 0.929 . S
H279 C293 0.931 . S
H280 C295 0.930 . S
C281 H269 0.930 . S
C281 C282 1.399 . S
C281 C286 1.399 . S
C282 C281 1.399 . S
C282 C283 1.376 . S
C283 H270 0.930 . S
C283 C282 1.376 . S
C283 C284 1.388 . S
C284 H271 0.930 . S
C284 C283 1.388 . S
C284 C285 1.390 . S
C285 C284 1.390 . S
C285 C286 1.394 . S
C285 C291 1.465 . S
C286 C281 1.399 . S
C286 C285 1.394 . S
C286 C287 1.516 . S
C287 C286 1.516 . S
C287 C288 1.502 1_655 S
C287 C289 1.561 . S
C287 C290 1.526 . S
C288 H272 0.959 . S
C288 H273 0.959 . S
C288 H274 0.961 . S
C288 C287 1.502 1_455 S
C289 H275 0.960 . S
C289 H276 0.961 1_655 S
C289 H277 0.959 . S
C289 C287 1.561 . S
C290 C287 1.526 . S
C290 C291 1.396 . S
C290 C295 1.390 1_655 S
C291 C285 1.465 . S
C291 C290 1.396 . S
C291 C292 1.399 . S
C292 H278 0.929 . S
C292 C291 1.399 . S
C292 C293 1.385 . S
C293 H279 0.931 . S
C293 C292 1.385 . S
C293 C294 1.399 . S
C294 C293 1.399 . S
C294 C295 1.384 1_655 S
C295 H280 0.930 . S
C295 C290 1.390 1_455 S
C295 C294 1.384 1_455 S
H296 C308 0.930 . S
H297 C310 0.930 . S
H298 C311 0.930 . S
H299 C315 0.959 . S
H300 C315 0.959 . S
H301 C315 0.961 . S
H302 C316 0.960 . S
H303 C316 0.961 . S
H304 C316 0.959 . S
H305 C319 0.929 . S
H306 C320 0.931 . S
H307 C322 0.930 . S
C308 H296 0.930 . S
C308 C309 1.399 . S
C308 C313 1.399 . S
C309 C308 1.399 . S
C309 C310 1.376 . S
C310 H297 0.930 . S
C310 C309 1.376 . S
C310 C311 1.388 . S
C311 H298 0.930 . S
C311 C310 1.388 . S
C311 C312 1.390 . S
C312 C311 1.390 . S
C312 C313 1.394 . S
C312 C318 1.465 . S
C313 C308 1.399 . S
C313 C312 1.394 . S
C313 C314 1.516 . S
C314 C313 1.516 . S
C314 C315 1.502 . S
C314 C316 1.561 . S
C314 C317 1.526 . S
C315 H299 0.959 . S
C315 H300 0.959 . S
C315 H301 0.961 . S
C315 C314 1.502 . S
C316 H302 0.960 . S
C316 H303 0.961 . S
C316 H304 0.959 . S
C316 C314 1.561 . S
C317 C314 1.526 . S
C317 C318 1.396 . S
C317 C322 1.390 . S
C318 C312 1.465 . S
C318 C317 1.396 . S
C318 C319 1.399 . S
C319 H305 0.929 . S
C319 C318 1.399 . S
C319 C320 1.385 . S
C320 H306 0.931 . S
C320 C319 1.385 . S
C320 C321 1.389 . S
C321 C320 1.389 . S
C321 C322 1.387 . S
C322 H307 0.930 . S
C322 C317 1.390 . S
C322 C321 1.387 . S
H323 C335 0.930 . S
H324 C337 0.930 . S
H325 C338 0.930 . S
H326 C342 0.959 . S
H327 C342 0.959 . S
H328 C342 0.961 . S
H329 C343 0.960 . S
H330 C343 0.961 . S
H331 C343 0.959 . S
H332 C346 0.929 . S
H333 C347 0.931 . S
H334 C349 0.930 . S
C335 H323 0.930 . S
C335 C336 1.399 . S
C335 C340 1.399 . S
C336 C335 1.399 . S
C336 C337 1.376 . S
C337 H324 0.930 . S
C337 C336 1.376 . S
C337 C338 1.388 . S
C338 H325 0.930 . S
C338 C337 1.388 . S
C338 C339 1.390 . S
C339 C338 1.390 . S
C339 C340 1.394 . S
C339 C345 1.465 . S
C340 C335 1.399 . S
C340 C339 1.394 . S
C340 C341 1.516 . S
C341 C340 1.516 . S
C341 C342 1.502 . S
C341 C343 1.561 . S
C341 C344 1.526 . S
C342 H326 0.959 . S
C342 H327 0.959 . S
C342 H328 0.961 . S
C342 C341 1.502 . S
C343 H329 0.960 . S
C343 H330 0.961 . S
C343 H331 0.959 . S
C343 C341 1.561 . S
C344 C341 1.526 . S
C344 C345 1.396 . S
C344 C349 1.390 . S
C345 C339 1.465 . S
C345 C344 1.396 . S
C345 C346 1.399 . S
C346 H332 0.929 . S
C346 C345 1.399 . S
C346 C347 1.385 . S
C347 H333 0.931 . S
C347 C346 1.385 . S
C347 C348 1.389 . S
C348 C347 1.389 . S
C348 C349 1.387 . S
C349 H334 0.930 . S
C349 C344 1.390 . S
C349 C348 1.387 . S
H350 C362 0.930 . S
H351 C364 0.930 . S
H352 C365 0.930 . S
H353 C369 0.959 . S
H354 C369 0.959 . S
H355 C369 0.961 . S
H356 C370 0.960 . S
H357 C370 0.961 . S
H358 C370 0.959 . S
H359 C373 0.929 . S
H360 C374 0.931 . S
H361 C376 0.930 . S
C362 H350 0.930 . S
C362 C363 1.399 . S
C362 C367 1.399 . S
C363 C362 1.399 . S
C363 C364 1.376 . S
C364 H351 0.930 . S
C364 C363 1.376 . S
C364 C365 1.388 . S
C365 H352 0.930 . S
C365 C364 1.388 . S
C365 C366 1.390 . S
C366 C365 1.390 . S
C366 C367 1.394 . S
C366 C372 1.465 . S
C367 C362 1.399 . S
C367 C366 1.394 . S
C367 C368 1.516 . S
C368 C367 1.516 . S
C368 C369 1.502 . S
C368 C370 1.561 . S
C368 C371 1.526 . S
C369 H353 0.959 . S
C369 H354 0.959 . S
C369 H355 0.961 . S
C369 C368 1.502 . S
C370 H356 0.960 . S
C370 H357 0.961 . S
C370 H358 0.959 . S
C370 C368 1.561 . S
C371 C368 1.526 . S
C371 C372 1.396 . S
C371 C376 1.390 . S
C372 C366 1.465 . S
C372 C371 1.396 . S
C372 C373 1.399 . S
C373 H359 0.929 . S
C373 C372 1.399 . S
C373 C374 1.385 . S
C374 H360 0.931 . S
C374 C373 1.385 . S
C374 C375 1.389 . S
C375 C374 1.389 . S
C375 C376 1.387 . S
C376 H361 0.930 . S
C376 C371 1.390 . S
C376 C375 1.387 . S
H377 C389 0.930 . S
H378 C391 0.930 . S
H379 C392 0.930 . S
H380 C396 0.959 . S
H381 C396 0.959 . S
H382 C396 0.961 . S
H383 C397 0.960 . S
H384 C397 0.961 . S
H385 C397 0.959 . S
H386 C400 0.929 . S
H387 C401 0.931 . S
H388 C403 0.930 . S
C389 H377 0.930 . S
C389 C390 1.399 . S
C389 C394 1.399 . S
C390 C389 1.399 . S
C390 C391 1.376 . S
C391 H378 0.930 . S
C391 C390 1.376 . S
C391 C392 1.388 . S
C392 H379 0.930 . S
C392 C391 1.388 . S
C392 C393 1.390 . S
C393 C392 1.390 . S
C393 C394 1.394 . S
C393 C399 1.465 . S
C394 C389 1.399 . S
C394 C393 1.394 . S
C394 C395 1.516 . S
C395 C394 1.516 . S
C395 C396 1.502 . S
C395 C397 1.561 . S
C395 C398 1.526 . S
C396 H380 0.959 . S
C396 H381 0.959 . S
C396 H382 0.961 . S
C396 C395 1.502 . S
C397 H383 0.960 . S
C397 H384 0.961 . S
C397 H385 0.959 . S
C397 C395 1.561 . S
C398 C395 1.526 . S
C398 C399 1.396 . S
C398 C403 1.390 . S
C399 C393 1.465 . S
C399 C398 1.396 . S
C399 C400 1.399 . S
C400 H386 0.929 . S
C400 C399 1.399 . S
C400 C401 1.385 . S
C401 H387 0.931 . S
C401 C400 1.385 . S
C401 C402 1.389 . S
C402 C401 1.389 . S
C402 C403 1.387 . S
C403 H388 0.930 . S
C403 C398 1.390 . S
C403 C402 1.387 . S
H404 C416 0.930 . S
H405 C418 0.930 . S
H406 C419 0.930 . S
H407 C423 0.959 . S
H408 C423 0.959 . S
H409 C423 0.961 . S
H410 C424 0.960 . S
H411 C424 0.961 . S
H412 C424 0.959 . S
H413 C427 0.929 . S
H414 C428 0.931 . S
H415 C430 0.930 . S
C416 H404 0.930 . S
C416 C417 1.399 . S
C416 C421 1.399 . S
C417 C416 1.399 . S
C417 C418 1.376 . S
C418 H405 0.930 . S
C418 C417 1.376 . S
C418 C419 1.388 . S
C419 H406 0.930 . S
C419 C418 1.388 . S
C419 C420 1.390 . S
C420 C419 1.390 . S
C420 C421 1.394 . S
C420 C426 1.465 . S
C421 C416 1.399 . S
C421 C420 1.394 . S
C421 C422 1.516 . S
C422 C421 1.516 . S
C422 C423 1.502 . S
C422 C424 1.561 . S
C422 C425 1.526 . S
C423 H407 0.959 . S
C423 H408 0.959 . S
C423 H409 0.961 . S
C423 C422 1.502 . S
C424 H410 0.960 . S
C424 H411 0.961 . S
C424 H412 0.959 . S
C424 C422 1.561 . S
C425 C422 1.526 . S
C425 C426 1.396 . S
C425 C430 1.390 . S
C426 C420 1.465 . S
C426 C425 1.396 . S
C426 C427 1.399 . S
C427 H413 0.929 . S
C427 C426 1.399 . S
C427 C428 1.385 . S
C428 H414 0.931 . S
C428 C427 1.385 . S
C428 C429 1.389 . S
C429 C428 1.389 . S
C429 C430 1.387 . S
C430 H415 0.930 . S
C430 C425 1.390 . S
C430 C429 1.387 . S
H431 C443 0.930 . S
H432 C445 0.930 . S
H433 C446 0.930 . S
H434 C450 0.959 . S
H435 C450 0.959 . S
H436 C450 0.961 . S
H437 C451 0.960 . S
H438 C451 0.961 . S
H439 C451 0.959 . S
H440 C454 0.929 . S
H441 C455 0.931 1_554 S
H442 C457 0.930 . S
C443 H431 0.930 . S
C443 C444 1.399 . S
C443 C448 1.399 . S
C444 C443 1.399 . S
C444 C445 1.376 . S
C445 H432 0.930 . S
C445 C444 1.376 . S
C445 C446 1.388 . S
C446 H433 0.930 . S
C446 C445 1.388 . S
C446 C447 1.390 . S
C447 C446 1.390 . S
C447 C448 1.394 . S
C447 C453 1.465 . S
C448 C443 1.399 . S
C448 C447 1.394 . S
C448 C449 1.516 . S
C449 C448 1.516 . S
C449 C450 1.502 . S
C449 C451 1.561 . S
C449 C452 1.526 . S
C450 H434 0.959 . S
C450 H435 0.959 . S
C450 H436 0.961 . S
C450 C449 1.502 . S
C451 H437 0.960 . S
C451 H438 0.961 . S
C451 H439 0.959 . S
C451 C449 1.561 . S
C452 C449 1.526 . S
C452 C453 1.396 . S
C452 C457 1.390 . S
C453 C447 1.465 . S
C453 C452 1.396 . S
C453 C454 1.399 . S
C454 H440 0.929 . S
C454 C453 1.399 . S
C454 C455 1.385 . S
C455 H441 0.931 1_556 S
C455 C454 1.385 . S
C455 C456 1.389 . S
C456 C455 1.389 . S
C456 C457 1.387 . S
C457 H442 0.930 . S
C457 C452 1.390 . S
C457 C456 1.387 . S
H458 C470 0.930 . S
H459 C472 0.930 . S
H460 C473 0.930 . S
H461 C477 0.959 . S
H462 C477 0.959 . S
H463 C477 0.961 . S
H464 C478 0.960 . S
H465 C478 0.961 . S
H466 C478 0.959 . S
H467 C481 0.929 . S
H468 C482 0.931 . S
H469 C484 0.930 . S
C470 H458 0.930 . S
C470 C471 1.399 . S
C470 C475 1.399 . S
C471 C470 1.399 . S
C471 C472 1.376 . S
C472 H459 0.930 . S
C472 C471 1.376 . S
C472 C473 1.388 . S
C473 H460 0.930 . S
C473 C472 1.388 . S
C473 C474 1.390 . S
C474 C473 1.390 . S
C474 C475 1.394 . S
C474 C480 1.465 . S
C475 C470 1.399 . S
C475 C474 1.394 . S
C475 C476 1.516 . S
C476 C475 1.516 . S
C476 C477 1.502 . S
C476 C478 1.561 . S
C476 C479 1.526 . S
C477 H461 0.959 . S
C477 H462 0.959 . S
C477 H463 0.961 . S
C477 C476 1.502 . S
C478 H464 0.960 . S
C478 H465 0.961 . S
C478 H466 0.959 . S
C478 C476 1.561 . S
C479 C476 1.526 . S
C479 C480 1.396 . S
C479 C484 1.390 . S
C480 C474 1.465 . S
C480 C479 1.396 . S
C480 C481 1.399 . S
C481 H467 0.929 . S
C481 C480 1.399 . S
C481 C482 1.385 . S
C482 H468 0.931 . S
C482 C481 1.385 . S
C482 C483 1.389 . S
C483 C482 1.389 . S
C483 C484 1.387 . S
C484 H469 0.930 . S
C484 C479 1.390 . S
C484 C483 1.387 . S
H485 C497 0.930 . S
H486 C499 0.930 . S
H487 C500 0.930 . S
H488 C504 0.959 . S
H489 C504 0.959 . S
H490 C504 0.961 . S
H491 C505 0.960 . S
H492 C505 0.961 . S
H493 C505 0.959 . S
H494 C508 0.929 . S
H495 C509 0.931 . S
H496 C511 0.930 . S
C497 H485 0.930 . S
C497 C498 1.399 . S
C497 C502 1.399 . S
C498 C497 1.399 . S
C498 C499 1.376 . S
C499 H486 0.930 . S
C499 C498 1.376 . S
C499 C500 1.388 . S
C500 H487 0.930 . S
C500 C499 1.388 . S
C500 C501 1.390 . S
C501 C500 1.390 . S
C501 C502 1.394 . S
C501 C507 1.465 . S
C502 C497 1.399 . S
C502 C501 1.394 . S
C502 C503 1.516 . S
C503 C502 1.516 . S
C503 C504 1.502 . S
C503 C505 1.561 . S
C503 C506 1.526 . S
C504 H488 0.959 . S
C504 H489 0.959 . S
C504 H490 0.961 . S
C504 C503 1.502 . S
C505 H491 0.960 . S
C505 H492 0.961 . S
C505 H493 0.959 . S
C505 C503 1.561 . S
C506 C503 1.526 . S
C506 C507 1.396 . S
C506 C511 1.390 . S
C507 C501 1.465 . S
C507 C506 1.396 . S
C507 C508 1.399 . S
C508 H494 0.929 . S
C508 C507 1.399 . S
C508 C509 1.385 . S
C509 H495 0.931 . S
C509 C508 1.385 . S
C509 C510 1.389 . S
C510 C509 1.389 . S
C510 C511 1.387 . S
C511 H496 0.930 . S
C511 C506 1.390 . S
C511 C510 1.387 . S
H512 C524 0.916 1_545 S
H513 C526 0.930 . S
H514 C527 0.930 . S
H515 C531 0.959 . S
H516 C531 0.959 . S
H517 C531 0.961 . S
H518 C532 0.960 . S
H519 C532 0.961 . S
H520 C532 0.959 . S
H521 C535 0.929 . S
H522 C536 0.931 . S
H523 C538 0.930 . S
C524 H512 0.916 1_565 S
C524 C525 1.414 . S
C524 C529 1.399 1_565 S
C525 C524 1.414 . S
C525 C526 1.376 . S
C526 H513 0.930 . S
C526 C525 1.376 . S
C526 C527 1.388 . S
C527 H514 0.930 . S
C527 C526 1.388 . S
C527 C528 1.390 . S
C528 C527 1.390 . S
C528 C529 1.393 1_565 S
C528 C534 1.465 . S
C529 C524 1.399 1_545 S
C529 C528 1.393 1_545 S
C529 C530 1.516 . S
C530 C529 1.516 . S
C530 C531 1.502 . S
C530 C532 1.561 1_655 S
C530 C533 1.526 . S
C531 H515 0.959 . S
C531 H516 0.959 . S
C531 H517 0.961 . S
C531 C530 1.502 . S
C532 H518 0.960 . S
C532 H519 0.961 . S
C532 H520 0.959 . S
C532 C530 1.561 1_455 S
C533 C530 1.526 . S
C533 C534 1.396 1_545 S
C533 C538 1.390 . S
C534 C528 1.465 . S
C534 C533 1.396 1_565 S
C534 C535 1.399 . S
C535 H521 0.929 . S
C535 C534 1.399 . S
C535 C536 1.385 . S
C536 H522 0.931 . S
C536 C535 1.385 . S
C536 C537 1.389 1_565 S
C537 C536 1.389 1_545 S
C537 C538 1.387 . S
C538 H523 0.930 . S
C538 C533 1.390 . S
C538 C537 1.387 . S
H539 C551 0.930 . S
H540 C553 0.930 . S
H541 C554 0.930 . S
H542 C558 0.959 1_545 S
H543 C558 0.959 . S
H544 C558 0.961 . S
H545 C559 0.960 . S
H546 C559 0.961 . S
H547 C559 0.959 . S
H548 C562 0.929 . S
H549 C563 0.931 . S
H550 C565 0.930 1_565 S
C551 H539 0.930 . S
C551 C552 1.399 . S
C551 C556 1.399 . S
C552 C551 1.399 . S
C552 C553 1.376 . S
C553 H540 0.930 . S
C553 C552 1.376 . S
C553 C554 1.388 . S
C554 H541 0.930 . S
C554 C553 1.388 . S
C554 C555 1.390 . S
C555 C554 1.390 . S
C555 C556 1.394 . S
C555 C561 1.465 . S
C556 C551 1.399 . S
C556 C555 1.394 . S
C556 C557 1.516 . S
C557 C556 1.516 . S
C557 C558 1.502 1_545 S
C557 C559 1.561 1_545 S
C557 C560 1.526 . S
C558 H542 0.959 1_565 S
C558 H543 0.959 . S
C558 H544 0.961 . S
C558 C557 1.502 1_565 S
C559 H545 0.960 . S
C559 H546 0.961 . S
C559 H547 0.959 . S
C559 C557 1.561 1_565 S
C560 C557 1.526 . S
C560 C561 1.396 . S
C560 C565 1.390 . S
C561 C555 1.465 . S
C561 C560 1.396 . S
C561 C562 1.399 . S
C562 H548 0.929 . S
C562 C561 1.399 . S
C562 C563 1.385 . S
C563 H549 0.931 . S
C563 C562 1.385 . S
C563 C564 1.389 . S
C564 C563 1.389 . S
C564 C565 1.387 . S
C565 H550 0.930 1_545 S
C565 C560 1.390 . S
C565 C564 1.387 . S
H566 C578 0.930 . S
H567 C580 0.930 . S
H568 C581 0.930 . S
H569 C585 0.959 . S
H570 C585 0.959 . S
H571 C585 0.961 . S
H572 C586 0.960 . S
H573 C586 0.961 . S
H574 C586 0.959 . S
H575 C589 0.929 . S
H576 C590 0.931 . S
H577 C592 0.930 . S
C578 H566 0.930 . S
C578 C579 1.399 . S
C578 C583 1.399 . S
C579 C578 1.399 . S
C579 C580 1.376 . S
C580 H567 0.930 . S
C580 C579 1.376 . S
C580 C581 1.388 . S
C581 H568 0.930 . S
C581 C580 1.388 . S
C581 C582 1.390 . S
C582 C581 1.390 . S
C582 C583 1.394 . S
C582 C588 1.465 . S
C583 C578 1.399 . S
C583 C582 1.394 . S
C583 C584 1.516 . S
C584 C583 1.516 . S
C584 C585 1.502 . S
C584 C586 1.561 . S
C584 C587 1.526 . S
C585 H569 0.959 . S
C585 H570 0.959 . S
C585 H571 0.961 . S
C585 C584 1.502 . S
C586 H572 0.960 . S
C586 H573 0.961 . S
C586 H574 0.959 . S
C586 C584 1.561 . S
C587 C584 1.526 . S
C587 C588 1.396 . S
C587 C592 1.390 . S
C588 C582 1.465 . S
C588 C587 1.396 . S
C588 C589 1.399 . S
C589 H575 0.929 . S
C589 C588 1.399 . S
C589 C590 1.385 . S
C590 H576 0.931 . S
C590 C589 1.385 . S
C590 C591 1.389 . S
C591 C590 1.389 . S
C591 C592 1.387 . S
C592 H577 0.930 . S
C592 C587 1.390 . S
C592 C591 1.387 . S
H593 C605 0.930 . S
H594 C607 0.930 . S
H595 C608 0.930 . S
H596 C612 0.959 . S
H597 C612 0.959 . S
H598 C612 0.961 . S
H599 C613 0.960 . S
H600 C613 0.961 . S
H601 C613 0.959 . S
H602 C616 0.929 . S
H603 C617 0.931 . S
H604 C619 0.930 . S
C605 H593 0.930 . S
C605 C606 1.399 . S
C605 C610 1.399 . S
C606 C605 1.399 . S
C606 C607 1.376 . S
C607 H594 0.930 . S
C607 C606 1.376 . S
C607 C608 1.388 . S
C608 H595 0.930 . S
C608 C607 1.388 . S
C608 C609 1.390 . S
C609 C608 1.390 . S
C609 C610 1.394 . S
C609 C615 1.465 . S
C610 C605 1.399 . S
C610 C609 1.394 . S
C610 C611 1.516 . S
C611 C610 1.516 . S
C611 C612 1.502 . S
C611 C613 1.561 . S
C611 C614 1.526 . S
C612 H596 0.959 . S
C612 H597 0.959 . S
C612 H598 0.961 . S
C612 C611 1.502 . S
C613 H599 0.960 . S
C613 H600 0.961 . S
C613 H601 0.959 . S
C613 C611 1.561 . S
C614 C611 1.526 . S
C614 C615 1.396 . S
C614 C619 1.390 . S
C615 C609 1.465 . S
C615 C614 1.396 . S
C615 C616 1.399 . S
C616 H602 0.929 . S
C616 C615 1.399 . S
C616 C617 1.385 . S
C617 H603 0.931 . S
C617 C616 1.385 . S
C617 C618 1.389 . S
C618 C617 1.389 . S
C618 C619 1.387 . S
C619 H604 0.930 . S
C619 C614 1.390 . S
C619 C618 1.387 . S
H620 C632 0.930 . S
H621 C634 0.930 1_545 S
H622 C635 0.930 . S
H623 C639 0.959 . S
H624 C639 0.959 1_554 S
H625 C639 0.961 . S
H626 C640 0.960 . S
H627 C640 0.961 . S
H628 C640 0.959 . S
H629 C643 0.929 . S
H630 C644 0.931 . S
H631 C646 0.930 . S
C632 H620 0.930 . S
C632 C633 1.399 . S
C632 C637 1.399 . S
C633 C632 1.399 . S
C633 C634 1.376 . S
C634 H621 0.930 1_565 S
C634 C633 1.376 . S
C634 C635 1.388 1_565 S
C635 H622 0.930 . S
C635 C634 1.388 1_545 S
C635 C636 1.390 1_545 S
C636 C635 1.390 1_565 S
C636 C637 1.394 . S
C636 C642 1.465 . S
C637 C632 1.399 . S
C637 C636 1.394 . S
C637 C638 1.516 1_556 S
C638 C637 1.516 1_554 S
C638 C639 1.502 1_554 S
C638 C640 1.561 . S
C638 C641 1.526 1_554 S
C639 H623 0.959 . S
C639 H624 0.959 1_556 S
C639 H625 0.961 . S
C639 C638 1.502 1_556 S
C640 H626 0.960 . S
C640 H627 0.961 . S
C640 H628 0.959 . S
C640 C638 1.561 . S
C641 C638 1.526 1_556 S
C641 C642 1.396 . S
C641 C646 1.390 1_556 S
C642 C636 1.465 . S
C642 C641 1.396 . S
C642 C643 1.399 1_565 S
C643 H629 0.929 . S
C643 C642 1.399 1_545 S
C643 C644 1.385 . S
C644 H630 0.931 . S
C644 C643 1.385 . S
C644 C645 1.389 1_545 S
C645 C644 1.389 1_565 S
C645 C646 1.387 1_556 S
C646 H631 0.930 . S
C646 C641 1.390 1_554 S
C646 C645 1.387 1_554 S
H647 C659 0.930 . S
H648 C661 0.930 . S
H649 C662 0.930 . S
H650 C666 0.959 . S
H651 C666 0.959 . S
H652 C666 0.961 . S
H653 C667 0.960 . S
H654 C667 0.961 . S
H655 C667 0.959 1_565 S
H656 C670 0.929 . S
H657 C671 0.931 . S
H658 C673 0.930 . S
C659 H647 0.930 . S
C659 C660 1.399 . S
C659 C664 1.399 . S
C660 C659 1.399 . S
C660 C661 1.376 . S
C661 H648 0.930 . S
C661 C660 1.376 . S
C661 C662 1.388 . S
C662 H649 0.930 . S
C662 C661 1.388 . S
C662 C663 1.390 . S
C663 C662 1.390 . S
C663 C664 1.394 . S
C663 C669 1.465 . S
C664 C659 1.399 . S
C664 C663 1.394 . S
C664 C665 1.516 . S
C665 C664 1.516 . S
C665 C666 1.502 . S
C665 C667 1.561 . S
C665 C668 1.526 . S
C666 H650 0.959 . S
C666 H651 0.959 . S
C666 H652 0.961 . S
C666 C665 1.502 . S
C667 H653 0.960 . S
C667 H654 0.961 . S
C667 H655 0.959 1_545 S
C667 C665 1.561 . S
C668 C665 1.526 . S
C668 C669 1.396 . S
C668 C673 1.390 . S
C669 C663 1.465 . S
C669 C668 1.396 . S
C669 C670 1.399 . S
C670 H656 0.929 . S
C670 C669 1.399 . S
C670 C671 1.385 . S
C671 H657 0.931 . S
C671 C670 1.385 . S
C671 C672 1.389 . S
C672 C671 1.389 . S
C672 C673 1.387 . S
C673 H658 0.930 . S
C673 C668 1.390 . S
C673 C672 1.387 . S
H674 C686 0.930 . S
H675 C688 0.930 . S
H676 C689 0.930 . S
H677 C693 0.959 1_556 S
H678 C693 0.959 . S
H679 C693 0.961 . S
H680 C694 0.960 . S
H681 C694 0.961 . S
H682 C694 0.959 . S
H683 C697 0.929 . S
H684 C698 0.931 . S
H685 C700 0.930 . S
C686 H674 0.930 . S
C686 C687 1.399 . S
C686 C691 1.399 . S
C687 C686 1.399 . S
C687 C688 1.376 . S
C688 H675 0.930 . S
C688 C687 1.376 . S
C688 C689 1.388 . S
C689 H676 0.930 . S
C689 C688 1.388 . S
C689 C690 1.390 . S
C690 C689 1.390 . S
C690 C691 1.394 . S
C690 C696 1.465 . S
C691 C686 1.399 . S
C691 C690 1.394 . S
C691 C692 1.516 . S
C692 C691 1.516 . S
C692 C693 1.502 . S
C692 C694 1.561 . S
C692 C695 1.526 . S
C693 H677 0.959 1_554 S
C693 H678 0.959 . S
C693 H679 0.961 . S
C693 C692 1.502 . S
C694 H680 0.960 . S
C694 H681 0.961 . S
C694 H682 0.959 . S
C694 C692 1.561 . S
C695 C692 1.526 . S
C695 C696 1.396 . S
C695 C700 1.390 . S
C696 C690 1.465 . S
C696 C695 1.396 . S
C696 C697 1.399 . S
C697 H683 0.929 . S
C697 C696 1.399 . S
C697 C698 1.385 . S
C698 H684 0.931 . S
C698 C697 1.385 . S
C698 C699 1.389 . S
C699 C698 1.389 . S
C699 C700 1.387 . S
C700 H685 0.930 . S
C700 C695 1.390 . S
C700 C699 1.387 . S
H701 C713 0.930 . S
H702 C715 0.930 . S
H703 C716 0.930 . S
H704 C720 0.959 . S
H705 C720 0.959 . S
H706 C720 0.961 . S
H707 C721 0.960 . S
H708 C721 0.961 . S
H709 C721 0.959 . S
H710 C724 0.929 . S
H711 C725 0.931 . S
H712 C727 0.930 . S
C713 H701 0.930 . S
C713 C714 1.399 . S
C713 C718 1.399 . S
C714 C713 1.399 . S
C714 C715 1.376 . S
C715 H702 0.930 . S
C715 C714 1.376 . S
C715 C716 1.388 . S
C716 H703 0.930 . S
C716 C715 1.388 . S
C716 C717 1.390 . S
C717 C716 1.390 . S
C717 C718 1.394 . S
C717 C723 1.465 . S
C718 C713 1.399 . S
C718 C717 1.394 . S
C718 C719 1.516 . S
C719 C718 1.516 . S
C719 C720 1.502 . S
C719 C721 1.561 . S
C719 C722 1.526 . S
C720 H704 0.959 . S
C720 H705 0.959 . S
C720 H706 0.961 . S
C720 C719 1.502 . S
C721 H707 0.960 . S
C721 H708 0.961 . S
C721 H709 0.959 . S
C721 C719 1.561 . S
C722 C719 1.526 . S
C722 C723 1.396 . S
C722 C727 1.390 . S
C723 C717 1.465 . S
C723 C722 1.396 . S
C723 C724 1.399 . S
C724 H710 0.929 . S
C724 C723 1.399 . S
C724 C725 1.385 . S
C725 H711 0.931 . S
C725 C724 1.385 . S
C725 C726 1.389 . S
C726 C725 1.389 . S
C726 C727 1.387 . S
C727 H712 0.930 . S
C727 C722 1.390 . S
C727 C726 1.387 . S
H728 C740 0.930 1_655 S
H729 C742 0.930 . S
H730 C743 0.930 . S
H731 C747 0.959 . S
H732 C747 0.959 . S
H733 C747 0.961 . S
H734 C748 0.960 . S
H735 C748 0.961 . S
H736 C748 0.959 . S
H737 C751 0.929 . S
H738 C752 0.931 . S
H739 C754 0.930 . S
C740 H728 0.930 1_455 S
C740 C741 1.399 . S
C740 C745 1.399 . S
C741 C740 1.399 . S
C741 C742 1.376 1_556 S
C742 H729 0.930 . S
C742 C741 1.376 1_554 S
C742 C743 1.388 . S
C743 H730 0.930 . S
C743 C742 1.388 . S
C743 C744 1.390 . S
C744 C743 1.390 . S
C744 C745 1.394 1_554 S
C744 C750 1.465 . S
C745 C740 1.399 . S
C745 C744 1.394 1_556 S
C745 C746 1.516 . S
C746 C745 1.516 . S
C746 C747 1.502 1_455 S
C746 C748 1.561 . S
C746 C749 1.526 . S
C747 H731 0.959 . S
C747 H732 0.959 . S
C747 H733 0.961 . S
C747 C746 1.502 1_655 S
C748 H734 0.960 . S
C748 H735 0.961 . S
C748 H736 0.959 . S
C748 C746 1.561 . S
C749 C746 1.526 . S
C749 C750 1.396 1_556 S
C749 C754 1.390 . S
C750 C744 1.465 . S
C750 C749 1.396 1_554 S
C750 C751 1.399 . S
C751 H737 0.929 . S
C751 C750 1.399 . S
C751 C752 1.385 . S
C752 H738 0.931 . S
C752 C751 1.385 . S
C752 C753 1.389 1_554 S
C753 C752 1.389 1_556 S
C753 C754 1.387 . S
C754 H739 0.930 . S
C754 C749 1.390 . S
C754 C753 1.387 . S
H755 C767 0.930 . S
H756 C769 0.930 1_556 S
H757 C770 0.915 1_556 S
H758 C774 0.959 . S
H759 C774 0.959 . S
H760 C774 0.961 . S
H761 C775 0.960 . S
H762 C775 0.961 . S
H763 C775 0.959 . S
H764 C778 0.929 . S
H765 C779 0.931 . S
H766 C781 0.930 . S
C767 H755 0.930 . S
C767 C768 1.399 . S
C767 C772 1.399 . S
C768 C767 1.399 . S
C768 C769 1.376 . S
C769 H756 0.930 1_554 S
C769 C768 1.376 . S
C769 C770 1.393 . S
C770 H757 0.915 1_554 S
C770 C769 1.393 . S
C770 C771 1.400 . S
C771 C770 1.400 . S
C771 C772 1.394 . S
C771 C777 1.465 . S
C772 C767 1.399 . S
C772 C771 1.394 . S
C772 C773 1.516 . S
C773 C772 1.516 . S
C773 C774 1.502 . S
C773 C775 1.561 . S
C773 C776 1.526 . S
C774 H758 0.959 . S
C774 H759 0.959 . S
C774 H760 0.961 . S
C774 C773 1.502 . S
C775 H761 0.960 . S
C775 H762 0.961 . S
C775 H763 0.959 . S
C775 C773 1.561 . S
C776 C773 1.526 . S
C776 C777 1.396 . S
C776 C781 1.390 . S
C777 C771 1.465 . S
C777 C776 1.396 . S
C777 C778 1.399 1_554 S
C778 H764 0.929 . S
C778 C777 1.399 1_556 S
C778 C779 1.385 . S
C779 H765 0.931 . S
C779 C778 1.385 . S
C779 C780 1.389 1_556 S
C780 C779 1.389 1_554 S
C780 C781 1.387 . S
C781 H766 0.930 . S
C781 C776 1.390 . S
C781 C780 1.387 . S
H782 C794 0.930 . S
H783 C796 0.930 . S
H784 C797 0.930 . S
H785 C801 0.959 1_655 S
H786 C801 0.959 . S
H787 C801 0.961 . S
H788 C802 0.960 . S
H789 C802 0.961 . S
H790 C802 0.959 . S
H791 C805 0.929 . S
H792 C806 0.931 . S
H793 C808 0.930 . S
C794 H782 0.930 . S
C794 C795 1.399 . S
C794 C799 1.399 . S
C795 C794 1.399 . S
C795 C796 1.376 . S
C796 H783 0.930 . S
C796 C795 1.376 . S
C796 C797 1.388 . S
C797 H784 0.930 . S
C797 C796 1.388 . S
C797 C798 1.390 . S
C798 C797 1.390 . S
C798 C799 1.394 . S
C798 C804 1.465 . S
C799 C794 1.399 . S
C799 C798 1.394 . S
C799 C800 1.516 . S
C800 C799 1.516 . S
C800 C801 1.502 . S
C800 C802 1.561 . S
C800 C803 1.526 . S
C801 H785 0.959 1_455 S
C801 H786 0.959 . S
C801 H787 0.961 . S
C801 C800 1.502 . S
C802 H788 0.960 . S
C802 H789 0.961 . S
C802 H790 0.959 . S
C802 C800 1.561 . S
C803 C800 1.526 . S
C803 C804 1.396 . S
C803 C808 1.390 . S
C804 C798 1.465 . S
C804 C803 1.396 . S
C804 C805 1.399 . S
C805 H791 0.929 . S
C805 C804 1.399 . S
C805 C806 1.385 . S
C806 H792 0.931 . S
C806 C805 1.385 . S
C806 C807 1.389 . S
C807 C806 1.389 . S
C807 C808 1.387 . S
C808 H793 0.930 . S
C808 C803 1.390 . S
C808 C807 1.387 . S
H809 C821 0.930 . S
H810 C823 0.930 . S
H811 C824 0.930 . S
H812 C828 0.959 . S
H813 C828 0.959 . S
H814 C828 0.961 . S
H815 C829 0.960 . S
H816 C829 0.961 . S
H817 C829 0.959 . S
H818 C832 0.929 . S
H819 C833 0.931 . S
H820 C835 0.930 . S
C821 H809 0.930 . S
C821 C822 1.399 . S
C821 C826 1.399 . S
C822 C821 1.399 . S
C822 C823 1.376 . S
C823 H810 0.930 . S
C823 C822 1.376 . S
C823 C824 1.388 . S
C824 H811 0.930 . S
C824 C823 1.388 . S
C824 C825 1.390 . S
C825 C824 1.390 . S
C825 C826 1.394 . S
C825 C831 1.465 . S
C826 C821 1.399 . S
C826 C825 1.394 . S
C826 C827 1.516 . S
C827 C826 1.516 . S
C827 C828 1.502 . S
C827 C829 1.561 . S
C827 C830 1.526 . S
C828 H812 0.959 . S
C828 H813 0.959 . S
C828 H814 0.961 . S
C828 C827 1.502 . S
C829 H815 0.960 . S
C829 H816 0.961 . S
C829 H817 0.959 . S
C829 C827 1.561 . S
C830 C827 1.526 . S
C830 C831 1.396 . S
C830 C835 1.390 . S
C831 C825 1.465 . S
C831 C830 1.396 . S
C831 C832 1.399 . S
C832 H818 0.929 . S
C832 C831 1.399 . S
C832 C833 1.385 . S
C833 H819 0.931 . S
C833 C832 1.385 . S
C833 C834 1.389 . S
C834 C833 1.389 . S
C834 C835 1.387 . S
C835 H820 0.930 . S
C835 C830 1.390 . S
C835 C834 1.387 . S
C201 C9 1.948 . S
C213 C107 1.766 . S
C228 C21 1.548 . S
C240 C141 1.458 . S
C267 C153 1.160 . S
C255 C30 1.197 . S
C282 C43 1.212 . S
C294 C187 1.236 1_655 S
C321 C144 1.355 . S
C309 C4 1.455 . S
C348 C124 1.871 . S
C336 C22 1.991 . S
C375 C171 1.177 . S
C363 C34 1.208 . S
C402 C162 1.344 . S
C390 C48 1.383 . S
C417 C8 1.624 . S
C429 C170 1.543 . S
C456 C132 1.442 . S
C444 C35 1.506 . S
C471 C47 1.588 . S
C483 C108 1.457 . S
C498 C17 1.346 . S
C510 C165 1.332 . S
C537 C123 1.599 . S
C525 C60 1.622 . S
C552 C74 1.835 . S
C564 C145 1.775 . S
C579 C82 1.220 . S
C591 C150 1.181 . S
C606 C100 1.827 . S
C618 C183 1.772 . S
C633 C61 1.874 . S
C645 C128 1.785 1_556 S
C672 C120 1.629 . S
C660 C73 1.671 . S
C699 C174 1.469 . S
C687 C87 1.623 . S
C726 C166 1.075 . S
C714 C95 1.156 . S
C741 C56 1.604 1_455 S
C753 C186 1.572 . S
C780 C129 1.623 . S
C768 C86 1.721 . S
C807 C111 1.417 . S
C795 C99 1.506 . S
C822 C69 1.515 . S
C834 C149 1.445 . S
