# Generated by pormake.
# Topology pto, (3,4)-cn, num edge types: 1
# Building blocks:
#     Node 0, Type 0, BuildingBlock: BELTOD_clean_linker_0, # of connection points: 3
#     Node 1, Type 0, BuildingBlock: BELTOD_clean_linker_0, # of connection points: 3
#     Node 2, Type 0, BuildingBlock: BELTOD_clean_linker_0, # of connection points: 3
#     Node 3, Type 0, BuildingBlock: BELTOD_clean_linker_0, # of connection points: 3
#     Node 4, Type 0, BuildingBlock: BELTOD_clean_linker_0, # of connection points: 3
#     Node 5, Type 0, BuildingBlock: BELTOD_clean_linker_0, # of connection points: 3
#     Node 6, Type 0, BuildingBlock: BELTOD_clean_linker_0, # of connection points: 3
#     Node 7, Type 0, BuildingBlock: BELTOD_clean_linker_0, # of connection points: 3
#     Node 8, Type 1, BuildingBlock: KOZSID_clean_sbu_0, # of connection points: 4
#     Node 9, Type 1, BuildingBlock: KOZSID_clean_sbu_0, # of connection points: 4
#     Node 10, Type 1, BuildingBlock: KOZSID_clean_sbu_0, # of connection points: 4
#     Node 11, Type 1, BuildingBlock: KOZSID_clean_sbu_0, # of connection points: 4
#     Node 12, Type 1, BuildingBlock: KOZSID_clean_sbu_0, # of connection points: 4
#     Node 13, Type 1, BuildingBlock: KOZSID_clean_sbu_0, # of connection points: 4
#     Edge 14, Type (0, 1), BuildingBlock: KIFKEQ_clean_linker_1, # of connection points: 2
#     Edge 15, Type (0, 1), BuildingBlock: KIFKEQ_clean_linker_1, # of connection points: 2
#     Edge 16, Type (0, 1), BuildingBlock: KIFKEQ_clean_linker_1, # of connection points: 2
#     Edge 17, Type (0, 1), BuildingBlock: KIFKEQ_clean_linker_1, # of connection points: 2
#     Edge 18, Type (0, 1), BuildingBlock: KIFKEQ_clean_linker_1, # of connection points: 2
#     Edge 19, Type (0, 1), BuildingBlock: KIFKEQ_clean_linker_1, # of connection points: 2
#     Edge 20, Type (0, 1), BuildingBlock: KIFKEQ_clean_linker_1, # of connection points: 2
#     Edge 21, Type (0, 1), BuildingBlock: KIFKEQ_clean_linker_1, # of connection points: 2
#     Edge 22, Type (0, 1), BuildingBlock: KIFKEQ_clean_linker_1, # of connection points: 2
#     Edge 23, Type (0, 1), BuildingBlock: KIFKEQ_clean_linker_1, # of connection points: 2
#     Edge 24, Type (0, 1), BuildingBlock: KIFKEQ_clean_linker_1, # of connection points: 2
#     Edge 25, Type (0, 1), BuildingBlock: KIFKEQ_clean_linker_1, # of connection points: 2
#     Edge 26, Type (0, 1), BuildingBlock: KIFKEQ_clean_linker_1, # of connection points: 2
#     Edge 27, Type (0, 1), BuildingBlock: KIFKEQ_clean_linker_1, # of connection points: 2
#     Edge 28, Type (0, 1), BuildingBlock: KIFKEQ_clean_linker_1, # of connection points: 2
#     Edge 29, Type (0, 1), BuildingBlock: KIFKEQ_clean_linker_1, # of connection points: 2
#     Edge 30, Type (0, 1), BuildingBlock: KIFKEQ_clean_linker_1, # of connection points: 2
#     Edge 31, Type (0, 1), BuildingBlock: KIFKEQ_clean_linker_1, # of connection points: 2
#     Edge 32, Type (0, 1), BuildingBlock: KIFKEQ_clean_linker_1, # of connection points: 2
#     Edge 33, Type (0, 1), BuildingBlock: KIFKEQ_clean_linker_1, # of connection points: 2
#     Edge 34, Type (0, 1), BuildingBlock: KIFKEQ_clean_linker_1, # of connection points: 2
#     Edge 35, Type (0, 1), BuildingBlock: KIFKEQ_clean_linker_1, # of connection points: 2
#     Edge 36, Type (0, 1), BuildingBlock: KIFKEQ_clean_linker_1, # of connection points: 2
#     Edge 37, Type (0, 1), BuildingBlock: KIFKEQ_clean_linker_1, # of connection points: 2
# Relax obj value: 0.000
# Max RMSD: 0.028
# Mean RMSD: 0.010
data_MOF--net-pto--node1-KOZSID_clean_sbu_0--node2-BELTOD_clean_linker_0--edge1-KIFKEQ_clean_linker_1
_symmetry_space_group_name_H-M    P1
_symmetry_Int_Tables_number       1
_symmetry_cell_setting            triclinic
loop_
_symmetry_equiv_pos_as_xyz
'x, y, z'
_cell_length_a     44.073366
_cell_length_b     59.692961
_cell_length_c     51.831997
_cell_angle_alpha  86.972852
_cell_angle_beta   89.305491
_cell_angle_gamma 95.115333
loop_
_atom_site_label
_atom_site_type_symbol
_atom_site_fract_x
_atom_site_fract_y
_atom_site_fract_z
_atom_type_partial_charge
P0 P 0.30969 0.28224 0.33546 0.0
H1 H 0.35178 0.31239 0.30338 0.0
H2 H 0.37373 0.30985 0.26021 0.0
H3 H 0.32075 0.24607 0.25286 0.0
H4 H 0.29843 0.24901 0.29587 0.0
H5 H 0.29123 0.31279 0.37353 0.0
H6 H 0.25221 0.33929 0.37389 0.0
H7 H 0.221 0.31741 0.29976 0.0
H8 H 0.26082 0.29131 0.29931 0.0
H9 H 0.34513 0.24577 0.35226 0.0
H10 H 0.25007 0.25741 0.34905 0.0
O11 O 0.33819 0.29343 0.35294 0.0
H12 H 0.33165 0.20817 0.37216 0.0
H13 H 0.23626 0.21956 0.36859 0.0
C14 C 0.32404 0.28067 0.30301 0.0
C15 C 0.34487 0.29789 0.29243 0.0
C16 C 0.35749 0.29636 0.2678 0.0
C17 C 0.34933 0.2776 0.2532 0.0
C18 C 0.32748 0.26076 0.26354 0.0
C19 C 0.31487 0.26233 0.28822 0.0
C20 C 0.27931 0.30047 0.33615 0.0
C21 C 0.27599 0.3137 0.35735 0.0
C22 C 0.25344 0.32873 0.35763 0.0
C23 C 0.23351 0.33063 0.33677 0.0
C24 C 0.23631 0.31671 0.31591 0.0
C25 C 0.25898 0.30171 0.31566 0.0
C26 C 0.29867 0.25446 0.34955 0.0
C27 C 0.32132 0.24016 0.35581 0.0
C28 C 0.31354 0.21859 0.36698 0.0
C29 C 0.28285 0.21082 0.372 0.0
C30 C 0.26012 0.22513 0.3653 0.0
C31 C 0.26798 0.24676 0.35406 0.0
P32 P 0.2826 0.75667 0.70381 0.0
H33 H 0.23512 0.74419 0.66738 0.0
H34 H 0.19276 0.71465 0.66909 0.0
H35 H 0.21381 0.69711 0.74842 0.0
H36 H 0.2556 0.72676 0.74671 0.0
H37 H 0.31419 0.78416 0.66186 0.0
H38 H 0.3054 0.82003 0.6403 0.0
H39 H 0.22768 0.8248 0.69093 0.0
H40 H 0.23555 0.78785 0.71118 0.0
H41 H 0.32809 0.7325 0.73108 0.0
H42 H 0.27507 0.7881 0.74512 0.0
O43 O 0.30655 0.74438 0.68505 0.0
H44 H 0.35129 0.73601 0.77333 0.0
H45 H 0.29792 0.79153 0.78761 0.0
C46 C 0.24832 0.73787 0.70695 0.0
C47 C 0.23015 0.73429 0.6853 0.0
C48 C 0.20614 0.71727 0.68623 0.0
C49 C 0.19999 0.70344 0.70886 0.0
C50 C 0.21766 0.70762 0.7308 0.0
C51 C 0.24169 0.7246 0.72981 0.0
C52 C 0.2755 0.78332 0.68811 0.0
C53 C 0.29509 0.79281 0.66821 0.0
C54 C 0.2902 0.81358 0.65606 0.0
C55 C 0.26598 0.82565 0.66395 0.0
C56 C 0.24635 0.81599 0.68402 0.0
C57 C 0.25097 0.79494 0.69584 0.0
C58 C 0.30035 0.76035 0.73465 0.0
C59 C 0.3216 0.7456 0.74316 0.0
C60 C 0.33463 0.74747 0.76746 0.0
C61 C 0.32649 0.76407 0.78385 0.0
C62 C 0.305 0.77877 0.7753 0.0
C63 C 0.29189 0.77682 0.75097 0.0
P64 P 0.82578 0.78938 0.27852 0.0
H65 H 0.86658 0.82266 0.30286 0.0
H66 H 0.85885 0.84898 0.33631 0.0
H67 H 0.76613 0.81977 0.34779 0.0
H68 H 0.77403 0.79337 0.31405 0.0
H69 H 0.86401 0.76087 0.25161 0.0
H70 H 0.88444 0.72518 0.26343 0.0
H71 H 0.83683 0.72238 0.33703 0.0
H72 H 0.81633 0.75843 0.32497 0.0
H73 H 0.8011 0.81816 0.23871 0.0
H74 H 0.77444 0.75409 0.27857 0.0
O75 O 0.85242 0.8033 0.25913 0.0
H76 H 0.75603 0.81401 0.21208 0.0
H77 H 0.7285 0.75003 0.25243 0.0
C78 C 0.82069 0.80641 0.30561 0.0
C79 C 0.84462 0.8218 0.31263 0.0
C80 C 0.84015 0.8369 0.33169 0.0
C81 C 0.81174 0.83668 0.34435 0.0
C82 C 0.78824 0.82035 0.3383 0.0
C83 C 0.79269 0.80533 0.319 0.0
C84 C 0.83928 0.76254 0.28766 0.0
C85 C 0.85805 0.75268 0.27035 0.0
C86 C 0.86978 0.73229 0.27716 0.0
C87 C 0.86265 0.72116 0.30133 0.0
C88 C 0.8428 0.73063 0.31831 0.0
C89 C 0.83121 0.75124 0.31152 0.0
C90 C 0.7914 0.78623 0.26019 0.0
C91 C 0.7854 0.80321 0.24179 0.0
C92 C 0.75939 0.8009 0.22673 0.0
C93 C 0.73857 0.78164 0.23002 0.0
C94 C 0.74428 0.76489 0.24908 0.0
C95 C 0.77048 0.76721 0.26411 0.0
P96 P 0.80924 0.24248 0.79102 0.0
H97 H 0.79879 0.22207 0.84318 0.0
H98 H 0.75671 0.22199 0.87424 0.0
H99 H 0.70624 0.25893 0.81796 0.0
H100 H 0.74857 0.25881 0.78682 0.0
H101 H 0.83803 0.20148 0.78147 0.0
H102 H 0.83124 0.17394 0.74858 0.0
H103 H 0.76034 0.21059 0.71416 0.0
H104 H 0.76713 0.2382 0.74761 0.0
H105 H 0.80596 0.28613 0.81273 0.0
H106 H 0.83203 0.26106 0.73995 0.0
O107 O 0.83989 0.23685 0.80795 0.0
H108 H 0.82335 0.32435 0.79705 0.0
H109 H 0.84871 0.29943 0.72373 0.0
C110 C 0.77693 0.24073 0.81285 0.0
C111 C 0.77865 0.23008 0.83745 0.0
C112 C 0.75461 0.23013 0.85525 0.0
C113 C 0.72829 0.24069 0.84867 0.0
C114 C 0.72616 0.25058 0.82357 0.0
C115 C 0.75033 0.25059 0.8058 0.0
C116 C 0.80328 0.22202 0.76683 0.0
C117 C 0.82103 0.20369 0.76688 0.0
C118 C 0.81722 0.18796 0.74794 0.0
C119 C 0.79548 0.19019 0.72855 0.0
C120 C 0.7772 0.20835 0.72888 0.0
C121 C 0.78111 0.22416 0.7479 0.0
C122 C 0.81701 0.27079 0.77732 0.0
C123 C 0.8146 0.28894 0.79306 0.0
C124 C 0.82453 0.31085 0.78402 0.0
C125 C 0.83737 0.31506 0.75905 0.0
C126 C 0.83917 0.29681 0.74312 0.0
C127 C 0.8293 0.27485 0.75227 0.0
P128 P 0.80493 0.79035 0.78143 0.0
H129 H 0.80299 0.78484 0.83754 0.0
H130 H 0.76118 0.77873 0.86918 0.0
H131 H 0.69644 0.77657 0.8072 0.0
H132 H 0.73859 0.78285 0.77558 0.0
H133 H 0.85637 0.76638 0.79853 0.0
H134 H 0.87347 0.72999 0.78893 0.0
H135 H 0.79788 0.71859 0.73752 0.0
H136 H 0.78081 0.75541 0.74725 0.0
H137 H 0.76944 0.82908 0.7768 0.0
H138 H 0.82046 0.79098 0.72593 0.0
O139 O 0.83334 0.80509 0.79572 0.0
H140 H 0.76129 0.85604 0.74116 0.0
H141 H 0.81149 0.81742 0.68986 0.0
C142 C 0.7738 0.78491 0.8043 0.0
C143 C 0.77979 0.78309 0.83076 0.0
C144 C 0.75587 0.7794 0.84882 0.0
C145 C 0.72545 0.77732 0.84071 0.0
C146 C 0.71959 0.77848 0.81406 0.0
C147 C 0.74362 0.78204 0.79599 0.0
C148 C 0.81769 0.76378 0.77318 0.0
C149 C 0.84355 0.75619 0.78503 0.0
C150 C 0.85317 0.73526 0.77969 0.0
C151 C 0.83699 0.7214 0.76249 0.0
C152 C 0.81096 0.72901 0.75064 0.0
C153 C 0.8012 0.74998 0.75619 0.0
C154 C 0.79478 0.80765 0.7539 0.0
C155 C 0.77809 0.82613 0.75775 0.0
C156 C 0.77341 0.84155 0.73728 0.0
C157 C 0.7856 0.8389 0.71253 0.0
C158 C 0.80196 0.8201 0.70868 0.0
C159 C 0.80677 0.80475 0.72925 0.0
P160 P 0.83097 0.24147 0.28375 0.0
H161 H 0.88451 0.25898 0.31082 0.0
H162 H 0.90191 0.29654 0.32426 0.0
H163 H 0.81713 0.32087 0.29892 0.0
H164 H 0.8001 0.28332 0.28522 0.0
H165 H 0.83377 0.1931 0.2838 0.0
H166 H 0.82569 0.16282 0.31739 0.0
H167 H 0.8042 0.21121 0.37245 0.0
H168 H 0.81187 0.24143 0.33848 0.0
H169 H 0.82593 0.2589 0.23079 0.0
H170 H 0.76548 0.22704 0.29055 0.0
O171 O 0.86065 0.23522 0.26606 0.0
H172 H 0.78327 0.26021 0.20127 0.0
H173 H 0.72268 0.22779 0.26095 0.0
C174 C 0.84128 0.26845 0.29669 0.0
C175 C 0.86957 0.27237 0.30843 0.0
C176 C 0.87939 0.29383 0.31624 0.0
C177 C 0.86101 0.31179 0.31246 0.0
C178 C 0.83205 0.3075 0.30168 0.0
C179 C 0.82223 0.28599 0.29392 0.0
C180 C 0.82406 0.21951 0.30882 0.0
C181 C 0.82739 0.19719 0.30312 0.0
C182 C 0.82288 0.17991 0.32237 0.0
C183 C 0.81469 0.18463 0.3477 0.0
C184 C 0.81044 0.20701 0.35314 0.0
C185 C 0.81502 0.22432 0.3338 0.0
C186 C 0.79896 0.24245 0.26262 0.0
C187 C 0.80346 0.25201 0.23747 0.0
C188 C 0.77906 0.25266 0.22059 0.0
C189 C 0.74959 0.24384 0.22862 0.0
C190 C 0.74504 0.2348 0.25416 0.0
C191 C 0.76954 0.23419 0.27106 0.0
P192 P 0.28972 0.29115 0.71133 0.0
H193 H 0.30617 0.27758 0.66025 0.0
H194 H 0.29518 0.24296 0.63787 0.0
H195 H 0.23935 0.21468 0.70275 0.0
H196 H 0.25029 0.24974 0.72505 0.0
H197 H 0.28498 0.33281 0.6801 0.0
H198 H 0.2465 0.3597 0.67765 0.0
H199 H 0.19025 0.31766 0.73318 0.0
H200 H 0.22886 0.29047 0.7351 0.0
H201 H 0.31894 0.2542 0.73699 0.0
H202 H 0.28218 0.31525 0.75855 0.0
O203 O 0.3216 0.30404 0.69778 0.0
H204 H 0.33809 0.24851 0.78062 0.0
H205 H 0.30036 0.30933 0.80241 0.0
C206 C 0.27959 0.266 0.69453 0.0
C207 C 0.29156 0.26397 0.6697 0.0
C208 C 0.28533 0.24411 0.65695 0.0
C209 C 0.2668 0.22592 0.66871 0.0
C210 C 0.25372 0.22838 0.69319 0.0
C211 C 0.26006 0.24833 0.706 0.0
C212 C 0.25998 0.30987 0.70815 0.0
C213 C 0.26434 0.32929 0.69168 0.0
C214 C 0.24234 0.34473 0.69038 0.0
C215 C 0.21547 0.34102 0.7055 0.0
C216 C 0.21062 0.321 0.72121 0.0
C217 C 0.2327 0.30551 0.72244 0.0
C218 C 0.2984 0.28481 0.74465 0.0
C219 C 0.31413 0.266 0.75133 0.0
C220 C 0.32507 0.26277 0.77635 0.0
C221 C 0.32078 0.27846 0.79509 0.0
C222 C 0.30434 0.29702 0.78842 0.0
C223 C 0.29354 0.30027 0.76338 0.0
P224 P 0.30518 0.75339 0.33205 0.0
H225 H 0.36249 0.77474 0.31053 0.0
H226 H 0.38236 0.78144 0.26638 0.0
H227 H 0.29551 0.75524 0.23727 0.0
H228 H 0.27603 0.74819 0.28164 0.0
H229 H 0.30662 0.76656 0.3852 0.0
H230 H 0.2909 0.79926 0.40621 0.0
H231 H 0.25712 0.82497 0.3335 0.0
H232 H 0.27399 0.79231 0.31242 0.0
H233 H 0.30935 0.70529 0.3299 0.0
H234 H 0.23805 0.74989 0.33524 0.0
O235 O 0.33495 0.74529 0.34861 0.0
H236 H 0.27129 0.67292 0.33064 0.0
H237 H 0.19972 0.71751 0.33646 0.0
C238 C 0.31807 0.76052 0.29933 0.0
C239 C 0.34769 0.77056 0.29463 0.0
C240 C 0.35894 0.77454 0.26933 0.0
C241 C 0.34062 0.76869 0.24823 0.0
C242 C 0.31041 0.75953 0.25308 0.0
C243 C 0.2992 0.75556 0.27844 0.0
C244 C 0.29203 0.77727 0.34719 0.0
C245 C 0.29591 0.77926 0.37376 0.0
C246 C 0.28657 0.79791 0.38581 0.0
C247 C 0.27271 0.81485 0.37159 0.0
C248 C 0.26814 0.81246 0.34498 0.0
C249 C 0.27767 0.79377 0.3329 0.0
C250 C 0.27654 0.7299 0.33308 0.0
C251 C 0.28547 0.70807 0.33152 0.0
C252 C 0.26367 0.68958 0.33203 0.0
C253 C 0.23245 0.69259 0.3339 0.0
C254 C 0.22356 0.71461 0.33492 0.0
C255 C 0.24546 0.73313 0.33444 0.0
C256 C 0.06802 0.54472 0.35847 0.0
C257 C 0.07825 0.55099 0.3825 0.0
C258 C 0.06065 0.53813 0.40049 0.0
C259 C 0.04084 0.52476 0.38649 0.0
N260 N 0.04482 0.52818 0.36062 0.0
Co261 Co 0.0211 0.51224 0.33314 0.0
N262 N 0.99402 0.49439 0.35961 0.0
C263 C 0.99401 0.49649 0.38546 0.0
C264 C 0.97298 0.48172 0.39867 0.0
C265 C 0.95895 0.46925 0.38018 0.0
C266 C 0.97241 0.47712 0.35671 0.0
N267 N 0.99812 0.49564 0.30571 0.0
C268 C 0.97667 0.47786 0.30802 0.0
C269 C 0.96813 0.47026 0.28407 0.0
C270 C 0.98498 0.48356 0.26599 0.0
C271 C 0.00288 0.49836 0.27985 0.0
N272 N 0.04752 0.53066 0.3066 0.0
C273 C 0.04548 0.53013 0.2806 0.0
C274 C 0.06572 0.54545 0.26735 0.0
C275 C 0.08141 0.55668 0.28597 0.0
C276 C 0.06981 0.54745 0.30959 0.0
N277 N 0.05001 0.48853 0.33454 0.0
C278 C 0.08976 0.45397 0.33603 0.0
C279 C 0.08384 0.4656 0.31281 0.0
C280 C 0.06405 0.48262 0.31249 0.0
C281 C 0.07556 0.46005 0.35856 0.0
C282 C 0.05605 0.47731 0.35741 0.0
N283 N 0.99226 0.53613 0.33167 0.0
C284 C 0.96389 0.5621 0.3064 0.0
C285 C 0.95798 0.57395 0.32818 0.0
C286 C 0.96794 0.56565 0.35204 0.0
C287 C 0.9847 0.54679 0.35335 0.0
C288 C 0.98086 0.54346 0.30855 0.0
H289 H 0.99193 0.54152 0.37206 0.0
H290 H 0.98495 0.53562 0.29107 0.0
H291 H 0.06029 0.49062 0.29412 0.0
H292 H 0.04604 0.48125 0.37526 0.0
C293 C 0.01658 0.51035 0.39696 0.0
C294 C 0.08021 0.55561 0.33426 0.0
C295 C 0.96496 0.46694 0.3324 0.0
C296 C 0.02474 0.51474 0.26922 0.0
H297 H 0.09616 0.56387 0.38657 0.0
H298 H 0.06158 0.53892 0.42129 0.0
H299 H 0.96924 0.47959 0.41936 0.0
H300 H 0.94143 0.45547 0.3836 0.0
H301 H 0.95189 0.45626 0.28006 0.0
H302 H 0.9847 0.48228 0.24524 0.0
H303 H 0.06862 0.54821 0.24663 0.0
H304 H 0.0992 0.57026 0.28256 0.0
H305 H 0.094 0.46135 0.29478 0.0
H306 H 0.07972 0.45171 0.37708 0.0
H307 H 0.95585 0.56736 0.28756 0.0
H308 H 0.96386 0.57412 0.36955 0.0
C309 C 0.0472 0.55112 0.74203 0.0
C310 C 0.06116 0.55774 0.76461 0.0
C311 C 0.04748 0.54433 0.78431 0.0
C312 C 0.02613 0.53029 0.77269 0.0
N313 N 0.02561 0.53368 0.74666 0.0
Co314 Co 0.99748 0.51748 0.7222 0.0
N315 N 0.97646 0.49844 0.75135 0.0
C316 C 0.98235 0.49932 0.77687 0.0
C317 C 0.96483 0.48362 0.79213 0.0
C318 C 0.94709 0.47167 0.77534 0.0
C319 C 0.95497 0.48078 0.75072 0.0
N320 N 0.96908 0.50144 0.69783 0.0
C321 C 0.94821 0.4835 0.70236 0.0
C322 C 0.93422 0.47691 0.67978 0.0
C323 C 0.94688 0.49105 0.66025 0.0
C324 C 0.96785 0.50536 0.67194 0.0
N325 N 0.0188 0.53632 0.69303 0.0
C326 C 0.01275 0.53541 0.66755 0.0
C327 C 0.03053 0.55083 0.65216 0.0
C328 C 0.04888 0.56247 0.66878 0.0
C329 C 0.04125 0.55338 0.69347 0.0
N330 N 0.02662 0.49426 0.71853 0.0
C331 C 0.06736 0.46075 0.71382 0.0
C332 C 0.05324 0.46977 0.69213 0.0
C333 C 0.03317 0.48642 0.69488 0.0
C334 C 0.06062 0.46876 0.73787 0.0
C335 C 0.04042 0.48533 0.73976 0.0
N336 N 0.96845 0.54086 0.72593 0.0
C337 C 0.93966 0.57021 0.70713 0.0
C338 C 0.93374 0.57786 0.73154 0.0
C339 C 0.94397 0.56586 0.75309 0.0
C340 C 0.96098 0.54759 0.74988 0.0
C341 C 0.95686 0.55176 0.70479 0.0
H342 H 0.96838 0.53953 0.76713 0.0
H343 H 0.96108 0.547 0.68566 0.0
H344 H 0.02321 0.49268 0.67763 0.0
H345 H 0.03621 0.49053 0.75867 0.0
C346 C 0.00563 0.51427 0.78576 0.0
C347 C 0.05476 0.56233 0.71679 0.0
C348 C 0.94247 0.47133 0.72732 0.0
C349 C 0.98877 0.52102 0.65887 0.0
H350 H 0.07909 0.57111 0.76667 0.0
H351 H 0.05218 0.54499 0.80472 0.0
H352 H 0.96551 0.48079 0.8129 0.0
H353 H 0.93074 0.45748 0.78054 0.0
H354 H 0.91733 0.4629 0.67747 0.0
H355 H 0.94228 0.49037 0.63983 0.0
H356 H 0.0296 0.55373 0.63141 0.0
H357 H 0.06543 0.57646 0.66334 0.0
H358 H 0.05796 0.46427 0.67302 0.0
H359 H 0.07058 0.46208 0.75533 0.0
H360 H 0.93204 0.57887 0.68983 0.0
H361 H 0.93921 0.57072 0.77247 0.0
C362 C 0.27295 0.9887 0.56301 0.0
C363 C 0.30028 0.98442 0.57451 0.0
C364 C 0.32265 0.99771 0.56122 0.0
C365 C 0.30775 0.00947 0.54264 0.0
N366 N 0.27714 0.00478 0.54356 0.0
Co367 Co 0.24662 0.0183 0.52054 0.0
N368 N 0.27971 0.03534 0.49863 0.0
C369 C 0.3101 0.03421 0.50088 0.0
C370 C 0.32713 0.04801 0.48315 0.0
C371 C 0.30642 0.0588 0.46893 0.0
C372 C 0.27785 0.05096 0.47891 0.0
N373 N 0.21611 0.03264 0.49815 0.0
C374 C 0.22039 0.04926 0.47925 0.0
C375 C 0.19296 0.05561 0.46975 0.0
C376 C 0.17046 0.04282 0.48347 0.0
C377 C 0.18542 0.0295 0.5005 0.0
N378 N 0.2136 1.00044 0.54185 0.0
C379 C 0.18322 1.00034 0.5384 0.0
C380 C 0.16624 0.98478 0.55422 0.0
C381 C 0.18701 0.97391 0.56826 0.0
C382 C 0.21561 0.98366 0.56033 0.0
N383 N 0.24609 0.04394 0.54349 0.0
C384 C 0.24555 0.0827 0.57231 0.0
C385 C 0.21859 0.06938 0.56794 0.0
C386 C 0.21936 0.05022 0.55353 0.0
C387 C 0.2728 0.07581 0.56285 0.0
C388 C 0.27258 0.05655 0.54878 0.0
N389 N 0.2472 0.9927 0.49757 0.0
C390 C 0.22099 0.96503 0.4712 0.0
C391 C 0.24771 0.95449 0.46792 0.0
C392 C 0.27428 0.96375 0.47908 0.0
C393 C 0.27359 0.98278 0.49349 0.0
C394 C 0.22119 0.98391 0.48613 0.0
H395 H 0.29468 0.98897 0.50138 0.0
H396 H 0.19996 0.99088 0.48846 0.0
H397 H 0.19801 0.041 0.55038 0.0
H398 H 0.29416 0.05244 0.54207 0.0
C399 C 0.32196 0.02256 0.52201 0.0
C400 C 0.24409 0.97566 0.56968 0.0
C401 C 0.24986 0.06011 0.47043 0.0
C402 C 0.17141 0.01422 0.51923 0.0
H403 H 0.30376 0.97222 0.59015 0.0
H404 H 0.34699 0.99792 0.56396 0.0
H405 H 0.35171 0.05075 0.4816 0.0
H406 H 0.31177 0.07162 0.4536 0.0
H407 H 0.18963 0.06846 0.45478 0.0
H408 H 0.14611 0.04349 0.48163 0.0
H409 H 0.14172 0.9812 0.55482 0.0
H410 H 0.18156 0.95995 0.58216 0.0
H411 H 0.1969 0.07405 0.57496 0.0
H412 H 0.29438 0.0853 0.56625 0.0
H413 H 0.19984 0.95837 0.46292 0.0
H414 H 0.29564 0.95635 0.47666 0.0
C415 C 0.46026 0.79413 0.06155 0.0
C416 C 0.45156 0.81499 0.06778 0.0
C417 C 0.46902 0.83074 0.05277 0.0
C418 C 0.48718 0.81864 0.0382 0.0
N419 N 0.48211 0.79607 0.04275 0.0
Co420 Co 0.50359 0.77219 0.02605 0.0
N421 N 0.53186 0.79542 0.00634 0.0
C422 C 0.53256 0.81807 0.00736 0.0
C423 C 0.55454 0.82966 0.9917 0.0
C424 C 0.5687 0.81347 0.97986 0.0
C425 C 0.55442 0.79286 0.98901 0.0
N426 N 0.52469 0.7483 0.00896 0.0
C427 C 0.54749 0.75025 0.99096 0.0
C428 C 0.55489 0.72936 0.98361 0.0
C429 C 0.53596 0.71361 0.99731 0.0
C430 C 0.51814 0.72573 0.01215 0.0
N431 N 0.47575 0.74899 0.04626 0.0
C432 C 0.47537 0.72633 0.04558 0.0
C433 C 0.45501 0.71474 0.06269 0.0
C434 C 0.44189 0.73093 0.0754 0.0
C435 C 0.45495 0.75156 0.06514 0.0
N436 N 0.47431 0.77247 0.99711 0.0
C437 C 0.43659 0.77255 0.95345 0.0
C438 C 0.44138 0.75248 0.96728 0.0
C439 C 0.46006 0.75283 0.98888 0.0
C440 C 0.45023 0.79264 0.96238 0.0
C441 C 0.46873 0.79223 0.98406 0.0
N442 N 0.5329 0.77191 0.05485 0.0
C443 C 0.56289 0.75156 0.08535 0.0
C444 C 0.57408 0.77158 0.09604 0.0
C445 C 0.56432 0.79176 0.08576 0.0
C446 C 0.54404 0.79156 0.06527 0.0
C447 C 0.54235 0.75209 0.06503 0.0
H448 H 0.53773 0.80752 0.05815 0.0
H449 H 0.53437 0.73625 0.05795 0.0
H450 H 0.46299 0.73694 0.99828 0.0
H451 H 0.47855 0.80811 0.98964 0.0
C452 C 0.51115 0.82798 0.02206 0.0
C453 C 0.4481 0.77308 0.07487 0.0
C454 C 0.56253 0.77142 0.98004 0.0
C455 C 0.49531 0.71644 0.02943 0.0
H456 H 0.43485 0.81846 0.08217 0.0
H457 H 0.46922 0.84887 0.0531 0.0
H458 H 0.5593 0.84773 0.98884 0.0
H459 H 0.58715 0.81649 0.96579 0.0
H460 H 0.57211 0.72588 0.96967 0.0
H461 H 0.53519 0.69549 0.99649 0.0
H462 H 0.45081 0.69667 0.06603 0.0
H463 H 0.42513 0.72782 0.09089 0.0
H464 H 0.4315 0.73642 0.9611 0.0
H465 H 0.44673 0.8087 0.95267 0.0
H466 H 0.56961 0.73548 0.09284 0.0
H467 H 0.5727 0.80773 0.09321 0.0
C468 C 0.81057 0.98141 0.5748 0.0
C469 C 0.83748 0.97572 0.58607 0.0
C470 C 0.86052 0.98925 0.57402 0.0
C471 C 0.84646 0.00248 0.55631 0.0
N472 N 0.81575 0.99837 0.55641 0.0
Co473 Co 0.78635 0.01414 0.53416 0.0
N474 N 0.8205 0.03275 0.515 0.0
C475 C 0.85075 0.0318 0.51857 0.0
C476 C 0.8687 0.04655 0.50252 0.0
C477 C 0.84879 0.05764 0.48778 0.0
C478 C 0.8197 0.04895 0.49572 0.0
N479 N 0.75696 0.03027 0.5123 0.0
C480 C 0.76217 0.04711 0.49374 0.0
C481 C 0.73517 0.05383 0.48364 0.0
C482 C 0.71206 0.04093 0.49642 0.0
C483 C 0.72618 0.02713 0.51348 0.0
N484 N 0.75226 0.99512 0.55291 0.0
C485 C 0.72207 0.9956 0.5488 0.0
C486 C 0.70418 0.97983 0.56363 0.0
C487 C 0.72411 0.96839 0.57795 0.0
C488 C 0.75315 0.97801 0.57112 0.0
N489 N 0.78488 0.03752 0.56004 0.0
C490 C 0.78332 0.07056 0.59698 0.0
C491 C 0.75641 0.0601 0.58749 0.0
C492 C 0.7577 0.04372 0.56923 0.0
C493 C 0.81094 0.06435 0.58745 0.0
C494 C 0.8112 0.04802 0.56919 0.0
N495 N 0.78786 0.99076 0.50837 0.0
C496 C 0.76287 0.96564 0.4784 0.0
C497 C 0.79042 0.95698 0.4724 0.0
C498 C 0.81658 0.96555 0.48484 0.0
C499 C 0.81483 0.98231 0.50242 0.0
C500 C 0.76211 0.98234 0.49632 0.0
H501 H 0.83566 0.98808 0.51104 0.0
H502 H 0.74043 0.98818 0.50008 0.0
H503 H 0.73642 0.03628 0.5629 0.0
H504 H 0.83304 0.04427 0.56276 0.0
C505 C 0.86157 0.01778 0.53814 0.0
C506 C 0.78084 0.96983 0.58184 0.0
C507 C 0.7921 0.05715 0.48489 0.0
C508 C 0.71122 0.01078 0.53051 0.0
H509 H 0.84022 0.9629 0.6012 0.0
H510 H 0.8847 0.98911 0.57739 0.0
H511 H 0.89332 0.04923 0.50195 0.0
H512 H 0.85501 0.07089 0.47311 0.0
H513 H 0.73247 0.0667 0.46855 0.0
H514 H 0.68785 0.04152 0.49357 0.0
H515 H 0.6796 0.97676 0.5637 0.0
H516 H 0.71792 0.95433 0.59159 0.0
H517 H 0.73441 0.06424 0.5944 0.0
H518 H 0.83245 0.07224 0.59381 0.0
H519 H 0.74198 0.95981 0.4691 0.0
H520 H 0.83843 0.9592 0.48131 0.0
C521 C 0.47045 0.28294 0.06858 0.0
C522 C 0.46644 0.30453 0.07592 0.0
C523 C 0.48543 0.31894 0.06055 0.0
C524 C 0.49997 0.30541 0.04482 0.0
N525 N 0.49114 0.2832 0.04895 0.0
Co526 Co 0.50753 0.25754 0.03126 0.0
N527 N 0.53768 0.27862 0.01047 0.0
C528 C 0.5415 0.30134 0.01118 0.0
C529 C 0.56417 0.31125 0.99498 0.0
C530 C 0.57549 0.29387 0.98308 0.0
C531 C 0.55886 0.27426 0.99265 0.0
N532 N 0.52395 0.23187 0.01365 0.0
C533 C 0.54633 0.23194 0.99544 0.0
C534 C 0.55001 0.21033 0.98793 0.0
C535 C 0.52941 0.1961 0.00199 0.0
C536 C 0.51426 0.20974 0.01713 0.0
N537 N 0.47744 0.23649 0.0521 0.0
C538 C 0.47282 0.21386 0.05083 0.0
C539 C 0.45116 0.20392 0.068 0.0
C540 C 0.44162 0.22118 0.08132 0.0
C541 C 0.45817 0.2407 0.07148 0.0
N542 N 0.47725 0.2604 0.00331 0.0
C543 C 0.43833 0.26433 0.96073 0.0
C544 C 0.44178 0.24338 0.9731 0.0
C545 C 0.46112 0.24182 0.99419 0.0
C546 C 0.45377 0.28334 0.97067 0.0
C547 C 0.47281 0.28103 0.99179 0.0
N548 N 0.53782 0.25469 0.05901 0.0
C549 C 0.56415 0.23168 0.08965 0.0
C550 C 0.58112 0.25068 0.09826 0.0
C551 C 0.57587 0.27172 0.08693 0.0
C552 C 0.55432 0.27332 0.06754 0.0
C553 C 0.5428 0.23405 0.07019 0.0
H554 H 0.55151 0.28982 0.05968 0.0
H555 H 0.53056 0.21895 0.06452 0.0
H556 H 0.463 0.22535 0.00246 0.0
H557 H 0.48398 0.29619 0.99817 0.0
C558 C 0.52345 0.31291 0.02729 0.0
C559 C 0.45543 0.26269 0.08177 0.0
C560 C 0.56414 0.25196 0.98423 0.0
C561 C 0.49055 0.20229 0.03447 0.0
H562 H 0.45189 0.30936 0.09125 0.0
H563 H 0.48895 0.33707 0.06131 0.0
H564 H 0.5716 0.329 0.99217 0.0
H565 H 0.59395 0.29548 0.96896 0.0
H566 H 0.56575 0.20535 0.97357 0.0
H567 H 0.52571 0.17799 0.00111 0.0
H568 H 0.44377 0.18618 0.07095 0.0
H569 H 0.4248 0.21957 0.09686 0.0
H570 H 0.43035 0.22811 0.96612 0.0
H571 H 0.4513 0.30004 0.96216 0.0
H572 H 0.56707 0.21502 0.09804 0.0
H573 H 0.58869 0.28694 0.09264 0.0
H574 H 0.19864 0.34258 0.37721 0.0
H575 H 0.21683 0.35738 0.2957 0.0
H576 H 0.16413 0.37227 0.37731 0.0
H577 H 0.18117 0.38627 0.29552 0.0
H578 H 0.14439 0.45348 0.31061 0.0
H579 H 0.17799 0.42322 0.31076 0.0
H580 H 0.11544 0.38247 0.36262 0.0
H581 H 0.082 0.41294 0.36268 0.0
C582 C 0.19519 0.35209 0.35928 0.0
C583 C 0.2107 0.34763 0.33648 0.0
C584 C 0.17509 0.36896 0.35927 0.0
C585 C 0.16992 0.38177 0.33645 0.0
C586 C 0.18494 0.37699 0.31354 0.0
C587 C 0.20509 0.36017 0.31357 0.0
C588 C 0.13773 0.43801 0.32193 0.0
C589 C 0.11049 0.43561 0.3366 0.0
C590 C 0.15696 0.42061 0.32196 0.0
C591 C 0.14939 0.40031 0.33658 0.0
C592 C 0.1222 0.39796 0.35139 0.0
C593 C 0.10302 0.41542 0.35144 0.0
H594 H 0.15847 0.68874 0.74727 0.0
H595 H 0.18911 0.67348 0.67122 0.0
H596 H 0.12297 0.65485 0.74889 0.0
H597 H 0.153 0.64004 0.6725 0.0
H598 H 0.1131 0.56829 0.69819 0.0
H599 H 0.14724 0.60308 0.69575 0.0
H600 H 0.0763 0.63853 0.72916 0.0
H601 H 0.04246 0.60355 0.73173 0.0
C602 C 0.15749 0.67823 0.73084 0.0
C603 C 0.17666 0.68381 0.70914 0.0
C604 C 0.13697 0.65892 0.73167 0.0
C605 C 0.13524 0.64469 0.71086 0.0
C606 C 0.15402 0.65049 0.68898 0.0
C607 C 0.17445 0.66983 0.68811 0.0
C608 C 0.10496 0.58361 0.70488 0.0
C609 C 0.07532 0.58347 0.71502 0.0
C610 C 0.12434 0.60351 0.70339 0.0
C611 C 0.11445 0.62361 0.71218 0.0
C612 C 0.08471 0.62332 0.72245 0.0
C613 C 0.06532 0.60341 0.72383 0.0
H614 H 0.83464 0.68159 0.32315 0.0
H615 H 0.92202 0.71295 0.29593 0.0
H616 H 0.85717 0.64585 0.33116 0.0
H617 H 0.94461 0.67762 0.30429 0.0
H618 H 0.96638 0.60698 0.28966 0.0
H619 H 0.94263 0.64203 0.28504 0.0
H620 H 0.8931 0.62554 0.35696 0.0
H621 H 0.91594 0.58966 0.36101 0.0
C622 C 0.85873 0.68091 0.31926 0.0
C623 C 0.87648 0.69996 0.30856 0.0
C624 C 0.87166 0.66047 0.32386 0.0
C625 C 0.90262 0.65875 0.31799 0.0
C626 C 0.92053 0.67814 0.30838 0.0
C627 C 0.90762 0.69843 0.30365 0.0
C628 C 0.95009 0.61058 0.30435 0.0
C629 C 0.94298 0.59536 0.32564 0.0
C630 C 0.93678 0.63091 0.30189 0.0
C631 C 0.91614 0.63676 0.32075 0.0
C632 C 0.90879 0.62152 0.34201 0.0
C633 C 0.92212 0.60105 0.34446 0.0
H634 H 0.89017 0.32691 0.73125 0.0
H635 H 0.81506 0.35552 0.76784 0.0
H636 H 0.91419 0.36457 0.72045 0.0
H637 H 0.8399 0.39318 0.75825 0.0
H638 H 0.88184 0.45961 0.72082 0.0
H639 H 0.85505 0.42177 0.72514 0.0
H640 H 0.94019 0.39414 0.74327 0.0
H641 H 0.96673 0.43186 0.73801 0.0
C642 C 0.87857 0.34121 0.73675 0.0
C643 C 0.85069 0.33812 0.75054 0.0
C644 C 0.89259 0.36285 0.73087 0.0
C645 C 0.87919 0.38195 0.73872 0.0
C646 C 0.85082 0.3789 0.75174 0.0
C647 C 0.83672 0.35726 0.75752 0.0
C648 C 0.89466 0.4453 0.72541 0.0
C649 C 0.92622 0.44841 0.7289 0.0
C650 C 0.8794 0.4237 0.72809 0.0
C651 C 0.89544 0.40485 0.73451 0.0
C652 C 0.92716 0.40815 0.73784 0.0
C653 C 0.94237 0.42971 0.73504 0.0
H654 H 0.23994 0.19859 0.41007 0.0
H655 H 0.30781 0.17154 0.36279 0.0
H656 H 0.22897 0.16175 0.43255 0.0
H657 H 0.29775 0.13501 0.38593 0.0
H658 H 0.25545 0.06686 0.41817 0.0
H659 H 0.26044 0.10296 0.39292 0.0
H660 H 0.25391 0.13798 0.46345 0.0
H661 H 0.2483 0.10178 0.48832 0.0
C662 C 0.25234 0.18475 0.40431 0.0
C663 C 0.27487 0.18807 0.3847 0.0
C664 C 0.24631 0.16369 0.41741 0.0
C665 C 0.26261 0.14543 0.41117 0.0
C666 C 0.28457 0.14862 0.3911 0.0
C667 C 0.29061 0.16966 0.37803 0.0
C668 C 0.25487 0.08236 0.42805 0.0
C669 C 0.25154 0.0818 0.455 0.0
C670 C 0.25788 0.10299 0.41373 0.0
C671 C 0.25765 0.1234 0.42616 0.0
C672 C 0.25377 0.12262 0.4532 0.0
C673 C 0.25074 0.10199 0.46748 0.0
H674 H 0.33709 0.72993 0.81894 0.0
H675 H 0.34741 0.80241 0.80726 0.0
H676 H 0.3623 0.73277 0.86038 0.0
H677 H 0.3718 0.8053 0.84916 0.0
H678 H 0.4485 0.79797 0.90838 0.0
H679 H 0.42011 0.79664 0.86838 0.0
H680 H 0.35525 0.74536 0.90395 0.0
H681 H 0.38359 0.74675 0.94407 0.0
C682 C 0.34468 0.74649 0.82526 0.0
C683 C 0.34042 0.76594 0.80972 0.0
C684 C 0.35881 0.74813 0.84916 0.0
C685 C 0.36909 0.76926 0.85808 0.0
C686 C 0.36442 0.78875 0.84272 0.0
C687 C 0.35018 0.78711 0.81884 0.0
C688 C 0.42792 0.78666 0.90783 0.0
C689 C 0.41837 0.77244 0.92946 0.0
C690 C 0.41164 0.7859 0.88487 0.0
C691 C 0.38544 0.77086 0.88294 0.0
C692 C 0.3756 0.75689 0.90468 0.0
C693 C 0.39186 0.75767 0.92767 0.0
H694 H 0.78475 0.83108 0.39254 0.0
H695 H 0.82661 0.8818 0.33768 0.0
H696 H 0.7785 0.86004 0.42341 0.0
H697 H 0.81966 0.91075 0.36795 0.0
H698 H 0.8359 0.95299 0.43693 0.0
H699 H 0.84001 0.92361 0.40687 0.0
H700 H 0.75211 0.89211 0.43297 0.0
H701 H 0.74886 0.92088 0.46436 0.0
C702 C 0.79231 0.84846 0.38702 0.0
C703 C 0.80652 0.85415 0.36286 0.0
C704 C 0.78864 0.86508 0.40463 0.0
C705 C 0.79885 0.88777 0.39832 0.0
C706 C 0.81224 0.89343 0.3738 0.0
C707 C 0.81616 0.87683 0.35638 0.0
C708 C 0.81758 0.93967 0.43657 0.0
C709 C 0.79212 0.93932 0.45326 0.0
C710 C 0.81973 0.92294 0.41898 0.0
C711 C 0.79632 0.90547 0.41731 0.0
C712 C 0.77073 0.90515 0.43387 0.0
C713 C 0.76867 0.92186 0.45164 0.0
H714 H 0.66649 0.23377 0.8425 0.0
H715 H 0.7346 0.25085 0.89912 0.0
H716 H 0.6264 0.23584 0.87504 0.0
H717 H 0.69472 0.25326 0.93147 0.0
H718 H 0.61825 0.23386 0.99015 0.0
H719 H 0.65737 0.23027 0.9571 0.0
H720 H 0.60215 0.26222 0.90006 0.0
H721 H 0.56274 0.26497 0.93316 0.0
C722 C 0.67287 0.23812 0.86185 0.0
C723 C 0.70371 0.242 0.86828 0.0
C724 C 0.64992 0.23935 0.8805 0.0
C725 C 0.6573 0.24463 0.90595 0.0
C726 C 0.68818 0.24868 0.91225 0.0
C727 C 0.71107 0.24734 0.89368 0.0
C728 C 0.6146 0.23996 0.97047 0.0
C729 C 0.58771 0.24967 0.96403 0.0
C730 C 0.637 0.23809 0.95158 0.0
C731 C 0.63301 0.24604 0.92589 0.0
C732 C 0.60585 0.25565 0.91953 0.0
C733 C 0.58339 0.2574 0.93844 0.0
H734 H 0.30974 0.85827 0.64503 0.0
H735 H 0.212 0.84447 0.65407 0.0
H736 H 0.30249 0.89388 0.62192 0.0
H737 H 0.20519 0.88094 0.63219 0.0
H738 H 0.22017 0.96192 0.61762 0.0
H739 H 0.22359 0.92529 0.64097 0.0
H740 H 0.27451 0.9032 0.57687 0.0
H741 H 0.27 0.93937 0.55321 0.0
C742 C 0.2867 0.86267 0.64206 0.0
C743 C 0.26146 0.84815 0.65123 0.0
C744 C 0.28264 0.8832 0.62897 0.0
C745 C 0.25331 0.89002 0.62521 0.0
C746 C 0.22805 0.87603 0.63498 0.0
C747 C 0.23204 0.85521 0.64765 0.0
C748 C 0.23149 0.949 0.60841 0.0
C749 C 0.24449 0.95323 0.58357 0.0
C750 C 0.23353 0.92817 0.62174 0.0
C751 C 0.24933 0.91154 0.61066 0.0
C752 C 0.26231 0.91581 0.58582 0.0
C753 C 0.2597 0.9364 0.57232 0.0
H754 H 0.71392 0.74317 0.20862 0.0
H755 H 0.70217 0.814 0.21274 0.0
H756 H 0.67195 0.73938 0.17854 0.0
H757 H 0.66153 0.81051 0.18157 0.0
H758 H 0.57352 0.79492 0.13998 0.0
H759 H 0.61072 0.79593 0.17445 0.0
H760 H 0.66206 0.74948 0.13456 0.0
H761 H 0.6244 0.74811 0.1005 0.0
C762 C 0.70225 0.75791 0.20329 0.0
C763 C 0.71161 0.77893 0.21302 0.0
C764 C 0.67843 0.7558 0.18573 0.0
C765 C 0.66344 0.77467 0.17739 0.0
C766 C 0.67228 0.79554 0.18768 0.0
C767 C 0.69594 0.79762 0.20533 0.0
C768 C 0.59277 0.78493 0.13864 0.0
C769 C 0.59612 0.77151 0.11749 0.0
C770 C 0.61414 0.78553 0.15836 0.0
C771 C 0.63955 0.77287 0.1573 0.0
C772 C 0.64257 0.75917 0.1363 0.0
C773 C 0.62104 0.75843 0.11669 0.0
H774 H 0.84106 0.1727 0.7023 0.0
H775 H 0.743 0.17033 0.70832 0.0
H776 H 0.83665 0.14402 0.67061 0.0
H777 H 0.73853 0.1414 0.67648 0.0
H778 H 0.74627 0.10507 0.59954 0.0
H779 H 0.74799 0.13448 0.63077 0.0
H780 H 0.82107 0.10409 0.67025 0.0
H781 H 0.81941 0.0749 0.63916 0.0
C782 C 0.81852 0.16595 0.69695 0.0
C783 C 0.79238 0.17362 0.70807 0.0
C784 C 0.81599 0.14947 0.67879 0.0
C785 C 0.78723 0.14018 0.67124 0.0
C786 C 0.76102 0.1483 0.68177 0.0
C787 C 0.76357 0.16487 0.7 0.0
C788 C 0.76246 0.10457 0.61507 0.0
C789 C 0.78292 0.08777 0.6167 0.0
C790 C 0.76346 0.12142 0.63295 0.0
C791 C 0.78492 0.1218 0.65283 0.0
C792 C 0.80475 0.10463 0.65482 0.0
C793 C 0.80378 0.08786 0.637 0.0
H794 H 0.40949 0.28715 0.24006 0.0
H795 H 0.32314 0.26273 0.20869 0.0
H796 H 0.43432 0.28348 0.19848 0.0
H797 H 0.34826 0.2583 0.16722 0.0
H798 H 0.39947 0.27752 0.08951 0.0
H799 H 0.37316 0.28101 0.13089 0.0
H800 H 0.44845 0.25413 0.1711 0.0
H801 H 0.47471 0.25116 0.12968 0.0
C802 C 0.39576 0.28108 0.22425 0.0
C803 C 0.36428 0.27533 0.22769 0.0
C804 C 0.41009 0.2787 0.20049 0.0
C805 C 0.39332 0.27051 0.17954 0.0
C806 C 0.3618 0.26483 0.18291 0.0
C807 C 0.34746 0.26716 0.20674 0.0
C808 C 0.41019 0.2724 0.1073 0.0
C809 C 0.43904 0.26425 0.10669 0.0
C810 C 0.39515 0.27424 0.13092 0.0
C811 C 0.40877 0.26794 0.15432 0.0
C812 C 0.43755 0.25947 0.15348 0.0
C813 C 0.45251 0.25762 0.12987 0.0
H814 H 0.85514 0.68992 0.79754 0.0
H815 H 0.84246 0.70242 0.71575 0.0
H816 H 0.87665 0.65481 0.78922 0.0
H817 H 0.86441 0.6672 0.70729 0.0
H818 H 0.88358 0.59178 0.70623 0.0
H819 H 0.85776 0.62574 0.71304 0.0
H820 H 0.92383 0.64498 0.77057 0.0
H821 H 0.9493 0.61128 0.7639 0.0
C822 C 0.85701 0.68515 0.77775 0.0
C823 C 0.84748 0.69908 0.75728 0.0
C824 C 0.8694 0.66504 0.77295 0.0
C825 C 0.87272 0.65835 0.74755 0.0
C826 C 0.86205 0.67181 0.72709 0.0
C827 C 0.8495 0.69198 0.73192 0.0
C828 C 0.8926 0.60336 0.72022 0.0
C829 C 0.91823 0.59867 0.73479 0.0
C830 C 0.87784 0.6228 0.72411 0.0
C831 C 0.88847 0.63792 0.74261 0.0
C832 C 0.91452 0.63342 0.75667 0.0
C833 C 0.92916 0.61407 0.75283 0.0
H834 H 0.89392 0.32557 0.3543 0.0
H835 H 0.8554 0.3507 0.2834 0.0
H836 H 0.91695 0.36339 0.36164 0.0
H837 H 0.87841 0.38837 0.29067 0.0
H838 H 0.90553 0.45743 0.31985 0.0
H839 H 0.87762 0.42018 0.31773 0.0
H840 H 0.95798 0.3891 0.34278 0.0
H841 H 0.98536 0.42642 0.34529 0.0
C842 C 0.89031 0.33917 0.34032 0.0
C843 C 0.87287 0.33508 0.31823 0.0
C844 C 0.90353 0.36083 0.34451 0.0
C845 C 0.89964 0.37892 0.3267 0.0
C846 C 0.88151 0.37493 0.30499 0.0
C847 C 0.86828 0.35329 0.30082 0.0
C848 C 0.91693 0.44254 0.32508 0.0
C849 C 0.94745 0.44454 0.33258 0.0
C850 C 0.90112 0.42126 0.32376 0.0
C851 C 0.91559 0.40162 0.32997 0.0
C852 C 0.946 0.40383 0.33817 0.0
C853 C 0.96176 0.42511 0.33948 0.0
H854 H 0.22799 0.38662 0.70589 0.0
H855 H 0.15291 0.33491 0.70559 0.0
H856 H 0.19225 0.41537 0.70641 0.0
H857 H 0.11697 0.36377 0.70707 0.0
H858 H 0.06269 0.42407 0.68387 0.0
H859 H 0.09831 0.39513 0.68083 0.0
H860 H 0.15613 0.42857 0.73644 0.0
H861 H 0.12122 0.45778 0.73878 0.0
C862 C 0.20383 0.38138 0.70578 0.0
C863 C 0.19333 0.35844 0.70561 0.0
C864 C 0.18332 0.39787 0.7064 0.0
C865 C 0.15174 0.39188 0.7069 0.0
C866 C 0.14116 0.36896 0.70648 0.0
C867 C 0.16174 0.35241 0.70592 0.0
C868 C 0.08318 0.42535 0.69521 0.0
C869 C 0.08909 0.44323 0.71158 0.0
C870 C 0.10341 0.40864 0.6937 0.0
C871 C 0.13007 0.40953 0.7084 0.0
C872 C 0.136 0.42748 0.72463 0.0
C873 C 0.11579 0.44411 0.7262 0.0
H874 H 0.17782 0.68827 0.30906 0.0
H875 H 0.23491 0.65205 0.36059 0.0
H876 H 0.14079 0.6553 0.30954 0.0
H877 H 0.19795 0.61913 0.36105 0.0
H878 H 0.14195 0.55716 0.33189 0.0
H879 H 0.17858 0.59055 0.33204 0.0
H880 H 0.10412 0.6326 0.33813 0.0
H881 H 0.06774 0.59907 0.33755 0.0
C882 C 0.18232 0.67336 0.3207 0.0
C883 C 0.20939 0.67277 0.3347 0.0
C884 C 0.1611 0.65446 0.32097 0.0
C885 C 0.16647 0.63454 0.33525 0.0
C886 C 0.19337 0.63406 0.34948 0.0
C887 C 0.21455 0.65294 0.34922 0.0
C888 C 0.13366 0.57361 0.33328 0.0
C889 C 0.10232 0.57579 0.33471 0.0
C890 C 0.15449 0.59268 0.33351 0.0
C891 C 0.14427 0.61426 0.33513 0.0
C892 C 0.11273 0.61628 0.33657 0.0
C893 C 0.09193 0.59718 0.33639 0.0
H894 H 0.73638 0.8626 0.70112 0.0
H895 H 0.82873 0.85524 0.67614 0.0
H896 H 0.73353 0.89344 0.66863 0.0
H897 H 0.82558 0.88572 0.64345 0.0
H898 H 0.79964 0.92878 0.57283 0.0
H899 H 0.79902 0.89573 0.60306 0.0
H900 H 0.75772 0.93268 0.66162 0.0
H901 H 0.75844 0.96561 0.63123 0.0
C902 C 0.75606 0.8675 0.68871 0.0
C903 C 0.78282 0.85643 0.69135 0.0
C904 C 0.75439 0.88516 0.67008 0.0
C905 C 0.77935 0.89205 0.65354 0.0
C906 C 0.80581 0.88062 0.65569 0.0
C907 C 0.80756 0.86307 0.67441 0.0
C908 C 0.7903 0.92965 0.59214 0.0
C909 C 0.77899 0.94953 0.59983 0.0
C910 C 0.79004 0.91085 0.60945 0.0
C911 C 0.77831 0.9116 0.63472 0.0
C912 C 0.76654 0.93148 0.64219 0.0
C913 C 0.76702 0.95032 0.62492 0.0
H914 H 0.69079 0.25335 0.23804 0.0
H915 H 0.75022 0.23439 0.17759 0.0
H916 H 0.64897 0.25369 0.2076 0.0
H917 H 0.70888 0.23562 0.147 0.0
H918 H 0.62159 0.21859 0.10417 0.0
H919 H 0.66076 0.21579 0.13666 0.0
H920 H 0.63362 0.27586 0.17013 0.0
H921 H 0.59359 0.27812 0.1383 0.0
C922 C 0.69492 0.24919 0.21829 0.0
C923 C 0.7239 0.2439 0.21025 0.0
C924 C 0.67103 0.24962 0.20077 0.0
C925 C 0.67556 0.24471 0.17483 0.0
C926 C 0.70447 0.23923 0.16688 0.0
C927 C 0.72831 0.23882 0.18437 0.0
C928 C 0.62365 0.23101 0.11869 0.0
C929 C 0.60446 0.24861 0.11856 0.0
C930 C 0.64637 0.22956 0.13714 0.0
C931 C 0.65047 0.24567 0.15594 0.0
C932 C 0.63094 0.26305 0.15608 0.0
C933 C 0.60823 0.26451 0.13763 0.0
H934 H 0.2137 0.19863 0.66399 0.0
H935 H 0.30963 0.20426 0.64416 0.0
H936 H 0.20646 0.16396 0.64066 0.0
H937 H 0.30256 0.16978 0.62122 0.0
H938 H 0.27622 0.12318 0.55844 0.0
H939 H 0.27958 0.15745 0.582 0.0
H940 H 0.2186 0.12459 0.64107 0.0
H941 H 0.21495 0.09018 0.6171 0.0
C942 C 0.23325 0.19236 0.65485 0.0
C943 C 0.26216 0.20434 0.65562 0.0
C944 C 0.22912 0.17251 0.64151 0.0
C945 C 0.25385 0.16424 0.62876 0.0
C946 C 0.28285 0.17596 0.63022 0.0
C947 C 0.28693 0.19574 0.64341 0.0
C948 C 0.26357 0.12324 0.57649 0.0
C949 C 0.24565 0.10389 0.5861 0.0
C950 C 0.26554 0.14288 0.59004 0.0
C951 C 0.24975 0.14368 0.61366 0.0
C952 C 0.23095 0.12457 0.62288 0.0
C953 C 0.22887 0.10486 0.60919 0.0
H954 H 0.33193 0.73926 0.2097 0.0
H955 H 0.37901 0.80339 0.22626 0.0
H956 H 0.35635 0.74161 0.16711 0.0
H957 H 0.4036 0.80564 0.18365 0.0
H958 H 0.47024 0.78568 0.12095 0.0
H959 H 0.4425 0.78605 0.1621 0.0
H960 H 0.3592 0.76259 0.12495 0.0
H961 H 0.38732 0.76211 0.08387 0.0
C962 C 0.34707 0.75406 0.2041 0.0
C963 C 0.35359 0.77109 0.22148 0.0
C964 C 0.36111 0.75538 0.17967 0.0
C965 C 0.38207 0.77375 0.17204 0.0
C966 C 0.38797 0.79108 0.18912 0.0
C967 C 0.37387 0.78978 0.21353 0.0
C968 C 0.44598 0.7807 0.12173 0.0
C969 C 0.43082 0.77368 0.09954 0.0
C970 C 0.43005 0.78103 0.14515 0.0
C971 C 0.39862 0.77433 0.14681 0.0
C972 C 0.38344 0.76759 0.12438 0.0
C973 C 0.39941 0.76736 0.10092 0.0
H974 H 0.85102 0.15035 0.35644 0.0
H975 H 0.77043 0.17734 0.38567 0.0
H976 H 0.84501 0.11976 0.38957 0.0
H977 H 0.76429 0.14658 0.41886 0.0
H978 H 0.7824 0.10095 0.49076 0.0
H979 H 0.78764 0.13217 0.45788 0.0
H980 H 0.81194 0.08614 0.40098 0.0
H981 H 0.80722 0.05521 0.43416 0.0
C982 C 0.83184 0.14963 0.36981 0.0
C983 C 0.81111 0.16623 0.36831 0.0
C984 C 0.82837 0.13207 0.38881 0.0
C985 C 0.80406 0.13061 0.4068 0.0
C986 C 0.78347 0.14734 0.40549 0.0
C987 C 0.78697 0.16496 0.38647 0.0
C988 C 0.7888 0.09768 0.47116 0.0
C989 C 0.79453 0.0759 0.4648 0.0
C990 C 0.79165 0.11544 0.45232 0.0
C991 C 0.8003 0.11168 0.42679 0.0
C992 C 0.80571 0.0897 0.42052 0.0
C993 C 0.80286 0.07198 0.43937 0.0
H994 H 0.32576 0.24009 0.82592 0.0
H995 H 0.34911 0.31206 0.82238 0.0
H996 H 0.35322 0.23659 0.86637 0.0
H997 H 0.37526 0.30868 0.86323 0.0
H998 H 0.45176 0.2911 0.91703 0.0
H999 H 0.42179 0.2944 0.87816 0.0
H1000 H 0.35261 0.24532 0.91186 0.0
H1001 H 0.3828 0.24196 0.9509 0.0
C1002 C 0.33654 0.25518 0.83384 0.0
C1003 C 0.33527 0.27635 0.82082 0.0
C1004 C 0.35201 0.2532 0.85717 0.0
C1005 C 0.3666 0.27234 0.86798 0.0
C1006 C 0.36466 0.29355 0.85527 0.0
C1007 C 0.34926 0.29552 0.83198 0.0
C1008 C 0.42999 0.2812 0.91631 0.0
C1009 C 0.41961 0.26636 0.93716 0.0
C1010 C 0.41277 0.2831 0.894 0.0
C1011 C 0.38468 0.27023 0.89192 0.0
C1012 C 0.3743 0.25531 0.91272 0.0
C1013 C 0.39158 0.25338 0.93509 0.0
H1014 H 0.27792 0.85885 0.35241 0.0
H1015 H 0.24801 0.81695 0.42013 0.0
H1016 H 0.26827 0.89235 0.3752 0.0
H1017 H 0.23921 0.85048 0.44299 0.0
H1018 H 0.27247 0.91584 0.4829 0.0
H1019 H 0.27493 0.88198 0.45885 0.0
H1020 H 0.22603 0.91217 0.3963 0.0
H1021 H 0.22364 0.94624 0.42048 0.0
C1022 C 0.26883 0.85671 0.37197 0.0
C1023 C 0.26409 0.83515 0.3845 0.0
C1024 C 0.26337 0.87593 0.38503 0.0
C1025 C 0.25329 0.87403 0.41094 0.0
C1026 C 0.24747 0.85248 0.42316 0.0
C1027 C 0.25265 0.83328 0.41006 0.0
C1028 C 0.26224 0.91524 0.46402 0.0
C1029 C 0.24799 0.93369 0.45349 0.0
C1030 C 0.2634 0.8958 0.45035 0.0
C1031 C 0.25062 0.89442 0.42572 0.0
C1032 C 0.23619 0.91282 0.4152 0.0
C1033 C 0.23465 0.93222 0.42907 0.0
H1034 H 0.72087 0.75035 0.88522 0.0
H1035 H 0.67281 0.79838 0.84017 0.0
H1036 H 0.68084 0.74784 0.91843 0.0
H1037 H 0.63287 0.796 0.87343 0.0
H1038 H 0.55331 0.77142 0.92837 0.0
H1039 H 0.59174 0.77129 0.89378 0.0
H1040 H 0.66238 0.77122 0.95096 0.0
H1041 H 0.62365 0.77088 0.98531 0.0
C1042 C 0.70178 0.76041 0.88244 0.0
C1043 C 0.70009 0.77464 0.86011 0.0
C1044 C 0.67886 0.759 0.90149 0.0
C1045 C 0.65373 0.77183 0.89869 0.0
C1046 C 0.65171 0.78568 0.87608 0.0
C1047 C 0.6746 0.78704 0.85699 0.0
C1048 C 0.57711 0.7713 0.93332 0.0
C1049 C 0.58581 0.77116 0.95923 0.0
C1050 C 0.59909 0.77134 0.91364 0.0
C1051 C 0.63017 0.77124 0.91959 0.0
C1052 C 0.63866 0.77097 0.9457 0.0
C1053 C 0.61664 0.77093 0.96535 0.0
loop_
_geom_bond_atom_site_label_1
_geom_bond_atom_site_label_2
_geom_bond_distance
_geom_bond_site_symmetry_2
_ccdc_geom_bond_type
P0 O11 1.490 . S
P0 C14 1.812 . S
P0 C20 1.803 . S
P0 C26 1.819 . S
H1 C15 0.941 . S
H2 C16 0.939 . S
H3 C18 0.940 . S
H4 C19 0.940 . S
H5 C21 0.939 . S
H6 C22 0.942 . S
H7 C24 0.940 . S
H8 C25 0.939 . S
H9 C27 0.941 . S
H10 C31 0.939 . S
O11 P0 1.490 . S
H12 C28 0.939 . S
H13 C30 0.940 . S
C14 P0 1.812 . S
C14 C15 1.389 . S
C14 C19 1.391 . S
C15 H1 0.941 . S
C15 C14 1.389 . S
C15 C16 1.397 . S
C16 H2 0.939 . S
C16 C15 1.397 . S
C16 C17 1.378 . S
C17 C16 1.378 . S
C17 C18 1.378 . S
C18 H3 0.940 . S
C18 C17 1.378 . S
C18 C19 1.396 . S
C19 H4 0.940 . S
C19 C14 1.391 . S
C19 C18 1.396 . S
C20 P0 1.803 . S
C20 C21 1.378 . S
C20 C25 1.400 . S
C21 H5 0.939 . S
C21 C20 1.378 . S
C21 C22 1.361 . S
C22 H6 0.942 . S
C22 C21 1.361 . S
C22 C23 1.369 . S
C23 C22 1.369 . S
C23 C24 1.404 . S
C24 H7 0.940 . S
C24 C23 1.404 . S
C24 C25 1.389 . S
C25 H8 0.939 . S
C25 C20 1.400 . S
C25 C24 1.389 . S
C26 P0 1.819 . S
C26 C27 1.391 . S
C26 C31 1.391 . S
C27 H9 0.941 . S
C27 C26 1.391 . S
C27 C28 1.396 . S
C28 H12 0.939 . S
C28 C27 1.396 . S
C28 C29 1.397 . S
C29 C28 1.397 . S
C29 C30 1.385 . S
C30 H13 0.940 . S
C30 C29 1.385 . S
C30 C31 1.388 . S
C31 H10 0.939 . S
C31 C26 1.391 . S
C31 C30 1.388 . S
P32 O43 1.490 . S
P32 C46 1.812 . S
P32 C52 1.803 . S
P32 C58 1.819 . S
H33 C47 0.941 . S
H34 C48 0.939 . S
H35 C50 0.940 . S
H36 C51 0.940 . S
H37 C53 0.939 . S
H38 C54 0.942 . S
H39 C56 0.940 . S
H40 C57 0.939 . S
H41 C59 0.941 . S
H42 C63 0.939 . S
O43 P32 1.490 . S
H44 C60 0.939 . S
H45 C62 0.940 . S
C46 P32 1.812 . S
C46 C47 1.389 . S
C46 C51 1.391 . S
C47 H33 0.941 . S
C47 C46 1.389 . S
C47 C48 1.397 . S
C48 H34 0.939 . S
C48 C47 1.397 . S
C48 C49 1.378 . S
C49 C48 1.378 . S
C49 C50 1.378 . S
C50 H35 0.940 . S
C50 C49 1.378 . S
C50 C51 1.396 . S
C51 H36 0.940 . S
C51 C46 1.391 . S
C51 C50 1.396 . S
C52 P32 1.803 . S
C52 C53 1.378 . S
C52 C57 1.400 . S
C53 H37 0.939 . S
C53 C52 1.378 . S
C53 C54 1.361 . S
C54 H38 0.942 . S
C54 C53 1.361 . S
C54 C55 1.369 . S
C55 C54 1.369 . S
C55 C56 1.404 . S
C56 H39 0.940 . S
C56 C55 1.404 . S
C56 C57 1.389 . S
C57 H40 0.939 . S
C57 C52 1.400 . S
C57 C56 1.389 . S
C58 P32 1.819 . S
C58 C59 1.391 . S
C58 C63 1.391 . S
C59 H41 0.941 . S
C59 C58 1.391 . S
C59 C60 1.396 . S
C60 H44 0.939 . S
C60 C59 1.396 . S
C60 C61 1.397 . S
C61 C60 1.397 . S
C61 C62 1.385 . S
C62 H45 0.940 . S
C62 C61 1.385 . S
C62 C63 1.388 . S
C63 H42 0.939 . S
C63 C58 1.391 . S
C63 C62 1.388 . S
P64 O75 1.490 . S
P64 C78 1.812 . S
P64 C84 1.803 . S
P64 C90 1.819 . S
H65 C79 0.941 . S
H66 C80 0.939 . S
H67 C82 0.940 . S
H68 C83 0.940 . S
H69 C85 0.939 . S
H70 C86 0.942 . S
H71 C88 0.940 . S
H72 C89 0.939 . S
H73 C91 0.941 . S
H74 C95 0.939 . S
O75 P64 1.490 . S
H76 C92 0.939 . S
H77 C94 0.940 . S
C78 P64 1.812 . S
C78 C79 1.389 . S
C78 C83 1.391 . S
C79 H65 0.941 . S
C79 C78 1.389 . S
C79 C80 1.397 . S
C80 H66 0.939 . S
C80 C79 1.397 . S
C80 C81 1.378 . S
C81 C80 1.378 . S
C81 C82 1.378 . S
C82 H67 0.940 . S
C82 C81 1.378 . S
C82 C83 1.396 . S
C83 H68 0.940 . S
C83 C78 1.391 . S
C83 C82 1.396 . S
C84 P64 1.803 . S
C84 C85 1.378 . S
C84 C89 1.400 . S
C85 H69 0.939 . S
C85 C84 1.378 . S
C85 C86 1.361 . S
C86 H70 0.942 . S
C86 C85 1.361 . S
C86 C87 1.369 . S
C87 C86 1.369 . S
C87 C88 1.404 . S
C88 H71 0.940 . S
C88 C87 1.404 . S
C88 C89 1.389 . S
C89 H72 0.939 . S
C89 C84 1.400 . S
C89 C88 1.389 . S
C90 P64 1.819 . S
C90 C91 1.391 . S
C90 C95 1.391 . S
C91 H73 0.941 . S
C91 C90 1.391 . S
C91 C92 1.396 . S
C92 H76 0.939 . S
C92 C91 1.396 . S
C92 C93 1.397 . S
C93 C92 1.397 . S
C93 C94 1.385 . S
C94 H77 0.940 . S
C94 C93 1.385 . S
C94 C95 1.388 . S
C95 H74 0.939 . S
C95 C90 1.391 . S
C95 C94 1.388 . S
P96 O107 1.490 . S
P96 C110 1.812 . S
P96 C116 1.803 . S
P96 C122 1.819 . S
H97 C111 0.941 . S
H98 C112 0.939 . S
H99 C114 0.940 . S
H100 C115 0.940 . S
H101 C117 0.939 . S
H102 C118 0.942 . S
H103 C120 0.940 . S
H104 C121 0.939 . S
H105 C123 0.941 . S
H106 C127 0.939 . S
O107 P96 1.490 . S
H108 C124 0.939 . S
H109 C126 0.940 . S
C110 P96 1.812 . S
C110 C111 1.389 . S
C110 C115 1.391 . S
C111 H97 0.941 . S
C111 C110 1.389 . S
C111 C112 1.397 . S
C112 H98 0.939 . S
C112 C111 1.397 . S
C112 C113 1.378 . S
C113 C112 1.378 . S
C113 C114 1.378 . S
C114 H99 0.940 . S
C114 C113 1.378 . S
C114 C115 1.396 . S
C115 H100 0.940 . S
C115 C110 1.391 . S
C115 C114 1.396 . S
C116 P96 1.803 . S
C116 C117 1.378 . S
C116 C121 1.400 . S
C117 H101 0.939 . S
C117 C116 1.378 . S
C117 C118 1.361 . S
C118 H102 0.942 . S
C118 C117 1.361 . S
C118 C119 1.369 . S
C119 C118 1.369 . S
C119 C120 1.404 . S
C120 H103 0.940 . S
C120 C119 1.404 . S
C120 C121 1.389 . S
C121 H104 0.939 . S
C121 C116 1.400 . S
C121 C120 1.389 . S
C122 P96 1.819 . S
C122 C123 1.391 . S
C122 C127 1.391 . S
C123 H105 0.941 . S
C123 C122 1.391 . S
C123 C124 1.396 . S
C124 H108 0.939 . S
C124 C123 1.396 . S
C124 C125 1.397 . S
C125 C124 1.397 . S
C125 C126 1.385 . S
C126 H109 0.940 . S
C126 C125 1.385 . S
C126 C127 1.388 . S
C127 H106 0.939 . S
C127 C122 1.391 . S
C127 C126 1.388 . S
P128 O139 1.490 . S
P128 C142 1.812 . S
P128 C148 1.803 . S
P128 C154 1.819 . S
H129 C143 0.941 . S
H130 C144 0.939 . S
H131 C146 0.940 . S
H132 C147 0.940 . S
H133 C149 0.939 . S
H134 C150 0.942 . S
H135 C152 0.940 . S
H136 C153 0.939 . S
H137 C155 0.941 . S
H138 C159 0.939 . S
O139 P128 1.490 . S
H140 C156 0.939 . S
H141 C158 0.940 . S
C142 P128 1.812 . S
C142 C143 1.389 . S
C142 C147 1.391 . S
C143 H129 0.941 . S
C143 C142 1.389 . S
C143 C144 1.397 . S
C144 H130 0.939 . S
C144 C143 1.397 . S
C144 C145 1.378 . S
C145 C144 1.378 . S
C145 C146 1.378 . S
C146 H131 0.940 . S
C146 C145 1.378 . S
C146 C147 1.396 . S
C147 H132 0.940 . S
C147 C142 1.391 . S
C147 C146 1.396 . S
C148 P128 1.803 . S
C148 C149 1.378 . S
C148 C153 1.400 . S
C149 H133 0.939 . S
C149 C148 1.378 . S
C149 C150 1.361 . S
C150 H134 0.942 . S
C150 C149 1.361 . S
C150 C151 1.369 . S
C151 C150 1.369 . S
C151 C152 1.404 . S
C152 H135 0.940 . S
C152 C151 1.404 . S
C152 C153 1.389 . S
C153 H136 0.939 . S
C153 C148 1.400 . S
C153 C152 1.389 . S
C154 P128 1.819 . S
C154 C155 1.391 . S
C154 C159 1.391 . S
C155 H137 0.941 . S
C155 C154 1.391 . S
C155 C156 1.396 . S
C156 H140 0.939 . S
C156 C155 1.396 . S
C156 C157 1.397 . S
C157 C156 1.397 . S
C157 C158 1.385 . S
C158 H141 0.940 . S
C158 C157 1.385 . S
C158 C159 1.388 . S
C159 H138 0.939 . S
C159 C154 1.391 . S
C159 C158 1.388 . S
P160 O171 1.490 . S
P160 C174 1.812 . S
P160 C180 1.803 . S
P160 C186 1.819 . S
H161 C175 0.941 . S
H162 C176 0.939 . S
H163 C178 0.940 . S
H164 C179 0.940 . S
H165 C181 0.939 . S
H166 C182 0.942 . S
H167 C184 0.940 . S
H168 C185 0.939 . S
H169 C187 0.941 . S
H170 C191 0.939 . S
O171 P160 1.490 . S
H172 C188 0.939 . S
H173 C190 0.940 . S
C174 P160 1.812 . S
C174 C175 1.389 . S
C174 C179 1.391 . S
C175 H161 0.941 . S
C175 C174 1.389 . S
C175 C176 1.397 . S
C176 H162 0.939 . S
C176 C175 1.397 . S
C176 C177 1.378 . S
C177 C176 1.378 . S
C177 C178 1.378 . S
C178 H163 0.940 . S
C178 C177 1.378 . S
C178 C179 1.396 . S
C179 H164 0.940 . S
C179 C174 1.391 . S
C179 C178 1.396 . S
C180 P160 1.803 . S
C180 C181 1.378 . S
C180 C185 1.400 . S
C181 H165 0.939 . S
C181 C180 1.378 . S
C181 C182 1.361 . S
C182 H166 0.942 . S
C182 C181 1.361 . S
C182 C183 1.369 . S
C183 C182 1.369 . S
C183 C184 1.404 . S
C184 H167 0.940 . S
C184 C183 1.404 . S
C184 C185 1.389 . S
C185 H168 0.939 . S
C185 C180 1.400 . S
C185 C184 1.389 . S
C186 P160 1.819 . S
C186 C187 1.391 . S
C186 C191 1.391 . S
C187 H169 0.941 . S
C187 C186 1.391 . S
C187 C188 1.396 . S
C188 H172 0.939 . S
C188 C187 1.396 . S
C188 C189 1.397 . S
C189 C188 1.397 . S
C189 C190 1.385 . S
C190 H173 0.940 . S
C190 C189 1.385 . S
C190 C191 1.388 . S
C191 H170 0.939 . S
C191 C186 1.391 . S
C191 C190 1.388 . S
P192 O203 1.490 . S
P192 C206 1.812 . S
P192 C212 1.803 . S
P192 C218 1.819 . S
H193 C207 0.941 . S
H194 C208 0.939 . S
H195 C210 0.940 . S
H196 C211 0.940 . S
H197 C213 0.939 . S
H198 C214 0.942 . S
H199 C216 0.940 . S
H200 C217 0.939 . S
H201 C219 0.941 . S
H202 C223 0.939 . S
O203 P192 1.490 . S
H204 C220 0.939 . S
H205 C222 0.940 . S
C206 P192 1.812 . S
C206 C207 1.389 . S
C206 C211 1.391 . S
C207 H193 0.941 . S
C207 C206 1.389 . S
C207 C208 1.397 . S
C208 H194 0.939 . S
C208 C207 1.397 . S
C208 C209 1.378 . S
C209 C208 1.378 . S
C209 C210 1.378 . S
C210 H195 0.940 . S
C210 C209 1.378 . S
C210 C211 1.396 . S
C211 H196 0.940 . S
C211 C206 1.391 . S
C211 C210 1.396 . S
C212 P192 1.803 . S
C212 C213 1.378 . S
C212 C217 1.400 . S
C213 H197 0.939 . S
C213 C212 1.378 . S
C213 C214 1.361 . S
C214 H198 0.942 . S
C214 C213 1.361 . S
C214 C215 1.369 . S
C215 C214 1.369 . S
C215 C216 1.404 . S
C216 H199 0.940 . S
C216 C215 1.404 . S
C216 C217 1.389 . S
C217 H200 0.939 . S
C217 C212 1.400 . S
C217 C216 1.389 . S
C218 P192 1.819 . S
C218 C219 1.391 . S
C218 C223 1.391 . S
C219 H201 0.941 . S
C219 C218 1.391 . S
C219 C220 1.396 . S
C220 H204 0.939 . S
C220 C219 1.396 . S
C220 C221 1.397 . S
C221 C220 1.397 . S
C221 C222 1.385 . S
C222 H205 0.940 . S
C222 C221 1.385 . S
C222 C223 1.388 . S
C223 H202 0.939 . S
C223 C218 1.391 . S
C223 C222 1.388 . S
P224 O235 1.490 . S
P224 C238 1.812 . S
P224 C244 1.803 . S
P224 C250 1.819 . S
H225 C239 0.941 . S
H226 C240 0.939 . S
H227 C242 0.940 . S
H228 C243 0.940 . S
H229 C245 0.939 . S
H230 C246 0.942 . S
H231 C248 0.940 . S
H232 C249 0.939 . S
H233 C251 0.941 . S
H234 C255 0.939 . S
O235 P224 1.490 . S
H236 C252 0.939 . S
H237 C254 0.940 . S
C238 P224 1.812 . S
C238 C239 1.389 . S
C238 C243 1.391 . S
C239 H225 0.941 . S
C239 C238 1.389 . S
C239 C240 1.397 . S
C240 H226 0.939 . S
C240 C239 1.397 . S
C240 C241 1.378 . S
C241 C240 1.378 . S
C241 C242 1.378 . S
C242 H227 0.940 . S
C242 C241 1.378 . S
C242 C243 1.396 . S
C243 H228 0.940 . S
C243 C238 1.391 . S
C243 C242 1.396 . S
C244 P224 1.803 . S
C244 C245 1.378 . S
C244 C249 1.400 . S
C245 H229 0.939 . S
C245 C244 1.378 . S
C245 C246 1.361 . S
C246 H230 0.942 . S
C246 C245 1.361 . S
C246 C247 1.369 . S
C247 C246 1.369 . S
C247 C248 1.404 . S
C248 H231 0.940 . S
C248 C247 1.404 . S
C248 C249 1.389 . S
C249 H232 0.939 . S
C249 C244 1.400 . S
C249 C248 1.389 . S
C250 P224 1.819 . S
C250 C251 1.391 . S
C250 C255 1.391 . S
C251 H233 0.941 . S
C251 C250 1.391 . S
C251 C252 1.396 . S
C252 H236 0.939 . S
C252 C251 1.396 . S
C252 C253 1.397 . S
C253 C252 1.397 . S
C253 C254 1.385 . S
C254 H237 0.940 . S
C254 C253 1.385 . S
C254 C255 1.388 . S
C255 H234 0.939 . S
C255 C250 1.391 . S
C255 C254 1.388 . S
C256 C257 1.443 . S
C256 N260 1.376 . S
C256 C294 1.389 . S
C257 C256 1.443 . S
C257 C258 1.340 . S
C257 H297 0.951 . S
C258 C257 1.340 . S
C258 C259 1.439 . S
C258 H298 0.950 . S
C259 C258 1.439 . S
C259 N260 1.374 . S
C259 C293 1.395 . S
N260 C256 1.376 . S
N260 C259 1.374 . S
N260 Co261 2.008 . S
Co261 N260 2.008 . S
Co261 N262 1.995 . S
Co261 N267 2.008 . S
Co261 N272 1.995 . S
Co261 N277 2.282 . S
Co261 N283 2.282 1_455 S
N262 Co261 1.995 . S
N262 C263 1.376 . S
N262 C266 1.383 1_455 S
C263 N262 1.376 . S
C263 C264 1.446 1_455 S
C263 C293 1.391 . S
C264 C263 1.446 1_655 S
C264 C265 1.339 . S
C264 H299 0.949 . S
C265 C264 1.339 . S
C265 C266 1.439 . S
C265 H300 0.950 . S
C266 N262 1.383 1_655 S
C266 C265 1.439 . S
C266 C295 1.392 . S
N267 Co261 2.008 . S
N267 C268 1.376 1_455 S
N267 C271 1.374 . S
C268 N267 1.376 1_655 S
C268 C269 1.443 . S
C268 C295 1.389 . S
C269 C268 1.443 . S
C269 C270 1.340 1_655 S
C269 H301 0.951 . S
C270 C269 1.340 1_455 S
C270 C271 1.439 . S
C270 H302 0.950 . S
C271 N267 1.374 . S
C271 C270 1.439 . S
C271 C296 1.395 . S
N272 Co261 1.995 . S
N272 C273 1.376 . S
N272 C276 1.383 . S
C273 N272 1.376 . S
C273 C274 1.446 . S
C273 C296 1.391 . S
C274 C273 1.446 . S
C274 C275 1.339 . S
C274 H303 0.949 . S
C275 C274 1.339 . S
C275 C276 1.439 . S
C275 H304 0.950 . S
C276 N272 1.383 . S
C276 C275 1.439 . S
C276 C294 1.392 . S
N277 Co261 2.282 . S
N277 C280 1.332 . S
N277 C282 1.332 . S
C278 C279 1.386 . S
C278 C281 1.388 . S
C279 C278 1.386 . S
C279 C280 1.382 . S
C279 H305 0.950 . S
C280 N277 1.332 . S
C280 C279 1.382 . S
C280 H291 0.952 . S
C281 C278 1.388 . S
C281 C282 1.382 . S
C281 H306 0.950 . S
C282 N277 1.332 . S
C282 C281 1.382 . S
C282 H292 0.948 . S
N283 Co261 2.282 1_655 S
N283 C287 1.332 . S
N283 C288 1.332 . S
C284 C285 1.388 . S
C284 C288 1.382 . S
C284 H307 0.950 . S
C285 C284 1.388 . S
C285 C286 1.386 . S
C286 C285 1.386 . S
C286 C287 1.382 . S
C286 H308 0.950 . S
C287 N283 1.332 . S
C287 C286 1.382 . S
C287 H289 0.952 . S
C288 N283 1.332 . S
C288 C284 1.382 . S
C288 H290 0.948 1_655 S
H289 C287 0.952 . S
H290 C288 0.948 1_455 S
H291 C280 0.952 . S
H292 C282 0.948 . S
C293 C259 1.395 . S
C293 C263 1.391 . S
C294 C256 1.389 . S
C294 C276 1.392 . S
C295 C266 1.392 . S
C295 C268 1.389 . S
C296 C271 1.395 . S
C296 C273 1.391 . S
H297 C257 0.951 . S
H298 C258 0.950 . S
H299 C264 0.949 . S
H300 C265 0.950 . S
H301 C269 0.951 . S
H302 C270 0.950 . S
H303 C274 0.949 . S
H304 C275 0.950 . S
H305 C279 0.950 . S
H306 C281 0.950 . S
H307 C284 0.950 . S
H308 C286 0.950 . S
C309 C310 1.443 . S
C309 N313 1.376 . S
C309 C347 1.389 . S
C310 C309 1.443 . S
C310 C311 1.340 . S
C310 H350 0.951 . S
C311 C310 1.340 . S
C311 C312 1.439 . S
C311 H351 0.950 . S
C312 C311 1.439 . S
C312 N313 1.374 . S
C312 C346 1.395 . S
N313 C309 1.376 . S
N313 C312 1.374 . S
N313 Co314 2.008 . S
Co314 N313 2.008 . S
Co314 N315 1.995 1_455 S
Co314 N320 2.008 1_455 S
Co314 N325 1.995 . S
Co314 N330 2.282 . S
Co314 N336 2.282 1_455 S
N315 Co314 1.995 1_655 S
N315 C316 1.376 . S
N315 C319 1.383 . S
C316 N315 1.376 . S
C316 C317 1.446 . S
C316 C346 1.391 1_655 S
C317 C316 1.446 . S
C317 C318 1.339 . S
C317 H352 0.949 . S
C318 C317 1.339 . S
C318 C319 1.439 . S
C318 H353 0.950 . S
C319 N315 1.383 . S
C319 C318 1.439 . S
C319 C348 1.392 . S
N320 Co314 2.008 1_655 S
N320 C321 1.376 . S
N320 C324 1.374 . S
C321 N320 1.376 . S
C321 C322 1.443 . S
C321 C348 1.389 . S
C322 C321 1.443 . S
C322 C323 1.340 . S
C322 H354 0.951 . S
C323 C322 1.340 . S
C323 C324 1.439 . S
C323 H355 0.950 . S
C324 N320 1.374 . S
C324 C323 1.439 . S
C324 C349 1.395 1_655 S
N325 Co314 1.995 . S
N325 C326 1.376 . S
N325 C329 1.383 . S
C326 N325 1.376 . S
C326 C327 1.446 . S
C326 C349 1.391 . S
C327 C326 1.446 . S
C327 C328 1.339 . S
C327 H356 0.949 . S
C328 C327 1.339 . S
C328 C329 1.439 . S
C328 H357 0.950 . S
C329 N325 1.383 . S
C329 C328 1.439 . S
C329 C347 1.392 . S
N330 Co314 2.282 . S
N330 C333 1.332 . S
N330 C335 1.332 . S
C331 C332 1.386 . S
C331 C334 1.388 . S
C332 C331 1.386 . S
C332 C333 1.382 . S
C332 H358 0.950 . S
C333 N330 1.332 . S
C333 C332 1.382 . S
C333 H344 0.952 . S
C334 C331 1.388 . S
C334 C335 1.382 . S
C334 H359 0.950 . S
C335 N330 1.332 . S
C335 C334 1.382 . S
C335 H345 0.948 . S
N336 Co314 2.282 1_655 S
N336 C340 1.332 . S
N336 C341 1.332 . S
C337 C338 1.388 . S
C337 C341 1.382 . S
C337 H360 0.950 . S
C338 C337 1.388 . S
C338 C339 1.386 . S
C339 C338 1.386 . S
C339 C340 1.382 . S
C339 H361 0.950 . S
C340 N336 1.332 . S
C340 C339 1.382 . S
C340 H342 0.952 . S
C341 N336 1.332 . S
C341 C337 1.382 . S
C341 H343 0.948 . S
H342 C340 0.952 . S
H343 C341 0.948 . S
H344 C333 0.952 . S
H345 C335 0.948 . S
C346 C312 1.395 . S
C346 C316 1.391 1_455 S
C347 C309 1.389 . S
C347 C329 1.392 . S
C348 C319 1.392 . S
C348 C321 1.389 . S
C349 C324 1.395 1_455 S
C349 C326 1.391 . S
H350 C310 0.951 . S
H351 C311 0.950 . S
H352 C317 0.949 . S
H353 C318 0.950 . S
H354 C322 0.951 . S
H355 C323 0.950 . S
H356 C327 0.949 . S
H357 C328 0.950 . S
H358 C332 0.950 . S
H359 C334 0.950 . S
H360 C337 0.950 . S
H361 C339 0.950 . S
C362 C363 1.443 . S
C362 N366 1.376 . S
C362 C400 1.389 . S
C363 C362 1.443 . S
C363 C364 1.340 . S
C363 H403 0.951 . S
C364 C363 1.340 . S
C364 C365 1.437 1_565 S
C364 H404 0.950 . S
C365 C364 1.437 1_545 S
C365 N366 1.374 1_545 S
C365 C399 1.396 . S
N366 C362 1.376 . S
N366 C365 1.374 1_565 S
N366 Co367 2.008 1_565 S
Co367 N366 2.008 1_545 S
Co367 N368 1.995 . S
Co367 N373 2.008 . S
Co367 N378 1.995 1_545 S
Co367 N383 2.282 . S
Co367 N389 2.282 1_545 S
N368 Co367 1.995 . S
N368 C369 1.376 . S
N368 C372 1.383 . S
C369 N368 1.376 . S
C369 C370 1.446 . S
C369 C399 1.391 . S
C370 C369 1.446 . S
C370 C371 1.339 . S
C370 H405 0.949 . S
C371 C370 1.339 . S
C371 C372 1.439 . S
C371 H406 0.950 . S
C372 N368 1.383 . S
C372 C371 1.439 . S
C372 C401 1.392 . S
N373 Co367 2.008 . S
N373 C374 1.376 . S
N373 C377 1.374 . S
C374 N373 1.376 . S
C374 C375 1.443 . S
C374 C401 1.389 . S
C375 C374 1.443 . S
C375 C376 1.340 . S
C375 H407 0.951 . S
C376 C375 1.340 . S
C376 C377 1.439 . S
C376 H408 0.950 . S
C377 N373 1.374 . S
C377 C376 1.439 . S
C377 C402 1.395 . S
N378 Co367 1.995 1_565 S
N378 C379 1.376 . S
N378 C382 1.383 . S
C379 N378 1.376 . S
C379 C380 1.446 . S
C379 C402 1.391 1_565 S
C380 C379 1.446 . S
C380 C381 1.339 . S
C380 H409 0.949 . S
C381 C380 1.339 . S
C381 C382 1.439 . S
C381 H410 0.950 . S
C382 N378 1.383 . S
C382 C381 1.439 . S
C382 C400 1.392 . S
N383 Co367 2.282 . S
N383 C386 1.332 . S
N383 C388 1.332 . S
C384 C385 1.386 . S
C384 C387 1.388 . S
C385 C384 1.386 . S
C385 C386 1.382 . S
C385 H411 0.950 . S
C386 N383 1.332 . S
C386 C385 1.382 . S
C386 H397 0.952 . S
C387 C384 1.388 . S
C387 C388 1.382 . S
C387 H412 0.950 . S
C388 N383 1.332 . S
C388 C387 1.382 . S
C388 H398 0.948 . S
N389 Co367 2.282 1_565 S
N389 C393 1.332 . S
N389 C394 1.332 . S
C390 C391 1.388 . S
C390 C394 1.382 . S
C390 H413 0.950 . S
C391 C390 1.388 . S
C391 C392 1.386 . S
C392 C391 1.386 . S
C392 C393 1.382 . S
C392 H414 0.950 . S
C393 N389 1.332 . S
C393 C392 1.382 . S
C393 H395 0.952 . S
C394 N389 1.332 . S
C394 C390 1.382 . S
C394 H396 0.948 . S
H395 C393 0.952 . S
H396 C394 0.948 . S
H397 C386 0.952 . S
H398 C388 0.948 . S
C399 C365 1.396 . S
C399 C369 1.391 . S
C400 C362 1.389 . S
C400 C382 1.392 . S
C401 C372 1.392 . S
C401 C374 1.389 . S
C402 C377 1.395 . S
C402 C379 1.391 1_545 S
H403 C363 0.951 . S
H404 C364 0.950 . S
H405 C370 0.949 . S
H406 C371 0.950 . S
H407 C375 0.951 . S
H408 C376 0.950 . S
H409 C380 0.949 . S
H410 C381 0.950 . S
H411 C385 0.950 . S
H412 C387 0.950 . S
H413 C390 0.950 . S
H414 C392 0.950 . S
C415 C416 1.443 . S
C415 N419 1.376 . S
C415 C453 1.389 . S
C416 C415 1.443 . S
C416 C417 1.340 . S
C416 H456 0.951 . S
C417 C416 1.340 . S
C417 C418 1.439 . S
C417 H457 0.950 . S
C418 C417 1.439 . S
C418 N419 1.374 . S
C418 C452 1.395 . S
N419 C415 1.376 . S
N419 C418 1.374 . S
N419 Co420 2.008 . S
Co420 N419 2.008 . S
Co420 N421 2.009 . S
Co420 N426 2.005 . S
Co420 N431 1.995 . S
Co420 N436 2.282 1_554 S
Co420 N442 2.282 . S
N421 Co420 2.009 . S
N421 C422 1.381 . S
N421 C425 1.359 1_554 S
C422 N421 1.381 . S
C422 C423 1.446 1_554 S
C422 C452 1.391 . S
C423 C422 1.446 1_556 S
C423 C424 1.339 . S
C423 H458 0.949 . S
C424 C423 1.339 . S
C424 C425 1.439 . S
C424 H459 0.950 . S
C425 N421 1.359 1_556 S
C425 C424 1.439 . S
C425 C454 1.392 . S
N426 Co420 2.005 . S
N426 C427 1.381 1_554 S
N426 C430 1.374 . S
C427 N426 1.381 1_556 S
C427 C428 1.443 . S
C427 C454 1.389 . S
C428 C427 1.443 . S
C428 C429 1.340 . S
C428 H460 0.951 . S
C429 C428 1.340 . S
C429 C430 1.439 1_556 S
C429 H461 0.950 . S
C430 N426 1.374 . S
C430 C429 1.439 1_554 S
C430 C455 1.395 . S
N431 Co420 1.995 . S
N431 C432 1.376 . S
N431 C435 1.383 . S
C432 N431 1.376 . S
C432 C433 1.446 . S
C432 C455 1.391 . S
C433 C432 1.446 . S
C433 C434 1.339 . S
C433 H462 0.949 . S
C434 C433 1.339 . S
C434 C435 1.439 . S
C434 H463 0.950 . S
C435 N431 1.383 . S
C435 C434 1.439 . S
C435 C453 1.392 . S
N436 Co420 2.282 1_556 S
N436 C439 1.332 . S
N436 C441 1.332 . S
C437 C438 1.386 . S
C437 C440 1.388 . S
C438 C437 1.386 . S
C438 C439 1.382 . S
C438 H464 0.950 . S
C439 N436 1.332 . S
C439 C438 1.382 . S
C439 H450 0.952 . S
C440 C437 1.388 . S
C440 C441 1.382 . S
C440 H465 0.950 . S
C441 N436 1.332 . S
C441 C440 1.382 . S
C441 H451 0.948 . S
N442 Co420 2.282 . S
N442 C446 1.332 . S
N442 C447 1.332 . S
C443 C444 1.388 . S
C443 C447 1.382 . S
C443 H466 0.950 . S
C444 C443 1.388 . S
C444 C445 1.386 . S
C445 C444 1.386 . S
C445 C446 1.382 . S
C445 H467 0.950 . S
C446 N442 1.332 . S
C446 C445 1.382 . S
C446 H448 0.952 . S
C447 N442 1.332 . S
C447 C443 1.382 . S
C447 H449 0.948 . S
H448 C446 0.952 . S
H449 C447 0.948 . S
H450 C439 0.952 . S
H451 C441 0.948 . S
C452 C418 1.395 . S
C452 C422 1.391 . S
C453 C415 1.389 . S
C453 C435 1.392 . S
C454 C425 1.392 . S
C454 C427 1.389 . S
C455 C430 1.395 . S
C455 C432 1.391 . S
H456 C416 0.951 . S
H457 C417 0.950 . S
H458 C423 0.949 . S
H459 C424 0.950 . S
H460 C428 0.951 . S
H461 C429 0.950 . S
H462 C433 0.949 . S
H463 C434 0.950 . S
H464 C438 0.950 . S
H465 C440 0.950 . S
H466 C443 0.950 . S
H467 C445 0.950 . S
C468 C469 1.443 . S
C468 N472 1.376 . S
C468 C506 1.389 . S
C469 C468 1.443 . S
C469 C470 1.340 . S
C469 H509 0.951 . S
C470 C469 1.340 . S
C470 C471 1.439 . S
C470 H510 0.950 . S
C471 C470 1.439 . S
C471 N472 1.374 . S
C471 C505 1.395 1_565 S
N472 C468 1.376 . S
N472 C471 1.374 . S
N472 Co473 2.008 1_565 S
Co473 N472 2.008 1_545 S
Co473 N474 1.995 . S
Co473 N479 2.008 . S
Co473 N484 1.995 1_545 S
Co473 N489 2.282 . S
Co473 N495 2.282 1_545 S
N474 Co473 1.995 . S
N474 C475 1.376 . S
N474 C478 1.383 . S
C475 N474 1.376 . S
C475 C476 1.446 . S
C475 C505 1.391 . S
C476 C475 1.446 . S
C476 C477 1.339 . S
C476 H511 0.949 . S
C477 C476 1.339 . S
C477 C478 1.439 . S
C477 H512 0.950 . S
C478 N474 1.383 . S
C478 C477 1.439 . S
C478 C507 1.392 . S
N479 Co473 2.008 . S
N479 C480 1.376 . S
N479 C483 1.374 . S
C480 N479 1.376 . S
C480 C481 1.443 . S
C480 C507 1.389 . S
C481 C480 1.443 . S
C481 C482 1.340 . S
C481 H513 0.951 . S
C482 C481 1.340 . S
C482 C483 1.439 . S
C482 H514 0.950 . S
C483 N479 1.374 . S
C483 C482 1.439 . S
C483 C508 1.395 . S
N484 Co473 1.995 1_565 S
N484 C485 1.376 . S
N484 C488 1.383 . S
C485 N484 1.376 . S
C485 C486 1.446 . S
C485 C508 1.391 1_565 S
C486 C485 1.446 . S
C486 C487 1.339 . S
C486 H515 0.949 . S
C487 C486 1.339 . S
C487 C488 1.439 . S
C487 H516 0.950 . S
C488 N484 1.383 . S
C488 C487 1.439 . S
C488 C506 1.392 . S
N489 Co473 2.282 . S
N489 C492 1.332 . S
N489 C494 1.332 . S
C490 C491 1.386 . S
C490 C493 1.388 . S
C491 C490 1.386 . S
C491 C492 1.382 . S
C491 H517 0.950 . S
C492 N489 1.332 . S
C492 C491 1.382 . S
C492 H503 0.952 . S
C493 C490 1.388 . S
C493 C494 1.382 . S
C493 H518 0.950 . S
C494 N489 1.332 . S
C494 C493 1.382 . S
C494 H504 0.948 . S
N495 Co473 2.282 1_565 S
N495 C499 1.332 . S
N495 C500 1.332 . S
C496 C497 1.388 . S
C496 C500 1.382 . S
C496 H519 0.950 . S
C497 C496 1.388 . S
C497 C498 1.386 . S
C498 C497 1.386 . S
C498 C499 1.382 . S
C498 H520 0.950 . S
C499 N495 1.332 . S
C499 C498 1.382 . S
C499 H501 0.952 . S
C500 N495 1.332 . S
C500 C496 1.382 . S
C500 H502 0.948 . S
H501 C499 0.952 . S
H502 C500 0.948 . S
H503 C492 0.952 . S
H504 C494 0.948 . S
C505 C471 1.395 1_545 S
C505 C475 1.391 . S
C506 C468 1.389 . S
C506 C488 1.392 . S
C507 C478 1.392 . S
C507 C480 1.389 . S
C508 C483 1.395 . S
C508 C485 1.391 1_545 S
H509 C469 0.951 . S
H510 C470 0.950 . S
H511 C476 0.949 . S
H512 C477 0.950 . S
H513 C481 0.951 . S
H514 C482 0.950 . S
H515 C486 0.949 . S
H516 C487 0.950 . S
H517 C491 0.950 . S
H518 C493 0.950 . S
H519 C496 0.950 . S
H520 C498 0.950 . S
C521 C522 1.443 . S
C521 N525 1.376 . S
C521 C559 1.389 . S
C522 C521 1.443 . S
C522 C523 1.340 . S
C522 H562 0.951 . S
C523 C522 1.340 . S
C523 C524 1.439 . S
C523 H563 0.950 . S
C524 C523 1.439 . S
C524 N525 1.374 . S
C524 C558 1.395 . S
N525 C521 1.376 . S
N525 C524 1.374 . S
N525 Co526 2.008 . S
Co526 N525 2.008 . S
Co526 N527 1.995 . S
Co526 N532 2.008 . S
Co526 N537 1.995 . S
Co526 N542 2.282 . S
Co526 N548 2.282 . S
N527 Co526 1.995 . S
N527 C528 1.376 . S
N527 C531 1.383 1_554 S
C528 N527 1.376 . S
C528 C529 1.446 1_554 S
C528 C558 1.391 . S
C529 C528 1.446 1_556 S
C529 C530 1.339 . S
C529 H564 0.949 . S
C530 C529 1.339 . S
C530 C531 1.439 . S
C530 H565 0.950 . S
C531 N527 1.383 1_556 S
C531 C530 1.439 . S
C531 C560 1.392 . S
N532 Co526 2.008 . S
N532 C533 1.376 1_554 S
N532 C536 1.374 . S
C533 N532 1.376 1_556 S
C533 C534 1.443 . S
C533 C560 1.389 . S
C534 C533 1.443 . S
C534 C535 1.340 . S
C534 H566 0.951 . S
C535 C534 1.340 . S
C535 C536 1.439 1_556 S
C535 H567 0.950 . S
C536 N532 1.374 . S
C536 C535 1.439 1_554 S
C536 C561 1.395 . S
N537 Co526 1.995 . S
N537 C538 1.376 . S
N537 C541 1.383 . S
C538 N537 1.376 . S
C538 C539 1.446 . S
C538 C561 1.391 . S
C539 C538 1.446 . S
C539 C540 1.339 . S
C539 H568 0.949 . S
C540 C539 1.339 . S
C540 C541 1.439 . S
C540 H569 0.950 . S
C541 N537 1.383 . S
C541 C540 1.439 . S
C541 C559 1.392 . S
N542 Co526 2.282 . S
N542 C545 1.332 1_554 S
N542 C547 1.332 1_554 S
C543 C544 1.386 . S
C543 C546 1.388 . S
C544 C543 1.386 . S
C544 C545 1.382 . S
C544 H570 0.950 . S
C545 N542 1.332 1_556 S
C545 C544 1.382 . S
C545 H556 0.952 1_556 S
C546 C543 1.388 . S
C546 C547 1.382 . S
C546 H571 0.950 . S
C547 N542 1.332 1_556 S
C547 C546 1.382 . S
C547 H557 0.948 . S
N548 Co526 2.282 . S
N548 C552 1.332 . S
N548 C553 1.332 . S
C549 C550 1.388 . S
C549 C553 1.382 . S
C549 H572 0.950 . S
C550 C549 1.388 . S
C550 C551 1.386 . S
C551 C550 1.386 . S
C551 C552 1.382 . S
C551 H573 0.950 . S
C552 N548 1.332 . S
C552 C551 1.382 . S
C552 H554 0.952 . S
C553 N548 1.332 . S
C553 C549 1.382 . S
C553 H555 0.948 . S
H554 C552 0.952 . S
H555 C553 0.948 . S
H556 C545 0.952 1_554 S
H557 C547 0.948 . S
C558 C524 1.395 . S
C558 C528 1.391 . S
C559 C521 1.389 . S
C559 C541 1.392 . S
C560 C531 1.392 . S
C560 C533 1.389 . S
C561 C536 1.395 . S
C561 C538 1.391 . S
H562 C522 0.951 . S
H563 C523 0.950 . S
H564 C529 0.949 . S
H565 C530 0.950 . S
H566 C534 0.951 . S
H567 C535 0.950 . S
H568 C539 0.949 . S
H569 C540 0.950 . S
H570 C544 0.950 . S
H571 C546 0.950 . S
H572 C549 0.950 . S
H573 C551 0.950 . S
H574 C582 0.950 . S
H575 C587 0.950 . S
H576 C584 0.950 . S
H577 C586 0.950 . S
H578 C588 0.950 . S
H579 C590 0.950 . S
H580 C592 0.950 . S
H581 C593 0.950 . S
C582 H574 0.950 . S
C582 C583 1.386 . S
C582 C584 1.391 . S
C583 C582 1.386 . S
C583 C587 1.393 . S
C584 H576 0.950 . S
C584 C582 1.391 . S
C584 C585 1.400 . S
C585 C584 1.400 . S
C585 C586 1.398 . S
C585 C591 1.491 . S
C586 H577 0.950 . S
C586 C585 1.398 . S
C586 C587 1.391 . S
C587 H575 0.950 . S
C587 C583 1.393 . S
C587 C586 1.391 . S
C588 H578 0.950 . S
C588 C589 1.386 . S
C588 C590 1.391 . S
C589 C588 1.386 . S
C589 C593 1.393 . S
C590 H579 0.950 . S
C590 C588 1.391 . S
C590 C591 1.400 . S
C591 C585 1.491 . S
C591 C590 1.400 . S
C591 C592 1.398 . S
C592 H580 0.950 . S
C592 C591 1.398 . S
C592 C593 1.391 . S
C593 H581 0.950 . S
C593 C589 1.393 . S
C593 C592 1.391 . S
H594 C602 0.950 . S
H595 C607 0.950 . S
H596 C604 0.950 . S
H597 C606 0.950 . S
H598 C608 0.950 . S
H599 C610 0.950 . S
H600 C612 0.950 . S
H601 C613 0.950 . S
C602 H594 0.950 . S
C602 C603 1.386 . S
C602 C604 1.391 . S
C603 C602 1.386 . S
C603 C607 1.393 . S
C604 H596 0.950 . S
C604 C602 1.391 . S
C604 C605 1.400 . S
C605 C604 1.400 . S
C605 C606 1.398 . S
C605 C611 1.491 . S
C606 H597 0.950 . S
C606 C605 1.398 . S
C606 C607 1.391 . S
C607 H595 0.950 . S
C607 C603 1.393 . S
C607 C606 1.391 . S
C608 H598 0.950 . S
C608 C609 1.386 . S
C608 C610 1.391 . S
C609 C608 1.386 . S
C609 C613 1.393 . S
C610 H599 0.950 . S
C610 C608 1.391 . S
C610 C611 1.400 . S
C611 C605 1.491 . S
C611 C610 1.400 . S
C611 C612 1.398 . S
C612 H600 0.950 . S
C612 C611 1.398 . S
C612 C613 1.391 . S
C613 H601 0.950 . S
C613 C609 1.393 . S
C613 C612 1.391 . S
H614 C622 0.950 . S
H615 C627 0.950 . S
H616 C624 0.950 . S
H617 C626 0.950 . S
H618 C628 0.950 . S
H619 C630 0.950 . S
H620 C632 0.950 . S
H621 C633 0.950 . S
C622 H614 0.950 . S
C622 C623 1.386 . S
C622 C624 1.391 . S
C623 C622 1.386 . S
C623 C627 1.393 . S
C624 H616 0.950 . S
C624 C622 1.391 . S
C624 C625 1.400 . S
C625 C624 1.400 . S
C625 C626 1.398 . S
C625 C631 1.491 . S
C626 H617 0.950 . S
C626 C625 1.398 . S
C626 C627 1.391 . S
C627 H615 0.950 . S
C627 C623 1.393 . S
C627 C626 1.391 . S
C628 H618 0.950 . S
C628 C629 1.386 . S
C628 C630 1.391 . S
C629 C628 1.386 . S
C629 C633 1.393 . S
C630 H619 0.950 . S
C630 C628 1.391 . S
C630 C631 1.400 . S
C631 C625 1.491 . S
C631 C630 1.400 . S
C631 C632 1.398 . S
C632 H620 0.950 . S
C632 C631 1.398 . S
C632 C633 1.391 . S
C633 H621 0.950 . S
C633 C629 1.393 . S
C633 C632 1.391 . S
H634 C642 0.950 . S
H635 C647 0.950 . S
H636 C644 0.950 . S
H637 C646 0.950 . S
H638 C648 0.950 . S
H639 C650 0.950 . S
H640 C652 0.950 . S
H641 C653 0.950 . S
C642 H634 0.950 . S
C642 C643 1.386 . S
C642 C644 1.391 . S
C643 C642 1.386 . S
C643 C647 1.393 . S
C644 H636 0.950 . S
C644 C642 1.391 . S
C644 C645 1.400 . S
C645 C644 1.400 . S
C645 C646 1.398 . S
C645 C651 1.491 . S
C646 H637 0.950 . S
C646 C645 1.398 . S
C646 C647 1.391 . S
C647 H635 0.950 . S
C647 C643 1.393 . S
C647 C646 1.391 . S
C648 H638 0.950 . S
C648 C649 1.386 . S
C648 C650 1.391 . S
C649 C648 1.386 . S
C649 C653 1.393 . S
C650 H639 0.950 . S
C650 C648 1.391 . S
C650 C651 1.400 . S
C651 C645 1.491 . S
C651 C650 1.400 . S
C651 C652 1.398 . S
C652 H640 0.950 . S
C652 C651 1.398 . S
C652 C653 1.391 . S
C653 H641 0.950 . S
C653 C649 1.393 . S
C653 C652 1.391 . S
H654 C662 0.950 . S
H655 C667 0.950 . S
H656 C664 0.950 . S
H657 C666 0.950 . S
H658 C668 0.950 . S
H659 C670 0.950 . S
H660 C672 0.950 . S
H661 C673 0.950 . S
C662 H654 0.950 . S
C662 C663 1.386 . S
C662 C664 1.391 . S
C663 C662 1.386 . S
C663 C667 1.393 . S
C664 H656 0.950 . S
C664 C662 1.391 . S
C664 C665 1.400 . S
C665 C664 1.400 . S
C665 C666 1.398 . S
C665 C671 1.491 . S
C666 H657 0.950 . S
C666 C665 1.398 . S
C666 C667 1.391 . S
C667 H655 0.950 . S
C667 C663 1.393 . S
C667 C666 1.391 . S
C668 H658 0.950 . S
C668 C669 1.386 . S
C668 C670 1.391 . S
C669 C668 1.386 . S
C669 C673 1.393 . S
C670 H659 0.950 . S
C670 C668 1.391 . S
C670 C671 1.400 . S
C671 C665 1.491 . S
C671 C670 1.400 . S
C671 C672 1.398 . S
C672 H660 0.950 . S
C672 C671 1.398 . S
C672 C673 1.391 . S
C673 H661 0.950 . S
C673 C669 1.393 . S
C673 C672 1.391 . S
H674 C682 0.950 . S
H675 C687 0.950 . S
H676 C684 0.950 . S
H677 C686 0.950 . S
H678 C688 0.950 . S
H679 C690 0.950 . S
H680 C692 0.950 . S
H681 C693 0.950 . S
C682 H674 0.950 . S
C682 C683 1.386 . S
C682 C684 1.391 . S
C683 C682 1.386 . S
C683 C687 1.393 . S
C684 H676 0.950 . S
C684 C682 1.391 . S
C684 C685 1.400 . S
C685 C684 1.400 . S
C685 C686 1.398 . S
C685 C691 1.491 . S
C686 H677 0.950 . S
C686 C685 1.398 . S
C686 C687 1.391 . S
C687 H675 0.950 . S
C687 C683 1.393 . S
C687 C686 1.391 . S
C688 H678 0.950 . S
C688 C689 1.386 . S
C688 C690 1.391 . S
C689 C688 1.386 . S
C689 C693 1.393 . S
C690 H679 0.950 . S
C690 C688 1.391 . S
C690 C691 1.400 . S
C691 C685 1.491 . S
C691 C690 1.400 . S
C691 C692 1.398 . S
C692 H680 0.950 . S
C692 C691 1.398 . S
C692 C693 1.391 . S
C693 H681 0.950 . S
C693 C689 1.393 . S
C693 C692 1.391 . S
H694 C702 0.950 . S
H695 C707 0.950 . S
H696 C704 0.950 . S
H697 C706 0.950 . S
H698 C708 0.950 . S
H699 C710 0.950 . S
H700 C712 0.950 . S
H701 C713 0.950 . S
C702 H694 0.950 . S
C702 C703 1.386 . S
C702 C704 1.391 . S
C703 C702 1.386 . S
C703 C707 1.393 . S
C704 H696 0.950 . S
C704 C702 1.391 . S
C704 C705 1.400 . S
C705 C704 1.400 . S
C705 C706 1.398 . S
C705 C711 1.491 . S
C706 H697 0.950 . S
C706 C705 1.398 . S
C706 C707 1.391 . S
C707 H695 0.950 . S
C707 C703 1.393 . S
C707 C706 1.391 . S
C708 H698 0.950 . S
C708 C709 1.386 . S
C708 C710 1.391 . S
C709 C708 1.386 . S
C709 C713 1.393 . S
C710 H699 0.950 . S
C710 C708 1.391 . S
C710 C711 1.400 . S
C711 C705 1.491 . S
C711 C710 1.400 . S
C711 C712 1.398 . S
C712 H700 0.950 . S
C712 C711 1.398 . S
C712 C713 1.391 . S
C713 H701 0.950 . S
C713 C709 1.393 . S
C713 C712 1.391 . S
H714 C722 0.950 . S
H715 C727 0.950 . S
H716 C724 0.950 . S
H717 C726 0.950 . S
H718 C728 0.950 . S
H719 C730 0.950 . S
H720 C732 0.950 . S
H721 C733 0.950 . S
C722 H714 0.950 . S
C722 C723 1.386 . S
C722 C724 1.391 . S
C723 C722 1.386 . S
C723 C727 1.393 . S
C724 H716 0.950 . S
C724 C722 1.391 . S
C724 C725 1.400 . S
C725 C724 1.400 . S
C725 C726 1.398 . S
C725 C731 1.491 . S
C726 H717 0.950 . S
C726 C725 1.398 . S
C726 C727 1.391 . S
C727 H715 0.950 . S
C727 C723 1.393 . S
C727 C726 1.391 . S
C728 H718 0.950 . S
C728 C729 1.386 . S
C728 C730 1.391 . S
C729 C728 1.386 . S
C729 C733 1.393 . S
C730 H719 0.950 . S
C730 C728 1.391 . S
C730 C731 1.400 . S
C731 C725 1.491 . S
C731 C730 1.400 . S
C731 C732 1.398 . S
C732 H720 0.950 . S
C732 C731 1.398 . S
C732 C733 1.391 . S
C733 H721 0.950 . S
C733 C729 1.393 . S
C733 C732 1.391 . S
H734 C742 0.950 . S
H735 C747 0.950 . S
H736 C744 0.950 . S
H737 C746 0.950 . S
H738 C748 0.950 . S
H739 C750 0.950 . S
H740 C752 0.950 . S
H741 C753 0.950 . S
C742 H734 0.950 . S
C742 C743 1.386 . S
C742 C744 1.391 . S
C743 C742 1.386 . S
C743 C747 1.393 . S
C744 H736 0.950 . S
C744 C742 1.391 . S
C744 C745 1.400 . S
C745 C744 1.400 . S
C745 C746 1.398 . S
C745 C751 1.491 . S
C746 H737 0.950 . S
C746 C745 1.398 . S
C746 C747 1.391 . S
C747 H735 0.950 . S
C747 C743 1.393 . S
C747 C746 1.391 . S
C748 H738 0.950 . S
C748 C749 1.386 . S
C748 C750 1.391 . S
C749 C748 1.386 . S
C749 C753 1.393 . S
C750 H739 0.950 . S
C750 C748 1.391 . S
C750 C751 1.400 . S
C751 C745 1.491 . S
C751 C750 1.400 . S
C751 C752 1.398 . S
C752 H740 0.950 . S
C752 C751 1.398 . S
C752 C753 1.391 . S
C753 H741 0.950 . S
C753 C749 1.393 . S
C753 C752 1.391 . S
H754 C762 0.950 . S
H755 C767 0.950 . S
H756 C764 0.950 . S
H757 C766 0.950 . S
H758 C768 0.950 . S
H759 C770 0.950 . S
H760 C772 0.950 . S
H761 C773 0.950 . S
C762 H754 0.950 . S
C762 C763 1.386 . S
C762 C764 1.391 . S
C763 C762 1.386 . S
C763 C767 1.393 . S
C764 H756 0.950 . S
C764 C762 1.391 . S
C764 C765 1.400 . S
C765 C764 1.400 . S
C765 C766 1.398 . S
C765 C771 1.491 . S
C766 H757 0.950 . S
C766 C765 1.398 . S
C766 C767 1.391 . S
C767 H755 0.950 . S
C767 C763 1.393 . S
C767 C766 1.391 . S
C768 H758 0.950 . S
C768 C769 1.386 . S
C768 C770 1.391 . S
C769 C768 1.386 . S
C769 C773 1.393 . S
C770 H759 0.950 . S
C770 C768 1.391 . S
C770 C771 1.400 . S
C771 C765 1.491 . S
C771 C770 1.400 . S
C771 C772 1.398 . S
C772 H760 0.950 . S
C772 C771 1.398 . S
C772 C773 1.391 . S
C773 H761 0.950 . S
C773 C769 1.393 . S
C773 C772 1.391 . S
H774 C782 0.950 . S
H775 C787 0.950 . S
H776 C784 0.950 . S
H777 C786 0.950 . S
H778 C788 0.950 . S
H779 C790 0.950 . S
H780 C792 0.950 . S
H781 C793 0.950 . S
C782 H774 0.950 . S
C782 C783 1.386 . S
C782 C784 1.391 . S
C783 C782 1.386 . S
C783 C787 1.393 . S
C784 H776 0.950 . S
C784 C782 1.391 . S
C784 C785 1.400 . S
C785 C784 1.400 . S
C785 C786 1.398 . S
C785 C791 1.491 . S
C786 H777 0.950 . S
C786 C785 1.398 . S
C786 C787 1.391 . S
C787 H775 0.950 . S
C787 C783 1.393 . S
C787 C786 1.391 . S
C788 H778 0.950 . S
C788 C789 1.386 . S
C788 C790 1.391 . S
C789 C788 1.386 . S
C789 C793 1.393 . S
C790 H779 0.950 . S
C790 C788 1.391 . S
C790 C791 1.400 . S
C791 C785 1.491 . S
C791 C790 1.400 . S
C791 C792 1.398 . S
C792 H780 0.950 . S
C792 C791 1.398 . S
C792 C793 1.391 . S
C793 H781 0.950 . S
C793 C789 1.393 . S
C793 C792 1.391 . S
H794 C802 0.950 . S
H795 C807 0.950 . S
H796 C804 0.950 . S
H797 C806 0.950 . S
H798 C808 0.950 . S
H799 C810 0.950 . S
H800 C812 0.950 . S
H801 C813 0.950 . S
C802 H794 0.950 . S
C802 C803 1.386 . S
C802 C804 1.391 . S
C803 C802 1.386 . S
C803 C807 1.393 . S
C804 H796 0.950 . S
C804 C802 1.391 . S
C804 C805 1.400 . S
C805 C804 1.400 . S
C805 C806 1.398 . S
C805 C811 1.491 . S
C806 H797 0.950 . S
C806 C805 1.398 . S
C806 C807 1.391 . S
C807 H795 0.950 . S
C807 C803 1.393 . S
C807 C806 1.391 . S
C808 H798 0.950 . S
C808 C809 1.386 . S
C808 C810 1.391 . S
C809 C808 1.386 . S
C809 C813 1.393 . S
C810 H799 0.950 . S
C810 C808 1.391 . S
C810 C811 1.400 . S
C811 C805 1.491 . S
C811 C810 1.400 . S
C811 C812 1.398 . S
C812 H800 0.950 . S
C812 C811 1.398 . S
C812 C813 1.391 . S
C813 H801 0.950 . S
C813 C809 1.393 . S
C813 C812 1.391 . S
H814 C822 0.950 . S
H815 C827 0.950 . S
H816 C824 0.950 . S
H817 C826 0.950 . S
H818 C828 0.950 . S
H819 C830 0.950 . S
H820 C832 0.950 . S
H821 C833 0.950 . S
C822 H814 0.950 . S
C822 C823 1.386 . S
C822 C824 1.391 . S
C823 C822 1.386 . S
C823 C827 1.393 . S
C824 H816 0.950 . S
C824 C822 1.391 . S
C824 C825 1.400 . S
C825 C824 1.400 . S
C825 C826 1.398 . S
C825 C831 1.491 . S
C826 H817 0.950 . S
C826 C825 1.398 . S
C826 C827 1.391 . S
C827 H815 0.950 . S
C827 C823 1.393 . S
C827 C826 1.391 . S
C828 H818 0.950 . S
C828 C829 1.386 . S
C828 C830 1.391 . S
C829 C828 1.386 . S
C829 C833 1.393 . S
C830 H819 0.950 . S
C830 C828 1.391 . S
C830 C831 1.400 . S
C831 C825 1.491 . S
C831 C830 1.400 . S
C831 C832 1.398 . S
C832 H820 0.950 . S
C832 C831 1.398 . S
C832 C833 1.391 . S
C833 H821 0.950 . S
C833 C829 1.393 . S
C833 C832 1.391 . S
H834 C842 0.950 . S
H835 C847 0.950 . S
H836 C844 0.950 . S
H837 C846 0.950 . S
H838 C848 0.950 . S
H839 C850 0.950 . S
H840 C852 0.950 . S
H841 C853 0.950 . S
C842 H834 0.950 . S
C842 C843 1.386 . S
C842 C844 1.391 . S
C843 C842 1.386 . S
C843 C847 1.393 . S
C844 H836 0.950 . S
C844 C842 1.391 . S
C844 C845 1.400 . S
C845 C844 1.400 . S
C845 C846 1.398 . S
C845 C851 1.491 . S
C846 H837 0.950 . S
C846 C845 1.398 . S
C846 C847 1.391 . S
C847 H835 0.950 . S
C847 C843 1.393 . S
C847 C846 1.391 . S
C848 H838 0.950 . S
C848 C849 1.386 . S
C848 C850 1.391 . S
C849 C848 1.386 . S
C849 C853 1.393 . S
C850 H839 0.950 . S
C850 C848 1.391 . S
C850 C851 1.400 . S
C851 C845 1.491 . S
C851 C850 1.400 . S
C851 C852 1.398 . S
C852 H840 0.950 . S
C852 C851 1.398 . S
C852 C853 1.391 . S
C853 H841 0.950 . S
C853 C849 1.393 . S
C853 C852 1.391 . S
H854 C862 0.950 . S
H855 C867 0.950 . S
H856 C864 0.950 . S
H857 C866 0.950 . S
H858 C868 0.950 . S
H859 C870 0.950 . S
H860 C872 0.950 . S
H861 C873 0.950 . S
C862 H854 0.950 . S
C862 C863 1.386 . S
C862 C864 1.391 . S
C863 C862 1.386 . S
C863 C867 1.393 . S
C864 H856 0.950 . S
C864 C862 1.391 . S
C864 C865 1.400 . S
C865 C864 1.400 . S
C865 C866 1.398 . S
C865 C871 1.491 . S
C866 H857 0.950 . S
C866 C865 1.398 . S
C866 C867 1.391 . S
C867 H855 0.950 . S
C867 C863 1.393 . S
C867 C866 1.391 . S
C868 H858 0.950 . S
C868 C869 1.386 . S
C868 C870 1.391 . S
C869 C868 1.386 . S
C869 C873 1.393 . S
C870 H859 0.950 . S
C870 C868 1.391 . S
C870 C871 1.400 . S
C871 C865 1.491 . S
C871 C870 1.400 . S
C871 C872 1.398 . S
C872 H860 0.950 . S
C872 C871 1.398 . S
C872 C873 1.391 . S
C873 H861 0.950 . S
C873 C869 1.393 . S
C873 C872 1.391 . S
H874 C882 0.950 . S
H875 C887 0.950 . S
H876 C884 0.950 . S
H877 C886 0.950 . S
H878 C888 0.950 . S
H879 C890 0.950 . S
H880 C892 0.950 . S
H881 C893 0.950 . S
C882 H874 0.950 . S
C882 C883 1.386 . S
C882 C884 1.391 . S
C883 C882 1.386 . S
C883 C887 1.393 . S
C884 H876 0.950 . S
C884 C882 1.391 . S
C884 C885 1.400 . S
C885 C884 1.400 . S
C885 C886 1.398 . S
C885 C891 1.491 . S
C886 H877 0.950 . S
C886 C885 1.398 . S
C886 C887 1.391 . S
C887 H875 0.950 . S
C887 C883 1.393 . S
C887 C886 1.391 . S
C888 H878 0.950 . S
C888 C889 1.386 . S
C888 C890 1.391 . S
C889 C888 1.386 . S
C889 C893 1.393 . S
C890 H879 0.950 . S
C890 C888 1.391 . S
C890 C891 1.400 . S
C891 C885 1.491 . S
C891 C890 1.400 . S
C891 C892 1.398 . S
C892 H880 0.950 . S
C892 C891 1.398 . S
C892 C893 1.391 . S
C893 H881 0.950 . S
C893 C889 1.393 . S
C893 C892 1.391 . S
H894 C902 0.950 . S
H895 C907 0.950 . S
H896 C904 0.950 . S
H897 C906 0.950 . S
H898 C908 0.950 . S
H899 C910 0.950 . S
H900 C912 0.950 . S
H901 C913 0.950 . S
C902 H894 0.950 . S
C902 C903 1.386 . S
C902 C904 1.391 . S
C903 C902 1.386 . S
C903 C907 1.393 . S
C904 H896 0.950 . S
C904 C902 1.391 . S
C904 C905 1.400 . S
C905 C904 1.400 . S
C905 C906 1.398 . S
C905 C911 1.491 . S
C906 H897 0.950 . S
C906 C905 1.398 . S
C906 C907 1.391 . S
C907 H895 0.950 . S
C907 C903 1.393 . S
C907 C906 1.391 . S
C908 H898 0.950 . S
C908 C909 1.386 . S
C908 C910 1.391 . S
C909 C908 1.386 . S
C909 C913 1.393 . S
C910 H899 0.950 . S
C910 C908 1.391 . S
C910 C911 1.400 . S
C911 C905 1.491 . S
C911 C910 1.400 . S
C911 C912 1.398 . S
C912 H900 0.950 . S
C912 C911 1.398 . S
C912 C913 1.391 . S
C913 H901 0.950 . S
C913 C909 1.393 . S
C913 C912 1.391 . S
H914 C922 0.950 . S
H915 C927 0.950 . S
H916 C924 0.950 . S
H917 C926 0.950 . S
H918 C928 0.950 . S
H919 C930 0.950 . S
H920 C932 0.950 . S
H921 C933 0.950 . S
C922 H914 0.950 . S
C922 C923 1.386 . S
C922 C924 1.391 . S
C923 C922 1.386 . S
C923 C927 1.393 . S
C924 H916 0.950 . S
C924 C922 1.391 . S
C924 C925 1.400 . S
C925 C924 1.400 . S
C925 C926 1.398 . S
C925 C931 1.491 . S
C926 H917 0.950 . S
C926 C925 1.398 . S
C926 C927 1.391 . S
C927 H915 0.950 . S
C927 C923 1.393 . S
C927 C926 1.391 . S
C928 H918 0.950 . S
C928 C929 1.386 . S
C928 C930 1.391 . S
C929 C928 1.386 . S
C929 C933 1.393 . S
C930 H919 0.950 . S
C930 C928 1.391 . S
C930 C931 1.400 . S
C931 C925 1.491 . S
C931 C930 1.400 . S
C931 C932 1.398 . S
C932 H920 0.950 . S
C932 C931 1.398 . S
C932 C933 1.391 . S
C933 H921 0.950 . S
C933 C929 1.393 . S
C933 C932 1.391 . S
H934 C942 0.950 . S
H935 C947 0.950 . S
H936 C944 0.950 . S
H937 C946 0.950 . S
H938 C948 0.950 . S
H939 C950 0.950 . S
H940 C952 0.950 . S
H941 C953 0.950 . S
C942 H934 0.950 . S
C942 C943 1.386 . S
C942 C944 1.391 . S
C943 C942 1.386 . S
C943 C947 1.393 . S
C944 H936 0.950 . S
C944 C942 1.391 . S
C944 C945 1.400 . S
C945 C944 1.400 . S
C945 C946 1.398 . S
C945 C951 1.491 . S
C946 H937 0.950 . S
C946 C945 1.398 . S
C946 C947 1.391 . S
C947 H935 0.950 . S
C947 C943 1.393 . S
C947 C946 1.391 . S
C948 H938 0.950 . S
C948 C949 1.386 . S
C948 C950 1.391 . S
C949 C948 1.386 . S
C949 C953 1.393 . S
C950 H939 0.950 . S
C950 C948 1.391 . S
C950 C951 1.400 . S
C951 C945 1.491 . S
C951 C950 1.400 . S
C951 C952 1.398 . S
C952 H940 0.950 . S
C952 C951 1.398 . S
C952 C953 1.391 . S
C953 H941 0.950 . S
C953 C949 1.393 . S
C953 C952 1.391 . S
H954 C962 0.950 . S
H955 C967 0.950 . S
H956 C964 0.950 . S
H957 C966 0.950 . S
H958 C968 0.950 . S
H959 C970 0.950 . S
H960 C972 0.950 . S
H961 C973 0.950 . S
C962 H954 0.950 . S
C962 C963 1.386 . S
C962 C964 1.391 . S
C963 C962 1.386 . S
C963 C967 1.393 . S
C964 H956 0.950 . S
C964 C962 1.391 . S
C964 C965 1.400 . S
C965 C964 1.400 . S
C965 C966 1.398 . S
C965 C971 1.491 . S
C966 H957 0.950 . S
C966 C965 1.398 . S
C966 C967 1.391 . S
C967 H955 0.950 . S
C967 C963 1.393 . S
C967 C966 1.391 . S
C968 H958 0.950 . S
C968 C969 1.386 . S
C968 C970 1.391 . S
C969 C968 1.386 . S
C969 C973 1.393 . S
C970 H959 0.950 . S
C970 C968 1.391 . S
C970 C971 1.400 . S
C971 C965 1.491 . S
C971 C970 1.400 . S
C971 C972 1.398 . S
C972 H960 0.950 . S
C972 C971 1.398 . S
C972 C973 1.391 . S
C973 H961 0.950 . S
C973 C969 1.393 . S
C973 C972 1.391 . S
H974 C982 0.950 . S
H975 C987 0.950 . S
H976 C984 0.950 . S
H977 C986 0.950 . S
H978 C988 0.950 . S
H979 C990 0.950 . S
H980 C992 0.950 . S
H981 C993 0.950 . S
C982 H974 0.950 . S
C982 C983 1.386 . S
C982 C984 1.391 . S
C983 C982 1.386 . S
C983 C987 1.393 . S
C984 H976 0.950 . S
C984 C982 1.391 . S
C984 C985 1.400 . S
C985 C984 1.400 . S
C985 C986 1.398 . S
C985 C991 1.491 . S
C986 H977 0.950 . S
C986 C985 1.398 . S
C986 C987 1.391 . S
C987 H975 0.950 . S
C987 C983 1.393 . S
C987 C986 1.391 . S
C988 H978 0.950 . S
C988 C989 1.386 . S
C988 C990 1.391 . S
C989 C988 1.386 . S
C989 C993 1.393 . S
C990 H979 0.950 . S
C990 C988 1.391 . S
C990 C991 1.400 . S
C991 C985 1.491 . S
C991 C990 1.400 . S
C991 C992 1.398 . S
C992 H980 0.950 . S
C992 C991 1.398 . S
C992 C993 1.391 . S
C993 H981 0.950 . S
C993 C989 1.393 . S
C993 C992 1.391 . S
H994 C1002 0.950 . S
H995 C1007 0.950 . S
H996 C1004 0.950 . S
H997 C1006 0.950 . S
H998 C1008 0.950 . S
H999 C1010 0.950 . S
H1000 C1012 0.950 . S
H1001 C1013 0.950 . S
C1002 H994 0.950 . S
C1002 C1003 1.386 . S
C1002 C1004 1.391 . S
C1003 C1002 1.386 . S
C1003 C1007 1.393 . S
C1004 H996 0.950 . S
C1004 C1002 1.391 . S
C1004 C1005 1.400 . S
C1005 C1004 1.400 . S
C1005 C1006 1.398 . S
C1005 C1011 1.491 . S
C1006 H997 0.950 . S
C1006 C1005 1.398 . S
C1006 C1007 1.391 . S
C1007 H995 0.950 . S
C1007 C1003 1.393 . S
C1007 C1006 1.391 . S
C1008 H998 0.950 . S
C1008 C1009 1.386 . S
C1008 C1010 1.391 . S
C1009 C1008 1.386 . S
C1009 C1013 1.393 . S
C1010 H999 0.950 . S
C1010 C1008 1.391 . S
C1010 C1011 1.400 . S
C1011 C1005 1.491 . S
C1011 C1010 1.400 . S
C1011 C1012 1.398 . S
C1012 H1000 0.950 . S
C1012 C1011 1.398 . S
C1012 C1013 1.391 . S
C1013 H1001 0.950 . S
C1013 C1009 1.393 . S
C1013 C1012 1.391 . S
H1014 C1022 0.950 . S
H1015 C1027 0.950 . S
H1016 C1024 0.950 . S
H1017 C1026 0.950 . S
H1018 C1028 0.950 . S
H1019 C1030 0.950 . S
H1020 C1032 0.950 . S
H1021 C1033 0.950 . S
C1022 H1014 0.950 . S
C1022 C1023 1.386 . S
C1022 C1024 1.391 . S
C1023 C1022 1.386 . S
C1023 C1027 1.393 . S
C1024 H1016 0.950 . S
C1024 C1022 1.391 . S
C1024 C1025 1.400 . S
C1025 C1024 1.400 . S
C1025 C1026 1.398 . S
C1025 C1031 1.491 . S
C1026 H1017 0.950 . S
C1026 C1025 1.398 . S
C1026 C1027 1.391 . S
C1027 H1015 0.950 . S
C1027 C1023 1.393 . S
C1027 C1026 1.391 . S
C1028 H1018 0.950 . S
C1028 C1029 1.386 . S
C1028 C1030 1.391 . S
C1029 C1028 1.386 . S
C1029 C1033 1.393 . S
C1030 H1019 0.950 . S
C1030 C1028 1.391 . S
C1030 C1031 1.400 . S
C1031 C1025 1.491 . S
C1031 C1030 1.400 . S
C1031 C1032 1.398 . S
C1032 H1020 0.950 . S
C1032 C1031 1.398 . S
C1032 C1033 1.391 . S
C1033 H1021 0.950 . S
C1033 C1029 1.393 . S
C1033 C1032 1.391 . S
H1034 C1042 0.950 . S
H1035 C1047 0.950 . S
H1036 C1044 0.950 . S
H1037 C1046 0.950 . S
H1038 C1048 0.950 . S
H1039 C1050 0.950 . S
H1040 C1052 0.950 . S
H1041 C1053 0.950 . S
C1042 H1034 0.950 . S
C1042 C1043 1.386 . S
C1042 C1044 1.391 . S
C1043 C1042 1.386 . S
C1043 C1047 1.393 . S
C1044 H1036 0.950 . S
C1044 C1042 1.391 . S
C1044 C1045 1.400 . S
C1045 C1044 1.400 . S
C1045 C1046 1.398 . S
C1045 C1051 1.491 . S
C1046 H1037 0.950 . S
C1046 C1045 1.398 . S
C1046 C1047 1.391 . S
C1047 H1035 0.950 . S
C1047 C1043 1.393 . S
C1047 C1046 1.391 . S
C1048 H1038 0.950 . S
C1048 C1049 1.386 . S
C1048 C1050 1.391 . S
C1049 C1048 1.386 . S
C1049 C1053 1.393 . S
C1050 H1039 0.950 . S
C1050 C1048 1.391 . S
C1050 C1051 1.400 . S
C1051 C1045 1.491 . S
C1051 C1050 1.400 . S
C1051 C1052 1.398 . S
C1052 H1040 0.950 . S
C1052 C1051 1.398 . S
C1052 C1053 1.391 . S
C1053 H1041 0.950 . S
C1053 C1049 1.393 . S
C1053 C1052 1.391 . S
C589 C278 1.547 . S
C583 C23 1.526 . S
C609 C347 1.524 . S
C603 C49 1.511 . S
C629 C285 1.541 . S
C623 C87 1.505 . S
C649 C348 1.542 . S
C643 C125 1.513 . S
C669 C401 1.556 . S
C663 C29 1.553 . S
C689 C437 1.515 . S
C683 C61 1.485 . S
C703 C81 1.499 . S
C709 C497 1.535 . S
C729 C560 1.514 . S
C723 C113 1.473 . S
C749 C400 1.518 . S
C743 C55 1.508 . S
C763 C93 1.488 . S
C769 C444 1.529 . S
C789 C490 1.539 . S
C783 C119 1.492 . S
C809 C559 1.528 . S
C803 C17 1.528 . S
C823 C151 1.516 . S
C829 C338 1.551 . S
C849 C295 1.529 . S
C843 C177 1.495 . S
C863 C215 1.513 . S
C869 C331 1.537 . S
C883 C253 1.516 . S
C889 C294 1.547 . S
C909 C506 1.555 . S
C903 C157 1.487 . S
C929 C550 1.516 . S
C923 C189 1.465 . S
C949 C384 1.536 . S
C943 C209 1.528 . S
C963 C241 1.507 . S
C969 C453 1.516 . S
C989 C507 1.518 . S
C983 C183 1.486 . S
C1009 C543 1.525 . S
C1003 C221 1.506 . S
C1029 C391 1.534 . S
C1023 C247 1.533 . S
C1043 C145 1.480 . S
C1049 C454 1.529 . S
