# Generated by pormake.
# Topology zzz, (3,6)-cn, num edge types: 1
# Building blocks:
#     Node 0, Type 0, BuildingBlock: QEWDON_clean_linker_0, # of connection points: 3
#     Node 1, Type 0, BuildingBlock: QEWDON_clean_linker_0, # of connection points: 3
#     Node 2, Type 0, BuildingBlock: QEWDON_clean_linker_0, # of connection points: 3
#     Node 3, Type 0, BuildingBlock: QEWDON_clean_linker_0, # of connection points: 3
#     Node 4, Type 0, BuildingBlock: QEWDON_clean_linker_0, # of connection points: 3
#     Node 5, Type 0, BuildingBlock: QEWDON_clean_linker_0, # of connection points: 3
#     Node 6, Type 0, BuildingBlock: QEWDON_clean_linker_0, # of connection points: 3
#     Node 7, Type 0, BuildingBlock: QEWDON_clean_linker_0, # of connection points: 3
#     Node 8, Type 1, BuildingBlock: CUWYAW_clean_sbu_0, # of connection points: 6
#     Node 9, Type 1, BuildingBlock: CUWYAW_clean_sbu_0, # of connection points: 6
#     Node 10, Type 1, BuildingBlock: CUWYAW_clean_sbu_0, # of connection points: 6
#     Node 11, Type 1, BuildingBlock: CUWYAW_clean_sbu_0, # of connection points: 6
#     Edge 12, Type (0, 1), BuildingBlock: XUDNAN_clean_linker_2, # of connection points: 2
#     Edge 13, Type (0, 1), BuildingBlock: XUDNAN_clean_linker_2, # of connection points: 2
#     Edge 14, Type (0, 1), BuildingBlock: XUDNAN_clean_linker_2, # of connection points: 2
#     Edge 15, Type (0, 1), BuildingBlock: XUDNAN_clean_linker_2, # of connection points: 2
#     Edge 16, Type (0, 1), BuildingBlock: XUDNAN_clean_linker_2, # of connection points: 2
#     Edge 17, Type (0, 1), BuildingBlock: XUDNAN_clean_linker_2, # of connection points: 2
#     Edge 18, Type (0, 1), BuildingBlock: XUDNAN_clean_linker_2, # of connection points: 2
#     Edge 19, Type (0, 1), BuildingBlock: XUDNAN_clean_linker_2, # of connection points: 2
#     Edge 20, Type (0, 1), BuildingBlock: XUDNAN_clean_linker_2, # of connection points: 2
#     Edge 21, Type (0, 1), BuildingBlock: XUDNAN_clean_linker_2, # of connection points: 2
#     Edge 22, Type (0, 1), BuildingBlock: XUDNAN_clean_linker_2, # of connection points: 2
#     Edge 23, Type (0, 1), BuildingBlock: XUDNAN_clean_linker_2, # of connection points: 2
#     Edge 24, Type (0, 1), BuildingBlock: XUDNAN_clean_linker_2, # of connection points: 2
#     Edge 25, Type (0, 1), BuildingBlock: XUDNAN_clean_linker_2, # of connection points: 2
#     Edge 26, Type (0, 1), BuildingBlock: XUDNAN_clean_linker_2, # of connection points: 2
#     Edge 27, Type (0, 1), BuildingBlock: XUDNAN_clean_linker_2, # of connection points: 2
#     Edge 28, Type (0, 1), BuildingBlock: XUDNAN_clean_linker_2, # of connection points: 2
#     Edge 29, Type (0, 1), BuildingBlock: XUDNAN_clean_linker_2, # of connection points: 2
#     Edge 30, Type (0, 1), BuildingBlock: XUDNAN_clean_linker_2, # of connection points: 2
#     Edge 31, Type (0, 1), BuildingBlock: XUDNAN_clean_linker_2, # of connection points: 2
#     Edge 32, Type (0, 1), BuildingBlock: XUDNAN_clean_linker_2, # of connection points: 2
#     Edge 33, Type (0, 1), BuildingBlock: XUDNAN_clean_linker_2, # of connection points: 2
#     Edge 34, Type (0, 1), BuildingBlock: XUDNAN_clean_linker_2, # of connection points: 2
#     Edge 35, Type (0, 1), BuildingBlock: XUDNAN_clean_linker_2, # of connection points: 2
# Relax obj value: 0.166
# Max RMSD: 0.148
# Mean RMSD: 0.096
data_MOF--net-zzz--node1-CUWYAW_clean_sbu_0--node2-QEWDON_clean_linker_0--edge1-XUDNAN_clean_linker_2
_symmetry_space_group_name_H-M    P1
_symmetry_Int_Tables_number       1
_symmetry_cell_setting            triclinic
loop_
_symmetry_equiv_pos_as_xyz
'x, y, z'
_cell_length_a     55.287972
_cell_length_b     55.47793
_cell_length_c     13.665065
_cell_angle_alpha  89.679145
_cell_angle_beta   90.033436
_cell_angle_gamma 90.158697
loop_
_atom_site_label
_atom_site_type_symbol
_atom_site_fract_x
_atom_site_fract_y
_atom_site_fract_z
_atom_type_partial_charge
H0 H 0.75323 0.4861 0.24618 0.0
C1 C 0.76757 0.49488 0.28634 0.0
C2 C 0.78962 0.48265 0.29636 0.0
C3 C 0.76421 0.51808 0.32639 0.0
H4 H 0.82564 0.48431 0.35627 0.0
C5 C 0.80816 0.49305 0.35223 0.0
C6 C 0.80562 0.51551 0.39643 0.0
C7 C 0.7838 0.52837 0.38086 0.0
C8 C 0.74029 0.53108 0.31155 0.0
H9 H 0.7824 0.54631 0.41076 0.0
C10 C 0.72411 0.52544 0.23316 0.0
C11 C 0.7012 0.53682 0.22368 0.0
C12 C 0.7329 0.54882 0.37851 0.0
H13 H 0.74383 0.5534 0.44133 0.0
C14 C 0.71077 0.56059 0.36776 0.0
H15 H 0.72916 0.51242 0.17842 0.0
C16 C 0.69506 0.55466 0.29169 0.0
H17 H 0.67768 0.56357 0.28826 0.0
H18 H 0.70548 0.57408 0.42046 0.0
H19 H 0.98703 0.76195 0.20227 0.0
C20 C 0.99344 0.7761 0.25016 0.0
C21 C 0.98491 0.79952 0.23629 0.0
C22 C 1.00907 0.7708 0.32854 0.0
H23 H 0.98543 0.83607 0.2852 0.0
C24 C 0.99261 0.81816 0.29785 0.0
C25 C 1.00918 0.81433 0.37365 0.0
C26 C 1.01711 0.7902 0.38981 0.0
C27 C 1.01409 0.74474 0.35285 0.0
H28 H 0.02945 0.7865 0.44951 0.0
C29 C 1.01738 0.72648 0.28008 0.0
C30 C 1.01915 0.70164 0.30692 0.0
C31 C 1.01277 0.73763 0.45143 0.0
H32 H 1.0097 0.75071 0.50859 0.0
C33 C 1.01381 0.71344 0.47784 0.0
H34 H 1.01878 0.73159 0.20372 0.0
C35 C 1.01655 0.69574 0.40703 0.0
H36 H 1.01636 0.67718 0.43177 0.0
H37 H 1.01201 0.7083 0.55404 0.0
H38 H 0.7928 0.05116 0.20818 0.0
C39 C 0.77918 0.04419 0.25788 0.0
C40 C 0.7554 0.05213 0.24711 0.0
C41 C 0.78565 0.02875 0.33572 0.0
H42 H 0.71902 0.05019 0.3011 0.0
C43 C 0.73743 0.04389 0.31121 0.0
C44 C 0.7427 0.02849 0.38954 0.0
C45 C 0.76715 0.02117 0.40281 0.0
C46 C 0.81207 0.02291 0.35008 0.0
H47 H 0.77162 1.00956 0.46407 0.0
C48 C 0.82825 1.0202 0.26946 0.0
C49 C 0.85362 1.01838 0.28397 0.0
C50 C 0.82184 0.02258 0.44504 0.0
H51 H 0.81037 0.02497 0.5084 0.0
C52 C 0.84675 0.02036 0.45966 0.0
H53 H 0.82126 1.02007 0.19542 0.0
C54 C 0.8625 1.01857 0.3802 0.0
H55 H 0.88173 1.01698 0.39412 0.0
H56 H 0.85396 0.02041 0.53333 0.0
H57 H 0.55478 0.79543 0.24245 0.0
C58 C 0.54869 0.78089 0.28967 0.0
C59 C 0.55839 0.7579 0.27648 0.0
C60 C 0.53161 0.7851 0.36386 0.0
H61 H 0.55818 0.72079 0.32317 0.0
C62 C 0.55121 0.73874 0.33716 0.0
C63 C 0.53339 0.74164 0.40826 0.0
C64 C 0.52343 0.76498 0.42144 0.0
C65 C 0.52419 0.8107 0.38543 0.0
H66 H 0.50946 0.76739 0.47596 0.0
C67 C 0.52219 0.82903 0.31146 0.0
C68 C 0.51805 0.85361 0.3365 0.0
C69 C 0.52154 0.81745 0.48367 0.0
H70 H 0.52346 0.80437 0.54224 0.0
C71 C 0.51784 0.8414 0.50883 0.0
H72 H 0.52367 0.82415 0.23515 0.0
C73 C 0.51652 0.85922 0.43695 0.0
H74 H 0.51468 0.87764 0.46143 0.0
H75 H 0.51654 0.84631 0.58522 0.0
H76 H 0.28372 0.47942 0.22389 0.0
C77 C 0.27033 0.48689 0.17464 0.0
C78 C 0.2476 0.47574 0.17075 0.0
C79 C 0.27529 0.50782 0.11899 0.0
H80 H 0.21205 0.47648 0.10721 0.0
C81 C 0.22996 0.48457 0.10643 0.0
C82 C 0.23351 0.50582 0.05325 0.0
C83 C 0.25622 0.51764 0.0603 0.0
C84 C 0.30017 0.51921 0.12336 0.0
H85 H 0.25877 0.53454 0.02167 0.0
C86 C 0.31539 0.51725 0.20747 0.0
C87 C 0.33939 0.52657 0.2077 0.0
C88 C 0.30946 0.53115 0.04046 0.0
H89 H 0.29894 0.53267 0.97393 0.0
C90 C 0.3328 0.54079 0.04075 0.0
H91 H 0.30873 0.50835 0.27269 0.0
C92 C 0.34761 0.53854 0.12299 0.0
H93 H 0.36547 0.54656 0.12031 0.0
H94 H 0.33956 0.54997 0.97618 0.0
H95 H 0.98282 0.28909 0.21655 0.0
C96 C 0.99179 0.27568 0.17223 0.0
C97 C 0.98181 0.25243 0.16713 0.0
C98 C 1.01275 0.28183 0.1188 0.0
H99 H 0.98614 0.21671 0.10851 0.0
C100 C 0.99297 0.23505 0.10825 0.0
C101 C 1.01371 0.24012 0.0537 0.0
C102 C 0.02386 0.26363 0.06001 0.0
C103 C 1.02158 0.30766 0.11963 0.0
H104 H 0.04015 0.26771 0.01915 0.0
C105 C 1.0202 0.32256 0.20451 0.0
C106 C 0.02622 0.34756 0.20021 0.0
C107 C 0.02965 0.31825 0.03184 0.0
H108 H 0.03058 0.30783 0.96519 0.0
C109 C 0.03572 0.34266 0.02739 0.0
H110 H 1.01426 0.31485 0.27341 0.0
C111 C 0.0339 0.35719 0.11011 0.0
H112 H 0.03903 0.37599 0.10386 0.0
H113 H 0.04174 0.35047 0.95881 0.0
H114 H 0.26169 0.99288 0.25808 0.0
C115 C 0.27626 0.99987 0.21346 0.0
C116 C 0.29966 0.99195 0.23409 0.0
C117 C 0.27194 1.01619 0.13568 0.0
H118 H 0.33704 0.99353 0.19733 0.0
C119 C 0.31911 0.99945 0.17627 0.0
C120 C 0.31589 1.01381 0.09285 0.0
C121 C 0.29222 0.0229 0.07524 0.0
C122 C 0.24636 0.02533 0.11635 0.0
H123 H 0.28988 0.03503 0.0142 0.0
C124 C 0.22724 0.02377 0.1874 0.0
C125 C 0.20334 0.03159 0.1652 0.0
C126 C 0.24056 0.03528 0.02407 0.0
H127 H 0.25346 0.03607 0.96498 0.0
C128 C 0.21758 0.0442 0.00419 0.0
H129 H 0.23049 1.01625 0.25921 0.0
C130 C 0.19931 0.04258 0.07364 0.0
H131 H 0.18174 0.0498 0.05461 0.0
H132 H 0.21378 0.05214 0.93329 0.0
H133 H 0.55011 0.26193 0.22349 0.0
C134 C 0.54351 0.27397 0.16693 0.0
C135 C 0.55749 0.29431 0.14278 0.0
C136 C 0.52035 0.27048 0.1259 0.0
H137 H 0.55889 0.32767 0.06217 0.0
C138 C 0.54863 0.31126 0.07531 0.0
C139 C 0.5253 0.30943 0.03669 0.0
C140 C 0.51133 0.28874 0.06089 0.0
C141 C 0.50477 0.24962 0.1616 0.0
H142 H 0.49335 0.28731 0.03023 0.0
C143 C 0.51471 0.2275 0.19847 0.0
C144 C 0.49963 0.20947 0.24121 0.0
C145 C 0.47948 0.2525 0.16616 0.0
H146 H 0.47089 0.26903 0.14273 0.0
C147 C 0.46466 0.2345 0.20509 0.0
H148 H 0.53402 0.22445 0.19627 0.0
C149 C 0.47456 0.21335 0.24274 0.0
H150 H 0.4625 0.19992 0.27379 0.0
H151 H 0.44529 0.2372 0.208 0.0
C152 C 1.00362 0.05533 0.4759 0.0
Eu153 Eu 1.01545 0.03427 0.63735 0.0
C154 C 0.9894 0.07769 0.46325 0.0
C155 C 0.96592 0.07684 0.42404 0.0
C156 C 0.95159 0.09762 0.42044 0.0
C157 C 0.96041 0.11952 0.4577 0.0
C158 C 0.98392 0.12028 0.49677 0.0
C159 C 0.99823 0.09969 0.49946 0.0
C160 C 0.98431 0.02531 0.79037 0.0
C161 C 0.03448 0.07532 0.79842 0.0
C162 C 0.04888 1.00053 0.00785 0.0
Eu163 Eu 0.04472 1.01794 0.83353 0.0
C164 C 0.03293 0.98212 0.05167 0.0
C165 C 0.04279 0.96004 0.08154 0.0
C166 C 0.02797 0.93974 0.0902 0.0
C167 C 1.00311 0.94125 0.06868 0.0
C168 C 0.99287 0.96387 0.04953 0.0
C169 C 1.00768 0.98416 0.04118 0.0
C170 C 0.07544 0.02505 0.67783 0.0
C171 C 0.02642 0.97745 0.67221 0.0
O172 O 0.02509 0.05781 0.51592 0.0
O173 O 0.99165 0.03667 0.51034 0.0
O174 O 0.97736 0.03089 0.70256 0.0
O175 O 1.00713 0.02456 0.78934 0.0
O176 O 0.02226 0.07026 0.71681 0.0
O177 O 0.04496 0.05848 0.85333 0.0
O178 O 0.03906 0.02166 0.99046 0.0
O179 O 0.06184 0.9927 0.93417 0.0
O180 O 0.08298 1.01976 0.76578 0.0
O181 O 0.05275 0.02702 0.68194 0.0
O182 O 0.03099 0.98278 0.76546 0.0
O183 O 0.0228 0.99456 0.60501 0.0
H184 H 0.95852 0.05998 0.39805 0.0
H185 H 0.93359 0.09653 0.38934 0.0
H186 H 0.99157 0.13699 0.52351 0.0
H187 H 1.01613 0.10108 0.53116 0.0
H188 H 0.06216 0.95804 0.09016 0.0
H189 H 0.03619 0.92257 0.1081 0.0
H190 H 0.97375 0.96559 0.03366 0.0
H191 H 0.99956 1.001 0.01873 0.0
C192 C 0.5061 0.9886 0.4767 0.0
Eu193 Eu 0.52295 1.00549 0.63892 0.0
C194 C 0.48538 0.97224 0.46695 0.0
C195 C 0.47494 0.96259 0.55232 0.0
C196 C 0.45245 0.9513 0.54879 0.0
C197 C 0.44014 0.94932 0.45967 0.0
C198 C 0.45133 0.95738 0.37297 0.0
C199 C 0.47384 0.96899 0.37673 0.0
C200 C 0.52653 0.97809 0.8085 0.0
C201 C 0.47873 0.0223 0.78803 0.0
C202 C 0.5513 0.05489 0.99067 0.0
Eu203 Eu 0.53394 0.03871 0.82867 0.0
C204 C 0.57198 0.07134 0.9987 0.0
C205 C 0.5801 0.0834 0.91413 0.0
C206 C 0.6028 0.0943 0.91204 0.0
C207 C 0.6178 0.09328 0.99454 0.0
C208 C 0.60892 0.08276 0.08162 0.0
C209 C 0.58615 0.07173 0.08348 0.0
C210 C 0.52825 0.06692 0.66309 0.0
C211 C 0.57855 0.02244 0.67958 0.0
O212 O 0.50041 1.01001 0.50972 0.0
O213 O 0.52512 0.97944 0.5205 0.0
O214 O 0.52372 0.96905 0.7221 0.0
O215 O 0.52813 1.00057 0.79695 0.0
O216 O 0.48528 1.01475 0.69951 0.0
O217 O 0.49448 0.02977 0.85456 0.0
O218 O 0.55697 0.03362 0.95607 0.0
O219 O 0.53188 0.06402 0.94965 0.0
O220 O 0.53107 0.07518 0.75075 0.0
O221 O 0.52789 0.04417 0.67007 0.0
O222 O 0.57155 0.03086 0.76612 0.0
O223 O 0.56292 1.01381 0.61449 0.0
H224 H 0.48339 0.96524 0.62289 0.0
H225 H 0.44394 0.94554 0.61646 0.0
H226 H 0.44185 0.9564 0.30368 0.0
H227 H 0.48152 0.97657 0.31042 0.0
H228 H 0.56964 0.08297 0.84733 0.0
H229 H 0.60921 0.10224 0.8442 0.0
H230 H 0.6203 0.08137 0.14597 0.0
H231 H 0.58033 0.0622 0.14881 0.0
C232 C 0.54169 0.4989 0.44468 0.0
Eu233 Eu 0.52951 0.51419 0.61621 0.0
C234 C 0.55525 0.47703 0.41655 0.0
C235 C 0.58067 0.47606 0.4243 0.0
C236 C 0.59288 0.45419 0.41256 0.0
C237 C 0.57985 0.43298 0.39397 0.0
C238 C 0.55467 0.43422 0.38123 0.0
C239 C 0.54253 0.456 0.39174 0.0
C240 C 0.56408 0.51467 0.75915 0.0
C241 C 0.51253 0.47582 0.78236 0.0
C242 C 0.51695 0.55495 0.97832 0.0
Eu243 Eu 0.51288 0.53434 0.81031 0.0
C244 C 0.53239 0.57601 0.9959 0.0
C245 C 0.52755 0.59204 0.07209 0.0
C246 C 0.5397 0.61419 0.07567 0.0
C247 C 0.55674 0.62033 0.00322 0.0
C248 C 0.56197 0.60407 0.92874 0.0
C249 C 0.54976 0.58214 0.92497 0.0
C250 C 0.47215 0.52691 0.69919 0.0
C251 C 0.52123 0.57226 0.63362 0.0
O252 O 0.52024 0.49507 0.48294 0.0
O253 O 0.55389 0.5156 0.49111 0.0
O254 O 0.56049 0.49716 0.69899 0.0
O255 O 0.54926 0.53154 0.74098 0.0
O256 O 0.51637 0.47934 0.68755 0.0
O257 O 0.51212 0.49402 0.84505 0.0
O258 O 0.52842 0.53496 0.95708 0.0
O259 O 0.49901 0.55937 0.91845 0.0
O260 O 0.47207 0.53443 0.78888 0.0
O261 O 0.49372 0.52268 0.67419 0.0
O262 O 0.5209 0.56929 0.72924 0.0
O263 O 0.52173 0.5535 0.57421 0.0
H264 H 0.59106 0.49198 0.4426 0.0
H265 H 0.61235 0.45369 0.42122 0.0
H266 H 0.54429 0.41819 0.364 0.0
H267 H 0.52303 0.45618 0.38391 0.0
H268 H 0.51377 0.5879 0.12599 0.0
H269 H 0.53537 0.62682 0.13322 0.0
H270 H 0.5748 0.60869 0.87167 0.0
H271 H 0.55298 0.57041 0.86371 0.0
C272 C 0.04962 0.54292 0.49797 0.0
Eu273 Eu 0.02721 0.53706 0.66252 0.0
C274 C 0.06865 0.52713 0.45916 0.0
C275 C 0.09074 0.53706 0.42883 0.0
C276 C 0.11089 0.52225 0.41607 0.0
C277 C 0.10929 0.49725 0.43406 0.0
C278 C 0.08679 0.48721 0.45886 0.0
C279 C 0.06672 0.50204 0.47148 0.0
C280 C 1.02069 0.57045 0.80864 0.0
C281 C 0.06503 0.52245 0.83059 0.0
C282 C 0.9865 0.49075 0.98199 0.0
Eu283 Eu 1.00981 0.50956 0.8347 0.0
C284 C 0.96344 0.47746 0.9889 0.0
C285 C 0.9624 0.45527 0.03861 0.0
C286 C 0.9407 0.44224 0.04301 0.0
C287 C 0.91964 0.45126 0.99803 0.0
C288 C 0.92096 0.47339 0.94744 0.0
C289 C 0.9426 0.48623 0.94228 0.0
C290 C 0.0272 0.48026 0.69125 0.0
C291 C 0.96999 0.53038 0.67356 0.0
O292 O 0.02778 0.53374 0.50341 0.0
O293 O 0.05584 0.55424 0.57775 0.0
O294 O 0.02635 0.57602 0.71924 0.0
O295 O 1.01693 0.54801 0.81366 0.0
O296 O 0.06134 0.5222 0.73524 0.0
O297 O 0.04636 0.52198 0.89058 0.0
O298 O 0.98524 0.51358 0.9581 0.0
O299 O 1.00384 0.47963 0.93618 0.0
O300 O 0.03232 0.47841 0.78349 0.0
O301 O 1.01388 0.49867 0.67747 0.0
O302 O 0.9743 0.51605 0.74987 0.0
O303 O 0.98772 0.54183 0.62811 0.0
H304 H 0.09273 0.55639 0.42003 0.0
H305 H 0.12787 0.53045 0.39436 0.0
H306 H 0.08493 0.46806 0.47316 0.0
H307 H 0.05002 0.49403 0.49628 0.0
H308 H 0.97836 0.44805 0.07416 0.0
H309 H 0.94035 0.42526 0.08247 0.0
H310 H 0.90504 0.48136 0.91465 0.0
H311 H 0.94286 0.5032 0.90268 0.0
H312 H 0.20021 0.03524 0.37075 0.0
H313 H 0.15733 1.01862 0.1132 0.0
H314 H 0.12068 1.01691 0.21387 0.0
H315 H 0.16612 0.99428 0.53427 0.0
H316 H 0.16853 1.01395 0.63841 0.0
H317 H 0.1918 1.01415 0.54615 0.0
H318 H 0.18598 0.0601 0.52292 0.0
H319 H 0.1625 0.05997 0.61429 0.0
H320 H 0.1564 0.07165 0.49344 0.0
H321 H 0.08759 1.01964 0.33947 0.0
H322 H 0.0615 0.02086 0.48652 0.0
H323 H 0.12489 0.03199 0.66784 0.0
C324 C 0.18319 0.03095 0.33565 0.0
C325 C 0.18191 0.0278 0.23253 0.0
C326 C 0.15903 0.02204 0.19082 0.0
C327 C 0.13794 0.02086 0.24769 0.0
C328 C 0.13966 0.02491 0.34778 0.0
C329 C 0.16173 0.0293 0.39213 0.0
C330 C 0.15832 0.03223 0.50216 0.0
C331 C 0.172 1.01247 0.55858 0.0
C332 C 0.16628 0.05749 0.53512 0.0
C333 C 0.13099 0.02903 0.51193 0.0
C334 C 0.12059 0.02513 0.42153 0.0
C335 C 0.09558 0.02245 0.41083 0.0
C336 C 0.08083 0.02334 0.49472 0.0
C337 C 0.09105 0.02652 0.58873 0.0
C338 C 0.11651 0.02948 0.59697 0.0
H339 H 0.49132 0.19332 0.42757 0.0
H340 H 0.52822 0.17367 0.16053 0.0
H341 H 0.53801 0.13358 0.23319 0.0
H342 H 0.53306 0.16388 0.59503 0.0
H343 H 0.50933 0.15532 0.67878 0.0
H344 H 0.50615 0.182 0.60434 0.0
H345 H 0.46556 0.16543 0.53724 0.0
H346 H 0.46888 0.13847 0.60997 0.0
H347 H 0.46487 0.13631 0.47941 0.0
H348 H 0.54137 0.09341 0.33861 0.0
H349 H 0.54281 0.06175 0.46896 0.0
H350 H 0.50488 0.10962 0.66487 0.0
C351 C 0.50176 0.18071 0.38466 0.0
C352 C 0.50907 0.18676 0.28822 0.0
C353 C 0.52266 0.16964 0.23482 0.0
C354 C 0.52807 0.14669 0.27539 0.0
C355 C 0.51998 0.1411 0.37007 0.0
C356 C 0.50748 0.15798 0.42429 0.0
C357 C 0.50105 0.14817 0.52475 0.0
C358 C 0.51312 0.16323 0.60548 0.0
C359 C 0.47345 0.14703 0.5386 0.0
C360 C 0.5118 0.1231 0.51953 0.0
C361 C 0.5224 0.11899 0.42958 0.0
C362 C 0.53316 0.09667 0.40916 0.0
C363 C 0.53368 0.07862 0.4832 0.0
C364 C 0.52379 0.08308 0.57697 0.0
C365 C 0.5125 0.10554 0.59385 0.0
H366 H 0.38945 0.52029 0.21264 0.0
H367 H 0.32723 0.52846 0.40361 0.0
H368 H 0.35427 0.52706 0.54702 0.0
H369 H 0.42428 0.48035 0.37113 0.0
H370 H 0.45289 0.49419 0.34123 0.0
H371 H 0.42865 0.4943 0.25296 0.0
H372 H 0.43151 0.54078 0.23989 0.0
H373 H 0.45577 0.54081 0.32795 0.0
H374 H 0.42912 0.55867 0.3492 0.0
H375 H 0.38809 0.52707 0.67024 0.0
H376 H 0.42602 0.52821 0.76464 0.0
H377 H 0.46731 0.52074 0.4967 0.0
C378 C 0.38138 0.52185 0.28444 0.0
C379 C 0.35587 0.52442 0.29561 0.0
C380 C 0.34643 0.52603 0.39185 0.0
C381 C 0.36175 0.52543 0.4742 0.0
C382 C 0.38666 0.5232 0.46015 0.0
C383 C 0.39645 0.52139 0.36769 0.0
C384 C 0.42398 0.51986 0.37302 0.0
C385 C 0.43298 0.49574 0.33215 0.0
C386 C 0.43579 0.54131 0.31932 0.0
C387 C 0.42816 0.52133 0.48298 0.0
C388 C 0.40629 0.52318 0.53154 0.0
C389 C 0.40526 0.52548 0.63288 0.0
C390 C 0.427 0.52611 0.68598 0.0
C391 C 0.44975 0.52441 0.63861 0.0
C392 C 0.45026 0.52177 0.53539 0.0
H393 H 1.00881 0.39451 0.21572 0.0
H394 H 0.04336 0.33783 0.38485 0.0
H395 H 0.04733 0.36568 0.52462 0.0
H396 H 0.04468 0.44376 0.30453 0.0
H397 H 1.02014 0.46502 0.30946 0.0
H398 H 1.01929 0.44072 0.22256 0.0
H399 H 0.97792 0.42681 0.29087 0.0
H400 H 0.97852 0.45116 0.37755 0.0
H401 H 0.97484 0.42054 0.41989 0.0
H402 H 0.05094 0.40053 0.64086 0.0
H403 H 0.04916 0.43798 0.73534 0.0
H404 H 1.00934 0.47258 0.49961 0.0
C405 C 1.01704 0.38787 0.28251 0.0
C406 C 0.02579 0.36373 0.28871 0.0
C407 C 0.03626 0.35594 0.37799 0.0
C408 C 0.03879 0.37177 0.45768 0.0
C409 C 0.03047 0.39545 0.44829 0.0
C410 C 1.01938 0.40341 0.36364 0.0
C411 C 1.01171 0.42975 0.37383 0.0
C412 C 0.02473 0.44575 0.29806 0.0
C413 C 0.98411 0.4322 0.36503 0.0
C414 C 1.02034 0.43539 0.47734 0.0
C415 C 0.03143 0.41535 0.51783 0.0
C416 C 0.04197 0.41617 0.61028 0.0
C417 C 0.04087 0.43771 0.66353 0.0
C418 C 0.02897 0.45848 0.62611 0.0
C419 C 1.01852 0.45716 0.53105 0.0
H420 H 0.89487 0.04521 0.24603 0.0
H421 H 0.85242 0.98561 0.13436 0.0
H422 H 0.88326 0.97882 0.00587 0.0
H423 H 0.91376 0.06775 0.00732 0.0
H424 H 0.94334 0.07683 0.04898 0.0
H425 H 0.91825 0.07647 0.13296 0.0
H426 H 0.94201 0.04817 0.24889 0.0
H427 H 0.96728 0.04876 0.16559 0.0
H428 H 0.95421 0.02035 0.20305 0.0
H429 H 0.91925 0.97816 0.89035 0.0
H430 H 0.9545 0.98682 0.78428 0.0
H431 H 0.97352 0.04769 0.96592 0.0
C432 C 0.89204 0.03078 0.19421 0.0
C433 C 0.87114 1.01587 0.20058 0.0
C434 C 0.86808 0.99735 0.13074 0.0
C435 C 0.88566 0.99325 0.05798 0.0
C436 C 0.90619 1.00801 0.05473 0.0
C437 C 0.90923 0.02672 0.11988 0.0
C438 C 0.93237 0.04069 0.09736 0.0
C439 C 0.92658 0.06699 0.07 0.0
C440 C 0.95005 0.0394 0.18388 0.0
C441 C 0.942 0.02688 0.00979 0.0
C442 C 0.9267 1.00791 0.9872 0.0
C443 C 0.93135 0.99289 0.90792 0.0
C444 C 0.95155 0.99781 0.84846 0.0
C445 C 0.96716 1.01745 0.86828 0.0
C446 C 0.96241 0.03204 0.95087 0.0
H447 H 0.53872 0.85894 0.14804 0.0
H448 H 0.49044 0.89486 0.35133 0.0
H449 H 0.49045 0.93071 0.24666 0.0
H450 H 0.57311 0.91004 0.06908 0.0
H451 H 0.57369 0.90206 0.94142 0.0
H452 H 0.57114 0.87884 0.0336 0.0
H453 H 0.5319 0.86302 0.95263 0.0
H454 H 0.53456 0.88596 0.85934 0.0
H455 H 0.50723 0.88352 0.93057 0.0
H456 H 0.49831 0.96492 0.12742 0.0
H457 H 0.506 0.99106 0.98291 0.0
H458 H 0.54362 0.93222 0.8424 0.0
C459 C 0.52793 0.87418 0.1705 0.0
C460 C 0.51556 0.87395 0.26196 0.0
C461 C 0.50134 0.89451 0.28564 0.0
C462 C 0.50099 0.91517 0.22587 0.0
C463 C 0.51422 0.91521 0.13943 0.0
C464 C 0.52673 0.89498 0.10968 0.0
C465 C 0.5379 0.89943 0.00911 0.0
C466 C 0.56561 0.89747 0.01362 0.0
C467 C 0.52726 0.88194 0.93342 0.0
C468 C 0.53002 0.92533 0.98843 0.0
C469 C 0.51679 0.93423 0.06572 0.0
C470 C 0.50841 0.95802 0.06588 0.0
C471 C 0.51306 0.97287 0.98386 0.0
C472 C 0.52546 0.96381 0.90145 0.0
C473 C 0.53412 0.93971 0.90445 0.0
H474 H 0.66961 0.56544 0.11475 0.0
H475 H 0.69035 0.4909 0.16288 0.0
H476 H 0.65751 0.47775 0.05266 0.0
H477 H 0.6055 0.55525 0.11091 0.0
H478 H 0.59959 0.5772 0.01645 0.0
H479 H 0.62521 0.58097 0.09612 0.0
H480 H 0.65363 0.58333 0.94575 0.0
H481 H 0.62794 0.5798 0.86592 0.0
H482 H 0.65315 0.55938 0.85713 0.0
H483 H 0.62112 0.47238 0.94337 0.0
H484 H 0.58601 0.47514 0.83282 0.0
H485 H 0.58917 0.55312 0.84758 0.0
C486 C 0.66737 0.54633 0.10184 0.0
C487 C 0.68285 0.52923 0.14808 0.0
C488 C 0.67919 0.50444 0.12786 0.0
C489 C 0.66036 0.49677 0.06584 0.0
C490 C 0.64523 0.51403 0.02336 0.0
C491 C 0.6487 0.53834 0.0394 0.0
C492 C 0.62981 0.55314 0.98445 0.0
C493 C 0.6141 0.56748 0.05631 0.0
C494 C 0.64186 0.5699 0.9088 0.0
C495 C 0.61516 0.53337 0.93482 0.0
C496 C 0.62432 0.51095 0.95929 0.0
C497 C 0.61391 0.48986 0.92362 0.0
C498 C 0.59389 0.49165 0.86064 0.0
C499 C 0.58424 0.51433 0.83263 0.0
C500 C 0.59522 0.5355 0.87039 0.0
H501 H 1.00436 0.69578 0.1089 0.0
H502 H 0.04578 0.66074 0.33952 0.0
H503 H 0.04818 0.62412 0.24179 0.0
H504 H 0.97164 0.64457 0.0227 0.0
H505 H 0.97481 0.65117 0.89404 0.0
H506 H 0.97532 0.67531 0.98172 0.0
H507 H 1.01689 0.68951 0.91616 0.0
H508 H 1.01635 0.66559 0.82739 0.0
H509 H 0.04155 0.66837 0.91035 0.0
H510 H 0.04208 0.58916 0.13019 0.0
H511 H 0.03662 0.56098 0.993 0.0
H512 H 1.00609 0.61861 0.8169 0.0
C513 C 1.01422 0.68057 0.13843 0.0
C514 C 0.02379 0.68123 0.23543 0.0
C515 C 0.03698 0.66074 0.26876 0.0
C516 C 0.0387 0.63968 0.21311 0.0
C517 C 0.02808 0.63918 0.12098 0.0
C518 C 1.01692 0.65929 0.08171 0.0
C519 C 1.00853 0.65388 0.97735 0.0
C520 C 0.98093 0.65639 0.96846 0.0
C521 C 1.02161 0.67032 0.90342 0.0
C522 C 1.01633 0.62759 0.96586 0.0
C523 C 0.02707 0.61946 0.05098 0.0
C524 C 0.03421 0.59548 0.06224 0.0
C525 C 0.03091 0.57949 0.98385 0.0
C526 C 1.02128 0.58749 0.89344 0.0
C527 C 1.01382 0.61197 0.88465 0.0
H528 H 0.94409 0.22358 0.11764 0.0
H529 H 0.9749 0.2623 0.36146 0.0
H530 H 0.95399 0.23522 0.47584 0.0
H531 H 0.88945 0.19114 0.26142 0.0
H532 H 0.89608 0.16406 0.19436 0.0
H533 H 0.89888 0.19312 0.13538 0.0
H534 H 0.94295 0.18287 0.08788 0.0
H535 H 0.94039 0.15427 0.14683 0.0
H536 H 0.96419 0.17471 0.18267 0.0
H537 H 0.94599 0.19742 0.55797 0.0
H538 H 0.95484 0.15494 0.5943 0.0
H539 H 0.93603 0.13573 0.29761 0.0
C540 C 0.94527 0.22695 0.19545 0.0
C541 C 0.96144 0.24459 0.23083 0.0
C542 C 0.96255 0.24895 0.33241 0.0
C543 C 0.95069 0.23345 0.39815 0.0
C544 C 0.93812 0.21357 0.36111 0.0
C545 C 0.93505 0.21044 0.26118 0.0
C546 C 0.92813 0.18461 0.23756 0.0
C547 C 0.90155 0.18316 0.20533 0.0
C548 C 0.94495 0.17351 0.15942 0.0
C549 C 0.93148 0.173 0.33714 0.0
C550 C 0.93528 0.19025 0.40862 0.0
C551 C 0.94249 0.18386 0.50308 0.0
C552 C 0.94777 0.15969 0.52291 0.0
C553 C 0.94658 0.14227 0.44786 0.0
C554 C 0.9367 0.14872 0.35632 0.0
H555 H 0.31531 1.0025 0.41473 0.0
H556 H 0.2995 0.9435 0.22069 0.0
H557 H 0.33023 0.9187 0.30284 0.0
H558 H 0.36991 1.00289 0.39247 0.0
H559 H 0.38075 1.009 0.51438 0.0
H560 H 0.35076 1.01756 0.48086 0.0
H561 H 0.33273 0.99266 0.62359 0.0
H562 H 0.36296 0.98451 0.66061 0.0
H563 H 0.34072 0.96137 0.63818 0.0
H564 H 0.37196 0.90927 0.34337 0.0
H565 H 0.41624 0.91254 0.36698 0.0
H566 H 0.40585 0.9757 0.54557 0.0
C567 C 0.31696 0.98362 0.39631 0.0
C568 C 0.30506 0.97466 0.31298 0.0
C569 C 0.30813 0.95035 0.28613 0.0
C570 C 0.32579 0.93623 0.33204 0.0
C571 C 0.33973 0.94661 0.40592 0.0
C572 C 0.33475 0.96947 0.44149 0.0
C573 C 0.35523 0.97855 0.5055 0.0
C574 C 0.36471 1.00342 0.47103 0.0
C575 C 0.34744 0.9793 0.61338 0.0
C576 C 0.37367 0.95889 0.48911 0.0
C577 C 0.36424 0.94027 0.43374 0.0
C578 C 0.37925 0.92296 0.39126 0.0
C579 C 0.40436 0.92499 0.40413 0.0
C580 C 0.41406 0.94397 0.46013 0.0
C581 C 0.39852 0.96049 0.50586 0.0
H582 H 0.55569 0.30156 0.33591 0.0
H583 H 0.60315 0.30737 0.08637 0.0
H584 H 0.6259 0.33965 0.16777 0.0
H585 H 0.54216 0.35373 0.35161 0.0
H586 H 0.54137 0.35914 0.48164 0.0
H587 H 0.53796 0.32918 0.43734 0.0
H588 H 0.57404 0.31485 0.54204 0.0
H589 H 0.57754 0.345 0.58898 0.0
H590 H 0.60282 0.33003 0.53285 0.0
H591 H 0.63045 0.38003 0.23215 0.0
H592 H 0.61832 0.42118 0.27823 0.0
H593 H 0.5676 0.39177 0.48808 0.0
C594 C 0.57214 0.30836 0.30269 0.0
C595 C 0.5778 0.30211 0.20562 0.0
C596 C 0.59881 0.31178 0.16147 0.0
C597 C 0.61176 0.33027 0.20738 0.0
C598 C 0.60359 0.33864 0.29772 0.0
C599 C 0.58469 0.32735 0.34703 0.0
C600 C 0.57533 0.343 0.42939 0.0
C601 C 0.54761 0.34648 0.42435 0.0
C602 C 0.5829 0.3326 0.52922 0.0
C603 C 0.5889 0.36614 0.40789 0.0
C604 C 0.60616 0.36292 0.33572 0.0
C605 C 0.61775 0.38258 0.29138 0.0
C606 C 0.61072 0.40595 0.3176 0.0
C607 C 0.59201 0.40938 0.38631 0.0
C608 C 0.58208 0.38934 0.43578 0.0
H609 H 0.2453 0.48893 0.3566 0.0
H610 H 0.2275 0.4305 0.1625 0.0
H611 H 0.19139 0.42124 0.26041 0.0
H612 H 0.20638 0.46768 0.59221 0.0
H613 H 0.19972 0.49935 0.60519 0.0
H614 H 0.22901 0.49005 0.56283 0.0
H615 H 0.22151 0.51942 0.41625 0.0
H616 H 0.19128 0.52567 0.45362 0.0
H617 H 0.19672 0.51339 0.3338 0.0
H618 H 0.1511 0.43009 0.32084 0.0
H619 H 0.11351 0.4525 0.35155 0.0
H620 H 0.15446 0.50773 0.50195 0.0
C621 C 0.23483 0.4729 0.34046 0.0
C622 C 0.23885 0.46055 0.25235 0.0
C623 C 0.22473 0.44001 0.23059 0.0
C624 C 0.20393 0.43489 0.28548 0.0
C625 C 0.1978 0.45038 0.3618 0.0
C626 C 0.2133 0.46868 0.39139 0.0
C627 C 0.20022 0.487 0.45387 0.0
C628 C 0.20934 0.48589 0.5599 0.0
C629 C 0.20257 0.51283 0.41168 0.0
C630 C 0.17457 0.47769 0.44584 0.0
C631 C 0.17362 0.45609 0.39573 0.0
C632 C 0.15167 0.44643 0.36369 0.0
C633 C 0.13036 0.45937 0.38087 0.0
C634 C 0.13116 0.48191 0.42859 0.0
C635 C 0.15342 0.49055 0.46492 0.0
H636 H 1.00047 0.80552 0.05391 0.0
H637 H 0.93725 0.81186 0.23526 0.0
H638 H 0.92706 0.85023 0.15626 0.0
H639 H 0.02239 0.85206 0.10237 0.0
H640 H 0.03507 0.86339 0.98951 0.0
H641 H 0.02974 0.83187 0.00352 0.0
H642 H 1.00262 0.83092 0.85017 0.0
H643 H 1.00846 0.86262 0.83219 0.0
H644 H 0.9778 0.85176 0.83818 0.0
H645 H 0.93585 0.89276 0.13398 0.0
H646 H 0.95744 0.93174 0.13855 0.0
H647 H 1.0163 0.90076 0.97312 0.0
C648 C 0.98333 0.81407 0.06943 0.0
C649 C 0.97003 0.8065 0.15161 0.0
C650 C 0.9477 0.81764 0.17227 0.0
C651 C 0.94203 0.83978 0.12848 0.0
C652 C 0.95854 0.8498 0.06244 0.0
C653 C 0.97829 0.83674 0.02889 0.0
C654 C 0.99661 0.85315 0.97956 0.0
C655 C 0.02241 0.84992 0.02148 0.0
C656 C 0.99633 0.84937 0.86839 0.0
C657 C 0.9862 0.87744 0.0053 0.0
C658 C 0.96374 0.87526 0.04905 0.0
C659 C 0.95286 0.89481 0.09566 0.0
C660 C 0.96533 0.91685 0.09892 0.0
C661 C 0.9886 0.91903 0.05708 0.0
C662 C 0.99858 0.89938 0.00638 0.0
H663 H 0.73446 0.09504 0.27366 0.0
H664 H 0.75845 0.04613 0.04955 0.0
H665 H 0.73122 0.0657 0.93068 0.0
H666 H 0.68027 0.08529 0.2462 0.0
H667 H 0.66728 0.11462 0.26679 0.0
H668 H 0.69629 0.10772 0.31634 0.0
H669 H 0.71523 0.14441 0.22689 0.0
H670 H 0.68586 0.15188 0.1779 0.0
H671 H 0.71122 0.14801 0.09671 0.0
H672 H 0.6927 0.07741 0.86126 0.0
H673 H 0.64844 0.07904 0.85046 0.0
H674 H 0.64566 0.11875 0.12178 0.0
C675 C 0.73497 0.08973 0.19755 0.0
C676 C 0.74834 0.06934 0.16983 0.0
C677 C 0.74852 0.06204 0.07123 0.0
C678 C 0.73301 0.0731 0.00343 0.0
C679 C 0.71757 0.09132 0.03596 0.0
C680 C 0.71882 0.09998 0.1309 0.0
C681 C 0.69647 0.11431 0.15706 0.0
C682 C 0.68439 0.10487 0.25196 0.0
C683 C 0.70257 0.14126 0.16504 0.0
C684 C 0.68108 0.10953 0.06782 0.0
C685 C 0.69405 0.09755 0.99627 0.0
C686 C 0.68264 0.08757 0.9149 0.0
C687 C 0.65739 0.08856 0.90933 0.0
C688 C 0.6438 0.09911 0.98557 0.0
C689 C 0.65586 0.11088 0.06243 0.0
H690 H 0.53986 0.75298 0.09936 0.0
H691 H 0.60599 0.74571 0.26356 0.0
H692 H 0.6196 0.71384 0.15255 0.0
H693 H 0.52581 0.70073 0.11659 0.0
H694 H 0.51188 0.69427 1.00023 0.0
H695 H 0.51323 0.7246 0.04218 0.0
H696 H 0.53654 0.73884 0.88708 0.0
H697 H 0.53291 0.70866 0.84168 0.0
H698 H 0.5626 0.72217 0.84673 0.0
H699 H 0.61792 0.67394 0.08345 0.0
H700 H 0.60245 0.63261 0.05717 0.0
H701 H 0.53504 0.6616 0.94912 0.0
C702 C 0.55804 0.74594 0.1057 0.0
C703 C 0.57205 0.75171 0.18813 0.0
C704 C 0.59534 0.74176 0.19902 0.0
C705 C 0.60304 0.72343 0.13643 0.0
C706 C 0.58707 0.71521 0.06459 0.0
C707 C 0.56511 0.72661 0.04726 0.0
C708 C 0.54813 0.71065 0.98912 0.0
C709 C 0.52338 0.70737 0.04027 0.0
C710 C 0.5449 0.72066 0.88491 0.0
C711 C 0.56249 0.68751 0.98866 0.0
C712 C 0.58544 0.69083 0.0273 0.0
C713 C 0.60041 0.67129 0.04975 0.0
C714 C 0.59147 0.64791 0.03572 0.0
C715 C 0.56768 0.64441 1.00152 0.0
C716 C 0.55342 0.66427 0.97427 0.0
H717 H 0.81627 0.44353 0.35047 0.0
H718 H 0.77744 0.47414 0.10503 0.0
H719 H 0.80255 0.45112 0.99206 0.0
H720 H 0.86575 0.4609 0.27819 0.0
H721 H 0.88534 0.43659 0.31576 0.0
H722 H 0.85724 0.44083 0.37678 0.0
H723 H 0.84447 0.39706 0.33681 0.0
H724 H 0.87303 0.39257 0.2758 0.0
H725 H 0.8451 0.38665 0.21214 0.0
H726 H 0.83953 0.44106 0.908 0.0
H727 H 0.88228 0.44721 0.86613 0.0
H728 H 0.90255 0.42989 0.16444 0.0
C729 C 0.81241 0.4443 0.27285 0.0
C730 C 0.79544 0.46107 0.23651 0.0
C731 C 0.79032 0.46144 0.13517 0.0
C732 C 0.80473 0.44838 0.07003 0.0
C733 C 0.8243 0.43532 0.10722 0.0
C734 C 0.82797 0.43287 0.20728 0.0
C735 C 0.85368 0.42503 0.22964 0.0
C736 C 0.8662 0.44187 0.30419 0.0
C737 C 0.85409 0.39876 0.26568 0.0
C738 C 0.86477 0.42711 0.12863 0.0
C739 C 0.8472 0.43117 0.05816 0.0
C740 C 0.85332 0.43733 0.96218 0.0
C741 C 0.87771 0.44111 0.93926 0.0
C742 C 0.8957 0.43949 0.01277 0.0
C743 C 0.88924 0.43085 0.10654 0.0
H744 H 0.99093 0.21035 0.92171 0.0
H745 H 0.05985 0.22164 0.0653 0.0
H746 H 0.0736 0.18166 0.00714 0.0
H747 H 0.98421 0.14998 0.98162 0.0
H748 H 0.97067 0.14072 0.86775 0.0
H749 H 0.96745 0.17132 0.90865 0.0
H750 H 0.9854 0.18677 0.74577 0.0
H751 H 0.98926 0.15627 0.70368 0.0
H752 H 1.01477 0.17648 0.70702 0.0
H753 H 0.07728 0.13754 0.95379 0.0
H754 H 0.07269 0.09577 0.89449 0.0
H755 H 1.00193 0.11336 0.77796 0.0
C756 C 1.00927 0.2048 0.93791 0.0
C757 C 0.02447 0.21949 0.99713 0.0
C758 C 0.04809 0.21116 0.01844 0.0
C759 C 0.05592 0.18827 0.98646 0.0
C760 C 0.04007 0.17387 0.93187 0.0
C761 C 1.0174 0.18209 0.9059 0.0
C762 C 1.00338 0.16275 0.85059 0.0
C763 C 0.98005 0.15579 0.90544 0.0
C764 C 0.99787 0.17109 0.74553 0.0
C765 C 1.02144 0.14208 0.85116 0.0
C766 C 0.04246 0.14885 0.89886 0.0
C767 C 0.06107 0.13233 0.91477 0.0
C768 C 0.05824 0.10851 0.88104 0.0
C769 C 0.03708 0.10113 0.83034 0.0
C770 C 1.01854 0.1184 0.81467 0.0
H771 H 0.35657 0.98502 0.06356 0.0
H772 H 0.32545 0.05319 0.96881 0.0
H773 H 0.36214 0.06107 0.87028 0.0
H774 H 0.41563 1.00922 0.10368 0.0
H775 H 0.43079 0.98195 0.06775 0.0
H776 H 0.40095 0.98043 0.12009 0.0
H777 H 0.38573 0.95714 0.96813 0.0
H778 H 0.41551 0.95872 0.91496 0.0
H779 H 0.38982 0.97005 0.84787 0.0
H780 H 0.40403 0.0619 0.78437 0.0
H781 H 0.44677 0.05707 0.73223 0.0
H782 H 0.45176 0.99114 0.90175 0.0
C783 C 0.35723 1.00196 0.02422 0.0
C784 C 0.33757 1.01857 0.02669 0.0
C785 C 0.33967 0.03984 0.96882 0.0
C786 C 0.36069 0.0446 0.91269 0.0
C787 C 0.37983 0.02814 0.91541 0.0
C788 C 0.37828 1.00735 0.97082 0.0
C789 C 0.40184 0.99327 0.96798 0.0
C790 C 0.41296 0.9911 0.07097 0.0
C791 C 0.39798 0.96832 0.92199 0.0
C792 C 0.41711 1.00934 0.90221 0.0
C793 C 0.40399 0.02919 0.87105 0.0
C794 C 0.41433 0.04644 0.80884 0.0
C795 C 0.43861 0.04354 0.77927 0.0
C796 C 0.45251 0.02373 0.81266 0.0
C797 C 0.44151 1.00641 0.87473 0.0
H798 H 0.54473 0.33631 0.88381 0.0
H799 H 0.48408 0.33392 0.08424 0.0
H800 H 0.4729 0.37541 0.03475 0.0
H801 H 0.56201 0.39547 0.92479 0.0
H802 H 0.56969 0.40296 0.80006 0.0
H803 H 0.5714 0.37217 0.84165 0.0
H804 H 0.54239 0.35875 0.70329 0.0
H805 H 0.54115 0.38946 0.6599 0.0
H806 H 0.51361 0.37353 0.68921 0.0
H807 H 0.47252 0.41973 0.98357 0.0
H808 H 0.47898 0.46078 0.9162 0.0
H809 H 0.53774 0.43413 0.73763 0.0
C810 C 0.52857 0.3442 0.91462 0.0
C811 C 0.51506 0.33152 0.98722 0.0
C812 C 0.49438 0.34284 0.02713 0.0
C813 C 0.48807 0.3666 1.0001 0.0
C814 C 0.50228 0.37887 0.93129 0.0
C815 C 0.52174 0.3678 0.88695 0.0
C816 C 0.53447 0.38523 0.81707 0.0
C817 C 0.56096 0.38919 0.84777 0.0
C818 C 0.5328 0.37621 0.71108 0.0
C819 C 0.5196 0.40804 0.83108 0.0
C820 C 0.50124 0.40401 0.89801 0.0
C821 C 0.48645 0.42284 0.92934 0.0
C822 C 0.49032 0.44619 0.89099 0.0
C823 C 0.50854 0.4507 0.82029 0.0
C824 C 0.52325 0.4312 0.7897 0.0
H825 H 0.20392 0.48512 0.9149 0.0
H826 H 0.21204 0.5491 0.09204 0.0
H827 H 0.17002 0.56097 0.05133 0.0
H828 H 0.16481 0.5124 0.72188 0.0
H829 H 0.1466 0.48559 0.70945 0.0
H830 H 0.17789 0.4831 0.74447 0.0
H831 H 0.16625 0.45911 0.8986 0.0
H832 H 0.13478 0.4612 0.86579 0.0
H833 H 0.14486 0.47166 0.98367 0.0
H834 H 0.12468 0.56215 0.01262 0.0
H835 H 0.08249 0.5565 0.95542 0.0
H836 H 0.10437 0.49347 0.79263 0.0
C837 C 0.19718 0.50217 0.94162 0.0
C838 C 0.21157 0.51648 0.00509 0.0
C839 C 0.20173 0.53822 0.04122 0.0
C840 C 0.17771 0.54491 0.01945 0.0
C841 C 0.1637 0.52986 0.96013 0.0
C842 C 0.17332 0.50924 0.91949 0.0
C843 C 0.15421 0.49566 0.86118 0.0
C844 C 0.16129 0.49413 0.75274 0.0
C845 C 0.14977 0.47042 0.90495 0.0
C846 C 0.13231 0.51175 0.87545 0.0
C847 C 0.13803 0.53115 0.93438 0.0
C848 C 0.12023 0.54731 0.96471 0.0
C849 C 0.09624 0.54386 0.93256 0.0
C850 C 0.09018 0.52469 0.86907 0.0
C851 C 0.10855 0.50849 0.84009 0.0
H852 H 1.01582 0.86215 0.31489 0.0
H853 H 1.01914 0.81631 0.5732 0.0
H854 H 0.02565 0.85252 0.67492 0.0
H855 H 0.05914 0.90798 0.39305 0.0
H856 H 0.042 0.93228 0.33922 0.0
H857 H 0.04054 0.90257 0.28696 0.0
H858 H 0.994 0.90306 0.30378 0.0
H859 H 0.99538 0.93262 0.35721 0.0
H860 H 0.98059 0.90832 0.42198 0.0
H861 H 0.02876 0.89487 0.75118 0.0
H862 H 0.02937 0.9379 0.79359 0.0
H863 H 1.02149 0.95672 0.48639 0.0
C864 C 1.01775 0.85948 0.39302 0.0
C865 C 1.01661 0.83588 0.43528 0.0
C866 C 1.02007 0.8338 0.53783 0.0
C867 C 0.0235 0.85445 0.59667 0.0
C868 C 0.02333 0.87734 0.55278 0.0
C869 C 1.02068 0.8799 0.4529 0.0
C870 C 1.02022 0.90649 0.4235 0.0
C871 C 0.04176 0.91269 0.35676 0.0
C872 C 0.99611 0.91299 0.37372 0.0
C873 C 0.02266 0.91865 0.52278 0.0
C874 C 0.02465 0.90148 0.59626 0.0
C875 C 0.02708 0.90829 0.69395 0.0
C876 C 0.02746 0.93301 0.71735 0.0
C877 C 0.02544 0.95114 0.64386 0.0
C878 C 0.02299 0.94359 0.54494 0.0
H879 H 0.69737 1.01183 0.34053 0.0
H880 H 0.74048 0.033 0.59066 0.0
H881 H 0.70354 0.03238 0.69405 0.0
H882 H 0.64772 0.04835 0.3906 0.0
H883 H 0.62505 0.0273 0.34944 0.0
H884 H 0.65507 0.02638 0.29871 0.0
H885 H 0.6591 0.98147 0.34838 0.0
H886 H 0.6289 0.98209 0.39789 0.0
H887 H 0.65384 0.97257 0.47369 0.0
H888 H 0.6603 0.03407 0.76527 0.0
H889 H 0.61656 0.03403 0.80137 0.0
H890 H 0.60153 1.01156 0.50368 0.0
C891 C 0.6992 1.01565 0.41781 0.0
C892 C 0.72209 0.02221 0.45747 0.0
C893 C 0.72344 0.02743 0.5587 0.0
C894 C 0.70241 0.02739 0.61773 0.0
C895 C 0.68003 0.02188 0.575 0.0
C896 C 0.67843 1.0157 0.47745 0.0
C897 C 0.65221 1.01156 0.44749 0.0
C898 C 0.64457 0.02946 0.36681 0.0
C899 C 0.64829 0.98536 0.41496 0.0
C900 C 0.63911 1.01663 0.54299 0.0
C901 C 0.65546 0.02261 0.6157 0.0
C902 C 0.6475 0.02903 0.70896 0.0
C903 C 0.62245 0.02902 0.72871 0.0
C904 C 0.60523 0.02257 0.65598 0.0
C905 C 0.61396 1.01634 0.56169 0.0
H906 H 0.55647 0.71212 0.54289 0.0
H907 H 0.49077 0.71864 0.37251 0.0
H908 H 0.48039 0.67622 0.412 0.0
H909 H 0.57121 0.65348 0.47621 0.0
H910 H 0.58207 0.64357 0.59412 0.0
H911 H 0.58343 0.67503 0.56137 0.0
H912 H 0.55894 0.68602 0.71568 0.0
H913 H 0.55791 0.65464 0.74997 0.0
H914 H 0.53022 0.67145 0.73815 0.0
H915 H 0.48045 0.63098 0.44953 0.0
H916 H 0.48684 0.58905 0.50766 0.0
H917 H 0.55023 0.61218 0.66857 0.0
C918 C 0.53937 0.70491 0.51762 0.0
C919 C 0.52405 0.71907 0.45665 0.0
C920 C 0.50236 0.70855 0.42172 0.0
C921 C 0.4965 0.68429 0.44283 0.0
C922 C 0.51231 0.67064 0.50054 0.0
C923 C 0.53296 0.68079 0.5401 0.0
C924 C 0.5471 0.66198 0.59854 0.0
C925 C 0.57245 0.65831 0.55493 0.0
C926 C 0.54862 0.66895 0.70704 0.0
C927 C 0.5314 0.63964 0.58462 0.0
C928 C 0.51165 0.64494 0.52628 0.0
C929 C 0.49559 0.62685 0.49695 0.0
C930 C 0.49945 0.60299 0.52966 0.0
C931 C 0.51891 0.59729 0.59299 0.0
C932 C 0.53505 0.61599 0.62086 0.0
H933 H 0.8341 0.49181 0.53121 0.0
H934 H 0.82706 0.56044 0.38094 0.0
H935 H 0.86731 0.57267 0.44419 0.0
H936 H 0.86794 0.51377 0.74857 0.0
H937 H 0.88635 0.48702 0.75304 0.0
H938 H 0.85591 0.4854 0.70652 0.0
H939 H 0.87239 0.46683 0.54641 0.0
H940 H 0.90286 0.46894 0.59208 0.0
H941 H 0.89502 0.48292 0.47699 0.0
H942 H 0.91089 0.57503 0.50633 0.0
H943 H 0.95195 0.56916 0.57351 0.0
H944 H 0.93059 0.49914 0.68726 0.0
C945 C 0.84072 0.5097 0.51359 0.0
C946 C 0.82715 0.52525 0.4513 0.0
C947 C 0.83673 0.54837 0.42959 0.0
C948 C 0.85974 0.55535 0.4646 0.0
C949 C 0.873 0.53914 0.52226 0.0
C950 C 0.8636 0.51691 0.54792 0.0
C951 C 0.88192 0.50223 0.60622 0.0
C952 C 0.87245 0.4968 0.70976 0.0
C953 C 0.88843 0.47885 0.55219 0.0
C954 C 0.9033 0.51953 0.60886 0.0
C955 C 0.8978 0.54067 0.55948 0.0
C956 C 0.91515 0.55871 0.54641 0.0
C957 C 0.93854 0.55514 0.58464 0.0
C958 C 0.94463 0.53379 0.6367 0.0
C959 C 0.92653 0.51585 0.64943 0.0
loop_
_geom_bond_atom_site_label_1
_geom_bond_atom_site_label_2
_geom_bond_distance
_geom_bond_site_symmetry_2
_ccdc_geom_bond_type
H0 C1 0.949 . S
C1 H0 0.949 . S
C1 C2 1.395 . S
C1 C3 1.391 . S
C2 C1 1.395 . S
C2 C5 1.390 . S
C3 C1 1.391 . S
C3 C7 1.387 . S
C3 C8 1.491 . S
H4 C5 0.950 . S
C5 C2 1.390 . S
C5 H4 0.950 . S
C5 C6 1.378 . S
C6 C5 1.378 . S
C6 C7 1.409 . S
C7 C3 1.387 . S
C7 C6 1.409 . S
C7 H9 0.951 . S
C8 C3 1.491 . S
C8 C10 1.382 . S
C8 C12 1.404 . S
H9 C7 0.951 . S
C10 C8 1.382 . S
C10 C11 1.390 . S
C10 H15 0.949 . S
C11 C10 1.390 . S
C11 C16 1.399 . S
C12 C8 1.404 . S
C12 H13 0.950 . S
C12 C14 1.375 . S
H13 C12 0.950 . S
C14 C12 1.375 . S
C14 C16 1.382 . S
C14 H18 0.950 . S
H15 C10 0.949 . S
C16 C11 1.399 . S
C16 C14 1.382 . S
C16 H17 0.952 . S
H17 C16 0.952 . S
H18 C14 0.950 . S
H19 C20 0.949 . S
C20 H19 0.949 . S
C20 C21 1.395 . S
C20 C22 1.391 . S
C21 C20 1.395 . S
C21 C24 1.390 1_655 S
C22 C20 1.391 . S
C22 C26 1.387 . S
C22 C27 1.491 . S
H23 C24 0.950 . S
C24 C21 1.390 1_455 S
C24 H23 0.950 . S
C24 C25 1.377 1_455 S
C25 C24 1.377 1_655 S
C25 C26 1.413 . S
C26 C22 1.387 . S
C26 C25 1.413 . S
C26 H28 0.951 . S
C27 C22 1.491 . S
C27 C29 1.382 . S
C27 C31 1.404 . S
H28 C26 0.951 . S
C29 C27 1.382 . S
C29 C30 1.390 . S
C29 H34 0.949 1_655 S
C30 C29 1.390 . S
C30 C35 1.399 . S
C31 C27 1.404 . S
C31 H32 0.950 . S
C31 C33 1.375 . S
H32 C31 0.950 . S
C33 C31 1.375 . S
C33 C35 1.382 . S
C33 H37 0.950 . S
H34 C29 0.949 1_455 S
C35 C30 1.399 . S
C35 C33 1.382 . S
C35 H36 0.952 . S
H36 C35 0.952 . S
H37 C33 0.950 . S
H38 C39 0.949 . S
C39 H38 0.949 . S
C39 C40 1.395 . S
C39 C41 1.391 . S
C40 C39 1.395 . S
C40 C43 1.390 1_565 S
C41 C39 1.391 . S
C41 C45 1.387 . S
C41 C46 1.491 . S
H42 C43 0.950 . S
C43 C40 1.390 1_545 S
C43 H42 0.950 . S
C43 C44 1.377 1_545 S
C44 C43 1.377 1_565 S
C44 C45 1.413 . S
C45 C41 1.387 . S
C45 C44 1.413 . S
C45 H47 0.951 . S
C46 C41 1.491 . S
C46 C48 1.382 . S
C46 C50 1.404 . S
H47 C45 0.951 . S
C48 C46 1.382 . S
C48 C49 1.390 . S
C48 H53 0.949 1_565 S
C49 C48 1.390 . S
C49 C54 1.399 . S
C50 C46 1.404 . S
C50 H51 0.950 . S
C50 C52 1.375 . S
H51 C50 0.950 . S
C52 C50 1.375 . S
C52 C54 1.382 . S
C52 H56 0.950 . S
H53 C48 0.949 1_545 S
C54 C49 1.399 . S
C54 C52 1.382 . S
C54 H55 0.952 . S
H55 C54 0.952 . S
H56 C52 0.950 . S
H57 C58 0.949 . S
C58 H57 0.949 . S
C58 C59 1.395 . S
C58 C60 1.391 . S
C59 C58 1.395 . S
C59 C62 1.390 . S
C60 C58 1.391 . S
C60 C64 1.387 . S
C60 C65 1.491 . S
H61 C62 0.950 . S
C62 C59 1.390 . S
C62 H61 0.950 . S
C62 C63 1.378 . S
C63 C62 1.378 . S
C63 C64 1.409 . S
C64 C60 1.387 . S
C64 C63 1.409 . S
C64 H66 0.951 . S
C65 C60 1.491 . S
C65 C67 1.382 . S
C65 C69 1.404 . S
H66 C64 0.951 . S
C67 C65 1.382 . S
C67 C68 1.390 . S
C67 H72 0.949 . S
C68 C67 1.390 . S
C68 C73 1.399 . S
C69 C65 1.404 . S
C69 H70 0.950 . S
C69 C71 1.375 . S
H70 C69 0.950 . S
C71 C69 1.375 . S
C71 C73 1.382 . S
C71 H75 0.950 . S
H72 C67 0.949 . S
C73 C68 1.399 . S
C73 C71 1.382 . S
C73 H74 0.952 . S
H74 C73 0.952 . S
H75 C71 0.950 . S
H76 C77 0.949 . S
C77 H76 0.949 . S
C77 C78 1.395 . S
C77 C79 1.391 . S
C78 C77 1.395 . S
C78 C81 1.390 . S
C79 C77 1.391 . S
C79 C83 1.387 1_554 S
C79 C84 1.491 . S
H80 C81 0.950 . S
C81 C78 1.390 . S
C81 H80 0.950 . S
C81 C82 1.378 1_554 S
C82 C81 1.378 1_556 S
C82 C83 1.409 . S
C83 C79 1.387 1_556 S
C83 C82 1.409 . S
C83 H85 0.951 . S
C84 C79 1.491 . S
C84 C86 1.382 . S
C84 C88 1.404 1_554 S
H85 C83 0.951 . S
C86 C84 1.382 . S
C86 C87 1.390 . S
C86 H91 0.949 . S
C87 C86 1.390 . S
C87 C92 1.399 . S
C88 C84 1.404 1_556 S
C88 H89 0.950 . S
C88 C90 1.375 . S
H89 C88 0.950 . S
C90 C88 1.375 . S
C90 C92 1.382 1_556 S
C90 H94 0.950 . S
H91 C86 0.949 . S
C92 C87 1.399 . S
C92 C90 1.382 1_554 S
C92 H93 0.952 . S
H93 C92 0.952 . S
H94 C90 0.950 . S
H95 C96 0.949 . S
C96 H95 0.949 . S
C96 C97 1.394 . S
C96 C98 1.391 . S
C97 C96 1.394 . S
C97 C100 1.391 1_655 S
C98 C96 1.391 . S
C98 C102 1.387 1_554 S
C98 C103 1.491 . S
H99 C100 0.950 . S
C100 C97 1.391 1_455 S
C100 H99 0.950 . S
C100 C101 1.377 1_454 S
C101 C100 1.377 1_656 S
C101 C102 1.411 . S
C102 C98 1.387 1_556 S
C102 C101 1.411 . S
C102 H104 0.951 . S
C103 C98 1.491 . S
C103 C105 1.402 . S
C103 C107 1.404 1_554 S
H104 C102 0.951 . S
C105 C103 1.402 . S
C105 C106 1.400 . S
C105 H110 0.920 1_655 S
C106 C105 1.400 . S
C106 C111 1.399 . S
C107 C103 1.404 1_556 S
C107 H108 0.950 . S
C107 C109 1.375 . S
H108 C107 0.950 . S
C109 C107 1.375 . S
C109 C111 1.382 1_556 S
C109 H113 0.950 . S
H110 C105 0.920 1_455 S
C111 C106 1.399 . S
C111 C109 1.382 1_554 S
C111 H112 0.952 . S
H112 C111 0.952 . S
H113 C109 0.950 . S
H114 C115 0.949 . S
C115 H114 0.949 . S
C115 C116 1.394 . S
C115 C117 1.391 . S
C116 C115 1.394 . S
C116 C119 1.391 1_565 S
C117 C115 1.391 . S
C117 C121 1.387 1_554 S
C117 C122 1.491 . S
H118 C119 0.950 . S
C119 C116 1.391 1_545 S
C119 H118 0.950 . S
C119 C120 1.377 1_544 S
C120 C119 1.377 1_566 S
C120 C121 1.411 . S
C121 C117 1.387 1_556 S
C121 C120 1.411 . S
C121 H123 0.951 . S
C122 C117 1.491 . S
C122 C124 1.402 . S
C122 C126 1.404 1_554 S
H123 C121 0.951 . S
C124 C122 1.402 . S
C124 C125 1.400 . S
C124 H129 0.920 1_565 S
C125 C124 1.400 . S
C125 C130 1.399 . S
C126 C122 1.404 1_556 S
C126 H127 0.950 . S
C126 C128 1.375 . S
H127 C126 0.950 . S
C128 C126 1.375 . S
C128 C130 1.382 1_556 S
C128 H132 0.950 . S
H129 C124 0.920 1_545 S
C130 C125 1.399 . S
C130 C128 1.382 1_554 S
C130 H131 0.952 . S
H131 C130 0.952 . S
H132 C128 0.950 . S
H133 C134 0.949 . S
C134 H133 0.949 . S
C134 C135 1.395 . S
C134 C136 1.391 . S
C135 C134 1.395 . S
C135 C138 1.389 1_554 S
C136 C134 1.391 . S
C136 C140 1.387 1_554 S
C136 C141 1.491 . S
H137 C138 0.950 . S
C138 C135 1.389 1_556 S
C138 H137 0.950 . S
C138 C139 1.379 . S
C139 C138 1.379 . S
C139 C140 1.409 . S
C140 C136 1.387 1_556 S
C140 C139 1.409 . S
C140 H142 0.951 . S
C141 C136 1.491 . S
C141 C143 1.382 . S
C141 C145 1.404 1_554 S
H142 C140 0.951 . S
C143 C141 1.382 . S
C143 C144 1.390 . S
C143 H148 0.949 . S
C144 C143 1.390 . S
C144 C149 1.399 . S
C145 C141 1.404 1_556 S
C145 H146 0.950 . S
C145 C147 1.375 . S
H146 C145 0.950 . S
C147 C145 1.375 . S
C147 C149 1.382 1_556 S
C147 H151 0.950 . S
H148 C143 0.949 . S
C149 C144 1.399 . S
C149 C147 1.382 1_554 S
C149 H150 0.952 . S
H150 C149 0.952 . S
H151 C147 0.950 . S
C152 Eu153 2.835 . S
C152 C154 1.500 . S
C152 O172 1.256 1_655 S
C152 O173 1.260 . S
Eu153 C152 2.835 . S
Eu153 O172 2.472 1_655 S
Eu153 O173 2.480 . S
Eu153 O174 2.430 . S
Eu153 O175 2.670 1_545 S
Eu153 O176 2.394 . S
Eu153 O181 2.355 1_655 S
Eu153 O183 2.374 1_545 S
C154 C152 1.500 . S
C154 C155 1.377 . S
C154 C159 1.406 . S
C155 C154 1.377 . S
C155 C156 1.395 . S
C155 H184 0.931 . S
C156 C155 1.395 . S
C156 C157 1.383 . S
C156 H185 0.931 . S
C157 C156 1.383 . S
C157 C158 1.394 . S
C158 C157 1.394 . S
C158 C159 1.380 . S
C158 H186 0.931 1_655 S
C159 C154 1.406 . S
C159 C158 1.380 . S
C159 H187 0.900 1_655 S
C160 O174 1.259 . S
C160 O175 1.270 1_545 S
C161 O176 1.251 1_455 S
C161 O177 1.251 . S
C162 Eu163 2.835 . S
C162 C164 1.500 . S
C162 O178 1.256 . S
C162 O179 1.260 . S
Eu163 C162 2.835 . S
Eu163 O175 2.355 1_455 S
Eu163 O177 2.374 1_565 S
Eu163 O178 2.472 . S
Eu163 O179 2.480 . S
Eu163 O180 2.430 . S
Eu163 O181 2.670 1_565 S
Eu163 O182 2.394 . S
C164 C162 1.500 . S
C164 C165 1.379 . S
C164 C169 1.416 1_556 S
C165 C164 1.379 . S
C165 C166 1.389 1_556 S
C165 H188 0.935 . S
C166 C165 1.389 1_554 S
C166 C167 1.383 . S
C166 H189 0.931 . S
C167 C166 1.383 . S
C167 C168 1.394 . S
C168 C167 1.394 . S
C168 C169 1.381 . S
C168 H190 0.931 1_455 S
C169 C164 1.416 1_554 S
C169 C168 1.381 . S
C169 H191 0.890 1_455 S
C170 O180 1.279 . S
C170 O181 1.256 1_565 S
C171 O182 1.251 1_655 S
C171 O183 1.251 . S
O172 C152 1.256 1_455 S
O172 Eu153 2.472 1_455 S
O173 C152 1.260 . S
O173 Eu153 2.480 . S
O174 Eu153 2.430 . S
O174 C160 1.259 . S
O175 Eu153 2.670 1_565 S
O175 C160 1.270 1_565 S
O175 Eu163 2.355 1_655 S
O176 Eu153 2.394 . S
O176 C161 1.251 1_655 S
O177 C161 1.251 . S
O177 Eu163 2.374 1_545 S
O178 C162 1.256 . S
O178 Eu163 2.472 . S
O179 C162 1.260 . S
O179 Eu163 2.480 . S
O180 Eu163 2.430 . S
O180 C170 1.279 . S
O181 Eu153 2.355 1_455 S
O181 Eu163 2.670 1_545 S
O181 C170 1.256 1_545 S
O182 Eu163 2.394 . S
O182 C171 1.251 1_455 S
O183 Eu153 2.374 1_565 S
O183 C171 1.251 . S
H184 C155 0.931 . S
H185 C156 0.931 . S
H186 C158 0.931 1_455 S
H187 C159 0.900 1_455 S
H188 C165 0.935 . S
H189 C166 0.931 . S
H190 C168 0.931 1_655 S
H191 C169 0.890 1_655 S
C192 Eu193 2.835 . S
C192 C194 1.500 . S
C192 O212 1.247 1_565 S
C192 O213 1.260 . S
Eu193 C192 2.835 . S
Eu193 O212 2.468 1_565 S
Eu193 O213 2.480 . S
Eu193 O214 2.430 . S
Eu193 O215 2.670 . S
Eu193 O216 2.394 . S
Eu193 O221 2.355 1_565 S
Eu193 O223 2.374 . S
C194 C192 1.500 . S
C194 C195 1.377 . S
C194 C199 1.390 . S
C195 C194 1.377 . S
C195 C196 1.395 . S
C195 H224 0.931 . S
C196 C195 1.395 . S
C196 C197 1.383 . S
C196 H225 0.931 . S
C197 C196 1.383 . S
C197 C198 1.394 . S
C198 C197 1.394 . S
C198 C199 1.379 . S
C198 H226 0.931 1_565 S
C199 C194 1.390 . S
C199 C198 1.379 . S
C199 H227 0.917 1_565 S
C200 O214 1.259 . S
C200 O215 1.270 . S
C201 O216 1.251 1_545 S
C201 O217 1.251 . S
C202 Eu203 2.835 . S
C202 C204 1.500 . S
C202 O218 1.257 1_545 S
C202 O219 1.260 . S
Eu203 C202 2.835 . S
Eu203 O215 2.355 1_545 S
Eu203 O217 2.374 . S
Eu203 O218 2.473 1_545 S
Eu203 O219 2.480 . S
Eu203 O220 2.430 . S
Eu203 O221 2.670 . S
Eu203 O222 2.394 . S
C204 C202 1.500 . S
C204 C205 1.378 . S
C204 C209 1.400 1_556 S
C205 C204 1.378 . S
C205 C206 1.391 1_556 S
C205 H228 0.934 . S
C206 C205 1.391 1_554 S
C206 C207 1.383 . S
C206 H229 0.931 . S
C207 C206 1.383 . S
C207 C208 1.394 . S
C208 C207 1.394 . S
C208 C209 1.380 . S
C208 H230 0.931 1_545 S
C209 C204 1.400 1_554 S
C209 C208 1.380 . S
C209 H231 0.907 1_545 S
C210 O220 1.259 . S
C210 O221 1.270 . S
C211 O222 1.251 1_565 S
C211 O223 1.251 . S
O212 C192 1.247 1_545 S
O212 Eu193 2.468 1_545 S
O213 C192 1.260 . S
O213 Eu193 2.480 . S
O214 Eu193 2.430 . S
O214 C200 1.259 . S
O215 Eu193 2.670 . S
O215 C200 1.270 . S
O215 Eu203 2.355 1_565 S
O216 Eu193 2.394 . S
O216 C201 1.251 1_565 S
O217 C201 1.251 . S
O217 Eu203 2.374 . S
O218 C202 1.257 1_565 S
O218 Eu203 2.473 1_565 S
O219 C202 1.260 . S
O219 Eu203 2.480 . S
O220 Eu203 2.430 . S
O220 C210 1.259 . S
O221 Eu193 2.355 1_545 S
O221 Eu203 2.670 . S
O221 C210 1.270 . S
O222 Eu203 2.394 . S
O222 C211 1.251 1_545 S
O223 Eu193 2.374 . S
O223 C211 1.251 . S
H224 C195 0.931 . S
H225 C196 0.931 . S
H226 C198 0.931 1_545 S
H227 C199 0.917 1_545 S
H228 C205 0.934 . S
H229 C206 0.931 . S
H230 C208 0.931 1_565 S
H231 C209 0.907 1_565 S
C232 Eu233 2.835 . S
C232 C234 1.500 . S
C232 O252 1.257 . S
C232 O253 1.260 . S
Eu233 C232 2.835 . S
Eu233 O252 2.473 . S
Eu233 O253 2.480 . S
Eu233 O254 2.430 . S
Eu233 O255 2.670 . S
Eu233 O256 2.394 . S
Eu233 O261 2.355 . S
Eu233 O263 2.374 . S
C234 C232 1.500 . S
C234 C235 1.377 . S
C234 C239 1.377 . S
C235 C234 1.377 . S
C235 C236 1.395 . S
C235 H264 0.931 . S
C236 C235 1.395 . S
C236 C237 1.383 . S
C236 H265 0.931 . S
C237 C236 1.383 . S
C237 C238 1.394 . S
C238 C237 1.394 . S
C238 C239 1.378 . S
C238 H266 0.931 . S
C239 C234 1.377 . S
C239 C238 1.378 . S
C239 H267 0.931 . S
C240 O254 1.259 . S
C240 O255 1.270 . S
C241 O256 1.251 . S
C241 O257 1.251 . S
C242 Eu243 2.835 . S
C242 C244 1.500 . S
C242 O258 1.257 . S
C242 O259 1.260 . S
Eu243 C242 2.835 . S
Eu243 O255 2.355 . S
Eu243 O257 2.374 . S
Eu243 O258 2.473 . S
Eu243 O259 2.480 . S
Eu243 O260 2.430 . S
Eu243 O261 2.670 . S
Eu243 O262 2.394 . S
C244 C242 1.500 . S
C244 C245 1.375 1_556 S
C244 C249 1.377 1_556 S
C245 C244 1.375 1_554 S
C245 C246 1.400 . S
C245 H268 0.927 1_554 S
C246 C245 1.400 . S
C246 C247 1.383 . S
C246 H269 0.931 . S
C247 C246 1.383 . S
C247 C248 1.394 . S
C248 C247 1.394 . S
C248 C249 1.378 . S
C248 H270 0.931 . S
C249 C244 1.377 1_554 S
C249 C248 1.378 . S
C249 H271 0.931 . S
C250 O260 1.259 . S
C250 O261 1.270 . S
C251 O262 1.251 . S
C251 O263 1.251 . S
O252 C232 1.257 . S
O252 Eu233 2.473 . S
O253 C232 1.260 . S
O253 Eu233 2.480 . S
O254 Eu233 2.430 . S
O254 C240 1.259 . S
O255 Eu233 2.670 . S
O255 C240 1.270 . S
O255 Eu243 2.355 . S
O256 Eu233 2.394 . S
O256 C241 1.251 . S
O257 C241 1.251 . S
O257 Eu243 2.374 . S
O258 C242 1.257 . S
O258 Eu243 2.473 . S
O259 C242 1.260 . S
O259 Eu243 2.480 . S
O260 Eu243 2.430 . S
O260 C250 1.259 . S
O261 Eu233 2.355 . S
O261 Eu243 2.670 . S
O261 C250 1.270 . S
O262 Eu243 2.394 . S
O262 C251 1.251 . S
O263 Eu233 2.374 . S
O263 C251 1.251 . S
H264 C235 0.931 . S
H265 C236 0.931 . S
H266 C238 0.931 . S
H267 C239 0.931 . S
H268 C245 0.927 1_556 S
H269 C246 0.931 . S
H270 C248 0.931 . S
H271 C249 0.931 . S
C272 Eu273 2.835 . S
C272 C274 1.500 . S
C272 O292 1.257 . S
C272 O293 1.260 . S
Eu273 C272 2.835 . S
Eu273 O292 2.473 . S
Eu273 O293 2.480 . S
Eu273 O294 2.430 . S
Eu273 O295 2.670 1_455 S
Eu273 O296 2.394 . S
Eu273 O301 2.355 . S
Eu273 O303 2.374 1_455 S
C274 C272 1.500 . S
C274 C275 1.377 . S
C274 C279 1.377 . S
C275 C274 1.377 . S
C275 C276 1.395 . S
C275 H304 0.931 . S
C276 C275 1.395 . S
C276 C277 1.383 . S
C276 H305 0.931 . S
C277 C276 1.383 . S
C277 C278 1.394 . S
C278 C277 1.394 . S
C278 C279 1.378 . S
C278 H306 0.931 . S
C279 C274 1.377 . S
C279 C278 1.378 . S
C279 H307 0.931 . S
C280 O294 1.273 . S
C280 O295 1.259 1_455 S
C281 O296 1.251 . S
C281 O297 1.251 . S
C282 Eu283 2.835 . S
C282 C284 1.500 . S
C282 O298 1.257 . S
C282 O299 1.260 . S
Eu283 C282 2.835 . S
Eu283 O295 2.355 . S
Eu283 O297 2.374 1_655 S
Eu283 O298 2.473 . S
Eu283 O299 2.480 . S
Eu283 O300 2.430 . S
Eu283 O301 2.670 1_655 S
Eu283 O302 2.394 . S
C284 C282 1.500 . S
C284 C285 1.376 1_556 S
C284 C289 1.377 1_556 S
C285 C284 1.376 1_554 S
C285 C286 1.399 . S
C285 H308 0.928 1_554 S
C286 C285 1.399 . S
C286 C287 1.383 . S
C286 H309 0.931 . S
C287 C286 1.383 . S
C287 C288 1.394 . S
C288 C287 1.394 . S
C288 C289 1.378 . S
C288 H310 0.931 . S
C289 C284 1.377 1_554 S
C289 C288 1.378 . S
C289 H311 0.931 . S
C290 O300 1.268 . S
C290 O301 1.263 1_655 S
C291 O302 1.251 . S
C291 O303 1.251 . S
O292 C272 1.257 . S
O292 Eu273 2.473 . S
O293 C272 1.260 . S
O293 Eu273 2.480 . S
O294 Eu273 2.430 . S
O294 C280 1.273 . S
O295 Eu273 2.670 1_655 S
O295 C280 1.259 1_655 S
O295 Eu283 2.355 . S
O296 Eu273 2.394 . S
O296 C281 1.251 . S
O297 C281 1.251 . S
O297 Eu283 2.374 1_455 S
O298 C282 1.257 . S
O298 Eu283 2.473 . S
O299 C282 1.260 . S
O299 Eu283 2.480 . S
O300 Eu283 2.430 . S
O300 C290 1.268 . S
O301 Eu273 2.355 . S
O301 Eu283 2.670 1_455 S
O301 C290 1.263 1_455 S
O302 Eu283 2.394 . S
O302 C291 1.251 . S
O303 Eu273 2.374 1_655 S
O303 C291 1.251 . S
H304 C275 0.931 . S
H305 C276 0.931 . S
H306 C278 0.931 . S
H307 C279 0.931 . S
H308 C285 0.928 1_556 S
H309 C286 0.931 . S
H310 C288 0.931 . S
H311 C289 0.931 . S
H312 C324 0.930 . S
H313 C326 0.930 . S
H314 C327 0.930 . S
H315 C331 0.959 . S
H316 C331 0.959 . S
H317 C331 0.961 . S
H318 C332 0.960 . S
H319 C332 0.961 . S
H320 C332 0.959 . S
H321 C335 0.929 . S
H322 C336 0.931 . S
H323 C338 0.930 . S
C324 H312 0.930 . S
C324 C325 1.399 1_545 S
C324 C329 1.399 . S
C325 C324 1.399 1_565 S
C325 C326 1.376 . S
C326 H313 0.930 . S
C326 C325 1.376 . S
C326 C327 1.388 . S
C327 H314 0.930 . S
C327 C326 1.388 . S
C327 C328 1.390 . S
C328 C327 1.390 . S
C328 C329 1.394 1_565 S
C328 C334 1.465 . S
C329 C324 1.399 . S
C329 C328 1.394 1_545 S
C329 C330 1.516 . S
C330 C329 1.516 . S
C330 C331 1.502 . S
C330 C332 1.561 . S
C330 C333 1.526 . S
C331 H315 0.959 . S
C331 H316 0.959 . S
C331 H317 0.961 . S
C331 C330 1.502 . S
C332 H318 0.960 . S
C332 H319 0.961 . S
C332 H320 0.959 . S
C332 C330 1.561 . S
C333 C330 1.526 . S
C333 C334 1.396 1_545 S
C333 C338 1.390 . S
C334 C328 1.465 . S
C334 C333 1.396 1_565 S
C334 C335 1.399 . S
C335 H321 0.929 . S
C335 C334 1.399 . S
C335 C336 1.385 . S
C336 H322 0.931 . S
C336 C335 1.385 . S
C336 C337 1.389 . S
C337 C336 1.389 . S
C337 C338 1.387 1_565 S
C338 H323 0.930 . S
C338 C333 1.390 . S
C338 C337 1.387 1_545 S
H339 C351 0.930 . S
H340 C353 0.930 . S
H341 C354 0.930 . S
H342 C358 0.959 . S
H343 C358 0.959 . S
H344 C358 0.961 . S
H345 C359 0.960 . S
H346 C359 0.961 . S
H347 C359 0.959 . S
H348 C362 0.929 . S
H349 C363 0.931 . S
H350 C365 0.930 . S
C351 H339 0.930 . S
C351 C352 1.399 . S
C351 C356 1.399 . S
C352 C351 1.399 . S
C352 C353 1.376 . S
C353 H340 0.930 . S
C353 C352 1.376 . S
C353 C354 1.388 . S
C354 H341 0.930 . S
C354 C353 1.388 . S
C354 C355 1.390 . S
C355 C354 1.390 . S
C355 C356 1.394 . S
C355 C361 1.465 . S
C356 C351 1.399 . S
C356 C355 1.394 . S
C356 C357 1.516 . S
C357 C356 1.516 . S
C357 C358 1.502 . S
C357 C359 1.561 . S
C357 C360 1.526 . S
C358 H342 0.959 . S
C358 H343 0.959 . S
C358 H344 0.961 . S
C358 C357 1.502 . S
C359 H345 0.960 . S
C359 H346 0.961 . S
C359 H347 0.959 . S
C359 C357 1.561 . S
C360 C357 1.526 . S
C360 C361 1.396 . S
C360 C365 1.390 . S
C361 C355 1.465 . S
C361 C360 1.396 . S
C361 C362 1.399 . S
C362 H348 0.929 . S
C362 C361 1.399 . S
C362 C363 1.385 . S
C363 H349 0.931 . S
C363 C362 1.385 . S
C363 C364 1.389 . S
C364 C363 1.389 . S
C364 C365 1.387 . S
C365 H350 0.930 . S
C365 C360 1.390 . S
C365 C364 1.387 . S
H366 C378 0.930 . S
H367 C380 0.930 . S
H368 C381 0.930 . S
H369 C385 0.959 . S
H370 C385 0.959 . S
H371 C385 0.961 . S
H372 C386 0.960 . S
H373 C386 0.961 . S
H374 C386 0.959 . S
H375 C389 0.929 . S
H376 C390 0.931 . S
H377 C392 0.930 . S
C378 H366 0.930 . S
C378 C379 1.399 . S
C378 C383 1.399 . S
C379 C378 1.399 . S
C379 C380 1.376 . S
C380 H367 0.930 . S
C380 C379 1.376 . S
C380 C381 1.388 . S
C381 H368 0.930 . S
C381 C380 1.388 . S
C381 C382 1.390 . S
C382 C381 1.390 . S
C382 C383 1.394 . S
C382 C388 1.465 . S
C383 C378 1.399 . S
C383 C382 1.394 . S
C383 C384 1.516 . S
C384 C383 1.516 . S
C384 C385 1.502 . S
C384 C386 1.561 . S
C384 C387 1.526 . S
C385 H369 0.959 . S
C385 H370 0.959 . S
C385 H371 0.961 . S
C385 C384 1.502 . S
C386 H372 0.960 . S
C386 H373 0.961 . S
C386 H374 0.959 . S
C386 C384 1.561 . S
C387 C384 1.526 . S
C387 C388 1.396 . S
C387 C392 1.390 . S
C388 C382 1.465 . S
C388 C387 1.396 . S
C388 C389 1.399 . S
C389 H375 0.929 . S
C389 C388 1.399 . S
C389 C390 1.385 . S
C390 H376 0.931 . S
C390 C389 1.385 . S
C390 C391 1.389 . S
C391 C390 1.389 . S
C391 C392 1.387 . S
C392 H377 0.930 . S
C392 C387 1.390 . S
C392 C391 1.387 . S
H393 C405 0.930 . S
H394 C407 0.930 . S
H395 C408 0.930 . S
H396 C412 0.959 . S
H397 C412 0.959 . S
H398 C412 0.961 . S
H399 C413 0.960 . S
H400 C413 0.961 . S
H401 C413 0.959 . S
H402 C416 0.929 . S
H403 C417 0.931 . S
H404 C419 0.930 . S
C405 H393 0.930 . S
C405 C406 1.399 1_455 S
C405 C410 1.399 . S
C406 C405 1.399 1_655 S
C406 C407 1.376 . S
C407 H394 0.930 . S
C407 C406 1.376 . S
C407 C408 1.388 . S
C408 H395 0.930 . S
C408 C407 1.388 . S
C408 C409 1.390 . S
C409 C408 1.390 . S
C409 C410 1.394 1_655 S
C409 C415 1.465 . S
C410 C405 1.399 . S
C410 C409 1.394 1_455 S
C410 C411 1.516 . S
C411 C410 1.516 . S
C411 C412 1.502 . S
C411 C413 1.561 1_455 S
C411 C414 1.526 . S
C412 H396 0.959 . S
C412 H397 0.959 . S
C412 H398 0.961 . S
C412 C411 1.502 . S
C413 H399 0.960 . S
C413 H400 0.961 . S
C413 H401 0.959 . S
C413 C411 1.561 1_655 S
C414 C411 1.526 . S
C414 C415 1.396 1_455 S
C414 C419 1.390 . S
C415 C409 1.465 . S
C415 C414 1.396 1_655 S
C415 C416 1.399 . S
C416 H402 0.929 . S
C416 C415 1.399 . S
C416 C417 1.385 . S
C417 H403 0.931 . S
C417 C416 1.385 . S
C417 C418 1.394 . S
C418 C417 1.394 . S
C418 C419 1.384 1_655 S
C419 H404 0.930 . S
C419 C414 1.390 . S
C419 C418 1.384 1_455 S
H420 C432 0.930 . S
H421 C434 0.930 . S
H422 C435 0.930 . S
H423 C439 0.959 1_556 S
H424 C439 0.959 1_556 S
H425 C439 0.961 . S
H426 C440 0.960 . S
H427 C440 0.961 . S
H428 C440 0.959 . S
H429 C443 0.929 . S
H430 C444 0.931 . S
H431 C446 0.930 . S
C432 H420 0.930 . S
C432 C433 1.399 1_545 S
C432 C437 1.399 . S
C433 C432 1.399 1_565 S
C433 C434 1.376 . S
C434 H421 0.930 . S
C434 C433 1.376 . S
C434 C435 1.388 . S
C435 H422 0.930 . S
C435 C434 1.388 . S
C435 C436 1.390 . S
C436 C435 1.390 . S
C436 C437 1.394 1_565 S
C436 C442 1.465 . S
C437 C432 1.399 . S
C437 C436 1.394 1_545 S
C437 C438 1.516 . S
C438 C437 1.516 . S
C438 C439 1.502 . S
C438 C440 1.561 . S
C438 C441 1.526 . S
C439 H423 0.959 1_554 S
C439 H424 0.959 1_554 S
C439 H425 0.961 . S
C439 C438 1.502 . S
C440 H426 0.960 . S
C440 H427 0.961 . S
C440 H428 0.959 . S
C440 C438 1.561 . S
C441 C438 1.526 . S
C441 C442 1.396 1_545 S
C441 C446 1.390 1_554 S
C442 C436 1.465 . S
C442 C441 1.396 1_565 S
C442 C443 1.399 . S
C443 H429 0.929 . S
C443 C442 1.399 . S
C443 C444 1.385 1_554 S
C444 H430 0.931 . S
C444 C443 1.385 1_556 S
C444 C445 1.389 . S
C445 C444 1.389 . S
C445 C446 1.387 1_565 S
C446 H431 0.930 . S
C446 C441 1.390 1_556 S
C446 C445 1.387 1_545 S
H447 C459 0.930 . S
H448 C461 0.930 . S
H449 C462 0.930 . S
H450 C466 0.959 . S
H451 C466 0.959 . S
H452 C466 0.961 . S
H453 C467 0.960 . S
H454 C467 0.961 . S
H455 C467 0.959 1_554 S
H456 C470 0.929 . S
H457 C471 0.931 . S
H458 C473 0.930 . S
C459 H447 0.930 . S
C459 C460 1.399 . S
C459 C464 1.399 . S
C460 C459 1.399 . S
C460 C461 1.376 . S
C461 H448 0.930 . S
C461 C460 1.376 . S
C461 C462 1.388 . S
C462 H449 0.930 . S
C462 C461 1.388 . S
C462 C463 1.390 . S
C463 C462 1.390 . S
C463 C464 1.394 . S
C463 C469 1.465 . S
C464 C459 1.399 . S
C464 C463 1.394 . S
C464 C465 1.516 . S
C465 C464 1.516 . S
C465 C466 1.502 1_554 S
C465 C467 1.561 1_554 S
C465 C468 1.526 1_554 S
C466 H450 0.959 . S
C466 H451 0.959 . S
C466 H452 0.961 . S
C466 C465 1.502 1_556 S
C467 H453 0.960 . S
C467 H454 0.961 . S
C467 H455 0.959 1_556 S
C467 C465 1.561 1_556 S
C468 C465 1.526 1_556 S
C468 C469 1.396 1_556 S
C468 C473 1.390 . S
C469 C463 1.465 . S
C469 C468 1.396 1_554 S
C469 C470 1.399 . S
C470 H456 0.929 . S
C470 C469 1.399 . S
C470 C471 1.385 . S
C471 H457 0.931 . S
C471 C470 1.385 . S
C471 C472 1.389 1_554 S
C472 C471 1.389 1_556 S
C472 C473 1.387 . S
C473 H458 0.930 . S
C473 C468 1.390 . S
C473 C472 1.387 . S
H474 C486 0.930 . S
H475 C488 0.930 . S
H476 C489 0.930 . S
H477 C493 0.959 . S
H478 C493 0.959 . S
H479 C493 0.961 . S
H480 C494 0.960 . S
H481 C494 0.961 . S
H482 C494 0.959 . S
H483 C497 0.929 . S
H484 C498 0.931 . S
H485 C500 0.930 . S
C486 H474 0.930 . S
C486 C487 1.399 . S
C486 C491 1.399 . S
C487 C486 1.399 . S
C487 C488 1.376 . S
C488 H475 0.930 . S
C488 C487 1.376 . S
C488 C489 1.388 . S
C489 H476 0.930 . S
C489 C488 1.388 . S
C489 C490 1.390 . S
C490 C489 1.390 . S
C490 C491 1.394 . S
C490 C496 1.465 . S
C491 C486 1.399 . S
C491 C490 1.394 . S
C491 C492 1.516 . S
C492 C491 1.516 . S
C492 C493 1.502 . S
C492 C494 1.561 . S
C492 C495 1.526 . S
C493 H477 0.959 . S
C493 H478 0.959 . S
C493 H479 0.961 . S
C493 C492 1.502 . S
C494 H480 0.960 . S
C494 H481 0.961 . S
C494 H482 0.959 . S
C494 C492 1.561 . S
C495 C492 1.526 . S
C495 C496 1.396 . S
C495 C500 1.390 1_554 S
C496 C490 1.465 . S
C496 C495 1.396 . S
C496 C497 1.399 1_554 S
C497 H483 0.929 . S
C497 C496 1.399 1_556 S
C497 C498 1.385 . S
C498 H484 0.931 . S
C498 C497 1.385 . S
C498 C499 1.389 . S
C499 C498 1.389 . S
C499 C500 1.387 . S
C500 H485 0.930 . S
C500 C495 1.390 1_556 S
C500 C499 1.387 . S
H501 C513 0.929 . S
H502 C515 0.930 . S
H503 C516 0.930 . S
H504 C520 0.959 . S
H505 C520 0.959 . S
H506 C520 0.961 . S
H507 C521 0.960 . S
H508 C521 0.961 . S
H509 C521 0.959 1_554 S
H510 C524 0.931 . S
H511 C525 0.931 . S
H512 C527 0.930 . S
C513 H501 0.929 . S
C513 C514 1.399 . S
C513 C518 1.402 . S
C514 C513 1.399 . S
C514 C515 1.378 . S
C515 H502 0.930 . S
C515 C514 1.378 . S
C515 C516 1.388 . S
C516 H503 0.930 . S
C516 C515 1.388 . S
C516 C517 1.390 . S
C517 C516 1.390 . S
C517 C518 1.394 . S
C517 C523 1.465 . S
C518 C513 1.402 . S
C518 C517 1.394 . S
C518 C519 1.516 . S
C519 C518 1.516 . S
C519 C520 1.502 1_454 S
C519 C521 1.561 1_554 S
C519 C522 1.526 1_554 S
C520 H504 0.959 . S
C520 H505 0.959 . S
C520 H506 0.961 . S
C520 C519 1.502 1_656 S
C521 H507 0.960 . S
C521 H508 0.961 . S
C521 H509 0.959 1_556 S
C521 C519 1.561 1_556 S
C522 C519 1.526 1_556 S
C522 C523 1.396 1_556 S
C522 C527 1.391 . S
C523 C517 1.465 . S
C523 C522 1.396 1_554 S
C523 C524 1.400 . S
C524 H510 0.931 . S
C524 C523 1.400 . S
C524 C525 1.383 1_455 S
C525 H511 0.931 . S
C525 C524 1.383 1_655 S
C525 C526 1.389 1_554 S
C526 C525 1.389 1_556 S
C526 C527 1.385 1_655 S
C527 H512 0.930 . S
C527 C522 1.391 . S
C527 C526 1.385 1_455 S
H528 C540 0.930 . S
H529 C542 0.930 . S
H530 C543 0.930 . S
H531 C547 0.959 . S
H532 C547 0.959 . S
H533 C547 0.961 . S
H534 C548 0.960 . S
H535 C548 0.961 . S
H536 C548 0.959 1_455 S
H537 C551 0.929 1_455 S
H538 C552 0.931 . S
H539 C554 0.930 . S
C540 H528 0.930 . S
C540 C541 1.399 1_655 S
C540 C545 1.399 . S
C541 C540 1.399 1_455 S
C541 C542 1.376 . S
C542 H529 0.930 . S
C542 C541 1.376 . S
C542 C543 1.388 . S
C543 H530 0.930 . S
C543 C542 1.388 . S
C543 C544 1.390 1_455 S
C544 C543 1.390 1_655 S
C544 C545 1.394 . S
C544 C550 1.465 . S
C545 C540 1.399 . S
C545 C544 1.394 . S
C545 C546 1.516 . S
C546 C545 1.516 . S
C546 C547 1.502 . S
C546 C548 1.561 . S
C546 C549 1.526 . S
C547 H531 0.959 . S
C547 H532 0.959 . S
C547 H533 0.961 . S
C547 C546 1.502 . S
C548 H534 0.960 . S
C548 H535 0.961 . S
C548 H536 0.959 1_655 S
C548 C546 1.561 . S
C549 C546 1.526 . S
C549 C550 1.396 . S
C549 C554 1.390 . S
C550 C544 1.465 . S
C550 C549 1.396 . S
C550 C551 1.399 . S
C551 H537 0.929 1_655 S
C551 C550 1.399 . S
C551 C552 1.385 . S
C552 H538 0.931 . S
C552 C551 1.385 . S
C552 C553 1.389 . S
C553 C552 1.389 . S
C553 C554 1.387 . S
C554 H539 0.930 . S
C554 C549 1.390 . S
C554 C553 1.387 . S
H555 C567 0.930 . S
H556 C569 0.930 . S
H557 C570 0.930 . S
H558 C574 0.959 . S
H559 C574 0.959 . S
H560 C574 0.961 . S
H561 C575 0.960 . S
H562 C575 0.961 . S
H563 C575 0.959 . S
H564 C578 0.929 . S
H565 C579 0.931 . S
H566 C581 0.930 . S
C567 H555 0.930 . S
C567 C568 1.399 1_545 S
C567 C572 1.399 1_545 S
C568 C567 1.399 1_565 S
C568 C569 1.376 . S
C569 H556 0.930 . S
C569 C568 1.376 . S
C569 C570 1.388 . S
C570 H557 0.930 . S
C570 C569 1.388 . S
C570 C571 1.390 . S
C571 C570 1.390 . S
C571 C572 1.394 . S
C571 C577 1.465 . S
C572 C567 1.399 1_565 S
C572 C571 1.394 . S
C572 C573 1.516 1_565 S
C573 C572 1.516 1_545 S
C573 C574 1.502 . S
C573 C575 1.561 1_545 S
C573 C576 1.526 1_545 S
C574 H558 0.959 . S
C574 H559 0.959 . S
C574 H560 0.961 . S
C574 C573 1.502 . S
C575 H561 0.960 . S
C575 H562 0.961 . S
C575 H563 0.959 . S
C575 C573 1.561 1_565 S
C576 C573 1.526 1_565 S
C576 C577 1.396 . S
C576 C581 1.390 . S
C577 C571 1.465 . S
C577 C576 1.396 . S
C577 C578 1.399 . S
C578 H564 0.929 . S
C578 C577 1.399 . S
C578 C579 1.385 . S
C579 H565 0.931 . S
C579 C578 1.385 . S
C579 C580 1.389 . S
C580 C579 1.389 . S
C580 C581 1.387 . S
C581 H566 0.930 . S
C581 C576 1.390 . S
C581 C580 1.387 . S
H582 C594 0.930 . S
H583 C596 0.930 1_556 S
H584 C597 0.930 . S
H585 C601 0.959 . S
H586 C601 0.959 . S
H587 C601 0.961 . S
H588 C602 0.960 . S
H589 C602 0.961 . S
H590 C602 0.959 . S
H591 C605 0.929 . S
H592 C606 0.931 . S
H593 C608 0.930 . S
C594 H582 0.930 . S
C594 C595 1.399 . S
C594 C599 1.399 . S
C595 C594 1.399 . S
C595 C596 1.376 . S
C596 H583 0.930 1_554 S
C596 C595 1.376 . S
C596 C597 1.388 . S
C597 H584 0.930 . S
C597 C596 1.388 . S
C597 C598 1.390 . S
C598 C597 1.390 . S
C598 C599 1.394 . S
C598 C604 1.465 . S
C599 C594 1.399 . S
C599 C598 1.394 . S
C599 C600 1.516 . S
C600 C599 1.516 . S
C600 C601 1.502 . S
C600 C602 1.561 . S
C600 C603 1.526 . S
C601 H585 0.959 . S
C601 H586 0.959 . S
C601 H587 0.961 . S
C601 C600 1.502 . S
C602 H588 0.960 . S
C602 H589 0.961 . S
C602 H590 0.959 . S
C602 C600 1.561 . S
C603 C600 1.526 . S
C603 C604 1.396 . S
C603 C608 1.390 . S
C604 C598 1.465 . S
C604 C603 1.396 . S
C604 C605 1.399 . S
C605 H591 0.929 . S
C605 C604 1.399 . S
C605 C606 1.385 . S
C606 H592 0.931 . S
C606 C605 1.385 . S
C606 C607 1.389 . S
C607 C606 1.389 . S
C607 C608 1.387 . S
C608 H593 0.930 . S
C608 C603 1.390 . S
C608 C607 1.387 . S
H609 C621 0.930 . S
H610 C623 0.930 . S
H611 C624 0.930 . S
H612 C628 0.959 . S
H613 C628 0.959 . S
H614 C628 0.961 . S
H615 C629 0.960 . S
H616 C629 0.961 . S
H617 C629 0.959 . S
H618 C632 0.929 . S
H619 C633 0.931 . S
H620 C635 0.930 . S
C621 H609 0.930 . S
C621 C622 1.399 . S
C621 C626 1.399 . S
C622 C621 1.399 . S
C622 C623 1.376 . S
C623 H610 0.930 . S
C623 C622 1.376 . S
C623 C624 1.388 . S
C624 H611 0.930 . S
C624 C623 1.388 . S
C624 C625 1.390 . S
C625 C624 1.390 . S
C625 C626 1.394 . S
C625 C631 1.465 . S
C626 C621 1.399 . S
C626 C625 1.394 . S
C626 C627 1.516 . S
C627 C626 1.516 . S
C627 C628 1.502 . S
C627 C629 1.561 . S
C627 C630 1.526 . S
C628 H612 0.959 . S
C628 H613 0.959 . S
C628 H614 0.961 . S
C628 C627 1.502 . S
C629 H615 0.960 . S
C629 H616 0.961 . S
C629 H617 0.959 . S
C629 C627 1.561 . S
C630 C627 1.526 . S
C630 C631 1.396 . S
C630 C635 1.390 . S
C631 C625 1.465 . S
C631 C630 1.396 . S
C631 C632 1.399 . S
C632 H618 0.929 . S
C632 C631 1.399 . S
C632 C633 1.385 . S
C633 H619 0.931 . S
C633 C632 1.385 . S
C633 C634 1.389 . S
C634 C633 1.389 . S
C634 C635 1.387 . S
C635 H620 0.930 . S
C635 C630 1.390 . S
C635 C634 1.387 . S
H636 C648 0.930 . S
H637 C650 0.930 . S
H638 C651 0.930 . S
H639 C655 0.959 . S
H640 C655 0.959 . S
H641 C655 0.961 . S
H642 C656 0.960 . S
H643 C656 0.961 1_556 S
H644 C656 0.959 . S
H645 C659 0.929 . S
H646 C660 0.929 . S
H647 C662 0.930 . S
C648 H636 0.930 . S
C648 C649 1.399 1_455 S
C648 C653 1.399 . S
C649 C648 1.399 1_655 S
C649 C650 1.376 . S
C650 H637 0.930 . S
C650 C649 1.376 . S
C650 C651 1.388 . S
C651 H638 0.930 . S
C651 C650 1.388 . S
C651 C652 1.410 . S
C652 C651 1.410 . S
C652 C653 1.376 1_655 S
C652 C658 1.459 1_655 S
C653 C648 1.399 . S
C653 C652 1.376 1_455 S
C653 C654 1.516 . S
C654 C653 1.516 . S
C654 C655 1.502 . S
C654 C656 1.561 . S
C654 C657 1.526 . S
C655 H639 0.959 . S
C655 H640 0.959 . S
C655 H641 0.961 . S
C655 C654 1.502 . S
C656 H642 0.960 . S
C656 H643 0.961 1_554 S
C656 H644 0.959 . S
C656 C654 1.561 . S
C657 C654 1.526 . S
C657 C658 1.396 . S
C657 C662 1.390 . S
C658 C652 1.459 1_455 S
C658 C657 1.396 . S
C658 C659 1.399 1_455 S
C659 H645 0.929 . S
C659 C658 1.399 1_655 S
C659 C660 1.385 1_655 S
C660 H646 0.929 . S
C660 C659 1.385 1_455 S
C660 C661 1.389 . S
C661 C660 1.389 . S
C661 C662 1.387 . S
C662 H647 0.930 . S
C662 C657 1.390 . S
C662 C661 1.387 . S
H663 C675 0.930 . S
H664 C677 0.930 . S
H665 C678 0.930 . S
H666 C682 0.959 . S
H667 C682 0.959 . S
H668 C682 0.961 . S
H669 C683 0.960 . S
H670 C683 0.961 . S
H671 C683 0.959 . S
H672 C686 0.929 1_565 S
H673 C687 0.931 1_556 S
H674 C689 0.930 . S
C675 H663 0.930 . S
C675 C676 1.399 1_545 S
C675 C680 1.399 . S
C676 C675 1.399 1_565 S
C676 C677 1.376 . S
C677 H664 0.930 . S
C677 C676 1.376 . S
C677 C678 1.388 . S
C678 H665 0.930 . S
C678 C677 1.388 . S
C678 C679 1.390 1_565 S
C679 C678 1.390 1_545 S
C679 C680 1.394 . S
C679 C685 1.465 . S
C680 C675 1.399 . S
C680 C679 1.394 . S
C680 C681 1.516 . S
C681 C680 1.516 . S
C681 C682 1.502 . S
C681 C683 1.561 . S
C681 C684 1.526 . S
C682 H666 0.959 . S
C682 H667 0.959 . S
C682 H668 0.961 . S
C682 C681 1.502 . S
C683 H669 0.960 . S
C683 H670 0.961 . S
C683 H671 0.959 . S
C683 C681 1.561 . S
C684 C681 1.526 . S
C684 C685 1.396 . S
C684 C689 1.390 . S
C685 C679 1.465 . S
C685 C684 1.396 . S
C685 C686 1.399 . S
C686 H672 0.929 1_545 S
C686 C685 1.399 . S
C686 C687 1.385 . S
C687 H673 0.931 1_554 S
C687 C686 1.385 . S
C687 C688 1.389 . S
C688 C687 1.389 . S
C688 C689 1.387 . S
C689 H674 0.930 . S
C689 C684 1.390 . S
C689 C688 1.387 . S
H690 C702 0.930 . S
H691 C704 0.930 . S
H692 C705 0.930 . S
H693 C709 0.959 . S
H694 C709 0.959 1_556 S
H695 C709 0.961 . S
H696 C710 0.960 . S
H697 C710 0.961 . S
H698 C710 0.959 . S
H699 C713 0.929 . S
H700 C714 0.931 . S
H701 C716 0.930 . S
C702 H690 0.930 . S
C702 C703 1.399 . S
C702 C707 1.399 . S
C703 C702 1.399 . S
C703 C704 1.376 . S
C704 H691 0.930 . S
C704 C703 1.376 . S
C704 C705 1.388 . S
C705 H692 0.930 . S
C705 C704 1.388 . S
C705 C706 1.390 . S
C706 C705 1.390 . S
C706 C707 1.394 . S
C706 C712 1.465 . S
C707 C702 1.399 . S
C707 C706 1.394 . S
C707 C708 1.516 . S
C708 C707 1.516 . S
C708 C709 1.502 . S
C708 C710 1.561 . S
C708 C711 1.526 . S
C709 H693 0.959 . S
C709 H694 0.959 1_554 S
C709 H695 0.961 . S
C709 C708 1.502 . S
C710 H696 0.960 . S
C710 H697 0.961 . S
C710 H698 0.959 . S
C710 C708 1.561 . S
C711 C708 1.526 . S
C711 C712 1.396 . S
C711 C716 1.390 . S
C712 C706 1.465 . S
C712 C711 1.396 . S
C712 C713 1.399 . S
C713 H699 0.929 . S
C713 C712 1.399 . S
C713 C714 1.385 . S
C714 H700 0.931 . S
C714 C713 1.385 . S
C714 C715 1.389 . S
C715 C714 1.389 . S
C715 C716 1.387 . S
C716 H701 0.930 . S
C716 C711 1.390 . S
C716 C715 1.387 . S
H717 C729 0.930 . S
H718 C731 0.930 . S
H719 C732 0.930 . S
H720 C736 0.959 . S
H721 C736 0.959 . S
H722 C736 0.961 . S
H723 C737 0.960 . S
H724 C737 0.961 . S
H725 C737 0.959 . S
H726 C740 0.929 . S
H727 C741 0.931 . S
H728 C743 0.930 . S
C729 H717 0.930 . S
C729 C730 1.399 . S
C729 C734 1.399 . S
C730 C729 1.399 . S
C730 C731 1.376 . S
C731 H718 0.930 . S
C731 C730 1.376 . S
C731 C732 1.388 . S
C732 H719 0.930 . S
C732 C731 1.388 . S
C732 C733 1.390 . S
C733 C732 1.390 . S
C733 C734 1.394 . S
C733 C739 1.465 . S
C734 C729 1.399 . S
C734 C733 1.394 . S
C734 C735 1.516 . S
C735 C734 1.516 . S
C735 C736 1.502 . S
C735 C737 1.561 . S
C735 C738 1.526 . S
C736 H720 0.959 . S
C736 H721 0.959 . S
C736 H722 0.961 . S
C736 C735 1.502 . S
C737 H723 0.960 . S
C737 H724 0.961 . S
C737 H725 0.959 . S
C737 C735 1.561 . S
C738 C735 1.526 . S
C738 C739 1.396 . S
C738 C743 1.390 . S
C739 C733 1.465 . S
C739 C738 1.396 . S
C739 C740 1.399 . S
C740 H726 0.929 . S
C740 C739 1.399 . S
C740 C741 1.385 . S
C741 H727 0.931 . S
C741 C740 1.385 . S
C741 C742 1.389 . S
C742 C741 1.389 . S
C742 C743 1.387 . S
C743 H728 0.930 . S
C743 C738 1.390 . S
C743 C742 1.387 . S
H744 C756 0.930 . S
H745 C758 0.930 1_554 S
H746 C759 0.930 1_554 S
H747 C763 0.959 . S
H748 C763 0.959 . S
H749 C763 0.961 . S
H750 C764 0.960 . S
H751 C764 0.961 . S
H752 C764 0.959 . S
H753 C767 0.929 1_554 S
H754 C768 0.931 . S
H755 C770 0.930 1_655 S
C756 H744 0.930 . S
C756 C757 1.399 1_655 S
C756 C761 1.399 1_655 S
C757 C756 1.399 1_455 S
C757 C758 1.376 . S
C758 H745 0.930 1_556 S
C758 C757 1.376 . S
C758 C759 1.388 . S
C759 H746 0.930 1_556 S
C759 C758 1.388 . S
C759 C760 1.390 . S
C760 C759 1.390 . S
C760 C761 1.394 . S
C760 C766 1.465 . S
C761 C756 1.399 1_455 S
C761 C760 1.394 . S
C761 C762 1.516 1_455 S
C762 C761 1.516 1_655 S
C762 C763 1.502 . S
C762 C764 1.561 1_655 S
C762 C765 1.526 1_655 S
C763 H747 0.959 . S
C763 H748 0.959 . S
C763 H749 0.961 . S
C763 C762 1.502 . S
C764 H750 0.960 . S
C764 H751 0.961 . S
C764 H752 0.959 . S
C764 C762 1.561 1_455 S
C765 C762 1.526 1_455 S
C765 C766 1.396 . S
C765 C770 1.390 . S
C766 C760 1.465 . S
C766 C765 1.396 . S
C766 C767 1.399 . S
C767 H753 0.929 1_556 S
C767 C766 1.399 . S
C767 C768 1.385 . S
C768 H754 0.931 . S
C768 C767 1.385 . S
C768 C769 1.389 . S
C769 C768 1.389 . S
C769 C770 1.387 . S
C770 H755 0.930 1_455 S
C770 C765 1.390 . S
C770 C769 1.387 . S
H771 C783 0.930 . S
H772 C785 0.930 . S
H773 C786 0.930 . S
H774 C790 0.959 1_556 S
H775 C790 0.959 . S
H776 C790 0.961 . S
H777 C791 0.960 . S
H778 C791 0.961 . S
H779 C791 0.959 1_556 S
H780 C794 0.930 . S
H781 C795 0.931 . S
H782 C797 0.930 . S
C783 H771 0.930 . S
C783 C784 1.399 . S
C783 C788 1.399 . S
C784 C783 1.399 . S
C784 C785 1.377 1_545 S
C785 H772 0.930 . S
C785 C784 1.377 1_565 S
C785 C786 1.388 . S
C786 H773 0.930 . S
C786 C785 1.388 . S
C786 C787 1.392 . S
C787 C786 1.392 . S
C787 C788 1.392 1_565 S
C787 C793 1.464 1_565 S
C788 C783 1.399 . S
C788 C787 1.392 1_545 S
C788 C789 1.516 . S
C789 C788 1.516 . S
C789 C790 1.502 1_556 S
C789 C791 1.561 1_546 S
C789 C792 1.526 . S
C790 H774 0.959 1_554 S
C790 H775 0.959 . S
C790 H776 0.961 . S
C790 C789 1.502 1_554 S
C791 H777 0.960 . S
C791 H778 0.961 . S
C791 H779 0.959 1_554 S
C791 C789 1.561 1_564 S
C792 C789 1.526 . S
C792 C793 1.396 . S
C792 C797 1.390 . S
C793 C787 1.464 1_545 S
C793 C792 1.396 . S
C793 C794 1.399 1_545 S
C794 H780 0.930 . S
C794 C793 1.399 1_565 S
C794 C795 1.385 1_565 S
C795 H781 0.931 . S
C795 C794 1.385 1_545 S
C795 C796 1.389 . S
C796 C795 1.389 . S
C796 C797 1.387 . S
C797 H782 0.930 . S
C797 C792 1.390 . S
C797 C796 1.387 . S
H798 C810 0.930 . S
H799 C812 0.930 . S
H800 C813 0.930 . S
H801 C817 0.959 . S
H802 C817 0.959 . S
H803 C817 0.961 . S
H804 C818 0.960 . S
H805 C818 0.961 . S
H806 C818 0.959 . S
H807 C821 0.929 . S
H808 C822 0.931 . S
H809 C824 0.930 . S
C810 H798 0.930 . S
C810 C811 1.399 . S
C810 C815 1.399 . S
C811 C810 1.399 . S
C811 C812 1.376 . S
C812 H799 0.930 . S
C812 C811 1.376 . S
C812 C813 1.388 . S
C813 H800 0.930 . S
C813 C812 1.388 . S
C813 C814 1.390 . S
C814 C813 1.390 . S
C814 C815 1.394 . S
C814 C820 1.465 . S
C815 C810 1.399 . S
C815 C814 1.394 . S
C815 C816 1.516 . S
C816 C815 1.516 . S
C816 C817 1.502 . S
C816 C818 1.561 . S
C816 C819 1.526 . S
C817 H801 0.959 . S
C817 H802 0.959 . S
C817 H803 0.961 . S
C817 C816 1.502 . S
C818 H804 0.960 . S
C818 H805 0.961 . S
C818 H806 0.959 . S
C818 C816 1.561 . S
C819 C816 1.526 . S
C819 C820 1.396 . S
C819 C824 1.390 . S
C820 C814 1.465 . S
C820 C819 1.396 . S
C820 C821 1.399 . S
C821 H807 0.929 . S
C821 C820 1.399 . S
C821 C822 1.385 . S
C822 H808 0.931 . S
C822 C821 1.385 . S
C822 C823 1.389 . S
C823 C822 1.389 . S
C823 C824 1.387 . S
C824 H809 0.930 . S
C824 C819 1.390 . S
C824 C823 1.387 . S
H825 C837 0.930 . S
H826 C839 0.930 1_554 S
H827 C840 0.930 1_554 S
H828 C844 0.959 . S
H829 C844 0.959 . S
H830 C844 0.961 . S
H831 C845 0.960 . S
H832 C845 0.961 . S
H833 C845 0.959 . S
H834 C848 0.929 1_554 S
H835 C849 0.931 . S
H836 C851 0.930 . S
C837 H825 0.930 . S
C837 C838 1.399 . S
C837 C842 1.399 . S
C838 C837 1.399 . S
C838 C839 1.376 . S
C839 H826 0.930 1_556 S
C839 C838 1.376 . S
C839 C840 1.388 . S
C840 H827 0.930 1_556 S
C840 C839 1.388 . S
C840 C841 1.390 . S
C841 C840 1.390 . S
C841 C842 1.394 . S
C841 C847 1.465 . S
C842 C837 1.399 . S
C842 C841 1.394 . S
C842 C843 1.516 . S
C843 C842 1.516 . S
C843 C844 1.502 . S
C843 C845 1.561 . S
C843 C846 1.526 . S
C844 H828 0.959 . S
C844 H829 0.959 . S
C844 H830 0.961 . S
C844 C843 1.502 . S
C845 H831 0.960 . S
C845 H832 0.961 . S
C845 H833 0.959 . S
C845 C843 1.561 . S
C846 C843 1.526 . S
C846 C847 1.396 . S
C846 C851 1.390 . S
C847 C841 1.465 . S
C847 C846 1.396 . S
C847 C848 1.399 . S
C848 H834 0.929 1_556 S
C848 C847 1.399 . S
C848 C849 1.385 . S
C849 H835 0.931 . S
C849 C848 1.385 . S
C849 C850 1.389 . S
C850 C849 1.389 . S
C850 C851 1.387 . S
C851 H836 0.930 . S
C851 C846 1.390 . S
C851 C850 1.387 . S
H852 C864 0.930 . S
H853 C866 0.930 . S
H854 C867 0.930 . S
H855 C871 0.959 . S
H856 C871 0.959 . S
H857 C871 0.961 . S
H858 C872 0.960 . S
H859 C872 0.961 . S
H860 C872 0.959 . S
H861 C875 0.929 . S
H862 C876 0.931 . S
H863 C878 0.945 . S
C864 H852 0.930 . S
C864 C865 1.399 1_455 S
C864 C869 1.405 . S
C865 C864 1.399 1_655 S
C865 C866 1.376 . S
C866 H853 0.930 . S
C866 C865 1.376 . S
C866 C867 1.388 . S
C867 H854 0.930 . S
C867 C866 1.388 . S
C867 C868 1.390 . S
C868 C867 1.390 . S
C868 C869 1.378 1_655 S
C868 C874 1.465 . S
C869 C864 1.405 . S
C869 C868 1.378 1_455 S
C869 C870 1.524 . S
C870 C869 1.524 . S
C870 C871 1.502 . S
C870 C872 1.561 1_455 S
C870 C873 1.526 1_455 S
C871 H855 0.959 . S
C871 H856 0.959 . S
C871 H857 0.961 . S
C871 C870 1.502 . S
C872 H858 0.960 . S
C872 H859 0.961 . S
C872 H860 0.959 . S
C872 C870 1.561 1_655 S
C873 C870 1.526 1_655 S
C873 C874 1.396 . S
C873 C878 1.387 1_655 S
C874 C868 1.465 . S
C874 C873 1.396 . S
C874 C875 1.399 . S
C875 H861 0.929 . S
C875 C874 1.399 . S
C875 C876 1.385 . S
C876 H862 0.931 . S
C876 C875 1.385 . S
C876 C877 1.389 . S
C877 C876 1.389 . S
C877 C878 1.374 1_655 S
C878 H863 0.945 . S
C878 C873 1.387 1_455 S
C878 C877 1.374 1_455 S
H879 C891 0.930 . S
H880 C893 0.930 . S
H881 C894 0.930 . S
H882 C898 0.959 . S
H883 C898 0.959 . S
H884 C898 0.961 . S
H885 C899 0.960 . S
H886 C899 0.961 . S
H887 C899 0.959 . S
H888 C902 0.929 . S
H889 C903 0.931 . S
H890 C905 0.930 . S
C891 H879 0.930 . S
C891 C892 1.399 1_565 S
C891 C896 1.399 . S
C892 C891 1.399 1_545 S
C892 C893 1.376 . S
C893 H880 0.930 . S
C893 C892 1.376 . S
C893 C894 1.388 . S
C894 H881 0.930 . S
C894 C893 1.388 . S
C894 C895 1.390 . S
C895 C894 1.390 . S
C895 C896 1.394 1_545 S
C895 C901 1.465 . S
C896 C891 1.399 . S
C896 C895 1.394 1_565 S
C896 C897 1.516 . S
C897 C896 1.516 . S
C897 C898 1.502 . S
C897 C899 1.561 . S
C897 C900 1.526 . S
C898 H882 0.959 . S
C898 H883 0.959 . S
C898 H884 0.961 . S
C898 C897 1.502 . S
C899 H885 0.960 . S
C899 H886 0.961 . S
C899 H887 0.959 . S
C899 C897 1.561 . S
C900 C897 1.526 . S
C900 C901 1.396 1_565 S
C900 C905 1.390 . S
C901 C895 1.465 . S
C901 C900 1.396 1_545 S
C901 C902 1.399 . S
C902 H888 0.929 . S
C902 C901 1.399 . S
C902 C903 1.385 . S
C903 H889 0.931 . S
C903 C902 1.385 . S
C903 C904 1.389 1_545 S
C904 C903 1.389 1_565 S
C904 C905 1.387 . S
C905 H890 0.930 . S
C905 C900 1.390 . S
C905 C904 1.387 . S
H906 C918 0.930 . S
H907 C920 0.930 . S
H908 C921 0.930 . S
H909 C925 0.959 . S
H910 C925 0.959 . S
H911 C925 0.961 . S
H912 C926 0.960 . S
H913 C926 0.961 . S
H914 C926 0.959 . S
H915 C929 0.929 . S
H916 C930 0.931 . S
H917 C932 0.930 . S
C918 H906 0.930 . S
C918 C919 1.399 . S
C918 C923 1.399 . S
C919 C918 1.399 . S
C919 C920 1.376 . S
C920 H907 0.930 . S
C920 C919 1.376 . S
C920 C921 1.388 . S
C921 H908 0.930 . S
C921 C920 1.388 . S
C921 C922 1.390 . S
C922 C921 1.390 . S
C922 C923 1.394 . S
C922 C928 1.465 . S
C923 C918 1.399 . S
C923 C922 1.394 . S
C923 C924 1.516 . S
C924 C923 1.516 . S
C924 C925 1.502 . S
C924 C926 1.561 . S
C924 C927 1.526 . S
C925 H909 0.959 . S
C925 H910 0.959 . S
C925 H911 0.961 . S
C925 C924 1.502 . S
C926 H912 0.960 . S
C926 H913 0.961 . S
C926 H914 0.959 . S
C926 C924 1.561 . S
C927 C924 1.526 . S
C927 C928 1.396 . S
C927 C932 1.390 . S
C928 C922 1.465 . S
C928 C927 1.396 . S
C928 C929 1.399 . S
C929 H915 0.929 . S
C929 C928 1.399 . S
C929 C930 1.385 . S
C930 H916 0.931 . S
C930 C929 1.385 . S
C930 C931 1.389 . S
C931 C930 1.389 . S
C931 C932 1.387 . S
C932 H917 0.930 . S
C932 C927 1.390 . S
C932 C931 1.387 . S
H933 C945 0.930 . S
H934 C947 0.930 . S
H935 C948 0.930 . S
H936 C952 0.959 . S
H937 C952 0.959 . S
H938 C952 0.961 . S
H939 C953 0.960 . S
H940 C953 0.961 . S
H941 C953 0.959 . S
H942 C956 0.929 . S
H943 C957 0.931 . S
H944 C959 0.930 . S
C945 H933 0.930 . S
C945 C946 1.399 . S
C945 C950 1.399 . S
C946 C945 1.399 . S
C946 C947 1.376 . S
C947 H934 0.930 . S
C947 C946 1.376 . S
C947 C948 1.388 . S
C948 H935 0.930 . S
C948 C947 1.388 . S
C948 C949 1.390 . S
C949 C948 1.390 . S
C949 C950 1.394 . S
C949 C955 1.465 . S
C950 C945 1.399 . S
C950 C949 1.394 . S
C950 C951 1.516 . S
C951 C950 1.516 . S
C951 C952 1.502 . S
C951 C953 1.561 . S
C951 C954 1.526 . S
C952 H936 0.959 . S
C952 H937 0.959 . S
C952 H938 0.961 . S
C952 C951 1.502 . S
C953 H939 0.960 . S
C953 H940 0.961 . S
C953 H941 0.959 . S
C953 C951 1.561 . S
C954 C951 1.526 . S
C954 C955 1.396 . S
C954 C959 1.390 . S
C955 C949 1.465 . S
C955 C954 1.396 . S
C955 C956 1.399 . S
C956 H942 0.929 . S
C956 C955 1.399 . S
C956 C957 1.385 . S
C957 H943 0.931 . S
C957 C956 1.385 . S
C957 C958 1.389 . S
C958 C957 1.389 . S
C958 C959 1.387 . S
C959 H944 0.930 . S
C959 C954 1.390 . S
C959 C958 1.387 . S
C325 C125 1.907 . S
C337 C170 1.971 . S
C364 C210 1.978 . S
C352 C144 1.916 . S
C391 C250 1.975 . S
C379 C87 1.927 . S
C418 C290 1.968 . S
C406 C106 1.918 . S
C445 C160 1.982 1_565 S
C433 C49 1.911 . S
C460 C68 1.942 . S
C472 C200 1.993 . S
C487 C11 1.953 . S
C499 C240 1.976 . S
C514 C30 1.933 1_455 S
C526 C280 1.986 1_655 S
C553 C157 0.448 . S
C541 C97 0.648 1_455 S
C580 C197 0.589 . S
C568 C116 0.478 . S
C607 C237 0.572 . S
C595 C135 0.452 . S
C622 C78 0.526 . S
C634 C277 0.467 . S
C649 C21 0.561 . S
C661 C167 0.482 . S
C688 C207 0.463 . S
C676 C40 0.662 . S
C715 C247 0.554 . S
C703 C59 0.484 . S
C730 C2 0.660 . S
C742 C287 0.456 . S
C757 C101 2.035 1_455 S
C769 C161 2.282 . S
C784 C120 2.087 1_545 S
C796 C201 2.251 . S
C823 C241 2.266 . S
C811 C139 2.035 . S
C850 C281 2.265 . S
C838 C82 2.008 . S
C865 C25 2.091 . S
C877 C171 2.293 . S
C904 C211 2.245 . S
C892 C44 2.041 1_545 S
C931 C251 2.243 . S
C919 C63 2.007 . S
C946 C6 2.021 . S
C958 C291 2.290 . S
