# Generated by pormake.
# Topology ssa, (4,4)-cn, num edge types: 1
# Building blocks:
#     Node 0, Type 0, BuildingBlock: KUFVIS_clean_linker_0, # of connection points: 4
#     Node 1, Type 0, BuildingBlock: KUFVIS_clean_linker_0, # of connection points: 4
#     Node 2, Type 0, BuildingBlock: KUFVIS_clean_linker_0, # of connection points: 4
#     Node 3, Type 0, BuildingBlock: KUFVIS_clean_linker_0, # of connection points: 4
#     Node 4, Type 0, BuildingBlock: KUFVIS_clean_linker_0, # of connection points: 4
#     Node 5, Type 0, BuildingBlock: KUFVIS_clean_linker_0, # of connection points: 4
#     Node 6, Type 1, BuildingBlock: MUDLON_clean_sbu_0, # of connection points: 4
#     Node 7, Type 1, BuildingBlock: MUDLON_clean_sbu_0, # of connection points: 4
#     Node 8, Type 1, BuildingBlock: MUDLON_clean_sbu_0, # of connection points: 4
#     Node 9, Type 1, BuildingBlock: MUDLON_clean_sbu_0, # of connection points: 4
#     Node 10, Type 1, BuildingBlock: MUDLON_clean_sbu_0, # of connection points: 4
#     Node 11, Type 1, BuildingBlock: MUDLON_clean_sbu_0, # of connection points: 4
#     Edge 12, Type (0, 1), BuildingBlock: EZIPEK_clean_linker_0, # of connection points: 2
#     Edge 13, Type (0, 1), BuildingBlock: EZIPEK_clean_linker_0, # of connection points: 2
#     Edge 14, Type (0, 1), BuildingBlock: EZIPEK_clean_linker_0, # of connection points: 2
#     Edge 15, Type (0, 1), BuildingBlock: EZIPEK_clean_linker_0, # of connection points: 2
#     Edge 16, Type (0, 1), BuildingBlock: EZIPEK_clean_linker_0, # of connection points: 2
#     Edge 17, Type (0, 1), BuildingBlock: EZIPEK_clean_linker_0, # of connection points: 2
#     Edge 18, Type (0, 1), BuildingBlock: EZIPEK_clean_linker_0, # of connection points: 2
#     Edge 19, Type (0, 1), BuildingBlock: EZIPEK_clean_linker_0, # of connection points: 2
#     Edge 20, Type (0, 1), BuildingBlock: EZIPEK_clean_linker_0, # of connection points: 2
#     Edge 21, Type (0, 1), BuildingBlock: EZIPEK_clean_linker_0, # of connection points: 2
#     Edge 22, Type (0, 1), BuildingBlock: EZIPEK_clean_linker_0, # of connection points: 2
#     Edge 23, Type (0, 1), BuildingBlock: EZIPEK_clean_linker_0, # of connection points: 2
#     Edge 24, Type (0, 1), BuildingBlock: EZIPEK_clean_linker_0, # of connection points: 2
#     Edge 25, Type (0, 1), BuildingBlock: EZIPEK_clean_linker_0, # of connection points: 2
#     Edge 26, Type (0, 1), BuildingBlock: EZIPEK_clean_linker_0, # of connection points: 2
#     Edge 27, Type (0, 1), BuildingBlock: EZIPEK_clean_linker_0, # of connection points: 2
#     Edge 28, Type (0, 1), BuildingBlock: EZIPEK_clean_linker_0, # of connection points: 2
#     Edge 29, Type (0, 1), BuildingBlock: EZIPEK_clean_linker_0, # of connection points: 2
#     Edge 30, Type (0, 1), BuildingBlock: EZIPEK_clean_linker_0, # of connection points: 2
#     Edge 31, Type (0, 1), BuildingBlock: EZIPEK_clean_linker_0, # of connection points: 2
#     Edge 32, Type (0, 1), BuildingBlock: EZIPEK_clean_linker_0, # of connection points: 2
#     Edge 33, Type (0, 1), BuildingBlock: EZIPEK_clean_linker_0, # of connection points: 2
#     Edge 34, Type (0, 1), BuildingBlock: EZIPEK_clean_linker_0, # of connection points: 2
#     Edge 35, Type (0, 1), BuildingBlock: EZIPEK_clean_linker_0, # of connection points: 2
# Relax obj value: 0.001
# Max RMSD: 0.051
# Mean RMSD: 0.028
data_MOF--net-ssa--node1-MUDLON_clean_sbu_0--node2-KUFVIS_clean_linker_0--edge1-EZIPEK_clean_linker_0
_symmetry_space_group_name_H-M    P1
_symmetry_Int_Tables_number       1
_symmetry_cell_setting            triclinic
loop_
_symmetry_equiv_pos_as_xyz
'x, y, z'
_cell_length_a     33.150487
_cell_length_b     33.093567
_cell_length_c     29.876748
_cell_angle_alpha  90.794956
_cell_angle_beta   89.326233
_cell_angle_gamma 120.48274
loop_
_atom_site_label
_atom_site_type_symbol
_atom_site_fract_x
_atom_site_fract_y
_atom_site_fract_z
_atom_type_partial_charge
H0 H 0.92642 0.50343 0.92887 0.0
H1 H 0.00985 0.6107 1.02348 0.0
H2 H 0.99012 0.4711 1.03595 0.0
H3 H 0.05445 0.50734 0.07855 0.0
H4 H 0.10748 0.60622 0.18764 0.0
H5 H 0.0128 0.61159 0.09588 0.0
C6 C 0.94821 0.51447 0.95853 0.0
C7 C 0.9577 0.4829 0.97972 0.0
C8 C 0.96622 0.55997 0.97498 0.0
C9 C 0.99488 0.57454 1.0129 0.0
C10 C 0.00344 0.5428 1.03672 0.0
C11 C 0.98468 0.49668 1.01915 0.0
C12 C 0.03091 0.55816 0.07984 0.0
C13 C 0.05546 0.53654 0.09629 0.0
C14 C 0.0823 0.55316 0.13589 0.0
C15 C 0.08597 0.59247 0.15793 0.0
C16 C 0.0615 0.61368 0.14283 0.0
C17 C 0.03295 0.59561 0.10514 0.0
H18 H 0.55176 0.12581 0.67208 0.0
H19 H 0.45633 0.02974 0.57667 0.0
H20 H 0.6017 0.06425 0.5756 0.0
H21 H 0.58236 0.00896 0.52602 0.0
H22 H 0.48463 0.92701 0.42317 0.0
H23 H 0.45146 0.008 0.51086 0.0
C24 C 0.54532 0.1032 0.64313 0.0
C25 C 0.581 0.09642 0.62646 0.0
C26 C 0.50096 0.07982 0.62407 0.0
C27 C 0.49208 0.04911 0.58789 0.0
C28 C 0.52819 0.04367 0.56766 0.0
C29 C 0.57293 0.06765 0.58829 0.0
C30 C 0.51834 0.01294 0.52604 0.0
C31 C 0.54959 0.9983 0.50959 0.0
C32 C 0.53802 0.96833 0.47162 0.0
C33 C 0.49464 0.95161 0.45099 0.0
C34 C 0.46346 0.9652 0.46658 0.0
C35 C 0.47604 0.99692 0.50227 0.0
H36 H 0.48493 0.56384 0.17683 0.0
H37 H 0.44255 0.44971 0.08614 0.0
H38 H 0.57882 0.57604 0.07091 0.0
H39 H 0.59477 0.53644 1.02176 0.0
H40 H 0.53668 0.42598 0.92363 0.0
H41 H 0.44542 0.4342 1.01924 0.0
C42 C 0.49309 0.54854 0.1483 0.0
C43 C 0.53657 0.57393 0.1269 0.0
C44 C 0.45908 0.50467 0.13214 0.0
C45 C 0.46929 0.48474 0.09541 0.0
C46 C 0.51195 0.50962 0.0712 0.0
C47 C 0.54583 0.55486 0.08797 0.0
C48 C 0.5194 0.48807 1.02872 0.0
C49 C 0.56422 0.50597 1.00829 0.0
C50 C 0.57007 0.48416 0.96972 0.0
C51 C 0.5319 0.44344 0.9525 0.0
C52 C 0.48756 0.42518 0.97143 0.0
C53 C 0.48101 0.44833 1.00791 0.0
H54 H 0.92825 0.42951 0.67723 0.0
H55 H 0.97429 0.52002 0.56323 0.0
H56 H 0.01484 0.41531 0.57887 0.0
H57 H 0.01709 0.41805 0.50467 0.0
H58 H 0.10145 0.5271 0.41235 0.0
H59 H 0.04716 0.56022 0.52921 0.0
C60 C 0.94793 0.44109 0.64612 0.0
C61 C 0.96927 0.41702 0.62911 0.0
C62 C 0.94989 0.47852 0.623 0.0
C63 C 0.97451 0.49235 0.58193 0.0
C64 C 0.99938 0.47076 0.56546 0.0
C65 C 0.99658 0.43301 0.59 0.0
C66 C 0.0273 0.48671 0.52256 0.0
C67 C 0.03312 0.45454 0.49549 0.0
C68 C 0.06012 0.46916 0.45617 0.0
C69 C 0.08042 0.51582 0.44271 0.0
C70 C 0.07594 0.54867 0.46873 0.0
C71 C 0.04947 0.53421 0.50874 0.0
H72 H 0.43664 0.8829 0.15016 0.0
H73 H 0.42847 0.98041 0.06377 0.0
H74 H 0.5418 0.95044 0.05047 0.0
H75 H 0.58394 0.02005 1.02753 0.0
H76 H 0.58017 0.1098 0.92924 0.0
H77 H 0.45379 0.01681 0.99956 0.0
C78 C 0.45052 0.90675 0.12205 0.0
C79 C 0.49279 0.91653 0.1029 0.0
C80 C 0.42643 0.92813 0.10702 0.0
C81 C 0.44626 0.96195 0.07277 0.0
C82 C 0.4894 0.97218 0.05191 0.0
C83 C 0.51041 0.94635 0.06606 0.0
C84 C 0.51418 0.01067 1.01755 0.0
C85 C 0.56289 0.03014 1.00873 0.0
C86 C 0.58608 0.06448 0.97596 0.0
C87 C 0.56181 0.0821 0.95352 0.0
C88 C 0.51487 0.06613 0.96309 0.0
C89 C 0.49059 0.02962 0.99407 0.0
H90 H 0.57816 0.48458 0.67366 0.0
H91 H 0.58465 0.57878 0.57465 0.0
H92 H 0.45331 0.4503 0.60228 0.0
H93 H 0.43043 0.45912 0.53622 0.0
H94 H 0.43717 0.56444 0.44973 0.0
H95 H 0.5442 0.60414 0.54623 0.0
C96 C 0.56056 0.49339 0.64852 0.0
C97 C 0.51345 0.46228 0.63934 0.0
C98 C 0.58528 0.53585 0.62621 0.0
C99 C 0.56312 0.54677 0.59274 0.0
C100 C 0.51478 0.51661 0.58297 0.0
C101 C 0.49023 0.47427 0.60747 0.0
C102 C 0.49082 0.52949 0.54752 0.0
C103 C 0.44788 0.49564 0.52702 0.0
C104 C 0.42785 0.50886 0.49273 0.0
C105 C 0.45114 0.55484 0.47771 0.0
C106 C 0.49365 0.58795 0.49599 0.0
C107 C 0.51222 0.57626 0.532 0.0
Mg108 Mg 0.22312 0.43477 0.29003 0.0
C109 C 0.1758 0.466 0.22145 0.0
O110 O 0.15969 0.42276 0.2074 0.0
C111 C 0.27634 0.43448 0.36868 0.0
O112 O 0.24912 0.38983 0.35888 0.0
C113 C 0.12335 0.38539 0.32468 0.0
O114 O 0.10994 0.39001 0.28495 0.0
O115 O 0.1611 0.38435 0.32802 0.0
O116 O 0.20423 0.48164 0.2544 0.0
O117 O 0.26723 0.41784 0.24846 0.0
C118 C 0.27131 0.42222 0.20622 0.0
O119 O 0.23825 0.42291 0.18318 0.0
O120 O 0.27312 0.46502 0.3457 0.0
Mg121 Mg 0.80574 0.23065 0.81766 0.0
C122 C 0.74353 0.18505 0.74165 0.0
O123 O 0.77027 0.16639 0.74279 0.0
C124 C 0.87048 0.30755 0.88043 0.0
O125 O 0.89437 0.28668 0.8712 0.0
C126 C 0.77025 0.16639 0.89931 0.0
O127 O 0.8075 0.20011 0.91917 0.0
O128 O 0.76702 0.16689 0.857 0.0
O129 O 0.7507 0.2173 0.76986 0.0
O130 O 0.86491 0.24631 0.77341 0.0
C131 C 0.87535 0.28377 0.7526 0.0
O132 O 0.85129 0.30456 0.76135 0.0
O133 O 0.83038 0.29194 0.86264 0.0
Mg134 Mg 0.59225 0.79816 0.29708 0.0
C135 C 0.55045 0.8441 0.24124 0.0
O136 O 0.55923 0.87075 0.2769 0.0
C137 C 0.57454 0.74572 0.37859 0.0
O138 O 0.61789 0.7805 0.38235 0.0
C139 C 0.58979 0.86126 0.36614 0.0
O140 O 0.54691 0.82566 0.36229 0.0
O141 O 0.62176 0.86175 0.34121 0.0
O142 O 0.55675 0.80944 0.24242 0.0
O143 O 0.62501 0.76583 0.25654 0.0
C144 C 0.59194 0.72978 0.23679 0.0
O145 O 0.54857 0.71894 0.24485 0.0
O146 O 0.55113 0.74283 0.34402 0.0
Mg147 Mg 0.80766 0.59214 0.78523 0.0
C148 C 0.74954 0.59186 0.71672 0.0
O149 O 0.73908 0.54852 0.72381 0.0
C150 C 0.86921 0.60181 0.85586 0.0
O151 O 0.83772 0.55719 0.85124 0.0
C152 C 0.72635 0.52449 0.85315 0.0
O153 O 0.73759 0.492 0.84732 0.0
O154 O 0.74828 0.56284 0.83196 0.0
O155 O 0.78332 0.62497 0.73841 0.0
O156 O 0.82325 0.54786 0.74093 0.0
C157 C 0.86614 0.56014 0.73529 0.0
O158 O 0.89765 0.59482 0.75971 0.0
O159 O 0.86742 0.63116 0.83001 0.0
Mg160 Mg 0.21649 0.80615 0.31718 0.0
C161 C 0.14311 0.75329 0.26006 0.0
O162 O 0.17257 0.73784 0.26086 0.0
C163 C 0.29013 0.85841 0.37615 0.0
O164 O 0.29624 0.82617 0.35644 0.0
C165 C 0.17686 0.73334 0.38797 0.0
O166 O 0.17316 0.76793 0.40556 0.0
O167 O 0.19773 0.73949 0.35028 0.0
O168 O 0.15099 0.78817 0.28483 0.0
O169 O 0.26629 0.8388 0.26142 0.0
C170 C 0.282 0.82365 0.23051 0.0
O171 O 0.26888 0.77896 0.22865 0.0
O172 O 0.25312 0.85963 0.36799 0.0
Mg173 Mg 0.41518 0.212 0.79768 0.0
C174 C 0.42079 0.16102 0.72488 0.0
O175 O 0.46296 0.19341 0.73738 0.0
C176 C 0.41275 0.26901 0.86658 0.0
O177 O 0.45571 0.27787 0.86029 0.0
C178 C 0.47751 0.19047 0.86292 0.0
O179 O 0.51059 0.23481 0.86268 0.0
O180 O 0.44043 0.17651 0.84042 0.0
O181 O 0.38553 0.15929 0.74445 0.0
O182 O 0.46149 0.27674 0.76184 0.0
C183 C 0.4378 0.29108 0.74101 0.0
O184 O 0.3919 0.2662 0.74275 0.0
O185 O 0.38003 0.23676 0.84318 0.0
C186 C 0.09205 0.50999 0.19979 0.0
C187 C 0.10607 0.52954 0.15634 0.0
C188 C 0.16802 0.50926 0.1562 0.0
C189 C 0.15643 0.49354 0.20112 0.0
N190 N 0.11361 0.48818 0.26875 0.0
N191 N 0.16303 0.5556 0.09651 0.0
C192 C 0.12047 0.49697 0.22391 0.0
C193 C 0.1456 0.53125 0.13535 0.0
N194 N 0.05044 0.50216 0.21739 0.0
N195 N 0.2003 0.50288 0.13328 0.0
H196 H 0.14783 0.5723 0.0804 0.0
H197 H 0.19466 0.5625 0.08218 0.0
H198 H 0.21944 0.48963 0.14818 0.0
H199 H 0.20619 0.50823 0.09898 0.0
H200 H 0.03598 0.48373 0.24684 0.0
H201 H 0.02793 0.50983 0.20024 0.0
H202 H 0.09098 0.49447 0.28808 0.0
H203 H 0.13402 0.47916 0.28768 0.0
C204 C 0.6263 0.09384 0.69179 0.0
C205 C 0.6253 0.11709 0.65257 0.0
C206 C 0.70005 0.18692 0.67374 0.0
C207 C 0.70163 0.16312 0.7123 0.0
N208 N 0.66867 0.09337 0.75732 0.0
N209 N 0.66223 0.18291 0.60299 0.0
C210 C 0.66545 0.11633 0.72099 0.0
C211 C 0.66262 0.16287 0.64259 0.0
N212 N 0.58873 0.05077 0.70187 0.0
N213 N 0.73415 0.23264 0.66734 0.0
H214 H 0.63511 0.1662 0.57992 0.0
H215 H 0.68973 0.21449 0.59134 0.0
H216 H 0.76242 0.25074 0.68896 0.0
H217 H 0.73353 0.25377 0.64226 0.0
H218 H 0.58385 0.03426 0.73248 0.0
H219 H 0.5608 0.03191 0.68006 0.0
H220 H 0.64724 0.05757 0.76261 0.0
H221 H 0.69418 0.1098 0.78191 0.0
C222 C 0.59348 0.62516 0.18605 0.0
C223 C 0.56985 0.62175 0.14558 0.0
C224 C 0.58536 0.70201 0.1579 0.0
C225 C 0.5994 0.70104 0.20232 0.0
N226 N 0.62177 0.66472 0.25802 0.0
N227 N 0.54589 0.6578 0.09076 0.0
C228 C 0.60612 0.66398 0.21579 0.0
C229 C 0.56773 0.66104 0.13026 0.0
N230 N 0.6026 0.59047 0.19616 0.0
N231 N 0.58806 0.74211 0.14286 0.0
H232 H 0.53413 0.62894 0.06926 0.0
H233 H 0.53784 0.68264 0.07998 0.0
H234 H 0.60097 0.77223 0.16287 0.0
H235 H 0.58165 0.747 0.10994 0.0
H236 H 0.62222 0.59159 0.22357 0.0
H237 H 0.59349 0.56204 0.17461 0.0
H238 H 0.6225 0.63665 0.27242 0.0
H239 H 0.63317 0.69378 0.2792 0.0
C240 C 0.94914 0.55015 0.654 0.0
C241 C 0.92484 0.50166 0.64293 0.0
C242 C 0.8587 0.4905 0.69006 0.0
C243 C 0.8822 0.53946 0.69932 0.0
N244 N 0.94085 0.61653 0.67381 0.0
N245 N 0.85011 0.42996 0.63789 0.0
C246 C 0.92455 0.56953 0.67601 0.0
C247 C 0.87734 0.47333 0.65667 0.0
N248 N 0.99614 0.57745 0.64638 0.0
N249 N 0.82066 0.45982 0.71475 0.0
H250 H 0.86241 0.41706 0.61237 0.0
H251 H 0.81429 0.40938 0.64416 0.0
H252 H 0.80698 0.47005 0.74115 0.0
H253 H 0.80558 0.42356 0.71186 0.0
H254 H 0.01567 0.61191 0.65811 0.0
H255 H 0.01653 0.56469 0.63257 0.0
H256 H 0.96972 0.63914 0.65432 0.0
H257 H 0.92204 0.63163 0.68655 0.0
C258 C 0.34068 0.87311 0.11751 0.0
C259 C 0.38179 0.91452 0.13123 0.0
C260 C 0.35537 0.89946 0.20931 0.0
C261 C 0.3147 0.85687 0.19606 0.0
N262 N 0.26209 0.81107 0.13639 0.0
N263 N 0.42061 0.97495 0.18644 0.0
C264 C 0.30519 0.84623 0.14969 0.0
C265 C 0.38581 0.9306 0.17591 0.0
N266 N 0.33701 0.85816 0.07414 0.0
N267 N 0.36733 0.90841 0.25348 0.0
H268 H 0.44349 0.99754 0.16207 0.0
H269 H 0.4236 0.99053 0.21771 0.0
H270 H 0.34802 0.88534 0.27904 0.0
H271 H 0.39896 0.93655 0.26452 0.0
H272 H 0.31102 0.82526 0.06294 0.0
H273 H 0.36155 0.87848 0.04973 0.0
H274 H 0.25171 0.80444 0.10304 0.0
H275 H 0.23508 0.79129 0.15893 0.0
C276 C 0.48566 0.41851 0.71158 0.0
C277 C 0.48973 0.41719 0.66425 0.0
C278 C 0.45997 0.33253 0.66729 0.0
C279 C 0.46025 0.33497 0.71478 0.0
N280 N 0.48098 0.38145 0.78245 0.0
N281 N 0.48812 0.37452 0.59743 0.0
C282 C 0.47549 0.37839 0.73704 0.0
C283 C 0.47864 0.37455 0.64209 0.0
N284 N 0.49039 0.45789 0.73203 0.0
N285 N 0.44161 0.28994 0.64623 0.0
H286 H 0.50169 0.40438 0.57767 0.0
H287 H 0.48592 0.34572 0.58057 0.0
H288 H 0.43042 0.25887 0.66356 0.0
H289 H 0.43501 0.28508 0.612 0.0
H290 H 0.48349 0.45963 0.76587 0.0
H291 H 0.49684 0.48752 0.71422 0.0
H292 H 0.49627 0.41301 0.80025 0.0
H293 H 0.474 0.35274 0.80201 0.0
C294 C 0.56576 0.91 0.46992 0.0
C295 C 0.56916 0.95146 0.45297 0.0
C296 C 0.60552 0.94308 0.38368 0.0
C297 C 0.59762 0.89919 0.3989 0.0
N298 N 0.58609 0.84927 0.46103 0.0
N299 N 0.60378 0.01454 0.4004 0.0
C300 C 0.58327 0.88576 0.44381 0.0
C301 C 0.59336 0.9705 0.41209 0.0
N302 N 0.54304 0.89223 0.50959 0.0
N303 N 0.62194 0.95706 0.34123 0.0
H304 H 0.59508 0.03485 0.42088 0.0
H305 H 0.62414 0.03238 0.37275 0.0
H306 H 0.63378 0.93922 0.32104 0.0
H307 H 0.62301 0.9855 0.32562 0.0
H308 H 0.53406 0.8592 0.52129 0.0
H309 H 0.53126 0.90993 0.5301 0.0
H310 H 0.57949 0.8393 0.49443 0.0
H311 H 0.5996 0.83187 0.44238 0.0
C312 C 0.65075 0.4949 0.95909 0.0
C313 C 0.61521 0.5035 0.94457 0.0
C314 C 0.65134 0.52376 0.86989 0.0
C315 C 0.68824 0.51734 0.88486 0.0
N316 N 0.729 0.50817 0.94682 0.0
N317 N 0.58791 0.53703 0.89022 0.0
C318 C 0.68973 0.50624 0.93043 0.0
C319 C 0.61782 0.52177 0.90128 0.0
N320 N 0.64637 0.47415 0.99948 0.0
N321 N 0.64653 0.52893 0.82526 0.0
H322 H 0.56308 0.53611 0.91266 0.0
H323 H 0.59082 0.55477 0.86074 0.0
H324 H 0.669 0.52857 0.80076 0.0
H325 H 0.6176 0.52886 0.81193 0.0
H326 H 0.66811 0.46178 1.00953 0.0
H327 H 0.61908 0.46661 1.02182 0.0
H328 H 0.73397 0.50522 0.98071 0.0
H329 H 0.75858 0.5172 0.92724 0.0
C330 C 0.15058 0.62544 0.4562 0.0
C331 C 0.10095 0.59842 0.45321 0.0
C332 C 0.10116 0.66126 0.4101 0.0
C333 C 0.15103 0.68626 0.40937 0.0
N334 N 0.22366 0.69119 0.42887 0.0
N335 N 0.02906 0.58761 0.42304 0.0
C336 C 0.17588 0.66799 0.43159 0.0
C337 C 0.07622 0.61571 0.42929 0.0
N338 N 0.17331 0.61068 0.4835 0.0
N339 N 0.07747 0.68119 0.39261 0.0
H340 H 0.00935 0.5547 0.43762 0.0
H341 H 0.00984 0.5954 0.40108 0.0
H342 H 0.09396 0.71308 0.37591 0.0
H343 H 0.04168 0.66763 0.397 0.0
H344 H 0.20885 0.63041 0.4907 0.0
H345 H 0.15572 0.58001 0.50218 0.0
H346 H 0.24387 0.67752 0.44006 0.0
H347 H 0.24326 0.72328 0.41275 0.0
C348 C 0.49459 0.12969 0.96238 0.0
C349 C 0.49353 0.09068 0.94075 0.0
C350 C 0.4827 0.11751 0.8682 0.0
C351 C 0.48249 0.15588 0.88988 0.0
N352 N 0.47733 0.19257 0.95832 0.0
N353 N 0.4758 0.04126 0.87561 0.0
C354 C 0.48509 0.16017 0.93726 0.0
C355 C 0.48373 0.08251 0.89443 0.0
N356 N 0.5069 0.1389 1.00644 0.0
N357 N 0.48488 0.116 0.82253 0.0
H358 H 0.47641 0.01517 0.89433 0.0
H359 H 0.46425 0.0311 0.84289 0.0
H360 H 0.48537 0.14154 0.80209 0.0
H361 H 0.49034 0.09178 0.80496 0.0
H362 H 0.51427 0.16998 1.0226 0.0
H363 H 0.51237 0.11648 1.02634 0.0
H364 H 0.4739 0.19412 0.9929 0.0
H365 H 0.47025 0.21545 0.94106 0.0
C366 C 0.38943 0.45907 0.42528 0.0
C367 C 0.38452 0.47571 0.46783 0.0
C368 C 0.30717 0.46239 0.44666 0.0
C369 C 0.31322 0.44817 0.40321 0.0
N370 N 0.35539 0.42456 0.35316 0.0
N371 N 0.33643 0.48465 0.52292 0.0
C372 C 0.35277 0.44353 0.39332 0.0
C373 C 0.3423 0.47425 0.47977 0.0
N374 N 0.43062 0.46097 0.41474 0.0
N375 N 0.26814 0.46518 0.45585 0.0
H376 H 0.36172 0.49285 0.54741 0.0
H377 H 0.3058 0.48197 0.5355 0.0
H378 H 0.24097 0.45464 0.43305 0.0
H379 H 0.263 0.47927 0.48519 0.0
H380 H 0.43971 0.45554 0.38272 0.0
H381 H 0.45685 0.46972 0.43831 0.0
H382 H 0.38034 0.41525 0.34562 0.0
H383 H 0.331 0.41572 0.32767 0.0
C384 C 0.95822 0.43247 0.91693 0.0
C385 C 0.93907 0.43571 0.95862 0.0
C386 C 0.87744 0.35303 0.9515 0.0
C387 C 0.89301 0.35181 0.90726 0.0
N388 N 0.94396 0.39281 0.84512 0.0
N389 N 0.87717 0.40091 1.0136 0.0
C390 C 0.93245 0.39217 0.88929 0.0
C391 C 0.89785 0.3964 0.97553 0.0
N392 N 1.00132 0.46797 0.90396 0.0
N393 N 0.84433 0.3125 0.97117 0.0
H394 H 0.89161 0.43174 1.03263 0.0
H395 H 0.84416 0.3752 1.02463 0.0
H396 H 0.82949 0.2802 0.95479 0.0
H397 H 0.83488 0.31023 1.00481 0.0
H398 H 0.01922 0.46582 0.87599 0.0
H399 H 0.0212 0.49784 0.92366 0.0
H400 H 0.96944 0.42273 0.82888 0.0
H401 H 0.92483 0.36452 0.8235 0.0
C402 C 0.91 0.58871 0.96633 0.0
C403 C 0.95208 0.59071 0.95254 0.0
C404 C 0.94998 0.625 0.88092 0.0
C405 C 0.90425 0.61521 0.89189 0.0
N406 N 0.84759 0.60408 0.9481 0.0
N407 N 0.01824 0.62035 0.90282 0.0
C408 C 0.88691 0.60297 0.93607 0.0
C409 C 0.97446 0.61281 0.9119 0.0
N410 N 0.89073 0.57007 1.00701 0.0
N411 N 0.96866 0.64409 0.84029 0.0
H412 H 0.03651 0.61212 0.92569 0.0
H413 H 0.03738 0.63621 0.87403 0.0
H414 H 0.95218 0.65597 0.8191 0.0
H415 H 1.00057 0.64975 0.82804 0.0
H416 H 0.85765 0.56266 1.01749 0.0
H417 H 0.90778 0.56085 1.03034 0.0
H418 H 0.8337 0.59809 0.98034 0.0
H419 H 0.83085 0.61481 0.92583 0.0
C420 C 0.40537 0.96307 0.41166 0.0
C421 C 0.4153 0.94249 0.44807 0.0
C422 C 0.33486 0.87572 0.44654 0.0
C423 C 0.32753 0.89253 0.40598 0.0
N424 N 0.35366 0.95219 0.34981 0.0
N425 N 0.39029 0.88008 0.5015 0.0
C426 C 0.36185 0.93675 0.38896 0.0
C427 C 0.37999 0.89932 0.46634 0.0
N428 N 0.43766 0.00759 0.39885 0.0
N429 N 0.29831 0.83704 0.46584 0.0
H430 H 0.4224 0.89709 0.51794 0.0
H431 H 0.36807 0.84631 0.51314 0.0
H432 H 0.26491 0.81962 0.45182 0.0
H433 H 0.29965 0.82464 0.49727 0.0
H434 H 0.43124 0.02648 0.3753 0.0
H435 H 0.47022 0.02714 0.41419 0.0
H436 H 0.37897 0.98118 0.33239 0.0
H437 H 0.32142 0.93461 0.3336 0.0
C438 C 0.42875 0.38117 0.91112 0.0
C439 C 0.44874 0.38043 0.95265 0.0
C440 C 0.41629 0.2957 0.94452 0.0
C441 C 0.40584 0.29884 0.89948 0.0
N442 N 0.38986 0.33889 0.84255 0.0
N443 N 0.45658 0.33692 1.01251 0.0
C444 C 0.40718 0.3397 0.884 0.0
C445 C 0.4397 0.33727 0.97108 0.0
N446 N 0.43251 0.42214 0.89731 0.0
N447 N 0.40504 0.25283 0.96075 0.0
H448 H 0.47273 0.36663 1.03307 0.0
H449 H 0.45563 0.3078 1.02638 0.0
H450 H 0.38784 0.22251 0.94097 0.0
H451 H 0.4093 0.24654 0.99388 0.0
H452 H 0.41961 0.42627 0.86725 0.0
H453 H 0.44756 0.45232 0.91737 0.0
H454 H 0.39102 0.36754 0.82738 0.0
H455 H 0.3731 0.30818 0.82335 0.0
C456 C 0.04044 0.40168 0.40229 0.0
C457 C 0.07284 0.43815 0.4308 0.0
C458 C 0.1377 0.4394 0.3908 0.0
C459 C 0.10592 0.4005 0.36399 0.0
N460 N 0.02653 0.33843 0.35084 0.0
N461 N 0.15041 0.47941 0.46191 0.0
C462 C 0.057 0.37945 0.37204 0.0
C463 C 0.12072 0.45207 0.42872 0.0
N464 N 0.99457 0.38994 0.40238 0.0
N465 N 0.1829 0.46816 0.37742 0.0
H466 H 0.18526 0.48783 0.46313 0.0
H467 H 0.13874 0.48925 0.49035 0.0
H468 H 0.19526 0.46527 0.3462 0.0
H469 H 0.20584 0.49915 0.39429 0.0
H470 H 0.97048 0.36735 0.37883 0.0
H471 H 0.98132 0.40519 0.42434 0.0
H472 H 0.99088 0.31938 0.35826 0.0
H473 H 0.03771 0.32131 0.32879 0.0
C474 C 0.66681 0.13347 0.97784 0.0
C475 C 0.63706 0.08579 0.96622 0.0
C476 C 0.70032 0.08832 0.92029 0.0
C477 C 0.72642 0.13785 0.92555 0.0
N478 N 0.72784 0.20832 0.95133 0.0
N479 N 0.62403 0.01734 0.92461 0.0
C480 C 0.70837 0.16073 0.95279 0.0
C481 C 0.65361 0.06277 0.93741 0.0
N482 N 0.65439 0.15304 1.01188 0.0
N483 N 0.72022 0.06584 0.89908 0.0
H484 H 0.59015 0.99737 0.93737 0.0
H485 H 0.63212 1.00034 0.89958 0.0
H486 H 0.75426 0.08373 0.88624 0.0
H487 H 0.70465 0.02949 0.89766 0.0
H488 H 0.6767 0.18675 1.02428 0.0
H489 H 0.6238 0.13369 1.03064 0.0
H490 H 0.71328 0.22603 0.96756 0.0
H491 H 0.75473 0.22951 0.92933 0.0
C492 C 0.50809 0.66733 0.47679 0.0
C493 C 0.52105 0.6328 0.47209 0.0
C494 C 0.57362 0.67588 0.40995 0.0
C495 C 0.55627 0.70725 0.41113 0.0
N496 N 0.50535 0.73225 0.4433 0.0
N497 N 0.56248 0.60081 0.43214 0.0
C498 C 0.52314 0.70296 0.44404 0.0
C499 C 0.55334 0.63645 0.4385 0.0
N500 N 0.48164 0.66594 0.51284 0.0
N501 N 0.60934 0.68362 0.38136 0.0
H502 H 0.54948 0.57179 0.45301 0.0
H503 H 0.58052 0.59828 0.4045 0.0
H504 H 0.62334 0.71038 0.35784 0.0
H505 H 0.62734 0.66545 0.3828 0.0
H506 H 0.47419 0.69221 0.52071 0.0
H507 H 0.47039 0.64011 0.53726 0.0
H508 H 0.47767 0.72808 0.46339 0.0
H509 H 0.51637 0.7593 0.42036 0.0
C510 C 0.44241 0.06697 0.68453 0.0
C511 C 0.46385 0.08791 0.64314 0.0
C512 C 0.42933 0.13811 0.64801 0.0
C513 C 0.4173 0.12475 0.69301 0.0
N514 N 0.40211 0.07056 0.75206 0.0
N515 N 0.47474 0.14025 0.58279 0.0
C516 C 0.41969 0.08641 0.71025 0.0
C517 C 0.45536 0.12173 0.62347 0.0
N518 N 0.44527 0.02961 0.69936 0.0
N519 N 0.41623 0.16716 0.62954 0.0
H520 H 0.49313 0.1283 0.56358 0.0
H521 H 0.47425 0.16857 0.5687 0.0
H522 H 0.39597 0.1778 0.64754 0.0
H523 H 0.42121 0.17681 0.59604 0.0
H524 H 0.42999 0.01164 0.72875 0.0
H525 H 0.46142 0.01485 0.68062 0.0
H526 H 0.40466 0.0446 0.76873 0.0
H527 H 0.38423 0.08384 0.77026 0.0
C528 C 0.39143 0.43988 0.17527 0.0
C529 C 0.41049 0.482 0.15042 0.0
C530 C 0.34037 0.48664 0.16595 0.0
C531 C 0.31881 0.44179 0.18625 0.0
N532 N 0.32155 0.37276 0.20555 0.0
N533 N 0.39824 0.53912 0.11297 0.0
C534 C 0.34374 0.41751 0.18964 0.0
C535 C 0.38342 0.50337 0.1429 0.0
N536 N 0.41926 0.42214 0.18633 0.0
N537 N 0.32159 0.51491 0.17115 0.0
H538 H 0.42927 0.55211 0.09463 0.0
H539 H 0.37733 0.55253 0.103 0.0
H540 H 0.29209 0.50601 0.19077 0.0
H541 H 0.33858 0.54961 0.16056 0.0
H542 H 0.40888 0.39434 0.20826 0.0
H543 H 0.45424 0.43771 0.17639 0.0
H544 H 0.33634 0.3515 0.20474 0.0
H545 H 0.28671 0.35543 0.2162 0.0
C546 C 0.97967 0.37718 0.69494 0.0
C547 C 0.95931 0.37338 0.65247 0.0
C548 C 0.89399 0.29555 0.67144 0.0
C549 C 0.91047 0.30301 0.71599 0.0
N550 N 0.9749 0.34052 0.76658 0.0
N551 N 0.90619 0.3242 0.59502 0.0
C552 C 0.95582 0.34026 0.72629 0.0
C553 C 0.9198 0.33043 0.63875 0.0
N554 N 0.02006 0.41747 0.70587 0.0
N555 N 0.85206 0.25649 0.66162 0.0
H556 H 0.92457 0.34957 0.57081 0.0
H557 H 0.87914 0.29302 0.58188 0.0
H558 H 0.83425 0.22984 0.6849 0.0
H559 H 0.83469 0.25053 0.63133 0.0
H560 H 0.03463 0.42516 0.73771 0.0
H561 H 0.03862 0.44387 0.6825 0.0
H562 H 0.0088 0.36532 0.77607 0.0
H563 H 0.95724 0.31319 0.78928 0.0
C564 C 0.49718 0.84841 0.13025 0.0
C565 C 0.51918 0.89769 0.12574 0.0
C566 C 0.57277 0.9077 0.18589 0.0
C567 C 0.54282 0.86017 0.19786 0.0
N568 N 0.47564 0.78414 0.18103 0.0
N569 N 0.57801 0.97537 0.15085 0.0
C570 C 0.50536 0.82973 0.16935 0.0
C571 C 0.55778 0.92776 0.15327 0.0
N572 N 0.4672 0.81994 0.09779 0.0
N573 N 0.61583 0.93347 0.20521 0.0
H574 H 0.56889 0.99215 0.12728 0.0
H575 H 0.60201 0.99825 0.17435 0.0
H576 H 0.62882 0.91917 0.22784 0.0
H577 H 0.64058 0.96712 0.19483 0.0
H578 H 0.45259 0.78368 0.09722 0.0
H579 H 0.46087 0.83352 0.06909 0.0
H580 H 0.44493 0.76195 0.16378 0.0
H581 H 0.47957 0.7693 0.20997 0.0
C582 C 0.67149 0.56568 0.61909 0.0
C583 C 0.63449 0.56857 0.64009 0.0
C584 C 0.68322 0.60645 0.70599 0.0
C585 C 0.71835 0.59905 0.68691 0.0
N586 N 0.7531 0.58614 0.62155 0.0
N587 N 0.60943 0.60426 0.69583 0.0
C588 C 0.71491 0.58394 0.64182 0.0
C589 C 0.64219 0.59379 0.68086 0.0
N590 N 0.66394 0.54282 0.57891 0.0
N591 N 0.68742 0.62193 0.74926 0.0
H592 H 0.57907 0.5949 0.67781 0.0
H593 H 0.61412 0.62556 0.72357 0.0
H594 H 0.71767 0.63295 0.76793 0.0
H595 H 0.66048 0.62219 0.76726 0.0
H596 H 0.68743 0.53458 0.564 0.0
H597 H 0.63296 0.53057 0.56104 0.0
H598 H 0.75451 0.5787 0.5878 0.0
H599 H 0.78503 0.59961 0.63812 0.0
C600 C 0.0454 0.64965 0.20978 0.0
C601 C 0.06701 0.6556 0.1672 0.0
C602 C 0.11712 0.73949 0.18248 0.0
C603 C 0.10431 0.73063 0.22794 0.0
N604 N 0.04902 0.68343 0.28382 0.0
N605 N 0.11908 0.70673 0.10987 0.0
C606 C 0.06501 0.68776 0.24089 0.0
C607 C 0.10055 0.70108 0.15198 0.0
N608 N 0.00752 0.60719 0.22046 0.0
N609 N 0.14717 0.78454 0.16971 0.0
H610 H 0.10707 0.67936 0.08657 0.0
H611 H 0.14727 0.73798 0.09838 0.0
H612 H 0.15971 0.81225 0.19281 0.0
H613 H 0.15652 0.79476 0.13663 0.0
H614 H 0.98919 0.60013 0.25055 0.0
H615 H 0.99279 0.57929 0.19761 0.0
H616 H 0.02283 0.65241 0.2978 0.0
H617 H 0.06246 0.71249 0.3053 0.0
loop_
_geom_bond_atom_site_label_1
_geom_bond_atom_site_label_2
_geom_bond_distance
_geom_bond_site_symmetry_2
_ccdc_geom_bond_type
H0 C6 0.930 . S
H1 C9 0.931 . S
H2 C11 0.950 . S
H3 C13 0.930 . S
H4 C15 0.930 . S
H5 C17 0.931 . S
C6 H0 0.930 . S
C6 C7 1.380 . S
C6 C8 1.394 . S
C7 C6 1.380 . S
C7 C11 1.382 . S
C8 C6 1.394 . S
C8 C9 1.400 . S
C9 H1 0.931 . S
C9 C8 1.400 . S
C9 C10 1.375 . S
C10 C9 1.375 . S
C10 C11 1.415 . S
C10 C12 1.501 1_656 S
C11 H2 0.950 . S
C11 C7 1.382 . S
C11 C10 1.415 . S
C12 C10 1.501 1_454 S
C12 C13 1.384 . S
C12 C17 1.408 . S
C13 H3 0.930 . S
C13 C12 1.384 . S
C13 C14 1.389 . S
C14 C13 1.389 . S
C14 C15 1.405 . S
C15 H4 0.930 . S
C15 C14 1.405 . S
C15 C16 1.364 . S
C16 C15 1.364 . S
C16 C17 1.400 . S
C17 H5 0.931 . S
C17 C12 1.408 . S
C17 C16 1.400 . S
H18 C24 0.930 . S
H19 C27 0.931 . S
H20 C29 0.931 . S
H21 C31 0.930 1_545 S
H22 C33 0.930 . S
H23 C35 0.931 . S
C24 H18 0.930 . S
C24 C25 1.380 . S
C24 C26 1.394 . S
C25 C24 1.380 . S
C25 C29 1.382 . S
C26 C24 1.394 . S
C26 C27 1.400 . S
C27 H19 0.931 . S
C27 C26 1.400 . S
C27 C28 1.375 . S
C28 C27 1.375 . S
C28 C29 1.415 . S
C28 C30 1.501 . S
C29 H20 0.931 . S
C29 C25 1.382 . S
C29 C28 1.415 . S
C30 C28 1.501 . S
C30 C31 1.384 1_545 S
C30 C35 1.408 1_545 S
C31 H21 0.930 1_565 S
C31 C30 1.384 1_565 S
C31 C32 1.389 . S
C32 C31 1.389 . S
C32 C33 1.405 . S
C33 H22 0.930 . S
C33 C32 1.405 . S
C33 C34 1.364 . S
C34 C33 1.364 . S
C34 C35 1.400 . S
C35 H23 0.931 . S
C35 C30 1.408 1_565 S
C35 C34 1.400 . S
H36 C42 0.930 . S
H37 C45 0.931 . S
H38 C47 0.931 . S
H39 C49 0.930 . S
H40 C51 0.930 . S
H41 C53 0.931 . S
C42 H36 0.930 . S
C42 C43 1.380 . S
C42 C44 1.394 . S
C43 C42 1.380 . S
C43 C47 1.382 . S
C44 C42 1.394 . S
C44 C45 1.400 . S
C45 H37 0.931 . S
C45 C44 1.400 . S
C45 C46 1.375 . S
C46 C45 1.375 . S
C46 C47 1.415 . S
C46 C48 1.501 1_554 S
C47 H38 0.931 . S
C47 C43 1.382 . S
C47 C46 1.415 . S
C48 C46 1.501 1_556 S
C48 C49 1.384 . S
C48 C53 1.408 . S
C49 H39 0.930 . S
C49 C48 1.384 . S
C49 C50 1.389 . S
C50 C49 1.389 . S
C50 C51 1.405 . S
C51 H40 0.930 . S
C51 C50 1.405 . S
C51 C52 1.364 . S
C52 C51 1.364 . S
C52 C53 1.400 . S
C53 H41 0.931 . S
C53 C48 1.408 . S
C53 C52 1.400 . S
H54 C60 0.930 . S
H55 C63 0.931 . S
H56 C65 0.931 . S
H57 C67 0.930 . S
H58 C69 0.930 . S
H59 C71 0.931 . S
C60 H54 0.930 . S
C60 C61 1.380 . S
C60 C62 1.394 . S
C61 C60 1.380 . S
C61 C65 1.382 . S
C62 C60 1.394 . S
C62 C63 1.400 . S
C63 H55 0.931 . S
C63 C62 1.400 . S
C63 C64 1.375 . S
C64 C63 1.375 . S
C64 C65 1.415 . S
C64 C66 1.501 1_655 S
C65 H56 0.931 . S
C65 C61 1.382 . S
C65 C64 1.415 . S
C66 C64 1.501 1_455 S
C66 C67 1.384 . S
C66 C71 1.408 . S
C67 H57 0.930 . S
C67 C66 1.384 . S
C67 C68 1.389 . S
C68 C67 1.389 . S
C68 C69 1.405 . S
C69 H58 0.930 . S
C69 C68 1.405 . S
C69 C70 1.364 . S
C70 C69 1.364 . S
C70 C71 1.400 . S
C71 H59 0.931 . S
C71 C66 1.408 . S
C71 C70 1.400 . S
H72 C78 0.930 . S
H73 C81 0.931 . S
H74 C83 0.931 . S
H75 C85 0.930 . S
H76 C87 0.930 . S
H77 C89 0.931 . S
C78 H72 0.930 . S
C78 C79 1.380 . S
C78 C80 1.394 . S
C79 C78 1.380 . S
C79 C83 1.382 . S
C80 C78 1.394 . S
C80 C81 1.400 . S
C81 H73 0.931 . S
C81 C80 1.400 . S
C81 C82 1.375 . S
C82 C81 1.375 . S
C82 C83 1.415 . S
C82 C84 1.501 1_564 S
C83 H74 0.931 . S
C83 C79 1.382 . S
C83 C82 1.415 . S
C84 C82 1.501 1_546 S
C84 C85 1.384 . S
C84 C89 1.408 . S
C85 H75 0.930 . S
C85 C84 1.384 . S
C85 C86 1.389 . S
C86 C85 1.389 . S
C86 C87 1.405 . S
C87 H76 0.930 . S
C87 C86 1.405 . S
C87 C88 1.364 . S
C88 C87 1.364 . S
C88 C89 1.400 . S
C89 H77 0.931 . S
C89 C84 1.408 . S
C89 C88 1.400 . S
H90 C96 0.930 . S
H91 C99 0.931 . S
H92 C101 0.931 . S
H93 C103 0.930 . S
H94 C105 0.930 . S
H95 C107 0.931 . S
C96 H90 0.930 . S
C96 C97 1.380 . S
C96 C98 1.394 . S
C97 C96 1.380 . S
C97 C101 1.382 . S
C98 C96 1.394 . S
C98 C99 1.400 . S
C99 H91 0.931 . S
C99 C98 1.400 . S
C99 C100 1.375 . S
C100 C99 1.375 . S
C100 C101 1.415 . S
C100 C102 1.501 . S
C101 H92 0.931 . S
C101 C97 1.382 . S
C101 C100 1.415 . S
C102 C100 1.501 . S
C102 C103 1.384 . S
C102 C107 1.408 . S
C103 H93 0.930 . S
C103 C102 1.384 . S
C103 C104 1.389 . S
C104 C103 1.389 . S
C104 C105 1.405 . S
C105 H94 0.930 . S
C105 C104 1.405 . S
C105 C106 1.364 . S
C106 C105 1.364 . S
C106 C107 1.400 . S
C107 H95 0.931 . S
C107 C102 1.408 . S
C107 C106 1.400 . S
Mg108 O115 2.141 . S
Mg108 O116 2.048 . S
Mg108 O117 2.048 . S
Mg108 O120 2.141 . S
C109 O110 1.313 . S
C109 O116 1.195 . S
O110 C109 1.313 . S
C111 O112 1.245 . S
C111 O120 1.289 . S
O112 C111 1.245 . S
C113 O114 1.245 . S
C113 O115 1.289 . S
O114 C113 1.245 . S
O115 Mg108 2.141 . S
O115 C113 1.289 . S
O116 Mg108 2.048 . S
O116 C109 1.195 . S
O117 Mg108 2.048 . S
O117 C118 1.195 . S
C118 O117 1.195 . S
C118 O119 1.313 . S
O119 C118 1.313 . S
O120 Mg108 2.141 . S
O120 C111 1.289 . S
Mg121 O128 2.141 . S
Mg121 O129 2.048 . S
Mg121 O130 2.048 . S
Mg121 O133 2.141 . S
C122 O123 1.313 . S
C122 O129 1.195 . S
O123 C122 1.313 . S
C124 O125 1.245 . S
C124 O133 1.289 . S
O125 C124 1.245 . S
C126 O127 1.245 . S
C126 O128 1.289 . S
O127 C126 1.245 . S
O128 Mg121 2.141 . S
O128 C126 1.289 . S
O129 Mg121 2.048 . S
O129 C122 1.195 . S
O130 Mg121 2.048 . S
O130 C131 1.195 . S
C131 O130 1.195 . S
C131 O132 1.313 . S
O132 C131 1.313 . S
O133 Mg121 2.141 . S
O133 C124 1.289 . S
Mg134 O141 2.141 . S
Mg134 O142 2.048 . S
Mg134 O143 2.048 . S
Mg134 O146 2.141 . S
C135 O136 1.313 . S
C135 O142 1.195 . S
O136 C135 1.313 . S
C137 O138 1.245 . S
C137 O146 1.289 . S
O138 C137 1.245 . S
C139 O140 1.245 . S
C139 O141 1.289 . S
O140 C139 1.245 . S
O141 Mg134 2.141 . S
O141 C139 1.289 . S
O142 Mg134 2.048 . S
O142 C135 1.195 . S
O143 Mg134 2.048 . S
O143 C144 1.195 . S
C144 O143 1.195 . S
C144 O145 1.313 . S
O145 C144 1.313 . S
O146 Mg134 2.141 . S
O146 C137 1.289 . S
Mg147 O154 2.141 . S
Mg147 O155 2.048 . S
Mg147 O156 2.048 . S
Mg147 O159 2.141 . S
C148 O149 1.313 . S
C148 O155 1.195 . S
O149 C148 1.313 . S
C150 O151 1.245 . S
C150 O159 1.289 . S
O151 C150 1.245 . S
C152 O153 1.245 . S
C152 O154 1.289 . S
O153 C152 1.245 . S
O154 Mg147 2.141 . S
O154 C152 1.289 . S
O155 Mg147 2.048 . S
O155 C148 1.195 . S
O156 Mg147 2.048 . S
O156 C157 1.195 . S
C157 O156 1.195 . S
C157 O158 1.313 . S
O158 C157 1.313 . S
O159 Mg147 2.141 . S
O159 C150 1.289 . S
Mg160 O167 2.141 . S
Mg160 O168 2.048 . S
Mg160 O169 2.048 . S
Mg160 O172 2.141 . S
C161 O162 1.313 . S
C161 O168 1.195 . S
O162 C161 1.313 . S
C163 O164 1.245 . S
C163 O172 1.289 . S
O164 C163 1.245 . S
C165 O166 1.245 . S
C165 O167 1.289 . S
O166 C165 1.245 . S
O167 Mg160 2.141 . S
O167 C165 1.289 . S
O168 Mg160 2.048 . S
O168 C161 1.195 . S
O169 Mg160 2.048 . S
O169 C170 1.195 . S
C170 O169 1.195 . S
C170 O171 1.313 . S
O171 C170 1.313 . S
O172 Mg160 2.141 . S
O172 C163 1.289 . S
Mg173 O180 2.141 . S
Mg173 O181 2.048 . S
Mg173 O182 2.048 . S
Mg173 O185 2.141 . S
C174 O175 1.313 . S
C174 O181 1.195 . S
O175 C174 1.313 . S
C176 O177 1.245 . S
C176 O185 1.289 . S
O177 C176 1.245 . S
C178 O179 1.245 . S
C178 O180 1.289 . S
O179 C178 1.245 . S
O180 Mg173 2.141 . S
O180 C178 1.289 . S
O181 Mg173 2.048 . S
O181 C174 1.195 . S
O182 Mg173 2.048 . S
O182 C183 1.195 . S
C183 O182 1.195 . S
C183 O184 1.313 . S
O184 C183 1.313 . S
O185 Mg173 2.141 . S
O185 C176 1.289 . S
C186 C187 1.363 . S
C186 C192 1.379 . S
C186 N194 1.356 . S
C187 C186 1.363 . S
C187 C193 1.363 . S
C188 C189 1.363 . S
C188 C193 1.379 . S
C188 N195 1.356 . S
C189 C188 1.363 . S
C189 C192 1.363 . S
N190 C192 1.356 . S
N190 H202 0.984 . S
N190 H203 0.985 . S
N191 C193 1.356 . S
N191 H196 0.984 . S
N191 H197 0.985 . S
C192 C186 1.379 . S
C192 C189 1.363 . S
C192 N190 1.356 . S
C193 C187 1.363 . S
C193 C188 1.379 . S
C193 N191 1.356 . S
N194 C186 1.356 . S
N194 H200 0.984 . S
N194 H201 0.984 . S
N195 C188 1.356 . S
N195 H198 0.984 . S
N195 H199 0.985 . S
H196 N191 0.984 . S
H197 N191 0.985 . S
H198 N195 0.984 . S
H199 N195 0.985 . S
H200 N194 0.984 . S
H201 N194 0.984 . S
H202 N190 0.984 . S
H203 N190 0.985 . S
C204 C205 1.363 . S
C204 C210 1.379 . S
C204 N212 1.356 . S
C205 C204 1.363 . S
C205 C211 1.363 . S
C206 C207 1.363 . S
C206 C211 1.379 . S
C206 N213 1.356 . S
C207 C206 1.363 . S
C207 C210 1.363 . S
N208 C210 1.356 . S
N208 H220 0.984 . S
N208 H221 0.985 . S
N209 C211 1.356 . S
N209 H214 0.984 . S
N209 H215 0.985 . S
C210 C204 1.379 . S
C210 C207 1.363 . S
C210 N208 1.356 . S
C211 C205 1.363 . S
C211 C206 1.379 . S
C211 N209 1.356 . S
N212 C204 1.356 . S
N212 H218 0.984 . S
N212 H219 0.984 . S
N213 C206 1.356 . S
N213 H216 0.984 . S
N213 H217 0.985 . S
H214 N209 0.984 . S
H215 N209 0.985 . S
H216 N213 0.984 . S
H217 N213 0.985 . S
H218 N212 0.984 . S
H219 N212 0.984 . S
H220 N208 0.984 . S
H221 N208 0.985 . S
C222 C223 1.363 . S
C222 C228 1.379 . S
C222 N230 1.356 . S
C223 C222 1.363 . S
C223 C229 1.363 . S
C224 C225 1.363 . S
C224 C229 1.379 . S
C224 N231 1.356 . S
C225 C224 1.363 . S
C225 C228 1.363 . S
N226 C228 1.356 . S
N226 H238 0.984 . S
N226 H239 0.985 . S
N227 C229 1.356 . S
N227 H232 0.984 . S
N227 H233 0.985 . S
C228 C222 1.379 . S
C228 C225 1.363 . S
C228 N226 1.356 . S
C229 C223 1.363 . S
C229 C224 1.379 . S
C229 N227 1.356 . S
N230 C222 1.356 . S
N230 H236 0.984 . S
N230 H237 0.984 . S
N231 C224 1.356 . S
N231 H234 0.984 . S
N231 H235 0.985 . S
H232 N227 0.984 . S
H233 N227 0.985 . S
H234 N231 0.984 . S
H235 N231 0.985 . S
H236 N230 0.984 . S
H237 N230 0.984 . S
H238 N226 0.984 . S
H239 N226 0.985 . S
C240 C241 1.363 . S
C240 C246 1.379 . S
C240 N248 1.356 . S
C241 C240 1.363 . S
C241 C247 1.363 . S
C242 C243 1.363 . S
C242 C247 1.379 . S
C242 N249 1.356 . S
C243 C242 1.363 . S
C243 C246 1.363 . S
N244 C246 1.356 . S
N244 H256 0.984 . S
N244 H257 0.985 . S
N245 C247 1.356 . S
N245 H250 0.984 . S
N245 H251 0.985 . S
C246 C240 1.379 . S
C246 C243 1.363 . S
C246 N244 1.356 . S
C247 C241 1.363 . S
C247 C242 1.379 . S
C247 N245 1.356 . S
N248 C240 1.356 . S
N248 H254 0.984 1_655 S
N248 H255 0.984 . S
N249 C242 1.356 . S
N249 H252 0.984 . S
N249 H253 0.985 . S
H250 N245 0.984 . S
H251 N245 0.985 . S
H252 N249 0.984 . S
H253 N249 0.985 . S
H254 N248 0.984 1_455 S
H255 N248 0.984 . S
H256 N244 0.984 . S
H257 N244 0.985 . S
C258 C259 1.363 . S
C258 C264 1.379 . S
C258 N266 1.356 . S
C259 C258 1.363 . S
C259 C265 1.363 . S
C260 C261 1.363 . S
C260 C265 1.379 . S
C260 N267 1.356 . S
C261 C260 1.363 . S
C261 C264 1.363 . S
N262 C264 1.356 . S
N262 H274 0.984 . S
N262 H275 0.985 . S
N263 C265 1.356 . S
N263 H268 0.984 . S
N263 H269 0.985 1_565 S
C264 C258 1.379 . S
C264 C261 1.363 . S
C264 N262 1.356 . S
C265 C259 1.363 . S
C265 C260 1.379 . S
C265 N263 1.356 . S
N266 C258 1.356 . S
N266 H272 0.984 . S
N266 H273 0.984 . S
N267 C260 1.356 . S
N267 H270 0.984 . S
N267 H271 0.985 . S
H268 N263 0.984 . S
H269 N263 0.985 1_545 S
H270 N267 0.984 . S
H271 N267 0.985 . S
H272 N266 0.984 . S
H273 N266 0.984 . S
H274 N262 0.984 . S
H275 N262 0.985 . S
C276 C277 1.363 . S
C276 C282 1.379 . S
C276 N284 1.356 . S
C277 C276 1.363 . S
C277 C283 1.363 . S
C278 C279 1.363 . S
C278 C283 1.379 . S
C278 N285 1.356 . S
C279 C278 1.363 . S
C279 C282 1.363 . S
N280 C282 1.356 . S
N280 H292 0.984 . S
N280 H293 0.985 . S
N281 C283 1.356 . S
N281 H286 0.984 . S
N281 H287 0.985 . S
C282 C276 1.379 . S
C282 C279 1.363 . S
C282 N280 1.356 . S
C283 C277 1.363 . S
C283 C278 1.379 . S
C283 N281 1.356 . S
N284 C276 1.356 . S
N284 H290 0.984 . S
N284 H291 0.984 . S
N285 C278 1.356 . S
N285 H288 0.984 . S
N285 H289 0.985 . S
H286 N281 0.984 . S
H287 N281 0.985 . S
H288 N285 0.984 . S
H289 N285 0.985 . S
H290 N284 0.984 . S
H291 N284 0.984 . S
H292 N280 0.984 . S
H293 N280 0.985 . S
C294 C295 1.363 . S
C294 C300 1.379 . S
C294 N302 1.356 . S
C295 C294 1.363 . S
C295 C301 1.363 . S
C296 C297 1.363 . S
C296 C301 1.379 . S
C296 N303 1.356 . S
C297 C296 1.363 . S
C297 C300 1.363 . S
N298 C300 1.356 . S
N298 H310 0.984 . S
N298 H311 0.985 . S
N299 C301 1.356 . S
N299 H304 0.980 1_565 S
N299 H305 0.985 1_565 S
C300 C294 1.379 . S
C300 C297 1.363 . S
C300 N298 1.356 . S
C301 C295 1.363 . S
C301 C296 1.379 . S
C301 N299 1.356 . S
N302 C294 1.356 . S
N302 H308 0.984 . S
N302 H309 0.984 . S
N303 C296 1.356 . S
N303 H306 0.984 . S
N303 H307 0.985 . S
H304 N299 0.980 1_545 S
H305 N299 0.985 1_545 S
H306 N303 0.984 . S
H307 N303 0.985 . S
H308 N302 0.984 . S
H309 N302 0.984 . S
H310 N298 0.984 . S
H311 N298 0.985 . S
C312 C313 1.363 . S
C312 C318 1.379 . S
C312 N320 1.356 . S
C313 C312 1.363 . S
C313 C319 1.363 . S
C314 C315 1.363 . S
C314 C319 1.379 . S
C314 N321 1.356 . S
C315 C314 1.363 . S
C315 C318 1.363 . S
N316 C318 1.356 . S
N316 H328 0.984 . S
N316 H329 0.985 . S
N317 C319 1.356 . S
N317 H322 0.984 . S
N317 H323 0.985 . S
C318 C312 1.379 . S
C318 C315 1.363 . S
C318 N316 1.356 . S
C319 C313 1.363 . S
C319 C314 1.379 . S
C319 N317 1.356 . S
N320 C312 1.356 . S
N320 H326 0.984 . S
N320 H327 0.984 . S
N321 C314 1.356 . S
N321 H324 0.984 . S
N321 H325 0.985 . S
H322 N317 0.984 . S
H323 N317 0.985 . S
H324 N321 0.984 . S
H325 N321 0.985 . S
H326 N320 0.984 . S
H327 N320 0.984 . S
H328 N316 0.984 . S
H329 N316 0.985 . S
C330 C331 1.363 . S
C330 C336 1.379 . S
C330 N338 1.356 . S
C331 C330 1.363 . S
C331 C337 1.363 . S
C332 C333 1.363 . S
C332 C337 1.379 . S
C332 N339 1.356 . S
C333 C332 1.363 . S
C333 C336 1.363 . S
N334 C336 1.356 . S
N334 H346 0.984 . S
N334 H347 0.985 . S
N335 C337 1.356 . S
N335 H340 0.984 . S
N335 H341 0.985 . S
C336 C330 1.379 . S
C336 C333 1.363 . S
C336 N334 1.356 . S
C337 C331 1.363 . S
C337 C332 1.379 . S
C337 N335 1.356 . S
N338 C330 1.356 . S
N338 H344 0.984 . S
N338 H345 0.984 . S
N339 C332 1.356 . S
N339 H342 0.984 . S
N339 H343 0.985 . S
H340 N335 0.984 . S
H341 N335 0.985 . S
H342 N339 0.984 . S
H343 N339 0.985 . S
H344 N338 0.984 . S
H345 N338 0.984 . S
H346 N334 0.984 . S
H347 N334 0.985 . S
C348 C349 1.363 . S
C348 C354 1.379 . S
C348 N356 1.356 . S
C349 C348 1.363 . S
C349 C355 1.363 . S
C350 C351 1.363 . S
C350 C355 1.379 . S
C350 N357 1.356 . S
C351 C350 1.363 . S
C351 C354 1.363 . S
N352 C354 1.356 . S
N352 H364 0.984 . S
N352 H365 0.985 . S
N353 C355 1.356 . S
N353 H358 0.984 . S
N353 H359 0.985 . S
C354 C348 1.379 . S
C354 C351 1.363 . S
C354 N352 1.356 . S
C355 C349 1.363 . S
C355 C350 1.379 . S
C355 N353 1.356 . S
N356 C348 1.356 . S
N356 H362 0.984 . S
N356 H363 0.984 . S
N357 C350 1.356 . S
N357 H360 0.984 . S
N357 H361 0.985 . S
H358 N353 0.984 . S
H359 N353 0.985 . S
H360 N357 0.984 . S
H361 N357 0.985 . S
H362 N356 0.984 . S
H363 N356 0.984 . S
H364 N352 0.984 . S
H365 N352 0.985 . S
C366 C367 1.363 . S
C366 C372 1.379 . S
C366 N374 1.356 . S
C367 C366 1.363 . S
C367 C373 1.363 . S
C368 C369 1.363 . S
C368 C373 1.379 . S
C368 N375 1.356 . S
C369 C368 1.363 . S
C369 C372 1.363 . S
N370 C372 1.356 . S
N370 H382 0.984 . S
N370 H383 0.985 . S
N371 C373 1.356 . S
N371 H376 0.984 . S
N371 H377 0.985 . S
C372 C366 1.379 . S
C372 C369 1.363 . S
C372 N370 1.356 . S
C373 C367 1.363 . S
C373 C368 1.379 . S
C373 N371 1.356 . S
N374 C366 1.356 . S
N374 H380 0.984 . S
N374 H381 0.984 . S
N375 C368 1.356 . S
N375 H378 0.984 . S
N375 H379 0.985 . S
H376 N371 0.984 . S
H377 N371 0.985 . S
H378 N375 0.984 . S
H379 N375 0.985 . S
H380 N374 0.984 . S
H381 N374 0.984 . S
H382 N370 0.984 . S
H383 N370 0.985 . S
C384 C385 1.363 . S
C384 C390 1.379 . S
C384 N392 1.356 . S
C385 C384 1.363 . S
C385 C391 1.363 . S
C386 C387 1.363 . S
C386 C391 1.379 . S
C386 N393 1.356 . S
C387 C386 1.363 . S
C387 C390 1.363 . S
N388 C390 1.356 . S
N388 H400 0.984 . S
N388 H401 0.985 . S
N389 C391 1.356 . S
N389 H394 0.984 . S
N389 H395 0.985 . S
C390 C384 1.379 . S
C390 C387 1.363 . S
C390 N388 1.356 . S
C391 C385 1.363 . S
C391 C386 1.379 . S
C391 N389 1.356 . S
N392 C384 1.356 . S
N392 H398 0.984 . S
N392 H399 0.984 . S
N393 C386 1.356 . S
N393 H396 0.984 . S
N393 H397 0.985 . S
H394 N389 0.984 . S
H395 N389 0.985 . S
H396 N393 0.984 . S
H397 N393 0.985 . S
H398 N392 0.984 . S
H399 N392 0.984 . S
H400 N388 0.984 . S
H401 N388 0.985 . S
C402 C403 1.363 . S
C402 C408 1.379 . S
C402 N410 1.356 . S
C403 C402 1.363 . S
C403 C409 1.363 . S
C404 C405 1.363 . S
C404 C409 1.379 . S
C404 N411 1.356 . S
C405 C404 1.363 . S
C405 C408 1.363 . S
N406 C408 1.356 . S
N406 H418 0.984 . S
N406 H419 0.985 . S
N407 C409 1.356 . S
N407 H412 0.984 . S
N407 H413 0.985 . S
C408 C402 1.379 . S
C408 C405 1.363 . S
C408 N406 1.356 . S
C409 C403 1.363 . S
C409 C404 1.379 . S
C409 N407 1.356 . S
N410 C402 1.356 . S
N410 H416 0.984 . S
N410 H417 0.984 . S
N411 C404 1.356 . S
N411 H414 0.984 . S
N411 H415 0.985 . S
H412 N407 0.984 . S
H413 N407 0.985 . S
H414 N411 0.984 . S
H415 N411 0.985 . S
H416 N410 0.984 . S
H417 N410 0.984 . S
H418 N406 0.984 . S
H419 N406 0.985 . S
C420 C421 1.363 . S
C420 C426 1.379 . S
C420 N428 1.356 . S
C421 C420 1.363 . S
C421 C427 1.363 . S
C422 C423 1.363 . S
C422 C427 1.379 . S
C422 N429 1.356 . S
C423 C422 1.363 . S
C423 C426 1.363 . S
N424 C426 1.356 . S
N424 H436 0.984 . S
N424 H437 0.985 . S
N425 C427 1.356 . S
N425 H430 0.984 . S
N425 H431 0.985 . S
C426 C420 1.379 . S
C426 C423 1.363 . S
C426 N424 1.356 . S
C427 C421 1.363 . S
C427 C422 1.379 . S
C427 N425 1.356 . S
N428 C420 1.356 . S
N428 H434 0.984 1_565 S
N428 H435 0.984 1_565 S
N429 C422 1.356 . S
N429 H432 0.984 . S
N429 H433 0.985 . S
H430 N425 0.984 . S
H431 N425 0.985 . S
H432 N429 0.984 . S
H433 N429 0.985 . S
H434 N428 0.984 1_545 S
H435 N428 0.984 1_545 S
H436 N424 0.984 . S
H437 N424 0.985 . S
C438 C439 1.363 . S
C438 C444 1.379 . S
C438 N446 1.356 . S
C439 C438 1.363 . S
C439 C445 1.363 . S
C440 C441 1.363 . S
C440 C445 1.379 . S
C440 N447 1.356 . S
C441 C440 1.363 . S
C441 C444 1.363 . S
N442 C444 1.356 . S
N442 H454 0.984 . S
N442 H455 0.985 . S
N443 C445 1.356 . S
N443 H448 0.984 . S
N443 H449 0.985 . S
C444 C438 1.379 . S
C444 C441 1.363 . S
C444 N442 1.356 . S
C445 C439 1.363 . S
C445 C440 1.379 . S
C445 N443 1.356 . S
N446 C438 1.356 . S
N446 H452 0.984 . S
N446 H453 0.984 . S
N447 C440 1.356 . S
N447 H450 0.984 . S
N447 H451 0.985 . S
H448 N443 0.984 . S
H449 N443 0.985 . S
H450 N447 0.984 . S
H451 N447 0.985 . S
H452 N446 0.984 . S
H453 N446 0.984 . S
H454 N442 0.984 . S
H455 N442 0.985 . S
C456 C457 1.363 . S
C456 C462 1.379 . S
C456 N464 1.356 . S
C457 C456 1.363 . S
C457 C463 1.363 . S
C458 C459 1.363 . S
C458 C463 1.379 . S
C458 N465 1.356 . S
C459 C458 1.363 . S
C459 C462 1.363 . S
N460 C462 1.356 . S
N460 H472 0.984 . S
N460 H473 0.985 . S
N461 C463 1.356 . S
N461 H466 0.984 . S
N461 H467 0.985 . S
C462 C456 1.379 . S
C462 C459 1.363 . S
C462 N460 1.356 . S
C463 C457 1.363 . S
C463 C458 1.379 . S
C463 N461 1.356 . S
N464 C456 1.356 . S
N464 H470 0.984 . S
N464 H471 0.984 . S
N465 C458 1.356 . S
N465 H468 0.984 . S
N465 H469 0.985 . S
H466 N461 0.984 . S
H467 N461 0.985 . S
H468 N465 0.984 . S
H469 N465 0.985 . S
H470 N464 0.984 . S
H471 N464 0.984 . S
H472 N460 0.984 . S
H473 N460 0.985 . S
C474 C475 1.363 . S
C474 C480 1.379 . S
C474 N482 1.356 . S
C475 C474 1.363 . S
C475 C481 1.363 . S
C476 C477 1.363 . S
C476 C481 1.379 . S
C476 N483 1.356 . S
C477 C476 1.363 . S
C477 C480 1.363 . S
N478 C480 1.356 . S
N478 H490 0.984 . S
N478 H491 0.985 . S
N479 C481 1.356 . S
N479 H484 0.984 . S
N479 H485 0.985 1_545 S
C480 C474 1.379 . S
C480 C477 1.363 . S
C480 N478 1.356 . S
C481 C475 1.363 . S
C481 C476 1.379 . S
C481 N479 1.356 . S
N482 C474 1.356 . S
N482 H488 0.984 . S
N482 H489 0.984 . S
N483 C476 1.356 . S
N483 H486 0.984 . S
N483 H487 0.985 . S
H484 N479 0.984 . S
H485 N479 0.985 1_565 S
H486 N483 0.984 . S
H487 N483 0.985 . S
H488 N482 0.984 . S
H489 N482 0.984 . S
H490 N478 0.984 . S
H491 N478 0.985 . S
C492 C493 1.363 . S
C492 C498 1.379 . S
C492 N500 1.356 . S
C493 C492 1.363 . S
C493 C499 1.363 . S
C494 C495 1.363 . S
C494 C499 1.379 . S
C494 N501 1.356 . S
C495 C494 1.363 . S
C495 C498 1.363 . S
N496 C498 1.356 . S
N496 H508 0.984 . S
N496 H509 0.985 . S
N497 C499 1.356 . S
N497 H502 0.984 . S
N497 H503 0.985 . S
C498 C492 1.379 . S
C498 C495 1.363 . S
C498 N496 1.356 . S
C499 C493 1.363 . S
C499 C494 1.379 . S
C499 N497 1.356 . S
N500 C492 1.356 . S
N500 H506 0.984 . S
N500 H507 0.984 . S
N501 C494 1.356 . S
N501 H504 0.984 . S
N501 H505 0.985 . S
H502 N497 0.984 . S
H503 N497 0.985 . S
H504 N501 0.984 . S
H505 N501 0.985 . S
H506 N500 0.984 . S
H507 N500 0.984 . S
H508 N496 0.984 . S
H509 N496 0.985 . S
C510 C511 1.363 . S
C510 C516 1.379 . S
C510 N518 1.356 . S
C511 C510 1.363 . S
C511 C517 1.363 . S
C512 C513 1.363 . S
C512 C517 1.379 . S
C512 N519 1.356 . S
C513 C512 1.363 . S
C513 C516 1.363 . S
N514 C516 1.356 . S
N514 H526 0.984 . S
N514 H527 0.985 . S
N515 C517 1.356 . S
N515 H520 0.984 . S
N515 H521 0.985 . S
C516 C510 1.379 . S
C516 C513 1.363 . S
C516 N514 1.356 . S
C517 C511 1.363 . S
C517 C512 1.379 . S
C517 N515 1.356 . S
N518 C510 1.356 . S
N518 H524 0.984 . S
N518 H525 0.984 . S
N519 C512 1.356 . S
N519 H522 0.984 . S
N519 H523 0.985 . S
H520 N515 0.984 . S
H521 N515 0.985 . S
H522 N519 0.984 . S
H523 N519 0.985 . S
H524 N518 0.984 . S
H525 N518 0.984 . S
H526 N514 0.984 . S
H527 N514 0.985 . S
C528 C529 1.363 . S
C528 C534 1.379 . S
C528 N536 1.356 . S
C529 C528 1.363 . S
C529 C535 1.363 . S
C530 C531 1.363 . S
C530 C535 1.379 . S
C530 N537 1.356 . S
C531 C530 1.363 . S
C531 C534 1.363 . S
N532 C534 1.356 . S
N532 H544 0.984 . S
N532 H545 0.985 . S
N533 C535 1.356 . S
N533 H538 0.984 . S
N533 H539 0.985 . S
C534 C528 1.379 . S
C534 C531 1.363 . S
C534 N532 1.356 . S
C535 C529 1.363 . S
C535 C530 1.379 . S
C535 N533 1.356 . S
N536 C528 1.356 . S
N536 H542 0.984 . S
N536 H543 0.984 . S
N537 C530 1.356 . S
N537 H540 0.984 . S
N537 H541 0.985 . S
H538 N533 0.984 . S
H539 N533 0.985 . S
H540 N537 0.984 . S
H541 N537 0.985 . S
H542 N536 0.984 . S
H543 N536 0.984 . S
H544 N532 0.984 . S
H545 N532 0.985 . S
C546 C547 1.363 . S
C546 C552 1.379 . S
C546 N554 1.356 . S
C547 C546 1.363 . S
C547 C553 1.363 . S
C548 C549 1.363 . S
C548 C553 1.379 . S
C548 N555 1.356 . S
C549 C548 1.363 . S
C549 C552 1.363 . S
N550 C552 1.356 . S
N550 H562 0.984 . S
N550 H563 0.985 . S
N551 C553 1.356 . S
N551 H556 0.984 . S
N551 H557 0.985 . S
C552 C546 1.379 . S
C552 C549 1.363 . S
C552 N550 1.356 . S
C553 C547 1.363 . S
C553 C548 1.379 . S
C553 N551 1.356 . S
N554 C546 1.356 . S
N554 H560 0.984 . S
N554 H561 0.984 . S
N555 C548 1.356 . S
N555 H558 0.984 . S
N555 H559 0.985 . S
H556 N551 0.984 . S
H557 N551 0.985 . S
H558 N555 0.984 . S
H559 N555 0.985 . S
H560 N554 0.984 . S
H561 N554 0.984 . S
H562 N550 0.984 . S
H563 N550 0.985 . S
C564 C565 1.363 . S
C564 C570 1.379 . S
C564 N572 1.356 . S
C565 C564 1.363 . S
C565 C571 1.363 . S
C566 C567 1.363 . S
C566 C571 1.379 . S
C566 N573 1.356 . S
C567 C566 1.363 . S
C567 C570 1.363 . S
N568 C570 1.356 . S
N568 H580 0.984 . S
N568 H581 0.985 . S
N569 C571 1.356 . S
N569 H574 0.984 . S
N569 H575 0.985 1_565 S
C570 C564 1.379 . S
C570 C567 1.363 . S
C570 N568 1.356 . S
C571 C565 1.363 . S
C571 C566 1.379 . S
C571 N569 1.356 . S
N572 C564 1.356 . S
N572 H578 0.984 . S
N572 H579 0.984 . S
N573 C566 1.356 . S
N573 H576 0.984 . S
N573 H577 0.985 . S
H574 N569 0.984 . S
H575 N569 0.985 1_545 S
H576 N573 0.984 . S
H577 N573 0.985 . S
H578 N572 0.984 . S
H579 N572 0.984 . S
H580 N568 0.984 . S
H581 N568 0.985 . S
C582 C583 1.363 . S
C582 C588 1.379 . S
C582 N590 1.356 . S
C583 C582 1.363 . S
C583 C589 1.363 . S
C584 C585 1.363 . S
C584 C589 1.379 . S
C584 N591 1.356 . S
C585 C584 1.363 . S
C585 C588 1.363 . S
N586 C588 1.356 . S
N586 H598 0.984 . S
N586 H599 0.985 . S
N587 C589 1.356 . S
N587 H592 0.984 . S
N587 H593 0.985 . S
C588 C582 1.379 . S
C588 C585 1.363 . S
C588 N586 1.356 . S
C589 C583 1.363 . S
C589 C584 1.379 . S
C589 N587 1.356 . S
N590 C582 1.356 . S
N590 H596 0.984 . S
N590 H597 0.984 . S
N591 C584 1.356 . S
N591 H594 0.984 . S
N591 H595 0.985 . S
H592 N587 0.984 . S
H593 N587 0.985 . S
H594 N591 0.984 . S
H595 N591 0.985 . S
H596 N590 0.984 . S
H597 N590 0.984 . S
H598 N586 0.984 . S
H599 N586 0.985 . S
C600 C601 1.363 . S
C600 C606 1.379 . S
C600 N608 1.356 . S
C601 C600 1.363 . S
C601 C607 1.363 . S
C602 C603 1.363 . S
C602 C607 1.379 . S
C602 N609 1.356 . S
C603 C602 1.363 . S
C603 C606 1.363 . S
N604 C606 1.356 . S
N604 H616 0.984 . S
N604 H617 0.985 . S
N605 C607 1.356 . S
N605 H610 0.984 . S
N605 H611 0.985 . S
C606 C600 1.379 . S
C606 C603 1.363 . S
C606 N604 1.356 . S
C607 C601 1.363 . S
C607 C602 1.379 . S
C607 N605 1.356 . S
N608 C600 1.356 . S
N608 H614 0.984 . S
N608 H615 0.984 . S
N609 C602 1.356 . S
N609 H612 0.984 . S
N609 H613 0.985 . S
H610 N605 0.984 . S
H611 N605 0.985 . S
H612 N609 0.984 . S
H613 N609 0.985 . S
H614 N608 0.984 . S
H615 N608 0.984 . S
H616 N604 0.984 . S
H617 N604 0.985 . S
C187 C14 1.521 . S
C189 C109 1.554 . S
C205 C25 1.523 . S
C207 C122 1.558 . S
C225 C144 1.516 . S
C223 C43 1.519 . S
C243 C157 1.515 . S
C241 C62 1.522 . S
C261 C170 1.511 . S
C259 C80 1.516 . S
C279 C183 1.515 . S
C277 C97 1.517 . S
C295 C32 1.516 . S
C297 C139 1.506 . S
C313 C50 1.517 . S
C315 C152 1.506 . S
C333 C165 1.502 . S
C331 C70 1.508 . S
C351 C178 1.507 . S
C349 C88 1.512 . S
C367 C104 1.518 . S
C369 C111 1.554 . S
C387 C124 1.557 . S
C385 C7 1.516 . S
C405 C150 1.497 . S
C403 C8 1.517 . S
C421 C34 1.510 . S
C423 C163 1.499 . S
C441 C176 1.499 . S
C439 C52 1.510 . S
C457 C68 1.522 . S
C459 C113 1.557 . S
C475 C86 1.521 . S
C477 C126 1.556 . S
C493 C106 1.515 . S
C495 C137 1.503 . S
C511 C26 1.528 . S
C513 C174 1.518 . S
C531 C118 1.566 . S
C529 C44 1.534 . S
C547 C61 1.526 . S
C549 C131 1.566 . S
C565 C79 1.526 . S
C567 C135 1.523 . S
C583 C98 1.528 . S
C585 C148 1.518 . S
C601 C16 1.518 . S
C603 C161 1.519 . S
