# Generated by pormake.
# Topology nom, (4,4)-cn, num edge types: 1
# Building blocks:
#     Node 0, Type 0, BuildingBlock: MIFKUJ_clean_linker_1, # of connection points: 4
#     Node 1, Type 0, BuildingBlock: MIFKUJ_clean_linker_1, # of connection points: 4
#     Node 2, Type 0, BuildingBlock: MIFKUJ_clean_linker_1, # of connection points: 4
#     Node 3, Type 0, BuildingBlock: MIFKUJ_clean_linker_1, # of connection points: 4
#     Node 4, Type 0, BuildingBlock: MIFKUJ_clean_linker_1, # of connection points: 4
#     Node 5, Type 0, BuildingBlock: MIFKUJ_clean_linker_1, # of connection points: 4
#     Node 6, Type 1, BuildingBlock: AZAVOO_clean_sbu_0, # of connection points: 4
#     Node 7, Type 1, BuildingBlock: AZAVOO_clean_sbu_0, # of connection points: 4
#     Node 8, Type 1, BuildingBlock: AZAVOO_clean_sbu_0, # of connection points: 4
#     Node 9, Type 1, BuildingBlock: AZAVOO_clean_sbu_0, # of connection points: 4
#     Node 10, Type 1, BuildingBlock: AZAVOO_clean_sbu_0, # of connection points: 4
#     Node 11, Type 1, BuildingBlock: AZAVOO_clean_sbu_0, # of connection points: 4
#     Edge 12, Type (0, 1), BuildingBlock: XUDNAN_clean_linker_2, # of connection points: 2
#     Edge 13, Type (0, 1), BuildingBlock: XUDNAN_clean_linker_2, # of connection points: 2
#     Edge 14, Type (0, 1), BuildingBlock: XUDNAN_clean_linker_2, # of connection points: 2
#     Edge 15, Type (0, 1), BuildingBlock: XUDNAN_clean_linker_2, # of connection points: 2
#     Edge 16, Type (0, 1), BuildingBlock: XUDNAN_clean_linker_2, # of connection points: 2
#     Edge 17, Type (0, 1), BuildingBlock: XUDNAN_clean_linker_2, # of connection points: 2
#     Edge 18, Type (0, 1), BuildingBlock: XUDNAN_clean_linker_2, # of connection points: 2
#     Edge 19, Type (0, 1), BuildingBlock: XUDNAN_clean_linker_2, # of connection points: 2
#     Edge 20, Type (0, 1), BuildingBlock: XUDNAN_clean_linker_2, # of connection points: 2
#     Edge 21, Type (0, 1), BuildingBlock: XUDNAN_clean_linker_2, # of connection points: 2
#     Edge 22, Type (0, 1), BuildingBlock: XUDNAN_clean_linker_2, # of connection points: 2
#     Edge 23, Type (0, 1), BuildingBlock: XUDNAN_clean_linker_2, # of connection points: 2
#     Edge 24, Type (0, 1), BuildingBlock: XUDNAN_clean_linker_2, # of connection points: 2
#     Edge 25, Type (0, 1), BuildingBlock: XUDNAN_clean_linker_2, # of connection points: 2
#     Edge 26, Type (0, 1), BuildingBlock: XUDNAN_clean_linker_2, # of connection points: 2
#     Edge 27, Type (0, 1), BuildingBlock: XUDNAN_clean_linker_2, # of connection points: 2
#     Edge 28, Type (0, 1), BuildingBlock: XUDNAN_clean_linker_2, # of connection points: 2
#     Edge 29, Type (0, 1), BuildingBlock: XUDNAN_clean_linker_2, # of connection points: 2
#     Edge 30, Type (0, 1), BuildingBlock: XUDNAN_clean_linker_2, # of connection points: 2
#     Edge 31, Type (0, 1), BuildingBlock: XUDNAN_clean_linker_2, # of connection points: 2
#     Edge 32, Type (0, 1), BuildingBlock: XUDNAN_clean_linker_2, # of connection points: 2
#     Edge 33, Type (0, 1), BuildingBlock: XUDNAN_clean_linker_2, # of connection points: 2
#     Edge 34, Type (0, 1), BuildingBlock: XUDNAN_clean_linker_2, # of connection points: 2
#     Edge 35, Type (0, 1), BuildingBlock: XUDNAN_clean_linker_2, # of connection points: 2
# Relax obj value: 0.035
# Max RMSD: 0.156
# Mean RMSD: 0.123
data_MOF--net-nom--node1-AZAVOO_clean_sbu_0--node2-MIFKUJ_clean_linker_1--edge1-XUDNAN_clean_linker_2
_symmetry_space_group_name_H-M    P1
_symmetry_Int_Tables_number       1
_symmetry_cell_setting            triclinic
loop_
_symmetry_equiv_pos_as_xyz
'x, y, z'
_cell_length_a     53.319388
_cell_length_b     53.838046
_cell_length_c     54.671684
_cell_angle_alpha  91.111315
_cell_angle_beta   91.05641
_cell_angle_gamma 119.96723
loop_
_atom_site_label
_atom_site_type_symbol
_atom_site_fract_x
_atom_site_fract_y
_atom_site_fract_z
_atom_type_partial_charge
H0 H 0.97508 0.46254 0.27829 0.0
H1 H 0.94206 0.45108 0.24291 0.0
H2 H 0.90611 0.49895 0.27738 0.0
H3 H 0.94136 0.51284 0.31089 0.0
H4 H 0.01747 0.52126 0.29667 0.0
H5 H 0.9365 0.42873 0.34687 0.0
H6 H 0.88593 0.40389 0.35887 0.0
H7 H 0.88828 0.48557 0.36284 0.0
H8 H 0.9392 0.50981 0.35397 0.0
H9 H 0.02013 0.53313 0.40313 0.0
H10 H 0.05316 0.54357 0.43858 0.0
H11 H 0.10443 0.51826 0.39601 0.0
H12 H 0.07116 0.50732 0.36051 0.0
H13 H 0.98539 0.48636 0.37999 0.0
H14 H 0.06238 0.57331 0.35967 0.0
H15 H 0.11068 0.61231 0.35184 0.0
H16 H 0.11506 0.56419 0.28942 0.0
H17 H 0.0673 0.52419 0.29851 0.0
C18 C 0.96005 0.48772 0.29773 0.0
C19 C 0.96005 0.47055 0.2781 0.0
C20 C 0.94084 0.46376 0.25795 0.0
C21 C 0.92093 0.47378 0.25708 0.0
C22 C 0.92116 0.49102 0.27693 0.0
C23 C 0.94088 0.49839 0.29666 0.0
C24 C 0.981 0.49551 0.31876 0.0
C25 C 0.01064 0.51321 0.31481 0.0
C26 C 0.97196 0.48643 0.3427 0.0
C27 C 0.94114 0.47094 0.34884 0.0
C28 C 0.92589 0.44105 0.35052 0.0
C29 C 0.89688 0.42693 0.35721 0.0
C30 C 0.8825 0.44248 0.36186 0.0
C31 C 0.8983 0.47257 0.36016 0.0
C32 C 0.92743 0.4866 0.35444 0.0
C33 C 0.0431 0.51941 0.37909 0.0
C34 C 0.03848 0.52985 0.40133 0.0
C35 C 0.05742 0.53604 0.42148 0.0
C36 C 0.0813 0.53194 0.41974 0.0
C37 C 0.08625 0.52187 0.39754 0.0
C38 C 0.06728 0.51562 0.37734 0.0
C39 C 0.02225 0.5119 0.35797 0.0
C40 C 0.9926 0.49401 0.3618 0.0
C41 C 0.03129 0.52244 0.33429 0.0
C42 C 0.06133 0.54553 0.32995 0.0
C43 C 0.07401 0.57075 0.3447 0.0
C44 C 0.10151 0.59331 0.33993 0.0
C45 C 0.11674 0.59155 0.31987 0.0
C46 C 0.10415 0.56616 0.30521 0.0
C47 C 0.07671 0.54336 0.31023 0.0
H48 H 0.42844 0.94985 0.52241 0.0
H49 H 0.40666 0.89878 0.53069 0.0
H50 H 0.47039 0.89402 0.48611 0.0
H51 H 0.49286 0.94521 0.47911 0.0
H52 H 0.48268 0.99591 0.53207 0.0
H53 H 0.42124 0.95026 0.45854 0.0
H54 H 0.4033 0.91331 0.42585 0.0
H55 H 0.49107 0.94586 0.40241 0.0
H56 H 0.50846 0.98353 0.43443 0.0
H57 H 0.55701 0.08209 0.49525 0.0
H58 H 0.58221 0.13191 0.48237 0.0
H59 H 0.50407 0.11754 0.44437 0.0
H60 H 0.47892 0.06793 0.45759 0.0
H61 H 0.49271 0.02655 0.44605 0.0
H62 H 0.53248 0.0353 0.54764 0.0
H63 H 0.54948 0.0692 0.58251 0.0
H64 H 0.50639 0.1117 0.55108 0.0
H65 H 0.48744 0.07621 0.51749 0.0
C66 C 0.46207 0.95127 0.49995 0.0
C67 C 0.43783 0.9378 0.51465 0.0
C68 C 0.4252 0.90852 0.51909 0.0
C69 C 0.43661 0.89218 0.5089 0.0
C70 C 0.46115 0.90592 0.49443 0.0
C71 C 0.47388 0.93518 0.49021 0.0
C72 C 0.47463 0.98196 0.49414 0.0
C73 C 0.48492 0.00275 0.51331 0.0
C74 C 0.4772 0.9907 0.46967 0.0
C75 C 0.46614 0.96956 0.44885 0.0
C76 C 0.4365 0.94955 0.44612 0.0
C77 C 0.42635 0.92824 0.42756 0.0
C78 C 0.44572 0.92631 0.41151 0.0
C79 C 0.47541 0.94683 0.41411 0.0
C80 C 0.48546 0.96838 0.43246 0.0
C81 C 0.5161 0.07138 0.47741 0.0
C82 C 0.54524 0.08982 0.48442 0.0
C83 C 0.55962 0.11819 0.47695 0.0
C84 C 0.54509 0.1286 0.46236 0.0
C85 C 0.51573 0.11024 0.45585 0.0
C86 C 0.50142 0.08185 0.46319 0.0
C87 C 0.50118 0.04082 0.48399 0.0
C88 C 0.49047 0.01995 0.46489 0.0
C89 C 0.4983 0.03219 0.50861 0.0
C90 C 0.50892 0.05329 0.52967 0.0
C91 C 0.52646 0.05176 0.54839 0.0
C92 C 0.53654 0.0715 0.56821 0.0
C93 C 0.52957 0.09349 0.56971 0.0
C94 C 0.51198 0.09493 0.55088 0.0
C95 C 0.50146 0.07485 0.53133 0.0
H96 H 0.52187 0.54689 0.69425 0.0
H97 H 0.50072 0.55958 0.72813 0.0
H98 H 0.41615 0.51102 0.69237 0.0
H99 H 0.43739 0.49761 0.65891 0.0
H100 H 0.50812 0.49195 0.67987 0.0
H101 H 0.49668 0.5691 0.64609 0.0
H102 H 0.46538 0.58852 0.63427 0.0
H103 H 0.4215 0.52009 0.57993 0.0
H104 H 0.45141 0.49956 0.59264 0.0
H105 H 0.49876 0.4681 0.5738 0.0
H106 H 0.52439 0.45774 0.54218 0.0
H107 H 0.60107 0.49411 0.58961 0.0
H108 H 0.57581 0.50561 0.62059 0.0
H109 H 0.50556 0.51511 0.59286 0.0
H110 H 0.50446 0.43466 0.62383 0.0
H111 H 0.51804 0.40044 0.6386 0.0
H112 H 0.57043 0.46076 0.69683 0.0
H113 H 0.55795 0.49553 0.68113 0.0
C114 C 0.48124 0.5215 0.67398 0.0
C115 C 0.49877 0.53904 0.6937 0.0
C116 C 0.48669 0.54645 0.71296 0.0
C117 C 0.45675 0.53634 0.71296 0.0
C118 C 0.43924 0.5189 0.69307 0.0
C119 C 0.45136 0.51143 0.67381 0.0
C120 C 0.49431 0.51284 0.65426 0.0
C121 C 0.50808 0.49748 0.66089 0.0
C122 C 0.4925 0.51851 0.62927 0.0
C123 C 0.47601 0.53244 0.62067 0.0
C124 C 0.48017 0.55807 0.63179 0.0
C125 C 0.46251 0.56929 0.62495 0.0
C126 C 0.44117 0.55563 0.6063 0.0
C127 C 0.43794 0.53092 0.59432 0.0
C128 C 0.45508 0.51931 0.60155 0.0
C129 C 0.53527 0.48755 0.59964 0.0
C130 C 0.52112 0.47392 0.57734 0.0
C131 C 0.53571 0.4677 0.55938 0.0
C132 C 0.5648 0.47505 0.56335 0.0
C133 C 0.57879 0.48843 0.58581 0.0
C134 C 0.56426 0.49477 0.60367 0.0
C135 C 0.52004 0.49473 0.61859 0.0
C136 C 0.50589 0.50979 0.61186 0.0
C137 C 0.5202 0.48761 0.64335 0.0
C138 C 0.53039 0.46781 0.65121 0.0
C139 C 0.51944 0.44082 0.63941 0.0
C140 C 0.5269 0.42109 0.64811 0.0
C141 C 0.54513 0.42774 0.66904 0.0
C142 C 0.55659 0.45503 0.68052 0.0
C143 C 0.54929 0.47486 0.67169 0.0
H144 H 0.06282 0.6015 0.80155 0.0
H145 H 0.09731 0.62489 0.76907 0.0
H146 H 0.06624 0.54258 0.73211 0.0
H147 H 0.0319 0.51933 0.76461 0.0
H148 H 0.98764 0.52666 0.77885 0.0
H149 H 0.06066 0.58881 0.86497 0.0
H150 H 0.11034 0.60808 0.88109 0.0
H151 H 0.12278 0.55418 0.82889 0.0
H152 H 0.07299 0.53435 0.81352 0.0
H153 H 0.96812 0.46884 0.86373 0.0
H154 H 0.93865 0.45025 0.89963 0.0
H155 H 0.92249 0.52148 0.89933 0.0
H156 H 0.95027 0.53848 0.86224 0.0
H157 H 0.01763 0.53499 0.8664 0.0
H158 H 0.93642 0.45817 0.8238 0.0
H159 H 0.88767 0.42734 0.80692 0.0
H160 H 0.89309 0.49875 0.76764 0.0
H161 H 0.94117 0.53002 0.78621 0.0
C162 C 0.0449 0.55869 0.78549 0.0
C163 C 0.06357 0.58852 0.7865 0.0
C164 C 0.08309 0.60185 0.76789 0.0
C165 C 0.08441 0.58552 0.7481 0.0
C166 C 0.06584 0.55564 0.74726 0.0
C167 C 0.04612 0.54237 0.76571 0.0
C168 C 0.02367 0.54452 0.80482 0.0
C169 C 0.99412 0.52865 0.79804 0.0
C170 C 0.03231 0.54664 0.82973 0.0
C171 C 0.06318 0.56034 0.83788 0.0
C172 C 0.0742 0.58131 0.85692 0.0
C173 C 0.10261 0.59239 0.86604 0.0
C174 C 0.12042 0.5825 0.85638 0.0
C175 C 0.10948 0.56192 0.83698 0.0
C176 C 0.08113 0.55086 0.82792 0.0
C177 C 0.96086 0.50468 0.86019 0.0
C178 C 0.95755 0.47995 0.87112 0.0
C179 C 0.94107 0.46967 0.89192 0.0
C180 C 0.92841 0.48453 0.90279 0.0
C181 C 0.93145 0.50914 0.89141 0.0
C182 C 0.9474 0.51899 0.87021 0.0
C183 C 0.98162 0.51766 0.84047 0.0
C184 C 0.0111 0.53351 0.84726 0.0
C185 C 0.9729 0.51486 0.81552 0.0
C186 C 0.94229 0.49665 0.80684 0.0
C187 C 0.92677 0.46749 0.8123 0.0
C188 C 0.89905 0.44966 0.80208 0.0
C189 C 0.88642 0.4604 0.78564 0.0
C190 C 0.9019 0.48973 0.78042 0.0
C191 C 0.9295 0.50765 0.79093 0.0
H192 H 0.579 0.06578 0.03907 0.0
H193 H 0.60521 0.11555 0.05414 0.0
H194 H 0.5525 0.13515 0.00622 0.0
H195 H 0.52573 0.08484 0.99156 0.0
H196 H 0.52147 0.0278 0.0429 0.0
H197 H 0.58825 0.0738 0.97581 0.0
H198 H 0.60799 0.105 0.94094 0.0
H199 H 0.52273 0.06375 0.90592 0.0
H200 H 0.50307 0.03342 0.94111 0.0
H201 H 0.47071 0.94799 0.95602 0.0
H202 H 0.461 0.90037 0.94244 0.0
H203 H 0.51185 0.89891 0.00431 0.0
H204 H 0.52267 0.94692 0.01702 0.0
H205 H 0.51852 0.99484 0.95707 0.0
H206 H 0.44987 0.95015 0.01752 0.0
H207 H 0.42268 0.91889 0.05067 0.0
H208 H 0.50085 0.95608 0.09619 0.0
H209 H 0.52799 0.98722 0.06295 0.0
C210 C 0.55056 0.07164 0.01407 0.0
C211 C 0.57309 0.08079 0.03177 0.0
C212 C 0.58816 0.10929 0.04027 0.0
C213 C 0.58099 0.12933 0.03133 0.0
C214 C 0.55836 0.12015 0.0136 0.0
C215 C 0.54326 0.09152 0.00503 0.0
C216 C 0.53425 0.04094 0.00613 0.0
C217 C 0.52104 0.02056 0.02414 0.0
C218 C 0.53205 0.03149 0.98146 0.0
C219 C 0.54414 0.05154 0.96115 0.0
C220 C 0.57378 0.07185 0.96079 0.0
C221 C 0.58507 0.0894 0.94072 0.0
C222 C 0.56692 0.0868 0.92063 0.0
C223 C 0.53723 0.06656 0.92121 0.0
C224 C 0.52598 0.04909 0.94124 0.0
C225 C 0.4973 0.95111 0.98764 0.0
C226 C 0.47955 0.9373 0.96677 0.0
C227 C 0.47384 0.90995 0.95912 0.0
C228 C 0.48583 0.89588 0.97218 0.0
C229 C 0.50264 0.9093 0.99359 0.0
C230 C 0.50847 0.93665 0.00113 0.0
C231 C 0.5067 0.98158 0.99403 0.0
C232 C 0.51857 0.00194 0.97578 0.0
C233 C 0.50681 0.99108 0.01833 0.0
C234 C 0.49094 0.97087 0.03777 0.0
C235 C 0.46119 0.95134 0.03455 0.0
C236 C 0.44565 0.93374 0.05354 0.0
C237 C 0.45968 0.93526 0.07599 0.0
C238 C 0.48957 0.95443 0.07902 0.0
C239 C 0.50504 0.97225 0.06011 0.0
H240 H 0.4724 0.46304 0.18981 0.0
H241 H 0.48867 0.44958 0.22679 0.0
H242 H 0.57702 0.51425 0.21337 0.0
H243 H 0.56043 0.52836 0.17712 0.0
H244 H 0.48033 0.51773 0.18314 0.0
H245 H 0.51405 0.4568 0.14228 0.0
H246 H 0.55436 0.44741 0.13795 0.0
H247 H 0.6079 0.5332 0.1124 0.0
H248 H 0.56796 0.5426 0.11713 0.0
H249 H 0.52338 0.57132 0.09022 0.0
H250 H 0.50917 0.59177 0.0568 0.0
H251 H 0.41951 0.54026 0.07566 0.0
H252 H 0.4338 0.51964 0.10896 0.0
H253 H 0.51365 0.52034 0.09868 0.0
H254 H 0.50413 0.58831 0.14069 0.0
H255 H 0.4923 0.62139 0.16155 0.0
H256 H 0.41898 0.55007 0.19369 0.0
H257 H 0.43079 0.51671 0.17249 0.0
C258 C 0.51524 0.49638 0.18051 0.0
C259 C 0.4953 0.47413 0.19478 0.0
C260 C 0.50465 0.46639 0.21584 0.0
C261 C 0.53414 0.4809 0.22309 0.0
C262 C 0.55411 0.50291 0.20851 0.0
C263 C 0.54472 0.51072 0.18756 0.0
C264 C 0.50491 0.50624 0.15951 0.0
C265 C 0.48664 0.51733 0.16444 0.0
C266 C 0.51541 0.50799 0.13564 0.0
C267 C 0.53806 0.50048 0.13021 0.0
C268 C 0.5344 0.47345 0.13553 0.0
C269 C 0.55738 0.46809 0.13298 0.0
C270 C 0.58438 0.48971 0.12515 0.0
C271 C 0.58752 0.51629 0.11888 0.0
C272 C 0.56459 0.52157 0.12131 0.0
C273 C 0.47967 0.54393 0.10212 0.0
C274 C 0.50065 0.56436 0.08713 0.0
C275 C 0.49253 0.57621 0.06817 0.0
C276 C 0.46322 0.56764 0.06364 0.0
C277 C 0.44223 0.54712 0.07861 0.0
C278 C 0.45039 0.53548 0.09773 0.0
C279 C 0.4883 0.53125 0.1222 0.0
C280 C 0.50618 0.51963 0.11711 0.0
C281 C 0.47942 0.5311 0.14645 0.0
C282 C 0.46818 0.54997 0.15481 0.0
C283 C 0.48491 0.57961 0.15152 0.0
C284 C 0.4784 0.59855 0.16374 0.0
C285 C 0.45501 0.58825 0.1795 0.0
C286 C 0.43713 0.5585 0.18164 0.0
C287 C 0.44382 0.53949 0.16952 0.0
Mg288 Mg 0.61431 0.36965 0.37402 0.0
O289 O 0.61702 0.3957 0.40922 0.0
O290 O 0.6469 0.44176 0.40071 0.0
Mg291 Mg 0.66032 0.4458 0.36103 0.0
C292 C 0.63088 0.42242 0.41544 0.0
C293 C 0.60879 0.31314 0.38581 0.0
O294 O 0.6249 0.32219 0.36649 0.0
O295 O 0.66054 0.37944 0.38072 0.0
O296 O 0.68789 0.42517 0.37056 0.0
O297 O 0.57551 0.3714 0.35963 0.0
O298 O 0.62102 0.40408 0.35354 0.0
C299 C 0.68516 0.40151 0.37765 0.0
C300 C 0.59395 0.39583 0.35083 0.0
O301 O 0.59827 0.32799 0.39442 0.0
Mg302 Mg 0.26739 0.65449 0.59117 0.0
O303 O 0.23123 0.62233 0.56411 0.0
O304 O 0.20847 0.58177 0.58476 0.0
Mg305 Mg 0.22674 0.58807 0.62402 0.0
C306 C 0.21171 0.59588 0.56538 0.0
C307 C 0.32032 0.6966 0.5638 0.0
O308 O 0.33072 0.68728 0.58104 0.0
O309 O 0.29187 0.63034 0.58584 0.0
O310 O 0.26956 0.59294 0.61008 0.0
O311 O 0.23842 0.66985 0.60554 0.0
O312 O 0.24181 0.63387 0.62054 0.0
C313 C 0.29005 0.60837 0.59591 0.0
C314 C 0.22956 0.64929 0.62084 0.0
O315 O 0.29303 0.68602 0.56161 0.0
Mg316 Mg 0.63193 0.26378 0.76191 0.0
O317 O 0.61793 0.23541 0.72716 0.0
O318 O 0.64504 0.21483 0.72332 0.0
Mg319 Mg 0.67476 0.2281 0.75792 0.0
C320 C 0.62492 0.21918 0.71546 0.0
C321 C 0.61905 0.3126 0.74639 0.0
O322 O 0.64551 0.32929 0.75529 0.0
O323 O 0.67409 0.29676 0.74546 0.0
O324 O 0.70089 0.27555 0.74735 0.0
O325 O 0.59962 0.22735 0.78313 0.0
O326 O 0.64479 0.2373 0.77862 0.0
C327 C 0.69818 0.29739 0.74315 0.0
C328 C 0.61965 0.22088 0.7873 0.0
O329 O 0.6079 0.28554 0.74704 0.0
Mg330 Mg 0.3821 0.64989 0.87088 0.0
O331 O 0.39339 0.63366 0.90547 0.0
O332 O 0.36677 0.58592 0.90511 0.0
Mg333 Mg 0.33981 0.57142 0.86913 0.0
C334 C 0.38568 0.60971 0.91532 0.0
C335 C 0.42954 0.70679 0.89691 0.0
O336 O 0.44402 0.69306 0.89481 0.0
O337 O 0.33841 0.63969 0.88561 0.0
O338 O 0.31289 0.59195 0.88096 0.0
O339 O 0.41636 0.64677 0.85005 0.0
O340 O 0.37113 0.61164 0.85195 0.0
C341 C 0.31463 0.61594 0.88655 0.0
C342 C 0.39679 0.6206 0.84418 0.0
O343 O 0.40359 0.69488 0.88851 0.0
Mg344 Mg 0.74964 0.39715 0.06291 0.0
O345 O 0.77804 0.40826 0.09817 0.0
O346 O 0.80406 0.38622 0.09548 0.0
Mg347 Mg 0.79522 0.36425 0.05738 0.0
C348 C 0.79647 0.40206 0.10716 0.0
C349 C 0.73192 0.43629 0.09153 0.0
O350 O 0.76028 0.45235 0.09274 0.0
O351 O 0.72049 0.35093 0.07393 0.0
O352 O 0.74814 0.33151 0.06619 0.0
O353 O 0.7837 0.43594 0.04472 0.0
O354 O 0.78111 0.39366 0.04378 0.0
C355 C 0.72398 0.32916 0.0721 0.0
C356 C 0.79452 0.42016 0.03798 0.0
O357 O 0.72058 0.41174 0.0808 0.0
Mg358 Mg 0.35745 0.74729 0.22559 0.0
O359 O 0.37817 0.77715 0.25944 0.0
O360 O 0.42404 0.80952 0.25222 0.0
Mg361 Mg 0.43348 0.79857 0.21411 0.0
C362 C 0.40236 0.79896 0.26609 0.0
C363 C 0.30611 0.73133 0.25799 0.0
O364 O 0.31745 0.75909 0.25552 0.0
O365 O 0.38047 0.72255 0.23491 0.0
O366 O 0.42622 0.75491 0.22664 0.0
O367 O 0.34625 0.77824 0.20924 0.0
O368 O 0.38727 0.77857 0.20319 0.0
C369 C 0.40719 0.73004 0.23342 0.0
C370 C 0.37148 0.79013 0.19961 0.0
O371 O 0.3182 0.71872 0.24789 0.0
H372 H 0.16494 0.59174 0.30198 0.0
H373 H 0.13221 0.6483 0.323 0.0
H374 H 0.17844 0.69007 0.31227 0.0
H375 H 0.23991 0.63889 0.32221 0.0
H376 H 0.25442 0.6294 0.29646 0.0
H377 H 0.21951 0.60378 0.3076 0.0
H378 H 0.19628 0.59841 0.26435 0.0
H379 H 0.2311 0.62391 0.25307 0.0
H380 H 0.20088 0.6299 0.24936 0.0
H381 H 0.22702 0.72554 0.29794 0.0
H382 H 0.27449 0.75259 0.27911 0.0
H383 H 0.27539 0.67325 0.26555 0.0
C384 C 0.16745 0.61289 0.30434 0.0
C385 C 0.14496 0.61666 0.31367 0.0
C386 C 0.14929 0.64479 0.31652 0.0
C387 C 0.17544 0.66871 0.31033 0.0
C388 C 0.19707 0.6642 0.30119 0.0
C389 C 0.19338 0.63704 0.29807 0.0
C390 C 0.21963 0.63816 0.28672 0.0
C391 C 0.23423 0.62689 0.3043 0.0
C392 C 0.21147 0.62162 0.2619 0.0
C393 C 0.23841 0.67017 0.28361 0.0
C394 C 0.22506 0.68476 0.29234 0.0
C395 C 0.23778 0.7144 0.29111 0.0
C396 C 0.26477 0.72956 0.28036 0.0
C397 C 0.27866 0.71505 0.27082 0.0
C398 C 0.26537 0.68497 0.27274 0.0
H399 H 0.5273 0.16851 0.4598 0.0
H400 H 0.59827 0.1543 0.44211 0.0
H401 H 0.62329 0.20126 0.42273 0.0
H402 H 0.52593 0.20095 0.40479 0.0
H403 H 0.51809 0.22686 0.41867 0.0
H404 H 0.50662 0.19313 0.43291 0.0
H405 H 0.53406 0.21998 0.47314 0.0
H406 H 0.54553 0.25384 0.45905 0.0
H407 H 0.57205 0.24633 0.47251 0.0
H408 H 0.63835 0.24699 0.40202 0.0
H409 H 0.64435 0.29078 0.38325 0.0
H410 H 0.56457 0.27686 0.41518 0.0
C411 C 0.54823 0.17545 0.45204 0.0
C412 C 0.56093 0.15783 0.45255 0.0
C413 C 0.58837 0.16763 0.44226 0.0
C414 C 0.60267 0.1942 0.4311 0.0
C415 C 0.58938 0.21083 0.43059 0.0
C416 C 0.56295 0.20206 0.441 0.0
C417 C 0.55313 0.2238 0.4373 0.0
C418 C 0.52423 0.21038 0.42254 0.0
C419 C 0.55108 0.23676 0.46197 0.0
C420 C 0.57787 0.24581 0.42267 0.0
C421 C 0.5985 0.23782 0.41905 0.0
C422 C 0.62257 0.2537 0.40499 0.0
C423 C 0.62568 0.27844 0.39429 0.0
C424 C 0.60497 0.28723 0.39786 0.0
C425 C 0.5809 0.27082 0.41244 0.0
H426 H 0.39907 0.55401 0.63452 0.0
H427 H 0.43805 0.58 0.56397 0.0
H428 H 0.4033 0.59637 0.5532 0.0
H429 H 0.3257 0.52591 0.61236 0.0
H430 H 0.31468 0.53749 0.6392 0.0
H431 H 0.34342 0.52919 0.64162 0.0
H432 H 0.37775 0.57974 0.66099 0.0
H433 H 0.34908 0.58814 0.65876 0.0
H434 H 0.3833 0.61102 0.64505 0.0
H435 H 0.36513 0.61116 0.551 0.0
H436 H 0.32471 0.62074 0.55641 0.0
H437 H 0.30856 0.58146 0.62723 0.0
C438 C 0.40033 0.5634 0.61692 0.0
C439 C 0.42125 0.56622 0.60011 0.0
C440 C 0.42217 0.578 0.57704 0.0
C441 C 0.40257 0.58728 0.57083 0.0
C442 C 0.38202 0.58411 0.58778 0.0
C443 C 0.38062 0.57223 0.61027 0.0
C444 C 0.35588 0.57025 0.62485 0.0
C445 C 0.3336 0.53884 0.62979 0.0
C446 C 0.36718 0.58837 0.64882 0.0
C447 C 0.34365 0.58306 0.60715 0.0
C448 C 0.35917 0.59118 0.58597 0.0
C449 C 0.35263 0.60462 0.5674 0.0
C450 C 0.32968 0.60998 0.57063 0.0
C451 C 0.31331 0.6015 0.59208 0.0
C452 C 0.32034 0.58769 0.61043 0.0
H453 H 0.86417 0.40423 0.76995 0.0
H454 H 0.84282 0.47214 0.77469 0.0
H455 H 0.79421 0.43902 0.75673 0.0
H456 H 0.82073 0.36723 0.71365 0.0
H457 H 0.80979 0.33227 0.72526 0.0
H458 H 0.84448 0.36249 0.73451 0.0
H459 H 0.83137 0.35296 0.78013 0.0
H460 H 0.79692 0.32262 0.77101 0.0
H461 H 0.79844 0.35088 0.79034 0.0
H462 H 0.74625 0.39722 0.74265 0.0
H463 H 0.70218 0.34985 0.73732 0.0
H464 H 0.75443 0.3089 0.74335 0.0
C465 C 0.84941 0.4123 0.76712 0.0
C466 C 0.85752 0.44094 0.77372 0.0
C467 C 0.83745 0.45051 0.76942 0.0
C468 C 0.80973 0.43182 0.75921 0.0
C469 C 0.80237 0.40363 0.75329 0.0
C470 C 0.82164 0.39391 0.75718 0.0
C471 C 0.80751 0.36195 0.75183 0.0
C472 C 0.82146 0.35563 0.73001 0.0
C473 C 0.80861 0.34619 0.77469 0.0
C474 C 0.77691 0.35495 0.74531 0.0
C475 C 0.77453 0.37937 0.74567 0.0
C476 C 0.74792 0.378 0.74202 0.0
C477 C 0.72296 0.35092 0.73898 0.0
C478 C 0.72471 0.32552 0.73998 0.0
C479 C 0.75226 0.3278 0.74221 0.0
H480 H 0.4371 0.84963 0.95084 0.0
H481 H 0.52696 0.87961 0.9717 0.0
H482 H 0.52199 0.83431 0.95545 0.0
H483 H 0.40932 0.77517 0.96453 0.0
H484 H 0.38418 0.76179 0.93861 0.0
H485 H 0.39445 0.79626 0.95262 0.0
H486 H 0.41092 0.81999 0.91073 0.0
H487 H 0.40073 0.7856 0.8966 0.0
H488 H 0.4371 0.81516 0.89402 0.0
H489 H 0.50776 0.78628 0.9363 0.0
H490 H 0.48503 0.73853 0.91557 0.0
H491 H 0.40475 0.74006 0.90622 0.0
C492 C 0.45576 0.84672 0.95195 0.0
C493 C 0.48235 0.86816 0.96278 0.0
C494 C 0.50617 0.86333 0.96398 0.0
C495 C 0.50365 0.83774 0.95462 0.0
C496 C 0.47719 0.81714 0.94405 0.0
C497 C 0.45365 0.82129 0.94265 0.0
C498 C 0.42777 0.79581 0.93005 0.0
C499 C 0.40244 0.78141 0.9475 0.0
C500 C 0.4186 0.80468 0.90645 0.0
C501 C 0.44054 0.77679 0.92448 0.0
C502 C 0.46904 0.78948 0.93277 0.0
C503 C 0.48543 0.7761 0.92973 0.0
C504 C 0.47232 0.74897 0.91791 0.0
C505 C 0.44313 0.73553 0.90922 0.0
C506 C 0.42712 0.74975 0.9126 0.0
H507 H 0.58646 0.44301 0.10618 0.0
H508 H 0.63944 0.52645 0.14231 0.0
H509 H 0.68232 0.52055 0.13964 0.0
H510 H 0.62323 0.40798 0.13445 0.0
H511 H 0.62025 0.38753 0.10696 0.0
H512 H 0.59326 0.39748 0.11301 0.0
H513 H 0.60236 0.42177 0.07112 0.0
H514 H 0.62936 0.41193 0.06496 0.0
H515 H 0.63857 0.44898 0.06396 0.0
H516 H 0.71979 0.50687 0.13138 0.0
H517 H 0.7497 0.48649 0.11756 0.0
H518 H 0.67265 0.4117 0.08687 0.0
C519 C 0.60702 0.45982 0.11384 0.0
C520 C 0.60967 0.48524 0.12438 0.0
C521 C 0.63701 0.50695 0.13389 0.0
C522 C 0.66144 0.50372 0.13262 0.0
C523 C 0.6582 0.4786 0.12184 0.0
C524 C 0.63171 0.45698 0.11264 0.0
C525 C 0.6345 0.43271 0.10102 0.0
C526 C 0.61676 0.40477 0.11468 0.0
C527 C 0.62568 0.42863 0.07364 0.0
C528 C 0.66675 0.44429 0.10481 0.0
C529 C 0.67993 0.47069 0.11702 0.0
C530 C 0.7097 0.48611 0.12195 0.0
C531 C 0.72652 0.47436 0.11399 0.0
C532 C 0.71356 0.44748 0.10117 0.0
C533 C 0.6832 0.43218 0.09679 0.0
H534 H 0.37866 0.85193 0.5117 0.0
H535 H 0.46465 0.86205 0.51757 0.0
H536 H 0.44311 0.81093 0.52669 0.0
H537 H 0.35085 0.80754 0.56189 0.0
H538 H 0.31498 0.7855 0.54849 0.0
H539 H 0.33688 0.82197 0.53939 0.0
H540 H 0.33092 0.80433 0.49408 0.0
H541 H 0.30914 0.76771 0.5031 0.0
H542 H 0.34099 0.77804 0.48556 0.0
H543 H 0.41317 0.76047 0.53907 0.0
H544 H 0.37681 0.71436 0.55555 0.0
H545 H 0.30995 0.73645 0.54224 0.0
C546 C 0.39298 0.8434 0.51478 0.0
C547 C 0.4234 0.86107 0.51369 0.0
C548 C 0.44129 0.84892 0.51777 0.0
C549 C 0.42926 0.81987 0.52302 0.0
C550 C 0.39927 0.80315 0.52409 0.0
C551 C 0.38133 0.81443 0.52012 0.0
C552 C 0.34996 0.7923 0.52419 0.0
C553 C 0.33744 0.80243 0.54471 0.0
C554 C 0.33168 0.78518 0.5003 0.0
C555 C 0.35322 0.76712 0.53185 0.0
C556 C 0.38182 0.77377 0.53131 0.0
C557 C 0.39065 0.75484 0.53924 0.0
C558 C 0.36984 0.72872 0.5486 0.0
C559 C 0.34056 0.72177 0.54998 0.0
C560 C 0.33205 0.74093 0.54089 0.0
H561 H 0.59642 0.43565 0.68927 0.0
H562 H 0.50703 0.37028 0.6729 0.0
H563 H 0.51634 0.33387 0.69077 0.0
H564 H 0.62828 0.3918 0.67699 0.0
H565 H 0.65477 0.40746 0.70186 0.0
H566 H 0.64129 0.42837 0.68725 0.0
H567 H 0.62581 0.43847 0.72924 0.0
H568 H 0.6392 0.41756 0.74398 0.0
H569 H 0.60218 0.40882 0.74766 0.0
H570 H 0.5351 0.30458 0.71044 0.0
H571 H 0.56221 0.28427 0.73074 0.0
H572 H 0.63895 0.36893 0.73567 0.0
C573 C 0.57874 0.41372 0.68955 0.0
C574 C 0.55104 0.40583 0.67949 0.0
C575 C 0.52859 0.3768 0.68003 0.0
C576 C 0.53359 0.35597 0.69032 0.0
C577 C 0.56109 0.36451 0.70011 0.0
C578 C 0.5833 0.39267 0.69986 0.0
C579 C 0.6108 0.39618 0.7118 0.0
C580 C 0.63522 0.40656 0.69337 0.0
C581 C 0.62003 0.41645 0.73452 0.0
C582 C 0.60054 0.36557 0.71879 0.0
C583 C 0.57182 0.34766 0.71184 0.0
C584 C 0.55759 0.31838 0.71603 0.0
C585 C 0.57319 0.30706 0.72758 0.0
C586 C 0.60267 0.32501 0.73487 0.0
C587 C 0.61639 0.35467 0.73047 0.0
H588 H 0.14648 0.55087 0.86589 0.0
H589 H 0.16149 0.63783 0.86999 0.0
H590 H 0.2119 0.65531 0.8847 0.0
H591 H 0.1937 0.55743 0.91909 0.0
H592 H 0.20589 0.53545 0.90406 0.0
H593 H 0.17001 0.52945 0.89736 0.0
H594 H 0.1809 0.53552 0.85114 0.0
H595 H 0.21661 0.54131 0.85768 0.0
H596 H 0.21217 0.56769 0.84132 0.0
H597 H 0.2622 0.6638 0.89406 0.0
H598 H 0.30799 0.66279 0.89568 0.0
H599 H 0.25948 0.57008 0.88541 0.0
C600 C 0.16027 0.57358 0.87009 0.0
C601 C 0.15008 0.593 0.86677 0.0
C602 C 0.16875 0.62252 0.87267 0.0
C603 C 0.1974 0.63263 0.88104 0.0
C604 C 0.2069 0.6129 0.88367 0.0
C605 C 0.18879 0.58396 0.87845 0.0
C606 C 0.20476 0.56746 0.88071 0.0
C607 C 0.19288 0.54619 0.90155 0.0
C608 C 0.20354 0.55212 0.85626 0.0
C609 C 0.235 0.59177 0.88703 0.0
C610 C 0.23577 0.61777 0.88909 0.0
C611 C 0.26178 0.6435 0.89288 0.0
C612 C 0.28771 0.6427 0.8938 0.0
C613 C 0.28742 0.61635 0.89072 0.0
C614 C 0.26055 0.59057 0.88812 0.0
H615 H 0.63956 0.16266 0.03926 0.0
H616 H 0.55941 0.1646 0.04391 0.0
H617 H 0.58702 0.21507 0.05931 0.0
H618 H 0.67562 0.20758 0.09404 0.0
H619 H 0.71056 0.22507 0.08029 0.0
H620 H 0.68423 0.18867 0.07117 0.0
H621 H 0.6878 0.20318 0.02586 0.0
H622 H 0.71428 0.23948 0.03482 0.0
H623 H 0.68189 0.23223 0.01784 0.0
H624 H 0.62403 0.2662 0.07241 0.0
H625 H 0.66715 0.31428 0.07887 0.0
H626 H 0.72254 0.27783 0.06624 0.0
C627 C 0.62772 0.17351 0.04391 0.0
C628 C 0.59731 0.15964 0.04052 0.0
C629 C 0.58274 0.17487 0.04621 0.0
C630 C 0.5982 0.20343 0.05519 0.0
C631 C 0.62819 0.21639 0.05844 0.0
C632 C 0.64277 0.2019 0.05285 0.0
C633 C 0.67516 0.22106 0.0565 0.0
C634 C 0.68709 0.20993 0.07671 0.0
C635 C 0.69068 0.22417 0.03232 0.0
C636 C 0.67666 0.24882 0.06454 0.0
C637 C 0.64937 0.24567 0.06587 0.0
C638 C 0.64549 0.26884 0.07165 0.0
C639 C 0.67016 0.29609 0.07538 0.0
C640 C 0.69834 0.29995 0.07312 0.0
C641 C 0.70141 0.27571 0.06834 0.0
H642 H 0.40502 0.59032 0.18554 0.0
H643 H 0.49594 0.63271 0.20766 0.0
H644 H 0.49083 0.66967 0.23072 0.0
H645 H 0.40294 0.65168 0.1737 0.0
H646 H 0.36717 0.63972 0.18477 0.0
H647 H 0.37663 0.61392 0.17373 0.0
H648 H 0.36231 0.58828 0.21503 0.0
H649 H 0.35294 0.61422 0.22626 0.0
H650 H 0.37879 0.60841 0.24318 0.0
H651 H 0.47828 0.70548 0.24571 0.0
H652 H 0.45932 0.73871 0.25051 0.0
H653 H 0.37603 0.67326 0.21995 0.0
C654 C 0.42357 0.60698 0.19583 0.0
C655 C 0.45086 0.60876 0.19488 0.0
C656 C 0.4749 0.63116 0.20806 0.0
C657 C 0.47213 0.65205 0.2214 0.0
C658 C 0.44512 0.65015 0.22155 0.0
C659 C 0.4212 0.62816 0.20919 0.0
C660 C 0.39554 0.63299 0.21001 0.0
C661 C 0.38498 0.6347 0.18401 0.0
C662 C 0.37094 0.60958 0.22449 0.0
C663 C 0.40922 0.66177 0.22371 0.0
C664 C 0.43769 0.67098 0.23061 0.0
C665 C 0.45582 0.69825 0.24099 0.0
C666 C 0.44491 0.71699 0.24363 0.0
C667 C 0.41613 0.70833 0.23599 0.0
C668 C 0.39781 0.68005 0.2267 0.0
H669 H 0.85387 0.4636 0.38945 0.0
H670 H 0.83912 0.38791 0.34718 0.0
H671 H 0.78694 0.36585 0.3537 0.0
H672 H 0.79278 0.42952 0.43097 0.0
H673 H 0.78502 0.45837 0.42847 0.0
H674 H 0.82167 0.46545 0.42592 0.0
H675 H 0.82492 0.48796 0.38376 0.0
H676 H 0.78844 0.48103 0.38621 0.0
H677 H 0.79822 0.4673 0.35996 0.0
H678 H 0.73575 0.3538 0.36115 0.0
H679 H 0.69036 0.35543 0.36408 0.0
H680 H 0.73875 0.44193 0.39537 0.0
C681 C 0.83995 0.44236 0.38149 0.0
C682 C 0.85113 0.42768 0.36779 0.0
C683 C 0.83162 0.39959 0.35829 0.0
C684 C 0.80174 0.38681 0.36181 0.0
C685 C 0.79155 0.40245 0.37458 0.0
C686 C 0.8101 0.42977 0.38401 0.0
C687 C 0.79366 0.44393 0.39357 0.0
C688 C 0.79858 0.44964 0.42139 0.0
C689 C 0.80179 0.47168 0.38006 0.0
C690 C 0.76294 0.42068 0.38723 0.0
C691 C 0.76209 0.39651 0.37713 0.0
C692 C 0.73614 0.37253 0.36918 0.0
C693 C 0.7105 0.37362 0.37096 0.0
C694 C 0.71125 0.39885 0.37989 0.0
C695 C 0.7377 0.42241 0.38852 0.0
H696 H 0.1309 0.58054 0.43576 0.0
H697 H 0.07182 0.49223 0.4532 0.0
H698 H 0.10029 0.4985 0.49145 0.0
H699 H 0.19705 0.58339 0.46036 0.0
H700 H 0.21246 0.61977 0.47214 0.0
H701 H 0.18845 0.60793 0.44548 0.0
H702 H 0.15549 0.62371 0.46689 0.0
H703 H 0.17934 0.63554 0.4936 0.0
H704 H 0.14142 0.60985 0.49638 0.0
H705 H 0.13346 0.51467 0.52812 0.0
H706 H 0.16918 0.53956 0.56176 0.0
H707 H 0.20752 0.61816 0.52118 0.0
C708 C 0.12433 0.56256 0.4476 0.0
C709 C 0.09946 0.53583 0.44172 0.0
C710 C 0.09102 0.51273 0.45753 0.0
C711 C 0.10702 0.51612 0.47919 0.0
C712 C 0.13141 0.54276 0.48465 0.0
C713 C 0.14014 0.5656 0.46935 0.0
C714 C 0.16668 0.59216 0.48005 0.0
C715 C 0.1927 0.60135 0.46352 0.0
C716 C 0.16034 0.61676 0.4845 0.0
C717 C 0.17111 0.58082 0.50397 0.0
C718 C 0.15063 0.55221 0.50608 0.0
C719 C 0.14973 0.53703 0.52665 0.0
C720 C 0.17018 0.55146 0.54571 0.0
C721 C 0.19131 0.58092 0.54423 0.0
C722 C 0.19181 0.59565 0.5229 0.0
H723 H 0.58163 0.11603 0.59605 0.0
H724 H 0.50129 0.11831 0.59216 0.0
H725 H 0.51854 0.15293 0.62707 0.0
H726 H 0.58608 0.11662 0.6615 0.0
H727 H 0.62501 0.13835 0.66336 0.0
H728 H 0.60739 0.11541 0.63677 0.0
H729 H 0.63314 0.15912 0.60901 0.0
H730 H 0.65074 0.18223 0.63554 0.0
H731 H 0.62931 0.19015 0.61465 0.0
H732 H 0.5439 0.18667 0.66277 0.0
H733 H 0.5742 0.21479 0.69858 0.0
H734 H 0.63672 0.1882 0.68132 0.0
C735 C 0.56749 0.12358 0.60254 0.0
C736 C 0.54013 0.11449 0.59095 0.0
C737 C 0.52262 0.12535 0.60011 0.0
C738 C 0.53215 0.14494 0.62011 0.0
C739 C 0.55913 0.15334 0.63102 0.0
C740 C 0.57646 0.14285 0.62272 0.0
C741 C 0.60393 0.15429 0.63851 0.0
C742 C 0.60569 0.1297 0.65076 0.0
C743 C 0.63087 0.17253 0.62353 0.0
C744 C 0.59917 0.17267 0.65711 0.0
C745 C 0.57336 0.17207 0.65223 0.0
C746 C 0.56416 0.18729 0.6668 0.0
C747 C 0.58161 0.20328 0.6871 0.0
C748 C 0.60788 0.20372 0.69288 0.0
C749 C 0.61678 0.1883 0.67748 0.0
H750 H 0.47827 0.58796 0.7384 0.0
H751 H 0.406 0.50054 0.73512 0.0
H752 H 0.3844 0.51198 0.77 0.0
H753 H 0.48339 0.59674 0.80493 0.0
H754 H 0.49225 0.63371 0.8045 0.0
H755 H 0.50253 0.61854 0.77963 0.0
H756 H 0.47541 0.63344 0.74869 0.0
H757 H 0.46518 0.64876 0.77342 0.0
H758 H 0.43774 0.62192 0.75292 0.0
H759 H 0.36973 0.53319 0.80396 0.0
H760 H 0.36216 0.56305 0.83415 0.0
H761 H 0.44479 0.63644 0.81669 0.0
C762 C 0.45808 0.57111 0.7452 0.0
C763 C 0.4438 0.54334 0.73396 0.0
C764 C 0.41714 0.52207 0.74317 0.0
C765 C 0.40484 0.52828 0.76313 0.0
C766 C 0.41951 0.55582 0.77377 0.0
C767 C 0.44553 0.57691 0.76516 0.0
C768 C 0.45636 0.60503 0.77944 0.0
C769 C 0.48535 0.61402 0.79292 0.0
C770 C 0.4588 0.62867 0.76261 0.0
C771 C 0.43216 0.59651 0.79724 0.0
C772 C 0.41122 0.56799 0.7937 0.0
C773 C 0.38612 0.55547 0.8071 0.0
C774 C 0.38205 0.57265 0.82429 0.0
C775 C 0.40301 0.60205 0.82806 0.0
C776 C 0.4286 0.61394 0.81456 0.0
H777 H 0.88118 0.48811 0.91828 0.0
H778 H 0.941 0.45957 0.94105 0.0
H779 H 0.91477 0.44221 0.97914 0.0
H780 H 0.87584 0.51394 0.97947 0.0
H781 H 0.83815 0.50304 0.97469 0.0
H782 H 0.86179 0.51347 0.94911 0.0
H783 H 0.82742 0.46475 0.9268 0.0
H784 H 0.80369 0.45419 0.95225 0.0
H785 H 0.818 0.43189 0.94192 0.0
H786 H 0.87963 0.42429 0.01321 0.0
H787 H 0.8395 0.40971 0.04181 0.0
H788 H 0.80615 0.45459 0.99923 0.0
C789 C 0.88921 0.47871 0.93138 0.0
C790 C 0.91306 0.47495 0.92627 0.0
C791 C 0.92234 0.46205 0.94399 0.0
C792 C 0.9078 0.45239 0.96591 0.0
C793 C 0.88434 0.45631 0.9702 0.0
C794 C 0.87534 0.46949 0.95359 0.0
C795 C 0.84938 0.47092 0.96258 0.0
C796 C 0.85674 0.50221 0.96671 0.0
C797 C 0.82307 0.45445 0.94483 0.0
C798 C 0.84483 0.45591 0.98659 0.0
C799 C 0.86516 0.44753 0.9906 0.0
C800 C 0.86392 0.43121 0.01053 0.0
C801 C 0.84108 0.42297 0.02661 0.0
C802 C 0.8202 0.43149 0.02284 0.0
C803 C 0.82241 0.44855 0.00284 0.0
H804 H 0.47405 0.90269 0.10423 0.0
H805 H 0.40791 0.92614 0.09298 0.0
H806 H 0.37967 0.89431 0.1261 0.0
H807 H 0.42632 0.82968 0.11381 0.0
H808 H 0.44912 0.82633 0.1367 0.0
H809 H 0.46508 0.85281 0.1137 0.0
H810 H 0.49054 0.89264 0.14762 0.0
H811 H 0.47454 0.86623 0.17076 0.0
H812 H 0.46922 0.89677 0.17085 0.0
H813 H 0.35775 0.8582 0.1591 0.0
H814 H 0.34258 0.81866 0.18785 0.0
H815 H 0.42294 0.81862 0.17654 0.0
C816 C 0.45386 0.90148 0.10905 0.0
C817 C 0.44315 0.9169 0.09622 0.0
C818 C 0.41635 0.91433 0.10259 0.0
C819 C 0.40031 0.89651 0.12145 0.0
C820 C 0.41142 0.88145 0.13367 0.0
C821 C 0.43754 0.88368 0.12766 0.0
C822 C 0.44377 0.86382 0.14243 0.0
C823 C 0.4462 0.84186 0.12566 0.0
C824 C 0.47114 0.88089 0.15889 0.0
C825 C 0.41684 0.84967 0.15738 0.0
C826 C 0.39861 0.86037 0.15235 0.0
C827 C 0.37195 0.8498 0.16334 0.0
C828 C 0.36353 0.82737 0.17964 0.0
C829 C 0.38164 0.81566 0.18455 0.0
C830 C 0.40876 0.82731 0.17347 0.0
H831 H 0.51598 0.42733 0.24104 0.0
H832 H 0.57481 0.51797 0.257 0.0
H833 H 0.59309 0.50594 0.29403 0.0
H834 H 0.49948 0.40664 0.30546 0.0
H835 H 0.49817 0.37287 0.30011 0.0
H836 H 0.48806 0.38863 0.27582 0.0
H837 H 0.52581 0.38651 0.24799 0.0
H838 H 0.53598 0.37072 0.27212 0.0
H839 H 0.5631 0.40314 0.25862 0.0
H840 H 0.60817 0.48422 0.32688 0.0
H841 H 0.61897 0.45398 0.3535 0.0
H842 H 0.54889 0.37753 0.31772 0.0
C843 C 0.53226 0.44468 0.25259 0.0
C844 C 0.54405 0.4736 0.24603 0.0
C845 C 0.56577 0.49563 0.26141 0.0
C846 C 0.57608 0.48905 0.28264 0.0
C847 C 0.56422 0.46034 0.28842 0.0
C848 C 0.54268 0.4385 0.27395 0.0
C849 C 0.53478 0.40936 0.28357 0.0
C850 C 0.50325 0.39344 0.29173 0.0
C851 C 0.54026 0.39139 0.26444 0.0
C852 C 0.55585 0.41823 0.3053 0.0
C853 C 0.57249 0.44776 0.30784 0.0
C854 C 0.59501 0.46109 0.32532 0.0
C855 C 0.60109 0.44378 0.34025 0.0
C856 C 0.58463 0.41355 0.33767 0.0
C857 C 0.5613 0.40063 0.3204 0.0
H858 H 0.46575 0.9285 0.36494 0.0
H859 H 0.40175 0.87038 0.41484 0.0
H860 H 0.38372 0.83162 0.38318 0.0
H861 H 0.42265 0.90201 0.30997 0.0
H862 H 0.45193 0.90563 0.29156 0.0
H863 H 0.45945 0.92904 0.318 0.0
H864 H 0.49497 0.91366 0.33549 0.0
H865 H 0.48759 0.89022 0.30908 0.0
H866 H 0.48248 0.87612 0.33936 0.0
H867 H 0.37167 0.79944 0.34557 0.0
H868 H 0.36806 0.77574 0.30545 0.0
H869 H 0.44221 0.8539 0.28139 0.0
C870 C 0.44817 0.90759 0.36943 0.0
C871 C 0.43507 0.90274 0.39245 0.0
C872 C 0.41179 0.87499 0.39723 0.0
C873 C 0.40152 0.8527 0.37942 0.0
C874 C 0.41494 0.8583 0.35698 0.0
C875 C 0.43791 0.88499 0.35201 0.0
C876 C 0.4488 0.8853 0.32656 0.0
C877 C 0.4455 0.90677 0.31059 0.0
C878 C 0.48033 0.8917 0.3277 0.0
C879 C 0.42821 0.85465 0.31793 0.0
C880 C 0.40873 0.83946 0.33568 0.0
C881 C 0.38697 0.81103 0.3316 0.0
C882 C 0.38506 0.79778 0.30874 0.0
C883 C 0.405 0.81288 0.29036 0.0
C884 C 0.42691 0.84164 0.29517 0.0
H885 H 0.5452 0.42811 0.53154 0.0
H886 H 0.62066 0.51089 0.55038 0.0
H887 H 0.64708 0.50379 0.51703 0.0
H888 H 0.58467 0.39135 0.5132 0.0
H889 H 0.55953 0.37161 0.48818 0.0
H890 H 0.54719 0.38179 0.515 0.0
H891 H 0.52727 0.40743 0.48789 0.0
H892 H 0.53945 0.39725 0.46102 0.0
H893 H 0.55116 0.43449 0.4675 0.0
H894 H 0.66396 0.4901 0.47989 0.0
H895 H 0.67032 0.47065 0.44082 0.0
H896 H 0.58426 0.39647 0.44547 0.0
C897 C 0.56733 0.44468 0.52874 0.0
C898 C 0.58091 0.46997 0.54378 0.0
C899 C 0.60995 0.49107 0.53949 0.0
C900 C 0.62513 0.4873 0.52051 0.0
C901 C 0.61106 0.46226 0.50598 0.0
C902 C 0.58286 0.44125 0.50984 0.0
C903 C 0.57236 0.41708 0.49068 0.0
C904 C 0.56554 0.38878 0.50248 0.0
C905 C 0.54601 0.41389 0.4759 0.0
C906 C 0.59886 0.42817 0.4751 0.0
C907 C 0.62097 0.45418 0.48442 0.0
C908 C 0.64697 0.46959 0.47255 0.0
C909 C 0.65033 0.45839 0.45034 0.0
C910 C 0.62786 0.43197 0.4402 0.0
C911 C 0.602 0.41643 0.45302 0.0
H912 H 0.12071 0.56929 0.72771 0.0
H913 H 0.09429 0.63339 0.72379 0.0
H914 H 0.12785 0.65627 0.69007 0.0
H915 H 0.19586 0.61691 0.71672 0.0
H916 H 0.19985 0.59067 0.69886 0.0
H917 H 0.1734 0.57925 0.72231 0.0
H918 H 0.13313 0.54656 0.69039 0.0
H919 H 0.15945 0.55799 0.66681 0.0
H920 H 0.12796 0.56191 0.66307 0.0
H921 H 0.16382 0.67156 0.65632 0.0
H922 H 0.20143 0.67976 0.62668 0.0
H923 H 0.20497 0.60626 0.65375 0.0
C924 C 0.12188 0.58804 0.71963 0.0
C925 C 0.10488 0.59956 0.72824 0.0
C926 C 0.10731 0.62438 0.71753 0.0
C927 C 0.12616 0.63739 0.69831 0.0
C928 C 0.14253 0.6254 0.69018 0.0
C929 C 0.14073 0.60141 0.70062 0.0
C930 C 0.16118 0.59317 0.68897 0.0
C931 C 0.18392 0.59513 0.70784 0.0
C932 C 0.14442 0.56313 0.67657 0.0
C933 C 0.17474 0.61624 0.67028 0.0
C934 C 0.16357 0.63451 0.67113 0.0
C935 C 0.17275 0.6574 0.65552 0.0
C936 C 0.19408 0.66185 0.63871 0.0
C937 C 0.20609 0.64359 0.63779 0.0
C938 C 0.19615 0.62049 0.6538 0.0
H939 H 0.54313 0.11317 0.89419 0.0
H940 H 0.61772 0.10108 0.89808 0.0
H941 H 0.6376 0.13115 0.8621 0.0
H942 H 0.5366 0.11148 0.8274 0.0
H943 H 0.52619 0.13859 0.82726 0.0
H944 H 0.51721 0.11504 0.85264 0.0
H945 H 0.54332 0.15902 0.88272 0.0
H946 H 0.55222 0.18266 0.85749 0.0
H947 H 0.58054 0.18559 0.87795 0.0
H948 H 0.65044 0.16444 0.82709 0.0
H949 H 0.65617 0.19989 0.79657 0.0
H950 H 0.57232 0.1888 0.81471 0.0
C951 C 0.56343 0.11646 0.88726 0.0
C952 C 0.57887 0.10476 0.89895 0.0
C953 C 0.60568 0.11011 0.88961 0.0
C954 C 0.617 0.12692 0.86904 0.0
C955 C 0.60118 0.13807 0.85796 0.0
C956 C 0.57498 0.13307 0.86674 0.0
C957 C 0.56287 0.14855 0.85217 0.0
C958 C 0.53401 0.12713 0.83909 0.0
C959 C 0.55956 0.17025 0.86856 0.0
C960 C 0.58663 0.16349 0.83407 0.0
C961 C 0.60842 0.15698 0.83759 0.0
C962 C 0.63337 0.16944 0.82396 0.0
C963 C 0.6364 0.18953 0.80662 0.0
C964 C 0.61458 0.19693 0.80307 0.0
C965 C 0.58917 0.18326 0.8167 0.0
H966 H 0.4189 0.53888 0.02952 0.0
H967 H 0.48837 0.624 0.05144 0.0
H968 H 0.47503 0.6443 0.01672 0.0
H969 H 0.42755 0.54761 0.96536 0.0
H970 H 0.38935 0.52708 0.95767 0.0
H971 H 0.4035 0.51949 0.98489 0.0
H972 H 0.36758 0.52689 0.01107 0.0
H973 H 0.35328 0.53447 0.98391 0.0
H974 H 0.36701 0.56002 0.00938 0.0
H975 H 0.45463 0.65514 0.97917 0.0
H976 H 0.42974 0.65568 0.94089 0.0
H977 H 0.37384 0.56325 0.94321 0.0
C978 C 0.43105 0.56184 0.02719 0.0
C979 C 0.45463 0.5799 0.04321 0.0
C980 C 0.47036 0.60977 0.03928 0.0
C981 C 0.46284 0.6215 0.0197 0.0
C982 C 0.43959 0.60307 0.00417 0.0
C983 C 0.42396 0.57387 0.00766 0.0
C984 C 0.40061 0.55865 0.98781 0.0
C985 C 0.40557 0.53693 0.97306 0.0
C986 C 0.37033 0.54416 0.9987 0.0
C987 C 0.40566 0.58381 0.97253 0.0
C988 C 0.42811 0.60926 0.98237 0.0
C989 C 0.43698 0.63535 0.97133 0.0
C990 C 0.42266 0.63541 0.94956 0.0
C991 C 0.39979 0.60951 0.93893 0.0
C992 C 0.39119 0.58345 0.95078 0.0
H993 H 0.89599 0.42516 0.22625 0.0
H994 H 0.89979 0.50713 0.23803 0.0
H995 H 0.86546 0.49563 0.20337 0.0
H996 H 0.89686 0.42864 0.16077 0.0
H997 H 0.87324 0.39057 0.15573 0.0
H998 H 0.89615 0.40399 0.18297 0.0
H999 H 0.85116 0.37705 0.20962 0.0
H1000 H 0.82807 0.36372 0.18244 0.0
H1001 H 0.82125 0.38349 0.20582 0.0
H1002 H 0.8306 0.4755 0.16724 0.0
H1003 H 0.80212 0.45055 0.12956 0.0
H1004 H 0.82464 0.38404 0.13861 0.0
C1005 C 0.8899 0.44091 0.22158 0.0
C1006 C 0.90048 0.46692 0.23551 0.0
C1007 C 0.89148 0.48661 0.22848 0.0
C1008 C 0.87206 0.4804 0.20858 0.0
C1009 C 0.86205 0.45459 0.19546 0.0
C1010 C 0.87098 0.43536 0.20142 0.0
C1011 C 0.85841 0.41 0.18331 0.0
C1012 C 0.88261 0.40821 0.1699 0.0
C1013 C 0.83854 0.3819 0.19607 0.0
C1014 C 0.84119 0.41814 0.16617 0.0
C1015 C 0.84318 0.4437 0.17377 0.0
C1016 C 0.82896 0.45551 0.16105 0.0
C1017 C 0.81271 0.4411 0.13971 0.0
C1018 C 0.8112 0.41539 0.13105 0.0
C1019 C 0.82546 0.40371 0.14468 0.0
loop_
_geom_bond_atom_site_label_1
_geom_bond_atom_site_label_2
_geom_bond_distance
_geom_bond_site_symmetry_2
_ccdc_geom_bond_type
H0 C19 0.949 . S
H1 C20 0.950 . S
H2 C22 0.950 . S
H3 C23 0.950 . S
H4 C25 0.950 . S
H5 C28 0.950 . S
H6 C29 0.950 . S
H7 C31 0.951 . S
H8 C32 0.949 . S
H9 C34 0.949 . S
H10 C35 0.950 . S
H11 C37 0.950 . S
H12 C38 0.950 . S
H13 C40 0.950 . S
H14 C43 0.950 . S
H15 C44 0.950 . S
H16 C46 0.951 . S
H17 C47 0.949 . S
C18 C19 1.376 . S
C18 C23 1.386 . S
C18 C24 1.483 . S
C19 H0 0.949 . S
C19 C18 1.376 . S
C19 C20 1.397 . S
C20 H1 0.950 . S
C20 C19 1.397 . S
C20 C21 1.391 . S
C21 C20 1.391 . S
C21 C22 1.405 . S
C22 H2 0.950 . S
C22 C21 1.405 . S
C22 C23 1.367 . S
C23 H3 0.950 . S
C23 C18 1.386 . S
C23 C22 1.367 . S
C24 C18 1.483 . S
C24 C25 1.382 1_655 S
C24 C26 1.403 . S
C25 H4 0.950 . S
C25 C24 1.382 1_455 S
C25 C41 1.411 . S
C26 C24 1.403 . S
C26 C27 1.489 . S
C26 C40 1.411 . S
C27 C26 1.489 . S
C27 C28 1.383 . S
C27 C32 1.382 . S
C28 H5 0.950 . S
C28 C27 1.383 . S
C28 C29 1.395 . S
C29 H6 0.950 . S
C29 C28 1.395 . S
C29 C30 1.288 . S
C30 C29 1.288 . S
C30 C31 1.392 . S
C31 H7 0.951 . S
C31 C30 1.392 . S
C31 C32 1.392 . S
C32 H8 0.949 . S
C32 C27 1.382 . S
C32 C31 1.392 . S
C33 C34 1.376 . S
C33 C38 1.386 . S
C33 C39 1.483 . S
C34 H9 0.949 . S
C34 C33 1.376 . S
C34 C35 1.397 . S
C35 H10 0.950 . S
C35 C34 1.397 . S
C35 C36 1.391 . S
C36 C35 1.391 . S
C36 C37 1.405 . S
C37 H11 0.950 . S
C37 C36 1.405 . S
C37 C38 1.367 . S
C38 H12 0.950 . S
C38 C33 1.386 . S
C38 C37 1.367 . S
C39 C33 1.483 . S
C39 C40 1.382 1_455 S
C39 C41 1.403 . S
C40 H13 0.950 . S
C40 C26 1.411 . S
C40 C39 1.382 1_655 S
C41 C25 1.411 . S
C41 C39 1.403 . S
C41 C42 1.489 . S
C42 C41 1.489 . S
C42 C43 1.383 . S
C42 C47 1.382 . S
C43 H14 0.950 . S
C43 C42 1.383 . S
C43 C44 1.395 . S
C44 H15 0.950 . S
C44 C43 1.395 . S
C44 C45 1.288 . S
C45 C44 1.288 . S
C45 C46 1.392 . S
C46 H16 0.951 . S
C46 C45 1.392 . S
C46 C47 1.392 . S
C47 H17 0.949 . S
C47 C42 1.382 . S
C47 C46 1.392 . S
H48 C67 0.949 . S
H49 C68 0.950 . S
H50 C70 0.950 . S
H51 C71 0.950 . S
H52 C73 0.950 1_565 S
H53 C76 0.950 . S
H54 C77 0.950 . S
H55 C79 0.951 . S
H56 C80 0.949 . S
H57 C82 0.949 . S
H58 C83 0.950 . S
H59 C85 0.950 . S
H60 C86 0.950 . S
H61 C88 0.950 . S
H62 C91 0.950 . S
H63 C92 0.950 . S
H64 C94 0.951 . S
H65 C95 0.949 . S
C66 C67 1.376 . S
C66 C71 1.386 . S
C66 C72 1.483 . S
C67 H48 0.949 . S
C67 C66 1.376 . S
C67 C68 1.397 . S
C68 H49 0.950 . S
C68 C67 1.397 . S
C68 C69 1.391 . S
C69 C68 1.391 . S
C69 C70 1.405 . S
C70 H50 0.950 . S
C70 C69 1.405 . S
C70 C71 1.367 . S
C71 H51 0.950 . S
C71 C66 1.386 . S
C71 C70 1.367 . S
C72 C66 1.483 . S
C72 C73 1.382 1_565 S
C72 C74 1.403 . S
C73 H52 0.950 1_545 S
C73 C72 1.382 1_545 S
C73 C89 1.411 . S
C74 C72 1.403 . S
C74 C75 1.489 . S
C74 C88 1.411 1_565 S
C75 C74 1.489 . S
C75 C76 1.383 . S
C75 C80 1.382 . S
C76 H53 0.950 . S
C76 C75 1.383 . S
C76 C77 1.395 . S
C77 H54 0.950 . S
C77 C76 1.395 . S
C77 C78 1.288 . S
C78 C77 1.288 . S
C78 C79 1.392 . S
C79 H55 0.951 . S
C79 C78 1.392 . S
C79 C80 1.392 . S
C80 H56 0.949 . S
C80 C75 1.382 . S
C80 C79 1.392 . S
C81 C82 1.376 . S
C81 C86 1.386 . S
C81 C87 1.483 . S
C82 H57 0.949 . S
C82 C81 1.376 . S
C82 C83 1.397 . S
C83 H58 0.950 . S
C83 C82 1.397 . S
C83 C84 1.391 . S
C84 C83 1.391 . S
C84 C85 1.405 . S
C85 H59 0.950 . S
C85 C84 1.405 . S
C85 C86 1.367 . S
C86 H60 0.950 . S
C86 C81 1.386 . S
C86 C85 1.367 . S
C87 C81 1.483 . S
C87 C88 1.382 . S
C87 C89 1.403 . S
C88 H61 0.950 . S
C88 C74 1.411 1_545 S
C88 C87 1.382 . S
C89 C73 1.411 . S
C89 C87 1.403 . S
C89 C90 1.489 . S
C90 C89 1.489 . S
C90 C91 1.383 . S
C90 C95 1.382 . S
C91 H62 0.950 . S
C91 C90 1.383 . S
C91 C92 1.395 . S
C92 H63 0.950 . S
C92 C91 1.395 . S
C92 C93 1.288 . S
C93 C92 1.288 . S
C93 C94 1.392 . S
C94 H64 0.951 . S
C94 C93 1.392 . S
C94 C95 1.392 . S
C95 H65 0.949 . S
C95 C90 1.382 . S
C95 C94 1.392 . S
H96 C115 0.949 . S
H97 C116 0.950 . S
H98 C118 0.950 . S
H99 C119 0.950 . S
H100 C121 0.950 . S
H101 C124 0.950 . S
H102 C125 0.950 . S
H103 C127 0.951 . S
H104 C128 0.949 . S
H105 C130 0.949 . S
H106 C131 0.950 . S
H107 C133 0.950 . S
H108 C134 0.950 . S
H109 C136 0.950 . S
H110 C139 0.950 . S
H111 C140 0.950 . S
H112 C142 0.951 . S
H113 C143 0.949 . S
C114 C115 1.376 . S
C114 C119 1.386 . S
C114 C120 1.483 . S
C115 H96 0.949 . S
C115 C114 1.376 . S
C115 C116 1.397 . S
C116 H97 0.950 . S
C116 C115 1.397 . S
C116 C117 1.391 . S
C117 C116 1.391 . S
C117 C118 1.405 . S
C118 H98 0.950 . S
C118 C117 1.405 . S
C118 C119 1.367 . S
C119 H99 0.950 . S
C119 C114 1.386 . S
C119 C118 1.367 . S
C120 C114 1.483 . S
C120 C121 1.382 . S
C120 C122 1.403 . S
C121 H100 0.950 . S
C121 C120 1.382 . S
C121 C137 1.411 . S
C122 C120 1.403 . S
C122 C123 1.489 . S
C122 C136 1.411 . S
C123 C122 1.489 . S
C123 C124 1.383 . S
C123 C128 1.382 . S
C124 H101 0.950 . S
C124 C123 1.383 . S
C124 C125 1.395 . S
C125 H102 0.950 . S
C125 C124 1.395 . S
C125 C126 1.288 . S
C126 C125 1.288 . S
C126 C127 1.392 . S
C127 H103 0.951 . S
C127 C126 1.392 . S
C127 C128 1.392 . S
C128 H104 0.949 . S
C128 C123 1.382 . S
C128 C127 1.392 . S
C129 C130 1.376 . S
C129 C134 1.386 . S
C129 C135 1.483 . S
C130 H105 0.949 . S
C130 C129 1.376 . S
C130 C131 1.397 . S
C131 H106 0.950 . S
C131 C130 1.397 . S
C131 C132 1.391 . S
C132 C131 1.391 . S
C132 C133 1.405 . S
C133 H107 0.950 . S
C133 C132 1.405 . S
C133 C134 1.367 . S
C134 H108 0.950 . S
C134 C129 1.386 . S
C134 C133 1.367 . S
C135 C129 1.483 . S
C135 C136 1.382 . S
C135 C137 1.403 . S
C136 H109 0.950 . S
C136 C122 1.411 . S
C136 C135 1.382 . S
C137 C121 1.411 . S
C137 C135 1.403 . S
C137 C138 1.489 . S
C138 C137 1.489 . S
C138 C139 1.383 . S
C138 C143 1.382 . S
C139 H110 0.950 . S
C139 C138 1.383 . S
C139 C140 1.395 . S
C140 H111 0.950 . S
C140 C139 1.395 . S
C140 C141 1.288 . S
C141 C140 1.288 . S
C141 C142 1.392 . S
C142 H112 0.951 . S
C142 C141 1.392 . S
C142 C143 1.392 . S
C143 H113 0.949 . S
C143 C138 1.382 . S
C143 C142 1.392 . S
H144 C163 0.949 . S
H145 C164 0.950 . S
H146 C166 0.950 . S
H147 C167 0.950 . S
H148 C169 0.956 . S
H149 C172 0.950 . S
H150 C173 0.950 . S
H151 C175 0.951 . S
H152 C176 0.949 . S
H153 C178 0.949 . S
H154 C179 0.950 . S
H155 C181 0.950 . S
H156 C182 0.950 . S
H157 C184 0.950 . S
H158 C187 0.950 . S
H159 C188 0.950 . S
H160 C190 0.951 . S
H161 C191 0.949 . S
C162 C163 1.376 . S
C162 C167 1.386 . S
C162 C168 1.483 . S
C163 H144 0.949 . S
C163 C162 1.376 . S
C163 C164 1.397 . S
C164 H145 0.950 . S
C164 C163 1.397 . S
C164 C165 1.391 . S
C165 C164 1.391 . S
C165 C166 1.405 . S
C166 H146 0.950 . S
C166 C165 1.405 . S
C166 C167 1.367 . S
C167 H147 0.950 . S
C167 C162 1.386 . S
C167 C166 1.367 . S
C168 C162 1.483 . S
C168 C169 1.367 1_455 S
C168 C170 1.403 . S
C169 H148 0.956 . S
C169 C168 1.367 1_655 S
C169 C185 1.421 . S
C170 C168 1.403 . S
C170 C171 1.489 . S
C170 C184 1.411 . S
C171 C170 1.489 . S
C171 C172 1.383 . S
C171 C176 1.382 . S
C172 H149 0.950 . S
C172 C171 1.383 . S
C172 C173 1.395 . S
C173 H150 0.950 . S
C173 C172 1.395 . S
C173 C174 1.288 . S
C174 C173 1.288 . S
C174 C175 1.392 . S
C175 H151 0.951 . S
C175 C174 1.392 . S
C175 C176 1.392 . S
C176 H152 0.949 . S
C176 C171 1.382 . S
C176 C175 1.392 . S
C177 C178 1.376 . S
C177 C182 1.386 . S
C177 C183 1.483 . S
C178 H153 0.949 . S
C178 C177 1.376 . S
C178 C179 1.397 . S
C179 H154 0.950 . S
C179 C178 1.397 . S
C179 C180 1.391 . S
C180 C179 1.391 . S
C180 C181 1.405 . S
C181 H155 0.950 . S
C181 C180 1.405 . S
C181 C182 1.367 . S
C182 H156 0.950 . S
C182 C177 1.386 . S
C182 C181 1.367 . S
C183 C177 1.483 . S
C183 C184 1.382 1_655 S
C183 C185 1.403 . S
C184 H157 0.950 . S
C184 C170 1.411 . S
C184 C183 1.382 1_455 S
C185 C169 1.421 . S
C185 C183 1.403 . S
C185 C186 1.489 . S
C186 C185 1.489 . S
C186 C187 1.383 . S
C186 C191 1.382 . S
C187 H158 0.950 . S
C187 C186 1.383 . S
C187 C188 1.395 . S
C188 H159 0.950 . S
C188 C187 1.395 . S
C188 C189 1.288 . S
C189 C188 1.288 . S
C189 C190 1.392 . S
C190 H160 0.951 . S
C190 C189 1.392 . S
C190 C191 1.392 . S
C191 H161 0.949 . S
C191 C186 1.382 . S
C191 C190 1.392 . S
H192 C211 0.949 . S
H193 C212 0.950 . S
H194 C214 0.950 . S
H195 C215 0.950 . S
H196 C217 0.950 . S
H197 C220 0.950 . S
H198 C221 0.950 . S
H199 C223 0.951 . S
H200 C224 0.949 . S
H201 C226 0.949 . S
H202 C227 0.950 . S
H203 C229 0.950 . S
H204 C230 0.950 . S
H205 C232 0.950 . S
H206 C235 0.950 . S
H207 C236 0.950 . S
H208 C238 0.951 . S
H209 C239 0.949 . S
C210 C211 1.376 . S
C210 C215 1.386 1_554 S
C210 C216 1.483 1_554 S
C211 H192 0.949 . S
C211 C210 1.376 . S
C211 C212 1.397 . S
C212 H193 0.950 . S
C212 C211 1.397 . S
C212 C213 1.391 . S
C213 C212 1.391 . S
C213 C214 1.405 . S
C214 H194 0.950 . S
C214 C213 1.405 . S
C214 C215 1.367 1_554 S
C215 H195 0.950 . S
C215 C210 1.386 1_556 S
C215 C214 1.367 1_556 S
C216 C210 1.483 1_556 S
C216 C217 1.382 1_556 S
C216 C218 1.403 . S
C217 H196 0.950 . S
C217 C216 1.382 1_554 S
C217 C233 1.411 1_545 S
C218 C216 1.403 . S
C218 C219 1.489 . S
C218 C232 1.411 . S
C219 C218 1.489 . S
C219 C220 1.383 . S
C219 C224 1.382 . S
C220 H197 0.950 . S
C220 C219 1.383 . S
C220 C221 1.395 . S
C221 H198 0.950 . S
C221 C220 1.395 . S
C221 C222 1.288 . S
C222 C221 1.288 . S
C222 C223 1.392 . S
C223 H199 0.951 . S
C223 C222 1.392 . S
C223 C224 1.392 . S
C224 H200 0.949 . S
C224 C219 1.382 . S
C224 C223 1.392 . S
C225 C226 1.376 . S
C225 C230 1.386 . S
C225 C231 1.483 . S
C226 H201 0.949 . S
C226 C225 1.376 . S
C226 C227 1.397 . S
C227 H202 0.950 . S
C227 C226 1.397 . S
C227 C228 1.391 . S
C228 C227 1.391 . S
C228 C229 1.405 . S
C229 H203 0.950 . S
C229 C228 1.405 . S
C229 C230 1.367 . S
C230 H204 0.950 . S
C230 C225 1.386 . S
C230 C229 1.367 . S
C231 C225 1.483 . S
C231 C232 1.382 1_565 S
C231 C233 1.403 1_556 S
C232 H205 0.950 . S
C232 C218 1.411 . S
C232 C231 1.382 1_545 S
C233 C217 1.411 1_565 S
C233 C231 1.403 1_554 S
C233 C234 1.489 . S
C234 C233 1.489 . S
C234 C235 1.383 . S
C234 C239 1.382 . S
C235 H206 0.950 . S
C235 C234 1.383 . S
C235 C236 1.395 . S
C236 H207 0.950 . S
C236 C235 1.395 . S
C236 C237 1.288 . S
C237 C236 1.288 . S
C237 C238 1.392 . S
C238 H208 0.951 . S
C238 C237 1.392 . S
C238 C239 1.392 . S
C239 H209 0.949 . S
C239 C234 1.382 . S
C239 C238 1.392 . S
H240 C259 0.949 . S
H241 C260 0.950 . S
H242 C262 0.950 . S
H243 C263 0.950 . S
H244 C265 0.950 . S
H245 C268 0.950 . S
H246 C269 0.950 . S
H247 C271 0.951 . S
H248 C272 0.949 . S
H249 C274 0.949 . S
H250 C275 0.950 . S
H251 C277 0.950 . S
H252 C278 0.950 . S
H253 C280 0.950 . S
H254 C283 0.950 . S
H255 C284 0.950 . S
H256 C286 0.951 . S
H257 C287 0.949 . S
C258 C259 1.376 . S
C258 C263 1.386 . S
C258 C264 1.483 . S
C259 H240 0.949 . S
C259 C258 1.376 . S
C259 C260 1.397 . S
C260 H241 0.950 . S
C260 C259 1.397 . S
C260 C261 1.391 . S
C261 C260 1.391 . S
C261 C262 1.405 . S
C262 H242 0.950 . S
C262 C261 1.405 . S
C262 C263 1.367 . S
C263 H243 0.950 . S
C263 C258 1.386 . S
C263 C262 1.367 . S
C264 C258 1.483 . S
C264 C265 1.382 . S
C264 C266 1.403 . S
C265 H244 0.950 . S
C265 C264 1.382 . S
C265 C281 1.411 . S
C266 C264 1.403 . S
C266 C267 1.489 . S
C266 C280 1.411 . S
C267 C266 1.489 . S
C267 C268 1.383 . S
C267 C272 1.382 . S
C268 H245 0.950 . S
C268 C267 1.383 . S
C268 C269 1.395 . S
C269 H246 0.950 . S
C269 C268 1.395 . S
C269 C270 1.288 . S
C270 C269 1.288 . S
C270 C271 1.392 . S
C271 H247 0.951 . S
C271 C270 1.392 . S
C271 C272 1.392 . S
C272 H248 0.949 . S
C272 C267 1.382 . S
C272 C271 1.392 . S
C273 C274 1.376 . S
C273 C278 1.386 . S
C273 C279 1.483 . S
C274 H249 0.949 . S
C274 C273 1.376 . S
C274 C275 1.397 . S
C275 H250 0.950 . S
C275 C274 1.397 . S
C275 C276 1.391 . S
C276 C275 1.391 . S
C276 C277 1.405 . S
C277 H251 0.950 . S
C277 C276 1.405 . S
C277 C278 1.367 . S
C278 H252 0.950 . S
C278 C273 1.386 . S
C278 C277 1.367 . S
C279 C273 1.483 . S
C279 C280 1.382 . S
C279 C281 1.403 . S
C280 H253 0.950 . S
C280 C266 1.411 . S
C280 C279 1.382 . S
C281 C265 1.411 . S
C281 C279 1.403 . S
C281 C282 1.489 . S
C282 C281 1.489 . S
C282 C283 1.383 . S
C282 C287 1.382 . S
C283 H254 0.950 . S
C283 C282 1.383 . S
C283 C284 1.395 . S
C284 H255 0.950 . S
C284 C283 1.395 . S
C284 C285 1.288 . S
C285 C284 1.288 . S
C285 C286 1.392 . S
C286 H256 0.951 . S
C286 C285 1.392 . S
C286 C287 1.392 . S
C287 H257 0.949 . S
C287 C282 1.382 . S
C287 C286 1.392 . S
Mg288 O289 2.028 . S
Mg288 O295 1.986 . S
Mg288 O297 2.114 . S
Mg288 O298 2.251 . S
Mg288 O301 2.010 . S
O289 Mg288 2.028 . S
O289 C292 1.250 . S
O290 Mg291 2.028 . S
O290 C292 1.248 . S
Mg291 O290 2.028 . S
Mg291 O296 2.032 . S
Mg291 O298 2.079 . S
C292 O289 1.250 . S
C292 O290 1.248 . S
C293 O294 1.264 . S
C293 O301 1.249 . S
O294 C293 1.264 . S
O295 Mg288 1.986 . S
O295 C299 1.246 . S
O296 Mg291 2.032 . S
O296 C299 1.259 . S
O297 Mg288 2.114 . S
O297 C300 1.252 . S
O298 Mg288 2.251 . S
O298 Mg291 2.079 . S
O298 C300 1.273 . S
C299 O295 1.246 . S
C299 O296 1.259 . S
C300 O297 1.252 . S
C300 O298 1.273 . S
O301 Mg288 2.010 . S
O301 C293 1.249 . S
Mg302 O303 2.028 . S
Mg302 O309 1.986 . S
Mg302 O311 2.114 . S
Mg302 O312 2.251 . S
Mg302 O315 2.010 . S
O303 Mg302 2.028 . S
O303 C306 1.250 . S
O304 Mg305 2.028 . S
O304 C306 1.248 . S
Mg305 O304 2.028 . S
Mg305 O310 2.032 . S
Mg305 O312 2.079 . S
C306 O303 1.250 . S
C306 O304 1.248 . S
C307 O308 1.264 . S
C307 O315 1.249 . S
O308 C307 1.264 . S
O309 Mg302 1.986 . S
O309 C313 1.246 . S
O310 Mg305 2.032 . S
O310 C313 1.259 . S
O311 Mg302 2.114 . S
O311 C314 1.252 . S
O312 Mg302 2.251 . S
O312 Mg305 2.079 . S
O312 C314 1.273 . S
C313 O309 1.246 . S
C313 O310 1.259 . S
C314 O311 1.252 . S
C314 O312 1.273 . S
O315 Mg302 2.010 . S
O315 C307 1.249 . S
Mg316 O317 2.028 . S
Mg316 O323 1.986 . S
Mg316 O325 2.114 . S
Mg316 O326 2.251 . S
Mg316 O329 2.010 . S
O317 Mg316 2.028 . S
O317 C320 1.250 . S
O318 Mg319 2.028 . S
O318 C320 1.248 . S
Mg319 O318 2.028 . S
Mg319 O324 2.032 . S
Mg319 O326 2.079 . S
C320 O317 1.250 . S
C320 O318 1.248 . S
C321 O322 1.264 . S
C321 O329 1.249 . S
O322 C321 1.264 . S
O323 Mg316 1.986 . S
O323 C327 1.246 . S
O324 Mg319 2.032 . S
O324 C327 1.259 . S
O325 Mg316 2.114 . S
O325 C328 1.252 . S
O326 Mg316 2.251 . S
O326 Mg319 2.079 . S
O326 C328 1.273 . S
C327 O323 1.246 . S
C327 O324 1.259 . S
C328 O325 1.252 . S
C328 O326 1.273 . S
O329 Mg316 2.010 . S
O329 C321 1.249 . S
Mg330 O331 2.028 . S
Mg330 O337 1.986 . S
Mg330 O339 2.114 . S
Mg330 O340 2.251 . S
Mg330 O343 2.010 . S
O331 Mg330 2.028 . S
O331 C334 1.250 . S
O332 Mg333 2.028 . S
O332 C334 1.248 . S
Mg333 O332 2.028 . S
Mg333 O338 2.032 . S
Mg333 O340 2.079 . S
C334 O331 1.250 . S
C334 O332 1.248 . S
C335 O336 1.264 . S
C335 O343 1.249 . S
O336 C335 1.264 . S
O337 Mg330 1.986 . S
O337 C341 1.246 . S
O338 Mg333 2.032 . S
O338 C341 1.259 . S
O339 Mg330 2.114 . S
O339 C342 1.252 . S
O340 Mg330 2.251 . S
O340 Mg333 2.079 . S
O340 C342 1.273 . S
C341 O337 1.246 . S
C341 O338 1.259 . S
C342 O339 1.252 . S
C342 O340 1.273 . S
O343 Mg330 2.010 . S
O343 C335 1.249 . S
Mg344 O345 2.028 . S
Mg344 O351 1.986 . S
Mg344 O353 2.114 . S
Mg344 O354 2.251 . S
Mg344 O357 2.010 . S
O345 Mg344 2.028 . S
O345 C348 1.250 . S
O346 Mg347 2.028 . S
O346 C348 1.248 . S
Mg347 O346 2.028 . S
Mg347 O352 2.032 . S
Mg347 O354 2.079 . S
C348 O345 1.250 . S
C348 O346 1.248 . S
C349 O350 1.264 . S
C349 O357 1.249 . S
O350 C349 1.264 . S
O351 Mg344 1.986 . S
O351 C355 1.246 . S
O352 Mg347 2.032 . S
O352 C355 1.259 . S
O353 Mg344 2.114 . S
O353 C356 1.252 . S
O354 Mg344 2.251 . S
O354 Mg347 2.079 . S
O354 C356 1.273 . S
C355 O351 1.246 . S
C355 O352 1.259 . S
C356 O353 1.252 . S
C356 O354 1.273 . S
O357 Mg344 2.010 . S
O357 C349 1.249 . S
Mg358 O359 2.028 . S
Mg358 O365 1.986 . S
Mg358 O367 2.114 . S
Mg358 O368 2.251 . S
Mg358 O371 2.010 . S
O359 Mg358 2.028 . S
O359 C362 1.250 . S
O360 Mg361 2.028 . S
O360 C362 1.248 . S
Mg361 O360 2.028 . S
Mg361 O366 2.032 . S
Mg361 O368 2.079 . S
C362 O359 1.250 . S
C362 O360 1.248 . S
C363 O364 1.264 . S
C363 O371 1.249 . S
O364 C363 1.264 . S
O365 Mg358 1.986 . S
O365 C369 1.246 . S
O366 Mg361 2.032 . S
O366 C369 1.259 . S
O367 Mg358 2.114 . S
O367 C370 1.252 . S
O368 Mg358 2.251 . S
O368 Mg361 2.079 . S
O368 C370 1.273 . S
C369 O365 1.246 . S
C369 O366 1.259 . S
C370 O367 1.252 . S
C370 O368 1.273 . S
O371 Mg358 2.010 . S
O371 C363 1.249 . S
H372 C384 0.930 . S
H373 C386 0.930 . S
H374 C387 0.930 . S
H375 C391 0.959 . S
H376 C391 0.959 . S
H377 C391 0.961 . S
H378 C392 0.960 . S
H379 C392 0.961 . S
H380 C392 0.959 . S
H381 C395 0.929 . S
H382 C396 0.931 . S
H383 C398 0.930 . S
C384 H372 0.930 . S
C384 C385 1.399 . S
C384 C389 1.399 . S
C385 C384 1.399 . S
C385 C386 1.376 . S
C386 H373 0.930 . S
C386 C385 1.376 . S
C386 C387 1.388 . S
C387 H374 0.930 . S
C387 C386 1.388 . S
C387 C388 1.390 . S
C388 C387 1.390 . S
C388 C389 1.394 . S
C388 C394 1.465 . S
C389 C384 1.399 . S
C389 C388 1.394 . S
C389 C390 1.516 . S
C390 C389 1.516 . S
C390 C391 1.502 . S
C390 C392 1.561 . S
C390 C393 1.526 . S
C391 H375 0.959 . S
C391 H376 0.959 . S
C391 H377 0.961 . S
C391 C390 1.502 . S
C392 H378 0.960 . S
C392 H379 0.961 . S
C392 H380 0.959 . S
C392 C390 1.561 . S
C393 C390 1.526 . S
C393 C394 1.396 . S
C393 C398 1.390 . S
C394 C388 1.465 . S
C394 C393 1.396 . S
C394 C395 1.399 . S
C395 H381 0.929 . S
C395 C394 1.399 . S
C395 C396 1.385 . S
C396 H382 0.931 . S
C396 C395 1.385 . S
C396 C397 1.389 . S
C397 C396 1.389 . S
C397 C398 1.387 . S
C398 H383 0.930 . S
C398 C393 1.390 . S
C398 C397 1.387 . S
H399 C411 0.930 . S
H400 C413 0.930 . S
H401 C414 0.930 . S
H402 C418 0.959 . S
H403 C418 0.959 . S
H404 C418 0.961 . S
H405 C419 0.960 . S
H406 C419 0.961 . S
H407 C419 0.959 . S
H408 C422 0.929 . S
H409 C423 0.931 . S
H410 C425 0.930 . S
C411 H399 0.930 . S
C411 C412 1.399 . S
C411 C416 1.399 . S
C412 C411 1.399 . S
C412 C413 1.376 . S
C413 H400 0.930 . S
C413 C412 1.376 . S
C413 C414 1.388 . S
C414 H401 0.930 . S
C414 C413 1.388 . S
C414 C415 1.390 . S
C415 C414 1.390 . S
C415 C416 1.394 . S
C415 C421 1.465 . S
C416 C411 1.399 . S
C416 C415 1.394 . S
C416 C417 1.516 . S
C417 C416 1.516 . S
C417 C418 1.502 . S
C417 C419 1.561 . S
C417 C420 1.526 . S
C418 H402 0.959 . S
C418 H403 0.959 . S
C418 H404 0.961 . S
C418 C417 1.502 . S
C419 H405 0.960 . S
C419 H406 0.961 . S
C419 H407 0.959 . S
C419 C417 1.561 . S
C420 C417 1.526 . S
C420 C421 1.396 . S
C420 C425 1.390 . S
C421 C415 1.465 . S
C421 C420 1.396 . S
C421 C422 1.399 . S
C422 H408 0.929 . S
C422 C421 1.399 . S
C422 C423 1.385 . S
C423 H409 0.931 . S
C423 C422 1.385 . S
C423 C424 1.389 . S
C424 C423 1.389 . S
C424 C425 1.387 . S
C425 H410 0.930 . S
C425 C420 1.390 . S
C425 C424 1.387 . S
H426 C438 0.930 . S
H427 C440 0.930 . S
H428 C441 0.930 . S
H429 C445 0.959 . S
H430 C445 0.959 . S
H431 C445 0.961 . S
H432 C446 0.960 . S
H433 C446 0.961 . S
H434 C446 0.959 . S
H435 C449 0.929 . S
H436 C450 0.931 . S
H437 C452 0.930 . S
C438 H426 0.930 . S
C438 C439 1.399 . S
C438 C443 1.399 . S
C439 C438 1.399 . S
C439 C440 1.376 . S
C440 H427 0.930 . S
C440 C439 1.376 . S
C440 C441 1.388 . S
C441 H428 0.930 . S
C441 C440 1.388 . S
C441 C442 1.390 . S
C442 C441 1.390 . S
C442 C443 1.394 . S
C442 C448 1.465 . S
C443 C438 1.399 . S
C443 C442 1.394 . S
C443 C444 1.516 . S
C444 C443 1.516 . S
C444 C445 1.502 . S
C444 C446 1.561 . S
C444 C447 1.526 . S
C445 H429 0.959 . S
C445 H430 0.959 . S
C445 H431 0.961 . S
C445 C444 1.502 . S
C446 H432 0.960 . S
C446 H433 0.961 . S
C446 H434 0.959 . S
C446 C444 1.561 . S
C447 C444 1.526 . S
C447 C448 1.396 . S
C447 C452 1.390 . S
C448 C442 1.465 . S
C448 C447 1.396 . S
C448 C449 1.399 . S
C449 H435 0.929 . S
C449 C448 1.399 . S
C449 C450 1.385 . S
C450 H436 0.931 . S
C450 C449 1.385 . S
C450 C451 1.389 . S
C451 C450 1.389 . S
C451 C452 1.387 . S
C452 H437 0.930 . S
C452 C447 1.390 . S
C452 C451 1.387 . S
H453 C465 0.930 . S
H454 C467 0.930 . S
H455 C468 0.930 . S
H456 C472 0.959 . S
H457 C472 0.959 . S
H458 C472 0.961 . S
H459 C473 0.960 . S
H460 C473 0.961 . S
H461 C473 0.959 . S
H462 C476 0.929 . S
H463 C477 0.931 . S
H464 C479 0.930 . S
C465 H453 0.930 . S
C465 C466 1.399 . S
C465 C470 1.399 . S
C466 C465 1.399 . S
C466 C467 1.376 . S
C467 H454 0.930 . S
C467 C466 1.376 . S
C467 C468 1.388 . S
C468 H455 0.930 . S
C468 C467 1.388 . S
C468 C469 1.390 . S
C469 C468 1.390 . S
C469 C470 1.394 . S
C469 C475 1.465 . S
C470 C465 1.399 . S
C470 C469 1.394 . S
C470 C471 1.516 . S
C471 C470 1.516 . S
C471 C472 1.502 . S
C471 C473 1.561 . S
C471 C474 1.526 . S
C472 H456 0.959 . S
C472 H457 0.959 . S
C472 H458 0.961 . S
C472 C471 1.502 . S
C473 H459 0.960 . S
C473 H460 0.961 . S
C473 H461 0.959 . S
C473 C471 1.561 . S
C474 C471 1.526 . S
C474 C475 1.396 . S
C474 C479 1.390 . S
C475 C469 1.465 . S
C475 C474 1.396 . S
C475 C476 1.399 . S
C476 H462 0.929 . S
C476 C475 1.399 . S
C476 C477 1.385 . S
C477 H463 0.931 . S
C477 C476 1.385 . S
C477 C478 1.389 . S
C478 C477 1.389 . S
C478 C479 1.387 . S
C479 H464 0.930 . S
C479 C474 1.390 . S
C479 C478 1.387 . S
H480 C492 0.930 . S
H481 C494 0.930 . S
H482 C495 0.930 . S
H483 C499 0.959 . S
H484 C499 0.959 . S
H485 C499 0.961 . S
H486 C500 0.960 . S
H487 C500 0.961 . S
H488 C500 0.959 . S
H489 C503 0.929 . S
H490 C504 0.931 . S
H491 C506 0.930 . S
C492 H480 0.930 . S
C492 C493 1.399 . S
C492 C497 1.399 . S
C493 C492 1.399 . S
C493 C494 1.376 . S
C494 H481 0.930 . S
C494 C493 1.376 . S
C494 C495 1.388 . S
C495 H482 0.930 . S
C495 C494 1.388 . S
C495 C496 1.390 . S
C496 C495 1.390 . S
C496 C497 1.394 . S
C496 C502 1.465 . S
C497 C492 1.399 . S
C497 C496 1.394 . S
C497 C498 1.516 . S
C498 C497 1.516 . S
C498 C499 1.502 . S
C498 C500 1.561 . S
C498 C501 1.526 . S
C499 H483 0.959 . S
C499 H484 0.959 . S
C499 H485 0.961 . S
C499 C498 1.502 . S
C500 H486 0.960 . S
C500 H487 0.961 . S
C500 H488 0.959 . S
C500 C498 1.561 . S
C501 C498 1.526 . S
C501 C502 1.396 . S
C501 C506 1.390 . S
C502 C496 1.465 . S
C502 C501 1.396 . S
C502 C503 1.399 . S
C503 H489 0.929 . S
C503 C502 1.399 . S
C503 C504 1.385 . S
C504 H490 0.931 . S
C504 C503 1.385 . S
C504 C505 1.389 . S
C505 C504 1.389 . S
C505 C506 1.387 . S
C506 H491 0.930 . S
C506 C501 1.390 . S
C506 C505 1.387 . S
H507 C519 0.930 . S
H508 C521 0.930 . S
H509 C522 0.930 . S
H510 C526 0.959 . S
H511 C526 0.959 . S
H512 C526 0.961 . S
H513 C527 0.960 . S
H514 C527 0.961 . S
H515 C527 0.959 . S
H516 C530 0.929 . S
H517 C531 0.931 . S
H518 C533 0.930 . S
C519 H507 0.930 . S
C519 C520 1.399 . S
C519 C524 1.399 . S
C520 C519 1.399 . S
C520 C521 1.376 . S
C521 H508 0.930 . S
C521 C520 1.376 . S
C521 C522 1.388 . S
C522 H509 0.930 . S
C522 C521 1.388 . S
C522 C523 1.390 . S
C523 C522 1.390 . S
C523 C524 1.394 . S
C523 C529 1.465 . S
C524 C519 1.399 . S
C524 C523 1.394 . S
C524 C525 1.516 . S
C525 C524 1.516 . S
C525 C526 1.502 . S
C525 C527 1.561 . S
C525 C528 1.526 . S
C526 H510 0.959 . S
C526 H511 0.959 . S
C526 H512 0.961 . S
C526 C525 1.502 . S
C527 H513 0.960 . S
C527 H514 0.961 . S
C527 H515 0.959 . S
C527 C525 1.561 . S
C528 C525 1.526 . S
C528 C529 1.396 . S
C528 C533 1.390 . S
C529 C523 1.465 . S
C529 C528 1.396 . S
C529 C530 1.399 . S
C530 H516 0.929 . S
C530 C529 1.399 . S
C530 C531 1.385 . S
C531 H517 0.931 . S
C531 C530 1.385 . S
C531 C532 1.389 . S
C532 C531 1.389 . S
C532 C533 1.387 . S
C533 H518 0.930 . S
C533 C528 1.390 . S
C533 C532 1.387 . S
H534 C546 0.930 . S
H535 C548 0.930 . S
H536 C549 0.930 . S
H537 C553 0.959 . S
H538 C553 0.959 . S
H539 C553 0.961 . S
H540 C554 0.960 . S
H541 C554 0.961 . S
H542 C554 0.959 . S
H543 C557 0.929 . S
H544 C558 0.931 . S
H545 C560 0.930 . S
C546 H534 0.930 . S
C546 C547 1.399 . S
C546 C551 1.399 . S
C547 C546 1.399 . S
C547 C548 1.376 . S
C548 H535 0.930 . S
C548 C547 1.376 . S
C548 C549 1.388 . S
C549 H536 0.930 . S
C549 C548 1.388 . S
C549 C550 1.390 . S
C550 C549 1.390 . S
C550 C551 1.394 . S
C550 C556 1.465 . S
C551 C546 1.399 . S
C551 C550 1.394 . S
C551 C552 1.516 . S
C552 C551 1.516 . S
C552 C553 1.502 . S
C552 C554 1.561 . S
C552 C555 1.526 . S
C553 H537 0.959 . S
C553 H538 0.959 . S
C553 H539 0.961 . S
C553 C552 1.502 . S
C554 H540 0.960 . S
C554 H541 0.961 . S
C554 H542 0.959 . S
C554 C552 1.561 . S
C555 C552 1.526 . S
C555 C556 1.396 . S
C555 C560 1.390 . S
C556 C550 1.465 . S
C556 C555 1.396 . S
C556 C557 1.399 . S
C557 H543 0.929 . S
C557 C556 1.399 . S
C557 C558 1.385 . S
C558 H544 0.931 . S
C558 C557 1.385 . S
C558 C559 1.389 . S
C559 C558 1.389 . S
C559 C560 1.387 . S
C560 H545 0.930 . S
C560 C555 1.390 . S
C560 C559 1.387 . S
H561 C573 0.930 . S
H562 C575 0.930 . S
H563 C576 0.930 . S
H564 C580 0.959 . S
H565 C580 0.959 . S
H566 C580 0.961 . S
H567 C581 0.960 . S
H568 C581 0.961 . S
H569 C581 0.959 . S
H570 C584 0.929 . S
H571 C585 0.931 . S
H572 C587 0.930 . S
C573 H561 0.930 . S
C573 C574 1.399 . S
C573 C578 1.399 . S
C574 C573 1.399 . S
C574 C575 1.376 . S
C575 H562 0.930 . S
C575 C574 1.376 . S
C575 C576 1.388 . S
C576 H563 0.930 . S
C576 C575 1.388 . S
C576 C577 1.390 . S
C577 C576 1.390 . S
C577 C578 1.394 . S
C577 C583 1.465 . S
C578 C573 1.399 . S
C578 C577 1.394 . S
C578 C579 1.516 . S
C579 C578 1.516 . S
C579 C580 1.502 . S
C579 C581 1.561 . S
C579 C582 1.526 . S
C580 H564 0.959 . S
C580 H565 0.959 . S
C580 H566 0.961 . S
C580 C579 1.502 . S
C581 H567 0.960 . S
C581 H568 0.961 . S
C581 H569 0.959 . S
C581 C579 1.561 . S
C582 C579 1.526 . S
C582 C583 1.396 . S
C582 C587 1.390 . S
C583 C577 1.465 . S
C583 C582 1.396 . S
C583 C584 1.399 . S
C584 H570 0.929 . S
C584 C583 1.399 . S
C584 C585 1.385 . S
C585 H571 0.931 . S
C585 C584 1.385 . S
C585 C586 1.389 . S
C586 C585 1.389 . S
C586 C587 1.387 . S
C587 H572 0.930 . S
C587 C582 1.390 . S
C587 C586 1.387 . S
H588 C600 0.930 . S
H589 C602 0.930 . S
H590 C603 0.930 . S
H591 C607 0.959 . S
H592 C607 0.959 . S
H593 C607 0.961 . S
H594 C608 0.960 . S
H595 C608 0.961 . S
H596 C608 0.959 . S
H597 C611 0.929 . S
H598 C612 0.931 . S
H599 C614 0.930 . S
C600 H588 0.930 . S
C600 C601 1.399 . S
C600 C605 1.399 . S
C601 C600 1.399 . S
C601 C602 1.376 . S
C602 H589 0.930 . S
C602 C601 1.376 . S
C602 C603 1.388 . S
C603 H590 0.930 . S
C603 C602 1.388 . S
C603 C604 1.390 . S
C604 C603 1.390 . S
C604 C605 1.394 . S
C604 C610 1.465 . S
C605 C600 1.399 . S
C605 C604 1.394 . S
C605 C606 1.516 . S
C606 C605 1.516 . S
C606 C607 1.502 . S
C606 C608 1.561 . S
C606 C609 1.526 . S
C607 H591 0.959 . S
C607 H592 0.959 . S
C607 H593 0.961 . S
C607 C606 1.502 . S
C608 H594 0.960 . S
C608 H595 0.961 . S
C608 H596 0.959 . S
C608 C606 1.561 . S
C609 C606 1.526 . S
C609 C610 1.396 . S
C609 C614 1.390 . S
C610 C604 1.465 . S
C610 C609 1.396 . S
C610 C611 1.399 . S
C611 H597 0.929 . S
C611 C610 1.399 . S
C611 C612 1.385 . S
C612 H598 0.931 . S
C612 C611 1.385 . S
C612 C613 1.389 . S
C613 C612 1.389 . S
C613 C614 1.387 . S
C614 H599 0.930 . S
C614 C609 1.390 . S
C614 C613 1.387 . S
H615 C627 0.930 . S
H616 C629 0.930 . S
H617 C630 0.930 . S
H618 C634 0.959 . S
H619 C634 0.959 1_556 S
H620 C634 0.961 1_556 S
H621 C635 0.960 . S
H622 C635 0.961 . S
H623 C635 0.959 1_554 S
H624 C638 0.929 . S
H625 C639 0.931 . S
H626 C641 0.930 . S
C627 H615 0.930 . S
C627 C628 1.399 . S
C627 C632 1.399 . S
C628 C627 1.399 . S
C628 C629 1.376 . S
C629 H616 0.930 . S
C629 C628 1.376 . S
C629 C630 1.388 . S
C630 H617 0.930 . S
C630 C629 1.388 . S
C630 C631 1.390 . S
C631 C630 1.390 . S
C631 C632 1.394 . S
C631 C637 1.465 . S
C632 C627 1.399 . S
C632 C631 1.394 . S
C632 C633 1.516 . S
C633 C632 1.516 . S
C633 C634 1.502 . S
C633 C635 1.561 1_554 S
C633 C636 1.526 . S
C634 H618 0.959 . S
C634 H619 0.959 1_554 S
C634 H620 0.961 1_554 S
C634 C633 1.502 . S
C635 H621 0.960 . S
C635 H622 0.961 . S
C635 H623 0.959 1_556 S
C635 C633 1.561 1_556 S
C636 C633 1.526 . S
C636 C637 1.396 . S
C636 C641 1.390 . S
C637 C631 1.465 . S
C637 C636 1.396 . S
C637 C638 1.399 . S
C638 H624 0.929 . S
C638 C637 1.399 . S
C638 C639 1.385 . S
C639 H625 0.931 . S
C639 C638 1.385 . S
C639 C640 1.389 . S
C640 C639 1.389 . S
C640 C641 1.387 . S
C641 H626 0.930 . S
C641 C636 1.390 . S
C641 C640 1.387 . S
H642 C654 0.930 . S
H643 C656 0.930 . S
H644 C657 0.930 . S
H645 C661 0.959 . S
H646 C661 0.959 . S
H647 C661 0.961 . S
H648 C662 0.960 . S
H649 C662 0.961 . S
H650 C662 0.959 . S
H651 C665 0.929 . S
H652 C666 0.931 . S
H653 C668 0.930 . S
C654 H642 0.930 . S
C654 C655 1.399 . S
C654 C659 1.399 . S
C655 C654 1.399 . S
C655 C656 1.376 . S
C656 H643 0.930 . S
C656 C655 1.376 . S
C656 C657 1.388 . S
C657 H644 0.930 . S
C657 C656 1.388 . S
C657 C658 1.390 . S
C658 C657 1.390 . S
C658 C659 1.394 . S
C658 C664 1.465 . S
C659 C654 1.399 . S
C659 C658 1.394 . S
C659 C660 1.516 . S
C660 C659 1.516 . S
C660 C661 1.502 . S
C660 C662 1.561 . S
C660 C663 1.526 . S
C661 H645 0.959 . S
C661 H646 0.959 . S
C661 H647 0.961 . S
C661 C660 1.502 . S
C662 H648 0.960 . S
C662 H649 0.961 . S
C662 H650 0.959 . S
C662 C660 1.561 . S
C663 C660 1.526 . S
C663 C664 1.396 . S
C663 C668 1.390 . S
C664 C658 1.465 . S
C664 C663 1.396 . S
C664 C665 1.399 . S
C665 H651 0.929 . S
C665 C664 1.399 . S
C665 C666 1.385 . S
C666 H652 0.931 . S
C666 C665 1.385 . S
C666 C667 1.389 . S
C667 C666 1.389 . S
C667 C668 1.387 . S
C668 H653 0.930 . S
C668 C663 1.390 . S
C668 C667 1.387 . S
H669 C681 0.930 . S
H670 C683 0.930 . S
H671 C684 0.930 . S
H672 C688 0.959 . S
H673 C688 0.959 . S
H674 C688 0.961 . S
H675 C689 0.960 . S
H676 C689 0.961 . S
H677 C689 0.959 . S
H678 C692 0.929 . S
H679 C693 0.931 . S
H680 C695 0.930 . S
C681 H669 0.930 . S
C681 C682 1.399 . S
C681 C686 1.399 . S
C682 C681 1.399 . S
C682 C683 1.376 . S
C683 H670 0.930 . S
C683 C682 1.376 . S
C683 C684 1.388 . S
C684 H671 0.930 . S
C684 C683 1.388 . S
C684 C685 1.390 . S
C685 C684 1.390 . S
C685 C686 1.394 . S
C685 C691 1.465 . S
C686 C681 1.399 . S
C686 C685 1.394 . S
C686 C687 1.516 . S
C687 C686 1.516 . S
C687 C688 1.502 . S
C687 C689 1.561 . S
C687 C690 1.526 . S
C688 H672 0.959 . S
C688 H673 0.959 . S
C688 H674 0.961 . S
C688 C687 1.502 . S
C689 H675 0.960 . S
C689 H676 0.961 . S
C689 H677 0.959 . S
C689 C687 1.561 . S
C690 C687 1.526 . S
C690 C691 1.396 . S
C690 C695 1.390 . S
C691 C685 1.465 . S
C691 C690 1.396 . S
C691 C692 1.399 . S
C692 H678 0.929 . S
C692 C691 1.399 . S
C692 C693 1.385 . S
C693 H679 0.931 . S
C693 C692 1.385 . S
C693 C694 1.389 . S
C694 C693 1.389 . S
C694 C695 1.387 . S
C695 H680 0.930 . S
C695 C690 1.390 . S
C695 C694 1.387 . S
H696 C708 0.930 . S
H697 C710 0.930 . S
H698 C711 0.930 . S
H699 C715 0.959 . S
H700 C715 0.959 . S
H701 C715 0.961 . S
H702 C716 0.960 . S
H703 C716 0.961 . S
H704 C716 0.959 . S
H705 C719 0.929 . S
H706 C720 0.931 . S
H707 C722 0.930 . S
C708 H696 0.930 . S
C708 C709 1.399 . S
C708 C713 1.399 . S
C709 C708 1.399 . S
C709 C710 1.376 . S
C710 H697 0.930 . S
C710 C709 1.376 . S
C710 C711 1.388 . S
C711 H698 0.930 . S
C711 C710 1.388 . S
C711 C712 1.390 . S
C712 C711 1.390 . S
C712 C713 1.394 . S
C712 C718 1.465 . S
C713 C708 1.399 . S
C713 C712 1.394 . S
C713 C714 1.516 . S
C714 C713 1.516 . S
C714 C715 1.502 . S
C714 C716 1.561 . S
C714 C717 1.526 . S
C715 H699 0.959 . S
C715 H700 0.959 . S
C715 H701 0.961 . S
C715 C714 1.502 . S
C716 H702 0.960 . S
C716 H703 0.961 . S
C716 H704 0.959 . S
C716 C714 1.561 . S
C717 C714 1.526 . S
C717 C718 1.396 . S
C717 C722 1.390 . S
C718 C712 1.465 . S
C718 C717 1.396 . S
C718 C719 1.399 . S
C719 H705 0.929 . S
C719 C718 1.399 . S
C719 C720 1.385 . S
C720 H706 0.931 . S
C720 C719 1.385 . S
C720 C721 1.389 . S
C721 C720 1.389 . S
C721 C722 1.387 . S
C722 H707 0.930 . S
C722 C717 1.390 . S
C722 C721 1.387 . S
H723 C735 0.930 . S
H724 C737 0.930 . S
H725 C738 0.930 . S
H726 C742 0.959 . S
H727 C742 0.959 . S
H728 C742 0.961 . S
H729 C743 0.960 . S
H730 C743 0.961 . S
H731 C743 0.959 . S
H732 C746 0.929 . S
H733 C747 0.931 . S
H734 C749 0.930 . S
C735 H723 0.930 . S
C735 C736 1.399 . S
C735 C740 1.399 . S
C736 C735 1.399 . S
C736 C737 1.376 . S
C737 H724 0.930 . S
C737 C736 1.376 . S
C737 C738 1.388 . S
C738 H725 0.930 . S
C738 C737 1.388 . S
C738 C739 1.390 . S
C739 C738 1.390 . S
C739 C740 1.394 . S
C739 C745 1.465 . S
C740 C735 1.399 . S
C740 C739 1.394 . S
C740 C741 1.516 . S
C741 C740 1.516 . S
C741 C742 1.502 . S
C741 C743 1.561 . S
C741 C744 1.526 . S
C742 H726 0.959 . S
C742 H727 0.959 . S
C742 H728 0.961 . S
C742 C741 1.502 . S
C743 H729 0.960 . S
C743 H730 0.961 . S
C743 H731 0.959 . S
C743 C741 1.561 . S
C744 C741 1.526 . S
C744 C745 1.396 . S
C744 C749 1.390 . S
C745 C739 1.465 . S
C745 C744 1.396 . S
C745 C746 1.399 . S
C746 H732 0.929 . S
C746 C745 1.399 . S
C746 C747 1.385 . S
C747 H733 0.931 . S
C747 C746 1.385 . S
C747 C748 1.389 . S
C748 C747 1.389 . S
C748 C749 1.387 . S
C749 H734 0.930 . S
C749 C744 1.390 . S
C749 C748 1.387 . S
H750 C762 0.930 . S
H751 C764 0.930 . S
H752 C765 0.930 . S
H753 C769 0.959 . S
H754 C769 0.959 . S
H755 C769 0.961 . S
H756 C770 0.960 . S
H757 C770 0.961 . S
H758 C770 0.959 . S
H759 C773 0.929 . S
H760 C774 0.931 . S
H761 C776 0.930 . S
C762 H750 0.930 . S
C762 C763 1.399 . S
C762 C767 1.399 . S
C763 C762 1.399 . S
C763 C764 1.376 . S
C764 H751 0.930 . S
C764 C763 1.376 . S
C764 C765 1.388 . S
C765 H752 0.930 . S
C765 C764 1.388 . S
C765 C766 1.390 . S
C766 C765 1.390 . S
C766 C767 1.394 . S
C766 C772 1.465 . S
C767 C762 1.399 . S
C767 C766 1.394 . S
C767 C768 1.516 . S
C768 C767 1.516 . S
C768 C769 1.502 . S
C768 C770 1.561 . S
C768 C771 1.526 . S
C769 H753 0.959 . S
C769 H754 0.959 . S
C769 H755 0.961 . S
C769 C768 1.502 . S
C770 H756 0.960 . S
C770 H757 0.961 . S
C770 H758 0.959 . S
C770 C768 1.561 . S
C771 C768 1.526 . S
C771 C772 1.396 . S
C771 C776 1.390 . S
C772 C766 1.465 . S
C772 C771 1.396 . S
C772 C773 1.399 . S
C773 H759 0.929 . S
C773 C772 1.399 . S
C773 C774 1.385 . S
C774 H760 0.931 . S
C774 C773 1.385 . S
C774 C775 1.389 . S
C775 C774 1.389 . S
C775 C776 1.387 . S
C776 H761 0.930 . S
C776 C771 1.390 . S
C776 C775 1.387 . S
H777 C789 0.930 . S
H778 C791 0.930 . S
H779 C792 0.930 . S
H780 C796 0.959 . S
H781 C796 0.959 . S
H782 C796 0.961 . S
H783 C797 0.960 . S
H784 C797 0.961 . S
H785 C797 0.959 . S
H786 C800 0.929 . S
H787 C801 0.931 . S
H788 C803 0.930 . S
C789 H777 0.930 . S
C789 C790 1.399 . S
C789 C794 1.399 . S
C790 C789 1.399 . S
C790 C791 1.376 . S
C791 H778 0.930 . S
C791 C790 1.376 . S
C791 C792 1.388 . S
C792 H779 0.930 . S
C792 C791 1.388 . S
C792 C793 1.390 . S
C793 C792 1.390 . S
C793 C794 1.394 . S
C793 C799 1.465 . S
C794 C789 1.399 . S
C794 C793 1.394 . S
C794 C795 1.516 . S
C795 C794 1.516 . S
C795 C796 1.502 . S
C795 C797 1.561 . S
C795 C798 1.526 . S
C796 H780 0.959 . S
C796 H781 0.959 . S
C796 H782 0.961 . S
C796 C795 1.502 . S
C797 H783 0.960 . S
C797 H784 0.961 . S
C797 H785 0.959 . S
C797 C795 1.561 . S
C798 C795 1.526 . S
C798 C799 1.396 . S
C798 C803 1.390 . S
C799 C793 1.465 . S
C799 C798 1.396 . S
C799 C800 1.399 1_556 S
C800 H786 0.929 . S
C800 C799 1.399 1_554 S
C800 C801 1.385 . S
C801 H787 0.931 . S
C801 C800 1.385 . S
C801 C802 1.389 . S
C802 C801 1.389 . S
C802 C803 1.387 1_554 S
C803 H788 0.930 . S
C803 C798 1.390 . S
C803 C802 1.387 1_556 S
H804 C816 0.930 . S
H805 C818 0.930 . S
H806 C819 0.930 . S
H807 C823 0.959 . S
H808 C823 0.959 . S
H809 C823 0.961 . S
H810 C824 0.960 . S
H811 C824 0.961 . S
H812 C824 0.959 . S
H813 C827 0.929 . S
H814 C828 0.931 . S
H815 C830 0.930 . S
C816 H804 0.930 . S
C816 C817 1.399 . S
C816 C821 1.399 . S
C817 C816 1.399 . S
C817 C818 1.376 . S
C818 H805 0.930 . S
C818 C817 1.376 . S
C818 C819 1.388 . S
C819 H806 0.930 . S
C819 C818 1.388 . S
C819 C820 1.390 . S
C820 C819 1.390 . S
C820 C821 1.394 . S
C820 C826 1.465 . S
C821 C816 1.399 . S
C821 C820 1.394 . S
C821 C822 1.516 . S
C822 C821 1.516 . S
C822 C823 1.502 . S
C822 C824 1.561 . S
C822 C825 1.526 . S
C823 H807 0.959 . S
C823 H808 0.959 . S
C823 H809 0.961 . S
C823 C822 1.502 . S
C824 H810 0.960 . S
C824 H811 0.961 . S
C824 H812 0.959 . S
C824 C822 1.561 . S
C825 C822 1.526 . S
C825 C826 1.396 . S
C825 C830 1.390 . S
C826 C820 1.465 . S
C826 C825 1.396 . S
C826 C827 1.399 . S
C827 H813 0.929 . S
C827 C826 1.399 . S
C827 C828 1.385 . S
C828 H814 0.931 . S
C828 C827 1.385 . S
C828 C829 1.389 . S
C829 C828 1.389 . S
C829 C830 1.387 . S
C830 H815 0.930 . S
C830 C825 1.390 . S
C830 C829 1.387 . S
H831 C843 0.930 . S
H832 C845 0.930 . S
H833 C846 0.930 . S
H834 C850 0.959 . S
H835 C850 0.959 . S
H836 C850 0.961 . S
H837 C851 0.960 . S
H838 C851 0.961 . S
H839 C851 0.959 . S
H840 C854 0.929 . S
H841 C855 0.931 . S
H842 C857 0.930 . S
C843 H831 0.930 . S
C843 C844 1.399 . S
C843 C848 1.399 . S
C844 C843 1.399 . S
C844 C845 1.376 . S
C845 H832 0.930 . S
C845 C844 1.376 . S
C845 C846 1.388 . S
C846 H833 0.930 . S
C846 C845 1.388 . S
C846 C847 1.390 . S
C847 C846 1.390 . S
C847 C848 1.394 . S
C847 C853 1.465 . S
C848 C843 1.399 . S
C848 C847 1.394 . S
C848 C849 1.516 . S
C849 C848 1.516 . S
C849 C850 1.502 . S
C849 C851 1.561 . S
C849 C852 1.526 . S
C850 H834 0.959 . S
C850 H835 0.959 . S
C850 H836 0.961 . S
C850 C849 1.502 . S
C851 H837 0.960 . S
C851 H838 0.961 . S
C851 H839 0.959 . S
C851 C849 1.561 . S
C852 C849 1.526 . S
C852 C853 1.396 . S
C852 C857 1.390 . S
C853 C847 1.465 . S
C853 C852 1.396 . S
C853 C854 1.399 . S
C854 H840 0.929 . S
C854 C853 1.399 . S
C854 C855 1.385 . S
C855 H841 0.931 . S
C855 C854 1.385 . S
C855 C856 1.389 . S
C856 C855 1.389 . S
C856 C857 1.387 . S
C857 H842 0.930 . S
C857 C852 1.390 . S
C857 C856 1.387 . S
H858 C870 0.930 . S
H859 C872 0.930 . S
H860 C873 0.930 . S
H861 C877 0.959 . S
H862 C877 0.959 . S
H863 C877 0.961 . S
H864 C878 0.960 . S
H865 C878 0.961 . S
H866 C878 0.959 . S
H867 C881 0.929 . S
H868 C882 0.931 . S
H869 C884 0.930 . S
C870 H858 0.930 . S
C870 C871 1.399 . S
C870 C875 1.399 . S
C871 C870 1.399 . S
C871 C872 1.376 . S
C872 H859 0.930 . S
C872 C871 1.376 . S
C872 C873 1.388 . S
C873 H860 0.930 . S
C873 C872 1.388 . S
C873 C874 1.390 . S
C874 C873 1.390 . S
C874 C875 1.394 . S
C874 C880 1.465 . S
C875 C870 1.399 . S
C875 C874 1.394 . S
C875 C876 1.516 . S
C876 C875 1.516 . S
C876 C877 1.502 . S
C876 C878 1.561 . S
C876 C879 1.526 . S
C877 H861 0.959 . S
C877 H862 0.959 . S
C877 H863 0.961 . S
C877 C876 1.502 . S
C878 H864 0.960 . S
C878 H865 0.961 . S
C878 H866 0.959 . S
C878 C876 1.561 . S
C879 C876 1.526 . S
C879 C880 1.396 . S
C879 C884 1.390 . S
C880 C874 1.465 . S
C880 C879 1.396 . S
C880 C881 1.399 . S
C881 H867 0.929 . S
C881 C880 1.399 . S
C881 C882 1.385 . S
C882 H868 0.931 . S
C882 C881 1.385 . S
C882 C883 1.389 . S
C883 C882 1.389 . S
C883 C884 1.387 . S
C884 H869 0.930 . S
C884 C879 1.390 . S
C884 C883 1.387 . S
H885 C897 0.930 . S
H886 C899 0.930 . S
H887 C900 0.930 . S
H888 C904 0.959 . S
H889 C904 0.959 . S
H890 C904 0.961 . S
H891 C905 0.960 . S
H892 C905 0.961 . S
H893 C905 0.959 . S
H894 C908 0.929 . S
H895 C909 0.931 . S
H896 C911 0.930 . S
C897 H885 0.930 . S
C897 C898 1.399 . S
C897 C902 1.399 . S
C898 C897 1.399 . S
C898 C899 1.376 . S
C899 H886 0.930 . S
C899 C898 1.376 . S
C899 C900 1.388 . S
C900 H887 0.930 . S
C900 C899 1.388 . S
C900 C901 1.390 . S
C901 C900 1.390 . S
C901 C902 1.394 . S
C901 C907 1.465 . S
C902 C897 1.399 . S
C902 C901 1.394 . S
C902 C903 1.516 . S
C903 C902 1.516 . S
C903 C904 1.502 . S
C903 C905 1.561 . S
C903 C906 1.526 . S
C904 H888 0.959 . S
C904 H889 0.959 . S
C904 H890 0.961 . S
C904 C903 1.502 . S
C905 H891 0.960 . S
C905 H892 0.961 . S
C905 H893 0.959 . S
C905 C903 1.561 . S
C906 C903 1.526 . S
C906 C907 1.396 . S
C906 C911 1.390 . S
C907 C901 1.465 . S
C907 C906 1.396 . S
C907 C908 1.399 . S
C908 H894 0.929 . S
C908 C907 1.399 . S
C908 C909 1.385 . S
C909 H895 0.931 . S
C909 C908 1.385 . S
C909 C910 1.389 . S
C910 C909 1.389 . S
C910 C911 1.387 . S
C911 H896 0.930 . S
C911 C906 1.390 . S
C911 C910 1.387 . S
H912 C924 0.930 . S
H913 C926 0.930 . S
H914 C927 0.930 . S
H915 C931 0.959 . S
H916 C931 0.959 . S
H917 C931 0.961 . S
H918 C932 0.960 . S
H919 C932 0.961 . S
H920 C932 0.959 . S
H921 C935 0.929 . S
H922 C936 0.931 . S
H923 C938 0.930 . S
C924 H912 0.930 . S
C924 C925 1.399 . S
C924 C929 1.399 . S
C925 C924 1.399 . S
C925 C926 1.376 . S
C926 H913 0.930 . S
C926 C925 1.376 . S
C926 C927 1.388 . S
C927 H914 0.930 . S
C927 C926 1.388 . S
C927 C928 1.390 . S
C928 C927 1.390 . S
C928 C929 1.394 . S
C928 C934 1.465 . S
C929 C924 1.399 . S
C929 C928 1.394 . S
C929 C930 1.516 . S
C930 C929 1.516 . S
C930 C931 1.502 . S
C930 C932 1.561 . S
C930 C933 1.526 . S
C931 H915 0.959 . S
C931 H916 0.959 . S
C931 H917 0.961 . S
C931 C930 1.502 . S
C932 H918 0.960 . S
C932 H919 0.961 . S
C932 H920 0.959 . S
C932 C930 1.561 . S
C933 C930 1.526 . S
C933 C934 1.396 . S
C933 C938 1.390 . S
C934 C928 1.465 . S
C934 C933 1.396 . S
C934 C935 1.399 . S
C935 H921 0.929 . S
C935 C934 1.399 . S
C935 C936 1.385 . S
C936 H922 0.931 . S
C936 C935 1.385 . S
C936 C937 1.389 . S
C937 C936 1.389 . S
C937 C938 1.387 . S
C938 H923 0.930 . S
C938 C933 1.390 . S
C938 C937 1.387 . S
H939 C951 0.930 . S
H940 C953 0.930 . S
H941 C954 0.930 . S
H942 C958 0.959 . S
H943 C958 0.959 . S
H944 C958 0.961 . S
H945 C959 0.960 . S
H946 C959 0.961 . S
H947 C959 0.959 . S
H948 C962 0.929 . S
H949 C963 0.931 . S
H950 C965 0.930 . S
C951 H939 0.930 . S
C951 C952 1.399 . S
C951 C956 1.399 . S
C952 C951 1.399 . S
C952 C953 1.376 . S
C953 H940 0.930 . S
C953 C952 1.376 . S
C953 C954 1.388 . S
C954 H941 0.930 . S
C954 C953 1.388 . S
C954 C955 1.390 . S
C955 C954 1.390 . S
C955 C956 1.394 . S
C955 C961 1.465 . S
C956 C951 1.399 . S
C956 C955 1.394 . S
C956 C957 1.516 . S
C957 C956 1.516 . S
C957 C958 1.502 . S
C957 C959 1.561 . S
C957 C960 1.526 . S
C958 H942 0.959 . S
C958 H943 0.959 . S
C958 H944 0.961 . S
C958 C957 1.502 . S
C959 H945 0.960 . S
C959 H946 0.961 . S
C959 H947 0.959 . S
C959 C957 1.561 . S
C960 C957 1.526 . S
C960 C961 1.396 . S
C960 C965 1.390 . S
C961 C955 1.465 . S
C961 C960 1.396 . S
C961 C962 1.399 . S
C962 H948 0.929 . S
C962 C961 1.399 . S
C962 C963 1.385 . S
C963 H949 0.931 . S
C963 C962 1.385 . S
C963 C964 1.389 . S
C964 C963 1.389 . S
C964 C965 1.387 . S
C965 H950 0.930 . S
C965 C960 1.390 . S
C965 C964 1.387 . S
H966 C978 0.930 . S
H967 C980 0.930 . S
H968 C981 0.930 . S
H969 C985 0.959 . S
H970 C985 0.959 . S
H971 C985 0.961 . S
H972 C986 0.960 . S
H973 C986 0.961 1_556 S
H974 C986 0.959 . S
H975 C989 0.929 1_554 S
H976 C990 0.931 . S
H977 C992 0.930 . S
C978 H966 0.930 . S
C978 C979 1.399 . S
C978 C983 1.399 . S
C979 C978 1.399 . S
C979 C980 1.376 . S
C980 H967 0.930 . S
C980 C979 1.376 . S
C980 C981 1.388 . S
C981 H968 0.930 . S
C981 C980 1.388 . S
C981 C982 1.390 . S
C982 C981 1.390 . S
C982 C983 1.394 . S
C982 C988 1.467 1_554 S
C983 C978 1.399 . S
C983 C982 1.394 . S
C983 C984 1.516 1_554 S
C984 C983 1.516 1_556 S
C984 C985 1.502 . S
C984 C986 1.561 1_556 S
C984 C987 1.526 . S
C985 H969 0.959 . S
C985 H970 0.959 . S
C985 H971 0.961 . S
C985 C984 1.502 . S
C986 H972 0.960 . S
C986 H973 0.961 1_554 S
C986 H974 0.959 . S
C986 C984 1.561 1_554 S
C987 C984 1.526 . S
C987 C988 1.395 . S
C987 C992 1.390 . S
C988 C982 1.467 1_556 S
C988 C987 1.395 . S
C988 C989 1.398 . S
C989 H975 0.929 1_556 S
C989 C988 1.398 . S
C989 C990 1.385 . S
C990 H976 0.931 . S
C990 C989 1.385 . S
C990 C991 1.389 . S
C991 C990 1.389 . S
C991 C992 1.387 . S
C992 H977 0.930 . S
C992 C987 1.390 . S
C992 C991 1.387 . S
H993 C1005 0.930 . S
H994 C1007 0.930 . S
H995 C1008 0.930 . S
H996 C1012 0.959 . S
H997 C1012 0.959 . S
H998 C1012 0.961 . S
H999 C1013 0.960 . S
H1000 C1013 0.961 . S
H1001 C1013 0.959 . S
H1002 C1016 0.929 . S
H1003 C1017 0.931 . S
H1004 C1019 0.930 . S
C1005 H993 0.930 . S
C1005 C1006 1.399 . S
C1005 C1010 1.399 . S
C1006 C1005 1.399 . S
C1006 C1007 1.376 . S
C1007 H994 0.930 . S
C1007 C1006 1.376 . S
C1007 C1008 1.388 . S
C1008 H995 0.930 . S
C1008 C1007 1.388 . S
C1008 C1009 1.390 . S
C1009 C1008 1.390 . S
C1009 C1010 1.394 . S
C1009 C1015 1.465 . S
C1010 C1005 1.399 . S
C1010 C1009 1.394 . S
C1010 C1011 1.516 . S
C1011 C1010 1.516 . S
C1011 C1012 1.502 . S
C1011 C1013 1.561 . S
C1011 C1014 1.526 . S
C1012 H996 0.959 . S
C1012 H997 0.959 . S
C1012 H998 0.961 . S
C1012 C1011 1.502 . S
C1013 H999 0.960 . S
C1013 H1000 0.961 . S
C1013 H1001 0.959 . S
C1013 C1011 1.561 . S
C1014 C1011 1.526 . S
C1014 C1015 1.396 . S
C1014 C1019 1.390 . S
C1015 C1009 1.465 . S
C1015 C1014 1.396 . S
C1015 C1016 1.399 . S
C1016 H1002 0.929 . S
C1016 C1015 1.399 . S
C1016 C1017 1.385 . S
C1017 H1003 0.931 . S
C1017 C1016 1.385 . S
C1017 C1018 1.389 . S
C1018 C1017 1.389 . S
C1018 C1019 1.387 . S
C1019 H1004 0.930 . S
C1019 C1014 1.390 . S
C1019 C1018 1.387 . S
C397 C363 1.326 . S
C385 C45 1.517 . S
C412 C84 1.579 . S
C424 C293 1.236 . S
C439 C126 1.510 . S
C451 C313 1.551 . S
C466 C189 1.464 . S
C478 C327 1.459 . S
C505 C335 1.232 . S
C493 C228 1.499 . S
C520 C270 1.455 . S
C532 C349 1.275 . S
C547 C69 1.555 . S
C559 C307 1.221 . S
C574 C141 1.493 . S
C586 C321 1.325 . S
C601 C174 1.423 . S
C613 C341 1.454 . S
C640 C355 1.523 . S
C628 C213 1.509 . S
C667 C369 1.500 . S
C655 C285 1.498 . S
C694 C299 1.519 . S
C682 C30 1.471 . S
C709 C36 1.464 . S
C721 C306 1.403 . S
C736 C93 1.459 . S
C748 C320 1.424 . S
C775 C342 1.444 . S
C763 C117 1.464 . S
C790 C180 1.471 . S
C802 C356 1.451 . S
C829 C370 1.435 . S
C817 C237 1.436 . S
C856 C300 1.402 . S
C844 C261 1.429 . S
C883 C362 1.436 . S
C871 C78 1.427 . S
C898 C132 1.463 . S
C910 C292 1.395 . S
C937 C314 1.439 . S
C925 C165 1.457 . S
C952 C222 1.455 . S
C964 C328 1.443 . S
C979 C276 1.493 . S
C991 C334 1.501 . S
C1006 C21 1.490 . S
C1018 C348 1.447 . S
