# Generated by pormake.
# Topology zzz, (3,6)-cn, num edge types: 1
# Building blocks:
#     Node 0, Type 0, BuildingBlock: PAMTOO_clean_linker_0, # of connection points: 3
#     Node 1, Type 0, BuildingBlock: PAMTOO_clean_linker_0, # of connection points: 3
#     Node 2, Type 0, BuildingBlock: PAMTOO_clean_linker_0, # of connection points: 3
#     Node 3, Type 0, BuildingBlock: PAMTOO_clean_linker_0, # of connection points: 3
#     Node 4, Type 0, BuildingBlock: PAMTOO_clean_linker_0, # of connection points: 3
#     Node 5, Type 0, BuildingBlock: PAMTOO_clean_linker_0, # of connection points: 3
#     Node 6, Type 0, BuildingBlock: PAMTOO_clean_linker_0, # of connection points: 3
#     Node 7, Type 0, BuildingBlock: PAMTOO_clean_linker_0, # of connection points: 3
#     Node 8, Type 1, BuildingBlock: KUMJIN_clean_sbu_0, # of connection points: 6
#     Node 9, Type 1, BuildingBlock: KUMJIN_clean_sbu_0, # of connection points: 6
#     Node 10, Type 1, BuildingBlock: KUMJIN_clean_sbu_0, # of connection points: 6
#     Node 11, Type 1, BuildingBlock: KUMJIN_clean_sbu_0, # of connection points: 6
#     Edge 12, Type (0, 1), BuildingBlock: KIFKEQ_clean_linker_1, # of connection points: 2
#     Edge 13, Type (0, 1), BuildingBlock: KIFKEQ_clean_linker_1, # of connection points: 2
#     Edge 14, Type (0, 1), BuildingBlock: KIFKEQ_clean_linker_1, # of connection points: 2
#     Edge 15, Type (0, 1), BuildingBlock: KIFKEQ_clean_linker_1, # of connection points: 2
#     Edge 16, Type (0, 1), BuildingBlock: KIFKEQ_clean_linker_1, # of connection points: 2
#     Edge 17, Type (0, 1), BuildingBlock: KIFKEQ_clean_linker_1, # of connection points: 2
#     Edge 18, Type (0, 1), BuildingBlock: KIFKEQ_clean_linker_1, # of connection points: 2
#     Edge 19, Type (0, 1), BuildingBlock: KIFKEQ_clean_linker_1, # of connection points: 2
#     Edge 20, Type (0, 1), BuildingBlock: KIFKEQ_clean_linker_1, # of connection points: 2
#     Edge 21, Type (0, 1), BuildingBlock: KIFKEQ_clean_linker_1, # of connection points: 2
#     Edge 22, Type (0, 1), BuildingBlock: KIFKEQ_clean_linker_1, # of connection points: 2
#     Edge 23, Type (0, 1), BuildingBlock: KIFKEQ_clean_linker_1, # of connection points: 2
#     Edge 24, Type (0, 1), BuildingBlock: KIFKEQ_clean_linker_1, # of connection points: 2
#     Edge 25, Type (0, 1), BuildingBlock: KIFKEQ_clean_linker_1, # of connection points: 2
#     Edge 26, Type (0, 1), BuildingBlock: KIFKEQ_clean_linker_1, # of connection points: 2
#     Edge 27, Type (0, 1), BuildingBlock: KIFKEQ_clean_linker_1, # of connection points: 2
#     Edge 28, Type (0, 1), BuildingBlock: KIFKEQ_clean_linker_1, # of connection points: 2
#     Edge 29, Type (0, 1), BuildingBlock: KIFKEQ_clean_linker_1, # of connection points: 2
#     Edge 30, Type (0, 1), BuildingBlock: KIFKEQ_clean_linker_1, # of connection points: 2
#     Edge 31, Type (0, 1), BuildingBlock: KIFKEQ_clean_linker_1, # of connection points: 2
#     Edge 32, Type (0, 1), BuildingBlock: KIFKEQ_clean_linker_1, # of connection points: 2
#     Edge 33, Type (0, 1), BuildingBlock: KIFKEQ_clean_linker_1, # of connection points: 2
#     Edge 34, Type (0, 1), BuildingBlock: KIFKEQ_clean_linker_1, # of connection points: 2
#     Edge 35, Type (0, 1), BuildingBlock: KIFKEQ_clean_linker_1, # of connection points: 2
# Relax obj value: 0.172
# Max RMSD: 0.164
# Mean RMSD: 0.115
data_MOF--net-zzz--node1-KUMJIN_clean_sbu_0--node2-PAMTOO_clean_linker_0--edge1-KIFKEQ_clean_linker_1
_symmetry_space_group_name_H-M    P1
_symmetry_Int_Tables_number       1
_symmetry_cell_setting            triclinic
loop_
_symmetry_equiv_pos_as_xyz
'x, y, z'
_cell_length_a     51.411281
_cell_length_b     51.386545
_cell_length_c     15.051055
_cell_angle_alpha  90.931055
_cell_angle_beta   89.976274
_cell_angle_gamma 90.041939
loop_
_atom_site_label
_atom_site_type_symbol
_atom_site_fract_x
_atom_site_fract_y
_atom_site_fract_z
_atom_type_partial_charge
H0 H 0.82493 0.5751 0.2105 0.0
H1 H 0.75156 0.57395 0.07417 0.0
H2 H 0.7642 0.52354 0.29677 0.0
H3 H 0.72056 0.50222 0.14048 0.0
C4 C 0.72159 0.52167 0.10954 0.0
O5 O 0.72921 0.53985 0.17438 0.0
H6 H 0.73664 0.52015 0.05644 0.0
C7 C 0.80503 0.56812 0.20585 0.0
C8 C 0.79678 0.54873 0.26365 0.0
C9 C 0.78906 0.57707 0.13731 0.0
C10 C 0.76374 0.56738 0.12812 0.0
C11 C 0.75431 0.54831 0.18548 0.0
C12 C 0.77105 0.53868 0.25337 0.0
H13 H 0.96298 0.83361 0.21545 0.0
H14 H 0.96414 0.75749 0.09178 0.0
H15 H 0.02079 0.77778 0.29236 0.0
H16 H 0.03954 0.73225 0.1271 0.0
C17 C 0.01892 0.73218 0.10513 0.0
O18 O 1.00337 0.73966 0.17767 0.0
H19 H 0.0176 0.74697 0.05204 0.0
C20 C 0.97084 0.81405 0.21116 0.0
C21 C 0.99216 0.80797 0.26502 0.0
C22 C 0.96104 0.79639 0.14702 0.0
C23 C 0.97178 0.77135 0.14017 0.0
C24 C 0.99347 0.76433 0.19041 0.0
C25 C 1.00399 0.7829 0.25303 0.0
H26 H 0.70565 0.96581 0.1944 0.0
H27 H 0.78353 0.96927 0.09319 0.0
H28 H 0.76221 0.01572 0.3226 0.0
H29 H 0.81115 0.04095 0.18424 0.0
C30 C 0.80928 0.02223 0.14674 0.0
O31 O 0.80081 1.00327 0.20562 0.0
H32 H 0.79436 0.02563 0.09456 0.0
C33 C 0.72548 0.97268 0.20149 0.0
C34 C 0.73145 0.99043 0.27077 0.0
C35 C 0.74388 0.96517 0.13696 0.0
C36 C 0.76919 0.97505 0.14239 0.0
C37 C 0.77594 0.99365 0.20702 0.0
C38 C 0.75697 1.00155 0.2717 0.0
H39 H 0.58152 0.71656 0.23795 0.0
H40 H 0.57822 0.7893 0.10172 0.0
H41 H 0.53261 0.77831 0.33869 0.0
H42 H 0.50828 0.82069 0.19461 0.0
C43 C 0.52662 0.81951 0.15563 0.0
O44 O 0.54657 0.81227 0.21247 0.0
H45 H 0.52352 0.80437 0.10287 0.0
C46 C 0.57471 0.73652 0.235 0.0
C47 C 0.55673 0.74543 0.29845 0.0
C48 C 0.5822 0.75198 0.16339 0.0
C49 C 0.57267 0.7774 0.15739 0.0
C50 C 0.55502 0.78723 0.22042 0.0
C51 C 0.54662 0.77102 0.29068 0.0
H52 H 0.21417 0.46893 0.10401 0.0
H53 H 0.28649 0.47024 0.24676 0.0
H54 H 0.27412 0.52306 0.03072 0.0
H55 H 0.30139 0.52023 0.28147 0.0
C56 C 0.31447 0.52367 0.22387 0.0
O57 O 0.30855 0.50638 0.15434 0.0
H58 H 0.31047 0.54372 0.20078 0.0
C59 C 0.2339 0.47622 0.11119 0.0
C60 C 0.24208 0.49647 0.05685 0.0
C61 C 0.24951 0.46697 0.18021 0.0
C62 C 0.27459 0.47705 0.19246 0.0
C63 C 0.28393 0.49708 0.13878 0.0
C64 C 0.26741 0.50714 0.07102 0.0
H65 H 0.07744 0.21191 0.09999 0.0
H66 H 0.07666 0.28756 0.22695 0.0
H67 H 0.01744 0.26679 0.03583 0.0
H68 H 0.02807 0.29856 0.28337 0.0
C69 C 0.02144 0.3109 0.22765 0.0
O70 O 0.03547 0.30471 0.1503 0.0
H71 H 1.00074 0.30572 0.21549 0.0
C72 C 0.06933 0.23132 0.10639 0.0
C73 C 0.0472 0.2372 0.05627 0.0
C74 C 0.07963 0.24887 0.16993 0.0
C75 C 0.06862 0.27375 0.17918 0.0
C76 C 0.04599 0.28048 0.13333 0.0
C77 C 0.03496 0.26192 0.07172 0.0
H78 H 0.33486 0.08009 0.09751 0.0
H79 H 0.26131 0.07497 0.23325 0.0
H80 H 0.27833 0.02311 0.01373 0.0
H81 H 0.21227 0.03717 0.05897 0.0
C82 C 0.21886 0.04601 0.12296 0.0
O83 O 0.24344 0.03611 0.14248 0.0
H84 H 0.21996 0.06738 0.11235 0.0
C85 C 0.31538 0.07214 0.10228 0.0
C86 C 0.3085 0.05167 0.04419 0.0
C87 C 0.29887 0.08045 0.17179 0.0
C88 C 0.27422 0.06893 0.1799 0.0
C89 C 0.26636 0.04852 0.12348 0.0
C90 C 0.28372 0.03962 0.05539 0.0
H91 H 0.46625 0.33016 0.10148 0.0
H92 H 0.4733 0.25787 0.23856 0.0
H93 H 0.51558 0.26954 0.99526 0.0
H94 H 0.50031 0.20512 0.04245 0.0
C95 C 0.49275 0.21277 0.10694 0.0
O96 O 0.50527 0.23615 0.12677 0.0
H97 H 0.47149 0.2159 0.09757 0.0
C98 C 0.47336 0.31029 0.10307 0.0
C99 C 0.49112 0.30188 0.03807 0.0
C100 C 0.46686 0.29463 0.1753 0.0
C101 C 0.47743 0.26963 0.18109 0.0
C102 C 0.49426 0.26 0.1152 0.0
C103 C 0.50137 0.27628 0.04349 0.0
Eu104 Eu 0.04061 1.0129 0.74817 0.0
C105 C 0.94746 1.00603 0.48207 0.0
C106 C 0.96167 0.9749 0.3701 0.0
C107 C 0.91555 0.98011 0.40023 0.0
C108 C 0.96738 0.99388 0.4363 0.0
C109 C 0.92127 0.99974 0.46317 0.0
C110 C 0.93573 0.96768 0.35386 0.0
C111 C 0.9082 0.0342 0.56448 0.0
N112 N 0.9536 0.02506 0.5417 0.0
C113 C 0.9344 0.03969 0.58101 0.0
C114 C 0.90158 1.01389 0.50618 0.0
Eu115 Eu 0.99838 0.0329 0.57101 0.0
N116 N 0.99222 1.00157 0.45301 0.0
C117 C 1.012 0.9922 0.40053 0.0
C118 C 0.98209 0.96426 0.32027 0.0
C119 C 1.00731 0.97324 0.33475 0.0
H120 H 0.93936 0.05526 0.62708 0.0
H121 H 0.02325 0.96547 0.29556 0.0
H122 H 0.93104 0.95299 0.30389 0.0
H123 H 0.89314 0.04555 0.59715 0.0
H124 H 0.03177 0.99826 0.41009 0.0
H125 H 0.01478 0.07925 0.02567 0.0
H126 H 0.97853 0.9496 0.26916 0.0
H127 H 0.09999 0.99168 0.69103 0.0
H128 H 1.00673 0.04658 0.91041 0.0
H129 H 0.14606 1.00217 0.72081 0.0
H130 H 0.89559 0.97486 0.38539 0.0
H131 H 0.05925 0.09579 0.05224 0.0
H132 H 0.10676 0.09325 0.01723 0.0
H133 H 0.88126 1.00967 0.49337 0.0
H134 H 0.14253 0.0722 0.93487 0.0
N135 N 0.0463 0.04405 0.86698 0.0
C136 C 0.02641 0.05297 0.91986 0.0
C137 C 0.0559 0.08119 1.00073 0.0
C138 C 0.07647 0.07102 0.95049 0.0
C139 C 0.03082 0.07184 0.98614 0.0
C140 C 0.07103 0.05211 0.88376 0.0
H141 H 0.15738 0.03797 0.82562 0.0
N142 N 0.08529 0.02146 0.77724 0.0
C143 C 0.13083 1.01316 0.7539 0.0
C144 C 0.09113 0.04043 0.83745 0.0
C145 C 0.10471 1.00724 0.73745 0.0
C146 C 0.13713 0.03343 0.8128 0.0
C147 C 0.11722 0.04711 0.8564 0.0
O148 O 0.0607 0.97934 0.80287 0.0
O149 O 0.01543 0.99779 0.63516 0.0
O150 O 0.9719 0.01466 0.67585 0.0
O151 O 0.99851 0.0164 0.80045 0.0
O152 O 0.05227 0.98247 0.64404 0.0
O153 O 0.0216 0.98796 0.84517 0.0
O154 O 0.97897 0.06685 0.51623 0.0
O155 O 0.02346 0.0479 0.68422 0.0
O156 O 0.06694 0.0313 0.64295 0.0
O157 O 0.04036 0.0289 0.51855 0.0
O158 O 0.98671 0.06331 0.67534 0.0
O159 O 0.0178 0.05735 0.47343 0.0
C160 C 0.0306 0.98064 0.60168 0.0
C161 C 0.03113 0.94414 0.80704 0.0
C162 C 0.99672 0.91151 0.78889 0.0
C163 C 1.00562 0.93557 0.82334 0.0
C164 C 1.01354 0.89662 0.73442 0.0
C165 C 0.04766 0.92855 0.75406 0.0
C166 C 0.03874 0.90516 0.71715 0.0
C167 C 0.9752 1.01364 0.76315 0.0
C168 C 0.03963 0.97024 0.8386 0.0
C169 C 0.12264 0.06665 0.91995 0.0
C170 C 0.10229 0.07862 0.96683 0.0
C171 C 1.00833 0.06501 0.71806 0.0
C172 C 1.00931 0.10139 0.51106 0.0
C173 C 0.03476 0.10966 0.49201 0.0
C174 C 0.04432 0.13351 0.52612 0.0
C175 C 0.02822 0.14853 0.58272 0.0
C176 C 0.9935 0.11712 0.56616 0.0
C177 C 1.00308 0.14031 0.60254 0.0
C178 C 0.06365 0.03196 0.5556 0.0
C179 C 1.00019 0.07546 0.48003 0.0
H180 H 0.99272 0.94766 0.8632 0.0
H181 H 1.00774 0.87778 0.70798 0.0
H182 H 0.06736 0.93463 0.73941 0.0
H183 H 0.05154 0.89343 0.67582 0.0
H184 H 0.0471 0.09748 0.45039 0.0
H185 H 0.03454 0.16722 0.60898 0.0
H186 H 0.97387 0.1113 0.58289 0.0
H187 H 0.99083 0.15215 0.64553 0.0
Eu188 Eu 0.52879 0.04635 0.74693 0.0
C189 C 0.54352 0.94834 0.50008 0.0
C190 C 0.57411 0.96226 0.38834 0.0
C191 C 0.57243 0.91677 0.42922 0.0
C192 C 0.5543 0.96799 0.45077 0.0
C193 C 0.55199 0.92238 0.48834 0.0
C194 C 0.58352 0.9367 0.37944 0.0
C195 C 0.51806 0.90908 0.58889 0.0
N196 N 0.52377 0.95436 0.55619 0.0
C197 C 0.51044 0.93509 0.5985 0.0
C198 C 0.53918 0.90273 0.53453 0.0
Eu199 Eu 0.51245 0.99895 0.57416 0.0
N200 N 0.54453 0.99243 0.46048 0.0
C201 C 0.55261 1.01156 0.40449 0.0
C202 C 0.58339 0.98221 0.33491 0.0
C203 C 0.57229 1.00686 0.34212 0.0
H204 H 0.49432 0.93993 0.64181 0.0
H205 H 0.57901 0.02237 0.30003 0.0
H206 H 0.59889 0.93204 0.33253 0.0
H207 H 0.50777 0.89401 0.62398 0.0
H208 H 0.54487 0.03091 0.40872 0.0
H209 H 0.46361 0.02102 0.02337 0.0
H210 H 0.59865 0.97864 0.28656 0.0
H211 H 0.54505 0.10562 0.67703 0.0
H212 H 0.49621 1.01289 0.90952 0.0
H213 H 0.53179 0.15144 0.6996 0.0
H214 H 0.57938 0.89701 0.41996 0.0
H215 H 0.44534 0.06506 0.04554 0.0
H216 H 0.44541 0.11205 1.00509 0.0
H217 H 0.54508 0.88256 0.52719 0.0
H218 H 0.4639 0.14752 0.91738 0.0
N219 N 0.49727 0.05201 0.86316 0.0
C220 C 0.48917 0.03242 0.91732 0.0
C221 C 0.45996 0.06169 0.99476 0.0
C222 C 0.46901 0.08199 0.94246 0.0
C223 C 0.47029 0.03686 0.98266 0.0
C224 C 0.48799 0.07653 0.87672 0.0
H225 H 0.49623 0.16242 0.80437 0.0
N226 N 0.51696 0.09074 0.76691 0.0
C227 C 0.52208 0.13619 0.73568 0.0
C228 C 0.49815 0.09647 0.82706 0.0
C229 C 0.52955 0.11024 0.72322 0.0
C230 C 0.50197 0.14229 0.79462 0.0
C231 C 0.48995 0.1224 0.84205 0.0
O232 O 0.56045 0.0704 0.79893 0.0
O233 O 0.54526 0.01978 0.64078 0.0
O234 O 0.53294 0.97677 0.68407 0.0
O235 O 0.52757 1.00509 0.80479 0.0
O236 O 0.55938 0.05722 0.64374 0.0
O237 O 0.55524 0.03161 0.84823 0.0
O238 O 0.47951 0.97619 0.52482 0.0
O239 O 0.49581 0.02559 0.68047 0.0
O240 O 0.50851 0.06847 0.63605 0.0
O241 O 0.51414 0.04003 0.51601 0.0
O242 O 0.48193 0.98805 0.67678 0.0
O243 O 0.48794 1.01334 0.46684 0.0
C244 C 0.56198 0.03469 0.60616 0.0
C245 C 0.59803 0.04447 0.80853 0.0
C246 C 0.63187 1.01209 0.77705 0.0
C247 C 0.60716 0.0187 0.81097 0.0
C248 C 0.64681 0.03158 0.73638 0.0
C249 C 0.61363 0.0636 0.7692 0.0
C250 C 0.63764 0.05705 0.73226 0.0
C251 C 0.5327 0.98159 0.77084 0.0
C252 C 0.57136 0.05097 0.83862 0.0
C253 C 0.47055 0.12777 0.90535 0.0
C254 C 0.46006 0.10758 0.95532 0.0
C255 C 0.47916 1.01048 0.71484 0.0
C256 C 0.44418 1.00476 0.50713 0.0
C257 C 0.43693 0.0309 0.49567 0.0
C258 C 0.41306 0.04036 0.52868 0.0
C259 C 0.39692 0.02343 0.57663 0.0
C260 C 0.42735 0.98816 0.55341 0.0
C261 C 0.40409 0.99759 0.58887 0.0
C262 C 0.50886 0.06353 0.54935 0.0
C263 C 0.47031 0.99554 0.47997 0.0
H264 H 0.59503 1.00377 0.83955 0.0
H265 H 0.66611 0.02755 0.71093 0.0
H266 H 0.60704 0.08357 0.76531 0.0
H267 H 0.64942 0.07188 0.70153 0.0
H268 H 0.4499 0.0439 0.46102 0.0
H269 H 0.37817 0.02972 0.60166 0.0
H270 H 0.43244 0.96801 0.56422 0.0
H271 H 0.39142 0.98472 0.62519 0.0
Eu272 Eu 0.54366 0.51484 0.58572 0.0
C273 C 0.43601 0.50942 0.76901 0.0
C274 C 0.40686 0.52993 0.66554 0.0
C275 C 0.39089 0.49526 0.7587 0.0
C276 C 0.43193 0.52711 0.70273 0.0
C277 C 0.41532 0.49389 0.8 0.0
C278 C 0.38666 0.51329 0.69155 0.0
C279 C 0.44321 0.4798 0.91875 0.0
N280 N 0.45958 0.50913 0.80892 0.0
C281 C 0.4629 0.49581 0.88627 0.0
C282 C 0.41943 0.47842 0.8743 0.0
Eu283 Eu 0.49347 0.53455 0.74524 0.0
N284 N 0.45189 0.54295 0.67959 0.0
C285 C 0.44711 0.56373 0.62618 0.0
C286 C 0.40256 0.55001 0.60588 0.0
C287 C 0.42266 0.5673 0.58758 0.0
H288 H 0.48117 0.49711 0.92162 0.0
H289 H 0.41938 0.58337 0.54334 0.0
H290 H 0.36745 0.51489 0.66253 0.0
H291 H 0.44633 0.46868 0.97828 0.0
H292 H 0.46199 0.57753 0.61078 0.0
H293 H 0.61361 0.46038 0.78789 0.0
H294 H 0.38365 0.5528 0.57573 0.0
H295 H 0.55652 0.55889 0.42913 0.0
H296 H 0.57138 0.46975 0.72326 0.0
H297 H 0.5935 0.58514 0.37591 0.0
H298 H 0.37489 0.48324 0.78068 0.0
H299 H 0.65161 0.48787 0.75382 0.0
H300 H 0.67047 0.52481 0.66908 0.0
H301 H 0.40406 0.46623 0.90007 0.0
H302 H 0.66505 0.55878 0.5575 0.0
N303 N 0.58421 0.50309 0.65171 0.0
C304 C 0.58735 0.48214 0.70587 0.0
C305 C 0.63292 0.49216 0.72418 0.0
C306 C 0.63007 0.51272 0.6654 0.0
C307 C 0.61154 0.4766 0.74345 0.0
C308 C 0.60524 0.51763 0.62902 0.0
H309 H 0.63664 0.58104 0.44695 0.0
N310 N 0.57842 0.54045 0.5303 0.0
C311 C 0.59622 0.57176 0.42992 0.0
C312 C 0.60222 0.53691 0.5668 0.0
C313 C 0.57538 0.55681 0.46002 0.0
C314 C 0.62049 0.56945 0.47038 0.0
C315 C 0.62386 0.5516 0.53867 0.0
O316 O 0.54986 0.50807 0.44429 0.0
O317 O 0.50011 0.51693 0.60953 0.0
O318 O 0.49673 0.49044 0.75452 0.0
O319 O 0.53151 0.47855 0.6629 0.0
O320 O 0.51366 0.53062 0.48966 0.0
O321 O 0.54751 0.47522 0.53228 0.0
O322 O 0.48264 0.54771 0.87888 0.0
O323 O 0.53648 0.53099 0.72176 0.0
O324 O 0.54613 0.55889 0.60672 0.0
O325 O 0.50397 0.56816 0.65154 0.0
O326 O 0.52351 0.52042 0.84525 0.0
O327 O 0.49684 0.57549 0.78511 0.0
C328 C 0.49303 0.5258 0.53498 0.0
C329 C 0.52896 0.47106 0.38783 0.0
C330 C 0.48981 0.44545 0.35688 0.0
C331 C 0.50733 0.4569 0.41794 0.0
C332 C 0.4937 0.4497 0.26533 0.0
C333 C 0.53235 0.47488 0.29657 0.0
C334 C 0.51462 0.46449 0.23583 0.0
C335 C 0.51321 0.47299 0.72185 0.0
C336 C 0.54769 0.48297 0.45002 0.0
C337 C 0.64829 0.5475 0.57754 0.0
C338 C 0.65138 0.52813 0.6409 0.0
C339 C 0.54399 0.52308 0.79692 0.0
C340 C 0.51087 0.58003 0.93479 0.0
C341 C 0.5337 0.59315 0.90958 0.0
C342 C 0.55131 0.60264 0.97409 0.0
C343 C 0.54627 0.59729 0.06424 0.0
C344 C 0.50637 0.57513 0.02488 0.0
C345 C 0.52419 0.58341 0.08895 0.0
C346 C 0.52657 0.57542 0.61684 0.0
C347 C 0.49175 0.57099 0.86809 0.0
H348 H 0.50439 0.45455 0.48861 0.0
H349 H 0.48129 0.44072 0.2155 0.0
H350 H 0.54872 0.48602 0.27233 0.0
H351 H 0.51744 0.46739 0.16539 0.0
H352 H 0.5375 0.59631 0.83986 0.0
H353 H 0.55867 0.60473 0.11685 0.0
H354 H 0.48903 0.5649 0.04575 0.0
H355 H 0.52051 0.57968 0.15843 0.0
Eu356 Eu 0.03156 0.54453 0.57801 0.0
C357 C 0.02551 0.44045 0.73035 0.0
C358 C 0.99641 0.41769 0.62928 0.0
C359 C 0.03232 0.39443 0.69562 0.0
C360 C 1.00437 0.44081 0.67396 0.0
C361 C 0.03925 0.41699 0.74379 0.0
C362 C 1.01087 0.39476 0.63869 0.0
C363 C 0.06304 0.43853 0.86145 0.0
N364 N 0.03141 0.46242 0.77727 0.0
C365 C 0.0486 0.46107 0.84681 0.0
C366 C 0.05878 0.41653 0.80826 0.0
Eu367 Eu 1.00741 0.50105 0.74345 0.0
N368 N 0.99098 0.46342 0.66515 0.0
C369 C 0.96805 0.4633 0.61876 0.0
C370 C 0.97394 0.41815 0.57736 0.0
C371 C 0.95946 0.44096 0.57341 0.0
H372 H 0.05126 0.47739 0.89205 0.0
H373 H 0.94154 0.44134 0.53573 0.0
H374 H 1.00529 0.37703 0.60364 0.0
H375 H 0.07713 0.43803 0.91482 0.0
H376 H 0.95568 0.48001 0.61671 0.0
H377 H 0.09836 0.60382 0.78364 0.0
H378 H 0.96727 0.40088 0.54188 0.0
H379 H 0.98717 0.56881 0.4321 0.0
H380 H 0.08407 0.56546 0.70128 0.0
H381 H 0.96088 0.60807 0.41325 0.0
H382 H 0.04287 0.3764 0.70428 0.0
H383 H 0.07223 0.64409 0.7819 0.0
H384 H 0.03357 0.66791 0.72461 0.0
H385 H 0.06974 0.39895 0.82047 0.0
H386 H 0.99546 0.66877 0.62636 0.0
N387 N 0.04827 0.58197 0.65676 0.0
C388 C 0.07151 0.58205 0.70141 0.0
C389 C 0.06548 0.62693 0.74595 0.0
C390 C 0.04267 0.62746 0.69576 0.0
C391 C 0.08019 0.60424 0.74743 0.0
C392 C 0.03466 0.60451 0.65019 0.0
H393 H 0.96829 0.64666 0.50998 0.0
N394 N 1.00728 0.58324 0.54713 0.0
C395 C 0.97517 0.60738 0.46596 0.0
C396 C 1.01323 0.60501 0.59511 0.0
C397 C 0.98985 0.58487 0.4784 0.0
C398 C 0.97945 0.62909 0.52048 0.0
C399 C 0.99925 0.62843 0.58393 0.0
O400 O 0.03773 0.55553 0.43987 0.0
O401 O 0.02835 0.50157 0.61123 0.0
O402 O 0.05005 0.50832 0.77757 0.0
O403 O 0.06681 0.52657 0.64994 0.0
O404 O 0.01793 0.51263 0.48375 0.0
O405 O 0.07069 0.54693 0.52311 0.0
O406 O 1.00091 0.49071 0.882 0.0
O407 O 1.01064 0.54393 0.71014 0.0
O408 O 0.989 0.53705 0.54332 0.0
O409 O 0.97218 0.51896 0.67115 0.0
O410 O 0.0213 0.53299 0.83736 0.0
O411 O 0.96813 0.49868 0.79718 0.0
C412 C 0.0209 0.49298 0.53493 0.0
C413 C 0.07263 0.53327 0.3723 0.0
C414 C 0.09709 0.49449 0.32616 0.0
C415 C 0.08564 0.51007 0.39331 0.0
C416 C 0.09357 0.50176 0.23682 0.0
C417 C 0.06939 0.53995 0.28316 0.0
C418 C 0.07951 0.52405 0.2158 0.0
C419 C 0.06992 0.51639 0.72977 0.0
C420 C 0.06252 0.55078 0.4425 0.0
C421 C 1.00621 0.65078 0.6332 0.0
C422 C 0.02796 0.65032 0.68879 0.0
C423 C 0.01825 0.55261 0.7861 0.0
C424 C 0.96583 0.51331 0.9469 0.0
C425 C 0.9527 0.53624 0.9237 0.0
C426 C 0.94116 0.55229 0.98937 0.0
C427 C 0.94476 0.54579 0.0794 0.0
C428 C 0.96913 0.50738 0.03668 0.0
C429 C 0.95894 0.52378 0.10253 0.0
C430 C 0.9691 0.5291 0.59122 0.0
C431 C 0.97612 0.49536 0.87832 0.0
H432 H 0.08731 0.50456 0.46216 0.0
H433 H 0.10253 0.49099 0.1826 0.0
H434 H 0.05917 0.55758 0.26572 0.0
H435 H 0.07717 0.52944 0.14703 0.0
H436 H 0.95099 0.5412 0.85432 0.0
H437 H 0.93574 0.55695 0.13261 0.0
H438 H 0.97945 0.48997 0.05578 0.0
H439 H 0.96133 0.51897 0.17183 0.0
H440 H 0.21306 0.07051 0.28763 0.0
H441 H 0.1777 1.01125 0.12213 0.0
H442 H 0.17671 0.06757 0.39268 0.0
H443 H 0.14164 1.00783 0.22703 0.0
H444 H 0.06608 0.02778 0.37254 0.0
H445 H 0.10381 0.02989 0.27552 0.0
H446 H 0.1531 0.04447 0.50299 0.0
H447 H 0.11499 0.04309 0.60002 0.0
C448 C 0.1978 0.05642 0.2746 0.0
C449 C 0.19853 0.04109 0.19611 0.0
C450 C 0.17678 0.05472 0.33499 0.0
C451 C 0.15563 0.03766 0.31894 0.0
C452 C 0.15699 0.02166 0.24179 0.0
C453 C 0.17798 0.02335 0.18172 0.0
C454 C 0.08489 0.03134 0.40254 0.0
C455 C 0.08716 0.03463 0.49548 0.0
C456 C 0.10681 0.03239 0.34632 0.0
C457 C 0.13205 0.03693 0.38031 0.0
C458 C 0.13425 0.04092 0.47317 0.0
C459 C 0.11225 0.03982 0.52951 0.0
H460 H 0.46476 0.20606 0.26154 0.0
H461 H 0.52936 0.17363 0.11517 0.0
H462 H 0.46765 0.17067 0.36817 0.0
H463 H 0.53284 0.13854 0.22233 0.0
H464 H 0.51505 0.06349 0.3673 0.0
H465 H 0.51183 0.09976 0.26628 0.0
H466 H 0.49058 0.15064 0.48557 0.0
H467 H 0.49286 0.11396 0.58612 0.0
C468 C 0.47987 0.19155 0.25301 0.0
C469 C 0.4967 0.19262 0.17938 0.0
C470 C 0.48159 0.17119 0.31434 0.0
C471 C 0.50031 0.15125 0.30416 0.0
C472 C 0.51775 0.15299 0.23198 0.0
C473 C 0.51599 0.17334 0.17078 0.0
C474 C 0.50975 0.08235 0.39452 0.0
C475 C 0.50501 0.08566 0.48624 0.0
C476 C 0.50806 0.10339 0.33616 0.0
C477 C 0.50143 0.12859 0.36707 0.0
C478 C 0.4958 0.13172 0.45841 0.0
C479 C 0.49746 0.11061 0.51679 0.0
H480 H 0.34912 0.56332 0.25577 0.0
H481 H 0.34267 0.48015 0.27808 0.0
H482 H 0.39086 0.56252 0.33087 0.0
H483 H 0.38546 0.47897 0.35136 0.0
H484 H 0.45234 0.49063 0.56151 0.0
H485 H 0.41049 0.48838 0.48223 0.0
H486 H 0.4345 0.55277 0.32037 0.0
H487 H 0.47529 0.55539 0.40133 0.0
C488 C 0.35701 0.54464 0.27438 0.0
C489 C 0.34264 0.52172 0.25793 0.0
C490 C 0.38121 0.54413 0.31792 0.0
C491 C 0.39226 0.52063 0.34725 0.0
C492 C 0.37788 0.49755 0.33068 0.0
C493 C 0.35343 0.49812 0.28719 0.0
C494 C 0.44838 0.50452 0.50991 0.0
C495 C 0.46688 0.52386 0.49034 0.0
C496 C 0.42446 0.50302 0.46316 0.0
C497 C 0.4184 0.52071 0.39495 0.0
C498 C 0.43759 0.53927 0.37377 0.0
C499 C 0.46128 0.54072 0.42016 0.0
H500 H 0.06502 0.33982 0.28285 0.0
H501 H 0.98201 0.34642 0.25489 0.0
H502 H 0.06631 0.3829 0.35685 0.0
H503 H 0.98288 0.3884 0.33086 0.0
H504 H 0.9897 0.47314 0.40687 0.0
H505 H 0.99174 0.43183 0.32708 0.0
H506 H 0.05802 0.40957 0.48471 0.0
H507 H 0.05634 0.45211 0.56279 0.0
C508 C 0.04709 0.35066 0.29068 0.0
C509 C 0.02351 0.33964 0.25988 0.0
C510 C 0.04771 0.37533 0.33485 0.0
C511 C 0.02472 0.38991 0.35065 0.0
C512 C 1.00126 0.37872 0.31901 0.0
C513 C 1.0007 0.35431 0.27475 0.0
C514 C 1.0046 0.45936 0.42553 0.0
C515 C 0.0221 0.4658 0.49445 0.0
C516 C 1.00574 0.4353 0.37957 0.0
C517 C 0.02469 0.41637 0.39939 0.0
C518 C 0.04299 0.4232 0.46652 0.0
C519 C 0.04182 0.44756 0.51281 0.0
H520 H 0.81857 0.98962 1.00136 0.0
H521 H 0.85867 0.04104 0.18366 0.0
H522 H 0.85835 0.98465 0.9134 0.0
H523 H 0.8982 0.03707 0.0948 0.0
H524 H 0.97247 0.01591 0.94696 0.0
H525 H 0.93427 0.01456 0.04241 0.0
H526 H 0.88537 1.00454 0.81114 0.0
H527 H 0.92378 1.00456 0.71659 0.0
C528 C 0.83603 0.99955 0.0236 0.0
C529 C 0.83524 0.01561 0.10032 0.0
C530 C 0.85893 0.99708 0.97209 0.0
C531 C 0.88198 1.01068 0.99506 0.0
C532 C 0.88132 0.02594 0.0741 0.0
C533 C 0.85846 0.02829 0.12566 0.0
C534 C 0.95363 1.01336 0.91604 0.0
C535 C 0.95156 1.01105 0.82273 0.0
C536 C 0.93143 1.01276 0.97134 0.0
C537 C 0.90611 1.00981 0.93586 0.0
C538 C 0.90419 1.00671 0.84255 0.0
C539 C 0.92642 1.00715 0.7874 0.0
H540 H 0.50074 0.86627 0.17563 0.0
H541 H 0.56389 0.83092 0.02959 0.0
H542 H 0.50479 0.90547 0.08759 0.0
H543 H 0.56872 0.87051 0.94262 0.0
H544 H 0.54877 0.9315 0.73138 0.0
H545 H 0.54928 0.89393 0.82765 0.0
H546 H 0.52767 0.94329 0.05062 0.0
H547 H 0.52594 0.98056 0.95304 0.0
C548 C 0.51594 0.86711 0.12591 0.0
C549 C 0.53206 0.84538 0.11013 0.0
C550 C 0.51836 0.88974 0.07516 0.0
C551 C 0.53703 0.89151 1.00671 0.0
C552 C 0.55377 0.87 0.9932 0.0
C553 C 0.55127 0.84731 0.04397 0.0
C554 C 0.54375 0.93436 0.8006 0.0
C555 C 0.53632 0.95916 0.83286 0.0
C556 C 0.54447 0.91272 0.85671 0.0
C557 C 0.53814 0.91511 0.94774 0.0
C558 C 0.53198 0.94022 0.98084 0.0
C559 C 0.53113 0.96183 0.92452 0.0
H560 H 0.67237 0.51817 0.18313 0.0
H561 H 0.71059 0.53754 0.93833 0.0
H562 H 0.63005 0.52074 0.10901 0.0
H563 H 0.66844 0.53952 0.86307 0.0
H564 H 0.58483 0.55718 0.76255 0.0
H565 H 0.62689 0.56032 0.83999 0.0
H566 H 0.60437 0.49654 1.00681 0.0
H567 H 0.56269 0.4938 0.93027 0.0
C568 C 0.67172 0.5234 0.11375 0.0
C569 C 0.69504 0.52771 0.06724 0.0
C570 C 0.64739 0.52455 0.07048 0.0
C571 C 0.64543 0.53 0.97887 0.0
C572 C 0.66878 0.53545 0.93342 0.0
C573 C 0.69311 0.5343 0.97679 0.0
C574 C 0.58909 0.54365 0.81499 0.0
C575 C 0.57059 0.52472 0.83827 0.0
C576 C 0.61323 0.54549 0.85998 0.0
C577 C 0.61945 0.52871 0.93063 0.0
C578 C 0.60056 0.51014 0.95421 0.0
C579 C 0.57659 0.50835 0.90946 0.0
H580 H 0.02821 0.68312 0.17373 0.0
H581 H 0.99689 0.7194 0.94138 0.0
H582 H 0.02586 0.64059 0.09835 0.0
H583 H 0.99513 0.67708 0.86448 0.0
H584 H 0.9813 0.59205 0.76037 0.0
H585 H 0.9779 0.63412 0.84058 0.0
H586 H 0.04693 0.61545 0.98974 0.0
H587 H 0.0498 0.57381 0.91121 0.0
C588 C 0.02034 0.682 0.10705 0.0
C589 C 1.01259 0.70497 0.06462 0.0
C590 C 0.01935 0.6575 0.06266 0.0
C591 C 1.01067 0.65486 0.97356 0.0
C592 C 1.00181 0.67778 0.93268 0.0
C593 C 1.00278 0.70227 0.97719 0.0
C594 C 0.99593 0.59718 0.80935 0.0
C595 C 0.0164 0.57971 0.8267 0.0
C596 C 0.99396 0.62138 0.85613 0.0
C597 C 1.01211 0.62877 0.92299 0.0
C598 C 0.03221 0.61087 0.94058 0.0
C599 C 0.03409 0.58688 0.89429 0.0
H600 H 0.0785 0.25893 0.34854 0.0
H601 H 0.12153 0.21563 0.14882 0.0
H602 H 0.09092 0.22804 0.45845 0.0
H603 H 0.13376 0.18399 0.26032 0.0
H604 H 0.07992 0.1643 0.61696 0.0
H605 H 0.11045 0.19421 0.54779 0.0
H606 H 0.09648 0.15655 0.29348 0.0
H607 H 0.06581 0.12779 0.36053 0.0
C608 C 0.09187 0.24364 0.32868 0.0
C609 C 0.0977 0.23885 0.23863 0.0
C610 C 0.09916 0.22573 0.39257 0.0
C611 C 0.11203 0.20264 0.36692 0.0
C612 C 0.12289 0.20107 0.28121 0.0
C613 C 0.1157 0.21911 0.21715 0.0
C614 C 0.0839 0.16204 0.54658 0.0
C615 C 0.06933 0.1445 0.49362 0.0
C616 C 0.10169 0.17896 0.50727 0.0
C617 C 0.10521 0.17847 0.41461 0.0
C618 C 0.0942 0.1578 0.36496 0.0
C619 C 0.07627 0.14116 0.40383 0.0
H620 H 0.2902 0.0756 0.35023 0.0
H621 H 0.33266 0.12225 0.16262 0.0
H622 H 0.32069 0.08715 0.46427 0.0
H623 H 0.36412 0.13338 0.27842 0.0
H624 H 0.42102 0.0653 0.37166 0.0
H625 H 0.39278 0.09709 0.30871 0.0
H626 H 0.35332 0.10667 0.56065 0.0
H627 H 0.38262 0.07487 0.62575 0.0
C628 C 0.30526 0.08946 0.3339 0.0
C629 C 0.30979 0.09676 0.24559 0.0
C630 C 0.32295 0.09627 0.40035 0.0
C631 C 0.34573 0.11003 0.37924 0.0
C632 C 0.34726 0.12187 0.29578 0.0
C633 C 0.32937 0.11524 0.22918 0.0
C634 C 0.40736 0.07502 0.41568 0.0
C635 C 0.40316 0.06637 0.50264 0.0
C636 C 0.39103 0.09362 0.37924 0.0
C637 C 0.36987 0.10352 0.42849 0.0
C638 C 0.36888 0.09865 0.52013 0.0
C639 C 0.38545 0.08015 0.55703 0.0
H640 H 0.48653 0.30059 0.34024 0.0
H641 H 0.41878 0.31758 0.18347 0.0
H642 H 0.47701 0.33658 0.43781 0.0
H643 H 0.40734 0.3528 0.28613 0.0
H644 H 0.44183 0.43482 0.28292 0.0
H645 H 0.42112 0.39307 0.28546 0.0
H646 H 0.46789 0.37218 0.51262 0.0
H647 H 0.49125 0.41259 0.50093 0.0
C648 C 0.46864 0.31127 0.32983 0.0
C649 C 0.454 0.30714 0.25255 0.0
C650 C 0.46297 0.33228 0.38628 0.0
C651 C 0.44241 0.34949 0.3664 0.0
C652 C 0.42456 0.34151 0.30001 0.0
C653 C 0.43075 0.32096 0.24174 0.0
C654 C 0.44783 0.42125 0.33327 0.0
C655 C 0.46989 0.42621 0.38588 0.0
C656 C 0.43548 0.3971 0.33618 0.0
C657 C 0.44456 0.37768 0.39376 0.0
C658 C 0.46198 0.38548 0.46146 0.0
C659 C 0.47516 0.40919 0.45595 0.0
H660 H 0.24293 0.48121 0.35159 0.0
H661 H 0.22579 0.41923 0.1647 0.0
H662 H 0.204 0.47183 0.43235 0.0
H663 H 0.18732 0.40786 0.24996 0.0
H664 H 0.10866 0.44989 0.22904 0.0
H665 H 0.14906 0.42679 0.23489 0.0
H666 H 0.16587 0.46287 0.49042 0.0
H667 H 0.1273 0.48892 0.4777 0.0
C668 C 0.23158 0.46435 0.33119 0.0
C669 C 0.23659 0.45174 0.24988 0.0
C670 C 0.20882 0.45885 0.37765 0.0
C671 C 0.19086 0.44039 0.34359 0.0
C672 C 0.19944 0.42363 0.27442 0.0
C673 C 0.22185 0.4297 0.2263 0.0
C674 C 0.12105 0.45316 0.28628 0.0
C675 C 0.11557 0.47307 0.34857 0.0
C676 C 0.14431 0.43926 0.29103 0.0
C677 C 0.1623 0.44442 0.35996 0.0
C678 C 0.15374 0.45985 0.43244 0.0
C679 C 0.13103 0.47461 0.42579 0.0
H680 H 0.91888 0.82938 0.1634 0.0
H681 H 0.96392 0.78614 0.9689 0.0
H682 H 0.90661 0.86026 0.04945 0.0
H683 H 0.95163 0.81638 0.85656 0.0
H684 H 0.97366 0.91758 0.95188 0.0
H685 H 0.94311 0.8885 0.01748 0.0
H686 H 0.93208 0.84933 0.76403 0.0
H687 H 0.96247 0.87962 0.69611 0.0
C688 C 0.92519 0.82576 0.09565 0.0
C689 C 0.94361 0.80624 0.0763 0.0
C690 C 0.91799 0.84335 0.03018 0.0
C691 C 0.9294 0.84166 0.94529 0.0
C692 C 0.94294 0.81878 0.92173 0.0
C693 C 0.95016 0.80127 0.98697 0.0
C694 C 0.96385 0.9038 0.90825 0.0
C695 C 0.97163 0.90019 0.81937 0.0
C696 C 0.94598 0.88695 0.9463 0.0
C697 C 0.9359 0.86578 0.89682 0.0
C698 C 0.94016 0.86497 0.80452 0.0
C699 C 0.95788 0.88211 0.76597 0.0
H700 H 0.75578 0.97608 0.96529 0.0
H701 H 0.71142 0.92263 0.1239 0.0
H702 H 0.72749 0.96773 0.84092 0.0
H703 H 0.68277 0.91398 0.99762 0.0
H704 H 0.62402 0.98151 0.922 0.0
H705 H 0.65329 0.94953 0.9768 0.0
H706 H 0.69697 0.95144 0.73157 0.0
H707 H 0.66653 0.98341 0.67404 0.0
C708 C 0.74084 0.96138 0.97228 0.0
C709 C 0.73495 0.95105 0.05572 0.0
C710 C 0.7245 0.9564 0.90011 0.0
C711 C 0.70191 0.94129 0.91088 0.0
C712 C 0.69944 0.92658 0.98849 0.0
C713 C 0.71575 0.93164 0.06102 0.0
C714 C 0.63889 0.97433 0.87705 0.0
C715 C 0.64363 0.98622 0.79513 0.0
C716 C 0.65589 0.9556 0.90881 0.0
C717 C 0.67831 0.94874 0.86021 0.0
C718 C 0.68037 0.95704 0.77189 0.0
C719 C 0.6631 0.97565 0.73947 0.0
H720 H 0.56424 0.74787 0.99564 0.0
H721 H 0.62898 0.7263 0.16024 0.0
H722 H 0.57222 0.71124 0.89928 0.0
H723 H 0.63891 0.69025 0.0591 0.0
H724 H 0.59857 0.6107 0.05745 0.0
H725 H 0.62173 0.65116 0.05974 0.0
H726 H 0.57997 0.6751 0.82512 0.0
H727 H 0.55399 0.63629 0.83162 0.0
C728 C 0.58124 0.73601 1.00809 0.0
C729 C 0.59526 0.73911 0.08721 0.0
C730 C 0.586 0.71461 0.95238 0.0
C731 C 0.60504 0.696 0.97484 0.0
C732 C 0.62273 0.70276 0.04313 0.0
C733 C 0.61743 0.72377 0.10053 0.0
C734 C 0.59408 0.62469 1.0067 0.0
C735 C 0.57261 0.6211 0.95008 0.0
C736 C 0.60794 0.64804 1.00652 0.0
C737 C 0.60112 0.668 0.94753 0.0
C738 C 0.58421 0.66141 0.877 0.0
C739 C 0.56948 0.63858 0.87971 0.0
H740 H 0.79575 0.56162 0.96723 0.0
H741 H 0.81168 0.62535 0.14835 0.0
H742 H 0.83407 0.57162 0.88384 0.0
H743 H 0.84942 0.63733 0.06034 0.0
H744 H 0.92919 0.59758 0.082 0.0
H745 H 0.88832 0.6198 0.07503 0.0
H746 H 0.87169 0.58136 0.82331 0.0
H747 H 0.91082 0.55623 0.83744 0.0
C748 C 0.80666 0.57893 0.98572 0.0
C749 C 0.80155 0.59199 0.06609 0.0
C750 C 0.82905 0.58483 0.93774 0.0
C751 C 0.84654 0.60408 0.96943 0.0
C752 C 0.83772 0.62103 0.03771 0.0
C753 C 0.81572 0.61458 0.08741 0.0
C754 C 0.91675 0.59363 0.02536 0.0
C755 C 0.92246 0.5733 0.96492 0.0
C756 C 0.8932 0.60699 0.01991 0.0
C757 C 0.87514 0.60084 0.9521 0.0
C758 C 0.88389 0.5851 0.88067 0.0
C759 C 0.90691 0.57087 0.8881 0.0
H760 H 0.07004 0.21866 0.90314 0.0
H761 H 1.00471 0.20474 0.07428 0.0
H762 H 0.06142 0.17788 0.82242 0.0
H763 H 0.99642 0.1634 0.9967 0.0
H764 H 0.97488 0.09674 0.80698 0.0
H765 H 0.98223 0.13872 0.87878 0.0
H766 H 0.06414 0.13276 0.81784 0.0
H767 H 0.05619 0.09082 0.74177 0.0
C768 C 0.0533 0.2072 0.92208 0.0
C769 C 0.03754 0.21577 0.9937 0.0
C770 C 0.04864 0.18328 0.87679 0.0
C771 C 0.02822 0.16647 0.90202 0.0
C772 C 1.01209 0.17546 0.97271 0.0
C773 C 0.01667 0.19954 0.01747 0.0
C774 C 0.99458 0.10422 0.80937 0.0
C775 C 0.01494 0.0898 0.76951 0.0
C776 C 0.9989 0.12855 0.85152 0.0
C777 C 0.02391 0.13988 0.85608 0.0
C778 C 0.04445 0.12536 0.81594 0.0
C779 C 0.04003 0.10088 0.77307 0.0
H780 H 0.34015 1.00918 0.06017 0.0
H781 H 0.32649 0.07469 0.89243 0.0
H782 H 0.38094 1.00033 0.98317 0.0
H783 H 0.36665 0.06524 0.81075 0.0
H784 H 0.45315 0.05827 0.73085 0.0
H785 H 0.41132 0.06703 0.80399 0.0
H786 H 0.40494 0.98556 0.86786 0.0
H787 H 0.44707 0.9776 0.80073 0.0
C788 C 0.34531 0.02103 1.00394 0.0
C789 C 0.3294 0.04213 0.981 0.0
C790 C 0.36903 0.01608 0.95935 0.0
C791 C 0.37784 0.03196 0.88924 0.0
C792 C 0.36132 0.05263 0.86467 0.0
C793 C 0.33778 0.05778 0.91037 0.0
C794 C 0.44302 0.04243 0.76248 0.0
C795 C 0.45408 0.01735 0.76197 0.0
C796 C 0.4186 0.04729 0.80346 0.0
C797 C 0.4041 0.02713 0.84385 0.0
C798 C 0.41522 1.00201 0.8409 0.0
C799 C 0.43959 0.99731 0.8013 0.0
H800 H 0.47574 0.31121 0.86556 0.0
H801 H 0.52622 0.33996 0.07313 0.0
H802 H 0.4831 0.35136 0.78175 0.0
H803 H 0.53346 0.37992 0.99077 0.0
H804 H 0.50649 0.45998 0.89487 0.0
H805 H 0.50408 0.41707 0.9603 0.0
H806 H 0.51626 0.3815 0.702 0.0
H807 H 0.51873 0.42511 0.6361 0.0
C808 C 0.48919 0.32565 0.89165 0.0
C809 C 0.50087 0.32207 0.97521 0.0
C810 C 0.49326 0.3488 0.84399 0.0
C811 C 0.50866 0.36919 0.87967 0.0
C812 C 0.52124 0.36492 0.96132 0.0
C813 C 0.51741 0.34179 1.00814 0.0
C814 C 0.50827 0.44311 0.8515 0.0
C815 C 0.51224 0.44616 0.75978 0.0
C816 C 0.50729 0.41834 0.88937 0.0
C817 C 0.51002 0.39556 0.83687 0.0
C818 C 0.51394 0.39851 0.74468 0.0
C819 C 0.51544 0.42351 0.70685 0.0
H820 H 0.23262 0.48136 0.88346 0.0
H821 H 0.20381 0.53182 0.09195 0.0
H822 H 0.19215 0.48755 0.7996 0.0
H823 H 0.16343 0.53811 0.00909 0.0
H824 H 0.08278 0.51329 0.90635 0.0
H825 H 0.12552 0.51186 0.97538 0.0
H826 H 0.16166 0.51609 0.71728 0.0
H827 H 0.11843 0.51738 0.64757 0.0
C828 C 0.21813 0.49472 0.90964 0.0
C829 C 0.22201 0.50677 0.99342 0.0
C830 C 0.19467 0.49807 0.86191 0.0
C831 C 0.17402 0.51313 0.89734 0.0
C832 C 0.17848 0.52607 0.97946 0.0
C833 C 0.20197 0.52291 0.02651 0.0
C834 C 0.09973 0.51369 0.86369 0.0
C835 C 0.09679 0.51517 0.77072 0.0
C836 C 0.12448 0.51322 0.90375 0.0
C837 C 0.14749 0.51403 0.85267 0.0
C838 C 0.14461 0.51532 0.7594 0.0
C839 C 0.11971 0.51614 0.7192 0.0
H840 H 0.96837 0.82701 0.41598 0.0
H841 H 0.03491 0.84011 0.2496 0.0
H842 H 0.97686 0.86782 0.49677 0.0
H843 H 0.04305 0.88148 0.32688 0.0
H844 H 0.06411 0.94848 0.51487 0.0
H845 H 0.05675 0.90638 0.4441 0.0
H846 H 0.9747 0.91287 0.50218 0.0
H847 H 0.98267 0.95492 0.57752 0.0
C848 C 0.98533 0.83829 0.39813 0.0
C849 C 1.00149 0.82947 0.32792 0.0
C850 C 0.98994 0.86224 0.44343 0.0
C851 C 1.01067 0.87883 0.41947 0.0
C852 C 0.02713 0.86961 0.35004 0.0
C853 C 0.02263 0.84551 0.3054 0.0
C854 C 0.04438 0.94109 0.51213 0.0
C855 C 0.02399 0.95569 0.551 0.0
C856 C 0.04005 0.91668 0.47049 0.0
C857 C 0.015 0.90547 0.4653 0.0
C858 C 0.99443 0.92016 0.50454 0.0
C859 C 0.99887 0.94471 0.54701 0.0
H860 H 0.71703 0.03846 0.34627 0.0
H861 H 0.69578 0.95731 0.34486 0.0
H862 H 0.6779 0.0487 0.43287 0.0
H863 H 0.65612 0.96745 0.42411 0.0
H864 H 0.58904 0.98788 0.60925 0.0
H865 H 0.63129 0.97782 0.54269 0.0
H866 H 0.63411 0.055 0.43274 0.0
H867 H 0.59265 0.06506 0.50323 0.0
C868 C 0.70422 0.02272 0.36488 0.0
C869 C 0.70981 0.99705 0.33669 0.0
C870 C 0.68125 0.02862 0.41355 0.0
C871 C 0.66285 1.0091 0.43546 0.0
C872 C 0.66927 0.98333 0.41048 0.0
C873 C 0.69224 0.97746 0.36331 0.0
C874 C 0.59864 1.00257 0.57016 0.0
C875 C 0.58703 0.02714 0.56039 0.0
C876 C 0.62311 0.99685 0.53138 0.0
C877 C 0.63688 0.01544 0.48074 0.0
C878 C 0.625 0.04005 0.47181 0.0
C879 C 0.6008 0.04582 0.51158 0.0
H880 H 0.58482 0.72772 0.43859 0.0
H881 H 0.51113 0.71788 0.30686 0.0
H882 H 0.57666 0.68884 0.52556 0.0
H883 H 0.50308 0.67831 0.39107 0.0
H884 H 0.4888 0.61254 0.58504 0.0
H885 H 0.49402 0.65568 0.52252 0.0
H886 H 0.57709 0.64376 0.50932 0.0
H887 H 0.57183 0.60127 0.57585 0.0
C888 C 0.56646 0.71762 0.43019 0.0
C889 C 0.54835 0.72637 0.36732 0.0
C890 C 0.56194 0.69489 0.47884 0.0
C891 C 0.53931 0.67976 0.4652 0.0
C892 C 0.52062 0.68929 0.40496 0.0
C893 C 0.52511 0.7122 0.35675 0.0
C894 C 0.50821 0.6191 0.56947 0.0
C895 C 0.5298 0.60281 0.58405 0.0
C896 C 0.51123 0.64399 0.53264 0.0
C897 C 0.536 0.65362 0.50937 0.0
C898 C 0.55764 0.63754 0.52655 0.0
C899 C 0.5546 0.61275 0.56365 0.0
H900 H 0.83548 0.51395 0.22824 0.0
H901 H 0.80612 0.56381 0.43752 0.0
H902 H 0.87582 0.50781 0.31124 0.0
H903 H 0.84661 0.55779 0.52155 0.0
H904 H 0.92056 0.52803 0.67331 0.0
H905 H 0.87733 0.52942 0.60354 0.0
H906 H 0.91353 0.53401 0.34562 0.0
H907 H 0.95625 0.53245 0.41469 0.0
C908 C 0.83722 0.5228 0.29381 0.0
C909 C 0.81702 0.53871 0.32706 0.0
C910 C 0.86068 0.51971 0.34099 0.0
C911 C 0.865 0.53253 0.42339 0.0
C912 C 0.84421 0.54738 0.45898 0.0
C913 C 0.82074 0.55064 0.41114 0.0
C914 C 0.91929 0.52937 0.6017 0.0
C915 C 0.94223 0.53038 0.55025 0.0
C916 C 0.89438 0.53026 0.56147 0.0
C917 C 0.89153 0.53166 0.46821 0.0
C918 C 0.91455 0.53255 0.41723 0.0
C919 C 0.9393 0.532 0.45732 0.0
loop_
_geom_bond_atom_site_label_1
_geom_bond_atom_site_label_2
_geom_bond_distance
_geom_bond_site_symmetry_2
_ccdc_geom_bond_type
H0 C7 0.929 . S
H1 C10 0.930 . S
H2 C12 0.929 . S
H3 C4 0.969 . S
C4 H3 0.969 . S
C4 O5 1.550 . S
C4 H6 0.973 . S
O5 C4 1.550 . S
O5 C11 1.412 . S
H6 C4 0.973 . S
C7 H0 0.929 . S
C7 C8 1.400 . S
C7 C9 1.364 . S
C8 C7 1.400 . S
C8 C12 1.377 . S
C9 C7 1.364 . S
C9 C10 1.374 . S
C10 H1 0.930 . S
C10 C9 1.374 . S
C10 C11 1.383 . S
C11 O5 1.412 . S
C11 C10 1.383 . S
C11 C12 1.394 . S
C12 H2 0.929 . S
C12 C8 1.377 . S
C12 C11 1.394 . S
H13 C20 0.929 . S
H14 C23 0.930 . S
H15 C25 0.929 . S
H16 C17 0.969 . S
C17 H16 0.969 . S
C17 O18 1.550 . S
C17 H19 0.973 . S
O18 C17 1.550 . S
O18 C24 1.412 . S
H19 C17 0.973 . S
C20 H13 0.929 . S
C20 C21 1.400 . S
C20 C22 1.364 . S
C21 C20 1.400 . S
C21 C25 1.377 . S
C22 C20 1.364 . S
C22 C23 1.374 . S
C23 H14 0.930 . S
C23 C22 1.374 . S
C23 C24 1.383 . S
C24 O18 1.412 . S
C24 C23 1.383 . S
C24 C25 1.394 . S
C25 H15 0.929 . S
C25 C21 1.377 . S
C25 C24 1.394 . S
H26 C33 0.929 . S
H27 C36 0.930 . S
H28 C38 0.929 . S
H29 C30 0.969 . S
C30 H29 0.969 . S
C30 O31 1.550 . S
C30 H32 0.973 . S
O31 C30 1.550 . S
O31 C37 1.412 . S
H32 C30 0.973 . S
C33 H26 0.929 . S
C33 C34 1.400 . S
C33 C35 1.364 . S
C34 C33 1.400 . S
C34 C38 1.377 . S
C35 C33 1.364 . S
C35 C36 1.374 . S
C36 H27 0.930 . S
C36 C35 1.374 . S
C36 C37 1.383 . S
C37 O31 1.412 . S
C37 C36 1.383 . S
C37 C38 1.394 . S
C38 H28 0.929 . S
C38 C34 1.377 . S
C38 C37 1.394 . S
H39 C46 0.929 . S
H40 C49 0.930 . S
H41 C51 0.929 . S
H42 C43 0.969 . S
C43 H42 0.969 . S
C43 O44 1.550 . S
C43 H45 0.973 . S
O44 C43 1.550 . S
O44 C50 1.412 . S
H45 C43 0.973 . S
C46 H39 0.929 . S
C46 C47 1.400 . S
C46 C48 1.364 . S
C47 C46 1.400 . S
C47 C51 1.377 . S
C48 C46 1.364 . S
C48 C49 1.374 . S
C49 H40 0.930 . S
C49 C48 1.374 . S
C49 C50 1.383 . S
C50 O44 1.412 . S
C50 C49 1.383 . S
C50 C51 1.394 . S
C51 H41 0.929 . S
C51 C47 1.377 . S
C51 C50 1.394 . S
H52 C59 0.929 . S
H53 C62 0.930 . S
H54 C64 0.929 . S
H55 C56 0.969 . S
C56 H55 0.969 . S
C56 O57 1.550 . S
C56 H58 0.973 . S
O57 C56 1.550 . S
O57 C63 1.412 . S
H58 C56 0.973 . S
C59 H52 0.929 . S
C59 C60 1.400 . S
C59 C61 1.364 1_556 S
C60 C59 1.400 . S
C60 C64 1.377 . S
C61 C59 1.364 1_554 S
C61 C62 1.374 . S
C62 H53 0.930 . S
C62 C61 1.374 . S
C62 C63 1.383 . S
C63 O57 1.412 . S
C63 C62 1.383 . S
C63 C64 1.394 1_554 S
C64 H54 0.929 . S
C64 C60 1.377 . S
C64 C63 1.394 1_556 S
H65 C72 0.929 . S
H66 C75 0.930 . S
H67 C77 0.929 . S
H68 C69 0.969 . S
C69 H68 0.969 . S
C69 O70 1.550 1_554 S
C69 H71 0.973 . S
O70 C69 1.550 1_556 S
O70 C76 1.412 . S
H71 C69 0.973 . S
C72 H65 0.929 . S
C72 C73 1.400 . S
C72 C74 1.364 1_556 S
C73 C72 1.400 . S
C73 C77 1.377 . S
C74 C72 1.364 1_554 S
C74 C75 1.374 . S
C75 H66 0.930 . S
C75 C74 1.374 . S
C75 C76 1.381 1_554 S
C76 O70 1.412 . S
C76 C75 1.381 1_556 S
C76 C77 1.397 . S
C77 H67 0.929 . S
C77 C73 1.377 . S
C77 C76 1.397 . S
H78 C85 0.929 . S
H79 C88 0.930 . S
H80 C90 0.929 . S
H81 C82 0.969 . S
C82 H81 0.969 . S
C82 O83 1.550 1_554 S
C82 H84 0.973 . S
O83 C82 1.550 1_556 S
O83 C89 1.412 . S
H84 C82 0.973 . S
C85 H78 0.929 . S
C85 C86 1.400 . S
C85 C87 1.364 1_556 S
C86 C85 1.400 . S
C86 C90 1.377 . S
C87 C85 1.364 1_554 S
C87 C88 1.374 . S
C88 H79 0.930 . S
C88 C87 1.374 . S
C88 C89 1.383 1_554 S
C89 O83 1.412 . S
C89 C88 1.383 1_556 S
C89 C90 1.394 . S
C90 H80 0.929 . S
C90 C86 1.377 . S
C90 C89 1.394 . S
H91 C98 0.929 . S
H92 C101 0.930 . S
H93 C103 0.929 . S
H94 C95 0.969 . S
C95 H94 0.969 . S
C95 O96 1.550 . S
C95 H97 0.973 . S
O96 C95 1.550 . S
O96 C102 1.412 . S
H97 C95 0.973 . S
C98 H91 0.929 . S
C98 C99 1.400 . S
C98 C100 1.364 1_556 S
C99 C98 1.400 . S
C99 C103 1.377 . S
C100 C98 1.364 1_554 S
C100 C101 1.374 . S
C101 H92 0.930 . S
C101 C100 1.374 . S
C101 C102 1.383 . S
C102 O96 1.412 . S
C102 C101 1.383 . S
C102 C103 1.394 1_554 S
C103 H93 0.929 . S
C103 C99 1.377 . S
C103 C102 1.394 1_556 S
Eu104 N135 2.657 1_565 S
Eu104 N142 2.599 1_565 S
Eu104 O148 2.558 . S
Eu104 O149 2.612 1_455 S
Eu104 O151 2.339 1_455 S
Eu104 O152 2.563 . S
Eu104 O153 2.419 . S
Eu104 O155 2.380 1_565 S
Eu104 O156 2.432 . S
Eu104 C168 2.848 . S
C105 C108 1.429 1_545 S
C105 C109 1.410 1_545 S
C105 N112 1.377 . S
C106 C108 1.420 . S
C106 C110 1.423 . S
C106 C118 1.392 . S
C107 C109 1.426 . S
C107 C110 1.351 . S
C107 H130 0.931 . S
C108 C105 1.429 1_565 S
C108 C106 1.420 . S
C108 N116 1.368 . S
C109 C105 1.410 1_565 S
C109 C107 1.426 . S
C109 C114 1.391 1_565 S
C110 C106 1.423 . S
C110 C107 1.351 . S
C110 H122 0.930 . S
C111 C113 1.400 . S
C111 C114 1.386 . S
C111 H123 0.930 . S
N112 C105 1.377 . S
N112 C113 1.321 . S
N112 Eu115 2.609 . S
C113 C111 1.400 . S
C113 N112 1.321 . S
C113 H120 0.930 . S
C114 C109 1.391 1_545 S
C114 C111 1.386 . S
C114 H133 0.930 . S
Eu115 N112 2.609 . S
Eu115 N116 2.640 1_545 S
Eu115 O149 2.380 1_545 S
Eu115 O150 2.432 . S
Eu115 O154 2.558 . S
Eu115 O155 2.612 1_655 S
Eu115 O157 2.339 1_655 S
Eu115 O158 2.563 1_655 S
Eu115 O159 2.419 . S
Eu115 C179 2.848 . S
N116 C108 1.368 . S
N116 Eu115 2.640 1_565 S
N116 C117 1.346 1_655 S
C117 N116 1.346 1_455 S
C117 C119 1.413 . S
C117 H124 0.929 . S
C118 C106 1.392 . S
C118 C119 1.367 1_655 S
C118 H126 0.930 . S
C119 C117 1.413 . S
C119 C118 1.367 1_455 S
C119 H121 0.930 . S
H120 C113 0.930 . S
H121 C119 0.930 . S
H122 C110 0.930 . S
H123 C111 0.930 . S
H124 C117 0.929 . S
H125 C139 0.930 1_654 S
H126 C118 0.930 . S
H127 C145 0.930 . S
H128 C136 0.929 1_655 S
H129 C143 0.930 . S
H130 C107 0.931 . S
H131 C137 0.930 . S
H132 C170 0.930 . S
H133 C114 0.930 . S
H134 C169 0.931 . S
N135 Eu104 2.657 1_545 S
N135 C136 1.334 . S
N135 C140 1.362 . S
C136 H128 0.929 1_455 S
C136 N135 1.334 . S
C136 C139 1.413 . S
C137 H131 0.930 . S
C137 C138 1.392 1_554 S
C137 C139 1.367 1_554 S
C138 C137 1.392 1_556 S
C138 C140 1.420 . S
C138 C170 1.423 1_556 S
C139 H125 0.930 1_456 S
C139 C136 1.413 . S
C139 C137 1.367 1_556 S
C140 N135 1.362 . S
C140 C138 1.420 . S
C140 C144 1.429 . S
H141 C146 0.930 . S
N142 Eu104 2.599 1_545 S
N142 C144 1.399 . S
N142 C145 1.305 1_545 S
C143 H129 0.930 . S
C143 C145 1.400 . S
C143 C146 1.386 1_565 S
C144 C140 1.429 . S
C144 N142 1.399 . S
C144 C147 1.411 . S
C145 H127 0.930 . S
C145 N142 1.305 1_565 S
C145 C143 1.400 . S
C146 H141 0.930 . S
C146 C143 1.386 1_545 S
C146 C147 1.395 . S
C147 C144 1.411 . S
C147 C146 1.395 . S
C147 C169 1.420 1_556 S
O148 Eu104 2.558 . S
O148 C168 1.257 . S
O149 Eu104 2.612 1_655 S
O149 Eu115 2.380 1_565 S
O149 C160 1.276 . S
O150 Eu115 2.432 . S
O150 C167 1.264 . S
O151 Eu104 2.339 1_655 S
O151 C167 1.254 1_565 S
O152 Eu104 2.563 . S
O152 C160 1.235 1_455 S
O153 Eu104 2.419 . S
O153 C168 1.249 . S
O154 Eu115 2.558 . S
O154 C179 1.257 . S
O155 Eu104 2.380 1_545 S
O155 Eu115 2.612 1_455 S
O155 C171 1.276 . S
O156 Eu104 2.432 . S
O156 C178 1.264 1_565 S
O157 Eu115 2.339 1_455 S
O157 C178 1.254 . S
O158 Eu115 2.563 1_455 S
O158 C171 1.235 . S
O159 Eu115 2.419 . S
O159 C179 1.249 . S
C160 O149 1.276 . S
C160 O152 1.235 1_655 S
C161 C163 1.393 . S
C161 C165 1.395 . S
C161 C168 1.492 . S
C162 C163 1.392 . S
C162 C164 1.386 . S
C163 C161 1.393 . S
C163 C162 1.392 . S
C163 H180 0.954 . S
C164 C162 1.386 . S
C164 C166 1.395 . S
C164 H181 0.930 1_556 S
C165 C161 1.395 . S
C165 C166 1.379 . S
C165 H182 0.930 . S
C166 C164 1.395 . S
C166 C165 1.379 . S
C166 H183 0.930 . S
C167 O150 1.264 . S
C167 O151 1.254 1_545 S
C168 Eu104 2.848 . S
C168 O148 1.257 . S
C168 O153 1.249 . S
C168 C161 1.492 . S
C169 H134 0.931 . S
C169 C147 1.420 1_554 S
C169 C170 1.351 . S
C170 H132 0.930 . S
C170 C138 1.423 1_554 S
C170 C169 1.351 . S
C171 O155 1.276 . S
C171 O158 1.235 . S
C172 C173 1.393 . S
C172 C176 1.395 . S
C172 C179 1.492 . S
C173 C172 1.393 . S
C173 C174 1.392 . S
C173 H184 0.930 1_655 S
C174 C173 1.392 . S
C174 C175 1.386 . S
C175 C174 1.386 . S
C175 C177 1.395 . S
C175 H185 0.930 . S
C176 C172 1.395 . S
C176 C177 1.379 . S
C176 H186 0.930 . S
C177 C175 1.395 . S
C177 C176 1.379 . S
C177 H187 0.930 . S
C178 O156 1.264 1_545 S
C178 O157 1.254 . S
C179 Eu115 2.848 . S
C179 O154 1.257 . S
C179 O159 1.249 . S
C179 C172 1.492 . S
H180 C163 0.954 . S
H181 C164 0.930 1_554 S
H182 C165 0.930 . S
H183 C166 0.930 . S
H184 C173 0.930 1_455 S
H185 C175 0.930 . S
H186 C176 0.930 . S
H187 C177 0.930 . S
Eu188 N219 2.657 . S
Eu188 N226 2.609 . S
Eu188 O232 2.558 . S
Eu188 O233 2.612 1_545 S
Eu188 O235 2.339 1_545 S
Eu188 O236 2.563 . S
Eu188 O237 2.419 . S
Eu188 O239 2.380 . S
Eu188 O240 2.432 . S
Eu188 C252 2.848 . S
C189 C192 1.429 . S
C189 C193 1.411 . S
C189 N196 1.377 . S
C190 C192 1.420 . S
C190 C194 1.423 . S
C190 C202 1.392 . S
C191 C193 1.420 . S
C191 C194 1.351 . S
C191 H214 0.931 . S
C192 C189 1.429 . S
C192 C190 1.420 . S
C192 N200 1.362 . S
C193 C189 1.411 . S
C193 C191 1.420 . S
C193 C198 1.395 . S
C194 C190 1.423 . S
C194 C191 1.351 . S
C194 H206 0.930 . S
C195 C197 1.400 . S
C195 C198 1.386 . S
C195 H207 0.930 . S
N196 C189 1.377 . S
N196 C197 1.321 . S
N196 Eu199 2.609 . S
C197 C195 1.400 . S
C197 N196 1.321 . S
C197 H204 0.930 . S
C198 C193 1.395 . S
C198 C195 1.386 . S
C198 H217 0.930 . S
Eu199 N196 2.609 . S
Eu199 N200 2.657 . S
Eu199 O233 2.380 . S
Eu199 O234 2.432 . S
Eu199 O238 2.558 . S
Eu199 O239 2.612 1_565 S
Eu199 O241 2.339 1_565 S
Eu199 O242 2.563 1_565 S
Eu199 O243 2.419 . S
Eu199 C263 2.848 . S
N200 C192 1.362 . S
N200 Eu199 2.657 . S
N200 C201 1.334 1_565 S
C201 N200 1.334 1_545 S
C201 C203 1.413 . S
C201 H208 0.929 . S
C202 C190 1.392 . S
C202 C203 1.367 1_565 S
C202 H210 0.930 . S
C203 C201 1.413 . S
C203 C202 1.367 1_545 S
C203 H205 0.930 . S
H204 C197 0.930 . S
H205 C203 0.930 . S
H206 C194 0.930 . S
H207 C195 0.930 . S
H208 C201 0.929 . S
H209 C223 0.930 1_564 S
H210 C202 0.930 . S
H211 C229 0.930 . S
H212 C220 0.929 1_565 S
H213 C227 0.930 . S
H214 C191 0.931 . S
H215 C221 0.930 . S
H216 C254 0.930 . S
H217 C198 0.930 . S
H218 C253 0.931 . S
N219 Eu188 2.657 . S
N219 C220 1.334 . S
N219 C224 1.362 . S
C220 H212 0.929 1_545 S
C220 N219 1.334 . S
C220 C223 1.413 . S
C221 H215 0.930 . S
C221 C222 1.396 . S
C221 C223 1.367 1_554 S
C222 C221 1.396 . S
C222 C224 1.411 1_554 S
C222 C254 1.427 . S
C223 H209 0.930 1_546 S
C223 C220 1.413 . S
C223 C221 1.367 1_556 S
C224 N219 1.362 . S
C224 C222 1.411 1_556 S
C224 C228 1.429 . S
H225 C230 0.930 . S
N226 Eu188 2.609 . S
N226 C228 1.377 . S
N226 C229 1.321 . S
C227 H213 0.930 . S
C227 C229 1.400 . S
C227 C230 1.386 . S
C228 C224 1.429 . S
C228 N226 1.377 . S
C228 C231 1.411 . S
C229 H211 0.930 . S
C229 N226 1.321 . S
C229 C227 1.400 . S
C230 H225 0.930 . S
C230 C227 1.386 . S
C230 C231 1.395 . S
C231 C228 1.411 . S
C231 C230 1.395 . S
C231 C253 1.420 1_556 S
O232 Eu188 2.558 . S
O232 C252 1.257 . S
O233 Eu188 2.612 1_565 S
O233 Eu199 2.380 . S
O233 C244 1.276 . S
O234 Eu199 2.432 . S
O234 C251 1.264 . S
O235 Eu188 2.339 1_565 S
O235 C251 1.254 . S
O236 Eu188 2.563 . S
O236 C244 1.235 1_545 S
O237 Eu188 2.419 . S
O237 C252 1.249 . S
O238 Eu199 2.558 . S
O238 C263 1.257 . S
O239 Eu188 2.380 . S
O239 Eu199 2.612 1_545 S
O239 C255 1.276 . S
O240 Eu188 2.432 . S
O240 C262 1.264 . S
O241 Eu199 2.339 1_545 S
O241 C262 1.254 . S
O242 Eu199 2.563 1_545 S
O242 C255 1.235 . S
O243 Eu199 2.419 . S
O243 C263 1.249 . S
C244 O233 1.276 . S
C244 O236 1.235 1_565 S
C245 C247 1.393 . S
C245 C249 1.395 . S
C245 C252 1.492 . S
C246 C247 1.392 . S
C246 C248 1.386 . S
C247 C245 1.393 . S
C247 C246 1.392 . S
C247 H264 0.930 . S
C248 C246 1.386 . S
C248 C250 1.395 . S
C248 H265 0.930 1_556 S
C249 C245 1.395 . S
C249 C250 1.379 . S
C249 H266 0.930 . S
C250 C248 1.395 . S
C250 C249 1.379 . S
C250 H267 0.930 . S
C251 O234 1.264 . S
C251 O235 1.254 . S
C252 Eu188 2.848 . S
C252 O232 1.257 . S
C252 O237 1.249 . S
C252 C245 1.492 . S
C253 H218 0.931 . S
C253 C231 1.420 1_554 S
C253 C254 1.351 . S
C254 H216 0.930 . S
C254 C222 1.427 . S
C254 C253 1.351 . S
C255 O239 1.276 . S
C255 O242 1.235 . S
C256 C257 1.393 . S
C256 C260 1.395 . S
C256 C263 1.492 . S
C257 C256 1.393 . S
C257 C258 1.392 . S
C257 H268 0.930 1_565 S
C258 C257 1.392 . S
C258 C259 1.386 . S
C259 C258 1.386 . S
C259 C261 1.395 . S
C259 H269 0.930 . S
C260 C256 1.395 . S
C260 C261 1.379 . S
C260 H270 0.930 . S
C261 C259 1.395 . S
C261 C260 1.379 . S
C261 H271 0.930 . S
C262 O240 1.264 . S
C262 O241 1.254 . S
C263 Eu199 2.848 . S
C263 O238 1.257 . S
C263 O243 1.249 . S
C263 C256 1.492 . S
H264 C247 0.930 . S
H265 C248 0.930 1_554 S
H266 C249 0.930 . S
H267 C250 0.930 . S
H268 C257 0.930 1_545 S
H269 C259 0.930 . S
H270 C260 0.930 . S
H271 C261 0.930 . S
Eu272 N303 2.657 . S
Eu272 N310 2.609 . S
Eu272 O316 2.558 . S
Eu272 O317 2.612 . S
Eu272 O319 2.339 . S
Eu272 O320 2.563 . S
Eu272 O321 2.419 . S
Eu272 O323 2.380 . S
Eu272 O324 2.432 . S
Eu272 C336 2.848 . S
C273 C276 1.429 . S
C273 C277 1.411 . S
C273 N280 1.377 . S
C274 C276 1.420 . S
C274 C278 1.423 . S
C274 C286 1.392 . S
C275 C277 1.420 . S
C275 C278 1.351 . S
C275 H298 0.931 . S
C276 C273 1.429 . S
C276 C274 1.420 . S
C276 N284 1.362 . S
C277 C273 1.411 . S
C277 C275 1.420 . S
C277 C282 1.395 . S
C278 C274 1.423 . S
C278 C275 1.351 . S
C278 H290 0.930 . S
C279 C281 1.400 . S
C279 C282 1.386 . S
C279 H291 0.930 . S
N280 C273 1.377 . S
N280 C281 1.321 . S
N280 Eu283 2.609 . S
C281 C279 1.400 . S
C281 N280 1.321 . S
C281 H288 0.930 . S
C282 C277 1.395 . S
C282 C279 1.386 . S
C282 H301 0.930 . S
Eu283 N280 2.609 . S
Eu283 N284 2.657 . S
Eu283 O317 2.380 . S
Eu283 O318 2.432 . S
Eu283 O322 2.558 . S
Eu283 O323 2.612 . S
Eu283 O325 2.339 . S
Eu283 O326 2.563 . S
Eu283 O327 2.419 . S
Eu283 C347 2.848 . S
N284 C276 1.362 . S
N284 Eu283 2.657 . S
N284 C285 1.334 . S
C285 N284 1.334 . S
C285 C287 1.413 . S
C285 H292 0.929 . S
C286 C274 1.392 . S
C286 C287 1.367 . S
C286 H294 0.930 . S
C287 C285 1.413 . S
C287 C286 1.367 . S
C287 H289 0.930 . S
H288 C281 0.930 . S
H289 C287 0.930 . S
H290 C278 0.930 . S
H291 C279 0.930 . S
H292 C285 0.929 . S
H293 C307 0.930 . S
H294 C286 0.930 . S
H295 C313 0.930 . S
H296 C304 0.929 . S
H297 C311 0.930 . S
H298 C275 0.931 . S
H299 C305 0.930 . S
H300 C338 0.930 . S
H301 C282 0.930 . S
H302 C337 0.931 . S
N303 Eu272 2.657 . S
N303 C304 1.334 . S
N303 C308 1.362 . S
C304 H296 0.929 . S
C304 N303 1.334 . S
C304 C307 1.413 . S
C305 H299 0.930 . S
C305 C306 1.392 . S
C305 C307 1.367 . S
C306 C305 1.392 . S
C306 C308 1.420 . S
C306 C338 1.423 . S
C307 H293 0.930 . S
C307 C304 1.413 . S
C307 C305 1.367 . S
C308 N303 1.362 . S
C308 C306 1.420 . S
C308 C312 1.429 . S
H309 C314 0.930 . S
N310 Eu272 2.609 . S
N310 C312 1.377 . S
N310 C313 1.321 . S
C311 H297 0.930 . S
C311 C313 1.400 . S
C311 C314 1.386 . S
C312 C308 1.429 . S
C312 N310 1.377 . S
C312 C315 1.411 . S
C313 H295 0.930 . S
C313 N310 1.321 . S
C313 C311 1.400 . S
C314 H309 0.930 . S
C314 C311 1.386 . S
C314 C315 1.395 . S
C315 C312 1.411 . S
C315 C314 1.395 . S
C315 C337 1.420 . S
O316 Eu272 2.558 . S
O316 C336 1.257 . S
O317 Eu272 2.612 . S
O317 Eu283 2.380 . S
O317 C328 1.276 . S
O318 Eu283 2.432 . S
O318 C335 1.264 . S
O319 Eu272 2.339 . S
O319 C335 1.254 . S
O320 Eu272 2.563 . S
O320 C328 1.235 . S
O321 Eu272 2.419 . S
O321 C336 1.249 . S
O322 Eu283 2.558 . S
O322 C347 1.257 . S
O323 Eu272 2.380 . S
O323 Eu283 2.612 . S
O323 C339 1.276 . S
O324 Eu272 2.432 . S
O324 C346 1.264 . S
O325 Eu283 2.339 . S
O325 C346 1.254 . S
O326 Eu283 2.563 . S
O326 C339 1.235 . S
O327 Eu283 2.419 . S
O327 C347 1.249 . S
C328 O317 1.276 . S
C328 O320 1.235 . S
C329 C331 1.393 . S
C329 C333 1.395 . S
C329 C336 1.492 . S
C330 C331 1.392 . S
C330 C332 1.386 . S
C331 C329 1.393 . S
C331 C330 1.392 . S
C331 H348 0.930 . S
C332 C330 1.386 . S
C332 C334 1.395 . S
C332 H349 0.930 . S
C333 C329 1.395 . S
C333 C334 1.379 . S
C333 H350 0.930 . S
C334 C332 1.395 . S
C334 C333 1.379 . S
C334 H351 0.930 . S
C335 O318 1.264 . S
C335 O319 1.254 . S
C336 Eu272 2.848 . S
C336 O316 1.257 . S
C336 O321 1.249 . S
C336 C329 1.492 . S
C337 H302 0.931 . S
C337 C315 1.420 . S
C337 C338 1.351 . S
C338 H300 0.930 . S
C338 C306 1.423 . S
C338 C337 1.351 . S
C339 O323 1.276 . S
C339 O326 1.235 . S
C340 C341 1.393 . S
C340 C344 1.395 1_556 S
C340 C347 1.492 . S
C341 C340 1.393 . S
C341 C342 1.392 1_556 S
C341 H352 0.930 . S
C342 C341 1.392 1_554 S
C342 C343 1.386 . S
C343 C342 1.386 . S
C343 C345 1.395 . S
C343 H353 0.930 . S
C344 C340 1.395 1_554 S
C344 C345 1.379 . S
C344 H354 0.930 . S
C345 C343 1.395 . S
C345 C344 1.379 . S
C345 H355 0.930 . S
C346 O324 1.264 . S
C346 O325 1.254 . S
C347 Eu283 2.848 . S
C347 O322 1.257 . S
C347 O327 1.249 . S
C347 C340 1.492 . S
H348 C331 0.930 . S
H349 C332 0.930 . S
H350 C333 0.930 . S
H351 C334 0.930 . S
H352 C341 0.930 . S
H353 C343 0.930 . S
H354 C344 0.930 . S
H355 C345 0.930 . S
Eu356 N387 2.657 . S
Eu356 N394 2.609 . S
Eu356 O400 2.558 . S
Eu356 O401 2.612 . S
Eu356 O403 2.339 . S
Eu356 O404 2.563 . S
Eu356 O405 2.419 . S
Eu356 O407 2.380 . S
Eu356 O408 2.432 1_455 S
Eu356 C420 2.848 . S
C357 C360 1.429 . S
C357 C361 1.411 . S
C357 N364 1.377 . S
C358 C360 1.420 . S
C358 C362 1.423 . S
C358 C370 1.392 . S
C359 C361 1.420 . S
C359 C362 1.351 . S
C359 H382 0.931 . S
C360 C357 1.429 . S
C360 C358 1.420 . S
C360 N368 1.362 . S
C361 C357 1.411 . S
C361 C359 1.420 . S
C361 C366 1.395 1_655 S
C362 C358 1.423 . S
C362 C359 1.351 . S
C362 H374 0.930 . S
C363 C365 1.400 . S
C363 C366 1.386 . S
C363 H375 0.930 . S
N364 C357 1.377 . S
N364 C365 1.321 1_655 S
N364 Eu367 2.609 . S
C365 C363 1.400 . S
C365 N364 1.321 1_455 S
C365 H372 0.930 . S
C366 C361 1.395 1_455 S
C366 C363 1.386 . S
C366 H385 0.930 . S
Eu367 N364 2.609 . S
Eu367 N368 2.657 . S
Eu367 O401 2.380 1_655 S
Eu367 O402 2.432 1_655 S
Eu367 O406 2.558 . S
Eu367 O407 2.612 1_655 S
Eu367 O409 2.339 . S
Eu367 O410 2.563 . S
Eu367 O411 2.419 . S
Eu367 C431 2.848 . S
N368 C360 1.362 . S
N368 Eu367 2.657 . S
N368 C369 1.334 . S
C369 N368 1.334 . S
C369 C371 1.413 . S
C369 H376 0.929 . S
C370 C358 1.392 . S
C370 C371 1.367 . S
C370 H378 0.930 . S
C371 C369 1.413 . S
C371 C370 1.367 . S
C371 H373 0.930 . S
H372 C365 0.930 . S
H373 C371 0.930 . S
H374 C362 0.930 . S
H375 C363 0.930 . S
H376 C369 0.929 . S
H377 C391 0.930 . S
H378 C370 0.930 . S
H379 C397 0.919 1_655 S
H380 C388 0.929 . S
H381 C395 0.930 . S
H382 C359 0.931 . S
H383 C389 0.930 . S
H384 C422 0.930 . S
H385 C366 0.930 . S
H386 C421 0.931 . S
N387 Eu356 2.657 . S
N387 C388 1.334 . S
N387 C392 1.362 . S
C388 H380 0.929 . S
C388 N387 1.334 . S
C388 C391 1.413 . S
C389 H383 0.930 . S
C389 C390 1.392 . S
C389 C391 1.367 . S
C390 C389 1.392 . S
C390 C392 1.420 . S
C390 C422 1.423 . S
C391 H377 0.930 . S
C391 C388 1.413 . S
C391 C389 1.367 . S
C392 N387 1.362 . S
C392 C390 1.420 . S
C392 C396 1.429 . S
H393 C398 0.930 . S
N394 Eu356 2.609 . S
N394 C396 1.377 . S
N394 C397 1.335 . S
C395 H381 0.930 . S
C395 C397 1.396 1_655 S
C395 C398 1.386 1_655 S
C396 C392 1.429 . S
C396 N394 1.377 . S
C396 C399 1.411 . S
C397 H379 0.919 1_455 S
C397 N394 1.335 . S
C397 C395 1.396 1_455 S
C398 H393 0.930 . S
C398 C395 1.386 1_455 S
C398 C399 1.395 . S
C399 C396 1.411 . S
C399 C398 1.395 . S
C399 C421 1.420 . S
O400 Eu356 2.558 . S
O400 C420 1.257 . S
O401 Eu356 2.612 . S
O401 Eu367 2.380 1_455 S
O401 C412 1.276 . S
O402 Eu367 2.432 1_455 S
O402 C419 1.264 . S
O403 Eu356 2.339 . S
O403 C419 1.254 . S
O404 Eu356 2.563 . S
O404 C412 1.235 . S
O405 Eu356 2.419 . S
O405 C420 1.249 . S
O406 Eu367 2.558 . S
O406 C431 1.257 . S
O407 Eu356 2.380 . S
O407 Eu367 2.612 1_455 S
O407 C423 1.276 1_455 S
O408 Eu356 2.432 1_655 S
O408 C430 1.264 . S
O409 Eu367 2.339 . S
O409 C430 1.254 . S
O410 Eu367 2.563 . S
O410 C423 1.235 . S
O411 Eu367 2.419 . S
O411 C431 1.249 . S
C412 O401 1.276 . S
C412 O404 1.235 . S
C413 C415 1.393 . S
C413 C417 1.395 . S
C413 C420 1.492 . S
C414 C415 1.392 . S
C414 C416 1.386 . S
C415 C413 1.393 . S
C415 C414 1.392 . S
C415 H432 0.930 . S
C416 C414 1.386 . S
C416 C418 1.395 . S
C416 H433 0.930 . S
C417 C413 1.395 . S
C417 C418 1.379 . S
C417 H434 0.930 . S
C418 C416 1.395 . S
C418 C417 1.379 . S
C418 H435 0.930 . S
C419 O402 1.264 . S
C419 O403 1.254 . S
C420 Eu356 2.848 . S
C420 O400 1.257 . S
C420 O405 1.249 . S
C420 C413 1.492 . S
C421 H386 0.931 . S
C421 C399 1.420 . S
C421 C422 1.351 . S
C422 H384 0.930 . S
C422 C390 1.423 . S
C422 C421 1.351 . S
C423 O407 1.276 1_655 S
C423 O410 1.235 . S
C424 C425 1.393 . S
C424 C428 1.395 1_556 S
C424 C431 1.492 . S
C425 C424 1.393 . S
C425 C426 1.392 1_556 S
C425 H436 0.930 . S
C426 C425 1.392 1_554 S
C426 C427 1.386 . S
C427 C426 1.386 . S
C427 C429 1.395 . S
C427 H437 0.930 . S
C428 C424 1.395 1_554 S
C428 C429 1.379 . S
C428 H438 0.930 . S
C429 C427 1.395 . S
C429 C428 1.379 . S
C429 H439 0.930 . S
C430 O408 1.264 . S
C430 O409 1.254 . S
C431 Eu367 2.848 . S
C431 O406 1.257 . S
C431 O411 1.249 . S
C431 C424 1.492 . S
H432 C415 0.930 . S
H433 C416 0.930 . S
H434 C417 0.930 . S
H435 C418 0.930 . S
H436 C425 0.930 . S
H437 C427 0.930 . S
H438 C428 0.930 . S
H439 C429 0.930 . S
H440 C448 0.950 . S
H441 C453 0.950 . S
H442 C450 0.950 . S
H443 C452 0.950 . S
H444 C454 0.950 . S
H445 C456 0.950 . S
H446 C458 0.950 . S
H447 C459 0.950 . S
C448 H440 0.950 . S
C448 C449 1.386 . S
C448 C450 1.391 . S
C449 C448 1.386 . S
C449 C453 1.393 . S
C450 H442 0.950 . S
C450 C448 1.391 . S
C450 C451 1.400 . S
C451 C450 1.400 . S
C451 C452 1.398 . S
C451 C457 1.491 . S
C452 H443 0.950 . S
C452 C451 1.398 . S
C452 C453 1.391 . S
C453 H441 0.950 . S
C453 C449 1.393 . S
C453 C452 1.391 . S
C454 H444 0.950 . S
C454 C455 1.386 . S
C454 C456 1.391 . S
C455 C454 1.386 . S
C455 C459 1.393 . S
C456 H445 0.950 . S
C456 C454 1.391 . S
C456 C457 1.400 . S
C457 C451 1.491 . S
C457 C456 1.400 . S
C457 C458 1.398 . S
C458 H446 0.950 . S
C458 C457 1.398 . S
C458 C459 1.391 . S
C459 H447 0.950 . S
C459 C455 1.393 . S
C459 C458 1.391 . S
H460 C468 0.950 . S
H461 C473 0.950 . S
H462 C470 0.950 . S
H463 C472 0.950 . S
H464 C474 0.950 . S
H465 C476 0.950 . S
H466 C478 0.950 . S
H467 C479 0.950 . S
C468 H460 0.950 . S
C468 C469 1.386 . S
C468 C470 1.391 . S
C469 C468 1.386 . S
C469 C473 1.393 . S
C470 H462 0.950 . S
C470 C468 1.391 . S
C470 C471 1.400 . S
C471 C470 1.400 . S
C471 C472 1.398 . S
C471 C477 1.491 . S
C472 H463 0.950 . S
C472 C471 1.398 . S
C472 C473 1.391 . S
C473 H461 0.950 . S
C473 C469 1.393 . S
C473 C472 1.391 . S
C474 H464 0.950 . S
C474 C475 1.386 . S
C474 C476 1.391 . S
C475 C474 1.386 . S
C475 C479 1.393 . S
C476 H465 0.950 . S
C476 C474 1.391 . S
C476 C477 1.400 . S
C477 C471 1.491 . S
C477 C476 1.400 . S
C477 C478 1.398 . S
C478 H466 0.950 . S
C478 C477 1.398 . S
C478 C479 1.391 . S
C479 H467 0.950 . S
C479 C475 1.393 . S
C479 C478 1.391 . S
H480 C488 0.950 . S
H481 C493 0.950 . S
H482 C490 0.950 . S
H483 C492 0.950 . S
H484 C494 0.950 . S
H485 C496 0.950 . S
H486 C498 0.950 . S
H487 C499 0.950 . S
C488 H480 0.950 . S
C488 C489 1.386 . S
C488 C490 1.391 . S
C489 C488 1.386 . S
C489 C493 1.393 . S
C490 H482 0.950 . S
C490 C488 1.391 . S
C490 C491 1.400 . S
C491 C490 1.400 . S
C491 C492 1.398 . S
C491 C497 1.491 . S
C492 H483 0.950 . S
C492 C491 1.398 . S
C492 C493 1.391 . S
C493 H481 0.950 . S
C493 C489 1.393 . S
C493 C492 1.391 . S
C494 H484 0.950 . S
C494 C495 1.386 . S
C494 C496 1.391 . S
C495 C494 1.386 . S
C495 C499 1.393 . S
C496 H485 0.950 . S
C496 C494 1.391 . S
C496 C497 1.400 . S
C497 C491 1.491 . S
C497 C496 1.400 . S
C497 C498 1.398 . S
C498 H486 0.950 . S
C498 C497 1.398 . S
C498 C499 1.391 . S
C499 H487 0.950 . S
C499 C495 1.393 . S
C499 C498 1.391 . S
H500 C508 0.950 . S
H501 C513 0.950 . S
H502 C510 0.950 . S
H503 C512 0.950 . S
H504 C514 0.950 1_655 S
H505 C516 0.950 1_655 S
H506 C518 0.950 . S
H507 C519 0.950 . S
C508 H500 0.950 . S
C508 C509 1.386 . S
C508 C510 1.391 . S
C509 C508 1.386 . S
C509 C513 1.393 . S
C510 H502 0.950 . S
C510 C508 1.391 . S
C510 C511 1.400 . S
C511 C510 1.400 . S
C511 C512 1.398 . S
C511 C517 1.491 . S
C512 H503 0.950 . S
C512 C511 1.398 . S
C512 C513 1.391 . S
C513 H501 0.950 . S
C513 C509 1.393 . S
C513 C512 1.391 . S
C514 H504 0.950 1_455 S
C514 C515 1.386 . S
C514 C516 1.391 . S
C515 C514 1.386 . S
C515 C519 1.393 . S
C516 H505 0.950 1_455 S
C516 C514 1.391 . S
C516 C517 1.400 . S
C517 C511 1.491 . S
C517 C516 1.400 . S
C517 C518 1.398 . S
C518 H506 0.950 . S
C518 C517 1.398 . S
C518 C519 1.391 . S
C519 H507 0.950 . S
C519 C515 1.393 . S
C519 C518 1.391 . S
H520 C528 0.950 . S
H521 C533 0.950 . S
H522 C530 0.950 1_556 S
H523 C532 0.950 . S
H524 C534 0.950 1_545 S
H525 C536 0.950 1_554 S
H526 C538 0.950 . S
H527 C539 0.950 . S
C528 H520 0.950 . S
C528 C529 1.386 . S
C528 C530 1.391 . S
C529 C528 1.386 . S
C529 C533 1.393 . S
C530 H522 0.950 1_554 S
C530 C528 1.391 . S
C530 C531 1.400 . S
C531 C530 1.400 . S
C531 C532 1.398 . S
C531 C537 1.491 1_554 S
C532 H523 0.950 . S
C532 C531 1.398 . S
C532 C533 1.391 . S
C533 H521 0.950 . S
C533 C529 1.393 . S
C533 C532 1.391 . S
C534 H524 0.950 1_565 S
C534 C535 1.386 . S
C534 C536 1.391 . S
C535 C534 1.386 . S
C535 C539 1.393 . S
C536 H525 0.950 1_556 S
C536 C534 1.391 . S
C536 C537 1.400 . S
C537 C531 1.491 1_556 S
C537 C536 1.400 . S
C537 C538 1.398 . S
C538 H526 0.950 . S
C538 C537 1.398 . S
C538 C539 1.391 . S
C539 H527 0.950 . S
C539 C535 1.393 . S
C539 C538 1.391 . S
H540 C548 0.950 . S
H541 C553 0.950 . S
H542 C550 0.950 . S
H543 C552 0.950 1_556 S
H544 C554 0.950 . S
H545 C556 0.950 . S
H546 C558 0.950 1_554 S
H547 C559 0.950 . S
C548 H540 0.950 . S
C548 C549 1.386 . S
C548 C550 1.391 . S
C549 C548 1.386 . S
C549 C553 1.393 . S
C550 H542 0.950 . S
C550 C548 1.391 . S
C550 C551 1.400 . S
C551 C550 1.400 . S
C551 C552 1.398 . S
C551 C557 1.491 1_554 S
C552 H543 0.950 1_554 S
C552 C551 1.398 . S
C552 C553 1.391 . S
C553 H541 0.950 . S
C553 C549 1.393 . S
C553 C552 1.391 . S
C554 H544 0.950 . S
C554 C555 1.386 . S
C554 C556 1.391 . S
C555 C554 1.386 . S
C555 C559 1.393 . S
C556 H545 0.950 . S
C556 C554 1.391 . S
C556 C557 1.400 . S
C557 C551 1.491 1_556 S
C557 C556 1.400 . S
C557 C558 1.398 . S
C558 H546 0.950 1_556 S
C558 C557 1.398 . S
C558 C559 1.391 . S
C559 H547 0.950 . S
C559 C555 1.393 . S
C559 C558 1.391 . S
H560 C568 0.950 . S
H561 C573 0.950 . S
H562 C570 0.950 . S
H563 C572 0.950 1_556 S
H564 C574 0.950 . S
H565 C576 0.950 . S
H566 C578 0.950 . S
H567 C579 0.950 . S
C568 H560 0.950 . S
C568 C569 1.386 . S
C568 C570 1.391 . S
C569 C568 1.386 . S
C569 C573 1.393 . S
C570 H562 0.950 . S
C570 C568 1.391 . S
C570 C571 1.400 . S
C571 C570 1.400 . S
C571 C572 1.398 . S
C571 C577 1.491 1_554 S
C572 H563 0.950 1_554 S
C572 C571 1.398 . S
C572 C573 1.391 . S
C573 H561 0.950 . S
C573 C569 1.393 . S
C573 C572 1.391 . S
C574 H564 0.950 . S
C574 C575 1.386 . S
C574 C576 1.391 . S
C575 C574 1.386 . S
C575 C579 1.393 . S
C576 H565 0.950 . S
C576 C574 1.391 . S
C576 C577 1.400 . S
C577 C571 1.491 1_556 S
C577 C576 1.400 . S
C577 C578 1.398 . S
C578 H566 0.950 . S
C578 C577 1.398 . S
C578 C579 1.391 . S
C579 H567 0.950 . S
C579 C575 1.393 . S
C579 C578 1.391 . S
H580 C588 0.950 . S
H581 C593 0.950 . S
H582 C590 0.950 . S
H583 C592 0.950 1_556 S
H584 C594 0.950 . S
H585 C596 0.950 . S
H586 C598 0.950 1_454 S
H587 C599 0.977 . S
C588 H580 0.950 . S
C588 C589 1.386 . S
C588 C590 1.391 . S
C589 C588 1.386 . S
C589 C593 1.393 . S
C590 H582 0.950 . S
C590 C588 1.391 . S
C590 C591 1.400 . S
C591 C590 1.400 . S
C591 C592 1.398 . S
C591 C597 1.491 1_554 S
C592 H583 0.950 1_554 S
C592 C591 1.398 . S
C592 C593 1.391 . S
C593 H581 0.950 . S
C593 C589 1.393 . S
C593 C592 1.391 . S
C594 H584 0.950 . S
C594 C595 1.386 . S
C594 C596 1.391 . S
C595 C594 1.386 . S
C595 C599 1.375 1_655 S
C596 H585 0.950 . S
C596 C594 1.391 . S
C596 C597 1.400 . S
C597 C591 1.491 1_556 S
C597 C596 1.400 . S
C597 C598 1.398 . S
C598 H586 0.950 1_656 S
C598 C597 1.398 . S
C598 C599 1.383 1_655 S
C599 H587 0.977 . S
C599 C595 1.375 1_455 S
C599 C598 1.383 1_455 S
H600 C608 0.950 . S
H601 C613 0.950 . S
H602 C610 0.950 . S
H603 C612 0.950 . S
H604 C614 0.950 . S
H605 C616 0.950 . S
H606 C618 0.950 1_655 S
H607 C619 0.950 . S
C608 H600 0.950 . S
C608 C609 1.386 . S
C608 C610 1.391 . S
C609 C608 1.386 . S
C609 C613 1.393 . S
C610 H602 0.950 . S
C610 C608 1.391 . S
C610 C611 1.400 . S
C611 C610 1.400 . S
C611 C612 1.398 . S
C611 C617 1.491 . S
C612 H603 0.950 . S
C612 C611 1.398 . S
C612 C613 1.391 . S
C613 H601 0.950 . S
C613 C609 1.393 . S
C613 C612 1.391 . S
C614 H604 0.950 . S
C614 C615 1.386 . S
C614 C616 1.391 . S
C615 C614 1.386 . S
C615 C619 1.393 1_455 S
C616 H605 0.950 . S
C616 C614 1.391 . S
C616 C617 1.400 . S
C617 C611 1.491 . S
C617 C616 1.400 . S
C617 C618 1.398 . S
C618 H606 0.950 1_455 S
C618 C617 1.398 . S
C618 C619 1.391 1_455 S
C619 H607 0.950 . S
C619 C615 1.393 1_655 S
C619 C618 1.391 1_655 S
H620 C628 0.950 . S
H621 C633 0.950 . S
H622 C630 0.950 . S
H623 C632 0.950 . S
H624 C634 0.950 . S
H625 C636 0.950 . S
H626 C638 0.950 1_565 S
H627 C639 0.950 . S
C628 H620 0.950 . S
C628 C629 1.386 . S
C628 C630 1.391 . S
C629 C628 1.386 . S
C629 C633 1.393 . S
C630 H622 0.950 . S
C630 C628 1.391 . S
C630 C631 1.400 . S
C631 C630 1.400 . S
C631 C632 1.398 . S
C631 C637 1.491 . S
C632 H623 0.950 . S
C632 C631 1.398 . S
C632 C633 1.391 . S
C633 H621 0.950 . S
C633 C629 1.393 . S
C633 C632 1.391 . S
C634 H624 0.950 . S
C634 C635 1.386 . S
C634 C636 1.391 . S
C635 C634 1.386 . S
C635 C639 1.393 1_545 S
C636 H625 0.950 . S
C636 C634 1.391 . S
C636 C637 1.400 . S
C637 C631 1.491 . S
C637 C636 1.400 . S
C637 C638 1.398 . S
C638 H626 0.950 1_545 S
C638 C637 1.398 . S
C638 C639 1.391 1_545 S
C639 H627 0.950 . S
C639 C635 1.393 1_565 S
C639 C638 1.391 1_565 S
H640 C648 0.950 . S
H641 C653 0.950 . S
H642 C650 0.950 . S
H643 C652 0.950 . S
H644 C654 0.950 . S
H645 C656 0.950 . S
H646 C658 0.950 . S
H647 C659 0.950 . S
C648 H640 0.950 . S
C648 C649 1.386 . S
C648 C650 1.391 . S
C649 C648 1.386 . S
C649 C653 1.393 . S
C650 H642 0.950 . S
C650 C648 1.391 . S
C650 C651 1.400 . S
C651 C650 1.400 . S
C651 C652 1.398 . S
C651 C657 1.491 . S
C652 H643 0.950 . S
C652 C651 1.398 . S
C652 C653 1.391 . S
C653 H641 0.950 . S
C653 C649 1.393 . S
C653 C652 1.391 . S
C654 H644 0.950 . S
C654 C655 1.386 . S
C654 C656 1.391 . S
C655 C654 1.386 . S
C655 C659 1.393 . S
C656 H645 0.950 . S
C656 C654 1.391 . S
C656 C657 1.400 . S
C657 C651 1.491 . S
C657 C656 1.400 . S
C657 C658 1.398 . S
C658 H646 0.950 . S
C658 C657 1.398 . S
C658 C659 1.391 . S
C659 H647 0.950 . S
C659 C655 1.393 . S
C659 C658 1.391 . S
H660 C668 0.950 . S
H661 C673 0.950 . S
H662 C670 0.950 . S
H663 C672 0.950 . S
H664 C674 0.950 . S
H665 C676 0.950 . S
H666 C678 0.950 . S
H667 C679 0.950 . S
C668 H660 0.950 . S
C668 C669 1.386 . S
C668 C670 1.391 . S
C669 C668 1.386 . S
C669 C673 1.393 . S
C670 H662 0.950 . S
C670 C668 1.391 . S
C670 C671 1.400 . S
C671 C670 1.400 . S
C671 C672 1.398 . S
C671 C677 1.491 . S
C672 H663 0.950 . S
C672 C671 1.398 . S
C672 C673 1.391 . S
C673 H661 0.950 . S
C673 C669 1.393 . S
C673 C672 1.391 . S
C674 H664 0.950 . S
C674 C675 1.386 . S
C674 C676 1.391 . S
C675 C674 1.386 . S
C675 C679 1.393 . S
C676 H665 0.950 . S
C676 C674 1.391 . S
C676 C677 1.400 . S
C677 C671 1.491 . S
C677 C676 1.400 . S
C677 C678 1.398 . S
C678 H666 0.950 . S
C678 C677 1.398 . S
C678 C679 1.391 . S
C679 H667 0.950 . S
C679 C675 1.393 . S
C679 C678 1.391 . S
H680 C688 0.950 . S
H681 C693 0.950 . S
H682 C690 0.950 . S
H683 C692 0.950 . S
H684 C694 0.950 . S
H685 C696 0.949 1_455 S
H686 C698 0.950 . S
H687 C699 0.950 . S
C688 H680 0.950 . S
C688 C689 1.386 . S
C688 C690 1.391 . S
C689 C688 1.386 . S
C689 C693 1.393 . S
C690 H682 0.950 . S
C690 C688 1.391 . S
C690 C691 1.400 . S
C691 C690 1.400 . S
C691 C692 1.398 . S
C691 C697 1.491 . S
C692 H683 0.950 . S
C692 C691 1.398 . S
C692 C693 1.391 . S
C693 H681 0.950 . S
C693 C689 1.393 . S
C693 C692 1.391 . S
C694 H684 0.950 . S
C694 C695 1.386 1_554 S
C694 C696 1.390 1_455 S
C695 C694 1.386 1_556 S
C695 C699 1.393 1_455 S
C696 H685 0.949 1_655 S
C696 C694 1.390 1_655 S
C696 C697 1.402 . S
C697 C691 1.491 . S
C697 C696 1.402 . S
C697 C698 1.398 1_554 S
C698 H686 0.950 . S
C698 C697 1.398 1_556 S
C698 C699 1.391 . S
C699 H687 0.950 . S
C699 C695 1.393 1_655 S
C699 C698 1.391 . S
H700 C708 0.950 . S
H701 C713 0.950 . S
H702 C710 0.950 1_545 S
H703 C712 0.950 . S
H704 C714 0.950 . S
H705 C716 0.950 . S
H706 C718 0.950 . S
H707 C719 0.950 . S
C708 H700 0.950 . S
C708 C709 1.386 . S
C708 C710 1.391 . S
C709 C708 1.386 . S
C709 C713 1.393 . S
C710 H702 0.950 1_565 S
C710 C708 1.391 . S
C710 C711 1.400 . S
C711 C710 1.400 . S
C711 C712 1.398 . S
C711 C717 1.491 . S
C712 H703 0.950 . S
C712 C711 1.398 . S
C712 C713 1.391 . S
C713 H701 0.950 . S
C713 C709 1.393 . S
C713 C712 1.391 . S
C714 H704 0.950 . S
C714 C715 1.386 1_564 S
C714 C716 1.391 . S
C715 C714 1.386 1_546 S
C715 C719 1.393 . S
C716 H705 0.950 . S
C716 C714 1.391 . S
C716 C717 1.400 . S
C717 C711 1.491 . S
C717 C716 1.400 . S
C717 C718 1.398 1_565 S
C718 H706 0.950 . S
C718 C717 1.398 1_545 S
C718 C719 1.391 1_554 S
C719 H707 0.950 . S
C719 C715 1.393 . S
C719 C718 1.391 1_556 S
H720 C728 0.950 . S
H721 C733 0.950 . S
H722 C730 0.950 . S
H723 C732 0.950 . S
H724 C734 0.950 . S
H725 C736 0.950 . S
H726 C738 0.948 1_556 S
H727 C739 0.950 . S
C728 H720 0.950 . S
C728 C729 1.386 . S
C728 C730 1.391 . S
C729 C728 1.386 . S
C729 C733 1.393 . S
C730 H722 0.950 . S
C730 C728 1.391 . S
C730 C731 1.400 . S
C731 C730 1.400 . S
C731 C732 1.398 . S
C731 C737 1.491 . S
C732 H723 0.950 . S
C732 C731 1.398 . S
C732 C733 1.391 . S
C733 H721 0.950 . S
C733 C729 1.393 . S
C733 C732 1.391 . S
C734 H724 0.950 . S
C734 C735 1.386 . S
C734 C736 1.391 . S
C735 C734 1.386 . S
C735 C739 1.393 1_554 S
C736 H725 0.950 . S
C736 C734 1.391 . S
C736 C737 1.400 . S
C737 C731 1.491 . S
C737 C736 1.400 . S
C737 C738 1.398 . S
C738 H726 0.948 1_554 S
C738 C737 1.398 . S
C738 C739 1.391 1_554 S
C739 H727 0.950 . S
C739 C735 1.393 1_556 S
C739 C738 1.391 1_556 S
H740 C748 0.950 . S
H741 C753 0.950 . S
H742 C750 0.950 . S
H743 C752 0.950 . S
H744 C754 0.950 . S
H745 C756 0.950 . S
H746 C758 0.950 . S
H747 C759 0.950 . S
C748 H740 0.950 . S
C748 C749 1.386 . S
C748 C750 1.391 . S
C749 C748 1.386 . S
C749 C753 1.393 . S
C750 H742 0.950 . S
C750 C748 1.391 . S
C750 C751 1.400 . S
C751 C750 1.400 . S
C751 C752 1.398 . S
C751 C757 1.491 . S
C752 H743 0.950 . S
C752 C751 1.398 . S
C752 C753 1.391 . S
C753 H741 0.950 . S
C753 C749 1.393 . S
C753 C752 1.391 . S
C754 H744 0.950 . S
C754 C755 1.386 . S
C754 C756 1.391 . S
C755 C754 1.386 . S
C755 C759 1.393 1_554 S
C756 H745 0.950 . S
C756 C754 1.391 . S
C756 C757 1.400 . S
C757 C751 1.491 . S
C757 C756 1.400 . S
C757 C758 1.398 . S
C758 H746 0.950 . S
C758 C757 1.398 . S
C758 C759 1.391 1_554 S
C759 H747 0.950 . S
C759 C755 1.393 1_556 S
C759 C758 1.391 1_556 S
H760 C768 0.950 . S
H761 C773 0.950 . S
H762 C770 0.950 . S
H763 C772 0.950 . S
H764 C774 0.950 1_655 S
H765 C776 0.950 . S
H766 C778 0.950 . S
H767 C779 0.950 . S
C768 H760 0.950 . S
C768 C769 1.386 . S
C768 C770 1.391 . S
C769 C768 1.386 . S
C769 C773 1.393 . S
C770 H762 0.950 . S
C770 C768 1.391 . S
C770 C771 1.400 . S
C771 C770 1.400 . S
C771 C772 1.398 . S
C771 C777 1.491 . S
C772 H763 0.950 . S
C772 C771 1.398 . S
C772 C773 1.391 . S
C773 H761 0.950 . S
C773 C769 1.393 . S
C773 C772 1.391 . S
C774 H764 0.950 1_455 S
C774 C775 1.386 . S
C774 C776 1.391 . S
C775 C774 1.386 . S
C775 C779 1.393 . S
C776 H765 0.950 . S
C776 C774 1.391 . S
C776 C777 1.400 . S
C777 C771 1.491 . S
C777 C776 1.400 . S
C777 C778 1.398 . S
C778 H766 0.950 . S
C778 C777 1.398 . S
C778 C779 1.391 . S
C779 H767 0.950 . S
C779 C775 1.393 . S
C779 C778 1.391 . S
H780 C788 0.950 . S
H781 C793 0.950 . S
H782 C790 0.950 . S
H783 C792 0.950 . S
H784 C794 0.950 . S
H785 C796 0.950 . S
H786 C798 0.950 . S
H787 C799 0.950 . S
C788 H780 0.950 . S
C788 C789 1.386 . S
C788 C790 1.391 . S
C789 C788 1.386 . S
C789 C793 1.393 . S
C790 H782 0.950 . S
C790 C788 1.391 . S
C790 C791 1.400 . S
C791 C790 1.400 . S
C791 C792 1.398 . S
C791 C797 1.491 . S
C792 H783 0.950 . S
C792 C791 1.398 . S
C792 C793 1.391 . S
C793 H781 0.950 . S
C793 C789 1.393 . S
C793 C792 1.391 . S
C794 H784 0.950 . S
C794 C795 1.386 . S
C794 C796 1.391 . S
C795 C794 1.386 . S
C795 C799 1.393 . S
C796 H785 0.950 . S
C796 C794 1.391 . S
C796 C797 1.400 . S
C797 C791 1.491 . S
C797 C796 1.400 . S
C797 C798 1.398 . S
C798 H786 0.950 . S
C798 C797 1.398 . S
C798 C799 1.391 . S
C799 H787 0.950 . S
C799 C795 1.393 . S
C799 C798 1.391 . S
H800 C808 0.950 . S
H801 C813 0.950 . S
H802 C810 0.950 . S
H803 C812 0.950 . S
H804 C814 0.950 . S
H805 C816 0.950 . S
H806 C818 0.950 . S
H807 C819 0.950 . S
C808 H800 0.950 . S
C808 C809 1.386 . S
C808 C810 1.391 . S
C809 C808 1.386 . S
C809 C813 1.393 . S
C810 H802 0.950 . S
C810 C808 1.391 . S
C810 C811 1.400 . S
C811 C810 1.400 . S
C811 C812 1.398 . S
C811 C817 1.491 . S
C812 H803 0.950 . S
C812 C811 1.398 . S
C812 C813 1.391 . S
C813 H801 0.950 . S
C813 C809 1.393 . S
C813 C812 1.391 . S
C814 H804 0.950 . S
C814 C815 1.386 . S
C814 C816 1.391 . S
C815 C814 1.386 . S
C815 C819 1.393 . S
C816 H805 0.950 . S
C816 C814 1.391 . S
C816 C817 1.400 . S
C817 C811 1.491 . S
C817 C816 1.400 . S
C817 C818 1.398 . S
C818 H806 0.950 . S
C818 C817 1.398 . S
C818 C819 1.391 . S
C819 H807 0.950 . S
C819 C815 1.393 . S
C819 C818 1.391 . S
H820 C828 0.950 . S
H821 C833 0.950 . S
H822 C830 0.950 . S
H823 C832 0.950 . S
H824 C834 0.950 . S
H825 C836 0.950 . S
H826 C838 0.950 . S
H827 C839 0.950 . S
C828 H820 0.950 . S
C828 C829 1.386 . S
C828 C830 1.391 . S
C829 C828 1.386 . S
C829 C833 1.393 . S
C830 H822 0.950 . S
C830 C828 1.391 . S
C830 C831 1.400 . S
C831 C830 1.400 . S
C831 C832 1.398 . S
C831 C837 1.491 . S
C832 H823 0.950 . S
C832 C831 1.398 . S
C832 C833 1.391 . S
C833 H821 0.950 . S
C833 C829 1.393 . S
C833 C832 1.391 . S
C834 H824 0.950 . S
C834 C835 1.386 . S
C834 C836 1.391 . S
C835 C834 1.386 . S
C835 C839 1.393 . S
C836 H825 0.950 . S
C836 C834 1.391 . S
C836 C837 1.400 . S
C837 C831 1.491 . S
C837 C836 1.400 . S
C837 C838 1.398 . S
C838 H826 0.950 . S
C838 C837 1.398 . S
C838 C839 1.391 . S
C839 H827 0.950 . S
C839 C835 1.393 . S
C839 C838 1.391 . S
H840 C848 0.950 . S
H841 C853 0.950 . S
H842 C850 0.950 . S
H843 C852 0.950 . S
H844 C854 0.950 1_455 S
H845 C856 0.971 . S
H846 C858 0.950 . S
H847 C859 0.950 . S
C848 H840 0.950 . S
C848 C849 1.386 . S
C848 C850 1.391 . S
C849 C848 1.386 . S
C849 C853 1.393 . S
C850 H842 0.950 . S
C850 C848 1.391 . S
C850 C851 1.400 . S
C851 C850 1.400 . S
C851 C852 1.398 . S
C851 C857 1.491 . S
C852 H843 0.950 . S
C852 C851 1.398 . S
C852 C853 1.391 . S
C853 H841 0.950 . S
C853 C849 1.393 . S
C853 C852 1.391 . S
C854 H844 0.950 1_655 S
C854 C855 1.386 . S
C854 C856 1.391 . S
C855 C854 1.386 . S
C855 C859 1.393 . S
C856 H845 0.971 . S
C856 C854 1.391 . S
C856 C857 1.400 . S
C857 C851 1.491 . S
C857 C856 1.400 . S
C857 C858 1.398 . S
C858 H846 0.950 . S
C858 C857 1.398 . S
C858 C859 1.391 . S
C859 H847 0.950 . S
C859 C855 1.393 . S
C859 C858 1.391 . S
H860 C868 0.950 . S
H861 C873 0.950 . S
H862 C870 0.950 . S
H863 C872 0.950 . S
H864 C874 0.950 . S
H865 C876 0.950 . S
H866 C878 0.950 1_545 S
H867 C879 0.950 1_545 S
C868 H860 0.950 . S
C868 C869 1.386 . S
C868 C870 1.391 . S
C869 C868 1.386 . S
C869 C873 1.393 . S
C870 H862 0.950 . S
C870 C868 1.391 . S
C870 C871 1.400 . S
C871 C870 1.400 . S
C871 C872 1.398 . S
C871 C877 1.491 . S
C872 H863 0.950 . S
C872 C871 1.398 . S
C872 C873 1.391 . S
C873 H861 0.950 . S
C873 C869 1.393 . S
C873 C872 1.391 . S
C874 H864 0.950 . S
C874 C875 1.386 . S
C874 C876 1.391 . S
C875 C874 1.386 . S
C875 C879 1.393 . S
C876 H865 0.950 . S
C876 C874 1.391 . S
C876 C877 1.400 . S
C877 C871 1.491 . S
C877 C876 1.400 . S
C877 C878 1.398 . S
C878 H866 0.950 1_565 S
C878 C877 1.398 . S
C878 C879 1.391 . S
C879 H867 0.950 1_565 S
C879 C875 1.393 . S
C879 C878 1.391 . S
H880 C888 0.950 . S
H881 C893 0.950 . S
H882 C890 0.950 . S
H883 C892 0.950 . S
H884 C894 0.950 . S
H885 C896 0.950 . S
H886 C898 0.950 . S
H887 C899 0.950 . S
C888 H880 0.950 . S
C888 C889 1.386 . S
C888 C890 1.391 . S
C889 C888 1.386 . S
C889 C893 1.393 . S
C890 H882 0.950 . S
C890 C888 1.391 . S
C890 C891 1.400 . S
C891 C890 1.400 . S
C891 C892 1.398 . S
C891 C897 1.491 . S
C892 H883 0.950 . S
C892 C891 1.398 . S
C892 C893 1.391 . S
C893 H881 0.950 . S
C893 C889 1.393 . S
C893 C892 1.391 . S
C894 H884 0.950 . S
C894 C895 1.386 . S
C894 C896 1.391 . S
C895 C894 1.386 . S
C895 C899 1.393 . S
C896 H885 0.950 . S
C896 C894 1.391 . S
C896 C897 1.400 . S
C897 C891 1.491 . S
C897 C896 1.400 . S
C897 C898 1.398 . S
C898 H886 0.950 . S
C898 C897 1.398 . S
C898 C899 1.391 . S
C899 H887 0.950 . S
C899 C895 1.393 . S
C899 C898 1.391 . S
H900 C908 0.950 . S
H901 C913 0.950 . S
H902 C910 0.950 . S
H903 C912 0.950 . S
H904 C914 0.950 . S
H905 C916 0.950 . S
H906 C918 0.950 . S
H907 C919 0.950 . S
C908 H900 0.950 . S
C908 C909 1.386 . S
C908 C910 1.391 . S
C909 C908 1.386 . S
C909 C913 1.393 . S
C910 H902 0.950 . S
C910 C908 1.391 . S
C910 C911 1.400 . S
C911 C910 1.400 . S
C911 C912 1.398 . S
C911 C917 1.491 . S
C912 H903 0.950 . S
C912 C911 1.398 . S
C912 C913 1.391 . S
C913 H901 0.950 . S
C913 C909 1.393 . S
C913 C912 1.391 . S
C914 H904 0.950 . S
C914 C915 1.386 . S
C914 C916 1.391 . S
C915 C914 1.386 . S
C915 C919 1.393 . S
C916 H905 0.950 . S
C916 C914 1.391 . S
C916 C917 1.400 . S
C917 C911 1.491 . S
C917 C916 1.400 . S
C917 C918 1.398 . S
C918 H906 0.950 . S
C918 C917 1.398 . S
C918 C919 1.391 . S
C919 H907 0.950 . S
C919 C915 1.393 . S
C919 C918 1.391 . S
C449 C82 1.747 . S
C455 C178 1.921 . S
C475 C262 1.936 . S
C469 C95 1.749 . S
C495 C328 1.912 . S
C489 C56 1.850 . S
C515 C412 1.924 . S
C509 C69 1.859 . S
C535 C167 1.929 1_565 S
C529 C30 1.672 . S
C549 C43 1.709 . S
C555 C251 1.937 . S
C569 C4 1.810 . S
C575 C339 1.941 . S
C589 C17 1.792 . S
C595 C423 1.921 . S
C615 C174 0.625 1_455 S
C609 C74 0.643 . S
C635 C258 0.629 1_545 S
C629 C87 0.586 . S
C655 C330 0.608 . S
C649 C100 0.577 . S
C669 C61 0.589 . S
C675 C414 0.645 . S
C689 C22 0.656 . S
C695 C162 0.619 . S
C715 C246 0.588 . S
C709 C35 0.648 . S
C735 C342 0.560 . S
C729 C48 0.627 . S
C749 C9 0.655 . S
C755 C426 0.583 . S
C769 C73 1.992 . S
C775 C171 2.062 . S
C789 C86 1.988 . S
C795 C255 2.052 . S
C815 C335 2.052 . S
C809 C99 1.874 . S
C835 C419 2.079 . S
C829 C60 1.904 . S
C849 C21 2.010 . S
C855 C160 2.082 . S
C875 C244 2.038 . S
C869 C34 1.959 . S
C895 C346 2.055 . S
C889 C47 1.895 . S
C909 C8 1.900 . S
C915 C430 2.079 . S
