# Generated by pormake.
# Topology zzz, (3,6)-cn, num edge types: 1
# Building blocks:
#     Node 0, Type 0, BuildingBlock: CUQRIR_clean_linker_1, # of connection points: 3
#     Node 1, Type 0, BuildingBlock: CUQRIR_clean_linker_1, # of connection points: 3
#     Node 2, Type 0, BuildingBlock: CUQRIR_clean_linker_1, # of connection points: 3
#     Node 3, Type 0, BuildingBlock: CUQRIR_clean_linker_1, # of connection points: 3
#     Node 4, Type 0, BuildingBlock: CUQRIR_clean_linker_1, # of connection points: 3
#     Node 5, Type 0, BuildingBlock: CUQRIR_clean_linker_1, # of connection points: 3
#     Node 6, Type 0, BuildingBlock: CUQRIR_clean_linker_1, # of connection points: 3
#     Node 7, Type 0, BuildingBlock: CUQRIR_clean_linker_1, # of connection points: 3
#     Node 8, Type 1, BuildingBlock: KUMBOL_clean_sbu_0, # of connection points: 6
#     Node 9, Type 1, BuildingBlock: KUMBOL_clean_sbu_0, # of connection points: 6
#     Node 10, Type 1, BuildingBlock: KUMBOL_clean_sbu_0, # of connection points: 6
#     Node 11, Type 1, BuildingBlock: KUMBOL_clean_sbu_0, # of connection points: 6
#     Edge 12, Type (0, 1), BuildingBlock: XIVTED_clean_linker_0, # of connection points: 2
#     Edge 13, Type (0, 1), BuildingBlock: XIVTED_clean_linker_0, # of connection points: 2
#     Edge 14, Type (0, 1), BuildingBlock: XIVTED_clean_linker_0, # of connection points: 2
#     Edge 15, Type (0, 1), BuildingBlock: XIVTED_clean_linker_0, # of connection points: 2
#     Edge 16, Type (0, 1), BuildingBlock: XIVTED_clean_linker_0, # of connection points: 2
#     Edge 17, Type (0, 1), BuildingBlock: XIVTED_clean_linker_0, # of connection points: 2
#     Edge 18, Type (0, 1), BuildingBlock: XIVTED_clean_linker_0, # of connection points: 2
#     Edge 19, Type (0, 1), BuildingBlock: XIVTED_clean_linker_0, # of connection points: 2
#     Edge 20, Type (0, 1), BuildingBlock: XIVTED_clean_linker_0, # of connection points: 2
#     Edge 21, Type (0, 1), BuildingBlock: XIVTED_clean_linker_0, # of connection points: 2
#     Edge 22, Type (0, 1), BuildingBlock: XIVTED_clean_linker_0, # of connection points: 2
#     Edge 23, Type (0, 1), BuildingBlock: XIVTED_clean_linker_0, # of connection points: 2
#     Edge 24, Type (0, 1), BuildingBlock: XIVTED_clean_linker_0, # of connection points: 2
#     Edge 25, Type (0, 1), BuildingBlock: XIVTED_clean_linker_0, # of connection points: 2
#     Edge 26, Type (0, 1), BuildingBlock: XIVTED_clean_linker_0, # of connection points: 2
#     Edge 27, Type (0, 1), BuildingBlock: XIVTED_clean_linker_0, # of connection points: 2
#     Edge 28, Type (0, 1), BuildingBlock: XIVTED_clean_linker_0, # of connection points: 2
#     Edge 29, Type (0, 1), BuildingBlock: XIVTED_clean_linker_0, # of connection points: 2
#     Edge 30, Type (0, 1), BuildingBlock: XIVTED_clean_linker_0, # of connection points: 2
#     Edge 31, Type (0, 1), BuildingBlock: XIVTED_clean_linker_0, # of connection points: 2
#     Edge 32, Type (0, 1), BuildingBlock: XIVTED_clean_linker_0, # of connection points: 2
#     Edge 33, Type (0, 1), BuildingBlock: XIVTED_clean_linker_0, # of connection points: 2
#     Edge 34, Type (0, 1), BuildingBlock: XIVTED_clean_linker_0, # of connection points: 2
#     Edge 35, Type (0, 1), BuildingBlock: XIVTED_clean_linker_0, # of connection points: 2
# Relax obj value: 0.206
# Max RMSD: 0.169
# Mean RMSD: 0.119
data_MOF--net-zzz--node1-KUMBOL_clean_sbu_0--node2-CUQRIR_clean_linker_1--edge1-XIVTED_clean_linker_0
_symmetry_space_group_name_H-M    P1
_symmetry_Int_Tables_number       1
_symmetry_cell_setting            triclinic
loop_
_symmetry_equiv_pos_as_xyz
'x, y, z'
_cell_length_a     47.497823
_cell_length_b     47.665052
_cell_length_c     13.408157
_cell_angle_alpha  91.221887
_cell_angle_beta   89.84073
_cell_angle_gamma 90.01872
loop_
_atom_site_label
_atom_site_type_symbol
_atom_site_fract_x
_atom_site_fract_y
_atom_site_fract_z
_atom_type_partial_charge
C0 C 0.75053 0.54053 0.27172 0.0
N1 N 0.77653 0.55303 0.27427 0.0
N2 N 0.73369 0.55197 0.20018 0.0
C3 C 0.74159 0.5174 0.33863 0.0
C4 C 0.7506 0.57146 0.159 0.0
N5 N 0.77615 0.57224 0.20348 0.0
C6 C 0.74261 0.5885 0.07 0.0
H7 H 0.7487 0.49708 0.30546 0.0
H8 H 0.71833 0.51687 0.34633 0.0
H9 H 0.75153 0.52002 0.41306 0.0
H10 H 0.72643 0.60414 0.09285 0.0
H11 H 0.73322 0.57462 0.01147 0.0
H12 H 0.76079 0.59992 0.03841 0.0
C13 C 1.00546 0.75627 0.27256 0.0
N14 N 0.99466 0.78292 0.28475 0.0
N15 N 0.99284 0.7418 0.19446 0.0
C16 C 0.02762 0.74414 0.33807 0.0
C17 C 0.97445 0.76108 0.1593 0.0
N18 N 0.97531 0.78537 0.21388 0.0
C19 C 0.958 0.75741 0.06385 0.0
H20 H 0.04856 0.74783 0.30394 0.0
H21 H 0.02459 0.72116 0.34464 0.0
H22 H 0.02722 0.75441 0.41313 0.0
H23 H 0.93662 0.74958 0.08173 0.0
H24 H 0.96838 0.74218 0.012 0.0
H25 H 0.95576 0.77763 0.02521 0.0
C26 C 0.78293 1.00171 0.30031 0.0
N27 N 0.75966 0.98609 0.32321 0.0
N28 N 0.80278 0.98591 0.25071 0.0
C29 C 0.78547 0.03266 0.31979 0.0
C30 C 0.79052 0.96029 0.24444 0.0
N31 N 0.76434 0.96035 0.28533 0.0
C32 C 0.80346 0.93538 0.19082 0.0
H33 H 0.7756 0.04389 0.25726 0.0
H34 H 0.80793 0.03896 0.32448 0.0
H35 H 0.77432 0.03879 0.38975 0.0
H36 H 0.82647 0.93476 0.20489 0.0
H37 H 0.80032 0.93726 0.10929 0.0
H38 H 0.79362 0.91554 0.21536 0.0
C39 C 0.54456 0.79542 0.34703 0.0
N40 N 0.54656 0.76682 0.34503 0.0
N41 N 0.54613 0.80577 0.25269 0.0
C42 C 0.54011 0.8131 0.43935 0.0
C43 C 0.54874 0.78237 0.19417 0.0
N44 N 0.54924 0.75914 0.2498 0.0
C45 C 0.54936 0.78206 0.08211 0.0
H46 H 0.52506 0.8303 0.42423 0.0
H47 H 0.56046 0.82282 0.46128 0.0
H48 H 0.5323 0.8003 0.50181 0.0
H49 H 0.55996 0.80113 0.05428 0.0
H50 H 0.52742 0.78178 0.05395 0.0
H51 H 0.56032 0.76306 0.05262 0.0
C52 C 0.2903 0.50825 0.12658 0.0
N53 N 0.26495 0.49585 0.10566 0.0
N54 N 0.30593 0.49243 0.19038 0.0
C55 C 0.2998 0.53557 0.08475 0.0
C56 C 0.28873 0.47027 0.20814 0.0
N57 N 0.26435 0.47221 0.15646 0.0
C58 C 0.29535 0.44717 0.27933 0.0
H59 H 0.32302 0.53578 0.07541 0.0
H60 H 0.29388 0.55279 0.13769 0.0
H61 H 0.28942 0.53936 0.01221 0.0
H62 H 0.30735 0.45555 0.34432 0.0
H63 H 0.3085 0.43114 0.24026 0.0
H64 H 0.27605 0.43662 0.30611 0.0
C65 C 0.03324 0.28162 0.11958 0.0
N66 N 0.04904 0.25848 0.09228 0.0
N67 N 0.04889 0.30127 0.17195 0.0
C68 C 1.00228 0.28411 0.10101 0.0
C69 C 0.07467 0.28908 0.17409 0.0
N70 N 0.07481 0.26337 0.12839 0.0
C71 C 0.10013 0.30214 0.22303 0.0
H72 H 0.99563 0.30641 0.10129 0.0
H73 H 0.99075 0.27332 0.16118 0.0
H74 H 0.99669 0.27376 0.02882 0.0
H75 H 0.09994 0.29761 0.30381 0.0
H76 H 0.09992 0.32526 0.21467 0.0
H77 H 0.11978 0.29338 0.18996 0.0
C78 C 0.26199 0.03996 0.09477 0.0
N79 N 0.28544 0.05524 0.07202 0.0
N80 N 0.24165 0.05645 0.13835 0.0
C81 C 0.25989 1.00874 0.0821 0.0
C82 C 0.25381 0.08216 0.1406 0.0
N83 N 0.28055 0.08149 0.10399 0.0
C84 C 0.23946 0.10816 0.18128 0.0
H85 H 0.23755 1.00194 0.08005 0.0
H86 H 0.27037 0.99878 0.14615 0.0
H87 H 0.27086 1.00169 0.01281 0.0
H88 H 0.23892 0.10776 0.26393 0.0
H89 H 0.21732 0.10864 0.15507 0.0
H90 H 0.25055 0.1274 0.15746 0.0
C91 C 0.50955 0.25133 0.09273 0.0
N92 N 0.50093 0.27824 0.07782 0.0
N93 N 0.49432 0.23922 0.1671 0.0
C94 C 0.53433 0.23776 0.04179 0.0
C95 C 0.47618 0.25993 0.19577 0.0
N96 N 0.48026 0.28345 0.14278 0.0
C97 C 0.45424 0.25737 0.27621 0.0
H98 H 0.52673 0.22047 0.99207 0.0
H99 H 0.54837 0.22839 0.09814 0.0
H100 H 0.54632 0.25297 0.99681 0.0
H101 H 0.46334 0.264 0.34904 0.0
H102 H 0.4469 0.23534 0.28152 0.0
H103 H 0.43604 0.27122 0.2609 0.0
Gd104 Gd 0.99482 0.02891 0.59047 0.0
Gd105 Gd 0.04473 0.01197 0.77706 0.0
C106 C 0.09443 0.06945 0.99065 0.0
C107 C 0.14261 0.06193 0.93569 0.0
C108 C 0.10395 0.03742 0.85271 0.0
C109 C 0.08483 0.05121 0.91372 0.0
C110 C 0.13312 0.04236 0.86368 0.0
C111 C 0.12331 0.07518 1.00003 0.0
C112 C 0.0749 0.08045 0.05869 0.0
C113 C 0.04649 0.07366 0.0483 0.0
N114 N 0.05703 0.0453 0.90261 0.0
C115 C 0.0379 0.05601 0.96961 0.0
H116 H 0.01588 0.051 0.96404 0.0
C117 C 0.11262 1.00183 0.73143 0.0
N118 N 0.09413 0.01804 0.78615 0.0
C119 C 0.14164 1.00624 0.73862 0.0
C120 C 0.15195 0.02682 0.80429 0.0
H121 H 0.10513 0.98586 0.67997 0.0
H122 H 0.13098 0.0894 0.058 0.0
H123 H 0.02818 0.99073 0.41106 0.0
H124 H 0.08183 0.09336 0.12116 0.0
H125 H 0.03118 0.08164 0.10162 0.0
H126 H 0.16486 0.06632 0.94417 0.0
H127 H 0.9322 0.05073 0.67801 0.0
H128 H 0.96971 0.93199 0.28485 0.0
H129 H 0.0175 0.95241 0.29158 0.0
H130 H 0.88261 0.95679 0.44354 0.0
H131 H 0.15604 0.99373 0.6935 0.0
H132 H 0.17447 0.03005 0.81039 0.0
H133 H 0.9195 0.93366 0.34244 0.0
H134 H 0.88208 0.03712 0.66494 0.0
N135 N 0.98713 0.99145 0.47583 0.0
C136 C 0.97427 0.94879 0.33808 0.0
C137 C 1.00126 0.96029 0.34153 0.0
C138 C 0.95325 0.95981 0.40079 0.0
C139 C 0.96034 0.98158 0.46936 0.0
C140 C 1.00722 0.98205 0.40984 0.0
N141 N 0.94678 0.01651 0.58732 0.0
C142 C 0.93955 0.99452 0.52659 0.0
C143 C 0.89803 0.02485 0.6262 0.0
C144 C 0.89042 1.00131 0.56866 0.0
C145 C 0.92639 0.03249 0.63341 0.0
C146 C 0.91117 0.98612 0.51649 0.0
H147 H 0.86841 0.99555 0.56264 0.0
O148 O 0.97101 0.06427 0.5362 0.0
O149 O 0.02447 0.04842 0.70376 0.0
O150 O 1.00025 0.01809 0.84453 0.0
O151 O 0.97083 1.00683 0.71313 0.0
O152 O 0.98553 0.0664 0.69524 0.0
O153 O 1.00057 0.04217 0.43847 0.0
O154 O 0.06284 0.97297 0.82693 0.0
O155 O 0.01544 0.99244 0.66195 0.0
O156 O 0.03992 0.02918 0.52374 0.0
O157 O 0.06988 0.0346 0.65927 0.0
O158 O 0.05573 0.97752 0.66415 0.0
O159 O 0.03002 0.99338 0.91415 0.0
C160 C 1.00935 0.06827 0.74058 0.0
C161 C 0.90426 0.96362 0.45179 0.0
C162 C 0.92526 0.95046 0.39418 0.0
C163 C 0.98221 0.0624 0.44757 0.0
C164 C 0.98791 0.08863 0.39665 0.0
C165 C 0.96505 0.10615 0.37569 0.0
C166 C 0.01496 0.09546 0.36216 0.0
C167 C 0.01889 0.11952 0.30539 0.0
C168 C 0.96899 0.13025 0.32053 0.0
C169 C 0.99571 0.13691 0.28529 0.0
C170 C 0.97516 1.01027 0.81004 0.0
C171 C 0.03164 0.97382 0.62294 0.0
C172 C 0.043 0.96986 0.89307 0.0
C173 C 0.02503 0.94478 0.87884 0.0
C174 C 0.03495 0.92168 0.82223 0.0
C175 C 0.99692 0.9449 0.91253 0.0
C176 C 0.97881 0.92216 0.89129 0.0
C177 C 0.01706 0.89949 0.79797 0.0
C178 C 0.98931 0.89963 0.83187 0.0
C179 C 0.06536 0.03429 0.56175 0.0
H180 H 0.94403 0.10097 0.40105 0.0
H181 H 0.03271 0.08195 0.37755 0.0
H182 H 0.9513 0.14374 0.30474 0.0
H183 H 0.99836 0.15596 0.24367 0.0
H184 H 0.05638 0.92104 0.79443 0.0
H185 H 0.98929 0.96269 0.95605 0.0
H186 H 0.02483 0.88189 0.75351 0.0
H187 H 0.97677 0.8812 0.81522 0.0
Gd188 Gd 0.51398 0.99609 0.61466 0.0
Gd189 Gd 0.53223 0.04876 0.80027 0.0
C190 C 0.46305 0.09271 0.98134 0.0
C191 C 0.46608 0.14051 0.92294 0.0
C192 C 0.49758 0.10452 0.85563 0.0
C193 C 0.48496 0.08471 0.91533 0.0
C194 C 0.48881 0.1328 0.86101 0.0
C195 C 0.45316 0.12048 0.98275 0.0
C196 C 0.4525 0.07287 0.04696 0.0
C197 C 0.46471 0.0463 0.04959 0.0
N198 N 0.49534 0.05814 0.91399 0.0
C199 C 0.48655 0.0394 0.98337 0.0
H200 H 0.49569 0.01873 0.98617 0.0
C201 C 0.53546 0.11611 0.74909 0.0
N202 N 0.51962 0.0965 0.79697 0.0
C203 C 0.52756 0.14438 0.7521 0.0
C204 C 0.50385 0.1527 0.80699 0.0
H205 H 0.55376 0.10972 0.70621 0.0
H206 H 0.43619 0.12688 0.03239 0.0
H207 H 0.55159 0.02428 0.4278 0.0
H208 H 0.43552 0.07814 0.09772 0.0
H209 H 0.45721 0.03106 0.10217 0.0
H210 H 0.4589 0.16208 0.9274 0.0
H211 H 0.48679 0.9359 0.69665 0.0
H212 H 0.5972 0.95903 0.27761 0.0
H213 H 0.58296 1.00899 0.29313 0.0
H214 H 0.57263 0.87686 0.45304 0.0
H215 H 0.5397 0.1597 0.71193 0.0
H216 H 0.49783 0.17463 0.8095 0.0
H217 H 0.59591 0.91069 0.34414 0.0
H218 H 0.49645 0.88517 0.6869 0.0
N219 N 0.54822 0.98388 0.49258 0.0
C220 C 0.58425 0.96605 0.33957 0.0
C221 C 0.57594 0.99404 0.34744 0.0
C222 C 0.57425 0.94686 0.40822 0.0
C223 C 0.55546 0.9564 0.48322 0.0
C224 C 0.55783 1.00261 0.42447 0.0
N225 N 0.52134 0.94699 0.60401 0.0
C226 C 0.54187 0.93736 0.54211 0.0
C227 C 0.50958 0.89959 0.64633 0.0
C228 C 0.53154 0.88949 0.58645 0.0
C229 C 0.50432 0.92844 0.65229 0.0
C230 C 0.54749 0.90834 0.53115 0.0
H231 H 0.53529 0.8671 0.58049 0.0
O232 O 0.47544 0.97672 0.56091 0.0
O233 O 0.49613 0.02635 0.72929 0.0
O234 O 0.53324 1.00528 0.87234 0.0
O235 O 0.53224 0.97175 0.7427 0.0
O236 O 0.47921 0.98678 0.72551 0.0
O237 O 0.49418 1.01048 0.47902 0.0
O238 O 0.56946 0.07214 0.84629 0.0
O239 O 0.55054 0.01718 0.68999 0.0
O240 O 0.51916 0.03996 0.54724 0.0
O241 O 0.50826 0.07037 0.67796 0.0
O242 O 0.56865 0.05633 0.69334 0.0
O243 O 0.54607 0.04758 0.95344 0.0
C244 C 0.4773 1.01104 0.76842 0.0
C245 C 0.56785 0.89899 0.46208 0.0
C246 C 0.58108 0.91824 0.4001 0.0
C247 C 0.47144 0.99598 0.49517 0.0
C248 C 0.44507 0.01224 0.50488 0.0
C249 C 0.42422 1.00436 0.57367 0.0
C250 C 0.44161 0.03712 0.45172 0.0
C251 C 0.41796 0.05427 0.46859 0.0
C252 C 0.40085 0.02141 0.59114 0.0
C253 C 0.39777 0.04627 0.53966 0.0
C254 C 0.53469 0.97888 0.83836 0.0
C255 C 0.57015 0.03178 0.65172 0.0
C256 C 0.5674 0.06421 0.93838 0.0
C257 C 0.59353 0.05832 0.99125 0.0
C258 C 0.61071 0.08098 0.02014 0.0
C259 C 0.60049 0.03106 0.01988 0.0
C260 C 0.62414 0.02665 0.07971 0.0
C261 C 0.6345 0.07657 0.07836 0.0
C262 C 0.64113 0.04958 0.10864 0.0
C263 C 0.51105 0.06507 0.58129 0.0
H264 H 0.42616 0.98533 0.61579 0.0
H265 H 0.45738 0.04325 0.39772 0.0
H266 H 0.38503 0.0153 0.64477 0.0
H267 H 0.37895 0.05865 0.55267 0.0
H268 H 0.60545 0.10215 0.99895 0.0
H269 H 0.58719 0.01356 0.99809 0.0
H270 H 0.64768 0.09412 0.10072 0.0
H271 H 0.65974 0.04655 0.15372 0.0
Gd272 Gd 0.49213 0.53021 0.78531 0.0
Gd273 Gd 0.54733 0.51184 0.61098 0.0
C274 C 0.61611 0.44583 0.64498 0.0
C275 C 0.65308 0.47241 0.72831 0.0
C276 C 0.60924 0.49543 0.68299 0.0
C277 C 0.59905 0.47011 0.64445 0.0
C278 C 0.6369 0.49692 0.7215 0.0
C279 C 0.6427 0.44692 0.69028 0.0
C280 C 0.60652 0.42143 0.59612 0.0
C281 C 0.58113 0.42193 0.54423 0.0
N282 N 0.57351 0.46971 0.59902 0.0
C283 C 0.56512 0.44649 0.54457 0.0
H284 H 0.54515 0.44633 0.50659 0.0
C285 C 0.60499 0.5448 0.6932 0.0
N286 N 0.59316 0.51896 0.67539 0.0
C287 C 0.63225 0.54724 0.7315 0.0
C288 C 0.64804 0.52317 0.74796 0.0
H289 H 0.59359 0.56387 0.68128 0.0
H290 H 0.65587 0.42838 0.69261 0.0
H291 H 0.4729 0.59864 0.80369 0.0
H292 H 0.619 0.4024 0.59513 0.0
H293 H 0.57382 0.40337 0.50419 0.0
H294 H 0.67412 0.47316 0.75935 0.0
H295 H 0.46826 0.46267 0.74832 0.0
H296 H 0.3897 0.60696 0.68808 0.0
H297 H 0.43251 0.62832 0.76127 0.0
H298 H 0.36132 0.51237 0.62127 0.0
H299 H 0.64101 0.56773 0.7487 0.0
H300 H 0.66914 0.52517 0.77781 0.0
H301 H 0.36341 0.56373 0.63657 0.0
H302 H 0.42583 0.43874 0.69346 0.0
N303 N 0.45436 0.56072 0.74701 0.0
C304 C 0.40758 0.5938 0.70514 0.0
C305 C 0.43169 0.60593 0.74617 0.0
C306 C 0.40638 0.56471 0.69047 0.0
C307 C 0.43026 0.54841 0.71381 0.0
C308 C 0.45467 0.58899 0.7689 0.0
N309 N 0.45225 0.50415 0.72949 0.0
C310 C 0.42904 0.51939 0.70607 0.0
C311 C 0.42645 0.46145 0.69617 0.0
C312 C 0.40297 0.47681 0.6683 0.0
C313 C 0.45085 0.47542 0.72729 0.0
C314 C 0.40394 0.50608 0.67359 0.0
H315 H 0.38415 0.46589 0.64355 0.0
O316 O 0.4777 0.50797 0.91664 0.0
O317 O 0.53848 0.52132 0.77275 0.0
O318 O 0.53576 0.47099 0.68533 0.0
O319 O 0.50733 0.48548 0.81827 0.0
O320 O 0.52695 0.55497 0.8632 0.0
O321 O 0.47612 0.55339 0.91248 0.0
O322 O 0.53962 0.53522 0.47619 0.0
O323 O 0.50123 0.52155 0.62472 0.0
O324 O 0.50243 0.56924 0.69423 0.0
O325 O 0.54729 0.55943 0.63489 0.0
O326 O 0.51176 0.48717 0.53687 0.0
O327 O 0.57675 0.50982 0.48654 0.0
C328 C 0.54812 0.54012 0.83212 0.0
C329 C 0.38056 0.52228 0.64734 0.0
C330 C 0.38178 0.55152 0.65567 0.0
C331 C 0.47232 0.53123 0.96598 0.0
C332 C 0.48165 0.53339 0.07014 0.0
C333 C 0.47096 0.51493 0.14078 0.0
C334 C 0.4988 0.55571 0.1017 0.0
C335 C 0.50421 0.56058 0.20312 0.0
C336 C 0.47723 0.51903 0.24175 0.0
C337 C 0.49313 0.54222 0.27354 0.0
C338 C 0.52195 0.46589 0.76853 0.0
C339 C 0.49107 0.5027 0.56706 0.0
C340 C 0.56142 0.52512 0.42921 0.0
C341 C 0.55605 0.51341 0.32934 0.0
C342 C 0.56435 0.52784 0.24463 0.0
C343 C 0.54176 0.48795 0.31841 0.0
C344 C 0.53497 0.4768 0.22404 0.0
C345 C 0.55707 0.51737 0.15008 0.0
C346 C 0.54219 0.49215 0.13944 0.0
C347 C 0.52617 0.57717 0.65062 0.0
H348 H 0.45735 0.49772 0.11813 0.0
H349 H 0.50661 0.57048 0.04784 0.0
H350 H 0.46927 0.50446 0.29524 0.0
H351 H 0.49674 0.54585 0.35241 0.0
H352 H 0.57573 0.54746 0.25175 0.0
H353 H 0.53566 0.4768 0.38373 0.0
H354 H 0.56244 0.52918 0.08524 0.0
H355 H 0.5367 0.48477 0.06556 0.0
Gd356 Gd 1.01247 0.49907 0.76988 0.0
Gd357 Gd 0.03588 0.5466 0.59056 0.0
C358 C 0.01797 0.64006 0.64633 0.0
C359 C 0.9841 0.64986 0.51652 0.0
C360 C 1.00359 0.60291 0.53151 0.0
C361 C 0.01923 0.61172 0.61329 0.0
C362 C 0.9873 0.62239 0.47858 0.0
C363 C 0.99923 0.65862 0.60096 0.0
C364 C 0.03708 0.64951 0.71855 0.0
C365 C 0.05818 0.63151 0.75016 0.0
N366 N 0.03829 0.59364 0.65185 0.0
C367 C 0.05882 0.60371 0.7146 0.0
H368 H 0.07577 0.59073 0.7395 0.0
C369 C 0.99825 0.56891 0.40214 0.0
N370 N 1.00725 0.57628 0.49601 0.0
C371 C 0.98349 0.58801 0.34477 0.0
C372 C 0.97682 0.61442 0.38477 0.0
H373 H 1.00296 0.54841 0.37064 0.0
H374 H 0.99772 0.6803 0.62643 0.0
H375 H 0.96759 0.4775 0.57126 0.0
H376 H 0.0368 0.67107 0.7458 0.0
H377 H 0.074 0.639 0.80224 0.0
H378 H 0.97124 0.66493 0.47792 0.0
H379 H 0.06519 0.47641 0.91675 0.0
H380 H 0.95906 0.38946 0.58081 0.0
H381 H 0.94536 0.435 0.51264 0.0
H382 H 0.02922 0.36147 0.81067 0.0
H383 H 0.97785 0.58252 0.26895 0.0
H384 H 0.96514 0.62908 0.34013 0.0
H385 H 0.99049 0.36243 0.69037 0.0
H386 H 0.08458 0.4321 0.97438 0.0
N387 N 0.99145 0.45868 0.68818 0.0
C388 C 0.96828 0.40859 0.61125 0.0
C389 C 0.96034 0.43422 0.57323 0.0
C390 C 0.98915 0.4078 0.684 0.0
C391 C 1.00076 0.43338 0.72095 0.0
C392 C 0.97247 0.4589 0.61091 0.0
N393 N 0.03523 0.45724 0.81766 0.0
C394 C 0.02328 0.43268 0.78674 0.0
C395 C 0.06756 0.4319 0.92084 0.0
C396 C 0.05615 0.40657 0.88716 0.0
C397 C 0.05659 0.45705 0.88651 0.0
C398 C 0.03372 0.40667 0.81993 0.0
H399 H 0.0646 0.38705 0.91436 0.0
O400 O 0.02389 0.50928 0.92357 0.0
O401 O 0.02622 0.54429 0.75323 0.0
O402 O 0.06981 0.54371 0.71119 0.0
O403 O 0.06083 0.49859 0.75585 0.0
O404 O 0.98677 0.53784 0.81274 0.0
O405 O 0.99002 0.47979 0.89156 0.0
O406 O 0.05928 0.57002 0.47942 0.0
O407 O 0.03403 0.50029 0.62272 0.0
O408 O 0.97133 0.51173 0.69213 0.0
O409 O 0.98731 0.54443 0.57722 0.0
O410 O 0.01919 0.51229 0.48626 0.0
O411 O 0.0739 0.52949 0.5216 0.0
C412 C 1.0054 0.55683 0.79468 0.0
C413 C 0.02149 0.38152 0.78572 0.0
C414 C 0.99933 0.38208 0.71774 0.0
C415 C 1.00481 0.49271 0.96039 0.0
C416 C 0.98945 0.50236 0.04971 0.0
C417 C 0.98663 0.48387 0.12887 0.0
C418 C 0.97532 0.52819 0.05339 0.0
C419 C 0.95655 0.5347 0.13202 0.0
C420 C 0.96908 0.49065 0.20923 0.0
C421 C 0.95404 0.51574 0.2109 0.0
C422 C 0.07804 0.52039 0.75411 0.0
C423 C 0.02481 0.49081 0.53935 0.0
C424 C 0.07504 0.54876 0.4549 0.0
C425 C 0.07402 0.53856 0.34965 0.0
C426 C 0.05775 0.5521 0.27755 0.0
C427 C 0.0878 0.51351 0.32281 0.0
C428 C 0.08474 0.50126 0.22683 0.0
C429 C 0.05402 0.53984 0.18287 0.0
C430 C 0.06722 0.51447 0.15769 0.0
C431 C 0.96663 0.52967 0.61855 0.0
H432 H 0.99729 0.46376 0.12693 0.0
H433 H 0.97797 0.54261 0.99327 0.0
H434 H 0.96598 0.47581 0.26819 0.0
H435 H 0.93927 0.5193 0.27144 0.0
H436 H 0.04754 0.57192 0.29452 0.0
H437 H 0.10147 0.50397 0.37701 0.0
H438 H 0.04097 0.55013 0.12857 0.0
H439 H 0.06421 0.50555 0.08358 0.0
H440 H 0.2369 0.05704 0.33895 0.0
H441 H 0.06937 0.02663 0.35504 0.0
H442 H 0.18945 0.03997 0.07221 0.0
H443 H 0.11919 0.05152 0.61018 0.0
H444 H 0.11181 0.03008 0.24938 0.0
H445 H 0.19382 0.05212 0.43836 0.0
C446 C 0.21737 0.05176 0.30146 0.0
C447 C 0.21695 0.04869 0.197 0.0
C448 C 0.11345 0.03467 0.32859 0.0
C449 C 0.16669 0.04356 0.31099 0.0
C450 C 0.0891 0.03283 0.38926 0.0
C451 C 0.09042 0.03832 0.49306 0.0
C452 C 0.13962 0.04196 0.37142 0.0
C453 C 0.11686 0.04642 0.53166 0.0
C454 C 0.19262 0.0492 0.35819 0.0
C455 C 0.19083 0.04229 0.15242 0.0
N456 N 0.14011 0.0478 0.47159 0.0
N457 N 0.16683 0.04003 0.20928 0.0
H458 H 0.50397 0.23398 0.36449 0.0
H459 H 0.52441 0.06795 0.37907 0.0
H460 H 0.49677 0.18504 0.09222 0.0
H461 H 0.48712 0.11671 0.61942 0.0
H462 H 0.52105 0.10925 0.27157 0.0
H463 H 0.50638 0.1907 0.45878 0.0
C464 C 0.50289 0.21406 0.32441 0.0
C465 C 0.49957 0.21331 0.22026 0.0
C466 C 0.5137 0.11083 0.34801 0.0
C467 C 0.50307 0.16309 0.32857 0.0
C468 C 0.51558 0.08723 0.40966 0.0
C469 C 0.5069 0.08887 0.51035 0.0
C470 C 0.50347 0.13648 0.38746 0.0
C471 C 0.4952 0.11449 0.54422 0.0
C472 C 0.5043 0.18929 0.3784 0.0
C473 C 0.49928 0.18669 0.17231 0.0
N474 N 0.49427 0.13717 0.48395 0.0
N475 N 0.50098 0.16265 0.22671 0.0
H476 H 0.35001 0.45632 0.18171 0.0
H477 H 0.45762 0.54853 0.51798 0.0
H478 H 0.32669 0.53807 0.29602 0.0
H479 H 0.46263 0.45876 0.48053 0.0
H480 H 0.41318 0.54802 0.42219 0.0
H481 H 0.39472 0.4599 0.27186 0.0
C482 C 0.35438 0.47517 0.22534 0.0
C483 C 0.33422 0.49677 0.23147 0.0
C484 C 0.4239 0.52842 0.43546 0.0
C485 C 0.38616 0.50124 0.33597 0.0
C486 C 0.44924 0.52868 0.49081 0.0
C487 C 0.46357 0.50352 0.51067 0.0
C488 C 0.41306 0.50289 0.39674 0.0
C489 C 0.45216 0.47862 0.46937 0.0
C490 C 0.37999 0.4772 0.27724 0.0
C491 C 0.34151 0.52093 0.28833 0.0
N492 N 0.42781 0.47895 0.41515 0.0
N493 N 0.36673 0.52248 0.33839 0.0
H494 H 0.02747 0.35022 0.0976 0.0
H495 H 0.05227 0.44199 0.60741 0.0
H496 H 0.05388 0.31306 0.37135 0.0
H497 H 1.00766 0.47319 0.35496 0.0
H498 H 0.0553 0.39552 0.52217 0.0
H499 H 0.02146 0.39557 0.18809 0.0
C500 C 0.03145 0.35136 0.17704 0.0
C501 C 0.04089 0.32732 0.2264 0.0
C502 C 0.04453 0.41244 0.48557 0.0
C503 C 0.03502 0.3801 0.33155 0.0
C504 C 0.04255 0.43906 0.53511 0.0
C505 C 0.0283 0.46159 0.49117 0.0
C506 C 0.03306 0.40821 0.389 0.0
C507 C 0.01777 0.45643 0.39402 0.0
C508 C 0.02833 0.37747 0.22892 0.0
C509 C 0.04651 0.33077 0.32958 0.0
N510 N 0.0203 0.43072 0.34694 0.0
N511 N 0.04371 0.35634 0.37787 0.0
H512 H 0.80536 0.98954 0.05037 0.0
H513 H 0.97138 0.02359 0.0132 0.0
H514 H 0.85613 0.99954 0.31363 0.0
H515 H 0.92259 0.98762 0.77213 0.0
H516 H 0.93003 0.01958 0.12361 0.0
H517 H 0.8476 0.99509 0.94666 0.0
C518 C 0.82539 0.99356 0.08629 0.0
C519 C 0.82697 0.99453 0.19099 0.0
C520 C 0.92834 0.01273 0.04635 0.0
C521 C 0.87616 1.00047 0.07184 0.0
C522 C 0.95205 0.01499 0.98287 0.0
C523 C 0.95061 1.00667 0.88132 0.0
C524 C 0.90263 1.00233 1.00849 0.0
C525 C 0.92479 0.9953 0.84814 0.0
C526 C 0.84964 0.99642 0.02703 0.0
C527 C 0.85375 0.99919 0.23336 0.0
N528 N 0.90204 0.99377 0.91061 0.0
N529 N 0.87719 1.002 0.17394 0.0
H530 H 0.58308 0.84949 0.26533 0.0
H531 H 0.49521 0.93863 0.86753 0.0
H532 H 0.50179 0.8259 0.15127 0.0
H533 H 0.57586 0.96591 0.97765 0.0
H534 H 0.49679 0.89874 0.9787 0.0
H535 H 0.58024 0.89371 0.17241 0.0
C536 C 0.56431 0.85402 0.22298 0.0
C537 C 0.54245 0.83416 0.2171 0.0
C538 C 0.51423 0.91337 0.97922 0.0
C539 C 0.53923 0.88441 0.10854 0.0
C540 C 0.51344 0.93609 0.91458 0.0
C541 C 0.53563 0.95551 0.9115 0.0
C542 C 0.53747 0.90967 0.04249 0.0
C543 C 0.55824 0.95158 0.97748 0.0
C544 C 0.56278 0.87912 0.16916 0.0
C545 C 0.51892 0.84077 0.15888 0.0
N546 N 0.55869 0.92907 0.03958 0.0
N547 N 0.51801 0.86506 0.10688 0.0
H548 H 0.71327 0.50428 0.10806 0.0
H549 H 0.57426 0.58445 0.92322 0.0
H550 H 0.68877 0.58673 0.21103 0.0
H551 H 0.58345 0.49521 0.87896 0.0
H552 H 0.61729 0.58516 0.02322 0.0
H553 H 0.66741 0.49942 0.02162 0.0
C554 C 0.69794 0.52102 0.11497 0.0
C555 C 0.70484 0.54583 0.16841 0.0
C556 C 0.61018 0.56536 0.9913 0.0
C557 C 0.6525 0.54089 0.06632 0.0
C558 C 0.58554 0.56498 0.93345 0.0
C559 C 0.57549 0.53991 0.8892 0.0
C560 C 0.62539 0.54045 1.00634 0.0
C561 C 0.59083 0.51522 0.90814 0.0
C562 C 0.67184 0.51838 0.06464 0.0
C563 C 0.68435 0.56716 0.17181 0.0
N564 N 0.61503 0.51615 0.96421 0.0
N565 N 0.65952 0.56432 0.12122 0.0
H566 H 0.95187 0.70315 0.15647 0.0
H567 H 0.04832 0.5803 0.91243 0.0
H568 H 0.0416 0.71381 0.13607 0.0
H569 H 0.96254 0.59479 0.82583 0.0
H570 H 0.04685 0.62388 0.01621 0.0
H571 H 0.95584 0.65866 0.06196 0.0
C572 C 0.97255 0.69602 0.13323 0.0
C573 C 0.99634 0.71285 0.15452 0.0
C574 C 0.02842 0.61772 0.97378 0.0
C575 C 1.00119 0.66072 0.04482 0.0
C576 C 0.0293 0.59284 0.91357 0.0
C577 C 1.00593 0.58424 0.85556 0.0
C578 C 1.00357 0.63391 0.98015 0.0
C579 C 0.98145 0.60081 0.86579 0.0
C580 C 0.97478 0.6705 0.07846 0.0
C581 C 0.0226 0.70183 0.1226 0.0
N582 N 0.98094 0.62451 0.92593 0.0
N583 N 0.02428 0.6767 0.06969 0.0
H584 H 0.08559 0.24734 0.31494 0.0
H585 H 0.06827 0.12243 0.41099 0.0
H586 H 0.10819 0.22926 0.00968 0.0
H587 H 0.03368 0.13461 0.1185 0.0
H588 H 0.10947 0.1504 0.36415 0.0
H589 H 0.09926 0.20045 0.35876 0.0
C590 C 0.09441 0.23368 0.25738 0.0
C591 C 0.09356 0.24125 0.15712 0.0
C592 C 0.09337 0.14593 0.30899 0.0
C593 C 0.10721 0.18681 0.20531 0.0
C594 C 0.06983 0.13015 0.33577 0.0
C595 C 0.04706 0.12766 0.2698 0.0
C596 C 0.09353 0.15939 0.21666 0.0
C597 C 0.05022 0.13755 0.17301 0.0
C598 C 0.10239 0.2067 0.28234 0.0
C599 C 0.1059 0.22309 0.08629 0.0
N600 N 0.07282 0.15342 0.14972 0.0
N601 N 0.11088 0.196 0.11053 0.0
H602 H 0.32444 0.10485 0.99981 0.0
H603 H 0.39752 0.10633 0.52245 0.0
H604 H 0.28765 0.10048 0.29319 0.0
H605 H 0.42427 0.05689 0.26636 0.0
H606 H 0.36952 0.13553 0.41249 0.0
H607 H 0.36987 0.11696 0.07732 0.0
C608 C 0.32565 0.10712 0.07994 0.0
C609 C 0.30271 0.09982 0.14034 0.0
C610 C 0.38267 0.11915 0.37995 0.0
C611 C 0.35332 0.11638 0.22811 0.0
C612 C 0.39842 0.10232 0.44266 0.0
C613 C 0.41194 0.0783 0.40377 0.0
C614 C 0.38024 0.11148 0.27869 0.0
C615 C 0.41336 0.07468 0.29979 0.0
C616 C 0.35134 0.11473 0.12375 0.0
C617 C 0.30472 0.10546 0.24323 0.0
N618 N 0.39681 0.09053 0.24083 0.0
N619 N 0.3297 0.11295 0.28388 0.0
H620 H 0.45411 0.32325 0.03437 0.0
H621 H 0.54768 0.43062 0.32947 0.0
H622 H 0.49086 0.3077 0.32078 0.0
H623 H 0.49105 0.45912 0.10206 0.0
H624 H 0.5235 0.38603 0.33014 0.0
H625 H 0.46119 0.37388 0.06325 0.0
C626 C 0.4624 0.33067 0.1053 0.0
C627 C 0.47249 0.31145 0.17456 0.0
C628 C 0.51589 0.40208 0.28103 0.0
C629 C 0.48094 0.3687 0.20764 0.0
C630 C 0.52977 0.42766 0.28064 0.0
C631 C 0.52099 0.44897 0.21733 0.0
C632 C 0.49335 0.39717 0.21559 0.0
C633 C 0.49833 0.44339 0.15277 0.0
C634 C 0.46663 0.35946 0.12149 0.0
C635 C 0.4829 0.32186 0.26552 0.0
N636 N 0.48534 0.41787 0.15295 0.0
N637 N 0.48751 0.34974 0.27844 0.0
H638 H 0.23917 0.43776 0.02074 0.0
H639 H 0.11027 0.49073 0.04553 0.0
H640 H 0.23243 0.47031 0.32134 0.0
H641 H 0.10104 0.4562 0.33912 0.0
H642 H 0.15249 0.46287 0.02091 0.0
H643 H 0.1887 0.42595 0.02394 0.0
C644 C 0.22718 0.44139 0.08855 0.0
C645 C 0.23933 0.45578 0.16981 0.0
C646 C 0.14065 0.46053 0.08921 0.0
C647 C 0.18254 0.44202 0.17506 0.0
C648 C 0.11638 0.47654 0.10361 0.0
C649 C 0.10286 0.47705 0.19692 0.0
C650 C 0.15186 0.44583 0.16953 0.0
C651 C 0.11183 0.45778 0.26822 0.0
C652 C 0.19859 0.43462 0.09046 0.0
C653 C 0.22349 0.45951 0.25704 0.0
N654 N 0.13659 0.44396 0.25507 0.0
N655 N 0.19567 0.45314 0.2569 0.0
H656 H 1.0011 0.83417 0.18024 0.0
H657 H 0.93053 0.89199 0.83682 0.0
H658 H 0.91933 0.79518 0.18567 0.0
H659 H 0.96112 0.94648 0.0733 0.0
H660 H 0.90874 0.86259 0.96129 0.0
H661 H 0.97938 0.8784 0.14057 0.0
C662 C 0.9784 0.83522 0.17553 0.0
C663 C 0.96191 0.81136 0.18878 0.0
C664 C 0.91895 0.88186 0.98577 0.0
C665 C 0.93671 0.8617 0.13768 0.0
C666 C 0.93202 0.89842 0.91456 0.0
C667 C 0.95147 0.91906 0.94579 0.0
C668 C 0.92591 0.88641 0.08631 0.0
C669 C 0.94931 0.9286 0.04558 0.0
C670 C 0.9659 0.86047 0.15325 0.0
C671 C 0.93261 0.81338 0.17614 0.0
N672 N 0.93759 0.91149 0.11378 0.0
N673 N 0.92085 0.8381 0.14816 0.0
H674 H 0.75124 0.95228 0.09216 0.0
H675 H 0.63443 1.00979 0.26769 0.0
H676 H 0.72621 0.92803 0.38652 0.0
H677 H 0.63147 0.97929 0.96326 0.0
H678 H 0.65866 0.96716 0.31441 0.0
H679 H 0.70415 0.94315 0.03297 0.0
C680 C 0.73602 0.94392 0.14389 0.0
C681 C 0.74193 0.94303 0.24614 0.0
C682 C 0.65211 0.96926 0.23772 0.0
C683 C 0.6874 0.9349 0.18049 0.0
C684 C 0.63847 0.99374 0.21109 0.0
C685 C 0.63185 0.99828 0.11129 0.0
C686 C 0.66091 0.95016 0.1629 0.0
C687 C 0.63681 0.97666 0.04095 0.0
C688 C 0.70888 0.93872 0.11006 0.0
C689 C 0.72162 0.93148 0.30889 0.0
N690 N 0.65206 0.95386 0.06735 0.0
N691 N 0.69463 0.92913 0.27634 0.0
H692 H 0.50019 0.73368 0.21873 0.0
H693 H 0.55393 0.58118 0.13256 0.0
H694 H 0.58971 0.72056 0.21507 0.0
H695 H 0.48526 0.6006 0.33365 0.0
H696 H 0.56825 0.63049 0.13961 0.0
H697 H 0.49299 0.68278 0.22346 0.0
C698 C 0.51822 0.7198 0.21441 0.0
C699 C 0.54546 0.73081 0.21545 0.0
C700 C 0.55055 0.62373 0.18419 0.0
C701 C 0.53771 0.67333 0.22401 0.0
C702 C 0.54254 0.59564 0.18114 0.0
C703 C 0.51834 0.58695 0.23251 0.0
C704 C 0.53368 0.64312 0.23639 0.0
C705 C 0.50403 0.60652 0.29314 0.0
C706 C 0.51422 0.69103 0.21975 0.0
C707 C 0.56844 0.71244 0.21269 0.0
N708 N 0.51148 0.63397 0.29136 0.0
N709 N 0.5641 0.68431 0.21751 0.0
H710 H 0.80151 0.55257 0.03891 0.0
H711 H 0.93176 0.56624 0.28382 0.0
H712 H 0.80677 0.61755 0.26535 0.0
H713 H 0.93358 0.55684 0.96215 0.0
H714 H 0.88962 0.59414 0.27104 0.0
H715 H 0.85002 0.56221 0.99026 0.0
C716 C 0.81289 0.56941 0.07645 0.0
C717 C 0.8011 0.58338 0.15903 0.0
C718 C 0.89996 0.58706 0.2029 0.0
C719 C 0.85644 0.59392 0.10713 0.0
C720 C 0.9241 0.5708 0.21008 0.0
C721 C 0.93628 0.55839 0.12424 0.0
C722 C 0.88709 0.58984 0.10977 0.0
C723 C 0.92504 0.56547 0.03103 0.0
C724 C 0.84044 0.57508 0.04863 0.0
C725 C 0.81605 0.60537 0.20479 0.0
N726 N 0.90048 0.5799 0.0265 0.0
N727 N 0.84358 0.60928 0.18107 0.0
H728 H 1.00971 0.21886 0.14791 0.0
H729 H 0.06021 0.09907 0.74792 0.0
H730 H 0.06857 0.23701 0.91409 0.0
H731 H 0.97636 0.09933 0.86994 0.0
H732 H 0.06858 0.14538 0.83059 0.0
H733 H 1.00023 0.17274 0.06587 0.0
C734 C 0.02067 0.21329 0.07945 0.0
C735 C 0.04045 0.23214 0.03954 0.0
C736 C 0.04839 0.13522 0.83997 0.0
C737 C 0.03086 0.17783 0.94717 0.0
C738 C 0.04369 0.10847 0.79325 0.0
C739 C 0.01748 0.09469 0.80151 0.0
C740 C 0.02701 0.14856 0.89771 0.0
C741 C 0.99694 0.10874 0.86092 0.0
C742 C 0.01549 0.18665 0.03292 0.0
C743 C 0.05383 0.22315 0.94995 0.0
N744 N 1.00213 0.13435 0.90655 0.0
N745 N 0.04932 0.19683 0.90862 0.0
H746 H 0.32765 0.02507 0.15778 0.0
H747 H 0.44481 0.05962 0.74661 0.0
H748 H 0.30467 0.06475 0.88499 0.0
H749 H 0.44623 0.9812 0.89996 0.0
H750 H 0.39764 0.06926 0.81887 0.0
H751 H 0.37488 0.01514 0.08654 0.0
C752 C 0.33238 0.03127 0.08236 0.0
C753 C 0.31198 0.04553 0.02701 0.0
C754 C 0.40843 0.05007 0.83739 0.0
C755 C 0.36659 0.03535 0.9461 0.0
C756 C 0.43552 0.04468 0.7968 0.0
C757 C 0.44991 0.0197 0.81819 0.0
C758 C 0.39569 0.03066 0.90171 0.0
C759 C 0.43618 1.00083 0.88186 0.0
C760 C 0.35943 0.02585 0.04193 0.0
C761 C 0.31961 0.0535 0.92991 0.0
N762 N 0.41027 1.00679 0.92197 0.0
N763 N 0.34623 0.04875 0.89338 0.0
H764 H 0.49023 0.28859 0.8834 0.0
H765 H 0.52916 0.4496 0.961 0.0
H766 H 0.53729 0.31917 0.13637 0.0
H767 H 0.51692 0.41506 0.66597 0.0
H768 H 0.53057 0.40199 0.02673 0.0
H769 H 0.49868 0.33351 0.79995 0.0
C770 C 0.50335 0.30433 0.91957 0.0
C771 C 0.51349 0.29985 0.01636 0.0
C772 C 0.52738 0.40473 0.94766 0.0
C773 C 0.52202 0.35207 0.92364 0.0
C774 C 0.5265 0.43202 0.91027 0.0
C775 C 0.52276 0.4366 0.8082 0.0
C776 C 0.52342 0.3814 0.88324 0.0
C777 C 0.51986 0.41267 0.74538 0.0
C778 C 0.50782 0.33017 0.87261 0.0
C779 C 0.52954 0.32148 0.06118 0.0
N780 N 0.51977 0.38624 0.78391 0.0
N781 N 0.5328 0.34668 0.01564 0.0
H782 H 0.22307 0.53211 0.16167 0.0
H783 H 0.1149 0.47565 0.75259 0.0
H784 H 0.2511 0.47969 0.91652 0.0
H785 H 0.10711 0.56051 0.86566 0.0
H786 H 0.16179 0.47278 0.82995 0.0
H787 H 0.17811 0.5398 0.0733 0.0
C788 C 0.22011 0.52291 0.08795 0.0
C789 C 0.24132 0.50576 0.04563 0.0
C790 C 0.14988 0.49208 0.83769 0.0
C791 C 0.18903 0.5132 0.94578 0.0
C792 C 0.12299 0.49371 0.79367 0.0
C793 C 0.10691 0.51849 0.80113 0.0
C794 C 0.16068 0.51494 0.89399 0.0
C795 C 0.11873 0.54108 0.85647 0.0
C796 C 0.19428 0.52703 0.03791 0.0
C797 C 0.23568 0.49349 0.95123 0.0
N798 N 0.14451 0.53865 0.90168 0.0
N799 N 0.21014 0.49702 0.90566 0.0
H800 H 0.95886 0.81092 0.41098 0.0
H801 H 0.06704 0.93929 0.51842 0.0
H802 H 0.04529 0.81002 0.31557 0.0
H803 H 0.98118 0.94148 0.62149 0.0
H804 H 0.05931 0.89204 0.44875 0.0
H805 H 0.96664 0.85679 0.49456 0.0
C806 C 0.97979 0.81992 0.41021 0.0
C807 C 1.0015 0.80588 0.35674 0.0
C808 C 0.04199 0.90269 0.48599 0.0
C809 C 1.01054 0.85982 0.45136 0.0
C810 C 0.04636 0.92997 0.52597 0.0
C811 C 0.02469 0.94518 0.5751 0.0
C812 C 0.01561 0.88952 0.49484 0.0
C813 C 0.99849 0.93127 0.58268 0.0
C814 C 0.98412 0.84648 0.45707 0.0
C815 C 0.02798 0.81934 0.35712 0.0
N816 N 0.99474 0.90452 0.54316 0.0
N817 N 0.03159 0.84534 0.4023 0.0
H818 H 0.72174 0.02629 0.26527 0.0
H819 H 0.59992 0.98079 0.65267 0.0
H820 H 0.73666 0.96642 0.49441 0.0
H821 H 0.60147 0.06257 0.52277 0.0
H822 H 0.64627 0.97072 0.57464 0.0
H823 H 0.67549 0.03716 0.34213 0.0
C824 C 0.71541 0.0155 0.33192 0.0
C825 C 0.73326 0.99509 0.37238 0.0
C826 C 0.63637 0.99082 0.56265 0.0
C827 C 0.67921 1.00647 0.45882 0.0
C828 C 0.60967 0.99647 0.60657 0.0
C829 C 0.59636 0.02259 0.59435 0.0
C830 C 0.65004 0.01123 0.50455 0.0
C831 C 0.61065 0.04212 0.53449 0.0
C832 C 0.68879 0.02152 0.37551 0.0
C833 C 0.7235 0.98181 0.45905 0.0
N834 N 0.63629 0.03606 0.49193 0.0
N835 N 0.69725 0.98727 0.49787 0.0
H836 H 0.49851 0.74803 0.43195 0.0
H837 H 0.57458 0.60481 0.59265 0.0
H838 H 0.58804 0.73587 0.42517 0.0
H839 H 0.48546 0.61862 0.62883 0.0
H840 H 0.57972 0.65307 0.53642 0.0
H841 H 0.49312 0.70252 0.51417 0.0
C842 C 0.51714 0.73641 0.45219 0.0
C843 C 0.54386 0.74635 0.42408 0.0
C844 C 0.55902 0.64571 0.55758 0.0
C845 C 0.53787 0.69314 0.51402 0.0
C846 C 0.55602 0.61793 0.58984 0.0
C847 C 0.52954 0.60726 0.61788 0.0
C848 C 0.53537 0.66343 0.55183 0.0
C849 C 0.50642 0.62571 0.61075 0.0
C850 C 0.51406 0.71007 0.4973 0.0
C851 C 0.56715 0.72953 0.44793 0.0
N852 N 0.50984 0.65262 0.57845 0.0
N853 N 0.56364 0.70386 0.49004 0.0
H854 H 0.80226 0.58942 0.4036 0.0
H855 H 0.92146 0.49205 0.62354 0.0
H856 H 0.80768 0.50441 0.29204 0.0
H857 H 0.9428 0.57394 0.51629 0.0
H858 H 0.87521 0.49573 0.5423 0.0
H859 H 0.84833 0.584 0.48472 0.0
C860 C 0.81309 0.56953 0.39626 0.0
C861 C 0.80108 0.54765 0.33825 0.0
C862 C 0.89005 0.51287 0.53646 0.0
C863 C 0.85386 0.54069 0.43669 0.0
C864 C 0.91667 0.51086 0.5832 0.0
C865 C 0.93691 0.53249 0.57616 0.0
C866 C 0.88263 0.53723 0.48511 0.0
C867 C 0.9285 0.55645 0.52341 0.0
C868 C 0.83943 0.56642 0.44312 0.0
C869 C 0.81587 0.52194 0.33554 0.0
N870 N 0.90219 0.55827 0.48156 0.0
N871 N 0.84124 0.51915 0.38409 0.0
loop_
_geom_bond_atom_site_label_1
_geom_bond_atom_site_label_2
_geom_bond_distance
_geom_bond_site_symmetry_2
_ccdc_geom_bond_type
C0 N1 1.317 . S
C0 N2 1.348 . S
C0 C3 1.485 . S
N1 C0 1.317 . S
N1 N5 1.370 . S
N2 C0 1.348 . S
N2 C4 1.346 . S
C3 C0 1.485 . S
C3 H7 0.960 . S
C3 H8 0.961 . S
C3 H9 0.960 . S
C4 N2 1.346 . S
C4 N5 1.307 . S
C4 C6 1.486 . S
N5 N1 1.370 . S
N5 C4 1.307 . S
C6 C4 1.486 . S
C6 H10 0.960 . S
C6 H11 0.960 . S
C6 H12 0.959 . S
H7 C3 0.960 . S
H8 C3 0.961 . S
H9 C3 0.960 . S
H10 C6 0.960 . S
H11 C6 0.960 . S
H12 C6 0.959 . S
C13 N14 1.317 . S
C13 N15 1.348 . S
C13 C16 1.485 . S
N14 C13 1.317 . S
N14 N18 1.370 . S
N15 C13 1.348 . S
N15 C17 1.346 . S
C16 C13 1.485 . S
C16 H20 0.960 . S
C16 H21 0.961 . S
C16 H22 0.960 . S
C17 N15 1.346 . S
C17 N18 1.307 . S
C17 C19 1.486 . S
N18 N14 1.370 . S
N18 C17 1.307 . S
C19 C17 1.486 . S
C19 H23 0.960 . S
C19 H24 0.960 . S
C19 H25 0.959 . S
H20 C16 0.960 . S
H21 C16 0.961 . S
H22 C16 0.960 . S
H23 C19 0.960 . S
H24 C19 0.960 . S
H25 C19 0.959 . S
C26 N27 1.317 . S
C26 N28 1.348 . S
C26 C29 1.485 . S
N27 C26 1.317 . S
N27 N31 1.370 . S
N28 C26 1.348 . S
N28 C30 1.346 . S
C29 C26 1.485 . S
C29 H33 0.960 . S
C29 H34 0.961 . S
C29 H35 0.960 . S
C30 N28 1.346 . S
C30 N31 1.307 . S
C30 C32 1.486 . S
N31 N27 1.370 . S
N31 C30 1.307 . S
C32 C30 1.486 . S
C32 H36 0.960 . S
C32 H37 0.960 . S
C32 H38 0.959 . S
H33 C29 0.960 . S
H34 C29 0.961 . S
H35 C29 0.960 . S
H36 C32 0.960 . S
H37 C32 0.960 . S
H38 C32 0.959 . S
C39 N40 1.317 . S
C39 N41 1.348 . S
C39 C42 1.485 . S
N40 C39 1.317 . S
N40 N44 1.370 . S
N41 C39 1.348 . S
N41 C43 1.346 . S
C42 C39 1.485 . S
C42 H46 0.960 . S
C42 H47 0.961 . S
C42 H48 0.960 . S
C43 N41 1.346 . S
C43 N44 1.307 . S
C43 C45 1.486 . S
N44 N40 1.370 . S
N44 C43 1.307 . S
C45 C43 1.486 . S
C45 H49 0.960 . S
C45 H50 0.960 . S
C45 H51 0.959 . S
H46 C42 0.960 . S
H47 C42 0.961 . S
H48 C42 0.960 . S
H49 C45 0.960 . S
H50 C45 0.960 . S
H51 C45 0.959 . S
C52 N53 1.317 . S
C52 N54 1.348 1_556 S
C52 C55 1.485 . S
N53 C52 1.317 . S
N53 N57 1.370 1_556 S
N54 C52 1.348 1_554 S
N54 C56 1.346 . S
C55 C52 1.485 . S
C55 H59 0.960 . S
C55 H60 0.961 . S
C55 H61 0.960 . S
C56 N54 1.346 . S
C56 N57 1.307 . S
C56 C58 1.486 . S
N57 N53 1.370 1_554 S
N57 C56 1.307 . S
C58 C56 1.486 . S
C58 H62 0.960 . S
C58 H63 0.960 . S
C58 H64 0.959 . S
H59 C55 0.960 . S
H60 C55 0.961 . S
H61 C55 0.960 . S
H62 C58 0.960 . S
H63 C58 0.960 . S
H64 C58 0.959 . S
C65 N66 1.317 . S
C65 N67 1.348 1_556 S
C65 C68 1.485 . S
N66 C65 1.317 . S
N66 N70 1.370 1_556 S
N67 C65 1.348 1_554 S
N67 C69 1.346 . S
C68 C65 1.485 . S
C68 H72 0.960 . S
C68 H73 0.961 . S
C68 H74 0.960 . S
C69 N67 1.346 . S
C69 N70 1.307 . S
C69 C71 1.486 . S
N70 N66 1.370 1_554 S
N70 C69 1.307 . S
C71 C69 1.486 . S
C71 H75 0.960 . S
C71 H76 0.960 . S
C71 H77 0.959 . S
H72 C68 0.960 . S
H73 C68 0.961 . S
H74 C68 0.960 . S
H75 C71 0.960 . S
H76 C71 0.960 . S
H77 C71 0.959 . S
C78 N79 1.317 . S
C78 N80 1.348 1_556 S
C78 C81 1.485 . S
N79 C78 1.317 . S
N79 N83 1.370 1_556 S
N80 C78 1.348 1_554 S
N80 C82 1.346 . S
C81 C78 1.485 . S
C81 H85 0.960 . S
C81 H86 0.961 . S
C81 H87 0.960 . S
C82 N80 1.346 . S
C82 N83 1.307 . S
C82 C84 1.486 . S
N83 N79 1.370 1_554 S
N83 C82 1.307 . S
C84 C82 1.486 . S
C84 H88 0.960 . S
C84 H89 0.960 . S
C84 H90 0.959 . S
H85 C81 0.960 . S
H86 C81 0.961 . S
H87 C81 0.960 . S
H88 C84 0.960 . S
H89 C84 0.960 . S
H90 C84 0.959 . S
C91 N92 1.317 . S
C91 N93 1.348 1_556 S
C91 C94 1.485 . S
N92 C91 1.317 . S
N92 N96 1.370 1_556 S
N93 C91 1.348 1_554 S
N93 C95 1.346 . S
C94 C91 1.485 . S
C94 H98 0.960 . S
C94 H99 0.961 . S
C94 H100 0.960 . S
C95 N93 1.346 . S
C95 N96 1.307 . S
C95 C97 1.486 . S
N96 N92 1.370 1_554 S
N96 C95 1.307 . S
C97 C95 1.486 . S
C97 H101 0.960 . S
C97 H102 0.960 . S
C97 H103 0.959 . S
H98 C94 0.960 . S
H99 C94 0.961 . S
H100 C94 0.960 . S
H101 C97 0.960 . S
H102 C97 0.960 . S
H103 C97 0.959 . S
Gd104 N135 2.661 1_545 S
Gd104 N141 2.601 . S
Gd104 O148 2.545 . S
Gd104 O149 2.606 1_655 S
Gd104 O151 2.429 . S
Gd104 O152 2.545 1_655 S
Gd104 O153 2.412 . S
Gd104 O155 2.362 1_545 S
Gd104 O156 2.324 1_655 S
Gd104 C163 2.828 . S
Gd105 N114 2.661 1_565 S
Gd105 N118 2.601 1_565 S
Gd105 O149 2.362 1_565 S
Gd105 O150 2.324 1_455 S
Gd105 O154 2.545 . S
Gd105 O155 2.606 1_455 S
Gd105 O157 2.429 . S
Gd105 O158 2.545 . S
Gd105 O159 2.412 . S
Gd105 C172 2.828 . S
C106 C109 1.417 1_554 S
C106 C111 1.431 . S
C106 C112 1.412 . S
C107 C110 1.437 1_554 S
C107 C111 1.317 . S
C107 H126 0.929 . S
C108 C109 1.426 . S
C108 C110 1.413 . S
C108 N118 1.359 . S
C109 C106 1.417 1_556 S
C109 C108 1.426 . S
C109 N114 1.350 . S
C110 C107 1.437 1_556 S
C110 C108 1.413 . S
C110 C120 1.391 . S
C111 C106 1.431 . S
C111 C107 1.317 . S
C111 H122 0.930 . S
C112 C106 1.412 . S
C112 C113 1.355 . S
C112 H124 0.930 . S
C113 C112 1.355 . S
C113 C115 1.402 1_554 S
C113 H125 0.930 1_455 S
N114 Gd105 2.661 1_545 S
N114 C109 1.350 . S
N114 C115 1.307 . S
C115 C113 1.402 1_556 S
C115 N114 1.307 . S
C115 H116 0.930 1_455 S
H116 C115 0.930 1_655 S
C117 N118 1.334 1_565 S
C117 C119 1.394 . S
C117 H121 0.930 . S
N118 Gd105 2.601 1_545 S
N118 C108 1.359 . S
N118 C117 1.334 1_545 S
C119 C117 1.394 . S
C119 C120 1.359 1_565 S
C119 H131 0.930 . S
C120 C110 1.391 . S
C120 C119 1.359 1_545 S
C120 H132 0.929 . S
H121 C117 0.930 . S
H122 C111 0.930 . S
H123 C140 0.930 . S
H124 C112 0.930 . S
H125 C113 0.930 1_655 S
H126 C107 0.929 . S
H127 C145 0.930 . S
H128 C136 0.930 . S
H129 C137 0.930 . S
H130 C161 0.929 . S
H131 C119 0.930 . S
H132 C120 0.929 . S
H133 C162 0.930 . S
H134 C143 0.930 . S
N135 Gd104 2.661 1_565 S
N135 C139 1.350 . S
N135 C140 1.307 1_655 S
C136 H128 0.930 . S
C136 C137 1.355 1_655 S
C136 C138 1.412 . S
C137 H129 0.930 . S
C137 C136 1.355 1_455 S
C137 C140 1.402 . S
C138 C136 1.412 . S
C138 C139 1.417 . S
C138 C162 1.431 . S
C139 N135 1.350 . S
C139 C138 1.417 . S
C139 C142 1.426 1_565 S
C140 H123 0.930 . S
C140 N135 1.307 1_455 S
C140 C137 1.402 . S
N141 Gd104 2.601 . S
N141 C142 1.359 . S
N141 C145 1.334 . S
C142 C139 1.426 1_545 S
C142 N141 1.359 . S
C142 C146 1.413 1_545 S
C143 H134 0.930 . S
C143 C144 1.359 . S
C143 C145 1.394 . S
C144 C143 1.359 . S
C144 C146 1.391 1_545 S
C144 H147 0.929 . S
C145 H127 0.930 . S
C145 N141 1.334 . S
C145 C143 1.394 . S
C146 C142 1.413 1_565 S
C146 C144 1.391 1_565 S
C146 C161 1.437 . S
H147 C144 0.929 . S
O148 Gd104 2.545 . S
O148 C163 1.258 . S
O149 Gd104 2.606 1_455 S
O149 Gd105 2.362 1_545 S
O149 C160 1.284 . S
O150 Gd105 2.324 1_655 S
O150 C170 1.254 1_565 S
O151 Gd104 2.429 . S
O151 C170 1.268 . S
O152 Gd104 2.545 1_455 S
O152 C160 1.250 . S
O153 Gd104 2.412 . S
O153 C163 1.252 . S
O154 Gd105 2.545 . S
O154 C172 1.258 . S
O155 Gd104 2.362 1_565 S
O155 Gd105 2.606 1_655 S
O155 C171 1.284 . S
O156 Gd104 2.324 1_455 S
O156 C179 1.254 . S
O157 Gd105 2.429 . S
O157 C179 1.268 1_565 S
O158 Gd105 2.545 . S
O158 C171 1.250 1_455 S
O159 Gd105 2.412 . S
O159 C172 1.252 . S
C160 O149 1.284 . S
C160 O152 1.250 . S
C161 H130 0.929 . S
C161 C146 1.437 . S
C161 C162 1.317 . S
C162 H133 0.930 . S
C162 C138 1.431 . S
C162 C161 1.317 . S
C163 Gd104 2.828 . S
C163 O148 1.258 . S
C163 O153 1.252 . S
C163 C164 1.497 . S
C164 C163 1.497 . S
C164 C165 1.395 . S
C164 C166 1.380 . S
C165 C164 1.395 . S
C165 C168 1.398 . S
C165 H180 0.930 . S
C166 C164 1.380 . S
C166 C167 1.391 . S
C166 H181 0.930 1_655 S
C167 C166 1.391 . S
C167 C169 1.387 . S
C168 C165 1.398 . S
C168 C169 1.380 . S
C168 H182 0.930 . S
C169 C167 1.387 . S
C169 C168 1.380 . S
C169 H183 0.930 . S
C170 O150 1.254 1_545 S
C170 O151 1.268 . S
C171 O155 1.284 . S
C171 O158 1.250 1_655 S
C172 Gd105 2.828 . S
C172 O154 1.258 . S
C172 O159 1.252 . S
C172 C173 1.497 . S
C173 C172 1.497 . S
C173 C174 1.395 . S
C173 C175 1.382 . S
C174 C173 1.395 . S
C174 C177 1.398 1_556 S
C174 H184 0.930 . S
C175 C173 1.382 . S
C175 C176 1.388 1_556 S
C175 H185 0.931 . S
C176 C175 1.388 1_554 S
C176 C178 1.387 . S
C177 C174 1.398 1_554 S
C177 C178 1.380 . S
C177 H186 0.930 . S
C178 C176 1.387 . S
C178 C177 1.380 . S
C178 H187 0.930 . S
C179 O156 1.254 . S
C179 O157 1.268 1_545 S
H180 C165 0.930 . S
H181 C166 0.930 1_455 S
H182 C168 0.930 . S
H183 C169 0.930 . S
H184 C174 0.930 . S
H185 C175 0.931 . S
H186 C177 0.930 . S
H187 C178 0.930 . S
Gd188 N219 2.661 . S
Gd188 N225 2.601 . S
Gd188 O232 2.545 . S
Gd188 O233 2.606 1_565 S
Gd188 O235 2.429 . S
Gd188 O236 2.545 1_565 S
Gd188 O237 2.412 . S
Gd188 O239 2.362 . S
Gd188 O240 2.324 1_565 S
Gd188 C247 2.828 . S
Gd189 N198 2.661 . S
Gd189 N202 2.601 . S
Gd189 O233 2.362 . S
Gd189 O234 2.324 1_545 S
Gd189 O238 2.545 . S
Gd189 O239 2.606 1_545 S
Gd189 O241 2.429 . S
Gd189 O242 2.545 . S
Gd189 O243 2.412 . S
Gd189 C256 2.828 . S
C190 C193 1.417 1_554 S
C190 C195 1.431 . S
C190 C196 1.412 . S
C191 C194 1.437 1_554 S
C191 C195 1.317 . S
C191 H210 0.929 . S
C192 C193 1.426 . S
C192 C194 1.413 . S
C192 N202 1.359 . S
C193 C190 1.417 1_556 S
C193 C192 1.426 . S
C193 N198 1.350 . S
C194 C191 1.437 1_556 S
C194 C192 1.413 . S
C194 C204 1.391 . S
C195 C190 1.431 . S
C195 C191 1.317 . S
C195 H206 0.930 . S
C196 C190 1.412 . S
C196 C197 1.355 . S
C196 H208 0.930 . S
C197 C196 1.355 . S
C197 C199 1.402 1_554 S
C197 H209 0.930 1_545 S
N198 Gd189 2.661 . S
N198 C193 1.350 . S
N198 C199 1.307 . S
C199 C197 1.402 1_556 S
C199 N198 1.307 . S
C199 H200 0.930 1_545 S
H200 C199 0.930 1_565 S
C201 N202 1.334 . S
C201 C203 1.394 . S
C201 H205 0.930 . S
N202 Gd189 2.601 . S
N202 C192 1.359 . S
N202 C201 1.334 . S
C203 C201 1.394 . S
C203 C204 1.359 . S
C203 H215 0.930 . S
C204 C194 1.391 . S
C204 C203 1.359 . S
C204 H216 0.929 . S
H205 C201 0.930 . S
H206 C195 0.930 . S
H207 C224 0.930 . S
H208 C196 0.930 . S
H209 C197 0.930 1_565 S
H210 C191 0.929 . S
H211 C229 0.930 . S
H212 C220 0.930 . S
H213 C221 0.930 . S
H214 C245 0.929 . S
H215 C203 0.930 . S
H216 C204 0.929 . S
H217 C246 0.930 . S
H218 C227 0.930 . S
N219 Gd188 2.661 . S
N219 C223 1.350 . S
N219 C224 1.307 1_565 S
C220 H212 0.930 . S
C220 C221 1.355 1_565 S
C220 C222 1.412 . S
C221 H213 0.930 . S
C221 C220 1.355 1_545 S
C221 C224 1.402 . S
C222 C220 1.412 . S
C222 C223 1.417 . S
C222 C246 1.431 . S
C223 N219 1.350 . S
C223 C222 1.417 . S
C223 C226 1.426 . S
C224 H207 0.930 . S
C224 N219 1.307 1_545 S
C224 C221 1.402 . S
N225 Gd188 2.601 . S
N225 C226 1.359 . S
N225 C229 1.334 . S
C226 C223 1.426 . S
C226 N225 1.359 . S
C226 C230 1.413 . S
C227 H218 0.930 . S
C227 C228 1.359 . S
C227 C229 1.394 . S
C228 C227 1.359 . S
C228 C230 1.391 . S
C228 H231 0.929 . S
C229 H211 0.930 . S
C229 N225 1.334 . S
C229 C227 1.394 . S
C230 C226 1.413 . S
C230 C228 1.391 . S
C230 C245 1.437 . S
H231 C228 0.929 . S
O232 Gd188 2.545 . S
O232 C247 1.258 . S
O233 Gd188 2.606 1_545 S
O233 Gd189 2.362 . S
O233 C244 1.284 . S
O234 Gd189 2.324 1_565 S
O234 C254 1.254 . S
O235 Gd188 2.429 . S
O235 C254 1.268 . S
O236 Gd188 2.545 1_545 S
O236 C244 1.250 . S
O237 Gd188 2.412 . S
O237 C247 1.252 . S
O238 Gd189 2.545 . S
O238 C256 1.258 . S
O239 Gd188 2.362 . S
O239 Gd189 2.606 1_565 S
O239 C255 1.286 . S
O240 Gd188 2.324 1_545 S
O240 C263 1.254 . S
O241 Gd189 2.429 . S
O241 C263 1.268 . S
O242 Gd189 2.545 . S
O242 C255 1.233 1_545 S
O243 Gd189 2.412 . S
O243 C256 1.252 . S
C244 O233 1.284 . S
C244 O236 1.250 . S
C245 H214 0.929 . S
C245 C230 1.437 . S
C245 C246 1.317 . S
C246 H217 0.930 . S
C246 C222 1.431 . S
C246 C245 1.317 . S
C247 Gd188 2.828 . S
C247 O232 1.258 . S
C247 O237 1.252 . S
C247 C248 1.497 . S
C248 C247 1.497 . S
C248 C249 1.395 . S
C248 C250 1.380 . S
C249 C248 1.395 . S
C249 C252 1.398 . S
C249 H264 0.930 . S
C250 C248 1.380 . S
C250 C251 1.391 . S
C250 H265 0.930 1_565 S
C251 C250 1.391 . S
C251 C253 1.387 . S
C252 C249 1.398 . S
C252 C253 1.380 . S
C252 H266 0.930 . S
C253 C251 1.387 . S
C253 C252 1.380 . S
C253 H267 0.930 . S
C254 O234 1.254 . S
C254 O235 1.268 . S
C255 O239 1.286 . S
C255 O242 1.233 1_565 S
C256 Gd189 2.828 . S
C256 O238 1.258 . S
C256 O243 1.252 . S
C256 C257 1.497 . S
C257 C256 1.497 . S
C257 C258 1.395 . S
C257 C259 1.380 1_556 S
C258 C257 1.395 . S
C258 C261 1.398 1_556 S
C258 H268 0.930 . S
C259 C257 1.380 1_554 S
C259 C260 1.391 . S
C259 H269 0.930 1_554 S
C260 C259 1.391 . S
C260 C262 1.387 . S
C261 C258 1.398 1_554 S
C261 C262 1.380 . S
C261 H270 0.930 . S
C262 C260 1.387 . S
C262 C261 1.380 . S
C262 H271 0.930 . S
C263 O240 1.254 . S
C263 O241 1.268 . S
H264 C249 0.930 . S
H265 C250 0.930 1_545 S
H266 C252 0.930 . S
H267 C253 0.930 . S
H268 C258 0.930 . S
H269 C259 0.930 1_556 S
H270 C261 0.930 . S
H271 C262 0.930 . S
Gd272 N303 2.661 . S
Gd272 N309 2.601 . S
Gd272 O316 2.545 . S
Gd272 O317 2.606 . S
Gd272 O319 2.429 . S
Gd272 O320 2.545 . S
Gd272 O321 2.412 . S
Gd272 O323 2.362 . S
Gd272 O324 2.324 . S
Gd272 C331 2.828 . S
Gd273 N282 2.661 . S
Gd273 N286 2.601 . S
Gd273 O317 2.362 . S
Gd273 O318 2.324 . S
Gd273 O322 2.545 . S
Gd273 O323 2.606 . S
Gd273 O325 2.429 . S
Gd273 O326 2.545 . S
Gd273 O327 2.412 . S
Gd273 C340 2.828 . S
C274 C277 1.417 . S
C274 C279 1.431 . S
C274 C280 1.412 . S
C275 C278 1.437 . S
C275 C279 1.317 . S
C275 H294 0.929 . S
C276 C277 1.426 . S
C276 C278 1.413 . S
C276 N286 1.359 . S
C277 C274 1.417 . S
C277 C276 1.426 . S
C277 N282 1.350 . S
C278 C275 1.437 . S
C278 C276 1.413 . S
C278 C288 1.391 . S
C279 C274 1.431 . S
C279 C275 1.317 . S
C279 H290 0.930 . S
C280 C274 1.412 . S
C280 C281 1.355 . S
C280 H292 0.930 . S
C281 C280 1.355 . S
C281 C283 1.402 . S
C281 H293 0.930 . S
N282 Gd273 2.661 . S
N282 C277 1.350 . S
N282 C283 1.307 . S
C283 C281 1.402 . S
C283 N282 1.307 . S
C283 H284 0.930 . S
H284 C283 0.930 . S
C285 N286 1.334 . S
C285 C287 1.394 . S
C285 H289 0.930 . S
N286 Gd273 2.601 . S
N286 C276 1.359 . S
N286 C285 1.334 . S
C287 C285 1.394 . S
C287 C288 1.359 . S
C287 H299 0.930 . S
C288 C278 1.391 . S
C288 C287 1.359 . S
C288 H300 0.929 . S
H289 C285 0.930 . S
H290 C279 0.930 . S
H291 C308 0.930 . S
H292 C280 0.930 . S
H293 C281 0.930 . S
H294 C275 0.929 . S
H295 C313 0.930 . S
H296 C304 0.930 . S
H297 C305 0.930 . S
H298 C329 0.929 . S
H299 C287 0.930 . S
H300 C288 0.929 . S
H301 C330 0.930 . S
H302 C311 0.930 1_554 S
N303 Gd272 2.661 . S
N303 C307 1.350 . S
N303 C308 1.307 . S
C304 H296 0.930 . S
C304 C305 1.355 . S
C304 C306 1.412 . S
C305 H297 0.930 . S
C305 C304 1.355 . S
C305 C308 1.402 . S
C306 C304 1.412 . S
C306 C307 1.417 . S
C306 C330 1.431 . S
C307 N303 1.350 . S
C307 C306 1.417 . S
C307 C310 1.426 . S
C308 H291 0.930 . S
C308 N303 1.307 . S
C308 C305 1.402 . S
N309 Gd272 2.601 . S
N309 C310 1.359 . S
N309 C313 1.334 . S
C310 C307 1.426 . S
C310 N309 1.359 . S
C310 C314 1.413 . S
C311 H302 0.930 1_556 S
C311 C312 1.359 . S
C311 C313 1.394 . S
C312 C311 1.359 . S
C312 C314 1.391 . S
C312 H315 0.929 . S
C313 H295 0.930 . S
C313 N309 1.334 . S
C313 C311 1.394 . S
C314 C310 1.413 . S
C314 C312 1.391 . S
C314 C329 1.437 . S
H315 C312 0.929 . S
O316 Gd272 2.545 . S
O316 C331 1.258 . S
O317 Gd272 2.606 . S
O317 Gd273 2.362 . S
O317 C328 1.284 . S
O318 Gd273 2.324 . S
O318 C338 1.254 . S
O319 Gd272 2.429 . S
O319 C338 1.268 . S
O320 Gd272 2.545 . S
O320 C328 1.250 . S
O321 Gd272 2.412 . S
O321 C331 1.252 . S
O322 Gd273 2.545 . S
O322 C340 1.258 . S
O323 Gd272 2.362 . S
O323 Gd273 2.606 . S
O323 C339 1.284 . S
O324 Gd272 2.324 . S
O324 C347 1.254 . S
O325 Gd273 2.429 . S
O325 C347 1.268 . S
O326 Gd273 2.545 . S
O326 C339 1.250 . S
O327 Gd273 2.412 . S
O327 C340 1.252 . S
C328 O317 1.284 . S
C328 O320 1.250 . S
C329 H298 0.929 . S
C329 C314 1.437 . S
C329 C330 1.317 . S
C330 H301 0.930 . S
C330 C306 1.431 . S
C330 C329 1.317 . S
C331 Gd272 2.828 . S
C331 O316 1.258 . S
C331 O321 1.252 . S
C331 C332 1.497 1_556 S
C332 C331 1.497 1_554 S
C332 C333 1.395 . S
C332 C334 1.380 . S
C333 C332 1.395 . S
C333 C336 1.398 . S
C333 H348 0.930 . S
C334 C332 1.380 . S
C334 C335 1.391 . S
C334 H349 0.930 1_554 S
C335 C334 1.391 . S
C335 C337 1.387 . S
C336 C333 1.398 . S
C336 C337 1.380 . S
C336 H350 0.930 . S
C337 C335 1.387 . S
C337 C336 1.380 . S
C337 H351 0.930 . S
C338 O318 1.254 . S
C338 O319 1.268 . S
C339 O323 1.284 . S
C339 O326 1.250 . S
C340 Gd273 2.828 . S
C340 O322 1.258 . S
C340 O327 1.252 . S
C340 C341 1.497 . S
C341 C340 1.497 . S
C341 C342 1.395 . S
C341 C343 1.380 . S
C342 C341 1.395 . S
C342 C345 1.398 . S
C342 H352 0.930 . S
C343 C341 1.380 . S
C343 C344 1.391 . S
C343 H353 0.930 . S
C344 C343 1.391 . S
C344 C346 1.387 . S
C345 C342 1.398 . S
C345 C346 1.380 . S
C345 H354 0.930 . S
C346 C344 1.387 . S
C346 C345 1.380 . S
C346 H355 0.930 . S
C347 O324 1.254 . S
C347 O325 1.268 . S
H348 C333 0.930 . S
H349 C334 0.930 1_556 S
H350 C336 0.930 . S
H351 C337 0.930 . S
H352 C342 0.930 . S
H353 C343 0.930 . S
H354 C345 0.930 . S
H355 C346 0.930 . S
Gd356 N387 2.661 . S
Gd356 N393 2.601 . S
Gd356 O400 2.545 . S
Gd356 O401 2.606 1_655 S
Gd356 O403 2.429 1_655 S
Gd356 O404 2.545 . S
Gd356 O405 2.412 . S
Gd356 O407 2.362 1_655 S
Gd356 O408 2.324 . S
Gd356 C415 2.828 . S
Gd357 N366 2.661 . S
Gd357 N370 2.601 . S
Gd357 O401 2.362 . S
Gd357 O402 2.324 . S
Gd357 O406 2.545 . S
Gd357 O407 2.606 . S
Gd357 O409 2.429 1_455 S
Gd357 O410 2.545 . S
Gd357 O411 2.412 . S
Gd357 C424 2.828 . S
C358 C361 1.417 . S
C358 C363 1.431 . S
C358 C364 1.412 . S
C359 C362 1.437 . S
C359 C363 1.317 . S
C359 H378 0.929 . S
C360 C361 1.426 . S
C360 C362 1.413 . S
C360 N370 1.359 . S
C361 C358 1.417 . S
C361 C360 1.426 . S
C361 N366 1.350 . S
C362 C359 1.437 . S
C362 C360 1.413 . S
C362 C372 1.391 . S
C363 C358 1.431 . S
C363 C359 1.317 . S
C363 H374 0.930 . S
C364 C358 1.412 . S
C364 C365 1.355 . S
C364 H376 0.930 . S
C365 C364 1.355 . S
C365 C367 1.402 . S
C365 H377 0.930 . S
N366 Gd357 2.661 . S
N366 C361 1.350 . S
N366 C367 1.307 . S
C367 C365 1.402 . S
C367 N366 1.307 . S
C367 H368 0.930 . S
H368 C367 0.930 . S
C369 N370 1.334 1_655 S
C369 C371 1.394 . S
C369 H373 0.930 . S
N370 Gd357 2.601 . S
N370 C360 1.359 . S
N370 C369 1.334 1_455 S
C371 C369 1.394 . S
C371 C372 1.359 1_655 S
C371 H383 0.930 . S
C372 C362 1.391 . S
C372 C371 1.359 1_455 S
C372 H384 0.929 . S
H373 C369 0.930 . S
H374 C363 0.930 . S
H375 C392 0.930 . S
H376 C364 0.930 . S
H377 C365 0.930 . S
H378 C359 0.929 . S
H379 C397 0.930 . S
H380 C388 0.930 . S
H381 C389 0.930 . S
H382 C413 0.929 . S
H383 C371 0.930 . S
H384 C372 0.929 . S
H385 C414 0.930 . S
H386 C395 0.930 1_554 S
N387 Gd356 2.661 . S
N387 C391 1.350 . S
N387 C392 1.307 . S
C388 H380 0.930 . S
C388 C389 1.355 . S
C388 C390 1.412 . S
C389 H381 0.930 . S
C389 C388 1.355 . S
C389 C392 1.402 . S
C390 C388 1.412 . S
C390 C391 1.417 . S
C390 C414 1.431 . S
C391 N387 1.350 . S
C391 C390 1.417 . S
C391 C394 1.426 . S
C392 H375 0.930 . S
C392 N387 1.307 . S
C392 C389 1.402 . S
N393 Gd356 2.601 . S
N393 C394 1.359 . S
N393 C397 1.334 1_655 S
C394 C391 1.426 . S
C394 N393 1.359 . S
C394 C398 1.413 . S
C395 H386 0.930 1_556 S
C395 C396 1.359 . S
C395 C397 1.394 . S
C396 C395 1.359 . S
C396 C398 1.391 1_455 S
C396 H399 0.929 . S
C397 H379 0.930 . S
C397 N393 1.334 1_455 S
C397 C395 1.394 . S
C398 C394 1.413 . S
C398 C396 1.391 1_655 S
C398 C413 1.437 . S
H399 C396 0.929 . S
O400 Gd356 2.545 . S
O400 C415 1.258 . S
O401 Gd356 2.606 1_455 S
O401 Gd357 2.362 . S
O401 C412 1.284 1_455 S
O402 Gd357 2.324 . S
O402 C422 1.254 . S
O403 Gd356 2.429 1_455 S
O403 C422 1.268 . S
O404 Gd356 2.545 . S
O404 C412 1.250 . S
O405 Gd356 2.412 . S
O405 C415 1.252 . S
O406 Gd357 2.545 . S
O406 C424 1.258 . S
O407 Gd356 2.362 1_455 S
O407 Gd357 2.606 . S
O407 C423 1.284 . S
O408 Gd356 2.324 . S
O408 C431 1.254 . S
O409 Gd357 2.429 1_655 S
O409 C431 1.268 . S
O410 Gd357 2.545 . S
O410 C423 1.250 . S
O411 Gd357 2.412 . S
O411 C424 1.252 . S
C412 O401 1.284 1_655 S
C412 O404 1.250 . S
C413 H382 0.929 . S
C413 C398 1.437 . S
C413 C414 1.317 . S
C414 H385 0.930 . S
C414 C390 1.431 . S
C414 C413 1.317 . S
C415 Gd356 2.828 . S
C415 O400 1.258 . S
C415 O405 1.252 . S
C415 C416 1.497 1_556 S
C416 C415 1.497 1_554 S
C416 C417 1.395 . S
C416 C418 1.380 . S
C417 C416 1.395 . S
C417 C420 1.398 . S
C417 H432 0.930 . S
C418 C416 1.380 . S
C418 C419 1.391 . S
C418 H433 0.930 1_554 S
C419 C418 1.391 . S
C419 C421 1.387 . S
C420 C417 1.398 . S
C420 C421 1.380 . S
C420 H434 0.930 . S
C421 C419 1.387 . S
C421 C420 1.380 . S
C421 H435 0.930 . S
C422 O402 1.254 . S
C422 O403 1.268 . S
C423 O407 1.284 . S
C423 O410 1.250 . S
C424 Gd357 2.828 . S
C424 O406 1.258 . S
C424 O411 1.252 . S
C424 C425 1.497 . S
C425 C424 1.497 . S
C425 C426 1.395 . S
C425 C427 1.380 . S
C426 C425 1.395 . S
C426 C429 1.398 . S
C426 H436 0.930 . S
C427 C425 1.380 . S
C427 C428 1.391 . S
C427 H437 0.930 . S
C428 C427 1.391 . S
C428 C430 1.387 . S
C429 C426 1.398 . S
C429 C430 1.380 . S
C429 H438 0.930 . S
C430 C428 1.387 . S
C430 C429 1.380 . S
C430 H439 0.930 . S
C431 O408 1.254 . S
C431 O409 1.268 . S
H432 C417 0.930 . S
H433 C418 0.930 1_556 S
H434 C420 0.930 . S
H435 C421 0.930 . S
H436 C426 0.930 . S
H437 C427 0.930 . S
H438 C429 0.930 . S
H439 C430 0.930 . S
H440 C446 0.930 . S
H441 C450 0.930 . S
H442 C455 0.929 . S
H443 C453 0.929 1_565 S
H444 C448 0.929 . S
H445 C454 0.929 . S
C446 H440 0.930 . S
C446 C447 1.367 . S
C446 C454 1.378 . S
C447 C446 1.367 . S
C447 C455 1.433 . S
C448 H444 0.929 . S
C448 C450 1.378 . S
C448 C452 1.350 . S
C449 C452 1.463 . S
C449 C454 1.350 . S
C449 N457 1.427 . S
C450 H441 0.930 . S
C450 C448 1.378 . S
C450 C451 1.367 . S
C451 C450 1.367 . S
C451 C453 1.433 . S
C452 C448 1.350 . S
C452 C449 1.463 . S
C452 N456 1.427 . S
C453 H443 0.929 1_545 S
C453 C451 1.433 . S
C453 N456 1.384 . S
C454 H445 0.929 . S
C454 C446 1.378 . S
C454 C449 1.350 . S
C455 H442 0.929 . S
C455 C447 1.433 . S
C455 N457 1.384 . S
N456 C452 1.427 . S
N456 C453 1.384 . S
N457 C449 1.427 . S
N457 C455 1.384 . S
H458 C464 0.930 . S
H459 C468 0.930 . S
H460 C473 0.929 . S
H461 C471 0.929 . S
H462 C466 0.929 . S
H463 C472 0.929 . S
C464 H458 0.930 . S
C464 C465 1.367 . S
C464 C472 1.378 . S
C465 C464 1.367 . S
C465 C473 1.433 . S
C466 H462 0.929 . S
C466 C468 1.378 . S
C466 C470 1.350 . S
C467 C470 1.463 . S
C467 C472 1.350 . S
C467 N475 1.427 . S
C468 H459 0.930 . S
C468 C466 1.378 . S
C468 C469 1.367 . S
C469 C468 1.367 . S
C469 C471 1.433 . S
C470 C466 1.350 . S
C470 C467 1.463 . S
C470 N474 1.427 . S
C471 H461 0.929 . S
C471 C469 1.433 . S
C471 N474 1.384 . S
C472 H463 0.929 . S
C472 C464 1.378 . S
C472 C467 1.350 . S
C473 H460 0.929 . S
C473 C465 1.433 . S
C473 N475 1.384 . S
N474 C470 1.427 . S
N474 C471 1.384 . S
N475 C467 1.427 . S
N475 C473 1.384 . S
H476 C482 0.930 . S
H477 C486 0.930 . S
H478 C491 0.929 . S
H479 C489 0.929 . S
H480 C484 0.929 . S
H481 C490 0.929 . S
C482 H476 0.930 . S
C482 C483 1.367 . S
C482 C490 1.378 . S
C483 C482 1.367 . S
C483 C491 1.433 . S
C484 H480 0.929 . S
C484 C486 1.378 . S
C484 C488 1.350 . S
C485 C488 1.463 . S
C485 C490 1.350 . S
C485 N493 1.427 . S
C486 H477 0.930 . S
C486 C484 1.378 . S
C486 C487 1.367 . S
C487 C486 1.367 . S
C487 C489 1.433 . S
C488 C484 1.350 . S
C488 C485 1.463 . S
C488 N492 1.427 . S
C489 H479 0.929 . S
C489 C487 1.433 . S
C489 N492 1.384 . S
C490 H481 0.929 . S
C490 C482 1.378 . S
C490 C485 1.350 . S
C491 H478 0.929 . S
C491 C483 1.433 . S
C491 N493 1.384 . S
N492 C488 1.427 . S
N492 C489 1.384 . S
N493 C485 1.427 . S
N493 C491 1.384 . S
H494 C500 0.930 . S
H495 C504 0.930 . S
H496 C509 0.929 . S
H497 C507 0.929 . S
H498 C502 0.929 . S
H499 C508 0.929 . S
C500 H494 0.930 . S
C500 C501 1.367 . S
C500 C508 1.378 . S
C501 C500 1.367 . S
C501 C509 1.433 . S
C502 H498 0.929 . S
C502 C504 1.378 . S
C502 C506 1.350 . S
C503 C506 1.463 . S
C503 C508 1.350 . S
C503 N511 1.427 . S
C504 H495 0.930 . S
C504 C502 1.378 . S
C504 C505 1.367 . S
C505 C504 1.367 . S
C505 C507 1.433 . S
C506 C502 1.350 . S
C506 C503 1.463 . S
C506 N510 1.427 . S
C507 H497 0.929 . S
C507 C505 1.433 . S
C507 N510 1.384 . S
C508 H499 0.929 . S
C508 C500 1.378 . S
C508 C503 1.350 . S
C509 H496 0.929 . S
C509 C501 1.433 . S
C509 N511 1.384 . S
N510 C506 1.427 . S
N510 C507 1.384 . S
N511 C503 1.427 . S
N511 C509 1.384 . S
H512 C518 0.916 1_545 S
H513 C522 0.930 . S
H514 C527 0.929 . S
H515 C525 0.929 . S
H516 C520 0.929 . S
H517 C526 0.929 1_545 S
C518 H512 0.916 1_565 S
C518 C519 1.367 . S
C518 C526 1.378 . S
C519 C518 1.367 . S
C519 C527 1.433 . S
C520 H516 0.929 . S
C520 C522 1.378 1_554 S
C520 C524 1.350 . S
C521 C524 1.463 . S
C521 C526 1.350 . S
C521 N529 1.427 . S
C522 H513 0.930 . S
C522 C520 1.378 1_556 S
C522 C523 1.367 . S
C523 C522 1.367 . S
C523 C525 1.433 1_565 S
C524 C520 1.350 . S
C524 C521 1.463 . S
C524 N528 1.427 1_564 S
C525 H515 0.929 . S
C525 C523 1.433 1_545 S
C525 N528 1.384 . S
C526 H517 0.929 1_565 S
C526 C518 1.378 . S
C526 C521 1.350 . S
C527 H514 0.929 . S
C527 C519 1.433 . S
C527 N529 1.384 . S
N528 C524 1.427 1_546 S
N528 C525 1.384 . S
N529 C521 1.427 . S
N529 C527 1.384 . S
H530 C536 0.930 . S
H531 C540 0.930 . S
H532 C545 0.929 . S
H533 C543 0.929 . S
H534 C538 0.929 . S
H535 C544 0.929 . S
C536 H530 0.930 . S
C536 C537 1.367 . S
C536 C544 1.378 . S
C537 C536 1.367 . S
C537 C545 1.433 . S
C538 H534 0.929 . S
C538 C540 1.378 1_554 S
C538 C542 1.350 . S
C539 C542 1.463 . S
C539 C544 1.350 . S
C539 N547 1.427 . S
C540 H531 0.930 . S
C540 C538 1.378 1_556 S
C540 C541 1.367 . S
C541 C540 1.367 . S
C541 C543 1.433 . S
C542 C538 1.350 . S
C542 C539 1.463 . S
C542 N546 1.427 1_554 S
C543 H533 0.929 . S
C543 C541 1.433 . S
C543 N546 1.384 . S
C544 H535 0.929 . S
C544 C536 1.378 . S
C544 C539 1.350 . S
C545 H532 0.929 . S
C545 C537 1.433 . S
C545 N547 1.384 . S
N546 C542 1.427 1_556 S
N546 C543 1.384 . S
N547 C539 1.427 . S
N547 C545 1.384 . S
H548 C554 0.930 . S
H549 C558 0.930 . S
H550 C563 0.929 . S
H551 C561 0.929 . S
H552 C556 0.929 . S
H553 C562 0.929 . S
C554 H548 0.930 . S
C554 C555 1.367 . S
C554 C562 1.378 . S
C555 C554 1.367 . S
C555 C563 1.433 . S
C556 H552 0.929 . S
C556 C558 1.378 . S
C556 C560 1.350 1_556 S
C557 C560 1.463 . S
C557 C562 1.350 . S
C557 N565 1.427 . S
C558 H549 0.930 . S
C558 C556 1.378 . S
C558 C559 1.367 . S
C559 C558 1.367 . S
C559 C561 1.433 . S
C560 C556 1.350 1_554 S
C560 C557 1.463 . S
C560 N564 1.427 1_554 S
C561 H551 0.929 . S
C561 C559 1.433 . S
C561 N564 1.384 . S
C562 H553 0.929 . S
C562 C554 1.378 . S
C562 C557 1.350 . S
C563 H550 0.929 . S
C563 C555 1.433 . S
C563 N565 1.384 . S
N564 C560 1.427 1_556 S
N564 C561 1.384 . S
N565 C557 1.427 . S
N565 C563 1.384 . S
H566 C572 0.930 . S
H567 C576 0.930 . S
H568 C581 0.929 . S
H569 C579 0.929 . S
H570 C574 0.929 . S
H571 C580 0.929 . S
C572 H566 0.930 . S
C572 C573 1.367 . S
C572 C580 1.378 . S
C573 C572 1.367 . S
C573 C581 1.433 . S
C574 H570 0.929 . S
C574 C576 1.378 1_554 S
C574 C578 1.350 . S
C575 C578 1.463 . S
C575 C580 1.350 . S
C575 N583 1.427 . S
C576 H567 0.930 . S
C576 C574 1.378 1_556 S
C576 C577 1.367 . S
C577 C576 1.367 . S
C577 C579 1.433 . S
C578 C574 1.350 . S
C578 C575 1.463 . S
C578 N582 1.427 1_554 S
C579 H569 0.929 . S
C579 C577 1.433 . S
C579 N582 1.384 . S
C580 H571 0.929 . S
C580 C572 1.378 . S
C580 C575 1.350 . S
C581 H568 0.929 . S
C581 C573 1.433 . S
C581 N583 1.384 . S
N582 C578 1.427 1_556 S
N582 C579 1.384 . S
N583 C575 1.427 . S
N583 C581 1.384 . S
H584 C590 0.930 . S
H585 C594 0.930 . S
H586 C599 0.929 . S
H587 C597 0.929 . S
H588 C592 0.929 . S
H589 C598 0.929 . S
C590 H584 0.930 . S
C590 C591 1.367 . S
C590 C598 1.378 . S
C591 C590 1.367 . S
C591 C599 1.433 . S
C592 H588 0.929 . S
C592 C594 1.378 . S
C592 C596 1.350 . S
C593 C596 1.463 . S
C593 C598 1.350 . S
C593 N601 1.427 . S
C594 H585 0.930 . S
C594 C592 1.378 . S
C594 C595 1.367 . S
C595 C594 1.367 . S
C595 C597 1.433 1_455 S
C596 C592 1.350 . S
C596 C593 1.463 . S
C596 N600 1.427 1_455 S
C597 H587 0.929 . S
C597 C595 1.433 1_655 S
C597 N600 1.384 . S
C598 H589 0.929 . S
C598 C590 1.378 . S
C598 C593 1.350 . S
C599 H586 0.929 . S
C599 C591 1.433 . S
C599 N601 1.384 . S
N600 C596 1.427 1_655 S
N600 C597 1.384 . S
N601 C593 1.427 . S
N601 C599 1.384 . S
H602 C608 0.930 . S
H603 C612 0.930 . S
H604 C617 0.929 . S
H605 C615 0.929 . S
H606 C610 0.929 . S
H607 C616 0.929 . S
C608 H602 0.930 . S
C608 C609 1.367 . S
C608 C616 1.378 . S
C609 C608 1.367 . S
C609 C617 1.433 . S
C610 H606 0.929 . S
C610 C612 1.378 . S
C610 C614 1.350 1_565 S
C611 C614 1.463 . S
C611 C616 1.350 . S
C611 N619 1.427 . S
C612 H603 0.930 . S
C612 C610 1.378 . S
C612 C613 1.367 1_565 S
C613 C612 1.367 1_545 S
C613 C615 1.433 . S
C614 C610 1.350 1_545 S
C614 C611 1.463 . S
C614 N618 1.427 . S
C615 H605 0.929 . S
C615 C613 1.433 . S
C615 N618 1.384 . S
C616 H607 0.929 . S
C616 C608 1.378 . S
C616 C611 1.350 . S
C617 H604 0.929 . S
C617 C609 1.433 . S
C617 N619 1.384 . S
N618 C614 1.427 . S
N618 C615 1.384 . S
N619 C611 1.427 . S
N619 C617 1.384 . S
H620 C626 0.930 . S
H621 C630 0.930 . S
H622 C635 0.929 . S
H623 C633 0.929 . S
H624 C628 0.929 . S
H625 C634 0.929 . S
C626 H620 0.930 . S
C626 C627 1.367 . S
C626 C634 1.378 . S
C627 C626 1.367 . S
C627 C635 1.433 . S
C628 H624 0.929 . S
C628 C630 1.378 . S
C628 C632 1.350 . S
C629 C632 1.463 . S
C629 C634 1.350 . S
C629 N637 1.427 . S
C630 H621 0.930 . S
C630 C628 1.378 . S
C630 C631 1.367 . S
C631 C630 1.367 . S
C631 C633 1.433 . S
C632 C628 1.350 . S
C632 C629 1.463 . S
C632 N636 1.427 . S
C633 H623 0.929 . S
C633 C631 1.433 . S
C633 N636 1.384 . S
C634 H625 0.929 . S
C634 C626 1.378 . S
C634 C629 1.350 . S
C635 H622 0.929 . S
C635 C627 1.433 . S
C635 N637 1.384 . S
N636 C632 1.427 . S
N636 C633 1.384 . S
N637 C629 1.427 . S
N637 C635 1.384 . S
H638 C644 0.930 . S
H639 C648 0.930 . S
H640 C653 0.929 1_556 S
H641 C651 0.929 . S
H642 C646 0.929 . S
H643 C652 0.929 . S
C644 H638 0.930 . S
C644 C645 1.367 . S
C644 C652 1.378 . S
C645 C644 1.367 . S
C645 C653 1.433 . S
C646 H642 0.929 . S
C646 C648 1.378 . S
C646 C650 1.350 . S
C647 C650 1.463 . S
C647 C652 1.350 . S
C647 N655 1.427 . S
C648 H639 0.930 . S
C648 C646 1.378 . S
C648 C649 1.367 . S
C649 C648 1.367 . S
C649 C651 1.433 . S
C650 C646 1.350 . S
C650 C647 1.463 . S
C650 N654 1.427 . S
C651 H641 0.929 . S
C651 C649 1.433 . S
C651 N654 1.384 . S
C652 H643 0.929 . S
C652 C644 1.378 . S
C652 C647 1.350 . S
C653 H640 0.929 1_554 S
C653 C645 1.433 . S
C653 N655 1.384 . S
N654 C650 1.427 . S
N654 C651 1.384 . S
N655 C647 1.427 . S
N655 C653 1.384 . S
H656 C662 0.930 . S
H657 C666 0.930 1_556 S
H658 C671 0.929 . S
H659 C669 0.929 . S
H660 C664 0.929 . S
H661 C670 0.929 . S
C662 H656 0.930 . S
C662 C663 1.367 . S
C662 C670 1.378 . S
C663 C662 1.367 . S
C663 C671 1.433 . S
C664 H660 0.929 . S
C664 C666 1.378 . S
C664 C668 1.350 . S
C665 C668 1.463 . S
C665 C670 1.350 . S
C665 N673 1.427 . S
C666 H657 0.930 1_554 S
C666 C664 1.378 . S
C666 C667 1.367 1_655 S
C667 C666 1.367 1_455 S
C667 C669 1.433 . S
C668 C664 1.350 . S
C668 C665 1.463 . S
C668 N672 1.427 1_655 S
C669 H659 0.929 . S
C669 C667 1.433 . S
C669 N672 1.384 . S
C670 H661 0.929 . S
C670 C662 1.378 . S
C670 C665 1.350 . S
C671 H658 0.929 . S
C671 C663 1.433 . S
C671 N673 1.384 . S
N672 C668 1.427 1_455 S
N672 C669 1.384 . S
N673 C665 1.427 . S
N673 C671 1.384 . S
H674 C680 0.930 . S
H675 C684 0.930 . S
H676 C689 0.929 . S
H677 C687 0.929 1_556 S
H678 C682 0.931 . S
H679 C688 0.929 . S
C680 H674 0.930 . S
C680 C681 1.367 . S
C680 C688 1.378 . S
C681 C680 1.367 . S
C681 C689 1.433 . S
C682 H678 0.931 . S
C682 C684 1.374 1_565 S
C682 C686 1.351 . S
C683 C686 1.463 . S
C683 C688 1.350 . S
C683 N691 1.427 . S
C684 H675 0.930 . S
C684 C682 1.374 1_545 S
C684 C685 1.367 . S
C685 C684 1.367 . S
C685 C687 1.433 . S
C686 C682 1.351 . S
C686 C683 1.463 . S
C686 N690 1.427 1_565 S
C687 H677 0.929 1_554 S
C687 C685 1.433 . S
C687 N690 1.384 . S
C688 H679 0.929 . S
C688 C680 1.378 . S
C688 C683 1.350 . S
C689 H676 0.929 . S
C689 C681 1.433 . S
C689 N691 1.384 . S
N690 C686 1.427 1_545 S
N690 C687 1.384 . S
N691 C683 1.427 . S
N691 C689 1.384 . S
H692 C698 0.930 . S
H693 C702 0.930 . S
H694 C707 0.929 . S
H695 C705 0.929 . S
H696 C700 0.929 . S
H697 C706 0.929 . S
C698 H692 0.930 . S
C698 C699 1.367 . S
C698 C706 1.378 . S
C699 C698 1.367 . S
C699 C707 1.433 . S
C700 H696 0.929 . S
C700 C702 1.378 . S
C700 C704 1.350 . S
C701 C704 1.463 . S
C701 C706 1.350 . S
C701 N709 1.427 . S
C702 H693 0.930 . S
C702 C700 1.378 . S
C702 C703 1.367 . S
C703 C702 1.367 . S
C703 C705 1.433 . S
C704 C700 1.350 . S
C704 C701 1.463 . S
C704 N708 1.427 . S
C705 H695 0.929 . S
C705 C703 1.433 . S
C705 N708 1.384 . S
C706 H697 0.929 . S
C706 C698 1.378 . S
C706 C701 1.350 . S
C707 H694 0.929 . S
C707 C699 1.433 . S
C707 N709 1.384 . S
N708 C704 1.427 . S
N708 C705 1.384 . S
N709 C701 1.427 . S
N709 C707 1.384 . S
H710 C716 0.930 . S
H711 C720 0.930 . S
H712 C725 0.929 . S
H713 C723 0.929 . S
H714 C718 0.929 . S
H715 C724 0.929 . S
C716 H710 0.930 . S
C716 C717 1.367 . S
C716 C724 1.378 . S
C717 C716 1.367 . S
C717 C725 1.433 . S
C718 H714 0.929 . S
C718 C720 1.378 . S
C718 C722 1.350 . S
C719 C722 1.463 . S
C719 C724 1.350 . S
C719 N727 1.427 . S
C720 H711 0.930 . S
C720 C718 1.378 . S
C720 C721 1.367 . S
C721 C720 1.367 . S
C721 C723 1.433 . S
C722 C718 1.350 . S
C722 C719 1.463 . S
C722 N726 1.427 . S
C723 H713 0.929 . S
C723 C721 1.433 . S
C723 N726 1.384 . S
C724 H715 0.929 . S
C724 C716 1.378 . S
C724 C719 1.350 . S
C725 H712 0.929 . S
C725 C717 1.433 . S
C725 N727 1.384 . S
N726 C722 1.427 . S
N726 C723 1.384 . S
N727 C719 1.427 . S
N727 C725 1.384 . S
H728 C734 0.930 . S
H729 C738 0.930 . S
H730 C743 0.929 . S
H731 C741 0.929 1_655 S
H732 C736 0.929 . S
H733 C742 0.929 . S
C734 H728 0.930 . S
C734 C735 1.367 . S
C734 C742 1.378 . S
C735 C734 1.367 . S
C735 C743 1.433 . S
C736 H732 0.929 . S
C736 C738 1.378 . S
C736 C740 1.350 . S
C737 C740 1.463 . S
C737 C742 1.350 . S
C737 N745 1.427 . S
C738 H729 0.930 . S
C738 C736 1.378 . S
C738 C739 1.367 . S
C739 C738 1.367 . S
C739 C741 1.433 . S
C740 C736 1.350 . S
C740 C737 1.463 . S
C740 N744 1.427 . S
C741 H731 0.929 1_455 S
C741 C739 1.433 . S
C741 N744 1.384 . S
C742 H733 0.929 . S
C742 C734 1.378 . S
C742 C737 1.350 . S
C743 H730 0.929 . S
C743 C735 1.433 . S
C743 N745 1.384 . S
N744 C740 1.427 . S
N744 C741 1.384 . S
N745 C737 1.427 . S
N745 C743 1.384 . S
H746 C752 0.930 . S
H747 C756 0.930 . S
H748 C761 0.929 . S
H749 C759 0.929 1_565 S
H750 C754 0.929 . S
H751 C760 0.929 . S
C752 H746 0.930 . S
C752 C753 1.367 . S
C752 C760 1.378 . S
C753 C752 1.367 . S
C753 C761 1.433 . S
C754 H750 0.929 . S
C754 C756 1.378 . S
C754 C758 1.350 . S
C755 C758 1.463 . S
C755 C760 1.350 . S
C755 N763 1.427 . S
C756 H747 0.930 . S
C756 C754 1.378 . S
C756 C757 1.367 . S
C757 C756 1.367 . S
C757 C759 1.433 . S
C758 C754 1.350 . S
C758 C755 1.463 . S
C758 N762 1.427 . S
C759 H749 0.929 1_545 S
C759 C757 1.433 . S
C759 N762 1.384 . S
C760 H751 0.929 . S
C760 C752 1.378 . S
C760 C755 1.350 . S
C761 H748 0.929 . S
C761 C753 1.433 . S
C761 N763 1.384 . S
N762 C758 1.427 . S
N762 C759 1.384 . S
N763 C755 1.427 . S
N763 C761 1.384 . S
H764 C770 0.930 . S
H765 C774 0.930 . S
H766 C779 0.929 1_554 S
H767 C777 0.929 . S
H768 C772 0.929 . S
H769 C778 0.929 . S
C770 H764 0.930 . S
C770 C771 1.367 . S
C770 C778 1.378 . S
C771 C770 1.367 . S
C771 C779 1.433 . S
C772 H768 0.929 . S
C772 C774 1.378 . S
C772 C776 1.350 . S
C773 C776 1.463 . S
C773 C778 1.350 . S
C773 N781 1.427 . S
C774 H765 0.930 . S
C774 C772 1.378 . S
C774 C775 1.367 . S
C775 C774 1.367 . S
C775 C777 1.433 . S
C776 C772 1.350 . S
C776 C773 1.463 . S
C776 N780 1.427 . S
C777 H767 0.929 . S
C777 C775 1.433 . S
C777 N780 1.384 . S
C778 H769 0.929 . S
C778 C770 1.378 . S
C778 C773 1.350 . S
C779 H766 0.929 1_556 S
C779 C771 1.433 . S
C779 N781 1.384 . S
N780 C776 1.427 . S
N780 C777 1.384 . S
N781 C773 1.427 . S
N781 C779 1.384 . S
H782 C788 0.930 . S
H783 C792 0.930 . S
H784 C797 0.929 1_554 S
H785 C795 0.929 . S
H786 C790 0.929 . S
H787 C796 0.929 . S
C788 H782 0.930 . S
C788 C789 1.367 . S
C788 C796 1.378 . S
C789 C788 1.367 . S
C789 C797 1.433 . S
C790 H786 0.929 . S
C790 C792 1.378 . S
C790 C794 1.350 . S
C791 C794 1.463 . S
C791 C796 1.350 . S
C791 N799 1.427 . S
C792 H783 0.930 . S
C792 C790 1.378 . S
C792 C793 1.367 . S
C793 C792 1.367 . S
C793 C795 1.433 . S
C794 C790 1.350 . S
C794 C791 1.463 . S
C794 N798 1.427 . S
C795 H785 0.929 . S
C795 C793 1.433 . S
C795 N798 1.384 . S
C796 H787 0.929 . S
C796 C788 1.378 . S
C796 C791 1.350 . S
C797 H784 0.929 1_556 S
C797 C789 1.433 . S
C797 N799 1.384 . S
N798 C794 1.427 . S
N798 C795 1.384 . S
N799 C791 1.427 . S
N799 C797 1.384 . S
H800 C806 0.930 . S
H801 C810 0.930 . S
H802 C815 0.929 1_455 S
H803 C813 0.929 . S
H804 C808 0.900 1_455 S
H805 C814 0.929 . S
C806 H800 0.930 . S
C806 C807 1.367 . S
C806 C814 1.378 . S
C807 C806 1.367 . S
C807 C815 1.433 . S
C808 H804 0.900 1_655 S
C808 C810 1.373 1_655 S
C808 C812 1.385 . S
C809 C812 1.463 . S
C809 C814 1.350 . S
C809 N817 1.427 . S
C810 H801 0.930 . S
C810 C808 1.373 1_455 S
C810 C811 1.367 1_455 S
C811 C810 1.367 1_655 S
C811 C813 1.433 . S
C812 C808 1.385 . S
C812 C809 1.463 . S
C812 N816 1.427 . S
C813 H803 0.929 . S
C813 C811 1.433 . S
C813 N816 1.384 . S
C814 H805 0.929 . S
C814 C806 1.378 . S
C814 C809 1.350 . S
C815 H802 0.929 1_655 S
C815 C807 1.433 . S
C815 N817 1.384 . S
N816 C812 1.427 . S
N816 C813 1.384 . S
N817 C809 1.427 . S
N817 C815 1.384 . S
H818 C824 0.930 . S
H819 C828 0.930 . S
H820 C833 0.929 . S
H821 C831 0.929 . S
H822 C826 0.929 . S
H823 C832 0.929 . S
C824 H818 0.930 . S
C824 C825 1.367 . S
C824 C832 1.378 . S
C825 C824 1.367 . S
C825 C833 1.433 . S
C826 H822 0.929 . S
C826 C828 1.378 . S
C826 C830 1.350 . S
C827 C830 1.463 . S
C827 C832 1.350 . S
C827 N835 1.427 . S
C828 H819 0.930 . S
C828 C826 1.378 . S
C828 C829 1.367 . S
C829 C828 1.367 . S
C829 C831 1.433 . S
C830 C826 1.350 . S
C830 C827 1.463 . S
C830 N834 1.427 . S
C831 H821 0.929 . S
C831 C829 1.433 . S
C831 N834 1.384 . S
C832 H823 0.929 . S
C832 C824 1.378 . S
C832 C827 1.350 . S
C833 H820 0.929 . S
C833 C825 1.433 . S
C833 N835 1.384 . S
N834 C830 1.427 . S
N834 C831 1.384 . S
N835 C827 1.427 . S
N835 C833 1.384 . S
H836 C842 0.930 . S
H837 C846 0.930 . S
H838 C851 0.929 . S
H839 C849 0.929 . S
H840 C844 0.929 . S
H841 C850 0.929 . S
C842 H836 0.930 . S
C842 C843 1.367 . S
C842 C850 1.378 . S
C843 C842 1.367 . S
C843 C851 1.433 . S
C844 H840 0.929 . S
C844 C846 1.378 . S
C844 C848 1.350 . S
C845 C848 1.463 . S
C845 C850 1.350 . S
C845 N853 1.427 . S
C846 H837 0.930 . S
C846 C844 1.378 . S
C846 C847 1.367 . S
C847 C846 1.367 . S
C847 C849 1.433 . S
C848 C844 1.350 . S
C848 C845 1.463 . S
C848 N852 1.427 . S
C849 H839 0.929 . S
C849 C847 1.433 . S
C849 N852 1.384 . S
C850 H841 0.929 . S
C850 C842 1.378 . S
C850 C845 1.350 . S
C851 H838 0.929 . S
C851 C843 1.433 . S
C851 N853 1.384 . S
N852 C848 1.427 . S
N852 C849 1.384 . S
N853 C845 1.427 . S
N853 C851 1.384 . S
H854 C860 0.930 . S
H855 C864 0.930 . S
H856 C869 0.929 . S
H857 C867 0.929 . S
H858 C862 0.929 . S
H859 C868 0.929 . S
C860 H854 0.930 . S
C860 C861 1.367 . S
C860 C868 1.378 . S
C861 C860 1.367 . S
C861 C869 1.433 . S
C862 H858 0.929 . S
C862 C864 1.378 . S
C862 C866 1.350 . S
C863 C866 1.463 . S
C863 C868 1.350 . S
C863 N871 1.427 . S
C864 H855 0.930 . S
C864 C862 1.378 . S
C864 C865 1.367 . S
C865 C864 1.367 . S
C865 C867 1.433 . S
C866 C862 1.350 . S
C866 C863 1.463 . S
C866 N870 1.427 . S
C867 H857 0.929 . S
C867 C865 1.433 . S
C867 N870 1.384 . S
C868 H859 0.929 . S
C868 C860 1.378 . S
C868 C863 1.350 . S
C869 H856 0.929 . S
C869 C861 1.433 . S
C869 N871 1.384 . S
N870 C866 1.427 . S
N870 C867 1.384 . S
N871 C863 1.427 . S
N871 C869 1.384 . S
C447 N80 1.901 . S
C451 C179 1.930 . S
C469 C263 1.950 . S
C465 N93 1.921 . S
C487 C339 1.937 . S
C483 N54 2.015 . S
C505 C423 1.925 . S
C501 N67 2.002 . S
C523 C170 1.930 1_565 S
C519 N28 1.910 . S
C537 N41 1.930 . S
C541 C254 1.939 . S
C555 N2 2.018 . S
C559 C328 1.928 . S
C573 N15 2.000 . S
C577 C412 1.909 . S
C595 C167 0.618 1_455 S
C591 N70 0.578 . S
C613 C251 0.561 1_545 S
C609 N83 0.578 . S
C631 C344 0.556 . S
C627 N96 0.551 . S
C645 N57 0.569 . S
C649 C428 0.560 . S
C663 N18 0.585 . S
C667 C176 0.609 . S
C685 C260 0.581 . S
C681 N31 0.555 . S
C703 C335 0.574 . S
C699 N44 0.519 . S
C717 N5 0.549 . S
C721 C419 0.575 . S
C735 N66 2.091 . S
C739 C160 2.042 . S
C753 N79 2.063 . S
C757 C244 2.016 . S
C775 C338 2.028 . S
C771 N92 1.981 . S
C793 C422 2.051 . S
C789 N53 2.003 . S
C807 N14 2.105 . S
C811 C171 2.030 . S
C829 C255 2.016 . S
C825 N27 2.072 . S
C847 C347 2.029 . S
C843 N40 1.995 . S
C861 N1 2.016 . S
C865 C431 2.048 . S
