# Generated by pormake.
# Topology ssa, (4,4)-cn, num edge types: 1
# Building blocks:
#     Node 0, Type 0, BuildingBlock: KOZSID_clean_sbu_0, # of connection points: 4
#     Node 1, Type 0, BuildingBlock: KOZSID_clean_sbu_0, # of connection points: 4
#     Node 2, Type 0, BuildingBlock: KOZSID_clean_sbu_0, # of connection points: 4
#     Node 3, Type 0, BuildingBlock: KOZSID_clean_sbu_0, # of connection points: 4
#     Node 4, Type 0, BuildingBlock: KOZSID_clean_sbu_0, # of connection points: 4
#     Node 5, Type 0, BuildingBlock: KOZSID_clean_sbu_0, # of connection points: 4
#     Node 6, Type 1, BuildingBlock: KUFVIS_clean_linker_0, # of connection points: 4
#     Node 7, Type 1, BuildingBlock: KUFVIS_clean_linker_0, # of connection points: 4
#     Node 8, Type 1, BuildingBlock: KUFVIS_clean_linker_0, # of connection points: 4
#     Node 9, Type 1, BuildingBlock: KUFVIS_clean_linker_0, # of connection points: 4
#     Node 10, Type 1, BuildingBlock: KUFVIS_clean_linker_0, # of connection points: 4
#     Node 11, Type 1, BuildingBlock: KUFVIS_clean_linker_0, # of connection points: 4
#     Edge 12, Type (0, 1), BuildingBlock: TEMPAE_clean_linker_10, # of connection points: 2
#     Edge 13, Type (0, 1), BuildingBlock: TEMPAE_clean_linker_10, # of connection points: 2
#     Edge 14, Type (0, 1), BuildingBlock: TEMPAE_clean_linker_10, # of connection points: 2
#     Edge 15, Type (0, 1), BuildingBlock: TEMPAE_clean_linker_10, # of connection points: 2
#     Edge 16, Type (0, 1), BuildingBlock: TEMPAE_clean_linker_10, # of connection points: 2
#     Edge 17, Type (0, 1), BuildingBlock: TEMPAE_clean_linker_10, # of connection points: 2
#     Edge 18, Type (0, 1), BuildingBlock: TEMPAE_clean_linker_10, # of connection points: 2
#     Edge 19, Type (0, 1), BuildingBlock: TEMPAE_clean_linker_10, # of connection points: 2
#     Edge 20, Type (0, 1), BuildingBlock: TEMPAE_clean_linker_10, # of connection points: 2
#     Edge 21, Type (0, 1), BuildingBlock: TEMPAE_clean_linker_10, # of connection points: 2
#     Edge 22, Type (0, 1), BuildingBlock: TEMPAE_clean_linker_10, # of connection points: 2
#     Edge 23, Type (0, 1), BuildingBlock: TEMPAE_clean_linker_10, # of connection points: 2
#     Edge 24, Type (0, 1), BuildingBlock: TEMPAE_clean_linker_10, # of connection points: 2
#     Edge 25, Type (0, 1), BuildingBlock: TEMPAE_clean_linker_10, # of connection points: 2
#     Edge 26, Type (0, 1), BuildingBlock: TEMPAE_clean_linker_10, # of connection points: 2
#     Edge 27, Type (0, 1), BuildingBlock: TEMPAE_clean_linker_10, # of connection points: 2
#     Edge 28, Type (0, 1), BuildingBlock: TEMPAE_clean_linker_10, # of connection points: 2
#     Edge 29, Type (0, 1), BuildingBlock: TEMPAE_clean_linker_10, # of connection points: 2
#     Edge 30, Type (0, 1), BuildingBlock: TEMPAE_clean_linker_10, # of connection points: 2
#     Edge 31, Type (0, 1), BuildingBlock: TEMPAE_clean_linker_10, # of connection points: 2
#     Edge 32, Type (0, 1), BuildingBlock: TEMPAE_clean_linker_10, # of connection points: 2
#     Edge 33, Type (0, 1), BuildingBlock: TEMPAE_clean_linker_10, # of connection points: 2
#     Edge 34, Type (0, 1), BuildingBlock: TEMPAE_clean_linker_10, # of connection points: 2
#     Edge 35, Type (0, 1), BuildingBlock: TEMPAE_clean_linker_10, # of connection points: 2
# Relax obj value: 0.004
# Max RMSD: 0.054
# Mean RMSD: 0.030
data_MOF--net-ssa--node1-KOZSID_clean_sbu_0--node2-KUFVIS_clean_linker_0--edge1-TEMPAE_clean_linker_10
_symmetry_space_group_name_H-M    P1
_symmetry_Int_Tables_number       1
_symmetry_cell_setting            triclinic
loop_
_symmetry_equiv_pos_as_xyz
'x, y, z'
_cell_length_a     58.928574
_cell_length_b     60.346887
_cell_length_c     33.041313
_cell_angle_alpha  86.979257
_cell_angle_beta   90.029328
_cell_angle_gamma 122.30207
loop_
_atom_site_label
_atom_site_type_symbol
_atom_site_fract_x
_atom_site_fract_y
_atom_site_fract_z
_atom_type_partial_charge
C0 C 0.95932 0.51039 0.0186 0.0
C1 C 0.94067 0.5041 0.0498 0.0
C2 C 0.94671 0.49267 0.08112 0.0
C3 C 0.96853 0.49248 0.0674 0.0
N4 N 0.97703 0.50337 0.02927 0.0
Co5 Co 0.00736 0.50588 0.99712 0.0
N6 N 0.01409 0.48632 0.04147 0.0
C7 C 0.99928 0.47484 0.07617 0.0
C8 C 0.00881 0.46282 0.10084 0.0
C9 C 0.03139 0.46735 0.08108 0.0
C10 C 0.03448 0.48219 0.04557 0.0
N11 N 0.03843 0.50928 0.96571 0.0
C12 C 0.0575 0.50445 0.97805 0.0
C13 C 0.0775 0.51264 0.94827 0.0
C14 C 0.07097 0.5231 0.91618 0.0
C15 C 0.04764 0.52101 0.92819 0.0
N16 N 1.00009 0.52472 0.95217 0.0
C17 C 0.0134 0.53406 0.91586 0.0
C18 C 1.00353 0.5455 0.89067 0.0
C19 C 0.98222 0.5428 0.91176 0.0
C20 C 0.98021 0.52964 0.94867 0.0
N21 N 0.03301 0.53967 0.02123 0.0
C22 C 0.07289 0.58614 0.05585 0.0
C23 C 0.07046 0.58487 0.01382 0.0
C24 C 0.05057 0.56167 0.99731 0.0
C25 C 0.05438 0.56391 0.08019 0.0
C26 C 0.03468 0.54121 0.06245 0.0
N27 N 0.9816 0.47199 0.97289 0.0
C28 C 0.96473 0.44581 0.91432 0.0
C29 C 0.94207 0.42592 0.93658 0.0
C30 C 0.94015 0.42917 0.97774 0.0
C31 C 0.96 0.45199 0.99512 0.0
C32 C 0.98402 0.46843 0.93286 0.0
H33 H 0.95703 0.45314 0.02648 0.0
H34 H 1.00051 0.48291 0.91397 0.0
H35 H 0.05009 0.56191 0.96508 0.0
H36 H 0.02136 0.52495 0.08272 0.0
C37 C 0.97902 0.47899 0.08724 0.0
C38 C 0.95831 0.52126 0.97848 0.0
C39 C 0.05821 0.4937 0.01845 0.0
C40 C 0.03521 0.53191 0.90645 0.0
H41 H 0.92378 0.50654 0.04959 0.0
H42 H 0.93563 0.48424 0.1097 0.0
H43 H 1.0011 0.45313 0.13061 0.0
H44 H 0.04472 0.4614 0.09234 0.0
H45 H 0.0955 0.51208 0.94985 0.0
H46 H 0.08256 0.53228 0.88818 0.0
H47 H 0.01078 0.55446 0.8604 0.0
H48 H 0.96932 0.54938 0.90089 0.0
H49 H 0.08389 0.60166 0.99357 0.0
H50 H 0.05545 0.56365 0.11292 0.0
H51 H 0.96764 0.44406 0.88256 0.0
H52 H 0.92302 0.4145 0.99645 0.0
C53 C 0.54544 0.03204 0.56016 0.0
C54 C 0.55013 0.02978 0.60097 0.0
C55 C 0.52789 0.0075 0.61725 0.0
C56 C 0.51071 0.99755 0.58593 0.0
N57 N 0.5208 0.01181 0.55025 0.0
Co58 Co 0.50086 0.00652 0.49871 0.0
N59 N 0.46636 0.97674 0.52497 0.0
C60 C 0.46273 0.96673 0.56372 0.0
C61 C 0.43758 0.94517 0.57249 0.0
C62 C 0.42435 0.94084 0.53711 0.0
C63 C 0.44221 0.96027 0.50868 0.0
N64 N 0.48099 1.00163 0.44734 0.0
C65 C 0.45519 0.98353 0.43879 0.0
C66 C 0.44941 0.9875 0.3993 0.0
C67 C 0.47258 0.00825 0.3819 0.0
C68 C 0.49105 0.01595 0.4117 0.0
N69 N 0.53532 0.03615 0.47242 0.0
C70 C 0.53955 0.04511 0.43304 0.0
C71 C 0.56511 0.06599 0.42404 0.0
C72 C 0.57781 0.07116 0.46004 0.0
C73 C 0.55908 0.05321 0.4891 0.0
N74 N 0.50976 0.98054 0.48221 0.0
C75 C 0.5158 0.93994 0.45548 0.0
C76 C 0.52161 0.96161 0.4296 0.0
C77 C 0.51835 0.98131 0.44332 0.0
C78 C 0.50821 0.93979 0.4957 0.0
C79 C 0.50569 0.96022 0.50838 0.0
N80 N 0.49186 0.03228 0.51507 0.0
C81 C 0.49313 0.07282 0.50171 0.0
C82 C 0.48409 0.07166 0.54134 0.0
C83 C 0.47794 0.04983 0.56696 0.0
C84 C 0.4819 0.03057 0.55335 0.0
C85 C 0.49675 0.05305 0.48928 0.0
H86 H 0.4772 0.01469 0.57461 0.0
H87 H 0.5041 0.0553 0.45892 0.0
H88 H 0.52248 0.99673 0.42157 0.0
H89 H 0.49986 0.95879 0.53933 0.0
C90 C 0.48385 0.97705 0.59044 0.0
C91 C 0.56417 0.05443 0.53247 0.0
C92 C 0.43588 0.96143 0.46612 0.0
C93 C 0.5183 0.03547 0.40645 0.0
H94 H 0.56718 0.04325 0.61809 0.0
H95 H 0.52406 1.00032 0.64877 0.0
H96 H 0.43005 0.93344 0.60087 0.0
H97 H 0.40409 0.92468 0.5327 0.0
H98 H 0.43056 0.97614 0.3843 0.0
H99 H 0.47575 0.01634 0.35091 0.0
H100 H 0.57316 0.07696 0.39517 0.0
H101 H 0.59822 0.08702 0.46471 0.0
H102 H 0.52855 0.96345 0.39855 0.0
H103 H 0.50348 0.92366 0.5173 0.0
H104 H 0.49823 0.08931 0.48065 0.0
H105 H 0.47025 0.04763 0.59765 0.0
C106 C 0.55472 0.5231 0.95622 0.0
C107 C 0.56467 0.53297 0.91684 0.0
C108 C 0.54597 0.53593 0.89749 0.0
C109 C 0.52548 0.52736 0.92556 0.0
N110 N 0.53006 0.51944 0.96207 0.0
Co111 Co 0.50366 0.50186 0.00932 0.0
N112 N 0.47466 0.50266 0.97849 0.0
C113 C 0.47676 0.51278 0.94019 0.0
C114 C 0.45432 0.51237 0.92805 0.0
C115 C 0.43691 0.50173 0.96077 0.0
C116 C 0.44973 0.49607 0.99105 0.0
N117 N 0.47724 0.48389 0.05629 0.0
C118 C 0.45176 0.47816 0.06092 0.0
C119 C 0.44035 0.46533 0.0984 0.0
C120 C 0.45958 0.46362 0.11866 0.0
C121 C 0.48146 0.47523 0.0924 0.0
N122 N 0.53269 0.50134 0.0403 0.0
C123 C 0.5311 0.49264 0.0794 0.0
C124 C 0.55422 0.49474 0.09242 0.0
C125 C 0.57147 0.50491 0.05945 0.0
C126 C 0.55771 0.50816 0.02794 0.0
N127 N 0.5149 0.53666 0.02993 0.0
C128 C 0.52357 0.58346 0.06055 0.0
C129 C 0.52087 0.56303 0.08647 0.0
C130 C 0.5169 0.54023 0.07069 0.0
C131 C 0.52308 0.58044 0.01881 0.0
C132 C 0.51881 0.55714 0.0043 0.0
N133 N 0.49225 0.46708 0.98881 0.0
C134 C 0.48339 0.42306 -0.00042 0.0
C135 C 0.47968 0.41896 0.95816 0.0
C136 C 0.48176 0.43932 0.93269 0.0
C137 C 0.48757 0.46273 0.94855 0.0
C138 C 0.48982 0.44709 0.01404 0.0
H139 H 0.48868 0.47723 0.92744 0.0
H140 H 0.49309 0.44913 0.04567 0.0
H141 H 0.5148 0.52548 0.09225 0.0
H142 H 0.51826 0.556 0.97226 0.0
C143 C 0.50062 0.52393 0.91719 0.0
C144 C 0.56874 0.51634 0.98636 0.0
C145 C 0.43814 0.48592 0.03194 0.0
C146 C 0.50685 0.48025 0.10186 0.0
H147 H 0.58301 0.53679 0.90259 0.0
H148 H 0.54663 0.54228 0.86601 0.0
H149 H 0.45133 0.51976 0.89929 0.0
H150 H 0.41732 0.4992 0.96236 0.0
H151 H 0.42043 0.45862 0.11031 0.0
H152 H 0.45809 0.45565 0.14937 0.0
H153 H 0.55776 0.48867 0.12191 0.0
H154 H 0.59162 0.50871 0.05837 0.0
H155 H 0.52088 0.5641 0.11908 0.0
H156 H 0.52575 0.59587 0.99726 0.0
H157 H 0.48153 0.40793 0.02098 0.0
H158 H 0.47968 0.43771 0.90026 0.0
C159 C 0.95436 0.45121 0.47839 0.0
C160 C 0.93794 0.43782 0.44682 0.0
C161 C 0.94463 0.45592 0.41518 0.0
C162 C 0.96496 0.47915 0.42888 0.0
N163 N 0.97194 0.47693 0.46718 0.0
Co164 Co 1.00174 0.50559 0.49763 0.0
N165 N 0.00988 0.53255 0.45245 0.0
C166 C 0.99578 0.52898 0.41851 0.0
C167 C 0.00601 0.5512 0.39322 0.0
C168 C 0.02824 0.56999 0.41179 0.0
C169 C 0.03045 0.55799 0.44727 0.0
N170 N 0.03257 0.53416 0.52707 0.0
C171 C 0.05212 0.55891 0.51355 0.0
C172 C 0.07175 0.57116 0.54204 0.0
C173 C 0.06447 0.55356 0.57455 0.0
C174 C 0.0411 0.53157 0.56398 0.0
N175 N 0.9927 0.4788 0.54367 0.0
C176 C 1.00473 0.48338 0.57985 0.0
C177 C 0.99211 0.46253 0.6078 0.0
C178 C 0.97047 0.44352 0.58868 0.0
C179 C 0.97135 0.45367 0.54948 0.0
N180 N 0.0273 0.49788 0.47297 0.0
C181 C 0.06664 0.49117 0.43761 0.0
C182 C 0.06283 0.48923 0.47969 0.0
C183 C 0.04317 0.49256 0.4966 0.0
C184 C 0.04989 0.49584 0.4136 0.0
C185 C 0.03046 0.49894 0.43171 0.0
N186 N 0.97603 0.51316 0.52251 0.0
C187 C 0.95834 0.52121 0.58214 0.0
C188 C 0.9356 0.51673 0.56174 0.0
C189 C 0.93413 0.51169 0.5207 0.0
C190 C 0.95444 0.51011 0.5018 0.0
C191 C 0.9782 0.5196 0.56207 0.0
H192 H 0.95191 0.50586 0.47064 0.0
H193 H 0.99476 0.52296 0.57964 0.0
H194 H 0.04143 0.49109 0.52887 0.0
H195 H 0.01855 0.50269 0.41165 0.0
C196 C 0.97585 0.50376 0.40834 0.0
C197 C 0.95111 0.4391 0.51926 0.0
C198 C 0.05356 0.57091 0.47326 0.0
C199 C 0.02726 0.50785 0.58726 0.0
H200 H 0.92212 0.41726 0.44709 0.0
H201 H 0.93513 0.45271 0.38619 0.0
H202 H 0.99903 0.55315 0.36373 0.0
H203 H 0.04196 0.58995 0.39975 0.0
H204 H 0.08988 0.5905 0.53936 0.0
H205 H 0.07541 0.55618 0.60204 0.0
H206 H 0.99748 0.46157 0.63889 0.0
H207 H 0.95547 0.42467 0.60293 0.0
H208 H 0.07499 0.48521 0.49961 0.0
H209 H 0.05219 0.49785 0.38085 0.0
H210 H 0.96052 0.52507 0.61401 0.0
H211 H 0.91728 0.50872 0.50319 0.0
C212 C 0.46504 0.97949 0.06455 0.0
C213 C 0.46064 0.98159 0.10512 0.0
C214 C 0.48274 0.00412 0.11682 0.0
C215 C 0.49955 0.01432 0.08321 0.0
N216 N 0.48933 1.0 0.05032 0.0
Co217 Co 0.50893 0.0054 0.99739 0.0
N218 N 0.54314 0.03594 0.01705 0.0
C219 C 0.54653 0.04689 0.053 0.0
C220 C 0.57159 0.06875 0.05703 0.0
C221 C 0.58498 0.07225 0.02129 0.0
C222 C 0.56728 0.05208 0.99752 0.0
N223 N 0.52866 0.00988 0.94514 0.0
C224 C 0.55457 0.02751 0.93329 0.0
C225 C 0.56039 0.02295 0.89502 0.0
C226 C 0.53716 1.00216 0.8818 0.0
C227 C 0.51863 0.99503 0.91276 0.0
N228 N 0.47459 0.97544 0.97732 0.0
C229 C 0.47006 0.96674 0.93949 0.0
C230 C 0.44449 0.94574 0.93484 0.0
C231 C 0.43211 0.94036 0.97215 0.0
C232 C 0.45103 0.9583 0.99758 0.0
N233 N 0.49916 0.03059 0.97568 0.0
C234 C 0.49247 0.0708 0.94236 0.0
C235 C 0.4911 0.0518 0.91822 0.0
C236 C 0.49424 0.03199 0.93537 0.0
C237 C 0.49592 0.06851 0.98387 0.0
C238 C 0.49905 0.04838 -0.00024 0.0
N239 N 0.51884 0.98053 0.01891 0.0
C240 C 0.51853 0.9405 0.01433 0.0
C241 C 0.52912 0.94315 0.05284 0.0
C242 C 0.53539 0.96527 0.07341 0.0
C243 C 0.53027 0.98364 0.05594 0.0
C244 C 0.51351 0.95928 0.99807 0.0
H245 H 0.53533 0.99999 0.07326 0.0
H246 H 0.50481 0.95594 0.96896 0.0
H247 H 0.49326 0.01844 0.91505 0.0
H248 H 0.50182 0.04799 0.03152 0.0
C249 C 0.5259 0.03598 0.08259 0.0
C250 C 0.44634 0.95708 0.04125 0.0
C251 C 0.57393 0.04974 0.95603 0.0
C252 C 0.49126 0.9759 0.91116 0.0
H253 H 0.44378 0.96795 0.12501 0.0
H254 H 0.48664 0.01149 0.14684 0.0
H255 H 0.57913 0.08088 0.08273 0.0
H256 H 0.60533 0.08815 0.0135 0.0
H257 H 0.57933 0.03394 0.878 0.0
H258 H 0.53399 0.99368 0.85269 0.0
H259 H 0.4363 0.93472 0.90815 0.0
H260 H 0.41184 0.92434 0.9802 0.0
H261 H 0.48854 0.05264 0.88583 0.0
H262 H 0.49644 0.08232 0.00409 0.0
H263 H 0.51333 0.9236 0.99738 0.0
H264 H 0.54406 0.96833 0.10308 0.0
C265 C 0.52454 0.56721 0.52485 0.0
C266 C 0.5232 0.58117 0.55587 0.0
C267 C 0.51004 0.56351 0.58796 0.0
C268 C 0.50449 0.53998 0.57494 0.0
N269 N 0.51386 0.54162 0.53685 0.0
Co270 Co 0.51105 0.5123 0.50669 0.0
N271 N 0.48995 0.48584 0.55276 0.0
C272 C 0.48149 0.49038 0.58766 0.0
C273 C 0.46965 0.46922 0.61519 0.0
C274 C 0.471 0.45013 0.59726 0.0
C275 C 0.48335 0.46059 0.55921 0.0
N276 N 0.50864 0.483 0.47691 0.0
C277 C 0.49925 0.45776 0.48981 0.0
C278 C 0.50163 0.44394 0.45954 0.0
C279 C 0.51409 0.46137 0.42698 0.0
C280 C 0.51833 0.48463 0.43906 0.0
N281 N 0.53185 0.53867 0.4604 0.0
C282 C 0.5392 0.53383 0.42475 0.0
C283 C 0.55043 0.55478 0.39691 0.0
C284 C 0.54988 0.57411 0.41546 0.0
C285 C 0.53867 0.564 0.45424 0.0
N286 N 0.545 0.51898 0.53063 0.0
C287 C 0.59183 0.52588 0.56611 0.0
C288 C 0.5885 0.52393 0.52427 0.0
C289 C 0.56511 0.52053 0.50728 0.0
C290 C 0.57158 0.52495 0.58957 0.0
C291 C 0.54861 0.52146 0.57147 0.0
N292 N 0.47713 0.50586 0.4826 0.0
C293 C 0.45097 0.50042 0.42321 0.0
C294 C 0.43268 0.50344 0.4453 0.0
C295 C 0.43651 0.50673 0.48686 0.0
C296 C 0.45857 0.50767 0.50479 0.0
C297 C 0.47268 0.50155 0.44224 0.0
H298 H 0.46043 0.51036 0.53649 0.0
H299 H 0.48594 0.49954 0.42329 0.0
H300 H 0.56358 0.51887 0.47531 0.0
H301 H 0.53394 0.52057 0.59132 0.0
C302 C 0.48907 0.51576 0.59663 0.0
C303 C 0.53353 0.57851 0.48346 0.0
C304 C 0.49008 0.44664 0.53124 0.0
C305 C 0.53249 0.50861 0.41647 0.0
H306 H 0.53 0.60179 0.55477 0.0
H307 H 0.50438 0.56721 0.6168 0.0
H308 H 0.4626 0.46836 0.64582 0.0
H309 H 0.46466 0.4312 0.6119 0.0
H310 H 0.49587 0.42361 0.46141 0.0
H311 H 0.52015 0.45773 0.39843 0.0
H312 H 0.55689 0.55548 0.36594 0.0
H313 H 0.55613 0.593 0.40081 0.0
H314 H 0.60356 0.52444 0.50477 0.0
H315 H 0.5734 0.52695 0.62199 0.0
H316 H 0.44913 0.49803 0.39087 0.0
H317 H 0.42263 0.50866 0.50552 0.0
H318 H 0.33069 0.49747 0.2196 0.0
H319 H 0.27605 0.51274 0.27689 0.0
H320 H 0.26127 0.48307 0.15618 0.0
H321 H 0.23404 0.49706 0.15027 0.0
H322 H 0.17173 0.49649 0.21755 0.0
H323 H 0.23367 0.49543 0.28221 0.0
C324 C 0.31243 0.49775 0.21867 0.0
C325 C 0.29708 0.49004 0.18406 0.0
C326 C 0.30461 0.50544 0.25224 0.0
C327 C 0.28094 0.50572 0.25095 0.0
C328 C 0.26445 0.49765 0.21648 0.0
C329 C 0.27314 0.48992 0.18288 0.0
C330 C 0.23834 0.49699 0.21618 0.0
C331 C 0.22548 0.49666 0.17941 0.0
C332 C 0.20091 0.49547 0.18014 0.0
C333 C 0.19023 0.49662 0.21705 0.0
C334 C 0.20246 0.49735 0.25343 0.0
C335 C 0.22573 0.49645 0.2532 0.0
H336 H 0.68046 0.15551 0.73232 0.0
H337 H 0.75125 0.21231 0.78909 0.0
H338 H 0.73335 0.22951 0.66787 0.0
H339 H 0.77581 0.26047 0.66207 0.0
H340 H 0.84158 0.31832 0.72835 0.0
H341 H 0.77519 0.25363 0.79392 0.0
C342 C 0.69879 0.17483 0.73097 0.0
C343 C 0.70525 0.19148 0.69609 0.0
C344 C 0.7149 0.18265 0.76466 0.0
C345 C 0.73875 0.20747 0.76304 0.0
C346 C 0.74634 0.22521 0.72831 0.0
C347 C 0.72905 0.21668 0.69469 0.0
C348 C 0.77207 0.25217 0.72782 0.0
C349 C 0.7847 0.26736 0.69094 0.0
C350 C 0.80912 0.29198 0.69122 0.0
C351 C 0.82201 0.30023 0.72795 0.0
C352 C 0.80991 0.28639 0.7646 0.0
C353 C 0.7846 0.26304 0.76475 0.0
H354 H 0.5239 0.68198 0.26786 0.0
H355 H 0.5221 0.74414 0.20518 0.0
H356 H 0.53066 0.74353 0.33597 0.0
H357 H 0.52382 0.7753 0.33495 0.0
H358 H 0.5456 0.84665 0.26719 0.0
H359 H 0.54312 0.78542 0.20542 0.0
C360 C 0.52394 0.69992 0.26918 0.0
C361 C 0.52518 0.71026 0.30662 0.0
C362 C 0.52252 0.71191 0.23304 0.0
C363 C 0.52429 0.73598 0.23367 0.0
C364 C 0.52826 0.74869 0.27052 0.0
C365 C 0.52827 0.7351 0.30709 0.0
C366 C 0.53278 0.77594 0.27035 0.0
C367 C 0.53017 0.78665 0.30626 0.0
C368 C 0.53589 0.81257 0.30536 0.0
C369 C 0.5427 0.82728 0.26837 0.0
C370 C 0.5444 0.81704 0.23254 0.0
C371 C 0.54019 0.7919 0.23366 0.0
H372 H 0.83963 0.51618 0.79752 0.0
H373 H 0.78655 0.53248 0.85906 0.0
H374 H 0.77305 0.50969 0.73475 0.0
H375 H 0.76107 0.53918 0.73057 0.0
H376 H 0.6939 0.53606 0.78547 0.0
H377 H 0.73909 0.51219 0.85701 0.0
C378 C 0.82174 0.5171 0.79745 0.0
C379 C 0.80717 0.51217 0.76214 0.0
C380 C 0.81439 0.52419 0.8324 0.0
C381 C 0.79168 0.52627 0.83226 0.0
C382 C 0.7766 0.5216 0.79672 0.0
C383 C 0.78449 0.51411 0.76205 0.0
C384 C 0.75357 0.52568 0.79451 0.0
C385 C 0.74833 0.53463 0.75727 0.0
C386 C 0.7267 0.53807 0.75399 0.0
C387 C 0.71051 0.53318 0.78826 0.0
C388 C 0.71428 0.52335 0.82532 0.0
C389 C 0.73623 0.52005 0.82861 0.0
H390 H 0.17375 0.68847 0.26824 0.0
H391 H 0.23918 0.75514 0.20338 0.0
H392 H 0.23309 0.75144 0.33523 0.0
H393 H 0.25972 0.79376 0.32936 0.0
H394 H 0.3319 0.85392 0.2674 0.0
H395 H 0.28159 0.78232 0.20999 0.0
C396 C 0.19229 0.70759 0.26863 0.0
C397 C 0.20133 0.71921 0.30542 0.0
C398 C 0.2063 0.72016 0.23223 0.0
C399 C 0.2297 0.74533 0.23236 0.0
C400 C 0.24046 0.75734 0.26938 0.0
C401 C 0.22589 0.74354 0.30609 0.0
C402 C 0.26638 0.78407 0.26937 0.0
C403 C 0.27299 0.80008 0.30293 0.0
C404 C 0.29675 0.8251 0.30225 0.0
C405 C 0.31384 0.83443 0.26794 0.0
C406 C 0.30844 0.81924 0.23461 0.0
C407 C 0.28487 0.79405 0.23552 0.0
H408 H 0.48282 0.32924 0.7412 0.0
H409 H 0.47676 0.26146 0.79869 0.0
H410 H 0.49469 0.27902 0.66909 0.0
H411 H 0.47439 0.23556 0.667 0.0
H412 H 0.48605 0.17739 0.72455 0.0
H413 H 0.497 0.24034 0.79301 0.0
C414 C 0.48401 0.31203 0.73868 0.0
C415 C 0.48937 0.30613 0.70088 0.0
C416 C 0.48112 0.29693 0.77393 0.0
C417 C 0.48038 0.27347 0.77109 0.0
C418 C 0.48484 0.26613 0.73314 0.0
C419 C 0.48973 0.28308 0.69816 0.0
C420 C 0.48537 0.2415 0.73048 0.0
C421 C 0.4797 0.22845 0.69381 0.0
C422 C 0.48027 0.20554 0.69181 0.0
C423 C 0.48609 0.19533 0.72624 0.0
C424 C 0.49177 0.20763 0.76273 0.0
C425 C 0.49161 0.23072 0.76477 0.0
C426 C 0.09401 0.48277 0.01559 0.0
C427 C 0.08322 0.49585 0.03357 0.0
C428 C 0.11641 0.48331 0.0318 0.0
C429 C 0.12752 0.49627 0.06785 0.0
C430 C 0.11685 0.50982 0.08571 0.0
C431 C 0.0951 0.50971 0.06806 0.0
C432 C 0.12757 0.46926 0.01111 0.0
C433 C 0.12751 0.52336 0.12468 0.0
C434 C 0.15792 0.47145 0.14465 0.0
C435 C 0.18488 0.49232 0.14368 0.0
C436 C 0.13936 0.47178 0.11848 0.0
C437 C 0.14805 0.49326 0.08975 0.0
C438 C 0.17581 0.5131 0.08586 0.0
C439 C 0.19393 0.51256 0.11325 0.0
C440 C 0.11003 0.45033 0.1243 0.0
C441 C 0.18605 0.53586 0.05475 0.0
H442 H 0.08459 0.47167 0.9893 0.0
H443 H 0.0867 0.51976 0.08203 0.0
H444 H 0.14984 0.48166 0.00896 0.0
H445 H 0.12195 0.45094 0.02922 0.0
H446 H 0.1198 0.46403 0.98016 0.0
H447 H 0.11765 0.53376 0.13387 0.0
H448 H 0.12419 0.50865 0.14943 0.0
H449 H 0.14946 0.53776 0.12138 0.0
H450 H 0.15091 0.45582 0.16829 0.0
H451 H 0.21469 0.52883 0.11262 0.0
H452 H 0.10133 0.4421 0.09495 0.0
H453 H 0.09874 0.45868 0.13628 0.0
H454 H 0.10687 0.43406 0.14579 0.0
H455 H 0.17656 0.52897 0.02522 0.0
H456 H 0.20823 0.54663 0.05024 0.0
H457 H 0.18073 0.5498 0.06494 0.0
C458 C 0.60739 0.07778 0.57002 0.0
C459 C 0.58757 0.07881 0.54815 0.0
C460 C 0.62781 0.09997 0.58845 0.0
C461 C 0.6296 0.12433 0.58257 0.0
C462 C 0.6111 0.12601 0.55721 0.0
C463 C 0.58992 0.10311 0.54116 0.0
C464 C 0.64652 0.09693 0.61607 0.0
C465 C 0.61303 0.15173 0.548 0.0
C466 C 0.6585 0.16744 0.67136 0.0
C467 C 0.68622 0.18118 0.66216 0.0
C468 C 0.63973 0.14979 0.64485 0.0
C469 C 0.64868 0.14684 0.60694 0.0
C470 C 0.67628 0.16332 0.59518 0.0
C471 C 0.69487 0.18001 0.62326 0.0
C472 C 0.61069 0.13248 0.65927 0.0
C473 C 0.68644 0.16213 0.55399 0.0
H474 H 0.60622 0.05925 0.57413 0.0
H475 H 0.57495 0.10413 0.52349 0.0
H476 H 0.66764 0.11052 0.60526 0.0
H477 H 0.64466 0.10213 0.64711 0.0
H478 H 0.64222 0.07658 0.61786 0.0
H479 H 0.60276 0.15139 0.51961 0.0
H480 H 0.60321 0.15544 0.57307 0.0
H481 H 0.63429 0.16834 0.54505 0.0
H482 H 0.65165 0.16876 0.70109 0.0
H483 H 0.7162 0.19069 0.61574 0.0
H484 H 0.60482 0.11163 0.66156 0.0
H485 H 0.59742 0.13412 0.63721 0.0
H486 H 0.60697 0.13757 0.68934 0.0
H487 H 0.68889 0.14514 0.55418 0.0
H488 H 0.70623 0.18021 0.5457 0.0
H489 H 0.67196 0.15948 0.53032 0.0
C490 C 0.51275 0.61873 0.05905 0.0
C491 C 0.52578 0.60709 0.07726 0.0
C492 C 0.51242 0.63922 0.07695 0.0
C493 C 0.52496 0.64798 0.11435 0.0
C494 C 0.53914 0.63713 0.13193 0.0
C495 C 0.53961 0.61709 0.11301 0.0
C496 C 0.49757 0.65062 0.05677 0.0
C497 C 0.55273 0.64577 0.1719 0.0
C498 C 0.53967 0.70929 0.16516 0.0
C499 C 0.51925 0.69826 0.19535 0.0
C500 C 0.54068 0.69356 0.13603 0.0
C501 C 0.52098 0.66625 0.13768 0.0
C502 C 0.49905 0.65566 0.16594 0.0
C503 C 0.4984 0.67184 0.19421 0.0
C504 C 0.56397 0.70576 0.10569 0.0
C505 C 0.4776 0.62671 0.16901 0.0
H506 H 0.50183 0.61117 0.0316 0.0
H507 H 0.55038 0.60883 0.12682 0.0
H508 H 0.47843 0.64342 0.07385 0.0
H509 H 0.50954 0.67237 0.05695 0.0
H510 H 0.49285 0.64498 0.02495 0.0
H511 H 0.56399 0.63632 0.18056 0.0
H512 H 0.56687 0.66739 0.17039 0.0
H513 H 0.53745 0.64074 0.19622 0.0
H514 H 0.5559 0.72968 0.16616 0.0
H515 H 0.48258 0.66334 0.2176 0.0
H516 H 0.55713 0.698 0.0754 0.0
H517 H 0.57874 0.7007 0.11552 0.0
H518 H 0.57432 0.72751 0.10292 0.0
H519 H 0.4697 0.61977 0.13872 0.0
H520 H 0.46055 0.62213 0.18965 0.0
H521 H 0.48642 0.61544 0.1807 0.0
C522 C 0.88632 0.49749 0.57625 0.0
C523 C 0.91327 0.51632 0.5838 0.0
C524 C 0.86521 0.49525 0.59974 0.0
C525 C 0.87118 0.51193 0.63194 0.0
C526 C 0.89824 0.53162 0.63865 0.0
C527 C 0.91887 0.53372 0.61431 0.0
C528 C 0.83661 0.47431 0.59117 0.0
C529 C 0.90554 0.54979 0.67276 0.0
C530 C 0.82176 0.52222 0.68861 0.0
C531 C 0.81767 0.50727 0.72496 0.0
C532 C 0.83755 0.52243 0.65648 0.0
C533 C 0.84966 0.50756 0.6611 0.0
C534 C 0.84371 0.4908 0.69641 0.0
C535 C 0.82761 0.4907 0.72771 0.0
C536 C 0.84285 0.54004 0.61889 0.0
C537 C 0.85615 0.47459 0.70269 0.0
H538 H 0.88169 0.48378 0.55301 0.0
H539 H 0.93954 0.54874 0.61978 0.0
H540 H 0.8286 0.45836 0.61553 0.0
H541 H 0.82365 0.4825 0.59092 0.0
H542 H 0.83509 0.46563 0.5617 0.0
H543 H 0.92743 0.56475 0.67289 0.0
H544 H 0.89459 0.56007 0.67032 0.0
H545 H 0.89942 0.53818 0.70231 0.0
H546 H 0.81417 0.5351 0.68629 0.0
H547 H 0.82411 0.47878 0.75551 0.0
H548 H 0.84167 0.52987 0.59122 0.0
H549 H 0.86344 0.55774 0.61944 0.0
H550 H 0.8284 0.54652 0.61679 0.0
H551 H 0.85338 0.46322 0.67583 0.0
H552 H 0.84746 0.46071 0.7299 0.0
H553 H 0.87809 0.48783 0.70649 0.0
C554 C 0.40334 0.93349 0.08334 0.0
C555 C 0.42333 0.93268 0.06189 0.0
C556 C 0.38342 0.9114 0.1067 0.0
C557 C 0.38254 0.88744 0.10668 0.0
C558 C 0.40122 0.88592 0.08193 0.0
C559 C 0.42175 0.90871 0.06046 0.0
C560 C 0.36434 0.91419 0.13326 0.0
C561 C 0.40021 0.86052 0.07924 0.0
C562 C 0.35538 0.84622 0.20556 0.0
C563 C 0.32769 0.83104 0.19899 0.0
C564 C 0.37364 0.86378 0.17512 0.0
C565 C 0.36422 0.8653 0.1363 0.0
C566 C 0.33679 0.84769 0.12798 0.0
C567 C 0.3187 0.83099 0.15964 0.0
C568 C 0.40258 0.88232 0.18574 0.0
C569 C 0.32621 0.84761 0.08639 0.0
H570 H 0.40407 0.95183 0.0833 0.0
H571 H 0.43691 0.90793 0.04313 0.0
H572 H 0.34326 0.89946 0.12624 0.0
H573 H 0.36711 0.91041 0.16558 0.0
H574 H 0.36751 0.93406 0.12941 0.0
H575 H 0.41162 0.86101 0.05209 0.0
H576 H 0.40914 0.85707 0.10651 0.0
H577 H 0.37914 0.84365 0.07811 0.0
H578 H 0.36259 0.84576 0.23561 0.0
H579 H 0.29739 0.81918 0.15413 0.0
H580 H 0.4074 0.90283 0.18331 0.0
H581 H 0.41625 0.88118 0.16416 0.0
H582 H 0.40681 0.87802 0.21696 0.0
H583 H 0.32329 0.86427 0.08213 0.0
H584 H 0.30661 0.82914 0.08232 0.0
H585 H 0.34071 0.85007 0.06242 0.0
C586 C 0.51415 0.42292 0.54213 0.0
C587 C 0.49041 0.42289 0.54559 0.0
C588 C 0.51544 0.40153 0.55774 0.0
C589 C 0.49302 0.38038 0.57988 0.0
C590 C 0.46856 0.37967 0.58149 0.0
C591 C 0.46731 0.40041 0.56271 0.0
C592 C 0.54127 0.4024 0.55144 0.0
C593 C 0.44404 0.35779 0.60482 0.0
C594 C 0.4837 0.31688 0.62784 0.0
C595 C 0.49512 0.32515 0.66562 0.0
C596 C 0.48472 0.33499 0.59791 0.0
C597 C 0.49627 0.36166 0.60685 0.0
C598 C 0.50928 0.37024 0.64402 0.0
C599 C 0.50955 0.35214 0.6719 0.0
C600 C 0.47248 0.32498 0.55764 0.0
C601 C 0.52162 0.39822 0.65586 0.0
H602 H 0.53193 0.43989 0.52767 0.0
H603 H 0.44852 0.39967 0.56326 0.0
H604 H 0.55684 0.41697 0.57102 0.0
H605 H 0.53892 0.38305 0.55808 0.0
H606 H 0.54885 0.40917 0.51958 0.0
H607 H 0.42819 0.36229 0.60827 0.0
H608 H 0.43549 0.3395 0.58859 0.0
H609 H 0.44944 0.354 0.63549 0.0
H610 H 0.47296 0.29618 0.6222 0.0
H611 H 0.51968 0.35898 0.70016 0.0
H612 H 0.47831 0.34101 0.53396 0.0
H613 H 0.45027 0.31305 0.56153 0.0
H614 H 0.47866 0.31179 0.54686 0.0
H615 H 0.54095 0.41113 0.63883 0.0
H616 H 0.52573 0.40016 0.68873 0.0
H617 H 0.50826 0.40553 0.64854 0.0
C618 C 0.52517 0.90359 0.46543 0.0
C619 C 0.51728 0.91771 0.44027 0.0
C620 C 0.52716 0.88314 0.4508 0.0
C621 C 0.52178 0.87696 0.40975 0.0
C622 C 0.51333 0.89075 0.38445 0.0
C623 C 0.51085 0.91059 0.4001 0.0
C624 C 0.53567 0.86858 0.47903 0.0
C625 C 0.50761 0.88508 0.34034 0.0
C626 C 0.55577 0.85031 0.34946 0.0
C627 C 0.53407 0.82517 0.34168 0.0
C628 C 0.55248 0.86674 0.37398 0.0
C629 C 0.52691 0.8577 0.39187 0.0
C630 C 0.50563 0.83133 0.38757 0.0
C631 C 0.5094 0.81538 0.36221 0.0
C632 C 0.57575 0.89466 0.37731 0.0
C633 C 0.47828 0.82062 0.40706 0.0
H634 H 0.53041 0.90885 0.49641 0.0
H635 H 0.50391 0.9206 0.38054 0.0
H636 H 0.52204 0.84706 0.47687 0.0
H637 H 0.55618 0.87382 0.47006 0.0
H638 H 0.53577 0.87331 0.51109 0.0
H639 H 0.5009 0.89729 0.32482 0.0
H640 H 0.52598 0.88886 0.32417 0.0
H641 H 0.49184 0.86409 0.33765 0.0
H642 H 0.57487 0.85791 0.33357 0.0
H643 H 0.49254 0.79605 0.35607 0.0
H644 H 0.5782 0.90012 0.40926 0.0
H645 H 0.57165 0.90823 0.35959 0.0
H646 H 0.59495 0.89772 0.36561 0.0
H647 H 0.4801 0.82678 0.43856 0.0
H648 H 0.46571 0.79884 0.40754 0.0
H649 H 0.46777 0.82859 0.38975 0.0
C650 C 0.61603 0.53939 0.95721 0.0
C651 C 0.59333 0.51648 0.97432 0.0
C652 C 0.63733 0.5387 0.93959 0.0
C653 C 0.63682 0.5149 0.94174 0.0
C654 C 0.61545 0.49253 0.96355 0.0
C655 C 0.59359 0.49336 0.97857 0.0
C656 C 0.65932 0.56295 0.91605 0.0
C657 C 0.61499 0.46733 0.96948 0.0
C658 C 0.6668 0.50391 0.84945 0.0
C659 C 0.69402 0.51597 0.8589 0.0
C660 C 0.64796 0.50287 0.87654 0.0
C661 C 0.65595 0.51241 0.91555 0.0
C662 C 0.68263 0.52162 0.92722 0.0
C663 C 0.70156 0.52382 0.89844 0.0
C664 C 0.62003 0.49337 0.86203 0.0
C665 C 0.6917 0.53038 0.9693 0.0
H666 H 0.6163 0.55752 0.9553 0.0
H667 H 0.57637 0.47572 0.99273 0.0
H668 H 0.67914 0.56885 0.92841 0.0
H669 H 0.65966 0.55863 0.88388 0.0
H670 H 0.65664 0.57979 0.91702 0.0
H671 H 0.60212 0.45512 0.99623 0.0
H672 H 0.60671 0.45571 0.94242 0.0
H673 H 0.63556 0.47139 0.97353 0.0
H674 H 0.66051 0.49677 0.8195 0.0
H675 H 0.72242 0.53281 0.90635 0.0
H676 H 0.61555 0.50894 0.86469 0.0
H677 H 0.60489 0.47597 0.88115 0.0
H678 H 0.61754 0.48794 0.82999 0.0
H679 H 0.69958 0.55165 0.96999 0.0
H680 H 0.70817 0.52746 0.97804 0.0
H681 H 0.67494 0.5196 0.99218 0.0
C682 C 0.09192 0.59371 0.42257 0.0
C683 C 0.0789 0.59498 0.45698 0.0
C684 C 0.11421 0.61644 0.40399 0.0
C685 C 0.12411 0.64106 0.4207 0.0
C686 C 0.11176 0.64224 0.45663 0.0
C687 C 0.08898 0.61923 0.47395 0.0
C688 C 0.12633 0.61425 0.36531 0.0
C689 C 0.12198 0.66791 0.47593 0.0
C690 C 0.19193 0.69455 0.37331 0.0
C691 C 0.18379 0.7051 0.34199 0.0
C692 C 0.17292 0.67499 0.40154 0.0
C693 C 0.14525 0.66561 0.39773 0.0
C694 C 0.1374 0.67781 0.36807 0.0
C695 C 0.15679 0.69754 0.34091 0.0
C696 C 0.1822 0.66306 0.43351 0.0
C697 C 0.10821 0.66841 0.36246 0.0
H698 H 0.08404 0.57494 0.40945 0.0
H699 H 0.0787 0.62026 0.5003 0.0
H700 H 0.12358 0.62532 0.33992 0.0
H701 H 0.14824 0.6231 0.36823 0.0
H702 H 0.11707 0.59355 0.3573 0.0
H703 H 0.11302 0.66493 0.50684 0.0
H704 H 0.14418 0.6789 0.47782 0.0
H705 H 0.11694 0.68032 0.45697 0.0
H706 H 0.21276 0.70024 0.37405 0.0
H707 H 0.15052 0.70574 0.31666 0.0
H708 H 0.17727 0.64354 0.42458 0.0
H709 H 0.1717 0.66006 0.46307 0.0
H710 H 0.20423 0.67553 0.43746 0.0
H711 H 0.09749 0.6483 0.35139 0.0
H712 H 0.10568 0.68139 0.34033 0.0
H713 H 0.0984 0.66735 0.39174 0.0
C714 C 0.50866 0.11884 0.93645 0.0
C715 C 0.49141 0.0933 0.92386 0.0
C716 C 0.50977 0.14056 0.91642 0.0
C717 C 0.49345 0.1367 0.88275 0.0
C718 C 0.47518 0.11088 0.87104 0.0
C719 C 0.47428 0.08953 0.89184 0.0
C720 C 0.5293 0.16773 0.93009 0.0
C721 C 0.45738 0.10585 0.83531 0.0
C722 C 0.48043 0.18712 0.8336 0.0
C723 C 0.49684 0.19507 0.79841 0.0
C724 C 0.48042 0.16942 0.86313 0.0
C725 C 0.49714 0.15951 0.85704 0.0
C726 C 0.51532 0.16927 0.82317 0.0
C727 C 0.51498 0.18698 0.79436 0.0
C728 C 0.46107 0.15983 0.89916 0.0
C729 C 0.5336 0.15941 0.8155 0.0
H730 H 0.52213 0.12204 0.96093 0.0
H731 H 0.46047 0.06985 0.88246 0.0
H732 H 0.54618 0.1786 0.90745 0.0
H733 H 0.51941 0.17896 0.9322 0.0
H734 H 0.53769 0.16714 0.95997 0.0
H735 H 0.44316 0.08455 0.83162 0.0
H736 H 0.44567 0.11519 0.83888 0.0
H737 H 0.46998 0.11478 0.80708 0.0
H738 H 0.4663 0.19326 0.83668 0.0
H739 H 0.52783 0.19331 0.76726 0.0
H740 H 0.47095 0.15909 0.92734 0.0
H741 H 0.44398 0.1396 0.89477 0.0
H742 H 0.45298 0.17253 0.90323 0.0
H743 H 0.54462 0.1602 0.84317 0.0
H744 H 0.54844 0.17094 0.79025 0.0
H745 H 0.52138 0.13857 0.80772 0.0
C746 C 0.40376 0.52227 0.43369 0.0
C747 C 0.41041 0.5039 0.4245 0.0
C748 C 0.38465 0.52452 0.41133 0.0
C749 C 0.37206 0.50819 0.3788 0.0
C750 C 0.37794 0.48894 0.37048 0.0
C751 C 0.39686 0.48695 0.39351 0.0
C752 C 0.37879 0.54511 0.42145 0.0
C753 C 0.36503 0.47108 0.3361 0.0
C754 C 0.30972 0.49673 0.32564 0.0
C755 C 0.32108 0.51154 0.28893 0.0
C756 C 0.32612 0.49699 0.35688 0.0
C757 C 0.35446 0.51234 0.35106 0.0
C758 C 0.3659 0.5291 0.31549 0.0
C759 C 0.34907 0.52853 0.28495 0.0
C760 C 0.3131 0.4792 0.39461 0.0
C761 C 0.39595 0.54592 0.30796 0.0
H762 H 0.41423 0.5356 0.45735 0.0
H763 H 0.40141 0.47233 0.38671 0.0
H764 H 0.38757 0.56118 0.39725 0.0
H765 H 0.35681 0.53662 0.42284 0.0
H766 H 0.38729 0.55368 0.4508 0.0
H767 H 0.37082 0.45637 0.33475 0.0
H768 H 0.34283 0.4605 0.33936 0.0
H769 H 0.37105 0.48295 0.3068 0.0
H770 H 0.2881 0.48347 0.32874 0.0
H771 H 0.35789 0.54012 0.25665 0.0
H772 H 0.32348 0.48939 0.42205 0.0
H773 H 0.31472 0.46176 0.39318 0.0
H774 H 0.29149 0.47229 0.39784 0.0
H775 H 0.40601 0.55698 0.33492 0.0
H776 H 0.40164 0.56012 0.28134 0.0
H777 H 0.40372 0.53313 0.30237 0.0
C778 C 0.90682 0.37738 0.9374 0.0
C779 C 0.92039 0.40235 0.91683 0.0
C780 C 0.88637 0.35516 0.91892 0.0
C781 C 0.87947 0.35785 0.87871 0.0
C782 C 0.89288 0.38301 0.85794 0.0
C783 C 0.91298 0.40489 0.87728 0.0
C784 C 0.87244 0.32874 0.94215 0.0
C785 C 0.88626 0.3868 0.81495 0.0
C786 C 0.85048 0.30335 0.806 0.0
C787 C 0.82433 0.29796 0.80206 0.0
C788 C 0.8681 0.32143 0.83319 0.0
C789 C 0.85932 0.33441 0.85712 0.0
C790 C 0.83214 0.3272 0.85593 0.0
C791 C 0.81493 0.30906 0.82822 0.0
C792 C 0.89681 0.3284 0.8334 0.0
C793 C 0.82186 0.34027 0.88134 0.0
H794 H 0.91247 0.37506 0.9678 0.0
H795 H 0.92281 0.4241 0.86137 0.0
H796 H 0.85034 0.31952 0.94199 0.0
H797 H 0.87699 0.31545 0.92722 0.0
H798 H 0.87874 0.33021 0.9741 0.0
H799 H 0.89824 0.40769 0.80325 0.0
H800 H 0.89014 0.37502 0.79466 0.0
H801 H 0.86463 0.37973 0.8133 0.0
H802 H 0.85777 0.29488 0.7855 0.0
H803 H 0.79483 0.30515 0.82481 0.0
H804 H 0.90355 0.32905 0.8649 0.0
H805 H 0.91008 0.34824 0.81826 0.0
H806 H 0.89949 0.31421 0.81727 0.0
H807 H 0.82885 0.34168 0.91283 0.0
H808 H 0.79957 0.32952 0.88219 0.0
H809 H 0.82989 0.36056 0.86845 0.0
C810 C 0.92733 0.53795 0.9844 0.0
C811 C 0.93414 0.52171 0.9662 0.0
C812 C 0.90564 0.53968 0.97075 0.0
C813 C 0.89109 0.52556 0.93718 0.0
C814 C 0.89772 0.50881 0.91921 0.0
C815 C 0.91891 0.50686 0.93427 0.0
C816 C 0.89883 0.5572 0.99145 0.0
C817 C 0.8832 0.49376 0.88286 0.0
C818 C 0.82377 0.51204 0.90111 0.0
C819 C 0.83206 0.53006 0.86747 0.0
C820 C 0.84279 0.5119 0.92686 0.0
C821 C 0.87061 0.52984 0.91811 0.0
C822 C 0.87878 0.54962 0.88644 0.0
C823 C 0.85939 0.54962 0.86181 0.0
C824 C 0.83317 0.49107 0.96115 0.0
C825 C 0.90812 0.56902 0.87557 0.0
H826 H 0.93927 0.54963 0.00888 0.0
H827 H 0.92422 0.49432 0.92023 0.0
H828 H 0.90507 0.57501 0.97146 0.0
H829 H 0.87682 0.54695 0.99719 0.0
H830 H 0.90907 0.56347 0.02069 0.0
H831 H 0.89045 0.48122 0.87297 0.0
H832 H 0.86132 0.4811 0.88996 0.0
H833 H 0.88607 0.50771 0.85713 0.0
H834 H 0.80269 0.49673 0.90529 0.0
H835 H 0.86579 0.56342 0.83556 0.0
H836 H 0.84518 0.49927 0.98845 0.0
H837 H 0.83573 0.47508 0.95198 0.0
H838 H 0.81161 0.48241 0.96921 0.0
H839 H 0.91949 0.57805 0.90299 0.0
H840 H 0.91111 0.5849 0.85336 0.0
H841 H 0.91682 0.55857 0.86214 0.0
C842 C 0.41348 0.92494 0.41917 0.0
C843 C 0.41112 0.93907 0.44936 0.0
C844 C 0.39069 0.90495 0.40088 0.0
C845 C 0.36476 0.89837 0.41392 0.0
C846 C 0.36222 0.91194 0.44556 0.0
C847 C 0.38548 0.93252 0.46235 0.0
C848 C 0.39447 0.89146 0.36663 0.0
C849 C 0.33501 0.90507 0.46113 0.0
C850 C 0.31494 0.86864 0.33072 0.0
C851 C 0.30569 0.84192 0.33739 0.0
C852 C 0.33268 0.88719 0.35724 0.0
C853 C 0.34078 0.87871 0.39196 0.0
C854 C 0.32874 0.85142 0.40153 0.0
C855 C 0.31145 0.83328 0.37387 0.0
C856 C 0.34509 0.91601 0.34545 0.0
C857 C 0.33604 0.8415 0.43903 0.0
H858 H 0.43333 0.93003 0.4092 0.0
H859 H 0.38368 0.94362 0.4855 0.0
H860 H 0.38361 0.86999 0.37409 0.0
H861 H 0.38585 0.89456 0.33861 0.0
H862 H 0.41596 0.89887 0.36021 0.0
H863 H 0.33634 0.91483 0.4894 0.0
H864 H 0.32556 0.91123 0.43785 0.0
H865 H 0.32154 0.8835 0.46709 0.0
H866 H 0.31034 0.87532 0.30258 0.0
H867 H 0.3044 0.81266 0.37912 0.0
H868 H 0.36629 0.92474 0.33518 0.0
H869 H 0.34518 0.9267 0.37178 0.0
H870 H 0.33431 0.91925 0.32053 0.0
H871 H 0.35597 0.84413 0.43393 0.0
H872 H 0.32114 0.82031 0.44656 0.0
H873 H 0.33747 0.85279 0.46539 0.0
C874 C 0.46016 0.38506 0.90588 0.0
C875 C 0.47499 0.39439 0.94107 0.0
C876 C 0.4593 0.36483 0.8855 0.0
C877 C 0.47265 0.35271 0.90149 0.0
C878 C 0.48529 0.3601 0.93911 0.0
C879 C 0.48678 0.38115 0.95806 0.0
C880 C 0.4458 0.35783 0.8452 0.0
C881 C 0.49874 0.34692 0.95814 0.0
C882 C 0.45962 0.29522 0.84095 0.0
C883 C 0.48144 0.30802 0.8131 0.0
C884 C 0.45745 0.30889 0.87255 0.0
C885 C 0.47721 0.33596 0.87536 0.0
C886 C 0.50026 0.34817 0.84914 0.0
C887 C 0.50225 0.33391 0.81887 0.0
C888 C 0.43321 0.29483 0.9011 0.0
C889 C 0.52176 0.377 0.85051 0.0
H890 H 0.44997 0.39423 0.89322 0.0
H891 H 0.49832 0.38793 0.98516 0.0
H892 H 0.46112 0.36336 0.82068 0.0
H893 H 0.43125 0.33635 0.84502 0.0
H894 H 0.43504 0.36799 0.83806 0.0
H895 H 0.50176 0.35022 0.99099 0.0
H896 H 0.48669 0.32546 0.95427 0.0
H897 H 0.51869 0.35502 0.94307 0.0
H898 H 0.44357 0.27516 0.83662 0.0
H899 H 0.5193 0.34368 0.79756 0.0
H900 H 0.41805 0.29925 0.89081 0.0
H901 H 0.43865 0.30149 0.93229 0.0
H902 H 0.42379 0.2732 0.90194 0.0
H903 H 0.51305 0.38899 0.84252 0.0
H904 H 0.53896 0.38313 0.82917 0.0
H905 H 0.52948 0.38157 0.88152 0.0
C906 C 0.08406 0.47663 0.38239 0.0
C907 C 0.08842 0.48929 0.4186 0.0
C908 C 0.10513 0.47733 0.36143 0.0
C909 C 0.13122 0.49074 0.37728 0.0
C910 C 0.13545 0.50217 0.41505 0.0
C911 C 0.11403 0.50144 0.43518 0.0
C912 C 0.09972 0.46487 0.32119 0.0
C913 C 0.16287 0.51634 0.43318 0.0
C914 C 0.1792 0.47818 0.32127 0.0
C915 C 0.18989 0.49875 0.29118 0.0
C916 C 0.16146 0.47626 0.35177 0.0
C917 C 0.1543 0.49527 0.35173 0.0
C918 C 0.16689 0.5172 0.3233 0.0
C919 C 0.18456 0.51867 0.29344 0.0
C920 C 0.14885 0.45287 0.38203 0.0
C921 C 0.15997 0.53798 0.32215 0.0
H922 H 0.06422 0.46665 0.36986 0.0
H923 H 0.11767 0.51141 0.46303 0.0
H924 H 0.11076 0.48035 0.29651 0.0
H925 H 0.10709 0.45138 0.32086 0.0
H926 H 0.07802 0.45369 0.31445 0.0
H927 H 0.16195 0.52036 0.46537 0.0
H928 H 0.17232 0.50469 0.43135 0.0
H929 H 0.17608 0.53534 0.41573 0.0
H930 H 0.18325 0.46272 0.31935 0.0
H931 H 0.19298 0.53462 0.27017 0.0
H932 H 0.12789 0.43865 0.37362 0.0
H933 H 0.14807 0.4589 0.41289 0.0
H934 H 0.15997 0.4427 0.38286 0.0
H935 H 0.13904 0.52939 0.31222 0.0
H936 H 0.17353 0.55506 0.30098 0.0
H937 H 0.16109 0.54511 0.35279 0.0
C938 C 0.62421 0.07685 0.94626 0.0
C939 C 0.59891 0.07145 0.9349 0.0
C940 C 0.64767 0.09647 0.9248 0.0
C941 C 0.64556 0.11042 0.89069 0.0
C942 C 0.61996 0.10521 0.87965 0.0
C943 C 0.597 0.08595 0.90214 0.0
C944 C 0.67458 0.10179 0.93798 0.0
C945 C 0.6167 0.11937 0.84322 0.0
C946 C 0.7005 0.17429 0.8379 0.0
C947 C 0.70466 0.16514 0.80227 0.0
C948 C 0.68313 0.15655 0.86924 0.0
C949 C 0.66954 0.12918 0.86444 0.0
C950 C 0.67599 0.12 0.83044 0.0
C951 C 0.69367 0.13813 0.79994 0.0
C952 C 0.67738 0.16714 0.90556 0.0
C953 C 0.66205 0.09103 0.824 0.0
H954 H 0.62555 0.06549 0.97161 0.0
H955 H 0.57735 0.08171 0.89357 0.0
H956 H 0.68288 0.09487 0.91524 0.0
H957 H 0.68906 0.12321 0.93977 0.0
H958 H 0.67311 0.09173 0.9679 0.0
H959 H 0.59546 0.11334 0.83924 0.0
H960 H 0.62896 0.1409 0.84626 0.0
H961 H 0.62402 0.1153 0.81535 0.0
H962 H 0.70894 0.19515 0.83983 0.0
H963 H 0.69715 0.13106 0.77257 0.0
H964 H 0.6758 0.15553 0.93379 0.0
H965 H 0.65786 0.16558 0.90198 0.0
H966 H 0.69317 0.18809 0.90892 0.0
H967 H 0.66172 0.07999 0.85212 0.0
H968 H 0.67186 0.08709 0.79913 0.0
H969 H 0.64088 0.08332 0.81613 0.0
C970 C 0.55647 0.62445 0.45088 0.0
C971 C 0.53371 0.60266 0.47007 0.0
C972 C 0.55502 0.64488 0.43138 0.0
C973 C 0.53098 0.64484 0.43497 0.0
C974 C 0.50949 0.62496 0.46022 0.0
C975 C 0.51065 0.60356 0.47595 0.0
C976 C 0.57875 0.66548 0.40514 0.0
C977 C 0.48457 0.62526 0.46943 0.0
C978 C 0.53874 0.70546 0.37806 0.0
C979 C 0.52325 0.69422 0.3441 0.0
C980 C 0.53983 0.68955 0.40988 0.0
C981 C 0.52643 0.66198 0.40637 0.0
C982 C 0.50979 0.65061 0.373 0.0
C983 C 0.50727 0.66671 0.34388 0.0
C984 C 0.55599 0.70276 0.44624 0.0
C985 C 0.49551 0.62157 0.36628 0.0
H986 H 0.57493 0.62463 0.44876 0.0
H987 H 0.49321 0.58723 0.49215 0.0
H988 H 0.5722 0.66978 0.37588 0.0
H989 H 0.58974 0.68389 0.42119 0.0
H990 H 0.59304 0.65935 0.39854 0.0
H991 H 0.4799 0.62156 0.50258 0.0
H992 H 0.48662 0.64413 0.45964 0.0
H993 H 0.46715 0.60898 0.45459 0.0
H994 H 0.55075 0.72663 0.37934 0.0
H995 H 0.49381 0.65759 0.31923 0.0
H996 H 0.57762 0.71494 0.43711 0.0
H997 H 0.55308 0.68867 0.47172 0.0
H998 H 0.55037 0.71635 0.45714 0.0
H999 H 0.5079 0.61341 0.37525 0.0
H1000 H 0.49036 0.61756 0.33402 0.0
H1001 H 0.47645 0.6108 0.38456 0.0
C1002 C 0.47194 0.10588 0.53214 0.0
C1003 C 0.48195 0.09337 0.55648 0.0
C1004 C 0.4698 0.12625 0.54663 0.0
C1005 C 0.47783 0.1343 0.58638 0.0
C1006 C 0.4882 0.12192 0.61086 0.0
C1007 C 0.49018 0.10174 0.59561 0.0
C1008 C 0.45868 0.13896 0.51965 0.0
C1009 C 0.49711 0.1299 0.65342 0.0
C1010 C 0.49732 0.19941 0.62751 0.0
C1011 C 0.47558 0.19151 0.65436 0.0
C1012 C 0.4973 0.18153 0.60183 0.0
C1013 C 0.47506 0.15521 0.60339 0.0
C1014 C 0.45193 0.14807 0.62734 0.0
C1015 C 0.45252 0.16632 0.65269 0.0
C1016 C 0.52228 0.19009 0.57652 0.0
C1017 C 0.4277 0.12034 0.62981 0.0
H1018 H 0.46536 0.09945 0.50197 0.0
H1019 H 0.49848 0.09264 0.61433 0.0
H1020 H 0.43984 0.1355 0.53359 0.0
H1021 H 0.47311 0.16053 0.51655 0.0
H1022 H 0.45439 0.13125 0.48893 0.0
H1023 H 0.5049 0.11846 0.66838 0.0
H1024 H 0.5131 0.15106 0.6528 0.0
H1025 H 0.48002 0.127 0.67222 0.0
H1026 H 0.51534 0.21874 0.6294 0.0
H1027 H 0.43591 0.16012 0.67402 0.0
H1028 H 0.51705 0.18194 0.5462 0.0
H1029 H 0.53383 0.18251 0.59169 0.0
H1030 H 0.53545 0.21183 0.57258 0.0
H1031 H 0.42255 0.11249 0.59929 0.0
H1032 H 0.40989 0.11913 0.64376 0.0
H1033 H 0.43232 0.10752 0.64859 0.0
C1034 C 0.38873 0.46893 0.0302 0.0
C1035 C 0.41406 0.4859 0.04582 0.0
C1036 C 0.36578 0.46781 0.04526 0.0
C1037 C 0.36821 0.48348 0.07745 0.0
C1038 C 0.39392 0.50098 0.09276 0.0
C1039 C 0.41653 0.50211 0.0765 0.0
C1040 C 0.33889 0.44934 0.02756 0.0
C1041 C 0.39747 0.51779 0.12745 0.0
C1042 C 0.31731 0.49885 0.11411 0.0
C1043 C 0.30741 0.48261 0.14982 0.0
C1044 C 0.33542 0.49773 0.08779 0.0
C1045 C 0.34393 0.4802 0.09792 0.0
C1046 C 0.33184 0.46202 0.13187 0.0
C1047 C 0.31359 0.46335 0.15722 0.0
C1048 C 0.34726 0.51693 0.05128 0.0
C1049 C 0.34031 0.44307 0.14405 0.0
H1050 H 0.38687 0.45626 0.00664 0.0
H1051 H 0.43617 0.51521 0.0885 0.0
H1052 H 0.32624 0.43271 0.04989 0.0
H1053 H 0.32814 0.45955 0.02092 0.0
H1054 H 0.3409 0.44128 0.99927 0.0
H1055 H 0.41889 0.53089 0.13498 0.0
H1056 H 0.38908 0.53008 0.11984 0.0
H1057 H 0.38627 0.50504 0.15486 0.0
H1058 H 0.31272 0.5139 0.10854 0.0
H1059 H 0.30596 0.45084 0.18496 0.0
H1060 H 0.3491 0.50737 0.02479 0.0
H1061 H 0.36774 0.53332 0.05803 0.0
H1062 H 0.33495 0.52531 0.04304 0.0
H1063 H 0.34068 0.43271 0.11757 0.0
H1064 H 0.32676 0.42821 0.16812 0.0
H1065 H 0.36097 0.45413 0.15562 0.0
C1066 C 0.9008 0.40949 0.5267 0.0
C1067 C 0.92622 0.41307 0.531 0.0
C1068 C 0.87747 0.38628 0.54194 0.0
C1069 C 0.8798 0.36703 0.56467 0.0
C1070 C 0.90526 0.3698 0.56654 0.0
C1071 C 0.92793 0.3923 0.54812 0.0
C1072 C 0.85069 0.38331 0.53515 0.0
C1073 C 0.90905 0.35003 0.5904 0.0
C1074 C 0.83447 0.33735 0.6587 0.0
C1075 C 0.82204 0.31026 0.65447 0.0
C1076 C 0.85293 0.35587 0.6295 0.0
C1077 C 0.85741 0.34733 0.59294 0.0
C1078 C 0.84221 0.32008 0.58606 0.0
C1079 C 0.82515 0.30177 0.61736 0.0
C1080 C 0.86876 0.38446 0.63938 0.0
C1081 C 0.84438 0.3098 0.54658 0.0
H1082 H 0.89917 0.42515 0.51238 0.0
H1083 H 0.94743 0.39455 0.54974 0.0
H1084 H 0.83351 0.36286 0.54176 0.0
H1085 H 0.84855 0.39661 0.55449 0.0
H1086 H 0.84974 0.38939 0.50318 0.0
H1087 H 0.93058 0.35678 0.59295 0.0
H1088 H 0.89999 0.34607 0.62144 0.0
H1089 H 0.89883 0.33126 0.57523 0.0
H1090 H 0.83115 0.34416 0.6865 0.0
H1091 H 0.81526 0.28092 0.61329 0.0
H1092 H 0.86122 0.39523 0.62176 0.0
H1093 H 0.89042 0.39381 0.63135 0.0
H1094 H 0.86686 0.38693 0.67205 0.0
H1095 H 0.85482 0.32548 0.522 0.0
H1096 H 0.82399 0.29499 0.53659 0.0
H1097 H 0.85527 0.29956 0.55131 0.0
C1098 C 0.54528 0.91218 0.05166 0.0
C1099 C 0.53261 0.92256 0.07246 0.0
C1100 C 0.54942 0.89334 0.07098 0.0
C1101 C 0.54041 0.88462 0.11179 0.0
C1102 C 0.52699 0.89459 0.13247 0.0
C1103 C 0.52335 0.91347 0.11259 0.0
C1104 C 0.56395 0.88328 0.04814 0.0
C1105 C 0.51675 0.88559 0.17589 0.0
C1106 C 0.52715 0.822 0.16623 0.0
C1107 C 0.54788 0.83217 0.19387 0.0
C1108 C 0.5257 0.83857 0.13632 0.0
C1109 C 0.5456 0.86578 0.13405 0.0
C1110 C 0.56815 0.87548 0.15899 0.0
C1111 C 0.56892 0.85855 0.18886 0.0
C1112 C 0.50137 0.82742 0.11028 0.0
C1113 C 0.59004 0.90426 0.15711 0.0
H1114 H 0.55253 0.91927 0.02064 0.0
H1115 H 0.51312 0.92113 0.12847 0.0
H1116 H 0.58335 0.88953 0.06246 0.0
H1117 H 0.552 0.86149 0.04966 0.0
H1118 H 0.56803 0.89065 0.01579 0.0
H1119 H 0.50587 0.89458 0.18703 0.0
H1120 H 0.50301 0.86391 0.17874 0.0
H1121 H 0.53382 0.89081 0.19592 0.0
H1122 H 0.51079 0.80161 0.17033 0.0
H1123 H 0.58499 0.86633 0.21026 0.0
H1124 H 0.50708 0.8359 0.07861 0.0
H1125 H 0.48728 0.83257 0.12228 0.0
H1126 H 0.49061 0.80568 0.11014 0.0
H1127 H 0.59581 0.91223 0.12521 0.0
H1128 H 0.60821 0.90777 0.17296 0.0
H1129 H 0.58254 0.91537 0.1718 0.0
C1130 C 0.61293 0.51505 0.62318 0.0
C1131 C 0.6159 0.52857 0.58574 0.0
C1132 C 0.6353 0.51885 0.64416 0.0
C1133 C 0.66146 0.53639 0.62714 0.0
C1134 C 0.66463 0.5492 0.58848 0.0
C1135 C 0.6418 0.54522 0.56827 0.0
C1136 C 0.63089 0.50467 0.68528 0.0
C1137 C 0.69214 0.56775 0.5691 0.0
C1138 C 0.71097 0.56227 0.71113 0.0
C1139 C 0.71818 0.54356 0.71438 0.0
C1140 C 0.69448 0.56182 0.68014 0.0
C1141 C 0.68512 0.54227 0.65161 0.0
C1142 C 0.695 0.52539 0.65195 0.0
C1143 C 0.71143 0.5262 0.68349 0.0
C1144 C 0.68468 0.58036 0.68083 0.0
C1145 C 0.68602 0.50466 0.6216 0.0
H1146 H 0.59298 0.50161 0.63643 0.0
H1147 H 0.64432 0.55581 0.53941 0.0
H1148 H 0.64053 0.49313 0.68565 0.0
H1149 H 0.64035 0.51916 0.70884 0.0
H1150 H 0.60924 0.49114 0.69368 0.0
H1151 H 0.69107 0.57322 0.53684 0.0
H1152 H 0.70272 0.58595 0.58579 0.0
H1153 H 0.70441 0.55881 0.57083 0.0
H1154 H 0.71638 0.57585 0.73485 0.0
H1155 H 0.71691 0.51167 0.68594 0.0
H1156 H 0.66355 0.56943 0.69257 0.0
H1157 H 0.6851 0.58857 0.64983 0.0
H1158 H 0.69693 0.59685 0.70053 0.0
H1159 H 0.66546 0.48796 0.6303 0.0
H1160 H 0.69951 0.49707 0.62047 0.0
H1161 H 0.68529 0.51249 0.59082 0.0
C1162 C 0.0903 0.61792 0.11103 0.0
C1163 C 0.09492 0.61005 0.07432 0.0
C1164 C 0.11132 0.63882 0.13082 0.0
C1165 C 0.13766 0.65258 0.11325 0.0
C1166 C 0.14226 0.64569 0.07521 0.0
C1167 C 0.12091 0.62439 0.05635 0.0
C1168 C 0.1055 0.64543 0.17146 0.0
C1169 C 0.16995 0.66007 0.05525 0.0
C1170 C 0.18479 0.71542 0.16517 0.0
C1171 C 0.19524 0.70612 0.19477 0.0
C1172 C 0.16751 0.69875 0.136 0.0
C1173 C 0.16049 0.67228 0.13694 0.0
C1174 C 0.17292 0.66365 0.16468 0.0
C1175 C 0.1902 0.68072 0.19313 0.0
C1176 C 0.15515 0.70887 0.10634 0.0
C1177 C 0.1661 0.63565 0.16688 0.0
H1178 H 0.07024 0.60744 0.12473 0.0
H1179 H 0.12484 0.61842 0.02819 0.0
H1180 H 0.11652 0.64166 0.19529 0.0
H1181 H 0.11264 0.66657 0.17102 0.0
H1182 H 0.08375 0.6337 0.18005 0.0
H1183 H 0.1695 0.65494 0.02333 0.0
H1184 H 0.17937 0.68162 0.05578 0.0
H1185 H 0.18294 0.65498 0.0723 0.0
H1186 H 0.18853 0.735 0.16665 0.0
H1187 H 0.19833 0.67359 0.21612 0.0
H1188 H 0.13404 0.701 0.11614 0.0
H1189 H 0.15485 0.70211 0.07565 0.0
H1190 H 0.16615 0.73066 0.10446 0.0
H1191 H 0.14514 0.62234 0.17878 0.0
H1192 H 0.17963 0.6329 0.18699 0.0
H1193 H 0.16734 0.62959 0.13628 0.0
loop_
_geom_bond_atom_site_label_1
_geom_bond_atom_site_label_2
_geom_bond_distance
_geom_bond_site_symmetry_2
_ccdc_geom_bond_type
C0 C1 1.443 1_556 S
C0 N4 1.376 1_556 S
C0 C38 1.389 . S
C1 C0 1.443 1_554 S
C1 C2 1.340 . S
C1 H41 0.951 . S
C2 C1 1.340 . S
C2 C3 1.439 . S
C2 H42 0.950 . S
C3 C2 1.439 . S
C3 N4 1.374 . S
C3 C37 1.395 . S
N4 C0 1.376 1_554 S
N4 C3 1.374 . S
N4 Co5 2.016 1_655 S
Co5 N4 2.016 1_455 S
Co5 N6 2.006 . S
Co5 N11 2.001 1_554 S
Co5 N16 1.974 1_554 S
Co5 N21 2.297 . S
Co5 N27 2.268 1_454 S
N6 Co5 2.006 . S
N6 C7 1.357 1_455 S
N6 C10 1.416 . S
C7 N6 1.357 1_655 S
C7 C8 1.446 . S
C7 C37 1.391 . S
C8 C7 1.446 . S
C8 C9 1.339 1_655 S
C8 H43 0.949 . S
C9 C8 1.339 1_455 S
C9 C10 1.439 . S
C9 H44 0.950 . S
C10 N6 1.416 . S
C10 C9 1.439 . S
C10 C39 1.392 . S
N11 Co5 2.001 1_556 S
N11 C12 1.376 1_556 S
N11 C15 1.374 . S
C12 N11 1.376 1_554 S
C12 C13 1.443 1_554 S
C12 C39 1.389 . S
C13 C12 1.443 1_556 S
C13 C14 1.340 . S
C13 H45 0.951 . S
C14 C13 1.340 . S
C14 C15 1.439 . S
C14 H46 0.950 . S
C15 N11 1.374 . S
C15 C14 1.439 . S
C15 C40 1.395 . S
N16 Co5 1.974 1_556 S
N16 C17 1.376 . S
N16 C20 1.383 1_455 S
C17 N16 1.376 . S
C17 C18 1.446 . S
C17 C40 1.391 . S
C18 C17 1.446 . S
C18 C19 1.339 1_455 S
C18 H47 0.949 . S
C19 C18 1.339 1_655 S
C19 C20 1.439 . S
C19 H48 0.950 . S
C20 N16 1.383 1_655 S
C20 C19 1.439 . S
C20 C38 1.392 . S
N21 Co5 2.297 . S
N21 C24 1.332 . S
N21 C26 1.332 . S
C22 C23 1.386 . S
C22 C25 1.388 . S
C23 C22 1.386 . S
C23 C24 1.382 . S
C23 H49 0.950 . S
C24 N21 1.332 . S
C24 C23 1.382 . S
C24 H35 0.952 1_554 S
C25 C22 1.388 . S
C25 C26 1.382 . S
C25 H50 0.950 . S
C26 N21 1.332 . S
C26 C25 1.382 . S
C26 H36 0.948 . S
N27 Co5 2.268 1_656 S
N27 C31 1.332 . S
N27 C32 1.332 . S
C28 C29 1.388 . S
C28 C32 1.382 . S
C28 H51 0.950 . S
C29 C28 1.388 . S
C29 C30 1.386 . S
C30 C29 1.386 . S
C30 C31 1.382 . S
C30 H52 0.950 . S
C31 N27 1.332 . S
C31 C30 1.382 . S
C31 H33 0.952 1_556 S
C32 N27 1.332 . S
C32 C28 1.382 . S
C32 H34 0.948 . S
H33 C31 0.952 1_554 S
H34 C32 0.948 . S
H35 C24 0.952 1_556 S
H36 C26 0.948 . S
C37 C3 1.395 . S
C37 C7 1.391 . S
C38 C0 1.389 . S
C38 C20 1.392 . S
C39 C10 1.392 . S
C39 C12 1.389 . S
C40 C15 1.395 . S
C40 C17 1.391 . S
H41 C1 0.951 . S
H42 C2 0.950 . S
H43 C8 0.949 . S
H44 C9 0.950 . S
H45 C13 0.951 . S
H46 C14 0.950 . S
H47 C18 0.949 . S
H48 C19 0.950 . S
H49 C23 0.950 . S
H50 C25 0.950 . S
H51 C28 0.950 . S
H52 C30 0.950 . S
C53 C54 1.443 . S
C53 N57 1.376 . S
C53 C91 1.389 . S
C54 C53 1.443 . S
C54 C55 1.340 1_545 S
C54 H94 0.951 . S
C55 C54 1.340 1_565 S
C55 C56 1.439 . S
C55 H95 0.950 . S
C56 C55 1.439 . S
C56 N57 1.374 1_565 S
C56 C90 1.395 . S
N57 C53 1.376 . S
N57 C56 1.374 1_545 S
N57 Co58 2.008 . S
Co58 N57 2.008 . S
Co58 N59 1.995 1_545 S
Co58 N64 2.008 . S
Co58 N69 1.995 . S
Co58 N74 2.282 1_545 S
Co58 N80 2.282 . S
N59 Co58 1.995 1_565 S
N59 C60 1.376 . S
N59 C63 1.383 . S
C60 N59 1.376 . S
C60 C61 1.446 . S
C60 C90 1.391 . S
C61 C60 1.446 . S
C61 C62 1.339 . S
C61 H96 0.949 . S
C62 C61 1.339 . S
C62 C63 1.439 . S
C62 H97 0.950 . S
C63 N59 1.383 . S
C63 C62 1.439 . S
C63 C92 1.392 . S
N64 Co58 2.008 . S
N64 C65 1.376 1_545 S
N64 C68 1.374 . S
C65 N64 1.376 1_565 S
C65 C66 1.443 . S
C65 C92 1.389 . S
C66 C65 1.443 . S
C66 C67 1.340 1_565 S
C66 H98 0.951 . S
C67 C66 1.340 1_545 S
C67 C68 1.439 . S
C67 H99 0.950 . S
C68 N64 1.374 . S
C68 C67 1.439 . S
C68 C93 1.395 . S
N69 Co58 1.995 . S
N69 C70 1.376 . S
N69 C73 1.383 . S
C70 N69 1.376 . S
C70 C71 1.446 . S
C70 C93 1.391 . S
C71 C70 1.446 . S
C71 C72 1.339 . S
C71 H100 0.949 . S
C72 C71 1.339 . S
C72 C73 1.439 . S
C72 H101 0.950 . S
C73 N69 1.383 . S
C73 C72 1.439 . S
C73 C91 1.392 . S
N74 Co58 2.282 1_565 S
N74 C77 1.332 . S
N74 C79 1.332 . S
C75 C76 1.386 . S
C75 C78 1.388 . S
C76 C75 1.386 . S
C76 C77 1.382 . S
C76 H102 0.950 . S
C77 N74 1.332 . S
C77 C76 1.382 . S
C77 H88 0.952 1_565 S
C78 C75 1.388 . S
C78 C79 1.382 . S
C78 H103 0.950 . S
C79 N74 1.332 . S
C79 C78 1.382 . S
C79 H89 0.948 . S
N80 Co58 2.282 . S
N80 C84 1.332 . S
N80 C85 1.332 . S
C81 C82 1.388 . S
C81 C85 1.382 . S
C81 H104 0.950 . S
C82 C81 1.388 . S
C82 C83 1.386 . S
C83 C82 1.386 . S
C83 C84 1.382 . S
C83 H105 0.950 . S
C84 N80 1.332 . S
C84 C83 1.382 . S
C84 H86 0.952 . S
C85 N80 1.332 . S
C85 C81 1.382 . S
C85 H87 0.948 . S
H86 C84 0.952 . S
H87 C85 0.948 . S
H88 C77 0.952 1_545 S
H89 C79 0.948 . S
C90 C56 1.395 . S
C90 C60 1.391 . S
C91 C53 1.389 . S
C91 C73 1.392 . S
C92 C63 1.392 . S
C92 C65 1.389 . S
C93 C68 1.395 . S
C93 C70 1.391 . S
H94 C54 0.951 . S
H95 C55 0.950 . S
H96 C61 0.949 . S
H97 C62 0.950 . S
H98 C66 0.951 . S
H99 C67 0.950 . S
H100 C71 0.949 . S
H101 C72 0.950 . S
H102 C76 0.950 . S
H103 C78 0.950 . S
H104 C81 0.950 . S
H105 C83 0.950 . S
C106 C107 1.443 . S
C106 N110 1.376 . S
C106 C144 1.389 . S
C107 C106 1.443 . S
C107 C108 1.340 . S
C107 H147 0.951 . S
C108 C107 1.340 . S
C108 C109 1.439 . S
C108 H148 0.950 . S
C109 C108 1.439 . S
C109 N110 1.374 . S
C109 C143 1.395 . S
N110 C106 1.376 . S
N110 C109 1.374 . S
N110 Co111 1.984 1_556 S
Co111 N110 1.984 1_554 S
Co111 N112 1.986 1_554 S
Co111 N117 2.033 . S
Co111 N122 2.004 . S
Co111 N127 2.296 . S
Co111 N133 2.269 1_554 S
N112 Co111 1.986 1_556 S
N112 C113 1.376 . S
N112 C116 1.383 1_556 S
C113 N112 1.376 . S
C113 C114 1.446 . S
C113 C143 1.391 . S
C114 C113 1.446 . S
C114 C115 1.339 . S
C114 H149 0.949 . S
C115 C114 1.339 . S
C115 C116 1.439 1_556 S
C115 H150 0.950 . S
C116 N112 1.383 1_554 S
C116 C115 1.439 1_554 S
C116 C145 1.392 . S
N117 Co111 2.033 . S
N117 C118 1.376 . S
N117 C121 1.374 . S
C118 N117 1.376 . S
C118 C119 1.443 . S
C118 C145 1.389 . S
C119 C118 1.443 . S
C119 C120 1.340 . S
C119 H151 0.951 . S
C120 C119 1.340 . S
C120 C121 1.439 . S
C120 H152 0.950 . S
C121 N117 1.374 . S
C121 C120 1.439 . S
C121 C146 1.395 . S
N122 Co111 2.004 . S
N122 C123 1.376 . S
N122 C126 1.383 1_554 S
C123 N122 1.376 . S
C123 C124 1.446 . S
C123 C146 1.391 . S
C124 C123 1.446 . S
C124 C125 1.339 . S
C124 H153 0.949 . S
C125 C124 1.339 . S
C125 C126 1.439 1_554 S
C125 H154 0.950 . S
C126 N122 1.383 1_556 S
C126 C125 1.439 1_556 S
C126 C144 1.392 . S
N127 Co111 2.296 . S
N127 C130 1.332 . S
N127 C132 1.332 . S
C128 C129 1.386 . S
C128 C131 1.388 . S
C129 C128 1.386 . S
C129 C130 1.382 . S
C129 H155 0.950 . S
C130 N127 1.332 . S
C130 C129 1.382 . S
C130 H141 0.952 . S
C131 C128 1.388 . S
C131 C132 1.382 . S
C131 H156 0.950 . S
C132 N127 1.332 . S
C132 C131 1.382 . S
C132 H142 0.948 1_554 S
N133 Co111 2.269 1_556 S
N133 C137 1.332 . S
N133 C138 1.332 . S
C134 C135 1.388 . S
C134 C138 1.382 . S
C134 H157 0.950 . S
C135 C134 1.388 . S
C135 C136 1.386 . S
C136 C135 1.386 . S
C136 C137 1.382 . S
C136 H158 0.950 . S
C137 N133 1.332 . S
C137 C136 1.382 . S
C137 H139 0.952 . S
C138 N133 1.332 . S
C138 C134 1.382 . S
C138 H140 0.948 1_556 S
H139 C137 0.952 . S
H140 C138 0.948 1_554 S
H141 C130 0.952 . S
H142 C132 0.948 1_556 S
C143 C109 1.395 . S
C143 C113 1.391 . S
C144 C106 1.389 . S
C144 C126 1.392 . S
C145 C116 1.392 . S
C145 C118 1.389 . S
C146 C121 1.395 . S
C146 C123 1.391 . S
H147 C107 0.951 . S
H148 C108 0.950 . S
H149 C114 0.949 . S
H150 C115 0.950 . S
H151 C119 0.951 . S
H152 C120 0.950 . S
H153 C124 0.949 . S
H154 C125 0.950 . S
H155 C129 0.950 . S
H156 C131 0.950 . S
H157 C134 0.950 . S
H158 C136 0.950 . S
C159 C160 1.443 . S
C159 N163 1.376 . S
C159 C197 1.389 . S
C160 C159 1.443 . S
C160 C161 1.340 . S
C160 H200 0.951 . S
C161 C160 1.340 . S
C161 C162 1.439 . S
C161 H201 0.950 . S
C162 C161 1.439 . S
C162 N163 1.374 . S
C162 C196 1.395 . S
N163 C159 1.376 . S
N163 C162 1.374 . S
N163 Co164 1.987 1_655 S
Co164 N163 1.987 1_455 S
Co164 N165 1.984 . S
Co164 N170 2.030 . S
Co164 N175 2.010 1_455 S
Co164 N180 2.311 . S
Co164 N186 2.254 1_455 S
N165 Co164 1.984 . S
N165 C166 1.376 1_455 S
N165 C169 1.383 . S
C166 N165 1.376 1_655 S
C166 C167 1.446 . S
C166 C196 1.391 . S
C167 C166 1.446 . S
C167 C168 1.339 1_655 S
C167 H202 0.949 . S
C168 C167 1.339 1_455 S
C168 C169 1.439 . S
C168 H203 0.950 . S
C169 N165 1.383 . S
C169 C168 1.439 . S
C169 C198 1.392 . S
N170 Co164 2.030 . S
N170 C171 1.376 . S
N170 C174 1.374 . S
C171 N170 1.376 . S
C171 C172 1.443 . S
C171 C198 1.389 . S
C172 C171 1.443 . S
C172 C173 1.340 . S
C172 H204 0.951 . S
C173 C172 1.340 . S
C173 C174 1.439 . S
C173 H205 0.950 . S
C174 N170 1.374 . S
C174 C173 1.439 . S
C174 C199 1.395 . S
N175 Co164 2.010 1_655 S
N175 C176 1.368 1_655 S
N175 C179 1.388 . S
C176 N175 1.368 1_455 S
C176 C177 1.446 . S
C176 C199 1.391 . S
C177 C176 1.446 . S
C177 C178 1.339 1_455 S
C177 H206 0.949 . S
C178 C177 1.339 1_655 S
C178 C179 1.439 . S
C178 H207 0.950 . S
C179 N175 1.388 . S
C179 C178 1.439 . S
C179 C197 1.392 . S
N180 Co164 2.311 . S
N180 C183 1.332 . S
N180 C185 1.332 . S
C181 C182 1.386 . S
C181 C184 1.388 . S
C182 C181 1.386 . S
C182 C183 1.382 . S
C182 H208 0.950 . S
C183 N180 1.332 . S
C183 C182 1.382 . S
C183 H194 0.952 . S
C184 C181 1.388 . S
C184 C185 1.382 . S
C184 H209 0.950 . S
C185 N180 1.332 . S
C185 C184 1.382 . S
C185 H195 0.948 . S
N186 Co164 2.254 1_655 S
N186 C190 1.332 . S
N186 C191 1.332 . S
C187 C188 1.388 . S
C187 C191 1.382 . S
C187 H210 0.950 . S
C188 C187 1.388 . S
C188 C189 1.386 . S
C189 C188 1.386 . S
C189 C190 1.382 . S
C189 H211 0.950 . S
C190 N186 1.332 . S
C190 C189 1.382 . S
C190 H192 0.952 . S
C191 N186 1.332 . S
C191 C187 1.382 . S
C191 H193 0.948 . S
H192 C190 0.952 . S
H193 C191 0.948 . S
H194 C183 0.952 . S
H195 C185 0.948 . S
C196 C162 1.395 . S
C196 C166 1.391 . S
C197 C159 1.389 . S
C197 C179 1.392 . S
C198 C169 1.392 . S
C198 C171 1.389 . S
C199 C174 1.395 . S
C199 C176 1.391 . S
H200 C160 0.951 . S
H201 C161 0.950 . S
H202 C167 0.949 . S
H203 C168 0.950 . S
H204 C172 0.951 . S
H205 C173 0.950 . S
H206 C177 0.949 . S
H207 C178 0.950 . S
H208 C182 0.950 . S
H209 C184 0.950 . S
H210 C187 0.950 . S
H211 C189 0.950 . S
C212 C213 1.443 . S
C212 N216 1.376 1_565 S
C212 C250 1.389 . S
C213 C212 1.443 . S
C213 C214 1.340 1_565 S
C213 H253 0.951 . S
C214 C213 1.340 1_545 S
C214 C215 1.439 . S
C214 H254 0.950 . S
C215 C214 1.439 . S
C215 N216 1.374 . S
C215 C249 1.395 . S
N216 C212 1.376 1_545 S
N216 C215 1.374 . S
N216 Co217 2.008 . S
Co217 N216 2.008 . S
Co217 N218 1.995 . S
Co217 N223 2.008 1_554 S
Co217 N228 1.995 1_544 S
Co217 N233 2.282 1_554 S
Co217 N239 2.282 1_545 S
N218 Co217 1.995 . S
N218 C219 1.376 . S
N218 C222 1.383 1_554 S
C219 N218 1.376 . S
C219 C220 1.446 . S
C219 C249 1.391 . S
C220 C219 1.446 . S
C220 C221 1.339 . S
C220 H255 0.949 . S
C221 C220 1.339 . S
C221 C222 1.439 1_554 S
C221 H256 0.950 1_554 S
C222 N218 1.383 1_556 S
C222 C221 1.439 1_556 S
C222 C251 1.392 . S
N223 Co217 2.008 1_556 S
N223 C224 1.376 . S
N223 C227 1.374 1_545 S
C224 N223 1.376 . S
C224 C225 1.443 . S
C224 C251 1.389 . S
C225 C224 1.443 . S
C225 C226 1.368 . S
C225 H257 0.951 . S
C226 C225 1.368 . S
C226 C227 1.436 1_545 S
C226 H258 0.931 1_545 S
C227 N223 1.374 1_565 S
C227 C226 1.436 1_565 S
C227 C252 1.395 . S
N228 Co217 1.995 1_566 S
N228 C229 1.376 . S
N228 C232 1.383 1_556 S
C229 N228 1.376 . S
C229 C230 1.446 . S
C229 C252 1.391 . S
C230 C229 1.446 . S
C230 C231 1.339 . S
C230 H259 0.949 . S
C231 C230 1.339 . S
C231 C232 1.439 1_556 S
C231 H260 0.950 1_556 S
C232 N228 1.383 1_554 S
C232 C231 1.439 1_554 S
C232 C250 1.392 . S
N233 Co217 2.282 1_556 S
N233 C236 1.332 . S
N233 C238 1.332 . S
C234 C235 1.386 . S
C234 C237 1.388 . S
C235 C234 1.386 . S
C235 C236 1.382 . S
C235 H261 0.950 . S
C236 N233 1.332 . S
C236 C235 1.382 . S
C236 H247 0.952 . S
C237 C234 1.388 . S
C237 C238 1.382 . S
C237 H262 0.950 . S
C238 N233 1.332 . S
C238 C237 1.382 . S
C238 H248 0.948 1_556 S
N239 Co217 2.282 1_565 S
N239 C243 1.332 . S
N239 C244 1.332 . S
C240 C241 1.388 . S
C240 C244 1.382 . S
C240 H263 0.950 . S
C241 C240 1.388 . S
C241 C242 1.386 . S
C242 C241 1.386 . S
C242 C243 1.382 . S
C242 H264 0.950 . S
C243 N239 1.332 . S
C243 C242 1.382 . S
C243 H245 0.952 1_565 S
C244 N239 1.332 . S
C244 C240 1.382 . S
C244 H246 0.948 1_554 S
H245 C243 0.952 1_545 S
H246 C244 0.948 1_556 S
H247 C236 0.952 . S
H248 C238 0.948 1_554 S
C249 C215 1.395 . S
C249 C219 1.391 . S
C250 C212 1.389 . S
C250 C232 1.392 . S
C251 C222 1.392 . S
C251 C224 1.389 . S
C252 C227 1.395 . S
C252 C229 1.391 . S
H253 C213 0.951 . S
H254 C214 0.950 . S
H255 C220 0.949 . S
H256 C221 0.950 1_556 S
H257 C225 0.951 . S
H258 C226 0.931 1_565 S
H259 C230 0.949 . S
H260 C231 0.950 1_554 S
H261 C235 0.950 . S
H262 C237 0.950 . S
H263 C240 0.950 . S
H264 C242 0.950 . S
C265 C266 1.443 . S
C265 N269 1.376 . S
C265 C303 1.389 . S
C266 C265 1.443 . S
C266 C267 1.340 . S
C266 H306 0.951 . S
C267 C266 1.340 . S
C267 C268 1.439 . S
C267 H307 0.950 . S
C268 C267 1.439 . S
C268 N269 1.374 . S
C268 C302 1.395 . S
N269 C265 1.376 . S
N269 C268 1.374 . S
N269 Co270 2.008 . S
Co270 N269 2.008 . S
Co270 N271 1.995 . S
Co270 N276 2.008 . S
Co270 N281 1.995 . S
Co270 N286 2.282 . S
Co270 N292 2.282 . S
N271 Co270 1.995 . S
N271 C272 1.376 . S
N271 C275 1.383 . S
C272 N271 1.376 . S
C272 C273 1.446 . S
C272 C302 1.391 . S
C273 C272 1.446 . S
C273 C274 1.339 . S
C273 H308 0.949 . S
C274 C273 1.339 . S
C274 C275 1.439 . S
C274 H309 0.950 . S
C275 N271 1.383 . S
C275 C274 1.439 . S
C275 C304 1.392 . S
N276 Co270 2.008 . S
N276 C277 1.376 . S
N276 C280 1.374 . S
C277 N276 1.376 . S
C277 C278 1.443 . S
C277 C304 1.389 . S
C278 C277 1.443 . S
C278 C279 1.340 . S
C278 H310 0.951 . S
C279 C278 1.340 . S
C279 C280 1.439 . S
C279 H311 0.950 . S
C280 N276 1.374 . S
C280 C279 1.439 . S
C280 C305 1.395 . S
N281 Co270 1.995 . S
N281 C282 1.376 . S
N281 C285 1.383 . S
C282 N281 1.376 . S
C282 C283 1.446 . S
C282 C305 1.391 . S
C283 C282 1.446 . S
C283 C284 1.339 . S
C283 H312 0.949 . S
C284 C283 1.339 . S
C284 C285 1.439 . S
C284 H313 0.950 . S
C285 N281 1.383 . S
C285 C284 1.439 . S
C285 C303 1.392 . S
N286 Co270 2.282 . S
N286 C289 1.332 . S
N286 C291 1.332 . S
C287 C288 1.386 . S
C287 C290 1.388 . S
C288 C287 1.386 . S
C288 C289 1.382 . S
C288 H314 0.950 . S
C289 N286 1.332 . S
C289 C288 1.382 . S
C289 H300 0.952 . S
C290 C287 1.388 . S
C290 C291 1.382 . S
C290 H315 0.950 . S
C291 N286 1.332 . S
C291 C290 1.382 . S
C291 H301 0.948 . S
N292 Co270 2.282 . S
N292 C296 1.332 . S
N292 C297 1.332 . S
C293 C294 1.388 . S
C293 C297 1.382 . S
C293 H316 0.950 . S
C294 C293 1.388 . S
C294 C295 1.386 . S
C295 C294 1.386 . S
C295 C296 1.382 . S
C295 H317 0.950 . S
C296 N292 1.332 . S
C296 C295 1.382 . S
C296 H298 0.952 . S
C297 N292 1.332 . S
C297 C293 1.382 . S
C297 H299 0.948 . S
H298 C296 0.952 . S
H299 C297 0.948 . S
H300 C289 0.952 . S
H301 C291 0.948 . S
C302 C268 1.395 . S
C302 C272 1.391 . S
C303 C265 1.389 . S
C303 C285 1.392 . S
C304 C275 1.392 . S
C304 C277 1.389 . S
C305 C280 1.395 . S
C305 C282 1.391 . S
H306 C266 0.951 . S
H307 C267 0.950 . S
H308 C273 0.949 . S
H309 C274 0.950 . S
H310 C278 0.951 . S
H311 C279 0.950 . S
H312 C283 0.949 . S
H313 C284 0.950 . S
H314 C288 0.950 . S
H315 C290 0.950 . S
H316 C293 0.950 . S
H317 C295 0.950 . S
H318 C324 0.930 . S
H319 C327 0.931 . S
H320 C329 0.931 . S
H321 C331 0.930 . S
H322 C333 0.930 . S
H323 C335 0.931 . S
C324 H318 0.930 . S
C324 C325 1.380 . S
C324 C326 1.394 . S
C325 C324 1.380 . S
C325 C329 1.382 . S
C326 C324 1.394 . S
C326 C327 1.400 . S
C327 H319 0.931 . S
C327 C326 1.400 . S
C327 C328 1.375 . S
C328 C327 1.375 . S
C328 C329 1.415 . S
C328 C330 1.501 . S
C329 H320 0.931 . S
C329 C325 1.382 . S
C329 C328 1.415 . S
C330 C328 1.501 . S
C330 C331 1.384 . S
C330 C335 1.408 . S
C331 H321 0.930 . S
C331 C330 1.384 . S
C331 C332 1.389 . S
C332 C331 1.389 . S
C332 C333 1.405 . S
C333 H322 0.930 . S
C333 C332 1.405 . S
C333 C334 1.364 . S
C334 C333 1.364 . S
C334 C335 1.400 . S
C335 H323 0.931 . S
C335 C330 1.408 . S
C335 C334 1.400 . S
H336 C342 0.930 . S
H337 C345 0.931 . S
H338 C347 0.931 . S
H339 C349 0.930 . S
H340 C351 0.930 . S
H341 C353 0.931 . S
C342 H336 0.930 . S
C342 C343 1.380 . S
C342 C344 1.394 . S
C343 C342 1.380 . S
C343 C347 1.382 . S
C344 C342 1.394 . S
C344 C345 1.400 . S
C345 H337 0.931 . S
C345 C344 1.400 . S
C345 C346 1.375 . S
C346 C345 1.375 . S
C346 C347 1.415 . S
C346 C348 1.501 . S
C347 H338 0.931 . S
C347 C343 1.382 . S
C347 C346 1.415 . S
C348 C346 1.501 . S
C348 C349 1.384 . S
C348 C353 1.408 . S
C349 H339 0.930 . S
C349 C348 1.384 . S
C349 C350 1.389 . S
C350 C349 1.389 . S
C350 C351 1.405 . S
C351 H340 0.930 . S
C351 C350 1.405 . S
C351 C352 1.364 . S
C352 C351 1.364 . S
C352 C353 1.400 . S
C353 H341 0.931 . S
C353 C348 1.408 . S
C353 C352 1.400 . S
H354 C360 0.930 . S
H355 C363 0.931 . S
H356 C365 0.931 . S
H357 C367 0.930 . S
H358 C369 0.930 . S
H359 C371 0.931 . S
C360 H354 0.930 . S
C360 C361 1.380 . S
C360 C362 1.394 . S
C361 C360 1.380 . S
C361 C365 1.382 . S
C362 C360 1.394 . S
C362 C363 1.400 . S
C363 H355 0.931 . S
C363 C362 1.400 . S
C363 C364 1.375 . S
C364 C363 1.375 . S
C364 C365 1.415 . S
C364 C366 1.501 . S
C365 H356 0.931 . S
C365 C361 1.382 . S
C365 C364 1.415 . S
C366 C364 1.501 . S
C366 C367 1.384 . S
C366 C371 1.408 . S
C367 H357 0.930 . S
C367 C366 1.384 . S
C367 C368 1.389 . S
C368 C367 1.389 . S
C368 C369 1.405 . S
C369 H358 0.930 . S
C369 C368 1.405 . S
C369 C370 1.364 . S
C370 C369 1.364 . S
C370 C371 1.400 . S
C371 H359 0.931 . S
C371 C366 1.408 . S
C371 C370 1.400 . S
H372 C378 0.930 . S
H373 C381 0.931 . S
H374 C383 0.931 . S
H375 C385 0.930 . S
H376 C387 0.930 . S
H377 C389 0.931 . S
C378 H372 0.930 . S
C378 C379 1.380 . S
C378 C380 1.394 . S
C379 C378 1.380 . S
C379 C383 1.382 . S
C380 C378 1.394 . S
C380 C381 1.400 . S
C381 H373 0.931 . S
C381 C380 1.400 . S
C381 C382 1.375 . S
C382 C381 1.375 . S
C382 C383 1.415 . S
C382 C384 1.501 . S
C383 H374 0.931 . S
C383 C379 1.382 . S
C383 C382 1.415 . S
C384 C382 1.501 . S
C384 C385 1.384 . S
C384 C389 1.408 . S
C385 H375 0.930 . S
C385 C384 1.384 . S
C385 C386 1.389 . S
C386 C385 1.389 . S
C386 C387 1.405 . S
C387 H376 0.930 . S
C387 C386 1.405 . S
C387 C388 1.364 . S
C388 C387 1.364 . S
C388 C389 1.400 . S
C389 H377 0.931 . S
C389 C384 1.408 . S
C389 C388 1.400 . S
H390 C396 0.930 . S
H391 C399 0.931 . S
H392 C401 0.931 . S
H393 C403 0.930 . S
H394 C405 0.930 . S
H395 C407 0.931 . S
C396 H390 0.930 . S
C396 C397 1.380 . S
C396 C398 1.394 . S
C397 C396 1.380 . S
C397 C401 1.382 . S
C398 C396 1.394 . S
C398 C399 1.400 . S
C399 H391 0.931 . S
C399 C398 1.400 . S
C399 C400 1.375 . S
C400 C399 1.375 . S
C400 C401 1.415 . S
C400 C402 1.501 . S
C401 H392 0.931 . S
C401 C397 1.382 . S
C401 C400 1.415 . S
C402 C400 1.501 . S
C402 C403 1.384 . S
C402 C407 1.408 . S
C403 H393 0.930 . S
C403 C402 1.384 . S
C403 C404 1.389 . S
C404 C403 1.389 . S
C404 C405 1.405 . S
C405 H394 0.930 . S
C405 C404 1.405 . S
C405 C406 1.364 . S
C406 C405 1.364 . S
C406 C407 1.400 . S
C407 H395 0.931 . S
C407 C402 1.408 . S
C407 C406 1.400 . S
H408 C414 0.930 . S
H409 C417 0.931 . S
H410 C419 0.931 . S
H411 C421 0.930 . S
H412 C423 0.930 . S
H413 C425 0.931 . S
C414 H408 0.930 . S
C414 C415 1.380 . S
C414 C416 1.394 . S
C415 C414 1.380 . S
C415 C419 1.382 . S
C416 C414 1.394 . S
C416 C417 1.400 . S
C417 H409 0.931 . S
C417 C416 1.400 . S
C417 C418 1.375 . S
C418 C417 1.375 . S
C418 C419 1.415 . S
C418 C420 1.501 . S
C419 H410 0.931 . S
C419 C415 1.382 . S
C419 C418 1.415 . S
C420 C418 1.501 . S
C420 C421 1.384 . S
C420 C425 1.408 . S
C421 H411 0.930 . S
C421 C420 1.384 . S
C421 C422 1.389 . S
C422 C421 1.389 . S
C422 C423 1.405 . S
C423 H412 0.930 . S
C423 C422 1.405 . S
C423 C424 1.364 . S
C424 C423 1.364 . S
C424 C425 1.400 . S
C425 H413 0.931 . S
C425 C420 1.408 . S
C425 C424 1.400 . S
C426 C427 1.391 . S
C426 C428 1.394 . S
C426 H442 0.931 . S
C427 C426 1.391 . S
C427 C431 1.376 . S
C428 C426 1.394 . S
C428 C429 1.369 . S
C428 C432 1.531 . S
C429 C428 1.369 . S
C429 C430 1.410 . S
C429 C437 1.503 . S
C430 C429 1.410 . S
C430 C431 1.392 . S
C430 C433 1.511 . S
C431 C427 1.376 . S
C431 C430 1.392 . S
C431 H443 0.929 . S
C432 C428 1.531 . S
C432 H444 0.960 . S
C432 H445 0.962 . S
C432 H446 0.960 . S
C433 C430 1.511 . S
C433 H447 0.961 . S
C433 H448 0.961 . S
C433 H449 0.961 . S
C434 C435 1.370 . S
C434 C436 1.363 . S
C434 H450 0.931 . S
C435 C434 1.370 . S
C435 C439 1.408 . S
C436 C434 1.363 . S
C436 C437 1.370 . S
C436 C440 1.524 . S
C437 C429 1.503 . S
C437 C436 1.370 . S
C437 C438 1.403 . S
C438 C437 1.403 . S
C438 C439 1.404 . S
C438 C441 1.539 . S
C439 C435 1.408 . S
C439 C438 1.404 . S
C439 H451 0.930 . S
C440 C436 1.524 . S
C440 H452 0.956 . S
C440 H453 0.961 . S
C440 H454 0.961 . S
C441 C438 1.539 . S
C441 H455 0.958 . S
C441 H456 0.961 . S
C441 H457 0.960 . S
H442 C426 0.931 . S
H443 C431 0.929 . S
H444 C432 0.960 . S
H445 C432 0.962 . S
H446 C432 0.960 . S
H447 C433 0.961 . S
H448 C433 0.961 . S
H449 C433 0.961 . S
H450 C434 0.931 . S
H451 C439 0.930 . S
H452 C440 0.956 . S
H453 C440 0.961 . S
H454 C440 0.961 . S
H455 C441 0.958 . S
H456 C441 0.961 . S
H457 C441 0.960 . S
C458 C459 1.391 . S
C458 C460 1.394 . S
C458 H474 0.931 . S
C459 C458 1.391 . S
C459 C463 1.376 . S
C460 C458 1.394 . S
C460 C461 1.369 . S
C460 C464 1.531 . S
C461 C460 1.369 . S
C461 C462 1.410 . S
C461 C469 1.503 . S
C462 C461 1.410 . S
C462 C463 1.392 . S
C462 C465 1.511 . S
C463 C459 1.376 . S
C463 C462 1.392 . S
C463 H475 0.929 . S
C464 C460 1.531 . S
C464 H476 0.960 . S
C464 H477 0.962 . S
C464 H478 0.960 . S
C465 C462 1.511 . S
C465 H479 0.961 . S
C465 H480 0.961 . S
C465 H481 0.961 . S
C466 C467 1.370 . S
C466 C468 1.363 . S
C466 H482 0.931 . S
C467 C466 1.370 . S
C467 C471 1.408 . S
C468 C466 1.363 . S
C468 C469 1.370 . S
C468 C472 1.524 . S
C469 C461 1.503 . S
C469 C468 1.370 . S
C469 C470 1.403 . S
C470 C469 1.403 . S
C470 C471 1.404 . S
C470 C473 1.539 . S
C471 C467 1.408 . S
C471 C470 1.404 . S
C471 H483 0.930 . S
C472 C468 1.524 . S
C472 H484 0.956 . S
C472 H485 0.961 . S
C472 H486 0.961 . S
C473 C470 1.539 . S
C473 H487 0.958 . S
C473 H488 0.961 . S
C473 H489 0.960 . S
H474 C458 0.931 . S
H475 C463 0.929 . S
H476 C464 0.960 . S
H477 C464 0.962 . S
H478 C464 0.960 . S
H479 C465 0.961 . S
H480 C465 0.961 . S
H481 C465 0.961 . S
H482 C466 0.931 . S
H483 C471 0.930 . S
H484 C472 0.956 . S
H485 C472 0.961 . S
H486 C472 0.961 . S
H487 C473 0.958 . S
H488 C473 0.961 . S
H489 C473 0.960 . S
C490 C491 1.391 . S
C490 C492 1.394 . S
C490 H506 0.931 . S
C491 C490 1.391 . S
C491 C495 1.376 . S
C492 C490 1.394 . S
C492 C493 1.369 . S
C492 C496 1.531 . S
C493 C492 1.369 . S
C493 C494 1.410 . S
C493 C501 1.503 . S
C494 C493 1.410 . S
C494 C495 1.392 . S
C494 C497 1.511 . S
C495 C491 1.376 . S
C495 C494 1.392 . S
C495 H507 0.929 . S
C496 C492 1.531 . S
C496 H508 0.960 . S
C496 H509 0.962 . S
C496 H510 0.960 . S
C497 C494 1.511 . S
C497 H511 0.961 . S
C497 H512 0.961 . S
C497 H513 0.961 . S
C498 C499 1.370 . S
C498 C500 1.363 . S
C498 H514 0.931 . S
C499 C498 1.370 . S
C499 C503 1.408 . S
C500 C498 1.363 . S
C500 C501 1.370 . S
C500 C504 1.524 . S
C501 C493 1.503 . S
C501 C500 1.370 . S
C501 C502 1.403 . S
C502 C501 1.403 . S
C502 C503 1.404 . S
C502 C505 1.539 . S
C503 C499 1.408 . S
C503 C502 1.404 . S
C503 H515 0.930 . S
C504 C500 1.524 . S
C504 H516 0.956 . S
C504 H517 0.961 . S
C504 H518 0.961 . S
C505 C502 1.539 . S
C505 H519 0.958 . S
C505 H520 0.961 . S
C505 H521 0.960 . S
H506 C490 0.931 . S
H507 C495 0.929 . S
H508 C496 0.960 . S
H509 C496 0.962 . S
H510 C496 0.960 . S
H511 C497 0.961 . S
H512 C497 0.961 . S
H513 C497 0.961 . S
H514 C498 0.931 . S
H515 C503 0.930 . S
H516 C504 0.956 . S
H517 C504 0.961 . S
H518 C504 0.961 . S
H519 C505 0.958 . S
H520 C505 0.961 . S
H521 C505 0.960 . S
C522 C523 1.391 . S
C522 C524 1.394 . S
C522 H538 0.931 . S
C523 C522 1.391 . S
C523 C527 1.376 . S
C524 C522 1.394 . S
C524 C525 1.369 . S
C524 C528 1.531 . S
C525 C524 1.369 . S
C525 C526 1.410 . S
C525 C533 1.503 . S
C526 C525 1.410 . S
C526 C527 1.392 . S
C526 C529 1.511 . S
C527 C523 1.376 . S
C527 C526 1.392 . S
C527 H539 0.929 . S
C528 C524 1.531 . S
C528 H540 0.960 . S
C528 H541 0.962 . S
C528 H542 0.960 . S
C529 C526 1.511 . S
C529 H543 0.961 . S
C529 H544 0.961 . S
C529 H545 0.961 . S
C530 C531 1.370 . S
C530 C532 1.363 . S
C530 H546 0.931 . S
C531 C530 1.370 . S
C531 C535 1.408 . S
C532 C530 1.363 . S
C532 C533 1.370 . S
C532 C536 1.524 . S
C533 C525 1.503 . S
C533 C532 1.370 . S
C533 C534 1.403 . S
C534 C533 1.403 . S
C534 C535 1.404 . S
C534 C537 1.539 . S
C535 C531 1.408 . S
C535 C534 1.404 . S
C535 H547 0.930 . S
C536 C532 1.524 . S
C536 H548 0.956 . S
C536 H549 0.961 . S
C536 H550 0.961 . S
C537 C534 1.539 . S
C537 H551 0.958 . S
C537 H552 0.961 . S
C537 H553 0.960 . S
H538 C522 0.931 . S
H539 C527 0.929 . S
H540 C528 0.960 . S
H541 C528 0.962 . S
H542 C528 0.960 . S
H543 C529 0.961 . S
H544 C529 0.961 . S
H545 C529 0.961 . S
H546 C530 0.931 . S
H547 C535 0.930 . S
H548 C536 0.956 . S
H549 C536 0.961 . S
H550 C536 0.961 . S
H551 C537 0.958 . S
H552 C537 0.961 . S
H553 C537 0.960 . S
C554 C555 1.391 . S
C554 C556 1.394 . S
C554 H570 0.931 . S
C555 C554 1.391 . S
C555 C559 1.376 . S
C556 C554 1.394 . S
C556 C557 1.369 . S
C556 C560 1.531 . S
C557 C556 1.369 . S
C557 C558 1.410 . S
C557 C565 1.503 . S
C558 C557 1.410 . S
C558 C559 1.392 . S
C558 C561 1.511 . S
C559 C555 1.376 . S
C559 C558 1.392 . S
C559 H571 0.929 . S
C560 C556 1.531 . S
C560 H572 0.960 . S
C560 H573 0.962 . S
C560 H574 0.960 . S
C561 C558 1.511 . S
C561 H575 0.961 . S
C561 H576 0.961 . S
C561 H577 0.961 . S
C562 C563 1.370 . S
C562 C564 1.363 . S
C562 H578 0.931 . S
C563 C562 1.370 . S
C563 C567 1.408 . S
C564 C562 1.363 . S
C564 C565 1.370 . S
C564 C568 1.524 . S
C565 C557 1.503 . S
C565 C564 1.370 . S
C565 C566 1.403 . S
C566 C565 1.403 . S
C566 C567 1.404 . S
C566 C569 1.539 . S
C567 C563 1.408 . S
C567 C566 1.404 . S
C567 H579 0.930 . S
C568 C564 1.524 . S
C568 H580 0.956 . S
C568 H581 0.961 . S
C568 H582 0.961 . S
C569 C566 1.539 . S
C569 H583 0.958 . S
C569 H584 0.961 . S
C569 H585 0.960 . S
H570 C554 0.931 . S
H571 C559 0.929 . S
H572 C560 0.960 . S
H573 C560 0.962 . S
H574 C560 0.960 . S
H575 C561 0.961 . S
H576 C561 0.961 . S
H577 C561 0.961 . S
H578 C562 0.931 . S
H579 C567 0.930 . S
H580 C568 0.956 . S
H581 C568 0.961 . S
H582 C568 0.961 . S
H583 C569 0.958 . S
H584 C569 0.961 . S
H585 C569 0.960 . S
C586 C587 1.391 . S
C586 C588 1.394 . S
C586 H602 0.931 . S
C587 C586 1.391 . S
C587 C591 1.376 . S
C588 C586 1.394 . S
C588 C589 1.369 . S
C588 C592 1.531 . S
C589 C588 1.369 . S
C589 C590 1.410 . S
C589 C597 1.503 . S
C590 C589 1.410 . S
C590 C591 1.392 . S
C590 C593 1.511 . S
C591 C587 1.376 . S
C591 C590 1.392 . S
C591 H603 0.929 . S
C592 C588 1.531 . S
C592 H604 0.960 . S
C592 H605 0.962 . S
C592 H606 0.960 . S
C593 C590 1.511 . S
C593 H607 0.961 . S
C593 H608 0.961 . S
C593 H609 0.961 . S
C594 C595 1.370 . S
C594 C596 1.363 . S
C594 H610 0.931 . S
C595 C594 1.370 . S
C595 C599 1.408 . S
C596 C594 1.363 . S
C596 C597 1.370 . S
C596 C600 1.524 . S
C597 C589 1.503 . S
C597 C596 1.370 . S
C597 C598 1.403 . S
C598 C597 1.403 . S
C598 C599 1.404 . S
C598 C601 1.539 . S
C599 C595 1.408 . S
C599 C598 1.404 . S
C599 H611 0.930 . S
C600 C596 1.524 . S
C600 H612 0.956 . S
C600 H613 0.961 . S
C600 H614 0.961 . S
C601 C598 1.539 . S
C601 H615 0.958 . S
C601 H616 0.961 . S
C601 H617 0.960 . S
H602 C586 0.931 . S
H603 C591 0.929 . S
H604 C592 0.960 . S
H605 C592 0.962 . S
H606 C592 0.960 . S
H607 C593 0.961 . S
H608 C593 0.961 . S
H609 C593 0.961 . S
H610 C594 0.931 . S
H611 C599 0.930 . S
H612 C600 0.956 . S
H613 C600 0.961 . S
H614 C600 0.961 . S
H615 C601 0.958 . S
H616 C601 0.961 . S
H617 C601 0.960 . S
C618 C619 1.391 . S
C618 C620 1.394 . S
C618 H634 0.931 . S
C619 C618 1.391 . S
C619 C623 1.376 . S
C620 C618 1.394 . S
C620 C621 1.369 . S
C620 C624 1.531 . S
C621 C620 1.369 . S
C621 C622 1.410 . S
C621 C629 1.503 . S
C622 C621 1.410 . S
C622 C623 1.392 . S
C622 C625 1.511 . S
C623 C619 1.376 . S
C623 C622 1.392 . S
C623 H635 0.929 . S
C624 C620 1.531 . S
C624 H636 0.960 . S
C624 H637 0.962 . S
C624 H638 0.960 . S
C625 C622 1.511 . S
C625 H639 0.961 . S
C625 H640 0.961 . S
C625 H641 0.961 . S
C626 C627 1.370 . S
C626 C628 1.363 . S
C626 H642 0.931 . S
C627 C626 1.370 . S
C627 C631 1.408 . S
C628 C626 1.363 . S
C628 C629 1.370 . S
C628 C632 1.524 . S
C629 C621 1.503 . S
C629 C628 1.370 . S
C629 C630 1.403 . S
C630 C629 1.403 . S
C630 C631 1.404 . S
C630 C633 1.539 . S
C631 C627 1.408 . S
C631 C630 1.404 . S
C631 H643 0.930 . S
C632 C628 1.524 . S
C632 H644 0.956 . S
C632 H645 0.961 . S
C632 H646 0.961 . S
C633 C630 1.539 . S
C633 H647 0.958 . S
C633 H648 0.961 . S
C633 H649 0.960 . S
H634 C618 0.931 . S
H635 C623 0.929 . S
H636 C624 0.960 . S
H637 C624 0.962 . S
H638 C624 0.960 . S
H639 C625 0.961 . S
H640 C625 0.961 . S
H641 C625 0.961 . S
H642 C626 0.931 . S
H643 C631 0.930 . S
H644 C632 0.956 . S
H645 C632 0.961 . S
H646 C632 0.961 . S
H647 C633 0.958 . S
H648 C633 0.961 . S
H649 C633 0.960 . S
C650 C651 1.391 . S
C650 C652 1.394 . S
C650 H666 0.931 . S
C651 C650 1.391 . S
C651 C655 1.376 . S
C652 C650 1.394 . S
C652 C653 1.369 . S
C652 C656 1.531 . S
C653 C652 1.369 . S
C653 C654 1.410 . S
C653 C661 1.503 . S
C654 C653 1.410 . S
C654 C655 1.392 . S
C654 C657 1.511 . S
C655 C651 1.376 . S
C655 C654 1.392 . S
C655 H667 0.929 . S
C656 C652 1.531 . S
C656 H668 0.960 . S
C656 H669 0.962 . S
C656 H670 0.960 . S
C657 C654 1.511 . S
C657 H671 0.961 . S
C657 H672 0.961 . S
C657 H673 0.961 . S
C658 C659 1.370 . S
C658 C660 1.363 . S
C658 H674 0.931 . S
C659 C658 1.370 . S
C659 C663 1.408 . S
C660 C658 1.363 . S
C660 C661 1.370 . S
C660 C664 1.524 . S
C661 C653 1.503 . S
C661 C660 1.370 . S
C661 C662 1.403 . S
C662 C661 1.403 . S
C662 C663 1.404 . S
C662 C665 1.539 . S
C663 C659 1.408 . S
C663 C662 1.404 . S
C663 H675 0.930 . S
C664 C660 1.524 . S
C664 H676 0.956 . S
C664 H677 0.961 . S
C664 H678 0.961 . S
C665 C662 1.539 . S
C665 H679 0.958 . S
C665 H680 0.961 . S
C665 H681 0.960 . S
H666 C650 0.931 . S
H667 C655 0.929 . S
H668 C656 0.960 . S
H669 C656 0.962 . S
H670 C656 0.960 . S
H671 C657 0.961 . S
H672 C657 0.961 . S
H673 C657 0.961 . S
H674 C658 0.931 . S
H675 C663 0.930 . S
H676 C664 0.956 . S
H677 C664 0.961 . S
H678 C664 0.961 . S
H679 C665 0.958 . S
H680 C665 0.961 . S
H681 C665 0.960 . S
C682 C683 1.391 . S
C682 C684 1.394 . S
C682 H698 0.931 . S
C683 C682 1.391 . S
C683 C687 1.376 . S
C684 C682 1.394 . S
C684 C685 1.369 . S
C684 C688 1.531 . S
C685 C684 1.369 . S
C685 C686 1.410 . S
C685 C693 1.503 . S
C686 C685 1.410 . S
C686 C687 1.392 . S
C686 C689 1.511 . S
C687 C683 1.376 . S
C687 C686 1.392 . S
C687 H699 0.929 . S
C688 C684 1.531 . S
C688 H700 0.960 . S
C688 H701 0.962 . S
C688 H702 0.960 . S
C689 C686 1.511 . S
C689 H703 0.961 . S
C689 H704 0.961 . S
C689 H705 0.961 . S
C690 C691 1.370 . S
C690 C692 1.363 . S
C690 H706 0.931 . S
C691 C690 1.370 . S
C691 C695 1.408 . S
C692 C690 1.363 . S
C692 C693 1.370 . S
C692 C696 1.524 . S
C693 C685 1.503 . S
C693 C692 1.370 . S
C693 C694 1.403 . S
C694 C693 1.403 . S
C694 C695 1.404 . S
C694 C697 1.539 . S
C695 C691 1.408 . S
C695 C694 1.404 . S
C695 H707 0.930 . S
C696 C692 1.524 . S
C696 H708 0.956 . S
C696 H709 0.961 . S
C696 H710 0.961 . S
C697 C694 1.539 . S
C697 H711 0.958 . S
C697 H712 0.961 . S
C697 H713 0.960 . S
H698 C682 0.931 . S
H699 C687 0.929 . S
H700 C688 0.960 . S
H701 C688 0.962 . S
H702 C688 0.960 . S
H703 C689 0.961 . S
H704 C689 0.961 . S
H705 C689 0.961 . S
H706 C690 0.931 . S
H707 C695 0.930 . S
H708 C696 0.956 . S
H709 C696 0.961 . S
H710 C696 0.961 . S
H711 C697 0.958 . S
H712 C697 0.961 . S
H713 C697 0.960 . S
C714 C715 1.391 . S
C714 C716 1.394 . S
C714 H730 0.931 . S
C715 C714 1.391 . S
C715 C719 1.376 . S
C716 C714 1.394 . S
C716 C717 1.369 . S
C716 C720 1.531 . S
C717 C716 1.369 . S
C717 C718 1.410 . S
C717 C725 1.503 . S
C718 C717 1.410 . S
C718 C719 1.392 . S
C718 C721 1.511 . S
C719 C715 1.376 . S
C719 C718 1.392 . S
C719 H731 0.929 . S
C720 C716 1.531 . S
C720 H732 0.960 . S
C720 H733 0.962 . S
C720 H734 0.960 . S
C721 C718 1.511 . S
C721 H735 0.961 . S
C721 H736 0.961 . S
C721 H737 0.961 . S
C722 C723 1.370 . S
C722 C724 1.363 . S
C722 H738 0.931 . S
C723 C722 1.370 . S
C723 C727 1.408 . S
C724 C722 1.363 . S
C724 C725 1.370 . S
C724 C728 1.524 . S
C725 C717 1.503 . S
C725 C724 1.370 . S
C725 C726 1.403 . S
C726 C725 1.403 . S
C726 C727 1.404 . S
C726 C729 1.539 . S
C727 C723 1.408 . S
C727 C726 1.404 . S
C727 H739 0.930 . S
C728 C724 1.524 . S
C728 H740 0.956 . S
C728 H741 0.961 . S
C728 H742 0.961 . S
C729 C726 1.539 . S
C729 H743 0.958 . S
C729 H744 0.961 . S
C729 H745 0.960 . S
H730 C714 0.931 . S
H731 C719 0.929 . S
H732 C720 0.960 . S
H733 C720 0.962 . S
H734 C720 0.960 . S
H735 C721 0.961 . S
H736 C721 0.961 . S
H737 C721 0.961 . S
H738 C722 0.931 . S
H739 C727 0.930 . S
H740 C728 0.956 . S
H741 C728 0.961 . S
H742 C728 0.961 . S
H743 C729 0.958 . S
H744 C729 0.961 . S
H745 C729 0.960 . S
C746 C747 1.391 . S
C746 C748 1.394 . S
C746 H762 0.931 . S
C747 C746 1.391 . S
C747 C751 1.376 . S
C748 C746 1.394 . S
C748 C749 1.369 . S
C748 C752 1.531 . S
C749 C748 1.369 . S
C749 C750 1.410 . S
C749 C757 1.503 . S
C750 C749 1.410 . S
C750 C751 1.392 . S
C750 C753 1.511 . S
C751 C747 1.376 . S
C751 C750 1.392 . S
C751 H763 0.929 . S
C752 C748 1.531 . S
C752 H764 0.960 . S
C752 H765 0.962 . S
C752 H766 0.960 . S
C753 C750 1.511 . S
C753 H767 0.961 . S
C753 H768 0.961 . S
C753 H769 0.961 . S
C754 C755 1.370 . S
C754 C756 1.363 . S
C754 H770 0.931 . S
C755 C754 1.370 . S
C755 C759 1.408 . S
C756 C754 1.363 . S
C756 C757 1.370 . S
C756 C760 1.524 . S
C757 C749 1.503 . S
C757 C756 1.370 . S
C757 C758 1.403 . S
C758 C757 1.403 . S
C758 C759 1.404 . S
C758 C761 1.539 . S
C759 C755 1.408 . S
C759 C758 1.404 . S
C759 H771 0.930 . S
C760 C756 1.524 . S
C760 H772 0.956 . S
C760 H773 0.961 . S
C760 H774 0.961 . S
C761 C758 1.539 . S
C761 H775 0.958 . S
C761 H776 0.961 . S
C761 H777 0.960 . S
H762 C746 0.931 . S
H763 C751 0.929 . S
H764 C752 0.960 . S
H765 C752 0.962 . S
H766 C752 0.960 . S
H767 C753 0.961 . S
H768 C753 0.961 . S
H769 C753 0.961 . S
H770 C754 0.931 . S
H771 C759 0.930 . S
H772 C760 0.956 . S
H773 C760 0.961 . S
H774 C760 0.961 . S
H775 C761 0.958 . S
H776 C761 0.961 . S
H777 C761 0.960 . S
C778 C779 1.391 . S
C778 C780 1.394 . S
C778 H794 0.931 . S
C779 C778 1.391 . S
C779 C783 1.376 . S
C780 C778 1.394 . S
C780 C781 1.369 . S
C780 C784 1.531 . S
C781 C780 1.369 . S
C781 C782 1.410 . S
C781 C789 1.503 . S
C782 C781 1.410 . S
C782 C783 1.392 . S
C782 C785 1.511 . S
C783 C779 1.376 . S
C783 C782 1.392 . S
C783 H795 0.929 . S
C784 C780 1.531 . S
C784 H796 0.960 . S
C784 H797 0.962 . S
C784 H798 0.960 . S
C785 C782 1.511 . S
C785 H799 0.961 . S
C785 H800 0.961 . S
C785 H801 0.961 . S
C786 C787 1.370 . S
C786 C788 1.363 . S
C786 H802 0.931 . S
C787 C786 1.370 . S
C787 C791 1.408 . S
C788 C786 1.363 . S
C788 C789 1.370 . S
C788 C792 1.524 . S
C789 C781 1.503 . S
C789 C788 1.370 . S
C789 C790 1.403 . S
C790 C789 1.403 . S
C790 C791 1.404 . S
C790 C793 1.539 . S
C791 C787 1.408 . S
C791 C790 1.404 . S
C791 H803 0.930 . S
C792 C788 1.524 . S
C792 H804 0.956 . S
C792 H805 0.961 . S
C792 H806 0.961 . S
C793 C790 1.539 . S
C793 H807 0.958 . S
C793 H808 0.961 . S
C793 H809 0.960 . S
H794 C778 0.931 . S
H795 C783 0.929 . S
H796 C784 0.960 . S
H797 C784 0.962 . S
H798 C784 0.960 . S
H799 C785 0.961 . S
H800 C785 0.961 . S
H801 C785 0.961 . S
H802 C786 0.931 . S
H803 C791 0.930 . S
H804 C792 0.956 . S
H805 C792 0.961 . S
H806 C792 0.961 . S
H807 C793 0.958 . S
H808 C793 0.961 . S
H809 C793 0.960 . S
C810 C811 1.391 . S
C810 C812 1.394 . S
C810 H826 0.931 . S
C811 C810 1.391 . S
C811 C815 1.376 . S
C812 C810 1.394 . S
C812 C813 1.369 . S
C812 C816 1.531 . S
C813 C812 1.369 . S
C813 C814 1.410 . S
C813 C821 1.503 . S
C814 C813 1.410 . S
C814 C815 1.392 . S
C814 C817 1.511 . S
C815 C811 1.376 . S
C815 C814 1.392 . S
C815 H827 0.929 . S
C816 C812 1.531 . S
C816 H828 0.960 . S
C816 H829 0.962 . S
C816 H830 0.964 . S
C817 C814 1.511 . S
C817 H831 0.961 . S
C817 H832 0.961 . S
C817 H833 0.961 . S
C818 C819 1.370 . S
C818 C820 1.363 . S
C818 H834 0.931 . S
C819 C818 1.370 . S
C819 C823 1.408 . S
C820 C818 1.363 . S
C820 C821 1.370 . S
C820 C824 1.524 . S
C821 C813 1.503 . S
C821 C820 1.370 . S
C821 C822 1.403 . S
C822 C821 1.403 . S
C822 C823 1.404 . S
C822 C825 1.539 . S
C823 C819 1.408 . S
C823 C822 1.404 . S
C823 H835 0.930 . S
C824 C820 1.524 . S
C824 H836 0.956 . S
C824 H837 0.961 . S
C824 H838 0.961 . S
C825 C822 1.539 . S
C825 H839 0.958 . S
C825 H840 0.961 . S
C825 H841 0.960 . S
H826 C810 0.931 . S
H827 C815 0.929 . S
H828 C816 0.960 . S
H829 C816 0.962 . S
H830 C816 0.964 . S
H831 C817 0.961 . S
H832 C817 0.961 . S
H833 C817 0.961 . S
H834 C818 0.931 . S
H835 C823 0.930 . S
H836 C824 0.956 . S
H837 C824 0.961 . S
H838 C824 0.961 . S
H839 C825 0.958 . S
H840 C825 0.961 . S
H841 C825 0.960 . S
C842 C843 1.391 . S
C842 C844 1.394 . S
C842 H858 0.931 . S
C843 C842 1.391 . S
C843 C847 1.376 . S
C844 C842 1.394 . S
C844 C845 1.369 . S
C844 C848 1.531 . S
C845 C844 1.369 . S
C845 C846 1.410 . S
C845 C853 1.503 . S
C846 C845 1.410 . S
C846 C847 1.392 . S
C846 C849 1.511 . S
C847 C843 1.376 . S
C847 C846 1.392 . S
C847 H859 0.929 . S
C848 C844 1.531 . S
C848 H860 0.960 . S
C848 H861 0.962 . S
C848 H862 0.960 . S
C849 C846 1.511 . S
C849 H863 0.961 . S
C849 H864 0.961 . S
C849 H865 0.961 . S
C850 C851 1.370 . S
C850 C852 1.363 . S
C850 H866 0.931 . S
C851 C850 1.370 . S
C851 C855 1.408 . S
C852 C850 1.363 . S
C852 C853 1.370 . S
C852 C856 1.524 . S
C853 C845 1.503 . S
C853 C852 1.370 . S
C853 C854 1.403 . S
C854 C853 1.403 . S
C854 C855 1.404 . S
C854 C857 1.539 . S
C855 C851 1.408 . S
C855 C854 1.404 . S
C855 H867 0.930 . S
C856 C852 1.524 . S
C856 H868 0.956 . S
C856 H869 0.961 . S
C856 H870 0.961 . S
C857 C854 1.539 . S
C857 H871 0.958 . S
C857 H872 0.961 . S
C857 H873 0.960 . S
H858 C842 0.931 . S
H859 C847 0.929 . S
H860 C848 0.960 . S
H861 C848 0.962 . S
H862 C848 0.960 . S
H863 C849 0.961 . S
H864 C849 0.961 . S
H865 C849 0.961 . S
H866 C850 0.931 . S
H867 C855 0.930 . S
H868 C856 0.956 . S
H869 C856 0.961 . S
H870 C856 0.961 . S
H871 C857 0.958 . S
H872 C857 0.961 . S
H873 C857 0.960 . S
C874 C875 1.391 . S
C874 C876 1.394 . S
C874 H890 0.931 . S
C875 C874 1.391 . S
C875 C879 1.376 . S
C876 C874 1.394 . S
C876 C877 1.369 . S
C876 C880 1.531 . S
C877 C876 1.369 . S
C877 C878 1.410 . S
C877 C885 1.503 . S
C878 C877 1.410 . S
C878 C879 1.392 . S
C878 C881 1.511 . S
C879 C875 1.376 . S
C879 C878 1.392 . S
C879 H891 0.929 . S
C880 C876 1.531 . S
C880 H892 0.960 . S
C880 H893 0.962 . S
C880 H894 0.960 . S
C881 C878 1.511 . S
C881 H895 0.961 . S
C881 H896 0.961 . S
C881 H897 0.961 . S
C882 C883 1.370 . S
C882 C884 1.363 . S
C882 H898 0.931 . S
C883 C882 1.370 . S
C883 C887 1.408 . S
C884 C882 1.363 . S
C884 C885 1.370 . S
C884 C888 1.524 . S
C885 C877 1.503 . S
C885 C884 1.370 . S
C885 C886 1.403 . S
C886 C885 1.403 . S
C886 C887 1.404 . S
C886 C889 1.539 . S
C887 C883 1.408 . S
C887 C886 1.404 . S
C887 H899 0.930 . S
C888 C884 1.524 . S
C888 H900 0.956 . S
C888 H901 0.961 . S
C888 H902 0.961 . S
C889 C886 1.539 . S
C889 H903 0.958 . S
C889 H904 0.961 . S
C889 H905 0.960 . S
H890 C874 0.931 . S
H891 C879 0.929 . S
H892 C880 0.960 . S
H893 C880 0.962 . S
H894 C880 0.960 . S
H895 C881 0.961 . S
H896 C881 0.961 . S
H897 C881 0.961 . S
H898 C882 0.931 . S
H899 C887 0.930 . S
H900 C888 0.956 . S
H901 C888 0.961 . S
H902 C888 0.961 . S
H903 C889 0.958 . S
H904 C889 0.961 . S
H905 C889 0.960 . S
C906 C907 1.391 . S
C906 C908 1.394 . S
C906 H922 0.931 . S
C907 C906 1.391 . S
C907 C911 1.376 . S
C908 C906 1.394 . S
C908 C909 1.369 . S
C908 C912 1.531 . S
C909 C908 1.369 . S
C909 C910 1.410 . S
C909 C917 1.503 . S
C910 C909 1.410 . S
C910 C911 1.392 . S
C910 C913 1.511 . S
C911 C907 1.376 . S
C911 C910 1.392 . S
C911 H923 0.929 . S
C912 C908 1.531 . S
C912 H924 0.960 . S
C912 H925 0.962 . S
C912 H926 0.960 . S
C913 C910 1.511 . S
C913 H927 0.961 . S
C913 H928 0.961 . S
C913 H929 0.961 . S
C914 C915 1.370 . S
C914 C916 1.363 . S
C914 H930 0.931 . S
C915 C914 1.370 . S
C915 C919 1.408 . S
C916 C914 1.363 . S
C916 C917 1.370 . S
C916 C920 1.524 . S
C917 C909 1.503 . S
C917 C916 1.370 . S
C917 C918 1.403 . S
C918 C917 1.403 . S
C918 C919 1.404 . S
C918 C921 1.539 . S
C919 C915 1.408 . S
C919 C918 1.404 . S
C919 H931 0.930 . S
C920 C916 1.524 . S
C920 H932 0.956 . S
C920 H933 0.961 . S
C920 H934 0.961 . S
C921 C918 1.539 . S
C921 H935 0.958 . S
C921 H936 0.961 . S
C921 H937 0.960 . S
H922 C906 0.931 . S
H923 C911 0.929 . S
H924 C912 0.960 . S
H925 C912 0.962 . S
H926 C912 0.960 . S
H927 C913 0.961 . S
H928 C913 0.961 . S
H929 C913 0.961 . S
H930 C914 0.931 . S
H931 C919 0.930 . S
H932 C920 0.956 . S
H933 C920 0.961 . S
H934 C920 0.961 . S
H935 C921 0.958 . S
H936 C921 0.961 . S
H937 C921 0.960 . S
C938 C939 1.391 . S
C938 C940 1.394 . S
C938 H954 0.931 . S
C939 C938 1.391 . S
C939 C943 1.376 . S
C940 C938 1.394 . S
C940 C941 1.369 . S
C940 C944 1.531 . S
C941 C940 1.369 . S
C941 C942 1.410 . S
C941 C949 1.503 . S
C942 C941 1.410 . S
C942 C943 1.392 . S
C942 C945 1.511 . S
C943 C939 1.376 . S
C943 C942 1.392 . S
C943 H955 0.929 . S
C944 C940 1.531 . S
C944 H956 0.960 . S
C944 H957 0.962 . S
C944 H958 0.960 . S
C945 C942 1.511 . S
C945 H959 0.961 . S
C945 H960 0.961 . S
C945 H961 0.961 . S
C946 C947 1.370 . S
C946 C948 1.363 . S
C946 H962 0.931 . S
C947 C946 1.370 . S
C947 C951 1.408 . S
C948 C946 1.363 . S
C948 C949 1.370 . S
C948 C952 1.524 . S
C949 C941 1.503 . S
C949 C948 1.370 . S
C949 C950 1.403 . S
C950 C949 1.403 . S
C950 C951 1.404 . S
C950 C953 1.539 . S
C951 C947 1.408 . S
C951 C950 1.404 . S
C951 H963 0.930 . S
C952 C948 1.524 . S
C952 H964 0.956 . S
C952 H965 0.961 . S
C952 H966 0.961 . S
C953 C950 1.539 . S
C953 H967 0.958 . S
C953 H968 0.961 . S
C953 H969 0.960 . S
H954 C938 0.931 . S
H955 C943 0.929 . S
H956 C944 0.960 . S
H957 C944 0.962 . S
H958 C944 0.960 . S
H959 C945 0.961 . S
H960 C945 0.961 . S
H961 C945 0.961 . S
H962 C946 0.931 . S
H963 C951 0.930 . S
H964 C952 0.956 . S
H965 C952 0.961 . S
H966 C952 0.961 . S
H967 C953 0.958 . S
H968 C953 0.961 . S
H969 C953 0.960 . S
C970 C971 1.391 . S
C970 C972 1.394 . S
C970 H986 0.931 . S
C971 C970 1.391 . S
C971 C975 1.376 . S
C972 C970 1.394 . S
C972 C973 1.369 . S
C972 C976 1.531 . S
C973 C972 1.369 . S
C973 C974 1.410 . S
C973 C981 1.503 . S
C974 C973 1.410 . S
C974 C975 1.392 . S
C974 C977 1.511 . S
C975 C971 1.376 . S
C975 C974 1.392 . S
C975 H987 0.929 . S
C976 C972 1.531 . S
C976 H988 0.960 . S
C976 H989 0.962 . S
C976 H990 0.960 . S
C977 C974 1.511 . S
C977 H991 0.961 . S
C977 H992 0.961 . S
C977 H993 0.961 . S
C978 C979 1.370 . S
C978 C980 1.363 . S
C978 H994 0.931 . S
C979 C978 1.370 . S
C979 C983 1.408 . S
C980 C978 1.363 . S
C980 C981 1.370 . S
C980 C984 1.524 . S
C981 C973 1.503 . S
C981 C980 1.370 . S
C981 C982 1.403 . S
C982 C981 1.403 . S
C982 C983 1.404 . S
C982 C985 1.539 . S
C983 C979 1.408 . S
C983 C982 1.404 . S
C983 H995 0.930 . S
C984 C980 1.524 . S
C984 H996 0.956 . S
C984 H997 0.961 . S
C984 H998 0.961 . S
C985 C982 1.539 . S
C985 H999 0.958 . S
C985 H1000 0.961 . S
C985 H1001 0.960 . S
H986 C970 0.931 . S
H987 C975 0.929 . S
H988 C976 0.960 . S
H989 C976 0.962 . S
H990 C976 0.960 . S
H991 C977 0.961 . S
H992 C977 0.961 . S
H993 C977 0.961 . S
H994 C978 0.931 . S
H995 C983 0.930 . S
H996 C984 0.956 . S
H997 C984 0.961 . S
H998 C984 0.961 . S
H999 C985 0.958 . S
H1000 C985 0.961 . S
H1001 C985 0.960 . S
C1002 C1003 1.391 . S
C1002 C1004 1.394 . S
C1002 H1018 0.931 . S
C1003 C1002 1.391 . S
C1003 C1007 1.376 . S
C1004 C1002 1.394 . S
C1004 C1005 1.369 . S
C1004 C1008 1.531 . S
C1005 C1004 1.369 . S
C1005 C1006 1.410 . S
C1005 C1013 1.503 . S
C1006 C1005 1.410 . S
C1006 C1007 1.392 . S
C1006 C1009 1.511 . S
C1007 C1003 1.376 . S
C1007 C1006 1.392 . S
C1007 H1019 0.929 . S
C1008 C1004 1.531 . S
C1008 H1020 0.960 . S
C1008 H1021 0.962 . S
C1008 H1022 0.960 . S
C1009 C1006 1.511 . S
C1009 H1023 0.961 . S
C1009 H1024 0.961 . S
C1009 H1025 0.961 . S
C1010 C1011 1.370 . S
C1010 C1012 1.363 . S
C1010 H1026 0.931 . S
C1011 C1010 1.370 . S
C1011 C1015 1.408 . S
C1012 C1010 1.363 . S
C1012 C1013 1.370 . S
C1012 C1016 1.524 . S
C1013 C1005 1.503 . S
C1013 C1012 1.370 . S
C1013 C1014 1.403 . S
C1014 C1013 1.403 . S
C1014 C1015 1.404 . S
C1014 C1017 1.539 . S
C1015 C1011 1.408 . S
C1015 C1014 1.404 . S
C1015 H1027 0.930 . S
C1016 C1012 1.524 . S
C1016 H1028 0.956 . S
C1016 H1029 0.961 . S
C1016 H1030 0.961 . S
C1017 C1014 1.539 . S
C1017 H1031 0.958 . S
C1017 H1032 0.961 . S
C1017 H1033 0.960 . S
H1018 C1002 0.931 . S
H1019 C1007 0.929 . S
H1020 C1008 0.960 . S
H1021 C1008 0.962 . S
H1022 C1008 0.960 . S
H1023 C1009 0.961 . S
H1024 C1009 0.961 . S
H1025 C1009 0.961 . S
H1026 C1010 0.931 . S
H1027 C1015 0.930 . S
H1028 C1016 0.956 . S
H1029 C1016 0.961 . S
H1030 C1016 0.961 . S
H1031 C1017 0.958 . S
H1032 C1017 0.961 . S
H1033 C1017 0.960 . S
C1034 C1035 1.391 . S
C1034 C1036 1.394 . S
C1034 H1050 0.931 . S
C1035 C1034 1.391 . S
C1035 C1039 1.376 . S
C1036 C1034 1.394 . S
C1036 C1037 1.369 . S
C1036 C1040 1.531 . S
C1037 C1036 1.369 . S
C1037 C1038 1.410 . S
C1037 C1045 1.503 . S
C1038 C1037 1.410 . S
C1038 C1039 1.392 . S
C1038 C1041 1.511 . S
C1039 C1035 1.376 . S
C1039 C1038 1.392 . S
C1039 H1051 0.929 . S
C1040 C1036 1.531 . S
C1040 H1052 0.960 . S
C1040 H1053 0.962 . S
C1040 H1054 0.960 . S
C1041 C1038 1.511 . S
C1041 H1055 0.961 . S
C1041 H1056 0.961 . S
C1041 H1057 0.961 . S
C1042 C1043 1.370 . S
C1042 C1044 1.363 . S
C1042 H1058 0.931 . S
C1043 C1042 1.370 . S
C1043 C1047 1.408 . S
C1044 C1042 1.363 . S
C1044 C1045 1.370 . S
C1044 C1048 1.524 . S
C1045 C1037 1.503 . S
C1045 C1044 1.370 . S
C1045 C1046 1.403 . S
C1046 C1045 1.403 . S
C1046 C1047 1.404 . S
C1046 C1049 1.539 . S
C1047 C1043 1.408 . S
C1047 C1046 1.404 . S
C1047 H1059 0.930 . S
C1048 C1044 1.524 . S
C1048 H1060 0.956 . S
C1048 H1061 0.961 . S
C1048 H1062 0.961 . S
C1049 C1046 1.539 . S
C1049 H1063 0.958 . S
C1049 H1064 0.961 . S
C1049 H1065 0.960 . S
H1050 C1034 0.931 . S
H1051 C1039 0.929 . S
H1052 C1040 0.960 . S
H1053 C1040 0.962 . S
H1054 C1040 0.960 . S
H1055 C1041 0.961 . S
H1056 C1041 0.961 . S
H1057 C1041 0.961 . S
H1058 C1042 0.931 . S
H1059 C1047 0.930 . S
H1060 C1048 0.956 . S
H1061 C1048 0.961 . S
H1062 C1048 0.961 . S
H1063 C1049 0.958 . S
H1064 C1049 0.961 . S
H1065 C1049 0.960 . S
C1066 C1067 1.391 . S
C1066 C1068 1.394 . S
C1066 H1082 0.931 . S
C1067 C1066 1.391 . S
C1067 C1071 1.376 . S
C1068 C1066 1.394 . S
C1068 C1069 1.369 . S
C1068 C1072 1.531 . S
C1069 C1068 1.369 . S
C1069 C1070 1.410 . S
C1069 C1077 1.503 . S
C1070 C1069 1.410 . S
C1070 C1071 1.392 . S
C1070 C1073 1.511 . S
C1071 C1067 1.376 . S
C1071 C1070 1.392 . S
C1071 H1083 0.929 . S
C1072 C1068 1.531 . S
C1072 H1084 0.960 . S
C1072 H1085 0.962 . S
C1072 H1086 0.960 . S
C1073 C1070 1.511 . S
C1073 H1087 0.961 . S
C1073 H1088 0.961 . S
C1073 H1089 0.961 . S
C1074 C1075 1.370 . S
C1074 C1076 1.363 . S
C1074 H1090 0.931 . S
C1075 C1074 1.370 . S
C1075 C1079 1.408 . S
C1076 C1074 1.363 . S
C1076 C1077 1.370 . S
C1076 C1080 1.524 . S
C1077 C1069 1.503 . S
C1077 C1076 1.370 . S
C1077 C1078 1.403 . S
C1078 C1077 1.403 . S
C1078 C1079 1.404 . S
C1078 C1081 1.539 . S
C1079 C1075 1.408 . S
C1079 C1078 1.404 . S
C1079 H1091 0.930 . S
C1080 C1076 1.524 . S
C1080 H1092 0.956 . S
C1080 H1093 0.961 . S
C1080 H1094 0.961 . S
C1081 C1078 1.539 . S
C1081 H1095 0.958 . S
C1081 H1096 0.961 . S
C1081 H1097 0.960 . S
H1082 C1066 0.931 . S
H1083 C1071 0.929 . S
H1084 C1072 0.960 . S
H1085 C1072 0.962 . S
H1086 C1072 0.960 . S
H1087 C1073 0.961 . S
H1088 C1073 0.961 . S
H1089 C1073 0.961 . S
H1090 C1074 0.931 . S
H1091 C1079 0.930 . S
H1092 C1080 0.956 . S
H1093 C1080 0.961 . S
H1094 C1080 0.961 . S
H1095 C1081 0.958 . S
H1096 C1081 0.961 . S
H1097 C1081 0.960 . S
C1098 C1099 1.391 . S
C1098 C1100 1.394 . S
C1098 H1114 0.931 . S
C1099 C1098 1.391 . S
C1099 C1103 1.376 . S
C1100 C1098 1.394 . S
C1100 C1101 1.369 . S
C1100 C1104 1.531 . S
C1101 C1100 1.369 . S
C1101 C1102 1.410 . S
C1101 C1109 1.503 . S
C1102 C1101 1.410 . S
C1102 C1103 1.392 . S
C1102 C1105 1.511 . S
C1103 C1099 1.376 . S
C1103 C1102 1.392 . S
C1103 H1115 0.929 . S
C1104 C1100 1.531 . S
C1104 H1116 0.960 . S
C1104 H1117 0.962 . S
C1104 H1118 0.960 . S
C1105 C1102 1.511 . S
C1105 H1119 0.961 . S
C1105 H1120 0.961 . S
C1105 H1121 0.961 . S
C1106 C1107 1.370 . S
C1106 C1108 1.363 . S
C1106 H1122 0.931 . S
C1107 C1106 1.370 . S
C1107 C1111 1.408 . S
C1108 C1106 1.363 . S
C1108 C1109 1.370 . S
C1108 C1112 1.524 . S
C1109 C1101 1.503 . S
C1109 C1108 1.370 . S
C1109 C1110 1.403 . S
C1110 C1109 1.403 . S
C1110 C1111 1.404 . S
C1110 C1113 1.539 . S
C1111 C1107 1.408 . S
C1111 C1110 1.404 . S
C1111 H1123 0.930 . S
C1112 C1108 1.524 . S
C1112 H1124 0.956 . S
C1112 H1125 0.961 . S
C1112 H1126 0.961 . S
C1113 C1110 1.539 . S
C1113 H1127 0.958 . S
C1113 H1128 0.961 . S
C1113 H1129 0.960 . S
H1114 C1098 0.931 . S
H1115 C1103 0.929 . S
H1116 C1104 0.960 . S
H1117 C1104 0.962 . S
H1118 C1104 0.960 . S
H1119 C1105 0.961 . S
H1120 C1105 0.961 . S
H1121 C1105 0.961 . S
H1122 C1106 0.931 . S
H1123 C1111 0.930 . S
H1124 C1112 0.956 . S
H1125 C1112 0.961 . S
H1126 C1112 0.961 . S
H1127 C1113 0.958 . S
H1128 C1113 0.961 . S
H1129 C1113 0.960 . S
C1130 C1131 1.391 . S
C1130 C1132 1.394 . S
C1130 H1146 0.931 . S
C1131 C1130 1.391 . S
C1131 C1135 1.376 . S
C1132 C1130 1.394 . S
C1132 C1133 1.369 . S
C1132 C1136 1.531 . S
C1133 C1132 1.369 . S
C1133 C1134 1.410 . S
C1133 C1141 1.503 . S
C1134 C1133 1.410 . S
C1134 C1135 1.392 . S
C1134 C1137 1.511 . S
C1135 C1131 1.376 . S
C1135 C1134 1.392 . S
C1135 H1147 0.929 . S
C1136 C1132 1.531 . S
C1136 H1148 0.960 . S
C1136 H1149 0.962 . S
C1136 H1150 0.960 . S
C1137 C1134 1.511 . S
C1137 H1151 0.961 . S
C1137 H1152 0.961 . S
C1137 H1153 0.961 . S
C1138 C1139 1.370 . S
C1138 C1140 1.363 . S
C1138 H1154 0.931 . S
C1139 C1138 1.370 . S
C1139 C1143 1.408 . S
C1140 C1138 1.363 . S
C1140 C1141 1.370 . S
C1140 C1144 1.524 . S
C1141 C1133 1.503 . S
C1141 C1140 1.370 . S
C1141 C1142 1.403 . S
C1142 C1141 1.403 . S
C1142 C1143 1.404 . S
C1142 C1145 1.539 . S
C1143 C1139 1.408 . S
C1143 C1142 1.404 . S
C1143 H1155 0.930 . S
C1144 C1140 1.524 . S
C1144 H1156 0.956 . S
C1144 H1157 0.961 . S
C1144 H1158 0.961 . S
C1145 C1142 1.539 . S
C1145 H1159 0.958 . S
C1145 H1160 0.961 . S
C1145 H1161 0.960 . S
H1146 C1130 0.931 . S
H1147 C1135 0.929 . S
H1148 C1136 0.960 . S
H1149 C1136 0.962 . S
H1150 C1136 0.960 . S
H1151 C1137 0.961 . S
H1152 C1137 0.961 . S
H1153 C1137 0.961 . S
H1154 C1138 0.931 . S
H1155 C1143 0.930 . S
H1156 C1144 0.956 . S
H1157 C1144 0.961 . S
H1158 C1144 0.961 . S
H1159 C1145 0.958 . S
H1160 C1145 0.961 . S
H1161 C1145 0.960 . S
C1162 C1163 1.391 . S
C1162 C1164 1.394 . S
C1162 H1178 0.931 . S
C1163 C1162 1.391 . S
C1163 C1167 1.376 . S
C1164 C1162 1.394 . S
C1164 C1165 1.369 . S
C1164 C1168 1.531 . S
C1165 C1164 1.369 . S
C1165 C1166 1.410 . S
C1165 C1173 1.503 . S
C1166 C1165 1.410 . S
C1166 C1167 1.392 . S
C1166 C1169 1.511 . S
C1167 C1163 1.376 . S
C1167 C1166 1.392 . S
C1167 H1179 0.929 . S
C1168 C1164 1.531 . S
C1168 H1180 0.960 . S
C1168 H1181 0.962 . S
C1168 H1182 0.960 . S
C1169 C1166 1.511 . S
C1169 H1183 0.961 . S
C1169 H1184 0.961 . S
C1169 H1185 0.961 . S
C1170 C1171 1.370 . S
C1170 C1172 1.363 . S
C1170 H1186 0.931 . S
C1171 C1170 1.370 . S
C1171 C1175 1.408 . S
C1172 C1170 1.363 . S
C1172 C1173 1.370 . S
C1172 C1176 1.524 . S
C1173 C1165 1.503 . S
C1173 C1172 1.370 . S
C1173 C1174 1.403 . S
C1174 C1173 1.403 . S
C1174 C1175 1.404 . S
C1174 C1177 1.539 . S
C1175 C1171 1.408 . S
C1175 C1174 1.404 . S
C1175 H1187 0.930 . S
C1176 C1172 1.524 . S
C1176 H1188 0.956 . S
C1176 H1189 0.961 . S
C1176 H1190 0.961 . S
C1177 C1174 1.539 . S
C1177 H1191 0.958 . S
C1177 H1192 0.961 . S
C1177 H1193 0.960 . S
H1178 C1162 0.931 . S
H1179 C1167 0.929 . S
H1180 C1168 0.960 . S
H1181 C1168 0.962 . S
H1182 C1168 0.960 . S
H1183 C1169 0.961 . S
H1184 C1169 0.961 . S
H1185 C1169 0.961 . S
H1186 C1170 0.931 . S
H1187 C1175 0.930 . S
H1188 C1176 0.956 . S
H1189 C1176 0.961 . S
H1190 C1176 0.961 . S
H1191 C1177 0.958 . S
H1192 C1177 0.961 . S
H1193 C1177 0.960 . S
C427 C39 1.678 . S
C435 C332 1.571 . S
C459 C91 1.630 . S
C467 C343 1.580 . S
C499 C362 1.424 . S
C491 C128 1.482 . S
C531 C379 1.397 . S
C523 C188 1.444 . S
C563 C406 1.505 . S
C555 C250 1.528 . S
C595 C415 1.546 . S
C587 C304 1.634 . S
C619 C75 1.566 . S
C627 C368 1.486 . S
C651 C144 1.664 . S
C659 C388 1.603 . S
C691 C397 1.531 . S
C683 C198 1.609 . S
C723 C424 1.415 . S
C715 C234 1.477 . S
C747 C294 1.432 . S
C755 C326 1.381 . S
C787 C352 1.433 . S
C779 C29 1.479 . S
C819 C380 1.624 . S
C811 C38 1.706 . S
C843 C92 1.673 . S
C851 C404 1.612 . S
C883 C416 1.454 . S
C875 C135 1.532 . S
C907 C181 1.497 . S
C915 C334 1.414 . S
C939 C251 1.563 . S
C947 C344 1.527 . S
C971 C303 1.688 . S
C979 C361 1.565 . S
C1003 C82 1.606 . S
C1011 C422 1.526 . S
C1043 C325 1.607 . S
C1035 C145 1.704 . S
C1067 C197 1.647 . S
C1075 C350 1.589 . S
C1099 C241 1.519 . S
C1107 C370 1.423 . S
C1131 C287 1.480 . S
C1139 C386 1.428 . S
C1163 C22 1.516 . S
C1171 C398 1.447 . S
