# Generated by pormake.
# Topology pto, (3,4)-cn, num edge types: 1
# Building blocks:
#     Node 0, Type 0, BuildingBlock: CUQRIR_clean_linker_1, # of connection points: 3
#     Node 1, Type 0, BuildingBlock: CUQRIR_clean_linker_1, # of connection points: 3
#     Node 2, Type 0, BuildingBlock: CUQRIR_clean_linker_1, # of connection points: 3
#     Node 3, Type 0, BuildingBlock: CUQRIR_clean_linker_1, # of connection points: 3
#     Node 4, Type 0, BuildingBlock: CUQRIR_clean_linker_1, # of connection points: 3
#     Node 5, Type 0, BuildingBlock: CUQRIR_clean_linker_1, # of connection points: 3
#     Node 6, Type 0, BuildingBlock: CUQRIR_clean_linker_1, # of connection points: 3
#     Node 7, Type 0, BuildingBlock: CUQRIR_clean_linker_1, # of connection points: 3
#     Node 8, Type 1, BuildingBlock: NAWXER_clean_sbu_0, # of connection points: 4
#     Node 9, Type 1, BuildingBlock: NAWXER_clean_sbu_0, # of connection points: 4
#     Node 10, Type 1, BuildingBlock: NAWXER_clean_sbu_0, # of connection points: 4
#     Node 11, Type 1, BuildingBlock: NAWXER_clean_sbu_0, # of connection points: 4
#     Node 12, Type 1, BuildingBlock: NAWXER_clean_sbu_0, # of connection points: 4
#     Node 13, Type 1, BuildingBlock: NAWXER_clean_sbu_0, # of connection points: 4
#     Edge 14, Type (0, 1), BuildingBlock: MIFKUJ_clean_linker_0, # of connection points: 2
#     Edge 15, Type (0, 1), BuildingBlock: MIFKUJ_clean_linker_0, # of connection points: 2
#     Edge 16, Type (0, 1), BuildingBlock: MIFKUJ_clean_linker_0, # of connection points: 2
#     Edge 17, Type (0, 1), BuildingBlock: MIFKUJ_clean_linker_0, # of connection points: 2
#     Edge 18, Type (0, 1), BuildingBlock: MIFKUJ_clean_linker_0, # of connection points: 2
#     Edge 19, Type (0, 1), BuildingBlock: MIFKUJ_clean_linker_0, # of connection points: 2
#     Edge 20, Type (0, 1), BuildingBlock: MIFKUJ_clean_linker_0, # of connection points: 2
#     Edge 21, Type (0, 1), BuildingBlock: MIFKUJ_clean_linker_0, # of connection points: 2
#     Edge 22, Type (0, 1), BuildingBlock: MIFKUJ_clean_linker_0, # of connection points: 2
#     Edge 23, Type (0, 1), BuildingBlock: MIFKUJ_clean_linker_0, # of connection points: 2
#     Edge 24, Type (0, 1), BuildingBlock: MIFKUJ_clean_linker_0, # of connection points: 2
#     Edge 25, Type (0, 1), BuildingBlock: MIFKUJ_clean_linker_0, # of connection points: 2
#     Edge 26, Type (0, 1), BuildingBlock: MIFKUJ_clean_linker_0, # of connection points: 2
#     Edge 27, Type (0, 1), BuildingBlock: MIFKUJ_clean_linker_0, # of connection points: 2
#     Edge 28, Type (0, 1), BuildingBlock: MIFKUJ_clean_linker_0, # of connection points: 2
#     Edge 29, Type (0, 1), BuildingBlock: MIFKUJ_clean_linker_0, # of connection points: 2
#     Edge 30, Type (0, 1), BuildingBlock: MIFKUJ_clean_linker_0, # of connection points: 2
#     Edge 31, Type (0, 1), BuildingBlock: MIFKUJ_clean_linker_0, # of connection points: 2
#     Edge 32, Type (0, 1), BuildingBlock: MIFKUJ_clean_linker_0, # of connection points: 2
#     Edge 33, Type (0, 1), BuildingBlock: MIFKUJ_clean_linker_0, # of connection points: 2
#     Edge 34, Type (0, 1), BuildingBlock: MIFKUJ_clean_linker_0, # of connection points: 2
#     Edge 35, Type (0, 1), BuildingBlock: MIFKUJ_clean_linker_0, # of connection points: 2
#     Edge 36, Type (0, 1), BuildingBlock: MIFKUJ_clean_linker_0, # of connection points: 2
#     Edge 37, Type (0, 1), BuildingBlock: MIFKUJ_clean_linker_0, # of connection points: 2
# Relax obj value: 0.020
# Max RMSD: 0.157
# Mean RMSD: 0.075
data_MOF--net-pto--node1-NAWXER_clean_sbu_0--node2-CUQRIR_clean_linker_1--edge1-MIFKUJ_clean_linker_0
_symmetry_space_group_name_H-M    P1
_symmetry_Int_Tables_number       1
_symmetry_cell_setting            triclinic
loop_
_symmetry_equiv_pos_as_xyz
'x, y, z'
_cell_length_a     53.208598
_cell_length_b     49.149405
_cell_length_c     46.085452
_cell_angle_alpha  78.876617
_cell_angle_beta   95.373689
_cell_angle_gamma 95.303307
loop_
_atom_site_label
_atom_site_type_symbol
_atom_site_fract_x
_atom_site_fract_y
_atom_site_fract_z
_atom_type_partial_charge
C0 C 0.24783 0.28182 0.21079 0.0
N1 N 0.26708 0.26644 0.20823 0.0
N2 N 0.24914 0.30623 0.19127 0.0
C3 C 0.22914 0.27409 0.23418 0.0
C4 C 0.26997 0.30526 0.17685 0.0
N5 N 0.28112 0.28119 0.18744 0.0
C6 C 0.27977 0.32822 0.15311 0.0
H7 H 0.22013 0.25289 0.23398 0.0
H8 H 0.21402 0.28871 0.23089 0.0
H9 H 0.23939 0.27404 0.25628 0.0
H10 H 0.29323 0.34273 0.16364 0.0
H11 H 0.26417 0.3402 0.14087 0.0
H12 H 0.28983 0.31975 0.13718 0.0
C13 C 0.27948 0.73501 0.76349 0.0
N14 N 0.29861 0.74961 0.77647 0.0
N15 N 0.27469 0.70972 0.78051 0.0
C16 C 0.26458 0.74595 0.73483 0.0
C17 C 0.29144 0.70964 0.8046 0.0
N18 N 0.30601 0.73405 0.80222 0.0
C19 C 0.29458 0.68505 0.82936 0.0
H20 H 0.26553 0.769 0.73002 0.0
H21 H 0.24446 0.73775 0.73548 0.0
H22 H 0.27262 0.73892 0.71642 0.0
H23 H 0.2876 0.66539 0.82182 0.0
H24 H 0.28341 0.68734 0.84779 0.0
H25 H 0.31474 0.68393 0.83788 0.0
C26 C 0.86556 0.78864 0.27833 0.0
N27 N 0.85227 0.77314 0.25995 0.0
N28 N 0.85014 0.80444 0.28859 0.0
C29 C 0.89353 0.78791 0.28677 0.0
C30 C 0.82692 0.79798 0.2758 0.0
N31 N 0.82815 0.77863 0.25865 0.0
C32 C 0.80342 0.81168 0.27912 0.0
H33 H 0.89668 0.76977 0.30481 0.0
H34 H 0.90147 0.8071 0.29466 0.0
H35 H 0.90387 0.78551 0.26776 0.0
H36 H 0.80273 0.83134 0.26262 0.0
H37 H 0.8039 0.81683 0.30158 0.0
H38 H 0.78585 0.79863 0.27518 0.0
C39 C 0.76453 0.21007 0.76936 0.0
N40 N 0.78493 0.21835 0.75331 0.0
N41 N 0.76038 0.22957 0.7852 0.0
C42 C 0.74916 0.18261 0.77069 0.0
C43 C 0.77905 0.24987 0.77834 0.0
N44 N 0.79396 0.243 0.75908 0.0
C45 C 0.78289 0.2763 0.79062 0.0
H46 H 0.75031 0.17344 0.7508 0.0
H47 H 0.72901 0.18504 0.77334 0.0
H48 H 0.75649 0.16778 0.79027 0.0
H49 H 0.7743 0.27386 0.81208 0.0
H50 H 0.77387 0.29307 0.77451 0.0
H51 H 0.80331 0.28275 0.79388 0.0
C52 C 0.77301 0.68227 0.80857 0.0
N53 N 0.7869 0.6938 0.78549 0.0
N54 N 0.75573 0.69965 0.81228 0.0
C55 C 0.77777 0.65513 0.82905 0.0
C56 C 0.75973 0.72224 0.79073 0.0
N57 N 0.77875 0.71876 0.77458 0.0
C58 C 0.74481 0.74755 0.7851 0.0
H59 H 0.76637 0.63804 0.82022 0.0
H60 H 0.77219 0.6552 0.85163 0.0
H61 H 0.79804 0.65095 0.83052 0.0
H62 H 0.75468 0.76317 0.79751 0.0
H63 H 0.72548 0.74224 0.7927 0.0
H64 H 0.74341 0.75709 0.76121 0.0
C65 C 0.77119 0.30228 0.26476 0.0
N66 N 0.79477 0.30373 0.27852 0.0
N67 N 0.7689 0.32327 0.24113 0.0
C68 C 0.75115 0.279 0.27277 0.0
C69 C 0.79197 0.33736 0.24075 0.0
N70 N 0.80782 0.32537 0.2634 0.0
C71 C 0.79845 0.36359 0.2191 0.0
H72 H 0.75982 0.259 0.2811 0.0
H73 H 0.73754 0.27668 0.25349 0.0
H74 H 0.74061 0.28367 0.29066 0.0
H75 H 0.78118 0.3743 0.20994 0.0
H76 H 0.80752 0.35821 0.20045 0.0
H77 H 0.8119 0.37794 0.22988 0.0
C78 C 0.27276 0.30306 0.74257 0.0
N79 N 0.28944 0.28714 0.73475 0.0
N80 N 0.24962 0.29872 0.72865 0.0
C81 C 0.27858 0.3217 0.76512 0.0
C82 C 0.25274 0.27927 0.71234 0.0
N83 N 0.27702 0.27213 0.71612 0.0
C84 C 0.23235 0.26829 0.69183 0.0
H85 H 0.29608 0.31662 0.77943 0.0
H86 H 0.26251 0.32019 0.77922 0.0
H87 H 0.28122 0.34355 0.75331 0.0
H88 H 0.21802 0.28366 0.68404 0.0
H89 H 0.22273 0.24904 0.70398 0.0
H90 H 0.24053 0.26319 0.67243 0.0
C91 C 0.32211 0.77416 0.31802 0.0
N92 N 0.32407 0.75597 0.29984 0.0
N93 N 0.34373 0.79088 0.31977 0.0
C94 C 0.29842 0.77688 0.33238 0.0
C95 C 0.3589 0.78223 0.30185 0.0
N96 N 0.34692 0.7611 0.28966 0.0
C97 C 0.38551 0.79418 0.29659 0.0
H98 H 0.29717 0.79861 0.33524 0.0
H99 H 0.29875 0.76319 0.35456 0.0
H100 H 0.28131 0.77038 0.31893 0.0
H101 H 0.39461 0.80218 0.31626 0.0
H102 H 0.38489 0.81171 0.27741 0.0
H103 H 0.39725 0.77855 0.29133 0.0
C104 C 0.0306 0.50293 0.2712 0.0
C105 C 0.10012 0.57561 0.26651 0.0
O106 O 0.04424 0.51073 0.2927 0.0
Zn107 Zn 0.06444 0.54021 0.26923 0.0
O108 O 0.03392 0.51556 0.2446 0.0
Zn109 Zn 0.05798 0.54945 0.22246 0.0
O110 O 0.07478 0.53067 0.19727 0.0
O111 O 0.08536 0.51754 0.24508 0.0
O112 O 0.08938 0.57377 0.24074 0.0
O113 O 0.0913 0.56029 0.28933 0.0
O114 O 0.03746 0.57059 0.25302 0.0
O115 O 0.03402 0.57647 0.20426 0.0
C116 C 0.08762 0.51577 0.21803 0.0
C117 C 0.02738 0.58241 0.22792 0.0
C118 C 0.98406 0.46238 0.7159 0.0
C119 C 0.05153 0.53673 0.72401 0.0
O120 O 0.99201 0.46501 0.74237 0.0
Zn121 Zn 0.01775 0.49019 0.76565 0.0
O122 O 0.99261 0.47961 0.69405 0.0
Zn123 Zn 0.01671 0.50121 0.71764 0.0
O124 O 0.04182 0.47051 0.73809 0.0
O125 O 0.04048 0.4625 0.78676 0.0
O126 O 0.04101 0.53072 0.69981 0.0
O127 O 0.04411 0.52331 0.74879 0.0
O128 O 0.9955 0.50818 0.78616 0.0
O129 O 0.99262 0.52331 0.73774 0.0
C130 C 0.04938 0.45745 0.76378 0.0
C131 C 0.98603 0.52425 0.76356 0.0
C132 C 0.30984 0.99509 0.5628 0.0
C133 C 0.30277 0.06437 0.47135 0.0
O134 O 0.28953 1.00221 0.54749 0.0
Zn135 Zn 0.30535 0.02985 0.5177 0.0
O136 O 0.33126 0.00719 0.55508 0.0
Zn137 Zn 0.34549 0.03967 0.52068 0.0
O138 O 0.35953 0.06859 0.54269 0.0
O139 O 0.31803 0.06113 0.54304 0.0
O140 O 0.3255 0.06267 0.48304 0.0
O141 O 0.28491 0.04906 0.48408 0.0
O142 O 0.32686 0.00474 0.4977 0.0
O143 O 0.3673 0.01972 0.50161 0.0
C144 C 0.33875 0.074 0.55114 0.0
C145 C 0.34991 0.00289 0.49285 0.0
C146 C 0.59217 0.74091 0.08904 0.0
C147 C 0.51733 0.74229 0.01772 0.0
O148 O 0.58198 0.71657 0.087 0.0
Zn149 Zn 0.54947 0.6983 0.06394 0.0
O150 O 0.58172 0.76228 0.07473 0.0
Zn151 Zn 0.55416 0.74273 0.05441 0.0
O152 O 0.53037 0.72578 0.08932 0.0
O153 O 0.5278 0.68003 0.09491 0.0
O154 O 0.53089 0.76324 0.0244 0.0
O155 O 0.52263 0.71782 0.03087 0.0
O156 O 0.56581 0.67632 0.04147 0.0
O157 O 0.57463 0.72163 0.02847 0.0
C158 C 0.52161 0.70189 0.10248 0.0
C159 C 0.57762 0.69671 0.0256 0.0
C160 C 0.82023 0.96444 0.55706 0.0
C161 C 0.82716 0.05119 0.48401 0.0
O162 O 0.80269 0.97524 0.53907 0.0
Zn163 Zn 0.82282 0.00763 0.51968 0.0
O164 O 0.84266 0.97642 0.55671 0.0
Zn165 Zn 0.86253 0.01221 0.53267 0.0
O166 O 0.8745 0.03317 0.56385 0.0
O167 O 0.83306 0.03142 0.55385 0.0
O168 O 0.84827 0.04473 0.4984 0.0
O169 O 0.80724 0.03515 0.48918 0.0
O170 O 0.84641 0.99005 0.49461 0.0
O171 O 0.88614 0.99542 0.51256 0.0
C172 C 0.85292 0.03995 0.56854 0.0
C173 C 0.86985 0.98649 0.49391 0.0
C174 C 0.56185 0.29819 0.02749 0.0
C175 C 0.49873 0.28761 0.94615 0.0
O176 O 0.5545 0.27263 0.02705 0.0
Zn177 Zn 0.52806 0.24934 1.00103 0.0
O178 O 0.55201 0.31725 0.00836 0.0
Zn179 Zn 0.52946 0.29328 0.9875 0.0
O180 O 0.50264 0.27663 0.01919 0.0
O181 O 0.50356 0.23105 0.02899 0.0
O182 O 0.50819 0.31005 0.95388 0.0
O183 O 0.50464 0.26411 0.9615 0.0
O184 O 0.55061 0.22739 0.98606 0.0
O185 O 0.55535 0.27235 0.96763 0.0
C186 C 0.49439 0.25285 0.03316 0.0
C187 C 0.56159 0.2475 0.96892 0.0
H188 H 0.21645 0.32827 0.1465 0.0
H189 H 0.189 0.36599 0.14662 0.0
H190 H 0.2212 0.37356 0.23446 0.0
H191 H 0.24868 0.33618 0.234 0.0
H192 H 0.16882 0.36877 0.22983 0.0
H193 H 0.23666 0.42189 0.1765 0.0
H194 H 0.26534 0.4331 0.13611 0.0
H195 H 0.20157 0.44485 0.07184 0.0
H196 H 0.17247 0.43328 0.11185 0.0
H197 H 0.12407 0.4898 0.25587 0.0
H198 H 0.15142 0.45575 0.24688 0.0
H199 H 0.11784 0.46249 0.15711 0.0
H200 H 0.09065 0.49743 0.16578 0.0
H201 H 0.16804 0.45857 0.15881 0.0
H202 H 0.10012 0.40758 0.2107 0.0
H203 H 0.07049 0.39558 0.25009 0.0
H204 H 0.13268 0.37811 0.31551 0.0
H205 H 0.16274 0.39042 0.27656 0.0
C206 C 0.21781 0.33845 0.1655 0.0
C207 C 0.23454 0.32964 0.1902 0.0
C208 C 0.2022 0.35986 0.16562 0.0
C209 C 0.2031 0.37259 0.19055 0.0
C210 C 0.22017 0.364 0.21503 0.0
C211 C 0.23585 0.3428 0.21478 0.0
C212 C 0.18552 0.39399 0.19191 0.0
C213 C 0.16883 0.38853 0.2145 0.0
C214 C 0.18489 0.4193 0.17119 0.0
C215 C 0.20238 0.42641 0.14715 0.0
C216 C 0.22874 0.42662 0.15374 0.0
C217 C 0.24508 0.43309 0.13091 0.0
C218 C 0.23528 0.43961 0.10142 0.0
C219 C 0.20913 0.43975 0.09469 0.0
C220 C 0.19271 0.43325 0.11744 0.0
C221 C 0.12248 0.48416 0.23415 0.0
C222 C 0.10496 0.49612 0.21163 0.0
C223 C 0.13812 0.46458 0.22906 0.0
C224 C 0.13632 0.45607 0.20152 0.0
C225 C 0.11945 0.46862 0.1786 0.0
C226 C 0.1039 0.48852 0.1836 0.0
C227 C 0.15173 0.43361 0.19723 0.0
C228 C 0.1679 0.43876 0.17404 0.0
C229 C 0.15174 0.4078 0.21722 0.0
C230 C 0.1337 0.40013 0.24072 0.0
C231 C 0.10749 0.40136 0.23351 0.0
C232 C 0.09062 0.39448 0.25576 0.0
C233 C 0.0997 0.38614 0.28529 0.0
C234 C 0.12567 0.38459 0.29263 0.0
C235 C 0.14264 0.39149 0.27047 0.0
H236 H 0.0866 0.38083 0.30248 0.0
H237 H 0.24796 0.44462 0.08378 0.0
H238 H 0.23721 0.68804 0.81539 0.0
H239 H 0.20053 0.65714 0.80294 0.0
H240 H 0.23059 0.65452 0.7198 0.0
H241 H 0.26717 0.68559 0.73238 0.0
H242 H 0.18171 0.66423 0.71115 0.0
H243 H 0.23079 0.59803 0.77658 0.0
H244 H 0.25594 0.57899 0.82249 0.0
H245 H 0.19182 0.57783 0.87289 0.0
H246 H 0.16638 0.59726 0.82734 0.0
H247 H 0.08592 0.55556 0.68202 0.0
H248 H 0.12548 0.58467 0.68833 0.0
H249 H 0.10555 0.59401 0.77431 0.0
H250 H 0.06662 0.56485 0.7684 0.0
H251 H 0.15198 0.57818 0.77823 0.0
H252 H 0.10406 0.64775 0.71332 0.0
H253 H 0.07904 0.66726 0.66749 0.0
H254 H 0.14106 0.66183 0.61611 0.0
H255 H 0.16634 0.64194 0.66163 0.0
C256 C 0.23612 0.68032 0.7948 0.0
C257 C 0.25489 0.68896 0.77485 0.0
C258 C 0.2152 0.66277 0.78761 0.0
C259 C 0.21283 0.65336 0.76045 0.0
C260 C 0.23194 0.66155 0.74081 0.0
C261 C 0.25282 0.67915 0.748 0.0
C262 C 0.18995 0.63587 0.75215 0.0
C263 C 0.17542 0.64515 0.72558 0.0
C264 C 0.18153 0.61118 0.77112 0.0
C265 C 0.19673 0.59931 0.79855 0.0
C266 C 0.2221 0.5939 0.79748 0.0
C267 C 0.2364 0.58301 0.82344 0.0
C268 C 0.2255 0.57726 0.8506 0.0
C269 C 0.20025 0.58232 0.85184 0.0
C270 C 0.18587 0.59324 0.82596 0.0
C271 C 0.08981 0.56432 0.70196 0.0
C272 C 0.07325 0.55778 0.72478 0.0
C273 C 0.11243 0.58088 0.7056 0.0
C274 C 0.11859 0.5914 0.73192 0.0
C275 C 0.10141 0.5859 0.75398 0.0
C276 C 0.07907 0.56929 0.75049 0.0
C277 C 0.14338 0.6069 0.73762 0.0
C278 C 0.15835 0.59715 0.76368 0.0
C279 C 0.15216 0.63112 0.71818 0.0
C280 C 0.13697 0.64305 0.69083 0.0
C281 C 0.11228 0.65049 0.69222 0.0
C282 C 0.09807 0.66166 0.66631 0.0
C283 C 0.10842 0.6657 0.63889 0.0
C284 C 0.13304 0.65864 0.63735 0.0
C285 C 0.14733 0.64743 0.6632 0.0
H286 H 0.09739 0.67436 0.61885 0.0
H287 H 0.23661 0.56883 0.87067 0.0
H288 H 0.84647 0.71779 0.27808 0.0
H289 H 0.87291 0.6837 0.26571 0.0
H290 H 0.90847 0.74837 0.20212 0.0
H291 H 0.88185 0.78217 0.21446 0.0
H292 H 0.88561 0.6651 0.21345 0.0
H293 H 0.96997 0.74484 0.21668 0.0
H294 H 0.98469 0.78592 0.23897 0.0
H295 H 0.94138 0.75337 0.31379 0.0
H296 H 0.92606 0.7124 0.29165 0.0
H297 H 0.99677 0.60609 0.17992 0.0
H298 H 0.96355 0.63769 0.17955 0.0
H299 H 0.98011 0.63467 0.27347 0.0
H300 H 0.01317 0.60333 0.27405 0.0
H301 H 0.97593 0.68731 0.24414 0.0
H302 H 0.92881 0.59807 0.2477 0.0
H303 H 0.91441 0.55464 0.22978 0.0
H304 H 0.88338 0.60167 0.14809 0.0
H305 H 0.8979 0.64543 0.16534 0.0
C306 C 0.85924 0.72428 0.26064 0.0
C307 C 0.86227 0.75237 0.24712 0.0
C308 C 0.87439 0.70494 0.25368 0.0
C309 C 0.89289 0.71359 0.23327 0.0
C310 C 0.89445 0.74128 0.21806 0.0
C311 C 0.87919 0.7605 0.2249 0.0
C312 C 0.91248 0.69471 0.2306 0.0
C313 C 0.90539 0.67001 0.2199 0.0
C314 C 0.93823 0.7009 0.23939 0.0
C315 C 0.94676 0.72577 0.25242 0.0
C316 C 0.96352 0.74657 0.23782 0.0
C317 C 0.9719 0.76985 0.25037 0.0
C318 C 0.96386 0.77233 0.2777 0.0
C319 C 0.94742 0.75153 0.29252 0.0
C320 C 0.93876 0.72838 0.27989 0.0
C321 C 0.99337 0.61224 0.20046 0.0
C322 C 0.00768 0.60218 0.22701 0.0
C323 C 0.97428 0.63017 0.20024 0.0
C324 C 0.96922 0.63842 0.22652 0.0
C325 C 0.98366 0.62861 0.25292 0.0
C326 C 1.00257 0.61063 0.2532 0.0
C327 C 0.94923 0.65761 0.22682 0.0
C328 C 0.95624 0.68248 0.23716 0.0
C329 C 0.92344 0.6513 0.218 0.0
C330 C 0.91469 0.62502 0.20767 0.0
C331 C 0.91911 0.59916 0.22581 0.0
C332 C 0.91089 0.57448 0.2158 0.0
C333 C 0.89806 0.57539 0.1878 0.0
C334 C 0.89336 0.601 0.16976 0.0
C335 C 0.90156 0.62574 0.17965 0.0
H336 H 0.89171 0.55626 0.1801 0.0
H337 H 0.97043 0.79031 0.28744 0.0
H338 H 0.84059 0.24996 0.78512 0.0
H339 H 0.8735 0.2863 0.7678 0.0
H340 H 0.82684 0.31157 0.68705 0.0
H341 H 0.79392 0.27489 0.70464 0.0
H342 H 0.88248 0.31569 0.68067 0.0
H343 H 0.82121 0.34752 0.73502 0.0
H344 H 0.79431 0.3444 0.77651 0.0
H345 H 0.86018 0.33949 0.83816 0.0
H346 H 0.88746 0.34269 0.79698 0.0
H347 H 0.95091 0.45494 0.66733 0.0
H348 H 0.91814 0.41622 0.6651 0.0
H349 H 0.94396 0.37733 0.7536 0.0
H350 H 0.97601 0.41533 0.75608 0.0
H351 H 0.89376 0.3838 0.74843 0.0
H352 H 0.95516 0.35108 0.69419 0.0
H353 H 0.9822 0.35441 0.65283 0.0
H354 H 0.91664 0.36103 0.59072 0.0
H355 H 0.88924 0.35809 0.63174 0.0
C356 C 0.83786 0.26277 0.76332 0.0
C357 C 0.81498 0.25996 0.74614 0.0
C358 C 0.85651 0.28349 0.75345 0.0
C359 C 0.85246 0.3018 0.72628 0.0
C360 C 0.83034 0.29762 0.70803 0.0
C361 C 0.81162 0.2768 0.718 0.0
C362 C 0.86974 0.32724 0.7193 0.0
C363 C 0.88473 0.33089 0.69512 0.0
C364 C 0.87264 0.34701 0.73816 0.0
C365 C 0.85633 0.34518 0.76297 0.0
C366 C 0.82992 0.34566 0.75744 0.0
C367 C 0.81463 0.34398 0.78088 0.0
C368 C 0.82552 0.34166 0.80996 0.0
C369 C 0.85176 0.34126 0.81563 0.0
C370 C 0.86716 0.34313 0.79224 0.0
C371 C 0.94968 0.43792 0.68609 0.0
C372 C 0.96575 0.43846 0.71206 0.0
C373 C 0.93104 0.41583 0.68478 0.0
C374 C 0.92849 0.394 0.70932 0.0
C375 C 0.94535 0.39405 0.73455 0.0
C376 C 0.96367 0.41593 0.73592 0.0
C377 C 0.90738 0.3719 0.71043 0.0
C378 C 0.89141 0.36893 0.73358 0.0
C379 C 0.90372 0.35295 0.69057 0.0
C380 C 0.92019 0.35475 0.66597 0.0
C381 C 0.94654 0.35353 0.67169 0.0
C382 C 0.96192 0.35527 0.64831 0.0
C383 C 0.95116 0.35803 0.61915 0.0
C384 C 0.92497 0.35896 0.61331 0.0
C385 C 0.9095 0.35724 0.63661 0.0
H386 H 0.9631 0.35938 0.60108 0.0
H387 H 0.81363 0.34022 0.82809 0.0
H388 H 0.2399 0.21706 0.21648 0.0
H389 H 0.24635 0.17825 0.25822 0.0
H390 H 0.31578 0.22116 0.28723 0.0
H391 H 0.30886 0.26027 0.24582 0.0
H392 H 0.31716 0.16115 0.29305 0.0
H393 H 0.26691 0.22941 0.31911 0.0
H394 H 0.23105 0.25909 0.31155 0.0
H395 H 0.17869 0.18698 0.31323 0.0
H396 H 0.2143 0.15686 0.32082 0.0
H397 H 0.33538 0.10539 0.4445 0.0
H398 H 0.32901 0.13575 0.39648 0.0
H399 H 0.25353 0.09709 0.38462 0.0
H400 H 0.25959 0.06687 0.43338 0.0
H401 H 0.25336 0.15137 0.36717 0.0
H402 H 0.30282 0.08216 0.34756 0.0
H403 H 0.33814 0.05179 0.35501 0.0
H404 H 0.39117 0.12339 0.33934 0.0
H405 H 0.3562 0.15424 0.33225 0.0
C406 C 0.25671 0.21783 0.23157 0.0
C407 C 0.27375 0.24154 0.22841 0.0
C408 C 0.26039 0.19577 0.25528 0.0
C409 C 0.28135 0.19706 0.27599 0.0
C410 C 0.29948 0.21982 0.27148 0.0
C411 C 0.29562 0.24202 0.24788 0.0
C412 C 0.28308 0.17608 0.30374 0.0
C413 C 0.30337 0.15908 0.30941 0.0
C414 C 0.26463 0.17292 0.3246 0.0
C415 C 0.24323 0.19094 0.32022 0.0
C416 C 0.24775 0.21991 0.31768 0.0
C417 C 0.22748 0.2368 0.31346 0.0
C418 C 0.20261 0.22494 0.31174 0.0
C419 C 0.19796 0.19614 0.31448 0.0
C420 C 0.21817 0.17915 0.31883 0.0
C421 C 0.31737 0.10329 0.43176 0.0
C422 C 0.29803 0.08357 0.44272 0.0
C423 C 0.31383 0.12059 0.40415 0.0
C424 C 0.29102 0.11829 0.38656 0.0
C425 C 0.27138 0.09908 0.3977 0.0
C426 C 0.27484 0.08186 0.42557 0.0
C427 C 0.2877 0.13644 0.35688 0.0
C428 C 0.26708 0.15304 0.35078 0.0
C429 C 0.30576 0.139 0.33553 0.0
C430 C 0.32688 0.12053 0.3396 0.0
C431 C 0.32203 0.09145 0.34591 0.0
C432 C 0.34199 0.07414 0.35004 0.0
C433 C 0.36689 0.08565 0.34771 0.0
C434 C 0.37187 0.1145 0.34116 0.0
C435 C 0.35199 0.13191 0.33705 0.0
H436 H 0.38231 0.07222 0.35092 0.0
H437 H 0.18695 0.23807 0.30839 0.0
H438 H 0.35387 0.75198 0.78948 0.0
H439 H 0.3899 0.7603 0.82467 0.0
H440 H 0.341 0.73931 0.89661 0.0
H441 H 0.30473 0.73239 0.86101 0.0
H442 H 0.37572 0.7799 0.90709 0.0
H443 H 0.37581 0.69088 0.87882 0.0
H444 H 0.37522 0.65867 0.84379 0.0
H445 H 0.44498 0.69914 0.81178 0.0
H446 H 0.44577 0.73189 0.84633 0.0
H447 H 0.48465 0.70102 1.00132 0.0
H448 H 0.44902 0.7049 0.96412 0.0
H449 H 0.46456 0.79397 0.94474 0.0
H450 H 0.5004 0.79029 0.98265 0.0
H451 H 0.44713 0.72183 0.9068 0.0
H452 H 0.40748 0.82337 0.92162 0.0
H453 H 0.40555 0.8508 0.96084 0.0
H454 H 0.41087 0.77681 0.0274 0.0
H455 H 0.41259 0.74894 0.9886 0.0
C456 C 0.35074 0.74996 0.81267 0.0
C457 C 0.32662 0.74146 0.82261 0.0
C458 C 0.37135 0.75442 0.83284 0.0
C459 C 0.36829 0.74999 0.86342 0.0
C460 C 0.3439 0.7428 0.87318 0.0
C461 C 0.32325 0.73859 0.85294 0.0
C462 C 0.3907 0.75055 0.88533 0.0
C463 C 0.39142 0.76737 0.90689 0.0
C464 C 0.41103 0.7338 0.88556 0.0
C465 C 0.41071 0.71401 0.86493 0.0
C466 C 0.39093 0.69303 0.86417 0.0
C467 C 0.39057 0.67467 0.84441 0.0
C468 C 0.41002 0.6769 0.82551 0.0
C469 C 0.42991 0.69747 0.82639 0.0
C470 C 0.43033 0.71593 0.84606 0.0
C471 C 0.48058 0.72153 0.98927 0.0
C472 C 0.4955 0.74537 0.99502 0.0
C473 C 0.46016 0.72368 0.96786 0.0
C474 C 0.454 0.7497 0.95158 0.0
C475 C 0.46877 0.77366 0.95721 0.0
C476 C 0.48931 0.77153 0.97882 0.0
C477 C 0.43226 0.75124 0.92858 0.0
C478 C 0.43165 0.73474 0.90677 0.0
C479 C 0.41177 0.76766 0.92873 0.0
C480 C 0.41047 0.78417 0.95221 0.0
C481 C 0.40819 0.81297 0.94463 0.0
C482 C 0.40715 0.82859 0.96679 0.0
C483 C 0.40822 0.81558 0.9966 0.0
C484 C 0.41021 0.7869 0.00432 0.0
C485 C 0.41125 0.77119 0.98225 0.0
H486 H 0.40743 0.8277 0.01372 0.0
H487 H 0.40971 0.66266 0.81024 0.0
H488 H 0.84157 0.85873 0.28052 0.0
H489 H 0.85184 0.88988 0.31624 0.0
H490 H 0.88515 0.82319 0.37869 0.0
H491 H 0.87347 0.79172 0.34341 0.0
H492 H 0.85862 0.84905 0.40688 0.0
H493 H 0.92179 0.87895 0.339 0.0
H494 H 0.93934 0.89438 0.29036 0.0
H495 H 0.89778 0.96734 0.27473 0.0
H496 H 0.87967 0.95215 0.3231 0.0
H497 H 0.90362 0.94639 0.50117 0.0
H498 H 0.90829 0.91532 0.46628 0.0
H499 H 0.85626 0.96138 0.402 0.0
H500 H 0.85106 0.99178 0.43685 0.0
H501 H 0.89956 0.94411 0.37763 0.0
H502 H 0.83243 0.90862 0.44359 0.0
H503 H 0.81647 0.89299 0.49311 0.0
H504 H 0.86907 0.8295 0.51317 0.0
H505 H 0.88564 0.84511 0.46391 0.0
C506 C 0.8509 0.8508 0.30197 0.0
C507 C 0.85675 0.82294 0.30932 0.0
C508 C 0.8571 0.86864 0.32224 0.0
C509 C 0.86975 0.85909 0.35005 0.0
C510 C 0.87554 0.83115 0.35738 0.0
C511 C 0.86904 0.81324 0.33722 0.0
C512 C 0.87606 0.87803 0.37177 0.0
C513 C 0.86808 0.86959 0.40058 0.0
C514 C 0.8883 0.90497 0.36371 0.0
C515 C 0.89924 0.9143 0.33463 0.0
C516 C 0.91626 0.8982 0.32512 0.0
C517 C 0.92632 0.90691 0.2976 0.0
C518 C 0.91965 0.9318 0.27944 0.0
C519 C 0.90293 0.94806 0.28881 0.0
C520 C 0.89278 0.93942 0.3163 0.0
C521 C 0.89375 0.95023 0.47929 0.0
C522 C 0.87696 0.97135 0.47162 0.0
C523 C 0.89633 0.93247 0.45948 0.0
C524 C 0.88252 0.93604 0.43164 0.0
C525 C 0.86713 0.95834 0.42331 0.0
C526 C 0.86413 0.97562 0.44325 0.0
C527 C 0.88175 0.91515 0.41223 0.0
C528 C 0.89064 0.9233 0.38392 0.0
C529 C 0.87067 0.88784 0.42083 0.0
C530 C 0.86049 0.87825 0.45025 0.0
C531 C 0.84074 0.89149 0.45867 0.0
C532 C 0.83156 0.88261 0.48666 0.0
C533 C 0.84181 0.86032 0.50631 0.0
C534 C 0.8612 0.84681 0.49796 0.0
C535 C 0.87049 0.85566 0.47001 0.0
H536 H 0.83468 0.85348 0.52798 0.0
H537 H 0.92746 0.93851 0.25814 0.0
H538 H 0.74859 0.19011 0.8325 0.0
H539 H 0.71458 0.19004 0.86514 0.0
H540 H 0.69367 0.26892 0.81395 0.0
H541 H 0.72721 0.26854 0.78093 0.0
H542 H 0.69836 0.26744 0.87522 0.0
H543 H 0.65833 0.21195 0.80544 0.0
H544 H 0.65485 0.17281 0.77857 0.0
H545 H 0.65372 0.11478 0.86112 0.0
H546 H 0.65761 0.15362 0.88853 0.0
H547 H 0.58098 0.28386 0.92269 0.0
H548 H 0.6149 0.27762 0.89321 0.0
H549 H 0.62205 0.19479 0.94381 0.0
H550 H 0.58735 0.20066 0.97311 0.0
H551 H 0.62642 0.19535 0.88658 0.0
H552 H 0.66447 0.2492 0.95678 0.0
H553 H 0.66902 0.28741 0.98502 0.0
H554 H 0.67576 0.34713 0.90426 0.0
H555 H 0.67087 0.30929 0.87547 0.0
C556 C 0.73645 0.20717 0.82809 0.0
C557 C 0.74034 0.22929 0.80425 0.0
C558 C 0.71715 0.2072 0.84674 0.0
C559 C 0.70155 0.22944 0.84189 0.0
C560 C 0.70553 0.2516 0.81813 0.0
C561 C 0.72464 0.25142 0.79935 0.0
C562 C 0.68128 0.22996 0.86177 0.0
C563 C 0.68249 0.25184 0.87749 0.0
C564 C 0.66109 0.20904 0.86552 0.0
C565 C 0.65855 0.18569 0.84905 0.0
C566 C 0.65757 0.19085 0.81788 0.0
C567 C 0.65548 0.16872 0.80255 0.0
C568 C 0.65414 0.14133 0.81813 0.0
C569 C 0.65481 0.13601 0.84908 0.0
C570 C 0.65694 0.15807 0.86453 0.0
C571 C 0.5897 0.26426 0.92762 0.0
C572 C 0.58161 0.24284 0.95049 0.0
C573 C 0.6092 0.26077 0.91076 0.0
C574 C 0.62146 0.23597 0.91669 0.0
C575 C 0.61299 0.21418 0.93895 0.0
C576 C 0.59319 0.21757 0.95571 0.0
C577 C 0.64321 0.23319 0.89966 0.0
C578 C 0.64236 0.21086 0.88453 0.0
C579 C 0.66396 0.25355 0.89669 0.0
C580 C 0.66711 0.27639 0.91394 0.0
C581 C 0.66675 0.27049 0.94502 0.0
C582 C 0.66942 0.29208 0.96113 0.0
C583 C 0.67263 0.31968 0.94644 0.0
C584 C 0.67325 0.32574 0.91561 0.0
C585 C 0.67056 0.30422 0.89938 0.0
H586 H 0.67468 0.33637 0.95895 0.0
H587 H 0.65252 0.12422 0.80622 0.0
H588 H 0.33313 0.76866 0.73729 0.0
H589 H 0.33809 0.81637 0.70894 0.0
H590 H 0.28402 0.84158 0.76074 0.0
H591 H 0.27996 0.79398 0.78979 0.0
H592 H 0.27302 0.84627 0.69369 0.0
H593 H 0.33447 0.87204 0.7689 0.0
H594 H 0.37314 0.86646 0.80271 0.0
H595 H 0.41802 0.87496 0.72829 0.0
H596 H 0.37955 0.88011 0.69403 0.0
H597 H 0.27189 0.97898 0.60015 0.0
H598 H 0.27183 0.94182 0.64406 0.0
H599 H 0.34609 0.92244 0.62739 0.0
H600 H 0.34676 0.96052 0.58478 0.0
H601 H 0.34549 0.91759 0.68265 0.0
H602 H 0.28787 0.88401 0.60847 0.0
H603 H 0.25102 0.88453 0.57172 0.0
H604 H 0.20128 0.88518 0.63974 0.0
H605 H 0.23789 0.88499 0.67684 0.0
C606 C 0.3234 0.78483 0.74346 0.0
C607 C 0.30666 0.77817 0.76595 0.0
C608 C 0.32603 0.8119 0.72723 0.0
C609 C 0.31144 0.83239 0.73287 0.0
C610 C 0.29559 0.82605 0.75632 0.0
C611 C 0.29343 0.7991 0.77299 0.0
C612 C 0.3101 0.85894 0.71157 0.0
C613 C 0.28859 0.86226 0.69161 0.0
C614 C 0.33086 0.87903 0.70835 0.0
C615 C 0.35407 0.87624 0.72889 0.0
C616 C 0.35255 0.87247 0.75974 0.0
C617 C 0.37445 0.86943 0.77899 0.0
C618 C 0.39802 0.8703 0.76766 0.0
C619 C 0.39975 0.87428 0.73704 0.0
C620 C 0.3779 0.87729 0.71769 0.0
C621 C 0.28816 0.96676 0.60598 0.0
C622 C 0.30927 0.9725 0.58904 0.0
C623 C 0.28811 0.94546 0.631 0.0
C624 C 0.3088 0.92892 0.63889 0.0
C625 C 0.32993 0.93489 0.62198 0.0
C626 C 0.33025 0.95659 0.5975 0.0
C627 C 0.30841 0.90497 0.66422 0.0
C628 C 0.32965 0.90196 0.68489 0.0
C629 C 0.28766 0.88464 0.6676 0.0
C630 C 0.26563 0.88485 0.64534 0.0
C631 C 0.26908 0.88448 0.61553 0.0
C632 C 0.24824 0.88468 0.59465 0.0
C633 C 0.22383 0.88499 0.60337 0.0
C634 C 0.2202 0.88501 0.63301 0.0
C635 C 0.24099 0.88485 0.65397 0.0
H636 H 0.20772 0.88513 0.58717 0.0
H637 H 0.41495 0.86794 0.7826 0.0
H638 H 0.82292 0.78521 0.19907 0.0
H639 H 0.78403 0.7745 0.16877 0.0
H640 H 0.74754 0.73799 0.24854 0.0
H641 H 0.78689 0.74727 0.27831 0.0
H642 H 0.72898 0.71165 0.20898 0.0
H643 H 0.74288 0.80811 0.21235 0.0
H644 H 0.7664 0.85422 0.20657 0.0
H645 H 0.76665 0.85684 0.11291 0.0
H646 H 0.74347 0.81049 0.11823 0.0
H647 H 0.6112 0.78313 0.11802 0.0
H648 H 0.65193 0.78645 0.14733 0.0
H649 H 0.67033 0.70918 0.12607 0.0
H650 H 0.62916 0.70498 0.09865 0.0
H651 H 0.69751 0.7926 0.13759 0.0
H652 H 0.70953 0.67422 0.17688 0.0
H653 H 0.68287 0.63057 0.19033 0.0
H654 H 0.62435 0.6763 0.21169 0.0
H655 H 0.65077 0.72016 0.19874 0.0
C656 C 0.80674 0.77414 0.20984 0.0
C657 C 0.80751 0.76746 0.24086 0.0
C658 C 0.78444 0.76834 0.19266 0.0
C659 C 0.76244 0.75627 0.20635 0.0
C660 C 0.76404 0.74756 0.23732 0.0
C661 C 0.78645 0.75288 0.25437 0.0
C662 C 0.73742 0.75445 0.18889 0.0
C663 C 0.72218 0.72933 0.19327 0.0
C664 C 0.72796 0.77773 0.1691 0.0
C665 C 0.74167 0.80572 0.16573 0.0
C666 C 0.74808 0.81845 0.19055 0.0
C667 C 0.76135 0.84463 0.18736 0.0
C668 C 0.76806 0.85843 0.1594 0.0
C669 C 0.76147 0.8461 0.13456 0.0
C670 C 0.74827 0.81987 0.13765 0.0
C671 C 0.6239 0.76678 0.11991 0.0
C672 C 0.61684 0.74361 0.10646 0.0
C673 C 0.64725 0.76871 0.13655 0.0
C674 C 0.66422 0.74778 0.13957 0.0
C675 C 0.65741 0.72515 0.12514 0.0
C676 C 0.63385 0.72284 0.10927 0.0
C677 C 0.68907 0.74968 0.15747 0.0
C678 C 0.7043 0.77484 0.15318 0.0
C679 C 0.69798 0.72681 0.17844 0.0
C680 C 0.68204 0.70049 0.18654 0.0
C681 C 0.69101 0.67494 0.18455 0.0
C682 C 0.67593 0.65017 0.19206 0.0
C683 C 0.6519 0.65067 0.20176 0.0
C684 C 0.64292 0.67594 0.20407 0.0
C685 C 0.65793 0.70077 0.19662 0.0
H686 H 0.64025 0.63147 0.20754 0.0
H687 H 0.77833 0.8787 0.15696 0.0
H688 H 0.83171 0.20012 0.76065 0.0
H689 H 0.84893 0.17046 0.73104 0.0
H690 H 0.77938 0.1723 0.67472 0.0
H691 H 0.76266 0.20262 0.70375 0.0
H692 H 0.79587 0.11741 0.70029 0.0
H693 H 0.82756 0.20768 0.64822 0.0
H694 H 0.85173 0.25321 0.64612 0.0
H695 H 0.91985 0.21254 0.67705 0.0
H696 H 0.89596 0.16672 0.67992 0.0
H697 H 0.81022 0.06301 0.57634 0.0
H698 H 0.80447 0.09346 0.61038 0.0
H699 H 0.88291 0.0898 0.6433 0.0
H700 H 0.8891 0.05936 0.60832 0.0
H701 H 0.86765 0.1427 0.63633 0.0
H702 H 0.8383 0.05291 0.68461 0.0
H703 H 0.81514 0.00666 0.68926 0.0
H704 H 0.74454 0.04469 0.66949 0.0
H705 H 0.7673 0.09122 0.66421 0.0
C706 C 0.82042 0.19447 0.74162 0.0
C707 C 0.79581 0.2031 0.73456 0.0
C708 C 0.83016 0.17754 0.72485 0.0
C709 C 0.8153 0.16902 0.7009 0.0
C710 C 0.79103 0.17846 0.69329 0.0
C711 C 0.78149 0.19567 0.70978 0.0
C712 C 0.82443 0.1493 0.68439 0.0
C713 C 0.81146 0.12296 0.68615 0.0
C714 C 0.84546 0.15622 0.66702 0.0
C715 C 0.85991 0.18376 0.66463 0.0
C716 C 0.84765 0.20843 0.65482 0.0
C717 C 0.8613 0.2343 0.65346 0.0
C718 C 0.8873 0.23577 0.66153 0.0
C719 C 0.8997 0.21137 0.67086 0.0
C720 C 0.88611 0.18544 0.67236 0.0
C721 C 0.82635 0.06849 0.5908 0.0
C722 C 0.8501 0.05842 0.58979 0.0
C723 C 0.82298 0.08595 0.61035 0.0
C724 C 0.84311 0.09352 0.62982 0.0
C725 C 0.86707 0.08407 0.62858 0.0
C726 C 0.87055 0.06661 0.6087 0.0
C727 C 0.8385 0.11105 0.65143 0.0
C728 C 0.85231 0.13693 0.65078 0.0
C729 C 0.81843 0.10358 0.67027 0.0
C730 C 0.80455 0.0756 0.67385 0.0
C731 C 0.81785 0.05143 0.68108 0.0
C732 C 0.80478 0.02516 0.68384 0.0
C733 C 0.77838 0.02274 0.67963 0.0
C734 C 0.76499 0.0466 0.67274 0.0
C735 C 0.77797 0.07294 0.6699 0.0
H736 H 0.7683 1.00238 0.68174 0.0
H737 H 0.89783 0.25582 0.66048 0.0
H738 H 0.3266 0.31029 0.18615 0.0
H739 H 0.36389 0.29988 0.16397 0.0
H740 H 0.3251 0.22283 0.14708 0.0
H741 H 0.28747 0.23366 0.16883 0.0
H742 H 0.37996 0.22086 0.16669 0.0
H743 H 0.3225 0.27198 0.09313 0.0
H744 H 0.29517 0.31044 0.07435 0.0
H745 H 0.35933 0.3697 0.07871 0.0
H746 H 0.38699 0.33157 0.09803 0.0
H747 H 0.46188 0.20799 0.05441 0.0
H748 H 0.4261 0.20786 0.08444 0.0
H749 H 0.44582 0.29435 0.08817 0.0
H750 H 0.48079 0.29481 0.05759 0.0
H751 H 0.39816 0.28792 0.07451 0.0
H752 H 0.45574 0.23924 0.14898 0.0
H753 H 0.48398 0.20238 0.17106 0.0
H754 H 0.42187 0.14044 0.16768 0.0
H755 H 0.39332 0.17693 0.1452 0.0
C756 C 0.32617 0.2911 0.17784 0.0
C757 C 0.30411 0.27306 0.17845 0.0
C758 C 0.34746 0.28505 0.16541 0.0
C759 C 0.34712 0.26074 0.15358 0.0
C760 C 0.32572 0.24169 0.15609 0.0
C761 C 0.3043 0.24786 0.16841 0.0
C762 C 0.36804 0.25695 0.13592 0.0
C763 C 0.38381 0.23521 0.14629 0.0
C764 C 0.37324 0.27601 0.10963 0.0
C765 C 0.35677 0.29893 0.09723 0.0
C766 C 0.33076 0.29322 0.09024 0.0
C767 C 0.31521 0.31496 0.07948 0.0
C768 C 0.3255 0.3425 0.07539 0.0
C769 C 0.35138 0.34835 0.08192 0.0
C770 C 0.36701 0.32669 0.09274 0.0
C771 C 0.45867 0.22687 0.06191 0.0
C772 C 0.47407 0.25145 0.05345 0.0
C773 C 0.43826 0.22676 0.07917 0.0
C774 C 0.43321 0.2511 0.08871 0.0
C775 C 0.44911 0.27536 0.08095 0.0
C776 C 0.46918 0.27557 0.06347 0.0
C777 C 0.41075 0.25209 0.10547 0.0
C778 C 0.39444 0.27334 0.09481 0.0
C779 C 0.40534 0.23274 0.13162 0.0
C780 C 0.42247 0.21078 0.14508 0.0
C781 C 0.44815 0.21774 0.1527 0.0
C782 C 0.46421 0.19692 0.16534 0.0
C783 C 0.45474 0.16907 0.17068 0.0
C784 C 0.42919 0.16201 0.16347 0.0
C785 C 0.41306 0.18275 0.1508 0.0
H786 H 0.4672 0.15299 0.18048 0.0
H787 H 0.31342 0.35931 0.06712 0.0
H788 H 0.78315 0.64582 0.76546 0.0
H789 H 0.81828 0.61917 0.75901 0.0
H790 H 0.87138 0.68693 0.77687 0.0
H791 H 0.83605 0.71304 0.78436 0.0
H792 H 0.85587 0.62304 0.72563 0.0
H793 H 0.92266 0.66001 0.81945 0.0
H794 H 0.91965 0.67924 0.86457 0.0
H795 H 0.84445 0.64012 0.87315 0.0
H796 H 0.84719 0.62029 0.82842 0.0
H797 H 0.97342 0.57012 0.72348 0.0
H798 H 0.94086 0.60125 0.72564 0.0
H799 H 0.92287 0.55393 0.81116 0.0
H800 H 0.95627 0.52309 0.80957 0.0
H801 H 0.92013 0.6067 0.81116 0.0
H802 H 0.88653 0.54548 0.74605 0.0
H803 H 0.88561 0.52108 0.70392 0.0
H804 H 0.88762 0.5993 0.64326 0.0
H805 H 0.88892 0.6242 0.68509 0.0
C806 C 0.80235 0.65513 0.7673 0.0
C807 C 0.80705 0.68136 0.77531 0.0
C808 C 0.82239 0.63998 0.76364 0.0
C809 C 0.84753 0.65081 0.76797 0.0
C810 C 0.85216 0.67794 0.77389 0.0
C811 C 0.83204 0.69304 0.77774 0.0
C812 C 0.86866 0.63283 0.7684 0.0
C813 C 0.87002 0.61965 0.74423 0.0
C814 C 0.88669 0.62762 0.79309 0.0
C815 C 0.88506 0.63895 0.8204 0.0
C816 C 0.90554 0.65542 0.83106 0.0
C817 C 0.90387 0.66642 0.85656 0.0
C818 C 0.88184 0.66098 0.87166 0.0
C819 C 0.86148 0.6444 0.86139 0.0
C820 C 0.86308 0.63327 0.83596 0.0
C821 C 0.96264 0.56636 0.74286 0.0
C822 C 0.96725 0.54393 0.76625 0.0
C823 C 0.94392 0.58416 0.744 0.0
C824 C 0.92895 0.57962 0.76823 0.0
C825 C 0.93408 0.5578 0.79214 0.0
C826 C 0.95314 0.54016 0.79121 0.0
C827 C 0.90761 0.59727 0.76813 0.0
C828 C 0.90615 0.61031 0.79241 0.0
C829 C 0.88895 0.60161 0.74397 0.0
C830 C 0.88806 0.58671 0.71873 0.0
C831 C 0.88696 0.55749 0.72374 0.0
C832 C 0.88634 0.54356 0.69992 0.0
C833 C 0.88662 0.55863 0.67094 0.0
C834 C 0.88744 0.58766 0.66572 0.0
C835 C 0.8881 0.60169 0.68948 0.0
H836 H 0.88614 0.54781 0.65252 0.0
H837 H 0.88057 0.66957 0.89136 0.0
H838 H 0.84614 0.33602 0.22765 0.0
H839 H 0.88763 0.35961 0.23789 0.0
H840 H 0.86905 0.36 0.32702 0.0
H841 H 0.82703 0.33718 0.31615 0.0
H842 H 0.88651 0.41002 0.30218 0.0
H843 H 0.91535 0.3202 0.31359 0.0
H844 H 0.91963 0.27426 0.30141 0.0
H845 H 0.95421 0.31329 0.22176 0.0
H846 H 0.94975 0.35952 0.23317 0.0
H847 H 0.01019 0.47879 0.32355 0.0
H848 H 0.9756 0.44203 0.33071 0.0
H849 H 0.97193 0.43772 0.23781 0.0
H850 H 0.0062 0.47434 0.23045 0.0
H851 H 0.96829 0.38517 0.27486 0.0
H852 H 0.9324 0.47473 0.2613 0.0
H853 H 0.92812 0.52029 0.27447 0.0
H854 H 0.90691 0.47992 0.36083 0.0
H855 H 0.91162 0.43409 0.3484 0.0
C856 C 0.85112 0.34094 0.24947 0.0
C857 C 0.83348 0.33517 0.27103 0.0
C858 C 0.87487 0.35416 0.25546 0.0
C859 C 0.8816 0.36149 0.28333 0.0
C860 C 0.86432 0.35456 0.30538 0.0
C861 C 0.84046 0.34139 0.29929 0.0
C862 C 0.90569 0.37851 0.28825 0.0
C863 C 0.9045 0.40421 0.29693 0.0
C864 C 0.92917 0.37117 0.28111 0.0
C865 C 0.93208 0.34338 0.27418 0.0
C866 C 0.92371 0.31902 0.29337 0.0
C867 C 0.92619 0.29291 0.28661 0.0
C868 C 0.93716 0.29086 0.26081 0.0
C869 C 0.94572 0.31491 0.24174 0.0
C870 C 0.94325 0.34108 0.24836 0.0
C871 C 1.00214 0.46983 0.30472 0.0
C872 C 0.0108 0.47964 0.27638 0.0
C873 C 0.98239 0.44886 0.30885 0.0
C874 C 0.97115 0.43724 0.28475 0.0
C875 C 0.98038 0.44635 0.25671 0.0
C876 C 0.99986 0.46744 0.25252 0.0
C877 C 0.94881 0.41676 0.28801 0.0
C878 C 0.95036 0.39053 0.28078 0.0
C879 C 0.9257 0.42348 0.29672 0.0
C880 C 0.92269 0.45102 0.30406 0.0
C881 C 0.92705 0.47558 0.28319 0.0
C882 C 0.9245 0.50145 0.2905 0.0
C883 C 0.91728 0.50301 0.31847 0.0
C884 C 0.91255 0.47869 0.33919 0.0
C885 C 0.91518 0.45276 0.33204 0.0
H886 H 0.9153 0.52306 0.32407 0.0
H887 H 0.93906 0.27062 0.25562 0.0
H888 H 0.24176 0.35301 0.71845 0.0
H889 H 0.20495 0.37388 0.73071 0.0
H890 H 0.16949 0.29196 0.76091 0.0
H891 H 0.20647 0.27119 0.74833 0.0
H892 H 0.13552 0.32586 0.73044 0.0
H893 H 0.19746 0.32918 0.81072 0.0
H894 H 0.23996 0.33852 0.83462 0.0
H895 H 0.23657 0.42587 0.80028 0.0
H896 H 0.19423 0.41701 0.77567 0.0
H897 H 0.07221 0.42528 0.81354 0.0
H898 H 0.10344 0.39103 0.81454 0.0
H899 H 0.10026 0.40904 0.71895 0.0
H900 H 0.06936 0.4425 0.71768 0.0
H901 H 0.15052 0.39751 0.79404 0.0
H902 H 0.10475 0.35256 0.69139 0.0
H903 H 0.06194 0.34187 0.66898 0.0
H904 H 0.03162 0.33332 0.75367 0.0
H905 H 0.0743 0.34351 0.77672 0.0
C906 C 0.22597 0.3396 0.7275 0.0
C907 C 0.2268 0.31064 0.73262 0.0
C908 C 0.20505 0.35143 0.73464 0.0
C909 C 0.1847 0.33447 0.74734 0.0
C910 C 0.18504 0.30543 0.75131 0.0
C911 C 0.20601 0.29359 0.74404 0.0
C912 C 0.16333 0.3473 0.7567 0.0
C913 C 0.13874 0.34135 0.74452 0.0
C914 C 0.16741 0.36684 0.77593 0.0
C915 C 0.19268 0.37239 0.79122 0.0
C916 C 0.20581 0.35037 0.80813 0.0
C917 C 0.22989 0.35558 0.8218 0.0
C918 C 0.24096 0.38277 0.81895 0.0
C919 C 0.22796 0.40482 0.80247 0.0
C920 C 0.2039 0.39971 0.78868 0.0
C921 C 0.07812 0.42177 0.7928 0.0
C922 C 0.06819 0.43659 0.76557 0.0
C923 C 0.09595 0.40225 0.79339 0.0
C924 C 0.10383 0.39714 0.76678 0.0
C925 C 0.09407 0.41213 0.73974 0.0
C926 C 0.07644 0.43148 0.73911 0.0
C927 C 0.12298 0.37706 0.76655 0.0
C928 C 0.14718 0.38161 0.78045 0.0
C929 C 0.11844 0.35586 0.74935 0.0
C930 C 0.09277 0.34894 0.73577 0.0
C931 C 0.089 0.34817 0.7053 0.0
C932 C 0.06473 0.34226 0.69246 0.0
C933 C 0.04407 0.33698 0.70987 0.0
C934 C 0.04764 0.33749 0.74019 0.0
C935 C 0.07186 0.34335 0.75315 0.0
H936 H 0.02529 0.33248 0.69987 0.0
H937 H 0.25961 0.38676 0.82954 0.0
H938 H 0.30562 0.71394 0.34026 0.0
H939 H 0.26902 0.68128 0.33282 0.0
H940 H 0.26345 0.71638 0.23926 0.0
H941 H 0.29921 0.75004 0.2473 0.0
H942 H 0.21916 0.71259 0.25936 0.0
H943 H 0.28399 0.64917 0.2692 0.0
H944 H 0.32138 0.62515 0.29298 0.0
H945 H 0.28092 0.59048 0.36953 0.0
H946 H 0.24342 0.61474 0.34657 0.0
H947 H 0.12386 0.61084 0.22212 0.0
H948 H 0.16335 0.63987 0.22638 0.0
H949 H 0.16884 0.61193 0.32124 0.0
H950 H 0.12944 0.58253 0.31716 0.0
H951 H 0.21378 0.61106 0.29853 0.0
H952 H 0.15063 0.67645 0.2907 0.0
H953 H 0.11312 0.70092 0.2682 0.0
H954 H 0.15065 0.73175 0.18851 0.0
H955 H 0.18828 0.70713 0.2104 0.0
C956 C 0.29678 0.71419 0.31807 0.0
C957 C 0.30542 0.73406 0.29424 0.0
C958 C 0.27596 0.69549 0.31376 0.0
C959 C 0.26359 0.696 0.28536 0.0
C960 C 0.27274 0.7154 0.26134 0.0
C961 C 0.29342 0.73434 0.26579 0.0
C962 C 0.24003 0.67779 0.2812 0.0
C963 C 0.21818 0.69029 0.26742 0.0
C964 C 0.23841 0.64879 0.29249 0.0
C965 C 0.26092 0.63397 0.30622 0.0
C966 C 0.2831 0.63659 0.29119 0.0
C967 C 0.30432 0.62291 0.30451 0.0
C968 C 0.30353 0.60632 0.33271 0.0
C969 C 0.28151 0.60335 0.34767 0.0
C970 C 0.26026 0.61705 0.33452 0.0
C971 C 0.13335 0.61096 0.24394 0.0
C972 C 0.12338 0.59439 0.26932 0.0
C973 C 0.15594 0.62763 0.24633 0.0
C974 C 0.16901 0.62825 0.27415 0.0
C975 C 0.15911 0.61177 0.29953 0.0
C976 C 0.1365 0.59509 0.29718 0.0
C977 C 0.19309 0.64592 0.27674 0.0
C978 C 0.21494 0.63332 0.29026 0.0
C979 C 0.19475 0.67483 0.26526 0.0
C980 C 0.17217 0.6897 0.25208 0.0
C981 C 0.15081 0.68826 0.26829 0.0
C982 C 0.12954 0.70219 0.25567 0.0
C983 C 0.12947 0.71782 0.22691 0.0
C984 C 0.15071 0.7196 0.21076 0.0
C985 C 0.17202 0.70568 0.22327 0.0
H986 H 0.11299 0.7286 0.21718 0.0
H987 H 0.31999 0.59575 0.34295 0.0
H988 H 0.76075 0.72379 0.71766 0.0
H989 H 0.7691 0.76397 0.67805 0.0
H990 H 0.82494 0.79919 0.73737 0.0
H991 H 0.81552 0.75947 0.7771 0.0
H992 H 0.79517 0.83647 0.71336 0.0
H993 H 0.83992 0.77339 0.67458 0.0
H994 H 0.84647 0.7302 0.65752 0.0
H995 H 0.78654 0.7466 0.58884 0.0
H996 H 0.77936 0.78971 0.60577 0.0
H997 H 0.84916 0.94469 0.60718 0.0
H998 H 0.84232 0.90098 0.642 0.0
H999 H 0.77409 0.88036 0.58997 0.0
H1000 H 0.78063 0.92454 0.55495 0.0
H1001 H 0.80913 0.83582 0.60858 0.0
H1002 H 0.76599 0.90041 0.64901 0.0
H1003 H 0.76246 0.94429 0.66626 0.0
H1004 H 0.82368 0.92509 0.73258 0.0
H1005 H 0.82786 0.88129 0.71541 0.0
C1006 C 0.77537 0.73977 0.72168 0.0
C1007 C 0.78796 0.7385 0.74995 0.0
C1008 C 0.78012 0.76275 0.69917 0.0
C1009 C 0.79783 0.78467 0.70453 0.0
C1010 C 0.81121 0.78264 0.73259 0.0
C1011 C 0.80615 0.75985 0.75515 0.0
C1012 C 0.80082 0.81069 0.68192 0.0
C1013 C 0.79861 0.83622 0.69058 0.0
C1014 C 0.80465 0.81055 0.65191 0.0
C1015 C 0.80892 0.78465 0.64165 0.0
C1016 C 0.82798 0.76768 0.65599 0.0
C1017 C 0.83184 0.74323 0.64632 0.0
C1018 C 0.81688 0.73563 0.62216 0.0
C1019 C 0.79808 0.7525 0.60758 0.0
C1020 C 0.79412 0.77695 0.61719 0.0
C1021 C 0.83265 0.93093 0.60309 0.0
C1022 C 0.81537 0.93813 0.57834 0.0
C1023 C 0.82878 0.90595 0.62304 0.0
C1024 C 0.8077 0.88748 0.61858 0.0
C1025 C 0.7905 0.89437 0.59375 0.0
C1026 C 0.79416 0.91965 0.57392 0.0
C1027 C 0.80368 0.86123 0.64027 0.0
C1028 C 0.80566 0.83581 0.63141 0.0
C1029 C 0.80002 0.86144 0.67022 0.0
C1030 C 0.79738 0.88767 0.68074 0.0
C1031 C 0.77885 0.90565 0.6671 0.0
C1032 C 0.7767 0.93049 0.6769 0.0
C1033 C 0.79287 0.93749 0.70046 0.0
C1034 C 0.81118 0.91965 0.71431 0.0
C1035 C 0.81344 0.8948 0.70457 0.0
H1036 H 0.79115 0.9567 0.70806 0.0
H1037 H 0.8199 0.71669 0.6147 0.0
H1038 H 0.76803 0.32131 0.18328 0.0
H1039 H 0.73092 0.32394 0.14735 0.0
H1040 H 0.68493 0.33766 0.21486 0.0
H1041 H 0.7221 0.33392 0.25093 0.0
H1042 H 0.66142 0.30104 0.18835 0.0
H1043 H 0.70142 0.3902 0.15426 0.0
H1044 H 0.7362 0.42487 0.13793 0.0
H1045 H 0.74264 0.38662 0.06296 0.0
H1046 H 0.70815 0.35144 0.07907 0.0
H1047 H 0.57842 0.34957 0.04001 0.0
H1048 H 0.6116 0.36018 0.07771 0.0
H1049 H 0.62442 0.27304 0.10244 0.0
H1050 H 0.59106 0.26225 0.0656 0.0
H1051 H 0.66058 0.35411 0.08516 0.0
H1052 H 0.64002 0.25506 0.17452 0.0
H1053 H 0.60326 0.22403 0.19222 0.0
H1054 H 0.55417 0.28968 0.15978 0.0
H1055 H 0.59066 0.32123 0.14229 0.0
C1056 C 0.75001 0.32532 0.1901 0.0
C1057 C 0.74768 0.32755 0.21956 0.0
C1058 C 0.72885 0.32695 0.16965 0.0
C1059 C 0.70511 0.33139 0.17823 0.0
C1060 C 0.703 0.33426 0.20766 0.0
C1061 C 0.72412 0.33224 0.22819 0.0
C1062 C 0.68224 0.33099 0.15708 0.0
C1063 C 0.66121 0.31284 0.16587 0.0
C1064 C 0.6816 0.34684 0.12791 0.0
C1065 C 0.70228 0.36806 0.118 0.0
C1066 C 0.71036 0.38906 0.1344 0.0
C1067 C 0.73001 0.40882 0.12517 0.0
C1068 C 0.74165 0.40792 0.09945 0.0
C1069 C 0.73361 0.38729 0.08288 0.0
C1070 C 0.71398 0.36745 0.09203 0.0
C1071 C 0.58826 0.33269 0.05359 0.0
C1072 C 0.58195 0.30504 0.04998 0.0
C1073 C 0.60725 0.33879 0.07506 0.0
C1074 C 0.62023 0.31737 0.09323 0.0
C1075 C 0.61427 0.28986 0.08919 0.0
C1076 C 0.59522 0.28373 0.06799 0.0
C1077 C 0.64028 0.32351 0.11624 0.0
C1078 C 0.66072 0.34266 0.10778 0.0
C1079 C 0.64011 0.30918 0.14598 0.0
C1080 C 0.61809 0.29045 0.1569 0.0
C1081 C 0.62141 0.26293 0.17132 0.0
C1082 C 0.60061 0.24524 0.18128 0.0
C1083 C 0.57639 0.25486 0.17706 0.0
C1084 C 0.57293 0.28223 0.16296 0.0
C1085 C 0.59366 0.30002 0.15299 0.0
H1086 H 0.56031 0.24112 0.18475 0.0
H1087 H 0.75687 0.42324 0.09235 0.0
H1088 H 0.31798 0.2807 0.68432 0.0
H1089 H 0.33549 0.24722 0.66018 0.0
H1090 H 0.27643 0.18533 0.69187 0.0
H1091 H 0.26005 0.21845 0.71762 0.0
H1092 H 0.3186 0.16143 0.69503 0.0
H1093 H 0.27385 0.22517 0.61977 0.0
H1094 H 0.26386 0.27116 0.59104 0.0
H1095 H 0.3395 0.28559 0.56314 0.0
H1096 H 0.35003 0.23979 0.59207 0.0
H1097 H 0.30161 0.07663 0.5867 0.0
H1098 H 0.29829 0.11065 0.61794 0.0
H1099 H 0.36987 0.1519 0.59151 0.0
H1100 H 0.37358 0.11733 0.56017 0.0
H1101 H 0.32847 0.18759 0.58696 0.0
H1102 H 0.3699 0.11866 0.65828 0.0
H1103 H 0.37664 0.07123 0.68548 0.0
H1104 H 0.30335 0.06504 0.71913 0.0
H1105 H 0.29599 0.11229 0.69178 0.0
C1106 C 0.30921 0.25973 0.6867 0.0
C1107 C 0.28775 0.25206 0.70282 0.0
C1108 C 0.31896 0.24072 0.67256 0.0
C1109 C 0.30705 0.21382 0.67371 0.0
C1110 C 0.28595 0.20594 0.69053 0.0
C1111 C 0.27643 0.22488 0.70499 0.0
C1112 C 0.31589 0.19419 0.65662 0.0
C1113 C 0.32062 0.16715 0.67138 0.0
C1114 C 0.31913 0.20173 0.62583 0.0
C1115 C 0.31281 0.22921 0.60836 0.0
C1116 C 0.2884 0.23824 0.60769 0.0
C1117 C 0.28264 0.26426 0.59134 0.0
C1118 C 0.30106 0.28132 0.57535 0.0
C1119 C 0.32526 0.27237 0.57559 0.0
C1120 C 0.33114 0.24638 0.59195 0.0
C1121 C 0.31677 0.09283 0.58756 0.0
C1122 C 0.33784 0.09434 0.57086 0.0
C1123 C 0.31488 0.11218 0.60558 0.0
C1124 C 0.33389 0.13368 0.60719 0.0
C1125 C 0.35505 0.13535 0.59063 0.0
C1126 C 0.35717 0.1156 0.57284 0.0
C1127 C 0.33071 0.15484 0.62531 0.0
C1128 C 0.32693 0.18211 0.61073 0.0
C1129 C 0.32792 0.14737 0.65613 0.0
C1130 C 0.33234 0.11898 0.6728 0.0
C1131 C 0.35513 0.10712 0.6713 0.0
C1132 C 0.35908 0.08027 0.68678 0.0
C1133 C 0.34042 0.06511 0.70399 0.0
C1134 C 0.31779 0.0768 0.70579 0.0
C1135 C 0.31374 0.10364 0.69034 0.0
H1136 H 0.34351 0.04433 0.71595 0.0
H1137 H 0.29655 0.30146 0.5627 0.0
H1138 H 0.33907 0.76966 0.23034 0.0
H1139 H 0.36235 0.75085 0.19619 0.0
H1140 H 0.40489 0.70454 0.2711 0.0
H1141 H 0.37993 0.72176 0.30484 0.0
H1142 H 0.40651 0.76105 0.18602 0.0
H1143 H 0.43367 0.65343 0.25611 0.0
H1144 H 0.41283 0.61293 0.28771 0.0
H1145 H 0.34037 0.63453 0.24462 0.0
H1146 H 0.36074 0.67509 0.21284 0.0
H1147 H 0.52046 0.73712 0.14077 0.0
H1148 H 0.48678 0.73991 0.17228 0.0
H1149 H 0.44623 0.66789 0.14456 0.0
H1150 H 0.48078 0.66423 0.11401 0.0
H1151 H 0.43739 0.66694 0.19899 0.0
H1152 H 0.43129 0.7345 0.11186 0.0
H1153 H 0.44532 0.77249 0.07211 0.0
H1154 H 0.463 0.82659 0.13525 0.0
H1155 H 0.44952 0.78876 0.17552 0.0
C1156 C 0.35253 0.75438 0.23926 0.0
C1157 C 0.35737 0.74649 0.26999 0.0
C1158 C 0.36616 0.74396 0.21985 0.0
C1159 C 0.38546 0.72606 0.23085 0.0
C1160 C 0.38974 0.71762 0.26178 0.0
C1161 C 0.3756 0.72751 0.28113 0.0
C1162 C 0.40295 0.7189 0.21036 0.0
C1163 C 0.413 0.74036 0.18882 0.0
C1164 C 0.41105 0.69177 0.21303 0.0
C1165 C 0.39874 0.66743 0.23226 0.0
C1166 C 0.4133 0.6495 0.25336 0.0
C1167 C 0.40155 0.62657 0.27137 0.0
C1168 C 0.37527 0.62123 0.26831 0.0
C1169 C 0.36069 0.63879 0.24719 0.0
C1170 C 0.37232 0.6618 0.22924 0.0
C1171 C 0.50458 0.72157 0.14182 0.0
C1172 C 0.50311 0.70059 0.1248 0.0
C1173 C 0.48523 0.72328 0.15967 0.0
C1174 C 0.46352 0.70465 0.16012 0.0
C1175 C 0.46266 0.68266 0.14444 0.0
C1176 C 0.48241 0.68055 0.12702 0.0
C1177 C 0.4414 0.70933 0.17566 0.0
C1178 C 0.43057 0.68748 0.19614 0.0
C1179 C 0.43149 0.73576 0.17089 0.0
C1180 C 0.43955 0.75871 0.14676 0.0
C1181 C 0.43833 0.75445 0.11731 0.0
C1182 C 0.44616 0.77595 0.09468 0.0
C1183 C 0.45506 0.80193 0.10115 0.0
C1184 C 0.45611 0.80645 0.13028 0.0
C1185 C 0.44836 0.78498 0.15302 0.0
H1186 H 0.4611 0.81856 0.08359 0.0
H1187 H 0.36622 0.60345 0.28223 0.0
H1188 H 0.77925 0.28817 0.33345 0.0
H1189 H 0.79055 0.2466 0.36954 0.0
H1190 H 0.84347 0.22975 0.31094 0.0
H1191 H 0.83204 0.27149 0.27492 0.0
H1192 H 0.81001 0.18473 0.32853 0.0
H1193 H 0.86577 0.24862 0.37369 0.0
H1194 H 0.87804 0.29109 0.39424 0.0
H1195 H 0.82604 0.26417 0.46176 0.0
H1196 H 0.8131 0.22173 0.4413 0.0
H1197 H 0.86576 0.09116 0.4718 0.0
H1198 H 0.86462 0.13529 0.437 0.0
H1199 H 0.78572 0.11593 0.41242 0.0
H1200 H 0.78668 0.07145 0.44724 0.0
H1201 H 0.8375 0.17932 0.43524 0.0
H1202 H 0.77416 0.14317 0.33847 0.0
H1203 H 0.76433 0.10093 0.31675 0.0
H1204 H 0.83722 0.07264 0.35067 0.0
H1205 H 0.84761 0.11487 0.37221 0.0
C1206 C 0.79375 0.27588 0.32881 0.0
C1207 C 0.80493 0.28281 0.30173 0.0
C1208 C 0.80017 0.2522 0.34928 0.0
C1209 C 0.81782 0.23506 0.34287 0.0
C1210 C 0.82979 0.24268 0.31627 0.0
C1211 C 0.8235 0.26654 0.29591 0.0
C1212 C 0.8222 0.20819 0.36294 0.0
C1213 C 0.81613 0.18354 0.35183 0.0
C1214 C 0.83045 0.20668 0.39325 0.0
C1215 C 0.83832 0.23207 0.40581 0.0
C1216 C 0.85679 0.25184 0.39278 0.0
C1217 C 0.8639 0.27591 0.40443 0.0
C1218 C 0.8528 0.28035 0.42926 0.0
C1219 C 0.83461 0.2607 0.44252 0.0
C1220 C 0.8274 0.23662 0.43092 0.0
C1221 C 0.84813 0.09615 0.45895 0.0
C1222 C 0.8263 0.07768 0.46227 0.0
C1223 C 0.84752 0.1215 0.43914 0.0
C1224 C 0.82515 0.12887 0.42201 0.0
C1225 C 0.80328 0.11052 0.42521 0.0
C1226 C 0.80384 0.08514 0.44516 0.0
C1227 C 0.82476 0.15585 0.40096 0.0
C1228 C 0.8315 0.18051 0.41191 0.0
C1229 C 0.81747 0.15739 0.3704 0.0
C1230 C 0.81154 0.13207 0.3572 0.0
C1231 C 0.78812 0.12798 0.34119 0.0
C1232 C 0.78245 0.10404 0.32893 0.0
C1233 C 0.80011 0.08407 0.33241 0.0
C1234 C 0.82352 0.08806 0.34808 0.0
C1235 C 0.82929 0.11199 0.36036 0.0
H1236 H 0.79567 0.06554 0.32292 0.0
H1237 H 0.85832 0.29899 0.43825 0.0
H1238 H 0.33349 0.31346 0.71705 0.0
H1239 H 0.37494 0.31061 0.74536 0.0
H1240 H 0.34082 0.25141 0.81544 0.0
H1241 H 0.30021 0.25276 0.78576 0.0
H1242 H 0.38994 0.32637 0.79157 0.0
H1243 H 0.38032 0.21234 0.85973 0.0
H1244 H 0.36415 0.16572 0.851 0.0
H1245 H 0.37273 0.19186 0.7578 0.0
H1246 H 0.38937 0.23848 0.76601 0.0
H1247 H 0.46031 0.32135 0.92802 0.0
H1248 H 0.42899 0.31971 0.88595 0.0
H1249 H 0.46722 0.25466 0.86133 0.0
H1250 H 0.49719 0.2548 0.90492 0.0
H1251 H 0.42244 0.24115 0.85399 0.0
H1252 H 0.46823 0.32644 0.82098 0.0
H1253 H 0.48939 0.373 0.8225 0.0
H1254 H 0.41824 0.40366 0.8322 0.0
H1255 H 0.39669 0.35719 0.83115 0.0
C1256 C 0.33537 0.29904 0.73795 0.0
C1257 C 0.31419 0.28271 0.7491 0.0
C1258 C 0.35885 0.29765 0.75432 0.0
C1259 C 0.36127 0.2805 0.78251 0.0
C1260 C 0.33988 0.26407 0.79343 0.0
C1261 C 0.31666 0.26488 0.77664 0.0
C1262 C 0.38534 0.28157 0.80169 0.0
C1263 C 0.3972 0.30768 0.80495 0.0
C1264 C 0.39553 0.25725 0.81851 0.0
C1265 C 0.38596 0.22901 0.8135 0.0
C1266 C 0.37895 0.2081 0.83741 0.0
C1267 C 0.36966 0.18167 0.83253 0.0
C1268 C 0.36737 0.17585 0.80386 0.0
C1269 C 0.37446 0.19641 0.78 0.0
C1270 C 0.3838 0.22285 0.78475 0.0
C1271 C 0.46202 0.30688 0.91344 0.0
C1272 C 0.48106 0.28823 0.91955 0.0
C1273 C 0.44426 0.30607 0.88922 0.0
C1274 C 0.44589 0.28743 0.86989 0.0
C1275 C 0.46537 0.26919 0.87581 0.0
C1276 C 0.48256 0.26933 0.90063 0.0
C1277 C 0.42655 0.286 0.84452 0.0
C1278 C 0.41554 0.25982 0.84017 0.0
C1279 C 0.41804 0.3102 0.82554 0.0
C1280 C 0.43087 0.33825 0.82617 0.0
C1281 C 0.45712 0.34306 0.82362 0.0
C1282 C 0.46918 0.36945 0.82438 0.0
C1283 C 0.45518 0.39126 0.82749 0.0
C1284 C 0.42907 0.38674 0.8298 0.0
C1285 C 0.41691 0.36039 0.82908 0.0
H1286 H 0.46455 0.41167 0.82807 0.0
H1287 H 0.36013 0.15539 0.80014 0.0
H1288 H 0.33818 0.7863 0.37804 0.0
H1289 H 0.34408 0.82374 0.40694 0.0
H1290 H 0.36872 0.88134 0.3301 0.0
H1291 H 0.3617 0.84407 0.30078 0.0
H1292 H 0.39844 0.88293 0.39132 0.0
H1293 H 0.31505 0.88738 0.33851 0.0
H1294 H 0.27352 0.86608 0.32261 0.0
H1295 H 0.2568 0.83956 0.41358 0.0
H1296 H 0.29847 0.86026 0.43002 0.0
H1297 H 0.38259 0.00598 0.44941 0.0
H1298 H 0.38613 0.97066 0.41914 0.0
H1299 H 0.33354 0.91452 0.47212 0.0
H1300 H 0.32898 0.9502 0.50096 0.0
H1301 H 0.31937 0.91406 0.41895 0.0
H1302 H 0.40063 0.90686 0.47369 0.0
H1303 H 0.44289 0.92365 0.49284 0.0
H1304 H 0.46453 0.95102 0.40382 0.0
H1305 H 0.42227 0.9347 0.38412 0.0
C1306 C 0.34482 0.80696 0.36739 0.0
C1307 C 0.34928 0.81242 0.33719 0.0
C1308 C 0.34841 0.82822 0.38391 0.0
C1309 C 0.35688 0.85523 0.37062 0.0
C1310 C 0.36239 0.86054 0.34077 0.0
C1311 C 0.3584 0.83932 0.3241 0.0
C1312 C 0.35775 0.87823 0.38734 0.0
C1313 C 0.38123 0.89013 0.3971 0.0
C1314 C 0.33527 0.88699 0.39536 0.0
C1315 C 0.30996 0.87514 0.38548 0.0
C1316 C 0.3026 0.87682 0.35512 0.0
C1317 C 0.27903 0.86487 0.34601 0.0
C1318 C 0.26256 0.85141 0.36707 0.0
C1319 C 0.26959 0.84996 0.39729 0.0
C1320 C 0.29318 0.86181 0.40651 0.0
C1321 C 0.37217 0.9859 0.45476 0.0
C1322 C 0.35547 0.98076 0.47739 0.0
C1323 C 0.37421 0.96567 0.43753 0.0
C1324 C 0.36013 0.93974 0.44329 0.0
C1325 C 0.34441 0.93435 0.46691 0.0
C1326 C 0.3419 0.9547 0.48352 0.0
C1327 C 0.36023 0.91874 0.42384 0.0
C1328 C 0.33677 0.90716 0.4133 0.0
C1329 C 0.3828 0.90998 0.41566 0.0
C1330 C 0.40819 0.91985 0.42743 0.0
C1331 C 0.41433 0.91667 0.4582 0.0
C1332 C 0.4383 0.92606 0.46915 0.0
C1333 C 0.45635 0.93847 0.44956 0.0
C1334 C 0.45051 0.94145 0.41896 0.0
C1335 C 0.42656 0.93211 0.40789 0.0
H1336 H 0.4749 0.94572 0.45808 0.0
H1337 H 0.24432 0.84216 0.35998 0.0
H1338 H 0.75009 0.73383 0.84998 0.0
H1339 H 0.71953 0.72714 0.88777 0.0
H1340 H 0.69136 0.64861 0.86375 0.0
H1341 H 0.72137 0.65604 0.825 0.0
H1342 H 0.6531 0.67642 0.87153 0.0
H1343 H 0.72955 0.65117 0.92771 0.0
H1344 H 0.77478 0.65584 0.94477 0.0
H1345 H 0.76315 0.72942 0.97752 0.0
H1346 H 0.71791 0.72546 0.96023 0.0
H1347 H 0.58218 0.64964 0.00285 0.0
H1348 H 0.61256 0.6437 0.96784 0.0
H1349 H 0.64433 0.72779 0.96691 0.0
H1350 H 0.61419 0.73399 1.00127 0.0
H1351 H 0.68087 0.68832 0.97444 0.0
H1352 H 0.60518 0.71545 0.91162 0.0
H1353 H 0.55998 0.70965 0.8947 0.0
H1354 H 0.57073 0.6295 0.87577 0.0
H1355 H 0.61596 0.63469 0.89299 0.0
C1356 C 0.73719 0.71531 0.85269 0.0
C1357 C 0.73793 0.69546 0.83469 0.0
C1358 C 0.71996 0.7113 0.87445 0.0
C1359 C 0.7034 0.68713 0.87896 0.0
C1360 C 0.70402 0.66734 0.8608 0.0
C1361 C 0.72119 0.67147 0.83886 0.0
C1362 C 0.6852 0.68297 0.90228 0.0
C1363 C 0.65925 0.67844 0.89418 0.0
C1364 C 0.69313 0.68569 0.93186 0.0
C1365 C 0.72034 0.6881 0.94248 0.0
C1366 C 0.73666 0.66846 0.93837 0.0
C1367 C 0.76231 0.67097 0.9481 0.0
C1368 C 0.77184 0.69294 0.96218 0.0
C1369 C 0.75574 0.71242 0.9666 0.0
C1370 C 0.73008 0.71003 0.95687 0.0
C1371 C 0.59567 0.6668 0.99515 0.0
C1372 C 0.59569 0.69232 0.00469 0.0
C1373 C 0.61295 0.6634 0.97517 0.0
C1374 C 0.63065 0.68534 0.96483 0.0
C1375 C 0.63088 0.7106 0.97469 0.0
C1376 C 0.6135 0.71413 0.99421 0.0
C1377 C 0.64891 0.68258 0.94339 0.0
C1378 C 0.67486 0.68578 0.9519 0.0
C1379 C 0.641 0.67836 0.91434 0.0
C1380 C 0.61385 0.67529 0.90395 0.0
C1381 C 0.59785 0.69647 0.90412 0.0
C1382 C 0.57224 0.69333 0.89441 0.0
C1383 C 0.56246 0.66918 0.88426 0.0
C1384 C 0.57831 0.64816 0.8837 0.0
C1385 C 0.60393 0.6512 0.89342 0.0
H1386 H 0.54263 0.66678 0.87675 0.0
H1387 H 0.79171 0.69485 0.9697 0.0
loop_
_geom_bond_atom_site_label_1
_geom_bond_atom_site_label_2
_geom_bond_distance
_geom_bond_site_symmetry_2
_ccdc_geom_bond_type
C0 N1 1.317 . S
C0 N2 1.348 . S
C0 C3 1.485 . S
N1 C0 1.317 . S
N1 N5 1.370 . S
N2 C0 1.348 . S
N2 C4 1.346 . S
C3 C0 1.485 . S
C3 H7 0.960 . S
C3 H8 0.961 . S
C3 H9 0.960 . S
C4 N2 1.346 . S
C4 N5 1.307 . S
C4 C6 1.486 . S
N5 N1 1.370 . S
N5 C4 1.307 . S
C6 C4 1.486 . S
C6 H10 0.960 . S
C6 H11 0.960 . S
C6 H12 0.959 . S
H7 C3 0.960 . S
H8 C3 0.961 . S
H9 C3 0.960 . S
H10 C6 0.960 . S
H11 C6 0.960 . S
H12 C6 0.959 . S
C13 N14 1.317 . S
C13 N15 1.348 . S
C13 C16 1.485 . S
N14 C13 1.317 . S
N14 N18 1.370 . S
N15 C13 1.348 . S
N15 C17 1.346 . S
C16 C13 1.485 . S
C16 H20 0.960 . S
C16 H21 0.961 . S
C16 H22 0.960 . S
C17 N15 1.346 . S
C17 N18 1.307 . S
C17 C19 1.486 . S
N18 N14 1.370 . S
N18 C17 1.307 . S
C19 C17 1.486 . S
C19 H23 0.960 . S
C19 H24 0.960 . S
C19 H25 0.959 . S
H20 C16 0.960 . S
H21 C16 0.961 . S
H22 C16 0.960 . S
H23 C19 0.960 . S
H24 C19 0.960 . S
H25 C19 0.959 . S
C26 N27 1.317 . S
C26 N28 1.348 . S
C26 C29 1.485 . S
N27 C26 1.317 . S
N27 N31 1.370 . S
N28 C26 1.348 . S
N28 C30 1.346 . S
C29 C26 1.485 . S
C29 H33 0.960 . S
C29 H34 0.961 . S
C29 H35 0.960 . S
C30 N28 1.346 . S
C30 N31 1.307 . S
C30 C32 1.486 . S
N31 N27 1.370 . S
N31 C30 1.307 . S
C32 C30 1.486 . S
C32 H36 0.960 . S
C32 H37 0.960 . S
C32 H38 0.959 . S
H33 C29 0.960 . S
H34 C29 0.961 . S
H35 C29 0.960 . S
H36 C32 0.960 . S
H37 C32 0.960 . S
H38 C32 0.959 . S
C39 N40 1.317 . S
C39 N41 1.348 . S
C39 C42 1.485 . S
N40 C39 1.317 . S
N40 N44 1.370 . S
N41 C39 1.348 . S
N41 C43 1.346 . S
C42 C39 1.485 . S
C42 H46 0.960 . S
C42 H47 0.961 . S
C42 H48 0.960 . S
C43 N41 1.346 . S
C43 N44 1.307 . S
C43 C45 1.486 . S
N44 N40 1.370 . S
N44 C43 1.307 . S
C45 C43 1.486 . S
C45 H49 0.960 . S
C45 H50 0.960 . S
C45 H51 0.959 . S
H46 C42 0.960 . S
H47 C42 0.961 . S
H48 C42 0.960 . S
H49 C45 0.960 . S
H50 C45 0.960 . S
H51 C45 0.959 . S
C52 N53 1.317 . S
C52 N54 1.348 . S
C52 C55 1.485 . S
N53 C52 1.317 . S
N53 N57 1.370 . S
N54 C52 1.348 . S
N54 C56 1.346 . S
C55 C52 1.485 . S
C55 H59 0.960 . S
C55 H60 0.961 . S
C55 H61 0.960 . S
C56 N54 1.346 . S
C56 N57 1.307 . S
C56 C58 1.486 . S
N57 N53 1.370 . S
N57 C56 1.307 . S
C58 C56 1.486 . S
C58 H62 0.960 . S
C58 H63 0.960 . S
C58 H64 0.959 . S
H59 C55 0.960 . S
H60 C55 0.961 . S
H61 C55 0.960 . S
H62 C58 0.960 . S
H63 C58 0.960 . S
H64 C58 0.959 . S
C65 N66 1.317 . S
C65 N67 1.348 . S
C65 C68 1.485 . S
N66 C65 1.317 . S
N66 N70 1.370 . S
N67 C65 1.348 . S
N67 C69 1.346 . S
C68 C65 1.485 . S
C68 H72 0.960 . S
C68 H73 0.961 . S
C68 H74 0.960 . S
C69 N67 1.346 . S
C69 N70 1.307 . S
C69 C71 1.486 . S
N70 N66 1.370 . S
N70 C69 1.307 . S
C71 C69 1.486 . S
C71 H75 0.960 . S
C71 H76 0.960 . S
C71 H77 0.959 . S
H72 C68 0.960 . S
H73 C68 0.961 . S
H74 C68 0.960 . S
H75 C71 0.960 . S
H76 C71 0.960 . S
H77 C71 0.959 . S
C78 N79 1.317 . S
C78 N80 1.348 . S
C78 C81 1.485 . S
N79 C78 1.317 . S
N79 N83 1.370 . S
N80 C78 1.348 . S
N80 C82 1.346 . S
C81 C78 1.485 . S
C81 H85 0.960 . S
C81 H86 0.961 . S
C81 H87 0.960 . S
C82 N80 1.346 . S
C82 N83 1.307 . S
C82 C84 1.486 . S
N83 N79 1.370 . S
N83 C82 1.307 . S
C84 C82 1.486 . S
C84 H88 0.960 . S
C84 H89 0.960 . S
C84 H90 0.959 . S
H85 C81 0.960 . S
H86 C81 0.961 . S
H87 C81 0.960 . S
H88 C84 0.960 . S
H89 C84 0.960 . S
H90 C84 0.959 . S
C91 N92 1.317 . S
C91 N93 1.348 . S
C91 C94 1.485 . S
N92 C91 1.317 . S
N92 N96 1.370 . S
N93 C91 1.348 . S
N93 C95 1.346 . S
C94 C91 1.485 . S
C94 H98 0.960 . S
C94 H99 0.961 . S
C94 H100 0.960 . S
C95 N93 1.346 . S
C95 N96 1.307 . S
C95 C97 1.486 . S
N96 N92 1.370 . S
N96 C95 1.307 . S
C97 C95 1.486 . S
C97 H101 0.960 . S
C97 H102 0.960 . S
C97 H103 0.959 . S
H98 C94 0.960 . S
H99 C94 0.961 . S
H100 C94 0.960 . S
H101 C97 0.960 . S
H102 C97 0.960 . S
H103 C97 0.959 . S
C104 O106 1.247 . S
C104 O108 1.258 . S
C105 O112 1.247 . S
C105 O113 1.258 . S
O106 C104 1.247 . S
O106 Zn107 2.028 . S
Zn107 O106 2.028 . S
Zn107 O111 2.035 . S
Zn107 O113 2.035 . S
Zn107 O114 2.028 . S
O108 C104 1.258 . S
O108 Zn109 2.035 . S
Zn109 O108 2.035 . S
Zn109 O110 2.028 . S
Zn109 O112 2.028 . S
Zn109 O115 2.035 . S
O110 Zn109 2.028 . S
O110 C116 1.247 . S
O111 Zn107 2.035 . S
O111 C116 1.258 . S
O112 C105 1.247 . S
O112 Zn109 2.028 . S
O113 C105 1.258 . S
O113 Zn107 2.035 . S
O114 Zn107 2.028 . S
O114 C117 1.247 . S
O115 Zn109 2.035 . S
O115 C117 1.258 . S
C116 O110 1.247 . S
C116 O111 1.258 . S
C117 O114 1.247 . S
C117 O115 1.258 . S
C118 O120 1.247 . S
C118 O122 1.258 . S
C119 O126 1.247 . S
C119 O127 1.258 . S
O120 C118 1.247 . S
O120 Zn121 2.028 1_655 S
Zn121 O120 2.028 1_455 S
Zn121 O125 2.035 . S
Zn121 O127 2.035 . S
Zn121 O128 2.028 1_455 S
O122 C118 1.258 . S
O122 Zn123 2.063 . S
Zn123 O122 2.063 . S
Zn123 O124 2.002 1_655 S
Zn123 O126 2.001 1_655 S
Zn123 O129 2.062 . S
O124 Zn123 2.002 1_455 S
O124 C130 1.247 . S
O125 Zn121 2.035 . S
O125 C130 1.258 . S
O126 C119 1.247 . S
O126 Zn123 2.001 1_455 S
O127 C119 1.258 . S
O127 Zn121 2.035 . S
O128 Zn121 2.028 1_655 S
O128 C131 1.247 . S
O129 Zn123 2.062 . S
O129 C131 1.258 . S
C130 O124 1.247 . S
C130 O125 1.258 . S
C131 O128 1.247 . S
C131 O129 1.258 . S
C132 O134 1.247 . S
C132 O136 1.258 1_565 S
C133 O140 1.247 . S
C133 O141 1.258 . S
O134 C132 1.247 . S
O134 Zn135 2.028 1_565 S
Zn135 O134 2.028 1_545 S
Zn135 O139 2.035 . S
Zn135 O141 2.035 . S
Zn135 O142 2.028 . S
O136 C132 1.258 1_545 S
O136 Zn137 2.035 . S
Zn137 O136 2.035 . S
Zn137 O138 2.028 . S
Zn137 O140 2.028 . S
Zn137 O143 2.035 . S
O138 Zn137 2.028 . S
O138 C144 1.247 . S
O139 Zn135 2.035 . S
O139 C144 1.258 . S
O140 C133 1.247 . S
O140 Zn137 2.028 . S
O141 C133 1.258 . S
O141 Zn135 2.035 . S
O142 Zn135 2.028 . S
O142 C145 1.247 1_545 S
O143 Zn137 2.035 . S
O143 C145 1.258 1_545 S
C144 O138 1.247 . S
C144 O139 1.258 . S
C145 O142 1.247 1_565 S
C145 O143 1.258 1_565 S
C146 O148 1.247 . S
C146 O150 1.258 . S
C147 O154 1.247 . S
C147 O155 1.258 . S
O148 C146 1.247 . S
O148 Zn149 2.028 . S
Zn149 O148 2.028 . S
Zn149 O153 2.035 . S
Zn149 O155 2.035 . S
Zn149 O156 2.028 . S
O150 C146 1.258 . S
O150 Zn151 2.035 . S
Zn151 O150 2.035 . S
Zn151 O152 2.028 . S
Zn151 O154 2.028 . S
Zn151 O157 2.035 . S
O152 Zn151 2.028 . S
O152 C158 1.247 . S
O153 Zn149 2.035 . S
O153 C158 1.258 . S
O154 C147 1.247 . S
O154 Zn151 2.028 . S
O155 C147 1.258 . S
O155 Zn149 2.035 . S
O156 Zn149 2.028 . S
O156 C159 1.247 . S
O157 Zn151 2.035 . S
O157 C159 1.258 . S
C158 O152 1.247 . S
C158 O153 1.258 . S
C159 O156 1.247 . S
C159 O157 1.258 . S
C160 O162 1.247 1_565 S
C160 O164 1.258 1_565 S
C161 O168 1.247 . S
C161 O169 1.258 . S
O162 C160 1.247 1_545 S
O162 Zn163 2.028 . S
Zn163 O162 2.028 . S
Zn163 O167 2.035 . S
Zn163 O169 2.035 . S
Zn163 O170 2.028 . S
O164 C160 1.258 1_545 S
O164 Zn165 2.035 . S
Zn165 O164 2.035 . S
Zn165 O166 2.028 . S
Zn165 O168 2.028 . S
Zn165 O171 2.035 . S
O166 Zn165 2.028 . S
O166 C172 1.247 . S
O167 Zn163 2.035 . S
O167 C172 1.258 . S
O168 C161 1.247 . S
O168 Zn165 2.028 . S
O169 C161 1.258 . S
O169 Zn163 2.035 . S
O170 Zn163 2.028 . S
O170 C173 1.247 . S
O171 Zn165 2.035 . S
O171 C173 1.258 . S
C172 O166 1.247 . S
C172 O167 1.258 . S
C173 O170 1.247 . S
C173 O171 1.258 . S
C174 O176 1.247 . S
C174 O178 1.258 . S
C175 O182 1.247 . S
C175 O183 1.258 . S
O176 C174 1.247 . S
O176 Zn177 2.028 . S
Zn177 O176 2.028 . S
Zn177 O181 2.035 . S
Zn177 O183 2.035 1_554 S
Zn177 O184 2.028 1_554 S
O178 C174 1.258 . S
O178 Zn179 2.035 1_554 S
Zn179 O178 2.035 1_556 S
Zn179 O180 2.028 1_556 S
Zn179 O182 2.028 . S
Zn179 O185 2.035 . S
O180 Zn179 2.028 1_554 S
O180 C186 1.247 . S
O181 Zn177 2.035 . S
O181 C186 1.258 . S
O182 C175 1.247 . S
O182 Zn179 2.028 . S
O183 C175 1.258 . S
O183 Zn177 2.035 1_556 S
O184 Zn177 2.028 1_556 S
O184 C187 1.247 . S
O185 Zn179 2.035 . S
O185 C187 1.258 . S
C186 O180 1.247 . S
C186 O181 1.258 . S
C187 O184 1.247 . S
C187 O185 1.258 . S
H188 C206 0.951 . S
H189 C208 0.951 . S
H190 C210 0.950 . S
H191 C211 0.950 . S
H192 C213 0.950 . S
H193 C216 0.950 . S
H194 C217 0.950 . S
H195 C219 0.950 . S
H196 C220 0.950 . S
H197 C221 0.951 . S
H198 C223 0.951 . S
H199 C225 0.950 . S
H200 C226 0.950 . S
H201 C228 0.950 . S
H202 C231 0.950 . S
H203 C232 0.950 . S
H204 C234 0.950 . S
H205 C235 0.950 . S
C206 H188 0.951 . S
C206 C207 1.366 . S
C206 C208 1.388 . S
C207 C206 1.366 . S
C207 C211 1.385 . S
C208 H189 0.951 . S
C208 C206 1.388 . S
C208 C209 1.366 . S
C209 C208 1.366 . S
C209 C210 1.414 . S
C209 C212 1.499 . S
C210 H190 0.950 . S
C210 C209 1.414 . S
C210 C211 1.374 . S
C211 H191 0.950 . S
C211 C207 1.385 . S
C211 C210 1.374 . S
C212 C209 1.499 . S
C212 C213 1.373 . S
C212 C214 1.389 . S
C213 H192 0.950 . S
C213 C212 1.373 . S
C213 C229 1.377 . S
C214 C212 1.389 . S
C214 C215 1.524 . S
C214 C228 1.377 . S
C215 C214 1.524 . S
C215 C216 1.397 . S
C215 C220 1.363 . S
C216 H193 0.950 . S
C216 C215 1.397 . S
C216 C217 1.334 . S
C217 H194 0.950 . S
C217 C216 1.334 . S
C217 C218 1.287 . S
C218 C217 1.287 . S
C218 C219 1.524 . S
C218 H237 0.913 . S
C219 H195 0.950 . S
C219 C218 1.524 . S
C219 C220 1.415 . S
C220 H196 0.950 . S
C220 C215 1.363 . S
C220 C219 1.415 . S
C221 H197 0.951 . S
C221 C222 1.366 . S
C221 C223 1.388 . S
C222 C221 1.366 . S
C222 C226 1.385 . S
C223 H198 0.951 . S
C223 C221 1.388 . S
C223 C224 1.366 . S
C224 C223 1.366 . S
C224 C225 1.414 . S
C224 C227 1.499 . S
C225 H199 0.950 . S
C225 C224 1.414 . S
C225 C226 1.374 . S
C226 H200 0.950 . S
C226 C222 1.385 . S
C226 C225 1.374 . S
C227 C224 1.499 . S
C227 C228 1.373 . S
C227 C229 1.389 . S
C228 H201 0.950 . S
C228 C214 1.377 . S
C228 C227 1.373 . S
C229 C213 1.377 . S
C229 C227 1.389 . S
C229 C230 1.524 . S
C230 C229 1.524 . S
C230 C231 1.397 . S
C230 C235 1.363 . S
C231 H202 0.950 . S
C231 C230 1.397 . S
C231 C232 1.334 . S
C232 H203 0.950 . S
C232 C231 1.334 . S
C232 C233 1.287 . S
C233 C232 1.287 . S
C233 C234 1.524 . S
C233 H236 0.999 . S
C234 H204 0.950 . S
C234 C233 1.524 . S
C234 C235 1.415 . S
C235 H205 0.950 . S
C235 C230 1.363 . S
C235 C234 1.415 . S
H236 C233 0.999 . S
H237 C218 0.913 . S
H238 C256 0.951 . S
H239 C258 0.951 . S
H240 C260 0.950 . S
H241 C261 0.950 . S
H242 C263 0.950 . S
H243 C266 0.950 . S
H244 C267 0.950 . S
H245 C269 0.950 . S
H246 C270 0.950 . S
H247 C271 0.951 . S
H248 C273 0.951 . S
H249 C275 0.950 . S
H250 C276 0.950 . S
H251 C278 0.950 . S
H252 C281 0.950 . S
H253 C282 0.950 . S
H254 C284 0.950 . S
H255 C285 0.950 . S
C256 H238 0.951 . S
C256 C257 1.366 . S
C256 C258 1.388 . S
C257 C256 1.366 . S
C257 C261 1.385 . S
C258 H239 0.951 . S
C258 C256 1.388 . S
C258 C259 1.366 . S
C259 C258 1.366 . S
C259 C260 1.414 . S
C259 C262 1.499 . S
C260 H240 0.950 . S
C260 C259 1.414 . S
C260 C261 1.374 . S
C261 H241 0.950 . S
C261 C257 1.385 . S
C261 C260 1.374 . S
C262 C259 1.499 . S
C262 C263 1.373 . S
C262 C264 1.389 . S
C263 H242 0.950 . S
C263 C262 1.373 . S
C263 C279 1.377 . S
C264 C262 1.389 . S
C264 C265 1.524 . S
C264 C278 1.377 . S
C265 C264 1.524 . S
C265 C266 1.397 . S
C265 C270 1.363 . S
C266 H243 0.950 . S
C266 C265 1.397 . S
C266 C267 1.334 . S
C267 H244 0.950 . S
C267 C266 1.334 . S
C267 C268 1.287 . S
C268 C267 1.287 . S
C268 C269 1.524 . S
C268 H287 0.913 . S
C269 H245 0.950 . S
C269 C268 1.524 . S
C269 C270 1.415 . S
C270 H246 0.950 . S
C270 C265 1.363 . S
C270 C269 1.415 . S
C271 H247 0.951 . S
C271 C272 1.366 . S
C271 C273 1.388 . S
C272 C271 1.366 . S
C272 C276 1.385 . S
C273 H248 0.951 . S
C273 C271 1.388 . S
C273 C274 1.366 . S
C274 C273 1.366 . S
C274 C275 1.414 . S
C274 C277 1.499 . S
C275 H249 0.950 . S
C275 C274 1.414 . S
C275 C276 1.374 . S
C276 H250 0.950 . S
C276 C272 1.385 . S
C276 C275 1.374 . S
C277 C274 1.499 . S
C277 C278 1.373 . S
C277 C279 1.389 . S
C278 H251 0.950 . S
C278 C264 1.377 . S
C278 C277 1.373 . S
C279 C263 1.377 . S
C279 C277 1.389 . S
C279 C280 1.524 . S
C280 C279 1.524 . S
C280 C281 1.397 . S
C280 C285 1.363 . S
C281 H252 0.950 . S
C281 C280 1.397 . S
C281 C282 1.334 . S
C282 H253 0.950 . S
C282 C281 1.334 . S
C282 C283 1.287 . S
C283 C282 1.287 . S
C283 C284 1.524 . S
C283 H286 0.999 . S
C284 H254 0.950 . S
C284 C283 1.524 . S
C284 C285 1.415 . S
C285 H255 0.950 . S
C285 C280 1.363 . S
C285 C284 1.415 . S
H286 C283 0.999 . S
H287 C268 0.913 . S
H288 C306 0.951 . S
H289 C308 0.951 . S
H290 C310 0.950 . S
H291 C311 0.950 . S
H292 C313 0.950 . S
H293 C316 0.950 . S
H294 C317 0.950 . S
H295 C319 0.950 . S
H296 C320 0.950 . S
H297 C321 0.951 . S
H298 C323 0.951 . S
H299 C325 0.950 . S
H300 C326 0.950 . S
H301 C328 0.950 . S
H302 C331 0.950 . S
H303 C332 0.950 . S
H304 C334 0.950 . S
H305 C335 0.950 . S
C306 H288 0.951 . S
C306 C307 1.366 . S
C306 C308 1.388 . S
C307 C306 1.366 . S
C307 C311 1.385 . S
C308 H289 0.951 . S
C308 C306 1.388 . S
C308 C309 1.366 . S
C309 C308 1.366 . S
C309 C310 1.414 . S
C309 C312 1.499 . S
C310 H290 0.950 . S
C310 C309 1.414 . S
C310 C311 1.374 . S
C311 H291 0.950 . S
C311 C307 1.385 . S
C311 C310 1.374 . S
C312 C309 1.499 . S
C312 C313 1.373 . S
C312 C314 1.389 . S
C313 H292 0.950 . S
C313 C312 1.373 . S
C313 C329 1.377 . S
C314 C312 1.389 . S
C314 C315 1.524 . S
C314 C328 1.377 . S
C315 C314 1.524 . S
C315 C316 1.397 . S
C315 C320 1.363 . S
C316 H293 0.950 . S
C316 C315 1.397 . S
C316 C317 1.334 . S
C317 H294 0.950 . S
C317 C316 1.334 . S
C317 C318 1.287 . S
C318 C317 1.287 . S
C318 C319 1.524 . S
C318 H337 0.913 . S
C319 H295 0.950 . S
C319 C318 1.524 . S
C319 C320 1.415 . S
C320 H296 0.950 . S
C320 C315 1.363 . S
C320 C319 1.415 . S
C321 H297 0.951 . S
C321 C322 1.366 . S
C321 C323 1.388 . S
C322 C321 1.366 . S
C322 C326 1.385 1_655 S
C323 H298 0.951 . S
C323 C321 1.388 . S
C323 C324 1.366 . S
C324 C323 1.366 . S
C324 C325 1.414 . S
C324 C327 1.499 . S
C325 H299 0.950 . S
C325 C324 1.414 . S
C325 C326 1.374 1_655 S
C326 H300 0.950 . S
C326 C322 1.385 1_455 S
C326 C325 1.374 1_455 S
C327 C324 1.499 . S
C327 C328 1.373 . S
C327 C329 1.389 . S
C328 H301 0.950 . S
C328 C314 1.377 . S
C328 C327 1.373 . S
C329 C313 1.377 . S
C329 C327 1.389 . S
C329 C330 1.524 . S
C330 C329 1.524 . S
C330 C331 1.397 . S
C330 C335 1.363 . S
C331 H302 0.950 . S
C331 C330 1.397 . S
C331 C332 1.334 . S
C332 H303 0.950 . S
C332 C331 1.334 . S
C332 C333 1.287 . S
C333 C332 1.287 . S
C333 C334 1.524 . S
C333 H336 0.999 . S
C334 H304 0.950 . S
C334 C333 1.524 . S
C334 C335 1.415 . S
C335 H305 0.950 . S
C335 C330 1.363 . S
C335 C334 1.415 . S
H336 C333 0.999 . S
H337 C318 0.913 . S
H338 C356 0.951 . S
H339 C358 0.951 . S
H340 C360 0.950 . S
H341 C361 0.950 . S
H342 C363 0.950 . S
H343 C366 0.950 . S
H344 C367 0.950 . S
H345 C369 0.950 . S
H346 C370 0.950 . S
H347 C371 0.951 . S
H348 C373 0.951 . S
H349 C375 0.950 . S
H350 C376 0.950 . S
H351 C378 0.950 . S
H352 C381 0.950 . S
H353 C382 0.950 . S
H354 C384 0.950 . S
H355 C385 0.950 . S
C356 H338 0.951 . S
C356 C357 1.366 . S
C356 C358 1.388 . S
C357 C356 1.366 . S
C357 C361 1.385 . S
C358 H339 0.951 . S
C358 C356 1.388 . S
C358 C359 1.366 . S
C359 C358 1.366 . S
C359 C360 1.414 . S
C359 C362 1.499 . S
C360 H340 0.950 . S
C360 C359 1.414 . S
C360 C361 1.374 . S
C361 H341 0.950 . S
C361 C357 1.385 . S
C361 C360 1.374 . S
C362 C359 1.499 . S
C362 C363 1.373 . S
C362 C364 1.389 . S
C363 H342 0.950 . S
C363 C362 1.373 . S
C363 C379 1.377 . S
C364 C362 1.389 . S
C364 C365 1.524 . S
C364 C378 1.377 . S
C365 C364 1.524 . S
C365 C366 1.397 . S
C365 C370 1.363 . S
C366 H343 0.950 . S
C366 C365 1.397 . S
C366 C367 1.334 . S
C367 H344 0.950 . S
C367 C366 1.334 . S
C367 C368 1.287 . S
C368 C367 1.287 . S
C368 C369 1.524 . S
C368 H387 0.913 . S
C369 H345 0.950 . S
C369 C368 1.524 . S
C369 C370 1.415 . S
C370 H346 0.950 . S
C370 C365 1.363 . S
C370 C369 1.415 . S
C371 H347 0.951 . S
C371 C372 1.366 . S
C371 C373 1.388 . S
C372 C371 1.366 . S
C372 C376 1.385 . S
C373 H348 0.951 . S
C373 C371 1.388 . S
C373 C374 1.366 . S
C374 C373 1.366 . S
C374 C375 1.414 . S
C374 C377 1.499 . S
C375 H349 0.950 . S
C375 C374 1.414 . S
C375 C376 1.374 . S
C376 H350 0.950 . S
C376 C372 1.385 . S
C376 C375 1.374 . S
C377 C374 1.499 . S
C377 C378 1.373 . S
C377 C379 1.389 . S
C378 H351 0.950 . S
C378 C364 1.377 . S
C378 C377 1.373 . S
C379 C363 1.377 . S
C379 C377 1.389 . S
C379 C380 1.524 . S
C380 C379 1.524 . S
C380 C381 1.397 . S
C380 C385 1.363 . S
C381 H352 0.950 . S
C381 C380 1.397 . S
C381 C382 1.334 . S
C382 H353 0.950 . S
C382 C381 1.334 . S
C382 C383 1.287 . S
C383 C382 1.287 . S
C383 C384 1.524 . S
C383 H386 0.999 . S
C384 H354 0.950 . S
C384 C383 1.524 . S
C384 C385 1.415 . S
C385 H355 0.950 . S
C385 C380 1.363 . S
C385 C384 1.415 . S
H386 C383 0.999 . S
H387 C368 0.913 . S
H388 C406 0.951 . S
H389 C408 0.951 . S
H390 C410 0.950 . S
H391 C411 0.950 . S
H392 C413 0.950 . S
H393 C416 0.950 . S
H394 C417 0.950 . S
H395 C419 0.950 . S
H396 C420 0.950 . S
H397 C421 0.951 . S
H398 C423 0.951 . S
H399 C425 0.950 . S
H400 C426 0.950 . S
H401 C428 0.950 . S
H402 C431 0.950 . S
H403 C432 0.950 . S
H404 C434 0.950 . S
H405 C435 0.950 . S
C406 H388 0.951 . S
C406 C407 1.366 . S
C406 C408 1.388 . S
C407 C406 1.366 . S
C407 C411 1.385 . S
C408 H389 0.951 . S
C408 C406 1.388 . S
C408 C409 1.366 . S
C409 C408 1.366 . S
C409 C410 1.414 . S
C409 C412 1.499 . S
C410 H390 0.950 . S
C410 C409 1.414 . S
C410 C411 1.374 . S
C411 H391 0.950 . S
C411 C407 1.385 . S
C411 C410 1.374 . S
C412 C409 1.499 . S
C412 C413 1.373 . S
C412 C414 1.389 . S
C413 H392 0.950 . S
C413 C412 1.373 . S
C413 C429 1.377 . S
C414 C412 1.389 . S
C414 C415 1.524 . S
C414 C428 1.377 . S
C415 C414 1.524 . S
C415 C416 1.397 . S
C415 C420 1.363 . S
C416 H393 0.950 . S
C416 C415 1.397 . S
C416 C417 1.334 . S
C417 H394 0.950 . S
C417 C416 1.334 . S
C417 C418 1.287 . S
C418 C417 1.287 . S
C418 C419 1.524 . S
C418 H437 0.913 . S
C419 H395 0.950 . S
C419 C418 1.524 . S
C419 C420 1.415 . S
C420 H396 0.950 . S
C420 C415 1.363 . S
C420 C419 1.415 . S
C421 H397 0.951 . S
C421 C422 1.366 . S
C421 C423 1.388 . S
C422 C421 1.366 . S
C422 C426 1.385 . S
C423 H398 0.951 . S
C423 C421 1.388 . S
C423 C424 1.366 . S
C424 C423 1.366 . S
C424 C425 1.414 . S
C424 C427 1.499 . S
C425 H399 0.950 . S
C425 C424 1.414 . S
C425 C426 1.374 . S
C426 H400 0.950 . S
C426 C422 1.385 . S
C426 C425 1.374 . S
C427 C424 1.499 . S
C427 C428 1.373 . S
C427 C429 1.389 . S
C428 H401 0.950 . S
C428 C414 1.377 . S
C428 C427 1.373 . S
C429 C413 1.377 . S
C429 C427 1.389 . S
C429 C430 1.524 . S
C430 C429 1.524 . S
C430 C431 1.397 . S
C430 C435 1.363 . S
C431 H402 0.950 . S
C431 C430 1.397 . S
C431 C432 1.334 . S
C432 H403 0.950 . S
C432 C431 1.334 . S
C432 C433 1.287 . S
C433 C432 1.287 . S
C433 C434 1.524 . S
C433 H436 0.999 . S
C434 H404 0.950 . S
C434 C433 1.524 . S
C434 C435 1.415 . S
C435 H405 0.950 . S
C435 C430 1.363 . S
C435 C434 1.415 . S
H436 C433 0.999 . S
H437 C418 0.913 . S
H438 C456 0.951 . S
H439 C458 0.951 . S
H440 C460 0.950 . S
H441 C461 0.950 . S
H442 C463 0.950 . S
H443 C466 0.950 . S
H444 C467 0.950 . S
H445 C469 0.950 . S
H446 C470 0.950 . S
H447 C471 0.951 . S
H448 C473 0.951 . S
H449 C475 0.950 . S
H450 C476 0.950 . S
H451 C478 0.950 . S
H452 C481 0.950 . S
H453 C482 0.950 . S
H454 C484 0.950 . S
H455 C485 0.950 . S
C456 H438 0.951 . S
C456 C457 1.366 . S
C456 C458 1.388 . S
C457 C456 1.366 . S
C457 C461 1.385 . S
C458 H439 0.951 . S
C458 C456 1.388 . S
C458 C459 1.366 . S
C459 C458 1.366 . S
C459 C460 1.414 . S
C459 C462 1.499 . S
C460 H440 0.950 . S
C460 C459 1.414 . S
C460 C461 1.374 . S
C461 H441 0.950 . S
C461 C457 1.385 . S
C461 C460 1.374 . S
C462 C459 1.499 . S
C462 C463 1.373 . S
C462 C464 1.389 . S
C463 H442 0.950 . S
C463 C462 1.373 . S
C463 C479 1.377 . S
C464 C462 1.389 . S
C464 C465 1.524 . S
C464 C478 1.377 . S
C465 C464 1.524 . S
C465 C466 1.397 . S
C465 C470 1.363 . S
C466 H443 0.950 . S
C466 C465 1.397 . S
C466 C467 1.334 . S
C467 H444 0.950 . S
C467 C466 1.334 . S
C467 C468 1.287 . S
C468 C467 1.287 . S
C468 C469 1.524 . S
C468 H487 0.913 . S
C469 H445 0.950 . S
C469 C468 1.524 . S
C469 C470 1.415 . S
C470 H446 0.950 . S
C470 C465 1.363 . S
C470 C469 1.415 . S
C471 H447 0.951 . S
C471 C472 1.366 . S
C471 C473 1.388 1_554 S
C472 C471 1.366 . S
C472 C476 1.381 1_554 S
C473 H448 0.951 . S
C473 C471 1.388 1_556 S
C473 C474 1.366 . S
C474 C473 1.366 . S
C474 C475 1.414 . S
C474 C477 1.499 . S
C475 H449 0.950 . S
C475 C474 1.414 . S
C475 C476 1.374 . S
C476 H450 0.950 . S
C476 C472 1.381 1_556 S
C476 C475 1.374 . S
C477 C474 1.499 . S
C477 C478 1.373 . S
C477 C479 1.389 . S
C478 H451 0.950 . S
C478 C464 1.377 . S
C478 C477 1.373 . S
C479 C463 1.377 . S
C479 C477 1.389 . S
C479 C480 1.524 . S
C480 C479 1.524 . S
C480 C481 1.397 . S
C480 C485 1.363 . S
C481 H452 0.950 . S
C481 C480 1.397 . S
C481 C482 1.334 1_556 S
C482 H453 0.950 . S
C482 C481 1.334 1_554 S
C482 C483 1.287 . S
C483 C482 1.287 . S
C483 C484 1.524 . S
C483 H486 0.999 . S
C484 H454 0.950 . S
C484 C483 1.524 . S
C484 C485 1.415 1_554 S
C485 H455 0.950 . S
C485 C480 1.363 . S
C485 C484 1.415 1_556 S
H486 C483 0.999 . S
H487 C468 0.913 . S
H488 C506 0.951 . S
H489 C508 0.951 . S
H490 C510 0.950 . S
H491 C511 0.950 . S
H492 C513 0.950 . S
H493 C516 0.950 . S
H494 C517 0.950 . S
H495 C519 0.950 . S
H496 C520 0.950 . S
H497 C521 0.951 . S
H498 C523 0.951 . S
H499 C525 0.950 . S
H500 C526 0.925 1_545 S
H501 C528 0.950 . S
H502 C531 0.950 . S
H503 C532 0.950 . S
H504 C534 0.950 . S
H505 C535 0.950 . S
C506 H488 0.951 . S
C506 C507 1.366 . S
C506 C508 1.388 . S
C507 C506 1.366 . S
C507 C511 1.385 . S
C508 H489 0.951 . S
C508 C506 1.388 . S
C508 C509 1.366 . S
C509 C508 1.366 . S
C509 C510 1.414 . S
C509 C512 1.499 . S
C510 H490 0.950 . S
C510 C509 1.414 . S
C510 C511 1.374 . S
C511 H491 0.950 . S
C511 C507 1.385 . S
C511 C510 1.374 . S
C512 C509 1.499 . S
C512 C513 1.373 . S
C512 C514 1.389 . S
C513 H492 0.950 . S
C513 C512 1.373 . S
C513 C529 1.377 . S
C514 C512 1.389 . S
C514 C515 1.524 . S
C514 C528 1.377 . S
C515 C514 1.524 . S
C515 C516 1.397 . S
C515 C520 1.363 . S
C516 H493 0.950 . S
C516 C515 1.397 . S
C516 C517 1.334 . S
C517 H494 0.950 . S
C517 C516 1.334 . S
C517 C518 1.287 . S
C518 C517 1.287 . S
C518 C519 1.524 . S
C518 H537 0.913 . S
C519 H495 0.950 . S
C519 C518 1.524 . S
C519 C520 1.415 . S
C520 H496 0.950 . S
C520 C515 1.363 . S
C520 C519 1.415 . S
C521 H497 0.951 . S
C521 C522 1.366 . S
C521 C523 1.388 . S
C522 C521 1.366 . S
C522 C526 1.385 . S
C523 H498 0.951 . S
C523 C521 1.388 . S
C523 C524 1.366 . S
C524 C523 1.366 . S
C524 C525 1.414 . S
C524 C527 1.499 . S
C525 H499 0.950 . S
C525 C524 1.414 . S
C525 C526 1.374 . S
C526 H500 0.925 1_565 S
C526 C522 1.385 . S
C526 C525 1.374 . S
C527 C524 1.499 . S
C527 C528 1.373 . S
C527 C529 1.389 . S
C528 H501 0.950 . S
C528 C514 1.377 . S
C528 C527 1.373 . S
C529 C513 1.377 . S
C529 C527 1.389 . S
C529 C530 1.524 . S
C530 C529 1.524 . S
C530 C531 1.397 . S
C530 C535 1.363 . S
C531 H502 0.950 . S
C531 C530 1.397 . S
C531 C532 1.334 . S
C532 H503 0.950 . S
C532 C531 1.334 . S
C532 C533 1.287 . S
C533 C532 1.287 . S
C533 C534 1.524 . S
C533 H536 0.999 . S
C534 H504 0.950 . S
C534 C533 1.524 . S
C534 C535 1.415 . S
C535 H505 0.950 . S
C535 C530 1.363 . S
C535 C534 1.415 . S
H536 C533 0.999 . S
H537 C518 0.913 . S
H538 C556 0.951 . S
H539 C558 0.951 . S
H540 C560 0.950 . S
H541 C561 0.950 . S
H542 C563 0.950 . S
H543 C566 0.950 . S
H544 C567 0.950 . S
H545 C569 0.950 . S
H546 C570 0.950 . S
H547 C571 0.951 . S
H548 C573 0.951 . S
H549 C575 0.950 . S
H550 C576 0.950 . S
H551 C578 0.950 . S
H552 C581 0.950 . S
H553 C582 0.950 . S
H554 C584 0.950 . S
H555 C585 0.950 . S
C556 H538 0.951 . S
C556 C557 1.366 . S
C556 C558 1.388 . S
C557 C556 1.366 . S
C557 C561 1.385 . S
C558 H539 0.951 . S
C558 C556 1.388 . S
C558 C559 1.366 . S
C559 C558 1.366 . S
C559 C560 1.414 . S
C559 C562 1.499 . S
C560 H540 0.950 . S
C560 C559 1.414 . S
C560 C561 1.374 . S
C561 H541 0.950 . S
C561 C557 1.385 . S
C561 C560 1.374 . S
C562 C559 1.499 . S
C562 C563 1.373 . S
C562 C564 1.389 . S
C563 H542 0.950 . S
C563 C562 1.373 . S
C563 C579 1.377 . S
C564 C562 1.389 . S
C564 C565 1.524 . S
C564 C578 1.377 . S
C565 C564 1.524 . S
C565 C566 1.397 . S
C565 C570 1.363 . S
C566 H543 0.950 . S
C566 C565 1.397 . S
C566 C567 1.334 . S
C567 H544 0.950 . S
C567 C566 1.334 . S
C567 C568 1.287 . S
C568 C567 1.287 . S
C568 C569 1.524 . S
C568 H587 0.913 . S
C569 H545 0.950 . S
C569 C568 1.524 . S
C569 C570 1.415 . S
C570 H546 0.950 . S
C570 C565 1.363 . S
C570 C569 1.415 . S
C571 H547 0.951 . S
C571 C572 1.366 . S
C571 C573 1.388 . S
C572 C571 1.366 . S
C572 C576 1.385 . S
C573 H548 0.951 . S
C573 C571 1.388 . S
C573 C574 1.366 . S
C574 C573 1.366 . S
C574 C575 1.414 . S
C574 C577 1.499 . S
C575 H549 0.950 . S
C575 C574 1.414 . S
C575 C576 1.374 . S
C576 H550 0.950 . S
C576 C572 1.385 . S
C576 C575 1.374 . S
C577 C574 1.499 . S
C577 C578 1.373 . S
C577 C579 1.389 . S
C578 H551 0.950 . S
C578 C564 1.377 . S
C578 C577 1.373 . S
C579 C563 1.377 . S
C579 C577 1.389 . S
C579 C580 1.524 . S
C580 C579 1.524 . S
C580 C581 1.397 . S
C580 C585 1.363 . S
C581 H552 0.950 . S
C581 C580 1.397 . S
C581 C582 1.334 . S
C582 H553 0.950 . S
C582 C581 1.334 . S
C582 C583 1.287 . S
C583 C582 1.287 . S
C583 C584 1.524 . S
C583 H586 0.999 . S
C584 H554 0.950 . S
C584 C583 1.524 . S
C584 C585 1.415 . S
C585 H555 0.950 . S
C585 C580 1.363 . S
C585 C584 1.415 . S
H586 C583 0.999 . S
H587 C568 0.913 . S
H588 C606 0.951 . S
H589 C608 0.951 . S
H590 C610 0.950 . S
H591 C611 0.950 . S
H592 C613 0.950 . S
H593 C616 0.950 . S
H594 C617 0.950 . S
H595 C619 0.950 . S
H596 C620 0.950 . S
H597 C621 0.951 . S
H598 C623 0.951 . S
H599 C625 0.950 . S
H600 C626 0.950 . S
H601 C628 0.950 . S
H602 C631 0.950 . S
H603 C632 0.950 . S
H604 C634 0.950 . S
H605 C635 0.950 . S
C606 H588 0.951 . S
C606 C607 1.366 . S
C606 C608 1.388 . S
C607 C606 1.366 . S
C607 C611 1.385 . S
C608 H589 0.951 . S
C608 C606 1.388 . S
C608 C609 1.366 . S
C609 C608 1.366 . S
C609 C610 1.414 . S
C609 C612 1.499 . S
C610 H590 0.950 . S
C610 C609 1.414 . S
C610 C611 1.374 . S
C611 H591 0.950 . S
C611 C607 1.385 . S
C611 C610 1.374 . S
C612 C609 1.499 . S
C612 C613 1.373 . S
C612 C614 1.389 . S
C613 H592 0.950 . S
C613 C612 1.373 . S
C613 C629 1.377 . S
C614 C612 1.389 . S
C614 C615 1.524 . S
C614 C628 1.377 . S
C615 C614 1.524 . S
C615 C616 1.397 . S
C615 C620 1.363 . S
C616 H593 0.950 . S
C616 C615 1.397 . S
C616 C617 1.334 . S
C617 H594 0.950 . S
C617 C616 1.334 . S
C617 C618 1.287 . S
C618 C617 1.287 . S
C618 C619 1.524 . S
C618 H637 0.913 . S
C619 H595 0.950 . S
C619 C618 1.524 . S
C619 C620 1.415 . S
C620 H596 0.950 . S
C620 C615 1.363 . S
C620 C619 1.415 . S
C621 H597 0.951 . S
C621 C622 1.366 . S
C621 C623 1.388 . S
C622 C621 1.366 . S
C622 C626 1.385 . S
C623 H598 0.951 . S
C623 C621 1.388 . S
C623 C624 1.366 . S
C624 C623 1.366 . S
C624 C625 1.414 . S
C624 C627 1.499 . S
C625 H599 0.950 . S
C625 C624 1.414 . S
C625 C626 1.374 . S
C626 H600 0.950 . S
C626 C622 1.385 . S
C626 C625 1.374 . S
C627 C624 1.499 . S
C627 C628 1.373 . S
C627 C629 1.389 . S
C628 H601 0.950 . S
C628 C614 1.377 . S
C628 C627 1.373 . S
C629 C613 1.377 . S
C629 C627 1.389 . S
C629 C630 1.524 . S
C630 C629 1.524 . S
C630 C631 1.397 . S
C630 C635 1.363 . S
C631 H602 0.950 . S
C631 C630 1.397 . S
C631 C632 1.334 . S
C632 H603 0.950 . S
C632 C631 1.334 . S
C632 C633 1.287 . S
C633 C632 1.287 . S
C633 C634 1.524 . S
C633 H636 0.999 . S
C634 H604 0.950 . S
C634 C633 1.524 . S
C634 C635 1.415 . S
C635 H605 0.950 . S
C635 C630 1.363 . S
C635 C634 1.415 . S
H636 C633 0.999 . S
H637 C618 0.913 . S
H638 C656 0.951 . S
H639 C658 0.951 . S
H640 C660 0.950 . S
H641 C661 0.950 . S
H642 C663 0.950 . S
H643 C666 0.950 . S
H644 C667 0.950 . S
H645 C669 0.950 . S
H646 C670 0.950 . S
H647 C671 0.951 . S
H648 C673 0.951 . S
H649 C675 0.950 . S
H650 C676 0.950 . S
H651 C678 0.950 . S
H652 C681 0.950 . S
H653 C682 0.950 . S
H654 C684 0.950 . S
H655 C685 0.950 . S
C656 H638 0.951 . S
C656 C657 1.366 . S
C656 C658 1.388 . S
C657 C656 1.366 . S
C657 C661 1.385 . S
C658 H639 0.951 . S
C658 C656 1.388 . S
C658 C659 1.366 . S
C659 C658 1.366 . S
C659 C660 1.414 . S
C659 C662 1.499 . S
C660 H640 0.950 . S
C660 C659 1.414 . S
C660 C661 1.374 . S
C661 H641 0.950 . S
C661 C657 1.385 . S
C661 C660 1.374 . S
C662 C659 1.499 . S
C662 C663 1.373 . S
C662 C664 1.389 . S
C663 H642 0.950 . S
C663 C662 1.373 . S
C663 C679 1.377 . S
C664 C662 1.389 . S
C664 C665 1.524 . S
C664 C678 1.377 . S
C665 C664 1.524 . S
C665 C666 1.397 . S
C665 C670 1.363 . S
C666 H643 0.950 . S
C666 C665 1.397 . S
C666 C667 1.334 . S
C667 H644 0.950 . S
C667 C666 1.334 . S
C667 C668 1.287 . S
C668 C667 1.287 . S
C668 C669 1.524 . S
C668 H687 0.913 . S
C669 H645 0.950 . S
C669 C668 1.524 . S
C669 C670 1.415 . S
C670 H646 0.950 . S
C670 C665 1.363 . S
C670 C669 1.415 . S
C671 H647 0.951 . S
C671 C672 1.366 . S
C671 C673 1.388 . S
C672 C671 1.366 . S
C672 C676 1.385 . S
C673 H648 0.951 . S
C673 C671 1.388 . S
C673 C674 1.366 . S
C674 C673 1.366 . S
C674 C675 1.414 . S
C674 C677 1.499 . S
C675 H649 0.950 . S
C675 C674 1.414 . S
C675 C676 1.374 . S
C676 H650 0.950 . S
C676 C672 1.385 . S
C676 C675 1.374 . S
C677 C674 1.499 . S
C677 C678 1.373 . S
C677 C679 1.389 . S
C678 H651 0.950 . S
C678 C664 1.377 . S
C678 C677 1.373 . S
C679 C663 1.377 . S
C679 C677 1.389 . S
C679 C680 1.524 . S
C680 C679 1.524 . S
C680 C681 1.397 . S
C680 C685 1.363 . S
C681 H652 0.950 . S
C681 C680 1.397 . S
C681 C682 1.334 . S
C682 H653 0.950 . S
C682 C681 1.334 . S
C682 C683 1.287 . S
C683 C682 1.287 . S
C683 C684 1.524 . S
C683 H686 0.999 . S
C684 H654 0.950 . S
C684 C683 1.524 . S
C684 C685 1.415 . S
C685 H655 0.950 . S
C685 C680 1.363 . S
C685 C684 1.415 . S
H686 C683 0.999 . S
H687 C668 0.913 . S
H688 C706 0.951 . S
H689 C708 0.951 . S
H690 C710 0.950 . S
H691 C711 0.950 . S
H692 C713 0.950 . S
H693 C716 0.950 . S
H694 C717 0.950 . S
H695 C719 0.950 . S
H696 C720 0.950 . S
H697 C721 0.951 . S
H698 C723 0.951 . S
H699 C725 0.950 . S
H700 C726 0.950 . S
H701 C728 0.950 . S
H702 C731 0.950 . S
H703 C732 0.950 . S
H704 C734 0.950 . S
H705 C735 0.950 . S
C706 H688 0.951 . S
C706 C707 1.366 . S
C706 C708 1.388 . S
C707 C706 1.366 . S
C707 C711 1.385 . S
C708 H689 0.951 . S
C708 C706 1.388 . S
C708 C709 1.366 . S
C709 C708 1.366 . S
C709 C710 1.414 . S
C709 C712 1.499 . S
C710 H690 0.950 . S
C710 C709 1.414 . S
C710 C711 1.374 . S
C711 H691 0.950 . S
C711 C707 1.385 . S
C711 C710 1.374 . S
C712 C709 1.499 . S
C712 C713 1.373 . S
C712 C714 1.389 . S
C713 H692 0.950 . S
C713 C712 1.373 . S
C713 C729 1.377 . S
C714 C712 1.389 . S
C714 C715 1.524 . S
C714 C728 1.377 . S
C715 C714 1.524 . S
C715 C716 1.397 . S
C715 C720 1.363 . S
C716 H693 0.950 . S
C716 C715 1.397 . S
C716 C717 1.334 . S
C717 H694 0.950 . S
C717 C716 1.334 . S
C717 C718 1.287 . S
C718 C717 1.287 . S
C718 C719 1.524 . S
C718 H737 0.913 . S
C719 H695 0.950 . S
C719 C718 1.524 . S
C719 C720 1.415 . S
C720 H696 0.950 . S
C720 C715 1.363 . S
C720 C719 1.415 . S
C721 H697 0.951 . S
C721 C722 1.366 . S
C721 C723 1.388 . S
C722 C721 1.366 . S
C722 C726 1.385 . S
C723 H698 0.951 . S
C723 C721 1.388 . S
C723 C724 1.366 . S
C724 C723 1.366 . S
C724 C725 1.414 . S
C724 C727 1.499 . S
C725 H699 0.950 . S
C725 C724 1.414 . S
C725 C726 1.374 . S
C726 H700 0.950 . S
C726 C722 1.385 . S
C726 C725 1.374 . S
C727 C724 1.499 . S
C727 C728 1.373 . S
C727 C729 1.389 . S
C728 H701 0.950 . S
C728 C714 1.377 . S
C728 C727 1.373 . S
C729 C713 1.377 . S
C729 C727 1.389 . S
C729 C730 1.524 . S
C730 C729 1.524 . S
C730 C731 1.397 . S
C730 C735 1.363 . S
C731 H702 0.950 . S
C731 C730 1.397 . S
C731 C732 1.334 . S
C732 H703 0.950 . S
C732 C731 1.334 . S
C732 C733 1.287 . S
C733 C732 1.287 . S
C733 C734 1.524 . S
C733 H736 0.999 . S
C734 H704 0.950 . S
C734 C733 1.524 . S
C734 C735 1.415 . S
C735 H705 0.950 . S
C735 C730 1.363 . S
C735 C734 1.415 . S
H736 C733 0.999 . S
H737 C718 0.913 . S
H738 C756 0.951 . S
H739 C758 0.951 . S
H740 C760 0.950 . S
H741 C761 0.950 . S
H742 C763 0.950 . S
H743 C766 0.950 . S
H744 C767 0.950 . S
H745 C769 0.950 . S
H746 C770 0.950 . S
H747 C771 0.951 . S
H748 C773 0.951 . S
H749 C775 0.950 . S
H750 C776 0.950 . S
H751 C778 0.950 . S
H752 C781 0.950 . S
H753 C782 0.950 . S
H754 C784 0.950 . S
H755 C785 0.950 . S
C756 H738 0.951 . S
C756 C757 1.366 . S
C756 C758 1.388 . S
C757 C756 1.366 . S
C757 C761 1.385 . S
C758 H739 0.951 . S
C758 C756 1.388 . S
C758 C759 1.366 . S
C759 C758 1.366 . S
C759 C760 1.414 . S
C759 C762 1.499 . S
C760 H740 0.950 . S
C760 C759 1.414 . S
C760 C761 1.374 . S
C761 H741 0.950 . S
C761 C757 1.385 . S
C761 C760 1.374 . S
C762 C759 1.499 . S
C762 C763 1.373 . S
C762 C764 1.389 . S
C763 H742 0.950 . S
C763 C762 1.373 . S
C763 C779 1.377 . S
C764 C762 1.389 . S
C764 C765 1.524 . S
C764 C778 1.377 . S
C765 C764 1.524 . S
C765 C766 1.397 . S
C765 C770 1.363 . S
C766 H743 0.950 . S
C766 C765 1.397 . S
C766 C767 1.334 . S
C767 H744 0.950 . S
C767 C766 1.334 . S
C767 C768 1.287 . S
C768 C767 1.287 . S
C768 C769 1.524 . S
C768 H787 0.913 . S
C769 H745 0.950 . S
C769 C768 1.524 . S
C769 C770 1.415 . S
C770 H746 0.950 . S
C770 C765 1.363 . S
C770 C769 1.415 . S
C771 H747 0.951 . S
C771 C772 1.366 . S
C771 C773 1.388 . S
C772 C771 1.366 . S
C772 C776 1.385 . S
C773 H748 0.951 . S
C773 C771 1.388 . S
C773 C774 1.366 . S
C774 C773 1.366 . S
C774 C775 1.414 . S
C774 C777 1.499 . S
C775 H749 0.950 . S
C775 C774 1.414 . S
C775 C776 1.374 . S
C776 H750 0.950 . S
C776 C772 1.385 . S
C776 C775 1.374 . S
C777 C774 1.499 . S
C777 C778 1.373 . S
C777 C779 1.389 . S
C778 H751 0.950 . S
C778 C764 1.377 . S
C778 C777 1.373 . S
C779 C763 1.377 . S
C779 C777 1.389 . S
C779 C780 1.524 . S
C780 C779 1.524 . S
C780 C781 1.397 . S
C780 C785 1.363 . S
C781 H752 0.950 . S
C781 C780 1.397 . S
C781 C782 1.334 . S
C782 H753 0.950 . S
C782 C781 1.334 . S
C782 C783 1.287 . S
C783 C782 1.287 . S
C783 C784 1.524 . S
C783 H786 0.999 . S
C784 H754 0.950 . S
C784 C783 1.524 . S
C784 C785 1.415 . S
C785 H755 0.950 . S
C785 C780 1.363 . S
C785 C784 1.415 . S
H786 C783 0.999 . S
H787 C768 0.913 . S
H788 C806 0.951 . S
H789 C808 0.951 . S
H790 C810 0.950 . S
H791 C811 0.950 . S
H792 C813 0.950 . S
H793 C816 0.950 . S
H794 C817 0.950 . S
H795 C819 0.950 . S
H796 C820 0.950 . S
H797 C821 0.951 . S
H798 C823 0.951 . S
H799 C825 0.950 . S
H800 C826 0.950 . S
H801 C828 0.950 . S
H802 C831 0.950 . S
H803 C832 0.950 . S
H804 C834 0.950 . S
H805 C835 0.950 . S
C806 H788 0.951 . S
C806 C807 1.366 . S
C806 C808 1.388 . S
C807 C806 1.366 . S
C807 C811 1.385 . S
C808 H789 0.951 . S
C808 C806 1.388 . S
C808 C809 1.366 . S
C809 C808 1.366 . S
C809 C810 1.414 . S
C809 C812 1.499 . S
C810 H790 0.950 . S
C810 C809 1.414 . S
C810 C811 1.374 . S
C811 H791 0.950 . S
C811 C807 1.385 . S
C811 C810 1.374 . S
C812 C809 1.499 . S
C812 C813 1.373 . S
C812 C814 1.389 . S
C813 H792 0.950 . S
C813 C812 1.373 . S
C813 C829 1.377 . S
C814 C812 1.389 . S
C814 C815 1.524 . S
C814 C828 1.377 . S
C815 C814 1.524 . S
C815 C816 1.397 . S
C815 C820 1.363 . S
C816 H793 0.950 . S
C816 C815 1.397 . S
C816 C817 1.334 . S
C817 H794 0.950 . S
C817 C816 1.334 . S
C817 C818 1.287 . S
C818 C817 1.287 . S
C818 C819 1.524 . S
C818 H837 0.913 . S
C819 H795 0.950 . S
C819 C818 1.524 . S
C819 C820 1.415 . S
C820 H796 0.950 . S
C820 C815 1.363 . S
C820 C819 1.415 . S
C821 H797 0.951 . S
C821 C822 1.366 . S
C821 C823 1.388 . S
C822 C821 1.366 . S
C822 C826 1.385 . S
C823 H798 0.951 . S
C823 C821 1.388 . S
C823 C824 1.366 . S
C824 C823 1.366 . S
C824 C825 1.414 . S
C824 C827 1.499 . S
C825 H799 0.950 . S
C825 C824 1.414 . S
C825 C826 1.374 . S
C826 H800 0.950 . S
C826 C822 1.385 . S
C826 C825 1.374 . S
C827 C824 1.499 . S
C827 C828 1.373 . S
C827 C829 1.389 . S
C828 H801 0.950 . S
C828 C814 1.377 . S
C828 C827 1.373 . S
C829 C813 1.377 . S
C829 C827 1.389 . S
C829 C830 1.524 . S
C830 C829 1.524 . S
C830 C831 1.397 . S
C830 C835 1.363 . S
C831 H802 0.950 . S
C831 C830 1.397 . S
C831 C832 1.334 . S
C832 H803 0.950 . S
C832 C831 1.334 . S
C832 C833 1.287 . S
C833 C832 1.287 . S
C833 C834 1.524 . S
C833 H836 0.999 . S
C834 H804 0.950 . S
C834 C833 1.524 . S
C834 C835 1.415 . S
C835 H805 0.950 . S
C835 C830 1.363 . S
C835 C834 1.415 . S
H836 C833 0.999 . S
H837 C818 0.913 . S
H838 C856 0.951 . S
H839 C858 0.951 . S
H840 C860 0.950 . S
H841 C861 0.950 . S
H842 C863 0.950 . S
H843 C866 0.950 . S
H844 C867 0.950 . S
H845 C869 0.950 . S
H846 C870 0.950 . S
H847 C871 0.951 . S
H848 C873 0.951 . S
H849 C875 0.950 . S
H850 C876 0.950 . S
H851 C878 0.950 . S
H852 C881 0.950 . S
H853 C882 0.950 . S
H854 C884 0.950 . S
H855 C885 0.950 . S
C856 H838 0.951 . S
C856 C857 1.366 . S
C856 C858 1.388 . S
C857 C856 1.366 . S
C857 C861 1.385 . S
C858 H839 0.951 . S
C858 C856 1.388 . S
C858 C859 1.366 . S
C859 C858 1.366 . S
C859 C860 1.414 . S
C859 C862 1.499 . S
C860 H840 0.950 . S
C860 C859 1.414 . S
C860 C861 1.374 . S
C861 H841 0.950 . S
C861 C857 1.385 . S
C861 C860 1.374 . S
C862 C859 1.499 . S
C862 C863 1.373 . S
C862 C864 1.389 . S
C863 H842 0.950 . S
C863 C862 1.373 . S
C863 C879 1.377 . S
C864 C862 1.389 . S
C864 C865 1.524 . S
C864 C878 1.377 . S
C865 C864 1.524 . S
C865 C866 1.397 . S
C865 C870 1.363 . S
C866 H843 0.950 . S
C866 C865 1.397 . S
C866 C867 1.334 . S
C867 H844 0.950 . S
C867 C866 1.334 . S
C867 C868 1.287 . S
C868 C867 1.287 . S
C868 C869 1.524 . S
C868 H887 0.913 . S
C869 H845 0.950 . S
C869 C868 1.524 . S
C869 C870 1.415 . S
C870 H846 0.950 . S
C870 C865 1.363 . S
C870 C869 1.415 . S
C871 H847 0.951 . S
C871 C872 1.366 . S
C871 C873 1.388 . S
C872 C871 1.366 . S
C872 C876 1.385 . S
C873 H848 0.951 . S
C873 C871 1.388 . S
C873 C874 1.366 . S
C874 C873 1.366 . S
C874 C875 1.414 . S
C874 C877 1.499 . S
C875 H849 0.950 . S
C875 C874 1.414 . S
C875 C876 1.374 . S
C876 H850 0.950 . S
C876 C872 1.385 . S
C876 C875 1.374 . S
C877 C874 1.499 . S
C877 C878 1.373 . S
C877 C879 1.389 . S
C878 H851 0.950 . S
C878 C864 1.377 . S
C878 C877 1.373 . S
C879 C863 1.377 . S
C879 C877 1.389 . S
C879 C880 1.524 . S
C880 C879 1.524 . S
C880 C881 1.397 . S
C880 C885 1.363 . S
C881 H852 0.950 . S
C881 C880 1.397 . S
C881 C882 1.334 . S
C882 H853 0.950 . S
C882 C881 1.334 . S
C882 C883 1.287 . S
C883 C882 1.287 . S
C883 C884 1.524 . S
C883 H886 0.999 . S
C884 H854 0.950 . S
C884 C883 1.524 . S
C884 C885 1.415 . S
C885 H855 0.950 . S
C885 C880 1.363 . S
C885 C884 1.415 . S
H886 C883 0.999 . S
H887 C868 0.913 . S
H888 C906 0.951 . S
H889 C908 0.951 . S
H890 C910 0.950 . S
H891 C911 0.950 . S
H892 C913 0.950 . S
H893 C916 0.950 . S
H894 C917 0.950 . S
H895 C919 0.950 . S
H896 C920 0.950 . S
H897 C921 0.951 . S
H898 C923 0.951 . S
H899 C925 0.950 . S
H900 C926 0.950 . S
H901 C928 0.950 . S
H902 C931 0.950 . S
H903 C932 0.950 . S
H904 C934 0.950 . S
H905 C935 0.950 . S
C906 H888 0.951 . S
C906 C907 1.366 . S
C906 C908 1.388 . S
C907 C906 1.366 . S
C907 C911 1.385 . S
C908 H889 0.951 . S
C908 C906 1.388 . S
C908 C909 1.366 . S
C909 C908 1.366 . S
C909 C910 1.414 . S
C909 C912 1.499 . S
C910 H890 0.950 . S
C910 C909 1.414 . S
C910 C911 1.374 . S
C911 H891 0.950 . S
C911 C907 1.385 . S
C911 C910 1.374 . S
C912 C909 1.499 . S
C912 C913 1.373 . S
C912 C914 1.389 . S
C913 H892 0.950 . S
C913 C912 1.373 . S
C913 C929 1.377 . S
C914 C912 1.389 . S
C914 C915 1.524 . S
C914 C928 1.377 . S
C915 C914 1.524 . S
C915 C916 1.397 . S
C915 C920 1.363 . S
C916 H893 0.950 . S
C916 C915 1.397 . S
C916 C917 1.334 . S
C917 H894 0.950 . S
C917 C916 1.334 . S
C917 C918 1.287 . S
C918 C917 1.287 . S
C918 C919 1.524 . S
C918 H937 0.913 . S
C919 H895 0.950 . S
C919 C918 1.524 . S
C919 C920 1.415 . S
C920 H896 0.950 . S
C920 C915 1.363 . S
C920 C919 1.415 . S
C921 H897 0.951 . S
C921 C922 1.366 . S
C921 C923 1.388 . S
C922 C921 1.366 . S
C922 C926 1.385 . S
C923 H898 0.951 . S
C923 C921 1.388 . S
C923 C924 1.366 . S
C924 C923 1.366 . S
C924 C925 1.414 . S
C924 C927 1.499 . S
C925 H899 0.950 . S
C925 C924 1.414 . S
C925 C926 1.374 . S
C926 H900 0.950 . S
C926 C922 1.385 . S
C926 C925 1.374 . S
C927 C924 1.499 . S
C927 C928 1.373 . S
C927 C929 1.389 . S
C928 H901 0.950 . S
C928 C914 1.377 . S
C928 C927 1.373 . S
C929 C913 1.377 . S
C929 C927 1.389 . S
C929 C930 1.524 . S
C930 C929 1.524 . S
C930 C931 1.397 . S
C930 C935 1.363 . S
C931 H902 0.950 . S
C931 C930 1.397 . S
C931 C932 1.334 . S
C932 H903 0.950 . S
C932 C931 1.334 . S
C932 C933 1.287 . S
C933 C932 1.287 . S
C933 C934 1.524 . S
C933 H936 0.999 . S
C934 H904 0.950 . S
C934 C933 1.524 . S
C934 C935 1.415 . S
C935 H905 0.950 . S
C935 C930 1.363 . S
C935 C934 1.415 . S
H936 C933 0.999 . S
H937 C918 0.913 . S
H938 C956 0.951 . S
H939 C958 0.951 . S
H940 C960 0.950 . S
H941 C961 0.950 . S
H942 C963 0.950 . S
H943 C966 0.950 . S
H944 C967 0.950 . S
H945 C969 0.950 . S
H946 C970 0.950 . S
H947 C971 0.951 . S
H948 C973 0.951 . S
H949 C975 0.950 . S
H950 C976 0.950 . S
H951 C978 0.950 . S
H952 C981 0.950 . S
H953 C982 0.950 . S
H954 C984 0.950 . S
H955 C985 0.950 . S
C956 H938 0.951 . S
C956 C957 1.366 . S
C956 C958 1.388 . S
C957 C956 1.366 . S
C957 C961 1.385 . S
C958 H939 0.951 . S
C958 C956 1.388 . S
C958 C959 1.366 . S
C959 C958 1.366 . S
C959 C960 1.414 . S
C959 C962 1.499 . S
C960 H940 0.950 . S
C960 C959 1.414 . S
C960 C961 1.374 . S
C961 H941 0.950 . S
C961 C957 1.385 . S
C961 C960 1.374 . S
C962 C959 1.499 . S
C962 C963 1.373 . S
C962 C964 1.389 . S
C963 H942 0.950 . S
C963 C962 1.373 . S
C963 C979 1.377 . S
C964 C962 1.389 . S
C964 C965 1.524 . S
C964 C978 1.377 . S
C965 C964 1.524 . S
C965 C966 1.397 . S
C965 C970 1.363 . S
C966 H943 0.950 . S
C966 C965 1.397 . S
C966 C967 1.334 . S
C967 H944 0.950 . S
C967 C966 1.334 . S
C967 C968 1.287 . S
C968 C967 1.287 . S
C968 C969 1.524 . S
C968 H987 0.913 . S
C969 H945 0.950 . S
C969 C968 1.524 . S
C969 C970 1.415 . S
C970 H946 0.950 . S
C970 C965 1.363 . S
C970 C969 1.415 . S
C971 H947 0.951 . S
C971 C972 1.366 . S
C971 C973 1.388 . S
C972 C971 1.366 . S
C972 C976 1.385 . S
C973 H948 0.951 . S
C973 C971 1.388 . S
C973 C974 1.366 . S
C974 C973 1.366 . S
C974 C975 1.414 . S
C974 C977 1.499 . S
C975 H949 0.950 . S
C975 C974 1.414 . S
C975 C976 1.374 . S
C976 H950 0.950 . S
C976 C972 1.385 . S
C976 C975 1.374 . S
C977 C974 1.499 . S
C977 C978 1.373 . S
C977 C979 1.389 . S
C978 H951 0.950 . S
C978 C964 1.377 . S
C978 C977 1.373 . S
C979 C963 1.377 . S
C979 C977 1.389 . S
C979 C980 1.524 . S
C980 C979 1.524 . S
C980 C981 1.397 . S
C980 C985 1.363 . S
C981 H952 0.950 . S
C981 C980 1.397 . S
C981 C982 1.334 . S
C982 H953 0.950 . S
C982 C981 1.334 . S
C982 C983 1.287 . S
C983 C982 1.287 . S
C983 C984 1.524 . S
C983 H986 0.999 . S
C984 H954 0.950 . S
C984 C983 1.524 . S
C984 C985 1.415 . S
C985 H955 0.950 . S
C985 C980 1.363 . S
C985 C984 1.415 . S
H986 C983 0.999 . S
H987 C968 0.913 . S
H988 C1006 0.951 . S
H989 C1008 0.951 . S
H990 C1010 0.950 . S
H991 C1011 0.950 . S
H992 C1013 0.950 . S
H993 C1016 0.950 . S
H994 C1017 0.950 . S
H995 C1019 0.950 . S
H996 C1020 0.950 . S
H997 C1021 0.951 . S
H998 C1023 0.951 . S
H999 C1025 0.950 . S
H1000 C1026 0.950 . S
H1001 C1028 0.950 . S
H1002 C1031 0.950 . S
H1003 C1032 0.950 . S
H1004 C1034 0.950 . S
H1005 C1035 0.950 . S
C1006 H988 0.951 . S
C1006 C1007 1.366 . S
C1006 C1008 1.388 . S
C1007 C1006 1.366 . S
C1007 C1011 1.385 . S
C1008 H989 0.951 . S
C1008 C1006 1.388 . S
C1008 C1009 1.366 . S
C1009 C1008 1.366 . S
C1009 C1010 1.414 . S
C1009 C1012 1.499 . S
C1010 H990 0.950 . S
C1010 C1009 1.414 . S
C1010 C1011 1.374 . S
C1011 H991 0.950 . S
C1011 C1007 1.385 . S
C1011 C1010 1.374 . S
C1012 C1009 1.499 . S
C1012 C1013 1.373 . S
C1012 C1014 1.389 . S
C1013 H992 0.950 . S
C1013 C1012 1.373 . S
C1013 C1029 1.377 . S
C1014 C1012 1.389 . S
C1014 C1015 1.524 . S
C1014 C1028 1.377 . S
C1015 C1014 1.524 . S
C1015 C1016 1.397 . S
C1015 C1020 1.363 . S
C1016 H993 0.950 . S
C1016 C1015 1.397 . S
C1016 C1017 1.334 . S
C1017 H994 0.950 . S
C1017 C1016 1.334 . S
C1017 C1018 1.287 . S
C1018 C1017 1.287 . S
C1018 C1019 1.524 . S
C1018 H1037 0.913 . S
C1019 H995 0.950 . S
C1019 C1018 1.524 . S
C1019 C1020 1.415 . S
C1020 H996 0.950 . S
C1020 C1015 1.363 . S
C1020 C1019 1.415 . S
C1021 H997 0.951 . S
C1021 C1022 1.366 . S
C1021 C1023 1.388 . S
C1022 C1021 1.366 . S
C1022 C1026 1.385 . S
C1023 H998 0.951 . S
C1023 C1021 1.388 . S
C1023 C1024 1.366 . S
C1024 C1023 1.366 . S
C1024 C1025 1.414 . S
C1024 C1027 1.499 . S
C1025 H999 0.950 . S
C1025 C1024 1.414 . S
C1025 C1026 1.374 . S
C1026 H1000 0.950 . S
C1026 C1022 1.385 . S
C1026 C1025 1.374 . S
C1027 C1024 1.499 . S
C1027 C1028 1.373 . S
C1027 C1029 1.389 . S
C1028 H1001 0.950 . S
C1028 C1014 1.377 . S
C1028 C1027 1.373 . S
C1029 C1013 1.377 . S
C1029 C1027 1.389 . S
C1029 C1030 1.524 . S
C1030 C1029 1.524 . S
C1030 C1031 1.397 . S
C1030 C1035 1.363 . S
C1031 H1002 0.950 . S
C1031 C1030 1.397 . S
C1031 C1032 1.334 . S
C1032 H1003 0.950 . S
C1032 C1031 1.334 . S
C1032 C1033 1.287 . S
C1033 C1032 1.287 . S
C1033 C1034 1.524 . S
C1033 H1036 0.999 . S
C1034 H1004 0.950 . S
C1034 C1033 1.524 . S
C1034 C1035 1.415 . S
C1035 H1005 0.950 . S
C1035 C1030 1.363 . S
C1035 C1034 1.415 . S
H1036 C1033 0.999 . S
H1037 C1018 0.913 . S
H1038 C1056 0.951 . S
H1039 C1058 0.951 . S
H1040 C1060 0.950 . S
H1041 C1061 0.950 . S
H1042 C1063 0.950 . S
H1043 C1066 0.950 . S
H1044 C1067 0.950 . S
H1045 C1069 0.950 . S
H1046 C1070 0.950 . S
H1047 C1071 0.951 . S
H1048 C1073 0.951 . S
H1049 C1075 0.950 . S
H1050 C1076 0.950 . S
H1051 C1078 0.950 . S
H1052 C1081 0.950 . S
H1053 C1082 0.950 . S
H1054 C1084 0.950 . S
H1055 C1085 0.950 . S
C1056 H1038 0.951 . S
C1056 C1057 1.366 . S
C1056 C1058 1.388 . S
C1057 C1056 1.366 . S
C1057 C1061 1.385 . S
C1058 H1039 0.951 . S
C1058 C1056 1.388 . S
C1058 C1059 1.366 . S
C1059 C1058 1.366 . S
C1059 C1060 1.414 . S
C1059 C1062 1.499 . S
C1060 H1040 0.950 . S
C1060 C1059 1.414 . S
C1060 C1061 1.374 . S
C1061 H1041 0.950 . S
C1061 C1057 1.385 . S
C1061 C1060 1.374 . S
C1062 C1059 1.499 . S
C1062 C1063 1.373 . S
C1062 C1064 1.389 . S
C1063 H1042 0.950 . S
C1063 C1062 1.373 . S
C1063 C1079 1.377 . S
C1064 C1062 1.389 . S
C1064 C1065 1.524 . S
C1064 C1078 1.377 . S
C1065 C1064 1.524 . S
C1065 C1066 1.397 . S
C1065 C1070 1.363 . S
C1066 H1043 0.950 . S
C1066 C1065 1.397 . S
C1066 C1067 1.334 . S
C1067 H1044 0.950 . S
C1067 C1066 1.334 . S
C1067 C1068 1.287 . S
C1068 C1067 1.287 . S
C1068 C1069 1.524 . S
C1068 H1087 0.913 . S
C1069 H1045 0.950 . S
C1069 C1068 1.524 . S
C1069 C1070 1.415 . S
C1070 H1046 0.950 . S
C1070 C1065 1.363 . S
C1070 C1069 1.415 . S
C1071 H1047 0.951 . S
C1071 C1072 1.366 . S
C1071 C1073 1.388 . S
C1072 C1071 1.366 . S
C1072 C1076 1.385 . S
C1073 H1048 0.951 . S
C1073 C1071 1.388 . S
C1073 C1074 1.366 . S
C1074 C1073 1.366 . S
C1074 C1075 1.414 . S
C1074 C1077 1.499 . S
C1075 H1049 0.950 . S
C1075 C1074 1.414 . S
C1075 C1076 1.374 . S
C1076 H1050 0.950 . S
C1076 C1072 1.385 . S
C1076 C1075 1.374 . S
C1077 C1074 1.499 . S
C1077 C1078 1.373 . S
C1077 C1079 1.389 . S
C1078 H1051 0.950 . S
C1078 C1064 1.377 . S
C1078 C1077 1.373 . S
C1079 C1063 1.377 . S
C1079 C1077 1.389 . S
C1079 C1080 1.524 . S
C1080 C1079 1.524 . S
C1080 C1081 1.397 . S
C1080 C1085 1.363 . S
C1081 H1052 0.950 . S
C1081 C1080 1.397 . S
C1081 C1082 1.334 . S
C1082 H1053 0.950 . S
C1082 C1081 1.334 . S
C1082 C1083 1.287 . S
C1083 C1082 1.287 . S
C1083 C1084 1.524 . S
C1083 H1086 0.999 . S
C1084 H1054 0.950 . S
C1084 C1083 1.524 . S
C1084 C1085 1.415 . S
C1085 H1055 0.950 . S
C1085 C1080 1.363 . S
C1085 C1084 1.415 . S
H1086 C1083 0.999 . S
H1087 C1068 0.913 . S
H1088 C1106 0.951 . S
H1089 C1108 0.951 . S
H1090 C1110 0.950 . S
H1091 C1111 0.950 . S
H1092 C1113 0.950 . S
H1093 C1116 0.950 . S
H1094 C1117 0.950 . S
H1095 C1119 0.950 . S
H1096 C1120 0.950 . S
H1097 C1121 0.951 . S
H1098 C1123 0.951 . S
H1099 C1125 0.950 . S
H1100 C1126 0.950 . S
H1101 C1128 0.950 . S
H1102 C1131 0.950 . S
H1103 C1132 0.950 . S
H1104 C1134 0.950 . S
H1105 C1135 0.950 . S
C1106 H1088 0.951 . S
C1106 C1107 1.366 . S
C1106 C1108 1.388 . S
C1107 C1106 1.366 . S
C1107 C1111 1.385 . S
C1108 H1089 0.951 . S
C1108 C1106 1.388 . S
C1108 C1109 1.366 . S
C1109 C1108 1.366 . S
C1109 C1110 1.414 . S
C1109 C1112 1.499 . S
C1110 H1090 0.950 . S
C1110 C1109 1.414 . S
C1110 C1111 1.374 . S
C1111 H1091 0.950 . S
C1111 C1107 1.385 . S
C1111 C1110 1.374 . S
C1112 C1109 1.499 . S
C1112 C1113 1.373 . S
C1112 C1114 1.389 . S
C1113 H1092 0.950 . S
C1113 C1112 1.373 . S
C1113 C1129 1.377 . S
C1114 C1112 1.389 . S
C1114 C1115 1.524 . S
C1114 C1128 1.377 . S
C1115 C1114 1.524 . S
C1115 C1116 1.397 . S
C1115 C1120 1.363 . S
C1116 H1093 0.950 . S
C1116 C1115 1.397 . S
C1116 C1117 1.334 . S
C1117 H1094 0.950 . S
C1117 C1116 1.334 . S
C1117 C1118 1.287 . S
C1118 C1117 1.287 . S
C1118 C1119 1.524 . S
C1118 H1137 0.913 . S
C1119 H1095 0.950 . S
C1119 C1118 1.524 . S
C1119 C1120 1.415 . S
C1120 H1096 0.950 . S
C1120 C1115 1.363 . S
C1120 C1119 1.415 . S
C1121 H1097 0.951 . S
C1121 C1122 1.366 . S
C1121 C1123 1.388 . S
C1122 C1121 1.366 . S
C1122 C1126 1.385 . S
C1123 H1098 0.951 . S
C1123 C1121 1.388 . S
C1123 C1124 1.366 . S
C1124 C1123 1.366 . S
C1124 C1125 1.414 . S
C1124 C1127 1.499 . S
C1125 H1099 0.950 . S
C1125 C1124 1.414 . S
C1125 C1126 1.374 . S
C1126 H1100 0.950 . S
C1126 C1122 1.385 . S
C1126 C1125 1.374 . S
C1127 C1124 1.499 . S
C1127 C1128 1.373 . S
C1127 C1129 1.389 . S
C1128 H1101 0.950 . S
C1128 C1114 1.377 . S
C1128 C1127 1.373 . S
C1129 C1113 1.377 . S
C1129 C1127 1.389 . S
C1129 C1130 1.524 . S
C1130 C1129 1.524 . S
C1130 C1131 1.397 . S
C1130 C1135 1.363 . S
C1131 H1102 0.950 . S
C1131 C1130 1.397 . S
C1131 C1132 1.334 . S
C1132 H1103 0.950 . S
C1132 C1131 1.334 . S
C1132 C1133 1.287 . S
C1133 C1132 1.287 . S
C1133 C1134 1.524 . S
C1133 H1136 0.999 . S
C1134 H1104 0.950 . S
C1134 C1133 1.524 . S
C1134 C1135 1.415 . S
C1135 H1105 0.950 . S
C1135 C1130 1.363 . S
C1135 C1134 1.415 . S
H1136 C1133 0.999 . S
H1137 C1118 0.913 . S
H1138 C1156 0.951 . S
H1139 C1158 0.951 . S
H1140 C1160 0.950 . S
H1141 C1161 0.950 . S
H1142 C1163 0.950 . S
H1143 C1166 0.950 . S
H1144 C1167 0.950 . S
H1145 C1169 0.950 . S
H1146 C1170 0.950 . S
H1147 C1171 0.951 . S
H1148 C1173 0.951 . S
H1149 C1175 0.950 . S
H1150 C1176 0.950 . S
H1151 C1178 0.950 . S
H1152 C1181 0.950 . S
H1153 C1182 0.950 . S
H1154 C1184 0.950 . S
H1155 C1185 0.950 . S
C1156 H1138 0.951 . S
C1156 C1157 1.366 . S
C1156 C1158 1.388 . S
C1157 C1156 1.366 . S
C1157 C1161 1.385 . S
C1158 H1139 0.951 . S
C1158 C1156 1.388 . S
C1158 C1159 1.366 . S
C1159 C1158 1.366 . S
C1159 C1160 1.414 . S
C1159 C1162 1.499 . S
C1160 H1140 0.950 . S
C1160 C1159 1.414 . S
C1160 C1161 1.374 . S
C1161 H1141 0.950 . S
C1161 C1157 1.385 . S
C1161 C1160 1.374 . S
C1162 C1159 1.499 . S
C1162 C1163 1.373 . S
C1162 C1164 1.389 . S
C1163 H1142 0.950 . S
C1163 C1162 1.373 . S
C1163 C1179 1.377 . S
C1164 C1162 1.389 . S
C1164 C1165 1.524 . S
C1164 C1178 1.377 . S
C1165 C1164 1.524 . S
C1165 C1166 1.397 . S
C1165 C1170 1.363 . S
C1166 H1143 0.950 . S
C1166 C1165 1.397 . S
C1166 C1167 1.334 . S
C1167 H1144 0.950 . S
C1167 C1166 1.334 . S
C1167 C1168 1.287 . S
C1168 C1167 1.287 . S
C1168 C1169 1.524 . S
C1168 H1187 0.913 . S
C1169 H1145 0.950 . S
C1169 C1168 1.524 . S
C1169 C1170 1.415 . S
C1170 H1146 0.950 . S
C1170 C1165 1.363 . S
C1170 C1169 1.415 . S
C1171 H1147 0.951 . S
C1171 C1172 1.366 . S
C1171 C1173 1.388 . S
C1172 C1171 1.366 . S
C1172 C1176 1.385 . S
C1173 H1148 0.951 . S
C1173 C1171 1.388 . S
C1173 C1174 1.366 . S
C1174 C1173 1.366 . S
C1174 C1175 1.414 . S
C1174 C1177 1.499 . S
C1175 H1149 0.950 . S
C1175 C1174 1.414 . S
C1175 C1176 1.374 . S
C1176 H1150 0.950 . S
C1176 C1172 1.385 . S
C1176 C1175 1.374 . S
C1177 C1174 1.499 . S
C1177 C1178 1.373 . S
C1177 C1179 1.389 . S
C1178 H1151 0.950 . S
C1178 C1164 1.377 . S
C1178 C1177 1.373 . S
C1179 C1163 1.377 . S
C1179 C1177 1.389 . S
C1179 C1180 1.524 . S
C1180 C1179 1.524 . S
C1180 C1181 1.397 . S
C1180 C1185 1.363 . S
C1181 H1152 0.950 . S
C1181 C1180 1.397 . S
C1181 C1182 1.334 . S
C1182 H1153 0.950 . S
C1182 C1181 1.334 . S
C1182 C1183 1.287 . S
C1183 C1182 1.287 . S
C1183 C1184 1.524 . S
C1183 H1186 0.999 . S
C1184 H1154 0.950 . S
C1184 C1183 1.524 . S
C1184 C1185 1.415 . S
C1185 H1155 0.950 . S
C1185 C1180 1.363 . S
C1185 C1184 1.415 . S
H1186 C1183 0.999 . S
H1187 C1168 0.913 . S
H1188 C1206 0.951 . S
H1189 C1208 0.951 . S
H1190 C1210 0.950 . S
H1191 C1211 0.950 . S
H1192 C1213 0.950 . S
H1193 C1216 0.950 . S
H1194 C1217 0.950 . S
H1195 C1219 0.950 . S
H1196 C1220 0.950 . S
H1197 C1221 0.951 . S
H1198 C1223 0.951 . S
H1199 C1225 0.950 . S
H1200 C1226 0.950 . S
H1201 C1228 0.950 . S
H1202 C1231 0.950 . S
H1203 C1232 0.950 . S
H1204 C1234 0.950 . S
H1205 C1235 0.950 . S
C1206 H1188 0.951 . S
C1206 C1207 1.366 . S
C1206 C1208 1.388 . S
C1207 C1206 1.366 . S
C1207 C1211 1.385 . S
C1208 H1189 0.951 . S
C1208 C1206 1.388 . S
C1208 C1209 1.366 . S
C1209 C1208 1.366 . S
C1209 C1210 1.414 . S
C1209 C1212 1.499 . S
C1210 H1190 0.950 . S
C1210 C1209 1.414 . S
C1210 C1211 1.374 . S
C1211 H1191 0.950 . S
C1211 C1207 1.385 . S
C1211 C1210 1.374 . S
C1212 C1209 1.499 . S
C1212 C1213 1.373 . S
C1212 C1214 1.389 . S
C1213 H1192 0.950 . S
C1213 C1212 1.373 . S
C1213 C1229 1.377 . S
C1214 C1212 1.389 . S
C1214 C1215 1.524 . S
C1214 C1228 1.377 . S
C1215 C1214 1.524 . S
C1215 C1216 1.397 . S
C1215 C1220 1.363 . S
C1216 H1193 0.950 . S
C1216 C1215 1.397 . S
C1216 C1217 1.334 . S
C1217 H1194 0.950 . S
C1217 C1216 1.334 . S
C1217 C1218 1.287 . S
C1218 C1217 1.287 . S
C1218 C1219 1.524 . S
C1218 H1237 0.913 . S
C1219 H1195 0.950 . S
C1219 C1218 1.524 . S
C1219 C1220 1.415 . S
C1220 H1196 0.950 . S
C1220 C1215 1.363 . S
C1220 C1219 1.415 . S
C1221 H1197 0.951 . S
C1221 C1222 1.366 . S
C1221 C1223 1.388 . S
C1222 C1221 1.366 . S
C1222 C1226 1.385 . S
C1223 H1198 0.951 . S
C1223 C1221 1.388 . S
C1223 C1224 1.366 . S
C1224 C1223 1.366 . S
C1224 C1225 1.414 . S
C1224 C1227 1.499 . S
C1225 H1199 0.950 . S
C1225 C1224 1.414 . S
C1225 C1226 1.374 . S
C1226 H1200 0.950 . S
C1226 C1222 1.385 . S
C1226 C1225 1.374 . S
C1227 C1224 1.499 . S
C1227 C1228 1.373 . S
C1227 C1229 1.389 . S
C1228 H1201 0.950 . S
C1228 C1214 1.377 . S
C1228 C1227 1.373 . S
C1229 C1213 1.377 . S
C1229 C1227 1.389 . S
C1229 C1230 1.524 . S
C1230 C1229 1.524 . S
C1230 C1231 1.397 . S
C1230 C1235 1.363 . S
C1231 H1202 0.950 . S
C1231 C1230 1.397 . S
C1231 C1232 1.334 . S
C1232 H1203 0.950 . S
C1232 C1231 1.334 . S
C1232 C1233 1.287 . S
C1233 C1232 1.287 . S
C1233 C1234 1.524 . S
C1233 H1236 0.999 . S
C1234 H1204 0.950 . S
C1234 C1233 1.524 . S
C1234 C1235 1.415 . S
C1235 H1205 0.950 . S
C1235 C1230 1.363 . S
C1235 C1234 1.415 . S
H1236 C1233 0.999 . S
H1237 C1218 0.913 . S
H1238 C1256 0.951 . S
H1239 C1258 0.951 . S
H1240 C1260 0.950 . S
H1241 C1261 0.950 . S
H1242 C1263 0.950 . S
H1243 C1266 0.950 . S
H1244 C1267 0.950 . S
H1245 C1269 0.950 . S
H1246 C1270 0.950 . S
H1247 C1271 0.951 . S
H1248 C1273 0.951 . S
H1249 C1275 0.950 . S
H1250 C1276 0.950 . S
H1251 C1278 0.950 . S
H1252 C1281 0.950 . S
H1253 C1282 0.950 . S
H1254 C1284 0.950 . S
H1255 C1285 0.950 . S
C1256 H1238 0.951 . S
C1256 C1257 1.366 . S
C1256 C1258 1.388 . S
C1257 C1256 1.366 . S
C1257 C1261 1.385 . S
C1258 H1239 0.951 . S
C1258 C1256 1.388 . S
C1258 C1259 1.366 . S
C1259 C1258 1.366 . S
C1259 C1260 1.414 . S
C1259 C1262 1.499 . S
C1260 H1240 0.950 . S
C1260 C1259 1.414 . S
C1260 C1261 1.374 . S
C1261 H1241 0.950 . S
C1261 C1257 1.385 . S
C1261 C1260 1.374 . S
C1262 C1259 1.499 . S
C1262 C1263 1.373 . S
C1262 C1264 1.389 . S
C1263 H1242 0.950 . S
C1263 C1262 1.373 . S
C1263 C1279 1.377 . S
C1264 C1262 1.389 . S
C1264 C1265 1.524 . S
C1264 C1278 1.377 . S
C1265 C1264 1.524 . S
C1265 C1266 1.397 . S
C1265 C1270 1.363 . S
C1266 H1243 0.950 . S
C1266 C1265 1.397 . S
C1266 C1267 1.334 . S
C1267 H1244 0.950 . S
C1267 C1266 1.334 . S
C1267 C1268 1.287 . S
C1268 C1267 1.287 . S
C1268 C1269 1.524 . S
C1268 H1287 0.913 . S
C1269 H1245 0.950 . S
C1269 C1268 1.524 . S
C1269 C1270 1.415 . S
C1270 H1246 0.950 . S
C1270 C1265 1.363 . S
C1270 C1269 1.415 . S
C1271 H1247 0.951 . S
C1271 C1272 1.366 . S
C1271 C1273 1.388 . S
C1272 C1271 1.366 . S
C1272 C1276 1.385 . S
C1273 H1248 0.951 . S
C1273 C1271 1.388 . S
C1273 C1274 1.366 . S
C1274 C1273 1.366 . S
C1274 C1275 1.414 . S
C1274 C1277 1.499 . S
C1275 H1249 0.950 . S
C1275 C1274 1.414 . S
C1275 C1276 1.374 . S
C1276 H1250 0.950 . S
C1276 C1272 1.385 . S
C1276 C1275 1.374 . S
C1277 C1274 1.499 . S
C1277 C1278 1.373 . S
C1277 C1279 1.389 . S
C1278 H1251 0.950 . S
C1278 C1264 1.377 . S
C1278 C1277 1.373 . S
C1279 C1263 1.377 . S
C1279 C1277 1.389 . S
C1279 C1280 1.524 . S
C1280 C1279 1.524 . S
C1280 C1281 1.397 . S
C1280 C1285 1.363 . S
C1281 H1252 0.950 . S
C1281 C1280 1.397 . S
C1281 C1282 1.334 . S
C1282 H1253 0.950 . S
C1282 C1281 1.334 . S
C1282 C1283 1.287 . S
C1283 C1282 1.287 . S
C1283 C1284 1.524 . S
C1283 H1286 0.999 . S
C1284 H1254 0.950 . S
C1284 C1283 1.524 . S
C1284 C1285 1.415 . S
C1285 H1255 0.950 . S
C1285 C1280 1.363 . S
C1285 C1284 1.415 . S
H1286 C1283 0.999 . S
H1287 C1268 0.913 . S
H1288 C1306 0.951 . S
H1289 C1308 0.951 . S
H1290 C1310 0.950 . S
H1291 C1311 0.950 . S
H1292 C1313 0.950 . S
H1293 C1316 0.950 . S
H1294 C1317 0.950 . S
H1295 C1319 0.950 . S
H1296 C1320 0.950 . S
H1297 C1321 0.951 . S
H1298 C1323 0.951 . S
H1299 C1325 0.950 . S
H1300 C1326 0.950 . S
H1301 C1328 0.950 . S
H1302 C1331 0.950 . S
H1303 C1332 0.950 . S
H1304 C1334 0.950 . S
H1305 C1335 0.950 . S
C1306 H1288 0.951 . S
C1306 C1307 1.366 . S
C1306 C1308 1.388 . S
C1307 C1306 1.366 . S
C1307 C1311 1.385 . S
C1308 H1289 0.951 . S
C1308 C1306 1.388 . S
C1308 C1309 1.366 . S
C1309 C1308 1.366 . S
C1309 C1310 1.414 . S
C1309 C1312 1.499 . S
C1310 H1290 0.950 . S
C1310 C1309 1.414 . S
C1310 C1311 1.374 . S
C1311 H1291 0.950 . S
C1311 C1307 1.385 . S
C1311 C1310 1.374 . S
C1312 C1309 1.499 . S
C1312 C1313 1.373 . S
C1312 C1314 1.389 . S
C1313 H1292 0.950 . S
C1313 C1312 1.373 . S
C1313 C1329 1.377 . S
C1314 C1312 1.389 . S
C1314 C1315 1.524 . S
C1314 C1328 1.377 . S
C1315 C1314 1.524 . S
C1315 C1316 1.397 . S
C1315 C1320 1.363 . S
C1316 H1293 0.950 . S
C1316 C1315 1.397 . S
C1316 C1317 1.334 . S
C1317 H1294 0.950 . S
C1317 C1316 1.334 . S
C1317 C1318 1.287 . S
C1318 C1317 1.287 . S
C1318 C1319 1.524 . S
C1318 H1337 0.913 . S
C1319 H1295 0.950 . S
C1319 C1318 1.524 . S
C1319 C1320 1.415 . S
C1320 H1296 0.950 . S
C1320 C1315 1.363 . S
C1320 C1319 1.415 . S
C1321 H1297 0.951 . S
C1321 C1322 1.366 . S
C1321 C1323 1.388 . S
C1322 C1321 1.366 . S
C1322 C1326 1.385 . S
C1323 H1298 0.951 . S
C1323 C1321 1.388 . S
C1323 C1324 1.366 . S
C1324 C1323 1.366 . S
C1324 C1325 1.414 . S
C1324 C1327 1.499 . S
C1325 H1299 0.950 . S
C1325 C1324 1.414 . S
C1325 C1326 1.374 . S
C1326 H1300 0.950 . S
C1326 C1322 1.385 . S
C1326 C1325 1.374 . S
C1327 C1324 1.499 . S
C1327 C1328 1.373 . S
C1327 C1329 1.389 . S
C1328 H1301 0.950 . S
C1328 C1314 1.377 . S
C1328 C1327 1.373 . S
C1329 C1313 1.377 . S
C1329 C1327 1.389 . S
C1329 C1330 1.524 . S
C1330 C1329 1.524 . S
C1330 C1331 1.397 . S
C1330 C1335 1.363 . S
C1331 H1302 0.950 . S
C1331 C1330 1.397 . S
C1331 C1332 1.334 . S
C1332 H1303 0.950 . S
C1332 C1331 1.334 . S
C1332 C1333 1.287 . S
C1333 C1332 1.287 . S
C1333 C1334 1.524 . S
C1333 H1336 0.999 . S
C1334 H1304 0.950 . S
C1334 C1333 1.524 . S
C1334 C1335 1.415 . S
C1335 H1305 0.950 . S
C1335 C1330 1.363 . S
C1335 C1334 1.415 . S
H1336 C1333 0.999 . S
H1337 C1318 0.913 . S
H1338 C1356 0.951 . S
H1339 C1358 0.951 . S
H1340 C1360 0.950 . S
H1341 C1361 0.950 . S
H1342 C1363 0.950 . S
H1343 C1366 0.950 . S
H1344 C1367 0.950 . S
H1345 C1369 0.950 . S
H1346 C1370 0.950 . S
H1347 C1371 0.951 . S
H1348 C1373 0.951 . S
H1349 C1375 0.950 . S
H1350 C1376 0.960 . S
H1351 C1378 0.950 . S
H1352 C1381 0.950 . S
H1353 C1382 0.950 . S
H1354 C1384 0.950 . S
H1355 C1385 0.950 . S
C1356 H1338 0.951 . S
C1356 C1357 1.366 . S
C1356 C1358 1.388 . S
C1357 C1356 1.366 . S
C1357 C1361 1.385 . S
C1358 H1339 0.951 . S
C1358 C1356 1.388 . S
C1358 C1359 1.366 . S
C1359 C1358 1.366 . S
C1359 C1360 1.414 . S
C1359 C1362 1.499 . S
C1360 H1340 0.950 . S
C1360 C1359 1.414 . S
C1360 C1361 1.374 . S
C1361 H1341 0.950 . S
C1361 C1357 1.385 . S
C1361 C1360 1.374 . S
C1362 C1359 1.499 . S
C1362 C1363 1.373 . S
C1362 C1364 1.389 . S
C1363 H1342 0.950 . S
C1363 C1362 1.373 . S
C1363 C1379 1.377 . S
C1364 C1362 1.389 . S
C1364 C1365 1.524 . S
C1364 C1378 1.377 . S
C1365 C1364 1.524 . S
C1365 C1366 1.397 . S
C1365 C1370 1.363 . S
C1366 H1343 0.950 . S
C1366 C1365 1.397 . S
C1366 C1367 1.334 . S
C1367 H1344 0.950 . S
C1367 C1366 1.334 . S
C1367 C1368 1.287 . S
C1368 C1367 1.287 . S
C1368 C1369 1.524 . S
C1368 H1387 0.913 . S
C1369 H1345 0.950 . S
C1369 C1368 1.524 . S
C1369 C1370 1.415 . S
C1370 H1346 0.950 . S
C1370 C1365 1.363 . S
C1370 C1369 1.415 . S
C1371 H1347 0.951 . S
C1371 C1372 1.366 1_556 S
C1371 C1373 1.388 . S
C1372 C1371 1.366 1_554 S
C1372 C1376 1.385 . S
C1373 H1348 0.951 . S
C1373 C1371 1.388 . S
C1373 C1374 1.366 . S
C1374 C1373 1.366 . S
C1374 C1375 1.414 . S
C1374 C1377 1.499 . S
C1375 H1349 0.950 . S
C1375 C1374 1.414 . S
C1375 C1376 1.364 1_556 S
C1376 H1350 0.960 . S
C1376 C1372 1.385 . S
C1376 C1375 1.364 1_554 S
C1377 C1374 1.499 . S
C1377 C1378 1.373 . S
C1377 C1379 1.389 . S
C1378 H1351 0.950 . S
C1378 C1364 1.377 . S
C1378 C1377 1.373 . S
C1379 C1363 1.377 . S
C1379 C1377 1.389 . S
C1379 C1380 1.524 . S
C1380 C1379 1.524 . S
C1380 C1381 1.397 . S
C1380 C1385 1.363 . S
C1381 H1352 0.950 . S
C1381 C1380 1.397 . S
C1381 C1382 1.334 . S
C1382 H1353 0.950 . S
C1382 C1381 1.334 . S
C1382 C1383 1.287 . S
C1383 C1382 1.287 . S
C1383 C1384 1.524 . S
C1383 H1386 0.999 . S
C1384 H1354 0.950 . S
C1384 C1383 1.524 . S
C1384 C1385 1.415 . S
C1385 H1355 0.950 . S
C1385 C1380 1.363 . S
C1385 C1384 1.415 . S
H1386 C1383 0.999 . S
H1387 C1368 0.913 . S
C222 C116 1.411 . S
C207 N2 1.418 . S
C272 C119 1.435 . S
C257 N15 1.436 . S
C322 C117 1.722 1_655 S
C307 N27 1.718 . S
C372 C118 1.457 . S
C357 N44 1.460 . S
C422 C133 1.687 . S
C407 N1 1.703 . S
C472 C147 1.729 . S
C457 N18 1.724 . S
C507 N28 1.727 . S
C522 C173 1.701 1_565 S
C572 C187 1.510 . S
C557 N41 1.512 . S
C622 C132 1.641 . S
C607 N14 1.644 . S
C657 N31 1.857 . S
C672 C146 1.858 . S
C722 C172 1.773 . S
C707 N40 1.787 . S
C772 C186 1.606 . S
C757 N5 1.612 . S
C807 N53 1.696 . S
C822 C131 1.684 . S
C872 C104 1.678 1_655 S
C857 N70 1.674 . S
C907 N80 1.508 . S
C922 C130 1.503 . S
C957 N92 1.821 . S
C972 C105 1.823 . S
C1022 C160 1.755 . S
C1007 N57 1.774 . S
C1072 C174 1.398 . S
C1057 N67 1.399 . S
C1122 C144 1.699 . S
C1107 N83 1.721 . S
C1157 N96 1.757 . S
C1172 C158 1.755 . S
C1222 C161 1.665 . S
C1207 N66 1.677 . S
C1272 C175 1.395 . S
C1257 N79 1.394 . S
C1322 C145 1.678 . S
C1307 N93 1.703 . S
C1357 N54 1.479 . S
C1372 C159 1.471 . S
