# Generated by pormake.
# Topology zzz, (3,6)-cn, num edge types: 1
# Building blocks:
#     Node 0, Type 0, BuildingBlock: MIDCAF_clean_linker_0, # of connection points: 3
#     Node 1, Type 0, BuildingBlock: MIDCAF_clean_linker_0, # of connection points: 3
#     Node 2, Type 0, BuildingBlock: MIDCAF_clean_linker_0, # of connection points: 3
#     Node 3, Type 0, BuildingBlock: MIDCAF_clean_linker_0, # of connection points: 3
#     Node 4, Type 0, BuildingBlock: MIDCAF_clean_linker_0, # of connection points: 3
#     Node 5, Type 0, BuildingBlock: MIDCAF_clean_linker_0, # of connection points: 3
#     Node 6, Type 0, BuildingBlock: MIDCAF_clean_linker_0, # of connection points: 3
#     Node 7, Type 0, BuildingBlock: MIDCAF_clean_linker_0, # of connection points: 3
#     Node 8, Type 1, BuildingBlock: KUMBUR_clean_sbu_0, # of connection points: 6
#     Node 9, Type 1, BuildingBlock: KUMBUR_clean_sbu_0, # of connection points: 6
#     Node 10, Type 1, BuildingBlock: KUMBUR_clean_sbu_0, # of connection points: 6
#     Node 11, Type 1, BuildingBlock: KUMBUR_clean_sbu_0, # of connection points: 6
#     Edge 12, Type (0, 1), BuildingBlock: UVAHIK_clean_linker_0, # of connection points: 2
#     Edge 13, Type (0, 1), BuildingBlock: UVAHIK_clean_linker_0, # of connection points: 2
#     Edge 14, Type (0, 1), BuildingBlock: UVAHIK_clean_linker_0, # of connection points: 2
#     Edge 15, Type (0, 1), BuildingBlock: UVAHIK_clean_linker_0, # of connection points: 2
#     Edge 16, Type (0, 1), BuildingBlock: UVAHIK_clean_linker_0, # of connection points: 2
#     Edge 17, Type (0, 1), BuildingBlock: UVAHIK_clean_linker_0, # of connection points: 2
#     Edge 18, Type (0, 1), BuildingBlock: UVAHIK_clean_linker_0, # of connection points: 2
#     Edge 19, Type (0, 1), BuildingBlock: UVAHIK_clean_linker_0, # of connection points: 2
#     Edge 20, Type (0, 1), BuildingBlock: UVAHIK_clean_linker_0, # of connection points: 2
#     Edge 21, Type (0, 1), BuildingBlock: UVAHIK_clean_linker_0, # of connection points: 2
#     Edge 22, Type (0, 1), BuildingBlock: UVAHIK_clean_linker_0, # of connection points: 2
#     Edge 23, Type (0, 1), BuildingBlock: UVAHIK_clean_linker_0, # of connection points: 2
#     Edge 24, Type (0, 1), BuildingBlock: UVAHIK_clean_linker_0, # of connection points: 2
#     Edge 25, Type (0, 1), BuildingBlock: UVAHIK_clean_linker_0, # of connection points: 2
#     Edge 26, Type (0, 1), BuildingBlock: UVAHIK_clean_linker_0, # of connection points: 2
#     Edge 27, Type (0, 1), BuildingBlock: UVAHIK_clean_linker_0, # of connection points: 2
#     Edge 28, Type (0, 1), BuildingBlock: UVAHIK_clean_linker_0, # of connection points: 2
#     Edge 29, Type (0, 1), BuildingBlock: UVAHIK_clean_linker_0, # of connection points: 2
#     Edge 30, Type (0, 1), BuildingBlock: UVAHIK_clean_linker_0, # of connection points: 2
#     Edge 31, Type (0, 1), BuildingBlock: UVAHIK_clean_linker_0, # of connection points: 2
#     Edge 32, Type (0, 1), BuildingBlock: UVAHIK_clean_linker_0, # of connection points: 2
#     Edge 33, Type (0, 1), BuildingBlock: UVAHIK_clean_linker_0, # of connection points: 2
#     Edge 34, Type (0, 1), BuildingBlock: UVAHIK_clean_linker_0, # of connection points: 2
#     Edge 35, Type (0, 1), BuildingBlock: UVAHIK_clean_linker_0, # of connection points: 2
# Relax obj value: 0.276
# Max RMSD: 0.228
# Mean RMSD: 0.211
data_MOF--net-zzz--node1-KUMBUR_clean_sbu_0--node2-MIDCAF_clean_linker_0--edge1-UVAHIK_clean_linker_0
_symmetry_space_group_name_H-M    P1
_symmetry_Int_Tables_number       1
_symmetry_cell_setting            triclinic
loop_
_symmetry_equiv_pos_as_xyz
'x, y, z'
_cell_length_a     70.746702
_cell_length_b     70.674971
_cell_length_c     24.672535
_cell_angle_alpha  90.27533
_cell_angle_beta   90.235764
_cell_angle_gamma 89.977927
loop_
_atom_site_label
_atom_site_type_symbol
_atom_site_fract_x
_atom_site_fract_y
_atom_site_fract_z
_atom_type_partial_charge
C0 C 0.7846 0.54659 0.26232 0.0
C1 C 0.79888 0.53292 0.25446 0.0
C2 C 0.79949 0.52332 0.20435 0.0
C3 C 0.78709 0.52815 0.16224 0.0
H4 H 0.71027 0.53868 0.10556 0.0
H5 H 0.67843 0.53421 0.06771 0.0
H6 H 0.69524 0.56387 0.92302 0.0
H7 H 0.72627 0.5688 0.9607 0.0
H8 H 0.76347 0.59109 0.9521 0.0
H9 H 0.78619 0.6048 0.88934 0.0
H10 H 0.832 0.58399 0.98925 0.0
H11 H 0.80953 0.57117 0.05243 0.0
H12 H 0.76217 0.56283 0.22601 0.0
H13 H 0.78353 0.55414 0.30048 0.0
H14 H 0.81037 0.51292 0.19623 0.0
H15 H 0.7889 0.52152 0.1229 0.0
N16 N 0.74697 0.54906 0.10486 0.0
N17 N 0.75289 0.56738 0.0273 0.0
N18 N 0.77725 0.56165 0.08905 0.0
C19 C 0.74065 0.55709 0.05767 0.0
C20 C 0.77114 0.56978 0.04262 0.0
C21 C 0.76539 0.55147 0.12052 0.0
C22 C 0.72098 0.5542 0.03664 0.0
C23 C 0.70708 0.54434 0.06586 0.0
C24 C 0.68883 0.5417 0.04395 0.0
C25 C 0.68406 0.54884 0.99232 0.0
C26 C 0.69805 0.55856 0.96335 0.0
C27 C 0.71608 0.56127 0.98512 0.0
C28 C 0.78465 0.57984 0.00711 0.0
C29 C 0.77841 0.58973 0.96101 0.0
C30 C 0.79145 0.59755 0.92489 0.0
C31 C 0.81101 0.59551 0.93384 0.0
C32 C 0.81712 0.58628 0.98122 0.0
C33 C 0.80415 0.57868 0.01745 0.0
C34 C 0.77359 0.5425 0.16922 0.0
C35 C 0.77211 0.55135 0.22007 0.0
C36 C 0.95436 0.81107 0.21354 0.0
C37 C 0.9699 0.81053 0.24919 0.0
C38 C 0.98194 0.7946 0.247 0.0
C39 C 0.97911 0.78024 0.20781 0.0
H40 H 1.0 0.72539 0.04185 0.0
H41 H 0.0049 0.69387 1.00308 0.0
H42 H 0.94883 0.6777 0.05354 0.0
H43 H 0.94421 0.70921 0.0929 0.0
H44 H 0.95516 0.75051 0.92647 0.0
H45 H 0.95172 0.76673 0.84014 0.0
H46 H 0.94099 0.81922 0.92494 0.0
H47 H 0.94418 0.80308 0.01127 0.0
H48 H 0.93985 0.79834 0.14665 0.0
H49 H 0.94444 0.82274 0.21484 0.0
H50 H 0.99406 0.79366 0.27379 0.0
H51 H 0.98913 0.76869 0.20524 0.0
N52 N 0.96807 0.75029 0.12198 0.0
N53 N 0.96041 0.74798 0.02909 0.0
N54 N 0.95653 0.77674 0.07438 0.0
C55 C 0.96659 0.73975 0.07537 0.0
C56 C 0.95536 0.76642 0.02807 0.0
C57 C 0.96279 0.76896 0.12147 0.0
C58 C 0.97194 0.71957 0.07173 0.0
C59 C 0.98912 0.71477 0.04694 0.0
C60 C 0.99174 0.69681 0.02374 0.0
C61 C 0.97714 0.68325 0.02423 0.0
C62 C 0.96045 0.68765 0.05262 0.0
C63 C 0.95784 0.70567 0.07575 0.0
C64 C 0.9503 0.77556 0.97599 0.0
C65 C 0.95171 0.76545 0.92687 0.0
C66 C 0.94976 0.77472 0.87729 0.0
C67 C 0.94625 0.79427 0.87571 0.0
C68 C 0.94353 0.8041 0.92473 0.0
C69 C 0.94554 0.79486 0.97432 0.0
C70 C 0.96423 0.7816 0.16997 0.0
C71 C 0.95164 0.79693 0.17454 0.0
C72 C 0.70661 0.96157 0.25297 0.0
C73 C 0.70613 0.98065 0.26928 0.0
C74 C 0.71919 0.99328 0.24597 0.0
C75 C 0.73169 0.98715 0.20531 0.0
H76 H 0.79797 0.97246 0.12769 0.0
H77 H 0.82876 0.98148 0.0891 0.0
H78 H 0.80371 0.98212 0.92925 0.0
H79 H 0.77346 0.97321 0.96718 0.0
H80 H 0.74913 0.92688 0.96121 0.0
H81 H 0.72904 0.9153 0.88778 0.0
H82 H 0.67958 0.93213 0.97878 0.0
H83 H 0.69952 0.94245 0.05267 0.0
H84 H 0.71812 0.94094 0.19874 0.0
H85 H 0.69671 0.95145 0.26941 0.0
H86 H 0.71933 0.00804 0.25797 0.0
H87 H 0.74087 0.99737 0.18615 0.0
N88 N 0.75782 0.96942 0.12023 0.0
N89 N 0.75493 0.95298 0.03735 0.0
N90 N 0.73082 0.95104 0.10125 0.0
C91 C 0.76509 0.96446 0.07082 0.0
C92 C 0.73785 0.94618 0.05219 0.0
C93 C 0.74061 0.96249 0.13565 0.0
C94 C 0.7833 0.97207 0.05051 0.0
C95 C 0.79907 0.97485 0.08449 0.0
C96 C 0.81669 0.97984 0.06234 0.0
C97 C 0.81869 0.98254 0.00605 0.0
C98 C 0.80269 0.98038 0.97274 0.0
C99 C 0.78533 0.97514 0.99456 0.0
C100 C 0.72593 0.93591 0.01234 0.0
C101 C 0.73392 0.92763 0.96588 0.0
C102 C 0.72237 0.92109 0.92361 0.0
C103 C 0.70259 0.9231 0.92634 0.0
C104 C 0.69466 0.93006 0.97481 0.0
C105 C 0.70618 0.9362 0.0174 0.0
C106 C 0.73117 0.96833 0.18673 0.0
C107 C 0.71888 0.95554 0.21217 0.0
C108 C 0.59192 0.69986 0.97981 0.0
C109 C 0.59917 0.70636 0.93019 0.0
C110 C 0.60095 0.726 0.9225 0.0
C111 C 0.59454 0.73874 0.96194 0.0
H112 H 0.57363 0.79017 0.97024 0.0
H113 H 0.56791 0.8213 0.93527 0.0
H114 H 0.53839 0.83663 0.08188 0.0
H115 H 0.54387 0.80461 0.11758 0.0
H116 H 0.52715 0.75172 0.18241 0.0
H117 H 0.51698 0.73152 0.25788 0.0
H118 H 0.57398 0.71015 0.27329 0.0
H119 H 0.58392 0.73028 0.19947 0.0
H120 H 0.5796 0.70692 0.05603 0.0
H121 H 0.58991 0.68491 0.9872 0.0
H122 H 0.60679 0.73157 0.88536 0.0
H123 H 0.59549 0.75377 0.9539 0.0
N124 N 0.57308 0.76323 0.03392 0.0
N125 N 0.55751 0.76872 0.11667 0.0
N126 N 0.57176 0.73926 0.0982 0.0
C127 C 0.56331 0.77511 0.06706 0.0
C128 C 0.56198 0.7507 0.13239 0.0
C129 C 0.5773 0.74534 0.0489 0.0
C130 C 0.55931 0.79468 0.04725 0.0
C131 C 0.56592 0.79999 0.9957 0.0
C132 C 0.56277 0.81808 0.97547 0.0
C133 C 0.55296 0.83169 0.00593 0.0
C134 C 0.54603 0.82648 0.05729 0.0
C135 C 0.54922 0.80816 0.07786 0.0
C136 C 0.55634 0.74263 0.18528 0.0
C137 C 0.53754 0.74317 0.20339 0.0
C138 C 0.5317 0.73139 0.24607 0.0
C139 C 0.54461 0.71905 0.27169 0.0
C140 C 0.56363 0.71955 0.25538 0.0
C141 C 0.56936 0.7311 0.21279 0.0
C142 C 0.58642 0.73213 0.01022 0.0
C143 C 0.58578 0.71256 0.01939 0.0
C144 C 0.2173 0.45849 0.92751 0.0
C145 C 0.21723 0.47729 0.90909 0.0
C146 C 0.23003 0.49019 0.93321 0.0
C147 C 0.24183 0.4846 0.97644 0.0
H148 H 0.30475 0.47522 0.06217 0.0
H149 H 0.33632 0.48162 0.10052 0.0
H150 H 0.3153 0.46904 0.26033 0.0
H151 H 0.28437 0.46263 0.22291 0.0
H152 H 0.25315 0.4317 0.2348 0.0
H153 H 0.23101 0.41925 0.3011 0.0
H154 H 0.18584 0.42344 0.18327 0.0
H155 H 0.20793 0.43517 0.1168 0.0
H156 H 0.22782 0.43861 0.98514 0.0
H157 H 0.20758 0.44815 0.91085 0.0
H158 H 0.23056 0.50473 0.91973 0.0
H159 H 0.25077 0.49504 0.99606 0.0
N160 N 0.2667 0.46704 0.06705 0.0
N161 N 0.26209 0.4512 0.14974 0.0
N162 N 0.23872 0.44994 0.0831 0.0
C163 C 0.27318 0.46204 0.11745 0.0
C164 C 0.2449 0.4451 0.13306 0.0
C165 C 0.24935 0.4608 0.04975 0.0
C166 C 0.292 0.4681 0.13912 0.0
C167 C 0.30688 0.47402 0.1055 0.0
C168 C 0.32496 0.47767 0.1275 0.0
C169 C 0.32847 0.47544 0.18345 0.0
C170 C 0.31333 0.47037 0.21695 0.0
C171 C 0.29546 0.46676 0.19525 0.0
C172 C 0.23228 0.43481 0.17069 0.0
C173 C 0.23856 0.42961 0.22271 0.0
C174 C 0.22585 0.42251 0.26082 0.0
C175 C 0.20656 0.42056 0.24791 0.0
C176 C 0.20059 0.42453 0.19471 0.0
C177 C 0.21329 0.43148 0.15655 0.0
C178 C 0.24089 0.46607 0.99666 0.0
C179 C 0.22891 0.45301 0.97053 0.0
C180 C 0.04866 0.22245 0.90659 0.0
C181 C 0.03039 0.21476 0.91091 0.0
C182 C 0.0179 0.22292 0.9489 0.0
C183 C 0.02391 0.23762 0.98364 0.0
H184 H 0.01913 0.29824 0.09788 0.0
H185 H 0.01232 0.32798 0.14626 0.0
H186 H 0.07225 0.33853 0.16179 0.0
H187 H 0.07885 0.30888 0.11566 0.0
H188 H 0.09004 0.2657 0.19425 0.0
H189 H 0.10491 0.24517 0.26104 0.0
H190 H 0.10094 0.19814 0.14911 0.0
H191 H 0.08655 0.21859 0.08207 0.0
H192 H 0.06926 0.24154 0.9396 0.0
H193 H 0.0588 0.21648 0.87854 0.0
H194 H 1.00366 0.2175 0.95309 0.0
H195 H 0.01443 0.24276 0.01476 0.0
N196 N 0.04537 0.27276 0.04247 0.0
N197 N 0.06816 0.27238 0.11246 0.0
N198 N 0.06495 0.24617 0.05547 0.0
C199 C 0.05432 0.28164 0.08492 0.0
C200 C 0.07347 0.25463 0.09836 0.0
C201 C 0.05104 0.25497 0.02725 0.0
C202 C 0.04952 0.30114 0.10328 0.0
C203 C 0.03077 0.30717 0.11072 0.0
C204 C 0.0269 0.3242 0.13864 0.0
C205 C 0.04174 0.33555 0.15931 0.0
C206 C 0.06042 0.32998 0.1483 0.0
C207 C 0.06423 0.31302 0.12119 0.0
C208 C 0.08655 0.24367 0.13333 0.0
C209 C 0.09282 0.25111 0.18324 0.0
C210 C 0.10134 0.23934 0.22162 0.0
C211 C 0.10374 0.21994 0.21085 0.0
C212 C 0.09936 0.21302 0.15881 0.0
C213 C 0.09087 0.22476 0.12044 0.0
C214 C 0.04257 0.24435 0.98126 0.0
C215 C 0.05468 0.23692 0.94151 0.0
C216 C 0.32089 0.04182 0.97592 0.0
C217 C 0.31434 0.03898 0.92274 0.0
C218 C 0.29475 0.04035 0.91259 0.0
C219 C 0.28221 0.04559 0.95434 0.0
H220 H 0.23016 0.02835 0.09359 0.0
H221 H 0.1989 0.02134 0.13174 0.0
H222 H 0.1895 0.081 0.15839 0.0
H223 H 0.22069 0.08788 0.12145 0.0
H224 H 0.26147 0.09301 0.22237 0.0
H225 H 0.27911 0.1031 0.30254 0.0
H226 H 0.33148 0.09109 0.2192 0.0
H227 H 0.31406 0.08199 0.13928 0.0
H228 H 0.31434 0.04952 0.05722 0.0
H229 H 0.33577 0.04036 0.98563 0.0
H230 H 0.28925 0.03815 0.87202 0.0
H231 H 0.26734 0.04738 0.94503 0.0
N232 N 0.25808 0.05467 0.05391 0.0
N233 N 0.25712 0.07357 0.13298 0.0
N234 N 0.28573 0.06871 0.08855 0.0
C235 C 0.24805 0.06272 0.09539 0.0
C236 C 0.27598 0.07661 0.12993 0.0
C237 C 0.2771 0.05788 0.05023 0.0
C238 C 0.22777 0.05866 0.10433 0.0
C239 C 0.22112 0.03996 0.10596 0.0
C240 C 0.20334 0.03595 0.12834 0.0
C241 C 0.19178 0.05062 0.14839 0.0
C242 C 0.19796 0.0694 0.143 0.0
C243 C 0.21582 0.07335 0.12179 0.0
C244 C 0.28631 0.08624 0.17469 0.0
C245 C 0.27677 0.09299 0.22081 0.0
C246 C 0.2869 0.0987 0.26695 0.0
C247 C 0.30678 0.09763 0.26809 0.0
C248 C 0.31624 0.09237 0.22024 0.0
C249 C 0.30616 0.08687 0.17416 0.0
C250 C 0.2891 0.04953 0.00679 0.0
C251 C 0.30851 0.04702 0.01714 0.0
C252 C 0.41418 0.32289 0.17071 0.0
C253 C 0.40973 0.31716 0.22368 0.0
C254 C 0.40968 0.29771 0.2355 0.0
C255 C 0.41545 0.28448 0.19664 0.0
H256 H 0.44001 0.23477 0.19421 0.0
H257 H 0.44562 0.20378 0.23084 0.0
H258 H 0.46708 0.18474 0.07641 0.0
H259 H 0.46155 0.21649 0.03872 0.0
H260 H 0.48027 0.2665 0.97138 0.0
H261 H 0.49194 0.28545 0.89516 0.0
H262 H 0.4378 0.31358 0.88515 0.0
H263 H 0.42629 0.29464 0.95956 0.0
H264 H 0.42404 0.31477 0.09234 0.0
H265 H 0.41458 0.33773 0.16011 0.0
H266 H 0.40598 0.29278 0.27556 0.0
H267 H 0.41609 0.2697 0.20798 0.0
N268 N 0.43527 0.25935 0.12356 0.0
N269 N 0.45113 0.25351 0.04151 0.0
N270 N 0.43606 0.28272 0.05742 0.0
C271 C 0.44542 0.24744 0.09148 0.0
C272 C 0.44623 0.27124 0.02428 0.0
C273 C 0.43055 0.27696 0.10708 0.0
C274 C 0.45009 0.22826 0.11295 0.0
C275 C 0.44589 0.22413 0.16741 0.0
C276 C 0.44902 0.20619 0.18866 0.0
C277 C 0.45644 0.19159 0.15641 0.0
C278 C 0.46128 0.19568 0.10232 0.0
C279 C 0.45808 0.21385 0.08071 0.0
C280 C 0.45239 0.27911 0.97154 0.0
C281 C 0.47076 0.27633 0.9516 0.0
C282 C 0.47749 0.28736 0.90841 0.0
C283 C 0.46588 0.3012 0.88404 0.0
C284 C 0.44715 0.30299 0.90212 0.0
C285 C 0.44054 0.29216 0.94519 0.0
C286 C 0.42128 0.29039 0.14498 0.0
C287 C 0.41981 0.30967 0.1318 0.0
Tb288 Tb 0.02464 1.00309 0.62955 0.0
C289 C 0.95964 0.98929 0.48477 0.0
C290 C 0.97481 0.97043 0.41573 0.0
C291 C 0.94185 0.9648 0.43723 0.0
C292 C 0.97549 0.98477 0.4558 0.0
C293 C 0.94243 0.97972 0.47499 0.0
C294 C 0.95804 0.96018 0.40749 0.0
C295 C 0.92723 1.0018 0.5354 0.0
N296 N 0.9608 1.0039 0.52018 0.0
C297 C 0.94457 0.01094 0.54299 0.0
C298 C 0.92621 0.98588 0.50195 0.0
Tb299 Tb 0.99012 0.01769 0.53335 0.0
N300 N 0.99147 0.99479 0.46592 0.0
C301 C 0.00717 0.99157 0.43476 0.0
C302 C 0.9909 0.96702 0.38462 0.0
C303 C 0.00709 0.97779 0.39385 0.0
H304 H 0.94508 0.02351 0.56801 0.0
H305 H 0.01966 0.97529 0.36999 0.0
H306 H 0.95734 0.94893 0.37755 0.0
H307 H 0.91464 0.00716 0.555 0.0
H308 H 0.02013 0.99912 0.44117 0.0
H309 H 0.01207 0.96686 0.81827 0.0
H310 H 0.99095 0.95622 0.35331 0.0
H311 H 0.05016 0.04337 0.60669 0.0
H312 H 0.01577 0.96931 0.71924 0.0
H313 H 0.06189 0.06984 0.66003 0.0
H314 H 0.92885 0.95712 0.42961 0.0
H315 H 0.01756 0.9949 0.87665 0.0
H316 H 0.02859 0.02858 0.88484 0.0
H317 H 0.91273 0.97891 0.49564 0.0
H318 H 0.04248 0.05657 0.84154 0.0
N319 N 0.02207 0.99882 0.72103 0.0
C320 C 0.01797 0.98172 0.74415 0.0
C321 C 0.019 0.99611 0.8331 0.0
C322 C 0.02491 0.01307 0.80954 0.0
C323 C 0.01594 0.98024 0.80032 0.0
C324 C 0.02657 0.01391 0.75265 0.0
H325 H 0.05557 0.07174 0.75823 0.0
N326 N 0.03697 0.02925 0.67348 0.0
C327 C 0.05413 0.05863 0.67973 0.0
C328 C 0.03442 0.0296 0.72813 0.0
C329 C 0.04737 0.04325 0.64944 0.0
C330 C 0.05046 0.05971 0.73507 0.0
C331 C 0.0408 0.04494 0.76019 0.0
O332 O 0.0427 0.98485 0.58625 0.0
O333 O 0.00776 0.9947 0.5598 0.0
O334 O 0.9747 0.00717 0.60517 0.0
O335 O 0.99749 1.00236 0.67322 0.0
O336 O 0.00837 0.9768 0.62489 0.0
O337 O 0.04948 0.99289 0.66738 0.0
O338 O 0.9708 0.03897 0.51121 0.0
O339 O 0.01017 0.02716 0.59525 0.0
O340 O 0.04039 0.0163 0.56422 0.0
O341 O 0.01793 0.02463 0.49925 0.0
O342 O 0.98327 0.03816 0.59678 0.0
O343 O 0.99626 0.03517 0.46668 0.0
C344 C 1.00173 0.97888 0.57669 0.0
C345 C 0.05733 0.96186 0.64108 0.0
C346 C 0.04626 0.92915 0.64634 0.0
C347 C 0.04402 0.94781 0.62824 0.0
C348 C 0.06284 0.92443 0.67504 0.0
C349 C 0.07372 0.9569 0.66966 0.0
C350 C 0.07654 0.9382 0.686 0.0
C351 C 0.97971 1.00338 0.65601 0.0
C352 C 0.05372 0.98179 0.62731 0.0
C353 C 0.03796 0.04476 0.81649 0.0
C354 C 0.03003 0.02884 0.84114 0.0
C355 C 0.99944 0.03859 0.62043 0.0
C356 C 0.98743 0.06663 0.48798 0.0
C357 C 0.0046 0.07404 0.46895 0.0
C358 C 0.01091 0.09192 0.48616 0.0
C359 C 0.99963 0.10273 0.52129 0.0
C360 C 0.97611 0.0779 0.52214 0.0
C361 C 0.98222 0.09582 0.53859 0.0
C362 C 0.03565 0.02286 0.51603 0.0
C363 C 0.98238 0.04661 0.47727 0.0
H364 H 0.0317 0.95144 0.6048 0.0
H365 H 0.065 0.9103 0.69056 0.0
H366 H 0.08421 0.96752 0.67989 0.0
H367 H 0.08917 0.93447 0.70846 0.0
H368 H 0.01344 0.06567 0.44237 0.0
H369 H 0.00422 0.1166 0.53485 0.0
H370 H 0.96278 0.07267 0.53742 0.0
H371 H 0.97356 0.10425 0.56553 0.0
Tb372 Tb 0.50471 0.03179 0.61973 0.0
C373 C 0.53858 0.95873 0.52586 0.0
C374 C 0.5592 0.96753 0.45236 0.0
C375 C 0.56598 0.9393 0.50484 0.0
C376 C 0.54331 0.9711 0.48526 0.0
C377 C 0.54959 0.94244 0.53552 0.0
C378 C 0.57077 0.95183 0.46322 0.0
C379 C 0.52635 0.93269 0.60115 0.0
N380 N 0.52259 0.96219 0.55413 0.0
C381 C 0.51585 0.94896 0.58965 0.0
C382 C 0.54346 0.92954 0.57454 0.0
Tb383 Tb 0.50669 0.9897 0.53456 0.0
N384 N 0.53185 0.9862 0.47651 0.0
C385 C 0.53477 0.99744 0.43228 0.0
C386 C 0.56276 0.97962 0.40891 0.0
C387 C 0.55032 0.99447 0.39841 0.0
H388 H 0.5027 0.95137 0.61074 0.0
H389 H 0.55274 1.00373 0.36431 0.0
H390 H 0.58318 0.94901 0.4389 0.0
H391 H 0.52127 0.92261 0.63059 0.0
H392 H 0.52541 0.00894 0.42283 0.0
H393 H 0.45865 0.01924 0.79086 0.0
H394 H 0.57484 0.97742 0.38276 0.0
H395 H 0.5091 0.06965 0.54162 0.0
H396 H 0.48569 0.01324 0.73196 0.0
H397 H 0.49108 0.09864 0.52121 0.0
H398 H 0.57475 0.92698 0.51198 0.0
H399 H 0.43722 0.0461 0.77252 0.0
H400 H 0.4294 0.07455 0.71595 0.0
H401 H 0.55154 0.91689 0.58331 0.0
H402 H 0.43806 0.09606 0.64186 0.0
N403 N 0.47968 0.03599 0.67791 0.0
C404 C 0.47657 0.02491 0.72235 0.0
C405 C 0.44912 0.04349 0.74601 0.0
C406 C 0.45283 0.05535 0.70218 0.0
C407 C 0.46118 0.02833 0.75648 0.0
C408 C 0.46853 0.0513 0.66899 0.0
H409 H 0.46116 0.10527 0.56931 0.0
N410 N 0.48928 0.05951 0.5995 0.0
C411 C 0.48592 0.08884 0.55129 0.0
C412 C 0.47344 0.06343 0.62801 0.0
C413 C 0.49612 0.07241 0.56313 0.0
C414 C 0.469 0.09249 0.57834 0.0
C415 C 0.46276 0.07992 0.61806 0.0
O416 O 0.52263 0.05439 0.63989 0.0
O417 O 0.52168 0.01304 0.57053 0.0
O418 O 0.52381 0.98527 0.60763 0.0
O419 O 0.50867 0.00562 0.6679 0.0
O420 O 0.52806 0.04101 0.56685 0.0
O421 O 0.51779 0.03172 0.69651 0.0
O422 O 0.48939 0.96668 0.51394 0.0
O423 O 0.48989 0.00835 0.58402 0.0
O424 O 0.48704 0.03598 0.54783 0.0
O425 O 0.50203 0.01587 0.48657 0.0
O426 O 0.48291 0.98056 0.58641 0.0
O427 O 0.49367 0.98959 0.45769 0.0
C428 C 0.533 0.0246 0.54984 0.0
C429 C 0.54859 0.04479 0.69116 0.0
C430 C 0.57754 0.02622 0.68446 0.0
C431 C 0.55773 0.02729 0.68389 0.0
C432 C 0.58815 0.04285 0.69216 0.0
C433 C 0.55939 0.06119 0.6993 0.0
C434 C 0.57909 0.0602 0.69975 0.0
C435 C 0.51886 0.99023 0.6574 0.0
C436 C 0.52801 0.04653 0.68493 0.0
C437 C 0.44656 0.08356 0.64913 0.0
C438 C 0.44164 0.07132 0.6913 0.0
C439 C 0.47823 0.99699 0.60397 0.0
C440 C 0.46346 0.97526 0.46124 0.0
C441 C 0.4533 0.99163 0.47535 0.0
C442 C 0.43346 0.9916 0.47375 0.0
C443 C 0.42389 0.97505 0.45769 0.0
C444 C 0.45372 0.95892 0.44495 0.0
C445 C 0.434 0.95885 0.44314 0.0
C446 C 0.49159 0.03105 0.49771 0.0
C447 C 0.48402 0.97434 0.4686 0.0
H448 H 0.54954 0.01459 0.67675 0.0
H449 H 0.60345 0.04235 0.6934 0.0
H450 H 0.55257 0.07482 0.70428 0.0
H451 H 0.58736 0.07292 0.70587 0.0
H452 H 0.46074 1.00421 0.48869 0.0
H453 H 0.4086 0.97474 0.45545 0.0
H454 H 0.46136 0.94612 0.4346 0.0
H455 H 0.42654 0.94618 0.43066 0.0
Tb456 Tb 0.53144 0.50611 0.55313 0.0
C457 C 0.44832 0.48725 0.60436 0.0
C458 C 0.42863 0.49979 0.53277 0.0
C459 C 0.41846 0.47198 0.58229 0.0
C460 C 0.44541 0.50027 0.56392 0.0
C461 C 0.43475 0.47315 0.61488 0.0
C462 C 0.41538 0.48532 0.54134 0.0
C463 C 0.45348 0.46364 0.69213 0.0
N464 N 0.46411 0.489 0.63516 0.0
C465 C 0.46642 0.47799 0.68035 0.0
C466 C 0.43769 0.46103 0.65879 0.0
Tb467 Tb 0.48479 0.51266 0.61221 0.0
N468 N 0.45868 0.51386 0.55653 0.0
C469 C 0.45527 0.52828 0.521 0.0
C470 C 0.42554 0.51406 0.49472 0.0
C471 C 0.43882 0.5285 0.48934 0.0
H472 H 0.47865 0.47983 0.70617 0.0
H473 H 0.43645 0.53977 0.46053 0.0
H474 H 0.40255 0.48457 0.51731 0.0
H475 H 0.45571 0.45461 0.72687 0.0
H476 H 0.46523 0.5396 0.51598 0.0
H477 H 0.58141 0.48783 0.71118 0.0
H478 H 0.41286 0.51421 0.46991 0.0
H479 H 0.53545 0.53574 0.44874 0.0
H480 H 0.55227 0.48444 0.65717 0.0
H481 H 0.55693 0.56104 0.41979 0.0
H482 H 0.40793 0.46114 0.58934 0.0
H483 H 0.60349 0.51414 0.69298 0.0
H484 H 0.61209 0.54219 0.63586 0.0
H485 H 0.42764 0.44997 0.66813 0.0
H486 H 0.6054 0.56216 0.55654 0.0
N487 N 0.55758 0.50864 0.6083 0.0
C488 C 0.56179 0.49594 0.64835 0.0
C489 C 0.59077 0.51264 0.66873 0.0
C490 C 0.58682 0.52513 0.62637 0.0
C491 C 0.57835 0.49777 0.6791 0.0
C492 C 0.57009 0.52248 0.59593 0.0
H493 H 0.58498 0.56915 0.47536 0.0
N494 N 0.55081 0.52962 0.52122 0.0
C495 C 0.5598 0.55339 0.45682 0.0
C496 C 0.56656 0.53342 0.55093 0.0
C497 C 0.54767 0.53892 0.47338 0.0
C498 C 0.57558 0.55797 0.48838 0.0
C499 C 0.5793 0.54775 0.53565 0.0
O500 O 0.53826 0.49364 0.47783 0.0
O501 O 0.50122 0.50398 0.54386 0.0
O502 O 0.48959 0.48247 0.59612 0.0
O503 O 0.5224 0.48162 0.60253 0.0
O504 O 0.51607 0.50958 0.4755 0.0
O505 O 0.5487 0.48204 0.55271 0.0
O506 O 0.47347 0.51929 0.68834 0.0
O507 O 0.51499 0.5147 0.62236 0.0
O508 O 0.52712 0.53637 0.56615 0.0
O509 O 0.49412 0.53755 0.56396 0.0
O510 O 0.49998 0.50778 0.68927 0.0
O511 O 0.47365 0.53995 0.62401 0.0
C512 C 0.49935 0.50683 0.49385 0.0
C513 C 0.54204 0.46046 0.48407 0.0
C514 C 0.5184 0.4357 0.47248 0.0
C515 C 0.52304 0.45472 0.48266 0.0
C516 C 0.53302 0.42258 0.46313 0.0
C517 C 0.5564 0.44722 0.47456 0.0
C518 C 0.55187 0.42836 0.46398 0.0
C519 C 0.50562 0.47322 0.6049 0.0
C520 C 0.54726 0.47968 0.50069 0.0
C521 C 0.5955 0.55112 0.56736 0.0
C522 C 0.59929 0.53978 0.61256 0.0
C523 C 0.51667 0.51134 0.67218 0.0
C524 C 0.47842 0.55065 0.71395 0.0
C525 C 0.4964 0.55858 0.70599 0.0
C526 C 0.50442 0.57043 0.74565 0.0
C527 C 0.49427 0.57427 0.79335 0.0
C528 C 0.46845 0.5547 0.76155 0.0
C529 C 0.47636 0.56649 0.80107 0.0
C530 C 0.51105 0.54564 0.55862 0.0
C531 C 0.47059 0.53689 0.67538 0.0
H532 H 0.51196 0.46493 0.49062 0.0
H533 H 0.52986 0.40789 0.4542 0.0
H534 H 0.57112 0.45143 0.4762 0.0
H535 H 0.56301 0.41817 0.45666 0.0
H536 H 0.50429 0.55525 0.66967 0.0
H537 H 0.50006 0.58356 0.82429 0.0
H538 H 0.45466 0.54851 0.76848 0.0
H539 H 0.46862 0.56956 0.83783 0.0
Tb540 Tb 0.0116 0.53321 0.55871 0.0
C541 C 0.02953 0.4506 0.61842 0.0
C542 C 0.01721 0.43025 0.54767 0.0
C543 C 0.04451 0.42026 0.60036 0.0
C544 C 0.01678 0.44741 0.57713 0.0
C545 C 0.04335 0.43695 0.63134 0.0
C546 C 0.0314 0.41689 0.55868 0.0
C547 C 0.05253 0.45639 0.70776 0.0
N548 N 0.02776 0.46674 0.64775 0.0
C549 C 0.03845 0.46939 0.69367 0.0
C550 C 0.05518 0.44021 0.676 0.0
Tb551 Tb 0.00445 0.4874 0.62123 0.0
N552 N 1.00343 0.46078 0.56743 0.0
C553 C 0.98923 0.45715 0.531 0.0
C554 C 1.00312 0.42686 0.50897 0.0
C555 C 0.98896 0.4403 0.50101 0.0
H556 H 0.03657 0.48191 0.71835 0.0
H557 H 0.97786 0.43775 0.47158 0.0
H558 H 0.03212 0.40374 0.53599 0.0
H559 H 0.06133 0.45887 0.74307 0.0
H560 H 0.97817 0.46726 0.52386 0.0
H561 H 0.02983 0.58361 0.71642 0.0
H562 H 1.00287 0.41383 0.48566 0.0
H563 H 0.9833 0.53753 0.45088 0.0
H564 H 0.03281 0.55402 0.66429 0.0
H565 H 0.95932 0.55983 0.41753 0.0
H566 H 0.05513 0.40966 0.60929 0.0
H567 H 0.00478 0.60663 0.69338 0.0
H568 H 0.97763 0.61576 0.63295 0.0
H569 H 0.06602 0.4301 0.68716 0.0
H570 H 0.95833 0.60923 0.55172 0.0
N571 N 0.00933 0.55978 0.61242 0.0
C572 C 0.02174 0.56385 0.65365 0.0
C573 C 0.00596 0.5936 0.67036 0.0
C574 C 0.99376 0.58975 0.62695 0.0
C575 C 0.02015 0.58067 0.68335 0.0
C576 C 0.99607 0.57267 0.59788 0.0
H577 H 0.95159 0.58854 0.47071 0.0
N578 N 0.98898 0.55307 0.52356 0.0
C579 C 0.96653 0.56261 0.45551 0.0
C580 C 0.98546 0.56916 0.55195 0.0
C581 C 0.98024 0.55 0.47461 0.0
C582 C 0.96216 0.57877 0.4857 0.0
C583 C 0.97188 0.58238 0.53415 0.0
O584 O 0.02476 0.53864 0.48379 0.0
O585 O 0.01379 0.50283 0.55194 0.0
O586 O 0.03479 0.49174 0.60731 0.0
O587 O 0.03566 0.52458 0.61092 0.0
O588 O 0.00799 0.51707 0.48244 0.0
O589 O 0.03562 0.5505 0.5581 0.0
O590 O 0.99736 0.47685 0.69772 0.0
O591 O 1.00212 0.51774 0.62871 0.0
O592 O 0.9811 0.52939 0.56762 0.0
O593 O 0.97972 0.49637 0.57121 0.0
O594 O 0.0091 0.50343 0.69703 0.0
O595 O 0.97718 0.47622 0.63175 0.0
C596 C 0.01081 0.50051 0.50199 0.0
C597 C 0.05782 0.54259 0.49276 0.0
C598 C 0.08267 0.51881 0.48657 0.0
C599 C 0.06356 0.52357 0.49414 0.0
C600 C 0.09584 0.53332 0.47683 0.0
C601 C 0.07112 0.55683 0.48296 0.0
C602 C 0.09005 0.55217 0.47486 0.0
C603 C 0.044 0.50783 0.61577 0.0
C604 C 0.03848 0.54808 0.50665 0.0
C605 C 0.9688 0.59897 0.56447 0.0
C606 C 0.97977 0.60268 0.61073 0.0
C607 C 0.00537 0.51993 0.67859 0.0
C608 C 0.96585 0.48178 0.72023 0.0
C609 C 0.95916 0.50031 0.71282 0.0
C610 C 0.94715 0.50861 0.7513 0.0
C611 C 0.94175 0.49809 0.79697 0.0
C612 C 0.96029 0.47147 0.76581 0.0
C613 C 0.94824 0.47961 0.80396 0.0
C614 C 0.97176 0.51321 0.56243 0.0
C615 C 0.97991 0.47366 0.68355 0.0
H616 H 0.05329 0.51258 0.50222 0.0
H617 H 0.11059 0.53007 0.46977 0.0
H618 H 0.0669 0.57157 0.48243 0.0
H619 H 0.10029 0.56322 0.46729 0.0
H620 H 0.96362 0.50839 0.67794 0.0
H621 H 0.93226 0.50406 0.82686 0.0
H622 H 0.96551 0.45724 0.77226 0.0
H623 H 0.94398 0.47161 0.83917 0.0
C624 C 0.17478 0.03327 0.22211 0.0
C625 C 0.17431 0.04647 0.17975 0.0
C626 C 0.15913 0.03084 0.25594 0.0
C627 C 0.11419 0.0548 0.2984 0.0
H628 H 0.10506 0.00649 0.36726 0.0
C629 C 0.04743 0.03623 0.42754 0.0
C630 C 0.0512 0.02775 0.47799 0.0
C631 C 0.06202 0.03938 0.39029 0.0
C632 C 0.10749 0.02009 0.34849 0.0
H633 H 0.15676 0.06699 0.13844 0.0
H634 H 0.12913 0.0622 0.19571 0.0
H635 H 0.13047 0.00937 0.30159 0.0
H636 H 0.0735 0.01606 0.52852 0.0
H637 H 0.09868 0.0211 0.46307 0.0
H638 H 0.09065 0.0652 0.34461 0.0
C639 C 0.14179 0.05413 0.20424 0.0
C640 C 0.12216 0.02182 0.31095 0.0
C641 C 0.15758 0.05677 0.17095 0.0
C642 C 0.06998 0.0227 0.49031 0.0
C643 C 0.08445 0.02548 0.45269 0.0
C644 C 0.09927 0.05295 0.33529 0.0
C645 C 0.1424 0.04133 0.24791 0.0
C646 C 0.12596 0.03927 0.28577 0.0
C647 C 0.08062 0.03369 0.40209 0.0
C648 C 0.09593 0.03564 0.36127 0.0
H649 H 0.18757 0.02537 0.23061 0.0
H650 H 0.16047 0.02114 0.28954 0.0
H651 H 0.11673 0.06856 0.28086 0.0
H652 H 0.03316 0.04007 0.41619 0.0
H653 H 0.05864 0.04566 0.35148 0.0
C654 C 0.47542 0.16172 0.17269 0.0
C655 C 0.45881 0.17235 0.18036 0.0
C656 C 0.47832 0.14477 0.20122 0.0
C657 C 0.46389 0.12219 0.32859 0.0
H658 H 0.48469 0.07605 0.26779 0.0
C659 C 0.4697 0.05531 0.45906 0.0
C660 C 0.48597 0.04408 0.45358 0.0
C661 C 0.4656 0.0695 0.42148 0.0
C662 C 0.47906 0.08888 0.28563 0.0
H663 H 0.43163 0.17265 0.22072 0.0
H664 H 0.43673 0.14343 0.27036 0.0
H665 H 0.47955 0.10352 0.20945 0.0
H666 H 0.5105 0.03868 0.4037 0.0
H667 H 0.50366 0.06368 0.33867 0.0
H668 H 0.46383 0.10805 0.40483 0.0
C669 C 0.44771 0.14833 0.24337 0.0
C670 C 0.47609 0.10461 0.25207 0.0
C671 C 0.4448 0.16511 0.21485 0.0
C672 C 0.49771 0.0469 0.40859 0.0
C673 C 0.49376 0.0613 0.37127 0.0
C674 C 0.46702 0.10661 0.36213 0.0
C675 C 0.46468 0.13818 0.23804 0.0
C676 C 0.46832 0.12141 0.27312 0.0
C677 C 0.47785 0.07309 0.37781 0.0
C678 C 0.47451 0.08963 0.3412 0.0
H679 H 0.48652 0.1669 0.14656 0.0
H680 H 0.49155 0.13728 0.19623 0.0
H681 H 0.45825 0.13503 0.34641 0.0
H682 H 0.46032 0.05341 0.49322 0.0
H683 H 0.45295 0.07787 0.42733 0.0
C684 C 0.35417 0.46511 0.24755 0.0
C685 C 0.34776 0.47782 0.20772 0.0
C686 C 0.37153 0.46783 0.27377 0.0
C687 C 0.40673 0.50499 0.30705 0.0
H688 H 0.43763 0.46214 0.34918 0.0
C689 C 0.4792 0.51471 0.41397 0.0
C690 C 0.4828 0.50302 0.45867 0.0
C691 C 0.46368 0.51124 0.37986 0.0
C692 C 0.42911 0.47426 0.33819 0.0
H693 H 0.35502 0.50313 0.16329 0.0
H694 H 0.38557 0.5078 0.20863 0.0
H695 H 0.40916 0.45699 0.29517 0.0
H696 H 0.47421 0.47745 0.49962 0.0
H697 H 0.44686 0.47154 0.44098 0.0
H698 H 0.42664 0.52223 0.35055 0.0
C699 C 0.37695 0.49583 0.22011 0.0
C700 C 0.41274 0.47132 0.30709 0.0
C701 C 0.35952 0.49305 0.19365 0.0
C702 C 0.47134 0.48708 0.46663 0.0
C703 C 0.45587 0.48352 0.43235 0.0
C704 C 0.42313 0.50793 0.3381 0.0
C705 C 0.38311 0.48334 0.26097 0.0
C706 C 0.4012 0.48662 0.2914 0.0
C707 C 0.45164 0.49573 0.38897 0.0
C708 C 0.43449 0.4926 0.3544 0.0
H709 H 0.34565 0.45305 0.25894 0.0
H710 H 0.37562 0.458 0.30524 0.0
H711 H 0.3981 0.5171 0.29663 0.0
H712 H 0.48817 0.5268 0.40611 0.0
H713 H 0.46112 0.52072 0.34628 0.0
C714 C 0.02289 0.36496 0.18446 0.0
C715 C 0.03809 0.35258 0.19449 0.0
C716 C 0.01999 0.38102 0.21731 0.0
C717 C 0.03312 0.40182 0.35243 0.0
H718 H 0.01626 0.44875 0.28769 0.0
C719 C 0.03017 0.47192 0.4764 0.0
C720 C 0.01445 0.48365 0.46763 0.0
C721 C 0.03361 0.45634 0.44222 0.0
C722 C 0.0208 0.43573 0.30669 0.0
H723 H 0.06173 0.34731 0.24879 0.0
H724 H 0.05706 0.3753 0.30431 0.0
H725 H 0.02043 0.42076 0.23092 0.0
H726 H 0.9908 0.48919 0.41422 0.0
H727 H 0.99638 0.46187 0.35547 0.0
H728 H 0.0337 0.41681 0.42804 0.0
C729 C 0.04722 0.37262 0.27145 0.0
C730 C 0.02315 0.4196 0.27399 0.0
C731 C 0.05008 0.35662 0.23883 0.0
C732 C 1.00281 0.48011 0.42251 0.0
C733 C 0.00614 0.46452 0.38855 0.0
C734 C 0.03085 0.41796 0.38506 0.0
C735 C 0.03216 0.38513 0.26128 0.0
C736 C 0.02933 0.40236 0.29631 0.0
C737 C 0.0215 0.45227 0.39808 0.0
C738 C 0.02456 0.43517 0.36281 0.0
H739 H 0.01338 0.36242 0.15073 0.0
H740 H 0.00808 0.39013 0.20844 0.0
H741 H 0.03761 0.38881 0.37154 0.0
H742 H 0.0398 0.47476 0.50966 0.0
H743 H 0.04577 0.44751 0.45045 0.0
C744 C 0.83859 1.00028 0.93918 0.0
C745 C 0.83734 0.98682 0.9808 0.0
C746 C 0.85541 1.00275 0.91044 0.0
C747 C 0.89893 0.97725 0.87178 0.0
H748 H 0.91438 0.0266 0.82036 0.0
C749 C 0.96616 0.9884 0.73976 0.0
C750 C 0.96442 1.00116 0.69651 0.0
C751 C 0.95177 0.98678 0.77847 0.0
C752 C 0.91019 0.01268 0.83394 0.0
H753 H 0.85307 0.96578 0.02591 0.0
H754 H 0.8826 0.97021 0.97598 0.0
H755 H 0.88775 0.02403 0.88217 0.0
H756 H 0.94645 0.02263 0.66115 0.0
H757 H 0.92121 0.01948 0.72709 0.0
H758 H 0.92123 0.96589 0.8228 0.0
C759 C 0.87045 0.97874 0.96526 0.0
C760 C 0.89491 0.0112 0.86955 0.0
C761 C 0.85359 0.97636 0.99433 0.0
C762 C 0.94804 0.01231 0.69302 0.0
C763 C 0.93369 0.01075 0.73159 0.0
C764 C 0.91424 0.97872 0.83607 0.0
C765 C 0.87148 0.99178 0.92235 0.0
C766 C 0.88886 0.99345 0.88833 0.0
C767 C 0.93534 0.998 0.775 0.0
C768 C 0.91988 0.99644 0.81595 0.0
H769 H 0.82638 0.00868 0.92798 0.0
H770 H 0.85556 0.0128 0.87746 0.0
H771 H 0.89456 0.96332 0.88484 0.0
H772 H 0.97852 0.97949 0.74334 0.0
H773 H 0.95362 0.9769 0.81148 0.0
C774 C 0.56452 0.85956 0.95245 0.0
C775 C 0.55006 0.851 0.98274 0.0
C776 C 0.56133 0.87643 0.92452 0.0
C777 C 0.5221 0.90564 0.86835 0.0
H778 H 0.56297 0.94053 0.83782 0.0
C779 C 0.51108 0.97456 0.74545 0.0
C780 C 0.52364 0.97712 0.70214 0.0
C781 C 0.51448 0.96063 0.78447 0.0
C782 C 0.55143 0.93089 0.84591 0.0
H783 H 0.52112 0.85423 0.00961 0.0
H784 H 0.51572 0.88413 0.96258 0.0
H785 H 0.56825 0.91434 0.90009 0.0
H786 H 0.54987 0.96743 0.6665 0.0
H787 H 0.55611 0.94343 0.73558 0.0
H788 H 0.50526 0.92251 0.81457 0.0
C789 C 0.52943 0.87744 0.95903 0.0
C790 C 0.55445 0.91577 0.88148 0.0
C791 C 0.53259 0.8604 0.98675 0.0
C792 C 0.53999 0.96585 0.69962 0.0
C793 C 0.54357 0.95213 0.73919 0.0
C794 C 0.51902 0.92094 0.83345 0.0
C795 C 0.54364 0.88551 0.92649 0.0
C796 C 0.53992 0.90269 0.89257 0.0
C797 C 0.53068 0.94914 0.78156 0.0
C798 C 0.53372 0.93358 0.82121 0.0
H799 H 0.57829 0.85297 0.94922 0.0
H800 H 0.57264 0.88192 0.89973 0.0
H801 H 0.51062 0.8958 0.8748 0.0
H802 H 0.4982 0.98276 0.748 0.0
H803 H 0.50433 0.95871 0.81673 0.0
C804 C 0.65676 0.56015 0.93462 0.0
C805 C 0.66486 0.54603 0.9675 0.0
C806 C 0.63971 0.55704 0.90701 0.0
C807 C 0.60831 0.51791 0.85888 0.0
H808 H 0.5738 0.55908 0.82762 0.0
C809 C 0.53623 0.50518 0.75428 0.0
C810 C 0.53234 0.51658 0.70917 0.0
C811 C 0.55128 0.50952 0.78917 0.0
C812 C 0.58336 0.54748 0.83572 0.0
H813 H 0.66063 0.51768 0.99839 0.0
H814 H 0.63053 0.51252 0.95216 0.0
H815 H 0.60173 0.56495 0.88355 0.0
H816 H 0.53969 0.54266 0.66861 0.0
H817 H 0.56605 0.55035 0.72976 0.0
H818 H 0.5897 0.50045 0.81155 0.0
C819 C 0.6377 0.52588 0.94638 0.0
C820 C 0.59946 0.55081 0.86776 0.0
C821 C 0.6549 0.52895 0.9737 0.0
C822 C 0.54282 0.53327 0.702 0.0
C823 C 0.55775 0.53778 0.73743 0.0
C824 C 0.59211 0.51456 0.8274 0.0
C825 C 0.62999 0.53976 0.91182 0.0
C826 C 0.61228 0.53609 0.87961 0.0
C827 C 0.56247 0.52568 0.78065 0.0
C828 C 0.57947 0.52932 0.81521 0.0
H829 H 0.66373 0.57366 0.92955 0.0
H830 H 0.63447 0.56807 0.88063 0.0
H831 H 0.61794 0.50625 0.86583 0.0
H832 H 0.528 0.49252 0.76148 0.0
H833 H 0.5543 0.50011 0.82264 0.0
C834 C 0.97146 0.64812 0.0098 0.0
C835 C 0.97863 0.66547 0.99103 0.0
C836 C 0.97228 0.63175 0.9773 0.0
C837 C 0.97762 0.61586 0.83375 0.0
H838 H 0.99249 0.5681 0.89744 0.0
C839 C 0.9837 0.54697 0.70425 0.0
C840 C 0.99975 0.5358 0.71463 0.0
C841 C 0.97885 0.56191 0.73939 0.0
C842 C 0.98837 0.58131 0.87881 0.0
H843 H 0.99194 0.67907 0.92239 0.0
H844 H 0.99359 0.65066 0.86648 0.0
H845 H 0.98901 0.59598 0.95506 0.0
H846 H 0.02236 0.5305 0.77177 0.0
H847 H 0.01422 0.55655 0.83238 0.0
H848 H 0.97729 0.60131 0.75738 0.0
C849 C 0.98725 0.64966 0.90624 0.0
C850 C 0.98617 0.59731 0.91209 0.0
C851 C 0.98656 0.66596 0.93878 0.0
C852 C 0.01013 0.53913 0.7623 0.0
C853 C 0.00532 0.55399 0.79732 0.0
C854 C 0.9797 0.59983 0.8005 0.0
C855 C 0.9801 0.63231 0.92489 0.0
C856 C 0.98111 0.61491 0.88994 0.0
C857 C 0.98973 0.56578 0.78621 0.0
C858 C 0.98553 0.5824 0.82232 0.0
H859 H 0.96529 0.64715 0.04978 0.0
H860 H 0.96652 0.61869 0.99299 0.0
H861 H 0.97337 0.62907 0.81528 0.0
H862 H 0.97503 0.5443 0.66879 0.0
H863 H 0.96658 0.57043 0.72978 0.0
C864 C 0.09677 0.20845 0.30391 0.0
C865 C 0.10708 0.20639 0.25573 0.0
C866 C 0.0955 0.19357 0.34048 0.0
C867 C 0.09589 0.14181 0.33409 0.0
H868 H 0.07691 0.1492 0.47964 0.0
C869 C 0.03282 0.10065 0.41155 0.0
C870 C 0.02919 0.0994 0.46717 0.0
C871 C 0.04908 0.10972 0.39317 0.0
C872 C 0.08254 0.14651 0.43964 0.0
H873 H 0.12601 0.18791 0.21132 0.0
H874 H 0.12413 0.16191 0.27605 0.0
H875 H 0.09595 0.17357 0.43847 0.0
H876 H 0.0403 0.10502 0.54747 0.0
H877 H 0.06915 0.12025 0.51571 0.0
H878 H 0.0827 0.11463 0.33552 0.0
C879 C 0.11653 0.17487 0.28469 0.0
C880 C 0.09329 0.16072 0.4156 0.0
C881 C 0.11768 0.18978 0.2477 0.0
C882 C 0.04267 0.10619 0.50429 0.0
C883 C 0.05915 0.11495 0.48598 0.0
C884 C 0.08553 0.12739 0.35862 0.0
C885 C 0.10461 0.17622 0.33011 0.0
C886 C 0.09895 0.15911 0.3612 0.0
C887 C 0.06226 0.11746 0.43012 0.0
C888 C 0.07762 0.13009 0.41031 0.0
H889 H 0.08824 0.22093 0.31122 0.0
H890 H 0.08597 0.19523 0.37438 0.0
H891 H 0.10009 0.13987 0.29229 0.0
H892 H 0.02259 0.0955 0.3822 0.0
H893 H 0.05066 0.11157 0.34992 0.0
C894 C 0.3366 0.10456 0.32065 0.0
C895 C 0.31755 0.09882 0.32012 0.0
C896 C 0.34845 0.09977 0.36391 0.0
C897 C 0.35025 0.05993 0.45716 0.0
H898 H 0.40076 0.07905 0.4843 0.0
C899 C 0.40668 0.00812 0.51998 0.0
C900 C 0.42261 0.00896 0.48639 0.0
C901 C 0.39461 0.02368 0.52454 0.0
C902 C 0.38665 0.07357 0.4775 0.0
H903 H 0.2954 0.08644 0.36938 0.0
H904 H 0.3157 0.07931 0.44579 0.0
H905 H 0.37652 0.1002 0.44791 0.0
H906 H 0.4393 0.02704 0.43468 0.0
H907 H 0.41796 0.05397 0.44081 0.0
H908 H 0.36039 0.03316 0.48329 0.0
C909 C 0.32177 0.08654 0.41139 0.0
C910 C 0.37275 0.08568 0.45663 0.0
C911 C 0.31001 0.09092 0.3676 0.0
C912 C 0.42709 0.02607 0.46086 0.0
C913 C 0.41488 0.04155 0.46474 0.0
C914 C 0.36404 0.04792 0.47802 0.0
C915 C 0.34139 0.08953 0.40819 0.0
C916 C 0.35461 0.07875 0.44377 0.0
C917 C 0.398 0.04021 0.49454 0.0
C918 C 0.38265 0.05431 0.48608 0.0
H919 H 0.34277 0.11137 0.28571 0.0
H920 H 0.36343 0.10257 0.35997 0.0
H921 H 0.33662 0.05385 0.44722 0.0
H922 H 0.40322 0.99521 0.54125 0.0
H923 H 0.38205 0.02236 0.54919 0.0
C924 C 0.39986 0.34936 0.25761 0.0
C925 C 0.40803 0.33156 0.26764 0.0
C926 C 0.40257 0.36435 0.29405 0.0
C927 C 0.42393 0.37753 0.42802 0.0
H928 H 0.44841 0.41645 0.34345 0.0
C929 C 0.49286 0.41223 0.4921 0.0
C930 C 0.49842 0.4295 0.4693 0.0
C931 C 0.47501 0.40472 0.48096 0.0
C932 C 0.44123 0.40616 0.36836 0.0
H933 H 0.42387 0.31516 0.32661 0.0
H934 H 0.42843 0.34105 0.38971 0.0
H935 H 0.42747 0.3943 0.29909 0.0
H936 H 0.48913 0.45326 0.42089 0.0
H937 H 0.45776 0.44045 0.40268 0.0
H938 H 0.43857 0.38892 0.49694 0.0
C939 C 0.41985 0.34352 0.35397 0.0
C940 C 0.42913 0.39336 0.34266 0.0
C941 C 0.41723 0.32859 0.31752 0.0
C942 C 0.48521 0.43992 0.43911 0.0
C943 C 0.46729 0.43249 0.42826 0.0
C944 C 0.43596 0.39046 0.45391 0.0
C945 C 0.41341 0.36179 0.34133 0.0
C946 C 0.42118 0.37828 0.3716 0.0
C947 C 0.46229 0.41438 0.44686 0.0
C948 C 0.4456 0.40426 0.42377 0.0
H949 H 0.39229 0.35201 0.22017 0.0
H950 H 0.39716 0.37821 0.28365 0.0
H951 H 0.41771 0.36626 0.45157 0.0
H952 H 0.50264 0.40409 0.51658 0.0
H953 H 0.47181 0.39072 0.49597 0.0
C954 C 0.19411 0.42624 0.34149 0.0
C955 C 0.19228 0.41713 0.29094 0.0
C956 C 0.17889 0.42705 0.3772 0.0
C957 C 0.12863 0.43169 0.36317 0.0
H958 H 0.13156 0.44031 0.51823 0.0
C959 C 0.07901 0.48507 0.45654 0.0
C960 C 0.08897 0.49881 0.48643 0.0
C961 C 0.08696 0.46724 0.4473 0.0
C962 C 0.13041 0.43787 0.47498 0.0
H963 H 0.17374 0.39966 0.24148 0.0
H964 H 0.14697 0.40145 0.30354 0.0
H965 H 0.156 0.42161 0.47324 0.0
H966 H 0.11386 0.50394 0.53576 0.0
H967 H 0.12812 0.47336 0.5179 0.0
H968 H 0.10418 0.44922 0.3634 0.0
C969 C 0.16016 0.40815 0.31509 0.0
C970 C 0.14436 0.42707 0.4493 0.0
C971 C 0.17546 0.40722 0.27945 0.0
C972 C 0.10611 0.49377 0.51129 0.0
C973 C 0.11414 0.47605 0.50172 0.0
C974 C 0.11481 0.4426 0.38865 0.0
C975 C 0.16144 0.41886 0.36311 0.0
C976 C 0.14416 0.42478 0.39268 0.0
C977 C 0.10513 0.4629 0.46721 0.0
C978 C 0.11613 0.44676 0.44438 0.0
H979 H 0.20673 0.43417 0.35174 0.0
H980 H 0.18033 0.43559 0.41356 0.0
H981 H 0.12806 0.43032 0.31945 0.0
H982 H 0.06573 0.48855 0.437 0.0
H983 H 0.07941 0.45732 0.42159 0.0
C984 C 0.96348 0.80141 0.79007 0.0
C985 C 0.94802 0.80489 0.82426 0.0
C986 C 0.96782 0.81391 0.74833 0.0
C987 C 0.97482 0.84208 0.65889 0.0
H988 H 0.97451 0.89243 0.72164 0.0
C989 C 0.03437 0.89582 0.63279 0.0
C990 C 0.0306 0.91523 0.63931 0.0
C991 C 0.0197 0.8826 0.63463 0.0
C992 C 0.97434 0.87864 0.70232 0.0
H993 H 0.92376 0.823 0.8378 0.0
H994 H 0.93119 0.84479 0.7643 0.0
H995 H 0.95579 0.86786 0.76245 0.0
H996 H 0.00803 0.93593 0.64851 0.0
H997 H 0.98263 0.91303 0.64907 0.0
H998 H 0.99444 0.85286 0.60064 0.0
C999 C 0.94024 0.83263 0.77062 0.0
C1000 C 0.96351 0.86445 0.72587 0.0
C1001 C 0.93597 0.82017 0.81268 0.0
C1002 C 0.01163 0.92116 0.64306 0.0
C1003 C 0.99698 0.90798 0.64403 0.0
C1004 C 0.98571 0.85634 0.63525 0.0
C1005 C 0.95674 0.83015 0.73972 0.0
C1006 C 0.96426 0.8458 0.706 0.0
C1007 C 1.00091 0.88851 0.64252 0.0
C1008 C 0.98622 0.87457 0.65824 0.0
H1009 H 0.97314 0.78986 0.79816 0.0
H1010 H 0.98074 0.81161 0.72588 0.0
H1011 H 0.97542 0.82793 0.64196 0.0
H1012 H 0.04872 0.89075 0.62837 0.0
H1013 H 0.02328 0.86771 0.63345 0.0
C1014 C 0.67113 0.91661 0.88137 0.0
C1015 C 0.69048 0.92096 0.87692 0.0
C1016 C 0.65869 0.92033 0.83855 0.0
C1017 C 0.65723 0.95534 0.73016 0.0
H1018 H 0.60556 0.93778 0.71559 0.0
C1019 C 0.60291 0.00565 0.64564 0.0
C1020 C 0.58726 0.00776 0.67987 0.0
C1021 C 0.61413 0.98944 0.64844 0.0
C1022 C 0.61999 0.94278 0.71886 0.0
H1023 H 0.71219 0.92977 0.82014 0.0
H1024 H 0.69081 0.93486 0.74505 0.0
H1025 H 0.62914 0.91758 0.75926 0.0
H1026 H 0.57011 0.99405 0.74062 0.0
H1027 H 0.59003 0.96606 0.7472 0.0
H1028 H 0.64812 0.98084 0.69292 0.0
C1029 C 0.68505 0.92962 0.78271 0.0
C1030 C 0.63351 0.93122 0.74393 0.0
C1031 C 0.69742 0.92639 0.8259 0.0
C1032 C 0.58214 0.99275 0.71382 0.0
C1033 C 0.59352 0.97664 0.71727 0.0
C1034 C 0.64382 0.9668 0.70512 0.0
C1035 C 0.6654 0.92804 0.78983 0.0
C1036 C 0.65213 0.93772 0.75193 0.0
C1037 C 0.61017 0.97522 0.68649 0.0
C1038 C 0.62486 0.96103 0.70113 0.0
H1039 H 0.66532 0.91163 0.91923 0.0
H1040 H 0.64369 0.91868 0.84563 0.0
H1041 H 0.67125 0.96112 0.7362 0.0
H1042 H 0.60689 0.01688 0.61821 0.0
H1043 H 0.62656 0.98856 0.62306 0.0
C1044 C 0.60812 0.67401 0.89595 0.0
C1045 C 0.60249 0.69269 0.88498 0.0
C1046 C 0.60606 0.65985 0.85675 0.0
C1047 C 0.57376 0.65152 0.74206 0.0
H1048 H 0.59282 0.60053 0.76042 0.0
C1049 C 0.53656 0.57959 0.77873 0.0
C1050 C 0.52305 0.57938 0.73696 0.0
C1051 C 0.55272 0.59074 0.77443 0.0
C1052 C 0.58757 0.61474 0.75388 0.0
H1053 H 0.59309 0.71155 0.82099 0.0
H1054 H 0.59084 0.68721 0.75187 0.0
H1055 H 0.61172 0.62735 0.7919 0.0
H1056 H 0.51644 0.58943 0.65628 0.0
H1057 H 0.54475 0.60918 0.64891 0.0
H1058 H 0.54935 0.6389 0.70597 0.0
C1059 C 0.59577 0.68322 0.79182 0.0
C1060 C 0.59828 0.63013 0.77237 0.0
C1061 C 0.59736 0.69732 0.8315 0.0
C1062 C 0.5267 0.58933 0.68898 0.0
C1063 C 0.54284 0.60063 0.68481 0.0
C1064 C 0.56327 0.63621 0.72273 0.0
C1065 C 0.59874 0.66409 0.80504 0.0
C1066 C 0.59091 0.64864 0.77007 0.0
C1067 C 0.55563 0.602 0.72841 0.0
C1068 C 0.56951 0.61764 0.73155 0.0
H1069 H 0.61289 0.67001 0.93606 0.0
H1070 H 0.60869 0.6454 0.86895 0.0
H1071 H 0.56737 0.6654 0.73947 0.0
H1072 H 0.53419 0.57177 0.81576 0.0
H1073 H 0.56217 0.59171 0.80899 0.0
C1074 C 0.84346 0.6064 0.90693 0.0
C1075 C 0.82508 0.60089 0.89179 0.0
C1076 C 0.85809 0.60624 0.86915 0.0
C1077 C 0.86851 0.57881 0.74607 0.0
H1078 H 0.91877 0.59768 0.77814 0.0
C1079 C 0.9309 0.53298 0.69431 0.0
C1080 C 0.93959 0.52793 0.74347 0.0
C1081 C 0.92026 0.54962 0.69089 0.0
C1082 C 0.90479 0.59253 0.76777 0.0
H1083 H 0.80719 0.59382 0.82285 0.0
H1084 H 0.83236 0.59485 0.75656 0.0
H1085 H 0.8912 0.61504 0.81083 0.0
H1086 H 0.94621 0.53735 0.82501 0.0
H1087 H 0.9276 0.56625 0.81937 0.0
H1088 H 0.88204 0.55592 0.70515 0.0
C1089 C 0.83575 0.59821 0.79833 0.0
C1090 C 0.88896 0.60235 0.78691 0.0
C1091 C 0.82118 0.5979 0.83644 0.0
C1092 C 0.93922 0.54073 0.7871 0.0
C1093 C 0.9288 0.55743 0.78351 0.0
C1094 C 0.88427 0.56923 0.72623 0.0
C1095 C 0.85463 0.601 0.81486 0.0
C1096 C 0.87066 0.59485 0.77966 0.0
C1097 C 0.91834 0.56151 0.73643 0.0
C1098 C 0.90257 0.57527 0.73999 0.0
H1099 H 0.84687 0.60955 0.94883 0.0
H1100 H 0.8723 0.60864 0.88398 0.0
H1101 H 0.85481 0.57238 0.7394 0.0
H1102 H 0.93111 0.5234 0.65991 0.0
H1103 H 0.91246 0.5525 0.65396 0.0
C1104 C 0.01535 0.18236 0.9035 0.0
C1105 C 0.0252 0.19736 0.87903 0.0
C1106 C 0.01227 0.16527 0.87559 0.0
C1107 C 0.0122 0.14341 0.73742 0.0
H1108 H 0.01855 0.09651 0.81633 0.0
C1109 C 0.01398 0.07068 0.62752 0.0
C1110 C 0.00492 0.05541 0.6526 0.0
C1111 C 0.01663 0.08783 0.65533 0.0
C1112 C 0.01649 0.10945 0.79372 0.0
H1113 H 0.03883 0.20617 0.80476 0.0
H1114 H 0.03361 0.17645 0.75644 0.0
H1115 H 0.02203 0.1267 0.8637 0.0
H1116 H 0.99039 0.04641 0.72489 0.0
H1117 H 0.99522 0.07622 0.77416 0.0
H1118 H 0.00664 0.12618 0.66745 0.0
C1119 C 0.0282 0.17788 0.79725 0.0
C1120 C 0.01848 0.12682 0.82098 0.0
C1121 C 0.03134 0.19493 0.82521 0.0
C1122 C 0.99807 0.05777 0.70548 0.0
C1123 C 1.00083 0.07487 0.73356 0.0
C1124 C 0.01019 0.12604 0.71019 0.0
C1125 C 0.01885 0.16267 0.82225 0.0
C1126 C 0.01637 0.14409 0.79326 0.0
C1127 C 0.01003 0.09023 0.70875 0.0
C1128 C 0.01232 0.10878 0.73788 0.0
H1129 H 0.01057 0.18356 0.94501 0.0
H1130 H 0.00477 0.15403 0.89603 0.0
H1131 H 0.0102 0.15634 0.71474 0.0
H1132 H 0.01888 0.06936 0.58615 0.0
H1133 H 0.02389 0.09922 0.63494 0.0
C1134 C 0.32568 0.02117 0.83954 0.0
C1135 C 0.32834 0.03549 0.87862 0.0
C1136 C 0.33986 0.01712 0.80142 0.0
C1137 C 0.38405 0.03687 0.74093 0.0
H1138 H 0.39692 0.9843 0.71558 0.0
C1139 C 0.44851 0.0163 0.6094 0.0
C1140 C 0.45966 1.00128 0.62835 0.0
C1141 C 0.43079 0.02001 0.63232 0.0
C1142 C 0.39361 0.99907 0.72236 0.0
H1143 H 0.34757 0.05743 0.90621 0.0
H1144 H 0.37215 0.05029 0.84096 0.0
H1145 H 0.36919 0.99218 0.76947 0.0
H1146 H 0.46055 0.9775 0.68304 0.0
H1147 H 0.42996 0.98418 0.72438 0.0
H1148 H 0.40877 0.04383 0.69582 0.0
C1149 C 0.3592 0.04215 0.83925 0.0
C1150 C 0.3775 1.0036 0.75271 0.0
C1151 C 0.34514 0.04611 0.87724 0.0
C1152 C 0.45235 0.9894 0.6685 0.0
C1153 C 0.4347 0.99315 0.69171 0.0
C1154 C 0.40014 0.03236 0.71066 0.0
C1155 C 0.35691 0.02745 0.80118 0.0
C1156 C 0.37273 0.02257 0.76348 0.0
C1157 C 0.4237 0.00865 0.6744 0.0
C1158 C 0.40545 0.01339 0.70196 0.0
H1159 H 0.31291 0.01272 0.83952 0.0
H1160 H 0.33752 0.00583 0.77236 0.0
H1161 H 0.38067 0.05165 0.74746 0.0
H1162 H 0.45344 0.02522 0.57687 0.0
H1163 H 0.42269 0.03184 0.61697 0.0
C1164 C 0.49139 0.32312 0.85032 0.0
C1165 C 0.4734 0.31496 0.8435 0.0
C1166 C 0.49725 0.33814 0.81743 0.0
C1167 C 0.48509 0.36532 0.69155 0.0
H1168 H 0.51057 0.40623 0.7673 0.0
C1169 C 0.48806 0.44244 0.61175 0.0
C1170 C 0.50452 0.45309 0.62165 0.0
C1171 C 0.48619 0.42414 0.63257 0.0
C1172 C 0.50373 0.39485 0.74516 0.0
H1173 H 0.44804 0.31545 0.7938 0.0
H1174 H 0.45796 0.34181 0.73776 0.0
H1175 H 0.50407 0.37687 0.81456 0.0
H1176 H 0.53238 0.45239 0.65845 0.0
H1177 H 0.52916 0.42045 0.69457 0.0
H1178 H 0.48427 0.38372 0.62257 0.0
C1179 C 0.46768 0.33661 0.76824 0.0
C1180 C 0.50002 0.37792 0.77232 0.0
C1181 C 0.46187 0.32156 0.80093 0.0
C1182 C 0.51945 0.44465 0.65044 0.0
C1183 C 0.51755 0.42637 0.67151 0.0
C1184 C 0.48872 0.38234 0.66444 0.0
C1185 C 0.48526 0.34546 0.77686 0.0
C1186 C 0.49047 0.36294 0.74617 0.0
C1187 C 0.50073 0.41603 0.66385 0.0
C1188 C 0.49793 0.3974 0.69107 0.0
H1189 H 0.50065 0.31854 0.88277 0.0
H1190 H 0.51105 0.34428 0.82468 0.0
H1191 H 0.47799 0.35406 0.66966 0.0
H1192 H 0.47641 0.4484 0.58887 0.0
H1193 H 0.47303 0.41664 0.62585 0.0
C1194 C 0.19321 0.50082 0.87395 0.0
C1195 C 0.2027 0.48341 0.8683 0.0
C1196 C 0.17778 0.50533 0.8405 0.0
C1197 C 0.15156 0.49026 0.71446 0.0
H1198 H 0.10945 0.51504 0.78542 0.0
C1199 C 0.07477 0.49045 0.62832 0.0
C1200 C 0.0639 0.50695 0.63529 0.0
C1201 C 0.09288 0.489 0.65129 0.0
C1202 C 0.12115 0.50834 0.76464 0.0
H1203 H 0.20394 0.45769 0.82005 0.0
H1204 H 0.17685 0.46523 0.7633 0.0
H1205 H 0.13881 0.51021 0.83495 0.0
H1206 H 0.06402 0.53526 0.66952 0.0
H1207 H 0.09553 0.53276 0.70948 0.0
H1208 H 0.13349 0.48792 0.64458 0.0
C1209 C 0.18135 0.47554 0.79324 0.0
C1210 C 0.1381 0.5056 0.79309 0.0
C1211 C 0.19684 0.47109 0.82642 0.0
C1212 C 0.07192 0.52228 0.66367 0.0
C1213 C 0.08995 0.5208 0.68696 0.0
C1214 C 0.13452 0.49288 0.6861 0.0
C1215 C 0.17129 0.49255 0.8005 0.0
C1216 C 0.15357 0.49642 0.76865 0.0
C1217 C 0.10055 0.50402 0.68198 0.0
C1218 C 0.11904 0.50188 0.71093 0.0
H1219 H 0.19716 0.51066 0.9058 0.0
H1220 H 0.17072 0.51875 0.84675 0.0
H1221 H 0.16318 0.48341 0.69375 0.0
H1222 H 0.06915 0.47848 0.6059 0.0
H1223 H 0.10059 0.47586 0.64657 0.0
C1224 C 0.9803 0.82492 0.33939 0.0
C1225 C 0.97388 0.82716 0.28566 0.0
C1226 C 0.98354 0.84078 0.37298 0.0
C1227 C 0.99246 0.89278 0.36602 0.0
H1228 H 0.97782 0.89319 0.51728 0.0
C1229 C 0.01206 0.95506 0.50779 0.0
C1230 C 0.99803 0.9619 0.54283 0.0
C1231 C 0.00949 0.93811 0.4791 0.0
C1232 C 0.98188 0.89335 0.475 0.0
H1233 H 0.96646 0.84812 0.22516 0.0
H1234 H 0.97175 0.87538 0.28328 0.0
H1235 H 0.97273 0.86468 0.46223 0.0
H1236 H 0.97095 0.95563 0.57879 0.0
H1237 H 0.96608 0.92612 0.52744 0.0
H1238 H 1.00132 0.92144 0.37823 0.0
C1239 C 0.97437 0.86145 0.29975 0.0
C1240 C 0.97917 0.8769 0.44355 0.0
C1241 C 0.97108 0.8457 0.26645 0.0
C1242 C 0.9817 0.95096 0.55059 0.0
C1243 C 0.97905 0.93397 0.52168 0.0
C1244 C 0.99522 0.90912 0.39738 0.0
C1245 C 0.98067 0.8593 0.35353 0.0
C1246 C 0.98427 0.87643 0.38838 0.0
C1247 C 0.99286 0.9274 0.48507 0.0
C1248 C 0.98991 0.90972 0.45225 0.0
H1249 H 0.98255 0.81091 0.35574 0.0
H1250 H 0.98854 0.83853 0.41399 0.0
H1251 H 0.99685 0.89296 0.32404 0.0
H1252 H 0.02517 0.96277 0.50301 0.0
H1253 H 0.02064 0.93332 0.45243 0.0
C1254 C 0.685 0.97623 0.35059 0.0
C1255 C 0.69089 0.98737 0.30658 0.0
C1256 C 0.66908 0.98127 0.3811 0.0
C1257 C 0.62466 0.00847 0.36852 0.0
H1258 H 0.62116 1.00141 0.52388 0.0
C1259 C 0.55887 0.03296 0.48632 0.0
C1260 C 0.55172 0.02072 0.52582 0.0
C1261 C 0.57657 0.02963 0.46304 0.0
C1262 C 0.62183 1.00329 0.48042 0.0
H1263 H 0.68483 0.01295 0.26158 0.0
H1264 H 0.65733 0.0219 0.31525 0.0
H1265 H 0.65086 0.99454 0.47743 0.0
H1266 H 0.55826 0.9966 0.57632 0.0
H1267 H 0.58901 0.99038 0.53473 0.0
H1268 H 0.59563 0.01689 0.3711 0.0
C1269 C 0.6649 0.00909 0.32574 0.0
C1270 C 0.63889 0.99938 0.45376 0.0
C1271 C 0.68085 1.0041 0.29537 0.0
C1272 C 0.56313 0.00581 0.54435 0.0
C1273 C 0.58089 1.00246 0.5211 0.0
C1274 C 0.60763 0.01231 0.39508 0.0
C1275 C 0.65855 0.99755 0.36833 0.0
C1276 C 0.64056 1.00199 0.39742 0.0
C1277 C 0.5877 0.01412 0.47931 0.0
C1278 C 0.60597 0.00988 0.45145 0.0
H1279 H 0.69248 0.96334 0.36077 0.0
H1280 H 0.66462 0.97198 0.41341 0.0
H1281 H 0.62523 0.01023 0.32498 0.0
H1282 H 0.55055 0.0449 0.47258 0.0
H1283 H 0.58151 0.03922 0.43209 0.0
C1284 C 0.5502 0.69943 0.35549 0.0
C1285 C 0.53838 0.7045 0.31183 0.0
C1286 C 0.54594 0.68383 0.38801 0.0
C1287 C 0.5082 0.65026 0.42789 0.0
H1288 H 0.55013 0.6159 0.45126 0.0
C1289 C 0.49786 0.5737 0.50845 0.0
C1290 C 0.51238 0.56551 0.5395 0.0
C1291 C 0.50019 0.59165 0.48535 0.0
C1292 C 0.53828 0.62543 0.44623 0.0
H1293 H 0.51221 0.69747 0.27028 0.0
H1294 H 0.50463 0.67047 0.32774 0.0
H1295 H 0.55536 0.64553 0.40416 0.0
H1296 H 0.54033 0.57028 0.57321 0.0
H1297 H 0.54416 0.60165 0.53472 0.0
H1298 H 0.49111 0.63019 0.4703 0.0
C1299 C 0.51725 0.6786 0.33661 0.0
C1300 C 0.5413 0.64247 0.41891 0.0
C1301 C 0.52157 0.69416 0.30375 0.0
C1302 C 0.52894 0.57604 0.54885 0.0
C1303 C 0.53119 0.59404 0.52635 0.0
C1304 C 0.50519 0.63326 0.45578 0.0
C1305 C 0.52966 0.67292 0.3782 0.0
C1306 C 0.52631 0.65509 0.40914 0.0
C1307 C 0.51703 0.60198 0.49318 0.0
C1308 C 0.52018 0.62052 0.46518 0.0
H1309 H 0.56305 0.70726 0.36381 0.0
H1310 H 0.55561 0.68012 0.42042 0.0
H1311 H 0.49636 0.65973 0.42146 0.0
H1312 H 0.485 0.56595 0.5 0.0
H1313 H 0.48901 0.59708 0.45968 0.0
C1314 C 0.82213 0.54521 0.32431 0.0
C1315 C 0.81413 0.52982 0.2959 0.0
C1316 C 0.83775 0.54266 0.35875 0.0
C1317 C 0.87782 0.50972 0.3823 0.0
H1318 H 0.88458 0.53858 0.51497 0.0
C1319 C 0.943 0.49787 0.52031 0.0
C1320 C 0.95193 0.51406 0.54166 0.0
C1321 C 0.92521 0.49913 0.49531 0.0
C1322 C 0.88302 0.53052 0.4778 0.0
H1323 H 0.81594 0.49945 0.28402 0.0
H1324 H 0.84305 0.49501 0.34402 0.0
H1325 H 0.85542 0.54195 0.46258 0.0
H1326 H 0.94828 0.54408 0.55702 0.0
H1327 H 0.91757 0.54638 0.5126 0.0
H1328 H 0.90546 0.49849 0.39688 0.0
C1329 C 0.83748 0.50916 0.33883 0.0
C1330 C 0.86625 0.53245 0.44769 0.0
C1331 C 0.82186 0.5117 0.30442 0.0
C1332 C 0.94209 0.53136 0.53994 0.0
C1333 C 0.9243 0.53265 0.5149 0.0
C1334 C 0.89457 0.50781 0.41232 0.0
C1335 C 0.84586 0.52464 0.36583 0.0
C1336 C 0.86342 0.52213 0.39933 0.0
C1337 C 0.91576 0.51662 0.49116 0.0
C1338 C 0.89749 0.51823 0.46043 0.0
H1339 H 0.81683 0.55942 0.31826 0.0
H1340 H 0.84389 0.55498 0.37823 0.0
H1341 H 0.87639 0.5018 0.34483 0.0
H1342 H 0.94993 0.48424 0.52149 0.0
H1343 H 0.91894 0.48637 0.47876 0.0
loop_
_geom_bond_atom_site_label_1
_geom_bond_atom_site_label_2
_geom_bond_distance
_geom_bond_site_symmetry_2
_ccdc_geom_bond_type
C0 C1 1.384 . S
C0 H13 0.947 . S
C0 C35 1.382 . S
C1 C0 1.384 . S
C1 C2 1.378 . S
C2 C1 1.378 . S
C2 C3 1.378 . S
C2 H14 0.952 . S
C3 C2 1.378 . S
C3 H15 0.950 . S
C3 C34 1.383 . S
H4 C23 0.947 . S
H5 C24 0.946 . S
H6 C26 0.953 . S
H7 C27 0.945 . S
H8 C29 0.952 1_556 S
H9 C30 0.949 . S
H10 C32 0.950 . S
H11 C33 0.948 . S
H12 C35 0.951 . S
H13 C0 0.947 . S
H14 C2 0.952 . S
H15 C3 0.950 . S
N16 C19 1.382 . S
N16 C21 1.363 . S
N17 C19 1.371 . S
N17 C20 1.372 . S
N18 C20 1.361 . S
N18 C21 1.377 . S
C19 N16 1.382 . S
C19 N17 1.371 . S
C19 C22 1.480 . S
C20 N17 1.372 . S
C20 N18 1.361 . S
C20 C28 1.457 . S
C21 N16 1.363 . S
C21 N18 1.377 . S
C21 C34 1.479 . S
C22 C19 1.480 . S
C22 C23 1.383 . S
C22 C27 1.385 . S
C23 H4 0.947 . S
C23 C22 1.383 . S
C23 C24 1.388 . S
C24 H5 0.946 . S
C24 C23 1.388 . S
C24 C25 1.384 . S
C25 C24 1.384 . S
C25 C26 1.377 . S
C26 H6 0.953 . S
C26 C25 1.377 . S
C26 C27 1.369 . S
C27 H7 0.945 . S
C27 C22 1.385 . S
C27 C26 1.369 . S
C28 C20 1.457 . S
C28 C29 1.372 . S
C28 C33 1.364 . S
C29 H8 0.952 1_554 S
C29 C28 1.372 . S
C29 C30 1.389 1_554 S
C30 H9 0.949 . S
C30 C29 1.389 1_556 S
C30 C31 1.387 . S
C31 C30 1.387 . S
C31 C32 1.372 1_556 S
C32 H10 0.950 . S
C32 C31 1.372 1_554 S
C32 C33 1.379 . S
C33 H11 0.948 . S
C33 C28 1.364 . S
C33 C32 1.379 . S
C34 C3 1.383 . S
C34 C21 1.479 . S
C34 C35 1.398 . S
C35 C0 1.382 . S
C35 H12 0.951 . S
C35 C34 1.398 . S
C36 C37 1.384 . S
C36 H49 0.947 . S
C36 C71 1.382 . S
C37 C36 1.384 . S
C37 C38 1.378 . S
C38 C37 1.378 . S
C38 C39 1.378 . S
C38 H50 0.952 . S
C39 C38 1.378 . S
C39 H51 0.950 . S
C39 C70 1.383 . S
H40 C59 0.947 . S
H41 C60 0.946 . S
H42 C62 0.953 . S
H43 C63 0.945 . S
H44 C65 0.952 . S
H45 C66 0.949 . S
H46 C68 0.950 . S
H47 C69 0.948 . S
H48 C71 0.951 . S
H49 C36 0.947 . S
H50 C38 0.952 . S
H51 C39 0.950 . S
N52 C55 1.382 . S
N52 C57 1.363 . S
N53 C55 1.371 . S
N53 C56 1.372 . S
N54 C56 1.361 . S
N54 C57 1.377 . S
C55 N52 1.382 . S
C55 N53 1.371 . S
C55 C58 1.480 . S
C56 N53 1.372 . S
C56 N54 1.361 . S
C56 C64 1.457 . S
C57 N52 1.363 . S
C57 N54 1.377 . S
C57 C70 1.479 . S
C58 C55 1.480 . S
C58 C59 1.383 . S
C58 C63 1.385 . S
C59 H40 0.947 . S
C59 C58 1.383 . S
C59 C60 1.388 . S
C60 H41 0.946 . S
C60 C59 1.388 . S
C60 C61 1.384 . S
C61 C60 1.384 . S
C61 C62 1.377 . S
C62 H42 0.953 . S
C62 C61 1.377 . S
C62 C63 1.369 . S
C63 H43 0.945 . S
C63 C58 1.385 . S
C63 C62 1.369 . S
C64 C56 1.457 . S
C64 C65 1.372 . S
C64 C69 1.364 . S
C65 H44 0.952 . S
C65 C64 1.372 . S
C65 C66 1.389 1_554 S
C66 H45 0.949 . S
C66 C65 1.389 1_556 S
C66 C67 1.387 . S
C67 C66 1.387 . S
C67 C68 1.372 1_556 S
C68 H46 0.950 . S
C68 C67 1.372 1_554 S
C68 C69 1.379 . S
C69 H47 0.948 . S
C69 C64 1.364 . S
C69 C68 1.379 . S
C70 C39 1.383 . S
C70 C57 1.479 . S
C70 C71 1.398 . S
C71 C36 1.382 . S
C71 H48 0.951 . S
C71 C70 1.398 . S
C72 C73 1.384 . S
C72 H85 0.947 . S
C72 C107 1.382 . S
C73 C72 1.384 . S
C73 C74 1.378 . S
C74 C73 1.378 . S
C74 C75 1.378 . S
C74 H86 0.952 . S
C75 C74 1.378 . S
C75 H87 0.950 . S
C75 C106 1.383 . S
H76 C95 0.947 . S
H77 C96 0.946 . S
H78 C98 0.953 . S
H79 C99 0.945 . S
H80 C101 0.952 . S
H81 C102 0.949 . S
H82 C104 0.950 . S
H83 C105 0.948 . S
H84 C107 0.951 . S
H85 C72 0.947 . S
H86 C74 0.952 . S
H87 C75 0.950 . S
N88 C91 1.382 . S
N88 C93 1.363 . S
N89 C91 1.371 . S
N89 C92 1.372 . S
N90 C92 1.361 . S
N90 C93 1.377 . S
C91 N88 1.382 . S
C91 N89 1.371 . S
C91 C94 1.480 . S
C92 N89 1.372 . S
C92 N90 1.361 . S
C92 C100 1.457 . S
C93 N88 1.363 . S
C93 N90 1.377 . S
C93 C106 1.479 . S
C94 C91 1.480 . S
C94 C95 1.383 . S
C94 C99 1.385 . S
C95 H76 0.947 . S
C95 C94 1.383 . S
C95 C96 1.388 . S
C96 H77 0.946 . S
C96 C95 1.388 . S
C96 C97 1.384 . S
C97 C96 1.384 . S
C97 C98 1.377 . S
C98 H78 0.953 . S
C98 C97 1.377 . S
C98 C99 1.369 . S
C99 H79 0.945 . S
C99 C94 1.385 . S
C99 C98 1.369 . S
C100 C92 1.457 . S
C100 C101 1.372 . S
C100 C105 1.364 . S
C101 H80 0.952 . S
C101 C100 1.372 . S
C101 C102 1.389 1_554 S
C102 H81 0.949 . S
C102 C101 1.389 1_556 S
C102 C103 1.387 . S
C103 C102 1.387 . S
C103 C104 1.372 1_556 S
C104 H82 0.950 . S
C104 C103 1.372 1_554 S
C104 C105 1.379 . S
C105 H83 0.948 . S
C105 C100 1.364 . S
C105 C104 1.379 . S
C106 C75 1.383 . S
C106 C93 1.479 . S
C106 C107 1.398 . S
C107 C72 1.382 . S
C107 H84 0.951 . S
C107 C106 1.398 . S
C108 C109 1.384 1_554 S
C108 H121 0.947 . S
C108 C143 1.382 . S
C109 C108 1.384 1_556 S
C109 C110 1.378 . S
C110 C109 1.378 . S
C110 C111 1.378 1_556 S
C110 H122 0.952 . S
C111 C110 1.378 1_554 S
C111 H123 0.950 1_554 S
C111 C142 1.383 . S
H112 C131 0.947 . S
H113 C132 0.946 . S
H114 C134 0.953 . S
H115 C135 0.945 . S
H116 C137 0.952 . S
H117 C138 0.949 . S
H118 C140 0.950 . S
H119 C141 0.948 . S
H120 C143 0.951 . S
H121 C108 0.947 . S
H122 C110 0.952 . S
H123 C111 0.950 1_556 S
N124 C127 1.382 . S
N124 C129 1.363 . S
N125 C127 1.371 . S
N125 C128 1.372 . S
N126 C128 1.361 . S
N126 C129 1.377 . S
C127 N124 1.382 . S
C127 N125 1.371 . S
C127 C130 1.480 . S
C128 N125 1.372 . S
C128 N126 1.361 . S
C128 C136 1.457 . S
C129 N124 1.363 . S
C129 N126 1.377 . S
C129 C142 1.479 . S
C130 C127 1.480 . S
C130 C131 1.383 . S
C130 C135 1.385 . S
C131 H112 0.947 . S
C131 C130 1.383 . S
C131 C132 1.388 . S
C132 H113 0.946 . S
C132 C131 1.388 . S
C132 C133 1.384 . S
C133 C132 1.384 . S
C133 C134 1.377 . S
C134 H114 0.953 . S
C134 C133 1.377 . S
C134 C135 1.369 . S
C135 H115 0.945 . S
C135 C130 1.385 . S
C135 C134 1.369 . S
C136 C128 1.457 . S
C136 C137 1.372 . S
C136 C141 1.364 . S
C137 H116 0.952 . S
C137 C136 1.372 . S
C137 C138 1.389 . S
C138 H117 0.949 . S
C138 C137 1.389 . S
C138 C139 1.387 . S
C139 C138 1.387 . S
C139 C140 1.372 . S
C140 H118 0.950 . S
C140 C139 1.372 . S
C140 C141 1.379 . S
C141 H119 0.948 . S
C141 C136 1.364 . S
C141 C140 1.379 . S
C142 C111 1.383 . S
C142 C129 1.479 . S
C142 C143 1.398 . S
C143 C108 1.382 . S
C143 H120 0.951 . S
C143 C142 1.398 . S
C144 C145 1.384 . S
C144 H157 0.947 . S
C144 C179 1.382 . S
C145 C144 1.384 . S
C145 C146 1.378 . S
C146 C145 1.378 . S
C146 C147 1.378 . S
C146 H158 0.952 . S
C147 C146 1.378 . S
C147 H159 0.950 . S
C147 C178 1.383 . S
H148 C167 0.947 1_556 S
H149 C168 0.946 1_556 S
H150 C170 0.953 . S
H151 C171 0.945 . S
H152 C173 0.952 . S
H153 C174 0.949 . S
H154 C176 0.950 . S
H155 C177 0.948 . S
H156 C179 0.951 . S
H157 C144 0.947 . S
H158 C146 0.952 . S
H159 C147 0.950 . S
N160 C163 1.382 1_556 S
N160 C165 1.363 . S
N161 C163 1.371 . S
N161 C164 1.372 . S
N162 C164 1.361 . S
N162 C165 1.377 1_554 S
C163 N160 1.382 1_554 S
C163 N161 1.371 . S
C163 C166 1.480 . S
C164 N161 1.372 . S
C164 N162 1.361 . S
C164 C172 1.457 . S
C165 N160 1.363 . S
C165 N162 1.377 1_556 S
C165 C178 1.479 . S
C166 C163 1.480 . S
C166 C167 1.383 . S
C166 C171 1.385 . S
C167 H148 0.947 1_554 S
C167 C166 1.383 . S
C167 C168 1.388 . S
C168 H149 0.946 1_554 S
C168 C167 1.388 . S
C168 C169 1.384 . S
C169 C168 1.384 . S
C169 C170 1.377 . S
C170 H150 0.953 . S
C170 C169 1.377 . S
C170 C171 1.369 . S
C171 H151 0.945 . S
C171 C166 1.385 . S
C171 C170 1.369 . S
C172 C164 1.457 . S
C172 C173 1.372 . S
C172 C177 1.364 . S
C173 H152 0.952 . S
C173 C172 1.372 . S
C173 C174 1.389 . S
C174 H153 0.949 . S
C174 C173 1.389 . S
C174 C175 1.387 . S
C175 C174 1.387 . S
C175 C176 1.372 . S
C176 H154 0.950 . S
C176 C175 1.372 . S
C176 C177 1.379 . S
C177 H155 0.948 . S
C177 C172 1.364 . S
C177 C176 1.379 . S
C178 C147 1.383 . S
C178 C165 1.479 . S
C178 C179 1.398 . S
C179 C144 1.382 . S
C179 H156 0.951 . S
C179 C178 1.398 . S
C180 C181 1.384 . S
C180 H193 0.947 . S
C180 C215 1.382 . S
C181 C180 1.384 . S
C181 C182 1.378 . S
C182 C181 1.378 . S
C182 C183 1.378 . S
C182 H194 0.952 . S
C183 C182 1.378 . S
C183 H195 0.950 . S
C183 C214 1.383 . S
H184 C203 0.947 . S
H185 C204 0.946 1_556 S
H186 C206 0.953 . S
H187 C207 0.945 . S
H188 C209 0.952 . S
H189 C210 0.949 . S
H190 C212 0.950 . S
H191 C213 0.948 . S
H192 C215 0.951 . S
H193 C180 0.947 . S
H194 C182 0.952 . S
H195 C183 0.950 . S
N196 C199 1.382 1_556 S
N196 C201 1.363 . S
N197 C199 1.371 . S
N197 C200 1.372 . S
N198 C200 1.369 . S
N198 C201 1.370 1_554 S
C199 N196 1.382 1_554 S
C199 N197 1.371 . S
C199 C202 1.480 . S
C200 N197 1.372 . S
C200 N198 1.369 . S
C200 C208 1.457 . S
C201 N196 1.363 . S
C201 N198 1.370 1_556 S
C201 C214 1.479 . S
C202 C199 1.480 . S
C202 C203 1.383 1_554 S
C202 C207 1.385 . S
C203 H184 0.947 . S
C203 C202 1.383 1_556 S
C203 C204 1.388 1_556 S
C204 H185 0.946 1_554 S
C204 C203 1.388 1_554 S
C204 C205 1.384 . S
C205 C204 1.384 . S
C205 C206 1.377 . S
C206 H186 0.953 . S
C206 C205 1.377 . S
C206 C207 1.369 . S
C207 H187 0.945 . S
C207 C202 1.385 . S
C207 C206 1.369 . S
C208 C200 1.457 . S
C208 C209 1.372 . S
C208 C213 1.364 . S
C209 H188 0.952 . S
C209 C208 1.372 . S
C209 C210 1.389 . S
C210 H189 0.949 . S
C210 C209 1.389 . S
C210 C211 1.387 . S
C211 C210 1.387 . S
C211 C212 1.372 . S
C212 H190 0.950 . S
C212 C211 1.372 . S
C212 C213 1.379 . S
C213 H191 0.948 . S
C213 C208 1.364 . S
C213 C212 1.379 . S
C214 C183 1.383 . S
C214 C201 1.479 . S
C214 C215 1.398 . S
C215 C180 1.382 . S
C215 H192 0.951 . S
C215 C214 1.398 . S
C216 C217 1.384 . S
C216 H229 0.947 . S
C216 C251 1.382 . S
C217 C216 1.384 . S
C217 C218 1.378 . S
C218 C217 1.378 . S
C218 C219 1.378 . S
C218 H230 0.952 . S
C219 C218 1.378 . S
C219 H231 0.950 . S
C219 C250 1.383 . S
H220 C239 0.947 . S
H221 C240 0.946 1_556 S
H222 C242 0.953 . S
H223 C243 0.945 . S
H224 C245 0.952 . S
H225 C246 0.949 . S
H226 C248 0.950 . S
H227 C249 0.948 . S
H228 C251 0.951 . S
H229 C216 0.947 . S
H230 C218 0.952 . S
H231 C219 0.950 . S
N232 C235 1.382 1_556 S
N232 C237 1.363 . S
N233 C235 1.371 . S
N233 C236 1.372 . S
N234 C236 1.350 1_556 S
N234 C237 1.385 . S
C235 N232 1.382 1_554 S
C235 N233 1.371 . S
C235 C238 1.480 . S
C236 N233 1.372 . S
C236 N234 1.350 1_554 S
C236 C244 1.457 . S
C237 N232 1.363 . S
C237 N234 1.385 . S
C237 C250 1.479 . S
C238 C235 1.480 . S
C238 C239 1.383 1_554 S
C238 C243 1.385 . S
C239 H220 0.947 . S
C239 C238 1.383 1_556 S
C239 C240 1.388 1_556 S
C240 H221 0.946 1_554 S
C240 C239 1.388 1_554 S
C240 C241 1.384 . S
C241 C240 1.384 . S
C241 C242 1.377 . S
C242 H222 0.953 . S
C242 C241 1.377 . S
C242 C243 1.369 . S
C243 H223 0.945 . S
C243 C238 1.385 . S
C243 C242 1.369 . S
C244 C236 1.457 . S
C244 C245 1.372 . S
C244 C249 1.364 . S
C245 H224 0.952 . S
C245 C244 1.372 . S
C245 C246 1.389 . S
C246 H225 0.949 . S
C246 C245 1.389 . S
C246 C247 1.387 . S
C247 C246 1.387 . S
C247 C248 1.372 . S
C248 H226 0.950 . S
C248 C247 1.372 . S
C248 C249 1.379 . S
C249 H227 0.948 . S
C249 C244 1.364 . S
C249 C248 1.379 . S
C250 C219 1.383 . S
C250 C237 1.479 . S
C250 C251 1.398 . S
C251 C216 1.382 . S
C251 H228 0.951 . S
C251 C250 1.398 . S
C252 C253 1.384 . S
C252 H265 0.947 . S
C252 C287 1.382 . S
C253 C252 1.384 . S
C253 C254 1.378 . S
C254 C253 1.378 . S
C254 C255 1.378 . S
C254 H266 0.952 . S
C255 C254 1.378 . S
C255 H267 0.950 . S
C255 C286 1.383 . S
H256 C275 0.947 . S
H257 C276 0.946 . S
H258 C278 0.953 1_556 S
H259 C279 0.966 . S
H260 C281 0.952 . S
H261 C282 0.949 . S
H262 C284 0.950 . S
H263 C285 0.948 . S
H264 C287 0.951 . S
H265 C252 0.947 . S
H266 C254 0.952 . S
H267 C255 0.950 . S
N268 C271 1.382 . S
N268 C273 1.363 . S
N269 C271 1.371 1_556 S
N269 C272 1.372 . S
N270 C272 1.359 . S
N270 C273 1.379 1_556 S
C271 N268 1.382 . S
C271 N269 1.371 1_554 S
C271 C274 1.480 . S
C272 N269 1.372 . S
C272 N270 1.359 . S
C272 C280 1.457 . S
C273 N268 1.363 . S
C273 N270 1.379 1_554 S
C273 C286 1.479 . S
C274 C271 1.480 . S
C274 C275 1.383 . S
C274 C279 1.369 1_554 S
C275 H256 0.947 . S
C275 C274 1.383 . S
C275 C276 1.388 . S
C276 H257 0.946 . S
C276 C275 1.388 . S
C276 C277 1.384 . S
C277 C276 1.384 . S
C277 C278 1.377 . S
C278 H258 0.953 1_554 S
C278 C277 1.377 . S
C278 C279 1.364 1_554 S
C279 H259 0.966 . S
C279 C274 1.369 1_556 S
C279 C278 1.364 1_556 S
C280 C272 1.457 . S
C280 C281 1.372 . S
C280 C285 1.364 . S
C281 H260 0.952 . S
C281 C280 1.372 . S
C281 C282 1.389 . S
C282 H261 0.949 . S
C282 C281 1.389 . S
C282 C283 1.387 . S
C283 C282 1.387 . S
C283 C284 1.372 . S
C284 H262 0.950 . S
C284 C283 1.372 . S
C284 C285 1.379 . S
C285 H263 0.948 . S
C285 C280 1.364 . S
C285 C284 1.379 . S
C286 C255 1.383 . S
C286 C273 1.479 . S
C286 C287 1.398 . S
C287 C252 1.382 . S
C287 H264 0.951 . S
C287 C286 1.398 . S
Tb288 N319 2.660 1_565 S
Tb288 N326 2.600 . S
Tb288 O332 2.546 . S
Tb288 O333 2.610 1_455 S
Tb288 O335 2.320 1_455 S
Tb288 O336 2.552 . S
Tb288 O337 2.413 . S
Tb288 O339 2.362 1_565 S
Tb288 O340 2.421 . S
Tb288 C352 2.833 . S
C289 C292 1.416 1_545 S
C289 C293 1.414 . S
C289 N296 1.359 . S
C290 C292 1.440 . S
C290 C294 1.432 . S
C290 C302 1.410 . S
C291 C293 1.444 1_565 S
C291 C294 1.317 . S
C291 H314 0.929 . S
C292 C289 1.416 1_565 S
C292 C290 1.440 . S
C292 N300 1.354 1_565 S
C293 C289 1.414 . S
C293 C291 1.444 1_545 S
C293 C298 1.385 . S
C294 C290 1.432 . S
C294 C291 1.317 . S
C294 H306 0.930 . S
C295 C297 1.392 . S
C295 C298 1.370 . S
C295 H307 0.931 . S
N296 C289 1.359 . S
N296 C297 1.327 . S
N296 Tb299 2.600 . S
C297 C295 1.392 . S
C297 N296 1.327 . S
C297 H304 0.930 . S
C298 C293 1.385 . S
C298 C295 1.370 . S
C298 H317 0.930 . S
Tb299 N296 2.600 . S
Tb299 N300 2.660 . S
Tb299 O333 2.362 1_545 S
Tb299 O334 2.421 . S
Tb299 O338 2.546 . S
Tb299 O339 2.610 1_655 S
Tb299 O341 2.320 1_655 S
Tb299 O342 2.552 1_655 S
Tb299 O343 2.413 . S
Tb299 C363 2.833 . S
N300 C292 1.354 1_545 S
N300 Tb299 2.660 . S
N300 C301 1.305 1_645 S
C301 N300 1.305 1_465 S
C301 C303 1.407 . S
C301 H308 0.930 . S
C302 C290 1.410 . S
C302 C303 1.345 1_655 S
C302 H310 0.930 . S
C303 C301 1.407 . S
C303 C302 1.345 1_455 S
C303 H305 0.930 . S
H304 C297 0.930 . S
H305 C303 0.930 . S
H306 C294 0.930 . S
H307 C295 0.931 . S
H308 C301 0.930 . S
H309 C323 0.930 1_655 S
H310 C302 0.930 . S
H311 C329 0.930 . S
H312 C320 0.930 1_655 S
H313 C327 0.931 . S
H314 C291 0.929 . S
H315 C321 0.930 . S
H316 C354 0.930 . S
H317 C298 0.930 . S
H318 C353 0.929 . S
N319 Tb288 2.660 1_545 S
N319 C320 1.305 . S
N319 C324 1.360 . S
C320 H312 0.930 1_455 S
C320 N319 1.305 . S
C320 C323 1.407 . S
C321 H315 0.930 . S
C321 C322 1.410 . S
C321 C323 1.345 . S
C322 C321 1.410 . S
C322 C324 1.417 . S
C322 C354 1.432 . S
C323 H309 0.930 1_455 S
C323 C320 1.407 . S
C323 C321 1.345 . S
C324 N319 1.360 . S
C324 C322 1.417 . S
C324 C328 1.432 . S
H325 C330 0.930 . S
N326 Tb288 2.600 . S
N326 C328 1.359 1_565 S
N326 C329 1.327 . S
C327 H313 0.931 . S
C327 C329 1.392 . S
C327 C330 1.370 . S
C328 C324 1.432 . S
C328 N326 1.359 1_545 S
C328 C331 1.414 . S
C329 H311 0.930 . S
C329 N326 1.327 . S
C329 C327 1.392 . S
C330 H325 0.930 . S
C330 C327 1.370 . S
C330 C331 1.385 1_565 S
C331 C328 1.414 . S
C331 C330 1.385 1_545 S
C331 C353 1.444 . S
O332 Tb288 2.546 . S
O332 C352 1.251 . S
O333 Tb288 2.610 1_655 S
O333 Tb299 2.362 1_565 S
O333 C344 1.283 . S
O334 Tb299 2.421 . S
O334 C351 1.262 . S
O335 Tb288 2.320 1_655 S
O335 C351 1.260 1_565 S
O336 Tb288 2.552 . S
O336 C344 1.243 1_455 S
O337 Tb288 2.413 . S
O337 C352 1.256 . S
O338 Tb299 2.546 . S
O338 C363 1.251 . S
O339 Tb288 2.362 1_545 S
O339 Tb299 2.610 1_455 S
O339 C355 1.283 . S
O340 Tb288 2.421 . S
O340 C362 1.262 1_565 S
O341 Tb299 2.320 1_455 S
O341 C362 1.260 . S
O342 Tb299 2.552 1_455 S
O342 C355 1.243 . S
O343 Tb299 2.413 . S
O343 C363 1.256 . S
C344 O333 1.283 . S
C344 O336 1.243 1_655 S
C345 C347 1.382 . S
C345 C349 1.393 . S
C345 C352 1.500 . S
C346 C347 1.400 . S
C346 C348 1.384 . S
C347 C345 1.382 . S
C347 C346 1.400 . S
C347 H364 0.930 1_455 S
C348 C346 1.384 . S
C348 C350 1.392 . S
C348 H365 0.931 . S
C349 C345 1.393 . S
C349 C350 1.401 . S
C349 H366 0.930 . S
C350 C348 1.392 . S
C350 C349 1.401 . S
C350 H367 0.930 . S
C351 O334 1.262 . S
C351 O335 1.260 1_545 S
C352 Tb288 2.833 . S
C352 O332 1.251 . S
C352 O337 1.256 . S
C352 C345 1.500 . S
C353 H318 0.929 . S
C353 C331 1.444 . S
C353 C354 1.317 . S
C354 H316 0.930 . S
C354 C322 1.432 . S
C354 C353 1.317 . S
C355 O339 1.283 . S
C355 O342 1.243 . S
C356 C357 1.382 . S
C356 C360 1.393 . S
C356 C363 1.500 . S
C357 C356 1.382 . S
C357 C358 1.400 . S
C357 H368 0.930 1_655 S
C358 C357 1.400 . S
C358 C359 1.384 . S
C359 C358 1.384 . S
C359 C361 1.392 . S
C359 H369 0.931 . S
C360 C356 1.393 . S
C360 C361 1.401 . S
C360 H370 0.930 . S
C361 C359 1.392 . S
C361 C360 1.401 . S
C361 H371 0.930 . S
C362 O340 1.262 1_545 S
C362 O341 1.260 . S
C363 Tb299 2.833 . S
C363 O338 1.251 . S
C363 O343 1.256 . S
C363 C356 1.500 . S
H364 C347 0.930 1_655 S
H365 C348 0.931 . S
H366 C349 0.930 . S
H367 C350 0.930 . S
H368 C357 0.930 1_455 S
H369 C359 0.931 . S
H370 C360 0.930 . S
H371 C361 0.930 . S
Tb372 N403 2.660 . S
Tb372 N410 2.600 . S
Tb372 O416 2.546 . S
Tb372 O417 2.610 1_545 S
Tb372 O419 2.320 1_545 S
Tb372 O420 2.552 . S
Tb372 O421 2.413 . S
Tb372 O423 2.362 . S
Tb372 O424 2.421 . S
Tb372 C436 2.833 . S
C373 C376 1.432 . S
C373 C377 1.414 . S
C373 N380 1.359 . S
C374 C376 1.417 . S
C374 C378 1.432 . S
C374 C386 1.410 . S
C375 C377 1.444 . S
C375 C378 1.317 . S
C375 H398 0.929 . S
C376 C373 1.432 . S
C376 C374 1.417 . S
C376 N384 1.360 . S
C377 C373 1.414 . S
C377 C375 1.444 . S
C377 C382 1.385 . S
C378 C374 1.432 . S
C378 C375 1.317 . S
C378 H390 0.930 . S
C379 C381 1.392 . S
C379 C382 1.370 . S
C379 H391 0.931 . S
N380 C373 1.359 . S
N380 C381 1.327 . S
N380 Tb383 2.600 . S
C381 C379 1.392 . S
C381 N380 1.327 . S
C381 H388 0.930 . S
C382 C377 1.385 . S
C382 C379 1.370 . S
C382 H401 0.930 . S
Tb383 N380 2.600 . S
Tb383 N384 2.660 . S
Tb383 O417 2.362 . S
Tb383 O418 2.421 . S
Tb383 O422 2.546 . S
Tb383 O423 2.610 1_565 S
Tb383 O425 2.320 1_565 S
Tb383 O426 2.552 1_565 S
Tb383 O427 2.413 . S
Tb383 C447 2.833 . S
N384 C376 1.360 . S
N384 Tb383 2.660 . S
N384 C385 1.305 1_565 S
C385 N384 1.305 1_545 S
C385 C387 1.407 . S
C385 H392 0.930 . S
C386 C374 1.410 . S
C386 C387 1.345 1_565 S
C386 H394 0.930 . S
C387 C385 1.407 . S
C387 C386 1.345 1_545 S
C387 H389 0.930 . S
H388 C381 0.930 . S
H389 C387 0.930 . S
H390 C378 0.930 . S
H391 C379 0.931 . S
H392 C385 0.930 . S
H393 C407 0.930 1_565 S
H394 C386 0.930 . S
H395 C413 0.930 . S
H396 C404 0.930 1_565 S
H397 C411 0.931 . S
H398 C375 0.929 . S
H399 C405 0.930 . S
H400 C438 0.930 . S
H401 C382 0.930 . S
H402 C437 0.929 . S
N403 Tb372 2.660 . S
N403 C404 1.305 . S
N403 C408 1.360 . S
C404 H396 0.930 1_545 S
C404 N403 1.305 . S
C404 C407 1.407 . S
C405 H399 0.930 . S
C405 C406 1.410 . S
C405 C407 1.345 . S
C406 C405 1.410 . S
C406 C408 1.417 . S
C406 C438 1.432 . S
C407 H393 0.930 1_545 S
C407 C404 1.407 . S
C407 C405 1.345 . S
C408 N403 1.360 . S
C408 C406 1.417 . S
C408 C412 1.432 . S
H409 C414 0.930 . S
N410 Tb372 2.600 . S
N410 C412 1.359 . S
N410 C413 1.327 . S
C411 H397 0.931 . S
C411 C413 1.392 . S
C411 C414 1.370 . S
C412 C408 1.432 . S
C412 N410 1.359 . S
C412 C415 1.414 . S
C413 H395 0.930 . S
C413 N410 1.327 . S
C413 C411 1.392 . S
C414 H409 0.930 . S
C414 C411 1.370 . S
C414 C415 1.385 . S
C415 C412 1.414 . S
C415 C414 1.385 . S
C415 C437 1.444 . S
O416 Tb372 2.546 . S
O416 C436 1.251 . S
O417 Tb372 2.610 1_565 S
O417 Tb383 2.362 . S
O417 C428 1.283 . S
O418 Tb383 2.421 . S
O418 C435 1.262 . S
O419 Tb372 2.320 1_565 S
O419 C435 1.260 . S
O420 Tb372 2.552 . S
O420 C428 1.243 1_545 S
O421 Tb372 2.413 . S
O421 C436 1.256 . S
O422 Tb383 2.546 . S
O422 C447 1.251 . S
O423 Tb372 2.362 . S
O423 Tb383 2.610 1_545 S
O423 C439 1.283 . S
O424 Tb372 2.421 . S
O424 C446 1.262 . S
O425 Tb383 2.320 1_545 S
O425 C446 1.260 . S
O426 Tb383 2.552 1_545 S
O426 C439 1.243 . S
O427 Tb383 2.413 . S
O427 C447 1.256 . S
C428 O417 1.283 . S
C428 O420 1.243 1_565 S
C429 C431 1.382 . S
C429 C433 1.393 . S
C429 C436 1.500 . S
C430 C431 1.400 . S
C430 C432 1.384 . S
C431 C429 1.382 . S
C431 C430 1.400 . S
C431 H448 0.932 . S
C432 C430 1.384 . S
C432 C434 1.392 . S
C432 H449 0.931 . S
C433 C429 1.393 . S
C433 C434 1.401 . S
C433 H450 0.930 . S
C434 C432 1.392 . S
C434 C433 1.401 . S
C434 H451 0.930 . S
C435 O418 1.262 . S
C435 O419 1.260 . S
C436 Tb372 2.833 . S
C436 O416 1.251 . S
C436 O421 1.256 . S
C436 C429 1.500 . S
C437 H402 0.929 . S
C437 C415 1.444 . S
C437 C438 1.317 . S
C438 H400 0.930 . S
C438 C406 1.432 . S
C438 C437 1.317 . S
C439 O423 1.283 . S
C439 O426 1.243 . S
C440 C441 1.382 . S
C440 C444 1.393 . S
C440 C447 1.500 . S
C441 C440 1.382 . S
C441 C442 1.400 . S
C441 H452 0.930 1_565 S
C442 C441 1.400 . S
C442 C443 1.384 . S
C443 C442 1.384 . S
C443 C445 1.392 . S
C443 H453 0.931 . S
C444 C440 1.393 . S
C444 C445 1.401 . S
C444 H454 0.930 . S
C445 C443 1.392 . S
C445 C444 1.401 . S
C445 H455 0.930 . S
C446 O424 1.262 . S
C446 O425 1.260 . S
C447 Tb383 2.833 . S
C447 O422 1.251 . S
C447 O427 1.256 . S
C447 C440 1.500 . S
H448 C431 0.932 . S
H449 C432 0.931 . S
H450 C433 0.930 . S
H451 C434 0.930 . S
H452 C441 0.930 1_545 S
H453 C443 0.931 . S
H454 C444 0.930 . S
H455 C445 0.930 . S
Tb456 N487 2.660 . S
Tb456 N494 2.600 . S
Tb456 O500 2.546 . S
Tb456 O501 2.610 . S
Tb456 O503 2.320 . S
Tb456 O504 2.552 . S
Tb456 O505 2.413 . S
Tb456 O507 2.362 . S
Tb456 O508 2.421 . S
Tb456 C520 2.833 . S
C457 C460 1.432 . S
C457 C461 1.414 . S
C457 N464 1.359 . S
C458 C460 1.417 . S
C458 C462 1.432 . S
C458 C470 1.410 . S
C459 C461 1.444 . S
C459 C462 1.317 . S
C459 H482 0.929 . S
C460 C457 1.432 . S
C460 C458 1.417 . S
C460 N468 1.360 . S
C461 C457 1.414 . S
C461 C459 1.444 . S
C461 C466 1.385 . S
C462 C458 1.432 . S
C462 C459 1.317 . S
C462 H474 0.930 . S
C463 C465 1.392 . S
C463 C466 1.370 . S
C463 H475 0.931 . S
N464 C457 1.359 . S
N464 C465 1.327 . S
N464 Tb467 2.600 . S
C465 C463 1.392 . S
C465 N464 1.327 . S
C465 H472 0.930 . S
C466 C461 1.385 . S
C466 C463 1.370 . S
C466 H485 0.930 . S
Tb467 N464 2.600 . S
Tb467 N468 2.660 . S
Tb467 O501 2.362 . S
Tb467 O502 2.421 . S
Tb467 O506 2.546 . S
Tb467 O507 2.610 . S
Tb467 O509 2.320 . S
Tb467 O510 2.552 . S
Tb467 O511 2.413 . S
Tb467 C531 2.833 . S
N468 C460 1.360 . S
N468 Tb467 2.660 . S
N468 C469 1.305 . S
C469 N468 1.305 . S
C469 C471 1.407 . S
C469 H476 0.930 . S
C470 C458 1.410 . S
C470 C471 1.345 . S
C470 H478 0.930 . S
C471 C469 1.407 . S
C471 C470 1.345 . S
C471 H473 0.930 . S
H472 C465 0.930 . S
H473 C471 0.930 . S
H474 C462 0.930 . S
H475 C463 0.931 . S
H476 C469 0.930 . S
H477 C491 0.930 . S
H478 C470 0.930 . S
H479 C497 0.930 . S
H480 C488 0.930 . S
H481 C495 0.931 . S
H482 C459 0.929 . S
H483 C489 0.930 . S
H484 C522 0.930 . S
H485 C466 0.930 . S
H486 C521 0.929 . S
N487 Tb456 2.660 . S
N487 C488 1.305 . S
N487 C492 1.360 . S
C488 H480 0.930 . S
C488 N487 1.305 . S
C488 C491 1.407 . S
C489 H483 0.930 . S
C489 C490 1.410 . S
C489 C491 1.345 . S
C490 C489 1.410 . S
C490 C492 1.417 . S
C490 C522 1.432 . S
C491 H477 0.930 . S
C491 C488 1.407 . S
C491 C489 1.345 . S
C492 N487 1.360 . S
C492 C490 1.417 . S
C492 C496 1.432 . S
H493 C498 0.930 . S
N494 Tb456 2.600 . S
N494 C496 1.359 . S
N494 C497 1.327 . S
C495 H481 0.931 . S
C495 C497 1.392 . S
C495 C498 1.370 . S
C496 C492 1.432 . S
C496 N494 1.359 . S
C496 C499 1.414 . S
C497 H479 0.930 . S
C497 N494 1.327 . S
C497 C495 1.392 . S
C498 H493 0.930 . S
C498 C495 1.370 . S
C498 C499 1.385 . S
C499 C496 1.414 . S
C499 C498 1.385 . S
C499 C521 1.444 . S
O500 Tb456 2.546 . S
O500 C520 1.251 . S
O501 Tb456 2.610 . S
O501 Tb467 2.362 . S
O501 C512 1.283 . S
O502 Tb467 2.421 . S
O502 C519 1.262 . S
O503 Tb456 2.320 . S
O503 C519 1.260 . S
O504 Tb456 2.552 . S
O504 C512 1.243 . S
O505 Tb456 2.413 . S
O505 C520 1.256 . S
O506 Tb467 2.546 . S
O506 C531 1.251 . S
O507 Tb456 2.362 . S
O507 Tb467 2.610 . S
O507 C523 1.283 . S
O508 Tb456 2.421 . S
O508 C530 1.262 . S
O509 Tb467 2.320 . S
O509 C530 1.260 . S
O510 Tb467 2.552 . S
O510 C523 1.243 . S
O511 Tb467 2.413 . S
O511 C531 1.256 . S
C512 O501 1.283 . S
C512 O504 1.243 . S
C513 C515 1.382 . S
C513 C517 1.393 . S
C513 C520 1.500 . S
C514 C515 1.400 . S
C514 C516 1.384 . S
C515 C513 1.382 . S
C515 C514 1.400 . S
C515 H532 0.930 . S
C516 C514 1.384 . S
C516 C518 1.392 . S
C516 H533 0.931 . S
C517 C513 1.393 . S
C517 C518 1.401 . S
C517 H534 0.930 . S
C518 C516 1.392 . S
C518 C517 1.401 . S
C518 H535 0.930 . S
C519 O502 1.262 . S
C519 O503 1.260 . S
C520 Tb456 2.833 . S
C520 O500 1.251 . S
C520 O505 1.256 . S
C520 C513 1.500 . S
C521 H486 0.929 . S
C521 C499 1.444 . S
C521 C522 1.317 . S
C522 H484 0.930 . S
C522 C490 1.432 . S
C522 C521 1.317 . S
C523 O507 1.283 . S
C523 O510 1.243 . S
C524 C525 1.382 . S
C524 C528 1.393 . S
C524 C531 1.500 . S
C525 C524 1.382 . S
C525 C526 1.400 . S
C525 H536 0.930 . S
C526 C525 1.400 . S
C526 C527 1.384 . S
C527 C526 1.384 . S
C527 C529 1.392 . S
C527 H537 0.931 . S
C528 C524 1.393 . S
C528 C529 1.401 . S
C528 H538 0.930 . S
C529 C527 1.392 . S
C529 C528 1.401 . S
C529 H539 0.930 . S
C530 O508 1.262 . S
C530 O509 1.260 . S
C531 Tb467 2.833 . S
C531 O506 1.251 . S
C531 O511 1.256 . S
C531 C524 1.500 . S
H532 C515 0.930 . S
H533 C516 0.931 . S
H534 C517 0.930 . S
H535 C518 0.930 . S
H536 C525 0.930 . S
H537 C527 0.931 . S
H538 C528 0.930 . S
H539 C529 0.930 . S
Tb540 N571 2.660 . S
Tb540 N578 2.600 . S
Tb540 O584 2.546 . S
Tb540 O585 2.610 . S
Tb540 O587 2.320 . S
Tb540 O588 2.552 . S
Tb540 O589 2.413 . S
Tb540 O591 2.394 . S
Tb540 O592 2.421 1_455 S
Tb540 C604 2.833 . S
C541 C544 1.432 . S
C541 C545 1.414 . S
C541 N548 1.359 . S
C542 C544 1.417 . S
C542 C546 1.432 . S
C542 C554 1.410 . S
C543 C545 1.444 . S
C543 C546 1.317 . S
C543 H566 0.929 . S
C544 C541 1.432 . S
C544 C542 1.417 . S
C544 N552 1.360 . S
C545 C541 1.414 . S
C545 C543 1.444 . S
C545 C550 1.385 . S
C546 C542 1.432 . S
C546 C543 1.317 . S
C546 H558 0.930 . S
C547 C549 1.392 . S
C547 C550 1.370 1_455 S
C547 H559 0.931 . S
N548 C541 1.359 . S
N548 C549 1.327 1_655 S
N548 Tb551 2.600 . S
C549 C547 1.392 . S
C549 N548 1.327 1_455 S
C549 H556 0.930 . S
C550 C545 1.385 . S
C550 C547 1.370 1_655 S
C550 H569 0.930 . S
Tb551 N548 2.600 . S
Tb551 N552 2.660 . S
Tb551 O585 2.362 1_655 S
Tb551 O586 2.421 1_655 S
Tb551 O590 2.546 . S
Tb551 O591 2.590 1_655 S
Tb551 O593 2.320 . S
Tb551 O594 2.552 . S
Tb551 O595 2.413 . S
Tb551 C615 2.833 . S
N552 C544 1.360 . S
N552 Tb551 2.660 . S
N552 C553 1.305 . S
C553 N552 1.305 . S
C553 C555 1.407 . S
C553 H560 0.930 . S
C554 C542 1.410 . S
C554 C555 1.345 . S
C554 H562 0.930 . S
C555 C553 1.407 . S
C555 C554 1.345 . S
C555 H557 0.930 . S
H556 C549 0.930 . S
H557 C555 0.930 . S
H558 C546 0.930 . S
H559 C547 0.931 . S
H560 C553 0.930 . S
H561 C575 0.930 . S
H562 C554 0.930 . S
H563 C581 0.930 1_655 S
H564 C572 0.930 . S
H565 C579 0.931 1_655 S
H566 C543 0.929 . S
H567 C573 0.930 . S
H568 C606 0.930 . S
H569 C550 0.930 . S
H570 C605 0.929 . S
N571 Tb540 2.660 . S
N571 C572 1.305 . S
N571 C576 1.360 . S
C572 H564 0.930 . S
C572 N571 1.305 . S
C572 C575 1.407 . S
C573 H567 0.930 . S
C573 C574 1.410 . S
C573 C575 1.345 . S
C574 C573 1.410 . S
C574 C576 1.417 . S
C574 C606 1.432 . S
C575 H561 0.930 . S
C575 C572 1.407 . S
C575 C573 1.345 . S
C576 N571 1.360 . S
C576 C574 1.417 . S
C576 C580 1.432 . S
H577 C582 0.930 . S
N578 Tb540 2.600 . S
N578 C580 1.359 . S
N578 C581 1.327 . S
C579 H565 0.931 1_455 S
C579 C581 1.392 . S
C579 C582 1.370 . S
C580 C576 1.432 . S
C580 N578 1.359 . S
C580 C583 1.414 . S
C581 H563 0.930 1_455 S
C581 N578 1.327 . S
C581 C579 1.392 . S
C582 H577 0.930 . S
C582 C579 1.370 . S
C582 C583 1.385 . S
C583 C580 1.414 . S
C583 C582 1.385 . S
C583 C605 1.444 . S
O584 Tb540 2.546 . S
O584 C604 1.251 . S
O585 Tb540 2.610 . S
O585 Tb551 2.362 1_455 S
O585 C596 1.283 . S
O586 Tb551 2.421 1_455 S
O586 C603 1.262 . S
O587 Tb540 2.320 . S
O587 C603 1.260 . S
O588 Tb540 2.552 . S
O588 C596 1.243 . S
O589 Tb540 2.413 . S
O589 C604 1.256 . S
O590 Tb551 2.546 . S
O590 C615 1.251 . S
O591 Tb540 2.394 . S
O591 Tb551 2.590 1_455 S
O591 C607 1.261 1_455 S
O592 Tb540 2.421 1_655 S
O592 C614 1.262 . S
O593 Tb551 2.320 . S
O593 C614 1.260 . S
O594 Tb551 2.552 . S
O594 C607 1.243 . S
O595 Tb551 2.413 . S
O595 C615 1.256 . S
C596 O585 1.283 . S
C596 O588 1.243 . S
C597 C599 1.382 . S
C597 C601 1.393 . S
C597 C604 1.500 . S
C598 C599 1.400 . S
C598 C600 1.384 . S
C599 C597 1.382 . S
C599 C598 1.400 . S
C599 H616 0.930 . S
C600 C598 1.384 . S
C600 C602 1.392 . S
C600 H617 0.931 . S
C601 C597 1.393 . S
C601 C602 1.401 . S
C601 H618 0.930 . S
C602 C600 1.392 . S
C602 C601 1.401 . S
C602 H619 0.930 . S
C603 O586 1.262 . S
C603 O587 1.260 . S
C604 Tb540 2.833 . S
C604 O584 1.251 . S
C604 O589 1.256 . S
C604 C597 1.500 . S
C605 H570 0.929 . S
C605 C583 1.444 . S
C605 C606 1.317 . S
C606 H568 0.930 . S
C606 C574 1.432 . S
C606 C605 1.317 . S
C607 O591 1.261 1_655 S
C607 O594 1.243 . S
C608 C609 1.382 . S
C608 C612 1.393 . S
C608 C615 1.500 . S
C609 C608 1.382 . S
C609 C610 1.400 . S
C609 H620 0.930 . S
C610 C609 1.400 . S
C610 C611 1.384 . S
C611 C610 1.384 . S
C611 C613 1.392 . S
C611 H621 0.931 . S
C612 C608 1.393 . S
C612 C613 1.401 . S
C612 H622 0.930 . S
C613 C611 1.392 . S
C613 C612 1.401 . S
C613 H623 0.930 . S
C614 O592 1.262 . S
C614 O593 1.260 . S
C615 Tb551 2.833 . S
C615 O590 1.251 . S
C615 O595 1.256 . S
C615 C608 1.500 . S
H616 C599 0.930 . S
H617 C600 0.931 . S
H618 C601 0.930 . S
H619 C602 0.930 . S
H620 C609 0.930 . S
H621 C611 0.931 . S
H622 C612 0.930 . S
H623 C613 0.930 . S
C624 C625 1.349 . S
C624 C626 1.327 . S
C624 H649 0.950 . S
C625 C624 1.349 . S
C625 C641 1.349 . S
C626 C624 1.327 . S
C626 C645 1.429 . S
C626 H650 0.950 . S
C627 C644 1.574 . S
C627 C646 1.368 . S
C627 H651 0.949 . S
H628 C632 0.949 . S
C629 C630 1.349 . S
C629 C631 1.327 . S
C629 H652 0.950 . S
C630 C629 1.349 . S
C630 C642 1.349 . S
C631 C629 1.327 . S
C631 C647 1.429 . S
C631 H653 0.950 . S
C632 H628 0.949 . S
C632 C640 1.574 . S
C632 C648 1.368 . S
H633 C641 0.950 . S
H634 C639 0.950 . S
H635 C640 0.949 . S
H636 C642 0.950 1_565 S
H637 C643 0.950 . S
H638 C644 0.949 . S
C639 H634 0.950 . S
C639 C641 1.327 . S
C639 C645 1.429 . S
C640 C632 1.574 . S
C640 H635 0.949 . S
C640 C646 1.368 . S
C641 C625 1.349 . S
C641 H633 0.950 . S
C641 C639 1.327 . S
C642 C630 1.349 . S
C642 H636 0.950 1_545 S
C642 C643 1.327 . S
C643 H637 0.950 . S
C643 C642 1.327 . S
C643 C647 1.429 . S
C644 C627 1.574 . S
C644 H638 0.949 . S
C644 C648 1.368 . S
C645 C626 1.429 . S
C645 C639 1.429 . S
C645 C646 1.523 . S
C646 C627 1.368 . S
C646 C640 1.368 . S
C646 C645 1.523 . S
C647 C631 1.429 . S
C647 C643 1.429 . S
C647 C648 1.523 . S
C648 C632 1.368 . S
C648 C644 1.368 . S
C648 C647 1.523 . S
H649 C624 0.950 . S
H650 C626 0.950 . S
H651 C627 0.949 . S
H652 C629 0.950 . S
H653 C631 0.950 . S
C654 C655 1.349 . S
C654 C656 1.327 . S
C654 H679 0.950 . S
C655 C654 1.349 . S
C655 C671 1.349 . S
C656 C654 1.327 . S
C656 C675 1.429 . S
C656 H680 0.950 . S
C657 C674 1.574 . S
C657 C676 1.368 . S
C657 H681 0.949 . S
H658 C662 0.949 . S
C659 C660 1.349 . S
C659 C661 1.327 . S
C659 H682 0.950 . S
C660 C659 1.349 . S
C660 C672 1.349 . S
C661 C659 1.327 . S
C661 C677 1.429 . S
C661 H683 0.950 . S
C662 H658 0.949 . S
C662 C670 1.574 . S
C662 C678 1.368 . S
H663 C671 0.950 . S
H664 C669 0.950 . S
H665 C670 0.949 . S
H666 C672 0.950 . S
H667 C673 0.950 . S
H668 C674 0.949 . S
C669 H664 0.950 . S
C669 C671 1.327 . S
C669 C675 1.429 . S
C670 C662 1.574 . S
C670 H665 0.949 . S
C670 C676 1.368 . S
C671 C655 1.349 . S
C671 H663 0.950 . S
C671 C669 1.327 . S
C672 C660 1.349 . S
C672 H666 0.950 . S
C672 C673 1.327 . S
C673 H667 0.950 . S
C673 C672 1.327 . S
C673 C677 1.429 . S
C674 C657 1.574 . S
C674 H668 0.949 . S
C674 C678 1.368 . S
C675 C656 1.429 . S
C675 C669 1.429 . S
C675 C676 1.523 . S
C676 C657 1.368 . S
C676 C670 1.368 . S
C676 C675 1.523 . S
C677 C661 1.429 . S
C677 C673 1.429 . S
C677 C678 1.523 . S
C678 C662 1.368 . S
C678 C674 1.368 . S
C678 C677 1.523 . S
H679 C654 0.950 . S
H680 C656 0.950 . S
H681 C657 0.949 . S
H682 C659 0.950 . S
H683 C661 0.950 . S
C684 C685 1.349 . S
C684 C686 1.327 . S
C684 H709 0.950 . S
C685 C684 1.349 . S
C685 C701 1.349 . S
C686 C684 1.327 . S
C686 C705 1.429 . S
C686 H710 0.950 . S
C687 C704 1.574 . S
C687 C706 1.368 . S
C687 H711 0.949 . S
H688 C692 0.949 . S
C689 C690 1.349 . S
C689 C691 1.327 . S
C689 H712 0.950 . S
C690 C689 1.349 . S
C690 C702 1.349 . S
C691 C689 1.327 . S
C691 C707 1.429 . S
C691 H713 0.950 . S
C692 H688 0.949 . S
C692 C700 1.574 . S
C692 C708 1.368 . S
H693 C701 0.950 . S
H694 C699 0.950 . S
H695 C700 0.949 . S
H696 C702 0.950 . S
H697 C703 0.950 . S
H698 C704 0.949 . S
C699 H694 0.950 . S
C699 C701 1.327 . S
C699 C705 1.429 . S
C700 C692 1.574 . S
C700 H695 0.949 . S
C700 C706 1.368 . S
C701 C685 1.349 . S
C701 H693 0.950 . S
C701 C699 1.327 . S
C702 C690 1.349 . S
C702 H696 0.950 . S
C702 C703 1.327 . S
C703 H697 0.950 . S
C703 C702 1.327 . S
C703 C707 1.429 . S
C704 C687 1.574 . S
C704 H698 0.949 . S
C704 C708 1.368 . S
C705 C686 1.429 . S
C705 C699 1.429 . S
C705 C706 1.523 . S
C706 C687 1.368 . S
C706 C700 1.368 . S
C706 C705 1.523 . S
C707 C691 1.429 . S
C707 C703 1.429 . S
C707 C708 1.523 . S
C708 C692 1.368 . S
C708 C704 1.368 . S
C708 C707 1.523 . S
H709 C684 0.950 . S
H710 C686 0.950 . S
H711 C687 0.949 . S
H712 C689 0.950 . S
H713 C691 0.950 . S
C714 C715 1.349 . S
C714 C716 1.327 . S
C714 H739 0.950 . S
C715 C714 1.349 . S
C715 C731 1.349 . S
C716 C714 1.327 . S
C716 C735 1.429 . S
C716 H740 0.950 . S
C717 C734 1.574 . S
C717 C736 1.368 . S
C717 H741 0.949 . S
H718 C722 0.949 . S
C719 C720 1.349 . S
C719 C721 1.327 . S
C719 H742 0.950 . S
C720 C719 1.349 . S
C720 C732 1.349 . S
C721 C719 1.327 . S
C721 C737 1.429 . S
C721 H743 0.950 . S
C722 H718 0.949 . S
C722 C730 1.574 . S
C722 C738 1.368 . S
H723 C731 0.950 . S
H724 C729 0.950 . S
H725 C730 0.949 . S
H726 C732 0.950 . S
H727 C733 0.950 . S
H728 C734 0.949 . S
C729 H724 0.950 . S
C729 C731 1.327 . S
C729 C735 1.429 . S
C730 C722 1.574 . S
C730 H725 0.949 . S
C730 C736 1.368 . S
C731 C715 1.349 . S
C731 H723 0.950 . S
C731 C729 1.327 . S
C732 C720 1.349 . S
C732 H726 0.950 . S
C732 C733 1.327 . S
C733 H727 0.950 . S
C733 C732 1.327 . S
C733 C737 1.429 . S
C734 C717 1.574 . S
C734 H728 0.949 . S
C734 C738 1.368 . S
C735 C716 1.429 . S
C735 C729 1.429 . S
C735 C736 1.523 . S
C736 C717 1.368 . S
C736 C730 1.368 . S
C736 C735 1.523 . S
C737 C721 1.429 . S
C737 C733 1.429 . S
C737 C738 1.523 . S
C738 C722 1.368 . S
C738 C734 1.368 . S
C738 C737 1.523 . S
H739 C714 0.950 . S
H740 C716 0.950 . S
H741 C717 0.949 . S
H742 C719 0.950 . S
H743 C721 0.950 . S
C744 C745 1.349 . S
C744 C746 1.327 . S
C744 H769 0.950 . S
C745 C744 1.349 . S
C745 C761 1.349 1_554 S
C746 C744 1.327 . S
C746 C765 1.429 1_554 S
C746 H770 0.950 . S
C747 C764 1.574 . S
C747 C766 1.368 . S
C747 H771 0.949 . S
H748 C752 0.949 . S
C749 C750 1.349 . S
C749 C751 1.327 . S
C749 H772 0.950 . S
C750 C749 1.349 . S
C750 C762 1.371 . S
C751 C749 1.327 . S
C751 C767 1.429 . S
C751 H773 0.950 . S
C752 H748 0.949 . S
C752 C760 1.574 . S
C752 C768 1.368 . S
H753 C761 0.950 . S
H754 C759 0.950 . S
H755 C760 0.949 . S
H756 C762 0.916 1_545 S
H757 C763 0.937 1_545 S
H758 C764 0.949 . S
C759 H754 0.950 . S
C759 C761 1.327 . S
C759 C765 1.429 . S
C760 C752 1.574 . S
C760 H755 0.949 . S
C760 C766 1.368 . S
C761 C745 1.349 1_556 S
C761 H753 0.950 . S
C761 C759 1.327 . S
C762 C750 1.371 . S
C762 H756 0.916 1_565 S
C762 C763 1.340 . S
C763 H757 0.937 1_565 S
C763 C762 1.340 . S
C763 C767 1.429 . S
C764 C747 1.574 . S
C764 H758 0.949 . S
C764 C768 1.368 . S
C765 C746 1.429 1_556 S
C765 C759 1.429 . S
C765 C766 1.523 . S
C766 C747 1.368 . S
C766 C760 1.368 . S
C766 C765 1.523 . S
C767 C751 1.429 . S
C767 C763 1.429 . S
C767 C768 1.523 . S
C768 C752 1.368 . S
C768 C764 1.368 . S
C768 C767 1.523 . S
H769 C744 0.950 . S
H770 C746 0.950 . S
H771 C747 0.949 . S
H772 C749 0.950 . S
H773 C751 0.950 . S
C774 C775 1.349 . S
C774 C776 1.327 1_554 S
C774 H799 0.950 . S
C775 C774 1.349 . S
C775 C791 1.349 . S
C776 C774 1.327 1_556 S
C776 C795 1.429 . S
C776 H800 0.950 . S
C777 C794 1.574 . S
C777 C796 1.368 . S
C777 H801 0.949 . S
H778 C782 0.949 . S
C779 C780 1.349 . S
C779 C781 1.327 . S
C779 H802 0.950 . S
C780 C779 1.349 . S
C780 C792 1.349 . S
C781 C779 1.327 . S
C781 C797 1.429 . S
C781 H803 0.950 . S
C782 H778 0.949 . S
C782 C790 1.574 . S
C782 C798 1.368 . S
H783 C791 0.950 . S
H784 C789 0.950 . S
H785 C790 0.949 . S
H786 C792 0.950 . S
H787 C793 0.950 . S
H788 C794 0.949 . S
C789 H784 0.950 . S
C789 C791 1.327 1_556 S
C789 C795 1.429 . S
C790 C782 1.574 . S
C790 H785 0.949 . S
C790 C796 1.368 . S
C791 C775 1.349 . S
C791 H783 0.950 . S
C791 C789 1.327 1_554 S
C792 C780 1.349 . S
C792 H786 0.950 . S
C792 C793 1.327 . S
C793 H787 0.950 . S
C793 C792 1.327 . S
C793 C797 1.429 . S
C794 C777 1.574 . S
C794 H788 0.949 . S
C794 C798 1.368 . S
C795 C776 1.429 . S
C795 C789 1.429 . S
C795 C796 1.523 . S
C796 C777 1.368 . S
C796 C790 1.368 . S
C796 C795 1.523 . S
C797 C781 1.429 . S
C797 C793 1.429 . S
C797 C798 1.523 . S
C798 C782 1.368 . S
C798 C794 1.368 . S
C798 C797 1.523 . S
H799 C774 0.950 . S
H800 C776 0.950 . S
H801 C777 0.949 . S
H802 C779 0.950 . S
H803 C781 0.950 . S
C804 C805 1.349 1_556 S
C804 C806 1.327 . S
C804 H829 0.950 . S
C805 C804 1.349 1_554 S
C805 C821 1.349 . S
C806 C804 1.327 . S
C806 C825 1.429 . S
C806 H830 0.950 . S
C807 C824 1.574 . S
C807 C826 1.368 . S
C807 H831 0.949 . S
H808 C812 0.949 . S
C809 C810 1.349 . S
C809 C811 1.327 . S
C809 H832 0.950 . S
C810 C809 1.349 . S
C810 C822 1.349 . S
C811 C809 1.327 . S
C811 C827 1.429 . S
C811 H833 0.950 . S
C812 H808 0.949 . S
C812 C820 1.574 . S
C812 C828 1.368 . S
H813 C821 0.950 . S
H814 C819 0.950 . S
H815 C820 0.949 . S
H816 C822 0.950 . S
H817 C823 0.950 . S
H818 C824 0.949 . S
C819 H814 0.950 . S
C819 C821 1.327 1_556 S
C819 C825 1.429 . S
C820 C812 1.574 . S
C820 H815 0.949 . S
C820 C826 1.368 . S
C821 C805 1.349 . S
C821 H813 0.950 . S
C821 C819 1.327 1_554 S
C822 C810 1.349 . S
C822 H816 0.950 . S
C822 C823 1.327 . S
C823 H817 0.950 . S
C823 C822 1.327 . S
C823 C827 1.429 . S
C824 C807 1.574 . S
C824 H818 0.949 . S
C824 C828 1.368 . S
C825 C806 1.429 . S
C825 C819 1.429 . S
C825 C826 1.523 . S
C826 C807 1.368 . S
C826 C820 1.368 . S
C826 C825 1.523 . S
C827 C811 1.429 . S
C827 C823 1.429 . S
C827 C828 1.523 . S
C828 C812 1.368 . S
C828 C824 1.368 . S
C828 C827 1.523 . S
H829 C804 0.950 . S
H830 C806 0.950 . S
H831 C807 0.949 . S
H832 C809 0.950 . S
H833 C811 0.950 . S
C834 C835 1.349 . S
C834 C836 1.327 1_554 S
C834 H859 0.950 . S
C835 C834 1.349 . S
C835 C851 1.349 . S
C836 C834 1.327 1_556 S
C836 C855 1.429 . S
C836 H860 0.950 . S
C837 C854 1.574 . S
C837 C856 1.368 . S
C837 H861 0.949 . S
H838 C842 0.949 . S
C839 C840 1.349 . S
C839 C841 1.327 . S
C839 H862 0.950 1_655 S
C840 C839 1.349 . S
C840 C852 1.349 . S
C841 C839 1.327 . S
C841 C857 1.429 . S
C841 H863 0.950 . S
C842 H838 0.949 . S
C842 C850 1.574 . S
C842 C858 1.368 . S
H843 C851 0.950 . S
H844 C849 0.950 . S
H845 C850 0.949 . S
H846 C852 0.950 . S
H847 C853 0.950 . S
H848 C854 0.949 . S
C849 H844 0.950 . S
C849 C851 1.327 1_556 S
C849 C855 1.429 . S
C850 C842 1.574 . S
C850 H845 0.949 . S
C850 C856 1.368 . S
C851 C835 1.349 . S
C851 H843 0.950 . S
C851 C849 1.327 1_554 S
C852 C840 1.349 . S
C852 H846 0.950 . S
C852 C853 1.327 . S
C853 H847 0.950 . S
C853 C852 1.327 . S
C853 C857 1.429 . S
C854 C837 1.574 . S
C854 H848 0.949 . S
C854 C858 1.368 . S
C855 C836 1.429 . S
C855 C849 1.429 . S
C855 C856 1.523 . S
C856 C837 1.368 . S
C856 C850 1.368 . S
C856 C855 1.523 . S
C857 C841 1.429 . S
C857 C853 1.429 . S
C857 C858 1.523 . S
C858 C842 1.368 . S
C858 C854 1.368 . S
C858 C857 1.523 . S
H859 C834 0.950 . S
H860 C836 0.950 . S
H861 C837 0.949 . S
H862 C839 0.950 1_455 S
H863 C841 0.950 . S
C864 C865 1.349 . S
C864 C866 1.327 . S
C864 H889 0.950 . S
C865 C864 1.349 . S
C865 C881 1.349 . S
C866 C864 1.327 . S
C866 C885 1.429 . S
C866 H890 0.950 . S
C867 C884 1.574 . S
C867 C886 1.368 . S
C867 H891 0.949 . S
H868 C872 0.949 . S
C869 C870 1.349 . S
C869 C871 1.327 . S
C869 H892 0.950 . S
C870 C869 1.349 . S
C870 C882 1.349 . S
C871 C869 1.327 . S
C871 C887 1.429 . S
C871 H893 0.950 . S
C872 H868 0.949 . S
C872 C880 1.574 . S
C872 C888 1.368 . S
H873 C881 0.950 . S
H874 C879 0.950 . S
H875 C880 0.949 . S
H876 C882 0.955 . S
H877 C883 0.950 . S
H878 C884 0.949 . S
C879 H874 0.950 . S
C879 C881 1.327 . S
C879 C885 1.429 . S
C880 C872 1.574 . S
C880 H875 0.949 . S
C880 C886 1.368 . S
C881 C865 1.349 . S
C881 H873 0.950 . S
C881 C879 1.327 . S
C882 C870 1.349 . S
C882 H876 0.955 . S
C882 C883 1.327 . S
C883 H877 0.950 . S
C883 C882 1.327 . S
C883 C887 1.429 . S
C884 C867 1.574 . S
C884 H878 0.949 . S
C884 C888 1.368 . S
C885 C866 1.429 . S
C885 C879 1.429 . S
C885 C886 1.523 . S
C886 C867 1.368 . S
C886 C880 1.368 . S
C886 C885 1.523 . S
C887 C871 1.429 . S
C887 C883 1.429 . S
C887 C888 1.523 . S
C888 C872 1.368 . S
C888 C884 1.368 . S
C888 C887 1.523 . S
H889 C864 0.950 . S
H890 C866 0.950 . S
H891 C867 0.949 . S
H892 C869 0.950 . S
H893 C871 0.950 . S
C894 C895 1.349 . S
C894 C896 1.327 . S
C894 H919 0.950 . S
C895 C894 1.349 . S
C895 C911 1.349 . S
C896 C894 1.327 . S
C896 C915 1.429 . S
C896 H920 0.950 . S
C897 C914 1.574 . S
C897 C916 1.368 . S
C897 H921 0.949 . S
H898 C902 0.949 . S
C899 C900 1.349 1_565 S
C899 C901 1.327 1_565 S
C899 H922 0.950 . S
C900 C899 1.349 1_545 S
C900 C912 1.349 . S
C901 C899 1.327 1_545 S
C901 C917 1.429 . S
C901 H923 0.950 1_545 S
C902 H898 0.949 . S
C902 C910 1.574 . S
C902 C918 1.368 . S
H903 C911 0.950 . S
H904 C909 0.950 . S
H905 C910 0.949 . S
H906 C912 0.950 . S
H907 C913 0.950 . S
H908 C914 0.949 . S
C909 H904 0.950 . S
C909 C911 1.327 . S
C909 C915 1.429 . S
C910 C902 1.574 . S
C910 H905 0.949 . S
C910 C916 1.368 . S
C911 C895 1.349 . S
C911 H903 0.950 . S
C911 C909 1.327 . S
C912 C900 1.349 . S
C912 H906 0.950 . S
C912 C913 1.327 . S
C913 H907 0.950 . S
C913 C912 1.327 . S
C913 C917 1.429 . S
C914 C897 1.574 . S
C914 H908 0.949 . S
C914 C918 1.368 . S
C915 C896 1.429 . S
C915 C909 1.429 . S
C915 C916 1.523 . S
C916 C897 1.368 . S
C916 C910 1.368 . S
C916 C915 1.523 . S
C917 C901 1.429 . S
C917 C913 1.429 . S
C917 C918 1.523 . S
C918 C902 1.368 . S
C918 C914 1.368 . S
C918 C917 1.523 . S
H919 C894 0.950 . S
H920 C896 0.950 . S
H921 C897 0.949 . S
H922 C899 0.950 . S
H923 C901 0.950 1_565 S
C924 C925 1.349 . S
C924 C926 1.327 . S
C924 H949 0.950 . S
C925 C924 1.349 . S
C925 C941 1.349 . S
C926 C924 1.327 . S
C926 C945 1.429 . S
C926 H950 0.950 . S
C927 C944 1.574 . S
C927 C946 1.368 . S
C927 H951 0.949 . S
H928 C932 0.949 . S
C929 C930 1.349 . S
C929 C931 1.327 . S
C929 H952 0.950 . S
C930 C929 1.349 . S
C930 C942 1.349 . S
C931 C929 1.327 . S
C931 C947 1.429 . S
C931 H953 0.950 . S
C932 H928 0.949 . S
C932 C940 1.574 . S
C932 C948 1.368 . S
H933 C941 0.950 . S
H934 C939 0.950 . S
H935 C940 0.949 . S
H936 C942 0.950 . S
H937 C943 0.950 . S
H938 C944 0.949 . S
C939 H934 0.950 . S
C939 C941 1.327 . S
C939 C945 1.429 . S
C940 C932 1.574 . S
C940 H935 0.949 . S
C940 C946 1.368 . S
C941 C925 1.349 . S
C941 H933 0.950 . S
C941 C939 1.327 . S
C942 C930 1.349 . S
C942 H936 0.950 . S
C942 C943 1.327 . S
C943 H937 0.950 . S
C943 C942 1.327 . S
C943 C947 1.429 . S
C944 C927 1.574 . S
C944 H938 0.949 . S
C944 C948 1.368 . S
C945 C926 1.429 . S
C945 C939 1.429 . S
C945 C946 1.523 . S
C946 C927 1.368 . S
C946 C940 1.368 . S
C946 C945 1.523 . S
C947 C931 1.429 . S
C947 C943 1.429 . S
C947 C948 1.523 . S
C948 C932 1.368 . S
C948 C944 1.368 . S
C948 C947 1.523 . S
H949 C924 0.950 . S
H950 C926 0.950 . S
H951 C927 0.949 . S
H952 C929 0.950 . S
H953 C931 0.950 . S
C954 C955 1.349 . S
C954 C956 1.327 . S
C954 H979 0.950 . S
C955 C954 1.349 . S
C955 C971 1.349 . S
C956 C954 1.327 . S
C956 C975 1.429 . S
C956 H980 0.950 . S
C957 C974 1.574 . S
C957 C976 1.368 . S
C957 H981 0.949 . S
H958 C962 0.949 . S
C959 C960 1.349 . S
C959 C961 1.327 . S
C959 H982 0.950 . S
C960 C959 1.349 . S
C960 C972 1.349 . S
C961 C959 1.327 . S
C961 C977 1.429 . S
C961 H983 0.950 . S
C962 H958 0.949 . S
C962 C970 1.574 . S
C962 C978 1.368 . S
H963 C971 0.950 . S
H964 C969 0.950 . S
H965 C970 0.949 . S
H966 C972 0.950 . S
H967 C973 0.950 . S
H968 C974 0.949 . S
C969 H964 0.950 . S
C969 C971 1.327 . S
C969 C975 1.429 . S
C970 C962 1.574 . S
C970 H965 0.949 . S
C970 C976 1.368 . S
C971 C955 1.349 . S
C971 H963 0.950 . S
C971 C969 1.327 . S
C972 C960 1.349 . S
C972 H966 0.950 . S
C972 C973 1.327 . S
C973 H967 0.950 . S
C973 C972 1.327 . S
C973 C977 1.429 . S
C974 C957 1.574 . S
C974 H968 0.949 . S
C974 C978 1.368 . S
C975 C956 1.429 . S
C975 C969 1.429 . S
C975 C976 1.523 . S
C976 C957 1.368 . S
C976 C970 1.368 . S
C976 C975 1.523 . S
C977 C961 1.429 . S
C977 C973 1.429 . S
C977 C978 1.523 . S
C978 C962 1.368 . S
C978 C974 1.368 . S
C978 C977 1.523 . S
H979 C954 0.950 . S
H980 C956 0.950 . S
H981 C957 0.949 . S
H982 C959 0.950 . S
H983 C961 0.950 . S
C984 C985 1.349 . S
C984 C986 1.327 . S
C984 H1009 0.950 1_556 S
C985 C984 1.349 . S
C985 C1001 1.349 . S
C986 C984 1.327 . S
C986 C1005 1.429 . S
C986 H1010 0.950 . S
C987 C1004 1.574 . S
C987 C1006 1.368 . S
C987 H1011 0.949 . S
H988 C992 0.949 . S
C989 C990 1.349 1_655 S
C989 C991 1.327 . S
C989 H1012 0.950 . S
C990 C989 1.349 1_455 S
C990 C1002 1.349 . S
C991 C989 1.327 . S
C991 C1007 1.429 . S
C991 H1013 0.950 . S
C992 H988 0.949 . S
C992 C1000 1.574 . S
C992 C1008 1.368 . S
H993 C1001 0.950 . S
H994 C999 0.950 . S
H995 C1000 0.949 . S
H996 C1002 0.950 . S
H997 C1003 0.971 . S
H998 C1004 0.949 . S
C999 H994 0.950 . S
C999 C1001 1.327 . S
C999 C1005 1.429 . S
C1000 C992 1.574 . S
C1000 H995 0.949 . S
C1000 C1006 1.368 . S
C1001 C985 1.349 . S
C1001 H993 0.950 . S
C1001 C999 1.327 . S
C1002 C990 1.349 . S
C1002 H996 0.950 . S
C1002 C1003 1.358 . S
C1003 H997 0.971 . S
C1003 C1002 1.358 . S
C1003 C1007 1.380 1_455 S
C1004 C987 1.574 . S
C1004 H998 0.949 . S
C1004 C1008 1.368 . S
C1005 C986 1.429 . S
C1005 C999 1.429 . S
C1005 C1006 1.523 . S
C1006 C987 1.368 . S
C1006 C1000 1.368 . S
C1006 C1005 1.523 . S
C1007 C991 1.429 . S
C1007 C1003 1.380 1_655 S
C1007 C1008 1.523 . S
C1008 C992 1.368 . S
C1008 C1004 1.368 . S
C1008 C1007 1.523 . S
H1009 C984 0.950 1_554 S
H1010 C986 0.950 . S
H1011 C987 0.949 . S
H1012 C989 0.950 . S
H1013 C991 0.950 . S
C1014 C1015 1.349 . S
C1014 C1016 1.327 . S
C1014 H1039 0.950 . S
C1015 C1014 1.349 . S
C1015 C1031 1.349 . S
C1016 C1014 1.327 . S
C1016 C1035 1.429 . S
C1016 H1040 0.950 . S
C1017 C1034 1.574 . S
C1017 C1036 1.368 . S
C1017 H1041 0.949 . S
H1018 C1022 0.949 . S
C1019 C1020 1.349 . S
C1019 C1021 1.327 . S
C1019 H1042 0.950 . S
C1020 C1019 1.349 . S
C1020 C1032 1.349 1_545 S
C1021 C1019 1.327 . S
C1021 C1037 1.429 1_545 S
C1021 H1043 0.950 . S
C1022 H1018 0.949 . S
C1022 C1030 1.574 . S
C1022 C1038 1.368 . S
H1023 C1031 0.950 . S
H1024 C1029 0.950 . S
H1025 C1030 0.949 . S
H1026 C1032 0.950 . S
H1027 C1033 0.950 . S
H1028 C1034 0.949 . S
C1029 H1024 0.950 . S
C1029 C1031 1.327 . S
C1029 C1035 1.429 . S
C1030 C1022 1.574 . S
C1030 H1025 0.949 . S
C1030 C1036 1.368 . S
C1031 C1015 1.349 . S
C1031 H1023 0.950 . S
C1031 C1029 1.327 . S
C1032 C1020 1.349 1_565 S
C1032 H1026 0.950 . S
C1032 C1033 1.327 . S
C1033 H1027 0.950 . S
C1033 C1032 1.327 . S
C1033 C1037 1.429 . S
C1034 C1017 1.574 . S
C1034 H1028 0.949 . S
C1034 C1038 1.368 . S
C1035 C1016 1.429 . S
C1035 C1029 1.429 . S
C1035 C1036 1.523 . S
C1036 C1017 1.368 . S
C1036 C1030 1.368 . S
C1036 C1035 1.523 . S
C1037 C1021 1.429 1_565 S
C1037 C1033 1.429 . S
C1037 C1038 1.523 . S
C1038 C1022 1.368 . S
C1038 C1034 1.368 . S
C1038 C1037 1.523 . S
H1039 C1014 0.950 . S
H1040 C1016 0.950 . S
H1041 C1017 0.949 . S
H1042 C1019 0.950 . S
H1043 C1021 0.950 . S
C1044 C1045 1.349 . S
C1044 C1046 1.327 . S
C1044 H1069 0.950 . S
C1045 C1044 1.349 . S
C1045 C1061 1.349 . S
C1046 C1044 1.327 . S
C1046 C1065 1.429 . S
C1046 H1070 0.950 . S
C1047 C1064 1.574 . S
C1047 C1066 1.368 . S
C1047 H1071 0.949 . S
H1048 C1052 0.949 . S
C1049 C1050 1.349 . S
C1049 C1051 1.327 . S
C1049 H1072 0.950 . S
C1050 C1049 1.349 . S
C1050 C1062 1.349 . S
C1051 C1049 1.327 . S
C1051 C1067 1.429 . S
C1051 H1073 0.950 . S
C1052 H1048 0.949 . S
C1052 C1060 1.574 . S
C1052 C1068 1.368 . S
H1053 C1061 0.950 1_554 S
H1054 C1059 0.950 . S
H1055 C1060 0.949 . S
H1056 C1062 0.950 . S
H1057 C1063 0.950 . S
H1058 C1064 0.949 . S
C1059 H1054 0.950 . S
C1059 C1061 1.327 . S
C1059 C1065 1.429 . S
C1060 C1052 1.574 . S
C1060 H1055 0.949 . S
C1060 C1066 1.368 . S
C1061 C1045 1.349 . S
C1061 H1053 0.950 1_556 S
C1061 C1059 1.327 . S
C1062 C1050 1.349 . S
C1062 H1056 0.950 . S
C1062 C1063 1.327 . S
C1063 H1057 0.950 . S
C1063 C1062 1.327 . S
C1063 C1067 1.429 . S
C1064 C1047 1.574 . S
C1064 H1058 0.949 . S
C1064 C1068 1.368 . S
C1065 C1046 1.429 . S
C1065 C1059 1.429 . S
C1065 C1066 1.523 . S
C1066 C1047 1.368 . S
C1066 C1060 1.368 . S
C1066 C1065 1.523 . S
C1067 C1051 1.429 . S
C1067 C1063 1.429 . S
C1067 C1068 1.523 . S
C1068 C1052 1.368 . S
C1068 C1064 1.368 . S
C1068 C1067 1.523 . S
H1069 C1044 0.950 . S
H1070 C1046 0.950 . S
H1071 C1047 0.949 . S
H1072 C1049 0.950 . S
H1073 C1051 0.950 . S
C1074 C1075 1.349 . S
C1074 C1076 1.327 . S
C1074 H1099 0.950 . S
C1075 C1074 1.349 . S
C1075 C1091 1.349 . S
C1076 C1074 1.327 . S
C1076 C1095 1.429 . S
C1076 H1100 0.950 . S
C1077 C1094 1.574 . S
C1077 C1096 1.368 . S
C1077 H1101 0.949 . S
H1078 C1082 0.949 . S
C1079 C1080 1.349 . S
C1079 C1081 1.327 . S
C1079 H1102 0.950 . S
C1080 C1079 1.349 . S
C1080 C1092 1.349 . S
C1081 C1079 1.327 . S
C1081 C1097 1.429 . S
C1081 H1103 0.950 . S
C1082 H1078 0.949 . S
C1082 C1090 1.574 . S
C1082 C1098 1.368 . S
H1083 C1091 0.950 . S
H1084 C1089 0.950 . S
H1085 C1090 0.949 . S
H1086 C1092 0.950 . S
H1087 C1093 0.950 . S
H1088 C1094 0.949 . S
C1089 H1084 0.950 . S
C1089 C1091 1.327 . S
C1089 C1095 1.429 . S
C1090 C1082 1.574 . S
C1090 H1085 0.949 . S
C1090 C1096 1.368 . S
C1091 C1075 1.349 . S
C1091 H1083 0.950 . S
C1091 C1089 1.327 . S
C1092 C1080 1.349 . S
C1092 H1086 0.950 . S
C1092 C1093 1.327 . S
C1093 H1087 0.950 . S
C1093 C1092 1.327 . S
C1093 C1097 1.429 . S
C1094 C1077 1.574 . S
C1094 H1088 0.949 . S
C1094 C1098 1.368 . S
C1095 C1076 1.429 . S
C1095 C1089 1.429 . S
C1095 C1096 1.523 . S
C1096 C1077 1.368 . S
C1096 C1090 1.368 . S
C1096 C1095 1.523 . S
C1097 C1081 1.429 . S
C1097 C1093 1.429 . S
C1097 C1098 1.523 . S
C1098 C1082 1.368 . S
C1098 C1094 1.368 . S
C1098 C1097 1.523 . S
H1099 C1074 0.950 . S
H1100 C1076 0.950 . S
H1101 C1077 0.949 . S
H1102 C1079 0.950 . S
H1103 C1081 0.950 . S
C1104 C1105 1.349 . S
C1104 C1106 1.327 . S
C1104 H1129 0.950 . S
C1105 C1104 1.349 . S
C1105 C1121 1.349 . S
C1106 C1104 1.327 . S
C1106 C1125 1.429 . S
C1106 H1130 0.950 . S
C1107 C1124 1.574 . S
C1107 C1126 1.368 . S
C1107 H1131 0.949 . S
H1108 C1112 0.949 . S
C1109 C1110 1.349 . S
C1109 C1111 1.327 . S
C1109 H1132 0.950 . S
C1110 C1109 1.349 . S
C1110 C1122 1.349 . S
C1111 C1109 1.327 . S
C1111 C1127 1.429 . S
C1111 H1133 0.950 . S
C1112 H1108 0.949 . S
C1112 C1120 1.574 . S
C1112 C1128 1.368 . S
H1113 C1121 0.950 . S
H1114 C1119 0.950 . S
H1115 C1120 0.949 . S
H1116 C1122 0.950 . S
H1117 C1123 0.950 . S
H1118 C1124 0.949 . S
C1119 H1114 0.950 . S
C1119 C1121 1.327 . S
C1119 C1125 1.429 . S
C1120 C1112 1.574 . S
C1120 H1115 0.949 . S
C1120 C1126 1.368 . S
C1121 C1105 1.349 . S
C1121 H1113 0.950 . S
C1121 C1119 1.327 . S
C1122 C1110 1.349 . S
C1122 H1116 0.950 . S
C1122 C1123 1.327 . S
C1123 H1117 0.950 . S
C1123 C1122 1.327 . S
C1123 C1127 1.429 . S
C1124 C1107 1.574 . S
C1124 H1118 0.949 . S
C1124 C1128 1.368 . S
C1125 C1106 1.429 . S
C1125 C1119 1.429 . S
C1125 C1126 1.523 . S
C1126 C1107 1.368 . S
C1126 C1120 1.368 . S
C1126 C1125 1.523 . S
C1127 C1111 1.429 . S
C1127 C1123 1.429 . S
C1127 C1128 1.523 . S
C1128 C1112 1.368 . S
C1128 C1124 1.368 . S
C1128 C1127 1.523 . S
H1129 C1104 0.950 . S
H1130 C1106 0.950 . S
H1131 C1107 0.949 . S
H1132 C1109 0.950 . S
H1133 C1111 0.950 . S
C1134 C1135 1.349 . S
C1134 C1136 1.327 . S
C1134 H1159 0.950 . S
C1135 C1134 1.349 . S
C1135 C1151 1.349 . S
C1136 C1134 1.327 . S
C1136 C1155 1.429 . S
C1136 H1160 0.950 . S
C1137 C1154 1.574 . S
C1137 C1156 1.368 . S
C1137 H1161 0.949 . S
H1138 C1142 0.949 . S
C1139 C1140 1.349 . S
C1139 C1141 1.327 . S
C1139 H1162 0.950 . S
C1140 C1139 1.349 . S
C1140 C1152 1.349 . S
C1141 C1139 1.327 . S
C1141 C1157 1.429 . S
C1141 H1163 0.950 . S
C1142 H1138 0.949 . S
C1142 C1150 1.574 . S
C1142 C1158 1.368 . S
H1143 C1151 0.950 . S
H1144 C1149 0.950 . S
H1145 C1150 0.949 . S
H1146 C1152 0.950 . S
H1147 C1153 0.950 . S
H1148 C1154 0.949 . S
C1149 H1144 0.950 . S
C1149 C1151 1.327 . S
C1149 C1155 1.429 . S
C1150 C1142 1.574 . S
C1150 H1145 0.949 . S
C1150 C1156 1.368 . S
C1151 C1135 1.349 . S
C1151 H1143 0.950 . S
C1151 C1149 1.327 . S
C1152 C1140 1.349 . S
C1152 H1146 0.950 . S
C1152 C1153 1.327 . S
C1153 H1147 0.950 . S
C1153 C1152 1.327 . S
C1153 C1157 1.429 . S
C1154 C1137 1.574 . S
C1154 H1148 0.949 . S
C1154 C1158 1.368 . S
C1155 C1136 1.429 . S
C1155 C1149 1.429 . S
C1155 C1156 1.523 . S
C1156 C1137 1.368 . S
C1156 C1150 1.368 . S
C1156 C1155 1.523 . S
C1157 C1141 1.429 . S
C1157 C1153 1.429 . S
C1157 C1158 1.523 . S
C1158 C1142 1.368 . S
C1158 C1154 1.368 . S
C1158 C1157 1.523 . S
H1159 C1134 0.950 . S
H1160 C1136 0.950 . S
H1161 C1137 0.949 . S
H1162 C1139 0.950 . S
H1163 C1141 0.950 . S
C1164 C1165 1.349 . S
C1164 C1166 1.327 . S
C1164 H1189 0.950 . S
C1165 C1164 1.349 . S
C1165 C1181 1.349 . S
C1166 C1164 1.327 . S
C1166 C1185 1.429 . S
C1166 H1190 0.950 . S
C1167 C1184 1.574 . S
C1167 C1186 1.368 . S
C1167 H1191 0.949 . S
H1168 C1172 0.949 . S
C1169 C1170 1.349 . S
C1169 C1171 1.327 . S
C1169 H1192 0.950 . S
C1170 C1169 1.349 . S
C1170 C1182 1.349 . S
C1171 C1169 1.327 . S
C1171 C1187 1.429 . S
C1171 H1193 0.950 . S
C1172 H1168 0.949 . S
C1172 C1180 1.574 . S
C1172 C1188 1.368 . S
H1173 C1181 0.950 . S
H1174 C1179 0.950 . S
H1175 C1180 0.949 . S
H1176 C1182 0.950 . S
H1177 C1183 0.950 . S
H1178 C1184 0.949 . S
C1179 H1174 0.950 . S
C1179 C1181 1.327 . S
C1179 C1185 1.429 . S
C1180 C1172 1.574 . S
C1180 H1175 0.949 . S
C1180 C1186 1.368 . S
C1181 C1165 1.349 . S
C1181 H1173 0.950 . S
C1181 C1179 1.327 . S
C1182 C1170 1.349 . S
C1182 H1176 0.950 . S
C1182 C1183 1.327 . S
C1183 H1177 0.950 . S
C1183 C1182 1.327 . S
C1183 C1187 1.429 . S
C1184 C1167 1.574 . S
C1184 H1178 0.949 . S
C1184 C1188 1.368 . S
C1185 C1166 1.429 . S
C1185 C1179 1.429 . S
C1185 C1186 1.523 . S
C1186 C1167 1.368 . S
C1186 C1180 1.368 . S
C1186 C1185 1.523 . S
C1187 C1171 1.429 . S
C1187 C1183 1.429 . S
C1187 C1188 1.523 . S
C1188 C1172 1.368 . S
C1188 C1184 1.368 . S
C1188 C1187 1.523 . S
H1189 C1164 0.950 . S
H1190 C1166 0.950 . S
H1191 C1167 0.949 . S
H1192 C1169 0.950 . S
H1193 C1171 0.950 . S
C1194 C1195 1.349 . S
C1194 C1196 1.327 . S
C1194 H1219 0.950 . S
C1195 C1194 1.349 . S
C1195 C1211 1.349 . S
C1196 C1194 1.327 . S
C1196 C1215 1.429 . S
C1196 H1220 0.950 . S
C1197 C1214 1.574 . S
C1197 C1216 1.368 . S
C1197 H1221 0.949 . S
H1198 C1202 0.949 . S
C1199 C1200 1.349 . S
C1199 C1201 1.327 . S
C1199 H1222 0.950 . S
C1200 C1199 1.349 . S
C1200 C1212 1.349 . S
C1201 C1199 1.327 . S
C1201 C1217 1.429 . S
C1201 H1223 0.950 . S
C1202 H1198 0.949 . S
C1202 C1210 1.574 . S
C1202 C1218 1.368 . S
H1203 C1211 0.950 . S
H1204 C1209 0.950 . S
H1205 C1210 0.949 . S
H1206 C1212 0.950 . S
H1207 C1213 0.950 . S
H1208 C1214 0.949 . S
C1209 H1204 0.950 . S
C1209 C1211 1.327 . S
C1209 C1215 1.429 . S
C1210 C1202 1.574 . S
C1210 H1205 0.949 . S
C1210 C1216 1.368 . S
C1211 C1195 1.349 . S
C1211 H1203 0.950 . S
C1211 C1209 1.327 . S
C1212 C1200 1.349 . S
C1212 H1206 0.950 . S
C1212 C1213 1.327 . S
C1213 H1207 0.950 . S
C1213 C1212 1.327 . S
C1213 C1217 1.429 . S
C1214 C1197 1.574 . S
C1214 H1208 0.949 . S
C1214 C1218 1.368 . S
C1215 C1196 1.429 . S
C1215 C1209 1.429 . S
C1215 C1216 1.523 . S
C1216 C1197 1.368 . S
C1216 C1210 1.368 . S
C1216 C1215 1.523 . S
C1217 C1201 1.429 . S
C1217 C1213 1.429 . S
C1217 C1218 1.523 . S
C1218 C1202 1.368 . S
C1218 C1214 1.368 . S
C1218 C1217 1.523 . S
H1219 C1194 0.950 . S
H1220 C1196 0.950 . S
H1221 C1197 0.949 . S
H1222 C1199 0.950 . S
H1223 C1201 0.950 . S
C1224 C1225 1.349 . S
C1224 C1226 1.327 . S
C1224 H1249 0.950 . S
C1225 C1224 1.349 . S
C1225 C1241 1.349 . S
C1226 C1224 1.327 . S
C1226 C1245 1.429 . S
C1226 H1250 0.950 . S
C1227 C1244 1.574 . S
C1227 C1246 1.368 . S
C1227 H1251 0.949 . S
H1228 C1232 0.949 . S
C1229 C1230 1.349 . S
C1229 C1231 1.327 . S
C1229 H1252 0.950 . S
C1230 C1229 1.349 . S
C1230 C1242 1.349 . S
C1231 C1229 1.327 . S
C1231 C1247 1.429 . S
C1231 H1253 0.950 . S
C1232 H1228 0.949 . S
C1232 C1240 1.574 . S
C1232 C1248 1.368 . S
H1233 C1241 0.950 . S
H1234 C1239 0.950 . S
H1235 C1240 0.949 . S
H1236 C1242 0.950 . S
H1237 C1243 0.950 . S
H1238 C1244 0.949 . S
C1239 H1234 0.950 . S
C1239 C1241 1.327 . S
C1239 C1245 1.429 . S
C1240 C1232 1.574 . S
C1240 H1235 0.949 . S
C1240 C1246 1.368 . S
C1241 C1225 1.349 . S
C1241 H1233 0.950 . S
C1241 C1239 1.327 . S
C1242 C1230 1.349 . S
C1242 H1236 0.950 . S
C1242 C1243 1.327 . S
C1243 H1237 0.950 . S
C1243 C1242 1.327 . S
C1243 C1247 1.429 . S
C1244 C1227 1.574 . S
C1244 H1238 0.949 . S
C1244 C1248 1.368 . S
C1245 C1226 1.429 . S
C1245 C1239 1.429 . S
C1245 C1246 1.523 . S
C1246 C1227 1.368 . S
C1246 C1240 1.368 . S
C1246 C1245 1.523 . S
C1247 C1231 1.429 . S
C1247 C1243 1.429 . S
C1247 C1248 1.523 . S
C1248 C1232 1.368 . S
C1248 C1244 1.368 . S
C1248 C1247 1.523 . S
H1249 C1224 0.950 . S
H1250 C1226 0.950 . S
H1251 C1227 0.949 . S
H1252 C1229 0.950 . S
H1253 C1231 0.950 . S
C1254 C1255 1.349 . S
C1254 C1256 1.327 . S
C1254 H1279 0.950 . S
C1255 C1254 1.349 . S
C1255 C1271 1.349 . S
C1256 C1254 1.327 . S
C1256 C1275 1.429 . S
C1256 H1280 0.950 . S
C1257 C1274 1.574 . S
C1257 C1276 1.368 . S
C1257 H1281 0.949 . S
H1258 C1262 0.949 . S
C1259 C1260 1.349 . S
C1259 C1261 1.327 . S
C1259 H1282 0.950 . S
C1260 C1259 1.349 . S
C1260 C1272 1.349 . S
C1261 C1259 1.327 . S
C1261 C1277 1.429 . S
C1261 H1283 0.950 . S
C1262 H1258 0.949 . S
C1262 C1270 1.574 . S
C1262 C1278 1.368 . S
H1263 C1271 0.950 . S
H1264 C1269 0.950 . S
H1265 C1270 0.949 . S
H1266 C1272 0.950 . S
H1267 C1273 0.950 . S
H1268 C1274 0.949 . S
C1269 H1264 0.950 . S
C1269 C1271 1.327 . S
C1269 C1275 1.429 . S
C1270 C1262 1.574 . S
C1270 H1265 0.949 . S
C1270 C1276 1.368 . S
C1271 C1255 1.349 . S
C1271 H1263 0.950 . S
C1271 C1269 1.327 . S
C1272 C1260 1.349 . S
C1272 H1266 0.950 . S
C1272 C1273 1.327 . S
C1273 H1267 0.950 . S
C1273 C1272 1.327 . S
C1273 C1277 1.429 . S
C1274 C1257 1.574 . S
C1274 H1268 0.949 . S
C1274 C1278 1.368 . S
C1275 C1256 1.429 . S
C1275 C1269 1.429 . S
C1275 C1276 1.523 . S
C1276 C1257 1.368 . S
C1276 C1270 1.368 . S
C1276 C1275 1.523 . S
C1277 C1261 1.429 . S
C1277 C1273 1.429 . S
C1277 C1278 1.523 . S
C1278 C1262 1.368 . S
C1278 C1274 1.368 . S
C1278 C1277 1.523 . S
H1279 C1254 0.950 . S
H1280 C1256 0.950 . S
H1281 C1257 0.949 . S
H1282 C1259 0.950 . S
H1283 C1261 0.950 . S
C1284 C1285 1.349 . S
C1284 C1286 1.327 . S
C1284 H1309 0.950 . S
C1285 C1284 1.349 . S
C1285 C1301 1.349 . S
C1286 C1284 1.327 . S
C1286 C1305 1.429 . S
C1286 H1310 0.950 . S
C1287 C1304 1.574 . S
C1287 C1306 1.368 . S
C1287 H1311 0.949 . S
H1288 C1292 0.949 . S
C1289 C1290 1.349 . S
C1289 C1291 1.327 . S
C1289 H1312 0.950 . S
C1290 C1289 1.349 . S
C1290 C1302 1.349 . S
C1291 C1289 1.327 . S
C1291 C1307 1.429 . S
C1291 H1313 0.950 . S
C1292 H1288 0.949 . S
C1292 C1300 1.574 . S
C1292 C1308 1.368 . S
H1293 C1301 0.950 . S
H1294 C1299 0.950 . S
H1295 C1300 0.949 . S
H1296 C1302 0.950 . S
H1297 C1303 0.950 . S
H1298 C1304 0.949 . S
C1299 H1294 0.950 . S
C1299 C1301 1.327 . S
C1299 C1305 1.429 . S
C1300 C1292 1.574 . S
C1300 H1295 0.949 . S
C1300 C1306 1.368 . S
C1301 C1285 1.349 . S
C1301 H1293 0.950 . S
C1301 C1299 1.327 . S
C1302 C1290 1.349 . S
C1302 H1296 0.950 . S
C1302 C1303 1.327 . S
C1303 H1297 0.950 . S
C1303 C1302 1.327 . S
C1303 C1307 1.429 . S
C1304 C1287 1.574 . S
C1304 H1298 0.949 . S
C1304 C1308 1.368 . S
C1305 C1286 1.429 . S
C1305 C1299 1.429 . S
C1305 C1306 1.523 . S
C1306 C1287 1.368 . S
C1306 C1300 1.368 . S
C1306 C1305 1.523 . S
C1307 C1291 1.429 . S
C1307 C1303 1.429 . S
C1307 C1308 1.523 . S
C1308 C1292 1.368 . S
C1308 C1304 1.368 . S
C1308 C1307 1.523 . S
H1309 C1284 0.950 . S
H1310 C1286 0.950 . S
H1311 C1287 0.949 . S
H1312 C1289 0.950 . S
H1313 C1291 0.950 . S
C1314 C1315 1.349 . S
C1314 C1316 1.327 . S
C1314 H1339 0.950 . S
C1315 C1314 1.349 . S
C1315 C1331 1.349 . S
C1316 C1314 1.327 . S
C1316 C1335 1.429 . S
C1316 H1340 0.950 . S
C1317 C1334 1.574 . S
C1317 C1336 1.368 . S
C1317 H1341 0.949 . S
H1318 C1322 0.949 . S
C1319 C1320 1.349 . S
C1319 C1321 1.327 . S
C1319 H1342 0.950 . S
C1320 C1319 1.349 . S
C1320 C1332 1.349 . S
C1321 C1319 1.327 . S
C1321 C1337 1.429 . S
C1321 H1343 0.950 . S
C1322 H1318 0.949 . S
C1322 C1330 1.574 . S
C1322 C1338 1.368 . S
H1323 C1331 0.950 . S
H1324 C1329 0.950 . S
H1325 C1330 0.949 . S
H1326 C1332 0.950 . S
H1327 C1333 0.950 . S
H1328 C1334 0.949 . S
C1329 H1324 0.950 . S
C1329 C1331 1.327 . S
C1329 C1335 1.429 . S
C1330 C1322 1.574 . S
C1330 H1325 0.949 . S
C1330 C1336 1.368 . S
C1331 C1315 1.349 . S
C1331 H1323 0.950 . S
C1331 C1329 1.327 . S
C1332 C1320 1.349 . S
C1332 H1326 0.950 . S
C1332 C1333 1.327 . S
C1333 H1327 0.950 . S
C1333 C1332 1.327 . S
C1333 C1337 1.429 . S
C1334 C1317 1.574 . S
C1334 H1328 0.949 . S
C1334 C1338 1.368 . S
C1335 C1316 1.429 . S
C1335 C1329 1.429 . S
C1335 C1336 1.523 . S
C1336 C1317 1.368 . S
C1336 C1330 1.368 . S
C1336 C1335 1.523 . S
C1337 C1321 1.429 . S
C1337 C1333 1.429 . S
C1337 C1338 1.523 . S
C1338 C1322 1.368 . S
C1338 C1334 1.368 . S
C1338 C1337 1.523 . S
H1339 C1314 0.950 . S
H1340 C1316 0.950 . S
H1341 C1317 0.949 . S
H1342 C1319 0.950 . S
H1343 C1321 0.950 . S
C625 C241 2.040 . S
C630 C362 2.103 . S
C660 C446 2.148 . S
C655 C277 2.081 . S
C690 C512 2.112 . S
C685 C169 2.215 . S
C720 C596 2.094 . S
C715 C205 2.197 . S
C750 C351 2.103 1_565 S
C745 C97 1.995 . S
C775 C133 2.129 . S
C780 C435 2.147 . S
C805 C25 2.163 . S
C810 C523 2.112 . S
C835 C61 2.147 . S
C840 C607 2.094 . S
C870 C358 0.433 1_455 S
C865 C211 0.422 . S
C900 C442 0.409 1_545 S
C895 C247 0.380 . S
C930 C514 0.445 . S
C925 C253 0.455 . S
C955 C175 0.405 . S
C960 C598 0.455 . S
C985 C67 0.511 . S
C990 C346 0.433 . S
C1020 C430 0.409 . S
C1015 C103 0.484 . S
C1050 C526 0.446 . S
C1045 C109 0.350 . S
C1075 C31 0.511 . S
C1080 C610 0.456 . S
C1105 C181 2.633 . S
C1110 C355 2.703 . S
C1135 C217 2.573 . S
C1140 C439 2.644 . S
C1170 C519 2.653 . S
C1165 C283 2.350 . S
C1200 C603 2.687 . S
C1195 C145 2.482 . S
C1225 C37 2.599 . S
C1230 C344 2.703 . S
C1260 C428 2.644 . S
C1255 C73 2.542 . S
C1290 C530 2.654 . S
C1285 C139 2.395 . S
C1315 C1 2.446 . S
C1320 C614 2.687 . S
