# Generated by pormake.
# Topology pyr, (3,6)-cn, num edge types: 1
# Building blocks:
#     Node 0, Type 0, BuildingBlock: ESEHIV_clean_linker_0, # of connection points: 3
#     Node 1, Type 0, BuildingBlock: ESEHIV_clean_linker_0, # of connection points: 3
#     Node 2, Type 0, BuildingBlock: ESEHIV_clean_linker_0, # of connection points: 3
#     Node 3, Type 0, BuildingBlock: ESEHIV_clean_linker_0, # of connection points: 3
#     Node 4, Type 0, BuildingBlock: ESEHIV_clean_linker_0, # of connection points: 3
#     Node 5, Type 0, BuildingBlock: ESEHIV_clean_linker_0, # of connection points: 3
#     Node 6, Type 0, BuildingBlock: ESEHIV_clean_linker_0, # of connection points: 3
#     Node 7, Type 0, BuildingBlock: ESEHIV_clean_linker_0, # of connection points: 3
#     Node 8, Type 1, BuildingBlock: CIFDUS_clean_sbu_1, # of connection points: 6
#     Node 9, Type 1, BuildingBlock: CIFDUS_clean_sbu_1, # of connection points: 6
#     Node 10, Type 1, BuildingBlock: CIFDUS_clean_sbu_1, # of connection points: 6
#     Node 11, Type 1, BuildingBlock: CIFDUS_clean_sbu_1, # of connection points: 6
#     Edge 12, Type (0, 1), BuildingBlock: MIFKUJ_clean_linker_0, # of connection points: 2
#     Edge 13, Type (0, 1), BuildingBlock: MIFKUJ_clean_linker_0, # of connection points: 2
#     Edge 14, Type (0, 1), BuildingBlock: MIFKUJ_clean_linker_0, # of connection points: 2
#     Edge 15, Type (0, 1), BuildingBlock: MIFKUJ_clean_linker_0, # of connection points: 2
#     Edge 16, Type (0, 1), BuildingBlock: MIFKUJ_clean_linker_0, # of connection points: 2
#     Edge 17, Type (0, 1), BuildingBlock: MIFKUJ_clean_linker_0, # of connection points: 2
#     Edge 18, Type (0, 1), BuildingBlock: MIFKUJ_clean_linker_0, # of connection points: 2
#     Edge 19, Type (0, 1), BuildingBlock: MIFKUJ_clean_linker_0, # of connection points: 2
#     Edge 20, Type (0, 1), BuildingBlock: MIFKUJ_clean_linker_0, # of connection points: 2
#     Edge 21, Type (0, 1), BuildingBlock: MIFKUJ_clean_linker_0, # of connection points: 2
#     Edge 22, Type (0, 1), BuildingBlock: MIFKUJ_clean_linker_0, # of connection points: 2
#     Edge 23, Type (0, 1), BuildingBlock: MIFKUJ_clean_linker_0, # of connection points: 2
#     Edge 24, Type (0, 1), BuildingBlock: MIFKUJ_clean_linker_0, # of connection points: 2
#     Edge 25, Type (0, 1), BuildingBlock: MIFKUJ_clean_linker_0, # of connection points: 2
#     Edge 26, Type (0, 1), BuildingBlock: MIFKUJ_clean_linker_0, # of connection points: 2
#     Edge 27, Type (0, 1), BuildingBlock: MIFKUJ_clean_linker_0, # of connection points: 2
#     Edge 28, Type (0, 1), BuildingBlock: MIFKUJ_clean_linker_0, # of connection points: 2
#     Edge 29, Type (0, 1), BuildingBlock: MIFKUJ_clean_linker_0, # of connection points: 2
#     Edge 30, Type (0, 1), BuildingBlock: MIFKUJ_clean_linker_0, # of connection points: 2
#     Edge 31, Type (0, 1), BuildingBlock: MIFKUJ_clean_linker_0, # of connection points: 2
#     Edge 32, Type (0, 1), BuildingBlock: MIFKUJ_clean_linker_0, # of connection points: 2
#     Edge 33, Type (0, 1), BuildingBlock: MIFKUJ_clean_linker_0, # of connection points: 2
#     Edge 34, Type (0, 1), BuildingBlock: MIFKUJ_clean_linker_0, # of connection points: 2
#     Edge 35, Type (0, 1), BuildingBlock: MIFKUJ_clean_linker_0, # of connection points: 2
# Relax obj value: 0.035
# Max RMSD: 0.111
# Mean RMSD: 0.045
data_MOF--net-pry--node1-CIFDUS_clean_sbu_1--node2-ESEHIV_clean_linker_0--edge1-MIFKUJ_clean_linker_0
_symmetry_space_group_name_H-M    P1
_symmetry_Int_Tables_number       1
_symmetry_cell_setting            triclinic
loop_
_symmetry_equiv_pos_as_xyz
'x, y, z'
_cell_length_a     46.231585
_cell_length_b     44.652986
_cell_length_c     44.420756
_cell_angle_alpha  92.069494
_cell_angle_beta   91.101461
_cell_angle_gamma 93.516186
loop_
_atom_site_label
_atom_site_type_symbol
_atom_site_fract_x
_atom_site_fract_y
_atom_site_fract_z
_atom_type_partial_charge
H0 H 0.10902 0.1744 0.16519 0.0
H1 H 0.17163 0.10708 0.16463 0.0
H2 H 0.17526 0.17503 0.09819 0.0
C3 C 0.12743 0.16449 0.15491 0.0
C4 C 0.1401 0.1775 0.12951 0.0
C5 C 0.13864 0.13915 0.1677 0.0
C6 C 0.16267 0.12634 0.15457 0.0
C7 C 0.17637 0.13948 0.1298 0.0
C8 C 0.16498 0.1651 0.11748 0.0
H9 H 0.35254 0.92833 0.65058 0.0
H10 H 0.41606 0.86267 0.64839 0.0
H11 H 0.34337 0.85194 0.58736 0.0
C12 C 0.35999 0.90796 0.64033 0.0
C13 C 0.34422 0.89236 0.61642 0.0
C14 C 0.38546 0.89696 0.65211 0.0
C15 C 0.39657 0.87139 0.63901 0.0
C16 C 0.38153 0.85583 0.61522 0.0
C17 C 0.35526 0.86574 0.60448 0.0
H18 H 0.65594 0.36515 0.91484 0.0
H19 H 0.65462 0.43823 0.85476 0.0
H20 H 0.59163 0.36315 0.84378 0.0
C21 C 0.64581 0.3761 0.89634 0.0
C22 C 0.62162 0.3618 0.88128 0.0
C23 C 0.65791 0.40352 0.88668 0.0
C24 C 0.6453 0.4169 0.86206 0.0
C25 C 0.62155 0.40248 0.84613 0.0
C26 C 0.60936 0.37511 0.85633 0.0
H27 H 0.85356 0.64243 0.43937 0.0
H28 H 0.91576 0.64081 0.36892 0.0
H29 H 0.84602 0.57225 0.37037 0.0
C30 C 0.86207 0.6314 0.41957 0.0
C31 C 0.84704 0.60575 0.40657 0.0
C32 C 0.88691 0.64404 0.40619 0.0
C33 C 0.89716 0.63038 0.37985 0.0
C34 C 0.88269 0.60432 0.36674 0.0
C35 C 0.85781 0.59189 0.38058 0.0
H36 H 0.84712 0.91887 0.85687 0.0
H37 H 0.9132 0.85533 0.86285 0.0
H38 H 0.84565 0.85522 0.92764 0.0
C39 C 0.85699 0.90113 0.86861 0.0
C40 C 0.84367 0.88958 0.89445 0.0
C41 C 0.88193 0.88884 0.85672 0.0
C42 C 0.8939 0.86495 0.87145 0.0
C43 C 0.88063 0.85244 0.8966 0.0
C44 C 0.85558 0.86481 0.90801 0.0
H45 H 0.60906 0.17132 0.36296 0.0
H46 H 0.66983 0.10249 0.36975 0.0
H47 H 0.67188 0.17583 0.43521 0.0
C48 C 0.62629 0.16099 0.37482 0.0
C49 C 0.63828 0.17563 0.40096 0.0
C50 C 0.63711 0.13431 0.36329 0.0
C51 C 0.66098 0.1229 0.37823 0.0
C52 C 0.67435 0.13821 0.40355 0.0
C53 C 0.66244 0.16432 0.41513 0.0
H54 H 0.34685 0.67834 0.10919 0.0
H55 H 0.34474 0.60973 0.17427 0.0
H56 H 0.41189 0.68124 0.18002 0.0
C57 C 0.3567 0.66824 0.1284 0.0
C58 C 0.38148 0.68231 0.14268 0.0
C59 C 0.34377 0.64196 0.13964 0.0
C60 C 0.35545 0.62967 0.16528 0.0
C61 C 0.38005 0.64364 0.18007 0.0
C62 C 0.39346 0.66969 0.16824 0.0
H63 H 0.07663 0.37382 0.64902 0.0
H64 H 0.14456 0.37385 0.58461 0.0
H65 H 0.14907 0.43961 0.65761 0.0
C66 C 0.09655 0.38418 0.64062 0.0
C67 C 0.11094 0.40873 0.65654 0.0
C68 C 0.10881 0.37135 0.61505 0.0
C69 C 0.13464 0.38427 0.60394 0.0
C70 C 0.14868 0.40943 0.61881 0.0
C71 C 0.13703 0.42138 0.64524 0.0
O72 O 0.96529 0.02731 0.5032 0.0
Mn73 Mn 0.00509 0.00789 0.50884 0.0
O74 O 0.95596 0.01888 0.45513 0.0
Mn75 Mn 0.97857 0.98658 0.45425 0.0
O76 O 0.04627 0.99035 0.5193 0.0
O77 O 0.01954 0.04704 0.53109 0.0
Mn78 Mn 0.03143 0.03583 0.56708 0.0
O79 O 0.98596 0.98816 0.54684 0.0
O80 O 0.06617 0.02299 0.55525 0.0
O81 O 0.02382 0.02633 0.46796 0.0
O82 O 0.00983 0.99265 0.43147 0.0
O83 O 0.01667 0.07234 0.57302 0.0
O84 O 0.01021 0.00757 0.58723 0.0
C85 C 0.97022 0.9479 0.47833 0.0
C86 C 0.95027 0.03156 0.47968 0.0
C87 C 0.06783 1.00044 0.53697 0.0
C88 C 0.0119 0.0717 0.54428 0.0
C89 C 0.991 0.98964 0.57531 0.0
C90 C 0.02574 0.0154 0.44045 0.0
O91 O 0.99189 0.96733 0.48626 0.0
O92 O 0.95471 0.95406 0.45506 0.0
O93 O 0.49218 0.01336 0.96318 0.0
Mn94 Mn 0.50876 0.0164 0.00735 0.0
O95 O 0.50364 0.96845 0.94554 0.0
Mn96 Mn 0.51174 0.95295 0.98213 0.0
O97 O 0.52398 0.01901 0.05274 0.0
O98 O 0.51917 0.06105 0.99845 0.0
Mn99 Mn 0.51298 0.0774 0.0344 0.0
O100 O 0.46647 0.02689 0.02193 0.0
O101 O 0.53932 0.06642 0.06202 0.0
O102 O 0.55174 0.00506 0.99342 0.0
O103 O 0.55042 0.95449 0.99106 0.0
O104 O 0.52368 0.10962 0.01425 0.0
O105 O 0.47453 0.07251 0.04406 0.0
C106 C 0.47859 0.95122 0.01565 0.0
C107 C 0.49366 0.9937 0.94177 0.0
C108 C 0.53729 0.03954 0.06962 0.0
C109 C 0.52577 0.08937 0.99284 0.0
C110 C 0.45742 0.05003 0.0365 0.0
C111 C 0.56464 0.97987 0.99129 0.0
O112 O 0.49923 0.97218 0.01478 0.0
O113 O 0.48085 0.93016 0.99524 0.0
O114 O 0.53981 0.52554 0.50419 0.0
Mn115 Mn 0.49713 0.50971 0.50987 0.0
O116 O 0.55185 0.49325 0.46812 0.0
Mn117 Mn 0.51457 0.48611 0.4516 0.0
O118 O 0.45365 0.49398 0.51721 0.0
O119 O 0.50512 0.50731 0.55437 0.0
Mn120 Mn 0.47762 0.52372 0.57489 0.0
O121 O 0.48552 0.55441 0.51359 0.0
O122 O 0.44913 0.49351 0.56787 0.0
O123 O 0.50862 0.46409 0.50623 0.0
O124 O 0.49824 0.44911 0.4589 0.0
O125 O 0.5109 0.52696 0.59852 0.0
O126 O 0.46796 0.55936 0.56009 0.0
C127 C 0.49487 0.52474 0.44011 0.0
C128 C 0.55883 0.51348 0.48813 0.0
C129 C 0.43972 0.48649 0.54112 0.0
C130 C 0.52323 0.5136 0.5764 0.0
C131 C 0.47319 0.56937 0.53437 0.0
C132 C 0.50355 0.44286 0.48591 0.0
O133 O 0.48793 0.51074 0.46455 0.0
O134 O 0.50993 0.51021 0.42076 0.0
O135 O 0.95933 0.49689 0.00607 0.0
Mn136 Mn 0.00368 0.51189 0.01306 0.0
O137 O 0.95823 0.48058 0.95901 0.0
Mn138 Mn 0.98239 0.51316 0.95341 0.0
O139 O 0.04716 0.52842 0.02224 0.0
O140 O 0.994 0.51928 0.05779 0.0
Mn141 Mn 0.02484 0.50344 0.07493 0.0
O142 O 0.01347 0.46645 0.01803 0.0
O143 O 0.05091 0.53539 0.07251 0.0
O144 O 0.99309 0.55691 0.0061 0.0
O145 O 0.96899 0.5503 0.96233 0.0
O146 O 0.99503 0.49506 0.09949 0.0
O147 O 0.0393 0.46844 0.06052 0.0
C148 C 0.02126 0.50444 0.93901 0.0
C149 C 0.94618 0.48227 0.98396 0.0
C150 C 0.06008 0.54037 0.04623 0.0
C151 C 0.97975 0.5096 0.081 0.0
C152 C 0.02998 0.45434 0.03697 0.0
C153 C 0.97735 0.56691 0.98489 0.0
O154 O 0.01688 0.50599 0.96838 0.0
O155 O 1.0014 0.51137 0.91986 0.0
H156 H 0.13491 0.16962 0.22138 0.0
H157 H 0.11583 0.15096 0.26877 0.0
H158 H 0.09522 0.06407 0.22547 0.0
H159 H 0.11496 0.08265 0.17801 0.0
H160 H 0.05029 0.08415 0.26204 0.0
H161 H 0.15127 0.07039 0.26995 0.0
H162 H 0.20358 0.08447 0.26827 0.0
H163 H 0.19494 0.15178 0.3385 0.0
H164 H 0.14243 0.13836 0.34028 0.0
H165 H 0.03753 0.99155 0.3855 0.0
H166 H 0.05397 0.01688 0.34127 0.0
H167 H 0.06763 0.09992 0.39348 0.0
H168 H 0.04952 0.0746 0.43872 0.0
H169 H 0.11405 0.08554 0.35334 0.0
H170 H 0.01148 0.09456 0.34693 0.0
H171 H 0.95939 0.0789 0.34637 0.0
H172 H 0.9713 0.01714 0.27196 0.0
H173 H 0.02354 0.03218 0.27225 0.0
C174 C 0.12624 0.14656 0.22199 0.0
C175 C 0.12645 0.12755 0.19609 0.0
C176 C 0.11542 0.13589 0.24908 0.0
C177 C 0.10419 0.10606 0.2508 0.0
C178 C 0.1038 0.08715 0.22473 0.0
C179 C 0.11517 0.0977 0.1977 0.0
C180 C 0.09338 0.09468 0.27999 0.0
C181 C 0.06428 0.08416 0.28194 0.0
C182 C 0.11143 0.09528 0.30616 0.0
C183 C 0.14288 0.10364 0.30499 0.0
C184 C 0.16047 0.08842 0.28481 0.0
C185 C 0.19017 0.09622 0.28388 0.0
C186 C 0.20257 0.11907 0.3032 0.0
C187 C 0.18529 0.13413 0.32351 0.0
C188 C 0.15556 0.12643 0.3245 0.0
C189 C 0.04405 0.01525 0.38803 0.0
C190 C 0.04184 0.03101 0.41599 0.0
C191 C 0.05331 0.02974 0.36239 0.0
C192 C 0.06136 0.06044 0.36372 0.0
C193 C 0.06104 0.07621 0.39183 0.0
C194 C 0.05104 0.06168 0.41777 0.0
C195 C 0.07087 0.07508 0.33556 0.0
C196 C 0.09987 0.08595 0.33364 0.0
C197 C 0.05276 0.07438 0.3093 0.0
C198 C 0.02154 0.06431 0.30984 0.0
C199 C 0.00309 0.07735 0.3307 0.0
C200 C 0.97349 0.06867 0.33035 0.0
C201 C 0.96205 0.04699 0.30919 0.0
C202 C 0.98019 0.03391 0.28836 0.0
C203 C 0.0098 0.04253 0.2886 0.0
H204 H 0.93913 0.04038 0.3089 0.0
H205 H 0.22558 0.12505 0.30249 0.0
H206 H 0.43245 0.93651 0.66169 0.0
H207 H 0.45231 0.9564 0.71076 0.0
H208 H 0.38664 0.90274 0.75586 0.0
H209 H 0.36652 0.88375 0.707 0.0
H210 H 0.38879 0.95736 0.77762 0.0
H211 H 0.45782 0.88549 0.75526 0.0
H212 H 0.49473 0.85985 0.7265 0.0
H213 H 0.55043 0.94052 0.73085 0.0
H214 H 0.51361 0.96685 0.75916 0.0
H215 H 0.44244 0.96694 0.92687 0.0
H216 H 0.42513 0.95335 0.87599 0.0
H217 H 0.4942 0.01022 0.84026 0.0
H218 H 0.5129 0.02207 0.89188 0.0
H219 H 0.4913 0.95702 0.81249 0.0
H220 H 0.41839 0.02701 0.83836 0.0
H221 H 0.38169 0.04644 0.87228 0.0
H222 H 0.33278 0.96147 0.86505 0.0
H223 H 0.36937 0.94143 0.83141 0.0
C224 C 0.42241 0.9292 0.68222 0.0
C225 C 0.39785 0.90914 0.68098 0.0
C226 C 0.43383 0.94025 0.71013 0.0
C227 C 0.42099 0.93096 0.73696 0.0
C228 C 0.39678 0.91035 0.73548 0.0
C229 C 0.38526 0.89959 0.70769 0.0
C230 C 0.43144 0.944 0.76661 0.0
C231 C 0.4112 0.95711 0.78526 0.0
C232 C 0.46074 0.94398 0.77646 0.0
C233 C 0.48273 0.92831 0.75896 0.0
C234 C 0.47776 0.89791 0.74975 0.0
C235 C 0.49872 0.88321 0.7336 0.0
C236 C 0.52486 0.89858 0.72675 0.0
C237 C 0.53013 0.92866 0.73609 0.0
C238 C 0.50921 0.94349 0.75217 0.0
C239 C 0.4531 0.97763 0.90817 0.0
C240 C 0.47832 0.99634 0.9131 0.0
C241 C 0.44332 0.96971 0.87904 0.0
C242 C 0.45795 0.98124 0.85418 0.0
C243 C 0.48241 1.00129 0.85912 0.0
C244 C 0.49272 0.0086 0.8885 0.0
C245 C 0.44867 0.97059 0.82328 0.0
C246 C 0.46904 0.95775 0.80449 0.0
C247 C 0.41934 0.97019 0.81347 0.0
C248 C 0.39661 0.98276 0.8324 0.0
C249 C 0.39977 0.01252 0.84397 0.0
C250 C 0.37903 0.0236 0.8632 0.0
C251 C 0.35493 0.00521 0.87082 0.0
C252 C 0.35143 0.97572 0.8591 0.0
C253 C 0.37212 0.96451 0.83989 0.0
H254 H 0.33895 0.0138 0.88581 0.0
H255 H 0.54108 0.88714 0.71429 0.0
H256 H 0.65532 0.42746 0.8028 0.0
H257 H 0.64005 0.44497 0.75415 0.0
H258 H 0.55094 0.42034 0.77379 0.0
H259 H 0.56592 0.4036 0.82338 0.0
H260 H 0.5699 0.39769 0.71794 0.0
H261 H 0.57138 0.49095 0.77493 0.0
H262 H 0.59329 0.53095 0.80936 0.0
H263 H 0.66062 0.5496 0.74624 0.0
H264 H 0.63944 0.50931 0.71164 0.0
H265 H 0.50432 0.45991 0.59254 0.0
H266 H 0.52125 0.44095 0.63903 0.0
H267 H 0.60234 0.49362 0.63182 0.0
H268 H 0.58175 0.5183 0.58862 0.0
H269 H 0.58829 0.50122 0.68309 0.0
H270 H 0.58266 0.40865 0.6232 0.0
H271 H 0.55407 0.37469 0.58784 0.0
H272 H 0.49528 0.35062 0.65777 0.0
H273 H 0.52096 0.38786 0.69252 0.0
C274 C 0.63236 0.42644 0.79725 0.0
C275 C 0.61177 0.41438 0.81717 0.0
C276 C 0.62374 0.43631 0.76931 0.0
C277 C 0.59443 0.4341 0.76059 0.0
C278 C 0.5737 0.42221 0.78029 0.0
C279 C 0.58229 0.41257 0.80848 0.0
C280 C 0.58579 0.44276 0.73015 0.0
C281 C 0.57361 0.42034 0.71016 0.0
C282 C 0.59151 0.47216 0.72021 0.0
C283 C 0.60396 0.49685 0.74078 0.0
C284 C 0.59099 0.5034 0.76847 0.0
C285 C 0.60327 0.52615 0.78802 0.0
C286 C 0.62838 0.54275 0.78003 0.0
C287 C 0.64119 0.5367 0.75242 0.0
C288 C 0.62905 0.51391 0.73282 0.0
C289 C 0.5264 0.4664 0.59994 0.0
C290 C 0.5417 0.49064 0.58703 0.0
C291 C 0.53617 0.45545 0.62692 0.0
C292 C 0.56357 0.46506 0.63917 0.0
C293 C 0.581 0.48587 0.62323 0.0
C294 C 0.56977 0.49925 0.59783 0.0
C295 C 0.57259 0.45592 0.66985 0.0
C296 C 0.58487 0.47833 0.69022 0.0
C297 C 0.56703 0.42631 0.68013 0.0
C298 C 0.55377 0.40129 0.66048 0.0
C299 C 0.56369 0.3961 0.63114 0.0
C300 C 0.5478 0.37641 0.61107 0.0
C301 C 0.52337 0.35977 0.62069 0.0
C302 C 0.51433 0.36337 0.65035 0.0
C303 C 0.52923 0.38425 0.67011 0.0
H304 H 0.51127 0.34433 0.60509 0.0
H305 H 0.63786 0.56034 0.7952 0.0
H306 H 0.93793 0.59711 0.3471 0.0
H307 H 0.95246 0.5827 0.29611 0.0
H308 H 0.86256 0.57035 0.26804 0.0
H309 H 0.8479 0.58482 0.31864 0.0
H310 H 0.89454 0.52629 0.24484 0.0
H311 H 0.90464 0.63673 0.25556 0.0
H312 H 0.92581 0.68359 0.28042 0.0
H313 H 0.01145 0.65672 0.26175 0.0
H314 H 0.99078 0.60961 0.23703 0.0
H315 H 0.92101 0.50547 0.09158 0.0
H316 H 0.89959 0.52678 0.13701 0.0
H317 H 0.98185 0.57448 0.15979 0.0
H318 H 1.00049 0.5583 0.11212 0.0
H319 H 0.95171 0.60159 0.18763 0.0
H320 H 0.94916 0.49174 0.18329 0.0
H321 H 0.9339 0.44044 0.16423 0.0
H322 H 0.84467 0.45855 0.17675 0.0
H323 H 0.85942 0.50996 0.19566 0.0
C324 C 0.92127 0.5912 0.33007 0.0
C325 C 0.89175 0.59229 0.33694 0.0
C326 C 0.92961 0.58299 0.30096 0.0
C327 C 0.90857 0.57599 0.27813 0.0
C328 C 0.87915 0.57575 0.28527 0.0
C329 C 0.8708 0.58388 0.31432 0.0
C330 C 0.91689 0.56993 0.24649 0.0
C331 C 0.90703 0.54267 0.23213 0.0
C332 C 0.9339 0.59095 0.23032 0.0
C333 C 0.94615 0.61964 0.24455 0.0
C334 C 0.92797 0.64082 0.25681 0.0
C335 C 0.93989 0.66741 0.27089 0.0
C336 C 0.96995 0.67312 0.27269 0.0
C337 C 0.98817 0.65229 0.26033 0.0
C338 C 0.97636 0.62568 0.24624 0.0
C339 C 0.93358 0.5222 0.10541 0.0
C340 C 0.96228 0.53045 0.09819 0.0
C341 C 0.92183 0.53346 0.13217 0.0
C342 C 0.93947 0.55084 0.15343 0.0
C343 C 0.96729 0.56113 0.14454 0.0
C344 C 0.97805 0.55198 0.11684 0.0
C345 C 0.93033 0.55698 0.18531 0.0
C346 C 0.93972 0.58457 0.19993 0.0
C347 C 0.91415 0.5355 0.20224 0.0
C348 C 0.90537 0.50476 0.19047 0.0
C349 C 0.9263 0.48479 0.18179 0.0
C350 C 0.91773 0.4557 0.17105 0.0
C351 C 0.88833 0.44628 0.16917 0.0
C352 C 0.86743 0.46589 0.17812 0.0
C353 C 0.87587 0.49498 0.18885 0.0
H354 H 0.88175 0.42376 0.16086 0.0
H355 H 0.97913 0.69368 0.28364 0.0
H356 H 0.22894 0.16948 0.12338 0.0
H357 H 0.27399 0.14954 0.10597 0.0
H358 H 0.22987 0.06214 0.09056 0.0
H359 H 0.18517 0.08184 0.11007 0.0
H360 H 0.27972 0.05342 0.11153 0.0
H361 H 0.25119 0.11572 0.03038 0.0
H362 H 0.23661 0.16246 0.00803 0.0
H363 H 0.31526 0.20895 0.04196 0.0
H364 H 0.3302 0.16257 0.06466 0.0
H365 H 0.40843 0.00983 0.02653 0.0
H366 H 0.35774 0.01876 0.0398 0.0
H367 H 0.38596 0.10572 0.07861 0.0
H368 H 0.43523 0.09734 0.06615 0.0
H369 H 0.34076 0.10934 0.03931 0.0
H370 H 0.36817 0.05058 0.12281 0.0
H371 H 0.38348 0.00596 0.14846 0.0
H372 H 0.30821 0.95456 0.11273 0.0
H373 H 0.29269 0.99882 0.08645 0.0
C374 C 0.22884 0.14605 0.11609 0.0
C375 C 0.20343 0.12732 0.11779 0.0
C376 C 0.25463 0.13462 0.10585 0.0
C377 C 0.2555 0.10435 0.09589 0.0
C378 C 0.23003 0.08557 0.09782 0.0
C379 C 0.20439 0.09685 0.10887 0.0
C380 C 0.28301 0.0923 0.0841 0.0
C381 C 0.29268 0.06538 0.0952 0.0
C382 C 0.30059 0.10791 0.06319 0.0
C383 C 0.29173 0.13571 0.04929 0.0
C384 C 0.26531 0.13594 0.03313 0.0
C385 C 0.257 0.16237 0.02039 0.0
C386 C 0.27498 0.18866 0.02359 0.0
C387 C 0.30136 0.18857 0.03947 0.0
C388 C 0.30979 0.16221 0.0522 0.0
C389 C 0.40376 0.03072 0.03803 0.0
C390 C 0.42629 0.05282 0.0449 0.0
C391 C 0.37479 0.03581 0.04567 0.0
C392 C 0.3679 0.06312 0.06007 0.0
C393 C 0.39044 0.08463 0.06731 0.0
C394 C 0.41893 0.0796 0.06005 0.0
C395 C 0.33754 0.07079 0.06701 0.0
C396 C 0.32739 0.097 0.05505 0.0
C397 C 0.31975 0.05467 0.08725 0.0
C398 C 0.32957 0.02784 0.10218 0.0
C399 C 0.35513 0.02964 0.12001 0.0
C400 C 0.36378 0.00445 0.13477 0.0
C401 C 0.34691 0.97739 0.1321 0.0
C402 C 0.32133 0.97549 0.11467 0.0
C403 C 0.31261 1.00061 0.09982 0.0
H404 H 0.3536 0.95794 0.14363 0.0
H405 H 0.26849 0.2091 0.01374 0.0
H406 H 0.3062 0.92939 0.6454 0.0
H407 H 0.2604 0.94491 0.62711 0.0
H408 H 0.26812 0.89107 0.54544 0.0
H409 H 0.31647 0.87968 0.56088 0.0
H410 H 0.24334 0.9364 0.53137 0.0
H411 H 0.22469 0.86867 0.6137 0.0
H412 H 0.23249 0.85324 0.6659 0.0
H413 H 0.20316 0.93714 0.69981 0.0
H414 H 0.19535 0.95312 0.64785 0.0
H415 H 0.08935 0.95444 0.50077 0.0
H416 H 0.13493 0.92941 0.50974 0.0
H417 H 0.15236 0.98583 0.58969 0.0
H418 H 0.10837 0.01009 0.5815 0.0
H419 H 0.16121 0.92987 0.60143 0.0
H420 H 0.18504 1.0004 0.52381 0.0
H421 H 0.18148 0.02147 0.47341 0.0
H422 H 0.20347 0.93741 0.43267 0.0
H423 H 0.20672 0.91571 0.48287 0.0
C424 C 0.29906 0.92137 0.6231 0.0
C425 C 0.31571 0.90255 0.60512 0.0
C426 C 0.27206 0.92972 0.61298 0.0
C427 C 0.25992 0.91799 0.5855 0.0
C428 C 0.27661 0.89999 0.56706 0.0
C429 C 0.3043 0.89291 0.57641 0.0
C430 C 0.22998 0.92455 0.57588 0.0
C431 C 0.22528 0.93427 0.54653 0.0
C432 C 0.20632 0.9224 0.5957 0.0
C433 C 0.20943 0.91204 0.6269 0.0
C434 C 0.21978 0.88374 0.63231 0.0
C435 C 0.22427 0.87494 0.66185 0.0
C436 C 0.21832 0.8942 0.68615 0.0
C437 C 0.20769 0.92222 0.68098 0.0
C438 C 0.20313 0.93111 0.65149 0.0
C439 C 0.10301 0.96138 0.52016 0.0
C440 C 0.09506 0.98452 0.54011 0.0
C441 C 0.12897 0.94712 0.52529 0.0
C442 C 0.14698 0.95571 0.55053 0.0
C443 C 0.13884 0.97857 0.57025 0.0
C444 C 0.11348 0.9927 0.56518 0.0
C445 C 0.17478 0.94203 0.55712 0.0
C446 C 0.17913 0.93102 0.58599 0.0
C447 C 0.19814 0.94342 0.53707 0.0
C448 C 0.19562 0.9563 0.50698 0.0
C449 C 0.18875 0.98631 0.50407 0.0
C450 C 0.18687 0.99839 0.47556 0.0
C451 C 0.19211 0.98075 0.44984 0.0
C452 C 0.1993 0.95101 0.4526 0.0
C453 C 0.20113 0.9388 0.48105 0.0
H454 H 0.19072 0.99016 0.42779 0.0
H455 H 0.22196 0.88741 0.70899 0.0
H456 H 0.67285 0.41007 0.9464 0.0
H457 H 0.72066 0.42563 0.96823 0.0
H458 H 0.75305 0.44109 0.87928 0.0
H459 H 0.70557 0.42487 0.85729 0.0
H460 H 0.78823 0.40791 0.91072 0.0
H461 H 0.74281 0.49901 0.92477 0.0
H462 H 0.70461 0.53219 0.94011 0.0
H463 H 0.71815 0.51078 0.0326 0.0
H464 H 0.75613 0.47701 0.01772 0.0
H465 H 0.91257 0.49791 0.93833 0.0
H466 H 0.8615 0.48527 0.92939 0.0
H467 H 0.8557 0.44564 0.01636 0.0
H468 H 0.90821 0.45806 0.02559 0.0
H469 H 0.80706 0.48788 0.9905 0.0
H470 H 0.85979 0.39835 0.9693 0.0
H471 H 0.90028 0.37246 0.94698 0.0
H472 H 0.87501 0.39963 0.85905 0.0
H473 H 0.83475 0.42626 0.88091 0.0
C474 C 0.69015 0.41701 0.93158 0.0
C475 C 0.68556 0.41632 0.90022 0.0
C476 C 0.71733 0.42601 0.94404 0.0
C477 C 0.74026 0.43449 0.92532 0.0
C478 C 0.73556 0.43455 0.89405 0.0
C479 C 0.70839 0.4256 0.88158 0.0
C480 C 0.76949 0.44202 0.93833 0.0
C481 C 0.79233 0.42538 0.92817 0.0
C482 C 0.77472 0.46481 0.96104 0.0
C483 C 0.75203 0.48518 0.97011 0.0
C484 C 0.73744 0.50114 0.94836 0.0
C485 C 0.71587 0.52009 0.95696 0.0
C486 C 0.70888 0.5235 0.9873 0.0
C487 C 0.72353 0.50805 0.0091 0.0
C488 C 0.74509 0.489 1.0006 0.0
C489 C 0.90057 0.48658 0.95578 0.0
C490 C 0.91445 0.47805 0.98235 0.0
C491 C 0.87134 0.47961 0.95063 0.0
C492 C 0.85523 0.46411 0.97195 0.0
C493 C 0.8682 0.45744 0.99962 0.0
C494 C 0.89796 0.46445 0.00487 0.0
C495 C 0.82548 0.45331 0.96338 0.0
C496 C 0.80263 0.46973 0.97384 0.0
C497 C 0.82041 0.43103 0.9401 0.0
C498 C 0.84434 0.41448 0.92683 0.0
C499 C 0.863 0.39903 0.94524 0.0
C500 C 0.88591 0.3842 0.93266 0.0
C501 C 0.89024 0.38444 0.90162 0.0
C502 C 0.87164 0.39947 0.88309 0.0
C503 C 0.84876 0.41442 0.89557 0.0
H504 H 0.90799 0.37293 0.89193 0.0
H505 H 0.69216 0.53819 0.99393 0.0
H506 H 0.8021 0.64026 0.41827 0.0
H507 H 0.75428 0.62462 0.43638 0.0
H508 H 0.77904 0.53309 0.43896 0.0
H509 H 0.827 0.5487 0.4199 0.0
H510 H 0.72616 0.53532 0.41505 0.0
H511 H 0.77425 0.57812 0.50532 0.0
H512 H 0.80312 0.61768 0.53473 0.0
H513 H 0.73783 0.67992 0.51861 0.0
H514 H 0.70865 0.64076 0.48893 0.0
H515 H 0.60527 0.47978 0.49039 0.0
H516 H 0.65577 0.49631 0.48207 0.0
H517 H 0.6318 0.58806 0.47896 0.0
H518 H 0.58122 0.57155 0.48865 0.0
H519 H 0.68476 0.58593 0.50427 0.0
H520 H 0.63743 0.54512 0.41348 0.0
H521 H 0.60881 0.50742 0.3815 0.0
H522 H 0.67273 0.44333 0.39603 0.0
H523 H 0.7016 0.48058 0.42834 0.0
C524 C 0.79746 0.61685 0.42304 0.0
C525 C 0.81836 0.59574 0.41816 0.0
C526 C 0.77014 0.60794 0.43343 0.0
C527 C 0.76325 0.5778 0.43973 0.0
C528 C 0.78396 0.55652 0.43447 0.0
C529 C 0.8113 0.56541 0.42364 0.0
C530 C 0.73414 0.56856 0.45104 0.0
C531 C 0.71734 0.54597 0.4349 0.0
C532 C 0.72222 0.5832 0.47633 0.0
C533 C 0.73931 0.60653 0.49487 0.0
C534 C 0.76607 0.60025 0.50803 0.0
C535 C 0.78249 0.6226 0.52474 0.0
C536 C 0.77232 0.6513 0.52852 0.0
C537 C 0.74565 0.65767 0.5157 0.0
C538 C 0.72913 0.63538 0.49901 0.0
C539 C 0.61099 0.50357 0.48881 0.0
C540 C 0.58952 0.52443 0.49018 0.0
C541 C 0.63975 0.51297 0.48377 0.0
C542 C 0.64745 0.54332 0.47903 0.0
C543 C 0.62634 0.56451 0.48239 0.0
C544 C 0.59752 0.55512 0.48808 0.0
C545 C 0.67694 0.55236 0.4685 0.0
C546 C 0.6937 0.57505 0.48461 0.0
C547 C 0.68881 0.53799 0.443 0.0
C548 C 0.67154 0.51555 0.42352 0.0
C549 C 0.64528 0.52293 0.41 0.0
C550 C 0.62904 0.50165 0.39179 0.0
C551 C 0.63892 0.47298 0.38679 0.0
C552 C 0.6651 0.46554 0.39994 0.0
C553 C 0.68143 0.48674 0.41816 0.0
H554 H 0.62631 0.45654 0.37268 0.0
H555 H 0.78509 0.66859 0.54141 0.0
H556 H 0.16893 0.22858 0.10964 0.0
H557 H 0.14816 0.27323 0.08989 0.0
H558 H 0.06209 0.23244 0.09999 0.0
H559 H 0.08276 0.18749 0.11922 0.0
H560 H 0.06542 0.26111 0.04759 0.0
H561 H 0.08955 0.28564 0.15063 0.0
H562 H 0.12061 0.29086 0.19649 0.0
H563 H 0.17879 0.35343 0.15303 0.0
H564 H 0.14829 0.34824 0.10671 0.0
H565 H 0.99548 0.4021 0.03772 0.0
H566 H 0.01207 0.3526 0.0501 0.0
H567 H 0.10089 0.38736 0.04483 0.0
H568 H 0.08431 0.43658 0.03301 0.0
H569 H 0.09334 0.36066 0.09623 0.0
H570 H 0.06855 0.33465 0.99231 0.0
H571 H 0.03584 0.32997 0.94768 0.0
H572 H 0.97708 0.27058 0.99435 0.0
H573 H 0.00928 0.27527 0.03946 0.0
C574 C 0.14559 0.22893 0.10735 0.0
C575 C 0.12757 0.2044 0.11622 0.0
C576 C 0.13369 0.25463 0.09627 0.0
C577 C 0.10346 0.25651 0.09374 0.0
C578 C 0.08544 0.23172 0.10178 0.0
C579 C 0.09732 0.20607 0.11302 0.0
C580 C 0.09073 0.28453 0.08331 0.0
C581 C 0.07129 0.28283 0.05846 0.0
C582 C 0.09839 0.31304 0.09725 0.0
C583 C 0.11678 0.31632 0.12509 0.0
C584 C 0.10909 0.30033 0.15076 0.0
C585 C 0.12658 0.30331 0.17685 0.0
C586 C 0.1517 0.32241 0.17765 0.0
C587 C 0.15935 0.33861 0.15236 0.0
C588 C 0.14196 0.33568 0.12619 0.0
C589 C 0.01848 0.39869 0.03782 0.0
C590 C 0.03861 0.423 0.03355 0.0
C591 C 0.02802 0.37047 0.04529 0.0
C592 C 0.05787 0.36606 0.04855 0.0
C593 C 0.07782 0.39001 0.04263 0.0
C594 C 0.06832 0.41806 0.03534 0.0
C595 C 0.06859 0.33742 0.05997 0.0
C596 C 0.08752 0.33898 0.08525 0.0
C597 C 0.0603 0.30883 0.04655 0.0
C598 C 0.04118 0.30554 0.01933 0.0
C599 C 0.04856 0.32074 0.99312 0.0
C600 C 0.03013 0.31808 0.96773 0.0
C601 C 0.00436 0.30005 0.9682 0.0
C602 C 0.99703 0.28457 0.99404 0.0
C603 C 0.01537 0.2872 0.01951 0.0
H604 H 0.99009 0.29804 0.94853 0.0
H605 H 0.1652 0.3247 0.19788 0.0
H606 H 0.56711 0.34264 0.89741 0.0
H607 H 0.55078 0.29192 0.91231 0.0
H608 H 0.63686 0.26237 0.89872 0.0
H609 H 0.65321 0.31292 0.88422 0.0
H610 H 0.59396 0.22406 0.87153 0.0
H611 H 0.61672 0.27283 0.96677 0.0
H612 H 0.61545 0.31228 0.00689 0.0
H613 H 0.52404 0.29262 0.01605 0.0
H614 H 0.52463 0.25338 0.97554 0.0
H615 H 0.57895 0.09326 0.96854 0.0
H616 H 0.59547 0.13848 0.94248 0.0
H617 H 0.50683 0.16088 0.9299 0.0
H618 H 0.49031 0.11523 0.95483 0.0
H619 H 0.55169 0.20243 0.97084 0.0
H620 H 0.53021 0.15513 0.87238 0.0
H621 H 0.53385 0.11444 0.83389 0.0
H622 H 0.62633 0.13111 0.83355 0.0
H623 H 0.62323 0.17158 0.87249 0.0
C624 C 0.5824 0.32521 0.89764 0.0
C625 C 0.61134 0.33145 0.88982 0.0
C626 C 0.57317 0.29642 0.90626 0.0
C627 C 0.5927 0.27353 0.9067 0.0
C628 C 0.62152 0.27976 0.89854 0.0
C629 C 0.63082 0.30856 0.89038 0.0
C630 C 0.58297 0.24282 0.91492 0.0
C631 C 0.58494 0.21933 0.89335 0.0
C632 C 0.57112 0.23676 0.94335 0.0
C633 C 0.57065 0.26036 0.9678 0.0
C634 C 0.59627 0.27711 0.97708 0.0
C635 C 0.59569 0.29941 0.99995 0.0
C636 C 0.56966 0.30502 0.01395 0.0
C637 C 0.54418 0.28829 0.00514 0.0
C638 C 0.54462 0.266 0.98222 0.0
C639 C 0.56297 0.10659 0.95812 0.0
C640 C 0.53337 0.10065 0.9634 0.0
C641 C 0.57243 0.13282 0.94395 0.0
C642 C 0.55232 0.15323 0.93504 0.0
C643 C 0.52263 0.14544 0.9369 0.0
C644 C 0.51321 0.11896 0.95044 0.0
C645 C 0.56224 0.18399 0.92719 0.0
C646 C 0.56054 0.20737 0.94899 0.0
C647 C 0.57462 0.19 0.89917 0.0
C648 C 0.57653 0.16608 0.87553 0.0
C649 C 0.55134 0.1499 0.8643 0.0
C650 C 0.55329 0.12693 0.84237 0.0
C651 C 0.58032 0.12013 0.83134 0.0
C652 C 0.60543 0.13636 0.84215 0.0
C653 C 0.60358 0.15933 0.86414 0.0
H654 H 0.58179 0.10232 0.81436 0.0
H655 H 0.56926 0.32227 0.03167 0.0
H656 H 0.89878 0.69437 0.37493 0.0
H657 H 0.91766 0.74366 0.39465 0.0
H658 H 0.92348 0.70917 0.48393 0.0
H659 H 0.90361 0.65986 0.4643 0.0
H660 H 0.90092 0.76453 0.48428 0.0
H661 H 0.9862 0.72052 0.43925 0.0
H662 H 0.00973 0.69631 0.3961 0.0
H663 H 0.99139 0.77035 0.34119 0.0
H664 H 0.96775 0.79492 0.38398 0.0
H665 H 0.96384 0.91121 0.52761 0.0
H666 H 0.95704 0.85587 0.52444 0.0
H667 H 0.97072 0.85773 0.4284 0.0
H668 H 0.98153 0.91087 0.43258 0.0
H669 H 0.98916 0.81278 0.44084 0.0
H670 H 0.89818 0.85401 0.47332 0.0
H671 H 0.86615 0.87943 0.50855 0.0
H672 H 0.88395 0.81616 0.57604 0.0
H673 H 0.91631 0.79062 0.5413 0.0
C674 C 0.90444 0.69722 0.39869 0.0
C675 C 0.90016 0.67326 0.41805 0.0
C676 C 0.91519 0.72539 0.40997 0.0
C677 C 0.92254 0.72998 0.4407 0.0
C678 C 0.91808 0.7061 0.46013 0.0
C679 C 0.90689 0.67797 0.44891 0.0
C680 C 0.93492 0.75973 0.45241 0.0
C681 C 0.92037 0.77515 0.47503 0.0
C682 C 0.95989 0.77376 0.43995 0.0
C683 C 0.97532 0.75953 0.4148 0.0
C684 C 0.98731 0.73164 0.41799 0.0
C685 C 1.00062 0.71786 0.39359 0.0
C686 C 1.00206 0.73179 0.36593 0.0
C687 C 0.99035 0.75962 0.36264 0.0
C688 C 0.97711 0.77353 0.38698 0.0
C689 C 0.96666 0.89933 0.50629 0.0
C690 C 0.97318 0.91528 0.48036 0.0
C691 C 0.96203 0.86777 0.50422 0.0
C692 C 0.96247 0.85214 0.47595 0.0
C693 C 0.97042 0.86845 0.45065 0.0
C694 C 0.97651 0.8992 0.45302 0.0
C695 C 0.95393 0.8193 0.47127 0.0
C696 C 0.96961 0.80267 0.45031 0.0
C697 C 0.92896 0.805 0.48399 0.0
C698 C 0.91002 0.82078 0.50495 0.0
C699 C 0.89545 0.84573 0.49577 0.0
C700 C 0.87721 0.86011 0.51563 0.0
C701 C 0.87313 0.84951 0.54456 0.0
C702 C 0.88722 0.82445 0.55368 0.0
C703 C 0.90553 0.81004 0.53394 0.0
H704 H 0.85898 0.86064 0.55988 0.0
H705 H 0.01224 0.72101 0.34703 0.0
H706 H 0.42575 0.84934 0.57694 0.0
H707 H 0.44481 0.80199 0.55855 0.0
H708 H 0.38049 0.75233 0.60928 0.0
H709 H 0.36138 0.79966 0.6274 0.0
H710 H 0.43458 0.73294 0.61766 0.0
H711 H 0.3719 0.75493 0.53639 0.0
H712 H 0.35122 0.7835 0.49563 0.0
H713 H 0.43279 0.78617 0.45085 0.0
H714 H 0.45414 0.7581 0.4917 0.0
H715 H 0.42213 0.58941 0.54944 0.0
H716 H 0.41259 0.64137 0.56164 0.0
H717 H 0.49455 0.67074 0.52442 0.0
H718 H 0.50494 0.61793 0.51318 0.0
H719 H 0.439 0.70271 0.50932 0.0
H720 H 0.49817 0.67295 0.59229 0.0
H721 H 0.51379 0.64222 0.63394 0.0
H722 H 0.43165 0.65027 0.67599 0.0
H723 H 0.41534 0.68063 0.63438 0.0
C724 C 0.41571 0.82819 0.58385 0.0
C725 C 0.39218 0.82769 0.60327 0.0
C726 C 0.42649 0.80132 0.57339 0.0
C727 C 0.41393 0.7738 0.58251 0.0
C728 C 0.39041 0.77341 0.60203 0.0
C729 C 0.37946 0.80025 0.61222 0.0
C730 C 0.42565 0.74533 0.57221 0.0
C731 C 0.43544 0.7262 0.59399 0.0
C732 C 0.42721 0.73701 0.5413 0.0
C733 C 0.41477 0.7549 0.51737 0.0
C734 C 0.38558 0.76205 0.51812 0.0
C735 C 0.37369 0.77805 0.49494 0.0
C736 C 0.39072 0.78677 0.47073 0.0
C737 C 0.41966 0.77952 0.46968 0.0
C738 C 0.43168 0.7636 0.49285 0.0
C739 C 0.43778 0.60699 0.543 0.0
C740 C 0.46424 0.59985 0.53033 0.0
C741 C 0.43249 0.63653 0.55042 0.0
C742 C 0.45328 0.65952 0.5447 0.0
C743 C 0.47858 0.65294 0.5294 0.0
C744 C 0.48422 0.62301 0.52243 0.0
C745 C 0.44776 0.6903 0.55473 0.0
C746 C 0.43883 0.70979 0.53295 0.0
C747 C 0.44623 0.69854 0.58572 0.0
C748 C 0.45542 0.67882 0.60994 0.0
C749 C 0.48324 0.66776 0.61012 0.0
C750 C 0.49227 0.65052 0.63383 0.0
C751 C 0.4737 0.64423 0.65755 0.0
C752 C 0.44601 0.6551 0.65758 0.0
C753 C 0.43687 0.67233 0.63393 0.0
H754 H 0.48079 0.63102 0.67595 0.0
H755 H 0.38144 0.79905 0.45273 0.0
H756 H 0.8875 0.9467 0.83675 0.0
H757 H 0.90544 0.96321 0.78816 0.0
H758 H 0.92281 0.87203 0.76291 0.0
H759 H 0.90438 0.85523 0.81085 0.0
H760 H 0.96701 0.91165 0.74742 0.0
H761 H 0.8614 0.90392 0.73728 0.0
H762 H 0.81178 0.91651 0.75013 0.0
H763 H 0.83416 0.00971 0.73636 0.0
H764 H 0.88399 0.99768 0.72376 0.0
H765 H 0.98939 0.9306 0.59095 0.0
H766 H 0.97048 0.91166 0.63859 0.0
H767 H 0.93617 0.99784 0.65851 0.0
H768 H 0.95335 0.01568 0.61063 0.0
H769 H 0.90109 0.96053 0.67777 0.0
H770 H 0.00451 0.97288 0.68854 0.0
H771 H 0.05593 0.96527 0.67869 0.0
H772 H 0.04172 0.8713 0.69463 0.0
H773 H 0.99014 0.87828 0.70424 0.0
C774 C 0.89499 0.93011 0.82082 0.0
C775 C 0.89436 0.89956 0.82788 0.0
C776 C 0.90535 0.93962 0.79306 0.0
C777 C 0.91523 0.91881 0.77173 0.0
C778 C 0.91538 0.88852 0.77901 0.0
C779 C 0.90493 0.87898 0.80662 0.0
C780 C 0.92462 0.92816 0.74141 0.0
C781 C 0.95256 0.9221 0.73199 0.0
C782 C 0.90617 0.94272 0.72167 0.0
C783 C 0.87643 0.94993 0.7299 0.0
C784 C 0.85579 0.92712 0.73729 0.0
C785 C 0.82762 0.93415 0.74446 0.0
C786 C 0.81985 0.9639 0.74413 0.0
C787 C 0.84022 0.98669 0.73665 0.0
C788 C 0.86841 0.97978 0.72949 0.0
C789 C 0.9765 0.94479 0.60492 0.0
C790 C 0.97199 0.97426 0.59679 0.0
C791 C 0.96639 0.93432 0.63253 0.0
C792 C 0.9524 0.9535 0.6527 0.0
C793 C 0.94673 0.9824 0.64358 0.0
C794 C 0.95624 0.99254 0.61596 0.0
C795 C 0.94372 0.94417 0.6834 0.0
C796 C 0.91581 0.9502 0.693 0.0
C797 C 0.9626 0.93045 0.70357 0.0
C798 C 0.99335 0.92603 0.69666 0.0
C799 C 0.01226 0.95053 0.68956 0.0
C800 C 0.04146 0.94635 0.68413 0.0
C801 C 0.05206 0.9178 0.68591 0.0
C802 C 0.03347 0.89338 0.69315 0.0
C803 C 0.00426 0.89744 0.69859 0.0
H804 H 0.07468 0.91462 0.68178 0.0
H805 H 0.79801 0.96928 0.74961 0.0
H806 H 0.6639 0.09922 0.32076 0.0
H807 H 0.64339 0.07632 0.27459 0.0
H808 H 0.56248 0.11658 0.29164 0.0
H809 H 0.58099 0.1351 0.34058 0.0
H810 H 0.54923 0.06877 0.26614 0.0
H811 H 0.61935 0.14583 0.24122 0.0
H812 H 0.66708 0.17383 0.24304 0.0
H813 H 0.70645 0.09671 0.20542 0.0
H814 H 0.65903 0.06811 0.20373 0.0
H815 H 0.50413 0.06138 0.11205 0.0
H816 H 0.51877 0.07353 0.16396 0.0
H817 H 0.59473 0.02288 0.15248 0.0
H818 H 0.58106 0.01296 0.09905 0.0
H819 H 0.60922 0.07624 0.17507 0.0
H820 H 0.53022 0.00235 0.19911 0.0
H821 H 0.47904 0.98311 0.19498 0.0
H822 H 0.45202 0.06715 0.2311 0.0
H823 H 0.50295 0.087 0.23511 0.0
C824 C 0.64141 0.1025 0.31557 0.0
C825 C 0.62442 0.11955 0.33487 0.0
C826 C 0.6299 0.08995 0.28843 0.0
C827 C 0.60173 0.09567 0.27884 0.0
C828 C 0.58443 0.11207 0.29821 0.0
C829 C 0.5954 0.12328 0.32612 0.0
C830 C 0.5904 0.0846 0.24867 0.0
C831 C 0.56233 0.07069 0.24622 0.0
C832 C 0.60723 0.08725 0.22245 0.0
C833 C 0.63564 0.10475 0.22253 0.0
C834 C 0.63819 0.13482 0.23339 0.0
C835 C 0.6652 0.15079 0.23443 0.0
C836 C 0.68978 0.13703 0.22441 0.0
C837 C 0.68739 0.10733 0.21318 0.0
C838 C 0.66044 0.09124 0.21213 0.0
C839 C 0.52335 0.05178 0.121 0.0
C840 C 0.54126 0.03575 0.10193 0.0
C841 C 0.53172 0.05874 0.15076 0.0
C842 C 0.5576 0.04867 0.16248 0.0
C843 C 0.57454 0.03072 0.14395 0.0
C844 C 0.56656 0.02455 0.11366 0.0
C845 C 0.56847 0.05964 0.1928 0.0
C846 C 0.59635 0.07401 0.19513 0.0
C847 C 0.55091 0.05871 0.21859 0.0
C848 C 0.52042 0.04613 0.21738 0.0
C849 C 0.51336 0.01669 0.2062 0.0
C850 C 0.48439 0.00571 0.20383 0.0
C851 C 0.4623 0.0239 0.21276 0.0
C852 C 0.46914 0.05307 0.22423 0.0
C853 C 0.49805 0.06416 0.22662 0.0
H854 H 0.43989 0.01538 0.21081 0.0
H855 H 0.71068 0.1494 0.2253 0.0
H856 H 0.43544 0.63471 0.19916 0.0
H857 H 0.45076 0.61631 0.24798 0.0
H858 H 0.36167 0.60924 0.27551 0.0
H859 H 0.34636 0.62809 0.2272 0.0
H860 H 0.39657 0.63577 0.31913 0.0
H861 H 0.39417 0.54733 0.25568 0.0
H862 H 0.40505 0.51666 0.21054 0.0
H863 H 0.49597 0.5272 0.23285 0.0
H864 H 0.48569 0.55838 0.2779 0.0
H865 H 0.43597 0.52844 0.43757 0.0
H866 H 0.41088 0.55287 0.3966 0.0
H867 H 0.49223 0.5955 0.37039 0.0
H868 H 0.51703 0.57206 0.41148 0.0
H869 H 0.45627 0.54771 0.32724 0.0
H870 H 0.45733 0.64059 0.38812 0.0
H871 H 0.44524 0.67133 0.43279 0.0
H872 H 0.3545 0.6508 0.41443 0.0
H873 H 0.36614 0.61928 0.37003 0.0
C874 C 0.41922 0.62929 0.2157 0.0
C875 C 0.38974 0.63254 0.20934 0.0
C876 C 0.42792 0.6186 0.24343 0.0
C877 C 0.40726 0.61112 0.26518 0.0
C878 C 0.3779 0.61475 0.25898 0.0
C879 C 0.3692 0.62529 0.2313 0.0
C880 C 0.41632 0.60006 0.29467 0.0
C881 C 0.40926 0.61624 0.32092 0.0
C882 C 0.4329 0.57462 0.29692 0.0
C883 C 0.43917 0.55544 0.27008 0.0
C884 C 0.41651 0.5433 0.25087 0.0
C885 C 0.42257 0.52579 0.2253 0.0
C886 C 0.45119 0.52004 0.21879 0.0
C887 C 0.47381 0.5317 0.23791 0.0
C888 C 0.46787 0.54927 0.26349 0.0
C889 C 0.44808 0.54455 0.42427 0.0
C890 C 0.47835 0.5486 0.42768 0.0
C891 C 0.43387 0.55803 0.40058 0.0
C892 C 0.44992 0.57551 0.38035 0.0
C893 C 0.47959 0.58199 0.38577 0.0
C894 C 0.49362 0.56897 0.40951 0.0
C895 C 0.43703 0.58387 0.35145 0.0
C896 C 0.4433 0.56702 0.32534 0.0
C897 C 0.41958 0.60852 0.34931 0.0
C898 C 0.41262 0.62714 0.37613 0.0
C899 C 0.43482 0.6422 0.39391 0.0
C900 C 0.42805 0.65986 0.41911 0.0
C901 C 0.39912 0.66291 0.42653 0.0
C902 C 0.37691 0.64832 0.40873 0.0
C903 C 0.38358 0.63052 0.38358 0.0
H904 H 0.39392 0.67668 0.446 0.0
H905 H 0.45584 0.5065 0.19897 0.0
H906 H 0.08642 0.37402 0.70006 0.0
H907 H 0.07248 0.38973 0.7504 0.0
H908 H 0.09952 0.48143 0.73272 0.0
H909 H 0.11251 0.46616 0.6815 0.0
H910 H 0.1236 0.46083 0.78541 0.0
H911 H 0.03013 0.46327 0.73783 0.0
H912 H 0.98861 0.44298 0.70617 0.0
H913 H 0.97303 0.37156 0.76709 0.0
H914 H 0.01479 0.39116 0.79893 0.0
H915 H 0.06522 0.53384 0.91201 0.0
H916 H 0.08264 0.51457 0.86422 0.0
H917 H 0.04696 0.4259 0.88342 0.0
H918 H 0.02891 0.44561 0.93119 0.0
H919 H 0.02663 0.44341 0.82989 0.0
H920 H 0.12035 0.44015 0.87681 0.0
H921 H 0.16076 0.46142 0.90949 0.0
H922 H 0.1751 0.53406 0.84968 0.0
H923 H 0.13449 0.5134 0.81683 0.0
C924 C 0.08866 0.3977 0.70636 0.0
C925 C 0.1005 0.41885 0.68649 0.0
C926 C 0.08083 0.40658 0.73532 0.0
C927 C 0.08489 0.43671 0.74518 0.0
C928 C 0.09627 0.45802 0.72544 0.0
C929 C 0.10381 0.44922 0.69626 0.0
C930 C 0.07902 0.44548 0.77678 0.0
C931 C 0.10232 0.45739 0.79505 0.0
C932 C 0.05141 0.44008 0.78942 0.0
C933 C 0.02582 0.42856 0.77067 0.0
C934 C 0.018 0.44312 0.7444 0.0
C935 C 0.99439 0.43175 0.72642 0.0
C936 C 0.97824 0.40595 0.73457 0.0
C937 C 0.98559 0.39154 0.7608 0.0
C938 C 0.00921 0.40279 0.77885 0.0
C939 C 0.06296 0.50985 0.90705 0.0
C940 C 0.04612 0.49114 0.92543 0.0
C941 C 0.07235 0.4989 0.87935 0.0
C942 C 0.0658 0.46881 0.87003 0.0
C943 C 0.05205 0.44924 0.89006 0.0
C944 C 0.04257 0.46031 0.91779 0.0
C945 C 0.07131 0.45873 0.83856 0.0
C946 C 0.04795 0.44663 0.82029 0.0
C947 C 0.09886 0.46377 0.82581 0.0
C948 C 0.12439 0.47526 0.84442 0.0
C949 C 0.13218 0.46063 0.87061 0.0
C950 C 0.15506 0.47261 0.88919 0.0
C951 C 0.17048 0.49909 0.88168 0.0
C952 C 0.16316 0.51353 0.85545 0.0
C953 C 0.14026 0.50165 0.83679 0.0
H954 H 0.1881 0.50842 0.89618 0.0
H955 H 0.96 0.39716 0.7206 0.0
H956 H 0.82974 0.94888 0.89666 0.0
H957 H 0.78463 0.96959 0.91278 0.0
H958 H 0.7517 0.88132 0.93661 0.0
H959 H 0.79597 0.86021 0.91893 0.0
H960 H 0.71182 0.90595 0.90763 0.0
H961 H 0.77571 0.94074 0.98984 0.0
H962 H 0.81881 0.9672 0.01428 0.0
H963 H 0.79421 0.05044 0.97898 0.0
H964 H 0.75113 0.02438 0.95398 0.0
H965 H 0.59752 0.93312 1.00195 0.0
H966 H 0.64533 0.92397 0.98375 0.0
H967 H 0.65298 0.01275 0.94869 0.0
H968 H 0.60378 0.02206 0.96642 0.0
H969 H 0.7054 0.99363 0.97843 0.0
H970 H 0.63924 0.95748 0.89892 0.0
H971 H 0.5973 0.92941 0.87391 0.0
H972 H 0.62702 0.84672 0.90566 0.0
H973 H 0.66899 0.87431 0.9311 0.0
C974 C 0.81286 0.93375 0.90514 0.0
C975 C 0.81674 0.9027 0.90629 0.0
C976 C 0.7871 0.94578 0.9148 0.0
C977 C 0.76459 0.9272 0.92631 0.0
C978 C 0.7686 0.8963 0.92791 0.0
C979 C 0.79421 0.88422 0.91803 0.0
C980 C 0.73631 0.93938 0.9353 0.0
C981 C 0.71055 0.9249 0.92343 0.0
C982 C 0.73434 0.96491 0.95502 0.0
C983 C 0.76038 0.98054 0.96975 0.0
C984 C 0.77964 0.96463 0.98705 0.0
C985 C 0.80403 0.97957 1.00105 0.0
C986 C 0.80929 0.01046 0.99811 0.0
C987 C 0.79014 0.02649 0.98119 0.0
C988 C 0.76572 0.01166 0.96711 0.0
C989 C 0.60924 0.95105 0.99062 0.0
C990 C 0.59637 0.97832 0.98545 0.0
C991 C 0.63672 0.9456 0.98006 0.0
C992 C 0.65264 0.9673 0.9642 0.0
C993 C 0.64095 0.99546 0.9606 0.0
C994 C 0.61293 1.00089 0.97098 0.0
C995 C 0.6811 0.9596 0.95134 0.0
C996 C 0.70682 0.97486 0.96245 0.0
C997 C 0.68315 0.93452 0.93113 0.0
C998 C 0.65712 0.91804 0.91718 0.0
C999 C 0.63662 0.93337 0.90093 0.0
C1000 C 0.61291 0.91752 0.88655 0.0
C1001 C 0.60946 0.88631 0.88825 0.0
C1002 C 0.62969 0.87089 0.90439 0.0
C1003 C 0.65345 0.88663 0.91877 0.0
H1004 H 0.59116 0.87408 0.877 0.0
H1005 H 0.82817 0.02199 0.00901 0.0
H1006 H 0.72189 0.17287 0.42456 0.0
H1007 H 0.76822 0.15615 0.44223 0.0
H1008 H 0.73637 0.06384 0.42714 0.0
H1009 H 0.68925 0.08034 0.41151 0.0
H1010 H 0.76617 0.06823 0.47627 0.0
H1011 H 0.78219 0.10114 0.37721 0.0
H1012 H 0.78158 0.13583 0.33531 0.0
H1013 H 0.83922 0.19902 0.38553 0.0
H1014 H 0.83983 0.16489 0.42797 0.0
H1015 H 0.89975 1.00103 0.46871 0.0
H1016 H 0.85272 0.02106 0.4599 0.0
H1017 H 0.88906 0.11032 0.48386 0.0
H1018 H 0.93702 0.09002 0.49169 0.0
H1019 H 0.8574 0.10911 0.43203 0.0
H1020 H 0.84069 0.06932 0.53119 0.0
H1021 H 0.8405 0.02963 0.56843 0.0
H1022 H 0.7834 0.97281 0.51064 0.0
H1023 H 0.78348 0.01204 0.47296 0.0
C1024 C 0.72446 0.14899 0.42562 0.0
C1025 C 0.70181 0.12796 0.41643 0.0
C1026 C 0.75118 0.13947 0.43526 0.0
C1027 C 0.75604 0.10875 0.43536 0.0
C1028 C 0.73324 0.08768 0.42703 0.0
C1029 C 0.70636 0.09717 0.41783 0.0
C1030 C 0.78481 0.09855 0.44429 0.0
C1031 C 0.78608 0.07703 0.4664 0.0
C1032 C 0.81085 0.11012 0.43154 0.0
C1033 C 0.8108 0.13059 0.40593 0.0
C1034 C 0.79457 0.12253 0.37943 0.0
C1035 C 0.79424 0.14208 0.35556 0.0
C1036 C 0.81028 0.16965 0.35779 0.0
C1037 C 0.82677 0.17768 0.38386 0.0
C1038 C 0.82713 0.15823 0.40783 0.0
C1039 C 0.89751 0.02485 0.47285 0.0
C1040 C 0.9217 0.04401 0.48136 0.0
C1041 C 0.87062 0.03628 0.46784 0.0
C1042 C 0.86715 0.06714 0.47174 0.0
C1043 C 0.89122 0.08637 0.48103 0.0
C1044 C 0.91843 0.07483 0.48588 0.0
C1045 C 0.83872 0.0791 0.4643 0.0
C1046 C 0.8375 0.10073 0.44221 0.0
C1047 C 0.81258 0.06695 0.47637 0.0
C1048 C 0.81218 0.04359 0.49926 0.0
C1049 C 0.82818 0.04833 0.52641 0.0
C1050 C 0.82808 0.02591 0.54759 0.0
C1051 C 0.81196 0.99871 0.5419 0.0
C1052 C 0.79584 0.99389 0.51504 0.0
C1053 C 0.79586 0.01623 0.49381 0.0
H1054 H 0.81195 0.98137 0.55831 0.0
H1055 H 0.80999 0.18477 0.3393 0.0
H1056 H 0.29105 0.65554 0.15823 0.0
H1057 H 0.24392 0.63601 0.1374 0.0
H1058 H 0.28696 0.58085 0.07244 0.0
H1059 H 0.33429 0.6011 0.09307 0.0
H1060 H 0.24389 0.60892 0.0464 0.0
H1061 H 0.25435 0.55028 0.13336 0.0
H1062 H 0.26367 0.54072 0.1869 0.0
H1063 H 0.19079 0.5906 0.21189 0.0
H1064 H 0.18132 0.60095 0.15858 0.0
H1065 H 0.10565 0.52518 0.01181 0.0
H1066 H 0.15664 0.54204 0.02206 0.0
H1067 H 0.12984 0.60645 0.08906 0.0
H1068 H 0.07928 0.58951 0.07917 0.0
H1069 H 0.16689 0.56683 0.11173 0.0
H1070 H 0.15907 0.62915 0.02603 0.0
H1071 H 0.14898 0.63883 0.97269 0.0
H1072 H 0.21633 0.58204 0.94585 0.0
H1073 H 0.22644 0.57153 0.99905 0.0
C1074 C 0.29027 0.63919 0.13955 0.0
C1075 C 0.31586 0.62963 0.12708 0.0
C1076 C 0.26349 0.62794 0.12779 0.0
C1077 C 0.26199 0.60665 0.10367 0.0
C1078 C 0.28771 0.59717 0.09113 0.0
C1079 C 0.31458 0.60861 0.10284 0.0
C1080 C 0.23345 0.59514 0.09114 0.0
C1081 C 0.22719 0.59917 0.06054 0.0
C1082 C 0.21161 0.58284 0.10976 0.0
C1083 C 0.21726 0.57658 0.14192 0.0
C1084 C 0.24044 0.55942 0.15028 0.0
C1085 C 0.24574 0.55384 0.1806 0.0
C1086 C 0.22787 0.56509 0.20278 0.0
C1087 C 0.20463 0.58192 0.19469 0.0
C1088 C 0.19928 0.58763 0.16441 0.0
C1089 C 0.11071 0.54375 0.0278 0.0
C1090 C 0.08878 0.55607 0.04482 0.0
C1091 C 0.13975 0.55317 0.03381 0.0
C1092 C 0.14688 0.57515 0.05662 0.0
C1093 C 0.12473 0.58921 0.07163 0.0
C1094 C 0.09591 0.57972 0.06581 0.0
C1095 C 0.17713 0.58155 0.06731 0.0
C1096 C 0.18372 0.57629 0.09755 0.0
C1097 C 0.19916 0.59274 0.04842 0.0
C1098 C 0.19324 0.59922 0.01648 0.0
C1099 C 0.17152 0.61846 0.00874 0.0
C1100 C 0.16583 0.62414 0.97853 0.0
C1101 C 0.18193 0.61097 0.95588 0.0
C1102 C 0.20382 0.59216 0.96341 0.0
C1103 C 0.20954 0.58633 0.99358 0.0
H1104 H 0.17751 0.6154 0.93251 0.0
H1105 H 0.23199 0.56072 0.22624 0.0
H1106 H 0.20057 0.39996 0.64442 0.0
H1107 H 0.24867 0.41483 0.62601 0.0
H1108 H 0.20934 0.45938 0.55234 0.0
H1109 H 0.16104 0.44301 0.57015 0.0
H1110 H 0.25174 0.42984 0.53196 0.0
H1111 H 0.24365 0.49911 0.61526 0.0
H1112 H 0.23347 0.51481 0.66759 0.0
H1113 H 0.30162 0.46247 0.70003 0.0
H1114 H 0.31196 0.44613 0.64793 0.0
H1115 H 0.39568 0.50031 0.50282 0.0
H1116 H 0.34368 0.48848 0.51032 0.0
H1117 H 0.36464 0.43158 0.58307 0.0
H1118 H 0.41615 0.44357 0.57591 0.0
H1119 H 0.32955 0.4749 0.60077 0.0
H1120 H 0.33513 0.40364 0.51666 0.0
H1121 H 0.34415 0.38787 0.4641 0.0
H1122 H 0.27999 0.4457 0.43279 0.0
H1123 H 0.27099 0.46227 0.48517 0.0
C1124 C 0.20234 0.41317 0.62448 0.0
C1125 C 0.1774 0.42067 0.60877 0.0
C1126 C 0.22976 0.42181 0.61402 0.0
C1127 C 0.23274 0.43881 0.58808 0.0
C1128 C 0.20765 0.44642 0.57245 0.0
C1129 C 0.18015 0.43726 0.58265 0.0
C1130 C 0.26209 0.4476 0.57691 0.0
C1131 C 0.26862 0.44024 0.54687 0.0
C1132 C 0.28425 0.46098 0.59633 0.0
C1133 C 0.27847 0.47127 0.62767 0.0
C1134 C 0.25639 0.49085 0.63356 0.0
C1135 C 0.25059 0.49987 0.66319 0.0
C1136 C 0.26685 0.48961 0.68712 0.0
C1137 C 0.28903 0.4704 0.68147 0.0
C1138 C 0.29491 0.4613 0.65189 0.0
C1139 C 0.3891 0.48437 0.51957 0.0
C1140 C 0.40985 0.47282 0.5388 0.0
C1141 C 0.35942 0.47782 0.52402 0.0
C1142 C 0.35029 0.45942 0.54752 0.0
C1143 C 0.37116 0.44607 0.56503 0.0
C1144 C 0.40059 0.45272 0.56076 0.0
C1145 C 0.31941 0.45612 0.55619 0.0
C1146 C 0.31257 0.46483 0.58577 0.0
C1147 C 0.29702 0.44426 0.53627 0.0
C1148 C 0.30271 0.43454 0.50481 0.0
C1149 C 0.32322 0.4133 0.49855 0.0
C1150 C 0.32827 0.40415 0.46879 0.0
C1151 C 0.31274 0.41587 0.44511 0.0
C1152 C 0.29208 0.43672 0.45115 0.0
C1153 C 0.28701 0.44601 0.48086 0.0
H1154 H 0.31665 0.40871 0.42209 0.0
H1155 H 0.26229 0.49657 0.71004 0.0
H1156 H 0.93354 0.84644 0.92375 0.0
H1157 H 0.95272 0.80065 0.94313 0.0
H1158 H 0.8734 0.75055 0.91469 0.0
H1159 H 0.85374 0.79669 0.8973 0.0
H1160 H 0.88643 0.7324 0.96453 0.0
H1161 H 0.9442 0.74986 0.87753 0.0
H1162 H 0.9778 0.77829 0.84506 0.0
H1163 H 0.04326 0.78266 0.91524 0.0
H1164 H 0.00988 0.75468 0.94833 0.0
H1165 H 0.92755 0.58466 0.96118 0.0
H1166 H 0.91487 0.63486 0.94986 0.0
H1167 H 0.99323 0.67174 0.99498 0.0
H1168 H 0.00692 0.62035 0.00535 0.0
H1169 H 0.98423 0.69901 0.94177 0.0
H1170 H 0.92364 0.67725 0.02684 0.0
H1171 H 0.88828 0.64686 0.05566 0.0
H1172 H 0.82608 0.648 0.98271 0.0
H1173 H 0.86117 0.67812 0.95335 0.0
C1174 C 0.92021 0.82561 0.922 0.0
C1175 C 0.89204 0.82509 0.90942 0.0
C1176 C 0.93131 0.79931 0.93271 0.0
C1177 C 0.91483 0.77169 0.93009 0.0
C1178 C 0.88668 0.77137 0.91727 0.0
C1179 C 0.87535 0.79776 0.90733 0.0
C1180 C 0.9261 0.74326 0.94156 0.0
C1181 C 0.90774 0.72512 0.95913 0.0
C1182 C 0.95427 0.73372 0.93549 0.0
C1183 C 0.9744 0.75047 0.91555 0.0
C1184 C 0.96567 0.75709 0.88613 0.0
C1185 C 0.9847 0.77311 0.8676 0.0
C1186 C 0.01262 0.78236 0.87811 0.0
C1187 C 0.0216 0.77554 0.90715 0.0
C1188 C 0.00264 0.75961 0.9258 0.0
C1189 C 0.94203 0.60337 0.96922 0.0
C1190 C 0.96818 0.59835 0.9845 0.0
C1191 C 0.93463 0.63227 0.96275 0.0
C1192 C 0.95273 0.65742 0.97193 0.0
C1193 C 0.97872 0.65275 0.9878 0.0
C1194 C 0.98636 0.62343 0.99416 0.0
C1195 C 0.94423 0.68815 0.96409 0.0
C1196 C 0.96307 0.70663 0.94726 0.0
C1197 C 0.91621 0.69783 0.97017 0.0
C1198 C 0.89507 0.67987 0.98791 0.0
C1199 C 0.90247 0.67091 0.01692 0.0
C1200 C 0.88246 0.65374 0.03334 0.0
C1201 C 0.85496 0.6455 0.02102 0.0
C1202 C 0.84738 0.65443 0.99225 0.0
C1203 C 0.86729 0.67159 0.97574 0.0
H1204 H 0.8395 0.63221 0.03378 0.0
H1205 H 0.02731 0.79474 0.86373 0.0
H1206 H 0.43538 0.69877 0.12237 0.0
H1207 H 0.4523 0.74834 0.10489 0.0
H1208 H 0.36894 0.78205 0.1248 0.0
H1209 H 0.35182 0.73242 0.14099 0.0
H1210 H 0.38702 0.80024 0.07177 0.0
H1211 H 0.43222 0.79644 0.17311 0.0
H1212 H 0.4637 0.77245 0.20945 0.0
H1213 H 0.53454 0.78029 0.1485 0.0
H1214 H 0.50342 0.80418 0.11179 0.0
H1215 H 0.42428 0.94855 0.03966 0.0
H1216 H 0.40663 0.90701 0.07037 0.0
H1217 H 0.49435 0.87932 0.07906 0.0
H1218 H 0.51186 0.92333 0.05349 0.0
H1219 H 0.47263 0.85684 0.11914 0.0
H1220 H 0.4334 0.855 0.01616 0.0
H1221 H 0.40473 0.87194 0.9732 0.0
H1222 H 0.32803 0.86758 0.02629 0.0
H1223 H 0.35628 0.85083 0.06956 0.0
C1224 C 0.42086 0.71691 0.123 0.0
C1225 C 0.39241 0.71204 0.13295 0.0
C1226 C 0.43048 0.74516 0.11314 0.0
C1227 C 0.41199 0.76905 0.11394 0.0
C1228 C 0.38357 0.764 0.12394 0.0
C1229 C 0.37384 0.73574 0.13325 0.0
C1230 C 0.42186 0.79946 0.10442 0.0
C1231 C 0.40566 0.81282 0.08218 0.0
C1232 C 0.44669 0.81538 0.11722 0.0
C1233 C 0.46552 0.80202 0.13978 0.0
C1234 C 0.45453 0.79306 0.16753 0.0
C1235 C 0.47229 0.77946 0.18816 0.0
C1236 C 0.5011 0.77484 0.18129 0.0
C1237 C 0.51225 0.78393 0.15382 0.0
C1238 C 0.49459 0.79756 0.13314 0.0
C1239 C 0.43978 0.93474 0.05017 0.0
C1240 C 0.4694 0.93919 0.04442 0.0
C1241 C 0.42966 0.91019 0.0667 0.0
C1242 C 0.44877 0.8885 0.07553 0.0
C1243 C 0.47872 0.89511 0.07256 0.0
C1244 C 0.48891 0.92071 0.05811 0.0
C1245 C 0.43815 0.85815 0.08564 0.0
C1246 C 0.45411 0.84459 0.10823 0.0
C1247 C 0.41379 0.84147 0.07203 0.0
C1248 C 0.39702 0.8521 0.04618 0.0
C1249 C 0.41047 0.85788 0.01869 0.0
C1250 C 0.39428 0.86739 0.99429 0.0
C1251 C 0.3646 0.87095 0.99705 0.0
C1252 C 0.35102 0.86492 0.0242 0.0
C1253 C 0.3671 0.85541 0.04865 0.0
H1254 H 0.35212 0.8783 0.97814 0.0
H1255 H 0.51479 0.76424 0.19725 0.0
H1256 H 0.05806 0.35688 0.58366 0.0
H1257 H 0.03967 0.3065 0.56516 0.0
H1258 H 0.11502 0.26887 0.60418 0.0
H1259 H 0.13372 0.31911 0.62137 0.0
H1260 H 0.10633 0.24707 0.55035 0.0
H1261 H 0.0463 0.26264 0.63534 0.0
H1262 H 0.01139 0.28864 0.66659 0.0
H1263 H 0.94748 0.27711 0.59502 0.0
H1264 H 0.98219 0.25152 0.56312 0.0
H1265 H 0.0664 0.09266 0.54309 0.0
H1266 H 0.0815 0.14433 0.55321 0.0
H1267 H 0.99616 0.17023 0.5274 0.0
H1268 H 0.97935 0.11694 0.52426 0.0
H1269 H 0.00898 0.20079 0.57113 0.0
H1270 H 0.07456 0.18166 0.48676 0.0
H1271 H 0.1118 0.15251 0.46211 0.0
H1272 H 0.16845 0.16884 0.53949 0.0
H1273 H 0.1315 0.19767 0.56469 0.0
C1274 C 0.07059 0.33772 0.58799 0.0
C1275 C 0.09742 0.34159 0.60337 0.0
C1276 C 0.06003 0.30901 0.57773 0.0
C1277 C 0.0759 0.28383 0.5834 0.0
C1278 C 0.10249 0.28791 0.5993 0.0
C1279 C 0.11321 0.31653 0.60905 0.0
C1280 C 0.06574 0.25328 0.5718 0.0
C1281 C 0.08501 0.23688 0.55488 0.0
C1282 C 0.03787 0.24012 0.57744 0.0
C1283 C 0.01699 0.2555 0.59668 0.0
C1284 C 0.0249 0.2659 0.62614 0.0
C1285 C 0.00513 0.28053 0.644 0.0
C1286 C 0.97727 0.28461 0.63276 0.0
C1287 C 0.9691 0.274 0.60367 0.0
C1288 C 0.98881 0.25944 0.58569 0.0
C1289 C 0.05112 0.10941 0.53813 0.0
C1290 C 0.02176 0.10071 0.5323 0.0
C1291 C 0.05994 0.13943 0.54379 0.0
C1292 C 0.04058 0.16214 0.54001 0.0
C1293 C 0.0118 0.15348 0.53058 0.0
C1294 C 1.00224 0.123 0.52775 0.0
C1295 C 0.04946 0.19421 0.54896 0.0
C1296 C 0.03002 0.21101 0.56569 0.0
C1297 C 0.07754 0.20765 0.54366 0.0
C1298 C 0.10024 0.19179 0.52755 0.0
C1299 C 0.09502 0.17914 0.4984 0.0
C1300 C 0.11604 0.16258 0.48441 0.0
C1301 C 0.14246 0.15882 0.49923 0.0
C1302 C 0.14801 0.17178 0.52801 0.0
C1303 C 0.12707 0.18828 0.54212 0.0
H1304 H 0.15863 0.14587 0.48841 0.0
H1305 H 0.96199 0.29592 0.64663 0.0
H1306 H 0.58131 0.18525 0.40845 0.0
H1307 H 0.56027 0.23216 0.42367 0.0
H1308 H 0.64603 0.27569 0.43413 0.0
H1309 H 0.66723 0.22863 0.41905 0.0
H1310 H 0.61354 0.28877 0.4802 0.0
H1311 H 0.60204 0.28739 0.37372 0.0
H1312 H 0.58743 0.26565 0.32355 0.0
H1313 H 0.49817 0.26178 0.34887 0.0
H1314 H 0.51226 0.28282 0.39949 0.0
H1315 H 0.55857 0.43344 0.50186 0.0
H1316 H 0.58387 0.38883 0.48838 0.0
H1317 H 0.50234 0.34199 0.46183 0.0
H1318 H 0.47737 0.38772 0.47311 0.0
H1319 H 0.53673 0.33336 0.42014 0.0
H1320 H 0.55188 0.31264 0.52862 0.0
H1321 H 0.56796 0.32229 0.58153 0.0
H1322 H 0.64796 0.36482 0.55246 0.0
H1323 H 0.63307 0.3534 0.49934 0.0
C1324 C 0.59565 0.20488 0.41393 0.0
C1325 C 0.62587 0.20344 0.41241 0.0
C1326 C 0.58362 0.23166 0.42242 0.0
C1327 C 0.60158 0.25755 0.42928 0.0
C1328 C 0.63181 0.25599 0.4286 0.0
C1329 C 0.64389 0.22911 0.42023 0.0
C1330 C 0.58877 0.28586 0.43862 0.0
C1331 C 0.59712 0.29886 0.46678 0.0
C1332 C 0.56693 0.29856 0.42134 0.0
C1333 C 0.55827 0.28653 0.39058 0.0
C1334 C 0.5793 0.28172 0.36871 0.0
C1335 C 0.57111 0.2695 0.34017 0.0
C1336 C 0.54189 0.26229 0.33304 0.0
C1337 C 0.5208 0.26735 0.35443 0.0
C1338 C 0.52888 0.27943 0.38307 0.0
C1339 C 0.54593 0.41314 0.49456 0.0
C1340 C 0.51592 0.41366 0.48934 0.0
C1341 C 0.56045 0.38755 0.48668 0.0
C1342 C 0.5451 0.36164 0.47441 0.0
C1343 C 0.51477 0.36161 0.47119 0.0
C1344 C 0.50037 0.38751 0.4782 0.0
C1345 C 0.56071 0.33566 0.46248 0.0
C1346 C 0.5532 0.32335 0.43352 0.0
C1347 C 0.58326 0.3233 0.47897 0.0
C1348 C 0.59111 0.33288 0.51027 0.0
C1349 C 0.57274 0.32435 0.53361 0.0
C1350 C 0.58183 0.32972 0.56357 0.0
C1351 C 0.60873 0.3447 0.57039 0.0
C1352 C 0.62699 0.35355 0.54718 0.0
C1353 C 0.61842 0.34727 0.51716 0.0
H1354 H 0.61551 0.34921 0.59365 0.0
H1355 H 0.53559 0.25283 0.31094 0.0
loop_
_geom_bond_atom_site_label_1
_geom_bond_atom_site_label_2
_geom_bond_distance
_geom_bond_site_symmetry_2
_ccdc_geom_bond_type
H0 C3 0.931 . S
H1 C6 0.928 . S
H2 C8 0.930 . S
C3 H0 0.931 . S
C3 C4 1.413 . S
C3 C5 1.360 . S
C4 C3 1.413 . S
C4 C8 1.429 . S
C5 C3 1.360 . S
C5 C6 1.372 . S
C6 H1 0.928 . S
C6 C5 1.372 . S
C6 C7 1.404 . S
C7 C6 1.404 . S
C7 C8 1.391 . S
C8 H2 0.930 . S
C8 C4 1.429 . S
C8 C7 1.391 . S
H9 C12 0.931 . S
H10 C15 0.928 . S
H11 C17 0.930 . S
C12 H9 0.931 . S
C12 C13 1.413 . S
C12 C14 1.360 . S
C13 C12 1.413 . S
C13 C17 1.429 . S
C14 C12 1.360 . S
C14 C15 1.372 . S
C15 H10 0.928 . S
C15 C14 1.372 . S
C15 C16 1.404 . S
C16 C15 1.404 . S
C16 C17 1.391 . S
C17 H11 0.930 . S
C17 C13 1.429 . S
C17 C16 1.391 . S
H18 C21 0.931 . S
H19 C24 0.928 . S
H20 C26 0.930 . S
C21 H18 0.931 . S
C21 C22 1.413 . S
C21 C23 1.360 . S
C22 C21 1.413 . S
C22 C26 1.429 . S
C23 C21 1.360 . S
C23 C24 1.372 . S
C24 H19 0.928 . S
C24 C23 1.372 . S
C24 C25 1.404 . S
C25 C24 1.404 . S
C25 C26 1.391 . S
C26 H20 0.930 . S
C26 C22 1.429 . S
C26 C25 1.391 . S
H27 C30 0.931 . S
H28 C33 0.928 . S
H29 C35 0.930 . S
C30 H27 0.931 . S
C30 C31 1.413 . S
C30 C32 1.360 . S
C31 C30 1.413 . S
C31 C35 1.429 . S
C32 C30 1.360 . S
C32 C33 1.372 . S
C33 H28 0.928 . S
C33 C32 1.372 . S
C33 C34 1.404 . S
C34 C33 1.404 . S
C34 C35 1.391 . S
C35 H29 0.930 . S
C35 C31 1.429 . S
C35 C34 1.391 . S
H36 C39 0.931 . S
H37 C42 0.928 . S
H38 C44 0.930 . S
C39 H36 0.931 . S
C39 C40 1.413 . S
C39 C41 1.360 . S
C40 C39 1.413 . S
C40 C44 1.429 . S
C41 C39 1.360 . S
C41 C42 1.372 . S
C42 H37 0.928 . S
C42 C41 1.372 . S
C42 C43 1.404 . S
C43 C42 1.404 . S
C43 C44 1.391 . S
C44 H38 0.930 . S
C44 C40 1.429 . S
C44 C43 1.391 . S
H45 C48 0.931 . S
H46 C51 0.928 . S
H47 C53 0.930 . S
C48 H45 0.931 . S
C48 C49 1.413 . S
C48 C50 1.360 . S
C49 C48 1.413 . S
C49 C53 1.429 . S
C50 C48 1.360 . S
C50 C51 1.372 . S
C51 H46 0.928 . S
C51 C50 1.372 . S
C51 C52 1.404 . S
C52 C51 1.404 . S
C52 C53 1.391 . S
C53 H47 0.930 . S
C53 C49 1.429 . S
C53 C52 1.391 . S
H54 C57 0.931 . S
H55 C60 0.928 . S
H56 C62 0.930 . S
C57 H54 0.931 . S
C57 C58 1.413 . S
C57 C59 1.360 . S
C58 C57 1.413 . S
C58 C62 1.429 . S
C59 C57 1.360 . S
C59 C60 1.372 . S
C60 H55 0.928 . S
C60 C59 1.372 . S
C60 C61 1.404 . S
C61 C60 1.404 . S
C61 C62 1.391 . S
C62 H56 0.930 . S
C62 C58 1.429 . S
C62 C61 1.391 . S
H63 C66 0.931 . S
H64 C69 0.928 . S
H65 C71 0.930 . S
C66 H63 0.931 . S
C66 C67 1.413 . S
C66 C68 1.360 . S
C67 C66 1.413 . S
C67 C71 1.429 . S
C68 C66 1.360 . S
C68 C69 1.372 . S
C69 H64 0.928 . S
C69 C68 1.372 . S
C69 C70 1.404 . S
C70 C69 1.404 . S
C70 C71 1.391 . S
C71 H65 0.930 . S
C71 C67 1.429 . S
C71 C70 1.391 . S
O72 Mn73 2.163 1_655 S
O72 C86 1.244 . S
Mn73 O72 2.163 1_455 S
Mn73 O76 2.160 1_545 S
Mn73 O77 2.221 . S
Mn73 O79 2.163 1_445 S
Mn73 O81 2.160 . S
Mn73 O91 2.221 1_445 S
O74 Mn75 2.087 1_545 S
O74 C86 1.256 . S
Mn75 O74 2.087 1_565 S
Mn75 O82 2.089 1_565 S
Mn75 O91 2.290 . S
Mn75 O92 2.251 . S
O76 Mn73 2.160 1_565 S
O76 C87 1.239 . S
O77 Mn73 2.221 . S
O77 Mn78 2.290 . S
O77 C88 1.278 . S
Mn78 O77 2.290 . S
Mn78 O80 2.089 1_545 S
Mn78 O83 2.251 . S
Mn78 O84 2.087 . S
O79 Mn73 2.163 1_665 S
O79 C89 1.244 . S
O80 Mn78 2.089 1_565 S
O80 C87 1.256 . S
O81 Mn73 2.160 . S
O81 C90 1.239 . S
O82 Mn75 2.089 1_545 S
O82 C90 1.256 1_655 S
O83 Mn78 2.251 . S
O83 C88 1.241 . S
O84 Mn78 2.087 . S
O84 C89 1.256 1_445 S
C85 O91 1.278 . S
C85 O92 1.241 . S
C86 O72 1.244 . S
C86 O74 1.256 . S
C87 O76 1.239 . S
C87 O80 1.256 . S
C88 O77 1.278 . S
C88 O83 1.241 . S
C89 O79 1.244 . S
C89 O84 1.256 1_665 S
C90 O81 1.239 . S
C90 O82 1.256 1_455 S
O91 Mn73 2.221 1_665 S
O91 Mn75 2.290 . S
O91 C85 1.278 . S
O92 Mn75 2.251 . S
O92 C85 1.241 . S
O93 Mn94 2.163 1_556 S
O93 C107 1.244 1_545 S
Mn94 O93 2.163 1_554 S
Mn94 O97 2.160 . S
Mn94 O98 2.221 1_554 S
Mn94 O100 2.163 . S
Mn94 O102 2.160 1_554 S
Mn94 O112 2.221 1_545 S
O95 Mn96 2.087 . S
O95 C107 1.256 . S
Mn96 O95 2.087 . S
Mn96 O103 2.089 . S
Mn96 O112 2.290 1_556 S
Mn96 O113 2.251 1_556 S
O97 Mn94 2.160 . S
O97 C108 1.239 . S
O98 Mn94 2.221 1_556 S
O98 Mn99 2.288 1_556 S
O98 C109 1.279 . S
Mn99 O98 2.288 1_554 S
Mn99 O101 2.089 . S
Mn99 O104 2.251 1_554 S
Mn99 O105 2.087 . S
O100 Mn94 2.163 . S
O100 C110 1.244 . S
O101 Mn99 2.089 . S
O101 C108 1.256 . S
O102 Mn94 2.160 1_556 S
O102 C111 1.239 1_545 S
O103 Mn96 2.089 . S
O103 C111 1.256 . S
O104 Mn99 2.251 1_556 S
O104 C109 1.241 . S
O105 Mn99 2.087 . S
O105 C110 1.256 . S
C106 O112 1.278 . S
C106 O113 1.241 . S
C107 O93 1.244 1_565 S
C107 O95 1.256 . S
C108 O97 1.239 . S
C108 O101 1.256 . S
C109 O98 1.279 . S
C109 O104 1.241 . S
C110 O100 1.244 . S
C110 O105 1.256 . S
C111 O102 1.239 1_565 S
C111 O103 1.256 . S
O112 Mn94 2.221 1_565 S
O112 Mn96 2.290 1_554 S
O112 C106 1.278 . S
O113 Mn96 2.251 1_554 S
O113 C106 1.241 . S
O114 Mn115 2.163 . S
O114 C128 1.244 . S
Mn115 O114 2.163 . S
Mn115 O118 2.160 . S
Mn115 O119 2.221 . S
Mn115 O121 2.163 . S
Mn115 O123 2.160 . S
Mn115 O133 2.221 . S
O116 Mn117 2.087 . S
O116 C128 1.256 . S
Mn117 O116 2.087 . S
Mn117 O124 2.089 . S
Mn117 O133 2.290 . S
Mn117 O134 2.251 . S
O118 Mn115 2.160 . S
O118 C129 1.239 . S
O119 Mn115 2.221 . S
O119 Mn120 2.290 . S
O119 C130 1.278 . S
Mn120 O119 2.290 . S
Mn120 O122 2.089 . S
Mn120 O125 2.251 . S
Mn120 O126 2.087 . S
O121 Mn115 2.163 . S
O121 C131 1.244 . S
O122 Mn120 2.089 . S
O122 C129 1.256 . S
O123 Mn115 2.160 . S
O123 C132 1.239 . S
O124 Mn117 2.089 . S
O124 C132 1.256 . S
O125 Mn120 2.251 . S
O125 C130 1.241 . S
O126 Mn120 2.087 . S
O126 C131 1.256 . S
C127 O133 1.278 . S
C127 O134 1.241 . S
C128 O114 1.244 . S
C128 O116 1.256 . S
C129 O118 1.239 . S
C129 O122 1.256 . S
C130 O119 1.278 . S
C130 O125 1.241 . S
C131 O121 1.244 . S
C131 O126 1.256 . S
C132 O123 1.239 . S
C132 O124 1.256 . S
O133 Mn115 2.221 . S
O133 Mn117 2.290 . S
O133 C127 1.278 . S
O134 Mn117 2.251 . S
O134 C127 1.241 . S
O135 Mn136 2.163 1_655 S
O135 C149 1.244 1_554 S
Mn136 O135 2.163 1_455 S
Mn136 O139 2.160 . S
Mn136 O140 2.221 1_455 S
Mn136 O142 2.163 . S
Mn136 O144 2.152 1_454 S
Mn136 O154 2.221 1_554 S
O137 Mn138 2.087 . S
O137 C149 1.256 . S
Mn138 O137 2.087 . S
Mn138 O145 2.089 . S
Mn138 O154 2.290 1_655 S
Mn138 O155 2.251 . S
O139 Mn136 2.160 . S
O139 C150 1.239 . S
O140 Mn136 2.221 1_655 S
O140 Mn141 2.290 1_655 S
O140 C151 1.278 . S
Mn141 O140 2.290 1_455 S
Mn141 O143 2.089 . S
Mn141 O146 2.251 1_455 S
Mn141 O147 2.087 . S
O142 Mn136 2.163 . S
O142 C152 1.244 . S
O143 Mn141 2.089 . S
O143 C150 1.256 . S
O144 Mn136 2.152 1_656 S
O144 C153 1.264 . S
O145 Mn138 2.089 . S
O145 C153 1.256 . S
O146 Mn141 2.251 1_655 S
O146 C151 1.241 . S
O147 Mn141 2.087 . S
O147 C152 1.256 . S
C148 O154 1.278 . S
C148 O155 1.241 1_455 S
C149 O135 1.244 1_556 S
C149 O137 1.256 . S
C150 O139 1.239 . S
C150 O143 1.256 . S
C151 O140 1.278 . S
C151 O146 1.241 . S
C152 O142 1.244 . S
C152 O147 1.256 . S
C153 O144 1.264 . S
C153 O145 1.256 . S
O154 Mn136 2.221 1_556 S
O154 Mn138 2.290 1_455 S
O154 C148 1.278 . S
O155 Mn138 2.251 . S
O155 C148 1.241 1_655 S
H156 C174 0.951 . S
H157 C176 0.951 . S
H158 C178 0.950 . S
H159 C179 0.950 . S
H160 C181 0.950 . S
H161 C184 0.950 . S
H162 C185 0.950 . S
H163 C187 0.950 . S
H164 C188 0.950 . S
H165 C189 0.951 . S
H166 C191 0.951 . S
H167 C193 0.950 . S
H168 C194 0.950 . S
H169 C196 0.950 . S
H170 C199 0.950 1_455 S
H171 C200 0.950 . S
H172 C202 0.950 . S
H173 C203 0.950 . S
C174 H156 0.951 . S
C174 C175 1.366 . S
C174 C176 1.388 . S
C175 C174 1.366 . S
C175 C179 1.385 . S
C176 H157 0.951 . S
C176 C174 1.388 . S
C176 C177 1.366 . S
C177 C176 1.366 . S
C177 C178 1.414 . S
C177 C180 1.499 . S
C178 H158 0.950 . S
C178 C177 1.414 . S
C178 C179 1.374 . S
C179 H159 0.950 . S
C179 C175 1.385 . S
C179 C178 1.374 . S
C180 C177 1.499 . S
C180 C181 1.373 . S
C180 C182 1.389 . S
C181 H160 0.950 . S
C181 C180 1.373 . S
C181 C197 1.377 . S
C182 C180 1.389 . S
C182 C183 1.524 . S
C182 C196 1.377 . S
C183 C182 1.524 . S
C183 C184 1.397 . S
C183 C188 1.363 . S
C184 H161 0.950 . S
C184 C183 1.397 . S
C184 C185 1.334 . S
C185 H162 0.950 . S
C185 C184 1.334 . S
C185 C186 1.287 . S
C186 C185 1.287 . S
C186 C187 1.524 . S
C186 H205 0.913 . S
C187 H163 0.950 . S
C187 C186 1.524 . S
C187 C188 1.415 . S
C188 H164 0.950 . S
C188 C183 1.363 . S
C188 C187 1.415 . S
C189 H165 0.951 . S
C189 C190 1.366 . S
C189 C191 1.388 . S
C190 C189 1.366 . S
C190 C194 1.385 . S
C191 H166 0.951 . S
C191 C189 1.388 . S
C191 C192 1.366 . S
C192 C191 1.366 . S
C192 C193 1.414 . S
C192 C195 1.499 . S
C193 H167 0.950 . S
C193 C192 1.414 . S
C193 C194 1.374 . S
C194 H168 0.950 . S
C194 C190 1.385 . S
C194 C193 1.374 . S
C195 C192 1.499 . S
C195 C196 1.373 . S
C195 C197 1.389 . S
C196 H169 0.950 . S
C196 C182 1.377 . S
C196 C195 1.373 . S
C197 C181 1.377 . S
C197 C195 1.389 . S
C197 C198 1.524 . S
C198 C197 1.524 . S
C198 C199 1.397 1_455 S
C198 C203 1.363 . S
C199 H170 0.950 1_655 S
C199 C198 1.397 1_655 S
C199 C200 1.334 . S
C200 H171 0.950 . S
C200 C199 1.334 . S
C200 C201 1.287 . S
C201 C200 1.287 . S
C201 C202 1.524 . S
C201 H204 0.999 . S
C202 H172 0.950 . S
C202 C201 1.524 . S
C202 C203 1.415 1_655 S
C203 H173 0.950 . S
C203 C198 1.363 . S
C203 C202 1.415 1_455 S
H204 C201 0.999 . S
H205 C186 0.913 . S
H206 C224 0.951 . S
H207 C226 0.951 . S
H208 C228 0.950 . S
H209 C229 0.950 . S
H210 C231 0.950 . S
H211 C234 0.950 . S
H212 C235 0.950 . S
H213 C237 0.950 . S
H214 C238 0.950 . S
H215 C239 0.951 . S
H216 C241 0.951 . S
H217 C243 0.950 . S
H218 C244 0.962 . S
H219 C246 0.950 . S
H220 C249 0.950 . S
H221 C250 0.950 . S
H222 C252 0.950 . S
H223 C253 0.950 . S
C224 H206 0.951 . S
C224 C225 1.366 . S
C224 C226 1.388 . S
C225 C224 1.366 . S
C225 C229 1.385 . S
C226 H207 0.951 . S
C226 C224 1.388 . S
C226 C227 1.366 . S
C227 C226 1.366 . S
C227 C228 1.414 . S
C227 C230 1.499 . S
C228 H208 0.950 . S
C228 C227 1.414 . S
C228 C229 1.374 . S
C229 H209 0.950 . S
C229 C225 1.385 . S
C229 C228 1.374 . S
C230 C227 1.499 . S
C230 C231 1.373 . S
C230 C232 1.389 . S
C231 H210 0.950 . S
C231 C230 1.373 . S
C231 C247 1.377 . S
C232 C230 1.389 . S
C232 C233 1.524 . S
C232 C246 1.377 . S
C233 C232 1.524 . S
C233 C234 1.397 . S
C233 C238 1.363 . S
C234 H211 0.950 . S
C234 C233 1.397 . S
C234 C235 1.334 . S
C235 H212 0.950 . S
C235 C234 1.334 . S
C235 C236 1.287 . S
C236 C235 1.287 . S
C236 C237 1.524 . S
C236 H255 0.913 . S
C237 H213 0.950 . S
C237 C236 1.524 . S
C237 C238 1.415 . S
C238 H214 0.950 . S
C238 C233 1.363 . S
C238 C237 1.415 . S
C239 H215 0.951 . S
C239 C240 1.366 . S
C239 C241 1.388 . S
C240 C239 1.366 . S
C240 C244 1.378 1_565 S
C241 H216 0.951 . S
C241 C239 1.388 . S
C241 C242 1.366 . S
C242 C241 1.366 . S
C242 C243 1.414 . S
C242 C245 1.499 . S
C243 H217 0.950 . S
C243 C242 1.414 . S
C243 C244 1.369 1_565 S
C244 H218 0.962 . S
C244 C240 1.378 1_545 S
C244 C243 1.369 1_545 S
C245 C242 1.499 . S
C245 C246 1.373 . S
C245 C247 1.389 . S
C246 H219 0.950 . S
C246 C232 1.377 . S
C246 C245 1.373 . S
C247 C231 1.377 . S
C247 C245 1.389 . S
C247 C248 1.524 . S
C248 C247 1.524 . S
C248 C249 1.397 1_565 S
C248 C253 1.363 . S
C249 H220 0.950 . S
C249 C248 1.397 1_545 S
C249 C250 1.334 . S
C250 H221 0.950 . S
C250 C249 1.334 . S
C250 C251 1.286 . S
C251 C250 1.286 . S
C251 C252 1.525 1_545 S
C251 H254 0.998 . S
C252 H222 0.950 . S
C252 C251 1.525 1_565 S
C252 C253 1.415 . S
C253 H223 0.950 . S
C253 C248 1.363 . S
C253 C252 1.415 . S
H254 C251 0.998 . S
H255 C236 0.913 . S
H256 C274 0.951 . S
H257 C276 0.951 . S
H258 C278 0.950 . S
H259 C279 0.950 . S
H260 C281 0.950 . S
H261 C284 0.950 . S
H262 C285 0.950 . S
H263 C287 0.950 . S
H264 C288 0.950 . S
H265 C289 0.951 . S
H266 C291 0.951 . S
H267 C293 0.950 . S
H268 C294 0.950 . S
H269 C296 0.950 . S
H270 C299 0.950 . S
H271 C300 0.950 . S
H272 C302 0.950 . S
H273 C303 0.950 . S
C274 H256 0.951 . S
C274 C275 1.366 . S
C274 C276 1.388 . S
C275 C274 1.366 . S
C275 C279 1.385 . S
C276 H257 0.951 . S
C276 C274 1.388 . S
C276 C277 1.366 . S
C277 C276 1.366 . S
C277 C278 1.414 . S
C277 C280 1.499 . S
C278 H258 0.950 . S
C278 C277 1.414 . S
C278 C279 1.374 . S
C279 H259 0.950 . S
C279 C275 1.385 . S
C279 C278 1.374 . S
C280 C277 1.499 . S
C280 C281 1.373 . S
C280 C282 1.389 . S
C281 H260 0.950 . S
C281 C280 1.373 . S
C281 C297 1.377 . S
C282 C280 1.389 . S
C282 C283 1.524 . S
C282 C296 1.377 . S
C283 C282 1.524 . S
C283 C284 1.397 . S
C283 C288 1.363 . S
C284 H261 0.950 . S
C284 C283 1.397 . S
C284 C285 1.334 . S
C285 H262 0.950 . S
C285 C284 1.334 . S
C285 C286 1.287 . S
C286 C285 1.287 . S
C286 C287 1.524 . S
C286 H305 0.913 . S
C287 H263 0.950 . S
C287 C286 1.524 . S
C287 C288 1.415 . S
C288 H264 0.950 . S
C288 C283 1.363 . S
C288 C287 1.415 . S
C289 H265 0.951 . S
C289 C290 1.366 . S
C289 C291 1.388 . S
C290 C289 1.366 . S
C290 C294 1.385 . S
C291 H266 0.951 . S
C291 C289 1.388 . S
C291 C292 1.366 . S
C292 C291 1.366 . S
C292 C293 1.414 . S
C292 C295 1.499 . S
C293 H267 0.950 . S
C293 C292 1.414 . S
C293 C294 1.374 . S
C294 H268 0.950 . S
C294 C290 1.385 . S
C294 C293 1.374 . S
C295 C292 1.499 . S
C295 C296 1.373 . S
C295 C297 1.389 . S
C296 H269 0.950 . S
C296 C282 1.377 . S
C296 C295 1.373 . S
C297 C281 1.377 . S
C297 C295 1.389 . S
C297 C298 1.524 . S
C298 C297 1.524 . S
C298 C299 1.397 . S
C298 C303 1.363 . S
C299 H270 0.950 . S
C299 C298 1.397 . S
C299 C300 1.334 . S
C300 H271 0.950 . S
C300 C299 1.334 . S
C300 C301 1.287 . S
C301 C300 1.287 . S
C301 C302 1.524 . S
C301 H304 0.999 . S
C302 H272 0.950 . S
C302 C301 1.524 . S
C302 C303 1.415 . S
C303 H273 0.950 . S
C303 C298 1.363 . S
C303 C302 1.415 . S
H304 C301 0.999 . S
H305 C286 0.913 . S
H306 C324 0.951 . S
H307 C326 0.951 . S
H308 C328 0.950 . S
H309 C329 0.950 . S
H310 C331 0.950 . S
H311 C334 0.950 . S
H312 C335 0.950 . S
H313 C337 0.950 1_455 S
H314 C338 0.950 . S
H315 C339 0.951 . S
H316 C341 0.951 . S
H317 C343 0.950 . S
H318 C344 0.979 . S
H319 C346 0.950 . S
H320 C349 0.950 . S
H321 C350 0.950 . S
H322 C352 0.950 . S
H323 C353 0.950 . S
C324 H306 0.951 . S
C324 C325 1.366 . S
C324 C326 1.388 . S
C325 C324 1.366 . S
C325 C329 1.385 . S
C326 H307 0.951 . S
C326 C324 1.388 . S
C326 C327 1.366 . S
C327 C326 1.366 . S
C327 C328 1.414 . S
C327 C330 1.499 . S
C328 H308 0.950 . S
C328 C327 1.414 . S
C328 C329 1.374 . S
C329 H309 0.950 . S
C329 C325 1.385 . S
C329 C328 1.374 . S
C330 C327 1.499 . S
C330 C331 1.373 . S
C330 C332 1.389 . S
C331 H310 0.950 . S
C331 C330 1.373 . S
C331 C347 1.377 . S
C332 C330 1.389 . S
C332 C333 1.524 . S
C332 C346 1.377 . S
C333 C332 1.524 . S
C333 C334 1.397 . S
C333 C338 1.363 . S
C334 H311 0.950 . S
C334 C333 1.397 . S
C334 C335 1.334 . S
C335 H312 0.950 . S
C335 C334 1.334 . S
C335 C336 1.287 . S
C336 C335 1.287 . S
C336 C337 1.524 . S
C336 H355 0.913 . S
C337 H313 0.950 1_655 S
C337 C336 1.524 . S
C337 C338 1.415 . S
C338 H314 0.950 . S
C338 C333 1.363 . S
C338 C337 1.415 . S
C339 H315 0.951 . S
C339 C340 1.366 . S
C339 C341 1.388 . S
C340 C339 1.366 . S
C340 C344 1.385 . S
C341 H316 0.951 . S
C341 C339 1.388 . S
C341 C342 1.366 . S
C342 C341 1.366 . S
C342 C343 1.414 . S
C342 C345 1.499 . S
C343 H317 0.950 . S
C343 C342 1.414 . S
C343 C344 1.374 . S
C344 H318 0.979 . S
C344 C340 1.385 . S
C344 C343 1.374 . S
C345 C342 1.499 . S
C345 C346 1.373 . S
C345 C347 1.389 . S
C346 H319 0.950 . S
C346 C332 1.377 . S
C346 C345 1.373 . S
C347 C331 1.377 . S
C347 C345 1.389 . S
C347 C348 1.524 . S
C348 C347 1.524 . S
C348 C349 1.397 . S
C348 C353 1.363 . S
C349 H320 0.950 . S
C349 C348 1.397 . S
C349 C350 1.334 . S
C350 H321 0.950 . S
C350 C349 1.334 . S
C350 C351 1.287 . S
C351 C350 1.287 . S
C351 C352 1.524 . S
C351 H354 0.999 . S
C352 H322 0.950 . S
C352 C351 1.524 . S
C352 C353 1.415 . S
C353 H323 0.950 . S
C353 C348 1.363 . S
C353 C352 1.415 . S
H354 C351 0.999 . S
H355 C336 0.913 . S
H356 C374 0.951 . S
H357 C376 0.951 . S
H358 C378 0.950 . S
H359 C379 0.950 . S
H360 C381 0.950 . S
H361 C384 0.950 . S
H362 C385 0.950 . S
H363 C387 0.950 . S
H364 C388 0.950 . S
H365 C389 0.951 . S
H366 C391 0.951 . S
H367 C393 0.950 . S
H368 C394 0.950 . S
H369 C396 0.950 . S
H370 C399 0.950 . S
H371 C400 0.950 . S
H372 C402 0.950 . S
H373 C403 0.950 . S
C374 H356 0.951 . S
C374 C375 1.366 . S
C374 C376 1.388 . S
C375 C374 1.366 . S
C375 C379 1.385 . S
C376 H357 0.951 . S
C376 C374 1.388 . S
C376 C377 1.366 . S
C377 C376 1.366 . S
C377 C378 1.414 . S
C377 C380 1.499 . S
C378 H358 0.950 . S
C378 C377 1.414 . S
C378 C379 1.374 . S
C379 H359 0.950 . S
C379 C375 1.385 . S
C379 C378 1.374 . S
C380 C377 1.499 . S
C380 C381 1.373 . S
C380 C382 1.389 . S
C381 H360 0.950 . S
C381 C380 1.373 . S
C381 C397 1.377 . S
C382 C380 1.389 . S
C382 C383 1.524 . S
C382 C396 1.377 . S
C383 C382 1.524 . S
C383 C384 1.397 . S
C383 C388 1.363 . S
C384 H361 0.950 . S
C384 C383 1.397 . S
C384 C385 1.334 . S
C385 H362 0.950 . S
C385 C384 1.334 . S
C385 C386 1.287 . S
C386 C385 1.287 . S
C386 C387 1.524 . S
C386 H405 0.913 . S
C387 H363 0.950 . S
C387 C386 1.524 . S
C387 C388 1.415 . S
C388 H364 0.950 . S
C388 C383 1.363 . S
C388 C387 1.415 . S
C389 H365 0.951 . S
C389 C390 1.366 . S
C389 C391 1.388 . S
C390 C389 1.366 . S
C390 C394 1.385 . S
C391 H366 0.951 . S
C391 C389 1.388 . S
C391 C392 1.366 . S
C392 C391 1.366 . S
C392 C393 1.414 . S
C392 C395 1.499 . S
C393 H367 0.950 . S
C393 C392 1.414 . S
C393 C394 1.374 . S
C394 H368 0.950 . S
C394 C390 1.385 . S
C394 C393 1.374 . S
C395 C392 1.499 . S
C395 C396 1.373 . S
C395 C397 1.389 . S
C396 H369 0.950 . S
C396 C382 1.377 . S
C396 C395 1.373 . S
C397 C381 1.377 . S
C397 C395 1.389 . S
C397 C398 1.524 . S
C398 C397 1.524 . S
C398 C399 1.397 . S
C398 C403 1.363 . S
C399 H370 0.950 . S
C399 C398 1.397 . S
C399 C400 1.334 . S
C400 H371 0.950 . S
C400 C399 1.334 . S
C400 C401 1.287 1_545 S
C401 C400 1.287 1_565 S
C401 C402 1.524 . S
C401 H404 0.999 . S
C402 H372 0.950 . S
C402 C401 1.524 . S
C402 C403 1.415 1_565 S
C403 H373 0.950 . S
C403 C398 1.363 . S
C403 C402 1.415 1_545 S
H404 C401 0.999 . S
H405 C386 0.913 . S
H406 C424 0.951 . S
H407 C426 0.951 . S
H408 C428 0.950 . S
H409 C429 0.950 . S
H410 C431 0.950 . S
H411 C434 0.950 . S
H412 C435 0.950 . S
H413 C437 0.950 . S
H414 C438 0.950 . S
H415 C439 0.951 . S
H416 C441 0.951 . S
H417 C443 0.950 . S
H418 C444 0.950 . S
H419 C446 0.950 . S
H420 C449 0.950 . S
H421 C450 0.950 1_545 S
H422 C452 0.950 . S
H423 C453 0.950 . S
C424 H406 0.951 . S
C424 C425 1.366 . S
C424 C426 1.388 . S
C425 C424 1.366 . S
C425 C429 1.385 . S
C426 H407 0.951 . S
C426 C424 1.388 . S
C426 C427 1.366 . S
C427 C426 1.366 . S
C427 C428 1.414 . S
C427 C430 1.499 . S
C428 H408 0.950 . S
C428 C427 1.414 . S
C428 C429 1.374 . S
C429 H409 0.950 . S
C429 C425 1.385 . S
C429 C428 1.374 . S
C430 C427 1.499 . S
C430 C431 1.373 . S
C430 C432 1.389 . S
C431 H410 0.950 . S
C431 C430 1.373 . S
C431 C447 1.377 . S
C432 C430 1.389 . S
C432 C433 1.524 . S
C432 C446 1.377 . S
C433 C432 1.524 . S
C433 C434 1.397 . S
C433 C438 1.363 . S
C434 H411 0.950 . S
C434 C433 1.397 . S
C434 C435 1.334 . S
C435 H412 0.950 . S
C435 C434 1.334 . S
C435 C436 1.287 . S
C436 C435 1.287 . S
C436 C437 1.524 . S
C436 H455 0.913 . S
C437 H413 0.950 . S
C437 C436 1.524 . S
C437 C438 1.415 . S
C438 H414 0.950 . S
C438 C433 1.363 . S
C438 C437 1.415 . S
C439 H415 0.951 . S
C439 C440 1.366 . S
C439 C441 1.388 . S
C440 C439 1.366 . S
C440 C444 1.385 . S
C441 H416 0.951 . S
C441 C439 1.388 . S
C441 C442 1.366 . S
C442 C441 1.366 . S
C442 C443 1.414 . S
C442 C445 1.499 . S
C443 H417 0.950 . S
C443 C442 1.414 . S
C443 C444 1.374 . S
C444 H418 0.950 . S
C444 C440 1.385 . S
C444 C443 1.374 . S
C445 C442 1.499 . S
C445 C446 1.373 . S
C445 C447 1.389 . S
C446 H419 0.950 . S
C446 C432 1.377 . S
C446 C445 1.373 . S
C447 C431 1.377 . S
C447 C445 1.389 . S
C447 C448 1.524 . S
C448 C447 1.524 . S
C448 C449 1.397 . S
C448 C453 1.363 . S
C449 H420 0.950 . S
C449 C448 1.397 . S
C449 C450 1.334 . S
C450 H421 0.950 1_565 S
C450 C449 1.334 . S
C450 C451 1.287 . S
C451 C450 1.287 . S
C451 C452 1.524 . S
C451 H454 0.999 . S
C452 H422 0.950 . S
C452 C451 1.524 . S
C452 C453 1.415 . S
C453 H423 0.950 . S
C453 C448 1.363 . S
C453 C452 1.415 . S
H454 C451 0.999 . S
H455 C436 0.913 . S
H456 C474 0.951 . S
H457 C476 0.951 . S
H458 C478 0.950 . S
H459 C479 0.950 . S
H460 C481 0.950 . S
H461 C484 0.950 . S
H462 C485 0.950 . S
H463 C487 0.950 . S
H464 C488 0.950 1_554 S
H465 C489 0.951 . S
H466 C491 0.951 . S
H467 C493 0.950 1_554 S
H468 C494 0.950 . S
H469 C496 0.950 . S
H470 C499 0.950 . S
H471 C500 0.950 . S
H472 C502 0.950 . S
H473 C503 0.950 . S
C474 H456 0.951 . S
C474 C475 1.366 . S
C474 C476 1.388 . S
C475 C474 1.366 . S
C475 C479 1.385 . S
C476 H457 0.951 . S
C476 C474 1.388 . S
C476 C477 1.366 . S
C477 C476 1.366 . S
C477 C478 1.414 . S
C477 C480 1.499 . S
C478 H458 0.950 . S
C478 C477 1.414 . S
C478 C479 1.374 . S
C479 H459 0.950 . S
C479 C475 1.385 . S
C479 C478 1.374 . S
C480 C477 1.499 . S
C480 C481 1.373 . S
C480 C482 1.389 . S
C481 H460 0.950 . S
C481 C480 1.373 . S
C481 C497 1.377 . S
C482 C480 1.389 . S
C482 C483 1.524 . S
C482 C496 1.377 . S
C483 C482 1.524 . S
C483 C484 1.397 . S
C483 C488 1.363 . S
C484 H461 0.950 . S
C484 C483 1.397 . S
C484 C485 1.334 . S
C485 H462 0.950 . S
C485 C484 1.334 . S
C485 C486 1.287 . S
C486 C485 1.287 . S
C486 C487 1.524 1_556 S
C486 H505 0.913 . S
C487 H463 0.950 . S
C487 C486 1.524 1_554 S
C487 C488 1.415 1_554 S
C488 H464 0.950 1_556 S
C488 C483 1.363 . S
C488 C487 1.415 1_556 S
C489 H465 0.951 . S
C489 C490 1.366 . S
C489 C491 1.388 . S
C490 C489 1.366 . S
C490 C494 1.385 1_556 S
C491 H466 0.951 . S
C491 C489 1.388 . S
C491 C492 1.366 . S
C492 C491 1.366 . S
C492 C493 1.414 . S
C492 C495 1.499 . S
C493 H467 0.950 1_556 S
C493 C492 1.414 . S
C493 C494 1.374 1_556 S
C494 H468 0.950 . S
C494 C490 1.385 1_554 S
C494 C493 1.374 1_554 S
C495 C492 1.499 . S
C495 C496 1.373 . S
C495 C497 1.389 . S
C496 H469 0.950 . S
C496 C482 1.377 . S
C496 C495 1.373 . S
C497 C481 1.377 . S
C497 C495 1.389 . S
C497 C498 1.524 . S
C498 C497 1.524 . S
C498 C499 1.397 . S
C498 C503 1.363 . S
C499 H470 0.950 . S
C499 C498 1.397 . S
C499 C500 1.334 . S
C500 H471 0.950 . S
C500 C499 1.334 . S
C500 C501 1.287 . S
C501 C500 1.287 . S
C501 C502 1.524 . S
C501 H504 0.999 . S
C502 H472 0.950 . S
C502 C501 1.524 . S
C502 C503 1.415 . S
C503 H473 0.950 . S
C503 C498 1.363 . S
C503 C502 1.415 . S
H504 C501 0.999 . S
H505 C486 0.913 . S
H506 C524 0.951 . S
H507 C526 0.951 . S
H508 C528 0.950 . S
H509 C529 0.950 . S
H510 C531 0.950 . S
H511 C534 0.950 . S
H512 C535 0.950 . S
H513 C537 0.950 . S
H514 C538 0.950 . S
H515 C539 0.951 . S
H516 C541 0.951 . S
H517 C543 0.950 . S
H518 C544 0.950 . S
H519 C546 0.950 . S
H520 C549 0.950 . S
H521 C550 0.950 . S
H522 C552 0.950 . S
H523 C553 0.950 . S
C524 H506 0.951 . S
C524 C525 1.366 . S
C524 C526 1.388 . S
C525 C524 1.366 . S
C525 C529 1.385 . S
C526 H507 0.951 . S
C526 C524 1.388 . S
C526 C527 1.366 . S
C527 C526 1.366 . S
C527 C528 1.414 . S
C527 C530 1.499 . S
C528 H508 0.950 . S
C528 C527 1.414 . S
C528 C529 1.374 . S
C529 H509 0.950 . S
C529 C525 1.385 . S
C529 C528 1.374 . S
C530 C527 1.499 . S
C530 C531 1.373 . S
C530 C532 1.389 . S
C531 H510 0.950 . S
C531 C530 1.373 . S
C531 C547 1.377 . S
C532 C530 1.389 . S
C532 C533 1.524 . S
C532 C546 1.377 . S
C533 C532 1.524 . S
C533 C534 1.397 . S
C533 C538 1.363 . S
C534 H511 0.950 . S
C534 C533 1.397 . S
C534 C535 1.334 . S
C535 H512 0.950 . S
C535 C534 1.334 . S
C535 C536 1.287 . S
C536 C535 1.287 . S
C536 C537 1.524 . S
C536 H555 0.913 . S
C537 H513 0.950 . S
C537 C536 1.524 . S
C537 C538 1.415 . S
C538 H514 0.950 . S
C538 C533 1.363 . S
C538 C537 1.415 . S
C539 H515 0.951 . S
C539 C540 1.366 . S
C539 C541 1.388 . S
C540 C539 1.366 . S
C540 C544 1.385 . S
C541 H516 0.951 . S
C541 C539 1.388 . S
C541 C542 1.366 . S
C542 C541 1.366 . S
C542 C543 1.414 . S
C542 C545 1.499 . S
C543 H517 0.950 . S
C543 C542 1.414 . S
C543 C544 1.374 . S
C544 H518 0.950 . S
C544 C540 1.385 . S
C544 C543 1.374 . S
C545 C542 1.499 . S
C545 C546 1.373 . S
C545 C547 1.389 . S
C546 H519 0.950 . S
C546 C532 1.377 . S
C546 C545 1.373 . S
C547 C531 1.377 . S
C547 C545 1.389 . S
C547 C548 1.524 . S
C548 C547 1.524 . S
C548 C549 1.397 . S
C548 C553 1.363 . S
C549 H520 0.950 . S
C549 C548 1.397 . S
C549 C550 1.334 . S
C550 H521 0.950 . S
C550 C549 1.334 . S
C550 C551 1.287 . S
C551 C550 1.287 . S
C551 C552 1.524 . S
C551 H554 0.999 . S
C552 H522 0.950 . S
C552 C551 1.524 . S
C552 C553 1.415 . S
C553 H523 0.950 . S
C553 C548 1.363 . S
C553 C552 1.415 . S
H554 C551 0.999 . S
H555 C536 0.913 . S
H556 C574 0.951 . S
H557 C576 0.951 . S
H558 C578 0.950 . S
H559 C579 0.950 . S
H560 C581 0.950 . S
H561 C584 0.950 . S
H562 C585 0.950 . S
H563 C587 0.950 . S
H564 C588 0.950 . S
H565 C589 0.951 1_655 S
H566 C591 0.951 . S
H567 C593 0.950 . S
H568 C594 0.950 . S
H569 C596 0.950 . S
H570 C599 0.950 . S
H571 C600 0.950 . S
H572 C602 0.950 . S
H573 C603 0.950 . S
C574 H556 0.951 . S
C574 C575 1.366 . S
C574 C576 1.388 . S
C575 C574 1.366 . S
C575 C579 1.385 . S
C576 H557 0.951 . S
C576 C574 1.388 . S
C576 C577 1.366 . S
C577 C576 1.366 . S
C577 C578 1.414 . S
C577 C580 1.499 . S
C578 H558 0.950 . S
C578 C577 1.414 . S
C578 C579 1.374 . S
C579 H559 0.950 . S
C579 C575 1.385 . S
C579 C578 1.374 . S
C580 C577 1.499 . S
C580 C581 1.373 . S
C580 C582 1.389 . S
C581 H560 0.950 . S
C581 C580 1.373 . S
C581 C597 1.377 . S
C582 C580 1.389 . S
C582 C583 1.524 . S
C582 C596 1.377 . S
C583 C582 1.524 . S
C583 C584 1.397 . S
C583 C588 1.363 . S
C584 H561 0.950 . S
C584 C583 1.397 . S
C584 C585 1.334 . S
C585 H562 0.950 . S
C585 C584 1.334 . S
C585 C586 1.287 . S
C586 C585 1.287 . S
C586 C587 1.524 . S
C586 H605 0.913 . S
C587 H563 0.950 . S
C587 C586 1.524 . S
C587 C588 1.415 . S
C588 H564 0.950 . S
C588 C583 1.363 . S
C588 C587 1.415 . S
C589 H565 0.951 1_455 S
C589 C590 1.366 . S
C589 C591 1.388 . S
C590 C589 1.366 . S
C590 C594 1.385 . S
C591 H566 0.951 . S
C591 C589 1.388 . S
C591 C592 1.366 . S
C592 C591 1.366 . S
C592 C593 1.414 . S
C592 C595 1.499 . S
C593 H567 0.950 . S
C593 C592 1.414 . S
C593 C594 1.374 . S
C594 H568 0.950 . S
C594 C590 1.385 . S
C594 C593 1.374 . S
C595 C592 1.499 . S
C595 C596 1.373 . S
C595 C597 1.389 . S
C596 H569 0.950 . S
C596 C582 1.377 . S
C596 C595 1.373 . S
C597 C581 1.377 . S
C597 C595 1.389 . S
C597 C598 1.524 . S
C598 C597 1.524 . S
C598 C599 1.397 1_554 S
C598 C603 1.363 . S
C599 H570 0.950 . S
C599 C598 1.397 1_556 S
C599 C600 1.334 . S
C600 H571 0.950 . S
C600 C599 1.334 . S
C600 C601 1.287 . S
C601 C600 1.287 . S
C601 C602 1.524 1_455 S
C601 H604 0.999 1_455 S
C602 H572 0.950 . S
C602 C601 1.524 1_655 S
C602 C603 1.415 1_656 S
C603 H573 0.950 . S
C603 C598 1.363 . S
C603 C602 1.415 1_454 S
H604 C601 0.999 1_655 S
H605 C586 0.913 . S
H606 C624 0.951 . S
H607 C626 0.951 . S
H608 C628 0.950 . S
H609 C629 0.950 . S
H610 C631 0.950 . S
H611 C634 0.950 . S
H612 C635 0.952 . S
H613 C637 0.950 . S
H614 C638 0.950 . S
H615 C639 0.951 . S
H616 C641 0.951 . S
H617 C643 0.950 . S
H618 C644 0.950 . S
H619 C646 0.950 . S
H620 C649 0.950 . S
H621 C650 0.950 . S
H622 C652 0.950 . S
H623 C653 0.950 . S
C624 H606 0.951 . S
C624 C625 1.366 . S
C624 C626 1.388 . S
C625 C624 1.366 . S
C625 C629 1.385 . S
C626 H607 0.951 . S
C626 C624 1.388 . S
C626 C627 1.366 . S
C627 C626 1.366 . S
C627 C628 1.414 . S
C627 C630 1.499 . S
C628 H608 0.950 . S
C628 C627 1.414 . S
C628 C629 1.374 . S
C629 H609 0.950 . S
C629 C625 1.385 . S
C629 C628 1.374 . S
C630 C627 1.499 . S
C630 C631 1.373 . S
C630 C632 1.389 . S
C631 H610 0.950 . S
C631 C630 1.373 . S
C631 C647 1.377 . S
C632 C630 1.389 . S
C632 C633 1.524 . S
C632 C646 1.377 . S
C633 C632 1.524 . S
C633 C634 1.397 . S
C633 C638 1.363 . S
C634 H611 0.950 . S
C634 C633 1.397 . S
C634 C635 1.330 1_556 S
C635 H612 0.952 . S
C635 C634 1.330 1_554 S
C635 C636 1.290 . S
C636 C635 1.290 . S
C636 C637 1.524 . S
C636 H655 0.913 . S
C637 H613 0.950 . S
C637 C636 1.524 . S
C637 C638 1.415 1_554 S
C638 H614 0.950 . S
C638 C633 1.363 . S
C638 C637 1.415 1_556 S
C639 H615 0.951 . S
C639 C640 1.366 . S
C639 C641 1.388 . S
C640 C639 1.366 . S
C640 C644 1.385 . S
C641 H616 0.951 . S
C641 C639 1.388 . S
C641 C642 1.366 . S
C642 C641 1.366 . S
C642 C643 1.414 . S
C642 C645 1.499 . S
C643 H617 0.950 . S
C643 C642 1.414 . S
C643 C644 1.374 . S
C644 H618 0.950 . S
C644 C640 1.385 . S
C644 C643 1.374 . S
C645 C642 1.499 . S
C645 C646 1.373 . S
C645 C647 1.389 . S
C646 H619 0.950 . S
C646 C632 1.377 . S
C646 C645 1.373 . S
C647 C631 1.377 . S
C647 C645 1.389 . S
C647 C648 1.524 . S
C648 C647 1.524 . S
C648 C649 1.397 . S
C648 C653 1.363 . S
C649 H620 0.950 . S
C649 C648 1.397 . S
C649 C650 1.334 . S
C650 H621 0.950 . S
C650 C649 1.334 . S
C650 C651 1.287 . S
C651 C650 1.287 . S
C651 C652 1.524 . S
C651 H654 0.999 . S
C652 H622 0.950 . S
C652 C651 1.524 . S
C652 C653 1.415 . S
C653 H623 0.950 . S
C653 C648 1.363 . S
C653 C652 1.415 . S
H654 C651 0.999 . S
H655 C636 0.913 . S
H656 C674 0.951 . S
H657 C676 0.951 . S
H658 C678 0.950 . S
H659 C679 0.950 . S
H660 C681 0.950 . S
H661 C684 0.950 . S
H662 C685 0.950 1_455 S
H663 C687 0.950 . S
H664 C688 0.950 . S
H665 C689 0.951 . S
H666 C691 0.951 . S
H667 C693 0.950 . S
H668 C694 0.950 . S
H669 C696 0.950 . S
H670 C699 0.950 . S
H671 C700 0.950 . S
H672 C702 0.950 . S
H673 C703 0.950 . S
C674 H656 0.951 . S
C674 C675 1.366 . S
C674 C676 1.388 . S
C675 C674 1.366 . S
C675 C679 1.385 . S
C676 H657 0.951 . S
C676 C674 1.388 . S
C676 C677 1.366 . S
C677 C676 1.366 . S
C677 C678 1.414 . S
C677 C680 1.499 . S
C678 H658 0.950 . S
C678 C677 1.414 . S
C678 C679 1.374 . S
C679 H659 0.950 . S
C679 C675 1.385 . S
C679 C678 1.374 . S
C680 C677 1.499 . S
C680 C681 1.373 . S
C680 C682 1.389 . S
C681 H660 0.950 . S
C681 C680 1.373 . S
C681 C697 1.377 . S
C682 C680 1.389 . S
C682 C683 1.524 . S
C682 C696 1.377 . S
C683 C682 1.524 . S
C683 C684 1.397 . S
C683 C688 1.363 . S
C684 H661 0.950 . S
C684 C683 1.397 . S
C684 C685 1.334 . S
C685 H662 0.950 1_655 S
C685 C684 1.334 . S
C685 C686 1.287 . S
C686 C685 1.287 . S
C686 C687 1.524 . S
C686 H705 0.913 1_655 S
C687 H663 0.950 . S
C687 C686 1.524 . S
C687 C688 1.415 . S
C688 H664 0.950 . S
C688 C683 1.363 . S
C688 C687 1.415 . S
C689 H665 0.951 . S
C689 C690 1.366 . S
C689 C691 1.388 . S
C690 C689 1.366 . S
C690 C694 1.385 . S
C691 H666 0.951 . S
C691 C689 1.388 . S
C691 C692 1.366 . S
C692 C691 1.366 . S
C692 C693 1.414 . S
C692 C695 1.499 . S
C693 H667 0.950 . S
C693 C692 1.414 . S
C693 C694 1.374 . S
C694 H668 0.950 . S
C694 C690 1.385 . S
C694 C693 1.374 . S
C695 C692 1.499 . S
C695 C696 1.373 . S
C695 C697 1.389 . S
C696 H669 0.950 . S
C696 C682 1.377 . S
C696 C695 1.373 . S
C697 C681 1.377 . S
C697 C695 1.389 . S
C697 C698 1.524 . S
C698 C697 1.524 . S
C698 C699 1.397 . S
C698 C703 1.363 . S
C699 H670 0.950 . S
C699 C698 1.397 . S
C699 C700 1.334 . S
C700 H671 0.950 . S
C700 C699 1.334 . S
C700 C701 1.287 . S
C701 C700 1.287 . S
C701 C702 1.524 . S
C701 H704 0.999 . S
C702 H672 0.950 . S
C702 C701 1.524 . S
C702 C703 1.415 . S
C703 H673 0.950 . S
C703 C698 1.363 . S
C703 C702 1.415 . S
H704 C701 0.999 . S
H705 C686 0.913 1_455 S
H706 C724 0.951 . S
H707 C726 0.951 . S
H708 C728 0.950 . S
H709 C729 0.950 . S
H710 C731 0.950 . S
H711 C734 0.950 . S
H712 C735 0.950 . S
H713 C737 0.950 . S
H714 C738 0.950 . S
H715 C739 0.951 . S
H716 C741 0.951 . S
H717 C743 0.950 . S
H718 C744 0.950 . S
H719 C746 0.950 . S
H720 C749 0.950 . S
H721 C750 0.950 . S
H722 C752 0.950 . S
H723 C753 0.950 . S
C724 H706 0.951 . S
C724 C725 1.366 . S
C724 C726 1.388 . S
C725 C724 1.366 . S
C725 C729 1.385 . S
C726 H707 0.951 . S
C726 C724 1.388 . S
C726 C727 1.366 . S
C727 C726 1.366 . S
C727 C728 1.414 . S
C727 C730 1.499 . S
C728 H708 0.950 . S
C728 C727 1.414 . S
C728 C729 1.374 . S
C729 H709 0.950 . S
C729 C725 1.385 . S
C729 C728 1.374 . S
C730 C727 1.499 . S
C730 C731 1.373 . S
C730 C732 1.389 . S
C731 H710 0.950 . S
C731 C730 1.373 . S
C731 C747 1.377 . S
C732 C730 1.389 . S
C732 C733 1.524 . S
C732 C746 1.377 . S
C733 C732 1.524 . S
C733 C734 1.397 . S
C733 C738 1.363 . S
C734 H711 0.950 . S
C734 C733 1.397 . S
C734 C735 1.334 . S
C735 H712 0.950 . S
C735 C734 1.334 . S
C735 C736 1.287 . S
C736 C735 1.287 . S
C736 C737 1.524 . S
C736 H755 0.913 . S
C737 H713 0.950 . S
C737 C736 1.524 . S
C737 C738 1.415 . S
C738 H714 0.950 . S
C738 C733 1.363 . S
C738 C737 1.415 . S
C739 H715 0.951 . S
C739 C740 1.366 . S
C739 C741 1.388 . S
C740 C739 1.366 . S
C740 C744 1.385 . S
C741 H716 0.951 . S
C741 C739 1.388 . S
C741 C742 1.366 . S
C742 C741 1.366 . S
C742 C743 1.414 . S
C742 C745 1.499 . S
C743 H717 0.950 . S
C743 C742 1.414 . S
C743 C744 1.374 . S
C744 H718 0.950 . S
C744 C740 1.385 . S
C744 C743 1.374 . S
C745 C742 1.499 . S
C745 C746 1.373 . S
C745 C747 1.389 . S
C746 H719 0.950 . S
C746 C732 1.377 . S
C746 C745 1.373 . S
C747 C731 1.377 . S
C747 C745 1.389 . S
C747 C748 1.524 . S
C748 C747 1.524 . S
C748 C749 1.397 . S
C748 C753 1.363 . S
C749 H720 0.950 . S
C749 C748 1.397 . S
C749 C750 1.334 . S
C750 H721 0.950 . S
C750 C749 1.334 . S
C750 C751 1.287 . S
C751 C750 1.287 . S
C751 C752 1.524 . S
C751 H754 0.999 . S
C752 H722 0.950 . S
C752 C751 1.524 . S
C752 C753 1.415 . S
C753 H723 0.950 . S
C753 C748 1.363 . S
C753 C752 1.415 . S
H754 C751 0.999 . S
H755 C736 0.913 . S
H756 C774 0.951 . S
H757 C776 0.951 . S
H758 C778 0.950 . S
H759 C779 0.950 . S
H760 C781 0.950 . S
H761 C784 0.950 . S
H762 C785 0.950 . S
H763 C787 0.950 1_545 S
H764 C788 0.950 . S
H765 C789 0.951 . S
H766 C791 0.951 . S
H767 C793 0.950 1_545 S
H768 C794 0.950 1_545 S
H769 C796 0.950 . S
H770 C799 0.950 . S
H771 C800 0.950 . S
H772 C802 0.950 . S
H773 C803 0.950 1_655 S
C774 H756 0.951 . S
C774 C775 1.366 . S
C774 C776 1.388 . S
C775 C774 1.366 . S
C775 C779 1.385 . S
C776 H757 0.951 . S
C776 C774 1.388 . S
C776 C777 1.366 . S
C777 C776 1.366 . S
C777 C778 1.414 . S
C777 C780 1.499 . S
C778 H758 0.950 . S
C778 C777 1.414 . S
C778 C779 1.374 . S
C779 H759 0.950 . S
C779 C775 1.385 . S
C779 C778 1.374 . S
C780 C777 1.499 . S
C780 C781 1.373 . S
C780 C782 1.389 . S
C781 H760 0.950 . S
C781 C780 1.373 . S
C781 C797 1.377 . S
C782 C780 1.389 . S
C782 C783 1.524 . S
C782 C796 1.377 . S
C783 C782 1.524 . S
C783 C784 1.397 . S
C783 C788 1.363 . S
C784 H761 0.950 . S
C784 C783 1.397 . S
C784 C785 1.334 . S
C785 H762 0.950 . S
C785 C784 1.334 . S
C785 C786 1.287 . S
C786 C785 1.287 . S
C786 C787 1.524 . S
C786 H805 0.913 . S
C787 H763 0.950 1_565 S
C787 C786 1.524 . S
C787 C788 1.415 . S
C788 H764 0.950 . S
C788 C783 1.363 . S
C788 C787 1.415 . S
C789 H765 0.951 . S
C789 C790 1.366 . S
C789 C791 1.388 . S
C790 C789 1.366 . S
C790 C794 1.385 . S
C791 H766 0.951 . S
C791 C789 1.388 . S
C791 C792 1.366 . S
C792 C791 1.366 . S
C792 C793 1.414 . S
C792 C795 1.499 . S
C793 H767 0.950 1_565 S
C793 C792 1.414 . S
C793 C794 1.374 . S
C794 H768 0.950 1_565 S
C794 C790 1.385 . S
C794 C793 1.374 . S
C795 C792 1.499 . S
C795 C796 1.373 . S
C795 C797 1.389 . S
C796 H769 0.950 . S
C796 C782 1.377 . S
C796 C795 1.373 . S
C797 C781 1.377 . S
C797 C795 1.389 . S
C797 C798 1.524 . S
C798 C797 1.524 . S
C798 C799 1.397 1_655 S
C798 C803 1.363 1_655 S
C799 H770 0.950 . S
C799 C798 1.397 1_455 S
C799 C800 1.334 . S
C800 H771 0.950 . S
C800 C799 1.334 . S
C800 C801 1.287 . S
C801 C800 1.287 . S
C801 C802 1.524 . S
C801 H804 0.999 . S
C802 H772 0.950 . S
C802 C801 1.524 . S
C802 C803 1.415 . S
C803 H773 0.950 1_455 S
C803 C798 1.363 1_455 S
C803 C802 1.415 . S
H804 C801 0.999 . S
H805 C786 0.913 . S
H806 C824 0.951 . S
H807 C826 0.951 . S
H808 C828 0.950 . S
H809 C829 0.950 . S
H810 C831 0.950 . S
H811 C834 0.950 . S
H812 C835 0.950 . S
H813 C837 0.950 . S
H814 C838 0.950 . S
H815 C839 0.951 . S
H816 C841 0.951 . S
H817 C843 0.950 . S
H818 C844 0.950 . S
H819 C846 0.950 . S
H820 C849 0.950 . S
H821 C850 0.950 1_565 S
H822 C852 0.950 . S
H823 C853 0.950 . S
C824 H806 0.951 . S
C824 C825 1.366 . S
C824 C826 1.388 . S
C825 C824 1.366 . S
C825 C829 1.385 . S
C826 H807 0.951 . S
C826 C824 1.388 . S
C826 C827 1.366 . S
C827 C826 1.366 . S
C827 C828 1.414 . S
C827 C830 1.499 . S
C828 H808 0.950 . S
C828 C827 1.414 . S
C828 C829 1.374 . S
C829 H809 0.950 . S
C829 C825 1.385 . S
C829 C828 1.374 . S
C830 C827 1.499 . S
C830 C831 1.373 . S
C830 C832 1.389 . S
C831 H810 0.950 . S
C831 C830 1.373 . S
C831 C847 1.377 . S
C832 C830 1.389 . S
C832 C833 1.524 . S
C832 C846 1.377 . S
C833 C832 1.524 . S
C833 C834 1.397 . S
C833 C838 1.363 . S
C834 H811 0.950 . S
C834 C833 1.397 . S
C834 C835 1.334 . S
C835 H812 0.950 . S
C835 C834 1.334 . S
C835 C836 1.287 . S
C836 C835 1.287 . S
C836 C837 1.524 . S
C836 H855 0.913 . S
C837 H813 0.950 . S
C837 C836 1.524 . S
C837 C838 1.415 . S
C838 H814 0.950 . S
C838 C833 1.363 . S
C838 C837 1.415 . S
C839 H815 0.951 . S
C839 C840 1.366 . S
C839 C841 1.388 . S
C840 C839 1.366 . S
C840 C844 1.385 . S
C841 H816 0.951 . S
C841 C839 1.388 . S
C841 C842 1.366 . S
C842 C841 1.366 . S
C842 C843 1.414 . S
C842 C845 1.499 . S
C843 H817 0.950 . S
C843 C842 1.414 . S
C843 C844 1.374 . S
C844 H818 0.950 . S
C844 C840 1.385 . S
C844 C843 1.374 . S
C845 C842 1.499 . S
C845 C846 1.373 . S
C845 C847 1.389 . S
C846 H819 0.950 . S
C846 C832 1.377 . S
C846 C845 1.373 . S
C847 C831 1.377 . S
C847 C845 1.389 . S
C847 C848 1.524 . S
C848 C847 1.524 . S
C848 C849 1.397 . S
C848 C853 1.363 . S
C849 H820 0.950 . S
C849 C848 1.397 . S
C849 C850 1.334 . S
C850 H821 0.950 1_545 S
C850 C849 1.334 . S
C850 C851 1.287 . S
C851 C850 1.287 . S
C851 C852 1.524 . S
C851 H854 0.999 . S
C852 H822 0.950 . S
C852 C851 1.524 . S
C852 C853 1.415 . S
C853 H823 0.950 . S
C853 C848 1.363 . S
C853 C852 1.415 . S
H854 C851 0.999 . S
H855 C836 0.913 . S
H856 C874 0.951 . S
H857 C876 0.951 . S
H858 C878 0.950 . S
H859 C879 0.950 . S
H860 C881 0.950 . S
H861 C884 0.950 . S
H862 C885 0.950 . S
H863 C887 0.950 . S
H864 C888 0.950 . S
H865 C889 0.951 . S
H866 C891 0.951 . S
H867 C893 0.950 . S
H868 C894 0.950 . S
H869 C896 0.950 . S
H870 C899 0.950 . S
H871 C900 0.950 . S
H872 C902 0.950 . S
H873 C903 0.950 . S
C874 H856 0.951 . S
C874 C875 1.366 . S
C874 C876 1.388 . S
C875 C874 1.366 . S
C875 C879 1.385 . S
C876 H857 0.951 . S
C876 C874 1.388 . S
C876 C877 1.366 . S
C877 C876 1.366 . S
C877 C878 1.414 . S
C877 C880 1.499 . S
C878 H858 0.950 . S
C878 C877 1.414 . S
C878 C879 1.374 . S
C879 H859 0.950 . S
C879 C875 1.385 . S
C879 C878 1.374 . S
C880 C877 1.499 . S
C880 C881 1.373 . S
C880 C882 1.389 . S
C881 H860 0.950 . S
C881 C880 1.373 . S
C881 C897 1.377 . S
C882 C880 1.389 . S
C882 C883 1.524 . S
C882 C896 1.377 . S
C883 C882 1.524 . S
C883 C884 1.397 . S
C883 C888 1.363 . S
C884 H861 0.950 . S
C884 C883 1.397 . S
C884 C885 1.334 . S
C885 H862 0.950 . S
C885 C884 1.334 . S
C885 C886 1.287 . S
C886 C885 1.287 . S
C886 C887 1.524 . S
C886 H905 0.913 . S
C887 H863 0.950 . S
C887 C886 1.524 . S
C887 C888 1.415 . S
C888 H864 0.950 . S
C888 C883 1.363 . S
C888 C887 1.415 . S
C889 H865 0.951 . S
C889 C890 1.366 . S
C889 C891 1.388 . S
C890 C889 1.366 . S
C890 C894 1.385 . S
C891 H866 0.951 . S
C891 C889 1.388 . S
C891 C892 1.366 . S
C892 C891 1.366 . S
C892 C893 1.414 . S
C892 C895 1.499 . S
C893 H867 0.950 . S
C893 C892 1.414 . S
C893 C894 1.374 . S
C894 H868 0.950 . S
C894 C890 1.385 . S
C894 C893 1.374 . S
C895 C892 1.499 . S
C895 C896 1.373 . S
C895 C897 1.389 . S
C896 H869 0.950 . S
C896 C882 1.377 . S
C896 C895 1.373 . S
C897 C881 1.377 . S
C897 C895 1.389 . S
C897 C898 1.524 . S
C898 C897 1.524 . S
C898 C899 1.397 . S
C898 C903 1.363 . S
C899 H870 0.950 . S
C899 C898 1.397 . S
C899 C900 1.334 . S
C900 H871 0.950 . S
C900 C899 1.334 . S
C900 C901 1.287 . S
C901 C900 1.287 . S
C901 C902 1.524 . S
C901 H904 0.999 . S
C902 H872 0.950 . S
C902 C901 1.524 . S
C902 C903 1.415 . S
C903 H873 0.950 . S
C903 C898 1.363 . S
C903 C902 1.415 . S
H904 C901 0.999 . S
H905 C886 0.913 . S
H906 C924 0.951 . S
H907 C926 0.951 . S
H908 C928 0.950 . S
H909 C929 0.950 . S
H910 C931 0.950 . S
H911 C934 0.950 . S
H912 C935 0.950 . S
H913 C937 0.950 . S
H914 C938 0.950 . S
H915 C939 0.951 . S
H916 C941 0.951 . S
H917 C943 0.950 . S
H918 C944 0.950 . S
H919 C946 0.950 . S
H920 C949 0.950 . S
H921 C950 0.950 . S
H922 C952 0.950 . S
H923 C953 0.950 . S
C924 H906 0.951 . S
C924 C925 1.366 . S
C924 C926 1.388 . S
C925 C924 1.366 . S
C925 C929 1.385 . S
C926 H907 0.951 . S
C926 C924 1.388 . S
C926 C927 1.366 . S
C927 C926 1.366 . S
C927 C928 1.414 . S
C927 C930 1.499 . S
C928 H908 0.950 . S
C928 C927 1.414 . S
C928 C929 1.374 . S
C929 H909 0.950 . S
C929 C925 1.385 . S
C929 C928 1.374 . S
C930 C927 1.499 . S
C930 C931 1.373 . S
C930 C932 1.389 . S
C931 H910 0.950 . S
C931 C930 1.373 . S
C931 C947 1.377 . S
C932 C930 1.389 . S
C932 C933 1.524 . S
C932 C946 1.377 . S
C933 C932 1.524 . S
C933 C934 1.397 . S
C933 C938 1.363 . S
C934 H911 0.950 . S
C934 C933 1.397 . S
C934 C935 1.334 1_455 S
C935 H912 0.950 . S
C935 C934 1.334 1_655 S
C935 C936 1.287 . S
C936 C935 1.287 . S
C936 C937 1.524 . S
C936 H955 0.913 . S
C937 H913 0.950 . S
C937 C936 1.524 . S
C937 C938 1.415 1_655 S
C938 H914 0.950 . S
C938 C933 1.363 . S
C938 C937 1.415 1_455 S
C939 H915 0.951 . S
C939 C940 1.366 . S
C939 C941 1.388 . S
C940 C939 1.366 . S
C940 C944 1.385 . S
C941 H916 0.951 . S
C941 C939 1.388 . S
C941 C942 1.366 . S
C942 C941 1.366 . S
C942 C943 1.414 . S
C942 C945 1.499 . S
C943 H917 0.950 . S
C943 C942 1.414 . S
C943 C944 1.374 . S
C944 H918 0.950 . S
C944 C940 1.385 . S
C944 C943 1.374 . S
C945 C942 1.499 . S
C945 C946 1.373 . S
C945 C947 1.389 . S
C946 H919 0.950 . S
C946 C932 1.377 . S
C946 C945 1.373 . S
C947 C931 1.377 . S
C947 C945 1.389 . S
C947 C948 1.524 . S
C948 C947 1.524 . S
C948 C949 1.397 . S
C948 C953 1.363 . S
C949 H920 0.950 . S
C949 C948 1.397 . S
C949 C950 1.334 . S
C950 H921 0.950 . S
C950 C949 1.334 . S
C950 C951 1.287 . S
C951 C950 1.287 . S
C951 C952 1.524 . S
C951 H954 0.999 . S
C952 H922 0.950 . S
C952 C951 1.524 . S
C952 C953 1.415 . S
C953 H923 0.950 . S
C953 C948 1.363 . S
C953 C952 1.415 . S
H954 C951 0.999 . S
H955 C936 0.913 . S
H956 C974 0.951 . S
H957 C976 0.951 . S
H958 C978 0.950 . S
H959 C979 0.950 . S
H960 C981 0.950 . S
H961 C984 0.950 . S
H962 C985 0.950 1_554 S
H963 C987 0.950 . S
H964 C988 0.950 . S
H965 C989 0.951 . S
H966 C991 0.951 . S
H967 C993 0.950 1_545 S
H968 C994 0.950 . S
H969 C996 0.950 . S
H970 C999 0.950 . S
H971 C1000 0.950 . S
H972 C1002 0.950 . S
H973 C1003 0.950 . S
C974 H956 0.951 . S
C974 C975 1.366 . S
C974 C976 1.388 . S
C975 C974 1.366 . S
C975 C979 1.385 . S
C976 H957 0.951 . S
C976 C974 1.388 . S
C976 C977 1.366 . S
C977 C976 1.366 . S
C977 C978 1.414 . S
C977 C980 1.499 . S
C978 H958 0.950 . S
C978 C977 1.414 . S
C978 C979 1.374 . S
C979 H959 0.950 . S
C979 C975 1.385 . S
C979 C978 1.374 . S
C980 C977 1.499 . S
C980 C981 1.373 . S
C980 C982 1.389 . S
C981 H960 0.950 . S
C981 C980 1.373 . S
C981 C997 1.377 . S
C982 C980 1.389 . S
C982 C983 1.524 . S
C982 C996 1.377 . S
C983 C982 1.524 . S
C983 C984 1.397 . S
C983 C988 1.363 1_565 S
C984 H961 0.950 . S
C984 C983 1.397 . S
C984 C985 1.334 . S
C985 H962 0.950 1_556 S
C985 C984 1.334 . S
C985 C986 1.287 1_565 S
C986 C985 1.287 1_545 S
C986 C987 1.524 . S
C986 H1005 0.913 1_556 S
C987 H963 0.950 . S
C987 C986 1.524 . S
C987 C988 1.415 . S
C988 H964 0.950 . S
C988 C983 1.363 1_545 S
C988 C987 1.415 . S
C989 H965 0.951 . S
C989 C990 1.366 . S
C989 C991 1.388 . S
C990 C989 1.366 . S
C990 C994 1.385 1_565 S
C991 H966 0.951 . S
C991 C989 1.388 . S
C991 C992 1.366 . S
C992 C991 1.366 . S
C992 C993 1.414 . S
C992 C995 1.499 . S
C993 H967 0.950 1_565 S
C993 C992 1.414 . S
C993 C994 1.374 1_565 S
C994 H968 0.950 . S
C994 C990 1.385 1_545 S
C994 C993 1.374 1_545 S
C995 C992 1.499 . S
C995 C996 1.373 . S
C995 C997 1.389 . S
C996 H969 0.950 . S
C996 C982 1.377 . S
C996 C995 1.373 . S
C997 C981 1.377 . S
C997 C995 1.389 . S
C997 C998 1.524 . S
C998 C997 1.524 . S
C998 C999 1.397 . S
C998 C1003 1.363 . S
C999 H970 0.950 . S
C999 C998 1.397 . S
C999 C1000 1.334 . S
C1000 H971 0.950 . S
C1000 C999 1.334 . S
C1000 C1001 1.287 . S
C1001 C1000 1.287 . S
C1001 C1002 1.524 . S
C1001 H1004 0.999 . S
C1002 H972 0.950 . S
C1002 C1001 1.524 . S
C1002 C1003 1.415 . S
C1003 H973 0.950 . S
C1003 C998 1.363 . S
C1003 C1002 1.415 . S
H1004 C1001 0.999 . S
H1005 C986 0.913 1_554 S
H1006 C1024 0.951 . S
H1007 C1026 0.951 . S
H1008 C1028 0.950 . S
H1009 C1029 0.950 . S
H1010 C1031 0.950 . S
H1011 C1034 0.950 . S
H1012 C1035 0.950 . S
H1013 C1037 0.950 . S
H1014 C1038 0.950 . S
H1015 C1039 0.951 . S
H1016 C1041 0.951 . S
H1017 C1043 0.950 . S
H1018 C1044 0.950 . S
H1019 C1046 0.950 . S
H1020 C1049 0.950 . S
H1021 C1050 0.950 . S
H1022 C1052 0.950 . S
H1023 C1053 0.950 . S
C1024 H1006 0.951 . S
C1024 C1025 1.366 . S
C1024 C1026 1.388 . S
C1025 C1024 1.366 . S
C1025 C1029 1.385 . S
C1026 H1007 0.951 . S
C1026 C1024 1.388 . S
C1026 C1027 1.366 . S
C1027 C1026 1.366 . S
C1027 C1028 1.414 . S
C1027 C1030 1.499 . S
C1028 H1008 0.950 . S
C1028 C1027 1.414 . S
C1028 C1029 1.374 . S
C1029 H1009 0.950 . S
C1029 C1025 1.385 . S
C1029 C1028 1.374 . S
C1030 C1027 1.499 . S
C1030 C1031 1.373 . S
C1030 C1032 1.389 . S
C1031 H1010 0.950 . S
C1031 C1030 1.373 . S
C1031 C1047 1.377 . S
C1032 C1030 1.389 . S
C1032 C1033 1.524 . S
C1032 C1046 1.377 . S
C1033 C1032 1.524 . S
C1033 C1034 1.397 . S
C1033 C1038 1.363 . S
C1034 H1011 0.950 . S
C1034 C1033 1.397 . S
C1034 C1035 1.334 . S
C1035 H1012 0.950 . S
C1035 C1034 1.334 . S
C1035 C1036 1.287 . S
C1036 C1035 1.287 . S
C1036 C1037 1.524 . S
C1036 H1055 0.913 . S
C1037 H1013 0.950 . S
C1037 C1036 1.524 . S
C1037 C1038 1.415 . S
C1038 H1014 0.950 . S
C1038 C1033 1.363 . S
C1038 C1037 1.415 . S
C1039 H1015 0.951 . S
C1039 C1040 1.366 . S
C1039 C1041 1.388 . S
C1040 C1039 1.366 . S
C1040 C1044 1.385 . S
C1041 H1016 0.951 . S
C1041 C1039 1.388 . S
C1041 C1042 1.366 . S
C1042 C1041 1.366 . S
C1042 C1043 1.414 . S
C1042 C1045 1.499 . S
C1043 H1017 0.950 . S
C1043 C1042 1.414 . S
C1043 C1044 1.374 . S
C1044 H1018 0.950 . S
C1044 C1040 1.385 . S
C1044 C1043 1.374 . S
C1045 C1042 1.499 . S
C1045 C1046 1.373 . S
C1045 C1047 1.389 . S
C1046 H1019 0.950 . S
C1046 C1032 1.377 . S
C1046 C1045 1.373 . S
C1047 C1031 1.377 . S
C1047 C1045 1.389 . S
C1047 C1048 1.524 . S
C1048 C1047 1.524 . S
C1048 C1049 1.397 . S
C1048 C1053 1.363 . S
C1049 H1020 0.950 . S
C1049 C1048 1.397 . S
C1049 C1050 1.334 . S
C1050 H1021 0.950 . S
C1050 C1049 1.334 . S
C1050 C1051 1.287 . S
C1051 C1050 1.287 . S
C1051 C1052 1.524 1_545 S
C1051 H1054 0.999 1_545 S
C1052 H1022 0.950 . S
C1052 C1051 1.524 1_565 S
C1052 C1053 1.415 1_565 S
C1053 H1023 0.950 . S
C1053 C1048 1.363 . S
C1053 C1052 1.415 1_545 S
H1054 C1051 0.999 1_565 S
H1055 C1036 0.913 . S
H1056 C1074 0.951 . S
H1057 C1076 0.951 . S
H1058 C1078 0.950 . S
H1059 C1079 0.950 . S
H1060 C1081 0.950 . S
H1061 C1084 0.950 . S
H1062 C1085 0.950 . S
H1063 C1087 0.950 . S
H1064 C1088 0.950 . S
H1065 C1089 0.951 . S
H1066 C1091 0.951 . S
H1067 C1093 0.950 . S
H1068 C1094 0.950 . S
H1069 C1096 0.950 . S
H1070 C1099 0.950 . S
H1071 C1100 0.950 . S
H1072 C1102 0.950 . S
H1073 C1103 0.950 1_554 S
C1074 H1056 0.951 . S
C1074 C1075 1.366 . S
C1074 C1076 1.388 . S
C1075 C1074 1.366 . S
C1075 C1079 1.385 . S
C1076 H1057 0.951 . S
C1076 C1074 1.388 . S
C1076 C1077 1.366 . S
C1077 C1076 1.366 . S
C1077 C1078 1.414 . S
C1077 C1080 1.499 . S
C1078 H1058 0.950 . S
C1078 C1077 1.414 . S
C1078 C1079 1.374 . S
C1079 H1059 0.950 . S
C1079 C1075 1.385 . S
C1079 C1078 1.374 . S
C1080 C1077 1.499 . S
C1080 C1081 1.373 . S
C1080 C1082 1.389 . S
C1081 H1060 0.950 . S
C1081 C1080 1.373 . S
C1081 C1097 1.377 . S
C1082 C1080 1.389 . S
C1082 C1083 1.524 . S
C1082 C1096 1.377 . S
C1083 C1082 1.524 . S
C1083 C1084 1.397 . S
C1083 C1088 1.363 . S
C1084 H1061 0.950 . S
C1084 C1083 1.397 . S
C1084 C1085 1.334 . S
C1085 H1062 0.950 . S
C1085 C1084 1.334 . S
C1085 C1086 1.287 . S
C1086 C1085 1.287 . S
C1086 C1087 1.524 . S
C1086 H1105 0.913 . S
C1087 H1063 0.950 . S
C1087 C1086 1.524 . S
C1087 C1088 1.415 . S
C1088 H1064 0.950 . S
C1088 C1083 1.363 . S
C1088 C1087 1.415 . S
C1089 H1065 0.951 . S
C1089 C1090 1.366 . S
C1089 C1091 1.388 . S
C1090 C1089 1.366 . S
C1090 C1094 1.385 . S
C1091 H1066 0.951 . S
C1091 C1089 1.388 . S
C1091 C1092 1.366 . S
C1092 C1091 1.366 . S
C1092 C1093 1.414 . S
C1092 C1095 1.499 . S
C1093 H1067 0.950 . S
C1093 C1092 1.414 . S
C1093 C1094 1.374 . S
C1094 H1068 0.950 . S
C1094 C1090 1.385 . S
C1094 C1093 1.374 . S
C1095 C1092 1.499 . S
C1095 C1096 1.373 . S
C1095 C1097 1.389 . S
C1096 H1069 0.950 . S
C1096 C1082 1.377 . S
C1096 C1095 1.373 . S
C1097 C1081 1.377 . S
C1097 C1095 1.389 . S
C1097 C1098 1.524 . S
C1098 C1097 1.524 . S
C1098 C1099 1.397 . S
C1098 C1103 1.363 1_554 S
C1099 H1070 0.950 . S
C1099 C1098 1.397 . S
C1099 C1100 1.334 1_554 S
C1100 H1071 0.950 . S
C1100 C1099 1.334 1_556 S
C1100 C1101 1.287 . S
C1101 C1100 1.287 . S
C1101 C1102 1.524 . S
C1101 H1104 0.999 . S
C1102 H1072 0.950 . S
C1102 C1101 1.524 . S
C1102 C1103 1.415 . S
C1103 H1073 0.950 1_556 S
C1103 C1098 1.363 1_556 S
C1103 C1102 1.415 . S
H1104 C1101 0.999 . S
H1105 C1086 0.913 . S
H1106 C1124 0.951 . S
H1107 C1126 0.951 . S
H1108 C1128 0.950 . S
H1109 C1129 0.950 . S
H1110 C1131 0.950 . S
H1111 C1134 0.950 . S
H1112 C1135 0.950 . S
H1113 C1137 0.950 . S
H1114 C1138 0.950 . S
H1115 C1139 0.951 . S
H1116 C1141 0.951 . S
H1117 C1143 0.950 . S
H1118 C1144 0.950 . S
H1119 C1146 0.950 . S
H1120 C1149 0.950 . S
H1121 C1150 0.950 . S
H1122 C1152 0.950 . S
H1123 C1153 0.950 . S
C1124 H1106 0.951 . S
C1124 C1125 1.366 . S
C1124 C1126 1.388 . S
C1125 C1124 1.366 . S
C1125 C1129 1.385 . S
C1126 H1107 0.951 . S
C1126 C1124 1.388 . S
C1126 C1127 1.366 . S
C1127 C1126 1.366 . S
C1127 C1128 1.414 . S
C1127 C1130 1.499 . S
C1128 H1108 0.950 . S
C1128 C1127 1.414 . S
C1128 C1129 1.374 . S
C1129 H1109 0.950 . S
C1129 C1125 1.385 . S
C1129 C1128 1.374 . S
C1130 C1127 1.499 . S
C1130 C1131 1.373 . S
C1130 C1132 1.389 . S
C1131 H1110 0.950 . S
C1131 C1130 1.373 . S
C1131 C1147 1.377 . S
C1132 C1130 1.389 . S
C1132 C1133 1.524 . S
C1132 C1146 1.377 . S
C1133 C1132 1.524 . S
C1133 C1134 1.397 . S
C1133 C1138 1.363 . S
C1134 H1111 0.950 . S
C1134 C1133 1.397 . S
C1134 C1135 1.334 . S
C1135 H1112 0.950 . S
C1135 C1134 1.334 . S
C1135 C1136 1.287 . S
C1136 C1135 1.287 . S
C1136 C1137 1.524 . S
C1136 H1155 0.913 . S
C1137 H1113 0.950 . S
C1137 C1136 1.524 . S
C1137 C1138 1.415 . S
C1138 H1114 0.950 . S
C1138 C1133 1.363 . S
C1138 C1137 1.415 . S
C1139 H1115 0.951 . S
C1139 C1140 1.366 . S
C1139 C1141 1.388 . S
C1140 C1139 1.366 . S
C1140 C1144 1.385 . S
C1141 H1116 0.951 . S
C1141 C1139 1.388 . S
C1141 C1142 1.366 . S
C1142 C1141 1.366 . S
C1142 C1143 1.414 . S
C1142 C1145 1.499 . S
C1143 H1117 0.950 . S
C1143 C1142 1.414 . S
C1143 C1144 1.374 . S
C1144 H1118 0.950 . S
C1144 C1140 1.385 . S
C1144 C1143 1.374 . S
C1145 C1142 1.499 . S
C1145 C1146 1.373 . S
C1145 C1147 1.389 . S
C1146 H1119 0.950 . S
C1146 C1132 1.377 . S
C1146 C1145 1.373 . S
C1147 C1131 1.377 . S
C1147 C1145 1.389 . S
C1147 C1148 1.524 . S
C1148 C1147 1.524 . S
C1148 C1149 1.397 . S
C1148 C1153 1.363 . S
C1149 H1120 0.950 . S
C1149 C1148 1.397 . S
C1149 C1150 1.334 . S
C1150 H1121 0.950 . S
C1150 C1149 1.334 . S
C1150 C1151 1.287 . S
C1151 C1150 1.287 . S
C1151 C1152 1.524 . S
C1151 H1154 0.999 . S
C1152 H1122 0.950 . S
C1152 C1151 1.524 . S
C1152 C1153 1.415 . S
C1153 H1123 0.950 . S
C1153 C1148 1.363 . S
C1153 C1152 1.415 . S
H1154 C1151 0.999 . S
H1155 C1136 0.913 . S
H1156 C1174 0.951 . S
H1157 C1176 0.951 . S
H1158 C1178 0.950 . S
H1159 C1179 0.950 . S
H1160 C1181 0.950 . S
H1161 C1184 0.950 . S
H1162 C1185 0.950 . S
H1163 C1187 0.950 . S
H1164 C1188 0.958 . S
H1165 C1189 0.951 . S
H1166 C1191 0.951 . S
H1167 C1193 0.950 . S
H1168 C1194 0.950 1_455 S
H1169 C1196 0.950 . S
H1170 C1199 0.950 . S
H1171 C1200 0.950 . S
H1172 C1202 0.950 . S
H1173 C1203 0.950 . S
C1174 H1156 0.951 . S
C1174 C1175 1.366 . S
C1174 C1176 1.388 . S
C1175 C1174 1.366 . S
C1175 C1179 1.385 . S
C1176 H1157 0.951 . S
C1176 C1174 1.388 . S
C1176 C1177 1.366 . S
C1177 C1176 1.366 . S
C1177 C1178 1.414 . S
C1177 C1180 1.499 . S
C1178 H1158 0.950 . S
C1178 C1177 1.414 . S
C1178 C1179 1.374 . S
C1179 H1159 0.950 . S
C1179 C1175 1.385 . S
C1179 C1178 1.374 . S
C1180 C1177 1.499 . S
C1180 C1181 1.373 . S
C1180 C1182 1.389 . S
C1181 H1160 0.950 . S
C1181 C1180 1.373 . S
C1181 C1197 1.377 . S
C1182 C1180 1.389 . S
C1182 C1183 1.524 . S
C1182 C1196 1.377 . S
C1183 C1182 1.524 . S
C1183 C1184 1.397 . S
C1183 C1188 1.336 1_655 S
C1184 H1161 0.950 . S
C1184 C1183 1.397 . S
C1184 C1185 1.334 . S
C1185 H1162 0.950 . S
C1185 C1184 1.334 . S
C1185 C1186 1.287 1_655 S
C1186 C1185 1.287 1_455 S
C1186 C1187 1.524 . S
C1186 H1205 0.913 . S
C1187 H1163 0.950 . S
C1187 C1186 1.524 . S
C1187 C1188 1.434 . S
C1188 H1164 0.958 . S
C1188 C1183 1.336 1_455 S
C1188 C1187 1.434 . S
C1189 H1165 0.951 . S
C1189 C1190 1.366 . S
C1189 C1191 1.388 . S
C1190 C1189 1.366 . S
C1190 C1194 1.385 . S
C1191 H1166 0.951 . S
C1191 C1189 1.388 . S
C1191 C1192 1.366 . S
C1192 C1191 1.366 . S
C1192 C1193 1.414 . S
C1192 C1195 1.499 . S
C1193 H1167 0.950 . S
C1193 C1192 1.414 . S
C1193 C1194 1.374 . S
C1194 H1168 0.950 1_655 S
C1194 C1190 1.385 . S
C1194 C1193 1.374 . S
C1195 C1192 1.499 . S
C1195 C1196 1.373 . S
C1195 C1197 1.389 . S
C1196 H1169 0.950 . S
C1196 C1182 1.377 . S
C1196 C1195 1.373 . S
C1197 C1181 1.377 . S
C1197 C1195 1.389 . S
C1197 C1198 1.524 . S
C1198 C1197 1.524 . S
C1198 C1199 1.397 1_556 S
C1198 C1203 1.363 . S
C1199 H1170 0.950 . S
C1199 C1198 1.397 1_554 S
C1199 C1200 1.334 . S
C1200 H1171 0.950 . S
C1200 C1199 1.334 . S
C1200 C1201 1.287 . S
C1201 C1200 1.287 . S
C1201 C1202 1.524 1_554 S
C1201 H1204 0.999 . S
C1202 H1172 0.950 . S
C1202 C1201 1.524 1_556 S
C1202 C1203 1.415 . S
C1203 H1173 0.950 . S
C1203 C1198 1.363 . S
C1203 C1202 1.415 . S
H1204 C1201 0.999 . S
H1205 C1186 0.913 . S
H1206 C1224 0.951 . S
H1207 C1226 0.951 . S
H1208 C1228 0.950 . S
H1209 C1229 0.950 . S
H1210 C1231 0.950 . S
H1211 C1234 0.950 . S
H1212 C1235 0.950 . S
H1213 C1237 0.950 . S
H1214 C1238 0.950 . S
H1215 C1239 0.951 . S
H1216 C1241 0.951 . S
H1217 C1243 0.950 . S
H1218 C1244 0.950 . S
H1219 C1246 0.950 . S
H1220 C1249 0.950 . S
H1221 C1250 0.950 . S
H1222 C1252 0.950 . S
H1223 C1253 0.950 . S
C1224 H1206 0.951 . S
C1224 C1225 1.366 . S
C1224 C1226 1.388 . S
C1225 C1224 1.366 . S
C1225 C1229 1.385 . S
C1226 H1207 0.951 . S
C1226 C1224 1.388 . S
C1226 C1227 1.366 . S
C1227 C1226 1.366 . S
C1227 C1228 1.414 . S
C1227 C1230 1.499 . S
C1228 H1208 0.950 . S
C1228 C1227 1.414 . S
C1228 C1229 1.374 . S
C1229 H1209 0.950 . S
C1229 C1225 1.385 . S
C1229 C1228 1.374 . S
C1230 C1227 1.499 . S
C1230 C1231 1.373 . S
C1230 C1232 1.389 . S
C1231 H1210 0.950 . S
C1231 C1230 1.373 . S
C1231 C1247 1.377 . S
C1232 C1230 1.389 . S
C1232 C1233 1.524 . S
C1232 C1246 1.377 . S
C1233 C1232 1.524 . S
C1233 C1234 1.397 . S
C1233 C1238 1.363 . S
C1234 H1211 0.950 . S
C1234 C1233 1.397 . S
C1234 C1235 1.334 . S
C1235 H1212 0.950 . S
C1235 C1234 1.334 . S
C1235 C1236 1.287 . S
C1236 C1235 1.287 . S
C1236 C1237 1.524 . S
C1236 H1255 0.913 . S
C1237 H1213 0.950 . S
C1237 C1236 1.524 . S
C1237 C1238 1.415 . S
C1238 H1214 0.950 . S
C1238 C1233 1.363 . S
C1238 C1237 1.415 . S
C1239 H1215 0.951 . S
C1239 C1240 1.366 . S
C1239 C1241 1.388 . S
C1240 C1239 1.366 . S
C1240 C1244 1.385 . S
C1241 H1216 0.951 . S
C1241 C1239 1.388 . S
C1241 C1242 1.366 . S
C1242 C1241 1.366 . S
C1242 C1243 1.414 . S
C1242 C1245 1.499 . S
C1243 H1217 0.950 . S
C1243 C1242 1.414 . S
C1243 C1244 1.374 . S
C1244 H1218 0.950 . S
C1244 C1240 1.385 . S
C1244 C1243 1.374 . S
C1245 C1242 1.499 . S
C1245 C1246 1.373 . S
C1245 C1247 1.389 . S
C1246 H1219 0.950 . S
C1246 C1232 1.377 . S
C1246 C1245 1.373 . S
C1247 C1231 1.377 . S
C1247 C1245 1.389 . S
C1247 C1248 1.524 . S
C1248 C1247 1.524 . S
C1248 C1249 1.397 . S
C1248 C1253 1.363 . S
C1249 H1220 0.950 . S
C1249 C1248 1.397 . S
C1249 C1250 1.334 1_554 S
C1250 H1221 0.950 . S
C1250 C1249 1.334 1_556 S
C1250 C1251 1.287 . S
C1251 C1250 1.287 . S
C1251 C1252 1.524 1_556 S
C1251 H1254 0.999 . S
C1252 H1222 0.950 . S
C1252 C1251 1.524 1_554 S
C1252 C1253 1.415 . S
C1253 H1223 0.950 . S
C1253 C1248 1.363 . S
C1253 C1252 1.415 . S
H1254 C1251 0.999 . S
H1255 C1236 0.913 . S
H1256 C1274 0.951 . S
H1257 C1276 0.951 . S
H1258 C1278 0.950 . S
H1259 C1279 0.950 . S
H1260 C1281 0.950 . S
H1261 C1284 0.950 . S
H1262 C1285 0.950 . S
H1263 C1287 0.950 . S
H1264 C1288 0.950 . S
H1265 C1289 0.951 . S
H1266 C1291 0.951 . S
H1267 C1293 0.950 . S
H1268 C1294 0.950 1_655 S
H1269 C1296 0.950 . S
H1270 C1299 0.950 . S
H1271 C1300 0.950 . S
H1272 C1302 0.950 . S
H1273 C1303 0.950 . S
C1274 H1256 0.951 . S
C1274 C1275 1.366 . S
C1274 C1276 1.388 . S
C1275 C1274 1.366 . S
C1275 C1279 1.385 . S
C1276 H1257 0.951 . S
C1276 C1274 1.388 . S
C1276 C1277 1.366 . S
C1277 C1276 1.366 . S
C1277 C1278 1.414 . S
C1277 C1280 1.499 . S
C1278 H1258 0.950 . S
C1278 C1277 1.414 . S
C1278 C1279 1.374 . S
C1279 H1259 0.950 . S
C1279 C1275 1.385 . S
C1279 C1278 1.374 . S
C1280 C1277 1.499 . S
C1280 C1281 1.373 . S
C1280 C1282 1.389 . S
C1281 H1260 0.950 . S
C1281 C1280 1.373 . S
C1281 C1297 1.377 . S
C1282 C1280 1.389 . S
C1282 C1283 1.524 . S
C1282 C1296 1.377 . S
C1283 C1282 1.524 . S
C1283 C1284 1.397 . S
C1283 C1288 1.363 1_455 S
C1284 H1261 0.950 . S
C1284 C1283 1.397 . S
C1284 C1285 1.334 . S
C1285 H1262 0.950 . S
C1285 C1284 1.334 . S
C1285 C1286 1.287 1_455 S
C1286 C1285 1.287 1_655 S
C1286 C1287 1.524 . S
C1286 H1305 0.913 . S
C1287 H1263 0.950 . S
C1287 C1286 1.524 . S
C1287 C1288 1.415 . S
C1288 H1264 0.950 . S
C1288 C1283 1.363 1_655 S
C1288 C1287 1.415 . S
C1289 H1265 0.951 . S
C1289 C1290 1.366 . S
C1289 C1291 1.388 . S
C1290 C1289 1.366 . S
C1290 C1294 1.385 . S
C1291 H1266 0.951 . S
C1291 C1289 1.388 . S
C1291 C1292 1.366 . S
C1292 C1291 1.366 . S
C1292 C1293 1.414 . S
C1292 C1295 1.499 . S
C1293 H1267 0.950 . S
C1293 C1292 1.414 . S
C1293 C1294 1.374 . S
C1294 H1268 0.950 1_455 S
C1294 C1290 1.385 . S
C1294 C1293 1.374 . S
C1295 C1292 1.499 . S
C1295 C1296 1.373 . S
C1295 C1297 1.389 . S
C1296 H1269 0.950 . S
C1296 C1282 1.377 . S
C1296 C1295 1.373 . S
C1297 C1281 1.377 . S
C1297 C1295 1.389 . S
C1297 C1298 1.524 . S
C1298 C1297 1.524 . S
C1298 C1299 1.397 . S
C1298 C1303 1.363 . S
C1299 H1270 0.950 . S
C1299 C1298 1.397 . S
C1299 C1300 1.334 . S
C1300 H1271 0.950 . S
C1300 C1299 1.334 . S
C1300 C1301 1.287 . S
C1301 C1300 1.287 . S
C1301 C1302 1.524 . S
C1301 H1304 0.999 . S
C1302 H1272 0.950 . S
C1302 C1301 1.524 . S
C1302 C1303 1.415 . S
C1303 H1273 0.950 . S
C1303 C1298 1.363 . S
C1303 C1302 1.415 . S
H1304 C1301 0.999 . S
H1305 C1286 0.913 . S
H1306 C1324 0.951 . S
H1307 C1326 0.951 . S
H1308 C1328 0.950 . S
H1309 C1329 0.950 . S
H1310 C1331 0.950 . S
H1311 C1334 0.950 . S
H1312 C1335 0.950 . S
H1313 C1337 0.950 . S
H1314 C1338 0.950 . S
H1315 C1339 0.951 . S
H1316 C1341 0.951 . S
H1317 C1343 0.950 . S
H1318 C1344 0.950 . S
H1319 C1346 0.950 . S
H1320 C1349 0.950 . S
H1321 C1350 0.950 . S
H1322 C1352 0.950 . S
H1323 C1353 0.950 . S
C1324 H1306 0.951 . S
C1324 C1325 1.366 . S
C1324 C1326 1.388 . S
C1325 C1324 1.366 . S
C1325 C1329 1.385 . S
C1326 H1307 0.951 . S
C1326 C1324 1.388 . S
C1326 C1327 1.366 . S
C1327 C1326 1.366 . S
C1327 C1328 1.414 . S
C1327 C1330 1.499 . S
C1328 H1308 0.950 . S
C1328 C1327 1.414 . S
C1328 C1329 1.374 . S
C1329 H1309 0.950 . S
C1329 C1325 1.385 . S
C1329 C1328 1.374 . S
C1330 C1327 1.499 . S
C1330 C1331 1.373 . S
C1330 C1332 1.389 . S
C1331 H1310 0.950 . S
C1331 C1330 1.373 . S
C1331 C1347 1.377 . S
C1332 C1330 1.389 . S
C1332 C1333 1.524 . S
C1332 C1346 1.377 . S
C1333 C1332 1.524 . S
C1333 C1334 1.397 . S
C1333 C1338 1.363 . S
C1334 H1311 0.950 . S
C1334 C1333 1.397 . S
C1334 C1335 1.334 . S
C1335 H1312 0.950 . S
C1335 C1334 1.334 . S
C1335 C1336 1.287 . S
C1336 C1335 1.287 . S
C1336 C1337 1.524 . S
C1336 H1355 0.913 . S
C1337 H1313 0.950 . S
C1337 C1336 1.524 . S
C1337 C1338 1.415 . S
C1338 H1314 0.950 . S
C1338 C1333 1.363 . S
C1338 C1337 1.415 . S
C1339 H1315 0.951 . S
C1339 C1340 1.366 . S
C1339 C1341 1.388 . S
C1340 C1339 1.366 . S
C1340 C1344 1.385 . S
C1341 H1316 0.951 . S
C1341 C1339 1.388 . S
C1341 C1342 1.366 . S
C1342 C1341 1.366 . S
C1342 C1343 1.414 . S
C1342 C1345 1.499 . S
C1343 H1317 0.950 . S
C1343 C1342 1.414 . S
C1343 C1344 1.374 . S
C1344 H1318 0.950 . S
C1344 C1340 1.385 . S
C1344 C1343 1.374 . S
C1345 C1342 1.499 . S
C1345 C1346 1.373 . S
C1345 C1347 1.389 . S
C1346 H1319 0.950 . S
C1346 C1332 1.377 . S
C1346 C1345 1.373 . S
C1347 C1331 1.377 . S
C1347 C1345 1.389 . S
C1347 C1348 1.524 . S
C1348 C1347 1.524 . S
C1348 C1349 1.397 . S
C1348 C1353 1.363 . S
C1349 H1320 0.950 . S
C1349 C1348 1.397 . S
C1349 C1350 1.334 . S
C1350 H1321 0.950 . S
C1350 C1349 1.334 . S
C1350 C1351 1.287 . S
C1351 C1350 1.287 . S
C1351 C1352 1.524 . S
C1351 H1354 0.999 . S
C1352 H1322 0.950 . S
C1352 C1351 1.524 . S
C1352 C1353 1.415 . S
C1353 H1323 0.950 . S
C1353 C1348 1.363 . S
C1353 C1352 1.415 . S
H1354 C1351 0.999 . S
H1355 C1336 0.913 . S
C175 C5 1.611 . S
C190 C90 1.574 . S
C225 C14 1.481 . S
C240 C107 1.419 . S
C290 C130 1.184 . S
C275 C25 1.396 . S
C325 C34 1.726 . S
C340 C151 1.444 . S
C390 C110 1.719 . S
C375 C7 1.769 . S
C440 C87 1.624 . S
C425 C13 1.678 . S
C490 C149 1.269 . S
C475 C23 1.332 . S
C540 C128 1.349 . S
C525 C31 1.397 . S
C575 C4 1.742 . S
C590 C152 1.685 . S
C640 C109 1.317 . S
C625 C22 1.580 . S
C675 C32 1.615 . S
C690 C85 1.412 . S
C725 C16 1.464 . S
C740 C131 1.435 . S
C790 C89 1.565 . S
C775 C41 1.614 . S
C825 C50 1.295 . S
C840 C108 1.250 . S
C875 C61 1.481 . S
C890 C127 1.268 . S
C925 C67 1.651 . S
C940 C148 1.372 . S
C975 C40 1.744 . S
C990 C111 1.701 . S
C1040 C86 1.683 . S
C1025 C52 1.745 . S
C1090 C150 1.181 . S
C1075 C59 1.233 . S
C1140 C129 1.460 . S
C1125 C70 1.516 . S
C1175 C43 1.543 . S
C1190 C153 1.497 . S
C1240 C106 1.251 . S
C1225 C58 1.476 . S
C1290 C88 1.217 . S
C1275 C68 1.397 . S
C1325 C49 1.429 . S
C1340 C132 1.393 . S
