# Generated by pormake.
# Topology zzz, (3,6)-cn, num edge types: 1
# Building blocks:
#     Node 0, Type 0, BuildingBlock: VETTIZ_charged_linker_0, # of connection points: 3
#     Node 1, Type 0, BuildingBlock: VETTIZ_charged_linker_0, # of connection points: 3
#     Node 2, Type 0, BuildingBlock: VETTIZ_charged_linker_0, # of connection points: 3
#     Node 3, Type 0, BuildingBlock: VETTIZ_charged_linker_0, # of connection points: 3
#     Node 4, Type 0, BuildingBlock: VETTIZ_charged_linker_0, # of connection points: 3
#     Node 5, Type 0, BuildingBlock: VETTIZ_charged_linker_0, # of connection points: 3
#     Node 6, Type 0, BuildingBlock: VETTIZ_charged_linker_0, # of connection points: 3
#     Node 7, Type 0, BuildingBlock: VETTIZ_charged_linker_0, # of connection points: 3
#     Node 8, Type 1, BuildingBlock: KUMJIN_clean_sbu_1, # of connection points: 6
#     Node 9, Type 1, BuildingBlock: KUMJIN_clean_sbu_1, # of connection points: 6
#     Node 10, Type 1, BuildingBlock: KUMJIN_clean_sbu_1, # of connection points: 6
#     Node 11, Type 1, BuildingBlock: KUMJIN_clean_sbu_1, # of connection points: 6
#     Edge 12, Type (0, 1), BuildingBlock: AJUNOK_clean_linker_0, # of connection points: 2
#     Edge 13, Type (0, 1), BuildingBlock: AJUNOK_clean_linker_0, # of connection points: 2
#     Edge 14, Type (0, 1), BuildingBlock: AJUNOK_clean_linker_0, # of connection points: 2
#     Edge 15, Type (0, 1), BuildingBlock: AJUNOK_clean_linker_0, # of connection points: 2
#     Edge 16, Type (0, 1), BuildingBlock: AJUNOK_clean_linker_0, # of connection points: 2
#     Edge 17, Type (0, 1), BuildingBlock: AJUNOK_clean_linker_0, # of connection points: 2
#     Edge 18, Type (0, 1), BuildingBlock: AJUNOK_clean_linker_0, # of connection points: 2
#     Edge 19, Type (0, 1), BuildingBlock: AJUNOK_clean_linker_0, # of connection points: 2
#     Edge 20, Type (0, 1), BuildingBlock: AJUNOK_clean_linker_0, # of connection points: 2
#     Edge 21, Type (0, 1), BuildingBlock: AJUNOK_clean_linker_0, # of connection points: 2
#     Edge 22, Type (0, 1), BuildingBlock: AJUNOK_clean_linker_0, # of connection points: 2
#     Edge 23, Type (0, 1), BuildingBlock: AJUNOK_clean_linker_0, # of connection points: 2
#     Edge 24, Type (0, 1), BuildingBlock: AJUNOK_clean_linker_0, # of connection points: 2
#     Edge 25, Type (0, 1), BuildingBlock: AJUNOK_clean_linker_0, # of connection points: 2
#     Edge 26, Type (0, 1), BuildingBlock: AJUNOK_clean_linker_0, # of connection points: 2
#     Edge 27, Type (0, 1), BuildingBlock: AJUNOK_clean_linker_0, # of connection points: 2
#     Edge 28, Type (0, 1), BuildingBlock: AJUNOK_clean_linker_0, # of connection points: 2
#     Edge 29, Type (0, 1), BuildingBlock: AJUNOK_clean_linker_0, # of connection points: 2
#     Edge 30, Type (0, 1), BuildingBlock: AJUNOK_clean_linker_0, # of connection points: 2
#     Edge 31, Type (0, 1), BuildingBlock: AJUNOK_clean_linker_0, # of connection points: 2
#     Edge 32, Type (0, 1), BuildingBlock: AJUNOK_clean_linker_0, # of connection points: 2
#     Edge 33, Type (0, 1), BuildingBlock: AJUNOK_clean_linker_0, # of connection points: 2
#     Edge 34, Type (0, 1), BuildingBlock: AJUNOK_clean_linker_0, # of connection points: 2
#     Edge 35, Type (0, 1), BuildingBlock: AJUNOK_clean_linker_0, # of connection points: 2
# Relax obj value: 0.360
# Max RMSD: 0.207
# Mean RMSD: 0.186
data_MOF--net-zzz--node1-KUMJIN_clean_sbu_1--node2-VETTIZ_charged_linker_0--edge1-AJUNOK_clean_linker_0
_symmetry_space_group_name_H-M    P1
_symmetry_Int_Tables_number       1
_symmetry_cell_setting            triclinic
loop_
_symmetry_equiv_pos_as_xyz
'x, y, z'
_cell_length_a     43.940404
_cell_length_b     44.10751
_cell_length_c     16.549479
_cell_angle_alpha  89.991009
_cell_angle_beta   90.016765
_cell_angle_gamma 90.410547
loop_
_atom_site_label
_atom_site_type_symbol
_atom_site_fract_x
_atom_site_fract_y
_atom_site_fract_z
_atom_type_partial_charge
C0 C 0.83031 0.5334 0.36759 0.0
C1 C 0.8551 0.55023 0.4043 0.0
C2 C 0.85663 0.58164 0.38929 0.0
C3 C 0.81637 0.5778 0.29048 0.0
C4 C 0.81009 0.54846 0.31199 0.0
C5 C 0.78023 0.53853 0.26816 0.0
H6 H 0.67483 0.58516 0.96825 0.0
C7 C 0.79688 0.58706 0.2238 0.0
C8 C 0.77307 0.566 0.21221 0.0
H9 H 0.66372 0.50406 0.11006 0.0
H10 H 0.71192 0.51581 0.18291 0.0
H11 H 0.70065 0.63206 0.10133 0.0
H12 H 0.73001 0.57556 0.91729 0.0
H13 H 0.7664 0.58849 0.9457 0.0
H14 H 0.73819 0.61444 0.9062 0.0
H15 H 0.69851 0.63593 0.99328 0.0
H16 H 0.73033 0.65113 0.04926 0.0
C17 C 0.75499 0.53375 0.33118 0.0
C18 C 0.78569 0.50969 0.21847 0.0
C19 C 0.84998 0.62937 0.98567 0.0
C20 C 0.83763 0.63215 0.90765 0.0
C21 C 0.80819 0.64437 0.90008 0.0
C22 C 0.78874 0.6446 0.96719 0.0
C23 C 0.79912 0.63192 0.03968 0.0
C24 C 0.82995 0.62837 0.05158 0.0
C25 C 0.83677 0.61647 0.13475 0.0
C26 C 0.80445 0.60818 0.16316 0.0
C27 C 0.7829 0.61527 0.10415 0.0
C28 C 0.85183 0.64238 0.18368 0.0
C29 C 0.85777 0.58842 0.12942 0.0
C30 C 0.68181 0.57015 1.01655 0.0
C31 C 0.6643 0.54427 0.03412 0.0
C32 C 0.67609 0.5246 0.09502 0.0
C33 C 0.7039 0.53143 0.13772 0.0
C34 C 0.72079 0.55795 0.11882 0.0
C35 C 0.7094 0.57617 0.05742 0.0
C36 C 0.73081 0.60115 0.03473 0.0
C37 C 0.7557 0.59756 0.09787 0.0
C38 C 0.75064 0.57199 0.14876 0.0
C39 C 0.71425 0.6318 0.04463 0.0
C40 C 0.74203 0.59486 0.94686 0.0
H41 H 0.83769 0.61972 0.32729 0.0
H42 H 0.82696 0.50965 0.38159 0.0
H43 H 0.80445 0.51345 0.17443 0.0
H44 H 0.76492 0.50318 0.18433 0.0
H45 H 0.79201 0.49053 0.25856 0.0
H46 H 0.75179 0.55469 0.36752 0.0
H47 H 0.761 0.515 0.37299 0.0
H48 H 0.73302 0.52809 0.30204 0.0
H49 H 0.87324 0.62208 0.99332 0.0
H50 H 0.79868 0.64867 0.84081 0.0
H51 H 0.76567 0.65172 0.95888 0.0
H52 H 0.86593 0.65725 0.14424 0.0
H53 H 0.86786 0.63362 0.22966 0.0
H54 H 0.83448 0.65686 0.21322 0.0
H55 H 0.84747 0.57068 0.09006 0.0
H56 H 0.86212 0.57832 0.18941 0.0
H57 H 0.88051 0.59466 0.1051 0.0
H58 H 0.87365 0.59555 0.41927 0.0
C59 C 0.83703 0.59546 0.33422 0.0
C60 C 0.87416 0.79227 0.98412 0.0
C61 C 0.86268 0.82156 0.99776 0.0
C62 C 0.85284 0.82843 0.07686 0.0
C63 C 0.88376 0.7878 0.12684 0.0
C64 C 0.88487 0.77571 0.05033 0.0
C65 C 0.90317 0.74719 0.04829 0.0
H66 H 0.02616 0.67961 0.08529 0.0
C67 C 0.90768 0.77359 0.17592 0.0
C68 C 0.91683 0.7478 0.134 0.0
H69 H 0.93784 0.64052 0.02413 0.0
H70 H 0.9137 0.67939 0.10443 0.0
H71 H 1.00939 0.75987 0.08295 0.0
H72 H 0.99301 0.70267 0.29295 0.0
H73 H 0.01636 0.73594 0.30486 0.0
H74 H 0.03046 0.70408 0.24869 0.0
H75 H 0.04022 0.73805 0.12446 0.0
H76 H 0.02614 0.77062 0.17812 0.0
C77 C 0.92798 0.74933 0.98199 0.0
C78 C 0.88089 0.72057 0.03206 0.0
C79 C 0.95968 0.8477 0.36577 0.0
C80 C 0.98824 0.85129 0.40296 0.0
C81 C 1.01028 0.82866 0.38373 0.0
C82 C 1.00329 0.80325 0.33176 0.0
C83 C 0.97394 0.80008 0.29729 0.0
C84 C 0.95312 0.8227 0.31511 0.0
C85 C 0.92328 0.818 0.27366 0.0
C86 C 0.92838 0.78804 0.23039 0.0
C87 C 0.95836 0.77669 0.2424 0.0
C88 C 0.91816 0.84507 0.21485 0.0
C89 C 0.89819 0.81479 0.33876 0.0
C90 C 1.00155 0.68017 0.08557 0.0
C91 C 0.98414 0.65688 0.04371 0.0
C92 C 0.95217 0.65772 0.05179 0.0
C93 C 0.93782 0.68078 0.09407 0.0
C94 C 0.9548 0.70503 0.12354 0.0
C95 C 0.98582 0.70404 0.12826 0.0
C96 C 0.99636 0.73071 0.18418 0.0
C97 C 0.96629 0.74822 0.20178 0.0
C98 C 0.94343 0.73292 0.15823 0.0
C99 C 0.01943 0.75102 0.13986 0.0
C100 C 1.00987 0.71766 0.26228 0.0
H101 H 0.85882 0.81924 0.20272 0.0
H102 H 0.87944 0.78472 0.92365 0.0
H103 H 0.86241 0.72733 0.98991 0.0
H104 H 0.87 0.71263 0.08894 0.0
H105 H 0.89224 0.7014 1.00136 0.0
H106 H 0.94281 0.76953 0.99179 0.0
H107 H 0.91771 0.75083 0.92086 0.0
H108 H 0.94254 0.72895 0.98122 0.0
H109 H 0.94236 0.86475 0.37392 0.0
H110 H 0.03285 0.83036 0.40961 0.0
H111 H 0.02071 0.7868 0.31927 0.0
H112 H 0.93386 0.86449 0.22604 0.0
H113 H 0.89508 0.85475 0.22099 0.0
H114 H 0.92216 0.83836 0.15108 0.0
H115 H 0.90608 0.80038 0.38972 0.0
H116 H 0.87746 0.80358 0.31505 0.0
H117 H 0.89192 0.83729 0.36366 0.0
H118 H 0.84098 0.84916 0.08908 0.0
C119 C 0.86395 0.81176 0.14253 0.0
C120 C 0.84639 0.02372 0.08125 0.0
C121 C 0.87092 1.0072 0.04342 0.0
C122 C 0.87249 0.97581 0.05807 0.0
C123 C 0.824 0.97638 0.1255 0.0
C124 C 0.82337 1.00736 0.12607 0.0
C125 C 0.79575 0.01728 0.17885 0.0
H126 H 0.67009 0.95693 0.39582 0.0
C127 C 0.7962 0.96408 0.15996 0.0
C128 C 0.77972 0.98665 0.20003 0.0
H129 H 0.69265 0.05243 0.3871 0.0
H130 H 0.7369 0.04094 0.30132 0.0
H131 H 0.66515 0.95024 0.23866 0.0
H132 H 0.73463 0.92366 0.39133 0.0
H133 H 0.72826 0.89509 0.31745 0.0
H134 H 0.69671 0.90912 0.3753 0.0
H135 H 0.67445 0.91158 0.23683 0.0
H136 H 0.68957 0.93749 0.16151 0.0
C137 C 0.77461 0.03782 0.12971 0.0
C138 C 0.80746 0.03328 0.2553 0.0
C139 C 0.7391 0.89212 0.98702 0.0
C140 C 0.7089 0.88219 0.99887 0.0
C141 C 0.70066 0.87272 0.07757 0.0
C142 C 0.7176 0.88311 0.14412 0.0
C143 C 0.74252 0.90234 0.1297 0.0
C144 C 0.75529 0.90324 0.0537 0.0
C145 C 0.78307 0.92325 0.05126 0.0
C146 C 0.78188 0.93699 0.13632 0.0
C147 C 0.7562 0.92695 0.17825 0.0
C148 C 0.77979 0.94773 0.98465 0.0
C149 C 0.81106 0.9032 0.03624 0.0
C150 C 0.68384 0.976 0.37655 0.0
C151 C 0.67679 1.00564 0.40184 0.0
C152 C 0.69697 0.02896 0.37295 0.0
C153 C 0.72272 0.02248 0.32219 0.0
C154 C 0.72838 0.99247 0.29692 0.0
C155 C 0.70808 0.97026 0.32291 0.0
C156 C 0.71269 0.94064 0.28088 0.0
C157 C 0.7414 0.94716 0.23256 0.0
C158 C 0.75157 0.97773 0.2412 0.0
C159 C 0.68425 0.93448 0.22661 0.0
C160 C 0.71825 0.91565 0.34457 0.0
H161 H 0.85205 0.93676 0.11307 0.0
H162 H 0.84525 0.04813 0.07583 0.0
H163 H 0.82012 0.05432 0.23914 0.0
H164 H 0.82308 0.01821 0.28937 0.0
H165 H 0.78845 0.03943 0.29584 0.0
H166 H 0.76692 0.02605 0.07383 0.0
H167 H 0.78661 0.05907 0.11202 0.0
H168 H 0.75418 0.0439 0.16539 0.0
H169 H 0.74743 0.89715 0.9271 0.0
H170 H 0.67855 0.86248 0.08839 0.0
H171 H 0.70954 0.87824 0.20401 0.0
H172 H 0.75865 0.96103 0.99366 0.0
H173 H 0.77917 0.93738 0.92354 0.0
H174 H 0.79937 0.96368 0.98444 0.0
H175 H 0.8055 0.88365 0.99629 0.0
H176 H 0.81973 0.89427 0.09441 0.0
H177 H 0.8295 0.91578 1.00476 0.0
H178 H 0.89122 0.96273 0.03432 0.0
C179 C 0.84959 0.96057 0.10016 0.0
C180 C 0.53021 0.70398 0.35291 0.0
C181 C 0.54729 0.67807 0.38223 0.0
C182 C 0.57663 0.67404 0.34917 0.0
C183 C 0.56974 0.71502 0.25444 0.0
C184 C 0.54261 0.72293 0.289 0.0
C185 C 0.53252 0.75366 0.25031 0.0
H186 H 0.55917 0.84532 0.90828 0.0
C187 C 0.57749 0.73549 0.18833 0.0
C188 C 0.55761 0.76038 0.18568 0.0
H189 H 0.50155 0.87562 0.10216 0.0
H190 H 0.51372 0.82835 0.17806 0.0
H191 H 0.61156 0.8399 0.04072 0.0
H192 H 0.56046 0.79443 0.87766 0.0
H193 H 0.57362 0.76014 0.91861 0.0
H194 H 0.59963 0.78686 0.87128 0.0
H195 H 0.61819 0.83161 0.93617 0.0
H196 H 0.63483 0.80918 1.01613 0.0
C197 C 0.53217 0.77841 0.31555 0.0
C198 C 0.50119 0.75011 0.21031 0.0
C199 C 0.61667 0.69049 0.9315 0.0
C200 C 0.6266 0.70495 0.86004 0.0
C201 C 0.64085 0.73358 0.86654 0.0
C202 C 0.63831 0.7502 0.93845 0.0
C203 C 0.62116 0.73782 1.00212 0.0
C204 C 0.61415 0.70751 1.00238 0.0
C205 C 0.59916 0.69815 0.08018 0.0
C206 C 0.5971 0.72894 0.1235 0.0
C207 C 0.60497 0.75204 0.06989 0.0
C208 C 0.61953 0.67431 0.1211 0.0
C209 C 0.56694 0.68527 0.06355 0.0
C210 C 0.5499 0.84381 0.96837 0.0
C211 C 0.53059 0.86635 0.99835 0.0
C212 C 0.51712 0.8596 0.07543 0.0
C213 C 0.52422 0.83222 0.12001 0.0
C214 C 0.54589 0.81146 0.08944 0.0
C215 C 0.55871 0.81885 1.0154 0.0
C216 C 0.58556 0.80008 0.99509 0.0
C217 C 0.58614 0.7781 0.06552 0.0
C218 C 0.56206 0.78312 0.12164 0.0
C219 C 0.61411 0.82113 0.9963 0.0
C220 C 0.57971 0.78449 0.91185 0.0
H221 H 0.61161 0.6908 0.27131 0.0
H222 H 0.50846 0.70948 0.37956 0.0
H223 H 0.50176 0.732 0.16364 0.0
H224 H 0.49436 0.77162 0.18069 0.0
H225 H 0.48367 0.74395 0.25598 0.0
H226 H 0.55492 0.78056 0.34444 0.0
H227 H 0.51523 0.77277 0.36321 0.0
H228 H 0.52621 0.80068 0.28928 0.0
H229 H 0.60682 0.668 0.92965 0.0
H230 H 0.65029 0.74458 0.81357 0.0
H231 H 0.64715 0.77293 0.93961 0.0
H232 H 0.62833 0.65779 0.0762 0.0
H233 H 0.6066 0.66038 0.16515 0.0
H234 H 0.63948 0.68525 0.15069 0.0
H235 H 0.55536 0.67902 0.12084 0.0
H236 H 0.56782 0.66463 0.02575 0.0
H237 H 0.55271 0.70227 0.0317 0.0
H238 H 0.59115 0.65586 0.36966 0.0
C239 C 0.58813 0.69298 0.28889 0.0
C240 C 0.35379 0.50105 0.28139 0.0
C241 C 0.37403 0.48389 0.3333 0.0
C242 C 0.3681 0.45254 0.34096 0.0
C243 C 0.32142 0.45689 0.26628 0.0
C244 C 0.32758 0.48623 0.2454 0.0
C245 C 0.30243 0.49625 0.18426 0.0
H246 H 0.15645 0.45248 0.0343 0.0
C247 C 0.29083 0.44836 0.2416 0.0
C248 C 0.27918 0.46924 0.1856 0.0
H249 H 0.20943 0.52538 0.93169 0.0
H250 H 0.25075 0.51535 0.03077 0.0
H251 H 0.20929 0.40323 0.059 0.0
H252 H 0.15902 0.46534 0.18825 0.0
H253 H 0.18257 0.4547 0.26982 0.0
H254 H 0.15707 0.42758 0.22239 0.0
H255 H 0.17047 0.40258 0.09369 0.0
H256 H 0.20067 0.38722 0.15452 0.0
C257 C 0.31689 0.49992 0.10025 0.0
C258 C 0.28744 0.52572 0.21241 0.0
C259 C 0.22586 0.41457 0.46926 0.0
C260 C 0.19405 0.41173 0.47036 0.0
C261 C 0.17986 0.39797 0.40292 0.0
C262 C 0.19508 0.39747 0.32834 0.0
C263 C 0.22452 0.40982 0.32409 0.0
C264 C 0.24073 0.41421 0.39449 0.0
C265 C 0.27276 0.42432 0.37828 0.0
C266 C 0.27108 0.42966 0.28651 0.0
C267 C 0.24191 0.42356 0.25695 0.0
C268 C 0.29414 0.3983 0.40377 0.0
C269 C 0.27975 0.4539 0.42583 0.0
C270 C 0.17704 0.46604 0.03046 0.0
C271 C 0.17934 0.48907 0.97197 0.0
C272 C 0.20656 0.50704 0.97452 0.0
C273 C 0.23067 0.50117 0.0315 0.0
C274 C 0.22781 0.47729 0.0882 0.0
C275 C 0.20074 0.46072 0.08653 0.0
C276 C 0.19921 0.43742 0.15203 0.0
C277 C 0.23076 0.44023 0.18934 0.0
C278 C 0.24835 0.46403 0.15393 0.0
C279 C 0.19449 0.40585 0.11306 0.0
C280 C 0.17329 0.4465 0.21134 0.0
H281 H 0.33977 0.41471 0.3088 0.0
H282 H 0.3582 0.52482 0.26985 0.0
H283 H 0.2776 0.52277 0.27381 0.0
H284 H 0.26885 0.53223 0.1705 0.0
H285 H 0.3044 0.54452 0.21454 0.0
H286 H 0.32774 0.47841 0.08089 0.0
H287 H 0.33468 0.51797 0.10128 0.0
H288 H 0.2997 0.50607 0.05442 0.0
H289 H 0.23791 0.42234 0.52237 0.0
H290 H 0.15578 0.39256 0.40433 0.0
H291 H 0.18296 0.38966 0.27595 0.0
H292 H 0.28494 0.38561 0.45658 0.0
H293 H 0.31658 0.40695 0.42434 0.0
H294 H 0.29729 0.38181 0.35374 0.0
H295 H 0.26327 0.47194 0.40964 0.0
H296 H 0.30296 0.46263 0.41415 0.0
H297 H 0.27876 0.45008 0.49202 0.0
H298 H 0.38258 0.43844 0.37785 0.0
C299 C 0.34278 0.43894 0.30513 0.0
C300 C 0.12956 0.20617 0.50262 0.0
C301 C 0.13365 0.17475 0.49627 0.0
C302 C 0.14354 0.16401 0.4203 0.0
C303 C 0.11956 0.20764 0.35891 0.0
C304 C 0.1189 0.22118 0.43403 0.0
C305 C 0.09807 0.24781 0.43656 0.0
H306 H 0.03225 0.36375 0.25478 0.0
C307 C 0.09874 0.22486 0.30515 0.0
C308 C 0.08745 0.24917 0.34931 0.0
H309 H 0.04812 0.34539 0.50868 0.0
H310 H 0.06152 0.29546 0.47795 0.0
H311 H 0.04923 0.3347 0.1222 0.0
H312 H 0.99717 0.28131 0.23965 0.0
H313 H 1.006 0.27797 0.13424 0.0
H314 H 0.99783 0.31452 0.17624 0.0
H315 H 0.05874 0.29788 0.08259 0.0
H316 H 0.08398 0.31651 0.15298 0.0
C317 C 0.11711 0.27604 0.46288 0.0
C318 C 0.07088 0.23933 0.49333 0.0
C319 C 0.06694 0.17179 0.0495 0.0
C320 C 0.04824 0.17702 0.98213 0.0
C321 C 0.03357 0.20594 0.98056 0.0
C322 C 0.03807 0.22831 0.04345 0.0
C323 C 0.05746 0.22217 0.10988 0.0
C324 C 0.07162 0.19405 0.1095 0.0
C325 C 0.09188 0.1896 0.1805 0.0
C326 C 0.08663 0.21842 0.2276 0.0
C327 C 0.06637 0.23876 0.18833 0.0
C328 C 0.12516 0.18776 0.1492 0.0
C329 C 0.08051 0.16096 0.2268 0.0
C330 C 0.03877 0.34865 0.30321 0.0
C331 C 0.0418 0.36011 0.3851 0.0
C332 C 0.04783 0.33872 0.44559 0.0
C333 C 0.05558 0.3091 0.42735 0.0
C334 C 0.05638 0.299 0.34705 0.0
C335 C 0.04544 0.31706 0.28601 0.0
C336 C 0.04289 0.29732 0.20779 0.0
C337 C 0.05833 0.26683 0.23164 0.0
C338 C 0.06715 0.26993 0.31337 0.0
C339 C 0.0597 0.31253 0.13715 0.0
C340 C 1.00903 0.29245 0.18814 0.0
H341 H 0.13814 0.16863 0.29357 0.0
H342 H 0.12514 0.21652 0.56067 0.0
H343 H 0.0664 0.21445 0.49386 0.0
H344 H 0.04896 0.24895 0.47302 0.0
H345 H 0.07534 0.24635 0.5567 0.0
H346 H 0.14204 0.27206 0.45848 0.0
H347 H 0.11237 0.28241 0.52652 0.0
H348 H 0.11308 0.29596 0.4237 0.0
H349 H 0.07762 0.15001 0.05768 0.0
H350 H 0.01879 0.21143 0.93041 0.0
H351 H 0.02676 0.24984 0.03864 0.0
H352 H 0.12816 0.20032 0.09135 0.0
H353 H 0.13199 0.16392 0.13817 0.0
H354 H 0.14167 0.1986 0.19094 0.0
H355 H 0.05527 0.15894 0.22395 0.0
H356 H 0.08564 0.16137 0.2919 0.0
H357 H 0.09015 0.13994 0.20061 0.0
H358 H 0.15024 0.14054 0.41385 0.0
C359 C 0.13539 0.18009 0.3502 0.0
C360 C 0.31967 0.02563 0.9868 0.0
C361 C 0.3345 0.04292 0.92366 0.0
C362 C 0.3215 0.07125 0.90346 0.0
C363 C 0.28908 0.06894 0.02084 0.0
C364 C 0.2952 0.03897 0.03201 0.0
C365 C 0.27485 0.02746 0.10225 0.0
H366 H 0.1848 0.07612 0.42812 0.0
C367 C 0.27379 0.08082 0.09239 0.0
C368 C 0.25853 0.05677 0.13151 0.0
H369 H 0.15218 1.00626 0.26674 0.0
H370 H 0.19636 0.01553 0.17645 0.0
H371 H 0.25131 0.05804 0.42785 0.0
H372 H 0.20348 0.12548 0.29584 0.0
H373 H 0.23765 0.14116 0.33589 0.0
H374 H 0.21031 0.12429 0.40296 0.0
H375 H 0.25314 0.09674 0.4586 0.0
H376 H 0.28105 0.08102 0.39056 0.0
C377 C 0.29474 0.0141 0.16981 0.0
C378 C 0.25201 1.00377 0.07085 0.0
C379 C 0.34862 0.14668 0.23804 0.0
C380 C 0.3548 0.14336 0.32042 0.0
C381 C 0.32998 0.14236 0.3742 0.0
C382 C 0.3007 0.13581 0.34473 0.0
C383 C 0.29706 0.1293 0.26205 0.0
C384 C 0.32048 0.13621 0.20912 0.0
C385 C 0.31586 0.12212 0.12721 0.0
C386 C 0.2858 0.10481 0.14051 0.0
C387 C 0.27559 0.1086 0.22038 0.0
C388 C 0.34312 0.10068 0.10972 0.0
C389 C 0.31345 0.14773 0.06418 0.0
C390 C 0.18688 0.06243 0.37413 0.0
C391 C 0.1646 0.04021 0.35652 0.0
C392 C 0.16902 0.02302 0.28434 0.0
C393 C 0.19465 0.02802 0.23233 0.0
C394 C 0.21684 0.0499 0.25295 0.0
C395 C 0.21212 0.06702 0.32226 0.0
C396 C 0.23645 0.09082 0.33296 0.0
C397 C 0.25342 0.08843 0.25295 0.0
C398 C 0.24414 0.06275 0.20864 0.0
C399 C 0.25651 0.0814 0.40618 0.0
C400 C 0.22128 0.12219 0.34278 0.0
H401 H 0.29014 0.10647 0.9375 0.0
H402 H 0.32735 1.00304 1.00147 0.0
H403 H 0.23601 0.01414 0.02693 0.0
H404 H 0.23874 0.99385 0.12145 0.0
H405 H 0.26413 0.98497 0.04014 0.0
H406 H 0.31154 0.03123 0.19154 0.0
H407 H 0.30735 0.994 0.14764 0.0
H408 H 0.28043 1.00698 0.22191 0.0
H409 H 0.36727 0.15004 0.1963 0.0
H410 H 0.33389 0.14183 0.43883 0.0
H411 H 0.28278 0.13305 0.38798 0.0
H412 H 0.34363 0.08171 0.15396 0.0
H413 H 0.36532 0.11268 0.112 0.0
H414 H 0.34287 0.09114 0.04863 0.0
H415 H 0.33103 0.16551 0.07516 0.0
H416 H 0.29074 0.15862 0.06669 0.0
H417 H 0.31764 0.13951 1.00226 0.0
H418 H 0.33069 0.08471 0.85438 0.0
C419 C 0.29875 0.08423 0.95161 0.0
C420 C 0.4919 0.34043 0.02698 0.0
C421 C 0.47795 0.36894 1.00317 0.0
C422 C 0.45239 0.37812 0.04847 0.0
C423 C 0.45663 0.33575 0.13958 0.0
C424 C 0.48018 0.32369 0.09625 0.0
C425 C 0.48738 0.29186 0.13379 0.0
H426 H 0.45155 0.19932 0.47325 0.0
C427 C 0.44872 0.31655 0.20818 0.0
C428 C 0.46456 0.28897 0.20602 0.0
H429 H 0.5133 0.17048 0.28719 0.0
H430 H 0.5038 0.21875 0.21247 0.0
H431 H 0.46285 0.2499 0.51078 0.0
H432 H 0.40008 0.21927 0.34806 0.0
H433 H 0.38387 0.25244 0.38758 0.0
H434 H 0.39812 0.22381 0.45573 0.0
H435 H 0.42576 0.26323 0.52659 0.0
H436 H 0.45447 0.28675 0.47797 0.0
C437 C 0.52038 0.29127 0.16409 0.0
C438 C 0.48155 0.26689 0.07096 0.0
C439 C 0.42458 0.36593 0.47159 0.0
C440 C 0.41581 0.35269 0.54559 0.0
C441 C 0.39811 0.32595 0.5441 0.0
C442 C 0.39516 0.30953 0.47187 0.0
C443 C 0.41121 0.31964 0.40351 0.0
C444 C 0.42248 0.34868 0.40116 0.0
C445 C 0.43627 0.35608 0.32063 0.0
C446 C 0.43234 0.32556 0.27701 0.0
C447 C 0.42266 0.30356 0.33187 0.0
C448 C 0.47044 0.36392 0.3305 0.0
C449 C 0.41859 0.38299 0.2849 0.0
C450 C 0.46245 0.20184 0.41513 0.0
C451 C 0.48228 0.17959 0.38678 0.0
C452 C 0.49745 0.18662 0.31224 0.0
C453 C 0.49193 0.2145 0.2685 0.0
C454 C 0.47084 0.2359 0.29861 0.0
C455 C 0.45668 0.22844 0.37106 0.0
C456 C 0.43429 0.25131 0.3978 0.0
C457 C 0.43679 0.27464 0.33079 0.0
C458 C 0.45865 0.26675 0.27069 0.0
C459 C 0.44463 0.26355 0.48217 0.0
C460 C 0.40236 0.23603 0.39805 0.0
H461 H 0.41888 0.36648 0.13603 0.0
H462 H 0.51067 0.33143 0.99241 0.0
H463 H 0.4577 0.26786 0.04876 0.0
H464 H 0.4853 0.24413 0.09754 0.0
H465 H 0.49706 0.26971 0.0184 0.0
H466 H 0.52431 0.3096 0.20908 0.0
H467 H 0.53649 0.29467 0.11307 0.0
H468 H 0.52547 0.26925 0.19337 0.0
H469 H 0.4371 0.38715 0.47011 0.0
H470 H 0.3899 0.31598 0.59986 0.0
H471 H 0.38325 0.28821 0.47348 0.0
H472 H 0.48291 0.34456 0.35759 0.0
H473 H 0.47389 0.38388 0.37012 0.0
H474 H 0.48093 0.36924 0.27109 0.0
H475 H 0.41399 0.40018 0.33207 0.0
H476 H 0.39629 0.37546 0.26005 0.0
H477 H 0.43208 0.39531 0.23869 0.0
H478 H 0.44065 0.39899 0.03464 0.0
C479 C 0.44076 0.36075 0.11154 0.0
Eu480 Eu 0.98669 0.03638 0.61088 0.0
C481 C 0.10434 0.97965 0.8241 0.0
N482 N 0.08498 0.97058 0.76514 0.0
C483 C 0.12329 0.93784 0.71097 0.0
C484 C 0.13433 0.96859 0.82826 0.0
C485 C 0.09371 0.94936 0.70994 0.0
C486 C 0.14383 0.94773 0.76994 0.0
C487 C 0.11219 1.00772 0.94787 0.0
C488 C 0.09348 0.99883 0.8826 0.0
C489 C 0.14248 0.99778 0.95106 0.0
C490 C 0.15355 0.97822 0.89128 0.0
Eu491 Eu 0.03643 0.99348 0.75926 0.0
N492 N 0.06406 1.00756 0.87772 0.0
C493 C 0.09965 0.0257 1.00882 0.0
C494 C 0.05132 0.02386 0.9392 0.0
C495 C 0.06897 0.03351 1.00488 0.0
H496 H 0.07795 0.94138 0.66453 0.0
H497 H 0.05887 0.04698 0.05236 0.0
H498 H 0.91721 1.00473 0.62946 0.0
H499 H 0.05043 0.05619 0.32884 0.0
H500 H 0.02771 0.03024 0.93704 0.0
H501 H 0.11325 0.03308 0.0599 0.0
H502 H 0.0339 0.06785 0.46697 0.0
H503 H 0.1302 0.92132 0.66634 0.0
H504 H 0.1573 1.00455 1.00032 0.0
H505 H 0.17675 0.97019 0.89524 0.0
H506 H 0.88358 0.97011 0.55247 0.0
H507 H 0.16669 0.93869 0.77087 0.0
H508 H 0.02512 0.0151 0.25195 0.0
N509 N 0.95155 1.00588 0.53902 0.0
C510 C 0.95968 0.99786 0.46274 0.0
C511 C 0.905 0.97759 0.5268 0.0
C512 C 0.94128 0.97795 0.41693 0.0
C513 C 0.92407 0.99718 0.57025 0.0
C514 C 0.9139 0.96747 0.45044 0.0
N515 N 1.0021 0.03115 0.47345 0.0
C516 C 0.02358 0.04886 0.43614 0.0
C517 C 0.99392 1.0038 0.34885 0.0
C518 C 0.98592 1.01049 0.42952 0.0
C519 C 0.01827 0.01957 0.31368 0.0
C520 C 0.03264 0.04274 0.35688 0.0
H521 H 0.89914 0.95216 0.41713 0.0
H522 H 0.93669 0.95418 0.30291 0.0
H523 H 0.98267 0.97698 0.24307 0.0
O524 O 0.967 0.06979 0.52842 0.0
O525 O 0.98351 0.9837 0.61381 0.0
O526 O 0.03277 0.97199 0.63262 0.0
O527 O 0.95288 0.0691 0.65258 0.0
O528 O 0.0389 0.04526 0.59688 0.0
O529 O 0.06024 1.0007 0.63734 0.0
O530 O 0.99319 0.97018 0.77054 0.0
O531 O 0.04438 0.04455 0.78196 0.0
O532 O 1.00805 0.06911 0.70551 0.0
O533 O 0.03325 0.95068 0.82659 0.0
O534 O 0.99684 0.0208 0.81834 0.0
O535 O 0.9599 0.02016 0.7212 0.0
C536 C 1.00646 0.96531 0.59915 0.0
C537 C 0.96833 0.11556 0.5999 0.0
C538 C 0.01519 0.14541 0.61025 0.0
C539 C 0.99854 0.16948 0.64335 0.0
C540 C 0.95188 0.13951 0.63357 0.0
C541 C 0.96701 0.16645 0.65495 0.0
C542 C 0.99977 0.11879 0.58921 0.0
C543 C 0.06106 0.02511 0.59151 0.0
C544 C 0.95503 0.08526 0.5872 0.0
C545 C 0.95033 0.96976 0.33862 0.0
C546 C 0.97658 0.98267 0.30464 0.0
C547 C 0.02947 0.06945 0.76187 0.0
C548 C 0.99162 0.918 0.78958 0.0
C549 C 0.94898 0.88278 0.80366 0.0
C550 C 0.96564 0.86098 0.76034 0.0
C551 C 1.00809 0.89621 0.74674 0.0
C552 C 0.96169 0.91179 0.81331 0.0
C553 C 0.99477 0.86793 0.73081 0.0
C554 C 0.96773 0.0232 0.7976 0.0
C555 C 1.00415 0.9477 0.81139 0.0
H556 H 1.00966 0.1907 0.65864 0.0
H557 H 0.92769 0.13715 0.64476 0.0
H558 H 0.95431 0.18501 0.6808 0.0
H559 H 0.01273 0.09986 0.56644 0.0
H560 H 0.95669 0.83828 0.75164 0.0
H561 H 0.03097 0.90102 0.72581 0.0
H562 H 0.94866 0.92955 0.84217 0.0
H563 H 1.00741 0.851 0.69773 0.0
Eu564 Eu 0.53075 0.04621 0.76846 0.0
C565 C 0.46473 0.9316 0.59095 0.0
N566 N 0.4926 0.94497 0.59137 0.0
C567 C 0.51637 0.8962 0.58609 0.0
C568 C 0.46154 0.89976 0.59073 0.0
C569 C 0.51832 0.92787 0.58547 0.0
C570 C 0.48786 0.88206 0.5899 0.0
C571 C 0.4101 0.93691 0.57887 0.0
C572 C 0.43943 0.94987 0.58502 0.0
C573 C 0.4066 0.90525 0.58278 0.0
C574 C 0.43229 0.8867 0.58867 0.0
Eu575 Eu 0.4939 0.99858 0.5994 0.0
N576 N 0.44371 0.98026 0.57974 0.0
C577 C 0.38531 0.95613 0.56657 0.0
C578 C 0.41993 0.99894 0.56232 0.0
C579 C 0.3903 0.98726 0.55739 0.0
H580 H 0.54043 0.93868 0.58245 0.0
H581 H 0.37132 1.00221 0.54683 0.0
H582 H 0.50342 0.0292 0.9498 0.0
H583 H 0.57815 0.15548 0.67194 0.0
H584 H 0.42381 0.02304 0.5552 0.0
H585 H 0.36237 0.94711 0.56202 0.0
H586 H 0.57224 0.09985 0.67293 0.0
H587 H 0.53685 0.88274 0.58351 0.0
H588 H 0.38422 0.89487 0.57901 0.0
H589 H 0.42933 0.86229 0.5893 0.0
H590 H 0.48003 0.05485 0.06721 0.0
H591 H 0.48639 0.85753 0.58982 0.0
H592 H 0.55103 0.18662 0.77301 0.0
N593 N 0.51173 0.07012 0.88597 0.0
C594 C 0.51185 0.10074 0.88869 0.0
C595 C 0.48873 0.0681 1.01722 0.0
C596 C 0.49939 0.11652 0.95481 0.0
C597 C 0.50178 0.05363 0.95056 0.0
C598 C 0.48705 0.09972 0.01881 0.0
N599 N 0.54071 0.09941 0.77049 0.0
C600 C 0.55993 0.11316 0.71661 0.0
C601 C 0.53003 0.14784 0.83145 0.0
C602 C 0.5269 0.11602 0.82844 0.0
C603 C 0.54804 0.16222 0.77299 0.0
C604 C 0.56344 0.14471 0.71604 0.0
H605 H 0.47717 0.11093 0.0707 0.0
H606 H 0.4911 0.16096 1.006 0.0
H607 H 0.51798 0.18851 0.89747 0.0
O608 O 0.56039 1.00867 0.79499 0.0
O609 O 0.52523 0.06884 0.64364 0.0
O610 O 0.47996 0.04871 0.60633 0.0
O611 O 0.57134 0.05284 0.84461 0.0
O612 O 0.55772 0.0432 0.64939 0.0
O613 O 0.5459 0.99473 0.61711 0.0
O614 O 0.5189 0.02198 0.50388 0.0
O615 O 0.51521 0.97117 0.70329 0.0
O616 O 0.50636 1.00194 0.81081 0.0
O617 O 0.48563 0.98784 0.47185 0.0
O618 O 0.45647 0.01486 0.68748 0.0
O619 O 0.47895 0.04118 0.79412 0.0
C620 C 0.49989 0.0711 0.60209 0.0
C621 C 0.61137 0.01683 0.82448 0.0
C622 C 0.64994 0.97752 0.83304 0.0
C623 C 0.67043 0.9967 0.79188 0.0
C624 C 0.63202 0.036 0.78476 0.0
C625 C 0.66146 0.0258 0.76809 0.0
C626 C 0.62053 0.98799 0.84893 0.0
C627 C 0.56519 0.0178 0.61278 0.0
C628 C 0.57943 0.02454 0.83773 0.0
C629 C 0.50082 0.14835 0.95621 0.0
C630 C 0.51612 0.16403 0.89446 0.0
C631 C 0.50956 0.97433 0.78109 0.0
C632 C 0.49469 0.02798 0.37925 0.0
C633 C 0.46213 0.06804 0.32659 0.0
C634 C 0.47853 0.06731 0.25366 0.0
C635 C 0.51064 0.02753 0.30604 0.0
C636 C 0.47071 0.04845 0.3898 0.0
C637 C 0.50265 0.04722 0.24369 0.0
C638 C 0.4547 0.02905 0.75797 0.0
C639 C 0.50474 1.00829 0.44538 0.0
H640 H 0.6936 0.98969 0.7806 0.0
H641 H 0.62537 0.05857 0.76663 0.0
H642 H 0.67746 0.04056 0.73733 0.0
H643 H 0.60443 0.97359 0.88075 0.0
H644 H 0.47235 0.08191 0.20381 0.0
H645 H 0.5295 0.01216 0.29746 0.0
H646 H 0.459 0.04923 0.44732 0.0
H647 H 0.51515 0.04682 0.18736 0.0
Eu648 Eu 0.54602 0.50429 0.62489 0.0
C649 C 0.42373 0.51835 0.83692 0.0
N650 N 0.4326 0.53502 0.77203 0.0
C651 C 0.38065 0.53943 0.72923 0.0
C652 C 0.39281 0.51095 0.84961 0.0
C653 C 0.41157 0.54623 0.71946 0.0
C654 C 0.37124 0.52144 0.79416 0.0
C655 C 0.43719 0.49246 0.96097 0.0
C656 C 0.44558 0.50934 0.89193 0.0
C657 C 0.40652 0.48444 0.97301 0.0
C658 C 0.38437 0.49369 0.91749 0.0
Eu659 Eu 0.48555 0.54314 0.75479 0.0
N660 N 0.4751 0.51711 0.87785 0.0
C661 C 0.45984 0.48433 1.01612 0.0
C662 C 0.497 0.51058 0.93368 0.0
C663 C 0.48981 0.49376 1.00285 0.0
H664 H 0.41869 0.56112 0.67119 0.0
H665 H 0.50742 0.48808 0.0459 0.0
H666 H 0.61357 0.51072 0.7224 0.0
H667 H 0.51354 0.54911 0.32808 0.0
H668 H 0.52013 0.51786 0.92491 0.0
H669 H 0.45436 0.47124 0.06966 0.0
H670 H 0.50769 0.51867 0.45079 0.0
H671 H 0.3641 0.54826 0.68706 0.0
H672 H 0.39967 0.47135 0.02545 0.0
H673 H 0.36076 0.48766 0.92804 0.0
H674 H 0.66159 0.53915 0.70999 0.0
H675 H 0.34727 0.51627 0.80177 0.0
H676 H 0.56065 0.57892 0.30598 0.0
N677 N 0.59428 0.5287 0.6149 0.0
C678 C 0.59947 0.54538 0.54701 0.0
C679 C 0.64418 0.54142 0.66415 0.0
C680 C 0.62697 0.56167 0.5367 0.0
C681 C 0.61656 0.52576 0.67186 0.0
C682 C 0.6493 0.55971 0.5967 0.0
N683 N 0.55038 0.53127 0.50065 0.0
C684 C 0.52815 0.53153 0.44312 0.0
C685 C 0.58142 0.56433 0.41796 0.0
C686 C 0.577 0.54656 0.48806 0.0
C687 C 0.55819 0.56541 0.36032 0.0
C688 C 0.53154 0.54873 0.37271 0.0
H689 H 0.67071 0.57186 0.59097 0.0
H690 H 0.65226 0.59219 0.45854 0.0
H691 H 0.6123 0.59467 0.35485 0.0
O692 O 0.54305 0.46677 0.53928 0.0
O693 O 0.54426 0.5571 0.62877 0.0
O694 O 0.49382 0.56596 0.63197 0.0
O695 O 0.58426 0.47339 0.60726 0.0
O696 O 0.49609 0.49504 0.5819 0.0
O697 O 0.4676 0.53546 0.62558 0.0
O698 O 0.50523 0.58136 0.81951 0.0
O699 O 0.48398 0.49095 0.76632 0.0
O700 O 0.53229 0.47504 0.73647 0.0
O701 O 0.45762 0.58228 0.78731 0.0
O702 O 0.53604 0.54661 0.80048 0.0
O703 O 0.56048 0.50409 0.75695 0.0
C704 C 0.521 0.57406 0.60692 0.0
C705 C 0.56312 0.42432 0.6077 0.0
C706 C 0.52548 0.38967 0.66649 0.0
C707 C 0.54765 0.37884 0.72017 0.0
C708 C 0.58521 0.41277 0.66066 0.0
C709 C 0.57754 0.38989 0.7158 0.0
C710 C 0.53396 0.41123 0.60814 0.0
C711 C 0.4714 0.51224 0.57613 0.0
C712 C 0.56759 0.45404 0.56751 0.0
C713 C 0.63136 0.57942 0.46716 0.0
C714 C 0.60863 0.58078 0.40803 0.0
C715 C 0.50566 0.47047 0.77198 0.0
C716 C 0.48745 0.62622 0.76018 0.0
C717 C 0.52622 0.66066 0.70583 0.0
C718 C 0.50534 0.67064 0.64744 0.0
C719 C 0.46673 0.63676 0.70196 0.0
C720 C 0.51658 0.63927 0.76348 0.0
C721 C 0.47561 0.65911 0.64666 0.0
C722 C 0.55877 0.52704 0.80715 0.0
C723 C 0.48142 0.59834 0.80753 0.0
H724 H 0.54183 0.36251 0.76658 0.0
H725 H 0.60791 0.42251 0.66237 0.0
H726 H 0.59449 0.38164 0.7577 0.0
H727 H 0.51706 0.41921 0.56557 0.0
H728 H 0.51204 0.68677 0.60138 0.0
H729 H 0.44413 0.62699 0.69708 0.0
H730 H 0.53229 0.63181 0.80984 0.0
H731 H 0.45973 0.66669 0.60103 0.0
Eu732 Eu 0.03817 0.54583 0.61254 0.0
C733 C 0.02557 0.4255 0.81612 0.0
N734 N 0.01133 0.43513 0.74775 0.0
C735 C 0.01485 0.38511 0.69101 0.0
C736 C 0.03559 0.39523 0.82337 0.0
C737 C 1.00503 0.4151 0.68672 0.0
C738 C 0.03033 0.37515 0.75941 0.0
C739 C 0.04637 0.43664 0.94907 0.0
C740 C 0.0307 0.446 0.87883 0.0
C741 C 0.05597 0.4065 0.95646 0.0
C742 C 0.05059 0.38587 0.89386 0.0
Eu743 Eu 0.99565 0.48659 0.7471 0.0
N744 N 0.02189 0.47539 0.86948 0.0
C745 C 0.05259 0.458 1.00935 0.0
C746 C 0.02841 0.49631 0.92806 0.0
C747 C 0.04369 0.48796 0.99856 0.0
H748 H 0.99174 0.42179 0.63501 0.0
H749 H 0.04884 0.50477 0.04432 0.0
H750 H 0.99855 0.60707 0.69438 0.0
H751 H 0.04161 0.50784 0.29851 0.0
H752 H 0.02279 0.5197 0.92074 0.0
H753 H 0.06467 0.45169 0.06386 0.0
H754 H 0.05371 0.50645 0.4436 0.0
H755 H 1.0101 0.36957 0.64189 0.0
H756 H 0.06795 0.39899 1.01003 0.0
H757 H 0.05837 0.36274 0.9003 0.0
H758 H 0.96503 0.64664 0.64842 0.0
H759 H 0.03779 0.35182 0.76267 0.0
H760 H 1.00934 0.54866 0.24379 0.0
N761 N 1.00511 0.58697 0.57787 0.0
C762 C 0.99862 0.58966 0.49733 0.0
C763 C 0.97422 0.6307 0.60527 0.0
C764 C 0.97923 0.61277 0.4686 0.0
C765 C 0.99342 0.60756 0.6313 0.0
C766 C 0.96703 0.6333 0.52376 0.0
N767 N 0.02799 0.54579 0.47197 0.0
C768 C 0.03916 0.52414 0.42103 0.0
C769 C 1.00312 0.57027 0.36008 0.0
C770 C 0.0105 0.56869 0.4431 0.0
C771 C 0.01454 0.54817 0.3078 0.0
C772 C 0.03263 0.52501 0.33847 0.0
H773 H 0.95206 0.65127 0.50402 0.0
H774 H 0.95749 0.63222 0.36321 0.0
H775 H 0.97832 0.59499 0.26837 0.0
O776 O 0.0709 0.58351 0.62781 0.0
O777 O 0.9921 0.52945 0.56234 0.0
O778 O 0.96621 0.52178 0.67885 0.0
O779 O 0.07802 0.55028 0.5355 0.0
O780 O 0.04809 0.49469 0.59041 0.0
O781 O 1.001 0.47446 0.61306 0.0
O782 O 0.96006 0.48293 0.83936 0.0
O783 O 0.04845 0.48403 0.7534 0.0
O784 O 0.06262 0.53304 0.73082 0.0
O785 O 0.95729 0.45558 0.73176 0.0
O786 O 0.99416 0.53361 0.80705 0.0
O787 O 0.02579 0.56648 0.73627 0.0
C788 C 0.96604 0.5265 0.60014 0.0
C789 C 0.11994 0.56208 0.61542 0.0
C790 C 0.1549 0.52016 0.63197 0.0
C791 C 0.17875 0.5408 0.64634 0.0
C792 C 0.14373 0.58278 0.62861 0.0
C793 C 0.17288 0.57205 0.64742 0.0
C794 C 0.12527 0.53106 0.62665 0.0
C795 C 0.02701 0.47388 0.57379 0.0
C796 C 0.09059 0.57108 0.57987 0.0
C797 C 0.97229 0.61461 0.38592 0.0
C798 C 0.98418 0.59343 0.33187 0.0
C799 C 0.0685 0.50629 0.76183 0.0
C800 C 0.91205 0.47811 0.77366 0.0
C801 C 0.8774 0.52121 0.76226 0.0
C802 C 0.85945 0.50407 0.7081 0.0
C803 C 0.89318 0.46135 0.72153 0.0
C804 C 0.90351 0.50772 0.7958 0.0
C805 C 0.86708 0.4743 0.68904 0.0
C806 C 1.00841 0.56004 0.79956 0.0
C807 C 0.94256 0.46626 0.79345 0.0
H808 H 0.20201 0.53299 0.65078 0.0
H809 H 0.14004 0.6069 0.62184 0.0
H810 H 0.19141 0.58797 0.65667 0.0
H811 H 0.10695 0.51481 0.61759 0.0
H812 H 0.83962 0.51376 0.67943 0.0
H813 H 0.89931 0.4386 0.70332 0.0
H814 H 0.91744 0.52027 0.83829 0.0
H815 H 0.85306 0.46145 0.64734 0.0
C816 C 0.12171 0.06092 0.44732 0.0
C817 C 0.13724 0.03579 0.41349 0.0
C818 C 0.09731 0.05748 0.50345 0.0
C819 C 0.08707 0.02874 0.53025 0.0
H820 H 0.12844 0.08369 0.43014 0.0
H821 H 0.08666 0.07761 0.52721 0.0
S822 S 0.11986 0.95531 0.46306 0.0
N823 N 0.1401 0.98089 0.41335 0.0
N824 N 0.0951 0.97451 0.51745 0.0
C825 C 0.10245 1.00347 0.49716 0.0
C826 C 0.12704 1.00693 0.43936 0.0
C827 C 0.51494 0.1361 0.44676 0.0
C828 C 0.48633 0.15032 0.43747 0.0
C829 C 0.5193 0.11091 0.49978 0.0
C830 C 0.49513 0.0978 0.54493 0.0
H831 H 0.5345 0.1451 0.41477 0.0
H832 H 0.54191 0.1015 0.50514 0.0
S833 S 0.41548 0.12475 0.54438 0.0
N834 N 0.43312 0.1478 0.48105 0.0
N835 N 0.44159 0.10088 0.57602 0.0
C836 C 0.46645 0.11111 0.53516 0.0
C837 C 0.46202 0.13708 0.48318 0.0
C838 C 0.39757 0.51813 0.44362 0.0
C839 C 0.40115 0.49605 0.38267 0.0
C840 C 0.42035 0.52361 0.50357 0.0
C841 C 0.44775 0.50669 0.50848 0.0
H842 H 0.3764 0.53049 0.4473 0.0
H843 H 0.41591 0.54102 0.5475 0.0
S844 S 0.47039 0.44891 0.35664 0.0
N845 N 0.43659 0.45998 0.32536 0.0
N846 N 0.47742 0.46815 0.4401 0.0
C847 C 0.45196 0.48529 0.44586 0.0
C848 C 0.42937 0.4806 0.38312 0.0
C849 C 0.01364 0.41057 0.41235 0.0
C850 C 0.04051 0.39312 0.41516 0.0
C851 C 1.00987 0.43714 0.46092 0.0
C852 C 0.03277 0.4479 0.51464 0.0
H853 H 0.99462 0.40266 0.37628 0.0
H854 H 0.98831 0.44883 0.45829 0.0
S855 S 0.10595 0.40933 0.55198 0.0
N856 N 0.09005 0.38895 0.47967 0.0
N857 N 0.08245 0.43752 0.57001 0.0
C858 C 0.0598 0.43112 0.51666 0.0
C859 C 0.06375 0.40433 0.46744 0.0
C860 C 0.92649 0.01542 1.00433 0.0
C861 C 0.89526 0.0199 0.98668 0.0
C862 C 0.94963 0.01786 0.94458 0.0
C863 C 0.94299 0.02443 0.86281 0.0
H864 H 0.93299 1.00825 0.06449 0.0
H865 H 0.97281 0.01303 0.96225 0.0
S866 S 0.86518 0.03988 0.78416 0.0
N867 N 0.85947 0.03258 0.88091 0.0
N868 N 0.90226 0.03736 0.76955 0.0
C869 C 0.91198 0.03027 0.84506 0.0
C870 C 0.88846 0.02798 0.90629 0.0
C871 C 0.49873 0.91307 0.95053 0.0
C872 C 0.52591 0.89581 0.94776 0.0
C873 C 0.49362 0.93858 0.89859 0.0
C874 C 0.51485 0.9477 0.83859 0.0
H875 H 0.48086 0.90658 0.99219 0.0
H876 H 0.47238 0.95072 0.90397 0.0
S877 S 0.59101 0.9139 0.80904 0.0
N878 N 0.57649 0.89468 0.88539 0.0
N879 N 0.56451 0.93815 0.78219 0.0
C880 C 0.54204 0.93118 0.83566 0.0
C881 C 0.54815 0.90663 0.89128 0.0
C882 C 0.62946 0.51093 0.94394 0.0
C883 C 0.63498 0.53849 0.98528 0.0
C884 C 0.60468 0.50726 0.88889 0.0
C885 C 0.58378 0.53087 0.87157 0.0
H886 H 0.64512 0.49231 0.95174 0.0
H887 H 0.60228 0.48568 0.85827 0.0
S888 S 0.58571 0.60647 0.96981 0.0
N889 N 0.61536 0.58903 1.009 0.0
N890 N 0.56974 0.58223 0.90663 0.0
C891 C 0.58833 0.558 0.91527 0.0
C892 C 0.61351 0.56177 0.97117 0.0
C893 C 0.01376 0.63631 0.92073 0.0
C894 C 0.99656 0.63094 0.99158 0.0
C895 C 0.01825 0.61337 0.86094 0.0
C896 C 1.00507 0.58389 0.86707 0.0
H897 H 0.02266 0.65886 0.90932 0.0
H898 H 0.03146 0.61928 0.80798 0.0
S899 S 0.95978 0.55721 0.0441 0.0
N900 N 0.96891 0.59248 0.06734 0.0
N901 N 0.97489 0.55102 0.95444 0.0
C902 C 0.98869 0.57809 0.93925 0.0
C903 C 0.98511 0.60101 1.00101 0.0
C904 C 0.08823 0.14107 0.49087 0.0
C905 C 0.10957 0.15684 0.53916 0.0
C906 C 0.0582 0.13723 0.51552 0.0
C907 C 0.04811 0.14785 0.59086 0.0
H908 H 0.09348 0.1344 0.42955 0.0
H909 H 0.04236 0.12735 0.47263 0.0
S910 S 0.09653 0.18244 0.74987 0.0
N911 N 0.11993 0.17719 0.67311 0.0
N912 N 0.06297 0.16954 0.72003 0.0
C913 C 0.06982 0.16015 0.64411 0.0
C914 C 0.10071 0.16417 0.61873 0.0
C915 C 0.41138 0.13747 0.30841 0.0
C916 C 0.38343 0.12714 0.34006 0.0
C917 C 0.43686 0.11848 0.3056 0.0
C918 C 0.43553 0.08851 0.33508 0.0
H919 H 0.41319 0.16 0.28266 0.0
H920 H 0.45772 0.12728 0.2795 0.0
S921 S 0.36716 0.0495 0.41701 0.0
N922 N 0.3557 0.08421 0.39733 0.0
N923 N 0.40352 0.04893 0.39266 0.0
C924 C 0.40787 0.07799 0.3675 0.0
C925 C 0.38192 0.0972 0.37007 0.0
C926 C 0.44099 0.39155 0.63022 0.0
C927 C 0.43449 0.36076 0.61703 0.0
C928 C 0.47005 0.40075 0.65448 0.0
C929 C 0.49319 0.37949 0.66934 0.0
H930 H 0.4252 0.40871 0.60985 0.0
H931 H 0.47517 0.4248 0.65419 0.0
S932 S 0.48386 0.29596 0.6717 0.0
N933 N 0.45054 0.30887 0.64189 0.0
N934 N 0.5052 0.32626 0.68828 0.0
C935 C 0.48513 0.34867 0.67117 0.0
C936 C 0.45549 0.33928 0.64587 0.0
C937 C 0.18659 0.44085 0.60004 0.0
C938 C 0.17737 0.43441 0.51995 0.0
C939 C 0.17861 0.46819 0.63816 0.0
C940 C 0.16087 0.48975 0.59769 0.0
H941 H 0.20157 0.42546 0.6316 0.0
H942 H 0.18709 0.47291 0.69837 0.0
S943 S 0.12844 0.48319 0.39082 0.0
N944 N 0.14741 0.45156 0.40463 0.0
N945 N 0.13284 0.50232 0.47544 0.0
C946 C 0.15003 0.48284 0.51974 0.0
C947 C 0.15807 0.45531 0.4812 0.0
C948 C 0.87625 0.84039 0.85912 0.0
C949 C 0.87384 0.84613 0.94272 0.0
C950 C 0.89923 0.85408 0.81237 0.0
C951 C 0.92043 0.87426 0.84727 0.0
H952 H 0.86234 0.82287 0.83149 0.0
H953 H 0.9016 0.8473 0.74979 0.0
S954 S 0.9193 0.90271 0.05893 0.0
N955 N 0.8905 0.87871 0.0535 0.0
N956 N 0.93442 0.90282 0.96795 0.0
C957 C 0.91569 0.88319 0.92809 0.0
C958 C 0.89196 0.86977 0.97497 0.0
C959 C 0.66395 0.91543 0.98565 0.0
C960 C 0.68548 0.89685 0.94691 0.0
C961 C 0.6517 0.94062 0.94695 0.0
C962 C 0.65963 0.94791 0.86697 0.0
H963 H 0.65897 0.91286 0.04934 0.0
H964 H 0.6376 0.95566 0.98234 0.0
S965 S 0.70619 0.90068 0.72982 0.0
N966 N 0.70811 0.88318 0.81796 0.0
N967 N 0.68437 0.93055 0.7442 0.0
C968 C 0.67755 0.9272 0.82375 0.0
C969 C 0.69027 0.90147 0.86362 0.0
C970 C 0.60836 0.66402 0.7685 0.0
C971 C 0.61199 0.69522 0.78319 0.0
C972 C 0.58165 0.65284 0.73295 0.0
C973 C 0.55793 0.67254 0.7106 0.0
H974 H 0.62403 0.64798 0.79504 0.0
H975 H 0.57822 0.62849 0.7314 0.0
S976 S 0.56225 0.75646 0.70569 0.0
N977 N 0.59441 0.74582 0.74819 0.0
N978 N 0.54378 0.72478 0.68424 0.0
C979 C 0.56407 0.70379 0.71007 0.0
C980 C 0.59149 0.71516 0.74519 0.0
C981 C 0.82715 0.5867 0.82456 0.0
C982 C 0.84797 0.60955 0.84737 0.0
C983 C 0.83698 0.55886 0.79492 0.0
C984 C 0.8681 0.55264 0.78485 0.0
H985 H 0.80307 0.58911 0.83653 0.0
H986 H 0.8199 0.54145 0.78486 0.0
S987 S 0.93138 0.60792 0.81716 0.0
N988 N 0.90063 0.62621 0.84629 0.0
N989 N 0.91955 0.5741 0.78735 0.0
C990 C 0.8891 0.57647 0.79991 0.0
C991 C 0.87892 0.60486 0.8313 0.0
C992 C 0.01622 0.14544 0.87879 0.0
C993 C 0.04439 0.15167 0.91761 0.0
C994 C 0.01185 0.11985 0.82666 0.0
C995 C 0.03523 0.09861 0.81065 0.0
H996 H 0.99693 0.15989 0.89075 0.0
H997 H 0.98947 0.11612 0.80091 0.0
S998 S 0.11482 0.10638 0.88353 0.0
N999 N 0.0974 0.1357 0.92404 0.0
N1000 N 0.08854 0.0878 0.83192 0.0
C1001 C 0.06372 0.10523 0.84591 0.0
C1002 C 0.06842 0.13147 0.8974 0.0
C1003 C 0.3682 0.03958 0.79686 0.0
C1004 C 0.36425 0.03426 0.88091 0.0
C1005 C 0.39696 0.03733 0.75784 0.0
C1006 C 0.4238 0.03016 0.80051 0.0
H1007 H 0.34884 0.04626 0.76066 0.0
H1008 H 0.39827 0.04224 0.69382 0.0
S1009 S 0.42635 0.01065 0.01917 0.0
N1010 N 0.39029 0.01924 1.00366 0.0
N1011 N 0.44355 0.0146 0.93098 0.0
C1012 C 0.42004 0.0235 0.88367 0.0
C1013 C 0.39067 0.02556 0.92337 0.0
C1014 C 0.51675 0.40193 0.92095 0.0
C1015 C 0.48695 0.39005 0.93201 0.0
C1016 C 0.52303 0.42685 0.86744 0.0
C1017 C 0.49976 0.44202 0.82384 0.0
H1018 H 0.53524 0.39282 0.9565 0.0
H1019 H 0.54622 0.43514 0.86297 0.0
S1020 S 0.41833 0.41856 0.8237 0.0
N1021 N 0.43472 0.39376 0.88394 0.0
N1022 N 0.44574 0.44178 0.79427 0.0
C1023 C 0.47016 0.42991 0.83323 0.0
C1024 C 0.46407 0.40375 0.88358 0.0
C1025 C 0.1404 0.52265 0.89539 0.0
C1026 C 0.15285 0.49374 0.91168 0.0
C1027 C 0.11379 0.52651 0.84673 0.0
C1028 C 0.09781 0.50174 0.81133 0.0
H1029 H 0.15075 0.54253 0.92252 0.0
H1030 H 0.10527 0.54927 0.83825 0.0
S1031 S 0.12323 0.42167 0.82291 0.0
N1032 N 0.14829 0.44014 0.87909 0.0
N1033 N 0.09917 0.44741 0.78979 0.0
C1034 C 0.1108 0.47293 0.82418 0.0
C1035 C 0.13785 0.46898 0.87336 0.0
C1036 C 0.02143 0.89598 0.45736 0.0
C1037 C 0.99393 0.87897 0.45883 0.0
C1038 C 0.02546 0.92327 0.50302 0.0
C1039 C 1.00215 0.93556 0.55216 0.0
H1040 H 0.03987 0.88864 0.41885 0.0
H1041 H 0.04693 0.93526 0.49807 0.0
S1042 S 0.9274 0.89827 0.58884 0.0
N1043 N 0.9443 0.87549 0.52396 0.0
N1044 N 0.95152 0.92648 0.60482 0.0
C1045 C 0.97502 0.91836 0.55633 0.0
C1046 C 0.97106 0.89037 0.51139 0.0
C1047 C 0.62307 0.98997 0.45204 0.0
C1048 C 0.648 0.01081 0.4546 0.0
C1049 C 0.5972 0.99224 0.50306 0.0
C1050 C 0.59355 0.01613 0.55876 0.0
H1051 H 0.62299 0.97144 0.40935 0.0
H1052 H 0.57955 0.97509 0.49756 0.0
S1053 S 0.64941 0.0791 0.58729 0.0
N1054 N 0.66576 0.05725 0.51919 0.0
N1055 N 0.61644 0.06279 0.60842 0.0
C1056 C 0.6173 0.03807 0.55974 0.0
C1057 C 0.64435 0.03522 0.50958 0.0
C1058 C 0.55921 0.64341 0.50295 0.0
C1059 C 0.53739 0.65479 0.44725 0.0
C1060 C 0.55377 0.61774 0.55278 0.0
C1061 C 0.52567 0.60213 0.55338 0.0
H1062 H 0.58144 0.65404 0.507 0.0
H1063 H 0.57203 0.61001 0.59135 0.0
S1064 S 0.45967 0.62218 0.42338 0.0
N1065 N 0.48582 0.64757 0.39801 0.0
N1066 N 0.47509 0.60074 0.49409 0.0
C1067 C 0.50306 0.61375 0.50074 0.0
C1068 C 0.50891 0.63963 0.44802 0.0
C1069 C 0.88298 0.54646 0.53944 0.0
C1070 C 0.88036 0.53743 0.45756 0.0
C1071 C 0.91006 0.54212 0.58514 0.0
C1072 C 0.93639 0.52894 0.55194 0.0
H1073 H 0.86429 0.55836 0.56761 0.0
H1074 H 0.91094 0.55071 0.64591 0.0
S1075 S 0.94271 0.50237 0.33925 0.0
N1076 N 0.90753 0.51518 0.34507 0.0
N1077 N 0.95775 0.50707 0.42993 0.0
C1078 C 0.93409 0.51969 0.47017 0.0
C1079 C 0.90643 0.52386 0.42373 0.0
loop_
_geom_bond_atom_site_label_1
_geom_bond_atom_site_label_2
_geom_bond_distance
_geom_bond_site_symmetry_2
_ccdc_geom_bond_type
C0 C1 1.391 . S
C0 C4 1.391 . S
C0 H42 0.948 . S
C1 C0 1.391 . S
C1 C2 1.391 . S
C2 C1 1.391 . S
C2 H58 0.947 . S
C2 C59 1.392 . S
C3 C4 1.391 . S
C3 C7 1.397 . S
C3 C59 1.419 . S
C4 C0 1.391 . S
C4 C3 1.391 . S
C4 C5 1.399 . S
C5 C4 1.399 . S
C5 C8 1.396 . S
C5 C17 1.453 . S
C5 C18 1.684 . S
H6 C30 0.948 . S
C7 C3 1.397 . S
C7 C8 1.394 . S
C7 C26 1.723 . S
C8 C5 1.396 . S
C8 C7 1.394 . S
C8 C38 1.723 . S
H9 C32 0.947 . S
H10 C33 0.948 . S
H11 C39 0.982 . S
H12 C40 0.979 . S
H13 C40 0.980 . S
H14 C40 0.983 . S
H15 C39 0.979 . S
H16 C39 0.977 . S
C17 C5 1.453 . S
C17 H46 0.982 . S
C17 H47 0.979 . S
C17 H48 0.977 . S
C18 C5 1.684 . S
C18 H43 0.979 . S
C18 H44 0.980 . S
C18 H45 0.983 . S
C19 C20 1.391 . S
C19 C24 1.391 . S
C19 H49 0.948 . S
C20 C19 1.391 . S
C20 C21 1.391 . S
C21 C20 1.391 . S
C21 C22 1.392 . S
C21 H50 0.947 1_554 S
C22 C21 1.392 . S
C22 C23 1.419 . S
C22 H51 0.948 . S
C23 C22 1.419 . S
C23 C24 1.391 . S
C23 C27 1.397 . S
C24 C19 1.391 . S
C24 C23 1.391 . S
C24 C25 1.399 . S
C25 C24 1.399 . S
C25 C26 1.396 . S
C25 C28 1.453 . S
C25 C29 1.684 . S
C26 C7 1.723 . S
C26 C25 1.396 . S
C26 C27 1.394 . S
C27 C23 1.397 . S
C27 C26 1.394 . S
C27 C37 1.723 . S
C28 C25 1.453 . S
C28 H52 0.982 . S
C28 H53 0.979 . S
C28 H54 0.977 . S
C29 C25 1.684 . S
C29 H55 0.979 . S
C29 H56 0.980 . S
C29 H57 0.983 . S
C30 H6 0.948 . S
C30 C31 1.391 . S
C30 C35 1.391 . S
C31 C30 1.391 . S
C31 C32 1.391 . S
C32 H9 0.947 . S
C32 C31 1.391 . S
C32 C33 1.392 . S
C33 H10 0.948 . S
C33 C32 1.392 . S
C33 C34 1.419 . S
C34 C33 1.419 . S
C34 C35 1.391 . S
C34 C38 1.397 . S
C35 C30 1.391 . S
C35 C34 1.391 . S
C35 C36 1.399 . S
C36 C35 1.399 . S
C36 C37 1.396 . S
C36 C39 1.453 . S
C36 C40 1.684 . S
C37 C27 1.723 . S
C37 C36 1.396 . S
C37 C38 1.394 . S
C38 C8 1.723 . S
C38 C34 1.397 . S
C38 C37 1.394 . S
C39 H11 0.982 . S
C39 H15 0.979 . S
C39 H16 0.977 . S
C39 C36 1.453 . S
C40 H12 0.979 . S
C40 H13 0.980 . S
C40 H14 0.983 . S
C40 C36 1.684 . S
H41 C59 0.948 . S
H42 C0 0.948 . S
H43 C18 0.979 . S
H44 C18 0.980 . S
H45 C18 0.983 . S
H46 C17 0.982 . S
H47 C17 0.979 . S
H48 C17 0.977 . S
H49 C19 0.948 . S
H50 C21 0.947 1_556 S
H51 C22 0.948 . S
H52 C28 0.982 . S
H53 C28 0.979 . S
H54 C28 0.977 . S
H55 C29 0.979 . S
H56 C29 0.980 . S
H57 C29 0.983 . S
H58 C2 0.947 . S
C59 C2 1.392 . S
C59 C3 1.419 . S
C59 H41 0.948 . S
C60 C61 1.391 . S
C60 C64 1.391 . S
C60 H102 0.948 . S
C61 C60 1.391 . S
C61 C62 1.391 . S
C62 C61 1.391 . S
C62 H118 0.947 . S
C62 C119 1.392 . S
C63 C64 1.391 . S
C63 C67 1.397 . S
C63 C119 1.419 . S
C64 C60 1.391 . S
C64 C63 1.391 . S
C64 C65 1.399 . S
C65 C64 1.399 . S
C65 C68 1.396 . S
C65 C77 1.453 . S
C65 C78 1.684 . S
H66 C90 0.948 . S
C67 C63 1.397 . S
C67 C68 1.394 . S
C67 C86 1.723 . S
C68 C65 1.396 . S
C68 C67 1.394 . S
C68 C98 1.723 . S
H69 C92 0.947 . S
H70 C93 0.948 . S
H71 C99 0.982 1_455 S
H72 C100 0.979 . S
H73 C100 0.980 . S
H74 C100 0.983 . S
H75 C99 0.979 . S
H76 C99 0.977 . S
C77 C65 1.453 . S
C77 H106 0.982 1_655 S
C77 H107 0.979 . S
C77 H108 0.977 . S
C78 C65 1.684 . S
C78 H103 0.979 . S
C78 H104 0.980 . S
C78 H105 0.983 . S
C79 C80 1.391 . S
C79 C84 1.391 . S
C79 H109 0.948 . S
C80 C79 1.391 . S
C80 C81 1.391 . S
C81 C80 1.391 . S
C81 C82 1.392 . S
C81 H110 0.947 . S
C82 C81 1.392 . S
C82 C83 1.419 . S
C82 H111 0.948 . S
C83 C82 1.419 . S
C83 C84 1.391 . S
C83 C87 1.397 . S
C84 C79 1.391 . S
C84 C83 1.391 . S
C84 C85 1.399 . S
C85 C84 1.399 . S
C85 C86 1.396 . S
C85 C88 1.453 . S
C85 C89 1.684 . S
C86 C67 1.723 . S
C86 C85 1.396 . S
C86 C87 1.394 . S
C87 C83 1.397 . S
C87 C86 1.394 . S
C87 C97 1.723 . S
C88 C85 1.453 . S
C88 H112 0.982 1_655 S
C88 H113 0.979 . S
C88 H114 0.977 . S
C89 C85 1.684 . S
C89 H115 0.979 . S
C89 H116 0.980 . S
C89 H117 0.983 . S
C90 H66 0.948 . S
C90 C91 1.391 . S
C90 C95 1.391 . S
C91 C90 1.391 . S
C91 C92 1.391 . S
C92 H69 0.947 . S
C92 C91 1.391 . S
C92 C93 1.392 . S
C93 H70 0.948 . S
C93 C92 1.392 . S
C93 C94 1.419 . S
C94 C93 1.419 . S
C94 C95 1.391 . S
C94 C98 1.397 . S
C95 C90 1.391 . S
C95 C94 1.391 . S
C95 C96 1.399 . S
C96 C95 1.399 . S
C96 C97 1.396 . S
C96 C99 1.453 . S
C96 C100 1.684 . S
C97 C87 1.723 . S
C97 C96 1.396 . S
C97 C98 1.394 . S
C98 C68 1.723 . S
C98 C94 1.397 . S
C98 C97 1.394 . S
C99 H71 0.982 1_655 S
C99 H75 0.979 . S
C99 H76 0.977 . S
C99 C96 1.453 . S
C100 H72 0.979 . S
C100 H73 0.980 . S
C100 H74 0.983 . S
C100 C96 1.684 . S
H101 C119 0.948 . S
H102 C60 0.948 . S
H103 C78 0.979 . S
H104 C78 0.980 . S
H105 C78 0.983 . S
H106 C77 0.982 1_455 S
H107 C77 0.979 . S
H108 C77 0.977 . S
H109 C79 0.948 . S
H110 C81 0.947 . S
H111 C82 0.948 . S
H112 C88 0.982 1_455 S
H113 C88 0.979 . S
H114 C88 0.977 . S
H115 C89 0.979 . S
H116 C89 0.980 . S
H117 C89 0.983 . S
H118 C62 0.947 . S
C119 C62 1.392 . S
C119 C63 1.419 . S
C119 H101 0.948 . S
C120 C121 1.391 . S
C120 C124 1.391 . S
C120 H162 0.948 . S
C121 C120 1.391 . S
C121 C122 1.391 . S
C122 C121 1.391 . S
C122 H178 0.947 . S
C122 C179 1.392 . S
C123 C124 1.391 . S
C123 C127 1.397 . S
C123 C179 1.419 . S
C124 C120 1.391 . S
C124 C123 1.391 . S
C124 C125 1.399 . S
C125 C124 1.399 . S
C125 C128 1.396 . S
C125 C137 1.453 . S
C125 C138 1.684 . S
H126 C150 0.948 . S
C127 C123 1.397 . S
C127 C128 1.394 . S
C127 C146 1.723 . S
C128 C125 1.396 . S
C128 C127 1.394 . S
C128 C158 1.723 . S
H129 C152 0.947 . S
H130 C153 0.948 . S
H131 C159 0.982 1_545 S
H132 C160 0.979 . S
H133 C160 0.980 . S
H134 C160 0.983 . S
H135 C159 0.979 . S
H136 C159 0.977 . S
C137 C125 1.453 . S
C137 H166 0.982 1_565 S
C137 H167 0.979 . S
C137 H168 0.977 . S
C138 C125 1.684 . S
C138 H163 0.979 . S
C138 H164 0.980 . S
C138 H165 0.983 . S
C139 C140 1.391 . S
C139 C144 1.391 . S
C139 H169 0.948 . S
C140 C139 1.391 . S
C140 C141 1.391 . S
C141 C140 1.391 . S
C141 C142 1.392 . S
C141 H170 0.947 . S
C142 C141 1.392 . S
C142 C143 1.419 . S
C142 H171 0.948 . S
C143 C142 1.419 . S
C143 C144 1.391 . S
C143 C147 1.397 . S
C144 C139 1.391 . S
C144 C143 1.391 . S
C144 C145 1.399 . S
C145 C144 1.399 . S
C145 C146 1.396 . S
C145 C148 1.453 . S
C145 C149 1.684 . S
C146 C127 1.723 . S
C146 C145 1.396 . S
C146 C147 1.394 . S
C147 C143 1.397 . S
C147 C146 1.394 . S
C147 C157 1.723 . S
C148 C145 1.453 . S
C148 H172 0.982 1_565 S
C148 H173 0.979 . S
C148 H174 0.977 . S
C149 C145 1.684 . S
C149 H175 0.979 . S
C149 H176 0.980 . S
C149 H177 0.983 . S
C150 H126 0.948 . S
C150 C151 1.391 . S
C150 C155 1.391 . S
C151 C150 1.391 . S
C151 C152 1.391 . S
C152 H129 0.947 . S
C152 C151 1.391 . S
C152 C153 1.392 . S
C153 H130 0.948 . S
C153 C152 1.392 . S
C153 C154 1.419 . S
C154 C153 1.419 . S
C154 C155 1.391 . S
C154 C158 1.397 . S
C155 C150 1.391 . S
C155 C154 1.391 . S
C155 C156 1.399 . S
C156 C155 1.399 . S
C156 C157 1.396 . S
C156 C159 1.453 . S
C156 C160 1.684 . S
C157 C147 1.723 . S
C157 C156 1.396 . S
C157 C158 1.394 . S
C158 C128 1.723 . S
C158 C154 1.397 . S
C158 C157 1.394 . S
C159 H131 0.982 1_565 S
C159 H135 0.979 . S
C159 H136 0.977 . S
C159 C156 1.453 . S
C160 H132 0.979 . S
C160 H133 0.980 . S
C160 H134 0.983 . S
C160 C156 1.684 . S
H161 C179 0.948 . S
H162 C120 0.948 . S
H163 C138 0.979 . S
H164 C138 0.980 . S
H165 C138 0.983 . S
H166 C137 0.982 1_545 S
H167 C137 0.979 . S
H168 C137 0.977 . S
H169 C139 0.948 . S
H170 C141 0.947 . S
H171 C142 0.948 . S
H172 C148 0.982 1_545 S
H173 C148 0.979 . S
H174 C148 0.977 . S
H175 C149 0.979 . S
H176 C149 0.980 . S
H177 C149 0.983 . S
H178 C122 0.947 . S
C179 C122 1.392 . S
C179 C123 1.419 . S
C179 H161 0.948 . S
C180 C181 1.391 . S
C180 C184 1.391 . S
C180 H222 0.948 . S
C181 C180 1.391 . S
C181 C182 1.391 . S
C182 C181 1.391 . S
C182 H238 0.947 . S
C182 C239 1.392 . S
C183 C184 1.391 . S
C183 C187 1.397 . S
C183 C239 1.419 . S
C184 C180 1.391 . S
C184 C183 1.391 . S
C184 C185 1.399 . S
C185 C184 1.399 . S
C185 C188 1.396 . S
C185 C197 1.453 . S
C185 C198 1.684 . S
H186 C210 0.948 . S
C187 C183 1.397 . S
C187 C188 1.394 . S
C187 C206 1.723 . S
C188 C185 1.396 . S
C188 C187 1.394 . S
C188 C218 1.723 . S
H189 C212 0.947 . S
H190 C213 0.948 . S
H191 C219 0.982 . S
H192 C220 0.979 . S
H193 C220 0.980 . S
H194 C220 0.983 . S
H195 C219 0.979 . S
H196 C219 0.977 . S
C197 C185 1.453 . S
C197 H226 0.982 . S
C197 H227 0.979 . S
C197 H228 0.977 . S
C198 C185 1.684 . S
C198 H223 0.979 . S
C198 H224 0.980 . S
C198 H225 0.983 . S
C199 C200 1.391 . S
C199 C204 1.391 . S
C199 H229 0.948 . S
C200 C199 1.391 . S
C200 C201 1.391 . S
C201 C200 1.391 . S
C201 C202 1.392 . S
C201 H230 0.947 1_554 S
C202 C201 1.392 . S
C202 C203 1.419 . S
C202 H231 0.948 . S
C203 C202 1.419 . S
C203 C204 1.391 . S
C203 C207 1.397 . S
C204 C199 1.391 . S
C204 C203 1.391 . S
C204 C205 1.399 . S
C205 C204 1.399 . S
C205 C206 1.396 . S
C205 C208 1.453 . S
C205 C209 1.684 . S
C206 C187 1.723 . S
C206 C205 1.396 . S
C206 C207 1.394 . S
C207 C203 1.397 . S
C207 C206 1.394 . S
C207 C217 1.723 . S
C208 C205 1.453 . S
C208 H232 0.982 . S
C208 H233 0.979 . S
C208 H234 0.977 . S
C209 C205 1.684 . S
C209 H235 0.979 . S
C209 H236 0.980 . S
C209 H237 0.983 . S
C210 H186 0.948 . S
C210 C211 1.391 . S
C210 C215 1.391 . S
C211 C210 1.391 . S
C211 C212 1.391 . S
C212 H189 0.947 . S
C212 C211 1.391 . S
C212 C213 1.392 . S
C213 H190 0.948 . S
C213 C212 1.392 . S
C213 C214 1.419 . S
C214 C213 1.419 . S
C214 C215 1.391 . S
C214 C218 1.397 . S
C215 C210 1.391 . S
C215 C214 1.391 . S
C215 C216 1.399 . S
C216 C215 1.399 . S
C216 C217 1.396 . S
C216 C219 1.453 . S
C216 C220 1.684 . S
C217 C207 1.723 . S
C217 C216 1.396 . S
C217 C218 1.394 . S
C218 C188 1.723 . S
C218 C214 1.397 . S
C218 C217 1.394 . S
C219 H191 0.982 . S
C219 H195 0.979 . S
C219 H196 0.977 . S
C219 C216 1.453 . S
C220 H192 0.979 . S
C220 H193 0.980 . S
C220 H194 0.983 . S
C220 C216 1.684 . S
H221 C239 0.948 . S
H222 C180 0.948 . S
H223 C198 0.979 . S
H224 C198 0.980 . S
H225 C198 0.983 . S
H226 C197 0.982 . S
H227 C197 0.979 . S
H228 C197 0.977 . S
H229 C199 0.948 . S
H230 C201 0.947 1_556 S
H231 C202 0.948 . S
H232 C208 0.982 . S
H233 C208 0.979 . S
H234 C208 0.977 . S
H235 C209 0.979 . S
H236 C209 0.980 . S
H237 C209 0.983 . S
H238 C182 0.947 . S
C239 C182 1.392 . S
C239 C183 1.419 . S
C239 H221 0.948 . S
C240 C241 1.391 . S
C240 C244 1.391 . S
C240 H282 0.948 . S
C241 C240 1.391 . S
C241 C242 1.391 . S
C242 C241 1.391 . S
C242 H298 0.947 . S
C242 C299 1.392 . S
C243 C244 1.391 . S
C243 C247 1.397 . S
C243 C299 1.419 . S
C244 C240 1.391 . S
C244 C243 1.391 . S
C244 C245 1.399 1_554 S
C245 C244 1.399 1_556 S
C245 C248 1.396 . S
C245 C257 1.453 . S
C245 C258 1.684 . S
H246 C270 0.948 . S
C247 C243 1.397 . S
C247 C248 1.394 1_554 S
C247 C266 1.723 . S
C248 C245 1.396 . S
C248 C247 1.394 1_556 S
C248 C278 1.723 . S
H249 C272 0.947 . S
H250 C273 0.948 . S
H251 C279 0.982 . S
H252 C280 0.979 . S
H253 C280 0.980 . S
H254 C280 0.983 . S
H255 C279 0.979 . S
H256 C279 0.970 1_554 S
C257 C245 1.453 . S
C257 H286 0.982 . S
C257 H287 0.979 . S
C257 H288 0.977 . S
C258 C245 1.684 . S
C258 H283 0.979 . S
C258 H284 0.980 . S
C258 H285 0.983 . S
C259 C260 1.391 . S
C259 C264 1.391 . S
C259 H289 0.948 . S
C260 C259 1.391 . S
C260 C261 1.391 . S
C261 C260 1.391 . S
C261 C262 1.392 . S
C261 H290 0.947 . S
C262 C261 1.392 . S
C262 C263 1.419 . S
C262 H291 0.948 . S
C263 C262 1.419 . S
C263 C264 1.391 . S
C263 C267 1.397 . S
C264 C259 1.391 . S
C264 C263 1.391 . S
C264 C265 1.399 . S
C265 C264 1.399 . S
C265 C266 1.396 . S
C265 C268 1.453 . S
C265 C269 1.684 . S
C266 C247 1.723 . S
C266 C265 1.396 . S
C266 C267 1.394 . S
C267 C263 1.397 . S
C267 C266 1.394 . S
C267 C277 1.723 1_554 S
C268 C265 1.453 . S
C268 H292 0.982 . S
C268 H293 0.979 . S
C268 H294 0.977 . S
C269 C265 1.684 . S
C269 H295 0.979 . S
C269 H296 0.980 . S
C269 H297 0.983 . S
C270 H246 0.948 . S
C270 C271 1.391 . S
C270 C275 1.391 . S
C271 C270 1.391 . S
C271 C272 1.391 . S
C272 H249 0.947 . S
C272 C271 1.391 . S
C272 C273 1.392 . S
C273 H250 0.948 . S
C273 C272 1.392 . S
C273 C274 1.419 . S
C274 C273 1.419 . S
C274 C275 1.391 . S
C274 C278 1.397 . S
C275 C270 1.391 . S
C275 C274 1.391 . S
C275 C276 1.399 . S
C276 C275 1.399 . S
C276 C277 1.396 . S
C276 C279 1.453 . S
C276 C280 1.684 . S
C277 C267 1.723 1_556 S
C277 C276 1.396 . S
C277 C278 1.394 . S
C278 C248 1.723 . S
C278 C274 1.397 . S
C278 C277 1.394 . S
C279 H251 0.982 . S
C279 H255 0.979 . S
C279 H256 0.970 1_556 S
C279 C276 1.453 . S
C280 H252 0.979 . S
C280 H253 0.980 . S
C280 H254 0.983 . S
C280 C276 1.684 . S
H281 C299 0.948 . S
H282 C240 0.948 . S
H283 C258 0.979 . S
H284 C258 0.980 . S
H285 C258 0.983 . S
H286 C257 0.982 . S
H287 C257 0.979 . S
H288 C257 0.977 . S
H289 C259 0.948 . S
H290 C261 0.947 . S
H291 C262 0.948 . S
H292 C268 0.982 . S
H293 C268 0.979 . S
H294 C268 0.977 . S
H295 C269 0.979 . S
H296 C269 0.980 . S
H297 C269 0.983 . S
H298 C242 0.947 . S
C299 C242 1.392 . S
C299 C243 1.419 . S
C299 H281 0.948 . S
C300 C301 1.391 . S
C300 C304 1.391 . S
C300 H342 0.948 . S
C301 C300 1.391 . S
C301 C302 1.391 . S
C302 C301 1.391 . S
C302 H358 0.947 . S
C302 C359 1.392 . S
C303 C304 1.391 . S
C303 C307 1.397 . S
C303 C359 1.419 . S
C304 C300 1.391 . S
C304 C303 1.391 . S
C304 C305 1.399 . S
C305 C304 1.399 . S
C305 C308 1.396 . S
C305 C317 1.453 . S
C305 C318 1.684 . S
H306 C330 0.948 . S
C307 C303 1.397 . S
C307 C308 1.394 . S
C307 C326 1.723 1_554 S
C308 C305 1.396 . S
C308 C307 1.394 . S
C308 C338 1.723 . S
H309 C332 0.947 . S
H310 C333 0.948 . S
H311 C339 0.982 . S
H312 C340 0.979 1_655 S
H313 C340 0.980 . S
H314 C340 0.983 . S
H315 C339 0.979 . S
H316 C339 0.977 . S
C317 C305 1.453 . S
C317 H346 0.982 . S
C317 H347 0.979 . S
C317 H348 0.977 . S
C318 C305 1.684 . S
C318 H343 0.979 1_455 S
C318 H344 0.980 . S
C318 H345 0.983 . S
C319 C320 1.391 . S
C319 C324 1.391 . S
C319 H349 0.948 . S
C320 C319 1.391 . S
C320 C321 1.391 . S
C321 C320 1.391 . S
C321 C322 1.392 . S
C321 H350 0.947 . S
C322 C321 1.392 . S
C322 C323 1.419 . S
C322 H351 0.948 . S
C323 C322 1.419 . S
C323 C324 1.391 . S
C323 C327 1.397 . S
C324 C319 1.391 . S
C324 C323 1.391 . S
C324 C325 1.399 . S
C325 C324 1.399 . S
C325 C326 1.396 . S
C325 C328 1.453 . S
C325 C329 1.684 . S
C326 C307 1.723 1_556 S
C326 C325 1.396 . S
C326 C327 1.394 . S
C327 C323 1.397 . S
C327 C326 1.394 . S
C327 C337 1.723 . S
C328 C325 1.453 . S
C328 H352 0.982 . S
C328 H353 0.979 . S
C328 H354 0.977 1_556 S
C329 C325 1.684 . S
C329 H355 0.979 1_455 S
C329 H356 0.984 . S
C329 H357 0.983 . S
C330 H306 0.948 . S
C330 C331 1.391 . S
C330 C335 1.391 . S
C331 C330 1.391 . S
C331 C332 1.391 . S
C332 H309 0.947 . S
C332 C331 1.391 . S
C332 C333 1.392 . S
C333 H310 0.948 . S
C333 C332 1.392 . S
C333 C334 1.419 . S
C334 C333 1.419 . S
C334 C335 1.391 . S
C334 C338 1.397 . S
C335 C330 1.391 . S
C335 C334 1.391 . S
C335 C336 1.399 1_554 S
C336 C335 1.399 1_556 S
C336 C337 1.396 . S
C336 C339 1.453 . S
C336 C340 1.684 . S
C337 C327 1.723 . S
C337 C336 1.396 . S
C337 C338 1.394 1_556 S
C338 C308 1.723 . S
C338 C334 1.397 . S
C338 C337 1.394 1_554 S
C339 H311 0.982 . S
C339 H315 0.979 . S
C339 H316 0.977 . S
C339 C336 1.453 . S
C340 H312 0.979 1_455 S
C340 H313 0.980 . S
C340 H314 0.983 . S
C340 C336 1.684 . S
H341 C359 0.948 . S
H342 C300 0.948 . S
H343 C318 0.979 1_655 S
H344 C318 0.980 . S
H345 C318 0.983 . S
H346 C317 0.982 . S
H347 C317 0.979 . S
H348 C317 0.977 . S
H349 C319 0.948 . S
H350 C321 0.947 . S
H351 C322 0.948 . S
H352 C328 0.982 . S
H353 C328 0.979 . S
H354 C328 0.977 1_554 S
H355 C329 0.979 1_655 S
H356 C329 0.984 . S
H357 C329 0.983 . S
H358 C302 0.947 . S
C359 C302 1.392 . S
C359 C303 1.419 . S
C359 H341 0.948 . S
C360 C361 1.391 . S
C360 C364 1.391 . S
C360 H402 0.948 . S
C361 C360 1.391 . S
C361 C362 1.391 . S
C362 C361 1.391 . S
C362 H418 0.947 . S
C362 C419 1.392 . S
C363 C364 1.391 . S
C363 C367 1.397 . S
C363 C419 1.419 . S
C364 C360 1.391 . S
C364 C363 1.391 . S
C364 C365 1.399 . S
C365 C364 1.399 . S
C365 C368 1.396 . S
C365 C377 1.453 . S
C365 C378 1.684 . S
H366 C390 0.948 . S
C367 C363 1.397 . S
C367 C368 1.394 . S
C367 C386 1.723 1_556 S
C368 C365 1.396 . S
C368 C367 1.394 . S
C368 C398 1.723 1_556 S
H369 C392 0.947 1_556 S
H370 C393 0.946 1_556 S
H371 C399 0.982 . S
H372 C400 0.979 . S
H373 C400 0.980 . S
H374 C400 0.983 . S
H375 C399 0.979 . S
H376 C399 0.977 . S
C377 C365 1.453 . S
C377 H406 0.982 . S
C377 H407 0.979 . S
C377 H408 0.977 . S
C378 C365 1.684 . S
C378 H403 0.979 . S
C378 H404 0.980 . S
C378 H405 0.983 . S
C379 C380 1.391 . S
C379 C384 1.391 . S
C379 H409 0.948 . S
C380 C379 1.391 . S
C380 C381 1.391 . S
C381 C380 1.391 . S
C381 C382 1.392 . S
C381 H410 0.947 . S
C382 C381 1.392 . S
C382 C383 1.419 . S
C382 H411 0.948 . S
C383 C382 1.419 . S
C383 C384 1.391 . S
C383 C387 1.397 . S
C384 C379 1.391 . S
C384 C383 1.391 . S
C384 C385 1.399 . S
C385 C384 1.399 . S
C385 C386 1.396 . S
C385 C388 1.453 . S
C385 C389 1.684 . S
C386 C367 1.723 1_554 S
C386 C385 1.396 . S
C386 C387 1.394 . S
C387 C383 1.397 . S
C387 C386 1.394 . S
C387 C397 1.723 . S
C388 C385 1.453 . S
C388 H412 0.982 . S
C388 H413 0.979 . S
C388 H414 0.977 1_554 S
C389 C385 1.684 . S
C389 H415 0.979 . S
C389 H416 0.980 1_554 S
C389 H417 0.983 . S
C390 H366 0.948 . S
C390 C391 1.391 . S
C390 C395 1.391 . S
C391 C390 1.391 . S
C391 C392 1.391 . S
C392 H369 0.947 1_554 S
C392 C391 1.391 . S
C392 C393 1.393 . S
C393 H370 0.946 1_554 S
C393 C392 1.393 . S
C393 C394 1.420 . S
C394 C393 1.420 . S
C394 C395 1.391 . S
C394 C398 1.397 . S
C395 C390 1.391 . S
C395 C394 1.391 . S
C395 C396 1.399 . S
C396 C395 1.399 . S
C396 C397 1.396 . S
C396 C399 1.453 . S
C396 C400 1.684 . S
C397 C387 1.723 . S
C397 C396 1.396 . S
C397 C398 1.394 . S
C398 C368 1.723 1_554 S
C398 C394 1.397 . S
C398 C397 1.394 . S
C399 H371 0.982 . S
C399 H375 0.979 . S
C399 H376 0.977 . S
C399 C396 1.453 . S
C400 H372 0.979 . S
C400 H373 0.980 . S
C400 H374 0.983 . S
C400 C396 1.684 . S
H401 C419 0.948 . S
H402 C360 0.948 . S
H403 C378 0.979 . S
H404 C378 0.980 . S
H405 C378 0.983 . S
H406 C377 0.982 . S
H407 C377 0.979 . S
H408 C377 0.977 . S
H409 C379 0.948 . S
H410 C381 0.947 . S
H411 C382 0.948 . S
H412 C388 0.982 . S
H413 C388 0.979 . S
H414 C388 0.977 1_556 S
H415 C389 0.979 . S
H416 C389 0.980 1_556 S
H417 C389 0.983 . S
H418 C362 0.947 . S
C419 C362 1.392 . S
C419 C363 1.419 . S
C419 H401 0.948 . S
C420 C421 1.391 . S
C420 C424 1.391 . S
C420 H462 0.948 . S
C421 C420 1.391 . S
C421 C422 1.391 . S
C422 C421 1.391 . S
C422 H478 0.947 . S
C422 C479 1.392 . S
C423 C424 1.391 . S
C423 C427 1.397 . S
C423 C479 1.419 . S
C424 C420 1.391 . S
C424 C423 1.391 . S
C424 C425 1.399 . S
C425 C424 1.399 . S
C425 C428 1.396 . S
C425 C437 1.453 . S
C425 C438 1.684 . S
H426 C450 0.948 . S
C427 C423 1.397 . S
C427 C428 1.394 . S
C427 C446 1.723 1_556 S
C428 C425 1.396 . S
C428 C427 1.394 . S
C428 C458 1.723 1_556 S
H429 C452 0.947 1_556 S
H430 C453 0.948 . S
H431 C459 0.982 . S
H432 C460 0.979 . S
H433 C460 0.980 . S
H434 C460 0.983 . S
H435 C459 0.979 . S
H436 C459 0.977 . S
C437 C425 1.453 . S
C437 H466 0.982 . S
C437 H467 0.979 . S
C437 H468 0.977 . S
C438 C425 1.684 . S
C438 H463 0.979 . S
C438 H464 0.980 . S
C438 H465 0.983 . S
C439 C440 1.391 . S
C439 C444 1.391 . S
C439 H469 0.948 . S
C440 C439 1.391 . S
C440 C441 1.391 . S
C441 C440 1.391 . S
C441 C442 1.392 . S
C441 H470 0.947 . S
C442 C441 1.392 . S
C442 C443 1.419 . S
C442 H471 0.948 . S
C443 C442 1.419 . S
C443 C444 1.391 . S
C443 C447 1.397 . S
C444 C439 1.391 . S
C444 C443 1.391 . S
C444 C445 1.399 . S
C445 C444 1.399 . S
C445 C446 1.396 . S
C445 C448 1.453 . S
C445 C449 1.684 . S
C446 C427 1.723 1_554 S
C446 C445 1.396 . S
C446 C447 1.394 . S
C447 C443 1.397 . S
C447 C446 1.394 . S
C447 C457 1.723 . S
C448 C445 1.453 . S
C448 H472 0.982 . S
C448 H473 0.979 . S
C448 H474 0.977 1_554 S
C449 C445 1.684 . S
C449 H475 0.979 . S
C449 H476 0.980 1_554 S
C449 H477 0.983 . S
C450 H426 0.948 . S
C450 C451 1.391 . S
C450 C455 1.391 . S
C451 C450 1.391 . S
C451 C452 1.391 . S
C452 H429 0.947 1_554 S
C452 C451 1.391 . S
C452 C453 1.392 1_554 S
C453 H430 0.948 . S
C453 C452 1.392 1_556 S
C453 C454 1.419 1_556 S
C454 C453 1.419 1_554 S
C454 C455 1.391 . S
C454 C458 1.397 . S
C455 C450 1.391 . S
C455 C454 1.391 . S
C455 C456 1.399 . S
C456 C455 1.399 . S
C456 C457 1.396 . S
C456 C459 1.453 . S
C456 C460 1.684 . S
C457 C447 1.723 . S
C457 C456 1.396 . S
C457 C458 1.394 . S
C458 C428 1.723 1_554 S
C458 C454 1.397 . S
C458 C457 1.394 . S
C459 H431 0.982 . S
C459 H435 0.979 . S
C459 H436 0.977 . S
C459 C456 1.453 . S
C460 H432 0.979 . S
C460 H433 0.980 . S
C460 H434 0.983 . S
C460 C456 1.684 . S
H461 C479 0.948 . S
H462 C420 0.948 . S
H463 C438 0.979 . S
H464 C438 0.980 . S
H465 C438 0.983 . S
H466 C437 0.982 . S
H467 C437 0.979 . S
H468 C437 0.977 . S
H469 C439 0.948 . S
H470 C441 0.947 . S
H471 C442 0.948 . S
H472 C448 0.982 . S
H473 C448 0.979 . S
H474 C448 0.977 1_556 S
H475 C449 0.979 . S
H476 C449 0.980 1_556 S
H477 C449 0.983 . S
H478 C422 0.947 . S
C479 C422 1.392 . S
C479 C423 1.419 . S
C479 H461 0.948 . S
Eu480 N509 2.600 . S
Eu480 N515 2.562 . S
Eu480 O524 2.462 . S
Eu480 O525 2.373 1_545 S
Eu480 O527 2.432 . S
Eu480 O528 2.291 1_655 S
Eu480 O532 2.335 1_655 S
Eu480 O535 2.372 . S
Eu480 C544 2.787 . S
C481 N482 1.382 . S
C481 C484 1.405 . S
C481 C488 1.448 . S
N482 C481 1.382 . S
N482 C485 1.315 1_545 S
N482 Eu491 2.592 1_545 S
C483 C485 1.397 1_545 S
C483 C486 1.367 . S
C483 H503 0.931 . S
C484 C481 1.405 . S
C484 C486 1.403 . S
C484 C490 1.439 . S
C485 N482 1.315 1_565 S
C485 C483 1.397 1_565 S
C485 H496 0.930 . S
C486 C483 1.367 . S
C486 C484 1.403 . S
C486 H507 0.929 . S
C487 C488 1.430 . S
C487 C489 1.387 1_556 S
C487 C493 1.404 1_556 S
C488 C481 1.448 . S
C488 C487 1.430 . S
C488 N492 1.351 . S
C489 C487 1.387 1_554 S
C489 C490 1.374 1_554 S
C489 H504 0.931 . S
C490 C484 1.439 . S
C490 C489 1.374 1_556 S
C490 H505 0.931 . S
Eu491 N482 2.592 1_565 S
Eu491 N492 2.562 1_565 S
Eu491 O526 2.335 . S
Eu491 O529 2.372 . S
Eu491 O530 2.462 . S
Eu491 O531 2.373 1_565 S
Eu491 O533 2.432 . S
Eu491 O534 2.288 1_465 S
Eu491 C555 2.787 . S
N492 C488 1.351 . S
N492 Eu491 2.562 1_545 S
N492 C494 1.325 . S
C493 C487 1.404 1_554 S
C493 C495 1.366 . S
C493 H501 0.930 . S
C494 N492 1.325 . S
C494 C495 1.416 1_556 S
C494 H500 0.929 . S
C495 C493 1.366 . S
C495 C494 1.416 1_554 S
C495 H497 0.930 . S
H496 C485 0.930 . S
H497 C495 0.930 . S
H498 C513 0.930 . S
H499 C520 0.930 1_455 S
H500 C494 0.929 . S
H501 C493 0.930 . S
H502 C516 0.929 1_455 S
H503 C483 0.931 . S
H504 C489 0.931 . S
H505 C490 0.931 . S
H506 C511 0.931 . S
H507 C486 0.929 . S
H508 C519 0.930 . S
N509 Eu480 2.600 . S
N509 C510 1.357 1_545 S
N509 C513 1.319 . S
C510 N509 1.357 1_565 S
C510 C512 1.412 . S
C510 C518 1.449 . S
C511 H506 0.931 . S
C511 C513 1.397 . S
C511 C514 1.367 1_545 S
C512 C510 1.412 . S
C512 C514 1.403 . S
C512 C545 1.439 . S
C513 H498 0.930 . S
C513 N509 1.319 . S
C513 C511 1.397 . S
C514 C511 1.367 1_565 S
C514 C512 1.403 . S
C514 H521 0.929 . S
N515 Eu480 2.562 . S
N515 C516 1.325 . S
N515 C518 1.351 1_545 S
C516 H502 0.929 1_655 S
C516 N515 1.325 . S
C516 C520 1.416 1_545 S
C517 C518 1.430 . S
C517 C519 1.404 . S
C517 C546 1.387 . S
C518 C510 1.449 . S
C518 N515 1.351 1_565 S
C518 C517 1.430 . S
C519 H508 0.930 . S
C519 C517 1.404 . S
C519 C520 1.366 . S
C520 H499 0.930 1_655 S
C520 C516 1.416 1_565 S
C520 C519 1.366 . S
H521 C514 0.929 . S
H522 C545 0.931 . S
H523 C546 0.931 . S
O524 Eu480 2.462 . S
O524 C544 1.252 . S
O525 Eu480 2.373 1_565 S
O525 C536 1.249 . S
O526 Eu491 2.335 . S
O526 C536 1.264 1_455 S
O527 Eu480 2.432 . S
O527 C544 1.268 . S
O528 Eu480 2.291 1_455 S
O528 C543 1.255 . S
O529 Eu491 2.372 . S
O529 C543 1.257 1_565 S
O530 Eu491 2.462 . S
O530 C555 1.252 . S
O531 Eu491 2.373 1_545 S
O531 C547 1.249 . S
O532 Eu480 2.335 1_455 S
O532 C547 1.264 . S
O533 Eu491 2.432 . S
O533 C555 1.268 . S
O534 Eu491 2.288 1_645 S
O534 C554 1.257 . S
O535 Eu480 2.372 . S
O535 C554 1.257 . S
C536 O525 1.249 . S
C536 O526 1.264 1_655 S
C537 C540 1.382 . S
C537 C542 1.390 . S
C537 C544 1.506 . S
C538 C539 1.398 . S
C538 C542 1.392 . S
C539 C538 1.398 . S
C539 C541 1.372 . S
C539 H556 0.931 . S
C540 C537 1.382 . S
C540 C541 1.390 . S
C540 H557 0.931 . S
C541 C539 1.372 . S
C541 C540 1.390 . S
C541 H558 0.929 . S
C542 C537 1.390 . S
C542 C538 1.392 . S
C542 H559 0.930 1_655 S
C543 O528 1.255 . S
C543 O529 1.257 1_545 S
C544 Eu480 2.787 . S
C544 O524 1.252 . S
C544 O527 1.268 . S
C544 C537 1.506 . S
C545 C512 1.439 . S
C545 H522 0.931 . S
C545 C546 1.374 . S
C546 C517 1.387 . S
C546 H523 0.931 . S
C546 C545 1.374 . S
C547 O531 1.249 . S
C547 O532 1.264 . S
C548 C551 1.382 . S
C548 C552 1.390 . S
C548 C555 1.506 . S
C549 C550 1.398 . S
C549 C552 1.392 . S
C550 C549 1.398 . S
C550 C553 1.372 . S
C550 H560 0.931 . S
C551 C548 1.382 . S
C551 C553 1.390 . S
C551 H561 0.931 . S
C552 C548 1.390 . S
C552 C549 1.392 . S
C552 H562 0.930 . S
C553 C550 1.372 . S
C553 C551 1.390 . S
C553 H563 0.929 . S
C554 O534 1.257 . S
C554 O535 1.257 . S
C555 Eu491 2.787 . S
C555 O530 1.252 . S
C555 O533 1.268 . S
C555 C548 1.506 . S
H556 C539 0.931 . S
H557 C540 0.931 . S
H558 C541 0.929 . S
H559 C542 0.930 1_455 S
H560 C550 0.931 . S
H561 C551 0.931 . S
H562 C552 0.930 . S
H563 C553 0.929 . S
Eu564 N593 2.600 . S
Eu564 N599 2.562 . S
Eu564 O608 2.462 . S
Eu564 O609 2.373 . S
Eu564 O611 2.432 . S
Eu564 O612 2.291 . S
Eu564 O616 2.335 1_545 S
Eu564 O619 2.372 . S
Eu564 C628 2.787 . S
C565 N566 1.365 . S
C565 C568 1.405 . S
C565 C572 1.448 . S
N566 C565 1.365 . S
N566 C569 1.319 . S
N566 Eu575 2.600 . S
C567 C569 1.397 . S
C567 C570 1.367 . S
C567 H587 0.931 . S
C568 C565 1.405 . S
C568 C570 1.403 . S
C568 C574 1.439 . S
C569 N566 1.319 . S
C569 C567 1.397 . S
C569 H580 0.930 . S
C570 C567 1.367 . S
C570 C568 1.403 . S
C570 H591 0.929 . S
C571 C572 1.430 . S
C571 C573 1.387 . S
C571 C577 1.404 . S
C572 C565 1.448 . S
C572 C571 1.430 . S
C572 N576 1.351 . S
C573 C571 1.387 . S
C573 C574 1.374 . S
C573 H588 0.931 . S
C574 C568 1.439 . S
C574 C573 1.374 . S
C574 H589 0.931 . S
Eu575 N566 2.600 . S
Eu575 N576 2.562 . S
Eu575 O610 2.335 1_565 S
Eu575 O613 2.372 . S
Eu575 O614 2.462 . S
Eu575 O615 2.373 . S
Eu575 O617 2.432 . S
Eu575 O618 2.275 1_565 S
Eu575 C639 2.787 . S
N576 C572 1.351 . S
N576 Eu575 2.562 . S
N576 C578 1.325 . S
C577 C571 1.404 . S
C577 C579 1.366 . S
C577 H585 0.930 . S
C578 N576 1.325 . S
C578 C579 1.416 . S
C578 H584 0.929 . S
C579 C577 1.366 . S
C579 C578 1.416 . S
C579 H581 0.930 . S
H580 C569 0.930 . S
H581 C579 0.930 . S
H582 C597 0.930 . S
H583 C604 0.930 . S
H584 C578 0.929 . S
H585 C577 0.930 . S
H586 C600 0.929 . S
H587 C567 0.931 . S
H588 C573 0.931 . S
H589 C574 0.931 . S
H590 C595 0.931 . S
H591 C570 0.929 . S
H592 C603 0.930 . S
N593 Eu564 2.600 . S
N593 C594 1.365 . S
N593 C597 1.319 . S
C594 N593 1.365 . S
C594 C596 1.405 . S
C594 C602 1.448 . S
C595 H590 0.931 . S
C595 C597 1.397 . S
C595 C598 1.367 . S
C596 C594 1.405 . S
C596 C598 1.403 . S
C596 C629 1.439 . S
C597 H582 0.930 . S
C597 N593 1.319 . S
C597 C595 1.397 . S
C598 C595 1.367 . S
C598 C596 1.403 . S
C598 H605 0.929 . S
N599 Eu564 2.562 . S
N599 C600 1.325 . S
N599 C602 1.351 . S
C600 H586 0.929 . S
C600 N599 1.325 . S
C600 C604 1.416 . S
C601 C602 1.430 . S
C601 C603 1.404 . S
C601 C630 1.387 . S
C602 C594 1.448 . S
C602 N599 1.351 . S
C602 C601 1.430 . S
C603 H592 0.930 . S
C603 C601 1.404 . S
C603 C604 1.366 . S
C604 H583 0.930 . S
C604 C600 1.416 . S
C604 C603 1.366 . S
H605 C598 0.929 . S
H606 C629 0.931 . S
H607 C630 0.931 . S
O608 Eu564 2.462 . S
O608 C628 1.252 . S
O609 Eu564 2.373 . S
O609 C620 1.249 . S
O610 Eu575 2.335 1_545 S
O610 C620 1.264 . S
O611 Eu564 2.432 . S
O611 C628 1.268 . S
O612 Eu564 2.291 . S
O612 C627 1.255 1_545 S
O613 Eu575 2.372 . S
O613 C627 1.257 . S
O614 Eu575 2.462 . S
O614 C639 1.252 . S
O615 Eu575 2.373 . S
O615 C631 1.249 . S
O616 Eu564 2.335 1_565 S
O616 C631 1.264 . S
O617 Eu575 2.432 . S
O617 C639 1.268 . S
O618 Eu575 2.275 1_545 S
O618 C638 1.279 . S
O619 Eu564 2.372 . S
O619 C638 1.257 . S
C620 O609 1.249 . S
C620 O610 1.264 . S
C621 C624 1.382 1_556 S
C621 C626 1.390 . S
C621 C628 1.506 . S
C622 C623 1.398 1_556 S
C622 C626 1.392 . S
C623 C622 1.398 1_554 S
C623 C625 1.372 . S
C623 H640 0.931 . S
C624 C621 1.382 1_554 S
C624 C625 1.390 . S
C624 H641 0.931 . S
C625 C623 1.372 . S
C625 C624 1.390 . S
C625 H642 0.929 . S
C626 C621 1.390 . S
C626 C622 1.392 . S
C626 H643 0.930 . S
C627 O612 1.255 1_565 S
C627 O613 1.257 . S
C628 Eu564 2.787 . S
C628 O608 1.252 . S
C628 O611 1.268 . S
C628 C621 1.506 . S
C629 C596 1.439 . S
C629 H606 0.931 . S
C629 C630 1.374 . S
C630 C601 1.387 . S
C630 H607 0.931 . S
C630 C629 1.374 . S
C631 O615 1.249 . S
C631 O616 1.264 . S
C632 C635 1.382 . S
C632 C636 1.390 . S
C632 C639 1.506 . S
C633 C634 1.398 . S
C633 C636 1.392 . S
C634 C633 1.398 . S
C634 C637 1.372 . S
C634 H644 0.931 . S
C635 C632 1.382 . S
C635 C637 1.390 . S
C635 H645 0.931 . S
C636 C632 1.390 . S
C636 C633 1.392 . S
C636 H646 0.930 . S
C637 C634 1.372 . S
C637 C635 1.390 . S
C637 H647 0.929 . S
C638 O618 1.279 . S
C638 O619 1.257 . S
C639 Eu575 2.787 . S
C639 O614 1.252 . S
C639 O617 1.268 . S
C639 C632 1.506 . S
H640 C623 0.931 . S
H641 C624 0.931 . S
H642 C625 0.929 . S
H643 C626 0.930 . S
H644 C634 0.931 . S
H645 C635 0.931 . S
H646 C636 0.930 . S
H647 C637 0.929 . S
Eu648 N677 2.600 . S
Eu648 N683 2.562 . S
Eu648 O692 2.462 . S
Eu648 O693 2.373 . S
Eu648 O695 2.432 . S
Eu648 O696 2.291 . S
Eu648 O700 2.335 . S
Eu648 O703 2.372 . S
Eu648 C712 2.787 . S
C649 N650 1.365 . S
C649 C652 1.405 . S
C649 C656 1.448 . S
N650 C649 1.365 . S
N650 C653 1.319 . S
N650 Eu659 2.600 . S
C651 C653 1.397 . S
C651 C654 1.367 . S
C651 H671 0.931 . S
C652 C649 1.405 . S
C652 C654 1.403 . S
C652 C658 1.439 . S
C653 N650 1.319 . S
C653 C651 1.397 . S
C653 H664 0.930 . S
C654 C651 1.367 . S
C654 C652 1.403 . S
C654 H675 0.929 . S
C655 C656 1.430 . S
C655 C657 1.387 1_556 S
C655 C661 1.404 1_556 S
C656 C649 1.448 . S
C656 C655 1.430 . S
C656 N660 1.351 . S
C657 C655 1.387 1_554 S
C657 C658 1.374 1_554 S
C657 H672 0.931 . S
C658 C652 1.439 . S
C658 C657 1.374 1_556 S
C658 H673 0.931 . S
Eu659 N650 2.600 . S
Eu659 N660 2.562 . S
Eu659 O694 2.335 . S
Eu659 O697 2.372 . S
Eu659 O698 2.462 . S
Eu659 O699 2.373 . S
Eu659 O701 2.432 . S
Eu659 O702 2.291 . S
Eu659 C723 2.787 . S
N660 C656 1.351 . S
N660 Eu659 2.562 . S
N660 C662 1.325 . S
C661 C655 1.404 1_554 S
C661 C663 1.366 . S
C661 H669 0.930 . S
C662 N660 1.325 . S
C662 C663 1.416 1_556 S
C662 H668 0.929 . S
C663 C661 1.366 . S
C663 C662 1.416 1_554 S
C663 H665 0.930 . S
H664 C653 0.930 . S
H665 C663 0.930 . S
H666 C681 0.930 . S
H667 C688 0.930 . S
H668 C662 0.929 . S
H669 C661 0.930 . S
H670 C684 0.929 . S
H671 C651 0.931 . S
H672 C657 0.931 . S
H673 C658 0.931 . S
H674 C679 0.931 . S
H675 C654 0.929 . S
H676 C687 0.930 . S
N677 Eu648 2.600 . S
N677 C678 1.365 . S
N677 C681 1.319 . S
C678 N677 1.365 . S
C678 C680 1.405 . S
C678 C686 1.448 . S
C679 H674 0.931 . S
C679 C681 1.397 . S
C679 C682 1.367 . S
C680 C678 1.405 . S
C680 C682 1.403 . S
C680 C713 1.439 . S
C681 H666 0.930 . S
C681 N677 1.319 . S
C681 C679 1.397 . S
C682 C679 1.367 . S
C682 C680 1.403 . S
C682 H689 0.929 . S
N683 Eu648 2.562 . S
N683 C684 1.325 . S
N683 C686 1.351 . S
C684 H670 0.929 . S
C684 N683 1.325 . S
C684 C688 1.416 . S
C685 C686 1.430 . S
C685 C687 1.404 . S
C685 C714 1.387 . S
C686 C678 1.448 . S
C686 N683 1.351 . S
C686 C685 1.430 . S
C687 H676 0.930 . S
C687 C685 1.404 . S
C687 C688 1.366 . S
C688 H667 0.930 . S
C688 C684 1.416 . S
C688 C687 1.366 . S
H689 C682 0.929 . S
H690 C713 0.931 . S
H691 C714 0.931 . S
O692 Eu648 2.462 . S
O692 C712 1.252 . S
O693 Eu648 2.373 . S
O693 C704 1.249 . S
O694 Eu659 2.335 . S
O694 C704 1.264 . S
O695 Eu648 2.432 . S
O695 C712 1.268 . S
O696 Eu648 2.291 . S
O696 C711 1.255 . S
O697 Eu659 2.372 . S
O697 C711 1.257 . S
O698 Eu659 2.462 . S
O698 C723 1.252 . S
O699 Eu659 2.373 . S
O699 C715 1.249 . S
O700 Eu648 2.335 . S
O700 C715 1.264 . S
O701 Eu659 2.432 . S
O701 C723 1.268 . S
O702 Eu659 2.291 . S
O702 C722 1.255 . S
O703 Eu648 2.372 . S
O703 C722 1.257 . S
C704 O693 1.249 . S
C704 O694 1.264 . S
C705 C708 1.382 . S
C705 C710 1.390 . S
C705 C712 1.506 . S
C706 C707 1.398 . S
C706 C710 1.392 . S
C707 C706 1.398 . S
C707 C709 1.372 . S
C707 H724 0.931 . S
C708 C705 1.382 . S
C708 C709 1.390 . S
C708 H725 0.931 . S
C709 C707 1.372 . S
C709 C708 1.390 . S
C709 H726 0.929 . S
C710 C705 1.390 . S
C710 C706 1.392 . S
C710 H727 0.930 . S
C711 O696 1.255 . S
C711 O697 1.257 . S
C712 Eu648 2.787 . S
C712 O692 1.252 . S
C712 O695 1.268 . S
C712 C705 1.506 . S
C713 C680 1.439 . S
C713 H690 0.931 . S
C713 C714 1.374 . S
C714 C685 1.387 . S
C714 H691 0.931 . S
C714 C713 1.374 . S
C715 O699 1.249 . S
C715 O700 1.264 . S
C716 C719 1.382 . S
C716 C720 1.390 . S
C716 C723 1.506 . S
C717 C718 1.398 . S
C717 C720 1.392 . S
C718 C717 1.398 . S
C718 C721 1.372 . S
C718 H728 0.931 . S
C719 C716 1.382 . S
C719 C721 1.390 . S
C719 H729 0.931 . S
C720 C716 1.390 . S
C720 C717 1.392 . S
C720 H730 0.930 . S
C721 C718 1.372 . S
C721 C719 1.390 . S
C721 H731 0.929 . S
C722 O702 1.255 . S
C722 O703 1.257 . S
C723 Eu659 2.787 . S
C723 O698 1.252 . S
C723 O701 1.268 . S
C723 C716 1.506 . S
H724 C707 0.931 . S
H725 C708 0.931 . S
H726 C709 0.929 . S
H727 C710 0.930 . S
H728 C718 0.931 . S
H729 C719 0.931 . S
H730 C720 0.930 . S
H731 C721 0.929 . S
Eu732 N761 2.600 . S
Eu732 N767 2.562 . S
Eu732 O776 2.462 . S
Eu732 O777 2.373 1_455 S
Eu732 O779 2.432 . S
Eu732 O780 2.291 . S
Eu732 O784 2.335 . S
Eu732 O787 2.372 . S
Eu732 C796 2.787 . S
C733 N734 1.365 1_455 S
C733 C736 1.405 . S
C733 C740 1.448 . S
N734 C733 1.365 1_655 S
N734 C737 1.319 . S
N734 Eu743 2.600 . S
C735 C737 1.397 1_455 S
C735 C738 1.367 . S
C735 H755 0.931 . S
C736 C733 1.405 . S
C736 C738 1.403 . S
C736 C742 1.439 . S
C737 N734 1.319 . S
C737 C735 1.397 1_655 S
C737 H748 0.930 . S
C738 C735 1.367 . S
C738 C736 1.403 . S
C738 H759 0.929 . S
C739 C740 1.430 . S
C739 C741 1.387 1_556 S
C739 C745 1.404 1_556 S
C740 C733 1.448 . S
C740 C739 1.430 . S
C740 N744 1.351 . S
C741 C739 1.387 1_554 S
C741 C742 1.374 1_554 S
C741 H756 0.931 . S
C742 C736 1.439 . S
C742 C741 1.374 1_556 S
C742 H757 0.931 . S
Eu743 N734 2.600 . S
Eu743 N744 2.562 1_655 S
Eu743 O778 2.335 . S
Eu743 O781 2.372 . S
Eu743 O782 2.462 . S
Eu743 O783 2.373 1_655 S
Eu743 O785 2.432 . S
Eu743 O786 2.291 . S
Eu743 C807 2.787 . S
N744 C740 1.351 . S
N744 Eu743 2.562 1_455 S
N744 C746 1.325 . S
C745 C739 1.404 1_554 S
C745 C747 1.366 . S
C745 H753 0.930 . S
C746 N744 1.325 . S
C746 C747 1.416 1_556 S
C746 H752 0.928 1_455 S
C747 C745 1.366 . S
C747 C746 1.416 1_554 S
C747 H749 0.930 . S
H748 C737 0.930 . S
H749 C747 0.930 . S
H750 C765 0.930 . S
H751 C772 0.930 . S
H752 C746 0.928 1_655 S
H753 C745 0.930 . S
H754 C768 0.929 . S
H755 C735 0.931 . S
H756 C741 0.931 . S
H757 C742 0.931 . S
H758 C763 0.931 . S
H759 C738 0.929 . S
H760 C771 0.930 . S
N761 Eu732 2.600 . S
N761 C762 1.365 1_455 S
N761 C765 1.319 . S
C762 N761 1.365 1_655 S
C762 C764 1.405 . S
C762 C770 1.448 . S
C763 H758 0.931 . S
C763 C765 1.397 . S
C763 C766 1.367 1_455 S
C764 C762 1.405 . S
C764 C766 1.403 . S
C764 C797 1.439 . S
C765 H750 0.930 . S
C765 N761 1.319 . S
C765 C763 1.397 . S
C766 C763 1.367 1_655 S
C766 C764 1.403 . S
C766 H773 0.929 . S
N767 Eu732 2.562 . S
N767 C768 1.325 . S
N767 C770 1.351 1_455 S
C768 H754 0.929 . S
C768 N767 1.325 . S
C768 C772 1.416 1_455 S
C769 C770 1.430 . S
C769 C771 1.404 . S
C769 C798 1.387 . S
C770 C762 1.448 . S
C770 N767 1.351 1_655 S
C770 C769 1.430 . S
C771 H760 0.930 . S
C771 C769 1.404 . S
C771 C772 1.366 . S
C772 H751 0.930 . S
C772 C768 1.416 1_655 S
C772 C771 1.366 . S
H773 C766 0.929 . S
H774 C797 0.931 . S
H775 C798 0.931 . S
O776 Eu732 2.462 . S
O776 C796 1.252 . S
O777 Eu732 2.373 1_655 S
O777 C788 1.249 . S
O778 Eu743 2.335 . S
O778 C788 1.264 . S
O779 Eu732 2.432 . S
O779 C796 1.268 . S
O780 Eu732 2.291 . S
O780 C795 1.255 . S
O781 Eu743 2.372 . S
O781 C795 1.257 1_655 S
O782 Eu743 2.462 . S
O782 C807 1.252 . S
O783 Eu743 2.373 1_455 S
O783 C799 1.249 . S
O784 Eu732 2.335 . S
O784 C799 1.264 . S
O785 Eu743 2.432 . S
O785 C807 1.268 . S
O786 Eu743 2.291 . S
O786 C806 1.255 1_655 S
O787 Eu732 2.372 . S
O787 C806 1.257 . S
C788 O777 1.249 . S
C788 O778 1.264 . S
C789 C792 1.382 . S
C789 C794 1.390 . S
C789 C796 1.506 . S
C790 C791 1.398 . S
C790 C794 1.392 . S
C791 C790 1.398 . S
C791 C793 1.372 . S
C791 H808 0.931 . S
C792 C789 1.382 . S
C792 C793 1.390 . S
C792 H809 0.931 . S
C793 C791 1.372 . S
C793 C792 1.390 . S
C793 H810 0.929 . S
C794 C789 1.390 . S
C794 C790 1.392 . S
C794 H811 0.930 . S
C795 O780 1.255 . S
C795 O781 1.257 1_455 S
C796 Eu732 2.787 . S
C796 O776 1.252 . S
C796 O779 1.268 . S
C796 C789 1.506 . S
C797 C764 1.439 . S
C797 H774 0.931 . S
C797 C798 1.374 . S
C798 C769 1.387 . S
C798 H775 0.931 . S
C798 C797 1.374 . S
C799 O783 1.249 . S
C799 O784 1.264 . S
C800 C803 1.382 . S
C800 C804 1.390 . S
C800 C807 1.506 . S
C801 C802 1.398 . S
C801 C804 1.392 . S
C802 C801 1.398 . S
C802 C805 1.372 . S
C802 H812 0.931 . S
C803 C800 1.382 . S
C803 C805 1.390 . S
C803 H813 0.931 . S
C804 C800 1.390 . S
C804 C801 1.392 . S
C804 H814 0.930 . S
C805 C802 1.372 . S
C805 C803 1.390 . S
C805 H815 0.929 . S
C806 O786 1.255 1_455 S
C806 O787 1.257 . S
C807 Eu743 2.787 . S
C807 O782 1.252 . S
C807 O785 1.268 . S
C807 C800 1.506 . S
H808 C791 0.931 . S
H809 C792 0.931 . S
H810 C793 0.929 . S
H811 C794 0.930 . S
H812 C802 0.931 . S
H813 C803 0.931 . S
H814 C804 0.930 . S
H815 C805 0.929 . S
C816 C817 1.369 . S
C816 C818 1.419 . S
C816 H820 0.930 . S
C817 C816 1.369 . S
C817 C826 1.429 . S
C818 C816 1.419 . S
C818 C819 1.363 . S
C818 H821 0.929 . S
C819 C818 1.363 . S
C819 C825 1.428 . S
H820 C816 0.930 . S
H821 C818 0.929 . S
S822 N823 1.613 . S
S822 N824 1.610 . S
N823 S822 1.613 . S
N823 C826 1.350 1_565 S
N824 S822 1.610 . S
N824 C825 1.351 1_565 S
C825 C819 1.428 . S
C825 N824 1.351 1_545 S
C825 C826 1.434 . S
C826 C817 1.429 . S
C826 N823 1.350 1_545 S
C826 C825 1.434 . S
C827 C828 1.369 . S
C827 C829 1.419 . S
C827 H831 0.930 . S
C828 C827 1.369 . S
C828 C837 1.429 . S
C829 C827 1.419 . S
C829 C830 1.363 . S
C829 H832 0.929 . S
C830 C829 1.363 . S
C830 C836 1.428 . S
H831 C827 0.930 . S
H832 C829 0.929 . S
S833 N834 1.613 . S
S833 N835 1.610 . S
N834 S833 1.613 . S
N834 C837 1.350 . S
N835 S833 1.610 . S
N835 C836 1.351 . S
C836 C830 1.428 . S
C836 N835 1.351 . S
C836 C837 1.434 . S
C837 C828 1.429 . S
C837 N834 1.350 . S
C837 C836 1.434 . S
C838 C839 1.369 . S
C838 C840 1.419 . S
C838 H842 0.930 . S
C839 C838 1.369 . S
C839 C848 1.429 . S
C840 C838 1.419 . S
C840 C841 1.363 . S
C840 H843 0.929 . S
C841 C840 1.363 . S
C841 C847 1.428 . S
H842 C838 0.930 . S
H843 C840 0.929 . S
S844 N845 1.613 . S
S844 N846 1.610 . S
N845 S844 1.613 . S
N845 C848 1.350 . S
N846 S844 1.610 . S
N846 C847 1.351 . S
C847 C841 1.428 . S
C847 N846 1.351 . S
C847 C848 1.434 . S
C848 C839 1.429 . S
C848 N845 1.350 . S
C848 C847 1.434 . S
C849 C850 1.369 . S
C849 C851 1.419 1_455 S
C849 H853 0.930 1_455 S
C850 C849 1.369 . S
C850 C859 1.429 . S
C851 C849 1.419 1_655 S
C851 C852 1.363 1_655 S
C851 H854 0.929 . S
C852 C851 1.363 1_455 S
C852 C858 1.428 . S
H853 C849 0.930 1_655 S
H854 C851 0.929 . S
S855 N856 1.613 . S
S855 N857 1.610 . S
N856 S855 1.613 . S
N856 C859 1.350 . S
N857 S855 1.610 . S
N857 C858 1.351 . S
C858 C852 1.428 . S
C858 N857 1.351 . S
C858 C859 1.434 . S
C859 C850 1.429 . S
C859 N856 1.350 . S
C859 C858 1.434 . S
C860 C861 1.369 . S
C860 C862 1.419 1_554 S
C860 H864 0.930 . S
C861 C860 1.369 . S
C861 C870 1.429 1_565 S
C862 C860 1.419 1_556 S
C862 C863 1.363 . S
C862 H865 0.929 . S
C863 C862 1.363 . S
C863 C869 1.428 1_565 S
H864 C860 0.930 . S
H865 C862 0.929 . S
S866 N867 1.613 . S
S866 N868 1.610 1_554 S
N867 S866 1.613 . S
N867 C870 1.350 . S
N868 S866 1.610 1_556 S
N868 C869 1.351 . S
C869 C863 1.428 1_545 S
C869 N868 1.351 . S
C869 C870 1.434 1_556 S
C870 C861 1.429 1_545 S
C870 N867 1.350 . S
C870 C869 1.434 1_554 S
C871 C872 1.369 . S
C871 C873 1.419 1_554 S
C871 H875 0.930 . S
C872 C871 1.369 . S
C872 C881 1.429 . S
C873 C871 1.419 1_556 S
C873 C874 1.363 . S
C873 H876 0.929 . S
C874 C873 1.363 . S
C874 C880 1.428 . S
H875 C871 0.930 . S
H876 C873 0.929 . S
S877 N878 1.613 1_556 S
S877 N879 1.610 . S
N878 S877 1.613 1_554 S
N878 C881 1.350 . S
N879 S877 1.610 . S
N879 C880 1.351 . S
C880 C874 1.428 . S
C880 N879 1.351 . S
C880 C881 1.434 1_556 S
C881 C872 1.429 . S
C881 N878 1.350 . S
C881 C880 1.434 1_554 S
C882 C883 1.369 . S
C882 C884 1.419 1_554 S
C882 H886 0.930 . S
C883 C882 1.369 . S
C883 C892 1.429 . S
C884 C882 1.419 1_556 S
C884 C885 1.363 . S
C884 H887 0.929 . S
C885 C884 1.363 . S
C885 C891 1.428 . S
H886 C882 0.930 . S
H887 C884 0.929 . S
S888 N889 1.613 1_556 S
S888 N890 1.610 . S
N889 S888 1.613 1_554 S
N889 C892 1.350 . S
N890 S888 1.610 . S
N890 C891 1.351 . S
C891 C885 1.428 . S
C891 N890 1.351 . S
C891 C892 1.434 1_556 S
C892 C883 1.429 . S
C892 N889 1.350 . S
C892 C891 1.434 1_554 S
C893 C894 1.369 . S
C893 C895 1.418 1_654 S
C893 H897 0.930 1_655 S
C894 C893 1.369 . S
C894 C903 1.429 . S
C895 C893 1.418 1_456 S
C895 C896 1.362 1_455 S
C895 H898 0.930 . S
C896 C895 1.362 1_655 S
C896 C902 1.428 . S
H897 C893 0.930 1_455 S
H898 C895 0.930 . S
S899 N900 1.613 . S
S899 N901 1.610 1_554 S
N900 S899 1.613 . S
N900 C903 1.350 . S
N901 S899 1.610 1_556 S
N901 C902 1.351 . S
C902 C896 1.428 . S
C902 N901 1.351 . S
C902 C903 1.434 1_556 S
C903 C894 1.429 . S
C903 N900 1.350 . S
C903 C902 1.434 1_554 S
C904 C905 1.369 . S
C904 C906 1.439 . S
C904 H908 0.930 . S
C905 C904 1.369 . S
C905 C914 1.429 . S
C906 C904 1.439 . S
C906 C907 1.356 1_455 S
C906 H909 0.916 1_455 S
C907 C906 1.356 1_655 S
C907 C913 1.428 1_655 S
H908 C904 0.930 . S
H909 C906 0.916 1_655 S
S910 N911 1.613 . S
S910 N912 1.610 . S
N911 S910 1.613 . S
N911 C914 1.350 . S
N912 S910 1.610 . S
N912 C913 1.351 . S
C913 C907 1.428 1_455 S
C913 N912 1.351 . S
C913 C914 1.434 . S
C914 C905 1.429 . S
C914 N911 1.350 . S
C914 C913 1.434 . S
C915 C916 1.369 . S
C915 C917 1.419 . S
C915 H919 0.930 . S
C916 C915 1.369 . S
C916 C925 1.429 . S
C917 C915 1.419 . S
C917 C918 1.363 1_545 S
C917 H920 0.929 . S
C918 C917 1.363 1_565 S
C918 C924 1.428 . S
H919 C915 0.930 . S
H920 C917 0.929 . S
S921 N922 1.613 1_565 S
S921 N923 1.610 . S
N922 S921 1.613 1_545 S
N922 C925 1.350 . S
N923 S921 1.610 . S
N923 C924 1.351 . S
C924 C918 1.428 . S
C924 N923 1.351 . S
C924 C925 1.434 1_565 S
C925 C916 1.429 . S
C925 N922 1.350 . S
C925 C924 1.434 1_545 S
C926 C927 1.369 . S
C926 C928 1.419 . S
C926 H930 0.930 . S
C927 C926 1.369 . S
C927 C936 1.429 . S
C928 C926 1.419 . S
C928 C929 1.363 . S
C928 H931 0.929 . S
C929 C928 1.363 . S
C929 C935 1.428 . S
H930 C926 0.930 . S
H931 C928 0.929 . S
S932 N933 1.613 . S
S932 N934 1.610 . S
N933 S932 1.613 . S
N933 C936 1.350 . S
N934 S932 1.610 . S
N934 C935 1.351 . S
C935 C929 1.428 . S
C935 N934 1.351 . S
C935 C936 1.434 . S
C936 C927 1.429 . S
C936 N933 1.350 . S
C936 C935 1.434 . S
C937 C938 1.369 . S
C937 C939 1.419 . S
C937 H941 0.930 . S
C938 C937 1.369 . S
C938 C947 1.429 . S
C939 C937 1.419 . S
C939 C940 1.363 . S
C939 H942 0.929 . S
C940 C939 1.363 . S
C940 C946 1.428 . S
H941 C937 0.930 . S
H942 C939 0.929 . S
S943 N944 1.613 . S
S943 N945 1.610 . S
N944 S943 1.613 . S
N944 C947 1.350 . S
N945 S943 1.610 . S
N945 C946 1.351 . S
C946 C940 1.428 . S
C946 N945 1.351 . S
C946 C947 1.434 . S
C947 C938 1.429 . S
C947 N944 1.350 . S
C947 C946 1.434 . S
C948 C949 1.346 1_455 S
C948 C950 1.436 1_554 S
C948 H952 0.937 . S
C949 C948 1.346 1_655 S
C949 C958 1.429 . S
C950 C948 1.436 1_556 S
C950 C951 1.363 . S
C950 H953 0.929 . S
C951 C950 1.363 . S
C951 C957 1.424 1_456 S
H952 C948 0.937 . S
H953 C950 0.929 . S
S954 N955 1.613 . S
S954 N956 1.610 1_554 S
N955 S954 1.613 . S
N955 C958 1.350 . S
N956 S954 1.610 1_556 S
N956 C957 1.351 1_556 S
C957 C951 1.424 1_654 S
C957 N956 1.351 1_554 S
C957 C958 1.439 . S
C958 C949 1.429 . S
C958 N955 1.350 . S
C958 C957 1.439 . S
C959 C960 1.369 . S
C959 C961 1.419 . S
C959 H963 0.930 . S
C960 C959 1.369 . S
C960 C969 1.429 1_554 S
C961 C959 1.419 . S
C961 C962 1.363 1_564 S
C961 H964 0.929 . S
C962 C961 1.363 1_546 S
C962 C968 1.428 . S
H963 C959 0.930 . S
H964 C961 0.929 . S
S965 N966 1.613 . S
S965 N967 1.610 . S
N966 S965 1.613 . S
N966 C969 1.350 1_545 S
N967 S965 1.610 . S
N967 C968 1.351 . S
C968 C962 1.428 . S
C968 N967 1.351 . S
C968 C969 1.434 1_545 S
C969 C960 1.429 1_556 S
C969 N966 1.350 1_565 S
C969 C968 1.434 1_565 S
C970 C971 1.369 1_556 S
C970 C972 1.419 . S
C970 H974 0.930 . S
C971 C970 1.369 1_554 S
C971 C980 1.429 . S
C972 C970 1.419 . S
C972 C973 1.363 . S
C972 H975 0.929 . S
C973 C972 1.363 . S
C973 C979 1.428 1_556 S
H974 C970 0.930 . S
H975 C972 0.929 . S
S976 N977 1.613 . S
S976 N978 1.610 . S
N977 S976 1.613 . S
N977 C980 1.350 . S
N978 S976 1.610 . S
N978 C979 1.351 . S
C979 C973 1.428 1_554 S
C979 N978 1.351 . S
C979 C980 1.434 . S
C980 C971 1.429 . S
C980 N977 1.350 . S
C980 C979 1.434 . S
C981 C982 1.369 . S
C981 C983 1.419 . S
C981 H985 0.930 . S
C982 C981 1.369 . S
C982 C991 1.429 1_554 S
C983 C981 1.419 . S
C983 C984 1.363 1_554 S
C983 H986 0.929 . S
C984 C983 1.363 1_556 S
C984 C990 1.428 . S
H985 C981 0.930 . S
H986 C983 0.929 . S
S987 N988 1.613 . S
S987 N989 1.610 . S
N988 S987 1.613 . S
N988 C991 1.350 . S
N989 S987 1.610 . S
N989 C990 1.351 . S
C990 C984 1.428 . S
C990 N989 1.351 . S
C990 C991 1.434 . S
C991 C982 1.429 1_556 S
C991 N988 1.350 . S
C991 C990 1.434 . S
C992 C993 1.369 . S
C992 C994 1.419 . S
C992 H996 0.917 1_455 S
C993 C992 1.369 . S
C993 C1002 1.429 . S
C994 C992 1.419 . S
C994 C995 1.363 . S
C994 H997 0.929 1_455 S
C995 C994 1.363 . S
C995 C1001 1.428 . S
H996 C992 0.917 1_655 S
H997 C994 0.929 1_655 S
S998 N999 1.613 . S
S998 N1000 1.610 . S
N999 S998 1.613 . S
N999 C1002 1.350 . S
N1000 S998 1.610 . S
N1000 C1001 1.351 . S
C1001 C995 1.428 . S
C1001 N1000 1.351 . S
C1001 C1002 1.434 . S
C1002 C993 1.429 . S
C1002 N999 1.350 . S
C1002 C1001 1.434 . S
C1003 C1004 1.369 . S
C1003 C1005 1.419 . S
C1003 H1007 0.930 . S
C1004 C1003 1.369 . S
C1004 C1013 1.429 . S
C1005 C1003 1.419 . S
C1005 C1006 1.363 . S
C1005 H1008 0.929 . S
C1006 C1005 1.363 . S
C1006 C1012 1.428 . S
H1007 C1003 0.930 . S
H1008 C1005 0.929 . S
S1009 N1010 1.613 . S
S1009 N1011 1.610 . S
N1010 S1009 1.613 . S
N1010 C1013 1.350 . S
N1011 S1009 1.610 . S
N1011 C1012 1.351 . S
C1012 C1006 1.428 . S
C1012 N1011 1.351 . S
C1012 C1013 1.434 . S
C1013 C1004 1.429 . S
C1013 N1010 1.350 . S
C1013 C1012 1.434 . S
C1014 C1015 1.369 . S
C1014 C1016 1.419 . S
C1014 H1018 0.930 . S
C1015 C1014 1.369 . S
C1015 C1024 1.429 . S
C1016 C1014 1.419 . S
C1016 C1017 1.363 . S
C1016 H1019 0.929 . S
C1017 C1016 1.363 . S
C1017 C1023 1.428 . S
H1018 C1014 0.930 . S
H1019 C1016 0.929 . S
S1020 N1021 1.613 . S
S1020 N1022 1.610 . S
N1021 S1020 1.613 . S
N1021 C1024 1.350 . S
N1022 S1020 1.610 . S
N1022 C1023 1.351 . S
C1023 C1017 1.428 . S
C1023 N1022 1.351 . S
C1023 C1024 1.434 . S
C1024 C1015 1.429 . S
C1024 N1021 1.350 . S
C1024 C1023 1.434 . S
C1025 C1026 1.369 . S
C1025 C1027 1.419 . S
C1025 H1029 0.930 . S
C1026 C1025 1.369 . S
C1026 C1035 1.429 . S
C1027 C1025 1.419 . S
C1027 C1028 1.363 . S
C1027 H1030 0.929 . S
C1028 C1027 1.363 . S
C1028 C1034 1.428 . S
H1029 C1025 0.930 . S
H1030 C1027 0.929 . S
S1031 N1032 1.613 . S
S1031 N1033 1.610 . S
N1032 S1031 1.613 . S
N1032 C1035 1.350 . S
N1033 S1031 1.610 . S
N1033 C1034 1.351 . S
C1034 C1028 1.428 . S
C1034 N1033 1.351 . S
C1034 C1035 1.434 . S
C1035 C1026 1.429 . S
C1035 N1032 1.350 . S
C1035 C1034 1.434 . S
C1036 C1037 1.369 . S
C1036 C1038 1.419 . S
C1036 H1040 0.930 . S
C1037 C1036 1.369 . S
C1037 C1046 1.429 . S
C1038 C1036 1.419 . S
C1038 C1039 1.363 . S
C1038 H1041 0.929 . S
C1039 C1038 1.363 . S
C1039 C1045 1.428 . S
H1040 C1036 0.930 . S
H1041 C1038 0.929 . S
S1042 N1043 1.613 . S
S1042 N1044 1.610 . S
N1043 S1042 1.613 . S
N1043 C1046 1.350 . S
N1044 S1042 1.610 . S
N1044 C1045 1.351 . S
C1045 C1039 1.428 . S
C1045 N1044 1.351 . S
C1045 C1046 1.434 . S
C1046 C1037 1.429 . S
C1046 N1043 1.350 . S
C1046 C1045 1.434 . S
C1047 C1048 1.369 1_545 S
C1047 C1049 1.419 . S
C1047 H1051 0.930 . S
C1048 C1047 1.369 1_565 S
C1048 C1057 1.429 . S
C1049 C1047 1.419 . S
C1049 C1050 1.363 1_545 S
C1049 H1052 0.929 . S
C1050 C1049 1.363 1_565 S
C1050 C1056 1.428 . S
H1051 C1047 0.930 . S
H1052 C1049 0.929 . S
S1053 N1054 1.613 . S
S1053 N1055 1.610 . S
N1054 S1053 1.613 . S
N1054 C1057 1.350 . S
N1055 S1053 1.610 . S
N1055 C1056 1.351 . S
C1056 C1050 1.428 . S
C1056 N1055 1.351 . S
C1056 C1057 1.434 . S
C1057 C1048 1.429 . S
C1057 N1054 1.350 . S
C1057 C1056 1.434 . S
C1058 C1059 1.369 . S
C1058 C1060 1.419 . S
C1058 H1062 0.930 . S
C1059 C1058 1.369 . S
C1059 C1068 1.429 . S
C1060 C1058 1.419 . S
C1060 C1061 1.363 . S
C1060 H1063 0.929 . S
C1061 C1060 1.363 . S
C1061 C1067 1.428 . S
H1062 C1058 0.930 . S
H1063 C1060 0.929 . S
S1064 N1065 1.613 . S
S1064 N1066 1.610 . S
N1065 S1064 1.613 . S
N1065 C1068 1.350 . S
N1066 S1064 1.610 . S
N1066 C1067 1.351 . S
C1067 C1061 1.428 . S
C1067 N1066 1.351 . S
C1067 C1068 1.434 . S
C1068 C1059 1.429 . S
C1068 N1065 1.350 . S
C1068 C1067 1.434 . S
C1069 C1070 1.369 . S
C1069 C1071 1.419 . S
C1069 H1073 0.930 . S
C1070 C1069 1.369 . S
C1070 C1079 1.429 . S
C1071 C1069 1.419 . S
C1071 C1072 1.363 . S
C1071 H1074 0.929 . S
C1072 C1071 1.363 . S
C1072 C1078 1.428 . S
H1073 C1069 0.930 . S
H1074 C1071 0.929 . S
S1075 N1076 1.613 . S
S1075 N1077 1.610 . S
N1076 S1075 1.613 . S
N1076 C1079 1.350 . S
N1077 S1075 1.610 . S
N1077 C1078 1.351 . S
C1078 C1072 1.428 . S
C1078 N1077 1.351 . S
C1078 C1079 1.434 . S
C1079 C1070 1.429 . S
C1079 N1076 1.350 . S
C1079 C1078 1.434 . S
C817 C391 2.741 . S
C819 C543 2.828 . S
C830 C620 2.828 . S
C828 C451 2.741 . S
C841 C711 2.836 . S
C839 C241 2.342 . S
C852 C795 2.814 . S
C850 C331 2.326 . S
C863 C554 2.828 1_565 S
C861 C121 2.380 . S
C872 C211 2.708 . S
C874 C631 2.827 . S
C883 C31 2.712 . S
C885 C722 2.836 . S
C894 C91 2.372 . S
C896 C806 2.810 1_655 S
C907 C538 0.757 . S
C905 C301 0.770 . S
C918 C633 0.757 . S
C916 C380 0.750 . S
C929 C706 0.777 . S
C927 C440 0.763 . S
C938 C260 0.740 . S
C940 C790 0.755 . S
C949 C61 0.764 . S
C951 C549 0.762 . S
C962 C622 0.757 . S
C960 C140 0.747 . S
C973 C717 0.779 . S
C971 C200 0.759 . S
C982 C20 0.762 . S
C984 C801 0.748 . S
C993 C320 3.059 . S
C995 C547 3.288 . S
C1004 C361 2.671 . S
C1006 C638 3.395 . S
C1017 C715 3.307 . S
C1015 C421 2.688 . S
C1028 C799 3.310 . S
C1026 C271 3.078 . S
C1037 C80 3.078 . S
C1039 C536 3.288 . S
C1050 C627 3.395 . S
C1048 C151 3.085 . S
C1061 C704 3.307 . S
C1059 C181 2.663 . S
C1070 C1 2.659 . S
C1072 C788 3.312 . S
