# Generated by pormake.
# Topology pts, (4,4)-cn, num edge types: 1
# Building blocks:
#     Node 0, Type 0, BuildingBlock: MUDLON_clean_linker_0, # of connection points: 4
#     Node 1, Type 0, BuildingBlock: MUDLON_clean_linker_0, # of connection points: 4
#     Node 2, Type 1, BuildingBlock: AZAVOO_clean_sbu_0, # of connection points: 4
#     Node 3, Type 1, BuildingBlock: AZAVOO_clean_sbu_0, # of connection points: 4
#     Edge 4, Type (0, 1), BuildingBlock: ZUJKAS_clean_linker_0, # of connection points: 2
#     Edge 5, Type (0, 1), BuildingBlock: ZUJKAS_clean_linker_0, # of connection points: 2
#     Edge 6, Type (0, 1), BuildingBlock: ZUJKAS_clean_linker_0, # of connection points: 2
#     Edge 7, Type (0, 1), BuildingBlock: ZUJKAS_clean_linker_0, # of connection points: 2
#     Edge 8, Type (0, 1), BuildingBlock: ZUJKAS_clean_linker_0, # of connection points: 2
#     Edge 9, Type (0, 1), BuildingBlock: ZUJKAS_clean_linker_0, # of connection points: 2
#     Edge 10, Type (0, 1), BuildingBlock: ZUJKAS_clean_linker_0, # of connection points: 2
#     Edge 11, Type (0, 1), BuildingBlock: ZUJKAS_clean_linker_0, # of connection points: 2
# Relax obj value: 0.016
# Max RMSD: 0.070
# Mean RMSD: 0.066
data_MOF--net-pts--node1-AZAVOO_clean_sbu_0--node2-MUDLON_clean_linker_0--edge1-ZUJKAS_clean_linker_0
_symmetry_space_group_name_H-M    P1
_symmetry_Int_Tables_number       1
_symmetry_cell_setting            triclinic
loop_
_symmetry_equiv_pos_as_xyz
'x, y, z'
_cell_length_a     41.195726
_cell_length_b     42.157189
_cell_length_c     54.34831
_cell_angle_alpha  89.993045
_cell_angle_beta   95.661154
_cell_angle_gamma 89.992608
loop_
_atom_site_label
_atom_site_type_symbol
_atom_site_fract_x
_atom_site_fract_y
_atom_site_fract_z
_atom_type_partial_charge
H0 H 0.65704 0.10097 0.04413 0.0
N1 N 0.64234 0.06755 0.00301 0.0
H2 H 0.6995 0.08928 0.0778 0.0
H3 H 0.6771 0.01209 0.00942 0.0
H4 H 0.71919 0.00028 0.04282 0.0
H5 H 0.64402 0.01981 0.96887 0.0
H6 H 0.67881 0.01816 0.93498 0.0
H7 H 0.67637 0.11505 0.9865 0.0
H8 H 0.71078 0.11392 0.95229 0.0
H9 H 0.58979 0.10244 0.99029 0.0
H10 H 0.61942 0.00758 0.01191 0.0
H11 H 0.53258 0.08625 0.98784 0.0
H12 H 0.56267 0.99164 0.0109 0.0
H13 H 0.37517 0.05164 0.00978 0.0
H14 H 0.34105 0.05955 0.04329 0.0
H15 H 0.37245 0.9689 0.07436 0.0
H16 H 0.40573 0.96067 0.03997 0.0
H17 H 0.37229 0.95051 0.9812 0.0
H18 H 0.33008 0.95314 0.94633 0.0
H19 H 0.35571 0.05087 0.934 0.0
H20 H 0.39764 0.04803 0.96913 0.0
H21 H 0.43421 0.05677 0.01232 0.0
H22 H 0.49089 0.07297 0.01241 0.0
H23 H 0.515 0.98028 0.98533 0.0
N24 N 0.40903 0.99755 0.0006 0.0
H25 H 0.45833 0.96379 0.98667 0.0
C26 C 0.66385 0.05763 0.02422 0.0
C27 C 0.67011 0.07868 0.04405 0.0
C28 C 0.69434 0.07195 0.06323 0.0
C29 C 0.71292 0.044 0.06279 0.0
C30 C 0.70564 0.02224 0.04346 0.0
C31 C 0.68134 0.02891 0.0244 0.0
C32 C 0.65766 0.06766 0.98026 0.0
C33 C 0.65796 0.04067 0.96506 0.0
C34 C 0.67788 0.03978 0.94565 0.0
C35 C 0.69788 0.06579 0.94112 0.0
C36 C 0.69614 0.09329 0.95556 0.0
C37 C 0.67625 0.09414 0.97491 0.0
C38 C 0.60899 0.05655 0.00155 0.0
C39 C 0.58391 0.07818 0.99468 0.0
C40 C 0.5512 0.06889 0.9935 0.0
C41 C 0.54276 0.03763 -0.00062 0.0
C42 C 0.56806 0.0158 0.00594 0.0
C43 C 0.60078 0.02504 0.0068 0.0
C44 C 0.3929 0.00529 0.02223 0.0
C45 C 0.37512 0.0336 0.02391 0.0
C46 C 0.35566 0.0382 0.04326 0.0
C47 C 0.35365 0.01472 0.06144 0.0
C48 C 0.37286 0.9872 0.06041 0.0
C49 C 0.39217 0.98257 0.04095 0.0
C50 C 0.38808 -0.00108 0.97775 0.0
C51 C 0.36919 0.97226 0.97061 0.0
C52 C 0.34513 0.97384 0.95068 0.0
C53 C 0.33939 0.00229 0.93745 0.0
C54 C 0.35924 0.02874 0.94402 0.0
C55 C 0.38342 0.02707 0.96397 0.0
C56 C 0.44205 0.00872 -0.00014 0.0
C57 C 0.45162 0.03981 0.00657 0.0
C58 C 0.48419 0.04919 0.00634 0.0
C59 C 0.50782 0.02793 -0.001 0.0
C60 C 0.49782 0.99715 0.99165 0.0
C61 C 0.46537 0.9877 0.99219 0.0
H62 H 0.01639 0.64857 0.51717 0.0
N63 N 0.07669 0.62972 0.50547 0.0
H64 H 0.00484 0.67969 0.55303 0.0
H65 H 0.11879 0.64847 0.54274 0.0
H66 H 0.1076 0.68051 0.57854 0.0
H67 H 0.11451 0.66813 0.48247 0.0
H68 H 0.0998 0.69907 0.44494 0.0
H69 H 0.01841 0.62686 0.47664 0.0
H70 H 0.00322 0.65807 0.43911 0.0
H71 H 0.02691 0.59233 0.51948 0.0
H72 H 0.12049 0.59023 0.49039 0.0
H73 H 0.02651 0.53468 0.52133 0.0
H74 H 0.1194 0.53238 0.4905 0.0
H75 H 0.01525 0.37144 0.51261 0.0
H76 H 0.99159 0.34081 0.54471 0.0
H77 H 0.08136 0.35086 0.59232 0.0
H78 H 0.10484 0.38127 0.56005 0.0
H79 H 0.12444 0.35197 0.50532 0.0
H80 H 0.12557 0.31707 0.46936 0.0
H81 H 0.03438 0.35731 0.43776 0.0
H82 H 0.03359 0.39212 0.47354 0.0
H83 H 0.02347 0.42902 0.50398 0.0
H84 H 0.02168 0.48666 0.49955 0.0
H85 H 0.12619 0.49048 0.51831 0.0
N86 N 0.07826 0.39278 0.51455 0.0
H87 H 0.12772 0.43275 0.52095 0.0
C88 C 0.06861 0.64622 0.52727 0.0
C89 C 0.03642 0.65508 0.53056 0.0
C90 C 0.02985 0.67309 0.55106 0.0
C91 C 0.05531 0.68279 0.56861 0.0
C92 C 0.08736 0.67314 0.56557 0.0
C93 C 0.09386 0.65502 0.54509 0.0
C94 C 0.06758 0.64553 0.48237 0.0
C95 C 0.09034 0.66557 0.47286 0.0
C96 C 0.08192 0.68303 0.45139 0.0
C97 C 0.05035 0.68093 0.43907 0.0
C98 C 0.02765 0.66028 0.44832 0.0
C99 C 0.03626 0.6425 0.46974 0.0
C100 C 0.07426 0.59565 0.50533 0.0
C101 C 0.04732 0.57952 0.51332 0.0
C102 C 0.04695 0.54635 0.51408 0.0
C103 C 0.07313 0.52867 0.50637 0.0
C104 C 0.09925 0.54506 0.49731 0.0
C105 C 0.09985 0.57813 0.497 0.0
C106 C 0.06205 0.37823 0.53392 0.0
C107 C 0.02967 0.36741 0.53005 0.0
C108 C 0.01618 0.3499 0.5484 0.0
C109 C 0.03466 0.34334 0.57099 0.0
C110 C 0.06637 0.3558 0.57524 0.0
C111 C 0.0799 0.37299 0.55683 0.0
C112 C 0.0791 0.37464 0.49216 0.0
C113 C 0.10495 0.35346 0.49045 0.0
C114 C 0.10544 0.33349 0.47 0.0
C115 C 0.07999 0.33438 0.45078 0.0
C116 C 0.05452 0.35633 0.45214 0.0
C117 C 0.05399 0.37621 0.4727 0.0
C118 C 0.07593 0.42668 0.51234 0.0
C119 C 0.046 0.44228 0.5067 0.0
C120 C 0.045 0.47535 0.5045 0.0
C121 C 0.07383 0.49342 0.50837 0.0
C122 C 0.10358 0.4775 0.51451 0.0
C123 C 0.10455 0.44452 0.51628 0.0
Mg124 Mg 0.06232 0.00144 0.26854 0.0
O125 O 0.01278 0.00549 0.24476 0.0
O126 O 0.97468 0.00189 0.27129 0.0
Mg127 Mg 0.99843 0.99367 0.31046 0.0
C128 C 0.9829 0.00546 0.2494 0.0
C129 C 0.12024 0.00838 0.23996 0.0
O130 O 0.12938 0.99087 0.25943 0.0
O131 O 0.05643 0.05178 0.28315 0.0
O132 O 0.01988 0.04391 0.3103 0.0
O133 O 0.06237 0.94867 0.26444 0.0
O134 O 0.04074 0.97401 0.29433 0.0
C135 C 0.03935 0.06198 0.29988 0.0
C136 C 0.04637 0.94753 0.28375 0.0
O137 O 0.09105 0.0186 0.23727 0.0
Mg138 Mg 0.98477 0.00057 0.73451 0.0
O139 O 0.0352 0.00252 0.75731 0.0
O140 O 0.07218 0.99544 0.7303 0.0
Mg141 Mg 0.04666 0.98867 0.69147 0.0
C142 C 0.06483 0.00018 0.7523 0.0
C143 C 0.92783 0.01442 0.76285 0.0
O144 O 0.91634 -2e-05 0.74239 0.0
O145 O 0.99281 0.05034 0.71951 0.0
O146 O 0.0286 0.04018 0.69219 0.0
O147 O 0.98275 0.94784 0.73905 0.0
O148 O 0.0037 0.97196 0.70827 0.0
C149 C 0.01036 0.05942 0.70272 0.0
C150 C 0.99778 0.94588 0.71928 0.0
O151 O 0.95833 0.01973 0.76633 0.0
H152 H 0.31562 0.96844 0.07926 0.0
H153 H 0.27527 0.97402 0.10888 0.0
H154 H 0.29611 0.07408 0.11523 0.0
H155 H 0.33782 0.06846 0.08641 0.0
H156 H 0.29079 0.04746 0.15987 0.0
H157 H 0.18518 0.01173 0.09509 0.0
H158 H 0.21677 0.9823 0.09709 0.0
H159 H 0.22447 0.021 0.08487 0.0
C160 C 0.31206 0.99159 0.08719 0.0
C161 C 0.33003 0.01802 0.08036 0.0
C162 C 0.28853 0.99483 0.10383 0.0
C163 C 0.28205 0.02461 0.11379 0.0
C164 C 0.3004 0.05094 0.10752 0.0
H165 H 0.11085 0.04456 0.19767 0.0
H166 H 0.1498 0.05353 0.16696 0.0
C167 C 0.32412 0.0477 0.09094 0.0
C168 C 0.2567 0.02794 0.13124 0.0
H169 H 0.1772 0.01049 0.1383 0.0
C170 C 0.26585 0.03975 0.15506 0.0
C171 C 0.22394 0.0186 0.12481 0.0
C172 C 0.2119 0.00803 0.09898 0.0
C173 C 0.24357 0.0409 0.173 0.0
C174 C 0.21151 0.02925 0.16712 0.0
C175 C 0.20189 0.01902 0.14292 0.0
C176 C 0.18834 0.02542 0.18617 0.0
C177 C 0.25471 0.05444 0.19812 0.0
C178 C 0.19692 0.00642 0.20698 0.0
C179 C 0.17489 0.00138 0.22449 0.0
C180 C 0.14354 0.0149 0.22147 0.0
C181 C 0.13484 0.03388 0.20057 0.0
C182 C 0.15705 0.03902 0.18302 0.0
H183 H 0.27485 0.07176 0.19703 0.0
H184 H 0.23439 0.06637 0.20643 0.0
H185 H 0.26406 0.03494 0.21059 0.0
H186 H 0.22054 0.99492 0.20947 0.0
H187 H 0.18238 0.98643 0.24025 0.0
H188 H 0.03773 0.34913 0.62144 0.0
H189 H 0.02589 0.30793 0.65114 0.0
H190 H 0.99387 0.24527 0.59084 0.0
H191 H 0.00504 0.28638 0.56121 0.0
H192 H 0.95672 0.23899 0.63001 0.0
H193 H 0.08938 0.23452 0.66167 0.0
H194 H 0.06975 0.27198 0.66545 0.0
H195 H 0.07355 0.25696 0.63492 0.0
C196 C 0.02769 0.32671 0.61458 0.0
C197 C 0.02259 0.32085 0.58901 0.0
C198 C 0.02102 0.3032 0.63154 0.0
C199 C 0.00968 0.2733 0.62319 0.0
C200 C 1.00265 0.26815 0.5977 0.0
H201 H 0.04389 0.08612 0.6672 0.0
H202 H 0.04116 0.14039 0.65215 0.0
C203 C 0.00899 0.29171 0.58077 0.0
C204 C 0.00792 0.24629 0.64049 0.0
H205 H 0.05608 0.19631 0.67762 0.0
C206 C 0.97829 0.22987 0.64077 0.0
C207 C 0.03623 0.23437 0.65435 0.0
C208 C 0.06911 0.25014 0.65404 0.0
C209 C 0.97652 0.20107 0.65359 0.0
C210 C 0.00505 0.18873 0.66679 0.0
C211 C 0.03425 0.20597 0.66755 0.0
C212 C 0.00643 0.15607 0.67694 0.0
C213 C 0.94468 0.18314 0.65169 0.0
C214 C 0.98797 0.14687 0.69612 0.0
C215 C 0.98934 0.11552 0.70481 0.0
C216 C 0.00933 0.09301 0.6945 0.0
C217 C 0.02815 0.10267 0.6756 0.0
C218 C 0.0267 0.13378 0.66696 0.0
H219 H 0.92628 0.19361 0.63769 0.0
H220 H 0.94858 0.15795 0.64676 0.0
H221 H 0.93456 0.18358 0.66986 0.0
H222 H 0.97255 0.16387 0.70435 0.0
H223 H 0.97464 0.10893 0.71945 0.0
H224 H 0.77388 0.02337 0.05504 0.0
H225 H 0.82072 0.01533 0.08579 0.0
H226 H 0.76274 0.0447 0.14359 0.0
H227 H 0.71558 0.05252 0.11295 0.0
H228 H 0.84957 0.06365 0.12055 0.0
H229 H 0.80395 0.95695 0.16647 0.0
H230 H 0.78807 0.96923 0.13577 0.0
H231 H 0.77605 0.98979 0.16234 0.0
C232 C 0.77096 0.02771 0.07435 0.0
C233 C 0.74097 0.03836 0.08162 0.0
C234 C 0.79779 0.02332 0.09183 0.0
C235 C 0.79505 0.02916 0.11692 0.0
C236 C 0.76519 0.03975 0.12431 0.0
H237 H 0.91845 0.01695 0.2533 0.0
H238 H 0.87466 0.02299 0.22015 0.0
C239 C 0.73838 0.04438 0.1068 0.0
C240 C 0.82365 0.02487 0.13534 0.0
H241 H 0.8523 0.98047 0.18529 0.0
C242 C 0.85036 0.04538 0.13466 0.0
C243 C 0.82445 0.00099 0.15361 0.0
C244 C 0.79676 0.97775 0.15461 0.0
C245 C 0.87755 0.04329 0.15234 0.0
C246 C 0.87828 0.01952 0.17079 0.0
C247 C 0.85171 -0.00131 0.17115 0.0
C248 C 0.90561 0.01662 0.1906 0.0
C249 C 0.90466 0.06724 0.15162 0.0
C250 C 0.93771 0.01095 0.18505 0.0
C251 C 0.96305 0.00773 0.20407 0.0
C252 C 0.9566 0.00966 0.22897 0.0
C253 C 0.92437 0.01521 0.23437 0.0
C254 C 0.89922 0.01866 0.21542 0.0
H255 H 0.89662 0.08846 0.14051 0.0
H256 H 0.91379 0.07508 0.17055 0.0
H257 H 0.92523 0.05622 0.14301 0.0
H258 H 0.94311 0.00859 0.16604 0.0
H259 H 0.98753 0.00324 0.19926 0.0
H260 H 0.08226 0.68136 0.61692 0.0
H261 H 0.07374 0.71941 0.64978 0.0
H262 H 0.00541 0.77103 0.59956 0.0
H263 H 0.01401 0.73358 0.56667 0.0
H264 H 0.08606 0.784 0.64898 0.0
H265 H 0.95614 0.76215 0.66083 0.0
H266 H 0.9806 0.73447 0.64523 0.0
H267 H 0.96273 0.76847 0.62906 0.0
C268 C 0.06532 0.70076 0.61292 0.0
C269 C 0.0487 0.70434 0.58918 0.0
C270 C 0.06036 0.72234 0.63175 0.0
C271 C 0.03851 0.74769 0.62722 0.0
C272 C 0.0217 0.75114 0.60365 0.0
H273 H 0.02706 0.93499 0.67721 0.0
H274 H 0.04005 0.88411 0.65947 0.0
C275 C 0.02666 0.72967 0.58485 0.0
C276 C 0.03497 0.7721 0.64636 0.0
H277 H 0.97772 0.81298 0.67481 0.0
C278 C 0.06249 0.78998 0.65501 0.0
C279 C 0.00433 0.77954 0.65455 0.0
C280 C 0.97434 0.75992 0.64714 0.0
C281 C 0.05975 0.81644 0.67033 0.0
C282 C 0.02864 0.82541 0.67683 0.0
C283 C 1.00151 0.80627 0.66956 0.0
C284 C 0.02318 0.85608 0.68904 0.0
C285 C 0.09008 0.83499 0.67893 0.0
C286 C 0.00897 0.85725 0.71145 0.0
C287 C 1.00148 0.88648 0.72173 0.0
C288 C 0.00782 0.91497 0.7096 0.0
C289 C 0.02232 0.91361 0.68727 0.0
C290 C 0.02988 0.88448 0.6771 0.0
H291 H 0.11224 0.81989 0.67938 0.0
H292 H 0.09294 0.85477 0.66584 0.0
H293 H 0.08851 0.84518 0.69762 0.0
H294 H 0.00331 0.83554 0.72081 0.0
H295 H 0.99017 0.88673 0.73889 0.0
H296 H 0.29594 0.05119 0.92918 0.0
H297 H 0.24783 0.05343 0.89899 0.0
H298 H 0.27138 0.9611 0.87162 0.0
H299 H 0.31963 0.95871 0.90165 0.0
H300 H 0.24181 0.04989 0.84762 0.0
H301 H 0.17707 0.95031 0.88816 0.0
H302 H 0.21214 0.96946 0.90431 0.0
H303 H 0.2174 0.94025 0.88093 0.0
C304 C 0.29114 0.03153 0.91652 0.0
C305 C 0.31156 0.00469 0.91791 0.0
C306 C 0.26351 0.03277 0.8994 0.0
C307 C 0.25567 0.00716 0.88342 0.0
C308 C 0.27652 0.98077 0.88421 0.0
H309 H 0.13033 0.99766 0.74809 0.0
H310 H 0.17495 0.00151 0.78082 0.0
C311 C 0.30413 0.97948 0.90134 0.0
C312 C 0.22583 0.00812 0.86578 0.0
H313 H 0.15498 0.96841 0.84841 0.0
C314 C 0.22271 0.03222 0.84789 0.0
C315 C 0.20065 0.98539 0.86645 0.0
C316 C 0.20172 0.96006 0.88614 0.0
C317 C 0.19563 0.03351 0.83008 0.0
C318 C 0.17129 0.00981 0.82997 0.0
C319 C 0.17381 0.98639 0.8484 0.0
C320 C 0.14381 0.00807 0.81021 0.0
C321 C 0.1933 0.06028 0.81156 0.0
C322 C 0.11135 0.00969 0.81593 0.0
C323 C 0.08555 0.00731 0.79719 0.0
C324 C 0.09183 0.00299 0.77241 0.0
C325 C 0.12446 0.00114 0.7669 0.0
C326 C 0.15011 0.00355 0.78558 0.0
H327 H 0.20818 0.08101 0.81843 0.0
H328 H 0.20265 0.05202 0.79419 0.0
H329 H 0.16763 0.06808 0.80717 0.0
H330 H 0.10598 0.01291 0.83489 0.0
H331 H 0.06077 0.00874 0.80213 0.0
H332 H 0.06486 0.34504 0.40112 0.0
H333 H 0.06084 0.30557 0.36776 0.0
H334 H 0.08808 0.23189 0.42092 0.0
H335 H 0.0925 0.27105 0.4541 0.0
H336 H 0.11936 0.22595 0.37901 0.0
H337 H 0.98594 0.24309 0.35539 0.0
H338 H 0.01088 0.27775 0.35328 0.0
H339 H 0.00745 0.25977 0.38289 0.0
C340 C 0.07 0.3204 0.40562 0.0
C341 C 0.07897 0.31112 0.43022 0.0
C342 C 0.06764 0.29791 0.38658 0.0
C343 C 0.07375 0.26573 0.3919 0.0
C344 C 0.08334 0.2566 0.41637 0.0
H345 H 0.00854 0.09047 0.33615 0.0
H346 H 0.01806 0.14307 0.35359 0.0
C347 C 0.08594 0.27902 0.43532 0.0
C348 C 0.06937 0.24105 0.37242 0.0
H349 H 0.0111 0.20278 0.33442 0.0
C350 C 0.09582 0.22109 0.36895 0.0
C351 C 0.03856 0.23479 0.35942 0.0
C352 C 0.00896 0.25476 0.36297 0.0
C353 C 0.09196 0.19406 0.35387 0.0
C354 C 0.06092 0.18726 0.34145 0.0
C355 C 0.03489 0.20817 0.34387 0.0
C356 C 0.0538 0.15647 0.32886 0.0
C357 C 0.12062 0.17199 0.35264 0.0
C358 C 0.07022 0.14667 0.30872 0.0
C359 C 0.06505 0.11622 0.29874 0.0
C360 C 0.04313 0.09523 0.30864 0.0
C361 C 0.02574 0.10581 0.3281 0.0
C362 C 0.03106 0.13601 0.33808 0.0
H363 H 0.14107 0.17777 0.36681 0.0
H364 H 0.11321 0.14699 0.3553 0.0
H365 H 0.12974 0.17394 0.33417 0.0
H366 H 0.08741 0.16234 0.30099 0.0
H367 H 0.07864 0.10895 0.28363 0.0
H368 H 0.6894 0.03994 0.89456 0.0
H369 H 0.73031 0.03431 0.865 0.0
H370 H 0.80147 0.08124 0.91598 0.0
H371 H 0.76112 0.0863 0.94582 0.0
H372 H 0.7676 0.08326 0.84371 0.0
H373 H 0.84618 0.99707 0.89948 0.0
H374 H 0.80467 0.00528 0.90549 0.0
H375 H 0.8366 0.03285 0.91523 0.0
C376 C 0.71381 0.04891 0.89952 0.0
C377 C 0.72199 0.06355 0.92255 0.0
C378 C 0.73708 0.04582 0.88258 0.0
C379 C 0.76899 0.05701 0.88846 0.0
C380 C 0.7771 0.07206 0.91123 0.0
H381 H 0.94264 0.04353 0.80787 0.0
H382 H 0.90483 0.05675 0.83855 0.0
C383 C 0.75387 0.07524 0.92814 0.0
C384 C 0.79378 0.05301 0.87072 0.0
H385 H 0.86541 0.01549 0.86254 0.0
C386 C 0.789 0.06846 0.8478 0.0
C387 C 0.82178 0.0339 0.87624 0.0
C388 C 0.82764 0.01608 0.90035 0.0
C389 C 0.81151 0.06529 0.83017 0.0
C390 C 0.83916 0.04561 0.83545 0.0
C391 C 0.84424 0.03062 0.85857 0.0
C392 C 0.86203 0.03875 0.8167 0.0
C393 C 0.8056 0.08328 0.80614 0.0
C394 C 0.85055 0.02396 0.79442 0.0
C395 C 0.87196 0.01646 0.77694 0.0
C396 C 0.90543 0.02333 0.78142 0.0
C397 C 0.91699 0.03804 0.80382 0.0
C398 C 0.89544 0.04558 0.82136 0.0
H399 H 0.78967 0.10423 0.808 0.0
H400 H 0.8289 0.0914 0.79958 0.0
H401 H 0.79318 0.06747 0.79184 0.0
H402 H 0.82502 0.01776 0.79068 0.0
H403 H 0.86221 0.00496 0.75998 0.0
H404 H 0.08463 0.69318 0.39957 0.0
H405 H 0.07342 0.73461 0.36826 0.0
H406 H 0.98401 0.75799 0.39916 0.0
H407 H 0.99513 0.71675 0.43068 0.0
H408 H 0.01003 0.7508 0.33276 0.0
H409 H 0.05072 0.83747 0.40698 0.0
H410 H 0.0621 0.79613 0.40909 0.0
H411 H 0.02123 0.80786 0.41345 0.0
C412 C 0.06232 0.70681 0.39943 0.0
C413 C 0.0409 0.70197 0.41769 0.0
C414 C 0.05586 0.73026 0.38146 0.0
C415 C 0.028 0.74931 0.38156 0.0
C416 C 0.0056 0.74338 0.39883 0.0
H417 H 0.00305 0.93742 0.31806 0.0
H418 H 0.99258 0.88787 0.33893 0.0
C419 C 0.01194 0.71979 0.41674 0.0
C420 C 0.0246 0.77773 0.36563 0.0
H421 H 0.03736 0.85757 0.36718 0.0
C422 C 0.01568 0.77425 0.3402 0.0
C423 C 0.03199 0.80813 0.37553 0.0
C424 C 0.04222 0.81289 0.40272 0.0
C425 C 0.01406 0.80063 0.32429 0.0
C426 C 0.02245 0.83101 0.33409 0.0
C427 C 0.03079 0.83436 0.35965 0.0
C428 C 0.02446 0.85959 0.31836 0.0
C429 C 0.00314 0.79571 0.29725 0.0
C430 C 0.04528 0.86014 0.2994 0.0
C431 C 0.05095 0.88848 0.28715 0.0
C432 C 0.03645 0.91692 0.29401 0.0
C433 C 0.01471 0.91606 0.31235 0.0
C434 C 0.00868 0.88768 0.32432 0.0
H435 H 0.98731 0.77443 0.29438 0.0
H436 H 0.98961 0.81663 0.28918 0.0
H437 H 0.02487 0.79187 0.28708 0.0
H438 H 0.05845 0.83904 0.29489 0.0
H439 H 0.06802 0.88839 0.27321 0.0
loop_
_geom_bond_atom_site_label_1
_geom_bond_atom_site_label_2
_geom_bond_distance
_geom_bond_site_symmetry_2
_ccdc_geom_bond_type
H0 C27 0.929 . S
N1 C26 1.433 . S
N1 C32 1.435 1_554 S
N1 C38 1.423 . S
H2 C28 0.930 . S
H3 C31 0.931 1_565 S
H4 C30 0.929 . S
H5 C33 0.930 . S
H6 C34 0.932 . S
H7 C37 0.929 . S
H8 C36 0.931 . S
H9 C39 0.929 . S
H10 C43 0.932 1_565 S
H11 C40 0.931 . S
H12 C42 0.929 . S
H13 C45 0.929 . S
H14 C46 0.930 . S
H15 C48 0.929 . S
H16 C49 0.931 1_565 S
H17 C51 0.930 . S
H18 C52 0.932 . S
H19 C54 0.931 . S
H20 C55 0.929 . S
H21 C57 0.929 . S
H22 C58 0.931 . S
H23 C60 0.929 . S
N24 C44 1.433 . S
N24 C50 1.435 1_554 S
N24 C56 1.423 1_554 S
H25 C61 0.932 1_565 S
C26 N1 1.433 . S
C26 C27 1.363 . S
C26 C31 1.370 . S
C27 H0 0.929 . S
C27 C26 1.363 . S
C27 C28 1.385 . S
C28 H2 0.930 . S
C28 C27 1.385 . S
C28 C29 1.357 . S
C29 C28 1.357 . S
C29 C30 1.406 1_545 S
C30 H4 0.929 . S
C30 C29 1.406 1_565 S
C30 C31 1.391 1_565 S
C31 H3 0.931 1_545 S
C31 C26 1.370 . S
C31 C30 1.391 1_545 S
C32 N1 1.435 1_556 S
C32 C33 1.358 1_545 S
C32 C37 1.371 . S
C33 H5 0.930 . S
C33 C32 1.358 1_565 S
C33 C34 1.405 . S
C34 H6 0.932 . S
C34 C33 1.405 . S
C34 C35 1.383 1_565 S
C35 C34 1.383 1_545 S
C35 C36 1.393 . S
C36 H8 0.931 . S
C36 C35 1.393 . S
C36 C37 1.382 . S
C37 H7 0.929 . S
C37 C32 1.371 . S
C37 C36 1.382 . S
C38 N1 1.423 . S
C38 C39 1.361 . S
C38 C43 1.390 1_554 S
C39 H9 0.929 . S
C39 C38 1.361 . S
C39 C40 1.376 . S
C40 H11 0.931 . S
C40 C39 1.376 . S
C40 C41 1.396 1_554 S
C41 C40 1.396 1_556 S
C41 C42 1.348 . S
C41 C59 1.472 . S
C42 H12 0.929 . S
C42 C41 1.348 . S
C42 C43 1.443 . S
C43 H10 0.932 1_545 S
C43 C38 1.390 1_556 S
C43 C42 1.443 . S
C44 N24 1.433 . S
C44 C45 1.363 . S
C44 C49 1.370 . S
C45 H13 0.929 . S
C45 C44 1.363 . S
C45 C46 1.385 . S
C46 H14 0.930 . S
C46 C45 1.385 . S
C46 C47 1.357 . S
C47 C46 1.357 . S
C47 C48 1.406 1_545 S
C48 H15 0.929 . S
C48 C47 1.406 1_565 S
C48 C49 1.391 1_565 S
C49 H16 0.931 1_545 S
C49 C44 1.370 . S
C49 C48 1.391 1_545 S
C50 N24 1.435 1_556 S
C50 C51 1.358 1_545 S
C50 C55 1.371 . S
C51 H17 0.930 . S
C51 C50 1.358 1_565 S
C51 C52 1.405 . S
C52 H18 0.932 . S
C52 C51 1.405 . S
C52 C53 1.383 1_565 S
C53 C52 1.383 1_545 S
C53 C54 1.393 . S
C54 H19 0.931 . S
C54 C53 1.393 . S
C54 C55 1.382 . S
C55 H20 0.929 . S
C55 C50 1.371 . S
C55 C54 1.382 . S
C56 N24 1.423 1_556 S
C56 C57 1.362 1_556 S
C56 C61 1.388 . S
C57 H21 0.929 . S
C57 C56 1.362 1_554 S
C57 C58 1.376 . S
C58 H22 0.931 . S
C58 C57 1.376 . S
C58 C59 1.396 1_554 S
C59 C41 1.472 . S
C59 C58 1.396 1_556 S
C59 C60 1.348 . S
C60 H23 0.929 . S
C60 C59 1.348 . S
C60 C61 1.443 . S
C61 H25 0.932 1_545 S
C61 C56 1.388 . S
C61 C60 1.443 . S
H62 C89 0.929 1_655 S
N63 C88 1.433 . S
N63 C94 1.435 . S
N63 C100 1.423 . S
H64 C90 0.930 1_655 S
H65 C93 0.931 . S
H66 C92 0.929 . S
H67 C95 0.930 . S
H68 C96 0.932 . S
H69 C99 0.929 1_655 S
H70 C98 0.931 . S
H71 C101 0.929 . S
H72 C105 0.932 . S
H73 C102 0.931 . S
H74 C104 0.929 . S
H75 C107 0.929 1_655 S
H76 C108 0.930 1_655 S
H77 C110 0.929 . S
H78 C111 0.931 . S
H79 C113 0.930 . S
H80 C114 0.932 . S
H81 C116 0.931 . S
H82 C117 0.929 1_655 S
H83 C119 0.929 . S
H84 C120 0.931 . S
H85 C122 0.929 . S
N86 C106 1.433 . S
N86 C112 1.435 . S
N86 C118 1.423 . S
H87 C123 0.932 . S
C88 N63 1.433 . S
C88 C89 1.363 . S
C88 C93 1.370 . S
C89 H62 0.929 1_455 S
C89 C88 1.363 . S
C89 C90 1.385 . S
C90 H64 0.930 1_455 S
C90 C89 1.385 . S
C90 C91 1.357 . S
C91 C90 1.357 . S
C91 C92 1.406 . S
C92 H66 0.929 . S
C92 C91 1.406 . S
C92 C93 1.391 . S
C93 H65 0.931 . S
C93 C88 1.370 . S
C93 C92 1.391 . S
C94 N63 1.435 . S
C94 C95 1.358 . S
C94 C99 1.371 . S
C95 H67 0.930 . S
C95 C94 1.358 . S
C95 C96 1.405 . S
C96 H68 0.932 . S
C96 C95 1.405 . S
C96 C97 1.383 . S
C97 C96 1.383 . S
C97 C98 1.393 . S
C98 H70 0.931 . S
C98 C97 1.393 . S
C98 C99 1.382 . S
C99 H69 0.929 1_455 S
C99 C94 1.371 . S
C99 C98 1.382 . S
C100 N63 1.423 . S
C100 C101 1.362 1_455 S
C100 C105 1.388 . S
C101 H71 0.929 . S
C101 C100 1.362 1_655 S
C101 C102 1.376 . S
C102 H73 0.931 . S
C102 C101 1.376 . S
C102 C103 1.396 1_655 S
C103 C102 1.396 1_455 S
C103 C104 1.348 . S
C103 C121 1.472 . S
C104 H74 0.929 . S
C104 C103 1.348 . S
C104 C105 1.443 . S
C105 H72 0.932 . S
C105 C100 1.388 . S
C105 C104 1.443 . S
C106 N86 1.433 . S
C106 C107 1.363 . S
C106 C111 1.370 . S
C107 H75 0.929 1_455 S
C107 C106 1.363 . S
C107 C108 1.385 . S
C108 H76 0.930 1_455 S
C108 C107 1.385 . S
C108 C109 1.357 . S
C109 C108 1.357 . S
C109 C110 1.406 . S
C110 H77 0.929 . S
C110 C109 1.406 . S
C110 C111 1.391 . S
C111 H78 0.931 . S
C111 C106 1.370 . S
C111 C110 1.391 . S
C112 N86 1.435 . S
C112 C113 1.358 . S
C112 C117 1.371 . S
C113 H79 0.930 . S
C113 C112 1.358 . S
C113 C114 1.405 . S
C114 H80 0.932 . S
C114 C113 1.405 . S
C114 C115 1.383 . S
C115 C114 1.383 . S
C115 C116 1.393 . S
C116 H81 0.931 . S
C116 C115 1.393 . S
C116 C117 1.382 . S
C117 H82 0.929 1_455 S
C117 C112 1.371 . S
C117 C116 1.382 . S
C118 N86 1.423 . S
C118 C119 1.362 1_455 S
C118 C123 1.388 . S
C119 H83 0.929 . S
C119 C118 1.362 1_655 S
C119 C120 1.376 . S
C120 H84 0.931 . S
C120 C119 1.376 . S
C120 C121 1.396 1_655 S
C121 C103 1.472 . S
C121 C120 1.396 1_455 S
C121 C122 1.348 . S
C122 H85 0.929 . S
C122 C121 1.348 . S
C122 C123 1.443 . S
C123 H87 0.932 . S
C123 C118 1.388 . S
C123 C122 1.443 . S
Mg124 O125 2.028 . S
Mg124 O131 1.986 . S
Mg124 O133 2.114 1_545 S
Mg124 O134 2.251 1_545 S
Mg124 O137 2.010 . S
O125 Mg124 2.028 . S
O125 C128 1.250 . S
O126 Mg127 2.028 . S
O126 C128 1.248 1_655 S
Mg127 O126 2.028 . S
Mg127 O132 2.032 1_655 S
Mg127 O134 2.079 1_645 S
C128 O125 1.250 . S
C128 O126 1.248 1_455 S
C129 O130 1.264 . S
C129 O137 1.249 . S
O130 C129 1.264 . S
O131 Mg124 1.986 . S
O131 C135 1.246 . S
O132 Mg127 2.032 1_455 S
O132 C135 1.259 . S
O133 Mg124 2.114 1_565 S
O133 C136 1.252 . S
O134 Mg124 2.251 1_565 S
O134 Mg127 2.079 1_465 S
O134 C136 1.273 . S
C135 O131 1.246 . S
C135 O132 1.259 . S
C136 O133 1.252 . S
C136 O134 1.273 . S
O137 Mg124 2.010 . S
O137 C129 1.249 . S
Mg138 O139 2.028 1_655 S
Mg138 O145 1.986 . S
Mg138 O147 2.114 1_545 S
Mg138 O148 2.251 1_645 S
Mg138 O151 2.010 . S
O139 Mg138 2.028 1_455 S
O139 C142 1.250 . S
O140 Mg141 2.028 . S
O140 C142 1.248 . S
Mg141 O140 2.028 . S
Mg141 O146 2.032 . S
Mg141 O148 2.079 1_545 S
C142 O139 1.250 . S
C142 O140 1.248 . S
C143 O144 1.264 . S
C143 O151 1.249 . S
O144 C143 1.264 . S
O145 Mg138 1.986 . S
O145 C149 1.248 1_655 S
O146 Mg141 2.032 . S
O146 C149 1.259 . S
O147 Mg138 2.114 1_565 S
O147 C150 1.252 1_655 S
O148 Mg138 2.251 1_465 S
O148 Mg141 2.079 1_565 S
O148 C150 1.273 . S
C149 O145 1.248 1_455 S
C149 O146 1.259 . S
C150 O147 1.252 1_455 S
C150 O148 1.273 . S
O151 Mg138 2.010 . S
O151 C143 1.249 . S
H152 C160 0.929 . S
H153 C162 0.930 . S
H154 C164 0.930 . S
H155 C167 0.929 . S
H156 C170 0.930 . S
H157 C172 0.960 . S
H158 C172 0.960 . S
H159 C172 0.960 1_545 S
C160 H152 0.929 . S
C160 C161 1.377 1_565 S
C160 C162 1.384 . S
C161 C160 1.377 1_545 S
C161 C167 1.390 . S
C162 H153 0.930 . S
C162 C160 1.384 . S
C162 C163 1.372 1_565 S
C163 C162 1.372 1_545 S
C163 C164 1.400 . S
C163 C168 1.490 . S
C164 H154 0.930 . S
C164 C163 1.400 . S
C164 C167 1.386 . S
H165 C181 0.930 . S
H166 C182 0.931 . S
C167 H155 0.929 . S
C167 C161 1.390 . S
C167 C164 1.386 . S
C168 C163 1.490 . S
C168 C170 1.395 . S
C168 C171 1.403 . S
H169 C175 0.930 . S
C170 H156 0.930 . S
C170 C168 1.395 . S
C170 C173 1.403 . S
C171 C168 1.403 . S
C171 C172 1.524 1_545 S
C171 C175 1.400 . S
C172 H157 0.960 . S
C172 H158 0.960 . S
C172 H159 0.960 1_565 S
C172 C171 1.524 1_565 S
C173 C170 1.403 . S
C173 C174 1.392 . S
C173 C177 1.495 . S
C174 C173 1.392 . S
C174 C175 1.385 . S
C174 C176 1.478 . S
C175 H169 0.930 . S
C175 C171 1.400 . S
C175 C174 1.385 . S
C176 C174 1.478 . S
C176 C178 1.381 1_545 S
C176 C182 1.383 . S
C177 C173 1.495 . S
C177 H183 0.959 . S
C177 H184 0.961 . S
C177 H185 0.960 . S
C178 C176 1.381 1_565 S
C178 C179 1.394 . S
C178 H186 0.930 . S
C179 C178 1.394 . S
C179 C180 1.383 1_565 S
C179 H187 0.929 . S
C180 C179 1.383 1_545 S
C180 C181 1.377 . S
C181 H165 0.930 . S
C181 C180 1.377 . S
C181 C182 1.379 . S
C182 H166 0.931 . S
C182 C176 1.383 . S
C182 C181 1.379 . S
H183 C177 0.959 . S
H184 C177 0.961 . S
H185 C177 0.960 . S
H186 C178 0.930 . S
H187 C179 0.929 . S
H188 C196 0.929 . S
H189 C198 0.930 . S
H190 C200 0.930 . S
H191 C203 0.929 . S
H192 C206 0.930 1_655 S
H193 C208 0.960 . S
H194 C208 0.960 . S
H195 C208 0.960 . S
C196 H188 0.929 . S
C196 C197 1.377 . S
C196 C198 1.384 . S
C197 C196 1.377 . S
C197 C203 1.390 . S
C198 H189 0.930 . S
C198 C196 1.384 . S
C198 C199 1.372 . S
C199 C198 1.372 . S
C199 C200 1.400 . S
C199 C204 1.490 . S
C200 H190 0.930 . S
C200 C199 1.400 . S
C200 C203 1.386 . S
H201 C217 0.941 . S
H202 C218 0.942 . S
C203 H191 0.929 . S
C203 C197 1.390 . S
C203 C200 1.386 . S
C204 C199 1.490 . S
C204 C206 1.395 . S
C204 C207 1.403 . S
H205 C211 0.930 . S
C206 H192 0.930 1_455 S
C206 C204 1.395 . S
C206 C209 1.403 1_455 S
C207 C204 1.403 . S
C207 C208 1.524 . S
C207 C211 1.400 . S
C208 H193 0.960 . S
C208 H194 0.960 . S
C208 H195 0.960 . S
C208 C207 1.524 . S
C209 C206 1.403 1_655 S
C209 C210 1.392 1_655 S
C209 C213 1.495 . S
C210 C209 1.392 1_455 S
C210 C211 1.385 . S
C210 C212 1.478 . S
C211 H205 0.930 . S
C211 C207 1.400 . S
C211 C210 1.385 . S
C212 C210 1.478 . S
C212 C214 1.381 . S
C212 C218 1.371 1_455 S
C213 C209 1.495 . S
C213 H219 0.959 . S
C213 H220 0.961 . S
C213 H221 0.960 . S
C214 C212 1.381 . S
C214 C215 1.394 . S
C214 H222 0.930 . S
C215 C214 1.394 . S
C215 C216 1.383 . S
C215 H223 0.929 . S
C216 C215 1.383 . S
C216 C217 1.368 1_455 S
C217 H201 0.941 . S
C217 C216 1.368 1_655 S
C217 C218 1.380 . S
C218 H202 0.942 . S
C218 C212 1.371 1_655 S
C218 C217 1.380 . S
H219 C213 0.959 . S
H220 C213 0.961 . S
H221 C213 0.960 . S
H222 C214 0.930 . S
H223 C215 0.929 . S
H224 C232 0.929 . S
H225 C234 0.930 . S
H226 C236 0.930 . S
H227 C239 0.929 . S
H228 C242 0.930 1_565 S
H229 C244 0.960 . S
H230 C244 0.960 . S
H231 C244 0.960 . S
C232 H224 0.929 . S
C232 C233 1.377 1_565 S
C232 C234 1.384 . S
C233 C232 1.377 1_545 S
C233 C239 1.390 . S
C234 H225 0.930 . S
C234 C232 1.384 . S
C234 C235 1.372 1_565 S
C235 C234 1.372 1_545 S
C235 C236 1.400 . S
C235 C240 1.490 . S
C236 H226 0.930 . S
C236 C235 1.400 . S
C236 C239 1.386 . S
H237 C253 0.930 . S
H238 C254 0.931 . S
C239 H227 0.929 . S
C239 C233 1.390 . S
C239 C236 1.386 . S
C240 C235 1.490 . S
C240 C242 1.395 . S
C240 C243 1.403 . S
H241 C247 0.930 . S
C242 H228 0.930 1_545 S
C242 C240 1.395 . S
C242 C245 1.403 . S
C243 C240 1.403 . S
C243 C244 1.524 . S
C243 C247 1.400 . S
C244 H229 0.960 . S
C244 H230 0.960 . S
C244 H231 0.960 . S
C244 C243 1.524 . S
C245 C242 1.403 . S
C245 C246 1.392 . S
C245 C249 1.495 1_545 S
C246 C245 1.392 . S
C246 C247 1.385 . S
C246 C248 1.478 . S
C247 H241 0.930 . S
C247 C243 1.400 . S
C247 C246 1.385 . S
C248 C246 1.478 . S
C248 C250 1.381 1_545 S
C248 C254 1.383 . S
C249 C245 1.495 1_565 S
C249 H255 0.959 . S
C249 H256 0.961 1_565 S
C249 H257 0.960 . S
C250 C248 1.381 1_565 S
C250 C251 1.394 . S
C250 H258 0.930 . S
C251 C250 1.394 . S
C251 C252 1.383 1_565 S
C251 H259 0.929 . S
C252 C251 1.383 1_545 S
C252 C253 1.377 . S
C253 H237 0.930 . S
C253 C252 1.377 . S
C253 C254 1.379 . S
C254 H238 0.931 . S
C254 C248 1.383 . S
C254 C253 1.379 . S
H255 C249 0.959 . S
H256 C249 0.961 1_545 S
H257 C249 0.960 . S
H258 C250 0.930 . S
H259 C251 0.929 . S
H260 C268 0.929 . S
H261 C270 0.930 . S
H262 C272 0.930 1_655 S
H263 C275 0.929 1_655 S
H264 C278 0.930 . S
H265 C280 0.960 . S
H266 C280 0.960 . S
H267 C280 0.960 . S
C268 H260 0.929 . S
C268 C269 1.377 . S
C268 C270 1.384 . S
C269 C268 1.377 . S
C269 C275 1.390 . S
C270 H261 0.930 . S
C270 C268 1.384 . S
C270 C271 1.372 . S
C271 C270 1.372 . S
C271 C272 1.400 . S
C271 C276 1.490 . S
C272 H262 0.930 1_455 S
C272 C271 1.400 . S
C272 C275 1.386 . S
H273 C289 0.930 1_655 S
H274 C290 0.938 . S
C275 H263 0.929 1_455 S
C275 C269 1.390 . S
C275 C272 1.386 . S
C276 C271 1.490 . S
C276 C278 1.395 . S
C276 C279 1.403 1_455 S
H277 C283 0.930 . S
C278 H264 0.930 . S
C278 C276 1.395 . S
C278 C281 1.403 . S
C279 C276 1.403 1_655 S
C279 C280 1.524 . S
C279 C283 1.400 . S
C280 H265 0.960 . S
C280 H266 0.960 . S
C280 H267 0.960 . S
C280 C279 1.524 . S
C281 C278 1.403 . S
C281 C282 1.392 . S
C281 C285 1.495 . S
C282 C281 1.392 . S
C282 C283 1.385 1_455 S
C282 C284 1.478 . S
C283 H277 0.930 . S
C283 C279 1.400 . S
C283 C282 1.385 1_655 S
C284 C282 1.478 . S
C284 C286 1.381 . S
C284 C290 1.383 . S
C285 C281 1.495 . S
C285 H291 0.959 . S
C285 H292 0.961 . S
C285 H293 0.960 . S
C286 C284 1.381 . S
C286 C287 1.394 . S
C286 H294 0.930 . S
C287 C286 1.394 . S
C287 C288 1.383 . S
C287 H295 0.929 . S
C288 C287 1.383 . S
C288 C289 1.377 . S
C289 H273 0.930 1_455 S
C289 C288 1.377 . S
C289 C290 1.379 . S
C290 H274 0.938 . S
C290 C284 1.383 . S
C290 C289 1.379 . S
H291 C285 0.959 . S
H292 C285 0.961 . S
H293 C285 0.960 . S
H294 C286 0.930 . S
H295 C287 0.929 . S
H296 C304 0.929 . S
H297 C306 0.930 . S
H298 C308 0.930 . S
H299 C311 0.929 . S
H300 C314 0.930 . S
H301 C316 0.960 . S
H302 C316 0.960 . S
H303 C316 0.960 . S
C304 H296 0.929 . S
C304 C305 1.377 . S
C304 C306 1.384 . S
C305 C304 1.377 . S
C305 C311 1.390 1_545 S
C306 H297 0.930 . S
C306 C304 1.384 . S
C306 C307 1.372 . S
C307 C306 1.372 . S
C307 C308 1.400 1_545 S
C307 C312 1.490 . S
C308 H298 0.930 . S
C308 C307 1.400 1_565 S
C308 C311 1.386 . S
H309 C325 0.930 1_565 S
H310 C326 0.931 1_565 S
C311 H299 0.929 . S
C311 C305 1.390 1_565 S
C311 C308 1.386 . S
C312 C307 1.490 . S
C312 C314 1.395 . S
C312 C315 1.403 1_545 S
H313 C319 0.930 . S
C314 H300 0.930 . S
C314 C312 1.395 . S
C314 C317 1.403 . S
C315 C312 1.403 1_565 S
C315 C316 1.524 . S
C315 C319 1.400 . S
C316 H301 0.960 . S
C316 H302 0.960 . S
C316 H303 0.960 . S
C316 C315 1.524 . S
C317 C314 1.403 . S
C317 C318 1.392 . S
C317 C321 1.495 . S
C318 C317 1.392 . S
C318 C319 1.385 1_545 S
C318 C320 1.478 . S
C319 H313 0.930 . S
C319 C315 1.400 . S
C319 C318 1.385 1_565 S
C320 C318 1.478 . S
C320 C322 1.381 . S
C320 C326 1.383 . S
C321 C317 1.495 . S
C321 H327 0.959 . S
C321 H328 0.961 . S
C321 H329 0.960 . S
C322 C320 1.381 . S
C322 C323 1.394 . S
C322 H330 0.930 . S
C323 C322 1.394 . S
C323 C324 1.383 . S
C323 H331 0.929 . S
C324 C323 1.383 . S
C324 C325 1.377 . S
C325 H309 0.930 1_545 S
C325 C324 1.377 . S
C325 C326 1.379 . S
C326 H310 0.931 1_545 S
C326 C320 1.383 . S
C326 C325 1.379 . S
H327 C321 0.959 . S
H328 C321 0.961 . S
H329 C321 0.960 . S
H330 C322 0.930 . S
H331 C323 0.929 . S
H332 C340 0.929 . S
H333 C342 0.930 . S
H334 C344 0.930 . S
H335 C347 0.929 . S
H336 C350 0.930 . S
H337 C352 0.960 . S
H338 C352 0.960 . S
H339 C352 0.960 1_455 S
C340 H332 0.929 . S
C340 C341 1.377 . S
C340 C342 1.384 . S
C341 C340 1.377 . S
C341 C347 1.390 . S
C342 H333 0.930 . S
C342 C340 1.384 . S
C342 C343 1.372 . S
C343 C342 1.372 . S
C343 C344 1.400 . S
C343 C348 1.490 . S
C344 H334 0.930 . S
C344 C343 1.400 . S
C344 C347 1.386 . S
H345 C361 0.930 . S
H346 C362 0.931 . S
C347 H335 0.929 . S
C347 C341 1.390 . S
C347 C344 1.386 . S
C348 C343 1.490 . S
C348 C350 1.395 . S
C348 C351 1.403 . S
H349 C355 0.930 . S
C350 H336 0.930 . S
C350 C348 1.395 . S
C350 C353 1.403 . S
C351 C348 1.403 . S
C351 C352 1.524 1_455 S
C351 C355 1.400 . S
C352 H337 0.960 . S
C352 H338 0.960 . S
C352 H339 0.960 1_655 S
C352 C351 1.524 1_655 S
C353 C350 1.403 . S
C353 C354 1.392 . S
C353 C357 1.495 . S
C354 C353 1.392 . S
C354 C355 1.385 . S
C354 C356 1.478 . S
C355 H349 0.930 . S
C355 C351 1.400 . S
C355 C354 1.385 . S
C356 C354 1.478 . S
C356 C358 1.381 . S
C356 C362 1.383 . S
C357 C353 1.495 . S
C357 H363 0.959 . S
C357 H364 0.961 . S
C357 H365 0.960 . S
C358 C356 1.381 . S
C358 C359 1.394 . S
C358 H366 0.930 . S
C359 C358 1.394 . S
C359 C360 1.383 . S
C359 H367 0.929 . S
C360 C359 1.383 . S
C360 C361 1.377 . S
C361 H345 0.930 . S
C361 C360 1.377 . S
C361 C362 1.379 . S
C362 H346 0.931 . S
C362 C356 1.383 . S
C362 C361 1.379 . S
H363 C357 0.959 . S
H364 C357 0.961 . S
H365 C357 0.960 . S
H366 C358 0.930 . S
H367 C359 0.929 . S
H368 C376 0.929 . S
H369 C378 0.930 . S
H370 C380 0.930 . S
H371 C383 0.929 . S
H372 C386 0.930 . S
H373 C388 0.960 . S
H374 C388 0.960 . S
H375 C388 0.960 1_545 S
C376 H368 0.929 . S
C376 C377 1.377 1_565 S
C376 C378 1.384 . S
C377 C376 1.377 1_545 S
C377 C383 1.390 . S
C378 H369 0.930 . S
C378 C376 1.384 . S
C378 C379 1.372 1_565 S
C379 C378 1.372 1_545 S
C379 C380 1.400 . S
C379 C384 1.490 . S
C380 H370 0.930 . S
C380 C379 1.400 . S
C380 C383 1.386 . S
H381 C397 0.930 . S
H382 C398 0.931 . S
C383 H371 0.929 . S
C383 C377 1.390 . S
C383 C380 1.386 . S
C384 C379 1.490 . S
C384 C386 1.395 . S
C384 C387 1.403 . S
H385 C391 0.930 . S
C386 H372 0.930 . S
C386 C384 1.395 . S
C386 C389 1.403 . S
C387 C384 1.403 . S
C387 C388 1.524 1_545 S
C387 C391 1.400 . S
C388 H373 0.960 . S
C388 H374 0.960 . S
C388 H375 0.960 1_565 S
C388 C387 1.524 1_565 S
C389 C386 1.403 . S
C389 C390 1.392 . S
C389 C393 1.495 . S
C390 C389 1.392 . S
C390 C391 1.385 . S
C390 C392 1.478 . S
C391 H385 0.930 . S
C391 C387 1.400 . S
C391 C390 1.385 . S
C392 C390 1.478 . S
C392 C394 1.381 1_545 S
C392 C398 1.383 . S
C393 C389 1.495 . S
C393 H399 0.959 . S
C393 H400 0.961 . S
C393 H401 0.960 . S
C394 C392 1.381 1_565 S
C394 C395 1.394 . S
C394 H402 0.930 . S
C395 C394 1.394 . S
C395 C396 1.383 1_565 S
C395 H403 0.929 . S
C396 C395 1.383 1_545 S
C396 C397 1.377 . S
C397 H381 0.930 . S
C397 C396 1.377 . S
C397 C398 1.379 . S
C398 H382 0.931 . S
C398 C392 1.383 . S
C398 C397 1.379 . S
H399 C393 0.959 . S
H400 C393 0.961 . S
H401 C393 0.960 . S
H402 C394 0.930 . S
H403 C395 0.929 . S
H404 C412 0.929 . S
H405 C414 0.930 . S
H406 C416 0.930 1_655 S
H407 C419 0.929 1_655 S
H408 C422 0.930 . S
H409 C424 0.960 . S
H410 C424 0.960 . S
H411 C424 0.960 . S
C412 H404 0.929 . S
C412 C413 1.377 . S
C412 C414 1.384 . S
C413 C412 1.377 . S
C413 C419 1.390 . S
C414 H405 0.930 . S
C414 C412 1.384 . S
C414 C415 1.372 . S
C415 C414 1.372 . S
C415 C416 1.400 . S
C415 C420 1.490 . S
C416 H406 0.930 1_455 S
C416 C415 1.400 . S
C416 C419 1.386 . S
H417 C433 0.954 . S
H418 C434 0.927 1_655 S
C419 H407 0.929 1_455 S
C419 C413 1.390 . S
C419 C416 1.386 . S
C420 C415 1.490 . S
C420 C422 1.395 . S
C420 C423 1.403 . S
H421 C427 0.930 . S
C422 H408 0.930 . S
C422 C420 1.395 . S
C422 C425 1.403 . S
C423 C420 1.403 . S
C423 C424 1.524 . S
C423 C427 1.400 . S
C424 H409 0.960 . S
C424 H410 0.960 . S
C424 H411 0.960 . S
C424 C423 1.524 . S
C425 C422 1.403 . S
C425 C426 1.392 . S
C425 C429 1.495 . S
C426 C425 1.392 . S
C426 C427 1.385 . S
C426 C428 1.478 . S
C427 H421 0.930 . S
C427 C423 1.400 . S
C427 C426 1.385 . S
C428 C426 1.478 . S
C428 C430 1.381 . S
C428 C434 1.383 . S
C429 C425 1.495 . S
C429 H435 0.959 . S
C429 H436 0.961 . S
C429 H437 0.960 . S
C430 C428 1.381 . S
C430 C431 1.394 . S
C430 H438 0.930 . S
C431 C430 1.394 . S
C431 C432 1.383 . S
C431 H439 0.929 . S
C432 C431 1.383 . S
C432 C433 1.377 . S
C433 H417 0.954 . S
C433 C432 1.377 . S
C433 C434 1.379 . S
C434 H418 0.927 1_455 S
C434 C428 1.383 . S
C434 C433 1.379 . S
H435 C429 0.959 . S
H436 C429 0.961 . S
H437 C429 0.960 . S
H438 C430 0.930 . S
H439 C431 0.929 . S
C180 C129 1.410 . S
C161 C47 1.662 . S
C216 C149 1.756 . S
C197 C109 1.656 . S
C252 C128 1.716 1_655 S
C233 C29 1.651 . S
C288 C150 1.769 . S
C269 C91 1.661 . S
C324 C142 1.346 . S
C305 C53 1.370 . S
C360 C135 1.381 . S
C341 C115 1.371 . S
C396 C143 1.130 . S
C377 C35 1.394 . S
C413 C97 1.373 . S
C432 C136 1.388 . S
