# Generated by pormake.
# Topology cml, (3,6)-cn, num edge types: 1
# Building blocks:
#     Node 0, Type 0, BuildingBlock: MIDCAF_clean_linker_0, # of connection points: 3
#     Node 1, Type 0, BuildingBlock: MIDCAF_clean_linker_0, # of connection points: 3
#     Node 2, Type 0, BuildingBlock: MIDCAF_clean_linker_0, # of connection points: 3
#     Node 3, Type 0, BuildingBlock: MIDCAF_clean_linker_0, # of connection points: 3
#     Node 4, Type 0, BuildingBlock: MIDCAF_clean_linker_0, # of connection points: 3
#     Node 5, Type 0, BuildingBlock: MIDCAF_clean_linker_0, # of connection points: 3
#     Node 6, Type 0, BuildingBlock: MIDCAF_clean_linker_0, # of connection points: 3
#     Node 7, Type 0, BuildingBlock: MIDCAF_clean_linker_0, # of connection points: 3
#     Node 8, Type 1, BuildingBlock: IZENUY_clean_sbu_0, # of connection points: 6
#     Node 9, Type 1, BuildingBlock: IZENUY_clean_sbu_0, # of connection points: 6
#     Node 10, Type 1, BuildingBlock: IZENUY_clean_sbu_0, # of connection points: 6
#     Node 11, Type 1, BuildingBlock: IZENUY_clean_sbu_0, # of connection points: 6
#     Edge 12, Type (0, 1), BuildingBlock: CIFDUS_clean_linker_0, # of connection points: 2
#     Edge 13, Type (0, 1), BuildingBlock: CIFDUS_clean_linker_0, # of connection points: 2
#     Edge 14, Type (0, 1), BuildingBlock: CIFDUS_clean_linker_0, # of connection points: 2
#     Edge 15, Type (0, 1), BuildingBlock: CIFDUS_clean_linker_0, # of connection points: 2
#     Edge 16, Type (0, 1), BuildingBlock: CIFDUS_clean_linker_0, # of connection points: 2
#     Edge 17, Type (0, 1), BuildingBlock: CIFDUS_clean_linker_0, # of connection points: 2
#     Edge 18, Type (0, 1), BuildingBlock: CIFDUS_clean_linker_0, # of connection points: 2
#     Edge 19, Type (0, 1), BuildingBlock: CIFDUS_clean_linker_0, # of connection points: 2
#     Edge 20, Type (0, 1), BuildingBlock: CIFDUS_clean_linker_0, # of connection points: 2
#     Edge 21, Type (0, 1), BuildingBlock: CIFDUS_clean_linker_0, # of connection points: 2
#     Edge 22, Type (0, 1), BuildingBlock: CIFDUS_clean_linker_0, # of connection points: 2
#     Edge 23, Type (0, 1), BuildingBlock: CIFDUS_clean_linker_0, # of connection points: 2
#     Edge 24, Type (0, 1), BuildingBlock: CIFDUS_clean_linker_0, # of connection points: 2
#     Edge 25, Type (0, 1), BuildingBlock: CIFDUS_clean_linker_0, # of connection points: 2
#     Edge 26, Type (0, 1), BuildingBlock: CIFDUS_clean_linker_0, # of connection points: 2
#     Edge 27, Type (0, 1), BuildingBlock: CIFDUS_clean_linker_0, # of connection points: 2
#     Edge 28, Type (0, 1), BuildingBlock: CIFDUS_clean_linker_0, # of connection points: 2
#     Edge 29, Type (0, 1), BuildingBlock: CIFDUS_clean_linker_0, # of connection points: 2
#     Edge 30, Type (0, 1), BuildingBlock: CIFDUS_clean_linker_0, # of connection points: 2
#     Edge 31, Type (0, 1), BuildingBlock: CIFDUS_clean_linker_0, # of connection points: 2
#     Edge 32, Type (0, 1), BuildingBlock: CIFDUS_clean_linker_0, # of connection points: 2
#     Edge 33, Type (0, 1), BuildingBlock: CIFDUS_clean_linker_0, # of connection points: 2
#     Edge 34, Type (0, 1), BuildingBlock: CIFDUS_clean_linker_0, # of connection points: 2
#     Edge 35, Type (0, 1), BuildingBlock: CIFDUS_clean_linker_0, # of connection points: 2
# Relax obj value: 0.057
# Max RMSD: 0.073
# Mean RMSD: 0.069
data_MOF--net-cml--node1-IZENUY_clean_sbu_0--node2-MIDCAF_clean_linker_0--edge1-CIFDUS_clean_linker_0
_symmetry_space_group_name_H-M    P1
_symmetry_Int_Tables_number       1
_symmetry_cell_setting            triclinic
loop_
_symmetry_equiv_pos_as_xyz
'x, y, z'
_cell_length_a     38.499521
_cell_length_b     44.901747
_cell_length_c     42.095441
_cell_angle_alpha  90.123598
_cell_angle_beta   90.099078
_cell_angle_gamma 90.326955
loop_
_atom_site_label
_atom_site_type_symbol
_atom_site_fract_x
_atom_site_fract_y
_atom_site_fract_z
_atom_type_partial_charge
C0 C 0.33715 0.39781 0.12558 0.0
C1 C 0.3368 0.36915 0.13884 0.0
C2 C 0.32149 0.34563 0.12156 0.0
C3 C 0.30728 0.35071 0.09136 0.0
H4 H 0.24392 0.31615 0.01953 0.0
H5 H 0.20174 0.28262 0.99562 0.0
H6 H 0.18371 0.34606 0.92046 0.0
H7 H 0.22684 0.37961 0.94407 0.0
H8 H 0.27663 0.44264 0.94363 0.0
H9 H 0.30063 0.48825 0.91997 0.0
H10 H 0.37558 0.49423 0.99625 0.0
H11 H 0.35164 0.44988 0.01992 0.0
H12 H 0.32469 0.42516 0.08594 0.0
H13 H 0.34919 0.41631 0.13805 0.0
H14 H 0.32077 0.32333 0.13128 0.0
H15 H 0.29614 0.33214 0.07833 0.0
N16 N 0.27445 0.3659 0.02986 0.0
N17 N 0.27511 0.39668 0.98457 0.0
N18 N 0.30782 0.40947 0.02959 0.0
C19 C 0.26347 0.37165 0.99969 0.0
C20 C 0.29763 0.41561 0.99951 0.0
C21 C 0.29647 0.3849 0.04499 0.0
C22 C 0.23868 0.35081 0.98393 0.0
C23 C 0.23111 0.32307 0.99786 0.0
C24 C 0.20671 0.30381 0.9842 0.0
C25 C 0.18896 0.31173 0.9563 0.0
C26 C 0.19707 0.33914 0.94184 0.0
C27 C 0.2217 0.35845 0.95548 0.0
C28 C 0.3119 0.44264 0.98385 0.0
C29 C 0.29817 0.4538 0.95529 0.0
C30 C 0.31194 0.47989 0.94174 0.0
C31 C 0.33968 0.49521 0.9565 0.0
C32 C 0.35358 0.48363 0.98469 0.0
C33 C 0.33988 0.45788 0.99818 0.0
C34 C 0.30865 0.37929 0.07781 0.0
C35 C 0.32336 0.4028 0.09549 0.0
C36 C 0.69156 0.6203 0.62483 0.0
C37 C 0.67645 0.64839 0.6302 0.0
C38 C 0.67885 0.67001 0.60604 0.0
C39 C 0.69465 0.66328 0.57702 0.0
H40 H 0.80406 0.66918 0.52185 0.0
H41 H 0.84493 0.70306 0.49704 0.0
H42 H 0.801 0.68224 0.40495 0.0
H43 H 0.76098 0.64687 0.43002 0.0
H44 H 0.7341 0.5667 0.43853 0.0
H45 H 0.70802 0.52171 0.41535 0.0
H46 H 0.63775 0.51572 0.49503 0.0
H47 H 0.66396 0.55954 0.51833 0.0
H48 H 0.71639 0.59115 0.59157 0.0
H49 H 0.69156 0.60334 0.64306 0.0
H50 H 0.66726 0.69174 0.60886 0.0
H51 H 0.69521 0.67999 0.5585 0.0
N52 N 0.74264 0.64375 0.52372 0.0
N53 N 0.74002 0.61146 0.47963 0.0
N54 N 0.70715 0.60136 0.52533 0.0
C55 C 0.75322 0.63637 0.49395 0.0
C56 C 0.71684 0.5938 0.49538 0.0
C57 C 0.71974 0.62627 0.53948 0.0
C58 C 0.77911 0.65556 0.4779 0.0
C59 C 0.80317 0.67173 0.49627 0.0
C60 C 0.82648 0.6914 0.48201 0.0
C61 C 0.82596 0.69597 0.44897 0.0
C62 C 0.80237 0.67921 0.43042 0.0
C63 C 0.77934 0.659 0.44475 0.0
C64 C 0.70139 0.56675 0.48044 0.0
C65 C 0.71317 0.55567 0.45109 0.0
C66 C 0.69814 0.52995 0.43776 0.0
C67 C 0.67103 0.51484 0.45349 0.0
C68 C 0.65915 0.52622 0.48259 0.0
C69 C 0.67414 0.55165 0.49589 0.0
C70 C 0.70745 0.63462 0.57127 0.0
C71 C 0.70621 0.61331 0.59547 0.0
C72 C 0.66372 0.39558 0.11113 0.0
C73 C 0.67598 0.37189 0.12964 0.0
C74 C 0.70018 0.35214 0.11627 0.0
C75 C 0.71243 0.35658 0.08521 0.0
H76 H 0.76129 0.31562 0.00021 0.0
H77 H 0.80176 0.28378 0.97158 0.0
H78 H 0.83705 0.35989 0.91739 0.0
H79 H 0.79532 0.39106 0.94473 0.0
H80 H 0.72179 0.43226 0.92585 0.0
H81 H 0.69315 0.47209 0.89658 0.0
H82 H 0.63902 0.49833 0.98185 0.0
H83 H 0.66782 0.45907 0.01121 0.0
H84 H 0.66556 0.41865 0.06715 0.0
H85 H 0.64445 0.41078 0.12039 0.0
H86 H 0.71003 0.33363 0.12999 0.0
H87 H 0.73136 0.34125 0.07563 0.0
N88 N 0.7373 0.36864 0.02016 0.0
N89 N 0.73622 0.39897 0.97463 0.0
N90 N 0.70102 0.41036 0.01809 0.0
C91 C 0.74894 0.37493 0.99033 0.0
C92 C 0.71213 0.41677 0.98836 0.0
C93 C 0.71334 0.38651 0.03426 0.0
C94 C 0.77497 0.35579 0.97459 0.0
C95 C 0.77781 0.32547 0.98222 0.0
C96 C 0.80119 0.30726 0.96585 0.0
C97 C 0.82273 0.3191 0.94189 0.0
C98 C 0.82037 0.34967 0.935 0.0
C99 C 0.79658 0.36768 0.95089 0.0
C100 C 0.69696 0.44224 0.97087 0.0
C101 C 0.70408 0.44671 0.93846 0.0
C102 C 0.68756 0.46945 0.92163 0.0
C103 C 0.66375 0.4883 0.93688 0.0
C104 C 0.65752 0.48443 0.96947 0.0
C105 C 0.67388 0.46169 0.98625 0.0
C106 C 0.70046 0.38071 0.06695 0.0
C107 C 0.67576 0.39995 0.08035 0.0
C108 C 0.3533 0.62175 0.60368 0.0
C109 C 0.3442 0.64914 0.61743 0.0
C110 C 0.32057 0.66755 0.60136 0.0
C111 C 0.30606 0.65847 0.57229 0.0
H112 H 0.22746 0.67571 0.50625 0.0
H113 H 0.18456 0.7056 0.47871 0.0
H114 H 0.19982 0.65339 0.39355 0.0
H115 H 0.24199 0.62276 0.42146 0.0
H116 H 0.28858 0.562 0.42643 0.0
H117 H 0.31324 0.51634 0.40433 0.0
H118 H 0.36347 0.4986 0.49409 0.0
H119 H 0.33864 0.5435 0.51625 0.0
H120 H 0.34683 0.59145 0.56516 0.0
H121 H 0.37201 0.60731 0.61506 0.0
H122 H 0.31304 0.68877 0.61141 0.0
H123 H 0.28786 0.67307 0.5605 0.0
N124 N 0.27691 0.63756 0.51182 0.0
N125 N 0.27541 0.60213 0.47057 0.0
N126 N 0.31118 0.59481 0.51488 0.0
C127 C 0.26417 0.62834 0.48322 0.0
C128 C 0.29887 0.58516 0.48644 0.0
C129 C 0.30053 0.62091 0.52776 0.0
C130 C 0.23826 0.64675 0.46613 0.0
C131 C 0.22177 0.67056 0.48163 0.0
C132 C 0.19724 0.68789 0.46574 0.0
C133 C 0.18873 0.68206 0.4338 0.0
C134 C 0.20532 0.65829 0.41825 0.0
C135 C 0.22967 0.64079 0.43425 0.0
C136 C 0.31177 0.55664 0.47307 0.0
C137 C 0.30458 0.54819 0.44153 0.0
C138 C 0.31883 0.52209 0.42882 0.0
C139 C 0.34034 0.5038 0.44744 0.0
C140 C 0.34664 0.51188 0.47918 0.0
C141 C 0.3326 0.53791 0.4918 0.0
C142 C 0.31513 0.6309 0.55869 0.0
C143 C 0.33896 0.61274 0.57482 0.0
C144 C 0.83368 0.90192 0.11568 0.0
C145 C 0.83344 0.87347 0.12947 0.0
C146 C 0.81763 0.84977 0.11285 0.0
C147 C 0.8029 0.85442 0.0828 0.0
H148 H 0.73823 0.81815 0.01327 0.0
H149 H 0.69541 0.78439 0.99052 0.0
H150 H 0.68205 0.8437 0.91085 0.0
H151 H 0.72559 0.87744 0.9333 0.0
H152 H 0.80967 0.92388 0.92695 0.0
H153 H 0.84216 0.96561 0.90375 0.0
H154 H 0.83479 0.01331 0.99275 0.0
H155 H 0.80375 0.97147 0.01596 0.0
H156 H 0.82057 0.92869 0.07572 0.0
H157 H 0.84605 0.92056 0.12762 0.0
H158 H 0.8169 0.82763 0.12299 0.0
H159 H 0.79144 0.83567 0.07032 0.0
N160 N 0.77053 0.86763 0.02096 0.0
N161 N 0.77062 0.89715 0.97479 0.0
N162 N 0.8015 0.91254 0.02005 0.0
C163 C 0.75973 0.87224 0.99052 0.0
C164 C 0.79146 0.91742 0.98966 0.0
C165 C 0.79142 0.88774 0.03586 0.0
C166 C 0.73529 0.85075 0.9753 0.0
C167 C 0.72639 0.82405 0.99081 0.0
C168 C 0.70163 0.80468 0.97783 0.0
C169 C 0.68495 0.81146 0.94903 0.0
C170 C 0.69455 0.83769 0.93297 0.0
C171 C 0.71945 0.8571 0.94595 0.0
C172 C 0.80468 0.94429 0.97335 0.0
C173 C 0.81446 0.94358 0.94123 0.0
C174 C 0.83305 0.96749 0.92799 0.0
C175 C 0.84177 0.99256 0.94663 0.0
C176 C 0.82949 0.99401 0.978 0.0
C177 C 0.81146 0.9701 0.99126 0.0
C178 C 0.80412 0.88278 0.06869 0.0
C179 C 0.81929 0.9065 0.08571 0.0
C180 C 0.17329 0.10513 0.61603 0.0
C181 C 0.17494 0.13325 0.63063 0.0
C182 C 0.19177 0.15673 0.61471 0.0
C183 C 0.2064 0.15216 0.58464 0.0
H184 H 0.26924 0.1898 0.51555 0.0
H185 H 0.31235 0.22395 0.49418 0.0
H186 H 0.33206 0.16288 0.41693 0.0
H187 H 0.28817 0.12888 0.43788 0.0
H188 H 0.20097 0.08382 0.42785 0.0
H189 H 0.16963 0.04188 0.40352 0.0
H190 H 0.17777 0.99302 0.49156 0.0
H191 H 0.20746 0.03515 0.51593 0.0
H192 H 0.18537 0.07867 0.57547 0.0
H193 H 0.16007 0.08669 0.62746 0.0
H194 H 0.19357 0.17862 0.62548 0.0
H195 H 0.21887 0.17073 0.5728 0.0
N196 N 0.23878 0.13935 0.52306 0.0
N197 N 0.24001 0.11001 0.47666 0.0
N198 N 0.20781 0.09446 0.52094 0.0
C199 C 0.25044 0.13485 0.4929 0.0
C200 C 0.21873 0.0897 0.49077 0.0
C201 C 0.21745 0.11922 0.53722 0.0
C202 C 0.27526 0.15641 0.47857 0.0
C203 C 0.28258 0.18362 0.4939 0.0
C204 C 0.30751 0.2032 0.48174 0.0
C205 C 0.32598 0.1961 0.45399 0.0
C206 C 0.31812 0.16922 0.43819 0.0
C207 C 0.29301 0.14964 0.4503 0.0
C208 C 0.20615 0.06285 0.47386 0.0
C209 C 0.19656 0.06384 0.44168 0.0
C210 C 0.17865 0.0398 0.42778 0.0
C211 C 0.17046 0.01428 0.44579 0.0
C212 C 0.1826 0.01263 0.47726 0.0
C213 C 0.19988 0.0367 0.49118 0.0
C214 C 0.20408 0.1241 0.56981 0.0
C215 C 0.18759 0.10062 0.58603 0.0
C216 C 0.16606 0.90596 0.10772 0.0
C217 C 0.17588 0.88115 0.12586 0.0
C218 C 0.19952 0.86075 0.1128 0.0
C219 C 0.21334 0.86537 0.0824 0.0
H220 H 0.2515 0.82114 0.99861 0.0
H221 H 0.28893 0.78391 0.97488 0.0
H222 H 0.3397 0.85248 0.91952 0.0
H223 H 0.30079 0.88954 0.94221 0.0
H224 H 0.22915 0.94239 0.92466 0.0
H225 H 0.20641 0.98688 0.89853 0.0
H226 H 0.17296 0.02094 0.98945 0.0
H227 H 0.196 0.97724 0.01544 0.0
H228 H 0.17151 0.93006 0.0645 0.0
H229 H 0.14723 0.92173 0.11664 0.0
H230 H 0.20767 0.84145 0.12622 0.0
H231 H 0.23169 0.8494 0.07308 0.0
N232 N 0.23833 0.87555 0.0176 0.0
N233 N 0.24404 0.90718 0.97336 0.0
N234 N 0.21132 0.92205 0.01745 0.0
C235 C 0.25135 0.88095 0.98811 0.0
C236 C 0.22392 0.92787 0.98804 0.0
C237 C 0.21832 0.89609 0.03245 0.0
C238 C 0.27334 0.85833 0.97246 0.0
C239 C 0.27055 0.82826 0.98126 0.0
C240 C 0.29223 0.80691 0.96775 0.0
C241 C 0.3178 0.81511 0.94552 0.0
C242 C 0.32011 0.84518 0.93625 0.0
C243 C 0.29792 0.86651 0.94939 0.0
C244 C 0.21409 0.95604 0.97211 0.0
C245 C 0.21747 0.95963 0.93908 0.0
C246 C 0.20428 0.98503 0.9241 0.0
C247 C 0.18773 0.00742 0.94189 0.0
C248 C 0.18588 0.00437 0.97503 0.0
C249 C 0.19884 0.97905 0.98992 0.0
C250 C 0.20376 0.89049 0.06451 0.0
C251 C 0.17987 0.91062 0.07759 0.0
C252 C 0.84344 0.10268 0.61776 0.0
C253 C 0.83424 0.12872 0.63415 0.0
C254 C 0.81219 0.14925 0.61911 0.0
C255 C 0.79933 0.14353 0.58843 0.0
H256 H 0.72662 0.17018 0.51836 0.0
H257 H 0.68478 0.20161 0.49103 0.0
H258 H 0.70123 0.15195 0.40438 0.0
H259 H 0.74223 0.12005 0.43178 0.0
H260 H 0.78634 0.05993 0.43306 0.0
H261 H 0.81063 0.01577 0.40752 0.0
H262 H 0.86091 0.99185 0.49557 0.0
H263 H 0.8364 0.03527 0.52116 0.0
H264 H 0.83873 0.07661 0.57576 0.0
H265 H 0.86102 0.0867 0.62826 0.0
H266 H 0.80465 0.16954 0.63116 0.0
H267 H 0.78233 0.15967 0.57747 0.0
N268 N 0.77342 0.12903 0.52422 0.0
N269 N 0.77411 0.09735 0.4796 0.0
N270 N 0.80691 0.08566 0.52461 0.0
C271 C 0.76244 0.12251 0.49416 0.0
C272 C 0.79632 0.07875 0.49477 0.0
C273 C 0.7958 0.11063 0.53957 0.0
C274 C 0.73776 0.14241 0.47739 0.0
C275 C 0.7214 0.16597 0.49346 0.0
C276 C 0.6975 0.18414 0.47772 0.0
C277 C 0.68949 0.1793 0.44548 0.0
C278 C 0.70625 0.15601 0.42934 0.0
C279 C 0.72997 0.13778 0.44508 0.0
C280 C 0.8095 0.05135 0.47916 0.0
C281 C 0.80233 0.04511 0.44704 0.0
C282 C 0.81635 0.01986 0.43235 0.0
C283 C 0.83768 1.00024 0.44951 0.0
C284 C 0.84417 0.00619 0.48175 0.0
C285 C 0.83031 0.03136 0.49636 0.0
C286 C 0.80853 0.11727 0.5722 0.0
C287 C 0.83077 0.09701 0.58736 0.0
Fe288 Fe 0.01211 0.80863 0.3091 0.0
Fe289 Fe 0.00754 0.84581 0.3706 0.0
O290 O 0.00984 0.84374 0.32863 0.0
Fe291 Fe 0.00986 0.87694 0.30607 0.0
O292 O 0.97023 0.86591 0.28594 0.0
O293 O 0.98717 0.82055 0.274 0.0
O294 O 0.9713 0.79652 0.32614 0.0
C295 C 0.96445 0.79611 0.35539 0.0
C296 C 0.0581 0.84079 0.27355 0.0
O297 O 0.98231 0.81119 0.37506 0.0
C298 C 0.05308 0.89351 0.35442 0.0
O299 O 0.03728 0.7905 0.34079 0.0
O300 O 0.04849 0.82655 0.37483 0.0
O301 O 0.037 0.86225 0.27416 0.0
O302 O 0.05322 0.818 0.29042 0.0
C303 C 0.96181 0.88974 0.35512 0.0
O304 O 0.03245 0.88085 0.37367 0.0
O305 O 0.04953 0.89 0.32486 0.0
C306 C 0.05537 0.80134 0.36325 0.0
O307 O 0.96637 0.86541 0.36942 0.0
O308 O 0.98274 0.89807 0.33374 0.0
C309 C 0.96647 0.84215 0.27022 0.0
Fe310 Fe 0.00891 0.1593 0.87565 0.0
Fe311 Fe 1.00369 0.13033 0.81002 0.0
O312 O 0.00513 0.16283 0.83385 0.0
Fe313 Fe 1.0032 0.19853 0.81582 0.0
O314 O 0.04474 0.20948 0.83277 0.0
O315 O 0.03457 0.19356 0.88119 0.0
O316 O 0.04976 0.13945 0.87227 0.0
C317 C 0.05326 0.11547 0.85701 0.0
C318 C 0.96176 0.20447 0.87157 0.0
O319 O 0.03106 0.10788 0.8363 0.0
C320 C 0.95564 0.16827 0.77963 0.0
O321 O 0.98348 0.12441 0.87779 0.0
O322 O 0.96427 0.11754 0.82914 0.0
O323 O 0.97875 0.21573 0.84867 0.0
O324 O 0.96866 0.17887 0.88198 0.0
C325 C 0.0471 0.1654 0.7748 0.0
O326 O 0.97608 0.14636 0.7792 0.0
O327 O 0.96152 0.19049 0.79721 0.0
C328 C 0.96166 0.11303 0.85858 0.0
O329 O 0.04296 0.14123 0.78956 0.0
O330 O 0.02728 0.18739 0.77989 0.0
C331 C 0.0522 0.2091 0.86194 0.0
Fe332 Fe 0.51631 0.30681 0.31817 0.0
Fe333 Fe 0.51262 0.34548 0.37862 0.0
O334 O 0.51489 0.34241 0.33667 0.0
Fe335 Fe 0.5153 0.37495 0.31307 0.0
O336 O 0.4755 0.36377 0.2933 0.0
O337 O 0.49199 0.31812 0.28253 0.0
O338 O 0.47499 0.29631 0.33534 0.0
C339 C 0.46793 0.29658 0.36456 0.0
C340 C 0.56304 0.33716 0.2817 0.0
O341 O 0.48654 0.31129 0.384 0.0
C342 C 0.55879 0.39241 0.36091 0.0
O343 O 0.54079 0.28898 0.35054 0.0
O344 O 0.5531 0.32565 0.38341 0.0
O345 O 0.5424 0.35901 0.28174 0.0
O346 O 0.55775 0.31492 0.29933 0.0
C347 C 0.46748 0.3896 0.36166 0.0
O348 O 0.53842 0.38012 0.38069 0.0
O349 O 0.55496 0.38833 0.33146 0.0
C350 C 0.55922 0.29999 0.37266 0.0
O351 O 0.47185 0.36577 0.37695 0.0
O352 O 0.48846 0.39707 0.33998 0.0
C353 C 0.47142 0.33968 0.27828 0.0
Fe354 Fe 0.49722 0.66383 0.87548 0.0
Fe355 Fe 0.49971 0.62474 0.81589 0.0
O356 O 0.49951 0.66051 0.83355 0.0
Fe357 Fe 0.50175 0.69284 0.8093 0.0
O358 O 0.54159 0.70508 0.82847 0.0
O359 O 0.52386 0.69795 0.8775 0.0
O360 O 0.5371 0.64313 0.88085 0.0
C361 C 0.54227 0.6173 0.87017 0.0
C362 C 0.45381 0.70874 0.85782 0.0
O363 O 0.52305 0.60662 0.84851 0.0
C364 C 0.45683 0.65805 0.77484 0.0
O365 O 0.47004 0.63019 0.88111 0.0
O366 O 0.45791 0.61553 0.83257 0.0
O367 O 0.4747 0.71581 0.83577 0.0
O368 O 0.45742 0.68481 0.87305 0.0
C369 C 0.54788 0.65247 0.77897 0.0
O370 O 0.47643 0.63611 0.7801 0.0
O371 O 0.46202 0.6828 0.7883 0.0
C372 C 0.45123 0.61547 0.8618 0.0
O373 O 0.54142 0.63147 0.79785 0.0
O374 O 0.52917 0.67563 0.77848 0.0
C375 C 0.5453 0.7091 0.85796 0.0
H376 H 0.17558 0.29828 0.89388 0.0
H377 H 0.14 0.28028 0.98918 0.0
H378 H 0.09569 0.2465 0.96852 0.0
H379 H 0.0666 0.22224 0.92367 0.0
H380 H 0.10033 0.24108 0.82802 0.0
H381 H 0.14546 0.27449 0.84857 0.0
C382 C 0.15794 0.28718 0.91011 0.0
C383 C 0.16144 0.29171 0.9431 0.0
C384 C 0.13212 0.26789 0.89803 0.0
C385 C 0.13848 0.27684 0.96374 0.0
C386 C 0.11292 0.25761 0.95195 0.0
C387 C 0.08385 0.23355 0.90724 0.0
C388 C 0.08001 0.22906 0.87432 0.0
C389 C 0.10955 0.2529 0.91917 0.0
C390 C 0.10258 0.24412 0.85348 0.0
C391 C 0.12843 0.26325 0.86521 0.0
H392 H 0.85914 0.69332 0.39138 0.0
H393 H 0.84588 0.74994 0.47355 0.0
H394 H 0.88753 0.78543 0.45209 0.0
H395 H 0.9288 0.80016 0.41067 0.0
H396 H 0.93936 0.74569 0.32673 0.0
H397 H 0.89711 0.71008 0.34789 0.0
C398 C 0.86489 0.7136 0.40443 0.0
C399 C 0.8497 0.71849 0.4344 0.0
C400 C 0.88841 0.73443 0.39161 0.0
C401 C 0.85783 0.74496 0.45091 0.0
C402 C 0.88149 0.7655 0.43853 0.0
C403 C 0.9218 0.78051 0.39699 0.0
C404 C 0.93742 0.77545 0.36734 0.0
C405 C 0.89722 0.76032 0.40909 0.0
C406 C 0.9277 0.75012 0.34965 0.0
C407 C 0.90362 0.72969 0.36177 0.0
H408 H 0.85965 0.27146 0.96401 0.0
H409 H 0.8414 0.32291 0.87905 0.0
H410 H 0.88331 0.29281 0.85026 0.0
H411 H 0.92533 0.25171 0.84894 0.0
H412 H 0.93991 0.19794 0.9327 0.0
H413 H 0.89865 0.22863 0.96182 0.0
C414 C 0.86431 0.2759 0.93908 0.0
C415 C 0.84744 0.29979 0.92401 0.0
C416 C 0.8878 0.25796 0.92229 0.0
C417 C 0.85449 0.30525 0.89169 0.0
C418 C 0.8783 0.28785 0.87502 0.0
C419 C 0.91945 0.24674 0.87356 0.0
C420 C 0.93581 0.22268 0.88863 0.0
C421 C 0.89523 0.26422 0.8901 0.0
C422 C 0.92762 0.21628 0.92046 0.0
C423 C 0.90409 0.23388 0.93719 0.0
H424 H 0.17895 0.74209 0.43857 0.0
H425 H 0.13915 0.66366 0.39109 0.0
H426 H 0.09562 0.69374 0.36408 0.0
H427 H 0.0676 0.74204 0.35511 0.0
H428 H 0.10571 0.81997 0.40465 0.0
H429 H 0.1507 0.79021 0.43002 0.0
C430 C 0.16056 0.73146 0.42258 0.0
C431 C 0.16246 0.70056 0.41697 0.0
C432 C 0.13513 0.74879 0.40754 0.0
C433 C 0.13875 0.68741 0.39559 0.0
C434 C 0.11362 0.70457 0.38027 0.0
C435 C 0.08582 0.75257 0.37135 0.0
C436 C 0.08317 0.78323 0.37796 0.0
C437 C 0.11147 0.73526 0.38617 0.0
C438 C 0.10697 0.79641 0.39922 0.0
C439 C 0.13278 0.77941 0.41373 0.0
H440 H 0.673 0.79442 0.88745 0.0
H441 H 0.63329 0.78421 0.98267 0.0
H442 H 0.58729 0.75149 0.96305 0.0
H443 H 0.55795 0.72601 0.91905 0.0
H444 H 0.59659 0.73661 0.82349 0.0
H445 H 0.64304 0.76912 0.84305 0.0
C446 C 0.65412 0.78522 0.90387 0.0
C447 C 0.65683 0.79168 0.93655 0.0
C448 C 0.62744 0.7665 0.89239 0.0
C449 C 0.6323 0.77925 0.9575 0.0
C450 C 0.60579 0.76066 0.94628 0.0
C451 C 0.57648 0.7354 0.90242 0.0
C452 C 0.57361 0.72885 0.8698 0.0
C453 C 0.60312 0.75411 0.9138 0.0
C454 C 0.59801 0.74128 0.84871 0.0
C455 C 0.62464 0.75989 0.85988 0.0
H456 H 0.34078 0.21083 0.3925 0.0
H457 H 0.37434 0.22678 0.48898 0.0
H458 H 0.4202 0.25989 0.47004 0.0
H459 H 0.45166 0.28366 0.42611 0.0
H460 H 0.41926 0.26648 0.3295 0.0
H461 H 0.37249 0.23433 0.34851 0.0
C462 C 0.35829 0.22133 0.40939 0.0
C463 C 0.35391 0.21632 0.44215 0.0
C464 C 0.38497 0.24013 0.39833 0.0
C465 C 0.37663 0.23054 0.46367 0.0
C466 C 0.40308 0.24937 0.45285 0.0
C467 C 0.43434 0.27296 0.40918 0.0
C468 C 0.43914 0.27749 0.3764 0.0
C469 C 0.40754 0.25429 0.42024 0.0
C470 C 0.41638 0.26334 0.35486 0.0
C471 C 0.38955 0.24493 0.36571 0.0
H472 H 0.34584 0.81106 0.88571 0.0
H473 H 0.34638 0.76827 0.97758 0.0
H474 H 0.38639 0.73092 0.95788 0.0
H475 H 0.42255 0.71097 0.91539 0.0
H476 H 0.4262 0.75536 0.82464 0.0
H477 H 0.38371 0.79178 0.84333 0.0
C478 C 0.35493 0.79378 0.90157 0.0
C479 C 0.34261 0.7925 0.93307 0.0
C480 C 0.37883 0.77265 0.89034 0.0
C481 C 0.35454 0.76957 0.95303 0.0
C482 C 0.37776 0.74826 0.94188 0.0
C483 C 0.41391 0.72848 0.89957 0.0
C484 C 0.4274 0.73036 0.86861 0.0
C485 C 0.39009 0.7496 0.91064 0.0
C486 C 0.41624 0.75345 0.84861 0.0
C487 C 0.39194 0.77426 0.85928 0.0
H488 H 0.67979 0.23935 0.45106 0.0
H489 H 0.64021 0.16149 0.40239 0.0
H490 H 0.59759 0.19198 0.37477 0.0
H491 H 0.57065 0.24053 0.36512 0.0
H492 H 0.60871 0.31814 0.41526 0.0
H493 H 0.65242 0.28787 0.44183 0.0
C494 C 0.66165 0.22897 0.43465 0.0
C495 C 0.66341 0.19811 0.42882 0.0
C496 C 0.63681 0.24659 0.4191 0.0
C497 C 0.63994 0.18522 0.40703 0.0
C498 C 0.61535 0.20262 0.39134 0.0
C499 C 0.58857 0.25089 0.38176 0.0
C500 C 0.58629 0.2816 0.38815 0.0
C501 C 0.6135 0.23331 0.39721 0.0
C502 C 0.60971 0.29455 0.40993 0.0
C503 C 0.63477 0.27725 0.42515 0.0
H504 H 0.35312 0.50688 0.89403 0.0
H505 H 0.36149 0.54537 0.9878 0.0
H506 H 0.39518 0.5869 0.96661 0.0
H507 H 0.42646 0.61016 0.92223 0.0
H508 H 0.41658 0.57244 0.82817 0.0
H509 H 0.37878 0.53331 0.84863 0.0
C510 C 0.36163 0.52467 0.90974 0.0
C511 C 0.35531 0.52262 0.94256 0.0
C512 C 0.38098 0.54864 0.89739 0.0
C513 C 0.36672 0.54592 0.96253 0.0
C514 C 0.3859 0.56979 0.95043 0.0
C515 C 0.41577 0.59356 0.90614 0.0
C516 C 0.42488 0.59407 0.87382 0.0
C517 C 0.39397 0.57099 0.91803 0.0
C518 C 0.41034 0.57256 0.85325 0.0
C519 C 0.38871 0.55005 0.86492 0.0
H520 H 0.65439 0.50357 0.39132 0.0
H521 H 0.65013 0.4647 0.48497 0.0
H522 H 0.61617 0.42297 0.4644 0.0
H523 H 0.58438 0.39908 0.42065 0.0
H524 H 0.59022 0.43661 0.32651 0.0
H525 H 0.6274 0.47684 0.34634 0.0
C526 C 0.64663 0.48571 0.40713 0.0
C527 C 0.65431 0.48767 0.43979 0.0
C528 C 0.62722 0.46152 0.3951 0.0
C529 C 0.64385 0.46425 0.45988 0.0
C530 C 0.62454 0.44025 0.44813 0.0
C531 C 0.59397 0.41595 0.40442 0.0
C532 C 0.58415 0.41501 0.37226 0.0
C533 C 0.61543 0.43898 0.41593 0.0
C534 C 0.59726 0.43681 0.35144 0.0
C535 C 0.61846 0.45991 0.36277 0.0
H536 H 0.6489 0.54542 0.95409 0.0
H537 H 0.6332 0.48129 0.87882 0.0
H538 H 0.5958 0.51622 0.85082 0.0
H539 H 0.56464 0.56353 0.84932 0.0
H540 H 0.57934 0.62765 0.92481 0.0
H541 H 0.6199 0.59407 0.95117 0.0
C542 C 0.63731 0.53913 0.93153 0.0
C543 C 0.64373 0.51073 0.91865 0.0
C544 C 0.61545 0.5592 0.91572 0.0
C545 C 0.629 0.50309 0.88913 0.0
C546 C 0.60737 0.52297 0.87322 0.0
C547 C 0.57675 0.57025 0.87151 0.0
C548 C 0.56859 0.59794 0.88524 0.0
C549 C 0.59997 0.55086 0.88654 0.0
C550 C 0.58497 0.60641 0.91377 0.0
C551 C 0.60815 0.5872 0.9289 0.0
H552 H 0.37148 0.49965 0.38973 0.0
H553 H 0.34977 0.44888 0.47434 0.0
H554 H 0.3854 0.40801 0.45447 0.0
H555 H 0.42633 0.38829 0.41474 0.0
H556 H 0.44787 0.43977 0.33041 0.0
H557 H 0.40827 0.47835 0.34826 0.0
C558 C 0.37389 0.4794 0.40354 0.0
C559 C 0.35815 0.47747 0.43358 0.0
C560 C 0.39464 0.4561 0.3921 0.0
C561 C 0.36203 0.45116 0.45133 0.0
C562 C 0.38234 0.42774 0.43995 0.0
C563 C 0.42206 0.40778 0.4001 0.0
C564 C 0.44048 0.4112 0.37146 0.0
C565 C 0.3994 0.43021 0.41066 0.0
C566 C 0.43445 0.43662 0.35276 0.0
C567 C 0.41175 0.45877 0.36292 0.0
H568 H 0.84402 0.0177 0.88726 0.0
H569 H 0.89437 0.01991 0.979 0.0
H570 H 0.93439 0.05809 0.96038 0.0
H571 H 0.95634 0.09002 0.91801 0.0
H572 H 0.90808 0.0871 0.82541 0.0
H573 H 0.86636 0.04998 0.84437 0.0
C574 C 0.86384 0.02645 0.90311 0.0
C575 C 0.86579 0.01608 0.93461 0.0
C576 C 0.8873 0.04826 0.89211 0.0
C577 C 0.89161 0.02787 0.95486 0.0
C578 C 0.91478 0.04959 0.94418 0.0
C579 C 0.93663 0.08141 0.90195 0.0
C580 C 0.93548 0.09134 0.87032 0.0
C581 C 0.91293 0.05991 0.91288 0.0
C582 C 0.90972 0.07979 0.84988 0.0
C583 C 0.88581 0.05854 0.86069 0.0
H584 H 0.16841 0.99053 0.38555 0.0
H585 H 0.11897 0.98493 0.47741 0.0
H586 H 0.08002 0.94634 0.45774 0.0
H587 H 0.05863 0.91504 0.4145 0.0
H588 H 0.10544 0.92149 0.32165 0.0
H589 H 0.14639 0.95897 0.34162 0.0
C590 C 0.14902 0.98096 0.40121 0.0
C591 C 0.14708 0.99049 0.43307 0.0
C592 C 0.12606 0.95894 0.38958 0.0
C593 C 0.12181 0.97763 0.45302 0.0
C594 C 0.09922 0.95567 0.44173 0.0
C595 C 0.07787 0.92448 0.39858 0.0
C596 C 0.07886 0.91543 0.36661 0.0
C597 C 0.10104 0.9462 0.41009 0.0
C598 C 0.10396 0.92809 0.34637 0.0
C599 C 0.12742 0.94955 0.35778 0.0
H600 H 0.14773 0.00536 0.88869 0.0
H601 H 0.18656 0.06605 0.96017 0.0
H602 H 0.14977 0.10557 0.93912 0.0
H603 H 0.10308 0.12163 0.90306 0.0
H604 H 0.06469 0.06047 0.83165 0.0
H605 H 0.10523 0.02272 0.84972 0.0
C606 C 0.14882 0.02742 0.89922 0.0
C607 C 0.16969 0.03262 0.92613 0.0
C608 C 0.1274 0.04996 0.88718 0.0
C609 C 0.17033 0.06129 0.93971 0.0
C610 C 0.14933 0.08393 0.92767 0.0
C611 C 0.10378 0.10014 0.89126 0.0
C612 C 0.08044 0.09386 0.86632 0.0
C613 C 0.12711 0.0783 0.90188 0.0
C614 C 0.08203 0.06594 0.85113 0.0
C615 C 0.10524 0.04424 0.86143 0.0
H616 H 0.8683 0.99924 0.39136 0.0
H617 H 0.84626 0.94368 0.47243 0.0
H618 H 0.88077 0.90358 0.4494 0.0
H619 H 0.92085 0.88574 0.40808 0.0
H620 H 0.9428 0.94187 0.32728 0.0
H621 H 0.90416 0.97991 0.34809 0.0
C622 C 0.8704 0.97815 0.40371 0.0
C623 C 0.85493 0.97461 0.43371 0.0
C624 C 0.89047 0.95526 0.39045 0.0
C625 C 0.85836 0.9472 0.44953 0.0
C626 C 0.87802 0.92421 0.43634 0.0
C627 C 0.91687 0.90613 0.39483 0.0
C628 C 0.93512 0.91101 0.36634 0.0
C629 C 0.89482 0.92821 0.40711 0.0
C630 C 0.92946 0.93757 0.34946 0.0
C631 C 0.90734 0.95942 0.36133 0.0
H632 H 0.38121 0.32445 0.15409 0.0
H633 H 0.3324 0.40284 0.19265 0.0
H634 H 0.36852 0.39956 0.24021 0.0
H635 H 0.41735 0.37712 0.26858 0.0
H636 H 0.46639 0.29866 0.23028 0.0
H637 H 0.42643 0.29903 0.18515 0.0
C638 C 0.37794 0.34039 0.17323 0.0
C639 C 0.35445 0.36404 0.1697 0.0
C640 C 0.39906 0.33856 0.20041 0.0
C641 C 0.3507 0.38469 0.19461 0.0
C642 C 0.37133 0.38284 0.2218 0.0
C643 C 0.41919 0.35998 0.25047 0.0
C644 C 0.44517 0.33818 0.25258 0.0
C645 C 0.39624 0.36036 0.22455 0.0
C646 C 0.44678 0.31583 0.22917 0.0
C647 C 0.42397 0.31604 0.2033 0.0
H648 H 0.63861 0.60857 0.66488 0.0
H649 H 0.66791 0.70162 0.66246 0.0
H650 H 0.63041 0.71134 0.70793 0.0
H651 H 0.58784 0.69343 0.7478 0.0
H652 H 0.5643 0.59944 0.75251 0.0
H653 H 0.60212 0.59004 0.70738 0.0
C654 C 0.63784 0.63091 0.67461 0.0
C655 C 0.6562 0.65426 0.6598 0.0
C656 C 0.61721 0.63622 0.70137 0.0
C657 C 0.65361 0.68317 0.67268 0.0
C658 C 0.63234 0.68877 0.69893 0.0
C659 C 0.59128 0.67092 0.73899 0.0
C660 C 0.5732 0.64721 0.75333 0.0
C661 C 0.61369 0.6655 0.71327 0.0
C662 C 0.57807 0.61807 0.74199 0.0
C663 C 0.59956 0.61266 0.71607 0.0
H664 H 0.65426 0.32073 0.15922 0.0
H665 H 0.66819 0.41519 0.17416 0.0
H666 H 0.63716 0.41201 0.22439 0.0
H667 H 0.60027 0.38378 0.26075 0.0
H668 H 0.58649 0.28927 0.24751 0.0
H669 H 0.62386 0.29088 0.20035 0.0
C670 C 0.65118 0.34045 0.17385 0.0
C671 C 0.6628 0.36829 0.16259 0.0
C672 C 0.63313 0.33849 0.20288 0.0
C673 C 0.6587 0.39364 0.18188 0.0
C674 C 0.64104 0.39185 0.21066 0.0
C675 C 0.60594 0.36346 0.24779 0.0
C676 C 0.5904 0.33655 0.25721 0.0
C677 C 0.62716 0.36462 0.22082 0.0
C678 C 0.59824 0.31026 0.24063 0.0
C679 C 0.61938 0.31123 0.21356 0.0
H680 H 0.35337 0.61468 0.66929 0.0
H681 H 0.37078 0.70379 0.63462 0.0
H682 H 0.40404 0.71596 0.68267 0.0
H683 H 0.43381 0.69915 0.7318 0.0
H684 H 0.4191 0.60856 0.76324 0.0
H685 H 0.37936 0.59904 0.71923 0.0
C686 C 0.36438 0.63681 0.67226 0.0
C687 C 0.3601 0.65813 0.64821 0.0
C688 C 0.38424 0.64329 0.69931 0.0
C689 C 0.37369 0.68696 0.6528 0.0
C690 C 0.39294 0.69385 0.68016 0.0
C691 C 0.42138 0.67755 0.72921 0.0
C692 C 0.42953 0.6545 0.75049 0.0
C693 C 0.3992 0.67192 0.7032 0.0
C694 C 0.41348 0.62652 0.74688 0.0
C695 C 0.39076 0.62105 0.72176 0.0
H696 H 0.87698 0.82826 0.14531 0.0
H697 H 0.83068 0.9083 0.18261 0.0
H698 H 0.86647 0.90469 0.23035 0.0
H699 H 0.91396 0.88106 0.25951 0.0
H700 H 0.9605 0.80096 0.22243 0.0
H701 H 0.92114 0.80207 0.1769 0.0
C702 C 0.8742 0.84454 0.16419 0.0
C703 C 0.85146 0.86868 0.16025 0.0
C704 C 0.89509 0.84246 0.19151 0.0
C705 C 0.8484 0.88977 0.18483 0.0
C706 C 0.86882 0.8877 0.21215 0.0
C707 C 0.91539 0.86372 0.24158 0.0
C708 C 0.94049 0.8412 0.24421 0.0
C709 C 0.89283 0.86456 0.21538 0.0
C710 C 0.94159 0.81867 0.22096 0.0
C711 C 0.91912 0.81931 0.19485 0.0
H712 H 0.13351 0.17938 0.6484 0.0
H713 H 0.17754 0.0973 0.68265 0.0
H714 H 0.14339 0.10111 0.73126 0.0
H715 H 0.09794 0.12557 0.76204 0.0
H716 H 0.05329 0.20756 0.7281 0.0
H717 H 0.09127 0.20625 0.68165 0.0
C718 C 0.13613 0.16266 0.66679 0.0
C719 C 0.15774 0.13792 0.66177 0.0
C720 C 0.11616 0.16486 0.69463 0.0
C721 C 0.16064 0.1163 0.68572 0.0
C722 C 0.14119 0.11849 0.71354 0.0
C723 C 0.09662 0.14329 0.74461 0.0
C724 C 0.07245 0.16641 0.74837 0.0
C725 C 0.11828 0.14228 0.71789 0.0
C726 C 0.07151 0.1894 0.72575 0.0
C727 C 0.09316 0.18863 0.69912 0.0
H728 H 0.15288 0.82922 0.15289 0.0
H729 H 0.16489 0.9234 0.17122 0.0
H730 H 0.13179 0.91847 0.22016 0.0
H731 H 0.09445 0.88867 0.25471 0.0
H732 H 0.08326 0.79434 0.23826 0.0
H733 H 0.12183 0.79788 0.19205 0.0
C734 C 0.14892 0.84853 0.16794 0.0
C735 C 0.16063 0.87678 0.15795 0.0
C736 C 0.12992 0.84554 0.19629 0.0
C737 C 0.15528 0.90155 0.17783 0.0
C738 C 0.13651 0.89876 0.20592 0.0
C739 C 0.10089 0.86882 0.24122 0.0
C740 C 0.0858 0.84139 0.24945 0.0
C741 C 0.12283 0.87108 0.21484 0.0
C742 C 0.09465 0.81571 0.23226 0.0
C743 C 0.11648 0.81778 0.20575 0.0
H744 H 0.86098 0.18062 0.6588 0.0
H745 H 0.83988 0.08875 0.68232 0.0
H746 H 0.87316 0.09394 0.73126 0.0
H747 H 0.91401 0.12254 0.76392 0.0
H748 H 0.93442 0.21473 0.74241 0.0
H749 H 0.89506 0.21173 0.69651 0.0
C750 C 0.86297 0.16198 0.67502 0.0
C751 C 0.84871 0.13411 0.66647 0.0
C752 C 0.88222 0.16511 0.70334 0.0
C753 C 0.85144 0.1102 0.68786 0.0
C754 C 0.87037 0.11314 0.71592 0.0
C755 C 0.9093 0.1421 0.74946 0.0
C756 C 0.92724 0.16868 0.75613 0.0
C757 C 0.88685 0.14015 0.72331 0.0
C758 C 0.92075 0.19404 0.73763 0.0
C759 C 0.89848 0.19224 0.7113 0.0
loop_
_geom_bond_atom_site_label_1
_geom_bond_atom_site_label_2
_geom_bond_distance
_geom_bond_site_symmetry_2
_ccdc_geom_bond_type
C0 C1 1.384 . S
C0 H13 0.947 . S
C0 C35 1.382 . S
C1 C0 1.384 . S
C1 C2 1.378 . S
C2 C1 1.378 . S
C2 C3 1.378 . S
C2 H14 0.952 . S
C3 C2 1.378 . S
C3 H15 0.950 . S
C3 C34 1.383 . S
H4 C23 0.947 1_554 S
H5 C24 0.939 1_554 S
H6 C26 0.953 . S
H7 C27 0.945 . S
H8 C29 0.952 . S
H9 C30 0.949 . S
H10 C32 0.950 . S
H11 C33 0.948 1_554 S
H12 C35 0.951 . S
H13 C0 0.947 . S
H14 C2 0.952 . S
H15 C3 0.950 . S
N16 C19 1.382 1_554 S
N16 C21 1.363 . S
N17 C19 1.371 . S
N17 C20 1.372 . S
N18 C20 1.361 1_554 S
N18 C21 1.377 . S
C19 N16 1.382 1_556 S
C19 N17 1.371 . S
C19 C22 1.480 . S
C20 N17 1.372 . S
C20 N18 1.361 1_556 S
C20 C28 1.457 . S
C21 N16 1.363 . S
C21 N18 1.377 . S
C21 C34 1.479 . S
C22 C19 1.480 . S
C22 C23 1.383 . S
C22 C27 1.385 . S
C23 H4 0.947 1_556 S
C23 C22 1.383 . S
C23 C24 1.388 . S
C24 H5 0.939 1_556 S
C24 C23 1.388 . S
C24 C25 1.384 . S
C25 C24 1.384 . S
C25 C26 1.377 . S
C26 H6 0.953 . S
C26 C25 1.377 . S
C26 C27 1.369 . S
C27 H7 0.945 . S
C27 C22 1.385 . S
C27 C26 1.369 . S
C28 C20 1.457 . S
C28 C29 1.372 . S
C28 C33 1.364 . S
C29 H8 0.952 . S
C29 C28 1.372 . S
C29 C30 1.389 . S
C30 H9 0.949 . S
C30 C29 1.389 . S
C30 C31 1.387 . S
C31 C30 1.387 . S
C31 C32 1.372 . S
C32 H10 0.950 . S
C32 C31 1.372 . S
C32 C33 1.379 . S
C33 H11 0.948 1_556 S
C33 C28 1.364 . S
C33 C32 1.379 . S
C34 C3 1.383 . S
C34 C21 1.479 . S
C34 C35 1.398 . S
C35 C0 1.382 . S
C35 H12 0.951 . S
C35 C34 1.398 . S
C36 C37 1.384 . S
C36 H49 0.947 . S
C36 C71 1.382 . S
C37 C36 1.384 . S
C37 C38 1.378 . S
C38 C37 1.378 . S
C38 C39 1.378 . S
C38 H50 0.952 . S
C39 C38 1.378 . S
C39 H51 0.950 . S
C39 C70 1.383 . S
H40 C59 0.947 . S
H41 C60 0.946 . S
H42 C62 0.953 . S
H43 C63 0.945 . S
H44 C65 0.952 . S
H45 C66 0.949 . S
H46 C68 0.950 . S
H47 C69 0.948 . S
H48 C71 0.951 . S
H49 C36 0.947 . S
H50 C38 0.952 . S
H51 C39 0.950 . S
N52 C55 1.382 . S
N52 C57 1.363 . S
N53 C55 1.371 . S
N53 C56 1.372 . S
N54 C56 1.361 . S
N54 C57 1.377 . S
C55 N52 1.382 . S
C55 N53 1.371 . S
C55 C58 1.480 . S
C56 N53 1.372 . S
C56 N54 1.361 . S
C56 C64 1.457 . S
C57 N52 1.363 . S
C57 N54 1.377 . S
C57 C70 1.479 . S
C58 C55 1.480 . S
C58 C59 1.383 . S
C58 C63 1.385 . S
C59 H40 0.947 . S
C59 C58 1.383 . S
C59 C60 1.388 . S
C60 H41 0.946 . S
C60 C59 1.388 . S
C60 C61 1.384 . S
C61 C60 1.384 . S
C61 C62 1.377 . S
C62 H42 0.953 . S
C62 C61 1.377 . S
C62 C63 1.369 . S
C63 H43 0.945 . S
C63 C58 1.385 . S
C63 C62 1.369 . S
C64 C56 1.457 . S
C64 C65 1.372 . S
C64 C69 1.364 . S
C65 H44 0.952 . S
C65 C64 1.372 . S
C65 C66 1.389 . S
C66 H45 0.949 . S
C66 C65 1.389 . S
C66 C67 1.387 . S
C67 C66 1.387 . S
C67 C68 1.372 . S
C68 H46 0.950 . S
C68 C67 1.372 . S
C68 C69 1.379 . S
C69 H47 0.948 . S
C69 C64 1.364 . S
C69 C68 1.379 . S
C70 C39 1.383 . S
C70 C57 1.479 . S
C70 C71 1.398 . S
C71 C36 1.382 . S
C71 H48 0.951 . S
C71 C70 1.398 . S
C72 C73 1.384 . S
C72 H85 0.947 . S
C72 C107 1.382 . S
C73 C72 1.384 . S
C73 C74 1.378 . S
C74 C73 1.378 . S
C74 C75 1.378 . S
C74 H86 0.952 . S
C75 C74 1.378 . S
C75 H87 0.950 . S
C75 C106 1.383 . S
H76 C95 0.929 1_554 S
H77 C96 0.946 . S
H78 C98 0.953 . S
H79 C99 0.945 . S
H80 C101 0.952 . S
H81 C102 0.949 . S
H82 C104 0.950 . S
H83 C105 0.948 1_554 S
H84 C107 0.951 . S
H85 C72 0.947 . S
H86 C74 0.952 . S
H87 C75 0.950 . S
N88 C91 1.382 1_554 S
N88 C93 1.363 . S
N89 C91 1.371 . S
N89 C92 1.372 . S
N90 C92 1.361 1_554 S
N90 C93 1.377 . S
C91 N88 1.382 1_556 S
C91 N89 1.371 . S
C91 C94 1.480 . S
C92 N89 1.372 . S
C92 N90 1.361 1_556 S
C92 C100 1.457 . S
C93 N88 1.363 . S
C93 N90 1.377 . S
C93 C106 1.479 . S
C94 C91 1.480 . S
C94 C95 1.393 . S
C94 C99 1.385 . S
C95 H76 0.929 1_556 S
C95 C94 1.393 . S
C95 C96 1.397 . S
C96 H77 0.946 . S
C96 C95 1.397 . S
C96 C97 1.384 . S
C97 C96 1.384 . S
C97 C98 1.377 . S
C98 H78 0.953 . S
C98 C97 1.377 . S
C98 C99 1.369 . S
C99 H79 0.945 . S
C99 C94 1.385 . S
C99 C98 1.369 . S
C100 C92 1.457 . S
C100 C101 1.372 . S
C100 C105 1.364 . S
C101 H80 0.952 . S
C101 C100 1.372 . S
C101 C102 1.389 . S
C102 H81 0.949 . S
C102 C101 1.389 . S
C102 C103 1.387 . S
C103 C102 1.387 . S
C103 C104 1.372 . S
C104 H82 0.950 . S
C104 C103 1.372 . S
C104 C105 1.379 . S
C105 H83 0.948 1_556 S
C105 C100 1.364 . S
C105 C104 1.379 . S
C106 C75 1.383 . S
C106 C93 1.479 . S
C106 C107 1.398 . S
C107 C72 1.382 . S
C107 H84 0.951 . S
C107 C106 1.398 . S
C108 C109 1.384 . S
C108 H121 0.947 . S
C108 C143 1.382 . S
C109 C108 1.384 . S
C109 C110 1.378 . S
C110 C109 1.378 . S
C110 C111 1.378 . S
C110 H122 0.952 . S
C111 C110 1.378 . S
C111 H123 0.950 . S
C111 C142 1.383 . S
H112 C131 0.947 . S
H113 C132 0.946 . S
H114 C134 0.953 . S
H115 C135 0.945 . S
H116 C137 0.952 . S
H117 C138 0.949 . S
H118 C140 0.950 . S
H119 C141 0.948 . S
H120 C143 0.951 . S
H121 C108 0.947 . S
H122 C110 0.952 . S
H123 C111 0.950 . S
N124 C127 1.382 . S
N124 C129 1.363 . S
N125 C127 1.371 . S
N125 C128 1.372 . S
N126 C128 1.361 . S
N126 C129 1.377 . S
C127 N124 1.382 . S
C127 N125 1.371 . S
C127 C130 1.480 . S
C128 N125 1.372 . S
C128 N126 1.361 . S
C128 C136 1.457 . S
C129 N124 1.363 . S
C129 N126 1.377 . S
C129 C142 1.479 . S
C130 C127 1.480 . S
C130 C131 1.383 . S
C130 C135 1.385 . S
C131 H112 0.947 . S
C131 C130 1.383 . S
C131 C132 1.388 . S
C132 H113 0.946 . S
C132 C131 1.388 . S
C132 C133 1.384 . S
C133 C132 1.384 . S
C133 C134 1.377 . S
C134 H114 0.953 . S
C134 C133 1.377 . S
C134 C135 1.369 . S
C135 H115 0.945 . S
C135 C130 1.385 . S
C135 C134 1.369 . S
C136 C128 1.457 . S
C136 C137 1.372 . S
C136 C141 1.364 . S
C137 H116 0.952 . S
C137 C136 1.372 . S
C137 C138 1.389 . S
C138 H117 0.949 . S
C138 C137 1.389 . S
C138 C139 1.387 . S
C139 C138 1.387 . S
C139 C140 1.372 . S
C140 H118 0.950 . S
C140 C139 1.372 . S
C140 C141 1.379 . S
C141 H119 0.948 . S
C141 C136 1.364 . S
C141 C140 1.379 . S
C142 C111 1.383 . S
C142 C129 1.479 . S
C142 C143 1.398 . S
C143 C108 1.382 . S
C143 H120 0.951 . S
C143 C142 1.398 . S
C144 C145 1.384 . S
C144 H157 0.947 . S
C144 C179 1.382 . S
C145 C144 1.384 . S
C145 C146 1.378 . S
C146 C145 1.378 . S
C146 C147 1.378 . S
C146 H158 0.952 . S
C147 C146 1.378 . S
C147 H159 0.950 . S
C147 C178 1.383 . S
H148 C167 0.947 1_554 S
H149 C168 0.939 1_554 S
H150 C170 0.953 . S
H151 C171 0.945 . S
H152 C173 0.952 . S
H153 C174 0.949 . S
H154 C176 0.950 . S
H155 C177 0.948 1_554 S
H156 C179 0.951 . S
H157 C144 0.947 . S
H158 C146 0.952 . S
H159 C147 0.950 . S
N160 C163 1.382 1_554 S
N160 C165 1.363 . S
N161 C163 1.371 . S
N161 C164 1.372 . S
N162 C164 1.361 1_554 S
N162 C165 1.377 . S
C163 N160 1.382 1_556 S
C163 N161 1.371 . S
C163 C166 1.480 . S
C164 N161 1.372 . S
C164 N162 1.361 1_556 S
C164 C172 1.457 . S
C165 N160 1.363 . S
C165 N162 1.377 . S
C165 C178 1.479 . S
C166 C163 1.480 . S
C166 C167 1.383 . S
C166 C171 1.385 . S
C167 H148 0.947 1_556 S
C167 C166 1.383 . S
C167 C168 1.388 . S
C168 H149 0.939 1_556 S
C168 C167 1.388 . S
C168 C169 1.384 . S
C169 C168 1.384 . S
C169 C170 1.377 . S
C170 H150 0.953 . S
C170 C169 1.377 . S
C170 C171 1.369 . S
C171 H151 0.945 . S
C171 C166 1.385 . S
C171 C170 1.369 . S
C172 C164 1.457 . S
C172 C173 1.372 . S
C172 C177 1.364 . S
C173 H152 0.952 . S
C173 C172 1.372 . S
C173 C174 1.389 . S
C174 H153 0.949 . S
C174 C173 1.389 . S
C174 C175 1.387 . S
C175 C174 1.387 . S
C175 C176 1.372 . S
C176 H154 0.950 . S
C176 C175 1.372 . S
C176 C177 1.379 . S
C177 H155 0.948 1_556 S
C177 C172 1.364 . S
C177 C176 1.379 . S
C178 C147 1.383 . S
C178 C165 1.479 . S
C178 C179 1.398 . S
C179 C144 1.382 . S
C179 H156 0.951 . S
C179 C178 1.398 . S
C180 C181 1.384 . S
C180 H193 0.947 . S
C180 C215 1.382 . S
C181 C180 1.384 . S
C181 C182 1.378 . S
C182 C181 1.378 . S
C182 C183 1.378 . S
C182 H194 0.952 . S
C183 C182 1.378 . S
C183 H195 0.950 . S
C183 C214 1.383 . S
H184 C203 0.947 . S
H185 C204 0.946 . S
H186 C206 0.953 . S
H187 C207 0.945 . S
H188 C209 0.952 . S
H189 C210 0.949 . S
H190 C212 0.950 . S
H191 C213 0.948 . S
H192 C215 0.951 . S
H193 C180 0.947 . S
H194 C182 0.952 . S
H195 C183 0.950 . S
N196 C199 1.382 . S
N196 C201 1.363 . S
N197 C199 1.371 . S
N197 C200 1.372 . S
N198 C200 1.361 . S
N198 C201 1.377 . S
C199 N196 1.382 . S
C199 N197 1.371 . S
C199 C202 1.480 . S
C200 N197 1.372 . S
C200 N198 1.361 . S
C200 C208 1.457 . S
C201 N196 1.363 . S
C201 N198 1.377 . S
C201 C214 1.479 . S
C202 C199 1.480 . S
C202 C203 1.383 . S
C202 C207 1.385 . S
C203 H184 0.947 . S
C203 C202 1.383 . S
C203 C204 1.388 . S
C204 H185 0.946 . S
C204 C203 1.388 . S
C204 C205 1.384 . S
C205 C204 1.384 . S
C205 C206 1.377 . S
C206 H186 0.953 . S
C206 C205 1.377 . S
C206 C207 1.369 . S
C207 H187 0.945 . S
C207 C202 1.385 . S
C207 C206 1.369 . S
C208 C200 1.457 . S
C208 C209 1.372 . S
C208 C213 1.364 . S
C209 H188 0.952 . S
C209 C208 1.372 . S
C209 C210 1.389 . S
C210 H189 0.949 . S
C210 C209 1.389 . S
C210 C211 1.387 . S
C211 C210 1.387 . S
C211 C212 1.372 . S
C212 H190 0.950 . S
C212 C211 1.372 . S
C212 C213 1.379 . S
C213 H191 0.948 . S
C213 C208 1.364 . S
C213 C212 1.379 . S
C214 C183 1.383 . S
C214 C201 1.479 . S
C214 C215 1.398 . S
C215 C180 1.382 . S
C215 H192 0.951 . S
C215 C214 1.398 . S
C216 C217 1.384 . S
C216 H229 0.947 . S
C216 C251 1.382 . S
C217 C216 1.384 . S
C217 C218 1.378 . S
C218 C217 1.378 . S
C218 C219 1.378 . S
C218 H230 0.952 . S
C219 C218 1.378 . S
C219 H231 0.950 . S
C219 C250 1.383 . S
H220 C239 0.929 1_554 S
H221 C240 0.946 . S
H222 C242 0.953 . S
H223 C243 0.945 . S
H224 C245 0.952 . S
H225 C246 0.949 . S
H226 C248 0.950 1_545 S
H227 C249 0.948 1_554 S
H228 C251 0.951 . S
H229 C216 0.947 . S
H230 C218 0.952 . S
H231 C219 0.950 . S
N232 C235 1.382 1_554 S
N232 C237 1.363 . S
N233 C235 1.371 . S
N233 C236 1.372 . S
N234 C236 1.361 1_554 S
N234 C237 1.377 . S
C235 N232 1.382 1_556 S
C235 N233 1.371 . S
C235 C238 1.480 . S
C236 N233 1.372 . S
C236 N234 1.361 1_556 S
C236 C244 1.457 . S
C237 N232 1.363 . S
C237 N234 1.377 . S
C237 C250 1.479 . S
C238 C235 1.480 . S
C238 C239 1.393 . S
C238 C243 1.385 . S
C239 H220 0.929 1_556 S
C239 C238 1.393 . S
C239 C240 1.397 . S
C240 H221 0.946 . S
C240 C239 1.397 . S
C240 C241 1.384 . S
C241 C240 1.384 . S
C241 C242 1.377 . S
C242 H222 0.953 . S
C242 C241 1.377 . S
C242 C243 1.369 . S
C243 H223 0.945 . S
C243 C238 1.385 . S
C243 C242 1.369 . S
C244 C236 1.457 . S
C244 C245 1.372 . S
C244 C249 1.364 . S
C245 H224 0.952 . S
C245 C244 1.372 . S
C245 C246 1.389 . S
C246 H225 0.949 . S
C246 C245 1.389 . S
C246 C247 1.387 . S
C247 C246 1.387 . S
C247 C248 1.372 . S
C248 H226 0.950 1_565 S
C248 C247 1.372 . S
C248 C249 1.379 . S
C249 H227 0.948 1_556 S
C249 C244 1.364 . S
C249 C248 1.379 . S
C250 C219 1.383 . S
C250 C237 1.479 . S
C250 C251 1.398 . S
C251 C216 1.382 . S
C251 H228 0.951 . S
C251 C250 1.398 . S
C252 C253 1.384 . S
C252 H265 0.947 . S
C252 C287 1.382 . S
C253 C252 1.384 . S
C253 C254 1.378 . S
C254 C253 1.378 . S
C254 C255 1.378 . S
C254 H266 0.952 . S
C255 C254 1.378 . S
C255 H267 0.950 . S
C255 C286 1.383 . S
H256 C275 0.947 . S
H257 C276 0.946 . S
H258 C278 0.953 . S
H259 C279 0.945 . S
H260 C281 0.952 . S
H261 C282 0.949 . S
H262 C284 0.950 1_565 S
H263 C285 0.948 . S
H264 C287 0.951 . S
H265 C252 0.947 . S
H266 C254 0.952 . S
H267 C255 0.950 . S
N268 C271 1.382 . S
N268 C273 1.363 . S
N269 C271 1.371 . S
N269 C272 1.372 . S
N270 C272 1.361 . S
N270 C273 1.377 . S
C271 N268 1.382 . S
C271 N269 1.371 . S
C271 C274 1.480 . S
C272 N269 1.372 . S
C272 N270 1.361 . S
C272 C280 1.457 . S
C273 N268 1.363 . S
C273 N270 1.377 . S
C273 C286 1.479 . S
C274 C271 1.480 . S
C274 C275 1.383 . S
C274 C279 1.385 . S
C275 H256 0.947 . S
C275 C274 1.383 . S
C275 C276 1.388 . S
C276 H257 0.946 . S
C276 C275 1.388 . S
C276 C277 1.384 . S
C277 C276 1.384 . S
C277 C278 1.377 . S
C278 H258 0.953 . S
C278 C277 1.377 . S
C278 C279 1.369 . S
C279 H259 0.945 . S
C279 C274 1.385 . S
C279 C278 1.369 . S
C280 C272 1.457 . S
C280 C281 1.372 . S
C280 C285 1.364 . S
C281 H260 0.952 . S
C281 C280 1.372 . S
C281 C282 1.389 . S
C282 H261 0.949 . S
C282 C281 1.389 . S
C282 C283 1.387 . S
C283 C282 1.387 . S
C283 C284 1.372 . S
C284 H262 0.950 1_545 S
C284 C283 1.372 . S
C284 C285 1.379 . S
C285 H263 0.948 . S
C285 C280 1.364 . S
C285 C284 1.379 . S
C286 C255 1.383 . S
C286 C273 1.479 . S
C286 C287 1.398 . S
C287 C252 1.382 . S
C287 H264 0.951 . S
C287 C286 1.398 . S
Fe288 O290 1.918 . S
Fe288 O293 1.997 1_455 S
Fe288 O294 2.002 1_455 S
Fe288 O299 1.976 . S
Fe288 O302 1.996 . S
Fe289 O290 1.918 . S
Fe289 O297 1.997 1_455 S
Fe289 O300 1.996 . S
Fe289 O304 1.976 . S
Fe289 O307 2.002 1_455 S
O290 Fe288 1.918 . S
O290 Fe289 1.918 . S
O290 Fe291 1.918 . S
Fe291 O290 1.918 . S
Fe291 O292 2.002 1_455 S
Fe291 O301 1.976 . S
Fe291 O305 1.996 . S
Fe291 O308 1.997 1_455 S
O292 Fe291 2.002 1_655 S
O292 C309 1.295 . S
O293 Fe288 1.997 1_655 S
O293 C309 1.235 . S
O294 Fe288 2.002 1_655 S
O294 C295 1.295 . S
C295 O294 1.295 . S
C295 O297 1.235 . S
C296 O301 1.287 . S
C296 O302 1.255 . S
O297 Fe289 1.997 1_655 S
O297 C295 1.235 . S
C298 O304 1.287 . S
C298 O305 1.255 . S
O299 Fe288 1.976 . S
O299 C306 1.287 . S
O300 Fe289 1.996 . S
O300 C306 1.255 . S
O301 Fe291 1.976 . S
O301 C296 1.287 . S
O302 Fe288 1.996 . S
O302 C296 1.255 . S
C303 O307 1.295 . S
C303 O308 1.235 . S
O304 Fe289 1.976 . S
O304 C298 1.287 . S
O305 Fe291 1.996 . S
O305 C298 1.255 . S
C306 O299 1.287 . S
C306 O300 1.255 . S
O307 Fe289 2.002 1_655 S
O307 C303 1.295 . S
O308 Fe291 1.997 1_655 S
O308 C303 1.235 . S
C309 O292 1.295 . S
C309 O293 1.235 . S
Fe310 O312 1.919 . S
Fe310 O315 1.973 1_655 S
Fe310 O316 1.978 1_655 S
Fe310 O321 2.000 . S
Fe310 O324 2.019 . S
Fe311 O312 1.919 . S
Fe311 O319 1.973 1_655 S
Fe311 O322 2.019 . S
Fe311 O326 2.000 . S
Fe311 O329 1.979 1_655 S
O312 Fe310 1.919 . S
O312 Fe311 1.919 . S
O312 Fe313 1.919 . S
Fe313 O312 1.919 . S
Fe313 O314 1.979 1_655 S
Fe313 O323 1.999 . S
Fe313 O327 2.019 . S
Fe313 O330 1.974 1_655 S
O314 Fe313 1.979 1_455 S
O314 C331 1.295 . S
O315 Fe310 1.973 1_455 S
O315 C331 1.235 . S
O316 Fe310 1.978 1_455 S
O316 C317 1.295 . S
C317 O316 1.295 . S
C317 O319 1.235 . S
C318 O323 1.287 . S
C318 O324 1.255 . S
O319 Fe311 1.973 1_455 S
O319 C317 1.235 . S
C320 O326 1.287 . S
C320 O327 1.255 . S
O321 Fe310 2.000 . S
O321 C328 1.287 . S
O322 Fe311 2.019 . S
O322 C328 1.255 . S
O323 Fe313 1.999 . S
O323 C318 1.287 . S
O324 Fe310 2.019 . S
O324 C318 1.255 . S
C325 O329 1.295 . S
C325 O330 1.235 . S
O326 Fe311 2.000 . S
O326 C320 1.287 . S
O327 Fe313 2.019 . S
O327 C320 1.255 . S
C328 O321 1.287 . S
C328 O322 1.255 . S
O329 Fe311 1.979 1_455 S
O329 C325 1.295 . S
O330 Fe313 1.974 1_455 S
O330 C325 1.235 . S
C331 O314 1.295 . S
C331 O315 1.235 . S
Fe332 O334 1.918 . S
Fe332 O337 1.997 . S
Fe332 O338 2.002 . S
Fe332 O343 1.976 . S
Fe332 O346 1.996 . S
Fe333 O334 1.918 . S
Fe333 O341 1.997 . S
Fe333 O344 1.996 . S
Fe333 O348 1.976 . S
Fe333 O351 2.002 . S
O334 Fe332 1.918 . S
O334 Fe333 1.918 . S
O334 Fe335 1.918 . S
Fe335 O334 1.918 . S
Fe335 O336 2.002 . S
Fe335 O345 1.976 . S
Fe335 O349 1.996 . S
Fe335 O352 1.997 . S
O336 Fe335 2.002 . S
O336 C353 1.295 . S
O337 Fe332 1.997 . S
O337 C353 1.235 . S
O338 Fe332 2.002 . S
O338 C339 1.295 . S
C339 O338 1.295 . S
C339 O341 1.235 . S
C340 O345 1.287 . S
C340 O346 1.255 . S
O341 Fe333 1.997 . S
O341 C339 1.235 . S
C342 O348 1.287 . S
C342 O349 1.255 . S
O343 Fe332 1.976 . S
O343 C350 1.287 . S
O344 Fe333 1.996 . S
O344 C350 1.255 . S
O345 Fe335 1.976 . S
O345 C340 1.287 . S
O346 Fe332 1.996 . S
O346 C340 1.255 . S
C347 O351 1.295 . S
C347 O352 1.235 . S
O348 Fe333 1.976 . S
O348 C342 1.287 . S
O349 Fe335 1.996 . S
O349 C342 1.255 . S
C350 O343 1.287 . S
C350 O344 1.255 . S
O351 Fe333 2.002 . S
O351 C347 1.295 . S
O352 Fe335 1.997 . S
O352 C347 1.235 . S
C353 O336 1.295 . S
C353 O337 1.235 . S
Fe354 O356 1.918 . S
Fe354 O359 1.997 . S
Fe354 O360 2.002 . S
Fe354 O365 1.976 . S
Fe354 O368 1.996 . S
Fe355 O356 1.918 . S
Fe355 O363 1.997 . S
Fe355 O366 1.996 . S
Fe355 O370 1.976 . S
Fe355 O373 2.002 . S
O356 Fe354 1.918 . S
O356 Fe355 1.918 . S
O356 Fe357 1.918 . S
Fe357 O356 1.918 . S
Fe357 O358 2.002 . S
Fe357 O367 1.976 . S
Fe357 O371 1.996 . S
Fe357 O374 1.997 . S
O358 Fe357 2.002 . S
O358 C375 1.295 . S
O359 Fe354 1.997 . S
O359 C375 1.235 . S
O360 Fe354 2.002 . S
O360 C361 1.295 . S
C361 O360 1.295 . S
C361 O363 1.235 . S
C362 O367 1.287 . S
C362 O368 1.255 . S
O363 Fe355 1.997 . S
O363 C361 1.235 . S
C364 O370 1.287 . S
C364 O371 1.255 . S
O365 Fe354 1.976 . S
O365 C372 1.287 . S
O366 Fe355 1.996 . S
O366 C372 1.255 . S
O367 Fe357 1.976 . S
O367 C362 1.287 . S
O368 Fe354 1.996 . S
O368 C362 1.255 . S
C369 O373 1.295 . S
C369 O374 1.235 . S
O370 Fe355 1.976 . S
O370 C364 1.287 . S
O371 Fe357 1.996 . S
O371 C364 1.255 . S
C372 O365 1.287 . S
C372 O366 1.255 . S
O373 Fe355 2.002 . S
O373 C369 1.295 . S
O374 Fe357 1.997 . S
O374 C369 1.235 . S
C375 O358 1.295 . S
C375 O359 1.235 . S
H376 C382 0.930 . S
H377 C385 0.930 . S
H378 C386 0.930 . S
H379 C387 0.930 . S
H380 C390 0.930 . S
H381 C391 0.930 . S
C382 H376 0.930 . S
C382 C383 1.355 . S
C382 C384 1.415 . S
C383 C382 1.355 . S
C383 C385 1.419 . S
C384 C382 1.415 . S
C384 C389 1.425 . S
C384 C391 1.409 . S
C385 H377 0.930 . S
C385 C383 1.419 . S
C385 C386 1.362 . S
C386 H378 0.930 . S
C386 C385 1.362 . S
C386 C389 1.409 . S
C387 H379 0.930 . S
C387 C388 1.355 . S
C387 C389 1.415 . S
C388 C387 1.355 . S
C388 C390 1.419 . S
C389 C384 1.425 . S
C389 C386 1.409 . S
C389 C387 1.415 . S
C390 H380 0.930 . S
C390 C388 1.419 . S
C390 C391 1.362 . S
C391 H381 0.930 . S
C391 C384 1.409 . S
C391 C390 1.362 . S
H392 C398 0.930 . S
H393 C401 0.930 . S
H394 C402 0.930 . S
H395 C403 0.930 . S
H396 C406 0.930 . S
H397 C407 0.930 . S
C398 H392 0.930 . S
C398 C399 1.355 . S
C398 C400 1.415 . S
C399 C398 1.355 . S
C399 C401 1.419 . S
C400 C398 1.415 . S
C400 C405 1.425 . S
C400 C407 1.409 . S
C401 H393 0.930 . S
C401 C399 1.419 . S
C401 C402 1.362 . S
C402 H394 0.930 . S
C402 C401 1.362 . S
C402 C405 1.409 . S
C403 H395 0.930 . S
C403 C404 1.355 . S
C403 C405 1.415 . S
C404 C403 1.355 . S
C404 C406 1.419 . S
C405 C400 1.425 . S
C405 C402 1.409 . S
C405 C403 1.415 . S
C406 H396 0.930 . S
C406 C404 1.419 . S
C406 C407 1.362 . S
C407 H397 0.930 . S
C407 C400 1.409 . S
C407 C406 1.362 . S
H408 C414 0.930 . S
H409 C417 0.930 . S
H410 C418 0.930 . S
H411 C419 0.930 . S
H412 C422 0.930 . S
H413 C423 0.930 . S
C414 H408 0.930 . S
C414 C415 1.355 . S
C414 C416 1.415 . S
C415 C414 1.355 . S
C415 C417 1.419 . S
C416 C414 1.415 . S
C416 C421 1.425 . S
C416 C423 1.409 . S
C417 H409 0.930 . S
C417 C415 1.419 . S
C417 C418 1.362 . S
C418 H410 0.930 . S
C418 C417 1.362 . S
C418 C421 1.409 . S
C419 H411 0.930 . S
C419 C420 1.355 . S
C419 C421 1.415 . S
C420 C419 1.355 . S
C420 C422 1.419 . S
C421 C416 1.425 . S
C421 C418 1.409 . S
C421 C419 1.415 . S
C422 H412 0.930 . S
C422 C420 1.419 . S
C422 C423 1.362 . S
C423 H413 0.930 . S
C423 C416 1.409 . S
C423 C422 1.362 . S
H424 C430 0.930 . S
H425 C433 0.930 . S
H426 C434 0.930 . S
H427 C435 0.930 . S
H428 C438 0.930 . S
H429 C439 0.930 . S
C430 H424 0.930 . S
C430 C431 1.355 . S
C430 C432 1.415 . S
C431 C430 1.355 . S
C431 C433 1.419 . S
C432 C430 1.415 . S
C432 C437 1.425 . S
C432 C439 1.409 . S
C433 H425 0.930 . S
C433 C431 1.419 . S
C433 C434 1.362 . S
C434 H426 0.930 . S
C434 C433 1.362 . S
C434 C437 1.409 . S
C435 H427 0.930 . S
C435 C436 1.355 . S
C435 C437 1.415 . S
C436 C435 1.355 . S
C436 C438 1.419 . S
C437 C432 1.425 . S
C437 C434 1.409 . S
C437 C435 1.415 . S
C438 H428 0.930 . S
C438 C436 1.419 . S
C438 C439 1.362 . S
C439 H429 0.930 . S
C439 C432 1.409 . S
C439 C438 1.362 . S
H440 C446 0.930 . S
H441 C449 0.930 . S
H442 C450 0.930 . S
H443 C451 0.930 . S
H444 C454 0.930 . S
H445 C455 0.930 . S
C446 H440 0.930 . S
C446 C447 1.355 . S
C446 C448 1.415 . S
C447 C446 1.355 . S
C447 C449 1.419 . S
C448 C446 1.415 . S
C448 C453 1.425 . S
C448 C455 1.409 . S
C449 H441 0.930 . S
C449 C447 1.419 . S
C449 C450 1.362 . S
C450 H442 0.930 . S
C450 C449 1.362 . S
C450 C453 1.409 . S
C451 H443 0.930 . S
C451 C452 1.355 . S
C451 C453 1.415 . S
C452 C451 1.355 . S
C452 C454 1.419 . S
C453 C448 1.425 . S
C453 C450 1.409 . S
C453 C451 1.415 . S
C454 H444 0.930 . S
C454 C452 1.419 . S
C454 C455 1.362 . S
C455 H445 0.930 . S
C455 C448 1.409 . S
C455 C454 1.362 . S
H456 C462 0.930 . S
H457 C465 0.930 . S
H458 C466 0.930 . S
H459 C467 0.930 . S
H460 C470 0.930 . S
H461 C471 0.930 . S
C462 H456 0.930 . S
C462 C463 1.355 . S
C462 C464 1.415 . S
C463 C462 1.355 . S
C463 C465 1.419 . S
C464 C462 1.415 . S
C464 C469 1.425 . S
C464 C471 1.409 . S
C465 H457 0.930 . S
C465 C463 1.419 . S
C465 C466 1.362 . S
C466 H458 0.930 . S
C466 C465 1.362 . S
C466 C469 1.409 . S
C467 H459 0.930 . S
C467 C468 1.355 . S
C467 C469 1.415 . S
C468 C467 1.355 . S
C468 C470 1.419 . S
C469 C464 1.425 . S
C469 C466 1.409 . S
C469 C467 1.415 . S
C470 H460 0.930 . S
C470 C468 1.419 . S
C470 C471 1.362 . S
C471 H461 0.930 . S
C471 C464 1.409 . S
C471 C470 1.362 . S
H472 C478 0.930 . S
H473 C481 0.930 . S
H474 C482 0.930 . S
H475 C483 0.930 . S
H476 C486 0.930 . S
H477 C487 0.930 . S
C478 H472 0.930 . S
C478 C479 1.355 . S
C478 C480 1.415 . S
C479 C478 1.355 . S
C479 C481 1.419 . S
C480 C478 1.415 . S
C480 C485 1.425 . S
C480 C487 1.409 . S
C481 H473 0.930 . S
C481 C479 1.419 . S
C481 C482 1.362 . S
C482 H474 0.930 . S
C482 C481 1.362 . S
C482 C485 1.409 . S
C483 H475 0.930 . S
C483 C484 1.355 . S
C483 C485 1.415 . S
C484 C483 1.355 . S
C484 C486 1.419 . S
C485 C480 1.425 . S
C485 C482 1.409 . S
C485 C483 1.415 . S
C486 H476 0.930 . S
C486 C484 1.419 . S
C486 C487 1.362 . S
C487 H477 0.930 . S
C487 C480 1.409 . S
C487 C486 1.362 . S
H488 C494 0.930 . S
H489 C497 0.930 . S
H490 C498 0.930 . S
H491 C499 0.930 . S
H492 C502 0.930 . S
H493 C503 0.930 . S
C494 H488 0.930 . S
C494 C495 1.355 . S
C494 C496 1.415 . S
C495 C494 1.355 . S
C495 C497 1.419 . S
C496 C494 1.415 . S
C496 C501 1.425 . S
C496 C503 1.409 . S
C497 H489 0.930 . S
C497 C495 1.419 . S
C497 C498 1.362 . S
C498 H490 0.930 . S
C498 C497 1.362 . S
C498 C501 1.409 . S
C499 H491 0.930 . S
C499 C500 1.355 . S
C499 C501 1.415 . S
C500 C499 1.355 . S
C500 C502 1.419 . S
C501 C496 1.425 . S
C501 C498 1.409 . S
C501 C499 1.415 . S
C502 H492 0.930 . S
C502 C500 1.419 . S
C502 C503 1.362 . S
C503 H493 0.930 . S
C503 C496 1.409 . S
C503 C502 1.362 . S
H504 C510 0.930 . S
H505 C513 0.930 . S
H506 C514 0.930 . S
H507 C515 0.930 . S
H508 C518 0.930 . S
H509 C519 0.930 . S
C510 H504 0.930 . S
C510 C511 1.355 . S
C510 C512 1.415 . S
C511 C510 1.355 . S
C511 C513 1.419 . S
C512 C510 1.415 . S
C512 C517 1.425 . S
C512 C519 1.409 . S
C513 H505 0.930 . S
C513 C511 1.419 . S
C513 C514 1.362 . S
C514 H506 0.930 . S
C514 C513 1.362 . S
C514 C517 1.409 . S
C515 H507 0.930 . S
C515 C516 1.355 . S
C515 C517 1.415 . S
C516 C515 1.355 . S
C516 C518 1.419 . S
C517 C512 1.425 . S
C517 C514 1.409 . S
C517 C515 1.415 . S
C518 H508 0.930 . S
C518 C516 1.419 . S
C518 C519 1.362 . S
C519 H509 0.930 . S
C519 C512 1.409 . S
C519 C518 1.362 . S
H520 C526 0.930 . S
H521 C529 0.930 . S
H522 C530 0.930 . S
H523 C531 0.930 . S
H524 C534 0.930 . S
H525 C535 0.930 . S
C526 H520 0.930 . S
C526 C527 1.355 . S
C526 C528 1.415 . S
C527 C526 1.355 . S
C527 C529 1.419 . S
C528 C526 1.415 . S
C528 C533 1.425 . S
C528 C535 1.409 . S
C529 H521 0.930 . S
C529 C527 1.419 . S
C529 C530 1.362 . S
C530 H522 0.930 . S
C530 C529 1.362 . S
C530 C533 1.409 . S
C531 H523 0.930 . S
C531 C532 1.355 . S
C531 C533 1.415 . S
C532 C531 1.355 . S
C532 C534 1.419 . S
C533 C528 1.425 . S
C533 C530 1.409 . S
C533 C531 1.415 . S
C534 H524 0.930 . S
C534 C532 1.419 . S
C534 C535 1.362 . S
C535 H525 0.930 . S
C535 C528 1.409 . S
C535 C534 1.362 . S
H536 C542 0.930 . S
H537 C545 0.930 . S
H538 C546 0.930 . S
H539 C547 0.930 . S
H540 C550 0.930 . S
H541 C551 0.930 . S
C542 H536 0.930 . S
C542 C543 1.355 . S
C542 C544 1.415 . S
C543 C542 1.355 . S
C543 C545 1.419 . S
C544 C542 1.415 . S
C544 C549 1.425 . S
C544 C551 1.409 . S
C545 H537 0.930 . S
C545 C543 1.419 . S
C545 C546 1.362 . S
C546 H538 0.930 . S
C546 C545 1.362 . S
C546 C549 1.409 . S
C547 H539 0.930 . S
C547 C548 1.355 . S
C547 C549 1.415 . S
C548 C547 1.355 . S
C548 C550 1.419 . S
C549 C544 1.425 . S
C549 C546 1.409 . S
C549 C547 1.415 . S
C550 H540 0.930 . S
C550 C548 1.419 . S
C550 C551 1.362 . S
C551 H541 0.930 . S
C551 C544 1.409 . S
C551 C550 1.362 . S
H552 C558 0.930 . S
H553 C561 0.930 . S
H554 C562 0.930 . S
H555 C563 0.930 . S
H556 C566 0.930 . S
H557 C567 0.930 . S
C558 H552 0.930 . S
C558 C559 1.355 . S
C558 C560 1.415 . S
C559 C558 1.355 . S
C559 C561 1.419 . S
C560 C558 1.415 . S
C560 C565 1.425 . S
C560 C567 1.409 . S
C561 H553 0.930 . S
C561 C559 1.419 . S
C561 C562 1.362 . S
C562 H554 0.930 . S
C562 C561 1.362 . S
C562 C565 1.409 . S
C563 H555 0.930 . S
C563 C564 1.355 . S
C563 C565 1.415 . S
C564 C563 1.355 . S
C564 C566 1.419 . S
C565 C560 1.425 . S
C565 C562 1.409 . S
C565 C563 1.415 . S
C566 H556 0.930 . S
C566 C564 1.419 . S
C566 C567 1.362 . S
C567 H557 0.930 . S
C567 C560 1.409 . S
C567 C566 1.362 . S
H568 C574 0.930 . S
H569 C577 0.930 . S
H570 C578 0.930 . S
H571 C579 0.930 . S
H572 C582 0.930 . S
H573 C583 0.930 . S
C574 H568 0.930 . S
C574 C575 1.355 . S
C574 C576 1.415 . S
C575 C574 1.355 . S
C575 C577 1.419 . S
C576 C574 1.415 . S
C576 C581 1.425 . S
C576 C583 1.409 . S
C577 H569 0.930 . S
C577 C575 1.419 . S
C577 C578 1.362 . S
C578 H570 0.930 . S
C578 C577 1.362 . S
C578 C581 1.409 . S
C579 H571 0.930 . S
C579 C580 1.355 . S
C579 C581 1.415 . S
C580 C579 1.355 . S
C580 C582 1.419 . S
C581 C576 1.425 . S
C581 C578 1.409 . S
C581 C579 1.415 . S
C582 H572 0.930 . S
C582 C580 1.419 . S
C582 C583 1.362 . S
C583 H573 0.930 . S
C583 C576 1.409 . S
C583 C582 1.362 . S
H584 C590 0.930 . S
H585 C593 0.930 . S
H586 C594 0.930 . S
H587 C595 0.930 . S
H588 C598 0.930 . S
H589 C599 0.930 . S
C590 H584 0.930 . S
C590 C591 1.355 . S
C590 C592 1.415 . S
C591 C590 1.355 . S
C591 C593 1.419 . S
C592 C590 1.415 . S
C592 C597 1.425 . S
C592 C599 1.409 . S
C593 H585 0.930 . S
C593 C591 1.419 . S
C593 C594 1.362 . S
C594 H586 0.930 . S
C594 C593 1.362 . S
C594 C597 1.409 . S
C595 H587 0.930 . S
C595 C596 1.355 . S
C595 C597 1.415 . S
C596 C595 1.355 . S
C596 C598 1.419 . S
C597 C592 1.425 . S
C597 C594 1.409 . S
C597 C595 1.415 . S
C598 H588 0.930 . S
C598 C596 1.419 . S
C598 C599 1.362 . S
C599 H589 0.930 . S
C599 C592 1.409 . S
C599 C598 1.362 . S
H600 C606 0.930 1_565 S
H601 C609 0.930 . S
H602 C610 0.930 . S
H603 C611 0.930 . S
H604 C614 0.930 . S
H605 C615 0.930 . S
C606 H600 0.930 1_545 S
C606 C607 1.355 . S
C606 C608 1.415 . S
C607 C606 1.355 . S
C607 C609 1.419 . S
C608 C606 1.415 . S
C608 C613 1.425 . S
C608 C615 1.409 . S
C609 H601 0.930 . S
C609 C607 1.419 . S
C609 C610 1.362 . S
C610 H602 0.930 . S
C610 C609 1.362 . S
C610 C613 1.409 . S
C611 H603 0.930 . S
C611 C612 1.355 . S
C611 C613 1.415 . S
C612 C611 1.355 . S
C612 C614 1.419 . S
C613 C608 1.425 . S
C613 C610 1.409 . S
C613 C611 1.415 . S
C614 H604 0.930 . S
C614 C612 1.419 . S
C614 C615 1.362 . S
C615 H605 0.930 . S
C615 C608 1.409 . S
C615 C614 1.362 . S
H616 C622 0.930 . S
H617 C625 0.930 . S
H618 C626 0.930 . S
H619 C627 0.930 . S
H620 C630 0.930 . S
H621 C631 0.930 . S
C622 H616 0.930 . S
C622 C623 1.355 . S
C622 C624 1.415 . S
C623 C622 1.355 . S
C623 C625 1.419 . S
C624 C622 1.415 . S
C624 C629 1.425 . S
C624 C631 1.409 . S
C625 H617 0.930 . S
C625 C623 1.419 . S
C625 C626 1.362 . S
C626 H618 0.930 . S
C626 C625 1.362 . S
C626 C629 1.409 . S
C627 H619 0.930 . S
C627 C628 1.355 . S
C627 C629 1.415 . S
C628 C627 1.355 . S
C628 C630 1.419 . S
C629 C624 1.425 . S
C629 C626 1.409 . S
C629 C627 1.415 . S
C630 H620 0.930 . S
C630 C628 1.419 . S
C630 C631 1.362 . S
C631 H621 0.930 . S
C631 C624 1.409 . S
C631 C630 1.362 . S
H632 C638 0.930 . S
H633 C641 0.930 . S
H634 C642 0.930 . S
H635 C643 0.930 . S
H636 C646 0.930 . S
H637 C647 0.930 . S
C638 H632 0.930 . S
C638 C639 1.355 . S
C638 C640 1.415 . S
C639 C638 1.355 . S
C639 C641 1.419 . S
C640 C638 1.415 . S
C640 C645 1.425 . S
C640 C647 1.409 . S
C641 H633 0.930 . S
C641 C639 1.419 . S
C641 C642 1.362 . S
C642 H634 0.930 . S
C642 C641 1.362 . S
C642 C645 1.409 . S
C643 H635 0.930 . S
C643 C644 1.355 . S
C643 C645 1.415 . S
C644 C643 1.355 . S
C644 C646 1.419 . S
C645 C640 1.425 . S
C645 C642 1.409 . S
C645 C643 1.415 . S
C646 H636 0.930 . S
C646 C644 1.419 . S
C646 C647 1.362 . S
C647 H637 0.930 . S
C647 C640 1.409 . S
C647 C646 1.362 . S
H648 C654 0.930 . S
H649 C657 0.930 . S
H650 C658 0.930 . S
H651 C659 0.930 . S
H652 C662 0.930 . S
H653 C663 0.930 . S
C654 H648 0.930 . S
C654 C655 1.355 . S
C654 C656 1.415 . S
C655 C654 1.355 . S
C655 C657 1.419 . S
C656 C654 1.415 . S
C656 C661 1.425 . S
C656 C663 1.409 . S
C657 H649 0.930 . S
C657 C655 1.419 . S
C657 C658 1.362 . S
C658 H650 0.930 . S
C658 C657 1.362 . S
C658 C661 1.409 . S
C659 H651 0.930 . S
C659 C660 1.355 . S
C659 C661 1.415 . S
C660 C659 1.355 . S
C660 C662 1.419 . S
C661 C656 1.425 . S
C661 C658 1.409 . S
C661 C659 1.415 . S
C662 H652 0.930 . S
C662 C660 1.419 . S
C662 C663 1.362 . S
C663 H653 0.930 . S
C663 C656 1.409 . S
C663 C662 1.362 . S
H664 C670 0.930 . S
H665 C673 0.930 . S
H666 C674 0.930 . S
H667 C675 0.930 . S
H668 C678 0.930 . S
H669 C679 0.930 . S
C670 H664 0.930 . S
C670 C671 1.355 . S
C670 C672 1.415 . S
C671 C670 1.355 . S
C671 C673 1.419 . S
C672 C670 1.415 . S
C672 C677 1.425 . S
C672 C679 1.409 . S
C673 H665 0.930 . S
C673 C671 1.419 . S
C673 C674 1.362 . S
C674 H666 0.930 . S
C674 C673 1.362 . S
C674 C677 1.409 . S
C675 H667 0.930 . S
C675 C676 1.355 . S
C675 C677 1.415 . S
C676 C675 1.355 . S
C676 C678 1.419 . S
C677 C672 1.425 . S
C677 C674 1.409 . S
C677 C675 1.415 . S
C678 H668 0.930 . S
C678 C676 1.419 . S
C678 C679 1.362 . S
C679 H669 0.930 . S
C679 C672 1.409 . S
C679 C678 1.362 . S
H680 C686 0.930 . S
H681 C689 0.930 . S
H682 C690 0.930 . S
H683 C691 0.930 . S
H684 C694 0.930 . S
H685 C695 0.930 . S
C686 H680 0.930 . S
C686 C687 1.355 . S
C686 C688 1.415 . S
C687 C686 1.355 . S
C687 C689 1.419 . S
C688 C686 1.415 . S
C688 C693 1.425 . S
C688 C695 1.409 . S
C689 H681 0.930 . S
C689 C687 1.419 . S
C689 C690 1.362 . S
C690 H682 0.930 . S
C690 C689 1.362 . S
C690 C693 1.409 . S
C691 H683 0.930 . S
C691 C692 1.355 . S
C691 C693 1.415 . S
C692 C691 1.355 . S
C692 C694 1.419 . S
C693 C688 1.425 . S
C693 C690 1.409 . S
C693 C691 1.415 . S
C694 H684 0.930 . S
C694 C692 1.419 . S
C694 C695 1.362 . S
C695 H685 0.930 . S
C695 C688 1.409 . S
C695 C694 1.362 . S
H696 C702 0.930 . S
H697 C705 0.930 . S
H698 C706 0.930 . S
H699 C707 0.930 . S
H700 C710 0.930 . S
H701 C711 0.930 . S
C702 H696 0.930 . S
C702 C703 1.355 . S
C702 C704 1.415 . S
C703 C702 1.355 . S
C703 C705 1.419 . S
C704 C702 1.415 . S
C704 C709 1.425 . S
C704 C711 1.409 . S
C705 H697 0.930 . S
C705 C703 1.419 . S
C705 C706 1.362 . S
C706 H698 0.930 . S
C706 C705 1.362 . S
C706 C709 1.409 . S
C707 H699 0.930 . S
C707 C708 1.355 . S
C707 C709 1.415 . S
C708 C707 1.355 . S
C708 C710 1.419 . S
C709 C704 1.425 . S
C709 C706 1.409 . S
C709 C707 1.415 . S
C710 H700 0.930 . S
C710 C708 1.419 . S
C710 C711 1.362 . S
C711 H701 0.930 . S
C711 C704 1.409 . S
C711 C710 1.362 . S
H712 C718 0.930 . S
H713 C721 0.930 . S
H714 C722 0.930 . S
H715 C723 0.930 . S
H716 C726 0.930 . S
H717 C727 0.930 . S
C718 H712 0.930 . S
C718 C719 1.355 . S
C718 C720 1.415 . S
C719 C718 1.355 . S
C719 C721 1.419 . S
C720 C718 1.415 . S
C720 C725 1.425 . S
C720 C727 1.409 . S
C721 H713 0.930 . S
C721 C719 1.419 . S
C721 C722 1.362 . S
C722 H714 0.930 . S
C722 C721 1.362 . S
C722 C725 1.409 . S
C723 H715 0.930 . S
C723 C724 1.355 . S
C723 C725 1.415 . S
C724 C723 1.355 . S
C724 C726 1.419 . S
C725 C720 1.425 . S
C725 C722 1.409 . S
C725 C723 1.415 . S
C726 H716 0.930 . S
C726 C724 1.419 . S
C726 C727 1.362 . S
C727 H717 0.930 . S
C727 C720 1.409 . S
C727 C726 1.362 . S
H728 C734 0.930 . S
H729 C737 0.930 . S
H730 C738 0.930 . S
H731 C739 0.930 . S
H732 C742 0.930 . S
H733 C743 0.930 . S
C734 H728 0.930 . S
C734 C735 1.355 . S
C734 C736 1.415 . S
C735 C734 1.355 . S
C735 C737 1.419 . S
C736 C734 1.415 . S
C736 C741 1.425 . S
C736 C743 1.409 . S
C737 H729 0.930 . S
C737 C735 1.419 . S
C737 C738 1.362 . S
C738 H730 0.930 . S
C738 C737 1.362 . S
C738 C741 1.409 . S
C739 H731 0.930 . S
C739 C740 1.355 . S
C739 C741 1.415 . S
C740 C739 1.355 . S
C740 C742 1.419 . S
C741 C736 1.425 . S
C741 C738 1.409 . S
C741 C739 1.415 . S
C742 H732 0.930 . S
C742 C740 1.419 . S
C742 C743 1.362 . S
C743 H733 0.930 . S
C743 C736 1.409 . S
C743 C742 1.362 . S
H744 C750 0.930 . S
H745 C753 0.930 . S
H746 C754 0.930 . S
H747 C755 0.930 . S
H748 C758 0.930 . S
H749 C759 0.930 . S
C750 H744 0.930 . S
C750 C751 1.355 . S
C750 C752 1.415 . S
C751 C750 1.355 . S
C751 C753 1.419 . S
C752 C750 1.415 . S
C752 C757 1.425 . S
C752 C759 1.409 . S
C753 H745 0.930 . S
C753 C751 1.419 . S
C753 C754 1.362 . S
C754 H746 0.930 . S
C754 C753 1.362 . S
C754 C757 1.409 . S
C755 H747 0.930 . S
C755 C756 1.355 . S
C755 C757 1.415 . S
C756 C755 1.355 . S
C756 C758 1.419 . S
C757 C752 1.425 . S
C757 C754 1.409 . S
C757 C755 1.415 . S
C758 H748 0.930 . S
C758 C756 1.419 . S
C758 C759 1.362 . S
C759 H749 0.930 . S
C759 C752 1.409 . S
C759 C758 1.362 . S
C383 C25 1.556 . S
C388 C331 1.561 . S
C404 C295 1.551 . S
C399 C61 1.546 . S
C420 C318 1.513 . S
C415 C97 1.530 . S
C436 C306 1.549 . S
C431 C133 1.553 . S
C452 C375 1.563 . S
C447 C169 1.558 . S
C468 C339 1.562 . S
C463 C205 1.557 . S
C479 C241 1.549 . S
C484 C362 1.541 . S
C500 C350 1.539 . S
C495 C277 1.546 . S
C511 C31 1.466 . S
C516 C372 1.543 . S
C532 C342 1.540 . S
C527 C67 1.487 . S
C543 C103 1.541 . S
C548 C361 1.580 . S
C559 C139 1.568 . S
C564 C347 1.562 . S
C580 C328 1.543 . S
C575 C175 1.464 1_545 S
C591 C211 1.463 1_565 S
C596 C298 1.544 . S
C612 C317 1.562 . S
C607 C247 1.570 1_545 S
C628 C303 1.572 . S
C623 C283 1.540 1_565 S
C644 C353 1.556 . S
C639 C1 1.518 . S
C660 C369 1.530 . S
C655 C37 1.528 . S
C671 C73 1.518 . S
C676 C340 1.529 . S
C692 C364 1.513 . S
C687 C109 1.515 . S
C708 C309 1.547 . S
C703 C145 1.538 . S
C719 C181 1.537 . S
C724 C325 1.548 . S
C735 C217 1.498 . S
C740 C296 1.526 . S
C751 C253 1.512 . S
C756 C320 1.530 . S
