# Generated by pormake.
# Topology rtl, (3,6)-cn, num edge types: 1
# Building blocks:
#     Node 0, Type 0, BuildingBlock: VETTIZ_charged_linker_0, # of connection points: 3
#     Node 1, Type 0, BuildingBlock: VETTIZ_charged_linker_0, # of connection points: 3
#     Node 2, Type 0, BuildingBlock: VETTIZ_charged_linker_0, # of connection points: 3
#     Node 3, Type 0, BuildingBlock: VETTIZ_charged_linker_0, # of connection points: 3
#     Node 4, Type 1, BuildingBlock: VOLQOD_clean_sbu_1, # of connection points: 6
#     Node 5, Type 1, BuildingBlock: VOLQOD_clean_sbu_1, # of connection points: 6
#     Edge 6, Type (0, 1), BuildingBlock: OJICUG_clean_linker_0, # of connection points: 2
#     Edge 7, Type (0, 1), BuildingBlock: OJICUG_clean_linker_0, # of connection points: 2
#     Edge 8, Type (0, 1), BuildingBlock: OJICUG_clean_linker_0, # of connection points: 2
#     Edge 9, Type (0, 1), BuildingBlock: OJICUG_clean_linker_0, # of connection points: 2
#     Edge 10, Type (0, 1), BuildingBlock: OJICUG_clean_linker_0, # of connection points: 2
#     Edge 11, Type (0, 1), BuildingBlock: OJICUG_clean_linker_0, # of connection points: 2
#     Edge 12, Type (0, 1), BuildingBlock: OJICUG_clean_linker_0, # of connection points: 2
#     Edge 13, Type (0, 1), BuildingBlock: OJICUG_clean_linker_0, # of connection points: 2
#     Edge 14, Type (0, 1), BuildingBlock: OJICUG_clean_linker_0, # of connection points: 2
#     Edge 15, Type (0, 1), BuildingBlock: OJICUG_clean_linker_0, # of connection points: 2
#     Edge 16, Type (0, 1), BuildingBlock: OJICUG_clean_linker_0, # of connection points: 2
#     Edge 17, Type (0, 1), BuildingBlock: OJICUG_clean_linker_0, # of connection points: 2
# Relax obj value: 0.081
# Max RMSD: 0.157
# Mean RMSD: 0.091
data_MOF--net-rtl--node1-VOLQOD_clean_sbu_1--node2-VETTIZ_charged_linker_0--edge1-OJICUG_clean_linker_0
_symmetry_space_group_name_H-M    P1
_symmetry_Int_Tables_number       1
_symmetry_cell_setting            triclinic
loop_
_symmetry_equiv_pos_as_xyz
'x, y, z'
_cell_length_a     35.065504
_cell_length_b     29.658504
_cell_length_c     23.187583
_cell_angle_alpha  89.797332
_cell_angle_beta   90.438082
_cell_angle_gamma 90.025157
loop_
_atom_site_label
_atom_site_type_symbol
_atom_site_fract_x
_atom_site_fract_y
_atom_site_fract_z
_atom_type_partial_charge
C0 C 0.08217 0.78868 0.82977 0.0
C1 C 0.05066 0.81771 0.82605 0.0
C2 C 0.02688 0.82314 0.87406 0.0
C3 C 0.06916 0.776 0.93113 0.0
C4 C 0.09059 0.76764 0.88255 0.0
C5 C 0.12312 0.7358 0.89477 0.0
H6 H 0.24351 0.6452 0.09037 0.0
C7 C 0.08829 0.75417 0.98074 0.0
C8 C 0.11951 0.72979 0.9597 0.0
H9 H 0.24157 0.62425 0.90551 0.0
H10 H 0.18309 0.66633 0.89794 0.0
H11 H 0.21783 0.74479 0.09135 0.0
H12 H 0.15199 0.62284 0.10467 0.0
H13 H 0.13336 0.66125 0.15467 0.0
H14 H 0.18222 0.64284 0.16193 0.0
H15 H 0.21673 0.71171 0.15625 0.0
H16 H 0.18199 0.75523 0.14186 0.0
C17 C 0.16081 0.75958 0.87822 0.0
C18 C 0.1157 0.69118 0.86176 0.0
C19 C 0.05173 0.80156 0.18281 0.0
C20 C 0.07012 0.79643 0.23627 0.0
C21 C 0.1018 0.76762 0.2413 0.0
C22 C 0.11579 0.74505 0.19287 0.0
C23 C 0.09845 0.75243 0.13874 0.0
C24 C 0.06663 0.77981 0.13454 0.0
C25 C 0.05401 0.78708 0.07312 0.0
C26 C 0.08324 0.75913 0.0411 0.0
C27 C 0.10917 0.73899 0.07977 0.0
C28 C 0.05766 0.83822 0.05974 0.0
C29 C 0.01318 0.76786 0.06584 0.0
C30 C 0.23039 0.64886 0.04822 0.0
C31 C 0.24811 0.63212 -0.00165 0.0
C32 C 0.22956 0.63804 0.94453 0.0
C33 C 0.19537 0.6622 0.94009 0.0
C34 C 0.17921 0.68051 -0.01011 0.0
C35 C 0.19585 0.67224 0.04301 0.0
C36 C 0.17323 0.6921 0.09154 0.0
C37 C 0.14036 0.71366 0.05857 0.0
C38 C 0.14471 0.70789 -0.00106 0.0
C39 C 0.19857 0.72763 0.12242 0.0
C40 C 0.15956 0.65301 0.13077 0.0
H41 H 0.01745 0.80868 0.96236 0.0
H42 H 0.10021 0.78333 0.7927 0.0
H43 H 0.08535 0.68773 0.84814 0.0
H44 H 0.12138 0.66112 0.88905 0.0
H45 H 0.13329 0.68914 0.82221 0.0
H46 H 0.16217 0.7938 0.89762 0.0
H47 H 0.163 0.76336 0.83068 0.0
H48 H 0.18639 0.74142 0.89344 0.0
H49 H 0.02786 0.8245 0.17798 0.0
H50 H 0.11643 0.7638 0.28236 0.0
H51 H 0.14049 0.72422 0.19907 0.0
H52 H 0.08395 0.85235 0.07992 0.0
H53 H 0.03294 0.85719 0.07692 0.0
H54 H 0.06036 0.84604 0.01355 0.0
H55 H 0.00854 0.73849 0.09495 0.0
H56 H 0.00776 0.75468 0.02197 0.0
H57 H 0.99131 0.79361 0.07619 0.0
H58 H 0.00226 0.84514 0.8715 0.0
C59 C 0.03591 0.80227 0.92665 0.0
C60 C 0.58318 0.74569 0.70617 0.0
C61 C 0.55319 0.71433 0.71068 0.0
C62 C 0.53154 0.7038 0.66101 0.0
C63 C 0.57167 0.75194 0.60315 0.0
C64 C 0.59183 0.7641 0.65204 0.0
C65 C 0.62406 0.79588 0.63849 0.0
H66 H 0.73634 0.89469 0.43864 0.0
C67 C 0.5899 0.77337 0.55303 0.0
C68 C 0.62027 0.79979 0.57325 0.0
H69 H 0.74738 0.89864 0.62417 0.0
H70 H 0.68788 0.85851 0.63413 0.0
H71 H 0.713 0.79285 0.43331 0.0
H72 H 0.64164 0.9113 0.4327 0.0
H73 H 0.62358 0.87336 0.38104 0.0
H74 H 0.67086 0.89637 0.37245 0.0
H75 H 0.71013 0.83031 0.37243 0.0
H76 H 0.67669 0.78487 0.38188 0.0
C77 C 0.66188 0.77272 0.65706 0.0
C78 C 0.61616 0.84137 0.66879 0.0
C79 C 0.55043 0.72299 0.35346 0.0
C80 C 0.56477 0.73153 0.29813 0.0
C81 C 0.59286 0.76524 0.29136 0.0
C82 C 0.60768 0.78829 0.33938 0.0
C83 C 0.59455 0.77724 0.39481 0.0
C84 C 0.56561 0.746 0.40075 0.0
C85 C 0.55537 0.73764 0.46249 0.0
C86 C 0.58352 0.76828 0.49301 0.0
C87 C 0.60667 0.79118 0.45339 0.0
C88 C 0.56288 0.68705 0.47595 0.0
C89 C 0.51357 0.75315 0.47139 0.0
C90 C 0.72534 0.8876 0.48126 0.0
C91 C 0.74624 0.89964 0.53076 0.0
C92 C 0.73162 0.88938 0.58561 0.0
C93 C 0.69721 0.86597 0.59122 0.0
C94 C 0.67762 0.8518 0.54142 0.0
C95 C 0.69127 0.8634 0.48756 0.0
C96 C 0.66737 0.84374 0.43962 0.0
C97 C 0.63718 0.81859 0.47367 0.0
C98 C 0.64361 0.8232 0.53329 0.0
C99 C 0.6929 0.81142 0.40445 0.0
C100 C 0.65002 0.88302 0.40406 0.0
H101 H 0.52337 0.71233 0.57141 0.0
H102 H 0.60004 0.75499 0.74361 0.0
H103 H 0.585 0.8482 0.67102 0.0
H104 H 0.62801 0.87053 0.64511 0.0
H105 H 0.62754 0.84131 0.71362 0.0
H106 H 0.66089 0.73595 0.64775 0.0
H107 H 0.66716 0.77672 0.70406 0.0
H108 H 0.68694 0.7852 0.63344 0.0
H109 H 0.52929 0.69699 0.36063 0.0
H110 H 0.60394 0.77316 0.24905 0.0
H111 H 0.62953 0.81289 0.33169 0.0
H112 H 0.58847 0.67476 0.45266 0.0
H113 H 0.53831 0.66583 0.4624 0.0
H114 H 0.56926 0.6802 0.52176 0.0
H115 H 0.5057 0.78085 0.44106 0.0
H116 H 0.50883 0.7675 0.51474 0.0
H117 H 0.4932 0.72502 0.46404 0.0
H118 H 0.50861 0.67937 0.6628 0.0
C119 C 0.5404 0.72268 0.60758 0.0
C120 C 0.91801 0.24347 0.19712 0.0
C121 C 0.9474 0.21114 0.20053 0.0
C122 C 0.96794 0.20064 0.15031 0.0
C123 C 0.92761 0.25027 0.09398 0.0
C124 C 0.90858 0.26253 0.1434 0.0
C125 C 0.87659 0.29516 0.13075 0.0
H126 H 0.75614 0.38555 0.93313 0.0
C127 C 0.90846 0.27184 0.04437 0.0
C128 C 0.87874 0.29865 0.0653 0.0
H129 H 0.75584 0.40463 0.11771 0.0
H130 H 0.81543 0.36379 0.12641 0.0
H131 H 0.84631 0.40705 0.91915 0.0
H132 H 0.78377 0.28239 0.93291 0.0
H133 H 0.81655 0.27759 0.87619 0.0
H134 H 0.77977 0.31965 0.87194 0.0
H135 H 0.81959 0.3846 0.85951 0.0
H136 H 0.8684 0.36806 0.87339 0.0
C137 C 0.88596 0.34063 0.16039 0.0
C138 C 0.83886 0.27326 0.15089 0.0
C139 C 0.94414 0.22122 0.844 0.0
C140 C 0.92857 0.22931 0.78897 0.0
C141 C 0.89917 0.26153 0.78292 0.0
C142 C 0.88455 0.28379 0.83131 0.0
C143 C 0.89931 0.27353 0.88637 0.0
C144 C 0.92924 0.24355 0.89163 0.0
C145 C 0.94106 0.23577 0.95311 0.0
C146 C 0.91314 0.26591 0.98424 0.0
C147 C 0.88851 0.28764 0.94516 0.0
C148 C 0.98272 0.25253 0.9605 0.0
C149 C 0.93484 0.18501 0.96721 0.0
C150 C 0.76907 0.38091 0.97532 0.0
C151 C 0.75125 0.39751 0.02492 0.0
C152 C 0.76916 0.3919 0.07903 0.0
C153 C 0.80349 0.36795 0.08401 0.0
C154 C 0.81998 0.34947 0.03436 0.0
C155 C 0.80353 0.3575 0.98095 0.0
C156 C 0.82612 0.33726 0.93266 0.0
C157 C 0.8583 0.31475 0.96606 0.0
C158 C 0.85405 0.32115 0.02574 0.0
C159 C 0.84078 0.37598 0.89365 0.0
C160 C 0.8004 0.30251 0.90126 0.0
H161 H 0.97461 0.20984 0.06076 0.0
H162 H 0.90213 0.25291 0.23507 0.0
H163 H 0.83708 0.23769 0.136 0.0
H164 H 0.81322 0.29008 0.13357 0.0
H165 H 0.83704 0.27315 0.1987 0.0
H166 H 0.91727 0.34547 0.16546 0.0
H167 H 0.87319 0.34241 0.20401 0.0
H168 H 0.87631 0.36997 0.13453 0.0
H169 H 0.96621 0.19617 0.85068 0.0
H170 H 0.88702 0.26897 0.74088 0.0
H171 H 0.86169 0.30724 0.82416 0.0
H172 H 0.98845 0.28204 0.93206 0.0
H173 H 0.00346 0.22574 0.94924 0.0
H174 H 0.98896 0.26478 0.00457 0.0
H175 H 0.91084 0.17073 0.94142 0.0
H176 H 0.92654 0.17877 0.01235 0.0
H177 H 0.96069 0.16487 0.95749 0.0
H178 H 0.99036 0.17555 0.15115 0.0
C179 C 0.95845 0.22029 0.0974 0.0
C180 C 0.41587 0.28288 0.32491 0.0
C181 C 0.44796 0.31101 0.32041 0.0
C182 C 0.47279 0.31576 0.36787 0.0
C183 C 0.43025 0.27082 0.42618 0.0
C184 C 0.40793 0.26242 0.37809 0.0
C185 C 0.37529 0.23111 0.3914 0.0
H186 H 0.25592 0.14677 0.59012 0.0
C187 C 0.41155 0.25024 0.47647 0.0
C188 C 0.37993 0.22575 0.45647 0.0
H189 H 0.25622 0.12133 0.40621 0.0
H190 H 0.31541 0.16168 0.39749 0.0
H191 H 0.34458 0.12156 0.60694 0.0
H192 H 0.28726 0.24919 0.58629 0.0
H193 H 0.31994 0.25334 0.64399 0.0
H194 H 0.28149 0.21351 0.64838 0.0
H195 H 0.31927 0.14728 0.6652 0.0
H196 H 0.36863 0.16056 0.65098 0.0
C197 C 0.38168 0.18604 0.35904 0.0
C198 C 0.33756 0.25515 0.37496 0.0
C199 C 0.44735 0.3078 0.6746 0.0
C200 C 0.4307 0.30279 0.72899 0.0
C201 C 0.40164 0.2706 0.73667 0.0
C202 C 0.38761 0.24589 0.68951 0.0
C203 C 0.40271 0.25381 0.63431 0.0
C204 C 0.43293 0.28326 0.62804 0.0
C205 C 0.44531 0.28813 0.56655 0.0
C206 C 0.41701 0.25725 0.53645 0.0
C207 C 0.39177 0.23777 0.57618 0.0
C208 C 0.4869 0.2708 0.56151 0.0
C209 C 0.43985 0.33827 0.54907 0.0
C210 C 0.26877 0.14926 0.54795 0.0
C211 C 0.25036 0.13181 0.49859 0.0
C212 C 0.26869 0.13585 0.44475 0.0
C213 C 0.30328 0.15901 0.43962 0.0
C214 C 0.32007 0.17823 0.48873 0.0
C215 C 0.30371 0.1717 0.54206 0.0
C216 C 0.32728 0.19201 0.58988 0.0
C217 C 0.36026 0.21197 0.55612 0.0
C218 C 0.35512 0.20494 0.4967 0.0
C219 C 0.34055 0.15365 0.63087 0.0
C220 C 0.30291 0.22884 0.6192 0.0
H221 H 0.48341 0.30153 0.45603 0.0
H222 H 0.39708 0.27785 0.2882 0.0
H223 H 0.33657 0.28933 0.39451 0.0
H224 H 0.31206 0.23702 0.39002 0.0
H225 H 0.33491 0.25905 0.32743 0.0
H226 H 0.41149 0.18254 0.34358 0.0
H227 H 0.36265 0.18327 0.32069 0.0
H228 H 0.3771 0.15637 0.38741 0.0
H229 H 0.47021 0.33182 0.66799 0.0
H230 H 0.38856 0.26617 0.77849 0.0
H231 H 0.36463 0.22285 0.69742 0.0
H232 H 0.49467 0.24767 0.59761 0.0
H233 H 0.50764 0.29912 0.56207 0.0
H234 H 0.4912 0.25056 0.52199 0.0
H235 H 0.41143 0.35064 0.56299 0.0
H236 H 0.4409 0.34437 0.50233 0.0
H237 H 0.46192 0.35987 0.5697 0.0
H238 H 0.49787 0.33696 0.36476 0.0
C239 C 0.46418 0.29557 0.42076 0.0
O240 O 0.90426 0.01295 0.50706 0.0
Zn241 Zn 0.95256 0.05014 0.50636 0.0
O242 O -0.00133 0.0128 0.51219 0.0
Zn243 Zn 0.0292 0.02849 0.58056 0.0
Zn244 Zn 0.98327 0.94957 0.51627 0.0
Zn245 Zn 0.02976 0.02273 0.44432 0.0
O246 O 0.08257 0.04908 0.5603 0.0
O247 O 0.08122 0.0468 0.46475 0.0
O248 O 0.95057 0.0928 0.57306 0.0
O249 O 0.00388 0.07958 0.62293 0.0
O250 O 0.03427 0.97499 0.63425 0.0
O251 O 0.002 0.9207 0.5895 0.0
O252 O 0.00373 0.91408 0.44931 0.0
O253 O 0.95225 0.08822 0.43438 0.0
O254 O 0.03761 0.96502 0.40121 0.0
O255 O 0.00634 0.06899 0.39188 0.0
C256 C 0.89873 0.97071 0.51236 0.0
C257 C 0.09856 0.05526 0.5118 0.0
C258 C 0.02183 0.93464 0.63201 0.0
C259 C 0.97291 0.10138 0.61514 0.0
C260 C 0.02548 0.92487 0.40776 0.0
C261 C 0.97596 0.09239 0.39345 0.0
O262 O 0.92645 0.94323 0.51662 0.0
O263 O 0.59372 0.51389 0.01887 0.0
Zn264 Zn 0.54581 0.55146 0.01577 0.0
O265 O 0.49969 0.51401 0.01673 0.0
Zn266 Zn 0.46977 0.52621 0.94772 0.0
Zn267 Zn 0.51461 0.45056 0.01739 0.0
Zn268 Zn 0.46844 0.5276 0.08434 0.0
O269 O 0.41762 0.54826 0.96647 0.0
O270 O 0.41508 0.54755 0.062 0.0
O271 O 0.5479 0.59116 0.94483 0.0
O272 O 0.49342 0.57466 0.90034 0.0
O273 O 0.46386 0.47084 0.89924 0.0
O274 O 0.49181 0.41663 0.95045 0.0
O275 O 0.49742 0.42016 0.08998 0.0
O276 O 0.54635 0.59295 0.08348 0.0
O277 O 0.46357 0.47247 0.13523 0.0
O278 O 0.49252 0.57843 0.13009 0.0
C279 C 0.59925 0.47153 0.01605 0.0
C280 C 0.39958 0.55482 0.01301 0.0
C281 C 0.47308 0.42967 0.90624 0.0
C282 C 0.52415 0.59727 0.90376 0.0
C283 C 0.47693 0.43258 0.13209 0.0
C284 C 0.52341 0.60073 0.12451 0.0
O285 O 0.57153 0.44385 0.01355 0.0
C286 C 0.20021 0.0869 0.55171 0.0
C287 C 0.21166 0.11119 0.50243 0.0
H288 H 0.15529 0.05046 0.59369 0.0
C289 C 0.18534 0.11672 0.45685 0.0
H290 H 0.21974 0.08132 0.5874 0.0
C291 C 0.14895 0.09803 0.45995 0.0
C292 C 0.13748 0.07416 0.50923 0.0
H293 H 0.19245 0.13624 0.4189 0.0
H294 H 0.12946 0.10314 0.42402 0.0
C295 C 0.16334 0.06896 0.55529 0.0
C296 C 0.2977 0.58506 0.05052 0.0
C297 C 0.28645 0.61054 0.00187 0.0
H298 H 0.34244 0.54775 0.09255 0.0
C299 C 0.31277 0.61671 0.95703 0.0
H300 H 0.27812 0.57888 0.08553 0.0
C301 C 0.34911 0.59786 0.9605 0.0
C302 C 0.36049 0.57315 0.00943 0.0
H303 H 0.30577 0.63704 0.91957 0.0
H304 H 0.36868 0.60369 0.92531 0.0
C305 C 0.33449 0.56695 0.0545 0.0
C306 C 0.79147 0.95903 0.49563 0.0
C307 C 0.78494 0.9186 0.5256 0.0
H308 H 0.83292 1.00792 0.4687 0.0
C309 C 0.81582 0.89543 0.55048 0.0
H310 H 0.76794 0.9773 0.47606 0.0
C311 C 0.85276 0.91222 0.54535 0.0
C312 C 0.85948 0.95301 0.51617 0.0
H313 H 0.81138 0.86397 0.57338 0.0
H314 H 0.87602 0.89351 0.56501 0.0
C315 C 0.82849 0.97647 0.49158 0.0
C316 C 0.70531 0.46015 0.04491 0.0
C317 C 0.71289 0.41782 0.02068 0.0
H318 H 0.66328 0.51089 0.06143 0.0
C319 C 0.68321 0.39388 -0.00624 0.0
H320 H 0.72785 0.47917 0.06582 0.0
C321 C 0.64634 0.41148 -0.00787 0.0
C322 C 0.63858 0.4538 0.01641 0.0
H323 H 0.68839 0.361 0.97516 0.0
H324 H 0.62388 0.39196 0.97179 0.0
C325 C 0.66851 0.47827 0.04218 0.0
C326 C 0.02452 0.82192 0.31173 0.0
C327 C 0.05973 0.82632 0.28401 0.0
H328 H 0.98624 0.8496 0.37407 0.0
C329 C 0.084 0.86218 0.29832 0.0
H330 H 0.00534 0.7946 0.30061 0.0
C331 C 0.07282 0.89408 0.33881 0.0
C332 C 0.03748 0.89011 0.36646 0.0
H333 H 0.1111 0.86628 0.27676 0.0
H334 H 0.0918 0.92195 0.34837 0.0
C335 C 0.01368 0.8533 0.35342 0.0
C336 C 0.50832 0.67869 0.78076 0.0
C337 C 0.54584 0.68981 0.76533 0.0
H338 H 0.4722 0.64053 0.8363 0.0
C339 C 0.57625 0.67341 0.79936 0.0
H340 H 0.48422 0.69164 0.75636 0.0
C341 C 0.56929 0.64457 0.84598 0.0
C342 C 0.53186 0.63124 0.85877 0.0
H343 H 0.60552 0.68103 0.78836 0.0
H344 H 0.59325 0.63115 0.87028 0.0
C345 C 0.50143 0.64944 0.82661 0.0
C346 C 0.92471 0.17025 0.28893 0.0
C347 C 0.955 0.18543 0.25447 0.0
H348 H 0.90756 0.12879 0.36005 0.0
C349 C 0.99237 0.17206 0.26878 0.0
H350 H 0.89553 0.17945 0.27878 0.0
C351 C -0.00092 0.14217 0.31424 0.0
C352 C 0.96867 0.12564 0.3472 0.0
H353 H 0.01646 0.18394 0.24404 0.0
H354 H 0.02814 0.1318 0.32333 0.0
C355 C 0.93153 0.14086 0.33514 0.0
C356 C 0.44082 0.38099 0.76387 0.0
C357 C 0.44117 0.3345 0.7754 0.0
H358 H 0.4504 0.44736 0.79613 0.0
C359 C 0.45158 0.31917 0.83061 0.0
H360 H 0.43244 0.39363 0.72174 0.0
C361 C 0.46229 0.35002 0.87334 0.0
C362 C 0.46201 0.39663 0.86164 0.0
H363 H 0.45202 0.28342 0.84034 0.0
H364 H 0.47052 0.33742 0.91553 0.0
C365 C 0.45091 0.41173 0.80657 0.0
C366 C 0.51531 0.68585 0.24522 0.0
C367 C 0.55293 0.70217 0.24937 0.0
H368 H 0.47653 0.64072 0.20307 0.0
C369 C 0.58013 0.68652 0.21001 0.0
H370 H 0.49347 0.69776 0.2742 0.0
C371 C 0.57029 0.65423 0.16885 0.0
C372 C 0.53312 0.63649 0.16642 0.0
H373 H 0.60949 0.69774 0.21245 0.0
H374 H 0.59221 0.64219 0.14006 0.0
C375 C 0.50557 0.65315 0.20447 0.0
C376 C 0.9791 0.1872 0.73512 0.0
C377 C 0.94089 0.20115 0.73969 0.0
H378 H 0.01911 0.14447 0.69264 0.0
C379 C 0.91387 0.18423 0.70024 0.0
H380 H 0.0008 0.20025 0.76406 0.0
C381 C 0.92452 0.15271 0.65877 0.0
C382 C 0.9623 0.13708 0.65628 0.0
H383 H 0.88413 0.19371 0.70296 0.0
H384 H 0.90279 0.13942 0.63004 0.0
C385 C 0.98963 0.15525 0.69417 0.0
C386 C 0.42734 0.37276 0.25464 0.0
C387 C 0.45386 0.339 0.26872 0.0
H388 H 0.41426 0.4296 0.20077 0.0
C389 C 0.48747 0.33524 0.23677 0.0
H390 H 0.40144 0.37645 0.2794 0.0
C391 C 0.49455 0.36507 0.19132 0.0
C392 C 0.46861 0.39987 0.17834 0.0
H393 H 0.50839 0.3096 0.24746 0.0
H394 H 0.52085 0.36175 0.16747 0.0
C395 C 0.43484 0.4033 0.21019 0.0
C396 C 0.07029 0.87971 0.7604 0.0
C397 C 0.0443 0.84542 0.77412 0.0
H398 H 0.08319 0.9355 0.70491 0.0
C399 C 0.01135 0.83983 0.74035 0.0
H400 H 0.09574 0.88467 0.78643 0.0
C401 C 0.00449 0.86825 0.69319 0.0
C402 C 0.02999 0.90342 0.6802 0.0
H403 H 0.9909 0.81367 0.75067 0.0
H404 H 0.97873 0.86346 0.66783 0.0
C405 C 0.06299 0.90884 0.71417 0.0
loop_
_geom_bond_atom_site_label_1
_geom_bond_atom_site_label_2
_geom_bond_distance
_geom_bond_site_symmetry_2
_ccdc_geom_bond_type
C0 C1 1.391 . S
C0 C4 1.391 . S
C0 H42 0.948 . S
C1 C0 1.391 . S
C1 C2 1.391 . S
C2 C1 1.391 . S
C2 H58 0.947 . S
C2 C59 1.392 . S
C3 C4 1.391 . S
C3 C7 1.397 . S
C3 C59 1.419 . S
C4 C0 1.391 . S
C4 C3 1.391 . S
C4 C5 1.399 . S
C5 C4 1.399 . S
C5 C8 1.396 . S
C5 C17 1.453 . S
C5 C18 1.684 . S
H6 C30 0.948 . S
C7 C3 1.397 . S
C7 C8 1.394 . S
C7 C26 1.723 1_556 S
C8 C5 1.396 . S
C8 C7 1.394 . S
C8 C38 1.723 1_556 S
H9 C32 0.947 . S
H10 C33 0.948 . S
H11 C39 0.982 . S
H12 C40 0.979 . S
H13 C40 0.980 . S
H14 C40 0.983 . S
H15 C39 0.979 . S
H16 C39 0.977 . S
C17 C5 1.453 . S
C17 H46 0.982 . S
C17 H47 0.979 . S
C17 H48 0.977 . S
C18 C5 1.684 . S
C18 H43 0.979 . S
C18 H44 0.980 . S
C18 H45 0.983 . S
C19 C20 1.391 . S
C19 C24 1.391 . S
C19 H49 0.948 . S
C20 C19 1.391 . S
C20 C21 1.391 . S
C21 C20 1.391 . S
C21 C22 1.392 . S
C21 H50 0.947 . S
C22 C21 1.392 . S
C22 C23 1.419 . S
C22 H51 0.948 . S
C23 C22 1.419 . S
C23 C24 1.391 . S
C23 C27 1.397 . S
C24 C19 1.391 . S
C24 C23 1.391 . S
C24 C25 1.399 . S
C25 C24 1.399 . S
C25 C26 1.396 . S
C25 C28 1.453 . S
C25 C29 1.684 . S
C26 C7 1.723 1_554 S
C26 C25 1.396 . S
C26 C27 1.394 . S
C27 C23 1.397 . S
C27 C26 1.394 . S
C27 C37 1.723 . S
C28 C25 1.453 . S
C28 H52 0.982 . S
C28 H53 0.979 . S
C28 H54 0.977 . S
C29 C25 1.684 . S
C29 H55 0.976 1_455 S
C29 H56 0.980 . S
C29 H57 0.983 1_455 S
C30 H6 0.948 . S
C30 C31 1.391 . S
C30 C35 1.391 . S
C31 C30 1.391 . S
C31 C32 1.391 1_554 S
C32 H9 0.947 . S
C32 C31 1.391 1_556 S
C32 C33 1.392 . S
C33 H10 0.948 . S
C33 C32 1.392 . S
C33 C34 1.419 1_556 S
C34 C33 1.419 1_554 S
C34 C35 1.391 . S
C34 C38 1.397 . S
C35 C30 1.391 . S
C35 C34 1.391 . S
C35 C36 1.399 . S
C36 C35 1.399 . S
C36 C37 1.396 . S
C36 C39 1.453 . S
C36 C40 1.684 . S
C37 C27 1.723 . S
C37 C36 1.396 . S
C37 C38 1.394 . S
C38 C8 1.723 1_554 S
C38 C34 1.397 . S
C38 C37 1.394 . S
C39 H11 0.982 . S
C39 H15 0.979 . S
C39 H16 0.977 . S
C39 C36 1.453 . S
C40 H12 0.979 . S
C40 H13 0.980 . S
C40 H14 0.983 . S
C40 C36 1.684 . S
H41 C59 0.948 . S
H42 C0 0.948 . S
H43 C18 0.979 . S
H44 C18 0.980 . S
H45 C18 0.983 . S
H46 C17 0.982 . S
H47 C17 0.979 . S
H48 C17 0.977 . S
H49 C19 0.948 . S
H50 C21 0.947 . S
H51 C22 0.948 . S
H52 C28 0.982 . S
H53 C28 0.979 . S
H54 C28 0.977 . S
H55 C29 0.976 1_655 S
H56 C29 0.980 . S
H57 C29 0.983 1_655 S
H58 C2 0.947 . S
C59 C2 1.392 . S
C59 C3 1.419 . S
C59 H41 0.948 . S
C60 C61 1.391 . S
C60 C64 1.391 . S
C60 H102 0.948 . S
C61 C60 1.391 . S
C61 C62 1.391 . S
C62 C61 1.391 . S
C62 H118 0.947 . S
C62 C119 1.392 . S
C63 C64 1.391 . S
C63 C67 1.397 . S
C63 C119 1.419 . S
C64 C60 1.391 . S
C64 C63 1.391 . S
C64 C65 1.399 . S
C65 C64 1.399 . S
C65 C68 1.396 . S
C65 C77 1.453 . S
C65 C78 1.684 . S
H66 C90 0.948 . S
C67 C63 1.397 . S
C67 C68 1.394 . S
C67 C86 1.723 . S
C68 C65 1.396 . S
C68 C67 1.394 . S
C68 C98 1.723 . S
H69 C92 0.947 . S
H70 C93 0.948 . S
H71 C99 0.982 . S
H72 C100 0.979 . S
H73 C100 0.980 . S
H74 C100 0.983 . S
H75 C99 0.979 . S
H76 C99 0.977 . S
C77 C65 1.453 . S
C77 H106 0.982 . S
C77 H107 0.979 . S
C77 H108 0.977 . S
C78 C65 1.684 . S
C78 H103 0.979 . S
C78 H104 0.980 . S
C78 H105 0.983 . S
C79 C80 1.391 . S
C79 C84 1.391 . S
C79 H109 0.948 . S
C80 C79 1.391 . S
C80 C81 1.391 . S
C81 C80 1.391 . S
C81 C82 1.392 . S
C81 H110 0.947 . S
C82 C81 1.392 . S
C82 C83 1.419 . S
C82 H111 0.948 . S
C83 C82 1.419 . S
C83 C84 1.391 . S
C83 C87 1.397 . S
C84 C79 1.391 . S
C84 C83 1.391 . S
C84 C85 1.399 . S
C85 C84 1.399 . S
C85 C86 1.396 . S
C85 C88 1.453 . S
C85 C89 1.684 . S
C86 C67 1.723 . S
C86 C85 1.396 . S
C86 C87 1.394 . S
C87 C83 1.397 . S
C87 C86 1.394 . S
C87 C97 1.723 . S
C88 C85 1.453 . S
C88 H112 0.982 . S
C88 H113 0.979 . S
C88 H114 0.977 . S
C89 C85 1.684 . S
C89 H115 0.979 . S
C89 H116 0.980 . S
C89 H117 0.983 . S
C90 H66 0.948 . S
C90 C91 1.391 . S
C90 C95 1.391 . S
C91 C90 1.391 . S
C91 C92 1.391 . S
C92 H69 0.947 . S
C92 C91 1.391 . S
C92 C93 1.392 . S
C93 H70 0.948 . S
C93 C92 1.392 . S
C93 C94 1.419 . S
C94 C93 1.419 . S
C94 C95 1.391 . S
C94 C98 1.397 . S
C95 C90 1.391 . S
C95 C94 1.391 . S
C95 C96 1.399 . S
C96 C95 1.399 . S
C96 C97 1.396 . S
C96 C99 1.453 . S
C96 C100 1.684 . S
C97 C87 1.723 . S
C97 C96 1.396 . S
C97 C98 1.394 . S
C98 C68 1.723 . S
C98 C94 1.397 . S
C98 C97 1.394 . S
C99 H71 0.982 . S
C99 H75 0.979 . S
C99 H76 0.977 . S
C99 C96 1.453 . S
C100 H72 0.979 . S
C100 H73 0.980 . S
C100 H74 0.983 . S
C100 C96 1.684 . S
H101 C119 0.948 . S
H102 C60 0.948 . S
H103 C78 0.979 . S
H104 C78 0.980 . S
H105 C78 0.983 . S
H106 C77 0.982 . S
H107 C77 0.979 . S
H108 C77 0.977 . S
H109 C79 0.948 . S
H110 C81 0.947 . S
H111 C82 0.948 . S
H112 C88 0.982 . S
H113 C88 0.979 . S
H114 C88 0.977 . S
H115 C89 0.979 . S
H116 C89 0.980 . S
H117 C89 0.983 . S
H118 C62 0.947 . S
C119 C62 1.392 . S
C119 C63 1.419 . S
C119 H101 0.948 . S
C120 C121 1.391 . S
C120 C124 1.391 . S
C120 H162 0.948 . S
C121 C120 1.391 . S
C121 C122 1.391 . S
C122 C121 1.391 . S
C122 H178 0.947 . S
C122 C179 1.392 . S
C123 C124 1.391 . S
C123 C127 1.397 . S
C123 C179 1.419 . S
C124 C120 1.391 . S
C124 C123 1.391 . S
C124 C125 1.399 . S
C125 C124 1.399 . S
C125 C128 1.396 . S
C125 C137 1.453 . S
C125 C138 1.684 . S
H126 C150 0.948 . S
C127 C123 1.397 . S
C127 C128 1.394 . S
C127 C146 1.723 . S
C128 C125 1.396 . S
C128 C127 1.394 . S
C128 C158 1.723 . S
H129 C152 0.947 . S
H130 C153 0.948 . S
H131 C159 0.982 . S
H132 C160 0.979 . S
H133 C160 0.980 . S
H134 C160 0.983 . S
H135 C159 0.979 . S
H136 C159 0.977 . S
C137 C125 1.453 . S
C137 H166 0.982 . S
C137 H167 0.979 . S
C137 H168 0.977 . S
C138 C125 1.684 . S
C138 H163 0.979 . S
C138 H164 0.980 . S
C138 H165 0.983 . S
C139 C140 1.391 . S
C139 C144 1.391 . S
C139 H169 0.948 . S
C140 C139 1.391 . S
C140 C141 1.391 . S
C141 C140 1.391 . S
C141 C142 1.392 . S
C141 H170 0.947 . S
C142 C141 1.392 . S
C142 C143 1.419 . S
C142 H171 0.948 . S
C143 C142 1.419 . S
C143 C144 1.391 . S
C143 C147 1.397 . S
C144 C139 1.391 . S
C144 C143 1.391 . S
C144 C145 1.399 . S
C145 C144 1.399 . S
C145 C146 1.396 1_556 S
C145 C148 1.453 . S
C145 C149 1.684 . S
C146 C127 1.723 . S
C146 C145 1.396 1_554 S
C146 C147 1.394 1_554 S
C147 C143 1.397 . S
C147 C146 1.394 1_556 S
C147 C157 1.723 . S
C148 C145 1.453 . S
C148 H172 0.982 . S
C148 H173 0.999 . S
C148 H174 0.977 1_556 S
C149 C145 1.684 . S
C149 H175 0.979 . S
C149 H176 0.980 1_556 S
C149 H177 0.983 . S
C150 H126 0.948 . S
C150 C151 1.391 1_556 S
C150 C155 1.391 . S
C151 C150 1.391 1_554 S
C151 C152 1.391 . S
C152 H129 0.947 . S
C152 C151 1.391 . S
C152 C153 1.392 . S
C153 H130 0.948 . S
C153 C152 1.392 . S
C153 C154 1.419 . S
C154 C153 1.419 . S
C154 C155 1.391 1_554 S
C154 C158 1.397 . S
C155 C150 1.391 . S
C155 C154 1.391 1_556 S
C155 C156 1.399 . S
C156 C155 1.399 . S
C156 C157 1.396 . S
C156 C159 1.453 . S
C156 C160 1.684 . S
C157 C147 1.723 . S
C157 C156 1.396 . S
C157 C158 1.394 1_556 S
C158 C128 1.723 . S
C158 C154 1.397 . S
C158 C157 1.394 1_554 S
C159 H131 0.982 . S
C159 H135 0.979 . S
C159 H136 0.977 . S
C159 C156 1.453 . S
C160 H132 0.979 . S
C160 H133 0.980 . S
C160 H134 0.983 . S
C160 C156 1.684 . S
H161 C179 0.948 . S
H162 C120 0.948 . S
H163 C138 0.979 . S
H164 C138 0.980 . S
H165 C138 0.983 . S
H166 C137 0.982 . S
H167 C137 0.979 . S
H168 C137 0.977 . S
H169 C139 0.948 . S
H170 C141 0.947 . S
H171 C142 0.948 . S
H172 C148 0.982 . S
H173 C148 0.999 . S
H174 C148 0.977 1_554 S
H175 C149 0.979 . S
H176 C149 0.980 1_554 S
H177 C149 0.983 . S
H178 C122 0.947 . S
C179 C122 1.392 . S
C179 C123 1.419 . S
C179 H161 0.948 . S
C180 C181 1.391 . S
C180 C184 1.391 . S
C180 H222 0.948 . S
C181 C180 1.391 . S
C181 C182 1.391 . S
C182 C181 1.391 . S
C182 H238 0.947 . S
C182 C239 1.392 . S
C183 C184 1.391 . S
C183 C187 1.397 . S
C183 C239 1.419 . S
C184 C180 1.391 . S
C184 C183 1.391 . S
C184 C185 1.399 . S
C185 C184 1.399 . S
C185 C188 1.396 . S
C185 C197 1.453 . S
C185 C198 1.684 . S
H186 C210 0.948 . S
C187 C183 1.397 . S
C187 C188 1.394 . S
C187 C206 1.723 . S
C188 C185 1.396 . S
C188 C187 1.394 . S
C188 C218 1.723 . S
H189 C212 0.947 . S
H190 C213 0.948 . S
H191 C219 0.982 . S
H192 C220 0.979 . S
H193 C220 0.980 . S
H194 C220 0.983 . S
H195 C219 0.979 . S
H196 C219 0.977 . S
C197 C185 1.453 . S
C197 H226 0.982 . S
C197 H227 0.979 . S
C197 H228 0.977 . S
C198 C185 1.684 . S
C198 H223 0.979 . S
C198 H224 0.980 . S
C198 H225 0.983 . S
C199 C200 1.391 . S
C199 C204 1.391 . S
C199 H229 0.948 . S
C200 C199 1.391 . S
C200 C201 1.391 . S
C201 C200 1.391 . S
C201 C202 1.392 . S
C201 H230 0.947 . S
C202 C201 1.392 . S
C202 C203 1.419 . S
C202 H231 0.948 . S
C203 C202 1.419 . S
C203 C204 1.391 . S
C203 C207 1.397 . S
C204 C199 1.391 . S
C204 C203 1.391 . S
C204 C205 1.399 . S
C205 C204 1.399 . S
C205 C206 1.396 . S
C205 C208 1.453 . S
C205 C209 1.684 . S
C206 C187 1.723 . S
C206 C205 1.396 . S
C206 C207 1.394 . S
C207 C203 1.397 . S
C207 C206 1.394 . S
C207 C217 1.723 . S
C208 C205 1.453 . S
C208 H232 0.982 . S
C208 H233 0.979 . S
C208 H234 0.977 . S
C209 C205 1.684 . S
C209 H235 0.979 . S
C209 H236 0.980 . S
C209 H237 0.983 . S
C210 H186 0.948 . S
C210 C211 1.391 . S
C210 C215 1.391 . S
C211 C210 1.391 . S
C211 C212 1.391 . S
C212 H189 0.947 . S
C212 C211 1.391 . S
C212 C213 1.392 . S
C213 H190 0.948 . S
C213 C212 1.392 . S
C213 C214 1.419 . S
C214 C213 1.419 . S
C214 C215 1.391 . S
C214 C218 1.397 . S
C215 C210 1.391 . S
C215 C214 1.391 . S
C215 C216 1.399 . S
C216 C215 1.399 . S
C216 C217 1.396 . S
C216 C219 1.453 . S
C216 C220 1.684 . S
C217 C207 1.723 . S
C217 C216 1.396 . S
C217 C218 1.394 . S
C218 C188 1.723 . S
C218 C214 1.397 . S
C218 C217 1.394 . S
C219 H191 0.982 . S
C219 H195 0.979 . S
C219 H196 0.977 . S
C219 C216 1.453 . S
C220 H192 0.979 . S
C220 H193 0.980 . S
C220 H194 0.983 . S
C220 C216 1.684 . S
H221 C239 0.948 . S
H222 C180 0.948 . S
H223 C198 0.979 . S
H224 C198 0.980 . S
H225 C198 0.983 . S
H226 C197 0.982 . S
H227 C197 0.979 . S
H228 C197 0.977 . S
H229 C199 0.948 . S
H230 C201 0.947 . S
H231 C202 0.948 . S
H232 C208 0.982 . S
H233 C208 0.979 . S
H234 C208 0.977 . S
H235 C209 0.979 . S
H236 C209 0.980 . S
H237 C209 0.983 . S
H238 C182 0.947 . S
C239 C182 1.392 . S
C239 C183 1.419 . S
C239 H221 0.948 . S
O240 Zn241 1.953 1_565 S
O240 C256 1.225 . S
Zn241 O240 1.953 1_545 S
Zn241 O242 1.949 1_655 S
Zn241 O248 1.919 . S
Zn241 O253 1.924 . S
O242 Zn241 1.949 1_455 S
O242 Zn243 1.923 . S
O242 Zn244 1.950 1_445 S
O242 Zn245 1.945 . S
Zn243 O242 1.923 . S
Zn243 O246 1.933 . S
Zn243 O249 1.941 . S
Zn243 O250 1.965 1_545 S
Zn244 O242 1.950 1_665 S
Zn244 O251 1.938 1_655 S
Zn244 O252 1.906 1_655 S
Zn244 O262 1.953 . S
Zn245 O242 1.945 . S
Zn245 O247 1.932 . S
Zn245 O254 1.977 1_545 S
Zn245 O255 1.910 1_455 S
O246 Zn243 1.933 . S
O246 C257 1.226 . S
O247 Zn245 1.932 . S
O247 C257 1.307 . S
O248 Zn241 1.919 . S
O248 C259 1.253 . S
O249 Zn243 1.941 . S
O249 C259 1.283 1_455 S
O250 Zn243 1.965 1_565 S
O250 C258 1.303 . S
O251 Zn244 1.938 1_455 S
O251 C258 1.247 . S
O252 Zn244 1.906 1_455 S
O252 C260 1.304 . S
O253 Zn241 1.924 . S
O253 C261 1.311 . S
O254 Zn245 1.977 1_565 S
O254 C260 1.272 . S
O255 Zn245 1.910 1_655 S
O255 C261 1.231 . S
C256 O240 1.225 . S
C256 O262 1.298 . S
C257 O246 1.226 . S
C257 O247 1.307 . S
C258 O250 1.303 . S
C258 O251 1.247 . S
C259 O248 1.253 . S
C259 O249 1.283 1_655 S
C260 O252 1.304 . S
C260 O254 1.272 . S
C261 O253 1.311 . S
C261 O255 1.231 . S
O262 Zn244 1.953 . S
O262 C256 1.298 . S
O263 Zn264 1.953 . S
O263 C279 1.225 . S
Zn264 O263 1.953 . S
Zn264 O265 1.949 . S
Zn264 O271 1.919 1_554 S
Zn264 O276 1.924 . S
O265 Zn264 1.949 . S
O265 Zn266 1.923 1_554 S
O265 Zn267 1.950 . S
O265 Zn268 1.945 . S
Zn266 O265 1.923 1_556 S
Zn266 O269 1.933 . S
Zn266 O272 1.941 . S
Zn266 O273 1.965 . S
Zn267 O265 1.950 . S
Zn267 O274 1.938 1_554 S
Zn267 O275 1.906 . S
Zn267 O285 1.953 . S
Zn268 O265 1.945 . S
Zn268 O270 1.932 . S
Zn268 O277 1.977 . S
Zn268 O278 1.910 . S
O269 Zn266 1.933 . S
O269 C280 1.226 1_556 S
O270 Zn268 1.932 . S
O270 C280 1.307 . S
O271 Zn264 1.919 1_556 S
O271 C282 1.253 . S
O272 Zn266 1.941 . S
O272 C282 1.283 . S
O273 Zn266 1.965 . S
O273 C281 1.303 . S
O274 Zn267 1.938 1_556 S
O274 C281 1.247 . S
O275 Zn267 1.906 . S
O275 C283 1.304 . S
O276 Zn264 1.924 . S
O276 C284 1.311 . S
O277 Zn268 1.977 . S
O277 C283 1.272 . S
O278 Zn268 1.910 . S
O278 C284 1.231 . S
C279 O263 1.225 . S
C279 O285 1.298 . S
C280 O269 1.226 1_554 S
C280 O270 1.307 . S
C281 O273 1.303 . S
C281 O274 1.247 . S
C282 O271 1.253 . S
C282 O272 1.283 . S
C283 O275 1.304 . S
C283 O277 1.272 . S
C284 O276 1.311 . S
C284 O278 1.231 . S
O285 Zn267 1.953 . S
O285 C279 1.298 . S
C286 C287 1.387 . S
C286 H290 0.950 . S
C286 C295 1.390 . S
C287 C286 1.387 . S
C287 C289 1.387 . S
H288 C295 0.950 . S
C289 C287 1.387 . S
C289 C291 1.390 . S
C289 H293 0.950 . S
H290 C286 0.950 . S
C291 C289 1.390 . S
C291 C292 1.387 . S
C291 H294 0.950 . S
C292 C291 1.387 . S
C292 C295 1.387 . S
H293 C289 0.950 . S
H294 C291 0.950 . S
C295 C286 1.390 . S
C295 H288 0.950 . S
C295 C292 1.387 . S
C296 C297 1.387 . S
C296 H300 0.950 . S
C296 C305 1.390 . S
C297 C296 1.387 . S
C297 C299 1.387 1_554 S
H298 C305 0.950 . S
C299 C297 1.387 1_556 S
C299 C301 1.390 . S
C299 H303 0.950 . S
H300 C296 0.950 . S
C301 C299 1.390 . S
C301 C302 1.387 1_556 S
C301 H304 0.950 . S
C302 C301 1.387 1_554 S
C302 C305 1.387 . S
H303 C299 0.950 . S
H304 C301 0.950 . S
C305 C296 1.390 . S
C305 H298 0.950 . S
C305 C302 1.387 . S
C306 C307 1.387 . S
C306 H310 0.950 . S
C306 C315 1.390 . S
C307 C306 1.387 . S
C307 C309 1.387 . S
H308 C315 0.950 . S
C309 C307 1.387 . S
C309 C311 1.390 . S
C309 H313 0.950 . S
H310 C306 0.950 . S
C311 C309 1.390 . S
C311 C312 1.387 . S
C311 H314 0.950 . S
C312 C311 1.387 . S
C312 C315 1.387 . S
H313 C309 0.950 . S
H314 C311 0.950 . S
C315 C306 1.390 . S
C315 H308 0.950 . S
C315 C312 1.387 . S
C316 C317 1.387 . S
C316 H320 0.950 . S
C316 C325 1.390 . S
C317 C316 1.387 . S
C317 C319 1.387 1_554 S
H318 C325 0.950 . S
C319 C317 1.387 1_556 S
C319 C321 1.390 . S
C319 H323 0.950 . S
H320 C316 0.950 . S
C321 C319 1.390 . S
C321 C322 1.387 1_556 S
C321 H324 0.950 . S
C322 C321 1.387 1_554 S
C322 C325 1.387 . S
H323 C319 0.950 . S
H324 C321 0.950 . S
C325 C316 1.390 . S
C325 H318 0.950 . S
C325 C322 1.387 . S
C326 C327 1.387 . S
C326 H330 0.950 1_455 S
C326 C335 1.390 . S
C327 C326 1.387 . S
C327 C329 1.387 . S
H328 C335 0.950 . S
C329 C327 1.387 . S
C329 C331 1.390 . S
C329 H333 0.950 . S
H330 C326 0.950 1_655 S
C331 C329 1.390 . S
C331 C332 1.387 . S
C331 H334 0.950 . S
C332 C331 1.387 . S
C332 C335 1.387 . S
H333 C329 0.950 . S
H334 C331 0.950 . S
C335 C326 1.390 . S
C335 H328 0.950 . S
C335 C332 1.387 . S
C336 C337 1.387 . S
C336 H340 0.950 . S
C336 C345 1.390 . S
C337 C336 1.387 . S
C337 C339 1.387 . S
H338 C345 0.950 . S
C339 C337 1.387 . S
C339 C341 1.390 . S
C339 H343 0.950 . S
H340 C336 0.950 . S
C341 C339 1.390 . S
C341 C342 1.387 . S
C341 H344 0.950 . S
C342 C341 1.387 . S
C342 C345 1.387 . S
H343 C339 0.950 . S
H344 C341 0.950 . S
C345 C336 1.390 . S
C345 H338 0.950 . S
C345 C342 1.387 . S
C346 C347 1.387 . S
C346 H350 0.950 . S
C346 C355 1.390 . S
C347 C346 1.387 . S
C347 C349 1.387 . S
H348 C355 0.950 . S
C349 C347 1.387 . S
C349 C351 1.390 . S
C349 H353 0.950 1_655 S
H350 C346 0.950 . S
C351 C349 1.390 . S
C351 C352 1.387 . S
C351 H354 0.950 1_655 S
C352 C351 1.387 . S
C352 C355 1.387 . S
H353 C349 0.950 1_455 S
H354 C351 0.950 1_455 S
C355 C346 1.390 . S
C355 H348 0.950 . S
C355 C352 1.387 . S
C356 C357 1.387 . S
C356 H360 0.950 . S
C356 C365 1.390 . S
C357 C356 1.387 . S
C357 C359 1.387 . S
H358 C365 0.950 . S
C359 C357 1.387 . S
C359 C361 1.390 . S
C359 H363 0.950 . S
H360 C356 0.950 . S
C361 C359 1.390 . S
C361 C362 1.387 . S
C361 H364 0.950 . S
C362 C361 1.387 . S
C362 C365 1.387 . S
H363 C359 0.950 . S
H364 C361 0.950 . S
C365 C356 1.390 . S
C365 H358 0.950 . S
C365 C362 1.387 . S
C366 C367 1.387 . S
C366 H370 0.950 . S
C366 C375 1.390 . S
C367 C366 1.387 . S
C367 C369 1.387 . S
H368 C375 0.950 . S
C369 C367 1.387 . S
C369 C371 1.390 . S
C369 H373 0.950 . S
H370 C366 0.950 . S
C371 C369 1.390 . S
C371 C372 1.387 . S
C371 H374 0.950 . S
C372 C371 1.387 . S
C372 C375 1.387 . S
H373 C369 0.950 . S
H374 C371 0.950 . S
C375 C366 1.390 . S
C375 H368 0.950 . S
C375 C372 1.387 . S
C376 C377 1.387 . S
C376 H380 0.950 1_655 S
C376 C385 1.390 1_655 S
C377 C376 1.387 . S
C377 C379 1.387 . S
H378 C385 0.950 . S
C379 C377 1.387 . S
C379 C381 1.390 . S
C379 H383 0.950 . S
H380 C376 0.950 1_455 S
C381 C379 1.390 . S
C381 C382 1.387 . S
C381 H384 0.950 . S
C382 C381 1.387 . S
C382 C385 1.387 1_655 S
H383 C379 0.950 . S
H384 C381 0.950 . S
C385 C376 1.390 1_455 S
C385 H378 0.950 . S
C385 C382 1.387 1_455 S
C386 C387 1.387 . S
C386 H390 0.950 . S
C386 C395 1.390 . S
C387 C386 1.387 . S
C387 C389 1.387 . S
H388 C395 0.950 . S
C389 C387 1.387 . S
C389 C391 1.390 . S
C389 H393 0.950 . S
H390 C386 0.950 . S
C391 C389 1.390 . S
C391 C392 1.387 . S
C391 H394 0.950 . S
C392 C391 1.387 . S
C392 C395 1.387 . S
H393 C389 0.950 . S
H394 C391 0.950 . S
C395 C386 1.390 . S
C395 H388 0.950 . S
C395 C392 1.387 . S
C396 C397 1.387 . S
C396 H400 0.950 . S
C396 C405 1.390 . S
C397 C396 1.387 . S
C397 C399 1.387 . S
H398 C405 0.950 . S
C399 C397 1.387 . S
C399 C401 1.390 . S
C399 H403 0.950 1_455 S
H400 C396 0.950 . S
C401 C399 1.390 . S
C401 C402 1.387 . S
C401 H404 0.950 1_455 S
C402 C401 1.387 . S
C402 C405 1.387 . S
H403 C399 0.950 1_655 S
H404 C401 0.950 1_655 S
C405 C396 1.390 . S
C405 H398 0.950 . S
C405 C402 1.387 . S
C292 C257 1.698 . S
C287 C211 1.591 . S
C297 C31 1.679 . S
C302 C280 1.696 . S
C307 C91 1.682 . S
C312 C256 1.704 . S
C317 C151 1.591 . S
C322 C279 1.704 . S
C332 C260 1.709 . S
C327 C20 1.780 . S
C342 C282 1.689 . S
C337 C61 1.631 . S
C347 C121 1.644 . S
C352 C261 1.691 . S
C357 C200 1.617 . S
C362 C281 1.638 . S
C372 C284 1.689 . S
C367 C80 1.794 . S
C382 C259 1.690 . S
C377 C140 1.637 . S
C392 C283 1.710 . S
C387 C181 1.632 . S
C397 C1 1.611 . S
C402 C258 1.639 . S
