# Generated by pormake.
# Topology pyr, (3,6)-cn, num edge types: 1
# Building blocks:
#     Node 0, Type 0, BuildingBlock: ESEHIV_clean_linker_0, # of connection points: 3
#     Node 1, Type 0, BuildingBlock: ESEHIV_clean_linker_0, # of connection points: 3
#     Node 2, Type 0, BuildingBlock: ESEHIV_clean_linker_0, # of connection points: 3
#     Node 3, Type 0, BuildingBlock: ESEHIV_clean_linker_0, # of connection points: 3
#     Node 4, Type 0, BuildingBlock: ESEHIV_clean_linker_0, # of connection points: 3
#     Node 5, Type 0, BuildingBlock: ESEHIV_clean_linker_0, # of connection points: 3
#     Node 6, Type 0, BuildingBlock: ESEHIV_clean_linker_0, # of connection points: 3
#     Node 7, Type 0, BuildingBlock: ESEHIV_clean_linker_0, # of connection points: 3
#     Node 8, Type 1, BuildingBlock: INOVEN_clean_sbu_0, # of connection points: 6
#     Node 9, Type 1, BuildingBlock: INOVEN_clean_sbu_0, # of connection points: 6
#     Node 10, Type 1, BuildingBlock: INOVEN_clean_sbu_0, # of connection points: 6
#     Node 11, Type 1, BuildingBlock: INOVEN_clean_sbu_0, # of connection points: 6
#     Edge 12, Type (0, 1), BuildingBlock: AJUNOK_clean_linker_0, # of connection points: 2
#     Edge 13, Type (0, 1), BuildingBlock: AJUNOK_clean_linker_0, # of connection points: 2
#     Edge 14, Type (0, 1), BuildingBlock: AJUNOK_clean_linker_0, # of connection points: 2
#     Edge 15, Type (0, 1), BuildingBlock: AJUNOK_clean_linker_0, # of connection points: 2
#     Edge 16, Type (0, 1), BuildingBlock: AJUNOK_clean_linker_0, # of connection points: 2
#     Edge 17, Type (0, 1), BuildingBlock: AJUNOK_clean_linker_0, # of connection points: 2
#     Edge 18, Type (0, 1), BuildingBlock: AJUNOK_clean_linker_0, # of connection points: 2
#     Edge 19, Type (0, 1), BuildingBlock: AJUNOK_clean_linker_0, # of connection points: 2
#     Edge 20, Type (0, 1), BuildingBlock: AJUNOK_clean_linker_0, # of connection points: 2
#     Edge 21, Type (0, 1), BuildingBlock: AJUNOK_clean_linker_0, # of connection points: 2
#     Edge 22, Type (0, 1), BuildingBlock: AJUNOK_clean_linker_0, # of connection points: 2
#     Edge 23, Type (0, 1), BuildingBlock: AJUNOK_clean_linker_0, # of connection points: 2
#     Edge 24, Type (0, 1), BuildingBlock: AJUNOK_clean_linker_0, # of connection points: 2
#     Edge 25, Type (0, 1), BuildingBlock: AJUNOK_clean_linker_0, # of connection points: 2
#     Edge 26, Type (0, 1), BuildingBlock: AJUNOK_clean_linker_0, # of connection points: 2
#     Edge 27, Type (0, 1), BuildingBlock: AJUNOK_clean_linker_0, # of connection points: 2
#     Edge 28, Type (0, 1), BuildingBlock: AJUNOK_clean_linker_0, # of connection points: 2
#     Edge 29, Type (0, 1), BuildingBlock: AJUNOK_clean_linker_0, # of connection points: 2
#     Edge 30, Type (0, 1), BuildingBlock: AJUNOK_clean_linker_0, # of connection points: 2
#     Edge 31, Type (0, 1), BuildingBlock: AJUNOK_clean_linker_0, # of connection points: 2
#     Edge 32, Type (0, 1), BuildingBlock: AJUNOK_clean_linker_0, # of connection points: 2
#     Edge 33, Type (0, 1), BuildingBlock: AJUNOK_clean_linker_0, # of connection points: 2
#     Edge 34, Type (0, 1), BuildingBlock: AJUNOK_clean_linker_0, # of connection points: 2
#     Edge 35, Type (0, 1), BuildingBlock: AJUNOK_clean_linker_0, # of connection points: 2
# Relax obj value: 0.213
# Max RMSD: 0.165
# Mean RMSD: 0.076
data_MOF--net-pyr--node1-INOVEN_clean_sbu_0--node2-ESEHIV_clean_linker_0--edge1-AJUNOK_clean_linker_0
_symmetry_space_group_name_H-M    P1
_symmetry_Int_Tables_number       1
_symmetry_cell_setting            triclinic
loop_
_symmetry_equiv_pos_as_xyz
'x, y, z'
_cell_length_a     25.760206
_cell_length_b     28.004301
_cell_length_c     25.29272
_cell_angle_alpha  90.820389
_cell_angle_beta   88.63777
_cell_angle_gamma 103.69723
loop_
_atom_site_label
_atom_site_type_symbol
_atom_site_fract_x
_atom_site_fract_y
_atom_site_fract_z
_atom_type_partial_charge
H0 H 0.35601 0.36684 0.28609 0.0
H1 H 0.46711 0.27599 0.30794 0.0
H2 H 0.4174 0.30214 0.15231 0.0
C3 C 0.38546 0.3482 0.27039 0.0
C4 C 0.38762 0.3413 0.21556 0.0
C5 C 0.41255 0.32378 0.30468 0.0
C6 C 0.44703 0.29635 0.28242 0.0
C7 C 0.44833 0.28792 0.22763 0.0
C8 C 0.4191 0.31099 0.19422 0.0
H9 H 0.14507 0.88979 0.76311 0.0
H10 H 0.22076 0.76952 0.74547 0.0
H11 H 0.18848 0.84474 0.60826 0.0
C12 C 0.15976 0.8641 0.73794 0.0
C13 C 0.16132 0.87007 0.68274 0.0
C14 C 0.18266 0.82873 0.76087 0.0
C15 C 0.20171 0.79588 0.72779 0.0
C16 C 0.20589 0.80274 0.67298 0.0
C17 C 0.18384 0.83861 0.65051 0.0
H18 H 0.72481 0.34773 0.95965 0.0
H19 H 0.73141 0.47386 0.862 0.0
H20 H 0.60418 0.34279 0.84316 0.0
C21 C 0.70774 0.36583 0.92942 0.0
C22 C 0.66054 0.33884 0.90524 0.0
C23 C 0.73317 0.41513 0.9162 0.0
C24 C 0.71151 0.43691 0.87356 0.0
C25 C 0.66495 0.41194 0.84541 0.0
C26 C 0.63986 0.36264 0.86276 0.0
H27 H 0.84751 0.76006 0.46548 0.0
H28 H 0.96939 0.76706 0.34337 0.0
H29 H 0.83721 0.63877 0.35777 0.0
C30 C 0.8645 0.74337 0.43253 0.0
C31 C 0.83717 0.69574 0.4158 0.0
C32 C 0.91192 0.77075 0.40739 0.0
C33 C 0.93263 0.74764 0.36259 0.0
C34 C 0.90727 0.69862 0.34403 0.0
C35 C 0.85869 0.67466 0.37117 0.0
H36 H 0.62972 0.82885 0.82794 0.0
H37 H 0.68838 0.70135 0.86178 0.0
H38 H 0.63949 0.78618 0.98761 0.0
C39 C 0.63442 0.80052 0.85487 0.0
C40 C 0.62317 0.80652 0.90879 0.0
C41 C 0.66089 0.76415 0.83791 0.0
C42 C 0.66809 0.72938 0.87478 0.0
C43 C 0.66548 0.73977 0.92901 0.0
C44 C 0.6403 0.77685 0.94588 0.0
H45 H 0.86106 0.35654 0.37544 0.0
H46 H 0.93538 0.2349 0.36649 0.0
H47 H 0.8924 0.28803 0.51775 0.0
C48 C 0.87973 0.33094 0.39504 0.0
C49 C 0.87527 0.32671 0.45019 0.0
C50 C 0.89767 0.2957 0.36452 0.0
C51 C 0.92091 0.2619 0.38993 0.0
C52 C 0.91925 0.25873 0.4454 0.0
C53 C 0.89749 0.29222 0.47525 0.0
H54 H 0.35863 0.77371 0.18165 0.0
H55 H 0.35175 0.64811 0.2803 0.0
H56 H 0.47929 0.77883 0.29802 0.0
C57 C 0.37631 0.75539 0.2112 0.0
C58 C 0.42377 0.78248 0.23512 0.0
C59 C 0.35005 0.70648 0.22528 0.0
C60 C 0.37138 0.68508 0.26847 0.0
C61 C 0.41734 0.71059 0.29707 0.0
C62 C 0.44314 0.75944 0.27894 0.0
H63 H 0.10662 0.35773 0.79821 0.0
H64 H 0.22916 0.36468 0.67774 0.0
H65 H 0.24082 0.4854 0.78639 0.0
C66 C 0.14403 0.37714 0.78031 0.0
C67 C 0.17066 0.42525 0.80073 0.0
C68 C 0.16414 0.3547 0.73486 0.0
C69 C 0.21223 0.38146 0.71068 0.0
C70 C 0.23955 0.42899 0.72745 0.0
C71 C 0.21891 0.44963 0.77297 0.0
Gd72 Gd 0.06073 0.08582 0.51875 0.0
Gd73 Gd 1.0092 1.04334 0.61917 0.0
C74 C 0.07694 0.1557 0.62982 0.0
C75 C 0.09906 0.14719 0.4452 0.0
C76 C 0.14659 0.18801 0.44786 0.0
C77 C 0.18451 0.18793 0.48692 0.0
C78 C 0.15638 0.2252 0.41005 0.0
C79 C 0.24574 0.25621 0.44423 0.0
C80 C 0.20571 0.25938 0.40841 0.0
C81 C 0.23401 0.22153 0.4848 0.0
C82 C 0.11946 1.03726 0.57436 0.0
C83 C 0.9947 0.97272 0.50846 0.0
C84 C 0.96837 0.98547 0.69503 0.0
C85 C 0.9203 0.9443 0.69759 0.0
C86 C 0.86971 0.95362 0.70793 0.0
C87 C 0.9242 0.89551 0.68929 0.0
C88 C 0.82853 0.86616 0.70592 0.0
C89 C 0.87869 0.85678 0.69342 0.0
C90 C 0.8244 0.91503 0.7119 0.0
C91 C 0.95126 0.09229 0.56247 0.0
O92 O 0.07818 0.15252 0.5771 0.0
O93 O 0.05802 0.11476 0.65724 0.0
O94 O 0.10883 0.10348 0.44742 0.0
O95 O 0.05868 0.15176 0.47554 0.0
O96 O 0.11859 1.03744 0.52322 0.0
O97 O 0.09253 0.06573 0.59322 0.0
O98 O 0.99265 0.9758 0.5613 0.0
O99 O 1.01356 1.01372 0.48104 0.0
O100 O 0.95968 1.02929 0.6898 0.0
O101 O 1.00873 0.97872 0.66576 0.0
O102 O 0.95305 0.09354 0.61351 0.0
O103 O 0.97753 0.06298 0.54459 0.0
H104 H 0.17715 0.15981 0.517 0.0
H105 H 0.12727 0.22607 0.38008 0.0
H106 H 0.21434 0.28535 0.37619 0.0
H107 H 0.26451 0.2181 0.5123 0.0
H108 H 0.86513 0.99071 0.71451 0.0
H109 H 0.96255 0.88714 0.68094 0.0
H110 H 0.88304 0.81935 0.68929 0.0
H111 H 0.78668 0.92341 0.72318 0.0
Gd112 Gd 0.59302 0.06164 0.08913 0.0
Gd113 Gd 0.49992 1.05198 1.04426 0.0
C114 C 0.52064 0.12109 0.14163 0.0
C115 C 0.69312 0.07822 0.11371 0.0
C116 C 0.73582 0.12065 0.12791 0.0
C117 C 0.77987 0.11285 0.15482 0.0
C118 C 0.73004 0.16869 0.12074 0.0
C119 C 0.80685 0.19992 0.17592 0.0
C120 C 0.76575 0.20825 0.14429 0.0
C121 C 0.8153 0.15226 0.17862 0.0
C122 C 0.51984 0.98381 0.13899 0.0
C123 C 0.57216 0.98383 0.99464 0.0
C124 C 0.40261 1.03045 1.01188 0.0
C125 C 0.36057 0.98877 0.99491 0.0
C126 C 0.31358 0.99792 0.97537 0.0
C127 C 0.36776 0.94071 0.995 0.0
C128 C 0.28401 0.91228 0.94893 0.0
C129 C 0.32951 0.90256 0.97227 0.0
C130 C 0.27557 0.96002 0.95244 0.0
C131 C 0.5618 0.14447 1.01411 0.0
O132 O 0.57004 0.12746 0.12463 0.0
O133 O 0.48631 0.08184 0.1249 0.0
O134 O 0.65377 0.06694 0.14805 0.0
O135 O 0.67672 0.07619 0.06526 0.0
O136 O 0.55267 1.01964 0.1625 0.0
O137 O 0.52478 0.99272 0.08961 0.0
O138 O 0.52616 0.99612 0.99052 0.0
O139 O 0.60563 1.00497 1.03085 0.0
O140 O 0.44427 1.04322 0.98009 0.0
O141 O 0.41507 1.03152 1.06169 0.0
O142 O 0.51231 0.13378 1.02902 0.0
O143 O 0.57816 0.10468 1.01723 0.0
H144 H 0.7848 0.07591 0.16053 0.0
H145 H 0.69618 0.17524 0.09984 0.0
H146 H 0.75873 0.24476 0.14137 0.0
H147 H 0.84635 0.14476 0.2031 0.0
H148 H 0.30757 1.03494 0.97529 0.0
H149 H 0.40389 0.93319 1.01039 0.0
H150 H 0.33709 0.86615 0.96988 0.0
H151 H 0.24184 0.96909 0.93365 0.0
Gd152 Gd 0.53003 0.51956 0.54298 0.0
Gd153 Gd 0.54766 0.60167 0.60055 0.0
C154 C 0.58645 0.51588 0.66056 0.0
C155 C 0.54314 0.44267 0.49179 0.0
C156 C 0.58794 0.4185 0.49248 0.0
C157 C 0.60438 0.40177 0.54005 0.0
C158 C 0.61972 0.41925 0.44658 0.0
C159 C 0.68588 0.39137 0.49663 0.0
C160 C 0.66842 0.40601 0.44869 0.0
C161 C 0.65306 0.38823 0.54208 0.0
C162 C 0.43658 0.52036 0.59851 0.0
C163 C 0.493 0.60605 0.48238 0.0
C164 C 0.52997 0.67815 0.64874 0.0
C165 C 0.48272 0.69756 0.64123 0.0
C166 C 0.48167 0.74546 0.65657 0.0
C167 C 0.43801 0.66736 0.61705 0.0
C168 C 0.39064 0.73215 0.62471 0.0
C169 C 0.3927 0.68465 0.60827 0.0
C170 C 0.43561 0.76253 0.64887 0.0
C171 C 0.64069 0.60182 0.54439 0.0
O172 O 0.57649 0.49505 0.61292 0.0
O173 O 0.57704 0.56008 0.66697 0.0
O174 O 0.51339 0.44007 0.53459 0.0
O175 O 0.55542 0.48672 0.47209 0.0
O176 O 0.43999 0.5094 0.54874 0.0
O177 O 0.48386 0.53292 0.61606 0.0
O178 O 0.50335 0.62666 0.52985 0.0
O179 O 0.50149 0.56154 0.47593 0.0
O180 O 0.56187 0.68117 0.60757 0.0
O181 O 0.51993 0.63485 0.67027 0.0
O182 O 0.63789 0.61345 0.59412 0.0
O183 O 0.59324 0.58848 0.52733 0.0
H184 H 0.58067 0.40081 0.57607 0.0
H185 H 0.60793 0.43214 0.40955 0.0
H186 H 0.69278 0.40766 0.41293 0.0
H187 H 0.66574 0.37663 0.57933 0.0
H188 H 0.51583 0.76913 0.67534 0.0
H189 H 0.43775 0.62992 0.60557 0.0
H190 H 0.35875 0.6604 0.58979 0.0
H191 H 0.43458 0.79882 0.66354 0.0
Gd192 Gd 0.03443 0.52272 0.10307 0.0
Gd193 Gd 0.04508 0.60108 1.04267 0.0
C194 C 0.14725 0.60789 0.11343 0.0
C195 C 0.05368 0.4445 0.14421 0.0
C196 C 0.10322 0.42724 0.14514 0.0
C197 C 0.10663 0.38773 0.17705 0.0
C198 C 0.14775 0.45067 0.11417 0.0
C199 C 0.19936 0.39625 0.14846 0.0
C200 C 0.19558 0.43553 0.11613 0.0
C201 C 0.15438 0.37227 0.17867 0.0
C202 C 0.98465 0.58698 0.15872 0.0
C203 C 0.93331 0.51518 1.0306 0.0
C204 C 1.02029 0.67734 1.0032 0.0
C205 C 0.96694 0.68775 1.00137 0.0
C206 C 0.95629 0.72158 0.9654 0.0
C207 C 0.92553 0.6623 1.03494 0.0
C208 C 0.86296 0.70307 0.99528 0.0
C209 C 0.87395 0.66971 1.03174 0.0
C210 C 0.9047 0.72938 0.96256 0.0
C211 C 0.09481 0.53705 0.98706 0.0
O212 O 0.12014 0.56304 0.1259 0.0
O213 O 0.12631 0.63261 0.07908 0.0
O214 O 0.05367 0.48436 0.17139 0.0
O215 O 0.03373 0.44534 0.09754 0.0
O216 O 0.96671 0.53967 0.154 0.0
O217 O 1.02845 0.59844 0.13139 0.0
O218 O 0.96075 0.55961 1.01743 0.0
O219 O 0.95351 0.49119 0.06615 0.0
O220 O 1.02709 0.6403 0.97433 0.0
O221 O 0.03912 0.67677 1.05046 0.0
O222 O 0.11257 0.58455 0.99092 0.0
O223 O 0.05111 0.52545 1.01458 0.0
H224 H 0.07266 0.36927 0.20114 0.0
H225 H 0.14564 0.48095 0.08878 0.0
H226 H 0.22971 0.45464 0.09264 0.0
H227 H 0.15664 0.3425 0.20473 0.0
H228 H 0.98763 0.74149 0.9392 0.0
H229 H 0.933 0.63635 1.06345 0.0
H230 H 0.84267 0.64943 1.05777 0.0
H231 H 0.89708 0.75516 0.93391 0.0
C232 C 0.37612 0.26371 0.37559 0.0
C233 C 0.38997 0.3132 0.35939 0.0
C234 C 0.33286 0.24669 0.41015 0.0
C235 C 0.30183 0.27837 0.42936 0.0
H236 H 0.39351 0.23625 0.35633 0.0
H237 H 0.31965 0.20741 0.41631 0.0
S238 S 0.33403 0.41364 0.41643 0.0
N239 N 0.38008 0.39601 0.37955 0.0
N240 N 0.2957 0.36291 0.44168 0.0
C241 C 0.32046 0.32892 0.421 0.0
C242 C 0.36579 0.34664 0.38709 0.0
C243 C 0.25665 0.83824 0.82432 0.0
C244 C 0.20225 0.8362 0.81587 0.0
C245 C 0.28136 0.85801 0.8707 0.0
C246 C 0.25296 0.87713 0.91047 0.0
H247 H 0.282 0.82876 0.79307 0.0
H248 H 0.32424 0.86269 0.87285 0.0
S249 S 0.10732 0.87012 0.91357 0.0
N250 N 0.11864 0.84677 0.85525 0.0
N251 N 0.16569 0.88499 0.9429 0.0
C252 C 0.19744 0.87068 0.90521 0.0
C253 C 0.172 0.85009 0.85778 0.0
C254 C 0.62649 0.41444 0.7497 0.0
C255 C 0.64339 0.43821 0.7987 0.0
C256 C 0.60939 0.43911 0.70589 0.0
C257 C 0.60701 0.48948 0.70757 0.0
H258 H 0.6273 0.37618 0.74456 0.0
H259 H 0.59748 0.41798 0.67024 0.0
S260 S 0.64314 0.56943 0.82668 0.0
N261 N 0.65371 0.51629 0.84523 0.0
N262 N 0.62234 0.56119 0.76529 0.0
C263 C 0.62296 0.51336 0.75661 0.0
C264 C 0.64075 0.48847 0.80092 0.0
C265 C 0.95597 0.69477 0.25096 0.0
C266 C 0.93048 0.67108 0.29755 0.0
C267 C 0.97416 0.66863 0.20724 0.0
C268 C 0.96789 0.61669 0.20651 0.0
H269 H 0.96106 0.73409 0.24751 0.0
H270 H 0.99232 0.68943 0.17304 0.0
S271 S 0.91123 0.53637 0.32022 0.0
N272 N 0.9067 0.59148 0.3406 0.0
N273 N 0.93747 0.5438 0.2599 0.0
C274 C 0.94396 0.59295 0.2533 0.0
C275 C 0.9264 0.61941 0.29788 0.0
C276 C 0.52182 0.24635 0.20256 0.0
C277 C 0.46717 0.24507 0.20765 0.0
C278 C 0.53898 0.20527 0.18306 0.0
C279 C 0.50197 0.16146 0.16884 0.0
H280 H 0.5513 0.27949 0.21274 0.0
H281 H 0.58152 0.20826 0.17812 0.0
S282 S 0.35401 0.13921 0.17994 0.0
N283 N 0.37621 0.19647 0.20044 0.0
N284 N 0.4078 0.11914 0.16455 0.0
C285 C 0.4471 0.1595 0.176 0.0
C286 C 0.42988 0.20138 0.1952 0.0
C287 C 0.12045 0.90735 0.61012 0.0
C288 C 0.14726 0.91323 0.65848 0.0
C289 C 0.11228 0.94789 0.58283 0.0
C290 C 0.12922 0.99564 0.60365 0.0
H291 H 0.10644 0.87114 0.59272 0.0
H292 H 0.09216 0.9417 0.54534 0.0
S293 S 0.20161 1.03202 0.72779 0.0
N294 N 0.19262 0.97167 0.72478 0.0
N295 N 0.17306 1.04729 0.67489 0.0
C296 C 0.15455 1.0023 0.65238 0.0
C297 C 0.16453 0.96122 0.67955 0.0
C298 C 0.82592 0.47674 0.92194 0.0
C299 C 0.78283 0.44299 0.94703 0.0
C300 C 0.87312 0.50053 0.94918 0.0
C301 C 0.88094 0.49151 1.00307 0.0
H302 H 0.82398 0.48421 0.88027 0.0
H303 H 0.9046 0.5253 0.92714 0.0
S304 S 0.77912 0.41272 0.09067 0.0
N305 N 0.7502 0.4077 1.03265 0.0
N306 N 0.83905 0.44919 0.08142 0.0
C307 C 0.83799 0.45909 1.02909 0.0
C308 C 0.78933 0.43587 1.00193 0.0
C309 C 0.78519 0.67007 0.503 0.0
C310 C 0.78685 0.66839 0.44693 0.0
C311 C 0.7389 0.64768 0.5334 0.0
C312 C 0.69073 0.62219 0.51 0.0
H313 H 0.82033 0.68909 0.52403 0.0
H314 H 0.74086 0.65112 0.57605 0.0
S315 S 0.67192 0.60577 0.36497 0.0
N316 N 0.73435 0.63791 0.36962 0.0
N317 N 0.64845 0.59621 0.42624 0.0
C318 C 0.69177 0.61941 0.45406 0.0
C319 C 0.73918 0.64214 0.42292 0.0
C320 C 0.34297 0.40556 0.18519 0.0
C321 C 0.3464 0.35619 0.18418 0.0
C322 C 0.29626 0.41869 0.17 0.0
C323 C 0.25117 0.38274 0.15419 0.0
H324 H 0.37534 0.43373 0.20106 0.0
H325 H 0.2942 0.45677 0.17412 0.0
S326 S 0.24183 0.24913 0.13947 0.0
N327 N 0.3025 0.27184 0.16184 0.0
N328 N 0.21464 0.29655 0.13337 0.0
C329 C 0.25537 0.33374 0.14968 0.0
C330 C 0.3031 0.32046 0.16456 0.0
C331 C 0.66421 0.25245 0.94128 0.0
C332 C 0.63376 0.28681 0.92753 0.0
C333 C 0.64161 0.20679 0.96756 0.0
C334 C 0.58691 0.19237 0.98297 0.0
H335 H 0.70662 0.26109 0.93197 0.0
H336 H 0.66773 0.18309 0.97689 0.0
S337 S 0.48851 0.26802 0.95818 0.0
N338 N 0.5448 0.30134 0.93258 0.0
N339 N 0.50305 0.21808 0.98149 0.0
C340 C 0.55603 0.22628 0.9692 0.0
C341 C 0.57893 0.27228 0.94183 0.0
C342 C 0.93921 0.83086 0.48657 0.0
C343 C 0.93803 0.8226 0.43088 0.0
C344 C 0.95733 0.87831 0.51036 0.0
C345 C 0.97576 0.92179 0.48056 0.0
H346 H 0.92561 0.79995 0.51276 0.0
H347 H 0.9565 0.88074 0.55313 0.0
S348 S 0.98272 0.92288 0.33311 0.0
N349 N 0.95848 0.86418 0.34676 0.0
N350 N 0.99235 0.95205 0.39062 0.0
C351 C 0.97583 0.91426 0.42476 0.0
C352 C 0.95737 0.86557 0.40042 0.0
C353 C 0.24592 0.73215 0.65113 0.0
C354 C 0.24557 0.78164 0.64342 0.0
C355 C 0.29222 0.71543 0.64122 0.0
C356 C 0.33959 0.74755 0.62268 0.0
H357 H 0.21169 0.70734 0.66944 0.0
H358 H 0.29196 0.67813 0.65221 0.0
S359 S 0.35597 0.87762 0.58478 0.0
N360 N 0.29426 0.86082 0.6088 0.0
N361 N 0.38049 0.82836 0.5877 0.0
C362 C 0.33786 0.79547 0.60886 0.0
C363 C 0.29089 0.81274 0.61955 0.0
C364 C 0.75221 0.77157 0.79861 0.0
C365 C 0.69872 0.77438 0.79145 0.0
C366 C 0.79362 0.79671 0.76587 0.0
C367 C 0.78366 0.82628 0.72493 0.0
H368 H 0.76385 0.75455 0.83312 0.0
H369 H 0.83423 0.79731 0.7767 0.0
S370 S 0.65038 0.83393 0.6787 0.0
N371 N 0.63727 0.79921 0.73192 0.0
N372 N 0.71614 0.84841 0.67112 0.0
C373 C 0.7302 0.82426 0.71264 0.0
C374 C 0.68754 0.79783 0.74569 0.0
C375 C 0.90986 0.26979 0.27036 0.0
C376 C 0.87738 0.28411 0.31016 0.0
C377 C 0.88761 0.24631 0.22394 0.0
C378 C 0.83227 0.23686 0.21563 0.0
H379 H 0.95215 0.27393 0.27667 0.0
H380 H 0.91328 0.23272 0.19591 0.0
S381 S 0.72997 0.26874 0.30618 0.0
N382 N 0.78691 0.28835 0.33687 0.0
N383 N 0.74598 0.24579 0.2494 0.0
C384 C 0.80001 0.25419 0.25323 0.0
C385 C 0.82233 0.27743 0.3006 0.0
C386 C 0.44023 0.63479 0.34311 0.0
C387 C 0.43787 0.68514 0.34486 0.0
C388 C 0.45764 0.6102 0.38652 0.0
C389 C 0.4732 0.63348 0.43596 0.0
H390 H 0.429 0.61384 0.30716 0.0
H391 H 0.45867 0.57202 0.38105 0.0
S392 S 0.47214 0.76428 0.46484 0.0
N393 N 0.45203 0.75653 0.40308 0.0
N394 N 0.48302 0.71117 0.48317 0.0
C395 C 0.47032 0.68364 0.43863 0.0
C396 C 0.45338 0.70893 0.39406 0.0
C397 C 0.16003 0.50413 0.85304 0.0
C398 C 0.14881 0.45182 0.84907 0.0
C399 C 0.14295 0.53017 0.89679 0.0
C400 C 0.11206 0.50652 0.94037 0.0
H401 H 0.18214 0.52613 0.82144 0.0
H402 H 0.15388 0.56994 0.89593 0.0
S403 S 0.07128 0.37053 0.95396 0.0
N404 N 0.10474 0.37786 0.89692 0.0
N405 N 0.07162 0.42629 0.97639 0.0
C406 C 0.0998 0.45439 0.93729 0.0
C407 C 0.11802 0.42755 0.89289 0.0
C408 C 0.64739 0.88853 0.95212 0.0
C409 C 0.60868 0.85229 0.92689 0.0
C410 C 0.63567 0.93204 0.97082 0.0
C411 C 0.58444 0.9411 0.96566 0.0
H412 H 0.68711 0.88297 0.95785 0.0
H413 H 0.66696 0.9582 0.9909 0.0
S414 S 0.46981 0.85841 0.89926 0.0
N415 N 0.51819 0.82882 0.89439 0.0
N416 N 0.49523 0.91047 0.93086 0.0
C417 C 0.54576 0.90575 0.93862 0.0
C418 C 0.55809 0.86137 0.91897 0.0
C419 C 0.95651 0.22219 0.52119 0.0
C420 C 0.9306 0.2156 0.47232 0.0
C421 C 0.96186 0.18192 0.55079 0.0
C422 C 0.94293 0.1337 0.53184 0.0
H423 H 0.9721 0.25878 0.53709 0.0
H424 H 0.98166 0.18866 0.58841 0.0
S425 S 0.87112 0.09549 0.40775 0.0
N426 N 0.88327 0.15609 0.40797 0.0
N427 N 0.89777 0.08084 0.46213 0.0
C428 C 0.91816 0.12628 0.48286 0.0
C429 C 0.91099 0.16713 0.45336 0.0
C430 C 0.25659 0.64553 0.22064 0.0
C431 C 0.29968 0.67892 0.19505 0.0
C432 C 0.20879 0.6221 0.19403 0.0
C433 C 0.20025 0.63114 0.14029 0.0
H434 H 0.25901 0.63805 0.26225 0.0
H435 H 0.17742 0.5976 0.21647 0.0
S436 S 0.30142 0.70926 1.05149 0.0
N437 N 0.33124 0.71396 0.10903 0.0
N438 N 0.24136 0.67328 1.06155 0.0
C439 C 0.24311 0.66329 0.11379 0.0
C440 C 0.29238 0.68609 0.14028 0.0
C441 C 0.33841 0.47864 0.71883 0.0
C442 C 0.28895 0.45655 0.69528 0.0
C443 C 0.38535 0.50003 0.68811 0.0
C444 C 0.38556 0.50095 0.63201 0.0
H445 H 0.3414 0.47809 0.76143 0.0
H446 H 0.42213 0.51512 0.7086 0.0
S447 S 0.26569 0.453 0.5504 0.0
N448 N 0.24335 0.44091 0.61162 0.0
N449 N 0.32969 0.4802 0.55509 0.0
C450 C 0.33586 0.48065 0.60832 0.0
C451 C 0.28844 0.45884 0.63939 0.0
C452 C 0.74953 0.76584 0.97843 0.0
C453 C 0.70729 0.7271 0.96184 0.0
C454 C 0.799 0.7574 0.99185 0.0
C455 C 0.80792 0.70985 0.98996 0.0
H456 H 0.74606 0.80359 0.97647 0.0
H457 H 0.83133 0.78863 1.00131 0.0
S458 S 0.70837 0.59501 0.95665 0.0
N459 N 0.67601 0.63886 0.94966 0.0
N460 N 0.76898 0.62281 0.9758 0.0
C461 C 0.76479 0.67026 0.97795 0.0
C462 C 0.71446 0.67893 0.96371 0.0
C463 C 0.45073 0.84367 0.15678 0.0
C464 C 0.45125 0.8342 0.21207 0.0
C465 C 0.47214 0.89098 0.13398 0.0
C466 C 0.49605 0.93286 0.16452 0.0
H467 H 0.4336 0.81385 0.13008 0.0
H468 H 0.46996 0.8946 0.09156 0.0
S469 S 0.50848 0.93098 0.31102 0.0
N470 N 0.47845 0.87355 0.2964 0.0
N471 N 0.51857 0.9607 0.25433 0.0
C472 C 0.49738 0.92417 0.21972 0.0
C473 C 0.47544 0.87585 0.24303 0.0
C474 C 0.12047 0.25992 0.73841 0.0
C475 C 0.13633 0.30432 0.70946 0.0
C476 C 0.10136 0.21276 0.71328 0.0
C477 C 0.09683 0.20663 0.65744 0.0
H478 H 0.12432 0.26132 0.78097 0.0
H479 H 0.09075 0.18059 0.73811 0.0
S480 S 0.1281 0.31093 0.5628 0.0
N481 N 0.1418 0.3379 0.62093 0.0
N482 N 0.10763 0.25164 0.57491 0.0
C483 C 0.11114 0.25099 0.62841 0.0
C484 C 0.13023 0.29868 0.65384 0.0
C485 C 0.83125 0.3957 0.46854 0.0
C486 C 0.83355 0.34683 0.47751 0.0
C487 C 0.78401 0.41104 0.4784 0.0
C488 C 0.73782 0.37809 0.49794 0.0
H489 H 0.86489 0.42112 0.45006 0.0
H490 H 0.78264 0.44809 0.46788 0.0
S491 S 0.7241 0.24772 0.53268 0.0
N492 N 0.78633 0.26656 0.51067 0.0
N493 N 0.69811 0.29611 0.53013 0.0
C494 C 0.74079 0.33048 0.51131 0.0
C495 C 0.78865 0.31466 0.50094 0.0
loop_
_geom_bond_atom_site_label_1
_geom_bond_atom_site_label_2
_geom_bond_distance
_geom_bond_site_symmetry_2
_ccdc_geom_bond_type
H0 C3 0.931 . S
H1 C6 0.928 . S
H2 C8 0.930 . S
C3 H0 0.931 . S
C3 C4 1.413 . S
C3 C5 1.360 . S
C4 C3 1.413 . S
C4 C8 1.429 . S
C5 C3 1.360 . S
C5 C6 1.372 . S
C6 H1 0.928 . S
C6 C5 1.372 . S
C6 C7 1.404 . S
C7 C6 1.404 . S
C7 C8 1.391 . S
C8 H2 0.930 . S
C8 C4 1.429 . S
C8 C7 1.391 . S
H9 C12 0.931 . S
H10 C15 0.928 . S
H11 C17 0.930 . S
C12 H9 0.931 . S
C12 C13 1.413 . S
C12 C14 1.360 . S
C13 C12 1.413 . S
C13 C17 1.429 . S
C14 C12 1.360 . S
C14 C15 1.372 . S
C15 H10 0.928 . S
C15 C14 1.372 . S
C15 C16 1.404 . S
C16 C15 1.404 . S
C16 C17 1.391 . S
C17 H11 0.930 . S
C17 C13 1.429 . S
C17 C16 1.391 . S
H18 C21 0.931 . S
H19 C24 0.928 . S
H20 C26 0.930 . S
C21 H18 0.931 . S
C21 C22 1.413 . S
C21 C23 1.360 . S
C22 C21 1.413 . S
C22 C26 1.429 . S
C23 C21 1.360 . S
C23 C24 1.372 . S
C24 H19 0.928 . S
C24 C23 1.372 . S
C24 C25 1.404 . S
C25 C24 1.404 . S
C25 C26 1.391 . S
C26 H20 0.930 . S
C26 C22 1.429 . S
C26 C25 1.391 . S
H27 C30 0.931 . S
H28 C33 0.928 . S
H29 C35 0.930 . S
C30 H27 0.931 . S
C30 C31 1.413 . S
C30 C32 1.360 . S
C31 C30 1.413 . S
C31 C35 1.429 . S
C32 C30 1.360 . S
C32 C33 1.372 . S
C33 H28 0.928 . S
C33 C32 1.372 . S
C33 C34 1.404 . S
C34 C33 1.404 . S
C34 C35 1.391 . S
C35 H29 0.930 . S
C35 C31 1.429 . S
C35 C34 1.391 . S
H36 C39 0.931 . S
H37 C42 0.928 . S
H38 C44 0.930 . S
C39 H36 0.931 . S
C39 C40 1.413 . S
C39 C41 1.360 . S
C40 C39 1.413 . S
C40 C44 1.429 . S
C41 C39 1.360 . S
C41 C42 1.372 . S
C42 H37 0.928 . S
C42 C41 1.372 . S
C42 C43 1.404 . S
C43 C42 1.404 . S
C43 C44 1.391 . S
C44 H38 0.930 . S
C44 C40 1.429 . S
C44 C43 1.391 . S
H45 C48 0.931 . S
H46 C51 0.928 . S
H47 C53 0.930 . S
C48 H45 0.931 . S
C48 C49 1.413 . S
C48 C50 1.360 . S
C49 C48 1.413 . S
C49 C53 1.429 . S
C50 C48 1.360 . S
C50 C51 1.372 . S
C51 H46 0.928 . S
C51 C50 1.372 . S
C51 C52 1.404 . S
C52 C51 1.404 . S
C52 C53 1.391 . S
C53 H47 0.930 . S
C53 C49 1.429 . S
C53 C52 1.391 . S
H54 C57 0.931 . S
H55 C60 0.928 . S
H56 C62 0.930 . S
C57 H54 0.931 . S
C57 C58 1.413 . S
C57 C59 1.360 . S
C58 C57 1.413 . S
C58 C62 1.429 . S
C59 C57 1.360 . S
C59 C60 1.372 . S
C60 H55 0.928 . S
C60 C59 1.372 . S
C60 C61 1.404 . S
C61 C60 1.404 . S
C61 C62 1.391 . S
C62 H56 0.930 . S
C62 C58 1.429 . S
C62 C61 1.391 . S
H63 C66 0.931 . S
H64 C69 0.928 . S
H65 C71 0.930 . S
C66 H63 0.931 . S
C66 C67 1.413 . S
C66 C68 1.360 . S
C67 C66 1.413 . S
C67 C71 1.429 . S
C68 C66 1.360 . S
C68 C69 1.372 . S
C69 H64 0.928 . S
C69 C68 1.372 . S
C69 C70 1.404 . S
C70 C69 1.404 . S
C70 C71 1.391 . S
C71 H65 0.930 . S
C71 C67 1.429 . S
C71 C70 1.391 . S
Gd72 C75 2.818 . S
Gd72 O92 2.377 . S
Gd72 O94 2.448 . S
Gd72 O95 2.506 . S
Gd72 O96 2.435 1_545 S
Gd72 O97 2.717 1_545 S
Gd72 O99 2.395 1_445 S
Gd72 O103 2.327 1_455 S
Gd73 C84 2.818 . S
Gd73 O93 2.395 1_665 S
Gd73 O97 2.327 1_655 S
Gd73 O98 2.377 . S
Gd73 O100 2.448 . S
Gd73 O101 2.506 . S
Gd73 O102 2.435 1_565 S
Gd73 O103 2.717 1_565 S
C74 O92 1.240 . S
C74 O93 1.240 . S
C75 Gd72 2.818 . S
C75 C76 1.510 . S
C75 O94 1.249 . S
C75 O95 1.252 . S
C76 C75 1.510 . S
C76 C77 1.404 . S
C76 C78 1.352 . S
C77 C76 1.404 . S
C77 C81 1.389 . S
C77 H104 0.930 . S
C78 C76 1.352 . S
C78 C80 1.374 . S
C78 H105 0.931 . S
C79 C80 1.359 . S
C79 C81 1.364 . S
C80 C78 1.374 . S
C80 C79 1.359 . S
C80 H106 0.931 . S
C81 C77 1.389 . S
C81 C79 1.364 . S
C81 H107 0.931 . S
C82 O96 1.256 . S
C82 O97 1.257 . S
C83 O98 1.240 . S
C83 O99 1.240 . S
C84 Gd73 2.818 . S
C84 C85 1.510 . S
C84 O100 1.249 . S
C84 O101 1.252 . S
C85 C84 1.510 . S
C85 C86 1.404 . S
C85 C87 1.352 . S
C86 C85 1.404 . S
C86 C90 1.389 . S
C86 H108 0.930 . S
C87 C85 1.352 . S
C87 C89 1.374 . S
C87 H109 0.931 . S
C88 C89 1.359 . S
C88 C90 1.364 . S
C89 C87 1.374 . S
C89 C88 1.359 . S
C89 H110 0.931 . S
C90 C86 1.389 . S
C90 C88 1.364 . S
C90 H111 0.931 . S
C91 O102 1.256 . S
C91 O103 1.257 . S
O92 Gd72 2.377 . S
O92 C74 1.240 . S
O93 Gd73 2.395 1_445 S
O93 C74 1.240 . S
O94 Gd72 2.448 . S
O94 C75 1.249 . S
O95 Gd72 2.506 . S
O95 C75 1.252 . S
O96 Gd72 2.435 1_565 S
O96 C82 1.256 . S
O97 Gd72 2.717 1_565 S
O97 Gd73 2.327 1_455 S
O97 C82 1.257 . S
O98 Gd73 2.377 . S
O98 C83 1.240 . S
O99 Gd72 2.395 1_665 S
O99 C83 1.240 . S
O100 Gd73 2.448 . S
O100 C84 1.249 . S
O101 Gd73 2.506 . S
O101 C84 1.252 . S
O102 Gd73 2.435 1_545 S
O102 C91 1.256 . S
O103 Gd72 2.327 1_655 S
O103 Gd73 2.717 1_545 S
O103 C91 1.257 . S
H104 C77 0.930 . S
H105 C78 0.931 . S
H106 C80 0.931 . S
H107 C81 0.931 . S
H108 C86 0.930 . S
H109 C87 0.931 . S
H110 C89 0.931 . S
H111 C90 0.931 . S
Gd112 C115 2.818 1_565 S
Gd112 O132 2.377 1_565 S
Gd112 O134 2.448 1_565 S
Gd112 O135 2.506 1_565 S
Gd112 O136 2.435 . S
Gd112 O137 2.717 . S
Gd112 O139 2.395 1_554 S
Gd112 O143 2.327 1_564 S
Gd113 C124 2.818 1_545 S
Gd113 O133 2.395 1_556 S
Gd113 O137 2.327 1_546 S
Gd113 O138 2.377 1_545 S
Gd113 O140 2.448 1_545 S
Gd113 O141 2.506 1_545 S
Gd113 O142 2.435 . S
Gd113 O143 2.717 . S
C114 O132 1.240 . S
C114 O133 1.240 . S
C115 Gd112 2.818 1_545 S
C115 C116 1.510 . S
C115 O134 1.249 . S
C115 O135 1.252 . S
C116 C115 1.510 . S
C116 C117 1.404 . S
C116 C118 1.352 . S
C117 C116 1.404 . S
C117 C121 1.389 . S
C117 H144 0.930 . S
C118 C116 1.352 . S
C118 C120 1.374 . S
C118 H145 0.931 . S
C119 C120 1.359 . S
C119 C121 1.364 . S
C120 C118 1.374 . S
C120 C119 1.359 . S
C120 H146 0.931 . S
C121 C117 1.389 . S
C121 C119 1.364 . S
C121 H147 0.931 . S
C122 O136 1.256 . S
C122 O137 1.257 . S
C123 O138 1.240 . S
C123 O139 1.240 . S
C124 Gd113 2.818 1_565 S
C124 C125 1.510 . S
C124 O140 1.249 . S
C124 O141 1.252 . S
C125 C124 1.510 . S
C125 C126 1.404 . S
C125 C127 1.352 . S
C126 C125 1.404 . S
C126 C130 1.389 . S
C126 H148 0.930 . S
C127 C125 1.352 . S
C127 C129 1.374 . S
C127 H149 0.931 . S
C128 C129 1.359 . S
C128 C130 1.364 . S
C129 C127 1.374 . S
C129 C128 1.359 . S
C129 H150 0.931 . S
C130 C126 1.389 . S
C130 C128 1.364 . S
C130 H151 0.931 . S
C131 O142 1.256 . S
C131 O143 1.257 . S
O132 Gd112 2.377 1_545 S
O132 C114 1.240 . S
O133 Gd113 2.395 1_554 S
O133 C114 1.240 . S
O134 Gd112 2.448 1_545 S
O134 C115 1.249 . S
O135 Gd112 2.506 1_545 S
O135 C115 1.252 . S
O136 Gd112 2.435 . S
O136 C122 1.256 . S
O137 Gd112 2.717 . S
O137 Gd113 2.327 1_564 S
O137 C122 1.257 . S
O138 Gd113 2.377 1_565 S
O138 C123 1.240 . S
O139 Gd112 2.395 1_556 S
O139 C123 1.240 . S
O140 Gd113 2.448 1_565 S
O140 C124 1.249 . S
O141 Gd113 2.506 1_565 S
O141 C124 1.252 . S
O142 Gd113 2.435 . S
O142 C131 1.256 . S
O143 Gd112 2.327 1_546 S
O143 Gd113 2.717 . S
O143 C131 1.257 . S
H144 C117 0.930 . S
H145 C118 0.931 . S
H146 C120 0.931 . S
H147 C121 0.931 . S
H148 C126 0.930 . S
H149 C127 0.931 . S
H150 C129 0.931 . S
H151 C130 0.931 . S
Gd152 C155 2.818 . S
Gd152 O172 2.377 . S
Gd152 O174 2.448 . S
Gd152 O175 2.506 . S
Gd152 O176 2.435 . S
Gd152 O177 2.717 . S
Gd152 O179 2.395 . S
Gd152 O183 2.327 . S
Gd153 C164 2.818 . S
Gd153 O173 2.395 . S
Gd153 O177 2.327 . S
Gd153 O178 2.377 . S
Gd153 O180 2.448 . S
Gd153 O181 2.506 . S
Gd153 O182 2.435 . S
Gd153 O183 2.717 . S
C154 O172 1.240 . S
C154 O173 1.240 . S
C155 Gd152 2.818 . S
C155 C156 1.510 . S
C155 O174 1.249 . S
C155 O175 1.252 . S
C156 C155 1.510 . S
C156 C157 1.404 . S
C156 C158 1.352 . S
C157 C156 1.404 . S
C157 C161 1.389 . S
C157 H184 0.930 . S
C158 C156 1.352 . S
C158 C160 1.374 . S
C158 H185 0.931 . S
C159 C160 1.359 . S
C159 C161 1.364 . S
C160 C158 1.374 . S
C160 C159 1.359 . S
C160 H186 0.931 . S
C161 C157 1.389 . S
C161 C159 1.364 . S
C161 H187 0.931 . S
C162 O176 1.256 . S
C162 O177 1.257 . S
C163 O178 1.240 . S
C163 O179 1.240 . S
C164 Gd153 2.818 . S
C164 C165 1.510 . S
C164 O180 1.249 . S
C164 O181 1.252 . S
C165 C164 1.510 . S
C165 C166 1.404 . S
C165 C167 1.352 . S
C166 C165 1.404 . S
C166 C170 1.389 . S
C166 H188 0.930 . S
C167 C165 1.352 . S
C167 C169 1.374 . S
C167 H189 0.931 . S
C168 C169 1.359 . S
C168 C170 1.364 . S
C169 C167 1.374 . S
C169 C168 1.359 . S
C169 H190 0.931 . S
C170 C166 1.389 . S
C170 C168 1.364 . S
C170 H191 0.931 . S
C171 O182 1.256 . S
C171 O183 1.257 . S
O172 Gd152 2.377 . S
O172 C154 1.240 . S
O173 Gd153 2.395 . S
O173 C154 1.240 . S
O174 Gd152 2.448 . S
O174 C155 1.249 . S
O175 Gd152 2.506 . S
O175 C155 1.252 . S
O176 Gd152 2.435 . S
O176 C162 1.256 . S
O177 Gd152 2.717 . S
O177 Gd153 2.327 . S
O177 C162 1.257 . S
O178 Gd153 2.377 . S
O178 C163 1.240 . S
O179 Gd152 2.395 . S
O179 C163 1.240 . S
O180 Gd153 2.448 . S
O180 C164 1.249 . S
O181 Gd153 2.506 . S
O181 C164 1.252 . S
O182 Gd153 2.435 . S
O182 C171 1.256 . S
O183 Gd152 2.327 . S
O183 Gd153 2.717 . S
O183 C171 1.257 . S
H184 C157 0.930 . S
H185 C158 0.931 . S
H186 C160 0.931 . S
H187 C161 0.931 . S
H188 C166 0.930 . S
H189 C167 0.931 . S
H190 C169 0.931 . S
H191 C170 0.931 . S
Gd192 C195 2.818 . S
Gd192 O212 2.377 . S
Gd192 O214 2.448 . S
Gd192 O215 2.506 . S
Gd192 O216 2.435 1_455 S
Gd192 O217 2.717 1_455 S
Gd192 O219 2.395 1_455 S
Gd192 O223 2.327 1_554 S
Gd193 C204 2.816 1_455 S
Gd193 O213 2.398 1_556 S
Gd193 O217 2.327 1_456 S
Gd193 O218 2.375 1_455 S
Gd193 O220 2.447 1_455 S
Gd193 O221 2.503 1_455 S
Gd193 O222 2.437 . S
Gd193 O223 2.719 . S
C194 O212 1.240 . S
C194 O213 1.240 . S
C195 Gd192 2.818 . S
C195 C196 1.510 . S
C195 O214 1.249 . S
C195 O215 1.252 . S
C196 C195 1.510 . S
C196 C197 1.404 . S
C196 C198 1.352 . S
C197 C196 1.404 . S
C197 C201 1.389 . S
C197 H224 0.930 . S
C198 C196 1.352 . S
C198 C200 1.374 . S
C198 H225 0.931 . S
C199 C200 1.359 . S
C199 C201 1.364 . S
C200 C198 1.374 . S
C200 C199 1.359 . S
C200 H226 0.931 . S
C201 C197 1.389 . S
C201 C199 1.364 . S
C201 H227 0.931 . S
C202 O216 1.256 . S
C202 O217 1.257 . S
C203 O218 1.240 . S
C203 O219 1.240 1_556 S
C204 Gd193 2.816 1_655 S
C204 C205 1.510 . S
C204 O220 1.249 . S
C204 O221 1.252 . S
C205 C204 1.510 . S
C205 C206 1.404 . S
C205 C207 1.352 . S
C206 C205 1.404 . S
C206 C210 1.389 . S
C206 H228 0.930 . S
C207 C205 1.352 . S
C207 C209 1.374 . S
C207 H229 0.931 . S
C208 C209 1.359 . S
C208 C210 1.364 . S
C209 C207 1.374 . S
C209 C208 1.359 . S
C209 H230 0.931 . S
C210 C206 1.389 . S
C210 C208 1.364 . S
C210 H231 0.931 . S
C211 O222 1.256 . S
C211 O223 1.257 . S
O212 Gd192 2.377 . S
O212 C194 1.240 . S
O213 Gd193 2.398 1_554 S
O213 C194 1.240 . S
O214 Gd192 2.448 . S
O214 C195 1.249 . S
O215 Gd192 2.506 . S
O215 C195 1.252 . S
O216 Gd192 2.435 1_655 S
O216 C202 1.256 . S
O217 Gd192 2.717 1_655 S
O217 Gd193 2.327 1_654 S
O217 C202 1.257 . S
O218 Gd193 2.375 1_655 S
O218 C203 1.240 . S
O219 Gd192 2.395 1_655 S
O219 C203 1.240 1_554 S
O220 Gd193 2.447 1_655 S
O220 C204 1.249 . S
O221 Gd193 2.503 1_655 S
O221 C204 1.252 . S
O222 Gd193 2.437 . S
O222 C211 1.256 . S
O223 Gd192 2.327 1_556 S
O223 Gd193 2.719 . S
O223 C211 1.257 . S
H224 C197 0.930 . S
H225 C198 0.931 . S
H226 C200 0.931 . S
H227 C201 0.931 . S
H228 C206 0.930 . S
H229 C207 0.931 . S
H230 C209 0.931 . S
H231 C210 0.931 . S
C232 C233 1.369 . S
C232 C234 1.419 . S
C232 H236 0.930 . S
C233 C232 1.369 . S
C233 C242 1.429 . S
C234 C232 1.419 . S
C234 C235 1.363 . S
C234 H237 0.929 . S
C235 C234 1.363 . S
C235 C241 1.428 . S
H236 C232 0.930 . S
H237 C234 0.929 . S
S238 N239 1.613 . S
S238 N240 1.610 . S
N239 S238 1.613 . S
N239 C242 1.350 . S
N240 S238 1.610 . S
N240 C241 1.351 . S
C241 C235 1.428 . S
C241 N240 1.351 . S
C241 C242 1.434 . S
C242 C233 1.429 . S
C242 N239 1.350 . S
C242 C241 1.434 . S
C243 C244 1.369 . S
C243 C245 1.419 . S
C243 H247 0.930 . S
C244 C243 1.369 . S
C244 C253 1.429 . S
C245 C243 1.419 . S
C245 C246 1.363 . S
C245 H248 0.929 . S
C246 C245 1.363 . S
C246 C252 1.428 . S
H247 C243 0.930 . S
H248 C245 0.929 . S
S249 N250 1.613 . S
S249 N251 1.610 . S
N250 S249 1.613 . S
N250 C253 1.350 . S
N251 S249 1.610 . S
N251 C252 1.351 . S
C252 C246 1.428 . S
C252 N251 1.351 . S
C252 C253 1.434 . S
C253 C244 1.429 . S
C253 N250 1.350 . S
C253 C252 1.434 . S
C254 C255 1.369 . S
C254 C256 1.419 . S
C254 H258 0.930 . S
C255 C254 1.369 . S
C255 C264 1.429 . S
C256 C254 1.419 . S
C256 C257 1.363 . S
C256 H259 0.929 . S
C257 C256 1.363 . S
C257 C263 1.428 . S
H258 C254 0.930 . S
H259 C256 0.929 . S
S260 N261 1.613 . S
S260 N262 1.610 . S
N261 S260 1.613 . S
N261 C264 1.350 . S
N262 S260 1.610 . S
N262 C263 1.351 . S
C263 C257 1.428 . S
C263 N262 1.351 . S
C263 C264 1.434 . S
C264 C255 1.429 . S
C264 N261 1.350 . S
C264 C263 1.434 . S
C265 C266 1.369 . S
C265 C267 1.419 . S
C265 H269 0.930 . S
C266 C265 1.369 . S
C266 C275 1.429 . S
C267 C265 1.419 . S
C267 C268 1.363 . S
C267 H270 0.929 . S
C268 C267 1.363 . S
C268 C274 1.428 . S
H269 C265 0.930 . S
H270 C267 0.929 . S
S271 N272 1.613 . S
S271 N273 1.610 . S
N272 S271 1.613 . S
N272 C275 1.350 . S
N273 S271 1.610 . S
N273 C274 1.351 . S
C274 C268 1.428 . S
C274 N273 1.351 . S
C274 C275 1.434 . S
C275 C266 1.429 . S
C275 N272 1.350 . S
C275 C274 1.434 . S
C276 C277 1.369 . S
C276 C278 1.419 . S
C276 H280 0.930 . S
C277 C276 1.369 . S
C277 C286 1.429 . S
C278 C276 1.419 . S
C278 C279 1.363 . S
C278 H281 0.929 . S
C279 C278 1.363 . S
C279 C285 1.428 . S
H280 C276 0.930 . S
H281 C278 0.929 . S
S282 N283 1.613 . S
S282 N284 1.610 . S
N283 S282 1.613 . S
N283 C286 1.350 . S
N284 S282 1.610 . S
N284 C285 1.351 . S
C285 C279 1.428 . S
C285 N284 1.351 . S
C285 C286 1.434 . S
C286 C277 1.429 . S
C286 N283 1.350 . S
C286 C285 1.434 . S
C287 C288 1.369 . S
C287 C289 1.419 . S
C287 H291 0.930 . S
C288 C287 1.369 . S
C288 C297 1.429 . S
C289 C287 1.419 . S
C289 C290 1.363 . S
C289 H292 0.929 . S
C290 C289 1.363 . S
C290 C296 1.428 . S
H291 C287 0.930 . S
H292 C289 0.929 . S
S293 N294 1.613 . S
S293 N295 1.610 . S
N294 S293 1.613 . S
N294 C297 1.350 . S
N295 S293 1.610 . S
N295 C296 1.351 . S
C296 C290 1.428 . S
C296 N295 1.351 . S
C296 C297 1.434 . S
C297 C288 1.429 . S
C297 N294 1.350 . S
C297 C296 1.434 . S
C298 C299 1.369 . S
C298 C300 1.419 . S
C298 H302 0.930 . S
C299 C298 1.369 . S
C299 C308 1.429 . S
C300 C298 1.419 . S
C300 C301 1.363 . S
C300 H303 0.929 . S
C301 C300 1.363 . S
C301 C307 1.428 . S
H302 C298 0.930 . S
H303 C300 0.929 . S
S304 N305 1.613 . S
S304 N306 1.610 . S
N305 S304 1.613 . S
N305 C308 1.350 . S
N306 S304 1.610 . S
N306 C307 1.351 . S
C307 C301 1.428 . S
C307 N306 1.351 . S
C307 C308 1.434 . S
C308 C299 1.429 . S
C308 N305 1.350 . S
C308 C307 1.434 . S
C309 C310 1.369 . S
C309 C311 1.419 . S
C309 H313 0.930 . S
C310 C309 1.369 . S
C310 C319 1.429 . S
C311 C309 1.419 . S
C311 C312 1.363 . S
C311 H314 0.929 . S
C312 C311 1.363 . S
C312 C318 1.428 . S
H313 C309 0.930 . S
H314 C311 0.929 . S
S315 N316 1.613 . S
S315 N317 1.610 . S
N316 S315 1.613 . S
N316 C319 1.350 . S
N317 S315 1.610 . S
N317 C318 1.351 . S
C318 C312 1.428 . S
C318 N317 1.351 . S
C318 C319 1.434 . S
C319 C310 1.429 . S
C319 N316 1.350 . S
C319 C318 1.434 . S
C320 C321 1.369 . S
C320 C322 1.419 . S
C320 H324 0.930 . S
C321 C320 1.369 . S
C321 C330 1.429 . S
C322 C320 1.419 . S
C322 C323 1.363 . S
C322 H325 0.929 . S
C323 C322 1.363 . S
C323 C329 1.428 . S
H324 C320 0.930 . S
H325 C322 0.929 . S
S326 N327 1.613 . S
S326 N328 1.610 . S
N327 S326 1.613 . S
N327 C330 1.350 . S
N328 S326 1.610 . S
N328 C329 1.351 . S
C329 C323 1.428 . S
C329 N328 1.351 . S
C329 C330 1.434 . S
C330 C321 1.429 . S
C330 N327 1.350 . S
C330 C329 1.434 . S
C331 C332 1.369 . S
C331 C333 1.419 . S
C331 H335 0.930 . S
C332 C331 1.369 . S
C332 C341 1.429 . S
C333 C331 1.419 . S
C333 C334 1.363 . S
C333 H336 0.929 . S
C334 C333 1.363 . S
C334 C340 1.428 . S
H335 C331 0.930 . S
H336 C333 0.929 . S
S337 N338 1.613 . S
S337 N339 1.610 . S
N338 S337 1.613 . S
N338 C341 1.350 . S
N339 S337 1.610 . S
N339 C340 1.351 . S
C340 C334 1.428 . S
C340 N339 1.351 . S
C340 C341 1.434 . S
C341 C332 1.429 . S
C341 N338 1.350 . S
C341 C340 1.434 . S
C342 C343 1.369 . S
C342 C344 1.419 . S
C342 H346 0.930 . S
C343 C342 1.369 . S
C343 C352 1.429 . S
C344 C342 1.419 . S
C344 C345 1.363 . S
C344 H347 0.929 . S
C345 C344 1.363 . S
C345 C351 1.428 . S
H346 C342 0.930 . S
H347 C344 0.929 . S
S348 N349 1.613 1_455 S
S348 N350 1.610 1_455 S
N349 S348 1.613 1_655 S
N349 C352 1.350 . S
N350 S348 1.610 1_655 S
N350 C351 1.351 . S
C351 C345 1.428 . S
C351 N350 1.351 . S
C351 C352 1.434 . S
C352 C343 1.429 . S
C352 N349 1.350 . S
C352 C351 1.434 . S
C353 C354 1.369 . S
C353 C355 1.419 . S
C353 H357 0.930 . S
C354 C353 1.369 . S
C354 C363 1.429 . S
C355 C353 1.419 . S
C355 C356 1.363 . S
C355 H358 0.929 . S
C356 C355 1.363 . S
C356 C362 1.428 . S
H357 C353 0.930 . S
H358 C355 0.929 . S
S359 N360 1.613 . S
S359 N361 1.610 . S
N360 S359 1.613 . S
N360 C363 1.350 . S
N361 S359 1.610 . S
N361 C362 1.351 . S
C362 C356 1.428 . S
C362 N361 1.351 . S
C362 C363 1.434 . S
C363 C354 1.429 . S
C363 N360 1.350 . S
C363 C362 1.434 . S
C364 C365 1.369 . S
C364 C366 1.419 . S
C364 H368 0.930 . S
C365 C364 1.369 . S
C365 C374 1.429 . S
C366 C364 1.419 . S
C366 C367 1.363 . S
C366 H369 0.929 . S
C367 C366 1.363 . S
C367 C373 1.428 . S
H368 C364 0.930 . S
H369 C366 0.929 . S
S370 N371 1.613 . S
S370 N372 1.610 . S
N371 S370 1.613 . S
N371 C374 1.350 . S
N372 S370 1.610 . S
N372 C373 1.351 . S
C373 C367 1.428 . S
C373 N372 1.351 . S
C373 C374 1.434 . S
C374 C365 1.429 . S
C374 N371 1.350 . S
C374 C373 1.434 . S
C375 C376 1.369 . S
C375 C377 1.419 . S
C375 H379 0.930 . S
C376 C375 1.369 . S
C376 C385 1.429 . S
C377 C375 1.419 . S
C377 C378 1.363 . S
C377 H380 0.929 . S
C378 C377 1.363 . S
C378 C384 1.428 . S
H379 C375 0.930 . S
H380 C377 0.929 . S
S381 N382 1.613 . S
S381 N383 1.610 . S
N382 S381 1.613 . S
N382 C385 1.350 . S
N383 S381 1.610 . S
N383 C384 1.351 . S
C384 C378 1.428 . S
C384 N383 1.351 . S
C384 C385 1.434 . S
C385 C376 1.429 . S
C385 N382 1.350 . S
C385 C384 1.434 . S
C386 C387 1.369 . S
C386 C388 1.419 . S
C386 H390 0.930 . S
C387 C386 1.369 . S
C387 C396 1.429 . S
C388 C386 1.419 . S
C388 C389 1.363 . S
C388 H391 0.929 . S
C389 C388 1.363 . S
C389 C395 1.428 . S
H390 C386 0.930 . S
H391 C388 0.929 . S
S392 N393 1.613 . S
S392 N394 1.610 . S
N393 S392 1.613 . S
N393 C396 1.350 . S
N394 S392 1.610 . S
N394 C395 1.351 . S
C395 C389 1.428 . S
C395 N394 1.351 . S
C395 C396 1.434 . S
C396 C387 1.429 . S
C396 N393 1.350 . S
C396 C395 1.434 . S
C397 C398 1.369 . S
C397 C399 1.419 . S
C397 H401 0.930 . S
C398 C397 1.369 . S
C398 C407 1.429 . S
C399 C397 1.419 . S
C399 C400 1.363 . S
C399 H402 0.929 . S
C400 C399 1.363 . S
C400 C406 1.428 . S
H401 C397 0.930 . S
H402 C399 0.929 . S
S403 N404 1.613 . S
S403 N405 1.610 . S
N404 S403 1.613 . S
N404 C407 1.350 . S
N405 S403 1.610 . S
N405 C406 1.351 . S
C406 C400 1.428 . S
C406 N405 1.351 . S
C406 C407 1.434 . S
C407 C398 1.429 . S
C407 N404 1.350 . S
C407 C406 1.434 . S
C408 C409 1.369 . S
C408 C410 1.419 . S
C408 H412 0.930 . S
C409 C408 1.369 . S
C409 C418 1.429 . S
C410 C408 1.419 . S
C410 C411 1.363 . S
C410 H413 0.929 . S
C411 C410 1.363 . S
C411 C417 1.428 . S
H412 C408 0.930 . S
H413 C410 0.929 . S
S414 N415 1.613 . S
S414 N416 1.610 . S
N415 S414 1.613 . S
N415 C418 1.350 . S
N416 S414 1.610 . S
N416 C417 1.351 . S
C417 C411 1.428 . S
C417 N416 1.351 . S
C417 C418 1.434 . S
C418 C409 1.429 . S
C418 N415 1.350 . S
C418 C417 1.434 . S
C419 C420 1.369 . S
C419 C421 1.419 . S
C419 H423 0.930 . S
C420 C419 1.369 . S
C420 C429 1.429 . S
C421 C419 1.419 . S
C421 C422 1.363 . S
C421 H424 0.929 . S
C422 C421 1.363 . S
C422 C428 1.428 . S
H423 C419 0.930 . S
H424 C421 0.929 . S
S425 N426 1.613 . S
S425 N427 1.610 . S
N426 S425 1.613 . S
N426 C429 1.350 . S
N427 S425 1.610 . S
N427 C428 1.351 . S
C428 C422 1.428 . S
C428 N427 1.351 . S
C428 C429 1.434 . S
C429 C420 1.429 . S
C429 N426 1.350 . S
C429 C428 1.434 . S
C430 C431 1.369 . S
C430 C432 1.419 . S
C430 H434 0.930 . S
C431 C430 1.369 . S
C431 C440 1.429 . S
C432 C430 1.419 . S
C432 C433 1.363 . S
C432 H435 0.929 . S
C433 C432 1.363 . S
C433 C439 1.428 . S
H434 C430 0.930 . S
H435 C432 0.929 . S
S436 N437 1.635 . S
S436 N438 1.612 . S
N437 S436 1.635 . S
N437 C440 1.350 . S
N438 S436 1.612 . S
N438 C439 1.351 . S
C439 C433 1.428 . S
C439 N438 1.351 . S
C439 C440 1.434 . S
C440 C431 1.429 . S
C440 N437 1.350 . S
C440 C439 1.434 . S
C441 C442 1.369 . S
C441 C443 1.419 . S
C441 H445 0.930 . S
C442 C441 1.369 . S
C442 C451 1.429 . S
C443 C441 1.419 . S
C443 C444 1.363 . S
C443 H446 0.929 . S
C444 C443 1.363 . S
C444 C450 1.428 . S
H445 C441 0.930 . S
H446 C443 0.929 . S
S447 N448 1.613 . S
S447 N449 1.610 . S
N448 S447 1.613 . S
N448 C451 1.350 . S
N449 S447 1.610 . S
N449 C450 1.351 . S
C450 C444 1.428 . S
C450 N449 1.351 . S
C450 C451 1.434 . S
C451 C442 1.429 . S
C451 N448 1.350 . S
C451 C450 1.434 . S
C452 C453 1.369 . S
C452 C454 1.419 . S
C452 H456 0.930 . S
C453 C452 1.369 . S
C453 C462 1.429 . S
C454 C452 1.419 . S
C454 C455 1.363 . S
C454 H457 0.929 . S
C455 C454 1.363 . S
C455 C461 1.428 . S
H456 C452 0.930 . S
H457 C454 0.929 . S
S458 N459 1.613 . S
S458 N460 1.610 . S
N459 S458 1.613 . S
N459 C462 1.350 . S
N460 S458 1.610 . S
N460 C461 1.351 . S
C461 C455 1.428 . S
C461 N460 1.351 . S
C461 C462 1.434 . S
C462 C453 1.429 . S
C462 N459 1.350 . S
C462 C461 1.434 . S
C463 C464 1.369 . S
C463 C465 1.419 . S
C463 H467 0.930 . S
C464 C463 1.369 . S
C464 C473 1.429 . S
C465 C463 1.419 . S
C465 C466 1.363 . S
C465 H468 0.929 . S
C466 C465 1.363 . S
C466 C472 1.428 . S
H467 C463 0.930 . S
H468 C465 0.929 . S
S469 N470 1.613 . S
S469 N471 1.610 . S
N470 S469 1.613 . S
N470 C473 1.350 . S
N471 S469 1.610 . S
N471 C472 1.351 . S
C472 C466 1.428 . S
C472 N471 1.351 . S
C472 C473 1.434 . S
C473 C464 1.429 . S
C473 N470 1.350 . S
C473 C472 1.434 . S
C474 C475 1.369 . S
C474 C476 1.419 . S
C474 H478 0.930 . S
C475 C474 1.369 . S
C475 C484 1.429 . S
C476 C474 1.419 . S
C476 C477 1.363 . S
C476 H479 0.929 . S
C477 C476 1.363 . S
C477 C483 1.428 . S
H478 C474 0.930 . S
H479 C476 0.929 . S
S480 N481 1.613 . S
S480 N482 1.610 . S
N481 S480 1.613 . S
N481 C484 1.350 . S
N482 S480 1.610 . S
N482 C483 1.351 . S
C483 C477 1.428 . S
C483 N482 1.351 . S
C483 C484 1.434 . S
C484 C475 1.429 . S
C484 N481 1.350 . S
C484 C483 1.434 . S
C485 C486 1.369 . S
C485 C487 1.419 . S
C485 H489 0.930 . S
C486 C485 1.369 . S
C486 C495 1.429 . S
C487 C485 1.419 . S
C487 C488 1.363 . S
C487 H490 0.929 . S
C488 C487 1.363 . S
C488 C494 1.428 . S
H489 C485 0.930 . S
H490 C487 0.929 . S
S491 N492 1.613 . S
S491 N493 1.610 . S
N492 S491 1.613 . S
N492 C495 1.350 . S
N493 S491 1.610 . S
N493 C494 1.351 . S
C494 C488 1.428 . S
C494 N493 1.351 . S
C494 C495 1.434 . S
C495 C486 1.429 . S
C495 N492 1.350 . S
C495 C494 1.434 . S
C233 C5 1.031 . S
C235 C79 1.042 . S
C244 C14 1.029 . S
C246 C128 1.026 . S
C257 C154 2.505 . S
C255 C25 2.549 . S
C266 C34 2.519 . S
C268 C202 2.467 . S
C279 C114 2.007 . S
C277 C7 1.855 . S
C290 C82 0.799 . S
C288 C13 0.790 . S
C301 C203 1.956 . S
C299 C23 1.995 . S
C312 C171 1.780 . S
C310 C31 1.801 . S
C321 C4 1.383 . S
C323 C199 1.443 . S
C334 C131 2.344 . S
C332 C22 2.431 . S
C343 C32 2.370 . S
C345 C83 2.361 . S
C354 C16 1.093 . S
C356 C168 1.125 . S
C367 C88 1.033 . S
C365 C41 1.018 . S
C376 C50 1.026 . S
C378 C119 1.038 . S
C387 C61 2.544 . S
C389 C163 2.496 . S
C398 C67 2.527 . S
C400 C211 2.477 . S
C409 C40 1.877 . S
C411 C123 2.021 . S
C422 C91 0.779 . S
C420 C52 0.767 . S
C433 C194 1.960 . S
C431 C59 2.004 . S
C444 C162 1.778 . S
C442 C70 1.795 . S
C453 C43 1.383 . S
C455 C208 1.437 . S
C466 C122 2.355 . S
C464 C58 2.441 . S
C477 C74 2.345 . S
C475 C68 2.352 . S
C486 C49 1.099 . S
C488 C159 1.128 . S
