# Generated by pormake.
# Topology pyr, (3,6)-cn, num edge types: 1
# Building blocks:
#     Node 0, Type 0, BuildingBlock: BETDAH_clean_linker_0, # of connection points: 3
#     Node 1, Type 0, BuildingBlock: BETDAH_clean_linker_0, # of connection points: 3
#     Node 2, Type 0, BuildingBlock: BETDAH_clean_linker_0, # of connection points: 3
#     Node 3, Type 0, BuildingBlock: BETDAH_clean_linker_0, # of connection points: 3
#     Node 4, Type 0, BuildingBlock: BETDAH_clean_linker_0, # of connection points: 3
#     Node 5, Type 0, BuildingBlock: BETDAH_clean_linker_0, # of connection points: 3
#     Node 6, Type 0, BuildingBlock: BETDAH_clean_linker_0, # of connection points: 3
#     Node 7, Type 0, BuildingBlock: BETDAH_clean_linker_0, # of connection points: 3
#     Node 8, Type 1, BuildingBlock: BETDIP_clean_sbu_0, # of connection points: 6
#     Node 9, Type 1, BuildingBlock: BETDIP_clean_sbu_0, # of connection points: 6
#     Node 10, Type 1, BuildingBlock: BETDIP_clean_sbu_0, # of connection points: 6
#     Node 11, Type 1, BuildingBlock: BETDIP_clean_sbu_0, # of connection points: 6
#     Edge 12, Type (0, 1), BuildingBlock: CIFDUS_clean_linker_0, # of connection points: 2
#     Edge 13, Type (0, 1), BuildingBlock: CIFDUS_clean_linker_0, # of connection points: 2
#     Edge 14, Type (0, 1), BuildingBlock: CIFDUS_clean_linker_0, # of connection points: 2
#     Edge 15, Type (0, 1), BuildingBlock: CIFDUS_clean_linker_0, # of connection points: 2
#     Edge 16, Type (0, 1), BuildingBlock: CIFDUS_clean_linker_0, # of connection points: 2
#     Edge 17, Type (0, 1), BuildingBlock: CIFDUS_clean_linker_0, # of connection points: 2
#     Edge 18, Type (0, 1), BuildingBlock: CIFDUS_clean_linker_0, # of connection points: 2
#     Edge 19, Type (0, 1), BuildingBlock: CIFDUS_clean_linker_0, # of connection points: 2
#     Edge 20, Type (0, 1), BuildingBlock: CIFDUS_clean_linker_0, # of connection points: 2
#     Edge 21, Type (0, 1), BuildingBlock: CIFDUS_clean_linker_0, # of connection points: 2
#     Edge 22, Type (0, 1), BuildingBlock: CIFDUS_clean_linker_0, # of connection points: 2
#     Edge 23, Type (0, 1), BuildingBlock: CIFDUS_clean_linker_0, # of connection points: 2
#     Edge 24, Type (0, 1), BuildingBlock: CIFDUS_clean_linker_0, # of connection points: 2
#     Edge 25, Type (0, 1), BuildingBlock: CIFDUS_clean_linker_0, # of connection points: 2
#     Edge 26, Type (0, 1), BuildingBlock: CIFDUS_clean_linker_0, # of connection points: 2
#     Edge 27, Type (0, 1), BuildingBlock: CIFDUS_clean_linker_0, # of connection points: 2
#     Edge 28, Type (0, 1), BuildingBlock: CIFDUS_clean_linker_0, # of connection points: 2
#     Edge 29, Type (0, 1), BuildingBlock: CIFDUS_clean_linker_0, # of connection points: 2
#     Edge 30, Type (0, 1), BuildingBlock: CIFDUS_clean_linker_0, # of connection points: 2
#     Edge 31, Type (0, 1), BuildingBlock: CIFDUS_clean_linker_0, # of connection points: 2
#     Edge 32, Type (0, 1), BuildingBlock: CIFDUS_clean_linker_0, # of connection points: 2
#     Edge 33, Type (0, 1), BuildingBlock: CIFDUS_clean_linker_0, # of connection points: 2
#     Edge 34, Type (0, 1), BuildingBlock: CIFDUS_clean_linker_0, # of connection points: 2
#     Edge 35, Type (0, 1), BuildingBlock: CIFDUS_clean_linker_0, # of connection points: 2
# Relax obj value: 0.172
# Max RMSD: 0.226
# Mean RMSD: 0.134
data_MOF--net-pyr--node1-BETDIP_clean_sbu_0--node2-BETDAH_clean_linker_0--edge1-CIFDUS_clean_linker_0
_symmetry_space_group_name_H-M    P1
_symmetry_Int_Tables_number       1
_symmetry_cell_setting            triclinic
loop_
_symmetry_equiv_pos_as_xyz
'x, y, z'
_cell_length_a     30.260223
_cell_length_b     34.454111
_cell_length_c     34.34713
_cell_angle_alpha  88.827641
_cell_angle_beta   93.473312
_cell_angle_gamma 110.73665
loop_
_atom_site_label
_atom_site_type_symbol
_atom_site_fract_x
_atom_site_fract_y
_atom_site_fract_z
_atom_type_partial_charge
H0 H 0.41731 0.25024 0.30894 0.0
H1 H 0.47039 0.32862 0.21057 0.0
H2 H 0.40822 0.37207 0.30185 0.0
C3 C 0.4241 0.27951 0.29371 0.0
C4 C 0.41161 0.31084 0.3101 0.0
C5 C 0.44481 0.28547 0.25767 0.0
C6 C 0.45444 0.32368 0.23853 0.0
C7 C 0.44048 0.35457 0.25391 0.0
C8 C 0.41858 0.34802 0.28965 0.0
N9 N 0.44802 0.39172 0.23263 0.0
C10 C 0.41129 0.40612 0.2235 0.0
H11 H 0.25619 0.8165 0.77671 0.0
H12 H 0.11724 0.82397 0.77176 0.0
H13 H 0.1549 0.75564 0.68392 0.0
C14 C 0.22108 0.80867 0.76258 0.0
C15 C 0.20958 0.78456 0.72854 0.0
C16 C 0.18787 0.82263 0.7786 0.0
C17 C 0.14272 0.81248 0.76001 0.0
C18 C 0.13075 0.78848 0.72569 0.0
C19 C 0.16384 0.77356 0.71068 0.0
N20 N 0.08686 0.78155 0.70463 0.0
C21 C 0.06672 0.81211 0.70271 0.0
H22 H 0.71915 0.37356 0.99179 0.0
H23 H 0.72758 0.46022 0.89764 0.0
H24 H 0.63359 0.33307 0.88571 0.0
C25 C 0.70772 0.38015 0.9627 0.0
C26 C 0.67378 0.3481 0.94095 0.0
C27 C 0.72749 0.42062 0.94763 0.0
C28 C 0.71244 0.42933 0.90968 0.0
C29 C 0.67783 0.39761 0.88749 0.0
C30 C 0.65926 0.3574 0.90332 0.0
N31 N 0.66157 0.40342 0.84865 0.0
C32 C 0.66609 0.44035 0.82873 0.0
H33 H 0.86676 0.78525 0.47753 0.0
H34 H 0.95861 0.82059 0.38282 0.0
H35 H 0.85617 0.6966 0.38658 0.0
C36 C 0.87835 0.77722 0.45059 0.0
C37 C 0.85555 0.73718 0.43428 0.0
C38 C 0.91498 0.80776 0.43218 0.0
C39 C 0.93039 0.79732 0.39745 0.0
C40 C 0.91067 0.75718 0.3813 0.0
C41 C 0.87294 0.72695 0.39976 0.0
N42 N 0.92858 0.7507 0.34527 0.0
C43 C 0.92425 0.71402 0.32584 0.0
H44 H 0.774 0.84478 0.9036 0.0
H45 H 0.65008 0.76661 0.95921 0.0
H46 H 0.641 0.86204 0.8798 0.0
C47 C 0.73686 0.83675 0.90892 0.0
C48 C 0.71023 0.85748 0.88857 0.0
C49 C 0.71563 0.80413 0.93453 0.0
C50 C 0.66692 0.79183 0.93954 0.0
C51 C 0.64019 0.81329 0.92065 0.0
C52 C 0.66188 0.84599 0.89503 0.0
N53 N 0.59174 0.80205 0.92823 0.0
C54 C 0.57161 0.83208 0.93236 0.0
H55 H 0.90609 0.26057 0.40377 0.0
H56 H 0.99568 0.36894 0.4681 0.0
H57 H 0.88304 0.3758 0.38926 0.0
C58 C 0.9165 0.29315 0.4109 0.0
C59 C 0.89106 0.31623 0.39278 0.0
C60 C 0.95469 0.31149 0.43803 0.0
C61 C 0.96658 0.35379 0.44728 0.0
C62 C 0.93987 0.37663 0.43088 0.0
C63 C 0.90287 0.35797 0.40292 0.0
N64 N 0.94939 0.41773 0.44401 0.0
C65 C 0.9133 0.43366 0.44589 0.0
H66 H 0.37536 0.7836 0.19799 0.0
H67 H 0.37087 0.69736 0.29233 0.0
H68 H 0.48873 0.8125 0.28602 0.0
C69 C 0.39048 0.7755 0.22498 0.0
C70 C 0.43445 0.80269 0.23984 0.0
C71 C 0.36691 0.73728 0.24337 0.0
C72 C 0.3885 0.72639 0.27767 0.0
C73 C 0.43251 0.7539 0.29334 0.0
C74 C 0.45492 0.79156 0.27404 0.0
N75 N 0.45578 0.74636 0.32862 0.0
C76 C 0.44498 0.71041 0.3514 0.0
H77 H 0.22168 0.36625 0.71279 0.0
H78 H 0.22483 0.46444 0.7905 0.0
H79 H 0.10843 0.34847 0.7884 0.0
C80 C 0.20642 0.37765 0.7356 0.0
C81 C 0.16324 0.35135 0.74965 0.0
C82 C 0.22949 0.41866 0.74961 0.0
C83 C 0.20857 0.43303 0.77956 0.0
C84 C 0.16511 0.40726 0.79403 0.0
C85 C 0.14286 0.36707 0.77849 0.0
N86 N 0.13831 0.42245 0.81865 0.0
C87 C 0.15283 0.44466 0.85376 0.0
Tb88 Tb 0.99095 0.06755 0.5929 0.0
Tb89 Tb 0.0931 0.09287 0.58407 0.0
C90 C 0.90414 0.02897 0.6006 0.0
C91 C 0.87389 1.0115 0.63328 0.0
C92 C 0.83913 0.97188 0.62947 0.0
C93 C 0.81056 0.95424 0.66029 0.0
C94 C 0.81601 0.97606 0.69552 0.0
C95 C 0.85066 1.01604 0.69906 0.0
C96 C 0.8795 0.03352 0.66831 0.0
C97 C 0.042 0.13691 0.63076 0.0
C98 C 0.05361 0.02922 0.64881 0.0
C99 C 0.17945 0.13115 0.57409 0.0
C100 C 0.20672 0.16311 0.54709 0.0
C101 C 0.19085 0.19475 0.533 0.0
C102 C 0.21502 0.22201 0.50418 0.0
C103 C 0.25527 0.21791 0.48889 0.0
C104 C 0.27143 0.18666 0.50385 0.0
C105 C 0.24745 0.15966 0.53269 0.0
C106 C 0.04205 1.02163 0.5497 0.0
C107 C 0.03053 0.12931 0.52824 0.0
O108 O 0.93385 1.01078 0.5928 0.0
O109 O 0.92334 0.06939 0.59911 0.0
O110 O 0.05273 0.10501 0.62767 0.0
O111 O 1.00016 0.12959 0.61482 0.0
O112 O 1.01118 1.0257 0.63339 0.0
O113 O 0.0921 0.05925 0.63813 0.0
O114 O 0.15583 0.1423 0.59964 0.0
O115 O 0.1548 0.09551 0.5579 0.0
O116 O 0.03138 0.05399 0.54974 0.0
O117 O 0.08264 0.02906 0.56825 0.0
O118 O 0.07166 0.13689 0.54759 0.0
O119 O 0.99385 0.09621 0.53598 0.0
H120 H 0.83445 0.95433 0.60274 0.0
H121 H 0.78494 0.92309 0.65677 0.0
H122 H 0.85551 0.03389 0.72558 0.0
H123 H 0.90625 0.06416 0.67203 0.0
H124 H 0.1593 0.19787 0.54357 0.0
H125 H 0.20186 0.24591 0.49354 0.0
H126 H 0.30163 0.18193 0.49225 0.0
H127 H 0.2599 0.13516 0.54289 0.0
Tb128 Tb 0.58841 0.09047 0.09306 0.0
Tb129 Tb 0.48016 0.05949 0.07359 0.0
C130 C 0.6743 0.12931 0.11102 0.0
C131 C 0.70109 0.16285 0.13824 0.0
C132 C 0.68933 0.1985 0.14246 0.0
C133 C 0.7118 0.22706 0.17229 0.0
C134 C 0.74558 0.21979 0.19836 0.0
C135 C 0.75829 0.18492 0.19314 0.0
C136 C 0.73639 0.15682 0.16324 0.0
C137 C 0.53714 1.01852 0.12392 0.0
C138 C 0.52323 0.12757 0.13801 0.0
C139 C 0.39469 1.01428 0.06719 0.0
C140 C 0.36239 0.99887 1.03268 0.0
C141 C 0.33245 0.95717 1.03097 0.0
C142 C 0.3077 0.94025 0.996 0.0
C143 C 0.31266 0.96484 0.9622 0.0
C144 C 0.34064 1.00719 0.96466 0.0
C145 C 0.36546 1.02401 0.99951 0.0
C146 C 0.52403 0.12439 1.02847 0.0
C147 C 0.5485 0.03002 1.02378 0.0
O148 O 0.65164 0.13859 0.08067 0.0
O149 O 0.64904 0.0949 0.12784 0.0
O150 O 0.52578 0.05032 0.11983 0.0
O151 O 0.57913 1.02695 0.11166 0.0
O152 O 0.56617 0.13212 0.12752 0.0
O153 O 0.48483 0.09715 0.12463 0.0
O154 O 0.42921 0.99958 0.07117 0.0
O155 O 0.40912 0.05438 0.07373 0.0
O156 O 0.54132 0.10612 0.05376 0.0
O157 O 0.47878 0.10447 1.02709 0.0
O158 O 0.5057 1.0215 1.03687 0.0
O159 O 0.58583 0.06109 1.03765 0.0
H160 H 0.66198 0.20364 0.12353 0.0
H161 H 0.7016 0.25384 0.17591 0.0
H162 H 0.78467 0.17903 0.21272 0.0
H163 H 0.74586 0.1295 0.16047 0.0
H164 H 0.33 0.93722 0.05617 0.0
H165 H 0.28682 0.90741 0.99494 0.0
H166 H 0.34463 1.02703 0.93925 0.0
H167 H 0.3885 0.05627 0.99999 0.0
Tb168 Tb 0.54739 0.61077 0.6173 0.0
Tb169 Tb 0.5445 0.53246 0.57169 0.0
C170 C 0.52924 0.66953 0.64612 0.0
C171 C 0.48588 0.67754 0.65309 0.0
C172 C 0.44231 0.65399 0.63435 0.0
C173 C 0.40133 0.66206 0.64145 0.0
C174 C 0.40343 0.69394 0.66724 0.0
C175 C 0.44721 0.7171 0.68615 0.0
C176 C 0.48803 0.70894 0.67911 0.0
C177 C 0.59248 0.56453 0.65198 0.0
C178 C 0.4587 0.52589 0.62337 0.0
C179 C 0.56539 0.47051 0.55656 0.0
C180 C 0.59478 0.46086 0.5286 0.0
C181 C 0.59922 0.42179 0.52977 0.0
C182 C 0.63384 0.41453 0.50903 0.0
C183 C 0.66483 0.44643 0.48701 0.0
C184 C 0.6585 0.48494 0.48424 0.0
C185 C 0.62362 0.49206 0.50483 0.0
C186 C 0.50848 0.57933 0.52638 0.0
C187 C 0.62752 0.61991 0.55893 0.0
O188 O 0.53837 0.66797 0.60956 0.0
O189 O 0.53624 0.6398 0.66695 0.0
O190 O 0.55454 0.55272 0.63095 0.0
O191 O 0.60607 0.60461 0.6554 0.0
O192 O 0.47506 0.56705 0.62612 0.0
O193 O 0.48178 0.50564 0.60544 0.0
O194 O 0.58937 0.49905 0.58219 0.0
O195 O 0.52624 0.47534 0.5426 0.0
O196 O 0.52463 0.58479 0.56139 0.0
O197 O 0.51122 0.54436 0.51561 0.0
O198 O 0.6128 0.57882 0.55616 0.0
O199 O 0.6055 0.63911 0.5794 0.0
H200 H 0.44003 0.62959 0.61409 0.0
H201 H 0.36824 0.64387 0.62628 0.0
H202 H 0.44986 0.74135 0.70671 0.0
H203 H 0.52133 0.72718 0.69401 0.0
H204 H 0.57754 0.39753 0.54829 0.0
H205 H 0.63812 0.38469 0.51214 0.0
H206 H 0.68149 0.50995 0.4672 0.0
H207 H 0.62067 0.52249 0.50366 0.0
Tb208 Tb 0.05253 0.62539 0.06443 0.0
Tb209 Tb 0.04427 0.55204 0.11226 0.0
C210 C 0.03629 0.68146 1.02485 0.0
C211 C 0.99803 0.69878 1.02176 0.0
C212 C 0.96757 0.69076 0.98806 0.0
C213 C 0.93083 0.70632 0.98434 0.0
C214 C 0.92406 0.73067 1.01408 0.0
C215 C 0.95457 0.73891 1.04782 0.0
C216 C 0.99117 0.72295 0.05174 0.0
C217 C 0.13121 0.63205 0.10783 0.0
C218 C 1.00097 0.61394 0.14463 0.0
C219 C 0.05945 0.49636 0.15365 0.0
C220 C 0.09836 0.48056 0.16021 0.0
C221 C 0.14355 0.5033 0.14777 0.0
C222 C 0.18181 0.49091 0.15853 0.0
C223 C 0.17539 0.45523 0.18156 0.0
C224 C 0.12948 0.43162 0.19248 0.0
C225 C 0.09135 0.44433 0.18204 0.0
C226 C 0.96654 0.54578 0.0685 0.0
C227 C 0.09333 0.56352 1.02974 0.0
O228 O 0.02446 0.64314 1.01288 0.0
O229 O 0.06347 0.68868 0.05701 0.0
O230 O 0.08899 0.61569 0.1174 0.0
O231 O 0.12956 0.64737 0.07324 0.0
O232 O 1.00454 0.62923 0.10877 0.0
O233 O 0.01827 0.58463 0.15446 0.0
O234 O 0.06912 0.53448 0.16526 0.0
O235 O 0.03669 0.48921 0.11946 0.0
O236 O 1.00877 0.56185 0.05936 0.0
O237 O 0.96667 0.52989 0.10302 0.0
O238 O 0.08972 0.54637 0.06512 0.0
O239 O 0.07686 0.59361 1.02174 0.0
H240 H 0.97227 0.67248 0.96442 0.0
H241 H 0.90837 0.70012 0.95771 0.0
H242 H 0.95002 0.75758 0.07118 0.0
H243 H 1.014 0.72962 0.07814 0.0
H244 H 0.14947 0.53134 0.1308 0.0
H245 H 0.21665 0.51013 0.14992 0.0
H246 H 0.12305 0.40355 0.20951 0.0
H247 H 0.0566 0.42641 0.19182 0.0
H248 H 0.32199 0.30102 0.32701 0.0
H249 H 0.45611 0.30308 0.37863 0.0
H250 H 0.42039 0.27944 0.44086 0.0
H251 H 0.34963 0.25122 0.47807 0.0
H252 H 0.21365 0.24288 0.42483 0.0
H253 H 0.25143 0.27703 0.36631 0.0
C254 C 0.34334 0.29713 0.35227 0.0
C255 C 0.39142 0.30377 0.34868 0.0
C256 C 0.32216 0.28219 0.38752 0.0
C257 C 0.41899 0.29817 0.38112 0.0
C258 C 0.39856 0.28452 0.41653 0.0
C259 C 0.32821 0.25694 0.45372 0.0
C260 C 0.27881 0.24397 0.45574 0.0
C261 C 0.34991 0.27523 0.41968 0.0
C262 C 0.25179 0.25268 0.42426 0.0
C263 C 0.27332 0.2719 0.39058 0.0
H264 H 0.26778 0.88889 0.79306 0.0
H265 H 0.13762 0.81471 0.84369 0.0
H266 H 0.16321 0.85428 0.90455 0.0
H267 H 0.22523 0.90696 0.94462 0.0
H268 H 0.35631 0.97895 0.89367 0.0
H269 H 0.32759 0.94343 0.83163 0.0
C270 C 0.24506 0.8814 0.81746 0.0
C271 C 0.20124 0.84866 0.8142 0.0
C272 C 0.26018 0.90387 0.85227 0.0
C273 C 0.17155 0.83985 0.84561 0.0
C274 C 0.18627 0.86229 0.88041 0.0
C275 C 0.24737 0.9149 0.91987 0.0
C276 C 0.29281 0.94555 0.9238 0.0
C277 C 0.23091 0.89388 0.8843 0.0
C278 C 0.32093 0.95592 0.89134 0.0
C279 C 0.30472 0.93538 0.85589 0.0
H280 H 0.6107 0.4215 0.76355 0.0
H281 H 0.70884 0.52512 0.82822 0.0
H282 H 0.69702 0.5732 0.77799 0.0
H283 H 0.65648 0.58552 0.71584 0.0
H284 H 0.55654 0.48039 0.65353 0.0
H285 H 0.5717 0.43339 0.702 0.0
C286 C 0.62959 0.45466 0.76654 0.0
C287 C 0.66052 0.46986 0.79945 0.0
C288 C 0.62241 0.48186 0.73768 0.0
C289 C 0.6848 0.51277 0.80312 0.0
C290 C 0.67801 0.54019 0.77435 0.0
C291 C 0.63847 0.5523 0.71269 0.0
C292 C 0.60577 0.53663 0.68056 0.0
C293 C 0.64669 0.52512 0.74146 0.0
C294 C 0.58235 0.49345 0.67738 0.0
C295 C 0.59075 0.46644 0.70535 0.0
H296 H 0.91547 0.71866 0.24777 0.0
H297 H 0.95271 0.64803 0.34045 0.0
H298 H 0.97754 0.6088 0.2926 0.0
H299 H 0.99416 0.59818 0.22409 0.0
H300 H 0.95787 0.671 0.13228 0.0
H301 H 0.92738 0.70526 0.17963 0.0
C302 C 0.92805 0.694 0.25739 0.0
C303 C 0.93148 0.68578 0.29759 0.0
C304 C 0.94311 0.6722 0.22967 0.0
C305 C 0.9489 0.65446 0.30968 0.0
C306 C 0.96348 0.63227 0.28224 0.0
C307 C 0.97912 0.62118 0.21434 0.0
C308 C 0.97874 0.63182 0.17427 0.0
C309 C 0.9616 0.64134 0.2421 0.0
C310 C 0.95906 0.66197 0.16263 0.0
C311 C 0.94149 0.68176 0.18981 0.0
H312 H 0.52716 0.28507 0.23078 0.0
H313 H 0.38106 0.20855 0.24256 0.0
H314 H 0.39284 0.15177 0.20826 0.0
H315 H 0.44373 0.12527 0.17241 0.0
H316 H 0.59065 0.20113 0.16185 0.0
H317 H 0.57971 0.25647 0.19868 0.0
C318 C 0.4981 0.25582 0.22588 0.0
C319 C 0.45334 0.25082 0.23888 0.0
C320 C 0.50528 0.22324 0.20651 0.0
C321 C 0.41589 0.21284 0.23286 0.0
C322 C 0.42258 0.1805 0.2132 0.0
C323 C 0.47348 0.15374 0.17839 0.0
C324 C 0.51779 0.15908 0.16404 0.0
C325 C 0.467 0.1855 0.19957 0.0
C326 C 0.55605 0.1961 0.17244 0.0
C327 C 0.54984 0.22792 0.19339 0.0
H328 H 0.12254 0.88991 0.71837 0.0
H329 H 0.98087 0.81427 0.67884 0.0
H330 H 0.96133 0.87676 0.66529 0.0
H331 H 0.98788 0.9523 0.65738 0.0
H332 H 0.13198 1.02767 0.69191 0.0
H333 H 0.14689 0.96607 0.71616 0.0
C334 C 0.08719 0.88734 0.70746 0.0
C335 C 0.05304 0.84808 0.69944 0.0
C336 C 0.07676 0.92329 0.69902 0.0
C337 C 1.00746 0.84451 0.68515 0.0
C338 C 0.99641 0.88015 0.67741 0.0
C339 C 0.02224 0.95549 0.67109 0.0
C340 C 0.05895 0.99453 0.67239 0.0
C341 C 0.0312 0.9197 0.68326 0.0
C342 C 0.10322 0.99798 0.69025 0.0
C343 C 0.11189 0.96271 0.70386 0.0
H344 H 0.81626 0.47126 0.92842 0.0
H345 H 0.72268 0.43994 1.02319 0.0
H346 H 0.78783 0.47824 0.0688 0.0
H347 H 0.87332 0.51357 0.08331 0.0
H348 H 0.96734 0.54684 0.98895 0.0
H349 H 0.90056 0.51544 0.94188 0.0
C350 C 0.80994 0.47385 0.95884 0.0
C351 C 0.76471 0.45226 0.97241 0.0
C352 C 0.84795 0.49575 0.98522 0.0
C353 C 0.75723 0.45581 1.01204 0.0
C354 C 0.79455 0.47759 1.03822 0.0
C355 C 0.87904 0.5144 0.05238 0.0
C356 C 0.92529 0.5319 1.03975 0.0
C357 C 0.84039 0.49645 1.02543 0.0
C358 C 0.93211 0.53328 0.99952 0.0
C359 C 0.8939 0.51523 0.97254 0.0
H360 H 0.78627 0.756 0.46821 0.0
H361 H 0.8271 0.65157 0.44319 0.0
H362 H 0.76015 0.60571 0.4786 0.0
H363 H 0.6913 0.59602 0.51949 0.0
H364 H 0.65627 0.70326 0.54672 0.0
H365 H 0.7205 0.74706 0.50891 0.0
C366 C 0.78137 0.72332 0.47088 0.0
C367 C 0.81278 0.70774 0.45336 0.0
C368 C 0.74383 0.69749 0.49227 0.0
C369 C 0.80386 0.66478 0.4561 0.0
C370 C 0.76567 0.63854 0.47673 0.0
C371 C 0.69781 0.62896 0.51728 0.0
C372 C 0.66866 0.64603 0.53645 0.0
C373 C 0.73564 0.65463 0.49542 0.0
C374 C 0.67794 0.68893 0.53288 0.0
C375 C 0.7147 0.7142 0.511 0.0
H376 H 0.33692 0.40081 0.26468 0.0
H377 H 0.39826 0.43818 0.15391 0.0
H378 H 0.32984 0.45623 0.13047 0.0
H379 H 0.25209 0.45994 0.14126 0.0
H380 H 0.19171 0.42469 0.25307 0.0
H381 H 0.25962 0.40639 0.27608 0.0
C382 C 0.33517 0.41322 0.23556 0.0
C383 C 0.37211 0.41858 0.21095 0.0
C384 C 0.29576 0.42337 0.22238 0.0
C385 C 0.36994 0.43421 0.17321 0.0
C386 C 0.33089 0.44435 0.15984 0.0
C387 C 0.25394 0.44869 0.1708 0.0
C388 C 0.21661 0.44358 0.19525 0.0
C389 C 0.29351 0.43892 0.18414 0.0
C390 C 0.21941 0.42823 0.23328 0.0
C391 C 0.25847 0.4181 0.24665 0.0
H392 H 0.58227 0.29318 0.93436 0.0
H393 H 0.7203 0.30595 0.98601 0.0
H394 H 0.68728 0.23835 1.01728 0.0
H395 H 0.61825 0.17561 1.03141 0.0
H396 H 0.48121 0.1628 0.97817 0.0
H397 H 0.51478 0.22947 0.94574 0.0
C398 C 0.60539 0.28103 0.95194 0.0
C399 C 0.65378 0.30524 0.95791 0.0
C400 C 0.58624 0.24177 0.96971 0.0
C401 C 0.68277 0.28873 0.98136 0.0
C402 C 0.66395 0.24978 0.99915 0.0
C403 C 0.59592 0.18729 1.01262 0.0
C404 C 0.54723 0.16408 1.00753 0.0
C405 C 0.61559 0.22608 0.99386 0.0
C406 C 0.5188 0.17988 0.9828 0.0
C407 C 0.53796 0.21817 0.96419 0.0
H408 H 0.94508 0.83127 0.50774 0.0
H409 H 0.9319 0.88161 0.39355 0.0
H410 H 0.96519 0.95217 0.42007 0.0
H411 H 1.00099 1.00034 0.47588 0.0
H412 H 0.02036 0.94916 0.58825 0.0
H413 H 0.98089 0.87881 0.56294 0.0
C414 C 0.94919 0.85766 0.48869 0.0
C415 C 0.93594 0.85093 0.44862 0.0
C416 C 0.96911 0.89829 0.50408 0.0
C417 C 0.9422 0.88572 0.42438 0.0
C418 C 0.961 0.92617 0.43961 0.0
C419 C 0.99564 0.9737 0.49485 0.0
C420 C 1.01254 0.97994 0.53421 0.0
C421 C 0.97483 0.93297 0.47943 0.0
C422 C 1.00682 0.94515 0.55814 0.0
C423 C 0.98459 0.90486 0.54354 0.0
H424 H 0.20928 0.70751 0.71155 0.0
H425 H 0.294 0.83766 0.70706 0.0
H426 H 0.36058 0.8211 0.68525 0.0
H427 H 0.39629 0.76985 0.67156 0.0
H428 H 0.31394 0.63927 0.67885 0.0
H429 H 0.24467 0.65559 0.69477 0.0
C430 C 0.24216 0.73207 0.70516 0.0
C431 C 0.24704 0.77367 0.71095 0.0
C432 C 0.28071 0.72225 0.69339 0.0
C433 C 0.28976 0.80541 0.70296 0.0
C434 C 0.32778 0.79597 0.69057 0.0
C435 C 0.36323 0.74493 0.67678 0.0
C436 C 0.36043 0.70345 0.67445 0.0
C437 C 0.32398 0.75453 0.6865 0.0
C438 C 0.31699 0.6715 0.68032 0.0
C439 C 0.27745 0.68081 0.68963 0.0
H440 H 0.67475 0.86518 0.81544 0.0
H441 H 0.79678 0.91961 0.8945 0.0
H442 H 0.83939 0.96317 0.84204 0.0
H443 H 0.84464 0.98031 0.77254 0.0
H444 H 0.72209 0.92711 0.69356 0.0
H445 H 0.67703 0.88849 0.74729 0.0
C446 C 0.71023 0.88731 0.82142 0.0
C447 C 0.73275 0.88882 0.85868 0.0
C448 C 0.73469 0.91199 0.79104 0.0
C449 C 0.77895 0.91739 0.86587 0.0
C450 C 0.80333 0.94231 0.83591 0.0
C451 C 0.80777 0.96104 0.76713 0.0
C452 C 0.78706 0.95627 0.72889 0.0
C453 C 0.78198 0.93903 0.79815 0.0
C454 C 0.73932 0.93066 0.72251 0.0
C455 C 0.71339 0.90874 0.75327 0.0
H456 H 0.87597 0.34722 0.32178 0.0
H457 H 0.82061 0.24068 0.39639 0.0
H458 H 0.76649 0.20285 0.34313 0.0
H459 H 0.74202 0.19723 0.27361 0.0
H460 H 0.79681 0.30287 0.19831 0.0
H461 H 0.84336 0.34449 0.25382 0.0
C462 C 0.85125 0.31609 0.32659 0.0
C463 C 0.8529 0.29642 0.36267 0.0
C464 C 0.82045 0.29439 0.29571 0.0
C465 C 0.82074 0.25607 0.36855 0.0
C466 C 0.78972 0.23448 0.33819 0.0
C467 C 0.76364 0.22959 0.26964 0.0
C468 C 0.76676 0.24705 0.23219 0.0
C469 C 0.79047 0.25285 0.30137 0.0
C470 C 0.79418 0.289 0.22707 0.0
C471 C 0.8209 0.3126 0.25868 0.0
H472 H 0.47338 0.72458 0.42709 0.0
H473 H 0.42276 0.62753 0.3408 0.0
H474 H 0.43581 0.57778 0.38828 0.0
H475 H 0.46639 0.56304 0.45331 0.0
H476 H 0.51883 0.6607 0.53885 0.0
H477 H 0.50013 0.70888 0.49325 0.0
C478 C 0.46445 0.69231 0.41898 0.0
C479 C 0.44662 0.67952 0.38065 0.0
C480 C 0.47271 0.66411 0.44637 0.0
C481 C 0.43594 0.63792 0.37023 0.0
C482 C 0.4437 0.60958 0.39736 0.0
C483 C 0.47329 0.59479 0.46214 0.0
C484 C 0.49377 0.6081 0.49987 0.0
C485 C 0.46277 0.62245 0.43535 0.0
C486 C 0.50257 0.64938 0.51055 0.0
C487 C 0.49211 0.67705 0.48421 0.0
H488 H 0.15727 0.5231 0.86728 0.0
H489 H 0.14366 0.40761 0.92466 0.0
H490 H 0.12749 0.43447 0.98583 0.0
H491 H 0.10986 0.48932 1.02176 0.0
H492 H 0.12322 0.60424 0.96234 0.0
H493 H 0.14689 0.57949 0.90432 0.0
C494 C 0.15196 0.50423 0.89347 0.0
C495 C 0.15242 0.46363 0.89153 0.0
C496 C 0.14189 0.51973 0.92845 0.0
C497 C 0.14433 0.43923 0.92551 0.0
C498 C 0.13466 0.45452 0.96049 0.0
C499 C 0.11872 0.5092 0.99638 0.0
C500 C 0.11412 0.54866 0.99684 0.0
C501 C 0.13228 0.49453 0.96222 0.0
C502 C 0.12573 0.57364 0.96323 0.0
C503 C 0.13941 0.55951 0.92971 0.0
H504 H 0.62479 0.91228 0.93365 0.0
H505 H 0.48463 0.82617 0.95222 0.0
H506 H 0.46245 0.88239 0.97762 0.0
H507 H 0.4864 0.95391 1.00161 0.0
H508 H 0.62836 0.03921 0.98576 0.0
H509 H 0.64619 0.98569 0.95153 0.0
C510 C 0.58914 0.90624 0.94253 0.0
C511 C 0.55617 0.86567 0.94124 0.0
C512 C 0.57719 0.93844 0.95779 0.0
C513 C 0.51026 0.85752 0.95298 0.0
C514 C 0.49774 0.88954 0.9676 0.0
C515 C 0.52096 0.96112 0.99001 0.0
C516 C 0.55617 1.0004 0.99674 0.0
C517 C 0.53139 0.92989 0.97118 0.0
C518 C 0.60072 1.00913 0.98139 0.0
C519 C 0.61104 0.9785 0.96188 0.0
H520 H 0.97214 0.2451 0.40865 0.0
H521 H 0.99303 0.31844 0.51347 0.0
H522 H 0.02471 0.27116 0.54854 0.0
H523 H 0.03745 0.20466 0.55188 0.0
H524 H 1.00449 0.12566 0.45068 0.0
H525 H 0.98476 0.17868 0.41196 0.0
C526 C 0.98299 0.25071 0.43928 0.0
C527 C 0.9794 0.28538 0.45822 0.0
C528 C 0.99844 0.22195 0.46007 0.0
C529 C 0.99569 0.29259 0.49764 0.0
C530 C 1.01333 0.26519 0.51801 0.0
C531 C 0.02687 0.19958 0.52114 0.0
C532 C 0.023 0.16195 0.50372 0.0
C533 C 1.01368 0.22927 0.49981 0.0
C534 C 1.00794 0.15475 0.46431 0.0
C535 C 0.99665 0.18496 0.44235 0.0
H536 H 0.29399 0.75911 0.21278 0.0
H537 H 0.33521 0.65238 0.23267 0.0
H538 H 0.26409 0.60913 0.19465 0.0
H539 H 0.19318 0.60324 0.15049 0.0
H540 H 0.15619 0.71188 0.12891 0.0
H541 H 0.22278 0.75283 0.17215 0.0
C542 C 0.28754 0.72636 0.20888 0.0
C543 C 0.32046 0.70928 0.22526 0.0
C544 C 0.24739 0.70206 0.18616 0.0
C545 C 0.31059 0.66647 0.22062 0.0
C546 C 0.27006 0.64177 0.19852 0.0
C547 C 0.19962 0.63574 0.15567 0.0
C548 C 0.17 0.65465 0.13646 0.0
C549 C 0.23868 0.65941 0.18036 0.0
C550 C 0.17868 0.69681 0.14326 0.0
C551 C 0.21672 0.72021 0.16799 0.0
H552 H 0.30002 0.39696 0.71996 0.0
H553 H 0.25903 0.50338 0.73539 0.0
H554 H 0.32579 0.54606 0.69842 0.0
H555 H 0.3944 0.55252 0.65866 0.0
H556 H 0.4283 0.44304 0.63883 0.0
H557 H 0.36453 0.40228 0.67874 0.0
C558 C 0.30474 0.42929 0.71485 0.0
C559 C 0.2734 0.44632 0.73047 0.0
C560 C 0.34183 0.45325 0.69193 0.0
C561 C 0.28231 0.48899 0.72445 0.0
C562 C 0.32034 0.51346 0.70273 0.0
C563 C 0.38761 0.51968 0.66279 0.0
C564 C 0.41644 0.50112 0.64528 0.0
C565 C 0.35003 0.49581 0.68577 0.0
C566 C 0.40684 0.45844 0.65133 0.0
C567 C 0.37041 0.43496 0.67452 0.0
H568 H 0.79859 0.83949 0.97608 0.0
H569 H 0.69832 0.72089 0.93787 0.0
H570 H 0.75278 0.68667 0.9628 0.0
H571 H 0.83221 0.69188 0.98916 0.0
H572 H 0.93275 0.81093 1.02621 0.0
H573 H 0.8747 0.84366 1.00848 0.0
C574 C 0.78857 0.80608 0.97365 0.0
C575 C 0.74494 0.78269 0.95483 0.0
C576 C 0.82016 0.78685 0.98762 0.0
C577 C 0.73179 0.73941 0.95233 0.0
C578 C 0.76301 0.71995 0.96631 0.0
C579 C 0.84114 0.72492 0.99364 0.0
C580 C 0.88675 0.7491 1.00853 0.0
C581 C 0.80779 0.74354 0.98301 0.0
C582 C 0.89779 0.79171 1.01489 0.0
C583 C 0.86475 0.81046 1.00453 0.0
H584 H 0.40077 0.86344 0.2141 0.0
H585 H 0.52536 0.8299 0.21783 0.0
H586 H 0.56726 0.89262 0.18143 0.0
H587 H 0.56869 0.95698 0.14818 0.0
H588 H 0.4467 0.9939 0.14854 0.0
H589 H 0.40352 0.93001 0.18317 0.0
C590 C 0.43709 0.86994 0.20689 0.0
C591 C 0.45988 0.84191 0.21867 0.0
C592 C 0.46135 0.90661 0.18644 0.0
C593 C 0.50711 0.85101 0.20942 0.0
C594 C 0.53103 0.88682 0.18843 0.0
C595 C 0.53259 0.95102 0.15575 0.0
C596 C 0.51069 0.97992 0.14515 0.0
C597 C 0.50854 0.91482 0.17674 0.0
C598 C 0.46416 0.97194 0.15575 0.0
C599 C 0.43953 0.93545 0.17575 0.0
H600 H 0.16245 0.32282 0.67471 0.0
H601 H 0.10859 0.28098 0.78773 0.0
H602 H 0.06773 0.21134 0.76164 0.0
H603 H 0.04567 0.16173 0.70611 0.0
H604 H 0.10405 0.20287 0.59497 0.0
H605 H 0.14583 0.2726 0.6212 0.0
C606 C 0.14273 0.29855 0.69414 0.0
C607 C 0.13891 0.30802 0.73344 0.0
C608 C 0.12019 0.25796 0.67922 0.0
C609 C 0.11174 0.27554 0.75727 0.0
C610 C 0.08859 0.23532 0.74244 0.0
C611 C 0.06823 0.18589 0.68795 0.0
C612 C 0.07208 0.17713 0.64869 0.0
C613 C 0.09236 0.22611 0.70342 0.0
C614 C 0.10079 0.20876 0.62527 0.0
C615 C 0.12453 0.24874 0.64028 0.0
H616 H 0.82337 0.38576 0.4296 0.0
H617 H 0.91227 0.50656 0.47224 0.0
H618 H 0.84199 0.52301 0.48545 0.0
H619 H 0.75573 0.50033 0.48992 0.0
H620 H 0.66703 0.37887 0.44785 0.0
H621 H 0.73681 0.36531 0.429 0.0
C622 C 0.82716 0.41592 0.44115 0.0
C623 C 0.87241 0.44511 0.44989 0.0
C624 C 0.78676 0.4248 0.44894 0.0
C625 C 0.87742 0.48387 0.46524 0.0
C626 C 0.83736 0.49315 0.47284 0.0
C627 C 0.75155 0.47127 0.47579 0.0
C628 C 0.70625 0.44055 0.47047 0.0
C629 C 0.79186 0.46353 0.46545 0.0
C630 C 0.70156 0.4028 0.45268 0.0
C631 C 0.74141 0.39505 0.44188 0.0
loop_
_geom_bond_atom_site_label_1
_geom_bond_atom_site_label_2
_geom_bond_distance
_geom_bond_site_symmetry_2
_ccdc_geom_bond_type
H0 C3 0.929 . S
H1 C6 0.929 . S
H2 C8 0.930 . S
C3 H0 0.929 . S
C3 C4 1.398 . S
C3 C5 1.396 . S
C4 C3 1.398 . S
C4 C8 1.407 . S
C5 C3 1.396 . S
C5 C6 1.394 . S
C6 H1 0.929 . S
C6 C5 1.394 . S
C6 C7 1.382 . S
C7 C6 1.382 . S
C7 C8 1.392 . S
C7 N9 1.420 . S
C8 H2 0.930 . S
C8 C4 1.407 . S
C8 C7 1.392 . S
N9 C7 1.420 . S
N9 C10 1.244 . S
C10 N9 1.244 . S
H11 C14 0.929 . S
H12 C17 0.929 . S
H13 C19 0.930 . S
C14 H11 0.929 . S
C14 C15 1.398 . S
C14 C16 1.396 . S
C15 C14 1.398 . S
C15 C19 1.407 . S
C16 C14 1.396 . S
C16 C17 1.394 . S
C17 H12 0.929 . S
C17 C16 1.394 . S
C17 C18 1.382 . S
C18 C17 1.382 . S
C18 C19 1.392 . S
C18 N20 1.420 . S
C19 H13 0.930 . S
C19 C15 1.407 . S
C19 C18 1.392 . S
N20 C18 1.420 . S
N20 C21 1.244 . S
C21 N20 1.244 . S
H22 C25 0.929 . S
H23 C28 0.929 . S
H24 C30 0.930 . S
C25 H22 0.929 . S
C25 C26 1.398 . S
C25 C27 1.396 . S
C26 C25 1.398 . S
C26 C30 1.407 . S
C27 C25 1.396 . S
C27 C28 1.394 . S
C28 H23 0.929 . S
C28 C27 1.394 . S
C28 C29 1.382 . S
C29 C28 1.382 . S
C29 C30 1.392 . S
C29 N31 1.420 . S
C30 H24 0.930 . S
C30 C26 1.407 . S
C30 C29 1.392 . S
N31 C29 1.420 . S
N31 C32 1.244 . S
C32 N31 1.244 . S
H33 C36 0.929 . S
H34 C39 0.929 . S
H35 C41 0.930 . S
C36 H33 0.929 . S
C36 C37 1.398 . S
C36 C38 1.396 . S
C37 C36 1.398 . S
C37 C41 1.407 . S
C38 C36 1.396 . S
C38 C39 1.394 . S
C39 H34 0.929 . S
C39 C38 1.394 . S
C39 C40 1.382 . S
C40 C39 1.382 . S
C40 C41 1.392 . S
C40 N42 1.420 . S
C41 H35 0.930 . S
C41 C37 1.407 . S
C41 C40 1.392 . S
N42 C40 1.420 . S
N42 C43 1.244 . S
C43 N42 1.244 . S
H44 C47 0.929 . S
H45 C50 0.929 . S
H46 C52 0.930 . S
C47 H44 0.929 . S
C47 C48 1.398 . S
C47 C49 1.396 . S
C48 C47 1.398 . S
C48 C52 1.407 . S
C49 C47 1.396 . S
C49 C50 1.394 . S
C50 H45 0.929 . S
C50 C49 1.394 . S
C50 C51 1.382 . S
C51 C50 1.382 . S
C51 C52 1.392 . S
C51 N53 1.420 . S
C52 H46 0.930 . S
C52 C48 1.407 . S
C52 C51 1.392 . S
N53 C51 1.420 . S
N53 C54 1.244 . S
C54 N53 1.244 . S
H55 C58 0.929 . S
H56 C61 0.929 . S
H57 C63 0.930 . S
C58 H55 0.929 . S
C58 C59 1.398 . S
C58 C60 1.396 . S
C59 C58 1.398 . S
C59 C63 1.407 . S
C60 C58 1.396 . S
C60 C61 1.394 . S
C61 H56 0.929 . S
C61 C60 1.394 . S
C61 C62 1.382 . S
C62 C61 1.382 . S
C62 C63 1.392 . S
C62 N64 1.420 . S
C63 H57 0.930 . S
C63 C59 1.407 . S
C63 C62 1.392 . S
N64 C62 1.420 . S
N64 C65 1.244 . S
C65 N64 1.244 . S
H66 C69 0.929 . S
H67 C72 0.929 . S
H68 C74 0.930 . S
C69 H66 0.929 . S
C69 C70 1.398 . S
C69 C71 1.396 . S
C70 C69 1.398 . S
C70 C74 1.407 . S
C71 C69 1.396 . S
C71 C72 1.394 . S
C72 H67 0.929 . S
C72 C71 1.394 . S
C72 C73 1.382 . S
C73 C72 1.382 . S
C73 C74 1.392 . S
C73 N75 1.420 . S
C74 H68 0.930 . S
C74 C70 1.407 . S
C74 C73 1.392 . S
N75 C73 1.420 . S
N75 C76 1.244 . S
C76 N75 1.244 . S
H77 C80 0.929 . S
H78 C83 0.929 . S
H79 C85 0.930 . S
C80 H77 0.929 . S
C80 C81 1.398 . S
C80 C82 1.396 . S
C81 C80 1.398 . S
C81 C85 1.407 . S
C82 C80 1.396 . S
C82 C83 1.394 . S
C83 H78 0.929 . S
C83 C82 1.394 . S
C83 C84 1.382 . S
C84 C83 1.382 . S
C84 C85 1.392 . S
C84 N86 1.420 . S
C85 H79 0.930 . S
C85 C81 1.407 . S
C85 C84 1.392 . S
N86 C84 1.420 . S
N86 C87 1.244 . S
C87 N86 1.244 . S
Tb88 C90 2.809 1_545 S
Tb88 O108 2.484 1_545 S
Tb88 O109 2.440 . S
Tb88 O110 2.658 1_655 S
Tb88 O111 2.409 1_655 S
Tb88 O112 2.394 1_655 S
Tb88 O116 2.325 1_545 S
Tb88 O119 2.341 . S
Tb89 C99 2.809 . S
Tb89 O110 2.325 . S
Tb89 O113 2.341 1_545 S
Tb89 O114 2.484 . S
Tb89 O115 2.440 . S
Tb89 O116 2.658 1_445 S
Tb89 O117 2.409 1_545 S
Tb89 O118 2.378 . S
C90 Tb88 2.809 1_565 S
C90 C91 1.514 . S
C90 O108 1.248 . S
C90 O109 1.266 1_565 S
C91 C90 1.514 . S
C91 C92 1.359 . S
C91 C96 1.348 . S
C92 C91 1.359 . S
C92 C93 1.380 . S
C92 H120 0.929 . S
C93 C92 1.380 . S
C93 C94 1.347 . S
C93 H121 0.931 . S
C94 C93 1.347 . S
C94 C95 1.369 . S
C95 C94 1.369 . S
C95 C96 1.408 . S
C95 H122 0.930 . S
C96 C91 1.348 . S
C96 C95 1.408 . S
C96 H123 0.930 . S
C97 O110 1.281 . S
C97 O111 1.254 . S
C98 O112 1.218 1_565 S
C98 O113 1.266 . S
C99 Tb89 2.809 . S
C99 C100 1.514 . S
C99 O114 1.248 . S
C99 O115 1.266 . S
C100 C99 1.514 . S
C100 C101 1.359 . S
C100 C105 1.348 . S
C101 C100 1.359 . S
C101 C102 1.380 . S
C101 H124 0.929 . S
C102 C101 1.380 . S
C102 C103 1.347 . S
C102 H125 0.931 . S
C103 C102 1.347 . S
C103 C104 1.369 . S
C104 C103 1.369 . S
C104 C105 1.408 . S
C104 H126 0.930 . S
C105 C100 1.348 . S
C105 C104 1.408 . S
C105 H127 0.930 . S
C106 O116 1.281 . S
C106 O117 1.254 1_655 S
C107 O118 1.236 1_655 S
C107 O119 1.266 . S
O108 Tb88 2.484 1_565 S
O108 C90 1.248 . S
O109 Tb88 2.440 . S
O109 C90 1.266 1_545 S
O110 Tb88 2.658 1_455 S
O110 Tb89 2.325 . S
O110 C97 1.281 . S
O111 Tb88 2.409 1_455 S
O111 C97 1.254 . S
O112 Tb88 2.394 1_455 S
O112 C98 1.218 1_545 S
O113 Tb89 2.341 1_565 S
O113 C98 1.266 . S
O114 Tb89 2.484 . S
O114 C99 1.248 . S
O115 Tb89 2.440 . S
O115 C99 1.266 . S
O116 Tb88 2.325 1_565 S
O116 Tb89 2.658 1_665 S
O116 C106 1.281 . S
O117 Tb89 2.409 1_565 S
O117 C106 1.254 1_455 S
O118 Tb89 2.378 . S
O118 C107 1.236 1_455 S
O119 Tb88 2.341 . S
O119 C107 1.266 . S
H120 C92 0.929 . S
H121 C93 0.931 . S
H122 C95 0.930 . S
H123 C96 0.930 . S
H124 C101 0.929 . S
H125 C102 0.931 . S
H126 C104 0.930 . S
H127 C105 0.930 . S
Tb128 C130 2.809 . S
Tb128 O148 2.484 . S
Tb128 O149 2.440 . S
Tb128 O150 2.658 1_545 S
Tb128 O151 2.409 1_545 S
Tb128 O152 2.378 . S
Tb128 O156 2.325 . S
Tb128 O159 2.339 1_545 S
Tb129 C139 2.809 1_544 S
Tb129 O150 2.325 1_545 S
Tb129 O153 2.341 . S
Tb129 O154 2.492 1_545 S
Tb129 O155 2.440 1_544 S
Tb129 O156 2.658 . S
Tb129 O157 2.409 1_554 S
Tb129 O158 2.361 1_544 S
C130 Tb128 2.809 . S
C130 C131 1.514 . S
C130 O148 1.248 . S
C130 O149 1.266 . S
C131 C130 1.514 . S
C131 C132 1.359 . S
C131 C136 1.348 . S
C132 C131 1.359 . S
C132 C133 1.380 . S
C132 H160 0.929 . S
C133 C132 1.380 . S
C133 C134 1.347 . S
C133 H161 0.931 . S
C134 C133 1.347 . S
C134 C135 1.369 . S
C135 C134 1.369 . S
C135 C136 1.408 . S
C135 H162 0.930 . S
C136 C131 1.348 . S
C136 C135 1.408 . S
C136 H163 0.930 . S
C137 O150 1.281 . S
C137 O151 1.254 . S
C138 O152 1.236 . S
C138 O153 1.266 . S
C139 Tb129 2.809 1_566 S
C139 C140 1.514 . S
C139 O154 1.227 1_556 S
C139 O155 1.266 . S
C140 C139 1.514 . S
C140 C141 1.359 . S
C140 C145 1.348 . S
C141 C140 1.359 . S
C141 C142 1.380 . S
C141 H164 0.929 . S
C142 C141 1.380 . S
C142 C143 1.347 . S
C142 H165 0.931 . S
C143 C142 1.347 . S
C143 C144 1.369 . S
C144 C143 1.369 . S
C144 C145 1.408 . S
C144 H166 0.930 . S
C145 C140 1.348 . S
C145 C144 1.408 . S
C145 H167 0.930 . S
C146 O156 1.281 . S
C146 O157 1.254 1_554 S
C147 O158 1.255 1_554 S
C147 O159 1.266 . S
O148 Tb128 2.484 . S
O148 C130 1.248 . S
O149 Tb128 2.440 . S
O149 C130 1.266 . S
O150 Tb128 2.658 1_565 S
O150 Tb129 2.325 1_565 S
O150 C137 1.281 . S
O151 Tb128 2.409 1_565 S
O151 C137 1.254 . S
O152 Tb128 2.378 . S
O152 C138 1.236 . S
O153 Tb129 2.341 . S
O153 C138 1.266 . S
O154 Tb129 2.492 1_565 S
O154 C139 1.227 1_554 S
O155 Tb129 2.440 1_566 S
O155 C139 1.266 . S
O156 Tb128 2.325 . S
O156 Tb129 2.658 . S
O156 C146 1.281 . S
O157 Tb129 2.409 1_556 S
O157 C146 1.254 1_556 S
O158 Tb129 2.361 1_566 S
O158 C147 1.255 1_556 S
O159 Tb128 2.339 1_565 S
O159 C147 1.266 . S
H160 C132 0.929 . S
H161 C133 0.931 . S
H162 C135 0.930 . S
H163 C136 0.930 . S
H164 C141 0.929 . S
H165 C142 0.931 . S
H166 C144 0.930 . S
H167 C145 0.930 . S
Tb168 C170 2.809 . S
Tb168 O188 2.484 . S
Tb168 O189 2.440 . S
Tb168 O190 2.658 . S
Tb168 O191 2.409 . S
Tb168 O192 2.378 . S
Tb168 O196 2.325 . S
Tb168 O199 2.341 . S
Tb169 C179 2.809 . S
Tb169 O190 2.325 . S
Tb169 O193 2.341 . S
Tb169 O194 2.484 . S
Tb169 O195 2.440 . S
Tb169 O196 2.658 . S
Tb169 O197 2.409 . S
Tb169 O198 2.378 . S
C170 Tb168 2.809 . S
C170 C171 1.514 . S
C170 O188 1.248 . S
C170 O189 1.266 . S
C171 C170 1.514 . S
C171 C172 1.359 . S
C171 C176 1.348 . S
C172 C171 1.359 . S
C172 C173 1.380 . S
C172 H200 0.929 . S
C173 C172 1.380 . S
C173 C174 1.347 . S
C173 H201 0.931 . S
C174 C173 1.347 . S
C174 C175 1.369 . S
C175 C174 1.369 . S
C175 C176 1.408 . S
C175 H202 0.930 . S
C176 C171 1.348 . S
C176 C175 1.408 . S
C176 H203 0.930 . S
C177 O190 1.281 . S
C177 O191 1.254 . S
C178 O192 1.236 . S
C178 O193 1.266 . S
C179 Tb169 2.809 . S
C179 C180 1.514 . S
C179 O194 1.248 . S
C179 O195 1.266 . S
C180 C179 1.514 . S
C180 C181 1.359 . S
C180 C185 1.348 . S
C181 C180 1.359 . S
C181 C182 1.380 . S
C181 H204 0.929 . S
C182 C181 1.380 . S
C182 C183 1.347 . S
C182 H205 0.931 . S
C183 C182 1.347 . S
C183 C184 1.369 . S
C184 C183 1.369 . S
C184 C185 1.408 . S
C184 H206 0.930 . S
C185 C180 1.348 . S
C185 C184 1.408 . S
C185 H207 0.930 . S
C186 O196 1.281 . S
C186 O197 1.254 . S
C187 O198 1.236 . S
C187 O199 1.266 . S
O188 Tb168 2.484 . S
O188 C170 1.248 . S
O189 Tb168 2.440 . S
O189 C170 1.266 . S
O190 Tb168 2.658 . S
O190 Tb169 2.325 . S
O190 C177 1.281 . S
O191 Tb168 2.409 . S
O191 C177 1.254 . S
O192 Tb168 2.378 . S
O192 C178 1.236 . S
O193 Tb169 2.341 . S
O193 C178 1.266 . S
O194 Tb169 2.484 . S
O194 C179 1.248 . S
O195 Tb169 2.440 . S
O195 C179 1.266 . S
O196 Tb168 2.325 . S
O196 Tb169 2.658 . S
O196 C186 1.281 . S
O197 Tb169 2.409 . S
O197 C186 1.254 . S
O198 Tb169 2.378 . S
O198 C187 1.236 . S
O199 Tb168 2.341 . S
O199 C187 1.266 . S
H200 C172 0.929 . S
H201 C173 0.931 . S
H202 C175 0.930 . S
H203 C176 0.930 . S
H204 C181 0.929 . S
H205 C182 0.931 . S
H206 C184 0.930 . S
H207 C185 0.930 . S
Tb208 C210 2.809 1_455 S
Tb208 O228 2.484 1_455 S
Tb208 O229 2.440 . S
Tb208 O230 2.658 1_556 S
Tb208 O231 2.409 1_556 S
Tb208 O232 2.378 1_556 S
Tb208 O236 2.325 1_455 S
Tb208 O239 2.341 . S
Tb209 C219 2.809 . S
Tb209 O230 2.325 . S
Tb209 O233 2.341 . S
Tb209 O234 2.484 . S
Tb209 O235 2.440 . S
Tb209 O236 2.658 1_454 S
Tb209 O237 2.409 1_455 S
Tb209 O238 2.378 1_554 S
C210 Tb208 2.809 1_655 S
C210 C211 1.514 . S
C210 O228 1.248 . S
C210 O229 1.266 1_655 S
C211 C210 1.514 . S
C211 C212 1.359 . S
C211 C216 1.348 . S
C212 C211 1.359 . S
C212 C213 1.380 . S
C212 H240 0.929 . S
C213 C212 1.380 . S
C213 C214 1.347 . S
C213 H241 0.931 . S
C214 C213 1.347 . S
C214 C215 1.369 . S
C215 C214 1.369 . S
C215 C216 1.408 . S
C215 H242 0.930 . S
C216 C211 1.348 . S
C216 C215 1.408 . S
C216 H243 0.930 1_655 S
C217 O230 1.281 . S
C217 O231 1.254 . S
C218 O232 1.236 1_655 S
C218 O233 1.266 1_655 S
C219 Tb209 2.809 . S
C219 C220 1.514 . S
C219 O234 1.248 . S
C219 O235 1.266 . S
C220 C219 1.514 . S
C220 C221 1.359 . S
C220 C225 1.348 . S
C221 C220 1.359 . S
C221 C222 1.380 . S
C221 H244 0.929 . S
C222 C221 1.380 . S
C222 C223 1.347 . S
C222 H245 0.931 . S
C223 C222 1.347 . S
C223 C224 1.369 . S
C224 C223 1.369 . S
C224 C225 1.408 . S
C224 H246 0.930 . S
C225 C220 1.348 . S
C225 C224 1.408 . S
C225 H247 0.930 . S
C226 O236 1.281 . S
C226 O237 1.254 1_556 S
C227 O238 1.236 . S
C227 O239 1.266 . S
O228 Tb208 2.484 1_655 S
O228 C210 1.248 . S
O229 Tb208 2.440 . S
O229 C210 1.266 1_455 S
O230 Tb208 2.658 1_554 S
O230 Tb209 2.325 . S
O230 C217 1.281 . S
O231 Tb208 2.409 1_554 S
O231 C217 1.254 . S
O232 Tb208 2.378 1_554 S
O232 C218 1.236 1_455 S
O233 Tb209 2.341 . S
O233 C218 1.266 1_455 S
O234 Tb209 2.484 . S
O234 C219 1.248 . S
O235 Tb209 2.440 . S
O235 C219 1.266 . S
O236 Tb208 2.325 1_655 S
O236 Tb209 2.658 1_656 S
O236 C226 1.281 . S
O237 Tb209 2.409 1_655 S
O237 C226 1.254 1_554 S
O238 Tb209 2.378 1_556 S
O238 C227 1.236 . S
O239 Tb208 2.341 . S
O239 C227 1.266 . S
H240 C212 0.929 . S
H241 C213 0.931 . S
H242 C215 0.930 . S
H243 C216 0.930 1_455 S
H244 C221 0.929 . S
H245 C222 0.931 . S
H246 C224 0.930 . S
H247 C225 0.930 . S
H248 C254 0.930 . S
H249 C257 0.930 . S
H250 C258 0.930 . S
H251 C259 0.930 . S
H252 C262 0.930 . S
H253 C263 0.930 . S
C254 H248 0.930 . S
C254 C255 1.355 . S
C254 C256 1.415 . S
C255 C254 1.355 . S
C255 C257 1.419 . S
C256 C254 1.415 . S
C256 C261 1.425 . S
C256 C263 1.409 . S
C257 H249 0.930 . S
C257 C255 1.419 . S
C257 C258 1.362 . S
C258 H250 0.930 . S
C258 C257 1.362 . S
C258 C261 1.409 . S
C259 H251 0.930 . S
C259 C260 1.355 . S
C259 C261 1.415 . S
C260 C259 1.355 . S
C260 C262 1.419 . S
C261 C256 1.425 . S
C261 C258 1.409 . S
C261 C259 1.415 . S
C262 H252 0.930 . S
C262 C260 1.419 . S
C262 C263 1.362 . S
C263 H253 0.930 . S
C263 C256 1.409 . S
C263 C262 1.362 . S
H264 C270 0.930 . S
H265 C273 0.930 . S
H266 C274 0.930 . S
H267 C275 0.930 . S
H268 C278 0.930 . S
H269 C279 0.930 . S
C270 H264 0.930 . S
C270 C271 1.355 . S
C270 C272 1.415 . S
C271 C270 1.355 . S
C271 C273 1.419 . S
C272 C270 1.415 . S
C272 C277 1.425 . S
C272 C279 1.409 . S
C273 H265 0.930 . S
C273 C271 1.419 . S
C273 C274 1.362 . S
C274 H266 0.930 . S
C274 C273 1.362 . S
C274 C277 1.409 . S
C275 H267 0.930 . S
C275 C276 1.355 . S
C275 C277 1.415 . S
C276 C275 1.355 . S
C276 C278 1.419 . S
C277 C272 1.425 . S
C277 C274 1.409 . S
C277 C275 1.415 . S
C278 H268 0.930 . S
C278 C276 1.419 . S
C278 C279 1.362 . S
C279 H269 0.930 . S
C279 C272 1.409 . S
C279 C278 1.362 . S
H280 C286 0.930 . S
H281 C289 0.930 . S
H282 C290 0.930 . S
H283 C291 0.930 . S
H284 C294 0.930 . S
H285 C295 0.930 . S
C286 H280 0.930 . S
C286 C287 1.355 . S
C286 C288 1.415 . S
C287 C286 1.355 . S
C287 C289 1.419 . S
C288 C286 1.415 . S
C288 C293 1.425 . S
C288 C295 1.409 . S
C289 H281 0.930 . S
C289 C287 1.419 . S
C289 C290 1.362 . S
C290 H282 0.930 . S
C290 C289 1.362 . S
C290 C293 1.409 . S
C291 H283 0.930 . S
C291 C292 1.355 . S
C291 C293 1.415 . S
C292 C291 1.355 . S
C292 C294 1.419 . S
C293 C288 1.425 . S
C293 C290 1.409 . S
C293 C291 1.415 . S
C294 H284 0.930 . S
C294 C292 1.419 . S
C294 C295 1.362 . S
C295 H285 0.930 . S
C295 C288 1.409 . S
C295 C294 1.362 . S
H296 C302 0.930 . S
H297 C305 0.930 . S
H298 C306 0.930 . S
H299 C307 0.930 . S
H300 C310 0.930 . S
H301 C311 0.930 . S
C302 H296 0.930 . S
C302 C303 1.355 . S
C302 C304 1.415 . S
C303 C302 1.355 . S
C303 C305 1.419 . S
C304 C302 1.415 . S
C304 C309 1.425 . S
C304 C311 1.409 . S
C305 H297 0.930 . S
C305 C303 1.419 . S
C305 C306 1.362 . S
C306 H298 0.930 . S
C306 C305 1.362 . S
C306 C309 1.409 . S
C307 H299 0.930 . S
C307 C308 1.355 . S
C307 C309 1.415 . S
C308 C307 1.355 . S
C308 C310 1.419 . S
C309 C304 1.425 . S
C309 C306 1.409 . S
C309 C307 1.415 . S
C310 H300 0.930 . S
C310 C308 1.419 . S
C310 C311 1.362 . S
C311 H301 0.930 . S
C311 C304 1.409 . S
C311 C310 1.362 . S
H312 C318 0.930 . S
H313 C321 0.930 . S
H314 C322 0.930 . S
H315 C323 0.930 . S
H316 C326 0.930 . S
H317 C327 0.930 . S
C318 H312 0.930 . S
C318 C319 1.355 . S
C318 C320 1.415 . S
C319 C318 1.355 . S
C319 C321 1.419 . S
C320 C318 1.415 . S
C320 C325 1.425 . S
C320 C327 1.409 . S
C321 H313 0.930 . S
C321 C319 1.419 . S
C321 C322 1.362 . S
C322 H314 0.930 . S
C322 C321 1.362 . S
C322 C325 1.409 . S
C323 H315 0.930 . S
C323 C324 1.355 . S
C323 C325 1.415 . S
C324 C323 1.355 . S
C324 C326 1.419 . S
C325 C320 1.425 . S
C325 C322 1.409 . S
C325 C323 1.415 . S
C326 H316 0.930 . S
C326 C324 1.419 . S
C326 C327 1.362 . S
C327 H317 0.930 . S
C327 C320 1.409 . S
C327 C326 1.362 . S
H328 C334 0.930 . S
H329 C337 0.930 1_655 S
H330 C338 0.930 1_655 S
H331 C339 0.930 . S
H332 C342 0.930 . S
H333 C343 0.930 . S
C334 H328 0.930 . S
C334 C335 1.355 . S
C334 C336 1.415 . S
C335 C334 1.355 . S
C335 C337 1.419 . S
C336 C334 1.415 . S
C336 C341 1.425 . S
C336 C343 1.409 . S
C337 H329 0.930 1_455 S
C337 C335 1.419 . S
C337 C338 1.362 . S
C338 H330 0.930 1_455 S
C338 C337 1.362 . S
C338 C341 1.409 . S
C339 H331 0.930 . S
C339 C340 1.355 . S
C339 C341 1.415 . S
C340 C339 1.355 . S
C340 C342 1.419 . S
C341 C336 1.425 . S
C341 C338 1.409 . S
C341 C339 1.415 . S
C342 H332 0.930 . S
C342 C340 1.419 . S
C342 C343 1.362 . S
C343 H333 0.930 . S
C343 C336 1.409 . S
C343 C342 1.362 . S
H344 C350 0.930 . S
H345 C353 0.930 . S
H346 C354 0.930 . S
H347 C355 0.930 . S
H348 C358 0.930 . S
H349 C359 0.930 . S
C350 H344 0.930 . S
C350 C351 1.355 . S
C350 C352 1.415 . S
C351 C350 1.355 . S
C351 C353 1.419 . S
C352 C350 1.415 . S
C352 C357 1.425 . S
C352 C359 1.409 . S
C353 H345 0.930 . S
C353 C351 1.419 . S
C353 C354 1.362 . S
C354 H346 0.930 . S
C354 C353 1.362 . S
C354 C357 1.409 . S
C355 H347 0.930 . S
C355 C356 1.355 . S
C355 C357 1.415 . S
C356 C355 1.355 . S
C356 C358 1.419 . S
C357 C352 1.425 . S
C357 C354 1.409 . S
C357 C355 1.415 . S
C358 H348 0.930 . S
C358 C356 1.419 . S
C358 C359 1.362 . S
C359 H349 0.930 . S
C359 C352 1.409 . S
C359 C358 1.362 . S
H360 C366 0.930 . S
H361 C369 0.930 . S
H362 C370 0.930 . S
H363 C371 0.930 . S
H364 C374 0.930 . S
H365 C375 0.930 . S
C366 H360 0.930 . S
C366 C367 1.355 . S
C366 C368 1.415 . S
C367 C366 1.355 . S
C367 C369 1.419 . S
C368 C366 1.415 . S
C368 C373 1.425 . S
C368 C375 1.409 . S
C369 H361 0.930 . S
C369 C367 1.419 . S
C369 C370 1.362 . S
C370 H362 0.930 . S
C370 C369 1.362 . S
C370 C373 1.409 . S
C371 H363 0.930 . S
C371 C372 1.355 . S
C371 C373 1.415 . S
C372 C371 1.355 . S
C372 C374 1.419 . S
C373 C368 1.425 . S
C373 C370 1.409 . S
C373 C371 1.415 . S
C374 H364 0.930 . S
C374 C372 1.419 . S
C374 C375 1.362 . S
C375 H365 0.930 . S
C375 C368 1.409 . S
C375 C374 1.362 . S
H376 C382 0.930 . S
H377 C385 0.930 . S
H378 C386 0.930 . S
H379 C387 0.930 . S
H380 C390 0.930 . S
H381 C391 0.930 . S
C382 H376 0.930 . S
C382 C383 1.355 . S
C382 C384 1.415 . S
C383 C382 1.355 . S
C383 C385 1.419 . S
C384 C382 1.415 . S
C384 C389 1.425 . S
C384 C391 1.409 . S
C385 H377 0.930 . S
C385 C383 1.419 . S
C385 C386 1.362 . S
C386 H378 0.930 . S
C386 C385 1.362 . S
C386 C389 1.409 . S
C387 H379 0.930 . S
C387 C388 1.355 . S
C387 C389 1.415 . S
C388 C387 1.355 . S
C388 C390 1.419 . S
C389 C384 1.425 . S
C389 C386 1.409 . S
C389 C387 1.415 . S
C390 H380 0.930 . S
C390 C388 1.419 . S
C390 C391 1.362 . S
C391 H381 0.930 . S
C391 C384 1.409 . S
C391 C390 1.362 . S
H392 C398 0.930 . S
H393 C401 0.930 . S
H394 C402 0.930 . S
H395 C403 0.935 . S
H396 C406 0.930 . S
H397 C407 0.930 . S
C398 H392 0.930 . S
C398 C399 1.355 . S
C398 C400 1.415 . S
C399 C398 1.355 . S
C399 C401 1.419 . S
C400 C398 1.415 . S
C400 C405 1.425 . S
C400 C407 1.409 . S
C401 H393 0.930 . S
C401 C399 1.419 . S
C401 C402 1.362 . S
C402 H394 0.930 . S
C402 C401 1.362 . S
C402 C405 1.409 . S
C403 H395 0.935 . S
C403 C404 1.355 . S
C403 C405 1.415 . S
C404 C403 1.355 . S
C404 C406 1.419 . S
C405 C400 1.425 . S
C405 C402 1.409 . S
C405 C403 1.415 . S
C406 H396 0.930 . S
C406 C404 1.419 . S
C406 C407 1.362 . S
C407 H397 0.930 . S
C407 C400 1.409 . S
C407 C406 1.362 . S
H408 C414 0.930 . S
H409 C417 0.930 . S
H410 C418 0.930 . S
H411 C419 0.930 . S
H412 C422 0.930 1_455 S
H413 C423 0.930 . S
C414 H408 0.930 . S
C414 C415 1.355 . S
C414 C416 1.415 . S
C415 C414 1.355 . S
C415 C417 1.419 . S
C416 C414 1.415 . S
C416 C421 1.425 . S
C416 C423 1.409 . S
C417 H409 0.930 . S
C417 C415 1.419 . S
C417 C418 1.362 . S
C418 H410 0.930 . S
C418 C417 1.362 . S
C418 C421 1.409 . S
C419 H411 0.930 . S
C419 C420 1.355 . S
C419 C421 1.415 . S
C420 C419 1.355 . S
C420 C422 1.419 . S
C421 C416 1.425 . S
C421 C418 1.409 . S
C421 C419 1.415 . S
C422 H412 0.930 1_655 S
C422 C420 1.419 . S
C422 C423 1.362 . S
C423 H413 0.930 . S
C423 C416 1.409 . S
C423 C422 1.362 . S
H424 C430 0.930 . S
H425 C433 0.930 . S
H426 C434 0.930 . S
H427 C435 0.930 . S
H428 C438 0.930 . S
H429 C439 0.930 . S
C430 H424 0.930 . S
C430 C431 1.355 . S
C430 C432 1.415 . S
C431 C430 1.355 . S
C431 C433 1.419 . S
C432 C430 1.415 . S
C432 C437 1.425 . S
C432 C439 1.409 . S
C433 H425 0.930 . S
C433 C431 1.419 . S
C433 C434 1.362 . S
C434 H426 0.930 . S
C434 C433 1.362 . S
C434 C437 1.409 . S
C435 H427 0.930 . S
C435 C436 1.355 . S
C435 C437 1.415 . S
C436 C435 1.355 . S
C436 C438 1.419 . S
C437 C432 1.425 . S
C437 C434 1.409 . S
C437 C435 1.415 . S
C438 H428 0.930 . S
C438 C436 1.419 . S
C438 C439 1.362 . S
C439 H429 0.930 . S
C439 C432 1.409 . S
C439 C438 1.362 . S
H440 C446 0.930 . S
H441 C449 0.930 . S
H442 C450 0.930 . S
H443 C451 0.930 . S
H444 C454 0.930 . S
H445 C455 0.930 . S
C446 H440 0.930 . S
C446 C447 1.355 . S
C446 C448 1.415 . S
C447 C446 1.355 . S
C447 C449 1.419 . S
C448 C446 1.415 . S
C448 C453 1.425 . S
C448 C455 1.409 . S
C449 H441 0.930 . S
C449 C447 1.419 . S
C449 C450 1.362 . S
C450 H442 0.930 . S
C450 C449 1.362 . S
C450 C453 1.409 . S
C451 H443 0.930 . S
C451 C452 1.355 . S
C451 C453 1.415 . S
C452 C451 1.355 . S
C452 C454 1.419 . S
C453 C448 1.425 . S
C453 C450 1.409 . S
C453 C451 1.415 . S
C454 H444 0.930 . S
C454 C452 1.419 . S
C454 C455 1.362 . S
C455 H445 0.930 . S
C455 C448 1.409 . S
C455 C454 1.362 . S
H456 C462 0.930 . S
H457 C465 0.930 . S
H458 C466 0.930 . S
H459 C467 0.930 . S
H460 C470 0.930 . S
H461 C471 0.930 . S
C462 H456 0.930 . S
C462 C463 1.355 . S
C462 C464 1.415 . S
C463 C462 1.355 . S
C463 C465 1.419 . S
C464 C462 1.415 . S
C464 C469 1.425 . S
C464 C471 1.409 . S
C465 H457 0.930 . S
C465 C463 1.419 . S
C465 C466 1.362 . S
C466 H458 0.930 . S
C466 C465 1.362 . S
C466 C469 1.409 . S
C467 H459 0.930 . S
C467 C468 1.355 . S
C467 C469 1.415 . S
C468 C467 1.355 . S
C468 C470 1.419 . S
C469 C464 1.425 . S
C469 C466 1.409 . S
C469 C467 1.415 . S
C470 H460 0.930 . S
C470 C468 1.419 . S
C470 C471 1.362 . S
C471 H461 0.930 . S
C471 C464 1.409 . S
C471 C470 1.362 . S
H472 C478 0.930 . S
H473 C481 0.930 . S
H474 C482 0.930 . S
H475 C483 0.930 . S
H476 C486 0.930 . S
H477 C487 0.930 . S
C478 H472 0.930 . S
C478 C479 1.355 . S
C478 C480 1.415 . S
C479 C478 1.355 . S
C479 C481 1.419 . S
C480 C478 1.415 . S
C480 C485 1.425 . S
C480 C487 1.409 . S
C481 H473 0.930 . S
C481 C479 1.419 . S
C481 C482 1.362 . S
C482 H474 0.930 . S
C482 C481 1.362 . S
C482 C485 1.409 . S
C483 H475 0.930 . S
C483 C484 1.355 . S
C483 C485 1.415 . S
C484 C483 1.355 . S
C484 C486 1.419 . S
C485 C480 1.425 . S
C485 C482 1.409 . S
C485 C483 1.415 . S
C486 H476 0.930 . S
C486 C484 1.419 . S
C486 C487 1.362 . S
C487 H477 0.930 . S
C487 C480 1.409 . S
C487 C486 1.362 . S
H488 C494 0.930 . S
H489 C497 0.930 . S
H490 C498 0.930 . S
H491 C499 0.930 . S
H492 C502 0.930 . S
H493 C503 0.930 . S
C494 H488 0.930 . S
C494 C495 1.355 . S
C494 C496 1.415 . S
C495 C494 1.355 . S
C495 C497 1.419 . S
C496 C494 1.415 . S
C496 C501 1.425 . S
C496 C503 1.409 . S
C497 H489 0.930 . S
C497 C495 1.419 . S
C497 C498 1.362 . S
C498 H490 0.930 . S
C498 C497 1.362 . S
C498 C501 1.409 . S
C499 H491 0.930 . S
C499 C500 1.355 . S
C499 C501 1.415 . S
C500 C499 1.355 . S
C500 C502 1.419 . S
C501 C496 1.425 . S
C501 C498 1.409 . S
C501 C499 1.415 . S
C502 H492 0.930 . S
C502 C500 1.419 . S
C502 C503 1.362 . S
C503 H493 0.930 . S
C503 C496 1.409 . S
C503 C502 1.362 . S
H504 C510 0.930 . S
H505 C513 0.930 . S
H506 C514 0.930 . S
H507 C515 0.930 . S
H508 C518 0.930 . S
H509 C519 0.930 . S
C510 H504 0.930 . S
C510 C511 1.355 . S
C510 C512 1.415 . S
C511 C510 1.355 . S
C511 C513 1.419 . S
C512 C510 1.415 . S
C512 C517 1.425 . S
C512 C519 1.409 . S
C513 H505 0.930 . S
C513 C511 1.419 . S
C513 C514 1.362 . S
C514 H506 0.930 . S
C514 C513 1.362 . S
C514 C517 1.409 . S
C515 H507 0.930 . S
C515 C516 1.355 . S
C515 C517 1.415 . S
C516 C515 1.355 . S
C516 C518 1.419 1_556 S
C517 C512 1.425 . S
C517 C514 1.409 . S
C517 C515 1.415 . S
C518 H508 0.930 . S
C518 C516 1.419 1_554 S
C518 C519 1.362 1_554 S
C519 H509 0.930 . S
C519 C512 1.409 . S
C519 C518 1.362 1_556 S
H520 C526 0.930 1_455 S
H521 C529 0.930 . S
H522 C530 0.930 . S
H523 C531 0.930 . S
H524 C534 0.930 . S
H525 C535 0.930 . S
C526 H520 0.930 1_655 S
C526 C527 1.355 . S
C526 C528 1.415 . S
C527 C526 1.355 . S
C527 C529 1.419 . S
C528 C526 1.415 . S
C528 C533 1.425 . S
C528 C535 1.409 1_655 S
C529 H521 0.930 . S
C529 C527 1.419 . S
C529 C530 1.362 . S
C530 H522 0.930 . S
C530 C529 1.362 . S
C530 C533 1.409 . S
C531 H523 0.930 . S
C531 C532 1.355 . S
C531 C533 1.415 . S
C532 C531 1.355 . S
C532 C534 1.419 1_655 S
C533 C528 1.425 . S
C533 C530 1.409 . S
C533 C531 1.415 . S
C534 H524 0.930 . S
C534 C532 1.419 1_455 S
C534 C535 1.362 . S
C535 H525 0.930 . S
C535 C528 1.409 1_455 S
C535 C534 1.362 . S
H536 C542 0.930 . S
H537 C545 0.930 . S
H538 C546 0.930 . S
H539 C547 0.930 . S
H540 C550 0.930 . S
H541 C551 0.930 . S
C542 H536 0.930 . S
C542 C543 1.355 . S
C542 C544 1.415 . S
C543 C542 1.355 . S
C543 C545 1.419 . S
C544 C542 1.415 . S
C544 C549 1.425 . S
C544 C551 1.409 . S
C545 H537 0.930 . S
C545 C543 1.419 . S
C545 C546 1.362 . S
C546 H538 0.930 . S
C546 C545 1.362 . S
C546 C549 1.409 . S
C547 H539 0.930 . S
C547 C548 1.355 . S
C547 C549 1.415 . S
C548 C547 1.355 . S
C548 C550 1.419 . S
C549 C544 1.425 . S
C549 C546 1.409 . S
C549 C547 1.415 . S
C550 H540 0.930 . S
C550 C548 1.419 . S
C550 C551 1.362 . S
C551 H541 0.930 . S
C551 C544 1.409 . S
C551 C550 1.362 . S
H552 C558 0.930 . S
H553 C561 0.930 . S
H554 C562 0.930 . S
H555 C563 0.930 . S
H556 C566 0.930 . S
H557 C567 0.930 . S
C558 H552 0.930 . S
C558 C559 1.355 . S
C558 C560 1.415 . S
C559 C558 1.355 . S
C559 C561 1.419 . S
C560 C558 1.415 . S
C560 C565 1.425 . S
C560 C567 1.409 . S
C561 H553 0.930 . S
C561 C559 1.419 . S
C561 C562 1.362 . S
C562 H554 0.930 . S
C562 C561 1.362 . S
C562 C565 1.409 . S
C563 H555 0.930 . S
C563 C564 1.355 . S
C563 C565 1.415 . S
C564 C563 1.355 . S
C564 C566 1.419 . S
C565 C560 1.425 . S
C565 C562 1.409 . S
C565 C563 1.415 . S
C566 H556 0.930 . S
C566 C564 1.419 . S
C566 C567 1.362 . S
C567 H557 0.930 . S
C567 C560 1.409 . S
C567 C566 1.362 . S
H568 C574 0.930 . S
H569 C577 0.930 . S
H570 C578 0.930 . S
H571 C579 0.930 . S
H572 C582 0.930 . S
H573 C583 0.930 . S
C574 H568 0.930 . S
C574 C575 1.355 . S
C574 C576 1.415 . S
C575 C574 1.355 . S
C575 C577 1.419 . S
C576 C574 1.415 . S
C576 C581 1.425 . S
C576 C583 1.409 . S
C577 H569 0.930 . S
C577 C575 1.419 . S
C577 C578 1.362 . S
C578 H570 0.930 . S
C578 C577 1.362 . S
C578 C581 1.409 . S
C579 H571 0.930 . S
C579 C580 1.355 . S
C579 C581 1.415 . S
C580 C579 1.355 . S
C580 C582 1.419 . S
C581 C576 1.425 . S
C581 C578 1.409 . S
C581 C579 1.415 . S
C582 H572 0.930 . S
C582 C580 1.419 . S
C582 C583 1.362 . S
C583 H573 0.930 . S
C583 C576 1.409 . S
C583 C582 1.362 . S
H584 C590 0.930 . S
H585 C593 0.930 . S
H586 C594 0.930 . S
H587 C595 0.930 . S
H588 C598 0.930 . S
H589 C599 0.930 . S
C590 H584 0.930 . S
C590 C591 1.355 . S
C590 C592 1.415 . S
C591 C590 1.355 . S
C591 C593 1.419 . S
C592 C590 1.415 . S
C592 C597 1.425 . S
C592 C599 1.409 . S
C593 H585 0.930 . S
C593 C591 1.419 . S
C593 C594 1.362 . S
C594 H586 0.930 . S
C594 C593 1.362 . S
C594 C597 1.409 . S
C595 H587 0.930 . S
C595 C596 1.355 . S
C595 C597 1.415 . S
C596 C595 1.355 . S
C596 C598 1.419 . S
C597 C592 1.425 . S
C597 C594 1.409 . S
C597 C595 1.415 . S
C598 H588 0.930 . S
C598 C596 1.419 . S
C598 C599 1.362 . S
C599 H589 0.930 . S
C599 C592 1.409 . S
C599 C598 1.362 . S
H600 C606 0.930 . S
H601 C609 0.930 . S
H602 C610 0.930 . S
H603 C611 0.930 . S
H604 C614 0.930 . S
H605 C615 0.930 . S
C606 H600 0.930 . S
C606 C607 1.355 . S
C606 C608 1.415 . S
C607 C606 1.355 . S
C607 C609 1.419 . S
C608 C606 1.415 . S
C608 C613 1.425 . S
C608 C615 1.409 . S
C609 H601 0.930 . S
C609 C607 1.419 . S
C609 C610 1.362 . S
C610 H602 0.930 . S
C610 C609 1.362 . S
C610 C613 1.409 . S
C611 H603 0.930 . S
C611 C612 1.355 . S
C611 C613 1.415 . S
C612 C611 1.355 . S
C612 C614 1.419 . S
C613 C608 1.425 . S
C613 C610 1.409 . S
C613 C611 1.415 . S
C614 H604 0.930 . S
C614 C612 1.419 . S
C614 C615 1.362 . S
C615 H605 0.930 . S
C615 C608 1.409 . S
C615 C614 1.362 . S
H616 C622 0.930 . S
H617 C625 0.930 . S
H618 C626 0.930 . S
H619 C627 0.930 . S
H620 C630 0.930 . S
H621 C631 0.930 . S
C622 H616 0.930 . S
C622 C623 1.355 . S
C622 C624 1.415 . S
C623 C622 1.355 . S
C623 C625 1.419 . S
C624 C622 1.415 . S
C624 C629 1.425 . S
C624 C631 1.409 . S
C625 H617 0.930 . S
C625 C623 1.419 . S
C625 C626 1.362 . S
C626 H618 0.930 . S
C626 C625 1.362 . S
C626 C629 1.409 . S
C627 H619 0.930 . S
C627 C628 1.355 . S
C627 C629 1.415 . S
C628 C627 1.355 . S
C628 C630 1.419 . S
C629 C624 1.425 . S
C629 C626 1.409 . S
C629 C627 1.415 . S
C630 H620 0.930 . S
C630 C628 1.419 . S
C630 C631 1.362 . S
C631 H621 0.930 . S
C631 C624 1.409 . S
C631 C630 1.362 . S
C255 C4 1.305 . S
C260 C103 1.321 . S
C271 C16 1.238 . S
C276 C143 1.256 . S
C292 C177 2.034 . S
C287 C32 1.965 . S
C303 C43 2.550 . S
C308 C218 2.508 . S
C324 C138 1.888 . S
C319 C5 1.797 . S
C340 C98 1.762 . S
C335 C21 1.661 . S
C356 C226 1.573 . S
C351 C27 1.597 . S
C372 C187 1.737 . S
C367 C37 1.818 . S
C383 C10 1.320 . S
C388 C223 1.308 . S
C404 C146 2.198 1_556 S
C399 C26 2.279 . S
C415 C38 2.089 . S
C420 C106 2.018 . S
C431 C15 1.690 . S
C436 C174 1.763 . S
C452 C94 1.358 . S
C447 C48 1.336 . S
C463 C59 0.969 . S
C468 C134 1.012 . S
C479 C76 2.228 . S
C484 C186 2.176 . S
C495 C87 2.344 . S
C500 C227 2.268 . S
C511 C54 1.270 . S
C516 C147 1.287 1_556 S
C532 C107 2.340 . S
C527 C60 2.199 . S
C548 C217 1.671 . S
C543 C71 1.629 . S
C564 C178 1.716 . S
C559 C82 1.775 . S
C575 C49 1.777 . S
C580 C214 1.825 . S
C596 C137 1.722 . S
C591 C70 1.737 . S
C612 C97 2.450 . S
C607 C81 2.545 . S
C623 C65 1.460 . S
C628 C183 1.467 . S
