# Generated by pormake.
# Topology anh, (6,3)-cn, num edge types: 1
# Building blocks:
#     Node 0, Type 0, BuildingBlock: BETFAJ_clean_sbu_0, # of connection points: 6
#     Node 1, Type 0, BuildingBlock: BETFAJ_clean_sbu_0, # of connection points: 6
#     Node 2, Type 0, BuildingBlock: BETFAJ_clean_sbu_0, # of connection points: 6
#     Node 3, Type 1, BuildingBlock: BETDIP_clean_linker_0, # of connection points: 3
#     Node 4, Type 1, BuildingBlock: BETDIP_clean_linker_0, # of connection points: 3
#     Node 5, Type 1, BuildingBlock: BETDIP_clean_linker_0, # of connection points: 3
#     Node 6, Type 1, BuildingBlock: BETDIP_clean_linker_0, # of connection points: 3
#     Node 7, Type 1, BuildingBlock: BETDIP_clean_linker_0, # of connection points: 3
#     Node 8, Type 1, BuildingBlock: BETDIP_clean_linker_0, # of connection points: 3
#     Edge 9, Type (0, 1), BuildingBlock: UVAHIK_clean_linker_0, # of connection points: 2
#     Edge 10, Type (0, 1), BuildingBlock: UVAHIK_clean_linker_0, # of connection points: 2
#     Edge 11, Type (0, 1), BuildingBlock: UVAHIK_clean_linker_0, # of connection points: 2
#     Edge 12, Type (0, 1), BuildingBlock: UVAHIK_clean_linker_0, # of connection points: 2
#     Edge 13, Type (0, 1), BuildingBlock: UVAHIK_clean_linker_0, # of connection points: 2
#     Edge 14, Type (0, 1), BuildingBlock: UVAHIK_clean_linker_0, # of connection points: 2
#     Edge 15, Type (0, 1), BuildingBlock: UVAHIK_clean_linker_0, # of connection points: 2
#     Edge 16, Type (0, 1), BuildingBlock: UVAHIK_clean_linker_0, # of connection points: 2
#     Edge 17, Type (0, 1), BuildingBlock: UVAHIK_clean_linker_0, # of connection points: 2
#     Edge 18, Type (0, 1), BuildingBlock: UVAHIK_clean_linker_0, # of connection points: 2
#     Edge 19, Type (0, 1), BuildingBlock: UVAHIK_clean_linker_0, # of connection points: 2
#     Edge 20, Type (0, 1), BuildingBlock: UVAHIK_clean_linker_0, # of connection points: 2
#     Edge 21, Type (0, 1), BuildingBlock: UVAHIK_clean_linker_0, # of connection points: 2
#     Edge 22, Type (0, 1), BuildingBlock: UVAHIK_clean_linker_0, # of connection points: 2
#     Edge 23, Type (0, 1), BuildingBlock: UVAHIK_clean_linker_0, # of connection points: 2
#     Edge 24, Type (0, 1), BuildingBlock: UVAHIK_clean_linker_0, # of connection points: 2
#     Edge 25, Type (0, 1), BuildingBlock: UVAHIK_clean_linker_0, # of connection points: 2
#     Edge 26, Type (0, 1), BuildingBlock: UVAHIK_clean_linker_0, # of connection points: 2
# Relax obj value: 0.128
# Max RMSD: 0.170
# Mean RMSD: 0.122
data_MOF--net-anh--node1-BETFAJ_clean_sbu_0--node2-BETDIP_clean_linker_0--edge1-UVAHIK_clean_linker_0
_symmetry_space_group_name_H-M    P1
_symmetry_Int_Tables_number       1
_symmetry_cell_setting            triclinic
loop_
_symmetry_equiv_pos_as_xyz
'x, y, z'
_cell_length_a     41.17237
_cell_length_b     47.209363
_cell_length_c     64.178787
_cell_angle_alpha  95.415256
_cell_angle_beta   89.446785
_cell_angle_gamma 128.08142
loop_
_atom_site_label
_atom_site_type_symbol
_atom_site_fract_x
_atom_site_fract_y
_atom_site_fract_z
_atom_type_partial_charge
Sm0 Sm 0.10345 0.53946 0.1425 0.0
Sm1 Sm 0.06104 0.56945 0.1601 0.0
C2 C 0.15101 0.52804 0.12222 0.0
C3 C 0.19442 0.54495 0.12731 0.0
C4 C 0.21553 0.53604 0.11475 0.0
C5 C 0.25552 0.54951 0.12116 0.0
C6 C 0.27455 0.57176 0.14028 0.0
C7 C 0.25385 0.58184 0.15232 0.0
C8 C 0.21414 0.56864 0.14584 0.0
C9 C 0.10224 0.54378 0.18538 0.0
C10 C 0.15713 0.62927 0.15254 0.0
C11 C 1.01728 0.58356 0.18248 0.0
C12 C 0.9781 0.56192 0.19269 0.0
C13 C 0.97127 0.57773 0.20996 0.0
C14 C 0.93346 0.55754 0.21933 0.0
C15 C 0.90203 0.52118 0.21158 0.0
C16 C 0.90972 0.50514 0.19472 0.0
C17 C 0.94741 0.52536 0.18535 0.0
C18 C 0.06369 0.56513 0.11711 0.0
C19 C 1.00839 0.48077 0.15062 0.0
O20 O 0.14397 0.54971 0.11636 0.0
O21 O 0.12568 0.50731 0.13597 0.0
O22 O 0.10911 0.56751 0.17439 0.0
O23 O 0.09872 0.5178 0.17394 0.0
O24 O 0.15467 0.60186 0.14294 0.0
O25 O 0.12575 0.62387 0.16232 0.0
O26 O 0.04727 0.58502 0.19066 0.0
O27 O 1.01473 0.57909 0.16197 0.0
O28 O 0.05543 0.54112 0.12825 0.0
O29 O 0.06917 0.59223 0.12845 0.0
O30 O 1.01427 0.50777 0.16306 0.0
O31 O 1.03644 0.48706 0.13742 0.0
H32 H 0.20063 0.51776 0.10043 0.0
H33 H 0.27068 0.54102 0.11171 0.0
H34 H 0.26793 0.59904 0.16705 0.0
H35 H 0.19816 0.57583 0.15569 0.0
H36 H 0.99491 0.60585 0.21595 0.0
H37 H 0.92849 0.57054 0.23237 0.0
H38 H 0.88596 0.4774 0.18814 0.0
H39 H 0.95219 0.51271 0.17202 0.0
Sm40 Sm 0.59043 0.03144 0.48254 0.0
Sm41 Sm 0.53663 0.05149 0.47119 0.0
C42 C 0.62223 0.00383 0.49963 0.0
C43 C 0.61088 0.9678 0.50152 0.0
C44 C 0.6109 0.95802 0.52149 0.0
C45 C 0.60079 0.9243 0.52374 0.0
C46 C 0.59071 0.89971 0.50602 0.0
C47 C 0.59057 0.90948 0.48601 0.0
C48 C 0.60038 0.94314 0.48377 0.0
C49 C 0.58526 0.03572 0.44056 0.0
C50 C 0.48913 0.96679 0.47228 0.0
C51 C 0.50434 0.08036 0.45647 0.0
C52 C 0.51362 0.11591 0.4606 0.0
C53 C 0.49763 0.1265 0.44687 0.0
C54 C 0.50606 0.16018 0.45098 0.0
C55 C 0.53057 0.18381 0.46896 0.0
C56 C 0.54679 0.17301 0.48257 0.0
C57 C 0.53855 0.13949 0.47837 0.0
C58 C 0.54447 0.04859 0.5133 0.0
C59 C 0.63843 0.11621 0.47948 0.0
O60 O 0.60072 0.01174 0.50996 0.0
O61 O 0.63083 0.01523 0.48107 0.0
O62 O 0.55514 0.02154 0.45218 0.0
O63 O 0.61875 0.04616 0.45067 0.0
O64 O 0.52337 0.97722 0.48244 0.0
O65 O 0.48816 0.99014 0.46309 0.0
O66 O 0.53241 0.08005 0.447 0.0
O67 O 0.4897 0.06042 0.47201 0.0
O68 O 0.57332 0.06266 0.50103 0.0
O69 O 0.50992 0.03654 0.50371 0.0
O70 O 0.60306 0.1055 0.47065 0.0
O71 O 0.64095 0.09325 0.48813 0.0
H72 H 0.61897 0.97661 0.53539 0.0
H73 H 0.60163 0.91775 0.53935 0.0
H74 H 0.58251 0.89096 0.47209 0.0
H75 H 0.5998 0.94981 0.46816 0.0
H76 H 0.47858 0.10871 0.43299 0.0
H77 H 0.49358 0.16778 0.43999 0.0
H78 H 0.56523 0.19013 0.49672 0.0
H79 H 0.55131 0.13178 0.48912 0.0
Sm80 Sm 0.60327 0.55226 0.83776 0.0
Sm81 Sm 0.54619 0.47376 0.84245 0.0
C82 C 0.63945 0.6171 0.82537 0.0
C83 C 0.62966 0.64188 0.82232 0.0
C84 C 0.62801 0.64985 0.80201 0.0
C85 C 0.61936 0.67348 0.7987 0.0
C86 C 0.61244 0.68995 0.81567 0.0
C87 C 0.61428 0.68212 0.83603 0.0
C88 C 0.6227 0.65826 0.83933 0.0
C89 C 0.59617 0.53686 0.87835 0.0
C90 C 0.50065 0.51181 0.84205 0.0
C91 C 0.51092 0.40824 0.85341 0.0
C92 C 0.51962 0.38231 0.84978 0.0
C93 C 0.50377 0.35464 0.8627 0.0
C94 C 0.51179 0.3298 0.85916 0.0
C95 C 0.53576 0.33216 0.84258 0.0
C96 C 0.55184 0.36028 0.82979 0.0
C97 C 0.54401 0.38517 0.83342 0.0
C98 C 0.55346 0.48892 0.80174 0.0
C99 C 0.64944 0.51478 0.83945 0.0
O100 O 0.62027 0.58735 0.81239 0.0
O101 O 0.64342 0.61213 0.84461 0.0
O102 O 0.56652 0.52193 0.86479 0.0
O103 O 0.63116 0.56183 0.87097 0.0
O104 O 0.53727 0.53962 0.83602 0.0
O105 O 0.49692 0.4836 0.84784 0.0
O106 O 0.53811 0.43797 0.86566 0.0
O107 O 0.49858 0.41412 0.8368 0.0
O108 O 0.58309 0.50394 0.81532 0.0
O109 O 0.51865 0.46389 0.80915 0.0
O110 O 0.61195 0.48595 0.84385 0.0
O111 O 0.65407 0.54392 0.83475 0.0
H112 H 0.63362 0.63788 0.78865 0.0
H113 H 0.61875 0.67933 0.78286 0.0
H114 H 0.60874 0.69411 0.8494 0.0
H115 H 0.62375 0.65272 0.8552 0.0
H116 H 0.48517 0.35223 0.87552 0.0
H117 H 0.49945 0.30892 0.86954 0.0
H118 H 0.56988 0.36273 0.81669 0.0
H119 H 0.55673 0.40651 0.82333 0.0
H120 H 0.55314 0.02541 0.15539 0.0
H121 H 0.61633 0.08699 0.21496 0.0
H122 H 0.50704 0.97636 0.21267 0.0
H123 H 0.61665 0.12928 0.19571 0.0
C124 C 0.63282 0.12703 0.18297 0.0
C125 C 0.5559 0.02715 0.17231 0.0
C126 C 0.52631 0.99687 0.18276 0.0
C127 C 0.58789 0.06027 0.18394 0.0
C128 C 0.591 0.06211 0.20595 0.0
C129 C 0.56235 0.03186 0.21641 0.0
C130 C 0.52999 0.99958 0.20467 0.0
N131 N 0.61668 0.09167 0.17361 0.0
H132 H 0.5596 0.51733 0.52057 0.0
H133 H 0.55844 0.56439 0.58112 0.0
H134 H 0.58228 0.48754 0.5769 0.0
H135 H 0.50843 0.56207 0.56176 0.0
C136 C 0.52724 0.57519 0.54868 0.0
C137 C 0.56296 0.51993 0.53753 0.0
C138 C 0.57194 0.49981 0.54727 0.0
C139 C 0.55764 0.54302 0.54959 0.0
C140 C 0.56172 0.54618 0.5716 0.0
C141 C 0.571 0.5265 0.58152 0.0
C142 C 0.57644 0.50367 0.56926 0.0
N143 N 0.54914 0.56345 0.53936 0.0
H144 H 0.04138 0.50996 0.82958 0.0
H145 H 0.10077 0.52137 0.88852 0.0
H146 H 0.99816 0.5234 0.88851 0.0
H147 H 0.15941 0.55374 0.86954 0.0
C148 C 0.14898 0.53214 0.85703 0.0
C149 C 0.04398 0.51383 0.84654 0.0
C150 C 1.01459 0.51612 0.85777 0.0
C151 C 0.07696 0.51686 0.85762 0.0
C152 C 0.07826 0.52102 0.87967 0.0
C153 C 0.05014 0.52324 0.89074 0.0
C154 C 1.01919 0.52104 0.87974 0.0
N155 N 0.1076 0.51456 0.84737 0.0
H156 H 0.09091 0.57297 0.47083 0.0
H157 H 1.02531 0.50578 0.41286 0.0
H158 H 0.13444 0.61571 0.41173 0.0
H159 H 0.97078 0.49316 0.43633 0.0
C160 C 0.98085 0.48386 0.44765 0.0
C161 C 0.08794 0.56933 0.45385 0.0
C162 C 0.11643 0.59861 0.44245 0.0
C163 C 0.05421 0.53587 0.44323 0.0
C164 C 0.05068 0.53152 0.42114 0.0
C165 C 0.0794 0.56018 0.40966 0.0
C166 C 0.11189 0.59352 0.42048 0.0
N167 N 1.02356 0.50686 0.45464 0.0
H168 H 0.56727 0.03009 0.79455 0.0
H169 H 0.5627 0.98048 0.73357 0.0
H170 H 0.58233 0.08132 0.73925 0.0
H171 H 0.51867 0.92903 0.75081 0.0
C172 C 0.53867 0.93792 0.76484 0.0
C173 C 0.56885 0.03038 0.77769 0.0
C174 C 0.57554 0.05928 0.7684 0.0
C175 C 0.56392 1.00167 0.76528 0.0
C176 C 0.56569 0.00203 0.74337 0.0
C177 C 0.57271 0.03087 0.73397 0.0
C178 C 0.57797 0.05949 0.74658 0.0
N179 N 0.55869 0.97343 0.77515 0.0
H180 H 0.52885 0.46229 0.15448 0.0
H181 H 0.55344 0.43019 0.09546 0.0
H182 H 0.52298 0.50263 0.09856 0.0
H183 H 0.5101 0.40857 0.16296 0.0
C184 C 0.5336 0.40815 0.15549 0.0
C185 C 0.53035 0.46271 0.13768 0.0
C186 C 0.52512 0.48531 0.1281 0.0
C187 C 0.53893 0.4417 0.12573 0.0
C188 C 0.54464 0.44498 0.10429 0.0
C189 C 0.54017 0.46783 0.09444 0.0
C190 C 0.52904 0.48683 0.10637 0.0
N191 N 0.54503 0.41909 0.13507 0.0
C192 C 0.31593 0.57316 0.16903 0.0
C193 C 0.31355 0.58077 0.1487 0.0
C194 C 0.34926 0.57483 0.17574 0.0
C195 C 0.45235 0.60265 0.16439 0.0
H196 H 0.40395 0.50298 0.1703 0.0
C197 C 0.5282 0.5403 0.13454 0.0
C198 C 0.51465 0.50678 0.14043 0.0
C199 C 0.51281 0.55754 0.14361 0.0
C200 C 0.41872 0.5313 0.16945 0.0
H201 H 0.34561 0.59925 0.12018 0.0
H202 H 0.40425 0.60246 0.13199 0.0
H203 H 0.36093 0.52155 0.17207 0.0
H204 H 0.47789 0.46746 0.16245 0.0
H205 H 0.45387 0.49897 0.1794 0.0
H206 H 0.51019 0.61247 0.16157 0.0
C207 C 0.38033 0.59519 0.1427 0.0
C208 C 0.39373 0.54187 0.17037 0.0
C209 C 0.34667 0.593 0.13586 0.0
C210 C 0.48885 0.49302 0.15728 0.0
C211 C 0.47446 0.51091 0.16682 0.0
C212 C 0.47774 0.59233 0.16402 0.0
C213 C 0.38098 0.58464 0.16234 0.0
C214 C 0.40989 0.5771 0.16684 0.0
C215 C 0.48437 0.54233 0.15932 0.0
C216 C 0.46076 0.55596 0.16536 0.0
H217 H 0.29067 0.56345 0.17921 0.0
H218 H 0.34911 0.56644 0.19091 0.0
H219 H 0.46548 0.6301 0.16181 0.0
H220 H 0.54944 0.55262 0.12224 0.0
H221 H 0.52143 0.5816 0.13724 0.0
C222 C 0.67235 0.17951 0.47102 0.0
C223 C 0.67568 0.15485 0.47941 0.0
C224 C 0.70711 0.2156 0.47026 0.0
C225 C 0.82201 0.27621 0.47128 0.0
H226 H 0.80942 0.35131 0.4796 0.0
C227 C 0.95877 0.43001 0.46661 0.0
C228 C 0.94892 0.44784 0.45494 0.0
C229 C 0.92736 0.39495 0.47194 0.0
C230 C 0.81352 0.3307 0.47713 0.0
H231 H 0.71873 0.14933 0.49372 0.0
H232 H 0.77948 0.21252 0.49256 0.0
H233 H 0.7514 0.28923 0.48456 0.0
H234 H 0.89869 0.44308 0.43988 0.0
H235 H 0.84441 0.38273 0.44922 0.0
H236 H 0.88426 0.318 0.46368 0.0
C237 C 0.74985 0.20372 0.48636 0.0
C238 C 0.7801 0.29496 0.47992 0.0
C239 C 0.71491 0.16748 0.48715 0.0
C240 C 0.90725 0.43017 0.44901 0.0
C241 C 0.87604 0.39555 0.45446 0.0
C242 C 0.8556 0.31213 0.46854 0.0
C243 C 0.74645 0.22834 0.47788 0.0
C244 C 0.78349 0.26698 0.47662 0.0
C245 C 0.88552 0.37728 0.46593 0.0
C246 C 0.85152 0.33974 0.471 0.0
H247 H 0.6428 0.17095 0.46484 0.0
H248 H 0.70316 0.23338 0.46328 0.0
H249 H 0.82584 0.25548 0.46845 0.0
H250 H 0.99064 0.44283 0.4713 0.0
H251 H 0.93578 0.38175 0.48085 0.0
C252 C 0.62257 0.74805 0.8251 0.0
C253 C 0.60361 0.71534 0.81203 0.0
C254 C 0.61545 0.77251 0.82107 0.0
C255 C 0.58023 0.79669 0.77811 0.0
H256 H 0.56749 0.84966 0.82295 0.0
C257 C 0.52487 0.87844 0.76105 0.0
C258 C 0.54516 0.91285 0.7722 0.0
C259 C 0.53196 0.8548 0.76683 0.0
C260 C 0.57141 0.83535 0.81027 0.0
H261 H 0.56105 0.68209 0.78499 0.0
H262 H 0.54834 0.72444 0.77808 0.0
H263 H 0.57966 0.80734 0.83136 0.0
H264 H 0.58835 0.94942 0.79845 0.0
H265 H 0.60095 0.90806 0.80855 0.0
H266 H 0.57188 0.82447 0.75702 0.0
C267 C 0.56951 0.73168 0.79115 0.0
C268 C 0.5784 0.81109 0.81508 0.0
C269 C 0.57674 0.70734 0.79512 0.0
C270 C 0.57218 0.923 0.78957 0.0
C271 C 0.57927 0.89926 0.7954 0.0
C272 C 0.57317 0.8208 0.77331 0.0
C273 C 0.58911 0.76477 0.80392 0.0
C274 C 0.58256 0.79124 0.79903 0.0
C275 C 0.5596 0.86503 0.78392 0.0
C276 C 0.56833 0.84022 0.7893 0.0
H277 H 0.64377 0.75518 0.83813 0.0
H278 H 0.6314 0.79789 0.8311 0.0
H279 H 0.58424 0.78254 0.76536 0.0
H280 H 0.50377 0.8699 0.74765 0.0
H281 H 0.51572 0.82843 0.75787 0.0
C282 C 0.83579 0.46401 0.22126 0.0
C283 C 0.85982 0.50119 0.21919 0.0
C284 C 0.79342 0.44371 0.22395 0.0
C285 C 0.70809 0.45118 0.23003 0.0
H286 H 0.6523 0.37051 0.18614 0.0
C287 C 0.55538 0.40176 0.18973 0.0
C288 C 0.55824 0.40198 0.16792 0.0
C289 C 0.58321 0.40167 0.202 0.0
C290 C 0.66721 0.39268 0.19864 0.0
H291 H 0.85898 0.54675 0.22002 0.0
H292 H 0.78562 0.51166 0.22435 0.0
H293 H 0.72141 0.39631 0.19942 0.0
H294 H 0.59005 0.39933 0.1416 0.0
H295 H 0.63862 0.39962 0.16281 0.0
H296 H 0.65542 0.44982 0.22765 0.0
C297 C 0.79917 0.49797 0.22429 0.0
C298 C 0.70675 0.40726 0.20648 0.0
C299 C 0.84144 0.51823 0.22171 0.0
C300 C 0.58734 0.39951 0.15841 0.0
C301 C 0.61493 0.39925 0.1706 0.0
C302 C 0.66867 0.43681 0.22202 0.0
C303 C 0.77429 0.46019 0.22447 0.0
C304 C 0.72864 0.4381 0.22136 0.0
C305 C 0.61408 0.40148 0.1926 0.0
C306 C 0.64893 0.40884 0.20534 0.0
H307 H 0.84936 0.4503 0.21977 0.0
H308 H 0.77529 0.41479 0.22445 0.0
H309 H 0.72371 0.47435 0.24189 0.0
H310 H 0.53298 0.40347 0.19737 0.0
H311 H 0.58158 0.40311 0.21888 0.0
C312 C 0.41349 0.91743 0.46225 0.0
C313 C 0.45102 0.92835 0.47146 0.0
C314 C 0.37728 0.88166 0.46205 0.0
C315 C 0.3388 0.78781 0.46654 0.0
H316 H 0.23493 0.77054 0.47552 0.0
C317 C 0.18361 0.64171 0.46443 0.0
C318 C 0.15073 0.63541 0.45266 0.0
C319 C 0.21983 0.67729 0.47005 0.0
C320 C 0.26358 0.77477 0.47285 0.0
H321 H 0.47961 0.90967 0.48756 0.0
H322 H 0.41648 0.8473 0.48716 0.0
H323 H 0.299 0.83244 0.47798 0.0
H324 H 0.12914 0.66124 0.43836 0.0
H325 H 0.19152 0.7228 0.44819 0.0
H326 H 0.30319 0.73009 0.46101 0.0
C327 C 0.41512 0.86644 0.47999 0.0
C328 C 0.30043 0.81039 0.47423 0.0
C329 C 0.45136 0.90233 0.48029 0.0
C330 C 0.15389 0.66532 0.4476 0.0
C331 C 0.18974 0.70068 0.45329 0.0
C332 C 0.30186 0.75212 0.46511 0.0
C333 C 0.37747 0.85564 0.47098 0.0
C334 C 0.33853 0.81748 0.47076 0.0
C335 C 0.22373 0.70727 0.46413 0.0
C336 C 0.26359 0.74508 0.46791 0.0
H337 H 0.4119 0.93659 0.45527 0.0
H338 H 0.34913 0.87432 0.45465 0.0
H339 H 0.36742 0.79213 0.46361 0.0
H340 H 0.18219 0.61914 0.46831 0.0
H341 H 0.24513 0.68128 0.47862 0.0
C342 C 0.5123 0.26836 0.84066 0.0
C343 C 0.54343 0.30517 0.83832 0.0
C344 C 0.51889 0.24282 0.83569 0.0
C345 C 0.57993 0.22705 0.80223 0.0
H346 H 0.54595 0.15119 0.83702 0.0
C347 C 0.60962 0.12493 0.77837 0.0
C348 C 0.57781 0.08853 0.78099 0.0
C349 C 0.60874 0.15234 0.78781 0.0
C350 C 0.55526 0.17196 0.82701 0.0
H351 H 0.60662 0.34395 0.8297 0.0
H352 H 0.61763 0.29926 0.82059 0.0
H353 H 0.5373 0.19688 0.84866 0.0
H354 H 0.52084 0.05226 0.79606 0.0
H355 H 0.51854 0.09993 0.81216 0.0
H356 H 0.59656 0.20182 0.78021 0.0
C357 C 0.588 0.29021 0.82612 0.0
C358 C 0.55038 0.19819 0.83373 0.0
C359 C 0.58158 0.31579 0.83126 0.0
C360 C 0.54596 0.08017 0.79396 0.0
C361 C 0.54474 0.10757 0.8032 0.0
C362 C 0.58441 0.2007 0.79541 0.0
C363 C 0.55661 0.2534 0.82808 0.0
C364 C 0.56264 0.22599 0.82138 0.0
C365 C 0.57563 0.14397 0.79983 0.0
C366 C 0.57213 0.17274 0.80768 0.0
H367 H 0.48233 0.25903 0.84575 0.0
H368 H 0.49395 0.21458 0.83715 0.0
H369 H 0.58903 0.24777 0.7922 0.0
H370 H 0.63475 0.1321 0.76859 0.0
H371 H 0.63368 0.18007 0.78531 0.0
C372 C 0.55539 0.84356 0.52419 0.0
C373 C 0.58097 0.86426 0.5085 0.0
C374 C 0.5477 0.81102 0.5272 0.0
C375 C 0.55383 0.74029 0.50214 0.0
H376 H 0.55312 0.72093 0.55959 0.0
C377 C 0.556 0.62534 0.52567 0.0
C378 C 0.53079 0.60601 0.54183 0.0
C379 C 0.56067 0.65579 0.52045 0.0
C380 C 0.55275 0.72569 0.54345 0.0
H381 H 0.61824 0.86684 0.48352 0.0
H382 H 0.60526 0.81021 0.48893 0.0
H383 H 0.5638 0.77579 0.55265 0.0
H384 H 0.48997 0.6026 0.56479 0.0
H385 H 0.49783 0.65545 0.55565 0.0
H386 H 0.54327 0.69017 0.49305 0.0
C387 C 0.59056 0.81882 0.4987 0.0
C388 C 0.55881 0.75716 0.53945 0.0
C389 C 0.59807 0.85131 0.49561 0.0
C390 C 0.50971 0.61714 0.55233 0.0
C391 C 0.51443 0.64752 0.54718 0.0
C392 C 0.54791 0.70878 0.50616 0.0
C393 C 0.56563 0.79846 0.51469 0.0
C394 C 0.55922 0.76482 0.51875 0.0
C395 C 0.54037 0.66751 0.53137 0.0
C396 C 0.54709 0.70105 0.52687 0.0
H397 H 0.54119 0.8525 0.53413 0.0
H398 H 0.52762 0.79568 0.53936 0.0
H399 H 0.55353 0.74512 0.48601 0.0
H400 H 0.57268 0.6174 0.51731 0.0
H401 H 0.58108 0.67075 0.5083 0.0
C402 C 0.72762 0.54506 0.83657 0.0
C403 C 0.68688 0.5143 0.83983 0.0
C404 C 0.76217 0.54478 0.83714 0.0
C405 C 0.79626 0.48819 0.8522 0.0
H406 H 0.89504 0.5579 0.82457 0.0
C407 C 0.93666 0.48178 0.84981 0.0
C408 C 0.97792 0.51334 0.84857 0.0
C409 C 0.90189 0.48142 0.84754 0.0
C410 C 0.86817 0.5382 0.83267 0.0
H411 H 0.65261 0.45859 0.84618 0.0
H412 H 0.71135 0.45776 0.84684 0.0
H413 H 0.83616 0.55818 0.82324 0.0
H414 H 1.01297 0.57008 0.8447 0.0
H415 H 0.95352 0.56958 0.84028 0.0
H416 H 0.82827 0.46822 0.86162 0.0
C417 C 0.71736 0.48283 0.84416 0.0
C418 C 0.83355 0.53838 0.83192 0.0
C419 C 0.68284 0.48317 0.84364 0.0
C420 C 0.98223 0.54459 0.84479 0.0
C421 C 0.94744 0.54429 0.84248 0.0
C422 C 0.83082 0.48796 0.85291 0.0
C423 C 0.75836 0.51367 0.84097 0.0
C424 C 0.79629 0.5134 0.84168 0.0
C425 C 0.90603 0.51284 0.84421 0.0
C426 C 0.86806 0.51295 0.84318 0.0
H427 H 0.73311 0.56987 0.83366 0.0
H428 H 0.79224 0.56965 0.83485 0.0
H429 H 0.76957 0.46859 0.86042 0.0
H430 H 0.93122 0.45732 0.85355 0.0
H431 H 0.87152 0.45616 0.84879 0.0
C432 C 0.19783 0.69668 0.16056 0.0
C433 C 0.1961 0.66701 0.15241 0.0
C434 C 0.23417 0.73223 0.16038 0.0
C435 C 0.34764 0.78682 0.15762 0.0
H436 H 0.34006 0.86167 0.14578 0.0
C437 C 0.49381 0.9374 0.16077 0.0
C438 C 0.48987 0.96226 0.17166 0.0
C439 C 0.45862 0.90153 0.15472 0.0
C440 C 0.34282 0.84119 0.14923 0.0
H441 H 0.2318 0.6518 0.13777 0.0
H442 H 0.29528 0.71391 0.13749 0.0
H443 H 0.27783 0.79877 0.14305 0.0
H444 H 0.44637 0.96966 0.18426 0.0
H445 H 0.38522 0.9077 0.17363 0.0
H446 H 0.41254 0.82939 0.16428 0.0
C447 C 0.26842 0.70958 0.14409 0.0
C448 C 0.30703 0.80504 0.1477 0.0
C449 C 0.2319 0.67393 0.14416 0.0
C450 C 0.45014 0.95116 0.17552 0.0
C451 C 0.41509 0.91555 0.16943 0.0
C452 C 0.3835 0.82306 0.15922 0.0
C453 C 0.27 0.73925 0.15213 0.0
C454 C 0.30877 0.77739 0.15223 0.0
C455 C 0.4188 0.88989 0.15943 0.0
C456 C 0.3815 0.85087 0.15541 0.0
H457 H 0.17102 0.69253 0.16709 0.0
H458 H 0.23433 0.75427 0.16703 0.0
H459 H 0.3502 0.76636 0.16139 0.0
H460 H 0.52417 0.94514 0.15795 0.0
H461 H 0.46269 0.88268 0.14686 0.0
C462 C 0.50743 0.22242 0.46996 0.0
C463 C 0.53859 0.21922 0.47382 0.0
C464 C 0.51434 0.25521 0.47551 0.0
C465 C 0.57678 0.3372 0.51263 0.0
H466 H 0.5413 0.37604 0.47652 0.0
C467 C 0.60616 0.47127 0.53905 0.0
C468 C 0.57391 0.47282 0.53486 0.0
C469 C 0.60528 0.44299 0.5294 0.0
C470 C 0.55105 0.36541 0.48689 0.0
H471 H 0.60212 0.24872 0.48578 0.0
H472 H 0.61373 0.30556 0.49586 0.0
H473 H 0.53249 0.32105 0.46395 0.0
H474 H 0.51606 0.44666 0.51687 0.0
H475 H 0.51386 0.39674 0.50035 0.0
H476 H 0.59401 0.38047 0.53585 0.0
C477 C 0.58384 0.28253 0.48869 0.0
C478 C 0.54608 0.33395 0.47964 0.0
C479 C 0.57709 0.24989 0.48298 0.0
C480 C 0.54155 0.44631 0.52021 0.0
C481 C 0.54037 0.41772 0.51073 0.0
C482 C 0.58136 0.36838 0.51995 0.0
C483 C 0.55243 0.28546 0.4852 0.0
C484 C 0.55881 0.31948 0.49247 0.0
C485 C 0.5718 0.41525 0.51555 0.0
C486 C 0.56848 0.38291 0.50722 0.0
H487 H 0.47722 0.19931 0.46322 0.0
H488 H 0.48939 0.25653 0.47284 0.0
H489 H 0.58627 0.32638 0.523 0.0
H490 H 0.6317 0.49161 0.55014 0.0
H491 H 0.63057 0.44257 0.53311 0.0
C492 C 0.4666 0.54258 0.83696 0.0
C493 C 0.46337 0.51255 0.84242 0.0
C494 C 0.43241 0.54336 0.83729 0.0
C495 C 0.31318 0.48365 0.84134 0.0
H496 H 0.33504 0.5763 0.84959 0.0
C497 C 0.17593 0.49719 0.83948 0.0
C498 C 0.18208 0.52685 0.85185 0.0
C499 C 0.20856 0.49407 0.83728 0.0
C500 C 0.32752 0.54981 0.84742 0.0
H501 H 0.41889 0.45938 0.85253 0.0
H502 H 0.36033 0.46069 0.85324 0.0
H503 H 0.39212 0.5738 0.84874 0.0
H504 H 0.22918 0.57607 0.87153 0.0
H505 H 0.28387 0.5709 0.86783 0.0
H506 H 0.24824 0.45981 0.84038 0.0
C507 C 0.3894 0.48395 0.84842 0.0
C508 C 0.36115 0.54838 0.84663 0.0
C509 C 0.42368 0.48325 0.84815 0.0
C510 C 0.22233 0.55289 0.86162 0.0
C511 C 0.25453 0.54997 0.85936 0.0
C512 C 0.27938 0.4851 0.84205 0.0
C513 C 0.39256 0.5141 0.84306 0.0
C514 C 0.35531 0.51529 0.84366 0.0
C515 C 0.24906 0.52056 0.84718 0.0
C516 C 0.28541 0.51829 0.84531 0.0
H517 H 0.49591 0.56589 0.83233 0.0
H518 H 0.43749 0.56718 0.83264 0.0
H519 H 0.3059 0.45727 0.83875 0.0
H520 H 0.14581 0.47603 0.83176 0.0
H521 H 0.20191 0.47079 0.82763 0.0
C522 C 0.94168 0.43636 0.1671 0.0
C523 C 0.97017 0.44305 0.15212 0.0
C524 C 0.9063 0.40109 0.16916 0.0
C525 C 0.83723 0.30712 0.14207 0.0
H526 H 0.80287 0.28337 0.19837 0.0
C527 C 0.6966 0.1619 0.16172 0.0
C528 C 0.67149 0.16119 0.17703 0.0
C529 C 0.73392 0.19506 0.15755 0.0
C530 C 0.81174 0.28953 0.1825 0.0
H531 H 0.98323 0.41736 0.1274 0.0
H532 H 0.92154 0.35559 0.13115 0.0
H533 H 0.86578 0.34299 0.19326 0.0
H534 H 0.66533 0.19451 0.19957 0.0
H535 H 0.7295 0.25172 0.19229 0.0
H536 H 0.78273 0.25332 0.13141 0.0
C537 C 0.92646 0.37785 0.14117 0.0
C538 C 0.84792 0.32389 0.17956 0.0
C539 C 0.962 0.41332 0.13909 0.0
C540 C 0.68408 0.19413 0.18776 0.0
C541 C 0.72112 0.22698 0.18368 0.0
C542 C 0.80087 0.27255 0.14503 0.0
C543 C 0.89827 0.37121 0.15639 0.0
C544 C 0.86088 0.33351 0.1593 0.0
C545 C 0.74692 0.22802 0.16872 0.0
C546 C 0.78724 0.26354 0.1653 0.0
H547 H 0.94676 0.45839 0.17747 0.0
H548 H 0.88507 0.3973 0.18079 0.0
H549 H 0.84605 0.31352 0.12623 0.0
H550 H 0.68776 0.13695 0.1532 0.0
H551 H 0.75305 0.19481 0.14596 0.0
C552 C 0.07003 0.588 0.08247 0.0
C553 C 0.06442 0.56162 0.09402 0.0
C554 C 0.06995 0.58421 0.06057 0.0
C555 C 1.03507 0.51505 0.01507 0.0
H556 H 0.10885 0.59874 0.98519 0.0
C557 C 1.01676 0.50796 0.92525 0.0
C558 C 0.05279 0.52754 0.91412 0.0
C559 C 1.01911 0.51222 0.94717 0.0
C560 C 0.08829 0.57501 0.99328 0.0
H561 H 0.05526 0.51101 0.09184 0.0
H562 H 0.05574 0.50461 0.0537 0.0
H563 H 0.11234 0.60614 0.0234 0.0
H564 H 0.11964 0.56709 0.91745 0.0
H565 H 0.12384 0.57384 0.9557 0.0
H566 H 1.01162 0.48378 0.98501 0.0
C567 C 0.05937 0.52789 0.06144 0.0
C568 C 0.08993 0.57933 0.01521 0.0
C569 C 0.05931 0.53164 0.08331 0.0
C570 C 0.09129 0.55134 0.92551 0.0
C571 C 0.09366 0.55554 0.94745 0.0
C572 C 1.03349 0.51071 0.99316 0.0
C573 C 0.06441 0.554 0.04976 0.0
C574 C 0.06324 0.54942 0.0264 0.0
C575 C 0.05758 0.53607 0.95858 0.0
C576 C 0.05994 0.54065 0.98196 0.0
H577 H 0.07405 0.6114 0.09034 0.0
H578 H 0.07342 0.60463 0.0521 0.0
H579 H 1.0137 0.49145 0.02312 0.0
H580 H 0.98662 0.48907 0.91701 0.0
H581 H 0.99065 0.49709 0.95518 0.0
C582 C 0.54495 0.02404 0.40744 0.0
C583 C 0.58231 0.03681 0.4178 0.0
C584 C 0.54259 0.0246 0.38574 0.0
C585 C 0.59416 0.02607 0.33816 0.0
H586 H 0.53594 0.05577 0.3127 0.0
C587 C 0.57394 0.0634 0.25258 0.0
C588 C 0.56575 0.0337 0.2396 0.0
C589 C 0.57569 0.06431 0.27443 0.0
C590 C 0.55253 0.04763 0.31961 0.0
H591 H 0.64664 0.06093 0.41381 0.0
H592 H 0.64258 0.06196 0.3761 0.0
H593 H 0.5393 0.05671 0.35083 0.0
H594 H 0.55377 0.98203 0.23933 0.0
H595 H 0.55654 0.98349 0.27735 0.0
H596 H 0.60779 0.01731 0.30708 0.0
C597 C 0.61497 0.05107 0.38458 0.0
C598 C 0.55407 0.0478 0.3414 0.0
C599 C 0.61733 0.05063 0.4062 0.0
C600 C 0.55979 0.00515 0.24891 0.0
C601 C 0.56173 0.00614 0.27069 0.0
C602 C 0.59245 0.02572 0.31642 0.0
C603 C 0.57753 0.03779 0.37405 0.0
C604 C 0.57505 0.03714 0.35092 0.0
C605 C 0.5696 0.03567 0.28371 0.0
C606 C 0.57165 0.0365 0.30688 0.0
H607 H 0.51752 0.01337 0.41605 0.0
H608 H 0.51325 0.014 0.37804 0.0
H609 H 0.61019 0.01732 0.34498 0.0
H610 H 0.57833 0.08566 0.24586 0.0
H611 H 0.58218 0.08759 0.28405 0.0
C612 C 0.59627 0.51577 0.77092 0.0
C613 C 0.55771 0.49681 0.77977 0.0
C614 C 0.59942 0.52156 0.74975 0.0
C615 C 0.5339 0.48692 0.69991 0.0
H616 H 0.63158 0.57282 0.67987 0.0
C617 C 0.54006 0.52253 0.61588 0.0
C618 C 0.57271 0.52813 0.60468 0.0
C619 C 0.53988 0.52118 0.63752 0.0
C620 C 0.60421 0.54869 0.68531 0.0
H621 H 0.49264 0.47056 0.77392 0.0
H622 H 0.49827 0.48202 0.73743 0.0
H623 H 0.6278 0.56619 0.71734 0.0
H624 H 0.63143 0.53801 0.60732 0.0
H625 H 0.63152 0.53642 0.64542 0.0
H626 H 0.50999 0.47005 0.66791 0.0
C627 C 0.5259 0.49116 0.74637 0.0
C628 C 0.60205 0.54472 0.70674 0.0
C629 C 0.52269 0.48481 0.76736 0.0
C630 C 0.60584 0.53352 0.61562 0.0
C631 C 0.606 0.53281 0.63736 0.0
C632 C 0.5358 0.49123 0.67861 0.0
C633 C 0.56418 0.50905 0.73713 0.0
C634 C 0.56682 0.51373 0.71434 0.0
C635 C 0.57266 0.526 0.64843 0.0
C636 C 0.57093 0.52209 0.67111 0.0
H637 H 0.62373 0.5253 0.7802 0.0
H638 H 0.62935 0.53508 0.74321 0.0
H639 H 0.50673 0.46224 0.70496 0.0
H640 H 0.51403 0.51805 0.60778 0.0
H641 H 0.51392 0.51606 0.64575 0.0
C642 C 0.51447 0.02182 0.54661 0.0
C643 C 0.5493 0.04583 0.53557 0.0
C644 C 0.51899 0.01896 0.5677 0.0
C645 C 0.58424 0.07016 0.61496 0.0
H646 H 0.53534 0.97722 0.63479 0.0
C647 C 0.60645 0.06067 0.70179 0.0
C648 C 0.5732 0.03075 0.71091 0.0
C649 C 0.60578 0.06153 0.6801 0.0
C650 C 0.5487 0.00337 0.62963 0.0
H651 H 0.61609 0.08564 0.53773 0.0
H652 H 0.62387 0.08151 0.5749 0.0
H653 H 0.52888 0.98057 0.5975 0.0
H654 H 0.51327 0.97824 0.7047 0.0
H655 H 0.51099 0.98019 0.66696 0.0
H656 H 0.60241 0.09303 0.64693 0.0
C657 C 0.5932 0.06468 0.56715 0.0
C658 C 0.54518 0.00522 0.60824 0.0
C659 C 0.58874 0.06699 0.54594 0.0
C660 C 0.53946 1.00147 0.69797 0.0
C661 C 0.53836 0.00259 0.67631 0.0
C662 C 0.58708 0.06827 0.63639 0.0
C663 C 0.55836 0.0406 0.57819 0.0
C664 C 0.5629 0.03863 0.60074 0.0
C665 C 0.57138 0.03279 0.66706 0.0
C666 C 0.56932 0.03483 0.64407 0.0
H667 H 0.48374 0.00506 0.53892 0.0
H668 H 0.49167 1.00035 0.57594 0.0
H669 H 0.59778 0.09621 0.60955 0.0
H670 H 0.63297 0.08345 0.71149 0.0
H671 H 0.63227 0.08485 0.67361 0.0
C672 C 0.55223 0.5055 0.90792 0.0
C673 C 0.59152 0.52735 0.89995 0.0
C674 C 0.54793 0.49705 0.92855 0.0
C675 C 0.54377 0.4688 0.96969 0.0
H676 H 0.62763 0.54265 0.01206 0.0
C677 C 0.53607 0.44386 0.05689 0.0
C678 C 0.54809 0.47293 0.0719 0.0
C679 C 0.54304 0.44904 0.0357 0.0
C680 C 0.60368 0.52178 0.00049 0.0
H681 H 0.65699 0.55647 0.90687 0.0
H682 H 0.64955 0.54075 0.94262 0.0
H683 H 0.63535 0.55442 0.9757 0.0
H684 H 0.57807 0.53052 0.07634 0.0
H685 H 0.58817 0.53905 0.03959 0.0
H686 H 0.51095 0.43701 -0.00527 0.0
C687 C 0.62206 0.53105 0.93328 0.0
C688 C 0.60846 0.52832 0.9795 0.0
C689 C 0.62637 0.53994 0.91276 0.0
C690 C 0.56764 0.5073 0.06522 0.0
C691 C 0.57413 0.51236 0.0441 0.0
C692 C 0.5387 0.46244 0.99075 0.0
C693 C 0.58282 0.50983 0.94156 0.0
C694 C 0.57844 0.50205 0.96381 0.0
C695 C 0.56195 0.48335 0.02902 0.0
C696 C 0.5684 0.48902 0.00646 0.0
H697 H 0.52485 0.49546 0.89833 0.0
H698 H 0.51729 0.48117 0.93441 0.0
H699 H 0.52032 0.44765 0.95803 0.0
H700 H 0.52071 0.41698 0.06144 0.0
H701 H 0.53369 0.42614 0.02458 0.0
C702 C 0.10548 0.57517 0.21995 0.0
C703 C 0.09874 0.5451 0.20828 0.0
C704 C 0.10118 0.57569 0.24161 0.0
C705 C 0.10147 0.53395 0.28739 0.0
H706 H 0.0467 0.57039 0.31356 0.0
C707 C 0.06731 0.52455 0.37494 0.0
C708 C 0.07597 0.55565 0.38635 0.0
C709 C 0.06721 0.52166 0.35304 0.0
C710 C 0.06237 0.5604 0.30651 0.0
H711 H 0.08226 0.49205 0.21 0.0
H712 H 0.0747 0.49291 0.24772 0.0
H713 H 0.05338 0.56937 0.27572 0.0
H714 H 0.08945 0.60736 0.38364 0.0
H715 H 0.09005 0.60265 0.34556 0.0
H716 H 0.11086 0.52529 0.31815 0.0
C717 C 0.08367 0.51623 0.24025 0.0
C718 C 0.06625 0.55987 0.28484 0.0
C719 C 0.08786 0.51569 0.21863 0.0
C720 C 0.08323 0.58326 0.37533 0.0
C721 C 0.08311 0.58038 0.35347 0.0
C722 C 0.09766 0.53453 0.30905 0.0
C723 C 0.09025 0.54622 0.25201 0.0
C724 C 0.08594 0.54672 0.27503 0.0
C725 C 0.07565 0.54977 0.34206 0.0
C726 C 0.07818 0.54786 0.3189 0.0
H727 H 0.11421 0.59831 0.21237 0.0
H728 H 0.10697 0.59939 0.25026 0.0
H729 H 0.11734 0.52414 0.28037 0.0
H730 H 0.0618 0.50289 0.38296 0.0
H731 H 0.06078 0.49749 0.34471 0.0
loop_
_geom_bond_atom_site_label_1
_geom_bond_atom_site_label_2
_geom_bond_distance
_geom_bond_site_symmetry_2
_ccdc_geom_bond_type
Sm0 C2 2.846 . S
Sm0 O20 2.543 . S
Sm0 O21 2.450 . S
Sm0 O22 2.681 . S
Sm0 O23 2.464 . S
Sm0 O24 2.396 . S
Sm0 O28 2.386 . S
Sm0 O31 2.408 . S
Sm1 C11 2.846 1_455 S
Sm1 O22 2.386 . S
Sm1 O25 2.408 . S
Sm1 O26 2.543 1_455 S
Sm1 O27 2.450 1_455 S
Sm1 O28 2.681 . S
Sm1 O29 2.464 . S
Sm1 O30 2.396 1_455 S
C2 Sm0 2.846 . S
C2 C3 1.506 . S
C2 O20 1.261 . S
C2 O21 1.242 . S
C3 C2 1.506 . S
C3 C4 1.358 . S
C3 C8 1.382 . S
C4 C3 1.358 . S
C4 C5 1.385 . S
C4 H32 0.930 . S
C5 C4 1.385 . S
C5 C6 1.395 . S
C5 H33 0.929 . S
C6 C5 1.395 . S
C6 C7 1.335 . S
C7 C6 1.335 . S
C7 C8 1.398 . S
C7 H34 0.930 . S
C8 C3 1.382 . S
C8 C7 1.398 . S
C8 H35 0.929 . S
C9 O22 1.271 . S
C9 O23 1.251 . S
C10 O24 1.252 . S
C10 O25 1.272 . S
C11 Sm1 2.846 1_655 S
C11 C12 1.506 . S
C11 O26 1.261 . S
C11 O27 1.242 . S
C12 C11 1.506 . S
C12 C13 1.358 . S
C12 C17 1.382 . S
C13 C12 1.358 . S
C13 C14 1.385 . S
C13 H36 0.930 . S
C14 C13 1.385 . S
C14 C15 1.395 . S
C14 H37 0.929 . S
C15 C14 1.395 . S
C15 C16 1.335 . S
C16 C15 1.335 . S
C16 C17 1.398 . S
C16 H38 0.930 . S
C17 C12 1.382 . S
C17 C16 1.398 . S
C17 H39 0.929 . S
C18 O28 1.271 . S
C18 O29 1.251 . S
C19 O30 1.252 . S
C19 O31 1.272 1_655 S
O20 Sm0 2.543 . S
O20 C2 1.261 . S
O21 Sm0 2.450 . S
O21 C2 1.242 . S
O22 Sm0 2.681 . S
O22 Sm1 2.386 . S
O22 C9 1.271 . S
O23 Sm0 2.464 . S
O23 C9 1.251 . S
O24 Sm0 2.396 . S
O24 C10 1.252 . S
O25 Sm1 2.408 . S
O25 C10 1.272 . S
O26 Sm1 2.543 1_655 S
O26 C11 1.261 . S
O27 Sm1 2.450 1_655 S
O27 C11 1.242 . S
O28 Sm0 2.386 . S
O28 Sm1 2.681 . S
O28 C18 1.271 . S
O29 Sm1 2.464 . S
O29 C18 1.251 . S
O30 Sm1 2.396 1_655 S
O30 C19 1.252 . S
O31 Sm0 2.408 . S
O31 C19 1.272 1_455 S
H32 C4 0.930 . S
H33 C5 0.929 . S
H34 C7 0.930 . S
H35 C8 0.929 . S
H36 C13 0.930 . S
H37 C14 0.929 . S
H38 C16 0.930 . S
H39 C17 0.929 . S
Sm40 C42 2.846 1_545 S
Sm40 O60 2.543 1_545 S
Sm40 O61 2.450 1_545 S
Sm40 O62 2.681 . S
Sm40 O63 2.464 . S
Sm40 O64 2.396 1_545 S
Sm40 O68 2.386 . S
Sm40 O71 2.408 . S
Sm41 C51 2.846 . S
Sm41 O62 2.386 . S
Sm41 O65 2.408 1_545 S
Sm41 O66 2.543 . S
Sm41 O67 2.450 . S
Sm41 O68 2.681 . S
Sm41 O69 2.464 . S
Sm41 O70 2.396 . S
C42 Sm40 2.846 1_565 S
C42 C43 1.506 . S
C42 O60 1.261 . S
C42 O61 1.242 . S
C43 C42 1.506 . S
C43 C44 1.358 . S
C43 C48 1.382 . S
C44 C43 1.358 . S
C44 C45 1.385 . S
C44 H72 0.930 . S
C45 C44 1.385 . S
C45 C46 1.395 . S
C45 H73 0.929 . S
C46 C45 1.395 . S
C46 C47 1.335 . S
C47 C46 1.335 . S
C47 C48 1.398 . S
C47 H74 0.930 . S
C48 C43 1.382 . S
C48 C47 1.398 . S
C48 H75 0.929 . S
C49 O62 1.271 . S
C49 O63 1.251 . S
C50 O64 1.252 . S
C50 O65 1.272 . S
C51 Sm41 2.846 . S
C51 C52 1.506 . S
C51 O66 1.261 . S
C51 O67 1.242 . S
C52 C51 1.506 . S
C52 C53 1.358 . S
C52 C57 1.382 . S
C53 C52 1.358 . S
C53 C54 1.385 . S
C53 H76 0.930 . S
C54 C53 1.385 . S
C54 C55 1.395 . S
C54 H77 0.929 . S
C55 C54 1.395 . S
C55 C56 1.335 . S
C56 C55 1.335 . S
C56 C57 1.398 . S
C56 H78 0.930 . S
C57 C52 1.382 . S
C57 C56 1.398 . S
C57 H79 0.929 . S
C58 O68 1.271 . S
C58 O69 1.251 . S
C59 O70 1.252 . S
C59 O71 1.272 . S
O60 Sm40 2.543 1_565 S
O60 C42 1.261 . S
O61 Sm40 2.450 1_565 S
O61 C42 1.242 . S
O62 Sm40 2.681 . S
O62 Sm41 2.386 . S
O62 C49 1.271 . S
O63 Sm40 2.464 . S
O63 C49 1.251 . S
O64 Sm40 2.396 1_565 S
O64 C50 1.252 . S
O65 Sm41 2.408 1_565 S
O65 C50 1.272 . S
O66 Sm41 2.543 . S
O66 C51 1.261 . S
O67 Sm41 2.450 . S
O67 C51 1.242 . S
O68 Sm40 2.386 . S
O68 Sm41 2.681 . S
O68 C58 1.271 . S
O69 Sm41 2.464 . S
O69 C58 1.251 . S
O70 Sm41 2.396 . S
O70 C59 1.252 . S
O71 Sm40 2.408 . S
O71 C59 1.272 . S
H72 C44 0.930 . S
H73 C45 0.929 . S
H74 C47 0.930 . S
H75 C48 0.929 . S
H76 C53 0.930 . S
H77 C54 0.929 . S
H78 C56 0.930 . S
H79 C57 0.929 . S
Sm80 C82 2.846 . S
Sm80 O100 2.543 . S
Sm80 O101 2.450 . S
Sm80 O102 2.681 . S
Sm80 O103 2.464 . S
Sm80 O104 2.396 . S
Sm80 O108 2.386 . S
Sm80 O111 2.408 . S
Sm81 C91 2.846 . S
Sm81 O102 2.386 . S
Sm81 O105 2.408 . S
Sm81 O106 2.543 . S
Sm81 O107 2.450 . S
Sm81 O108 2.681 . S
Sm81 O109 2.464 . S
Sm81 O110 2.396 . S
C82 Sm80 2.846 . S
C82 C83 1.506 . S
C82 O100 1.261 . S
C82 O101 1.242 . S
C83 C82 1.506 . S
C83 C84 1.358 . S
C83 C88 1.382 . S
C84 C83 1.358 . S
C84 C85 1.385 . S
C84 H112 0.930 . S
C85 C84 1.385 . S
C85 C86 1.395 . S
C85 H113 0.929 . S
C86 C85 1.395 . S
C86 C87 1.335 . S
C87 C86 1.335 . S
C87 C88 1.398 . S
C87 H114 0.930 . S
C88 C83 1.382 . S
C88 C87 1.398 . S
C88 H115 0.929 . S
C89 O102 1.271 . S
C89 O103 1.251 . S
C90 O104 1.252 . S
C90 O105 1.272 . S
C91 Sm81 2.846 . S
C91 C92 1.506 . S
C91 O106 1.261 . S
C91 O107 1.242 . S
C92 C91 1.506 . S
C92 C93 1.358 . S
C92 C97 1.382 . S
C93 C92 1.358 . S
C93 C94 1.385 . S
C93 H116 0.930 . S
C94 C93 1.385 . S
C94 C95 1.395 . S
C94 H117 0.929 . S
C95 C94 1.395 . S
C95 C96 1.335 . S
C96 C95 1.335 . S
C96 C97 1.398 . S
C96 H118 0.930 . S
C97 C92 1.382 . S
C97 C96 1.398 . S
C97 H119 0.929 . S
C98 O108 1.271 . S
C98 O109 1.251 . S
C99 O110 1.252 . S
C99 O111 1.272 . S
O100 Sm80 2.543 . S
O100 C82 1.261 . S
O101 Sm80 2.450 . S
O101 C82 1.242 . S
O102 Sm80 2.681 . S
O102 Sm81 2.386 . S
O102 C89 1.271 . S
O103 Sm80 2.464 . S
O103 C89 1.251 . S
O104 Sm80 2.396 . S
O104 C90 1.252 . S
O105 Sm81 2.408 . S
O105 C90 1.272 . S
O106 Sm81 2.543 . S
O106 C91 1.261 . S
O107 Sm81 2.450 . S
O107 C91 1.242 . S
O108 Sm80 2.386 . S
O108 Sm81 2.681 . S
O108 C98 1.271 . S
O109 Sm81 2.464 . S
O109 C98 1.251 . S
O110 Sm81 2.396 . S
O110 C99 1.252 . S
O111 Sm80 2.408 . S
O111 C99 1.272 . S
H112 C84 0.930 . S
H113 C85 0.929 . S
H114 C87 0.930 . S
H115 C88 0.929 . S
H116 C93 0.930 . S
H117 C94 0.929 . S
H118 C96 0.930 . S
H119 C97 0.929 . S
H120 C125 0.930 . S
H121 C128 0.930 . S
H122 C130 0.930 1_565 S
H123 C124 1.016 . S
C124 H123 1.016 . S
C124 N131 1.286 . S
C125 H120 0.930 . S
C125 C126 1.397 . S
C125 C127 1.361 . S
C126 C125 1.397 . S
C126 C130 1.390 . S
C127 C125 1.361 . S
C127 C128 1.393 . S
C127 N131 1.413 . S
C128 H121 0.930 . S
C128 C127 1.393 . S
C128 C129 1.399 . S
C129 C128 1.399 . S
C129 C130 1.381 . S
C130 H122 0.930 1_545 S
C130 C126 1.390 . S
C130 C129 1.381 . S
N131 C124 1.286 . S
N131 C127 1.413 . S
H132 C137 0.930 . S
H133 C140 0.930 . S
H134 C142 0.930 . S
H135 C136 1.016 . S
C136 H135 1.016 . S
C136 N143 1.286 . S
C137 H132 0.930 . S
C137 C138 1.397 . S
C137 C139 1.361 . S
C138 C137 1.397 . S
C138 C142 1.390 . S
C139 C137 1.361 . S
C139 C140 1.393 . S
C139 N143 1.413 . S
C140 H133 0.930 . S
C140 C139 1.393 . S
C140 C141 1.399 . S
C141 C140 1.399 . S
C141 C142 1.381 . S
C142 H134 0.930 . S
C142 C138 1.390 . S
C142 C141 1.381 . S
N143 C136 1.286 . S
N143 C139 1.413 . S
H144 C149 0.930 . S
H145 C152 0.930 . S
H146 C154 0.930 . S
H147 C148 1.016 . S
C148 H147 1.016 . S
C148 N155 1.286 . S
C149 H144 0.930 . S
C149 C150 1.397 . S
C149 C151 1.361 . S
C150 C149 1.397 . S
C150 C154 1.390 . S
C151 C149 1.361 . S
C151 C152 1.393 . S
C151 N155 1.413 . S
C152 H145 0.930 . S
C152 C151 1.393 . S
C152 C153 1.399 . S
C153 C152 1.399 . S
C153 C154 1.381 . S
C154 H146 0.930 . S
C154 C150 1.390 . S
C154 C153 1.381 . S
N155 C148 1.286 . S
N155 C151 1.413 . S
H156 C161 0.930 . S
H157 C164 0.930 . S
H158 C166 0.930 . S
H159 C160 1.016 . S
C160 H159 1.016 . S
C160 N167 1.286 . S
C161 H156 0.930 . S
C161 C162 1.397 . S
C161 C163 1.361 1_455 S
C162 C161 1.397 . S
C162 C166 1.390 . S
C163 C161 1.361 1_655 S
C163 C164 1.393 . S
C163 N167 1.413 . S
C164 H157 0.930 . S
C164 C163 1.393 . S
C164 C165 1.399 1_655 S
C165 C164 1.399 1_455 S
C165 C166 1.381 . S
C166 H158 0.930 . S
C166 C162 1.390 . S
C166 C165 1.381 . S
N167 C160 1.286 . S
N167 C163 1.413 . S
H168 C173 0.930 . S
H169 C176 0.930 . S
H170 C178 0.930 . S
H171 C172 1.016 . S
C172 H171 1.016 . S
C172 N179 1.286 . S
C173 H168 0.930 . S
C173 C174 1.397 . S
C173 C175 1.361 . S
C174 C173 1.397 . S
C174 C178 1.390 . S
C175 C173 1.361 . S
C175 C176 1.393 1_545 S
C175 N179 1.413 1_545 S
C176 H169 0.930 . S
C176 C175 1.393 1_565 S
C176 C177 1.399 1_565 S
C177 C176 1.399 1_545 S
C177 C178 1.381 . S
C178 H170 0.930 . S
C178 C174 1.390 . S
C178 C177 1.381 . S
N179 C172 1.286 . S
N179 C175 1.413 1_565 S
H180 C185 0.930 . S
H181 C188 0.930 . S
H182 C190 0.930 . S
H183 C184 1.016 . S
C184 H183 1.016 . S
C184 N191 1.286 . S
C185 H180 0.930 . S
C185 C186 1.397 . S
C185 C187 1.361 . S
C186 C185 1.397 . S
C186 C190 1.390 . S
C187 C185 1.361 . S
C187 C188 1.393 . S
C187 N191 1.413 . S
C188 H181 0.930 . S
C188 C187 1.393 . S
C188 C189 1.399 . S
C189 C188 1.399 . S
C189 C190 1.381 . S
C190 H182 0.930 . S
C190 C186 1.390 . S
C190 C189 1.381 . S
N191 C184 1.286 . S
N191 C187 1.413 . S
C192 C193 1.349 . S
C192 C194 1.327 . S
C192 H217 0.950 . S
C193 C192 1.349 . S
C193 C209 1.349 . S
C194 C192 1.327 . S
C194 C213 1.429 . S
C194 H218 0.950 . S
C195 C212 1.574 . S
C195 C214 1.368 . S
C195 H219 0.949 . S
H196 C200 0.949 . S
C197 C198 1.349 . S
C197 C199 1.327 . S
C197 H220 0.950 . S
C198 C197 1.349 . S
C198 C210 1.349 . S
C199 C197 1.327 . S
C199 C215 1.429 . S
C199 H221 0.950 . S
C200 H196 0.949 . S
C200 C208 1.574 . S
C200 C216 1.368 . S
H201 C209 0.950 . S
H202 C207 0.950 . S
H203 C208 0.949 . S
H204 C210 0.950 . S
H205 C211 0.950 . S
H206 C212 0.949 . S
C207 H202 0.950 . S
C207 C209 1.327 . S
C207 C213 1.429 . S
C208 C200 1.574 . S
C208 H203 0.949 . S
C208 C214 1.368 . S
C209 C193 1.349 . S
C209 H201 0.950 . S
C209 C207 1.327 . S
C210 C198 1.349 . S
C210 H204 0.950 . S
C210 C211 1.327 . S
C211 H205 0.950 . S
C211 C210 1.327 . S
C211 C215 1.429 . S
C212 C195 1.574 . S
C212 H206 0.949 . S
C212 C216 1.368 . S
C213 C194 1.429 . S
C213 C207 1.429 . S
C213 C214 1.523 . S
C214 C195 1.368 . S
C214 C208 1.368 . S
C214 C213 1.523 . S
C215 C199 1.429 . S
C215 C211 1.429 . S
C215 C216 1.523 . S
C216 C200 1.368 . S
C216 C212 1.368 . S
C216 C215 1.523 . S
H217 C192 0.950 . S
H218 C194 0.950 . S
H219 C195 0.949 . S
H220 C197 0.950 . S
H221 C199 0.950 . S
C222 C223 1.349 . S
C222 C224 1.327 . S
C222 H247 0.950 . S
C223 C222 1.349 . S
C223 C239 1.349 . S
C224 C222 1.327 . S
C224 C243 1.429 . S
C224 H248 0.950 . S
C225 C242 1.574 . S
C225 C244 1.368 . S
C225 H249 0.949 . S
H226 C230 0.949 . S
C227 C228 1.349 . S
C227 C229 1.327 . S
C227 H250 0.950 . S
C228 C227 1.349 . S
C228 C240 1.349 . S
C229 C227 1.327 . S
C229 C245 1.429 . S
C229 H251 0.950 . S
C230 H226 0.949 . S
C230 C238 1.574 . S
C230 C246 1.368 . S
H231 C239 0.950 . S
H232 C237 0.950 . S
H233 C238 0.949 . S
H234 C240 0.950 . S
H235 C241 0.950 . S
H236 C242 0.949 . S
C237 H232 0.950 . S
C237 C239 1.327 . S
C237 C243 1.429 . S
C238 C230 1.574 . S
C238 H233 0.949 . S
C238 C244 1.368 . S
C239 C223 1.349 . S
C239 H231 0.950 . S
C239 C237 1.327 . S
C240 C228 1.349 . S
C240 H234 0.950 . S
C240 C241 1.327 . S
C241 H235 0.950 . S
C241 C240 1.327 . S
C241 C245 1.429 . S
C242 C225 1.574 . S
C242 H236 0.949 . S
C242 C246 1.368 . S
C243 C224 1.429 . S
C243 C237 1.429 . S
C243 C244 1.523 . S
C244 C225 1.368 . S
C244 C238 1.368 . S
C244 C243 1.523 . S
C245 C229 1.429 . S
C245 C241 1.429 . S
C245 C246 1.523 . S
C246 C230 1.368 . S
C246 C242 1.368 . S
C246 C245 1.523 . S
H247 C222 0.950 . S
H248 C224 0.950 . S
H249 C225 0.949 . S
H250 C227 0.950 . S
H251 C229 0.950 . S
C252 C253 1.349 . S
C252 C254 1.327 . S
C252 H277 0.950 . S
C253 C252 1.349 . S
C253 C269 1.349 . S
C254 C252 1.327 . S
C254 C273 1.429 . S
C254 H278 0.950 . S
C255 C272 1.574 . S
C255 C274 1.368 . S
C255 H279 0.949 . S
H256 C260 0.949 . S
C257 C258 1.349 . S
C257 C259 1.327 . S
C257 H280 0.950 . S
C258 C257 1.349 . S
C258 C270 1.349 . S
C259 C257 1.327 . S
C259 C275 1.429 . S
C259 H281 0.950 . S
C260 H256 0.949 . S
C260 C268 1.574 . S
C260 C276 1.368 . S
H261 C269 0.950 . S
H262 C267 0.950 . S
H263 C268 0.949 . S
H264 C270 0.950 . S
H265 C271 0.950 . S
H266 C272 0.949 . S
C267 H262 0.950 . S
C267 C269 1.327 . S
C267 C273 1.429 . S
C268 C260 1.574 . S
C268 H263 0.949 . S
C268 C274 1.368 . S
C269 C253 1.349 . S
C269 H261 0.950 . S
C269 C267 1.327 . S
C270 C258 1.349 . S
C270 H264 0.950 . S
C270 C271 1.327 . S
C271 H265 0.950 . S
C271 C270 1.327 . S
C271 C275 1.429 . S
C272 C255 1.574 . S
C272 H266 0.949 . S
C272 C276 1.368 . S
C273 C254 1.429 . S
C273 C267 1.429 . S
C273 C274 1.523 . S
C274 C255 1.368 . S
C274 C268 1.368 . S
C274 C273 1.523 . S
C275 C259 1.429 . S
C275 C271 1.429 . S
C275 C276 1.523 . S
C276 C260 1.368 . S
C276 C272 1.368 . S
C276 C275 1.523 . S
H277 C252 0.950 . S
H278 C254 0.950 . S
H279 C255 0.949 . S
H280 C257 0.950 . S
H281 C259 0.950 . S
C282 C283 1.349 . S
C282 C284 1.327 . S
C282 H307 0.950 . S
C283 C282 1.349 . S
C283 C299 1.349 . S
C284 C282 1.327 . S
C284 C303 1.429 . S
C284 H308 0.950 . S
C285 C302 1.574 . S
C285 C304 1.368 . S
C285 H309 0.949 . S
H286 C290 0.949 . S
C287 C288 1.349 . S
C287 C289 1.327 . S
C287 H310 0.950 . S
C288 C287 1.349 . S
C288 C300 1.349 . S
C289 C287 1.327 . S
C289 C305 1.429 . S
C289 H311 0.950 . S
C290 H286 0.949 . S
C290 C298 1.574 . S
C290 C306 1.368 . S
H291 C299 0.950 . S
H292 C297 0.950 . S
H293 C298 0.949 . S
H294 C300 0.950 . S
H295 C301 0.950 . S
H296 C302 0.949 . S
C297 H292 0.950 . S
C297 C299 1.327 . S
C297 C303 1.429 . S
C298 C290 1.574 . S
C298 H293 0.949 . S
C298 C304 1.368 . S
C299 C283 1.349 . S
C299 H291 0.950 . S
C299 C297 1.327 . S
C300 C288 1.349 . S
C300 H294 0.950 . S
C300 C301 1.327 . S
C301 H295 0.950 . S
C301 C300 1.327 . S
C301 C305 1.429 . S
C302 C285 1.574 . S
C302 H296 0.949 . S
C302 C306 1.368 . S
C303 C284 1.429 . S
C303 C297 1.429 . S
C303 C304 1.523 . S
C304 C285 1.368 . S
C304 C298 1.368 . S
C304 C303 1.523 . S
C305 C289 1.429 . S
C305 C301 1.429 . S
C305 C306 1.523 . S
C306 C290 1.368 . S
C306 C302 1.368 . S
C306 C305 1.523 . S
H307 C282 0.950 . S
H308 C284 0.950 . S
H309 C285 0.949 . S
H310 C287 0.950 . S
H311 C289 0.950 . S
C312 C313 1.349 . S
C312 C314 1.327 . S
C312 H337 0.950 . S
C313 C312 1.349 . S
C313 C329 1.349 . S
C314 C312 1.327 . S
C314 C333 1.429 . S
C314 H338 0.950 . S
C315 C332 1.574 . S
C315 C334 1.368 . S
C315 H339 0.949 . S
H316 C320 0.949 . S
C317 C318 1.349 . S
C317 C319 1.327 . S
C317 H340 0.950 . S
C318 C317 1.349 . S
C318 C330 1.349 . S
C319 C317 1.327 . S
C319 C335 1.429 . S
C319 H341 0.950 . S
C320 H316 0.949 . S
C320 C328 1.574 . S
C320 C336 1.368 . S
H321 C329 0.950 . S
H322 C327 0.950 . S
H323 C328 0.949 . S
H324 C330 0.950 . S
H325 C331 0.950 . S
H326 C332 0.949 . S
C327 H322 0.950 . S
C327 C329 1.327 . S
C327 C333 1.429 . S
C328 C320 1.574 . S
C328 H323 0.949 . S
C328 C334 1.368 . S
C329 C313 1.349 . S
C329 H321 0.950 . S
C329 C327 1.327 . S
C330 C318 1.349 . S
C330 H324 0.950 . S
C330 C331 1.327 . S
C331 H325 0.950 . S
C331 C330 1.327 . S
C331 C335 1.429 . S
C332 C315 1.574 . S
C332 H326 0.949 . S
C332 C336 1.368 . S
C333 C314 1.429 . S
C333 C327 1.429 . S
C333 C334 1.523 . S
C334 C315 1.368 . S
C334 C328 1.368 . S
C334 C333 1.523 . S
C335 C319 1.429 . S
C335 C331 1.429 . S
C335 C336 1.523 . S
C336 C320 1.368 . S
C336 C332 1.368 . S
C336 C335 1.523 . S
H337 C312 0.950 . S
H338 C314 0.950 . S
H339 C315 0.949 . S
H340 C317 0.950 . S
H341 C319 0.950 . S
C342 C343 1.349 . S
C342 C344 1.327 . S
C342 H367 0.950 . S
C343 C342 1.349 . S
C343 C359 1.349 . S
C344 C342 1.327 . S
C344 C363 1.429 . S
C344 H368 0.950 . S
C345 C362 1.574 . S
C345 C364 1.368 . S
C345 H369 0.949 . S
H346 C350 0.949 . S
C347 C348 1.349 . S
C347 C349 1.327 . S
C347 H370 0.950 . S
C348 C347 1.349 . S
C348 C360 1.349 . S
C349 C347 1.327 . S
C349 C365 1.429 . S
C349 H371 0.950 . S
C350 H346 0.949 . S
C350 C358 1.574 . S
C350 C366 1.368 . S
H351 C359 0.950 . S
H352 C357 0.950 . S
H353 C358 0.949 . S
H354 C360 0.950 . S
H355 C361 0.950 . S
H356 C362 0.949 . S
C357 H352 0.950 . S
C357 C359 1.327 . S
C357 C363 1.429 . S
C358 C350 1.574 . S
C358 H353 0.949 . S
C358 C364 1.368 . S
C359 C343 1.349 . S
C359 H351 0.950 . S
C359 C357 1.327 . S
C360 C348 1.349 . S
C360 H354 0.950 . S
C360 C361 1.327 . S
C361 H355 0.950 . S
C361 C360 1.327 . S
C361 C365 1.429 . S
C362 C345 1.574 . S
C362 H356 0.949 . S
C362 C366 1.368 . S
C363 C344 1.429 . S
C363 C357 1.429 . S
C363 C364 1.523 . S
C364 C345 1.368 . S
C364 C358 1.368 . S
C364 C363 1.523 . S
C365 C349 1.429 . S
C365 C361 1.429 . S
C365 C366 1.523 . S
C366 C350 1.368 . S
C366 C362 1.368 . S
C366 C365 1.523 . S
H367 C342 0.950 . S
H368 C344 0.950 . S
H369 C345 0.949 . S
H370 C347 0.950 . S
H371 C349 0.950 . S
C372 C373 1.349 . S
C372 C374 1.327 . S
C372 H397 0.950 . S
C373 C372 1.349 . S
C373 C389 1.349 . S
C374 C372 1.327 . S
C374 C393 1.429 . S
C374 H398 0.950 . S
C375 C392 1.574 . S
C375 C394 1.368 . S
C375 H399 0.949 . S
H376 C380 0.949 . S
C377 C378 1.349 . S
C377 C379 1.327 . S
C377 H400 0.950 . S
C378 C377 1.349 . S
C378 C390 1.349 . S
C379 C377 1.327 . S
C379 C395 1.429 . S
C379 H401 0.950 . S
C380 H376 0.949 . S
C380 C388 1.574 . S
C380 C396 1.368 . S
H381 C389 0.950 . S
H382 C387 0.950 . S
H383 C388 0.949 . S
H384 C390 0.950 . S
H385 C391 0.950 . S
H386 C392 0.949 . S
C387 H382 0.950 . S
C387 C389 1.327 . S
C387 C393 1.429 . S
C388 C380 1.574 . S
C388 H383 0.949 . S
C388 C394 1.368 . S
C389 C373 1.349 . S
C389 H381 0.950 . S
C389 C387 1.327 . S
C390 C378 1.349 . S
C390 H384 0.950 . S
C390 C391 1.327 . S
C391 H385 0.950 . S
C391 C390 1.327 . S
C391 C395 1.429 . S
C392 C375 1.574 . S
C392 H386 0.949 . S
C392 C396 1.368 . S
C393 C374 1.429 . S
C393 C387 1.429 . S
C393 C394 1.523 . S
C394 C375 1.368 . S
C394 C388 1.368 . S
C394 C393 1.523 . S
C395 C379 1.429 . S
C395 C391 1.429 . S
C395 C396 1.523 . S
C396 C380 1.368 . S
C396 C392 1.368 . S
C396 C395 1.523 . S
H397 C372 0.950 . S
H398 C374 0.950 . S
H399 C375 0.949 . S
H400 C377 0.950 . S
H401 C379 0.950 . S
C402 C403 1.349 . S
C402 C404 1.327 . S
C402 H427 0.950 . S
C403 C402 1.349 . S
C403 C419 1.349 . S
C404 C402 1.327 . S
C404 C423 1.429 . S
C404 H428 0.950 . S
C405 C422 1.574 . S
C405 C424 1.368 . S
C405 H429 0.949 . S
H406 C410 0.949 . S
C407 C408 1.349 . S
C407 C409 1.327 . S
C407 H430 0.950 . S
C408 C407 1.349 . S
C408 C420 1.349 . S
C409 C407 1.327 . S
C409 C425 1.429 . S
C409 H431 0.950 . S
C410 H406 0.949 . S
C410 C418 1.574 . S
C410 C426 1.368 . S
H411 C419 0.950 . S
H412 C417 0.950 . S
H413 C418 0.949 . S
H414 C420 0.950 . S
H415 C421 0.950 . S
H416 C422 0.949 . S
C417 H412 0.950 . S
C417 C419 1.327 . S
C417 C423 1.429 . S
C418 C410 1.574 . S
C418 H413 0.949 . S
C418 C424 1.368 . S
C419 C403 1.349 . S
C419 H411 0.950 . S
C419 C417 1.327 . S
C420 C408 1.349 . S
C420 H414 0.950 . S
C420 C421 1.327 . S
C421 H415 0.950 . S
C421 C420 1.327 . S
C421 C425 1.429 . S
C422 C405 1.574 . S
C422 H416 0.949 . S
C422 C426 1.368 . S
C423 C404 1.429 . S
C423 C417 1.429 . S
C423 C424 1.523 . S
C424 C405 1.368 . S
C424 C418 1.368 . S
C424 C423 1.523 . S
C425 C409 1.429 . S
C425 C421 1.429 . S
C425 C426 1.523 . S
C426 C410 1.368 . S
C426 C422 1.368 . S
C426 C425 1.523 . S
H427 C402 0.950 . S
H428 C404 0.950 . S
H429 C405 0.949 . S
H430 C407 0.950 . S
H431 C409 0.950 . S
C432 C433 1.349 . S
C432 C434 1.327 . S
C432 H457 0.950 . S
C433 C432 1.349 . S
C433 C449 1.349 . S
C434 C432 1.327 . S
C434 C453 1.429 . S
C434 H458 0.950 . S
C435 C452 1.574 . S
C435 C454 1.368 . S
C435 H459 0.949 . S
H436 C440 0.949 . S
C437 C438 1.349 . S
C437 C439 1.327 . S
C437 H460 0.950 . S
C438 C437 1.349 . S
C438 C450 1.349 . S
C439 C437 1.327 . S
C439 C455 1.429 . S
C439 H461 0.950 . S
C440 H436 0.949 . S
C440 C448 1.574 . S
C440 C456 1.368 . S
H441 C449 0.950 . S
H442 C447 0.950 . S
H443 C448 0.949 . S
H444 C450 0.950 . S
H445 C451 0.950 . S
H446 C452 0.949 . S
C447 H442 0.950 . S
C447 C449 1.327 . S
C447 C453 1.429 . S
C448 C440 1.574 . S
C448 H443 0.949 . S
C448 C454 1.368 . S
C449 C433 1.349 . S
C449 H441 0.950 . S
C449 C447 1.327 . S
C450 C438 1.349 . S
C450 H444 0.950 . S
C450 C451 1.327 . S
C451 H445 0.950 . S
C451 C450 1.327 . S
C451 C455 1.429 . S
C452 C435 1.574 . S
C452 H446 0.949 . S
C452 C456 1.368 . S
C453 C434 1.429 . S
C453 C447 1.429 . S
C453 C454 1.523 . S
C454 C435 1.368 . S
C454 C448 1.368 . S
C454 C453 1.523 . S
C455 C439 1.429 . S
C455 C451 1.429 . S
C455 C456 1.523 . S
C456 C440 1.368 . S
C456 C452 1.368 . S
C456 C455 1.523 . S
H457 C432 0.950 . S
H458 C434 0.950 . S
H459 C435 0.949 . S
H460 C437 0.950 . S
H461 C439 0.950 . S
C462 C463 1.349 . S
C462 C464 1.327 . S
C462 H487 0.950 . S
C463 C462 1.349 . S
C463 C479 1.349 . S
C464 C462 1.327 . S
C464 C483 1.429 . S
C464 H488 0.950 . S
C465 C482 1.574 . S
C465 C484 1.368 . S
C465 H489 0.949 . S
H466 C470 0.949 . S
C467 C468 1.349 . S
C467 C469 1.327 . S
C467 H490 0.950 . S
C468 C467 1.349 . S
C468 C480 1.349 . S
C469 C467 1.327 . S
C469 C485 1.429 . S
C469 H491 0.950 . S
C470 H466 0.949 . S
C470 C478 1.574 . S
C470 C486 1.368 . S
H471 C479 0.950 . S
H472 C477 0.950 . S
H473 C478 0.949 . S
H474 C480 0.950 . S
H475 C481 0.950 . S
H476 C482 0.949 . S
C477 H472 0.950 . S
C477 C479 1.327 . S
C477 C483 1.429 . S
C478 C470 1.574 . S
C478 H473 0.949 . S
C478 C484 1.368 . S
C479 C463 1.349 . S
C479 H471 0.950 . S
C479 C477 1.327 . S
C480 C468 1.349 . S
C480 H474 0.950 . S
C480 C481 1.327 . S
C481 H475 0.950 . S
C481 C480 1.327 . S
C481 C485 1.429 . S
C482 C465 1.574 . S
C482 H476 0.949 . S
C482 C486 1.368 . S
C483 C464 1.429 . S
C483 C477 1.429 . S
C483 C484 1.523 . S
C484 C465 1.368 . S
C484 C478 1.368 . S
C484 C483 1.523 . S
C485 C469 1.429 . S
C485 C481 1.429 . S
C485 C486 1.523 . S
C486 C470 1.368 . S
C486 C482 1.368 . S
C486 C485 1.523 . S
H487 C462 0.950 . S
H488 C464 0.950 . S
H489 C465 0.949 . S
H490 C467 0.950 . S
H491 C469 0.950 . S
C492 C493 1.349 . S
C492 C494 1.327 . S
C492 H517 0.950 . S
C493 C492 1.349 . S
C493 C509 1.349 . S
C494 C492 1.327 . S
C494 C513 1.429 . S
C494 H518 0.950 . S
C495 C512 1.574 . S
C495 C514 1.368 . S
C495 H519 0.949 . S
H496 C500 0.949 . S
C497 C498 1.349 . S
C497 C499 1.327 . S
C497 H520 0.950 . S
C498 C497 1.349 . S
C498 C510 1.349 . S
C499 C497 1.327 . S
C499 C515 1.429 . S
C499 H521 0.950 . S
C500 H496 0.949 . S
C500 C508 1.574 . S
C500 C516 1.368 . S
H501 C509 0.950 . S
H502 C507 0.950 . S
H503 C508 0.949 . S
H504 C510 0.950 . S
H505 C511 0.950 . S
H506 C512 0.949 . S
C507 H502 0.950 . S
C507 C509 1.327 . S
C507 C513 1.429 . S
C508 C500 1.574 . S
C508 H503 0.949 . S
C508 C514 1.368 . S
C509 C493 1.349 . S
C509 H501 0.950 . S
C509 C507 1.327 . S
C510 C498 1.349 . S
C510 H504 0.950 . S
C510 C511 1.327 . S
C511 H505 0.950 . S
C511 C510 1.327 . S
C511 C515 1.429 . S
C512 C495 1.574 . S
C512 H506 0.949 . S
C512 C516 1.368 . S
C513 C494 1.429 . S
C513 C507 1.429 . S
C513 C514 1.523 . S
C514 C495 1.368 . S
C514 C508 1.368 . S
C514 C513 1.523 . S
C515 C499 1.429 . S
C515 C511 1.429 . S
C515 C516 1.523 . S
C516 C500 1.368 . S
C516 C512 1.368 . S
C516 C515 1.523 . S
H517 C492 0.950 . S
H518 C494 0.950 . S
H519 C495 0.949 . S
H520 C497 0.950 . S
H521 C499 0.950 . S
C522 C523 1.349 . S
C522 C524 1.327 . S
C522 H547 0.950 . S
C523 C522 1.349 . S
C523 C539 1.349 . S
C524 C522 1.327 . S
C524 C543 1.429 . S
C524 H548 0.950 . S
C525 C542 1.574 . S
C525 C544 1.368 . S
C525 H549 0.949 . S
H526 C530 0.949 . S
C527 C528 1.349 . S
C527 C529 1.327 . S
C527 H550 0.950 . S
C528 C527 1.349 . S
C528 C540 1.349 . S
C529 C527 1.327 . S
C529 C545 1.429 . S
C529 H551 0.950 . S
C530 H526 0.949 . S
C530 C538 1.574 . S
C530 C546 1.368 . S
H531 C539 0.950 . S
H532 C537 0.950 . S
H533 C538 0.949 . S
H534 C540 0.950 . S
H535 C541 0.950 . S
H536 C542 0.949 . S
C537 H532 0.950 . S
C537 C539 1.327 . S
C537 C543 1.429 . S
C538 C530 1.574 . S
C538 H533 0.949 . S
C538 C544 1.368 . S
C539 C523 1.349 . S
C539 H531 0.950 . S
C539 C537 1.327 . S
C540 C528 1.349 . S
C540 H534 0.950 . S
C540 C541 1.327 . S
C541 H535 0.950 . S
C541 C540 1.327 . S
C541 C545 1.429 . S
C542 C525 1.574 . S
C542 H536 0.949 . S
C542 C546 1.368 . S
C543 C524 1.429 . S
C543 C537 1.429 . S
C543 C544 1.523 . S
C544 C525 1.368 . S
C544 C538 1.368 . S
C544 C543 1.523 . S
C545 C529 1.429 . S
C545 C541 1.429 . S
C545 C546 1.523 . S
C546 C530 1.368 . S
C546 C542 1.368 . S
C546 C545 1.523 . S
H547 C522 0.950 . S
H548 C524 0.950 . S
H549 C525 0.949 . S
H550 C527 0.950 . S
H551 C529 0.950 . S
C552 C553 1.349 . S
C552 C554 1.327 . S
C552 H577 0.950 . S
C553 C552 1.349 . S
C553 C569 1.349 . S
C554 C552 1.327 . S
C554 C573 1.429 . S
C554 H578 0.950 . S
C555 C572 1.574 . S
C555 C574 1.368 . S
C555 H579 0.949 . S
H556 C560 0.949 1_556 S
C557 C558 1.349 . S
C557 C559 1.327 . S
C557 H580 0.950 1_455 S
C558 C557 1.349 . S
C558 C570 1.349 . S
C559 C557 1.327 . S
C559 C575 1.429 . S
C559 H581 0.950 1_455 S
C560 H556 0.949 1_554 S
C560 C568 1.574 . S
C560 C576 1.368 1_554 S
H561 C569 0.950 . S
H562 C567 0.950 . S
H563 C568 0.949 . S
H564 C570 0.950 . S
H565 C571 0.950 . S
H566 C572 0.949 1_656 S
C567 H562 0.950 . S
C567 C569 1.327 . S
C567 C573 1.429 . S
C568 C560 1.574 . S
C568 H563 0.949 . S
C568 C574 1.368 . S
C569 C553 1.349 . S
C569 H561 0.950 . S
C569 C567 1.327 . S
C570 C558 1.349 . S
C570 H564 0.950 . S
C570 C571 1.327 . S
C571 H565 0.950 . S
C571 C570 1.327 . S
C571 C575 1.429 . S
C572 C555 1.574 . S
C572 H566 0.949 1_454 S
C572 C576 1.368 1_554 S
C573 C554 1.429 . S
C573 C567 1.429 . S
C573 C574 1.523 . S
C574 C555 1.368 . S
C574 C568 1.368 . S
C574 C573 1.523 . S
C575 C559 1.429 . S
C575 C571 1.429 . S
C575 C576 1.523 . S
C576 C560 1.368 1_556 S
C576 C572 1.368 1_556 S
C576 C575 1.523 . S
H577 C552 0.950 . S
H578 C554 0.950 . S
H579 C555 0.949 . S
H580 C557 0.950 1_655 S
H581 C559 0.950 1_655 S
C582 C583 1.349 1_565 S
C582 C584 1.327 . S
C582 H607 0.950 . S
C583 C582 1.349 1_545 S
C583 C599 1.349 . S
C584 C582 1.327 . S
C584 C603 1.429 1_565 S
C584 H608 0.950 . S
C585 C602 1.574 . S
C585 C604 1.368 . S
C585 H609 0.949 . S
H586 C590 0.949 1_565 S
C587 C588 1.349 . S
C587 C589 1.327 . S
C587 H610 0.950 . S
C588 C587 1.349 . S
C588 C600 1.349 . S
C589 C587 1.327 . S
C589 C605 1.429 . S
C589 H611 0.950 . S
C590 H586 0.949 1_545 S
C590 C598 1.574 . S
C590 C606 1.368 . S
H591 C599 0.950 . S
H592 C597 0.950 . S
H593 C598 0.949 1_565 S
H594 C600 0.950 1_565 S
H595 C601 0.950 1_565 S
H596 C602 0.949 . S
C597 H592 0.950 . S
C597 C599 1.327 . S
C597 C603 1.429 . S
C598 C590 1.574 . S
C598 H593 0.949 1_545 S
C598 C604 1.368 . S
C599 C583 1.349 . S
C599 H591 0.950 . S
C599 C597 1.327 . S
C600 C588 1.349 . S
C600 H594 0.950 1_545 S
C600 C601 1.327 . S
C601 H595 0.950 1_545 S
C601 C600 1.327 . S
C601 C605 1.429 . S
C602 C585 1.574 . S
C602 H596 0.949 . S
C602 C606 1.368 . S
C603 C584 1.429 1_545 S
C603 C597 1.429 . S
C603 C604 1.523 . S
C604 C585 1.368 . S
C604 C598 1.368 . S
C604 C603 1.523 . S
C605 C589 1.429 . S
C605 C601 1.429 . S
C605 C606 1.523 . S
C606 C590 1.368 . S
C606 C602 1.368 . S
C606 C605 1.523 . S
H607 C582 0.950 . S
H608 C584 0.950 . S
H609 C585 0.949 . S
H610 C587 0.950 . S
H611 C589 0.950 . S
C612 C613 1.349 . S
C612 C614 1.327 . S
C612 H637 0.950 . S
C613 C612 1.349 . S
C613 C629 1.349 . S
C614 C612 1.327 . S
C614 C633 1.429 . S
C614 H638 0.950 . S
C615 C632 1.574 . S
C615 C634 1.368 . S
C615 H639 0.949 . S
H616 C620 0.949 . S
C617 C618 1.349 . S
C617 C619 1.327 . S
C617 H640 0.950 . S
C618 C617 1.349 . S
C618 C630 1.349 . S
C619 C617 1.327 . S
C619 C635 1.429 . S
C619 H641 0.950 . S
C620 H616 0.949 . S
C620 C628 1.574 . S
C620 C636 1.368 . S
H621 C629 0.950 . S
H622 C627 0.950 . S
H623 C628 0.949 . S
H624 C630 0.950 . S
H625 C631 0.950 . S
H626 C632 0.949 . S
C627 H622 0.950 . S
C627 C629 1.327 . S
C627 C633 1.429 . S
C628 C620 1.574 . S
C628 H623 0.949 . S
C628 C634 1.368 . S
C629 C613 1.349 . S
C629 H621 0.950 . S
C629 C627 1.327 . S
C630 C618 1.349 . S
C630 H624 0.950 . S
C630 C631 1.327 . S
C631 H625 0.950 . S
C631 C630 1.327 . S
C631 C635 1.429 . S
C632 C615 1.574 . S
C632 H626 0.949 . S
C632 C636 1.368 . S
C633 C614 1.429 . S
C633 C627 1.429 . S
C633 C634 1.523 . S
C634 C615 1.368 . S
C634 C628 1.368 . S
C634 C633 1.523 . S
C635 C619 1.429 . S
C635 C631 1.429 . S
C635 C636 1.523 . S
C636 C620 1.368 . S
C636 C632 1.368 . S
C636 C635 1.523 . S
H637 C612 0.950 . S
H638 C614 0.950 . S
H639 C615 0.949 . S
H640 C617 0.950 . S
H641 C619 0.950 . S
C642 C643 1.349 1_565 S
C642 C644 1.327 . S
C642 H667 0.950 . S
C643 C642 1.349 1_545 S
C643 C659 1.349 . S
C644 C642 1.327 . S
C644 C663 1.429 1_565 S
C644 H668 0.950 . S
C645 C662 1.574 . S
C645 C664 1.368 . S
C645 H669 0.949 . S
H646 C650 0.949 . S
C647 C648 1.349 . S
C647 C649 1.327 . S
C647 H670 0.950 . S
C648 C647 1.349 . S
C648 C660 1.349 1_545 S
C649 C647 1.327 . S
C649 C665 1.429 . S
C649 H671 0.950 . S
C650 H646 0.949 . S
C650 C658 1.574 . S
C650 C666 1.368 1_565 S
H651 C659 0.950 . S
H652 C657 0.950 . S
H653 C658 0.949 . S
H654 C660 0.950 . S
H655 C661 0.950 . S
H656 C662 0.949 . S
C657 H652 0.950 . S
C657 C659 1.327 . S
C657 C663 1.429 . S
C658 C650 1.574 . S
C658 H653 0.949 . S
C658 C664 1.368 1_565 S
C659 C643 1.349 . S
C659 H651 0.950 . S
C659 C657 1.327 . S
C660 C648 1.349 1_565 S
C660 H654 0.950 . S
C660 C661 1.327 . S
C661 H655 0.950 . S
C661 C660 1.327 . S
C661 C665 1.429 1_565 S
C662 C645 1.574 . S
C662 H656 0.949 . S
C662 C666 1.368 . S
C663 C644 1.429 1_545 S
C663 C657 1.429 . S
C663 C664 1.523 . S
C664 C645 1.368 . S
C664 C658 1.368 1_545 S
C664 C663 1.523 . S
C665 C649 1.429 . S
C665 C661 1.429 1_545 S
C665 C666 1.523 . S
C666 C650 1.368 1_545 S
C666 C662 1.368 . S
C666 C665 1.523 . S
H667 C642 0.950 . S
H668 C644 0.950 . S
H669 C645 0.949 . S
H670 C647 0.950 . S
H671 C649 0.950 . S
C672 C673 1.349 . S
C672 C674 1.327 . S
C672 H697 0.950 . S
C673 C672 1.349 . S
C673 C689 1.349 . S
C674 C672 1.327 . S
C674 C693 1.429 . S
C674 H698 0.950 . S
C675 C692 1.574 . S
C675 C694 1.368 . S
C675 H699 0.949 . S
H676 C680 0.949 1_554 S
C677 C678 1.349 . S
C677 C679 1.327 . S
C677 H700 0.950 . S
C678 C677 1.349 . S
C678 C690 1.349 . S
C679 C677 1.327 . S
C679 C695 1.429 . S
C679 H701 0.950 . S
C680 H676 0.949 1_556 S
C680 C688 1.574 . S
C680 C696 1.368 1_556 S
H681 C689 0.950 . S
H682 C687 0.950 . S
H683 C688 0.949 . S
H684 C690 0.950 . S
H685 C691 0.950 . S
H686 C692 0.945 1_554 S
C687 H682 0.950 . S
C687 C689 1.327 . S
C687 C693 1.429 . S
C688 C680 1.574 . S
C688 H683 0.949 . S
C688 C694 1.368 . S
C689 C673 1.349 . S
C689 H681 0.950 . S
C689 C687 1.327 . S
C690 C678 1.349 . S
C690 H684 0.950 . S
C690 C691 1.327 . S
C691 H685 0.950 . S
C691 C690 1.327 . S
C691 C695 1.429 . S
C692 C675 1.574 . S
C692 H686 0.945 1_556 S
C692 C696 1.368 1_556 S
C693 C674 1.429 . S
C693 C687 1.429 . S
C693 C694 1.523 . S
C694 C675 1.368 . S
C694 C688 1.368 . S
C694 C693 1.523 . S
C695 C679 1.429 . S
C695 C691 1.429 . S
C695 C696 1.523 . S
C696 C680 1.368 1_554 S
C696 C692 1.368 1_554 S
C696 C695 1.523 . S
H697 C672 0.950 . S
H698 C674 0.950 . S
H699 C675 0.949 . S
H700 C677 0.950 . S
H701 C679 0.950 . S
C702 C703 1.349 . S
C702 C704 1.327 . S
C702 H727 0.950 . S
C703 C702 1.349 . S
C703 C719 1.349 . S
C704 C702 1.327 . S
C704 C723 1.429 . S
C704 H728 0.950 . S
C705 C722 1.574 . S
C705 C724 1.368 . S
C705 H729 0.949 . S
H706 C710 0.949 . S
C707 C708 1.349 . S
C707 C709 1.327 . S
C707 H730 0.950 . S
C708 C707 1.349 . S
C708 C720 1.349 . S
C709 C707 1.327 . S
C709 C725 1.429 . S
C709 H731 0.950 . S
C710 H706 0.949 . S
C710 C718 1.574 . S
C710 C726 1.368 . S
H711 C719 0.950 . S
H712 C717 0.950 . S
H713 C718 0.949 . S
H714 C720 0.950 . S
H715 C721 0.950 . S
H716 C722 0.949 . S
C717 H712 0.950 . S
C717 C719 1.327 . S
C717 C723 1.429 . S
C718 C710 1.574 . S
C718 H713 0.949 . S
C718 C724 1.368 . S
C719 C703 1.349 . S
C719 H711 0.950 . S
C719 C717 1.327 . S
C720 C708 1.349 . S
C720 H714 0.950 . S
C720 C721 1.327 . S
C721 H715 0.950 . S
C721 C720 1.327 . S
C721 C725 1.429 . S
C722 C705 1.574 . S
C722 H716 0.949 . S
C722 C726 1.368 . S
C723 C704 1.429 . S
C723 C717 1.429 . S
C723 C724 1.523 . S
C724 C705 1.368 . S
C724 C718 1.368 . S
C724 C723 1.523 . S
C725 C709 1.429 . S
C725 C721 1.429 . S
C725 C726 1.523 . S
C726 C710 1.368 . S
C726 C722 1.368 . S
C726 C725 1.523 . S
H727 C702 0.950 . S
H728 C704 0.950 . S
H729 C705 0.949 . S
H730 C707 0.950 . S
H731 C709 0.950 . S
C193 C6 0.733 . S
C198 C186 0.732 . S
C223 C59 1.934 . S
C228 C160 1.875 . S
C253 C86 1.240 . S
C258 C172 1.221 . S
C283 C15 0.302 . S
C288 C184 0.390 . S
C318 C162 1.812 . S
C313 C50 1.833 . S
C348 C174 1.097 . S
C343 C95 1.103 . S
C373 C46 1.268 . S
C378 C136 1.249 . S
C403 C99 3.389 . S
C408 C150 3.363 1_655 S
C433 C10 1.845 . S
C438 C126 1.835 1_565 S
C468 C138 1.099 . S
C463 C55 1.102 . S
C498 C148 2.592 . S
C493 C90 2.677 . S
C523 C19 1.935 . S
C528 C124 1.882 . S
C558 C153 1.747 . S
C553 C18 1.676 . S
C583 C49 1.425 . S
C588 C129 1.487 . S
C613 C98 1.507 . S
C618 C141 1.530 . S
C648 C177 1.538 . S
C643 C58 1.521 . S
C678 C189 1.282 . S
C673 C89 1.242 . S
C703 C9 1.412 . S
C708 C165 1.454 . S
