# Generated by pormake.
# Topology nom, (4,4)-cn, num edge types: 1
# Building blocks:
#     Node 0, Type 0, BuildingBlock: GIZVER_clean_linker_0, # of connection points: 4
#     Node 1, Type 0, BuildingBlock: GIZVER_clean_linker_0, # of connection points: 4
#     Node 2, Type 0, BuildingBlock: GIZVER_clean_linker_0, # of connection points: 4
#     Node 3, Type 0, BuildingBlock: GIZVER_clean_linker_0, # of connection points: 4
#     Node 4, Type 0, BuildingBlock: GIZVER_clean_linker_0, # of connection points: 4
#     Node 5, Type 0, BuildingBlock: GIZVER_clean_linker_0, # of connection points: 4
#     Node 6, Type 1, BuildingBlock: UXUYUI_clean_sbu_0, # of connection points: 4
#     Node 7, Type 1, BuildingBlock: UXUYUI_clean_sbu_0, # of connection points: 4
#     Node 8, Type 1, BuildingBlock: UXUYUI_clean_sbu_0, # of connection points: 4
#     Node 9, Type 1, BuildingBlock: UXUYUI_clean_sbu_0, # of connection points: 4
#     Node 10, Type 1, BuildingBlock: UXUYUI_clean_sbu_0, # of connection points: 4
#     Node 11, Type 1, BuildingBlock: UXUYUI_clean_sbu_0, # of connection points: 4
#     Edge 12, Type (0, 1), BuildingBlock: AJUNOK_clean_linker_0, # of connection points: 2
#     Edge 13, Type (0, 1), BuildingBlock: AJUNOK_clean_linker_0, # of connection points: 2
#     Edge 14, Type (0, 1), BuildingBlock: AJUNOK_clean_linker_0, # of connection points: 2
#     Edge 15, Type (0, 1), BuildingBlock: AJUNOK_clean_linker_0, # of connection points: 2
#     Edge 16, Type (0, 1), BuildingBlock: AJUNOK_clean_linker_0, # of connection points: 2
#     Edge 17, Type (0, 1), BuildingBlock: AJUNOK_clean_linker_0, # of connection points: 2
#     Edge 18, Type (0, 1), BuildingBlock: AJUNOK_clean_linker_0, # of connection points: 2
#     Edge 19, Type (0, 1), BuildingBlock: AJUNOK_clean_linker_0, # of connection points: 2
#     Edge 20, Type (0, 1), BuildingBlock: AJUNOK_clean_linker_0, # of connection points: 2
#     Edge 21, Type (0, 1), BuildingBlock: AJUNOK_clean_linker_0, # of connection points: 2
#     Edge 22, Type (0, 1), BuildingBlock: AJUNOK_clean_linker_0, # of connection points: 2
#     Edge 23, Type (0, 1), BuildingBlock: AJUNOK_clean_linker_0, # of connection points: 2
#     Edge 24, Type (0, 1), BuildingBlock: AJUNOK_clean_linker_0, # of connection points: 2
#     Edge 25, Type (0, 1), BuildingBlock: AJUNOK_clean_linker_0, # of connection points: 2
#     Edge 26, Type (0, 1), BuildingBlock: AJUNOK_clean_linker_0, # of connection points: 2
#     Edge 27, Type (0, 1), BuildingBlock: AJUNOK_clean_linker_0, # of connection points: 2
#     Edge 28, Type (0, 1), BuildingBlock: AJUNOK_clean_linker_0, # of connection points: 2
#     Edge 29, Type (0, 1), BuildingBlock: AJUNOK_clean_linker_0, # of connection points: 2
#     Edge 30, Type (0, 1), BuildingBlock: AJUNOK_clean_linker_0, # of connection points: 2
#     Edge 31, Type (0, 1), BuildingBlock: AJUNOK_clean_linker_0, # of connection points: 2
#     Edge 32, Type (0, 1), BuildingBlock: AJUNOK_clean_linker_0, # of connection points: 2
#     Edge 33, Type (0, 1), BuildingBlock: AJUNOK_clean_linker_0, # of connection points: 2
#     Edge 34, Type (0, 1), BuildingBlock: AJUNOK_clean_linker_0, # of connection points: 2
#     Edge 35, Type (0, 1), BuildingBlock: AJUNOK_clean_linker_0, # of connection points: 2
# Relax obj value: 0.036
# Max RMSD: 0.149
# Mean RMSD: 0.105
data_MOF--net-nom--node1-UXUYUI_clean_sbu_0--node2-GIZVER_clean_linker_0--edge1-AJUNOK_clean_linker_0
_symmetry_space_group_name_H-M    P1
_symmetry_Int_Tables_number       1
_symmetry_cell_setting            triclinic
loop_
_symmetry_equiv_pos_as_xyz
'x, y, z'
_cell_length_a     45.049748
_cell_length_b     45.025414
_cell_length_c     45.262271
_cell_angle_alpha  90.007715
_cell_angle_beta   90.02548
_cell_angle_gamma 120.10665
loop_
_atom_site_label
_atom_site_type_symbol
_atom_site_fract_x
_atom_site_fract_y
_atom_site_fract_z
_atom_type_partial_charge
H0 H 0.97397 0.55928 0.36695 0.0
H1 H 1.00743 0.56097 0.27745 0.0
H2 H 0.90596 0.48462 0.30393 0.0
H3 H 0.0254 0.60818 0.3502 0.0
H4 H 0.03094 0.61472 0.31135 0.0
H5 H 0.0487 0.57307 0.37565 0.0
H6 H 0.14723 0.59783 0.34115 0.0
H7 H 0.07848 0.61498 0.28791 0.0
C8 C 0.96939 0.54786 0.34515 0.0
C9 C 0.93698 0.51959 0.3383 0.0
C10 C 0.99523 0.56269 0.32339 0.0
C11 C 0.98844 0.54869 0.29473 0.0
C12 C 0.95643 0.52011 0.28792 0.0
C13 C 0.93126 0.50544 0.30986 0.0
C14 C 0.02765 0.59643 0.32931 0.0
C15 C 0.05926 0.59287 0.33107 0.0
C16 C 0.0667 0.58128 0.35742 0.0
C17 C 0.09822 0.58234 0.36095 0.0
C18 C 0.12192 0.59454 0.33769 0.0
C19 C 0.115 0.60595 0.31117 0.0
C20 C 0.08349 0.60496 0.3079 0.0
H21 H 0.43456 0.97203 0.53031 0.0
H22 H 0.47402 1.00317 0.4421 0.0
H23 H 0.4468 0.90263 0.47341 0.0
H24 H 0.43818 0.02279 0.50958 0.0
H25 H 0.44346 0.02882 0.47057 0.0
H26 H 0.49622 0.03873 0.53901 0.0
H27 H 0.57294 0.14148 0.51591 0.0
H28 H 0.48857 0.08331 0.45712 0.0
C29 C 0.44362 0.96712 0.50972 0.0
C30 C 0.44052 0.93484 0.50488 0.0
C31 C 0.45649 0.99231 0.48732 0.0
C32 C 0.46593 0.98469 0.45996 0.0
C33 C 0.46261 0.95238 0.45495 0.0
C34 C 0.45096 0.92815 0.47777 0.0
C35 C 0.45514 0.02501 0.49084 0.0
C36 C 0.49014 0.05613 0.49608 0.0
C37 C 0.50736 0.0593 0.5229 0.0
C38 C 0.53753 0.08995 0.5299 0.0
C39 C 0.55062 0.11722 0.50981 0.0
C40 C 0.53283 0.11545 0.48391 0.0
C41 C 0.50305 0.08448 0.47664 0.0
H42 H 0.44116 0.48912 0.61792 0.0
H43 H 0.47694 0.4947 0.70719 0.0
H44 H 0.45083 0.56888 0.67586 0.0
H45 H 0.44255 0.44087 0.63833 0.0
H46 H 0.44451 0.43835 0.67748 0.0
H47 H 0.50151 0.47832 0.61089 0.0
H48 H 0.57418 0.44995 0.64108 0.0
H49 H 0.49035 0.43344 0.69717 0.0
C50 C 0.44913 0.50232 0.63897 0.0
C51 C 0.44621 0.53156 0.6439 0.0
C52 C 0.46057 0.48905 0.6617 0.0
C53 C 0.46918 0.50547 0.68941 0.0
C54 C 0.4657 0.53435 0.69471 0.0
C55 C 0.45504 0.54756 0.67159 0.0
C56 C 0.45826 0.45457 0.65803 0.0
C57 C 0.49296 0.45727 0.655 0.0
C58 C 0.51132 0.46914 0.62837 0.0
C59 C 0.54113 0.46727 0.6236 0.0
C60 C 0.55252 0.45349 0.64564 0.0
C61 C 0.53428 0.44081 0.6721 0.0
C62 C 0.50486 0.4435 0.67695 0.0
H63 H 0.97425 0.43554 0.7822 0.0
H64 H 1.00533 0.4694 0.87178 0.0
H65 H 0.90567 0.44613 0.84133 0.0
H66 H 0.02338 0.43551 0.80198 0.0
H67 H 0.02827 0.43706 0.84108 0.0
H68 H 0.04662 0.49406 0.7745 0.0
H69 H 0.14813 0.56591 0.80561 0.0
H70 H 0.07921 0.48274 0.86124 0.0
C71 C 0.96946 0.44357 0.80338 0.0
C72 C 0.93764 0.44134 0.80861 0.0
C73 C 0.99428 0.4542 0.826 0.0
C74 C 0.98693 0.4626 0.85397 0.0
C75 C 0.95503 0.46 0.85949 0.0
C76 C 0.931 0.45006 0.83657 0.0
C77 C 0.02595 0.45117 0.82186 0.0
C78 C 0.05838 0.48563 0.81886 0.0
C79 C 0.06558 0.50376 0.79203 0.0
C80 C 0.09806 0.53272 0.78698 0.0
C81 C 0.12251 0.54456 0.80971 0.0
C82 C 0.11587 0.52679 0.83645 0.0
C83 C 0.08376 0.49737 0.84106 0.0
H84 H 0.62025 0.07692 0.03459 0.0
H85 H 0.58499 0.04671 0.94516 0.0
H86 H 0.60856 0.146 0.97665 0.0
H87 H 0.61838 0.02698 0.01472 0.0
H88 H 0.61823 0.02349 0.97551 0.0
H89 H 0.55952 1.00269 0.04108 0.0
H90 H 0.48551 0.90465 0.00527 0.0
H91 H 0.57235 0.97412 0.95311 0.0
C92 C 0.61231 0.08215 0.01356 0.0
C93 C 0.61505 0.1143 0.00864 0.0
C94 C 0.60109 0.05739 0.99081 0.0
C95 C 0.59207 0.0649 0.96319 0.0
C96 C 0.59388 0.09655 0.95836 0.0
C97 C 0.605 0.12075 0.98119 0.0
C98 C 0.60357 0.02533 0.99451 0.0
C99 C 0.56877 0.99311 0.9962 0.0
C100 C 0.54975 0.98503 0.02258 0.0
C101 C 0.51941 0.95328 0.02582 0.0
C102 C 0.50778 0.92997 0.00224 0.0
C103 C 0.52674 0.93717 0.97609 0.0
C104 C 0.55709 0.96894 0.97297 0.0
H105 H 0.62301 0.56956 0.11666 0.0
H106 H 0.58793 0.56284 0.20636 0.0
H107 H 0.6071 0.48524 0.17166 0.0
H108 H 0.62431 0.61863 0.13909 0.0
H109 H 0.62007 0.6193 0.17821 0.0
H110 H 0.56853 0.58667 0.10801 0.0
H111 H 0.49192 0.60928 0.13875 0.0
H112 H 0.57161 0.62033 0.19772 0.0
C113 C 0.61416 0.55561 0.13729 0.0
C114 C 0.61456 0.52484 0.14102 0.0
C115 C 0.60384 0.56914 0.16066 0.0
C116 C 0.59433 0.55174 0.1879 0.0
C117 C 0.59495 0.52112 0.19184 0.0
C118 C 0.60458 0.50772 0.16818 0.0
C119 C 0.60735 0.60421 0.15796 0.0
C120 C 0.57311 0.60224 0.15373 0.0
C121 C 0.55711 0.59357 0.12587 0.0
C122 C 0.52752 0.59569 0.12057 0.0
C123 C 0.51366 0.60588 0.14343 0.0
C124 C 0.52945 0.61521 0.17121 0.0
C125 C 0.55893 0.61274 0.17645 0.0
Li126 Li 0.63933 0.4209 0.43569 0.0
Li127 Li 0.62781 0.36737 0.41157 0.0
Li128 Li 0.68532 0.42048 0.40645 0.0
Li129 Li 0.63488 0.41524 0.38164 0.0
C130 C 0.65285 0.37538 0.46899 0.0
N131 N 0.63241 0.3371 0.52037 0.0
C132 C 0.62005 0.36387 0.48044 0.0
C133 C 0.67526 0.36742 0.48368 0.0
C134 C 0.61019 0.34455 0.50643 0.0
C135 C 0.66446 0.34804 0.50963 0.0
C136 C 0.56501 0.36674 0.409 0.0
C137 C 0.51745 0.32099 0.38271 0.0
N138 N 0.4959 0.319 0.40465 0.0
C139 C 0.54239 0.36423 0.43129 0.0
C140 C 0.55246 0.34493 0.38453 0.0
C141 C 0.50755 0.33994 0.42868 0.0
C142 C 0.60462 0.45018 0.46303 0.0
N143 N 0.62854 0.44082 0.46808 0.0
C144 C 0.63116 0.45513 0.51918 0.0
C145 C 0.64262 0.44397 0.49527 0.0
C146 C 0.60539 0.46365 0.5149 0.0
C147 C 0.59255 0.46166 0.48625 0.0
H148 H 0.59411 0.44765 0.44107 0.0
H149 H 0.66184 0.43664 0.49866 0.0
C150 C 0.62049 0.30077 0.40683 0.0
N151 N 0.60504 0.31825 0.41671 0.0
C152 C 0.60659 0.26587 0.41356 0.0
C153 C 0.56042 0.26734 0.43928 0.0
C154 C 0.57537 0.30208 0.43246 0.0
C155 C 0.57645 0.24891 0.43051 0.0
H156 H 0.64437 0.31428 0.39475 0.0
H157 H 0.56388 0.31631 0.44098 0.0
C158 C 0.69277 0.48439 0.41882 0.0
N159 N 0.73976 0.54494 0.44597 0.0
C160 C 0.69908 0.51586 0.40741 0.0
C161 C 0.71037 0.48368 0.44402 0.0
C162 C 0.72294 0.54621 0.42146 0.0
C163 C 0.73401 0.51458 0.45743 0.0
C164 C 0.65515 0.38032 0.34624 0.0
C165 C 0.68094 0.40398 0.32764 0.0
C166 C 0.62804 0.35028 0.33435 0.0
C167 C 0.67867 0.39763 0.29727 0.0
C168 C 0.62671 0.34483 0.30387 0.0
N169 N 0.6518 0.36846 0.28611 0.0
C170 C 0.75099 0.42565 0.41561 0.0
C171 C 0.75011 0.46704 0.38387 0.0
C172 C 0.78627 0.43964 0.41081 0.0
N173 N 0.73374 0.43943 0.40203 0.0
C174 C 0.78519 0.48178 0.37848 0.0
C175 C 0.80381 0.46812 0.39201 0.0
H176 H 0.7373 0.40353 0.4298 0.0
H177 H 0.7357 0.47725 0.37307 0.0
C178 C 0.58831 0.42118 0.34182 0.0
N179 N 0.62163 0.43109 0.34776 0.0
C180 C 0.58004 0.43526 0.31787 0.0
C181 C 0.64052 0.47023 0.30713 0.0
C182 C 0.64761 0.45548 0.33124 0.0
C183 C 0.60635 0.46005 0.30015 0.0
H184 H 0.56813 0.40305 0.35598 0.0
H185 H 0.67393 0.46385 0.33709 0.0
O186 O 0.66294 0.39395 0.44334 0.0
O187 O 0.59933 0.38988 0.41156 0.0
O188 O 0.66955 0.45454 0.40518 0.0
O189 O 0.65684 0.38617 0.37601 0.0
H190 H 0.60234 0.36974 0.46937 0.0
H191 H 0.70073 0.37608 0.47509 0.0
H192 H 0.58485 0.33545 0.51549 0.0
H193 H 0.68154 0.34168 0.52123 0.0
H194 H 0.50741 0.30398 0.36387 0.0
H195 H 0.55168 0.3806 0.45057 0.0
H196 H 0.56957 0.34662 0.36707 0.0
H197 H 0.48978 0.33766 0.44581 0.0
H198 H 0.64125 0.45552 0.54098 0.0
H199 H 0.57275 0.46806 0.48201 0.0
H200 H 0.62025 0.25288 0.40691 0.0
H201 H 0.53718 0.25533 0.4524 0.0
H202 H 0.6857 0.5168 0.38788 0.0
H203 H 0.70593 0.45959 0.45311 0.0
H204 H 0.7281 0.57077 0.41287 0.0
H205 H 0.74781 0.51441 0.47694 0.0
H206 H 0.70235 0.42711 0.33652 0.0
H207 H 0.60841 0.33122 0.34852 0.0
H208 H 0.69829 0.41588 0.28258 0.0
H209 H 0.60579 0.32176 0.29435 0.0
H210 H 0.79963 0.42817 0.42147 0.0
H211 H 0.79736 0.50299 0.36309 0.0
H212 H 0.55343 0.42738 0.31363 0.0
H213 H 0.66156 0.48934 0.29401 0.0
Li214 Li 0.25141 0.6346 0.60119 0.0
Li215 Li 0.29508 0.6302 0.5756 0.0
Li216 Li 0.29267 0.68271 0.57231 0.0
Li217 Li 0.24907 0.62885 0.5458 0.0
C218 C 0.30047 0.66457 0.63781 0.0
N219 N 0.29525 0.66635 0.69856 0.0
C220 C 0.30198 0.63981 0.65536 0.0
C221 C 0.29641 0.69029 0.65119 0.0
C222 C 0.2993 0.64115 0.68603 0.0
C223 C 0.29378 0.69073 0.68192 0.0
C224 C 0.24402 0.56465 0.57282 0.0
C225 C 0.2311 0.51502 0.54319 0.0
N226 N 0.24158 0.50246 0.56572 0.0
C227 C 0.25451 0.55113 0.59573 0.0
C228 C 0.23213 0.5464 0.54635 0.0
C229 C 0.25316 0.51971 0.59168 0.0
C230 C 0.20139 0.63391 0.64096 0.0
N231 N 0.22099 0.6196 0.63443 0.0
C232 C 0.19416 0.57816 0.67282 0.0
C233 C 0.21779 0.59229 0.64987 0.0
C234 C 0.17309 0.59188 0.67974 0.0
C235 C 0.17726 0.62051 0.66385 0.0
H236 H 0.20395 0.65525 0.62808 0.0
H237 H 0.23345 0.58128 0.64426 0.0
C238 C 0.35207 0.62805 0.59849 0.0
N239 N 0.3272 0.61354 0.57753 0.0
C240 C 0.37422 0.61539 0.60369 0.0
C241 C 0.34664 0.57461 0.56414 0.0
C242 C 0.32501 0.58816 0.55965 0.0
C243 C 0.37103 0.58766 0.58697 0.0
H244 H 0.35421 0.64899 0.61175 0.0
H245 H 0.30582 0.5777 0.54243 0.0
C246 C 0.23628 0.68753 0.56572 0.0
N247 N 0.22764 0.74289 0.55353 0.0
C248 C 0.22533 0.69114 0.53773 0.0
C249 C 0.24256 0.71196 0.58757 0.0
C250 C 0.22115 0.71932 0.53199 0.0
C251 C 0.23815 0.7398 0.58095 0.0
C252 C 0.32845 0.66109 0.52709 0.0
C253 C 0.36026 0.68673 0.53762 0.0
C254 C 0.32704 0.63871 0.50502 0.0
C255 C 0.39023 0.68954 0.52586 0.0
C256 C 0.35759 0.64237 0.49382 0.0
N257 N 0.38829 0.66748 0.50439 0.0
C258 C 0.34287 0.7522 0.58774 0.0
C259 C 0.31437 0.74467 0.54197 0.0
C260 C 0.36278 0.78763 0.58284 0.0
N261 N 0.31907 0.7316 0.56746 0.0
C262 C 0.33318 0.77987 0.53646 0.0
C263 C 0.35775 0.8018 0.55702 0.0
H264 H 0.34693 0.74107 0.6074 0.0
H265 H 0.29631 0.72763 0.52567 0.0
C266 C 0.1843 0.59675 0.51943 0.0
N267 N 0.21836 0.61139 0.51336 0.0
C268 C 0.16034 0.58589 0.49648 0.0
C269 C 0.20694 0.60433 0.46156 0.0
C270 C 0.23003 0.61526 0.48516 0.0
C271 C 0.17166 0.58975 0.46714 0.0
H272 H 0.17589 0.59439 0.54213 0.0
H273 H 0.25727 0.62765 0.48096 0.0
O274 O 0.30232 0.66328 0.60769 0.0
O275 O 0.245 0.59535 0.5763 0.0
O276 O 0.24112 0.66043 0.57162 0.0
O277 O 0.29886 0.65746 0.53886 0.0
H278 H 0.30462 0.61941 0.64543 0.0
H279 H 0.29511 0.70961 0.638 0.0
H280 H 0.30023 0.62204 0.69985 0.0
H281 H 0.2905 0.71042 0.69254 0.0
H282 H 0.22203 0.50069 0.5228 0.0
H283 H 0.26456 0.56515 0.6161 0.0
H284 H 0.22385 0.55633 0.52838 0.0
H285 H 0.26158 0.50918 0.6091 0.0
H286 H 0.19248 0.55673 0.6851 0.0
H287 H 0.1616 0.63191 0.66869 0.0
H288 H 0.39275 0.62633 0.62146 0.0
H289 H 0.34389 0.55377 0.55028 0.0
H290 H 0.2205 0.67267 0.52046 0.0
H291 H 0.25109 0.70965 0.60932 0.0
H292 H 0.21287 0.72252 0.51038 0.0
H293 H 0.24315 0.759 0.5976 0.0
H294 H 0.3618 0.70402 0.55493 0.0
H295 H 0.30263 0.61834 0.49699 0.0
H296 H 0.41503 0.70917 0.53387 0.0
H297 H 0.3569 0.62511 0.47685 0.0
H298 H 0.38197 0.80375 0.59891 0.0
H299 H 0.32931 0.78976 0.51588 0.0
H300 H 0.13336 0.57503 0.50155 0.0
H301 H 0.21665 0.60845 0.43915 0.0
Li302 Li 0.6871 0.28614 0.74249 0.0
Li303 Li 0.63619 0.2432 0.76966 0.0
Li304 Li 0.63836 0.24072 0.71454 0.0
Li305 Li 0.63013 0.28497 0.73896 0.0
C306 C 0.6932 0.22782 0.74018 0.0
N307 N 0.74525 0.2131 0.73185 0.0
C308 C 0.70251 0.21319 0.76301 0.0
C309 C 0.71005 0.23449 0.71301 0.0
C310 C 0.72898 0.20607 0.75841 0.0
C311 C 0.73636 0.22698 0.70925 0.0
C312 C 0.66159 0.30159 0.80336 0.0
C313 C 0.63601 0.31114 0.8465 0.0
N314 N 0.66348 0.31623 0.8629 0.0
C315 C 0.68979 0.30745 0.82057 0.0
C316 C 0.63467 0.3039 0.81635 0.0
C317 C 0.69018 0.31459 0.85065 0.0
C318 C 0.75279 0.34432 0.72917 0.0
N319 N 0.73593 0.3149 0.74524 0.0
C320 C 0.78799 0.32725 0.76959 0.0
C321 C 0.75285 0.30602 0.76501 0.0
C322 C 0.80604 0.35816 0.75384 0.0
C323 C 0.78811 0.36635 0.733 0.0
H324 H 0.7387 0.35106 0.71384 0.0
H325 H 0.73882 0.283 0.77806 0.0
C326 C 0.5895 0.18874 0.80715 0.0
N327 N 0.62241 0.21485 0.80395 0.0
C328 C 0.58051 0.16595 0.83088 0.0
C329 C 0.63958 0.19685 0.84713 0.0
C330 C 0.64733 0.2192 0.82333 0.0
C331 C 0.60585 0.16978 0.85103 0.0
H332 H 0.57039 0.18491 0.79085 0.0
H333 H 0.67349 0.23937 0.81974 0.0
C334 C 0.66981 0.29719 0.67741 0.0
N335 N 0.68222 0.3091 0.61752 0.0
C336 C 0.64659 0.30074 0.65938 0.0
C337 C 0.69974 0.30047 0.66504 0.0
C338 C 0.65318 0.30651 0.62914 0.0
C339 C 0.70545 0.30628 0.63471 0.0
C340 C 0.56666 0.22683 0.74372 0.0
C341 C 0.54294 0.21126 0.72082 0.0
C342 C 0.55629 0.23501 0.77009 0.0
C343 C 0.50942 0.20478 0.7245 0.0
C344 C 0.52255 0.22811 0.77294 0.0
N345 N 0.50001 0.21331 0.75026 0.0
C346 C 0.63018 0.183 0.68146 0.0
C347 C 0.60306 0.21204 0.66153 0.0
C348 C 0.61678 0.15854 0.65887 0.0
N349 N 0.62344 0.2093 0.68219 0.0
C350 C 0.58876 0.18794 0.63886 0.0
C351 C 0.59558 0.16081 0.63741 0.0
H352 H 0.64521 0.18043 0.69877 0.0
H353 H 0.59707 0.23239 0.66315 0.0
C354 C 0.62072 0.34229 0.75021 0.0
N355 N 0.6089 0.31257 0.73468 0.0
C356 C 0.60651 0.36338 0.74574 0.0
C357 C 0.56836 0.32297 0.70939 0.0
C358 C 0.58316 0.30267 0.71463 0.0
C359 C 0.58 0.35385 0.725 0.0
H360 H 0.64167 0.35 0.76562 0.0
H361 H 0.57481 0.27949 0.70194 0.0
O362 O 0.66773 0.23555 0.74446 0.0
O363 O 0.66078 0.29454 0.77383 0.0
O364 O 0.66379 0.29161 0.70712 0.0
O365 O 0.59981 0.234 0.7403 0.0
H366 H 0.68956 0.20749 0.78409 0.0
H367 H 0.70254 0.24488 0.6949 0.0
H368 H 0.73658 0.19494 0.77594 0.0
H369 H 0.74963 0.23207 0.68831 0.0
H370 H 0.61528 0.31286 0.85683 0.0
H371 H 0.71105 0.30622 0.8109 0.0
H372 H 0.61312 0.30052 0.80329 0.0
H373 H 0.71173 0.31887 0.86426 0.0
H374 H 0.80063 0.32019 0.78623 0.0
H375 H 0.80111 0.38977 0.72017 0.0
H376 H 0.55432 0.14505 0.83301 0.0
H377 H 0.65979 0.20055 0.86228 0.0
H378 H 0.62356 0.29879 0.66856 0.0
H379 H 0.7186 0.29892 0.67869 0.0
H380 H 0.63523 0.30898 0.61492 0.0
H381 H 0.72845 0.30872 0.62486 0.0
H382 H 0.55033 0.20439 0.70037 0.0
H383 H 0.57403 0.24621 0.78826 0.0
H384 H 0.49088 0.19296 0.70688 0.0
H385 H 0.51425 0.23442 0.79323 0.0
H386 H 0.62221 0.13768 0.65854 0.0
H387 H 0.57248 0.19044 0.6226 0.0
H388 H 0.61651 0.38715 0.75801 0.0
H389 H 0.54892 0.31517 0.6924 0.0
Li390 Li 0.41728 0.63737 0.93499 0.0
Li391 Li 0.42368 0.6867 0.9084 0.0
Li392 Li 0.36663 0.62939 0.90829 0.0
Li393 Li 0.41868 0.63662 0.88306 0.0
C394 C 0.37795 0.65933 0.9692 0.0
N395 N 0.35094 0.65472 0.02498 0.0
C396 C 0.39387 0.68696 0.98887 0.0
C397 C 0.34805 0.62956 0.97784 0.0
C398 C 0.3799 0.68406 0.01699 0.0
C399 C 0.33485 0.62767 0.00614 0.0
C400 C 0.48424 0.69161 0.92512 0.0
C401 C 0.54559 0.72653 0.93102 0.0
N402 N 0.5408 0.73771 0.95754 0.0
C403 C 0.47998 0.70342 0.95244 0.0
C404 C 0.51733 0.70322 0.91432 0.0
C405 C 0.50884 0.7267 0.9685 0.0
C406 C 0.46057 0.61809 0.96197 0.0
N407 N 0.43417 0.62357 0.96834 0.0
C408 C 0.43646 0.61068 0.01923 0.0
C409 C 0.42169 0.61962 0.9963 0.0
C410 C 0.46428 0.60571 0.01336 0.0
C411 C 0.47596 0.60894 0.98418 0.0
H412 H 0.46984 0.62104 0.93952 0.0
H413 H 0.40061 0.62367 0.00108 0.0
C414 C 0.4255 0.74734 0.92529 0.0
N415 N 0.44294 0.73535 0.90952 0.0
C416 C 0.43997 0.78245 0.93057 0.0
C417 C 0.4893 0.7926 0.90172 0.0
C418 C 0.47397 0.75713 0.89723 0.0
C419 C 0.47268 0.80561 0.91932 0.0
H420 H 0.40079 0.72947 0.93467 0.0
H421 H 0.48728 0.74692 0.88469 0.0
C422 C 0.38741 0.57207 0.92149 0.0
N423 N 0.39183 0.51971 0.94918 0.0
C424 C 0.40969 0.56148 0.91068 0.0
C425 C 0.36728 0.55591 0.94633 0.0
C426 C 0.41155 0.53497 0.92498 0.0
C427 C 0.36994 0.52955 0.96005 0.0
C428 C 0.39436 0.66272 0.84488 0.0
C429 C 0.36647 0.63894 0.82808 0.0
C430 C 0.4243 0.68722 0.83078 0.0
C431 C 0.3691 0.63999 0.79729 0.0
C432 C 0.42593 0.68738 0.79995 0.0
N433 N 0.39853 0.66396 0.78399 0.0
C434 C 0.30621 0.62796 0.89066 0.0
C435 C 0.29621 0.57617 0.913 0.0
C436 C 0.27134 0.61349 0.88415 0.0
N437 N 0.31799 0.60907 0.90442 0.0
C438 C 0.26099 0.5609 0.9075 0.0
C439 C 0.24821 0.57927 0.89212 0.0
H440 H 0.32415 0.65394 0.88378 0.0
H441 H 0.3062 0.56153 0.92365 0.0
C442 C 0.46576 0.63504 0.84172 0.0
N443 N 0.43225 0.62066 0.8497 0.0
C444 C 0.47524 0.62108 0.81844 0.0
C445 C 0.41547 0.57828 0.81186 0.0
C446 C 0.40721 0.59288 0.83531 0.0
C447 C 0.44993 0.59202 0.80345 0.0
H448 H 0.48512 0.65705 0.85366 0.0
H449 H 0.3808 0.5819 0.8423 0.0
O450 O 0.39097 0.66182 0.94138 0.0
O451 O 0.45633 0.66901 0.9088 0.0
O452 O 0.38582 0.59854 0.90818 0.0
O453 O 0.39264 0.66161 0.87503 0.0
H454 H 0.41674 0.71046 0.98254 0.0
H455 H 0.33535 0.60801 0.96301 0.0
H456 H 0.39204 0.70518 0.03245 0.0
H457 H 0.31185 0.60468 0.01313 0.0
H458 H 0.57134 0.73576 0.92289 0.0
H459 H 0.45469 0.6946 0.96122 0.0
H460 H 0.52119 0.69441 0.8932 0.0
H461 H 0.50583 0.73601 0.98969 0.0
H462 H 0.42679 0.60861 0.04149 0.0
H463 H 0.49691 0.60469 0.97862 0.0
H464 H 0.42627 0.7912 0.94442 0.0
H465 H 0.51418 0.80953 0.89205 0.0
H466 H 0.42574 0.57386 0.89169 0.0
H467 H 0.35023 0.564 0.95528 0.0
H468 H 0.4288 0.52664 0.91692 0.0
H469 H 0.35471 0.51701 0.97941 0.0
H470 H 0.3432 0.61967 0.8387 0.0
H471 H 0.44616 0.70564 0.84354 0.0
H472 H 0.34779 0.62166 0.78398 0.0
H473 H 0.44901 0.70607 0.78872 0.0
H474 H 0.26283 0.62857 0.87199 0.0
H475 H 0.24411 0.53479 0.91476 0.0
H476 H 0.50205 0.63257 0.81248 0.0
H477 H 0.39503 0.5566 0.80031 0.0
Li478 Li 0.76213 0.42293 0.07408 0.0
Li479 Li 0.80608 0.41784 0.1002 0.0
Li480 Li 0.80659 0.41809 0.04743 0.0
Li481 Li 0.7623 0.36598 0.07466 0.0
C482 C 0.81681 0.48674 0.08117 0.0
N483 N 0.82457 0.54971 0.09643 0.0
C484 C 0.81386 0.4941 0.11066 0.0
C485 C 0.82391 0.51152 0.05946 0.0
C486 C 0.81784 0.52605 0.11793 0.0
C487 C 0.82766 0.54316 0.06761 0.0
C488 C 0.7493 0.38608 0.1373 0.0
C489 C 0.7354 0.3501 0.18048 0.0
N490 N 0.73573 0.37543 0.19711 0.0
C491 C 0.74913 0.41161 0.15477 0.0
C492 C 0.7421 0.35495 0.15019 0.0
C493 C 0.74238 0.40579 0.18498 0.0
C494 C 0.70535 0.42567 0.09518 0.0
N495 N 0.73155 0.44104 0.0755 0.0
C496 C 0.71455 0.48218 0.06326 0.0
C497 C 0.73594 0.46826 0.05902 0.0
C498 C 0.68804 0.46746 0.08422 0.0
C499 C 0.6834 0.43861 0.10005 0.0
H500 H 0.70191 0.40371 0.10764 0.0
H501 H 0.75635 0.47959 0.04295 0.0
C502 C 0.83188 0.41769 0.159 0.0
N503 N 0.83793 0.43448 0.13278 0.0
C504 C 0.85544 0.43186 0.18212 0.0
C505 C 0.89247 0.47901 0.1502 0.0
C506 C 0.86793 0.46417 0.12784 0.0
C507 C 0.88594 0.4633 0.17808 0.0
H508 H 0.80885 0.39336 0.16217 0.0
H509 H 0.87276 0.47645 0.10646 0.0
C510 C 0.75379 0.39163 0.01082 0.0
N511 N 0.75247 0.39325 0.94986 0.0
C512 C 0.74385 0.3617 0.99455 0.0
C513 C 0.76289 0.42234 0.99615 0.0
C514 C 0.74336 0.36306 0.96372 0.0
C515 C 0.76214 0.42264 0.96529 0.0
C516 C 0.83517 0.38109 0.08893 0.0
C517 C 0.87034 0.40303 0.0848 0.0
C518 C 0.82364 0.35472 0.10977 0.0
C519 C 0.89353 0.3984 0.10192 0.0
C520 C 0.84765 0.35092 0.12643 0.0
N521 N 0.88179 0.37268 0.12221 0.0
C522 C 0.86007 0.46393 0.00873 0.0
C523 C 0.83451 0.40465 -0.00243 0.0
C524 C 0.8833 0.47225 0.98542 0.0
N525 N 0.83622 0.4306 0.01417 0.0
C526 C 0.8572 0.41177 0.97414 0.0
C527 C 0.88223 0.44592 0.96803 0.0
H528 H 0.86155 0.48396 0.02283 0.0
H529 H 0.81572 0.37834 0.0028 0.0
C530 C 0.70368 0.29964 0.08547 0.0
N531 N 0.73517 0.31725 0.07267 0.0
C532 C 0.68348 0.26408 0.08162 0.0
C533 C 0.72841 0.26567 0.05134 0.0
C534 C 0.74788 0.30102 0.05611 0.0
C535 C 0.69564 0.24662 0.06409 0.0
H536 H 0.69398 0.3133 0.09818 0.0
H537 H 0.77276 0.31581 0.04575 0.0
O538 O 0.81263 0.45546 0.07349 0.0
O539 O 0.75544 0.39109 0.10759 0.0
O540 O 0.75506 0.391 0.04096 0.0
O541 O 0.8121 0.38586 0.07308 0.0
H542 H 0.80866 0.47542 0.12778 0.0
H543 H 0.82582 0.50616 0.03647 0.0
H544 H 0.81558 0.53205 0.14067 0.0
H545 H 0.83289 0.56244 0.051 0.0
H546 H 0.73005 0.32624 0.19078 0.0
H547 H 0.75387 0.43555 0.1451 0.0
H548 H 0.74221 0.33494 0.13707 0.0
H549 H 0.74229 0.42537 0.19877 0.0
H550 H 0.71893 0.50441 0.05057 0.0
H551 H 0.66378 0.42686 0.11688 0.0
H552 H 0.84939 0.41868 0.20318 0.0
H553 H 0.91614 0.50264 0.14575 0.0
H554 H 0.73675 0.33774 0.00562 0.0
H555 H 0.77092 0.44576 0.00846 0.0
H556 H 0.7358 0.34012 0.95082 0.0
H557 H 0.76932 0.44627 0.95362 0.0
H558 H 0.87958 0.42363 0.06878 0.0
H559 H 0.79646 0.33761 0.11324 0.0
H560 H 0.92084 0.41532 0.09913 0.0
H561 H 0.83913 0.33075 0.14277 0.0
H562 H 0.90228 0.49887 0.98136 0.0
H563 H 0.85509 0.39079 0.96085 0.0
H564 H 0.65831 0.2505 0.0917 0.0
H565 H 0.7384 0.25373 0.03673 0.0
Li566 Li 0.41627 0.80258 0.26749 0.0
Li567 Li 0.36483 0.75889 0.24139 0.0
Li568 Li 0.4215 0.75912 0.23798 0.0
Li569 Li 0.41287 0.80232 0.21218 0.0
C570 C 0.39166 0.74346 0.30222 0.0
N571 N 0.39138 0.72653 0.361 0.0
C572 C 0.3641 0.73725 0.32046 0.0
C573 C 0.4187 0.74025 0.31378 0.0
C574 C 0.36454 0.72898 0.35015 0.0
C575 C 0.41819 0.73188 0.34356 0.0
C576 C 0.35841 0.8165 0.23953 0.0
C577 C 0.31153 0.81465 0.2122 0.0
N578 N 0.30449 0.82913 0.23555 0.0
C579 C 0.35095 0.83171 0.26314 0.0
C580 C 0.33875 0.8082 0.21376 0.0
C581 C 0.3235 0.83776 0.26074 0.0
C582 C 0.46317 0.85962 0.30297 0.0
N583 N 0.43086 0.83201 0.30122 0.0
C584 C 0.41475 0.84898 0.3456 0.0
C585 C 0.40679 0.82637 0.32196 0.0
C586 C 0.44782 0.87763 0.3479 0.0
C587 C 0.47243 0.88264 0.32657 0.0
H588 H 0.48153 0.86441 0.28566 0.0
H589 H 0.38099 0.80503 0.31953 0.0
C590 C 0.29763 0.70261 0.22801 0.0
N591 N 0.31592 0.73096 0.24512 0.0
C592 C 0.26227 0.68138 0.23242 0.0
C593 C 0.26526 0.71913 0.27167 0.0
C594 C 0.30038 0.73961 0.26644 0.0
C595 C 0.24576 0.68924 0.25489 0.0
H596 H 0.31059 0.69607 0.21135 0.0
H597 H 0.31546 0.76192 0.28008 0.0
C598 C 0.48527 0.81912 0.24352 0.0
N599 N 0.55246 0.83665 0.25471 0.0
C600 C 0.51049 0.83586 0.22194 0.0
C601 C 0.49439 0.81183 0.27094 0.0
C602 C 0.54427 0.84436 0.22797 0.0
C603 C 0.52843 0.82077 0.27615 0.0
C604 C 0.38259 0.74608 0.17646 0.0
C605 C 0.40624 0.74189 0.15963 0.0
C606 C 0.354 0.74433 0.16265 0.0
C607 C 0.40139 0.73693 0.12915 0.0
C608 C 0.35002 0.7393 0.13212 0.0
N609 N 0.37363 0.7358 0.11612 0.0
C610 C 0.43113 0.70158 0.24896 0.0
C611 C 0.47053 0.74361 0.21586 0.0
C612 C 0.44673 0.68165 0.245 0.0
N613 N 0.44329 0.73199 0.23447 0.0
C614 C 0.48679 0.72458 0.21123 0.0
C615 C 0.47499 0.69314 0.22589 0.0
H616 H 0.40901 0.69254 0.26322 0.0
H617 H 0.47902 0.76721 0.20381 0.0
C618 C 0.41831 0.85581 0.17427 0.0
N619 N 0.42754 0.83158 0.17845 0.0
C620 C 0.43195 0.87889 0.15068 0.0
C621 C 0.46472 0.85203 0.13657 0.0
C622 C 0.45026 0.82935 0.16018 0.0
C623 C 0.45569 0.87725 0.13169 0.0
H624 H 0.40112 0.85789 0.18963 0.0
H625 H 0.45787 0.8105 0.16444 0.0
O626 O 0.39155 0.75144 0.27301 0.0
O627 O 0.3848 0.80977 0.24169 0.0
O628 O 0.45189 0.80997 0.23778 0.0
O629 O 0.38702 0.75109 0.20636 0.0
H630 H 0.34268 0.73902 0.3119 0.0
H631 H 0.43972 0.74378 0.29989 0.0
H632 H 0.34351 0.72445 0.36454 0.0
H633 H 0.43905 0.72947 0.35278 0.0
H634 H 0.29605 0.80823 0.1924 0.0
H635 H 0.36609 0.83872 0.28312 0.0
H636 H 0.34463 0.79715 0.1951 0.0
H637 H 0.31734 0.84933 0.27891 0.0
H638 H 0.39517 0.84436 0.36178 0.0
H639 H 0.49811 0.90467 0.32766 0.0
H640 H 0.24815 0.65883 0.21871 0.0
H641 H 0.25376 0.72594 0.28949 0.0
H642 H 0.50408 0.84211 0.20071 0.0
H643 H 0.47548 0.79992 0.28816 0.0
H644 H 0.56398 0.8571 0.21139 0.0
H645 H 0.53578 0.8152 0.29729 0.0
H646 H 0.42827 0.74272 0.16992 0.0
H647 H 0.33487 0.74647 0.17535 0.0
H648 H 0.41968 0.73396 0.11585 0.0
H649 H 0.32807 0.73804 0.12116 0.0
H650 H 0.43654 0.65733 0.25641 0.0
H651 H 0.50756 0.73381 0.19539 0.0
H652 H 0.42476 0.89834 0.14779 0.0
H653 H 0.48292 0.84997 0.12231 0.0
C654 C 0.15513 0.65827 0.2823 0.0
C655 C 0.14348 0.62379 0.28959 0.0
C656 C 0.18738 0.67876 0.26917 0.0
C657 C 0.20914 0.66551 0.26277 0.0
H658 H 0.1404 0.67023 0.28877 0.0
H659 H 0.19609 0.70566 0.26536 0.0
S660 S 0.18841 0.57545 0.27413 0.0
N661 N 0.1543 0.57621 0.28641 0.0
N662 N 0.21517 0.61475 0.26241 0.0
C663 C 0.19656 0.63034 0.26785 0.0
C664 C 0.16369 0.60951 0.2811 0.0
C665 C 0.54517 0.17577 0.48535 0.0
C666 C 0.54205 0.14809 0.46848 0.0
C667 C 0.55597 0.20784 0.47268 0.0
C668 C 0.56393 0.21377 0.44244 0.0
H669 H 0.53954 0.17271 0.5088 0.0
H670 H 0.55879 0.22842 0.48695 0.0
S671 S 0.55824 0.14932 0.38813 0.0
N672 N 0.5467 0.12818 0.41978 0.0
N673 N 0.56663 0.18874 0.39556 0.0
C674 C 0.56025 0.18614 0.42504 0.0
C675 C 0.54917 0.15321 0.4381 0.0
C676 C 0.44532 0.57823 0.61479 0.0
C677 C 0.42933 0.54326 0.62239 0.0
C678 C 0.42683 0.59201 0.60135 0.0
C679 C 0.3916 0.57136 0.59512 0.0
H680 H 0.47184 0.59544 0.62088 0.0
H681 H 0.43981 0.61937 0.59714 0.0
S682 S 0.3383 0.47779 0.60914 0.0
N683 N 0.37685 0.48789 0.62119 0.0
N684 N 0.34195 0.51373 0.59612 0.0
C685 C 0.37586 0.53592 0.60089 0.0
C686 C 0.39477 0.52188 0.61449 0.0
C687 C 0.89803 0.39064 0.77787 0.0
C688 C 0.90867 0.42425 0.78738 0.0
C689 C 0.86559 0.37011 0.76508 0.0
C690 C 0.84264 0.38246 0.76124 0.0
H691 H 0.91376 0.37921 0.78237 0.0
H692 H 0.85771 0.34375 0.75956 0.0
S693 S 0.86032 0.47038 0.77888 0.0
N694 N 0.89553 0.47035 0.78897 0.0
N695 N 0.83432 0.43167 0.76551 0.0
C696 C 0.85413 0.41695 0.76849 0.0
C697 C 0.88718 0.43785 0.78143 0.0
C698 C 0.48412 0.89193 0.94238 0.0
C699 C 0.5171 0.90862 0.95494 0.0
C700 C 0.47083 0.85963 0.92896 0.0
C701 C 0.48983 0.84253 0.92802 0.0
H702 H 0.4678 0.90312 0.94439 0.0
H703 H 0.44483 0.84722 0.92051 0.0
S704 S 0.57812 0.8762 0.95709 0.0
N705 N 0.56914 0.90677 0.96441 0.0
N706 N 0.54405 0.84571 0.93996 0.0
C707 C 0.5236 0.85989 0.93916 0.0
C708 C 0.53724 0.89299 0.95248 0.0
C709 C 0.6653 0.53304 0.11209 0.0
C710 C 0.63028 0.51254 0.11896 0.0
C711 C 0.68343 0.51877 0.09868 0.0
C712 C 0.6671 0.48355 0.09175 0.0
H713 H 0.67938 0.55957 0.11924 0.0
H714 H 0.71089 0.53489 0.09577 0.0
S715 S 0.57432 0.42066 0.10018 0.0
N716 N 0.57899 0.4566 0.11428 0.0
N717 N 0.6128 0.42986 0.08866 0.0
C718 C 0.63143 0.46363 0.09604 0.0
C719 C 0.61308 0.47811 0.10974 0.0
C720 C 0.43567 0.88595 0.53491 0.0
C721 C 0.42107 0.90553 0.52526 0.0
C722 C 0.41531 0.85325 0.54735 0.0
C723 C 0.37959 0.83881 0.55004 0.0
H724 H 0.46268 0.89518 0.53123 0.0
H725 H 0.42723 0.83825 0.55301 0.0
S726 S 0.32939 0.88076 0.53067 0.0
N727 N 0.36921 0.90918 0.52141 0.0
N728 N 0.33094 0.84763 0.54453 0.0
C729 C 0.36505 0.85896 0.54218 0.0
C730 C 0.38581 0.89238 0.52989 0.0
C731 C 0.57882 0.4334 0.69896 0.0
C732 C 0.54401 0.42071 0.69201 0.0
C733 C 0.58999 0.41215 0.7114 0.0
C734 C 0.56678 0.37732 0.71738 0.0
H735 H 0.59786 0.45951 0.69323 0.0
H736 H 0.61727 0.42259 0.71463 0.0
S737 S 0.47234 0.33268 0.7073 0.0
N738 N 0.48602 0.37183 0.69463 0.0
N739 N 0.50688 0.33227 0.7189 0.0
C740 C 0.53161 0.36503 0.71271 0.0
C741 C 0.52024 0.38663 0.69991 0.0
C742 C 0.16146 0.56817 0.87061 0.0
C743 C 0.14517 0.53604 0.85653 0.0
C744 C 0.19391 0.58106 0.88367 0.0
C745 C 0.21157 0.56261 0.88257 0.0
H746 H 0.1497 0.58407 0.87034 0.0
H747 H 0.20581 0.6063 0.89371 0.0
S748 S 0.17934 0.47695 0.84796 0.0
N749 N 0.14815 0.48556 0.84284 0.0
N750 N 0.20957 0.51005 0.86629 0.0
C751 C 0.19479 0.52979 0.8694 0.0
C752 C 0.16152 0.5165 0.85658 0.0
C753 C 0.61907 0.16528 0.03468 0.0
C754 C 0.63259 0.14347 0.02978 0.0
C755 C 0.6389 0.19774 0.04759 0.0
C756 C 0.67304 0.20966 0.05635 0.0
H757 H 0.59363 0.15807 0.02674 0.0
H758 H 0.62807 0.21441 0.04887 0.0
S759 S 0.71855 0.16015 0.05334 0.0
N760 N 0.68099 0.13463 0.0378 0.0
N761 N 0.71767 0.19496 0.06335 0.0
C762 C 0.68576 0.18684 0.05413 0.0
C763 C 0.66565 0.15388 0.04067 0.0
C764 C 0.48177 0.61753 0.19754 0.0
C765 C 0.51722 0.63204 0.19241 0.0
C766 C 0.46844 0.63671 0.21044 0.0
C767 C 0.49007 0.67118 0.21869 0.0
H768 H 0.46399 0.59182 0.18978 0.0
H769 H 0.44083 0.62517 0.21204 0.0
S770 S 0.58514 0.71945 0.21448 0.0
N771 N 0.57396 0.68178 0.19961 0.0
N772 N 0.54898 0.71745 0.22466 0.0
C773 C 0.52575 0.68498 0.21611 0.0
C774 C 0.53932 0.66548 0.20287 0.0
C775 C 0.88439 0.47192 0.3622 0.0
C776 C 0.90704 0.50741 0.35857 0.0
C777 C 0.85184 0.45941 0.37488 0.0
C778 C 0.84059 0.4819 0.38433 0.0
H779 H 0.89118 0.45363 0.35366 0.0
H780 H 0.83459 0.4319 0.37554 0.0
S781 S 0.89169 0.57707 0.38361 0.0
N782 N 0.917 0.56487 0.36804 0.0
N783 N 0.85623 0.54135 0.39257 0.0
C784 C 0.86395 0.51742 0.38294 0.0
C785 C 0.89709 0.53018 0.36998 0.0
C786 C 0.10851 0.5947 0.41501 0.0
C787 C 0.10961 0.57655 0.39011 0.0
C788 C 0.12701 0.59704 0.4407 0.0
C789 C 0.14736 0.5815 0.44226 0.0
H790 H 0.09532 0.60923 0.41393 0.0
H791 H 0.12715 0.61296 0.45871 0.0
S792 S 0.15388 0.526 0.38522 0.0
N793 N 0.12871 0.53877 0.37024 0.0
N794 N 0.16396 0.54373 0.41837 0.0
C795 C 0.14652 0.56112 0.41845 0.0
C796 C 0.12746 0.55844 0.39244 0.0
C797 C 0.53034 0.09924 0.58274 0.0
C798 C 0.55119 0.0977 0.56039 0.0
C799 C 0.54478 0.11798 0.60868 0.0
C800 C 0.58046 0.13535 0.61328 0.0
H801 H 0.50309 0.08859 0.57901 0.0
H802 H 0.52815 0.12055 0.62449 0.0
S803 S 0.64551 0.13518 0.56337 0.0
N804 N 0.60872 0.11197 0.54583 0.0
N805 N 0.63588 0.14681 0.59492 0.0
C806 C 0.60121 0.13138 0.59237 0.0
C807 C 0.58655 0.11258 0.56582 0.0
C808 C 0.48454 0.58408 0.72929 0.0
C809 C 0.46793 0.5483 0.72494 0.0
C810 C 0.48014 0.5981 0.75545 0.0
C811 C 0.45896 0.57685 0.77827 0.0
H812 H 0.49961 0.60139 0.71167 0.0
H813 H 0.49184 0.62574 0.75708 0.0
S814 S 0.41369 0.48165 0.77973 0.0
N815 N 0.43196 0.49199 0.74686 0.0
N816 N 0.42479 0.51839 0.79642 0.0
C817 C 0.44439 0.54111 0.77516 0.0
C818 C 0.44869 0.52682 0.74845 0.0
C819 C 0.9275 0.48141 0.89502 0.0
C820 C 0.9437 0.46209 0.88981 0.0
C821 C 0.90924 0.47749 0.92119 0.0
C822 C 0.90625 0.45383 0.94293 0.0
H823 H 0.92749 0.49839 0.87806 0.0
H824 H 0.89574 0.49161 0.92366 0.0
S825 S 0.94701 0.39988 0.94146 0.0
N826 N 0.95779 0.42047 0.90958 0.0
N827 N 0.92389 0.41348 0.95895 0.0
C828 C 0.92415 0.43601 0.93883 0.0
C829 C 0.94285 0.44011 0.91226 0.0
C830 C 0.52305 0.93933 0.07842 0.0
C831 C 0.50323 0.94096 0.05515 0.0
C832 C 0.50747 0.91992 0.1038 0.0
C833 C 0.47156 0.90175 0.10693 0.0
H834 H 0.55063 0.95117 0.07614 0.0
H835 H 0.52355 0.91799 0.12061 0.0
S836 S 0.40851 0.90081 0.05375 0.0
N837 N 0.44613 0.92525 0.03787 0.0
N838 N 0.41678 0.88882 0.08575 0.0
C839 C 0.45159 0.90509 0.08476 0.0
C840 C 0.46746 0.92466 0.0588 0.0
C841 C 0.61318 0.5262 0.2445 0.0
C842 C 0.59149 0.5058 0.22153 0.0
C843 C 0.61675 0.51125 0.27042 0.0
C844 C 0.59861 0.47542 0.27438 0.0
H845 H 0.62914 0.5537 0.24167 0.0
H846 H 0.63473 0.5278 0.28709 0.0
S847 S 0.53598 0.41107 0.22204 0.0
N848 N 0.54945 0.44831 0.20539 0.0
N849 N 0.55641 0.42012 0.254 0.0
C850 C 0.57526 0.45492 0.25236 0.0
C851 C 0.57167 0.47014 0.22596 0.0
C852 C 0.48474 0.9253 0.41963 0.0
C853 C 0.46469 0.94071 0.42484 0.0
C854 C 0.48072 0.90658 0.39366 0.0
C855 C 0.45607 0.90221 0.37244 0.0
H856 H 0.50238 0.92629 0.4364 0.0
H857 H 0.4955 0.89381 0.39098 0.0
S858 S 0.39912 0.93946 0.3745 0.0
N859 N 0.42101 0.95219 0.40571 0.0
N860 N 0.41331 0.91679 0.35708 0.0
C861 C 0.43723 0.91897 0.37665 0.0
C862 C 0.44161 0.93835 0.40281 0.0
C863 C 0.5377 0.45452 0.56973 0.0
C864 C 0.55739 0.47365 0.59407 0.0
C865 C 0.55345 0.45309 0.54349 0.0
C866 C 0.58944 0.47081 0.54064 0.0
H867 H 0.5101 0.43858 0.57169 0.0
H868 H 0.53734 0.43622 0.52604 0.0
S869 S 0.65197 0.5294 0.59622 0.0
N870 N 0.61429 0.514 0.61254 0.0
N871 N 0.64397 0.51185 0.563 0.0
C872 C 0.60921 0.4922 0.56401 0.0
C873 C 0.59316 0.49352 0.59076 0.0
C874 C 0.12923 0.58328 0.75323 0.0
C875 C 0.1095 0.54741 0.75693 0.0
C876 C 0.14803 0.59772 0.72728 0.0
C877 C 0.14786 0.57676 0.70417 0.0
H878 H 0.13174 0.60024 0.77124 0.0
H879 H 0.16451 0.62533 0.72611 0.0
S880 S 0.09661 0.48172 0.70096 0.0
N881 N 0.08842 0.4915 0.73396 0.0
N882 N 0.12294 0.51871 0.68496 0.0
C883 C 0.12606 0.54106 0.70658 0.0
C884 C 0.107 0.52635 0.73298 0.0
C885 C 0.61331 0.11062 0.9062 0.0
C886 C 0.59024 0.10764 0.92847 0.0
C887 C 0.61709 0.12953 0.88048 0.0
C888 C 0.59765 0.14573 0.87605 0.0
H889 H 0.63024 0.10032 0.90959 0.0
H890 H 0.63631 0.13264 0.86446 0.0
S891 S 0.53134 0.14266 0.92642 0.0
N892 N 0.54588 0.12009 0.94353 0.0
N893 N 0.55273 0.15539 0.89497 0.0
C894 C 0.57287 0.14097 0.89722 0.0
C895 C 0.56925 0.12199 0.92352 0.0
C896 C 0.47796 0.57167 0.08565 0.0
C897 C 0.51343 0.59267 0.09045 0.0
C898 C 0.46248 0.57471 0.05985 0.0
C899 C 0.48189 0.59898 0.038 0.0
H900 H 0.46184 0.55401 0.10267 0.0
H901 H 0.4349 0.55887 0.05752 0.0
S902 S 0.57591 0.65919 0.03963 0.0
N903 N 0.56775 0.63745 0.07082 0.0
N904 N 0.5387 0.64346 0.02241 0.0
C905 C 0.51766 0.61887 0.04185 0.0
C906 C 0.53342 0.61562 0.06808 0.0
C907 C 0.93465 0.47416 0.24956 0.0
C908 C 0.94623 0.50852 0.25713 0.0
C909 C 0.91696 0.46025 0.22304 0.0
C910 C 0.9097 0.48007 0.2034 0.0
H911 H 0.93788 0.45753 0.26491 0.0
H912 H 0.90771 0.4334 0.21846 0.0
S913 S 0.9352 0.57174 0.21327 0.0
N914 N 0.95054 0.56243 0.24276 0.0
N915 N 0.91644 0.53626 0.19332 0.0
C916 C 0.92253 0.51495 0.21025 0.0
C917 C 0.94096 0.52916 0.23706 0.0
loop_
_geom_bond_atom_site_label_1
_geom_bond_atom_site_label_2
_geom_bond_distance
_geom_bond_site_symmetry_2
_ccdc_geom_bond_type
H0 C8 0.930 . S
H1 C11 0.930 . S
H2 C13 0.930 . S
H3 C14 0.970 . S
H4 C14 0.970 . S
H5 C16 0.930 . S
H6 C18 0.930 . S
H7 C20 0.930 . S
C8 H0 0.930 . S
C8 C9 1.382 . S
C8 C10 1.426 . S
C9 C8 1.382 . S
C9 C13 1.389 . S
C10 C8 1.426 . S
C10 C11 1.375 . S
C10 C14 1.532 1_655 S
C11 H1 0.930 . S
C11 C10 1.375 . S
C11 C12 1.416 . S
C12 C11 1.416 . S
C12 C13 1.371 . S
C13 H2 0.930 . S
C13 C9 1.389 . S
C13 C12 1.371 . S
C14 H3 0.970 . S
C14 H4 0.970 . S
C14 C10 1.532 1_455 S
C14 C15 1.499 . S
C15 C14 1.499 . S
C15 C16 1.370 . S
C15 C20 1.415 . S
C16 H5 0.930 . S
C16 C15 1.370 . S
C16 C17 1.407 . S
C17 C16 1.407 . S
C17 C18 1.365 . S
C18 H6 0.930 . S
C18 C17 1.365 . S
C18 C19 1.393 . S
C19 C18 1.393 . S
C19 C20 1.387 . S
C20 H7 0.930 . S
C20 C15 1.415 . S
C20 C19 1.387 . S
H21 C29 0.930 . S
H22 C32 0.930 . S
H23 C34 0.930 . S
H24 C35 0.970 . S
H25 C35 0.970 . S
H26 C37 0.930 . S
H27 C39 0.930 . S
H28 C41 0.930 . S
C29 H21 0.930 . S
C29 C30 1.382 . S
C29 C31 1.426 . S
C30 C29 1.382 . S
C30 C34 1.389 . S
C31 C29 1.426 . S
C31 C32 1.375 . S
C31 C35 1.532 1_565 S
C32 H22 0.930 . S
C32 C31 1.375 . S
C32 C33 1.416 . S
C33 C32 1.416 . S
C33 C34 1.371 . S
C34 H23 0.930 . S
C34 C30 1.389 . S
C34 C33 1.371 . S
C35 H24 0.970 . S
C35 H25 0.970 . S
C35 C31 1.532 1_545 S
C35 C36 1.499 . S
C36 C35 1.499 . S
C36 C37 1.370 . S
C36 C41 1.415 . S
C37 H26 0.930 . S
C37 C36 1.370 . S
C37 C38 1.407 . S
C38 C37 1.407 . S
C38 C39 1.365 . S
C39 H27 0.930 . S
C39 C38 1.365 . S
C39 C40 1.393 . S
C40 C39 1.393 . S
C40 C41 1.387 . S
C41 H28 0.930 . S
C41 C36 1.415 . S
C41 C40 1.387 . S
H42 C50 0.930 . S
H43 C53 0.930 . S
H44 C55 0.930 . S
H45 C56 0.970 . S
H46 C56 0.970 . S
H47 C58 0.930 . S
H48 C60 0.930 . S
H49 C62 0.930 . S
C50 H42 0.930 . S
C50 C51 1.382 . S
C50 C52 1.426 . S
C51 C50 1.382 . S
C51 C55 1.389 . S
C52 C50 1.426 . S
C52 C53 1.375 . S
C52 C56 1.532 . S
C53 H43 0.930 . S
C53 C52 1.375 . S
C53 C54 1.416 . S
C54 C53 1.416 . S
C54 C55 1.371 . S
C55 H44 0.930 . S
C55 C51 1.389 . S
C55 C54 1.371 . S
C56 H45 0.970 . S
C56 H46 0.970 . S
C56 C52 1.532 . S
C56 C57 1.499 . S
C57 C56 1.499 . S
C57 C58 1.370 . S
C57 C62 1.415 . S
C58 H47 0.930 . S
C58 C57 1.370 . S
C58 C59 1.407 . S
C59 C58 1.407 . S
C59 C60 1.365 . S
C60 H48 0.930 . S
C60 C59 1.365 . S
C60 C61 1.393 . S
C61 C60 1.393 . S
C61 C62 1.387 . S
C62 H49 0.930 . S
C62 C57 1.415 . S
C62 C61 1.387 . S
H63 C71 0.930 . S
H64 C74 0.930 . S
H65 C76 0.930 . S
H66 C77 0.970 . S
H67 C77 0.970 . S
H68 C79 0.930 . S
H69 C81 0.930 . S
H70 C83 0.930 . S
C71 H63 0.930 . S
C71 C72 1.382 . S
C71 C73 1.426 . S
C72 C71 1.382 . S
C72 C76 1.389 . S
C73 C71 1.426 . S
C73 C74 1.375 . S
C73 C77 1.532 1_655 S
C74 H64 0.930 . S
C74 C73 1.375 . S
C74 C75 1.416 . S
C75 C74 1.416 . S
C75 C76 1.371 . S
C76 H65 0.930 . S
C76 C72 1.389 . S
C76 C75 1.371 . S
C77 H66 0.970 . S
C77 H67 0.970 . S
C77 C73 1.532 1_455 S
C77 C78 1.499 . S
C78 C77 1.499 . S
C78 C79 1.370 . S
C78 C83 1.415 . S
C79 H68 0.930 . S
C79 C78 1.370 . S
C79 C80 1.407 . S
C80 C79 1.407 . S
C80 C81 1.365 . S
C81 H69 0.930 . S
C81 C80 1.365 . S
C81 C82 1.393 . S
C82 C81 1.393 . S
C82 C83 1.387 . S
C83 H70 0.930 . S
C83 C78 1.415 . S
C83 C82 1.387 . S
H84 C92 0.930 . S
H85 C95 0.930 . S
H86 C97 0.930 . S
H87 C98 0.970 1_554 S
H88 C98 0.970 . S
H89 C100 0.930 . S
H90 C102 0.930 . S
H91 C104 0.930 . S
C92 H84 0.930 . S
C92 C93 1.382 . S
C92 C94 1.426 1_554 S
C93 C92 1.382 . S
C93 C97 1.389 1_554 S
C94 C92 1.426 1_556 S
C94 C95 1.375 . S
C94 C98 1.532 . S
C95 H85 0.930 . S
C95 C94 1.375 . S
C95 C96 1.416 . S
C96 C95 1.416 . S
C96 C97 1.371 . S
C97 H86 0.930 . S
C97 C93 1.389 1_556 S
C97 C96 1.371 . S
C98 H87 0.970 1_556 S
C98 H88 0.970 . S
C98 C94 1.532 . S
C98 C99 1.499 1_546 S
C99 C98 1.499 1_564 S
C99 C100 1.370 . S
C99 C104 1.415 1_554 S
C100 H89 0.930 . S
C100 C99 1.370 . S
C100 C101 1.407 . S
C101 C100 1.407 . S
C101 C102 1.365 . S
C102 H90 0.930 . S
C102 C101 1.365 . S
C102 C103 1.393 1_554 S
C103 C102 1.393 1_556 S
C103 C104 1.387 . S
C104 H91 0.930 . S
C104 C99 1.415 1_556 S
C104 C103 1.387 . S
H105 C113 0.930 . S
H106 C116 0.930 . S
H107 C118 0.930 . S
H108 C119 0.970 . S
H109 C119 0.970 . S
H110 C121 0.930 . S
H111 C123 0.930 . S
H112 C125 0.930 . S
C113 H105 0.930 . S
C113 C114 1.382 . S
C113 C115 1.426 . S
C114 C113 1.382 . S
C114 C118 1.389 . S
C115 C113 1.426 . S
C115 C116 1.375 . S
C115 C119 1.532 . S
C116 H106 0.930 . S
C116 C115 1.375 . S
C116 C117 1.416 . S
C117 C116 1.416 . S
C117 C118 1.371 . S
C118 H107 0.930 . S
C118 C114 1.389 . S
C118 C117 1.371 . S
C119 H108 0.970 . S
C119 H109 0.970 . S
C119 C115 1.532 . S
C119 C120 1.499 . S
C120 C119 1.499 . S
C120 C121 1.370 . S
C120 C125 1.415 . S
C121 H110 0.930 . S
C121 C120 1.370 . S
C121 C122 1.407 . S
C122 C121 1.407 . S
C122 C123 1.365 . S
C123 H111 0.930 . S
C123 C122 1.365 . S
C123 C124 1.393 . S
C124 C123 1.393 . S
C124 C125 1.387 . S
C125 H112 0.930 . S
C125 C120 1.415 . S
C125 C124 1.387 . S
Li126 N143 1.990 . S
Li126 O186 1.956 . S
Li126 O187 1.970 . S
Li126 O188 1.961 . S
Li127 N151 1.990 . S
Li127 O186 1.970 . S
Li127 O187 1.956 . S
Li127 O189 1.961 . S
Li128 N173 1.990 . S
Li128 O186 1.961 . S
Li128 O188 1.956 . S
Li128 O189 1.970 . S
Li129 N179 1.990 . S
Li129 O187 1.961 . S
Li129 O188 1.970 . S
Li129 O189 1.956 . S
C130 C132 1.348 . S
C130 C133 1.356 . S
C130 O186 1.325 . S
N131 C134 1.314 . S
N131 C135 1.279 . S
C132 C130 1.348 . S
C132 C134 1.353 . S
C132 H190 0.929 . S
C133 C130 1.356 . S
C133 C135 1.358 . S
C133 H191 0.930 . S
C134 N131 1.314 . S
C134 C132 1.353 . S
C134 H192 0.930 . S
C135 N131 1.279 . S
C135 C133 1.358 . S
C135 H193 0.930 . S
C136 C139 1.348 . S
C136 C140 1.356 . S
C136 O187 1.325 . S
C137 N138 1.279 . S
C137 C140 1.358 . S
C137 H194 0.930 . S
N138 C137 1.279 . S
N138 C141 1.314 . S
C139 C136 1.348 . S
C139 C141 1.353 . S
C139 H195 0.929 . S
C140 C136 1.356 . S
C140 C137 1.358 . S
C140 H196 0.930 . S
C141 N138 1.314 . S
C141 C139 1.353 . S
C141 H197 0.930 . S
C142 N143 1.314 . S
C142 C147 1.353 . S
C142 H148 0.930 . S
N143 Li126 1.990 . S
N143 C142 1.314 . S
N143 C145 1.279 . S
C144 C145 1.358 . S
C144 C146 1.356 . S
C144 H198 0.930 . S
C145 N143 1.279 . S
C145 C144 1.358 . S
C145 H149 0.930 . S
C146 C144 1.356 . S
C146 C147 1.348 . S
C147 C142 1.353 . S
C147 C146 1.348 . S
C147 H199 0.929 . S
H148 C142 0.930 . S
H149 C145 0.930 . S
C150 N151 1.314 . S
C150 C152 1.353 . S
C150 H156 0.930 . S
N151 Li127 1.990 . S
N151 C150 1.314 . S
N151 C154 1.279 . S
C152 C150 1.353 . S
C152 C155 1.348 . S
C152 H200 0.929 . S
C153 C154 1.358 . S
C153 C155 1.356 . S
C153 H201 0.930 . S
C154 N151 1.279 . S
C154 C153 1.358 . S
C154 H157 0.930 . S
C155 C152 1.348 . S
C155 C153 1.356 . S
H156 C150 0.930 . S
H157 C154 0.930 . S
C158 C160 1.348 . S
C158 C161 1.356 . S
C158 O188 1.325 . S
N159 C162 1.314 . S
N159 C163 1.279 . S
C160 C158 1.348 . S
C160 C162 1.353 . S
C160 H202 0.929 . S
C161 C158 1.356 . S
C161 C163 1.358 . S
C161 H203 0.930 . S
C162 N159 1.314 . S
C162 C160 1.353 . S
C162 H204 0.930 . S
C163 N159 1.279 . S
C163 C161 1.358 . S
C163 H205 0.930 . S
C164 C165 1.348 . S
C164 C166 1.356 . S
C164 O189 1.325 . S
C165 C164 1.348 . S
C165 C167 1.353 . S
C165 H206 0.929 . S
C166 C164 1.356 . S
C166 C168 1.358 . S
C166 H207 0.930 . S
C167 C165 1.353 . S
C167 N169 1.314 . S
C167 H208 0.930 . S
C168 C166 1.358 . S
C168 N169 1.279 . S
C168 H209 0.930 . S
N169 C167 1.314 . S
N169 C168 1.279 . S
C170 C172 1.353 . S
C170 N173 1.314 . S
C170 H176 0.930 . S
C171 N173 1.279 . S
C171 C174 1.358 . S
C171 H177 0.930 . S
C172 C170 1.353 . S
C172 C175 1.348 . S
C172 H210 0.929 . S
N173 Li128 1.990 . S
N173 C170 1.314 . S
N173 C171 1.279 . S
C174 C171 1.358 . S
C174 C175 1.356 . S
C174 H211 0.930 . S
C175 C172 1.348 . S
C175 C174 1.356 . S
H176 C170 0.930 . S
H177 C171 0.930 . S
C178 N179 1.314 . S
C178 C180 1.353 . S
C178 H184 0.930 . S
N179 Li129 1.990 . S
N179 C178 1.314 . S
N179 C182 1.279 . S
C180 C178 1.353 . S
C180 C183 1.348 . S
C180 H212 0.929 . S
C181 C182 1.358 . S
C181 C183 1.356 . S
C181 H213 0.930 . S
C182 N179 1.279 . S
C182 C181 1.358 . S
C182 H185 0.930 . S
C183 C180 1.348 . S
C183 C181 1.356 . S
H184 C178 0.930 . S
H185 C182 0.930 . S
O186 Li126 1.956 . S
O186 Li127 1.970 . S
O186 Li128 1.961 . S
O186 C130 1.325 . S
O187 Li126 1.970 . S
O187 Li127 1.956 . S
O187 Li129 1.961 . S
O187 C136 1.325 . S
O188 Li126 1.961 . S
O188 Li128 1.956 . S
O188 Li129 1.970 . S
O188 C158 1.325 . S
O189 Li127 1.961 . S
O189 Li128 1.970 . S
O189 Li129 1.956 . S
O189 C164 1.325 . S
H190 C132 0.929 . S
H191 C133 0.930 . S
H192 C134 0.930 . S
H193 C135 0.930 . S
H194 C137 0.930 . S
H195 C139 0.929 . S
H196 C140 0.930 . S
H197 C141 0.930 . S
H198 C144 0.930 . S
H199 C147 0.929 . S
H200 C152 0.929 . S
H201 C153 0.930 . S
H202 C160 0.929 . S
H203 C161 0.930 . S
H204 C162 0.930 . S
H205 C163 0.930 . S
H206 C165 0.929 . S
H207 C166 0.930 . S
H208 C167 0.930 . S
H209 C168 0.930 . S
H210 C172 0.929 . S
H211 C174 0.930 . S
H212 C180 0.929 . S
H213 C181 0.930 . S
Li214 N231 1.990 . S
Li214 O274 1.956 . S
Li214 O275 1.970 . S
Li214 O276 1.961 . S
Li215 N239 1.990 . S
Li215 O274 1.970 . S
Li215 O275 1.956 . S
Li215 O277 1.961 . S
Li216 N261 1.990 . S
Li216 O274 1.961 . S
Li216 O276 1.956 . S
Li216 O277 1.970 . S
Li217 N267 1.990 . S
Li217 O275 1.961 . S
Li217 O276 1.970 . S
Li217 O277 1.956 . S
C218 C220 1.348 . S
C218 C221 1.356 . S
C218 O274 1.325 . S
N219 C222 1.314 . S
N219 C223 1.279 . S
C220 C218 1.348 . S
C220 C222 1.353 . S
C220 H278 0.929 . S
C221 C218 1.356 . S
C221 C223 1.358 . S
C221 H279 0.930 . S
C222 N219 1.314 . S
C222 C220 1.353 . S
C222 H280 0.930 . S
C223 N219 1.279 . S
C223 C221 1.358 . S
C223 H281 0.930 . S
C224 C227 1.348 . S
C224 C228 1.356 . S
C224 O275 1.325 . S
C225 N226 1.279 . S
C225 C228 1.358 . S
C225 H282 0.930 . S
N226 C225 1.279 . S
N226 C229 1.314 . S
C227 C224 1.348 . S
C227 C229 1.353 . S
C227 H283 0.929 . S
C228 C224 1.356 . S
C228 C225 1.358 . S
C228 H284 0.930 . S
C229 N226 1.314 . S
C229 C227 1.353 . S
C229 H285 0.930 . S
C230 N231 1.314 . S
C230 C235 1.353 . S
C230 H236 0.930 . S
N231 Li214 1.990 . S
N231 C230 1.314 . S
N231 C233 1.279 . S
C232 C233 1.358 . S
C232 C234 1.356 . S
C232 H286 0.930 . S
C233 N231 1.279 . S
C233 C232 1.358 . S
C233 H237 0.930 . S
C234 C232 1.356 . S
C234 C235 1.348 . S
C235 C230 1.353 . S
C235 C234 1.348 . S
C235 H287 0.929 . S
H236 C230 0.930 . S
H237 C233 0.930 . S
C238 N239 1.314 . S
C238 C240 1.353 . S
C238 H244 0.930 . S
N239 Li215 1.990 . S
N239 C238 1.314 . S
N239 C242 1.279 . S
C240 C238 1.353 . S
C240 C243 1.348 . S
C240 H288 0.929 . S
C241 C242 1.358 . S
C241 C243 1.356 . S
C241 H289 0.930 . S
C242 N239 1.279 . S
C242 C241 1.358 . S
C242 H245 0.930 . S
C243 C240 1.348 . S
C243 C241 1.356 . S
H244 C238 0.930 . S
H245 C242 0.930 . S
C246 C248 1.348 . S
C246 C249 1.356 . S
C246 O276 1.325 . S
N247 C250 1.314 . S
N247 C251 1.279 . S
C248 C246 1.348 . S
C248 C250 1.353 . S
C248 H290 0.929 . S
C249 C246 1.356 . S
C249 C251 1.358 . S
C249 H291 0.930 . S
C250 N247 1.314 . S
C250 C248 1.353 . S
C250 H292 0.930 . S
C251 N247 1.279 . S
C251 C249 1.358 . S
C251 H293 0.930 . S
C252 C253 1.348 . S
C252 C254 1.356 . S
C252 O277 1.325 . S
C253 C252 1.348 . S
C253 C255 1.353 . S
C253 H294 0.929 . S
C254 C252 1.356 . S
C254 C256 1.358 . S
C254 H295 0.930 . S
C255 C253 1.353 . S
C255 N257 1.314 . S
C255 H296 0.930 . S
C256 C254 1.358 . S
C256 N257 1.279 . S
C256 H297 0.930 . S
N257 C255 1.314 . S
N257 C256 1.279 . S
C258 C260 1.353 . S
C258 N261 1.314 . S
C258 H264 0.930 . S
C259 N261 1.279 . S
C259 C262 1.358 . S
C259 H265 0.930 . S
C260 C258 1.353 . S
C260 C263 1.348 . S
C260 H298 0.929 . S
N261 Li216 1.990 . S
N261 C258 1.314 . S
N261 C259 1.279 . S
C262 C259 1.358 . S
C262 C263 1.356 . S
C262 H299 0.930 . S
C263 C260 1.348 . S
C263 C262 1.356 . S
H264 C258 0.930 . S
H265 C259 0.930 . S
C266 N267 1.314 . S
C266 C268 1.353 . S
C266 H272 0.930 . S
N267 Li217 1.990 . S
N267 C266 1.314 . S
N267 C270 1.279 . S
C268 C266 1.353 . S
C268 C271 1.348 . S
C268 H300 0.929 . S
C269 C270 1.358 . S
C269 C271 1.356 . S
C269 H301 0.930 . S
C270 N267 1.279 . S
C270 C269 1.358 . S
C270 H273 0.930 . S
C271 C268 1.348 . S
C271 C269 1.356 . S
H272 C266 0.930 . S
H273 C270 0.930 . S
O274 Li214 1.956 . S
O274 Li215 1.970 . S
O274 Li216 1.961 . S
O274 C218 1.325 . S
O275 Li214 1.970 . S
O275 Li215 1.956 . S
O275 Li217 1.961 . S
O275 C224 1.325 . S
O276 Li214 1.961 . S
O276 Li216 1.956 . S
O276 Li217 1.970 . S
O276 C246 1.325 . S
O277 Li215 1.961 . S
O277 Li216 1.970 . S
O277 Li217 1.956 . S
O277 C252 1.325 . S
H278 C220 0.929 . S
H279 C221 0.930 . S
H280 C222 0.930 . S
H281 C223 0.930 . S
H282 C225 0.930 . S
H283 C227 0.929 . S
H284 C228 0.930 . S
H285 C229 0.930 . S
H286 C232 0.930 . S
H287 C235 0.929 . S
H288 C240 0.929 . S
H289 C241 0.930 . S
H290 C248 0.929 . S
H291 C249 0.930 . S
H292 C250 0.930 . S
H293 C251 0.930 . S
H294 C253 0.929 . S
H295 C254 0.930 . S
H296 C255 0.930 . S
H297 C256 0.930 . S
H298 C260 0.929 . S
H299 C262 0.930 . S
H300 C268 0.929 . S
H301 C269 0.930 . S
Li302 N319 1.990 . S
Li302 O362 1.956 . S
Li302 O363 1.970 . S
Li302 O364 1.961 . S
Li303 N327 1.990 . S
Li303 O362 1.970 . S
Li303 O363 1.956 . S
Li303 O365 1.961 . S
Li304 N349 1.990 . S
Li304 O362 1.961 . S
Li304 O364 1.956 . S
Li304 O365 1.970 . S
Li305 N355 1.990 . S
Li305 O363 1.961 . S
Li305 O364 1.970 . S
Li305 O365 1.956 . S
C306 C308 1.348 . S
C306 C309 1.356 . S
C306 O362 1.325 . S
N307 C310 1.314 . S
N307 C311 1.279 . S
C308 C306 1.348 . S
C308 C310 1.353 . S
C308 H366 0.929 . S
C309 C306 1.356 . S
C309 C311 1.358 . S
C309 H367 0.930 . S
C310 N307 1.314 . S
C310 C308 1.353 . S
C310 H368 0.930 . S
C311 N307 1.279 . S
C311 C309 1.358 . S
C311 H369 0.930 . S
C312 C315 1.348 . S
C312 C316 1.356 . S
C312 O363 1.325 . S
C313 N314 1.279 . S
C313 C316 1.358 . S
C313 H370 0.930 . S
N314 C313 1.279 . S
N314 C317 1.314 . S
C315 C312 1.348 . S
C315 C317 1.353 . S
C315 H371 0.929 . S
C316 C312 1.356 . S
C316 C313 1.358 . S
C316 H372 0.930 . S
C317 N314 1.314 . S
C317 C315 1.353 . S
C317 H373 0.930 . S
C318 N319 1.314 . S
C318 C323 1.353 . S
C318 H324 0.930 . S
N319 Li302 1.990 . S
N319 C318 1.314 . S
N319 C321 1.279 . S
C320 C321 1.358 . S
C320 C322 1.356 . S
C320 H374 0.930 . S
C321 N319 1.279 . S
C321 C320 1.358 . S
C321 H325 0.930 . S
C322 C320 1.356 . S
C322 C323 1.348 . S
C323 C318 1.353 . S
C323 C322 1.348 . S
C323 H375 0.929 . S
H324 C318 0.930 . S
H325 C321 0.930 . S
C326 N327 1.314 . S
C326 C328 1.353 . S
C326 H332 0.930 . S
N327 Li303 1.990 . S
N327 C326 1.314 . S
N327 C330 1.279 . S
C328 C326 1.353 . S
C328 C331 1.348 . S
C328 H376 0.929 . S
C329 C330 1.358 . S
C329 C331 1.356 . S
C329 H377 0.930 . S
C330 N327 1.279 . S
C330 C329 1.358 . S
C330 H333 0.930 . S
C331 C328 1.348 . S
C331 C329 1.356 . S
H332 C326 0.930 . S
H333 C330 0.930 . S
C334 C336 1.348 . S
C334 C337 1.356 . S
C334 O364 1.325 . S
N335 C338 1.314 . S
N335 C339 1.279 . S
C336 C334 1.348 . S
C336 C338 1.353 . S
C336 H378 0.929 . S
C337 C334 1.356 . S
C337 C339 1.358 . S
C337 H379 0.930 . S
C338 N335 1.314 . S
C338 C336 1.353 . S
C338 H380 0.930 . S
C339 N335 1.279 . S
C339 C337 1.358 . S
C339 H381 0.930 . S
C340 C341 1.348 . S
C340 C342 1.356 . S
C340 O365 1.325 . S
C341 C340 1.348 . S
C341 C343 1.353 . S
C341 H382 0.929 . S
C342 C340 1.356 . S
C342 C344 1.358 . S
C342 H383 0.930 . S
C343 C341 1.353 . S
C343 N345 1.314 . S
C343 H384 0.930 . S
C344 C342 1.358 . S
C344 N345 1.279 . S
C344 H385 0.930 . S
N345 C343 1.314 . S
N345 C344 1.279 . S
C346 C348 1.353 . S
C346 N349 1.314 . S
C346 H352 0.930 . S
C347 N349 1.279 . S
C347 C350 1.358 . S
C347 H353 0.930 . S
C348 C346 1.353 . S
C348 C351 1.348 . S
C348 H386 0.929 . S
N349 Li304 1.990 . S
N349 C346 1.314 . S
N349 C347 1.279 . S
C350 C347 1.358 . S
C350 C351 1.356 . S
C350 H387 0.930 . S
C351 C348 1.348 . S
C351 C350 1.356 . S
H352 C346 0.930 . S
H353 C347 0.930 . S
C354 N355 1.314 . S
C354 C356 1.353 . S
C354 H360 0.930 . S
N355 Li305 1.990 . S
N355 C354 1.314 . S
N355 C358 1.279 . S
C356 C354 1.353 . S
C356 C359 1.348 . S
C356 H388 0.929 . S
C357 C358 1.358 . S
C357 C359 1.356 . S
C357 H389 0.930 . S
C358 N355 1.279 . S
C358 C357 1.358 . S
C358 H361 0.930 . S
C359 C356 1.348 . S
C359 C357 1.356 . S
H360 C354 0.930 . S
H361 C358 0.930 . S
O362 Li302 1.956 . S
O362 Li303 1.970 . S
O362 Li304 1.961 . S
O362 C306 1.325 . S
O363 Li302 1.970 . S
O363 Li303 1.956 . S
O363 Li305 1.961 . S
O363 C312 1.325 . S
O364 Li302 1.961 . S
O364 Li304 1.956 . S
O364 Li305 1.970 . S
O364 C334 1.325 . S
O365 Li303 1.961 . S
O365 Li304 1.970 . S
O365 Li305 1.956 . S
O365 C340 1.325 . S
H366 C308 0.929 . S
H367 C309 0.930 . S
H368 C310 0.930 . S
H369 C311 0.930 . S
H370 C313 0.930 . S
H371 C315 0.929 . S
H372 C316 0.930 . S
H373 C317 0.930 . S
H374 C320 0.930 . S
H375 C323 0.929 . S
H376 C328 0.929 . S
H377 C329 0.930 . S
H378 C336 0.929 . S
H379 C337 0.930 . S
H380 C338 0.930 . S
H381 C339 0.930 . S
H382 C341 0.929 . S
H383 C342 0.930 . S
H384 C343 0.930 . S
H385 C344 0.930 . S
H386 C348 0.929 . S
H387 C350 0.930 . S
H388 C356 0.929 . S
H389 C357 0.930 . S
Li390 N407 1.990 . S
Li390 O450 1.956 . S
Li390 O451 1.970 . S
Li390 O452 1.961 . S
Li391 N415 1.990 . S
Li391 O450 1.970 . S
Li391 O451 1.956 . S
Li391 O453 1.961 . S
Li392 N437 1.990 . S
Li392 O450 1.961 . S
Li392 O452 1.956 . S
Li392 O453 1.970 . S
Li393 N443 1.990 . S
Li393 O451 1.961 . S
Li393 O452 1.970 . S
Li393 O453 1.956 . S
C394 C396 1.348 . S
C394 C397 1.356 . S
C394 O450 1.325 . S
N395 C398 1.314 . S
N395 C399 1.279 . S
C396 C394 1.348 . S
C396 C398 1.353 1_556 S
C396 H454 0.929 . S
C397 C394 1.356 . S
C397 C399 1.358 1_556 S
C397 H455 0.930 . S
C398 N395 1.314 . S
C398 C396 1.353 1_554 S
C398 H456 0.930 . S
C399 N395 1.279 . S
C399 C397 1.358 1_554 S
C399 H457 0.930 . S
C400 C403 1.348 . S
C400 C404 1.356 . S
C400 O451 1.325 . S
C401 N402 1.279 . S
C401 C404 1.358 . S
C401 H458 0.930 . S
N402 C401 1.279 . S
N402 C405 1.314 . S
C403 C400 1.348 . S
C403 C405 1.353 . S
C403 H459 0.929 . S
C404 C400 1.356 . S
C404 C401 1.358 . S
C404 H460 0.930 . S
C405 N402 1.314 . S
C405 C403 1.353 . S
C405 H461 0.930 . S
C406 N407 1.314 . S
C406 C411 1.383 . S
C406 H412 0.930 . S
N407 Li390 1.990 . S
N407 C406 1.314 . S
N407 C409 1.279 1_556 S
C408 C409 1.358 . S
C408 C410 1.356 . S
C408 H462 0.930 . S
C409 N407 1.279 1_554 S
C409 C408 1.358 . S
C409 H413 0.930 . S
C410 C408 1.356 . S
C410 C411 1.311 1_554 S
C411 C406 1.383 . S
C411 C410 1.311 1_556 S
C411 H463 0.938 . S
H412 C406 0.930 . S
H413 C409 0.930 . S
C414 N415 1.314 . S
C414 C416 1.353 . S
C414 H420 0.930 . S
N415 Li391 1.990 . S
N415 C414 1.314 . S
N415 C418 1.279 . S
C416 C414 1.353 . S
C416 C419 1.348 . S
C416 H464 0.929 . S
C417 C418 1.358 . S
C417 C419 1.356 . S
C417 H465 0.930 . S
C418 N415 1.279 . S
C418 C417 1.358 . S
C418 H421 0.930 . S
C419 C416 1.348 . S
C419 C417 1.356 . S
H420 C414 0.930 . S
H421 C418 0.930 . S
C422 C424 1.348 . S
C422 C425 1.356 . S
C422 O452 1.325 . S
N423 C426 1.314 . S
N423 C427 1.279 . S
C424 C422 1.348 . S
C424 C426 1.353 . S
C424 H466 0.929 . S
C425 C422 1.356 . S
C425 C427 1.358 . S
C425 H467 0.930 . S
C426 N423 1.314 . S
C426 C424 1.353 . S
C426 H468 0.930 . S
C427 N423 1.279 . S
C427 C425 1.358 . S
C427 H469 0.930 . S
C428 C429 1.348 . S
C428 C430 1.356 . S
C428 O453 1.325 . S
C429 C428 1.348 . S
C429 C431 1.353 . S
C429 H470 0.929 . S
C430 C428 1.356 . S
C430 C432 1.358 . S
C430 H471 0.930 . S
C431 C429 1.353 . S
C431 N433 1.314 . S
C431 H472 0.930 . S
C432 C430 1.358 . S
C432 N433 1.279 . S
C432 H473 0.930 . S
N433 C431 1.314 . S
N433 C432 1.279 . S
C434 C436 1.353 . S
C434 N437 1.314 . S
C434 H440 0.930 . S
C435 N437 1.279 . S
C435 C438 1.358 . S
C435 H441 0.930 . S
C436 C434 1.353 . S
C436 C439 1.348 . S
C436 H474 0.929 . S
N437 Li392 1.990 . S
N437 C434 1.314 . S
N437 C435 1.279 . S
C438 C435 1.358 . S
C438 C439 1.356 . S
C438 H475 0.930 . S
C439 C436 1.348 . S
C439 C438 1.356 . S
H440 C434 0.930 . S
H441 C435 0.930 . S
C442 N443 1.314 . S
C442 C444 1.353 . S
C442 H448 0.930 . S
N443 Li393 1.990 . S
N443 C442 1.314 . S
N443 C446 1.279 . S
C444 C442 1.353 . S
C444 C447 1.348 . S
C444 H476 0.929 . S
C445 C446 1.358 . S
C445 C447 1.356 . S
C445 H477 0.930 . S
C446 N443 1.279 . S
C446 C445 1.358 . S
C446 H449 0.930 . S
C447 C444 1.348 . S
C447 C445 1.356 . S
H448 C442 0.930 . S
H449 C446 0.930 . S
O450 Li390 1.956 . S
O450 Li391 1.970 . S
O450 Li392 1.961 . S
O450 C394 1.325 . S
O451 Li390 1.970 . S
O451 Li391 1.956 . S
O451 Li393 1.961 . S
O451 C400 1.325 . S
O452 Li390 1.961 . S
O452 Li392 1.956 . S
O452 Li393 1.970 . S
O452 C422 1.325 . S
O453 Li391 1.961 . S
O453 Li392 1.970 . S
O453 Li393 1.956 . S
O453 C428 1.325 . S
H454 C396 0.929 . S
H455 C397 0.930 . S
H456 C398 0.930 . S
H457 C399 0.930 . S
H458 C401 0.930 . S
H459 C403 0.929 . S
H460 C404 0.930 . S
H461 C405 0.930 . S
H462 C408 0.930 . S
H463 C411 0.938 . S
H464 C416 0.929 . S
H465 C417 0.930 . S
H466 C424 0.929 . S
H467 C425 0.930 . S
H468 C426 0.930 . S
H469 C427 0.930 . S
H470 C429 0.929 . S
H471 C430 0.930 . S
H472 C431 0.930 . S
H473 C432 0.930 . S
H474 C436 0.929 . S
H475 C438 0.930 . S
H476 C444 0.929 . S
H477 C445 0.930 . S
Li478 N495 1.990 . S
Li478 O538 1.956 . S
Li478 O539 1.970 . S
Li478 O540 1.961 . S
Li479 N503 1.990 . S
Li479 O538 1.970 . S
Li479 O539 1.956 . S
Li479 O541 1.961 . S
Li480 N525 1.990 . S
Li480 O538 1.961 . S
Li480 O540 1.956 . S
Li480 O541 1.970 . S
Li481 N531 1.990 . S
Li481 O539 1.961 . S
Li481 O540 1.970 . S
Li481 O541 1.956 . S
C482 C484 1.348 . S
C482 C485 1.356 . S
C482 O538 1.325 . S
N483 C486 1.314 . S
N483 C487 1.279 . S
C484 C482 1.348 . S
C484 C486 1.353 . S
C484 H542 0.929 . S
C485 C482 1.356 . S
C485 C487 1.358 . S
C485 H543 0.930 . S
C486 N483 1.314 . S
C486 C484 1.353 . S
C486 H544 0.930 . S
C487 N483 1.279 . S
C487 C485 1.358 . S
C487 H545 0.930 . S
C488 C491 1.348 . S
C488 C492 1.356 . S
C488 O539 1.325 . S
C489 N490 1.279 . S
C489 C492 1.358 . S
C489 H546 0.930 . S
N490 C489 1.279 . S
N490 C493 1.314 . S
C491 C488 1.348 . S
C491 C493 1.353 . S
C491 H547 0.929 . S
C492 C488 1.356 . S
C492 C489 1.358 . S
C492 H548 0.930 . S
C493 N490 1.314 . S
C493 C491 1.353 . S
C493 H549 0.930 . S
C494 N495 1.314 . S
C494 C499 1.353 . S
C494 H500 0.930 . S
N495 Li478 1.990 . S
N495 C494 1.314 . S
N495 C497 1.279 . S
C496 C497 1.358 . S
C496 C498 1.356 . S
C496 H550 0.930 . S
C497 N495 1.279 . S
C497 C496 1.358 . S
C497 H501 0.930 . S
C498 C496 1.356 . S
C498 C499 1.348 . S
C499 C494 1.353 . S
C499 C498 1.348 . S
C499 H551 0.929 . S
H500 C494 0.930 . S
H501 C497 0.930 . S
C502 N503 1.314 . S
C502 C504 1.353 . S
C502 H508 0.930 . S
N503 Li479 1.990 . S
N503 C502 1.314 . S
N503 C506 1.279 . S
C504 C502 1.353 . S
C504 C507 1.348 . S
C504 H552 0.929 . S
C505 C506 1.358 . S
C505 C507 1.356 . S
C505 H553 0.930 . S
C506 N503 1.279 . S
C506 C505 1.358 . S
C506 H509 0.930 . S
C507 C504 1.348 . S
C507 C505 1.356 . S
H508 C502 0.930 . S
H509 C506 0.930 . S
C510 C512 1.348 . S
C510 C513 1.356 . S
C510 O540 1.325 . S
N511 C514 1.314 . S
N511 C515 1.279 . S
C512 C510 1.348 . S
C512 C514 1.353 1_554 S
C512 H554 0.929 . S
C513 C510 1.356 . S
C513 C515 1.358 1_554 S
C513 H555 0.930 . S
C514 N511 1.314 . S
C514 C512 1.353 1_556 S
C514 H556 0.930 . S
C515 N511 1.279 . S
C515 C513 1.358 1_556 S
C515 H557 0.930 . S
C516 C517 1.348 . S
C516 C518 1.356 . S
C516 O541 1.325 . S
C517 C516 1.348 . S
C517 C519 1.353 . S
C517 H558 0.929 . S
C518 C516 1.356 . S
C518 C520 1.358 . S
C518 H559 0.930 . S
C519 C517 1.353 . S
C519 N521 1.314 . S
C519 H560 0.930 . S
C520 C518 1.358 . S
C520 N521 1.279 . S
C520 H561 0.930 . S
N521 C519 1.314 . S
N521 C520 1.279 . S
C522 C524 1.353 1_554 S
C522 N525 1.314 . S
C522 H528 0.930 . S
C523 N525 1.279 1_556 S
C523 C526 1.358 . S
C523 H529 0.930 . S
C524 C522 1.353 1_556 S
C524 C527 1.348 . S
C524 H562 0.929 . S
N525 Li480 1.990 . S
N525 C522 1.314 . S
N525 C523 1.279 1_554 S
C526 C523 1.358 . S
C526 C527 1.356 . S
C526 H563 0.930 . S
C527 C524 1.348 . S
C527 C526 1.356 . S
H528 C522 0.930 . S
H529 C523 0.930 . S
C530 N531 1.314 . S
C530 C532 1.353 . S
C530 H536 0.930 . S
N531 Li481 1.990 . S
N531 C530 1.314 . S
N531 C534 1.279 . S
C532 C530 1.353 . S
C532 C535 1.348 . S
C532 H564 0.929 . S
C533 C534 1.358 . S
C533 C535 1.356 . S
C533 H565 0.930 . S
C534 N531 1.279 . S
C534 C533 1.358 . S
C534 H537 0.930 . S
C535 C532 1.348 . S
C535 C533 1.356 . S
H536 C530 0.930 . S
H537 C534 0.930 . S
O538 Li478 1.956 . S
O538 Li479 1.970 . S
O538 Li480 1.961 . S
O538 C482 1.325 . S
O539 Li478 1.970 . S
O539 Li479 1.956 . S
O539 Li481 1.961 . S
O539 C488 1.325 . S
O540 Li478 1.961 . S
O540 Li480 1.956 . S
O540 Li481 1.970 . S
O540 C510 1.325 . S
O541 Li479 1.961 . S
O541 Li480 1.970 . S
O541 Li481 1.956 . S
O541 C516 1.325 . S
H542 C484 0.929 . S
H543 C485 0.930 . S
H544 C486 0.930 . S
H545 C487 0.930 . S
H546 C489 0.930 . S
H547 C491 0.929 . S
H548 C492 0.930 . S
H549 C493 0.930 . S
H550 C496 0.930 . S
H551 C499 0.929 . S
H552 C504 0.929 . S
H553 C505 0.930 . S
H554 C512 0.929 . S
H555 C513 0.930 . S
H556 C514 0.930 . S
H557 C515 0.930 . S
H558 C517 0.929 . S
H559 C518 0.930 . S
H560 C519 0.930 . S
H561 C520 0.930 . S
H562 C524 0.929 . S
H563 C526 0.930 . S
H564 C532 0.929 . S
H565 C533 0.930 . S
Li566 N583 1.990 . S
Li566 O626 1.956 . S
Li566 O627 1.970 . S
Li566 O628 1.961 . S
Li567 N591 1.990 . S
Li567 O626 1.970 . S
Li567 O627 1.956 . S
Li567 O629 1.961 . S
Li568 N613 1.990 . S
Li568 O626 1.961 . S
Li568 O628 1.956 . S
Li568 O629 1.970 . S
Li569 N619 1.990 . S
Li569 O627 1.961 . S
Li569 O628 1.970 . S
Li569 O629 1.956 . S
C570 C572 1.348 . S
C570 C573 1.356 . S
C570 O626 1.325 . S
N571 C574 1.314 . S
N571 C575 1.279 . S
C572 C570 1.348 . S
C572 C574 1.353 . S
C572 H630 0.929 . S
C573 C570 1.356 . S
C573 C575 1.358 . S
C573 H631 0.930 . S
C574 N571 1.314 . S
C574 C572 1.353 . S
C574 H632 0.930 . S
C575 N571 1.279 . S
C575 C573 1.358 . S
C575 H633 0.930 . S
C576 C579 1.348 . S
C576 C580 1.356 . S
C576 O627 1.325 . S
C577 N578 1.279 . S
C577 C580 1.358 . S
C577 H634 0.930 . S
N578 C577 1.279 . S
N578 C581 1.314 . S
C579 C576 1.348 . S
C579 C581 1.353 . S
C579 H635 0.929 . S
C580 C576 1.356 . S
C580 C577 1.358 . S
C580 H636 0.930 . S
C581 N578 1.314 . S
C581 C579 1.353 . S
C581 H637 0.930 . S
C582 N583 1.314 . S
C582 C587 1.353 . S
C582 H588 0.930 . S
N583 Li566 1.990 . S
N583 C582 1.314 . S
N583 C585 1.279 . S
C584 C585 1.358 . S
C584 C586 1.356 . S
C584 H638 0.930 . S
C585 N583 1.279 . S
C585 C584 1.358 . S
C585 H589 0.930 . S
C586 C584 1.356 . S
C586 C587 1.348 . S
C587 C582 1.353 . S
C587 C586 1.348 . S
C587 H639 0.929 . S
H588 C582 0.930 . S
H589 C585 0.930 . S
C590 N591 1.314 . S
C590 C592 1.353 . S
C590 H596 0.930 . S
N591 Li567 1.990 . S
N591 C590 1.314 . S
N591 C594 1.279 . S
C592 C590 1.353 . S
C592 C595 1.348 . S
C592 H640 0.929 . S
C593 C594 1.358 . S
C593 C595 1.356 . S
C593 H641 0.930 . S
C594 N591 1.279 . S
C594 C593 1.358 . S
C594 H597 0.930 . S
C595 C592 1.348 . S
C595 C593 1.356 . S
H596 C590 0.930 . S
H597 C594 0.930 . S
C598 C600 1.348 . S
C598 C601 1.356 . S
C598 O628 1.325 . S
N599 C602 1.314 . S
N599 C603 1.279 . S
C600 C598 1.348 . S
C600 C602 1.353 . S
C600 H642 0.929 . S
C601 C598 1.356 . S
C601 C603 1.358 . S
C601 H643 0.930 . S
C602 N599 1.314 . S
C602 C600 1.353 . S
C602 H644 0.930 . S
C603 N599 1.279 . S
C603 C601 1.358 . S
C603 H645 0.930 . S
C604 C605 1.348 . S
C604 C606 1.356 . S
C604 O629 1.325 . S
C605 C604 1.348 . S
C605 C607 1.353 . S
C605 H646 0.929 . S
C606 C604 1.356 . S
C606 C608 1.358 . S
C606 H647 0.930 . S
C607 C605 1.353 . S
C607 N609 1.314 . S
C607 H648 0.930 . S
C608 C606 1.358 . S
C608 N609 1.279 . S
C608 H649 0.930 . S
N609 C607 1.314 . S
N609 C608 1.279 . S
C610 C612 1.353 . S
C610 N613 1.314 . S
C610 H616 0.930 . S
C611 N613 1.279 . S
C611 C614 1.358 . S
C611 H617 0.930 . S
C612 C610 1.353 . S
C612 C615 1.348 . S
C612 H650 0.929 . S
N613 Li568 1.990 . S
N613 C610 1.314 . S
N613 C611 1.279 . S
C614 C611 1.358 . S
C614 C615 1.356 . S
C614 H651 0.930 . S
C615 C612 1.348 . S
C615 C614 1.356 . S
H616 C610 0.930 . S
H617 C611 0.930 . S
C618 N619 1.314 . S
C618 C620 1.353 . S
C618 H624 0.930 . S
N619 Li569 1.990 . S
N619 C618 1.314 . S
N619 C622 1.279 . S
C620 C618 1.353 . S
C620 C623 1.348 . S
C620 H652 0.929 . S
C621 C622 1.358 . S
C621 C623 1.356 . S
C621 H653 0.930 . S
C622 N619 1.279 . S
C622 C621 1.358 . S
C622 H625 0.930 . S
C623 C620 1.348 . S
C623 C621 1.356 . S
H624 C618 0.930 . S
H625 C622 0.930 . S
O626 Li566 1.956 . S
O626 Li567 1.970 . S
O626 Li568 1.961 . S
O626 C570 1.325 . S
O627 Li566 1.970 . S
O627 Li567 1.956 . S
O627 Li569 1.961 . S
O627 C576 1.325 . S
O628 Li566 1.961 . S
O628 Li568 1.956 . S
O628 Li569 1.970 . S
O628 C598 1.325 . S
O629 Li567 1.961 . S
O629 Li568 1.970 . S
O629 Li569 1.956 . S
O629 C604 1.325 . S
H630 C572 0.929 . S
H631 C573 0.930 . S
H632 C574 0.930 . S
H633 C575 0.930 . S
H634 C577 0.930 . S
H635 C579 0.929 . S
H636 C580 0.930 . S
H637 C581 0.930 . S
H638 C584 0.930 . S
H639 C587 0.929 . S
H640 C592 0.929 . S
H641 C593 0.930 . S
H642 C600 0.929 . S
H643 C601 0.930 . S
H644 C602 0.930 . S
H645 C603 0.930 . S
H646 C605 0.929 . S
H647 C606 0.930 . S
H648 C607 0.930 . S
H649 C608 0.930 . S
H650 C612 0.929 . S
H651 C614 0.930 . S
H652 C620 0.929 . S
H653 C621 0.930 . S
C654 C655 1.369 . S
C654 C656 1.419 . S
C654 H658 0.930 . S
C655 C654 1.369 . S
C655 C664 1.429 . S
C656 C654 1.419 . S
C656 C657 1.363 . S
C656 H659 0.929 . S
C657 C656 1.363 . S
C657 C663 1.428 . S
H658 C654 0.930 . S
H659 C656 0.929 . S
S660 N661 1.613 . S
S660 N662 1.610 . S
N661 S660 1.613 . S
N661 C664 1.350 . S
N662 S660 1.610 . S
N662 C663 1.351 . S
C663 C657 1.428 . S
C663 N662 1.351 . S
C663 C664 1.434 . S
C664 C655 1.429 . S
C664 N661 1.350 . S
C664 C663 1.434 . S
C665 C666 1.369 . S
C665 C667 1.419 . S
C665 H669 0.930 . S
C666 C665 1.369 . S
C666 C675 1.429 . S
C667 C665 1.419 . S
C667 C668 1.363 . S
C667 H670 0.929 . S
C668 C667 1.363 . S
C668 C674 1.428 . S
H669 C665 0.930 . S
H670 C667 0.929 . S
S671 N672 1.613 . S
S671 N673 1.610 . S
N672 S671 1.613 . S
N672 C675 1.350 . S
N673 S671 1.610 . S
N673 C674 1.351 . S
C674 C668 1.428 . S
C674 N673 1.351 . S
C674 C675 1.434 . S
C675 C666 1.429 . S
C675 N672 1.350 . S
C675 C674 1.434 . S
C676 C677 1.369 . S
C676 C678 1.419 . S
C676 H680 0.930 . S
C677 C676 1.369 . S
C677 C686 1.429 . S
C678 C676 1.419 . S
C678 C679 1.363 . S
C678 H681 0.929 . S
C679 C678 1.363 . S
C679 C685 1.428 . S
H680 C676 0.930 . S
H681 C678 0.929 . S
S682 N683 1.613 . S
S682 N684 1.610 . S
N683 S682 1.613 . S
N683 C686 1.350 . S
N684 S682 1.610 . S
N684 C685 1.351 . S
C685 C679 1.428 . S
C685 N684 1.351 . S
C685 C686 1.434 . S
C686 C677 1.429 . S
C686 N683 1.350 . S
C686 C685 1.434 . S
C687 C688 1.369 . S
C687 C689 1.419 . S
C687 H691 0.930 . S
C688 C687 1.369 . S
C688 C697 1.429 . S
C689 C687 1.419 . S
C689 C690 1.363 . S
C689 H692 0.929 . S
C690 C689 1.363 . S
C690 C696 1.428 . S
H691 C687 0.930 . S
H692 C689 0.929 . S
S693 N694 1.613 . S
S693 N695 1.610 . S
N694 S693 1.613 . S
N694 C697 1.350 . S
N695 S693 1.610 . S
N695 C696 1.351 . S
C696 C690 1.428 . S
C696 N695 1.351 . S
C696 C697 1.434 . S
C697 C688 1.429 . S
C697 N694 1.350 . S
C697 C696 1.434 . S
C698 C699 1.369 . S
C698 C700 1.419 . S
C698 H702 0.930 . S
C699 C698 1.369 . S
C699 C708 1.429 . S
C700 C698 1.419 . S
C700 C701 1.363 . S
C700 H703 0.929 . S
C701 C700 1.363 . S
C701 C707 1.428 . S
H702 C698 0.930 . S
H703 C700 0.929 . S
S704 N705 1.613 . S
S704 N706 1.610 1_554 S
N705 S704 1.613 . S
N705 C708 1.350 1_554 S
N706 S704 1.610 1_556 S
N706 C707 1.351 . S
C707 C701 1.428 . S
C707 N706 1.351 . S
C707 C708 1.434 . S
C708 C699 1.429 . S
C708 N705 1.350 1_556 S
C708 C707 1.434 . S
C709 C710 1.369 . S
C709 C711 1.419 . S
C709 H713 0.930 . S
C710 C709 1.369 . S
C710 C719 1.429 . S
C711 C709 1.419 . S
C711 C712 1.363 . S
C711 H714 0.929 . S
C712 C711 1.363 . S
C712 C718 1.428 . S
H713 C709 0.930 . S
H714 C711 0.929 . S
S715 N716 1.613 . S
S715 N717 1.610 . S
N716 S715 1.613 . S
N716 C719 1.350 . S
N717 S715 1.610 . S
N717 C718 1.351 . S
C718 C712 1.428 . S
C718 N717 1.351 . S
C718 C719 1.434 . S
C719 C710 1.429 . S
C719 N716 1.350 . S
C719 C718 1.434 . S
C720 C721 1.369 . S
C720 C722 1.419 . S
C720 H724 0.930 . S
C721 C720 1.369 . S
C721 C730 1.429 . S
C722 C720 1.419 . S
C722 C723 1.363 . S
C722 H725 0.929 . S
C723 C722 1.363 . S
C723 C729 1.428 . S
H724 C720 0.930 . S
H725 C722 0.929 . S
S726 N727 1.613 . S
S726 N728 1.610 . S
N727 S726 1.613 . S
N727 C730 1.350 . S
N728 S726 1.610 . S
N728 C729 1.351 . S
C729 C723 1.428 . S
C729 N728 1.351 . S
C729 C730 1.434 . S
C730 C721 1.429 . S
C730 N727 1.350 . S
C730 C729 1.434 . S
C731 C732 1.369 . S
C731 C733 1.419 . S
C731 H735 0.930 . S
C732 C731 1.369 . S
C732 C741 1.429 . S
C733 C731 1.419 . S
C733 C734 1.363 . S
C733 H736 0.929 . S
C734 C733 1.363 . S
C734 C740 1.428 . S
H735 C731 0.930 . S
H736 C733 0.929 . S
S737 N738 1.613 . S
S737 N739 1.610 . S
N738 S737 1.613 . S
N738 C741 1.350 . S
N739 S737 1.610 . S
N739 C740 1.351 . S
C740 C734 1.428 . S
C740 N739 1.351 . S
C740 C741 1.434 . S
C741 C732 1.429 . S
C741 N738 1.350 . S
C741 C740 1.434 . S
C742 C743 1.369 . S
C742 C744 1.419 . S
C742 H746 0.930 . S
C743 C742 1.369 . S
C743 C752 1.429 . S
C744 C742 1.419 . S
C744 C745 1.363 . S
C744 H747 0.929 . S
C745 C744 1.363 . S
C745 C751 1.428 . S
H746 C742 0.930 . S
H747 C744 0.929 . S
S748 N749 1.613 . S
S748 N750 1.610 . S
N749 S748 1.613 . S
N749 C752 1.350 . S
N750 S748 1.610 . S
N750 C751 1.351 . S
C751 C745 1.428 . S
C751 N750 1.351 . S
C751 C752 1.434 . S
C752 C743 1.429 . S
C752 N749 1.350 . S
C752 C751 1.434 . S
C753 C754 1.369 . S
C753 C755 1.419 . S
C753 H757 0.930 . S
C754 C753 1.369 . S
C754 C763 1.429 . S
C755 C753 1.419 . S
C755 C756 1.363 . S
C755 H758 0.929 . S
C756 C755 1.363 . S
C756 C762 1.428 . S
H757 C753 0.930 . S
H758 C755 0.929 . S
S759 N760 1.613 . S
S759 N761 1.610 . S
N760 S759 1.613 . S
N760 C763 1.350 . S
N761 S759 1.610 . S
N761 C762 1.351 . S
C762 C756 1.428 . S
C762 N761 1.351 . S
C762 C763 1.434 . S
C763 C754 1.429 . S
C763 N760 1.350 . S
C763 C762 1.434 . S
C764 C765 1.369 . S
C764 C766 1.419 . S
C764 H768 0.930 . S
C765 C764 1.369 . S
C765 C774 1.429 . S
C766 C764 1.419 . S
C766 C767 1.363 . S
C766 H769 0.929 . S
C767 C766 1.363 . S
C767 C773 1.428 . S
H768 C764 0.930 . S
H769 C766 0.929 . S
S770 N771 1.613 . S
S770 N772 1.610 . S
N771 S770 1.613 . S
N771 C774 1.350 . S
N772 S770 1.610 . S
N772 C773 1.351 . S
C773 C767 1.428 . S
C773 N772 1.351 . S
C773 C774 1.434 . S
C774 C765 1.429 . S
C774 N771 1.350 . S
C774 C773 1.434 . S
C775 C776 1.369 . S
C775 C777 1.419 . S
C775 H779 0.930 . S
C776 C775 1.369 . S
C776 C785 1.429 . S
C777 C775 1.419 . S
C777 C778 1.363 . S
C777 H780 0.929 . S
C778 C777 1.363 . S
C778 C784 1.428 . S
H779 C775 0.930 . S
H780 C777 0.929 . S
S781 N782 1.613 . S
S781 N783 1.610 . S
N782 S781 1.613 . S
N782 C785 1.350 . S
N783 S781 1.610 . S
N783 C784 1.351 . S
C784 C778 1.428 . S
C784 N783 1.351 . S
C784 C785 1.434 . S
C785 C776 1.429 . S
C785 N782 1.350 . S
C785 C784 1.434 . S
C786 C787 1.369 . S
C786 C788 1.419 . S
C786 H790 0.930 . S
C787 C786 1.369 . S
C787 C796 1.429 . S
C788 C786 1.419 . S
C788 C789 1.363 . S
C788 H791 0.929 . S
C789 C788 1.363 . S
C789 C795 1.428 . S
H790 C786 0.930 . S
H791 C788 0.929 . S
S792 N793 1.613 . S
S792 N794 1.610 . S
N793 S792 1.613 . S
N793 C796 1.350 . S
N794 S792 1.610 . S
N794 C795 1.351 . S
C795 C789 1.428 . S
C795 N794 1.351 . S
C795 C796 1.434 . S
C796 C787 1.429 . S
C796 N793 1.350 . S
C796 C795 1.434 . S
C797 C798 1.369 . S
C797 C799 1.419 . S
C797 H801 0.930 . S
C798 C797 1.369 . S
C798 C807 1.429 . S
C799 C797 1.419 . S
C799 C800 1.363 . S
C799 H802 0.929 . S
C800 C799 1.363 . S
C800 C806 1.428 . S
H801 C797 0.930 . S
H802 C799 0.929 . S
S803 N804 1.613 . S
S803 N805 1.610 . S
N804 S803 1.613 . S
N804 C807 1.350 . S
N805 S803 1.610 . S
N805 C806 1.351 . S
C806 C800 1.428 . S
C806 N805 1.351 . S
C806 C807 1.434 . S
C807 C798 1.429 . S
C807 N804 1.350 . S
C807 C806 1.434 . S
C808 C809 1.369 . S
C808 C810 1.419 . S
C808 H812 0.930 . S
C809 C808 1.369 . S
C809 C818 1.429 . S
C810 C808 1.419 . S
C810 C811 1.363 . S
C810 H813 0.929 . S
C811 C810 1.363 . S
C811 C817 1.428 . S
H812 C808 0.930 . S
H813 C810 0.929 . S
S814 N815 1.613 . S
S814 N816 1.610 . S
N815 S814 1.613 . S
N815 C818 1.350 . S
N816 S814 1.610 . S
N816 C817 1.351 . S
C817 C811 1.428 . S
C817 N816 1.351 . S
C817 C818 1.434 . S
C818 C809 1.429 . S
C818 N815 1.350 . S
C818 C817 1.434 . S
C819 C820 1.369 . S
C819 C821 1.419 . S
C819 H823 0.930 . S
C820 C819 1.369 . S
C820 C829 1.429 . S
C821 C819 1.419 . S
C821 C822 1.363 . S
C821 H824 0.929 . S
C822 C821 1.363 . S
C822 C828 1.428 . S
H823 C819 0.930 . S
H824 C821 0.929 . S
S825 N826 1.613 . S
S825 N827 1.610 . S
N826 S825 1.613 . S
N826 C829 1.350 . S
N827 S825 1.610 . S
N827 C828 1.351 . S
C828 C822 1.428 . S
C828 N827 1.351 . S
C828 C829 1.434 . S
C829 C820 1.429 . S
C829 N826 1.350 . S
C829 C828 1.434 . S
C830 C831 1.369 . S
C830 C832 1.419 . S
C830 H834 0.930 . S
C831 C830 1.369 . S
C831 C840 1.429 . S
C832 C830 1.419 . S
C832 C833 1.363 . S
C832 H835 0.929 . S
C833 C832 1.363 . S
C833 C839 1.428 . S
H834 C830 0.930 . S
H835 C832 0.929 . S
S836 N837 1.613 . S
S836 N838 1.610 . S
N837 S836 1.613 . S
N837 C840 1.350 . S
N838 S836 1.610 . S
N838 C839 1.351 . S
C839 C833 1.428 . S
C839 N838 1.351 . S
C839 C840 1.434 . S
C840 C831 1.429 . S
C840 N837 1.350 . S
C840 C839 1.434 . S
C841 C842 1.369 . S
C841 C843 1.419 . S
C841 H845 0.930 . S
C842 C841 1.369 . S
C842 C851 1.429 . S
C843 C841 1.419 . S
C843 C844 1.363 . S
C843 H846 0.929 . S
C844 C843 1.363 . S
C844 C850 1.428 . S
H845 C841 0.930 . S
H846 C843 0.929 . S
S847 N848 1.613 . S
S847 N849 1.610 . S
N848 S847 1.613 . S
N848 C851 1.350 . S
N849 S847 1.610 . S
N849 C850 1.351 . S
C850 C844 1.428 . S
C850 N849 1.351 . S
C850 C851 1.434 . S
C851 C842 1.429 . S
C851 N848 1.350 . S
C851 C850 1.434 . S
C852 C853 1.369 . S
C852 C854 1.419 . S
C852 H856 0.930 . S
C853 C852 1.369 . S
C853 C862 1.429 . S
C854 C852 1.419 . S
C854 C855 1.363 . S
C854 H857 0.929 . S
C855 C854 1.363 . S
C855 C861 1.428 . S
H856 C852 0.930 . S
H857 C854 0.929 . S
S858 N859 1.613 . S
S858 N860 1.610 . S
N859 S858 1.613 . S
N859 C862 1.350 . S
N860 S858 1.610 . S
N860 C861 1.351 . S
C861 C855 1.428 . S
C861 N860 1.351 . S
C861 C862 1.434 . S
C862 C853 1.429 . S
C862 N859 1.350 . S
C862 C861 1.434 . S
C863 C864 1.369 . S
C863 C865 1.419 . S
C863 H867 0.930 . S
C864 C863 1.369 . S
C864 C873 1.429 . S
C865 C863 1.419 . S
C865 C866 1.363 . S
C865 H868 0.929 . S
C866 C865 1.363 . S
C866 C872 1.428 . S
H867 C863 0.930 . S
H868 C865 0.929 . S
S869 N870 1.613 . S
S869 N871 1.610 . S
N870 S869 1.613 . S
N870 C873 1.350 . S
N871 S869 1.610 . S
N871 C872 1.351 . S
C872 C866 1.428 . S
C872 N871 1.351 . S
C872 C873 1.434 . S
C873 C864 1.429 . S
C873 N870 1.350 . S
C873 C872 1.434 . S
C874 C875 1.369 . S
C874 C876 1.419 . S
C874 H878 0.930 . S
C875 C874 1.369 . S
C875 C884 1.429 . S
C876 C874 1.419 . S
C876 C877 1.363 . S
C876 H879 0.929 . S
C877 C876 1.363 . S
C877 C883 1.428 . S
H878 C874 0.930 . S
H879 C876 0.929 . S
S880 N881 1.613 . S
S880 N882 1.610 . S
N881 S880 1.613 . S
N881 C884 1.350 . S
N882 S880 1.610 . S
N882 C883 1.351 . S
C883 C877 1.428 . S
C883 N882 1.351 . S
C883 C884 1.434 . S
C884 C875 1.429 . S
C884 N881 1.350 . S
C884 C883 1.434 . S
C885 C886 1.369 . S
C885 C887 1.419 . S
C885 H889 0.930 . S
C886 C885 1.369 . S
C886 C895 1.429 . S
C887 C885 1.419 . S
C887 C888 1.363 . S
C887 H890 0.929 . S
C888 C887 1.363 . S
C888 C894 1.428 . S
H889 C885 0.930 . S
H890 C887 0.929 . S
S891 N892 1.613 . S
S891 N893 1.610 . S
N892 S891 1.613 . S
N892 C895 1.350 . S
N893 S891 1.610 . S
N893 C894 1.351 . S
C894 C888 1.428 . S
C894 N893 1.351 . S
C894 C895 1.434 . S
C895 C886 1.429 . S
C895 N892 1.350 . S
C895 C894 1.434 . S
C896 C897 1.369 . S
C896 C898 1.419 . S
C896 H900 0.930 . S
C897 C896 1.369 . S
C897 C906 1.429 . S
C898 C896 1.419 . S
C898 C899 1.363 . S
C898 H901 0.929 . S
C899 C898 1.363 . S
C899 C905 1.428 . S
H900 C896 0.930 . S
H901 C898 0.929 . S
S902 N903 1.613 . S
S902 N904 1.610 . S
N903 S902 1.613 . S
N903 C906 1.350 . S
N904 S902 1.610 . S
N904 C905 1.351 . S
C905 C899 1.428 . S
C905 N904 1.351 . S
C905 C906 1.434 . S
C906 C897 1.429 . S
C906 N903 1.350 . S
C906 C905 1.434 . S
C907 C908 1.369 . S
C907 C909 1.419 . S
C907 H911 0.930 . S
C908 C907 1.369 . S
C908 C917 1.429 . S
C909 C907 1.419 . S
C909 C910 1.363 . S
C909 H912 0.929 . S
C910 C909 1.363 . S
C910 C916 1.428 . S
H911 C907 0.930 . S
H912 C909 0.929 . S
S913 N914 1.613 . S
S913 N915 1.610 . S
N914 S913 1.613 . S
N914 C917 1.350 . S
N915 S913 1.610 . S
N915 C916 1.351 . S
C916 C910 1.428 . S
C916 N915 1.351 . S
C916 C917 1.434 . S
C917 C908 1.429 . S
C917 N914 1.350 . S
C917 C916 1.434 . S
C657 C595 1.621 . S
C655 C19 1.541 . S
C666 C40 1.546 . S
C668 C155 1.626 . S
C677 C51 1.525 . S
C679 C243 1.636 . S
C688 C72 1.527 . S
C690 C322 1.626 . S
C701 C419 1.623 . S
C699 C103 1.535 . S
C710 C114 1.530 . S
C712 C498 1.628 . S
C721 C30 1.533 . S
C723 C263 1.638 . S
C732 C61 1.541 . S
C734 C359 1.628 . S
C743 C82 1.537 . S
C745 C439 1.622 . S
C756 C535 1.630 . S
C754 C93 1.525 . S
C767 C615 1.627 . S
C765 C124 1.537 . S
C778 C175 1.631 . S
C776 C9 1.525 . S
C787 C17 1.468 . S
C789 C271 1.563 . S
C798 C38 1.466 . S
C800 C351 1.559 . S
C811 C447 1.553 . S
C809 C54 1.448 . S
C820 C75 1.453 . S
C822 C527 1.562 . S
C833 C623 1.556 . S
C831 C101 1.464 . S
C844 C183 1.554 . S
C842 C117 1.460 . S
C855 C586 1.553 . S
C853 C33 1.448 . S
C864 C59 1.460 . S
C866 C146 1.561 . S
C877 C234 1.563 . S
C875 C80 1.456 . S
C886 C96 1.458 . S
C888 C331 1.556 . S
C897 C122 1.456 . S
C899 C410 1.555 . S
C908 C12 1.454 . S
C910 C507 1.562 . S
