# Generated by pormake.
# Topology ctn, (3,4)-cn, num edge types: 1
# Building blocks:
#     Node 0, Type 0, BuildingBlock: ESEHIV_clean_linker_0, # of connection points: 3
#     Node 1, Type 0, BuildingBlock: ESEHIV_clean_linker_0, # of connection points: 3
#     Node 2, Type 0, BuildingBlock: ESEHIV_clean_linker_0, # of connection points: 3
#     Node 3, Type 0, BuildingBlock: ESEHIV_clean_linker_0, # of connection points: 3
#     Node 4, Type 0, BuildingBlock: ESEHIV_clean_linker_0, # of connection points: 3
#     Node 5, Type 0, BuildingBlock: ESEHIV_clean_linker_0, # of connection points: 3
#     Node 6, Type 0, BuildingBlock: ESEHIV_clean_linker_0, # of connection points: 3
#     Node 7, Type 0, BuildingBlock: ESEHIV_clean_linker_0, # of connection points: 3
#     Node 8, Type 0, BuildingBlock: ESEHIV_clean_linker_0, # of connection points: 3
#     Node 9, Type 0, BuildingBlock: ESEHIV_clean_linker_0, # of connection points: 3
#     Node 10, Type 0, BuildingBlock: ESEHIV_clean_linker_0, # of connection points: 3
#     Node 11, Type 0, BuildingBlock: ESEHIV_clean_linker_0, # of connection points: 3
#     Node 12, Type 0, BuildingBlock: ESEHIV_clean_linker_0, # of connection points: 3
#     Node 13, Type 0, BuildingBlock: ESEHIV_clean_linker_0, # of connection points: 3
#     Node 14, Type 0, BuildingBlock: ESEHIV_clean_linker_0, # of connection points: 3
#     Node 15, Type 0, BuildingBlock: ESEHIV_clean_linker_0, # of connection points: 3
#     Node 16, Type 1, BuildingBlock: TATPOV_clean_sbu_0, # of connection points: 4
#     Node 17, Type 1, BuildingBlock: TATPOV_clean_sbu_0, # of connection points: 4
#     Node 18, Type 1, BuildingBlock: TATPOV_clean_sbu_0, # of connection points: 4
#     Node 19, Type 1, BuildingBlock: TATPOV_clean_sbu_0, # of connection points: 4
#     Node 20, Type 1, BuildingBlock: TATPOV_clean_sbu_0, # of connection points: 4
#     Node 21, Type 1, BuildingBlock: TATPOV_clean_sbu_0, # of connection points: 4
#     Node 22, Type 1, BuildingBlock: TATPOV_clean_sbu_0, # of connection points: 4
#     Node 23, Type 1, BuildingBlock: TATPOV_clean_sbu_0, # of connection points: 4
#     Node 24, Type 1, BuildingBlock: TATPOV_clean_sbu_0, # of connection points: 4
#     Node 25, Type 1, BuildingBlock: TATPOV_clean_sbu_0, # of connection points: 4
#     Node 26, Type 1, BuildingBlock: TATPOV_clean_sbu_0, # of connection points: 4
#     Node 27, Type 1, BuildingBlock: TATPOV_clean_sbu_0, # of connection points: 4
#     Edge 28, Type (0, 1), BuildingBlock: KIFKEQ_clean_linker_1, # of connection points: 2
#     Edge 29, Type (0, 1), BuildingBlock: KIFKEQ_clean_linker_1, # of connection points: 2
#     Edge 30, Type (0, 1), BuildingBlock: KIFKEQ_clean_linker_1, # of connection points: 2
#     Edge 31, Type (0, 1), BuildingBlock: KIFKEQ_clean_linker_1, # of connection points: 2
#     Edge 32, Type (0, 1), BuildingBlock: KIFKEQ_clean_linker_1, # of connection points: 2
#     Edge 33, Type (0, 1), BuildingBlock: KIFKEQ_clean_linker_1, # of connection points: 2
#     Edge 34, Type (0, 1), BuildingBlock: KIFKEQ_clean_linker_1, # of connection points: 2
#     Edge 35, Type (0, 1), BuildingBlock: KIFKEQ_clean_linker_1, # of connection points: 2
#     Edge 36, Type (0, 1), BuildingBlock: KIFKEQ_clean_linker_1, # of connection points: 2
#     Edge 37, Type (0, 1), BuildingBlock: KIFKEQ_clean_linker_1, # of connection points: 2
#     Edge 38, Type (0, 1), BuildingBlock: KIFKEQ_clean_linker_1, # of connection points: 2
#     Edge 39, Type (0, 1), BuildingBlock: KIFKEQ_clean_linker_1, # of connection points: 2
#     Edge 40, Type (0, 1), BuildingBlock: KIFKEQ_clean_linker_1, # of connection points: 2
#     Edge 41, Type (0, 1), BuildingBlock: KIFKEQ_clean_linker_1, # of connection points: 2
#     Edge 42, Type (0, 1), BuildingBlock: KIFKEQ_clean_linker_1, # of connection points: 2
#     Edge 43, Type (0, 1), BuildingBlock: KIFKEQ_clean_linker_1, # of connection points: 2
#     Edge 44, Type (0, 1), BuildingBlock: KIFKEQ_clean_linker_1, # of connection points: 2
#     Edge 45, Type (0, 1), BuildingBlock: KIFKEQ_clean_linker_1, # of connection points: 2
#     Edge 46, Type (0, 1), BuildingBlock: KIFKEQ_clean_linker_1, # of connection points: 2
#     Edge 47, Type (0, 1), BuildingBlock: KIFKEQ_clean_linker_1, # of connection points: 2
#     Edge 48, Type (0, 1), BuildingBlock: KIFKEQ_clean_linker_1, # of connection points: 2
#     Edge 49, Type (0, 1), BuildingBlock: KIFKEQ_clean_linker_1, # of connection points: 2
#     Edge 50, Type (0, 1), BuildingBlock: KIFKEQ_clean_linker_1, # of connection points: 2
#     Edge 51, Type (0, 1), BuildingBlock: KIFKEQ_clean_linker_1, # of connection points: 2
#     Edge 52, Type (0, 1), BuildingBlock: KIFKEQ_clean_linker_1, # of connection points: 2
#     Edge 53, Type (0, 1), BuildingBlock: KIFKEQ_clean_linker_1, # of connection points: 2
#     Edge 54, Type (0, 1), BuildingBlock: KIFKEQ_clean_linker_1, # of connection points: 2
#     Edge 55, Type (0, 1), BuildingBlock: KIFKEQ_clean_linker_1, # of connection points: 2
#     Edge 56, Type (0, 1), BuildingBlock: KIFKEQ_clean_linker_1, # of connection points: 2
#     Edge 57, Type (0, 1), BuildingBlock: KIFKEQ_clean_linker_1, # of connection points: 2
#     Edge 58, Type (0, 1), BuildingBlock: KIFKEQ_clean_linker_1, # of connection points: 2
#     Edge 59, Type (0, 1), BuildingBlock: KIFKEQ_clean_linker_1, # of connection points: 2
#     Edge 60, Type (0, 1), BuildingBlock: KIFKEQ_clean_linker_1, # of connection points: 2
#     Edge 61, Type (0, 1), BuildingBlock: KIFKEQ_clean_linker_1, # of connection points: 2
#     Edge 62, Type (0, 1), BuildingBlock: KIFKEQ_clean_linker_1, # of connection points: 2
#     Edge 63, Type (0, 1), BuildingBlock: KIFKEQ_clean_linker_1, # of connection points: 2
#     Edge 64, Type (0, 1), BuildingBlock: KIFKEQ_clean_linker_1, # of connection points: 2
#     Edge 65, Type (0, 1), BuildingBlock: KIFKEQ_clean_linker_1, # of connection points: 2
#     Edge 66, Type (0, 1), BuildingBlock: KIFKEQ_clean_linker_1, # of connection points: 2
#     Edge 67, Type (0, 1), BuildingBlock: KIFKEQ_clean_linker_1, # of connection points: 2
#     Edge 68, Type (0, 1), BuildingBlock: KIFKEQ_clean_linker_1, # of connection points: 2
#     Edge 69, Type (0, 1), BuildingBlock: KIFKEQ_clean_linker_1, # of connection points: 2
#     Edge 70, Type (0, 1), BuildingBlock: KIFKEQ_clean_linker_1, # of connection points: 2
#     Edge 71, Type (0, 1), BuildingBlock: KIFKEQ_clean_linker_1, # of connection points: 2
#     Edge 72, Type (0, 1), BuildingBlock: KIFKEQ_clean_linker_1, # of connection points: 2
#     Edge 73, Type (0, 1), BuildingBlock: KIFKEQ_clean_linker_1, # of connection points: 2
#     Edge 74, Type (0, 1), BuildingBlock: KIFKEQ_clean_linker_1, # of connection points: 2
#     Edge 75, Type (0, 1), BuildingBlock: KIFKEQ_clean_linker_1, # of connection points: 2
# Relax obj value: 0.003
# Max RMSD: 0.047
# Mean RMSD: 0.021
data_MOF--net-ctn--node1-TATPOV_clean_sbu_0--node2-ESEHIV_clean_linker_0--edge1-KIFKEQ_clean_linker_1
_symmetry_space_group_name_H-M    P1
_symmetry_Int_Tables_number       1
_symmetry_cell_setting            triclinic
loop_
_symmetry_equiv_pos_as_xyz
'x, y, z'
_cell_length_a     52.486673
_cell_length_b     52.460008
_cell_length_c     52.401271
_cell_angle_alpha  91.151691
_cell_angle_beta   91.331874
_cell_angle_gamma 91.295025
loop_
_atom_site_label
_atom_site_type_symbol
_atom_site_fract_x
_atom_site_fract_y
_atom_site_fract_z
_atom_type_partial_charge
H0 H 0.99889 0.06069 0.0296 0.0
H1 H 0.03612 0.99413 0.0574 0.0
H2 H 0.06252 0.03043 0.9897 0.0
C3 C 0.01377 0.04679 0.02805 0.0
C4 C 0.0305 0.04797 0.00751 0.0
C5 C 0.0156 0.02747 0.0462 0.0
C6 C 0.03448 0.00905 0.04349 0.0
C7 C 0.05136 0.00978 0.02301 0.0
C8 C 0.04915 0.0293 0.00511 0.0
H9 H 0.27613 0.66542 0.25557 0.0
H10 H 0.29548 0.73194 0.21322 0.0
H11 H 0.22199 0.69498 0.20129 0.0
C12 C 0.27097 0.67943 0.24156 0.0
C13 C 0.24698 0.67769 0.22899 0.0
C14 C 0.28854 0.69892 0.23591 0.0
C15 C 0.28178 0.71705 0.21776 0.0
C16 C 0.25774 0.71604 0.20529 0.0
C17 C 0.24043 0.6962 0.21101 0.0
H18 H 0.96779 0.46994 0.09592 0.0
H19 H 0.00687 0.40223 0.0729 0.0
H20 H 0.94588 0.43042 0.02607 0.0
C21 C 0.9701 0.4542 0.08256 0.0
C22 C 0.95512 0.45285 0.06002 0.0
C23 C 0.98845 0.4357 0.08771 0.0
C24 C 0.99189 0.41576 0.06976 0.0
C25 C 0.97699 0.41411 0.04711 0.0
C26 C 0.95808 0.43218 0.04301 0.0
H27 H 0.69555 0.73619 0.20432 0.0
H28 H 0.76225 0.7812 0.18689 0.0
H29 H 0.70972 0.80819 0.24273 0.0
C30 C 0.7077 0.75296 0.20765 0.0
C31 C 0.70067 0.77145 0.22569 0.0
C32 C 0.7295 0.75676 0.19296 0.0
C33 C 0.74486 0.77885 0.19739 0.0
C34 C 0.73816 0.79758 0.21548 0.0
C35 C 0.71571 0.79376 0.22921 0.0
H36 H 0.0177 0.94808 0.43975 0.0
H37 H 0.06542 0.0101 0.41592 0.0
H38 H 0.08077 0.97434 0.48779 0.0
C39 C 0.03379 0.96102 0.44348 0.0
C40 C 0.04854 0.9588 0.46601 0.0
C41 C 0.03917 0.98003 0.4258 0.0
C42 C 0.06094 0.99578 0.42981 0.0
C43 C 0.0765 0.99356 0.45191 0.0
C44 C 0.06985 0.97523 0.47006 0.0
H45 H 0.17656 0.75698 0.78653 0.0
H46 H 0.24262 0.71371 0.80532 0.0
H47 H 0.20368 0.7012 0.73286 0.0
C48 C 0.19019 0.74265 0.78138 0.0
C49 C 0.18767 0.72972 0.75762 0.0
C50 C 0.21 0.737 0.79869 0.0
C51 C 0.2275 0.71829 0.79189 0.0
C52 C 0.22556 0.70528 0.76816 0.0
C53 C 0.20555 0.71122 0.75111 0.0
H54 H 0.90547 0.56585 0.50806 0.0
H55 H 0.9833 0.57723 0.48604 0.0
H56 H 0.93916 0.51297 0.45578 0.0
C57 C 0.92167 0.55973 0.49723 0.0
C58 C 0.91964 0.53745 0.48193 0.0
C59 C 0.94458 0.57418 0.49867 0.0
C60 C 0.96562 0.56615 0.48475 0.0
C61 C 0.96385 0.54411 0.46906 0.0
C62 C 0.94074 0.53001 0.46779 0.0
H63 H 0.8058 0.84401 0.88059 0.0
H64 H 0.82542 0.86626 0.80477 0.0
H65 H 0.86308 0.80383 0.83956 0.0
C66 C 0.8171 0.84161 0.86373 0.0
C67 C 0.83458 0.82171 0.86264 0.0
C68 C 0.81312 0.85756 0.8428 0.0
C69 C 0.82852 0.85465 0.82137 0.0
C70 C 0.84714 0.83586 0.82055 0.0
C71 C 0.85003 0.81946 0.84117 0.0
H72 H 0.30995 0.32429 0.36698 0.0
H73 H 0.33332 0.35536 0.29564 0.0
H74 H 0.37685 0.29675 0.33122 0.0
C75 C 0.32346 0.32547 0.35171 0.0
C76 C 0.34357 0.30836 0.3511 0.0
C77 C 0.31955 0.34264 0.3318 0.0
C78 C 0.33696 0.34329 0.31178 0.0
C79 C 0.35784 0.32692 0.31136 0.0
C80 C 0.36111 0.30976 0.33136 0.0
H81 H 0.47927 0.98263 0.57898 0.0
H82 H 0.51613 0.91192 0.56072 0.0
H83 H 0.45821 0.94052 0.51052 0.0
C84 C 0.48136 0.96592 0.5668 0.0
C85 C 0.46635 0.96346 0.54439 0.0
C86 C 0.49952 0.94751 0.57305 0.0
C87 C 0.50246 0.92644 0.55628 0.0
C88 C 0.48801 0.92422 0.53342 0.0
C89 C 0.4699 0.94265 0.5278 0.0
H90 H 0.19975 0.23097 0.70769 0.0
H91 H 0.26317 0.27814 0.68443 0.0
H92 H 0.21551 0.30332 0.74511 0.0
C93 C 0.21144 0.24821 0.70978 0.0
C94 C 0.20519 0.26671 0.72815 0.0
C95 C 0.23228 0.25217 0.69372 0.0
C96 C 0.24721 0.27475 0.69676 0.0
C97 C 0.24152 0.29314 0.71551 0.0
C98 C 0.22039 0.28897 0.73097 0.0
H99 H 0.77897 0.1827 0.75339 0.0
H100 H 0.80468 0.24234 0.70444 0.0
H101 H 0.73046 0.20784 0.69173 0.0
C102 C 0.77539 0.1954 0.73773 0.0
C103 C 0.75216 0.19326 0.72371 0.0
C104 C 0.79456 0.21296 0.73091 0.0
C105 C 0.79022 0.22849 0.70977 0.0
C106 C 0.76726 0.22665 0.69551 0.0
C107 C 0.74818 0.20926 0.70276 0.0
H108 H 0.48747 0.55492 0.52634 0.0
H109 H 0.52887 0.49167 0.55573 0.0
H110 H 0.55596 0.53112 0.49009 0.0
C111 C 0.50346 0.54225 0.52533 0.0
C112 C 0.52134 0.54533 0.50598 0.0
C113 C 0.50602 0.52296 0.54341 0.0
C114 C 0.52682 0.50661 0.5419 0.0
C115 C 0.54499 0.50935 0.52277 0.0
C116 C 0.54207 0.52882 0.5049 0.0
H117 H 0.52563 0.45468 0.92655 0.0
H118 H 0.57571 0.51366 0.89981 0.0
H119 H 0.59115 0.47868 0.97212 0.0
C120 C 0.54258 0.46667 0.92926 0.0
C121 C 0.5574 0.46475 0.95177 0.0
C122 C 0.54898 0.4842 0.91041 0.0
C123 C 0.57086 0.49989 0.91415 0.0
C124 C 0.58639 0.49794 0.9363 0.0
C125 C 0.57945 0.48027 0.95496 0.0
H126 H 0.67673 0.25479 0.26751 0.0
H127 H 0.74425 0.21458 0.28849 0.0
H128 H 0.7084 0.20106 0.21473 0.0
C129 C 0.69155 0.2416 0.26276 0.0
C130 C 0.69049 0.22887 0.23886 0.0
C131 C 0.71094 0.23674 0.28087 0.0
C132 C 0.7293 0.2186 0.2747 0.0
C133 C 0.72838 0.20525 0.25109 0.0
C134 C 0.70896 0.2107 0.23322 0.0
H135 H 0.40861 0.0671 0.00904 0.0
H136 H 0.46795 0.09304 0.95985 0.0
H137 H 0.43366 0.01858 0.94776 0.0
C138 C 0.42071 0.06379 0.99289 0.0
C139 C 0.41888 0.04042 0.97923 0.0
C140 C 0.43825 0.08294 0.98584 0.0
C141 C 0.45423 0.07845 0.96516 0.0
C142 C 0.45279 0.05523 0.95141 0.0
C143 C 0.43489 0.0365 0.95841 0.0
Zn144 Zn 0.28798 0.83862 0.00913 0.0
Zn145 Zn 0.24529 0.86504 0.01127 0.0
O146 O 0.24449 0.84306 0.04409 0.0
O147 O 0.28093 0.82305 0.04285 0.0
O148 O 0.21413 0.88713 0.01445 0.0
O149 O 0.30966 0.87051 0.00873 0.0
O150 O 0.27452 0.89258 0.01005 0.0
C151 C 0.2604 0.82782 0.05398 0.0
C152 C 0.25333 0.82751 0.96647 0.0
O153 O 0.23967 0.84409 0.97746 0.0
O154 O 0.27466 0.82178 0.97633 0.0
C155 C 0.19247 0.88258 0.00369 0.0
O156 O 0.18909 0.86189 0.98935 0.0
C157 C 0.29879 0.89178 0.00931 0.0
Zn158 Zn 0.09822 0.43499 0.30785 0.0
Zn159 Zn 0.12081 0.47924 0.29511 0.0
O160 O 0.0992 0.48978 0.32579 0.0
O161 O 0.08435 0.45278 0.33897 0.0
O162 O 0.13961 0.51171 0.2861 0.0
O163 O 0.13229 0.41826 0.31013 0.0
O164 O 0.15066 0.45557 0.30336 0.0
C165 C 0.08663 0.47677 0.34172 0.0
C166 C 0.08363 0.45107 0.25749 0.0
O167 O 0.09985 0.46903 0.26259 0.0
O168 O 0.07873 0.43454 0.27409 0.0
C169 C 0.13084 0.52888 0.27176 0.0
O170 O 0.10766 0.52609 0.26193 0.0
C171 C 0.15229 0.43194 0.30816 0.0
Zn172 Zn 0.80822 0.60412 0.95334 0.0
Zn173 Zn 0.79266 0.62459 0.99784 0.0
O174 O 0.82047 0.59987 0.00944 0.0
O175 O 0.8354 0.58577 0.97291 0.0
O176 O 0.78347 0.64278 0.03051 0.0
O177 O 0.81683 0.63881 0.93978 0.0
O178 O 0.80468 0.65501 0.97647 0.0
C179 C 0.83616 0.58647 0.99708 0.0
C180 C 0.75517 0.59243 0.96456 0.0
O181 O 0.75974 0.60647 0.98436 0.0
O182 O 0.77264 0.58836 0.94876 0.0
C183 C 0.76588 0.63664 0.04565 0.0
O184 O 0.75156 0.61624 0.04053 0.0
C185 C 0.81362 0.65798 0.95429 0.0
Zn186 Zn 0.8472 0.00635 0.28507 0.0
Zn187 Zn 0.87281 0.00817 0.24183 0.0
O188 O 0.85114 0.0411 0.24109 0.0
O189 O 0.82946 0.03858 0.27652 0.0
O190 O 0.8942 0.00905 0.20988 0.0
O191 O 0.87925 0.00916 0.30611 0.0
O192 O 0.90097 0.00756 0.27069 0.0
C193 C 0.83495 0.05025 0.2564 0.0
C194 C 0.83731 0.96233 0.25268 0.0
O195 O 0.85153 0.97445 0.23741 0.0
O196 O 0.83297 0.97161 0.27459 0.0
C197 C 0.89228 0.02525 0.19222 0.0
O198 O 0.87495 0.04286 0.19378 0.0
C199 C 0.90038 0.0087 0.29503 0.0
Zn200 Zn 0.29264 0.09845 0.44968 0.0
Zn201 Zn 0.28682 0.12079 0.49531 0.0
O202 O 0.31485 0.09492 0.50302 0.0
O203 O 0.31656 0.07397 0.46628 0.0
O204 O 0.28201 0.13949 0.5289 0.0
O205 O 0.30722 0.13095 0.43589 0.0
O206 O 0.29835 0.15019 0.47225 0.0
C207 C 0.32396 0.0771 0.48933 0.0
C208 C 0.24162 0.09353 0.46659 0.0
O209 O 0.25151 0.10413 0.48669 0.0
O210 O 0.25493 0.0902 0.44701 0.0
C211 C 0.26663 0.13222 0.54583 0.0
O212 O 0.2533 0.11092 0.54204 0.0
C213 C 0.30675 0.15102 0.44965 0.0
Zn214 Zn 0.34492 0.50377 0.78596 0.0
Zn215 Zn 0.36786 0.50801 0.74177 0.0
O216 O 0.34634 0.54086 0.74415 0.0
O217 O 0.33143 0.53915 0.78305 0.0
O218 O 0.38748 0.51248 0.7091 0.0
O219 O 0.3781 0.49814 0.8045 0.0
O220 O 0.39755 0.50569 0.76857 0.0
C221 C 0.33382 0.55079 0.76229 0.0
C222 C 0.32973 0.46365 0.75045 0.0
O223 O 0.34651 0.47423 0.73664 0.0
O224 O 0.32469 0.47342 0.77199 0.0
C225 C 0.38364 0.49995 0.68826 0.0
O226 O 0.36509 0.48272 0.68664 0.0
C227 C 0.39849 0.50089 0.79235 0.0
Zn228 Zn 0.781 0.34029 0.48702 0.0
Zn229 Zn 0.73929 0.36682 0.49484 0.0
O230 O 0.74199 0.34515 0.52778 0.0
O231 O 0.77933 0.32753 0.52285 0.0
O232 O 0.70808 0.38873 0.49875 0.0
O233 O 0.80115 0.37247 0.48024 0.0
O234 O 0.76795 0.3944 0.49184 0.0
C235 C 0.75998 0.33141 0.53623 0.0
C236 C 0.74223 0.32799 0.44985 0.0
O237 O 0.73108 0.34619 0.46123 0.0
O238 O 0.7636 0.3205 0.45798 0.0
C239 C 0.69108 0.38642 0.51552 0.0
O240 O 0.69288 0.36821 0.53226 0.0
C241 C 0.79109 0.3937 0.485 0.0
Zn242 Zn 0.59836 0.9511 0.79253 0.0
Zn243 Zn 0.6213 0.99649 0.78561 0.0
O244 O 0.59421 0.00546 0.8121 0.0
O245 O 0.57435 0.96843 0.81649 0.0
O246 O 0.64035 0.02982 0.77986 0.0
O247 O 0.631 0.93659 0.80553 0.0
O248 O 0.65023 0.97344 0.79864 0.0
C249 C 0.57664 0.992 0.82205 0.0
C250 C 0.59444 0.96654 0.74085 0.0
O251 O 0.6058 0.98658 0.74998 0.0
O252 O 0.58966 0.94792 0.75509 0.0
C253 C 0.63269 0.04652 0.76435 0.0
O254 O 0.61098 0.04258 0.75175 0.0
C255 C 0.65111 0.95037 0.8058 0.0
Zn256 Zn 0.0003 0.28765 0.84287 0.0
Zn257 Zn 0.00329 0.24374 0.8668 0.0
O258 O 0.03699 0.24527 0.84616 0.0
O259 O 0.03451 0.28272 0.82803 0.0
O260 O 0.00509 0.21118 0.88709 0.0
O261 O 0.99886 0.30736 0.87579 0.0
O262 O 0.00136 0.27112 0.89606 0.0
C263 C 0.04654 0.26255 0.83219 0.0
C264 C 0.95913 0.25314 0.82836 0.0
O265 O 0.97012 0.23883 0.84448 0.0
O266 O 0.96847 0.27506 0.82408 0.0
C267 C 0.01985 0.19273 0.88278 0.0
O268 O 0.0351 0.19376 0.86329 0.0
C269 C -6e-05 0.29537 0.89647 0.0
Zn270 Zn 0.49273 0.78275 0.33869 0.0
Zn271 Zn 0.50008 0.74124 0.36413 0.0
O272 O 0.53297 0.74446 0.34264 0.0
O273 O 0.5282 0.78218 0.32566 0.0
O274 O 0.506 0.70993 0.38564 0.0
O275 O 0.48569 0.8031 0.37013 0.0
O276 O 0.49674 0.76974 0.39223 0.0
C277 C 0.54149 0.7627 0.32924 0.0
C278 C 0.45554 0.74468 0.32469 0.0
O279 O 0.46677 0.73275 0.34259 0.0
O280 O 0.46386 0.76645 0.31847 0.0
C281 C 0.49694 0.68767 0.38043 0.0
O282 O 0.483 0.68385 0.3595 0.0
C283 C 0.49007 0.79297 0.39142 0.0
Zn284 Zn 0.94255 0.79497 0.60348 0.0
Zn285 Zn 0.98703 0.78419 0.62709 0.0
O286 O 0.99749 0.81343 0.60331 0.0
O287 O 0.96081 0.82289 0.58481 0.0
O288 O 0.01941 0.77715 0.64717 0.0
O289 O 0.92661 0.80396 0.6367 0.0
O290 O 0.96259 0.79406 0.65612 0.0
C291 C 0.98456 0.82694 0.58799 0.0
C292 C 0.95846 0.74326 0.59414 0.0
O293 O 0.97782 0.7504 0.60785 0.0
O294 O 0.94063 0.75858 0.58979 0.0
C295 C 0.03722 0.7631 0.63944 0.0
O296 O 0.03515 0.75217 0.61668 0.0
C297 C 0.9397 0.80169 0.65705 0.0
Zn298 Zn 0.44684 0.30571 0.09025 0.0
Zn299 Zn 0.49146 0.29096 0.11142 0.0
O300 O 0.50256 0.32042 0.08818 0.0
O301 O 0.46586 0.33416 0.07315 0.0
O302 O 0.52406 0.28163 0.12988 0.0
O303 O 0.43246 0.31267 0.12491 0.0
O304 O 0.46907 0.30093 0.14173 0.0
C305 C 0.48994 0.33603 0.07481 0.0
C306 C 0.45977 0.25344 0.07751 0.0
O307 O 0.47924 0.25834 0.09192 0.0
O308 O 0.44346 0.27047 0.07355 0.0
C309 C 0.54031 0.26584 0.12204 0.0
O310 O 0.53648 0.25415 0.09982 0.0
C311 C 0.44656 0.30907 0.14436 0.0
H312 H 0.22031 0.71609 0.84502 0.0
H313 H 0.20527 0.78808 0.80972 0.0
H314 H 0.22828 0.73809 0.88588 0.0
H315 H 0.21315 0.81016 0.85084 0.0
H316 H 0.2759 0.78811 0.94194 0.0
H317 H 0.26276 0.76673 0.90219 0.0
H318 H 0.19795 0.81566 0.89586 0.0
H319 H 0.21129 0.83749 0.936 0.0
C320 C 0.21872 0.73664 0.84598 0.0
C321 C 0.21254 0.75036 0.824 0.0
C322 C 0.22323 0.74924 0.86942 0.0
C323 C 0.22166 0.77591 0.87155 0.0
C324 C 0.21437 0.78959 0.84985 0.0
C325 C 0.20988 0.77694 0.8263 0.0
C326 C 0.25879 0.79439 0.93221 0.0
C327 C 0.24465 0.81456 0.94224 0.0
C328 C 0.25116 0.78196 0.90944 0.0
C329 C 0.2292 0.78934 0.89595 0.0
C330 C 0.21503 0.8096 0.9058 0.0
C331 C 0.2226 0.82201 0.92881 0.0
H332 H 0.97923 0.49538 0.45973 0.0
H333 H 0.9983 0.57385 0.44342 0.0
H334 H 0.01129 0.48123 0.43067 0.0
H335 H 0.03218 0.5597 0.41584 0.0
H336 H 0.06491 0.52362 0.34245 0.0
H337 H 0.03807 0.54132 0.37551 0.0
H338 H 0.05377 0.47651 0.42272 0.0
H339 H 0.079 0.45823 0.38892 0.0
C340 C 0.99045 0.50968 0.45011 0.0
C341 C 0.98578 0.53577 0.45363 0.0
C342 C 0.0093 0.50154 0.43371 0.0
C343 C 0.02452 0.51926 0.42073 0.0
C344 C 0.02061 0.54544 0.42511 0.0
C345 C 0.00139 0.55359 0.44127 0.0
C346 C 0.06276 0.51339 0.36006 0.0
C347 C 0.07367 0.48942 0.36304 0.0
C348 C 0.04748 0.52356 0.37912 0.0
C349 C 0.04328 0.51019 0.40178 0.0
C350 C 0.05576 0.487 0.40528 0.0
C351 C 0.07044 0.47658 0.386 0.0
H352 H 0.87477 0.79442 0.88189 0.0
H353 H 0.79309 0.80192 0.88678 0.0
H354 H 0.87229 0.7563 0.9079 0.0
H355 H 0.79101 0.76473 0.91344 0.0
H356 H 0.79795 0.70383 0.97347 0.0
H357 H 0.80575 0.74613 0.95593 0.0
H358 H 0.8513 0.71265 0.89704 0.0
H359 H 0.84343 0.67049 0.91432 0.0
C360 C 0.85638 0.78825 0.88876 0.0
C361 C 0.83414 0.80128 0.88201 0.0
C362 C 0.85501 0.76651 0.90374 0.0
C363 C 0.83145 0.75758 0.9126 0.0
C364 C 0.80948 0.77138 0.90716 0.0
C365 C 0.81075 0.79285 0.89191 0.0
C366 C 0.80986 0.70556 0.95697 0.0
C367 C 0.81987 0.68381 0.94512 0.0
C368 C 0.81429 0.72973 0.94694 0.0
C369 C 0.82916 0.73262 0.92518 0.0
C370 C 0.84001 0.71101 0.914 0.0
C371 C 0.83529 0.68685 0.92377 0.0
H372 H 0.0488 0.99179 0.37566 0.0
H373 H 0.98749 0.97934 0.42795 0.0
H374 H 0.01748 0.00148 0.3419 0.0
H375 H 0.95662 0.98779 0.39437 0.0
H376 H 0.90729 0.02993 0.34213 0.0
H377 H 0.94292 0.02481 0.37178 0.0
H378 H 0.98222 0.9814 0.31454 0.0
H379 H 0.94646 0.98729 0.28428 0.0
C380 C 0.02872 0.99102 0.37992 0.0
C381 C 0.02068 0.98472 0.40451 0.0
C382 C 0.01081 0.99636 0.36056 0.0
C383 C 0.98458 0.9957 0.36553 0.0
C384 C 0.97668 0.98898 0.38998 0.0
C385 C 0.99443 0.98371 0.40919 0.0
C386 C 0.92367 0.01957 0.3357 0.0
C387 C 0.92394 0.00866 0.31103 0.0
C388 C 0.94404 0.01652 0.35275 0.0
C389 C 0.96511 0.00212 0.34575 0.0
C390 C 0.96622 0.99255 0.32051 0.0
C391 C 0.94578 0.99588 0.30321 0.0
H392 H 0.27898 0.23566 0.67875 0.0
H393 H 0.19829 0.22577 0.66214 0.0
H394 H 0.28807 0.20561 0.64414 0.0
H395 H 0.20739 0.19558 0.62782 0.0
H396 H 0.23196 0.125 0.58339 0.0
H397 H 0.22439 0.15274 0.62025 0.0
H398 H 0.28479 0.20393 0.59712 0.0
H399 H 0.29258 0.17611 0.56045 0.0
C400 C 0.26318 0.22715 0.66769 0.0
C401 C 0.2379 0.23316 0.67325 0.0
C402 C 0.2684 0.20991 0.64789 0.0
C403 C 0.24845 0.19819 0.63324 0.0
C404 C 0.22318 0.20396 0.639 0.0
C405 C 0.21797 0.22126 0.65871 0.0
C406 C 0.24375 0.14208 0.58625 0.0
C407 C 0.26283 0.14836 0.56891 0.0
C408 C 0.2393 0.15805 0.6073 0.0
C409 C 0.25393 0.18058 0.61157 0.0
C410 C 0.27336 0.18658 0.59453 0.0
C411 C 0.27772 0.17069 0.57342 0.0
H412 H 0.48464 0.56042 0.57255 0.0
H413 H 0.4846 0.47869 0.56084 0.0
H414 H 0.45405 0.55544 0.60657 0.0
H415 H 0.45471 0.47365 0.59542 0.0
H416 H 0.38206 0.47528 0.64166 0.0
H417 H 0.41064 0.48135 0.60614 0.0
H418 H 0.45253 0.53975 0.6499 0.0
H419 H 0.42373 0.53401 0.68524 0.0
C420 C 0.47803 0.54139 0.57716 0.0
C421 C 0.4871 0.51996 0.56396 0.0
C422 C 0.4607 0.53852 0.59685 0.0
C423 C 0.45194 0.51414 0.6038 0.0
C424 C 0.46084 0.49272 0.59042 0.0
C425 C 0.47821 0.49559 0.57078 0.0
C426 C 0.39729 0.4895 0.64368 0.0
C427 C 0.40058 0.50413 0.66635 0.0
C428 C 0.41378 0.49287 0.62335 0.0
C429 C 0.43395 0.511 0.62516 0.0
C430 C 0.43704 0.52584 0.64772 0.0
C431 C 0.42058 0.52243 0.66806 0.0
H432 H 0.72777 0.25776 0.68259 0.0
H433 H 0.79947 0.23018 0.65605 0.0
H434 H 0.72446 0.28521 0.64535 0.0
H435 H 0.79585 0.25642 0.61856 0.0
H436 H 0.79969 0.3228 0.56831 0.0
H437 H 0.79985 0.29903 0.60749 0.0
H438 H 0.71814 0.2876 0.60002 0.0
H439 H 0.718 0.31287 0.56111 0.0
C440 C 0.74264 0.2574 0.66861 0.0
C441 C 0.76404 0.24215 0.67232 0.0
C442 C 0.74075 0.27303 0.64724 0.0
C443 C 0.7601 0.27347 0.62906 0.0
C444 C 0.78097 0.25736 0.63248 0.0
C445 C 0.783 0.24212 0.6539 0.0
C446 C 0.7817 0.31545 0.57518 0.0
C447 C 0.75887 0.31945 0.56153 0.0
C448 C 0.78179 0.30156 0.59756 0.0
C449 C 0.7591 0.29069 0.60669 0.0
C450 C 0.73599 0.29567 0.59363 0.0
C451 C 0.73587 0.3101 0.57132 0.0
H452 H 0.48586 0.9676 0.61944 0.0
H453 H 0.54975 0.93483 0.58079 0.0
H454 H 0.51252 0.97456 0.65768 0.0
H455 H 0.57576 0.94041 0.61989 0.0
H456 H 0.5892 0.9242 0.71035 0.0
H457 H 0.56878 0.92072 0.66795 0.0
H458 H 0.55734 0.00192 0.66897 0.0
H459 H 0.57851 0.00561 0.71121 0.0
C460 C 0.50558 0.96205 0.61891 0.0
C461 C 0.51559 0.95076 0.5968 0.0
C462 C 0.52078 0.966 0.6409 0.0
C463 C 0.54615 0.95822 0.64151 0.0
C464 C 0.5562 0.94659 0.61974 0.0
C465 C 0.54117 0.94315 0.59749 0.0
C466 C 0.58277 0.94137 0.7013 0.0
C467 C 0.58532 0.96517 0.71403 0.0
C468 C 0.5712 0.93937 0.67707 0.0
C469 C 0.56147 0.96103 0.66542 0.0
C470 C 0.56472 0.98497 0.67772 0.0
C471 C 0.57688 0.98708 0.70174 0.0
H472 H 0.84243 0.21886 0.71196 0.0
H473 H 0.8028 0.21148 0.78289 0.0
H474 H 0.88249 0.22596 0.73568 0.0
H475 H 0.84318 0.21818 0.80664 0.0
H476 H 0.92693 0.2124 0.83819 0.0
H477 H 0.88737 0.19975 0.81484 0.0
H478 H 0.89869 0.26213 0.76351 0.0
H479 H 0.93777 0.27469 0.78652 0.0
C480 C 0.84223 0.21876 0.73262 0.0
C481 C 0.81928 0.21502 0.7455 0.0
C482 C 0.86523 0.22271 0.7462 0.0
C483 C 0.86595 0.22287 0.77303 0.0
C484 C 0.84324 0.218 0.78597 0.0
C485 C 0.82012 0.21417 0.77235 0.0
C486 C 0.92098 0.22329 0.82184 0.0
C487 C 0.93552 0.24456 0.81425 0.0
C488 C 0.8983 0.21613 0.80858 0.0
C489 C 0.89002 0.22987 0.78726 0.0
C490 C 0.90472 0.25093 0.77962 0.0
C491 C 0.92708 0.25823 0.79296 0.0
H492 H 0.48771 0.8726 0.54155 0.0
H493 H 0.49683 0.92862 0.48308 0.0
H494 H 0.4882 0.83836 0.50882 0.0
H495 H 0.49783 0.89483 0.45071 0.0
H496 H 0.46378 0.83643 0.39695 0.0
H497 H 0.46471 0.86617 0.43295 0.0
H498 H 0.51397 0.81638 0.4751 0.0
H499 H 0.51259 0.78593 0.43878 0.0
C500 C 0.49029 0.87751 0.52178 0.0
C501 C 0.49184 0.90319 0.51471 0.0
C502 C 0.49057 0.85797 0.50309 0.0
C503 C 0.49247 0.86393 0.47712 0.0
C504 C 0.49558 0.88961 0.47044 0.0
C505 C 0.49515 0.90898 0.48897 0.0
C506 C 0.47468 0.83163 0.41393 0.0
C507 C 0.48841 0.80899 0.41488 0.0
C508 C 0.47534 0.84879 0.43454 0.0
C509 C 0.48995 0.84395 0.45664 0.0
C510 C 0.50263 0.82066 0.45826 0.0
C511 C 0.50184 0.80326 0.43751 0.0
H512 H 0.16763 0.3007 0.73409 0.0
H513 H 0.19043 0.22581 0.75673 0.0
H514 H 0.13038 0.29735 0.76051 0.0
H515 H 0.15328 0.22262 0.78422 0.0
H516 H 0.06804 0.21993 0.81086 0.0
H517 H 0.10707 0.21902 0.78583 0.0
H518 H 0.12112 0.2989 0.80416 0.0
H519 H 0.08195 0.29993 0.82775 0.0
C520 C 0.16472 0.28358 0.74497 0.0
C521 C 0.18205 0.26367 0.74363 0.0
C522 C 0.14344 0.28166 0.76027 0.0
C523 C 0.13904 0.25992 0.77502 0.0
C524 C 0.15603 0.23962 0.77313 0.0
C525 C 0.17731 0.24144 0.75747 0.0
C526 C 0.07977 0.2371 0.8097 0.0
C527 C 0.07187 0.26009 0.82085 0.0
C528 C 0.1021 0.23663 0.79541 0.0
C529 C 0.11694 0.25907 0.79239 0.0
C530 C 0.10976 0.28148 0.80522 0.0
C531 C 0.0874 0.28204 0.81897 0.0
H532 H 0.47772 0.55896 0.48061 0.0
H533 H 0.55803 0.57806 0.48824 0.0
H534 H 0.4724 0.59313 0.45017 0.0
H535 H 0.55284 0.61186 0.45725 0.0
H536 H 0.52661 0.68829 0.4242 0.0
H537 H 0.53288 0.65369 0.45399 0.0
H538 H 0.48386 0.60425 0.40662 0.0
H539 H 0.47735 0.63888 0.37697 0.0
C540 C 0.49424 0.57047 0.47579 0.0
C541 C 0.51828 0.56582 0.48692 0.0
C542 C 0.49124 0.58989 0.45813 0.0
C543 C 0.51219 0.60524 0.45123 0.0
C544 C 0.53626 0.60055 0.46231 0.0
C545 C 0.53929 0.58102 0.47988 0.0
C546 C 0.51721 0.67003 0.42009 0.0
C547 C 0.50142 0.66641 0.39819 0.0
C548 C 0.52093 0.65014 0.43711 0.0
C549 C 0.50884 0.6262 0.43274 0.0
C550 C 0.49321 0.62254 0.41074 0.0
C551 C 0.48959 0.64238 0.39365 0.0
H552 H 0.89866 0.83129 0.81631 0.0
H553 H 0.82833 0.83022 0.77199 0.0
H554 H 0.92251 0.8242 0.77731 0.0
H555 H 0.85171 0.82212 0.73328 0.0
H556 H 0.89969 0.83248 0.66499 0.0
H557 H 0.87889 0.84194 0.7048 0.0
H558 H 0.93173 0.79386 0.74481 0.0
H559 H 0.95341 0.78542 0.70481 0.0
C560 C 0.88835 0.82941 0.79819 0.0
C561 C 0.86174 0.83162 0.79705 0.0
C562 C 0.90194 0.8252 0.77588 0.0
C563 C 0.88912 0.82277 0.75202 0.0
C564 C 0.86238 0.82458 0.75113 0.0
C565 C 0.84891 0.82913 0.77332 0.0
C566 C 0.90695 0.824 0.6823 0.0
C567 C 0.92806 0.80803 0.68174 0.0
C568 C 0.8949 0.82928 0.70516 0.0
C569 C 0.9033 0.81836 0.72807 0.0
C570 C 0.92482 0.8028 0.72762 0.0
C571 C 0.9372 0.79783 0.70469 0.0
H572 H 0.07912 0.93056 0.49782 0.0
H573 H 0.00012 0.94499 0.4793 0.0
H574 H 0.06573 0.90066 0.53022 0.0
H575 H 0.9869 0.91366 0.50956 0.0
H576 H 0.9653 0.87317 0.57869 0.0
H577 H 0.98271 0.90641 0.55219 0.0
H578 H 0.04798 0.85995 0.53705 0.0
H579 H 0.03108 0.8274 0.56535 0.0
C580 C 0.05893 0.92736 0.50056 0.0
C581 C 0.04076 0.9402 0.48572 0.0
C582 C 0.05123 0.9099 0.51893 0.0
C583 C 0.02518 0.90466 0.52274 0.0
C584 C 0.00712 0.91746 0.50776 0.0
C585 C 0.01477 0.93516 0.48984 0.0
C586 C 0.98353 0.87026 0.56993 0.0
C587 C 0.99676 0.8477 0.57381 0.0
C588 C 0.99346 0.8892 0.55449 0.0
C589 C 0.01651 0.88573 0.5418 0.0
C590 C 0.03026 0.86346 0.54654 0.0
C591 C 0.02058 0.84473 0.56265 0.0
H592 H 0.1377 0.73573 0.76949 0.0
H593 H 0.18837 0.73554 0.70573 0.0
H594 H 0.10188 0.744 0.74071 0.0
H595 H 0.1525 0.74401 0.67685 0.0
H596 H 0.07748 0.73207 0.63036 0.0
H597 H 0.11393 0.72416 0.65862 0.0
H598 H 0.08478 0.77696 0.71452 0.0
H599 H 0.04812 0.7844 0.6866 0.0
C600 C 0.14124 0.73775 0.74935 0.0
C601 C 0.16592 0.73506 0.73993 0.0
C602 C 0.12069 0.74251 0.73282 0.0
C603 C 0.12428 0.74476 0.70643 0.0
C604 C 0.14897 0.74204 0.697 0.0
C605 C 0.16954 0.73723 0.71355 0.0
C606 C 0.07887 0.74202 0.64866 0.0
C607 C 0.0598 0.75879 0.65623 0.0
C608 C 0.09986 0.73759 0.66482 0.0
C609 C 0.10229 0.74986 0.68891 0.0
C610 C 0.08334 0.76686 0.6963 0.0
C611 C 0.06236 0.77124 0.6802 0.0
H612 H 0.98022 0.58752 0.5356 0.0
H613 H 0.91322 0.61459 0.49648 0.0
H614 H 0.98344 0.62716 0.56085 0.0
H615 H 0.91701 0.65474 0.52047 0.0
H616 H 0.9154 0.71616 0.58051 0.0
H617 H 0.9119 0.67441 0.55971 0.0
H618 H 0.99415 0.67046 0.55965 0.0
H619 H 0.99743 0.71173 0.58196 0.0
C620 C 0.96629 0.60211 0.53235 0.0
C621 C 0.9464 0.59804 0.51425 0.0
C622 C 0.96819 0.62491 0.54666 0.0
C623 C 0.95048 0.64434 0.54285 0.0
C624 C 0.93068 0.64012 0.52452 0.0
C625 C 0.92853 0.61716 0.51059 0.0
C626 C 0.93272 0.70626 0.57621 0.0
C627 C 0.95669 0.71726 0.58273 0.0
C628 C 0.93075 0.68236 0.56405 0.0
C629 C 0.95273 0.66902 0.55754 0.0
C630 C 0.97675 0.67989 0.56457 0.0
C631 C 0.97869 0.70364 0.57725 0.0
H632 H 0.74703 0.8241 0.26064 0.0
H633 H 0.7664 0.82469 0.18089 0.0
H634 H 0.77121 0.86328 0.26797 0.0
H635 H 0.79304 0.86263 0.18887 0.0
H636 H 0.81687 0.94638 0.20631 0.0
H637 H 0.79374 0.90624 0.19658 0.0
H638 H 0.81096 0.88093 0.27306 0.0
H639 H 0.83212 0.92163 0.28301 0.0
C640 C 0.7565 0.83247 0.24459 0.0
C641 C 0.7544 0.8211 0.22008 0.0
C642 C 0.77098 0.85484 0.24895 0.0
C643 C 0.7845 0.86627 0.22911 0.0
C644 C 0.78274 0.85471 0.20463 0.0
C645 C 0.76774 0.83257 0.20013 0.0
C646 C 0.81571 0.93207 0.22088 0.0
C647 C 0.82595 0.93714 0.24547 0.0
C648 C 0.80257 0.90896 0.21533 0.0
C649 C 0.79998 0.89024 0.23413 0.0
C650 C 0.8116 0.89504 0.2583 0.0
C651 C 0.82402 0.91832 0.26399 0.0
H652 H 0.77942 0.20495 0.26412 0.0
H653 H 0.71982 0.15906 0.22622 0.0
H654 H 0.80795 0.16895 0.26182 0.0
H655 H 0.74896 0.12354 0.22294 0.0
H656 H 0.81959 0.07055 0.21065 0.0
H657 H 0.79586 0.11013 0.20471 0.0
H658 H 0.8002 0.12504 0.286 0.0
H659 H 0.82296 0.08557 0.29199 0.0
C660 C 0.77244 0.18735 0.25504 0.0
C661 C 0.74706 0.18484 0.24585 0.0
C662 C 0.7889 0.16684 0.25351 0.0
C663 C 0.78058 0.14351 0.24228 0.0
C664 C 0.75589 0.14144 0.23147 0.0
C665 C 0.73923 0.16184 0.23336 0.0
C666 C 0.81565 0.0825 0.22712 0.0
C667 C 0.82295 0.075 0.25178 0.0
C668 C 0.80206 0.105 0.22375 0.0
C669 C 0.79636 0.1206 0.24491 0.0
C670 C 0.80456 0.11348 0.26936 0.0
C671 C 0.81745 0.09083 0.27278 0.0
H672 H 0.36942 0.0447 0.99505 0.0
H673 H 0.42718 0.98925 0.98035 0.0
H674 H 0.33953 0.01029 0.00564 0.0
H675 H 0.39715 0.9551 0.98918 0.0
H676 H 0.34787 0.89794 0.02588 0.0
H677 H 0.37586 0.93504 0.02207 0.0
H678 H 0.31428 0.97597 0.98664 0.0
H679 H 0.2858 0.93888 0.99171 0.0
C680 C 0.37578 0.02522 0.99416 0.0
C681 C 0.4007 0.01978 0.98668 0.0
C682 C 0.35854 0.00546 -9e-05 0.0
C683 C 0.36583 0.97982 0.99831 0.0
C684 C 0.39085 0.97454 0.99109 0.0
C685 C 0.40805 0.9942 0.98559 0.0
C686 C 0.34022 0.91493 0.01748 0.0
C687 C 0.31472 0.9154 0.00881 0.0
C688 C 0.35633 0.93621 0.01512 0.0
C689 C 0.34757 0.95843 0.00354 0.0
C690 C 0.32171 0.95927 0.99578 0.0
C691 C 0.30539 0.938 0.99856 0.0
H692 H 0.27159 0.32785 0.34593 0.0
H693 H 0.3132 0.39115 0.31378 0.0
H694 H 0.23247 0.35089 0.3418 0.0
H695 H 0.27334 0.41344 0.30754 0.0
H696 H 0.19843 0.45551 0.31976 0.0
H697 H 0.23938 0.43522 0.32698 0.0
H698 H 0.20374 0.3616 0.30948 0.0
H699 H 0.16295 0.38168 0.3036 0.0
C700 C 0.27253 0.34681 0.33819 0.0
C701 C 0.29576 0.35761 0.33032 0.0
C702 C 0.24986 0.35987 0.3353 0.0
C703 C 0.24956 0.3839 0.32391 0.0
C704 C 0.27281 0.39503 0.3165 0.0
C705 C 0.29566 0.38209 0.31979 0.0
C706 C 0.19945 0.43499 0.3175 0.0
C707 C 0.17745 0.42015 0.31138 0.0
C708 C 0.22293 0.42335 0.32151 0.0
C709 C 0.2249 0.39669 0.31914 0.0
C710 C 0.20291 0.38207 0.31226 0.0
C711 C 0.17948 0.39361 0.30868 0.0
H712 H 0.12238 0.98201 0.47466 0.0
H713 H 0.08274 0.04406 0.43927 0.0
H714 H 0.16011 0.00956 0.48088 0.0
H715 H 0.12118 0.07092 0.44423 0.0
H716 H 0.20934 0.08683 0.42551 0.0
H717 H 0.16761 0.06511 0.42409 0.0
H718 H 0.17293 0.05422 0.50543 0.0
H719 H 0.21452 0.07659 0.50705 0.0
C720 C 0.12151 0.00153 0.46844 0.0
C721 C 0.09939 0.01064 0.45631 0.0
C722 C 0.1432 0.01726 0.47197 0.0
C723 C 0.14345 0.04229 0.46303 0.0
C724 C 0.12143 0.0516 0.45115 0.0
C725 C 0.09953 0.03606 0.44809 0.0
C726 C 0.20141 0.08019 0.44316 0.0
C727 C 0.21516 0.08332 0.46638 0.0
C728 C 0.17753 0.06787 0.44234 0.0
C729 C 0.16723 0.05796 0.46463 0.0
C730 C 0.1806 0.06167 0.48799 0.0
C731 C 0.20426 0.07455 0.48891 0.0
H732 H 0.7233 0.16245 0.69094 0.0
H733 H 0.73714 0.17895 0.77125 0.0
H734 H 0.6932 0.12849 0.70156 0.0
H735 H 0.70717 0.14473 0.78185 0.0
H736 H 0.67768 0.0613 0.78831 0.0
H737 H 0.70511 0.09791 0.779 0.0
H738 H 0.65143 0.12058 0.72047 0.0
H739 H 0.6241 0.08378 0.72955 0.0
C740 C 0.71964 0.15912 0.71087 0.0
C741 C 0.7327 0.17346 0.73023 0.0
C742 C 0.7024 0.13959 0.71696 0.0
C743 C 0.69783 0.13383 0.74256 0.0
C744 C 0.71055 0.14843 0.76194 0.0
C745 C 0.72773 0.16803 0.75585 0.0
C746 C 0.67164 0.07415 0.77354 0.0
C747 C 0.64871 0.06953 0.75961 0.0
C748 C 0.68731 0.09524 0.7683 0.0
C749 C 0.68049 0.11216 0.74895 0.0
C750 C 0.65738 0.10774 0.73529 0.0
C751 C 0.64165 0.08672 0.7406 0.0
H752 H 0.43102 0.98406 0.57592 0.0
H753 H 0.45774 0.98584 0.49864 0.0
H754 H 0.39638 0.01235 0.5642 0.0
H755 H 0.42344 0.01416 0.487 0.0
H756 H 0.34284 0.03472 0.46662 0.0
H757 H 0.37759 0.00876 0.48144 0.0
H758 H 0.38594 0.05579 0.54988 0.0
H759 H 0.35051 0.08179 0.53516 0.0
C760 C 0.4297 0.99082 0.55656 0.0
C761 C 0.44685 0.98251 0.5381 0.0
C762 C 0.4099 0.00701 0.54985 0.0
C763 C 0.40695 0.01517 0.52459 0.0
C764 C 0.42482 0.0077 0.50647 0.0
C765 C 0.44449 0.99152 0.51313 0.0
C766 C 0.35195 0.03957 0.48489 0.0
C767 C 0.34401 0.06048 0.49961 0.0
C768 C 0.37203 0.02475 0.4933 0.0
C769 C 0.38481 0.03048 0.51662 0.0
C770 C 0.37643 0.0509 0.53182 0.0
C771 C 0.35619 0.0658 0.52338 0.0
H772 H 0.56518 0.48688 0.48028 0.0
H773 H 0.57442 0.49196 0.56236 0.0
H774 H 0.60037 0.45734 0.47836 0.0
H775 H 0.60949 0.46237 0.56044 0.0
H776 H 0.65228 0.38792 0.54954 0.0
H777 H 0.61722 0.4176 0.55099 0.0
H778 H 0.64642 0.45562 0.48504 0.0
H779 H 0.68126 0.42571 0.48332 0.0
C780 C 0.57487 0.48191 0.4979 0.0
C781 C 0.56688 0.49177 0.52148 0.0
C782 C 0.59504 0.46494 0.4968 0.0
C783 C 0.60773 0.45738 0.51926 0.0
C784 C 0.59987 0.46741 0.54281 0.0
C785 C 0.57974 0.48439 0.54391 0.0
C786 C 0.65123 0.40258 0.53532 0.0
C787 C 0.66962 0.40439 0.51632 0.0
C788 C 0.63119 0.41971 0.53624 0.0
C789 C 0.629 0.43906 0.51816 0.0
C790 C 0.64734 0.44079 0.49909 0.0
C791 C 0.66741 0.4237 0.49819 0.0
H792 H 0.72618 0.21825 0.32745 0.0
H793 H 0.69773 0.28619 0.29233 0.0
H794 H 0.73079 0.24098 0.36785 0.0
H795 H 0.69971 0.30821 0.33352 0.0
H796 H 0.7371 0.34957 0.40353 0.0
H797 H 0.72715 0.32775 0.36287 0.0
H798 H 0.71217 0.2578 0.40298 0.0
H799 H 0.72419 0.27952 0.44319 0.0
C800 C 0.72076 0.23803 0.32827 0.0
C801 C 0.71193 0.25035 0.30628 0.0
C802 C 0.72286 0.25102 0.35179 0.0
C803 C 0.71557 0.27661 0.35431 0.0
C804 C 0.70597 0.28871 0.33246 0.0
C805 C 0.70441 0.27586 0.30877 0.0
C806 C 0.73122 0.32964 0.4035 0.0
C807 C 0.73126 0.31615 0.4263 0.0
C808 C 0.72542 0.31704 0.3802 0.0
C809 C 0.71908 0.29075 0.37931 0.0
C810 C 0.71769 0.27778 0.40258 0.0
C811 C 0.72417 0.29025 0.42574 0.0
H812 H 0.50411 0.06572 0.9504 0.0
H813 H 0.44164 0.03271 0.90485 0.0
H814 H 0.53391 0.053 0.91762 0.0
H815 H 0.47141 0.01991 0.87221 0.0
H816 H 0.53446 0.96942 0.84174 0.0
H817 H 0.50454 0.98753 0.87123 0.0
H818 H 0.54711 0.05898 0.87241 0.0
H819 H 0.57753 0.04068 0.84276 0.0
C820 C 0.49668 0.05618 0.93319 0.0
C821 C 0.47054 0.04996 0.93035 0.0
C822 C 0.51376 0.0489 0.91442 0.0
C823 C 0.50504 0.03521 0.89248 0.0
C824 C 0.47877 0.03001 0.88914 0.0
C825 C 0.46172 0.03731 0.90785 0.0
C826 C 0.53753 0.98902 0.84818 0.0
C827 C 0.55847 0.00358 0.83988 0.0
C828 C 0.5202 0.99947 0.86496 0.0
C829 C 0.52333 0.02474 0.874 0.0
C830 C 0.54427 0.0394 0.86582 0.0
C831 C 0.56162 0.02895 0.8488 0.0
H832 H 0.34793 0.25861 0.33777 0.0
H833 H 0.33806 0.30844 0.40318 0.0
H834 H 0.34199 0.22177 0.36414 0.0
H835 H 0.33303 0.27123 0.43025 0.0
H836 H 0.29036 0.19925 0.45982 0.0
H837 H 0.30295 0.23834 0.43834 0.0
H838 H 0.35841 0.19627 0.39574 0.0
H839 H 0.3446 0.15724 0.41599 0.0
C840 C 0.34529 0.26165 0.35805 0.0
C841 C 0.34364 0.28639 0.36845 0.0
C842 C 0.34191 0.24046 0.37328 0.0
C843 C 0.3371 0.24338 0.39947 0.0
C844 C 0.33633 0.26822 0.41011 0.0
C845 C 0.3394 0.28953 0.39469 0.0
C846 C 0.30535 0.19854 0.44597 0.0
C847 C 0.31619 0.17523 0.43917 0.0
C848 C 0.31274 0.22094 0.43377 0.0
C849 C 0.33146 0.22048 0.41493 0.0
C850 C 0.34337 0.1973 0.4095 0.0
C851 C 0.33557 0.17491 0.4212 0.0
H852 H 0.53312 0.52796 0.88749 0.0
H853 H 0.52582 0.44582 0.88172 0.0
H854 H 0.49945 0.53159 0.85469 0.0
H855 H 0.49174 0.4496 0.84968 0.0
H856 H 0.40714 0.47332 0.83468 0.0
H857 H 0.44693 0.46902 0.8588 0.0
H858 H 0.48555 0.51771 0.80592 0.0
H859 H 0.44544 0.52166 0.78114 0.0
C860 C 0.52481 0.5107 0.87883 0.0
C861 C 0.53184 0.4866 0.88757 0.0
C862 C 0.50552 0.51281 0.86009 0.0
C863 C 0.49286 0.49087 0.84996 0.0
C864 C 0.50102 0.4668 0.85746 0.0
C865 C 0.52041 0.46468 0.8759 0.0
C866 C 0.4241 0.48301 0.82804 0.0
C867 C 0.42317 0.49787 0.80604 0.0
C868 C 0.44691 0.48041 0.84177 0.0
C869 C 0.46928 0.49294 0.83412 0.0
C870 C 0.46851 0.50785 0.81214 0.0
C871 C 0.44566 0.51003 0.79798 0.0
H872 H 0.74525 0.76748 0.14504 0.0
H873 H 0.72716 0.70438 0.19367 0.0
H874 H 0.75437 0.73773 0.11044 0.0
H875 H 0.73637 0.67446 0.15889 0.0
H876 H 0.72802 0.63166 0.08059 0.0
H877 H 0.71967 0.66002 0.11686 0.0
H878 H 0.78543 0.70661 0.09864 0.0
H879 H 0.79346 0.67872 0.06226 0.0
C880 C 0.74356 0.74722 0.14846 0.0
C881 C 0.73563 0.73832 0.17219 0.0
C882 C 0.74877 0.73014 0.1286 0.0
C883 C 0.74622 0.70369 0.13191 0.0
C884 C 0.73825 0.69473 0.15562 0.0
C885 C 0.73301 0.71186 0.17555 0.0
C886 C 0.74073 0.64791 0.0844 0.0
C887 C 0.7613 0.653 0.0684 0.0
C888 C 0.73603 0.66409 0.10526 0.0
C889 C 0.75179 0.68569 0.11056 0.0
C890 C 0.77264 0.69042 0.09485 0.0
C891 C 0.77732 0.67431 0.07403 0.0
H892 H 0.99172 0.98562 0.06644 0.0
H893 H 0.99906 0.06752 0.07526 0.0
H894 H 0.96191 0.98459 0.10151 0.0
H895 H 0.96922 0.0665 0.11016 0.0
H896 H 0.89455 0.0582 0.15249 0.0
H897 H 0.92414 0.05819 0.11735 0.0
H898 H 0.96005 0.99166 0.14776 0.0
H899 H 0.93017 0.9914 0.18276 0.0
C900 C 0.98717 0.00338 0.076 0.0
C901 C 0.99775 0.02667 0.06793 0.0
C902 C 0.97006 0.00279 0.0961 0.0
C903 C 0.96306 0.02547 0.1086 0.0
C904 C 0.97381 0.04871 0.10066 0.0
C905 C 0.99094 0.0493 0.08063 0.0
C906 C 0.90869 0.0435 0.15168 0.0
C907 C 0.90997 0.02482 0.17051 0.0
C908 C 0.92578 0.0436 0.13159 0.0
C909 C 0.94457 0.025 0.12977 0.0
C910 C 0.94567 0.00612 0.14843 0.0
C911 C 0.9286 0.00606 0.16858 0.0
H912 H 0.23284 0.70835 0.15887 0.0
H913 H 0.26873 0.76733 0.20699 0.0
H914 H 0.22867 0.73877 0.12431 0.0
H915 H 0.26527 0.7973 0.17217 0.0
H916 H 0.29538 0.81818 0.09084 0.0
H917 H 0.28968 0.79385 0.12945 0.0
H918 H 0.20943 0.78401 0.11105 0.0
H919 H 0.21508 0.8092 0.07228 0.0
C920 C 0.23931 0.72789 0.16232 0.0
C921 C 0.25156 0.73524 0.18559 0.0
C922 C 0.2369 0.7453 0.14251 0.0
C923 C 0.24687 0.77028 0.14554 0.0
C924 C 0.25767 0.77805 0.16926 0.0
C925 C 0.25982 0.76081 0.18911 0.0
C926 C 0.27642 0.81119 0.09521 0.0
C927 C 0.25567 0.81554 0.0786 0.0
C928 C 0.27315 0.79737 0.11737 0.0
C929 C 0.24912 0.78709 0.12324 0.0
C930 C 0.22815 0.79177 0.10692 0.0
C931 C 0.23134 0.80624 0.0849 0.0
H932 H 0.00989 0.47883 0.11049 0.0
H933 H 0.00341 0.39718 0.11882 0.0
H934 H 0.03321 0.48254 0.15108 0.0
H935 H 0.0281 0.40072 0.15873 0.0
H936 H 0.04402 0.41909 0.2429 0.0
H937 H 0.02247 0.41538 0.20145 0.0
H938 H 0.07255 0.47416 0.17275 0.0
H939 H 0.09364 0.47848 0.21467 0.0
C940 C 0.0135 0.46164 0.12095 0.0
C941 C 0.00444 0.43772 0.11154 0.0
C942 C 0.02723 0.46374 0.14408 0.0
C943 C 0.03245 0.44196 0.15831 0.0
C944 C 0.02405 0.41796 0.14851 0.0
C945 C 0.01016 0.41587 0.12544 0.0
C946 C 0.05047 0.43126 0.22778 0.0
C947 C 0.07057 0.44911 0.23213 0.0
C948 C 0.03822 0.42897 0.20389 0.0
C949 C 0.04585 0.44433 0.18364 0.0
C950 C 0.06597 0.46221 0.18798 0.0
C951 C 0.07814 0.46463 0.21199 0.0
H952 H 0.30026 0.69505 0.28693 0.0
H953 H 0.33453 0.70611 0.21376 0.0
H954 H 0.34193 0.70218 0.30817 0.0
H955 H 0.37608 0.71286 0.23482 0.0
H956 H 0.43274 0.7627 0.28192 0.0
H957 H 0.39362 0.74787 0.26073 0.0
H958 H 0.38632 0.68738 0.315 0.0
H959 H 0.42587 0.70266 0.33681 0.0
C960 C 0.31678 0.69854 0.27538 0.0
C961 C 0.3141 0.70046 0.24873 0.0
C962 C 0.34065 0.70253 0.28752 0.0
C963 C 0.36227 0.70842 0.27322 0.0
C964 C 0.35972 0.70893 0.24645 0.0
C965 C 0.33592 0.70508 0.23437 0.0
C966 C 0.42299 0.74612 0.28938 0.0
C967 C 0.43245 0.73394 0.31118 0.0
C968 C 0.40058 0.73747 0.27702 0.0
C969 C 0.38687 0.71633 0.28604 0.0
C970 C 0.3964 0.70381 0.30767 0.0
C971 C 0.41909 0.71246 0.32006 0.0
H972 H 0.98897 0.36328 0.05148 0.0
H973 H 0.97734 0.42199 0.99599 0.0
H974 H 0.99743 0.33274 0.01677 0.0
H975 H 0.98409 0.3916 0.9618 0.0
H976 H 0.0199 0.34271 0.90493 0.0
H977 H 0.01737 0.36948 0.94299 0.0
H978 H 0.97701 0.3089 0.98095 0.0
H979 H 0.98079 0.28143 0.94277 0.0
C980 C 0.98818 0.36965 0.03195 0.0
C981 C 0.98226 0.39505 0.02655 0.0
C982 C 0.99276 0.35211 0.01207 0.0
C983 C 0.99162 0.3597 0.98645 0.0
C984 C 0.98567 0.38509 0.98125 0.0
C985 C 0.98132 0.40251 0.00094 0.0
C986 C 0.01067 0.33499 0.92147 0.0
C987 C 0.00016 0.31015 0.92077 0.0
C988 C 0.00909 0.35039 0.94329 0.0
C989 C 0.99639 0.34163 0.96487 0.0
C990 C 0.98693 0.31626 0.96468 0.0
C991 C 0.98898 0.30057 0.94282 0.0
H992 H 0.6616 0.80415 0.22947 0.0
H993 H 0.68685 0.7311 0.25506 0.0
H994 H 0.62389 0.80017 0.25528 0.0
H995 H 0.64951 0.7274 0.28209 0.0
H996 H 0.56562 0.72106 0.30932 0.0
H997 H 0.60431 0.72159 0.28394 0.0
H998 H 0.61291 0.80288 0.29806 0.0
H999 H 0.57391 0.80237 0.32198 0.0
C1000 C 0.65908 0.78729 0.24083 0.0
C1001 C 0.67716 0.76804 0.24048 0.0
C1002 C 0.63757 0.78504 0.25583 0.0
C1003 C 0.63381 0.76367 0.27128 0.0
C1004 C 0.65166 0.74405 0.27039 0.0
C1005 C 0.67308 0.74617 0.255 0.0
C1006 C 0.57605 0.7389 0.30714 0.0
C1007 C 0.56666 0.76172 0.31729 0.0
C1008 C 0.59821 0.73926 0.29263 0.0
C1009 C 0.6115 0.7624 0.2884 0.0
C1010 C 0.60277 0.78485 0.30004 0.0
C1011 C 0.58052 0.78455 0.31402 0.0
H1012 H 0.03395 0.0447 0.95539 0.0
H1013 H 0.02292 0.09865 0.01727 0.0
H1014 H 0.03074 0.07906 0.92482 0.0
H1015 H 0.01987 0.13298 0.98681 0.0
H1016 H 0.9903 0.18419 0.92427 0.0
H1017 H 0.9923 0.14889 0.95369 0.0
H1018 H 0.05349 0.11661 0.91077 0.0
H1019 H 0.05108 0.15163 0.88098 0.0
C1020 C 0.03104 0.06393 0.96249 0.0
C1021 C 0.02863 0.06889 0.98879 0.0
C1022 C 0.02921 0.08364 0.94496 0.0
C1023 C 0.02498 0.10883 0.95331 0.0
C1024 C 0.02266 0.11377 0.97963 0.0
C1025 C 0.02444 0.09407 0.99712 0.0
C1026 C 0.00412 0.16952 0.92102 0.0
C1027 C 0.02056 0.1708 0.90025 0.0
C1028 C 0.00538 0.14933 0.93802 0.0
C1029 C 0.02315 0.12992 0.93473 0.0
C1030 C 0.03937 0.13105 0.91376 0.0
C1031 C 0.03808 0.15123 0.89673 0.0
H1032 H 0.37509 0.36665 0.28246 0.0
H1033 H 0.37803 0.28464 0.28854 0.0
H1034 H 0.39907 0.36411 0.24308 0.0
H1035 H 0.40279 0.28246 0.24998 0.0
H1036 H 0.46454 0.29142 0.19003 0.0
H1037 H 0.44598 0.29744 0.23211 0.0
H1038 H 0.38759 0.3439 0.19882 0.0
H1039 H 0.40586 0.33775 0.15683 0.0
C1040 C 0.38097 0.34814 0.27559 0.0
C1041 C 0.37454 0.32587 0.28877 0.0
C1042 C 0.3948 0.34674 0.25312 0.0
C1043 C 0.4028 0.3231 0.24358 0.0
C1044 C 0.39718 0.30097 0.25714 0.0
C1045 C 0.38306 0.30229 0.27935 0.0
C1046 C 0.44788 0.3031 0.19175 0.0
C1047 C 0.43654 0.31396 0.1701 0.0
C1048 C 0.43726 0.30647 0.21579 0.0
C1049 C 0.4154 0.32115 0.21866 0.0
C1050 C 0.40459 0.3327 0.19717 0.0
C1051 C 0.41494 0.329 0.17312 0.0
H1052 H 0.58731 0.43513 0.9828 0.0
H1053 H 0.50891 0.45422 0.96701 0.0
H1054 H 0.57335 0.40605 0.01571 0.0
H1055 H 0.49493 0.42379 0.99795 0.0
H1056 H 0.47348 0.38382 0.06744 0.0
H1057 H 0.49197 0.41646 0.04089 0.0
H1058 H 0.55338 0.36617 0.02229 0.0
H1059 H 0.53549 0.33412 0.05049 0.0
C1060 C 0.56712 0.43316 0.98631 0.0
C1061 C 0.54926 0.44699 0.97206 0.0
C1062 C 0.55908 0.41619 0.00497 0.0
C1063 C 0.53296 0.41248 0.00967 0.0
C1064 C 0.51522 0.4264 0.9954 0.0
C1065 C 0.52325 0.44358 0.97715 0.0
C1066 C 0.49113 0.37992 0.05792 0.0
C1067 C 0.50296 0.35642 0.06078 0.0
C1068 C 0.50165 0.39854 0.04247 0.0
C1069 C 0.5239 0.39384 0.02881 0.0
C1070 C 0.53633 0.37062 0.03256 0.0
C1071 C 0.52607 0.35217 0.04862 0.0
H1072 H 0.66221 0.19484 0.20884 0.0
H1073 H 0.67185 0.27535 0.22632 0.0
H1074 H 0.62679 0.20386 0.17961 0.0
H1075 H 0.63652 0.28436 0.19713 0.0
H1076 H 0.5537 0.28715 0.16854 0.0
H1077 H 0.59059 0.27813 0.1955 0.0
H1078 H 0.61585 0.22377 0.13903 0.0
H1079 H 0.57855 0.23249 0.11211 0.0
C1080 C 0.65698 0.21449 0.2062 0.0
C1081 C 0.66975 0.23436 0.22005 0.0
C1082 C 0.63669 0.21966 0.18943 0.0
C1083 C 0.6287 0.24482 0.18614 0.0
C1084 C 0.64186 0.26472 0.19958 0.0
C1085 C 0.66211 0.25956 0.21631 0.0
C1086 C 0.56711 0.2733 0.16179 0.0
C1087 C 0.56313 0.26054 0.13813 0.0
C1088 C 0.58838 0.26824 0.17722 0.0
C1089 C 0.60626 0.25029 0.1694 0.0
C1090 C 0.60232 0.23753 0.14572 0.0
C1091 C 0.58101 0.24263 0.13023 0.0
H1092 H 0.44217 0.09109 0.03755 0.0
H1093 H 0.43897 0.13052 0.96606 0.0
H1094 H 0.44707 0.1321 0.06063 0.0
H1095 H 0.444 0.17135 0.98901 0.0
H1096 H 0.42455 0.23925 0.04051 0.0
H1097 H 0.41862 0.19776 0.01929 0.0
H1098 H 0.48048 0.16827 0.06479 0.0
H1099 H 0.48655 0.20995 0.08619 0.0
C1100 C 0.44233 0.10853 0.02683 0.0
C1101 C 0.44019 0.10767 4e-05 0.0
C1102 C 0.44537 0.13194 0.03999 0.0
C1103 C 0.44593 0.15489 0.0266 0.0
C1104 C 0.44344 0.15398 -0.00016 0.0
C1105 C 0.44072 0.13063 0.98671 0.0
C1106 C 0.4369 0.22395 0.04609 0.0
C1107 C 0.45609 0.22797 0.06502 0.0
C1108 C 0.43354 0.20021 0.03383 0.0
C1109 C 0.44912 0.17981 0.04034 0.0
C1110 C 0.46807 0.18362 0.05953 0.0
C1111 C 0.47163 0.20752 0.07166 0.0
H1112 H 0.25886 0.32537 0.67866 0.0
H1113 H 0.25949 0.31485 0.76017 0.0
H1114 H 0.28094 0.36675 0.68516 0.0
H1115 H 0.2816 0.35581 0.76666 0.0
H1116 H 0.34081 0.43108 0.71038 0.0
H1117 H 0.32111 0.38904 0.7005 0.0
H1118 H 0.26925 0.39974 0.76241 0.0
H1119 H 0.28894 0.44102 0.77247 0.0
C1120 C 0.26407 0.33172 0.69792 0.0
C1121 C 0.25714 0.31703 0.71894 0.0
C1122 C 0.2767 0.3554 0.70163 0.0
C1123 C 0.28265 0.36478 0.72645 0.0
C1124 C 0.27672 0.34947 0.74732 0.0
C1125 C 0.26409 0.32596 0.74362 0.0
C1126 C 0.32508 0.42447 0.72171 0.0
C1127 C 0.31667 0.43931 0.7424 0.0
C1128 C 0.31378 0.40042 0.71604 0.0
C1129 C 0.29392 0.39083 0.73098 0.0
C1130 C 0.28495 0.4062 0.75095 0.0
C1131 C 0.29618 0.43002 0.75661 0.0
H1132 H 0.27697 0.70476 0.77901 0.0
H1133 H 0.21584 0.65926 0.74324 0.0
H1134 H 0.30557 0.66905 0.77438 0.0
H1135 H 0.24495 0.62398 0.7377 0.0
H1136 H 0.31341 0.57166 0.71892 0.0
H1137 H 0.28886 0.611 0.71627 0.0
H1138 H 0.30225 0.6251 0.79695 0.0
H1139 H 0.32604 0.58586 0.79972 0.0
C1140 C 0.26963 0.68727 0.76997 0.0
C1141 C 0.24389 0.68482 0.76193 0.0
C1142 C 0.28612 0.66691 0.76714 0.0
C1143 C 0.27742 0.64376 0.75579 0.0
C1144 C 0.25219 0.64173 0.74631 0.0
C1145 C 0.23554 0.66199 0.74947 0.0
C1146 C 0.31134 0.58341 0.73595 0.0
C1147 C 0.32153 0.57571 0.75954 0.0
C1148 C 0.29723 0.60577 0.73446 0.0
C1149 C 0.29374 0.62106 0.75641 0.0
C1150 C 0.30483 0.6138 0.77971 0.0
C1151 C 0.31834 0.59128 0.7813 0.0
H1152 H 0.89006 0.52336 0.52199 0.0
H1153 H 0.89594 0.51443 0.44022 0.0
H1154 H 0.8555 0.49126 0.52145 0.0
H1155 H 0.86179 0.48212 0.43981 0.0
H1156 H 0.83511 0.39992 0.45929 0.0
H1157 H 0.86244 0.43784 0.45753 0.0
H1158 H 0.81024 0.47928 0.50443 0.0
H1159 H 0.78251 0.44105 0.50613 0.0
C1160 C 0.88361 0.515 0.50385 0.0
C1161 C 0.89605 0.52114 0.48121 0.0
C1162 C 0.86384 0.4966 0.50355 0.0
C1163 C 0.85623 0.48394 0.48063 0.0
C1164 C 0.86759 0.49124 0.45782 0.0
C1165 C 0.88718 0.50969 0.45808 0.0
C1166 C 0.82929 0.41713 0.4691 0.0
C1167 C 0.80666 0.41744 0.48291 0.0
C1168 C 0.84488 0.43893 0.46793 0.0
C1169 C 0.83842 0.46155 0.48076 0.0
C1170 C 0.81568 0.46205 0.49441 0.0
C1171 C 0.7998 0.44024 0.49528 0.0
H1172 H 0.76608 0.84969 0.86329 0.0
H1173 H 0.8092 0.90442 0.81999 0.0
H1174 H 0.72847 0.87485 0.8581 0.0
H1175 H 0.7706 0.92849 0.8128 0.0
H1176 H 0.6974 0.97457 0.81636 0.0
H1177 H 0.7375 0.95477 0.82892 0.0
H1178 H 0.69995 0.88056 0.82389 0.0
H1179 H 0.66022 0.9002 0.81253 0.0
C1180 C 0.76777 0.86728 0.85296 0.0
C1181 C 0.79089 0.87481 0.84194 0.0
C1182 C 0.74591 0.88152 0.84954 0.0
C1183 C 0.74625 0.90339 0.83448 0.0
C1184 C 0.76958 0.91174 0.82451 0.0
C1185 C 0.79168 0.89769 0.82833 0.0
C1186 C 0.69779 0.95405 0.81816 0.0
C1187 C 0.67558 0.93899 0.81362 0.0
C1188 C 0.72077 0.94269 0.82523 0.0
C1189 C 0.72197 0.91606 0.82771 0.0
C1190 C 0.69971 0.90115 0.82293 0.0
C1191 C 0.67685 0.91245 0.81617 0.0
H1192 H 0.6207 0.51222 0.90024 0.0
H1193 H 0.60561 0.52052 0.98068 0.0
H1194 H 0.65987 0.53735 0.90643 0.0
H1195 H 0.64576 0.54397 0.98722 0.0
H1196 H 0.7105 0.60294 0.98844 0.0
H1197 H 0.66875 0.58237 0.98079 0.0
H1198 H 0.70107 0.53289 0.92366 0.0
H1199 H 0.74224 0.55412 0.93051 0.0
C1200 C 0.62564 0.51946 0.91925 0.0
C1201 C 0.60997 0.51413 0.93996 0.0
C1202 C 0.64838 0.53359 0.92289 0.0
C1203 C 0.65626 0.5425 0.9474 0.0
C1204 C 0.64031 0.53764 0.96803 0.0
C1205 C 0.61741 0.52378 0.96433 0.0
C1206 C 0.70859 0.58775 0.97416 0.0
C1207 C 0.72968 0.58023 0.96005 0.0
C1208 C 0.68468 0.57584 0.96985 0.0
C1209 C 0.68141 0.55594 0.95153 0.0
C1210 C 0.70261 0.54848 0.93751 0.0
C1211 C 0.72636 0.56056 0.94159 0.0
H1212 H 0.19541 0.67909 0.23632 0.0
H1213 H 0.25826 0.62746 0.23354 0.0
H1214 H 0.16667 0.6436 0.24658 0.0
H1215 H 0.22968 0.59211 0.24364 0.0
H1216 H 0.17888 0.54071 0.29004 0.0
H1217 H 0.20602 0.57699 0.27952 0.0
H1218 H 0.14697 0.6042 0.22885 0.0
H1219 H 0.11948 0.56804 0.23981 0.0
C1220 C 0.20303 0.66013 0.23767 0.0
C1221 C 0.22915 0.65613 0.23435 0.0
C1222 C 0.18657 0.6398 0.24353 0.0
C1223 C 0.1959 0.61503 0.24616 0.0
C1224 C 0.22194 0.61101 0.24233 0.0
C1225 C 0.23834 0.63129 0.23652 0.0
C1226 C 0.17161 0.55443 0.2767 0.0
C1227 C 0.14701 0.55139 0.26571 0.0
C1228 C 0.18726 0.57518 0.27054 0.0
C1229 C 0.17877 0.59342 0.25318 0.0
C1230 C 0.15402 0.59061 0.24245 0.0
C1231 C 0.13832 0.56981 0.24864 0.0
H1232 H 0.92465 0.48155 0.09133 0.0
H1233 H 0.94674 0.4723 0.01277 0.0
H1234 H 0.89778 0.51697 0.07922 0.0
H1235 H 0.91857 0.50578 0.00048 0.0
H1236 H 0.88488 0.57924 0.98381 0.0
H1237 H 0.91486 0.5496 0.00196 0.0
H1238 H 0.85928 0.52752 0.05757 0.0
H1239 H 0.82989 0.55872 0.0402 0.0
C1240 C 0.92373 0.48695 0.07151 0.0
C1241 C 0.93781 0.47388 0.05304 0.0
C1242 C 0.90809 0.50709 0.06451 0.0
C1243 C 0.90608 0.51448 0.03888 0.0
C1244 C 0.92 0.50117 0.0205 0.0
C1245 C 0.93582 0.48144 0.0275 0.0
C1246 C 0.87929 0.56833 0.0002 0.0
C1247 C 0.85507 0.571 0.01049 0.0
C1248 C 0.89635 0.55113 0.01048 0.0
C1249 C 0.8893 0.53555 0.03082 0.0
C1250 C 0.86545 0.53921 0.04198 0.0
C1251 C 0.84856 0.557 0.03202 0.0
H1252 H 0.08245 0.9911 0.06065 0.0
H1253 H 0.06607 0.98474 0.9796 0.0
H1254 H 0.11582 0.95974 0.05639 0.0
H1255 H 0.09994 0.95395 0.97521 0.0
H1256 H 0.14474 0.8802 0.98134 0.0
H1257 H 0.11033 0.91026 0.9864 0.0
H1258 H 0.15815 0.95628 0.03824 0.0
H1259 H 0.19244 0.92609 0.03348 0.0
C1260 C 0.08589 0.98293 0.04194 0.0
C1261 C 0.07156 0.99043 0.02047 0.0
C1262 C 0.10521 0.96515 0.03945 0.0
C1263 C 0.11062 0.95435 0.01544 0.0
C1264 C 0.09613 0.9617 0.99401 0.0
C1265 C 0.07689 0.97955 0.99649 0.0
C1266 C 0.14792 0.89669 0.99387 0.0
C1267 C 0.17139 0.9007 0.00699 0.0
C1268 C 0.12822 0.91401 0.99666 0.0
C1269 C 0.13146 0.93571 0.01271 0.0
C1270 C 0.15488 0.93962 0.02596 0.0
C1271 C 0.17461 0.92236 0.02311 0.0
loop_
_geom_bond_atom_site_label_1
_geom_bond_atom_site_label_2
_geom_bond_distance
_geom_bond_site_symmetry_2
_ccdc_geom_bond_type
H0 C3 0.931 . S
H1 C6 0.928 . S
H2 C8 0.930 . S
C3 H0 0.931 . S
C3 C4 1.413 . S
C3 C5 1.360 . S
C4 C3 1.413 . S
C4 C8 1.429 . S
C5 C3 1.360 . S
C5 C6 1.372 . S
C6 H1 0.928 . S
C6 C5 1.372 . S
C6 C7 1.404 . S
C7 C6 1.404 . S
C7 C8 1.391 . S
C8 H2 0.930 . S
C8 C4 1.429 . S
C8 C7 1.391 . S
H9 C12 0.931 . S
H10 C15 0.928 . S
H11 C17 0.930 . S
C12 H9 0.931 . S
C12 C13 1.413 . S
C12 C14 1.360 . S
C13 C12 1.413 . S
C13 C17 1.429 . S
C14 C12 1.360 . S
C14 C15 1.372 . S
C15 H10 0.928 . S
C15 C14 1.372 . S
C15 C16 1.404 . S
C16 C15 1.404 . S
C16 C17 1.391 . S
C17 H11 0.930 . S
C17 C13 1.429 . S
C17 C16 1.391 . S
H18 C21 0.931 . S
H19 C24 0.928 . S
H20 C26 0.930 . S
C21 H18 0.931 . S
C21 C22 1.413 . S
C21 C23 1.360 . S
C22 C21 1.413 . S
C22 C26 1.429 . S
C23 C21 1.360 . S
C23 C24 1.372 . S
C24 H19 0.928 . S
C24 C23 1.372 . S
C24 C25 1.404 . S
C25 C24 1.404 . S
C25 C26 1.391 . S
C26 H20 0.930 . S
C26 C22 1.429 . S
C26 C25 1.391 . S
H27 C30 0.931 . S
H28 C33 0.928 . S
H29 C35 0.930 . S
C30 H27 0.931 . S
C30 C31 1.413 . S
C30 C32 1.360 . S
C31 C30 1.413 . S
C31 C35 1.429 . S
C32 C30 1.360 . S
C32 C33 1.372 . S
C33 H28 0.928 . S
C33 C32 1.372 . S
C33 C34 1.404 . S
C34 C33 1.404 . S
C34 C35 1.391 . S
C35 H29 0.930 . S
C35 C31 1.429 . S
C35 C34 1.391 . S
H36 C39 0.931 . S
H37 C42 0.928 . S
H38 C44 0.930 . S
C39 H36 0.931 . S
C39 C40 1.413 . S
C39 C41 1.360 . S
C40 C39 1.413 . S
C40 C44 1.429 . S
C41 C39 1.360 . S
C41 C42 1.372 . S
C42 H37 0.928 . S
C42 C41 1.372 . S
C42 C43 1.404 . S
C43 C42 1.404 . S
C43 C44 1.391 . S
C44 H38 0.930 . S
C44 C40 1.429 . S
C44 C43 1.391 . S
H45 C48 0.931 . S
H46 C51 0.928 . S
H47 C53 0.930 . S
C48 H45 0.931 . S
C48 C49 1.413 . S
C48 C50 1.360 . S
C49 C48 1.413 . S
C49 C53 1.429 . S
C50 C48 1.360 . S
C50 C51 1.372 . S
C51 H46 0.928 . S
C51 C50 1.372 . S
C51 C52 1.404 . S
C52 C51 1.404 . S
C52 C53 1.391 . S
C53 H47 0.930 . S
C53 C49 1.429 . S
C53 C52 1.391 . S
H54 C57 0.931 . S
H55 C60 0.928 . S
H56 C62 0.930 . S
C57 H54 0.931 . S
C57 C58 1.413 . S
C57 C59 1.360 . S
C58 C57 1.413 . S
C58 C62 1.429 . S
C59 C57 1.360 . S
C59 C60 1.372 . S
C60 H55 0.928 . S
C60 C59 1.372 . S
C60 C61 1.404 . S
C61 C60 1.404 . S
C61 C62 1.391 . S
C62 H56 0.930 . S
C62 C58 1.429 . S
C62 C61 1.391 . S
H63 C66 0.931 . S
H64 C69 0.928 . S
H65 C71 0.930 . S
C66 H63 0.931 . S
C66 C67 1.413 . S
C66 C68 1.360 . S
C67 C66 1.413 . S
C67 C71 1.429 . S
C68 C66 1.360 . S
C68 C69 1.372 . S
C69 H64 0.928 . S
C69 C68 1.372 . S
C69 C70 1.404 . S
C70 C69 1.404 . S
C70 C71 1.391 . S
C71 H65 0.930 . S
C71 C67 1.429 . S
C71 C70 1.391 . S
H72 C75 0.931 . S
H73 C78 0.928 . S
H74 C80 0.930 . S
C75 H72 0.931 . S
C75 C76 1.413 . S
C75 C77 1.360 . S
C76 C75 1.413 . S
C76 C80 1.429 . S
C77 C75 1.360 . S
C77 C78 1.372 . S
C78 H73 0.928 . S
C78 C77 1.372 . S
C78 C79 1.404 . S
C79 C78 1.404 . S
C79 C80 1.391 . S
C80 H74 0.930 . S
C80 C76 1.429 . S
C80 C79 1.391 . S
H81 C84 0.931 . S
H82 C87 0.928 . S
H83 C89 0.930 . S
C84 H81 0.931 . S
C84 C85 1.413 . S
C84 C86 1.360 . S
C85 C84 1.413 . S
C85 C89 1.429 . S
C86 C84 1.360 . S
C86 C87 1.372 . S
C87 H82 0.928 . S
C87 C86 1.372 . S
C87 C88 1.404 . S
C88 C87 1.404 . S
C88 C89 1.391 . S
C89 H83 0.930 . S
C89 C85 1.429 . S
C89 C88 1.391 . S
H90 C93 0.931 . S
H91 C96 0.928 . S
H92 C98 0.930 . S
C93 H90 0.931 . S
C93 C94 1.413 . S
C93 C95 1.360 . S
C94 C93 1.413 . S
C94 C98 1.429 . S
C95 C93 1.360 . S
C95 C96 1.372 . S
C96 H91 0.928 . S
C96 C95 1.372 . S
C96 C97 1.404 . S
C97 C96 1.404 . S
C97 C98 1.391 . S
C98 H92 0.930 . S
C98 C94 1.429 . S
C98 C97 1.391 . S
H99 C102 0.931 . S
H100 C105 0.928 . S
H101 C107 0.930 . S
C102 H99 0.931 . S
C102 C103 1.413 . S
C102 C104 1.360 . S
C103 C102 1.413 . S
C103 C107 1.429 . S
C104 C102 1.360 . S
C104 C105 1.372 . S
C105 H100 0.928 . S
C105 C104 1.372 . S
C105 C106 1.404 . S
C106 C105 1.404 . S
C106 C107 1.391 . S
C107 H101 0.930 . S
C107 C103 1.429 . S
C107 C106 1.391 . S
H108 C111 0.931 . S
H109 C114 0.928 . S
H110 C116 0.930 . S
C111 H108 0.931 . S
C111 C112 1.413 . S
C111 C113 1.360 . S
C112 C111 1.413 . S
C112 C116 1.429 . S
C113 C111 1.360 . S
C113 C114 1.372 . S
C114 H109 0.928 . S
C114 C113 1.372 . S
C114 C115 1.404 . S
C115 C114 1.404 . S
C115 C116 1.391 . S
C116 H110 0.930 . S
C116 C112 1.429 . S
C116 C115 1.391 . S
H117 C120 0.931 . S
H118 C123 0.928 . S
H119 C125 0.930 . S
C120 H117 0.931 . S
C120 C121 1.413 . S
C120 C122 1.360 . S
C121 C120 1.413 . S
C121 C125 1.429 . S
C122 C120 1.360 . S
C122 C123 1.372 . S
C123 H118 0.928 . S
C123 C122 1.372 . S
C123 C124 1.404 . S
C124 C123 1.404 . S
C124 C125 1.391 . S
C125 H119 0.930 . S
C125 C121 1.429 . S
C125 C124 1.391 . S
H126 C129 0.931 . S
H127 C132 0.928 . S
H128 C134 0.930 . S
C129 H126 0.931 . S
C129 C130 1.413 . S
C129 C131 1.360 . S
C130 C129 1.413 . S
C130 C134 1.429 . S
C131 C129 1.360 . S
C131 C132 1.372 . S
C132 H127 0.928 . S
C132 C131 1.372 . S
C132 C133 1.404 . S
C133 C132 1.404 . S
C133 C134 1.391 . S
C134 H128 0.930 . S
C134 C130 1.429 . S
C134 C133 1.391 . S
H135 C138 0.931 . S
H136 C141 0.928 . S
H137 C143 0.930 . S
C138 H135 0.931 . S
C138 C139 1.413 . S
C138 C140 1.360 . S
C139 C138 1.413 . S
C139 C143 1.429 . S
C140 C138 1.360 . S
C140 C141 1.372 . S
C141 H136 0.928 . S
C141 C140 1.372 . S
C141 C142 1.404 . S
C142 C141 1.404 . S
C142 C143 1.391 . S
C143 H137 0.930 . S
C143 C139 1.429 . S
C143 C142 1.391 . S
Zn144 O147 2.031 1_556 S
Zn144 O149 2.049 . S
Zn144 O154 2.067 . S
Zn145 O146 1.962 . S
Zn145 O148 1.986 . S
Zn145 O150 1.996 . S
Zn145 O153 1.943 1_554 S
O146 Zn145 1.962 . S
O146 C151 1.254 . S
O147 Zn144 2.031 1_554 S
O147 C151 1.269 . S
O148 Zn145 1.986 . S
O148 C155 1.262 . S
O149 Zn144 2.049 . S
O149 C157 1.260 . S
O150 Zn145 1.996 . S
O150 C157 1.257 1_554 S
C151 O146 1.254 . S
C151 O147 1.269 . S
C152 O153 1.249 . S
C152 O154 1.270 . S
O153 Zn145 1.943 1_556 S
O153 C152 1.249 . S
O154 Zn144 2.067 . S
O154 C152 1.270 . S
C155 O148 1.262 . S
C155 O156 1.232 . S
O156 C155 1.232 . S
C157 O149 1.260 . S
C157 O150 1.257 1_556 S
Zn158 O161 2.031 . S
Zn158 O163 2.049 . S
Zn158 O168 2.067 . S
Zn159 O160 1.962 . S
Zn159 O162 1.986 . S
Zn159 O164 1.996 . S
Zn159 O167 1.943 . S
O160 Zn159 1.962 . S
O160 C165 1.254 . S
O161 Zn158 2.031 . S
O161 C165 1.269 . S
O162 Zn159 1.986 . S
O162 C169 1.262 . S
O163 Zn158 2.049 . S
O163 C171 1.260 . S
O164 Zn159 1.996 . S
O164 C171 1.257 . S
C165 O160 1.254 . S
C165 O161 1.269 . S
C166 O167 1.249 . S
C166 O168 1.270 . S
O167 Zn159 1.943 . S
O167 C166 1.249 . S
O168 Zn158 2.067 . S
O168 C166 1.270 . S
C169 O162 1.262 . S
C169 O170 1.232 . S
O170 C169 1.232 . S
C171 O163 1.260 . S
C171 O164 1.257 . S
Zn172 O175 2.031 . S
Zn172 O177 2.049 . S
Zn172 O182 2.067 . S
Zn173 O174 1.962 . S
Zn173 O176 1.986 . S
Zn173 O178 1.996 1_554 S
Zn173 O181 1.943 . S
O174 Zn173 1.962 . S
O174 C179 1.254 . S
O175 Zn172 2.031 . S
O175 C179 1.269 1_556 S
O176 Zn173 1.986 . S
O176 C183 1.262 . S
O177 Zn172 2.049 . S
O177 C185 1.260 . S
O178 Zn173 1.996 1_556 S
O178 C185 1.257 . S
C179 O174 1.254 . S
C179 O175 1.269 1_554 S
C180 O181 1.249 1_556 S
C180 O182 1.270 . S
O181 Zn173 1.943 . S
O181 C180 1.249 1_554 S
O182 Zn172 2.067 . S
O182 C180 1.270 . S
C183 O176 1.262 . S
C183 O184 1.232 . S
O184 C183 1.232 . S
C185 O177 1.260 . S
C185 O178 1.257 . S
Zn186 O189 2.026 1_565 S
Zn186 O191 2.053 . S
Zn186 O196 2.075 . S
Zn187 O188 1.962 . S
Zn187 O190 1.986 . S
Zn187 O192 1.996 . S
Zn187 O195 1.943 1_545 S
O188 Zn187 1.962 . S
O188 C193 1.254 . S
O189 Zn186 2.026 1_545 S
O189 C193 1.269 . S
O190 Zn187 1.986 . S
O190 C197 1.262 . S
O191 Zn186 2.053 . S
O191 C199 1.260 . S
O192 Zn187 1.996 . S
O192 C199 1.257 1_545 S
C193 O188 1.254 . S
C193 O189 1.269 . S
C194 O195 1.249 . S
C194 O196 1.270 . S
O195 Zn187 1.943 1_565 S
O195 C194 1.249 . S
O196 Zn186 2.075 . S
O196 C194 1.270 . S
C197 O190 1.262 . S
C197 O198 1.232 . S
O198 C197 1.232 . S
C199 O191 1.260 . S
C199 O192 1.257 1_565 S
Zn200 O203 2.031 . S
Zn200 O205 2.049 . S
Zn200 O210 2.067 . S
Zn201 O202 1.962 . S
Zn201 O204 1.986 . S
Zn201 O206 1.996 . S
Zn201 O209 1.943 . S
O202 Zn201 1.962 . S
O202 C207 1.254 . S
O203 Zn200 2.031 . S
O203 C207 1.269 . S
O204 Zn201 1.986 . S
O204 C211 1.262 . S
O205 Zn200 2.049 . S
O205 C213 1.260 . S
O206 Zn201 1.996 . S
O206 C213 1.257 . S
C207 O202 1.254 . S
C207 O203 1.269 . S
C208 O209 1.249 . S
C208 O210 1.270 . S
O209 Zn201 1.943 . S
O209 C208 1.249 . S
O210 Zn200 2.067 . S
O210 C208 1.270 . S
C211 O204 1.262 . S
C211 O212 1.232 . S
O212 C211 1.232 . S
C213 O205 1.260 . S
C213 O206 1.257 . S
Zn214 O217 2.031 . S
Zn214 O219 2.049 . S
Zn214 O224 2.067 . S
Zn215 O216 1.962 . S
Zn215 O218 1.986 . S
Zn215 O220 1.996 . S
Zn215 O223 1.943 . S
O216 Zn215 1.962 . S
O216 C221 1.254 . S
O217 Zn214 2.031 . S
O217 C221 1.269 . S
O218 Zn215 1.986 . S
O218 C225 1.262 . S
O219 Zn214 2.049 . S
O219 C227 1.260 . S
O220 Zn215 1.996 . S
O220 C227 1.257 . S
C221 O216 1.254 . S
C221 O217 1.269 . S
C222 O223 1.249 . S
C222 O224 1.270 . S
O223 Zn215 1.943 . S
O223 C222 1.249 . S
O224 Zn214 2.067 . S
O224 C222 1.270 . S
C225 O218 1.262 . S
C225 O226 1.232 . S
O226 C225 1.232 . S
C227 O219 1.260 . S
C227 O220 1.257 . S
Zn228 O231 2.031 . S
Zn228 O233 2.049 . S
Zn228 O238 2.067 . S
Zn229 O230 1.962 . S
Zn229 O232 1.986 . S
Zn229 O234 1.996 . S
Zn229 O237 1.943 . S
O230 Zn229 1.962 . S
O230 C235 1.254 . S
O231 Zn228 2.031 . S
O231 C235 1.269 . S
O232 Zn229 1.986 . S
O232 C239 1.262 . S
O233 Zn228 2.049 . S
O233 C241 1.260 . S
O234 Zn229 1.996 . S
O234 C241 1.257 . S
C235 O230 1.254 . S
C235 O231 1.269 . S
C236 O237 1.249 . S
C236 O238 1.270 . S
O237 Zn229 1.943 . S
O237 C236 1.249 . S
O238 Zn228 2.067 . S
O238 C236 1.270 . S
C239 O232 1.262 . S
C239 O240 1.232 . S
O240 C239 1.232 . S
C241 O233 1.260 . S
C241 O234 1.257 . S
Zn242 O245 2.031 . S
Zn242 O247 2.049 . S
Zn242 O252 2.067 . S
Zn243 O244 1.962 . S
Zn243 O246 1.986 . S
Zn243 O248 1.996 1_545 S
Zn243 O251 1.943 . S
O244 Zn243 1.962 . S
O244 C249 1.254 . S
O245 Zn242 2.031 . S
O245 C249 1.269 1_565 S
O246 Zn243 1.986 . S
O246 C253 1.262 . S
O247 Zn242 2.049 . S
O247 C255 1.260 . S
O248 Zn243 1.996 1_565 S
O248 C255 1.257 . S
C249 O244 1.254 . S
C249 O245 1.269 1_545 S
C250 O251 1.249 1_565 S
C250 O252 1.270 . S
O251 Zn243 1.943 . S
O251 C250 1.249 1_545 S
O252 Zn242 2.067 . S
O252 C250 1.270 . S
C253 O246 1.262 . S
C253 O254 1.232 . S
O254 C253 1.232 . S
C255 O247 1.260 . S
C255 O248 1.257 . S
Zn256 O259 2.019 1_655 S
Zn256 O261 2.059 . S
Zn256 O266 2.085 . S
Zn257 O258 1.962 . S
Zn257 O260 1.986 . S
Zn257 O262 1.996 . S
Zn257 O265 1.943 1_455 S
O258 Zn257 1.962 . S
O258 C263 1.254 . S
O259 Zn256 2.019 1_455 S
O259 C263 1.269 . S
O260 Zn257 1.986 . S
O260 C267 1.262 . S
O261 Zn256 2.059 . S
O261 C269 1.260 . S
O262 Zn257 1.996 . S
O262 C269 1.257 1_455 S
C263 O258 1.254 . S
C263 O259 1.269 . S
C264 O265 1.249 . S
C264 O266 1.270 . S
O265 Zn257 1.943 1_655 S
O265 C264 1.249 . S
O266 Zn256 2.085 . S
O266 C264 1.270 . S
C267 O260 1.262 . S
C267 O268 1.232 . S
O268 C267 1.232 . S
C269 O261 1.260 . S
C269 O262 1.257 1_655 S
Zn270 O273 2.031 . S
Zn270 O275 2.049 . S
Zn270 O280 2.067 . S
Zn271 O272 1.962 . S
Zn271 O274 1.986 . S
Zn271 O276 1.996 . S
Zn271 O279 1.943 . S
O272 Zn271 1.962 . S
O272 C277 1.254 . S
O273 Zn270 2.031 . S
O273 C277 1.269 . S
O274 Zn271 1.986 . S
O274 C281 1.262 . S
O275 Zn270 2.049 . S
O275 C283 1.260 . S
O276 Zn271 1.996 . S
O276 C283 1.257 . S
C277 O272 1.254 . S
C277 O273 1.269 . S
C278 O279 1.249 . S
C278 O280 1.270 . S
O279 Zn271 1.943 . S
O279 C278 1.249 . S
O280 Zn270 2.067 . S
O280 C278 1.270 . S
C281 O274 1.262 . S
C281 O282 1.232 . S
O282 C281 1.232 . S
C283 O275 1.260 . S
C283 O276 1.257 . S
Zn284 O287 2.031 . S
Zn284 O289 2.049 . S
Zn284 O294 2.067 . S
Zn285 O286 1.962 . S
Zn285 O288 1.986 . S
Zn285 O290 1.996 1_455 S
Zn285 O293 1.943 . S
O286 Zn285 1.962 . S
O286 C291 1.254 . S
O287 Zn284 2.031 . S
O287 C291 1.269 1_655 S
O288 Zn285 1.986 . S
O288 C295 1.262 . S
O289 Zn284 2.049 . S
O289 C297 1.260 . S
O290 Zn285 1.996 1_655 S
O290 C297 1.257 . S
C291 O286 1.254 . S
C291 O287 1.269 1_455 S
C292 O293 1.249 1_655 S
C292 O294 1.270 . S
O293 Zn285 1.943 . S
O293 C292 1.249 1_455 S
O294 Zn284 2.067 . S
O294 C292 1.270 . S
C295 O288 1.262 . S
C295 O296 1.232 . S
O296 C295 1.232 . S
C297 O289 1.260 . S
C297 O290 1.257 . S
Zn298 O301 2.031 . S
Zn298 O303 2.049 . S
Zn298 O308 2.067 . S
Zn299 O300 1.962 . S
Zn299 O302 1.986 . S
Zn299 O304 1.996 . S
Zn299 O307 1.943 . S
O300 Zn299 1.962 . S
O300 C305 1.254 . S
O301 Zn298 2.031 . S
O301 C305 1.269 . S
O302 Zn299 1.986 . S
O302 C309 1.262 . S
O303 Zn298 2.049 . S
O303 C311 1.260 . S
O304 Zn299 1.996 . S
O304 C311 1.257 . S
C305 O300 1.254 . S
C305 O301 1.269 . S
C306 O307 1.249 . S
C306 O308 1.270 . S
O307 Zn299 1.943 . S
O307 C306 1.249 . S
O308 Zn298 2.067 . S
O308 C306 1.270 . S
C309 O302 1.262 . S
C309 O310 1.232 . S
O310 C309 1.232 . S
C311 O303 1.260 . S
C311 O304 1.257 . S
H312 C320 0.950 . S
H313 C325 0.950 . S
H314 C322 0.950 . S
H315 C324 0.950 . S
H316 C326 0.950 . S
H317 C328 0.950 . S
H318 C330 0.950 . S
H319 C331 0.950 . S
C320 H312 0.950 . S
C320 C321 1.386 . S
C320 C322 1.391 . S
C321 C320 1.386 . S
C321 C325 1.393 . S
C322 H314 0.950 . S
C322 C320 1.391 . S
C322 C323 1.400 . S
C323 C322 1.400 . S
C323 C324 1.398 . S
C323 C329 1.491 . S
C324 H315 0.950 . S
C324 C323 1.398 . S
C324 C325 1.391 . S
C325 H313 0.950 . S
C325 C321 1.393 . S
C325 C324 1.391 . S
C326 H316 0.950 . S
C326 C327 1.386 . S
C326 C328 1.391 . S
C327 C326 1.386 . S
C327 C331 1.393 . S
C328 H317 0.950 . S
C328 C326 1.391 . S
C328 C329 1.400 . S
C329 C323 1.491 . S
C329 C328 1.400 . S
C329 C330 1.398 . S
C330 H318 0.950 . S
C330 C329 1.398 . S
C330 C331 1.391 . S
C331 H319 0.950 . S
C331 C327 1.393 . S
C331 C330 1.391 . S
H332 C340 0.950 . S
H333 C345 0.950 . S
H334 C342 0.950 . S
H335 C344 0.950 . S
H336 C346 0.950 . S
H337 C348 0.950 . S
H338 C350 0.950 . S
H339 C351 0.950 . S
C340 H332 0.950 . S
C340 C341 1.386 1_455 S
C340 C342 1.391 . S
C341 C340 1.386 1_655 S
C341 C345 1.393 . S
C342 H334 0.950 . S
C342 C340 1.391 . S
C342 C343 1.400 . S
C343 C342 1.400 . S
C343 C344 1.398 . S
C343 C349 1.491 . S
C344 H335 0.950 . S
C344 C343 1.398 . S
C344 C345 1.391 1_455 S
C345 H333 0.950 . S
C345 C341 1.393 . S
C345 C344 1.391 1_655 S
C346 H336 0.950 . S
C346 C347 1.386 . S
C346 C348 1.391 . S
C347 C346 1.386 . S
C347 C351 1.393 . S
C348 H337 0.950 . S
C348 C346 1.391 . S
C348 C349 1.400 . S
C349 C343 1.491 . S
C349 C348 1.400 . S
C349 C350 1.398 . S
C350 H338 0.950 . S
C350 C349 1.398 . S
C350 C351 1.391 . S
C351 H339 0.950 . S
C351 C347 1.393 . S
C351 C350 1.391 . S
H352 C360 0.950 . S
H353 C365 0.950 . S
H354 C362 0.950 . S
H355 C364 0.950 . S
H356 C366 0.950 . S
H357 C368 0.950 . S
H358 C370 0.950 . S
H359 C371 0.950 . S
C360 H352 0.950 . S
C360 C361 1.386 . S
C360 C362 1.391 . S
C361 C360 1.386 . S
C361 C365 1.393 . S
C362 H354 0.950 . S
C362 C360 1.391 . S
C362 C363 1.400 . S
C363 C362 1.400 . S
C363 C364 1.398 . S
C363 C369 1.491 . S
C364 H355 0.950 . S
C364 C363 1.398 . S
C364 C365 1.391 . S
C365 H353 0.950 . S
C365 C361 1.393 . S
C365 C364 1.391 . S
C366 H356 0.950 . S
C366 C367 1.386 . S
C366 C368 1.391 . S
C367 C366 1.386 . S
C367 C371 1.393 . S
C368 H357 0.950 . S
C368 C366 1.391 . S
C368 C369 1.400 . S
C369 C363 1.491 . S
C369 C368 1.400 . S
C369 C370 1.398 . S
C370 H358 0.950 . S
C370 C369 1.398 . S
C370 C371 1.391 . S
C371 H359 0.950 . S
C371 C367 1.393 . S
C371 C370 1.391 . S
H372 C380 0.950 . S
H373 C385 0.950 1_655 S
H374 C382 0.950 . S
H375 C384 0.950 . S
H376 C386 0.950 1_545 S
H377 C388 0.950 1_545 S
H378 C390 0.950 . S
H379 C391 0.950 . S
C380 H372 0.950 . S
C380 C381 1.386 . S
C380 C382 1.391 . S
C381 C380 1.386 . S
C381 C385 1.393 . S
C382 H374 0.950 . S
C382 C380 1.391 . S
C382 C383 1.400 1_455 S
C383 C382 1.400 1_655 S
C383 C384 1.398 . S
C383 C389 1.491 . S
C384 H375 0.950 . S
C384 C383 1.398 . S
C384 C385 1.391 1_655 S
C385 H373 0.950 1_455 S
C385 C381 1.393 . S
C385 C384 1.391 1_455 S
C386 H376 0.950 1_565 S
C386 C387 1.386 . S
C386 C388 1.391 . S
C387 C386 1.386 . S
C387 C391 1.393 . S
C388 H377 0.950 1_565 S
C388 C386 1.391 . S
C388 C389 1.400 . S
C389 C383 1.491 . S
C389 C388 1.400 . S
C389 C390 1.398 . S
C390 H378 0.950 . S
C390 C389 1.398 . S
C390 C391 1.391 . S
C391 H379 0.950 . S
C391 C387 1.393 . S
C391 C390 1.391 . S
H392 C400 0.950 . S
H393 C405 0.950 . S
H394 C402 0.950 . S
H395 C404 0.950 . S
H396 C406 0.950 . S
H397 C408 0.950 . S
H398 C410 0.950 . S
H399 C411 0.950 . S
C400 H392 0.950 . S
C400 C401 1.386 . S
C400 C402 1.391 . S
C401 C400 1.386 . S
C401 C405 1.393 . S
C402 H394 0.950 . S
C402 C400 1.391 . S
C402 C403 1.400 . S
C403 C402 1.400 . S
C403 C404 1.398 . S
C403 C409 1.491 . S
C404 H395 0.950 . S
C404 C403 1.398 . S
C404 C405 1.391 . S
C405 H393 0.950 . S
C405 C401 1.393 . S
C405 C404 1.391 . S
C406 H396 0.950 . S
C406 C407 1.386 . S
C406 C408 1.391 . S
C407 C406 1.386 . S
C407 C411 1.393 . S
C408 H397 0.950 . S
C408 C406 1.391 . S
C408 C409 1.400 . S
C409 C403 1.491 . S
C409 C408 1.400 . S
C409 C410 1.398 . S
C410 H398 0.950 . S
C410 C409 1.398 . S
C410 C411 1.391 . S
C411 H399 0.950 . S
C411 C407 1.393 . S
C411 C410 1.391 . S
H412 C420 0.950 . S
H413 C425 0.950 . S
H414 C422 0.950 . S
H415 C424 0.950 . S
H416 C426 0.950 . S
H417 C428 0.950 . S
H418 C430 0.950 . S
H419 C431 0.950 . S
C420 H412 0.950 . S
C420 C421 1.386 . S
C420 C422 1.391 . S
C421 C420 1.386 . S
C421 C425 1.393 . S
C422 H414 0.950 . S
C422 C420 1.391 . S
C422 C423 1.400 . S
C423 C422 1.400 . S
C423 C424 1.398 . S
C423 C429 1.491 . S
C424 H415 0.950 . S
C424 C423 1.398 . S
C424 C425 1.391 . S
C425 H413 0.950 . S
C425 C421 1.393 . S
C425 C424 1.391 . S
C426 H416 0.950 . S
C426 C427 1.386 . S
C426 C428 1.391 . S
C427 C426 1.386 . S
C427 C431 1.393 . S
C428 H417 0.950 . S
C428 C426 1.391 . S
C428 C429 1.400 . S
C429 C423 1.491 . S
C429 C428 1.400 . S
C429 C430 1.398 . S
C430 H418 0.950 . S
C430 C429 1.398 . S
C430 C431 1.391 . S
C431 H419 0.950 . S
C431 C427 1.393 . S
C431 C430 1.391 . S
H432 C440 0.950 . S
H433 C445 0.950 . S
H434 C442 0.950 . S
H435 C444 0.950 . S
H436 C446 0.950 . S
H437 C448 0.950 . S
H438 C450 0.950 . S
H439 C451 0.950 . S
C440 H432 0.950 . S
C440 C441 1.386 . S
C440 C442 1.391 . S
C441 C440 1.386 . S
C441 C445 1.393 . S
C442 H434 0.950 . S
C442 C440 1.391 . S
C442 C443 1.400 . S
C443 C442 1.400 . S
C443 C444 1.398 . S
C443 C449 1.491 . S
C444 H435 0.950 . S
C444 C443 1.398 . S
C444 C445 1.391 . S
C445 H433 0.950 . S
C445 C441 1.393 . S
C445 C444 1.391 . S
C446 H436 0.950 . S
C446 C447 1.386 . S
C446 C448 1.391 . S
C447 C446 1.386 . S
C447 C451 1.393 . S
C448 H437 0.950 . S
C448 C446 1.391 . S
C448 C449 1.400 . S
C449 C443 1.491 . S
C449 C448 1.400 . S
C449 C450 1.398 . S
C450 H438 0.950 . S
C450 C449 1.398 . S
C450 C451 1.391 . S
C451 H439 0.950 . S
C451 C447 1.393 . S
C451 C450 1.391 . S
H452 C460 0.950 . S
H453 C465 0.950 . S
H454 C462 0.950 . S
H455 C464 0.950 . S
H456 C466 0.938 1_545 S
H457 C468 0.950 . S
H458 C470 0.950 . S
H459 C471 0.950 . S
C460 H452 0.950 . S
C460 C461 1.386 . S
C460 C462 1.391 . S
C461 C460 1.386 . S
C461 C465 1.393 . S
C462 H454 0.950 . S
C462 C460 1.391 . S
C462 C463 1.400 . S
C463 C462 1.400 . S
C463 C464 1.398 . S
C463 C469 1.491 . S
C464 H455 0.950 . S
C464 C463 1.398 . S
C464 C465 1.391 . S
C465 H453 0.950 . S
C465 C461 1.393 . S
C465 C464 1.391 . S
C466 H456 0.938 1_565 S
C466 C467 1.386 . S
C466 C468 1.391 . S
C467 C466 1.386 . S
C467 C471 1.393 . S
C468 H457 0.950 . S
C468 C466 1.391 . S
C468 C469 1.400 . S
C469 C463 1.491 . S
C469 C468 1.400 . S
C469 C470 1.398 . S
C470 H458 0.950 . S
C470 C469 1.398 . S
C470 C471 1.391 . S
C471 H459 0.950 . S
C471 C467 1.393 . S
C471 C470 1.391 . S
H472 C480 0.950 . S
H473 C485 0.950 . S
H474 C482 0.950 . S
H475 C484 0.950 . S
H476 C486 0.950 . S
H477 C488 0.950 . S
H478 C490 0.950 . S
H479 C491 0.950 . S
C480 H472 0.950 . S
C480 C481 1.386 . S
C480 C482 1.391 . S
C481 C480 1.386 . S
C481 C485 1.393 . S
C482 H474 0.950 . S
C482 C480 1.391 . S
C482 C483 1.400 . S
C483 C482 1.400 . S
C483 C484 1.398 . S
C483 C489 1.491 . S
C484 H475 0.950 . S
C484 C483 1.398 . S
C484 C485 1.391 . S
C485 H473 0.950 . S
C485 C481 1.393 . S
C485 C484 1.391 . S
C486 H476 0.950 . S
C486 C487 1.386 . S
C486 C488 1.391 . S
C487 C486 1.386 . S
C487 C491 1.393 . S
C488 H477 0.950 . S
C488 C486 1.391 . S
C488 C489 1.400 . S
C489 C483 1.491 . S
C489 C488 1.400 . S
C489 C490 1.398 . S
C490 H478 0.950 . S
C490 C489 1.398 . S
C490 C491 1.391 . S
C491 H479 0.950 . S
C491 C487 1.393 . S
C491 C490 1.391 . S
H492 C500 0.950 . S
H493 C505 0.950 . S
H494 C502 0.950 . S
H495 C504 0.950 . S
H496 C506 0.950 . S
H497 C508 0.950 . S
H498 C510 0.950 . S
H499 C511 0.950 . S
C500 H492 0.950 . S
C500 C501 1.386 . S
C500 C502 1.391 . S
C501 C500 1.386 . S
C501 C505 1.393 . S
C502 H494 0.950 . S
C502 C500 1.391 . S
C502 C503 1.400 . S
C503 C502 1.400 . S
C503 C504 1.398 . S
C503 C509 1.491 . S
C504 H495 0.950 . S
C504 C503 1.398 . S
C504 C505 1.391 . S
C505 H493 0.950 . S
C505 C501 1.393 . S
C505 C504 1.391 . S
C506 H496 0.950 . S
C506 C507 1.386 . S
C506 C508 1.391 . S
C507 C506 1.386 . S
C507 C511 1.393 . S
C508 H497 0.950 . S
C508 C506 1.391 . S
C508 C509 1.400 . S
C509 C503 1.491 . S
C509 C508 1.400 . S
C509 C510 1.398 . S
C510 H498 0.950 . S
C510 C509 1.398 . S
C510 C511 1.391 . S
C511 H499 0.950 . S
C511 C507 1.393 . S
C511 C510 1.391 . S
H512 C520 0.950 . S
H513 C525 0.950 . S
H514 C522 0.950 . S
H515 C524 0.950 . S
H516 C526 0.950 . S
H517 C528 0.950 . S
H518 C530 0.950 . S
H519 C531 0.950 . S
C520 H512 0.950 . S
C520 C521 1.386 . S
C520 C522 1.391 . S
C521 C520 1.386 . S
C521 C525 1.393 . S
C522 H514 0.950 . S
C522 C520 1.391 . S
C522 C523 1.400 . S
C523 C522 1.400 . S
C523 C524 1.398 . S
C523 C529 1.491 . S
C524 H515 0.950 . S
C524 C523 1.398 . S
C524 C525 1.391 . S
C525 H513 0.950 . S
C525 C521 1.393 . S
C525 C524 1.391 . S
C526 H516 0.950 . S
C526 C527 1.386 . S
C526 C528 1.391 . S
C527 C526 1.386 . S
C527 C531 1.393 . S
C528 H517 0.950 . S
C528 C526 1.391 . S
C528 C529 1.400 . S
C529 C523 1.491 . S
C529 C528 1.400 . S
C529 C530 1.398 . S
C530 H518 0.950 . S
C530 C529 1.398 . S
C530 C531 1.391 . S
C531 H519 0.950 . S
C531 C527 1.393 . S
C531 C530 1.391 . S
H532 C540 0.950 . S
H533 C545 0.950 . S
H534 C542 0.950 . S
H535 C544 0.950 . S
H536 C546 0.950 . S
H537 C548 0.950 . S
H538 C550 0.950 . S
H539 C551 0.950 . S
C540 H532 0.950 . S
C540 C541 1.386 . S
C540 C542 1.391 . S
C541 C540 1.386 . S
C541 C545 1.393 . S
C542 H534 0.950 . S
C542 C540 1.391 . S
C542 C543 1.400 . S
C543 C542 1.400 . S
C543 C544 1.398 . S
C543 C549 1.491 . S
C544 H535 0.950 . S
C544 C543 1.398 . S
C544 C545 1.391 . S
C545 H533 0.950 . S
C545 C541 1.393 . S
C545 C544 1.391 . S
C546 H536 0.950 . S
C546 C547 1.386 . S
C546 C548 1.391 . S
C547 C546 1.386 . S
C547 C551 1.393 . S
C548 H537 0.950 . S
C548 C546 1.391 . S
C548 C549 1.400 . S
C549 C543 1.491 . S
C549 C548 1.400 . S
C549 C550 1.398 . S
C550 H538 0.950 . S
C550 C549 1.398 . S
C550 C551 1.391 . S
C551 H539 0.950 . S
C551 C547 1.393 . S
C551 C550 1.391 . S
H552 C560 0.950 . S
H553 C565 0.950 . S
H554 C562 0.950 . S
H555 C564 0.950 . S
H556 C566 0.950 . S
H557 C568 0.950 . S
H558 C570 0.950 . S
H559 C571 0.950 . S
C560 H552 0.950 . S
C560 C561 1.386 . S
C560 C562 1.391 . S
C561 C560 1.386 . S
C561 C565 1.393 . S
C562 H554 0.950 . S
C562 C560 1.391 . S
C562 C563 1.400 . S
C563 C562 1.400 . S
C563 C564 1.398 . S
C563 C569 1.491 . S
C564 H555 0.950 . S
C564 C563 1.398 . S
C564 C565 1.391 . S
C565 H553 0.950 . S
C565 C561 1.393 . S
C565 C564 1.391 . S
C566 H556 0.950 . S
C566 C567 1.386 . S
C566 C568 1.391 . S
C567 C566 1.386 . S
C567 C571 1.393 . S
C568 H557 0.950 . S
C568 C566 1.391 . S
C568 C569 1.400 . S
C569 C563 1.491 . S
C569 C568 1.400 . S
C569 C570 1.398 . S
C570 H558 0.950 . S
C570 C569 1.398 . S
C570 C571 1.391 . S
C571 H559 0.950 . S
C571 C567 1.393 . S
C571 C570 1.391 . S
H572 C580 0.950 . S
H573 C585 0.950 . S
H574 C582 0.950 . S
H575 C584 0.950 . S
H576 C586 0.950 1_655 S
H577 C588 0.950 . S
H578 C590 0.950 . S
H579 C591 0.950 . S
C580 H572 0.950 . S
C580 C581 1.386 . S
C580 C582 1.391 . S
C581 C580 1.386 . S
C581 C585 1.393 . S
C582 H574 0.950 . S
C582 C580 1.391 . S
C582 C583 1.400 . S
C583 C582 1.400 . S
C583 C584 1.398 . S
C583 C589 1.491 . S
C584 H575 0.950 . S
C584 C583 1.398 . S
C584 C585 1.391 . S
C585 H573 0.950 . S
C585 C581 1.393 . S
C585 C584 1.391 . S
C586 H576 0.950 1_455 S
C586 C587 1.386 . S
C586 C588 1.391 . S
C587 C586 1.386 . S
C587 C591 1.393 . S
C588 H577 0.950 . S
C588 C586 1.391 . S
C588 C589 1.400 . S
C589 C583 1.491 . S
C589 C588 1.400 . S
C589 C590 1.398 . S
C590 H578 0.950 . S
C590 C589 1.398 . S
C590 C591 1.391 . S
C591 H579 0.950 . S
C591 C587 1.393 . S
C591 C590 1.391 . S
H592 C600 0.950 . S
H593 C605 0.950 . S
H594 C602 0.950 . S
H595 C604 0.950 . S
H596 C606 0.950 . S
H597 C608 0.950 . S
H598 C610 0.950 . S
H599 C611 0.950 . S
C600 H592 0.950 . S
C600 C601 1.386 . S
C600 C602 1.391 . S
C601 C600 1.386 . S
C601 C605 1.393 . S
C602 H594 0.950 . S
C602 C600 1.391 . S
C602 C603 1.400 . S
C603 C602 1.400 . S
C603 C604 1.398 . S
C603 C609 1.491 . S
C604 H595 0.950 . S
C604 C603 1.398 . S
C604 C605 1.391 . S
C605 H593 0.950 . S
C605 C601 1.393 . S
C605 C604 1.391 . S
C606 H596 0.950 . S
C606 C607 1.386 . S
C606 C608 1.391 . S
C607 C606 1.386 . S
C607 C611 1.393 . S
C608 H597 0.950 . S
C608 C606 1.391 . S
C608 C609 1.400 . S
C609 C603 1.491 . S
C609 C608 1.400 . S
C609 C610 1.398 . S
C610 H598 0.950 . S
C610 C609 1.398 . S
C610 C611 1.391 . S
C611 H599 0.950 . S
C611 C607 1.393 . S
C611 C610 1.391 . S
H612 C620 0.950 1_455 S
H613 C625 0.950 . S
H614 C622 0.950 1_455 S
H615 C624 0.950 . S
H616 C626 0.950 . S
H617 C628 0.950 . S
H618 C630 0.950 . S
H619 C631 0.950 . S
C620 H612 0.950 1_655 S
C620 C621 1.386 . S
C620 C622 1.391 . S
C621 C620 1.386 . S
C621 C625 1.393 . S
C622 H614 0.950 1_655 S
C622 C620 1.391 . S
C622 C623 1.400 . S
C623 C622 1.400 . S
C623 C624 1.398 . S
C623 C629 1.491 . S
C624 H615 0.950 . S
C624 C623 1.398 . S
C624 C625 1.391 . S
C625 H613 0.950 . S
C625 C621 1.393 . S
C625 C624 1.391 . S
C626 H616 0.950 . S
C626 C627 1.386 . S
C626 C628 1.391 . S
C627 C626 1.386 . S
C627 C631 1.393 1_655 S
C628 H617 0.950 . S
C628 C626 1.391 . S
C628 C629 1.400 . S
C629 C623 1.491 . S
C629 C628 1.400 . S
C629 C630 1.398 1_655 S
C630 H618 0.950 . S
C630 C629 1.398 1_455 S
C630 C631 1.391 . S
C631 H619 0.950 . S
C631 C627 1.393 1_455 S
C631 C630 1.391 . S
H632 C640 0.950 . S
H633 C645 0.950 . S
H634 C642 0.950 . S
H635 C644 0.950 . S
H636 C646 0.950 . S
H637 C648 0.950 . S
H638 C650 0.950 . S
H639 C651 0.950 . S
C640 H632 0.950 . S
C640 C641 1.386 . S
C640 C642 1.391 . S
C641 C640 1.386 . S
C641 C645 1.393 . S
C642 H634 0.950 . S
C642 C640 1.391 . S
C642 C643 1.400 . S
C643 C642 1.400 . S
C643 C644 1.398 . S
C643 C649 1.491 . S
C644 H635 0.950 . S
C644 C643 1.398 . S
C644 C645 1.391 . S
C645 H633 0.950 . S
C645 C641 1.393 . S
C645 C644 1.391 . S
C646 H636 0.950 . S
C646 C647 1.386 . S
C646 C648 1.391 . S
C647 C646 1.386 . S
C647 C651 1.393 . S
C648 H637 0.950 . S
C648 C646 1.391 . S
C648 C649 1.400 . S
C649 C643 1.491 . S
C649 C648 1.400 . S
C649 C650 1.398 . S
C650 H638 0.950 . S
C650 C649 1.398 . S
C650 C651 1.391 . S
C651 H639 0.950 . S
C651 C647 1.393 . S
C651 C650 1.391 . S
H652 C660 0.950 . S
H653 C665 0.950 . S
H654 C662 0.950 . S
H655 C664 0.950 . S
H656 C666 0.950 . S
H657 C668 0.950 . S
H658 C670 0.950 . S
H659 C671 0.950 . S
C660 H652 0.950 . S
C660 C661 1.386 . S
C660 C662 1.391 . S
C661 C660 1.386 . S
C661 C665 1.393 . S
C662 H654 0.950 . S
C662 C660 1.391 . S
C662 C663 1.400 . S
C663 C662 1.400 . S
C663 C664 1.398 . S
C663 C669 1.491 . S
C664 H655 0.950 . S
C664 C663 1.398 . S
C664 C665 1.391 . S
C665 H653 0.950 . S
C665 C661 1.393 . S
C665 C664 1.391 . S
C666 H656 0.950 . S
C666 C667 1.386 . S
C666 C668 1.391 . S
C667 C666 1.386 . S
C667 C671 1.393 . S
C668 H657 0.950 . S
C668 C666 1.391 . S
C668 C669 1.400 . S
C669 C663 1.491 . S
C669 C668 1.400 . S
C669 C670 1.398 . S
C670 H658 0.950 . S
C670 C669 1.398 . S
C670 C671 1.391 . S
C671 H659 0.950 . S
C671 C667 1.393 . S
C671 C670 1.391 . S
H672 C680 0.950 . S
H673 C685 0.950 . S
H674 C682 0.950 . S
H675 C684 0.950 . S
H676 C686 0.950 . S
H677 C688 0.950 . S
H678 C690 0.950 . S
H679 C691 0.950 . S
C680 H672 0.950 . S
C680 C681 1.386 . S
C680 C682 1.391 . S
C681 C680 1.386 . S
C681 C685 1.393 1_545 S
C682 H674 0.950 . S
C682 C680 1.391 . S
C682 C683 1.400 1_545 S
C683 C682 1.400 1_565 S
C683 C684 1.398 . S
C683 C689 1.491 . S
C684 H675 0.950 . S
C684 C683 1.398 . S
C684 C685 1.391 . S
C685 H673 0.950 . S
C685 C681 1.393 1_565 S
C685 C684 1.391 . S
C686 H676 0.950 . S
C686 C687 1.386 . S
C686 C688 1.391 . S
C687 C686 1.386 . S
C687 C691 1.393 . S
C688 H677 0.950 . S
C688 C686 1.391 . S
C688 C689 1.400 . S
C689 C683 1.491 . S
C689 C688 1.400 . S
C689 C690 1.398 . S
C690 H678 0.950 . S
C690 C689 1.398 . S
C690 C691 1.391 . S
C691 H679 0.950 . S
C691 C687 1.393 . S
C691 C690 1.391 . S
H692 C700 0.950 . S
H693 C705 0.950 . S
H694 C702 0.950 . S
H695 C704 0.950 . S
H696 C706 0.950 . S
H697 C708 0.950 . S
H698 C710 0.950 . S
H699 C711 0.950 . S
C700 H692 0.950 . S
C700 C701 1.386 . S
C700 C702 1.391 . S
C701 C700 1.386 . S
C701 C705 1.393 . S
C702 H694 0.950 . S
C702 C700 1.391 . S
C702 C703 1.400 . S
C703 C702 1.400 . S
C703 C704 1.398 . S
C703 C709 1.491 . S
C704 H695 0.950 . S
C704 C703 1.398 . S
C704 C705 1.391 . S
C705 H693 0.950 . S
C705 C701 1.393 . S
C705 C704 1.391 . S
C706 H696 0.950 . S
C706 C707 1.386 . S
C706 C708 1.391 . S
C707 C706 1.386 . S
C707 C711 1.393 . S
C708 H697 0.950 . S
C708 C706 1.391 . S
C708 C709 1.400 . S
C709 C703 1.491 . S
C709 C708 1.400 . S
C709 C710 1.398 . S
C710 H698 0.950 . S
C710 C709 1.398 . S
C710 C711 1.391 . S
C711 H699 0.950 . S
C711 C707 1.393 . S
C711 C710 1.391 . S
H712 C720 0.950 . S
H713 C725 0.950 . S
H714 C722 0.950 . S
H715 C724 0.950 . S
H716 C726 0.950 . S
H717 C728 0.950 . S
H718 C730 0.950 . S
H719 C731 0.950 . S
C720 H712 0.950 . S
C720 C721 1.386 . S
C720 C722 1.391 . S
C721 C720 1.386 . S
C721 C725 1.393 1_565 S
C722 H714 0.950 . S
C722 C720 1.391 . S
C722 C723 1.400 1_565 S
C723 C722 1.400 1_545 S
C723 C724 1.398 . S
C723 C729 1.491 . S
C724 H715 0.950 . S
C724 C723 1.398 . S
C724 C725 1.391 . S
C725 H713 0.950 . S
C725 C721 1.393 1_545 S
C725 C724 1.391 . S
C726 H716 0.950 . S
C726 C727 1.386 . S
C726 C728 1.391 . S
C727 C726 1.386 . S
C727 C731 1.393 . S
C728 H717 0.950 . S
C728 C726 1.391 . S
C728 C729 1.400 . S
C729 C723 1.491 . S
C729 C728 1.400 . S
C729 C730 1.398 . S
C730 H718 0.950 . S
C730 C729 1.398 . S
C730 C731 1.391 . S
C731 H719 0.950 . S
C731 C727 1.393 . S
C731 C730 1.391 . S
H732 C740 0.950 . S
H733 C745 0.950 . S
H734 C742 0.950 . S
H735 C744 0.950 . S
H736 C746 0.950 . S
H737 C748 0.950 . S
H738 C750 0.950 . S
H739 C751 0.950 . S
C740 H732 0.950 . S
C740 C741 1.386 . S
C740 C742 1.391 . S
C741 C740 1.386 . S
C741 C745 1.393 . S
C742 H734 0.950 . S
C742 C740 1.391 . S
C742 C743 1.400 . S
C743 C742 1.400 . S
C743 C744 1.398 . S
C743 C749 1.491 . S
C744 H735 0.950 . S
C744 C743 1.398 . S
C744 C745 1.391 . S
C745 H733 0.950 . S
C745 C741 1.393 . S
C745 C744 1.391 . S
C746 H736 0.950 . S
C746 C747 1.386 . S
C746 C748 1.391 . S
C747 C746 1.386 . S
C747 C751 1.393 . S
C748 H737 0.950 . S
C748 C746 1.391 . S
C748 C749 1.400 . S
C749 C743 1.491 . S
C749 C748 1.400 . S
C749 C750 1.398 . S
C750 H738 0.950 . S
C750 C749 1.398 . S
C750 C751 1.391 . S
C751 H739 0.950 . S
C751 C747 1.393 . S
C751 C750 1.391 . S
H752 C760 0.950 . S
H753 C765 0.950 . S
H754 C762 0.950 . S
H755 C764 0.952 . S
H756 C766 0.950 . S
H757 C768 0.950 . S
H758 C770 0.950 . S
H759 C771 0.950 . S
C760 H752 0.950 . S
C760 C761 1.386 1_545 S
C760 C762 1.391 . S
C761 C760 1.386 1_565 S
C761 C765 1.393 . S
C762 H754 0.950 . S
C762 C760 1.391 . S
C762 C763 1.400 . S
C763 C762 1.400 . S
C763 C764 1.398 . S
C763 C769 1.491 . S
C764 H755 0.952 . S
C764 C763 1.398 . S
C764 C765 1.391 1_545 S
C765 H753 0.950 . S
C765 C761 1.393 . S
C765 C764 1.391 1_565 S
C766 H756 0.950 . S
C766 C767 1.386 . S
C766 C768 1.391 . S
C767 C766 1.386 . S
C767 C771 1.393 . S
C768 H757 0.950 . S
C768 C766 1.391 . S
C768 C769 1.400 . S
C769 C763 1.491 . S
C769 C768 1.400 . S
C769 C770 1.398 . S
C770 H758 0.950 . S
C770 C769 1.398 . S
C770 C771 1.391 . S
C771 H759 0.950 . S
C771 C767 1.393 . S
C771 C770 1.391 . S
H772 C780 0.950 . S
H773 C785 0.950 . S
H774 C782 0.950 . S
H775 C784 0.950 . S
H776 C786 0.950 . S
H777 C788 0.950 . S
H778 C790 0.950 . S
H779 C791 0.950 . S
C780 H772 0.950 . S
C780 C781 1.386 . S
C780 C782 1.391 . S
C781 C780 1.386 . S
C781 C785 1.393 . S
C782 H774 0.950 . S
C782 C780 1.391 . S
C782 C783 1.400 . S
C783 C782 1.400 . S
C783 C784 1.398 . S
C783 C789 1.491 . S
C784 H775 0.950 . S
C784 C783 1.398 . S
C784 C785 1.391 . S
C785 H773 0.950 . S
C785 C781 1.393 . S
C785 C784 1.391 . S
C786 H776 0.950 . S
C786 C787 1.386 . S
C786 C788 1.391 . S
C787 C786 1.386 . S
C787 C791 1.393 . S
C788 H777 0.950 . S
C788 C786 1.391 . S
C788 C789 1.400 . S
C789 C783 1.491 . S
C789 C788 1.400 . S
C789 C790 1.398 . S
C790 H778 0.950 . S
C790 C789 1.398 . S
C790 C791 1.391 . S
C791 H779 0.950 . S
C791 C787 1.393 . S
C791 C790 1.391 . S
H792 C800 0.950 . S
H793 C805 0.950 . S
H794 C802 0.950 . S
H795 C804 0.950 . S
H796 C806 0.950 . S
H797 C808 0.950 . S
H798 C810 0.950 . S
H799 C811 0.950 . S
C800 H792 0.950 . S
C800 C801 1.386 . S
C800 C802 1.391 . S
C801 C800 1.386 . S
C801 C805 1.393 . S
C802 H794 0.950 . S
C802 C800 1.391 . S
C802 C803 1.400 . S
C803 C802 1.400 . S
C803 C804 1.398 . S
C803 C809 1.491 . S
C804 H795 0.950 . S
C804 C803 1.398 . S
C804 C805 1.391 . S
C805 H793 0.950 . S
C805 C801 1.393 . S
C805 C804 1.391 . S
C806 H796 0.950 . S
C806 C807 1.386 . S
C806 C808 1.391 . S
C807 C806 1.386 . S
C807 C811 1.393 . S
C808 H797 0.950 . S
C808 C806 1.391 . S
C808 C809 1.400 . S
C809 C803 1.491 . S
C809 C808 1.400 . S
C809 C810 1.398 . S
C810 H798 0.950 . S
C810 C809 1.398 . S
C810 C811 1.391 . S
C811 H799 0.950 . S
C811 C807 1.393 . S
C811 C810 1.391 . S
H812 C820 0.950 . S
H813 C825 0.950 . S
H814 C822 0.950 . S
H815 C824 0.950 . S
H816 C826 0.950 1_565 S
H817 C828 0.950 . S
H818 C830 0.950 . S
H819 C831 0.950 . S
C820 H812 0.950 . S
C820 C821 1.386 . S
C820 C822 1.391 . S
C821 C820 1.386 . S
C821 C825 1.393 . S
C822 H814 0.950 . S
C822 C820 1.391 . S
C822 C823 1.400 . S
C823 C822 1.400 . S
C823 C824 1.398 . S
C823 C829 1.491 . S
C824 H815 0.950 . S
C824 C823 1.398 . S
C824 C825 1.391 . S
C825 H813 0.950 . S
C825 C821 1.393 . S
C825 C824 1.391 . S
C826 H816 0.950 1_545 S
C826 C827 1.386 . S
C826 C828 1.391 . S
C827 C826 1.386 . S
C827 C831 1.393 . S
C828 H817 0.950 . S
C828 C826 1.391 . S
C828 C829 1.400 . S
C829 C823 1.491 . S
C829 C828 1.400 . S
C829 C830 1.398 . S
C830 H818 0.950 . S
C830 C829 1.398 . S
C830 C831 1.391 . S
C831 H819 0.950 . S
C831 C827 1.393 . S
C831 C830 1.391 . S
H832 C840 0.950 . S
H833 C845 0.950 . S
H834 C842 0.950 . S
H835 C844 0.950 . S
H836 C846 0.950 . S
H837 C848 0.950 . S
H838 C850 0.950 . S
H839 C851 0.950 . S
C840 H832 0.950 . S
C840 C841 1.386 . S
C840 C842 1.391 . S
C841 C840 1.386 . S
C841 C845 1.393 . S
C842 H834 0.950 . S
C842 C840 1.391 . S
C842 C843 1.400 . S
C843 C842 1.400 . S
C843 C844 1.398 . S
C843 C849 1.491 . S
C844 H835 0.950 . S
C844 C843 1.398 . S
C844 C845 1.391 . S
C845 H833 0.950 . S
C845 C841 1.393 . S
C845 C844 1.391 . S
C846 H836 0.950 . S
C846 C847 1.386 . S
C846 C848 1.391 . S
C847 C846 1.386 . S
C847 C851 1.393 . S
C848 H837 0.950 . S
C848 C846 1.391 . S
C848 C849 1.400 . S
C849 C843 1.491 . S
C849 C848 1.400 . S
C849 C850 1.398 . S
C850 H838 0.950 . S
C850 C849 1.398 . S
C850 C851 1.391 . S
C851 H839 0.950 . S
C851 C847 1.393 . S
C851 C850 1.391 . S
H852 C860 0.950 . S
H853 C865 0.950 . S
H854 C862 0.950 . S
H855 C864 0.950 . S
H856 C866 0.950 . S
H857 C868 0.950 . S
H858 C870 0.950 . S
H859 C871 0.950 . S
C860 H852 0.950 . S
C860 C861 1.386 . S
C860 C862 1.391 . S
C861 C860 1.386 . S
C861 C865 1.393 . S
C862 H854 0.950 . S
C862 C860 1.391 . S
C862 C863 1.400 . S
C863 C862 1.400 . S
C863 C864 1.398 . S
C863 C869 1.491 . S
C864 H855 0.950 . S
C864 C863 1.398 . S
C864 C865 1.391 . S
C865 H853 0.950 . S
C865 C861 1.393 . S
C865 C864 1.391 . S
C866 H856 0.950 . S
C866 C867 1.386 . S
C866 C868 1.391 . S
C867 C866 1.386 . S
C867 C871 1.393 . S
C868 H857 0.950 . S
C868 C866 1.391 . S
C868 C869 1.400 . S
C869 C863 1.491 . S
C869 C868 1.400 . S
C869 C870 1.398 . S
C870 H858 0.950 . S
C870 C869 1.398 . S
C870 C871 1.391 . S
C871 H859 0.950 . S
C871 C867 1.393 . S
C871 C870 1.391 . S
H872 C880 0.950 . S
H873 C885 0.950 . S
H874 C882 0.950 . S
H875 C884 0.950 . S
H876 C886 0.950 . S
H877 C888 0.950 . S
H878 C890 0.950 . S
H879 C891 0.950 . S
C880 H872 0.950 . S
C880 C881 1.386 . S
C880 C882 1.391 . S
C881 C880 1.386 . S
C881 C885 1.393 . S
C882 H874 0.950 . S
C882 C880 1.391 . S
C882 C883 1.400 . S
C883 C882 1.400 . S
C883 C884 1.398 . S
C883 C889 1.491 . S
C884 H875 0.950 . S
C884 C883 1.398 . S
C884 C885 1.391 . S
C885 H873 0.950 . S
C885 C881 1.393 . S
C885 C884 1.391 . S
C886 H876 0.950 . S
C886 C887 1.386 . S
C886 C888 1.391 . S
C887 C886 1.386 . S
C887 C891 1.393 . S
C888 H877 0.950 . S
C888 C886 1.391 . S
C888 C889 1.400 . S
C889 C883 1.491 . S
C889 C888 1.400 . S
C889 C890 1.398 . S
C890 H878 0.950 . S
C890 C889 1.398 . S
C890 C891 1.391 . S
C891 H879 0.950 . S
C891 C887 1.393 . S
C891 C890 1.391 . S
H892 C900 0.929 1_565 S
H893 C905 0.950 . S
H894 C902 0.950 1_565 S
H895 C904 0.950 . S
H896 C906 0.950 . S
H897 C908 0.950 . S
H898 C910 0.931 1_565 S
H899 C911 0.950 . S
C900 H892 0.929 1_545 S
C900 C901 1.386 . S
C900 C902 1.391 1_455 S
C901 C900 1.386 . S
C901 C905 1.393 1_455 S
C902 H894 0.950 1_545 S
C902 C900 1.391 1_655 S
C902 C903 1.400 . S
C903 C902 1.400 . S
C903 C904 1.398 . S
C903 C909 1.491 . S
C904 H895 0.950 . S
C904 C903 1.398 . S
C904 C905 1.391 . S
C905 H893 0.950 . S
C905 C901 1.393 1_655 S
C905 C904 1.391 . S
C906 H896 0.950 . S
C906 C907 1.386 . S
C906 C908 1.391 . S
C907 C906 1.386 . S
C907 C911 1.393 1_545 S
C908 H897 0.950 . S
C908 C906 1.391 . S
C908 C909 1.400 . S
C909 C903 1.491 . S
C909 C908 1.400 . S
C909 C910 1.421 . S
C910 H898 0.931 1_545 S
C910 C909 1.421 . S
C910 C911 1.388 1_545 S
C911 H899 0.950 . S
C911 C907 1.393 1_565 S
C911 C910 1.388 1_565 S
H912 C920 0.950 . S
H913 C925 0.950 . S
H914 C922 0.950 . S
H915 C924 0.950 . S
H916 C926 0.950 . S
H917 C928 0.950 . S
H918 C930 0.950 . S
H919 C931 0.950 . S
C920 H912 0.950 . S
C920 C921 1.386 . S
C920 C922 1.391 . S
C921 C920 1.386 . S
C921 C925 1.393 . S
C922 H914 0.950 . S
C922 C920 1.391 . S
C922 C923 1.400 . S
C923 C922 1.400 . S
C923 C924 1.398 . S
C923 C929 1.491 . S
C924 H915 0.950 . S
C924 C923 1.398 . S
C924 C925 1.391 . S
C925 H913 0.950 . S
C925 C921 1.393 . S
C925 C924 1.391 . S
C926 H916 0.950 . S
C926 C927 1.386 . S
C926 C928 1.391 . S
C927 C926 1.386 . S
C927 C931 1.393 . S
C928 H917 0.950 . S
C928 C926 1.391 . S
C928 C929 1.400 . S
C929 C923 1.491 . S
C929 C928 1.400 . S
C929 C930 1.398 . S
C930 H918 0.950 . S
C930 C929 1.398 . S
C930 C931 1.391 . S
C931 H919 0.950 . S
C931 C927 1.393 . S
C931 C930 1.391 . S
H932 C940 0.950 . S
H933 C945 0.950 . S
H934 C942 0.950 . S
H935 C944 0.946 1_655 S
H936 C946 0.950 . S
H937 C948 0.950 . S
H938 C950 0.950 . S
H939 C951 0.950 . S
C940 H932 0.950 . S
C940 C941 1.386 1_455 S
C940 C942 1.391 . S
C941 C940 1.386 1_655 S
C941 C945 1.393 . S
C942 H934 0.950 . S
C942 C940 1.391 . S
C942 C943 1.400 . S
C943 C942 1.400 . S
C943 C944 1.423 . S
C943 C949 1.491 . S
C944 H935 0.946 1_455 S
C944 C943 1.423 . S
C944 C945 1.370 1_455 S
C945 H933 0.950 . S
C945 C941 1.393 . S
C945 C944 1.370 1_655 S
C946 H936 0.950 . S
C946 C947 1.386 . S
C946 C948 1.391 . S
C947 C946 1.386 . S
C947 C951 1.393 . S
C948 H937 0.950 . S
C948 C946 1.391 . S
C948 C949 1.400 . S
C949 C943 1.491 . S
C949 C948 1.400 . S
C949 C950 1.398 . S
C950 H938 0.950 . S
C950 C949 1.398 . S
C950 C951 1.391 . S
C951 H939 0.950 . S
C951 C947 1.393 . S
C951 C950 1.391 . S
H952 C960 0.950 . S
H953 C965 0.950 . S
H954 C962 0.950 . S
H955 C964 0.950 . S
H956 C966 0.950 . S
H957 C968 0.950 . S
H958 C970 0.950 . S
H959 C971 0.950 . S
C960 H952 0.950 . S
C960 C961 1.386 . S
C960 C962 1.391 . S
C961 C960 1.386 . S
C961 C965 1.393 . S
C962 H954 0.950 . S
C962 C960 1.391 . S
C962 C963 1.400 . S
C963 C962 1.400 . S
C963 C964 1.398 . S
C963 C969 1.491 . S
C964 H955 0.950 . S
C964 C963 1.398 . S
C964 C965 1.391 . S
C965 H953 0.950 . S
C965 C961 1.393 . S
C965 C964 1.391 . S
C966 H956 0.950 . S
C966 C967 1.386 . S
C966 C968 1.391 . S
C967 C966 1.386 . S
C967 C971 1.393 . S
C968 H957 0.950 . S
C968 C966 1.391 . S
C968 C969 1.400 . S
C969 C963 1.491 . S
C969 C968 1.400 . S
C969 C970 1.398 . S
C970 H958 0.950 . S
C970 C969 1.398 . S
C970 C971 1.391 . S
C971 H959 0.950 . S
C971 C967 1.393 . S
C971 C970 1.391 . S
H972 C980 0.950 . S
H973 C985 0.950 . S
H974 C982 0.950 . S
H975 C984 0.950 . S
H976 C986 0.950 . S
H977 C988 0.950 . S
H978 C990 0.950 . S
H979 C991 0.950 . S
C980 H972 0.950 . S
C980 C981 1.386 . S
C980 C982 1.391 . S
C981 C980 1.386 . S
C981 C985 1.393 1_554 S
C982 H974 0.950 . S
C982 C980 1.391 . S
C982 C983 1.400 1_554 S
C983 C982 1.400 1_556 S
C983 C984 1.398 . S
C983 C989 1.491 . S
C984 H975 0.950 . S
C984 C983 1.398 . S
C984 C985 1.391 . S
C985 H973 0.950 . S
C985 C981 1.393 1_556 S
C985 C984 1.391 . S
C986 H976 0.950 . S
C986 C987 1.386 . S
C986 C988 1.391 . S
C987 C986 1.386 . S
C987 C991 1.393 . S
C988 H977 0.950 . S
C988 C986 1.391 . S
C988 C989 1.400 . S
C989 C983 1.491 . S
C989 C988 1.400 . S
C989 C990 1.398 . S
C990 H978 0.950 . S
C990 C989 1.398 . S
C990 C991 1.391 . S
C991 H979 0.950 . S
C991 C987 1.393 . S
C991 C990 1.391 . S
H992 C1000 0.950 . S
H993 C1005 0.950 . S
H994 C1002 0.950 . S
H995 C1004 0.950 . S
H996 C1006 0.950 . S
H997 C1008 0.950 . S
H998 C1010 0.950 . S
H999 C1011 0.950 . S
C1000 H992 0.950 . S
C1000 C1001 1.386 . S
C1000 C1002 1.391 . S
C1001 C1000 1.386 . S
C1001 C1005 1.393 . S
C1002 H994 0.950 . S
C1002 C1000 1.391 . S
C1002 C1003 1.400 . S
C1003 C1002 1.400 . S
C1003 C1004 1.398 . S
C1003 C1009 1.491 . S
C1004 H995 0.950 . S
C1004 C1003 1.398 . S
C1004 C1005 1.391 . S
C1005 H993 0.950 . S
C1005 C1001 1.393 . S
C1005 C1004 1.391 . S
C1006 H996 0.950 . S
C1006 C1007 1.386 . S
C1006 C1008 1.391 . S
C1007 C1006 1.386 . S
C1007 C1011 1.393 . S
C1008 H997 0.950 . S
C1008 C1006 1.391 . S
C1008 C1009 1.400 . S
C1009 C1003 1.491 . S
C1009 C1008 1.400 . S
C1009 C1010 1.398 . S
C1010 H998 0.950 . S
C1010 C1009 1.398 . S
C1010 C1011 1.391 . S
C1011 H999 0.950 . S
C1011 C1007 1.393 . S
C1011 C1010 1.391 . S
H1012 C1020 0.950 . S
H1013 C1025 0.950 . S
H1014 C1022 0.950 . S
H1015 C1024 0.950 1_654 S
H1016 C1026 0.950 1_655 S
H1017 C1028 0.950 1_655 S
H1018 C1030 0.950 . S
H1019 C1031 0.950 . S
C1020 H1012 0.950 . S
C1020 C1021 1.386 1_556 S
C1020 C1022 1.391 . S
C1021 C1020 1.386 1_554 S
C1021 C1025 1.393 . S
C1022 H1014 0.950 . S
C1022 C1020 1.391 . S
C1022 C1023 1.400 . S
C1023 C1022 1.400 . S
C1023 C1024 1.398 . S
C1023 C1029 1.491 . S
C1024 H1015 0.950 1_456 S
C1024 C1023 1.398 . S
C1024 C1025 1.391 1_556 S
C1025 H1013 0.950 . S
C1025 C1021 1.393 . S
C1025 C1024 1.391 1_554 S
C1026 H1016 0.950 1_455 S
C1026 C1027 1.386 . S
C1026 C1028 1.391 . S
C1027 C1026 1.386 . S
C1027 C1031 1.393 . S
C1028 H1017 0.950 1_455 S
C1028 C1026 1.391 . S
C1028 C1029 1.400 . S
C1029 C1023 1.491 . S
C1029 C1028 1.400 . S
C1029 C1030 1.398 . S
C1030 H1018 0.950 . S
C1030 C1029 1.398 . S
C1030 C1031 1.391 . S
C1031 H1019 0.950 . S
C1031 C1027 1.393 . S
C1031 C1030 1.391 . S
H1032 C1040 0.950 . S
H1033 C1045 0.950 . S
H1034 C1042 0.950 . S
H1035 C1044 0.950 . S
H1036 C1046 0.950 . S
H1037 C1048 0.950 . S
H1038 C1050 0.950 . S
H1039 C1051 0.950 . S
C1040 H1032 0.950 . S
C1040 C1041 1.386 . S
C1040 C1042 1.391 . S
C1041 C1040 1.386 . S
C1041 C1045 1.393 . S
C1042 H1034 0.950 . S
C1042 C1040 1.391 . S
C1042 C1043 1.400 . S
C1043 C1042 1.400 . S
C1043 C1044 1.398 . S
C1043 C1049 1.491 . S
C1044 H1035 0.950 . S
C1044 C1043 1.398 . S
C1044 C1045 1.391 . S
C1045 H1033 0.950 . S
C1045 C1041 1.393 . S
C1045 C1044 1.391 . S
C1046 H1036 0.950 . S
C1046 C1047 1.386 . S
C1046 C1048 1.391 . S
C1047 C1046 1.386 . S
C1047 C1051 1.393 . S
C1048 H1037 0.950 . S
C1048 C1046 1.391 . S
C1048 C1049 1.400 . S
C1049 C1043 1.491 . S
C1049 C1048 1.400 . S
C1049 C1050 1.398 . S
C1050 H1038 0.950 . S
C1050 C1049 1.398 . S
C1050 C1051 1.391 . S
C1051 H1039 0.950 . S
C1051 C1047 1.393 . S
C1051 C1050 1.391 . S
H1052 C1060 0.950 . S
H1053 C1065 0.950 . S
H1054 C1062 0.950 . S
H1055 C1064 0.950 . S
H1056 C1066 0.950 . S
H1057 C1068 0.950 . S
H1058 C1070 0.950 . S
H1059 C1071 0.950 . S
C1060 H1052 0.950 . S
C1060 C1061 1.386 . S
C1060 C1062 1.391 1_556 S
C1061 C1060 1.386 . S
C1061 C1065 1.393 1_556 S
C1062 H1054 0.950 . S
C1062 C1060 1.391 1_554 S
C1062 C1063 1.400 . S
C1063 C1062 1.400 . S
C1063 C1064 1.398 . S
C1063 C1069 1.491 . S
C1064 H1055 0.950 . S
C1064 C1063 1.398 . S
C1064 C1065 1.391 . S
C1065 H1053 0.950 . S
C1065 C1061 1.393 1_554 S
C1065 C1064 1.391 . S
C1066 H1056 0.950 . S
C1066 C1067 1.386 . S
C1066 C1068 1.391 . S
C1067 C1066 1.386 . S
C1067 C1071 1.393 . S
C1068 H1057 0.950 . S
C1068 C1066 1.391 . S
C1068 C1069 1.400 . S
C1069 C1063 1.491 . S
C1069 C1068 1.400 . S
C1069 C1070 1.398 . S
C1070 H1058 0.950 . S
C1070 C1069 1.398 . S
C1070 C1071 1.391 . S
C1071 H1059 0.950 . S
C1071 C1067 1.393 . S
C1071 C1070 1.391 . S
H1072 C1080 0.950 . S
H1073 C1085 0.950 . S
H1074 C1082 0.950 . S
H1075 C1084 0.950 . S
H1076 C1086 0.950 . S
H1077 C1088 0.950 . S
H1078 C1090 0.950 . S
H1079 C1091 0.950 . S
C1080 H1072 0.950 . S
C1080 C1081 1.386 . S
C1080 C1082 1.391 . S
C1081 C1080 1.386 . S
C1081 C1085 1.393 . S
C1082 H1074 0.950 . S
C1082 C1080 1.391 . S
C1082 C1083 1.400 . S
C1083 C1082 1.400 . S
C1083 C1084 1.398 . S
C1083 C1089 1.491 . S
C1084 H1075 0.950 . S
C1084 C1083 1.398 . S
C1084 C1085 1.391 . S
C1085 H1073 0.950 . S
C1085 C1081 1.393 . S
C1085 C1084 1.391 . S
C1086 H1076 0.950 . S
C1086 C1087 1.386 . S
C1086 C1088 1.391 . S
C1087 C1086 1.386 . S
C1087 C1091 1.393 . S
C1088 H1077 0.950 . S
C1088 C1086 1.391 . S
C1088 C1089 1.400 . S
C1089 C1083 1.491 . S
C1089 C1088 1.400 . S
C1089 C1090 1.398 . S
C1090 H1078 0.950 . S
C1090 C1089 1.398 . S
C1090 C1091 1.391 . S
C1091 H1079 0.950 . S
C1091 C1087 1.393 . S
C1091 C1090 1.391 . S
H1092 C1100 0.950 . S
H1093 C1105 0.950 . S
H1094 C1102 0.950 . S
H1095 C1104 0.950 . S
H1096 C1106 0.950 . S
H1097 C1108 0.950 . S
H1098 C1110 0.950 . S
H1099 C1111 0.950 . S
C1100 H1092 0.950 . S
C1100 C1101 1.386 . S
C1100 C1102 1.391 1_556 S
C1101 C1100 1.386 . S
C1101 C1105 1.393 . S
C1102 H1094 0.950 . S
C1102 C1100 1.391 1_554 S
C1102 C1103 1.400 . S
C1103 C1102 1.400 . S
C1103 C1104 1.398 . S
C1103 C1109 1.491 . S
C1104 H1095 0.950 . S
C1104 C1103 1.398 . S
C1104 C1105 1.391 1_554 S
C1105 H1093 0.950 . S
C1105 C1101 1.393 . S
C1105 C1104 1.391 1_556 S
C1106 H1096 0.950 . S
C1106 C1107 1.386 . S
C1106 C1108 1.391 . S
C1107 C1106 1.386 . S
C1107 C1111 1.393 . S
C1108 H1097 0.950 . S
C1108 C1106 1.391 . S
C1108 C1109 1.400 . S
C1109 C1103 1.491 . S
C1109 C1108 1.400 . S
C1109 C1110 1.398 . S
C1110 H1098 0.950 . S
C1110 C1109 1.398 . S
C1110 C1111 1.391 . S
C1111 H1099 0.950 . S
C1111 C1107 1.393 . S
C1111 C1110 1.391 . S
H1112 C1120 0.950 . S
H1113 C1125 0.950 . S
H1114 C1122 0.950 . S
H1115 C1124 0.950 . S
H1116 C1126 0.950 . S
H1117 C1128 0.950 . S
H1118 C1130 0.950 . S
H1119 C1131 0.950 . S
C1120 H1112 0.950 . S
C1120 C1121 1.386 . S
C1120 C1122 1.391 . S
C1121 C1120 1.386 . S
C1121 C1125 1.393 . S
C1122 H1114 0.950 . S
C1122 C1120 1.391 . S
C1122 C1123 1.400 . S
C1123 C1122 1.400 . S
C1123 C1124 1.398 . S
C1123 C1129 1.491 . S
C1124 H1115 0.950 . S
C1124 C1123 1.398 . S
C1124 C1125 1.391 . S
C1125 H1113 0.950 . S
C1125 C1121 1.393 . S
C1125 C1124 1.391 . S
C1126 H1116 0.950 . S
C1126 C1127 1.386 . S
C1126 C1128 1.391 . S
C1127 C1126 1.386 . S
C1127 C1131 1.393 . S
C1128 H1117 0.950 . S
C1128 C1126 1.391 . S
C1128 C1129 1.400 . S
C1129 C1123 1.491 . S
C1129 C1128 1.400 . S
C1129 C1130 1.398 . S
C1130 H1118 0.950 . S
C1130 C1129 1.398 . S
C1130 C1131 1.391 . S
C1131 H1119 0.950 . S
C1131 C1127 1.393 . S
C1131 C1130 1.391 . S
H1132 C1140 0.950 . S
H1133 C1145 0.950 . S
H1134 C1142 0.950 . S
H1135 C1144 0.950 . S
H1136 C1146 0.950 . S
H1137 C1148 0.950 . S
H1138 C1150 0.950 . S
H1139 C1151 0.950 . S
C1140 H1132 0.950 . S
C1140 C1141 1.386 . S
C1140 C1142 1.391 . S
C1141 C1140 1.386 . S
C1141 C1145 1.393 . S
C1142 H1134 0.950 . S
C1142 C1140 1.391 . S
C1142 C1143 1.400 . S
C1143 C1142 1.400 . S
C1143 C1144 1.398 . S
C1143 C1149 1.491 . S
C1144 H1135 0.950 . S
C1144 C1143 1.398 . S
C1144 C1145 1.391 . S
C1145 H1133 0.950 . S
C1145 C1141 1.393 . S
C1145 C1144 1.391 . S
C1146 H1136 0.950 . S
C1146 C1147 1.386 . S
C1146 C1148 1.391 . S
C1147 C1146 1.386 . S
C1147 C1151 1.393 . S
C1148 H1137 0.950 . S
C1148 C1146 1.391 . S
C1148 C1149 1.400 . S
C1149 C1143 1.491 . S
C1149 C1148 1.400 . S
C1149 C1150 1.398 . S
C1150 H1138 0.950 . S
C1150 C1149 1.398 . S
C1150 C1151 1.391 . S
C1151 H1139 0.950 . S
C1151 C1147 1.393 . S
C1151 C1150 1.391 . S
H1152 C1160 0.950 . S
H1153 C1165 0.950 . S
H1154 C1162 0.950 . S
H1155 C1164 0.950 . S
H1156 C1166 0.950 . S
H1157 C1168 0.950 . S
H1158 C1170 0.950 . S
H1159 C1171 0.950 . S
C1160 H1152 0.950 . S
C1160 C1161 1.386 . S
C1160 C1162 1.391 . S
C1161 C1160 1.386 . S
C1161 C1165 1.393 . S
C1162 H1154 0.950 . S
C1162 C1160 1.391 . S
C1162 C1163 1.400 . S
C1163 C1162 1.400 . S
C1163 C1164 1.398 . S
C1163 C1169 1.491 . S
C1164 H1155 0.950 . S
C1164 C1163 1.398 . S
C1164 C1165 1.391 . S
C1165 H1153 0.950 . S
C1165 C1161 1.393 . S
C1165 C1164 1.391 . S
C1166 H1156 0.950 . S
C1166 C1167 1.386 . S
C1166 C1168 1.391 . S
C1167 C1166 1.386 . S
C1167 C1171 1.393 . S
C1168 H1157 0.950 . S
C1168 C1166 1.391 . S
C1168 C1169 1.400 . S
C1169 C1163 1.491 . S
C1169 C1168 1.400 . S
C1169 C1170 1.398 . S
C1170 H1158 0.950 . S
C1170 C1169 1.398 . S
C1170 C1171 1.391 . S
C1171 H1159 0.950 . S
C1171 C1167 1.393 . S
C1171 C1170 1.391 . S
H1172 C1180 0.950 . S
H1173 C1185 0.950 . S
H1174 C1182 0.950 . S
H1175 C1184 0.950 . S
H1176 C1186 0.950 . S
H1177 C1188 0.950 . S
H1178 C1190 0.950 . S
H1179 C1191 0.950 . S
C1180 H1172 0.950 . S
C1180 C1181 1.386 . S
C1180 C1182 1.391 . S
C1181 C1180 1.386 . S
C1181 C1185 1.393 . S
C1182 H1174 0.950 . S
C1182 C1180 1.391 . S
C1182 C1183 1.400 . S
C1183 C1182 1.400 . S
C1183 C1184 1.398 . S
C1183 C1189 1.491 . S
C1184 H1175 0.950 . S
C1184 C1183 1.398 . S
C1184 C1185 1.391 . S
C1185 H1173 0.950 . S
C1185 C1181 1.393 . S
C1185 C1184 1.391 . S
C1186 H1176 0.950 . S
C1186 C1187 1.386 . S
C1186 C1188 1.391 . S
C1187 C1186 1.386 . S
C1187 C1191 1.393 . S
C1188 H1177 0.950 . S
C1188 C1186 1.391 . S
C1188 C1189 1.400 . S
C1189 C1183 1.491 . S
C1189 C1188 1.400 . S
C1189 C1190 1.398 . S
C1190 H1178 0.950 . S
C1190 C1189 1.398 . S
C1190 C1191 1.391 . S
C1191 H1179 0.950 . S
C1191 C1187 1.393 . S
C1191 C1190 1.391 . S
H1192 C1200 0.950 . S
H1193 C1205 0.950 . S
H1194 C1202 0.950 . S
H1195 C1204 0.950 . S
H1196 C1206 0.950 1_554 S
H1197 C1208 0.950 . S
H1198 C1210 0.950 . S
H1199 C1211 0.950 . S
C1200 H1192 0.950 . S
C1200 C1201 1.386 . S
C1200 C1202 1.391 . S
C1201 C1200 1.386 . S
C1201 C1205 1.393 . S
C1202 H1194 0.950 . S
C1202 C1200 1.391 . S
C1202 C1203 1.400 . S
C1203 C1202 1.400 . S
C1203 C1204 1.398 . S
C1203 C1209 1.491 . S
C1204 H1195 0.950 . S
C1204 C1203 1.398 . S
C1204 C1205 1.391 . S
C1205 H1193 0.950 . S
C1205 C1201 1.393 . S
C1205 C1204 1.391 . S
C1206 H1196 0.950 1_556 S
C1206 C1207 1.386 . S
C1206 C1208 1.391 . S
C1207 C1206 1.386 . S
C1207 C1211 1.393 . S
C1208 H1197 0.950 . S
C1208 C1206 1.391 . S
C1208 C1209 1.400 . S
C1209 C1203 1.491 . S
C1209 C1208 1.400 . S
C1209 C1210 1.398 . S
C1210 H1198 0.950 . S
C1210 C1209 1.398 . S
C1210 C1211 1.391 . S
C1211 H1199 0.950 . S
C1211 C1207 1.393 . S
C1211 C1210 1.391 . S
H1212 C1220 0.950 . S
H1213 C1225 0.950 . S
H1214 C1222 0.950 . S
H1215 C1224 0.950 . S
H1216 C1226 0.950 . S
H1217 C1228 0.950 . S
H1218 C1230 0.950 . S
H1219 C1231 0.950 . S
C1220 H1212 0.950 . S
C1220 C1221 1.386 . S
C1220 C1222 1.391 . S
C1221 C1220 1.386 . S
C1221 C1225 1.393 . S
C1222 H1214 0.950 . S
C1222 C1220 1.391 . S
C1222 C1223 1.400 . S
C1223 C1222 1.400 . S
C1223 C1224 1.398 . S
C1223 C1229 1.491 . S
C1224 H1215 0.950 . S
C1224 C1223 1.398 . S
C1224 C1225 1.391 . S
C1225 H1213 0.950 . S
C1225 C1221 1.393 . S
C1225 C1224 1.391 . S
C1226 H1216 0.950 . S
C1226 C1227 1.386 . S
C1226 C1228 1.391 . S
C1227 C1226 1.386 . S
C1227 C1231 1.393 . S
C1228 H1217 0.950 . S
C1228 C1226 1.391 . S
C1228 C1229 1.400 . S
C1229 C1223 1.491 . S
C1229 C1228 1.400 . S
C1229 C1230 1.398 . S
C1230 H1218 0.950 . S
C1230 C1229 1.398 . S
C1230 C1231 1.391 . S
C1231 H1219 0.950 . S
C1231 C1227 1.393 . S
C1231 C1230 1.391 . S
H1232 C1240 0.950 . S
H1233 C1245 0.950 . S
H1234 C1242 0.950 . S
H1235 C1244 0.950 . S
H1236 C1246 0.950 1_556 S
H1237 C1248 0.948 . S
H1238 C1250 0.950 . S
H1239 C1251 0.950 . S
C1240 H1232 0.950 . S
C1240 C1241 1.386 . S
C1240 C1242 1.391 . S
C1241 C1240 1.386 . S
C1241 C1245 1.393 . S
C1242 H1234 0.950 . S
C1242 C1240 1.391 . S
C1242 C1243 1.400 . S
C1243 C1242 1.400 . S
C1243 C1244 1.398 . S
C1243 C1249 1.491 . S
C1244 H1235 0.950 . S
C1244 C1243 1.398 . S
C1244 C1245 1.391 . S
C1245 H1233 0.950 . S
C1245 C1241 1.393 . S
C1245 C1244 1.391 . S
C1246 H1236 0.950 1_554 S
C1246 C1247 1.386 . S
C1246 C1248 1.391 . S
C1247 C1246 1.386 . S
C1247 C1251 1.393 . S
C1248 H1237 0.948 . S
C1248 C1246 1.391 . S
C1248 C1249 1.400 . S
C1249 C1243 1.491 . S
C1249 C1248 1.400 . S
C1249 C1250 1.398 . S
C1250 H1238 0.950 . S
C1250 C1249 1.398 . S
C1250 C1251 1.391 . S
C1251 H1239 0.950 . S
C1251 C1247 1.393 . S
C1251 C1250 1.391 . S
H1252 C1260 0.950 . S
H1253 C1265 0.950 . S
H1254 C1262 0.948 . S
H1255 C1264 0.950 . S
H1256 C1266 0.950 1_556 S
H1257 C1268 0.950 . S
H1258 C1270 0.950 . S
H1259 C1271 0.950 . S
C1260 H1252 0.950 . S
C1260 C1261 1.386 . S
C1260 C1262 1.388 . S
C1261 C1260 1.386 . S
C1261 C1265 1.393 1_545 S
C1262 H1254 0.948 . S
C1262 C1260 1.388 . S
C1262 C1263 1.405 1_545 S
C1263 C1262 1.405 1_565 S
C1263 C1264 1.398 . S
C1263 C1269 1.491 . S
C1264 H1255 0.950 . S
C1264 C1263 1.398 . S
C1264 C1265 1.391 . S
C1265 H1253 0.950 . S
C1265 C1261 1.393 1_565 S
C1265 C1264 1.391 . S
C1266 H1256 0.950 1_554 S
C1266 C1267 1.386 . S
C1266 C1268 1.391 . S
C1267 C1266 1.386 . S
C1267 C1271 1.393 . S
C1268 H1257 0.950 . S
C1268 C1266 1.391 . S
C1268 C1269 1.400 . S
C1269 C1263 1.491 . S
C1269 C1268 1.400 . S
C1269 C1270 1.398 . S
C1270 H1258 0.950 . S
C1270 C1269 1.398 . S
C1270 C1271 1.391 . S
C1271 H1259 0.950 . S
C1271 C1267 1.393 . S
C1271 C1270 1.391 . S
C327 C152 1.499 . S
C321 C50 1.517 . S
C347 C165 1.474 . S
C341 C61 1.480 . S
C361 C67 1.616 . S
C367 C185 1.497 . S
C387 C199 1.378 . S
C381 C41 1.445 . S
C407 C211 1.507 . S
C401 C95 1.508 . S
C427 C225 1.445 . S
C421 C113 1.445 . S
C441 C106 1.479 . S
C447 C235 1.468 . S
C467 C250 1.519 . S
C461 C86 1.541 . S
C481 C104 1.506 . S
C487 C264 1.490 . S
C507 C283 1.368 . S
C501 C88 1.455 . S
C521 C94 1.505 . S
C527 C263 1.494 . S
C547 C281 1.428 . S
C541 C112 1.433 . S
C561 C70 1.610 . S
C567 C297 1.508 . S
C581 C40 1.489 . S
C587 C291 1.479 . S
C601 C49 1.514 . S
C607 C295 1.513 . S
C621 C59 1.542 . S
C627 C292 1.513 . S
C641 C34 1.505 . S
C647 C194 1.475 . S
C661 C133 1.487 . S
C667 C193 1.481 . S
C687 C157 1.377 . S
C681 C139 1.453 . S
C707 C171 1.520 . S
C701 C77 1.618 . S
C721 C43 1.523 . S
C727 C208 1.501 . S
C747 C253 1.505 . S
C741 C103 1.513 . S
C767 C207 1.497 . S
C761 C85 1.499 . S
C787 C239 1.423 . S
C781 C115 1.426 . S
C807 C236 1.499 . S
C801 C131 1.517 . S
C821 C142 1.478 . S
C827 C249 1.475 . S
C841 C76 1.616 . S
C847 C213 1.503 . S
C867 C227 1.351 . S
C861 C122 1.445 . S
C881 C32 1.507 . S
C887 C183 1.508 . S
C907 C197 1.442 . S
C901 C5 1.442 . S
C927 C151 1.467 . S
C921 C16 1.479 . S
C947 C166 1.503 . S
C941 C23 1.543 . S
C961 C14 1.508 . S
C967 C278 1.471 . S
C981 C25 1.455 . S
C987 C269 1.374 . S
C1001 C31 1.504 . S
C1007 C277 1.492 . S
C1021 C4 1.434 . S
C1027 C267 1.429 . S
C1047 C311 1.489 . S
C1041 C79 1.605 . S
C1067 C305 1.480 . S
C1061 C121 1.489 . S
C1087 C309 1.506 . S
C1081 C130 1.515 . S
C1101 C140 1.543 . S
C1107 C306 1.509 . S
C1121 C97 1.507 . S
C1127 C222 1.482 . S
C1147 C221 1.481 . S
C1141 C52 1.487 . S
C1167 C241 1.360 . S
C1161 C58 1.454 . S
C1187 C255 1.520 . S
C1181 C68 1.618 . S
C1201 C124 1.523 . S
C1207 C180 1.501 . S
C1227 C169 1.504 . S
C1221 C13 1.514 . S
C1241 C22 1.501 . S
C1247 C179 1.491 . S
C1267 C155 1.428 . S
C1261 C7 1.427 . S
