# Generated by pormake.
# Topology ctn, (3,4)-cn, num edge types: 1
# Building blocks:
#     Node 0, Type 0, BuildingBlock: KAKCAD_clean_linker_0, # of connection points: 3
#     Node 1, Type 0, BuildingBlock: KAKCAD_clean_linker_0, # of connection points: 3
#     Node 2, Type 0, BuildingBlock: KAKCAD_clean_linker_0, # of connection points: 3
#     Node 3, Type 0, BuildingBlock: KAKCAD_clean_linker_0, # of connection points: 3
#     Node 4, Type 0, BuildingBlock: KAKCAD_clean_linker_0, # of connection points: 3
#     Node 5, Type 0, BuildingBlock: KAKCAD_clean_linker_0, # of connection points: 3
#     Node 6, Type 0, BuildingBlock: KAKCAD_clean_linker_0, # of connection points: 3
#     Node 7, Type 0, BuildingBlock: KAKCAD_clean_linker_0, # of connection points: 3
#     Node 8, Type 0, BuildingBlock: KAKCAD_clean_linker_0, # of connection points: 3
#     Node 9, Type 0, BuildingBlock: KAKCAD_clean_linker_0, # of connection points: 3
#     Node 10, Type 0, BuildingBlock: KAKCAD_clean_linker_0, # of connection points: 3
#     Node 11, Type 0, BuildingBlock: KAKCAD_clean_linker_0, # of connection points: 3
#     Node 12, Type 0, BuildingBlock: KAKCAD_clean_linker_0, # of connection points: 3
#     Node 13, Type 0, BuildingBlock: KAKCAD_clean_linker_0, # of connection points: 3
#     Node 14, Type 0, BuildingBlock: KAKCAD_clean_linker_0, # of connection points: 3
#     Node 15, Type 0, BuildingBlock: KAKCAD_clean_linker_0, # of connection points: 3
#     Node 16, Type 1, BuildingBlock: NAHDIM_clean_sbu_0, # of connection points: 4
#     Node 17, Type 1, BuildingBlock: NAHDIM_clean_sbu_0, # of connection points: 4
#     Node 18, Type 1, BuildingBlock: NAHDIM_clean_sbu_0, # of connection points: 4
#     Node 19, Type 1, BuildingBlock: NAHDIM_clean_sbu_0, # of connection points: 4
#     Node 20, Type 1, BuildingBlock: NAHDIM_clean_sbu_0, # of connection points: 4
#     Node 21, Type 1, BuildingBlock: NAHDIM_clean_sbu_0, # of connection points: 4
#     Node 22, Type 1, BuildingBlock: NAHDIM_clean_sbu_0, # of connection points: 4
#     Node 23, Type 1, BuildingBlock: NAHDIM_clean_sbu_0, # of connection points: 4
#     Node 24, Type 1, BuildingBlock: NAHDIM_clean_sbu_0, # of connection points: 4
#     Node 25, Type 1, BuildingBlock: NAHDIM_clean_sbu_0, # of connection points: 4
#     Node 26, Type 1, BuildingBlock: NAHDIM_clean_sbu_0, # of connection points: 4
#     Node 27, Type 1, BuildingBlock: NAHDIM_clean_sbu_0, # of connection points: 4
#     Edge 28, Type (0, 1), BuildingBlock: UVAHIK_clean_linker_0, # of connection points: 2
#     Edge 29, Type (0, 1), BuildingBlock: UVAHIK_clean_linker_0, # of connection points: 2
#     Edge 30, Type (0, 1), BuildingBlock: UVAHIK_clean_linker_0, # of connection points: 2
#     Edge 31, Type (0, 1), BuildingBlock: UVAHIK_clean_linker_0, # of connection points: 2
#     Edge 32, Type (0, 1), BuildingBlock: UVAHIK_clean_linker_0, # of connection points: 2
#     Edge 33, Type (0, 1), BuildingBlock: UVAHIK_clean_linker_0, # of connection points: 2
#     Edge 34, Type (0, 1), BuildingBlock: UVAHIK_clean_linker_0, # of connection points: 2
#     Edge 35, Type (0, 1), BuildingBlock: UVAHIK_clean_linker_0, # of connection points: 2
#     Edge 36, Type (0, 1), BuildingBlock: UVAHIK_clean_linker_0, # of connection points: 2
#     Edge 37, Type (0, 1), BuildingBlock: UVAHIK_clean_linker_0, # of connection points: 2
#     Edge 38, Type (0, 1), BuildingBlock: UVAHIK_clean_linker_0, # of connection points: 2
#     Edge 39, Type (0, 1), BuildingBlock: UVAHIK_clean_linker_0, # of connection points: 2
#     Edge 40, Type (0, 1), BuildingBlock: UVAHIK_clean_linker_0, # of connection points: 2
#     Edge 41, Type (0, 1), BuildingBlock: UVAHIK_clean_linker_0, # of connection points: 2
#     Edge 42, Type (0, 1), BuildingBlock: UVAHIK_clean_linker_0, # of connection points: 2
#     Edge 43, Type (0, 1), BuildingBlock: UVAHIK_clean_linker_0, # of connection points: 2
#     Edge 44, Type (0, 1), BuildingBlock: UVAHIK_clean_linker_0, # of connection points: 2
#     Edge 45, Type (0, 1), BuildingBlock: UVAHIK_clean_linker_0, # of connection points: 2
#     Edge 46, Type (0, 1), BuildingBlock: UVAHIK_clean_linker_0, # of connection points: 2
#     Edge 47, Type (0, 1), BuildingBlock: UVAHIK_clean_linker_0, # of connection points: 2
#     Edge 48, Type (0, 1), BuildingBlock: UVAHIK_clean_linker_0, # of connection points: 2
#     Edge 49, Type (0, 1), BuildingBlock: UVAHIK_clean_linker_0, # of connection points: 2
#     Edge 50, Type (0, 1), BuildingBlock: UVAHIK_clean_linker_0, # of connection points: 2
#     Edge 51, Type (0, 1), BuildingBlock: UVAHIK_clean_linker_0, # of connection points: 2
#     Edge 52, Type (0, 1), BuildingBlock: UVAHIK_clean_linker_0, # of connection points: 2
#     Edge 53, Type (0, 1), BuildingBlock: UVAHIK_clean_linker_0, # of connection points: 2
#     Edge 54, Type (0, 1), BuildingBlock: UVAHIK_clean_linker_0, # of connection points: 2
#     Edge 55, Type (0, 1), BuildingBlock: UVAHIK_clean_linker_0, # of connection points: 2
#     Edge 56, Type (0, 1), BuildingBlock: UVAHIK_clean_linker_0, # of connection points: 2
#     Edge 57, Type (0, 1), BuildingBlock: UVAHIK_clean_linker_0, # of connection points: 2
#     Edge 58, Type (0, 1), BuildingBlock: UVAHIK_clean_linker_0, # of connection points: 2
#     Edge 59, Type (0, 1), BuildingBlock: UVAHIK_clean_linker_0, # of connection points: 2
#     Edge 60, Type (0, 1), BuildingBlock: UVAHIK_clean_linker_0, # of connection points: 2
#     Edge 61, Type (0, 1), BuildingBlock: UVAHIK_clean_linker_0, # of connection points: 2
#     Edge 62, Type (0, 1), BuildingBlock: UVAHIK_clean_linker_0, # of connection points: 2
#     Edge 63, Type (0, 1), BuildingBlock: UVAHIK_clean_linker_0, # of connection points: 2
#     Edge 64, Type (0, 1), BuildingBlock: UVAHIK_clean_linker_0, # of connection points: 2
#     Edge 65, Type (0, 1), BuildingBlock: UVAHIK_clean_linker_0, # of connection points: 2
#     Edge 66, Type (0, 1), BuildingBlock: UVAHIK_clean_linker_0, # of connection points: 2
#     Edge 67, Type (0, 1), BuildingBlock: UVAHIK_clean_linker_0, # of connection points: 2
#     Edge 68, Type (0, 1), BuildingBlock: UVAHIK_clean_linker_0, # of connection points: 2
#     Edge 69, Type (0, 1), BuildingBlock: UVAHIK_clean_linker_0, # of connection points: 2
#     Edge 70, Type (0, 1), BuildingBlock: UVAHIK_clean_linker_0, # of connection points: 2
#     Edge 71, Type (0, 1), BuildingBlock: UVAHIK_clean_linker_0, # of connection points: 2
#     Edge 72, Type (0, 1), BuildingBlock: UVAHIK_clean_linker_0, # of connection points: 2
#     Edge 73, Type (0, 1), BuildingBlock: UVAHIK_clean_linker_0, # of connection points: 2
#     Edge 74, Type (0, 1), BuildingBlock: UVAHIK_clean_linker_0, # of connection points: 2
#     Edge 75, Type (0, 1), BuildingBlock: UVAHIK_clean_linker_0, # of connection points: 2
# Relax obj value: 0.001
# Max RMSD: 0.033
# Mean RMSD: 0.016
data_MOF--net-ctn--node1-NAHDIM_clean_sbu_0--node2-KAKCAD_clean_linker_0--edge1-UVAHIK_clean_linker_0
_symmetry_space_group_name_H-M    P1
_symmetry_Int_Tables_number       1
_symmetry_cell_setting            triclinic
loop_
_symmetry_equiv_pos_as_xyz
'x, y, z'
_cell_length_a     84.234124
_cell_length_b     84.570695
_cell_length_c     83.690734
_cell_angle_alpha  91.151525
_cell_angle_beta   90.328131
_cell_angle_gamma 92.169217
loop_
_atom_site_label
_atom_site_type_symbol
_atom_site_fract_x
_atom_site_fract_y
_atom_site_fract_z
_atom_type_partial_charge
C0 C 0.02773 0.07402 0.98478 0.0
C1 C 0.02427 0.08934 0.99022 0.0
C2 C 0.0294 0.0618 0.99559 0.0
C3 C 0.02767 0.06463 0.01209 0.0
C4 C 0.0241 0.07992 0.01751 0.0
C5 C 0.0224 0.09212 0.00671 0.0
C6 C 0.02983 0.05177 0.02366 0.0
C7 C 0.04221 0.04125 0.0217 0.0
C8 C 0.0447 0.02942 0.03289 0.0
C9 C 0.03461 0.02815 0.04614 0.0
C10 C 0.02214 0.03854 0.04829 0.0
C11 C 0.0198 0.05026 0.03694 0.0
C12 C 0.01179 0.03739 0.06255 0.0
C13 C 0.00632 0.02257 0.06804 0.0
C14 C 0.00747 0.05114 0.07092 0.0
C15 C -0.00203 0.05009 0.0845 0.0
C16 C 0.99257 0.03527 0.09005 0.0
C17 C 0.05814 0.01871 0.03096 0.0
C18 C 0.06155 0.012 0.01593 0.0
C19 C 0.06782 0.01533 0.0441 0.0
C20 C 0.08071 0.00556 0.04221 0.0
C21 C 0.08421 -0.00107 0.02716 0.0
C22 C 0.07443 0.0022 0.01405 0.0
C23 C 0.99681 0.02152 0.08163 0.0
H24 H 0.02938 0.07151 0.97217 0.0
H25 H 0.032 0.05012 0.99101 0.0
H26 H 0.02286 0.08255 0.03015 0.0
H27 H 0.01953 0.10373 0.01129 0.0
H28 H 0.0503 0.04261 0.01176 0.0
H29 H 0.00999 0.05809 0.03834 0.0
H30 H 0.03656 0.01913 0.05489 0.0
H31 H 0.00931 0.01177 0.06177 0.0
H32 H 0.01163 0.06273 0.0671 0.0
H33 H 0.99478 0.06091 0.09061 0.0
H34 H 0.05417 0.01423 0.00563 0.0
H35 H 0.06564 0.02052 0.05578 0.0
H36 H 0.99296 0.00992 0.08567 0.0
H37 H 0.07664 0.99708 0.00235 0.0
H38 H 0.08816 0.0035 0.0525 0.0
C39 C 0.32797 0.72998 0.25217 0.0
C40 C 0.33662 0.71745 0.25811 0.0
C41 C 0.31624 0.72714 0.24049 0.0
C42 C 0.31287 0.71172 0.23452 0.0
C43 C 0.3214 0.69917 0.24058 0.0
C44 C 0.33316 0.70201 0.25223 0.0
C45 C 0.30059 0.70872 0.22193 0.0
C46 C 0.29959 0.7189 0.20894 0.0
C47 C 0.28803 0.71614 0.19694 0.0
C48 C 0.27756 0.70288 0.19794 0.0
C49 C 0.27826 0.69261 0.21091 0.0
C50 C 0.28982 0.69569 0.22287 0.0
C51 C 0.26676 0.67887 0.21209 0.0
C52 C 0.25092 0.68004 0.20698 0.0
C53 C 0.2715 0.66447 0.21838 0.0
C54 C 0.26066 0.65165 0.21965 0.0
C55 C 0.24484 0.65279 0.21444 0.0
C56 C 0.28653 0.72736 0.18363 0.0
C57 C 0.28771 0.74378 0.18664 0.0
C58 C 0.28326 0.72178 0.16798 0.0
C59 C 0.28079 0.73238 0.1557 0.0
C60 C 0.28161 0.74878 0.15879 0.0
C61 C 0.28531 0.75437 0.17434 0.0
C62 C 0.24016 0.66714 0.208 0.0
H63 H 0.33045 0.74202 0.25635 0.0
H64 H 0.30974 0.73703 0.23618 0.0
H65 H 0.31917 0.68717 0.23613 0.0
H66 H 0.33951 0.69208 0.25668 0.0
H67 H 0.30801 0.72885 0.20801 0.0
H68 H 0.29019 0.68819 0.2332 0.0
H69 H 0.2687 0.70067 0.18865 0.0
H70 H 0.24672 0.69098 0.20232 0.0
H71 H 0.28364 0.66303 0.22224 0.0
H72 H 0.26469 0.64091 0.22491 0.0
H73 H 0.28999 0.74847 0.1986 0.0
H74 H 0.28256 0.70921 0.16521 0.0
H75 H 0.22817 0.66844 0.20361 0.0
H76 H 0.28583 0.76694 0.17713 0.0
H77 H 0.2782 0.72773 0.14377 0.0
C78 C 0.98379 0.4724 0.08856 0.0
C79 C 0.00046 0.47182 0.08873 0.0
C80 C 0.97536 0.4715 0.07413 0.0
C81 C 0.9834 0.46992 0.05956 0.0
C82 C 4e-05 0.46927 0.0597 0.0
C83 C 0.00848 0.47026 0.07412 0.0
C84 C 0.97445 0.46891 0.04425 0.0
C85 C 0.96215 0.47923 0.04136 0.0
C86 C 0.95349 0.47825 0.02696 0.0
C87 C 0.95732 0.46681 0.01535 0.0
C88 C 0.96952 0.45628 0.01809 0.0
C89 C 0.97805 0.45747 0.03257 0.0
C90 C 0.97301 0.44365 0.00613 0.0
C91 C 0.96058 0.43529 -0.00201 0.0
C92 C 0.98874 0.43951 0.00315 0.0
C93 C 0.99195 0.42708 0.99255 0.0
C94 C 0.9795 0.41855 0.98461 0.0
C95 C 0.94026 0.489 0.02421 0.0
C96 C 0.92943 0.49214 0.03647 0.0
C97 C 0.93829 0.49611 0.00933 0.0
C98 C 0.92574 0.50612 0.00677 0.0
C99 C 0.91489 0.50924 0.01903 0.0
C100 C 0.91689 0.50214 0.03392 0.0
C101 C 0.96379 0.42293 0.98733 0.0
H102 H 0.97722 0.47333 0.0996 0.0
H103 H 0.96252 0.47181 0.07439 0.0
H104 H 0.00655 0.46824 0.04862 0.0
H105 H 0.02132 0.47006 0.07378 0.0
H106 H 0.9595 0.48824 0.05024 0.0
H107 H 0.98718 0.44914 0.03503 0.0
H108 H 0.95065 0.46599 0.00424 0.0
H109 H 0.94831 0.43804 0.00013 0.0
H110 H -0.00139 0.44584 0.00906 0.0
H111 H 0.00418 0.42395 0.99087 0.0
H112 H 0.93048 0.48665 0.04799 0.0
H113 H 0.94657 0.49408 -0.00029 0.0
H114 H 0.95393 0.41677 0.98124 0.0
H115 H 0.90858 0.50408 0.04353 0.0
H116 H 0.92466 0.51158 0.99523 0.0
C117 C 0.70316 0.76786 0.15132 0.0
C118 C 0.71895 0.76326 0.14969 0.0
C119 C 0.69912 0.77882 0.16319 0.0
C120 C 0.71078 0.78543 0.17367 0.0
C121 C 0.72654 0.78077 0.17209 0.0
C122 C 0.73058 0.7698 0.16025 0.0
C123 C 0.70658 0.79718 0.1862 0.0
C124 C 0.6929 0.7948 0.19547 0.0
C125 C 0.68911 0.80567 0.20766 0.0
C126 C 0.69916 0.81912 0.21041 0.0
C127 C 0.71292 0.82163 0.20128 0.0
C128 C 0.71649 0.81064 0.18916 0.0
C129 C 0.72383 0.83551 0.2046 0.0
C130 C 0.71789 0.85062 0.20735 0.0
C131 C 0.74034 0.83367 0.20503 0.0
C132 C 0.75069 0.84667 0.20808 0.0
C133 C 0.74478 0.8618 0.21075 0.0
C134 C 0.67501 0.80264 0.21789 0.0
C135 C 0.6606 0.79667 0.2112 0.0
C136 C 0.676 0.80531 0.23451 0.0
C137 C 0.66294 0.80193 0.24422 0.0
C138 C 0.64859 0.79576 0.23757 0.0
C139 C 0.64753 0.79327 0.22093 0.0
C140 C 0.72827 0.86365 0.21035 0.0
H141 H 0.69397 0.7632 0.14324 0.0
H142 H 0.68691 0.78232 0.16401 0.0
H143 H 0.73574 0.78545 0.18016 0.0
H144 H 0.74279 0.76629 0.15952 0.0
H145 H 0.6855 0.78415 0.19358 0.0
H146 H 0.72691 0.8127 0.18184 0.0
H147 H 0.69638 0.82755 0.21981 0.0
H148 H 0.70523 0.85241 0.20698 0.0
H149 H 0.74527 0.82214 0.20313 0.0
H150 H 0.76336 0.84488 0.20814 0.0
H151 H 0.65941 0.79463 0.19842 0.0
H152 H 0.68697 0.80972 0.24007 0.0
H153 H 0.72336 0.87515 0.21249 0.0
H154 H 0.6367 0.78841 0.21543 0.0
H155 H 0.66408 0.80418 0.25697 0.0
C156 C 0.98322 0.97612 0.42467 0.0
C157 C 0.98808 0.98014 0.40918 0.0
C158 C 0.99445 0.97341 0.43656 0.0
C159 C 0.01078 0.97467 0.43323 0.0
C160 C 0.01563 0.97864 0.41774 0.0
C161 C 0.00442 0.98134 0.40585 0.0
C162 C 0.02273 0.97194 0.44589 0.0
C163 C 0.02055 0.95932 0.45642 0.0
C164 C 0.03183 0.95664 0.46839 0.0
C165 C 0.04537 0.96678 0.46981 0.0
C166 C 0.04771 0.97949 0.45944 0.0
C167 C 0.03635 0.98196 0.44749 0.0
C168 C 0.06195 0.99027 0.4612 0.0
C169 C 0.06709 0.99569 0.47642 0.0
C170 C 0.07051 0.9952 0.4477 0.0
C171 C 0.08398 0.00526 0.4494 0.0
C172 C 0.08916 0.01065 0.46462 0.0
C173 C 0.0295 0.94324 0.47941 0.0
C174 C 0.01463 0.94009 0.48641 0.0
C175 C 0.04219 0.9336 0.48311 0.0
C176 C 0.04006 0.9211 0.49364 0.0
C177 C 0.02521 0.91802 0.50074 0.0
C178 C 0.01251 0.92764 0.497 0.0
C179 C 0.08053 0.00578 0.47811 0.0
H180 H 0.97073 0.97532 0.42768 0.0
H181 H 0.99034 0.97058 0.44845 0.0
H182 H 0.02813 0.97946 0.41473 0.0
H183 H 0.00854 0.98416 0.39397 0.0
H184 H 0.01025 0.95132 0.45505 0.0
H185 H 0.03791 0.99197 0.43969 0.0
H186 H 0.0541 0.96479 0.47904 0.0
H187 H 0.06059 0.99231 0.48702 0.0
H188 H 0.06694 0.99105 0.43584 0.0
H189 H 0.09048 0.00861 0.43879 0.0
H190 H 0.00467 0.9474 0.48387 0.0
H191 H 0.05375 0.93565 0.47778 0.0
H192 H 0.08404 0.00993 0.48998 0.0
H193 H 0.0009 0.92546 0.50217 0.0
H194 H 0.0501 0.91398 0.49638 0.0
C195 C 0.14626 0.71329 0.76569 0.0
C196 C 0.14338 0.72873 0.76082 0.0
C197 C 0.15899 0.71046 0.77588 0.0
C198 C 0.16904 0.72303 0.78148 0.0
C199 C 0.16611 0.73849 0.77667 0.0
C200 C 0.15344 0.7413 0.7664 0.0
C201 C 0.18255 0.72 0.79227 0.0
C202 C 0.19246 0.70735 0.78906 0.0
C203 C 0.20531 0.7044 0.7992 0.0
C204 C 0.20808 0.71418 0.81276 0.0
C205 C 0.19828 0.72687 0.81616 0.0
C206 C 0.18559 0.72975 0.80581 0.0
C207 C 0.20135 0.73709 0.83053 0.0
C208 C 0.20487 0.73035 0.84528 0.0
C209 C 0.20098 0.75363 0.82956 0.0
C210 C 0.20426 0.76326 0.84302 0.0
C211 C 0.20792 0.75653 0.85777 0.0
C212 C 0.21595 0.69122 0.79556 0.0
C213 C 0.20966 0.67634 0.79041 0.0
C214 C 0.23249 0.69344 0.79728 0.0
C215 C 0.24253 0.68104 0.794 0.0
C216 C 0.23625 0.66613 0.78892 0.0
C217 C 0.2197 0.66392 0.78714 0.0
C218 C 0.2081 0.73997 0.85876 0.0
H219 H 0.13879 0.70335 0.76147 0.0
H220 H 0.16088 0.69845 0.77949 0.0
H221 H 0.17375 0.74838 0.78071 0.0
H222 H 0.15143 0.75334 0.76294 0.0
H223 H 0.19042 0.70005 0.7784 0.0
H224 H 0.1778 0.73935 0.80853 0.0
H225 H 0.21792 0.71193 0.8207 0.0
H226 H 0.205 0.71762 0.84645 0.0
H227 H 0.19847 0.75915 0.8183 0.0
H228 H 0.20425 0.77598 0.8418 0.0
H229 H 0.19695 0.67424 0.7891 0.0
H230 H 0.23771 0.70482 0.80105 0.0
H231 H 0.21059 0.7344 0.86999 0.0
H232 H 0.21451 0.65262 0.78311 0.0
H233 H 0.25521 0.68308 0.79564 0.0
C234 C 0.98094 0.58888 0.49102 0.0
C235 C 0.98015 0.58706 0.50765 0.0
C236 C 0.97828 0.57589 0.48068 0.0
C237 C 0.97472 0.5608 0.48673 0.0
C238 C 0.97399 0.55895 0.50336 0.0
C239 C 0.97672 0.57195 0.51372 0.0
C240 C 0.97159 0.5471 0.47565 0.0
C241 C 0.98116 0.54495 0.46217 0.0
C242 C 0.97792 0.53242 0.4512 0.0
C243 C 0.96494 0.52191 0.45397 0.0
C244 C 0.95544 0.52372 0.46757 0.0
C245 C 0.95884 0.53635 0.47834 0.0
C246 C 0.94188 0.5125 0.47052 0.0
C247 C 0.93113 0.50811 0.45817 0.0
C248 C 0.93952 0.50624 0.48578 0.0
C249 C 0.92664 0.49583 0.48866 0.0
C250 C 0.91579 0.49156 0.47636 0.0
C251 C 0.98817 0.53032 0.43695 0.0
C252 C 0.99432 0.54354 0.42878 0.0
C253 C 0.99211 0.51512 0.43155 0.0
C254 C 0.00201 0.5132 0.41838 0.0
C255 C 0.00837 0.52644 0.41036 0.0
C256 C 0.00437 0.54163 0.41573 0.0
C257 C 0.91817 0.49779 0.46108 0.0
H258 H 0.98373 0.60035 0.48599 0.0
H259 H 0.97877 0.57772 0.46791 0.0
H260 H 0.97141 0.54743 0.50837 0.0
H261 H 0.9759 0.5702 0.52648 0.0
H262 H 0.99135 0.55291 0.46041 0.0
H263 H 0.95123 0.53807 0.48859 0.0
H264 H 0.96221 0.51226 0.44556 0.0
H265 H 0.9326 0.51285 0.44632 0.0
H266 H 0.94769 0.50934 0.49549 0.0
H267 H 0.92503 0.49131 0.50059 0.0
H268 H 0.99136 0.55542 0.43243 0.0
H269 H 0.98775 0.50467 0.43765 0.0
H270 H 0.91005 0.49461 0.45136 0.0
H271 H 0.00917 0.55213 0.41001 0.0
H272 H 0.00463 0.50131 0.41445 0.0
C273 C 0.79849 0.75062 0.8354 0.0
C274 C 0.78307 0.74717 0.841 0.0
C275 C 0.80086 0.76011 0.82209 0.0
C276 C 0.78786 0.76633 0.81407 0.0
C277 C 0.77242 0.76263 0.8195 0.0
C278 C 0.77006 0.75318 0.83283 0.0
C279 C 0.79037 0.77695 0.80032 0.0
C280 C 0.80178 0.77365 0.78866 0.0
C281 C 0.8044 0.78383 0.77578 0.0
C282 C 0.79535 0.7974 0.77466 0.0
C283 C 0.78375 0.80076 0.78608 0.0
C284 C 0.78141 0.79052 0.79891 0.0
C285 C 0.7739 0.81482 0.78449 0.0
C286 C 0.78079 0.82949 0.7801 0.0
C287 C 0.75744 0.81359 0.78714 0.0
C288 C 0.74805 0.82669 0.78529 0.0
C289 C 0.75491 0.84132 0.78076 0.0
C290 C 0.81653 0.78031 0.76349 0.0
C291 C 0.8311 0.77398 0.76788 0.0
C292 C 0.81373 0.78344 0.74728 0.0
C293 C 0.82531 0.78057 0.73581 0.0
C294 C 0.83984 0.7743 0.74025 0.0
C295 C 0.84259 0.77092 0.75636 0.0
C296 C 0.77139 0.84261 0.77828 0.0
H297 H 0.80877 0.74631 0.84156 0.0
H298 H 0.81291 0.76291 0.81832 0.0
H299 H 0.76214 0.767 0.81341 0.0
H300 H 0.75802 0.7505 0.83669 0.0
H301 H 0.80836 0.76293 0.78943 0.0
H302 H 0.77282 0.79334 0.80803 0.0
H303 H 0.79727 0.80537 0.76482 0.0
H304 H 0.79346 0.83084 0.77814 0.0
H305 H 0.75176 0.80242 0.7904 0.0
H306 H 0.73541 0.82537 0.78747 0.0
H307 H 0.83378 0.77166 0.78026 0.0
H308 H 0.80254 0.788 0.7434 0.0
H309 H 0.77701 0.85369 0.77467 0.0
H310 H 0.85378 0.76624 0.76012 0.0
H311 H 0.82283 0.7831 0.72342 0.0
C312 C 0.29756 0.25233 0.33653 0.0
C313 C 0.28211 0.24844 0.34177 0.0
C314 C 0.29995 0.2618 0.3232 0.0
C315 C 0.28694 0.26758 0.31483 0.0
C316 C 0.27149 0.26348 0.31994 0.0
C317 C 0.2691 0.25403 0.33327 0.0
C318 C 0.28947 0.27815 0.30105 0.0
C319 C 0.30125 0.27508 0.2897 0.0
C320 C 0.30394 0.28526 0.27683 0.0
C321 C 0.29459 0.29859 0.27539 0.0
C322 C 0.28264 0.30171 0.28651 0.0
C323 C 0.2802 0.29147 0.29932 0.0
C324 C 0.27261 0.31561 0.28471 0.0
C325 C 0.27943 0.33043 0.28075 0.0
C326 C 0.25609 0.3141 0.28684 0.0
C327 C 0.24658 0.32711 0.28496 0.0
C328 C 0.25338 0.34192 0.28095 0.0
C329 C 0.31651 0.28201 0.26493 0.0
C330 C 0.33117 0.27627 0.26981 0.0
C331 C 0.31401 0.28477 0.24861 0.0
C332 C 0.32595 0.28208 0.23748 0.0
C333 C 0.34065 0.27641 0.24237 0.0
C334 C 0.34306 0.27344 0.25867 0.0
C335 C 0.26992 0.34347 0.27893 0.0
H336 H 0.30783 0.24836 0.34295 0.0
H337 H 0.31201 0.26492 0.3197 0.0
H338 H 0.26121 0.26751 0.31358 0.0
H339 H 0.25704 0.25101 0.33686 0.0
H340 H 0.3081 0.26456 0.29072 0.0
H341 H 0.27132 0.29412 0.3082 0.0
H342 H 0.29658 0.30656 0.26557 0.0
H343 H 0.29215 0.33199 0.27918 0.0
H344 H 0.25048 0.3028 0.28976 0.0
H345 H 0.2339 0.32559 0.28676 0.0
H346 H 0.33358 0.27416 0.2823 0.0
H347 H 0.30278 0.28897 0.24438 0.0
H348 H 0.27549 0.3547 0.27571 0.0
H349 H 0.35414 0.26885 0.26284 0.0
H350 H 0.32372 0.28467 0.22507 0.0
C351 C 0.48676 0.9767 0.58696 0.0
C352 C 0.50341 0.97619 0.58627 0.0
C353 C 0.47758 0.97518 0.57303 0.0
C354 C 0.48483 0.97307 0.5581 0.0
C355 C 0.50147 0.97259 0.55738 0.0
C356 C 0.51066 0.97415 0.57131 0.0
C357 C 0.47503 0.97119 0.54335 0.0
C358 C 0.46212 0.98089 0.54085 0.0
C359 C 0.45258 0.97898 0.52708 0.0
C360 C 0.45608 0.96716 0.51574 0.0
C361 C 0.46895 0.95735 0.51804 0.0
C362 C 0.47841 0.9595 0.53184 0.0
C363 C 0.47229 0.94458 0.50627 0.0
C364 C 0.45986 0.93473 0.50001 0.0
C365 C 0.48793 0.94196 0.50144 0.0
C366 C 0.4911 0.92967 0.49065 0.0
C367 C 0.47869 0.9197 0.4845 0.0
C368 C 0.43891 0.98924 0.5246 0.0
C369 C 0.42872 0.99277 0.53732 0.0
C370 C 0.43593 0.99555 0.50952 0.0
C371 C 0.42303 0.00517 0.5072 0.0
C372 C 0.41282 0.00869 0.51991 0.0
C373 C 0.41582 0.00238 0.535 0.0
C374 C 0.46303 0.92241 0.48927 0.0
H375 H 0.48079 0.978 0.59831 0.0
H376 H 0.46477 0.97536 0.57399 0.0
H377 H 0.5074 0.97118 0.54602 0.0
H378 H 0.52347 0.97396 0.57034 0.0
H379 H 0.45968 0.99017 0.54952 0.0
H380 H 0.48809 0.95168 0.5339 0.0
H381 H 0.44871 0.96552 0.50513 0.0
H382 H 0.44771 0.93632 0.50369 0.0
H383 H 0.49772 0.94949 0.50592 0.0
H384 H 0.50327 0.92807 0.48703 0.0
H385 H 0.43058 0.9879 0.54902 0.0
H386 H 0.4437 0.99323 0.49955 0.0
H387 H 0.45323 0.9148 0.48498 0.0
H388 H 0.40804 0.00466 0.54497 0.0
H389 H 0.42119 0.01004 0.49549 0.0
C390 C 0.20167 0.27 0.65066 0.0
C391 C 0.21732 0.26504 0.6489 0.0
C392 C 0.1979 0.28079 0.66281 0.0
C393 C 0.20971 0.28685 0.67342 0.0
C394 C 0.22533 0.28182 0.67171 0.0
C395 C 0.22909 0.27104 0.6596 0.0
C396 C 0.20585 0.29837 0.6863 0.0
C397 C 0.1921 0.29615 0.69552 0.0
C398 C 0.1888 0.30667 0.70817 0.0
C399 C 0.19939 0.31957 0.71149 0.0
C400 C 0.21318 0.32201 0.70235 0.0
C401 C 0.21621 0.31141 0.68971 0.0
C402 C 0.22461 0.33538 0.7062 0.0
C403 C 0.21922 0.35038 0.71057 0.0
C404 C 0.24105 0.33317 0.70558 0.0
C405 C 0.25186 0.34568 0.70914 0.0
C406 C 0.2465 0.36069 0.71351 0.0
C407 C 0.17455 0.30389 0.71825 0.0
C408 C 0.15985 0.29919 0.71129 0.0
C409 C 0.17562 0.30573 0.73496 0.0
C410 C 0.1623 0.30291 0.74449 0.0
C411 C 0.14761 0.29816 0.73754 0.0
C412 C 0.14652 0.29635 0.72083 0.0
C413 C 0.23005 0.36289 0.71421 0.0
H414 H 0.19237 0.26573 0.6425 0.0
H415 H 0.18579 0.28457 0.66374 0.0
H416 H 0.23464 0.28604 0.67989 0.0
H417 H 0.2412 0.26724 0.65876 0.0
H418 H 0.18428 0.28587 0.69323 0.0
H419 H 0.22662 0.3134 0.68235 0.0
H420 H 0.19699 0.32764 0.72132 0.0
H421 H 0.20664 0.35252 0.71102 0.0
H422 H 0.24561 0.32172 0.70247 0.0
H423 H 0.26443 0.34361 0.70828 0.0
H424 H 0.15861 0.29786 0.69844 0.0
H425 H 0.18683 0.30906 0.74071 0.0
H426 H 0.22551 0.37425 0.7177 0.0
H427 H 0.13532 0.29291 0.71511 0.0
H428 H 0.1636 0.30414 0.75734 0.0
C429 C 0.82955 0.23075 0.7515 0.0
C430 C 0.83851 0.21816 0.75681 0.0
C431 C 0.81728 0.22804 0.74037 0.0
C432 C 0.81366 0.21268 0.73437 0.0
C433 C 0.82261 0.20009 0.73968 0.0
C434 C 0.83492 0.20281 0.75076 0.0
C435 C 0.80049 0.20977 0.72269 0.0
C436 C 0.79846 0.22007 0.70995 0.0
C437 C 0.78591 0.2175 0.69897 0.0
C438 C 0.77538 0.2044 0.70082 0.0
C439 C 0.77718 0.194 0.71353 0.0
C440 C 0.7898 0.19678 0.72439 0.0
C441 C 0.76569 0.18045 0.71567 0.0
C442 C 0.74934 0.18228 0.71323 0.0
C443 C 0.77096 0.16564 0.7203 0.0
C444 C 0.76012 0.15297 0.72251 0.0
C445 C 0.74377 0.15481 0.72009 0.0
C446 C 0.78358 0.22865 0.68576 0.0
C447 C 0.78509 0.24507 0.68859 0.0
C448 C 0.77941 0.22297 0.67035 0.0
C449 C 0.77656 0.23349 0.6581 0.0
C450 C 0.77783 0.24992 0.66099 0.0
C451 C 0.78225 0.2556 0.67634 0.0
C452 C 0.73851 0.1696 0.71538 0.0
H453 H 0.83213 0.24273 0.75582 0.0
H454 H 0.81048 0.23795 0.73662 0.0
H455 H 0.82019 0.18815 0.73516 0.0
H456 H 0.84152 0.19285 0.75473 0.0
H457 H 0.80683 0.22996 0.70841 0.0
H458 H 0.79102 0.18909 0.7345 0.0
H459 H 0.76565 0.20237 0.69241 0.0
H460 H 0.74485 0.19358 0.70985 0.0
H461 H 0.78349 0.1638 0.72212 0.0
H462 H 0.76456 0.14179 0.72632 0.0
H463 H 0.78807 0.24982 0.7004 0.0
H464 H 0.77841 0.21038 0.66773 0.0
H465 H 0.72602 0.17137 0.71323 0.0
H466 H 0.78312 0.26819 0.679 0.0
H467 H 0.77344 0.22876 0.64633 0.0
C468 C 0.52635 0.57454 0.48283 0.0
C469 C 0.52256 0.58977 0.48825 0.0
C470 C 0.52812 0.56234 0.49365 0.0
C471 C 0.52615 0.56511 0.51013 0.0
C472 C 0.52223 0.58031 0.51552 0.0
C473 C 0.52043 0.59248 0.50472 0.0
C474 C 0.52845 0.5523 0.52172 0.0
C475 C 0.54109 0.54205 0.51991 0.0
C476 C 0.54372 0.53029 0.53113 0.0
C477 C 0.53352 0.52882 0.54428 0.0
C478 C 0.52081 0.53895 0.54629 0.0
C479 C 0.51832 0.55058 0.5349 0.0
C480 C 0.51038 0.53762 0.56049 0.0
C481 C 0.50531 0.52272 0.56608 0.0
C482 C 0.50564 0.55129 0.56872 0.0
C483 C 0.49612 0.55009 0.58228 0.0
C484 C 0.49116 0.53518 0.58795 0.0
C485 C 0.5574 0.51984 0.52934 0.0
C486 C 0.56117 0.51333 0.51432 0.0
C487 C 0.56691 0.5165 0.54261 0.0
C488 C 0.57997 0.50693 0.54088 0.0
C489 C 0.5838 0.50048 0.52584 0.0
C490 C 0.57422 0.50374 0.51259 0.0
C491 C 0.49581 0.52151 0.57967 0.0
H492 H 0.52821 0.57209 0.47024 0.0
H493 H 0.53099 0.55072 0.48909 0.0
H494 H 0.5208 0.58289 0.52815 0.0
H495 H 0.5173 0.60402 0.50928 0.0
H496 H 0.54925 0.54359 0.51005 0.0
H497 H 0.50833 0.5582 0.53618 0.0
H498 H 0.53558 0.51986 0.55306 0.0
H499 H 0.50856 0.51197 0.55987 0.0
H500 H 0.50955 0.56295 0.56488 0.0
H501 H 0.49291 0.56084 0.58853 0.0
H502 H 0.55393 0.51552 0.50391 0.0
H503 H 0.56447 0.52155 0.55429 0.0
H504 H 0.49198 0.50986 0.58361 0.0
H505 H 0.57672 0.49876 0.50089 0.0
H506 H 0.58725 0.50484 0.55128 0.0
C507 C 0.48331 0.47839 0.92436 0.0
C508 C 0.48836 0.48159 0.90872 0.0
C509 C 0.49436 0.47554 0.93639 0.0
C510 C 0.51069 0.47594 0.93306 0.0
C511 C 0.51576 0.47908 0.91745 0.0
C512 C 0.50472 0.48182 0.9054 0.0
C513 C 0.52246 0.47319 0.94586 0.0
C514 C 0.52003 0.46069 0.95647 0.0
C515 C 0.53123 0.45793 0.9685 0.0
C516 C 0.54487 0.46794 0.96994 0.0
C517 C 0.54741 0.48059 0.95953 0.0
C518 C 0.53617 0.48308 0.94747 0.0
C519 C 0.56174 0.49126 0.96136 0.0
C520 C 0.567 0.49644 0.97662 0.0
C521 C 0.57026 0.49635 0.94789 0.0
C522 C 0.58377 0.50634 0.94965 0.0
C523 C 0.58907 0.51144 0.96493 0.0
C524 C 0.52875 0.44458 0.97955 0.0
C525 C 0.51381 0.44151 0.98647 0.0
C526 C 0.54137 0.43491 0.98339 0.0
C527 C 0.53914 0.42249 0.99398 0.0
C528 C 0.52424 0.41949 0.00101 0.0
C529 C 0.51159 0.42912 0.99712 0.0
C530 C 0.58052 0.5064 0.97839 0.0
H531 H 0.47083 0.47835 0.92739 0.0
H532 H 0.49013 0.47333 0.94837 0.0
H533 H 0.52827 0.47923 0.91449 0.0
H534 H 0.50901 0.48395 0.89344 0.0
H535 H 0.50963 0.45283 0.95509 0.0
H536 H 0.53788 0.493 0.93958 0.0
H537 H 0.55352 0.46588 0.97923 0.0
H538 H 0.56054 0.49296 0.98722 0.0
H539 H 0.56662 0.4924 0.93599 0.0
H540 H 0.59023 0.50986 0.93907 0.0
H541 H 0.5039 0.44884 0.98382 0.0
H542 H 0.55298 0.43688 0.97812 0.0
H543 H 0.58415 0.51034 0.99029 0.0
H544 H 0.49994 0.427 0.00223 0.0
H545 H 0.54914 0.41536 0.99685 0.0
C546 C 0.64692 0.21108 0.26605 0.0
C547 C 0.64426 0.22622 0.26018 0.0
C548 C 0.65948 0.20876 0.27661 0.0
C549 C 0.66957 0.22155 0.28161 0.0
C550 C 0.66686 0.23669 0.27579 0.0
C551 C 0.65437 0.23899 0.26516 0.0
C552 C 0.68295 0.21913 0.29278 0.0
C553 C 0.69285 0.20629 0.29054 0.0
C554 C 0.70585 0.20424 0.30077 0.0
C555 C 0.70876 0.21509 0.31348 0.0
C556 C 0.69893 0.22794 0.31595 0.0
C557 C 0.68605 0.22987 0.30553 0.0
C558 C 0.70225 0.23946 0.32927 0.0
C559 C 0.70653 0.23422 0.34447 0.0
C560 C 0.70131 0.25579 0.32682 0.0
C561 C 0.70469 0.26665 0.33928 0.0
C562 C 0.70905 0.26142 0.35446 0.0
C563 C 0.71665 0.19102 0.29796 0.0
C564 C 0.71052 0.1757 0.29421 0.0
C565 C 0.7332 0.19368 0.29894 0.0
C566 C 0.7434 0.18131 0.2962 0.0
C567 C 0.73729 0.16598 0.29246 0.0
C568 C 0.72074 0.1633 0.29153 0.0
C569 C 0.70989 0.24508 0.35694 0.0
H570 H 0.6394 0.20099 0.26231 0.0
H571 H 0.66122 0.19698 0.281 0.0
H572 H 0.67454 0.24674 0.27931 0.0
H573 H 0.65252 0.25082 0.26096 0.0
H574 H 0.69078 0.1982 0.28047 0.0
H575 H 0.67825 0.23961 0.30752 0.0
H576 H 0.7188 0.21358 0.32139 0.0
H577 H 0.7072 0.2217 0.34677 0.0
H578 H 0.69819 0.2602 0.3152 0.0
H579 H 0.70377 0.27915 0.33704 0.0
H580 H 0.69781 0.17328 0.29349 0.0
H581 H 0.73828 0.2054 0.30164 0.0
H582 H 0.71336 0.24068 0.36846 0.0
H583 H 0.71568 0.15164 0.28854 0.0
H584 H 0.7561 0.18371 0.29716 0.0
C585 C 0.48103 0.09353 0.98654 0.0
C586 C 0.47913 0.09226 0.00315 0.0
C587 C 0.47813 0.08039 0.97643 0.0
C588 C 0.47323 0.06572 0.9827 0.0
C589 C 0.47131 0.06446 -0.0007 0.0
C590 C 0.47426 0.07758 0.00942 0.0
C591 C 0.47011 0.05178 0.97195 0.0
C592 C 0.48054 0.04849 0.95939 0.0
C593 C 0.47767 0.03538 0.94907 0.0
C594 C 0.46418 0.02543 0.95151 0.0
C595 C 0.45368 0.02847 0.9641 0.0
C596 C 0.45673 0.04171 0.97421 0.0
C597 C 0.43953 0.01786 0.96674 0.0
C598 C 0.43022 0.01202 0.95377 0.0
C599 C 0.43519 0.01356 0.9823 0.0
C600 C 0.4218 0.00373 0.98485 0.0
C601 C 0.41245 -0.00206 0.97189 0.0
C602 C 0.48886 0.03204 0.93586 0.0
C603 C 0.49569 0.0445 0.92702 0.0
C604 C 0.49299 0.01644 0.93213 0.0
C605 C 0.50375 0.01339 0.91991 0.0
C606 C 0.5107 0.02587 0.91124 0.0
C607 C 0.50653 0.04145 0.91489 0.0
C608 C 0.41683 0.00216 0.95632 0.0
H609 H 0.48491 0.10465 0.98137 0.0
H610 H 0.47957 0.08176 0.96367 0.0
H611 H 0.46768 0.05327 0.00449 0.0
H612 H 0.47254 0.07628 0.02215 0.0
H613 H 0.49114 0.05597 0.95792 0.0
H614 H 0.44845 0.0444 0.98366 0.0
H615 H 0.46187 0.01528 0.94363 0.0
H616 H 0.43312 0.0153 0.94166 0.0
H617 H 0.44226 0.01765 0.99252 0.0
H618 H 0.41888 0.00048 0.99696 0.0
H619 H 0.49256 0.05662 0.92937 0.0
H620 H 0.48815 0.00659 0.93886 0.0
H621 H 0.40975 -0.00195 0.94611 0.0
H622 H 0.51153 0.05128 0.90823 0.0
H623 H 0.50688 0.00128 0.91745 0.0
C624 C 0.22345 0.90654 0.00882 0.0
O625 O 0.23157 0.90716 0.99547 0.0
O626 O 0.24122 0.86958 0.9967 0.0
Zn627 Zn 0.24661 0.88407 0.01551 0.0
O628 O 0.2658 0.89825 0.01092 0.0
C629 C 0.2412 0.85992 0.03844 0.0
O630 O 0.22807 0.85768 0.03 0.0
O631 O 0.22782 0.89738 0.01972 0.0
C632 C 0.27514 0.89557 -0.00062 0.0
O633 O 0.2723 0.88317 0.98997 0.0
C634 C 0.24774 0.85637 0.99473 0.0
O635 O 0.25851 0.85215 0.00506 0.0
O636 O 0.25103 0.87096 0.03465 0.0
C637 C 0.15174 0.47327 0.26066 0.0
O638 O 0.15515 0.48713 0.26748 0.0
O639 O 0.11442 0.49453 0.26992 0.0
Zn640 Zn 0.12562 0.49017 0.24911 0.0
O641 O 0.13983 0.50877 0.24305 0.0
C642 C 0.09585 0.4904 0.23147 0.0
O643 O 0.09142 0.49927 0.24358 0.0
O644 O 0.13932 0.47156 0.25203 0.0
C645 C 0.13497 0.52039 0.23524 0.0
O646 O 0.11998 0.5206 0.23086 0.0
C647 C 0.11035 0.50827 0.2743 0.0
O648 O 0.1136 0.52034 0.26511 0.0
O649 O 0.10979 0.48513 0.23139 0.0
C650 C 0.77968 0.6056 0.99516 0.0
O651 O 0.77186 0.60483 0.98152 0.0
O652 O 0.76101 0.64165 0.98309 0.0
Zn653 Zn 0.75616 0.62789 0.00194 0.0
O654 O 0.73708 0.61331 -0.00257 0.0
C655 C 0.76161 0.65245 0.02572 0.0
O656 O 0.77497 0.6545 0.01786 0.0
O657 O 0.77506 0.61486 0.00618 0.0
C658 C 0.72731 0.61546 0.98612 0.0
O659 O 0.72962 0.62759 0.97675 0.0
C660 C 0.75449 0.65482 0.98134 0.0
O661 O 0.74421 0.65952 0.99201 0.0
O662 O 0.75173 0.64153 0.02118 0.0
C663 C 0.84411 0.03935 0.26509 0.0
O664 O 0.84143 0.02557 0.27175 0.0
O665 O 0.88248 0.01837 0.27067 0.0
Zn666 Zn 0.8691 0.02229 0.25122 0.0
O667 O 0.85431 0.00349 0.24646 0.0
C668 C 0.89679 0.02041 0.23145 0.0
O669 O 0.90147 0.01143 0.24307 0.0
O670 O 0.85577 0.04104 0.25563 0.0
C671 C 0.85738 0.99239 0.23664 0.0
O672 O 0.87094 0.99287 0.22898 0.0
C673 C 0.87891 0.00763 0.28057 0.0
O674 O 0.86594 -0.00126 0.27824 0.0
O675 O 0.88326 0.02652 0.23233 0.0
C676 C 0.2779 0.10551 0.49603 0.0
O677 O 0.26965 0.10418 0.48266 0.0
O678 O 0.26005 0.14234 0.48345 0.0
Zn679 Zn 0.25502 0.12857 0.50224 0.0
O680 O 0.23592 0.11407 0.49763 0.0
C681 C 0.26013 0.15351 0.52565 0.0
O682 O 0.2734 0.1557 0.51766 0.0
O683 O 0.27382 0.11544 0.50668 0.0
C684 C 0.22736 0.11488 0.48513 0.0
O685 O 0.23099 0.12555 0.47443 0.0
C686 C 0.25287 0.15508 0.48132 0.0
O687 O 0.24189 0.15922 0.49151 0.0
O688 O 0.25045 0.14232 0.52136 0.0
C689 C 0.34228 0.5388 0.76159 0.0
O690 O 0.33826 0.52447 0.76624 0.0
O691 O 0.38294 0.51926 0.76966 0.0
Zn692 Zn 0.36934 0.52271 0.75026 0.0
O693 O 0.35536 0.50345 0.74507 0.0
C694 C 0.3959 0.51941 0.7295 0.0
O695 O 0.39952 0.50886 0.74009 0.0
O696 O 0.35539 0.54112 0.7544 0.0
C697 C 0.35964 0.48932 0.7467 0.0
O698 O 0.374 0.48677 0.75201 0.0
C699 C 0.37798 0.51173 0.78175 0.0
O700 O 0.36327 0.50599 0.78188 0.0
O701 O 0.38338 0.52716 0.7314 0.0
C702 C 0.72302 0.4078 0.50916 0.0
O703 O 0.73207 0.40934 0.49652 0.0
O704 O 0.74092 0.36965 0.49722 0.0
Zn705 Zn 0.74535 0.38433 0.51604 0.0
O706 O 0.76472 0.39815 0.51175 0.0
C707 C 0.74005 0.35918 0.53783 0.0
O708 O 0.72804 0.35599 0.52804 0.0
O709 O 0.72647 0.39772 0.51957 0.0
C710 C 0.77851 0.39293 0.5138 0.0
O711 O 0.77994 0.37851 0.51905 0.0
C712 C 0.74595 0.37251 0.48325 0.0
O713 O 0.75442 0.38559 0.4808 0.0
O714 O 0.74914 0.37119 0.53531 0.0
C715 C 0.65388 0.97295 0.75932 0.0
O716 O 0.65809 0.98717 0.76478 0.0
O717 O 0.61331 0.99189 0.76919 0.0
Zn718 Zn 0.62641 0.98913 0.74937 0.0
O719 O 0.63995 0.00872 0.74524 0.0
C720 C 0.59899 0.99204 0.72938 0.0
O721 O 0.59506 0.00184 0.74095 0.0
O722 O 0.6406 0.97082 0.75216 0.0
C723 C 0.63505 0.02265 0.74718 0.0
O724 O 0.62049 0.02462 0.75217 0.0
C725 C 0.61852 -0.00054 0.78152 0.0
O726 O 0.63303 0.00573 0.78151 0.0
O727 O 0.61196 0.98492 0.73044 0.0
C728 C 0.00523 0.21793 0.88222 0.0
O729 O -0.00121 0.21537 0.86802 0.0
O730 O 0.98378 0.24504 0.86026 0.0
Zn731 Zn 0.00385 0.25025 0.87272 0.0
O732 O 0.00106 0.2699 0.88625 0.0
C733 C 0.01928 0.26337 0.84569 0.0
O734 O 0.00562 0.27031 0.84468 0.0
O735 O 0.00866 0.23206 0.88683 0.0
C736 C 0.01183 0.28075 0.88796 0.0
O737 O 0.02556 0.27915 0.88085 0.0
C738 C 0.97033 0.25011 0.86425 0.0
O739 O 0.96923 0.25907 0.87717 0.0
O740 O 0.0215 0.25393 0.85704 0.0
C741 C 0.50375 0.71908 0.38111 0.0
O742 O 0.49762 0.71671 0.36676 0.0
O743 O 0.48217 0.74674 0.36 0.0
Zn744 Zn 0.50258 0.75155 0.37205 0.0
O745 O 0.50056 0.7711 0.38595 0.0
C746 C 0.51771 0.75943 0.34234 0.0
O747 O 0.50304 0.76214 0.33809 0.0
O748 O 0.50705 0.73316 0.38599 0.0
C749 C 0.5039 0.78491 0.38093 0.0
O750 O 0.50895 0.7866 0.36623 0.0
C751 C 0.46893 0.75234 0.36393 0.0
O752 O 0.46821 0.7618 0.37652 0.0
O753 O 0.52046 0.75474 0.35639 0.0
C754 C 0.00146 0.78977 0.60976 0.0
O755 O 0.99462 0.7921 0.62364 0.0
O756 O 0.97924 0.76045 0.63054 0.0
Zn757 Zn 0.00033 0.75745 0.61984 0.0
O758 O -0.00099 0.73753 0.60619 0.0
C759 C 0.01508 0.75002 0.6499 0.0
O760 O 0.00085 0.74396 0.6529 0.0
O761 O 0.00511 0.77584 0.60562 0.0
C762 C 0.00613 0.72499 0.60946 0.0
O763 O 0.01514 0.72475 0.6223 0.0
C764 C 0.97011 0.74874 0.63408 0.0
O765 O 0.97442 0.73433 0.63053 0.0
O766 O 0.01767 0.75644 0.63651 0.0
C767 C 0.50181 0.29195 0.11108 0.0
O768 O 0.49449 0.29408 0.12473 0.0
O769 O 0.47996 0.2624 0.13169 0.0
Zn770 Zn 0.50084 0.25935 0.12063 0.0
O771 O 0.49908 0.24001 0.10618 0.0
C772 C 0.51574 0.25078 0.15029 0.0
O773 O 0.50134 0.24528 0.15348 0.0
O774 O 0.50581 0.27812 0.10698 0.0
C775 C 0.50519 0.22692 0.10937 0.0
O776 O 0.51321 0.22562 0.12274 0.0
C777 C 0.4705 0.25085 0.13488 0.0
O778 O 0.4743 0.23642 0.13075 0.0
O779 O 0.51835 0.25733 0.13696 0.0
C780 C 0.20318 0.78042 0.87518 0.0
C781 C 0.21173 0.76675 0.87202 0.0
C782 C 0.20687 0.79007 0.88853 0.0
C783 C 0.22627 0.78985 0.92805 0.0
H784 H 0.22871 0.83544 0.92363 0.0
C785 C 0.25123 0.83185 0.97806 0.0
C786 C 0.24343 0.84603 0.9808 0.0
C787 C 0.2472 0.82213 0.96484 0.0
C788 C 0.22788 0.82274 0.92512 0.0
H789 H 0.23103 0.75267 0.88031 0.0
H790 H 0.23736 0.76945 0.90366 0.0
H791 H 0.22182 0.81854 0.90048 0.0
H792 H 0.22519 0.86109 0.9719 0.0
H793 H 0.21803 0.84404 0.94899 0.0
H794 H 0.23225 0.79403 0.95269 0.0
C795 C 0.22767 0.77257 0.89591 0.0
C796 C 0.22395 0.81307 0.91185 0.0
C797 C 0.22402 0.76295 0.88254 0.0
C798 C 0.23148 0.85027 0.97009 0.0
C799 C 0.22743 0.84054 0.9569 0.0
C800 C 0.23015 0.79952 0.94133 0.0
C801 C 0.21915 0.78625 0.89903 0.0
C802 C 0.22314 0.79652 0.91317 0.0
C803 C 0.23527 0.82637 0.9541 0.0
C804 C 0.23103 0.81608 0.94001 0.0
H805 H 0.19348 0.78355 0.86745 0.0
H806 H 0.19996 0.80043 0.89075 0.0
H807 H 0.22552 0.77715 0.92948 0.0
H808 H 0.26052 0.82827 0.98606 0.0
H809 H 0.25361 0.8114 0.96292 0.0
C810 C 0.01877 0.53465 0.38353 0.0
C811 C 0.01926 0.52444 0.39659 0.0
C812 C 0.02921 0.53298 0.37076 0.0
C813 C 0.053 0.50426 0.34971 0.0
H814 H 0.07681 0.54098 0.33437 0.0
C815 C 0.10009 0.4985 0.30047 0.0
C816 C 0.10108 0.51044 0.28906 0.0
C817 C 0.09083 0.50034 0.31413 0.0
C818 C 0.07011 0.53063 0.33834 0.0
H819 H 0.03132 0.50453 0.4064 0.0
H820 H 0.04918 0.50135 0.38383 0.0
H821 H 0.05885 0.54387 0.3569 0.0
H822 H 0.09318 0.53369 0.283 0.0
H823 H 0.07663 0.53671 0.3065 0.0
H824 H 0.06376 0.49105 0.33093 0.0
C825 C 0.04067 0.51063 0.38357 0.0
C826 C 0.05987 0.5323 0.35129 0.0
C827 C 0.03037 0.51242 0.39644 0.0
C828 C 0.09274 0.52432 0.29164 0.0
C829 C 0.08332 0.52608 0.30518 0.0
C830 C 0.06306 0.50261 0.33663 0.0
C831 C 0.04023 0.52095 0.37066 0.0
C832 C 0.05122 0.51913 0.35707 0.0
C833 C 0.08218 0.51409 0.31658 0.0
C834 C 0.07174 0.51578 0.33075 0.0
H835 H 0.01019 0.54385 0.38305 0.0
H836 H 0.02851 0.54096 0.36084 0.0
H837 H 0.04632 0.49395 0.35385 0.0
H838 H 0.10649 0.48771 0.29886 0.0
H839 H 0.0905 0.49099 0.32278 0.0
C840 C 0.78921 0.72395 0.8579 0.0
C841 C 0.78056 0.7376 0.85549 0.0
C842 C 0.78683 0.715 0.8716 0.0
C843 C 0.77167 0.71761 0.91276 0.0
H844 H 0.76824 0.67182 0.90913 0.0
C845 C 0.75033 0.67868 0.96481 0.0
C846 C 0.75806 0.66448 0.96718 0.0
C847 C 0.75351 0.68766 0.95129 0.0
C848 C 0.76937 0.68458 0.91038 0.0
H849 H 0.76279 0.75268 0.86564 0.0
H850 H 0.75848 0.73695 0.88943 0.0
H851 H 0.77306 0.68736 0.88529 0.0
H852 H 0.77534 0.64865 0.9573 0.0
H853 H 0.78102 0.66443 0.93383 0.0
H854 H 0.76799 0.71486 0.93784 0.0
C855 C 0.76718 0.73322 0.88079 0.0
C856 C 0.77212 0.69348 0.89672 0.0
C857 C 0.76951 0.74213 0.86708 0.0
C858 C 0.76913 0.65951 0.9558 0.0
C859 C 0.77232 0.6685 0.9423 0.0
C860 C 0.76895 0.70871 0.92642 0.0
C861 C 0.7758 0.71956 0.8832 0.0
C862 C 0.77323 0.71009 0.89775 0.0
C863 C 0.76451 0.68266 0.93986 0.0
C864 C 0.7677 0.6921 0.92538 0.0
H865 H 0.79772 0.7201 0.84913 0.0
H866 H 0.79375 0.7046 0.87319 0.0
H867 H 0.77271 0.73038 0.91397 0.0
H868 H 0.74171 0.68282 0.97333 0.0
H869 H 0.74713 0.69841 0.94967 0.0
C870 C 0.96231 0.97345 0.39491 0.0
C871 C 0.97618 0.98314 0.39655 0.0
C872 C 0.9512 0.9762 0.38291 0.0
C873 C 0.93807 0.00701 0.35561 0.0
H874 H 0.91948 0.97139 0.33127 0.0
C875 C 0.90322 0.01462 0.29697 0.0
C876 C 0.8894 0.00503 0.29443 0.0
C877 C 0.91326 0.01205 0.30992 0.0
C878 C 0.92441 0.98145 0.33809 0.0
H879 H 0.98911 0.00349 0.38704 0.0
H880 H 0.96991 0.00809 0.36592 0.0
H881 H 0.93801 0.96671 0.353 0.0
H882 H 0.87524 0.98528 0.30358 0.0
H883 H 0.89275 0.98087 0.32624 0.0
H884 H 0.92457 0.02176 0.3406 0.0
C885 C 0.96754 -0.00155 0.374 0.0
C886 C 0.93503 0.97877 0.35055 0.0
C887 C 0.97864 0.9957 0.38599 0.0
C888 C 0.88581 0.99286 0.30517 0.0
C889 C 0.89588 0.99027 0.31811 0.0
C890 C 0.92747 0.00969 0.34315 0.0
C891 C 0.95371 0.98871 0.3723 0.0
C892 C 0.94205 0.99153 0.35939 0.0
C893 C 0.90973 -0.00018 0.32061 0.0
C894 C 0.9206 0.99695 0.33418 0.0
H895 H 0.96013 0.96359 0.40277 0.0
H896 H 0.9406 0.96857 0.38201 0.0
H897 H 0.94307 0.01708 0.36237 0.0
H898 H 0.90636 0.02407 0.2889 0.0
H899 H 0.92394 0.01948 0.31139 0.0
C900 C 0.21132 0.24045 0.63229 0.0
C901 C 0.22144 0.25363 0.63601 0.0
C902 C 0.21544 0.22951 0.62043 0.0
C903 C 0.25005 0.21487 0.59866 0.0
H904 H 0.21837 0.19795 0.56849 0.0
C905 C 0.26624 0.17745 0.54304 0.0
C906 C 0.25608 0.16444 0.5389 0.0
C907 C 0.26208 0.18811 0.55514 0.0
C908 C 0.22731 0.20241 0.57695 0.0
H909 H 0.24358 0.26589 0.62986 0.0
H910 H 0.25077 0.2468 0.6092 0.0
H911 H 0.21082 0.2171 0.58898 0.0
H912 H 0.23368 0.15226 0.54441 0.0
H913 H 0.22654 0.17076 0.56563 0.0
H914 H 0.26654 0.20019 0.58664 0.0
C915 C 0.23979 0.24478 0.61565 0.0
C916 C 0.22299 0.21339 0.58868 0.0
C917 C 0.23567 0.25571 0.62748 0.0
C918 C 0.24176 0.1622 0.54726 0.0
C919 C 0.23761 0.17286 0.55935 0.0
C920 C 0.25437 0.20388 0.58695 0.0
C921 C 0.22977 0.23151 0.61204 0.0
C922 C 0.23431 0.21976 0.59964 0.0
C923 C 0.24767 0.18599 0.56336 0.0
C924 C 0.24306 0.19754 0.57594 0.0
H925 H 0.20038 0.2384 0.63879 0.0
H926 H 0.20756 0.2193 0.61806 0.0
H927 H 0.259 0.21937 0.6071 0.0
H928 H 0.27733 0.17954 0.5368 0.0
H929 H 0.27001 0.19821 0.55782 0.0
C930 C 0.46866 0.54403 0.60508 0.0
C931 C 0.48131 0.53392 0.60255 0.0
C932 C 0.4595 0.54292 0.6189 0.0
C933 C 0.46045 0.52855 0.66017 0.0
H934 H 0.41458 0.53023 0.6572 0.0
C935 C 0.41937 0.51271 0.71282 0.0
C936 C 0.40602 0.5219 0.71531 0.0
C937 C 0.42871 0.51472 0.69923 0.0
C938 C 0.42739 0.52996 0.65827 0.0
H939 H 0.49437 0.51483 0.61261 0.0
H940 H 0.47824 0.51275 0.63664 0.0
H941 H 0.43054 0.53266 0.63309 0.0
H942 H 0.39213 0.54057 0.70557 0.0
H943 H 0.40855 0.5442 0.68194 0.0
H944 H 0.45732 0.52584 0.68533 0.0
C945 C 0.47548 0.52161 0.62799 0.0
C946 C 0.43653 0.53133 0.64445 0.0
C947 C 0.4846 0.52268 0.61414 0.0
C948 C 0.4023 0.53326 0.70398 0.0
C949 C 0.41166 0.53528 0.69039 0.0
C950 C 0.45132 0.52721 0.67399 0.0
C951 C 0.46284 0.53173 0.63053 0.0
C952 C 0.45315 0.53056 0.64524 0.0
C953 C 0.42493 0.52598 0.68782 0.0
C954 C 0.43467 0.52783 0.67319 0.0
H955 H 0.46575 0.55272 0.5963 0.0
H956 H 0.44992 0.55097 0.62058 0.0
H957 H 0.47325 0.52817 0.66119 0.0
H958 H 0.42254 0.50382 0.72129 0.0
H959 H 0.43873 0.50722 0.69751 0.0
C960 C 0.78366 0.27496 0.64613 0.0
C961 C 0.7742 0.26111 0.64814 0.0
C962 C 0.78 0.28564 0.63426 0.0
C963 C 0.75769 0.28876 0.5964 0.0
H964 H 0.76061 0.3338 0.60618 0.0
C965 C 0.7338 0.3348 0.55343 0.0
C966 C 0.74344 0.34847 0.55108 0.0
C967 C 0.7374 0.32431 0.56549 0.0
C968 C 0.75988 0.32127 0.60322 0.0
H969 H 0.75337 0.24769 0.63938 0.0
H970 H 0.74698 0.26632 0.61868 0.0
H971 H 0.76743 0.31504 0.62665 0.0
H972 H 0.76431 0.36196 0.55968 0.0
H973 H 0.77062 0.3436 0.58066 0.0
H974 H 0.75013 0.29498 0.57298 0.0
C975 C 0.75738 0.26881 0.62611 0.0
C976 C 0.76381 0.31052 0.61494 0.0
C977 C 0.76104 0.25813 0.63797 0.0
C978 C 0.75662 0.35155 0.5612 0.0
C979 C 0.7602 0.34107 0.57327 0.0
C980 C 0.75375 0.2995 0.58469 0.0
C981 C 0.76678 0.28271 0.62415 0.0
C982 C 0.76274 0.29414 0.61166 0.0
C983 C 0.7507 0.32727 0.57548 0.0
C984 C 0.75479 0.31587 0.58797 0.0
H985 H 0.794 0.27748 0.65364 0.0
H986 H 0.78762 0.29612 0.63289 0.0
H987 H 0.75698 0.27623 0.59342 0.0
H988 H 0.72353 0.33211 0.54588 0.0
H989 H 0.72972 0.3139 0.56704 0.0
C990 C 0.52631 0.96818 0.60326 0.0
C991 C 0.51316 0.97769 0.60111 0.0
C992 C 0.53542 0.96954 0.61725 0.0
C993 C 0.54501 0.99684 0.65126 0.0
H994 H 0.5601 0.9591 0.67106 0.0
C995 C 0.57498 -0.00147 0.7134 0.0
C996 C 0.58871 0.98977 0.71507 0.0
C997 C 0.56554 0.99681 0.69966 0.0
C998 C 0.55609 0.96975 0.66559 0.0
H999 H 0.49939 0.9962 0.61192 0.0
H1000 H 0.51506 -0.0017 0.63647 0.0
H1001 H 0.54406 0.95664 0.64671 0.0
H1002 H 0.6032 0.97215 0.7037 0.0
H1003 H 0.58673 0.96918 0.67968 0.0
H1004 H 0.55699 0.00993 0.67018 0.0
C1005 C 0.51844 0.98992 0.62726 0.0
C1006 C 0.54692 0.96835 0.65163 0.0
C1007 C 0.50934 0.98858 0.61327 0.0
C1008 C 0.59269 0.97907 0.70279 0.0
C1009 C 0.58321 0.97731 0.68907 0.0
C1010 C 0.55413 -0.00177 0.66524 0.0
C1011 C 0.53159 0.98042 0.62942 0.0
C1012 C 0.54129 0.98188 0.64429 0.0
C1013 C 0.5696 0.98624 0.68731 0.0
C1014 C 0.55978 0.9847 0.67254 0.0
H1015 H 0.52947 0.95955 0.59421 0.0
H1016 H 0.54558 0.96217 0.61846 0.0
H1017 H 0.54108 0.00751 0.64578 0.0
H1018 H 0.57155 0.00685 0.72266 0.0
H1019 H 0.555 0.0037 0.69874 0.0
C1020 C 0.86611 0.21365 0.76667 0.0
C1021 C 0.85157 0.22105 0.7686 0.0
C1022 C 0.87845 0.21646 0.7777 0.0
C1023 C 0.89306 0.24522 0.80863 0.0
H1024 H 0.9192 0.2108 0.82138 0.0
C1025 C 0.94151 0.25286 0.85766 0.0
C1026 C 0.95617 0.24621 0.85419 0.0
C1027 C 0.92827 0.24947 0.84786 0.0
C1028 C 0.91207 0.22056 0.81784 0.0
H1029 H 0.83847 0.23697 0.78378 0.0
H1030 H 0.86 0.24183 0.80307 0.0
H1031 H 0.89693 0.20549 0.80306 0.0
H1032 H 0.96838 0.23064 0.83784 0.0
H1033 H 0.94532 0.2248 0.82076 0.0
H1034 H 0.90826 0.26029 0.82339 0.0
C1035 C 0.86195 0.23406 0.79289 0.0
C1036 C 0.89933 0.21752 0.80733 0.0
C1037 C 0.84962 0.23127 0.78184 0.0
C1038 C 0.95726 0.23596 0.84085 0.0
C1039 C 0.94402 0.23252 0.83111 0.0
C1040 C 0.90578 0.24825 0.81917 0.0
C1041 C 0.87653 0.2267 0.79092 0.0
C1042 C 0.88975 0.22984 0.80251 0.0
C1043 C 0.9294 0.2393 0.83446 0.0
C1044 C 0.9155 0.23597 0.82379 0.0
H1045 H 0.86806 0.20589 0.75647 0.0
H1046 H 0.88962 0.21081 0.77568 0.0
H1047 H 0.88606 0.25502 0.80498 0.0
H1048 H 0.94027 0.26079 0.86786 0.0
H1049 H 0.91712 0.25474 0.85083 0.0
C1050 C 0.47189 0.90258 0.46036 0.0
C1051 C 0.48207 0.90635 0.47337 0.0
C1052 C 0.47482 0.88975 0.45017 0.0
C1053 C 0.49605 0.85234 0.44851 0.0
H1054 H 0.4883 0.85495 0.40294 0.0
C1055 C 0.49517 0.7973 0.40669 0.0
C1056 C 0.50195 0.79893 0.39148 0.0
C1057 C 0.49318 0.81056 0.41659 0.0
C1058 C 0.49067 0.85407 0.41562 0.0
H1059 H 0.50335 0.89956 0.48583 0.0
H1060 H 0.50869 0.87746 0.4678 0.0
H1061 H 0.4845 0.87804 0.42018 0.0
H1062 H 0.51211 0.81576 0.3748 0.0
H1063 H 0.50887 0.83886 0.39218 0.0
H1064 H 0.50255 0.82848 0.44392 0.0
C1065 C 0.4983 0.88429 0.46561 0.0
C1066 C 0.4883 0.86725 0.42553 0.0
C1067 C 0.49535 0.8971 0.47583 0.0
C1068 C 0.50677 0.8141 0.38642 0.0
C1069 C 0.50484 0.82736 0.39635 0.0
C1070 C 0.49846 0.83918 0.4386 0.0
C1071 C 0.48802 0.88041 0.45271 0.0
C1072 C 0.4909 0.86652 0.4421 0.0
C1073 C 0.49798 0.82575 0.41154 0.0
C1074 C 0.49573 0.83986 0.42204 0.0
H1075 H 0.46166 0.90958 0.45801 0.0
H1076 H 0.46656 0.887 0.44045 0.0
H1077 H 0.49799 0.85131 0.46124 0.0
H1078 H 0.49125 0.78578 0.41092 0.0
H1079 H 0.48763 0.80892 0.42812 0.0
C1080 C 0.12334 0.28167 0.7446 0.0
C1081 C 0.13356 0.29491 0.74775 0.0
C1082 C 0.11044 0.27832 0.75455 0.0
C1083 C 0.08457 0.29637 0.78481 0.0
H1084 H 0.07629 0.25293 0.79728 0.0
C1085 C 0.02952 0.27734 0.82153 0.0
C1086 C 0.03195 0.26674 0.83395 0.0
C1087 C 0.04155 0.28067 0.81053 0.0
C1088 C 0.0785 0.26513 0.79397 0.0
H1089 H 0.13799 0.31523 0.76359 0.0
H1090 H 0.11563 0.30924 0.7811 0.0
H1091 H 0.09799 0.25915 0.77901 0.0
H1092 H 0.04891 0.25128 0.84454 0.0
H1093 H 0.06993 0.25721 0.82544 0.0
H1094 H 0.06532 0.3024 0.80007 0.0
C1095 C 0.11753 0.30151 0.77087 0.0
C1096 C 0.09081 0.26867 0.78336 0.0
C1097 C 0.13044 0.30485 0.76094 0.0
C1098 C 0.04664 0.25948 0.83509 0.0
C1099 C 0.05866 0.2628 0.82409 0.0
C1100 C 0.07224 0.29283 0.7954 0.0
C1101 C 0.10744 0.28816 0.76785 0.0
C1102 C 0.09404 0.28434 0.77873 0.0
C1103 C 0.05626 0.27347 0.81171 0.0
C1104 C 0.06912 0.27717 0.80017 0.0
H1105 H 0.1255 0.27372 0.73461 0.0
H1106 H 0.10278 0.26804 0.7518 0.0
H1107 H 0.08665 0.30854 0.78135 0.0
H1108 H 0.01833 0.2831 0.82028 0.0
H1109 H 0.03926 0.28879 0.80102 0.0
C1110 C 0.52704 0.61817 0.48077 0.0
C1111 C 0.52098 0.60286 0.47684 0.0
C1112 C 0.5254 0.63055 0.47018 0.0
C1113 C 0.51846 0.63909 0.42781 0.0
H1114 H 0.50578 0.67978 0.44453 0.0
C1115 C 0.50134 0.69014 0.38693 0.0
C1116 C 0.50635 0.70558 0.39167 0.0
C1117 C 0.50337 0.67747 0.3971 0.0
C1118 C 0.50953 0.66856 0.43969 0.0
H1119 H 0.5084 0.58858 0.45866 0.0
H1120 H 0.50563 0.61022 0.44009 0.0
H1121 H 0.50887 0.65791 0.46266 0.0
H1122 H 0.51768 0.71977 0.41071 0.0
H1123 H 0.52144 0.69764 0.42833 0.0
H1124 H 0.5192 0.64976 0.40484 0.0
C1125 C 0.51178 0.61258 0.45134 0.0
C1126 C 0.51127 0.65602 0.45008 0.0
C1127 C 0.51338 0.60019 0.46197 0.0
C1128 C 0.51361 0.70804 0.40672 0.0
C1129 C 0.51567 0.69536 0.41687 0.0
C1130 C 0.51677 0.65166 0.41741 0.0
C1131 C 0.51771 0.62791 0.45538 0.0
C1132 C 0.51578 0.64116 0.44426 0.0
C1133 C 0.51048 0.67994 0.41223 0.0
C1134 C 0.5123 0.66655 0.42324 0.0
H1135 H 0.53323 0.62057 0.49199 0.0
H1136 H 0.53032 0.64218 0.47351 0.0
H1137 H 0.52213 0.62783 0.42301 0.0
H1138 H 0.49567 0.68785 0.37542 0.0
H1139 H 0.49907 0.66577 0.39324 0.0
C1140 C 0.8565 0.78341 0.71731 0.0
C1141 C 0.85221 0.77154 0.72814 0.0
C1142 C 0.86851 0.78101 0.70617 0.0
C1143 C 0.88963 0.75028 0.68464 0.0
H1144 H 0.92374 0.78217 0.68176 0.0
C1145 C 0.94769 0.73863 0.65096 0.0
C1146 C 0.95543 0.75128 0.64319 0.0
C1147 C 0.93438 0.74119 0.6604 0.0
C1148 C 0.91418 0.77326 0.68216 0.0
H1149 H 0.8568 0.74776 0.73564 0.0
H1150 H 0.87772 0.74348 0.71601 0.0
H1151 H 0.90168 0.7865 0.69981 0.0
H1152 H 0.95497 0.77643 0.63873 0.0
H1153 H 0.93143 0.78082 0.65474 0.0
H1154 H 0.90192 0.7371 0.66685 0.0
C1155 C 0.87182 0.75465 0.71619 0.0
C1156 C 0.90159 0.77573 0.69257 0.0
C1157 C 0.85997 0.75713 0.72748 0.0
C1158 C 0.94934 0.76647 0.64469 0.0
C1159 C 0.9359 0.76899 0.65397 0.0
C1160 C 0.90213 0.74787 0.67407 0.0
C1161 C 0.87628 0.76661 0.70553 0.0
C1162 C 0.88928 0.76421 0.69401 0.0
C1163 C 0.92837 0.75643 0.66213 0.0
C1164 C 0.91465 0.75927 0.6728 0.0
H1165 H 0.85077 0.79467 0.71765 0.0
H1166 H 0.87168 0.79039 0.69802 0.0
H1167 H 0.88017 0.74129 0.68541 0.0
H1168 H 0.95216 0.72681 0.65011 0.0
H1169 H 0.92908 0.73127 0.66668 0.0
C1170 C 0.02939 0.89005 0.50872 0.0
C1171 C 0.02301 0.90486 0.51206 0.0
C1172 C 0.02732 0.87766 0.51939 0.0
C1173 C 0.01852 0.86937 0.56149 0.0
H1174 H 0.00688 0.82726 0.54516 0.0
C1175 C -0.00072 0.81828 0.60277 0.0
C1176 C 0.00454 0.80311 0.5989 0.0
C1177 C 0.00185 0.83077 0.5923 0.0
C1178 C 0.01034 0.8389 0.54991 0.0
H1179 H 0.00962 0.91836 0.52928 0.0
H1180 H 0.00587 0.89666 0.54785 0.0
H1181 H 0.0108 0.84889 0.52662 0.0
H1182 H 0.01686 0.78922 0.58112 0.0
H1183 H 0.02154 0.81106 0.563 0.0
H1184 H 0.01814 0.85938 0.58478 0.0
C1185 C 0.01254 0.89467 0.53702 0.0
C1186 C 0.01256 0.8513 0.53928 0.0
C1187 C 0.01455 0.90704 0.52631 0.0
C1188 C 0.01257 0.80075 0.58442 0.0
C1189 C 0.01518 0.81324 0.57399 0.0
C1190 C 0.01636 0.85696 0.57213 0.0
C1191 C 0.01889 0.87984 0.53365 0.0
C1192 C 0.01665 0.86667 0.54496 0.0
C1193 C 0.00977 0.82839 0.57775 0.0
C1194 C 0.01222 0.84158 0.56646 0.0
H1195 H 0.03586 0.88798 0.49777 0.0
H1196 H 0.03246 0.86641 0.51654 0.0
H1197 H 0.02188 0.88105 0.56621 0.0
H1198 H 0.99301 0.82048 0.6138 0.0
H1199 H -0.00265 0.84224 0.59548 0.0
C1200 C 0.13208 0.74178 0.73687 0.0
C1201 C 0.12996 0.73167 0.74986 0.0
C1202 C 0.11954 0.74424 0.72633 0.0
C1203 C 0.08106 0.72621 0.71257 0.0
H1204 H 0.07476 0.76775 0.69531 0.0
C1205 C 0.02553 0.74016 0.67574 0.0
C1206 C 0.02807 0.74872 0.66171 0.0
C1207 C 0.03788 0.73848 0.6867 0.0
C1208 C 0.07646 0.75606 0.69994 0.0
H1209 H 0.11295 0.71656 0.76228 0.0
H1210 H 0.09099 0.72098 0.74401 0.0
H1211 H 0.09641 0.76412 0.71424 0.0
H1212 H 0.0455 0.76245 0.64828 0.0
H1213 H 0.06707 0.75952 0.66748 0.0
H1214 H 0.06105 0.71818 0.69834 0.0
C1215 C 0.10243 0.72674 0.74173 0.0
C1216 C 0.08887 0.75397 0.71076 0.0
C1217 C 0.11499 0.72422 0.75222 0.0
C1218 C 0.04316 0.75577 0.65898 0.0
C1219 C 0.0555 0.75417 0.67 0.0
C1220 C 0.06862 0.72832 0.70182 0.0
C1221 C 0.10458 0.7367 0.7286 0.0
C1222 C 0.09132 0.73901 0.71719 0.0
C1223 C 0.05301 0.74541 0.68392 0.0
C1224 C 0.06619 0.74326 0.69539 0.0
H1225 H 0.14355 0.74752 0.73465 0.0
H1226 H 0.12167 0.75179 0.7162 0.0
H1227 H 0.08278 0.71447 0.71705 0.0
H1228 H 0.01404 0.73461 0.67823 0.0
H1229 H 0.03556 0.73183 0.69742 0.0
C1230 C 0.97599 0.61544 0.51515 0.0
C1231 C 0.98276 0.60095 0.51859 0.0
C1232 C 0.97851 0.62856 0.52534 0.0
C1233 C 0.00583 0.64526 0.55628 0.0
H1234 H 0.97082 0.67219 0.56625 0.0
C1235 C 0.01107 0.69654 0.60302 0.0
C1236 C 0.00384 0.71068 0.59914 0.0
C1237 C 0.00859 0.68294 0.59343 0.0
C1238 C 0.98076 0.66488 0.56344 0.0
H1239 H -0.00246 0.58888 0.53539 0.0
H1240 H 0.00179 0.61181 0.55334 0.0
H1241 H 0.96622 0.64876 0.54918 0.0
H1242 H 0.98847 0.72168 0.58204 0.0
H1243 H 0.98432 0.69803 0.56524 0.0
H1244 H 0.0204 0.66145 0.57048 0.0
C1245 C 0.99463 0.61302 0.54267 0.0
C1246 C 0.97812 0.65146 0.55368 0.0
C1247 C 0.99207 0.59986 0.53249 0.0
C1248 C 0.99418 0.71096 0.58541 0.0
C1249 C 0.99171 0.69738 0.57583 0.0
C1250 C 0.00849 0.65871 0.56604 0.0
C1251 C 0.98788 0.62751 0.5392 0.0
C1252 C 0.99064 0.64154 0.54992 0.0
C1253 C -0.00117 0.68319 0.57977 0.0
C1254 C 0.99599 0.66872 0.56966 0.0
H1255 H 0.96863 0.6166 0.50462 0.0
H1256 H 0.97328 0.63961 0.52226 0.0
H1257 H 0.01576 0.63795 0.55344 0.0
H1258 H 0.01855 0.69591 0.61354 0.0
H1259 H 0.01411 0.67215 0.59688 0.0
C1260 C 0.75354 0.89008 0.20641 0.0
C1261 C 0.75588 0.87558 0.21383 0.0
C1262 C 0.76432 0.90288 0.2089 0.0
C1263 C 0.80571 0.91226 0.22157 0.0
H1264 H 0.79093 0.9549 0.22694 0.0
C1265 C 0.84864 0.96711 0.22252 0.0
C1266 C 0.8457 0.9791 0.23387 0.0
C1267 C 0.83757 0.95458 0.21992 0.0
C1268 C 0.79524 0.94305 0.22557 0.0
H1269 H 0.77107 0.86328 0.23005 0.0
H1270 H 0.78984 0.88561 0.23446 0.0
H1271 H 0.77169 0.93284 0.2232 0.0
H1272 H 0.82885 0.98733 0.25141 0.0
H1273 H 0.80967 0.96539 0.24699 0.0
H1274 H 0.82925 0.92241 0.22428 0.0
C1275 C 0.77985 0.887 0.22646 0.0
C1276 C 0.78422 0.93043 0.22324 0.0
C1277 C 0.7691 0.87422 0.22396 0.0
C1278 C 0.83146 0.9783 0.24254 0.0
C1279 C 0.82041 0.96578 0.23994 0.0
C1280 C 0.81673 0.92487 0.22389 0.0
C1281 C 0.77766 0.90144 0.21888 0.0
C1282 C 0.78933 0.91489 0.22126 0.0
C1283 C 0.82333 0.95377 0.2286 0.0
C1284 C 0.81162 0.9404 0.22594 0.0
H1285 H 0.74357 0.89143 0.19839 0.0
H1286 H 0.76239 0.91378 0.20272 0.0
H1287 H 0.81005 0.90046 0.21988 0.0
H1288 H 0.85947 0.9674 0.2156 0.0
H1289 H 0.84009 0.94562 0.21095 0.0
C1290 C 0.76192 0.15528 0.28031 0.0
C1291 C 0.74818 0.15286 0.28954 0.0
C1292 C 0.77228 0.143 0.27768 0.0
C1293 C 0.78443 0.10528 0.2942 0.0
H1294 H 0.80201 0.09836 0.25201 0.0
C1295 C 0.82007 0.05032 0.27803 0.0
C1296 C 0.83345 0.05253 0.26826 0.0
C1297 C 0.80978 0.06263 0.28076 0.0
C1298 C 0.79736 0.10026 0.26391 0.0
H1299 H 0.73459 0.13571 0.30332 0.0
H1300 H 0.75261 0.1142 0.29857 0.0
H1301 H 0.7837 0.11964 0.25642 0.0
H1302 H 0.84663 0.06948 0.25385 0.0
H1303 H 0.82877 0.09104 0.25879 0.0
H1304 H 0.79813 0.08594 0.30171 0.0
C1305 C 0.75541 0.12563 0.29347 0.0
C1306 C 0.78686 0.11244 0.26642 0.0
C1307 C 0.74501 0.13789 0.29605 0.0
C1308 C 0.83639 0.06737 0.26139 0.0
C1309 C 0.8261 0.0797 0.26414 0.0
C1310 C 0.79497 0.09312 0.29169 0.0
C1311 C 0.76917 0.12806 0.28427 0.0
C1312 C 0.78027 0.11508 0.28159 0.0
C1313 C 0.81264 0.07745 0.27381 0.0
C1314 C 0.80155 0.09046 0.27652 0.0
H1315 H 0.7646 0.16664 0.27501 0.0
H1316 H 0.78286 0.14528 0.27066 0.0
H1317 H 0.77974 0.10717 0.30607 0.0
H1318 H 0.81743 0.03901 0.28347 0.0
H1319 H 0.79941 0.06045 0.2881 0.0
C1320 C 0.39487 0.9742 0.96475 0.0
C1321 C 0.39817 0.98756 0.97464 0.0
C1322 C 0.38149 0.96437 0.96743 0.0
C1323 C 0.35249 0.95329 -0.00144 0.0
H1324 H 0.32735 0.93677 0.96258 0.0
C1325 C 0.29212 0.91973 0.00641 0.0
C1326 C 0.28913 0.90625 0.9966 0.0
C1327 C 0.30536 0.92976 0.00375 0.0
C1328 C 0.33434 0.94115 0.97274 0.0
H1329 H 0.38985 0.00125 0.9949 0.0
H1330 H 0.36646 0.98413 -0.00046 0.0
H1331 H 0.35057 0.95408 0.95786 0.0
H1332 H 0.29774 0.8927 0.97635 0.0
H1333 H 0.32089 0.91012 0.97183 0.0
H1334 H 0.33624 0.94035 0.01344 0.0
C1335 C 0.37437 0.9811 0.98989 0.0
C1336 C 0.34765 0.95107 0.97004 0.0
C1337 C 0.38776 0.99091 0.98723 0.0
C1338 C 0.29966 0.90302 0.98409 0.0
C1339 C 0.31288 0.91305 0.98144 0.0
C1340 C 0.33917 0.94338 0.00126 0.0
C1341 C 0.37109 0.9677 0.98003 0.0
C1342 C 0.35689 0.95723 0.98291 0.0
C1343 C 0.31589 0.92654 0.99123 0.0
C1344 C 0.32996 0.93718 0.98838 0.0
H1345 H 0.40279 0.97118 0.9551 0.0
H1346 H 0.37942 0.95401 0.95977 0.0
H1347 H 0.35949 0.95765 0.00872 0.0
H1348 H 0.28422 0.92257 0.01613 0.0
H1349 H 0.30725 0.94016 0.01139 0.0
C1350 C 0.24788 0.37066 0.28513 0.0
C1351 C 0.24322 0.35567 0.27879 0.0
C1352 C 0.23822 0.38357 0.28316 0.0
C1353 C 0.20607 0.39792 0.25787 0.0
H1354 H 0.19878 0.42638 0.29377 0.0
C1355 C 0.1584 0.44494 0.25604 0.0
C1356 C 0.16232 0.45991 0.26286 0.0
C1357 C 0.16846 0.43236 0.258 0.0
C1358 C 0.20085 0.41865 0.28357 0.0
H1359 H 0.22494 0.34251 0.26521 0.0
H1360 H 0.208 0.36498 0.26193 0.0
H1361 H 0.21616 0.40423 0.29707 0.0
H1362 H 0.17987 0.47341 0.27711 0.0
H1363 H 0.1975 0.4515 0.28037 0.0
H1364 H 0.19082 0.41233 0.24435 0.0
C1365 C 0.21915 0.36678 0.26835 0.0
C1366 C 0.2108 0.40596 0.28547 0.0
C1367 C 0.22876 0.35388 0.27037 0.0
C1368 C 0.17648 0.46201 0.27173 0.0
C1369 C 0.18655 0.44943 0.27368 0.0
C1370 C 0.19617 0.41062 0.25596 0.0
C1371 C 0.22376 0.38176 0.27474 0.0
C1372 C 0.21346 0.39542 0.27266 0.0
C1373 C 0.18267 0.43447 0.26681 0.0
C1374 C 0.19339 0.4211 0.26881 0.0
H1375 H 0.25889 0.37238 0.29178 0.0
H1376 H 0.24215 0.395 0.2881 0.0
H1377 H 0.20809 0.39014 0.2477 0.0
H1378 H 0.14754 0.44291 0.24919 0.0
H1379 H 0.165 0.42092 0.25276 0.0
C1380 C 0.11439 0.01916 0.47898 0.0
C1381 C 0.10352 0.02128 0.46647 0.0
C1382 C 0.12781 0.02924 0.48083 0.0
C1383 C 0.15398 0.05707 0.45902 0.0
H1384 H 0.16594 0.07264 0.50146 0.0
C1385 C 0.20304 0.10575 0.46969 0.0
C1386 C 0.21333 0.10402 0.48276 0.0
C1387 C 0.18966 0.09563 0.46758 0.0
C1388 C 0.16288 0.06824 0.48955 0.0
H1389 H 0.09817 0.03577 0.44617 0.0
H1390 H 0.12168 0.05333 0.44937 0.0
H1391 H 0.14259 0.05498 0.49798 0.0
H1392 H 0.21775 0.09018 0.50377 0.0
H1393 H 0.19457 0.07239 0.49995 0.0
H1394 H 0.17432 0.07026 0.45059 0.0
C1395 C 0.11989 0.04374 0.45763 0.0
C1396 C 0.14949 0.05814 0.48756 0.0
C1397 C 0.10643 0.03367 0.45579 0.0
C1398 C 0.21002 0.09189 0.49362 0.0
C1399 C 0.19667 0.08174 0.49148 0.0
C1400 C 0.16741 0.06714 0.46101 0.0
C1401 C 0.13069 0.04166 0.4702 0.0
C1402 C 0.1449 0.05243 0.47228 0.0
C1403 C 0.18631 0.08352 0.47846 0.0
C1404 C 0.17202 0.07283 0.47631 0.0
H1405 H 0.11264 0.00956 0.48724 0.0
H1406 H 0.13606 0.02718 0.49049 0.0
H1407 H 0.15086 0.0527 0.44711 0.0
H1408 H 0.20522 0.11502 0.46114 0.0
H1409 H 0.18181 0.09746 0.45754 0.0
C1410 C 0.71753 0.14389 0.72992 0.0
C1411 C 0.73222 0.14138 0.72256 0.0
C1412 C 0.70669 0.13126 0.73229 0.0
C1413 C 0.69657 0.09026 0.7184 0.0
H1414 H 0.67318 0.08813 0.75814 0.0
C1415 C 0.66088 0.03433 0.73746 0.0
C1416 C 0.64578 0.03647 0.74403 0.0
C1417 C 0.67108 0.04733 0.73454 0.0
C1418 C 0.6795 0.08866 0.74691 0.0
H1419 H 0.74692 0.1236 0.71177 0.0
H1420 H 0.72821 0.10152 0.71632 0.0
H1421 H 0.69176 0.1104 0.75367 0.0
H1422 H 0.62953 0.05395 0.75271 0.0
H1423 H 0.6474 0.07668 0.74764 0.0
H1424 H 0.68445 0.06838 0.71177 0.0
C1425 C 0.72497 0.1133 0.72005 0.0
C1426 C 0.69013 0.10142 0.74434 0.0
C1427 C 0.73579 0.12593 0.71764 0.0
C1428 C 0.64109 0.0519 0.74764 0.0
C1429 C 0.65134 0.06491 0.74482 0.0
C1430 C 0.686 0.07747 0.72102 0.0
C1431 C 0.71029 0.11581 0.72741 0.0
C1432 C 0.69882 0.10235 0.73006 0.0
C1433 C 0.66644 0.06275 0.73823 0.0
C1434 C 0.67739 0.07651 0.73532 0.0
H1435 H 0.71447 0.1556 0.73403 0.0
H1436 H 0.69542 0.13365 0.73783 0.0
H1437 H 0.70285 0.09075 0.70716 0.0
H1438 H 0.66487 0.02259 0.73456 0.0
H1439 H 0.68271 0.04529 0.72963 0.0
C1440 C 0.38971 0.01715 0.50349 0.0
C1441 C 0.39905 0.01885 0.51744 0.0
C1442 C 0.37671 0.02665 0.5012 0.0
C1443 C 0.34852 0.05121 0.5231 0.0
H1444 H 0.34088 0.06886 0.48147 0.0
C1445 C 0.30092 0.09735 0.51265 0.0
C1446 C 0.29178 0.09563 0.49858 0.0
C1447 C 0.31407 0.08806 0.515 0.0
C1448 C 0.34274 0.06387 0.49312 0.0
H1449 H 0.40221 0.03205 0.53979 0.0
H1450 H 0.37948 0.0486 0.53581 0.0
H1451 H 0.36374 0.05251 0.48546 0.0
H1452 H 0.28922 0.08275 0.47597 0.0
H1453 H 0.31205 0.06644 0.48015 0.0
H1454 H 0.32749 0.06252 0.53076 0.0
C1455 C 0.38209 0.03976 0.52675 0.0
C1456 C 0.35585 0.05451 0.4954 0.0
C1457 C 0.3951 0.03028 0.52903 0.0
C1458 C 0.29605 0.08441 0.48692 0.0
C1459 C 0.30919 0.07512 0.48927 0.0
C1460 C 0.3354 0.06055 0.52082 0.0
C1461 C 0.37274 0.03804 0.51281 0.0
C1462 C 0.35887 0.04807 0.51042 0.0
C1463 C 0.31836 0.07684 0.50333 0.0
C1464 C 0.33235 0.06698 0.50579 0.0
H1465 H 0.39229 0.00829 0.49444 0.0
H1466 H 0.3696 0.02487 0.49045 0.0
H1467 H 0.35039 0.04622 0.53475 0.0
H1468 H 0.29798 0.10592 0.52185 0.0
H1469 H 0.32101 0.08981 0.52587 0.0
C1470 C 0.60146 0.47934 0.5355 0.0
C1471 C 0.59787 0.49055 0.52398 0.0
C1472 C 0.61486 0.47022 0.5339 0.0
C1473 C 0.6436 0.45616 0.50419 0.0
H1474 H 0.66994 0.44949 0.54143 0.0
C1475 C 0.70497 0.42847 0.4995 0.0
C1476 C 0.70881 0.4174 0.51107 0.0
C1477 C 0.6914 0.43735 0.50113 0.0
C1478 C 0.66261 0.4511 0.53095 0.0
H1479 H 0.60565 0.50107 0.50179 0.0
H1480 H 0.62902 0.48513 0.49897 0.0
H1481 H 0.64619 0.46492 0.5441 0.0
H1482 H 0.70143 0.40699 0.53346 0.0
H1483 H 0.67769 0.4224 0.53622 0.0
H1484 H 0.66002 0.44235 0.49104 0.0
C1485 C 0.62134 0.48324 0.50914 0.0
C1486 C 0.649 0.45993 0.53249 0.0
C1487 C 0.60794 0.49236 0.51075 0.0
C1488 C 0.69884 0.41546 0.52435 0.0
C1489 C 0.68527 0.42435 0.52598 0.0
C1490 C 0.6572 0.44732 0.50266 0.0
C1491 C 0.62498 0.4721 0.52072 0.0
C1492 C 0.63936 0.46258 0.51912 0.0
C1493 C 0.68137 0.43536 0.51437 0.0
C1494 C 0.66688 0.44471 0.51602 0.0
H1495 H 0.5938 0.47748 0.54571 0.0
H1496 H 0.61721 0.46157 0.54289 0.0
H1497 H 0.63628 0.45779 0.49371 0.0
H1498 H 0.71242 0.43029 0.48915 0.0
H1499 H 0.68885 0.4459 0.49209 0.0
C1500 C 0.70742 0.27014 0.38323 0.0
C1501 C 0.71282 0.27297 0.36765 0.0
C1502 C 0.71107 0.28096 0.39566 0.0
C1503 C 0.72348 0.32268 0.40363 0.0
H1504 H 0.73582 0.30721 0.44503 0.0
C1505 C 0.7478 0.36422 0.45444 0.0
C1506 C 0.74228 0.36119 0.46993 0.0
C1507 C 0.7443 0.35349 0.44187 0.0
C1508 C 0.73224 0.31171 0.43359 0.0
H1509 H 0.72647 0.28929 0.35295 0.0
H1510 H 0.73283 0.30819 0.37465 0.0
H1511 H 0.72946 0.28842 0.42326 0.0
H1512 H 0.72872 0.34454 0.48439 0.0
H1513 H 0.72253 0.32593 0.46246 0.0
H1514 H 0.72624 0.34597 0.41398 0.0
C1515 C 0.72557 0.29771 0.3772 0.0
C1516 C 0.72859 0.30095 0.42112 0.0
C1517 C 0.72192 0.28688 0.36477 0.0
C1518 C 0.7332 0.34721 0.4726 0.0
C1519 C 0.72972 0.33649 0.46005 0.0
C1520 C 0.72713 0.33345 0.41611 0.0
C1521 C 0.7202 0.29485 0.39278 0.0
C1522 C 0.72414 0.30631 0.40601 0.0
C1523 C 0.73524 0.3395 0.44455 0.0
C1524 C 0.73152 0.32808 0.43123 0.0
H1525 H 0.70018 0.25964 0.38578 0.0
H1526 H 0.70654 0.27854 0.40748 0.0
H1527 H 0.71988 0.32717 0.39219 0.0
H1528 H 0.75485 0.37485 0.45199 0.0
H1529 H 0.74888 0.35605 0.4301 0.0
C1530 C 0.53646 0.03198 0.89746 0.0
C1531 C 0.52233 0.0227 0.89846 0.0
C1532 C 0.54737 0.02911 0.88535 0.0
C1533 C 0.55878 -0.00134 0.85544 0.0
H1534 H 0.58001 0.03443 0.83522 0.0
C1535 C 0.59339 0.9933 0.79634 0.0
C1536 C 0.60815 0.00157 0.79553 0.0
C1537 C 0.58343 0.99552 0.80941 0.0
C1538 C 0.5743 0.02433 0.84087 0.0
H1539 H 0.50846 0.00323 0.88753 0.0
H1540 H 0.52736 -0.00163 0.86618 0.0
H1541 H 0.56151 0.03903 0.85695 0.0
H1542 H 0.62406 0.0186 0.80783 0.0
H1543 H 0.60655 0.02254 0.83062 0.0
H1544 H 0.57137 0.98401 0.83905 0.0
C1545 C 0.53021 0.00765 0.87495 0.0
C1546 C 0.56372 0.02694 0.85335 0.0
C1547 C 0.51935 0.01045 0.88714 0.0
C1548 C 0.61276 0.01205 0.8081 0.0
C1549 C 0.60272 0.01437 0.82111 0.0
C1550 C 0.56927 0.99606 0.84287 0.0
C1551 C 0.54435 0.01696 0.87389 0.0
C1552 C 0.5558 0.01414 0.86077 0.0
C1553 C 0.58794 0.00615 0.82186 0.0
C1554 C 0.57711 0.00887 0.83545 0.0
H1555 H 0.53916 0.04136 0.90617 0.0
H1556 H 0.55827 0.03632 0.88508 0.0
H1557 H 0.55311 0.98852 0.86106 0.0
H1558 H 0.58949 0.98513 0.78685 0.0
H1559 H 0.57203 0.98914 0.80961 0.0
C1560 C 0.28862 0.2255 0.35891 0.0
C1561 C 0.27955 0.23882 0.35623 0.0
C1562 C 0.28619 0.2165 0.37256 0.0
C1563 C 0.26976 0.21852 0.41328 0.0
H1564 H 0.26822 0.17271 0.40962 0.0
C1565 C 0.24826 0.17873 0.46461 0.0
C1566 C 0.25652 0.16489 0.46728 0.0
C1567 C 0.25153 0.18785 0.45121 0.0
C1568 C 0.26882 0.18549 0.41088 0.0
H1569 H 0.261 0.25326 0.36587 0.0
H1570 H 0.25661 0.23742 0.38957 0.0
H1571 H 0.27314 0.18842 0.38592 0.0
H1572 H 0.27481 0.14985 0.45804 0.0
H1573 H 0.28061 0.16587 0.43476 0.0
H1574 H 0.26542 0.21561 0.43823 0.0
C1575 C 0.26567 0.234 0.38118 0.0
C1576 C 0.27163 0.19448 0.3973 0.0
C1577 C 0.26806 0.24297 0.36751 0.0
C1578 C 0.26819 0.16042 0.45631 0.0
C1579 C 0.27146 0.16955 0.44291 0.0
C1580 C 0.26697 0.20953 0.42686 0.0
C1581 C 0.2747 0.22066 0.38385 0.0
C1582 C 0.27206 0.2111 0.39834 0.0
C1583 C 0.26313 0.18334 0.44018 0.0
C1584 C 0.26641 0.19291 0.42581 0.0
H1585 H 0.29748 0.22194 0.35037 0.0
H1586 H 0.29343 0.20636 0.37436 0.0
H1587 H 0.27028 0.23131 0.4145 0.0
H1588 H 0.23917 0.18248 0.47281 0.0
H1589 H 0.24476 0.1983 0.44935 0.0
C1590 C 0.46204 0.47619 0.89495 0.0
C1591 C 0.47665 0.48477 0.89593 0.0
C1592 C 0.4511 0.47915 0.88285 0.0
C1593 C 0.44843 0.4954 0.84263 0.0
H1594 H 0.40377 0.49924 0.85235 0.0
C1595 C 0.40405 0.51647 0.79585 0.0
C1596 C 0.38887 0.50899 0.79524 0.0
C1597 C 0.41452 0.51361 0.80836 0.0
C1598 C 0.41616 0.498 0.84939 0.0
H1599 H 0.49104 0.50347 0.88512 0.0
H1600 H 0.47207 0.50844 0.8639 0.0
H1601 H 0.4225 0.49385 0.87374 0.0
H1602 H 0.37276 0.49265 0.80733 0.0
H1603 H 0.39115 0.4874 0.82901 0.0
H1604 H 0.44216 0.49932 0.81829 0.0
C1605 C 0.46916 0.4993 0.87241 0.0
C1606 C 0.42688 0.49494 0.86166 0.0
C1607 C 0.48004 0.49642 0.88455 0.0
C1608 C 0.38435 0.49866 0.80749 0.0
C1609 C 0.39487 0.49571 0.81997 0.0
C1610 C 0.43771 0.49834 0.83036 0.0
C1611 C 0.45459 0.49069 0.87141 0.0
C1612 C 0.44314 0.49369 0.8584 0.0
C1613 C 0.41011 0.5031 0.82051 0.0
C1614 C 0.42145 0.49977 0.83359 0.0
H1615 H 0.45914 0.46697 0.90336 0.0
H1616 H 0.44004 0.4722 0.88226 0.0
H1617 H 0.46085 0.49424 0.83973 0.0
H1618 H 0.40787 0.52458 0.78665 0.0
H1619 H 0.42605 0.51973 0.80855 0.0
C1620 C 0.71341 0.73832 0.13348 0.0
C1621 C 0.72332 0.75169 0.13704 0.0
C1622 C 0.71762 0.72738 0.12166 0.0
C1623 C 0.75212 0.71311 0.09948 0.0
H1624 H 0.72024 0.69633 0.06944 0.0
C1625 C 0.76793 0.67615 0.04338 0.0
C1626 C 0.75769 0.66322 0.03914 0.0
C1627 C 0.76389 0.68668 0.05565 0.0
C1628 C 0.72924 0.70075 0.07786 0.0
H1629 H 0.74529 0.7642 0.13073 0.0
H1630 H 0.75266 0.74507 0.11016 0.0
H1631 H 0.71279 0.71525 0.09017 0.0
H1632 H 0.73531 0.65104 0.04467 0.0
H1633 H 0.72839 0.66928 0.06618 0.0
H1634 H 0.76857 0.6986 0.08718 0.0
C1635 C 0.74175 0.74293 0.11669 0.0
C1636 C 0.72497 0.7116 0.08973 0.0
C1637 C 0.73752 0.75389 0.12847 0.0
C1638 C 0.74344 0.66092 0.04758 0.0
C1639 C 0.73941 0.67143 0.05985 0.0
C1640 C 0.75638 0.70223 0.08763 0.0
C1641 C 0.73185 0.72955 0.11316 0.0
C1642 C 0.73637 0.71792 0.10064 0.0
C1643 C 0.74953 0.6845 0.06395 0.0
C1644 C 0.745 0.69594 0.07667 0.0
H1645 H 0.7025 0.73617 0.14002 0.0
H1646 H 0.70985 0.71708 0.11936 0.0
H1647 H 0.76112 0.71761 0.10786 0.0
H1648 H 0.77898 0.67828 0.03709 0.0
H1649 H 0.77186 0.69673 0.05839 0.0
C1650 C 0.96961 0.02332 0.10524 0.0
C1651 C 0.98265 0.03417 0.10463 0.0
C1652 C 0.96033 0.02226 0.11899 0.0
C1653 C 0.96129 0.03141 0.1623 0.0
H1654 H 0.91549 0.02605 0.15851 0.0
C1655 C 0.92145 0.01537 0.2159 0.0
C1656 C 0.90685 0.02278 0.21719 0.0
C1657 C 0.93077 0.01722 0.20226 0.0
C1658 C 0.92825 0.02768 0.15978 0.0
H1659 H 0.99625 0.05229 0.11806 0.0
H1660 H 0.97987 0.05065 0.14191 0.0
H1661 H 0.93152 0.02863 0.13447 0.0
H1662 H 0.89067 0.03812 0.20526 0.0
H1663 H 0.90703 0.04149 0.18154 0.0
H1664 H 0.95801 0.03073 0.18761 0.0
C1665 C 0.97691 0.04286 0.13182 0.0
C1666 C 0.93745 0.02896 0.146 0.0
C1667 C 0.98618 0.04393 0.11807 0.0
C1668 C 0.90184 0.03221 0.20462 0.0
C1669 C 0.91116 0.03406 0.19098 0.0
C1670 C 0.95209 0.03012 0.17608 0.0
C1671 C 0.96388 0.03201 0.13244 0.0
C1672 C 0.95408 0.03081 0.14709 0.0
C1673 C 0.92571 0.02653 0.18961 0.0
C1674 C 0.93547 0.0282 0.17498 0.0
H1675 H 0.96648 0.01574 0.09503 0.0
H1676 H 0.95048 0.01366 0.11914 0.0
H1677 H 0.97408 0.03266 0.16355 0.0
H1678 H 0.92565 0.00799 0.22534 0.0
H1679 H 0.94181 0.0111 0.2015 0.0
C1680 C 0.28735 0.77399 0.14423 0.0
C1681 C 0.27802 0.76002 0.14601 0.0
C1682 C 0.28354 0.78485 0.13258 0.0
C1683 C 0.24996 0.79775 0.10855 0.0
H1684 H 0.28265 0.8172 0.08217 0.0
C1685 C 0.23516 0.83566 0.05428 0.0
C1686 C 0.24499 0.8491 0.05146 0.0
C1687 C 0.23915 0.82501 0.06607 0.0
C1688 C 0.2734 0.81204 0.08959 0.0
H1689 H 0.25739 0.74646 0.137 0.0
H1690 H 0.25081 0.76536 0.11656 0.0
H1691 H 0.28991 0.79804 0.10209 0.0
H1692 H 0.26654 0.86208 0.05901 0.0
H1693 H 0.27333 0.84366 0.07977 0.0
H1694 H 0.23346 0.8118 0.09617 0.0
C1695 C 0.26102 0.76795 0.12423 0.0
C1696 C 0.27757 0.80104 0.10097 0.0
C1697 C 0.26489 0.75706 0.13581 0.0
C1698 C 0.25875 0.8518 0.06084 0.0
C1699 C 0.2627 0.84118 0.07267 0.0
C1700 C 0.2458 0.8088 0.09722 0.0
C1701 C 0.27025 0.78201 0.12255 0.0
C1702 C 0.26588 0.79375 0.11052 0.0
C1703 C 0.25302 0.82759 0.07534 0.0
C1704 C 0.25747 0.81604 0.08757 0.0
H1705 H 0.29761 0.77653 0.15185 0.0
H1706 H 0.2908 0.79563 0.13163 0.0
H1707 H 0.24073 0.7925 0.11592 0.0
H1708 H 0.22451 0.8332 0.04721 0.0
H1709 H 0.23153 0.81457 0.06766 0.0
C1710 C 0.00491 0.48343 0.11633 0.0
C1711 C 0.00945 0.47297 0.10406 0.0
C1712 C 0.01351 0.48468 0.13064 0.0
C1713 C 0.04272 0.46396 0.15518 0.0
H1714 H 0.05073 0.50569 0.17426 0.0
C1715 C 0.08937 0.47713 0.20508 0.0
C1716 C 0.08506 0.48732 0.21767 0.0
C1717 C 0.07945 0.47475 0.19175 0.0
C1718 C 0.04843 0.49394 0.16918 0.0
H1719 H 0.02645 0.45539 0.09739 0.0
H1720 H 0.04175 0.45796 0.12213 0.0
H1721 H 0.03481 0.50279 0.14992 0.0
H1722 H 0.06683 0.50278 0.22627 0.0
H1723 H 0.04956 0.49862 0.20296 0.0
H1724 H 0.05666 0.45519 0.17433 0.0
C1725 C 0.03139 0.46503 0.12079 0.0
C1726 C 0.03928 0.49226 0.15524 0.0
C1727 C 0.02274 0.46372 0.1065 0.0
C1728 C 0.07052 0.49488 0.21676 0.0
C1729 C 0.06066 0.49258 0.20338 0.0
C1730 C 0.05195 0.46565 0.16907 0.0
C1731 C 0.02691 0.47557 0.13301 0.0
C1732 C 0.03635 0.47726 0.14804 0.0
C1733 C 0.06507 0.48258 0.19069 0.0
C1734 C 0.05493 0.48067 0.17619 0.0
H1735 H 0.99484 0.49085 0.11479 0.0
H1736 H 0.00961 0.49278 0.13988 0.0
H1737 H 0.04048 0.45221 0.1501 0.0
H1738 H 0.10048 0.47111 0.20543 0.0
H1739 H 0.08322 0.46708 0.18208 0.0
C1740 C 0.36391 0.71294 0.26877 0.0
C1741 C 0.3494 0.72051 0.27017 0.0
C1742 C 0.37609 0.71603 0.27991 0.0
C1743 C 0.39061 0.74587 0.30975 0.0
H1744 H 0.4166 0.71188 0.3239 0.0
C1745 C 0.44006 0.75532 0.35767 0.0
C1746 C 0.45455 0.74831 0.35424 0.0
C1747 C 0.42657 0.75166 0.34829 0.0
C1748 C 0.40951 0.72151 0.31998 0.0
H1749 H 0.33618 0.73702 0.28455 0.0
H1750 H 0.35746 0.74239 0.30406 0.0
H1751 H 0.39415 0.70592 0.30598 0.0
H1752 H 0.46622 0.73188 0.33834 0.0
H1753 H 0.44276 0.72557 0.32199 0.0
H1754 H 0.40606 0.76147 0.32368 0.0
C1755 C 0.35949 0.73424 0.29419 0.0
C1756 C 0.39666 0.7181 0.3097 0.0
C1757 C 0.34731 0.73117 0.28303 0.0
C1758 C 0.45524 0.73748 0.34133 0.0
C1759 C 0.44177 0.73378 0.33201 0.0
C1760 C 0.40345 0.74927 0.32006 0.0
C1761 C 0.37404 0.72674 0.29273 0.0
C1762 C 0.38717 0.73027 0.30432 0.0
C1763 C 0.4273 0.74086 0.33535 0.0
C1764 C 0.41314 0.73715 0.32514 0.0
H1765 H 0.36599 0.70487 0.25886 0.0
H1766 H 0.38724 0.71027 0.27827 0.0
H1767 H 0.38366 0.75554 0.30567 0.0
H1768 H 0.43913 0.7637 0.36755 0.0
H1769 H 0.41555 0.7572 0.35123 0.0
C1770 C 0.99615 0.40523 0.9638 0.0
C1771 C 0.98285 0.40485 0.9739 0.0
C1772 C -0.00056 0.39217 0.95404 0.0
C1773 C 0.98077 0.35643 0.9352 0.0
H1774 H 0.02367 0.34138 0.93377 0.0
C1775 C 0.99473 0.29618 0.90647 0.0
C1776 C 0.0088 0.29513 0.89764 0.0
C1777 C 0.99175 0.30982 0.91547 0.0
C1778 C 0.01167 0.34555 0.93385 0.0
H1779 H 0.96271 0.39029 0.98174 0.0
H1780 H 0.96832 0.36766 0.96453 0.0
H1781 H 0.01808 0.36495 0.94974 0.0
H1782 H 0.03077 0.30761 0.89128 0.0
H1783 H 0.02543 0.33153 0.90675 0.0
H1784 H 0.97433 0.33717 0.91924 0.0
C1785 C 0.97611 0.37813 0.96407 0.0
C1786 C 0.00848 0.35904 0.94302 0.0
C1787 C 0.97287 0.39113 0.9739 0.0
C1788 C 0.01984 0.30802 0.89802 0.0
C1789 C 0.01682 0.3217 0.90695 0.0
C1790 C 0.98398 0.34302 0.92595 0.0
C1791 C 0.98945 0.37849 0.95408 0.0
C1792 C 0.99298 0.36454 0.94388 0.0
C1793 C 0.00272 0.32278 0.91577 0.0
C1794 C -0.00056 0.33733 0.92526 0.0
H1795 H 0.00395 0.41569 0.96332 0.0
H1796 H 0.00972 0.39284 0.94632 0.0
H1797 H 0.96875 0.36054 0.93546 0.0
H1798 H 0.98601 0.28643 0.9065 0.0
H1799 H 0.98091 0.31012 0.92233 0.0
C1800 C 0.61932 0.79509 0.24331 0.0
C1801 C 0.63486 0.79172 0.24799 0.0
C1802 C 0.60644 0.79124 0.25314 0.0
C1803 C 0.5945 0.7656 0.28666 0.0
H1804 H 0.56092 0.79533 0.29207 0.0
C1805 C 0.54662 0.75927 0.33544 0.0
C1806 C 0.53093 0.76241 0.3311 0.0
C1807 C 0.55912 0.76243 0.32494 0.0
C1808 C 0.57011 0.78683 0.29053 0.0
H1809 H 0.64903 0.78145 0.26656 0.0
H1810 H 0.62664 0.7751 0.28386 0.0
H1811 H 0.58307 0.80171 0.27441 0.0
H1812 H 0.51604 0.77122 0.31225 0.0
H1813 H 0.53786 0.77669 0.29393 0.0
H1814 H 0.58159 0.7508 0.30291 0.0
C1815 C 0.62437 0.78055 0.27251 0.0
C1816 C 0.5828 0.79047 0.28041 0.0
C1817 C 0.63723 0.78439 0.26269 0.0
C1818 C 0.52799 0.76869 0.31599 0.0
C1819 C 0.5405 0.77191 0.30551 0.0
C1820 C 0.58184 0.76198 0.29681 0.0
C1821 C 0.60882 0.78393 0.26786 0.0
C1822 C 0.59517 0.77993 0.27839 0.0
C1823 C 0.55621 0.76887 0.3099 0.0
C1824 C 0.56953 0.77258 0.2989 0.0
H1825 H 0.6171 0.80086 0.23212 0.0
H1826 H 0.5946 0.79386 0.24912 0.0
H1827 H 0.6037 0.7571 0.28516 0.0
H1828 H 0.54929 0.75445 0.34701 0.0
H1829 H 0.57111 0.76012 0.32873 0.0
C1830 C 0.02906 0.11767 0.98259 0.0
C1831 C 0.02273 0.10243 0.97879 0.0
C1832 C 0.02748 0.13004 0.97197 0.0
C1833 C 0.02018 0.13841 0.9296 0.0
H1834 H 0.00828 0.17942 0.94615 0.0
C1835 C 0.00279 0.1891 0.88847 0.0
C1836 C 0.00796 0.20456 0.89292 0.0
C1837 C 0.00493 0.17655 0.89877 0.0
C1838 C 0.01182 0.16811 0.94135 0.0
H1839 H 0.0097 0.08827 0.96083 0.0
H1840 H 0.00705 0.10987 0.94221 0.0
H1841 H 0.01137 0.15768 0.96444 0.0
H1842 H 0.01971 0.21894 0.91157 0.0
H1843 H 0.02367 0.19702 0.92942 0.0
H1844 H 0.0207 0.14885 0.90652 0.0
C1845 C 0.01337 0.11218 0.95337 0.0
C1846 C 0.01356 0.15565 0.95184 0.0
C1847 C 0.0149 0.09981 0.96403 0.0
C1848 C 0.01551 0.20718 0.90781 0.0
C1849 C 0.01769 0.19462 0.91809 0.0
C1850 C 0.01849 0.1509 0.91912 0.0
C1851 C 0.01959 0.12744 0.95726 0.0
C1852 C 0.01776 0.14066 0.94608 0.0
C1853 C 0.01234 0.17917 0.91374 0.0
C1854 C 0.01428 0.1659 0.92487 0.0
H1855 H 0.03542 0.12002 0.99373 0.0
H1856 H 0.03262 0.14161 0.97519 0.0
H1857 H 0.02363 0.12705 0.92484 0.0
H1858 H 0.99689 0.18669 0.8771 0.0
H1859 H 0.00049 0.16483 0.89513 0.0
C1860 C 0.34989 0.26774 0.21514 0.0
C1861 C 0.35348 0.27381 0.23057 0.0
C1862 C 0.36195 0.26551 0.20402 0.0
C1863 C 0.40386 0.27759 0.19561 0.0
H1864 H 0.40174 0.24088 0.16707 0.0
C1865 C 0.45067 0.26894 0.1467 0.0
C1866 C 0.45597 0.25354 0.14421 0.0
C1867 C 0.43742 0.27158 0.15621 0.0
C1868 C 0.40259 0.25113 0.17503 0.0
H1869 H 0.37263 0.2824 0.2463 0.0
H1870 H 0.39366 0.27789 0.22719 0.0
H1871 H 0.38048 0.2449 0.18611 0.0
H1872 H 0.45142 0.2288 0.14955 0.0
H1873 H 0.42861 0.23342 0.16649 0.0
H1874 H 0.42629 0.28345 0.18506 0.0
C1875 C 0.38149 0.27515 0.22355 0.0
C1876 C 0.39027 0.25356 0.18582 0.0
C1877 C 0.36943 0.2775 0.23461 0.0
C1878 C 0.44759 0.24081 0.15118 0.0
C1879 C 0.43444 0.24346 0.16084 0.0
C1880 C 0.41623 0.27509 0.18493 0.0
C1881 C 0.37791 0.26918 0.20808 0.0
C1882 C 0.3908 0.26678 0.1963 0.0
C1883 C 0.42927 0.2589 0.16359 0.0
C1884 C 0.41579 0.2618 0.17454 0.0
H1885 H 0.33777 0.26458 0.21167 0.0
H1886 H 0.35873 0.26106 0.19217 0.0
H1887 H 0.40456 0.28803 0.20332 0.0
H1888 H 0.4568 0.27899 0.14137 0.0
H1889 H 0.4336 0.28359 0.1578 0.0
C1890 C 0.51337 0.40869 0.02659 0.0
C1891 C 0.52195 0.40643 0.01243 0.0
C1892 C 0.51139 0.39644 0.03744 0.0
C1893 C 0.51201 0.3531 0.0403 0.0
H1894 H 0.5172 0.36184 0.08574 0.0
C1895 C 0.51315 0.30313 0.08594 0.0
C1896 C 0.50484 0.30535 0.10028 0.0
C1897 C 0.51555 0.31561 0.07545 0.0
C1898 C 0.51554 0.35924 0.07311 0.0
H1899 H 0.53502 0.38948 -0.00155 0.0
H1900 H 0.5317 0.36814 0.01746 0.0
H1901 H 0.52058 0.38334 0.0669 0.0
H1902 H 0.49268 0.32248 0.11493 0.0
H1903 H 0.49669 0.34423 0.09651 0.0
H1904 H 0.50687 0.32904 0.04646 0.0
C1905 C 0.52643 0.37936 0.02013 0.0
C1906 C 0.51748 0.37155 0.06232 0.0
C1907 C 0.52846 0.39163 0.00932 0.0
C1908 C 0.49916 0.32039 0.104 0.0
C1909 C 0.50153 0.33288 0.09347 0.0
C1910 C 0.51003 0.3408 0.05108 0.0
C1911 C 0.51789 0.38164 0.03432 0.0
C1912 C 0.51576 0.3686 0.0458 0.0
C1913 C 0.50966 0.3306 0.07903 0.0
C1914 C 0.51179 0.34372 0.06761 0.0
H1915 H 0.50834 0.42001 0.02939 0.0
H1916 H 0.50463 0.39851 0.0482 0.0
H1917 H 0.51037 0.3505 0.02766 0.0
H1918 H 0.51776 0.29172 0.08276 0.0
H1919 H 0.52209 0.31353 0.06456 0.0
C1920 C 0.63338 0.23826 0.23548 0.0
C1921 C 0.63102 0.2287 0.24886 0.0
C1922 C 0.6209 0.24071 0.22487 0.0
C1923 C 0.58162 0.22396 0.21185 0.0
H1924 H 0.57673 0.26565 0.19439 0.0
C1925 C 0.52621 0.24014 0.17579 0.0
C1926 C 0.52885 0.24873 0.16179 0.0
C1927 C 0.53864 0.23783 0.18649 0.0
C1928 C 0.57804 0.25392 0.19906 0.0
H1929 H 0.61368 0.21437 0.26173 0.0
H1930 H 0.59182 0.21875 0.2433 0.0
H1931 H 0.59846 0.2613 0.21298 0.0
H1932 H 0.54661 0.26177 0.14811 0.0
H1933 H 0.56833 0.25773 0.16684 0.0
H1934 H 0.56111 0.21663 0.198 0.0
C1935 C 0.6034 0.22412 0.24083 0.0
C1936 C 0.59049 0.25141 0.20969 0.0
C1937 C 0.61591 0.22162 0.2514 0.0
C1938 C 0.54418 0.2551 0.1588 0.0
C1939 C 0.5566 0.25286 0.16956 0.0
C1940 C 0.56913 0.22649 0.20127 0.0
C1941 C 0.60575 0.23371 0.22744 0.0
C1942 C 0.59245 0.23639 0.21619 0.0
C1943 C 0.55398 0.24413 0.18347 0.0
C1944 C 0.56722 0.24149 0.19475 0.0
H1945 H 0.64496 0.24368 0.23308 0.0
H1946 H 0.62319 0.24793 0.21453 0.0
H1947 H 0.58294 0.2122 0.21643 0.0
H1948 H 0.51454 0.23509 0.17847 0.0
H1949 H 0.53622 0.23122 0.19722 0.0
C1950 C 0.49045 0.10474 0.02838 0.0
C1951 C 0.48217 0.10623 0.01389 0.0
C1952 C 0.49322 0.11786 0.03854 0.0
C1953 C 0.47833 0.15724 0.04823 0.0
H1954 H 0.51943 0.16439 0.06879 0.0
C1955 C 0.49462 0.21466 0.08379 0.0
C1956 C 0.50298 0.2132 0.09824 0.0
C1957 C 0.49233 0.20167 0.07337 0.0
C1958 C 0.50783 0.16246 0.06328 0.0
H1959 H 0.47022 0.12262 -0.00125 0.0
H1960 H 0.47524 0.14559 0.0164 0.0
H1961 H 0.51495 0.14157 0.05082 0.0
H1962 H 0.51553 0.19694 0.11305 0.0
H1963 H 0.51136 0.17421 0.09493 0.0
H1964 H 0.47116 0.17806 0.06074 0.0
C1965 C 0.47949 0.13424 0.01995 0.0
C1966 C 0.50527 0.1494 0.05298 0.0
C1967 C 0.47676 0.12113 0.00977 0.0
C1968 C 0.50907 0.19848 0.10199 0.0
C1969 C 0.50676 0.18547 0.09157 0.0
C1970 C 0.48087 0.17028 0.05855 0.0
C1971 C 0.48773 0.13275 0.03446 0.0
C1972 C 0.49049 0.14665 0.04535 0.0
C1973 C 0.49832 0.18691 0.07716 0.0
C1974 C 0.49566 0.17305 0.06618 0.0
H1975 H 0.4949 0.09344 0.03181 0.0
H1976 H 0.49949 0.11631 0.0497 0.0
H1977 H 0.46673 0.1553 0.04272 0.0
H1978 H 0.48983 0.22586 0.0805 0.0
H1979 H 0.48598 0.20323 0.06226 0.0
C1980 C 0.2721 0.37134 0.7258 0.0
C1981 C 0.25806 0.37398 0.71725 0.0
C1982 C 0.28315 0.38374 0.72898 0.0
C1983 C 0.29556 0.42368 0.71538 0.0
H1984 H 0.31757 0.42655 0.75622 0.0
C1985 C 0.33358 0.47863 0.73582 0.0
C1986 C 0.34833 0.47593 0.743 0.0
C1987 C 0.32277 0.46605 0.73251 0.0
C1988 C 0.31162 0.4258 0.74471 0.0
H1989 H 0.24465 0.39178 0.70536 0.0
H1990 H 0.26368 0.4135 0.71137 0.0
H1991 H 0.29802 0.40502 0.75103 0.0
H1992 H 0.36332 0.45791 0.75234 0.0
H1993 H 0.34436 0.43593 0.74659 0.0
H1994 H 0.30903 0.44462 0.70918 0.0
C1995 C 0.26629 0.40178 0.71537 0.0
C1996 C 0.30044 0.41346 0.74171 0.0
C1997 C 0.25526 0.38936 0.71211 0.0
C1998 C 0.35205 0.46038 0.74679 0.0
C1999 C 0.34117 0.44781 0.74358 0.0
C2000 C 0.30666 0.43607 0.71842 0.0
C2001 C 0.28041 0.3991 0.72377 0.0
C2002 C 0.29227 0.41225 0.727 0.0
C2003 C 0.32643 0.45053 0.73641 0.0
C2004 C 0.3148 0.43725 0.73311 0.0
H2005 H 0.27454 0.35969 0.73012 0.0
H2006 H 0.29397 0.38121 0.73534 0.0
H2007 H 0.2897 0.42295 0.70382 0.0
H2008 H 0.33034 0.49047 0.73276 0.0
H2009 H 0.31143 0.46852 0.72712 0.0
C2010 C 0.26133 0.6556 0.77754 0.0
C2011 C 0.24695 0.65291 0.78565 0.0
C2012 C 0.27157 0.64324 0.77476 0.0
C2013 C 0.28142 0.60398 0.78946 0.0
H2014 H 0.30273 0.59982 0.74871 0.0
C2015 C 0.31703 0.54931 0.77238 0.0
C2016 C 0.33153 0.55198 0.76446 0.0
C2017 C 0.30676 0.56167 0.77495 0.0
C2018 C 0.297 0.60093 0.76022 0.0
H2019 H 0.23203 0.63514 0.79722 0.0
H2020 H 0.24976 0.6135 0.79211 0.0
H2021 H 0.28453 0.62123 0.75306 0.0
H2022 H 0.34664 0.56974 0.75309 0.0
H2023 H 0.32874 0.59135 0.75771 0.0
H2024 H 0.29388 0.58369 0.79662 0.0
C2025 C 0.2532 0.62521 0.78805 0.0
C2026 C 0.28657 0.61319 0.7627 0.0
C2027 C 0.24296 0.63757 0.79081 0.0
C2028 C 0.33554 0.56729 0.7592 0.0
C2029 C 0.32525 0.57965 0.76176 0.0
C2030 C 0.29184 0.59173 0.78697 0.0
C2031 C 0.26765 0.62792 0.78004 0.0
C2032 C 0.27866 0.61485 0.77735 0.0
C2033 C 0.31073 0.57697 0.76966 0.0
C2034 C 0.29974 0.59006 0.77232 0.0
H2035 H 0.26466 0.66725 0.77326 0.0
H2036 H 0.28267 0.64574 0.76868 0.0
H2037 H 0.27571 0.60509 0.80097 0.0
H2038 H 0.31356 0.53765 0.77654 0.0
H2039 H 0.29558 0.55918 0.78089 0.0
C2040 C 0.9037 0.46708 0.48846 0.0
C2041 C 0.90191 0.48082 0.47957 0.0
C2042 C 0.89055 0.45716 0.4918 0.0
C2043 C 0.84898 0.44757 0.47906 0.0
H2044 H 0.84569 0.42927 0.5211 0.0
C2045 C 0.79125 0.41726 0.50213 0.0
C2046 C 0.79276 0.40283 0.50993 0.0
C2047 C 0.80472 0.42649 0.49822 0.0
C2048 C 0.84653 0.43418 0.50926 0.0
H2049 H 0.88497 0.49501 0.46728 0.0
H2050 H 0.86197 0.47785 0.4733 0.0
H2051 H 0.86893 0.44591 0.51455 0.0
H2052 H 0.80958 0.3868 0.51983 0.0
H2053 H 0.8331 0.403 0.51308 0.0
H2054 H 0.82641 0.43602 0.47392 0.0
C2055 C 0.87356 0.47453 0.47742 0.0
C2056 C 0.85985 0.44368 0.50548 0.0
C2057 C 0.88673 0.48439 0.47399 0.0
C2058 C 0.80802 0.39787 0.51383 0.0
C2059 C 0.82148 0.40717 0.51003 0.0
C2060 C 0.83561 0.43816 0.48289 0.0
C2061 C 0.8753 0.46082 0.48641 0.0
C2062 C 0.86123 0.45051 0.49034 0.0
C2063 C 0.81996 0.42155 0.50214 0.0
C2064 C 0.83424 0.43139 0.49803 0.0
H2065 H 0.9153 0.46393 0.49273 0.0
H2066 H 0.89237 0.44656 0.49851 0.0
H2067 H 0.84977 0.45241 0.4672 0.0
H2068 H 0.77967 0.42141 0.49894 0.0
H2069 H 0.80319 0.43761 0.49229 0.0
C2070 C 0.74988 0.87028 0.78407 0.0
C2071 C 0.74484 0.85512 0.77845 0.0
C2072 C 0.74033 0.88323 0.78191 0.0
C2073 C 0.70736 0.89693 0.75719 0.0
H2074 H 0.70209 0.92718 0.79202 0.0
C2075 C 0.66003 0.94436 0.75565 0.0
C2076 C 0.6645 0.9596 0.76144 0.0
C2077 C 0.67008 0.93177 0.75764 0.0
C2078 C 0.70359 0.91894 0.78212 0.0
H2079 H 0.72596 0.84173 0.76595 0.0
H2080 H 0.7092 0.86427 0.76241 0.0
H2081 H 0.7193 0.90495 0.79561 0.0
H2082 H 0.68304 0.9736 0.77383 0.0
H2083 H 0.70063 0.95166 0.77718 0.0
H2084 H 0.69163 0.91089 0.7437 0.0
C2085 C 0.72058 0.86617 0.76838 0.0
C2086 C 0.71345 0.90621 0.78417 0.0
C2087 C 0.73009 0.85322 0.77058 0.0
C2088 C 0.67922 0.96199 0.76927 0.0
C2089 C 0.68927 0.9494 0.77126 0.0
C2090 C 0.69751 0.90966 0.75513 0.0
C2091 C 0.72558 0.88131 0.77403 0.0
C2092 C 0.71539 0.89503 0.77175 0.0
C2093 C 0.68481 0.93416 0.76547 0.0
C2094 C 0.69547 0.92077 0.76759 0.0
H2095 H 0.76112 0.8721 0.79031 0.0
H2096 H 0.74458 0.89478 0.78627 0.0
H2097 H 0.70881 0.88866 0.7473 0.0
H2098 H 0.64874 0.94211 0.7496 0.0
H2099 H 0.66621 0.92012 0.75323 0.0
C2100 C 0.61459 0.51938 0.97901 0.0
C2101 C 0.60347 0.52198 0.96685 0.0
C2102 C 0.62808 0.52937 0.98093 0.0
C2103 C 0.65356 0.55837 0.95962 0.0
H2104 H 0.66711 0.5715 0.00238 0.0
C2105 C 0.70228 0.60713 0.97145 0.0
C2106 C 0.71332 0.60455 0.98369 0.0
C2107 C 0.68896 0.59695 0.96927 0.0
C2108 C 0.66359 0.5678 0.99037 0.0
H2109 H 0.59771 0.53721 0.94726 0.0
H2110 H 0.62125 0.55469 0.95065 0.0
H2111 H 0.64368 0.55396 -0.00121 0.0
H2112 H 0.7191 0.58918 0.00317 0.0
H2113 H 0.69593 0.57134 -0.00073 0.0
H2114 H 0.67346 0.57225 0.95121 0.0
C2115 C 0.61966 0.54477 0.95854 0.0
C2116 C 0.65016 0.55774 0.98831 0.0
C2117 C 0.60617 0.53476 0.95661 0.0
C2118 C 0.71079 0.59153 0.99366 0.0
C2119 C 0.69747 0.58136 0.99149 0.0
C2120 C 0.66699 0.56843 0.96168 0.0
C2121 C 0.63074 0.5422 0.97075 0.0
C2122 C 0.64501 0.5529 0.97292 0.0
C2123 C 0.68639 0.58397 0.97929 0.0
C2124 C 0.67215 0.57325 0.97708 0.0
H2125 H 0.61298 0.50948 0.98693 0.0
H2126 H 0.63652 0.52691 0.99028 0.0
H2127 H 0.65003 0.55467 0.94761 0.0
H2128 H 0.70385 0.61708 0.96359 0.0
H2129 H 0.68055 0.5994 0.95989 0.0
C2130 C 0.23812 0.62351 0.21367 0.0
C2131 C 0.23325 0.63914 0.21579 0.0
C2132 C 0.22729 0.61072 0.21519 0.0
C2133 C 0.1873 0.60025 0.23154 0.0
H2134 H 0.19173 0.5622 0.20555 0.0
C2135 C 0.14008 0.54876 0.22837 0.0
C2136 C 0.14596 0.53387 0.23179 0.0
C2137 C 0.15052 0.56168 0.2258 0.0
C2138 C 0.19041 0.57277 0.21288 0.0
H2139 H 0.21301 0.65343 0.22123 0.0
H2140 H 0.19403 0.63128 0.22291 0.0
H2141 H 0.21018 0.58479 0.20199 0.0
H2142 H 0.16734 0.52069 0.2348 0.0
H2143 H 0.18559 0.54323 0.22989 0.0
H2144 H 0.16721 0.58824 0.24206 0.0
C2145 C 0.20633 0.62884 0.22052 0.0
C2146 C 0.20102 0.58568 0.21095 0.0
C2147 C 0.21721 0.64161 0.21927 0.0
C2148 C 0.16247 0.53205 0.23224 0.0
C2149 C 0.1729 0.54489 0.22936 0.0
C2150 C 0.17653 0.58744 0.23325 0.0
C2151 C 0.21123 0.6132 0.21861 0.0
C2152 C 0.19969 0.59956 0.22035 0.0
C2153 C 0.16701 0.55984 0.22629 0.0
C2154 C 0.17808 0.57357 0.22402 0.0
H2155 H 0.2503 0.6211 0.21074 0.0
H2156 H 0.23161 0.59887 0.21387 0.0
H2157 H 0.18605 0.61057 0.23923 0.0
H2158 H 0.12741 0.55052 0.22799 0.0
H2159 H 0.14573 0.5731 0.22338 0.0
C2160 C 0.89279 0.51879 0.00189 0.0
C2161 C 0.90144 0.51974 0.01632 0.0
C2162 C 0.87989 0.52839 -0.00049 0.0
C2163 C 0.85052 0.55136 0.02156 0.0
H2164 H 0.84406 0.5711 0.98073 0.0
C2165 C 0.80239 0.59707 0.012 0.0
C2166 C 0.79373 0.59592 -0.00241 0.0
C2167 C 0.81568 0.58796 0.01425 0.0
C2168 C 0.84561 0.56553 0.99214 0.0
H2169 H 0.90357 0.53183 0.03938 0.0
H2170 H 0.88103 0.54856 0.03522 0.0
H2171 H 0.86709 0.55495 0.98466 0.0
H2172 H 0.79221 0.58427 0.97427 0.0
H2173 H 0.81529 0.56826 0.97828 0.0
H2174 H 0.82901 0.56187 0.02903 0.0
C2175 C 0.88408 0.54021 0.02586 0.0
C2176 C 0.85881 0.55629 0.99439 0.0
C2177 C 0.89699 0.53062 0.02824 0.0
C2178 C 0.79864 0.58547 0.98549 0.0
C2179 C 0.81193 0.57636 0.98775 0.0
C2180 C 0.83732 0.56059 0.0193 0.0
C2181 C 0.87534 0.53915 0.0115 0.0
C2182 C 0.8614 0.54909 0.00912 0.0
C2183 C 0.82061 0.5775 0.00215 0.0
C2184 C 0.8347 0.56777 0.00457 0.0
H2185 H 0.89578 0.51037 0.99256 0.0
H2186 H 0.87326 0.52715 0.9884 0.0
H2187 H 0.85206 0.54577 0.03297 0.0
H2188 H 0.79895 0.60505 0.02154 0.0
H2189 H 0.82223 0.58927 0.0254 0.0
C2190 C 0.10789 0.99034 0.01159 0.0
C2191 C 0.09815 0.98886 0.02511 0.0
C2192 C 0.12121 0.98113 0.00982 0.0
C2193 C 0.14956 0.95857 0.03296 0.0
H2194 H 0.15936 0.93972 0.99174 0.0
C2195 C 0.19985 0.91461 0.02471 0.0
C2196 C 0.20921 0.91606 0.01093 0.0
C2197 C 0.18621 0.92335 0.02651 0.0
C2198 C 0.1569 0.94505 0.00329 0.0
H2199 H 0.09461 0.97624 0.0472 0.0
H2200 H 0.11792 0.96022 0.04414 0.0
H2201 H 0.13561 0.95509 0.99467 0.0
H2202 H 0.21166 0.92796 0.9883 0.0
H2203 H 0.18801 0.94337 0.99155 0.0
H2204 H 0.1709 0.94864 0.04157 0.0
C2205 C 0.11535 0.96868 0.03502 0.0
C2206 C 0.14327 0.95384 0.00497 0.0
C2207 C 0.102 0.97786 0.03677 0.0
C2208 C 0.20468 0.92652 -0.00096 0.0
C2209 C 0.19106 0.93528 0.00085 0.0
C2210 C 0.16321 0.94981 0.03128 0.0
C2211 C 0.12513 0.97025 0.02155 0.0
C2212 C 0.13947 0.96072 0.01981 0.0
C2213 C 0.18163 0.93376 0.01458 0.0
C2214 C 0.16705 0.94298 0.01641 0.0
H2215 H 0.10541 -0.00112 0.00251 0.0
H2216 H 0.12863 0.98278 -0.00058 0.0
H2217 H 0.14708 0.96392 0.0445 0.0
H2218 H 0.20297 0.9066 0.03407 0.0
H2219 H 0.1791 0.92176 0.03714 0.0
loop_
_geom_bond_atom_site_label_1
_geom_bond_atom_site_label_2
_geom_bond_distance
_geom_bond_site_symmetry_2
_ccdc_geom_bond_type
C0 C1 1.391 . S
C0 C2 1.397 1_556 S
C0 H24 0.931 . S
C1 C0 1.391 . S
C1 C5 1.383 1_556 S
C2 C0 1.397 1_554 S
C2 C3 1.384 . S
C2 H25 0.929 1_554 S
C3 C2 1.384 . S
C3 C4 1.377 . S
C3 C6 1.481 . S
C4 C3 1.377 . S
C4 C5 1.389 . S
C4 H26 0.929 . S
C5 C1 1.383 1_554 S
C5 C4 1.389 . S
C5 H27 0.931 . S
C6 C3 1.481 . S
C6 C7 1.387 . S
C6 C11 1.390 . S
C7 C6 1.387 . S
C7 C8 1.401 . S
C7 H28 0.930 . S
C8 C7 1.401 . S
C8 C9 1.376 . S
C8 C17 1.511 . S
C9 C8 1.376 . S
C9 C10 1.392 . S
C9 H30 0.931 . S
C10 C9 1.392 . S
C10 C11 1.361 . S
C10 C12 1.500 . S
C11 C6 1.390 . S
C11 C10 1.361 . S
C11 H29 0.931 . S
C12 C10 1.500 . S
C12 C13 1.371 . S
C12 C14 1.365 . S
C13 C12 1.371 . S
C13 C23 1.386 . S
C13 H31 0.931 . S
C14 C12 1.365 . S
C14 C15 1.409 1_455 S
C14 H32 0.929 . S
C15 C14 1.409 1_655 S
C15 C16 1.380 . S
C15 H33 0.930 . S
C16 C15 1.380 . S
C16 C23 1.357 1_655 S
C17 C8 1.511 . S
C17 C18 1.341 . S
C17 C19 1.371 . S
C18 C17 1.341 . S
C18 C22 1.394 . S
C18 H34 0.930 . S
C19 C17 1.371 . S
C19 C20 1.392 . S
C19 H35 0.931 . S
C20 C19 1.392 . S
C20 C21 1.331 . S
C20 H38 0.924 1_545 S
C21 C20 1.331 . S
C21 C22 1.336 . S
C22 C18 1.394 . S
C22 C21 1.336 . S
C22 H37 0.929 . S
C23 C13 1.386 . S
C23 C16 1.357 1_455 S
C23 H36 0.924 1_455 S
H24 C0 0.931 . S
H25 C2 0.929 1_556 S
H26 C4 0.929 . S
H27 C5 0.931 . S
H28 C7 0.930 . S
H29 C11 0.931 . S
H30 C9 0.931 . S
H31 C13 0.931 . S
H32 C14 0.929 . S
H33 C15 0.930 . S
H34 C18 0.930 . S
H35 C19 0.931 . S
H36 C23 0.924 1_655 S
H37 C22 0.929 . S
H38 C20 0.924 1_565 S
C39 C40 1.386 . S
C39 C41 1.397 . S
C39 H63 0.931 . S
C40 C39 1.386 . S
C40 C44 1.397 . S
C41 C39 1.397 . S
C41 C42 1.384 . S
C41 H64 0.930 . S
C42 C41 1.384 . S
C42 C43 1.377 . S
C42 C45 1.481 . S
C43 C42 1.377 . S
C43 C44 1.389 . S
C43 H65 0.929 . S
C44 C40 1.397 . S
C44 C43 1.389 . S
C44 H66 0.931 . S
C45 C42 1.481 . S
C45 C46 1.387 . S
C45 C50 1.390 . S
C46 C45 1.387 . S
C46 C47 1.401 . S
C46 H67 0.930 . S
C47 C46 1.401 . S
C47 C48 1.376 . S
C47 C56 1.511 . S
C48 C47 1.376 . S
C48 C49 1.392 . S
C48 H69 0.931 . S
C49 C48 1.392 . S
C49 C50 1.361 . S
C49 C51 1.500 . S
C50 C45 1.390 . S
C50 C49 1.361 . S
C50 H68 0.931 . S
C51 C49 1.500 . S
C51 C52 1.371 . S
C51 C53 1.365 . S
C52 C51 1.371 . S
C52 C62 1.386 . S
C52 H70 0.931 . S
C53 C51 1.365 . S
C53 C54 1.409 . S
C53 H71 0.929 . S
C54 C53 1.409 . S
C54 C55 1.380 . S
C54 H72 0.930 . S
C55 C54 1.380 . S
C55 C62 1.357 . S
C56 C47 1.511 . S
C56 C57 1.341 . S
C56 C58 1.371 . S
C57 C56 1.341 . S
C57 C61 1.394 . S
C57 H73 0.930 . S
C58 C56 1.371 . S
C58 C59 1.392 . S
C58 H74 0.931 . S
C59 C58 1.392 . S
C59 C60 1.331 . S
C59 H77 0.932 . S
C60 C59 1.331 . S
C60 C61 1.336 . S
C61 C57 1.394 . S
C61 C60 1.336 . S
C61 H76 0.929 . S
C62 C52 1.386 . S
C62 C55 1.357 . S
C62 H75 0.928 . S
H63 C39 0.931 . S
H64 C41 0.930 . S
H65 C43 0.929 . S
H66 C44 0.931 . S
H67 C46 0.930 . S
H68 C50 0.931 . S
H69 C48 0.931 . S
H70 C52 0.931 . S
H71 C53 0.929 . S
H72 C54 0.930 . S
H73 C57 0.930 . S
H74 C58 0.931 . S
H75 C62 0.928 . S
H76 C61 0.929 . S
H77 C59 0.932 . S
C78 C79 1.386 1_655 S
C78 C80 1.397 . S
C78 H102 0.931 . S
C79 C78 1.386 1_455 S
C79 C83 1.397 . S
C80 C78 1.397 . S
C80 C81 1.384 . S
C80 H103 0.930 . S
C81 C80 1.384 . S
C81 C82 1.377 1_655 S
C81 C84 1.481 . S
C82 C81 1.377 1_455 S
C82 C83 1.389 . S
C82 H104 0.929 . S
C83 C79 1.397 . S
C83 C82 1.389 . S
C83 H105 0.931 . S
C84 C81 1.481 . S
C84 C85 1.387 . S
C84 C89 1.390 . S
C85 C84 1.387 . S
C85 C86 1.401 . S
C85 H106 0.930 . S
C86 C85 1.401 . S
C86 C87 1.376 . S
C86 C95 1.511 . S
C87 C86 1.376 . S
C87 C88 1.392 . S
C87 H108 0.931 . S
C88 C87 1.392 . S
C88 C89 1.361 . S
C88 C90 1.500 . S
C89 C84 1.390 . S
C89 C88 1.361 . S
C89 H107 0.931 . S
C90 C88 1.500 . S
C90 C91 1.371 . S
C90 C92 1.365 . S
C91 C90 1.371 . S
C91 C101 1.386 1_554 S
C91 H109 0.931 . S
C92 C90 1.365 . S
C92 C93 1.409 . S
C92 H110 0.929 . S
C93 C92 1.409 . S
C93 C94 1.380 1_554 S
C93 H111 0.931 . S
C94 C93 1.380 1_556 S
C94 C101 1.357 . S
C95 C86 1.511 . S
C95 C96 1.341 . S
C95 C97 1.371 . S
C96 C95 1.341 . S
C96 C100 1.394 . S
C96 H112 0.930 . S
C97 C95 1.371 . S
C97 C98 1.392 . S
C97 H113 0.931 . S
C98 C97 1.392 . S
C98 C99 1.331 . S
C98 H116 0.932 . S
C99 C98 1.331 . S
C99 C100 1.336 . S
C100 C96 1.394 . S
C100 C99 1.336 . S
C100 H115 0.929 . S
C101 C91 1.386 1_556 S
C101 C94 1.357 . S
C101 H114 0.928 . S
H102 C78 0.931 . S
H103 C80 0.930 . S
H104 C82 0.929 . S
H105 C83 0.931 . S
H106 C85 0.930 . S
H107 C89 0.931 . S
H108 C87 0.931 . S
H109 C91 0.931 . S
H110 C92 0.929 . S
H111 C93 0.931 . S
H112 C96 0.930 . S
H113 C97 0.931 . S
H114 C101 0.928 . S
H115 C100 0.929 . S
H116 C98 0.932 . S
C117 C118 1.386 . S
C117 C119 1.397 . S
C117 H141 0.931 . S
C118 C117 1.386 . S
C118 C122 1.397 . S
C119 C117 1.397 . S
C119 C120 1.384 . S
C119 H142 0.930 . S
C120 C119 1.384 . S
C120 C121 1.377 . S
C120 C123 1.481 . S
C121 C120 1.377 . S
C121 C122 1.389 . S
C121 H143 0.929 . S
C122 C118 1.397 . S
C122 C121 1.389 . S
C122 H144 0.931 . S
C123 C120 1.481 . S
C123 C124 1.387 . S
C123 C128 1.390 . S
C124 C123 1.387 . S
C124 C125 1.401 . S
C124 H145 0.930 . S
C125 C124 1.401 . S
C125 C126 1.376 . S
C125 C134 1.511 . S
C126 C125 1.376 . S
C126 C127 1.392 . S
C126 H147 0.931 . S
C127 C126 1.392 . S
C127 C128 1.361 . S
C127 C129 1.500 . S
C128 C123 1.390 . S
C128 C127 1.361 . S
C128 H146 0.931 . S
C129 C127 1.500 . S
C129 C130 1.371 . S
C129 C131 1.365 . S
C130 C129 1.371 . S
C130 C140 1.386 . S
C130 H148 0.931 . S
C131 C129 1.365 . S
C131 C132 1.409 . S
C131 H149 0.929 . S
C132 C131 1.409 . S
C132 C133 1.380 . S
C132 H150 0.930 . S
C133 C132 1.380 . S
C133 C140 1.357 . S
C134 C125 1.511 . S
C134 C135 1.341 . S
C134 C136 1.371 . S
C135 C134 1.341 . S
C135 C139 1.394 . S
C135 H151 0.930 . S
C136 C134 1.371 . S
C136 C137 1.392 . S
C136 H152 0.931 . S
C137 C136 1.392 . S
C137 C138 1.331 . S
C137 H155 0.932 . S
C138 C137 1.331 . S
C138 C139 1.336 . S
C139 C135 1.394 . S
C139 C138 1.336 . S
C139 H154 0.929 . S
C140 C130 1.386 . S
C140 C133 1.357 . S
C140 H153 0.928 . S
H141 C117 0.931 . S
H142 C119 0.930 . S
H143 C121 0.929 . S
H144 C122 0.931 . S
H145 C124 0.930 . S
H146 C128 0.931 . S
H147 C126 0.931 . S
H148 C130 0.931 . S
H149 C131 0.929 . S
H150 C132 0.930 . S
H151 C135 0.930 . S
H152 C136 0.931 . S
H153 C140 0.928 . S
H154 C139 0.929 . S
H155 C137 0.932 . S
C156 C157 1.386 . S
C156 C158 1.354 1_655 S
C156 H180 0.931 . S
C157 C156 1.386 . S
C157 C161 1.397 1_655 S
C158 C156 1.354 1_455 S
C158 C159 1.454 . S
C158 H181 0.907 1_455 S
C159 C158 1.454 . S
C159 C160 1.377 . S
C159 C162 1.481 . S
C160 C159 1.377 . S
C160 C161 1.389 . S
C160 H182 0.929 . S
C161 C157 1.397 1_455 S
C161 C160 1.389 . S
C161 H183 0.931 . S
C162 C159 1.481 . S
C162 C163 1.387 . S
C162 C167 1.390 . S
C163 C162 1.387 . S
C163 C164 1.401 . S
C163 H184 0.930 . S
C164 C163 1.401 . S
C164 C165 1.376 . S
C164 C173 1.511 . S
C165 C164 1.376 . S
C165 C166 1.392 . S
C165 H186 0.931 . S
C166 C165 1.392 . S
C166 C167 1.361 . S
C166 C168 1.500 . S
C167 C162 1.390 . S
C167 C166 1.361 . S
C167 H185 0.931 . S
C168 C166 1.500 . S
C168 C169 1.371 . S
C168 C170 1.365 1_565 S
C169 C168 1.371 . S
C169 C179 1.386 1_565 S
C169 H187 0.931 . S
C170 C168 1.365 1_545 S
C170 C171 1.409 . S
C170 H188 0.929 1_545 S
C171 C170 1.409 . S
C171 C172 1.380 . S
C171 H189 0.930 . S
C172 C171 1.380 . S
C172 C179 1.357 . S
C173 C164 1.511 . S
C173 C174 1.341 . S
C173 C175 1.371 . S
C174 C173 1.341 . S
C174 C178 1.394 . S
C174 H190 0.930 . S
C175 C173 1.371 . S
C175 C176 1.392 . S
C175 H191 0.931 . S
C176 C175 1.392 . S
C176 C177 1.331 . S
C176 H194 0.932 . S
C177 C176 1.331 . S
C177 C178 1.336 . S
C178 C174 1.394 . S
C178 C177 1.336 . S
C178 H193 0.929 . S
C179 C169 1.386 1_545 S
C179 C172 1.357 . S
C179 H192 0.928 . S
H180 C156 0.931 . S
H181 C158 0.907 1_655 S
H182 C160 0.929 . S
H183 C161 0.931 . S
H184 C163 0.930 . S
H185 C167 0.931 . S
H186 C165 0.931 . S
H187 C169 0.931 . S
H188 C170 0.929 1_565 S
H189 C171 0.930 . S
H190 C174 0.930 . S
H191 C175 0.931 . S
H192 C179 0.928 . S
H193 C178 0.929 . S
H194 C176 0.932 . S
C195 C196 1.386 . S
C195 C197 1.397 . S
C195 H219 0.931 . S
C196 C195 1.386 . S
C196 C200 1.397 . S
C197 C195 1.397 . S
C197 C198 1.384 . S
C197 H220 0.930 . S
C198 C197 1.384 . S
C198 C199 1.377 . S
C198 C201 1.481 . S
C199 C198 1.377 . S
C199 C200 1.389 . S
C199 H221 0.929 . S
C200 C196 1.397 . S
C200 C199 1.389 . S
C200 H222 0.931 . S
C201 C198 1.481 . S
C201 C202 1.387 . S
C201 C206 1.390 . S
C202 C201 1.387 . S
C202 C203 1.401 . S
C202 H223 0.930 . S
C203 C202 1.401 . S
C203 C204 1.376 . S
C203 C212 1.511 . S
C204 C203 1.376 . S
C204 C205 1.392 . S
C204 H225 0.931 . S
C205 C204 1.392 . S
C205 C206 1.361 . S
C205 C207 1.500 . S
C206 C201 1.390 . S
C206 C205 1.361 . S
C206 H224 0.931 . S
C207 C205 1.500 . S
C207 C208 1.371 . S
C207 C209 1.365 . S
C208 C207 1.371 . S
C208 C218 1.386 . S
C208 H226 0.931 . S
C209 C207 1.365 . S
C209 C210 1.409 . S
C209 H227 0.929 . S
C210 C209 1.409 . S
C210 C211 1.380 . S
C210 H228 0.930 . S
C211 C210 1.380 . S
C211 C218 1.357 . S
C212 C203 1.511 . S
C212 C213 1.341 . S
C212 C214 1.371 . S
C213 C212 1.341 . S
C213 C217 1.394 . S
C213 H229 0.930 . S
C214 C212 1.371 . S
C214 C215 1.392 . S
C214 H230 0.931 . S
C215 C214 1.392 . S
C215 C216 1.331 . S
C215 H233 0.932 . S
C216 C215 1.331 . S
C216 C217 1.336 . S
C217 C213 1.394 . S
C217 C216 1.336 . S
C217 H232 0.929 . S
C218 C208 1.386 . S
C218 C211 1.357 . S
C218 H231 0.928 . S
H219 C195 0.931 . S
H220 C197 0.930 . S
H221 C199 0.929 . S
H222 C200 0.931 . S
H223 C202 0.930 . S
H224 C206 0.931 . S
H225 C204 0.931 . S
H226 C208 0.931 . S
H227 C209 0.929 . S
H228 C210 0.930 . S
H229 C213 0.930 . S
H230 C214 0.931 . S
H231 C218 0.928 . S
H232 C217 0.929 . S
H233 C215 0.932 . S
C234 C235 1.386 . S
C234 C236 1.397 . S
C234 H258 0.931 . S
C235 C234 1.386 . S
C235 C239 1.397 . S
C236 C234 1.397 . S
C236 C237 1.384 . S
C236 H259 0.930 . S
C237 C236 1.384 . S
C237 C238 1.377 . S
C237 C240 1.481 . S
C238 C237 1.377 . S
C238 C239 1.389 . S
C238 H260 0.929 . S
C239 C235 1.397 . S
C239 C238 1.389 . S
C239 H261 0.931 . S
C240 C237 1.481 . S
C240 C241 1.387 . S
C240 C245 1.390 . S
C241 C240 1.387 . S
C241 C242 1.401 . S
C241 H262 0.930 . S
C242 C241 1.401 . S
C242 C243 1.376 . S
C242 C251 1.511 . S
C243 C242 1.376 . S
C243 C244 1.392 . S
C243 H264 0.931 . S
C244 C243 1.392 . S
C244 C245 1.361 . S
C244 C246 1.500 . S
C245 C240 1.390 . S
C245 C244 1.361 . S
C245 H263 0.931 . S
C246 C244 1.500 . S
C246 C247 1.371 . S
C246 C248 1.365 . S
C247 C246 1.371 . S
C247 C257 1.386 . S
C247 H265 0.931 . S
C248 C246 1.365 . S
C248 C249 1.409 . S
C248 H266 0.929 . S
C249 C248 1.409 . S
C249 C250 1.380 . S
C249 H267 0.930 . S
C250 C249 1.380 . S
C250 C257 1.357 . S
C251 C242 1.511 . S
C251 C252 1.341 . S
C251 C253 1.371 . S
C252 C251 1.341 . S
C252 C256 1.394 1_655 S
C252 H268 0.930 . S
C253 C251 1.371 . S
C253 C254 1.392 . S
C253 H269 0.931 . S
C254 C253 1.392 . S
C254 C255 1.331 1_655 S
C254 H272 0.932 . S
C255 C254 1.331 1_455 S
C255 C256 1.336 . S
C256 C252 1.394 1_455 S
C256 C255 1.336 . S
C256 H271 0.929 . S
C257 C247 1.386 . S
C257 C250 1.357 . S
C257 H270 0.928 . S
H258 C234 0.931 . S
H259 C236 0.930 . S
H260 C238 0.929 . S
H261 C239 0.931 . S
H262 C241 0.930 . S
H263 C245 0.931 . S
H264 C243 0.931 . S
H265 C247 0.931 . S
H266 C248 0.929 . S
H267 C249 0.930 . S
H268 C252 0.930 . S
H269 C253 0.931 . S
H270 C257 0.928 . S
H271 C256 0.929 . S
H272 C254 0.932 . S
C273 C274 1.386 . S
C273 C275 1.397 . S
C273 H297 0.931 . S
C274 C273 1.386 . S
C274 C278 1.397 . S
C275 C273 1.397 . S
C275 C276 1.384 . S
C275 H298 0.930 . S
C276 C275 1.384 . S
C276 C277 1.377 . S
C276 C279 1.481 . S
C277 C276 1.377 . S
C277 C278 1.389 . S
C277 H299 0.929 . S
C278 C274 1.397 . S
C278 C277 1.389 . S
C278 H300 0.931 . S
C279 C276 1.481 . S
C279 C280 1.387 . S
C279 C284 1.390 . S
C280 C279 1.387 . S
C280 C281 1.401 . S
C280 H301 0.930 . S
C281 C280 1.401 . S
C281 C282 1.376 . S
C281 C290 1.511 . S
C282 C281 1.376 . S
C282 C283 1.392 . S
C282 H303 0.931 . S
C283 C282 1.392 . S
C283 C284 1.361 . S
C283 C285 1.500 . S
C284 C279 1.390 . S
C284 C283 1.361 . S
C284 H302 0.931 . S
C285 C283 1.500 . S
C285 C286 1.371 . S
C285 C287 1.365 . S
C286 C285 1.371 . S
C286 C296 1.386 . S
C286 H304 0.931 . S
C287 C285 1.365 . S
C287 C288 1.409 . S
C287 H305 0.929 . S
C288 C287 1.409 . S
C288 C289 1.380 . S
C288 H306 0.930 . S
C289 C288 1.380 . S
C289 C296 1.357 . S
C290 C281 1.511 . S
C290 C291 1.341 . S
C290 C292 1.371 . S
C291 C290 1.341 . S
C291 C295 1.394 . S
C291 H307 0.930 . S
C292 C290 1.371 . S
C292 C293 1.392 . S
C292 H308 0.931 . S
C293 C292 1.392 . S
C293 C294 1.331 . S
C293 H311 0.932 . S
C294 C293 1.331 . S
C294 C295 1.336 . S
C295 C291 1.394 . S
C295 C294 1.336 . S
C295 H310 0.929 . S
C296 C286 1.386 . S
C296 C289 1.357 . S
C296 H309 0.928 . S
H297 C273 0.931 . S
H298 C275 0.930 . S
H299 C277 0.929 . S
H300 C278 0.931 . S
H301 C280 0.930 . S
H302 C284 0.931 . S
H303 C282 0.931 . S
H304 C286 0.931 . S
H305 C287 0.929 . S
H306 C288 0.930 . S
H307 C291 0.930 . S
H308 C292 0.931 . S
H309 C296 0.928 . S
H310 C295 0.929 . S
H311 C293 0.932 . S
C312 C313 1.386 . S
C312 C314 1.397 . S
C312 H336 0.931 . S
C313 C312 1.386 . S
C313 C317 1.397 . S
C314 C312 1.397 . S
C314 C315 1.384 . S
C314 H337 0.930 . S
C315 C314 1.384 . S
C315 C316 1.377 . S
C315 C318 1.481 . S
C316 C315 1.377 . S
C316 C317 1.389 . S
C316 H338 0.929 . S
C317 C313 1.397 . S
C317 C316 1.389 . S
C317 H339 0.931 . S
C318 C315 1.481 . S
C318 C319 1.387 . S
C318 C323 1.390 . S
C319 C318 1.387 . S
C319 C320 1.401 . S
C319 H340 0.930 . S
C320 C319 1.401 . S
C320 C321 1.376 . S
C320 C329 1.511 . S
C321 C320 1.376 . S
C321 C322 1.392 . S
C321 H342 0.931 . S
C322 C321 1.392 . S
C322 C323 1.361 . S
C322 C324 1.500 . S
C323 C318 1.390 . S
C323 C322 1.361 . S
C323 H341 0.931 . S
C324 C322 1.500 . S
C324 C325 1.371 . S
C324 C326 1.365 . S
C325 C324 1.371 . S
C325 C335 1.386 . S
C325 H343 0.931 . S
C326 C324 1.365 . S
C326 C327 1.409 . S
C326 H344 0.929 . S
C327 C326 1.409 . S
C327 C328 1.380 . S
C327 H345 0.930 . S
C328 C327 1.380 . S
C328 C335 1.357 . S
C329 C320 1.511 . S
C329 C330 1.341 . S
C329 C331 1.371 . S
C330 C329 1.341 . S
C330 C334 1.394 . S
C330 H346 0.930 . S
C331 C329 1.371 . S
C331 C332 1.392 . S
C331 H347 0.931 . S
C332 C331 1.392 . S
C332 C333 1.331 . S
C332 H350 0.932 . S
C333 C332 1.331 . S
C333 C334 1.336 . S
C334 C330 1.394 . S
C334 C333 1.336 . S
C334 H349 0.929 . S
C335 C325 1.386 . S
C335 C328 1.357 . S
C335 H348 0.928 . S
H336 C312 0.931 . S
H337 C314 0.930 . S
H338 C316 0.929 . S
H339 C317 0.931 . S
H340 C319 0.930 . S
H341 C323 0.931 . S
H342 C321 0.931 . S
H343 C325 0.931 . S
H344 C326 0.929 . S
H345 C327 0.930 . S
H346 C330 0.930 . S
H347 C331 0.931 . S
H348 C335 0.928 . S
H349 C334 0.929 . S
H350 C332 0.932 . S
C351 C352 1.386 . S
C351 C353 1.397 . S
C351 H375 0.931 . S
C352 C351 1.386 . S
C352 C356 1.397 . S
C353 C351 1.397 . S
C353 C354 1.384 . S
C353 H376 0.930 . S
C354 C353 1.384 . S
C354 C355 1.377 . S
C354 C357 1.481 . S
C355 C354 1.377 . S
C355 C356 1.389 . S
C355 H377 0.929 . S
C356 C352 1.397 . S
C356 C355 1.389 . S
C356 H378 0.931 . S
C357 C354 1.481 . S
C357 C358 1.387 . S
C357 C362 1.390 . S
C358 C357 1.387 . S
C358 C359 1.401 . S
C358 H379 0.930 . S
C359 C358 1.401 . S
C359 C360 1.376 . S
C359 C368 1.511 . S
C360 C359 1.376 . S
C360 C361 1.392 . S
C360 H381 0.931 . S
C361 C360 1.392 . S
C361 C362 1.361 . S
C361 C363 1.500 . S
C362 C357 1.390 . S
C362 C361 1.361 . S
C362 H380 0.931 . S
C363 C361 1.500 . S
C363 C364 1.371 . S
C363 C365 1.365 . S
C364 C363 1.371 . S
C364 C374 1.386 . S
C364 H382 0.931 . S
C365 C363 1.365 . S
C365 C366 1.409 . S
C365 H383 0.929 . S
C366 C365 1.409 . S
C366 C367 1.380 . S
C366 H384 0.930 . S
C367 C366 1.380 . S
C367 C374 1.357 . S
C368 C359 1.511 . S
C368 C369 1.341 . S
C368 C370 1.371 . S
C369 C368 1.341 . S
C369 C373 1.394 1_565 S
C369 H385 0.930 . S
C370 C368 1.371 . S
C370 C371 1.392 1_565 S
C370 H386 0.931 . S
C371 C370 1.392 1_545 S
C371 C372 1.331 . S
C371 H389 0.932 . S
C372 C371 1.331 . S
C372 C373 1.336 . S
C373 C369 1.394 1_545 S
C373 C372 1.336 . S
C373 H388 0.929 . S
C374 C364 1.386 . S
C374 C367 1.357 . S
C374 H387 0.928 . S
H375 C351 0.931 . S
H376 C353 0.930 . S
H377 C355 0.929 . S
H378 C356 0.931 . S
H379 C358 0.930 . S
H380 C362 0.931 . S
H381 C360 0.931 . S
H382 C364 0.931 . S
H383 C365 0.929 . S
H384 C366 0.930 . S
H385 C369 0.930 . S
H386 C370 0.931 . S
H387 C374 0.928 . S
H388 C373 0.929 . S
H389 C371 0.932 . S
C390 C391 1.386 . S
C390 C392 1.397 . S
C390 H414 0.931 . S
C391 C390 1.386 . S
C391 C395 1.397 . S
C392 C390 1.397 . S
C392 C393 1.384 . S
C392 H415 0.930 . S
C393 C392 1.384 . S
C393 C394 1.377 . S
C393 C396 1.481 . S
C394 C393 1.377 . S
C394 C395 1.389 . S
C394 H416 0.929 . S
C395 C391 1.397 . S
C395 C394 1.389 . S
C395 H417 0.931 . S
C396 C393 1.481 . S
C396 C397 1.387 . S
C396 C401 1.390 . S
C397 C396 1.387 . S
C397 C398 1.401 . S
C397 H418 0.930 . S
C398 C397 1.401 . S
C398 C399 1.376 . S
C398 C407 1.511 . S
C399 C398 1.376 . S
C399 C400 1.392 . S
C399 H420 0.931 . S
C400 C399 1.392 . S
C400 C401 1.361 . S
C400 C402 1.500 . S
C401 C396 1.390 . S
C401 C400 1.361 . S
C401 H419 0.931 . S
C402 C400 1.500 . S
C402 C403 1.371 . S
C402 C404 1.365 . S
C403 C402 1.371 . S
C403 C413 1.386 . S
C403 H421 0.931 . S
C404 C402 1.365 . S
C404 C405 1.409 . S
C404 H422 0.929 . S
C405 C404 1.409 . S
C405 C406 1.380 . S
C405 H423 0.930 . S
C406 C405 1.380 . S
C406 C413 1.357 . S
C407 C398 1.511 . S
C407 C408 1.341 . S
C407 C409 1.371 . S
C408 C407 1.341 . S
C408 C412 1.394 . S
C408 H424 0.930 . S
C409 C407 1.371 . S
C409 C410 1.392 . S
C409 H425 0.931 . S
C410 C409 1.392 . S
C410 C411 1.331 . S
C410 H428 0.932 . S
C411 C410 1.331 . S
C411 C412 1.336 . S
C412 C408 1.394 . S
C412 C411 1.336 . S
C412 H427 0.929 . S
C413 C403 1.386 . S
C413 C406 1.357 . S
C413 H426 0.928 . S
H414 C390 0.931 . S
H415 C392 0.930 . S
H416 C394 0.929 . S
H417 C395 0.931 . S
H418 C397 0.930 . S
H419 C401 0.931 . S
H420 C399 0.931 . S
H421 C403 0.931 . S
H422 C404 0.929 . S
H423 C405 0.930 . S
H424 C408 0.930 . S
H425 C409 0.931 . S
H426 C413 0.928 . S
H427 C412 0.929 . S
H428 C410 0.932 . S
C429 C430 1.386 . S
C429 C431 1.397 . S
C429 H453 0.931 . S
C430 C429 1.386 . S
C430 C434 1.397 . S
C431 C429 1.397 . S
C431 C432 1.384 . S
C431 H454 0.930 . S
C432 C431 1.384 . S
C432 C433 1.377 . S
C432 C435 1.481 . S
C433 C432 1.377 . S
C433 C434 1.389 . S
C433 H455 0.929 . S
C434 C430 1.397 . S
C434 C433 1.389 . S
C434 H456 0.931 . S
C435 C432 1.481 . S
C435 C436 1.387 . S
C435 C440 1.390 . S
C436 C435 1.387 . S
C436 C437 1.401 . S
C436 H457 0.930 . S
C437 C436 1.401 . S
C437 C438 1.376 . S
C437 C446 1.511 . S
C438 C437 1.376 . S
C438 C439 1.392 . S
C438 H459 0.931 . S
C439 C438 1.392 . S
C439 C440 1.361 . S
C439 C441 1.500 . S
C440 C435 1.390 . S
C440 C439 1.361 . S
C440 H458 0.931 . S
C441 C439 1.500 . S
C441 C442 1.371 . S
C441 C443 1.365 . S
C442 C441 1.371 . S
C442 C452 1.386 . S
C442 H460 0.931 . S
C443 C441 1.365 . S
C443 C444 1.409 . S
C443 H461 0.929 . S
C444 C443 1.409 . S
C444 C445 1.380 . S
C444 H462 0.930 . S
C445 C444 1.380 . S
C445 C452 1.357 . S
C446 C437 1.511 . S
C446 C447 1.341 . S
C446 C448 1.371 . S
C447 C446 1.341 . S
C447 C451 1.394 . S
C447 H463 0.930 . S
C448 C446 1.371 . S
C448 C449 1.392 . S
C448 H464 0.931 . S
C449 C448 1.392 . S
C449 C450 1.331 . S
C449 H467 0.932 . S
C450 C449 1.331 . S
C450 C451 1.336 . S
C451 C447 1.394 . S
C451 C450 1.336 . S
C451 H466 0.929 . S
C452 C442 1.386 . S
C452 C445 1.357 . S
C452 H465 0.928 . S
H453 C429 0.931 . S
H454 C431 0.930 . S
H455 C433 0.929 . S
H456 C434 0.931 . S
H457 C436 0.930 . S
H458 C440 0.931 . S
H459 C438 0.931 . S
H460 C442 0.931 . S
H461 C443 0.929 . S
H462 C444 0.930 . S
H463 C447 0.930 . S
H464 C448 0.931 . S
H465 C452 0.928 . S
H466 C451 0.929 . S
H467 C449 0.932 . S
C468 C469 1.386 . S
C468 C470 1.397 . S
C468 H492 0.931 . S
C469 C468 1.386 . S
C469 C473 1.397 . S
C470 C468 1.397 . S
C470 C471 1.384 . S
C470 H493 0.930 . S
C471 C470 1.384 . S
C471 C472 1.377 . S
C471 C474 1.481 . S
C472 C471 1.377 . S
C472 C473 1.389 . S
C472 H494 0.929 . S
C473 C469 1.397 . S
C473 C472 1.389 . S
C473 H495 0.931 . S
C474 C471 1.481 . S
C474 C475 1.387 . S
C474 C479 1.390 . S
C475 C474 1.387 . S
C475 C476 1.401 . S
C475 H496 0.930 . S
C476 C475 1.401 . S
C476 C477 1.376 . S
C476 C485 1.511 . S
C477 C476 1.376 . S
C477 C478 1.392 . S
C477 H498 0.931 . S
C478 C477 1.392 . S
C478 C479 1.361 . S
C478 C480 1.500 . S
C479 C474 1.390 . S
C479 C478 1.361 . S
C479 H497 0.931 . S
C480 C478 1.500 . S
C480 C481 1.371 . S
C480 C482 1.365 . S
C481 C480 1.371 . S
C481 C491 1.386 . S
C481 H499 0.931 . S
C482 C480 1.365 . S
C482 C483 1.409 . S
C482 H500 0.929 . S
C483 C482 1.409 . S
C483 C484 1.380 . S
C483 H501 0.930 . S
C484 C483 1.380 . S
C484 C491 1.357 . S
C485 C476 1.511 . S
C485 C486 1.341 . S
C485 C487 1.371 . S
C486 C485 1.341 . S
C486 C490 1.394 . S
C486 H502 0.930 . S
C487 C485 1.371 . S
C487 C488 1.392 . S
C487 H503 0.931 . S
C488 C487 1.392 . S
C488 C489 1.331 . S
C488 H506 0.932 . S
C489 C488 1.331 . S
C489 C490 1.336 . S
C490 C486 1.394 . S
C490 C489 1.336 . S
C490 H505 0.929 . S
C491 C481 1.386 . S
C491 C484 1.357 . S
C491 H504 0.928 . S
H492 C468 0.931 . S
H493 C470 0.930 . S
H494 C472 0.929 . S
H495 C473 0.931 . S
H496 C475 0.930 . S
H497 C479 0.931 . S
H498 C477 0.931 . S
H499 C481 0.931 . S
H500 C482 0.929 . S
H501 C483 0.930 . S
H502 C486 0.930 . S
H503 C487 0.931 . S
H504 C491 0.928 . S
H505 C490 0.929 . S
H506 C488 0.932 . S
C507 C508 1.386 . S
C507 C509 1.397 . S
C507 H531 0.931 . S
C508 C507 1.386 . S
C508 C512 1.397 . S
C509 C507 1.397 . S
C509 C510 1.384 . S
C509 H532 0.930 . S
C510 C509 1.384 . S
C510 C511 1.377 . S
C510 C513 1.481 . S
C511 C510 1.377 . S
C511 C512 1.389 . S
C511 H533 0.929 . S
C512 C508 1.397 . S
C512 C511 1.389 . S
C512 H534 0.931 . S
C513 C510 1.481 . S
C513 C514 1.387 . S
C513 C518 1.390 . S
C514 C513 1.387 . S
C514 C515 1.401 . S
C514 H535 0.930 . S
C515 C514 1.401 . S
C515 C516 1.376 . S
C515 C524 1.511 . S
C516 C515 1.376 . S
C516 C517 1.392 . S
C516 H537 0.931 . S
C517 C516 1.392 . S
C517 C518 1.361 . S
C517 C519 1.500 . S
C518 C513 1.390 . S
C518 C517 1.361 . S
C518 H536 0.931 . S
C519 C517 1.500 . S
C519 C520 1.371 . S
C519 C521 1.365 . S
C520 C519 1.371 . S
C520 C530 1.386 . S
C520 H538 0.931 . S
C521 C519 1.365 . S
C521 C522 1.409 . S
C521 H539 0.929 . S
C522 C521 1.409 . S
C522 C523 1.380 . S
C522 H540 0.930 . S
C523 C522 1.380 . S
C523 C530 1.357 . S
C524 C515 1.511 . S
C524 C525 1.341 . S
C524 C526 1.371 . S
C525 C524 1.341 . S
C525 C529 1.394 . S
C525 H541 0.930 . S
C526 C524 1.371 . S
C526 C527 1.371 1_556 S
C526 H542 0.931 . S
C527 C526 1.371 1_554 S
C527 C528 1.333 . S
C527 H545 0.952 . S
C528 C527 1.333 . S
C528 C529 1.336 1_554 S
C529 C525 1.394 . S
C529 C528 1.336 1_556 S
C529 H544 0.929 . S
C530 C520 1.386 . S
C530 C523 1.357 . S
C530 H543 0.928 . S
H531 C507 0.931 . S
H532 C509 0.930 . S
H533 C511 0.929 . S
H534 C512 0.931 . S
H535 C514 0.930 . S
H536 C518 0.931 . S
H537 C516 0.931 . S
H538 C520 0.931 . S
H539 C521 0.929 . S
H540 C522 0.930 . S
H541 C525 0.930 . S
H542 C526 0.931 . S
H543 C530 0.928 . S
H544 C529 0.929 . S
H545 C527 0.952 . S
C546 C547 1.386 . S
C546 C548 1.397 . S
C546 H570 0.931 . S
C547 C546 1.386 . S
C547 C551 1.397 . S
C548 C546 1.397 . S
C548 C549 1.384 . S
C548 H571 0.930 . S
C549 C548 1.384 . S
C549 C550 1.377 . S
C549 C552 1.481 . S
C550 C549 1.377 . S
C550 C551 1.389 . S
C550 H572 0.929 . S
C551 C547 1.397 . S
C551 C550 1.389 . S
C551 H573 0.931 . S
C552 C549 1.481 . S
C552 C553 1.387 . S
C552 C557 1.390 . S
C553 C552 1.387 . S
C553 C554 1.401 . S
C553 H574 0.930 . S
C554 C553 1.401 . S
C554 C555 1.376 . S
C554 C563 1.511 . S
C555 C554 1.376 . S
C555 C556 1.392 . S
C555 H576 0.931 . S
C556 C555 1.392 . S
C556 C557 1.361 . S
C556 C558 1.500 . S
C557 C552 1.390 . S
C557 C556 1.361 . S
C557 H575 0.931 . S
C558 C556 1.500 . S
C558 C559 1.371 . S
C558 C560 1.365 . S
C559 C558 1.371 . S
C559 C569 1.386 . S
C559 H577 0.931 . S
C560 C558 1.365 . S
C560 C561 1.409 . S
C560 H578 0.929 . S
C561 C560 1.409 . S
C561 C562 1.380 . S
C561 H579 0.930 . S
C562 C561 1.380 . S
C562 C569 1.357 . S
C563 C554 1.511 . S
C563 C564 1.341 . S
C563 C565 1.371 . S
C564 C563 1.341 . S
C564 C568 1.394 . S
C564 H580 0.930 . S
C565 C563 1.371 . S
C565 C566 1.392 . S
C565 H581 0.931 . S
C566 C565 1.392 . S
C566 C567 1.331 . S
C566 H584 0.932 . S
C567 C566 1.331 . S
C567 C568 1.336 . S
C568 C564 1.394 . S
C568 C567 1.336 . S
C568 H583 0.929 . S
C569 C559 1.386 . S
C569 C562 1.357 . S
C569 H582 0.928 . S
H570 C546 0.931 . S
H571 C548 0.930 . S
H572 C550 0.929 . S
H573 C551 0.931 . S
H574 C553 0.930 . S
H575 C557 0.931 . S
H576 C555 0.931 . S
H577 C559 0.931 . S
H578 C560 0.929 . S
H579 C561 0.930 . S
H580 C564 0.930 . S
H581 C565 0.931 . S
H582 C569 0.928 . S
H583 C568 0.929 . S
H584 C566 0.932 . S
C585 C586 1.386 1_556 S
C585 C587 1.397 . S
C585 H609 0.931 . S
C586 C585 1.386 1_554 S
C586 C590 1.397 . S
C587 C585 1.397 . S
C587 C588 1.384 . S
C587 H610 0.930 . S
C588 C587 1.384 . S
C588 C589 1.377 1_556 S
C588 C591 1.481 . S
C589 C588 1.377 1_554 S
C589 C590 1.389 . S
C589 H611 0.929 . S
C590 C586 1.397 . S
C590 C589 1.389 . S
C590 H612 0.931 . S
C591 C588 1.481 . S
C591 C592 1.387 . S
C591 C596 1.390 . S
C592 C591 1.387 . S
C592 C593 1.401 . S
C592 H613 0.930 . S
C593 C592 1.401 . S
C593 C594 1.376 . S
C593 C602 1.511 . S
C594 C593 1.376 . S
C594 C595 1.392 . S
C594 H615 0.931 . S
C595 C594 1.392 . S
C595 C596 1.361 . S
C595 C597 1.500 . S
C596 C591 1.390 . S
C596 C595 1.361 . S
C596 H614 0.931 . S
C597 C595 1.500 . S
C597 C598 1.371 . S
C597 C599 1.365 . S
C598 C597 1.371 . S
C598 C608 1.386 . S
C598 H616 0.931 . S
C599 C597 1.365 . S
C599 C600 1.409 . S
C599 H617 0.929 . S
C600 C599 1.409 . S
C600 C601 1.399 . S
C600 H618 0.930 1_556 S
C601 C600 1.399 . S
C601 C608 1.363 . S
C602 C593 1.511 . S
C602 C603 1.341 . S
C602 C604 1.371 . S
C603 C602 1.341 . S
C603 C607 1.394 . S
C603 H619 0.930 . S
C604 C602 1.371 . S
C604 C605 1.392 . S
C604 H620 0.931 . S
C605 C604 1.392 . S
C605 C606 1.331 . S
C605 H623 0.932 . S
C606 C605 1.331 . S
C606 C607 1.336 . S
C607 C603 1.394 . S
C607 C606 1.336 . S
C607 H622 0.929 . S
C608 C598 1.386 . S
C608 C601 1.363 . S
C608 H621 0.928 1_545 S
H609 C585 0.931 . S
H610 C587 0.930 . S
H611 C589 0.929 . S
H612 C590 0.931 . S
H613 C592 0.930 . S
H614 C596 0.931 . S
H615 C594 0.931 . S
H616 C598 0.931 . S
H617 C599 0.929 . S
H618 C600 0.930 1_554 S
H619 C603 0.930 . S
H620 C604 0.931 . S
H621 C608 0.928 1_565 S
H622 C607 0.929 . S
H623 C605 0.932 . S
C624 O625 1.160 1_554 S
C624 O631 1.185 . S
O625 C624 1.160 1_556 S
O626 Zn627 1.899 1_556 S
O626 C634 1.284 . S
Zn627 O626 1.899 1_554 S
Zn627 O628 2.032 . S
Zn627 O631 2.086 . S
Zn627 O636 1.977 . S
O628 Zn627 2.032 . S
O628 C632 1.278 . S
C629 O630 1.203 . S
C629 O636 1.267 . S
O630 C629 1.203 . S
O631 C624 1.185 . S
O631 Zn627 2.086 . S
C632 O628 1.278 . S
C632 O633 1.211 . S
O633 C632 1.211 . S
C634 O626 1.284 . S
C634 O635 1.273 . S
O635 C634 1.273 . S
O636 Zn627 1.977 . S
O636 C629 1.267 . S
C637 O638 1.160 . S
C637 O644 1.185 . S
O638 C637 1.160 . S
O639 Zn640 1.899 . S
O639 C647 1.284 . S
Zn640 O639 1.899 . S
Zn640 O641 2.032 . S
Zn640 O644 2.086 . S
Zn640 O649 1.977 . S
O641 Zn640 2.032 . S
O641 C645 1.278 . S
C642 O643 1.203 . S
C642 O649 1.267 . S
O643 C642 1.203 . S
O644 C637 1.185 . S
O644 Zn640 2.086 . S
C645 O641 1.278 . S
C645 O646 1.211 . S
O646 C645 1.211 . S
C647 O639 1.284 . S
C647 O648 1.273 . S
O648 C647 1.273 . S
O649 Zn640 1.977 . S
O649 C642 1.267 . S
C650 O651 1.160 1_554 S
C650 O657 1.185 . S
O651 C650 1.160 1_556 S
O652 Zn653 1.899 1_556 S
O652 C660 1.284 . S
Zn653 O652 1.899 1_554 S
Zn653 O654 2.032 1_554 S
Zn653 O657 2.086 . S
Zn653 O662 1.977 . S
O654 Zn653 2.032 1_556 S
O654 C658 1.278 . S
C655 O656 1.203 . S
C655 O662 1.267 . S
O656 C655 1.203 . S
O657 C650 1.185 . S
O657 Zn653 2.086 . S
C658 O654 1.278 . S
C658 O659 1.211 1_556 S
O659 C658 1.211 1_554 S
C660 O652 1.284 . S
C660 O661 1.273 . S
O661 C660 1.273 . S
O662 Zn653 1.977 . S
O662 C655 1.267 . S
C663 O664 1.160 . S
C663 O670 1.185 . S
O664 C663 1.160 . S
O665 Zn666 1.899 . S
O665 C673 1.284 . S
Zn666 O665 1.899 . S
Zn666 O667 2.032 . S
Zn666 O670 2.086 . S
Zn666 O675 1.977 . S
O667 Zn666 2.032 . S
O667 C671 1.278 1_545 S
C668 O669 1.203 . S
C668 O675 1.267 . S
O669 C668 1.203 . S
O670 C663 1.185 . S
O670 Zn666 2.086 . S
C671 O667 1.278 1_565 S
C671 O672 1.211 . S
O672 C671 1.211 . S
C673 O665 1.284 . S
C673 O674 1.273 1_545 S
O674 C673 1.273 1_565 S
O675 Zn666 1.977 . S
O675 C668 1.267 . S
C676 O677 1.160 . S
C676 O683 1.185 . S
O677 C676 1.160 . S
O678 Zn679 1.899 . S
O678 C686 1.284 . S
Zn679 O678 1.899 . S
Zn679 O680 2.032 . S
Zn679 O683 2.086 . S
Zn679 O688 1.977 . S
O680 Zn679 2.032 . S
O680 C684 1.278 . S
C681 O682 1.203 . S
C681 O688 1.267 . S
O682 C681 1.203 . S
O683 C676 1.185 . S
O683 Zn679 2.086 . S
C684 O680 1.278 . S
C684 O685 1.211 . S
O685 C684 1.211 . S
C686 O678 1.284 . S
C686 O687 1.273 . S
O687 C686 1.273 . S
O688 Zn679 1.977 . S
O688 C681 1.267 . S
C689 O690 1.160 . S
C689 O696 1.185 . S
O690 C689 1.160 . S
O691 Zn692 1.899 . S
O691 C699 1.284 . S
Zn692 O691 1.899 . S
Zn692 O693 2.032 . S
Zn692 O696 2.086 . S
Zn692 O701 1.977 . S
O693 Zn692 2.032 . S
O693 C697 1.278 . S
C694 O695 1.203 . S
C694 O701 1.267 . S
O695 C694 1.203 . S
O696 C689 1.185 . S
O696 Zn692 2.086 . S
C697 O693 1.278 . S
C697 O698 1.211 . S
O698 C697 1.211 . S
C699 O691 1.284 . S
C699 O700 1.273 . S
O700 C699 1.273 . S
O701 Zn692 1.977 . S
O701 C694 1.267 . S
C702 O703 1.160 . S
C702 O709 1.185 . S
O703 C702 1.160 . S
O704 Zn705 1.899 . S
O704 C712 1.284 . S
Zn705 O704 1.899 . S
Zn705 O706 2.032 . S
Zn705 O709 2.086 . S
Zn705 O714 1.977 . S
O706 Zn705 2.032 . S
O706 C710 1.278 . S
C707 O708 1.203 . S
C707 O714 1.267 . S
O708 C707 1.203 . S
O709 C702 1.185 . S
O709 Zn705 2.086 . S
C710 O706 1.278 . S
C710 O711 1.211 . S
O711 C710 1.211 . S
C712 O704 1.284 . S
C712 O713 1.273 . S
O713 C712 1.273 . S
O714 Zn705 1.977 . S
O714 C707 1.267 . S
C715 O716 1.160 . S
C715 O722 1.185 . S
O716 C715 1.160 . S
O717 Zn718 1.899 . S
O717 C725 1.284 1_565 S
Zn718 O717 1.899 . S
Zn718 O719 2.032 1_565 S
Zn718 O722 2.086 . S
Zn718 O727 1.977 . S
O719 Zn718 2.032 1_545 S
O719 C723 1.278 . S
C720 O721 1.203 1_565 S
C720 O727 1.267 . S
O721 C720 1.203 1_545 S
O722 C715 1.185 . S
O722 Zn718 2.086 . S
C723 O719 1.278 . S
C723 O724 1.211 . S
O724 C723 1.211 . S
C725 O717 1.284 1_545 S
C725 O726 1.273 . S
O726 C725 1.273 . S
O727 Zn718 1.977 . S
O727 C720 1.267 . S
C728 O729 1.160 1_455 S
C728 O735 1.185 . S
O729 C728 1.160 1_655 S
O730 Zn731 1.899 1_655 S
O730 C738 1.284 . S
Zn731 O730 1.899 1_455 S
Zn731 O732 2.032 1_455 S
Zn731 O735 2.086 . S
Zn731 O740 1.977 . S
O732 Zn731 2.032 1_655 S
O732 C736 1.276 1_655 S
C733 O734 1.203 . S
C733 O740 1.267 . S
O734 C733 1.203 . S
O735 C728 1.185 . S
O735 Zn731 2.086 . S
C736 O732 1.276 1_455 S
C736 O737 1.218 . S
O737 C736 1.218 . S
C738 O730 1.284 . S
C738 O739 1.273 . S
O739 C738 1.273 . S
O740 Zn731 1.977 . S
O740 C733 1.267 . S
C741 O742 1.160 . S
C741 O748 1.185 . S
O742 C741 1.160 . S
O743 Zn744 1.899 . S
O743 C751 1.284 . S
Zn744 O743 1.899 . S
Zn744 O745 2.032 . S
Zn744 O748 2.086 . S
Zn744 O753 1.977 . S
O745 Zn744 2.032 . S
O745 C749 1.278 . S
C746 O747 1.203 . S
C746 O753 1.267 . S
O747 C746 1.203 . S
O748 C741 1.185 . S
O748 Zn744 2.086 . S
C749 O745 1.278 . S
C749 O750 1.211 . S
O750 C749 1.211 . S
C751 O743 1.284 . S
C751 O752 1.273 . S
O752 C751 1.273 . S
O753 Zn744 1.977 . S
O753 C746 1.267 . S
C754 O755 1.160 1_455 S
C754 O761 1.185 . S
O755 C754 1.160 1_655 S
O756 Zn757 1.899 1_655 S
O756 C764 1.284 . S
Zn757 O756 1.899 1_455 S
Zn757 O758 2.032 1_455 S
Zn757 O761 2.086 . S
Zn757 O766 1.977 . S
O758 Zn757 2.032 1_655 S
O758 C762 1.275 1_655 S
C759 O760 1.203 . S
C759 O766 1.267 . S
O760 C759 1.203 . S
O761 C754 1.185 . S
O761 Zn757 2.086 . S
C762 O758 1.275 1_455 S
C762 O763 1.217 . S
O763 C762 1.217 . S
C764 O756 1.284 . S
C764 O765 1.273 . S
O765 C764 1.273 . S
O766 Zn757 1.977 . S
O766 C759 1.267 . S
C767 O768 1.160 . S
C767 O774 1.185 . S
O768 C767 1.160 . S
O769 Zn770 1.899 . S
O769 C777 1.284 . S
Zn770 O769 1.899 . S
Zn770 O771 2.032 . S
Zn770 O774 2.086 . S
Zn770 O779 1.977 . S
O771 Zn770 2.032 . S
O771 C775 1.278 . S
C772 O773 1.203 . S
C772 O779 1.267 . S
O773 C772 1.203 . S
O774 C767 1.185 . S
O774 Zn770 2.086 . S
C775 O771 1.278 . S
C775 O776 1.211 . S
O776 C775 1.211 . S
C777 O769 1.284 . S
C777 O778 1.273 . S
O778 C777 1.273 . S
O779 Zn770 1.977 . S
O779 C772 1.267 . S
C780 C781 1.349 . S
C780 C782 1.327 . S
C780 H805 0.950 . S
C781 C780 1.349 . S
C781 C797 1.349 . S
C782 C780 1.327 . S
C782 C801 1.429 . S
C782 H806 0.950 . S
C783 C800 1.574 . S
C783 C802 1.368 . S
C783 H807 0.949 . S
H784 C788 0.949 . S
C785 C786 1.349 . S
C785 C787 1.327 . S
C785 H808 0.950 . S
C786 C785 1.349 . S
C786 C798 1.349 . S
C787 C785 1.327 . S
C787 C803 1.429 . S
C787 H809 0.950 . S
C788 H784 0.949 . S
C788 C796 1.574 . S
C788 C804 1.368 . S
H789 C797 0.950 . S
H790 C795 0.950 . S
H791 C796 0.949 . S
H792 C798 0.950 . S
H793 C799 0.950 . S
H794 C800 0.949 . S
C795 H790 0.950 . S
C795 C797 1.327 . S
C795 C801 1.429 . S
C796 C788 1.574 . S
C796 H791 0.949 . S
C796 C802 1.368 . S
C797 C781 1.349 . S
C797 H789 0.950 . S
C797 C795 1.327 . S
C798 C786 1.349 . S
C798 H792 0.950 . S
C798 C799 1.327 . S
C799 H793 0.950 . S
C799 C798 1.327 . S
C799 C803 1.429 . S
C800 C783 1.574 . S
C800 H794 0.949 . S
C800 C804 1.368 . S
C801 C782 1.429 . S
C801 C795 1.429 . S
C801 C802 1.523 . S
C802 C783 1.368 . S
C802 C796 1.368 . S
C802 C801 1.523 . S
C803 C787 1.429 . S
C803 C799 1.429 . S
C803 C804 1.523 . S
C804 C788 1.368 . S
C804 C800 1.368 . S
C804 C803 1.523 . S
H805 C780 0.950 . S
H806 C782 0.950 . S
H807 C783 0.949 . S
H808 C785 0.950 . S
H809 C787 0.950 . S
C810 C811 1.349 . S
C810 C812 1.327 . S
C810 H835 0.950 . S
C811 C810 1.349 . S
C811 C827 1.349 . S
C812 C810 1.327 . S
C812 C831 1.429 . S
C812 H836 0.950 . S
C813 C830 1.574 . S
C813 C832 1.368 . S
C813 H837 0.949 . S
H814 C818 0.949 . S
C815 C816 1.349 . S
C815 C817 1.327 . S
C815 H838 0.950 . S
C816 C815 1.349 . S
C816 C828 1.349 . S
C817 C815 1.327 . S
C817 C833 1.429 . S
C817 H839 0.950 . S
C818 H814 0.949 . S
C818 C826 1.574 . S
C818 C834 1.368 . S
H819 C827 0.950 . S
H820 C825 0.950 . S
H821 C826 0.949 . S
H822 C828 0.950 . S
H823 C829 0.950 . S
H824 C830 0.949 . S
C825 H820 0.950 . S
C825 C827 1.327 . S
C825 C831 1.429 . S
C826 C818 1.574 . S
C826 H821 0.949 . S
C826 C832 1.368 . S
C827 C811 1.349 . S
C827 H819 0.950 . S
C827 C825 1.327 . S
C828 C816 1.349 . S
C828 H822 0.950 . S
C828 C829 1.327 . S
C829 H823 0.950 . S
C829 C828 1.327 . S
C829 C833 1.429 . S
C830 C813 1.574 . S
C830 H824 0.949 . S
C830 C834 1.368 . S
C831 C812 1.429 . S
C831 C825 1.429 . S
C831 C832 1.523 . S
C832 C813 1.368 . S
C832 C826 1.368 . S
C832 C831 1.523 . S
C833 C817 1.429 . S
C833 C829 1.429 . S
C833 C834 1.523 . S
C834 C818 1.368 . S
C834 C830 1.368 . S
C834 C833 1.523 . S
H835 C810 0.950 . S
H836 C812 0.950 . S
H837 C813 0.949 . S
H838 C815 0.950 . S
H839 C817 0.950 . S
C840 C841 1.349 . S
C840 C842 1.327 . S
C840 H865 0.950 . S
C841 C840 1.349 . S
C841 C857 1.349 . S
C842 C840 1.327 . S
C842 C861 1.429 . S
C842 H866 0.950 . S
C843 C860 1.574 . S
C843 C862 1.368 . S
C843 H867 0.949 . S
H844 C848 0.949 . S
C845 C846 1.349 . S
C845 C847 1.327 . S
C845 H868 0.950 . S
C846 C845 1.349 . S
C846 C858 1.349 . S
C847 C845 1.327 . S
C847 C863 1.429 . S
C847 H869 0.950 . S
C848 H844 0.949 . S
C848 C856 1.574 . S
C848 C864 1.368 . S
H849 C857 0.950 . S
H850 C855 0.950 . S
H851 C856 0.949 . S
H852 C858 0.950 . S
H853 C859 0.950 . S
H854 C860 0.949 . S
C855 H850 0.950 . S
C855 C857 1.327 . S
C855 C861 1.429 . S
C856 C848 1.574 . S
C856 H851 0.949 . S
C856 C862 1.368 . S
C857 C841 1.349 . S
C857 H849 0.950 . S
C857 C855 1.327 . S
C858 C846 1.349 . S
C858 H852 0.950 . S
C858 C859 1.327 . S
C859 H853 0.950 . S
C859 C858 1.327 . S
C859 C863 1.429 . S
C860 C843 1.574 . S
C860 H854 0.949 . S
C860 C864 1.368 . S
C861 C842 1.429 . S
C861 C855 1.429 . S
C861 C862 1.523 . S
C862 C843 1.368 . S
C862 C856 1.368 . S
C862 C861 1.523 . S
C863 C847 1.429 . S
C863 C859 1.429 . S
C863 C864 1.523 . S
C864 C848 1.368 . S
C864 C860 1.368 . S
C864 C863 1.523 . S
H865 C840 0.950 . S
H866 C842 0.950 . S
H867 C843 0.949 . S
H868 C845 0.950 . S
H869 C847 0.950 . S
C870 C871 1.349 . S
C870 C872 1.327 . S
C870 H895 0.950 . S
C871 C870 1.349 . S
C871 C887 1.338 1_565 S
C872 C870 1.327 . S
C872 C891 1.429 . S
C872 H896 0.950 . S
C873 C890 1.574 . S
C873 C892 1.368 1_545 S
C873 H897 0.949 . S
H874 C878 0.949 . S
C875 C876 1.349 . S
C875 C877 1.327 . S
C875 H898 0.950 . S
C876 C875 1.349 . S
C876 C888 1.349 1_545 S
C877 C875 1.327 . S
C877 C893 1.429 . S
C877 H899 0.950 . S
C878 H874 0.949 . S
C878 C886 1.574 . S
C878 C894 1.388 . S
H879 C887 0.958 . S
H880 C885 0.950 . S
H881 C886 0.949 . S
H882 C888 0.950 . S
H883 C889 0.950 . S
H884 C890 0.949 . S
C885 H880 0.950 . S
C885 C887 1.330 . S
C885 C891 1.429 1_545 S
C886 C878 1.574 . S
C886 H881 0.949 . S
C886 C892 1.368 . S
C887 C871 1.338 1_545 S
C887 H879 0.958 . S
C887 C885 1.330 . S
C888 C876 1.349 1_565 S
C888 H882 0.950 . S
C888 C889 1.327 . S
C889 H883 0.950 . S
C889 C888 1.327 . S
C889 C893 1.429 1_565 S
C890 C873 1.574 . S
C890 H884 0.949 . S
C890 C894 1.352 1_545 S
C891 C872 1.429 . S
C891 C885 1.429 1_565 S
C891 C892 1.523 . S
C892 C873 1.368 1_565 S
C892 C886 1.368 . S
C892 C891 1.523 . S
C893 C877 1.429 . S
C893 C889 1.429 1_545 S
C893 C894 1.519 1_545 S
C894 C878 1.388 . S
C894 C890 1.352 1_565 S
C894 C893 1.519 1_565 S
H895 C870 0.950 . S
H896 C872 0.950 . S
H897 C873 0.949 . S
H898 C875 0.950 . S
H899 C877 0.950 . S
C900 C901 1.349 . S
C900 C902 1.327 . S
C900 H925 0.950 . S
C901 C900 1.349 . S
C901 C917 1.349 . S
C902 C900 1.327 . S
C902 C921 1.429 . S
C902 H926 0.950 . S
C903 C920 1.574 . S
C903 C922 1.368 . S
C903 H927 0.949 . S
H904 C908 0.949 . S
C905 C906 1.349 . S
C905 C907 1.327 . S
C905 H928 0.950 . S
C906 C905 1.349 . S
C906 C918 1.349 . S
C907 C905 1.327 . S
C907 C923 1.429 . S
C907 H929 0.950 . S
C908 H904 0.949 . S
C908 C916 1.574 . S
C908 C924 1.368 . S
H909 C917 0.950 . S
H910 C915 0.950 . S
H911 C916 0.949 . S
H912 C918 0.950 . S
H913 C919 0.950 . S
H914 C920 0.949 . S
C915 H910 0.950 . S
C915 C917 1.327 . S
C915 C921 1.429 . S
C916 C908 1.574 . S
C916 H911 0.949 . S
C916 C922 1.368 . S
C917 C901 1.349 . S
C917 H909 0.950 . S
C917 C915 1.327 . S
C918 C906 1.349 . S
C918 H912 0.950 . S
C918 C919 1.327 . S
C919 H913 0.950 . S
C919 C918 1.327 . S
C919 C923 1.429 . S
C920 C903 1.574 . S
C920 H914 0.949 . S
C920 C924 1.368 . S
C921 C902 1.429 . S
C921 C915 1.429 . S
C921 C922 1.523 . S
C922 C903 1.368 . S
C922 C916 1.368 . S
C922 C921 1.523 . S
C923 C907 1.429 . S
C923 C919 1.429 . S
C923 C924 1.523 . S
C924 C908 1.368 . S
C924 C920 1.368 . S
C924 C923 1.523 . S
H925 C900 0.950 . S
H926 C902 0.950 . S
H927 C903 0.949 . S
H928 C905 0.950 . S
H929 C907 0.950 . S
C930 C931 1.349 . S
C930 C932 1.327 . S
C930 H955 0.950 . S
C931 C930 1.349 . S
C931 C947 1.349 . S
C932 C930 1.327 . S
C932 C951 1.429 . S
C932 H956 0.950 . S
C933 C950 1.574 . S
C933 C952 1.368 . S
C933 H957 0.949 . S
H934 C938 0.949 . S
C935 C936 1.349 . S
C935 C937 1.327 . S
C935 H958 0.950 . S
C936 C935 1.349 . S
C936 C948 1.349 . S
C937 C935 1.327 . S
C937 C953 1.429 . S
C937 H959 0.950 . S
C938 H934 0.949 . S
C938 C946 1.574 . S
C938 C954 1.368 . S
H939 C947 0.950 . S
H940 C945 0.950 . S
H941 C946 0.949 . S
H942 C948 0.950 . S
H943 C949 0.950 . S
H944 C950 0.949 . S
C945 H940 0.950 . S
C945 C947 1.327 . S
C945 C951 1.429 . S
C946 C938 1.574 . S
C946 H941 0.949 . S
C946 C952 1.368 . S
C947 C931 1.349 . S
C947 H939 0.950 . S
C947 C945 1.327 . S
C948 C936 1.349 . S
C948 H942 0.950 . S
C948 C949 1.327 . S
C949 H943 0.950 . S
C949 C948 1.327 . S
C949 C953 1.429 . S
C950 C933 1.574 . S
C950 H944 0.949 . S
C950 C954 1.368 . S
C951 C932 1.429 . S
C951 C945 1.429 . S
C951 C952 1.523 . S
C952 C933 1.368 . S
C952 C946 1.368 . S
C952 C951 1.523 . S
C953 C937 1.429 . S
C953 C949 1.429 . S
C953 C954 1.523 . S
C954 C938 1.368 . S
C954 C950 1.368 . S
C954 C953 1.523 . S
H955 C930 0.950 . S
H956 C932 0.950 . S
H957 C933 0.949 . S
H958 C935 0.950 . S
H959 C937 0.950 . S
C960 C961 1.349 . S
C960 C962 1.327 . S
C960 H985 0.950 . S
C961 C960 1.349 . S
C961 C977 1.349 . S
C962 C960 1.327 . S
C962 C981 1.429 . S
C962 H986 0.950 . S
C963 C980 1.574 . S
C963 C982 1.368 . S
C963 H987 0.949 . S
H964 C968 0.949 . S
C965 C966 1.349 . S
C965 C967 1.327 . S
C965 H988 0.950 . S
C966 C965 1.349 . S
C966 C978 1.349 . S
C967 C965 1.327 . S
C967 C983 1.429 . S
C967 H989 0.950 . S
C968 H964 0.949 . S
C968 C976 1.574 . S
C968 C984 1.368 . S
H969 C977 0.950 . S
H970 C975 0.950 . S
H971 C976 0.949 . S
H972 C978 0.950 . S
H973 C979 0.950 . S
H974 C980 0.949 . S
C975 H970 0.950 . S
C975 C977 1.327 . S
C975 C981 1.429 . S
C976 C968 1.574 . S
C976 H971 0.949 . S
C976 C982 1.368 . S
C977 C961 1.349 . S
C977 H969 0.950 . S
C977 C975 1.327 . S
C978 C966 1.349 . S
C978 H972 0.950 . S
C978 C979 1.327 . S
C979 H973 0.950 . S
C979 C978 1.327 . S
C979 C983 1.429 . S
C980 C963 1.574 . S
C980 H974 0.949 . S
C980 C984 1.368 . S
C981 C962 1.429 . S
C981 C975 1.429 . S
C981 C982 1.523 . S
C982 C963 1.368 . S
C982 C976 1.368 . S
C982 C981 1.523 . S
C983 C967 1.429 . S
C983 C979 1.429 . S
C983 C984 1.523 . S
C984 C968 1.368 . S
C984 C980 1.368 . S
C984 C983 1.523 . S
H985 C960 0.950 . S
H986 C962 0.950 . S
H987 C963 0.949 . S
H988 C965 0.950 . S
H989 C967 0.950 . S
C990 C991 1.349 . S
C990 C992 1.327 . S
C990 H1015 0.950 . S
C991 C990 1.349 . S
C991 C1007 1.349 . S
C992 C990 1.327 . S
C992 C1011 1.429 . S
C992 H1016 0.950 . S
C993 C1010 1.570 1_565 S
C993 C1012 1.426 . S
C993 H1017 0.904 1_565 S
H994 C998 0.949 . S
C995 C996 1.349 1_545 S
C995 C997 1.327 . S
C995 H1018 0.950 . S
C996 C995 1.349 1_565 S
C996 C1008 1.349 . S
C997 C995 1.327 . S
C997 C1013 1.429 1_545 S
C997 H1019 0.950 . S
C998 H994 0.949 . S
C998 C1006 1.574 . S
C998 C1014 1.368 . S
H999 C1007 0.946 . S
H1000 C1005 0.950 1_545 S
H1001 C1006 0.949 . S
H1002 C1008 0.950 . S
H1003 C1009 0.950 . S
H1004 C1010 0.949 . S
C1005 H1000 0.950 1_565 S
C1005 C1007 1.327 . S
C1005 C1011 1.429 . S
C1006 C998 1.574 . S
C1006 H1001 0.949 . S
C1006 C1012 1.368 . S
C1007 C991 1.349 . S
C1007 H999 0.946 . S
C1007 C1005 1.327 . S
C1008 C996 1.349 . S
C1008 H1002 0.950 . S
C1008 C1009 1.327 . S
C1009 H1003 0.950 . S
C1009 C1008 1.327 . S
C1009 C1013 1.429 . S
C1010 C993 1.570 1_545 S
C1010 H1004 0.949 . S
C1010 C1014 1.368 1_545 S
C1011 C992 1.429 . S
C1011 C1005 1.429 . S
C1011 C1012 1.523 . S
C1012 C993 1.426 . S
C1012 C1006 1.368 . S
C1012 C1011 1.523 . S
C1013 C997 1.429 1_565 S
C1013 C1009 1.429 . S
C1013 C1014 1.523 . S
C1014 C998 1.368 . S
C1014 C1010 1.368 1_565 S
C1014 C1013 1.523 . S
H1015 C990 0.950 . S
H1016 C992 0.950 . S
H1017 C993 0.904 1_545 S
H1018 C995 0.950 . S
H1019 C997 0.950 . S
C1020 C1021 1.349 . S
C1020 C1022 1.327 . S
C1020 H1045 0.950 . S
C1021 C1020 1.349 . S
C1021 C1037 1.349 . S
C1022 C1020 1.327 . S
C1022 C1041 1.429 . S
C1022 H1046 0.950 . S
C1023 C1040 1.574 . S
C1023 C1042 1.368 . S
C1023 H1047 0.949 . S
H1024 C1028 0.949 . S
C1025 C1026 1.349 . S
C1025 C1027 1.327 . S
C1025 H1048 0.950 . S
C1026 C1025 1.349 . S
C1026 C1038 1.349 . S
C1027 C1025 1.327 . S
C1027 C1043 1.429 . S
C1027 H1049 0.950 . S
C1028 H1024 0.949 . S
C1028 C1036 1.574 . S
C1028 C1044 1.368 . S
H1029 C1037 0.950 . S
H1030 C1035 0.950 . S
H1031 C1036 0.949 . S
H1032 C1038 0.950 . S
H1033 C1039 0.950 . S
H1034 C1040 0.949 . S
C1035 H1030 0.950 . S
C1035 C1037 1.327 . S
C1035 C1041 1.429 . S
C1036 C1028 1.574 . S
C1036 H1031 0.949 . S
C1036 C1042 1.368 . S
C1037 C1021 1.349 . S
C1037 H1029 0.950 . S
C1037 C1035 1.327 . S
C1038 C1026 1.349 . S
C1038 H1032 0.950 . S
C1038 C1039 1.327 . S
C1039 H1033 0.950 . S
C1039 C1038 1.327 . S
C1039 C1043 1.429 . S
C1040 C1023 1.574 . S
C1040 H1034 0.949 . S
C1040 C1044 1.368 . S
C1041 C1022 1.429 . S
C1041 C1035 1.429 . S
C1041 C1042 1.523 . S
C1042 C1023 1.368 . S
C1042 C1036 1.368 . S
C1042 C1041 1.523 . S
C1043 C1027 1.429 . S
C1043 C1039 1.429 . S
C1043 C1044 1.523 . S
C1044 C1028 1.368 . S
C1044 C1040 1.368 . S
C1044 C1043 1.523 . S
H1045 C1020 0.950 . S
H1046 C1022 0.950 . S
H1047 C1023 0.949 . S
H1048 C1025 0.950 . S
H1049 C1027 0.950 . S
C1050 C1051 1.349 . S
C1050 C1052 1.327 . S
C1050 H1075 0.950 . S
C1051 C1050 1.349 . S
C1051 C1067 1.349 . S
C1052 C1050 1.327 . S
C1052 C1071 1.429 . S
C1052 H1076 0.950 . S
C1053 C1070 1.574 . S
C1053 C1072 1.368 . S
C1053 H1077 0.949 . S
H1054 C1058 0.949 . S
C1055 C1056 1.349 . S
C1055 C1057 1.327 . S
C1055 H1078 0.950 . S
C1056 C1055 1.349 . S
C1056 C1068 1.349 . S
C1057 C1055 1.327 . S
C1057 C1073 1.429 . S
C1057 H1079 0.950 . S
C1058 H1054 0.949 . S
C1058 C1066 1.574 . S
C1058 C1074 1.368 . S
H1059 C1067 0.950 . S
H1060 C1065 0.950 . S
H1061 C1066 0.949 . S
H1062 C1068 0.950 . S
H1063 C1069 0.950 . S
H1064 C1070 0.949 . S
C1065 H1060 0.950 . S
C1065 C1067 1.327 . S
C1065 C1071 1.429 . S
C1066 C1058 1.574 . S
C1066 H1061 0.949 . S
C1066 C1072 1.368 . S
C1067 C1051 1.349 . S
C1067 H1059 0.950 . S
C1067 C1065 1.327 . S
C1068 C1056 1.349 . S
C1068 H1062 0.950 . S
C1068 C1069 1.327 . S
C1069 H1063 0.950 . S
C1069 C1068 1.327 . S
C1069 C1073 1.429 . S
C1070 C1053 1.574 . S
C1070 H1064 0.949 . S
C1070 C1074 1.368 . S
C1071 C1052 1.429 . S
C1071 C1065 1.429 . S
C1071 C1072 1.523 . S
C1072 C1053 1.368 . S
C1072 C1066 1.368 . S
C1072 C1071 1.523 . S
C1073 C1057 1.429 . S
C1073 C1069 1.429 . S
C1073 C1074 1.523 . S
C1074 C1058 1.368 . S
C1074 C1070 1.368 . S
C1074 C1073 1.523 . S
H1075 C1050 0.950 . S
H1076 C1052 0.950 . S
H1077 C1053 0.949 . S
H1078 C1055 0.950 . S
H1079 C1057 0.950 . S
C1080 C1081 1.349 . S
C1080 C1082 1.327 . S
C1080 H1105 0.950 . S
C1081 C1080 1.349 . S
C1081 C1097 1.349 . S
C1082 C1080 1.327 . S
C1082 C1101 1.429 . S
C1082 H1106 0.950 . S
C1083 C1100 1.574 . S
C1083 C1102 1.368 . S
C1083 H1107 0.949 . S
H1084 C1088 0.949 . S
C1085 C1086 1.349 . S
C1085 C1087 1.327 . S
C1085 H1108 0.950 . S
C1086 C1085 1.349 . S
C1086 C1098 1.349 . S
C1087 C1085 1.327 . S
C1087 C1103 1.429 . S
C1087 H1109 0.950 . S
C1088 H1084 0.949 . S
C1088 C1096 1.574 . S
C1088 C1104 1.368 . S
H1089 C1097 0.950 . S
H1090 C1095 0.950 . S
H1091 C1096 0.949 . S
H1092 C1098 0.950 . S
H1093 C1099 0.950 . S
H1094 C1100 0.949 . S
C1095 H1090 0.950 . S
C1095 C1097 1.327 . S
C1095 C1101 1.429 . S
C1096 C1088 1.574 . S
C1096 H1091 0.949 . S
C1096 C1102 1.368 . S
C1097 C1081 1.349 . S
C1097 H1089 0.950 . S
C1097 C1095 1.327 . S
C1098 C1086 1.349 . S
C1098 H1092 0.950 . S
C1098 C1099 1.327 . S
C1099 H1093 0.950 . S
C1099 C1098 1.327 . S
C1099 C1103 1.429 . S
C1100 C1083 1.574 . S
C1100 H1094 0.949 . S
C1100 C1104 1.368 . S
C1101 C1082 1.429 . S
C1101 C1095 1.429 . S
C1101 C1102 1.523 . S
C1102 C1083 1.368 . S
C1102 C1096 1.368 . S
C1102 C1101 1.523 . S
C1103 C1087 1.429 . S
C1103 C1099 1.429 . S
C1103 C1104 1.523 . S
C1104 C1088 1.368 . S
C1104 C1100 1.368 . S
C1104 C1103 1.523 . S
H1105 C1080 0.950 . S
H1106 C1082 0.950 . S
H1107 C1083 0.949 . S
H1108 C1085 0.950 . S
H1109 C1087 0.950 . S
C1110 C1111 1.349 . S
C1110 C1112 1.327 . S
C1110 H1135 0.950 . S
C1111 C1110 1.349 . S
C1111 C1127 1.349 . S
C1112 C1110 1.327 . S
C1112 C1131 1.429 . S
C1112 H1136 0.950 . S
C1113 C1130 1.574 . S
C1113 C1132 1.368 . S
C1113 H1137 0.949 . S
H1114 C1118 0.949 . S
C1115 C1116 1.349 . S
C1115 C1117 1.327 . S
C1115 H1138 0.950 . S
C1116 C1115 1.349 . S
C1116 C1128 1.349 . S
C1117 C1115 1.327 . S
C1117 C1133 1.429 . S
C1117 H1139 0.950 . S
C1118 H1114 0.949 . S
C1118 C1126 1.574 . S
C1118 C1134 1.368 . S
H1119 C1127 0.950 . S
H1120 C1125 0.950 . S
H1121 C1126 0.949 . S
H1122 C1128 0.950 . S
H1123 C1129 0.950 . S
H1124 C1130 0.949 . S
C1125 H1120 0.950 . S
C1125 C1127 1.327 . S
C1125 C1131 1.429 . S
C1126 C1118 1.574 . S
C1126 H1121 0.949 . S
C1126 C1132 1.368 . S
C1127 C1111 1.349 . S
C1127 H1119 0.950 . S
C1127 C1125 1.327 . S
C1128 C1116 1.349 . S
C1128 H1122 0.950 . S
C1128 C1129 1.327 . S
C1129 H1123 0.950 . S
C1129 C1128 1.327 . S
C1129 C1133 1.429 . S
C1130 C1113 1.574 . S
C1130 H1124 0.949 . S
C1130 C1134 1.368 . S
C1131 C1112 1.429 . S
C1131 C1125 1.429 . S
C1131 C1132 1.523 . S
C1132 C1113 1.368 . S
C1132 C1126 1.368 . S
C1132 C1131 1.523 . S
C1133 C1117 1.429 . S
C1133 C1129 1.429 . S
C1133 C1134 1.523 . S
C1134 C1118 1.368 . S
C1134 C1130 1.368 . S
C1134 C1133 1.523 . S
H1135 C1110 0.950 . S
H1136 C1112 0.950 . S
H1137 C1113 0.949 . S
H1138 C1115 0.950 . S
H1139 C1117 0.950 . S
C1140 C1141 1.349 . S
C1140 C1142 1.327 . S
C1140 H1165 0.950 . S
C1141 C1140 1.349 . S
C1141 C1157 1.349 . S
C1142 C1140 1.327 . S
C1142 C1161 1.429 . S
C1142 H1166 0.950 . S
C1143 C1160 1.574 . S
C1143 C1162 1.368 . S
C1143 H1167 0.949 . S
H1144 C1148 0.949 . S
C1145 C1146 1.349 . S
C1145 C1147 1.327 . S
C1145 H1168 0.950 . S
C1146 C1145 1.349 . S
C1146 C1158 1.349 . S
C1147 C1145 1.327 . S
C1147 C1163 1.429 . S
C1147 H1169 0.950 . S
C1148 H1144 0.949 . S
C1148 C1156 1.574 . S
C1148 C1164 1.368 . S
H1149 C1157 0.950 . S
H1150 C1155 0.950 . S
H1151 C1156 0.949 . S
H1152 C1158 0.950 . S
H1153 C1159 0.950 . S
H1154 C1160 0.949 . S
C1155 H1150 0.950 . S
C1155 C1157 1.327 . S
C1155 C1161 1.429 . S
C1156 C1148 1.574 . S
C1156 H1151 0.949 . S
C1156 C1162 1.368 . S
C1157 C1141 1.349 . S
C1157 H1149 0.950 . S
C1157 C1155 1.327 . S
C1158 C1146 1.349 . S
C1158 H1152 0.950 . S
C1158 C1159 1.327 . S
C1159 H1153 0.950 . S
C1159 C1158 1.327 . S
C1159 C1163 1.429 . S
C1160 C1143 1.574 . S
C1160 H1154 0.949 . S
C1160 C1164 1.368 . S
C1161 C1142 1.429 . S
C1161 C1155 1.429 . S
C1161 C1162 1.523 . S
C1162 C1143 1.368 . S
C1162 C1156 1.368 . S
C1162 C1161 1.523 . S
C1163 C1147 1.429 . S
C1163 C1159 1.429 . S
C1163 C1164 1.523 . S
C1164 C1148 1.368 . S
C1164 C1160 1.368 . S
C1164 C1163 1.523 . S
H1165 C1140 0.950 . S
H1166 C1142 0.950 . S
H1167 C1143 0.949 . S
H1168 C1145 0.950 . S
H1169 C1147 0.950 . S
C1170 C1171 1.349 . S
C1170 C1172 1.327 . S
C1170 H1195 0.950 . S
C1171 C1170 1.349 . S
C1171 C1187 1.349 . S
C1172 C1170 1.327 . S
C1172 C1191 1.429 . S
C1172 H1196 0.950 . S
C1173 C1190 1.574 . S
C1173 C1192 1.368 . S
C1173 H1197 0.949 . S
H1174 C1178 0.949 . S
C1175 C1176 1.349 . S
C1175 C1177 1.327 . S
C1175 H1198 0.950 1_455 S
C1176 C1175 1.349 . S
C1176 C1188 1.349 . S
C1177 C1175 1.327 . S
C1177 C1193 1.429 . S
C1177 H1199 0.950 . S
C1178 H1174 0.949 . S
C1178 C1186 1.574 . S
C1178 C1194 1.368 . S
H1179 C1187 0.950 . S
H1180 C1185 0.950 . S
H1181 C1186 0.949 . S
H1182 C1188 0.950 . S
H1183 C1189 0.950 . S
H1184 C1190 0.949 . S
C1185 H1180 0.950 . S
C1185 C1187 1.327 . S
C1185 C1191 1.429 . S
C1186 C1178 1.574 . S
C1186 H1181 0.949 . S
C1186 C1192 1.368 . S
C1187 C1171 1.349 . S
C1187 H1179 0.950 . S
C1187 C1185 1.327 . S
C1188 C1176 1.349 . S
C1188 H1182 0.950 . S
C1188 C1189 1.327 . S
C1189 H1183 0.950 . S
C1189 C1188 1.327 . S
C1189 C1193 1.429 . S
C1190 C1173 1.574 . S
C1190 H1184 0.949 . S
C1190 C1194 1.368 . S
C1191 C1172 1.429 . S
C1191 C1185 1.429 . S
C1191 C1192 1.523 . S
C1192 C1173 1.368 . S
C1192 C1186 1.368 . S
C1192 C1191 1.523 . S
C1193 C1177 1.429 . S
C1193 C1189 1.429 . S
C1193 C1194 1.523 . S
C1194 C1178 1.368 . S
C1194 C1190 1.368 . S
C1194 C1193 1.523 . S
H1195 C1170 0.950 . S
H1196 C1172 0.950 . S
H1197 C1173 0.949 . S
H1198 C1175 0.950 1_655 S
H1199 C1177 0.950 . S
C1200 C1201 1.349 . S
C1200 C1202 1.327 . S
C1200 H1225 0.950 . S
C1201 C1200 1.349 . S
C1201 C1217 1.349 . S
C1202 C1200 1.327 . S
C1202 C1221 1.429 . S
C1202 H1226 0.950 . S
C1203 C1220 1.574 . S
C1203 C1222 1.368 . S
C1203 H1227 0.949 . S
H1204 C1208 0.949 . S
C1205 C1206 1.349 . S
C1205 C1207 1.327 . S
C1205 H1228 0.950 . S
C1206 C1205 1.349 . S
C1206 C1218 1.349 . S
C1207 C1205 1.327 . S
C1207 C1223 1.429 . S
C1207 H1229 0.950 . S
C1208 H1204 0.949 . S
C1208 C1216 1.574 . S
C1208 C1224 1.368 . S
H1209 C1217 0.950 . S
H1210 C1215 0.950 . S
H1211 C1216 0.949 . S
H1212 C1218 0.950 . S
H1213 C1219 0.950 . S
H1214 C1220 0.949 . S
C1215 H1210 0.950 . S
C1215 C1217 1.327 . S
C1215 C1221 1.429 . S
C1216 C1208 1.574 . S
C1216 H1211 0.949 . S
C1216 C1222 1.368 . S
C1217 C1201 1.349 . S
C1217 H1209 0.950 . S
C1217 C1215 1.327 . S
C1218 C1206 1.349 . S
C1218 H1212 0.950 . S
C1218 C1219 1.327 . S
C1219 H1213 0.950 . S
C1219 C1218 1.327 . S
C1219 C1223 1.429 . S
C1220 C1203 1.574 . S
C1220 H1214 0.949 . S
C1220 C1224 1.368 . S
C1221 C1202 1.429 . S
C1221 C1215 1.429 . S
C1221 C1222 1.523 . S
C1222 C1203 1.368 . S
C1222 C1216 1.368 . S
C1222 C1221 1.523 . S
C1223 C1207 1.429 . S
C1223 C1219 1.429 . S
C1223 C1224 1.523 . S
C1224 C1208 1.368 . S
C1224 C1220 1.368 . S
C1224 C1223 1.523 . S
H1225 C1200 0.950 . S
H1226 C1202 0.950 . S
H1227 C1203 0.949 . S
H1228 C1205 0.950 . S
H1229 C1207 0.950 . S
C1230 C1231 1.349 . S
C1230 C1232 1.327 . S
C1230 H1255 0.950 . S
C1231 C1230 1.349 . S
C1231 C1247 1.349 . S
C1232 C1230 1.327 . S
C1232 C1251 1.429 . S
C1232 H1256 0.950 . S
C1233 C1250 1.580 . S
C1233 C1252 1.368 . S
C1233 H1257 0.949 1_655 S
H1234 C1238 0.949 . S
C1235 C1236 1.349 1_455 S
C1235 C1237 1.327 . S
C1235 H1258 0.950 . S
C1236 C1235 1.349 1_655 S
C1236 C1248 1.349 . S
C1237 C1235 1.327 . S
C1237 C1253 1.429 1_455 S
C1237 H1259 0.950 . S
C1238 H1234 0.949 . S
C1238 C1246 1.574 . S
C1238 C1254 1.368 . S
H1239 C1247 0.950 . S
H1240 C1245 0.952 . S
H1241 C1246 0.949 . S
H1242 C1248 0.950 . S
H1243 C1249 0.950 . S
H1244 C1250 0.912 1_455 S
C1245 H1240 0.952 . S
C1245 C1247 1.327 . S
C1245 C1251 1.429 . S
C1246 C1238 1.574 . S
C1246 H1241 0.949 . S
C1246 C1252 1.368 . S
C1247 C1231 1.349 . S
C1247 H1239 0.950 . S
C1247 C1245 1.327 . S
C1248 C1236 1.349 . S
C1248 H1242 0.950 . S
C1248 C1249 1.327 . S
C1249 H1243 0.950 . S
C1249 C1248 1.327 . S
C1249 C1253 1.429 . S
C1250 C1233 1.580 . S
C1250 H1244 0.912 1_655 S
C1250 C1254 1.405 . S
C1251 C1232 1.429 . S
C1251 C1245 1.429 . S
C1251 C1252 1.523 . S
C1252 C1233 1.368 . S
C1252 C1246 1.368 . S
C1252 C1251 1.523 . S
C1253 C1237 1.429 1_655 S
C1253 C1249 1.429 . S
C1253 C1254 1.523 . S
C1254 C1238 1.368 . S
C1254 C1250 1.405 . S
C1254 C1253 1.523 . S
H1255 C1230 0.950 . S
H1256 C1232 0.950 . S
H1257 C1233 0.949 1_455 S
H1258 C1235 0.950 . S
H1259 C1237 0.950 . S
C1260 C1261 1.349 . S
C1260 C1262 1.327 . S
C1260 H1285 0.950 . S
C1261 C1260 1.349 . S
C1261 C1277 1.349 . S
C1262 C1260 1.327 . S
C1262 C1281 1.429 . S
C1262 H1286 0.950 . S
C1263 C1280 1.574 . S
C1263 C1282 1.368 . S
C1263 H1287 0.949 . S
H1264 C1268 0.949 . S
C1265 C1266 1.349 . S
C1265 C1267 1.327 . S
C1265 H1288 0.950 . S
C1266 C1265 1.349 . S
C1266 C1278 1.349 . S
C1267 C1265 1.327 . S
C1267 C1283 1.429 . S
C1267 H1289 0.950 . S
C1268 H1264 0.949 . S
C1268 C1276 1.574 . S
C1268 C1284 1.368 . S
H1269 C1277 0.950 . S
H1270 C1275 0.950 . S
H1271 C1276 0.949 . S
H1272 C1278 0.950 . S
H1273 C1279 0.950 . S
H1274 C1280 0.949 . S
C1275 H1270 0.950 . S
C1275 C1277 1.327 . S
C1275 C1281 1.429 . S
C1276 C1268 1.574 . S
C1276 H1271 0.949 . S
C1276 C1282 1.368 . S
C1277 C1261 1.349 . S
C1277 H1269 0.950 . S
C1277 C1275 1.327 . S
C1278 C1266 1.349 . S
C1278 H1272 0.950 . S
C1278 C1279 1.327 . S
C1279 H1273 0.950 . S
C1279 C1278 1.327 . S
C1279 C1283 1.429 . S
C1280 C1263 1.574 . S
C1280 H1274 0.949 . S
C1280 C1284 1.368 . S
C1281 C1262 1.429 . S
C1281 C1275 1.429 . S
C1281 C1282 1.523 . S
C1282 C1263 1.368 . S
C1282 C1276 1.368 . S
C1282 C1281 1.523 . S
C1283 C1267 1.429 . S
C1283 C1279 1.429 . S
C1283 C1284 1.523 . S
C1284 C1268 1.368 . S
C1284 C1280 1.368 . S
C1284 C1283 1.523 . S
H1285 C1260 0.950 . S
H1286 C1262 0.950 . S
H1287 C1263 0.949 . S
H1288 C1265 0.950 . S
H1289 C1267 0.950 . S
C1290 C1291 1.349 . S
C1290 C1292 1.327 . S
C1290 H1315 0.950 . S
C1291 C1290 1.349 . S
C1291 C1307 1.349 . S
C1292 C1290 1.327 . S
C1292 C1311 1.429 . S
C1292 H1316 0.950 . S
C1293 C1310 1.574 . S
C1293 C1312 1.368 . S
C1293 H1317 0.949 . S
H1294 C1298 0.949 . S
C1295 C1296 1.349 . S
C1295 C1297 1.327 . S
C1295 H1318 0.950 . S
C1296 C1295 1.349 . S
C1296 C1308 1.349 . S
C1297 C1295 1.327 . S
C1297 C1313 1.429 . S
C1297 H1319 0.950 . S
C1298 H1294 0.949 . S
C1298 C1306 1.574 . S
C1298 C1314 1.368 . S
H1299 C1307 0.950 . S
H1300 C1305 0.950 . S
H1301 C1306 0.949 . S
H1302 C1308 0.950 . S
H1303 C1309 0.950 . S
H1304 C1310 0.949 . S
C1305 H1300 0.950 . S
C1305 C1307 1.327 . S
C1305 C1311 1.429 . S
C1306 C1298 1.574 . S
C1306 H1301 0.949 . S
C1306 C1312 1.368 . S
C1307 C1291 1.349 . S
C1307 H1299 0.950 . S
C1307 C1305 1.327 . S
C1308 C1296 1.349 . S
C1308 H1302 0.950 . S
C1308 C1309 1.327 . S
C1309 H1303 0.950 . S
C1309 C1308 1.327 . S
C1309 C1313 1.429 . S
C1310 C1293 1.574 . S
C1310 H1304 0.949 . S
C1310 C1314 1.368 . S
C1311 C1292 1.429 . S
C1311 C1305 1.429 . S
C1311 C1312 1.523 . S
C1312 C1293 1.368 . S
C1312 C1306 1.368 . S
C1312 C1311 1.523 . S
C1313 C1297 1.429 . S
C1313 C1309 1.429 . S
C1313 C1314 1.523 . S
C1314 C1298 1.368 . S
C1314 C1310 1.368 . S
C1314 C1313 1.523 . S
H1315 C1290 0.950 . S
H1316 C1292 0.950 . S
H1317 C1293 0.949 . S
H1318 C1295 0.950 . S
H1319 C1297 0.950 . S
C1320 C1321 1.349 . S
C1320 C1322 1.327 . S
C1320 H1345 0.950 . S
C1321 C1320 1.349 . S
C1321 C1337 1.349 . S
C1322 C1320 1.327 . S
C1322 C1341 1.429 . S
C1322 H1346 0.950 . S
C1323 C1340 1.574 . S
C1323 C1342 1.368 1_554 S
C1323 H1347 0.949 . S
H1324 C1328 0.949 . S
C1325 C1326 1.349 . S
C1325 C1327 1.327 . S
C1325 H1348 0.950 . S
C1326 C1325 1.349 . S
C1326 C1338 1.349 1_554 S
C1327 C1325 1.327 . S
C1327 C1343 1.429 1_554 S
C1327 H1349 0.950 . S
C1328 H1324 0.949 . S
C1328 C1336 1.574 . S
C1328 C1344 1.368 . S
H1329 C1337 0.950 1_545 S
H1330 C1335 0.950 1_554 S
H1331 C1336 0.949 . S
H1332 C1338 0.950 . S
H1333 C1339 0.950 . S
H1334 C1340 0.949 . S
C1335 H1330 0.950 1_556 S
C1335 C1337 1.327 . S
C1335 C1341 1.429 . S
C1336 C1328 1.574 . S
C1336 H1331 0.949 . S
C1336 C1342 1.368 . S
C1337 C1321 1.349 . S
C1337 H1329 0.950 1_565 S
C1337 C1335 1.327 . S
C1338 C1326 1.349 1_556 S
C1338 H1332 0.950 . S
C1338 C1339 1.327 . S
C1339 H1333 0.950 . S
C1339 C1338 1.327 . S
C1339 C1343 1.429 . S
C1340 C1323 1.574 . S
C1340 H1334 0.949 . S
C1340 C1344 1.368 1_554 S
C1341 C1322 1.429 . S
C1341 C1335 1.429 . S
C1341 C1342 1.523 . S
C1342 C1323 1.368 1_556 S
C1342 C1336 1.368 . S
C1342 C1341 1.523 . S
C1343 C1327 1.429 1_556 S
C1343 C1339 1.429 . S
C1343 C1344 1.523 . S
C1344 C1328 1.368 . S
C1344 C1340 1.368 1_556 S
C1344 C1343 1.523 . S
H1345 C1320 0.950 . S
H1346 C1322 0.950 . S
H1347 C1323 0.949 . S
H1348 C1325 0.950 . S
H1349 C1327 0.950 . S
C1350 C1351 1.349 . S
C1350 C1352 1.327 . S
C1350 H1375 0.950 . S
C1351 C1350 1.349 . S
C1351 C1367 1.349 . S
C1352 C1350 1.327 . S
C1352 C1371 1.429 . S
C1352 H1376 0.950 . S
C1353 C1370 1.574 . S
C1353 C1372 1.368 . S
C1353 H1377 0.949 . S
H1354 C1358 0.949 . S
C1355 C1356 1.349 . S
C1355 C1357 1.327 . S
C1355 H1378 0.950 . S
C1356 C1355 1.349 . S
C1356 C1368 1.349 . S
C1357 C1355 1.327 . S
C1357 C1373 1.429 . S
C1357 H1379 0.950 . S
C1358 H1354 0.949 . S
C1358 C1366 1.574 . S
C1358 C1374 1.368 . S
H1359 C1367 0.950 . S
H1360 C1365 0.950 . S
H1361 C1366 0.949 . S
H1362 C1368 0.950 . S
H1363 C1369 0.950 . S
H1364 C1370 0.949 . S
C1365 H1360 0.950 . S
C1365 C1367 1.327 . S
C1365 C1371 1.429 . S
C1366 C1358 1.574 . S
C1366 H1361 0.949 . S
C1366 C1372 1.368 . S
C1367 C1351 1.349 . S
C1367 H1359 0.950 . S
C1367 C1365 1.327 . S
C1368 C1356 1.349 . S
C1368 H1362 0.950 . S
C1368 C1369 1.327 . S
C1369 H1363 0.950 . S
C1369 C1368 1.327 . S
C1369 C1373 1.429 . S
C1370 C1353 1.574 . S
C1370 H1364 0.949 . S
C1370 C1374 1.368 . S
C1371 C1352 1.429 . S
C1371 C1365 1.429 . S
C1371 C1372 1.523 . S
C1372 C1353 1.368 . S
C1372 C1366 1.368 . S
C1372 C1371 1.523 . S
C1373 C1357 1.429 . S
C1373 C1369 1.429 . S
C1373 C1374 1.523 . S
C1374 C1358 1.368 . S
C1374 C1370 1.368 . S
C1374 C1373 1.523 . S
H1375 C1350 0.950 . S
H1376 C1352 0.950 . S
H1377 C1353 0.949 . S
H1378 C1355 0.950 . S
H1379 C1357 0.950 . S
C1380 C1381 1.349 . S
C1380 C1382 1.327 . S
C1380 H1405 0.950 . S
C1381 C1380 1.349 . S
C1381 C1397 1.349 . S
C1382 C1380 1.327 . S
C1382 C1401 1.429 . S
C1382 H1406 0.950 . S
C1383 C1400 1.574 . S
C1383 C1402 1.368 . S
C1383 H1407 0.949 . S
H1384 C1388 0.949 . S
C1385 C1386 1.349 . S
C1385 C1387 1.327 . S
C1385 H1408 0.950 . S
C1386 C1385 1.349 . S
C1386 C1398 1.349 . S
C1387 C1385 1.327 . S
C1387 C1403 1.429 . S
C1387 H1409 0.950 . S
C1388 H1384 0.949 . S
C1388 C1396 1.574 . S
C1388 C1404 1.368 . S
H1389 C1397 0.950 . S
H1390 C1395 0.950 . S
H1391 C1396 0.949 . S
H1392 C1398 0.950 . S
H1393 C1399 0.950 . S
H1394 C1400 0.949 . S
C1395 H1390 0.950 . S
C1395 C1397 1.327 . S
C1395 C1401 1.429 . S
C1396 C1388 1.574 . S
C1396 H1391 0.949 . S
C1396 C1402 1.368 . S
C1397 C1381 1.349 . S
C1397 H1389 0.950 . S
C1397 C1395 1.327 . S
C1398 C1386 1.349 . S
C1398 H1392 0.950 . S
C1398 C1399 1.327 . S
C1399 H1393 0.950 . S
C1399 C1398 1.327 . S
C1399 C1403 1.429 . S
C1400 C1383 1.574 . S
C1400 H1394 0.949 . S
C1400 C1404 1.368 . S
C1401 C1382 1.429 . S
C1401 C1395 1.429 . S
C1401 C1402 1.523 . S
C1402 C1383 1.368 . S
C1402 C1396 1.368 . S
C1402 C1401 1.523 . S
C1403 C1387 1.429 . S
C1403 C1399 1.429 . S
C1403 C1404 1.523 . S
C1404 C1388 1.368 . S
C1404 C1400 1.368 . S
C1404 C1403 1.523 . S
H1405 C1380 0.950 . S
H1406 C1382 0.950 . S
H1407 C1383 0.949 . S
H1408 C1385 0.950 . S
H1409 C1387 0.950 . S
C1410 C1411 1.349 . S
C1410 C1412 1.327 . S
C1410 H1435 0.950 . S
C1411 C1410 1.349 . S
C1411 C1427 1.349 . S
C1412 C1410 1.327 . S
C1412 C1431 1.429 . S
C1412 H1436 0.950 . S
C1413 C1430 1.574 . S
C1413 C1432 1.368 . S
C1413 H1437 0.949 . S
H1414 C1418 0.949 . S
C1415 C1416 1.349 . S
C1415 C1417 1.327 . S
C1415 H1438 0.950 . S
C1416 C1415 1.349 . S
C1416 C1428 1.349 . S
C1417 C1415 1.327 . S
C1417 C1433 1.429 . S
C1417 H1439 0.950 . S
C1418 H1414 0.949 . S
C1418 C1426 1.574 . S
C1418 C1434 1.368 . S
H1419 C1427 0.950 . S
H1420 C1425 0.950 . S
H1421 C1426 0.949 . S
H1422 C1428 0.950 . S
H1423 C1429 0.950 . S
H1424 C1430 0.949 . S
C1425 H1420 0.950 . S
C1425 C1427 1.327 . S
C1425 C1431 1.429 . S
C1426 C1418 1.574 . S
C1426 H1421 0.949 . S
C1426 C1432 1.368 . S
C1427 C1411 1.349 . S
C1427 H1419 0.950 . S
C1427 C1425 1.327 . S
C1428 C1416 1.349 . S
C1428 H1422 0.950 . S
C1428 C1429 1.327 . S
C1429 H1423 0.950 . S
C1429 C1428 1.327 . S
C1429 C1433 1.429 . S
C1430 C1413 1.574 . S
C1430 H1424 0.949 . S
C1430 C1434 1.368 . S
C1431 C1412 1.429 . S
C1431 C1425 1.429 . S
C1431 C1432 1.523 . S
C1432 C1413 1.368 . S
C1432 C1426 1.368 . S
C1432 C1431 1.523 . S
C1433 C1417 1.429 . S
C1433 C1429 1.429 . S
C1433 C1434 1.523 . S
C1434 C1418 1.368 . S
C1434 C1430 1.368 . S
C1434 C1433 1.523 . S
H1435 C1410 0.950 . S
H1436 C1412 0.950 . S
H1437 C1413 0.949 . S
H1438 C1415 0.950 . S
H1439 C1417 0.950 . S
C1440 C1441 1.349 . S
C1440 C1442 1.327 . S
C1440 H1465 0.950 . S
C1441 C1440 1.349 . S
C1441 C1457 1.349 . S
C1442 C1440 1.327 . S
C1442 C1461 1.429 . S
C1442 H1466 0.950 . S
C1443 C1460 1.574 . S
C1443 C1462 1.368 . S
C1443 H1467 0.949 . S
H1444 C1448 0.949 . S
C1445 C1446 1.349 . S
C1445 C1447 1.327 . S
C1445 H1468 0.950 . S
C1446 C1445 1.349 . S
C1446 C1458 1.349 . S
C1447 C1445 1.327 . S
C1447 C1463 1.429 . S
C1447 H1469 0.950 . S
C1448 H1444 0.949 . S
C1448 C1456 1.574 . S
C1448 C1464 1.368 . S
H1449 C1457 0.950 . S
H1450 C1455 0.950 . S
H1451 C1456 0.949 . S
H1452 C1458 0.950 . S
H1453 C1459 0.950 . S
H1454 C1460 0.949 . S
C1455 H1450 0.950 . S
C1455 C1457 1.327 . S
C1455 C1461 1.429 . S
C1456 C1448 1.574 . S
C1456 H1451 0.949 . S
C1456 C1462 1.368 . S
C1457 C1441 1.349 . S
C1457 H1449 0.950 . S
C1457 C1455 1.327 . S
C1458 C1446 1.349 . S
C1458 H1452 0.950 . S
C1458 C1459 1.327 . S
C1459 H1453 0.950 . S
C1459 C1458 1.327 . S
C1459 C1463 1.429 . S
C1460 C1443 1.574 . S
C1460 H1454 0.949 . S
C1460 C1464 1.368 . S
C1461 C1442 1.429 . S
C1461 C1455 1.429 . S
C1461 C1462 1.523 . S
C1462 C1443 1.368 . S
C1462 C1456 1.368 . S
C1462 C1461 1.523 . S
C1463 C1447 1.429 . S
C1463 C1459 1.429 . S
C1463 C1464 1.523 . S
C1464 C1448 1.368 . S
C1464 C1460 1.368 . S
C1464 C1463 1.523 . S
H1465 C1440 0.950 . S
H1466 C1442 0.950 . S
H1467 C1443 0.949 . S
H1468 C1445 0.950 . S
H1469 C1447 0.950 . S
C1470 C1471 1.349 . S
C1470 C1472 1.327 . S
C1470 H1495 0.950 . S
C1471 C1470 1.349 . S
C1471 C1487 1.349 . S
C1472 C1470 1.327 . S
C1472 C1491 1.429 . S
C1472 H1496 0.950 . S
C1473 C1490 1.574 . S
C1473 C1492 1.368 . S
C1473 H1497 0.949 . S
H1474 C1478 0.949 . S
C1475 C1476 1.349 . S
C1475 C1477 1.327 . S
C1475 H1498 0.950 . S
C1476 C1475 1.349 . S
C1476 C1488 1.349 . S
C1477 C1475 1.327 . S
C1477 C1493 1.429 . S
C1477 H1499 0.950 . S
C1478 H1474 0.949 . S
C1478 C1486 1.574 . S
C1478 C1494 1.368 . S
H1479 C1487 0.950 . S
H1480 C1485 0.950 . S
H1481 C1486 0.949 . S
H1482 C1488 0.950 . S
H1483 C1489 0.950 . S
H1484 C1490 0.949 . S
C1485 H1480 0.950 . S
C1485 C1487 1.327 . S
C1485 C1491 1.429 . S
C1486 C1478 1.574 . S
C1486 H1481 0.949 . S
C1486 C1492 1.368 . S
C1487 C1471 1.349 . S
C1487 H1479 0.950 . S
C1487 C1485 1.327 . S
C1488 C1476 1.349 . S
C1488 H1482 0.950 . S
C1488 C1489 1.327 . S
C1489 H1483 0.950 . S
C1489 C1488 1.327 . S
C1489 C1493 1.429 . S
C1490 C1473 1.574 . S
C1490 H1484 0.949 . S
C1490 C1494 1.368 . S
C1491 C1472 1.429 . S
C1491 C1485 1.429 . S
C1491 C1492 1.523 . S
C1492 C1473 1.368 . S
C1492 C1486 1.368 . S
C1492 C1491 1.523 . S
C1493 C1477 1.429 . S
C1493 C1489 1.429 . S
C1493 C1494 1.523 . S
C1494 C1478 1.368 . S
C1494 C1490 1.368 . S
C1494 C1493 1.523 . S
H1495 C1470 0.950 . S
H1496 C1472 0.950 . S
H1497 C1473 0.949 . S
H1498 C1475 0.950 . S
H1499 C1477 0.950 . S
C1500 C1501 1.349 . S
C1500 C1502 1.327 . S
C1500 H1525 0.950 . S
C1501 C1500 1.349 . S
C1501 C1517 1.349 . S
C1502 C1500 1.327 . S
C1502 C1521 1.429 . S
C1502 H1526 0.950 . S
C1503 C1520 1.574 . S
C1503 C1522 1.368 . S
C1503 H1527 0.949 . S
H1504 C1508 0.949 . S
C1505 C1506 1.349 . S
C1505 C1507 1.327 . S
C1505 H1528 0.950 . S
C1506 C1505 1.349 . S
C1506 C1518 1.349 . S
C1507 C1505 1.327 . S
C1507 C1523 1.429 . S
C1507 H1529 0.950 . S
C1508 H1504 0.949 . S
C1508 C1516 1.574 . S
C1508 C1524 1.368 . S
H1509 C1517 0.950 . S
H1510 C1515 0.950 . S
H1511 C1516 0.949 . S
H1512 C1518 0.950 . S
H1513 C1519 0.950 . S
H1514 C1520 0.949 . S
C1515 H1510 0.950 . S
C1515 C1517 1.327 . S
C1515 C1521 1.429 . S
C1516 C1508 1.574 . S
C1516 H1511 0.949 . S
C1516 C1522 1.368 . S
C1517 C1501 1.349 . S
C1517 H1509 0.950 . S
C1517 C1515 1.327 . S
C1518 C1506 1.349 . S
C1518 H1512 0.950 . S
C1518 C1519 1.327 . S
C1519 H1513 0.950 . S
C1519 C1518 1.327 . S
C1519 C1523 1.429 . S
C1520 C1503 1.574 . S
C1520 H1514 0.949 . S
C1520 C1524 1.368 . S
C1521 C1502 1.429 . S
C1521 C1515 1.429 . S
C1521 C1522 1.523 . S
C1522 C1503 1.368 . S
C1522 C1516 1.368 . S
C1522 C1521 1.523 . S
C1523 C1507 1.429 . S
C1523 C1519 1.429 . S
C1523 C1524 1.523 . S
C1524 C1508 1.368 . S
C1524 C1520 1.368 . S
C1524 C1523 1.523 . S
H1525 C1500 0.950 . S
H1526 C1502 0.950 . S
H1527 C1503 0.949 . S
H1528 C1505 0.950 . S
H1529 C1507 0.950 . S
C1530 C1531 1.349 . S
C1530 C1532 1.327 . S
C1530 H1555 0.950 . S
C1531 C1530 1.349 . S
C1531 C1547 1.349 . S
C1532 C1530 1.327 . S
C1532 C1551 1.429 . S
C1532 H1556 0.950 . S
C1533 C1550 1.574 . S
C1533 C1552 1.368 . S
C1533 H1557 0.949 . S
H1534 C1538 0.949 . S
C1535 C1536 1.349 1_565 S
C1535 C1537 1.323 1_565 S
C1535 H1558 0.950 . S
C1536 C1535 1.349 1_545 S
C1536 C1548 1.349 . S
C1537 C1535 1.323 1_545 S
C1537 C1553 1.449 . S
C1537 H1559 0.934 1_545 S
C1538 H1534 0.949 . S
C1538 C1546 1.574 . S
C1538 C1554 1.368 . S
H1539 C1547 0.950 . S
H1540 C1545 0.950 . S
H1541 C1546 0.949 . S
H1542 C1548 0.950 . S
H1543 C1549 0.950 . S
H1544 C1550 0.949 1_565 S
C1545 H1540 0.950 . S
C1545 C1547 1.327 . S
C1545 C1551 1.429 . S
C1546 C1538 1.574 . S
C1546 H1541 0.949 . S
C1546 C1552 1.368 . S
C1547 C1531 1.349 . S
C1547 H1539 0.950 . S
C1547 C1545 1.327 . S
C1548 C1536 1.349 . S
C1548 H1542 0.950 . S
C1548 C1549 1.327 . S
C1549 H1543 0.950 . S
C1549 C1548 1.327 . S
C1549 C1553 1.429 . S
C1550 C1533 1.574 . S
C1550 H1544 0.949 1_545 S
C1550 C1554 1.368 . S
C1551 C1532 1.429 . S
C1551 C1545 1.429 . S
C1551 C1552 1.523 . S
C1552 C1533 1.368 . S
C1552 C1546 1.368 . S
C1552 C1551 1.523 . S
C1553 C1537 1.449 . S
C1553 C1549 1.429 . S
C1553 C1554 1.523 . S
C1554 C1538 1.368 . S
C1554 C1550 1.368 . S
C1554 C1553 1.523 . S
H1555 C1530 0.950 . S
H1556 C1532 0.950 . S
H1557 C1533 0.949 . S
H1558 C1535 0.950 . S
H1559 C1537 0.934 1_565 S
C1560 C1561 1.349 . S
C1560 C1562 1.327 . S
C1560 H1585 0.950 . S
C1561 C1560 1.349 . S
C1561 C1577 1.349 . S
C1562 C1560 1.327 . S
C1562 C1581 1.429 . S
C1562 H1586 0.950 . S
C1563 C1580 1.574 . S
C1563 C1582 1.368 . S
C1563 H1587 0.949 . S
H1564 C1568 0.949 . S
C1565 C1566 1.349 . S
C1565 C1567 1.327 . S
C1565 H1588 0.950 . S
C1566 C1565 1.349 . S
C1566 C1578 1.349 . S
C1567 C1565 1.327 . S
C1567 C1583 1.429 . S
C1567 H1589 0.950 . S
C1568 H1564 0.949 . S
C1568 C1576 1.574 . S
C1568 C1584 1.368 . S
H1569 C1577 0.950 . S
H1570 C1575 0.950 . S
H1571 C1576 0.949 . S
H1572 C1578 0.950 . S
H1573 C1579 0.950 . S
H1574 C1580 0.949 . S
C1575 H1570 0.950 . S
C1575 C1577 1.327 . S
C1575 C1581 1.429 . S
C1576 C1568 1.574 . S
C1576 H1571 0.949 . S
C1576 C1582 1.368 . S
C1577 C1561 1.349 . S
C1577 H1569 0.950 . S
C1577 C1575 1.327 . S
C1578 C1566 1.349 . S
C1578 H1572 0.950 . S
C1578 C1579 1.327 . S
C1579 H1573 0.950 . S
C1579 C1578 1.327 . S
C1579 C1583 1.429 . S
C1580 C1563 1.574 . S
C1580 H1574 0.949 . S
C1580 C1584 1.368 . S
C1581 C1562 1.429 . S
C1581 C1575 1.429 . S
C1581 C1582 1.523 . S
C1582 C1563 1.368 . S
C1582 C1576 1.368 . S
C1582 C1581 1.523 . S
C1583 C1567 1.429 . S
C1583 C1579 1.429 . S
C1583 C1584 1.523 . S
C1584 C1568 1.368 . S
C1584 C1580 1.368 . S
C1584 C1583 1.523 . S
H1585 C1560 0.950 . S
H1586 C1562 0.950 . S
H1587 C1563 0.949 . S
H1588 C1565 0.950 . S
H1589 C1567 0.950 . S
C1590 C1591 1.349 . S
C1590 C1592 1.327 . S
C1590 H1615 0.950 . S
C1591 C1590 1.349 . S
C1591 C1607 1.349 . S
C1592 C1590 1.327 . S
C1592 C1611 1.429 . S
C1592 H1616 0.950 . S
C1593 C1610 1.574 . S
C1593 C1612 1.368 . S
C1593 H1617 0.949 . S
H1594 C1598 0.949 . S
C1595 C1596 1.349 . S
C1595 C1597 1.327 . S
C1595 H1618 0.950 . S
C1596 C1595 1.349 . S
C1596 C1608 1.349 . S
C1597 C1595 1.327 . S
C1597 C1613 1.429 . S
C1597 H1619 0.950 . S
C1598 H1594 0.949 . S
C1598 C1606 1.574 . S
C1598 C1614 1.368 . S
H1599 C1607 0.950 . S
H1600 C1605 0.950 . S
H1601 C1606 0.949 . S
H1602 C1608 0.950 . S
H1603 C1609 0.950 . S
H1604 C1610 0.949 . S
C1605 H1600 0.950 . S
C1605 C1607 1.327 . S
C1605 C1611 1.429 . S
C1606 C1598 1.574 . S
C1606 H1601 0.949 . S
C1606 C1612 1.368 . S
C1607 C1591 1.349 . S
C1607 H1599 0.950 . S
C1607 C1605 1.327 . S
C1608 C1596 1.349 . S
C1608 H1602 0.950 . S
C1608 C1609 1.327 . S
C1609 H1603 0.950 . S
C1609 C1608 1.327 . S
C1609 C1613 1.429 . S
C1610 C1593 1.574 . S
C1610 H1604 0.949 . S
C1610 C1614 1.368 . S
C1611 C1592 1.429 . S
C1611 C1605 1.429 . S
C1611 C1612 1.523 . S
C1612 C1593 1.368 . S
C1612 C1606 1.368 . S
C1612 C1611 1.523 . S
C1613 C1597 1.429 . S
C1613 C1609 1.429 . S
C1613 C1614 1.523 . S
C1614 C1598 1.368 . S
C1614 C1610 1.368 . S
C1614 C1613 1.523 . S
H1615 C1590 0.950 . S
H1616 C1592 0.950 . S
H1617 C1593 0.949 . S
H1618 C1595 0.950 . S
H1619 C1597 0.950 . S
C1620 C1621 1.349 . S
C1620 C1622 1.327 . S
C1620 H1645 0.950 . S
C1621 C1620 1.349 . S
C1621 C1637 1.349 . S
C1622 C1620 1.327 . S
C1622 C1641 1.429 . S
C1622 H1646 0.950 . S
C1623 C1640 1.574 . S
C1623 C1642 1.368 . S
C1623 H1647 0.949 . S
H1624 C1628 0.949 . S
C1625 C1626 1.349 . S
C1625 C1627 1.327 . S
C1625 H1648 0.950 . S
C1626 C1625 1.349 . S
C1626 C1638 1.349 . S
C1627 C1625 1.327 . S
C1627 C1643 1.429 . S
C1627 H1649 0.950 . S
C1628 H1624 0.949 . S
C1628 C1636 1.574 . S
C1628 C1644 1.368 . S
H1629 C1637 0.950 . S
H1630 C1635 0.950 . S
H1631 C1636 0.949 . S
H1632 C1638 0.950 . S
H1633 C1639 0.950 . S
H1634 C1640 0.949 . S
C1635 H1630 0.950 . S
C1635 C1637 1.327 . S
C1635 C1641 1.429 . S
C1636 C1628 1.574 . S
C1636 H1631 0.949 . S
C1636 C1642 1.368 . S
C1637 C1621 1.349 . S
C1637 H1629 0.950 . S
C1637 C1635 1.327 . S
C1638 C1626 1.349 . S
C1638 H1632 0.950 . S
C1638 C1639 1.327 . S
C1639 H1633 0.950 . S
C1639 C1638 1.327 . S
C1639 C1643 1.429 . S
C1640 C1623 1.574 . S
C1640 H1634 0.949 . S
C1640 C1644 1.368 . S
C1641 C1622 1.429 . S
C1641 C1635 1.429 . S
C1641 C1642 1.523 . S
C1642 C1623 1.368 . S
C1642 C1636 1.368 . S
C1642 C1641 1.523 . S
C1643 C1627 1.429 . S
C1643 C1639 1.429 . S
C1643 C1644 1.523 . S
C1644 C1628 1.368 . S
C1644 C1640 1.368 . S
C1644 C1643 1.523 . S
H1645 C1620 0.950 . S
H1646 C1622 0.950 . S
H1647 C1623 0.949 . S
H1648 C1625 0.950 . S
H1649 C1627 0.950 . S
C1650 C1651 1.349 . S
C1650 C1652 1.327 . S
C1650 H1675 0.950 . S
C1651 C1650 1.349 . S
C1651 C1667 1.349 . S
C1652 C1650 1.327 . S
C1652 C1671 1.429 . S
C1652 H1676 0.950 . S
C1653 C1670 1.574 . S
C1653 C1672 1.368 . S
C1653 H1677 0.949 . S
H1654 C1658 0.949 . S
C1655 C1656 1.349 . S
C1655 C1657 1.327 . S
C1655 H1678 0.950 . S
C1656 C1655 1.349 . S
C1656 C1668 1.349 . S
C1657 C1655 1.327 . S
C1657 C1673 1.429 . S
C1657 H1679 0.950 . S
C1658 H1654 0.949 . S
C1658 C1666 1.574 . S
C1658 C1674 1.368 . S
H1659 C1667 0.956 . S
H1660 C1665 0.950 . S
H1661 C1666 0.949 . S
H1662 C1668 0.950 . S
H1663 C1669 0.950 . S
H1664 C1670 0.949 . S
C1665 H1660 0.950 . S
C1665 C1667 1.327 . S
C1665 C1671 1.429 . S
C1666 C1658 1.574 . S
C1666 H1661 0.949 . S
C1666 C1672 1.368 . S
C1667 C1651 1.349 . S
C1667 H1659 0.956 . S
C1667 C1665 1.327 . S
C1668 C1656 1.349 . S
C1668 H1662 0.950 . S
C1668 C1669 1.327 . S
C1669 H1663 0.950 . S
C1669 C1668 1.327 . S
C1669 C1673 1.429 . S
C1670 C1653 1.574 . S
C1670 H1664 0.949 . S
C1670 C1674 1.368 . S
C1671 C1652 1.429 . S
C1671 C1665 1.429 . S
C1671 C1672 1.523 . S
C1672 C1653 1.368 . S
C1672 C1666 1.368 . S
C1672 C1671 1.523 . S
C1673 C1657 1.429 . S
C1673 C1669 1.429 . S
C1673 C1674 1.523 . S
C1674 C1658 1.368 . S
C1674 C1670 1.368 . S
C1674 C1673 1.523 . S
H1675 C1650 0.950 . S
H1676 C1652 0.950 . S
H1677 C1653 0.949 . S
H1678 C1655 0.950 . S
H1679 C1657 0.950 . S
C1680 C1681 1.349 . S
C1680 C1682 1.327 . S
C1680 H1705 0.950 . S
C1681 C1680 1.349 . S
C1681 C1697 1.349 . S
C1682 C1680 1.327 . S
C1682 C1701 1.429 . S
C1682 H1706 0.950 . S
C1683 C1700 1.574 . S
C1683 C1702 1.368 . S
C1683 H1707 0.949 . S
H1684 C1688 0.949 . S
C1685 C1686 1.349 . S
C1685 C1687 1.327 . S
C1685 H1708 0.950 . S
C1686 C1685 1.349 . S
C1686 C1698 1.349 . S
C1687 C1685 1.327 . S
C1687 C1703 1.429 . S
C1687 H1709 0.950 . S
C1688 H1684 0.949 . S
C1688 C1696 1.574 . S
C1688 C1704 1.368 . S
H1689 C1697 0.950 . S
H1690 C1695 0.950 . S
H1691 C1696 0.949 . S
H1692 C1698 0.950 . S
H1693 C1699 0.950 . S
H1694 C1700 0.949 . S
C1695 H1690 0.950 . S
C1695 C1697 1.327 . S
C1695 C1701 1.429 . S
C1696 C1688 1.574 . S
C1696 H1691 0.949 . S
C1696 C1702 1.368 . S
C1697 C1681 1.349 . S
C1697 H1689 0.950 . S
C1697 C1695 1.327 . S
C1698 C1686 1.349 . S
C1698 H1692 0.950 . S
C1698 C1699 1.327 . S
C1699 H1693 0.950 . S
C1699 C1698 1.327 . S
C1699 C1703 1.429 . S
C1700 C1683 1.574 . S
C1700 H1694 0.949 . S
C1700 C1704 1.368 . S
C1701 C1682 1.429 . S
C1701 C1695 1.429 . S
C1701 C1702 1.523 . S
C1702 C1683 1.368 . S
C1702 C1696 1.368 . S
C1702 C1701 1.523 . S
C1703 C1687 1.429 . S
C1703 C1699 1.429 . S
C1703 C1704 1.523 . S
C1704 C1688 1.368 . S
C1704 C1700 1.368 . S
C1704 C1703 1.523 . S
H1705 C1680 0.950 . S
H1706 C1682 0.950 . S
H1707 C1683 0.949 . S
H1708 C1685 0.950 . S
H1709 C1687 0.950 . S
C1710 C1711 1.349 . S
C1710 C1712 1.327 . S
C1710 H1735 0.950 . S
C1711 C1710 1.349 . S
C1711 C1727 1.349 . S
C1712 C1710 1.327 . S
C1712 C1731 1.429 . S
C1712 H1736 0.950 . S
C1713 C1730 1.574 . S
C1713 C1732 1.368 . S
C1713 H1737 0.949 . S
H1714 C1718 0.949 . S
C1715 C1716 1.349 . S
C1715 C1717 1.327 . S
C1715 H1738 0.950 . S
C1716 C1715 1.349 . S
C1716 C1728 1.349 . S
C1717 C1715 1.327 . S
C1717 C1733 1.429 . S
C1717 H1739 0.950 . S
C1718 H1714 0.949 . S
C1718 C1726 1.574 . S
C1718 C1734 1.368 . S
H1719 C1727 0.950 . S
H1720 C1725 0.950 . S
H1721 C1726 0.949 . S
H1722 C1728 0.950 . S
H1723 C1729 0.950 . S
H1724 C1730 0.949 . S
C1725 H1720 0.950 . S
C1725 C1727 1.327 . S
C1725 C1731 1.429 . S
C1726 C1718 1.574 . S
C1726 H1721 0.949 . S
C1726 C1732 1.368 . S
C1727 C1711 1.349 . S
C1727 H1719 0.950 . S
C1727 C1725 1.327 . S
C1728 C1716 1.349 . S
C1728 H1722 0.950 . S
C1728 C1729 1.327 . S
C1729 H1723 0.950 . S
C1729 C1728 1.327 . S
C1729 C1733 1.429 . S
C1730 C1713 1.574 . S
C1730 H1724 0.949 . S
C1730 C1734 1.368 . S
C1731 C1712 1.429 . S
C1731 C1725 1.429 . S
C1731 C1732 1.523 . S
C1732 C1713 1.368 . S
C1732 C1726 1.368 . S
C1732 C1731 1.523 . S
C1733 C1717 1.429 . S
C1733 C1729 1.429 . S
C1733 C1734 1.523 . S
C1734 C1718 1.368 . S
C1734 C1730 1.368 . S
C1734 C1733 1.523 . S
H1735 C1710 0.950 . S
H1736 C1712 0.950 . S
H1737 C1713 0.949 . S
H1738 C1715 0.950 . S
H1739 C1717 0.950 . S
C1740 C1741 1.349 . S
C1740 C1742 1.327 . S
C1740 H1765 0.950 . S
C1741 C1740 1.349 . S
C1741 C1757 1.349 . S
C1742 C1740 1.327 . S
C1742 C1761 1.429 . S
C1742 H1766 0.950 . S
C1743 C1760 1.574 . S
C1743 C1762 1.368 . S
C1743 H1767 0.949 . S
H1744 C1748 0.949 . S
C1745 C1746 1.349 . S
C1745 C1747 1.327 . S
C1745 H1768 0.950 . S
C1746 C1745 1.349 . S
C1746 C1758 1.349 . S
C1747 C1745 1.327 . S
C1747 C1763 1.429 . S
C1747 H1769 0.950 . S
C1748 H1744 0.949 . S
C1748 C1756 1.574 . S
C1748 C1764 1.368 . S
H1749 C1757 0.950 . S
H1750 C1755 0.950 . S
H1751 C1756 0.949 . S
H1752 C1758 0.950 . S
H1753 C1759 0.950 . S
H1754 C1760 0.949 . S
C1755 H1750 0.950 . S
C1755 C1757 1.327 . S
C1755 C1761 1.429 . S
C1756 C1748 1.574 . S
C1756 H1751 0.949 . S
C1756 C1762 1.368 . S
C1757 C1741 1.349 . S
C1757 H1749 0.950 . S
C1757 C1755 1.327 . S
C1758 C1746 1.349 . S
C1758 H1752 0.950 . S
C1758 C1759 1.327 . S
C1759 H1753 0.950 . S
C1759 C1758 1.327 . S
C1759 C1763 1.429 . S
C1760 C1743 1.574 . S
C1760 H1754 0.949 . S
C1760 C1764 1.368 . S
C1761 C1742 1.429 . S
C1761 C1755 1.429 . S
C1761 C1762 1.523 . S
C1762 C1743 1.368 . S
C1762 C1756 1.368 . S
C1762 C1761 1.523 . S
C1763 C1747 1.429 . S
C1763 C1759 1.429 . S
C1763 C1764 1.523 . S
C1764 C1748 1.368 . S
C1764 C1760 1.368 . S
C1764 C1763 1.523 . S
H1765 C1740 0.950 . S
H1766 C1742 0.950 . S
H1767 C1743 0.949 . S
H1768 C1745 0.950 . S
H1769 C1747 0.950 . S
C1770 C1771 1.349 . S
C1770 C1772 1.327 . S
C1770 H1795 0.989 . S
C1771 C1770 1.349 . S
C1771 C1787 1.349 . S
C1772 C1770 1.327 . S
C1772 C1791 1.429 . S
C1772 H1796 0.950 1_655 S
C1773 C1790 1.574 . S
C1773 C1792 1.368 . S
C1773 H1797 0.949 . S
H1774 C1778 0.949 . S
C1775 C1776 1.349 . S
C1775 C1777 1.327 . S
C1775 H1798 0.950 . S
C1776 C1775 1.349 . S
C1776 C1788 1.349 1_655 S
C1777 C1775 1.327 . S
C1777 C1793 1.429 . S
C1777 H1799 0.950 . S
C1778 H1774 0.949 . S
C1778 C1786 1.563 1_455 S
C1778 C1794 1.368 1_455 S
H1779 C1787 0.950 . S
H1780 C1785 0.950 . S
H1781 C1786 0.902 1_455 S
H1782 C1788 0.950 . S
H1783 C1789 0.950 . S
H1784 C1790 0.949 . S
C1785 H1780 0.950 . S
C1785 C1787 1.327 . S
C1785 C1791 1.429 . S
C1786 C1778 1.563 1_655 S
C1786 H1781 0.902 1_655 S
C1786 C1792 1.435 . S
C1787 C1771 1.349 . S
C1787 H1779 0.950 . S
C1787 C1785 1.327 . S
C1788 C1776 1.349 1_455 S
C1788 H1782 0.950 . S
C1788 C1789 1.327 . S
C1789 H1783 0.950 . S
C1789 C1788 1.327 . S
C1789 C1793 1.429 1_455 S
C1790 C1773 1.574 . S
C1790 H1784 0.949 . S
C1790 C1794 1.368 . S
C1791 C1772 1.429 . S
C1791 C1785 1.429 . S
C1791 C1792 1.523 . S
C1792 C1773 1.368 . S
C1792 C1786 1.435 . S
C1792 C1791 1.523 . S
C1793 C1777 1.429 . S
C1793 C1789 1.429 1_655 S
C1793 C1794 1.523 . S
C1794 C1778 1.368 1_655 S
C1794 C1790 1.368 . S
C1794 C1793 1.523 . S
H1795 C1770 0.989 . S
H1796 C1772 0.950 1_455 S
H1797 C1773 0.949 . S
H1798 C1775 0.950 . S
H1799 C1777 0.950 . S
C1800 C1801 1.349 . S
C1800 C1802 1.327 . S
C1800 H1825 0.950 . S
C1801 C1800 1.349 . S
C1801 C1817 1.349 . S
C1802 C1800 1.327 . S
C1802 C1821 1.429 . S
C1802 H1826 0.950 . S
C1803 C1820 1.574 . S
C1803 C1822 1.368 . S
C1803 H1827 0.949 . S
H1804 C1808 0.949 . S
C1805 C1806 1.349 . S
C1805 C1807 1.327 . S
C1805 H1828 0.950 . S
C1806 C1805 1.349 . S
C1806 C1818 1.349 . S
C1807 C1805 1.327 . S
C1807 C1823 1.429 . S
C1807 H1829 0.950 . S
C1808 H1804 0.949 . S
C1808 C1816 1.574 . S
C1808 C1824 1.368 . S
H1809 C1817 0.950 . S
H1810 C1815 0.950 . S
H1811 C1816 0.949 . S
H1812 C1818 0.950 . S
H1813 C1819 0.950 . S
H1814 C1820 0.949 . S
C1815 H1810 0.950 . S
C1815 C1817 1.327 . S
C1815 C1821 1.429 . S
C1816 C1808 1.574 . S
C1816 H1811 0.949 . S
C1816 C1822 1.368 . S
C1817 C1801 1.349 . S
C1817 H1809 0.950 . S
C1817 C1815 1.327 . S
C1818 C1806 1.349 . S
C1818 H1812 0.950 . S
C1818 C1819 1.327 . S
C1819 H1813 0.950 . S
C1819 C1818 1.327 . S
C1819 C1823 1.429 . S
C1820 C1803 1.574 . S
C1820 H1814 0.949 . S
C1820 C1824 1.368 . S
C1821 C1802 1.429 . S
C1821 C1815 1.429 . S
C1821 C1822 1.523 . S
C1822 C1803 1.368 . S
C1822 C1816 1.368 . S
C1822 C1821 1.523 . S
C1823 C1807 1.429 . S
C1823 C1819 1.429 . S
C1823 C1824 1.523 . S
C1824 C1808 1.368 . S
C1824 C1820 1.368 . S
C1824 C1823 1.523 . S
H1825 C1800 0.950 . S
H1826 C1802 0.950 . S
H1827 C1803 0.949 . S
H1828 C1805 0.950 . S
H1829 C1807 0.950 . S
C1830 C1831 1.349 . S
C1830 C1832 1.327 . S
C1830 H1855 0.950 . S
C1831 C1830 1.349 . S
C1831 C1847 1.349 . S
C1832 C1830 1.327 . S
C1832 C1851 1.429 . S
C1832 H1856 0.950 . S
C1833 C1850 1.574 . S
C1833 C1852 1.368 . S
C1833 H1857 0.949 1_455 S
H1834 C1838 0.949 . S
C1835 C1836 1.349 1_655 S
C1835 C1837 1.327 . S
C1835 H1858 0.950 . S
C1836 C1835 1.349 1_455 S
C1836 C1848 1.349 . S
C1837 C1835 1.327 . S
C1837 C1853 1.429 1_655 S
C1837 H1859 0.950 . S
C1838 H1834 0.949 . S
C1838 C1846 1.574 . S
C1838 C1854 1.368 . S
H1839 C1847 0.950 . S
H1840 C1845 0.950 1_655 S
H1841 C1846 0.949 . S
H1842 C1848 0.950 . S
H1843 C1849 0.950 . S
H1844 C1850 0.949 1_655 S
C1845 H1840 0.950 1_455 S
C1845 C1847 1.327 . S
C1845 C1851 1.429 . S
C1846 C1838 1.574 . S
C1846 H1841 0.949 . S
C1846 C1852 1.368 . S
C1847 C1831 1.349 . S
C1847 H1839 0.950 . S
C1847 C1845 1.327 . S
C1848 C1836 1.349 . S
C1848 H1842 0.950 . S
C1848 C1849 1.327 . S
C1849 H1843 0.950 . S
C1849 C1848 1.327 . S
C1849 C1853 1.429 . S
C1850 C1833 1.574 . S
C1850 H1844 0.949 1_455 S
C1850 C1854 1.368 . S
C1851 C1832 1.429 . S
C1851 C1845 1.429 . S
C1851 C1852 1.523 . S
C1852 C1833 1.368 . S
C1852 C1846 1.368 . S
C1852 C1851 1.523 . S
C1853 C1837 1.429 1_455 S
C1853 C1849 1.429 . S
C1853 C1854 1.523 . S
C1854 C1838 1.368 . S
C1854 C1850 1.368 . S
C1854 C1853 1.523 . S
H1855 C1830 0.950 . S
H1856 C1832 0.950 . S
H1857 C1833 0.949 1_655 S
H1858 C1835 0.950 . S
H1859 C1837 0.950 . S
C1860 C1861 1.349 . S
C1860 C1862 1.327 . S
C1860 H1885 0.950 . S
C1861 C1860 1.349 . S
C1861 C1877 1.349 . S
C1862 C1860 1.327 . S
C1862 C1881 1.429 . S
C1862 H1886 0.950 . S
C1863 C1880 1.574 . S
C1863 C1882 1.368 . S
C1863 H1887 0.949 . S
H1864 C1868 0.949 . S
C1865 C1866 1.349 . S
C1865 C1867 1.327 . S
C1865 H1888 0.950 . S
C1866 C1865 1.349 . S
C1866 C1878 1.349 . S
C1867 C1865 1.327 . S
C1867 C1883 1.429 . S
C1867 H1889 0.950 . S
C1868 H1864 0.949 . S
C1868 C1876 1.574 . S
C1868 C1884 1.368 . S
H1869 C1877 0.950 . S
H1870 C1875 0.950 . S
H1871 C1876 0.949 . S
H1872 C1878 0.950 . S
H1873 C1879 0.950 . S
H1874 C1880 0.949 . S
C1875 H1870 0.950 . S
C1875 C1877 1.327 . S
C1875 C1881 1.429 . S
C1876 C1868 1.574 . S
C1876 H1871 0.949 . S
C1876 C1882 1.368 . S
C1877 C1861 1.349 . S
C1877 H1869 0.950 . S
C1877 C1875 1.327 . S
C1878 C1866 1.349 . S
C1878 H1872 0.950 . S
C1878 C1879 1.327 . S
C1879 H1873 0.950 . S
C1879 C1878 1.327 . S
C1879 C1883 1.429 . S
C1880 C1863 1.574 . S
C1880 H1874 0.949 . S
C1880 C1884 1.368 . S
C1881 C1862 1.429 . S
C1881 C1875 1.429 . S
C1881 C1882 1.523 . S
C1882 C1863 1.368 . S
C1882 C1876 1.368 . S
C1882 C1881 1.523 . S
C1883 C1867 1.429 . S
C1883 C1879 1.429 . S
C1883 C1884 1.523 . S
C1884 C1868 1.368 . S
C1884 C1880 1.368 . S
C1884 C1883 1.523 . S
H1885 C1860 0.950 . S
H1886 C1862 0.950 . S
H1887 C1863 0.949 . S
H1888 C1865 0.950 . S
H1889 C1867 0.950 . S
C1890 C1891 1.349 . S
C1890 C1892 1.327 . S
C1890 H1915 0.950 . S
C1891 C1890 1.349 . S
C1891 C1907 1.349 . S
C1892 C1890 1.327 . S
C1892 C1911 1.429 . S
C1892 H1916 0.950 . S
C1893 C1910 1.574 . S
C1893 C1912 1.368 . S
C1893 H1917 0.949 . S
H1894 C1898 0.949 . S
C1895 C1896 1.349 . S
C1895 C1897 1.327 . S
C1895 H1918 0.950 . S
C1896 C1895 1.349 . S
C1896 C1908 1.349 . S
C1897 C1895 1.327 . S
C1897 C1913 1.429 . S
C1897 H1919 0.950 . S
C1898 H1894 0.949 . S
C1898 C1906 1.574 . S
C1898 C1914 1.368 . S
H1899 C1907 0.950 . S
H1900 C1905 0.950 . S
H1901 C1906 0.949 . S
H1902 C1908 0.950 . S
H1903 C1909 0.950 . S
H1904 C1910 0.949 . S
C1905 H1900 0.950 . S
C1905 C1907 1.327 . S
C1905 C1911 1.429 . S
C1906 C1898 1.574 . S
C1906 H1901 0.949 . S
C1906 C1912 1.368 . S
C1907 C1891 1.349 . S
C1907 H1899 0.950 . S
C1907 C1905 1.327 . S
C1908 C1896 1.349 . S
C1908 H1902 0.950 . S
C1908 C1909 1.327 . S
C1909 H1903 0.950 . S
C1909 C1908 1.327 . S
C1909 C1913 1.429 . S
C1910 C1893 1.574 . S
C1910 H1904 0.949 . S
C1910 C1914 1.368 . S
C1911 C1892 1.429 . S
C1911 C1905 1.429 . S
C1911 C1912 1.523 . S
C1912 C1893 1.368 . S
C1912 C1906 1.368 . S
C1912 C1911 1.523 . S
C1913 C1897 1.429 . S
C1913 C1909 1.429 . S
C1913 C1914 1.523 . S
C1914 C1898 1.368 . S
C1914 C1910 1.368 . S
C1914 C1913 1.523 . S
H1915 C1890 0.950 . S
H1916 C1892 0.950 . S
H1917 C1893 0.949 . S
H1918 C1895 0.950 . S
H1919 C1897 0.950 . S
C1920 C1921 1.349 . S
C1920 C1922 1.327 . S
C1920 H1945 0.950 . S
C1921 C1920 1.349 . S
C1921 C1937 1.349 . S
C1922 C1920 1.327 . S
C1922 C1941 1.429 . S
C1922 H1946 0.950 . S
C1923 C1940 1.574 . S
C1923 C1942 1.368 . S
C1923 H1947 0.949 . S
H1924 C1928 0.949 . S
C1925 C1926 1.349 . S
C1925 C1927 1.327 . S
C1925 H1948 0.950 . S
C1926 C1925 1.349 . S
C1926 C1938 1.349 . S
C1927 C1925 1.327 . S
C1927 C1943 1.429 . S
C1927 H1949 0.950 . S
C1928 H1924 0.949 . S
C1928 C1936 1.574 . S
C1928 C1944 1.368 . S
H1929 C1937 0.950 . S
H1930 C1935 0.950 . S
H1931 C1936 0.949 . S
H1932 C1938 0.950 . S
H1933 C1939 0.950 . S
H1934 C1940 0.949 . S
C1935 H1930 0.950 . S
C1935 C1937 1.327 . S
C1935 C1941 1.429 . S
C1936 C1928 1.574 . S
C1936 H1931 0.949 . S
C1936 C1942 1.368 . S
C1937 C1921 1.349 . S
C1937 H1929 0.950 . S
C1937 C1935 1.327 . S
C1938 C1926 1.349 . S
C1938 H1932 0.950 . S
C1938 C1939 1.327 . S
C1939 H1933 0.950 . S
C1939 C1938 1.327 . S
C1939 C1943 1.429 . S
C1940 C1923 1.574 . S
C1940 H1934 0.949 . S
C1940 C1944 1.368 . S
C1941 C1922 1.429 . S
C1941 C1935 1.429 . S
C1941 C1942 1.523 . S
C1942 C1923 1.368 . S
C1942 C1936 1.368 . S
C1942 C1941 1.523 . S
C1943 C1927 1.429 . S
C1943 C1939 1.429 . S
C1943 C1944 1.523 . S
C1944 C1928 1.368 . S
C1944 C1940 1.368 . S
C1944 C1943 1.523 . S
H1945 C1920 0.950 . S
H1946 C1922 0.950 . S
H1947 C1923 0.949 . S
H1948 C1925 0.950 . S
H1949 C1927 0.950 . S
C1950 C1951 1.349 . S
C1950 C1952 1.327 . S
C1950 H1975 0.950 . S
C1951 C1950 1.349 . S
C1951 C1967 1.349 . S
C1952 C1950 1.327 . S
C1952 C1971 1.429 . S
C1952 H1976 0.950 . S
C1953 C1970 1.574 . S
C1953 C1972 1.368 . S
C1953 H1977 0.949 . S
H1954 C1958 0.949 . S
C1955 C1956 1.349 . S
C1955 C1957 1.327 . S
C1955 H1978 0.950 . S
C1956 C1955 1.349 . S
C1956 C1968 1.349 . S
C1957 C1955 1.327 . S
C1957 C1973 1.429 . S
C1957 H1979 0.950 . S
C1958 H1954 0.949 . S
C1958 C1966 1.574 . S
C1958 C1974 1.368 . S
H1959 C1967 0.950 . S
H1960 C1965 0.950 . S
H1961 C1966 0.949 . S
H1962 C1968 0.950 . S
H1963 C1969 0.950 . S
H1964 C1970 0.949 . S
C1965 H1960 0.950 . S
C1965 C1967 1.327 . S
C1965 C1971 1.429 . S
C1966 C1958 1.574 . S
C1966 H1961 0.949 . S
C1966 C1972 1.368 . S
C1967 C1951 1.349 . S
C1967 H1959 0.950 . S
C1967 C1965 1.327 . S
C1968 C1956 1.349 . S
C1968 H1962 0.950 . S
C1968 C1969 1.327 . S
C1969 H1963 0.950 . S
C1969 C1968 1.327 . S
C1969 C1973 1.429 . S
C1970 C1953 1.574 . S
C1970 H1964 0.949 . S
C1970 C1974 1.368 . S
C1971 C1952 1.429 . S
C1971 C1965 1.429 . S
C1971 C1972 1.523 . S
C1972 C1953 1.368 . S
C1972 C1966 1.368 . S
C1972 C1971 1.523 . S
C1973 C1957 1.429 . S
C1973 C1969 1.429 . S
C1973 C1974 1.523 . S
C1974 C1958 1.368 . S
C1974 C1970 1.368 . S
C1974 C1973 1.523 . S
H1975 C1950 0.950 . S
H1976 C1952 0.950 . S
H1977 C1953 0.949 . S
H1978 C1955 0.950 . S
H1979 C1957 0.950 . S
C1980 C1981 1.349 . S
C1980 C1982 1.327 . S
C1980 H2005 0.950 . S
C1981 C1980 1.349 . S
C1981 C1997 1.349 . S
C1982 C1980 1.327 . S
C1982 C2001 1.429 . S
C1982 H2006 0.950 . S
C1983 C2000 1.574 . S
C1983 C2002 1.368 . S
C1983 H2007 0.949 . S
H1984 C1988 0.949 . S
C1985 C1986 1.349 . S
C1985 C1987 1.327 . S
C1985 H2008 0.950 . S
C1986 C1985 1.349 . S
C1986 C1998 1.349 . S
C1987 C1985 1.327 . S
C1987 C2003 1.429 . S
C1987 H2009 0.950 . S
C1988 H1984 0.949 . S
C1988 C1996 1.574 . S
C1988 C2004 1.368 . S
H1989 C1997 0.950 . S
H1990 C1995 0.950 . S
H1991 C1996 0.949 . S
H1992 C1998 0.950 . S
H1993 C1999 0.950 . S
H1994 C2000 0.949 . S
C1995 H1990 0.950 . S
C1995 C1997 1.327 . S
C1995 C2001 1.429 . S
C1996 C1988 1.574 . S
C1996 H1991 0.949 . S
C1996 C2002 1.368 . S
C1997 C1981 1.349 . S
C1997 H1989 0.950 . S
C1997 C1995 1.327 . S
C1998 C1986 1.349 . S
C1998 H1992 0.950 . S
C1998 C1999 1.327 . S
C1999 H1993 0.950 . S
C1999 C1998 1.327 . S
C1999 C2003 1.429 . S
C2000 C1983 1.574 . S
C2000 H1994 0.949 . S
C2000 C2004 1.368 . S
C2001 C1982 1.429 . S
C2001 C1995 1.429 . S
C2001 C2002 1.523 . S
C2002 C1983 1.368 . S
C2002 C1996 1.368 . S
C2002 C2001 1.523 . S
C2003 C1987 1.429 . S
C2003 C1999 1.429 . S
C2003 C2004 1.523 . S
C2004 C1988 1.368 . S
C2004 C2000 1.368 . S
C2004 C2003 1.523 . S
H2005 C1980 0.950 . S
H2006 C1982 0.950 . S
H2007 C1983 0.949 . S
H2008 C1985 0.950 . S
H2009 C1987 0.950 . S
C2010 C2011 1.349 . S
C2010 C2012 1.327 . S
C2010 H2035 0.950 . S
C2011 C2010 1.349 . S
C2011 C2027 1.349 . S
C2012 C2010 1.327 . S
C2012 C2031 1.429 . S
C2012 H2036 0.950 . S
C2013 C2030 1.574 . S
C2013 C2032 1.368 . S
C2013 H2037 0.949 . S
H2014 C2018 0.949 . S
C2015 C2016 1.349 . S
C2015 C2017 1.327 . S
C2015 H2038 0.950 . S
C2016 C2015 1.349 . S
C2016 C2028 1.349 . S
C2017 C2015 1.327 . S
C2017 C2033 1.429 . S
C2017 H2039 0.950 . S
C2018 H2014 0.949 . S
C2018 C2026 1.574 . S
C2018 C2034 1.368 . S
H2019 C2027 0.950 . S
H2020 C2025 0.950 . S
H2021 C2026 0.949 . S
H2022 C2028 0.950 . S
H2023 C2029 0.950 . S
H2024 C2030 0.949 . S
C2025 H2020 0.950 . S
C2025 C2027 1.327 . S
C2025 C2031 1.429 . S
C2026 C2018 1.574 . S
C2026 H2021 0.949 . S
C2026 C2032 1.368 . S
C2027 C2011 1.349 . S
C2027 H2019 0.950 . S
C2027 C2025 1.327 . S
C2028 C2016 1.349 . S
C2028 H2022 0.950 . S
C2028 C2029 1.327 . S
C2029 H2023 0.950 . S
C2029 C2028 1.327 . S
C2029 C2033 1.429 . S
C2030 C2013 1.574 . S
C2030 H2024 0.949 . S
C2030 C2034 1.368 . S
C2031 C2012 1.429 . S
C2031 C2025 1.429 . S
C2031 C2032 1.523 . S
C2032 C2013 1.368 . S
C2032 C2026 1.368 . S
C2032 C2031 1.523 . S
C2033 C2017 1.429 . S
C2033 C2029 1.429 . S
C2033 C2034 1.523 . S
C2034 C2018 1.368 . S
C2034 C2030 1.368 . S
C2034 C2033 1.523 . S
H2035 C2010 0.950 . S
H2036 C2012 0.950 . S
H2037 C2013 0.949 . S
H2038 C2015 0.950 . S
H2039 C2017 0.950 . S
C2040 C2041 1.349 . S
C2040 C2042 1.327 . S
C2040 H2065 0.950 . S
C2041 C2040 1.349 . S
C2041 C2057 1.349 . S
C2042 C2040 1.327 . S
C2042 C2061 1.429 . S
C2042 H2066 0.950 . S
C2043 C2060 1.574 . S
C2043 C2062 1.368 . S
C2043 H2067 0.949 . S
H2044 C2048 0.949 . S
C2045 C2046 1.349 . S
C2045 C2047 1.327 . S
C2045 H2068 0.950 . S
C2046 C2045 1.349 . S
C2046 C2058 1.349 . S
C2047 C2045 1.327 . S
C2047 C2063 1.429 . S
C2047 H2069 0.950 . S
C2048 H2044 0.949 . S
C2048 C2056 1.574 . S
C2048 C2064 1.368 . S
H2049 C2057 0.950 . S
H2050 C2055 0.950 . S
H2051 C2056 0.949 . S
H2052 C2058 0.950 . S
H2053 C2059 0.950 . S
H2054 C2060 0.949 . S
C2055 H2050 0.950 . S
C2055 C2057 1.327 . S
C2055 C2061 1.429 . S
C2056 C2048 1.574 . S
C2056 H2051 0.949 . S
C2056 C2062 1.368 . S
C2057 C2041 1.349 . S
C2057 H2049 0.950 . S
C2057 C2055 1.327 . S
C2058 C2046 1.349 . S
C2058 H2052 0.950 . S
C2058 C2059 1.327 . S
C2059 H2053 0.950 . S
C2059 C2058 1.327 . S
C2059 C2063 1.429 . S
C2060 C2043 1.574 . S
C2060 H2054 0.949 . S
C2060 C2064 1.368 . S
C2061 C2042 1.429 . S
C2061 C2055 1.429 . S
C2061 C2062 1.523 . S
C2062 C2043 1.368 . S
C2062 C2056 1.368 . S
C2062 C2061 1.523 . S
C2063 C2047 1.429 . S
C2063 C2059 1.429 . S
C2063 C2064 1.523 . S
C2064 C2048 1.368 . S
C2064 C2060 1.368 . S
C2064 C2063 1.523 . S
H2065 C2040 0.950 . S
H2066 C2042 0.950 . S
H2067 C2043 0.949 . S
H2068 C2045 0.950 . S
H2069 C2047 0.950 . S
C2070 C2071 1.349 . S
C2070 C2072 1.327 . S
C2070 H2095 0.950 . S
C2071 C2070 1.349 . S
C2071 C2087 1.349 . S
C2072 C2070 1.327 . S
C2072 C2091 1.429 . S
C2072 H2096 0.950 . S
C2073 C2090 1.574 . S
C2073 C2092 1.368 . S
C2073 H2097 0.949 . S
H2074 C2078 0.949 . S
C2075 C2076 1.349 . S
C2075 C2077 1.327 . S
C2075 H2098 0.950 . S
C2076 C2075 1.349 . S
C2076 C2088 1.349 . S
C2077 C2075 1.327 . S
C2077 C2093 1.429 . S
C2077 H2099 0.950 . S
C2078 H2074 0.949 . S
C2078 C2086 1.574 . S
C2078 C2094 1.368 . S
H2079 C2087 0.950 . S
H2080 C2085 0.950 . S
H2081 C2086 0.949 . S
H2082 C2088 0.950 . S
H2083 C2089 0.950 . S
H2084 C2090 0.949 . S
C2085 H2080 0.950 . S
C2085 C2087 1.327 . S
C2085 C2091 1.429 . S
C2086 C2078 1.574 . S
C2086 H2081 0.949 . S
C2086 C2092 1.368 . S
C2087 C2071 1.349 . S
C2087 H2079 0.950 . S
C2087 C2085 1.327 . S
C2088 C2076 1.349 . S
C2088 H2082 0.950 . S
C2088 C2089 1.327 . S
C2089 H2083 0.950 . S
C2089 C2088 1.327 . S
C2089 C2093 1.429 . S
C2090 C2073 1.574 . S
C2090 H2084 0.949 . S
C2090 C2094 1.368 . S
C2091 C2072 1.429 . S
C2091 C2085 1.429 . S
C2091 C2092 1.523 . S
C2092 C2073 1.368 . S
C2092 C2086 1.368 . S
C2092 C2091 1.523 . S
C2093 C2077 1.429 . S
C2093 C2089 1.429 . S
C2093 C2094 1.523 . S
C2094 C2078 1.368 . S
C2094 C2090 1.368 . S
C2094 C2093 1.523 . S
H2095 C2070 0.950 . S
H2096 C2072 0.950 . S
H2097 C2073 0.949 . S
H2098 C2075 0.950 . S
H2099 C2077 0.950 . S
C2100 C2101 1.349 . S
C2100 C2102 1.327 . S
C2100 H2125 0.950 . S
C2101 C2100 1.349 . S
C2101 C2117 1.349 . S
C2102 C2100 1.327 . S
C2102 C2121 1.429 . S
C2102 H2126 0.950 . S
C2103 C2120 1.574 . S
C2103 C2122 1.368 . S
C2103 H2127 0.949 . S
H2104 C2108 0.949 . S
C2105 C2106 1.349 . S
C2105 C2107 1.327 . S
C2105 H2128 0.950 . S
C2106 C2105 1.349 . S
C2106 C2118 1.349 . S
C2107 C2105 1.327 . S
C2107 C2123 1.429 . S
C2107 H2129 0.950 . S
C2108 H2104 0.949 . S
C2108 C2116 1.574 . S
C2108 C2124 1.368 . S
H2109 C2117 0.950 . S
H2110 C2115 0.950 . S
H2111 C2116 0.949 . S
H2112 C2118 0.950 1_554 S
H2113 C2119 0.950 1_554 S
H2114 C2120 0.949 . S
C2115 H2110 0.950 . S
C2115 C2117 1.327 . S
C2115 C2121 1.429 . S
C2116 C2108 1.574 . S
C2116 H2111 0.949 . S
C2116 C2122 1.368 . S
C2117 C2101 1.349 . S
C2117 H2109 0.950 . S
C2117 C2115 1.327 . S
C2118 C2106 1.349 . S
C2118 H2112 0.950 1_556 S
C2118 C2119 1.327 . S
C2119 H2113 0.950 1_556 S
C2119 C2118 1.327 . S
C2119 C2123 1.429 . S
C2120 C2103 1.574 . S
C2120 H2114 0.949 . S
C2120 C2124 1.368 . S
C2121 C2102 1.429 . S
C2121 C2115 1.429 . S
C2121 C2122 1.523 . S
C2122 C2103 1.368 . S
C2122 C2116 1.368 . S
C2122 C2121 1.523 . S
C2123 C2107 1.429 . S
C2123 C2119 1.429 . S
C2123 C2124 1.523 . S
C2124 C2108 1.368 . S
C2124 C2120 1.368 . S
C2124 C2123 1.523 . S
H2125 C2100 0.950 . S
H2126 C2102 0.950 . S
H2127 C2103 0.949 . S
H2128 C2105 0.950 . S
H2129 C2107 0.950 . S
C2130 C2131 1.349 . S
C2130 C2132 1.327 . S
C2130 H2155 0.950 . S
C2131 C2130 1.349 . S
C2131 C2147 1.349 . S
C2132 C2130 1.327 . S
C2132 C2151 1.429 . S
C2132 H2156 0.950 . S
C2133 C2150 1.574 . S
C2133 C2152 1.368 . S
C2133 H2157 0.949 . S
H2134 C2138 0.949 . S
C2135 C2136 1.349 . S
C2135 C2137 1.327 . S
C2135 H2158 0.950 . S
C2136 C2135 1.349 . S
C2136 C2148 1.349 . S
C2137 C2135 1.327 . S
C2137 C2153 1.429 . S
C2137 H2159 0.950 . S
C2138 H2134 0.949 . S
C2138 C2146 1.574 . S
C2138 C2154 1.368 . S
H2139 C2147 0.950 . S
H2140 C2145 0.950 . S
H2141 C2146 0.949 . S
H2142 C2148 0.950 . S
H2143 C2149 0.950 . S
H2144 C2150 0.949 . S
C2145 H2140 0.950 . S
C2145 C2147 1.327 . S
C2145 C2151 1.429 . S
C2146 C2138 1.574 . S
C2146 H2141 0.949 . S
C2146 C2152 1.368 . S
C2147 C2131 1.349 . S
C2147 H2139 0.950 . S
C2147 C2145 1.327 . S
C2148 C2136 1.349 . S
C2148 H2142 0.950 . S
C2148 C2149 1.327 . S
C2149 H2143 0.950 . S
C2149 C2148 1.327 . S
C2149 C2153 1.429 . S
C2150 C2133 1.574 . S
C2150 H2144 0.949 . S
C2150 C2154 1.368 . S
C2151 C2132 1.429 . S
C2151 C2145 1.429 . S
C2151 C2152 1.523 . S
C2152 C2133 1.368 . S
C2152 C2146 1.368 . S
C2152 C2151 1.523 . S
C2153 C2137 1.429 . S
C2153 C2149 1.429 . S
C2153 C2154 1.523 . S
C2154 C2138 1.368 . S
C2154 C2150 1.368 . S
C2154 C2153 1.523 . S
H2155 C2130 0.950 . S
H2156 C2132 0.950 . S
H2157 C2133 0.949 . S
H2158 C2135 0.950 . S
H2159 C2137 0.950 . S
C2160 C2161 1.349 . S
C2160 C2162 1.327 . S
C2160 H2185 0.950 . S
C2161 C2160 1.349 . S
C2161 C2177 1.349 . S
C2162 C2160 1.327 . S
C2162 C2181 1.429 . S
C2162 H2186 0.971 . S
C2163 C2180 1.574 . S
C2163 C2182 1.368 . S
C2163 H2187 0.949 . S
H2164 C2168 0.949 1_556 S
C2165 C2166 1.349 . S
C2165 C2167 1.327 . S
C2165 H2188 0.950 . S
C2166 C2165 1.349 . S
C2166 C2178 1.349 1_554 S
C2167 C2165 1.327 . S
C2167 C2183 1.429 . S
C2167 H2189 0.950 . S
C2168 H2164 0.949 1_554 S
C2168 C2176 1.574 . S
C2168 C2184 1.368 . S
H2169 C2177 0.950 . S
H2170 C2175 0.950 . S
H2171 C2176 0.949 1_556 S
H2172 C2178 0.950 . S
H2173 C2179 0.950 . S
H2174 C2180 0.949 . S
C2175 H2170 0.950 . S
C2175 C2177 1.327 . S
C2175 C2181 1.429 . S
C2176 C2168 1.574 . S
C2176 H2171 0.949 1_554 S
C2176 C2182 1.368 . S
C2177 C2161 1.349 . S
C2177 H2169 0.950 . S
C2177 C2175 1.327 . S
C2178 C2166 1.349 1_556 S
C2178 H2172 0.950 . S
C2178 C2179 1.327 . S
C2179 H2173 0.950 . S
C2179 C2178 1.327 . S
C2179 C2183 1.429 1_556 S
C2180 C2163 1.574 . S
C2180 H2174 0.949 . S
C2180 C2184 1.368 . S
C2181 C2162 1.429 . S
C2181 C2175 1.429 . S
C2181 C2182 1.523 . S
C2182 C2163 1.368 . S
C2182 C2176 1.368 . S
C2182 C2181 1.523 . S
C2183 C2167 1.429 . S
C2183 C2179 1.429 1_554 S
C2183 C2184 1.523 . S
C2184 C2168 1.368 . S
C2184 C2180 1.368 . S
C2184 C2183 1.523 . S
H2185 C2160 0.950 . S
H2186 C2162 0.971 . S
H2187 C2163 0.949 . S
H2188 C2165 0.950 . S
H2189 C2167 0.950 . S
C2190 C2191 1.349 . S
C2190 C2192 1.327 . S
C2190 H2215 0.950 1_565 S
C2191 C2190 1.349 . S
C2191 C2207 1.349 . S
C2192 C2190 1.327 . S
C2192 C2211 1.429 . S
C2192 H2216 0.950 . S
C2193 C2210 1.574 . S
C2193 C2212 1.368 . S
C2193 H2217 0.949 . S
H2194 C2198 0.933 1_556 S
C2195 C2196 1.349 . S
C2195 C2197 1.327 . S
C2195 H2218 0.950 . S
C2196 C2195 1.349 . S
C2196 C2208 1.349 . S
C2197 C2195 1.327 . S
C2197 C2213 1.429 . S
C2197 H2219 0.950 . S
C2198 H2194 0.933 1_554 S
C2198 C2206 1.574 . S
C2198 C2214 1.368 . S
H2199 C2207 0.950 . S
H2200 C2205 0.950 . S
H2201 C2206 0.949 . S
H2202 C2208 0.950 1_556 S
H2203 C2209 0.950 1_556 S
H2204 C2210 0.949 . S
C2205 H2200 0.950 . S
C2205 C2207 1.327 . S
C2205 C2211 1.429 . S
C2206 C2198 1.574 . S
C2206 H2201 0.949 . S
C2206 C2212 1.368 . S
C2207 C2191 1.349 . S
C2207 H2199 0.950 . S
C2207 C2205 1.327 . S
C2208 C2196 1.349 . S
C2208 H2202 0.950 1_554 S
C2208 C2209 1.327 . S
C2209 H2203 0.950 1_554 S
C2209 C2208 1.327 . S
C2209 C2213 1.429 . S
C2210 C2193 1.574 . S
C2210 H2204 0.949 . S
C2210 C2214 1.368 . S
C2211 C2192 1.429 . S
C2211 C2205 1.429 . S
C2211 C2212 1.523 . S
C2212 C2193 1.368 . S
C2212 C2206 1.368 . S
C2212 C2211 1.523 . S
C2213 C2197 1.429 . S
C2213 C2209 1.429 . S
C2213 C2214 1.523 . S
C2214 C2198 1.368 . S
C2214 C2210 1.368 . S
C2214 C2213 1.523 . S
H2215 C2190 0.950 1_545 S
H2216 C2192 0.950 . S
H2217 C2193 0.949 . S
H2218 C2195 0.950 . S
H2219 C2197 0.950 . S
C786 C634 1.394 . S
C781 C211 1.402 . S
C816 C647 1.613 . S
C811 C255 1.625 . S
C841 C274 1.445 . S
C846 C660 1.434 . S
C876 C673 1.535 . S
C871 C157 1.548 . S
C906 C681 1.473 . S
C901 C391 1.501 . S
C936 C694 1.406 . S
C931 C484 1.425 . S
C961 C450 1.518 . S
C966 C707 1.491 . S
C996 C720 1.502 . S
C991 C352 1.521 . S
C1021 C430 1.423 . S
C1026 C738 1.411 . S
C1056 C749 1.532 . S
C1051 C367 1.562 . S
C1081 C411 1.471 . S
C1086 C733 1.445 . S
C1116 C741 1.458 . S
C1111 C469 1.485 . S
C1141 C294 1.490 . S
C1146 C764 1.479 . S
C1171 C177 1.525 . S
C1176 C754 1.495 . S
C1201 C196 1.511 . S
C1206 C759 1.482 . S
C1231 C235 1.580 . S
C1236 C762 1.544 1_655 S
C1261 C133 1.442 . S
C1266 C671 1.418 . S
C1291 C567 1.406 . S
C1296 C663 1.386 . S
C1326 C632 1.557 . S
C1321 C601 1.564 1_565 S
C1356 C637 1.492 . S
C1351 C328 1.515 . S
C1381 C172 1.551 . S
C1386 C684 1.521 . S
C1416 C723 1.510 . S
C1411 C445 1.533 . S
C1446 C676 1.506 . S
C1441 C372 1.534 . S
C1476 C702 1.437 . S
C1471 C489 1.468 . S
C1506 C712 1.394 . S
C1501 C562 1.402 . S
C1531 C606 1.625 . S
C1536 C725 1.613 . S
C1561 C313 1.445 . S
C1566 C686 1.433 . S
C1596 C699 1.535 . S
C1591 C508 1.548 . S
C1621 C118 1.501 . S
C1626 C655 1.472 . S
C1656 C668 1.406 . S
C1651 C16 1.425 . S
C1686 C629 1.491 . S
C1681 C60 1.518 . S
C1716 C642 1.502 . S
C1711 C79 1.520 . S
C1741 C40 1.423 . S
C1746 C751 1.411 . S
C1771 C94 1.562 . S
C1776 C736 1.527 1_655 S
C1801 C138 1.471 . S
C1806 C746 1.445 . S
C1831 C1 1.495 . S
C1836 C728 1.458 . S
C1866 C777 1.479 . S
C1861 C333 1.490 . S
C1896 C767 1.496 . S
C1891 C528 1.525 . S
C1926 C772 1.482 . S
C1921 C547 1.511 . S
C1951 C586 1.580 . S
C1956 C775 1.548 . S
C1981 C406 1.442 . S
C1986 C697 1.418 . S
C2016 C689 1.386 . S
C2011 C216 1.406 . S
C2046 C710 1.557 . S
C2041 C250 1.586 . S
C2076 C715 1.492 . S
C2071 C289 1.521 . S
C2101 C523 1.550 . S
C2106 C658 1.521 . S
C2136 C645 1.510 . S
C2131 C55 1.539 . S
C2161 C99 1.534 . S
C2166 C650 1.506 . S
C2196 C624 1.437 . S
C2191 C21 1.467 1_565 S
