# Generated by pormake.
# Topology llk, (3,12)-cn, num edge types: 1
# Building blocks:
#     Node 0, Type 0, BuildingBlock: PAMTOO_clean_linker_0, # of connection points: 3
#     Node 1, Type 0, BuildingBlock: PAMTOO_clean_linker_0, # of connection points: 3
#     Node 2, Type 0, BuildingBlock: PAMTOO_clean_linker_0, # of connection points: 3
#     Node 3, Type 0, BuildingBlock: PAMTOO_clean_linker_0, # of connection points: 3
#     Node 4, Type 0, BuildingBlock: PAMTOO_clean_linker_0, # of connection points: 3
#     Node 5, Type 0, BuildingBlock: PAMTOO_clean_linker_0, # of connection points: 3
#     Node 6, Type 0, BuildingBlock: PAMTOO_clean_linker_0, # of connection points: 3
#     Node 7, Type 0, BuildingBlock: PAMTOO_clean_linker_0, # of connection points: 3
#     Node 8, Type 0, BuildingBlock: PAMTOO_clean_linker_0, # of connection points: 3
#     Node 9, Type 0, BuildingBlock: PAMTOO_clean_linker_0, # of connection points: 3
#     Node 10, Type 0, BuildingBlock: PAMTOO_clean_linker_0, # of connection points: 3
#     Node 11, Type 0, BuildingBlock: PAMTOO_clean_linker_0, # of connection points: 3
#     Node 12, Type 0, BuildingBlock: PAMTOO_clean_linker_0, # of connection points: 3
#     Node 13, Type 0, BuildingBlock: PAMTOO_clean_linker_0, # of connection points: 3
#     Node 14, Type 0, BuildingBlock: PAMTOO_clean_linker_0, # of connection points: 3
#     Node 15, Type 0, BuildingBlock: PAMTOO_clean_linker_0, # of connection points: 3
#     Node 16, Type 0, BuildingBlock: PAMTOO_clean_linker_0, # of connection points: 3
#     Node 17, Type 0, BuildingBlock: PAMTOO_clean_linker_0, # of connection points: 3
#     Node 18, Type 0, BuildingBlock: PAMTOO_clean_linker_0, # of connection points: 3
#     Node 19, Type 0, BuildingBlock: PAMTOO_clean_linker_0, # of connection points: 3
#     Node 20, Type 0, BuildingBlock: PAMTOO_clean_linker_0, # of connection points: 3
#     Node 21, Type 0, BuildingBlock: PAMTOO_clean_linker_0, # of connection points: 3
#     Node 22, Type 0, BuildingBlock: PAMTOO_clean_linker_0, # of connection points: 3
#     Node 23, Type 0, BuildingBlock: PAMTOO_clean_linker_0, # of connection points: 3
#     Node 24, Type 1, BuildingBlock: EZIPEK_clean_sbu_0, # of connection points: 12
#     Node 25, Type 1, BuildingBlock: EZIPEK_clean_sbu_0, # of connection points: 12
#     Node 26, Type 1, BuildingBlock: EZIPEK_clean_sbu_0, # of connection points: 12
#     Node 27, Type 1, BuildingBlock: EZIPEK_clean_sbu_0, # of connection points: 12
#     Node 28, Type 1, BuildingBlock: EZIPEK_clean_sbu_0, # of connection points: 12
#     Node 29, Type 1, BuildingBlock: EZIPEK_clean_sbu_0, # of connection points: 12
#     Edge 30, Type (0, 1), None
#     Edge 31, Type (0, 1), None
#     Edge 32, Type (0, 1), None
#     Edge 33, Type (0, 1), None
#     Edge 34, Type (0, 1), None
#     Edge 35, Type (0, 1), None
#     Edge 36, Type (0, 1), None
#     Edge 37, Type (0, 1), None
#     Edge 38, Type (0, 1), None
#     Edge 39, Type (0, 1), None
#     Edge 40, Type (0, 1), None
#     Edge 41, Type (0, 1), None
#     Edge 42, Type (0, 1), None
#     Edge 43, Type (0, 1), None
#     Edge 44, Type (0, 1), None
#     Edge 45, Type (0, 1), None
#     Edge 46, Type (0, 1), None
#     Edge 47, Type (0, 1), None
#     Edge 48, Type (0, 1), None
#     Edge 49, Type (0, 1), None
#     Edge 50, Type (0, 1), None
#     Edge 51, Type (0, 1), None
#     Edge 52, Type (0, 1), None
#     Edge 53, Type (0, 1), None
#     Edge 54, Type (0, 1), None
#     Edge 55, Type (0, 1), None
#     Edge 56, Type (0, 1), None
#     Edge 57, Type (0, 1), None
#     Edge 58, Type (0, 1), None
#     Edge 59, Type (0, 1), None
#     Edge 60, Type (0, 1), None
#     Edge 61, Type (0, 1), None
#     Edge 62, Type (0, 1), None
#     Edge 63, Type (0, 1), None
#     Edge 64, Type (0, 1), None
#     Edge 65, Type (0, 1), None
#     Edge 66, Type (0, 1), None
#     Edge 67, Type (0, 1), None
#     Edge 68, Type (0, 1), None
#     Edge 69, Type (0, 1), None
#     Edge 70, Type (0, 1), None
#     Edge 71, Type (0, 1), None
#     Edge 72, Type (0, 1), None
#     Edge 73, Type (0, 1), None
#     Edge 74, Type (0, 1), None
#     Edge 75, Type (0, 1), None
#     Edge 76, Type (0, 1), None
#     Edge 77, Type (0, 1), None
#     Edge 78, Type (0, 1), None
#     Edge 79, Type (0, 1), None
#     Edge 80, Type (0, 1), None
#     Edge 81, Type (0, 1), None
#     Edge 82, Type (0, 1), None
#     Edge 83, Type (0, 1), None
#     Edge 84, Type (0, 1), None
#     Edge 85, Type (0, 1), None
#     Edge 86, Type (0, 1), None
#     Edge 87, Type (0, 1), None
#     Edge 88, Type (0, 1), None
#     Edge 89, Type (0, 1), None
#     Edge 90, Type (0, 1), None
#     Edge 91, Type (0, 1), None
#     Edge 92, Type (0, 1), None
#     Edge 93, Type (0, 1), None
#     Edge 94, Type (0, 1), None
#     Edge 95, Type (0, 1), None
#     Edge 96, Type (0, 1), None
#     Edge 97, Type (0, 1), None
#     Edge 98, Type (0, 1), None
#     Edge 99, Type (0, 1), None
#     Edge 100, Type (0, 1), None
#     Edge 101, Type (0, 1), None
# Relax obj value: 0.076
# Max RMSD: 0.164
# Mean RMSD: 0.124
data_MOF--net-llk--node1-EZIPEK_clean_sbu_0--node2-PAMTOO_clean_linker_0--edge1-none
_symmetry_space_group_name_H-M    P1
_symmetry_Int_Tables_number       1
_symmetry_cell_setting            triclinic
loop_
_symmetry_equiv_pos_as_xyz
'x, y, z'
_cell_length_a     22.85199
_cell_length_b     23.77552
_cell_length_c     23.281107
_cell_angle_alpha  89.974765
_cell_angle_beta   89.998916
_cell_angle_gamma 89.999937
loop_
_atom_site_label
_atom_site_type_symbol
_atom_site_fract_x
_atom_site_fract_y
_atom_site_fract_z
_atom_type_partial_charge
H0 H 0.01248 0.42368 0.2662 0.0
H1 H 0.04019 0.27589 0.36734 0.0
H2 H 0.0375 0.26489 0.18233 0.0
H3 H 0.97654 0.14697 0.271 0.0
C4 C 0.99363 0.17385 0.30623 0.0
O5 O 0.0399 0.20585 0.28426 0.0
H6 H 0.95655 0.2013 0.31957 0.0
C7 C 0.02181 0.37917 0.26825 0.0
C8 C 0.02924 0.35 0.21742 0.0
C9 C 0.0277 0.35369 0.32164 0.0
C10 C 0.03603 0.29593 0.32571 0.0
C11 C 0.03638 0.26282 0.27639 0.0
C12 C 0.0343 0.28987 0.22105 0.0
H13 H 0.77894 0.95099 0.41708 0.0
H14 H 0.67265 0.97441 0.26846 0.0
H15 H 0.8564 1.0138 0.26103 0.0
H16 H 0.74468 0.08796 0.17131 0.0
C17 C 0.7184 0.05357 0.19079 0.0
O18 O 0.75519 1.00865 0.20273 0.0
H19 H 0.69764 0.07136 0.23012 0.0
C20 C 0.77561 0.96237 0.37205 0.0
C21 C 0.82529 0.98178 0.34296 0.0
C22 C 0.72012 0.96658 0.34739 0.0
C23 C 0.71543 0.97371 0.28856 0.0
C24 C 0.76436 0.99084 0.25706 0.0
C25 C 0.81958 0.99653 0.2844 0.0
H26 H 0.04818 0.76251 0.42751 0.0
H27 H 0.04627 0.66509 0.27416 0.0
H28 H 0.02731 0.84558 0.26402 0.0
H29 H 0.96513 0.74675 0.15076 0.0
C30 C 0.99085 0.71674 0.17724 0.0
O31 O 0.03614 0.74651 0.20372 0.0
H32 H 0.95959 0.69936 0.2094 0.0
C33 C 0.04395 0.76164 0.38122 0.0
C34 C 0.0369 0.81187 0.35101 0.0
C35 C 0.04282 0.70932 0.35423 0.0
C36 C 0.0447 0.70583 0.29501 0.0
C37 C 0.03871 0.75417 0.26178 0.0
C38 C 0.03342 0.80801 0.28959 0.0
H39 H 0.43088 0.01816 0.26385 0.0
H40 H 0.27996 0.98269 0.3648 0.0
H41 H 0.26369 1.00791 0.18126 0.0
H42 H 0.16256 0.07915 0.29618 0.0
C43 C 0.18971 0.04943 0.32164 0.0
O44 O 0.20774 1.00657 0.28489 0.0
H45 H 0.22692 0.07414 0.3396 0.0
C46 C 0.38471 1.00856 0.26565 0.0
C47 C 0.353 1.0057 0.21375 0.0
C48 C 0.35919 0.99995 0.32003 0.0
C49 C 0.30017 0.98959 0.32325 0.0
C50 C 0.26527 0.99799 0.27472 0.0
C51 C 0.29112 1.00418 0.21897 0.0
H52 H 0.01587 0.60747 0.76384 0.0
H53 H 0.04025 0.75586 0.66289 0.0
H54 H 0.03651 0.76676 0.84793 0.0
H55 H 0.97523 0.88419 0.75868 0.0
C56 C 0.99294 0.85751 0.72358 0.0
O57 O 0.03924 0.82583 0.74602 0.0
H58 H 0.9569 0.82929 0.7092 0.0
C59 C 0.02388 0.6522 0.76189 0.0
C60 C 0.03001 0.68152 0.8128 0.0
C61 C 0.02897 0.67786 0.70852 0.0
C62 C 0.03644 0.73573 0.70451 0.0
C63 C 0.03626 0.76882 0.75386 0.0
C64 C 0.0341 0.74173 0.80919 0.0
H65 H 0.4308 1.01324 0.76629 0.0
H66 H 0.27997 0.0491 0.66535 0.0
H67 H 0.26366 0.02394 0.8489 0.0
H68 H 0.16317 0.95184 0.73378 0.0
C69 C 0.18974 0.98228 0.70863 0.0
O70 O 0.20774 0.02525 0.74526 0.0
H71 H 0.22693 0.95761 0.69057 0.0
C72 C 0.38466 0.02298 0.76449 0.0
C73 C 0.35297 0.02597 0.8164 0.0
C74 C 0.35916 0.03167 0.71012 0.0
C75 C 0.30018 0.04216 0.70691 0.0
C76 C 0.26525 0.03382 0.75544 0.0
C77 C 0.2911 0.0276 0.81119 0.0
H78 H 0.04792 0.26906 0.60261 0.0
H79 H 0.04616 0.36651 0.75595 0.0
H80 H 0.02743 0.186 0.76615 0.0
H81 H 0.96537 0.28469 0.87954 0.0
C82 C 0.99098 0.31477 0.85303 0.0
O83 O 0.03626 0.28509 0.82642 0.0
H84 H 0.95962 0.33211 0.82094 0.0
C85 C 0.04376 0.26994 0.64891 0.0
C86 C 0.03682 0.21969 0.67913 0.0
C87 C 0.04265 0.32226 0.67588 0.0
C88 C 0.04458 0.32576 0.7351 0.0
C89 C 0.03869 0.27742 0.76835 0.0
C90 C 0.03344 0.22357 0.74056 0.0
H91 H 0.77893 0.08058 0.61311 0.0
H92 H 0.67269 0.05709 0.76175 0.0
H93 H 0.85645 0.01775 0.76911 0.0
H94 H 0.74481 0.94362 0.85896 0.0
C95 C 0.71851 0.97797 0.83943 0.0
O96 O 0.75526 0.0229 0.82746 0.0
H97 H 0.69779 0.96012 0.80011 0.0
C98 C 0.77561 0.06918 0.65813 0.0
C99 C 0.8253 0.04976 0.68719 0.0
C100 C 0.72013 0.06497 0.68281 0.0
C101 C 0.71546 0.05781 0.74163 0.0
C102 C 0.76441 0.04069 0.77311 0.0
C103 C 0.81961 0.03502 0.74576 0.0
H104 H 0.27536 0.41452 0.06218 0.0
H105 H 0.37481 0.27367 1.00498 0.0
H106 H 0.18827 0.25764 0.02969 0.0
H107 H 0.30372 0.15329 0.0959 0.0
C108 C 0.3305 0.18017 0.06702 0.0
O109 O 0.29395 0.20231 0.02464 0.0
H110 H 0.34994 0.21326 0.09506 0.0
C111 C 0.2761 0.37143 0.04712 0.0
C112 C 0.22326 0.34259 0.03909 0.0
C113 C 0.33001 0.348 0.03187 0.0
C114 C 0.33299 0.29235 0.01601 0.0
C115 C 0.28376 0.25837 0.02207 0.0
C116 C 0.22731 0.2834 0.03044 0.0
H117 H 0.27534 0.61709 0.96803 0.0
H118 H 0.37482 0.75796 0.02511 0.0
H119 H 0.18826 0.77395 1.00061 0.0
H120 H 0.30356 0.8784 0.93437 0.0
C121 C 0.3304 0.85151 0.96319 0.0
O122 O 0.29392 0.82931 1.00559 0.0
H123 H 0.34981 0.81845 0.9351 0.0
C124 C 0.27609 0.66018 0.98308 0.0
C125 C 0.22325 0.68901 0.99116 0.0
C126 C 0.33001 0.68361 0.99827 0.0
C127 C 0.333 0.73927 1.01412 0.0
C128 C 0.28376 0.77324 1.00813 0.0
C129 C 0.2273 0.7482 0.99981 0.0
H130 H 0.77548 0.42091 0.06005 0.0
H131 H 0.67087 0.27382 0.04761 0.0
H132 H 0.85702 0.26244 0.01697 0.0
H133 H 0.74414 0.1696 0.9432 0.0
C134 C 0.7169 0.19002 0.97678 0.0
O135 O 0.75333 0.20618 0.02185 0.0
H136 H 0.69542 0.2266 0.95553 0.0
C137 C 0.77356 0.37607 0.05197 0.0
C138 C 0.82521 0.34603 0.03932 0.0
C139 C 0.71809 0.35127 0.04928 0.0
C140 C 0.71367 0.29349 0.04709 0.0
C141 C 0.76301 0.26113 0.0344 0.0
C142 C 0.81933 0.28722 0.02931 0.0
H143 H 0.7755 0.61064 0.97005 0.0
H144 H 0.6709 0.75773 0.98245 0.0
H145 H 0.85698 0.76904 1.01348 0.0
H146 H 0.74416 0.86228 0.08664 0.0
C147 C 0.71669 0.84146 0.0535 0.0
O148 O 0.75332 0.82532 1.00857 0.0
H149 H 0.69506 0.80473 0.07432 0.0
C150 C 0.77357 0.65547 0.97817 0.0
C151 C 0.8252 0.68549 0.99092 0.0
C152 C 0.7181 0.68028 0.98081 0.0
C153 C 0.7137 0.73806 0.98303 0.0
C154 C 0.76302 0.77039 0.9959 0.0
C155 C 0.81931 0.74428 1.00103 0.0
H156 H 0.51267 0.92372 0.76618 0.0
H157 H 0.54014 0.77586 0.86728 0.0
H158 H 0.53737 0.76489 0.68227 0.0
H159 H 0.4764 0.64698 0.77101 0.0
C160 C 0.49354 0.67387 0.80622 0.0
O161 O 0.5398 0.70584 0.7842 0.0
H162 H 0.45647 0.70133 0.81958 0.0
C163 C 0.5219 0.87919 0.76822 0.0
C164 C 0.52924 0.85001 0.71737 0.0
C165 C 0.52774 0.85369 0.8216 0.0
C166 C 0.536 0.79591 0.82566 0.0
C167 C 0.53631 0.76282 0.77633 0.0
C168 C 0.53422 0.78987 0.721 0.0
H169 H 0.27894 0.45098 0.91711 0.0
H170 H 0.17265 0.47441 0.76849 0.0
H171 H 0.35641 0.51373 0.76105 0.0
H172 H 0.24482 0.58786 0.67125 0.0
C173 C 0.21849 0.55352 0.69075 0.0
O174 O 0.25521 0.50856 0.70274 0.0
H175 H 0.19775 0.57136 0.73007 0.0
C176 C 0.2756 0.46236 0.87209 0.0
C177 C 0.32528 0.48176 0.843 0.0
C178 C 0.22012 0.46656 0.84742 0.0
C179 C 0.21543 0.4737 0.78859 0.0
C180 C 0.26436 0.49079 0.75709 0.0
C181 C 0.31958 0.49647 0.78442 0.0
H182 H 0.54841 0.26252 0.92753 0.0
H183 H 0.54633 0.16509 0.7742 0.0
H184 H 0.52729 0.34557 0.76407 0.0
H185 H 0.46516 0.24676 0.6508 0.0
C186 C 0.49089 0.21674 0.67727 0.0
O187 O 0.53618 0.24651 0.70375 0.0
H188 H 0.45964 0.19935 0.70943 0.0
C189 C 0.54412 0.26165 0.88125 0.0
C190 C 0.53697 0.31188 0.85105 0.0
C191 C 0.54296 0.20933 0.85426 0.0
C192 C 0.54478 0.20584 0.79504 0.0
C193 C 0.53875 0.25417 0.76181 0.0
C194 C 0.53345 0.30801 0.78963 0.0
H195 H 0.93082 0.51861 0.76389 0.0
H196 H 0.78004 0.48249 0.86481 0.0
H197 H 0.7637 0.50767 0.68128 0.0
H198 H 0.66315 0.57968 0.79638 0.0
C199 C 0.68973 0.54926 0.82155 0.0
O200 O 0.70778 0.50629 0.78492 0.0
H201 H 0.7269 0.57395 0.83961 0.0
C202 C 0.88469 0.5088 0.76568 0.0
C203 C 0.85301 0.50577 0.71378 0.0
C204 C 0.85921 0.50004 0.82005 0.0
C205 C 0.80023 0.48947 0.82326 0.0
C206 C 0.7653 0.49779 0.77474 0.0
C207 C 0.79114 0.50405 0.71899 0.0
H208 H 0.51298 0.10782 0.26395 0.0
H209 H 0.54011 0.25573 0.16284 0.0
H210 H 0.53735 0.26671 0.34785 0.0
H211 H 0.47652 0.38469 0.25916 0.0
C212 C 0.49359 0.35777 0.22394 0.0
O213 O 0.53984 0.32575 0.24592 0.0
H214 H 0.45649 0.33034 0.21062 0.0
C215 C 0.52209 0.15237 0.26192 0.0
C216 C 0.52932 0.18157 0.31276 0.0
C217 C 0.52784 0.17788 0.20853 0.0
C218 C 0.53601 0.23567 0.20447 0.0
C219 C 0.53632 0.26878 0.25379 0.0
C220 C 0.53424 0.24172 0.30913 0.0
H221 H 0.93076 0.51305 0.26631 0.0
H222 H 0.77997 0.54901 0.16537 0.0
H223 H 0.76363 0.52391 0.34892 0.0
H224 H 0.66245 0.45266 0.23409 0.0
C225 C 0.68962 0.48232 0.20858 0.0
O226 O 0.70769 0.52523 0.24527 0.0
H227 H 0.72681 0.45755 0.19067 0.0
C228 C 0.88463 0.52283 0.26452 0.0
C229 C 0.85294 0.52586 0.31642 0.0
C230 C 0.85914 0.53154 0.21014 0.0
C231 C 0.80016 0.54205 0.20692 0.0
C232 C 0.76522 0.53374 0.25545 0.0
C233 C 0.79107 0.52753 0.3112 0.0
H234 H 0.54815 0.76913 0.10261 0.0
H235 H 0.54622 0.86653 0.25596 0.0
H236 H 0.52722 0.68603 0.26608 0.0
H237 H 0.46567 0.78469 0.37973 0.0
C238 C 0.49088 0.81491 0.35302 0.0
O239 O 0.53608 0.78509 0.32641 0.0
H240 H 0.46007 0.8326 0.32062 0.0
C241 C 0.54391 0.76999 0.1489 0.0
C242 C 0.53684 0.71974 0.17909 0.0
C243 C 0.54276 0.8223 0.17589 0.0
C244 C 0.54464 0.82578 0.23511 0.0
C245 C 0.53862 0.77744 0.26834 0.0
C246 C 0.53334 0.7236 0.24052 0.0
H247 H 0.27894 0.58063 0.11311 0.0
H248 H 0.17271 0.55714 0.26176 0.0
H249 H 0.35646 0.51774 0.26909 0.0
H250 H 0.24475 0.44356 0.35886 0.0
C251 C 0.21848 0.47794 0.33936 0.0
O252 O 0.25527 0.52286 0.32743 0.0
H253 H 0.19775 0.46014 0.30002 0.0
C254 C 0.27563 0.56923 0.15813 0.0
C255 C 0.32532 0.54981 0.18719 0.0
C256 C 0.22015 0.56501 0.18282 0.0
C257 C 0.21548 0.55786 0.24164 0.0
C258 C 0.26443 0.54071 0.27311 0.0
C259 C 0.31963 0.53503 0.24575 0.0
H260 H 0.77536 0.91453 0.5621 0.0
H261 H 0.87482 0.77366 0.50499 0.0
H262 H 0.68828 0.75764 0.52969 0.0
H263 H 0.80376 0.65327 0.59592 0.0
C264 C 0.83053 0.68016 0.56704 0.0
O265 O 0.79396 0.7023 0.52467 0.0
H266 H 0.84996 0.71325 0.59508 0.0
C267 C 0.7761 0.87144 0.54706 0.0
C268 C 0.72326 0.84259 0.53904 0.0
C269 C 0.83001 0.848 0.53182 0.0
C270 C 0.833 0.79234 0.516 0.0
C271 C 0.78377 0.75837 0.52208 0.0
C272 C 0.72731 0.7834 0.53043 0.0
H273 H 0.77536 0.1171 0.46802 0.0
H274 H 0.87485 0.25795 0.52515 0.0
H275 H 0.6883 0.27399 0.50057 0.0
H276 H 0.80368 0.37837 0.43433 0.0
C277 C 0.83049 0.35149 0.46319 0.0
O278 O 0.79397 0.32931 0.50558 0.0
H279 H 0.84994 0.31842 0.43513 0.0
C280 C 0.77611 0.16019 0.48307 0.0
C281 C 0.72327 0.18904 0.49114 0.0
C282 C 0.83003 0.18361 0.49829 0.0
C283 C 0.83302 0.23927 0.51414 0.0
C284 C 0.7838 0.27325 0.50812 0.0
C285 C 0.72733 0.24823 0.49978 0.0
H286 H 0.27546 0.92091 0.56005 0.0
H287 H 0.1709 0.7738 0.5475 0.0
H288 H 0.35703 0.76254 0.51669 0.0
H289 H 0.24436 0.66914 0.4435 0.0
C290 C 0.21684 0.69001 0.47657 0.0
O291 O 0.2534 0.70622 0.52153 0.0
H292 H 0.19525 0.72672 0.45566 0.0
C293 C 0.27354 0.87607 0.55192 0.0
C294 C 0.32521 0.84607 0.53921 0.0
C295 C 0.21808 0.85126 0.54923 0.0
C296 C 0.2137 0.79348 0.54696 0.0
C297 C 0.26304 0.76116 0.53416 0.0
C298 C 0.31934 0.78728 0.52909 0.0
H299 H 0.27548 0.11064 0.47016 0.0
H300 H 0.17085 0.25771 0.48249 0.0
H301 H 0.35697 0.26913 0.51324 0.0
H302 H 0.24397 0.36187 0.58701 0.0
C303 C 0.21678 0.34149 0.55337 0.0
O304 O 0.25327 0.32536 0.50834 0.0
H305 H 0.19525 0.3049 0.57456 0.0
C306 C 0.27355 0.15548 0.47822 0.0
C307 C 0.32519 0.18553 0.49088 0.0
C308 C 0.21808 0.18027 0.48088 0.0
C309 C 0.21366 0.23806 0.48304 0.0
C310 C 0.26298 0.27042 0.49577 0.0
C311 C 0.31929 0.24434 0.50088 0.0
C312 C 1.00989 0.89491 0.67235 0.0
C313 C 0.03107 0.86443 0.38774 0.0
C314 C 0.03104 0.16712 0.6424 0.0
C315 C 1.00995 0.13651 0.35768 0.0
C316 C 0.88101 0.14699 0.50131 0.0
C317 C 0.881 0.88463 0.52877 0.0
C318 C 0.16696 0.14418 0.49191 0.0
C319 C 0.16694 0.88736 0.53822 0.0
C320 C 0.15316 0.02613 0.36996 0.0
C321 C 0.87735 0.99415 0.37935 0.0
C322 C 0.15305 1.00514 0.66022 0.0
C323 C 0.87735 0.03741 0.65078 0.0
Eu324 Eu 0.02312 0.90829 0.52833 0.0
O325 O 0.97111 0.95785 0.46967 0.0
O326 O 0.06938 0.97426 0.57147 0.0
Eu327 Eu 0.91709 0.0158 0.51506 0.0
Eu328 Eu 0.12897 0.01576 0.5151 0.0
O329 O 0.97171 0.97101 0.573 0.0
O330 O 0.07304 0.95887 0.46808 0.0
Eu331 Eu 0.01889 0.02947 0.6258 0.0
Eu332 Eu 0.01891 1.002 0.40434 0.0
O333 O 0.97118 0.07378 0.56042 0.0
O334 O 0.97175 0.06064 0.45709 0.0
O335 O 0.0693 0.05728 0.45875 0.0
O336 O 0.07293 0.07272 0.562 0.0
Eu337 Eu 0.02313 0.12337 0.50175 0.0
O338 O 0.01443 0.87096 0.62003 0.0
O339 O 0.02973 0.85598 0.44519 0.0
O340 O 0.02971 0.17559 0.58495 0.0
O341 O 0.01477 0.16057 0.40992 0.0
O342 O 0.86699 0.09341 0.50602 0.0
O343 O 0.86697 0.93821 0.52412 0.0
O344 O 0.18044 0.09412 0.51313 0.0
O345 O 0.18043 0.9374 0.517 0.0
O346 O 0.10015 1.01117 0.35343 0.0
O347 O 0.93137 0.98995 0.35821 0.0
O348 O 0.10008 0.02023 0.67675 0.0
O349 O 0.93137 0.04153 0.67194 0.0
O350 O 0.11254 0.16386 0.48405 0.0
O351 O 0.93517 0.16834 0.50052 0.0
O352 O 0.1125 0.86772 0.54609 0.0
O353 O 0.93516 0.86328 0.5295 0.0
O354 O 0.02776 0.91496 0.36282 0.0
O355 O 1.00989 0.08086 0.34779 0.0
O356 O 1.00975 0.95055 0.6823 0.0
O357 O 0.02776 0.11656 0.66731 0.0
O358 O 0.86478 0.02554 0.59622 0.0
O359 O 0.86477 1.00608 0.4339 0.0
O360 O 0.17238 1.00265 0.6053 0.0
O361 O 0.17235 0.02896 0.42491 0.0
C362 C 0.53449 0.87201 0.14024 0.0
C363 C 0.52709 0.14171 0.15824 0.0
C364 C 0.527 0.88987 0.87189 0.0
C365 C 0.5347 0.15963 0.88993 0.0
C366 C 0.6718 0.99604 0.88081 0.0
C367 C 0.67173 0.0355 0.14937 0.0
C368 C 0.38961 0.02611 0.87123 0.0
C369 C 0.38963 1.00556 0.1589 0.0
C370 C 0.37924 0.14506 0.04167 0.0
C371 C 0.67025 0.14922 0.99663 0.0
C372 C 0.37916 0.88663 0.98849 0.0
C373 C 0.67025 0.88222 0.03306 0.0
Eu374 Eu 0.53007 1.00788 0.1207 0.0
O375 O 0.57997 0.0631 0.06784 0.0
O376 O 0.47334 0.96203 0.06251 0.0
Eu377 Eu 0.63872 0.01576 0.0151 0.0
Eu378 Eu 0.41362 0.01585 0.01508 0.0
O379 O 0.58029 0.96171 0.06072 0.0
O380 O 0.47621 0.06002 0.06716 0.0
Eu381 Eu 0.5259 0.90934 1.00789 0.0
Eu382 Eu 0.52598 0.12226 0.02229 0.0
O383 O 0.57984 0.96857 0.96227 0.0
O384 O 0.58022 0.06973 0.96939 0.0
O385 O 0.47347 0.06955 0.96755 0.0
O386 O 0.47627 0.9717 0.96294 0.0
Eu387 Eu 0.5301 0.02374 0.90927 0.0
O388 O 0.54585 0.92288 0.16153 0.0
O389 O 0.51946 0.08734 0.16931 0.0
O390 O 0.51946 0.94423 0.86078 0.0
O391 O 0.54596 0.10876 0.86857 0.0
O392 O 0.6891 0.99893 0.93495 0.0
O393 O 0.68908 0.0326 0.09526 0.0
O394 O 0.36723 0.01926 0.92457 0.0
O395 O 0.36723 1.01244 0.10558 0.0
O396 O 0.43537 0.16319 0.0439 0.0
O397 O 0.6152 0.16775 1.00676 0.0
O398 O 0.43527 0.86844 0.9863 0.0
O399 O 0.61506 0.86379 0.0235 0.0
O400 O 0.44647 0.03302 0.86044 0.0
O401 O 0.61721 1.00625 0.86179 0.0
O402 O 0.4465 0.99864 0.16965 0.0
O403 O 0.61711 0.02532 0.16833 0.0
O404 O 0.53569 0.16449 0.10698 0.0
O405 O 0.51471 0.17033 0.9422 0.0
O406 O 0.51445 0.86132 0.08799 0.0
O407 O 0.53557 0.86709 0.92318 0.0
O408 O 0.68747 0.93558 0.0321 0.0
O409 O 0.68751 0.09588 0.99788 0.0
O410 O 0.362 0.93723 1.00488 0.0
O411 O 0.36204 0.09448 0.02524 0.0
C412 C 0.03096 0.38663 0.16433 0.0
C413 C 0.01204 0.36308 0.89127 0.0
C414 C 0.01194 0.66846 0.139 0.0
C415 C 0.03128 0.64495 0.86598 0.0
C416 C 0.87981 0.65002 0.99953 0.0
C417 C 0.87983 0.38152 0.03072 0.0
C418 C 0.16916 0.65221 0.99477 0.0
C419 C 0.16916 0.37939 0.03551 0.0
C420 C 0.17052 0.47927 0.88533 0.0
C421 C 0.89655 0.50269 0.8717 0.0
C422 C 0.17054 0.55229 0.14493 0.0
C423 C 0.89649 0.52889 0.1585 0.0
Eu424 Eu 0.02596 0.40486 0.02681 0.0
O425 O 0.9779 0.46044 0.97084 0.0
O426 O 0.07889 0.46797 0.07137 0.0
Eu427 Eu 0.91898 0.51576 0.01512 0.0
Eu428 Eu 0.13364 0.51578 0.01514 0.0
O429 O 0.97767 0.47059 0.07102 0.0
O430 O 0.07854 0.45756 0.97113 0.0
Eu431 Eu 0.03126 0.52736 0.12169 0.0
Eu432 Eu 0.03126 0.50415 0.90861 0.0
O433 O 0.97796 0.57112 0.05936 0.0
O434 O 0.97771 0.56103 0.95926 0.0
O435 O 0.07886 0.56366 0.95892 0.0
O436 O 0.07852 0.57409 0.05915 0.0
Eu437 Eu 0.02596 0.62679 1.00346 0.0
O438 O 0.02631 0.36234 0.1133 0.0
O439 O 0.01782 0.35052 0.94688 0.0
O440 O 0.01776 0.68106 0.08341 0.0
O441 O 0.02645 0.6693 0.91695 0.0
O442 O 0.86777 0.59588 1.00869 0.0
O443 O 0.86777 0.43564 0.02154 0.0
O444 O 0.18124 0.59703 0.99595 0.0
O445 O 0.18124 0.43456 0.03434 0.0
O446 O 0.11679 0.48396 0.86356 0.0
O447 O 0.95229 0.50151 0.85818 0.0
O448 O 0.11681 0.54754 0.16671 0.0
O449 O 0.95223 0.53012 0.17203 0.0
O450 O 0.11506 0.67363 1.00014 0.0
O451 O 0.9345 0.67098 0.99562 0.0
O452 O 0.11505 0.35798 0.03015 0.0
O453 O 0.93453 0.36058 0.03464 0.0
O454 O 0.01542 0.41542 0.86894 0.0
O455 O 0.03562 0.58847 0.85769 0.0
O456 O 0.0354 0.44309 0.17274 0.0
O457 O 0.01534 0.6161 0.16131 0.0
O458 O 0.87445 0.5242 0.10487 0.0
O459 O 0.87449 0.50732 0.92533 0.0
O460 O 0.18539 0.53934 0.09161 0.0
O461 O 0.18538 0.49224 0.93865 0.0
C462 C 0.50993 0.3951 0.17247 0.0
C463 C 0.53103 0.66719 0.14234 0.0
C464 C 0.5311 0.36442 0.88779 0.0
C465 C 0.50988 0.63653 0.85767 0.0
C466 C 0.65304 0.52638 0.86995 0.0
C467 C 0.65311 0.50556 0.16022 0.0
C468 C 0.37734 0.49413 0.87938 0.0
C469 C 0.37736 0.53744 0.15077 0.0
C470 C 0.381 0.647 1.0013 0.0
C471 C 0.66697 0.64419 0.99183 0.0
C472 C 0.381 0.38462 0.02884 0.0
C473 C 0.66696 0.38737 0.03826 0.0
Eu474 Eu 0.5189 0.52958 0.12567 0.0
O475 O 0.57301 0.57279 0.0619 0.0
O476 O 0.4717 0.47095 0.07298 0.0
Eu477 Eu 0.62897 0.51578 0.01507 0.0
Eu478 Eu 0.41709 0.51581 0.01508 0.0
O479 O 0.56936 0.47426 0.0714 0.0
O480 O 0.47111 0.57385 0.06033 0.0
Eu481 Eu 0.52313 0.40821 0.02844 0.0
Eu482 Eu 0.52312 0.62341 1.00173 0.0
O483 O 0.57295 0.45884 0.96814 0.0
O484 O 0.5693 0.55729 0.95871 0.0
O485 O 0.47174 0.56062 0.95709 0.0
O486 O 0.47118 0.4578 0.96973 0.0
Eu487 Eu 0.51889 0.50202 0.90435 0.0
O488 O 0.50985 0.45076 0.1823 0.0
O489 O 0.52772 0.61663 0.16723 0.0
O490 O 0.5278 0.41496 0.86287 0.0
O491 O 0.50979 0.58088 0.8478 0.0
O492 O 0.67238 0.52885 0.92486 0.0
O493 O 0.67233 0.50269 0.10529 0.0
O494 O 0.36477 0.50607 0.93393 0.0
O495 O 0.36476 0.52552 0.09623 0.0
O496 O 0.43515 0.66836 1.00049 0.0
O497 O 0.61254 0.66388 0.984 0.0
O498 O 0.43515 0.36326 0.02966 0.0
O499 O 0.61254 0.3677 0.04613 0.0
O500 O 0.43136 0.48993 0.85824 0.0
O501 O 0.60008 0.51128 0.85342 0.0
O502 O 0.4314 0.54164 0.17187 0.0
O503 O 0.60007 0.52053 0.17668 0.0
O504 O 0.52971 0.67568 0.0849 0.0
O505 O 0.51474 0.6606 0.90991 0.0
O506 O 0.51476 0.37101 0.12024 0.0
O507 O 0.52974 0.35595 0.94524 0.0
O508 O 0.68045 0.43742 0.01705 0.0
O509 O 0.68045 0.59414 1.01305 0.0
O510 O 0.36698 0.4382 0.0241 0.0
O511 O 0.36698 0.59342 1.00602 0.0
C512 C 0.03448 0.37198 0.64022 0.0
C513 C 0.02698 0.38989 0.37191 0.0
C514 C 0.02782 0.64177 0.65816 0.0
C515 C 0.03456 0.65962 0.38988 0.0
C516 C 0.87927 0.64506 0.54169 0.0
C517 C 0.87923 0.38662 0.48852 0.0
C518 C 0.17037 0.64929 0.497 0.0
C519 C 0.17018 0.38233 0.5335 0.0
C520 C 0.17178 0.49601 0.38075 0.0
C521 C 0.88959 0.52606 0.37124 0.0
C522 C 0.17179 0.53548 0.64935 0.0
C523 C 0.88964 0.50562 0.65894 0.0
Eu524 Eu 0.02594 0.40949 0.50786 0.0
O525 O 0.97621 0.47173 0.46288 0.0
O526 O 0.08029 0.46188 0.56078 0.0
Eu527 Eu 0.91365 0.51582 0.51508 0.0
Eu528 Eu 0.13875 0.51578 0.51504 0.0
O529 O 0.97338 0.46212 0.56263 0.0
O530 O 0.07993 0.46862 0.46221 0.0
Eu531 Eu 0.03011 0.50787 0.62082 0.0
Eu532 Eu 0.0301 0.52374 0.40927 0.0
O533 O 0.9763 0.56 0.56719 0.0
O534 O 0.97349 0.56956 0.4676 0.0
O535 O 0.08029 0.56982 0.46935 0.0
O536 O 0.07989 0.56303 0.56781 0.0
Eu537 Eu 0.02601 0.62229 0.52225 0.0
O538 O 0.01459 0.36133 0.58791 0.0
O539 O 0.03559 0.36716 0.4232 0.0
O540 O 0.03632 0.66454 0.60687 0.0
O541 O 0.01454 0.6703 0.44214 0.0
O542 O 0.86209 0.59449 0.52521 0.0
O543 O 0.86204 0.4372 0.50494 0.0
O544 O 0.18757 0.59593 0.49805 0.0
O545 O 0.18749 0.43564 0.53224 0.0
O546 O 0.11718 0.50624 0.36175 0.0
O547 O 0.94645 0.53301 0.36044 0.0
O548 O 0.11719 0.52524 0.66836 0.0
O549 O 0.94651 0.49874 0.66973 0.0
O550 O 0.11518 0.66775 0.50648 0.0
O551 O 0.93541 0.66318 0.54397 0.0
O552 O 0.1151 0.36387 0.5234 0.0
O553 O 0.93536 0.3685 0.48627 0.0
O554 O 0.01942 0.44425 0.36078 0.0
O555 O 0.04588 0.60876 0.36854 0.0
O556 O 0.04579 0.42284 0.66158 0.0
O557 O 0.01969 0.58747 0.66919 0.0
O558 O 0.86726 0.51243 0.6056 0.0
O559 O 0.86723 0.51919 0.42458 0.0
O560 O 0.1891 0.53264 0.59521 0.0
O561 O 0.1891 0.4989 0.43488 0.0
C562 C 0.53094 0.88665 0.66428 0.0
C563 C 0.51252 0.86308 0.39114 0.0
C564 C 0.51198 0.16847 0.63899 0.0
C565 C 0.53098 0.14496 0.36588 0.0
C566 C 0.37983 0.15007 0.49948 0.0
C567 C 0.37982 0.88157 0.53064 0.0
C568 C 0.66917 0.15224 0.49474 0.0
C569 C 0.66916 0.8794 0.53546 0.0
C570 C 0.67053 0.9793 0.38529 0.0
C571 C 0.39652 1.00263 0.37169 0.0
C572 C 0.67053 0.05227 0.64491 0.0
C573 C 0.3965 0.02899 0.65847 0.0
Eu574 Eu 0.52596 0.9049 0.52674 0.0
O575 O 0.47791 0.9605 0.47078 0.0
O576 O 0.5789 0.968 0.57131 0.0
Eu577 Eu 0.41898 0.0158 0.51508 0.0
Eu578 Eu 0.63365 0.01582 0.51509 0.0
O579 O 0.47766 0.97061 0.57098 0.0
O580 O 0.57853 0.95762 0.47107 0.0
Eu581 Eu 0.53126 0.02738 0.62164 0.0
Eu582 Eu 0.53126 1.00422 0.40855 0.0
O583 O 0.47797 0.07115 0.55932 0.0
O584 O 0.47771 0.06108 0.45924 0.0
O585 O 0.57888 0.06372 0.45887 0.0
O586 O 0.57852 0.07411 0.55911 0.0
Eu587 Eu 0.52597 0.12683 0.50343 0.0
O588 O 0.52628 0.86237 0.61325 0.0
O589 O 0.51798 0.85056 0.44679 0.0
O590 O 0.51778 0.18109 0.5834 0.0
O591 O 0.52633 0.16929 0.41689 0.0
O592 O 0.36779 0.09593 0.50862 0.0
O593 O 0.36776 0.9357 0.52154 0.0
O594 O 0.68124 0.09706 0.49593 0.0
O595 O 0.68125 0.93458 0.53426 0.0
O596 O 0.6168 0.98403 0.36352 0.0
O597 O 0.45226 1.00147 0.35817 0.0
O598 O 0.6168 0.04752 0.66669 0.0
O599 O 0.45224 0.03016 0.67199 0.0
O600 O 0.61508 0.17367 0.50009 0.0
O601 O 0.43451 0.17104 0.4956 0.0
O602 O 0.61505 0.858 0.53012 0.0
O603 O 0.43452 0.86062 0.5345 0.0
O604 O 0.51536 0.9155 0.36893 0.0
O605 O 0.5354 0.0885 0.3575 0.0
O606 O 0.53538 0.9431 0.67269 0.0
O607 O 0.51538 0.11611 0.66129 0.0
O608 O 0.37446 0.0243 0.60484 0.0
O609 O 0.37447 1.00731 0.42532 0.0
O610 O 0.68538 0.03934 0.59158 0.0
O611 O 0.68539 0.99226 0.43861 0.0
loop_
_geom_bond_atom_site_label_1
_geom_bond_atom_site_label_2
_geom_bond_distance
_geom_bond_site_symmetry_2
_ccdc_geom_bond_type
H0 C7 0.929 . S
H1 C10 0.930 . S
H2 C12 0.929 . S
H3 C4 0.969 1_655 S
C4 H3 0.969 1_455 S
C4 O5 1.550 . S
C4 H6 0.973 . S
O5 C4 1.550 . S
O5 C11 1.412 . S
H6 C4 0.973 . S
C7 H0 0.929 . S
C7 C8 1.400 . S
C7 C9 1.364 . S
C8 C7 1.400 . S
C8 C12 1.377 . S
C9 C7 1.364 . S
C9 C10 1.374 . S
C10 H1 0.930 . S
C10 C9 1.374 . S
C10 C11 1.383 . S
C11 O5 1.412 . S
C11 C10 1.383 . S
C11 C12 1.394 . S
C12 H2 0.929 . S
C12 C8 1.377 . S
C12 C11 1.394 . S
H13 C20 0.928 1_565 S
H14 C23 0.931 . S
H15 C25 0.928 1_565 S
H16 C17 0.969 . S
C17 H16 0.969 . S
C17 O18 1.550 1_545 S
C17 H19 0.973 1_545 S
O18 C17 1.550 1_565 S
O18 C24 1.412 1_565 S
H19 C17 0.973 1_565 S
C20 H13 0.928 1_545 S
C20 C21 1.400 . S
C20 C22 1.364 . S
C21 C20 1.400 . S
C21 C25 1.377 . S
C22 C20 1.364 . S
C22 C23 1.374 1_545 S
C23 H14 0.931 . S
C23 C22 1.374 1_565 S
C23 C24 1.383 1_565 S
C24 O18 1.412 1_545 S
C24 C23 1.383 1_545 S
C24 C25 1.395 . S
C25 H15 0.928 1_545 S
C25 C21 1.377 . S
C25 C24 1.395 . S
H26 C33 0.929 . S
H27 C36 0.930 . S
H28 C38 0.929 . S
H29 C30 0.969 1_655 S
C30 H29 0.969 1_455 S
C30 O31 1.550 . S
C30 H32 0.973 . S
O31 C30 1.550 . S
O31 C37 1.412 . S
H32 C30 0.973 . S
C33 H26 0.929 . S
C33 C34 1.400 . S
C33 C35 1.364 . S
C34 C33 1.400 . S
C34 C38 1.377 . S
C35 C33 1.364 . S
C35 C36 1.374 . S
C36 H27 0.930 . S
C36 C35 1.374 . S
C36 C37 1.383 . S
C37 O31 1.412 . S
C37 C36 1.383 . S
C37 C38 1.394 . S
C38 H28 0.929 . S
C38 C34 1.377 . S
C38 C37 1.394 . S
H39 C46 0.928 . S
H40 C49 0.931 1_565 S
H41 C51 0.928 1_565 S
H42 C43 0.969 . S
C43 H42 0.969 . S
C43 O44 1.550 1_545 S
C43 H45 0.973 1_545 S
O44 C43 1.550 1_565 S
O44 C50 1.412 1_565 S
H45 C43 0.973 1_565 S
C46 H39 0.928 . S
C46 C47 1.400 . S
C46 C48 1.364 . S
C47 C46 1.400 . S
C47 C51 1.377 . S
C48 C46 1.364 . S
C48 C49 1.374 . S
C49 H40 0.931 1_545 S
C49 C48 1.374 . S
C49 C50 1.383 . S
C50 O44 1.412 1_545 S
C50 C49 1.383 . S
C50 C51 1.395 . S
C51 H41 0.928 1_545 S
C51 C47 1.377 . S
C51 C50 1.395 . S
H52 C59 0.929 . S
H53 C62 0.930 . S
H54 C64 0.929 . S
H55 C56 0.969 1_655 S
C56 H55 0.969 1_455 S
C56 O57 1.550 . S
C56 H58 0.973 . S
O57 C56 1.550 . S
O57 C63 1.412 . S
H58 C56 0.973 . S
C59 H52 0.929 . S
C59 C60 1.400 . S
C59 C61 1.364 . S
C60 C59 1.400 . S
C60 C64 1.377 . S
C61 C59 1.364 . S
C61 C62 1.374 . S
C62 H53 0.930 . S
C62 C61 1.374 . S
C62 C63 1.383 . S
C63 O57 1.412 . S
C63 C62 1.383 . S
C63 C64 1.394 . S
C64 H54 0.929 . S
C64 C60 1.377 . S
C64 C63 1.394 . S
H65 C72 0.929 . S
H66 C75 0.930 . S
H67 C77 0.930 . S
H68 C69 0.969 . S
C69 H68 0.969 . S
C69 O70 1.550 1_565 S
C69 H71 0.973 1_565 S
O70 C69 1.550 1_545 S
O70 C76 1.410 1_545 S
H71 C69 0.973 1_545 S
C72 H65 0.929 . S
C72 C73 1.400 . S
C72 C74 1.364 . S
C73 C72 1.400 . S
C73 C77 1.377 . S
C74 C72 1.364 . S
C74 C75 1.375 . S
C75 H66 0.930 . S
C75 C74 1.375 . S
C75 C76 1.383 1_545 S
C76 O70 1.410 1_565 S
C76 C75 1.383 1_565 S
C76 C77 1.394 1_565 S
C77 H67 0.930 . S
C77 C73 1.377 . S
C77 C76 1.394 1_545 S
H78 C85 0.929 . S
H79 C88 0.930 . S
H80 C90 0.929 . S
H81 C82 0.969 1_655 S
C82 H81 0.969 1_455 S
C82 O83 1.550 . S
C82 H84 0.973 . S
O83 C82 1.550 . S
O83 C89 1.412 . S
H84 C82 0.973 . S
C85 H78 0.929 . S
C85 C86 1.400 . S
C85 C87 1.364 . S
C86 C85 1.400 . S
C86 C90 1.377 . S
C87 C85 1.364 . S
C87 C88 1.374 . S
C88 H79 0.930 . S
C88 C87 1.374 . S
C88 C89 1.383 . S
C89 O83 1.412 . S
C89 C88 1.383 . S
C89 C90 1.394 . S
C90 H80 0.929 . S
C90 C86 1.377 . S
C90 C89 1.394 . S
H91 C98 0.929 . S
H92 C101 0.930 . S
H93 C103 0.929 . S
H94 C95 0.969 . S
C95 H94 0.969 . S
C95 O96 1.550 1_565 S
C95 H97 0.973 1_565 S
O96 C95 1.550 1_545 S
O96 C102 1.411 . S
H97 C95 0.973 1_545 S
C98 H91 0.929 . S
C98 C99 1.400 . S
C98 C100 1.364 . S
C99 C98 1.400 . S
C99 C103 1.377 . S
C100 C98 1.364 . S
C100 C101 1.374 . S
C101 H92 0.930 . S
C101 C100 1.374 . S
C101 C102 1.383 . S
C102 O96 1.411 . S
C102 C101 1.383 . S
C102 C103 1.394 . S
C103 H93 0.929 . S
C103 C99 1.377 . S
C103 C102 1.394 . S
H104 C111 0.929 . S
H105 C114 0.930 1_556 S
H106 C116 0.929 . S
H107 C108 0.969 . S
C108 H107 0.969 . S
C108 O109 1.550 1_554 S
C108 H110 0.973 1_554 S
O109 C108 1.550 1_556 S
O109 C115 1.412 1_556 S
H110 C108 0.973 1_556 S
C111 H104 0.929 . S
C111 C112 1.400 . S
C111 C113 1.364 . S
C112 C111 1.400 . S
C112 C116 1.377 . S
C113 C111 1.364 . S
C113 C114 1.374 . S
C114 H105 0.930 1_554 S
C114 C113 1.374 . S
C114 C115 1.383 . S
C115 O109 1.412 1_554 S
C115 C114 1.383 . S
C115 C116 1.394 . S
C116 H106 0.929 . S
C116 C112 1.377 . S
C116 C115 1.394 . S
H117 C124 0.928 1_554 S
H118 C127 0.931 . S
H119 C129 0.928 1_554 S
H120 C121 0.969 . S
C121 H120 0.969 . S
C121 O122 1.550 1_556 S
C121 H123 0.973 1_556 S
O122 C121 1.550 1_554 S
O122 C128 1.412 1_554 S
H123 C121 0.973 1_554 S
C124 H117 0.928 1_556 S
C124 C125 1.400 . S
C124 C126 1.364 . S
C125 C124 1.400 . S
C125 C129 1.377 . S
C126 C124 1.364 . S
C126 C127 1.374 1_556 S
C127 H118 0.931 . S
C127 C126 1.374 1_554 S
C127 C128 1.383 1_554 S
C128 O122 1.412 1_556 S
C128 C127 1.383 1_556 S
C128 C129 1.395 . S
C129 H119 0.928 1_556 S
C129 C125 1.377 . S
C129 C128 1.395 . S
H130 C137 0.929 . S
H131 C140 0.930 . S
H132 C142 0.929 . S
H133 C134 0.969 . S
C134 H133 0.969 . S
C134 O135 1.550 1_556 S
C134 H136 0.973 1_556 S
O135 C134 1.550 1_554 S
O135 C141 1.412 1_554 S
H136 C134 0.973 1_554 S
C137 H130 0.929 . S
C137 C138 1.400 . S
C137 C139 1.364 . S
C138 C137 1.400 . S
C138 C142 1.377 . S
C139 C137 1.364 . S
C139 C140 1.374 . S
C140 H131 0.930 . S
C140 C139 1.374 . S
C140 C141 1.383 1_554 S
C141 O135 1.412 1_556 S
C141 C140 1.383 1_556 S
C141 C142 1.394 1_556 S
C142 H132 0.929 . S
C142 C138 1.377 . S
C142 C141 1.394 1_554 S
H143 C150 0.928 1_556 S
H144 C153 0.931 . S
H145 C155 0.928 1_556 S
H146 C147 0.969 . S
C147 H146 0.969 . S
C147 O148 1.550 1_554 S
C147 H149 0.973 1_554 S
O148 C147 1.550 1_556 S
O148 C154 1.412 1_556 S
H149 C147 0.973 1_556 S
C150 H143 0.928 1_554 S
C150 C151 1.400 . S
C150 C152 1.364 . S
C151 C150 1.400 . S
C151 C155 1.377 . S
C152 C150 1.364 . S
C152 C153 1.374 1_554 S
C153 H144 0.931 . S
C153 C152 1.374 1_556 S
C153 C154 1.383 1_556 S
C154 O148 1.412 1_554 S
C154 C153 1.383 1_554 S
C154 C155 1.395 . S
C155 H145 0.928 1_554 S
C155 C151 1.377 . S
C155 C154 1.395 . S
H156 C163 0.929 . S
H157 C166 0.930 . S
H158 C168 0.929 . S
H159 C160 0.969 . S
C160 H159 0.969 . S
C160 O161 1.550 . S
C160 H162 0.973 . S
O161 C160 1.550 . S
O161 C167 1.412 . S
H162 C160 0.973 . S
C163 H156 0.929 . S
C163 C164 1.400 . S
C163 C165 1.364 . S
C164 C163 1.400 . S
C164 C168 1.377 . S
C165 C163 1.364 . S
C165 C166 1.374 . S
C166 H157 0.930 . S
C166 C165 1.374 . S
C166 C167 1.383 . S
C167 O161 1.412 . S
C167 C166 1.383 . S
C167 C168 1.394 . S
C168 H158 0.929 . S
C168 C164 1.377 . S
C168 C167 1.394 . S
H169 C176 0.929 . S
H170 C179 0.930 . S
H171 C181 0.929 . S
H172 C173 0.969 . S
C173 H172 0.969 . S
C173 O174 1.550 . S
C173 H175 0.973 . S
O174 C173 1.550 . S
O174 C180 1.412 . S
H175 C173 0.973 . S
C176 H169 0.929 . S
C176 C177 1.400 . S
C176 C178 1.364 . S
C177 C176 1.400 . S
C177 C181 1.377 . S
C178 C176 1.364 . S
C178 C179 1.374 . S
C179 H170 0.930 . S
C179 C178 1.374 . S
C179 C180 1.383 . S
C180 O174 1.412 . S
C180 C179 1.383 . S
C180 C181 1.394 . S
C181 H171 0.929 . S
C181 C177 1.377 . S
C181 C180 1.394 . S
H182 C189 0.929 . S
H183 C192 0.930 . S
H184 C194 0.929 . S
H185 C186 0.969 . S
C186 H185 0.969 . S
C186 O187 1.550 . S
C186 H188 0.973 . S
O187 C186 1.550 . S
O187 C193 1.412 . S
H188 C186 0.973 . S
C189 H182 0.929 . S
C189 C190 1.400 . S
C189 C191 1.364 . S
C190 C189 1.400 . S
C190 C194 1.377 . S
C191 C189 1.364 . S
C191 C192 1.374 . S
C192 H183 0.930 . S
C192 C191 1.374 . S
C192 C193 1.383 . S
C193 O187 1.412 . S
C193 C192 1.383 . S
C193 C194 1.394 . S
C194 H184 0.929 . S
C194 C190 1.377 . S
C194 C193 1.394 . S
H195 C202 0.929 . S
H196 C205 0.930 . S
H197 C207 0.929 . S
H198 C199 0.969 . S
C199 H198 0.969 . S
C199 O200 1.550 . S
C199 H201 0.973 . S
O200 C199 1.550 . S
O200 C206 1.412 . S
H201 C199 0.973 . S
C202 H195 0.929 . S
C202 C203 1.400 . S
C202 C204 1.364 . S
C203 C202 1.400 . S
C203 C207 1.377 . S
C204 C202 1.364 . S
C204 C205 1.374 . S
C205 H196 0.930 . S
C205 C204 1.374 . S
C205 C206 1.383 . S
C206 O200 1.412 . S
C206 C205 1.383 . S
C206 C207 1.394 . S
C207 H197 0.929 . S
C207 C203 1.377 . S
C207 C206 1.394 . S
H208 C215 0.929 . S
H209 C218 0.930 . S
H210 C220 0.929 . S
H211 C212 0.969 . S
C212 H211 0.969 . S
C212 O213 1.550 . S
C212 H214 0.973 . S
O213 C212 1.550 . S
O213 C219 1.412 . S
H214 C212 0.973 . S
C215 H208 0.929 . S
C215 C216 1.400 . S
C215 C217 1.364 . S
C216 C215 1.400 . S
C216 C220 1.377 . S
C217 C215 1.364 . S
C217 C218 1.374 . S
C218 H209 0.930 . S
C218 C217 1.374 . S
C218 C219 1.383 . S
C219 O213 1.412 . S
C219 C218 1.383 . S
C219 C220 1.394 . S
C220 H210 0.929 . S
C220 C216 1.377 . S
C220 C219 1.394 . S
H221 C228 0.929 . S
H222 C231 0.930 . S
H223 C233 0.929 . S
H224 C225 0.969 . S
C225 H224 0.969 . S
C225 O226 1.550 . S
C225 H227 0.973 . S
O226 C225 1.550 . S
O226 C232 1.412 . S
H227 C225 0.973 . S
C228 H221 0.929 . S
C228 C229 1.400 . S
C228 C230 1.364 . S
C229 C228 1.400 . S
C229 C233 1.377 . S
C230 C228 1.364 . S
C230 C231 1.374 . S
C231 H222 0.930 . S
C231 C230 1.374 . S
C231 C232 1.383 . S
C232 O226 1.412 . S
C232 C231 1.383 . S
C232 C233 1.394 . S
C233 H223 0.929 . S
C233 C229 1.377 . S
C233 C232 1.394 . S
H234 C241 0.929 . S
H235 C244 0.930 . S
H236 C246 0.929 . S
H237 C238 0.969 . S
C238 H237 0.969 . S
C238 O239 1.550 . S
C238 H240 0.973 . S
O239 C238 1.550 . S
O239 C245 1.412 . S
H240 C238 0.973 . S
C241 H234 0.929 . S
C241 C242 1.400 . S
C241 C243 1.364 . S
C242 C241 1.400 . S
C242 C246 1.377 . S
C243 C241 1.364 . S
C243 C244 1.374 . S
C244 H235 0.930 . S
C244 C243 1.374 . S
C244 C245 1.383 . S
C245 O239 1.412 . S
C245 C244 1.383 . S
C245 C246 1.394 . S
C246 H236 0.929 . S
C246 C242 1.377 . S
C246 C245 1.394 . S
H247 C254 0.929 . S
H248 C257 0.930 . S
H249 C259 0.929 . S
H250 C251 0.969 . S
C251 H250 0.969 . S
C251 O252 1.550 . S
C251 H253 0.973 . S
O252 C251 1.550 . S
O252 C258 1.412 . S
H253 C251 0.973 . S
C254 H247 0.929 . S
C254 C255 1.400 . S
C254 C256 1.364 . S
C255 C254 1.400 . S
C255 C259 1.377 . S
C256 C254 1.364 . S
C256 C257 1.374 . S
C257 H248 0.930 . S
C257 C256 1.374 . S
C257 C258 1.383 . S
C258 O252 1.412 . S
C258 C257 1.383 . S
C258 C259 1.394 . S
C259 H249 0.929 . S
C259 C255 1.377 . S
C259 C258 1.394 . S
H260 C267 0.929 . S
H261 C270 0.930 . S
H262 C272 0.929 . S
H263 C264 0.969 . S
C264 H263 0.969 . S
C264 O265 1.550 . S
C264 H266 0.973 . S
O265 C264 1.550 . S
O265 C271 1.412 . S
H266 C264 0.973 . S
C267 H260 0.929 . S
C267 C268 1.400 . S
C267 C269 1.364 . S
C268 C267 1.400 . S
C268 C272 1.377 . S
C269 C267 1.364 . S
C269 C270 1.374 . S
C270 H261 0.930 . S
C270 C269 1.374 . S
C270 C271 1.383 . S
C271 O265 1.412 . S
C271 C270 1.383 . S
C271 C272 1.394 . S
C272 H262 0.929 . S
C272 C268 1.377 . S
C272 C271 1.394 . S
H273 C280 0.929 . S
H274 C283 0.930 . S
H275 C285 0.929 . S
H276 C277 0.969 . S
C277 H276 0.969 . S
C277 O278 1.550 . S
C277 H279 0.973 . S
O278 C277 1.550 . S
O278 C284 1.412 . S
H279 C277 0.973 . S
C280 H273 0.929 . S
C280 C281 1.400 . S
C280 C282 1.364 . S
C281 C280 1.400 . S
C281 C285 1.377 . S
C282 C280 1.364 . S
C282 C283 1.374 . S
C283 H274 0.930 . S
C283 C282 1.374 . S
C283 C284 1.383 . S
C284 O278 1.412 . S
C284 C283 1.383 . S
C284 C285 1.394 . S
C285 H275 0.929 . S
C285 C281 1.377 . S
C285 C284 1.394 . S
H286 C293 0.929 . S
H287 C296 0.930 . S
H288 C298 0.929 . S
H289 C290 0.969 . S
C290 H289 0.969 . S
C290 O291 1.550 . S
C290 H292 0.973 . S
O291 C290 1.550 . S
O291 C297 1.412 . S
H292 C290 0.973 . S
C293 H286 0.929 . S
C293 C294 1.400 . S
C293 C295 1.364 . S
C294 C293 1.400 . S
C294 C298 1.377 . S
C295 C293 1.364 . S
C295 C296 1.374 . S
C296 H287 0.930 . S
C296 C295 1.374 . S
C296 C297 1.383 . S
C297 O291 1.412 . S
C297 C296 1.383 . S
C297 C298 1.394 . S
C298 H288 0.929 . S
C298 C294 1.377 . S
C298 C297 1.394 . S
H299 C306 0.929 . S
H300 C309 0.930 . S
H301 C311 0.929 . S
H302 C303 0.969 . S
C303 H302 0.969 . S
C303 O304 1.550 . S
C303 H305 0.973 . S
O304 C303 1.550 . S
O304 C310 1.412 . S
H305 C303 0.973 . S
C306 H299 0.929 . S
C306 C307 1.400 . S
C306 C308 1.364 . S
C307 C306 1.400 . S
C307 C311 1.377 . S
C308 C306 1.364 . S
C308 C309 1.374 . S
C309 H300 0.930 . S
C309 C308 1.374 . S
C309 C310 1.383 . S
C310 O304 1.412 . S
C310 C309 1.383 . S
C310 C311 1.394 . S
C311 H301 0.929 . S
C311 C307 1.377 . S
C311 C310 1.394 . S
C312 O338 1.283 . S
C312 O356 1.283 . S
C313 O339 1.283 . S
C313 O354 1.283 . S
C314 O340 1.283 . S
C314 O357 1.283 . S
C315 O341 1.283 . S
C315 O355 1.283 . S
C316 O342 1.283 . S
C316 O351 1.283 . S
C317 O343 1.283 . S
C317 O353 1.283 . S
C318 O344 1.283 . S
C318 O350 1.283 . S
C319 O345 1.283 . S
C319 O352 1.283 . S
C320 O346 1.283 . S
C320 O361 1.283 . S
C321 O347 1.283 . S
C321 O359 1.283 . S
C322 O348 1.283 . S
C322 O360 1.283 . S
C323 O349 1.283 . S
C323 O358 1.283 . S
Eu324 O325 2.370 1_455 S
Eu324 O326 2.370 . S
Eu324 O329 2.370 1_455 S
Eu324 O330 2.370 . S
Eu324 O338 2.363 . S
Eu324 O339 2.363 . S
Eu324 O352 2.363 . S
Eu324 O353 2.363 1_455 S
O325 Eu324 2.370 1_655 S
O325 Eu327 2.361 1_565 S
O325 Eu332 2.364 1_665 S
O326 Eu324 2.370 . S
O326 Eu328 2.361 1_565 S
O326 Eu331 2.370 1_565 S
Eu327 O325 2.361 1_545 S
Eu327 O329 2.361 1_545 S
Eu327 O333 2.379 . S
Eu327 O334 2.379 . S
Eu327 O342 2.379 . S
Eu327 O343 2.347 1_545 S
Eu327 O358 2.363 . S
Eu327 O359 2.363 . S
Eu328 O326 2.361 1_545 S
Eu328 O330 2.361 1_545 S
Eu328 O335 2.379 . S
Eu328 O336 2.379 . S
Eu328 O344 2.379 . S
Eu328 O345 2.347 1_545 S
Eu328 O360 2.363 . S
Eu328 O361 2.363 . S
O329 Eu324 2.370 1_655 S
O329 Eu327 2.361 1_565 S
O329 Eu331 2.370 1_665 S
O330 Eu324 2.370 . S
O330 Eu328 2.361 1_565 S
O330 Eu332 2.364 1_565 S
Eu331 O326 2.370 1_545 S
Eu331 O329 2.370 1_445 S
Eu331 O333 2.370 1_455 S
Eu331 O336 2.370 . S
Eu331 O348 2.363 . S
Eu331 O349 2.363 1_455 S
Eu331 O356 2.363 1_545 S
Eu331 O357 2.363 . S
Eu332 O325 2.364 1_445 S
Eu332 O330 2.364 1_545 S
Eu332 O334 2.376 1_455 S
Eu332 O335 2.376 . S
Eu332 O346 2.363 . S
Eu332 O347 2.363 1_455 S
Eu332 O354 2.353 1_545 S
Eu332 O355 2.373 . S
O333 Eu327 2.379 . S
O333 Eu331 2.370 1_655 S
O333 Eu337 2.370 1_655 S
O334 Eu327 2.379 . S
O334 Eu332 2.376 1_655 S
O334 Eu337 2.370 1_655 S
O335 Eu328 2.379 . S
O335 Eu332 2.376 . S
O335 Eu337 2.370 . S
O336 Eu328 2.379 . S
O336 Eu331 2.370 . S
O336 Eu337 2.370 . S
Eu337 O333 2.370 1_455 S
Eu337 O334 2.370 1_455 S
Eu337 O335 2.370 . S
Eu337 O336 2.370 . S
Eu337 O340 2.363 . S
Eu337 O341 2.363 . S
Eu337 O350 2.363 . S
Eu337 O351 2.363 1_455 S
O338 C312 1.283 . S
O338 Eu324 2.363 . S
O339 C313 1.283 . S
O339 Eu324 2.363 . S
O340 C314 1.283 . S
O340 Eu337 2.363 . S
O341 C315 1.283 . S
O341 Eu337 2.363 . S
O342 C316 1.283 . S
O342 Eu327 2.379 . S
O343 C317 1.283 . S
O343 Eu327 2.347 1_565 S
O344 C318 1.283 . S
O344 Eu328 2.379 . S
O345 C319 1.283 . S
O345 Eu328 2.347 1_565 S
O346 C320 1.283 . S
O346 Eu332 2.363 . S
O347 C321 1.283 . S
O347 Eu332 2.363 1_655 S
O348 C322 1.283 . S
O348 Eu331 2.363 . S
O349 C323 1.283 . S
O349 Eu331 2.363 1_655 S
O350 C318 1.283 . S
O350 Eu337 2.363 . S
O351 C316 1.283 . S
O351 Eu337 2.363 1_655 S
O352 C319 1.283 . S
O352 Eu324 2.363 . S
O353 C317 1.283 . S
O353 Eu324 2.363 1_655 S
O354 C313 1.283 . S
O354 Eu332 2.353 1_565 S
O355 C315 1.283 . S
O355 Eu332 2.373 . S
O356 C312 1.283 . S
O356 Eu331 2.363 1_565 S
O357 C314 1.283 . S
O357 Eu331 2.363 . S
O358 C323 1.283 . S
O358 Eu327 2.363 . S
O359 C321 1.283 . S
O359 Eu327 2.363 . S
O360 C322 1.283 . S
O360 Eu328 2.363 . S
O361 C320 1.283 . S
O361 Eu328 2.363 . S
C362 O388 1.283 . S
C362 O406 1.283 . S
C363 O389 1.283 . S
C363 O404 1.283 . S
C364 O390 1.283 . S
C364 O407 1.283 . S
C365 O391 1.283 . S
C365 O405 1.283 . S
C366 O392 1.283 . S
C366 O401 1.283 . S
C367 O393 1.283 . S
C367 O403 1.283 . S
C368 O394 1.283 . S
C368 O400 1.283 . S
C369 O395 1.283 . S
C369 O402 1.283 . S
C370 O396 1.283 . S
C370 O411 1.283 . S
C371 O397 1.283 . S
C371 O409 1.283 . S
C372 O398 1.283 . S
C372 O410 1.283 . S
C373 O399 1.283 . S
C373 O408 1.283 . S
Eu374 O375 2.366 1_565 S
Eu374 O376 2.375 . S
Eu374 O379 2.375 . S
Eu374 O380 2.366 1_565 S
Eu374 O388 2.371 . S
Eu374 O389 2.355 1_565 S
Eu374 O402 2.363 . S
Eu374 O403 2.363 . S
O375 Eu374 2.366 1_545 S
O375 Eu377 2.389 . S
O375 Eu382 2.370 . S
O376 Eu374 2.375 . S
O376 Eu378 2.370 1_565 S
O376 Eu381 2.365 1_554 S
Eu377 O375 2.389 . S
Eu377 O379 2.370 1_545 S
Eu377 O383 2.352 1_544 S
Eu377 O384 2.370 1_554 S
Eu377 O392 2.348 1_554 S
Eu377 O393 2.378 1_545 S
Eu377 O408 2.347 1_544 S
Eu377 O409 2.379 . S
Eu378 O376 2.370 1_545 S
Eu378 O380 2.389 . S
Eu378 O385 2.370 1_554 S
Eu378 O386 2.352 1_544 S
Eu378 O394 2.347 1_554 S
Eu378 O395 2.379 1_545 S
Eu378 O410 2.347 1_544 S
Eu378 O411 2.379 . S
O379 Eu374 2.375 . S
O379 Eu377 2.370 1_565 S
O379 Eu381 2.365 1_554 S
O380 Eu374 2.366 1_545 S
O380 Eu378 2.389 . S
O380 Eu382 2.370 . S
Eu381 O376 2.365 1_556 S
Eu381 O379 2.365 1_556 S
Eu381 O383 2.375 . S
Eu381 O386 2.375 . S
Eu381 O398 2.363 . S
Eu381 O399 2.363 . S
Eu381 O406 2.355 1_556 S
Eu381 O407 2.371 . S
Eu382 O375 2.370 . S
Eu382 O380 2.370 . S
Eu382 O384 2.370 1_554 S
Eu382 O385 2.370 1_554 S
Eu382 O396 2.363 . S
Eu382 O397 2.363 . S
Eu382 O404 2.363 . S
Eu382 O405 2.363 1_554 S
O383 Eu377 2.352 1_566 S
O383 Eu381 2.375 . S
O383 Eu387 2.370 1_565 S
O384 Eu377 2.370 1_556 S
O384 Eu382 2.370 1_556 S
O384 Eu387 2.370 . S
O385 Eu378 2.370 1_556 S
O385 Eu382 2.370 1_556 S
O385 Eu387 2.370 . S
O386 Eu378 2.352 1_566 S
O386 Eu381 2.375 . S
O386 Eu387 2.370 1_565 S
Eu387 O383 2.370 1_545 S
Eu387 O384 2.370 . S
Eu387 O385 2.370 . S
Eu387 O386 2.370 1_545 S
Eu387 O390 2.363 1_545 S
Eu387 O391 2.363 . S
Eu387 O400 2.363 . S
Eu387 O401 2.363 . S
O388 C362 1.283 . S
O388 Eu374 2.371 . S
O389 C363 1.283 . S
O389 Eu374 2.355 1_545 S
O390 C364 1.283 . S
O390 Eu387 2.363 1_565 S
O391 C365 1.283 . S
O391 Eu387 2.363 . S
O392 C366 1.283 . S
O392 Eu377 2.348 1_556 S
O393 C367 1.283 . S
O393 Eu377 2.378 1_565 S
O394 C368 1.283 . S
O394 Eu378 2.347 1_556 S
O395 C369 1.283 . S
O395 Eu378 2.379 1_565 S
O396 C370 1.283 . S
O396 Eu382 2.363 . S
O397 C371 1.283 . S
O397 Eu382 2.363 . S
O398 C372 1.283 . S
O398 Eu381 2.363 . S
O399 C373 1.283 . S
O399 Eu381 2.363 . S
O400 C368 1.283 . S
O400 Eu387 2.363 . S
O401 C366 1.283 . S
O401 Eu387 2.363 . S
O402 C369 1.283 . S
O402 Eu374 2.363 . S
O403 C367 1.283 . S
O403 Eu374 2.363 . S
O404 C363 1.283 . S
O404 Eu382 2.363 . S
O405 C365 1.283 . S
O405 Eu382 2.363 1_556 S
O406 C362 1.283 . S
O406 Eu381 2.355 1_554 S
O407 C364 1.283 . S
O407 Eu381 2.371 . S
O408 C373 1.283 . S
O408 Eu377 2.347 1_566 S
O409 C371 1.283 . S
O409 Eu377 2.379 . S
O410 C372 1.283 . S
O410 Eu378 2.347 1_566 S
O411 C370 1.283 . S
O411 Eu378 2.379 . S
C412 O438 1.283 . S
C412 O456 1.283 . S
C413 O439 1.283 . S
C413 O454 1.283 . S
C414 O440 1.283 . S
C414 O457 1.283 . S
C415 O441 1.283 . S
C415 O455 1.283 . S
C416 O442 1.283 . S
C416 O451 1.283 . S
C417 O443 1.283 . S
C417 O453 1.283 . S
C418 O444 1.283 . S
C418 O450 1.283 . S
C419 O445 1.283 . S
C419 O452 1.283 . S
C420 O446 1.283 . S
C420 O461 1.283 . S
C421 O447 1.283 . S
C421 O459 1.283 . S
C422 O448 1.283 . S
C422 O460 1.283 . S
C423 O449 1.283 . S
C423 O458 1.283 . S
Eu424 O425 2.370 1_454 S
Eu424 O426 2.370 . S
Eu424 O429 2.370 1_455 S
Eu424 O430 2.370 1_554 S
Eu424 O438 2.363 . S
Eu424 O439 2.363 1_554 S
Eu424 O452 2.363 . S
Eu424 O453 2.363 1_455 S
O425 Eu424 2.370 1_656 S
O425 Eu427 2.361 1_556 S
O425 Eu432 2.370 1_655 S
O426 Eu424 2.370 . S
O426 Eu428 2.379 . S
O426 Eu431 2.370 . S
Eu427 O425 2.361 1_554 S
Eu427 O429 2.379 . S
Eu427 O433 2.379 . S
Eu427 O434 2.361 1_554 S
Eu427 O442 2.363 . S
Eu427 O443 2.363 . S
Eu427 O458 2.379 . S
Eu427 O459 2.347 1_554 S
Eu428 O426 2.379 . S
Eu428 O430 2.361 1_554 S
Eu428 O435 2.361 1_554 S
Eu428 O436 2.379 . S
Eu428 O444 2.363 . S
Eu428 O445 2.363 . S
Eu428 O460 2.379 . S
Eu428 O461 2.347 1_554 S
O429 Eu424 2.370 1_655 S
O429 Eu427 2.379 . S
O429 Eu431 2.370 1_655 S
O430 Eu424 2.370 1_556 S
O430 Eu428 2.361 1_556 S
O430 Eu432 2.370 . S
Eu431 O426 2.370 . S
Eu431 O429 2.370 1_455 S
Eu431 O433 2.370 1_455 S
Eu431 O436 2.370 . S
Eu431 O448 2.363 . S
Eu431 O449 2.363 1_455 S
Eu431 O456 2.363 . S
Eu431 O457 2.363 . S
Eu432 O425 2.370 1_455 S
Eu432 O430 2.370 . S
Eu432 O434 2.370 1_455 S
Eu432 O435 2.370 . S
Eu432 O446 2.363 . S
Eu432 O447 2.363 1_455 S
Eu432 O454 2.363 . S
Eu432 O455 2.363 . S
O433 Eu427 2.379 . S
O433 Eu431 2.370 1_655 S
O433 Eu437 2.377 1_655 S
O434 Eu427 2.361 1_556 S
O434 Eu432 2.370 1_655 S
O434 Eu437 2.363 1_656 S
O435 Eu428 2.361 1_556 S
O435 Eu432 2.370 . S
O435 Eu437 2.363 1_556 S
O436 Eu428 2.379 . S
O436 Eu431 2.370 . S
O436 Eu437 2.377 . S
Eu437 O433 2.377 1_455 S
Eu437 O434 2.363 1_454 S
Eu437 O435 2.363 1_554 S
Eu437 O436 2.377 . S
Eu437 O440 2.374 . S
Eu437 O441 2.352 1_554 S
Eu437 O450 2.363 . S
Eu437 O451 2.363 1_455 S
O438 C412 1.283 . S
O438 Eu424 2.363 . S
O439 C413 1.283 . S
O439 Eu424 2.363 1_556 S
O440 C414 1.283 . S
O440 Eu437 2.374 . S
O441 C415 1.283 . S
O441 Eu437 2.352 1_556 S
O442 C416 1.283 . S
O442 Eu427 2.363 . S
O443 C417 1.283 . S
O443 Eu427 2.363 . S
O444 C418 1.283 . S
O444 Eu428 2.363 . S
O445 C419 1.283 . S
O445 Eu428 2.363 . S
O446 C420 1.283 . S
O446 Eu432 2.363 . S
O447 C421 1.283 . S
O447 Eu432 2.363 1_655 S
O448 C422 1.283 . S
O448 Eu431 2.363 . S
O449 C423 1.283 . S
O449 Eu431 2.363 1_655 S
O450 C418 1.283 . S
O450 Eu437 2.363 . S
O451 C416 1.283 . S
O451 Eu437 2.363 1_655 S
O452 C419 1.283 . S
O452 Eu424 2.363 . S
O453 C417 1.283 . S
O453 Eu424 2.363 1_655 S
O454 C413 1.283 . S
O454 Eu432 2.363 . S
O455 C415 1.283 . S
O455 Eu432 2.363 . S
O456 C412 1.283 . S
O456 Eu431 2.363 . S
O457 C414 1.283 . S
O457 Eu431 2.363 . S
O458 C423 1.283 . S
O458 Eu427 2.379 . S
O459 C421 1.283 . S
O459 Eu427 2.347 1_556 S
O460 C422 1.283 . S
O460 Eu428 2.379 . S
O461 C420 1.283 . S
O461 Eu428 2.347 1_556 S
C462 O488 1.283 . S
C462 O506 1.283 . S
C463 O489 1.283 . S
C463 O504 1.283 . S
C464 O490 1.283 . S
C464 O507 1.283 . S
C465 O491 1.283 . S
C465 O505 1.283 . S
C466 O492 1.283 . S
C466 O501 1.283 . S
C467 O493 1.283 . S
C467 O503 1.283 . S
C468 O494 1.283 . S
C468 O500 1.283 . S
C469 O495 1.283 . S
C469 O502 1.283 . S
C470 O496 1.283 . S
C470 O511 1.283 . S
C471 O497 1.283 . S
C471 O509 1.283 . S
C472 O498 1.283 . S
C472 O510 1.283 . S
C473 O499 1.283 . S
C473 O508 1.283 . S
Eu474 O475 2.370 . S
Eu474 O476 2.370 . S
Eu474 O479 2.370 . S
Eu474 O480 2.370 . S
Eu474 O488 2.363 . S
Eu474 O489 2.363 . S
Eu474 O502 2.363 . S
Eu474 O503 2.363 . S
O475 Eu474 2.370 . S
O475 Eu477 2.379 . S
O475 Eu482 2.376 . S
O476 Eu474 2.370 . S
O476 Eu478 2.379 . S
O476 Eu481 2.370 . S
Eu477 O475 2.379 . S
Eu477 O479 2.379 . S
Eu477 O483 2.361 1_554 S
Eu477 O484 2.361 1_554 S
Eu477 O492 2.347 1_554 S
Eu477 O493 2.379 . S
Eu477 O508 2.363 . S
Eu477 O509 2.363 . S
Eu478 O476 2.379 . S
Eu478 O480 2.379 . S
Eu478 O485 2.361 1_554 S
Eu478 O486 2.361 1_554 S
Eu478 O494 2.347 1_554 S
Eu478 O495 2.379 . S
Eu478 O510 2.363 . S
Eu478 O511 2.363 . S
O479 Eu474 2.370 . S
O479 Eu477 2.379 . S
O479 Eu481 2.370 . S
O480 Eu474 2.370 . S
O480 Eu478 2.379 . S
O480 Eu482 2.376 . S
Eu481 O476 2.370 . S
Eu481 O479 2.370 . S
Eu481 O483 2.370 1_554 S
Eu481 O486 2.370 1_554 S
Eu481 O498 2.363 . S
Eu481 O499 2.363 . S
Eu481 O506 2.363 . S
Eu481 O507 2.363 1_554 S
Eu482 O475 2.376 . S
Eu482 O480 2.376 . S
Eu482 O484 2.364 1_554 S
Eu482 O485 2.364 1_554 S
Eu482 O496 2.363 . S
Eu482 O497 2.363 . S
Eu482 O504 2.373 . S
Eu482 O505 2.353 1_554 S
O483 Eu477 2.361 1_556 S
O483 Eu481 2.370 1_556 S
O483 Eu487 2.370 . S
O484 Eu477 2.361 1_556 S
O484 Eu482 2.364 1_556 S
O484 Eu487 2.370 . S
O485 Eu478 2.361 1_556 S
O485 Eu482 2.364 1_556 S
O485 Eu487 2.370 . S
O486 Eu478 2.361 1_556 S
O486 Eu481 2.370 1_556 S
O486 Eu487 2.370 . S
Eu487 O483 2.370 . S
Eu487 O484 2.370 . S
Eu487 O485 2.370 . S
Eu487 O486 2.370 . S
Eu487 O490 2.363 . S
Eu487 O491 2.363 . S
Eu487 O500 2.363 . S
Eu487 O501 2.363 . S
O488 C462 1.283 . S
O488 Eu474 2.363 . S
O489 C463 1.283 . S
O489 Eu474 2.363 . S
O490 C464 1.283 . S
O490 Eu487 2.363 . S
O491 C465 1.283 . S
O491 Eu487 2.363 . S
O492 C466 1.283 . S
O492 Eu477 2.347 1_556 S
O493 C467 1.283 . S
O493 Eu477 2.379 . S
O494 C468 1.283 . S
O494 Eu478 2.347 1_556 S
O495 C469 1.283 . S
O495 Eu478 2.379 . S
O496 C470 1.283 . S
O496 Eu482 2.363 . S
O497 C471 1.283 . S
O497 Eu482 2.363 . S
O498 C472 1.283 . S
O498 Eu481 2.363 . S
O499 C473 1.283 . S
O499 Eu481 2.363 . S
O500 C468 1.283 . S
O500 Eu487 2.363 . S
O501 C466 1.283 . S
O501 Eu487 2.363 . S
O502 C469 1.283 . S
O502 Eu474 2.363 . S
O503 C467 1.283 . S
O503 Eu474 2.363 . S
O504 C463 1.283 . S
O504 Eu482 2.373 . S
O505 C465 1.283 . S
O505 Eu482 2.353 1_556 S
O506 C462 1.283 . S
O506 Eu481 2.363 . S
O507 C464 1.283 . S
O507 Eu481 2.363 1_556 S
O508 C473 1.283 . S
O508 Eu477 2.363 . S
O509 C471 1.283 . S
O509 Eu477 2.363 . S
O510 C472 1.283 . S
O510 Eu478 2.363 . S
O511 C470 1.283 . S
O511 Eu478 2.363 . S
C512 O538 1.283 . S
C512 O556 1.283 . S
C513 O539 1.283 . S
C513 O554 1.283 . S
C514 O540 1.283 . S
C514 O557 1.283 . S
C515 O541 1.283 . S
C515 O555 1.283 . S
C516 O542 1.283 . S
C516 O551 1.283 . S
C517 O543 1.283 . S
C517 O553 1.283 . S
C518 O544 1.283 . S
C518 O550 1.283 . S
C519 O545 1.283 . S
C519 O552 1.283 . S
C520 O546 1.283 . S
C520 O561 1.283 . S
C521 O547 1.283 . S
C521 O559 1.283 . S
C522 O548 1.283 . S
C522 O560 1.283 . S
C523 O549 1.283 . S
C523 O558 1.283 . S
Eu524 O525 2.370 1_455 S
Eu524 O526 2.370 . S
Eu524 O529 2.370 1_455 S
Eu524 O530 2.370 . S
Eu524 O538 2.363 . S
Eu524 O539 2.363 . S
Eu524 O552 2.363 . S
Eu524 O553 2.363 1_455 S
O525 Eu524 2.370 1_655 S
O525 Eu527 2.370 . S
O525 Eu532 2.370 1_655 S
O526 Eu524 2.370 . S
O526 Eu528 2.370 . S
O526 Eu531 2.370 . S
Eu527 O525 2.370 . S
Eu527 O529 2.370 . S
Eu527 O533 2.370 . S
Eu527 O534 2.370 . S
Eu527 O542 2.363 . S
Eu527 O543 2.363 . S
Eu527 O558 2.363 . S
Eu527 O559 2.363 . S
Eu528 O526 2.370 . S
Eu528 O530 2.370 . S
Eu528 O535 2.370 . S
Eu528 O536 2.370 . S
Eu528 O544 2.363 . S
Eu528 O545 2.363 . S
Eu528 O560 2.363 . S
Eu528 O561 2.363 . S
O529 Eu524 2.370 1_655 S
O529 Eu527 2.370 . S
O529 Eu531 2.370 1_655 S
O530 Eu524 2.370 . S
O530 Eu528 2.370 . S
O530 Eu532 2.370 . S
Eu531 O526 2.370 . S
Eu531 O529 2.370 1_455 S
Eu531 O533 2.370 1_455 S
Eu531 O536 2.370 . S
Eu531 O548 2.363 . S
Eu531 O549 2.363 1_455 S
Eu531 O556 2.363 . S
Eu531 O557 2.363 . S
Eu532 O525 2.370 1_455 S
Eu532 O530 2.370 . S
Eu532 O534 2.370 1_455 S
Eu532 O535 2.370 . S
Eu532 O546 2.363 . S
Eu532 O547 2.363 1_455 S
Eu532 O554 2.363 . S
Eu532 O555 2.363 . S
O533 Eu527 2.370 . S
O533 Eu531 2.370 1_655 S
O533 Eu537 2.370 1_655 S
O534 Eu527 2.370 . S
O534 Eu532 2.370 1_655 S
O534 Eu537 2.370 1_655 S
O535 Eu528 2.370 . S
O535 Eu532 2.370 . S
O535 Eu537 2.370 . S
O536 Eu528 2.370 . S
O536 Eu531 2.370 . S
O536 Eu537 2.370 . S
Eu537 O533 2.370 1_455 S
Eu537 O534 2.370 1_455 S
Eu537 O535 2.370 . S
Eu537 O536 2.370 . S
Eu537 O540 2.363 . S
Eu537 O541 2.363 . S
Eu537 O550 2.363 . S
Eu537 O551 2.363 1_455 S
O538 C512 1.283 . S
O538 Eu524 2.363 . S
O539 C513 1.283 . S
O539 Eu524 2.363 . S
O540 C514 1.283 . S
O540 Eu537 2.363 . S
O541 C515 1.283 . S
O541 Eu537 2.363 . S
O542 C516 1.283 . S
O542 Eu527 2.363 . S
O543 C517 1.283 . S
O543 Eu527 2.363 . S
O544 C518 1.283 . S
O544 Eu528 2.363 . S
O545 C519 1.283 . S
O545 Eu528 2.363 . S
O546 C520 1.283 . S
O546 Eu532 2.363 . S
O547 C521 1.283 . S
O547 Eu532 2.363 1_655 S
O548 C522 1.283 . S
O548 Eu531 2.363 . S
O549 C523 1.283 . S
O549 Eu531 2.363 1_655 S
O550 C518 1.283 . S
O550 Eu537 2.363 . S
O551 C516 1.283 . S
O551 Eu537 2.363 1_655 S
O552 C519 1.283 . S
O552 Eu524 2.363 . S
O553 C517 1.283 . S
O553 Eu524 2.363 1_655 S
O554 C513 1.283 . S
O554 Eu532 2.363 . S
O555 C515 1.283 . S
O555 Eu532 2.363 . S
O556 C512 1.283 . S
O556 Eu531 2.363 . S
O557 C514 1.283 . S
O557 Eu531 2.363 . S
O558 C523 1.283 . S
O558 Eu527 2.363 . S
O559 C521 1.283 . S
O559 Eu527 2.363 . S
O560 C522 1.283 . S
O560 Eu528 2.363 . S
O561 C520 1.283 . S
O561 Eu528 2.363 . S
C562 O588 1.283 . S
C562 O606 1.283 . S
C563 O589 1.283 . S
C563 O604 1.283 . S
C564 O590 1.283 . S
C564 O607 1.283 . S
C565 O591 1.283 . S
C565 O605 1.283 . S
C566 O592 1.283 . S
C566 O601 1.283 . S
C567 O593 1.283 . S
C567 O603 1.283 . S
C568 O594 1.283 . S
C568 O600 1.283 . S
C569 O595 1.283 . S
C569 O602 1.283 . S
C570 O596 1.283 . S
C570 O611 1.283 . S
C571 O597 1.283 . S
C571 O609 1.283 . S
C572 O598 1.283 . S
C572 O610 1.283 . S
C573 O599 1.283 . S
C573 O608 1.283 . S
Eu574 O575 2.370 . S
Eu574 O576 2.370 . S
Eu574 O579 2.370 . S
Eu574 O580 2.370 . S
Eu574 O588 2.363 . S
Eu574 O589 2.363 . S
Eu574 O602 2.363 . S
Eu574 O603 2.363 . S
O575 Eu574 2.370 . S
O575 Eu577 2.361 1_565 S
O575 Eu582 2.363 1_565 S
O576 Eu574 2.370 . S
O576 Eu578 2.361 1_565 S
O576 Eu581 2.358 1_565 S
Eu577 O575 2.361 1_545 S
Eu577 O579 2.361 1_545 S
Eu577 O583 2.379 . S
Eu577 O584 2.379 . S
Eu577 O592 2.379 . S
Eu577 O593 2.347 1_545 S
Eu577 O608 2.363 . S
Eu577 O609 2.363 . S
Eu578 O576 2.361 1_545 S
Eu578 O580 2.361 1_545 S
Eu578 O585 2.379 . S
Eu578 O586 2.379 . S
Eu578 O594 2.379 . S
Eu578 O595 2.347 1_545 S
Eu578 O610 2.363 . S
Eu578 O611 2.363 . S
O579 Eu574 2.370 . S
O579 Eu577 2.361 1_565 S
O579 Eu581 2.358 1_565 S
O580 Eu574 2.370 . S
O580 Eu578 2.361 1_565 S
O580 Eu582 2.363 1_565 S
Eu581 O576 2.358 1_545 S
Eu581 O579 2.358 1_545 S
Eu581 O583 2.382 . S
Eu581 O586 2.382 . S
Eu581 O598 2.363 . S
Eu581 O599 2.363 . S
Eu581 O606 2.343 1_545 S
Eu581 O607 2.383 . S
Eu582 O575 2.363 1_545 S
Eu582 O580 2.363 1_545 S
Eu582 O584 2.377 . S
Eu582 O585 2.377 . S
Eu582 O596 2.363 . S
Eu582 O597 2.363 . S
Eu582 O604 2.352 1_545 S
Eu582 O605 2.374 . S
O583 Eu577 2.379 . S
O583 Eu581 2.382 . S
O583 Eu587 2.370 . S
O584 Eu577 2.379 . S
O584 Eu582 2.377 . S
O584 Eu587 2.370 . S
O585 Eu578 2.379 . S
O585 Eu582 2.377 . S
O585 Eu587 2.370 . S
O586 Eu578 2.379 . S
O586 Eu581 2.382 . S
O586 Eu587 2.370 . S
Eu587 O583 2.370 . S
Eu587 O584 2.370 . S
Eu587 O585 2.370 . S
Eu587 O586 2.370 . S
Eu587 O590 2.363 . S
Eu587 O591 2.363 . S
Eu587 O600 2.363 . S
Eu587 O601 2.363 . S
O588 C562 1.283 . S
O588 Eu574 2.363 . S
O589 C563 1.283 . S
O589 Eu574 2.363 . S
O590 C564 1.283 . S
O590 Eu587 2.363 . S
O591 C565 1.283 . S
O591 Eu587 2.363 . S
O592 C566 1.283 . S
O592 Eu577 2.379 . S
O593 C567 1.283 . S
O593 Eu577 2.347 1_565 S
O594 C568 1.283 . S
O594 Eu578 2.379 . S
O595 C569 1.283 . S
O595 Eu578 2.347 1_565 S
O596 C570 1.283 . S
O596 Eu582 2.363 . S
O597 C571 1.283 . S
O597 Eu582 2.363 . S
O598 C572 1.283 . S
O598 Eu581 2.363 . S
O599 C573 1.283 . S
O599 Eu581 2.363 . S
O600 C568 1.283 . S
O600 Eu587 2.363 . S
O601 C566 1.283 . S
O601 Eu587 2.363 . S
O602 C569 1.283 . S
O602 Eu574 2.363 . S
O603 C567 1.283 . S
O603 Eu574 2.363 . S
O604 C563 1.283 . S
O604 Eu582 2.352 1_565 S
O605 C565 1.283 . S
O605 Eu582 2.374 . S
O606 C562 1.283 . S
O606 Eu581 2.343 1_565 S
O607 C564 1.283 . S
O607 Eu581 2.383 . S
O608 C573 1.283 . S
O608 Eu577 2.363 . S
O609 C571 1.283 . S
O609 Eu577 2.363 . S
O610 C572 1.283 . S
O610 Eu578 2.363 . S
O611 C570 1.283 . S
O611 Eu578 2.363 . S
C318 C308 1.944 . S
C282 C316 1.666 . S
C317 C269 1.666 . S
C295 C319 1.944 . S
C363 C217 1.853 . S
C423 C230 1.873 . S
C243 C362 1.896 . S
C422 C256 1.629 . S
C165 C364 1.853 . S
C420 C178 1.629 . S
C191 C365 1.896 . S
C204 C421 1.873 . S
C471 C152 1.944 . S
C126 C470 1.666 1_556 S
C113 C472 1.666 . S
C473 C139 1.944 . S
C61 C514 1.853 . S
C74 C573 1.873 . S
C87 C512 1.896 . S
C100 C572 1.629 . S
C513 C9 1.853 . S
C570 C22 1.629 . S
C35 C515 1.896 . S
C571 C48 1.873 . S
C315 C4 1.316 . S
C21 C321 1.359 . S
C34 C313 1.708 . S
C43 C320 1.176 . S
C56 C312 1.316 . S
C322 C69 1.174 1_545 S
C86 C314 1.708 . S
C323 C99 1.359 . S
C369 C47 1.556 1_565 S
C8 C412 1.621 . S
C367 C17 1.163 1_565 S
C414 C30 1.341 . S
C73 C368 1.557 . S
C413 C82 1.341 . S
C366 C95 1.165 1_545 S
C415 C60 1.621 . S
C419 C112 1.392 . S
C125 C418 1.391 1_556 S
C370 C108 1.222 . S
C417 C138 1.634 . S
C147 C373 1.258 1_554 S
C151 C416 1.634 . S
C372 C121 1.224 . S
C371 C134 1.260 1_554 S
C465 C160 1.316 . S
C468 C177 1.359 . S
C190 C464 1.708 . S
C466 C199 1.174 . S
C462 C212 1.316 . S
C225 C467 1.174 . S
C242 C463 1.708 . S
C469 C255 1.359 . S
C523 C203 1.557 . S
C164 C562 1.621 . S
C522 C173 1.165 . S
C564 C186 1.341 . S
C521 C229 1.557 . S
C238 C563 1.341 . S
C520 C251 1.165 . S
C565 C216 1.621 . S
C569 C268 1.392 . S
C281 C568 1.392 . S
C516 C264 1.222 . S
C294 C567 1.634 . S
C519 C303 1.261 . S
C566 C307 1.634 . S
C517 C277 1.222 . S
C290 C518 1.261 . S
