# Generated by pormake.
# Topology tsx, (6,3)-cn, num edge types: 1
# Building blocks:
#     Node 0, Type 0, BuildingBlock: JUFBIX_clean_sbu_0, # of connection points: 6
#     Node 1, Type 0, BuildingBlock: JUFBIX_clean_sbu_0, # of connection points: 6
#     Node 2, Type 1, BuildingBlock: VETTIZ_charged_linker_0, # of connection points: 3
#     Node 3, Type 1, BuildingBlock: VETTIZ_charged_linker_0, # of connection points: 3
#     Node 4, Type 1, BuildingBlock: VETTIZ_charged_linker_0, # of connection points: 3
#     Node 5, Type 1, BuildingBlock: VETTIZ_charged_linker_0, # of connection points: 3
#     Edge 6, Type (0, 1), BuildingBlock: TEMPAE_clean_linker_10, # of connection points: 2
#     Edge 7, Type (0, 1), BuildingBlock: TEMPAE_clean_linker_10, # of connection points: 2
#     Edge 8, Type (0, 1), BuildingBlock: TEMPAE_clean_linker_10, # of connection points: 2
#     Edge 9, Type (0, 1), BuildingBlock: TEMPAE_clean_linker_10, # of connection points: 2
#     Edge 10, Type (0, 1), BuildingBlock: TEMPAE_clean_linker_10, # of connection points: 2
#     Edge 11, Type (0, 1), BuildingBlock: TEMPAE_clean_linker_10, # of connection points: 2
#     Edge 12, Type (0, 1), BuildingBlock: TEMPAE_clean_linker_10, # of connection points: 2
#     Edge 13, Type (0, 1), BuildingBlock: TEMPAE_clean_linker_10, # of connection points: 2
#     Edge 14, Type (0, 1), BuildingBlock: TEMPAE_clean_linker_10, # of connection points: 2
#     Edge 15, Type (0, 1), BuildingBlock: TEMPAE_clean_linker_10, # of connection points: 2
#     Edge 16, Type (0, 1), BuildingBlock: TEMPAE_clean_linker_10, # of connection points: 2
#     Edge 17, Type (0, 1), BuildingBlock: TEMPAE_clean_linker_10, # of connection points: 2
# Relax obj value: 0.164
# Max RMSD: 0.169
# Mean RMSD: 0.137
data_MOF--net-tsx--node1-JUFBIX_clean_sbu_0--node2-VETTIZ_charged_linker_0--edge1-TEMPAE_clean_linker_10
_symmetry_space_group_name_H-M    P1
_symmetry_Int_Tables_number       1
_symmetry_cell_setting            triclinic
loop_
_symmetry_equiv_pos_as_xyz
'x, y, z'
_cell_length_a     23.434307
_cell_length_b     27.827133
_cell_length_c     45.133287
_cell_angle_alpha  92.205022
_cell_angle_beta   89.640505
_cell_angle_gamma 97.964282
loop_
_atom_site_label
_atom_site_type_symbol
_atom_site_fract_x
_atom_site_fract_y
_atom_site_fract_z
_atom_type_partial_charge
Co0 Co 0.06974 0.99714 -0.00927 0.0
C1 C 1.00474 0.03006 0.94577 0.0
Co2 Co 0.99754 0.03528 0.00605 0.0
C3 C 0.14658 0.92353 0.98368 0.0
C4 C 0.16495 0.98111 0.95343 0.0
N5 N 0.12995 0.96606 0.97605 0.0
N6 N 0.19012 0.9113 0.96641 0.0
C7 C 0.20176 0.94757 0.94742 0.0
H8 H 0.12598 0.90127 0.00092 0.0
H9 H 0.16314 0.01405 0.9417 0.0
C10 C 0.06172 1.00328 0.05128 0.0
N11 N 0.93725 0.06579 0.02055 0.0
C12 C 0.91826 0.10571 0.01045 0.0
C13 C 0.90065 0.05107 0.0426 0.0
N14 N 0.87079 0.11635 0.02509 0.0
C15 C 0.8598 0.082 0.04543 0.0
C16 C 0.9668 0.93608 -0.00292 0.0
O17 O 0.09232 0.9883 0.03043 0.0
O18 O 0.01854 0.02391 0.04498 0.0
O19 O 0.94843 0.97573 0.00414 0.0
O20 O 0.01983 0.93607 -0.00916 0.0
O21 O 0.977 0.04638 0.9672 0.0
H22 H 0.90261 0.01909 0.05524 0.0
H23 H 0.93868 0.12612 -0.0076 0.0
O24 O 0.04639 1.00678 0.95108 0.0
O25 O 0.11861 0.05867 -0.00905 0.0
O26 O 0.04686 0.09497 0.00764 0.0
C27 C 0.09915 0.09744 -0.00048 0.0
H28 H 0.23456 0.94968 0.93034 0.0
H29 H 0.82352 0.07816 0.06051 0.0
Co30 Co 0.58043 0.49992 0.49422 0.0
C31 C 0.51666 0.52875 0.44734 0.0
Co32 Co 0.50623 0.53733 0.50734 0.0
C33 C 0.65905 0.42752 0.48923 0.0
C34 C 0.68154 0.48691 0.4607 0.0
N35 N 0.64289 0.47009 0.48137 0.0
N36 N 0.70641 0.41718 0.47427 0.0
C37 C 0.72046 0.45466 0.45631 0.0
H38 H 0.63637 0.40459 0.50558 0.0
H39 H 0.68083 0.52017 0.44914 0.0
C40 C 0.56914 0.50954 0.55449 0.0
N41 N 0.44371 0.56649 0.52032 0.0
C42 C 0.42431 0.60625 0.5102 0.0
C43 C 0.40627 0.55083 0.54182 0.0
N44 N 0.37594 0.61595 0.52441 0.0
C45 C 0.36465 0.58102 0.54436 0.0
C46 C 0.4793 0.43714 0.50016 0.0
O47 O 0.60099 0.49356 0.53455 0.0
O48 O 0.52589 0.52903 0.54689 0.0
O49 O 0.45932 0.47649 0.5061 0.0
O50 O 0.53272 0.43809 0.49468 0.0
O51 O 0.48708 0.54545 0.46792 0.0
H52 H 0.40852 0.5189 0.55447 0.0
H53 H 0.44539 0.62745 0.49263 0.0
O54 O 0.55906 0.50707 0.4539 0.0
O55 O 0.62714 0.56217 0.49409 0.0
O56 O 0.55347 0.59823 0.50821 0.0
C57 C 0.60635 0.60097 0.50111 0.0
H58 H 0.75535 0.45795 0.44037 0.0
H59 H 0.32794 0.57652 0.55915 0.0
C60 C 0.10403 0.88993 0.46287 0.0
C61 C 0.13914 0.85579 0.45248 0.0
C62 C 0.15391 0.85344 0.42231 0.0
C63 C 0.1014 0.92024 0.4132 0.0
C64 C 0.08514 0.92162 0.44267 0.0
C65 C 0.04618 0.95967 0.44905 0.0
H66 H 0.93226 0.15476 0.40022 0.0
C67 C 0.07789 0.9594 0.39835 0.0
C68 C 0.04559 0.98319 0.41914 0.0
H69 H 0.90056 0.08755 0.48456 0.0
H70 H 0.96272 0.02776 0.47034 0.0
H71 H 0.06688 0.14425 0.39373 0.0
H72 H 0.91119 0.05631 0.36346 0.0
H73 H 0.96177 0.05355 0.33491 0.0
H74 H 0.93989 0.11127 0.34595 0.0
H75 H 0.02299 0.16175 0.36465 0.0
H76 H 0.07891 0.12448 0.35704 0.0
C77 C 0.07411 0.99531 0.47355 0.0
C78 C 0.98626 0.93306 0.45729 0.0
C79 C 0.12307 0.9844 0.28963 0.0
C80 C 0.10915 0.01837 0.26963 0.0
C81 C 0.08068 0.05709 0.28021 0.0
C82 C 0.06427 0.06076 0.31002 0.0
C83 C 0.07627 0.02526 0.32949 0.0
C84 C 0.10631 0.98857 0.3193 0.0
C85 C 0.11624 0.95459 0.34315 0.0
C86 C 0.08547 0.97597 0.36912 0.0
C87 C 0.06184 0.01707 0.36099 0.0
C88 C 0.18223 0.95864 0.3483 0.0
C89 C 0.08652 0.90302 0.3336 0.0
C90 C 0.93816 0.12704 0.41568 0.0
C91 C 0.91186 0.12642 0.44377 0.0
C92 C 0.92145 0.08968 0.46311 0.0
C93 C 0.95704 0.05466 0.45469 0.0
C94 C 0.98295 0.05595 0.42648 0.0
C95 C 0.97251 0.09148 0.40743 0.0
C96 C 0.99979 0.08579 0.37757 0.0
C97 C 0.02884 0.0412 0.38175 0.0
C98 C 0.01982 0.02405 0.41058 0.0
C99 C 0.04428 0.13144 0.37268 0.0
C100 C 0.95107 0.07657 0.35405 0.0
H101 H 0.14884 0.8821 0.38002 0.0
H102 H 0.09178 0.89183 0.48602 0.0
H103 H 0.95122 0.95489 0.4538 0.0
H104 H 0.98575 0.92187 0.48065 0.0
H105 H 0.97499 0.89966 0.44298 0.0
H106 H 0.12041 1.0068 0.46852 0.0
H107 H 0.07144 0.97778 0.4953 0.0
H108 H 0.05428 0.02891 0.47576 0.0
H109 H 0.14551 0.9546 0.28222 0.0
H110 H 0.06902 0.08352 0.26515 0.0
H111 H 0.04174 0.09049 0.31658 0.0
H112 H 0.20465 0.99509 0.34271 0.0
H113 H 0.2015 0.9313 0.33436 0.0
H114 H 0.19348 0.95487 0.37177 0.0
H115 H 0.04573 0.90494 0.32148 0.0
H116 H 0.07346 0.88003 0.35256 0.0
H117 H 0.11473 0.88407 0.31865 0.0
H118 H 0.18095 0.82724 0.41408 0.0
C119 C 0.13542 0.88549 0.40265 0.0
C120 C 0.12303 0.15836 0.55327 0.0
C121 C 0.16141 0.19428 0.56864 0.0
C122 C 0.15394 0.20144 0.59948 0.0
C123 C 0.06971 0.14058 0.5988 0.0
C124 C 0.07779 0.13179 0.56886 0.0
C125 C 0.03364 0.09139 0.55656 0.0
H126 H 0.80555 0.91956 0.58429 0.0
C127 C 1.01782 0.10876 0.60827 0.0
C128 C 0.99553 0.08016 0.58357 0.0
H129 H 0.89766 0.94001 0.50176 0.0
H130 H 0.95449 0.01322 0.5227 0.0
H131 H 0.91478 0.94061 0.62634 0.0
H132 H 0.79089 0.02866 0.59705 0.0
H133 H 0.81216 0.0526 0.63248 0.0
H134 H 0.77666 0.99076 0.62821 0.0
H135 H 0.8397 0.93157 0.63604 0.0
H136 H 0.89084 0.9722 0.65746 0.0
C137 C 0.06594 0.04844 0.54729 0.0
C138 C 1.0007 0.1107 0.53103 0.0
C139 C 0.96298 0.10658 0.71712 0.0
C140 C 0.91738 0.08034 0.73268 0.0
C141 C 0.8714 0.05378 0.71647 0.0
C142 C 0.87326 0.05002 0.68549 0.0
C143 C 0.92162 0.0729 0.67049 0.0
C144 C 0.96389 0.10264 0.68615 0.0
C145 C 1.01027 0.1264 0.66625 0.0
C146 C 0.9903 0.10379 0.63627 0.0
C147 C 0.93918 0.07171 0.63906 0.0
C148 C 0.06848 0.111 0.67565 0.0
C149 C 1.00841 0.18197 0.66809 0.0
C150 C 0.83825 0.93956 0.57072 0.0
C151 C 0.84898 0.92298 0.54177 0.0
C152 C 0.89 0.95136 0.52442 0.0
C153 C 0.92307 0.99351 0.53668 0.0
C154 C 0.91467 1.00739 0.56654 0.0
C155 C 0.87151 0.98117 0.58265 0.0
C156 C 0.86793 1.00032 0.61398 0.0
C157 C 0.91738 0.04158 0.61453 0.0
C158 C 0.94505 0.04573 0.58679 0.0
C159 C 0.87852 0.95927 0.63474 0.0
C160 C 0.80884 0.01883 0.61841 0.0
H161 H 0.10496 0.18316 0.63779 0.0
H162 H 0.1274 0.15158 0.52964 0.0
H163 H 0.95679 0.09088 0.52836 0.0
H164 H 0.02439 0.10864 0.50972 0.0
H165 H 0.99471 0.14925 0.53561 0.0
H166 H 0.0952 0.04088 0.56533 0.0
H167 H 0.09276 0.05707 0.52732 0.0
H168 H 0.03705 0.01426 0.54286 0.0
H169 H 0.99895 0.1276 0.72871 0.0
H170 H 0.83476 0.03457 0.7278 0.0
H171 H 0.83801 0.02788 0.67449 0.0
H172 H 0.06255 0.07234 0.68193 0.0
H173 H 0.08707 0.13337 0.69508 0.0
H174 H 0.10077 0.11308 0.65768 0.0
H175 H 0.96456 0.19039 0.67391 0.0
H176 H 0.0182 0.19919 0.64661 0.0
H177 H 0.03855 0.2003 0.68522 0.0
H178 H 0.18372 0.22732 0.61227 0.0
C179 C 0.10818 0.17537 0.61446 0.0
C180 C 0.59769 0.38757 0.96402 0.0
C181 C 0.61734 0.34522 0.95223 0.0
C182 C 0.60997 0.33301 0.9218 0.0
C183 C 0.57118 0.40762 0.91464 0.0
C184 C 0.57285 0.41748 0.94485 0.0
C185 C 0.54505 0.46194 0.95308 0.0
H186 H 0.45313 0.66761 0.91273 0.0
C187 C 0.54892 0.44761 0.90028 0.0
C188 C 0.52732 0.47679 0.92252 0.0
H189 H 0.37422 0.57784 0.98172 0.0
H190 H 0.42482 0.51168 0.96316 0.0
H191 H 0.58776 0.62895 0.90438 0.0
H192 H 0.416 0.58627 0.87059 0.0
H193 H 0.4628 0.57082 0.84254 0.0
H194 H 0.46415 0.63378 0.85425 0.0
H195 H 0.55018 0.66579 0.88156 0.0
H196 H 0.58991 0.62043 0.86536 0.0
C197 C 0.59005 0.5015 0.96738 0.0
C198 C 0.49429 0.44767 0.97423 0.0
C199 C 0.6041 0.47751 0.79299 0.0
C200 C 0.59985 0.51628 0.77448 0.0
C201 C 0.58034 0.5586 0.78661 0.0
C202 C 0.56313 0.56136 0.81635 0.0
C203 C 0.56501 0.52128 0.83413 0.0
C204 C 0.58647 0.48072 0.82256 0.0
C205 C 0.58634 0.44185 0.84475 0.0
C206 C 0.55875 0.46503 0.87128 0.0
C207 C 0.5466 0.51155 0.8649 0.0
C208 C 0.64997 0.43566 0.85037 0.0
C209 C 0.54872 0.39493 0.83277 0.0
C210 C 0.4506 0.63534 0.92564 0.0
C211 C 0.41356 0.62952 0.95027 0.0
C212 C 0.4057 0.5845 0.96416 0.0
C213 C 0.43693 0.54708 0.95467 0.0
C214 C 0.47745 0.55521 0.93181 0.0
C215 C 0.48008 0.59707 0.91607 0.0
C216 C 0.50651 0.59112 0.88583 0.0
C217 C 0.52079 0.53957 0.88678 0.0
C218 C 0.50748 0.52048 0.91464 0.0
C219 C 0.56145 0.62863 0.88391 0.0
C220 C 0.46048 0.59602 0.86191 0.0
H221 H 0.58234 0.35304 0.87998 0.0
H222 H 0.60141 0.39689 -0.01249 0.0
H223 H 0.45504 0.43166 0.96176 0.0
H224 H 0.48564 0.47943 -0.01195 0.0
H225 H 0.50418 0.42075 -0.0097 0.0
H226 H 0.6285 0.50895 0.95283 0.0
H227 H 0.60431 0.49014 -0.01084 0.0
H228 H 0.5715 0.53588 0.97091 0.0
H229 H 0.61964 0.44478 0.78446 0.0
H230 H 0.5762 0.58891 0.7728 0.0
H231 H 0.54798 0.5942 0.8242 0.0
H232 H 0.67503 0.47085 0.85793 0.0
H233 H 0.67024 0.42307 0.82969 0.0
H234 H 0.6555 0.40926 0.86723 0.0
H235 H 0.51783 0.40274 0.81556 0.0
H236 H 0.52126 0.37678 0.85028 0.0
H237 H 0.57572 0.36884 0.82264 0.0
H238 H 0.62417 0.30027 0.91235 0.0
C239 C 0.58659 0.36385 0.903 0.0
C240 C 0.60158 0.66371 0.04879 0.0
C241 C 0.64079 0.69954 0.0637 0.0
C242 C 0.63538 0.70637 0.09468 0.0
C243 C 0.55286 0.64383 0.09534 0.0
C244 C 0.5581 0.63623 0.06509 0.0
C245 C 0.51309 0.59607 0.05327 0.0
H246 H 0.30353 0.41102 0.08504 0.0
C247 C 0.50348 0.61007 0.10582 0.0
C248 C 0.47907 0.58218 0.08129 0.0
H249 H 0.37666 0.44514 -0.00087 0.0
H250 H 0.429 0.52048 0.02024 0.0
H251 H 0.41951 0.43797 0.12277 0.0
H252 H 0.27922 0.5154 0.1025 0.0
H253 H 0.3054 0.54025 0.13698 0.0
H254 H 0.27573 0.47674 0.13349 0.0
H255 H 0.34636 0.42172 0.13477 0.0
H256 H 0.39567 0.46439 0.15586 0.0
C257 C 0.54488 0.5545 0.041 0.0
C258 C 0.47611 0.61702 0.03005 0.0
C259 C 0.46653 0.59836 0.21636 0.0
C260 C 0.42514 0.56921 0.23298 0.0
C261 C 0.37877 0.54089 0.218 0.0
C262 C 0.37612 0.53879 0.18701 0.0
C263 C 0.42036 0.56508 0.17074 0.0
C264 C 0.46295 0.59602 0.18541 0.0
C265 C 0.5044 0.62325 0.16438 0.0
C266 C 0.48096 0.60181 0.13471 0.0
C267 C 0.43267 0.56698 0.13869 0.0
C268 C 0.56542 0.61035 0.1706 0.0
C269 C 0.4989 0.67809 0.16824 0.0
C270 C 0.33168 0.43412 0.07075 0.0
C271 C 0.33814 0.42096 0.04071 0.0
C272 C 0.37243 0.45367 0.02256 0.0
C273 C 0.40333 0.49686 0.03484 0.0
C274 C 0.40043 0.50698 0.06553 0.0
C275 C 0.36317 0.47666 0.08263 0.0
C276 C 0.3633 0.49332 0.11459 0.0
C277 C 0.4089 0.53759 0.11427 0.0
C278 C 0.43124 0.5454 0.08556 0.0
C279 C 0.38189 0.4524 0.13319 0.0
C280 C 0.30285 0.50691 0.12253 0.0
H281 H 0.59009 0.68658 0.13385 0.0
H282 H 0.60422 0.65753 0.02502 0.0
H283 H 0.43201 0.59712 0.02853 0.0
H284 H 0.49681 0.61695 0.00784 0.0
H285 H 0.47034 0.65514 0.03624 0.0
H286 H 0.57621 0.54534 0.05758 0.0
H287 H 0.56932 0.56559 0.02068 0.0
H288 H 0.51602 0.52062 0.03583 0.0
H289 H 0.50262 0.62079 0.22702 0.0
H290 H 0.34518 0.51935 0.23023 0.0
H291 H 0.34078 0.51546 0.17691 0.0
H292 H 0.56327 0.57124 0.17549 0.0
H293 H 0.58541 0.63187 0.19002 0.0
H294 H 0.59496 0.61562 0.15152 0.0
H295 H 0.45547 0.68385 0.17656 0.0
H296 H 0.50338 0.69689 0.147 0.0
H297 H 0.53107 0.69679 0.18429 0.0
H298 H 0.66564 0.73251 0.10701 0.0
C299 C 0.59154 0.67925 0.1104 0.0
C300 C 0.11648 0.18569 0.01426 0.0
C301 C 0.13669 0.14503 0.00072 0.0
C302 C 0.15181 0.23059 0.01709 0.0
C303 C 0.20874 0.23534 0.00582 0.0
C304 C 0.22881 0.19499 -0.00889 0.0
C305 C 0.19266 0.15016 -0.01109 0.0
C306 C 0.12883 0.27248 0.03324 0.0
C307 C 0.28896 0.1988 0.97846 0.0
C308 C 0.28147 0.36625 0.00214 0.0
C309 C 0.31061 0.37235 0.02936 0.0
C310 C 0.25049 0.32099 -0.00674 0.0
C311 C 0.24843 0.28122 0.01215 0.0
C312 C 0.28032 0.28666 0.03886 0.0
C313 C 0.3113 0.33191 0.04697 0.0
C314 C 0.21785 0.31634 0.96436 0.0
C315 C 0.27939 0.24537 0.05973 0.0
H316 H 0.07327 0.18221 0.02339 0.0
H317 H 0.20844 0.11907 0.97816 0.0
H318 H 0.15395 0.28254 0.05385 0.0
H319 H 0.13391 0.3048 0.01933 0.0
H320 H 0.08263 0.26362 0.03926 0.0
H321 H 0.29582 0.16593 0.96488 0.0
H322 H 0.29772 0.231 0.96453 0.0
H323 H 0.32086 0.20378 -0.00324 0.0
H324 H 0.28093 0.39722 -0.01164 0.0
H325 H 0.33514 0.33595 0.06763 0.0
H326 H 0.17093 0.31304 0.96893 0.0
H327 H 0.22579 0.28301 0.95161 0.0
H328 H 0.23001 0.34822 0.95042 0.0
H329 H 0.23518 0.23579 0.06861 0.0
H330 H 0.30939 0.25468 0.0787 0.0
H331 H 0.29114 0.21261 0.04774 0.0
C332 C 0.23589 0.8471 0.94044 0.0
C333 C 0.2175 0.86797 0.96696 0.0
C334 C 0.26519 0.80642 0.9404 0.0
C335 C 0.27723 0.78628 0.96764 0.0
C336 C 0.25785 0.8066 -0.00547 0.0
C337 C 0.22778 0.84702 -0.00615 0.0
C338 C 0.2841 0.78548 0.91116 0.0
C339 C 0.27035 0.78653 0.02402 0.0
C340 C 0.31865 0.65873 0.96087 0.0
C341 C 0.37885 0.66862 0.95894 0.0
C342 C 0.28491 0.69652 0.96501 0.0
C343 C 0.31213 0.74526 0.96767 0.0
C344 C 0.3731 0.75505 0.96741 0.0
C345 C 0.40566 0.71667 0.96279 0.0
C346 C 0.2201 0.68449 0.96483 0.0
C347 C 0.40396 0.80632 0.97064 0.0
H348 H 0.22715 0.86266 0.91958 0.0
H349 H 0.21392 0.86325 0.01439 0.0
H350 H 0.33183 0.78916 0.91028 0.0
H351 H 0.26761 0.74616 0.909 0.0
H352 H 0.26877 0.8038 0.89189 0.0
H353 H 0.24998 0.80486 0.04278 0.0
H354 H 0.2547 0.74704 0.02407 0.0
H355 H 0.31759 0.79111 0.02771 0.0
H356 H 0.29776 0.62164 0.95763 0.0
H357 H 0.45225 0.72431 0.96154 0.0
H358 H 0.20275 0.69787 0.94435 0.0
H359 H 0.20111 0.70296 0.98393 0.0
H360 H 0.20574 0.6448 0.96565 0.0
H361 H 0.3959 0.82662 0.95075 0.0
H362 H 0.45125 0.80738 0.9732 0.0
H363 H 0.38719 0.82552 -0.00988 0.0
C364 C 0.87383 0.88779 0.98247 0.0
C365 C 0.92613 0.89092 -0.00229 0.0
C366 C 0.82863 0.85055 -0.01212 0.0
C367 C 0.83528 0.81698 0.00997 0.0
C368 C 0.88951 0.81822 0.024 0.0
C369 C 0.93471 0.855 0.01739 0.0
C370 C 0.7723 0.84967 0.97169 0.0
C371 C 0.89815 0.78378 0.04808 0.0
C372 C 0.70306 0.77894 0.05671 0.0
C373 C 0.68764 0.73003 0.04772 0.0
C374 C 0.75089 0.80727 0.04456 0.0
C375 C 0.78341 0.78687 0.02203 0.0
C376 C 0.76649 0.73833 0.01163 0.0
C377 C 0.71907 0.71027 0.0248 0.0
C378 C 0.76728 0.85889 0.0564 0.0
C379 C 0.79908 0.71582 -0.01297 0.0
H380 H 0.86743 0.91579 0.96724 0.0
H381 H 0.97505 0.85799 0.02941 0.0
H382 H 0.75371 0.81188 0.96525 0.0
H383 H 0.74089 0.86499 0.98653 0.0
H384 H 0.7776 0.87142 0.95148 0.0
H385 H 0.94433 0.78518 0.05396 0.0
H386 H 0.87428 0.79359 0.06824 0.0
H387 H 0.8807 0.74596 0.04118 0.0
H388 H 0.67807 0.79509 0.07371 0.0
H389 H 0.70767 0.67254 0.0177 0.0
H390 H 0.76553 0.88458 0.03836 0.0
H391 H 0.81218 0.86392 0.06484 0.0
H392 H 0.73846 0.86872 0.07462 0.0
H393 H 0.80438 0.73982 0.96785 0.0
H394 H 0.77703 0.67956 0.97942 0.0
H395 H 0.84285 0.7117 -0.00516 0.0
C396 C 0.8369 0.17256 -0.00981 0.0
C397 C 0.83592 0.15354 0.01856 0.0
C398 C 0.80069 0.20644 0.98294 0.0
C399 C 0.76201 0.22146 0.00448 0.0
C400 C 0.76161 0.20341 0.03336 0.0
C401 C 0.79874 0.16983 0.04009 0.0
C402 C 0.80266 0.22504 0.95188 0.0
C403 C 0.72085 0.21851 0.05687 0.0
C404 C 0.69851 0.33482 0.98577 0.0
C405 C 0.64829 0.31456 0.97071 0.0
C406 C 0.73483 0.30499 -0.00168 0.0
C407 C 0.71995 0.25388 -0.00402 0.0
C408 C 0.66709 0.23354 0.98266 0.0
C409 C 0.63208 0.26416 0.96998 0.0
C410 C 0.79095 0.32803 0.01219 0.0
C411 C 0.64916 0.17928 0.98016 0.0
H412 H 0.86468 0.15992 0.97322 0.0
H413 H 0.79827 0.15607 0.06221 0.0
H414 H 0.76096 0.21281 0.94059 0.0
H415 H 0.80914 0.26533 0.95267 0.0
H416 H 0.83763 0.21211 0.93832 0.0
H417 H 0.7282 0.20337 0.07873 0.0
H418 H 0.72565 0.25867 0.05947 0.0
H419 H 0.67572 0.20591 0.04999 0.0
H420 H 0.71123 0.37382 0.98608 0.0
H421 H 0.59298 0.24861 0.95845 0.0
H422 H 0.82722 0.32086 -0.0025 0.0
H423 H 0.79759 0.31194 0.03379 0.0
H424 H 0.79272 0.36795 0.01568 0.0
H425 H 0.67805 0.16283 0.96436 0.0
H426 H 0.60408 0.16964 0.97225 0.0
H427 H 0.65326 0.16285 0.00192 0.0
C428 C 0.70098 0.65289 0.49234 0.0
C429 C 0.6434 0.64875 0.50181 0.0
C430 C 0.73716 0.69762 0.49462 0.0
C431 C 0.71537 0.73901 0.50692 0.0
C432 C 0.65675 0.73538 0.51551 0.0
C433 C 0.62148 0.6904 0.51275 0.0
C434 C 0.79924 0.70014 0.48494 0.0
C435 C 0.63187 0.77852 0.52894 0.0
C436 C 0.81409 0.83576 0.55009 0.0
C437 C 0.81946 0.87477 0.531 0.0
C438 C 0.78193 0.79102 0.54205 0.0
C439 C 0.75485 0.78467 0.51398 0.0
C440 C 0.76252 0.823 0.4939 0.0
C441 C 0.7948 0.86776 0.50266 0.0
C442 C 0.77511 0.75116 0.56415 0.0
C443 C 0.73489 0.81732 0.46363 0.0
H444 H 0.71815 0.62101 0.48359 0.0
H445 H 0.57699 0.68768 0.51998 0.0
H446 H 0.81131 0.73156 0.47069 0.0
H447 H 0.82769 0.70558 0.50469 0.0
H448 H 0.80767 0.66651 0.4726 0.0
H449 H 0.58456 0.77064 0.53236 0.0
H450 H 0.65257 0.78927 0.55069 0.0
H451 H 0.64099 0.81005 0.51451 0.0
H452 H 0.83438 0.84052 0.57173 0.0
H453 H 0.79898 0.89771 0.48778 0.0
H454 H 0.78808 0.71739 0.55398 0.0
H455 H 0.72917 0.74291 0.57069 0.0
H456 H 0.80119 0.7612 0.58449 0.0
H457 H 0.74419 0.78328 0.45216 0.0
H458 H 0.75007 0.84837 0.4495 0.0
H459 H 0.68743 0.81468 0.46602 0.0
C460 C 0.70407 0.32954 0.48348 0.0
C461 C 0.73462 0.37422 0.47548 0.0
C462 C 0.73005 0.2868 0.48201 0.0
C463 C 0.78782 0.2887 0.47217 0.0
C464 C 0.81952 0.33398 0.46528 0.0
C465 C 0.79268 0.37605 0.46716 0.0
C466 C 0.69495 0.23934 0.48985 0.0
C467 C 0.88123 0.33777 0.45472 0.0
C468 C 0.87821 0.18629 0.48105 0.0
C469 C 0.87496 0.16425 0.45248 0.0
C470 C 0.84788 0.22543 0.48833 0.0
C471 C 0.81393 0.24322 0.46646 0.0
C472 C 0.80856 0.21974 0.43803 0.0
C473 C 0.83868 0.18044 0.43149 0.0
C474 C 0.85409 0.24898 0.51903 0.0
C475 C 0.77294 0.23745 0.414 0.0
H476 H 0.65921 0.32756 0.48983 0.0
H477 H 0.81713 0.41046 0.46163 0.0
H478 H 0.68609 0.21592 0.46949 0.0
H479 H 0.71936 0.21955 0.50518 0.0
H480 H 0.65316 0.24468 0.50034 0.0
H481 H 0.90093 0.37599 0.4519 0.0
H482 H 0.90764 0.32101 0.47067 0.0
H483 H 0.88303 0.31755 0.43313 0.0
H484 H 0.90621 0.17422 0.49742 0.0
H485 H 0.83464 0.16288 0.40961 0.0
H486 H 0.81119 0.25375 0.52832 0.0
H487 H 0.87944 0.28561 0.51788 0.0
H488 H 0.87614 0.2274 0.53445 0.0
H489 H 0.72849 0.23943 0.42204 0.0
H490 H 0.77066 0.21362 0.39359 0.0
H491 H 0.79191 0.27465 0.40813 0.0
C492 C 0.38668 0.38688 0.48706 0.0
C493 C 0.44011 0.39122 0.50131 0.0
C494 C 0.34334 0.34836 0.49284 0.0
C495 C 0.35306 0.31467 0.51434 0.0
C496 C 0.40846 0.31713 0.52729 0.0
C497 C 0.45177 0.3552 0.52026 0.0
C498 C 0.28567 0.34619 0.47777 0.0
C499 C 0.42033 0.28263 0.55075 0.0
C500 C 0.22397 0.27382 0.56254 0.0
C501 C 0.20881 0.22504 0.55317 0.0
C502 C 0.27113 0.3028 0.55029 0.0
C503 C 0.30305 0.28332 0.52716 0.0
C504 C 0.2867 0.23482 0.51656 0.0
C505 C 0.24012 0.20601 0.52993 0.0
C506 C 0.28708 0.3543 0.56243 0.0
C507 C 0.31864 0.21334 0.49132 0.0
H508 H 0.37797 0.41485 0.47229 0.0
H509 H 0.49306 0.35902 0.53145 0.0
H510 H 0.26807 0.30818 0.47129 0.0
H511 H 0.25461 0.36031 0.49336 0.0
H512 H 0.28864 0.36835 0.45772 0.0
H513 H 0.46713 0.28477 0.55541 0.0
H514 H 0.39816 0.2918 0.5716 0.0
H515 H 0.40317 0.24468 0.544 0.0
H516 H 0.19902 0.28956 0.57972 0.0
H517 H 0.22904 0.16839 0.52253 0.0
H518 H 0.28271 0.3803 0.54484 0.0
H519 H 0.33273 0.36014 0.56974 0.0
H520 H 0.25962 0.36302 0.5815 0.0
H521 H 0.32103 0.23717 0.47206 0.0
H522 H 0.29782 0.17645 0.48414 0.0
H523 H 0.36351 0.21099 0.49815 0.0
C524 C 0.30344 0.66877 0.5399 0.0
C525 C 0.34133 0.65356 0.51835 0.0
C526 C 0.26715 0.70328 0.53372 0.0
C527 C 0.26916 0.72345 0.50539 0.0
C528 C 0.30829 0.70927 0.48379 0.0
C529 C 0.34362 0.6744 0.49048 0.0
C530 C 0.22587 0.71741 0.55726 0.0
C531 C 0.312 0.73018 0.45332 0.0
C532 C 0.14454 0.77347 0.47041 0.0
C533 C 0.1635 0.82339 0.47248 0.0
C534 C 0.17646 0.74049 0.48312 0.0
C535 C 0.2291 0.75806 0.49761 0.0
C536 C 0.24636 0.80877 0.50138 0.0
C537 C 0.2131 0.84095 0.48877 0.0
C538 C 0.15606 0.68677 0.47904 0.0
C539 C 0.30231 0.82895 0.5165 0.0
H540 H 0.30193 0.65362 0.56167 0.0
H541 H 0.37197 0.66262 0.4735 0.0
H542 H 0.23232 0.75736 0.56131 0.0
H543 H 0.18087 0.70693 0.5495 0.0
H544 H 0.23116 0.6998 0.57856 0.0
H545 H 0.34664 0.71711 0.43957 0.0
H546 H 0.27037 0.72004 0.44158 0.0
H547 H 0.32021 0.77041 0.45523 0.0
H548 H 0.10642 0.76015 0.45744 0.0
H549 H 0.22802 0.87965 0.48983 0.0
H550 H 0.15902 0.66829 0.50021 0.0
H551 H 0.18415 0.67055 0.46271 0.0
H552 H 0.11091 0.67934 0.47092 0.0
H553 H 0.30705 0.81063 0.53756 0.0
H554 H 0.30548 0.8687 0.52129 0.0
H555 H 0.33889 0.82205 0.50196 0.0
C556 C 0.03642 1.00889 0.10463 0.0
C557 C 0.07618 0.99872 0.08274 0.0
C558 C 0.04984 1.00857 0.13472 0.0
C559 C 0.10455 0.99786 0.14324 0.0
C560 C 0.14451 0.98624 0.12135 0.0
C561 C 0.12977 0.98671 0.09121 0.0
C562 C 1.0057 0.02072 0.15738 0.0
C563 C 0.20316 0.97459 0.12974 0.0
C564 C 0.13984 0.05064 0.22019 0.0
C565 C 0.11922 1.01116 0.23745 0.0
C566 C 0.1404 0.0457 0.18916 0.0
C567 C 0.11929 1.00031 0.17522 0.0
C568 C 0.10269 0.95947 0.19261 0.0
C569 C 0.10288 0.96539 0.22358 0.0
C570 C 0.15915 0.08997 0.17135 0.0
C571 C 0.07984 0.9105 0.17859 0.0
H572 H 0.99469 0.01777 0.09827 0.0
H573 H 0.16066 0.97886 0.07435 0.0
H574 H 0.9964 0.99088 0.17305 0.0
H575 H 0.02298 0.05402 0.17051 0.0
H576 H 0.96456 0.02679 0.147 0.0
H577 H 0.22748 0.96269 0.11022 0.0
H578 H 0.22863 1.00718 0.14041 0.0
H579 H 0.19892 0.9456 0.14614 0.0
H580 H 0.15346 0.08586 0.23092 0.0
H581 H 0.08663 0.93478 0.23684 0.0
H582 H 0.12064 0.10282 0.16187 0.0
H583 H 0.1871 0.08101 0.15259 0.0
H584 H 0.1828 0.12015 0.18514 0.0
H585 H 0.03552 0.91133 0.17029 0.0
H586 H 0.07829 0.88105 0.19463 0.0
H587 H 0.1067 0.90167 0.15935 0.0
C588 C 0.93639 0.05566 0.90936 0.0
C589 C 0.98883 0.03881 0.91509 0.0
C590 C 0.9206 0.06453 0.8804 0.0
C591 C 0.95851 0.0569 0.85673 0.0
C592 C 1.01178 0.04041 0.8624 0.0
C593 C 0.02614 0.03121 0.89154 0.0
C594 C 0.8631 0.08141 0.87511 0.0
C595 C 0.05356 0.03243 0.83766 0.0
C596 C 0.90433 0.03157 0.7782 0.0
C597 C 0.92095 0.07651 0.76532 0.0
C598 C 0.91401 0.02533 0.80829 0.0
C599 C 0.94195 0.06472 0.82583 0.0
C600 C 0.95695 0.11065 0.81337 0.0
C601 C 0.94581 0.11611 0.78328 0.0
C602 C 0.89661 0.97597 0.82096 0.0
C603 C 0.987 0.15343 0.83147 0.0
H604 H 0.9073 0.06149 0.92751 0.0
H605 H 0.06689 0.01856 0.89591 0.0
H606 H 0.86928 0.11611 0.86344 0.0
H607 H 0.83614 0.05433 0.8606 0.0
H608 H 0.83925 0.08674 0.89606 0.0
H609 H 0.09404 0.02115 0.84595 0.0
H610 H 0.0333 1.00401 0.82163 0.0
H611 H 0.06456 0.06627 0.82538 0.0
H612 H 0.88601 1.00049 0.7645 0.0
H613 H 0.95787 0.15115 0.77365 0.0
H614 H 0.87142 0.97931 0.84166 0.0
H615 H 0.9357 0.95996 0.82674 0.0
H616 H 0.87046 0.95051 0.80513 0.0
H617 H 0.9623 0.1595 0.85199 0.0
H618 H 0.99265 0.18737 0.81895 0.0
H619 H 0.03009 0.14568 0.83832 0.0
C620 C 0.63244 0.49095 0.59611 0.0
C621 C 0.58181 0.50694 0.58637 0.0
C622 C 0.64457 0.4902 0.62656 0.0
C623 C 0.60501 0.50566 0.64749 0.0
C624 C 0.55377 0.52152 0.6377 0.0
C625 C 0.54286 0.52196 0.60734 0.0
C626 C 0.69957 0.47308 0.63635 0.0
C627 C 0.51023 0.53807 0.6593 0.0
C628 C 0.58905 0.46766 0.72668 0.0
C629 C 0.61064 0.51098 0.74219 0.0
C630 C 0.59139 0.46402 0.69568 0.0
C631 C 0.61557 0.50478 0.67982 0.0
C632 C 0.6411 0.54744 0.69538 0.0
C633 C 0.63825 0.55006 0.72644 0.0
C634 C 0.56365 0.41788 0.67992 0.0
C635 C 0.66763 0.59156 0.6792 0.0
H636 H 0.66274 0.47941 0.58 0.0
H637 H 0.50351 0.53425 0.60005 0.0
H638 H 0.72579 0.50231 0.6497 0.0
H639 H 0.68946 0.44161 0.65077 0.0
H640 H 0.72585 0.46227 0.61729 0.0
H641 H 0.47267 0.54951 0.64796 0.0
H642 H 0.49427 0.50826 0.67416 0.0
H643 H 0.53084 0.56904 0.67347 0.0
H644 H 0.56718 0.43739 0.73864 0.0
H645 H 0.65599 0.58329 0.73837 0.0
H646 H 0.5913 0.40714 0.66148 0.0
H647 H 0.52205 0.42412 0.67017 0.0
H648 H 0.5551 0.38731 0.69518 0.0
H649 H 0.6957 0.58104 0.66087 0.0
H650 H 0.69341 0.61869 0.69423 0.0
H651 H 0.63296 0.60908 0.66923 0.0
C652 C 0.44799 0.54842 0.40921 0.0
C653 C 0.50177 0.53507 0.41618 0.0
C654 C 0.43302 0.55509 0.37982 0.0
C655 C 0.47315 0.54892 0.35694 0.0
C656 C 0.52771 0.53588 0.36383 0.0
C657 C 0.54123 0.52872 0.39341 0.0
C658 C 0.3741 0.56821 0.37323 0.0
C659 C 0.57182 0.52962 0.33996 0.0
C660 C 0.42107 0.5198 0.27825 0.0
C661 C 0.43295 0.56523 0.26537 0.0
C662 C 0.43257 0.51428 0.30824 0.0
C663 C 0.45757 0.555 0.32566 0.0
C664 C 0.46882 0.60113 0.31305 0.0
C665 C 0.45591 0.60578 0.28308 0.0
C666 C 0.41926 0.46462 0.32108 0.0
C667 C 0.49576 0.64529 0.33101 0.0
H668 H 0.41722 0.5532 0.42675 0.0
H669 H 0.58299 0.51877 0.39875 0.0
H670 H 0.37829 0.60287 0.36155 0.0
H671 H 0.35028 0.53986 0.35828 0.0
H672 H 0.3481 0.57202 0.39364 0.0
H673 H 0.61284 0.52079 0.34913 0.0
H674 H 0.55447 0.50011 0.3239 0.0
H675 H 0.58117 0.56339 0.32746 0.0
H676 H 0.40441 0.48804 0.26469 0.0
H677 H 0.46443 0.64113 0.27344 0.0
H678 H 0.39208 0.46645 0.3412 0.0
H679 H 0.45983 0.45186 0.3279 0.0
H680 H 0.39658 0.43736 0.30502 0.0
H681 H 0.46901 0.65121 0.35082 0.0
H682 H 0.50086 0.67871 0.318 0.0
H683 H 0.5388 0.63936 0.33905 0.0
loop_
_geom_bond_atom_site_label_1
_geom_bond_atom_site_label_2
_geom_bond_distance
_geom_bond_site_symmetry_2
_ccdc_geom_bond_type
Co0 N5 2.057 . S
Co0 O17 2.021 . S
Co0 O20 2.062 1_455 S
Co0 O24 2.117 1_554 S
Co0 O25 2.020 1_565 S
C1 O21 1.259 1_455 S
C1 O24 1.258 1_545 S
Co2 N11 2.057 . S
Co2 O18 2.117 . S
Co2 O19 2.020 1_545 S
Co2 O21 2.021 1_554 S
Co2 O26 2.062 1_655 S
C3 N5 1.316 . S
C3 N6 1.347 . S
C3 H8 0.931 . S
C4 N5 1.375 1_556 S
C4 C7 1.350 . S
C4 H9 0.930 . S
N5 Co0 2.057 . S
N5 C3 1.316 . S
N5 C4 1.375 1_554 S
N6 C3 1.347 . S
N6 C7 1.373 1_554 S
C7 C4 1.350 . S
C7 N6 1.373 1_556 S
C7 H28 0.931 . S
H8 C3 0.931 . S
H9 C4 0.930 . S
C10 O17 1.259 1_545 S
C10 O18 1.258 1_455 S
N11 Co2 2.057 . S
N11 C12 1.316 . S
N11 C13 1.375 . S
C12 N11 1.316 . S
C12 N14 1.347 . S
C12 H23 0.931 1_554 S
C13 N11 1.375 . S
C13 C15 1.350 . S
C13 H22 0.930 . S
N14 C12 1.347 . S
N14 C15 1.373 . S
C15 C13 1.350 . S
C15 N14 1.373 . S
C15 H29 0.931 . S
C16 O19 1.256 . S
C16 O20 1.255 . S
O17 Co0 2.021 . S
O17 C10 1.259 1_565 S
O18 Co2 2.117 . S
O18 C10 1.258 1_655 S
O19 Co2 2.020 1_565 S
O19 C16 1.256 . S
O20 Co0 2.062 1_655 S
O20 C16 1.255 . S
O21 C1 1.259 1_655 S
O21 Co2 2.021 1_556 S
H22 C13 0.930 . S
H23 C12 0.931 1_556 S
O24 Co0 2.117 1_556 S
O24 C1 1.258 1_565 S
O25 Co0 2.020 1_545 S
O25 C27 1.256 . S
O26 Co2 2.062 1_455 S
O26 C27 1.255 . S
C27 O25 1.256 . S
C27 O26 1.255 . S
H28 C7 0.931 . S
H29 C15 0.931 . S
Co30 N35 2.057 . S
Co30 O47 2.021 . S
Co30 O50 2.062 . S
Co30 O54 2.117 . S
Co30 O55 2.020 . S
C31 O51 1.259 . S
C31 O54 1.258 . S
Co32 N41 2.057 . S
Co32 O48 2.117 . S
Co32 O49 2.020 . S
Co32 O51 2.021 . S
Co32 O56 2.062 . S
C33 N35 1.316 . S
C33 N36 1.347 . S
C33 H38 0.931 . S
C34 N35 1.375 . S
C34 C37 1.350 . S
C34 H39 0.930 . S
N35 Co30 2.057 . S
N35 C33 1.316 . S
N35 C34 1.375 . S
N36 C33 1.347 . S
N36 C37 1.373 . S
C37 C34 1.350 . S
C37 N36 1.373 . S
C37 H58 0.931 . S
H38 C33 0.931 . S
H39 C34 0.930 . S
C40 O47 1.259 . S
C40 O48 1.258 . S
N41 Co32 2.057 . S
N41 C42 1.316 . S
N41 C43 1.375 . S
C42 N41 1.316 . S
C42 N44 1.347 . S
C42 H53 0.931 . S
C43 N41 1.375 . S
C43 C45 1.350 . S
C43 H52 0.930 . S
N44 C42 1.347 . S
N44 C45 1.373 . S
C45 C43 1.350 . S
C45 N44 1.373 . S
C45 H59 0.931 . S
C46 O49 1.256 . S
C46 O50 1.255 . S
O47 Co30 2.021 . S
O47 C40 1.259 . S
O48 Co32 2.117 . S
O48 C40 1.258 . S
O49 Co32 2.020 . S
O49 C46 1.256 . S
O50 Co30 2.062 . S
O50 C46 1.255 . S
O51 C31 1.259 . S
O51 Co32 2.021 . S
H52 C43 0.930 . S
H53 C42 0.931 . S
O54 Co30 2.117 . S
O54 C31 1.258 . S
O55 Co30 2.020 . S
O55 C57 1.256 . S
O56 Co32 2.062 . S
O56 C57 1.255 . S
C57 O55 1.256 . S
C57 O56 1.255 . S
H58 C37 0.931 . S
H59 C45 0.931 . S
C60 C61 1.391 . S
C60 C64 1.391 . S
C60 H102 0.948 . S
C61 C60 1.391 . S
C61 C62 1.391 . S
C62 C61 1.391 . S
C62 H118 0.947 . S
C62 C119 1.392 . S
C63 C64 1.391 . S
C63 C67 1.397 . S
C63 C119 1.419 . S
C64 C60 1.391 . S
C64 C63 1.391 . S
C64 C65 1.399 . S
C65 C64 1.399 . S
C65 C68 1.396 . S
C65 C77 1.453 1_565 S
C65 C78 1.684 1_455 S
H66 C90 0.948 . S
C67 C63 1.397 . S
C67 C68 1.394 . S
C67 C86 1.723 . S
C68 C65 1.396 . S
C68 C67 1.394 . S
C68 C98 1.723 1_465 S
H69 C92 0.947 . S
H70 C93 0.948 . S
H71 C99 0.982 . S
H72 C100 0.979 . S
H73 C100 0.980 . S
H74 C100 0.983 . S
H75 C99 0.979 . S
H76 C99 0.977 . S
C77 C65 1.453 1_545 S
C77 H106 0.982 . S
C77 H107 0.979 1_545 S
C77 H108 0.977 . S
C78 C65 1.684 1_655 S
C78 H103 0.979 . S
C78 H104 0.980 . S
C78 H105 0.983 . S
C79 C80 1.391 1_465 S
C79 C84 1.391 . S
C79 H109 0.948 . S
C80 C79 1.391 1_645 S
C80 C81 1.391 . S
C81 C80 1.391 . S
C81 C82 1.392 . S
C81 H110 0.947 . S
C82 C81 1.392 . S
C82 C83 1.419 . S
C82 H111 0.948 . S
C83 C82 1.419 . S
C83 C84 1.391 1_645 S
C83 C87 1.397 . S
C84 C79 1.391 . S
C84 C83 1.391 1_465 S
C84 C85 1.399 . S
C85 C84 1.399 . S
C85 C86 1.396 . S
C85 C88 1.453 . S
C85 C89 1.684 . S
C86 C67 1.723 . S
C86 C85 1.396 . S
C86 C87 1.394 1_465 S
C87 C83 1.397 . S
C87 C86 1.394 1_645 S
C87 C97 1.723 . S
C88 C85 1.453 . S
C88 H112 0.982 . S
C88 H113 0.979 . S
C88 H114 0.977 . S
C89 C85 1.684 . S
C89 H115 0.977 . S
C89 H116 0.980 . S
C89 H117 0.983 . S
C90 H66 0.948 . S
C90 C91 1.391 . S
C90 C95 1.391 . S
C91 C90 1.391 . S
C91 C92 1.391 . S
C92 H69 0.947 . S
C92 C91 1.391 . S
C92 C93 1.392 . S
C93 H70 0.948 . S
C93 C92 1.392 . S
C93 C94 1.419 . S
C94 C93 1.419 . S
C94 C95 1.391 . S
C94 C98 1.397 . S
C95 C90 1.391 . S
C95 C94 1.391 . S
C95 C96 1.399 . S
C96 C95 1.399 . S
C96 C97 1.396 . S
C96 C99 1.453 . S
C96 C100 1.684 . S
C97 C87 1.723 . S
C97 C96 1.396 . S
C97 C98 1.394 . S
C98 C68 1.723 1_645 S
C98 C94 1.397 . S
C98 C97 1.394 . S
C99 H71 0.982 . S
C99 H75 0.979 . S
C99 H76 0.977 . S
C99 C96 1.453 . S
C100 H72 0.979 . S
C100 H73 0.980 . S
C100 H74 0.983 . S
C100 C96 1.684 . S
H101 C119 0.948 . S
H102 C60 0.948 . S
H103 C78 0.979 . S
H104 C78 0.980 . S
H105 C78 0.983 . S
H106 C77 0.982 . S
H107 C77 0.979 1_565 S
H108 C77 0.977 . S
H109 C79 0.948 . S
H110 C81 0.947 . S
H111 C82 0.948 . S
H112 C88 0.982 . S
H113 C88 0.979 . S
H114 C88 0.977 . S
H115 C89 0.977 . S
H116 C89 0.980 . S
H117 C89 0.983 . S
H118 C62 0.947 . S
C119 C62 1.392 . S
C119 C63 1.419 . S
C119 H101 0.948 . S
C120 C121 1.391 . S
C120 C124 1.391 . S
C120 H162 0.948 . S
C121 C120 1.391 . S
C121 C122 1.391 . S
C122 C121 1.391 . S
C122 H178 0.947 . S
C122 C179 1.392 . S
C123 C124 1.391 . S
C123 C127 1.397 . S
C123 C179 1.419 . S
C124 C120 1.391 . S
C124 C123 1.391 . S
C124 C125 1.399 . S
C125 C124 1.399 . S
C125 C128 1.396 . S
C125 C137 1.453 . S
C125 C138 1.684 1_455 S
H126 C150 0.948 . S
C127 C123 1.397 . S
C127 C128 1.394 . S
C127 C146 1.723 . S
C128 C125 1.396 . S
C128 C127 1.394 . S
C128 C158 1.723 1_445 S
H129 C152 0.947 . S
H130 C153 0.948 . S
H131 C159 0.982 . S
H132 C160 0.979 . S
H133 C160 0.980 . S
H134 C160 0.983 . S
H135 C159 0.979 . S
H136 C159 0.977 . S
C137 C125 1.453 . S
C137 H166 0.982 . S
C137 H167 0.979 . S
C137 H168 0.977 1_545 S
C138 C125 1.684 1_655 S
C138 H163 0.979 . S
C138 H164 0.980 . S
C138 H165 0.983 1_655 S
C139 C140 1.391 1_455 S
C139 C144 1.391 . S
C139 H169 0.948 . S
C140 C139 1.391 1_655 S
C140 C141 1.391 1_545 S
C141 C140 1.391 1_565 S
C141 C142 1.392 . S
C141 H170 0.947 . S
C142 C141 1.392 . S
C142 C143 1.419 1_565 S
C142 H171 0.948 . S
C143 C142 1.419 1_545 S
C143 C144 1.391 1_655 S
C143 C147 1.397 . S
C144 C139 1.391 . S
C144 C143 1.391 1_455 S
C144 C145 1.399 . S
C145 C144 1.399 . S
C145 C146 1.396 . S
C145 C148 1.453 . S
C145 C149 1.684 . S
C146 C127 1.723 . S
C146 C145 1.396 . S
C146 C147 1.394 1_455 S
C147 C143 1.397 . S
C147 C146 1.394 1_655 S
C147 C157 1.723 1_545 S
C148 C145 1.453 . S
C148 H172 0.982 . S
C148 H173 0.979 . S
C148 H174 0.977 . S
C149 C145 1.684 . S
C149 H175 0.979 . S
C149 H176 0.980 . S
C149 H177 0.983 . S
C150 H126 0.948 . S
C150 C151 1.391 . S
C150 C155 1.391 . S
C151 C150 1.391 . S
C151 C152 1.391 . S
C152 H129 0.947 . S
C152 C151 1.391 . S
C152 C153 1.392 . S
C153 H130 0.948 . S
C153 C152 1.392 . S
C153 C154 1.419 . S
C154 C153 1.419 . S
C154 C155 1.391 . S
C154 C158 1.397 . S
C155 C150 1.391 . S
C155 C154 1.391 . S
C155 C156 1.399 . S
C156 C155 1.399 . S
C156 C157 1.396 . S
C156 C159 1.453 . S
C156 C160 1.684 . S
C157 C147 1.723 1_565 S
C157 C156 1.396 . S
C157 C158 1.394 . S
C158 C128 1.723 1_665 S
C158 C154 1.397 . S
C158 C157 1.394 . S
C159 H131 0.982 . S
C159 H135 0.979 . S
C159 H136 0.977 . S
C159 C156 1.453 . S
C160 H132 0.979 . S
C160 H133 0.980 . S
C160 H134 0.983 . S
C160 C156 1.684 . S
H161 C179 0.948 . S
H162 C120 0.948 . S
H163 C138 0.979 . S
H164 C138 0.980 . S
H165 C138 0.983 1_455 S
H166 C137 0.982 . S
H167 C137 0.979 . S
H168 C137 0.977 1_565 S
H169 C139 0.948 . S
H170 C141 0.947 . S
H171 C142 0.948 . S
H172 C148 0.982 . S
H173 C148 0.979 . S
H174 C148 0.977 . S
H175 C149 0.979 . S
H176 C149 0.980 . S
H177 C149 0.983 . S
H178 C122 0.947 . S
C179 C122 1.392 . S
C179 C123 1.419 . S
C179 H161 0.948 . S
C180 C181 1.391 . S
C180 C184 1.391 . S
C180 H222 0.948 1_556 S
C181 C180 1.391 . S
C181 C182 1.391 . S
C182 C181 1.391 . S
C182 H238 0.947 . S
C182 C239 1.392 . S
C183 C184 1.391 . S
C183 C187 1.397 . S
C183 C239 1.419 . S
C184 C180 1.391 . S
C184 C183 1.391 . S
C184 C185 1.399 . S
C185 C184 1.399 . S
C185 C188 1.396 . S
C185 C197 1.453 1_556 S
C185 C198 1.684 1_556 S
H186 C210 0.948 . S
C187 C183 1.397 . S
C187 C188 1.394 . S
C187 C206 1.723 . S
C188 C185 1.396 . S
C188 C187 1.394 . S
C188 C218 1.723 . S
H189 C212 0.947 . S
H190 C213 0.948 1_554 S
H191 C219 0.982 . S
H192 C220 0.979 . S
H193 C220 0.980 . S
H194 C220 0.983 . S
H195 C219 0.979 . S
H196 C219 0.977 . S
C197 C185 1.453 1_554 S
C197 H226 0.982 1_554 S
C197 H227 0.979 . S
C197 H228 0.977 . S
C198 C185 1.684 1_554 S
C198 H223 0.979 . S
C198 H224 0.980 . S
C198 H225 0.983 . S
C199 C200 1.391 . S
C199 C204 1.391 . S
C199 H229 0.948 . S
C200 C199 1.391 . S
C200 C201 1.391 . S
C201 C200 1.391 . S
C201 C202 1.392 . S
C201 H230 0.947 . S
C202 C201 1.392 . S
C202 C203 1.419 . S
C202 H231 0.948 . S
C203 C202 1.419 . S
C203 C204 1.391 . S
C203 C207 1.397 . S
C204 C199 1.391 . S
C204 C203 1.391 . S
C204 C205 1.399 . S
C205 C204 1.399 . S
C205 C206 1.396 . S
C205 C208 1.453 . S
C205 C209 1.684 . S
C206 C187 1.723 . S
C206 C205 1.396 . S
C206 C207 1.394 . S
C207 C203 1.397 . S
C207 C206 1.394 . S
C207 C217 1.723 . S
C208 C205 1.453 . S
C208 H232 0.982 . S
C208 H233 0.979 . S
C208 H234 0.977 . S
C209 C205 1.684 . S
C209 H235 0.979 . S
C209 H236 0.980 . S
C209 H237 0.983 . S
C210 H186 0.948 . S
C210 C211 1.391 . S
C210 C215 1.391 . S
C211 C210 1.391 . S
C211 C212 1.391 1_556 S
C212 H189 0.947 . S
C212 C211 1.391 1_554 S
C212 C213 1.392 1_554 S
C213 H190 0.948 1_556 S
C213 C212 1.392 1_556 S
C213 C214 1.419 . S
C214 C213 1.419 . S
C214 C215 1.391 . S
C214 C218 1.397 . S
C215 C210 1.391 . S
C215 C214 1.391 . S
C215 C216 1.399 . S
C216 C215 1.399 . S
C216 C217 1.396 . S
C216 C219 1.453 . S
C216 C220 1.684 . S
C217 C207 1.723 . S
C217 C216 1.396 . S
C217 C218 1.394 . S
C218 C188 1.723 . S
C218 C214 1.397 . S
C218 C217 1.394 . S
C219 H191 0.982 . S
C219 H195 0.979 . S
C219 H196 0.977 . S
C219 C216 1.453 . S
C220 H192 0.979 . S
C220 H193 0.980 . S
C220 H194 0.983 . S
C220 C216 1.684 . S
H221 C239 0.948 . S
H222 C180 0.948 1_554 S
H223 C198 0.979 . S
H224 C198 0.980 . S
H225 C198 0.983 . S
H226 C197 0.982 1_556 S
H227 C197 0.979 . S
H228 C197 0.977 . S
H229 C199 0.948 . S
H230 C201 0.947 . S
H231 C202 0.948 . S
H232 C208 0.982 . S
H233 C208 0.979 . S
H234 C208 0.977 . S
H235 C209 0.979 . S
H236 C209 0.980 . S
H237 C209 0.983 . S
H238 C182 0.947 . S
C239 C182 1.392 . S
C239 C183 1.419 . S
C239 H221 0.948 . S
C240 C241 1.391 . S
C240 C244 1.391 . S
C240 H282 0.948 . S
C241 C240 1.391 . S
C241 C242 1.391 . S
C242 C241 1.391 . S
C242 H298 0.947 . S
C242 C299 1.392 . S
C243 C244 1.391 . S
C243 C247 1.397 . S
C243 C299 1.419 . S
C244 C240 1.391 . S
C244 C243 1.391 . S
C244 C245 1.399 . S
C245 C244 1.399 . S
C245 C248 1.396 . S
C245 C257 1.453 . S
C245 C258 1.684 . S
H246 C270 0.948 . S
C247 C243 1.397 . S
C247 C248 1.394 . S
C247 C266 1.723 . S
C248 C245 1.396 . S
C248 C247 1.394 . S
C248 C278 1.723 . S
H249 C272 0.947 1_556 S
H250 C273 0.948 . S
H251 C279 0.982 . S
H252 C280 0.979 . S
H253 C280 0.980 . S
H254 C280 0.983 . S
H255 C279 0.979 . S
H256 C279 0.977 . S
C257 C245 1.453 . S
C257 H286 0.982 . S
C257 H287 0.980 . S
C257 H288 0.977 . S
C258 C245 1.684 . S
C258 H283 0.979 . S
C258 H284 0.980 . S
C258 H285 0.983 1_554 S
C259 C260 1.391 . S
C259 C264 1.391 . S
C259 H289 0.948 . S
C260 C259 1.391 . S
C260 C261 1.391 . S
C261 C260 1.391 . S
C261 C262 1.392 . S
C261 H290 0.947 . S
C262 C261 1.392 . S
C262 C263 1.419 . S
C262 H291 0.948 . S
C263 C262 1.419 . S
C263 C264 1.391 . S
C263 C267 1.397 . S
C264 C259 1.391 . S
C264 C263 1.391 . S
C264 C265 1.399 . S
C265 C264 1.399 . S
C265 C266 1.396 . S
C265 C268 1.453 . S
C265 C269 1.684 . S
C266 C247 1.723 . S
C266 C265 1.396 . S
C266 C267 1.394 . S
C267 C263 1.397 . S
C267 C266 1.394 . S
C267 C277 1.723 . S
C268 C265 1.453 . S
C268 H292 0.982 . S
C268 H293 0.979 . S
C268 H294 0.977 . S
C269 C265 1.684 . S
C269 H295 0.979 . S
C269 H296 0.980 . S
C269 H297 0.983 . S
C270 H246 0.948 . S
C270 C271 1.391 . S
C270 C275 1.391 . S
C271 C270 1.391 . S
C271 C272 1.391 . S
C272 H249 0.947 1_554 S
C272 C271 1.391 . S
C272 C273 1.392 . S
C273 H250 0.948 . S
C273 C272 1.392 . S
C273 C274 1.419 . S
C274 C273 1.419 . S
C274 C275 1.391 . S
C274 C278 1.397 . S
C275 C270 1.391 . S
C275 C274 1.391 . S
C275 C276 1.399 . S
C276 C275 1.399 . S
C276 C277 1.396 . S
C276 C279 1.453 . S
C276 C280 1.684 . S
C277 C267 1.723 . S
C277 C276 1.396 . S
C277 C278 1.394 . S
C278 C248 1.723 . S
C278 C274 1.397 . S
C278 C277 1.394 . S
C279 H251 0.982 . S
C279 H255 0.979 . S
C279 H256 0.977 . S
C279 C276 1.453 . S
C280 H252 0.979 . S
C280 H253 0.980 . S
C280 H254 0.983 . S
C280 C276 1.684 . S
H281 C299 0.948 . S
H282 C240 0.948 . S
H283 C258 0.979 . S
H284 C258 0.980 . S
H285 C258 0.983 1_556 S
H286 C257 0.982 . S
H287 C257 0.980 . S
H288 C257 0.977 . S
H289 C259 0.948 . S
H290 C261 0.947 . S
H291 C262 0.948 . S
H292 C268 0.982 . S
H293 C268 0.979 . S
H294 C268 0.977 . S
H295 C269 0.979 . S
H296 C269 0.980 . S
H297 C269 0.983 . S
H298 C242 0.947 . S
C299 C242 1.392 . S
C299 C243 1.419 . S
C299 H281 0.948 . S
C300 C301 1.391 . S
C300 C302 1.394 . S
C300 H316 0.931 . S
C301 C300 1.391 . S
C301 C305 1.376 . S
C302 C300 1.394 . S
C302 C303 1.369 . S
C302 C306 1.531 . S
C303 C302 1.369 . S
C303 C304 1.410 . S
C303 C311 1.503 . S
C304 C303 1.410 . S
C304 C305 1.392 . S
C304 C307 1.511 1_554 S
C305 C301 1.376 . S
C305 C304 1.392 . S
C305 H317 0.929 1_554 S
C306 C302 1.531 . S
C306 H318 0.960 . S
C306 H319 0.962 . S
C306 H320 0.960 . S
C307 C304 1.511 1_556 S
C307 H321 0.961 . S
C307 H322 0.961 . S
C307 H323 0.961 1_556 S
C308 C309 1.370 . S
C308 C310 1.363 . S
C308 H324 0.931 1_554 S
C309 C308 1.370 . S
C309 C313 1.408 . S
C310 C308 1.363 . S
C310 C311 1.370 . S
C310 C314 1.524 1_554 S
C311 C303 1.503 . S
C311 C310 1.370 . S
C311 C312 1.403 . S
C312 C311 1.403 . S
C312 C313 1.404 . S
C312 C315 1.539 . S
C313 C309 1.408 . S
C313 C312 1.404 . S
C313 H325 0.930 . S
C314 C310 1.524 1_556 S
C314 H326 0.956 . S
C314 H327 0.961 . S
C314 H328 0.961 . S
C315 C312 1.539 . S
C315 H329 0.958 . S
C315 H330 0.961 . S
C315 H331 0.960 . S
H316 C300 0.931 . S
H317 C305 0.929 1_556 S
H318 C306 0.960 . S
H319 C306 0.962 . S
H320 C306 0.960 . S
H321 C307 0.961 . S
H322 C307 0.961 . S
H323 C307 0.961 1_554 S
H324 C308 0.931 1_556 S
H325 C313 0.930 . S
H326 C314 0.956 . S
H327 C314 0.961 . S
H328 C314 0.961 . S
H329 C315 0.958 . S
H330 C315 0.961 . S
H331 C315 0.960 . S
C332 C333 1.391 1_556 S
C332 C334 1.394 . S
C332 H348 0.931 . S
C333 C332 1.391 1_554 S
C333 C337 1.376 . S
C334 C332 1.394 . S
C334 C335 1.369 1_556 S
C334 C338 1.531 . S
C335 C334 1.369 1_554 S
C335 C336 1.410 . S
C335 C343 1.503 . S
C336 C335 1.410 . S
C336 C337 1.392 . S
C336 C339 1.511 . S
C337 C333 1.376 . S
C337 C336 1.392 . S
C337 H349 0.929 . S
C338 C334 1.531 . S
C338 H350 0.960 . S
C338 H351 0.962 . S
C338 H352 0.960 . S
C339 C336 1.511 . S
C339 H353 0.961 . S
C339 H354 0.961 . S
C339 H355 0.961 . S
C340 C341 1.370 1_554 S
C340 C342 1.363 . S
C340 H356 0.931 . S
C341 C340 1.370 1_556 S
C341 C345 1.408 . S
C342 C340 1.363 . S
C342 C343 1.370 . S
C342 C346 1.524 . S
C343 C335 1.503 . S
C343 C342 1.370 . S
C343 C344 1.403 1_554 S
C344 C343 1.403 1_556 S
C344 C345 1.404 . S
C344 C347 1.539 . S
C345 C341 1.408 . S
C345 C344 1.404 . S
C345 H357 0.930 . S
C346 C342 1.524 . S
C346 H358 0.956 . S
C346 H359 0.961 . S
C346 H360 0.961 . S
C347 C344 1.539 . S
C347 H361 0.958 . S
C347 H362 0.961 . S
C347 H363 0.960 . S
H348 C332 0.931 . S
H349 C337 0.929 . S
H350 C338 0.960 . S
H351 C338 0.962 . S
H352 C338 0.960 . S
H353 C339 0.961 . S
H354 C339 0.961 . S
H355 C339 0.961 . S
H356 C340 0.931 . S
H357 C345 0.930 . S
H358 C346 0.956 . S
H359 C346 0.961 . S
H360 C346 0.961 . S
H361 C347 0.958 . S
H362 C347 0.961 . S
H363 C347 0.960 . S
C364 C365 1.391 1_556 S
C364 C366 1.394 . S
C364 H380 0.931 . S
C365 C364 1.391 1_554 S
C365 C369 1.376 . S
C366 C364 1.394 . S
C366 C367 1.369 1_556 S
C366 C370 1.531 . S
C367 C366 1.369 1_554 S
C367 C368 1.410 . S
C367 C375 1.503 . S
C368 C367 1.410 . S
C368 C369 1.392 . S
C368 C371 1.511 . S
C369 C365 1.376 . S
C369 C368 1.392 . S
C369 H381 0.929 . S
C370 C366 1.531 . S
C370 H382 0.960 . S
C370 H383 0.962 . S
C370 H384 0.960 . S
C371 C368 1.511 . S
C371 H385 0.961 . S
C371 H386 0.961 . S
C371 H387 0.961 . S
C372 C373 1.370 . S
C372 C374 1.363 . S
C372 H388 0.931 . S
C373 C372 1.370 . S
C373 C377 1.408 . S
C374 C372 1.363 . S
C374 C375 1.370 . S
C374 C378 1.524 . S
C375 C367 1.503 . S
C375 C374 1.370 . S
C375 C376 1.403 . S
C376 C375 1.403 . S
C376 C377 1.404 . S
C376 C379 1.539 . S
C377 C373 1.408 . S
C377 C376 1.404 . S
C377 H389 0.930 . S
C378 C374 1.524 . S
C378 H390 0.956 . S
C378 H391 0.961 . S
C378 H392 0.961 . S
C379 C376 1.539 . S
C379 H393 0.958 1_554 S
C379 H394 0.961 . S
C379 H395 0.960 . S
H380 C364 0.931 . S
H381 C369 0.929 . S
H382 C370 0.960 . S
H383 C370 0.962 . S
H384 C370 0.960 . S
H385 C371 0.961 . S
H386 C371 0.961 . S
H387 C371 0.961 . S
H388 C372 0.931 . S
H389 C377 0.930 . S
H390 C378 0.956 . S
H391 C378 0.961 . S
H392 C378 0.961 . S
H393 C379 0.958 1_556 S
H394 C379 0.961 . S
H395 C379 0.960 . S
C396 C397 1.375 1_556 S
C396 C398 1.401 . S
C396 H412 0.940 . S
C397 C396 1.375 1_554 S
C397 C401 1.376 . S
C398 C396 1.401 . S
C398 C399 1.367 1_556 S
C398 C402 1.531 . S
C399 C398 1.367 1_554 S
C399 C400 1.413 . S
C399 C407 1.503 1_554 S
C400 C399 1.413 . S
C400 C401 1.392 . S
C400 C403 1.511 . S
C401 C397 1.376 . S
C401 C400 1.392 . S
C401 H413 0.929 . S
C402 C398 1.531 . S
C402 H414 0.960 . S
C402 H415 0.962 . S
C402 H416 0.960 . S
C403 C400 1.511 . S
C403 H417 0.961 . S
C403 H418 0.961 . S
C403 H419 0.966 . S
C404 C405 1.370 1_554 S
C404 C406 1.363 . S
C404 H420 0.931 . S
C405 C404 1.370 1_556 S
C405 C409 1.408 . S
C406 C404 1.363 . S
C406 C407 1.370 1_554 S
C406 C410 1.524 . S
C407 C399 1.503 1_556 S
C407 C406 1.370 1_556 S
C407 C408 1.403 . S
C408 C407 1.403 . S
C408 C409 1.404 . S
C408 C411 1.539 . S
C409 C405 1.408 . S
C409 C408 1.404 . S
C409 H421 0.930 . S
C410 C406 1.524 . S
C410 H422 0.956 . S
C410 H423 0.961 . S
C410 H424 0.961 . S
C411 C408 1.539 . S
C411 H425 0.958 . S
C411 H426 0.961 . S
C411 H427 0.960 . S
H412 C396 0.940 . S
H413 C401 0.929 . S
H414 C402 0.960 . S
H415 C402 0.962 . S
H416 C402 0.960 . S
H417 C403 0.961 . S
H418 C403 0.961 . S
H419 C403 0.966 . S
H420 C404 0.931 . S
H421 C409 0.930 . S
H422 C410 0.956 . S
H423 C410 0.961 . S
H424 C410 0.961 . S
H425 C411 0.958 . S
H426 C411 0.961 . S
H427 C411 0.960 . S
C428 C429 1.391 . S
C428 C430 1.394 . S
C428 H444 0.931 . S
C429 C428 1.391 . S
C429 C433 1.376 . S
C430 C428 1.394 . S
C430 C431 1.369 . S
C430 C434 1.531 . S
C431 C430 1.369 . S
C431 C432 1.410 . S
C431 C439 1.503 . S
C432 C431 1.410 . S
C432 C433 1.392 . S
C432 C435 1.511 . S
C433 C429 1.376 . S
C433 C432 1.392 . S
C433 H445 0.929 . S
C434 C430 1.531 . S
C434 H446 0.960 . S
C434 H447 0.962 . S
C434 H448 0.960 . S
C435 C432 1.511 . S
C435 H449 0.961 . S
C435 H450 0.961 . S
C435 H451 0.961 . S
C436 C437 1.370 . S
C436 C438 1.363 . S
C436 H452 0.931 . S
C437 C436 1.370 . S
C437 C441 1.408 . S
C438 C436 1.363 . S
C438 C439 1.370 . S
C438 C442 1.524 . S
C439 C431 1.503 . S
C439 C438 1.370 . S
C439 C440 1.403 . S
C440 C439 1.403 . S
C440 C441 1.404 . S
C440 C443 1.539 . S
C441 C437 1.408 . S
C441 C440 1.404 . S
C441 H453 0.930 . S
C442 C438 1.524 . S
C442 H454 0.956 . S
C442 H455 0.961 . S
C442 H456 0.961 . S
C443 C440 1.539 . S
C443 H457 0.958 . S
C443 H458 0.961 . S
C443 H459 0.960 . S
H444 C428 0.931 . S
H445 C433 0.929 . S
H446 C434 0.960 . S
H447 C434 0.962 . S
H448 C434 0.960 . S
H449 C435 0.961 . S
H450 C435 0.961 . S
H451 C435 0.961 . S
H452 C436 0.931 . S
H453 C441 0.930 . S
H454 C442 0.956 . S
H455 C442 0.961 . S
H456 C442 0.961 . S
H457 C443 0.958 . S
H458 C443 0.961 . S
H459 C443 0.960 . S
C460 C461 1.391 . S
C460 C462 1.394 . S
C460 H476 0.931 . S
C461 C460 1.391 . S
C461 C465 1.376 . S
C462 C460 1.394 . S
C462 C463 1.369 . S
C462 C466 1.531 . S
C463 C462 1.369 . S
C463 C464 1.410 . S
C463 C471 1.503 . S
C464 C463 1.410 . S
C464 C465 1.392 . S
C464 C467 1.511 . S
C465 C461 1.376 . S
C465 C464 1.392 . S
C465 H477 0.929 . S
C466 C462 1.531 . S
C466 H478 0.960 . S
C466 H479 0.962 . S
C466 H480 0.960 . S
C467 C464 1.511 . S
C467 H481 0.961 . S
C467 H482 0.961 . S
C467 H483 0.961 . S
C468 C469 1.370 . S
C468 C470 1.363 . S
C468 H484 0.931 . S
C469 C468 1.370 . S
C469 C473 1.408 . S
C470 C468 1.363 . S
C470 C471 1.370 . S
C470 C474 1.524 . S
C471 C463 1.503 . S
C471 C470 1.370 . S
C471 C472 1.403 . S
C472 C471 1.403 . S
C472 C473 1.404 . S
C472 C475 1.539 . S
C473 C469 1.408 . S
C473 C472 1.404 . S
C473 H485 0.930 . S
C474 C470 1.524 . S
C474 H486 0.956 . S
C474 H487 0.961 . S
C474 H488 0.961 . S
C475 C472 1.539 . S
C475 H489 0.958 . S
C475 H490 0.961 . S
C475 H491 0.960 . S
H476 C460 0.931 . S
H477 C465 0.929 . S
H478 C466 0.960 . S
H479 C466 0.962 . S
H480 C466 0.960 . S
H481 C467 0.961 . S
H482 C467 0.961 . S
H483 C467 0.961 . S
H484 C468 0.931 . S
H485 C473 0.930 . S
H486 C474 0.956 . S
H487 C474 0.961 . S
H488 C474 0.961 . S
H489 C475 0.958 . S
H490 C475 0.961 . S
H491 C475 0.960 . S
C492 C493 1.391 . S
C492 C494 1.394 . S
C492 H508 0.931 . S
C493 C492 1.391 . S
C493 C497 1.376 . S
C494 C492 1.394 . S
C494 C495 1.369 . S
C494 C498 1.531 . S
C495 C494 1.369 . S
C495 C496 1.410 . S
C495 C503 1.503 . S
C496 C495 1.410 . S
C496 C497 1.392 . S
C496 C499 1.511 . S
C497 C493 1.376 . S
C497 C496 1.392 . S
C497 H509 0.929 . S
C498 C494 1.531 . S
C498 H510 0.960 . S
C498 H511 0.962 . S
C498 H512 0.960 . S
C499 C496 1.511 . S
C499 H513 0.961 . S
C499 H514 0.961 . S
C499 H515 0.961 . S
C500 C501 1.370 . S
C500 C502 1.363 . S
C500 H516 0.931 . S
C501 C500 1.370 . S
C501 C505 1.408 . S
C502 C500 1.363 . S
C502 C503 1.370 . S
C502 C506 1.524 . S
C503 C495 1.503 . S
C503 C502 1.370 . S
C503 C504 1.403 . S
C504 C503 1.403 . S
C504 C505 1.404 . S
C504 C507 1.539 . S
C505 C501 1.408 . S
C505 C504 1.404 . S
C505 H517 0.930 . S
C506 C502 1.524 . S
C506 H518 0.956 . S
C506 H519 0.961 . S
C506 H520 0.961 . S
C507 C504 1.539 . S
C507 H521 0.958 . S
C507 H522 0.961 . S
C507 H523 0.960 . S
H508 C492 0.931 . S
H509 C497 0.929 . S
H510 C498 0.960 . S
H511 C498 0.962 . S
H512 C498 0.960 . S
H513 C499 0.961 . S
H514 C499 0.961 . S
H515 C499 0.961 . S
H516 C500 0.931 . S
H517 C505 0.930 . S
H518 C506 0.956 . S
H519 C506 0.961 . S
H520 C506 0.961 . S
H521 C507 0.958 . S
H522 C507 0.961 . S
H523 C507 0.960 . S
C524 C525 1.391 . S
C524 C526 1.394 . S
C524 H540 0.931 . S
C525 C524 1.391 . S
C525 C529 1.376 . S
C526 C524 1.394 . S
C526 C527 1.369 . S
C526 C530 1.531 . S
C527 C526 1.369 . S
C527 C528 1.410 . S
C527 C535 1.503 . S
C528 C527 1.410 . S
C528 C529 1.392 . S
C528 C531 1.511 . S
C529 C525 1.376 . S
C529 C528 1.392 . S
C529 H541 0.929 . S
C530 C526 1.531 . S
C530 H542 0.960 . S
C530 H543 0.962 . S
C530 H544 0.960 . S
C531 C528 1.511 . S
C531 H545 0.961 . S
C531 H546 0.961 . S
C531 H547 0.961 . S
C532 C533 1.370 . S
C532 C534 1.363 . S
C532 H548 0.931 . S
C533 C532 1.370 . S
C533 C537 1.408 . S
C534 C532 1.363 . S
C534 C535 1.370 . S
C534 C538 1.524 . S
C535 C527 1.503 . S
C535 C534 1.370 . S
C535 C536 1.403 . S
C536 C535 1.403 . S
C536 C537 1.404 . S
C536 C539 1.539 . S
C537 C533 1.408 . S
C537 C536 1.404 . S
C537 H549 0.930 . S
C538 C534 1.524 . S
C538 H550 0.956 . S
C538 H551 0.961 . S
C538 H552 0.961 . S
C539 C536 1.539 . S
C539 H553 0.958 . S
C539 H554 0.961 . S
C539 H555 0.960 . S
H540 C524 0.931 . S
H541 C529 0.929 . S
H542 C530 0.960 . S
H543 C530 0.962 . S
H544 C530 0.960 . S
H545 C531 0.961 . S
H546 C531 0.961 . S
H547 C531 0.961 . S
H548 C532 0.931 . S
H549 C537 0.930 . S
H550 C538 0.956 . S
H551 C538 0.961 . S
H552 C538 0.961 . S
H553 C539 0.958 . S
H554 C539 0.961 . S
H555 C539 0.960 . S
C556 C557 1.391 1_665 S
C556 C558 1.394 . S
C556 H572 0.931 . S
C557 C556 1.391 1_445 S
C557 C561 1.376 . S
C558 C556 1.394 . S
C558 C559 1.369 1_655 S
C558 C562 1.531 . S
C559 C558 1.369 1_455 S
C559 C560 1.410 1_565 S
C559 C567 1.503 . S
C560 C559 1.410 1_545 S
C560 C561 1.392 . S
C560 C563 1.511 . S
C561 C557 1.376 . S
C561 C560 1.392 . S
C561 H573 0.929 . S
C562 C558 1.531 . S
C562 H574 0.960 . S
C562 H575 0.962 1_565 S
C562 H576 0.960 . S
C563 C560 1.511 . S
C563 H577 0.961 . S
C563 H578 0.961 . S
C563 H579 0.961 1_545 S
C564 C565 1.367 1_655 S
C564 C566 1.363 1_655 S
C564 H580 0.935 . S
C565 C564 1.367 1_455 S
C565 C569 1.408 1_545 S
C566 C564 1.363 1_455 S
C566 C567 1.373 1_545 S
C566 C570 1.522 1_455 S
C567 C559 1.503 . S
C567 C566 1.373 1_565 S
C567 C568 1.403 . S
C568 C567 1.403 . S
C568 C569 1.404 . S
C568 C571 1.539 . S
C569 C565 1.408 1_565 S
C569 C568 1.404 . S
C569 H581 0.930 . S
C570 C566 1.522 1_655 S
C570 H582 0.956 . S
C570 H583 0.961 1_655 S
C570 H584 0.961 1_655 S
C571 C568 1.539 . S
C571 H585 0.958 1_455 S
C571 H586 0.961 . S
C571 H587 0.960 . S
H572 C556 0.931 . S
H573 C561 0.929 . S
H574 C562 0.960 . S
H575 C562 0.962 1_545 S
H576 C562 0.960 . S
H577 C563 0.961 . S
H578 C563 0.961 . S
H579 C563 0.961 1_565 S
H580 C564 0.935 . S
H581 C569 0.930 . S
H582 C570 0.956 . S
H583 C570 0.961 1_455 S
H584 C570 0.961 1_455 S
H585 C571 0.958 1_655 S
H586 C571 0.961 . S
H587 C571 0.960 . S
C588 C589 1.391 1_655 S
C588 C590 1.394 . S
C588 H604 0.931 . S
C589 C588 1.391 1_455 S
C589 C593 1.376 . S
C590 C588 1.394 . S
C590 C591 1.369 1_655 S
C590 C594 1.531 . S
C591 C590 1.369 1_455 S
C591 C592 1.410 . S
C591 C599 1.503 . S
C592 C591 1.410 . S
C592 C593 1.392 . S
C592 C595 1.511 . S
C593 C589 1.376 . S
C593 C592 1.392 . S
C593 H605 0.929 . S
C594 C590 1.531 . S
C594 H606 0.960 . S
C594 H607 0.962 . S
C594 H608 0.960 . S
C595 C592 1.511 . S
C595 H609 0.961 1_545 S
C595 H610 0.961 1_545 S
C595 H611 0.961 . S
C596 C597 1.370 1_665 S
C596 C598 1.363 . S
C596 H612 0.931 . S
C597 C596 1.370 1_445 S
C597 C601 1.408 . S
C598 C596 1.363 . S
C598 C599 1.370 1_665 S
C598 C602 1.524 . S
C599 C591 1.503 . S
C599 C598 1.370 1_445 S
C599 C600 1.403 . S
C600 C599 1.403 . S
C600 C601 1.404 . S
C600 C603 1.539 . S
C601 C597 1.408 . S
C601 C600 1.404 . S
C601 H613 0.930 . S
C602 C598 1.524 . S
C602 H614 0.956 . S
C602 H615 0.961 . S
C602 H616 0.961 . S
C603 C600 1.539 . S
C603 H617 0.958 . S
C603 H618 0.961 . S
C603 H619 0.960 . S
H604 C588 0.931 . S
H605 C593 0.929 . S
H606 C594 0.960 . S
H607 C594 0.962 . S
H608 C594 0.960 . S
H609 C595 0.961 1_565 S
H610 C595 0.961 1_565 S
H611 C595 0.961 . S
H612 C596 0.931 . S
H613 C601 0.930 . S
H614 C602 0.956 . S
H615 C602 0.961 . S
H616 C602 0.961 . S
H617 C603 0.958 . S
H618 C603 0.961 . S
H619 C603 0.960 . S
C620 C621 1.391 . S
C620 C622 1.394 . S
C620 H636 0.931 . S
C621 C620 1.391 . S
C621 C625 1.376 . S
C622 C620 1.394 . S
C622 C623 1.369 . S
C622 C626 1.531 . S
C623 C622 1.369 . S
C623 C624 1.410 . S
C623 C631 1.503 . S
C624 C623 1.410 . S
C624 C625 1.392 . S
C624 C627 1.511 . S
C625 C621 1.376 . S
C625 C624 1.392 . S
C625 H637 0.929 . S
C626 C622 1.531 . S
C626 H638 0.960 . S
C626 H639 0.962 . S
C626 H640 0.960 . S
C627 C624 1.511 . S
C627 H641 0.961 . S
C627 H642 0.961 . S
C627 H643 0.961 . S
C628 C629 1.370 . S
C628 C630 1.363 . S
C628 H644 0.931 . S
C629 C628 1.370 . S
C629 C633 1.408 . S
C630 C628 1.363 . S
C630 C631 1.370 . S
C630 C634 1.524 . S
C631 C623 1.503 . S
C631 C630 1.370 . S
C631 C632 1.403 . S
C632 C631 1.403 . S
C632 C633 1.404 . S
C632 C635 1.539 . S
C633 C629 1.408 . S
C633 C632 1.404 . S
C633 H645 0.930 . S
C634 C630 1.524 . S
C634 H646 0.956 . S
C634 H647 0.961 . S
C634 H648 0.961 . S
C635 C632 1.539 . S
C635 H649 0.958 . S
C635 H650 0.961 . S
C635 H651 0.960 . S
H636 C620 0.931 . S
H637 C625 0.929 . S
H638 C626 0.960 . S
H639 C626 0.962 . S
H640 C626 0.960 . S
H641 C627 0.961 . S
H642 C627 0.961 . S
H643 C627 0.961 . S
H644 C628 0.931 . S
H645 C633 0.930 . S
H646 C634 0.956 . S
H647 C634 0.961 . S
H648 C634 0.961 . S
H649 C635 0.958 . S
H650 C635 0.961 . S
H651 C635 0.960 . S
C652 C653 1.391 . S
C652 C654 1.394 . S
C652 H668 0.931 . S
C653 C652 1.391 . S
C653 C657 1.376 . S
C654 C652 1.394 . S
C654 C655 1.369 . S
C654 C658 1.531 . S
C655 C654 1.369 . S
C655 C656 1.410 . S
C655 C663 1.503 . S
C656 C655 1.410 . S
C656 C657 1.392 . S
C656 C659 1.511 . S
C657 C653 1.376 . S
C657 C656 1.392 . S
C657 H669 0.929 . S
C658 C654 1.531 . S
C658 H670 0.960 . S
C658 H671 0.962 . S
C658 H672 0.960 . S
C659 C656 1.511 . S
C659 H673 0.961 . S
C659 H674 0.961 . S
C659 H675 0.961 . S
C660 C661 1.370 . S
C660 C662 1.363 . S
C660 H676 0.931 . S
C661 C660 1.370 . S
C661 C665 1.408 . S
C662 C660 1.363 . S
C662 C663 1.370 . S
C662 C666 1.524 . S
C663 C655 1.503 . S
C663 C662 1.370 . S
C663 C664 1.403 . S
C664 C663 1.403 . S
C664 C665 1.404 . S
C664 C667 1.539 . S
C665 C661 1.408 . S
C665 C664 1.404 . S
C665 H677 0.930 . S
C666 C662 1.524 . S
C666 H678 0.956 . S
C666 H679 0.961 . S
C666 H680 0.961 . S
C667 C664 1.539 . S
C667 H681 0.958 . S
C667 H682 0.961 . S
C667 H683 0.960 . S
H668 C652 0.931 . S
H669 C657 0.929 . S
H670 C658 0.960 . S
H671 C658 0.962 . S
H672 C658 0.960 . S
H673 C659 0.961 . S
H674 C659 0.961 . S
H675 C659 0.961 . S
H676 C660 0.931 . S
H677 C665 0.930 . S
H678 C666 0.956 . S
H679 C666 0.961 . S
H680 C666 0.961 . S
H681 C667 0.958 . S
H682 C667 0.961 . S
H683 C667 0.960 . S
C309 C271 1.480 . S
C301 C27 1.484 . S
C333 N6 1.358 . S
C341 C211 1.433 . S
C365 C16 1.467 . S
C373 C241 1.371 . S
C397 N14 1.407 . S
C405 C181 1.312 . S
C429 C57 1.487 . S
C437 C151 1.482 . S
C461 N36 1.358 . S
C469 C91 1.432 . S
C501 C121 1.371 . S
C493 C46 1.467 . S
C533 C61 1.343 . S
C525 N44 1.393 . S
C557 C10 1.379 . S
C565 C80 1.373 1_455 S
C589 C1 1.526 . S
C597 C140 1.515 1_455 S
C629 C200 1.358 . S
C621 C40 1.392 . S
C653 C31 1.527 . S
C661 C260 1.515 . S
