# Generated by pormake.
# Topology zzz, (3,6)-cn, num edge types: 1
# Building blocks:
#     Node 0, Type 0, BuildingBlock: BETDAH_clean_linker_0, # of connection points: 3
#     Node 1, Type 0, BuildingBlock: BETDAH_clean_linker_0, # of connection points: 3
#     Node 2, Type 0, BuildingBlock: BETDAH_clean_linker_0, # of connection points: 3
#     Node 3, Type 0, BuildingBlock: BETDAH_clean_linker_0, # of connection points: 3
#     Node 4, Type 0, BuildingBlock: BETDAH_clean_linker_0, # of connection points: 3
#     Node 5, Type 0, BuildingBlock: BETDAH_clean_linker_0, # of connection points: 3
#     Node 6, Type 0, BuildingBlock: BETDAH_clean_linker_0, # of connection points: 3
#     Node 7, Type 0, BuildingBlock: BETDAH_clean_linker_0, # of connection points: 3
#     Node 8, Type 1, BuildingBlock: NUHQIS_clean_sbu_0, # of connection points: 6
#     Node 9, Type 1, BuildingBlock: NUHQIS_clean_sbu_0, # of connection points: 6
#     Node 10, Type 1, BuildingBlock: NUHQIS_clean_sbu_0, # of connection points: 6
#     Node 11, Type 1, BuildingBlock: NUHQIS_clean_sbu_0, # of connection points: 6
#     Edge 12, Type (0, 1), BuildingBlock: CIFDUS_clean_linker_0, # of connection points: 2
#     Edge 13, Type (0, 1), BuildingBlock: CIFDUS_clean_linker_0, # of connection points: 2
#     Edge 14, Type (0, 1), BuildingBlock: CIFDUS_clean_linker_0, # of connection points: 2
#     Edge 15, Type (0, 1), BuildingBlock: CIFDUS_clean_linker_0, # of connection points: 2
#     Edge 16, Type (0, 1), BuildingBlock: CIFDUS_clean_linker_0, # of connection points: 2
#     Edge 17, Type (0, 1), BuildingBlock: CIFDUS_clean_linker_0, # of connection points: 2
#     Edge 18, Type (0, 1), BuildingBlock: CIFDUS_clean_linker_0, # of connection points: 2
#     Edge 19, Type (0, 1), BuildingBlock: CIFDUS_clean_linker_0, # of connection points: 2
#     Edge 20, Type (0, 1), BuildingBlock: CIFDUS_clean_linker_0, # of connection points: 2
#     Edge 21, Type (0, 1), BuildingBlock: CIFDUS_clean_linker_0, # of connection points: 2
#     Edge 22, Type (0, 1), BuildingBlock: CIFDUS_clean_linker_0, # of connection points: 2
#     Edge 23, Type (0, 1), BuildingBlock: CIFDUS_clean_linker_0, # of connection points: 2
#     Edge 24, Type (0, 1), BuildingBlock: CIFDUS_clean_linker_0, # of connection points: 2
#     Edge 25, Type (0, 1), BuildingBlock: CIFDUS_clean_linker_0, # of connection points: 2
#     Edge 26, Type (0, 1), BuildingBlock: CIFDUS_clean_linker_0, # of connection points: 2
#     Edge 27, Type (0, 1), BuildingBlock: CIFDUS_clean_linker_0, # of connection points: 2
#     Edge 28, Type (0, 1), BuildingBlock: CIFDUS_clean_linker_0, # of connection points: 2
#     Edge 29, Type (0, 1), BuildingBlock: CIFDUS_clean_linker_0, # of connection points: 2
#     Edge 30, Type (0, 1), BuildingBlock: CIFDUS_clean_linker_0, # of connection points: 2
#     Edge 31, Type (0, 1), BuildingBlock: CIFDUS_clean_linker_0, # of connection points: 2
#     Edge 32, Type (0, 1), BuildingBlock: CIFDUS_clean_linker_0, # of connection points: 2
#     Edge 33, Type (0, 1), BuildingBlock: CIFDUS_clean_linker_0, # of connection points: 2
#     Edge 34, Type (0, 1), BuildingBlock: CIFDUS_clean_linker_0, # of connection points: 2
#     Edge 35, Type (0, 1), BuildingBlock: CIFDUS_clean_linker_0, # of connection points: 2
# Relax obj value: 0.287
# Max RMSD: 0.166
# Mean RMSD: 0.139
data_MOF--net-zzz--node1-NUHQIS_clean_sbu_0--node2-BETDAH_clean_linker_0--edge1-CIFDUS_clean_linker_0
_symmetry_space_group_name_H-M    P1
_symmetry_Int_Tables_number       1
_symmetry_cell_setting            triclinic
loop_
_symmetry_equiv_pos_as_xyz
'x, y, z'
_cell_length_a     45.996972
_cell_length_b     45.862267
_cell_length_c     12.484515
_cell_angle_alpha  89.544657
_cell_angle_beta   90.053323
_cell_angle_gamma 90.046217
loop_
_atom_site_label
_atom_site_type_symbol
_atom_site_fract_x
_atom_site_fract_y
_atom_site_fract_z
_atom_type_partial_charge
H0 H 0.82359 0.48066 0.29147 0.0
H1 H 0.73794 0.49084 0.16092 0.0
H2 H 0.7624 0.53674 0.44873 0.0
C3 C 0.80196 0.48999 0.297 0.0
C4 C 0.7958 0.50944 0.37954 0.0
C5 C 0.7811 0.48312 0.21922 0.0
C6 C 0.7535 0.49584 0.22317 0.0
C7 C 0.74623 0.51499 0.30656 0.0
C8 C 0.7676 0.52173 0.38501 0.0
N9 N 0.71796 0.52793 0.31216 0.0
C10 C 0.69523 0.5228 0.23938 0.0
H11 H 0.05522 0.8181 0.46751 0.0
H12 H 0.04492 0.73843 0.29258 0.0
H13 H 0.97097 0.77867 0.44514 0.0
C14 C 0.0418 0.79982 0.44372 0.0
C15 C 1.01213 0.80082 0.46791 0.0
C16 C 0.05379 0.77778 0.37956 0.0
C17 C 0.03578 0.75517 0.34309 0.0
C18 C 1.00587 0.75495 0.36745 0.0
C19 C 0.99408 0.77818 0.42875 0.0
N20 N 0.98712 0.73237 0.32849 0.0
C21 C 0.99528 0.70956 0.2599 0.0
H22 H 0.69781 0.05939 0.41937 0.0
H23 H 0.78485 0.04911 0.30059 0.0
H24 H 0.75347 0.9948 0.56082 0.0
C25 C 0.71903 0.04919 0.42509 0.0
C26 C 0.72286 0.02663 0.49951 0.0
C27 C 0.74117 0.05761 0.35379 0.0
C28 C 0.76805 0.04312 0.35741 0.0
C29 C 0.77291 0.02058 0.43282 0.0
C30 C 0.75017 1.01254 0.50432 0.0
N31 N 0.79988 1.00504 0.43646 0.0
C32 C 0.82396 1.00985 0.36941 0.0
H33 H 0.53406 0.71205 0.31754 0.0
H34 H 0.52497 0.80342 0.26407 0.0
H35 H 0.50839 0.76709 0.57889 0.0
C36 C 0.53064 0.73355 0.35091 0.0
C37 C 0.52252 0.73607 0.45863 0.0
C38 C 0.53111 0.75772 0.28163 0.0
C39 C 0.52489 0.78534 0.3201 0.0
C40 C 0.51689 0.7893 0.42733 0.0
C41 C 0.51533 0.7644 0.49671 0.0
N42 N 0.50914 0.8178 0.46391 0.0
C43 C 0.50896 0.84282 0.39755 0.0
H44 H 0.2019 0.55858 0.15574 0.0
H45 H 0.28778 0.54096 0.27302 0.0
H46 H 0.25626 0.49776 0.9887 0.0
C47 C 0.22258 0.54749 0.14643 0.0
C48 C 0.22601 0.52764 0.06283 0.0
C49 C 0.24474 0.55242 0.22128 0.0
C50 C 0.27116 0.53751 0.21293 0.0
C51 C 0.27582 0.51801 0.12812 0.0
C52 C 0.2531 0.51323 0.05275 0.0
N53 N 0.30264 0.50245 0.1186 0.0
C54 C 0.32673 0.50538 0.18698 0.0
H55 H 0.04084 0.2126 0.24917 0.0
H56 H 0.03054 0.30327 0.30814 0.0
H57 H 1.00838 0.26854 0.99733 0.0
C58 C 0.0363 0.23419 0.21724 0.0
C59 C 0.02604 0.23712 0.11181 0.0
C60 C 0.03757 0.25791 0.28718 0.0
C61 C 0.02974 0.28556 0.25155 0.0
C62 C 0.01913 0.28996 0.14734 0.0
C63 C 0.01711 0.2655 0.0772 0.0
N64 N 1.00919 0.31839 0.11529 0.0
C65 C 1.00784 0.34231 0.18551 0.0
H66 H 0.3156 0.97476 0.24541 0.0
H67 H 0.23332 0.99272 0.39232 0.0
H68 H 0.26754 0.05088 0.14913 0.0
C69 C 0.29603 0.98791 0.24902 0.0
C70 C 0.29427 1.01324 0.18597 0.0
C71 C 0.27434 0.98056 0.3236 0.0
C72 C 0.24968 0.99826 0.33321 0.0
C73 C 0.24667 0.02342 0.26891 0.0
C74 C 0.26937 0.03112 0.19677 0.0
N75 N 0.22161 0.04172 0.27693 0.0
C76 C 0.19721 0.03649 0.34197 0.0
H77 H 0.55259 0.31777 0.14083 0.0
H78 H 0.53849 0.23461 0.29171 0.0
H79 H 0.47544 0.26896 0.06663 0.0
C80 C 0.5396 0.2981 0.14917 0.0
C81 C 0.51319 0.29626 0.09411 0.0
C82 C 0.54883 0.2759 0.21934 0.0
C83 C 0.53148 0.25114 0.23496 0.0
C84 C 0.505 0.24811 0.17965 0.0
C85 C 0.49601 0.2708 0.10831 0.0
N86 N 0.48685 0.22307 0.19673 0.0
C87 C 0.4924 0.2004 0.27072 0.0
Tb88 Tb 0.02902 1.00065 0.94896 0.0
Eu89 Eu 0.99072 0.02397 0.75244 0.0
C90 C 0.05925 1.01376 0.72993 0.0
C91 C 0.01897 0.06859 0.92276 0.0
C92 C 0.07395 0.95017 0.0986 0.0
C93 C 0.11641 0.91939 0.12836 0.0
C94 C 0.103 0.9469 0.13143 0.0
C95 C 0.05882 0.92584 0.0605 0.0
C96 C 0.07212 0.89873 0.05629 0.0
C97 C 0.10102 0.89497 0.0907 0.0
C98 C 0.05977 0.97899 0.09611 0.0
O99 O 0.98601 1.01219 0.01479 0.0
O100 O 0.95998 1.00124 0.86588 0.0
O101 O 0.99554 0.97624 0.70846 0.0
O102 O 1.01419 0.96036 0.87023 0.0
C103 C 0.96101 1.00547 0.96954 0.0
O104 O 0.95097 0.04601 0.7007 0.0
O105 O 0.98421 0.03603 0.58417 0.0
O106 O 0.03813 0.03219 0.70949 0.0
O107 O 0.05624 0.99461 0.80767 0.0
O108 O 0.03756 0.04784 0.94821 0.0
O109 O 0.9957 0.0622 0.86693 0.0
C110 C 1.00434 0.95502 0.77256 0.0
O111 O 0.06985 0.99719 0.02467 0.0
O112 O 0.03139 0.97874 0.09685 0.0
C113 C 0.96897 0.08437 0.59988 0.0
C114 C 0.98063 0.14442 0.61917 0.0
C115 C 0.9551 0.1346 0.56726 0.0
C116 C 0.94902 0.10468 0.55957 0.0
C117 C 0.99434 0.09423 0.65017 0.0
C118 C 0.99961 0.12366 0.66303 0.0
C119 C 0.96256 0.05317 0.60895 0.0
H120 H 0.13856 0.91713 0.15675 0.0
H121 H 0.1152 0.96551 0.15996 0.0
H122 H 0.03641 0.92758 0.03471 0.0
H123 H 0.05909 0.88041 0.03033 0.0
H124 H 0.94013 0.14985 0.5303 0.0
H125 H 0.929 0.09749 0.52242 0.0
H126 H 1.01004 0.07906 0.68244 0.0
H127 H 0.01899 0.12994 0.70632 0.0
Tb128 Tb 0.51233 0.03252 0.87364 0.0
Eu129 Eu 0.49227 0.98696 0.69051 0.0
C130 C 0.49451 0.05577 0.64234 0.0
C131 C 0.44619 1.01102 0.86416 0.0
C132 C 0.5605 0.08342 0.011 0.0
C133 C 0.59087 0.1243 0.06326 0.0
C134 C 0.56324 0.11205 0.04804 0.0
C135 C 0.58555 0.06797 0.98235 0.0
C136 C 0.61298 0.07986 0.99913 0.0
C137 C 0.61622 0.10785 0.04355 0.0
C138 C 0.53188 0.06908 1.0053 0.0
O139 O 0.50403 0.99194 0.9644 0.0
O140 O 0.51004 0.95983 0.82734 0.0
O141 O 0.53681 1.00182 0.64173 0.0
O142 O 0.55346 1.01521 0.80665 0.0
C143 C 0.50771 0.96511 0.9302 0.0
O144 O 0.4963 0.94389 0.61811 0.0
O145 O 0.46703 0.97576 0.54915 0.0
O146 O 0.47968 0.03164 0.62781 0.0
O147 O 0.51282 0.05781 0.72295 0.0
O148 O 0.46421 0.03269 0.88636 0.0
O149 O 0.45438 0.98924 0.80344 0.0
C150 C 0.55845 1.00813 0.70597 0.0
O151 O 0.51554 0.07623 0.9241 0.0
O152 O 0.53211 0.04097 0.02126 0.0
C153 C 0.45199 0.92727 0.54508 0.0
C154 C 0.39727 0.90024 0.52948 0.0
C155 C 0.40944 0.90612 0.63058 0.0
C156 C 0.43655 0.9198 0.63827 0.0
C157 C 0.44159 0.91834 0.44542 0.0
C158 C 0.41456 0.90478 0.43756 0.0
C159 C 0.4756 0.9487 0.54895 0.0
H160 H 0.59227 0.14616 0.09484 0.0
H161 H 0.54409 0.12457 0.06849 0.0
H162 H 0.58406 0.04597 0.95208 0.0
H163 H 0.63147 0.06593 0.98403 0.0
H164 H 0.39697 0.90252 0.70303 0.0
H165 H 0.44434 0.92656 0.71617 0.0
H166 H 0.45312 0.92414 0.37268 0.0
H167 H 0.40605 0.9009 0.35806 0.0
Tb168 Tb 0.48527 0.52566 0.81982 0.0
Eu169 Eu 0.52805 0.49804 0.64702 0.0
C170 C 0.45958 0.50318 0.6067 0.0
C171 C 0.49909 0.45721 0.83469 0.0
C172 C 0.45984 0.58682 0.95232 0.0
C173 C 0.44483 0.63622 0.99176 0.0
C174 C 0.43942 0.60607 0.99513 0.0
C175 C 0.48493 0.59797 0.9037 0.0
C176 C 0.48946 0.62765 0.89456 0.0
C177 C 0.47017 0.64738 0.94164 0.0
C178 C 0.45489 0.55536 0.94437 0.0
O179 O 0.52996 0.53666 0.86805 0.0
O180 O 0.55233 0.49646 0.80412 0.0
O181 O 0.53554 0.54697 0.63557 0.0
O182 O 0.49137 0.56039 0.699 0.0
C183 C 0.55187 0.51828 0.87095 0.0
O184 O 0.57123 0.4966 0.57561 0.0
O185 O 0.53654 0.47001 0.5105 0.0
O186 O 0.48513 0.50809 0.56272 0.0
O187 O 0.45758 0.50098 0.71139 0.0
O188 O 0.49004 0.4811 0.88303 0.0
O189 O 0.51099 0.45829 0.73855 0.0
C190 C 0.51574 0.56718 0.65026 0.0
O191 O 0.44591 0.54735 0.85014 0.0
O192 O 0.47653 0.53922 0.97729 0.0
C193 C 0.58291 0.44942 0.51848 0.0
C194 C 0.60591 0.39268 0.52717 0.0
C195 C 0.59977 0.40773 0.62226 0.0
C196 C 0.58809 0.43583 0.61787 0.0
C197 C 0.59193 0.4359 0.42446 0.0
C198 C 0.60339 0.4078 0.42858 0.0
C199 C 0.56444 0.47533 0.51161 0.0
H200 H 0.42959 0.65051 0.03122 0.0
H201 H 0.41971 0.59787 0.032 0.0
H202 H 0.50121 0.58366 0.87135 0.0
H203 H 0.50868 0.63486 0.85214 0.0
H204 H 0.6018 0.39697 0.69944 0.0
H205 H 0.58129 0.44612 0.69156 0.0
H206 H 0.58806 0.44615 0.34723 0.0
H207 H 0.60746 0.39705 0.35318 0.0
Tb208 Tb 0.99755 0.50224 0.8094 0.0
Eu209 Eu 0.02201 0.55051 0.64036 0.0
C210 C 1.01122 0.48362 0.56674 0.0
C211 C 0.06496 0.51959 0.80927 0.0
C212 C 0.95808 0.44112 0.93662 0.0
C213 C 0.91457 0.42308 0.84946 0.0
C214 C 0.94137 0.43739 0.84364 0.0
C215 C 0.94965 0.42743 0.03196 0.0
C216 C 0.92288 0.41326 0.03803 0.0
C217 C 0.90405 0.41287 0.94876 0.0
C218 C 0.98064 0.46357 0.94027 0.0
O219 O 0.98754 0.54471 0.88222 0.0
O220 O 0.02251 0.57254 0.80193 0.0
O221 O 0.97283 0.5514 0.62194 0.0
O222 O 0.95957 0.50858 0.70597 0.0
C223 C 1.00336 0.56869 0.87847 0.0
O224 O 0.02338 0.59623 0.59023 0.0
O225 O 0.04654 0.56363 0.49914 0.0
O226 O 1.01313 0.51113 0.53718 0.0
O227 O 1.00919 0.47613 0.6686 0.0
O228 O 0.04149 0.51279 0.86434 0.0
O229 O 0.06284 0.52994 0.71107 0.0
C230 C 0.95333 0.53111 0.64413 0.0
O231 O 1.00272 0.46029 0.87636 0.0
O232 O 0.97077 0.49016 0.93765 0.0
C233 C 0.06871 0.60903 0.51567 0.0
C234 C 0.12641 0.62875 0.49936 0.0
C235 C 0.11538 0.61901 0.59852 0.0
C236 C 0.08677 0.60894 0.60635 0.0
C237 C 0.07845 0.62184 0.42039 0.0
C238 C 0.10705 0.63171 0.41221 0.0
C239 C 0.04218 0.59139 0.51431 0.0
H240 H 0.90091 0.42261 0.77878 0.0
H241 H 0.9478 0.44771 0.76895 0.0
H242 H 0.96243 0.43006 0.10426 0.0
H243 H 0.91571 0.40577 0.11611 0.0
H244 H 0.1295 0.61689 0.66761 0.0
H245 H 0.07947 0.5991 0.68083 0.0
H246 H 0.06474 0.62203 0.34973 0.0
H247 H 0.11462 0.63882 0.33417 0.0
H248 H 0.18403 1.00104 0.51185 0.0
H249 H 0.14928 0.06857 0.30736 0.0
H250 H 0.10348 0.06776 0.40749 0.0
H251 H 0.07319 0.04823 0.5553 0.0
H252 H 0.10794 0.98033 0.75952 0.0
H253 H 0.15331 0.98093 0.65849 0.0
C254 C 0.16635 1.01548 0.48934 0.0
C255 C 0.17 0.03487 0.40233 0.0
C256 C 0.13992 1.01488 0.54769 0.0
C257 C 0.14696 0.05347 0.37401 0.0
C258 C 0.12075 0.05302 0.43139 0.0
C259 C 0.09064 0.03352 0.5778 0.0
C260 C 0.08685 1.01429 0.66566 0.0
C261 C 0.11694 0.03389 0.51877 0.0
C262 C 0.10994 0.99541 0.69271 0.0
C263 C 0.13606 0.99572 0.63478 0.0
H264 H 0.46593 0.14759 0.26975 0.0
H265 H 0.52787 0.19916 0.44453 0.0
H266 H 0.53426 0.15932 0.57493 0.0
H267 H 0.52191 0.10954 0.64073 0.0
H268 H 0.45953 0.05832 0.46482 0.0
H269 H 0.45371 0.0979 0.33504 0.0
C270 C 0.48087 0.15002 0.33636 0.0
C271 C 0.49649 0.17629 0.34723 0.0
C272 C 0.48432 0.12695 0.4115 0.0
C273 C 0.51569 0.17916 0.43405 0.0
C274 C 0.5193 0.15634 0.50883 0.0
C275 C 0.50701 0.10698 0.57413 0.0
C276 C 0.49118 0.08065 0.56371 0.0
C277 C 0.50369 0.13008 0.49873 0.0
C278 C 0.47204 0.07808 0.47606 0.0
C279 C 0.46867 0.10082 0.40122 0.0
H280 H 0.33352 0.49213 0.39792 0.0
H281 H 0.37989 0.52193 0.11835 0.0
H282 H 0.42538 0.52325 0.22102 0.0
H283 H 0.45224 0.51587 0.39167 0.0
H284 H 0.4053 0.4865 0.67161 0.0
H285 H 0.36032 0.48494 0.56842 0.0
C286 C 0.35361 0.499 0.35989 0.0
C287 C 0.35337 0.50704 0.25084 0.0
C288 C 0.37978 0.49964 0.41973 0.0
C289 C 0.37953 0.51577 0.20232 0.0
C290 C 0.40558 0.51645 0.26107 0.0
C291 C 0.43223 0.50896 0.43005 0.0
C292 C 0.43248 0.50122 0.53988 0.0
C293 C 0.40605 0.50836 0.36998 0.0
C294 C 0.40607 0.49258 0.58766 0.0
C295 C 0.38015 0.49171 0.52853 0.0
H296 H 0.0165 0.40085 0.157 0.0
H297 H 0.99619 0.33574 0.39606 0.0
H298 H 0.99576 0.3731 0.53504 0.0
H299 H 1.00158 0.42448 0.59032 0.0
H300 H 0.02078 0.48999 0.35057 0.0
H301 H 0.02101 0.45272 0.21194 0.0
C302 C 1.01194 0.39492 0.23957 0.0
C303 C 1.00664 0.36543 0.26619 0.0
C304 C 1.01153 0.41674 0.31963 0.0
C305 C 1.00059 0.35816 0.3734 0.0
C306 C 1.00031 0.3796 0.4531 0.0
C307 C 1.00592 0.43069 0.50789 0.0
C308 C 1.01135 0.4603 0.4822 0.0
C309 C 1.00589 0.40899 0.42754 0.0
C310 C 0.01661 0.46759 0.37397 0.0
C311 C 0.01676 0.44618 0.29406 0.0
H312 H 0.83354 0.99287 0.16475 0.0
H313 H 0.87521 0.03176 0.43747 0.0
H314 H 0.92159 0.03347 0.34051 0.0
H315 H 0.95071 0.02334 0.17729 0.0
H316 H 0.90829 0.98479 0.90428 0.0
H317 H 0.86238 0.98342 1.00133 0.0
C318 C 0.85277 1.0019 0.2024 0.0
C319 C 0.85093 1.01237 0.30785 0.0
C320 C 0.87946 1.00269 0.14598 0.0
C321 C 0.87604 0.02378 0.35607 0.0
C322 C 0.90261 0.02464 0.30067 0.0
C323 C 0.93147 1.01453 0.13912 0.0
C324 C 0.9333 1.00411 0.03305 0.0
C325 C 0.9047 1.01402 0.19554 0.0
C326 C 0.90785 0.99299 0.98537 0.0
C327 C 0.8814 0.9922 0.04096 0.0
H328 H 0.50189 0.84396 0.18195 0.0
H329 H 0.5164 0.89939 0.45343 0.0
H330 H 0.51706 0.94248 0.33508 0.0
H331 H 0.51361 0.96456 0.15193 0.0
H332 H 0.50126 0.90768 0.88166 0.0
H333 H 0.49989 0.8655 1.0008 0.0
C334 C 0.50535 0.86545 0.2152 0.0
C335 C 0.50913 0.86845 0.32649 0.0
C336 C 0.50613 0.89007 0.14624 0.0
C337 C 0.51342 0.8965 0.36808 0.0
C338 C 0.51385 0.92116 0.3002 0.0
C339 C 0.51066 0.94295 0.11907 0.0
C340 C 0.50763 0.93964 0.00695 0.0
C341 C 0.51021 0.91829 0.18876 0.0
C342 C 0.50389 0.91123 0.9668 0.0
C343 C 0.50299 0.8869 0.0352 0.0
H344 H 0.64726 0.55635 0.21348 0.0
H345 H 0.68857 0.47816 0.10085 0.0
H346 H 0.64812 0.46971 0.9769 0.0
H347 H 0.60078 0.48459 0.89974 0.0
H348 H 0.55919 0.56272 0.01397 0.0
H349 H 0.59958 0.57103 0.13719 0.0
C350 C 0.64733 0.5375 0.16159 0.0
C351 C 0.67095 0.51797 0.16585 0.0
C352 C 0.62382 0.53273 0.09058 0.0
C353 C 0.67076 0.49358 0.09865 0.0
C354 C 0.64756 0.48873 0.02782 0.0
C355 C 0.60049 0.50346 0.95149 0.0
C356 C 0.57675 0.52299 0.94673 0.0
C357 C 0.62394 0.50816 0.02285 0.0
C358 C 0.57699 0.54726 0.01516 0.0
C359 C 0.60018 0.55208 0.08596 0.0
H360 H 0.96829 0.65693 0.25051 0.0
H361 H 0.03555 0.70849 0.10185 0.0
H362 H 0.04443 0.66959 0.97193 0.0
H363 H 0.03231 0.62114 0.89742 0.0
H364 H 0.96485 0.56954 0.04661 0.0
H365 H 0.95695 0.60784 0.17838 0.0
C366 C 0.98499 0.65952 0.18993 0.0
C367 C 1.0013 0.68558 0.18594 0.0
C368 C 0.98989 0.63696 0.11497 0.0
C369 C 0.02278 0.68866 0.10683 0.0
C370 C 0.0278 0.66639 0.03234 0.0
C371 C 0.01589 0.61815 0.95876 0.0
C372 C 0.99916 0.59219 0.96084 0.0
C373 C 1.01138 0.64046 0.03502 0.0
C374 C 0.97808 0.58905 0.0419 0.0
C375 C 0.97351 0.61107 0.11772 0.0
H376 H 0.99533 0.26638 0.42976 0.0
H377 H 0.08259 0.23363 0.39914 0.0
H378 H 0.07325 0.19749 0.53921 0.0
H379 H 0.03595 0.16549 0.6065 0.0
H380 H 0.94642 0.19395 0.62025 0.0
H381 H 0.96079 0.24147 0.54859 0.0
C382 C 1.01274 0.25241 0.45864 0.0
C383 C 0.03917 0.25158 0.40248 0.0
C384 C 1.00622 0.22997 0.53116 0.0
C385 C 0.06192 0.23405 0.4407 0.0
C386 C 0.05632 0.21304 0.51909 0.0
C387 C 0.01947 0.18224 0.59946 0.0
C388 C 0.9898 0.1755 0.6137 0.0
C389 C 0.02775 0.20902 0.5556 0.0
C390 C 0.96921 0.19801 0.60437 0.0
C391 C 0.97745 0.22529 0.56426 0.0
H392 H 0.28724 0.92402 0.28369 0.0
H393 H 0.27792 0.98588 0.53905 0.0
H394 H 0.31176 0.95793 0.64963 0.0
H395 H 0.355 0.92734 0.64367 0.0
H396 H 0.36696 0.86719 0.38328 0.0
H397 H 0.3206 0.88238 0.30603 0.0
C398 C 0.2915 0.9304 0.36574 0.0
C399 C 0.28097 0.9573 0.40241 0.0
C400 C 0.31216 0.91503 0.4265 0.0
C401 C 0.2861 0.96537 0.50896 0.0
C402 C 0.30582 0.94959 0.5716 0.0
C403 C 0.34694 0.91631 0.57311 0.0
C404 C 0.36523 0.89732 0.51602 0.0
C405 C 0.32083 0.92598 0.52712 0.0
C406 C 0.35387 0.88285 0.4262 0.0
C407 C 0.3274 0.89165 0.38163 0.0
H408 H 0.54878 0.27895 0.43375 0.0
H409 H 0.60456 0.28786 0.15873 0.0
H410 H 0.63683 0.32011 0.25853 0.0
H411 H 0.63821 0.35763 0.39679 0.0
H412 H 0.57611 0.35417 0.65556 0.0
H413 H 0.55893 0.30723 0.59494 0.0
C414 C 0.56887 0.28672 0.39795 0.0
C415 C 0.57405 0.28187 0.28885 0.0
C416 C 0.58601 0.30692 0.45321 0.0
C417 C 0.60009 0.29181 0.24257 0.0
C418 C 0.61833 0.31049 0.29931 0.0
C419 C 0.62159 0.34608 0.44189 0.0
C420 C 0.60735 0.36026 0.52648 0.0
C421 C 0.6099 0.32024 0.40082 0.0
C422 C 0.58705 0.34437 0.58808 0.0
C423 C 0.57676 0.31754 0.55235 0.0
H424 H 0.2328 0.61 0.22106 0.0
H425 H 0.2394 0.53463 0.42739 0.0
H426 H 0.2072 0.5575 0.55758 0.0
H427 H 0.16666 0.5911 0.57979 0.0
H428 H 0.15801 0.66569 0.36901 0.0
H429 H 0.20216 0.65143 0.27484 0.0
C430 C 0.22829 0.59935 0.2972 0.0
C431 C 0.23781 0.57062 0.31451 0.0
C432 C 0.20881 0.61215 0.36916 0.0
C433 C 0.23213 0.55678 0.41286 0.0
C434 C 0.21341 0.56971 0.48649 0.0
C435 C 0.17506 0.60518 0.51688 0.0
C436 C 0.15824 0.62869 0.47816 0.0
C437 C 0.19991 0.59633 0.46109 0.0
C438 C 0.16994 0.6468 0.39755 0.0
C439 C 0.19514 0.6386 0.34337 0.0
H440 H 0.06989 0.77314 0.17083 0.0
H441 H 0.104 0.79518 0.48119 0.0
H442 H 0.1333 0.83388 0.4013 0.0
H443 H 0.13055 0.87177 0.26042 0.0
H444 H 0.09649 0.84955 0.94979 0.0
H445 H 0.08677 0.80001 0.01161 0.0
C446 C 0.08511 0.78509 0.22037 0.0
C447 C 0.08304 0.78313 0.33256 0.0
C448 C 0.1011 0.808 0.17406 0.0
C449 C 0.10408 0.79756 0.39476 0.0
C450 C 0.12057 0.82001 0.34924 0.0
C451 C 0.12267 0.85569 0.2041 0.0
C452 C 0.11218 0.86473 0.10336 0.0
C453 C 0.11649 0.82737 0.24112 0.0
C454 C 0.10324 0.84335 0.02997 0.0
C455 C 0.09749 0.81501 0.06547 0.0
H456 H 0.71378 0.10948 0.37369 0.0
H457 H 0.7504 0.052 0.13839 0.0
H458 H 0.71839 0.07259 1.00135 0.0
H459 H 0.67075 0.09463 0.96655 0.0
H460 H 0.62786 0.14169 0.22016 0.0
H461 H 0.67151 0.13915 0.3277 0.0
C462 C 0.71543 0.10229 0.2913 0.0
C463 C 0.73352 0.07853 0.26694 0.0
C464 C 0.69501 0.11209 0.21601 0.0
C465 C 0.73631 0.06995 0.15967 0.0
C466 C 0.71761 0.08142 0.08158 0.0
C467 C 0.67094 0.10459 0.045 0.0
C468 C 0.6452 0.1168 0.08683 0.0
C469 C 0.69522 0.10049 0.11157 0.0
C470 C 0.64679 0.13148 0.18542 0.0
C471 C 0.67182 0.12971 0.24836 0.0
H472 H 0.48595 0.76637 0.15123 0.0
H473 H 0.57412 0.73495 0.15806 0.0
H474 H 0.56304 0.70065 0.01549 0.0
H475 H 0.52538 0.66932 0.95042 0.0
H476 H 0.43529 0.69639 0.95701 0.0
H477 H 0.44995 0.74268 0.0355 0.0
C478 C 0.50306 0.75315 0.11668 0.0
C479 C 0.53047 0.7522 0.16619 0.0
C480 C 0.49574 0.73172 0.04231 0.0
C481 C 0.55277 0.73551 0.12128 0.0
C482 C 0.54622 0.71556 0.04142 0.0
C483 C 0.50869 0.68552 0.96322 0.0
C484 C 0.47895 0.67849 0.95258 0.0
C485 C 0.51718 0.71162 0.01017 0.0
C486 C 0.4582 0.70045 0.96998 0.0
C487 C 0.4666 0.72708 0.01393 0.0
H488 H 0.7978 0.42677 0.22693 0.0
H489 H 0.7858 0.49951 0.01124 0.0
H490 H 0.81878 0.4773 0.88204 0.0
H491 H 0.86102 0.4459 0.86138 0.0
H492 H 0.87521 0.37428 0.08169 0.0
H493 H 0.83054 0.38664 0.17631 0.0
C494 C 0.80144 0.43695 0.14934 0.0
C495 C 0.79009 0.46485 0.12869 0.0
C496 C 0.82122 0.42455 0.07759 0.0
C497 C 0.79456 0.47804 0.02836 0.0
C498 C 0.81364 0.46547 0.95515 0.0
C499 C 0.85375 0.43194 0.92656 0.0
C500 C 0.87224 0.41008 0.96787 0.0
C501 C 0.82871 0.43991 0.98294 0.0
C502 C 0.86193 0.39197 0.05104 0.0
C503 C 0.83649 0.39916 0.10567 0.0
H504 H 0.06335 0.19059 0.10056 0.0
H505 H 0.98045 0.21991 0.97998 0.0
H506 H 0.97106 0.17101 0.90836 0.0
H507 H 0.98447 0.11813 0.89577 0.0
H508 H 0.06702 0.08987 0.02461 0.0
H509 H 0.07766 0.13949 0.08047 0.0
C510 C 0.04315 0.18649 0.05836 0.0
C511 C 0.02253 0.20932 0.04749 0.0
C512 C 0.03742 0.158 0.02108 0.0
C513 C 0.99691 0.20324 0.98975 0.0
C514 C 0.99134 0.175 0.94999 0.0
C515 C 1.00487 0.12279 0.93563 0.0
C516 C 0.02481 0.09971 0.95594 0.0
C517 C 1.01108 0.15189 0.96784 0.0
C518 C 0.05106 0.10666 0.00794 0.0
C519 C 0.05729 0.13526 0.03973 0.0
H520 H 0.32078 0.97845 0.04072 0.0
H521 H 0.32626 0.06417 0.17721 0.0
H522 H 0.37351 0.07192 0.08927 0.0
H523 H 0.41553 0.05236 0.98336 0.0
H524 H 0.40786 0.9661 0.84887 0.0
H525 H 0.35992 0.96073 0.92605 0.0
C526 C 0.33207 0.99907 0.04984 0.0
C527 C 0.3198 0.02069 0.11557 0.0
C528 C 0.35935 1.00315 1.00036 0.0
C529 C 0.33486 0.04726 0.12617 0.0
C530 C 0.36213 0.05154 0.07675 0.0
C531 C 0.40332 0.03246 0.97051 0.0
C532 C 0.41593 1.00964 0.91033 0.0
C533 C 0.37501 0.02935 0.01533 0.0
C534 C 0.39932 0.98415 0.89456 0.0
C535 C 0.37162 0.98094 0.93886 0.0
H536 H 0.49744 0.35009 0.16277 0.0
H537 H 0.51192 0.30129 0.87484 0.0
H538 H 0.50861 0.34639 0.76763 0.0
H539 H 0.50511 0.40075 0.75756 0.0
H540 H 0.48935 0.44856 0.0483 0.0
H541 H 0.48956 0.40326 0.15124 0.0
C542 C 0.49902 0.34923 0.07616 0.0
C543 C 0.50436 0.32213 0.02689 0.0
C544 C 0.4973 0.37535 0.01526 0.0
C545 C 0.50709 0.3216 0.91474 0.0
C546 C 0.50555 0.34754 0.85355 0.0
C547 C 0.50146 0.40128 0.84328 0.0
C548 C 0.49734 0.42849 0.89433 0.0
C549 C 0.50122 0.37472 0.90305 0.0
C550 C 0.49253 0.42832 0.0058 0.0
C551 C 0.49269 0.40226 0.06531 0.0
H552 H 0.17267 0.50962 0.12571 0.0
H553 H 0.22059 0.53427 0.84327 0.0
H554 H 0.17536 0.53366 0.73745 0.0
H555 H 0.12093 0.52934 0.72913 0.0
H556 H 0.07478 0.50425 0.01696 0.0
H557 H 0.12014 0.50203 0.11537 0.0
C558 C 0.17333 0.51436 0.04046 0.0
C559 C 0.2001 0.52185 0.99262 0.0
C560 C 0.14725 0.5143 0.98092 0.0
C561 C 0.20045 0.52804 0.88206 0.0
C562 C 0.17445 0.52799 0.82181 0.0
C563 C 0.12081 0.52319 0.81314 0.0
C564 C 0.09398 0.51716 0.86476 0.0
C565 C 0.14751 0.52169 0.87081 0.0
C566 C 0.09466 0.50915 0.97399 0.0
C567 C 0.12077 0.50781 0.03104 0.0
H568 H 0.0318 0.82312 0.6561 0.0
H569 H 0.9696 0.83978 0.40528 0.0
H570 H 0.96081 0.88879 0.47691 0.0
H571 H 0.97434 0.92894 0.60335 0.0
H572 H 0.03718 0.9106 0.85159 0.0
H573 H 0.04211 0.86091 0.78904 0.0
C574 C 0.01578 0.83721 0.61844 0.0
C575 C 1.00124 0.82747 0.52554 0.0
C576 C 1.01126 0.86554 0.65906 0.0
C577 C 0.98075 0.84629 0.4777 0.0
C578 C 0.97604 0.87458 0.51801 0.0
C579 C 0.98892 0.91401 0.6443 0.0
C580 C 1.00522 0.92395 0.73344 0.0
C581 C 0.99173 0.88481 0.60731 0.0
C582 C 0.02394 0.90392 0.78464 0.0
C583 C 0.02695 0.8753 0.74825 0.0
H584 H 0.67293 1.00412 0.42351 0.0
H585 H 0.71331 0.03128 0.71715 0.0
H586 H 0.66625 0.02739 0.81038 0.0
H587 H 0.6121 0.02005 0.80319 0.0
H588 H 0.57357 0.99377 0.50298 0.0
H589 H 0.6209 0.99367 0.41896 0.0
C590 C 0.67158 1.00843 0.50871 0.0
C591 C 0.69675 0.01754 0.56349 0.0
C592 C 0.64441 1.00684 0.5606 0.0
C593 C 0.69448 0.02361 0.67346 0.0
C594 C 0.66741 0.02175 0.72637 0.0
C595 C 0.61407 1.01413 0.71968 0.0
C596 C 0.58874 1.00717 0.6602 0.0
C597 C 0.64196 1.01404 0.67013 0.0
C598 C 0.59217 0.99945 0.5518 0.0
C599 C 0.61945 0.99928 0.50297 0.0
H600 H 0.55979 0.68962 0.46803 0.0
H601 H 0.47703 0.71836 0.58914 0.0
H602 H 0.46729 0.66897 0.65811 0.0
H603 H 0.48046 0.6161 0.66879 0.0
H604 H 0.56392 0.58864 0.54827 0.0
H605 H 0.57442 0.63841 0.49047 0.0
C606 C 0.53969 0.68527 0.51057 0.0
C607 C 0.51914 0.70803 0.52241 0.0
C608 C 0.53392 0.65659 0.54747 0.0
C609 C 0.49344 0.70168 0.57921 0.0
C610 C 0.48766 0.67319 0.61731 0.0
C611 C 0.50108 0.62098 0.63077 0.0
C612 C 0.52133 0.59814 0.6135 0.0
C613 C 0.5074 0.65021 0.59935 0.0
C614 C 0.54777 0.6053 0.56294 0.0
C615 C 0.55392 0.63398 0.53014 0.0
H616 H 0.84213 0.54502 0.34508 0.0
H617 H 0.80492 0.48699 0.58027 0.0
H618 H 0.85008 0.48873 0.68536 0.0
H619 H 0.90202 0.50361 0.70194 0.0
H620 H 0.93819 0.56279 0.46674 0.0
H621 H 0.89198 0.56377 0.37108 0.0
C622 C 0.84363 0.53351 0.42113 0.0
C623 C 0.81991 0.51639 0.4559 0.0
C624 C 0.86984 0.5344 0.48038 0.0
C625 C 0.82252 0.5009 0.55307 0.0
C626 C 0.84853 0.50162 0.61243 0.0
C627 C 0.89973 0.51693 0.63031 0.0
C628 C 0.92393 0.53299 0.59182 0.0
C629 C 0.87266 0.51776 0.57564 0.0
C630 C 0.92022 0.55024 0.49899 0.0
C631 C 0.89368 0.55079 0.44375 0.0
loop_
_geom_bond_atom_site_label_1
_geom_bond_atom_site_label_2
_geom_bond_distance
_geom_bond_site_symmetry_2
_ccdc_geom_bond_type
H0 C3 0.929 . S
H1 C6 0.929 . S
H2 C8 0.930 . S
C3 H0 0.929 . S
C3 C4 1.398 . S
C3 C5 1.396 . S
C4 C3 1.398 . S
C4 C8 1.407 . S
C5 C3 1.396 . S
C5 C6 1.394 . S
C6 H1 0.929 . S
C6 C5 1.394 . S
C6 C7 1.382 . S
C7 C6 1.382 . S
C7 C8 1.392 . S
C7 N9 1.420 . S
C8 H2 0.930 . S
C8 C4 1.407 . S
C8 C7 1.392 . S
N9 C7 1.420 . S
N9 C10 1.244 . S
C10 N9 1.244 . S
H11 C14 0.929 . S
H12 C17 0.929 . S
H13 C19 0.930 . S
C14 H11 0.929 . S
C14 C15 1.395 1_655 S
C14 C16 1.394 1_655 S
C15 C14 1.395 1_455 S
C15 C19 1.414 . S
C16 C14 1.394 1_455 S
C16 C17 1.397 . S
C17 H12 0.929 . S
C17 C16 1.397 . S
C17 C18 1.382 . S
C18 C17 1.382 . S
C18 C19 1.392 . S
C18 N20 1.420 . S
C19 H13 0.930 . S
C19 C15 1.414 . S
C19 C18 1.392 . S
N20 C18 1.420 . S
N20 C21 1.232 1_455 S
C21 N20 1.232 1_655 S
H22 C25 0.929 . S
H23 C28 0.929 . S
H24 C30 0.930 . S
C25 H22 0.929 . S
C25 C26 1.395 1_565 S
C25 C27 1.395 1_565 S
C26 C25 1.395 1_545 S
C26 C30 1.414 . S
C27 C25 1.395 1_545 S
C27 C28 1.397 . S
C28 H23 0.929 . S
C28 C27 1.397 . S
C28 C29 1.382 . S
C29 C28 1.382 . S
C29 C30 1.392 . S
C29 N31 1.420 . S
C30 H24 0.930 . S
C30 C26 1.414 . S
C30 C29 1.392 . S
N31 C29 1.420 . S
N31 C32 1.232 1_545 S
C32 N31 1.232 1_565 S
H33 C36 0.929 . S
H34 C39 0.929 . S
H35 C41 0.930 . S
C36 H33 0.929 . S
C36 C37 1.398 . S
C36 C38 1.396 . S
C37 C36 1.398 . S
C37 C41 1.407 . S
C38 C36 1.396 . S
C38 C39 1.394 . S
C39 H34 0.929 . S
C39 C38 1.394 . S
C39 C40 1.382 . S
C40 C39 1.382 . S
C40 C41 1.392 . S
C40 N42 1.420 . S
C41 H35 0.930 . S
C41 C37 1.407 . S
C41 C40 1.392 . S
N42 C40 1.420 . S
N42 C43 1.244 . S
C43 N42 1.244 . S
H44 C47 0.929 . S
H45 C50 0.929 . S
H46 C52 0.930 . S
C47 H44 0.929 . S
C47 C48 1.398 1_554 S
C47 C49 1.396 . S
C48 C47 1.398 1_556 S
C48 C52 1.407 . S
C49 C47 1.396 . S
C49 C50 1.394 . S
C50 H45 0.929 . S
C50 C49 1.394 . S
C50 C51 1.382 . S
C51 C50 1.382 . S
C51 C52 1.392 1_554 S
C51 N53 1.420 . S
C52 H46 0.930 . S
C52 C48 1.407 . S
C52 C51 1.392 1_556 S
N53 C51 1.420 . S
N53 C54 1.244 . S
C54 N53 1.244 . S
H55 C58 0.929 . S
H56 C61 0.929 . S
H57 C63 0.930 . S
C58 H55 0.929 . S
C58 C59 1.395 1_654 S
C58 C60 1.394 1_655 S
C59 C58 1.395 1_456 S
C59 C63 1.416 . S
C60 C58 1.394 1_455 S
C60 C61 1.398 . S
C61 H56 0.929 . S
C61 C60 1.398 . S
C61 C62 1.382 . S
C62 C61 1.382 . S
C62 C63 1.392 1_554 S
C62 N64 1.420 . S
C63 H57 0.930 . S
C63 C59 1.416 . S
C63 C62 1.392 1_556 S
N64 C62 1.420 . S
N64 C65 1.236 1_455 S
C65 N64 1.236 1_655 S
H66 C69 0.929 . S
H67 C72 0.929 . S
H68 C74 0.930 . S
C69 H66 0.929 . S
C69 C70 1.398 1_564 S
C69 C71 1.394 1_565 S
C70 C69 1.398 1_546 S
C70 C74 1.407 . S
C71 C69 1.394 1_545 S
C71 C72 1.398 . S
C72 H67 0.929 . S
C72 C71 1.398 . S
C72 C73 1.382 . S
C73 C72 1.382 . S
C73 C74 1.392 1_554 S
C73 N75 1.420 . S
C74 H68 0.930 . S
C74 C70 1.407 . S
C74 C73 1.392 1_556 S
N75 C73 1.420 . S
N75 C76 1.236 1_545 S
C76 N75 1.236 1_565 S
H77 C80 0.929 . S
H78 C83 0.929 . S
H79 C85 0.930 . S
C80 H77 0.929 . S
C80 C81 1.398 1_554 S
C80 C82 1.396 . S
C81 C80 1.398 1_556 S
C81 C85 1.407 . S
C82 C80 1.396 . S
C82 C83 1.394 . S
C83 H78 0.929 . S
C83 C82 1.394 . S
C83 C84 1.382 . S
C84 C83 1.382 . S
C84 C85 1.392 1_554 S
C84 N86 1.420 . S
C85 H79 0.930 . S
C85 C81 1.407 . S
C85 C84 1.392 1_556 S
N86 C84 1.420 . S
N86 C87 1.244 . S
C87 N86 1.244 . S
Tb88 C98 2.825 1_556 S
Tb88 O99 2.347 1_455 S
Tb88 O102 2.366 . S
Tb88 O107 2.418 . S
Tb88 O108 2.384 1_565 S
Tb88 O111 2.479 . S
Tb88 O112 2.471 1_556 S
Eu89 O100 2.418 . S
Eu89 O101 2.384 1_545 S
Eu89 O104 2.479 . S
Eu89 O105 2.471 . S
Eu89 O106 2.347 1_655 S
Eu89 O109 2.366 . S
Eu89 C119 2.825 . S
C90 O106 1.259 1_565 S
C90 O107 1.265 . S
C91 O108 1.255 . S
C91 O109 1.265 1_455 S
C92 C94 1.380 . S
C92 C95 1.374 . S
C92 C98 1.507 . S
C93 C94 1.384 . S
C93 C97 1.387 . S
C93 H120 0.930 . S
C94 C92 1.380 . S
C94 C93 1.384 . S
C94 H121 0.931 . S
C95 C92 1.374 . S
C95 C96 1.390 . S
C95 H122 0.930 1_455 S
C96 C95 1.390 . S
C96 C97 1.391 . S
C96 H123 0.930 1_455 S
C97 C93 1.387 . S
C97 C96 1.391 . S
C98 Tb88 2.825 1_554 S
C98 C92 1.507 . S
C98 O111 1.238 1_554 S
C98 O112 1.247 . S
O99 Tb88 2.347 1_655 S
O99 C103 1.259 1_565 S
O100 Eu89 2.418 . S
O100 C103 1.265 . S
O101 Eu89 2.384 1_565 S
O101 C110 1.255 . S
O102 Tb88 2.366 . S
O102 C110 1.265 1_455 S
C103 O99 1.259 1_545 S
C103 O100 1.265 . S
O104 Eu89 2.479 . S
O104 C119 1.238 . S
O105 Eu89 2.471 . S
O105 C119 1.247 . S
O106 Eu89 2.347 1_455 S
O106 C90 1.259 1_545 S
O107 Tb88 2.418 . S
O107 C90 1.265 . S
O108 Tb88 2.384 1_545 S
O108 C91 1.255 . S
O109 Eu89 2.366 . S
O109 C91 1.265 1_655 S
C110 O101 1.255 . S
C110 O102 1.265 1_655 S
O111 Tb88 2.479 . S
O111 C98 1.238 1_556 S
O112 Tb88 2.471 1_554 S
O112 C98 1.247 . S
C113 C116 1.380 . S
C113 C117 1.374 . S
C113 C119 1.507 . S
C114 C115 1.387 . S
C114 C118 1.391 . S
C115 C114 1.387 . S
C115 C116 1.384 . S
C115 H124 0.930 . S
C116 C113 1.380 . S
C116 C115 1.384 . S
C116 H125 0.931 . S
C117 C113 1.374 . S
C117 C118 1.390 . S
C117 H126 0.930 1_655 S
C118 C114 1.391 . S
C118 C117 1.390 . S
C118 H127 0.930 1_655 S
C119 Eu89 2.825 . S
C119 O104 1.238 . S
C119 O105 1.247 . S
C119 C113 1.507 . S
H120 C93 0.930 . S
H121 C94 0.931 . S
H122 C95 0.930 1_655 S
H123 C96 0.930 1_655 S
H124 C115 0.930 . S
H125 C116 0.931 . S
H126 C117 0.930 1_455 S
H127 C118 0.930 1_455 S
Tb128 C138 2.825 1_556 S
Tb128 O139 2.347 1_545 S
Tb128 O142 2.366 . S
Tb128 O147 2.418 . S
Tb128 O148 2.384 . S
Tb128 O151 2.479 . S
Tb128 O152 2.471 1_556 S
Eu129 O140 2.418 . S
Eu129 O141 2.384 . S
Eu129 O144 2.479 . S
Eu129 O145 2.471 . S
Eu129 O146 2.347 1_565 S
Eu129 O149 2.366 . S
Eu129 C159 2.825 . S
C130 O146 1.259 . S
C130 O147 1.265 . S
C131 O148 1.255 . S
C131 O149 1.265 1_545 S
C132 C134 1.380 . S
C132 C135 1.374 . S
C132 C138 1.507 . S
C133 C134 1.384 . S
C133 C137 1.387 . S
C133 H160 0.930 . S
C134 C132 1.380 . S
C134 C133 1.384 . S
C134 H161 0.931 . S
C135 C132 1.374 . S
C135 C136 1.390 . S
C135 H162 0.930 1_545 S
C136 C135 1.390 . S
C136 C137 1.391 . S
C136 H163 0.930 1_545 S
C137 C133 1.387 . S
C137 C136 1.391 . S
C138 Tb128 2.825 1_554 S
C138 C132 1.507 . S
C138 O151 1.238 1_554 S
C138 O152 1.247 . S
O139 Tb128 2.347 1_565 S
O139 C143 1.259 . S
O140 Eu129 2.418 . S
O140 C143 1.265 . S
O141 Eu129 2.384 . S
O141 C150 1.255 . S
O142 Tb128 2.366 . S
O142 C150 1.265 1_545 S
C143 O139 1.259 . S
C143 O140 1.265 . S
O144 Eu129 2.479 . S
O144 C159 1.238 . S
O145 Eu129 2.471 . S
O145 C159 1.247 . S
O146 Eu129 2.347 1_545 S
O146 C130 1.259 . S
O147 Tb128 2.418 . S
O147 C130 1.265 . S
O148 Tb128 2.384 . S
O148 C131 1.255 . S
O149 Eu129 2.366 . S
O149 C131 1.265 1_565 S
C150 O141 1.255 . S
C150 O142 1.265 1_565 S
O151 Tb128 2.479 . S
O151 C138 1.238 1_556 S
O152 Tb128 2.471 1_554 S
O152 C138 1.247 . S
C153 C156 1.380 . S
C153 C157 1.374 . S
C153 C159 1.507 . S
C154 C155 1.387 . S
C154 C158 1.391 . S
C155 C154 1.387 . S
C155 C156 1.384 . S
C155 H164 0.930 . S
C156 C153 1.380 . S
C156 C155 1.384 . S
C156 H165 0.931 . S
C157 C153 1.374 . S
C157 C158 1.390 . S
C157 H166 0.930 1_565 S
C158 C154 1.391 . S
C158 C157 1.390 . S
C158 H167 0.930 1_565 S
C159 Eu129 2.825 . S
C159 O144 1.238 . S
C159 O145 1.247 . S
C159 C153 1.507 . S
H160 C133 0.930 . S
H161 C134 0.931 . S
H162 C135 0.930 1_565 S
H163 C136 0.930 1_565 S
H164 C155 0.930 . S
H165 C156 0.931 . S
H166 C157 0.930 1_545 S
H167 C158 0.930 1_545 S
Tb168 C178 2.825 1_556 S
Tb168 O179 2.347 . S
Tb168 O182 2.366 . S
Tb168 O187 2.418 . S
Tb168 O188 2.384 . S
Tb168 O191 2.479 . S
Tb168 O192 2.471 1_556 S
Eu169 O180 2.418 . S
Eu169 O181 2.384 . S
Eu169 O184 2.479 . S
Eu169 O185 2.471 . S
Eu169 O186 2.347 . S
Eu169 O189 2.366 . S
Eu169 C199 2.825 . S
C170 O186 1.259 . S
C170 O187 1.265 . S
C171 O188 1.255 . S
C171 O189 1.265 . S
C172 C174 1.380 . S
C172 C175 1.374 . S
C172 C178 1.507 . S
C173 C174 1.384 . S
C173 C177 1.387 . S
C173 H200 0.930 . S
C174 C172 1.380 . S
C174 C173 1.384 . S
C174 H201 0.931 . S
C175 C172 1.374 . S
C175 C176 1.390 . S
C175 H202 0.930 . S
C176 C175 1.390 . S
C176 C177 1.391 . S
C176 H203 0.930 . S
C177 C173 1.387 . S
C177 C176 1.391 . S
C178 Tb168 2.825 1_554 S
C178 C172 1.507 . S
C178 O191 1.238 1_554 S
C178 O192 1.247 . S
O179 Tb168 2.347 . S
O179 C183 1.259 . S
O180 Eu169 2.418 . S
O180 C183 1.265 . S
O181 Eu169 2.384 . S
O181 C190 1.255 . S
O182 Tb168 2.366 . S
O182 C190 1.265 . S
C183 O179 1.259 . S
C183 O180 1.265 . S
O184 Eu169 2.479 . S
O184 C199 1.238 . S
O185 Eu169 2.471 . S
O185 C199 1.247 . S
O186 Eu169 2.347 . S
O186 C170 1.259 . S
O187 Tb168 2.418 . S
O187 C170 1.265 . S
O188 Tb168 2.384 . S
O188 C171 1.255 . S
O189 Eu169 2.366 . S
O189 C171 1.265 . S
C190 O181 1.255 . S
C190 O182 1.265 . S
O191 Tb168 2.479 . S
O191 C178 1.238 1_556 S
O192 Tb168 2.471 1_554 S
O192 C178 1.247 . S
C193 C196 1.380 . S
C193 C197 1.374 . S
C193 C199 1.507 . S
C194 C195 1.387 . S
C194 C198 1.391 . S
C195 C194 1.387 . S
C195 C196 1.384 . S
C195 H204 0.930 . S
C196 C193 1.380 . S
C196 C195 1.384 . S
C196 H205 0.931 . S
C197 C193 1.374 . S
C197 C198 1.390 . S
C197 H206 0.930 . S
C198 C194 1.391 . S
C198 C197 1.390 . S
C198 H207 0.930 . S
C199 Eu169 2.825 . S
C199 O184 1.238 . S
C199 O185 1.247 . S
C199 C193 1.507 . S
H200 C173 0.930 . S
H201 C174 0.931 . S
H202 C175 0.930 . S
H203 C176 0.930 . S
H204 C195 0.930 . S
H205 C196 0.931 . S
H206 C197 0.930 . S
H207 C198 0.930 . S
Tb208 C218 2.825 1_556 S
Tb208 O219 2.347 . S
Tb208 O222 2.366 . S
Tb208 O227 2.418 . S
Tb208 O228 2.384 1_655 S
Tb208 O231 2.479 . S
Tb208 O232 2.471 1_556 S
Eu209 O220 2.418 . S
Eu209 O221 2.384 1_455 S
Eu209 O224 2.479 . S
Eu209 O225 2.471 . S
Eu209 O226 2.347 . S
Eu209 O229 2.366 . S
Eu209 C239 2.825 . S
C210 O226 1.259 1_655 S
C210 O227 1.265 . S
C211 O228 1.255 . S
C211 O229 1.265 . S
C212 C214 1.380 . S
C212 C215 1.374 . S
C212 C218 1.507 . S
C213 C214 1.384 . S
C213 C217 1.387 . S
C213 H240 0.930 . S
C214 C212 1.380 . S
C214 C213 1.384 . S
C214 H241 0.931 . S
C215 C212 1.374 . S
C215 C216 1.390 . S
C215 H242 0.930 . S
C216 C215 1.390 . S
C216 C217 1.391 . S
C216 H243 0.930 . S
C217 C213 1.387 . S
C217 C216 1.391 . S
C218 Tb208 2.825 1_554 S
C218 C212 1.507 . S
C218 O231 1.238 1_554 S
C218 O232 1.247 . S
O219 Tb208 2.347 . S
O219 C223 1.259 1_655 S
O220 Eu209 2.418 . S
O220 C223 1.265 . S
O221 Eu209 2.384 1_655 S
O221 C230 1.255 . S
O222 Tb208 2.366 . S
O222 C230 1.265 . S
C223 O219 1.259 1_455 S
C223 O220 1.265 . S
O224 Eu209 2.479 . S
O224 C239 1.238 . S
O225 Eu209 2.471 . S
O225 C239 1.247 . S
O226 Eu209 2.347 . S
O226 C210 1.259 1_455 S
O227 Tb208 2.418 . S
O227 C210 1.265 . S
O228 Tb208 2.384 1_455 S
O228 C211 1.255 . S
O229 Eu209 2.366 . S
O229 C211 1.265 . S
C230 O221 1.255 . S
C230 O222 1.265 . S
O231 Tb208 2.479 . S
O231 C218 1.238 1_556 S
O232 Tb208 2.471 1_554 S
O232 C218 1.247 . S
C233 C236 1.380 . S
C233 C237 1.374 . S
C233 C239 1.507 . S
C234 C235 1.387 . S
C234 C238 1.391 . S
C235 C234 1.387 . S
C235 C236 1.384 . S
C235 H244 0.930 . S
C236 C233 1.380 . S
C236 C235 1.384 . S
C236 H245 0.931 . S
C237 C233 1.374 . S
C237 C238 1.390 . S
C237 H246 0.930 . S
C238 C234 1.391 . S
C238 C237 1.390 . S
C238 H247 0.930 . S
C239 Eu209 2.825 . S
C239 O224 1.238 . S
C239 O225 1.247 . S
C239 C233 1.507 . S
H240 C213 0.930 . S
H241 C214 0.931 . S
H242 C215 0.930 . S
H243 C216 0.930 . S
H244 C235 0.930 . S
H245 C236 0.931 . S
H246 C237 0.930 . S
H247 C238 0.930 . S
H248 C254 0.930 . S
H249 C257 0.932 . S
H250 C258 0.930 . S
H251 C259 0.930 . S
H252 C262 0.931 . S
H253 C263 0.930 . S
C254 H248 0.930 . S
C254 C255 1.356 . S
C254 C256 1.416 . S
C255 C254 1.356 . S
C255 C257 1.417 1_565 S
C256 C254 1.416 . S
C256 C261 1.423 1_565 S
C256 C263 1.409 . S
C257 H249 0.932 . S
C257 C255 1.417 1_545 S
C257 C258 1.363 . S
C258 H250 0.930 . S
C258 C257 1.363 . S
C258 C261 1.410 . S
C259 H251 0.930 . S
C259 C260 1.356 . S
C259 C261 1.417 . S
C260 C259 1.356 . S
C260 C262 1.417 1_545 S
C261 C256 1.423 1_545 S
C261 C258 1.410 . S
C261 C259 1.417 . S
C262 H252 0.931 . S
C262 C260 1.417 1_565 S
C262 C263 1.363 . S
C263 H253 0.930 . S
C263 C256 1.409 . S
C263 C262 1.363 . S
H264 C270 0.930 . S
H265 C273 0.930 . S
H266 C274 0.930 . S
H267 C275 0.930 . S
H268 C278 0.930 . S
H269 C279 0.930 . S
C270 H264 0.930 . S
C270 C271 1.355 . S
C270 C272 1.415 . S
C271 C270 1.355 . S
C271 C273 1.419 . S
C272 C270 1.415 . S
C272 C277 1.425 . S
C272 C279 1.409 . S
C273 H265 0.930 . S
C273 C271 1.419 . S
C273 C274 1.362 . S
C274 H266 0.930 . S
C274 C273 1.362 . S
C274 C277 1.409 . S
C275 H267 0.930 . S
C275 C276 1.355 . S
C275 C277 1.415 . S
C276 C275 1.355 . S
C276 C278 1.419 . S
C277 C272 1.425 . S
C277 C274 1.409 . S
C277 C275 1.415 . S
C278 H268 0.930 . S
C278 C276 1.419 . S
C278 C279 1.362 . S
C279 H269 0.930 . S
C279 C272 1.409 . S
C279 C278 1.362 . S
H280 C286 0.930 . S
H281 C289 0.930 . S
H282 C290 0.930 . S
H283 C291 0.930 . S
H284 C294 0.930 . S
H285 C295 0.930 . S
C286 H280 0.930 . S
C286 C287 1.355 . S
C286 C288 1.415 . S
C287 C286 1.355 . S
C287 C289 1.419 . S
C288 C286 1.415 . S
C288 C293 1.425 . S
C288 C295 1.409 . S
C289 H281 0.930 . S
C289 C287 1.419 . S
C289 C290 1.362 . S
C290 H282 0.930 . S
C290 C289 1.362 . S
C290 C293 1.409 . S
C291 H283 0.930 . S
C291 C292 1.355 . S
C291 C293 1.415 . S
C292 C291 1.355 . S
C292 C294 1.419 . S
C293 C288 1.425 . S
C293 C290 1.409 . S
C293 C291 1.415 . S
C294 H284 0.930 . S
C294 C292 1.419 . S
C294 C295 1.362 . S
C295 H285 0.930 . S
C295 C288 1.409 . S
C295 C294 1.362 . S
H296 C302 0.930 . S
H297 C305 0.930 . S
H298 C306 0.930 . S
H299 C307 0.930 . S
H300 C310 0.930 . S
H301 C311 0.930 . S
C302 H296 0.930 . S
C302 C303 1.355 1_455 S
C302 C304 1.415 . S
C303 C302 1.355 1_655 S
C303 C305 1.419 . S
C304 C302 1.415 . S
C304 C309 1.425 1_455 S
C304 C311 1.409 . S
C305 H297 0.930 . S
C305 C303 1.419 . S
C305 C306 1.362 . S
C306 H298 0.930 . S
C306 C305 1.362 . S
C306 C309 1.409 . S
C307 H299 0.930 . S
C307 C308 1.355 1_655 S
C307 C309 1.415 . S
C308 C307 1.355 1_455 S
C308 C310 1.419 . S
C309 C304 1.425 1_655 S
C309 C306 1.409 . S
C309 C307 1.415 . S
C310 H300 0.930 . S
C310 C308 1.419 . S
C310 C311 1.362 . S
C311 H301 0.930 . S
C311 C304 1.409 . S
C311 C310 1.362 . S
H312 C318 0.930 . S
H313 C321 0.930 . S
H314 C322 0.930 . S
H315 C323 0.930 . S
H316 C326 0.930 . S
H317 C327 0.930 . S
C318 H312 0.930 . S
C318 C319 1.354 . S
C318 C320 1.415 . S
C319 C318 1.354 . S
C319 C321 1.420 1_565 S
C320 C318 1.415 . S
C320 C325 1.425 1_565 S
C320 C327 1.409 . S
C321 H313 0.930 . S
C321 C319 1.420 1_545 S
C321 C322 1.362 . S
C322 H314 0.930 . S
C322 C321 1.362 . S
C322 C325 1.409 . S
C323 H315 0.930 . S
C323 C324 1.356 1_554 S
C323 C325 1.415 . S
C324 C323 1.356 1_556 S
C324 C326 1.417 1_545 S
C325 C320 1.425 1_545 S
C325 C322 1.409 . S
C325 C323 1.415 . S
C326 H316 0.930 . S
C326 C324 1.417 1_565 S
C326 C327 1.362 1_556 S
C327 H317 0.930 . S
C327 C320 1.409 . S
C327 C326 1.362 1_554 S
H328 C334 0.930 . S
H329 C337 0.930 . S
H330 C338 0.930 . S
H331 C339 0.930 . S
H332 C342 0.930 . S
H333 C343 0.930 . S
C334 H328 0.930 . S
C334 C335 1.355 . S
C334 C336 1.415 . S
C335 C334 1.355 . S
C335 C337 1.419 . S
C336 C334 1.415 . S
C336 C341 1.425 . S
C336 C343 1.409 . S
C337 H329 0.930 . S
C337 C335 1.419 . S
C337 C338 1.362 . S
C338 H330 0.930 . S
C338 C337 1.362 . S
C338 C341 1.409 . S
C339 H331 0.930 . S
C339 C340 1.355 1_554 S
C339 C341 1.415 . S
C340 C339 1.355 1_556 S
C340 C342 1.419 . S
C341 C336 1.425 . S
C341 C338 1.409 . S
C341 C339 1.415 . S
C342 H332 0.930 . S
C342 C340 1.419 . S
C342 C343 1.362 1_556 S
C343 H333 0.930 . S
C343 C336 1.409 . S
C343 C342 1.362 1_554 S
H344 C350 0.930 . S
H345 C353 0.930 . S
H346 C354 0.930 . S
H347 C355 0.930 1_556 S
H348 C358 0.930 . S
H349 C359 0.930 . S
C350 H344 0.930 . S
C350 C351 1.355 . S
C350 C352 1.415 . S
C351 C350 1.355 . S
C351 C353 1.419 . S
C352 C350 1.415 . S
C352 C357 1.425 . S
C352 C359 1.409 . S
C353 H345 0.930 . S
C353 C351 1.419 . S
C353 C354 1.362 . S
C354 H346 0.930 . S
C354 C353 1.362 . S
C354 C357 1.409 . S
C355 H347 0.930 1_554 S
C355 C356 1.355 . S
C355 C357 1.415 . S
C356 C355 1.355 . S
C356 C358 1.419 . S
C357 C352 1.425 . S
C357 C354 1.409 . S
C357 C355 1.415 . S
C358 H348 0.930 . S
C358 C356 1.419 . S
C358 C359 1.362 . S
C359 H349 0.930 . S
C359 C352 1.409 . S
C359 C358 1.362 . S
H360 C366 0.930 . S
H361 C369 0.930 . S
H362 C370 0.930 . S
H363 C371 0.929 1_556 S
H364 C374 0.930 . S
H365 C375 0.930 . S
C366 H360 0.930 . S
C366 C367 1.355 1_655 S
C366 C368 1.415 . S
C367 C366 1.355 1_455 S
C367 C369 1.419 . S
C368 C366 1.415 . S
C368 C373 1.425 1_655 S
C368 C375 1.409 . S
C369 H361 0.930 . S
C369 C367 1.419 . S
C369 C370 1.362 . S
C370 H362 0.930 . S
C370 C369 1.362 . S
C370 C373 1.409 . S
C371 H363 0.929 1_554 S
C371 C372 1.355 1_454 S
C371 C373 1.415 . S
C372 C371 1.355 1_656 S
C372 C374 1.419 1_556 S
C373 C368 1.425 1_455 S
C373 C370 1.409 . S
C373 C371 1.415 . S
C374 H364 0.930 . S
C374 C372 1.419 1_554 S
C374 C375 1.362 . S
C375 H365 0.930 . S
C375 C368 1.409 . S
C375 C374 1.362 . S
H376 C382 0.930 . S
H377 C385 0.930 . S
H378 C386 0.930 . S
H379 C387 0.930 . S
H380 C390 0.930 . S
H381 C391 0.930 . S
C382 H376 0.930 . S
C382 C383 1.355 1_655 S
C382 C384 1.415 . S
C383 C382 1.355 1_455 S
C383 C385 1.419 . S
C384 C382 1.415 . S
C384 C389 1.425 . S
C384 C391 1.409 . S
C385 H377 0.930 . S
C385 C383 1.419 . S
C385 C386 1.362 . S
C386 H378 0.930 . S
C386 C385 1.362 . S
C386 C389 1.409 1_455 S
C387 H379 0.930 . S
C387 C388 1.355 . S
C387 C389 1.415 . S
C388 C387 1.355 . S
C388 C390 1.419 . S
C389 C384 1.425 . S
C389 C386 1.409 1_655 S
C389 C387 1.415 . S
C390 H380 0.930 . S
C390 C388 1.419 . S
C390 C391 1.362 . S
C391 H381 0.930 . S
C391 C384 1.409 . S
C391 C390 1.362 . S
H392 C398 0.930 . S
H393 C401 0.930 . S
H394 C402 0.930 . S
H395 C403 0.930 . S
H396 C406 0.930 . S
H397 C407 0.930 . S
C398 H392 0.930 . S
C398 C399 1.355 1_565 S
C398 C400 1.415 . S
C399 C398 1.355 1_545 S
C399 C401 1.419 . S
C400 C398 1.415 . S
C400 C405 1.425 . S
C400 C407 1.409 . S
C401 H393 0.930 . S
C401 C399 1.419 . S
C401 C402 1.362 . S
C402 H394 0.930 . S
C402 C401 1.362 . S
C402 C405 1.409 1_545 S
C403 H395 0.930 . S
C403 C404 1.355 . S
C403 C405 1.415 . S
C404 C403 1.355 . S
C404 C406 1.419 . S
C405 C400 1.425 . S
C405 C402 1.409 1_565 S
C405 C403 1.415 . S
C406 H396 0.930 . S
C406 C404 1.419 . S
C406 C407 1.362 . S
C407 H397 0.930 . S
C407 C400 1.409 . S
C407 C406 1.362 . S
H408 C414 0.930 . S
H409 C417 0.930 . S
H410 C418 0.930 . S
H411 C419 0.930 . S
H412 C422 0.930 . S
H413 C423 0.930 . S
C414 H408 0.930 . S
C414 C415 1.355 . S
C414 C416 1.415 . S
C415 C414 1.355 . S
C415 C417 1.419 . S
C416 C414 1.415 . S
C416 C421 1.425 . S
C416 C423 1.409 . S
C417 H409 0.930 . S
C417 C415 1.419 . S
C417 C418 1.362 . S
C418 H410 0.930 . S
C418 C417 1.362 . S
C418 C421 1.409 . S
C419 H411 0.930 . S
C419 C420 1.355 . S
C419 C421 1.415 . S
C420 C419 1.355 . S
C420 C422 1.419 . S
C421 C416 1.425 . S
C421 C418 1.409 . S
C421 C419 1.415 . S
C422 H412 0.930 . S
C422 C420 1.419 . S
C422 C423 1.362 . S
C423 H413 0.930 . S
C423 C416 1.409 . S
C423 C422 1.362 . S
H424 C430 0.930 . S
H425 C433 0.930 . S
H426 C434 0.930 . S
H427 C435 0.930 . S
H428 C438 0.930 . S
H429 C439 0.930 . S
C430 H424 0.930 . S
C430 C431 1.355 . S
C430 C432 1.415 . S
C431 C430 1.355 . S
C431 C433 1.419 . S
C432 C430 1.415 . S
C432 C437 1.425 . S
C432 C439 1.409 . S
C433 H425 0.930 . S
C433 C431 1.419 . S
C433 C434 1.362 . S
C434 H426 0.930 . S
C434 C433 1.362 . S
C434 C437 1.409 . S
C435 H427 0.930 . S
C435 C436 1.355 . S
C435 C437 1.415 . S
C436 C435 1.355 . S
C436 C438 1.419 . S
C437 C432 1.425 . S
C437 C434 1.409 . S
C437 C435 1.415 . S
C438 H428 0.930 . S
C438 C436 1.419 . S
C438 C439 1.362 . S
C439 H429 0.930 . S
C439 C432 1.409 . S
C439 C438 1.362 . S
H440 C446 0.930 . S
H441 C449 0.930 . S
H442 C450 0.930 . S
H443 C451 0.930 . S
H444 C454 0.930 1_655 S
H445 C455 0.930 . S
C446 H440 0.930 . S
C446 C447 1.341 1_655 S
C446 C448 1.415 1_655 S
C447 C446 1.341 1_455 S
C447 C449 1.449 . S
C448 C446 1.415 1_455 S
C448 C453 1.425 . S
C448 C455 1.409 1_455 S
C449 H441 0.930 . S
C449 C447 1.449 . S
C449 C450 1.362 . S
C450 H442 0.930 . S
C450 C449 1.362 . S
C450 C453 1.409 . S
C451 H443 0.930 . S
C451 C452 1.355 . S
C451 C453 1.415 . S
C452 C451 1.355 . S
C452 C454 1.419 . S
C453 C448 1.425 . S
C453 C450 1.409 . S
C453 C451 1.415 . S
C454 H444 0.930 1_455 S
C454 C452 1.419 . S
C454 C455 1.362 1_455 S
C455 H445 0.930 . S
C455 C448 1.409 1_655 S
C455 C454 1.362 1_655 S
H456 C462 0.930 . S
H457 C465 0.930 . S
H458 C466 0.930 . S
H459 C467 0.930 . S
H460 C470 0.930 . S
H461 C471 0.930 . S
C462 H456 0.930 . S
C462 C463 1.355 1_545 S
C462 C464 1.415 . S
C463 C462 1.355 1_565 S
C463 C465 1.419 . S
C464 C462 1.415 . S
C464 C469 1.425 . S
C464 C471 1.409 . S
C465 H457 0.930 . S
C465 C463 1.419 . S
C465 C466 1.362 1_565 S
C466 H458 0.930 . S
C466 C465 1.362 1_545 S
C466 C469 1.409 . S
C467 H459 0.930 . S
C467 C468 1.355 . S
C467 C469 1.415 . S
C468 C467 1.355 . S
C468 C470 1.419 . S
C469 C464 1.425 . S
C469 C466 1.409 . S
C469 C467 1.415 . S
C470 H460 0.930 . S
C470 C468 1.419 . S
C470 C471 1.362 . S
C471 H461 0.930 . S
C471 C464 1.409 . S
C471 C470 1.362 . S
H472 C478 0.930 . S
H473 C481 0.930 . S
H474 C482 0.930 . S
H475 C483 0.930 . S
H476 C486 0.930 . S
H477 C487 0.930 . S
C478 H472 0.930 . S
C478 C479 1.355 . S
C478 C480 1.415 . S
C479 C478 1.355 . S
C479 C481 1.419 . S
C480 C478 1.415 . S
C480 C485 1.425 . S
C480 C487 1.409 . S
C481 H473 0.930 . S
C481 C479 1.419 . S
C481 C482 1.362 . S
C482 H474 0.930 . S
C482 C481 1.362 . S
C482 C485 1.409 . S
C483 H475 0.930 . S
C483 C484 1.355 . S
C483 C485 1.415 . S
C484 C483 1.355 . S
C484 C486 1.419 . S
C485 C480 1.425 . S
C485 C482 1.409 . S
C485 C483 1.415 . S
C486 H476 0.930 . S
C486 C484 1.419 . S
C486 C487 1.362 . S
C487 H477 0.930 . S
C487 C480 1.409 . S
C487 C486 1.362 . S
H488 C494 0.930 . S
H489 C497 0.930 . S
H490 C498 0.930 . S
H491 C499 0.930 . S
H492 C502 0.930 . S
H493 C503 0.930 . S
C494 H488 0.930 . S
C494 C495 1.355 . S
C494 C496 1.415 . S
C495 C494 1.355 . S
C495 C497 1.419 . S
C496 C494 1.415 . S
C496 C501 1.425 . S
C496 C503 1.409 . S
C497 H489 0.930 . S
C497 C495 1.419 . S
C497 C498 1.362 . S
C498 H490 0.930 . S
C498 C497 1.362 . S
C498 C501 1.409 . S
C499 H491 0.930 . S
C499 C500 1.355 . S
C499 C501 1.415 . S
C500 C499 1.355 . S
C500 C502 1.419 . S
C501 C496 1.425 . S
C501 C498 1.409 . S
C501 C499 1.415 . S
C502 H492 0.930 . S
C502 C500 1.419 . S
C502 C503 1.362 . S
C503 H493 0.930 . S
C503 C496 1.409 . S
C503 C502 1.362 . S
H504 C510 0.930 . S
H505 C513 0.930 . S
H506 C514 0.934 . S
H507 C515 0.930 . S
H508 C518 0.930 . S
H509 C519 0.930 . S
C510 H504 0.930 . S
C510 C511 1.350 1_455 S
C510 C512 1.415 . S
C511 C510 1.350 1_655 S
C511 C513 1.424 . S
C512 C510 1.415 . S
C512 C517 1.425 1_455 S
C512 C519 1.409 . S
C513 H505 0.930 . S
C513 C511 1.424 . S
C513 C514 1.362 . S
C514 H506 0.934 . S
C514 C513 1.362 . S
C514 C517 1.409 . S
C515 H507 0.930 . S
C515 C516 1.355 1_655 S
C515 C517 1.415 . S
C516 C515 1.355 1_455 S
C516 C518 1.419 . S
C517 C512 1.425 1_655 S
C517 C514 1.409 . S
C517 C515 1.415 . S
C518 H508 0.930 . S
C518 C516 1.419 . S
C518 C519 1.362 . S
C519 H509 0.930 . S
C519 C512 1.409 . S
C519 C518 1.362 . S
H520 C526 0.930 . S
H521 C529 0.930 1_554 S
H522 C530 0.930 1_554 S
H523 C531 0.930 . S
H524 C534 0.930 . S
H525 C535 0.930 . S
C526 H520 0.930 . S
C526 C527 1.355 1_565 S
C526 C528 1.415 . S
C527 C526 1.355 1_545 S
C527 C529 1.419 . S
C528 C526 1.415 . S
C528 C533 1.425 1_565 S
C528 C535 1.409 . S
C529 H521 0.930 1_556 S
C529 C527 1.419 . S
C529 C530 1.362 . S
C530 H522 0.930 1_556 S
C530 C529 1.362 . S
C530 C533 1.409 . S
C531 H523 0.930 . S
C531 C532 1.355 . S
C531 C533 1.415 . S
C532 C531 1.355 . S
C532 C534 1.419 1_545 S
C533 C528 1.425 1_545 S
C533 C530 1.409 . S
C533 C531 1.415 . S
C534 H524 0.930 . S
C534 C532 1.419 1_565 S
C534 C535 1.362 . S
C535 H525 0.930 . S
C535 C528 1.409 . S
C535 C534 1.362 . S
H536 C542 0.930 . S
H537 C545 0.930 . S
H538 C546 0.930 . S
H539 C547 0.930 . S
H540 C550 0.930 . S
H541 C551 0.930 . S
C542 H536 0.930 . S
C542 C543 1.355 . S
C542 C544 1.415 . S
C543 C542 1.355 . S
C543 C545 1.419 . S
C544 C542 1.415 . S
C544 C549 1.425 . S
C544 C551 1.409 . S
C545 H537 0.930 . S
C545 C543 1.419 . S
C545 C546 1.362 . S
C546 H538 0.930 . S
C546 C545 1.362 . S
C546 C549 1.409 . S
C547 H539 0.930 . S
C547 C548 1.355 . S
C547 C549 1.415 . S
C548 C547 1.355 . S
C548 C550 1.419 . S
C549 C544 1.425 . S
C549 C546 1.409 . S
C549 C547 1.415 . S
C550 H540 0.930 . S
C550 C548 1.419 . S
C550 C551 1.362 . S
C551 H541 0.930 . S
C551 C544 1.409 . S
C551 C550 1.362 . S
H552 C558 0.930 . S
H553 C561 0.930 . S
H554 C562 0.930 . S
H555 C563 0.930 . S
H556 C566 0.930 . S
H557 C567 0.930 . S
C558 H552 0.930 . S
C558 C559 1.355 . S
C558 C560 1.415 . S
C559 C558 1.355 . S
C559 C561 1.419 . S
C560 C558 1.415 . S
C560 C565 1.425 . S
C560 C567 1.409 . S
C561 H553 0.930 . S
C561 C559 1.419 . S
C561 C562 1.362 . S
C562 H554 0.930 . S
C562 C561 1.362 . S
C562 C565 1.409 . S
C563 H555 0.930 . S
C563 C564 1.355 . S
C563 C565 1.415 . S
C564 C563 1.355 . S
C564 C566 1.419 . S
C565 C560 1.425 . S
C565 C562 1.409 . S
C565 C563 1.415 . S
C566 H556 0.930 . S
C566 C564 1.419 . S
C566 C567 1.362 . S
C567 H557 0.930 . S
C567 C560 1.409 . S
C567 C566 1.362 . S
H568 C574 0.930 . S
H569 C577 0.930 . S
H570 C578 0.930 . S
H571 C579 0.930 . S
H572 C582 0.930 . S
H573 C583 0.930 . S
C574 H568 0.930 . S
C574 C575 1.355 1_455 S
C574 C576 1.415 . S
C575 C574 1.355 1_655 S
C575 C577 1.419 . S
C576 C574 1.415 . S
C576 C581 1.425 1_455 S
C576 C583 1.409 . S
C577 H569 0.930 . S
C577 C575 1.419 . S
C577 C578 1.362 . S
C578 H570 0.930 . S
C578 C577 1.362 . S
C578 C581 1.409 . S
C579 H571 0.930 . S
C579 C580 1.355 . S
C579 C581 1.415 . S
C580 C579 1.355 . S
C580 C582 1.419 1_655 S
C581 C576 1.425 1_655 S
C581 C578 1.409 . S
C581 C579 1.415 . S
C582 H572 0.930 . S
C582 C580 1.419 1_455 S
C582 C583 1.362 . S
C583 H573 0.930 . S
C583 C576 1.409 . S
C583 C582 1.362 . S
H584 C590 0.930 . S
H585 C593 0.930 . S
H586 C594 0.930 . S
H587 C595 0.930 . S
H588 C598 0.930 . S
H589 C599 0.930 . S
C590 H584 0.930 . S
C590 C591 1.350 1_565 S
C590 C592 1.415 . S
C591 C590 1.350 1_545 S
C591 C593 1.424 . S
C592 C590 1.415 . S
C592 C597 1.425 1_565 S
C592 C599 1.409 . S
C593 H585 0.930 . S
C593 C591 1.424 . S
C593 C594 1.362 . S
C594 H586 0.930 . S
C594 C593 1.362 . S
C594 C597 1.409 . S
C595 H587 0.930 . S
C595 C596 1.355 1_545 S
C595 C597 1.415 . S
C596 C595 1.355 1_565 S
C596 C598 1.419 . S
C597 C592 1.425 1_545 S
C597 C594 1.409 . S
C597 C595 1.415 . S
C598 H588 0.930 . S
C598 C596 1.419 . S
C598 C599 1.362 . S
C599 H589 0.930 . S
C599 C592 1.409 . S
C599 C598 1.362 . S
H600 C606 0.930 . S
H601 C609 0.930 . S
H602 C610 0.930 . S
H603 C611 0.930 . S
H604 C614 0.930 . S
H605 C615 0.930 . S
C606 H600 0.930 . S
C606 C607 1.355 . S
C606 C608 1.415 . S
C607 C606 1.355 . S
C607 C609 1.419 . S
C608 C606 1.415 . S
C608 C613 1.425 . S
C608 C615 1.409 . S
C609 H601 0.930 . S
C609 C607 1.419 . S
C609 C610 1.362 . S
C610 H602 0.930 . S
C610 C609 1.362 . S
C610 C613 1.409 . S
C611 H603 0.930 . S
C611 C612 1.355 . S
C611 C613 1.415 . S
C612 C611 1.355 . S
C612 C614 1.419 . S
C613 C608 1.425 . S
C613 C610 1.409 . S
C613 C611 1.415 . S
C614 H604 0.930 . S
C614 C612 1.419 . S
C614 C615 1.362 . S
C615 H605 0.930 . S
C615 C608 1.409 . S
C615 C614 1.362 . S
H616 C622 0.930 . S
H617 C625 0.930 . S
H618 C626 0.930 . S
H619 C627 0.930 . S
H620 C630 0.930 . S
H621 C631 0.930 . S
C622 H616 0.930 . S
C622 C623 1.355 . S
C622 C624 1.415 . S
C623 C622 1.355 . S
C623 C625 1.419 . S
C624 C622 1.415 . S
C624 C629 1.425 . S
C624 C631 1.409 . S
C625 H617 0.930 . S
C625 C623 1.419 . S
C625 C626 1.362 . S
C626 H618 0.930 . S
C626 C625 1.362 . S
C626 C629 1.409 . S
C627 H619 0.930 . S
C627 C628 1.355 . S
C627 C629 1.415 . S
C628 C627 1.355 . S
C628 C630 1.419 . S
C629 C624 1.425 . S
C629 C626 1.409 . S
C629 C627 1.415 . S
C630 H620 0.930 . S
C630 C628 1.419 . S
C630 C631 1.362 . S
C631 H621 0.930 . S
C631 C624 1.409 . S
C631 C630 1.362 . S
C255 C76 1.913 . S
C260 C90 2.050 1_545 S
C276 C130 2.056 . S
C271 C87 1.865 . S
C292 C170 2.078 . S
C287 C54 1.940 . S
C308 C210 2.067 1_455 S
C303 C65 1.864 . S
C324 C103 2.054 . S
C319 C32 1.920 . S
C335 C43 1.919 . S
C340 C143 2.064 . S
C351 C10 1.857 . S
C356 C183 2.074 1_554 S
C367 C21 1.883 1_455 S
C372 C223 2.071 1_655 S
C388 C114 0.645 . S
C383 C60 0.610 . S
C404 C154 0.644 . S
C399 C71 0.605 . S
C420 C194 0.542 . S
C415 C82 0.517 . S
C431 C49 0.665 . S
C436 C234 0.621 . S
C447 C16 0.554 . S
C452 C97 0.501 . S
C468 C137 0.614 . S
C463 C27 0.683 1_565 S
C484 C177 0.619 . S
C479 C38 0.559 . S
C495 C5 0.519 . S
C500 C217 0.589 . S
C511 C59 2.107 1_655 S
C516 C91 2.411 . S
C527 C70 2.041 . S
C532 C131 2.365 . S
C548 C171 2.367 . S
C543 C81 2.058 . S
C564 C211 2.402 . S
C559 C48 2.088 . S
C575 C15 2.108 1_655 S
C580 C110 2.404 . S
C596 C150 2.387 . S
C591 C26 2.107 . S
C612 C190 2.355 . S
C607 C37 2.033 . S
C623 C4 2.070 . S
C628 C230 2.396 . S
