# Generated by pormake.
# Topology hwx, (6,3)-cn, num edge types: 1
# Building blocks:
#     Node 0, Type 0, BuildingBlock: IZENUY_clean_sbu_0, # of connection points: 6
#     Node 1, Type 0, BuildingBlock: IZENUY_clean_sbu_0, # of connection points: 6
#     Node 2, Type 0, BuildingBlock: IZENUY_clean_sbu_0, # of connection points: 6
#     Node 3, Type 0, BuildingBlock: IZENUY_clean_sbu_0, # of connection points: 6
#     Node 4, Type 1, BuildingBlock: KAKCAD_clean_linker_0, # of connection points: 3
#     Node 5, Type 1, BuildingBlock: KAKCAD_clean_linker_0, # of connection points: 3
#     Node 6, Type 1, BuildingBlock: KAKCAD_clean_linker_0, # of connection points: 3
#     Node 7, Type 1, BuildingBlock: KAKCAD_clean_linker_0, # of connection points: 3
#     Node 8, Type 1, BuildingBlock: KAKCAD_clean_linker_0, # of connection points: 3
#     Node 9, Type 1, BuildingBlock: KAKCAD_clean_linker_0, # of connection points: 3
#     Node 10, Type 1, BuildingBlock: KAKCAD_clean_linker_0, # of connection points: 3
#     Node 11, Type 1, BuildingBlock: KAKCAD_clean_linker_0, # of connection points: 3
#     Edge 12, Type (0, 1), BuildingBlock: AJUNOK_clean_linker_0, # of connection points: 2
#     Edge 13, Type (0, 1), BuildingBlock: AJUNOK_clean_linker_0, # of connection points: 2
#     Edge 14, Type (0, 1), BuildingBlock: AJUNOK_clean_linker_0, # of connection points: 2
#     Edge 15, Type (0, 1), BuildingBlock: AJUNOK_clean_linker_0, # of connection points: 2
#     Edge 16, Type (0, 1), BuildingBlock: AJUNOK_clean_linker_0, # of connection points: 2
#     Edge 17, Type (0, 1), BuildingBlock: AJUNOK_clean_linker_0, # of connection points: 2
#     Edge 18, Type (0, 1), BuildingBlock: AJUNOK_clean_linker_0, # of connection points: 2
#     Edge 19, Type (0, 1), BuildingBlock: AJUNOK_clean_linker_0, # of connection points: 2
#     Edge 20, Type (0, 1), BuildingBlock: AJUNOK_clean_linker_0, # of connection points: 2
#     Edge 21, Type (0, 1), BuildingBlock: AJUNOK_clean_linker_0, # of connection points: 2
#     Edge 22, Type (0, 1), BuildingBlock: AJUNOK_clean_linker_0, # of connection points: 2
#     Edge 23, Type (0, 1), BuildingBlock: AJUNOK_clean_linker_0, # of connection points: 2
#     Edge 24, Type (0, 1), BuildingBlock: AJUNOK_clean_linker_0, # of connection points: 2
#     Edge 25, Type (0, 1), BuildingBlock: AJUNOK_clean_linker_0, # of connection points: 2
#     Edge 26, Type (0, 1), BuildingBlock: AJUNOK_clean_linker_0, # of connection points: 2
#     Edge 27, Type (0, 1), BuildingBlock: AJUNOK_clean_linker_0, # of connection points: 2
#     Edge 28, Type (0, 1), BuildingBlock: AJUNOK_clean_linker_0, # of connection points: 2
#     Edge 29, Type (0, 1), BuildingBlock: AJUNOK_clean_linker_0, # of connection points: 2
#     Edge 30, Type (0, 1), BuildingBlock: AJUNOK_clean_linker_0, # of connection points: 2
#     Edge 31, Type (0, 1), BuildingBlock: AJUNOK_clean_linker_0, # of connection points: 2
#     Edge 32, Type (0, 1), BuildingBlock: AJUNOK_clean_linker_0, # of connection points: 2
#     Edge 33, Type (0, 1), BuildingBlock: AJUNOK_clean_linker_0, # of connection points: 2
#     Edge 34, Type (0, 1), BuildingBlock: AJUNOK_clean_linker_0, # of connection points: 2
#     Edge 35, Type (0, 1), BuildingBlock: AJUNOK_clean_linker_0, # of connection points: 2
# Relax obj value: 0.051
# Max RMSD: 0.075
# Mean RMSD: 0.068
data_MOF--net-hwx--node1-IZENUY_clean_sbu_0--node2-KAKCAD_clean_linker_0--edge1-AJUNOK_clean_linker_0
_symmetry_space_group_name_H-M    P1
_symmetry_Int_Tables_number       1
_symmetry_cell_setting            triclinic
loop_
_symmetry_equiv_pos_as_xyz
'x, y, z'
_cell_length_a     45.886811
_cell_length_b     45.893459
_cell_length_c     22.174034
_cell_angle_alpha  89.948596
_cell_angle_beta   90.067846
_cell_angle_gamma 90.023196
loop_
_atom_site_label
_atom_site_type_symbol
_atom_site_fract_x
_atom_site_fract_y
_atom_site_fract_z
_atom_type_partial_charge
Fe0 Fe 0.2415 0.21761 0.07358 0.0
Fe1 Fe 0.24084 0.21624 0.93572 0.0
O2 O 0.23063 0.20066 0.00563 0.0
Fe3 Fe 0.20959 0.16827 0.00815 0.0
O4 O 0.19003 0.1782 0.07763 0.0
O5 O 0.20395 0.22313 0.0957 0.0
O6 O 0.24095 0.25478 0.04346 0.0
C7 C 0.22708 0.26535 0.99933 0.0
C8 C 0.24781 0.15773 0.10002 0.0
O9 O 0.22227 0.25013 0.95312 0.0
C10 C 0.24793 0.15857 0.90928 0.0
O11 O 0.2797 0.21301 0.05526 0.0
O12 O 0.27595 0.23033 0.96302 0.0
O13 O 0.2379 0.14914 0.04999 0.0
O14 O 0.24402 0.18378 0.11671 0.0
C15 C 0.18278 0.19762 0.91631 0.0
O16 O 0.2599 0.18329 0.91287 0.0
O17 O 0.22507 0.15285 0.93895 0.0
C18 C 0.29129 0.22301 0.00808 0.0
O19 O 0.20752 0.20519 0.89659 0.0
O20 O 0.17995 0.18498 0.96647 0.0
C21 C 0.18562 0.20284 0.10176 0.0
Fe22 Fe 0.25321 0.71687 0.56025 0.0
Fe23 Fe 0.28464 0.66864 0.49011 0.0
O24 O 0.26393 0.70133 0.49081 0.0
Fe25 Fe 0.25397 0.7186 0.42238 0.0
O26 O 0.27301 0.7518 0.44303 0.0
O27 O 0.2548 0.75468 0.53407 0.0
O28 O 0.29074 0.72102 0.58369 0.0
C29 C 0.3087 0.70036 0.58805 0.0
C30 C 0.20345 0.72486 0.49498 0.0
O31 O 0.30429 0.67653 0.56066 0.0
C32 C 0.24516 0.66131 0.39299 0.0
O33 O 0.24966 0.68199 0.59944 0.0
O34 O 0.25622 0.64881 0.52966 0.0
O35 O 0.21898 0.73251 0.45047 0.0
O36 O 0.215 0.71372 0.54113 0.0
C37 C 0.31186 0.70029 0.40196 0.0
O38 O 0.26872 0.65497 0.41972 0.0
O39 O 0.23442 0.68655 0.39679 0.0
C40 C 0.24584 0.65639 0.57985 0.0
O41 O 0.31451 0.68612 0.45039 0.0
O42 O 0.28712 0.70795 0.38235 0.0
C43 C 0.26881 0.76594 0.49091 0.0
Fe44 Fe 0.75459 0.79224 0.92204 0.0
Fe45 Fe 0.75273 0.79346 0.05973 0.0
O46 O 0.76368 0.80959 0.99072 0.0
Fe47 Fe 0.78355 0.84273 0.99047 0.0
O48 O 0.75624 0.86096 0.9446 0.0
O49 O 0.75101 0.82592 0.87842 0.0
O50 O 0.71589 0.79496 0.93803 0.0
C51 C 0.70424 0.78364 0.98383 0.0
C52 C 0.81044 0.80926 0.8976 0.0
O53 O 0.71942 0.77688 0.02937 0.0
C54 C 0.80841 0.81658 0.0884 0.0
O55 O 0.75681 0.75514 0.95277 0.0
O56 O 0.77391 0.76091 0.04441 0.0
O57 O 0.80562 0.83334 0.92388 0.0
O58 O 0.79252 0.78853 0.90168 0.0
C59 C 0.74088 0.85071 0.08211 0.0
O60 O 0.78362 0.80707 0.10331 0.0
O61 O 0.81257 0.82736 0.03678 0.0
C62 C 0.77044 0.74531 0.99811 0.0
O63 O 0.73111 0.82501 0.07947 0.0
O64 O 0.76462 0.85771 0.05659 0.0
C65 C 0.74735 0.85215 0.89404 0.0
Fe66 Fe 0.7113 0.34227 0.51254 0.0
Fe67 Fe 0.73958 0.29081 0.57852 0.0
O68 O 0.73084 0.30898 0.51057 0.0
Fe69 Fe 0.74182 0.29348 0.44109 0.0
O70 O 0.76324 0.32528 0.42181 0.0
O71 O 0.7302 0.35799 0.44697 0.0
O72 O 0.73891 0.35965 0.55953 0.0
C73 C 0.74726 0.35 0.60995 0.0
C74 C 0.68617 0.31719 0.4135 0.0
O75 O 0.74248 0.3238 0.62406 0.0
C76 C 0.72419 0.24467 0.50115 0.0
O77 O 0.68908 0.33199 0.57862 0.0
O78 O 0.70154 0.2866 0.59726 0.0
O79 O 0.71075 0.30725 0.39827 0.0
O80 O 0.68217 0.32778 0.46534 0.0
C81 C 0.79034 0.28415 0.51701 0.0
O82 O 0.73813 0.25413 0.54626 0.0
O83 O 0.72075 0.26061 0.45532 0.0
C84 C 0.68382 0.30741 0.6028 0.0
O85 O 0.77824 0.29422 0.56354 0.0
O86 O 0.77536 0.2771 0.47128 0.0
C87 C 0.75345 0.35097 0.41963 0.0
C88 C 0.19246 0.55277 0.76811 0.0
C89 C 0.21115 0.57699 0.76765 0.0
C90 C 0.18827 0.5369 0.8215 0.0
C91 C 0.20284 0.54506 0.87482 0.0
C92 C 0.2222 0.56879 0.87316 0.0
C93 C 0.22614 0.58464 0.82038 0.0
C94 C 0.19853 0.52912 0.93244 0.0
C95 C 0.19812 0.4986 0.93416 0.0
C96 C 0.19801 0.48367 0.98963 0.0
C97 C 0.19834 0.49971 0.04381 0.0
C98 C 0.19871 0.53035 0.0427 0.0
C99 C 0.19762 0.54467 0.9868 0.0
C100 C 0.20293 0.54776 0.09869 0.0
C101 C 0.18903 0.54035 0.15318 0.0
C102 C 0.22128 0.57235 0.0975 0.0
C103 C 0.22494 0.58958 0.14855 0.0
C104 C 0.21082 0.58247 0.20255 0.0
C105 C 0.19981 0.45137 0.99074 0.0
C106 C 0.21894 0.43671 0.95166 0.0
C107 C 0.1828 0.435 0.03114 0.0
C108 C 0.18503 0.40461 0.0326 0.0
C109 C 0.20447 0.39007 0.99404 0.0
C110 C 0.22119 0.4064 0.95323 0.0
C111 C 0.19304 0.55755 0.20484 0.0
H112 H 0.18067 0.54659 0.72774 0.0
H113 H 0.17325 0.51869 0.82138 0.0
H114 H 0.23448 0.57513 0.91278 0.0
H115 H 0.241 0.603 0.82071 0.0
H116 H 0.19883 0.48644 0.89233 0.0
H117 H 0.19694 0.56826 0.98549 0.0
H118 H 0.19992 0.48835 0.08654 0.0
H119 H 0.17474 0.52161 0.15563 0.0
H120 H 0.23311 0.57825 0.05707 0.0
H121 H 0.23919 0.60839 0.14605 0.0
H122 H 0.23269 0.44871 0.92069 0.0
H123 H 0.16763 0.44569 0.06127 0.0
H124 H 0.18195 0.55169 0.2462 0.0
H125 H 0.23655 0.39576 0.92342 0.0
H126 H 0.17151 0.39248 0.06378 0.0
C127 C 0.91754 0.79569 0.27816 0.0
C128 C 0.898 0.81916 0.27434 0.0
C129 C 0.93552 0.79246 0.32879 0.0
C130 C 0.93417 0.81265 0.37639 0.0
C131 C 0.91599 0.83712 0.37054 0.0
C132 C 0.89821 0.84042 0.31989 0.0
C133 C 0.94975 0.80707 0.43394 0.0
C134 C 0.9789 0.79781 0.43427 0.0
C135 C 0.99317 0.79146 0.48891 0.0
C136 C 0.97785 0.79444 0.54347 0.0
C137 C 0.94861 0.80349 0.54398 0.0
C138 C 0.93483 0.80984 0.48892 0.0
C139 C 0.93202 0.80518 0.60155 0.0
C140 C 0.93555 0.78377 0.64644 0.0
C141 C 0.9117 0.82764 0.61113 0.0
C142 C 0.89461 0.82807 0.66321 0.0
C143 C 0.89748 0.80614 0.70705 0.0
C144 C 0.02389 0.78119 0.48922 0.0
C145 C 0.03371 0.76109 0.44591 0.0
C146 C 0.0435 0.79102 0.53358 0.0
C147 C 0.07212 0.7807 0.53507 0.0
C148 C 0.08176 0.76043 0.49216 0.0
C149 C 0.06241 0.75091 0.44723 0.0
C150 C 0.91859 0.78435 0.69875 0.0
H151 H 0.91776 0.77901 0.24363 0.0
H152 H 0.94928 0.77336 0.33215 0.0
H153 H 0.91494 0.85331 0.406 0.0
H154 H 0.88376 0.85905 0.31737 0.0
H155 H 0.99055 0.79596 0.39197 0.0
H156 H 0.91198 0.81584 0.48853 0.0
H157 H 0.98862 0.78935 0.58568 0.0
H158 H 0.95084 0.76604 0.64049 0.0
H159 H 0.90878 0.84477 0.57806 0.0
H160 H 0.87853 0.84518 0.66838 0.0
H161 H 0.01909 0.7528 0.41161 0.0
H162 H 0.03683 0.80691 0.56688 0.0
H163 H 0.92173 0.7675 0.73236 0.0
H164 H 0.06939 0.73527 0.41366 0.0
H165 H 0.08684 0.78886 0.56934 0.0
C166 C 0.77007 0.45358 0.2159 0.0
C167 C 0.78886 0.43017 0.22886 0.0
C168 C 0.77419 0.4706 0.16432 0.0
C169 C 0.79679 0.46421 0.12382 0.0
C170 C 0.81574 0.44101 0.13674 0.0
C171 C 0.81194 0.42429 0.18894 0.0
C172 C 0.79942 0.48076 0.06667 0.0
C173 C 0.79894 0.51135 0.06698 0.0
C174 C 0.79928 0.52714 0.01265 0.0
C175 C 0.7996 0.51195 0.95761 0.0
C176 C 0.79993 0.48138 0.9566 0.0
C177 C 0.80036 0.46594 0.01134 0.0
C178 C 0.79737 0.46538 0.89877 0.0
C179 C 0.77517 0.47248 0.85757 0.0
C180 C 0.81565 0.44162 0.88641 0.0
C181 C 0.811 0.42448 0.83522 0.0
C182 C 0.78755 0.43037 0.79613 0.0
C183 C 0.7981 0.55946 0.01314 0.0
C184 C 0.77864 0.57413 0.05146 0.0
C185 C 0.81588 0.57584 0.97421 0.0
C186 C 0.8138 0.60621 0.97274 0.0
C187 C 0.79371 0.62079 0.00975 0.0
C188 C 0.77647 0.60448 0.04976 0.0
C189 C 0.77025 0.45508 0.80682 0.0
H190 H 0.75148 0.45816 0.24435 0.0
H191 H 0.75898 0.48806 0.15485 0.0
H192 H 0.83339 0.43572 0.10624 0.0
H193 H 0.82687 0.4065 0.19766 0.0
H194 H 0.79845 0.52283 0.10968 0.0
H195 H 0.79976 0.44232 0.01088 0.0
H196 H 0.79894 0.5239 0.91544 0.0
H197 H 0.76067 0.49062 0.8662 0.0
H198 H 0.83319 0.43597 0.91701 0.0
H199 H 0.82523 0.40608 0.82719 0.0
H200 H 0.76446 0.56209 0.08153 0.0
H201 H 0.83142 0.56515 0.94492 0.0
H202 H 0.752 0.46014 0.7776 0.0
H203 H 0.76069 0.61516 0.07855 0.0
H204 H 0.82784 0.61829 0.94247 0.0
C205 C 0.06947 0.19991 0.72287 0.0
C206 C 0.09795 0.21106 0.72665 0.0
C207 C 0.05333 0.2029 0.66955 0.0
C208 C 0.06533 0.21729 0.61927 0.0
C209 C 0.09363 0.2288 0.62378 0.0
C210 C 0.10977 0.22553 0.6765 0.0
C211 C 0.04865 0.22072 0.56217 0.0
C212 C 0.01876 0.22718 0.56282 0.0
C213 C 0.00373 0.23273 0.50881 0.0
C214 C 0.01873 0.23177 0.45365 0.0
C215 C 0.04853 0.22496 0.4522 0.0
C216 C 0.06311 0.21901 0.5065 0.0
C217 C 0.06497 0.22452 0.39461 0.0
C218 C 0.05363 0.21065 0.34317 0.0
C219 C 0.09289 0.23703 0.39175 0.0
C220 C 0.10963 0.23469 0.33959 0.0
C221 C 0.09884 0.21982 0.28896 0.0
C222 C 0.97252 0.24047 0.5105 0.0
C223 C 0.95254 0.22233 0.5404 0.0
C224 C 0.96262 0.26627 0.48322 0.0
C225 C 0.9332 0.27394 0.48628 0.0
C226 C 0.91328 0.25567 0.51575 0.0
C227 C 0.92305 0.22974 0.54245 0.0
C228 C 0.07045 0.20831 0.29075 0.0
H229 H 0.0596 0.18907 0.76113 0.0
H230 H 0.03162 0.1937 0.66755 0.0
H231 H 0.10337 0.24061 0.5866 0.0
H232 H 0.13173 0.23419 0.67777 0.0
H233 H 0.00733 0.22908 0.60539 0.0
H234 H 0.08592 0.21294 0.50532 0.0
H235 H 0.00725 0.23657 0.41206 0.0
H236 H 0.03218 0.20082 0.34407 0.0
H237 H 0.10201 0.24833 0.43029 0.0
H238 H 0.13142 0.24375 0.33952 0.0
H239 H 0.95974 0.2023 0.56159 0.0
H240 H 0.97772 0.28066 0.46032 0.0
H241 H 0.06143 0.19718 0.25193 0.0
H242 H 0.90787 0.21537 0.56519 0.0
H243 H 0.92592 0.29396 0.46518 0.0
C244 C 0.69451 0.95392 0.70158 0.0
C245 C 0.71359 0.92999 0.69936 0.0
C246 C 0.68902 0.97045 0.64955 0.0
C247 C 0.7025 0.96328 0.59453 0.0
C248 C 0.72202 0.93968 0.59308 0.0
C249 C 0.72738 0.92321 0.64471 0.0
C250 C 0.69674 0.9802 0.53848 0.0
C251 C 0.69583 0.01084 0.53938 0.0
C252 C 0.6939 0.0268 0.48527 0.0
C253 C 0.69264 0.01183 0.43009 0.0
C254 C 0.6929 0.98131 0.42863 0.0
C255 C 0.69446 0.96568 0.48286 0.0
C256 C 0.69442 0.96561 0.37051 0.0
C257 C 0.71654 0.97236 0.32916 0.0
C258 C 0.67553 0.94229 0.3583 0.0
C259 C 0.67916 0.92554 0.30622 0.0
C260 C 0.70205 0.93151 0.26587 0.0
C261 C 0.69509 0.0591 0.486 0.0
C262 C 0.67826 0.07514 0.52713 0.0
C263 C 0.71354 0.07408 0.446 0.0
C264 C 0.71558 0.10442 0.44794 0.0
C265 C 0.69921 0.12045 0.48984 0.0
C266 C 0.68014 0.10554 0.52874 0.0
C267 C 0.72053 0.9553 0.27773 0.0
H268 H 0.68342 0.95943 0.74311 0.0
H269 H 0.67381 0.98844 0.65209 0.0
H270 H 0.73343 0.934 0.552 0.0
H271 H 0.74251 0.90513 0.64198 0.0
H272 H 0.69823 0.02231 0.5818 0.0
H273 H 0.69509 0.94208 0.48143 0.0
H274 H 0.69152 0.02389 0.3881 0.0
H275 H 0.73169 0.98994 0.33819 0.0
H276 H 0.65828 0.93674 0.38961 0.0
H277 H 0.66447 0.90747 0.29825 0.0
H278 H 0.66356 0.06416 0.55786 0.0
H279 H 0.72701 0.06229 0.41423 0.0
H280 H 0.73896 0.95998 0.24888 0.0
H281 H 0.66676 0.11738 0.56059 0.0
H282 H 0.73062 0.1153 0.41776 0.0
C283 C 0.57714 0.2964 0.22492 0.0
C284 C 0.59655 0.32003 0.2278 0.0
C285 C 0.55924 0.29258 0.1744 0.0
C286 C 0.56055 0.3123 0.12591 0.0
C287 C 0.57854 0.33696 0.13073 0.0
C288 C 0.59622 0.34089 0.18136 0.0
C289 C 0.54527 0.30583 0.06846 0.0
C290 C 0.51613 0.29658 0.06823 0.0
C291 C 0.50225 0.28856 0.01402 0.0
C292 C 0.51811 0.29021 0.95974 0.0
C293 C 0.54716 0.29987 0.95903 0.0
C294 C 0.56053 0.30755 0.01375 0.0
C295 C 0.56387 0.30127 0.90153 0.0
C296 C 0.56071 0.27949 0.85735 0.0
C297 C 0.58363 0.32415 0.89092 0.0
C298 C 0.60046 0.32472 0.83849 0.0
C299 C 0.59784 0.30254 0.79519 0.0
C300 C 0.47139 0.27824 0.01391 0.0
C301 C 0.46008 0.26221 0.06275 0.0
C302 C 0.45296 0.28415 0.96461 0.0
C303 C 0.42435 0.27385 0.96362 0.0
C304 C 0.41304 0.25798 0.01252 0.0
C305 C 0.43117 0.2526 0.06245 0.0
C306 C 0.57735 0.28024 0.8046 0.0
H307 H 0.577 0.28001 0.26011 0.0
H308 H 0.54562 0.27334 0.1718 0.0
H309 H 0.57956 0.35277 0.09448 0.0
H310 H 0.6105 0.35967 0.18316 0.0
H311 H 0.50427 0.29604 0.11041 0.0
H312 H 0.58331 0.31383 0.01417 0.0
H313 H 0.50792 0.28381 0.91777 0.0
H314 H 0.54588 0.26142 0.86405 0.0
H315 H 0.58624 0.34159 0.92334 0.0
H316 H 0.61607 0.3422 0.83254 0.0
H317 H 0.47355 0.25682 0.10128 0.0
H318 H 0.46043 0.297 0.92671 0.0
H319 H 0.57437 0.26319 0.77144 0.0
H320 H 0.423 0.24126 0.10178 0.0
H321 H 0.41107 0.27837 0.92431 0.0
C322 C 0.27414 0.05268 0.29582 0.0
C323 C 0.29007 0.07829 0.28507 0.0
C324 C 0.27916 0.03624 0.34783 0.0
C325 C 0.29999 0.04525 0.39046 0.0
C326 C 0.31653 0.07037 0.37891 0.0
C327 C 0.31171 0.08667 0.3266 0.0
C328 C 0.30321 0.02926 0.44819 0.0
C329 C 0.30402 0.99879 0.4485 0.0
C330 C 0.30418 0.9832 0.50293 0.0
C331 C 0.30448 0.99856 0.55782 0.0
C332 C 0.30344 0.02927 0.5586 0.0
C333 C 0.30302 0.04435 0.50324 0.0
C334 C 0.29991 0.04564 0.61639 0.0
C335 C 0.28257 0.03431 0.66322 0.0
C336 C 0.31193 0.07368 0.62353 0.0
C337 C 0.30528 0.09059 0.67418 0.0
C338 C 0.28669 0.07977 0.71926 0.0
C339 C 0.30165 0.95096 0.50183 0.0
C340 C 0.28171 0.9376 0.46237 0.0
C341 C 0.31863 0.93336 0.54004 0.0
C342 C 0.31569 0.903 0.53868 0.0
C343 C 0.29554 0.88976 0.49947 0.0
C344 C 0.27873 0.90738 0.46114 0.0
C345 C 0.27633 0.05104 0.71423 0.0
H346 H 0.25681 0.04607 0.26557 0.0
H347 H 0.2658 0.01718 0.35599 0.0
H348 H 0.33291 0.07763 0.41078 0.0
H349 H 0.32438 0.10626 0.31933 0.0
H350 H 0.30414 0.98711 0.406 0.0
H351 H 0.30081 0.06785 0.50268 0.0
H352 H 0.30447 0.9865 0.59983 0.0
H353 H 0.2727 0.01296 0.65958 0.0
H354 H 0.32594 0.08293 0.58923 0.0
H355 H 0.3138 0.11256 0.67688 0.0
H356 H 0.26793 0.95057 0.4331 0.0
H357 H 0.33436 0.94305 0.57047 0.0
H358 H 0.26267 0.04172 0.74906 0.0
H359 H 0.26279 0.8978 0.43101 0.0
H360 H 0.32926 0.88987 0.56803 0.0
C361 C 0.42119 0.69954 0.78411 0.0
C362 C 0.39357 0.71267 0.78067 0.0
C363 C 0.43818 0.7024 0.83626 0.0
C364 C 0.42778 0.7184 0.88582 0.0
C365 C 0.4004 0.73197 0.88164 0.0
C366 C 0.3835 0.72911 0.82975 0.0
C367 C 0.44511 0.72105 0.94211 0.0
C368 C 0.47512 0.72682 0.94015 0.0
C369 C 0.49089 0.73151 0.99359 0.0
C370 C 0.47651 0.73012 0.04947 0.0
C371 C 0.44657 0.72391 0.05218 0.0
C372 C 0.43121 0.71908 0.99829 0.0
C373 C 0.43081 0.72322 0.11064 0.0
C374 C 0.44267 0.70916 0.16147 0.0
C375 C 0.40303 0.73588 0.11508 0.0
C376 C 0.38708 0.73381 0.16827 0.0
C377 C 0.39864 0.71945 0.21889 0.0
C378 C 0.52221 0.73889 0.99065 0.0
C379 C 0.54148 0.72139 0.9574 0.0
C380 C 0.53293 0.76375 0.02022 0.0
C381 C 0.56244 0.77102 0.01646 0.0
C382 C 0.58171 0.75326 0.984 0.0
C383 C 0.57107 0.72839 0.95453 0.0
C384 C 0.42664 0.70718 0.21509 0.0
H385 H 0.42965 0.6871 0.74652 0.0
H386 H 0.45918 0.69168 0.8382 0.0
H387 H 0.39199 0.74491 0.91857 0.0
H388 H 0.36226 0.7394 0.82838 0.0
H389 H 0.48601 0.72886 0.897 0.0
H390 H 0.40824 0.71366 1.00005 0.0
H391 H 0.48858 0.73418 0.09067 0.0
H392 H 0.46394 0.69901 0.15926 0.0
H393 H 0.39341 0.74719 0.07705 0.0
H394 H 0.36528 0.74284 0.16915 0.0
H395 H 0.53368 0.7021 0.93432 0.0
H396 H 0.51841 0.77771 0.04562 0.0
H397 H 0.436 0.69587 0.25338 0.0
H398 H 0.58566 0.71447 0.92922 0.0
H399 H 0.57034 0.79025 0.03963 0.0
C400 C 0.15512 0.23478 0.16779 0.0
C401 C 0.16108 0.20685 0.14458 0.0
C402 C 0.13407 0.23895 0.21262 0.0
C403 C 0.11806 0.2154 0.236 0.0
H404 H 0.16725 0.2536 0.15225 0.0
H405 H 0.13073 0.26074 0.23006 0.0
S406 S 0.12424 0.13803 0.18947 0.0
N407 N 0.14816 0.15534 0.14695 0.0
N408 N 0.10892 0.16329 0.23182 0.0
C409 C 0.12294 0.18752 0.21183 0.0
C410 C 0.14436 0.18323 0.166 0.0
C411 C 0.21794 0.64456 0.67274 0.0
C412 C 0.23273 0.63461 0.62109 0.0
C413 C 0.20934 0.62534 0.71814 0.0
C414 C 0.21493 0.59537 0.71358 0.0
H415 H 0.21397 0.6676 0.67949 0.0
H416 H 0.19931 0.63414 0.75844 0.0
S417 S 0.24961 0.55744 0.58498 0.0
N418 N 0.25007 0.59221 0.56561 0.0
N419 N 0.2337 0.55603 0.65173 0.0
C420 C 0.22773 0.5847 0.66058 0.0
C421 C 0.23666 0.60434 0.61406 0.0
C422 C 0.86108 0.81699 0.12026 0.0
C423 C 0.83133 0.81838 0.1354 0.0
C424 C 0.88273 0.81739 0.16526 0.0
C425 C 0.87531 0.81982 0.22665 0.0
H426 H 0.86763 0.81495 0.07353 0.0
H427 H 0.90539 0.81583 0.15201 0.0
S428 S 0.80068 0.82513 0.28987 0.0
N429 N 0.79575 0.8231 0.21628 0.0
N430 N 0.83627 0.8237 0.30012 0.0
C431 C 0.8457 0.8217 0.24215 0.0
C432 C 0.82377 0.82102 0.19672 0.0
C433 C 0.76269 0.40001 0.64449 0.0
C434 C 0.7595 0.37 0.65641 0.0
C435 C 0.7724 0.41937 0.68932 0.0
C436 C 0.77946 0.40946 0.74765 0.0
H437 H 0.75721 0.40875 0.60052 0.0
H438 H 0.77418 0.44231 0.67838 0.0
S439 S 0.77507 0.33318 0.80261 0.0
N440 N 0.76489 0.33141 0.73136 0.0
N441 N 0.78231 0.36784 0.81517 0.0
C442 C 0.77681 0.37954 0.75993 0.0
C443 C 0.76707 0.35983 0.71449 0.0
C444 C 0.63351 0.31779 0.38183 0.0
C445 C 0.66323 0.31947 0.36669 0.0
C446 C 0.61186 0.31831 0.33686 0.0
C447 C 0.61924 0.32115 0.27549 0.0
H448 H 0.62698 0.31531 0.4285 0.0
H449 H 0.58922 0.31639 0.35009 0.0
S450 S 0.69385 0.32771 0.21252 0.0
N451 N 0.69877 0.32522 0.28605 0.0
N452 N 0.65828 0.32597 0.20217 0.0
C453 C 0.64883 0.3235 0.26006 0.0
C454 C 0.67077 0.32273 0.30549 0.0
C455 C 0.28732 0.13609 0.8459 0.0
C456 C 0.2578 0.13766 0.86265 0.0
C457 C 0.29665 0.11699 0.80029 0.0
C458 C 0.27674 0.09899 0.76934 0.0
H459 H 0.30334 0.14964 0.86837 0.0
H460 H 0.31962 0.11632 0.78919 0.0
S461 S 0.19657 0.09715 0.792 0.0
N462 N 0.20851 0.12068 0.84254 0.0
N463 N 0.22583 0.0856 0.75606 0.0
C464 C 0.24709 0.10076 0.78511 0.0
C465 C 0.23768 0.11988 0.83189 0.0
C466 C 0.35539 0.68331 0.34428 0.0
C467 C 0.33742 0.70616 0.36395 0.0
C468 C 0.37651 0.68807 0.29951 0.0
C469 C 0.3804 0.71587 0.27367 0.0
H470 H 0.35194 0.66137 0.36092 0.0
H471 H 0.38868 0.66957 0.28269 0.0
S472 S 0.34234 0.78374 0.31889 0.0
N473 N 0.32706 0.75796 0.36013 0.0
N474 N 0.36737 0.76722 0.27781 0.0
C475 C 0.36408 0.73924 0.29683 0.0
C476 C 0.34239 0.73429 0.3415 0.0
C477 C 0.72446 0.86223 0.79398 0.0
C478 C 0.73572 0.87306 0.8487 0.0
C479 C 0.71634 0.88093 0.74709 0.0
C480 C 0.71895 0.91129 0.75284 0.0
H481 H 0.72255 0.83899 0.78643 0.0
H482 H 0.7085 0.87147 0.70535 0.0
S483 S 0.74514 0.95123 0.88769 0.0
N484 N 0.74742 0.91653 0.90696 0.0
N485 N 0.73214 0.95165 0.8182 0.0
C486 C 0.72884 0.92264 0.80804 0.0
C487 C 0.73723 0.90355 0.85609 0.0
C488 C 0.8513 0.83185 0.83882 0.0
C489 C 0.83493 0.80692 0.85396 0.0
C490 C 0.87209 0.83119 0.79257 0.0
C491 C 0.87752 0.80554 0.7598 0.0
H492 H 0.84745 0.85239 0.8615 0.0
H493 H 0.88369 0.85108 0.7817 0.0
S494 S 0.84204 0.73375 0.78361 0.0
N495 N 0.82699 0.75526 0.83437 0.0
N496 N 0.8656 0.75431 0.74681 0.0
C497 C 0.86218 0.78016 0.77584 0.0
C498 C 0.84103 0.78078 0.82302 0.0
C499 C 0.77605 0.36097 0.31947 0.0
C500 C 0.76587 0.3715 0.37512 0.0
C501 C 0.78425 0.3801 0.27322 0.0
C502 C 0.78295 0.41053 0.28103 0.0
H503 H 0.77638 0.33778 0.31044 0.0
H504 H 0.79052 0.37091 0.23018 0.0
S505 S 0.76183 0.44892 0.42174 0.0
N506 N 0.75721 0.41405 0.43754 0.0
N507 N 0.77373 0.45012 0.35151 0.0
C508 C 0.77431 0.42127 0.33778 0.0
C509 C 0.76551 0.40175 0.38456 0.0
C510 C 0.15318 0.22836 0.84828 0.0
C511 C 0.15758 0.20129 0.87623 0.0
C512 C 0.13247 0.23165 0.80253 0.0
C513 C 0.11591 0.2078 0.782 0.0
H514 H 0.16644 0.24696 0.86079 0.0
H515 H 0.13017 0.25286 0.78156 0.0
S516 S 0.11916 0.13231 0.84195 0.0
N517 N 0.14318 0.15051 0.88277 0.0
N518 N 0.1049 0.15624 0.79468 0.0
C519 C 0.11938 0.18078 0.81134 0.0
C520 C 0.14014 0.17762 0.85892 0.0
C521 C 0.21825 0.65052 0.29751 0.0
C522 C 0.23279 0.64031 0.34927 0.0
C523 C 0.20997 0.63137 0.2514 0.0
C524 C 0.21541 0.60129 0.25588 0.0
H525 H 0.21451 0.67362 0.29111 0.0
H526 H 0.20003 0.64026 0.21103 0.0
S527 S 0.24972 0.56311 0.38496 0.0
N528 N 0.2501 0.59783 0.40446 0.0
N529 N 0.23418 0.56186 0.31777 0.0
C530 C 0.2283 0.59055 0.30882 0.0
C531 C 0.23711 0.61008 0.3555 0.0
C532 C 0.34039 0.73049 0.65514 0.0
C533 C 0.33279 0.70288 0.6324 0.0
C534 C 0.36092 0.7335 0.70144 0.0
C535 C 0.37467 0.70904 0.72691 0.0
H536 H 0.32999 0.75 0.63792 0.0
H537 H 0.36565 0.75515 0.71827 0.0
S538 S 0.36323 0.63193 0.68297 0.0
N539 N 0.34149 0.65057 0.63785 0.0
N540 N 0.37982 0.65636 0.7255 0.0
C541 C 0.36808 0.68138 0.70342 0.0
C542 C 0.3472 0.67827 0.65603 0.0
C543 C 0.71711 0.86142 0.18056 0.0
C544 C 0.72754 0.87143 0.12471 0.0
C545 C 0.70794 0.88099 0.22507 0.0
C546 C 0.70846 0.91131 0.2151 0.0
H547 H 0.71738 0.83836 0.19114 0.0
H548 H 0.70161 0.87228 0.26853 0.0
S549 S 0.72971 0.94812 0.07255 0.0
N550 N 0.73551 0.91318 0.05949 0.0
N551 N 0.71712 0.95007 0.14219 0.0
C552 C 0.71725 0.92144 0.15795 0.0
C553 C 0.72707 0.90149 0.11302 0.0
C554 C 0.64274 0.32918 0.66215 0.0
C555 C 0.65943 0.30455 0.64657 0.0
C556 C 0.62221 0.32808 0.70886 0.0
C557 C 0.61741 0.30231 0.74178 0.0
H558 H 0.64615 0.3498 0.63945 0.0
H559 H 0.61036 0.34776 0.72003 0.0
S560 S 0.65387 0.23115 0.71686 0.0
N561 N 0.66825 0.25297 0.66576 0.0
N562 N 0.63023 0.25126 0.75431 0.0
C563 C 0.63303 0.27721 0.72523 0.0
C564 C 0.65387 0.27824 0.6775 0.0
C565 C 0.26714 0.14671 0.20263 0.0
C566 C 0.26053 0.13686 0.14399 0.0
C567 C 0.27745 0.12773 0.24699 0.0
C568 C 0.2818 0.09804 0.23482 0.0
H569 H 0.26372 0.16924 0.21523 0.0
H570 H 0.28113 0.1363 0.29188 0.0
S571 S 0.27085 0.06147 0.08734 0.0
N572 N 0.26102 0.09558 0.07509 0.0
N573 N 0.28084 0.05987 0.15886 0.0
C574 C 0.27634 0.08793 0.17597 0.0
C575 C 0.26568 0.10733 0.13048 0.0
C576 C 0.21301 0.31123 0.94508 0.0
C577 C 0.21947 0.29677 0.99951 0.0
C578 C 0.20764 0.3413 0.94386 0.0
C579 C 0.20815 0.35798 0.99705 0.0
H580 H 0.21278 0.29941 0.90281 0.0
H581 H 0.20325 0.35162 0.90084 0.0
S582 S 0.22235 0.33054 0.15168 0.0
N583 N 0.22469 0.30138 0.10845 0.0
N584 N 0.21488 0.35786 0.10574 0.0
C585 C 0.21373 0.34373 0.05194 0.0
C586 C 0.21933 0.31316 0.05325 0.0
C587 C 0.15887 0.74343 0.44236 0.0
C588 C 0.1719 0.73215 0.49504 0.0
C589 C 0.12958 0.75197 0.44153 0.0
C590 C 0.11221 0.74978 0.49341 0.0
H591 H 0.17143 0.74601 0.40137 0.0
H592 H 0.12064 0.761 0.4003 0.0
S593 S 0.13467 0.71988 0.6417 0.0
N594 N 0.16433 0.7179 0.59983 0.0
N595 N 0.10929 0.73411 0.59785 0.0
C596 C 0.12457 0.73795 0.54596 0.0
C597 C 0.15438 0.72904 0.54685 0.0
C598 C 0.78382 0.70001 0.05519 0.0
C599 C 0.77855 0.71402 0.99971 0.0
C600 C 0.7892 0.66996 0.05799 0.0
C601 C 0.78985 0.65283 0.00541 0.0
H602 H 0.78305 0.71215 0.09702 0.0
H603 H 0.79268 0.65999 0.10172 0.0
S604 S 0.77882 0.679 0.84868 0.0
N605 N 0.77559 0.70851 0.89063 0.0
N606 N 0.78536 0.65208 0.8962 0.0
C607 C 0.78541 0.66665 0.94956 0.0
C608 C 0.77983 0.6972 0.94665 0.0
C609 C 0.83237 0.25358 0.48439 0.0
C610 C 0.82174 0.27725 0.51817 0.0
C611 C 0.86205 0.24652 0.48451 0.0
C612 C 0.88212 0.26326 0.51737 0.0
H613 H 0.81761 0.24018 0.45816 0.0
H614 H 0.86942 0.22806 0.45821 0.0
S615 S 0.86579 0.3276 0.61215 0.0
N616 N 0.83375 0.31741 0.58536 0.0
N617 N 0.88977 0.30442 0.58418 0.0
C618 C 0.87196 0.28705 0.55094 0.0
C619 C 0.84167 0.29396 0.55177 0.0
C620 C 0.70908 0.19978 0.44444 0.0
C621 C 0.7155 0.21352 0.49962 0.0
C622 C 0.70316 0.16981 0.44179 0.0
C623 C 0.70314 0.1525 0.49424 0.0
H624 H 0.70937 0.21206 0.40271 0.0
H625 H 0.69885 0.16004 0.39823 0.0
S626 S 0.71697 0.17805 0.65038 0.0
N627 N 0.71996 0.20762 0.60847 0.0
N628 N 0.70933 0.15137 0.60309 0.0
C629 C 0.70862 0.1661 0.54987 0.0
C630 C 0.71469 0.19655 0.55264 0.0
C631 C 0.33111 0.25824 0.98714 0.0
C632 C 0.32235 0.23094 0.00919 0.0
C633 C 0.36036 0.26679 0.98903 0.0
C634 C 0.38211 0.2481 0.0118 0.0
H635 H 0.31513 0.27341 0.96948 0.0
H636 H 0.36586 0.28842 0.97312 0.0
S637 S 0.37026 0.17311 0.07032 0.0
N638 N 0.33729 0.18483 0.05289 0.0
N639 N 0.39269 0.20008 0.05351 0.0
C640 C 0.37356 0.22038 0.03289 0.0
C641 C 0.34359 0.212 0.03223 0.0
C642 C 0.2838 0.81278 0.44165 0.0
C643 C 0.27758 0.797 0.49455 0.0
C644 C 0.29035 0.84259 0.44383 0.0
C645 C 0.29118 0.85772 0.49898 0.0
H646 H 0.28286 0.80226 0.39799 0.0
H647 H 0.29447 0.85398 0.40188 0.0
S648 S 0.27828 0.82627 0.65075 0.0
N649 N 0.27421 0.79854 0.60414 0.0
N650 N 0.28609 0.85462 0.60785 0.0
C651 C 0.28591 0.84208 0.55235 0.0
C652 C 0.27917 0.81174 0.5502 0.0
C653 C 0.65253 0.79347 0.95494 0.0
C654 C 0.67328 0.7751 0.98207 0.0
C655 C 0.62279 0.78632 0.95579 0.0
C656 C 0.61307 0.76027 0.98241 0.0
H657 H 0.65924 0.81378 0.93427 0.0
H658 H 0.6073 0.80118 0.9354 0.0
S659 S 0.65873 0.70416 0.05664 0.0
N660 N 0.6821 0.72944 0.0349 0.0
N661 N 0.62629 0.71581 0.03507 0.0
C662 C 0.63363 0.74144 0.00837 0.0
C663 C 0.66375 0.74893 0.00858 0.0
loop_
_geom_bond_atom_site_label_1
_geom_bond_atom_site_label_2
_geom_bond_distance
_geom_bond_site_symmetry_2
_ccdc_geom_bond_type
Fe0 O2 1.935 . S
Fe0 O5 1.997 . S
Fe0 O6 2.002 . S
Fe0 O11 1.976 . S
Fe0 O14 1.996 . S
Fe1 O2 1.901 1_556 S
Fe1 O9 1.997 . S
Fe1 O12 1.996 . S
Fe1 O16 1.976 . S
Fe1 O19 2.002 . S
O2 Fe0 1.935 . S
O2 Fe1 1.901 1_554 S
O2 Fe3 1.918 . S
Fe3 O2 1.918 . S
Fe3 O4 2.008 . S
Fe3 O13 1.982 . S
Fe3 O17 1.990 1_554 S
Fe3 O20 1.991 1_554 S
O4 Fe3 2.008 . S
O4 C21 1.295 . S
O5 Fe0 1.997 . S
O5 C21 1.235 . S
O6 Fe0 2.002 . S
O6 C7 1.295 . S
C7 O6 1.295 . S
C7 O9 1.235 1_554 S
C8 O13 1.287 . S
C8 O14 1.255 . S
O9 Fe1 1.997 . S
O9 C7 1.235 1_556 S
C10 O16 1.287 . S
C10 O17 1.255 . S
O11 Fe0 1.976 . S
O11 C18 1.274 1_554 S
O12 Fe1 1.996 . S
O12 C18 1.267 . S
O13 Fe3 1.982 . S
O13 C8 1.287 . S
O14 Fe0 1.996 . S
O14 C8 1.255 . S
C15 O19 1.295 . S
C15 O20 1.235 . S
O16 Fe1 1.976 . S
O16 C10 1.287 . S
O17 Fe3 1.990 1_556 S
O17 C10 1.255 . S
C18 O11 1.274 1_556 S
C18 O12 1.267 . S
O19 Fe1 2.002 . S
O19 C15 1.295 . S
O20 Fe3 1.991 1_556 S
O20 C15 1.235 . S
C21 O4 1.295 . S
C21 O5 1.235 . S
Fe22 O24 1.918 . S
Fe22 O27 1.997 . S
Fe22 O28 2.002 . S
Fe22 O33 1.976 . S
Fe22 O36 1.996 . S
Fe23 O24 1.918 . S
Fe23 O31 1.997 . S
Fe23 O34 1.996 . S
Fe23 O38 1.976 . S
Fe23 O41 2.002 . S
O24 Fe22 1.918 . S
O24 Fe23 1.918 . S
O24 Fe25 1.918 . S
Fe25 O24 1.918 . S
Fe25 O26 2.002 . S
Fe25 O35 1.976 . S
Fe25 O39 1.996 . S
Fe25 O42 1.997 . S
O26 Fe25 2.002 . S
O26 C43 1.295 . S
O27 Fe22 1.997 . S
O27 C43 1.235 . S
O28 Fe22 2.002 . S
O28 C29 1.295 . S
C29 O28 1.295 . S
C29 O31 1.235 . S
C30 O35 1.287 . S
C30 O36 1.255 . S
O31 Fe23 1.997 . S
O31 C29 1.235 . S
C32 O38 1.287 . S
C32 O39 1.255 . S
O33 Fe22 1.976 . S
O33 C40 1.287 . S
O34 Fe23 1.996 . S
O34 C40 1.255 . S
O35 Fe25 1.976 . S
O35 C30 1.287 . S
O36 Fe22 1.996 . S
O36 C30 1.255 . S
C37 O41 1.295 . S
C37 O42 1.235 . S
O38 Fe23 1.976 . S
O38 C32 1.287 . S
O39 Fe25 1.996 . S
O39 C32 1.255 . S
C40 O33 1.287 . S
C40 O34 1.255 . S
O41 Fe23 2.002 . S
O41 C37 1.295 . S
O42 Fe25 1.997 . S
O42 C37 1.235 . S
C43 O26 1.295 . S
C43 O27 1.235 . S
Fe44 O46 1.907 1_556 S
Fe44 O49 1.997 . S
Fe44 O50 2.002 . S
Fe44 O55 1.976 . S
Fe44 O58 1.996 . S
Fe45 O46 1.930 . S
Fe45 O53 1.997 . S
Fe45 O56 1.996 . S
Fe45 O60 1.976 . S
Fe45 O63 2.002 . S
O46 Fe44 1.907 1_554 S
O46 Fe45 1.930 . S
O46 Fe47 1.918 . S
Fe47 O46 1.918 . S
Fe47 O48 2.002 1_554 S
Fe47 O57 1.976 1_554 S
Fe47 O61 1.996 . S
Fe47 O64 1.997 . S
O48 Fe47 2.002 1_556 S
O48 C65 1.295 . S
O49 Fe44 1.997 . S
O49 C65 1.235 . S
O50 Fe44 2.002 . S
O50 C51 1.311 . S
C51 O50 1.311 . S
C51 O53 1.220 1_556 S
C52 O57 1.287 . S
C52 O58 1.255 . S
O53 Fe45 1.997 . S
O53 C51 1.220 1_554 S
C54 O60 1.287 . S
C54 O61 1.255 . S
O55 Fe44 1.976 . S
O55 C62 1.287 1_556 S
O56 Fe45 1.996 . S
O56 C62 1.255 . S
O57 Fe47 1.976 1_556 S
O57 C52 1.287 . S
O58 Fe44 1.996 . S
O58 C52 1.255 . S
C59 O63 1.295 . S
C59 O64 1.235 . S
O60 Fe45 1.976 . S
O60 C54 1.287 . S
O61 Fe47 1.996 . S
O61 C54 1.255 . S
C62 O55 1.287 1_554 S
C62 O56 1.255 . S
O63 Fe45 2.002 . S
O63 C59 1.295 . S
O64 Fe47 1.997 . S
O64 C59 1.235 . S
C65 O48 1.295 . S
C65 O49 1.235 . S
Fe66 O68 1.918 . S
Fe66 O71 1.997 . S
Fe66 O72 2.002 . S
Fe66 O77 1.976 . S
Fe66 O80 1.996 . S
Fe67 O68 1.918 . S
Fe67 O75 1.997 . S
Fe67 O78 1.996 . S
Fe67 O82 1.976 . S
Fe67 O85 2.002 . S
O68 Fe66 1.918 . S
O68 Fe67 1.918 . S
O68 Fe69 1.918 . S
Fe69 O68 1.918 . S
Fe69 O70 2.002 . S
Fe69 O79 1.976 . S
Fe69 O83 1.996 . S
Fe69 O86 1.997 . S
O70 Fe69 2.002 . S
O70 C87 1.295 . S
O71 Fe66 1.997 . S
O71 C87 1.235 . S
O72 Fe66 2.002 . S
O72 C73 1.295 . S
C73 O72 1.295 . S
C73 O75 1.235 . S
C74 O79 1.287 . S
C74 O80 1.255 . S
O75 Fe67 1.997 . S
O75 C73 1.235 . S
C76 O82 1.287 . S
C76 O83 1.255 . S
O77 Fe66 1.976 . S
O77 C84 1.287 . S
O78 Fe67 1.996 . S
O78 C84 1.255 . S
O79 Fe69 1.976 . S
O79 C74 1.287 . S
O80 Fe66 1.996 . S
O80 C74 1.255 . S
C81 O85 1.295 . S
C81 O86 1.235 . S
O82 Fe67 1.976 . S
O82 C76 1.287 . S
O83 Fe69 1.996 . S
O83 C76 1.255 . S
C84 O77 1.287 . S
C84 O78 1.255 . S
O85 Fe67 2.002 . S
O85 C81 1.295 . S
O86 Fe69 1.997 . S
O86 C81 1.235 . S
C87 O70 1.295 . S
C87 O71 1.235 . S
C88 C89 1.386 . S
C88 C90 1.397 . S
C88 H112 0.931 . S
C89 C88 1.386 . S
C89 C93 1.397 . S
C90 C88 1.397 . S
C90 C91 1.384 . S
C90 H113 0.930 . S
C91 C90 1.384 . S
C91 C92 1.377 . S
C91 C94 1.481 . S
C92 C91 1.377 . S
C92 C93 1.389 . S
C92 H114 0.929 . S
C93 C89 1.397 . S
C93 C92 1.389 . S
C93 H115 0.931 . S
C94 C91 1.481 . S
C94 C95 1.387 . S
C94 C99 1.390 1_556 S
C95 C94 1.387 . S
C95 C96 1.401 1_556 S
C95 H116 0.930 . S
C96 C95 1.401 1_554 S
C96 C97 1.376 . S
C96 C105 1.511 . S
C97 C96 1.376 . S
C97 C98 1.392 . S
C97 H118 0.931 . S
C98 C97 1.392 . S
C98 C99 1.361 . S
C98 C100 1.500 . S
C99 C94 1.390 1_554 S
C99 C98 1.361 . S
C99 H117 0.931 . S
C100 C98 1.500 . S
C100 C101 1.371 . S
C100 C102 1.365 . S
C101 C100 1.371 . S
C101 C111 1.386 . S
C101 H119 0.931 . S
C102 C100 1.365 . S
C102 C103 1.409 . S
C102 H120 0.929 . S
C103 C102 1.409 . S
C103 C104 1.380 . S
C103 H121 0.930 . S
C104 C103 1.380 . S
C104 C111 1.357 . S
C105 C96 1.511 . S
C105 C106 1.341 1_554 S
C105 C107 1.371 . S
C106 C105 1.341 1_556 S
C106 C110 1.394 . S
C106 H122 0.930 . S
C107 C105 1.371 . S
C107 C108 1.392 . S
C107 H123 0.931 . S
C108 C107 1.392 . S
C108 C109 1.331 . S
C108 H126 0.932 . S
C109 C108 1.331 . S
C109 C110 1.336 1_554 S
C110 C106 1.394 . S
C110 C109 1.336 1_556 S
C110 H125 0.929 . S
C111 C101 1.386 . S
C111 C104 1.357 . S
C111 H124 0.928 . S
H112 C88 0.931 . S
H113 C90 0.930 . S
H114 C92 0.929 . S
H115 C93 0.931 . S
H116 C95 0.930 . S
H117 C99 0.931 . S
H118 C97 0.931 . S
H119 C101 0.931 . S
H120 C102 0.929 . S
H121 C103 0.930 . S
H122 C106 0.930 . S
H123 C107 0.931 . S
H124 C111 0.928 . S
H125 C110 0.929 . S
H126 C108 0.932 . S
C127 C128 1.386 . S
C127 C129 1.397 . S
C127 H151 0.931 . S
C128 C127 1.386 . S
C128 C132 1.397 . S
C129 C127 1.397 . S
C129 C130 1.384 . S
C129 H152 0.930 . S
C130 C129 1.384 . S
C130 C131 1.377 . S
C130 C133 1.481 . S
C131 C130 1.377 . S
C131 C132 1.389 . S
C131 H153 0.929 . S
C132 C128 1.397 . S
C132 C131 1.389 . S
C132 H154 0.931 . S
C133 C130 1.481 . S
C133 C134 1.387 . S
C133 C138 1.390 . S
C134 C133 1.387 . S
C134 C135 1.401 1_655 S
C134 H155 0.930 1_655 S
C135 C134 1.401 1_455 S
C135 C136 1.376 1_455 S
C135 C144 1.511 . S
C136 C135 1.376 1_655 S
C136 C137 1.392 . S
C136 H157 0.931 1_655 S
C137 C136 1.392 . S
C137 C138 1.361 . S
C137 C139 1.500 . S
C138 C133 1.390 . S
C138 C137 1.361 . S
C138 H156 0.931 . S
C139 C137 1.500 . S
C139 C140 1.371 . S
C139 C141 1.365 . S
C140 C139 1.371 . S
C140 C150 1.386 . S
C140 H158 0.931 . S
C141 C139 1.365 . S
C141 C142 1.409 . S
C141 H159 0.929 . S
C142 C141 1.409 . S
C142 C143 1.380 . S
C142 H160 0.930 . S
C143 C142 1.380 . S
C143 C150 1.357 . S
C144 C135 1.511 . S
C144 C145 1.341 . S
C144 C146 1.371 . S
C145 C144 1.341 . S
C145 C149 1.394 . S
C145 H161 0.930 . S
C146 C144 1.371 . S
C146 C147 1.392 . S
C146 H162 0.931 . S
C147 C146 1.392 . S
C147 C148 1.331 . S
C147 H165 0.932 . S
C148 C147 1.331 . S
C148 C149 1.336 . S
C149 C145 1.394 . S
C149 C148 1.336 . S
C149 H164 0.929 . S
C150 C140 1.386 . S
C150 C143 1.357 . S
C150 H163 0.928 . S
H151 C127 0.931 . S
H152 C129 0.930 . S
H153 C131 0.929 . S
H154 C132 0.931 . S
H155 C134 0.930 1_455 S
H156 C138 0.931 . S
H157 C136 0.931 1_455 S
H158 C140 0.931 . S
H159 C141 0.929 . S
H160 C142 0.930 . S
H161 C145 0.930 . S
H162 C146 0.931 . S
H163 C150 0.928 . S
H164 C149 0.929 . S
H165 C147 0.932 . S
C166 C167 1.386 . S
C166 C168 1.397 . S
C166 H190 0.931 . S
C167 C166 1.386 . S
C167 C171 1.397 . S
C168 C166 1.397 . S
C168 C169 1.384 . S
C168 H191 0.930 . S
C169 C168 1.384 . S
C169 C170 1.377 . S
C169 C172 1.481 . S
C170 C169 1.377 . S
C170 C171 1.389 . S
C170 H192 0.929 . S
C171 C167 1.397 . S
C171 C170 1.389 . S
C171 H193 0.931 . S
C172 C169 1.481 . S
C172 C173 1.387 . S
C172 C177 1.392 . S
C173 C172 1.387 . S
C173 C174 1.401 1_554 S
C173 H194 0.930 . S
C174 C173 1.401 1_556 S
C174 C175 1.376 . S
C174 C183 1.511 . S
C175 C174 1.376 . S
C175 C176 1.392 . S
C175 H196 0.931 . S
C176 C175 1.392 . S
C176 C177 1.359 1_556 S
C176 C178 1.500 . S
C177 C172 1.392 . S
C177 C176 1.359 1_554 S
C177 H195 0.931 . S
C178 C176 1.500 . S
C178 C179 1.371 . S
C178 C180 1.365 . S
C179 C178 1.371 . S
C179 C189 1.386 . S
C179 H197 0.931 . S
C180 C178 1.365 . S
C180 C181 1.409 . S
C180 H198 0.929 . S
C181 C180 1.409 . S
C181 C182 1.380 . S
C181 H199 0.930 . S
C182 C181 1.380 . S
C182 C189 1.357 . S
C183 C174 1.511 . S
C183 C184 1.326 1_556 S
C183 C185 1.386 . S
C184 C183 1.326 1_554 S
C184 C188 1.394 . S
C184 H200 0.930 . S
C185 C183 1.386 . S
C185 C186 1.392 . S
C185 H201 0.931 . S
C186 C185 1.392 . S
C186 C187 1.324 1_556 S
C186 H204 0.932 . S
C187 C186 1.324 1_554 S
C187 C188 1.343 . S
C188 C184 1.394 . S
C188 C187 1.343 . S
C188 H203 0.929 . S
C189 C179 1.386 . S
C189 C182 1.357 . S
C189 H202 0.928 . S
H190 C166 0.931 . S
H191 C168 0.930 . S
H192 C170 0.929 . S
H193 C171 0.931 . S
H194 C173 0.930 . S
H195 C177 0.931 . S
H196 C175 0.931 . S
H197 C179 0.931 . S
H198 C180 0.929 . S
H199 C181 0.930 . S
H200 C184 0.930 . S
H201 C185 0.931 . S
H202 C189 0.928 . S
H203 C188 0.929 . S
H204 C186 0.932 . S
C205 C206 1.386 . S
C205 C207 1.397 . S
C205 H229 0.931 . S
C206 C205 1.386 . S
C206 C210 1.397 . S
C207 C205 1.397 . S
C207 C208 1.384 . S
C207 H230 0.930 . S
C208 C207 1.384 . S
C208 C209 1.377 . S
C208 C211 1.481 . S
C209 C208 1.377 . S
C209 C210 1.389 . S
C209 H231 0.929 . S
C210 C206 1.397 . S
C210 C209 1.389 . S
C210 H232 0.931 . S
C211 C208 1.481 . S
C211 C212 1.387 . S
C211 C216 1.390 . S
C212 C211 1.387 . S
C212 C213 1.401 1_455 S
C212 H233 0.930 1_455 S
C213 C212 1.401 1_655 S
C213 C214 1.376 1_655 S
C213 C222 1.511 . S
C214 C213 1.376 1_455 S
C214 C215 1.392 . S
C214 H235 0.931 1_455 S
C215 C214 1.392 . S
C215 C216 1.361 . S
C215 C217 1.500 . S
C216 C211 1.390 . S
C216 C215 1.361 . S
C216 H234 0.931 . S
C217 C215 1.500 . S
C217 C218 1.371 . S
C217 C219 1.365 . S
C218 C217 1.371 . S
C218 C228 1.386 . S
C218 H236 0.931 . S
C219 C217 1.365 . S
C219 C220 1.409 . S
C219 H237 0.929 . S
C220 C219 1.409 . S
C220 C221 1.380 . S
C220 H238 0.930 . S
C221 C220 1.380 . S
C221 C228 1.357 . S
C222 C213 1.511 . S
C222 C223 1.341 . S
C222 C224 1.371 . S
C223 C222 1.341 . S
C223 C227 1.394 . S
C223 H239 0.930 . S
C224 C222 1.371 . S
C224 C225 1.392 . S
C224 H240 0.931 . S
C225 C224 1.392 . S
C225 C226 1.331 . S
C225 H243 0.932 . S
C226 C225 1.331 . S
C226 C227 1.336 . S
C227 C223 1.394 . S
C227 C226 1.336 . S
C227 H242 0.929 . S
C228 C218 1.386 . S
C228 C221 1.357 . S
C228 H241 0.928 . S
H229 C205 0.931 . S
H230 C207 0.930 . S
H231 C209 0.929 . S
H232 C210 0.931 . S
H233 C212 0.930 1_655 S
H234 C216 0.931 . S
H235 C214 0.931 1_655 S
H236 C218 0.931 . S
H237 C219 0.929 . S
H238 C220 0.930 . S
H239 C223 0.930 . S
H240 C224 0.931 . S
H241 C228 0.928 . S
H242 C227 0.929 . S
H243 C225 0.932 . S
C244 C245 1.386 . S
C244 C246 1.397 . S
C244 H268 0.931 . S
C245 C244 1.386 . S
C245 C249 1.397 . S
C246 C244 1.397 . S
C246 C247 1.384 . S
C246 H269 0.930 . S
C247 C246 1.384 . S
C247 C248 1.377 . S
C247 C250 1.481 . S
C248 C247 1.377 . S
C248 C249 1.389 . S
C248 H270 0.929 . S
C249 C245 1.397 . S
C249 C248 1.389 . S
C249 H271 0.931 . S
C250 C247 1.481 . S
C250 C251 1.387 1_565 S
C250 C255 1.390 . S
C251 C250 1.387 1_545 S
C251 C252 1.401 . S
C251 H272 0.930 . S
C252 C251 1.401 . S
C252 C253 1.376 . S
C252 C261 1.511 . S
C253 C252 1.376 . S
C253 C254 1.392 1_545 S
C253 H274 0.931 . S
C254 C253 1.392 1_565 S
C254 C255 1.361 . S
C254 C256 1.500 . S
C255 C250 1.390 . S
C255 C254 1.361 . S
C255 H273 0.931 . S
C256 C254 1.500 . S
C256 C257 1.371 . S
C256 C258 1.365 . S
C257 C256 1.371 . S
C257 C267 1.386 . S
C257 H275 0.931 . S
C258 C256 1.365 . S
C258 C259 1.409 . S
C258 H276 0.929 . S
C259 C258 1.409 . S
C259 C260 1.380 . S
C259 H277 0.930 . S
C260 C259 1.380 . S
C260 C267 1.357 . S
C261 C252 1.511 . S
C261 C262 1.341 . S
C261 C263 1.371 . S
C262 C261 1.341 . S
C262 C266 1.394 . S
C262 H278 0.930 . S
C263 C261 1.371 . S
C263 C264 1.392 . S
C263 H279 0.931 . S
C264 C263 1.392 . S
C264 C265 1.331 . S
C264 H282 0.932 . S
C265 C264 1.331 . S
C265 C266 1.336 . S
C266 C262 1.394 . S
C266 C265 1.336 . S
C266 H281 0.929 . S
C267 C257 1.386 . S
C267 C260 1.357 . S
C267 H280 0.928 . S
H268 C244 0.931 . S
H269 C246 0.930 . S
H270 C248 0.929 . S
H271 C249 0.931 . S
H272 C251 0.930 . S
H273 C255 0.931 . S
H274 C253 0.931 . S
H275 C257 0.931 . S
H276 C258 0.929 . S
H277 C259 0.930 . S
H278 C262 0.930 . S
H279 C263 0.931 . S
H280 C267 0.928 . S
H281 C266 0.929 . S
H282 C264 0.932 . S
C283 C284 1.386 . S
C283 C285 1.397 . S
C283 H307 0.931 . S
C284 C283 1.386 . S
C284 C288 1.397 . S
C285 C283 1.397 . S
C285 C286 1.384 . S
C285 H308 0.930 . S
C286 C285 1.384 . S
C286 C287 1.377 . S
C286 C289 1.481 . S
C287 C286 1.377 . S
C287 C288 1.389 . S
C287 H309 0.929 . S
C288 C284 1.397 . S
C288 C287 1.389 . S
C288 H310 0.931 . S
C289 C286 1.481 . S
C289 C290 1.387 . S
C289 C294 1.383 1_554 S
C290 C289 1.387 . S
C290 C291 1.401 1_554 S
C290 H311 0.930 . S
C291 C290 1.401 1_556 S
C291 C292 1.376 . S
C291 C300 1.511 . S
C292 C291 1.376 . S
C292 C293 1.392 . S
C292 H313 0.931 . S
C293 C292 1.392 . S
C293 C294 1.369 . S
C293 C295 1.500 . S
C294 C289 1.383 1_556 S
C294 C293 1.369 . S
C294 H312 0.931 . S
C295 C293 1.500 . S
C295 C296 1.371 . S
C295 C297 1.365 . S
C296 C295 1.371 . S
C296 C306 1.386 . S
C296 H314 0.931 . S
C297 C295 1.365 . S
C297 C298 1.409 . S
C297 H315 0.929 . S
C298 C297 1.409 . S
C298 C299 1.380 . S
C298 H316 0.930 . S
C299 C298 1.380 . S
C299 C306 1.357 . S
C300 C291 1.511 . S
C300 C301 1.341 1_556 S
C300 C302 1.371 . S
C301 C300 1.341 1_554 S
C301 C305 1.394 . S
C301 H317 0.930 . S
C302 C300 1.371 . S
C302 C303 1.392 . S
C302 H318 0.931 . S
C303 C302 1.392 . S
C303 C304 1.331 . S
C303 H321 0.932 . S
C304 C303 1.331 . S
C304 C305 1.336 1_556 S
C305 C301 1.394 . S
C305 C304 1.336 1_554 S
C305 H320 0.929 . S
C306 C296 1.386 . S
C306 C299 1.357 . S
C306 H319 0.928 . S
H307 C283 0.931 . S
H308 C285 0.930 . S
H309 C287 0.929 . S
H310 C288 0.931 . S
H311 C290 0.930 . S
H312 C294 0.931 . S
H313 C292 0.931 . S
H314 C296 0.931 . S
H315 C297 0.929 . S
H316 C298 0.930 . S
H317 C301 0.930 . S
H318 C302 0.931 . S
H319 C306 0.928 . S
H320 C305 0.929 . S
H321 C303 0.932 . S
C322 C323 1.386 . S
C322 C324 1.397 . S
C322 H346 0.931 . S
C323 C322 1.386 . S
C323 C327 1.397 . S
C324 C322 1.397 . S
C324 C325 1.384 . S
C324 H347 0.930 . S
C325 C324 1.384 . S
C325 C326 1.377 . S
C325 C328 1.481 . S
C326 C325 1.377 . S
C326 C327 1.389 . S
C326 H348 0.929 . S
C327 C323 1.397 . S
C327 C326 1.389 . S
C327 H349 0.931 . S
C328 C325 1.481 . S
C328 C329 1.360 1_545 S
C328 C333 1.390 . S
C329 C328 1.360 1_565 S
C329 C330 1.415 . S
C329 H350 0.944 . S
C330 C329 1.415 . S
C330 C331 1.379 . S
C330 C339 1.511 . S
C331 C330 1.379 . S
C331 C332 1.386 1_565 S
C331 H352 0.934 . S
C332 C331 1.386 1_545 S
C332 C333 1.361 . S
C332 C334 1.500 . S
C333 C328 1.390 . S
C333 C332 1.361 . S
C333 H351 0.931 . S
C334 C332 1.500 . S
C334 C335 1.371 . S
C334 C336 1.365 . S
C335 C334 1.371 . S
C335 C345 1.386 . S
C335 H353 0.931 . S
C336 C334 1.365 . S
C336 C337 1.409 . S
C336 H354 0.929 . S
C337 C336 1.409 . S
C337 C338 1.380 . S
C337 H355 0.930 . S
C338 C337 1.380 . S
C338 C345 1.357 . S
C339 C330 1.511 . S
C339 C340 1.341 . S
C339 C341 1.371 . S
C340 C339 1.341 . S
C340 C344 1.394 . S
C340 H356 0.930 . S
C341 C339 1.371 . S
C341 C342 1.392 . S
C341 H357 0.931 . S
C342 C341 1.392 . S
C342 C343 1.331 . S
C342 H360 0.932 . S
C343 C342 1.331 . S
C343 C344 1.336 . S
C344 C340 1.394 . S
C344 C343 1.336 . S
C344 H359 0.929 . S
C345 C335 1.386 . S
C345 C338 1.357 . S
C345 H358 0.928 . S
H346 C322 0.931 . S
H347 C324 0.930 . S
H348 C326 0.929 . S
H349 C327 0.931 . S
H350 C329 0.944 . S
H351 C333 0.931 . S
H352 C331 0.934 . S
H353 C335 0.931 . S
H354 C336 0.929 . S
H355 C337 0.930 . S
H356 C340 0.930 . S
H357 C341 0.931 . S
H358 C345 0.928 . S
H359 C344 0.929 . S
H360 C342 0.932 . S
C361 C362 1.386 . S
C361 C363 1.397 . S
C361 H385 0.931 . S
C362 C361 1.386 . S
C362 C366 1.397 . S
C363 C361 1.397 . S
C363 C364 1.384 . S
C363 H386 0.930 . S
C364 C363 1.384 . S
C364 C365 1.377 . S
C364 C367 1.481 . S
C365 C364 1.377 . S
C365 C366 1.389 . S
C365 H387 0.929 . S
C366 C362 1.397 . S
C366 C365 1.389 . S
C366 H388 0.931 . S
C367 C364 1.481 . S
C367 C368 1.387 . S
C367 C372 1.390 1_556 S
C368 C367 1.387 . S
C368 C369 1.401 1_556 S
C368 H389 0.930 . S
C369 C368 1.401 1_554 S
C369 C370 1.376 . S
C369 C378 1.511 . S
C370 C369 1.376 . S
C370 C371 1.392 . S
C370 H391 0.931 . S
C371 C370 1.392 . S
C371 C372 1.361 . S
C371 C373 1.500 . S
C372 C367 1.390 1_554 S
C372 C371 1.361 . S
C372 H390 0.931 . S
C373 C371 1.500 . S
C373 C374 1.371 . S
C373 C375 1.365 . S
C374 C373 1.371 . S
C374 C384 1.386 . S
C374 H392 0.931 . S
C375 C373 1.365 . S
C375 C376 1.409 . S
C375 H393 0.929 . S
C376 C375 1.409 . S
C376 C377 1.380 . S
C376 H394 0.930 . S
C377 C376 1.380 . S
C377 C384 1.357 . S
C378 C369 1.511 . S
C378 C379 1.341 1_554 S
C378 C380 1.371 . S
C379 C378 1.341 1_556 S
C379 C383 1.394 . S
C379 H395 0.930 . S
C380 C378 1.371 . S
C380 C381 1.392 . S
C380 H396 0.931 . S
C381 C380 1.392 . S
C381 C382 1.331 . S
C381 H399 0.932 . S
C382 C381 1.331 . S
C382 C383 1.336 1_554 S
C383 C379 1.394 . S
C383 C382 1.336 1_556 S
C383 H398 0.929 . S
C384 C374 1.386 . S
C384 C377 1.357 . S
C384 H397 0.928 . S
H385 C361 0.931 . S
H386 C363 0.930 . S
H387 C365 0.929 . S
H388 C366 0.931 . S
H389 C368 0.930 . S
H390 C372 0.931 . S
H391 C370 0.931 . S
H392 C374 0.931 . S
H393 C375 0.929 . S
H394 C376 0.930 . S
H395 C379 0.930 . S
H396 C380 0.931 . S
H397 C384 0.928 . S
H398 C383 0.929 . S
H399 C381 0.932 . S
C400 C401 1.369 . S
C400 C402 1.419 . S
C400 H404 0.930 . S
C401 C400 1.369 . S
C401 C410 1.429 . S
C402 C400 1.419 . S
C402 C403 1.363 . S
C402 H405 0.929 . S
C403 C402 1.363 . S
C403 C409 1.428 . S
H404 C400 0.930 . S
H405 C402 0.929 . S
S406 N407 1.613 . S
S406 N408 1.610 . S
N407 S406 1.613 . S
N407 C410 1.350 . S
N408 S406 1.610 . S
N408 C409 1.351 . S
C409 C403 1.428 . S
C409 N408 1.351 . S
C409 C410 1.434 . S
C410 C401 1.429 . S
C410 N407 1.350 . S
C410 C409 1.434 . S
C411 C412 1.369 . S
C411 C413 1.419 . S
C411 H415 0.930 . S
C412 C411 1.369 . S
C412 C421 1.429 . S
C413 C411 1.419 . S
C413 C414 1.363 . S
C413 H416 0.929 . S
C414 C413 1.363 . S
C414 C420 1.428 . S
H415 C411 0.930 . S
H416 C413 0.929 . S
S417 N418 1.613 . S
S417 N419 1.610 . S
N418 S417 1.613 . S
N418 C421 1.350 . S
N419 S417 1.610 . S
N419 C420 1.351 . S
C420 C414 1.428 . S
C420 N419 1.351 . S
C420 C421 1.434 . S
C421 C412 1.429 . S
C421 N418 1.350 . S
C421 C420 1.434 . S
C422 C423 1.369 . S
C422 C424 1.419 . S
C422 H426 0.930 . S
C423 C422 1.369 . S
C423 C432 1.429 . S
C424 C422 1.419 . S
C424 C425 1.363 . S
C424 H427 0.929 . S
C425 C424 1.363 . S
C425 C431 1.428 . S
H426 C422 0.930 . S
H427 C424 0.929 . S
S428 N429 1.613 . S
S428 N430 1.610 . S
N429 S428 1.613 . S
N429 C432 1.350 . S
N430 S428 1.610 . S
N430 C431 1.351 . S
C431 C425 1.428 . S
C431 N430 1.351 . S
C431 C432 1.434 . S
C432 C423 1.429 . S
C432 N429 1.350 . S
C432 C431 1.434 . S
C433 C434 1.369 . S
C433 C435 1.419 . S
C433 H437 0.930 . S
C434 C433 1.369 . S
C434 C443 1.429 . S
C435 C433 1.419 . S
C435 C436 1.363 . S
C435 H438 0.929 . S
C436 C435 1.363 . S
C436 C442 1.428 . S
H437 C433 0.930 . S
H438 C435 0.929 . S
S439 N440 1.613 . S
S439 N441 1.610 . S
N440 S439 1.613 . S
N440 C443 1.350 . S
N441 S439 1.610 . S
N441 C442 1.351 . S
C442 C436 1.428 . S
C442 N441 1.351 . S
C442 C443 1.434 . S
C443 C434 1.429 . S
C443 N440 1.350 . S
C443 C442 1.434 . S
C444 C445 1.369 . S
C444 C446 1.419 . S
C444 H448 0.930 . S
C445 C444 1.369 . S
C445 C454 1.429 . S
C446 C444 1.419 . S
C446 C447 1.363 . S
C446 H449 0.929 . S
C447 C446 1.363 . S
C447 C453 1.428 . S
H448 C444 0.930 . S
H449 C446 0.929 . S
S450 N451 1.613 . S
S450 N452 1.610 . S
N451 S450 1.613 . S
N451 C454 1.350 . S
N452 S450 1.610 . S
N452 C453 1.351 . S
C453 C447 1.428 . S
C453 N452 1.351 . S
C453 C454 1.434 . S
C454 C445 1.429 . S
C454 N451 1.350 . S
C454 C453 1.434 . S
C455 C456 1.369 . S
C455 C457 1.419 . S
C455 H459 0.930 . S
C456 C455 1.369 . S
C456 C465 1.429 . S
C457 C455 1.419 . S
C457 C458 1.363 . S
C457 H460 0.929 . S
C458 C457 1.363 . S
C458 C464 1.428 . S
H459 C455 0.930 . S
H460 C457 0.929 . S
S461 N462 1.613 . S
S461 N463 1.610 . S
N462 S461 1.613 . S
N462 C465 1.350 . S
N463 S461 1.610 . S
N463 C464 1.351 . S
C464 C458 1.428 . S
C464 N463 1.351 . S
C464 C465 1.434 . S
C465 C456 1.429 . S
C465 N462 1.350 . S
C465 C464 1.434 . S
C466 C467 1.369 . S
C466 C468 1.419 . S
C466 H470 0.930 . S
C467 C466 1.369 . S
C467 C476 1.429 . S
C468 C466 1.419 . S
C468 C469 1.363 . S
C468 H471 0.929 . S
C469 C468 1.363 . S
C469 C475 1.428 . S
H470 C466 0.930 . S
H471 C468 0.929 . S
S472 N473 1.613 . S
S472 N474 1.610 . S
N473 S472 1.613 . S
N473 C476 1.350 . S
N474 S472 1.610 . S
N474 C475 1.351 . S
C475 C469 1.428 . S
C475 N474 1.351 . S
C475 C476 1.434 . S
C476 C467 1.429 . S
C476 N473 1.350 . S
C476 C475 1.434 . S
C477 C478 1.369 . S
C477 C479 1.419 . S
C477 H481 0.930 . S
C478 C477 1.369 . S
C478 C487 1.429 . S
C479 C477 1.419 . S
C479 C480 1.363 . S
C479 H482 0.929 . S
C480 C479 1.363 . S
C480 C486 1.428 . S
H481 C477 0.930 . S
H482 C479 0.929 . S
S483 N484 1.613 . S
S483 N485 1.610 . S
N484 S483 1.613 . S
N484 C487 1.350 . S
N485 S483 1.610 . S
N485 C486 1.351 . S
C486 C480 1.428 . S
C486 N485 1.351 . S
C486 C487 1.434 . S
C487 C478 1.429 . S
C487 N484 1.350 . S
C487 C486 1.434 . S
C488 C489 1.369 . S
C488 C490 1.419 . S
C488 H492 0.930 . S
C489 C488 1.369 . S
C489 C498 1.429 . S
C490 C488 1.419 . S
C490 C491 1.363 . S
C490 H493 0.929 . S
C491 C490 1.363 . S
C491 C497 1.428 . S
H492 C488 0.930 . S
H493 C490 0.929 . S
S494 N495 1.613 . S
S494 N496 1.610 . S
N495 S494 1.613 . S
N495 C498 1.350 . S
N496 S494 1.610 . S
N496 C497 1.351 . S
C497 C491 1.428 . S
C497 N496 1.351 . S
C497 C498 1.434 . S
C498 C489 1.429 . S
C498 N495 1.350 . S
C498 C497 1.434 . S
C499 C500 1.369 . S
C499 C501 1.419 . S
C499 H503 0.930 . S
C500 C499 1.369 . S
C500 C509 1.429 . S
C501 C499 1.419 . S
C501 C502 1.363 . S
C501 H504 0.929 . S
C502 C501 1.363 . S
C502 C508 1.428 . S
H503 C499 0.930 . S
H504 C501 0.929 . S
S505 N506 1.613 . S
S505 N507 1.610 . S
N506 S505 1.613 . S
N506 C509 1.350 . S
N507 S505 1.610 . S
N507 C508 1.351 . S
C508 C502 1.428 . S
C508 N507 1.351 . S
C508 C509 1.434 . S
C509 C500 1.429 . S
C509 N506 1.350 . S
C509 C508 1.434 . S
C510 C511 1.369 . S
C510 C512 1.419 . S
C510 H514 0.930 . S
C511 C510 1.369 . S
C511 C520 1.429 . S
C512 C510 1.419 . S
C512 C513 1.363 . S
C512 H515 0.929 . S
C513 C512 1.363 . S
C513 C519 1.428 . S
H514 C510 0.930 . S
H515 C512 0.929 . S
S516 N517 1.613 . S
S516 N518 1.610 . S
N517 S516 1.613 . S
N517 C520 1.350 . S
N518 S516 1.610 . S
N518 C519 1.351 . S
C519 C513 1.428 . S
C519 N518 1.351 . S
C519 C520 1.434 . S
C520 C511 1.429 . S
C520 N517 1.350 . S
C520 C519 1.434 . S
C521 C522 1.369 . S
C521 C523 1.419 . S
C521 H525 0.930 . S
C522 C521 1.369 . S
C522 C531 1.429 . S
C523 C521 1.419 . S
C523 C524 1.363 . S
C523 H526 0.929 . S
C524 C523 1.363 . S
C524 C530 1.428 . S
H525 C521 0.930 . S
H526 C523 0.929 . S
S527 N528 1.613 . S
S527 N529 1.610 . S
N528 S527 1.613 . S
N528 C531 1.350 . S
N529 S527 1.610 . S
N529 C530 1.351 . S
C530 C524 1.428 . S
C530 N529 1.351 . S
C530 C531 1.434 . S
C531 C522 1.429 . S
C531 N528 1.350 . S
C531 C530 1.434 . S
C532 C533 1.369 . S
C532 C534 1.419 . S
C532 H536 0.930 . S
C533 C532 1.369 . S
C533 C542 1.429 . S
C534 C532 1.419 . S
C534 C535 1.363 . S
C534 H537 0.929 . S
C535 C534 1.363 . S
C535 C541 1.428 . S
H536 C532 0.930 . S
H537 C534 0.929 . S
S538 N539 1.613 . S
S538 N540 1.610 . S
N539 S538 1.613 . S
N539 C542 1.350 . S
N540 S538 1.610 . S
N540 C541 1.351 . S
C541 C535 1.428 . S
C541 N540 1.351 . S
C541 C542 1.434 . S
C542 C533 1.429 . S
C542 N539 1.350 . S
C542 C541 1.434 . S
C543 C544 1.369 . S
C543 C545 1.419 . S
C543 H547 0.930 . S
C544 C543 1.369 . S
C544 C553 1.429 . S
C545 C543 1.419 . S
C545 C546 1.363 . S
C545 H548 0.929 . S
C546 C545 1.363 . S
C546 C552 1.428 . S
H547 C543 0.930 . S
H548 C545 0.929 . S
S549 N550 1.613 . S
S549 N551 1.610 . S
N550 S549 1.613 . S
N550 C553 1.350 . S
N551 S549 1.610 . S
N551 C552 1.351 . S
C552 C546 1.428 . S
C552 N551 1.351 . S
C552 C553 1.434 . S
C553 C544 1.429 . S
C553 N550 1.350 . S
C553 C552 1.434 . S
C554 C555 1.369 . S
C554 C556 1.419 . S
C554 H558 0.930 . S
C555 C554 1.369 . S
C555 C564 1.429 . S
C556 C554 1.419 . S
C556 C557 1.363 . S
C556 H559 0.929 . S
C557 C556 1.363 . S
C557 C563 1.428 . S
H558 C554 0.930 . S
H559 C556 0.929 . S
S560 N561 1.613 . S
S560 N562 1.610 . S
N561 S560 1.613 . S
N561 C564 1.350 . S
N562 S560 1.610 . S
N562 C563 1.351 . S
C563 C557 1.428 . S
C563 N562 1.351 . S
C563 C564 1.434 . S
C564 C555 1.429 . S
C564 N561 1.350 . S
C564 C563 1.434 . S
C565 C566 1.369 . S
C565 C567 1.419 . S
C565 H569 0.930 . S
C566 C565 1.369 . S
C566 C575 1.429 . S
C567 C565 1.419 . S
C567 C568 1.363 . S
C567 H570 0.929 . S
C568 C567 1.363 . S
C568 C574 1.428 . S
H569 C565 0.930 . S
H570 C567 0.929 . S
S571 N572 1.613 . S
S571 N573 1.610 . S
N572 S571 1.613 . S
N572 C575 1.350 . S
N573 S571 1.610 . S
N573 C574 1.351 . S
C574 C568 1.428 . S
C574 N573 1.351 . S
C574 C575 1.434 . S
C575 C566 1.429 . S
C575 N572 1.350 . S
C575 C574 1.434 . S
C576 C577 1.369 1_556 S
C576 C578 1.419 . S
C576 H580 0.930 . S
C577 C576 1.369 1_554 S
C577 C586 1.429 . S
C578 C576 1.419 . S
C578 C579 1.363 1_556 S
C578 H581 0.929 . S
C579 C578 1.363 1_554 S
C579 C585 1.428 . S
H580 C576 0.930 . S
H581 C578 0.929 . S
S582 N583 1.613 . S
S582 N584 1.610 . S
N583 S582 1.613 . S
N583 C586 1.350 . S
N584 S582 1.610 . S
N584 C585 1.351 . S
C585 C579 1.428 . S
C585 N584 1.351 . S
C585 C586 1.434 . S
C586 C577 1.429 . S
C586 N583 1.350 . S
C586 C585 1.434 . S
C587 C588 1.369 . S
C587 C589 1.419 . S
C587 H591 0.930 . S
C588 C587 1.369 . S
C588 C597 1.429 . S
C589 C587 1.419 . S
C589 C590 1.363 . S
C589 H592 0.929 . S
C590 C589 1.363 . S
C590 C596 1.428 . S
H591 C587 0.930 . S
H592 C589 0.929 . S
S593 N594 1.613 . S
S593 N595 1.610 . S
N594 S593 1.613 . S
N594 C597 1.350 . S
N595 S593 1.610 . S
N595 C596 1.351 . S
C596 C590 1.428 . S
C596 N595 1.351 . S
C596 C597 1.434 . S
C597 C588 1.429 . S
C597 N594 1.350 . S
C597 C596 1.434 . S
C598 C599 1.369 . S
C598 C600 1.419 . S
C598 H602 0.930 . S
C599 C598 1.369 . S
C599 C608 1.429 1_554 S
C600 C598 1.419 . S
C600 C601 1.363 . S
C600 H603 0.929 . S
C601 C600 1.363 . S
C601 C607 1.428 1_554 S
H602 C598 0.930 . S
H603 C600 0.929 . S
S604 N605 1.613 . S
S604 N606 1.610 . S
N605 S604 1.613 . S
N605 C608 1.350 . S
N606 S604 1.610 . S
N606 C607 1.351 . S
C607 C601 1.428 1_556 S
C607 N606 1.351 . S
C607 C608 1.434 . S
C608 C599 1.429 1_556 S
C608 N605 1.350 . S
C608 C607 1.434 . S
C609 C610 1.369 . S
C609 C611 1.419 . S
C609 H613 0.930 . S
C610 C609 1.369 . S
C610 C619 1.429 . S
C611 C609 1.419 . S
C611 C612 1.363 . S
C611 H614 0.929 . S
C612 C611 1.363 . S
C612 C618 1.428 . S
H613 C609 0.930 . S
H614 C611 0.929 . S
S615 N616 1.613 . S
S615 N617 1.610 . S
N616 S615 1.613 . S
N616 C619 1.350 . S
N617 S615 1.610 . S
N617 C618 1.351 . S
C618 C612 1.428 . S
C618 N617 1.351 . S
C618 C619 1.434 . S
C619 C610 1.429 . S
C619 N616 1.350 . S
C619 C618 1.434 . S
C620 C621 1.369 . S
C620 C622 1.419 . S
C620 H624 0.930 . S
C621 C620 1.369 . S
C621 C630 1.429 . S
C622 C620 1.419 . S
C622 C623 1.363 . S
C622 H625 0.929 . S
C623 C622 1.363 . S
C623 C629 1.428 . S
H624 C620 0.930 . S
H625 C622 0.929 . S
S626 N627 1.613 . S
S626 N628 1.610 . S
N627 S626 1.613 . S
N627 C630 1.350 . S
N628 S626 1.610 . S
N628 C629 1.351 . S
C629 C623 1.428 . S
C629 N628 1.351 . S
C629 C630 1.434 . S
C630 C621 1.429 . S
C630 N627 1.350 . S
C630 C629 1.434 . S
C631 C632 1.367 1_556 S
C631 C633 1.419 . S
C631 H635 0.930 . S
C632 C631 1.367 1_554 S
C632 C641 1.431 . S
C633 C631 1.419 . S
C633 C634 1.363 1_556 S
C633 H636 0.929 . S
C634 C633 1.363 1_554 S
C634 C640 1.428 . S
H635 C631 0.930 . S
H636 C633 0.929 . S
S637 N638 1.613 . S
S637 N639 1.610 . S
N638 S637 1.613 . S
N638 C641 1.350 . S
N639 S637 1.610 . S
N639 C640 1.351 . S
C640 C634 1.428 . S
C640 N639 1.351 . S
C640 C641 1.434 . S
C641 C632 1.431 . S
C641 N638 1.350 . S
C641 C640 1.434 . S
C642 C643 1.369 . S
C642 C644 1.419 . S
C642 H646 0.930 . S
C643 C642 1.369 . S
C643 C652 1.429 . S
C644 C642 1.419 . S
C644 C645 1.363 . S
C644 H647 0.929 . S
C645 C644 1.363 . S
C645 C651 1.428 . S
H646 C642 0.930 . S
H647 C644 0.929 . S
S648 N649 1.613 . S
S648 N650 1.610 . S
N649 S648 1.613 . S
N649 C652 1.350 . S
N650 S648 1.610 . S
N650 C651 1.351 . S
C651 C645 1.428 . S
C651 N650 1.351 . S
C651 C652 1.434 . S
C652 C643 1.429 . S
C652 N649 1.350 . S
C652 C651 1.434 . S
C653 C654 1.362 1_554 S
C653 C655 1.419 . S
C653 H657 0.930 . S
C654 C653 1.362 1_556 S
C654 C663 1.436 . S
C655 C653 1.419 . S
C655 C656 1.362 . S
C655 H658 0.929 . S
C656 C655 1.362 . S
C656 C662 1.430 1_554 S
H657 C653 0.930 . S
H658 C655 0.929 . S
S659 N660 1.613 . S
S659 N661 1.610 . S
N660 S659 1.613 . S
N660 C663 1.350 . S
N661 S659 1.610 . S
N661 C662 1.351 . S
C662 C656 1.430 1_556 S
C662 N661 1.351 . S
C662 C663 1.434 . S
C663 C654 1.436 . S
C663 N660 1.350 . S
C663 C662 1.434 . S
C401 C21 1.663 . S
C403 C221 1.639 . S
C412 C40 1.815 . S
C414 C89 1.729 . S
C425 C128 1.604 . S
C423 C54 1.651 . S
C434 C73 1.856 . S
C436 C182 1.754 . S
C447 C284 1.604 . S
C445 C74 1.651 . S
C458 C338 1.720 . S
C456 C10 1.816 . S
C469 C377 1.632 . S
C467 C37 1.667 . S
C480 C245 1.758 . S
C478 C65 1.858 . S
C489 C52 1.664 . S
C491 C143 1.607 . S
C500 C87 1.854 . S
C502 C167 1.748 . S
C511 C15 1.673 . S
C513 C206 1.649 . S
C524 C104 1.711 . S
C522 C32 1.810 . S
C533 C29 1.675 . S
C535 C362 1.644 . S
C546 C260 1.753 . S
C544 C59 1.852 . S
C557 C299 1.606 . S
C555 C84 1.663 . S
C566 C8 1.809 . S
C568 C323 1.715 . S
C579 C109 1.815 . S
C577 C7 1.900 . S
C590 C148 1.665 . S
C588 C30 1.708 . S
C599 C62 1.910 . S
C601 C187 1.806 . S
C610 C81 1.675 . S
C612 C226 1.681 . S
C623 C265 1.831 . S
C621 C76 1.909 . S
C632 C18 1.707 1_554 S
C634 C304 1.666 1_554 S
C643 C43 1.901 . S
C645 C343 1.790 . S
C654 C51 1.671 . S
C656 C382 1.684 . S
