# Generated by pormake.
# Topology zzz, (3,6)-cn, num edge types: 1
# Building blocks:
#     Node 0, Type 0, BuildingBlock: ESEHIV_clean_linker_0, # of connection points: 3
#     Node 1, Type 0, BuildingBlock: ESEHIV_clean_linker_0, # of connection points: 3
#     Node 2, Type 0, BuildingBlock: ESEHIV_clean_linker_0, # of connection points: 3
#     Node 3, Type 0, BuildingBlock: ESEHIV_clean_linker_0, # of connection points: 3
#     Node 4, Type 0, BuildingBlock: ESEHIV_clean_linker_0, # of connection points: 3
#     Node 5, Type 0, BuildingBlock: ESEHIV_clean_linker_0, # of connection points: 3
#     Node 6, Type 0, BuildingBlock: ESEHIV_clean_linker_0, # of connection points: 3
#     Node 7, Type 0, BuildingBlock: ESEHIV_clean_linker_0, # of connection points: 3
#     Node 8, Type 1, BuildingBlock: FUNLAD_clean_sbu_0, # of connection points: 6
#     Node 9, Type 1, BuildingBlock: FUNLAD_clean_sbu_0, # of connection points: 6
#     Node 10, Type 1, BuildingBlock: FUNLAD_clean_sbu_0, # of connection points: 6
#     Node 11, Type 1, BuildingBlock: FUNLAD_clean_sbu_0, # of connection points: 6
#     Edge 12, Type (0, 1), BuildingBlock: CIFDUS_clean_linker_0, # of connection points: 2
#     Edge 13, Type (0, 1), BuildingBlock: CIFDUS_clean_linker_0, # of connection points: 2
#     Edge 14, Type (0, 1), BuildingBlock: CIFDUS_clean_linker_0, # of connection points: 2
#     Edge 15, Type (0, 1), BuildingBlock: CIFDUS_clean_linker_0, # of connection points: 2
#     Edge 16, Type (0, 1), BuildingBlock: CIFDUS_clean_linker_0, # of connection points: 2
#     Edge 17, Type (0, 1), BuildingBlock: CIFDUS_clean_linker_0, # of connection points: 2
#     Edge 18, Type (0, 1), BuildingBlock: CIFDUS_clean_linker_0, # of connection points: 2
#     Edge 19, Type (0, 1), BuildingBlock: CIFDUS_clean_linker_0, # of connection points: 2
#     Edge 20, Type (0, 1), BuildingBlock: CIFDUS_clean_linker_0, # of connection points: 2
#     Edge 21, Type (0, 1), BuildingBlock: CIFDUS_clean_linker_0, # of connection points: 2
#     Edge 22, Type (0, 1), BuildingBlock: CIFDUS_clean_linker_0, # of connection points: 2
#     Edge 23, Type (0, 1), BuildingBlock: CIFDUS_clean_linker_0, # of connection points: 2
#     Edge 24, Type (0, 1), BuildingBlock: CIFDUS_clean_linker_0, # of connection points: 2
#     Edge 25, Type (0, 1), BuildingBlock: CIFDUS_clean_linker_0, # of connection points: 2
#     Edge 26, Type (0, 1), BuildingBlock: CIFDUS_clean_linker_0, # of connection points: 2
#     Edge 27, Type (0, 1), BuildingBlock: CIFDUS_clean_linker_0, # of connection points: 2
#     Edge 28, Type (0, 1), BuildingBlock: CIFDUS_clean_linker_0, # of connection points: 2
#     Edge 29, Type (0, 1), BuildingBlock: CIFDUS_clean_linker_0, # of connection points: 2
#     Edge 30, Type (0, 1), BuildingBlock: CIFDUS_clean_linker_0, # of connection points: 2
#     Edge 31, Type (0, 1), BuildingBlock: CIFDUS_clean_linker_0, # of connection points: 2
#     Edge 32, Type (0, 1), BuildingBlock: CIFDUS_clean_linker_0, # of connection points: 2
#     Edge 33, Type (0, 1), BuildingBlock: CIFDUS_clean_linker_0, # of connection points: 2
#     Edge 34, Type (0, 1), BuildingBlock: CIFDUS_clean_linker_0, # of connection points: 2
#     Edge 35, Type (0, 1), BuildingBlock: CIFDUS_clean_linker_0, # of connection points: 2
# Relax obj value: 0.261
# Max RMSD: 0.242
# Mean RMSD: 0.194
data_MOF--net-zzz--node1-FUNLAD_clean_sbu_0--node2-ESEHIV_clean_linker_0--edge1-CIFDUS_clean_linker_0
_symmetry_space_group_name_H-M    P1
_symmetry_Int_Tables_number       1
_symmetry_cell_setting            triclinic
loop_
_symmetry_equiv_pos_as_xyz
'x, y, z'
_cell_length_a     38.76022
_cell_length_b     44.747914
_cell_length_c     15.450687
_cell_angle_alpha  85.165021
_cell_angle_beta   84.822402
_cell_angle_gamma 92.536711
loop_
_atom_site_label
_atom_site_type_symbol
_atom_site_fract_x
_atom_site_fract_y
_atom_site_fract_z
_atom_type_partial_charge
H0 H 0.87917 0.43754 0.37262 0.0
H1 H 0.82664 0.42838 0.14353 0.0
H2 H 0.76799 0.44069 0.38786 0.0
C3 C 0.85513 0.4356 0.34192 0.0
C4 C 0.82363 0.43891 0.3909 0.0
C5 C 0.85658 0.4328 0.25267 0.0
C6 C 0.8256 0.43001 0.21335 0.0
C7 C 0.79331 0.43207 0.26159 0.0
C8 C 0.79241 0.43751 0.35071 0.0
H9 H 0.96827 0.84043 0.20817 0.0
H10 H 0.99105 0.76703 0.05458 0.0
H11 H 0.93114 0.75052 0.30409 0.0
C12 C 0.96591 0.81666 0.19942 0.0
C13 C 0.94727 0.79697 0.26448 0.0
C14 C 0.98209 0.80614 0.12405 0.0
C15 C 0.97871 0.77552 0.11275 0.0
C16 C 0.9602 0.75552 0.17703 0.0
C17 C 0.94485 0.76609 0.25372 0.0
H18 H 0.68994 0.0136 0.19864 0.0
H19 H 0.77599 0.00665 0.00805 0.0
H20 H 0.79082 -0.00331 0.28231 0.0
C21 C 0.71751 0.01136 0.18275 0.0
C22 C 0.73874 0.00617 0.25046 0.0
C23 C 0.73058 0.01121 0.09563 0.0
C24 C 0.76584 0.00701 0.07573 0.0
C25 C 0.78795 0.00201 0.14204 0.0
C26 C 0.77434 0.00151 0.2304 0.0
H27 H 0.56841 0.62428 0.26795 0.0
H28 H 0.56381 0.71721 0.31729 0.0
H29 H 0.55198 0.68927 0.05939 0.0
C30 C 0.56649 0.64763 0.2442 0.0
C31 C 0.55991 0.65447 0.15794 0.0
C32 C 0.56828 0.66996 0.30192 0.0
C33 C 0.5635 0.7 0.27206 0.0
C34 C 0.55766 0.70741 0.18378 0.0
C35 C 0.55592 0.68426 0.12753 0.0
H36 H 0.17056 0.572 0.12805 0.0
H37 H 0.22719 0.56341 0.35318 0.0
H38 H 0.26508 0.52523 0.11813 0.0
C39 C 0.19321 0.56481 0.15877 0.0
C40 C 0.21703 0.54761 0.11358 0.0
C41 C 0.19632 0.57033 0.24557 0.0
C42 C 0.22568 0.56074 0.28465 0.0
C43 C 0.25171 0.5456 0.23899 0.0
C44 C 0.24653 0.53819 0.15355 0.0
H45 H 0.08878 0.17062 0.31367 0.0
H46 H 0.06442 0.24559 0.45917 0.0
H47 H 0.12892 0.25946 0.21541 0.0
C48 C 0.09128 0.1945 0.32083 0.0
C49 C 0.1112 0.21349 0.25641 0.0
C50 C 0.07419 0.20581 0.39373 0.0
C51 C 0.07749 0.23657 0.40275 0.0
C52 C 0.09734 0.25593 0.33904 0.0
C53 C 0.11416 0.24445 0.26544 0.0
H54 H 0.35285 0.974 0.247 0.0
H55 H 0.26671 0.97336 0.44094 0.0
H56 H 0.25298 -0.0013 0.1707 0.0
C57 C 0.32539 0.97647 0.26383 0.0
C58 C 0.30451 0.98561 0.19797 0.0
C59 C 0.3121 0.97234 0.35119 0.0
C60 C 0.27707 0.97679 0.37303 0.0
C61 C 0.25542 0.98654 0.30923 0.0
C62 C 0.2692 0.99092 0.22063 0.0
H63 H 0.48264 0.34752 0.21761 0.0
H64 H 0.49505 0.25574 0.16154 0.0
H65 H 0.51087 0.28363 0.41677 0.0
C66 C 0.48711 0.32442 0.23923 0.0
C67 C 0.49631 0.31788 0.32355 0.0
C68 C 0.48648 0.30239 0.1801 0.0
C69 C 0.49458 0.27282 0.20728 0.0
C70 C 0.50326 0.26584 0.29339 0.0
C71 C 0.5042 0.28865 0.35061 0.0
C72 C 0.04997 0.95452 0.84935 0.0
N73 N 0.98786 0.9652 0.64617 0.0
C74 C 1.00466 0.94123 0.61833 0.0
C75 C 0.98703 0.91891 0.58001 0.0
C76 C 0.95162 0.9211 0.56963 0.0
C77 C 0.93491 0.94641 0.59677 0.0
C78 C 0.95363 0.96829 0.63584 0.0
Zn79 Zn 0.01589 0.99317 0.71421 0.0
C80 C 0.97427 0.00768 0.88055 0.0
N81 N 0.07617 0.04522 0.86856 0.0
C82 C 0.07555 0.04064 0.95678 0.0
C83 C 0.09525 0.06865 0.82293 0.0
C84 C 0.11357 0.08933 0.86635 0.0
C85 C 0.11244 0.08576 0.95757 0.0
C86 C 0.09369 0.0607 0.00282 0.0
Zn87 Zn 0.04679 0.01811 0.80135 0.0
O88 O 0.0319 0.95501 0.78488 0.0
C89 C 0.08886 0.00486 0.63536 0.0
O90 O 0.06135 0.97916 0.87397 0.0
H91 H 0.09556 0.0718 0.7527 0.0
H92 H 0.03179 0.93906 0.62736 0.0
H93 H 0.06017 0.02191 0.99166 0.0
O94 O 0.06027 0.99275 0.61803 0.0
O95 O 0.09015 0.01594 0.70815 0.0
H96 H 0.94074 0.98742 0.65919 0.0
O97 O 0.03142 0.05627 0.72933 0.0
O98 O 1.00002 0.03194 0.64408 0.0
O99 O 1.00301 0.02062 0.89335 0.0
O100 O 0.97218 0.99421 0.81154 0.0
C101 C 1.01212 0.05662 0.66711 0.0
H102 H 1.00119 0.90023 0.55773 0.0
H103 H 0.90768 0.949 0.58905 0.0
H104 H 0.12782 0.10828 0.82917 0.0
H105 H 0.0917 0.05741 0.07339 0.0
C106 C 0.4766 0.96079 0.61195 0.0
N107 N 0.51208 0.04843 0.64129 0.0
C108 C 0.47984 0.05742 0.6269 0.0
C109 C 0.47576 0.08407 0.5755 0.0
C110 C 0.50514 0.10149 0.53667 0.0
C111 C 0.53807 0.0918 0.5542 0.0
C112 C 0.54093 0.06539 0.6075 0.0
Zn113 Zn 0.51773 0.00647 0.7023 0.0
C114 C 0.46256 0.98548 0.83914 0.0
N115 N 0.52982 0.91632 0.80357 0.0
C116 C 0.53214 0.89143 0.75892 0.0
C117 C 0.52943 0.91428 0.89212 0.0
C118 C 0.5311 0.8865 0.93937 0.0
C119 C 0.53278 0.86038 0.89538 0.0
C120 C 0.53351 0.86307 0.80384 0.0
Zn121 Zn 0.5245 0.95807 0.74188 0.0
O122 O 0.48506 0.98828 0.61708 0.0
C123 C 0.57951 0.97725 0.60595 0.0
O124 O 0.49028 0.94052 0.65795 0.0
H125 H 0.52711 0.93422 0.92669 0.0
H126 H 0.45718 0.04354 0.65349 0.0
H127 H 0.5324 0.89353 0.68861 0.0
O128 O 0.56376 0.00146 0.61343 0.0
O129 O 0.56754 0.95341 0.65129 0.0
H130 H 0.56637 0.05797 0.61946 0.0
O131 O 0.55908 0.9767 0.82324 0.0
O132 O 0.55008 0.02425 0.78916 0.0
O133 O 0.48086 0.9628 0.83151 0.0
O134 O 0.47209 0.00987 0.79288 0.0
C135 C 0.56581 0.00434 0.83119 0.0
H136 H 0.44977 0.09074 0.56604 0.0
H137 H 0.56163 0.10392 0.52519 0.0
H138 H 0.53001 0.88538 0.00987 0.0
H139 H 0.53505 0.84345 0.76743 0.0
C140 C 0.54167 0.44835 0.61814 0.0
N141 N 0.45513 0.50031 0.65884 0.0
C142 C 0.45995 0.50218 0.56996 0.0
C143 C 0.43265 0.50859 0.51952 0.0
C144 C 0.40011 0.51403 0.56036 0.0
C145 C 0.39565 0.51221 0.65208 0.0
C146 C 0.42359 0.50499 0.7004 0.0
Zn147 Zn 0.49849 0.49176 0.72452 0.0
C148 C 0.49312 0.4366 0.83962 0.0
N149 N 0.59528 0.47368 0.82662 0.0
C150 C 0.602 0.44543 0.85848 0.0
C151 C 0.61323 0.49805 0.85034 0.0
C152 C 0.63782 0.49467 0.91077 0.0
C153 C 0.64385 0.46594 0.94898 0.0
C154 C 0.62609 0.44105 0.92016 0.0
Zn155 Zn 0.55176 0.48117 0.76092 0.0
O156 O 0.51413 0.46238 0.63089 0.0
C157 C 0.55687 0.53638 0.64539 0.0
O158 O 0.56643 0.45242 0.66517 0.0
H159 H 0.60731 0.52039 0.82572 0.0
H160 H 0.48528 0.49929 0.53741 0.0
H161 H 0.58741 0.42627 0.83961 0.0
O162 O 0.52459 0.52932 0.65048 0.0
O163 O 0.57699 0.519 0.6835 0.0
H164 H 0.42021 0.5036 0.77091 0.0
O165 O 0.53622 0.50983 0.85581 0.0
O166 O 0.48438 0.52083 0.82043 0.0
O167 O 0.52538 0.44374 0.83465 0.0
O168 O 0.4729 0.45392 0.80151 0.0
C169 C 0.50903 0.52432 0.86821 0.0
H170 H 0.4373 0.51035 0.44902 0.0
H171 H 0.37087 0.51642 0.68589 0.0
H172 H 0.65137 0.51457 0.9287 0.0
H173 H 0.62947 0.41844 0.9477 0.0
C174 C 0.03961 0.55067 0.57756 0.0
N175 N 0.04361 0.45805 0.62177 0.0
C176 C 0.03258 0.45865 0.54049 0.0
C177 C 0.03993 0.43563 0.48774 0.0
C178 C 0.05882 0.41166 0.51871 0.0
C179 C 0.07114 0.41208 0.60145 0.0
C180 C 0.06308 0.43566 0.65245 0.0
Zn181 Zn 0.02789 0.49152 0.69523 0.0
C182 C 0.08368 0.52113 0.78088 0.0
N183 N 0.99252 0.56664 0.82098 0.0
C184 C 0.97643 0.59011 0.78358 0.0
C185 C 0.99686 0.56436 0.90765 0.0
C186 C 0.98449 0.58601 0.96053 0.0
C187 C 0.96829 0.61086 0.92374 0.0
C188 C 0.96437 0.61271 0.83374 0.0
Zn189 Zn 1.00956 0.53317 0.74892 0.0
O190 O 0.04224 0.52245 0.58625 0.0
C191 C 0.95321 0.50408 0.66623 0.0
O192 O 0.02653 0.56408 0.64078 0.0
H193 H 1.0099 0.54563 0.93624 0.0
H194 H 0.01728 0.47671 0.51701 0.0
H195 H 0.97311 0.59142 0.71464 0.0
O196 O 0.97668 0.4854 0.65561 0.0
O197 O 0.95991 0.52794 0.70193 0.0
H198 H 0.07157 0.43569 0.71724 0.0
O199 O 0.99315 0.50133 0.85609 0.0
O200 O 0.013 0.46084 0.80238 0.0
O201 O 0.05901 0.53848 0.79386 0.0
O202 O 0.07886 0.49803 0.73969 0.0
C203 C 0.99724 0.47323 0.8641 0.0
H204 H 0.03027 0.43623 0.42399 0.0
H205 H 0.08553 0.39378 0.62784 0.0
H206 H 0.98765 0.58317 0.02958 0.0
H207 H 0.95274 0.63167 0.8017 0.0
H208 H 0.23653 0.02524 0.42597 0.0
H209 H 0.1938 0.96084 0.2678 0.0
H210 H 0.13685 0.96194 0.35177 0.0
H211 H 0.10132 0.97692 0.48298 0.0
H212 H 0.14764 0.03906 0.644 0.0
H213 H 0.20085 0.04279 0.54734 0.0
C214 C 0.21448 0.01201 0.40849 0.0
C215 C 0.2193 0.99307 0.34071 0.0
C216 C 0.18257 0.01176 0.45937 0.0
C217 C 0.19063 0.9759 0.31893 0.0
C218 C 0.15822 0.97621 0.36793 0.0
C219 C 0.123 0.9914 0.49645 0.0
C220 C 0.12042 0.00733 0.57183 0.0
C221 C 0.15419 0.99329 0.44044 0.0
C222 C 0.14882 0.02613 0.58768 0.0
C223 C 0.17935 0.02847 0.53202 0.0
H224 H 0.46559 0.21302 0.28926 0.0
H225 H 0.56002 0.25042 0.37378 0.0
H226 H 0.56919 0.20283 0.45539 0.0
H227 H 0.54748 0.1527 0.51459 0.0
H228 H 0.45472 0.11344 0.42516 0.0
H229 H 0.44739 0.15986 0.33584 0.0
C230 C 0.48858 0.21041 0.32379 0.0
C231 C 0.51194 0.23522 0.32617 0.0
C232 C 0.49353 0.18295 0.37168 0.0
C233 C 0.54152 0.23168 0.37171 0.0
C234 C 0.54669 0.20453 0.41873 0.0
C235 C 0.52603 0.1538 0.47428 0.0
C236 C 0.50153 0.12939 0.4782 0.0
C237 C 0.52238 0.1803 0.42115 0.0
C238 C 0.47358 0.13195 0.42605 0.0
C239 C 0.46952 0.15846 0.37385 0.0
H240 H 0.28421 0.57551 0.35835 0.0
H241 H 0.28951 0.49477 0.22385 0.0
H242 H 0.33662 0.4785 0.30874 0.0
H243 H 0.37438 0.48593 0.42768 0.0
H244 H 0.36322 0.56386 0.572 0.0
H245 H 0.31911 0.58176 0.47952 0.0
C246 C 0.29504 0.55403 0.34814 0.0
C247 C 0.28262 0.53634 0.28484 0.0
C248 C 0.32077 0.54402 0.40033 0.0
C249 C 0.29843 0.50918 0.271 0.0
C250 C 0.32519 0.49962 0.32048 0.0
C251 C 0.36211 0.50676 0.43883 0.0
C252 C 0.37188 0.52353 0.50682 0.0
C253 C 0.33621 0.51664 0.38627 0.0
C254 C 0.35581 0.55042 0.52087 0.0
C255 C 0.3308 0.56075 0.46759 0.0
H256 H 0.04506 0.29278 0.33321 0.0
H257 H 0.15305 0.28997 0.37654 0.0
H258 H 0.1516 0.33985 0.43172 0.0
H259 H 0.11726 0.38132 0.48334 0.0
H260 H 1.00871 0.38261 0.44158 0.0
H261 H 1.01263 0.3364 0.36935 0.0
C262 C 0.06842 0.30359 0.35261 0.0
C263 C 0.09909 0.28816 0.351 0.0
C264 C 0.06709 0.3317 0.38564 0.0
C265 C 0.1293 0.30187 0.37664 0.0
C266 C 0.12832 0.33013 0.40898 0.0
C267 C 0.09463 0.37152 0.45773 0.0
C268 C 0.06272 0.38518 0.46819 0.0
C269 C 0.09702 0.34479 0.4165 0.0
C270 C 0.03361 0.37258 0.43382 0.0
C271 C 0.03577 0.34611 0.39284 0.0
H272 H 0.84713 0.03759 0.14076 0.0
H273 H 0.80875 0.95157 0.07386 0.0
H274 H 0.86359 0.94507 0.9879 0.0
H275 H 0.91995 0.96646 0.91796 0.0
H276 H 0.95961 0.0518 0.98764 0.0
H277 H 0.90713 0.05605 0.08562 0.0
C278 C 0.85138 0.017 0.10994 0.0
C279 C 0.82415 0.99491 0.11443 0.0
C280 C 0.88293 0.01365 0.05912 0.0
C281 C 0.8296 0.96862 0.07238 0.0
C282 C 0.86077 0.96509 0.02226 0.0
C283 C 0.91716 0.98588 0.95506 0.0
C284 C 0.9434 0.009 0.94439 0.0
C285 C 0.88718 0.9879 0.01268 0.0
C286 C 0.93971 0.03377 0.99421 0.0
C287 C 0.90968 0.03621 0.05035 0.0
H288 H 0.51333 0.72715 0.06708 0.0
H289 H 0.59315 0.75882 0.21968 0.0
H290 H 0.59146 0.80936 0.14654 0.0
H291 H 0.57042 0.84359 0.03085 0.0
H292 H 0.49363 0.8102 0.87241 0.0
H293 H 0.49209 0.76093 0.95391 0.0
C294 C 0.53062 0.74499 0.08413 0.0
C295 C 0.5537 0.73897 0.1481 0.0
C296 C 0.53051 0.77358 0.0395 0.0
C297 C 0.57498 0.76274 0.17117 0.0
C298 C 0.57431 0.79159 0.12862 0.0
C299 C 0.55323 0.82553 0.01461 0.0
C300 C 0.53235 0.83047 0.9452 0.0
C301 C 0.55268 0.79712 0.06141 0.0
C302 C 0.51036 0.80684 0.92449 0.0
C303 C 0.50927 0.77874 0.97152 0.0
H304 H 0.74319 0.473 0.25283 0.0
H305 H 0.77368 0.38899 0.16013 0.0
H306 H 0.72955 0.39146 0.05685 0.0
H307 H 0.68654 0.41989 0.9828 0.0
H308 H 0.65446 0.50339 0.07754 0.0
H309 H 0.69529 0.49897 0.18829 0.0
C310 C 0.73947 0.45489 0.21162 0.0
C311 C 0.76167 0.43087 0.21403 0.0
C312 C 0.71437 0.45673 0.15096 0.0
C313 C 0.75691 0.40774 0.15931 0.0
C314 C 0.73184 0.40923 0.09984 0.0
C315 C 0.68789 0.43692 0.02843 0.0
C316 C 0.66765 0.46221 0.01997 0.0
C317 C 0.71107 0.43403 0.09336 0.0
C318 C 0.67033 0.48409 0.07998 0.0
C319 C 0.69347 0.48144 0.14435 0.0
H320 H 0.91619 0.72813 0.08072 0.0
H321 H 1.00214 0.71297 0.23409 0.0
H322 H 1.01061 0.66465 0.17367 0.0
H323 H 0.99921 0.63143 0.06086 0.0
H324 H 0.91209 0.64574 0.90902 0.0
H325 H 0.89873 0.69013 0.9843 0.0
C326 C 0.93589 0.7136 0.10295 0.0
C327 C 0.95835 0.72358 0.16195 0.0
C328 C 0.94102 0.68632 0.0664 0.0
C329 C 0.98432 0.70522 0.18961 0.0
C330 C 0.98938 0.67787 0.15427 0.0
C331 C 0.97664 0.64358 0.04565 0.0
C332 C 0.95718 0.63541 0.97774 0.0
C333 C 0.96873 0.66881 0.0901 0.0
C334 C 0.9283 0.65195 0.95884 0.0
C335 C 0.92038 0.67721 0.00248 0.0
H336 H 0.0285 0.16019 0.36954 0.0
H337 H 0.0759 0.20442 0.56999 0.0
H338 H 0.05346 0.16379 0.67849 0.0
H339 H 0.03022 0.11208 0.70956 0.0
H340 H 0.98758 0.06553 0.50653 0.0
H341 H 0.99773 0.11092 0.40605 0.0
C342 C 0.03349 0.16107 0.43728 0.0
C343 C 0.05443 0.18486 0.46156 0.0
C344 C 0.02162 0.13712 0.4985 0.0
C345 C 0.05994 0.18628 0.54973 0.0
C346 C 0.04735 0.16294 0.61162 0.0
C347 C 0.02243 0.11201 0.64386 0.0
C348 C 1.00894 0.08531 0.61478 0.0
C349 C 0.0296 0.13768 0.58578 0.0
C350 C 0.99833 0.08573 0.53017 0.0
C351 C 1.00438 0.11159 0.47253 0.0
H352 H 0.36463 0.93365 0.35613 0.0
H353 H 0.31377 0.00088 0.49891 0.0
H354 H 0.35909 0.00043 0.59791 0.0
H355 H 0.41645 0.98614 0.63184 0.0
H356 H 0.46929 0.91994 0.49061 0.0
H357 H 0.41991 0.91475 0.40213 0.0
C358 C 0.36334 0.94787 0.40968 0.0
C359 C 0.33605 0.96745 0.41977 0.0
C360 C 0.39 0.94802 0.46538 0.0
C361 C 0.33428 0.98543 0.49014 0.0
C362 C 0.36038 0.98545 0.54625 0.0
C363 C 0.41692 0.97036 0.58209 0.0
C364 C 0.44633 0.95385 0.56579 0.0
C365 C 0.38883 0.96765 0.53249 0.0
C366 C 0.44675 0.93296 0.50315 0.0
C367 C 0.41867 0.93013 0.45276 0.0
H368 H 0.55128 0.33279 0.41155 0.0
H369 H 0.44865 0.35851 0.35946 0.0
H370 H 0.45562 0.40292 0.43869 0.0
H371 H 0.49027 0.43402 0.52132 0.0
H372 H 0.59208 0.40841 0.58212 0.0
H373 H 0.58647 0.36455 0.49821 0.0
C374 C 0.53034 0.34795 0.41898 0.0
C375 C 0.49944 0.34251 0.38036 0.0
C376 C 0.53464 0.37357 0.46421 0.0
C377 C 0.47262 0.36241 0.38881 0.0
C378 C 0.47666 0.3878 0.43358 0.0
C379 C 0.51151 0.41907 0.51601 0.0
C380 C 0.54159 0.42448 0.55793 0.0
C381 C 0.5076 0.39365 0.47082 0.0
C382 C 0.56874 0.40482 0.54995 0.0
C383 C 0.56538 0.37962 0.5028 0.0
H384 H 0.12751 0.55845 0.23358 0.0
H385 H 0.1976 0.60663 0.38127 0.0
H386 H 0.15016 0.61185 0.49331 0.0
H387 H 0.09271 0.59223 0.56255 0.0
H388 H 0.02481 0.54249 0.41446 0.0
H389 H 0.06689 0.55014 0.2864 0.0
C390 C 0.13244 0.57133 0.28789 0.0
C391 C 0.1665 0.58131 0.29986 0.0
C392 C 0.1052 0.57407 0.3521 0.0
C393 C 0.17191 0.59772 0.37177 0.0
C394 C 0.14474 0.60087 0.43574 0.0
C395 C 0.08653 0.58456 0.5007 0.0
C396 C 0.05599 0.56684 0.49715 0.0
C397 C 0.11175 0.58762 0.42883 0.0
C398 C 0.04822 0.55636 0.41778 0.0
C399 C 0.07249 0.56033 0.34513 0.0
H400 H 0.0276 0.85181 0.14959 0.0
H401 H 0.98018 0.80844 0.9475 0.0
H402 H 1.00443 0.8485 0.83931 0.0
H403 H 0.03028 0.89931 0.80765 0.0
H404 H 0.0727 0.94531 0.01206 0.0
H405 H 0.05988 0.90045 0.11359 0.0
C406 C 0.02282 0.85105 0.08169 0.0
C407 C 1.00155 0.82756 0.0568 0.0
C408 C 0.03583 0.87465 0.02047 0.0
C409 C 0.9964 0.82631 0.96833 0.0
C410 C 1.01007 0.8493 0.90655 0.0
C411 C 0.03743 0.89938 0.87395 0.0
C412 C 0.05174 0.9258 0.90287 0.0
C413 C 0.02858 0.87411 0.93265 0.0
C414 C 0.06142 0.92534 0.98839 0.0
C415 C 0.05379 0.89978 0.04666 0.0
H416 H 0.67737 0.04792 0.07121 0.0
H417 H 0.72848 0.97263 0.96994 0.0
H418 H 0.6822 0.96496 0.8763 0.0
H419 H 0.62481 0.97621 0.83472 0.0
H420 H 0.57279 0.05146 0.93212 0.0
H421 H 0.62177 0.06252 0.01713 0.0
C422 C 0.67849 0.03013 0.02762 0.0
C423 C 0.70614 0.01077 0.02766 0.0
C424 C 0.65144 0.02551 0.97498 0.0
C425 C 0.70767 0.98801 0.97036 0.0
C426 C 0.68102 0.98338 0.91762 0.0
C427 C 0.6242 0.99502 0.87474 0.0
C428 C 0.59514 0.01259 0.87949 0.0
C429 C 0.65238 0.00139 0.92151 0.0
C430 C 0.5949 0.03748 0.92888 0.0
C431 C 0.62283 0.04377 0.97711 0.0
H432 H 0.50537 0.64201 0.06595 0.0
H433 H 0.60476 0.61111 0.1288 0.0
H434 H 0.59545 0.56629 0.05258 0.0
H435 H 0.55963 0.53627 0.96985 0.0
H436 H 0.46109 0.5669 0.89836 0.0
H437 H 0.46891 0.61122 0.97939 0.0
C438 C 0.5251 0.62561 0.06146 0.0
C439 C 0.55577 0.62972 0.10211 0.0
C440 C 0.51939 0.59973 0.01822 0.0
C441 C 0.58103 0.60826 0.09759 0.0
C442 C 0.57562 0.58263 0.05468 0.0
C443 C 0.53956 0.55243 0.97224 0.0
C444 C 0.50979 0.54829 0.92806 0.0
C445 C 0.54483 0.57808 0.01555 0.0
C446 C 0.48413 0.56947 0.93239 0.0
C447 C 0.48879 0.59494 0.97779 0.0
H448 H 0.88259 0.40248 0.1167 0.0
H449 H 0.90554 0.47657 0.26793 0.0
H450 H 0.9564 0.4919 0.16845 0.0
H451 H 0.98824 0.4896 0.02658 0.0
H452 H 0.96508 0.41756 0.86933 0.0
H453 H 0.92101 0.39567 0.98355 0.0
C454 C 0.89911 0.42166 0.12828 0.0
C455 C 0.89018 0.43843 0.19912 0.0
C456 C 0.92818 0.43082 0.06961 0.0
C457 C 0.91197 0.46306 0.21434 0.0
C458 C 0.94098 0.47204 0.15714 0.0
C459 C 0.97418 0.46863 0.01861 0.0
C460 C 0.9793 0.45535 0.93999 0.0
C461 C 0.9485 0.4568 0.08299 0.0
C462 C 0.96143 0.42807 0.92992 0.0
C463 C 0.93598 0.41579 0.99464 0.0
H464 H 0.15083 0.16556 0.24901 0.0
H465 H 0.1012 0.23071 0.08761 0.0
H466 H 0.10375 0.19757 0.96934 0.0
H467 H 0.10675 0.14583 0.92837 0.0
H468 H 0.15078 0.07892 0.09715 0.0
H469 H 0.16351 0.11674 0.19661 0.0
C470 C 0.14175 0.17285 0.18662 0.0
C471 C 0.12529 0.20016 0.17717 0.0
C472 C 0.14126 0.15292 0.12157 0.0
C473 C 0.11393 0.20974 0.0962 0.0
C474 C 0.11487 0.19057 0.0292 0.0
C475 C 0.12019 0.13975 0.9854 0.0
C476 C 0.12728 0.10956 0.00638 0.0
C477 C 0.12641 0.1614 0.0435 0.0
C478 C 0.14448 0.10193 0.08073 0.0
C479 C 0.15181 0.12354 0.13741 0.0
H480 H 0.33307 0.94371 0.10521 0.0
H481 H 0.31894 0.03865 0.09558 0.0
H482 H 0.36622 0.04767 0.97758 0.0
H483 H 0.41738 0.02855 0.89196 0.0
H484 H 0.43236 0.93315 0.91617 0.0
H485 H 0.37977 0.9245 0.01352 0.0
C486 C 0.33949 0.96626 0.07477 0.0
C487 C 0.32223 0.9904 0.10808 0.0
C488 C 0.3679 0.97132 0.01135 0.0
C489 C 0.33129 0.01962 0.06968 0.0
C490 C 0.35885 0.02479 0.00346 0.0
C491 C 0.409 0.00592 0.9183 0.0
C492 C 0.42946 0.98168 0.89735 0.0
C493 C 0.37838 0.00088 0.97628 0.0
C494 C 0.41782 0.95243 0.93175 0.0
C495 C 0.38743 0.94731 0.98729 0.0
H496 H 0.434 0.33298 0.11686 0.0
H497 H 0.53295 0.29822 0.03999 0.0
H498 H 0.54161 0.33606 0.91539 0.0
H499 H 0.52748 0.38569 0.85206 0.0
H500 H 0.43024 0.42268 0.93393 0.0
H501 H 0.41443 0.37754 0.03358 0.0
C502 C 0.45666 0.33287 0.0702 0.0
C503 C 0.48307 0.31318 0.08808 0.0
C504 C 0.46237 0.35589 0.00209 0.0
C505 C 0.51227 0.31305 0.02748 0.0
C506 C 0.51755 0.33515 0.95733 0.0
C507 C 0.50256 0.38363 0.89077 0.0
C508 C 0.4804 0.40773 0.88782 0.0
C509 C 0.49389 0.35782 0.94792 0.0
C510 C 0.44784 0.40455 0.93618 0.0
C511 C 0.43887 0.37877 0.99306 0.0
H512 H 0.20011 0.58098 0.97106 0.0
H513 H 0.20873 0.48951 0.07421 0.0
H514 H 0.17153 0.47185 0.96678 0.0
H515 H 0.12684 0.48371 0.86458 0.0
H516 H 0.11505 0.57618 0.77411 0.0
H517 H 0.16293 0.59214 0.85435 0.0
C518 C 0.19486 0.5571 0.96771 0.0
C519 C 0.20694 0.53662 0.0307 0.0
C520 C 0.17198 0.54736 0.90917 0.0
C521 C 0.19996 0.50573 0.02598 0.0
C522 C 0.17817 0.49568 0.96544 0.0
C523 C 0.13553 0.5072 0.86065 0.0
C524 C 0.11727 0.5288 0.81428 0.0
C525 C 0.1625 0.51642 0.90986 0.0
C526 C 0.12851 0.55921 0.81018 0.0
C527 C 0.15588 0.56837 0.85609 0.0
H528 H 0.90727 0.84458 0.2794 0.0
H529 H 0.95895 0.77802 0.43097 0.0
H530 H 0.9571 0.80956 0.55287 0.0
H531 H 0.95436 0.86067 0.59908 0.0
H532 H 0.90918 0.9293 0.43884 0.0
H533 H 0.89423 0.89244 0.33853 0.0
C534 C 0.917 0.83662 0.34043 0.0
C535 C 0.93393 0.80944 0.3459 0.0
C536 C 0.91772 0.85564 0.40782 0.0
C537 C 0.94595 0.79894 0.4253 0.0
C538 C 0.94534 0.81719 0.49446 0.0
C539 C 0.94052 0.86734 0.54318 0.0
C540 C 0.93371 0.89775 0.52489 0.0
C541 C 0.93347 0.84635 0.48388 0.0
C542 C 0.91493 0.90607 0.45387 0.0
C543 C 0.90666 0.88504 0.3961 0.0
H544 H 0.70723 0.9562 0.3373 0.0
H545 H 0.72646 0.05076 0.35595 0.0
H546 H 0.67841 0.05025 0.47071 0.0
H547 H 0.62604 0.02413 0.55113 0.0
H548 H 0.60672 0.9294 0.53107 0.0
H549 H 0.65926 0.92871 0.4312 0.0
C550 C 0.70186 0.97633 0.36961 0.0
C551 C 0.72089 0.00333 0.33991 0.0
C552 C 0.67332 0.97603 0.43301 0.0
C553 C 0.71287 0.02956 0.37969 0.0
C554 C 0.68492 0.02936 0.44399 0.0
C555 C 0.63341 0.00333 0.52502 0.0
C556 C 0.61206 0.97696 0.54724 0.0
C557 C 0.66407 0.00298 0.46856 0.0
C558 C 0.62242 0.95007 0.51438 0.0
C559 C 0.65257 0.94963 0.45747 0.0
H560 H 0.61946 0.63931 0.37001 0.0
H561 H 0.52007 0.67473 0.43784 0.0
H562 H 0.5095 0.63698 0.56247 0.0
H563 H 0.52258 0.58731 0.62807 0.0
H564 H 0.62055 0.54991 0.55526 0.0
H565 H 0.6377 0.59482 0.45591 0.0
C566 C 0.5963 0.63962 0.41491 0.0
C567 C 0.57037 0.65947 0.39457 0.0
C568 C 0.58957 0.61668 0.48293 0.0
C569 C 0.54041 0.65978 0.45254 0.0
C570 C 0.53406 0.63774 0.5226 0.0
C571 C 0.54792 0.58922 0.59133 0.0
C572 C 0.56993 0.56506 0.59671 0.0
C573 C 0.55741 0.61494 0.53444 0.0
C574 C 0.60303 0.56807 0.551 0.0
C575 C 0.61279 0.59373 0.49435 0.0
H576 H 0.82801 0.49486 0.44131 0.0
H577 H 0.83073 0.40178 0.53502 0.0
H578 H 0.87087 0.41486 0.64061 0.0
H579 H 0.91589 0.4511 0.67777 0.0
H580 H 0.91406 0.54429 0.58275 0.0
H581 H 0.86318 0.53305 0.50553 0.0
C582 C 0.83568 0.47774 0.48877 0.0
C583 C 0.82661 0.4474 0.48028 0.0
C584 C 0.86032 0.48536 0.54587 0.0
C585 C 0.83708 0.42529 0.54108 0.0
C586 C 0.86081 0.43272 0.59984 0.0
C587 C 0.90381 0.46899 0.64161 0.0
C588 C 0.91903 0.49832 0.63391 0.0
C589 C 0.87443 0.46237 0.59818 0.0
C590 C 0.9029 0.5215 0.58865 0.0
C591 C 0.87384 0.51506 0.54455 0.0
loop_
_geom_bond_atom_site_label_1
_geom_bond_atom_site_label_2
_geom_bond_distance
_geom_bond_site_symmetry_2
_ccdc_geom_bond_type
H0 C3 0.931 . S
H1 C6 0.928 . S
H2 C8 0.930 . S
C3 H0 0.931 . S
C3 C4 1.413 . S
C3 C5 1.360 . S
C4 C3 1.413 . S
C4 C8 1.429 . S
C5 C3 1.360 . S
C5 C6 1.372 . S
C6 H1 0.928 . S
C6 C5 1.372 . S
C6 C7 1.404 . S
C7 C6 1.404 . S
C7 C8 1.391 . S
C8 H2 0.930 . S
C8 C4 1.429 . S
C8 C7 1.391 . S
H9 C12 0.931 . S
H10 C15 0.928 . S
H11 C17 0.930 . S
C12 H9 0.931 . S
C12 C13 1.413 . S
C12 C14 1.360 1_554 S
C13 C12 1.413 . S
C13 C17 1.429 . S
C14 C12 1.360 1_556 S
C14 C15 1.372 . S
C15 H10 0.928 . S
C15 C14 1.372 . S
C15 C16 1.404 . S
C16 C15 1.404 . S
C16 C17 1.391 1_556 S
C17 H11 0.930 . S
C17 C13 1.429 . S
C17 C16 1.391 1_554 S
H18 C21 0.931 . S
H19 C24 0.928 1_556 S
H20 C26 0.929 . S
C21 H18 0.931 . S
C21 C22 1.413 . S
C21 C23 1.360 . S
C22 C21 1.413 . S
C22 C26 1.430 1_565 S
C23 C21 1.360 . S
C23 C24 1.374 . S
C24 H19 0.928 1_554 S
C24 C23 1.374 . S
C24 C25 1.405 . S
C25 C24 1.405 . S
C25 C26 1.389 1_565 S
C26 H20 0.929 . S
C26 C22 1.430 1_545 S
C26 C25 1.389 1_545 S
H27 C30 0.931 . S
H28 C33 0.928 . S
H29 C35 0.930 1_556 S
C30 H27 0.931 . S
C30 C31 1.413 . S
C30 C32 1.360 . S
C31 C30 1.413 . S
C31 C35 1.429 . S
C32 C30 1.360 . S
C32 C33 1.372 . S
C33 H28 0.928 . S
C33 C32 1.372 . S
C33 C34 1.404 . S
C34 C33 1.404 . S
C34 C35 1.391 . S
C35 H29 0.930 1_554 S
C35 C31 1.429 . S
C35 C34 1.391 . S
H36 C39 0.931 . S
H37 C42 0.928 . S
H38 C44 0.930 . S
C39 H36 0.931 . S
C39 C40 1.413 . S
C39 C41 1.360 . S
C40 C39 1.413 . S
C40 C44 1.429 . S
C41 C39 1.360 . S
C41 C42 1.372 . S
C42 H37 0.928 . S
C42 C41 1.372 . S
C42 C43 1.404 . S
C43 C42 1.404 . S
C43 C44 1.391 . S
C44 H38 0.930 . S
C44 C40 1.429 . S
C44 C43 1.391 . S
H45 C48 0.931 . S
H46 C51 0.928 . S
H47 C53 0.930 . S
C48 H45 0.931 . S
C48 C49 1.413 . S
C48 C50 1.360 . S
C49 C48 1.413 . S
C49 C53 1.429 . S
C50 C48 1.360 . S
C50 C51 1.372 . S
C51 H46 0.928 . S
C51 C50 1.372 . S
C51 C52 1.404 . S
C52 C51 1.404 . S
C52 C53 1.391 . S
C53 H47 0.930 . S
C53 C49 1.429 . S
C53 C52 1.391 . S
H54 C57 0.930 . S
H55 C60 0.928 . S
H56 C62 0.931 . S
C57 H54 0.930 . S
C57 C58 1.414 . S
C57 C59 1.360 . S
C58 C57 1.414 . S
C58 C62 1.429 1_565 S
C59 C57 1.360 . S
C59 C60 1.371 . S
C60 H55 0.928 . S
C60 C59 1.371 . S
C60 C61 1.404 . S
C61 C60 1.404 . S
C61 C62 1.392 1_565 S
C62 H56 0.931 . S
C62 C58 1.429 1_545 S
C62 C61 1.392 1_545 S
H63 C66 0.931 . S
H64 C69 0.928 . S
H65 C71 0.930 . S
C66 H63 0.931 . S
C66 C67 1.413 . S
C66 C68 1.360 . S
C67 C66 1.413 . S
C67 C71 1.429 . S
C68 C66 1.360 . S
C68 C69 1.372 . S
C69 H64 0.928 . S
C69 C68 1.372 . S
C69 C70 1.404 . S
C70 C69 1.404 . S
C70 C71 1.391 . S
C71 H65 0.930 . S
C71 C67 1.429 . S
C71 C70 1.391 . S
C72 O88 1.260 . S
C72 O90 1.242 1_655 S
N73 C74 1.333 . S
N73 C78 1.307 . S
N73 Zn79 2.020 . S
C74 N73 1.333 . S
C74 C75 1.379 . S
C74 H92 0.952 . S
C75 C74 1.379 . S
C75 C76 1.390 . S
C75 H102 0.949 . S
C76 C75 1.390 . S
C76 C77 1.357 . S
C77 C76 1.357 . S
C77 C78 1.370 . S
C77 H103 0.950 . S
C78 N73 1.307 . S
C78 C77 1.370 . S
C78 H96 0.948 1_565 S
Zn79 N73 2.020 . S
Zn79 O88 2.039 . S
Zn79 O94 2.034 1_655 S
Zn79 O98 2.025 1_665 S
Zn79 O100 2.024 1_565 S
C80 O99 1.246 . S
C80 O100 1.249 . S
N81 C82 1.307 . S
N81 C83 1.333 . S
N81 Zn87 2.020 . S
C82 N81 1.307 . S
C82 C86 1.370 1_556 S
C82 H93 0.948 1_545 S
C83 N81 1.333 . S
C83 C84 1.379 1_556 S
C83 H91 0.952 . S
C84 C83 1.379 1_554 S
C84 C85 1.390 . S
C84 H104 0.949 . S
C85 C84 1.390 . S
C85 C86 1.357 . S
C86 C82 1.370 1_554 S
C86 C85 1.357 . S
C86 H105 0.950 . S
Zn87 N81 2.020 . S
Zn87 O90 2.025 1_545 S
Zn87 O95 2.014 1_545 S
Zn87 O97 2.039 . S
Zn87 O99 2.034 1_455 S
O88 C72 1.260 . S
O88 Zn79 2.039 . S
C89 O94 1.246 . S
C89 O95 1.263 . S
O90 C72 1.242 1_455 S
O90 Zn87 2.025 1_565 S
H91 C83 0.952 . S
H92 C74 0.952 . S
H93 C82 0.948 1_565 S
O94 Zn79 2.034 1_455 S
O94 C89 1.246 . S
O95 Zn87 2.014 1_565 S
O95 C89 1.263 . S
H96 C78 0.948 1_545 S
O97 Zn87 2.039 . S
O97 C101 1.251 . S
O98 Zn79 2.025 1_445 S
O98 C101 1.254 . S
O99 C80 1.246 . S
O99 Zn87 2.034 1_655 S
O100 Zn79 2.024 1_545 S
O100 C80 1.249 . S
C101 O97 1.251 . S
C101 O98 1.254 . S
H102 C75 0.949 . S
H103 C77 0.950 . S
H104 C84 0.949 . S
H105 C86 0.950 . S
C106 O122 1.251 1_565 S
C106 O124 1.254 . S
N107 C108 1.333 . S
N107 C112 1.307 . S
N107 Zn113 2.020 . S
C108 N107 1.333 . S
C108 C109 1.379 . S
C108 H126 0.952 . S
C109 C108 1.379 . S
C109 C110 1.390 . S
C109 H136 0.949 . S
C110 C109 1.390 . S
C110 C111 1.357 . S
C111 C110 1.357 . S
C111 C112 1.370 . S
C111 H137 0.950 . S
C112 N107 1.307 . S
C112 C111 1.370 . S
C112 H130 0.948 . S
Zn113 N107 2.020 . S
Zn113 O122 2.039 . S
Zn113 O128 2.034 . S
Zn113 O132 2.025 . S
Zn113 O134 2.024 . S
C114 O133 1.246 1_545 S
C114 O134 1.249 . S
N115 C116 1.307 . S
N115 C117 1.333 . S
N115 Zn121 2.020 . S
C116 N115 1.307 . S
C116 C120 1.370 . S
C116 H127 0.948 . S
C117 N115 1.333 . S
C117 C118 1.379 . S
C117 H125 0.952 . S
C118 C117 1.379 . S
C118 C119 1.390 . S
C118 H138 0.949 . S
C119 C118 1.390 . S
C119 C120 1.357 . S
C120 C116 1.370 . S
C120 C119 1.357 . S
C120 H139 0.950 . S
Zn121 N115 2.020 . S
Zn121 O124 2.025 . S
Zn121 O129 2.024 . S
Zn121 O131 2.039 . S
Zn121 O133 2.034 . S
O122 C106 1.251 1_545 S
O122 Zn113 2.039 . S
C123 O128 1.246 1_565 S
C123 O129 1.249 . S
O124 C106 1.254 . S
O124 Zn121 2.025 . S
H125 C117 0.952 . S
H126 C108 0.952 . S
H127 C116 0.948 . S
O128 Zn113 2.034 . S
O128 C123 1.246 1_545 S
O129 Zn121 2.024 . S
O129 C123 1.249 . S
H130 C112 0.948 . S
O131 Zn121 2.039 . S
O131 C135 1.251 1_565 S
O132 Zn113 2.025 . S
O132 C135 1.254 . S
O133 C114 1.246 1_565 S
O133 Zn121 2.034 . S
O134 Zn113 2.024 . S
O134 C114 1.249 . S
C135 O131 1.251 1_545 S
C135 O132 1.254 . S
H136 C109 0.949 . S
H137 C111 0.950 . S
H138 C118 0.949 . S
H139 C120 0.950 . S
C140 O156 1.251 . S
C140 O158 1.254 . S
N141 C142 1.333 . S
N141 C146 1.307 . S
N141 Zn147 2.020 . S
C142 N141 1.333 . S
C142 C143 1.379 . S
C142 H160 0.952 . S
C143 C142 1.379 . S
C143 C144 1.390 . S
C143 H170 0.949 . S
C144 C143 1.390 . S
C144 C145 1.357 . S
C145 C144 1.357 . S
C145 C146 1.370 . S
C145 H171 0.950 . S
C146 N141 1.307 . S
C146 C145 1.370 . S
C146 H164 0.948 . S
Zn147 N141 2.020 . S
Zn147 O156 2.039 . S
Zn147 O162 2.034 . S
Zn147 O166 2.025 . S
Zn147 O168 2.024 . S
C148 O167 1.246 . S
C148 O168 1.249 . S
N149 C150 1.307 . S
N149 C151 1.333 . S
N149 Zn155 2.020 . S
C150 N149 1.307 . S
C150 C154 1.370 . S
C150 H161 0.948 . S
C151 N149 1.333 . S
C151 C152 1.379 . S
C151 H159 0.952 . S
C152 C151 1.379 . S
C152 C153 1.390 . S
C152 H172 0.949 . S
C153 C152 1.390 . S
C153 C154 1.357 . S
C154 C150 1.370 . S
C154 C153 1.357 . S
C154 H173 0.950 . S
Zn155 N149 2.020 . S
Zn155 O158 2.025 . S
Zn155 O163 2.024 . S
Zn155 O165 2.039 . S
Zn155 O167 2.034 . S
O156 C140 1.251 . S
O156 Zn147 2.039 . S
C157 O162 1.246 . S
C157 O163 1.249 . S
O158 C140 1.254 . S
O158 Zn155 2.025 . S
H159 C151 0.952 . S
H160 C142 0.952 . S
H161 C150 0.948 . S
O162 Zn147 2.034 . S
O162 C157 1.246 . S
O163 Zn155 2.024 . S
O163 C157 1.249 . S
H164 C146 0.948 . S
O165 Zn155 2.039 . S
O165 C169 1.251 . S
O166 Zn147 2.025 . S
O166 C169 1.254 . S
O167 C148 1.246 . S
O167 Zn155 2.034 . S
O168 Zn147 2.024 . S
O168 C148 1.249 . S
C169 O165 1.251 . S
C169 O166 1.254 . S
H170 C143 0.949 . S
H171 C145 0.950 . S
H172 C152 0.949 . S
H173 C154 0.950 . S
C174 O190 1.251 . S
C174 O192 1.254 . S
N175 C176 1.333 . S
N175 C180 1.307 . S
N175 Zn181 2.020 . S
C176 N175 1.333 . S
C176 C177 1.379 . S
C176 H194 0.952 . S
C177 C176 1.379 . S
C177 C178 1.390 . S
C177 H204 0.949 . S
C178 C177 1.390 . S
C178 C179 1.357 . S
C179 C178 1.357 . S
C179 C180 1.370 . S
C179 H205 0.950 . S
C180 N175 1.307 . S
C180 C179 1.370 . S
C180 H198 0.948 . S
Zn181 N175 2.020 . S
Zn181 O190 2.039 . S
Zn181 O196 2.034 1_455 S
Zn181 O200 2.025 1_455 S
Zn181 O202 2.024 . S
C182 O201 1.246 . S
C182 O202 1.249 . S
N183 C184 1.307 . S
N183 C185 1.333 . S
N183 Zn189 2.020 1_655 S
C184 N183 1.307 . S
C184 C188 1.370 . S
C184 H195 0.948 1_655 S
C185 N183 1.333 . S
C185 C186 1.379 . S
C185 H193 0.952 . S
C186 C185 1.379 . S
C186 C187 1.390 . S
C186 H206 0.949 . S
C187 C186 1.390 . S
C187 C188 1.357 . S
C188 C184 1.370 . S
C188 C187 1.357 . S
C188 H207 0.950 . S
Zn189 N183 2.020 1_455 S
Zn189 O192 2.025 . S
Zn189 O197 2.024 1_455 S
Zn189 O199 2.039 1_455 S
Zn189 O201 2.034 . S
O190 C174 1.251 . S
O190 Zn181 2.039 . S
C191 O196 1.246 . S
C191 O197 1.249 . S
O192 C174 1.254 . S
O192 Zn189 2.025 . S
H193 C185 0.952 . S
H194 C176 0.952 . S
H195 C184 0.948 1_455 S
O196 Zn181 2.034 1_655 S
O196 C191 1.246 . S
O197 Zn189 2.024 1_655 S
O197 C191 1.249 . S
H198 C180 0.948 . S
O199 Zn189 2.039 1_655 S
O199 C203 1.251 . S
O200 Zn181 2.025 1_655 S
O200 C203 1.254 . S
O201 C182 1.246 . S
O201 Zn189 2.034 . S
O202 Zn181 2.024 . S
O202 C182 1.249 . S
C203 O199 1.251 . S
C203 O200 1.254 . S
H204 C177 0.949 . S
H205 C179 0.950 . S
H206 C186 0.949 . S
H207 C188 0.950 . S
H208 C214 0.930 . S
H209 C217 0.930 . S
H210 C218 0.930 . S
H211 C219 0.930 . S
H212 C222 0.930 . S
H213 C223 0.930 . S
C214 H208 0.930 . S
C214 C215 1.355 1_545 S
C214 C216 1.415 . S
C215 C214 1.355 1_565 S
C215 C217 1.419 . S
C216 C214 1.415 . S
C216 C221 1.425 1_545 S
C216 C223 1.409 . S
C217 H209 0.930 . S
C217 C215 1.419 . S
C217 C218 1.362 . S
C218 H210 0.930 . S
C218 C217 1.362 . S
C218 C221 1.409 . S
C219 H211 0.930 . S
C219 C220 1.355 . S
C219 C221 1.415 . S
C220 C219 1.355 . S
C220 C222 1.419 1_565 S
C221 C216 1.425 1_565 S
C221 C218 1.409 . S
C221 C219 1.415 . S
C222 H212 0.930 . S
C222 C220 1.419 1_545 S
C222 C223 1.362 . S
C223 H213 0.930 . S
C223 C216 1.409 . S
C223 C222 1.362 . S
H224 C230 0.930 . S
H225 C233 0.930 . S
H226 C234 0.930 . S
H227 C235 0.930 . S
H228 C238 0.930 . S
H229 C239 0.930 . S
C230 H224 0.930 . S
C230 C231 1.355 . S
C230 C232 1.415 . S
C231 C230 1.355 . S
C231 C233 1.419 . S
C232 C230 1.415 . S
C232 C237 1.425 . S
C232 C239 1.409 . S
C233 H225 0.930 . S
C233 C231 1.419 . S
C233 C234 1.362 . S
C234 H226 0.930 . S
C234 C233 1.362 . S
C234 C237 1.409 . S
C235 H227 0.930 . S
C235 C236 1.355 . S
C235 C237 1.415 . S
C236 C235 1.355 . S
C236 C238 1.419 . S
C237 C232 1.425 . S
C237 C234 1.409 . S
C237 C235 1.415 . S
C238 H228 0.930 . S
C238 C236 1.419 . S
C238 C239 1.362 . S
C239 H229 0.930 . S
C239 C232 1.409 . S
C239 C238 1.362 . S
H240 C246 0.930 . S
H241 C249 0.930 . S
H242 C250 0.930 . S
H243 C251 0.930 . S
H244 C254 0.930 . S
H245 C255 0.930 . S
C246 H240 0.930 . S
C246 C247 1.355 . S
C246 C248 1.415 . S
C247 C246 1.355 . S
C247 C249 1.419 . S
C248 C246 1.415 . S
C248 C253 1.425 . S
C248 C255 1.409 . S
C249 H241 0.930 . S
C249 C247 1.419 . S
C249 C250 1.362 . S
C250 H242 0.930 . S
C250 C249 1.362 . S
C250 C253 1.409 . S
C251 H243 0.930 . S
C251 C252 1.355 . S
C251 C253 1.415 . S
C252 C251 1.355 . S
C252 C254 1.419 . S
C253 C248 1.425 . S
C253 C250 1.409 . S
C253 C251 1.415 . S
C254 H244 0.930 . S
C254 C252 1.419 . S
C254 C255 1.362 . S
C255 H245 0.930 . S
C255 C248 1.409 . S
C255 C254 1.362 . S
H256 C262 0.930 . S
H257 C265 0.930 . S
H258 C266 0.930 . S
H259 C267 0.930 . S
H260 C270 0.930 . S
H261 C271 0.930 . S
C262 H256 0.930 . S
C262 C263 1.355 . S
C262 C264 1.415 . S
C263 C262 1.355 . S
C263 C265 1.419 . S
C264 C262 1.415 . S
C264 C269 1.425 . S
C264 C271 1.409 . S
C265 H257 0.930 . S
C265 C263 1.419 . S
C265 C266 1.362 . S
C266 H258 0.930 . S
C266 C265 1.362 . S
C266 C269 1.409 . S
C267 H259 0.930 . S
C267 C268 1.355 . S
C267 C269 1.415 . S
C268 C267 1.355 . S
C268 C270 1.419 . S
C269 C264 1.425 . S
C269 C266 1.409 . S
C269 C267 1.415 . S
C270 H260 0.930 . S
C270 C268 1.419 . S
C270 C271 1.362 . S
C271 H261 0.930 . S
C271 C264 1.409 . S
C271 C270 1.362 . S
H272 C278 0.930 . S
H273 C281 0.930 . S
H274 C282 0.930 . S
H275 C283 0.930 . S
H276 C286 0.930 . S
H277 C287 0.930 1_554 S
C278 H272 0.930 . S
C278 C279 1.373 . S
C278 C280 1.415 1_554 S
C279 C278 1.373 . S
C279 C281 1.396 1_544 S
C280 C278 1.415 1_556 S
C280 C285 1.425 1_545 S
C280 C287 1.409 . S
C281 H273 0.930 . S
C281 C279 1.396 1_566 S
C281 C282 1.362 . S
C282 H274 0.930 . S
C282 C281 1.362 . S
C282 C285 1.409 . S
C283 H275 0.930 . S
C283 C284 1.355 1_565 S
C283 C285 1.415 . S
C284 C283 1.355 1_545 S
C284 C286 1.419 . S
C285 C280 1.425 1_565 S
C285 C282 1.409 . S
C285 C283 1.415 . S
C286 H276 0.930 . S
C286 C284 1.419 . S
C286 C287 1.362 . S
C287 H277 0.930 1_556 S
C287 C280 1.409 . S
C287 C286 1.362 . S
H288 C294 0.930 . S
H289 C297 0.930 . S
H290 C298 0.930 . S
H291 C299 0.930 . S
H292 C302 0.930 . S
H293 C303 0.930 . S
C294 H288 0.930 . S
C294 C295 1.355 . S
C294 C296 1.415 . S
C295 C294 1.355 . S
C295 C297 1.419 . S
C296 C294 1.415 . S
C296 C301 1.425 1_554 S
C296 C303 1.409 . S
C297 H289 0.930 . S
C297 C295 1.419 . S
C297 C298 1.362 1_554 S
C298 H290 0.930 . S
C298 C297 1.362 1_556 S
C298 C301 1.409 . S
C299 H291 0.930 . S
C299 C300 1.355 . S
C299 C301 1.415 . S
C300 C299 1.355 . S
C300 C302 1.419 . S
C301 C296 1.425 1_556 S
C301 C298 1.409 . S
C301 C299 1.415 . S
C302 H292 0.930 . S
C302 C300 1.419 . S
C302 C303 1.362 1_556 S
C303 H293 0.930 . S
C303 C296 1.409 . S
C303 C302 1.362 1_554 S
H304 C310 0.930 . S
H305 C313 0.930 . S
H306 C314 0.930 . S
H307 C315 0.930 . S
H308 C318 0.930 . S
H309 C319 0.930 . S
C310 H304 0.930 . S
C310 C311 1.355 . S
C310 C312 1.415 . S
C311 C310 1.355 . S
C311 C313 1.419 . S
C312 C310 1.415 . S
C312 C317 1.425 1_554 S
C312 C319 1.409 . S
C313 H305 0.930 . S
C313 C311 1.419 . S
C313 C314 1.362 1_554 S
C314 H306 0.930 . S
C314 C313 1.362 1_556 S
C314 C317 1.409 . S
C315 H307 0.930 . S
C315 C316 1.355 . S
C315 C317 1.415 . S
C316 C315 1.355 . S
C316 C318 1.419 . S
C317 C312 1.425 1_556 S
C317 C314 1.409 . S
C317 C315 1.415 . S
C318 H308 0.930 . S
C318 C316 1.419 . S
C318 C319 1.362 1_556 S
C319 H309 0.930 . S
C319 C312 1.409 . S
C319 C318 1.362 1_554 S
H320 C326 0.930 . S
H321 C329 0.930 1_554 S
H322 C330 0.930 . S
H323 C331 0.930 . S
H324 C334 0.930 . S
H325 C335 0.930 . S
C326 H320 0.930 . S
C326 C327 1.355 . S
C326 C328 1.415 . S
C327 C326 1.355 . S
C327 C329 1.419 . S
C328 C326 1.415 . S
C328 C333 1.425 . S
C328 C335 1.409 . S
C329 H321 0.930 1_556 S
C329 C327 1.419 . S
C329 C330 1.362 . S
C330 H322 0.930 . S
C330 C329 1.362 . S
C330 C333 1.409 . S
C331 H323 0.930 . S
C331 C332 1.355 . S
C331 C333 1.415 . S
C332 C331 1.355 . S
C332 C334 1.419 . S
C333 C328 1.425 . S
C333 C330 1.409 . S
C333 C331 1.415 . S
C334 H324 0.930 . S
C334 C332 1.419 . S
C334 C335 1.362 . S
C335 H325 0.930 . S
C335 C328 1.409 . S
C335 C334 1.362 . S
H336 C342 0.930 . S
H337 C345 0.930 . S
H338 C346 0.930 . S
H339 C347 0.930 . S
H340 C350 0.930 1_655 S
H341 C351 0.930 . S
C342 H336 0.930 . S
C342 C343 1.355 . S
C342 C344 1.415 . S
C343 C342 1.355 . S
C343 C345 1.419 . S
C344 C342 1.415 . S
C344 C349 1.425 . S
C344 C351 1.409 . S
C345 H337 0.930 . S
C345 C343 1.419 . S
C345 C346 1.362 . S
C346 H338 0.930 . S
C346 C345 1.362 . S
C346 C349 1.409 . S
C347 H339 0.930 . S
C347 C348 1.355 . S
C347 C349 1.415 . S
C348 C347 1.355 . S
C348 C350 1.419 . S
C349 C344 1.425 . S
C349 C346 1.409 . S
C349 C347 1.415 . S
C350 H340 0.930 1_455 S
C350 C348 1.419 . S
C350 C351 1.362 . S
C351 H341 0.930 . S
C351 C344 1.409 . S
C351 C350 1.362 . S
H352 C358 0.930 . S
H353 C361 0.930 . S
H354 C362 0.930 . S
H355 C363 0.930 . S
H356 C366 0.930 . S
H357 C367 0.930 . S
C358 H352 0.930 . S
C358 C359 1.355 1_565 S
C358 C360 1.415 . S
C359 C358 1.355 1_545 S
C359 C361 1.419 . S
C360 C358 1.415 . S
C360 C365 1.425 1_565 S
C360 C367 1.409 . S
C361 H353 0.930 . S
C361 C359 1.419 . S
C361 C362 1.362 . S
C362 H354 0.930 . S
C362 C361 1.362 . S
C362 C365 1.409 . S
C363 H355 0.930 . S
C363 C364 1.355 1_545 S
C363 C365 1.415 . S
C364 C363 1.355 1_565 S
C364 C366 1.419 . S
C365 C360 1.425 1_545 S
C365 C362 1.409 . S
C365 C363 1.415 . S
C366 H356 0.930 . S
C366 C364 1.419 . S
C366 C367 1.362 . S
C367 H357 0.930 . S
C367 C360 1.409 . S
C367 C366 1.362 . S
H368 C374 0.930 . S
H369 C377 0.930 . S
H370 C378 0.930 . S
H371 C379 0.930 . S
H372 C382 0.930 . S
H373 C383 0.930 . S
C374 H368 0.930 . S
C374 C375 1.355 . S
C374 C376 1.415 . S
C375 C374 1.355 . S
C375 C377 1.419 . S
C376 C374 1.415 . S
C376 C381 1.425 . S
C376 C383 1.409 . S
C377 H369 0.930 . S
C377 C375 1.419 . S
C377 C378 1.362 . S
C378 H370 0.930 . S
C378 C377 1.362 . S
C378 C381 1.409 . S
C379 H371 0.930 . S
C379 C380 1.355 . S
C379 C381 1.415 . S
C380 C379 1.355 . S
C380 C382 1.419 . S
C381 C376 1.425 . S
C381 C378 1.409 . S
C381 C379 1.415 . S
C382 H372 0.930 . S
C382 C380 1.419 . S
C382 C383 1.362 . S
C383 H373 0.930 . S
C383 C376 1.409 . S
C383 C382 1.362 . S
H384 C390 0.930 . S
H385 C393 0.930 . S
H386 C394 0.930 . S
H387 C395 0.930 . S
H388 C398 0.930 . S
H389 C399 0.930 . S
C390 H384 0.930 . S
C390 C391 1.355 . S
C390 C392 1.415 . S
C391 C390 1.355 . S
C391 C393 1.419 . S
C392 C390 1.415 . S
C392 C397 1.425 . S
C392 C399 1.409 . S
C393 H385 0.930 . S
C393 C391 1.419 . S
C393 C394 1.362 . S
C394 H386 0.930 . S
C394 C393 1.362 . S
C394 C397 1.409 . S
C395 H387 0.930 . S
C395 C396 1.355 . S
C395 C397 1.415 . S
C396 C395 1.355 . S
C396 C398 1.419 . S
C397 C392 1.425 . S
C397 C394 1.409 . S
C397 C395 1.415 . S
C398 H388 0.930 . S
C398 C396 1.419 . S
C398 C399 1.362 . S
C399 H389 0.930 . S
C399 C392 1.409 . S
C399 C398 1.362 . S
H400 C406 0.930 . S
H401 C409 0.930 . S
H402 C410 0.930 . S
H403 C411 0.930 . S
H404 C414 0.930 . S
H405 C415 0.930 1_455 S
C406 H400 0.930 . S
C406 C407 1.355 . S
C406 C408 1.415 . S
C407 C406 1.355 . S
C407 C409 1.419 . S
C408 C406 1.415 . S
C408 C413 1.425 . S
C408 C415 1.409 . S
C409 H401 0.930 . S
C409 C407 1.419 . S
C409 C410 1.362 . S
C410 H402 0.930 . S
C410 C409 1.362 . S
C410 C413 1.409 . S
C411 H403 0.930 . S
C411 C412 1.355 1_655 S
C411 C413 1.415 . S
C412 C411 1.355 1_455 S
C412 C414 1.419 . S
C413 C408 1.425 . S
C413 C410 1.409 . S
C413 C411 1.415 . S
C414 H404 0.930 . S
C414 C412 1.419 . S
C414 C415 1.362 1_455 S
C415 H405 0.930 1_655 S
C415 C408 1.409 . S
C415 C414 1.362 1_655 S
H416 C422 0.930 . S
H417 C425 0.930 . S
H418 C426 0.930 . S
H419 C427 0.930 . S
H420 C430 0.930 . S
H421 C431 0.930 . S
C422 H416 0.930 . S
C422 C423 1.355 1_545 S
C422 C424 1.415 1_554 S
C423 C422 1.355 1_565 S
C423 C425 1.419 1_554 S
C424 C422 1.415 1_556 S
C424 C429 1.425 . S
C424 C431 1.409 1_556 S
C425 H417 0.930 . S
C425 C423 1.419 1_556 S
C425 C426 1.362 . S
C426 H418 0.930 . S
C426 C425 1.362 . S
C426 C429 1.409 1_565 S
C427 H419 0.930 . S
C427 C428 1.355 . S
C427 C429 1.415 . S
C428 C427 1.355 . S
C428 C430 1.419 . S
C429 C424 1.425 . S
C429 C426 1.409 1_545 S
C429 C427 1.415 . S
C430 H420 0.930 . S
C430 C428 1.419 . S
C430 C431 1.362 1_556 S
C431 H421 0.930 . S
C431 C424 1.409 1_554 S
C431 C430 1.362 1_554 S
H432 C438 0.930 . S
H433 C441 0.930 . S
H434 C442 0.930 . S
H435 C443 0.930 . S
H436 C446 0.930 . S
H437 C447 0.930 . S
C438 H432 0.930 . S
C438 C439 1.355 . S
C438 C440 1.415 1_554 S
C439 C438 1.355 . S
C439 C441 1.419 1_554 S
C440 C438 1.415 1_556 S
C440 C445 1.425 . S
C440 C447 1.409 . S
C441 H433 0.930 . S
C441 C439 1.419 1_556 S
C441 C442 1.362 . S
C442 H434 0.930 . S
C442 C441 1.362 . S
C442 C445 1.409 . S
C443 H435 0.930 . S
C443 C444 1.355 . S
C443 C445 1.415 . S
C444 C443 1.355 . S
C444 C446 1.419 . S
C445 C440 1.425 . S
C445 C442 1.409 . S
C445 C443 1.415 . S
C446 H436 0.930 . S
C446 C444 1.419 . S
C446 C447 1.362 . S
C447 H437 0.930 . S
C447 C440 1.409 . S
C447 C446 1.362 . S
H448 C454 0.930 1_556 S
H449 C457 0.930 . S
H450 C458 0.930 . S
H451 C459 0.930 . S
H452 C462 0.930 . S
H453 C463 0.930 . S
C454 H448 0.930 1_554 S
C454 C455 1.355 . S
C454 C456 1.415 1_554 S
C455 C454 1.355 . S
C455 C457 1.419 . S
C456 C454 1.415 1_556 S
C456 C461 1.425 1_556 S
C456 C463 1.409 . S
C457 H449 0.930 . S
C457 C455 1.419 . S
C457 C458 1.362 . S
C458 H450 0.930 . S
C458 C457 1.362 . S
C458 C461 1.409 . S
C459 H451 0.930 . S
C459 C460 1.355 . S
C459 C461 1.415 1_556 S
C460 C459 1.355 . S
C460 C462 1.419 . S
C461 C456 1.425 1_554 S
C461 C458 1.409 . S
C461 C459 1.415 1_554 S
C462 H452 0.930 . S
C462 C460 1.419 . S
C462 C463 1.362 . S
C463 H453 0.930 . S
C463 C456 1.409 . S
C463 C462 1.362 . S
H464 C470 0.930 . S
H465 C473 0.930 . S
H466 C474 0.930 . S
H467 C475 0.930 . S
H468 C478 0.930 . S
H469 C479 0.930 . S
C470 H464 0.930 . S
C470 C471 1.355 . S
C470 C472 1.415 . S
C471 C470 1.355 . S
C471 C473 1.419 . S
C472 C470 1.415 . S
C472 C477 1.425 . S
C472 C479 1.409 . S
C473 H465 0.930 . S
C473 C471 1.419 . S
C473 C474 1.362 . S
C474 H466 0.930 . S
C474 C473 1.362 . S
C474 C477 1.409 . S
C475 H467 0.930 . S
C475 C476 1.355 . S
C475 C477 1.415 . S
C476 C475 1.355 . S
C476 C478 1.419 . S
C477 C472 1.425 . S
C477 C474 1.409 . S
C477 C475 1.415 . S
C478 H468 0.930 . S
C478 C476 1.419 . S
C478 C479 1.362 . S
C479 H469 0.930 . S
C479 C472 1.409 . S
C479 C478 1.362 . S
H480 C486 0.930 . S
H481 C489 0.930 . S
H482 C490 0.930 . S
H483 C491 0.930 . S
H484 C494 0.930 . S
H485 C495 0.930 . S
C486 H480 0.930 . S
C486 C487 1.355 1_565 S
C486 C488 1.415 . S
C487 C486 1.355 1_545 S
C487 C489 1.419 . S
C488 C486 1.415 . S
C488 C493 1.425 1_565 S
C488 C495 1.409 . S
C489 H481 0.930 . S
C489 C487 1.419 . S
C489 C490 1.362 . S
C490 H482 0.930 . S
C490 C489 1.362 . S
C490 C493 1.409 . S
C491 H483 0.930 . S
C491 C492 1.355 . S
C491 C493 1.415 1_556 S
C492 C491 1.355 . S
C492 C494 1.419 1_546 S
C493 C488 1.425 1_545 S
C493 C490 1.409 . S
C493 C491 1.415 1_554 S
C494 H484 0.930 . S
C494 C492 1.419 1_564 S
C494 C495 1.362 . S
C495 H485 0.930 . S
C495 C488 1.409 . S
C495 C494 1.362 . S
H496 C502 0.930 . S
H497 C505 0.930 . S
H498 C506 0.930 . S
H499 C507 0.930 . S
H500 C510 0.930 . S
H501 C511 0.930 . S
C502 H496 0.930 . S
C502 C503 1.355 . S
C502 C504 1.415 . S
C503 C502 1.355 . S
C503 C505 1.419 . S
C504 C502 1.415 . S
C504 C509 1.425 . S
C504 C511 1.409 . S
C505 H497 0.930 . S
C505 C503 1.419 . S
C505 C506 1.362 . S
C506 H498 0.930 . S
C506 C505 1.362 . S
C506 C509 1.409 . S
C507 H499 0.930 . S
C507 C508 1.355 . S
C507 C509 1.415 1_556 S
C508 C507 1.355 . S
C508 C510 1.419 . S
C509 C504 1.425 . S
C509 C506 1.409 . S
C509 C507 1.415 1_554 S
C510 H500 0.930 . S
C510 C508 1.419 . S
C510 C511 1.362 1_556 S
C511 H501 0.930 . S
C511 C504 1.409 . S
C511 C510 1.362 1_554 S
H512 C518 0.930 . S
H513 C521 0.930 . S
H514 C522 0.930 . S
H515 C523 0.930 . S
H516 C526 0.930 . S
H517 C527 0.930 . S
C518 H512 0.930 . S
C518 C519 1.355 . S
C518 C520 1.415 1_554 S
C519 C518 1.355 . S
C519 C521 1.419 . S
C520 C518 1.415 1_556 S
C520 C525 1.425 1_556 S
C520 C527 1.409 . S
C521 H513 0.930 . S
C521 C519 1.419 . S
C521 C522 1.362 . S
C522 H514 0.930 . S
C522 C521 1.362 . S
C522 C525 1.409 . S
C523 H515 0.930 . S
C523 C524 1.355 1_554 S
C523 C525 1.415 . S
C524 C523 1.355 1_556 S
C524 C526 1.419 . S
C525 C520 1.425 1_554 S
C525 C522 1.409 . S
C525 C523 1.415 . S
C526 H516 0.930 . S
C526 C524 1.419 . S
C526 C527 1.362 . S
C527 H517 0.930 . S
C527 C520 1.409 . S
C527 C526 1.362 . S
H528 C534 0.930 . S
H529 C537 0.930 . S
H530 C538 0.930 . S
H531 C539 0.930 . S
H532 C542 0.930 . S
H533 C543 0.930 . S
C534 H528 0.930 . S
C534 C535 1.355 . S
C534 C536 1.415 . S
C535 C534 1.355 . S
C535 C537 1.419 . S
C536 C534 1.415 . S
C536 C541 1.425 . S
C536 C543 1.409 . S
C537 H529 0.930 . S
C537 C535 1.419 . S
C537 C538 1.362 . S
C538 H530 0.930 . S
C538 C537 1.362 . S
C538 C541 1.409 . S
C539 H531 0.930 . S
C539 C540 1.355 . S
C539 C541 1.415 . S
C540 C539 1.355 . S
C540 C542 1.419 . S
C541 C536 1.425 . S
C541 C538 1.409 . S
C541 C539 1.415 . S
C542 H532 0.930 . S
C542 C540 1.419 . S
C542 C543 1.362 . S
C543 H533 0.930 . S
C543 C536 1.409 . S
C543 C542 1.362 . S
H544 C550 0.930 . S
H545 C553 0.930 . S
H546 C554 0.930 . S
H547 C555 0.930 . S
H548 C558 0.930 . S
H549 C559 0.930 . S
C550 H544 0.930 . S
C550 C551 1.355 1_565 S
C550 C552 1.415 . S
C551 C550 1.355 1_545 S
C551 C553 1.419 . S
C552 C550 1.415 . S
C552 C557 1.425 1_565 S
C552 C559 1.409 . S
C553 H545 0.930 . S
C553 C551 1.419 . S
C553 C554 1.362 . S
C554 H546 0.930 . S
C554 C553 1.362 . S
C554 C557 1.409 . S
C555 H547 0.930 . S
C555 C556 1.355 1_545 S
C555 C557 1.415 . S
C556 C555 1.355 1_565 S
C556 C558 1.419 . S
C557 C552 1.425 1_545 S
C557 C554 1.409 . S
C557 C555 1.415 . S
C558 H548 0.930 . S
C558 C556 1.419 . S
C558 C559 1.362 . S
C559 H549 0.930 . S
C559 C552 1.409 . S
C559 C558 1.362 . S
H560 C566 0.930 . S
H561 C569 0.930 . S
H562 C570 0.930 . S
H563 C571 0.930 . S
H564 C574 0.930 . S
H565 C575 0.930 . S
C566 H560 0.930 . S
C566 C567 1.355 . S
C566 C568 1.415 . S
C567 C566 1.355 . S
C567 C569 1.419 . S
C568 C566 1.415 . S
C568 C573 1.425 . S
C568 C575 1.409 . S
C569 H561 0.930 . S
C569 C567 1.419 . S
C569 C570 1.362 . S
C570 H562 0.930 . S
C570 C569 1.362 . S
C570 C573 1.409 . S
C571 H563 0.930 . S
C571 C572 1.355 . S
C571 C573 1.415 . S
C572 C571 1.355 . S
C572 C574 1.419 . S
C573 C568 1.425 . S
C573 C570 1.409 . S
C573 C571 1.415 . S
C574 H564 0.930 . S
C574 C572 1.419 . S
C574 C575 1.362 . S
C575 H565 0.930 . S
C575 C568 1.409 . S
C575 C574 1.362 . S
H576 C582 0.930 . S
H577 C585 0.930 . S
H578 C586 0.930 . S
H579 C587 0.930 . S
H580 C590 0.930 . S
H581 C591 0.930 . S
C582 H576 0.930 . S
C582 C583 1.355 . S
C582 C584 1.415 . S
C583 C582 1.355 . S
C583 C585 1.419 . S
C584 C582 1.415 . S
C584 C589 1.425 . S
C584 C591 1.409 . S
C585 H577 0.930 . S
C585 C583 1.419 . S
C585 C586 1.362 . S
C586 H578 0.930 . S
C586 C585 1.362 . S
C586 C589 1.409 . S
C587 H579 0.930 . S
C587 C588 1.355 . S
C587 C589 1.415 . S
C588 C587 1.355 . S
C588 C590 1.419 . S
C589 C584 1.425 . S
C589 C586 1.409 . S
C589 C587 1.415 . S
C590 H580 0.930 . S
C590 C588 1.419 . S
C590 C591 1.362 . S
C591 H581 0.930 . S
C591 C584 1.409 . S
C591 C590 1.362 . S
C215 C61 1.798 . S
C220 C89 1.817 . S
C236 C110 1.540 . S
C231 C70 1.516 . S
C252 C144 1.395 . S
C247 C43 1.363 . S
C268 C178 1.560 . S
C263 C52 1.562 . S
C284 C80 1.823 . S
C279 C25 1.799 1_545 S
C295 C34 1.538 . S
C300 C119 1.557 . S
C311 C7 1.363 . S
C316 C153 1.389 . S
C327 C16 1.539 . S
C332 C187 1.570 . S
C348 C101 0.692 . S
C343 C50 0.778 . S
C364 C106 0.880 . S
C359 C59 0.864 1_545 S
C380 C140 0.874 . S
C375 C67 0.886 . S
C391 C41 0.525 . S
C396 C174 0.458 . S
C407 C14 0.730 . S
C412 C72 0.672 1_455 S
C428 C135 0.873 . S
C423 C23 0.884 . S
C444 C169 0.878 . S
C439 C31 0.876 . S
C455 C5 0.487 . S
C460 C203 0.474 . S
C471 C49 1.388 . S
C476 C85 1.421 . S
C487 C58 1.751 1_545 S
C492 C114 1.805 . S
C508 C148 1.547 . S
C503 C68 1.515 . S
C524 C182 1.568 . S
C519 C40 1.473 . S
C535 C13 1.315 . S
C540 C76 1.388 . S
C556 C123 1.806 . S
C551 C22 1.769 1_545 S
C572 C157 1.541 . S
C567 C32 1.466 . S
C583 C4 1.539 . S
C588 C191 1.562 . S
