# Generated by pormake.
# Topology anh, (6,3)-cn, num edge types: 1
# Building blocks:
#     Node 0, Type 0, BuildingBlock: BETDEL_clean_sbu_0, # of connection points: 6
#     Node 1, Type 0, BuildingBlock: BETDEL_clean_sbu_0, # of connection points: 6
#     Node 2, Type 0, BuildingBlock: BETDEL_clean_sbu_0, # of connection points: 6
#     Node 3, Type 1, BuildingBlock: VETTIZ_charged_linker_0, # of connection points: 3
#     Node 4, Type 1, BuildingBlock: VETTIZ_charged_linker_0, # of connection points: 3
#     Node 5, Type 1, BuildingBlock: VETTIZ_charged_linker_0, # of connection points: 3
#     Node 6, Type 1, BuildingBlock: VETTIZ_charged_linker_0, # of connection points: 3
#     Node 7, Type 1, BuildingBlock: VETTIZ_charged_linker_0, # of connection points: 3
#     Node 8, Type 1, BuildingBlock: VETTIZ_charged_linker_0, # of connection points: 3
#     Edge 9, Type (0, 1), BuildingBlock: EZIPEK_clean_linker_0, # of connection points: 2
#     Edge 10, Type (0, 1), BuildingBlock: EZIPEK_clean_linker_0, # of connection points: 2
#     Edge 11, Type (0, 1), BuildingBlock: EZIPEK_clean_linker_0, # of connection points: 2
#     Edge 12, Type (0, 1), BuildingBlock: EZIPEK_clean_linker_0, # of connection points: 2
#     Edge 13, Type (0, 1), BuildingBlock: EZIPEK_clean_linker_0, # of connection points: 2
#     Edge 14, Type (0, 1), BuildingBlock: EZIPEK_clean_linker_0, # of connection points: 2
#     Edge 15, Type (0, 1), BuildingBlock: EZIPEK_clean_linker_0, # of connection points: 2
#     Edge 16, Type (0, 1), BuildingBlock: EZIPEK_clean_linker_0, # of connection points: 2
#     Edge 17, Type (0, 1), BuildingBlock: EZIPEK_clean_linker_0, # of connection points: 2
#     Edge 18, Type (0, 1), BuildingBlock: EZIPEK_clean_linker_0, # of connection points: 2
#     Edge 19, Type (0, 1), BuildingBlock: EZIPEK_clean_linker_0, # of connection points: 2
#     Edge 20, Type (0, 1), BuildingBlock: EZIPEK_clean_linker_0, # of connection points: 2
#     Edge 21, Type (0, 1), BuildingBlock: EZIPEK_clean_linker_0, # of connection points: 2
#     Edge 22, Type (0, 1), BuildingBlock: EZIPEK_clean_linker_0, # of connection points: 2
#     Edge 23, Type (0, 1), BuildingBlock: EZIPEK_clean_linker_0, # of connection points: 2
#     Edge 24, Type (0, 1), BuildingBlock: EZIPEK_clean_linker_0, # of connection points: 2
#     Edge 25, Type (0, 1), BuildingBlock: EZIPEK_clean_linker_0, # of connection points: 2
#     Edge 26, Type (0, 1), BuildingBlock: EZIPEK_clean_linker_0, # of connection points: 2
# Relax obj value: 0.152
# Max RMSD: 0.169
# Mean RMSD: 0.138
data_MOF--net-anh--node1-BETDEL_clean_sbu_0--node2-VETTIZ_charged_linker_0--edge1-EZIPEK_clean_linker_0
_symmetry_space_group_name_H-M    P1
_symmetry_Int_Tables_number       1
_symmetry_cell_setting            triclinic
loop_
_symmetry_equiv_pos_as_xyz
'x, y, z'
_cell_length_a     27.118739
_cell_length_b     27.099226
_cell_length_c     51.178659
_cell_angle_alpha  89.851509
_cell_angle_beta   90.177162
_cell_angle_gamma 119.63712
loop_
_atom_site_label
_atom_site_type_symbol
_atom_site_fract_x
_atom_site_fract_y
_atom_site_fract_z
_atom_type_partial_charge
Dy0 Dy 0.09513 0.48935 0.15654 0.0
C1 C 0.96499 0.598 0.17423 0.0
C2 C 0.1549 0.43429 0.1482 0.0
Dy3 Dy 1.02579 0.54681 0.15917 0.0
O4 O 0.12387 0.4278 0.16851 0.0
O5 O 0.15188 0.46986 0.13214 0.0
O6 O 0.12878 0.5202 0.1967 0.0
O7 O 0.04583 0.50009 0.18761 0.0
C8 C 0.08386 0.52048 0.20486 0.0
C9 C 1.03716 0.51682 0.11052 0.0
O10 O 0.11471 0.62231 0.16501 0.0
O11 O 0.16599 0.57948 0.15168 0.0
O12 O 0.9981 0.61215 0.15397 0.0
O13 O 0.96556 0.55582 0.18587 0.0
O14 O 0.9926 0.51804 0.1188 0.0
O15 O 0.07504 0.53655 0.12794 0.0
O16 O 1.00766 0.41397 0.14917 0.0
O17 O 0.95552 0.45606 0.16226 0.0
C18 C 0.16377 0.6254 0.15873 0.0
C19 C 0.9585 0.41045 0.15545 0.0
Dy20 Dy 0.49449 0.07443 0.48577 0.0
C21 C 0.72895 0.2033 0.50493 0.0
C22 C 0.38309 1.00277 0.47615 0.0
Dy23 Dy 0.6217 0.13614 0.48741 0.0
O24 O 0.40243 0.04034 0.4946 0.0
O25 O 0.42471 1.00503 0.46272 0.0
O26 O 0.49189 0.10636 0.52585 0.0
O27 O 0.55667 0.0891 0.51594 0.0
C28 C 0.53931 0.10987 0.53311 0.0
C29 C 0.57948 0.10046 0.43977 0.0
O30 O 0.60943 0.0485 0.49189 0.0
O31 O 0.51146 1.00044 0.48807 0.0
O32 O 0.71357 0.19684 0.48056 0.0
O33 O 0.68573 0.1732 0.51983 0.0
O34 O 0.62767 0.10602 0.44765 0.0
O35 O 0.55965 0.11995 0.45664 0.0
O36 O 0.50957 0.1603 0.47346 0.0
O37 O 0.60152 0.20804 0.48921 0.0
C38 C 0.56022 1.00042 0.49087 0.0
C39 C 0.55516 0.20807 0.4807 0.0
Dy40 Dy 0.61514 0.619 0.81893 0.0
C41 C 0.52061 0.38044 0.83387 0.0
C42 C 0.66693 0.72988 0.80444 0.0
Dy43 Dy 0.55397 0.48977 0.82055 0.0
O44 O 0.67683 0.71145 0.82621 0.0
O45 O 0.62968 0.68769 0.79061 0.0
O46 O 0.58321 0.62116 0.85909 0.0
O47 O 0.59934 0.55595 0.84928 0.0
C48 C 0.57943 0.57373 0.86673 0.0
C49 C 0.55769 0.53369 0.77334 0.0
O50 O 0.48094 0.5055 0.82812 0.0
O51 O 0.52438 0.59689 0.81171 0.0
O52 O 0.53983 0.40303 0.81115 0.0
O53 O 0.51823 0.41715 0.84923 0.0
O54 O 0.5158 0.48545 0.78116 0.0
O55 O 0.59652 0.55326 0.79031 0.0
O56 O 0.6926 0.60852 0.81835 0.0
O57 O 0.64516 0.50962 0.81946 0.0
C58 C 0.47869 0.55124 0.82061 0.0
C59 C 0.69281 0.55952 0.81902 0.0
C60 C 0.69924 0.16154 0.16503 0.0
C61 C 0.74315 0.2113 0.17707 0.0
C62 C 0.73665 0.22228 0.20322 0.0
C63 C 0.64631 0.13518 0.20589 0.0
C64 C 0.65061 0.124 0.17992 0.0
C65 C 0.5983 0.06886 0.17139 0.0
H66 H 0.34283 0.83832 0.21016 0.0
C67 C 0.59305 0.08854 0.21669 0.0
C68 C 0.56337 0.04898 0.19671 0.0
H69 H 0.41246 0.86686 0.13251 0.0
H70 H 0.49466 0.9563 0.14683 0.0
H71 H 0.45385 0.86888 0.23838 0.0
H72 H 0.37149 0.96582 0.22151 0.0
H73 H 0.39692 0.98273 0.2537 0.0
H74 H 0.34606 0.91029 0.24554 0.0
H75 H 0.39525 0.86182 0.25735 0.0
H76 H 0.46765 0.91299 0.26554 0.0
C77 C 0.61726 0.02668 0.16232 0.0
C78 C 0.56723 0.08283 0.14988 0.0
C79 C 0.56018 0.0893 0.31421 0.0
C80 C 0.51785 0.05065 0.33095 0.0
C81 C 0.47006 1.00311 0.32045 0.0
C82 C 0.46556 0.99319 0.29342 0.0
C83 C 0.50949 0.03113 0.27683 0.0
C84 C 0.55522 0.07863 0.28734 0.0
C85 C 0.59819 0.1139 0.26706 0.0
C86 C 0.5716 0.07899 0.24258 0.0
C87 C 0.51983 0.0308 0.2484 0.0
C88 C 0.65495 0.11616 0.27434 0.0
C89 C 0.60091 0.17251 0.26588 0.0
C90 C 0.3754 0.86402 0.19611 0.0
C91 C 0.37092 0.84582 0.17025 0.0
C92 C 0.41478 0.88029 0.1526 0.0
C93 C 0.46239 0.93198 0.16094 0.0
C94 C 0.46629 0.94932 0.18722 0.0
C95 C 0.42262 0.91492 0.20408 0.0
C96 C 0.43264 0.93708 0.23138 0.0
C97 C 0.48885 0.99112 0.2285 0.0
C98 C 0.5097 0.99928 0.20263 0.0
C99 C 0.43727 0.89309 0.24928 0.0
C100 C 0.38427 0.94939 0.23868 0.0
H101 H 0.68795 0.19642 0.23741 0.0
H102 H 0.70296 0.15219 0.14482 0.0
H103 H 0.56057 0.11837 0.15614 0.0
H104 H 0.52496 0.04655 0.1455 0.0
H105 H 0.59246 0.09578 0.13156 0.0
H106 H 0.64511 1.02302 0.17729 0.0
H107 H 0.64144 0.04114 0.14375 0.0
H108 H 0.58103 0.98362 0.15932 0.0
H109 H 0.59732 0.12609 0.32201 0.0
H110 H 0.4371 0.97301 0.33325 0.0
H111 H 0.42857 0.95574 0.28662 0.0
H112 H 0.64709 0.07525 0.28308 0.0
H113 H 0.67926 0.15015 0.28883 0.0
H114 H 0.68231 0.12225 0.25733 0.0
H115 H 0.56064 0.16973 0.27266 0.0
H116 H 0.6063 0.1893 0.24571 0.0
H117 H 0.63558 0.20425 0.2784 0.0
H118 H 0.76933 0.26004 0.2128 0.0
C119 C 0.68899 0.185 0.21753 0.0
C120 C 0.55811 0.7445 0.501 0.0
C121 C 0.55325 0.78675 0.51532 0.0
C122 C 0.5451 0.78012 0.54247 0.0
C123 C 0.5525 0.69479 0.54154 0.0
C124 C 0.55666 0.69805 0.51462 0.0
C125 C 0.55853 0.64682 0.50353 0.0
H126 H 0.57206 0.40437 0.53233 0.0
C127 C 0.55629 0.645 0.55047 0.0
C128 C 0.55921 0.61545 0.52841 0.0
H129 H 0.55473 0.45803 0.45522 0.0
H130 H 0.55789 0.54319 0.47366 0.0
H131 H 0.66402 0.52578 0.55328 0.0
H132 H 0.48309 0.42428 0.5577 0.0
H133 H 0.50368 0.45755 0.58819 0.0
H134 H 0.52959 0.41096 0.57776 0.0
H135 H 0.62905 0.4661 0.57485 0.0
H136 H 0.64674 0.53683 0.58488 0.0
C137 C 0.61314 0.66738 0.48743 0.0
C138 C 0.50408 0.61158 0.48738 0.0
C139 C 0.56913 0.61748 0.64825 0.0
C140 C 0.57329 0.57554 0.66264 0.0
C141 C 0.57725 0.53219 0.6495 0.0
C142 C 0.57611 0.52989 0.62224 0.0
C143 C 0.57058 0.57124 0.60791 0.0
C144 C 0.5674 0.61416 0.6209 0.0
C145 C 0.56045 0.65347 0.60241 0.0
C146 C 0.56046 0.6272 0.57612 0.0
C147 C 0.5664 0.5793 0.57959 0.0
C148 C 0.61289 0.71336 0.60581 0.0
C149 C 0.50255 0.64992 0.60822 0.0
C150 C 0.56937 0.43462 0.51933 0.0
C151 C 0.56336 0.42476 0.49246 0.0
C152 C 0.55955 0.46496 0.47612 0.0
C153 C 0.56084 0.5139 0.48686 0.0
C154 C 0.56522 0.52211 0.51419 0.0
C155 C 0.56969 0.4824 0.52964 0.0
C156 C 0.57213 0.4948 0.5581 0.0
C157 C 0.56755 0.54807 0.55773 0.0
C158 C 0.56389 0.56524 0.53207 0.0
C159 C 0.63067 0.50613 0.56856 0.0
C160 C 0.51986 0.44441 0.57134 0.0
H161 H 0.53995 0.73386 0.5763 0.0
H162 H 0.56341 0.74797 0.48 0.0
H163 H 0.46618 0.60537 0.49845 0.0
H164 H 0.49686 0.56878 0.48284 0.0
H165 H 0.50572 0.63352 0.46876 0.0
H166 H 0.65075 0.69764 0.49903 0.0
H167 H 0.61155 0.6894 0.46937 0.0
H168 H 0.62013 0.63206 0.48174 0.0
H169 H 0.56591 0.65111 0.65809 0.0
H170 H 0.58056 0.49965 0.66044 0.0
H171 H 0.57889 0.49546 0.61351 0.0
H172 H 0.65233 0.71054 0.60765 0.0
H173 H 0.60901 0.73422 0.62374 0.0
H174 H 0.62036 0.74173 0.58901 0.0
H175 H 0.47282 0.60981 0.61845 0.0
H176 H 0.47965 0.64932 0.59015 0.0
H177 H 0.50796 0.68562 0.62079 0.0
H178 H 0.54046 0.81132 0.55381 0.0
C179 C 0.545 0.73498 0.55556 0.0
C180 C 0.22168 0.54624 0.83152 0.0
C181 C 0.26588 0.54181 0.84426 0.0
C182 C 0.26346 0.53414 0.87144 0.0
C183 C 0.17634 0.53813 0.87354 0.0
C184 C 0.17692 0.5441 0.84668 0.0
C185 C 0.12516 0.54733 0.83739 0.0
H186 H 0.89457 0.57359 0.87407 0.0
C187 C 0.12688 0.54024 0.88417 0.0
C188 C 0.09617 0.5461 0.86324 0.0
H189 H 0.93491 0.55063 0.79525 0.0
H190 H 1.01957 0.54898 0.81105 0.0
H191 H 0.90418 0.47613 0.89415 0.0
H192 H 1.02209 0.65487 0.89661 0.0
H193 H 1.0239 0.62785 0.92763 0.0
H194 H 0.95816 0.62077 0.91556 0.0
H195 H 0.89951 0.52095 0.91854 0.0
H196 H 0.94083 0.48604 0.9236 0.0
C197 C 0.08816 0.49432 0.82066 0.0
C198 C 0.14491 0.60343 0.82244 0.0
C199 C 0.10036 0.53126 0.98284 0.0
C200 C 0.06 0.53438 -0.00121 0.0
C201 C 1.01737 0.54253 0.98738 0.0
C202 C 1.01464 0.54732 0.96028 0.0
C203 C 0.05481 0.54354 0.94434 0.0
C204 C 0.09672 0.5357 0.95568 0.0
C205 C 0.13583 0.53314 0.93568 0.0
C206 C 0.10984 0.53975 0.91042 0.0
C207 C 0.06272 0.54598 0.91569 0.0
C208 C 0.13121 0.47383 0.93771 0.0
C209 C 0.19617 0.58415 0.9406 0.0
C210 C 0.92207 0.5692 0.86006 0.0
C211 C 0.90839 0.56303 0.83345 0.0
C212 C 0.9448 0.55604 0.81592 0.0
C213 C 0.99345 0.55446 0.82515 0.0
C214 C 1.00486 0.55822 0.85222 0.0
C215 C 0.96858 0.56498 0.86897 0.0
C216 C 0.98112 0.56132 0.89709 0.0
C217 C 1.03181 0.55259 0.89494 0.0
C218 C 0.04719 0.55177 0.86868 0.0
C219 C 0.92888 0.50881 0.90919 0.0
C220 C 0.99682 0.61888 0.91014 0.0
H221 H 0.22091 0.52687 0.90669 0.0
H222 H 0.2225 0.55189 0.81056 0.0
H223 H 0.17591 0.63996 0.83438 0.0
H224 H 0.10942 0.611 0.81786 0.0
H225 H 0.16581 0.60344 0.8038 0.0
H226 H 0.08374 0.45552 0.83033 0.0
H227 H 0.10756 0.49802 0.80115 0.0
H228 H 0.04467 0.48687 0.81796 0.0
H229 H 0.13382 0.52552 -0.00867 0.0
H230 H 0.98631 0.54548 -0.00045 0.0
H231 H 0.98133 0.55391 0.95288 0.0
H232 H 0.08742 0.4407 0.9431 0.0
H233 H 0.16045 0.47344 0.95285 0.0
H234 H 0.13942 0.45905 0.91896 0.0
H235 H 0.19424 0.62063 0.94945 0.0
H236 H 0.2206 0.60166 0.9224 0.0
H237 H 0.22082 0.57242 0.95413 0.0
H238 H 0.29678 0.53056 0.88152 0.0
C239 C 0.21929 0.53225 0.88604 0.0
C240 C 0.96566 0.44629 0.4936 0.0
C241 C 0.92505 0.39099 0.48649 0.0
C242 C 0.91777 0.37508 0.45997 0.0
C243 C 0.98599 0.47092 0.44773 0.0
C244 C 0.99376 0.48613 0.47384 0.0
C245 C 1.02869 0.54918 0.47752 0.0
H246 H 0.19665 0.80701 0.4251 0.0
C247 C 1.01814 0.52267 0.43208 0.0
C248 C 0.04237 0.56879 0.44937 0.0
H249 H 0.15002 0.76532 0.50601 0.0
H250 H 0.08587 0.66737 0.49431 0.0
H251 H 0.21448 0.71182 0.41298 0.0
H252 H 0.06404 0.72387 0.40078 0.0
H253 H 0.07539 0.69437 0.3724 0.0
H254 H 0.12868 0.76415 0.3828 0.0
H255 H 0.20621 0.7461 0.38463 0.0
H256 H 0.18247 0.67097 0.38507 0.0
C257 C 0.08241 0.56163 0.49327 0.0
C258 C 0.99105 0.57047 0.49065 0.0
C259 C 1.03187 0.50988 0.33355 0.0
C260 C 0.06436 0.55078 0.3147 0.0
C261 C 0.0994 0.60764 0.3222 0.0
C262 C 0.1017 0.62397 0.3482 0.0
C263 C 0.06923 0.58281 0.36696 0.0
C264 C 1.03578 0.52671 0.35965 0.0
C265 C 1.00693 0.48866 0.38265 0.0
C266 C 1.02833 0.53145 0.40484 0.0
C267 C 0.06388 0.5864 0.39537 0.0
C268 C 1.02889 0.4458 0.38486 0.0
C269 C 0.94186 0.46101 0.37884 0.0
C270 C 0.17096 0.77691 0.44006 0.0
C271 C 0.17771 0.7928 0.46636 0.0
C272 C 0.14461 0.75316 0.4856 0.0
C273 C 0.10811 0.69649 0.47876 0.0
C274 C 0.10479 0.68009 0.45248 0.0
C275 C 0.13442 0.72041 0.43355 0.0
C276 C 0.1266 0.69538 0.40675 0.0
C277 C 0.08736 0.63319 0.41269 0.0
C278 C 0.07555 0.62447 0.43948 0.0
C279 C 0.18527 0.70676 0.39659 0.0
C280 C 0.09748 0.72075 0.38956 0.0
H281 H 0.93996 0.40037 0.42068 0.0
H282 H 0.97191 0.45927 0.5139 0.0
H283 H 0.94511 0.541 0.48708 0.0
H284 H 0.99856 0.61154 0.48257 0.0
H285 H 0.99762 0.57444 0.51214 0.0
H286 H 0.1014 0.53647 0.4855 0.0
H287 H 0.0719 0.55007 0.51416 0.0
H288 H 0.11619 0.60642 0.49214 0.0
H289 H 1.00473 0.46589 0.32809 0.0
H290 H 0.12466 0.63952 0.30778 0.0
H291 H 0.12887 0.66798 0.35264 0.0
H292 H 0.07544 0.46734 0.38136 0.0
H293 H 1.00806 0.4114 0.37016 0.0
H294 H 1.02278 0.42645 0.4044 0.0
H295 H 0.93075 0.48916 0.36742 0.0
H296 H 0.9189 0.45392 0.39752 0.0
H297 H 0.92451 0.42011 0.36817 0.0
H298 H 0.88659 0.33232 0.45424 0.0
C299 C 0.94838 0.41465 0.44055 0.0
C300 C 0.69105 0.98416 0.79178 0.0
C301 C 0.70532 0.9513 0.77565 0.0
C302 C 0.71617 0.96479 0.749 0.0
C303 C 0.68795 0.03616 0.75378 0.0
C304 C 0.68197 0.026 0.7804 0.0
C305 C 0.65821 0.05895 0.79389 0.0
H306 H 0.55498 0.24028 0.78436 0.0
C307 C 0.66641 0.07518 0.74742 0.0
C308 C 0.64945 0.08919 0.77088 0.0
H309 H 0.57314 0.16176 0.85444 0.0
H310 H 0.61123 0.11264 0.8289 0.0
H311 H 0.67104 0.26646 0.75512 0.0
H312 H 0.49868 0.13121 0.75325 0.0
H313 H 0.52477 0.13006 0.72211 0.0
H314 H 0.52218 0.19228 0.73269 0.0
H315 H 0.61265 0.27218 0.74189 0.0
H316 H 0.65187 0.24866 0.72211 0.0
C317 C 0.70374 0.10104 0.81304 0.0
C318 C 0.60128 1.01633 0.807 0.0
C319 C 0.63694 0.11013 0.65253 0.0
C320 C 0.60899 0.13675 0.64112 0.0
C321 C 0.59193 0.16807 0.65686 0.0
C322 C 0.60053 0.17103 0.68387 0.0
C323 C 0.62541 0.14141 0.69531 0.0
C324 C 0.64392 0.11229 0.67971 0.0
C325 C 0.66598 0.0804 0.69552 0.0
C326 C 0.65691 0.09469 0.72316 0.0
C327 C 0.63319 0.13035 0.7228 0.0
C328 C 0.72974 0.10518 0.68921 0.0
C329 C 0.62845 1.01627 0.68933 0.0
C330 C 0.56737 0.21256 0.79417 0.0
C331 C 0.56251 0.20553 0.82132 0.0
C332 C 0.57755 0.16818 0.83349 0.0
C333 C 0.59962 0.14 0.81864 0.0
C334 C 0.60508 0.14829 0.79137 0.0
C335 C 0.58804 0.18338 0.77964 0.0
C336 C 0.59256 0.18434 0.75045 0.0
C337 C 0.61786 0.14613 0.74648 0.0
C338 C 0.62541 0.12529 0.77042 0.0
C339 C 0.63388 0.2461 0.74172 0.0
C340 C 0.53171 0.15856 0.73886 0.0
H341 H 0.71463 1.0144 0.71734 0.0
H342 H 0.68201 0.97383 0.81231 0.0
H343 H 0.57856 0.97662 0.79535 0.0
H344 H 0.57113 0.03248 0.80826 0.0
H345 H 0.60837 1.00448 0.82689 0.0
H346 H 0.74657 0.12087 0.80397 0.0
H347 H 0.70508 0.07899 0.83113 0.0
H348 H 0.69719 0.13678 0.81842 0.0
H349 H 0.65011 0.08562 0.6407 0.0
H350 H 0.57058 0.18902 0.64824 0.0
H351 H 0.58598 0.19498 0.69484 0.0
H352 H 0.7503 0.15146 0.68498 0.0
H353 H 0.73572 0.08426 0.67182 0.0
H354 H 0.75406 0.1018 0.70582 0.0
H355 H 0.58329 1.00495 0.68678 0.0
H356 H 0.62778 0.98828 0.70515 0.0
H357 H 0.64227 1.0049 0.671 0.0
H358 H 0.7272 0.93964 0.73641 0.0
C359 C 0.70805 1.00755 0.73799 0.0
C360 C 0.70963 0.55401 0.14923 0.0
C361 C 0.76395 0.56876 0.14002 0.0
C362 C 0.77182 0.56306 0.11323 0.0
C363 C 0.67256 0.52945 0.10511 0.0
C364 C 0.66422 0.53247 0.13156 0.0
C365 C 0.60238 0.50722 0.13822 0.0
H366 H 0.33589 0.41938 0.09607 0.0
C367 C 0.61753 0.50724 0.09185 0.0
C368 C 0.57584 0.49249 0.11115 0.0
H369 H 0.39215 0.42743 0.17567 0.0
H370 H 0.48642 0.45196 0.16042 0.0
H371 H 0.42995 0.52523 0.07878 0.0
H372 H 0.40737 0.35786 0.07089 0.0
H373 H 0.43242 0.39283 0.04075 0.0
H374 H 0.36653 0.38331 0.05369 0.0
H375 H 0.3919 0.48091 0.05165 0.0
H376 H 0.46752 0.5289 0.05041 0.0
C377 C 0.59371 0.55353 0.15153 0.0
C378 C 0.5843 0.45355 0.15527 0.0
C379 C 0.61108 0.52482 -0.0069 0.0
C380 C 0.56749 0.51891 0.97628 0.0
C381 C 0.51252 0.49902 0.9862 0.0
C382 C 0.50088 0.48517 0.01255 0.0
C383 C 0.54502 0.49284 0.0294 0.0
C384 C 0.59914 0.5128 0.01972 0.0
C385 C 0.6413 0.52239 0.04103 0.0
C386 C 0.60321 0.50464 0.065 0.0
C387 C 0.54697 0.48676 0.05788 0.0
C388 C 0.68575 0.5865 0.0412 0.0
C389 C 0.66651 0.48285 0.0362 0.0
C390 C 0.36814 0.42457 0.1101 0.0
C391 C 0.35747 0.42174 0.13691 0.0
C392 C 0.40011 0.42931 0.15486 0.0
C393 C 0.45463 0.4441 0.14598 0.0
C394 C 0.46593 0.45109 0.119 0.0
C395 C 0.42246 0.43942 0.10159 0.0
C396 C 0.442 0.45034 0.07378 0.0
C397 C 0.50436 0.46954 0.07721 0.0
C398 C 0.51845 0.47108 0.1037 0.0
C399 C 0.43219 0.49847 0.06288 0.0
C400 C 0.4104 0.3934 0.05876 0.0
H401 H 0.735 0.54002 0.0756 0.0
H402 H 0.70248 0.55712 0.16982 0.0
H403 H 0.61296 0.43556 0.15245 0.0
H404 H 0.54164 0.4185 0.14999 0.0
H405 H 0.58504 0.46327 0.17639 0.0
H406 H 0.61464 0.59361 0.14002 0.0
H407 H 0.61245 0.56285 0.17146 0.0
H408 H 0.54868 0.54177 0.15314 0.0
H409 H 0.65364 0.53999 0.9858 0.0
H410 H 0.47844 0.49407 0.97341 0.0
H411 H 0.45808 0.4699 0.01878 0.0
H412 H 0.66437 0.6125 0.04017 0.0
H413 H 0.7145 0.59779 0.0241 0.0
H414 H 0.71202 0.60045 0.05898 0.0
H415 H 0.63671 0.44445 0.02491 0.0
H416 H 0.67406 0.46606 0.05461 0.0
H417 H 0.70676 0.50496 0.025 0.0
H418 H 0.81334 0.57359 0.10589 0.0
C419 C 0.72646 0.54362 0.09573 0.0
C420 C 0.2574 0.47415 0.15701 0.0
C421 C 0.205 0.42686 0.14949 0.0
C422 C 0.252 0.37096 0.14213 0.0
C423 C 0.30517 0.42104 0.14542 0.0
N424 N 0.35925 0.52242 0.15292 0.0
N425 N 0.15044 0.33001 0.13511 0.0
C426 C 0.30819 0.4731 0.15241 0.0
C427 C 0.20151 0.37481 0.14239 0.0
N428 N 0.25862 0.51999 0.16879 0.0
N429 N 0.25025 0.32011 0.13879 0.0
H430 H 0.11273 0.33147 0.13588 0.0
H431 H 0.14568 0.29262 0.12712 0.0
H432 H 0.28686 0.31656 0.13865 0.0
H433 H 0.21287 0.2812 0.13829 0.0
H434 H 0.29501 0.55293 0.17723 0.0
H435 H 0.2222 0.52256 0.17248 0.0
H436 H 0.36292 0.56242 0.15449 0.0
H437 H 0.39804 0.52431 0.14966 0.0
C438 C 0.83223 0.24747 0.5129 0.0
C439 C 0.78235 0.2515 0.51393 0.0
C440 C 0.8375 0.35482 0.51321 0.0
C441 C 0.8851 0.34985 0.50563 0.0
N442 N 0.93443 0.297 0.50567 0.0
N443 N 0.73559 0.30639 0.51995 0.0
C444 C 0.88477 0.29776 0.5086 0.0
C445 C 0.78469 0.30458 0.51655 0.0
N446 N 0.82818 0.1953 0.51475 0.0
N447 N 0.84241 0.40718 0.51613 0.0
H448 H 0.6968 0.27007 0.52354 0.0
H449 H 0.73245 0.34304 0.51867 0.0
H450 H 0.88034 0.44485 0.51354 0.0
H451 H 0.81037 0.4139 0.52328 0.0
H452 H 0.86245 0.1882 0.51378 0.0
H453 H 0.78946 0.15864 0.51831 0.0
H454 H 0.93812 0.26063 0.50648 0.0
H455 H 0.97299 0.33444 0.50305 0.0
C456 C 0.73541 0.83278 0.79493 0.0
C457 C 0.67946 0.78872 0.80015 0.0
C458 C 0.64139 0.8511 0.78931 0.0
C459 C 0.69744 0.89633 0.78525 0.0
N460 N 0.79843 0.93388 0.78815 0.0
N461 N 0.58204 0.76051 0.80997 0.0
C462 C 0.74481 0.88832 0.78931 0.0
C463 C 0.63333 0.79934 0.79971 0.0
N464 N 0.77892 0.82102 0.79447 0.0
N465 N 0.59563 0.85643 0.78204 0.0
H466 H 0.57489 0.72259 0.81854 0.0
H467 H 0.54864 0.76865 0.8126 0.0
H468 H 0.59907 0.89313 0.7737 0.0
H469 H 0.55423 0.82248 0.78192 0.0
H470 H 0.81967 0.84969 0.78808 0.0
H471 H 0.77331 0.78103 0.79908 0.0
H472 H 0.83464 0.93199 0.79326 0.0
H473 H 0.80636 0.97486 0.78393 0.0
C474 C 0.91625 0.65206 0.16083 0.0
C475 C 0.91851 0.61138 0.17731 0.0
C476 C 0.81605 0.55363 0.17748 0.0
C477 C 0.81354 0.58942 0.15778 0.0
N478 N 0.85667 0.68285 0.1386 0.0
N479 N 0.87211 0.54705 0.21289 0.0
C480 C 0.86234 0.64261 0.15229 0.0
C481 C 0.86868 0.57057 0.18985 0.0
N482 N 0.96553 0.69796 0.15277 0.0
N483 N 0.77054 0.50154 0.18274 0.0
H484 H 0.91081 0.56151 0.22256 0.0
H485 H 0.83646 0.51907 0.22361 0.0
H486 H 0.7316 0.48539 0.17327 0.0
H487 H 0.77316 0.47225 0.19508 0.0
H488 H 0.9677 0.72624 0.13842 0.0
H489 H 1.00465 0.70711 0.16075 0.0
H490 H 0.89 0.72363 0.13507 0.0
H491 H 0.81708 0.67656 0.13269 0.0
C492 C 0.32544 0.90148 0.48749 0.0
C493 C 0.32759 0.95132 0.47762 0.0
C494 C 0.2262 0.89863 0.46798 0.0
C495 C 0.22673 0.84764 0.47362 0.0
N496 N 0.27871 0.79942 0.48543 0.0
N497 N 0.28183 0.99963 0.45866 0.0
C498 C 0.27663 0.84864 0.48279 0.0
C499 C 0.27827 0.95083 0.46819 0.0
N500 N 0.36975 0.90477 0.50172 0.0
N501 N 0.17594 0.89675 0.4625 0.0
H502 H 0.3193 0.03867 0.4593 0.0
H503 H 0.24878 1.00108 0.44896 0.0
H504 H 0.13731 0.8588 0.46229 0.0
H505 H 0.17178 0.9327 0.46026 0.0
H506 H 0.3681 0.87017 0.51146 0.0
H507 H 0.40584 0.9432 0.50622 0.0
H508 H 0.31624 0.79869 0.48885 0.0
H509 H 0.24417 0.75922 0.48203 0.0
C510 C 0.47605 0.2754 0.83102 0.0
C511 C 0.51756 0.32696 0.84223 0.0
C512 C 0.58041 0.28803 0.84985 0.0
C513 C 0.54155 0.23853 0.83601 0.0
N514 N 0.44573 0.17639 0.82201 0.0
N515 N 0.59684 0.37429 0.8716 0.0
C516 C 0.48655 0.22908 0.82988 0.0
C517 C 0.56524 0.33015 0.85512 0.0
N518 N 0.42834 0.27212 0.82033 0.0
N519 N 0.63343 0.29723 0.85583 0.0
H520 H 0.58633 0.4056 0.87575 0.0
H521 H 0.62943 0.37639 0.88321 0.0
H522 H 0.64607 0.26719 0.8526 0.0
H523 H 0.66591 0.33586 0.86273 0.0
H524 H 0.39909 0.23792 0.80923 0.0
H525 H 0.41912 0.3051 0.82212 0.0
H526 H 0.40365 0.16543 0.81865 0.0
H527 H 0.45344 0.14228 0.82113 0.0
C528 C 0.5988 0.94217 0.51258 0.0
C529 C 0.55965 0.94487 0.49482 0.0
C530 C 0.51691 0.84125 0.48804 0.0
C531 C 0.56005 0.84074 0.50363 0.0
N532 N 0.65161 0.89481 0.52401 0.0
N533 N 0.48875 0.89666 0.46105 0.0
C534 C 0.60445 0.89282 0.51334 0.0
C535 C 0.52083 0.89434 0.48113 0.0
N536 N 0.62701 0.98418 0.53057 0.0
N537 N 0.47089 0.79117 0.48073 0.0
H538 H 0.49075 0.93405 0.45464 0.0
H539 H 0.46425 0.86215 0.44894 0.0
H540 H 0.46699 0.75176 0.485 0.0
H541 H 0.43488 0.78878 0.47214 0.0
H542 H 0.6524 0.98144 0.54519 0.0
H543 H 0.61888 1.01754 0.53343 0.0
H544 H 0.68724 0.93274 0.52953 0.0
H545 H 0.6572 0.85936 0.52464 0.0
C546 C 0.75364 0.52214 0.83868 0.0
C547 C 0.74826 0.5596 0.82087 0.0
C548 C 0.84948 0.59952 0.80957 0.0
C549 C 0.85257 0.55807 0.82551 0.0
N550 N 0.8014 0.46899 0.84848 0.0
N551 N 0.78887 0.62468 0.78458 0.0
C552 C 0.80244 0.51567 0.8377 0.0
C553 C 0.79556 0.59566 0.80486 0.0
N554 N 0.71442 0.49569 0.85796 0.0
N555 N 0.89797 0.64388 0.79978 0.0
H556 H 0.74994 0.6213 0.7798 0.0
H557 H 0.82055 0.6473 0.77089 0.0
H558 H 0.93796 0.64823 0.80279 0.0
H559 H 0.89883 0.67854 0.79047 0.0
H560 H 0.71969 0.47225 0.87279 0.0
H561 H 0.68074 0.50312 0.86127 0.0
H562 H 0.76439 0.4346 0.85569 0.0
H563 H 0.83594 0.46205 0.84751 0.0
C564 C 0.22293 0.73068 0.14688 0.0
C565 C 0.21828 0.68193 0.15987 0.0
C566 C 0.31913 0.73897 0.17271 0.0
C567 C 0.32113 0.78901 0.16304 0.0
N568 N 0.27264 0.83363 0.1431 0.0
N569 N 0.26077 0.64402 0.18955 0.0
C570 C 0.27241 0.78512 0.15061 0.0
C571 C 0.26631 0.68713 0.17375 0.0
N572 N 0.1811 0.7248 0.13012 0.0
N573 N 0.36807 0.741 0.18097 0.0
H574 H 0.22242 0.6069 0.19228 0.0
H575 H 0.2925 0.64755 0.20221 0.0
H576 H 0.40733 0.77822 0.18053 0.0
H577 H 0.37065 0.70492 0.1857 0.0
H578 H 0.18456 0.75734 0.11803 0.0
H579 H 0.14517 0.68584 0.12639 0.0
H580 H 0.23642 0.8344 0.13687 0.0
H581 H 0.30842 0.87378 0.14475 0.0
C582 C 0.60076 0.31289 0.46912 0.0
C583 C 0.55422 0.26311 0.47988 0.0
C584 C 0.50701 0.31881 0.48936 0.0
C585 C 0.55724 0.36969 0.48293 0.0
N586 N 0.65423 0.41603 0.46839 0.0
N587 N 0.46677 0.22217 0.50465 0.0
C588 C 0.60466 0.36695 0.47304 0.0
C589 C 0.50787 0.26674 0.49085 0.0
N590 N 0.64046 0.30849 0.45448 0.0
N591 N 0.45847 0.32054 0.49447 0.0
H592 H 0.46706 0.18442 0.50794 0.0
H593 H 0.4356 0.22487 0.51536 0.0
H594 H 0.45672 0.35814 0.49361 0.0
H595 H 0.41905 0.28423 0.49685 0.0
H596 H 0.67229 0.34239 0.44416 0.0
H597 H 0.63825 0.26976 0.45045 0.0
H598 H 0.69236 0.4171 0.46434 0.0
H599 H 0.65789 0.45606 0.47016 0.0
C600 C 0.42156 0.5993 0.83321 0.0
C601 C 0.42332 0.55162 0.82245 0.0
C602 C 0.31853 0.49988 0.82063 0.0
C603 C 0.31757 0.5481 0.83068 0.0
N604 N 0.36782 0.64831 0.83904 0.0
N605 N 0.37285 0.46273 0.79909 0.0
C606 C 0.36915 0.59945 0.83415 0.0
C607 C 0.37156 0.50374 0.81405 0.0
N608 N 0.46857 0.64251 0.84472 0.0
N609 N 0.26889 0.44973 0.81826 0.0
H610 H 0.41046 0.46481 0.79305 0.0
H611 H 0.33688 0.4298 0.79039 0.0
H612 H 0.22941 0.44629 0.82177 0.0
H613 H 0.26716 0.41125 0.81422 0.0
H614 H 0.46789 0.67509 0.85518 0.0
H615 H 0.50689 0.64291 0.84652 0.0
H616 H 0.40405 0.68827 0.83929 0.0
H617 H 0.32986 0.64929 0.84004 0.0
C618 C 0.85515 0.34646 0.14297 0.0
C619 C 0.90477 0.35355 0.15599 0.0
C620 C 0.8488 0.25561 0.17271 0.0
C621 C 0.79787 0.25314 0.16404 0.0
N622 N 0.75206 0.29747 0.14145 0.0
N623 N 0.94665 0.31539 0.18595 0.0
C624 C 0.80098 0.29864 0.14898 0.0
C625 C 0.90132 0.30782 0.1712 0.0
N626 N 0.85998 0.38482 0.12438 0.0
N627 N 0.84651 0.20791 0.18292 0.0
H628 H 0.98512 0.35328 0.18653 0.0
H629 H 0.94447 0.2858 0.1996 0.0
H630 H 0.80853 0.16944 0.18426 0.0
H631 H 0.88246 0.20501 0.18746 0.0
H632 H 0.8264 0.37957 0.11256 0.0
H633 H 0.89902 0.4189 0.11888 0.0
H634 H 0.75105 0.33227 0.13338 0.0
H635 H 0.71206 0.26234 0.14462 0.0
C636 C 0.04358 0.47539 0.06787 0.0
C637 C 0.05091 0.52301 0.08238 0.0
C638 C 0.07872 0.58073 0.04255 0.0
C639 C 0.06263 0.53108 0.02763 0.0
N640 N 1.02549 0.42983 0.02549 0.0
N641 N 0.07104 0.62037 0.08361 0.0
C642 C 0.04446 0.47803 0.04011 0.0
C643 C 0.06769 0.57571 0.06978 0.0
N644 N 1.03621 0.42789 0.08064 0.0
N645 N 0.10537 0.63276 0.03067 0.0
H646 H 0.06426 0.6189 0.1037 0.0
H647 H 0.07652 0.65755 0.07494 0.0
H648 H 0.11444 0.63786 0.01072 0.0
H649 H 0.12328 0.67095 0.04088 0.0
H650 H 1.03606 0.39374 0.07129 0.0
H651 H 1.03553 0.42493 0.10095 0.0
H652 H 1.00563 0.38914 0.03346 0.0
H653 H 1.02587 0.43008 0.00511 0.0
C654 C 0.55834 0.03729 0.40074 0.0
C655 C 0.55846 0.08488 0.4125 0.0
C656 C 0.51919 0.10084 0.37213 0.0
C657 C 0.52635 0.05838 0.35957 0.0
N658 N 0.55975 0.99077 0.36065 0.0
N659 N 0.55044 0.16953 0.40704 0.0
C660 C 0.54755 0.02759 0.37355 0.0
C661 C 0.54134 0.11847 0.39772 0.0
N662 N 0.56727 1.00045 0.41561 0.0
N663 N 0.4914 0.1245 0.35954 0.0
H664 H 0.57096 0.18692 0.42461 0.0
H665 H 0.5438 0.19799 0.39593 0.0
H666 H 0.47524 0.11285 0.34064 0.0
H667 H 0.47972 0.15146 0.3687 0.0
H668 H 0.56107 0.96167 0.4087 0.0
H669 H 0.57578 1.00583 0.43556 0.0
H670 H 0.58196 0.9726 0.36915 0.0
H671 H 0.55164 0.98162 0.34081 0.0
C672 C 0.51944 0.55375 0.73257 0.0
C673 C 0.56501 0.55236 0.74567 0.0
C674 C 0.62092 0.58361 0.70543 0.0
C675 C 0.5721 0.57502 0.69156 0.0
N676 N 0.47212 0.5451 0.69131 0.0
N677 N 0.65567 0.55506 0.74257 0.0
C678 C 0.52062 0.55871 0.70495 0.0
C679 C 0.61531 0.5651 0.73174 0.0
N680 N 0.47547 0.55141 0.7465 0.0
N681 N 0.67256 0.60901 0.69336 0.0
H682 H 0.65174 0.53661 0.76085 0.0
H683 H 0.69025 0.55874 0.73212 0.0
H684 H 0.67791 0.62313 0.67403 0.0
H685 H 0.71048 0.62123 0.70329 0.0
H686 H 0.44407 0.558 0.73818 0.0
H687 H 0.47351 0.54873 0.76677 0.0
H688 H 0.43216 0.5265 0.69995 0.0
H689 H 0.47088 0.54801 0.67103 0.0
C690 C 0.53989 0.06746 0.57645 0.0
C691 C 0.55753 0.11632 0.5606 0.0
C692 C 0.61624 0.17691 0.59624 0.0
C693 C 0.5937 0.12897 0.61301 0.0
N694 N 0.52524 0.03007 0.62044 0.0
N695 N 0.60305 0.21819 0.55672 0.0
C696 C 0.55332 0.07445 0.60349 0.0
C697 C 0.59297 0.1713 0.57086 0.0
N698 N 0.51004 1.01441 0.56578 0.0
N699 N 0.66088 0.22735 0.6043 0.0
H700 H 0.58572 0.21559 0.53824 0.0
H701 H 0.62409 0.25922 0.56428 0.0
H702 H 0.67977 0.23264 0.62264 0.0
H703 H 0.68264 0.26211 0.59194 0.0
H704 H 0.50223 0.97764 0.57571 0.0
H705 H 0.49636 1.00721 0.5464 0.0
H706 H 0.4911 0.99112 0.61491 0.0
H707 H 0.53221 0.03354 0.64056 0.0
C708 C 0.53865 0.50538 0.90425 0.0
C709 C 0.57932 0.55952 0.89471 0.0
C710 C 0.61476 0.58853 0.93928 0.0
C711 C 0.57768 0.53234 0.94806 0.0
N712 N 0.51768 0.4336 0.93701 0.0
N713 N 0.66658 0.64744 0.9025 0.0
C714 C 0.54426 0.48948 0.92986 0.0
C715 C 0.62079 0.59963 0.912 0.0
N716 N 0.49208 0.47063 0.88978 0.0
N717 N 0.64196 0.63184 0.95675 0.0
H718 H 0.67382 0.65616 0.88259 0.0
H719 H 0.70037 0.6752 0.91428 0.0
H720 H 0.63749 0.62611 0.97692 0.0
H721 H 0.66479 0.67432 0.95111 0.0
H722 H 0.45869 0.43283 0.89698 0.0
H723 H 0.48392 0.48305 0.87189 0.0
H724 H 0.49656 0.40068 0.92364 0.0
H725 H 0.52216 0.42033 0.9556 0.0
C726 C 0.05449 0.56112 0.24179 0.0
C727 C 0.07218 0.52286 0.23289 0.0
C728 C 0.08262 0.49997 0.2781 0.0
C729 C 0.06136 0.53552 0.28679 0.0
N730 N 1.01118 0.58599 0.27675 0.0
N731 N 0.08627 0.44333 0.24251 0.0
C732 C 0.04192 0.56141 0.26854 0.0
C733 C 0.08104 0.48827 0.25102 0.0
N734 N 0.05324 0.59987 0.22518 0.0
N735 N 0.10682 0.47961 0.29536 0.0
H736 H 0.08253 0.43172 0.22288 0.0
H737 H 0.08779 0.41391 0.25515 0.0
H738 H 0.10992 0.48801 0.31534 0.0
H739 H 0.12829 0.45855 0.28948 0.0
H740 H 0.04644 0.63264 0.23136 0.0
H741 H 0.06418 0.60234 0.20563 0.0
H742 H 0.99168 0.60094 0.26387 0.0
H743 H 1.00019 0.5859 0.29628 0.0
loop_
_geom_bond_atom_site_label_1
_geom_bond_atom_site_label_2
_geom_bond_distance
_geom_bond_site_symmetry_2
_ccdc_geom_bond_type
Dy0 O4 2.398 . S
Dy0 O5 2.491 . S
Dy0 O6 2.403 . S
Dy0 O7 2.664 . S
Dy0 O11 2.326 . S
Dy0 O15 2.310 . S
Dy0 O16 2.351 1_455 S
C1 O12 1.185 . S
C1 O13 1.355 . S
C2 O4 1.185 . S
C2 O5 1.355 . S
Dy3 O7 2.310 1_655 S
Dy3 O10 2.351 1_655 S
Dy3 O12 2.398 . S
Dy3 O13 2.491 . S
Dy3 O14 2.405 . S
Dy3 O15 2.664 1_655 S
Dy3 O17 2.326 . S
O4 Dy0 2.398 . S
O4 C2 1.185 . S
O5 Dy0 2.491 . S
O5 C2 1.355 . S
O6 Dy0 2.403 . S
O6 C8 1.254 . S
O7 Dy0 2.664 . S
O7 Dy3 2.310 1_455 S
O7 C8 1.268 . S
C8 O6 1.254 . S
C8 O7 1.268 . S
C9 O14 1.244 1_455 S
C9 O15 1.268 . S
O10 Dy3 2.351 1_455 S
O10 C18 1.249 . S
O11 Dy0 2.326 . S
O11 C18 1.267 . S
O12 C1 1.185 . S
O12 Dy3 2.398 . S
O13 C1 1.355 . S
O13 Dy3 2.491 . S
O14 Dy3 2.405 . S
O14 C9 1.244 1_655 S
O15 Dy0 2.310 . S
O15 Dy3 2.664 1_455 S
O15 C9 1.268 . S
O16 Dy0 2.351 1_655 S
O16 C19 1.249 . S
O17 Dy3 2.326 . S
O17 C19 1.267 . S
C18 O10 1.249 . S
C18 O11 1.267 . S
C19 O16 1.249 . S
C19 O17 1.267 . S
Dy20 O24 2.398 . S
Dy20 O25 2.491 . S
Dy20 O26 2.403 1_565 S
Dy20 O27 2.664 1_565 S
Dy20 O31 2.326 . S
Dy20 O35 2.310 1_565 S
Dy20 O36 2.351 1_565 S
C21 O32 1.185 . S
C21 O33 1.355 . S
C22 O24 1.185 . S
C22 O25 1.355 . S
Dy23 O27 2.310 . S
Dy23 O30 2.351 1_545 S
Dy23 O32 2.398 . S
Dy23 O33 2.491 . S
Dy23 O34 2.403 . S
Dy23 O35 2.664 . S
Dy23 O37 2.326 . S
O24 Dy20 2.398 . S
O24 C22 1.185 . S
O25 Dy20 2.491 . S
O25 C22 1.355 . S
O26 Dy20 2.403 1_545 S
O26 C28 1.254 . S
O27 Dy20 2.664 1_545 S
O27 Dy23 2.310 . S
O27 C28 1.268 . S
C28 O26 1.254 . S
C28 O27 1.268 . S
C29 O34 1.254 . S
C29 O35 1.268 . S
O30 Dy23 2.351 1_565 S
O30 C38 1.249 . S
O31 Dy20 2.326 . S
O31 C38 1.267 . S
O32 C21 1.185 . S
O32 Dy23 2.398 . S
O33 C21 1.355 . S
O33 Dy23 2.491 . S
O34 Dy23 2.403 . S
O34 C29 1.254 . S
O35 Dy20 2.310 1_545 S
O35 Dy23 2.664 . S
O35 C29 1.268 . S
O36 Dy20 2.351 1_545 S
O36 C39 1.249 . S
O37 Dy23 2.326 . S
O37 C39 1.267 . S
C38 O30 1.249 . S
C38 O31 1.267 . S
C39 O36 1.249 . S
C39 O37 1.267 . S
Dy40 O44 2.398 . S
Dy40 O45 2.491 . S
Dy40 O46 2.403 . S
Dy40 O47 2.664 . S
Dy40 O51 2.326 . S
Dy40 O55 2.310 . S
Dy40 O56 2.351 . S
C41 O52 1.185 . S
C41 O53 1.355 . S
C42 O44 1.185 . S
C42 O45 1.355 . S
Dy43 O47 2.310 . S
Dy43 O50 2.351 . S
Dy43 O52 2.398 . S
Dy43 O53 2.491 . S
Dy43 O54 2.403 . S
Dy43 O55 2.664 . S
Dy43 O57 2.326 . S
O44 Dy40 2.398 . S
O44 C42 1.185 . S
O45 Dy40 2.491 . S
O45 C42 1.355 . S
O46 Dy40 2.403 . S
O46 C48 1.254 . S
O47 Dy40 2.664 . S
O47 Dy43 2.310 . S
O47 C48 1.268 . S
C48 O46 1.254 . S
C48 O47 1.268 . S
C49 O54 1.254 . S
C49 O55 1.268 . S
O50 Dy43 2.351 . S
O50 C58 1.249 . S
O51 Dy40 2.326 . S
O51 C58 1.267 . S
O52 C41 1.185 . S
O52 Dy43 2.398 . S
O53 C41 1.355 . S
O53 Dy43 2.491 . S
O54 Dy43 2.403 . S
O54 C49 1.254 . S
O55 Dy40 2.310 . S
O55 Dy43 2.664 . S
O55 C49 1.268 . S
O56 Dy40 2.351 . S
O56 C59 1.249 . S
O57 Dy43 2.326 . S
O57 C59 1.267 . S
C58 O50 1.249 . S
C58 O51 1.267 . S
C59 O56 1.249 . S
C59 O57 1.267 . S
C60 C61 1.391 . S
C60 C64 1.391 . S
C60 H102 0.948 . S
C61 C60 1.391 . S
C61 C62 1.391 . S
C62 C61 1.391 . S
C62 H118 0.947 . S
C62 C119 1.392 . S
C63 C64 1.391 . S
C63 C67 1.397 . S
C63 C119 1.419 . S
C64 C60 1.391 . S
C64 C63 1.391 . S
C64 C65 1.399 . S
C65 C64 1.399 . S
C65 C68 1.396 . S
C65 C77 1.453 . S
C65 C78 1.684 . S
H66 C90 0.948 . S
C67 C63 1.397 . S
C67 C68 1.394 . S
C67 C86 1.723 . S
C68 C65 1.396 . S
C68 C67 1.394 . S
C68 C98 1.723 1_545 S
H69 C92 0.947 . S
H70 C93 0.948 . S
H71 C99 0.982 . S
H72 C100 0.979 . S
H73 C100 0.980 . S
H74 C100 0.983 . S
H75 C99 0.979 . S
H76 C99 0.977 . S
C77 C65 1.453 . S
C77 H106 0.982 . S
C77 H107 0.979 . S
C77 H108 0.977 1_545 S
C78 C65 1.684 . S
C78 H103 0.979 . S
C78 H104 0.980 . S
C78 H105 0.983 . S
C79 C80 1.391 . S
C79 C84 1.391 . S
C79 H109 0.948 . S
C80 C79 1.391 . S
C80 C81 1.391 1_545 S
C81 C80 1.391 1_565 S
C81 C82 1.392 . S
C81 H110 0.947 . S
C82 C81 1.392 . S
C82 C83 1.419 1_565 S
C82 H111 0.948 . S
C83 C82 1.419 1_545 S
C83 C84 1.391 . S
C83 C87 1.397 . S
C84 C79 1.391 . S
C84 C83 1.391 . S
C84 C85 1.399 . S
C85 C84 1.399 . S
C85 C86 1.396 . S
C85 C88 1.453 . S
C85 C89 1.684 . S
C86 C67 1.723 . S
C86 C85 1.396 . S
C86 C87 1.394 . S
C87 C83 1.397 . S
C87 C86 1.394 . S
C87 C97 1.723 1_545 S
C88 C85 1.453 . S
C88 H112 0.982 . S
C88 H113 0.979 . S
C88 H114 0.977 . S
C89 C85 1.684 . S
C89 H115 0.979 . S
C89 H116 0.980 . S
C89 H117 0.983 . S
C90 H66 0.948 . S
C90 C91 1.391 . S
C90 C95 1.391 . S
C91 C90 1.391 . S
C91 C92 1.391 . S
C92 H69 0.947 . S
C92 C91 1.391 . S
C92 C93 1.392 . S
C93 H70 0.948 . S
C93 C92 1.392 . S
C93 C94 1.419 . S
C94 C93 1.419 . S
C94 C95 1.391 . S
C94 C98 1.397 . S
C95 C90 1.391 . S
C95 C94 1.391 . S
C95 C96 1.399 . S
C96 C95 1.399 . S
C96 C97 1.396 . S
C96 C99 1.453 . S
C96 C100 1.684 . S
C97 C87 1.723 1_565 S
C97 C96 1.396 . S
C97 C98 1.394 . S
C98 C68 1.723 1_565 S
C98 C94 1.397 . S
C98 C97 1.394 . S
C99 H71 0.982 . S
C99 H75 0.979 . S
C99 H76 0.977 . S
C99 C96 1.453 . S
C100 H72 0.979 . S
C100 H73 0.980 . S
C100 H74 0.983 . S
C100 C96 1.684 . S
H101 C119 0.948 . S
H102 C60 0.948 . S
H103 C78 0.979 . S
H104 C78 0.980 . S
H105 C78 0.983 . S
H106 C77 0.982 . S
H107 C77 0.979 . S
H108 C77 0.977 1_565 S
H109 C79 0.948 . S
H110 C81 0.947 . S
H111 C82 0.948 . S
H112 C88 0.982 . S
H113 C88 0.979 . S
H114 C88 0.977 . S
H115 C89 0.979 . S
H116 C89 0.980 . S
H117 C89 0.983 . S
H118 C62 0.947 . S
C119 C62 1.392 . S
C119 C63 1.419 . S
C119 H101 0.948 . S
C120 C121 1.391 . S
C120 C124 1.391 . S
C120 H162 0.948 . S
C121 C120 1.391 . S
C121 C122 1.391 . S
C122 C121 1.391 . S
C122 H178 0.947 . S
C122 C179 1.392 . S
C123 C124 1.391 . S
C123 C127 1.397 . S
C123 C179 1.419 . S
C124 C120 1.391 . S
C124 C123 1.391 . S
C124 C125 1.399 . S
C125 C124 1.399 . S
C125 C128 1.396 . S
C125 C137 1.453 . S
C125 C138 1.684 . S
H126 C150 0.948 . S
C127 C123 1.397 . S
C127 C128 1.394 . S
C127 C146 1.723 . S
C128 C125 1.396 . S
C128 C127 1.394 . S
C128 C158 1.723 . S
H129 C152 0.947 . S
H130 C153 0.948 . S
H131 C159 0.982 . S
H132 C160 0.979 . S
H133 C160 0.980 . S
H134 C160 0.983 . S
H135 C159 0.979 . S
H136 C159 0.977 . S
C137 C125 1.453 . S
C137 H166 0.982 . S
C137 H167 0.979 . S
C137 H168 0.977 . S
C138 C125 1.684 . S
C138 H163 0.979 . S
C138 H164 0.980 . S
C138 H165 0.983 . S
C139 C140 1.391 . S
C139 C144 1.391 . S
C139 H169 0.948 . S
C140 C139 1.391 . S
C140 C141 1.391 . S
C141 C140 1.391 . S
C141 C142 1.392 . S
C141 H170 0.947 . S
C142 C141 1.392 . S
C142 C143 1.419 . S
C142 H171 0.948 . S
C143 C142 1.419 . S
C143 C144 1.391 . S
C143 C147 1.397 . S
C144 C139 1.391 . S
C144 C143 1.391 . S
C144 C145 1.399 . S
C145 C144 1.399 . S
C145 C146 1.396 . S
C145 C148 1.453 . S
C145 C149 1.684 . S
C146 C127 1.723 . S
C146 C145 1.396 . S
C146 C147 1.394 . S
C147 C143 1.397 . S
C147 C146 1.394 . S
C147 C157 1.723 . S
C148 C145 1.453 . S
C148 H172 0.982 . S
C148 H173 0.979 . S
C148 H174 0.977 . S
C149 C145 1.684 . S
C149 H175 0.979 . S
C149 H176 0.980 . S
C149 H177 0.983 . S
C150 H126 0.948 . S
C150 C151 1.391 . S
C150 C155 1.391 . S
C151 C150 1.391 . S
C151 C152 1.391 . S
C152 H129 0.947 . S
C152 C151 1.391 . S
C152 C153 1.392 . S
C153 H130 0.948 . S
C153 C152 1.392 . S
C153 C154 1.419 . S
C154 C153 1.419 . S
C154 C155 1.391 . S
C154 C158 1.397 . S
C155 C150 1.391 . S
C155 C154 1.391 . S
C155 C156 1.399 . S
C156 C155 1.399 . S
C156 C157 1.396 . S
C156 C159 1.453 . S
C156 C160 1.684 . S
C157 C147 1.723 . S
C157 C156 1.396 . S
C157 C158 1.394 . S
C158 C128 1.723 . S
C158 C154 1.397 . S
C158 C157 1.394 . S
C159 H131 0.982 . S
C159 H135 0.979 . S
C159 H136 0.977 . S
C159 C156 1.453 . S
C160 H132 0.979 . S
C160 H133 0.980 . S
C160 H134 0.983 . S
C160 C156 1.684 . S
H161 C179 0.948 . S
H162 C120 0.948 . S
H163 C138 0.979 . S
H164 C138 0.980 . S
H165 C138 0.983 . S
H166 C137 0.982 . S
H167 C137 0.979 . S
H168 C137 0.977 . S
H169 C139 0.948 . S
H170 C141 0.947 . S
H171 C142 0.948 . S
H172 C148 0.982 . S
H173 C148 0.979 . S
H174 C148 0.977 . S
H175 C149 0.979 . S
H176 C149 0.980 . S
H177 C149 0.983 . S
H178 C122 0.947 . S
C179 C122 1.392 . S
C179 C123 1.419 . S
C179 H161 0.948 . S
C180 C181 1.391 . S
C180 C184 1.391 . S
C180 H222 0.948 . S
C181 C180 1.391 . S
C181 C182 1.391 . S
C182 C181 1.391 . S
C182 H238 0.947 . S
C182 C239 1.392 . S
C183 C184 1.391 . S
C183 C187 1.397 . S
C183 C239 1.419 . S
C184 C180 1.391 . S
C184 C183 1.391 . S
C184 C185 1.399 . S
C185 C184 1.399 . S
C185 C188 1.396 . S
C185 C197 1.453 . S
C185 C198 1.684 . S
H186 C210 0.948 . S
C187 C183 1.397 . S
C187 C188 1.394 . S
C187 C206 1.723 . S
C188 C185 1.396 . S
C188 C187 1.394 . S
C188 C218 1.723 . S
H189 C212 0.947 . S
H190 C213 0.948 1_455 S
H191 C219 0.982 . S
H192 C220 0.979 . S
H193 C220 0.980 . S
H194 C220 0.983 . S
H195 C219 0.979 . S
H196 C219 0.977 . S
C197 C185 1.453 . S
C197 H226 0.982 . S
C197 H227 0.979 . S
C197 H228 0.977 . S
C198 C185 1.684 . S
C198 H223 0.979 . S
C198 H224 0.980 . S
C198 H225 0.983 . S
C199 C200 1.391 1_556 S
C199 C204 1.391 . S
C199 H229 0.948 . S
C200 C199 1.391 1_554 S
C200 C201 1.391 1_454 S
C201 C200 1.391 1_656 S
C201 C202 1.392 . S
C201 H230 0.947 1_556 S
C202 C201 1.392 . S
C202 C203 1.419 1_655 S
C202 H231 0.948 . S
C203 C202 1.419 1_455 S
C203 C204 1.391 . S
C203 C207 1.397 . S
C204 C199 1.391 . S
C204 C203 1.391 . S
C204 C205 1.399 . S
C205 C204 1.399 . S
C205 C206 1.396 . S
C205 C208 1.453 . S
C205 C209 1.684 . S
C206 C187 1.723 . S
C206 C205 1.396 . S
C206 C207 1.394 . S
C207 C203 1.397 . S
C207 C206 1.394 . S
C207 C217 1.723 1_455 S
C208 C205 1.453 . S
C208 H232 0.982 . S
C208 H233 0.979 . S
C208 H234 0.977 . S
C209 C205 1.684 . S
C209 H235 0.979 . S
C209 H236 0.980 . S
C209 H237 0.983 . S
C210 H186 0.948 . S
C210 C211 1.391 . S
C210 C215 1.391 . S
C211 C210 1.391 . S
C211 C212 1.391 . S
C212 H189 0.947 . S
C212 C211 1.391 . S
C212 C213 1.392 . S
C213 H190 0.948 1_655 S
C213 C212 1.392 . S
C213 C214 1.419 . S
C214 C213 1.419 . S
C214 C215 1.391 . S
C214 C218 1.397 1_655 S
C215 C210 1.391 . S
C215 C214 1.391 . S
C215 C216 1.399 . S
C216 C215 1.399 . S
C216 C217 1.396 . S
C216 C219 1.453 . S
C216 C220 1.684 . S
C217 C207 1.723 1_655 S
C217 C216 1.396 . S
C217 C218 1.394 1_655 S
C218 C188 1.723 . S
C218 C214 1.397 1_455 S
C218 C217 1.394 1_455 S
C219 H191 0.982 . S
C219 H195 0.979 . S
C219 H196 0.977 . S
C219 C216 1.453 . S
C220 H192 0.979 . S
C220 H193 0.980 . S
C220 H194 0.983 . S
C220 C216 1.684 . S
H221 C239 0.948 . S
H222 C180 0.948 . S
H223 C198 0.979 . S
H224 C198 0.980 . S
H225 C198 0.983 . S
H226 C197 0.982 . S
H227 C197 0.979 . S
H228 C197 0.977 . S
H229 C199 0.948 . S
H230 C201 0.947 1_554 S
H231 C202 0.948 . S
H232 C208 0.982 . S
H233 C208 0.979 . S
H234 C208 0.977 . S
H235 C209 0.979 . S
H236 C209 0.980 . S
H237 C209 0.983 . S
H238 C182 0.947 . S
C239 C182 1.392 . S
C239 C183 1.419 . S
C239 H221 0.948 . S
C240 C241 1.391 . S
C240 C244 1.391 . S
C240 H282 0.948 . S
C241 C240 1.391 . S
C241 C242 1.391 . S
C242 C241 1.391 . S
C242 H298 0.947 . S
C242 C299 1.392 . S
C243 C244 1.391 . S
C243 C247 1.397 . S
C243 C299 1.419 . S
C244 C240 1.391 . S
C244 C243 1.391 . S
C244 C245 1.399 . S
C245 C244 1.399 . S
C245 C248 1.396 . S
C245 C257 1.453 . S
C245 C258 1.684 . S
H246 C270 0.948 . S
C247 C243 1.397 . S
C247 C248 1.394 . S
C247 C266 1.723 . S
C248 C245 1.396 . S
C248 C247 1.394 . S
C248 C278 1.723 1_655 S
H249 C272 0.947 . S
H250 C273 0.948 . S
H251 C279 0.982 . S
H252 C280 0.979 . S
H253 C280 0.980 . S
H254 C280 0.983 . S
H255 C279 0.979 . S
H256 C279 0.977 . S
C257 C245 1.453 . S
C257 H286 0.982 1_655 S
C257 H287 0.979 . S
C257 H288 0.977 1_655 S
C258 C245 1.684 . S
C258 H283 0.979 . S
C258 H284 0.980 . S
C258 H285 0.983 . S
C259 C260 1.391 1_655 S
C259 C264 1.391 . S
C259 H289 0.948 . S
C260 C259 1.391 1_455 S
C260 C261 1.391 . S
C261 C260 1.391 . S
C261 C262 1.392 . S
C261 H290 0.947 . S
C262 C261 1.392 . S
C262 C263 1.419 . S
C262 H291 0.948 . S
C263 C262 1.419 . S
C263 C264 1.391 1_455 S
C263 C267 1.397 . S
C264 C259 1.391 . S
C264 C263 1.391 1_655 S
C264 C265 1.399 . S
C265 C264 1.399 . S
C265 C266 1.396 . S
C265 C268 1.453 . S
C265 C269 1.684 . S
C266 C247 1.723 . S
C266 C265 1.396 . S
C266 C267 1.394 1_655 S
C267 C263 1.397 . S
C267 C266 1.394 1_455 S
C267 C277 1.723 . S
C268 C265 1.453 . S
C268 H292 0.982 . S
C268 H293 0.979 . S
C268 H294 0.977 . S
C269 C265 1.684 . S
C269 H295 0.979 . S
C269 H296 0.980 . S
C269 H297 0.983 . S
C270 H246 0.948 . S
C270 C271 1.391 . S
C270 C275 1.391 . S
C271 C270 1.391 . S
C271 C272 1.391 . S
C272 H249 0.947 . S
C272 C271 1.391 . S
C272 C273 1.392 . S
C273 H250 0.948 . S
C273 C272 1.392 . S
C273 C274 1.419 . S
C274 C273 1.419 . S
C274 C275 1.391 . S
C274 C278 1.397 . S
C275 C270 1.391 . S
C275 C274 1.391 . S
C275 C276 1.399 . S
C276 C275 1.399 . S
C276 C277 1.396 . S
C276 C279 1.453 . S
C276 C280 1.684 . S
C277 C267 1.723 . S
C277 C276 1.396 . S
C277 C278 1.394 . S
C278 C248 1.723 1_455 S
C278 C274 1.397 . S
C278 C277 1.394 . S
C279 H251 0.982 . S
C279 H255 0.979 . S
C279 H256 0.977 . S
C279 C276 1.453 . S
C280 H252 0.979 . S
C280 H253 0.980 . S
C280 H254 0.983 . S
C280 C276 1.684 . S
H281 C299 0.948 . S
H282 C240 0.948 . S
H283 C258 0.979 . S
H284 C258 0.980 . S
H285 C258 0.983 . S
H286 C257 0.982 1_455 S
H287 C257 0.979 . S
H288 C257 0.977 1_455 S
H289 C259 0.948 . S
H290 C261 0.947 . S
H291 C262 0.948 . S
H292 C268 0.982 . S
H293 C268 0.979 . S
H294 C268 0.977 . S
H295 C269 0.979 . S
H296 C269 0.980 . S
H297 C269 0.983 . S
H298 C242 0.947 . S
C299 C242 1.392 . S
C299 C243 1.419 . S
C299 H281 0.948 . S
C300 C301 1.391 . S
C300 C304 1.391 . S
C300 H342 0.948 . S
C301 C300 1.391 . S
C301 C302 1.391 . S
C302 C301 1.391 . S
C302 H358 0.947 . S
C302 C359 1.392 . S
C303 C304 1.391 . S
C303 C307 1.397 1_565 S
C303 C359 1.419 . S
C304 C300 1.391 . S
C304 C303 1.391 . S
C304 C305 1.399 1_565 S
C305 C304 1.399 1_545 S
C305 C308 1.396 . S
C305 C317 1.453 . S
C305 C318 1.684 . S
H306 C330 0.948 . S
C307 C303 1.397 1_545 S
C307 C308 1.394 . S
C307 C326 1.723 . S
C308 C305 1.396 . S
C308 C307 1.394 . S
C308 C338 1.723 . S
H309 C332 0.947 . S
H310 C333 0.948 . S
H311 C339 0.982 . S
H312 C340 0.979 . S
H313 C340 0.980 . S
H314 C340 0.983 . S
H315 C339 0.979 . S
H316 C339 0.977 . S
C317 C305 1.453 . S
C317 H346 0.982 . S
C317 H347 0.979 . S
C317 H348 0.977 . S
C318 C305 1.684 . S
C318 H343 0.979 1_545 S
C318 H344 0.980 . S
C318 H345 0.983 . S
C319 C320 1.391 . S
C319 C324 1.391 . S
C319 H349 0.948 1_545 S
C320 C319 1.391 . S
C320 C321 1.391 . S
C321 C320 1.391 . S
C321 C322 1.392 . S
C321 H350 0.947 . S
C322 C321 1.392 . S
C322 C323 1.419 . S
C322 H351 0.948 . S
C323 C322 1.419 . S
C323 C324 1.391 . S
C323 C327 1.397 . S
C324 C319 1.391 . S
C324 C323 1.391 . S
C324 C325 1.399 1_545 S
C325 C324 1.399 1_565 S
C325 C326 1.396 1_565 S
C325 C328 1.453 . S
C325 C329 1.684 . S
C326 C307 1.723 . S
C326 C325 1.396 1_545 S
C326 C327 1.394 . S
C327 C323 1.397 . S
C327 C326 1.394 . S
C327 C337 1.723 . S
C328 C325 1.453 . S
C328 H352 0.982 1_565 S
C328 H353 0.979 . S
C328 H354 0.977 . S
C329 C325 1.684 . S
C329 H355 0.979 . S
C329 H356 0.980 . S
C329 H357 0.983 . S
C330 H306 0.948 . S
C330 C331 1.391 . S
C330 C335 1.391 . S
C331 C330 1.391 . S
C331 C332 1.391 . S
C332 H309 0.947 . S
C332 C331 1.391 . S
C332 C333 1.392 . S
C333 H310 0.948 . S
C333 C332 1.392 . S
C333 C334 1.419 . S
C334 C333 1.419 . S
C334 C335 1.391 . S
C334 C338 1.397 . S
C335 C330 1.391 . S
C335 C334 1.391 . S
C335 C336 1.399 . S
C336 C335 1.399 . S
C336 C337 1.396 . S
C336 C339 1.453 . S
C336 C340 1.684 . S
C337 C327 1.723 . S
C337 C336 1.396 . S
C337 C338 1.394 . S
C338 C308 1.723 . S
C338 C334 1.397 . S
C338 C337 1.394 . S
C339 H311 0.982 . S
C339 H315 0.979 . S
C339 H316 0.977 . S
C339 C336 1.453 . S
C340 H312 0.979 . S
C340 H313 0.980 . S
C340 H314 0.983 . S
C340 C336 1.684 . S
H341 C359 0.948 . S
H342 C300 0.948 . S
H343 C318 0.979 1_565 S
H344 C318 0.980 . S
H345 C318 0.983 . S
H346 C317 0.982 . S
H347 C317 0.979 . S
H348 C317 0.977 . S
H349 C319 0.948 1_565 S
H350 C321 0.947 . S
H351 C322 0.948 . S
H352 C328 0.982 1_545 S
H353 C328 0.979 . S
H354 C328 0.977 . S
H355 C329 0.979 . S
H356 C329 0.980 . S
H357 C329 0.983 . S
H358 C302 0.947 . S
C359 C302 1.392 . S
C359 C303 1.419 . S
C359 H341 0.948 . S
C360 C361 1.391 . S
C360 C364 1.391 . S
C360 H402 0.948 . S
C361 C360 1.391 . S
C361 C362 1.391 . S
C362 C361 1.391 . S
C362 H418 0.947 . S
C362 C419 1.392 . S
C363 C364 1.391 . S
C363 C367 1.397 . S
C363 C419 1.419 . S
C364 C360 1.391 . S
C364 C363 1.391 . S
C364 C365 1.399 . S
C365 C364 1.399 . S
C365 C368 1.396 . S
C365 C377 1.453 . S
C365 C378 1.684 . S
H366 C390 0.948 . S
C367 C363 1.397 . S
C367 C368 1.394 . S
C367 C386 1.723 . S
C368 C365 1.396 . S
C368 C367 1.394 . S
C368 C398 1.723 . S
H369 C392 0.947 . S
H370 C393 0.948 . S
H371 C399 0.982 . S
H372 C400 0.979 . S
H373 C400 0.980 . S
H374 C400 0.983 . S
H375 C399 0.979 . S
H376 C399 0.977 . S
C377 C365 1.453 . S
C377 H406 0.982 . S
C377 H407 0.979 . S
C377 H408 0.977 . S
C378 C365 1.684 . S
C378 H403 0.979 . S
C378 H404 0.980 . S
C378 H405 0.983 . S
C379 C380 1.391 1_554 S
C379 C384 1.391 . S
C379 H409 0.948 . S
C380 C379 1.391 1_556 S
C380 C381 1.391 1_556 S
C381 C380 1.391 1_554 S
C381 C382 1.392 . S
C381 H410 0.947 1_554 S
C382 C381 1.392 . S
C382 C383 1.419 . S
C382 H411 0.948 . S
C383 C382 1.419 . S
C383 C384 1.391 . S
C383 C387 1.397 . S
C384 C379 1.391 . S
C384 C383 1.391 . S
C384 C385 1.399 . S
C385 C384 1.399 . S
C385 C386 1.396 . S
C385 C388 1.453 . S
C385 C389 1.684 . S
C386 C367 1.723 . S
C386 C385 1.396 . S
C386 C387 1.394 . S
C387 C383 1.397 . S
C387 C386 1.394 . S
C387 C397 1.723 . S
C388 C385 1.453 . S
C388 H412 0.982 . S
C388 H413 0.979 . S
C388 H414 0.977 . S
C389 C385 1.684 . S
C389 H415 0.979 . S
C389 H416 0.980 . S
C389 H417 0.983 . S
C390 H366 0.948 . S
C390 C391 1.391 . S
C390 C395 1.391 . S
C391 C390 1.391 . S
C391 C392 1.391 . S
C392 H369 0.947 . S
C392 C391 1.391 . S
C392 C393 1.392 . S
C393 H370 0.948 . S
C393 C392 1.392 . S
C393 C394 1.419 . S
C394 C393 1.419 . S
C394 C395 1.391 . S
C394 C398 1.397 . S
C395 C390 1.391 . S
C395 C394 1.391 . S
C395 C396 1.399 . S
C396 C395 1.399 . S
C396 C397 1.396 . S
C396 C399 1.453 . S
C396 C400 1.684 . S
C397 C387 1.723 . S
C397 C396 1.396 . S
C397 C398 1.394 . S
C398 C368 1.723 . S
C398 C394 1.397 . S
C398 C397 1.394 . S
C399 H371 0.982 . S
C399 H375 0.979 . S
C399 H376 0.977 . S
C399 C396 1.453 . S
C400 H372 0.979 . S
C400 H373 0.980 . S
C400 H374 0.983 . S
C400 C396 1.684 . S
H401 C419 0.948 . S
H402 C360 0.948 . S
H403 C378 0.979 . S
H404 C378 0.980 . S
H405 C378 0.983 . S
H406 C377 0.982 . S
H407 C377 0.979 . S
H408 C377 0.977 . S
H409 C379 0.948 . S
H410 C381 0.947 1_556 S
H411 C382 0.948 . S
H412 C388 0.982 . S
H413 C388 0.979 . S
H414 C388 0.977 . S
H415 C389 0.979 . S
H416 C389 0.980 . S
H417 C389 0.983 . S
H418 C362 0.947 . S
C419 C362 1.392 . S
C419 C363 1.419 . S
C419 H401 0.948 . S
C420 C421 1.363 . S
C420 C426 1.379 . S
C420 N428 1.356 . S
C421 C420 1.363 . S
C421 C427 1.363 . S
C422 C423 1.363 . S
C422 C427 1.379 . S
C422 N429 1.356 . S
C423 C422 1.363 . S
C423 C426 1.363 . S
N424 C426 1.356 . S
N424 H436 0.984 . S
N424 H437 0.985 . S
N425 C427 1.356 . S
N425 H430 0.984 . S
N425 H431 0.985 . S
C426 C420 1.379 . S
C426 C423 1.363 . S
C426 N424 1.356 . S
C427 C421 1.363 . S
C427 C422 1.379 . S
C427 N425 1.356 . S
N428 C420 1.356 . S
N428 H434 0.984 . S
N428 H435 0.984 . S
N429 C422 1.356 . S
N429 H432 0.984 . S
N429 H433 0.985 . S
H430 N425 0.984 . S
H431 N425 0.985 . S
H432 N429 0.984 . S
H433 N429 0.985 . S
H434 N428 0.984 . S
H435 N428 0.984 . S
H436 N424 0.984 . S
H437 N424 0.985 . S
C438 C439 1.363 . S
C438 C444 1.379 . S
C438 N446 1.356 . S
C439 C438 1.363 . S
C439 C445 1.363 . S
C440 C441 1.363 . S
C440 C445 1.379 . S
C440 N447 1.356 . S
C441 C440 1.363 . S
C441 C444 1.363 . S
N442 C444 1.356 . S
N442 H454 0.984 . S
N442 H455 0.985 . S
N443 C445 1.356 . S
N443 H448 0.984 . S
N443 H449 0.985 . S
C444 C438 1.379 . S
C444 C441 1.363 . S
C444 N442 1.356 . S
C445 C439 1.363 . S
C445 C440 1.379 . S
C445 N443 1.356 . S
N446 C438 1.356 . S
N446 H452 0.984 . S
N446 H453 0.984 . S
N447 C440 1.356 . S
N447 H450 0.984 . S
N447 H451 0.985 . S
H448 N443 0.984 . S
H449 N443 0.985 . S
H450 N447 0.984 . S
H451 N447 0.985 . S
H452 N446 0.984 . S
H453 N446 0.984 . S
H454 N442 0.984 . S
H455 N442 0.985 . S
C456 C457 1.363 . S
C456 C462 1.379 . S
C456 N464 1.356 . S
C457 C456 1.363 . S
C457 C463 1.363 . S
C458 C459 1.363 . S
C458 C463 1.379 . S
C458 N465 1.356 . S
C459 C458 1.363 . S
C459 C462 1.363 . S
N460 C462 1.356 . S
N460 H472 0.984 . S
N460 H473 0.985 . S
N461 C463 1.356 . S
N461 H466 0.984 . S
N461 H467 0.985 . S
C462 C456 1.379 . S
C462 C459 1.363 . S
C462 N460 1.356 . S
C463 C457 1.363 . S
C463 C458 1.379 . S
C463 N461 1.356 . S
N464 C456 1.356 . S
N464 H470 0.984 . S
N464 H471 0.984 . S
N465 C458 1.356 . S
N465 H468 0.984 . S
N465 H469 0.985 . S
H466 N461 0.984 . S
H467 N461 0.985 . S
H468 N465 0.984 . S
H469 N465 0.985 . S
H470 N464 0.984 . S
H471 N464 0.984 . S
H472 N460 0.984 . S
H473 N460 0.985 . S
C474 C475 1.363 . S
C474 C480 1.379 . S
C474 N482 1.356 . S
C475 C474 1.363 . S
C475 C481 1.363 . S
C476 C477 1.363 . S
C476 C481 1.379 . S
C476 N483 1.356 . S
C477 C476 1.363 . S
C477 C480 1.363 . S
N478 C480 1.356 . S
N478 H490 0.984 . S
N478 H491 0.985 . S
N479 C481 1.356 . S
N479 H484 0.984 . S
N479 H485 0.985 . S
C480 C474 1.379 . S
C480 C477 1.363 . S
C480 N478 1.356 . S
C481 C475 1.363 . S
C481 C476 1.379 . S
C481 N479 1.356 . S
N482 C474 1.356 . S
N482 H488 0.984 . S
N482 H489 0.984 . S
N483 C476 1.356 . S
N483 H486 0.984 . S
N483 H487 0.985 . S
H484 N479 0.984 . S
H485 N479 0.985 . S
H486 N483 0.984 . S
H487 N483 0.985 . S
H488 N482 0.984 . S
H489 N482 0.984 . S
H490 N478 0.984 . S
H491 N478 0.985 . S
C492 C493 1.363 . S
C492 C498 1.379 . S
C492 N500 1.356 . S
C493 C492 1.363 . S
C493 C499 1.363 . S
C494 C495 1.363 . S
C494 C499 1.379 . S
C494 N501 1.356 . S
C495 C494 1.363 . S
C495 C498 1.363 . S
N496 C498 1.356 . S
N496 H508 0.984 . S
N496 H509 0.985 . S
N497 C499 1.356 . S
N497 H502 0.984 . S
N497 H503 0.985 . S
C498 C492 1.379 . S
C498 C495 1.363 . S
C498 N496 1.356 . S
C499 C493 1.363 . S
C499 C494 1.379 . S
C499 N497 1.356 . S
N500 C492 1.356 . S
N500 H506 0.984 . S
N500 H507 0.984 . S
N501 C494 1.356 . S
N501 H504 0.984 . S
N501 H505 0.985 . S
H502 N497 0.984 . S
H503 N497 0.985 . S
H504 N501 0.984 . S
H505 N501 0.985 . S
H506 N500 0.984 . S
H507 N500 0.984 . S
H508 N496 0.984 . S
H509 N496 0.985 . S
C510 C511 1.363 . S
C510 C516 1.379 . S
C510 N518 1.356 . S
C511 C510 1.363 . S
C511 C517 1.363 . S
C512 C513 1.363 . S
C512 C517 1.379 . S
C512 N519 1.356 . S
C513 C512 1.363 . S
C513 C516 1.363 . S
N514 C516 1.356 . S
N514 H526 0.984 . S
N514 H527 0.985 . S
N515 C517 1.356 . S
N515 H520 0.984 . S
N515 H521 0.985 . S
C516 C510 1.379 . S
C516 C513 1.363 . S
C516 N514 1.356 . S
C517 C511 1.363 . S
C517 C512 1.379 . S
C517 N515 1.356 . S
N518 C510 1.356 . S
N518 H524 0.984 . S
N518 H525 0.984 . S
N519 C512 1.356 . S
N519 H522 0.984 . S
N519 H523 0.985 . S
H520 N515 0.984 . S
H521 N515 0.985 . S
H522 N519 0.984 . S
H523 N519 0.985 . S
H524 N518 0.984 . S
H525 N518 0.984 . S
H526 N514 0.984 . S
H527 N514 0.985 . S
C528 C529 1.363 . S
C528 C534 1.379 . S
C528 N536 1.356 . S
C529 C528 1.363 . S
C529 C535 1.363 . S
C530 C531 1.363 . S
C530 C535 1.379 . S
C530 N537 1.356 . S
C531 C530 1.363 . S
C531 C534 1.363 . S
N532 C534 1.356 . S
N532 H544 0.984 . S
N532 H545 0.985 . S
N533 C535 1.356 . S
N533 H538 0.984 . S
N533 H539 0.985 . S
C534 C528 1.379 . S
C534 C531 1.363 . S
C534 N532 1.356 . S
C535 C529 1.363 . S
C535 C530 1.379 . S
C535 N533 1.356 . S
N536 C528 1.356 . S
N536 H542 0.984 . S
N536 H543 0.984 . S
N537 C530 1.356 . S
N537 H540 0.984 . S
N537 H541 0.985 . S
H538 N533 0.984 . S
H539 N533 0.985 . S
H540 N537 0.984 . S
H541 N537 0.985 . S
H542 N536 0.984 . S
H543 N536 0.984 . S
H544 N532 0.984 . S
H545 N532 0.985 . S
C546 C547 1.363 . S
C546 C552 1.379 . S
C546 N554 1.356 . S
C547 C546 1.363 . S
C547 C553 1.363 . S
C548 C549 1.363 . S
C548 C553 1.379 . S
C548 N555 1.356 . S
C549 C548 1.363 . S
C549 C552 1.363 . S
N550 C552 1.356 . S
N550 H562 0.984 . S
N550 H563 0.985 . S
N551 C553 1.356 . S
N551 H556 0.984 . S
N551 H557 0.985 . S
C552 C546 1.379 . S
C552 C549 1.363 . S
C552 N550 1.356 . S
C553 C547 1.363 . S
C553 C548 1.379 . S
C553 N551 1.356 . S
N554 C546 1.356 . S
N554 H560 0.984 . S
N554 H561 0.984 . S
N555 C548 1.356 . S
N555 H558 0.984 . S
N555 H559 0.985 . S
H556 N551 0.984 . S
H557 N551 0.985 . S
H558 N555 0.984 . S
H559 N555 0.985 . S
H560 N554 0.984 . S
H561 N554 0.984 . S
H562 N550 0.984 . S
H563 N550 0.985 . S
C564 C565 1.363 . S
C564 C570 1.379 . S
C564 N572 1.356 . S
C565 C564 1.363 . S
C565 C571 1.363 . S
C566 C567 1.363 . S
C566 C571 1.379 . S
C566 N573 1.356 . S
C567 C566 1.363 . S
C567 C570 1.363 . S
N568 C570 1.356 . S
N568 H580 0.984 . S
N568 H581 0.985 . S
N569 C571 1.356 . S
N569 H574 0.984 . S
N569 H575 0.985 . S
C570 C564 1.379 . S
C570 C567 1.363 . S
C570 N568 1.356 . S
C571 C565 1.363 . S
C571 C566 1.379 . S
C571 N569 1.356 . S
N572 C564 1.356 . S
N572 H578 0.984 . S
N572 H579 0.984 . S
N573 C566 1.356 . S
N573 H576 0.984 . S
N573 H577 0.985 . S
H574 N569 0.984 . S
H575 N569 0.985 . S
H576 N573 0.984 . S
H577 N573 0.985 . S
H578 N572 0.984 . S
H579 N572 0.984 . S
H580 N568 0.984 . S
H581 N568 0.985 . S
C582 C583 1.363 . S
C582 C588 1.379 . S
C582 N590 1.356 . S
C583 C582 1.363 . S
C583 C589 1.363 . S
C584 C585 1.363 . S
C584 C589 1.379 . S
C584 N591 1.356 . S
C585 C584 1.363 . S
C585 C588 1.363 . S
N586 C588 1.356 . S
N586 H598 0.984 . S
N586 H599 0.985 . S
N587 C589 1.356 . S
N587 H592 0.984 . S
N587 H593 0.985 . S
C588 C582 1.379 . S
C588 C585 1.363 . S
C588 N586 1.356 . S
C589 C583 1.363 . S
C589 C584 1.379 . S
C589 N587 1.356 . S
N590 C582 1.356 . S
N590 H596 0.984 . S
N590 H597 0.984 . S
N591 C584 1.356 . S
N591 H594 0.984 . S
N591 H595 0.985 . S
H592 N587 0.984 . S
H593 N587 0.985 . S
H594 N591 0.984 . S
H595 N591 0.985 . S
H596 N590 0.984 . S
H597 N590 0.984 . S
H598 N586 0.984 . S
H599 N586 0.985 . S
C600 C601 1.363 . S
C600 C606 1.379 . S
C600 N608 1.356 . S
C601 C600 1.363 . S
C601 C607 1.363 . S
C602 C603 1.363 . S
C602 C607 1.379 . S
C602 N609 1.356 . S
C603 C602 1.363 . S
C603 C606 1.363 . S
N604 C606 1.356 . S
N604 H616 0.984 . S
N604 H617 0.985 . S
N605 C607 1.356 . S
N605 H610 0.984 . S
N605 H611 0.985 . S
C606 C600 1.379 . S
C606 C603 1.363 . S
C606 N604 1.356 . S
C607 C601 1.363 . S
C607 C602 1.379 . S
C607 N605 1.356 . S
N608 C600 1.356 . S
N608 H614 0.984 . S
N608 H615 0.984 . S
N609 C602 1.356 . S
N609 H612 0.984 . S
N609 H613 0.985 . S
H610 N605 0.984 . S
H611 N605 0.985 . S
H612 N609 0.984 . S
H613 N609 0.985 . S
H614 N608 0.984 . S
H615 N608 0.984 . S
H616 N604 0.984 . S
H617 N604 0.985 . S
C618 C619 1.363 . S
C618 C624 1.379 . S
C618 N626 1.356 . S
C619 C618 1.363 . S
C619 C625 1.363 . S
C620 C621 1.363 . S
C620 C625 1.379 . S
C620 N627 1.356 . S
C621 C620 1.363 . S
C621 C624 1.363 . S
N622 C624 1.356 . S
N622 H634 0.984 . S
N622 H635 0.985 . S
N623 C625 1.356 . S
N623 H628 0.984 . S
N623 H629 0.985 . S
C624 C618 1.379 . S
C624 C621 1.363 . S
C624 N622 1.356 . S
C625 C619 1.363 . S
C625 C620 1.379 . S
C625 N623 1.356 . S
N626 C618 1.356 . S
N626 H632 0.984 . S
N626 H633 0.984 . S
N627 C620 1.356 . S
N627 H630 0.984 . S
N627 H631 0.985 . S
H628 N623 0.984 . S
H629 N623 0.985 . S
H630 N627 0.984 . S
H631 N627 0.985 . S
H632 N626 0.984 . S
H633 N626 0.984 . S
H634 N622 0.984 . S
H635 N622 0.985 . S
C636 C637 1.363 . S
C636 C642 1.379 . S
C636 N644 1.356 . S
C637 C636 1.363 . S
C637 C643 1.363 . S
C638 C639 1.363 . S
C638 C643 1.379 . S
C638 N645 1.356 . S
C639 C638 1.363 . S
C639 C642 1.363 . S
N640 C642 1.356 . S
N640 H652 0.984 . S
N640 H653 0.985 . S
N641 C643 1.356 . S
N641 H646 0.984 . S
N641 H647 0.985 . S
C642 C636 1.379 . S
C642 C639 1.363 . S
C642 N640 1.356 . S
C643 C637 1.363 . S
C643 C638 1.379 . S
C643 N641 1.356 . S
N644 C636 1.356 . S
N644 H650 0.984 . S
N644 H651 0.984 . S
N645 C638 1.356 . S
N645 H648 0.984 . S
N645 H649 0.985 . S
H646 N641 0.984 . S
H647 N641 0.985 . S
H648 N645 0.984 . S
H649 N645 0.985 . S
H650 N644 0.984 . S
H651 N644 0.984 . S
H652 N640 0.984 . S
H653 N640 0.985 . S
C654 C655 1.363 1_565 S
C654 C660 1.379 . S
C654 N662 1.356 . S
C655 C654 1.363 1_545 S
C655 C661 1.363 . S
C656 C657 1.363 . S
C656 C661 1.379 . S
C656 N663 1.356 . S
C657 C656 1.363 . S
C657 C660 1.363 1_545 S
N658 C660 1.356 . S
N658 H670 0.984 . S
N658 H671 0.985 . S
N659 C661 1.356 . S
N659 H664 0.984 . S
N659 H665 0.985 . S
C660 C654 1.379 . S
C660 C657 1.363 1_565 S
C660 N658 1.356 . S
C661 C655 1.363 . S
C661 C656 1.379 . S
C661 N659 1.356 . S
N662 C654 1.356 . S
N662 H668 0.984 . S
N662 H669 0.984 . S
N663 C656 1.356 . S
N663 H666 0.984 . S
N663 H667 0.985 . S
H664 N659 0.984 . S
H665 N659 0.985 . S
H666 N663 0.984 . S
H667 N663 0.985 . S
H668 N662 0.984 . S
H669 N662 0.984 . S
H670 N658 0.984 . S
H671 N658 0.985 . S
C672 C673 1.363 . S
C672 C678 1.379 . S
C672 N680 1.356 . S
C673 C672 1.363 . S
C673 C679 1.363 . S
C674 C675 1.363 . S
C674 C679 1.379 . S
C674 N681 1.356 . S
C675 C674 1.363 . S
C675 C678 1.363 . S
N676 C678 1.356 . S
N676 H688 0.984 . S
N676 H689 0.985 . S
N677 C679 1.356 . S
N677 H682 0.984 . S
N677 H683 0.985 . S
C678 C672 1.379 . S
C678 C675 1.363 . S
C678 N676 1.356 . S
C679 C673 1.363 . S
C679 C674 1.379 . S
C679 N677 1.356 . S
N680 C672 1.356 . S
N680 H686 0.984 . S
N680 H687 0.984 . S
N681 C674 1.356 . S
N681 H684 0.984 . S
N681 H685 0.985 . S
H682 N677 0.984 . S
H683 N677 0.985 . S
H684 N681 0.984 . S
H685 N681 0.985 . S
H686 N680 0.984 . S
H687 N680 0.984 . S
H688 N676 0.984 . S
H689 N676 0.985 . S
C690 C691 1.363 . S
C690 C696 1.379 . S
C690 N698 1.356 1_545 S
C691 C690 1.363 . S
C691 C697 1.363 . S
C692 C693 1.363 . S
C692 C697 1.379 . S
C692 N699 1.356 . S
C693 C692 1.363 . S
C693 C696 1.363 . S
N694 C696 1.356 1_565 S
N694 H706 0.984 . S
N694 H707 0.985 . S
N695 C697 1.356 . S
N695 H700 0.984 . S
N695 H701 0.985 . S
C696 C690 1.379 . S
C696 C693 1.363 . S
C696 N694 1.356 1_545 S
C697 C691 1.363 . S
C697 C692 1.379 . S
C697 N695 1.356 . S
N698 C690 1.356 1_565 S
N698 H704 0.984 . S
N698 H705 0.984 . S
N699 C692 1.356 . S
N699 H702 0.984 . S
N699 H703 0.985 . S
H700 N695 0.984 . S
H701 N695 0.985 . S
H702 N699 0.984 . S
H703 N699 0.985 . S
H704 N698 0.984 . S
H705 N698 0.984 . S
H706 N694 0.984 . S
H707 N694 0.985 . S
C708 C709 1.363 . S
C708 C714 1.379 . S
C708 N716 1.356 . S
C709 C708 1.363 . S
C709 C715 1.363 . S
C710 C711 1.363 . S
C710 C715 1.379 . S
C710 N717 1.356 . S
C711 C710 1.363 . S
C711 C714 1.363 . S
N712 C714 1.356 . S
N712 H724 0.984 . S
N712 H725 0.985 . S
N713 C715 1.356 . S
N713 H718 0.984 . S
N713 H719 0.985 . S
C714 C708 1.379 . S
C714 C711 1.363 . S
C714 N712 1.356 . S
C715 C709 1.363 . S
C715 C710 1.379 . S
C715 N713 1.356 . S
N716 C708 1.356 . S
N716 H722 0.984 . S
N716 H723 0.984 . S
N717 C710 1.356 . S
N717 H720 0.984 . S
N717 H721 0.985 . S
H718 N713 0.984 . S
H719 N713 0.985 . S
H720 N717 0.984 . S
H721 N717 0.985 . S
H722 N716 0.984 . S
H723 N716 0.984 . S
H724 N712 0.984 . S
H725 N712 0.985 . S
C726 C727 1.363 . S
C726 C732 1.379 . S
C726 N734 1.356 . S
C727 C726 1.363 . S
C727 C733 1.363 . S
C728 C729 1.363 . S
C728 C733 1.379 . S
C728 N735 1.356 . S
C729 C728 1.363 . S
C729 C732 1.363 . S
N730 C732 1.356 . S
N730 H742 0.984 . S
N730 H743 0.985 . S
N731 C733 1.356 . S
N731 H736 0.984 . S
N731 H737 0.985 . S
C732 C726 1.379 . S
C732 C729 1.363 . S
C732 N730 1.356 . S
C733 C727 1.363 . S
C733 C728 1.379 . S
C733 N731 1.356 . S
N734 C726 1.356 . S
N734 H740 0.984 . S
N734 H741 0.984 . S
N735 C728 1.356 . S
N735 H738 0.984 . S
N735 H739 0.985 . S
H736 N731 0.984 . S
H737 N731 0.985 . S
H738 N735 0.984 . S
H739 N735 0.985 . S
H740 N734 0.984 . S
H741 N734 0.984 . S
H742 N730 0.984 . S
H743 N730 0.985 . S
C421 C2 1.158 . S
C423 C391 1.165 . S
C439 C21 1.114 . S
C441 C241 1.040 . S
C457 C42 1.158 . S
C459 C301 1.072 . S
C475 C1 1.114 . S
C477 C361 1.040 . S
C495 C271 1.165 . S
C493 C22 1.158 . S
C513 C331 1.112 . S
C511 C41 1.114 . S
C529 C38 2.018 . S
C531 C121 1.830 . S
C547 C59 2.051 . S
C549 C211 2.043 . S
C565 C18 2.018 . S
C567 C91 1.998 . S
C585 C151 2.043 . S
C583 C39 2.051 . S
C603 C181 1.830 . S
C601 C58 2.018 . S
C619 C19 2.051 . S
C621 C61 1.872 . S
C639 C200 1.558 . S
C637 C9 1.508 . S
C655 C29 1.508 . S
C657 C80 1.547 . S
C673 C49 1.508 . S
C675 C140 1.557 . S
C693 C320 1.359 . S
C691 C28 1.364 . S
C711 C380 1.374 . S
C709 C48 1.364 . S
C727 C8 1.364 . S
C729 C260 1.374 . S
