# Generated by pormake.
# Topology zzz, (3,6)-cn, num edge types: 1
# Building blocks:
#     Node 0, Type 0, BuildingBlock: ESEHIV_clean_linker_0, # of connection points: 3
#     Node 1, Type 0, BuildingBlock: ESEHIV_clean_linker_0, # of connection points: 3
#     Node 2, Type 0, BuildingBlock: ESEHIV_clean_linker_0, # of connection points: 3
#     Node 3, Type 0, BuildingBlock: ESEHIV_clean_linker_0, # of connection points: 3
#     Node 4, Type 0, BuildingBlock: ESEHIV_clean_linker_0, # of connection points: 3
#     Node 5, Type 0, BuildingBlock: ESEHIV_clean_linker_0, # of connection points: 3
#     Node 6, Type 0, BuildingBlock: ESEHIV_clean_linker_0, # of connection points: 3
#     Node 7, Type 0, BuildingBlock: ESEHIV_clean_linker_0, # of connection points: 3
#     Node 8, Type 1, BuildingBlock: BETDEL_clean_sbu_0, # of connection points: 6
#     Node 9, Type 1, BuildingBlock: BETDEL_clean_sbu_0, # of connection points: 6
#     Node 10, Type 1, BuildingBlock: BETDEL_clean_sbu_0, # of connection points: 6
#     Node 11, Type 1, BuildingBlock: BETDEL_clean_sbu_0, # of connection points: 6
#     Edge 12, Type (0, 1), BuildingBlock: OJICUG_clean_linker_0, # of connection points: 2
#     Edge 13, Type (0, 1), BuildingBlock: OJICUG_clean_linker_0, # of connection points: 2
#     Edge 14, Type (0, 1), BuildingBlock: OJICUG_clean_linker_0, # of connection points: 2
#     Edge 15, Type (0, 1), BuildingBlock: OJICUG_clean_linker_0, # of connection points: 2
#     Edge 16, Type (0, 1), BuildingBlock: OJICUG_clean_linker_0, # of connection points: 2
#     Edge 17, Type (0, 1), BuildingBlock: OJICUG_clean_linker_0, # of connection points: 2
#     Edge 18, Type (0, 1), BuildingBlock: OJICUG_clean_linker_0, # of connection points: 2
#     Edge 19, Type (0, 1), BuildingBlock: OJICUG_clean_linker_0, # of connection points: 2
#     Edge 20, Type (0, 1), BuildingBlock: OJICUG_clean_linker_0, # of connection points: 2
#     Edge 21, Type (0, 1), BuildingBlock: OJICUG_clean_linker_0, # of connection points: 2
#     Edge 22, Type (0, 1), BuildingBlock: OJICUG_clean_linker_0, # of connection points: 2
#     Edge 23, Type (0, 1), BuildingBlock: OJICUG_clean_linker_0, # of connection points: 2
#     Edge 24, Type (0, 1), BuildingBlock: OJICUG_clean_linker_0, # of connection points: 2
#     Edge 25, Type (0, 1), BuildingBlock: OJICUG_clean_linker_0, # of connection points: 2
#     Edge 26, Type (0, 1), BuildingBlock: OJICUG_clean_linker_0, # of connection points: 2
#     Edge 27, Type (0, 1), BuildingBlock: OJICUG_clean_linker_0, # of connection points: 2
#     Edge 28, Type (0, 1), BuildingBlock: OJICUG_clean_linker_0, # of connection points: 2
#     Edge 29, Type (0, 1), BuildingBlock: OJICUG_clean_linker_0, # of connection points: 2
#     Edge 30, Type (0, 1), BuildingBlock: OJICUG_clean_linker_0, # of connection points: 2
#     Edge 31, Type (0, 1), BuildingBlock: OJICUG_clean_linker_0, # of connection points: 2
#     Edge 32, Type (0, 1), BuildingBlock: OJICUG_clean_linker_0, # of connection points: 2
#     Edge 33, Type (0, 1), BuildingBlock: OJICUG_clean_linker_0, # of connection points: 2
#     Edge 34, Type (0, 1), BuildingBlock: OJICUG_clean_linker_0, # of connection points: 2
#     Edge 35, Type (0, 1), BuildingBlock: OJICUG_clean_linker_0, # of connection points: 2
# Relax obj value: 0.381
# Max RMSD: 0.231
# Mean RMSD: 0.217
data_MOF--net-zzz--node1-BETDEL_clean_sbu_0--node2-ESEHIV_clean_linker_0--edge1-OJICUG_clean_linker_0
_symmetry_space_group_name_H-M    P1
_symmetry_Int_Tables_number       1
_symmetry_cell_setting            triclinic
loop_
_symmetry_equiv_pos_as_xyz
'x, y, z'
_cell_length_a     30.234856
_cell_length_b     30.713162
_cell_length_c     10.868863
_cell_angle_alpha  90.641574
_cell_angle_beta   88.346919
_cell_angle_gamma 94.941183
loop_
_atom_site_label
_atom_site_type_symbol
_atom_site_fract_x
_atom_site_fract_y
_atom_site_fract_z
_atom_type_partial_charge
H0 H 0.84673 0.47394 0.11943 0.0
H1 H 0.73287 0.45024 0.8955 0.0
H2 H 0.73902 0.55562 0.16411 0.0
C3 C 0.81348 0.48101 0.09589 0.0
C4 C 0.79556 0.51644 0.15412 0.0
C5 C 0.79158 0.45718 0.00227 0.0
C6 C 0.74947 0.46817 0.96989 0.0
C7 C 0.72944 0.50324 0.02776 0.0
C8 C 0.75318 0.52804 0.11998 0.0
H9 H 0.06128 0.83374 0.13993 0.0
H10 H 0.08194 0.7237 0.90462 0.0
H11 H 0.97085 0.71856 0.16391 0.0
C12 C 0.05304 0.79996 0.11305 0.0
C13 C 0.01512 0.77798 0.16694 0.0
C14 C 0.07654 0.78162 0.01553 0.0
C15 C 0.06433 0.73821 0.98091 0.0
C16 C 0.02662 0.71485 0.03442 0.0
C17 C 1.00128 0.7352 0.12675 0.0
H18 H 0.69955 0.05586 0.1572 0.0
H19 H 0.81817 0.06158 0.92889 0.0
H20 H 0.79049 0.95708 0.18892 0.0
C21 C 0.73167 0.04438 0.13368 0.0
C22 C 0.74329 1.00673 0.1919 0.0
C23 C 0.75717 0.0632 0.03489 0.0
C24 C 0.79801 0.04696 0.0043 0.0
C25 C 0.81072 0.00883 0.05856 0.0
C26 C 0.78254 0.98785 0.15123 0.0
H27 H 0.47243 0.68367 0.21719 0.0
H28 H 0.55935 0.8015 0.21133 0.0
H29 H 0.44338 0.7887 0.98557 0.0
C30 C 0.47912 0.71705 0.18599 0.0
C31 C 0.45307 0.73314 0.09582 0.0
C32 C 0.51728 0.7408 0.22765 0.0
C33 C 0.52922 0.78326 0.18163 0.0
C34 C 0.50154 0.80157 0.096 0.0
C35 C 0.46349 0.77607 0.05555 0.0
H36 H 0.21272 0.55448 0.96175 0.0
H37 H 0.31912 0.56476 0.21694 0.0
H38 H 0.30282 0.45448 0.96835 0.0
C39 C 0.24313 0.54348 0.99594 0.0
C40 C 0.25668 0.50418 0.9484 0.0
C41 C 0.2636 0.56464 0.09678 0.0
C42 C 0.30248 0.54865 0.1397 0.0
C43 C 0.31739 0.50916 0.09396 0.0
C44 C 0.29364 0.48622 0.99908 0.0
H45 H 0.98335 0.17937 0.99767 0.0
H46 H 0.96424 0.29082 0.22903 0.0
H47 H 0.07214 0.29522 0.9592 0.0
C48 C 0.99165 0.21335 0.02239 0.0
C49 C 0.02882 0.23526 0.9646 0.0
C50 C 0.96872 0.23228 0.11991 0.0
C51 C 0.98122 0.27589 0.15234 0.0
C52 C 0.01804 0.29923 0.09389 0.0
C53 C 0.04251 0.27845 1.00066 0.0
H54 H 0.33996 0.95694 0.99479 0.0
H55 H 0.22062 0.9533 0.21942 0.0
H56 H 0.24873 0.05495 0.9509 0.0
C57 C 0.30773 0.96863 0.01594 0.0
C58 C 0.2962 1.00565 0.95426 0.0
C59 C 0.28178 0.95066 0.11501 0.0
C60 C 0.2409 0.96714 0.14315 0.0
C61 C 0.22827 1.00456 0.08496 0.0
C62 C 0.25667 0.02465 0.99156 0.0
H63 H 0.54545 0.33821 0.98212 0.0
H64 H 0.46803 0.21492 0.95774 0.0
H65 H 0.58154 0.23049 0.1927 0.0
C66 C 0.54107 0.3039 0.00609 0.0
C67 C 0.56822 0.28741 0.09281 0.0
C68 C 0.50497 0.27873 0.95768 0.0
C69 C 0.49639 0.23455 0.99325 0.0
C70 C 0.52508 0.21634 0.07638 0.0
C71 C 0.56083 0.24328 0.12436 0.0
Dy72 Dy 0.05076 0.98725 0.63206 0.0
C73 C 0.9376 0.08522 0.39929 0.0
C74 C 0.10164 0.9285 0.73656 0.0
Dy75 Dy 0.98709 0.02521 0.50405 0.0
O76 O 0.09333 0.93101 0.62119 0.0
O77 O 0.08216 0.95876 0.79646 0.0
O78 O 0.106 0.02884 0.54126 0.0
O79 O 0.05219 1.00602 0.43448 0.0
C80 C 0.08962 0.02839 0.43252 0.0
C81 C 0.94837 0.98448 0.70462 0.0
O82 O 0.98102 0.96186 0.39938 0.0
O83 O 1.00892 0.92837 0.56283 0.0
O84 O 0.94587 0.08251 0.51465 0.0
O85 O 0.95597 0.05416 0.33978 0.0
O86 O 0.93189 0.98375 0.5959 0.0
O87 O 0.98583 1.00683 0.70179 0.0
O88 O 0.05759 0.05067 0.73548 0.0
O89 O 0.02943 0.08397 0.57209 0.0
C90 C 0.98951 0.9257 0.45552 0.0
C91 C 0.04936 0.08673 0.6786 0.0
Dy92 Dy 0.48787 0.96905 0.49821 0.0
C93 C 0.62256 0.09222 0.7359 0.0
C94 C 0.41557 0.91923 0.41462 0.0
Dy95 Dy 0.55126 0.04223 0.64775 0.0
O96 O 0.44967 0.93417 0.34737 0.0
O97 O 0.42134 0.9313 0.52836 0.0
O98 O 0.54483 0.93897 0.39485 0.0
O99 O 0.55759 0.98675 0.52522 0.0
C100 C 0.57649 0.96355 0.44639 0.0
C101 C 0.4627 0.04822 0.69829 0.0
O102 O 0.54436 0.07418 0.46589 0.0
O103 O 0.48343 0.03079 0.38839 0.0
O104 O 0.58794 0.07726 0.80093 0.0
O105 O 0.61801 0.07991 0.62185 0.0
O106 O 0.49432 0.07324 0.74843 0.0
O107 O 0.48159 0.02413 0.62192 0.0
O108 O 0.49463 0.93717 0.67999 0.0
O109 O 0.55472 0.98099 0.76058 0.0
C110 C 0.51283 0.06574 0.38393 0.0
C111 C 0.52539 0.94597 0.76388 0.0
Dy112 Dy 0.47455 0.52965 0.6821 0.0
C113 C 0.59026 0.43181 0.38675 0.0
C114 C 0.42768 0.58645 0.81503 0.0
Dy115 Dy 0.54628 0.49103 0.51598 0.0
O116 O 0.4353 0.58736 0.69742 0.0
O117 O 0.44642 0.55398 0.86278 0.0
O118 O 0.41412 0.51294 0.57046 0.0
O119 O 0.47554 0.49716 0.50154 0.0
C120 C 0.43494 0.49761 0.4763 0.0
C121 C 0.58693 0.52198 0.72005 0.0
O122 O 0.54952 0.5568 0.42936 0.0
O123 O 0.51502 0.58795 0.59801 0.0
O124 O 0.58039 0.43004 0.5031 0.0
O125 O 0.5758 0.46658 0.3384 0.0
O126 O 0.60687 0.50621 0.62517 0.0
O127 O 0.54605 0.52376 0.69767 0.0
O128 O 0.47073 0.4633 0.7664 0.0
O129 O 0.50462 0.43293 0.59593 0.0
C130 C 0.53758 0.59157 0.49127 0.0
C131 C 0.4823 0.42876 0.7027 0.0
Dy132 Dy 1.0023 0.47725 0.61663 0.0
C133 C 0.11566 0.59726 0.36887 0.0
C134 C 0.93679 0.42306 0.72836 0.0
Dy135 Dy 0.04951 0.54452 0.48449 0.0
O136 O 0.94239 0.42898 0.61131 0.0
O137 O 0.96794 0.44642 0.7852 0.0
O138 O 0.04121 0.4271 0.5253 0.0
O139 O 0.02362 0.4792 0.41995 0.0
C140 C 0.0435 0.44444 0.41709 0.0
C141 C 1.00841 0.577 0.68487 0.0
O142 O 0.98605 0.54817 0.38465 0.0
O143 O 0.94675 0.51382 0.54417 0.0
O144 O 0.10979 0.59253 0.48634 0.0
O145 O 0.08428 0.57365 0.31365 0.0
O146 O 1.01126 0.59504 0.57745 0.0
O147 O 0.02835 0.54231 0.68127 0.0
O148 O 0.06503 0.47406 0.71917 0.0
O149 O 0.10476 0.50809 0.55991 0.0
C150 C 0.94755 0.53563 0.43973 0.0
C151 C 0.10363 0.48647 0.66479 0.0
C152 C 0.14604 1.00585 0.12355 0.0
C153 C 0.18946 0.02472 0.14269 0.0
H154 H 0.07974 0.99235 0.19932 0.0
C155 C 0.19668 0.05174 0.24652 0.0
H156 H 0.13945 0.98491 0.04467 0.0
C157 C 0.16264 0.05607 0.33517 0.0
C158 C 0.12047 0.03333 0.32267 0.0
H159 H 0.22986 0.06597 0.26546 0.0
H160 H 0.17043 0.07451 0.41847 0.0
C161 C 0.11181 0.01012 0.21245 0.0
C162 C 0.55447 0.14678 0.14137 0.0
C163 C 0.51753 0.17086 0.12529 0.0
H164 H 0.5818 0.09516 0.23667 0.0
C165 C 0.47642 0.15498 0.17919 0.0
H166 H 0.58651 0.15792 0.10098 0.0
C167 C 0.47358 0.11823 0.25665 0.0
C168 C 0.51191 0.09733 0.28206 0.0
H169 H 0.4474 0.17288 0.16955 0.0
H170 H 0.44235 0.10833 0.30381 0.0
C171 C 0.55186 0.11094 0.2198 0.0
C172 C 0.33794 0.46861 0.27677 0.0
C173 C 0.35176 0.48967 0.16665 0.0
H174 H 0.35446 0.45368 0.46077 0.0
C175 C 0.39718 0.50344 0.14952 0.0
H176 H 0.30312 0.45829 0.29364 0.0
C177 C 0.42702 0.5009 0.2462 0.0
C178 C 0.41162 0.48454 0.36136 0.0
H179 H 0.40879 0.51956 0.06542 0.0
H180 H 0.46064 0.51586 0.23488 0.0
C181 C 0.36744 0.46618 0.37288 0.0
C182 C 1.00623 0.37753 0.14007 0.0
C183 C 0.0333 0.34265 0.14607 0.0
H184 H 0.98924 0.43856 0.21881 0.0
C185 C 0.06892 0.34609 0.22654 0.0
H186 H 0.97811 0.37518 0.08037 0.0
C187 C 0.07479 0.3818 0.30759 0.0
C188 C 0.0456 0.41508 0.30828 0.0
H189 H 0.08972 0.3193 0.23462 0.0
H190 H 0.1002 0.38184 0.37591 0.0
C191 C 0.01265 0.41376 0.21938 0.0
C192 C 0.84155 0.96218 0.89378 0.0
C193 C 0.84931 0.9891 0.99762 0.0
H194 H 0.867 0.93922 0.72099 0.0
C195 C 0.89284 0.00804 0.01484 0.0
H196 H 0.80825 0.94797 0.87612 0.0
C197 C 0.9267 1.00356 0.92481 0.0
C198 C 0.91758 0.98018 0.81505 0.0
H199 H 0.89983 0.02906 0.09339 0.0
H200 H 0.95889 0.02121 0.93693 0.0
C201 C 0.87521 0.95772 0.80391 0.0
C202 C 0.47737 0.87122 0.01353 0.0
C203 C 0.5123 0.84531 0.03723 0.0
H204 H 0.45435 0.92283 0.90877 0.0
C205 C 0.55456 0.85782 0.98424 0.0
H206 H 0.44449 0.86271 0.05179 0.0
C207 C 0.56036 0.89305 0.90121 0.0
C208 C 0.5239 0.91585 0.86979 0.0
H209 H 0.58218 0.83849 0.99948 0.0
H210 H 0.59236 0.90034 0.85523 0.0
C211 C 0.48292 0.90559 0.93045 0.0
C212 C 0.67658 0.55484 0.94159 0.0
C213 C 0.6847 0.51316 0.98389 0.0
H214 H 0.6373 0.59114 0.82335 0.0
C215 C 0.65262 0.47825 0.96122 0.0
H216 H 0.70103 0.58229 0.95429 0.0
C217 C 0.61489 0.48389 0.89378 0.0
C218 C 0.60917 0.52419 0.83988 0.0
H219 H 0.65893 0.44538 0.98559 0.0
H220 H 0.59341 0.45514 0.86966 0.0
C221 C 0.63963 0.56008 0.86792 0.0
C222 C 0.97957 0.67275 0.88283 0.0
C223 C 1.01122 0.67272 0.97478 0.0
H224 H 0.95388 0.64195 0.71857 0.0
C225 C 0.03635 0.63644 0.98324 0.0
H226 H 0.96052 0.70074 0.87258 0.0
C227 C 0.03228 0.60243 0.89566 0.0
C228 C 1.00374 0.60476 0.79647 0.0
H229 H 0.06155 0.63608 0.05191 0.0
H230 H 0.05429 0.57647 0.89948 0.0
C231 C 0.97608 0.63926 0.79411 0.0
C232 C 0.94852 0.20389 0.32977 0.0
C233 C 0.94055 0.20247 0.20294 0.0
H234 H 0.95234 0.16681 0.49351 0.0
C235 C 0.91713 0.16481 0.15395 0.0
H236 H 0.96587 0.23233 0.3718 0.0
C237 C 0.9115 0.12644 0.22259 0.0
C238 C 0.92679 0.12615 0.34278 0.0
H239 H 0.90867 0.16326 0.05772 0.0
H240 H 0.89865 0.09649 0.17857 0.0
C241 C 0.94121 0.16596 0.39959 0.0
C242 C 0.30105 0.93615 0.33173 0.0
C243 C 0.30321 0.92407 0.20629 0.0
H244 H 0.33576 0.94231 0.50037 0.0
C245 C 0.33539 0.89605 0.1672 0.0
H246 H 0.27659 0.9573 0.36641 0.0
C247 C 0.3699 0.88826 0.24452 0.0
C248 C 0.372 0.90758 0.36163 0.0
H249 H 0.33702 0.8847 0.07257 0.0
H250 H 0.39727 0.87115 0.20876 0.0
C251 C 0.33522 0.92764 0.40927 0.0
C252 C 0.59353 0.31514 0.29752 0.0
C253 C 0.59597 0.31913 0.16862 0.0
H254 H 0.59107 0.34898 0.46975 0.0
C255 C 0.61207 0.35977 0.11821 0.0
H256 H 0.58219 0.28451 0.34101 0.0
C257 C 0.6138 0.39721 0.19213 0.0
C258 C 0.60377 0.39384 0.31754 0.0
H259 H 0.61664 0.36367 0.0196 0.0
H260 H 0.61826 0.42901 0.15081 0.0
C261 C 0.598 0.35242 0.3718 0.0
C262 C 0.20309 0.61593 0.12113 0.0
C263 C 0.23696 0.59403 0.17433 0.0
H264 H 0.13555 0.6321 0.14087 0.0
C265 C 0.23546 0.58897 0.30307 0.0
H266 H 0.2043 0.62319 0.02377 0.0
C267 C 0.19717 0.59698 0.3713 0.0
C268 C 0.1596 0.60895 0.31139 0.0
H269 H 0.26086 0.57327 0.34962 0.0
H270 H 0.19505 0.58784 0.46743 0.0
C271 C 0.16376 0.62155 0.18805 0.0
C272 C 0.12627 0.85031 0.98112 0.0
C273 C 0.10409 0.81194 0.9325 0.0
H274 H 0.14205 0.919 0.9561 0.0
C275 C 0.09611 0.8101 0.80558 0.0
H276 H 0.13489 0.85224 0.07721 0.0
C277 C 0.10168 0.8481 0.73578 0.0
C278 C 0.11449 0.8883 0.7926 0.0
H279 H 0.07978 0.78116 0.76348 0.0
H280 H 0.09028 0.84678 0.64209 0.0
C281 C 0.13022 0.88867 0.9124 0.0
C282 C 0.70132 0.11619 0.98734 0.0
C283 C 0.73513 0.09034 0.94592 0.0
H284 H 0.63728 0.13694 0.94983 0.0
C285 C 0.73821 0.08019 0.81924 0.0
H286 H 0.69899 0.12637 0.08288 0.0
C287 C 0.7036 0.08786 0.74231 0.0
C288 C 0.6654 0.10498 0.79182 0.0
H289 H 0.76391 0.06091 0.78234 0.0
H290 H 0.70409 0.07457 0.64955 0.0
C291 C 0.66607 0.12258 0.91124 0.0
C292 C 0.42535 0.70358 0.89523 0.0
C293 C 0.4237 0.70122 0.02445 0.0
H294 H 0.42655 0.66784 0.72656 0.0
C295 C 0.40643 0.66159 0.07897 0.0
H296 H 0.43708 0.73335 0.84795 0.0
C297 C 0.40323 0.62311 0.00894 0.0
C298 C 0.41379 0.62475 0.8829 0.0
H299 H 0.40158 0.65914 0.17786 0.0
H300 H 0.39626 0.59221 0.05491 0.0
C301 C 0.41985 0.66551 0.82487 0.0
C302 C 0.81772 0.43155 0.79639 0.0
C303 C 0.81741 0.42749 0.9251 0.0
H304 H 0.85693 0.43109 0.63009 0.0
C305 C 0.85126 0.40573 0.97829 0.0
H306 H 0.79203 0.44736 0.75126 0.0
C307 C 0.88973 0.39874 0.90953 0.0
C308 C 0.89313 0.41056 0.78559 0.0
H309 H 0.85091 0.40005 0.07653 0.0
H310 H 0.9182 0.38846 0.95582 0.0
C311 C 0.85531 0.42247 0.72662 0.0
C312 C 0.03948 0.20625 0.75351 0.0
C313 C 0.05334 0.20872 0.8756 0.0
H314 H 0.02793 0.16574 0.59442 0.0
C315 C 0.07488 0.17378 0.92219 0.0
H316 H 0.02191 0.2322 0.71621 0.0
C317 C 0.07698 0.13489 0.8543 0.0
C318 C 0.05813 0.1305 0.7377 0.0
H319 H 0.085 0.17449 0.0171 0.0
H320 H 0.09005 0.10725 0.89731 0.0
C321 C 0.04213 0.16762 0.68484 0.0
C322 C 0.34155 1.00473 0.75672 0.0
C323 C 0.33093 0.02634 0.86744 0.0
H324 H 0.39044 0.99635 0.6126 0.0
C325 C 0.36195 0.05903 0.91184 0.0
H326 H 0.31876 0.97873 0.72137 0.0
C327 C 0.40366 0.0676 0.85232 0.0
C328 C 0.41557 0.04374 0.74658 0.0
H329 H 0.35545 0.07539 0.9985 0.0
H330 H 0.42759 0.09125 0.89363 0.0
C331 C 0.38309 0.01387 0.69606 0.0
C332 C 0.45421 0.33644 0.92968 0.0
C333 C 0.47753 0.30295 0.8754 0.0
H334 H 0.43844 0.40314 0.91976 0.0
C335 C 0.49247 0.30791 0.75249 0.0
H336 H 0.44302 0.33393 0.02516 0.0
C337 C 0.49043 0.34782 0.69235 0.0
C338 C 0.47335 0.38374 0.75388 0.0
H339 H 0.51124 0.28319 0.70879 0.0
H340 H 0.50599 0.35156 0.60163 0.0
C341 C 0.4526 0.37663 0.8702 0.0
C342 C 0.22643 0.49766 0.73846 0.0
C343 C 0.22583 0.48165 0.85918 0.0
H344 H 0.18858 0.51161 0.58227 0.0
C345 C 0.18605 0.45996 0.90613 0.0
H346 H 0.2561 0.51565 0.70101 0.0
C347 C 0.14675 0.45873 0.83964 0.0
C348 C 0.14638 0.47895 0.72413 0.0
H349 H 0.18414 0.44848 1.00021 0.0
H350 H 0.11611 0.44479 0.88286 0.0
C351 C 0.18727 0.49616 0.67153 0.0
C352 C 0.96833 0.83923 0.20703 0.0
C353 C 0.98974 0.80436 0.25467 0.0
H354 H 0.95177 0.90537 0.23232 0.0
C355 C 1.00238 0.80671 0.3779 0.0
H356 H 0.95924 0.83873 0.11127 0.0
C357 C 0.99839 0.84502 0.44729 0.0
C358 C 0.98221 0.88204 0.39427 0.0
H359 H 0.01993 0.78092 0.4161 0.0
H360 H 1.01166 0.84678 0.53888 0.0
C361 C 0.96481 0.87779 0.2758 0.0
C362 C 0.69796 1.00683 0.38972 0.0
C363 C 0.70866 0.98555 0.27842 0.0
H364 H 0.6489 0.01514 0.5335 0.0
C365 C 0.67748 0.95322 0.23288 0.0
H366 H 0.72081 0.03261 0.42596 0.0
C367 C 0.63562 0.94474 0.29177 0.0
C368 C 0.62366 0.9683 0.39807 0.0
H369 H 0.68396 0.93716 0.14576 0.0
H370 H 0.61164 0.92134 0.24963 0.0
C371 C 0.65625 0.99779 0.4497 0.0
C372 C 0.56648 0.68206 0.25895 0.0
C373 C 0.54388 0.7163 0.31143 0.0
H374 H 0.58141 0.61526 0.27286 0.0
C375 C 0.52868 0.71229 0.43445 0.0
H376 H 0.57773 0.68378 0.16341 0.0
C377 C 0.53003 0.6727 0.49683 0.0
C378 C 0.54672 0.63619 0.43753 0.0
H379 H 0.51033 0.7376 0.47665 0.0
H380 H 0.51438 0.66973 0.58759 0.0
C381 C 0.56756 0.64227 0.32084 0.0
C382 C 0.86427 0.56302 0.20148 0.0
C383 C 0.82496 0.53965 0.24598 0.0
H384 H 0.93396 0.57961 0.22599 0.0
C385 C 0.8247 0.52252 0.36538 0.0
H386 H 0.86599 0.57554 0.10849 0.0
C387 C 0.86389 0.5243 0.43245 0.0
C388 C 0.9045 0.54298 0.38139 0.0
H389 H 0.79551 0.50329 0.40108 0.0
H390 H 0.86294 0.50785 0.52022 0.0
C391 C 0.90361 0.56447 0.26794 0.0
loop_
_geom_bond_atom_site_label_1
_geom_bond_atom_site_label_2
_geom_bond_distance
_geom_bond_site_symmetry_2
_ccdc_geom_bond_type
H0 C3 0.931 . S
H1 C6 0.928 . S
H2 C8 0.930 . S
C3 H0 0.931 . S
C3 C4 1.413 . S
C3 C5 1.360 . S
C4 C3 1.413 . S
C4 C8 1.429 . S
C5 C3 1.360 . S
C5 C6 1.372 1_554 S
C6 H1 0.928 . S
C6 C5 1.372 1_556 S
C6 C7 1.404 1_556 S
C7 C6 1.404 1_554 S
C7 C8 1.391 . S
C8 H2 0.930 . S
C8 C4 1.429 . S
C8 C7 1.391 . S
H9 C12 0.931 . S
H10 C15 0.928 . S
H11 C17 0.930 . S
C12 H9 0.931 . S
C12 C13 1.413 . S
C12 C14 1.357 1_554 S
C13 C12 1.413 . S
C13 C17 1.429 . S
C14 C12 1.357 1_556 S
C14 C15 1.372 . S
C15 H10 0.928 . S
C15 C14 1.372 . S
C15 C16 1.404 1_556 S
C16 C15 1.404 1_554 S
C16 C17 1.391 . S
C17 H11 0.930 . S
C17 C13 1.429 . S
C17 C16 1.391 . S
H18 C21 0.931 . S
H19 C24 0.928 . S
H20 C26 0.930 . S
C21 H18 0.931 . S
C21 C22 1.414 . S
C21 C23 1.360 . S
C22 C21 1.414 . S
C22 C26 1.430 1_565 S
C23 C21 1.360 . S
C23 C24 1.374 1_554 S
C24 H19 0.928 . S
C24 C23 1.374 1_556 S
C24 C25 1.403 1_556 S
C25 C24 1.403 1_554 S
C25 C26 1.390 1_565 S
C26 H20 0.930 . S
C26 C22 1.430 1_545 S
C26 C25 1.390 1_545 S
H27 C30 0.931 . S
H28 C33 0.928 . S
H29 C35 0.930 1_556 S
C30 H27 0.931 . S
C30 C31 1.413 . S
C30 C32 1.360 . S
C31 C30 1.413 . S
C31 C35 1.429 . S
C32 C30 1.360 . S
C32 C33 1.372 . S
C33 H28 0.928 . S
C33 C32 1.372 . S
C33 C34 1.404 . S
C34 C33 1.404 . S
C34 C35 1.391 . S
C35 H29 0.930 1_554 S
C35 C31 1.429 . S
C35 C34 1.391 . S
H36 C39 0.931 . S
H37 C42 0.928 . S
H38 C44 0.930 . S
C39 H36 0.931 . S
C39 C40 1.413 1_554 S
C39 C41 1.360 . S
C40 C39 1.413 1_556 S
C40 C44 1.429 . S
C41 C39 1.360 . S
C41 C42 1.372 . S
C42 H37 0.928 . S
C42 C41 1.372 . S
C42 C43 1.404 . S
C43 C42 1.404 . S
C43 C44 1.391 1_554 S
C44 H38 0.930 . S
C44 C40 1.429 . S
C44 C43 1.391 1_556 S
H45 C48 0.931 . S
H46 C51 0.928 . S
H47 C53 0.930 . S
C48 H45 0.931 . S
C48 C49 1.413 1_554 S
C48 C50 1.360 . S
C49 C48 1.413 1_556 S
C49 C53 1.429 . S
C50 C48 1.360 . S
C50 C51 1.372 . S
C51 H46 0.928 . S
C51 C50 1.372 . S
C51 C52 1.404 . S
C52 C51 1.404 . S
C52 C53 1.391 1_554 S
C53 H47 0.930 . S
C53 C49 1.429 . S
C53 C52 1.391 1_556 S
H54 C57 0.930 1_556 S
H55 C60 0.928 . S
H56 C62 0.931 . S
C57 H54 0.930 1_554 S
C57 C58 1.413 1_554 S
C57 C59 1.360 . S
C58 C57 1.413 1_556 S
C58 C62 1.428 1_565 S
C59 C57 1.360 . S
C59 C60 1.371 . S
C60 H55 0.928 . S
C60 C59 1.371 . S
C60 C61 1.405 . S
C61 C60 1.405 . S
C61 C62 1.390 1_564 S
C62 H56 0.931 . S
C62 C58 1.428 1_545 S
C62 C61 1.390 1_546 S
H63 C66 0.931 . S
H64 C69 0.928 . S
H65 C71 0.930 . S
C66 H63 0.931 . S
C66 C67 1.413 1_556 S
C66 C68 1.360 . S
C67 C66 1.413 1_554 S
C67 C71 1.429 . S
C68 C66 1.360 . S
C68 C69 1.372 . S
C69 H64 0.928 . S
C69 C68 1.372 . S
C69 C70 1.404 1_556 S
C70 C69 1.404 1_554 S
C70 C71 1.391 . S
C71 H65 0.930 . S
C71 C67 1.429 . S
C71 C70 1.391 . S
Dy72 O76 2.398 . S
Dy72 O77 2.491 1_455 S
Dy72 O78 2.403 . S
Dy72 O79 2.664 1_565 S
Dy72 O83 2.326 . S
Dy72 O87 2.310 1_455 S
Dy72 O88 2.351 1_565 S
C73 O84 1.185 . S
C73 O85 1.355 1_655 S
C74 O76 1.185 . S
C74 O77 1.355 1_455 S
Dy75 O79 2.310 1_655 S
Dy75 O82 2.351 1_545 S
Dy75 O84 2.398 . S
Dy75 O85 2.491 1_655 S
Dy75 O86 2.403 . S
Dy75 O87 2.664 1_545 S
Dy75 O89 2.326 1_655 S
O76 Dy72 2.398 . S
O76 C74 1.185 . S
O77 Dy72 2.491 1_655 S
O77 C74 1.355 1_655 S
O78 Dy72 2.403 . S
O78 C80 1.254 . S
O79 Dy72 2.664 1_545 S
O79 Dy75 2.310 1_455 S
O79 C80 1.268 1_545 S
C80 O78 1.254 . S
C80 O79 1.268 1_565 S
C81 O86 1.254 . S
C81 O87 1.268 1_545 S
O82 Dy75 2.351 1_565 S
O82 C90 1.249 . S
O83 Dy72 2.326 . S
O83 C90 1.267 1_455 S
O84 C73 1.185 . S
O84 Dy75 2.398 . S
O85 C73 1.355 1_455 S
O85 Dy75 2.491 1_455 S
O86 Dy75 2.403 . S
O86 C81 1.254 . S
O87 Dy72 2.310 1_655 S
O87 Dy75 2.664 1_565 S
O87 C81 1.268 1_565 S
O88 Dy72 2.351 1_545 S
O88 C91 1.249 . S
O89 Dy75 2.326 1_455 S
O89 C91 1.267 . S
C90 O82 1.249 . S
C90 O83 1.267 1_655 S
C91 O88 1.249 . S
C91 O89 1.267 . S
Dy92 O96 2.398 . S
Dy92 O97 2.491 . S
Dy92 O98 2.403 . S
Dy92 O99 2.664 . S
Dy92 O103 2.326 1_565 S
Dy92 O107 2.310 1_565 S
Dy92 O108 2.351 . S
C93 O104 1.185 . S
C93 O105 1.355 . S
C94 O96 1.185 . S
C94 O97 1.355 . S
Dy95 O99 2.310 1_545 S
Dy95 O102 2.351 . S
Dy95 O104 2.398 . S
Dy95 O105 2.491 . S
Dy95 O106 2.403 . S
Dy95 O107 2.664 . S
Dy95 O109 2.326 1_545 S
O96 Dy92 2.398 . S
O96 C94 1.185 . S
O97 Dy92 2.491 . S
O97 C94 1.355 . S
O98 Dy92 2.403 . S
O98 C100 1.254 . S
O99 Dy92 2.664 . S
O99 Dy95 2.310 1_565 S
O99 C100 1.268 . S
C100 O98 1.254 . S
C100 O99 1.268 . S
C101 O106 1.254 . S
C101 O107 1.268 . S
O102 Dy95 2.351 . S
O102 C110 1.249 . S
O103 Dy92 2.326 1_545 S
O103 C110 1.267 . S
O104 C93 1.185 . S
O104 Dy95 2.398 . S
O105 C93 1.355 . S
O105 Dy95 2.491 . S
O106 Dy95 2.403 . S
O106 C101 1.254 . S
O107 Dy92 2.310 1_545 S
O107 Dy95 2.664 . S
O107 C101 1.268 . S
O108 Dy92 2.351 . S
O108 C111 1.249 . S
O109 Dy95 2.326 1_565 S
O109 C111 1.267 . S
C110 O102 1.249 . S
C110 O103 1.267 . S
C111 O108 1.249 . S
C111 O109 1.267 . S
Dy112 O116 2.398 . S
Dy112 O117 2.491 . S
Dy112 O118 2.403 . S
Dy112 O119 2.664 . S
Dy112 O123 2.326 . S
Dy112 O127 2.310 . S
Dy112 O128 2.351 . S
C113 O124 1.185 . S
C113 O125 1.355 . S
C114 O116 1.185 . S
C114 O117 1.355 . S
Dy115 O119 2.310 . S
Dy115 O122 2.351 . S
Dy115 O124 2.398 . S
Dy115 O125 2.491 . S
Dy115 O126 2.403 . S
Dy115 O127 2.664 . S
Dy115 O129 2.326 . S
O116 Dy112 2.398 . S
O116 C114 1.185 . S
O117 Dy112 2.491 . S
O117 C114 1.355 . S
O118 Dy112 2.403 . S
O118 C120 1.254 . S
O119 Dy112 2.664 . S
O119 Dy115 2.310 . S
O119 C120 1.268 . S
C120 O118 1.254 . S
C120 O119 1.268 . S
C121 O126 1.254 . S
C121 O127 1.268 . S
O122 Dy115 2.351 . S
O122 C130 1.249 . S
O123 Dy112 2.326 . S
O123 C130 1.267 . S
O124 C113 1.185 . S
O124 Dy115 2.398 . S
O125 C113 1.355 . S
O125 Dy115 2.491 . S
O126 Dy115 2.403 . S
O126 C121 1.254 . S
O127 Dy112 2.310 . S
O127 Dy115 2.664 . S
O127 C121 1.268 . S
O128 Dy112 2.351 . S
O128 C131 1.249 . S
O129 Dy115 2.326 . S
O129 C131 1.267 . S
C130 O122 1.249 . S
C130 O123 1.267 . S
C131 O128 1.249 . S
C131 O129 1.267 . S
Dy132 O136 2.398 . S
Dy132 O137 2.491 . S
Dy132 O138 2.403 . S
Dy132 O139 2.664 1_655 S
Dy132 O143 2.326 . S
Dy132 O147 2.310 . S
Dy132 O148 2.351 1_655 S
C133 O144 1.185 . S
C133 O145 1.355 . S
C134 O136 1.185 . S
C134 O137 1.355 . S
Dy135 O139 2.310 . S
Dy135 O142 2.351 1_455 S
Dy135 O144 2.398 . S
Dy135 O145 2.491 . S
Dy135 O146 2.403 . S
Dy135 O147 2.664 1_455 S
Dy135 O149 2.326 . S
O136 Dy132 2.398 . S
O136 C134 1.185 . S
O137 Dy132 2.491 . S
O137 C134 1.355 . S
O138 Dy132 2.403 . S
O138 C140 1.254 1_655 S
O139 Dy132 2.664 1_455 S
O139 Dy135 2.310 . S
O139 C140 1.268 . S
C140 O138 1.254 1_455 S
C140 O139 1.268 . S
C141 O146 1.254 1_655 S
C141 O147 1.268 . S
O142 Dy135 2.351 1_655 S
O142 C150 1.249 . S
O143 Dy132 2.326 . S
O143 C150 1.267 . S
O144 C133 1.185 . S
O144 Dy135 2.398 . S
O145 C133 1.355 . S
O145 Dy135 2.491 . S
O146 Dy135 2.403 . S
O146 C141 1.254 1_455 S
O147 Dy132 2.310 . S
O147 Dy135 2.664 1_655 S
O147 C141 1.268 . S
O148 Dy132 2.351 1_455 S
O148 C151 1.249 . S
O149 Dy135 2.326 . S
O149 C151 1.267 . S
C150 O142 1.249 . S
C150 O143 1.267 . S
C151 O148 1.249 . S
C151 O149 1.267 . S
C152 C153 1.394 . S
C152 H156 0.950 . S
C152 C161 1.390 . S
C153 C152 1.394 . S
C153 C155 1.380 1_565 S
H154 C161 0.950 . S
C155 C153 1.380 1_545 S
C155 C157 1.390 . S
C155 H159 0.950 . S
H156 C152 0.950 . S
C157 C155 1.390 . S
C157 C158 1.387 1_545 S
C157 H160 0.950 . S
C158 C157 1.387 1_565 S
C158 C161 1.387 . S
H159 C155 0.950 . S
H160 C157 0.950 . S
C161 C152 1.390 . S
C161 H154 0.950 . S
C161 C158 1.387 . S
C162 C163 1.387 . S
C162 H166 0.950 . S
C162 C171 1.390 . S
C163 C162 1.387 . S
C163 C165 1.387 . S
H164 C171 0.950 . S
C165 C163 1.387 . S
C165 C167 1.390 . S
C165 H169 0.950 . S
H166 C162 0.950 . S
C167 C165 1.390 . S
C167 C168 1.387 . S
C167 H170 0.950 . S
C168 C167 1.387 . S
C168 C171 1.387 . S
H169 C165 0.950 . S
H170 C167 0.950 . S
C171 C162 1.390 . S
C171 H164 0.950 . S
C171 C168 1.387 . S
C172 C173 1.387 . S
C172 H176 0.950 . S
C172 C181 1.390 . S
C173 C172 1.387 . S
C173 C175 1.387 . S
H174 C181 0.950 . S
C175 C173 1.387 . S
C175 C177 1.390 . S
C175 H179 0.950 . S
H176 C172 0.950 . S
C177 C175 1.390 . S
C177 C178 1.387 . S
C177 H180 0.950 . S
C178 C177 1.387 . S
C178 C181 1.387 . S
H179 C175 0.950 . S
H180 C177 0.950 . S
C181 C172 1.390 . S
C181 H174 0.950 . S
C181 C178 1.387 . S
C182 C183 1.387 . S
C182 H186 0.950 1_455 S
C182 C191 1.390 . S
C183 C182 1.387 . S
C183 C185 1.387 . S
H184 C191 0.950 1_655 S
C185 C183 1.387 . S
C185 C187 1.390 . S
C185 H189 0.950 . S
H186 C182 0.950 1_655 S
C187 C185 1.390 . S
C187 C188 1.387 . S
C187 H190 0.950 . S
C188 C187 1.387 . S
C188 C191 1.387 . S
H189 C185 0.950 . S
H190 C187 0.950 . S
C191 C182 1.390 . S
C191 H184 0.950 1_455 S
C191 C188 1.387 . S
C192 C193 1.375 1_565 S
C192 H196 0.950 . S
C192 C201 1.390 . S
C193 C192 1.375 1_545 S
C193 C195 1.400 . S
H194 C201 0.950 . S
C195 C193 1.400 . S
C195 C197 1.390 . S
C195 H199 0.950 . S
H196 C192 0.950 . S
C197 C195 1.390 . S
C197 C198 1.387 . S
C197 H200 0.950 . S
C198 C197 1.387 . S
C198 C201 1.387 1_545 S
H199 C195 0.950 . S
H200 C197 0.950 . S
C201 C192 1.390 . S
C201 H194 0.950 . S
C201 C198 1.387 1_565 S
C202 C203 1.387 1_556 S
C202 H206 0.950 . S
C202 C211 1.390 . S
C203 C202 1.387 1_554 S
C203 C205 1.387 . S
H204 C211 0.950 . S
C205 C203 1.387 . S
C205 C207 1.390 1_554 S
C205 H209 0.950 . S
H206 C202 0.950 . S
C207 C205 1.390 1_556 S
C207 C208 1.387 . S
C207 H210 0.950 . S
C208 C207 1.387 . S
C208 C211 1.387 . S
H209 C205 0.950 . S
H210 C207 0.950 . S
C211 C202 1.390 . S
C211 H204 0.950 . S
C211 C208 1.387 . S
C212 C213 1.387 . S
C212 H216 0.950 1_556 S
C212 C221 1.390 . S
C213 C212 1.387 . S
C213 C215 1.387 . S
H214 C221 0.950 . S
C215 C213 1.387 . S
C215 C217 1.390 . S
C215 H219 0.950 . S
H216 C212 0.950 1_554 S
C217 C215 1.390 . S
C217 C218 1.387 . S
C217 H220 0.950 . S
C218 C217 1.387 . S
C218 C221 1.387 . S
H219 C215 0.950 . S
H220 C217 0.950 . S
C221 C212 1.390 . S
C221 H214 0.950 . S
C221 C218 1.387 . S
C222 C223 1.387 . S
C222 H226 0.950 . S
C222 C231 1.390 . S
C223 C222 1.387 . S
C223 C225 1.387 . S
H224 C231 0.950 . S
C225 C223 1.387 . S
C225 C227 1.390 1_655 S
C225 H229 0.950 1_656 S
H226 C222 0.950 . S
C227 C225 1.390 1_455 S
C227 C228 1.387 1_455 S
C227 H230 0.950 . S
C228 C227 1.387 1_655 S
C228 C231 1.387 . S
H229 C225 0.950 1_454 S
H230 C227 0.950 . S
C231 C222 1.390 . S
C231 H224 0.950 . S
C231 C228 1.387 . S
C232 C233 1.387 . S
C232 H236 0.950 . S
C232 C241 1.390 . S
C233 C232 1.387 . S
C233 C235 1.387 . S
H234 C241 0.950 . S
C235 C233 1.387 . S
C235 C237 1.390 1_455 S
C235 H239 0.950 1_455 S
H236 C232 0.950 . S
C237 C235 1.390 1_655 S
C237 C238 1.387 1_655 S
C237 H240 0.950 . S
C238 C237 1.387 1_455 S
C238 C241 1.387 . S
H239 C235 0.950 1_655 S
H240 C237 0.950 . S
C241 C232 1.390 . S
C241 H234 0.950 . S
C241 C238 1.387 . S
C242 C243 1.386 . S
C242 H246 0.950 . S
C242 C251 1.390 . S
C243 C242 1.386 . S
C243 C245 1.389 1_545 S
H244 C251 0.950 . S
C245 C243 1.389 1_565 S
C245 C247 1.390 . S
C245 H249 0.950 . S
H246 C242 0.950 . S
C247 C245 1.390 . S
C247 C248 1.387 . S
C247 H250 0.950 . S
C248 C247 1.387 . S
C248 C251 1.387 1_565 S
H249 C245 0.950 . S
H250 C247 0.950 . S
C251 C242 1.390 . S
C251 H244 0.950 . S
C251 C248 1.387 1_545 S
C252 C253 1.387 . S
C252 H256 0.950 . S
C252 C261 1.390 . S
C253 C252 1.387 . S
C253 C255 1.387 . S
H254 C261 0.950 . S
C255 C253 1.387 . S
C255 C257 1.390 . S
C255 H259 0.950 . S
H256 C252 0.950 . S
C257 C255 1.390 . S
C257 C258 1.387 . S
C257 H260 0.950 . S
C258 C257 1.387 . S
C258 C261 1.387 . S
H259 C255 0.950 . S
H260 C257 0.950 . S
C261 C252 1.390 . S
C261 H254 0.950 . S
C261 C258 1.387 . S
C262 C263 1.387 . S
C262 H266 0.950 . S
C262 C271 1.390 . S
C263 C262 1.387 . S
C263 C265 1.387 . S
H264 C271 0.950 . S
C265 C263 1.387 . S
C265 C267 1.390 . S
C265 H269 0.950 . S
H266 C262 0.950 . S
C267 C265 1.390 . S
C267 C268 1.387 . S
C267 H270 0.950 . S
C268 C267 1.387 . S
C268 C271 1.387 . S
H269 C265 0.950 . S
H270 C267 0.950 . S
C271 C262 1.390 . S
C271 H264 0.950 . S
C271 C268 1.387 . S
C272 C273 1.387 . S
C272 H276 0.950 1_556 S
C272 C281 1.390 1_655 S
C273 C272 1.387 . S
C273 C275 1.387 . S
H274 C281 0.950 . S
C275 C273 1.387 . S
C275 C277 1.390 . S
C275 H279 0.950 . S
H276 C272 0.950 1_554 S
C277 C275 1.390 . S
C277 C278 1.387 1_655 S
C277 H280 0.950 . S
C278 C277 1.387 1_455 S
C278 C281 1.387 . S
H279 C275 0.950 . S
H280 C277 0.950 . S
C281 C272 1.390 1_455 S
C281 H274 0.950 . S
C281 C278 1.387 . S
C282 C283 1.387 1_554 S
C282 H286 0.950 . S
C282 C291 1.390 . S
C283 C282 1.387 1_556 S
C283 C285 1.387 1_545 S
H284 C291 0.950 . S
C285 C283 1.387 1_565 S
C285 C287 1.390 1_565 S
C285 H289 0.950 . S
H286 C282 0.950 . S
C287 C285 1.390 1_545 S
C287 C288 1.387 . S
C287 H290 0.950 . S
C288 C287 1.387 . S
C288 C291 1.387 1_556 S
H289 C285 0.950 . S
H290 C287 0.950 . S
C291 C282 1.390 . S
C291 H284 0.950 . S
C291 C288 1.387 1_554 S
C292 C293 1.387 1_554 S
C292 H296 0.950 . S
C292 C301 1.390 1_554 S
C293 C292 1.387 1_556 S
C293 C295 1.387 . S
H294 C301 0.950 1_554 S
C295 C293 1.387 . S
C295 C297 1.390 . S
C295 H299 0.950 . S
H296 C292 0.950 . S
C297 C295 1.390 . S
C297 C298 1.387 . S
C297 H300 0.950 . S
C298 C297 1.387 . S
C298 C301 1.387 . S
H299 C295 0.950 . S
H300 C297 0.950 . S
C301 C292 1.390 1_556 S
C301 H294 0.950 1_556 S
C301 C298 1.387 . S
C302 C303 1.387 . S
C302 H306 0.950 . S
C302 C311 1.390 . S
C303 C302 1.387 . S
C303 C305 1.387 . S
H304 C311 0.950 . S
C305 C303 1.387 . S
C305 C307 1.390 . S
C305 H309 0.950 . S
H306 C302 0.950 . S
C307 C305 1.390 . S
C307 C308 1.387 . S
C307 H310 0.950 . S
C308 C307 1.387 . S
C308 C311 1.387 . S
H309 C305 0.950 . S
H310 C307 0.950 . S
C311 C302 1.390 . S
C311 H304 0.950 . S
C311 C308 1.387 . S
C312 C313 1.387 . S
C312 H316 0.950 . S
C312 C321 1.390 . S
C313 C312 1.387 . S
C313 C315 1.387 . S
H314 C321 0.950 . S
C315 C313 1.387 . S
C315 C317 1.390 . S
C315 H319 0.950 . S
H316 C312 0.950 . S
C317 C315 1.390 . S
C317 C318 1.387 . S
C317 H320 0.950 . S
C318 C317 1.387 . S
C318 C321 1.387 . S
H319 C315 0.950 . S
H320 C317 0.950 . S
C321 C312 1.390 . S
C321 H314 0.950 . S
C321 C318 1.387 . S
C322 C323 1.387 1_565 S
C322 H326 0.950 . S
C322 C331 1.390 . S
C323 C322 1.387 1_545 S
C323 C325 1.387 . S
H324 C331 0.950 . S
C325 C323 1.387 . S
C325 C327 1.390 . S
C325 H329 0.950 . S
H326 C322 0.950 . S
C327 C325 1.390 . S
C327 C328 1.387 . S
C327 H330 0.950 . S
C328 C327 1.387 . S
C328 C331 1.387 1_545 S
H329 C325 0.950 . S
H330 C327 0.950 . S
C331 C322 1.390 . S
C331 H324 0.950 . S
C331 C328 1.387 1_565 S
C332 C333 1.387 . S
C332 H336 0.950 . S
C332 C341 1.390 . S
C333 C332 1.387 . S
C333 C335 1.387 . S
H334 C341 0.950 . S
C335 C333 1.387 . S
C335 C337 1.390 . S
C335 H339 0.950 . S
H336 C332 0.950 . S
C337 C335 1.390 . S
C337 C338 1.387 . S
C337 H340 0.950 . S
C338 C337 1.387 . S
C338 C341 1.387 . S
H339 C335 0.950 . S
H340 C337 0.950 . S
C341 C332 1.390 . S
C341 H334 0.950 . S
C341 C338 1.387 . S
C342 C343 1.387 . S
C342 H346 0.950 . S
C342 C351 1.390 . S
C343 C342 1.387 . S
C343 C345 1.387 . S
H344 C351 0.950 . S
C345 C343 1.387 . S
C345 C347 1.390 . S
C345 H349 0.950 . S
H346 C342 0.950 . S
C347 C345 1.390 . S
C347 C348 1.387 . S
C347 H350 0.950 . S
C348 C347 1.387 . S
C348 C351 1.387 . S
H349 C345 0.950 . S
H350 C347 0.950 . S
C351 C342 1.390 . S
C351 H344 0.950 . S
C351 C348 1.387 . S
C352 C353 1.387 . S
C352 H356 0.950 . S
C352 C361 1.390 . S
C353 C352 1.387 . S
C353 C355 1.387 . S
H354 C361 0.950 . S
C355 C353 1.387 . S
C355 C357 1.390 . S
C355 H359 0.950 1_655 S
H356 C352 0.950 . S
C357 C355 1.390 . S
C357 C358 1.387 . S
C357 H360 0.950 1_655 S
C358 C357 1.387 . S
C358 C361 1.387 . S
H359 C355 0.950 1_455 S
H360 C357 0.950 1_455 S
C361 C352 1.390 . S
C361 H354 0.950 . S
C361 C358 1.387 . S
C362 C363 1.387 1_545 S
C362 H366 0.950 . S
C362 C371 1.390 . S
C363 C362 1.387 1_565 S
C363 C365 1.387 . S
H364 C371 0.950 . S
C365 C363 1.387 . S
C365 C367 1.390 . S
C365 H369 0.950 . S
H366 C362 0.950 . S
C367 C365 1.390 . S
C367 C368 1.387 . S
C367 H370 0.950 . S
C368 C367 1.387 . S
C368 C371 1.387 1_565 S
H369 C365 0.950 . S
H370 C367 0.950 . S
C371 C362 1.390 . S
C371 H364 0.950 . S
C371 C368 1.387 1_545 S
C372 C373 1.387 . S
C372 H376 0.950 . S
C372 C381 1.390 . S
C373 C372 1.387 . S
C373 C375 1.387 . S
H374 C381 0.950 . S
C375 C373 1.387 . S
C375 C377 1.390 . S
C375 H379 0.950 . S
H376 C372 0.950 . S
C377 C375 1.390 . S
C377 C378 1.387 . S
C377 H380 0.950 . S
C378 C377 1.387 . S
C378 C381 1.387 . S
H379 C375 0.950 . S
H380 C377 0.950 . S
C381 C372 1.390 . S
C381 H374 0.950 . S
C381 C378 1.387 . S
C382 C383 1.387 . S
C382 H386 0.950 . S
C382 C391 1.390 . S
C383 C382 1.387 . S
C383 C385 1.387 . S
H384 C391 0.950 . S
C385 C383 1.387 . S
C385 C387 1.390 . S
C385 H389 0.950 . S
H386 C382 0.950 . S
C387 C385 1.390 . S
C387 C388 1.387 . S
C387 H390 0.950 . S
C388 C387 1.387 . S
C388 C391 1.387 . S
H389 C385 0.950 . S
H390 C387 0.950 . S
C391 C382 1.390 . S
C391 H384 0.950 . S
C391 C388 1.387 . S
C153 C61 1.609 . S
C158 C80 1.716 . S
C168 C110 1.873 . S
C163 C70 1.789 . S
C178 C120 1.714 . S
C173 C43 1.589 . S
C188 C140 1.619 . S
C183 C52 1.486 . S
C198 C81 1.716 . S
C193 C25 1.610 1_546 S
C203 C34 1.783 . S
C208 C111 1.874 . S
C213 C7 1.588 1_556 S
C218 C121 1.715 . S
C223 C16 1.490 1_556 S
C228 C141 1.619 . S
C238 C73 1.018 1_455 S
C233 C50 1.003 . S
C248 C94 0.770 . S
C243 C59 0.769 1_545 S
C258 C113 1.137 . S
C253 C67 1.114 . S
C263 C41 0.901 . S
C268 C133 0.891 . S
C273 C14 1.015 . S
C278 C74 1.021 . S
C288 C93 0.771 . S
C283 C23 0.769 1_546 S
C298 C114 1.137 . S
C293 C31 1.109 1_556 S
C303 C5 0.901 1_556 S
C308 C134 0.892 . S
C313 C49 1.662 . S
C318 C91 1.803 . S
C323 C58 1.447 1_545 S
C328 C101 1.656 . S
C338 C131 1.923 . S
C333 C68 1.764 . S
C348 C151 1.908 . S
C343 C40 1.759 . S
C353 C13 1.662 . S
C358 C90 1.808 . S
C368 C100 1.657 . S
C363 C22 1.452 . S
C378 C130 1.923 . S
C373 C32 1.756 . S
C383 C4 1.754 . S
C388 C150 1.909 . S
