# Generated by pormake.
# Topology apo, (3,6)-cn, num edge types: 1
# Building blocks:
#     Node 0, Type 0, BuildingBlock: PAMTOO_clean_linker_0, # of connection points: 3
#     Node 1, Type 0, BuildingBlock: PAMTOO_clean_linker_0, # of connection points: 3
#     Node 2, Type 0, BuildingBlock: PAMTOO_clean_linker_0, # of connection points: 3
#     Node 3, Type 0, BuildingBlock: PAMTOO_clean_linker_0, # of connection points: 3
#     Node 4, Type 0, BuildingBlock: PAMTOO_clean_linker_0, # of connection points: 3
#     Node 5, Type 0, BuildingBlock: PAMTOO_clean_linker_0, # of connection points: 3
#     Node 6, Type 0, BuildingBlock: PAMTOO_clean_linker_0, # of connection points: 3
#     Node 7, Type 0, BuildingBlock: PAMTOO_clean_linker_0, # of connection points: 3
#     Node 8, Type 1, BuildingBlock: KUMJIN_clean_sbu_1, # of connection points: 6
#     Node 9, Type 1, BuildingBlock: KUMJIN_clean_sbu_1, # of connection points: 6
#     Node 10, Type 1, BuildingBlock: KUMJIN_clean_sbu_1, # of connection points: 6
#     Node 11, Type 1, BuildingBlock: KUMJIN_clean_sbu_1, # of connection points: 6
#     Edge 12, Type (0, 1), BuildingBlock: XIVTED_clean_linker_0, # of connection points: 2
#     Edge 13, Type (0, 1), BuildingBlock: XIVTED_clean_linker_0, # of connection points: 2
#     Edge 14, Type (0, 1), BuildingBlock: XIVTED_clean_linker_0, # of connection points: 2
#     Edge 15, Type (0, 1), BuildingBlock: XIVTED_clean_linker_0, # of connection points: 2
#     Edge 16, Type (0, 1), BuildingBlock: XIVTED_clean_linker_0, # of connection points: 2
#     Edge 17, Type (0, 1), BuildingBlock: XIVTED_clean_linker_0, # of connection points: 2
#     Edge 18, Type (0, 1), BuildingBlock: XIVTED_clean_linker_0, # of connection points: 2
#     Edge 19, Type (0, 1), BuildingBlock: XIVTED_clean_linker_0, # of connection points: 2
#     Edge 20, Type (0, 1), BuildingBlock: XIVTED_clean_linker_0, # of connection points: 2
#     Edge 21, Type (0, 1), BuildingBlock: XIVTED_clean_linker_0, # of connection points: 2
#     Edge 22, Type (0, 1), BuildingBlock: XIVTED_clean_linker_0, # of connection points: 2
#     Edge 23, Type (0, 1), BuildingBlock: XIVTED_clean_linker_0, # of connection points: 2
#     Edge 24, Type (0, 1), BuildingBlock: XIVTED_clean_linker_0, # of connection points: 2
#     Edge 25, Type (0, 1), BuildingBlock: XIVTED_clean_linker_0, # of connection points: 2
#     Edge 26, Type (0, 1), BuildingBlock: XIVTED_clean_linker_0, # of connection points: 2
#     Edge 27, Type (0, 1), BuildingBlock: XIVTED_clean_linker_0, # of connection points: 2
#     Edge 28, Type (0, 1), BuildingBlock: XIVTED_clean_linker_0, # of connection points: 2
#     Edge 29, Type (0, 1), BuildingBlock: XIVTED_clean_linker_0, # of connection points: 2
#     Edge 30, Type (0, 1), BuildingBlock: XIVTED_clean_linker_0, # of connection points: 2
#     Edge 31, Type (0, 1), BuildingBlock: XIVTED_clean_linker_0, # of connection points: 2
#     Edge 32, Type (0, 1), BuildingBlock: XIVTED_clean_linker_0, # of connection points: 2
#     Edge 33, Type (0, 1), BuildingBlock: XIVTED_clean_linker_0, # of connection points: 2
#     Edge 34, Type (0, 1), BuildingBlock: XIVTED_clean_linker_0, # of connection points: 2
#     Edge 35, Type (0, 1), BuildingBlock: XIVTED_clean_linker_0, # of connection points: 2
# Relax obj value: 0.040
# Max RMSD: 0.224
# Mean RMSD: 0.162
data_MOF--net-apo--node1-KUMJIN_clean_sbu_1--node2-PAMTOO_clean_linker_0--edge1-XIVTED_clean_linker_0
_symmetry_space_group_name_H-M    P1
_symmetry_Int_Tables_number       1
_symmetry_cell_setting            triclinic
loop_
_symmetry_equiv_pos_as_xyz
'x, y, z'
_cell_length_a     27.446747
_cell_length_b     42.899525
_cell_length_c     52.014618
_cell_angle_alpha  90.00415
_cell_angle_beta   89.921216
_cell_angle_gamma 90.180149
loop_
_atom_site_label
_atom_site_type_symbol
_atom_site_fract_x
_atom_site_fract_y
_atom_site_fract_z
_atom_type_partial_charge
H0 H 0.36161 0.42032 0.4244 0.0
H1 H 0.28972 0.37789 0.35979 0.0
H2 H 0.27749 0.33605 0.43452 0.0
H3 H 0.2989 0.29301 0.39056 0.0
C4 C 0.27771 0.3049 0.3752 0.0
O5 O 0.25456 0.33054 0.38569 0.0
H6 H 0.30347 0.31262 0.35993 0.0
C7 C 0.33926 0.40173 0.41659 0.0
C8 C 0.32072 0.37841 0.43302 0.0
C9 C 0.32811 0.40191 0.39022 0.0
C10 C 0.29803 0.37836 0.38015 0.0
C11 C 0.28046 0.3544 0.39604 0.0
C12 C 0.29127 0.35468 0.42244 0.0
H13 H 0.17165 0.08162 0.91806 0.0
H14 H 0.23685 0.17157 0.93231 0.0
H15 H 0.23476 0.13392 0.85579 0.0
H16 H 0.32945 0.16 0.87938 0.0
C17 C 0.31333 0.18307 0.88427 0.0
O18 O 0.26304 0.18091 0.88423 0.0
H19 H 0.3259 0.18963 0.90384 0.0
C20 C 0.19036 0.10231 0.91121 0.0
C21 C 0.20157 0.10482 0.88493 0.0
C22 C 0.20225 0.1263 0.92861 0.0
C23 C 0.22727 0.15277 0.91935 0.0
C24 C 0.23922 0.15536 0.89313 0.0
C25 C 0.22579 0.1316 0.87599 0.0
H26 H 0.86318 0.08563 0.58481 0.0
H27 H 0.7941 0.12982 0.64975 0.0
H28 H 0.78359 0.17117 0.57502 0.0
H29 H 0.80203 0.21575 0.61779 0.0
C30 C 0.78177 0.20361 0.63342 0.0
O31 O 0.76036 0.17696 0.62361 0.0
H32 H 0.80821 0.19727 0.64874 0.0
C33 C 0.84111 0.10416 0.5928 0.0
C34 C 0.82425 0.12798 0.57645 0.0
C35 C 0.83074 0.10437 0.61936 0.0
C36 C 0.80341 0.12923 0.62951 0.0
C37 C 0.78711 0.1534 0.61358 0.0
C38 C 0.79744 0.15271 0.58717 0.0
H39 H 0.66318 0.41365 0.08746 0.0
H40 H 0.7401 0.32657 0.08059 0.0
H41 H 0.73452 0.37294 0.15322 0.0
H42 H 0.83138 0.34827 0.13583 0.0
C43 C 0.8182 0.32601 0.12726 0.0
O44 O 0.76798 0.32471 0.12829 0.0
H45 H 0.83047 0.32542 0.10685 0.0
C46 C 0.68431 0.39509 0.09602 0.0
C47 C 0.69574 0.39632 0.12246 0.0
C48 C 0.70058 0.37027 0.08047 0.0
C49 C 0.72774 0.34622 0.0919 0.0
C50 C 0.74005 0.34741 0.11795 0.0
C51 C 0.72403 0.37226 0.13316 0.0
H52 H 0.67784 0.57994 0.58787 0.0
H53 H 0.75661 0.66468 0.5719 0.0
H54 H 0.75703 0.62646 0.64821 0.0
H55 H 0.73819 0.69505 0.642 0.0
C56 C 0.76758 0.7 0.62779 0.0
O57 O 0.7878 0.6724 0.61923 0.0
H58 H 0.75078 0.71239 0.61124 0.0
C59 C 0.70095 0.5989 0.59432 0.0
C60 C 0.7158 0.59996 0.62017 0.0
C61 C 0.71519 0.622 0.57663 0.0
C62 C 0.74534 0.64652 0.58512 0.0
C63 C 0.7598 0.64829 0.611 0.0
C64 C 0.74511 0.62502 0.6284 0.0
H65 H 0.85731 0.92058 0.08607 0.0
H66 H 0.78467 0.87237 0.14768 0.0
H67 H 0.77951 0.83507 0.07103 0.0
H68 H 0.68866 0.82299 0.09924 0.0
C69 C 0.70231 0.82531 0.11928 0.0
O70 O 0.75263 0.82634 0.11901 0.0
H71 H 0.6875 0.84742 0.12728 0.0
C72 C 0.83564 0.90101 0.09274 0.0
C73 C 0.8202 0.87816 0.0751 0.0
C74 C 0.82336 0.89921 0.11892 0.0
C75 C 0.79391 0.87442 0.12749 0.0
C76 C 0.77804 0.85135 0.11021 0.0
C77 C 0.7911 0.85331 0.08408 0.0
H78 H 0.18468 0.92609 0.42698 0.0
H79 H 0.26589 0.84126 0.43757 0.0
H80 H 0.25792 0.88273 0.36291 0.0
H81 H 0.23498 0.81562 0.36802 0.0
C82 C 0.26651 0.80907 0.38035 0.0
O83 O 0.29003 0.83549 0.38915 0.0
H84 H 0.25193 0.79566 0.39699 0.0
C85 C 0.20762 0.90783 0.41927 0.0
C86 C 0.21916 0.9077 0.39284 0.0
C87 C 0.22452 0.88416 0.43578 0.0
C88 C 0.25354 0.86021 0.42548 0.0
C89 C 0.26482 0.85965 0.39921 0.0
C90 C 0.24828 0.88347 0.38311 0.0
H91 H 0.35843 0.58454 0.92691 0.0
H92 H 0.29732 0.63198 0.86127 0.0
H93 H 0.2794 0.67029 0.93651 0.0
H94 H 0.19001 0.6754 0.90348 0.0
C95 C 0.20837 0.67468 0.88441 0.0
O96 O 0.25817 0.67657 0.88776 0.0
H97 H 0.19847 0.65217 0.87507 0.0
C98 C 0.33866 0.60387 0.91862 0.0
C99 C 0.32103 0.62746 0.93503 0.0
C100 C 0.33055 0.60491 0.89183 0.0
C101 C 0.30332 0.62985 0.88176 0.0
C102 C 0.28412 0.65281 0.89793 0.0
C103 C 0.2931 0.65171 0.92442 0.0
Eu104 Eu 0.07674 0.10891 0.22657 0.0
C105 C 0.86058 0.08688 0.26397 0.0
N106 N 0.88609 0.11408 0.26264 0.0
C107 C 0.81622 0.14038 0.2458 0.0
C108 C 0.81163 0.08541 0.25583 0.0
C109 C 0.86457 0.14076 0.25421 0.0
C110 C 0.78967 0.11256 0.24652 0.0
C111 C 0.85776 0.032 0.27534 0.0
C112 C 0.8835 0.06044 0.27363 0.0
C113 C 0.80913 0.03043 0.26706 0.0
C114 C 0.78614 0.05704 0.25735 0.0
Eu115 Eu 0.96652 0.11271 0.27829 0.0
N116 N 0.93088 0.06253 0.28128 0.0
C117 C 0.88151 0.00601 0.28558 0.0
C118 C 0.95329 0.03766 0.29244 0.0
C119 C 0.92932 0.00895 0.29437 0.0
H120 H 0.8843 0.1625 0.25455 0.0
H121 H 0.94749 0.98921 0.30303 0.0
H122 H 0.15954 0.05926 0.25026 0.0
H123 H 0.09184 0.23384 0.20615 0.0
H124 H 0.98904 0.03989 0.3006 0.0
H125 H 0.86297 0.98377 0.28725 0.0
H126 H 0.0523 0.18249 0.20634 0.0
H127 H 0.7993 0.16161 0.23905 0.0
H128 H 0.78886 0.00876 0.26823 0.0
H129 H 0.74853 0.05546 0.25117 0.0
H130 H 0.24405 0.06077 0.26644 0.0
H131 H 0.75212 0.11238 0.24011 0.0
H132 H 0.17562 0.2397 0.22288 0.0
N133 N 0.1569 0.10785 0.24257 0.0
C134 C 0.18153 0.13541 0.2421 0.0
C135 C 0.22681 0.08194 0.25979 0.0
C136 C 0.23007 0.13725 0.25084 0.0
C137 C 0.17877 0.08122 0.25093 0.0
C138 C 0.25256 0.11008 0.25978 0.0
N139 N 0.11025 0.15982 0.22576 0.0
C140 C 0.08741 0.18487 0.21514 0.0
C141 C 0.18231 0.19096 0.23305 0.0
C142 C 0.15759 0.16208 0.23351 0.0
C143 C 0.15783 0.21713 0.22364 0.0
C144 C 0.11041 0.21397 0.21436 0.0
H145 H 0.28981 0.11055 0.26665 0.0
H146 H 0.29179 0.16789 0.25717 0.0
H147 H 0.25017 0.21481 0.24144 0.0
O148 O 0.07709 0.11631 0.18477 0.0
O149 O 0.09154 0.13031 0.26585 0.0
O150 O 0.01957 0.15355 0.27715 0.0
O151 O 0.12836 0.08449 0.20187 0.0
O152 O 0.0059 0.13312 0.21486 0.0
O153 O 0.97647 0.15442 0.25248 0.0
O154 O 0.9654 0.10651 0.32026 0.0
O155 O 0.95184 0.08761 0.23991 0.0
O156 O 0.02604 0.06737 0.22753 0.0
O157 O 0.92167 0.14232 0.30283 0.0
O158 O 0.03642 0.08767 0.28958 0.0
O159 O 0.06852 0.06638 0.25224 0.0
C160 C 0.06722 0.15169 0.27845 0.0
C161 C 0.11005 0.07681 0.15772 0.0
C162 C 0.12041 0.07044 0.1112 0.0
C163 C 0.11028 0.03843 0.11404 0.0
C164 C 0.09993 0.04486 0.15999 0.0
C165 C 0.10016 0.02582 0.13823 0.0
C166 C 0.12047 0.08949 0.1333 0.0
C167 C 0.97881 0.15355 0.22727 0.0
C168 C 0.11275 0.09697 0.18066 0.0
C169 C 0.25447 0.16605 0.25056 0.0
C170 C 0.23071 0.19279 0.24166 0.0
C171 C 0.97815 0.06702 0.2272 0.0
C172 C 0.89101 0.1196 0.34109 0.0
C173 C 0.85651 0.1131 0.38425 0.0
C174 C 0.81203 0.10409 0.37308 0.0
C175 C 0.84585 0.11098 0.33057 0.0
C176 C 0.89606 0.12101 0.36808 0.0
C177 C 0.80678 0.1032 0.34646 0.0
C178 C 0.06372 0.06704 0.27749 0.0
C179 C 0.93235 0.12779 0.32404 0.0
H180 H 0.11079 0.02301 0.09755 0.0
H181 H 0.0925 0.03456 0.17859 0.0
H182 H 0.09276 1.00113 0.14014 0.0
H183 H 0.12834 0.11418 0.13152 0.0
H184 H 0.78096 0.09819 0.38502 0.0
H185 H 0.8404 0.1106 0.31007 0.0
H186 H 0.93061 0.1279 0.37644 0.0
H187 H 0.77216 0.09661 0.33809 0.0
Eu188 Eu 0.4602 0.39539 0.72677 0.0
C189 C 0.67376 0.41307 0.75961 0.0
N190 N 0.64646 0.38658 0.76067 0.0
C191 C 0.71161 0.3578 0.74116 0.0
C192 C 0.72056 0.41311 0.74836 0.0
C193 C 0.66589 0.35882 0.75301 0.0
C194 C 0.73877 0.38516 0.73843 0.0
C195 C 0.68511 0.46695 0.77267 0.0
C196 C 0.65638 0.4397 0.77152 0.0
C197 C 0.73081 0.46749 0.76052 0.0
C198 C 0.74844 0.44065 0.74833 0.0
Eu199 Eu 0.56847 0.39108 0.78013 0.0
N200 N 0.61202 0.43847 0.78306 0.0
C201 C 0.66756 0.49252 0.7866 0.0
C202 C 0.59575 0.46268 0.79774 0.0
C203 C 0.62294 0.49022 0.79946 0.0
H204 H 0.64675 0.33724 0.75647 0.0
H205 H 0.60958 0.50959 0.81075 0.0
H206 H 0.37497 0.44092 0.7527 0.0
H207 H 0.44949 0.27262 0.69733 0.0
H208 H 0.56157 0.46071 0.80789 0.0
H209 H 0.68863 0.51385 0.78801 0.0
H210 H 0.48595 0.32482 0.69941 0.0
H211 H 0.72627 0.33579 0.73459 0.0
H212 H 0.75328 0.48829 0.76097 0.0
H213 H 0.78433 0.44116 0.73962 0.0
H214 H 0.29147 0.43623 0.77002 0.0
H215 H 0.77453 0.38421 0.72962 0.0
H216 H 0.36806 0.26296 0.7161 0.0
N217 N 0.38069 0.39291 0.74347 0.0
C218 C 0.35756 0.36495 0.74173 0.0
C219 C 0.30981 0.41593 0.76237 0.0
C220 C 0.30979 0.36118 0.75128 0.0
C221 C 0.35729 0.41847 0.75285 0.0
C222 C 0.28608 0.38709 0.76181 0.0
N223 N 0.42816 0.34437 0.72144 0.0
C224 C 0.45156 0.32088 0.7088 0.0
C225 C 0.35927 0.31049 0.72924 0.0
C226 C 0.38216 0.33992 0.73074 0.0
C227 C 0.38436 0.28592 0.71759 0.0
C228 C 0.43044 0.29125 0.70707 0.0
H229 H 0.24932 0.38516 0.76927 0.0
H230 H 0.2507 0.32842 0.75742 0.0
H231 H 0.29399 0.28403 0.73823 0.0
O232 O 0.43102 0.39027 0.68766 0.0
O233 O 0.44524 0.3741 0.7663 0.0
O234 O 0.5174 0.34998 0.77492 0.0
O235 O 0.43186 0.43609 0.70624 0.0
O236 O 0.52971 0.37031 0.71432 0.0
O237 O 0.56152 0.35029 0.75212 0.0
O238 O 0.55841 0.39412 0.82202 0.0
O239 O 0.56245 0.43327 0.75362 0.0
O240 O 0.53646 0.41119 0.71619 0.0
O241 O 0.6158 0.36583 0.80646 0.0
O242 O 0.49762 0.41456 0.79143 0.0
O243 O 0.46618 0.43686 0.75433 0.0
C244 C 0.46979 0.35116 0.77674 0.0
C245 C 0.39849 0.43382 0.66264 0.0
C246 C 0.37322 0.43096 0.61755 0.0
C247 C 0.35545 0.4615 0.61929 0.0
C248 C 0.38064 0.46445 0.66378 0.0
C249 C 0.35926 0.47812 0.64224 0.0
C250 C 0.39481 0.41708 0.63929 0.0
C251 C 0.55837 0.35086 0.72683 0.0
C252 C 0.42087 0.41981 0.68584 0.0
C253 C 0.28728 0.33181 0.75006 0.0
C254 C 0.31199 0.30652 0.73914 0.0
C255 C 0.56145 0.43255 0.72844 0.0
C256 C 0.63155 0.3903 0.84605 0.0
C257 C 0.66314 0.39343 0.88989 0.0
C258 C 0.70223 0.41162 0.88083 0.0
C259 C 0.67127 0.40825 0.83753 0.0
C260 C 0.62724 0.38317 0.87242 0.0
C261 C 0.70604 0.41909 0.85485 0.0
C262 C 0.47333 0.43678 0.77951 0.0
C263 C 0.59668 0.37744 0.82721 0.0
H264 H 0.33886 0.47256 0.60275 0.0
H265 H 0.383 0.47788 0.68137 0.0
H266 H 0.34559 0.50172 0.64335 0.0
H267 H 0.40863 0.39349 0.63797 0.0
H268 H 0.73008 0.41994 0.89391 0.0
H269 H 0.67612 0.41334 0.81739 0.0
H270 H 0.59723 0.36882 0.87913 0.0
H271 H 0.73654 0.43287 0.84803 0.0
Eu272 Eu 0.07528 0.89306 0.72757 0.0
C273 C 0.86139 0.8684 0.75268 0.0
N274 N 0.88685 0.89496 0.75762 0.0
C275 C 0.82273 0.92543 0.739 0.0
C276 C 0.81647 0.86928 0.73956 0.0
C277 C 0.86666 0.92335 0.75247 0.0
C278 C 0.79799 0.89824 0.73205 0.0
C279 C 0.85127 0.81277 0.75955 0.0
C280 C 0.87848 0.84046 0.76247 0.0
C281 C 0.80785 0.81327 0.74532 0.0
C282 C 0.79055 0.84146 0.73528 0.0
Eu283 Eu 0.96311 0.88842 0.77844 0.0
N284 N 0.92107 0.84056 0.77568 0.0
C285 C 0.86806 0.78559 0.77151 0.0
C286 C 0.93636 0.81465 0.78858 0.0
C287 C 0.91038 0.78666 0.78644 0.0
H288 H 0.88396 0.94456 0.75895 0.0
H289 H 0.9231 0.76594 0.79617 0.0
H290 H 0.16453 0.85807 0.76 0.0
H291 H 0.06694 0.01236 0.68991 0.0
H292 H 0.96924 0.81559 0.79999 0.0
H293 H 0.84813 0.76385 0.76978 0.0
H294 H 0.04365 0.95706 0.69279 0.0
H295 H 0.80762 0.94801 0.73437 0.0
H296 H 0.78678 0.79215 0.74251 0.0
H297 H 0.75628 0.84165 0.72496 0.0
H298 H 0.24155 0.87216 0.7818 0.0
H299 H 0.76364 0.89992 0.7219 0.0
H300 H 0.13811 0.03198 0.71422 0.0
N301 N 0.14969 0.90443 0.7481 0.0
C302 C 0.16593 0.93431 0.74656 0.0
C303 C 0.22045 0.8899 0.77213 0.0
C304 C 0.20955 0.94344 0.75875 0.0
C305 C 0.17676 0.88201 0.75991 0.0
C306 C 0.2367 0.92081 0.77177 0.0
N307 N 0.09714 0.94602 0.72088 0.0
C308 C 0.07297 0.96556 0.70463 0.0
C309 C 0.15423 0.98707 0.73113 0.0
C310 C 0.13842 0.95582 0.73296 0.0
C311 C 0.12721 0.00778 0.7161 0.0
C312 C 0.08689 0.99684 0.70244 0.0
H313 H 0.27044 0.92688 0.78136 0.0
H314 H 0.25777 0.98224 0.76702 0.0
H315 H 0.20938 0.02045 0.74283 0.0
O316 O 0.11042 0.89912 0.69004 0.0
O317 O 0.08264 0.91041 0.76892 0.0
O318 O 0.009 0.93242 0.77815 0.0
O319 O 0.11197 0.85423 0.7086 0.0
O320 O 0.00323 0.91493 0.71556 0.0
O321 O 0.9685 0.93227 0.75349 0.0
O322 O 0.975 0.88246 0.81971 0.0
O323 O 0.97743 0.84915 0.74984 0.0
O324 O 1.00209 0.87492 0.71378 0.0
O325 O 0.90763 0.90221 0.80645 0.0
O326 O 0.03409 0.86507 0.79004 0.0
O327 O 0.07296 0.84927 0.75244 0.0
C328 C 0.05679 0.93306 0.77892 0.0
C329 C 0.10292 0.85509 0.66325 0.0
C330 C 0.10387 0.8521 0.61622 0.0
C331 C 0.06527 0.83049 0.61734 0.0
C332 C 0.06441 0.83342 0.66373 0.0
C333 C 0.0459 0.82118 0.64092 0.0
C334 C 0.1229 0.86417 0.63938 0.0
C335 C 0.9746 0.93409 0.72836 0.0
C336 C 0.12008 0.86964 0.6874 0.0
C337 C 0.22459 0.97471 0.75758 0.0
C338 C 0.19695 0.99649 0.74386 0.0
C339 C 0.97818 0.85201 0.72475 0.0
C340 C 0.9347 0.91681 0.84788 0.0
C341 C 0.92241 0.92767 0.89362 0.0
C342 C 0.93924 0.9583 0.88944 0.0
C343 C 0.95152 0.94737 0.84418 0.0
C344 C 0.91995 0.90707 0.87255 0.0
C345 C 0.95354 0.96802 0.8649 0.0
C346 C 0.06397 0.84652 0.77733 0.0
C347 C 0.93351 0.89457 0.82638 0.0
H348 H 0.05024 0.82058 0.5999 0.0
H349 H 0.04824 0.82609 0.68175 0.0
H350 H 0.01617 0.80455 0.64152 0.0
H351 H 0.15217 0.88118 0.63882 0.0
H352 H 0.94106 0.97485 0.90514 0.0
H353 H 0.96318 0.95517 0.82533 0.0
H354 H 0.90767 0.88327 0.87541 0.0
H355 H 0.96644 0.99162 0.86196 0.0
Eu356 Eu 0.45903 0.61158 0.22856 0.0
C357 C 0.67189 0.63639 0.25635 0.0
N358 N 0.64617 0.60965 0.26027 0.0
C359 C 0.71138 0.57985 0.24188 0.0
C360 C 0.71763 0.63594 0.24395 0.0
C361 C 0.66664 0.58146 0.25469 0.0
C362 C 0.73659 0.60726 0.23604 0.0
C363 C 0.68148 0.69179 0.26462 0.0
C364 C 0.65414 0.66402 0.26648 0.0
C365 C 0.72587 0.69173 0.25116 0.0
C366 C 0.74384 0.66388 0.24079 0.0
Eu367 Eu 0.56916 0.61545 0.28055 0.0
N368 N 0.61078 0.6635 0.27904 0.0
C369 C 0.66394 0.71857 0.27691 0.0
C370 C 0.5947 0.68896 0.29227 0.0
C371 C 0.62074 0.71701 0.29115 0.0
H372 H 0.64904 0.56002 0.2604 0.0
H373 H 0.60743 0.7374 0.30116 0.0
H374 H 0.36857 0.64684 0.25987 0.0
H375 H 0.4671 0.49307 0.18919 0.0
H376 H 0.56121 0.68763 0.3032 0.0
H377 H 0.68396 0.74035 0.27599 0.0
H378 H 0.49203 0.54789 0.19374 0.0
H379 H 0.72679 0.55743 0.23694 0.0
H380 H 0.74715 0.71292 0.24923 0.0
H381 H 0.7788 0.66401 0.23109 0.0
H382 H 0.28871 0.63351 0.27905 0.0
H383 H 0.77158 0.60592 0.22644 0.0
H384 H 0.39269 0.47401 0.21105 0.0
N385 N 0.38282 0.60064 0.24741 0.0
C386 C 0.36553 0.57112 0.2447 0.0
C387 C 0.31011 0.61569 0.26963 0.0
C388 C 0.32012 0.56246 0.25527 0.0
C389 C 0.35546 0.62314 0.25895 0.0
C390 C 0.29251 0.58516 0.26797 0.0
N391 N 0.43647 0.55898 0.22072 0.0
C392 C 0.46144 0.53951 0.20472 0.0
C393 C 0.37668 0.51866 0.22848 0.0
C394 C 0.39362 0.54954 0.23147 0.0
C395 C 0.40441 0.49792 0.21379 0.0
C396 C 0.44655 0.50855 0.20152 0.0
H397 H 0.25744 0.57943 0.27635 0.0
H398 H 0.26932 0.52435 0.26114 0.0
H399 H 0.31878 0.486 0.23767 0.0
O400 O 0.42634 0.60646 0.19037 0.0
O401 O 0.44847 0.5924 0.26932 0.0
O402 O 0.52287 0.5717 0.27933 0.0
O403 O 0.42308 0.65078 0.20978 0.0
O404 O 0.53152 0.58981 0.21712 0.0
O405 O 0.56443 0.57191 0.25526 0.0
O406 O 0.55692 0.62149 0.32178 0.0
O407 O 0.55639 0.6552 0.25224 0.0
O408 O 0.53287 0.63001 0.21572 0.0
O409 O 0.62338 0.60025 0.30869 0.0
O410 O 0.49729 0.63771 0.29185 0.0
O411 O 0.46064 0.65472 0.25416 0.0
C412 C 0.47509 0.57092 0.28057 0.0
C413 C 0.43277 0.65138 0.16441 0.0
C414 C 0.43217 0.65575 0.11745 0.0
C415 C 0.46929 0.67834 0.11909 0.0
C416 C 0.46968 0.67413 0.16543 0.0
C417 C 0.48764 0.68753 0.14291 0.0
C418 C 0.41368 0.64249 0.1403 0.0
C419 C 0.55937 0.57038 0.23006 0.0
C420 C 0.41588 0.63589 0.18824 0.0
C421 C 0.30387 0.53153 0.25293 0.0
C422 C 0.33214 0.50967 0.23963 0.0
C423 C 0.55609 0.65291 0.2271 0.0
C424 C 0.59514 0.58651 0.35016 0.0
C425 C 0.6075 0.57567 0.39586 0.0
C426 C 0.5875 0.54575 0.3921 0.0
C427 C 0.57546 0.55662 0.34683 0.0
C428 C 0.61138 0.59591 0.37461 0.0
C429 C 0.57175 0.53634 0.36774 0.0
C430 C 0.46839 0.65682 0.27918 0.0
C431 C 0.59768 0.60853 0.32855 0.0
H432 H 0.48389 0.68911 0.10188 0.0
H433 H 0.48495 0.68145 0.18364 0.0
H434 H 0.51614 0.70499 0.14391 0.0
H435 H 0.3855 0.62476 0.13931 0.0
H436 H 0.58442 0.52951 0.40796 0.0
H437 H 0.56289 0.5491 0.32812 0.0
H438 H 0.62599 0.61921 0.37717 0.0
H439 H 0.55648 0.51326 0.36508 0.0
H440 H 0.2072 0.97038 0.40222 0.0
H441 H 0.09889 0.00973 0.26294 0.0
H442 H 0.18567 0.90079 0.34328 0.0
H443 H 0.08779 0.07138 0.32823 0.0
H444 H 0.13945 0.97122 0.2904 0.0
H445 H 0.17169 0.00939 0.37369 0.0
C446 C 0.1949 0.96321 0.38334 0.0
C447 C 0.19935 0.93209 0.37529 0.0
C448 C 0.12821 0.99322 0.29866 0.0
C449 C 0.15923 0.97692 0.34228 0.0
C450 C 0.10526 0.01523 0.28298 0.0
C451 C 0.08985 0.04377 0.29332 0.0
C452 C 0.13619 0.99994 0.32478 0.0
C453 C 0.09876 0.04961 0.31947 0.0
C454 C 0.17483 0.98557 0.367 0.0
C455 C 0.18367 0.92449 0.3503 0.0
N456 N 0.12137 0.02795 0.33425 0.0
N457 N 0.1643 0.94671 0.33473 0.0
H458 H 0.29285 0.58192 0.84617 0.0
H459 H 0.48064 0.44404 0.83162 0.0
H460 H 0.41602 0.57169 0.89721 0.0
H461 H 0.41843 0.4876 0.7644 0.0
H462 H 0.4466 0.48539 0.85815 0.0
H463 H 0.32838 0.54255 0.81789 0.0
C464 C 0.32741 0.57172 0.85149 0.0
C465 C 0.35121 0.58044 0.87439 0.0
C466 C 0.4404 0.48585 0.83759 0.0
C467 C 0.39106 0.53444 0.84225 0.0
C468 C 0.4597 0.46218 0.82234 0.0
C469 C 0.45224 0.46206 0.7956 0.0
C470 C 0.41248 0.50939 0.82623 0.0
C471 C 0.42469 0.48641 0.78491 0.0
C472 C 0.34746 0.54908 0.8353 0.0
C473 C 0.39541 0.56549 0.88025 0.0
N474 N 0.4054 0.50897 0.80029 0.0
N475 N 0.41359 0.54311 0.86444 0.0
H476 H 0.68492 0.60562 0.67048 0.0
H477 H 0.59251 0.42884 0.67868 0.0
H478 H 0.70952 0.53708 0.61116 0.0
H479 H 0.59051 0.49098 0.74383 0.0
H480 H 0.63474 0.46884 0.65368 0.0
H481 H 0.65134 0.56447 0.6981 0.0
C482 C 0.68382 0.58192 0.66334 0.0
C483 C 0.69956 0.57497 0.63827 0.0
C484 C 0.62546 0.47372 0.67351 0.0
C485 C 0.66041 0.52783 0.66965 0.0
C486 C 0.60111 0.4509 0.68777 0.0
C487 C 0.58816 0.45651 0.71344 0.0
C488 C 0.63659 0.50261 0.68487 0.0
C489 C 0.60042 0.48551 0.72422 0.0
C490 C 0.66436 0.55846 0.67908 0.0
C491 C 0.69681 0.54378 0.63007 0.0
N492 N 0.62372 0.50755 0.70986 0.0
N493 N 0.6773 0.52153 0.64559 0.0
H494 H 0.77598 0.93423 0.15577 0.0
H495 H 0.021 0.01715 0.20379 0.0
H496 H 0.91801 0.91734 0.12322 0.0
H497 H 0.87987 0.05845 0.21663 0.0
H498 H 0.98247 0.97588 0.17906 0.0
H499 H 0.812 0.97497 0.18341 0.0
C500 C 0.81472 0.93893 0.15461 0.0
C501 C 0.84405 0.92255 0.13709 0.0
C502 C 0.95978 0.99386 0.1874 0.0
C503 C 0.88532 0.96875 0.16855 0.0
C504 C 0.98181 0.01761 0.20154 0.0
C505 C 0.95377 0.0415 0.21255 0.0
C506 C 0.909 0.99348 0.18431 0.0
C507 C 0.90298 0.04037 0.20896 0.0
C508 C 0.83514 0.96226 0.17021 0.0
C509 C 0.89399 0.92962 0.13626 0.0
N510 N 0.88217 0.01671 0.19523 0.0
N511 N 0.91296 0.95205 0.15174 0.0
H512 H 0.8366 0.04178 0.60828 0.0
H513 H 0.94521 0.99176 0.74519 0.0
H514 H 0.86479 0.10775 0.66923 0.0
H515 H 0.94689 0.93278 0.67805 0.0
H516 H 0.90713 0.0331 0.71952 0.0
H517 H 0.86878 1.00029 0.63535 0.0
C518 C 0.84977 0.04767 0.6273 0.0
C519 C 0.84835 0.07857 0.63627 0.0
C520 C 0.9157 0.01107 0.71046 0.0
C521 C 0.88459 0.0307 0.66771 0.0
C522 C 0.93717 0.98744 0.72512 0.0
C523 C 0.94928 0.95884 0.71371 0.0
C524 C 0.9059 0.00593 0.68426 0.0
C525 C 0.93843 0.95455 0.68758 0.0
C526 C 0.86791 0.02384 0.64283 0.0
C527 C 0.86474 0.08435 0.66146 0.0
N528 N 0.91739 0.97778 0.67378 0.0
N529 N 0.88225 0.0607 0.67624 0.0
H530 H 0.68963 0.45852 0.1098 0.0
H531 H 0.58717 0.5126 0.2472 0.0
H532 H 0.66338 0.3948 0.1726 0.0
H533 H 0.5878 0.57113 0.17979 0.0
H534 H 0.62343 0.47049 0.22169 0.0
H535 H 0.65976 0.50118 0.1365 0.0
C536 C 0.67734 0.45338 0.12913 0.0
C537 C 0.67873 0.4228 0.13879 0.0
C538 C 0.6158 0.49259 0.21251 0.0
C539 C 0.6452 0.47192 0.16977 0.0
C540 C 0.59539 0.51667 0.2271 0.0
C541 C 0.58434 0.54534 0.21556 0.0
C542 C 0.62553 0.49732 0.18624 0.0
C543 C 0.59543 0.54931 0.18941 0.0
C544 C 0.66057 0.47786 0.14446 0.0
C545 C 0.66345 0.41794 0.16432 0.0
N546 N 0.61532 0.52559 0.17565 0.0
N547 N 0.64727 0.44218 0.17886 0.0
H548 H 0.42369 0.41829 0.3854 0.0
H549 H 0.38155 0.56859 0.29967 0.0
H550 H 0.2809 0.44074 0.35653 0.0
H551 H 0.51531 0.51618 0.29694 0.0
H552 H 0.34394 0.52636 0.32464 0.0
H553 H 0.45867 0.45898 0.35785 0.0
C554 C 0.39974 0.43188 0.37326 0.0
C555 C 0.34939 0.42621 0.37321 0.0
C556 C 0.38143 0.52411 0.31842 0.0
C557 C 0.38901 0.47296 0.34188 0.0
C558 C 0.4028 0.54806 0.30397 0.0
C559 C 0.45145 0.54579 0.29581 0.0
C560 C 0.40941 0.49813 0.32544 0.0
C561 C 0.4778 0.51911 0.30289 0.0
C562 C 0.4197 0.45494 0.35748 0.0
C563 C 0.31995 0.44433 0.357 0.0
N564 N 0.45661 0.4965 0.31745 0.0
N565 N 0.34013 0.46714 0.34214 0.0
H566 H 0.21828 0.04223 0.8892 0.0
H567 H 0.02804 0.99368 0.78168 0.0
H568 H 0.14958 0.11019 0.84026 0.0
H569 H 0.14095 0.93125 0.80705 0.0
H570 H 0.06775 0.03625 0.80525 0.0
H571 H 0.18666 1.00057 0.8615 0.0
C572 C 0.19679 0.04834 0.87249 0.0
C573 C 0.18643 0.07965 0.86699 0.0
C574 C 0.08402 0.01329 0.80551 0.0
C575 C 0.14958 0.03218 0.83549 0.0
C576 C 0.06122 0.98898 0.79224 0.0
C577 C 0.08127 0.95897 0.79252 0.0
C578 C 0.12656 0.00736 0.81965 0.0
C579 C 0.12448 0.95412 0.8063 0.0
C580 C 0.17892 0.02461 0.85667 0.0
C581 C 0.15859 0.08634 0.84507 0.0
N582 N 0.14546 0.978 0.81955 0.0
N583 N 0.14058 0.06278 0.83029 0.0
H584 H 0.11542 0.10521 0.94774 0.0
H585 H 0.19247 0.11185 0.09636 0.0
H586 H 0.25481 0.14102 0.97237 0.0
H587 H 0.07148 0.05869 0.06653 0.0
H588 H 0.21083 0.12982 0.05245 0.0
H589 H 0.09378 0.09543 0.99243 0.0
C590 C 0.1416 0.111 0.96257 0.0
C591 C 0.18745 0.12339 0.95615 0.0
C592 C 0.18018 0.11432 0.0556 0.0
C593 C 0.16252 0.11244 0.00777 0.0
C594 C 0.1695 0.1042 0.08065 0.0
C595 C 0.1306 0.08348 0.08513 0.0
C596 C 0.15138 0.10393 0.03495 0.0
C597 C 0.10226 0.07422 0.064 0.0
C598 C 0.12911 0.10549 0.98816 0.0
C599 C 0.21914 0.13133 0.97637 0.0
N600 N 0.11324 0.08444 0.03995 0.0
N601 N 0.20627 0.12548 1.00128 0.0
H602 H 0.40792 0.39213 0.45635 0.0
H603 H 0.29383 0.40114 0.59792 0.0
H604 H 0.25919 0.36708 0.47386 0.0
H605 H 0.44241 0.42538 0.5802 0.0
H606 H 0.28301 0.38254 0.55363 0.0
H607 H 0.4236 0.39895 0.50223 0.0
C608 C 0.37853 0.38798 0.46985 0.0
C609 C 0.33193 0.37942 0.46111 0.0
C610 C 0.31824 0.39147 0.55947 0.0
C611 C 0.3498 0.38707 0.51395 0.0
C612 C 0.32444 0.40186 0.58477 0.0
C613 C 0.36918 0.41443 0.59264 0.0
C614 C 0.35689 0.39416 0.54181 0.0
C615 C 0.40756 0.41544 0.57486 0.0
C616 C 0.3876 0.39174 0.49611 0.0
C617 C 0.29567 0.37366 0.47964 0.0
N618 N 0.40043 0.40572 0.55022 0.0
N619 N 0.30522 0.3779 0.50511 0.0
H620 H 0.76261 0.35171 0.04216 0.0
H621 H 0.59011 0.40256 0.92541 0.0
H622 H 0.61819 0.38877 0.05392 0.0
H623 H 0.73442 0.36461 0.9169 0.0
H624 H 0.59545 0.39388 0.97216 0.0
H625 H 0.74898 0.35256 0.99607 0.0
C626 C 0.7277 0.3597 0.03512 0.0
C627 C 0.69149 0.3701 0.05216 0.0
C628 C 0.62569 0.38714 0.96 0.0
C629 C 0.67595 0.37183 0.99882 0.0
C630 C 0.62249 0.39191 0.93337 0.0
C631 C 0.66207 0.38451 0.91742 0.0
C632 C 0.66866 0.37474 0.97056 0.0
C633 C 0.70335 0.37098 0.92861 0.0
C634 C 0.72005 0.36039 0.00865 0.0
C635 C 0.64746 0.3809 0.04159 0.0
N636 N 0.70565 0.3667 0.95442 0.0
N637 N 0.64099 0.3816 0.01562 0.0
H638 H 0.85015 0.17537 0.54315 0.0
H639 H 0.83302 0.06713 0.41812 0.0
H640 H 0.81919 0.07673 0.54514 0.0
H641 H 0.88714 0.16146 0.41515 0.0
H642 H 0.829 0.0706 0.46491 0.0
H643 H 0.86373 0.17157 0.49659 0.0
C644 C 0.84616 0.15294 0.53383 0.0
C645 C 0.83354 0.12632 0.54818 0.0
C646 C 0.84218 0.09053 0.45415 0.0
C647 C 0.84928 0.12179 0.49488 0.0
C648 C 0.84451 0.08851 0.42742 0.0
C649 C 0.86034 0.11405 0.41276 0.0
C650 C 0.85516 0.11847 0.4665 0.0
C651 C 0.87501 0.14118 0.42579 0.0
C652 C 0.85427 0.15075 0.50727 0.0
C653 C 0.82944 0.09782 0.53504 0.0
N654 N 0.87157 0.14282 0.45193 0.0
N655 N 0.83703 0.09637 0.50924 0.0
H656 H 0.76683 0.86626 0.03105 0.0
H657 H 0.97092 0.93882 0.93857 0.0
H658 H 0.90964 0.89526 0.05632 0.0
H659 H 0.84279 0.89283 0.90895 0.0
H660 H 0.94706 0.92364 0.98198 0.0
H661 H 0.79234 0.87527 0.98632 0.0
C662 C 0.80363 0.8742 0.02724 0.0
C663 C 0.83581 0.8805 0.04761 0.0
C664 C 0.92414 0.91669 0.96603 0.0
C665 C 0.865 0.89122 0.99652 0.0
C666 C 0.93763 0.92556 0.94121 0.0
C667 C 0.90867 0.9173 0.92004 0.0
C668 C 0.88102 0.89959 0.96998 0.0
C669 C 0.86632 0.8996 0.92468 0.0
C670 C 0.81808 0.87949 1.0017 0.0
C671 C 0.88303 0.89087 0.04141 0.0
N672 N 0.85354 0.89155 0.94916 0.0
N673 N 0.89594 0.89611 0.01656 0.0
H674 H 0.6235 0.60781 0.55973 0.0
H675 H 0.691 0.60728 0.40969 0.0
H676 H 0.76679 0.63179 0.5317 0.0
H677 H 0.55991 0.56717 0.4416 0.0
H678 H 0.71666 0.62222 0.45323 0.0
H679 H 0.59686 0.59909 0.51565 0.0
C680 C 0.64944 0.61126 0.54427 0.0
C681 C 0.69774 0.62007 0.54952 0.0
C682 C 0.68226 0.61021 0.45065 0.0
C683 C 0.66717 0.61028 0.49867 0.0
C684 C 0.66747 0.60181 0.42582 0.0
C685 C 0.62333 0.58576 0.42198 0.0
C686 C 0.65244 0.60282 0.4718 0.0
C687 C 0.59452 0.57907 0.44363 0.0
C688 C 0.63413 0.60633 0.51905 0.0
C689 C 0.72925 0.625 0.52857 0.0
N690 N 0.60954 0.58763 0.4675 0.0
N691 N 0.71353 0.61982 0.50406 0.0
H692 H 0.26335 0.64221 0.97685 0.0
H693 H 0.48587 0.63829 0.07581 0.0
H694 H 0.40905 0.61346 0.95682 0.0
H695 H 0.33737 0.65179 0.10037 0.0
H696 H 0.45712 0.62797 0.03225 0.0
H697 H 0.2882 0.64523 0.0221 0.0
C698 C 0.30049 0.63645 0.98194 0.0
C699 C 0.33415 0.62762 0.96289 0.0
C700 C 0.43062 0.63295 0.04712 0.0
C701 C 0.36281 0.631 0.01469 0.0
C702 C 0.44708 0.6389 0.07201 0.0
C703 C 0.41399 0.64614 0.09169 0.0
C704 C 0.38059 0.6346 0.04162 0.0
C705 C 0.36408 0.64625 0.08575 0.0
C706 C 0.31456 0.638 0.00781 0.0
C707 C 0.38163 0.62006 0.97075 0.0
N708 N 0.34889 0.64094 0.06116 0.0
N709 N 0.39454 0.62214 0.99591 0.0
H710 H 0.27995 0.86967 0.47824 0.0
H711 H 0.05204 0.87056 0.57422 0.0
H712 H 0.13446 0.89644 0.45622 0.0
H713 H 0.19934 0.85585 0.60011 0.0
H714 H 0.08277 0.88168 0.53114 0.0
H715 H 0.25254 0.86558 0.52302 0.0
C716 C 0.24229 0.87477 0.48281 0.0
C717 C 0.20947 0.88336 0.46335 0.0
C718 C 0.10855 0.87624 0.54621 0.0
C719 C 0.17788 0.87877 0.51461 0.0
C720 C 0.09097 0.8698 0.57082 0.0
C721 C 0.12315 0.86198 0.59073 0.0
C722 C 0.15879 0.87457 0.54123 0.0
C723 C 0.1733 0.86181 0.58531 0.0
C724 C 0.22675 0.87259 0.5084 0.0
C725 C 0.16126 0.89007 0.47051 0.0
N726 N 0.18958 0.86766 0.561 0.0
N727 N 0.14693 0.88742 0.49545 0.0
H728 H 0.29058 0.24271 0.36845 0.0
H729 H 0.03892 0.20997 0.29484 0.0
H730 H 0.18647 0.31535 0.35308 0.0
H731 H 0.15944 0.14573 0.29721 0.0
H732 H 0.08784 0.2477 0.31943 0.0
H733 H 0.23839 0.2056 0.3458 0.0
C734 C 0.25623 0.2507 0.36065 0.0
C735 C 0.24231 0.28196 0.36327 0.0
C736 C 0.10348 0.22534 0.31451 0.0
C737 C 0.18251 0.23967 0.33673 0.0
C738 C 0.07553 0.20376 0.3006 0.0
C739 C 0.09518 0.1747 0.29384 0.0
C740 C 0.15118 0.21762 0.32197 0.0
C741 C 0.14292 0.16795 0.3017 0.0
C742 C 0.22658 0.22957 0.34755 0.0
C743 C 0.19808 0.2913 0.35207 0.0
N744 N 0.16912 0.18916 0.31533 0.0
N745 N 0.16962 0.2702 0.33939 0.0
H746 H 0.27862 0.24273 0.87609 0.0
H747 H 0.50295 0.29258 0.78666 0.0
H748 H 0.39053 0.1794 0.8509 0.0
H749 H 0.37773 0.35158 0.79793 0.0
H750 H 0.46203 0.25125 0.81064 0.0
H751 H 0.31358 0.28325 0.8481 0.0
C752 C 0.31005 0.23724 0.86434 0.0
C753 C 0.33113 0.20748 0.86542 0.0
C754 C 0.44326 0.27314 0.8078 0.0
C755 C 0.37207 0.25385 0.83391 0.0
C756 C 0.46674 0.29685 0.79417 0.0
C757 C 0.44384 0.32567 0.79036 0.0
C758 C 0.39657 0.27825 0.81805 0.0
C759 C 0.39666 0.32968 0.80033 0.0
C760 C 0.33008 0.26036 0.84845 0.0
C761 C 0.37264 0.20185 0.85035 0.0
N762 N 0.37472 0.30633 0.81389 0.0
N763 N 0.39176 0.22477 0.83533 0.0
H764 H 0.76651 0.26588 0.62377 0.0
H765 H 0.57825 0.29036 0.73926 0.0
H766 H 0.71276 0.18999 0.67019 0.0
H767 H 0.60335 0.35945 0.68053 0.0
H768 H 0.6292 0.2536 0.71519 0.0
H769 H 0.70933 0.30105 0.64527 0.0
C770 C 0.74211 0.25656 0.63825 0.0
C771 C 0.74385 0.2249 0.64499 0.0
C772 C 0.62341 0.27674 0.70749 0.0
C773 C 0.67878 0.26511 0.66999 0.0
C774 C 0.59447 0.2977 0.72124 0.0
C775 C 0.58676 0.32792 0.71184 0.0
C776 C 0.64547 0.28623 0.68436 0.0
C777 C 0.60821 0.33626 0.68833 0.0
C778 C 0.70953 0.27664 0.65055 0.0
C779 C 0.71213 0.21418 0.66426 0.0
N780 N 0.637 0.31565 0.67552 0.0
N781 N 0.68102 0.23424 0.67615 0.0
H782 H 0.84874 0.26932 0.10846 0.0
H783 H 0.94266 0.20862 0.24541 0.0
H784 H 0.8351 0.32128 0.17897 0.0
H785 H 0.95805 0.15527 0.17553 0.0
H786 H 0.90135 0.24931 0.22128 0.0
H787 H 0.88641 0.22643 0.1325 0.0
C788 C 0.85374 0.27161 0.12903 0.0
C789 C 0.83968 0.29898 0.14177 0.0
C790 C 0.91357 0.2287 0.21116 0.0
C791 C 0.88228 0.25014 0.16938 0.0
C792 C 0.93711 0.20535 0.22497 0.0
C793 C 0.95355 0.1783 0.21253 0.0
C794 C 0.90648 0.22524 0.18459 0.0
C795 C 0.94592 0.17569 0.18592 0.0
C796 C 0.8752 0.24719 0.14273 0.0
C797 C 0.84612 0.30069 0.16845 0.0
N798 N 0.9229 0.19886 0.17283 0.0
N799 N 0.86719 0.27671 0.18134 0.0
H800 H 0.81421 0.69062 0.67375 0.0
H801 H 0.9412 0.8594 0.6762 0.0
H802 H 0.80646 0.75574 0.61086 0.0
H803 H 0.95808 0.79117 0.7363 0.0
H804 H 0.8949 0.82111 0.65106 0.0
H805 H 0.86979 0.72629 0.69625 0.0
C806 C 0.82471 0.71232 0.66461 0.0
C807 C 0.80559 0.72035 0.64053 0.0
C808 C 0.90867 0.81449 0.66977 0.0
C809 C 0.8688 0.76145 0.66612 0.0
C810 C 0.93518 0.83634 0.6841 0.0
C811 C 0.9525 0.82866 0.70865 0.0
C812 C 0.89948 0.7847 0.68005 0.0
C813 C 0.94407 0.79836 0.71782 0.0
C814 C 0.85629 0.73272 0.67744 0.0
C815 C 0.82024 0.74874 0.62947 0.0
N816 N 0.9179 0.7776 0.70364 0.0
N817 N 0.85065 0.76835 0.6424 0.0
H818 H 0.68142 0.76523 0.10386 0.0
H819 H 0.5757 0.713 0.24107 0.0
H820 H 0.68349 0.82371 0.17116 0.0
H821 H 0.58812 0.64981 0.17701 0.0
H822 H 0.61531 0.75356 0.21563 0.0
H823 H 0.64782 0.72245 0.12994 0.0
C824 C 0.67492 0.76896 0.12417 0.0
C825 C 0.68446 0.79815 0.13534 0.0
C826 C 0.6097 0.73081 0.2071 0.0
C827 C 0.64622 0.74941 0.16532 0.0
C828 C 0.58739 0.70751 0.22174 0.0
C829 C 0.57939 0.67775 0.21139 0.0
C830 C 0.62363 0.7246 0.18161 0.0
C831 C 0.59376 0.67239 0.18583 0.0
C832 C 0.65576 0.74459 0.13905 0.0
C833 C 0.67602 0.80169 0.16178 0.0
N834 N 0.6151 0.69558 0.17181 0.0
N835 N 0.65708 0.77774 0.1758 0.0
H836 H 0.28566 0.8109 0.32852 0.0
H837 H 0.4647 0.66366 0.33149 0.0
H838 H 0.32619 0.76242 0.39775 0.0
H839 H 0.41225 0.70522 0.2612 0.0
H840 H 0.41975 0.70248 0.35603 0.0
H841 H 0.33785 0.77562 0.3036 0.0
C842 C 0.30575 0.79283 0.33842 0.0
C843 C 0.30104 0.78905 0.36509 0.0
C844 C 0.41813 0.7032 0.33524 0.0
C845 C 0.36085 0.74882 0.3369 0.0
C846 C 0.44388 0.681 0.32115 0.0
C847 C 0.44212 0.68097 0.29415 0.0
C848 C 0.39039 0.72574 0.32235 0.0
C849 C 0.41447 0.70416 0.28195 0.0
C850 C 0.33542 0.7727 0.32424 0.0
C851 C 0.32839 0.76573 0.37715 0.0
N852 N 0.38962 0.72555 0.29614 0.0
N853 N 0.35685 0.74635 0.36295 0.0
H854 H 0.18615 0.73414 0.89959 0.0
H855 H 0.10924 0.79379 0.75914 0.0
H856 H 0.19274 0.67601 0.83215 0.0
H857 H 0.07612 0.843 0.82938 0.0
H858 H 0.14812 0.75267 0.78461 0.0
H859 H 0.15465 0.77688 0.87313 0.0
C860 C 0.18087 0.73047 0.87918 0.0
C861 C 0.19101 0.70145 0.86807 0.0
C862 C 0.13244 0.77254 0.7944 0.0
C863 C 0.15542 0.75011 0.83761 0.0
C864 C 0.11036 0.79605 0.77988 0.0
C865 C 0.08912 0.82181 0.79213 0.0
C866 C 0.13378 0.77499 0.82135 0.0
C867 C 0.09158 0.82345 0.81908 0.0
C868 C 0.16289 0.75477 0.86408 0.0
C869 C 0.18457 0.69796 0.84146 0.0
N870 N 0.11348 0.80043 0.83273 0.0
N871 N 0.1669 0.72194 0.82713 0.0
loop_
_geom_bond_atom_site_label_1
_geom_bond_atom_site_label_2
_geom_bond_distance
_geom_bond_site_symmetry_2
_ccdc_geom_bond_type
H0 C7 0.929 . S
H1 C10 0.930 . S
H2 C12 0.929 . S
H3 C4 0.969 . S
C4 H3 0.969 . S
C4 O5 1.550 . S
C4 H6 0.973 . S
O5 C4 1.550 . S
O5 C11 1.412 . S
H6 C4 0.973 . S
C7 H0 0.929 . S
C7 C8 1.400 . S
C7 C9 1.364 . S
C8 C7 1.400 . S
C8 C12 1.377 . S
C9 C7 1.364 . S
C9 C10 1.374 . S
C10 H1 0.930 . S
C10 C9 1.374 . S
C10 C11 1.383 . S
C11 O5 1.412 . S
C11 C10 1.383 . S
C11 C12 1.394 . S
C12 H2 0.929 . S
C12 C8 1.377 . S
C12 C11 1.394 . S
H13 C20 0.929 . S
H14 C23 0.930 . S
H15 C25 0.929 . S
H16 C17 0.969 . S
C17 H16 0.969 . S
C17 O18 1.550 . S
C17 H19 0.973 . S
O18 C17 1.550 . S
O18 C24 1.412 . S
H19 C17 0.973 . S
C20 H13 0.929 . S
C20 C21 1.400 . S
C20 C22 1.364 . S
C21 C20 1.400 . S
C21 C25 1.377 . S
C22 C20 1.364 . S
C22 C23 1.374 . S
C23 H14 0.930 . S
C23 C22 1.374 . S
C23 C24 1.383 . S
C24 O18 1.412 . S
C24 C23 1.383 . S
C24 C25 1.394 . S
C25 H15 0.929 . S
C25 C21 1.377 . S
C25 C24 1.394 . S
H26 C33 0.929 . S
H27 C36 0.930 . S
H28 C38 0.929 . S
H29 C30 0.969 . S
C30 H29 0.969 . S
C30 O31 1.550 . S
C30 H32 0.973 . S
O31 C30 1.550 . S
O31 C37 1.412 . S
H32 C30 0.973 . S
C33 H26 0.929 . S
C33 C34 1.400 . S
C33 C35 1.364 . S
C34 C33 1.400 . S
C34 C38 1.377 . S
C35 C33 1.364 . S
C35 C36 1.374 . S
C36 H27 0.930 . S
C36 C35 1.374 . S
C36 C37 1.383 . S
C37 O31 1.412 . S
C37 C36 1.383 . S
C37 C38 1.394 . S
C38 H28 0.929 . S
C38 C34 1.377 . S
C38 C37 1.394 . S
H39 C46 0.929 . S
H40 C49 0.930 . S
H41 C51 0.929 . S
H42 C43 0.969 . S
C43 H42 0.969 . S
C43 O44 1.550 . S
C43 H45 0.973 . S
O44 C43 1.550 . S
O44 C50 1.412 . S
H45 C43 0.973 . S
C46 H39 0.929 . S
C46 C47 1.400 . S
C46 C48 1.364 . S
C47 C46 1.400 . S
C47 C51 1.377 . S
C48 C46 1.364 . S
C48 C49 1.374 . S
C49 H40 0.930 . S
C49 C48 1.374 . S
C49 C50 1.383 . S
C50 O44 1.412 . S
C50 C49 1.383 . S
C50 C51 1.394 . S
C51 H41 0.929 . S
C51 C47 1.377 . S
C51 C50 1.394 . S
H52 C59 0.929 . S
H53 C62 0.930 . S
H54 C64 0.929 . S
H55 C56 0.969 . S
C56 H55 0.969 . S
C56 O57 1.550 . S
C56 H58 0.973 . S
O57 C56 1.550 . S
O57 C63 1.412 . S
H58 C56 0.973 . S
C59 H52 0.929 . S
C59 C60 1.400 . S
C59 C61 1.364 . S
C60 C59 1.400 . S
C60 C64 1.377 . S
C61 C59 1.364 . S
C61 C62 1.374 . S
C62 H53 0.930 . S
C62 C61 1.374 . S
C62 C63 1.383 . S
C63 O57 1.412 . S
C63 C62 1.383 . S
C63 C64 1.394 . S
C64 H54 0.929 . S
C64 C60 1.377 . S
C64 C63 1.394 . S
H65 C72 0.929 . S
H66 C75 0.930 . S
H67 C77 0.929 . S
H68 C69 0.969 . S
C69 H68 0.969 . S
C69 O70 1.550 . S
C69 H71 0.973 . S
O70 C69 1.550 . S
O70 C76 1.412 . S
H71 C69 0.973 . S
C72 H65 0.929 . S
C72 C73 1.400 . S
C72 C74 1.364 . S
C73 C72 1.400 . S
C73 C77 1.377 . S
C74 C72 1.364 . S
C74 C75 1.374 . S
C75 H66 0.930 . S
C75 C74 1.374 . S
C75 C76 1.383 . S
C76 O70 1.412 . S
C76 C75 1.383 . S
C76 C77 1.394 . S
C77 H67 0.929 . S
C77 C73 1.377 . S
C77 C76 1.394 . S
H78 C85 0.929 . S
H79 C88 0.930 . S
H80 C90 0.929 . S
H81 C82 0.969 . S
C82 H81 0.969 . S
C82 O83 1.550 . S
C82 H84 0.973 . S
O83 C82 1.550 . S
O83 C89 1.412 . S
H84 C82 0.973 . S
C85 H78 0.929 . S
C85 C86 1.400 . S
C85 C87 1.364 . S
C86 C85 1.400 . S
C86 C90 1.377 . S
C87 C85 1.364 . S
C87 C88 1.374 . S
C88 H79 0.930 . S
C88 C87 1.374 . S
C88 C89 1.383 . S
C89 O83 1.412 . S
C89 C88 1.383 . S
C89 C90 1.394 . S
C90 H80 0.929 . S
C90 C86 1.377 . S
C90 C89 1.394 . S
H91 C98 0.929 . S
H92 C101 0.930 . S
H93 C103 0.929 . S
H94 C95 0.969 . S
C95 H94 0.969 . S
C95 O96 1.550 . S
C95 H97 0.973 . S
O96 C95 1.550 . S
O96 C102 1.412 . S
H97 C95 0.973 . S
C98 H91 0.929 . S
C98 C99 1.400 . S
C98 C100 1.364 . S
C99 C98 1.400 . S
C99 C103 1.377 . S
C100 C98 1.364 . S
C100 C101 1.374 . S
C101 H92 0.930 . S
C101 C100 1.374 . S
C101 C102 1.383 . S
C102 O96 1.412 . S
C102 C101 1.383 . S
C102 C103 1.394 . S
C103 H93 0.929 . S
C103 C99 1.377 . S
C103 C102 1.394 . S
Eu104 N133 2.600 . S
Eu104 N139 2.562 . S
Eu104 O148 2.462 . S
Eu104 O149 2.373 . S
Eu104 O151 2.432 . S
Eu104 O152 2.291 . S
Eu104 O156 2.335 . S
Eu104 O159 2.372 . S
Eu104 C168 2.787 . S
C105 N106 1.365 . S
C105 C108 1.405 . S
C105 C112 1.448 . S
N106 C105 1.365 . S
N106 C109 1.319 . S
N106 Eu115 2.600 . S
C107 C109 1.397 . S
C107 C110 1.367 . S
C107 H127 0.931 . S
C108 C105 1.405 . S
C108 C110 1.403 . S
C108 C114 1.439 . S
C109 N106 1.319 . S
C109 C107 1.397 . S
C109 H120 0.930 . S
C110 C107 1.367 . S
C110 C108 1.403 . S
C110 H131 0.929 . S
C111 C112 1.430 . S
C111 C113 1.387 . S
C111 C117 1.404 1_545 S
C112 C105 1.448 . S
C112 C111 1.430 . S
C112 N116 1.351 . S
C113 C111 1.387 . S
C113 C114 1.374 . S
C113 H128 0.931 . S
C114 C108 1.439 . S
C114 C113 1.374 . S
C114 H129 0.931 . S
Eu115 N106 2.600 . S
Eu115 N116 2.562 . S
Eu115 O150 2.335 1_655 S
Eu115 O153 2.372 . S
Eu115 O154 2.462 . S
Eu115 O155 2.373 . S
Eu115 O157 2.432 . S
Eu115 O158 2.291 1_655 S
Eu115 C179 2.787 . S
N116 C112 1.351 . S
N116 Eu115 2.562 . S
N116 C118 1.325 . S
C117 C111 1.404 1_565 S
C117 C119 1.366 . S
C117 H125 0.930 . S
C118 N116 1.325 . S
C118 C119 1.414 1_545 S
C118 H124 0.929 . S
C119 C117 1.366 . S
C119 C118 1.414 1_565 S
C119 H121 0.932 . S
H120 C109 0.930 . S
H121 C119 0.932 . S
H122 C137 0.930 . S
H123 C144 0.930 . S
H124 C118 0.929 . S
H125 C117 0.930 . S
H126 C140 0.929 . S
H127 C107 0.931 . S
H128 C113 0.931 . S
H129 C114 0.931 . S
H130 C135 0.931 . S
H131 C110 0.929 . S
H132 C143 0.930 . S
N133 Eu104 2.600 . S
N133 C134 1.365 . S
N133 C137 1.319 . S
C134 N133 1.365 . S
C134 C136 1.405 . S
C134 C142 1.448 . S
C135 H130 0.931 . S
C135 C137 1.397 . S
C135 C138 1.367 . S
C136 C134 1.405 . S
C136 C138 1.403 . S
C136 C169 1.439 . S
C137 H122 0.930 . S
C137 N133 1.319 . S
C137 C135 1.397 . S
C138 C135 1.367 . S
C138 C136 1.403 . S
C138 H145 0.929 . S
N139 Eu104 2.562 . S
N139 C140 1.325 . S
N139 C142 1.351 . S
C140 H126 0.929 . S
C140 N139 1.325 . S
C140 C144 1.416 . S
C141 C142 1.430 . S
C141 C143 1.404 . S
C141 C170 1.387 . S
C142 C134 1.448 . S
C142 N139 1.351 . S
C142 C141 1.430 . S
C143 H132 0.930 . S
C143 C141 1.404 . S
C143 C144 1.366 . S
C144 H123 0.930 . S
C144 C140 1.416 . S
C144 C143 1.366 . S
H145 C138 0.929 . S
H146 C169 0.931 . S
H147 C170 0.931 . S
O148 Eu104 2.462 . S
O148 C168 1.252 . S
O149 Eu104 2.373 . S
O149 C160 1.249 . S
O150 Eu115 2.335 1_455 S
O150 C160 1.264 . S
O151 Eu104 2.432 . S
O151 C168 1.268 . S
O152 Eu104 2.291 . S
O152 C167 1.255 1_455 S
O153 Eu115 2.372 . S
O153 C167 1.257 . S
O154 Eu115 2.462 . S
O154 C179 1.252 . S
O155 Eu115 2.373 . S
O155 C171 1.249 . S
O156 Eu104 2.335 . S
O156 C171 1.264 1_455 S
O157 Eu115 2.432 . S
O157 C179 1.268 . S
O158 Eu115 2.291 1_455 S
O158 C178 1.255 . S
O159 Eu104 2.372 . S
O159 C178 1.257 . S
C160 O149 1.249 . S
C160 O150 1.264 . S
C161 C164 1.382 . S
C161 C166 1.390 . S
C161 C168 1.506 . S
C162 C163 1.398 . S
C162 C166 1.392 . S
C163 C162 1.398 . S
C163 C165 1.372 . S
C163 H180 0.931 . S
C164 C161 1.382 . S
C164 C165 1.390 . S
C164 H181 0.931 . S
C165 C163 1.372 . S
C165 C164 1.390 . S
C165 H182 0.929 . S
C166 C161 1.390 . S
C166 C162 1.392 . S
C166 H183 0.930 . S
C167 O152 1.255 1_655 S
C167 O153 1.257 . S
C168 Eu104 2.787 . S
C168 O148 1.252 . S
C168 O151 1.268 . S
C168 C161 1.506 . S
C169 C136 1.439 . S
C169 H146 0.931 . S
C169 C170 1.374 . S
C170 C141 1.387 . S
C170 H147 0.931 . S
C170 C169 1.374 . S
C171 O155 1.249 . S
C171 O156 1.264 1_655 S
C172 C175 1.382 . S
C172 C176 1.390 . S
C172 C179 1.506 . S
C173 C174 1.398 . S
C173 C176 1.392 . S
C174 C173 1.398 . S
C174 C177 1.372 . S
C174 H184 0.931 . S
C175 C172 1.382 . S
C175 C177 1.390 . S
C175 H185 0.931 . S
C176 C172 1.390 . S
C176 C173 1.392 . S
C176 H186 0.930 . S
C177 C174 1.372 . S
C177 C175 1.390 . S
C177 H187 0.929 . S
C178 O158 1.255 . S
C178 O159 1.257 . S
C179 Eu115 2.787 . S
C179 O154 1.252 . S
C179 O157 1.268 . S
C179 C172 1.506 . S
H180 C163 0.931 . S
H181 C164 0.931 . S
H182 C165 0.929 . S
H183 C166 0.930 . S
H184 C174 0.931 . S
H185 C175 0.931 . S
H186 C176 0.930 . S
H187 C177 0.929 . S
Eu188 N217 2.600 . S
Eu188 N223 2.562 . S
Eu188 O232 2.462 . S
Eu188 O233 2.373 . S
Eu188 O235 2.432 . S
Eu188 O236 2.291 . S
Eu188 O240 2.335 . S
Eu188 O243 2.372 . S
Eu188 C252 2.787 . S
C189 N190 1.365 . S
C189 C192 1.405 . S
C189 C196 1.448 . S
N190 C189 1.365 . S
N190 C193 1.319 . S
N190 Eu199 2.600 . S
C191 C193 1.397 . S
C191 C194 1.367 . S
C191 H211 0.931 . S
C192 C189 1.405 . S
C192 C194 1.403 . S
C192 C198 1.439 . S
C193 N190 1.319 . S
C193 C191 1.397 . S
C193 H204 0.930 . S
C194 C191 1.367 . S
C194 C192 1.403 . S
C194 H215 0.929 . S
C195 C196 1.430 . S
C195 C197 1.387 . S
C195 C201 1.404 . S
C196 C189 1.448 . S
C196 C195 1.430 . S
C196 N200 1.351 . S
C197 C195 1.387 . S
C197 C198 1.374 . S
C197 H212 0.931 . S
C198 C192 1.439 . S
C198 C197 1.374 . S
C198 H213 0.931 . S
Eu199 N190 2.600 . S
Eu199 N200 2.562 . S
Eu199 O234 2.335 . S
Eu199 O237 2.372 . S
Eu199 O238 2.462 . S
Eu199 O239 2.373 . S
Eu199 O241 2.432 . S
Eu199 O242 2.291 . S
Eu199 C263 2.787 . S
N200 C196 1.351 . S
N200 Eu199 2.562 . S
N200 C202 1.325 . S
C201 C195 1.404 . S
C201 C203 1.366 . S
C201 H209 0.930 . S
C202 N200 1.325 . S
C202 C203 1.416 . S
C202 H208 0.929 . S
C203 C201 1.366 . S
C203 C202 1.416 . S
C203 H205 0.930 . S
H204 C193 0.930 . S
H205 C203 0.930 . S
H206 C221 0.930 . S
H207 C228 0.930 . S
H208 C202 0.929 . S
H209 C201 0.930 . S
H210 C224 0.929 . S
H211 C191 0.931 . S
H212 C197 0.931 . S
H213 C198 0.931 . S
H214 C219 0.931 . S
H215 C194 0.929 . S
H216 C227 0.930 . S
N217 Eu188 2.600 . S
N217 C218 1.365 . S
N217 C221 1.319 . S
C218 N217 1.365 . S
C218 C220 1.405 . S
C218 C226 1.448 . S
C219 H214 0.931 . S
C219 C221 1.397 . S
C219 C222 1.367 . S
C220 C218 1.405 . S
C220 C222 1.403 . S
C220 C253 1.439 . S
C221 H206 0.930 . S
C221 N217 1.319 . S
C221 C219 1.397 . S
C222 C219 1.367 . S
C222 C220 1.403 . S
C222 H229 0.929 . S
N223 Eu188 2.562 . S
N223 C224 1.325 . S
N223 C226 1.351 . S
C224 H210 0.929 . S
C224 N223 1.325 . S
C224 C228 1.416 . S
C225 C226 1.430 . S
C225 C227 1.404 . S
C225 C254 1.387 . S
C226 C218 1.448 . S
C226 N223 1.351 . S
C226 C225 1.430 . S
C227 H216 0.930 . S
C227 C225 1.404 . S
C227 C228 1.366 . S
C228 H207 0.930 . S
C228 C224 1.416 . S
C228 C227 1.366 . S
H229 C222 0.929 . S
H230 C253 0.931 . S
H231 C254 0.931 . S
O232 Eu188 2.462 . S
O232 C252 1.252 . S
O233 Eu188 2.373 . S
O233 C244 1.249 . S
O234 Eu199 2.335 . S
O234 C244 1.264 . S
O235 Eu188 2.432 . S
O235 C252 1.268 . S
O236 Eu188 2.291 . S
O236 C251 1.255 . S
O237 Eu199 2.372 . S
O237 C251 1.257 . S
O238 Eu199 2.462 . S
O238 C263 1.252 . S
O239 Eu199 2.373 . S
O239 C255 1.249 . S
O240 Eu188 2.335 . S
O240 C255 1.264 . S
O241 Eu199 2.432 . S
O241 C263 1.268 . S
O242 Eu199 2.291 . S
O242 C262 1.255 . S
O243 Eu188 2.372 . S
O243 C262 1.257 . S
C244 O233 1.249 . S
C244 O234 1.264 . S
C245 C248 1.382 . S
C245 C250 1.390 . S
C245 C252 1.506 . S
C246 C247 1.398 . S
C246 C250 1.392 . S
C247 C246 1.398 . S
C247 C249 1.372 . S
C247 H264 0.931 . S
C248 C245 1.382 . S
C248 C249 1.390 . S
C248 H265 0.931 . S
C249 C247 1.372 . S
C249 C248 1.390 . S
C249 H266 0.929 . S
C250 C245 1.390 . S
C250 C246 1.392 . S
C250 H267 0.930 . S
C251 O236 1.255 . S
C251 O237 1.257 . S
C252 Eu188 2.787 . S
C252 O232 1.252 . S
C252 O235 1.268 . S
C252 C245 1.506 . S
C253 C220 1.439 . S
C253 H230 0.931 . S
C253 C254 1.374 . S
C254 C225 1.387 . S
C254 H231 0.931 . S
C254 C253 1.374 . S
C255 O239 1.249 . S
C255 O240 1.264 . S
C256 C259 1.382 . S
C256 C260 1.390 . S
C256 C263 1.506 . S
C257 C258 1.398 . S
C257 C260 1.392 . S
C258 C257 1.398 . S
C258 C261 1.372 . S
C258 H268 0.931 . S
C259 C256 1.382 . S
C259 C261 1.390 . S
C259 H269 0.931 . S
C260 C256 1.390 . S
C260 C257 1.392 . S
C260 H270 0.930 . S
C261 C258 1.372 . S
C261 C259 1.390 . S
C261 H271 0.929 . S
C262 O242 1.255 . S
C262 O243 1.257 . S
C263 Eu199 2.787 . S
C263 O238 1.252 . S
C263 O241 1.268 . S
C263 C256 1.506 . S
H264 C247 0.931 . S
H265 C248 0.931 . S
H266 C249 0.929 . S
H267 C250 0.930 . S
H268 C258 0.931 . S
H269 C259 0.931 . S
H270 C260 0.930 . S
H271 C261 0.929 . S
Eu272 N301 2.600 . S
Eu272 N307 2.562 . S
Eu272 O316 2.462 . S
Eu272 O317 2.373 . S
Eu272 O319 2.432 . S
Eu272 O320 2.291 . S
Eu272 O324 2.335 . S
Eu272 O327 2.372 . S
Eu272 C336 2.787 . S
C273 N274 1.365 . S
C273 C276 1.405 . S
C273 C280 1.448 . S
N274 C273 1.365 . S
N274 C277 1.319 . S
N274 Eu283 2.600 . S
C275 C277 1.397 . S
C275 C278 1.367 . S
C275 H295 0.931 . S
C276 C273 1.405 . S
C276 C278 1.403 . S
C276 C282 1.439 . S
C277 N274 1.319 . S
C277 C275 1.397 . S
C277 H288 0.930 . S
C278 C275 1.367 . S
C278 C276 1.403 . S
C278 H299 0.929 . S
C279 C280 1.430 . S
C279 C281 1.387 . S
C279 C285 1.404 . S
C280 C273 1.448 . S
C280 C279 1.430 . S
C280 N284 1.351 . S
C281 C279 1.387 . S
C281 C282 1.374 . S
C281 H296 0.931 . S
C282 C276 1.439 . S
C282 C281 1.374 . S
C282 H297 0.931 . S
Eu283 N274 2.600 . S
Eu283 N284 2.562 . S
Eu283 O318 2.335 1_655 S
Eu283 O321 2.372 . S
Eu283 O322 2.462 . S
Eu283 O323 2.373 . S
Eu283 O325 2.432 . S
Eu283 O326 2.291 1_655 S
Eu283 C347 2.787 . S
N284 C280 1.351 . S
N284 Eu283 2.562 . S
N284 C286 1.325 . S
C285 C279 1.404 . S
C285 C287 1.366 . S
C285 H293 0.930 . S
C286 N284 1.325 . S
C286 C287 1.416 . S
C286 H292 0.929 . S
C287 C285 1.366 . S
C287 C286 1.416 . S
C287 H289 0.930 . S
H288 C277 0.930 . S
H289 C287 0.930 . S
H290 C305 0.930 . S
H291 C312 0.932 . S
H292 C286 0.929 . S
H293 C285 0.930 . S
H294 C308 0.929 . S
H295 C275 0.931 . S
H296 C281 0.931 . S
H297 C282 0.931 . S
H298 C303 0.931 . S
H299 C278 0.929 . S
H300 C311 0.930 . S
N301 Eu272 2.600 . S
N301 C302 1.365 . S
N301 C305 1.319 . S
C302 N301 1.365 . S
C302 C304 1.405 . S
C302 C310 1.448 . S
C303 H298 0.931 . S
C303 C305 1.397 . S
C303 C306 1.367 . S
C304 C302 1.405 . S
C304 C306 1.403 . S
C304 C337 1.439 . S
C305 H290 0.930 . S
C305 N301 1.319 . S
C305 C303 1.397 . S
C306 C303 1.367 . S
C306 C304 1.403 . S
C306 H313 0.929 . S
N307 Eu272 2.562 . S
N307 C308 1.325 . S
N307 C310 1.351 . S
C308 H294 0.929 . S
C308 N307 1.325 . S
C308 C312 1.413 1_565 S
C309 C310 1.430 . S
C309 C311 1.404 1_565 S
C309 C338 1.387 . S
C310 C302 1.448 . S
C310 N307 1.351 . S
C310 C309 1.430 . S
C311 H300 0.930 . S
C311 C309 1.404 1_545 S
C311 C312 1.366 . S
C312 H291 0.932 . S
C312 C308 1.413 1_545 S
C312 C311 1.366 . S
H313 C306 0.929 . S
H314 C337 0.931 . S
H315 C338 0.931 . S
O316 Eu272 2.462 . S
O316 C336 1.252 . S
O317 Eu272 2.373 . S
O317 C328 1.249 . S
O318 Eu283 2.335 1_455 S
O318 C328 1.264 . S
O319 Eu272 2.432 . S
O319 C336 1.268 . S
O320 Eu272 2.291 . S
O320 C335 1.255 1_455 S
O321 Eu283 2.372 . S
O321 C335 1.257 . S
O322 Eu283 2.462 . S
O322 C347 1.252 . S
O323 Eu283 2.373 . S
O323 C339 1.249 . S
O324 Eu272 2.335 . S
O324 C339 1.264 1_455 S
O325 Eu283 2.432 . S
O325 C347 1.268 . S
O326 Eu283 2.291 1_455 S
O326 C346 1.255 . S
O327 Eu272 2.372 . S
O327 C346 1.257 . S
C328 O317 1.249 . S
C328 O318 1.264 . S
C329 C332 1.382 . S
C329 C334 1.390 . S
C329 C336 1.506 . S
C330 C331 1.398 . S
C330 C334 1.392 . S
C331 C330 1.398 . S
C331 C333 1.372 . S
C331 H348 0.931 . S
C332 C329 1.382 . S
C332 C333 1.390 . S
C332 H349 0.931 . S
C333 C331 1.372 . S
C333 C332 1.390 . S
C333 H350 0.929 . S
C334 C329 1.390 . S
C334 C330 1.392 . S
C334 H351 0.930 . S
C335 O320 1.255 1_655 S
C335 O321 1.257 . S
C336 Eu272 2.787 . S
C336 O316 1.252 . S
C336 O319 1.268 . S
C336 C329 1.506 . S
C337 C304 1.439 . S
C337 H314 0.931 . S
C337 C338 1.374 . S
C338 C309 1.387 . S
C338 H315 0.931 . S
C338 C337 1.374 . S
C339 O323 1.249 . S
C339 O324 1.264 1_655 S
C340 C343 1.382 . S
C340 C344 1.390 . S
C340 C347 1.506 . S
C341 C342 1.398 . S
C341 C344 1.392 . S
C342 C341 1.398 . S
C342 C345 1.372 . S
C342 H352 0.931 . S
C343 C340 1.382 . S
C343 C345 1.390 . S
C343 H353 0.931 . S
C344 C340 1.390 . S
C344 C341 1.392 . S
C344 H354 0.930 . S
C345 C342 1.372 . S
C345 C343 1.390 . S
C345 H355 0.929 . S
C346 O326 1.255 . S
C346 O327 1.257 . S
C347 Eu283 2.787 . S
C347 O322 1.252 . S
C347 O325 1.268 . S
C347 C340 1.506 . S
H348 C331 0.931 . S
H349 C332 0.931 . S
H350 C333 0.929 . S
H351 C334 0.930 . S
H352 C342 0.931 . S
H353 C343 0.931 . S
H354 C344 0.930 . S
H355 C345 0.929 . S
Eu356 N385 2.600 . S
Eu356 N391 2.562 . S
Eu356 O400 2.462 . S
Eu356 O401 2.373 . S
Eu356 O403 2.432 . S
Eu356 O404 2.291 . S
Eu356 O408 2.335 . S
Eu356 O411 2.372 . S
Eu356 C420 2.787 . S
C357 N358 1.365 . S
C357 C360 1.405 . S
C357 C364 1.448 . S
N358 C357 1.365 . S
N358 C361 1.319 . S
N358 Eu367 2.600 . S
C359 C361 1.397 . S
C359 C362 1.367 . S
C359 H379 0.931 . S
C360 C357 1.405 . S
C360 C362 1.403 . S
C360 C366 1.439 . S
C361 N358 1.319 . S
C361 C359 1.397 . S
C361 H372 0.930 . S
C362 C359 1.367 . S
C362 C360 1.403 . S
C362 H383 0.929 . S
C363 C364 1.430 . S
C363 C365 1.387 . S
C363 C369 1.404 . S
C364 C357 1.448 . S
C364 C363 1.430 . S
C364 N368 1.351 . S
C365 C363 1.387 . S
C365 C366 1.374 . S
C365 H380 0.931 . S
C366 C360 1.439 . S
C366 C365 1.374 . S
C366 H381 0.931 . S
Eu367 N358 2.600 . S
Eu367 N368 2.562 . S
Eu367 O402 2.335 . S
Eu367 O405 2.372 . S
Eu367 O406 2.462 . S
Eu367 O407 2.373 . S
Eu367 O409 2.432 . S
Eu367 O410 2.291 . S
Eu367 C431 2.787 . S
N368 C364 1.351 . S
N368 Eu367 2.562 . S
N368 C370 1.325 . S
C369 C363 1.404 . S
C369 C371 1.366 . S
C369 H377 0.930 . S
C370 N368 1.325 . S
C370 C371 1.416 . S
C370 H376 0.929 . S
C371 C369 1.366 . S
C371 C370 1.416 . S
C371 H373 0.930 . S
H372 C361 0.930 . S
H373 C371 0.930 . S
H374 C389 0.930 . S
H375 C396 0.930 . S
H376 C370 0.929 . S
H377 C369 0.930 . S
H378 C392 0.929 . S
H379 C359 0.931 . S
H380 C365 0.931 . S
H381 C366 0.931 . S
H382 C387 0.931 . S
H383 C362 0.929 . S
H384 C395 0.930 . S
N385 Eu356 2.600 . S
N385 C386 1.365 . S
N385 C389 1.319 . S
C386 N385 1.365 . S
C386 C388 1.405 . S
C386 C394 1.448 . S
C387 H382 0.931 . S
C387 C389 1.397 . S
C387 C390 1.367 . S
C388 C386 1.405 . S
C388 C390 1.403 . S
C388 C421 1.439 . S
C389 H374 0.930 . S
C389 N385 1.319 . S
C389 C387 1.397 . S
C390 C387 1.367 . S
C390 C388 1.403 . S
C390 H397 0.929 . S
N391 Eu356 2.562 . S
N391 C392 1.325 . S
N391 C394 1.351 . S
C392 H378 0.929 . S
C392 N391 1.325 . S
C392 C396 1.416 . S
C393 C394 1.430 . S
C393 C395 1.404 . S
C393 C422 1.387 . S
C394 C386 1.448 . S
C394 N391 1.351 . S
C394 C393 1.430 . S
C395 H384 0.930 . S
C395 C393 1.404 . S
C395 C396 1.366 . S
C396 H375 0.930 . S
C396 C392 1.416 . S
C396 C395 1.366 . S
H397 C390 0.929 . S
H398 C421 0.931 . S
H399 C422 0.931 . S
O400 Eu356 2.462 . S
O400 C420 1.252 . S
O401 Eu356 2.373 . S
O401 C412 1.249 . S
O402 Eu367 2.335 . S
O402 C412 1.264 . S
O403 Eu356 2.432 . S
O403 C420 1.268 . S
O404 Eu356 2.291 . S
O404 C419 1.255 . S
O405 Eu367 2.372 . S
O405 C419 1.257 . S
O406 Eu367 2.462 . S
O406 C431 1.252 . S
O407 Eu367 2.373 . S
O407 C423 1.249 . S
O408 Eu356 2.335 . S
O408 C423 1.264 . S
O409 Eu367 2.432 . S
O409 C431 1.268 . S
O410 Eu367 2.291 . S
O410 C430 1.255 . S
O411 Eu356 2.372 . S
O411 C430 1.257 . S
C412 O401 1.249 . S
C412 O402 1.264 . S
C413 C416 1.382 . S
C413 C418 1.390 . S
C413 C420 1.506 . S
C414 C415 1.398 . S
C414 C418 1.392 . S
C415 C414 1.398 . S
C415 C417 1.372 . S
C415 H432 0.931 . S
C416 C413 1.382 . S
C416 C417 1.390 . S
C416 H433 0.931 . S
C417 C415 1.372 . S
C417 C416 1.390 . S
C417 H434 0.929 . S
C418 C413 1.390 . S
C418 C414 1.392 . S
C418 H435 0.930 . S
C419 O404 1.255 . S
C419 O405 1.257 . S
C420 Eu356 2.787 . S
C420 O400 1.252 . S
C420 O403 1.268 . S
C420 C413 1.506 . S
C421 C388 1.439 . S
C421 H398 0.931 . S
C421 C422 1.374 . S
C422 C393 1.387 . S
C422 H399 0.931 . S
C422 C421 1.374 . S
C423 O407 1.249 . S
C423 O408 1.264 . S
C424 C427 1.382 . S
C424 C428 1.390 . S
C424 C431 1.506 . S
C425 C426 1.398 . S
C425 C428 1.392 . S
C426 C425 1.398 . S
C426 C429 1.372 . S
C426 H436 0.931 . S
C427 C424 1.382 . S
C427 C429 1.390 . S
C427 H437 0.931 . S
C428 C424 1.390 . S
C428 C425 1.392 . S
C428 H438 0.930 . S
C429 C426 1.372 . S
C429 C427 1.390 . S
C429 H439 0.929 . S
C430 O410 1.255 . S
C430 O411 1.257 . S
C431 Eu367 2.787 . S
C431 O406 1.252 . S
C431 O409 1.268 . S
C431 C424 1.506 . S
H432 C415 0.931 . S
H433 C416 0.931 . S
H434 C417 0.929 . S
H435 C418 0.930 . S
H436 C426 0.931 . S
H437 C427 0.931 . S
H438 C428 0.930 . S
H439 C429 0.929 . S
H440 C446 0.930 . S
H441 C450 0.930 1_565 S
H442 C455 0.929 . S
H443 C453 0.929 . S
H444 C448 0.929 . S
H445 C454 0.916 1_545 S
C446 H440 0.930 . S
C446 C447 1.367 . S
C446 C454 1.378 . S
C447 C446 1.367 . S
C447 C455 1.433 . S
C448 H444 0.929 . S
C448 C450 1.378 1_565 S
C448 C452 1.350 . S
C449 C452 1.463 . S
C449 C454 1.350 . S
C449 N457 1.427 . S
C450 H441 0.930 1_545 S
C450 C448 1.378 1_545 S
C450 C451 1.367 . S
C451 C450 1.367 . S
C451 C453 1.433 . S
C452 C448 1.350 . S
C452 C449 1.463 . S
C452 N456 1.427 1_565 S
C453 H443 0.929 . S
C453 C451 1.433 . S
C453 N456 1.384 . S
C454 H445 0.916 1_565 S
C454 C446 1.378 . S
C454 C449 1.350 . S
C455 H442 0.929 . S
C455 C447 1.433 . S
C455 N457 1.384 . S
N456 C452 1.427 1_545 S
N456 C453 1.384 . S
N457 C449 1.427 . S
N457 C455 1.384 . S
H458 C464 0.930 . S
H459 C468 0.930 . S
H460 C473 0.929 . S
H461 C471 0.929 . S
H462 C466 0.929 . S
H463 C472 0.929 . S
C464 H458 0.930 . S
C464 C465 1.367 . S
C464 C472 1.378 . S
C465 C464 1.367 . S
C465 C473 1.433 . S
C466 H462 0.929 . S
C466 C468 1.378 . S
C466 C470 1.350 . S
C467 C470 1.463 . S
C467 C472 1.350 . S
C467 N475 1.427 . S
C468 H459 0.930 . S
C468 C466 1.378 . S
C468 C469 1.367 . S
C469 C468 1.367 . S
C469 C471 1.433 . S
C470 C466 1.350 . S
C470 C467 1.463 . S
C470 N474 1.427 . S
C471 H461 0.929 . S
C471 C469 1.433 . S
C471 N474 1.384 . S
C472 H463 0.929 . S
C472 C464 1.378 . S
C472 C467 1.350 . S
C473 H460 0.929 . S
C473 C465 1.433 . S
C473 N475 1.384 . S
N474 C470 1.427 . S
N474 C471 1.384 . S
N475 C467 1.427 . S
N475 C473 1.384 . S
H476 C482 0.930 . S
H477 C486 0.930 . S
H478 C491 0.929 . S
H479 C489 0.929 . S
H480 C484 0.929 . S
H481 C490 0.929 . S
C482 H476 0.930 . S
C482 C483 1.367 . S
C482 C490 1.378 . S
C483 C482 1.367 . S
C483 C491 1.433 . S
C484 H480 0.929 . S
C484 C486 1.378 . S
C484 C488 1.350 . S
C485 C488 1.463 . S
C485 C490 1.350 . S
C485 N493 1.427 . S
C486 H477 0.930 . S
C486 C484 1.378 . S
C486 C487 1.367 . S
C487 C486 1.367 . S
C487 C489 1.433 . S
C488 C484 1.350 . S
C488 C485 1.463 . S
C488 N492 1.427 . S
C489 H479 0.929 . S
C489 C487 1.433 . S
C489 N492 1.384 . S
C490 H481 0.929 . S
C490 C482 1.378 . S
C490 C485 1.350 . S
C491 H478 0.929 . S
C491 C483 1.433 . S
C491 N493 1.384 . S
N492 C488 1.427 . S
N492 C489 1.384 . S
N493 C485 1.427 . S
N493 C491 1.384 . S
H494 C500 0.930 . S
H495 C504 0.930 1_455 S
H496 C509 0.929 . S
H497 C507 0.929 . S
H498 C502 0.929 . S
H499 C508 0.929 . S
C500 H494 0.930 . S
C500 C501 1.367 . S
C500 C508 1.378 . S
C501 C500 1.367 . S
C501 C509 1.433 . S
C502 H498 0.929 . S
C502 C504 1.378 1_565 S
C502 C506 1.350 . S
C503 C506 1.463 . S
C503 C508 1.350 . S
C503 N511 1.427 . S
C504 H495 0.930 1_655 S
C504 C502 1.378 1_545 S
C504 C505 1.367 . S
C505 C504 1.367 . S
C505 C507 1.433 . S
C506 C502 1.350 . S
C506 C503 1.463 . S
C506 N510 1.427 1_565 S
C507 H497 0.929 . S
C507 C505 1.433 . S
C507 N510 1.384 . S
C508 H499 0.929 . S
C508 C500 1.378 . S
C508 C503 1.350 . S
C509 H496 0.929 . S
C509 C501 1.433 . S
C509 N511 1.384 . S
N510 C506 1.427 1_545 S
N510 C507 1.384 . S
N511 C503 1.427 . S
N511 C509 1.384 . S
H512 C518 0.930 . S
H513 C522 0.931 . S
H514 C527 0.929 . S
H515 C525 0.929 . S
H516 C520 0.929 . S
H517 C526 0.929 . S
C518 H512 0.930 . S
C518 C519 1.367 . S
C518 C526 1.378 . S
C519 C518 1.367 . S
C519 C527 1.433 . S
C520 H516 0.929 . S
C520 C522 1.378 1_545 S
C520 C524 1.350 . S
C521 C524 1.463 . S
C521 C526 1.350 . S
C521 N529 1.427 . S
C522 H513 0.931 . S
C522 C520 1.378 1_565 S
C522 C523 1.367 . S
C523 C522 1.367 . S
C523 C525 1.433 . S
C524 C520 1.350 . S
C524 C521 1.463 . S
C524 N528 1.427 1_545 S
C525 H515 0.929 . S
C525 C523 1.433 . S
C525 N528 1.384 . S
C526 H517 0.929 . S
C526 C518 1.378 . S
C526 C521 1.350 . S
C527 H514 0.929 . S
C527 C519 1.433 . S
C527 N529 1.384 . S
N528 C524 1.427 1_565 S
N528 C525 1.384 . S
N529 C521 1.427 . S
N529 C527 1.384 . S
H530 C536 0.930 . S
H531 C540 0.930 . S
H532 C545 0.929 . S
H533 C543 0.929 . S
H534 C538 0.929 . S
H535 C544 0.929 . S
C536 H530 0.930 . S
C536 C537 1.367 . S
C536 C544 1.378 . S
C537 C536 1.367 . S
C537 C545 1.433 . S
C538 H534 0.929 . S
C538 C540 1.378 . S
C538 C542 1.350 . S
C539 C542 1.463 . S
C539 C544 1.350 . S
C539 N547 1.427 . S
C540 H531 0.930 . S
C540 C538 1.378 . S
C540 C541 1.367 . S
C541 C540 1.367 . S
C541 C543 1.433 . S
C542 C538 1.350 . S
C542 C539 1.463 . S
C542 N546 1.427 . S
C543 H533 0.929 . S
C543 C541 1.433 . S
C543 N546 1.384 . S
C544 H535 0.929 . S
C544 C536 1.378 . S
C544 C539 1.350 . S
C545 H532 0.929 . S
C545 C537 1.433 . S
C545 N547 1.384 . S
N546 C542 1.427 . S
N546 C543 1.384 . S
N547 C539 1.427 . S
N547 C545 1.384 . S
H548 C554 0.930 . S
H549 C558 0.930 . S
H550 C563 0.929 . S
H551 C561 0.929 . S
H552 C556 0.929 . S
H553 C562 0.929 . S
C554 H548 0.930 . S
C554 C555 1.367 . S
C554 C562 1.378 . S
C555 C554 1.367 . S
C555 C563 1.433 . S
C556 H552 0.929 . S
C556 C558 1.378 . S
C556 C560 1.350 . S
C557 C560 1.463 . S
C557 C562 1.350 . S
C557 N565 1.427 . S
C558 H549 0.930 . S
C558 C556 1.378 . S
C558 C559 1.367 . S
C559 C558 1.367 . S
C559 C561 1.433 . S
C560 C556 1.350 . S
C560 C557 1.463 . S
C560 N564 1.427 . S
C561 H551 0.929 . S
C561 C559 1.433 . S
C561 N564 1.384 . S
C562 H553 0.929 . S
C562 C554 1.378 . S
C562 C557 1.350 . S
C563 H550 0.929 . S
C563 C555 1.433 . S
C563 N565 1.384 . S
N564 C560 1.427 . S
N564 C561 1.384 . S
N565 C557 1.427 . S
N565 C563 1.384 . S
H566 C572 0.930 . S
H567 C576 0.930 1_545 S
H568 C581 0.929 . S
H569 C579 0.929 . S
H570 C574 0.929 . S
H571 C580 0.929 1_565 S
C572 H566 0.930 . S
C572 C573 1.367 . S
C572 C580 1.378 . S
C573 C572 1.367 . S
C573 C581 1.433 . S
C574 H570 0.929 . S
C574 C576 1.378 1_545 S
C574 C578 1.350 . S
C575 C578 1.463 . S
C575 C580 1.350 . S
C575 N583 1.427 . S
C576 H567 0.930 1_565 S
C576 C574 1.378 1_565 S
C576 C577 1.367 . S
C577 C576 1.367 . S
C577 C579 1.433 . S
C578 C574 1.350 . S
C578 C575 1.463 . S
C578 N582 1.427 1_545 S
C579 H569 0.929 . S
C579 C577 1.433 . S
C579 N582 1.384 . S
C580 H571 0.929 1_545 S
C580 C572 1.378 . S
C580 C575 1.350 . S
C581 H568 0.929 . S
C581 C573 1.433 . S
C581 N583 1.384 . S
N582 C578 1.427 1_565 S
N582 C579 1.384 . S
N583 C575 1.427 . S
N583 C581 1.384 . S
H584 C590 0.930 . S
H585 C594 0.930 . S
H586 C599 0.929 . S
H587 C597 0.929 . S
H588 C592 0.929 . S
H589 C598 0.929 . S
C590 H584 0.930 . S
C590 C591 1.367 . S
C590 C598 1.378 . S
C591 C590 1.367 . S
C591 C599 1.433 . S
C592 H588 0.929 . S
C592 C594 1.378 . S
C592 C596 1.350 . S
C593 C596 1.463 . S
C593 C598 1.350 1_554 S
C593 N601 1.427 . S
C594 H585 0.930 . S
C594 C592 1.378 . S
C594 C595 1.367 . S
C595 C594 1.367 . S
C595 C597 1.433 . S
C596 C592 1.350 . S
C596 C593 1.463 . S
C596 N600 1.427 . S
C597 H587 0.929 . S
C597 C595 1.433 . S
C597 N600 1.384 . S
C598 H589 0.929 . S
C598 C590 1.378 . S
C598 C593 1.350 1_556 S
C599 H586 0.929 . S
C599 C591 1.433 . S
C599 N601 1.384 1_556 S
N600 C596 1.427 . S
N600 C597 1.384 . S
N601 C593 1.427 . S
N601 C599 1.384 1_554 S
H602 C608 0.930 . S
H603 C612 0.930 . S
H604 C617 0.929 . S
H605 C615 0.929 . S
H606 C610 0.929 . S
H607 C616 0.929 . S
C608 H602 0.930 . S
C608 C609 1.367 . S
C608 C616 1.378 . S
C609 C608 1.367 . S
C609 C617 1.433 . S
C610 H606 0.929 . S
C610 C612 1.378 . S
C610 C614 1.350 . S
C611 C614 1.463 . S
C611 C616 1.350 . S
C611 N619 1.427 . S
C612 H603 0.930 . S
C612 C610 1.378 . S
C612 C613 1.367 . S
C613 C612 1.367 . S
C613 C615 1.433 . S
C614 C610 1.350 . S
C614 C611 1.463 . S
C614 N618 1.427 . S
C615 H605 0.929 . S
C615 C613 1.433 . S
C615 N618 1.384 . S
C616 H607 0.929 . S
C616 C608 1.378 . S
C616 C611 1.350 . S
C617 H604 0.929 . S
C617 C609 1.433 . S
C617 N619 1.384 . S
N618 C614 1.427 . S
N618 C615 1.384 . S
N619 C611 1.427 . S
N619 C617 1.384 . S
H620 C626 0.930 . S
H621 C630 0.930 . S
H622 C635 0.929 . S
H623 C633 0.929 . S
H624 C628 0.929 . S
H625 C634 0.929 1_556 S
C626 H620 0.930 . S
C626 C627 1.367 . S
C626 C634 1.378 . S
C627 C626 1.367 . S
C627 C635 1.433 . S
C628 H624 0.929 . S
C628 C630 1.378 . S
C628 C632 1.350 . S
C629 C632 1.467 . S
C629 C634 1.349 1_556 S
C629 N637 1.424 1_556 S
C630 H621 0.930 . S
C630 C628 1.378 . S
C630 C631 1.367 . S
C631 C630 1.367 . S
C631 C633 1.433 . S
C632 C628 1.350 . S
C632 C629 1.467 . S
C632 N636 1.427 . S
C633 H623 0.929 . S
C633 C631 1.433 . S
C633 N636 1.384 . S
C634 H625 0.929 1_554 S
C634 C626 1.378 . S
C634 C629 1.349 1_554 S
C635 H622 0.929 . S
C635 C627 1.433 . S
C635 N637 1.384 . S
N636 C632 1.427 . S
N636 C633 1.384 . S
N637 C629 1.424 1_554 S
N637 C635 1.384 . S
H638 C644 0.930 . S
H639 C648 0.930 . S
H640 C653 0.929 . S
H641 C651 0.929 . S
H642 C646 0.929 . S
H643 C652 0.929 . S
C644 H638 0.930 . S
C644 C645 1.367 . S
C644 C652 1.378 . S
C645 C644 1.367 . S
C645 C653 1.433 . S
C646 H642 0.929 . S
C646 C648 1.378 . S
C646 C650 1.350 . S
C647 C650 1.463 . S
C647 C652 1.350 . S
C647 N655 1.427 . S
C648 H639 0.930 . S
C648 C646 1.378 . S
C648 C649 1.367 . S
C649 C648 1.367 . S
C649 C651 1.433 . S
C650 C646 1.350 . S
C650 C647 1.463 . S
C650 N654 1.427 . S
C651 H641 0.929 . S
C651 C649 1.433 . S
C651 N654 1.384 . S
C652 H643 0.929 . S
C652 C644 1.378 . S
C652 C647 1.350 . S
C653 H640 0.929 . S
C653 C645 1.433 . S
C653 N655 1.384 . S
N654 C650 1.427 . S
N654 C651 1.384 . S
N655 C647 1.427 . S
N655 C653 1.384 . S
H656 C662 0.930 . S
H657 C666 0.930 . S
H658 C671 0.929 . S
H659 C669 0.929 . S
H660 C664 0.929 . S
H661 C670 0.929 . S
C662 H656 0.930 . S
C662 C663 1.367 . S
C662 C670 1.378 1_554 S
C663 C662 1.367 . S
C663 C671 1.433 . S
C664 H660 0.929 . S
C664 C666 1.378 . S
C664 C668 1.350 . S
C665 C668 1.463 . S
C665 C670 1.350 . S
C665 N673 1.427 1_556 S
C666 H657 0.930 . S
C666 C664 1.378 . S
C666 C667 1.367 . S
C667 C666 1.367 . S
C667 C669 1.433 . S
C668 C664 1.350 . S
C668 C665 1.463 . S
C668 N672 1.427 . S
C669 H659 0.929 . S
C669 C667 1.433 . S
C669 N672 1.384 . S
C670 H661 0.929 . S
C670 C662 1.378 1_556 S
C670 C665 1.350 . S
C671 H658 0.929 . S
C671 C663 1.433 . S
C671 N673 1.384 . S
N672 C668 1.427 . S
N672 C669 1.384 . S
N673 C665 1.427 1_554 S
N673 C671 1.384 . S
H674 C680 0.930 . S
H675 C684 0.930 . S
H676 C689 0.929 . S
H677 C687 0.929 . S
H678 C682 0.929 . S
H679 C688 0.929 . S
C680 H674 0.930 . S
C680 C681 1.367 . S
C680 C688 1.378 . S
C681 C680 1.367 . S
C681 C689 1.433 . S
C682 H678 0.929 . S
C682 C684 1.378 . S
C682 C686 1.350 . S
C683 C686 1.463 . S
C683 C688 1.350 . S
C683 N691 1.427 . S
C684 H675 0.930 . S
C684 C682 1.378 . S
C684 C685 1.367 . S
C685 C684 1.367 . S
C685 C687 1.433 . S
C686 C682 1.350 . S
C686 C683 1.463 . S
C686 N690 1.427 . S
C687 H677 0.929 . S
C687 C685 1.433 . S
C687 N690 1.384 . S
C688 H679 0.929 . S
C688 C680 1.378 . S
C688 C683 1.350 . S
C689 H676 0.929 . S
C689 C681 1.433 . S
C689 N691 1.384 . S
N690 C686 1.427 . S
N690 C687 1.384 . S
N691 C683 1.427 . S
N691 C689 1.384 . S
H692 C698 0.930 . S
H693 C702 0.930 . S
H694 C707 0.929 . S
H695 C705 0.929 . S
H696 C700 0.929 . S
H697 C706 0.929 . S
C698 H692 0.930 . S
C698 C699 1.367 . S
C698 C706 1.378 1_556 S
C699 C698 1.367 . S
C699 C707 1.433 . S
C700 H696 0.929 . S
C700 C702 1.378 . S
C700 C704 1.350 . S
C701 C704 1.463 . S
C701 C706 1.350 . S
C701 N709 1.427 1_554 S
C702 H693 0.930 . S
C702 C700 1.378 . S
C702 C703 1.367 . S
C703 C702 1.367 . S
C703 C705 1.433 . S
C704 C700 1.350 . S
C704 C701 1.463 . S
C704 N708 1.427 . S
C705 H695 0.929 . S
C705 C703 1.433 . S
C705 N708 1.384 . S
C706 H697 0.929 . S
C706 C698 1.378 1_554 S
C706 C701 1.350 . S
C707 H694 0.929 . S
C707 C699 1.433 . S
C707 N709 1.384 . S
N708 C704 1.427 . S
N708 C705 1.384 . S
N709 C701 1.427 1_556 S
N709 C707 1.384 . S
H710 C716 0.930 . S
H711 C720 0.930 . S
H712 C725 0.929 . S
H713 C723 0.929 . S
H714 C718 0.929 . S
H715 C724 0.929 . S
C716 H710 0.930 . S
C716 C717 1.367 . S
C716 C724 1.378 . S
C717 C716 1.367 . S
C717 C725 1.433 . S
C718 H714 0.929 . S
C718 C720 1.378 . S
C718 C722 1.350 . S
C719 C722 1.463 . S
C719 C724 1.350 . S
C719 N727 1.427 . S
C720 H711 0.930 . S
C720 C718 1.378 . S
C720 C721 1.367 . S
C721 C720 1.367 . S
C721 C723 1.433 . S
C722 C718 1.350 . S
C722 C719 1.463 . S
C722 N726 1.427 . S
C723 H713 0.929 . S
C723 C721 1.433 . S
C723 N726 1.384 . S
C724 H715 0.929 . S
C724 C716 1.378 . S
C724 C719 1.350 . S
C725 H712 0.929 . S
C725 C717 1.433 . S
C725 N727 1.384 . S
N726 C722 1.427 . S
N726 C723 1.384 . S
N727 C719 1.427 . S
N727 C725 1.384 . S
H728 C734 0.930 . S
H729 C738 0.930 . S
H730 C743 0.929 . S
H731 C741 0.929 . S
H732 C736 0.929 . S
H733 C742 0.929 . S
C734 H728 0.930 . S
C734 C735 1.367 . S
C734 C742 1.378 . S
C735 C734 1.367 . S
C735 C743 1.433 . S
C736 H732 0.929 . S
C736 C738 1.378 . S
C736 C740 1.350 . S
C737 C740 1.463 . S
C737 C742 1.350 . S
C737 N745 1.427 . S
C738 H729 0.930 . S
C738 C736 1.378 . S
C738 C739 1.367 . S
C739 C738 1.367 . S
C739 C741 1.433 . S
C740 C736 1.350 . S
C740 C737 1.463 . S
C740 N744 1.427 . S
C741 H731 0.929 . S
C741 C739 1.433 . S
C741 N744 1.384 . S
C742 H733 0.929 . S
C742 C734 1.378 . S
C742 C737 1.350 . S
C743 H730 0.929 . S
C743 C735 1.433 . S
C743 N745 1.384 . S
N744 C740 1.427 . S
N744 C741 1.384 . S
N745 C737 1.427 . S
N745 C743 1.384 . S
H746 C752 0.930 . S
H747 C756 0.930 . S
H748 C761 0.929 . S
H749 C759 0.929 . S
H750 C754 0.929 . S
H751 C760 0.929 . S
C752 H746 0.930 . S
C752 C753 1.367 . S
C752 C760 1.378 . S
C753 C752 1.367 . S
C753 C761 1.433 . S
C754 H750 0.929 . S
C754 C756 1.378 . S
C754 C758 1.350 . S
C755 C758 1.463 . S
C755 C760 1.350 . S
C755 N763 1.427 . S
C756 H747 0.930 . S
C756 C754 1.378 . S
C756 C757 1.367 . S
C757 C756 1.367 . S
C757 C759 1.433 . S
C758 C754 1.350 . S
C758 C755 1.463 . S
C758 N762 1.427 . S
C759 H749 0.929 . S
C759 C757 1.433 . S
C759 N762 1.384 . S
C760 H751 0.929 . S
C760 C752 1.378 . S
C760 C755 1.350 . S
C761 H748 0.929 . S
C761 C753 1.433 . S
C761 N763 1.384 . S
N762 C758 1.427 . S
N762 C759 1.384 . S
N763 C755 1.427 . S
N763 C761 1.384 . S
H764 C770 0.930 . S
H765 C774 0.930 . S
H766 C779 0.929 . S
H767 C777 0.929 . S
H768 C772 0.929 . S
H769 C778 0.929 . S
C770 H764 0.930 . S
C770 C771 1.367 . S
C770 C778 1.378 . S
C771 C770 1.367 . S
C771 C779 1.433 . S
C772 H768 0.929 . S
C772 C774 1.378 . S
C772 C776 1.350 . S
C773 C776 1.463 . S
C773 C778 1.350 . S
C773 N781 1.427 . S
C774 H765 0.930 . S
C774 C772 1.378 . S
C774 C775 1.367 . S
C775 C774 1.367 . S
C775 C777 1.433 . S
C776 C772 1.350 . S
C776 C773 1.463 . S
C776 N780 1.427 . S
C777 H767 0.929 . S
C777 C775 1.433 . S
C777 N780 1.384 . S
C778 H769 0.929 . S
C778 C770 1.378 . S
C778 C773 1.350 . S
C779 H766 0.929 . S
C779 C771 1.433 . S
C779 N781 1.384 . S
N780 C776 1.427 . S
N780 C777 1.384 . S
N781 C773 1.427 . S
N781 C779 1.384 . S
H782 C788 0.930 . S
H783 C792 0.930 . S
H784 C797 0.929 . S
H785 C795 0.929 . S
H786 C790 0.929 . S
H787 C796 0.929 . S
C788 H782 0.930 . S
C788 C789 1.367 . S
C788 C796 1.378 . S
C789 C788 1.367 . S
C789 C797 1.433 . S
C790 H786 0.929 . S
C790 C792 1.378 . S
C790 C794 1.350 . S
C791 C794 1.463 . S
C791 C796 1.350 . S
C791 N799 1.427 . S
C792 H783 0.930 . S
C792 C790 1.378 . S
C792 C793 1.367 . S
C793 C792 1.367 . S
C793 C795 1.433 . S
C794 C790 1.350 . S
C794 C791 1.463 . S
C794 N798 1.427 . S
C795 H785 0.929 . S
C795 C793 1.433 . S
C795 N798 1.384 . S
C796 H787 0.929 . S
C796 C788 1.378 . S
C796 C791 1.350 . S
C797 H784 0.929 . S
C797 C789 1.433 . S
C797 N799 1.384 . S
N798 C794 1.427 . S
N798 C795 1.384 . S
N799 C791 1.427 . S
N799 C797 1.384 . S
H800 C806 0.930 . S
H801 C810 0.930 . S
H802 C815 0.929 . S
H803 C813 0.929 . S
H804 C808 0.929 . S
H805 C814 0.929 . S
C806 H800 0.930 . S
C806 C807 1.367 . S
C806 C814 1.378 . S
C807 C806 1.367 . S
C807 C815 1.433 . S
C808 H804 0.929 . S
C808 C810 1.378 . S
C808 C812 1.350 . S
C809 C812 1.463 . S
C809 C814 1.350 . S
C809 N817 1.427 . S
C810 H801 0.930 . S
C810 C808 1.378 . S
C810 C811 1.367 . S
C811 C810 1.367 . S
C811 C813 1.433 . S
C812 C808 1.350 . S
C812 C809 1.463 . S
C812 N816 1.427 . S
C813 H803 0.929 . S
C813 C811 1.433 . S
C813 N816 1.384 . S
C814 H805 0.929 . S
C814 C806 1.378 . S
C814 C809 1.350 . S
C815 H802 0.929 . S
C815 C807 1.433 . S
C815 N817 1.384 . S
N816 C812 1.427 . S
N816 C813 1.384 . S
N817 C809 1.427 . S
N817 C815 1.384 . S
H818 C824 0.930 . S
H819 C828 0.930 . S
H820 C833 0.929 . S
H821 C831 0.929 . S
H822 C826 0.929 . S
H823 C832 0.929 . S
C824 H818 0.930 . S
C824 C825 1.367 . S
C824 C832 1.378 . S
C825 C824 1.367 . S
C825 C833 1.433 . S
C826 H822 0.929 . S
C826 C828 1.378 . S
C826 C830 1.350 . S
C827 C830 1.463 . S
C827 C832 1.350 . S
C827 N835 1.427 . S
C828 H819 0.930 . S
C828 C826 1.378 . S
C828 C829 1.367 . S
C829 C828 1.367 . S
C829 C831 1.433 . S
C830 C826 1.350 . S
C830 C827 1.463 . S
C830 N834 1.427 . S
C831 H821 0.929 . S
C831 C829 1.433 . S
C831 N834 1.384 . S
C832 H823 0.929 . S
C832 C824 1.378 . S
C832 C827 1.350 . S
C833 H820 0.929 . S
C833 C825 1.433 . S
C833 N835 1.384 . S
N834 C830 1.427 . S
N834 C831 1.384 . S
N835 C827 1.427 . S
N835 C833 1.384 . S
H836 C842 0.930 . S
H837 C846 0.930 . S
H838 C851 0.929 . S
H839 C849 0.929 . S
H840 C844 0.929 . S
H841 C850 0.929 . S
C842 H836 0.930 . S
C842 C843 1.367 . S
C842 C850 1.378 . S
C843 C842 1.367 . S
C843 C851 1.433 . S
C844 H840 0.929 . S
C844 C846 1.378 . S
C844 C848 1.350 . S
C845 C848 1.463 . S
C845 C850 1.350 . S
C845 N853 1.427 . S
C846 H837 0.930 . S
C846 C844 1.378 . S
C846 C847 1.367 . S
C847 C846 1.367 . S
C847 C849 1.433 . S
C848 C844 1.350 . S
C848 C845 1.463 . S
C848 N852 1.427 . S
C849 H839 0.929 . S
C849 C847 1.433 . S
C849 N852 1.384 . S
C850 H841 0.929 . S
C850 C842 1.378 . S
C850 C845 1.350 . S
C851 H838 0.929 . S
C851 C843 1.433 . S
C851 N853 1.384 . S
N852 C848 1.427 . S
N852 C849 1.384 . S
N853 C845 1.427 . S
N853 C851 1.384 . S
H854 C860 0.930 . S
H855 C864 0.930 . S
H856 C869 0.929 . S
H857 C867 0.929 . S
H858 C862 0.929 . S
H859 C868 0.929 . S
C860 H854 0.930 . S
C860 C861 1.367 . S
C860 C868 1.378 . S
C861 C860 1.367 . S
C861 C869 1.433 . S
C862 H858 0.929 . S
C862 C864 1.378 . S
C862 C866 1.350 . S
C863 C866 1.463 . S
C863 C868 1.350 . S
C863 N871 1.427 . S
C864 H855 0.930 . S
C864 C862 1.378 . S
C864 C865 1.367 . S
C865 C864 1.367 . S
C865 C867 1.433 . S
C866 C862 1.350 . S
C866 C863 1.463 . S
C866 N870 1.427 . S
C867 H857 0.929 . S
C867 C865 1.433 . S
C867 N870 1.384 . S
C868 H859 0.929 . S
C868 C860 1.378 . S
C868 C863 1.350 . S
C869 H856 0.929 . S
C869 C861 1.433 . S
C869 N871 1.384 . S
N870 C866 1.427 . S
N870 C867 1.384 . S
N871 C863 1.427 . S
N871 C869 1.384 . S
C447 C86 1.633 . S
C451 C178 1.617 . S
C469 C262 1.685 . S
C465 C100 1.703 . S
C487 C255 1.621 . S
C483 C60 1.624 . S
C501 C74 1.695 . S
C505 C171 1.696 . S
C523 C335 1.681 . S
C519 C35 1.701 . S
C541 C419 1.617 . S
C537 C47 1.636 . S
C555 C9 1.690 . S
C559 C412 1.694 . S
C573 C21 1.631 . S
C577 C328 1.626 . S
C595 C162 1.429 . S
C591 C22 1.583 . S
C613 C246 1.427 . S
C609 C8 1.591 . S
C631 C257 1.403 . S
C627 C48 1.597 . S
C649 C173 1.406 . S
C645 C34 1.601 . S
C667 C341 1.434 . S
C663 C73 1.597 . S
C681 C61 1.583 . S
C685 C425 1.426 . S
C703 C414 1.405 . S
C699 C99 1.604 . S
C717 C87 1.596 . S
C721 C330 1.403 . S
C739 C160 1.604 . S
C735 C4 1.509 . S
C757 C244 1.502 . S
C753 C17 1.481 . S
C771 C30 1.511 . S
C775 C251 1.577 . S
C793 C167 1.466 . S
C789 C43 1.472 . S
C811 C339 1.499 . S
C807 C56 1.459 . S
C825 C69 1.551 . S
C829 C423 1.604 . S
C843 C82 1.458 . S
C847 C430 1.476 . S
C861 C95 1.545 . S
C865 C346 1.575 . S
