# Generated by pormake.
# Topology wbl, (4,4)-cn, num edge types: 1
# Building blocks:
#     Node 0, Type 0, BuildingBlock: MUDLON_clean_linker_0, # of connection points: 4
#     Node 1, Type 0, BuildingBlock: MUDLON_clean_linker_0, # of connection points: 4
#     Node 2, Type 0, BuildingBlock: MUDLON_clean_linker_0, # of connection points: 4
#     Node 3, Type 0, BuildingBlock: MUDLON_clean_linker_0, # of connection points: 4
#     Node 4, Type 0, BuildingBlock: MUDLON_clean_linker_0, # of connection points: 4
#     Node 5, Type 0, BuildingBlock: MUDLON_clean_linker_0, # of connection points: 4
#     Node 6, Type 0, BuildingBlock: MUDLON_clean_linker_0, # of connection points: 4
#     Node 7, Type 0, BuildingBlock: MUDLON_clean_linker_0, # of connection points: 4
#     Node 8, Type 1, BuildingBlock: NAHDIM_clean_sbu_0, # of connection points: 4
#     Node 9, Type 1, BuildingBlock: NAHDIM_clean_sbu_0, # of connection points: 4
#     Node 10, Type 1, BuildingBlock: NAHDIM_clean_sbu_0, # of connection points: 4
#     Node 11, Type 1, BuildingBlock: NAHDIM_clean_sbu_0, # of connection points: 4
#     Node 12, Type 1, BuildingBlock: NAHDIM_clean_sbu_0, # of connection points: 4
#     Node 13, Type 1, BuildingBlock: NAHDIM_clean_sbu_0, # of connection points: 4
#     Node 14, Type 1, BuildingBlock: NAHDIM_clean_sbu_0, # of connection points: 4
#     Node 15, Type 1, BuildingBlock: NAHDIM_clean_sbu_0, # of connection points: 4
#     Edge 16, Type (0, 1), BuildingBlock: TEMPAE_clean_linker_10, # of connection points: 2
#     Edge 17, Type (0, 1), BuildingBlock: TEMPAE_clean_linker_10, # of connection points: 2
#     Edge 18, Type (0, 1), BuildingBlock: TEMPAE_clean_linker_10, # of connection points: 2
#     Edge 19, Type (0, 1), BuildingBlock: TEMPAE_clean_linker_10, # of connection points: 2
#     Edge 20, Type (0, 1), BuildingBlock: TEMPAE_clean_linker_10, # of connection points: 2
#     Edge 21, Type (0, 1), BuildingBlock: TEMPAE_clean_linker_10, # of connection points: 2
#     Edge 22, Type (0, 1), BuildingBlock: TEMPAE_clean_linker_10, # of connection points: 2
#     Edge 23, Type (0, 1), BuildingBlock: TEMPAE_clean_linker_10, # of connection points: 2
#     Edge 24, Type (0, 1), BuildingBlock: TEMPAE_clean_linker_10, # of connection points: 2
#     Edge 25, Type (0, 1), BuildingBlock: TEMPAE_clean_linker_10, # of connection points: 2
#     Edge 26, Type (0, 1), BuildingBlock: TEMPAE_clean_linker_10, # of connection points: 2
#     Edge 27, Type (0, 1), BuildingBlock: TEMPAE_clean_linker_10, # of connection points: 2
#     Edge 28, Type (0, 1), BuildingBlock: TEMPAE_clean_linker_10, # of connection points: 2
#     Edge 29, Type (0, 1), BuildingBlock: TEMPAE_clean_linker_10, # of connection points: 2
#     Edge 30, Type (0, 1), BuildingBlock: TEMPAE_clean_linker_10, # of connection points: 2
#     Edge 31, Type (0, 1), BuildingBlock: TEMPAE_clean_linker_10, # of connection points: 2
#     Edge 32, Type (0, 1), BuildingBlock: TEMPAE_clean_linker_10, # of connection points: 2
#     Edge 33, Type (0, 1), BuildingBlock: TEMPAE_clean_linker_10, # of connection points: 2
#     Edge 34, Type (0, 1), BuildingBlock: TEMPAE_clean_linker_10, # of connection points: 2
#     Edge 35, Type (0, 1), BuildingBlock: TEMPAE_clean_linker_10, # of connection points: 2
#     Edge 36, Type (0, 1), BuildingBlock: TEMPAE_clean_linker_10, # of connection points: 2
#     Edge 37, Type (0, 1), BuildingBlock: TEMPAE_clean_linker_10, # of connection points: 2
#     Edge 38, Type (0, 1), BuildingBlock: TEMPAE_clean_linker_10, # of connection points: 2
#     Edge 39, Type (0, 1), BuildingBlock: TEMPAE_clean_linker_10, # of connection points: 2
#     Edge 40, Type (0, 1), BuildingBlock: TEMPAE_clean_linker_10, # of connection points: 2
#     Edge 41, Type (0, 1), BuildingBlock: TEMPAE_clean_linker_10, # of connection points: 2
#     Edge 42, Type (0, 1), BuildingBlock: TEMPAE_clean_linker_10, # of connection points: 2
#     Edge 43, Type (0, 1), BuildingBlock: TEMPAE_clean_linker_10, # of connection points: 2
#     Edge 44, Type (0, 1), BuildingBlock: TEMPAE_clean_linker_10, # of connection points: 2
#     Edge 45, Type (0, 1), BuildingBlock: TEMPAE_clean_linker_10, # of connection points: 2
#     Edge 46, Type (0, 1), BuildingBlock: TEMPAE_clean_linker_10, # of connection points: 2
#     Edge 47, Type (0, 1), BuildingBlock: TEMPAE_clean_linker_10, # of connection points: 2
# Relax obj value: 0.108
# Max RMSD: 0.121
# Mean RMSD: 0.110
data_MOF--net-wbl--node1-NAHDIM_clean_sbu_0--node2-MUDLON_clean_linker_0--edge1-TEMPAE_clean_linker_10
_symmetry_space_group_name_H-M    P1
_symmetry_Int_Tables_number       1
_symmetry_cell_setting            triclinic
loop_
_symmetry_equiv_pos_as_xyz
'x, y, z'
_cell_length_a     55.269571
_cell_length_b     53.673636
_cell_length_c     74.993449
_cell_angle_alpha  89.993809
_cell_angle_beta   89.967436
_cell_angle_gamma 89.988049
loop_
_atom_site_label
_atom_site_type_symbol
_atom_site_fract_x
_atom_site_fract_y
_atom_site_fract_z
_atom_type_partial_charge
H0 H 0.09969 0.95086 0.32215 0.0
N1 N 0.06129 0.93856 0.30077 0.0
H2 H 0.1071 0.93596 0.35243 0.0
H3 H 0.03404 0.90756 0.3198 0.0
H4 H 0.04202 0.89171 0.35003 0.0
H5 H 0.06986 0.89437 0.28647 0.0
H6 H 0.10647 0.88069 0.27117 0.0
H7 H 0.09759 0.96949 0.28801 0.0
H8 H 0.1335 0.95625 0.27209 0.0
H9 H 0.07697 0.98418 0.31307 0.0
H10 H 0.01865 0.94705 0.28567 0.0
H11 H 0.05457 0.0229 0.31255 0.0
H12 H 0.99535 0.98588 0.28582 0.0
H13 H 0.96532 0.13922 0.32456 0.0
H14 H 0.9456 0.14902 0.35299 0.0
H15 H 0.92283 0.0723 0.35779 0.0
H16 H 0.94226 0.06277 0.3294 0.0
H17 H 0.92571 0.0652 0.30059 0.0
H18 H 0.88857 0.07652 0.28526 0.0
H19 H 0.92084 0.14651 0.26941 0.0
H20 H 0.95764 0.13545 0.28577 0.0
H21 H 0.997 0.07756 0.33014 0.0
H22 H 0.02103 0.0401 0.32735 0.0
H23 H 0.99203 0.0278 0.27461 0.0
N24 N 0.9642 0.09617 0.30687 0.0
H25 H 0.96722 0.06479 0.27756 0.0
C26 C 0.06595 0.93065 0.31882 0.0
C27 C 0.08664 0.93848 0.32823 0.0
C28 C 0.09096 0.92986 0.34549 0.0
C29 C 0.07505 0.91283 0.35349 0.0
C30 C 0.05451 0.90487 0.34408 0.0
C31 C 0.04992 0.9139 0.32693 0.0
C32 C 0.08078 0.93284 0.28858 0.0
C33 C 0.08348 0.90806 0.28301 0.0
C34 C 0.10443 0.9003 0.2742 0.0
C35 C 0.12314 0.91731 0.27057 0.0
C36 C 0.11971 0.94252 0.27505 0.0
C37 C 0.09888 0.9502 0.28409 0.0
C38 C 0.04956 0.9625 0.29926 0.0
C39 C 0.05941 0.98427 0.30679 0.0
C40 C 0.04638 0.00653 0.30666 0.0
C41 C 0.02298 0.00752 0.29934 0.0
C42 C 0.01341 0.98591 0.29141 0.0
C43 C 0.02663 0.96368 0.29136 0.0
C44 C 0.95529 0.10039 0.32479 0.0
C45 C 0.95642 0.12449 0.33193 0.0
C46 C 0.94518 0.13001 0.34816 0.0
C47 C 0.9325 0.11145 0.35755 0.0
C48 C 0.93211 0.08708 0.35071 0.0
C49 C 0.94331 0.08159 0.3345 0.0
C50 C 0.94441 0.0997 0.29453 0.0
C51 C 0.92494 0.08284 0.29365 0.0
C52 C 0.90372 0.08928 0.28468 0.0
C53 C 0.90155 0.1126 0.27626 0.0
C54 C 0.92171 0.12862 0.27606 0.0
C55 C 0.94285 0.12225 0.2852 0.0
C56 C 0.97852 0.0735 0.30474 0.0
C57 C 0.99516 0.06659 0.3181 0.0
C58 C 0.00937 0.04526 0.31635 0.0
C59 C 0.00823 0.03064 0.30085 0.0
C60 C 0.99278 0.03818 0.28698 0.0
C61 C 0.97837 0.05947 0.28878 0.0
H62 H 0.99249 0.38883 0.60662 0.0
N63 N 0.97708 0.40263 0.57459 0.0
H64 H 0.9699 0.39003 0.63467 0.0
H65 H 0.93337 0.42539 0.57986 0.0
H66 H 0.91099 0.42754 0.60786 0.0
H67 H 0.94441 0.41553 0.54884 0.0
H68 H 0.91847 0.38649 0.53222 0.0
H69 H 0.9806 0.35363 0.57374 0.0
H70 H 0.95476 0.32456 0.55766 0.0
H71 H 0.01891 0.39742 0.55768 0.0
H72 H 0.96716 0.45298 0.57413 0.0
H73 H 0.04655 0.43023 0.54804 0.0
H74 H 0.99518 0.48569 0.56598 0.0
H75 H 0.13632 0.54693 0.57452 0.0
H76 H 0.14385 0.55865 0.60559 0.0
H77 H 0.06733 0.55258 0.61669 0.0
H78 H 0.05993 0.54163 0.58565 0.0
H79 H 0.06215 0.57783 0.5647 0.0
H80 H 0.06574 0.61968 0.55244 0.0
H81 H 0.12467 0.59533 0.51893 0.0
H82 H 0.12124 0.55318 0.5315 0.0
H83 H 0.10186 0.49096 0.56249 0.0
H84 H 0.0724 0.45741 0.56231 0.0
H85 H 0.01698 0.50946 0.5458 0.0
N86 N 0.09375 0.5392 0.55889 0.0
H87 H 0.04619 0.54306 0.54707 0.0
C88 C 0.96471 0.407 0.59122 0.0
C89 C 0.97489 0.39768 0.60695 0.0
C90 C 0.96196 0.3985 0.62295 0.0
C91 C 0.93855 0.40879 0.62351 0.0
C92 C 0.92881 0.41914 0.60785 0.0
C93 C 0.94168 0.41811 0.59183 0.0
C94 C 0.96436 0.38655 0.56249 0.0
C95 C 0.94701 0.39567 0.55046 0.0
C96 C 0.93215 0.37908 0.54109 0.0
C97 C 0.93449 0.35318 0.54362 0.0
C98 C 0.95269 0.3443 0.55509 0.0
C99 C 0.96744 0.36084 0.56437 0.0
C100 C 0.99123 0.42256 0.56703 0.0
C101 C 0.01348 0.41671 0.55914 0.0
C102 C 0.02935 0.43553 0.55381 0.0
C103 C 0.02348 0.46075 0.55662 0.0
C104 C 0.00043 0.46658 0.56349 0.0
C105 C 0.98435 0.44771 0.56843 0.0
C106 C 0.0977 0.54331 0.57772 0.0
C107 C 0.12127 0.54782 0.58376 0.0
C108 C 0.12551 0.55443 0.6015 0.0
C109 C 0.10615 0.55664 0.61359 0.0
C110 C 0.08258 0.55138 0.60765 0.0
C111 C 0.07836 0.54487 0.58991 0.0
C112 C 0.09165 0.56229 0.5491 0.0
C113 C 0.07553 0.5812 0.55446 0.0
C114 C 0.07761 0.60518 0.54749 0.0
C115 C 0.09567 0.61072 0.53494 0.0
C116 C 0.11055 0.59146 0.52856 0.0
C117 C 0.10859 0.56744 0.53568 0.0
C118 C 0.0765 0.51965 0.55504 0.0
C119 C 0.08343 0.49503 0.55852 0.0
C120 C 0.06648 0.4758 0.55829 0.0
C121 C 0.04207 0.48063 0.5542 0.0
C122 C 0.03544 0.50507 0.54946 0.0
C123 C 0.05236 0.52444 0.55003 0.0
H124 H 0.628 0.50221 0.83479 0.0
N125 N 0.59395 0.49629 0.81017 0.0
H126 H 0.6308 0.48161 0.86388 0.0
H127 H 0.56037 0.46481 0.8248 0.0
H128 H 0.56262 0.44477 0.85387 0.0
H129 H 0.58542 0.44801 0.80029 0.0
H130 H 0.61221 0.42266 0.78197 0.0
H131 H 0.62778 0.5132 0.78818 0.0
H132 H 0.65363 0.48845 0.76857 0.0
H133 H 0.5961 0.54546 0.81118 0.0
H134 H 0.54825 0.48453 0.79914 0.0
H135 H 0.56273 0.57484 0.80801 0.0
H136 H 0.51405 0.51336 0.7976 0.0
H137 H 0.44196 0.65579 0.82662 0.0
H138 H 0.42847 0.66331 0.85717 0.0
H139 H 0.43795 0.58505 0.86908 0.0
H140 H 0.45 0.5776 0.83827 0.0
H141 H 0.4221 0.57289 0.81276 0.0
H142 H 0.38177 0.57153 0.79941 0.0
H143 H 0.39496 0.64281 0.77443 0.0
H144 H 0.43538 0.64382 0.7877 0.0
H145 H 0.49631 0.61491 0.82784 0.0
H146 H 0.53042 0.58699 0.82507 0.0
H147 H 0.49268 0.54593 0.78402 0.0
N148 N 0.45336 0.61243 0.81162 0.0
H149 H 0.45793 0.57296 0.78756 0.0
C150 C 0.59402 0.48521 0.82766 0.0
C151 C 0.61361 0.48986 0.83901 0.0
C152 C 0.61508 0.47817 0.85562 0.0
C153 C 0.59691 0.46154 0.86118 0.0
C154 C 0.57703 0.45727 0.8499 0.0
C155 C 0.57561 0.46894 0.83329 0.0
C156 C 0.60515 0.48238 0.79602 0.0
C157 C 0.60009 0.45702 0.79326 0.0
C158 C 0.61537 0.44255 0.78258 0.0
C159 C 0.63559 0.45333 0.77413 0.0
C160 C 0.6388 0.4793 0.77537 0.0
C161 C 0.62389 0.49358 0.78637 0.0
C162 C 0.57445 0.51292 0.80592 0.0
C163 C 0.57826 0.5385 0.80787 0.0
C164 C 0.55906 0.55519 0.80627 0.0
C165 C 0.53539 0.54651 0.80314 0.0
C166 C 0.53192 0.52083 0.80009 0.0
C167 C 0.55139 0.5042 0.80123 0.0
C168 C 0.44719 0.6163 0.83017 0.0
C169 C 0.44122 0.64036 0.8359 0.0
C170 C 0.43368 0.64459 0.85341 0.0
C171 C 0.4322 0.62481 0.8657 0.0
C172 C 0.43851 0.60069 0.85997 0.0
C173 C 0.44565 0.59641 0.84236 0.0
C174 C 0.43172 0.60858 0.80121 0.0
C175 C 0.41649 0.58795 0.80411 0.0
C176 C 0.39341 0.58726 0.79654 0.0
C177 C 0.38508 0.6072 0.78603 0.0
C178 C 0.4009 0.62705 0.78232 0.0
C179 C 0.42398 0.6277 0.78988 0.0
C180 C 0.47371 0.59567 0.80872 0.0
C181 C 0.49513 0.59969 0.8184 0.0
C182 C 0.51492 0.58385 0.81655 0.0
C183 C 0.51442 0.56396 0.80435 0.0
C184 C 0.49353 0.56059 0.7939 0.0
C185 C 0.47345 0.57625 0.796 0.0
H186 H 0.44602 0.91122 0.08147 0.0
N187 N 0.43434 0.95402 0.06353 0.0
H188 H 0.43594 0.90124 0.1123 0.0
H189 H 0.41216 0.98317 0.08715 0.0
H190 H 0.4018 0.97317 0.1182 0.0
H191 H 0.38845 0.9469 0.05481 0.0
H192 H 0.37095 0.911 0.03968 0.0
H193 H 0.46005 0.91776 0.04511 0.0
H194 H 0.44283 0.88272 0.02927 0.0
H195 H 0.47916 0.93436 0.07109 0.0
H196 H 0.44271 0.9982 0.04884 0.0
H197 H 0.51784 0.95518 0.06777 0.0
H198 H 0.48154 0.01983 0.04616 0.0
H199 H 0.63378 0.045 0.07673 0.0
H200 H 0.64498 0.06112 0.10623 0.0
H201 H 0.57115 0.08473 0.11471 0.0
H202 H 0.56011 0.06858 0.08542 0.0
H203 H 0.55884 0.0864 0.05651 0.0
H204 H 0.56743 0.12589 0.04172 0.0
H205 H 0.63717 0.09759 0.02527 0.0
H206 H 0.6281 0.05785 0.03977 0.0
H207 H 0.57546 0.01159 0.08341 0.0
H208 H 0.5384 0.98777 0.08221 0.0
H209 H 0.52054 0.02191 0.03175 0.0
N210 N 0.59071 0.04765 0.06082 0.0
H211 H 0.55733 0.04645 0.03314 0.0
C212 C 0.42991 0.9481 0.08202 0.0
C213 C 0.43677 0.92506 0.08943 0.0
C214 C 0.43102 0.91937 0.10709 0.0
C215 C 0.41813 0.93645 0.11765 0.0
C216 C 0.41162 0.95961 0.11032 0.0
C217 C 0.41757 0.96538 0.09267 0.0
C218 C 0.42551 0.93522 0.05135 0.0
C219 C 0.40042 0.93318 0.04895 0.0
C220 C 0.39046 0.91263 0.04022 0.0
C221 C 0.40545 0.8937 0.03343 0.0
C222 C 0.43069 0.8966 0.03474 0.0
C223 C 0.44064 0.91697 0.04373 0.0
C224 C 0.45786 0.96473 0.06014 0.0
C225 C 0.47941 0.95282 0.06536 0.0
C226 C 0.50164 0.96489 0.06359 0.0
C227 C 0.50285 0.98934 0.0569 0.0
C228 C 0.48136 0.00092 0.05118 0.0
C229 C 0.45913 0.98867 0.05277 0.0
C230 C 0.59619 0.05542 0.07887 0.0
C231 C 0.62002 0.0534 0.08508 0.0
C232 C 0.62638 0.06274 0.10183 0.0
C233 C 0.60892 0.07417 0.11273 0.0
C234 C 0.58493 0.07578 0.10667 0.0
C235 C 0.57863 0.06667 0.08987 0.0
C236 C 0.59291 0.06907 0.04923 0.0
C237 C 0.57573 0.08846 0.04938 0.0
C238 C 0.58074 0.11111 0.041 0.0
C239 C 0.60313 0.11503 0.03252 0.0
C240 C 0.61966 0.09515 0.03152 0.0
C241 C 0.61455 0.07242 0.0398 0.0
C242 C 0.56869 0.03277 0.05923 0.0
C243 C 0.56343 0.01456 0.07222 0.0
C244 C 0.5423 0.00047 0.07136 0.0
C245 C 0.52614 0.00327 0.05705 0.0
C246 C 0.53215 0.01994 0.04329 0.0
C247 C 0.55331 0.03422 0.04421 0.0
H248 H 0.12754 0.50378 0.93071 0.0
N249 N 0.08952 0.50757 0.95203 0.0
H250 H 0.1338 0.52431 0.90201 0.0
H251 H 0.05559 0.53436 0.9337 0.0
H252 H 0.06139 0.55461 0.90471 0.0
H253 H 0.07407 0.55461 0.96051 0.0
H254 H 0.0972 0.58505 0.97773 0.0
H255 H 0.12605 0.49772 0.97373 0.0
H256 H 0.14936 0.52797 0.9909 0.0
H257 H 0.08476 0.46046 0.94277 0.0
H258 H 0.04728 0.52037 0.96922 0.0
H259 H 0.04977 0.43355 0.94674 0.0
H260 H 0.01257 0.49315 0.97433 0.0
H261 H 0.94269 0.34949 0.94617 0.0
H262 H 0.92657 0.33834 0.91679 0.0
H263 H 0.91966 0.41644 0.90386 0.0
H264 H 0.93527 0.42737 0.93309 0.0
H265 H 0.90747 0.42564 0.95844 0.0
H266 H 0.87024 0.42068 0.97521 0.0
H267 H 0.90344 0.36216 0.00638 0.0
H268 H 0.94061 0.36668 0.98886 0.0
H269 H 0.99262 0.38272 0.96581 0.0
H270 H 0.02753 0.41048 0.96699 0.0
H271 H 0.98004 0.47382 0.95991 0.0
N272 N 0.94692 0.39474 0.96011 0.0
H273 H 0.94528 0.44601 0.96023 0.0
C274 C 0.0912 0.51749 0.93425 0.0
C275 C 0.11293 0.51453 0.92492 0.0
C276 C 0.11639 0.5262 0.90851 0.0
C277 C 0.09807 0.5411 0.90105 0.0
C278 C 0.07594 0.54346 0.91019 0.0
C279 C 0.07252 0.53177 0.92668 0.0
C280 C 0.09857 0.52389 0.96572 0.0
C281 C 0.09001 0.54845 0.96761 0.0
C282 C 0.10332 0.56588 0.97738 0.0
C283 C 0.12526 0.559 0.98549 0.0
C284 C 0.13244 0.53386 0.98497 0.0
C285 C 0.11919 0.51652 0.97514 0.0
C286 C 0.0688 0.49223 0.95581 0.0
C287 C 0.06906 0.4676 0.94976 0.0
C288 C 0.04907 0.45219 0.95222 0.0
C289 C 0.0283 0.46097 0.96109 0.0
C290 C 0.02811 0.48575 0.96731 0.0
C291 C 0.0481 0.50134 0.96455 0.0
C292 C 0.9403 0.38915 0.94193 0.0
C293 C 0.93805 0.36414 0.93685 0.0
C294 C 0.9289 0.35784 0.92008 0.0
C295 C 0.92171 0.37654 0.90807 0.0
C296 C 0.92474 0.40162 0.91293 0.0
C297 C 0.93391 0.40789 0.92968 0.0
C298 C 0.92682 0.39626 0.97228 0.0
C299 C 0.90706 0.41216 0.96913 0.0
C300 C 0.88568 0.40935 0.97886 0.0
C301 C 0.88369 0.39077 0.99202 0.0
C302 C 0.90419 0.37631 0.9961 0.0
C303 C 0.9255 0.37901 0.98625 0.0
C304 C 0.96646 0.41213 0.96257 0.0
C305 C 0.98981 0.40265 0.96483 0.0
C306 C 0.00974 0.41858 0.96529 0.0
C307 C 0.00677 0.44445 0.96308 0.0
C308 C 0.98313 0.45406 0.9617 0.0
C309 C 0.96314 0.43808 0.96164 0.0
H310 H 0.5516 0.39514 0.18651 0.0
N311 N 0.56257 0.44103 0.20044 0.0
H312 H 0.55951 0.38098 0.15621 0.0
H313 H 0.58003 0.46771 0.17341 0.0
H314 H 0.58816 0.45349 0.14286 0.0
H315 H 0.60921 0.43766 0.20813 0.0
H316 H 0.6296 0.40315 0.22309 0.0
H317 H 0.54 0.40557 0.22169 0.0
H318 H 0.56018 0.37161 0.23689 0.0
H319 H 0.5179 0.41901 0.19689 0.0
H320 H 0.5541 0.48706 0.21164 0.0
H321 H 0.47892 0.43918 0.20043 0.0
H322 H 0.51503 0.50809 0.21407 0.0
H323 H 0.36188 0.53259 0.18494 0.0
H324 H 0.35183 0.54745 0.15505 0.0
H325 H 0.42792 0.55899 0.14432 0.0
H326 H 0.43754 0.54571 0.17447 0.0
H327 H 0.434 0.57355 0.20017 0.0
H328 H 0.42391 0.61396 0.2129 0.0
H329 H 0.36016 0.58202 0.23727 0.0
H330 H 0.37003 0.54166 0.22381 0.0
H331 H 0.41799 0.49071 0.18271 0.0
H332 H 0.45534 0.46733 0.18486 0.0
H333 H 0.47791 0.51349 0.22904 0.0
N334 N 0.4052 0.53206 0.20054 0.0
H335 H 0.44115 0.53764 0.22638 0.0
C336 C 0.56542 0.43257 0.18228 0.0
C337 C 0.55937 0.40814 0.1771 0.0
C338 C 0.56402 0.39998 0.15977 0.0
C339 C 0.57462 0.41608 0.14723 0.0
C340 C 0.57985 0.44074 0.15223 0.0
C341 C 0.57532 0.44885 0.16963 0.0
C342 C 0.5731 0.42428 0.21341 0.0
C343 C 0.5984 0.4237 0.21487 0.0
C344 C 0.61003 0.40395 0.22344 0.0
C345 C 0.59649 0.38438 0.23088 0.0
C346 C 0.57111 0.38613 0.2309 0.0
C347 C 0.55949 0.4058 0.22222 0.0
C348 C 0.53908 0.4515 0.20423 0.0
C349 C 0.51752 0.43825 0.20111 0.0
C350 C 0.49511 0.44999 0.20291 0.0
C351 C 0.49368 0.47543 0.20734 0.0
C352 C 0.51528 0.48842 0.21091 0.0
C353 C 0.53768 0.47649 0.20944 0.0
C354 C 0.40036 0.5378 0.18198 0.0
C355 C 0.37635 0.53806 0.17602 0.0
C356 C 0.37069 0.54647 0.15888 0.0
C357 C 0.38906 0.55455 0.14721 0.0
C358 C 0.41324 0.55343 0.15301 0.0
C359 C 0.41882 0.5455 0.17024 0.0
C360 C 0.40261 0.55456 0.21097 0.0
C361 C 0.41808 0.57512 0.20849 0.0
C362 C 0.41236 0.59822 0.21592 0.0
C363 C 0.39108 0.6013 0.22599 0.0
C364 C 0.37647 0.58036 0.22935 0.0
C365 C 0.38219 0.55725 0.22186 0.0
C366 C 0.42703 0.51732 0.20339 0.0
C367 C 0.43107 0.49613 0.19273 0.0
C368 C 0.45241 0.48243 0.19418 0.0
C369 C 0.47002 0.48877 0.20692 0.0
C370 C 0.4652 0.50863 0.21863 0.0
C371 C 0.44395 0.52262 0.217 0.0
H372 H 0.40023 0.93925 0.43287 0.0
N373 N 0.44 0.92893 0.45345 0.0
H374 H 0.39349 0.92632 0.40216 0.0
H375 H 0.4699 0.90302 0.43263 0.0
H376 H 0.46306 0.88967 0.40167 0.0
H377 H 0.43151 0.88341 0.46563 0.0
H378 H 0.3943 0.86809 0.47962 0.0
H379 H 0.40312 0.95834 0.46723 0.0
H380 H 0.36638 0.94315 0.48107 0.0
H381 H 0.42285 0.97407 0.44136 0.0
H382 H 0.48107 0.93915 0.47035 0.0
H383 H 0.44319 0.01392 0.44333 0.0
H384 H 0.50225 0.97922 0.47179 0.0
H385 H 0.52771 0.13356 0.43513 0.0
H386 H 0.54723 0.14499 0.40694 0.0
H387 H 0.57387 0.06968 0.40148 0.0
H388 H 0.55472 0.05857 0.42966 0.0
H389 H 0.56698 0.05654 0.45986 0.0
H390 H 0.60575 0.06638 0.47362 0.0
H391 H 0.58039 0.14073 0.48521 0.0
H392 H 0.54145 0.13076 0.47129 0.0
H393 H 0.50011 0.07072 0.42785 0.0
H394 H 0.47724 0.03252 0.42973 0.0
H395 H 0.50222 0.02145 0.4837 0.0
N396 N 0.53099 0.09025 0.45241 0.0
H397 H 0.52587 0.0595 0.48174 0.0
C398 C 0.43576 0.92222 0.43505 0.0
C399 C 0.41425 0.92878 0.42616 0.0
C400 C 0.4104 0.92139 0.40856 0.0
C401 C 0.42781 0.9071 0.39952 0.0
C402 C 0.44932 0.90061 0.40837 0.0
C403 C 0.45328 0.90825 0.42596 0.0
C404 C 0.42033 0.92194 0.46516 0.0
C405 C 0.41764 0.89663 0.46944 0.0
C406 C 0.39636 0.8879 0.47731 0.0
C407 C 0.37741 0.90443 0.48127 0.0
C408 C 0.38077 0.93002 0.47826 0.0
C409 C 0.40193 0.93872 0.4702 0.0
C410 C 0.45044 0.95339 0.45575 0.0
C411 C 0.43997 0.97489 0.44825 0.0
C412 C 0.45177 0.9978 0.44927 0.0
C413 C 0.47453 -0.00023 0.45751 0.0
C414 C 0.48464 0.97844 0.46549 0.0
C415 C 0.47265 0.95551 0.46462 0.0
C416 C 0.53973 0.09533 0.43455 0.0
C417 C 0.53742 0.11948 0.42766 0.0
C418 C 0.54855 0.12593 0.41156 0.0
C419 C 0.56226 0.10827 0.40207 0.0
C420 C 0.56379 0.0838 0.40864 0.0
C421 C 0.55274 0.0774 0.42473 0.0
C422 C 0.55121 0.09302 0.46451 0.0
C423 C 0.56941 0.07471 0.46584 0.0
C424 C 0.59159 0.08033 0.47377 0.0
C425 C 0.59614 0.1044 0.48031 0.0
C426 C 0.5774 0.12209 0.48013 0.0
C427 C 0.55512 0.11637 0.47235 0.0
C428 C 0.51683 0.06737 0.45401 0.0
C429 C 0.50141 0.05992 0.44 0.0
C430 C 0.4878 0.03814 0.4412 0.0
C431 C 0.48825 0.02358 0.45675 0.0
C432 C 0.50214 0.03178 0.47129 0.0
C433 C 0.5159 0.05361 0.47007 0.0
H434 H 0.04475 0.89887 0.68365 0.0
N435 N 0.05886 0.94056 0.702 0.0
H436 H 0.05362 0.88911 0.65273 0.0
H437 H 0.08397 0.96796 0.67894 0.0
H438 H 0.09446 0.95755 0.64809 0.0
H439 H 0.10411 0.93485 0.71283 0.0
H440 H 0.12168 0.89834 0.72738 0.0
H441 H 0.03294 0.90275 0.71864 0.0
H442 H 0.05025 0.86681 0.73334 0.0
H443 H 0.01345 0.92126 0.69553 0.0
H444 H 0.05146 0.98614 0.71458 0.0
H445 H 0.97536 0.94285 0.69842 0.0
H446 H 0.01317 0.00889 0.71618 0.0
H447 H 0.86087 0.03546 0.68368 0.0
H448 H 0.85182 0.05164 0.65379 0.0
H449 H 0.92721 0.07014 0.64659 0.0
H450 H 0.93612 0.05425 0.67639 0.0
H451 H 0.9305 0.07836 0.70336 0.0
H452 H 0.9177 0.11701 0.71743 0.0
H453 H 0.85436 0.07983 0.73836 0.0
H454 H 0.8669 0.04134 0.72342 0.0
H455 H 0.9171 0.99653 0.6811 0.0
H456 H 0.95415 0.97277 0.68316 0.0
H457 H 0.97512 0.01523 0.72962 0.0
N458 N 0.90332 0.0359 0.70055 0.0
H459 H 0.93867 0.03999 0.72699 0.0
C460 C 0.06345 0.93442 0.68357 0.0
C461 C 0.05514 0.91208 0.67593 0.0
C462 C 0.0606 0.90631 0.65824 0.0
C463 C 0.07492 0.92244 0.64787 0.0
C464 C 0.08309 0.94485 0.65555 0.0
C465 C 0.07728 0.95078 0.67319 0.0
C466 C 0.06727 0.92172 0.71432 0.0
C467 C 0.09219 0.92036 0.71773 0.0
C468 C 0.1022 0.89948 0.72606 0.0
C469 C 0.08737 0.87949 0.73124 0.0
C470 C 0.06219 0.8817 0.72913 0.0
C471 C 0.05222 0.90252 0.72072 0.0
C472 C 0.03556 0.95193 0.70516 0.0
C473 C 0.01372 0.94008 0.70058 0.0
C474 C 0.99175 0.95272 0.70195 0.0
C475 C 0.99104 0.97784 0.70729 0.0
C476 C 0.01285 0.98949 0.71225 0.0
C477 C 0.03481 0.97658 0.71127 0.0
C478 C 0.89909 0.04341 0.68225 0.0
C479 C 0.87544 0.04273 0.67554 0.0
C480 C 0.8703 0.05208 0.65857 0.0
C481 C 0.88884 0.06209 0.64793 0.0
C482 C 0.91265 0.06228 0.65446 0.0
C483 C 0.91772 0.05325 0.67151 0.0
C484 C 0.89946 0.05697 0.71221 0.0
C485 C 0.9141 0.07838 0.71123 0.0
C486 C 0.90681 0.10048 0.71944 0.0
C487 C 0.88481 0.10165 0.72886 0.0
C488 C 0.87117 0.0797 0.73092 0.0
C489 C 0.87841 0.05763 0.7226 0.0
C490 C 0.92528 0.0213 0.70309 0.0
C491 C 0.92978 0.0011 0.6916 0.0
C492 C 0.95094 0.98714 0.693 0.0
C493 C 0.96793 0.99216 0.70647 0.0
C494 C 0.96285 0.01131 0.71873 0.0
C495 C 0.94178 0.02563 0.71715 0.0
C496 C 0.28076 0.64808 0.00081 0.0
O497 O 0.29863 0.63412 0.99501 0.0
O498 O 0.33352 0.65855 0.03166 0.0
Zn499 Zn 0.32117 0.67706 0.01009 0.0
O500 O 0.33849 0.66618 0.98769 0.0
C501 C 0.33358 0.72757 0.0006 0.0
O502 O 0.33552 0.71774 0.98463 0.0
O503 O 0.28567 0.66901 0.00786 0.0
C504 C 0.36122 0.66283 0.98668 0.0
O505 O 0.37465 0.66582 0.00097 0.0
C506 C 0.34193 0.63651 0.03114 0.0
O507 O 0.34357 0.62489 0.01578 0.0
O508 O 0.3268 0.71393 0.01355 0.0
C509 C 0.28842 0.84915 0.24268 0.0
O510 O 0.30114 0.85535 0.22857 0.0
O511 O 0.35068 0.84559 0.23443 0.0
Zn512 Zn 0.33429 0.82909 0.25532 0.0
O513 O 0.34885 0.84137 0.27823 0.0
C514 C 0.34392 0.78134 0.23928 0.0
O515 O 0.34469 0.7948 0.22466 0.0
O516 O 0.29865 0.83746 0.25537 0.0
C517 C 0.37154 0.8441 0.28016 0.0
O518 O 0.38601 0.83893 0.26675 0.0
C519 C 0.35669 0.86844 0.23424 0.0
O520 O 0.35257 0.88223 0.2484 0.0
O521 O 0.33923 0.79195 0.25403 0.0
C522 C 0.20185 0.8616 0.49594 0.0
O523 O 0.18642 0.87813 0.48979 0.0
O524 O 0.14495 0.85499 0.52387 0.0
Zn525 Zn 0.15777 0.83608 0.5026 0.0
O526 O 0.14418 0.84904 0.47933 0.0
C527 C 0.13054 0.79167 0.51129 0.0
O528 O 0.11417 0.80795 0.51632 0.0
O529 O 0.19382 0.84124 0.50224 0.0
C530 C 0.12334 0.84392 0.47317 0.0
O531 O 0.10879 0.82936 0.48227 0.0
C532 C 0.12418 0.86501 0.52518 0.0
O533 O 0.109 0.86364 0.51176 0.0
O534 O 0.15066 0.79935 0.50519 0.0
C535 C 0.20851 0.63472 0.75946 0.0
O536 O 0.19419 0.61656 0.75432 0.0
O537 O 0.15275 0.64554 0.73747 0.0
Zn538 Zn 0.16323 0.65986 0.76106 0.0
O539 O 0.14724 0.64165 0.78132 0.0
C540 C 0.16308 0.71157 0.75129 0.0
O541 O 0.1793 0.7038 0.73974 0.0
O542 O 0.19932 0.65583 0.76313 0.0
C543 C 0.15697 0.64199 0.79666 0.0
O544 O 0.1771 0.6546 0.79895 0.0
C545 C 0.14046 0.62561 0.73616 0.0
O546 O 0.13368 0.61393 0.75072 0.0
O547 O 0.15387 0.696 0.76209 0.0
C548 C 0.77406 0.13963 0.49083 0.0
O549 O 0.78854 0.12502 0.48168 0.0
O550 O 0.83067 0.14162 0.5235 0.0
Zn551 Zn 0.8192 0.16097 0.50215 0.0
O552 O 0.8361 0.1481 0.48028 0.0
C553 C 0.82651 0.20847 0.51967 0.0
O554 O 0.81775 0.19665 0.53359 0.0
O555 O 0.78311 0.15686 0.50033 0.0
C556 C 0.83545 0.16082 0.466 0.0
O557 O 0.82297 0.18166 0.46575 0.0
C558 C 0.85063 0.14634 0.5312 0.0
O559 O 0.86453 0.16415 0.52491 0.0
O560 O 0.82804 0.19712 0.50485 0.0
C561 C 0.77791 0.34612 0.7439 0.0
O562 O 0.78874 0.34474 0.72833 0.0
O563 O 0.84186 0.34179 0.73669 0.0
Zn564 Zn 0.82378 0.32729 0.75751 0.0
O565 O 0.84036 0.33848 0.77991 0.0
C566 C 0.83001 0.27896 0.74163 0.0
O567 O 0.83132 0.29234 0.727 0.0
O568 O 0.78918 0.33915 0.75781 0.0
C569 C 0.83544 0.32805 0.79468 0.0
O570 O 0.81906 0.31032 0.79505 0.0
C571 C 0.84316 0.36496 0.73335 0.0
O572 O 0.83194 0.38084 0.74382 0.0
O573 O 0.82587 0.28984 0.75637 0.0
C574 C 0.70953 0.34854 0.01371 0.0
O575 O 0.69833 0.34876 0.02916 0.0
O576 O 0.64718 0.35639 0.02103 0.0
Zn577 Zn 0.66127 0.34042 0.9991 0.0
O578 O 0.64941 0.3577 0.97699 0.0
C579 C 0.66415 0.28792 0.007 0.0
O580 O 0.68349 0.29502 0.01582 0.0
O581 O 0.69745 0.34466 -0.00045 0.0
C582 C 0.6284 0.36689 0.97497 0.0
O583 O 0.61251 0.36489 0.98792 0.0
C584 C 0.62736 0.34909 0.02784 0.0
O585 O 0.61531 0.33096 0.02012 0.0
O586 O 0.65198 0.3041 0.99849 0.0
C587 C 0.72911 0.16113 0.25102 0.0
O588 O 0.72045 0.16504 0.23496 0.0
O589 O 0.66852 0.15062 0.23837 0.0
Zn590 Zn 0.67917 0.16765 0.26094 0.0
O591 O 0.66085 0.15318 0.28161 0.0
C592 C 0.67853 0.21925 0.24804 0.0
O593 O 0.69227 0.21087 0.23507 0.0
O594 O 0.71483 0.16175 0.26432 0.0
C595 C 0.66069 0.16511 0.29625 0.0
O596 O 0.6731 0.18592 0.29745 0.0
C597 C 0.6515 0.15882 0.22862 0.0
O598 O 0.63999 0.17918 0.23339 0.0
O599 O 0.67148 0.20433 0.26012 0.0
C600 C 0.16846 0.91814 0.27071 0.0
C601 C 0.1469 0.90835 0.26373 0.0
C602 C 0.19103 0.90846 0.26575 0.0
C603 C 0.19214 0.88821 0.25369 0.0
C604 C 0.17056 0.8786 0.24622 0.0
C605 C 0.1482 0.88888 0.25125 0.0
C606 C 0.21366 0.91937 0.2739 0.0
C607 C 0.17105 0.85696 0.23337 0.0
C608 C 0.25354 0.87549 0.23284 0.0
C609 C 0.263 0.85747 0.24447 0.0
C610 C 0.23018 0.88517 0.23534 0.0
C611 C 0.21588 0.87642 0.24969 0.0
C612 C 0.22495 0.8575 0.26102 0.0
C613 C 0.24846 0.84836 0.25834 0.0
C614 C 0.22121 0.90548 0.22307 0.0
C615 C 0.21012 0.84746 0.27634 0.0
H616 H 0.16773 0.93283 0.2806 0.0
H617 H 0.13169 0.88142 0.24559 0.0
H618 H 0.22251 0.90528 0.28253 0.0
H619 H 0.22677 0.92445 0.26329 0.0
H620 H 0.20981 0.93619 0.28205 0.0
H621 H 0.15281 0.85254 0.22802 0.0
H622 H 0.18333 0.86107 0.22204 0.0
H623 H 0.17824 0.84019 0.2402 0.0
H624 H 0.26466 0.88265 0.2221 0.0
H625 H 0.25557 0.83429 0.26729 0.0
H626 H 0.21909 0.92306 0.2307 0.0
H627 H 0.20316 0.90058 0.21764 0.0
H628 H 0.23377 0.90891 0.21177 0.0
H629 H 0.20713 0.86239 0.28634 0.0
H630 H 0.21906 0.83148 0.28307 0.0
H631 H 0.19208 0.84139 0.27155 0.0
C632 C 0.10394 0.65458 0.54362 0.0
C633 C 0.10057 0.63694 0.53008 0.0
C634 C 0.10923 0.67945 0.53957 0.0
C635 C 0.11083 0.68696 0.52152 0.0
C636 C 0.10738 0.66923 0.50775 0.0
C637 C 0.10253 0.64428 0.51221 0.0
C638 C 0.11322 0.69767 0.55465 0.0
C639 C 0.10857 0.67668 0.48837 0.0
C640 C 0.10163 0.75623 0.51439 0.0
C641 C 0.12552 0.7647 0.51278 0.0
C642 C 0.09654 0.73079 0.51643 0.0
C643 C 0.11584 0.71349 0.51723 0.0
C644 C 0.13999 0.72188 0.51528 0.0
C645 C 0.14453 0.7474 0.5129 0.0
C646 C 0.07053 0.7225 0.51817 0.0
C647 C 0.16106 0.70404 0.51638 0.0
H648 H 0.10283 0.64877 0.55745 0.0
H649 H 0.09992 0.63059 0.50177 0.0
H650 H 0.13128 0.7065 0.55333 0.0
H651 H 0.09954 0.71276 0.55402 0.0
H652 H 0.11204 0.68863 0.56795 0.0
H653 H 0.10537 0.66067 0.47928 0.0
H654 H 0.09485 0.69126 0.48558 0.0
H655 H 0.12655 0.68481 0.4853 0.0
H656 H 0.08685 0.7695 0.51409 0.0
H657 H 0.16303 0.75388 0.51168 0.0
H658 H 0.06731 0.71511 0.53178 0.0
H659 H 0.06667 0.70721 0.50863 0.0
H660 H 0.05758 0.73796 0.5157 0.0
H661 H 0.16181 0.69568 0.5299 0.0
H662 H 0.17863 0.71333 0.51362 0.0
H663 H 0.15866 0.68855 0.50675 0.0
C664 C 0.35299 0.61732 0.76344 0.0
C665 C 0.35933 0.60855 0.78043 0.0
C666 C 0.32864 0.62088 0.75873 0.0
C667 C 0.31026 0.61565 0.77135 0.0
C668 C 0.31653 0.60616 0.78833 0.0
C669 C 0.34097 0.60273 0.79266 0.0
C670 C 0.32261 0.63084 0.74044 0.0
C671 C 0.29746 0.60041 0.80217 0.0
C672 C 0.24983 0.649 0.76851 0.0
C673 C 0.2348 0.63031 0.76158 0.0
C674 C 0.27456 0.64463 0.77137 0.0
C675 C 0.2845 0.62104 0.76715 0.0
C676 C 0.26956 0.6023 0.75976 0.0
C677 C 0.24487 0.60714 0.75709 0.0
C678 C 0.28992 0.66508 0.77931 0.0
C679 C 0.27955 0.57695 0.75504 0.0
H680 H 0.3671 0.62164 0.75389 0.0
H681 H 0.34574 0.59635 0.80592 0.0
H682 H 0.30941 0.61842 0.73373 0.0
H683 H 0.314 0.64943 0.74168 0.0
H684 H 0.33889 0.63262 0.73184 0.0
H685 H 0.30527 0.59204 0.81444 0.0
H686 H 0.28779 0.61776 0.8059 0.0
H687 H 0.28383 0.58736 0.79663 0.0
H688 H 0.24221 0.66697 0.77199 0.0
H689 H 0.23342 0.59263 0.75166 0.0
H690 H 0.30573 0.66887 0.7706 0.0
H691 H 0.29703 0.65905 0.79245 0.0
H692 H 0.27965 0.68269 0.78116 0.0
H693 H 0.29536 0.57891 0.74603 0.0
H694 H 0.26586 0.56491 0.74845 0.0
H695 H 0.28595 0.56743 0.7673 0.0
C696 C 0.40561 0.84718 0.03038 0.0
C697 C 0.39477 0.87018 0.02639 0.0
C698 C 0.39499 0.82468 0.02505 0.0
C699 C 0.37272 0.82506 0.01576 0.0
C700 C 0.3618 0.84813 0.01144 0.0
C701 C 0.37305 0.87042 0.01668 0.0
C702 C 0.40736 0.80044 0.02974 0.0
C703 C 0.33796 0.84925 0.00165 0.0
C704 C 0.35592 0.7658 0.9911 0.0
C705 C 0.3416 0.75349 0.0038 0.0
C706 C 0.36567 0.78944 0.99461 0.0
C707 C 0.36064 0.80119 0.01109 0.0
C708 C 0.34533 0.78932 0.02364 0.0
C709 C 0.33615 0.76552 0.0199 0.0
C710 C 0.38218 0.80133 0.981 0.0
C711 C 0.33925 0.80146 0.04125 0.0
H712 H 0.4221 0.84665 0.03818 0.0
H713 H 0.36468 0.88806 0.0133 0.0
H714 H 0.39587 0.78964 0.03908 0.0
H715 H 0.40986 0.78893 0.01759 0.0
H716 H 0.42531 0.8034 0.03605 0.0
H717 H 0.33214 0.86868 0.9989 0.0
H718 H 0.33929 0.83907 0.98882 0.0
H719 H 0.32373 0.83993 0.00969 0.0
H720 H 0.36029 0.75659 0.97865 0.0
H721 H 0.32494 0.75618 0.0297 0.0
H722 H 0.40075 0.80273 0.98654 0.0
H723 H 0.37606 0.82054 0.97795 0.0
H724 H 0.38298 0.79054 0.96838 0.0
H725 H 0.35585 0.80306 0.04948 0.0
H726 H 0.32554 0.79072 0.04889 0.0
H727 H 0.33229 0.8206 0.03904 0.0
C728 C 0.15693 0.57401 0.00689 0.0
C729 C 0.14266 0.57819 0.99173 0.0
C730 C 0.17731 0.58881 0.01038 0.0
C731 C 0.18358 0.60811 0.99836 0.0
C732 C 0.16796 0.61387 0.98399 0.0
C733 C 0.14767 0.59884 0.98085 0.0
C734 C 0.19328 0.58232 0.02603 0.0
C735 C 0.17393 0.63432 0.97088 0.0
C736 C 0.23667 0.65093 0.0088 0.0
C737 C 0.25559 0.63878 -0.00018 0.0
C738 C 0.21301 0.64127 0.0085 0.0
C739 C 0.20826 0.61909 0.99891 0.0
C740 C 0.22724 0.60702 0.98961 0.0
C741 C 0.25063 0.61697 0.99023 0.0
C742 C 0.19322 0.65456 0.01859 0.0
C743 C 0.2229 0.58343 0.97908 0.0
H744 H 0.15291 0.5583 0.01548 0.0
H745 H 0.13686 0.60211 0.96902 0.0
H746 H 0.2097 0.57257 0.02114 0.0
H747 H 0.1993 0.59941 0.03306 0.0
H748 H 0.18392 0.56995 0.0357 0.0
H749 H 0.15813 0.63926 0.96244 0.0
H750 H 0.18023 0.6513 0.9779 0.0
H751 H 0.18881 0.62802 0.96203 0.0
H752 H 0.24041 0.66776 0.01629 0.0
H753 H 0.2651 0.60752 0.98319 0.0
H754 H 0.1858 0.64211 0.02906 0.0
H755 H 0.1781 0.65925 0.00947 0.0
H756 H 0.19974 0.67196 0.025 0.0
H757 H 0.21603 0.56856 0.98802 0.0
H758 H 0.23957 0.57655 0.97241 0.0
H759 H 0.20891 0.58674 0.96874 0.0
C760 C 0.39995 0.64445 0.23717 0.0
C761 C 0.3831 0.62668 0.23136 0.0
C762 C 0.39313 0.66934 0.23995 0.0
C763 C 0.36884 0.67659 0.23694 0.0
C764 C 0.35149 0.65851 0.23196 0.0
C765 C 0.35884 0.6338 0.22916 0.0
C766 C 0.41215 0.68809 0.24531 0.0
C767 C 0.32538 0.66548 0.22874 0.0
C768 C 0.34782 0.73964 0.2541 0.0
C769 C 0.34959 0.75437 0.23868 0.0
C770 C 0.35387 0.71423 0.25374 0.0
C771 C 0.36199 0.70336 0.23763 0.0
C772 C 0.36368 0.71809 0.22201 0.0
C773 C 0.35739 0.74338 0.22272 0.0
C774 C 0.35167 0.69903 0.27061 0.0
C775 C 0.37233 0.70718 0.20457 0.0
H776 H 0.41864 0.63901 0.23916 0.0
H777 H 0.34573 0.62032 0.22443 0.0
H778 H 0.41492 0.70163 0.23431 0.0
H779 H 0.40607 0.69878 0.25715 0.0
H780 H 0.42978 0.67915 0.24841 0.0
H781 H 0.31372 0.64887 0.22669 0.0
H782 H 0.31818 0.67635 0.24015 0.0
H783 H 0.32411 0.67748 0.21672 0.0
H784 H 0.34177 0.74798 0.26648 0.0
H785 H 0.35886 0.75461 0.21075 0.0
H786 H 0.36957 0.69125 0.2743 0.0
H787 H 0.33931 0.68304 0.26839 0.0
H788 H 0.34472 0.7102 0.28199 0.0
H789 H 0.39085 0.69953 0.20619 0.0
H790 H 0.3726 0.72116 0.19364 0.0
H791 H 0.36042 0.69153 0.20054 0.0
C792 C 0.33996 0.90623 0.5001 0.0
C793 C 0.35323 0.8949 0.48639 0.0
C794 C 0.31584 0.89943 0.50339 0.0
C795 C 0.30469 0.8812 0.49249 0.0
C796 C 0.31833 0.86901 0.4791 0.0
C797 C 0.34248 0.87592 0.47628 0.0
C798 C 0.30199 0.91251 0.518 0.0
C799 C 0.30703 0.8497 0.46705 0.0
C800 C 0.2444 0.85217 0.50532 0.0
C801 C 0.22814 0.86668 0.49538 0.0
C802 C 0.26938 0.85697 0.50483 0.0
C803 C 0.27827 0.87647 0.49394 0.0
C804 C 0.26192 0.89116 0.4839 0.0
C805 C 0.23706 0.8862 0.48485 0.0
C806 C 0.28625 0.84116 0.5159 0.0
C807 C 0.27073 0.91192 0.47193 0.0
H808 H 0.34832 0.9208 0.50799 0.0
H809 H 0.35259 0.86736 0.4655 0.0
H810 H 0.28801 0.92476 0.51201 0.0
H811 H 0.2925 0.89874 0.52653 0.0
H812 H 0.31396 0.92409 0.52653 0.0
H813 H 0.32057 0.84061 0.45824 0.0
H814 H 0.29786 0.83512 0.47506 0.0
H815 H 0.29307 0.85865 0.45857 0.0
H816 H 0.23759 0.83715 0.51358 0.0
H817 H 0.22462 0.89744 0.4771 0.0
H818 H 0.29728 0.8532 0.52476 0.0
H819 H 0.29897 0.83099 0.50707 0.0
H820 H 0.27637 0.82739 0.52423 0.0
H821 H 0.281 0.92581 0.47984 0.0
H822 H 0.25565 0.92162 0.46503 0.0
H823 H 0.28325 0.90431 0.46172 0.0
C824 C 0.1183 0.85479 0.74837 0.0
C825 C 0.09827 0.85544 0.7369 0.0
C826 C 0.12987 0.83216 0.75244 0.0
C827 C 0.12124 0.80976 0.74477 0.0
C828 C 0.10071 0.81027 0.7335 0.0
C829 C 0.08951 0.83307 0.72971 0.0
C830 C 0.15161 0.83229 0.76461 0.0
C831 C 0.091 0.7868 0.72499 0.0
C832 C 0.16226 0.75402 0.73751 0.0
C833 C 0.15419 0.73761 0.7508 0.0
C834 C 0.15238 0.778 0.73586 0.0
C835 C 0.13406 0.78578 0.74784 0.0
C836 C 0.12661 0.76974 0.76177 0.0
C837 C 0.13673 0.74582 0.76307 0.0
C838 C 0.1608 0.79458 0.72082 0.0
C839 C 0.10724 0.77744 0.77486 0.0
H840 H 0.12505 0.872 0.75406 0.0
H841 H 0.07435 0.83345 0.72055 0.0
H842 H 0.14893 0.81892 0.77572 0.0
H843 H 0.16786 0.82614 0.75712 0.0
H844 H 0.15521 0.85104 0.77029 0.0
H845 H 0.07433 0.79027 0.7171 0.0
H846 H 0.1049 0.77866 0.71603 0.0
H847 H 0.08689 0.77271 0.73538 0.0
H848 H 0.17582 0.7479 0.72802 0.0
H849 H 0.13052 0.73333 0.77347 0.0
H850 H 0.16602 0.81317 0.72602 0.0
H851 H 0.14577 0.79746 0.71124 0.0
H852 H 0.17645 0.78654 0.71351 0.0
H853 H 0.11147 0.79598 0.7806 0.0
H854 H 0.10517 0.76383 0.78592 0.0
H855 H 0.08965 0.7791 0.76784 0.0
C856 C 0.67923 0.44349 0.76856 0.0
C857 C 0.65477 0.43736 0.76604 0.0
C858 C 0.69777 0.4276 0.76285 0.0
C859 C 0.69182 0.40465 0.75468 0.0
C860 C 0.66727 0.39856 0.75156 0.0
C861 C 0.64902 0.41506 0.75719 0.0
C862 C 0.72375 0.43492 0.7663 0.0
C863 C 0.66025 0.37421 0.74293 0.0
C864 C 0.74487 0.37316 0.73176 0.0
C865 C 0.75397 0.35827 0.74559 0.0
C866 C 0.7238 0.38742 0.73414 0.0
C867 C 0.71146 0.38653 0.75067 0.0
C868 C 0.71971 0.37029 0.76425 0.0
C869 C 0.74095 0.35649 0.76159 0.0
C870 C 0.71565 0.40461 0.71938 0.0
C871 C 0.70687 0.36852 0.78199 0.0
H872 H 0.68404 0.46031 0.77571 0.0
H873 H 0.63023 0.41025 0.75495 0.0
H874 H 0.73184 0.42206 0.77624 0.0
H875 H 0.73455 0.43335 0.75388 0.0
H876 H 0.72538 0.45427 0.77144 0.0
H877 H 0.64058 0.37324 0.73998 0.0
H878 H 0.67047 0.37146 0.73035 0.0
H879 H 0.66501 0.35856 0.75194 0.0
H880 H 0.75481 0.37461 0.71934 0.0
H881 H 0.74772 0.34478 0.77227 0.0
H882 H 0.71929 0.42419 0.72328 0.0
H883 H 0.69589 0.40287 0.71716 0.0
H884 H 0.7252 0.40077 0.70663 0.0
H885 H 0.70923 0.38621 0.78944 0.0
H886 H 0.71392 0.35302 0.79032 0.0
H887 H 0.68717 0.36575 0.77997 0.0
C888 C 0.605 0.16114 0.03702 0.0
C889 C 0.6102 0.14034 0.02636 0.0
C890 C 0.6133 0.18494 0.03238 0.0
C891 C 0.62729 0.18807 0.01673 0.0
C892 C 0.63211 0.1673 0.00564 0.0
C893 C 0.62349 0.14366 0.01059 0.0
C894 C 0.60779 0.20661 0.04459 0.0
C895 C 0.6469 0.16996 0.98882 0.0
C896 C 0.6336 0.25469 0.00035 0.0
C897 C 0.65568 0.26177 0.00807 0.0
C898 C 0.6245 0.23045 0.0025 0.0
C899 C 0.63782 0.2129 0.01259 0.0
C900 C 0.66052 0.21966 0.01987 0.0
C901 C 0.66916 0.24401 0.01753 0.0
C902 C 0.60024 0.22391 0.99454 0.0
C903 C 0.6753 0.20143 0.03067 0.0
H904 H 0.59514 0.15872 0.0494 0.0
H905 H 0.62739 0.12771 0.0022 0.0
H906 H 0.62486 0.21396 0.05032 0.0
H907 H 0.59924 0.22198 0.03696 0.0
H908 H 0.59555 0.2013 0.05572 0.0
H909 H 0.64779 0.15232 0.9811 0.0
H910 H 0.63914 0.18472 0.98019 0.0
H911 H 0.6656 0.17573 0.99226 0.0
H912 H 0.62309 0.26827 0.99297 0.0
H913 H 0.68631 0.24926 0.02346 0.0
H914 H 0.58699 0.22046 0.00538 0.0
H915 H 0.60161 0.20653 0.98661 0.0
H916 H 0.5931 0.23897 0.98584 0.0
H917 H 0.66542 0.19654 0.04307 0.0
H918 H 0.69329 0.20906 0.03438 0.0
H919 H 0.67804 0.18393 0.02306 0.0
C920 C 0.86181 0.10417 0.26112 0.0
C921 C 0.87766 0.12104 0.26936 0.0
C922 C 0.83802 0.1111 0.25682 0.0
C923 C 0.83001 0.13558 0.26063 0.0
C924 C 0.84627 0.15307 0.26806 0.0
C925 C 0.86982 0.14555 0.27246 0.0
C926 C 0.82117 0.0919 0.24894 0.0
C927 C 0.83847 0.17943 0.27214 0.0
C928 C 0.77154 0.1583 0.2395 0.0
C929 C 0.75501 0.15509 0.25353 0.0
C930 C 0.79607 0.15219 0.24163 0.0
C931 C 0.80416 0.14236 0.25809 0.0
C932 C 0.78756 0.13907 0.27228 0.0
C933 C 0.76322 0.14562 0.26987 0.0
C934 C 0.81334 0.1563 0.2263 0.0
C935 C 0.79547 0.12843 0.28999 0.0
H936 H 0.86781 0.08533 0.25839 0.0
H937 H 0.88173 0.15866 0.27906 0.0
H938 H 0.8064 0.08782 0.25854 0.0
H939 H 0.81264 0.09919 0.23662 0.0
H940 H 0.83062 0.07419 0.24572 0.0
H941 H 0.85392 0.19141 0.27616 0.0
H942 H 0.82958 0.1879 0.26034 0.0
H943 H 0.82503 0.1793 0.28313 0.0
H944 H 0.76534 0.16571 0.22686 0.0
H945 H 0.75054 0.14298 0.28073 0.0
H946 H 0.82188 0.13839 0.22242 0.0
H947 H 0.8281 0.16904 0.23046 0.0
H948 H 0.80421 0.16434 0.21442 0.0
H949 H 0.80358 0.10972 0.288 0.0
H950 H 0.78023 0.12673 0.29959 0.0
H951 H 0.80959 0.14046 0.29601 0.0
C952 C 0.89204 0.34057 0.53589 0.0
C953 C 0.91692 0.33532 0.53575 0.0
C954 C 0.87501 0.3222 0.53138 0.0
C955 C 0.88308 0.29797 0.5269 0.0
C956 C 0.90818 0.29302 0.52567 0.0
C957 C 0.92478 0.31183 0.52993 0.0
C958 C 0.84839 0.32834 0.53241 0.0
C959 C 0.91756 0.26742 0.52095 0.0
C960 C 0.84527 0.24141 0.5386 0.0
C961 C 0.83794 0.2332 0.52171 0.0
C962 C 0.85922 0.26306 0.54051 0.0
C963 C 0.86557 0.27708 0.5252 0.0
C964 C 0.85692 0.26974 0.50825 0.0
C965 C 0.84341 0.2477 0.50667 0.0
C966 C 0.86829 0.27014 0.55882 0.0
C967 C 0.86278 0.28456 0.49169 0.0
H968 H 0.88575 0.3586 0.54045 0.0
H969 H 0.94398 0.30782 0.52938 0.0
H970 H 0.83868 0.32089 0.52062 0.0
H971 H 0.84044 0.31944 0.54441 0.0
H972 H 0.84517 0.34874 0.53324 0.0
H973 H 0.93756 0.26706 0.5195 0.0
H974 H 0.91234 0.25399 0.53153 0.0
H975 H 0.90934 0.26086 0.50831 0.0
H976 H 0.84116 0.23025 0.55026 0.0
H977 H 0.83758 0.24154 0.49359 0.0
H978 H 0.8636 0.28977 0.56185 0.0
H979 H 0.88832 0.2686 0.55918 0.0
H980 H 0.86067 0.25805 0.56946 0.0
H981 H 0.85939 0.30468 0.49397 0.0
H982 H 0.85199 0.27836 0.48001 0.0
H983 H 0.88225 0.28242 0.48842 0.0
C984 C 0.63121 0.13329 0.47734 0.0
C985 C 0.62116 0.11182 0.48501 0.0
C986 C 0.65581 0.1389 0.47944 0.0
C987 C 0.67066 0.12277 0.48959 0.0
C988 C 0.66037 0.10172 0.49808 0.0
C989 C 0.63573 0.09638 0.49558 0.0
C990 C 0.66615 0.16138 0.47001 0.0
C991 C 0.67556 0.08431 0.50924 0.0
C992 C 0.73728 0.12004 0.47754 0.0
C993 C 0.7476 0.13553 0.49051 0.0
C994 C 0.71226 0.11574 0.47713 0.0
C995 C 0.69723 0.12694 0.49016 0.0
C996 C 0.70754 0.14243 0.50339 0.0
C997 C 0.73261 0.1467 0.50334 0.0
C998 C 0.70188 0.09937 0.46264 0.0
C999 C 0.6921 0.15444 0.51761 0.0
H1000 H 0.6201 0.14506 0.46893 0.0
H1001 H 0.62795 0.07984 0.50159 0.0
H1002 H 0.67646 0.17314 0.47949 0.0
H1003 H 0.67896 0.15519 0.4595 0.0
H1004 H 0.65188 0.17298 0.46369 0.0
H1005 H 0.66441 0.07022 0.51633 0.0
H1006 H 0.6887 0.07442 0.50057 0.0
H1007 H 0.68613 0.095 0.51922 0.0
H1008 H 0.74874 0.11141 0.46756 0.0
H1009 H 0.74049 0.15856 0.51348 0.0
H1010 H 0.68845 0.11001 0.45472 0.0
H1011 H 0.69226 0.0833 0.46866 0.0
H1012 H 0.71603 0.09215 0.45346 0.0
H1013 H 0.67854 0.16692 0.51136 0.0
H1014 H 0.703 0.16547 0.52723 0.0
H1015 H 0.68198 0.13994 0.52506 0.0
C1016 C 0.85048 0.13185 0.73192 0.0
C1017 C 0.875 0.12616 0.73468 0.0
C1018 C 0.84156 0.15597 0.73483 0.0
C1019 C 0.85759 0.17497 0.74042 0.0
C1020 C 0.88206 0.16911 0.7441 0.0
C1021 C 0.89044 0.14474 0.74128 0.0
C1022 C 0.81528 0.16142 0.73093 0.0
C1023 C 0.89971 0.18887 0.7501 0.0
C1024 C 0.84426 0.24104 0.72546 0.0
C1025 C 0.83555 0.25197 0.74118 0.0
C1026 C 0.85131 0.21596 0.72505 0.0
C1027 C 0.84938 0.20135 0.74071 0.0
C1028 C 0.84004 0.21206 0.75652 0.0
C1029 C 0.83332 0.2373 0.75659 0.0
C1030 C 0.86127 0.20523 0.70793 0.0
C1031 C 0.83744 0.19694 0.77339 0.0
H1032 H 0.83842 0.11777 0.72661 0.0
H1033 H 0.9093 0.14041 0.74373 0.0
H1034 H 0.80704 0.17222 0.74199 0.0
H1035 H 0.81393 0.17296 0.71869 0.0
H1036 H 0.80459 0.14413 0.72889 0.0
H1037 H 0.91754 0.18089 0.75387 0.0
H1038 H 0.90254 0.20249 0.73916 0.0
H1039 H 0.89233 0.19927 0.76166 0.0
H1040 H 0.8461 0.25223 0.7135 0.0
H1041 H 0.82654 0.2456 0.76879 0.0
H1042 H 0.85035 0.18892 0.70374 0.0
H1043 H 0.88006 0.1986 0.71009 0.0
H1044 H 0.86138 0.21904 0.69689 0.0
H1045 H 0.82634 0.18011 0.7708 0.0
H1046 H 0.82892 0.20776 0.78435 0.0
H1047 H 0.85549 0.19046 0.7779 0.0
C1048 C 0.85253 0.35961 0.00152 0.0
C1049 C 0.85963 0.38461 -0.00024 0.0
C1050 C 0.8287 0.35329 0.00605 0.0
C1051 C 0.81145 0.37241 0.0087 0.0
C1052 C 0.81878 0.39766 0.00797 0.0
C1053 C 0.84282 0.40346 0.00359 0.0
C1054 C 0.82166 0.32613 0.00686 0.0
C1055 C 0.8009 0.41858 0.01074 0.0
C1056 C 0.74673 0.35749 0.99592 0.0
C1057 C 0.73575 0.35399 0.01259 0.0
C1058 C 0.77131 0.36358 0.99454 0.0
C1059 C 0.78537 0.36602 0.01021 0.0
C1060 C 0.77452 0.36225 0.0271 0.0
C1061 C 0.74978 0.35637 0.0281 0.0
C1062 C 0.78219 0.36756 0.97627 0.0
C1063 C 0.78904 0.36444 0.04407 0.0
H1064 H 0.86524 0.34486 0.99838 0.0
H1065 H 0.84825 0.42281 0.00257 0.0
H1066 H 0.8108 0.32229 0.019 0.0
H1067 H 0.81024 0.32145 0.99516 0.0
H1068 H 0.83769 0.31364 0.00683 0.0
H1069 H 0.80992 0.43704 0.01159 0.0
H1070 H 0.78791 0.41898 -0.00053 0.0
H1071 H 0.7903 0.41552 0.02311 0.0
H1072 H 0.73603 0.35578 0.98387 0.0
H1073 H 0.74144 0.35365 0.04103 0.0
H1074 H 0.7972 0.35418 0.97406 0.0
H1075 H 0.78993 0.38659 0.97533 0.0
H1076 H 0.76872 0.36518 0.96541 0.0
H1077 H 0.80439 0.35112 0.04379 0.0
H1078 H 0.77796 0.36069 0.05614 0.0
H1079 H 0.79684 0.38341 0.04516 0.0
C1080 C 0.63071 0.36142 0.24572 0.0
C1081 C 0.60865 0.36095 0.23646 0.0
C1082 C 0.64347 0.33932 0.24925 0.0
C1083 C 0.63396 0.31627 0.24332 0.0
C1084 C 0.61139 0.31563 0.23443 0.0
C1085 C 0.59906 0.33794 0.23109 0.0
C1086 C 0.6674 0.34067 0.25888 0.0
C1087 C 0.60064 0.29143 0.22787 0.0
C1088 C 0.67426 0.26083 0.23326 0.0
C1089 C 0.66933 0.24517 0.24778 0.0
C1090 C 0.66368 0.28454 0.23203 0.0
C1091 C 0.64786 0.29279 0.24568 0.0
C1092 C 0.64371 0.27755 0.26076 0.0
C1093 C 0.65447 0.2539 0.26162 0.0
C1094 C 0.66857 0.3003 0.21574 0.0
C1095 C 0.62705 0.28574 0.27561 0.0
H1096 H 0.63813 0.37913 0.25 0.0
H1097 H 0.58229 0.33741 0.22362 0.0
H1098 H 0.66738 0.32788 0.27051 0.0
H1099 H 0.68214 0.33451 0.24985 0.0
H1100 H 0.67156 0.35981 0.26361 0.0
H1101 H 0.58243 0.29403 0.22188 0.0
H1102 H 0.61271 0.28301 0.21769 0.0
H1103 H 0.59912 0.27794 0.23902 0.0
H1104 H 0.6858 0.2543 0.22255 0.0
H1105 H 0.6507 0.24201 0.27297 0.0
H1106 H 0.67428 0.31931 0.21973 0.0
H1107 H 0.65171 0.30222 0.20782 0.0
H1108 H 0.68279 0.29211 0.20706 0.0
H1109 H 0.63189 0.30475 0.28019 0.0
H1110 H 0.62767 0.27289 0.28722 0.0
H1111 H 0.60818 0.28651 0.27061 0.0
C1112 C 0.08253 0.87705 0.37393 0.0
C1113 C 0.08044 0.9028 0.37138 0.0
C1114 C 0.0891 0.86728 0.39059 0.0
C1115 C 0.09312 0.8837 0.40508 0.0
C1116 C 0.09038 0.90971 0.40265 0.0
C1117 C 0.08435 0.91898 0.38573 0.0
C1118 C 0.09234 0.83948 0.39257 0.0
C1119 C 0.09401 0.92774 0.41787 0.0
C1120 C 0.09092 0.85611 0.45168 0.0
C1121 C 0.11558 0.85427 0.45585 0.0
C1122 C 0.08332 0.86601 0.4353 0.0
C1123 C 0.10082 0.87368 0.42265 0.0
C1124 C 0.12575 0.87167 0.42674 0.0
C1125 C 0.13283 0.86225 0.44339 0.0
C1126 C 0.05657 0.8684 0.43155 0.0
C1127 C 0.14496 0.87919 0.41346 0.0
H1128 H 0.07971 0.86461 0.36273 0.0
H1129 H 0.08258 0.9389 0.38371 0.0
H1130 H 0.11122 0.83531 0.39664 0.0
H1131 H 0.08029 0.83228 0.40322 0.0
H1132 H 0.08837 0.82929 0.38002 0.0
H1133 H 0.0899 0.94726 0.41399 0.0
H1134 H 0.08225 0.92251 0.42927 0.0
H1135 H 0.113 0.92684 0.4226 0.0
H1136 H 0.07753 0.85014 0.46135 0.0
H1137 H 0.15192 0.86071 0.44652 0.0
H1138 H 0.05168 0.85709 0.41971 0.0
H1139 H 0.05205 0.88806 0.42842 0.0
H1140 H 0.0453 0.86224 0.443 0.0
H1141 H 0.14266 0.86849 0.40091 0.0
H1142 H 0.16356 0.87598 0.41858 0.0
H1143 H 0.14303 0.89921 0.41007 0.0
C1144 C 0.13037 0.55708 0.64188 0.0
C1145 C 0.11039 0.56555 0.63208 0.0
C1146 C 0.13505 0.56621 0.65907 0.0
C1147 C 0.11935 0.58418 0.66663 0.0
C1148 C 0.09895 0.59252 0.65692 0.0
C1149 C 0.09476 0.58315 0.63975 0.0
C1150 C 0.15698 0.55688 0.66905 0.0
C1151 C 0.08181 0.61168 0.66454 0.0
C1152 C 0.12034 0.59377 0.7168 0.0
C1153 C 0.1347 0.6152 0.71838 0.0
C1154 C 0.11514 0.58347 0.70003 0.0
C1155 C 0.12463 0.59483 0.6845 0.0
C1156 C 0.13909 0.61648 0.68599 0.0
C1157 C 0.14391 0.62643 0.70291 0.0
C1158 C 0.09953 0.56044 0.69893 0.0
C1159 C 0.14956 0.62908 0.66971 0.0
H1160 H 0.14234 0.54327 0.63611 0.0
H1161 H 0.0795 0.59009 0.63215 0.0
H1162 H 0.16938 0.57264 0.6719 0.0
H1163 H 0.15143 0.54887 0.68206 0.0
H1164 H 0.16709 0.54247 0.66146 0.0
H1165 H 0.06625 0.61545 0.65556 0.0
H1166 H 0.07474 0.60528 0.67761 0.0
H1167 H 0.0916 0.62942 0.66689 0.0
H1168 H 0.11313 0.58498 0.72869 0.0
H1169 H 0.15508 0.64297 0.70399 0.0
H1170 H 0.10966 0.54516 0.69234 0.0
H1171 H 0.08331 0.56428 0.69066 0.0
H1172 H 0.09349 0.55391 0.71227 0.0
H1173 H 0.1612 0.61581 0.66228 0.0
H1174 H 0.1605 0.64576 0.67317 0.0
H1175 H 0.13479 0.63487 0.6606 0.0
C1176 C 0.42933 0.65142 0.89322 0.0
C1177 C 0.42345 0.62927 0.88424 0.0
C1178 C 0.42001 0.65654 0.91024 0.0
C1179 C 0.40485 0.63886 0.91868 0.0
C1180 C 0.3995 0.61612 0.91 0.0
C1181 C 0.40863 0.61172 0.89283 0.0
C1182 C 0.4259 0.68114 0.91899 0.0
C1183 C 0.38366 0.59666 0.91869 0.0
C1184 C 0.39526 0.64514 0.96869 0.0
C1185 C 0.37238 0.65636 0.96938 0.0
C1186 C 0.40595 0.63897 0.95227 0.0
C1187 C 0.39366 0.64469 0.93622 0.0
C1188 C 0.37062 0.65619 0.93687 0.0
C1189 C 0.36016 0.66164 0.95345 0.0
C1190 C 0.43031 0.62624 0.95209 0.0
C1191 C 0.35713 0.663 0.92005 0.0
H1192 H 0.44115 0.66489 0.88691 0.0
H1193 H 0.40363 0.59472 0.88597 0.0
H1194 H 0.40898 0.6918 0.92132 0.0
H1195 H 0.4344 0.67795 0.93218 0.0
H1196 H 0.43829 0.69271 0.91077 0.0
H1197 H 0.38282 0.57917 0.9108 0.0
H1198 H 0.39052 0.59222 0.93223 0.0
H1199 H 0.36502 0.60401 0.92025 0.0
H1200 H 0.40469 0.64088 0.98099 0.0
H1201 H 0.34253 0.6705 0.95392 0.0
H1202 H 0.44368 0.63795 0.94492 0.0
H1203 H 0.42903 0.60829 0.94481 0.0
H1204 H 0.43722 0.62253 0.96575 0.0
H1205 H 0.36832 0.67571 0.91179 0.0
H1206 H 0.33955 0.67223 0.92287 0.0
H1207 H 0.35366 0.64605 0.91199 0.0
C1208 C 0.42665 0.91777 0.14759 0.0
C1209 C 0.41042 0.92945 0.13591 0.0
C1210 C 0.41901 0.90921 0.16435 0.0
C1211 C 0.39452 0.9122 0.16944 0.0
C1212 C 0.37822 0.92461 0.15791 0.0
C1213 C 0.3864 0.93318 0.14129 0.0
C1214 C 0.43698 0.89631 0.17638 0.0
C1215 C 0.35191 0.92796 0.1628 0.0
C1216 C 0.3679 0.86566 0.20204 0.0
C1217 C 0.36711 0.87953 0.21788 0.0
C1218 C 0.37691 0.87606 0.18623 0.0
C1219 C 0.38553 0.90089 0.18628 0.0
C1220 C 0.38515 0.91489 0.20227 0.0
C1221 C 0.37583 0.90407 0.21789 0.0
C1222 C 0.37687 0.86058 0.16941 0.0
C1223 C 0.3944 0.94134 0.20284 0.0
H1224 H 0.4453 0.91512 0.14353 0.0
H1225 H 0.37374 0.94195 0.13221 0.0
H1226 H 0.43673 0.90487 0.18985 0.0
H1227 H 0.43184 0.87645 0.17798 0.0
H1228 H 0.45572 0.89718 0.17105 0.0
H1229 H 0.34194 0.93932 0.15283 0.0
H1230 H 0.34304 0.90947 0.16382 0.0
H1231 H 0.35029 0.93707 0.17602 0.0
H1232 H 0.36115 0.8467 0.20189 0.0
H1233 H 0.37536 0.91487 0.23009 0.0
H1234 H 0.39552 0.85903 0.16404 0.0
H1235 H 0.36568 0.86981 0.15906 0.0
H1236 H 0.36969 0.8415 0.17166 0.0
H1237 H 0.41342 0.94201 0.19812 0.0
H1238 H 0.39354 0.94944 0.21646 0.0
H1239 H 0.38358 0.95321 0.19373 0.0
C1240 C 0.09575 0.58027 0.88291 0.0
C1241 C 0.10283 0.55525 0.88437 0.0
C1242 C 0.10249 0.59466 0.86809 0.0
C1243 C 0.11678 0.5838 0.85449 0.0
C1244 C 0.12316 0.55831 0.85554 0.0
C1245 C 0.11602 0.54432 0.87043 0.0
C1246 C 0.09518 0.62175 0.86736 0.0
C1247 C 0.13838 0.54605 0.84129 0.0
C1248 C 0.12374 0.61588 0.80961 0.0
C1249 C 0.1462 0.62776 0.81159 0.0
C1250 C 0.1137 0.60183 0.82356 0.0
C1251 C 0.12652 0.59946 0.8398 0.0
C1252 C 0.14908 0.61159 0.84193 0.0
C1253 C 0.1586 0.62566 0.82782 0.0
C1254 C 0.0895 0.58934 0.82088 0.0
C1255 C 0.16337 0.60938 0.85903 0.0
H1256 H 0.08579 0.58895 0.8937 0.0
H1257 H 0.12118 0.52487 0.87132 0.0
H1258 H 0.11147 0.63367 0.86878 0.0
H1259 H 0.08688 0.62617 0.85427 0.0
H1260 H 0.08217 0.62672 0.87809 0.0
H1261 H 0.14055 0.52572 0.84356 0.0
H1262 H 0.13012 0.54895 0.82797 0.0
H1263 H 0.15659 0.55474 0.841 0.0
H1264 H 0.114 0.61749 0.79712 0.0
H1265 H 0.17597 0.63474 0.82946 0.0
H1266 H 0.07668 0.59528 0.83145 0.0
H1267 H 0.09155 0.56884 0.82202 0.0
H1268 H 0.08145 0.59371 0.80768 0.0
H1269 H 0.15234 0.61603 0.87044 0.0
H1270 H 0.18046 0.62025 0.85863 0.0
H1271 H 0.16785 0.58955 0.86159 0.0
C1272 C 0.39606 0.58556 0.12266 0.0
C1273 C 0.38295 0.56522 0.12942 0.0
C1274 C 0.3901 0.59641 0.10624 0.0
C1275 C 0.37017 0.58712 0.09646 0.0
C1276 C 0.3569 0.56656 0.10309 0.0
C1277 C 0.36359 0.5557 0.11939 0.0
C1278 C 0.40489 0.61813 0.09949 0.0
C1279 C 0.33533 0.55634 0.09314 0.0
C1280 C 0.3403 0.63214 0.06426 0.0
C1281 C 0.34921 0.62384 0.0478 0.0
C1282 C 0.34666 0.62006 0.08017 0.0
C1283 C 0.36273 0.59953 0.07962 0.0
C1284 C 0.37194 0.59119 0.06304 0.0
C1285 C 0.36487 0.6033 0.04729 0.0
C1286 C 0.33612 0.62923 0.09756 0.0
C1287 C 0.3895 0.56968 0.06198 0.0
H1288 H 0.41073 0.59346 0.13039 0.0
H1289 H 0.35358 0.53976 0.1243 0.0
H1290 H 0.41133 0.61437 0.08573 0.0
H1291 H 0.39348 0.63511 0.09895 0.0
H1292 H 0.42082 0.62201 0.10808 0.0
H1293 H 0.32704 0.54012 0.10003 0.0
H1294 H 0.3214 0.57109 0.09167 0.0
H1295 H 0.34077 0.55054 0.07952 0.0
H1296 H 0.32802 0.64788 0.06471 0.0
H1297 H 0.37189 0.59691 0.03459 0.0
H1298 H 0.35083 0.63552 0.10654 0.0
H1299 H 0.32652 0.6138 0.10442 0.0
H1300 H 0.32325 0.6449 0.09563 0.0
H1301 H 0.40593 0.57397 0.0699 0.0
H1302 H 0.39505 0.56553 0.04805 0.0
H1303 H 0.38125 0.5527 0.06782 0.0
C1304 C 0.41361 0.91469 0.36834 0.0
C1305 C 0.42291 0.89827 0.38116 0.0
C1306 C 0.40692 0.90617 0.35137 0.0
C1307 C 0.40936 0.88056 0.34721 0.0
C1308 C 0.41942 0.86403 0.35992 0.0
C1309 C 0.42618 0.87312 0.37674 0.0
C1310 C 0.39654 0.92442 0.3381 0.0
C1311 C 0.42212 0.83657 0.35601 0.0
C1312 C 0.36646 0.85471 0.31238 0.0
C1313 C 0.38142 0.85316 0.29731 0.0
C1314 C 0.37544 0.86334 0.32873 0.0
C1315 C 0.39992 0.87085 0.33001 0.0
C1316 C 0.41515 0.86935 0.31486 0.0
C1317 C 0.40574 0.86039 0.29869 0.0
C1318 C 0.35868 0.86446 0.34463 0.0
C1319 C 0.44129 0.87743 0.31571 0.0
H1320 H 0.41133 0.9342 0.37168 0.0
H1321 H 0.43316 0.86035 0.38669 0.0
H1322 H 0.40635 0.92308 0.32522 0.0
H1323 H 0.37731 0.91979 0.33545 0.0
H1324 H 0.39752 0.94396 0.34292 0.0
H1325 H 0.43168 0.82651 0.36687 0.0
H1326 H 0.40397 0.82808 0.35425 0.0
H1327 H 0.43222 0.83378 0.34339 0.0
H1328 H 0.34768 0.84905 0.31144 0.0
H1329 H 0.41739 0.85933 0.28709 0.0
H1330 H 0.35708 0.88396 0.34939 0.0
H1331 H 0.36624 0.8533 0.35577 0.0
H1332 H 0.34028 0.85738 0.34151 0.0
H1333 H 0.44236 0.89734 0.31961 0.0
H1334 H 0.45077 0.87497 0.30276 0.0
H1335 H 0.45101 0.86657 0.32605 0.0
C1336 C 0.0871 0.89061 0.62507 0.0
C1337 C 0.08181 0.9155 0.62931 0.0
C1338 C 0.09348 0.88361 0.6077 0.0
C1339 C 0.09516 0.90201 0.59424 0.0
C1340 C 0.09011 0.9272 0.59839 0.0
C1341 C 0.0833 0.93362 0.61585 0.0
C1342 C 0.09854 0.8565 0.60376 0.0
C1343 C 0.09203 0.94737 0.58443 0.0
C1344 C 0.13414 0.88383 0.55471 0.0
C1345 C 0.11668 0.87646 0.54223 0.0
C1346 C 0.12735 0.89319 0.57144 0.0
C1347 C 0.1025 0.89475 0.5759 0.0
C1348 C 0.08478 0.88786 0.5632 0.0
C1349 C 0.09209 0.87901 0.54642 0.0
C1350 C 0.14677 0.90081 0.58451 0.0
C1351 C 0.05812 0.88888 0.56757 0.0
H1352 H 0.08656 0.87652 0.63541 0.0
H1353 H 0.07895 0.95284 0.61889 0.0
H1354 H 0.08676 0.84995 0.59274 0.0
H1355 H 0.11756 0.85421 0.59932 0.0
H1356 H 0.0955 0.84437 0.61556 0.0
H1357 H 0.08786 0.96613 0.58988 0.0
H1358 H 0.11058 0.94765 0.57876 0.0
H1359 H 0.07941 0.94343 0.57329 0.0
H1360 H 0.15319 0.88211 0.55146 0.0
H1361 H 0.07853 0.87324 0.53684 0.0
H1362 H 0.14659 0.88805 0.59615 0.0
H1363 H 0.14318 0.91987 0.58959 0.0
H1364 H 0.16512 0.9004 0.57846 0.0
H1365 H 0.05406 0.87562 0.57853 0.0
H1366 H 0.04662 0.88412 0.55592 0.0
H1367 H 0.0531 0.90775 0.57234 0.0
C1368 C 0.60756 0.46027 0.89367 0.0
C1369 C 0.59919 0.44798 0.87837 0.0
C1370 C 0.61105 0.44732 0.90972 0.0
C1371 C 0.60603 0.42148 0.91047 0.0
C1372 C 0.59702 0.40909 0.8952 0.0
C1373 C 0.59375 0.42248 0.87932 0.0
C1374 C 0.62065 0.46117 0.92575 0.0
C1375 C 0.59149 0.38154 0.89549 0.0
C1376 C 0.63979 0.38318 0.9449 0.0
C1377 C 0.62233 0.3804 0.95834 0.0
C1378 C 0.63465 0.39643 0.92924 0.0
C1379 C 0.61146 0.40714 0.92694 0.0
C1380 C 0.59367 0.40425 0.94037 0.0
C1381 C 0.59932 0.39092 0.95593 0.0
C1382 C 0.65411 0.3991 0.91522 0.0
C1383 C 0.56872 0.41536 0.93832 0.0
H1384 H 0.61146 0.48004 0.89308 0.0
H1385 H 0.58758 0.41279 0.86749 0.0
H1386 H 0.60841 0.45849 0.93732 0.0
H1387 H 0.63859 0.45357 0.92954 0.0
H1388 H 0.62259 0.48146 0.9232 0.0
H1389 H 0.58318 0.37504 0.88283 0.0
H1390 H 0.60841 0.37087 0.89776 0.0
H1391 H 0.57902 0.37712 0.90664 0.0
H1392 H 0.65762 0.37513 0.94662 0.0
H1393 H 0.58572 0.38884 0.96625 0.0
H1394 H 0.65813 0.41911 0.91298 0.0
H1395 H 0.6477 0.39132 0.90236 0.0
H1396 H 0.67115 0.38949 0.91901 0.0
H1397 H 0.57009 0.43587 0.93681 0.0
H1398 H 0.55685 0.41119 0.94989 0.0
H1399 H 0.56002 0.40805 0.92606 0.0
C1400 C 0.60147 0.08119 0.14528 0.0
C1401 C 0.61578 0.08525 0.13011 0.0
C1402 C 0.6072 0.09246 0.16162 0.0
C1403 C 0.62759 0.10833 0.16275 0.0
C1404 C 0.64223 0.11232 0.14751 0.0
C1405 C 0.6362 0.10064 0.13139 0.0
C1406 C 0.59133 0.08754 0.17763 0.0
C1407 C 0.66401 0.12928 0.14817 0.0
C1408 C 0.6291 0.15671 0.19967 0.0
C1409 C 0.64505 0.14574 0.21191 0.0
C1410 C 0.62325 0.14472 0.18362 0.0
C1411 C 0.63342 0.1211 0.1798 0.0
C1412 C 0.64933 0.1098 0.19217 0.0
C1413 C 0.65504 0.12231 0.20804 0.0
C1414 C 0.60637 0.15743 0.17066 0.0
C1415 C 0.66035 0.08454 0.18862 0.0
H1416 H 0.5858 0.06911 0.14436 0.0
H1417 H 0.64712 0.10405 0.11962 0.0
H1418 H 0.60236 0.07999 0.18875 0.0
H1419 H 0.58317 0.10524 0.18235 0.0
H1420 H 0.57654 0.07417 0.17465 0.0
H1421 H 0.67372 0.1301 0.13521 0.0
H1422 H 0.65828 0.14841 0.15186 0.0
H1423 H 0.67682 0.12281 0.15857 0.0
H1424 H 0.62137 0.17483 0.20253 0.0
H1425 H 0.66732 0.11366 0.21746 0.0
H1426 H 0.59038 0.14546 0.16811 0.0
H1427 H 0.61565 0.16025 0.15769 0.0
H1428 H 0.59999 0.17579 0.17563 0.0
H1429 H 0.64586 0.07057 0.18643 0.0
H1430 H 0.67199 0.07809 0.19978 0.0
H1431 H 0.67143 0.0852 0.17629 0.0
C1432 C 0.92868 0.13346 0.38694 0.0
C1433 C 0.91871 0.11775 0.37394 0.0
C1434 C 0.91541 0.14015 0.40216 0.0
C1435 C 0.89158 0.13096 0.4044 0.0
C1436 C 0.8815 0.11493 0.3914 0.0
C1437 C 0.89517 0.10853 0.37633 0.0
C1438 C 0.92679 0.15721 0.41579 0.0
C1439 C 0.85611 0.10484 0.39328 0.0
C1440 C 0.86383 0.13134 0.45074 0.0
C1441 C 0.84938 0.15283 0.45013 0.0
C1442 C 0.87768 0.124 0.43595 0.0
C1443 C 0.87702 0.13846 0.42018 0.0
C1444 C 0.86234 0.16005 0.41942 0.0
C1445 C 0.84871 0.16698 0.43441 0.0
C1446 C 0.89311 0.10085 0.43724 0.0
C1447 C 0.86111 0.17588 0.4028 0.0
H1448 H 0.94694 0.14044 0.38523 0.0
H1449 H 0.88721 0.09671 0.36619 0.0
H1450 H 0.91593 0.1745 0.41706 0.0
H1451 H 0.92691 0.14807 0.42906 0.0
H1452 H 0.94565 0.16238 0.41223 0.0
H1453 H 0.85116 0.0921 0.3822 0.0
H1454 H 0.85427 0.09461 0.40607 0.0
H1455 H 0.84297 0.12046 0.39358 0.0
H1456 H 0.86448 0.1203 0.46283 0.0
H1457 H 0.8376 0.1836 0.43381 0.0
H1458 H 0.91236 0.10564 0.43482 0.0
H1459 H 0.88769 0.08731 0.4268 0.0
H1460 H 0.89161 0.09166 0.45047 0.0
H1461 H 0.8794 0.18295 0.3994 0.0
H1462 H 0.84871 0.19203 0.40435 0.0
H1463 H 0.85485 0.16447 0.39136 0.0
C1464 C 0.8992 0.40022 0.63893 0.0
C1465 C 0.92371 0.4069 0.64001 0.0
C1466 C 0.88549 0.3958 0.65435 0.0
C1467 C 0.89661 0.39786 0.67127 0.0
C1468 C 0.92106 0.40553 0.67251 0.0
C1469 C 0.93429 0.41004 0.65686 0.0
C1470 C 0.85943 0.38777 0.65247 0.0
C1471 C 0.93353 0.40791 0.69034 0.0
C1472 C 0.85649 0.39883 0.71249 0.0
C1473 C 0.85709 0.37372 0.71769 0.0
C1474 C 0.86939 0.40707 0.69746 0.0
C1475 C 0.8833 0.38982 0.68751 0.0
C1476 C 0.88415 0.36453 0.69281 0.0
C1477 C 0.87099 0.35679 0.70779 0.0
C1478 C 0.86793 0.43414 0.69209 0.0
C1479 C 0.89887 0.34557 0.68259 0.0
H1480 H 0.89091 0.39739 0.62599 0.0
H1481 H 0.9531 0.41559 0.65782 0.0
H1482 H 0.85755 0.36805 0.65668 0.0
H1483 H 0.84762 0.3991 0.66128 0.0
H1484 H 0.85281 0.3895 0.63854 0.0
H1485 H 0.95196 0.416 0.6891 0.0
H1486 H 0.9227 0.41977 0.69946 0.0
H1487 H 0.93507 0.38926 0.69662 0.0
H1488 H 0.84576 0.41201 0.72006 0.0
H1489 H 0.87164 0.33737 0.71174 0.0
H1490 H 0.86005 0.43571 0.67853 0.0
H1491 H 0.88633 0.44235 0.69153 0.0
H1492 H 0.85673 0.44529 0.70145 0.0
H1493 H 0.89216 0.34424 0.66869 0.0
H1494 H 0.89806 0.32675 0.68873 0.0
H1495 H 0.91807 0.35153 0.68195 0.0
C1496 C 0.56563 0.13128 0.37303 0.0
C1497 C 0.57603 0.11565 0.38591 0.0
C1498 C 0.57889 0.13904 0.35807 0.0
C1499 C 0.60313 0.131 0.35596 0.0
C1500 C 0.61365 0.11502 0.36881 0.0
C1501 C 0.59998 0.10757 0.38363 0.0
C1502 C 0.56708 0.15605 0.3446 0.0
C1503 C 0.63947 0.10613 0.36706 0.0
C1504 C 0.63238 0.13428 0.31018 0.0
C1505 C 0.64612 0.15619 0.31154 0.0
C1506 C 0.6182 0.12591 0.32451 0.0
C1507 C 0.61775 0.13978 0.34056 0.0
C1508 C 0.63157 0.16188 0.34202 0.0
C1509 C 0.64559 0.16981 0.3275 0.0
C1510 C 0.60372 0.10222 0.32249 0.0
C1511 C 0.63156 0.17714 0.35894 0.0
H1512 H 0.54706 0.13738 0.37465 0.0
H1513 H 0.60827 0.09584 0.39368 0.0
H1514 H 0.57716 0.17389 0.34383 0.0
H1515 H 0.56771 0.14744 0.33116 0.0
H1516 H 0.54792 0.16017 0.34799 0.0
H1517 H 0.64469 0.09314 0.37793 0.0
H1518 H 0.64205 0.09656 0.35409 0.0
H1519 H 0.65195 0.12232 0.36729 0.0
H1520 H 0.63266 0.12366 0.2979 0.0
H1521 H 0.65611 0.18677 0.32866 0.0
H1522 H 0.58425 0.10608 0.32481 0.0
H1523 H 0.60949 0.08844 0.33266 0.0
H1524 H 0.60584 0.09374 0.30907 0.0
H1525 H 0.61286 0.1831 0.36221 0.0
H1526 H 0.64316 0.19398 0.35787 0.0
H1527 H 0.63813 0.16565 0.37025 0.0
C1528 C 0.86446 0.09066 0.62877 0.0
C1529 C 0.88327 0.07329 0.63036 0.0
C1530 C 0.85954 0.10224 0.61241 0.0
C1531 C 0.87357 0.09602 0.59724 0.0
C1532 C 0.89238 0.07823 0.59872 0.0
C1533 C 0.89713 0.0672 0.61533 0.0
C1534 C 0.83955 0.12138 0.61141 0.0
C1535 C 0.90747 0.07087 0.58278 0.0
C1536 C 0.84558 0.11062 0.55224 0.0
C1537 C 0.85738 0.13284 0.54764 0.0
C1538 C 0.8511 0.09811 0.56815 0.0
C1539 C 0.86857 0.10828 0.57986 0.0
C1540 C 0.88072 0.13058 0.57522 0.0
C1541 C 0.87511 0.1425 0.55908 0.0
C1542 C 0.83803 0.07417 0.57254 0.0
C1543 C 0.89923 0.14217 0.58748 0.0
H1544 H 0.85394 0.0956 0.64046 0.0
H1545 H 0.91158 0.05364 0.61655 0.0
H1546 H 0.847 0.13949 0.60686 0.0
H1547 H 0.82579 0.11553 0.6015 0.0
H1548 H 0.83044 0.1242 0.62446 0.0
H1549 H 0.92106 0.05634 0.5861 0.0
H1550 H 0.8956 0.06374 0.572 0.0
H1551 H 0.91707 0.08741 0.57744 0.0
H1552 H 0.83196 0.10298 0.5434 0.0
H1553 H 0.8842 0.15974 0.55564 0.0
H1554 H 0.8271 0.07665 0.58482 0.0
H1555 H 0.85129 0.0591 0.57521 0.0
H1556 H 0.82583 0.06809 0.5616 0.0
H1557 H 0.89063 0.14695 0.60041 0.0
H1558 H 0.90737 0.15932 0.58176 0.0
H1559 H 0.91392 0.12866 0.59032 0.0
C1560 C 0.88905 0.3827 0.88542 0.0
C1561 C 0.9099 0.36995 0.89093 0.0
C1562 C 0.87711 0.37623 0.86959 0.0
C1563 C 0.88624 0.35653 0.85902 0.0
C1564 C 0.90742 0.34372 0.8644 0.0
C1565 C 0.91898 0.35056 0.88033 0.0
C1566 C 0.85451 0.39025 0.86433 0.0
C1567 C 0.91775 0.3227 0.8534 0.0
C1568 C 0.8427 0.32414 0.82749 0.0
C1569 C 0.84838 0.33541 0.81114 0.0
C1570 C 0.85496 0.33077 0.84316 0.0
C1571 C 0.87337 0.34908 0.84246 0.0
C1572 C 0.87922 0.36051 0.82601 0.0
C1573 C 0.86664 0.35356 0.81055 0.0
C1574 C 0.84817 0.31824 0.86049 0.0
C1575 C 0.89875 0.38011 0.82475 0.0
H1576 H 0.88173 0.39744 0.8937 0.0
H1577 H 0.93521 0.34081 0.88446 0.0
H1578 H 0.85675 0.39843 0.85085 0.0
H1579 H 0.83894 0.37723 0.8637 0.0
H1580 H 0.85006 0.40544 0.87384 0.0
H1581 H 0.93459 0.31494 0.85927 0.0
H1582 H 0.90426 0.30749 0.85221 0.0
H1583 H 0.92178 0.32934 0.8397 0.0
H1584 H 0.82863 0.3101 0.82807 0.0
H1585 H 0.87118 0.36235 0.79797 0.0
H1586 H 0.84206 0.3324 0.87029 0.0
H1587 H 0.8642 0.3088 0.86627 0.0
H1588 H 0.83353 0.30427 0.85875 0.0
H1589 H 0.89411 0.39618 0.83341 0.0
H1590 H 0.90133 0.38697 0.8109 0.0
H1591 H 0.91618 0.37243 0.82963 0.0
C1592 C 0.57587 0.42078 0.11398 0.0
C1593 C 0.58118 0.40676 0.12926 0.0
C1594 C 0.58239 0.41218 0.09696 0.0
C1595 C 0.5947 0.38916 0.09526 0.0
C1596 C 0.60007 0.37494 0.11066 0.0
C1597 C 0.59318 0.38389 0.12746 0.0
C1598 C 0.57619 0.42772 0.08082 0.0
C1599 C 0.6134 0.35043 0.1094 0.0
C1600 C 0.59547 0.35421 0.05126 0.0
C1601 C 0.61846 0.3603 0.04463 0.0
C1602 C 0.58723 0.36399 0.06752 0.0
C1603 C 0.60244 0.38005 0.07744 0.0
C1604 C 0.6255 0.38656 0.0707 0.0
C1605 C 0.6332 0.37669 0.05434 0.0
C1606 C 0.56244 0.35679 0.07425 0.0
C1607 C 0.6423 0.40348 0.08097 0.0
H1608 H 0.56642 0.43838 0.11534 0.0
H1609 H 0.59761 0.37318 0.13928 0.0
H1610 H 0.59299 0.43313 0.0737 0.0
H1611 H 0.5651 0.41664 0.07138 0.0
H1612 H 0.56607 0.4449 0.08439 0.0
H1613 H 0.61597 0.34155 0.12265 0.0
H1614 H 0.60331 0.33735 0.1007 0.0
H1615 H 0.63143 0.35338 0.10324 0.0
H1616 H 0.58393 0.34166 0.04379 0.0
H1617 H 0.651 0.38146 0.04932 0.0
H1618 H 0.55166 0.37373 0.0772 0.0
H1619 H 0.56417 0.34618 0.08688 0.0
H1620 H 0.55235 0.34519 0.06449 0.0
H1621 H 0.63319 0.42144 0.0839 0.0
H1622 H 0.65933 0.40738 0.0736 0.0
H1623 H 0.64696 0.3948 0.09395 0.0
loop_
_geom_bond_atom_site_label_1
_geom_bond_atom_site_label_2
_geom_bond_distance
_geom_bond_site_symmetry_2
_ccdc_geom_bond_type
H0 C27 0.929 . S
N1 C26 1.433 . S
N1 C32 1.435 . S
N1 C38 1.423 . S
H2 C28 0.930 . S
H3 C31 0.931 . S
H4 C30 0.929 . S
H5 C33 0.930 . S
H6 C34 0.932 . S
H7 C37 0.929 . S
H8 C36 0.931 . S
H9 C39 0.929 . S
H10 C43 0.932 . S
H11 C40 0.931 . S
H12 C42 0.929 . S
H13 C45 0.929 . S
H14 C46 0.930 . S
H15 C48 0.929 . S
H16 C49 0.931 . S
H17 C51 0.930 . S
H18 C52 0.932 . S
H19 C54 0.931 . S
H20 C55 0.929 . S
H21 C57 0.929 . S
H22 C58 0.931 1_455 S
H23 C60 0.929 . S
N24 C44 1.433 . S
N24 C50 1.435 . S
N24 C56 1.423 . S
H25 C61 0.932 . S
C26 N1 1.433 . S
C26 C27 1.363 . S
C26 C31 1.370 . S
C27 H0 0.929 . S
C27 C26 1.363 . S
C27 C28 1.385 . S
C28 H2 0.930 . S
C28 C27 1.385 . S
C28 C29 1.357 . S
C29 C28 1.357 . S
C29 C30 1.406 . S
C30 H4 0.929 . S
C30 C29 1.406 . S
C30 C31 1.391 . S
C31 H3 0.931 . S
C31 C26 1.370 . S
C31 C30 1.391 . S
C32 N1 1.435 . S
C32 C33 1.358 . S
C32 C37 1.371 . S
C33 H5 0.930 . S
C33 C32 1.358 . S
C33 C34 1.405 . S
C34 H6 0.932 . S
C34 C33 1.405 . S
C34 C35 1.383 . S
C35 C34 1.383 . S
C35 C36 1.393 . S
C36 H8 0.931 . S
C36 C35 1.393 . S
C36 C37 1.382 . S
C37 H7 0.929 . S
C37 C32 1.371 . S
C37 C36 1.382 . S
C38 N1 1.423 . S
C38 C39 1.362 . S
C38 C43 1.388 . S
C39 H9 0.929 . S
C39 C38 1.362 . S
C39 C40 1.376 1_565 S
C40 H11 0.931 . S
C40 C39 1.376 1_545 S
C40 C41 1.396 . S
C41 C40 1.396 . S
C41 C42 1.348 1_545 S
C41 C59 1.473 1_455 S
C42 H12 0.929 . S
C42 C41 1.348 1_565 S
C42 C43 1.443 . S
C43 H10 0.932 . S
C43 C38 1.388 . S
C43 C42 1.443 . S
C44 N24 1.433 . S
C44 C45 1.363 . S
C44 C49 1.370 . S
C45 H13 0.929 . S
C45 C44 1.363 . S
C45 C46 1.385 . S
C46 H14 0.930 . S
C46 C45 1.385 . S
C46 C47 1.357 . S
C47 C46 1.357 . S
C47 C48 1.406 . S
C48 H15 0.929 . S
C48 C47 1.406 . S
C48 C49 1.391 . S
C49 H16 0.931 . S
C49 C44 1.370 . S
C49 C48 1.391 . S
C50 N24 1.435 . S
C50 C51 1.358 . S
C50 C55 1.371 . S
C51 H17 0.930 . S
C51 C50 1.358 . S
C51 C52 1.405 . S
C52 H18 0.932 . S
C52 C51 1.405 . S
C52 C53 1.383 . S
C53 C52 1.383 . S
C53 C54 1.393 . S
C54 H19 0.931 . S
C54 C53 1.393 . S
C54 C55 1.382 . S
C55 H20 0.929 . S
C55 C50 1.371 . S
C55 C54 1.382 . S
C56 N24 1.423 . S
C56 C57 1.362 . S
C56 C61 1.388 . S
C57 H21 0.929 . S
C57 C56 1.362 . S
C57 C58 1.376 . S
C58 H22 0.931 1_655 S
C58 C57 1.376 . S
C58 C59 1.396 . S
C59 C41 1.473 1_655 S
C59 C58 1.396 . S
C59 C60 1.347 . S
C60 H23 0.929 . S
C60 C59 1.347 . S
C60 C61 1.443 . S
C61 H25 0.932 . S
C61 C56 1.388 . S
C61 C60 1.443 . S
H62 C89 0.929 . S
N63 C88 1.433 . S
N63 C94 1.435 . S
N63 C100 1.423 . S
H64 C90 0.930 . S
H65 C93 0.931 . S
H66 C92 0.929 . S
H67 C95 0.930 . S
H68 C96 0.932 . S
H69 C99 0.929 . S
H70 C98 0.931 . S
H71 C101 0.929 . S
H72 C105 0.932 . S
H73 C102 0.931 . S
H74 C104 0.929 . S
H75 C107 0.929 . S
H76 C108 0.930 . S
H77 C110 0.929 . S
H78 C111 0.931 . S
H79 C113 0.930 . S
H80 C114 0.932 . S
H81 C116 0.931 . S
H82 C117 0.929 . S
H83 C119 0.929 . S
H84 C120 0.931 . S
H85 C122 0.929 . S
N86 C106 1.433 . S
N86 C112 1.435 . S
N86 C118 1.423 . S
H87 C123 0.932 . S
C88 N63 1.433 . S
C88 C89 1.363 . S
C88 C93 1.370 . S
C89 H62 0.929 . S
C89 C88 1.363 . S
C89 C90 1.385 . S
C90 H64 0.930 . S
C90 C89 1.385 . S
C90 C91 1.357 . S
C91 C90 1.357 . S
C91 C92 1.406 . S
C92 H66 0.929 . S
C92 C91 1.406 . S
C92 C93 1.391 . S
C93 H65 0.931 . S
C93 C88 1.370 . S
C93 C92 1.391 . S
C94 N63 1.435 . S
C94 C95 1.358 . S
C94 C99 1.371 . S
C95 H67 0.930 . S
C95 C94 1.358 . S
C95 C96 1.405 . S
C96 H68 0.932 . S
C96 C95 1.405 . S
C96 C97 1.383 . S
C97 C96 1.383 . S
C97 C98 1.393 . S
C98 H70 0.931 . S
C98 C97 1.393 . S
C98 C99 1.382 . S
C99 H69 0.929 . S
C99 C94 1.371 . S
C99 C98 1.382 . S
C100 N63 1.423 . S
C100 C101 1.362 . S
C100 C105 1.388 . S
C101 H71 0.929 . S
C101 C100 1.362 . S
C101 C102 1.376 1_655 S
C102 H73 0.931 . S
C102 C101 1.376 1_455 S
C102 C103 1.396 . S
C103 C102 1.396 . S
C103 C104 1.348 1_455 S
C103 C121 1.472 . S
C104 H74 0.929 . S
C104 C103 1.348 1_655 S
C104 C105 1.443 . S
C105 H72 0.932 . S
C105 C100 1.388 . S
C105 C104 1.443 . S
C106 N86 1.433 . S
C106 C107 1.363 . S
C106 C111 1.370 . S
C107 H75 0.929 . S
C107 C106 1.363 . S
C107 C108 1.385 . S
C108 H76 0.930 . S
C108 C107 1.385 . S
C108 C109 1.357 . S
C109 C108 1.357 . S
C109 C110 1.406 . S
C110 H77 0.929 . S
C110 C109 1.406 . S
C110 C111 1.391 . S
C111 H78 0.931 . S
C111 C106 1.370 . S
C111 C110 1.391 . S
C112 N86 1.435 . S
C112 C113 1.358 . S
C112 C117 1.371 . S
C113 H79 0.930 . S
C113 C112 1.358 . S
C113 C114 1.405 . S
C114 H80 0.932 . S
C114 C113 1.405 . S
C114 C115 1.383 . S
C115 C114 1.383 . S
C115 C116 1.393 . S
C116 H81 0.931 . S
C116 C115 1.393 . S
C116 C117 1.382 . S
C117 H82 0.929 . S
C117 C112 1.371 . S
C117 C116 1.382 . S
C118 N86 1.423 . S
C118 C119 1.362 . S
C118 C123 1.388 . S
C119 H83 0.929 . S
C119 C118 1.362 . S
C119 C120 1.376 . S
C120 H84 0.931 . S
C120 C119 1.376 . S
C120 C121 1.396 . S
C121 C103 1.472 . S
C121 C120 1.396 . S
C121 C122 1.348 . S
C122 H85 0.929 . S
C122 C121 1.348 . S
C122 C123 1.443 . S
C123 H87 0.932 . S
C123 C118 1.388 . S
C123 C122 1.443 . S
H124 C151 0.929 . S
N125 C150 1.433 . S
N125 C156 1.435 . S
N125 C162 1.423 . S
H126 C152 0.930 . S
H127 C155 0.931 . S
H128 C154 0.929 . S
H129 C157 0.930 . S
H130 C158 0.932 . S
H131 C161 0.929 . S
H132 C160 0.931 . S
H133 C163 0.929 . S
H134 C167 0.932 . S
H135 C164 0.931 . S
H136 C166 0.929 . S
H137 C169 0.929 . S
H138 C170 0.930 . S
H139 C172 0.929 . S
H140 C173 0.931 . S
H141 C175 0.930 . S
H142 C176 0.932 . S
H143 C178 0.931 . S
H144 C179 0.929 . S
H145 C181 0.929 . S
H146 C182 0.931 . S
H147 C184 0.929 . S
N148 C168 1.433 . S
N148 C174 1.435 . S
N148 C180 1.423 . S
H149 C185 0.932 . S
C150 N125 1.433 . S
C150 C151 1.363 . S
C150 C155 1.370 . S
C151 H124 0.929 . S
C151 C150 1.363 . S
C151 C152 1.385 . S
C152 H126 0.930 . S
C152 C151 1.385 . S
C152 C153 1.357 . S
C153 C152 1.357 . S
C153 C154 1.406 . S
C154 H128 0.929 . S
C154 C153 1.406 . S
C154 C155 1.391 . S
C155 H127 0.931 . S
C155 C150 1.370 . S
C155 C154 1.391 . S
C156 N125 1.435 . S
C156 C157 1.358 . S
C156 C161 1.371 . S
C157 H129 0.930 . S
C157 C156 1.358 . S
C157 C158 1.405 . S
C158 H130 0.932 . S
C158 C157 1.405 . S
C158 C159 1.383 . S
C159 C158 1.383 . S
C159 C160 1.393 . S
C160 H132 0.931 . S
C160 C159 1.393 . S
C160 C161 1.382 . S
C161 H131 0.929 . S
C161 C156 1.371 . S
C161 C160 1.382 . S
C162 N125 1.423 . S
C162 C163 1.362 . S
C162 C167 1.388 . S
C163 H133 0.929 . S
C163 C162 1.362 . S
C163 C164 1.376 . S
C164 H135 0.931 . S
C164 C163 1.376 . S
C164 C165 1.396 . S
C165 C164 1.396 . S
C165 C166 1.348 . S
C165 C183 1.472 . S
C166 H136 0.929 . S
C166 C165 1.348 . S
C166 C167 1.443 . S
C167 H134 0.932 . S
C167 C162 1.388 . S
C167 C166 1.443 . S
C168 N148 1.433 . S
C168 C169 1.363 . S
C168 C173 1.370 . S
C169 H137 0.929 . S
C169 C168 1.363 . S
C169 C170 1.385 . S
C170 H138 0.930 . S
C170 C169 1.385 . S
C170 C171 1.357 . S
C171 C170 1.357 . S
C171 C172 1.406 . S
C172 H139 0.929 . S
C172 C171 1.406 . S
C172 C173 1.391 . S
C173 H140 0.931 . S
C173 C168 1.370 . S
C173 C172 1.391 . S
C174 N148 1.435 . S
C174 C175 1.358 . S
C174 C179 1.371 . S
C175 H141 0.930 . S
C175 C174 1.358 . S
C175 C176 1.405 . S
C176 H142 0.932 . S
C176 C175 1.405 . S
C176 C177 1.383 . S
C177 C176 1.383 . S
C177 C178 1.393 . S
C178 H143 0.931 . S
C178 C177 1.393 . S
C178 C179 1.382 . S
C179 H144 0.929 . S
C179 C174 1.371 . S
C179 C178 1.382 . S
C180 N148 1.423 . S
C180 C181 1.362 . S
C180 C185 1.388 . S
C181 H145 0.929 . S
C181 C180 1.362 . S
C181 C182 1.376 . S
C182 H146 0.931 . S
C182 C181 1.376 . S
C182 C183 1.396 . S
C183 C165 1.472 . S
C183 C182 1.396 . S
C183 C184 1.348 . S
C184 H147 0.929 . S
C184 C183 1.348 . S
C184 C185 1.443 . S
C185 H149 0.932 . S
C185 C180 1.388 . S
C185 C184 1.443 . S
H186 C213 0.929 . S
N187 C212 1.433 . S
N187 C218 1.435 . S
N187 C224 1.423 . S
H188 C214 0.930 . S
H189 C217 0.931 . S
H190 C216 0.929 . S
H191 C219 0.930 . S
H192 C220 0.932 . S
H193 C223 0.929 . S
H194 C222 0.931 . S
H195 C225 0.929 . S
H196 C229 0.932 . S
H197 C226 0.931 . S
H198 C228 0.929 . S
H199 C231 0.929 . S
H200 C232 0.930 . S
H201 C234 0.929 . S
H202 C235 0.931 . S
H203 C237 0.930 . S
H204 C238 0.932 . S
H205 C240 0.931 . S
H206 C241 0.929 . S
H207 C243 0.929 . S
H208 C244 0.931 1_565 S
H209 C246 0.929 . S
N210 C230 1.433 . S
N210 C236 1.435 . S
N210 C242 1.423 . S
H211 C247 0.932 . S
C212 N187 1.433 . S
C212 C213 1.363 . S
C212 C217 1.370 . S
C213 H186 0.929 . S
C213 C212 1.363 . S
C213 C214 1.385 . S
C214 H188 0.930 . S
C214 C213 1.385 . S
C214 C215 1.357 . S
C215 C214 1.357 . S
C215 C216 1.406 . S
C216 H190 0.929 . S
C216 C215 1.406 . S
C216 C217 1.391 . S
C217 H189 0.931 . S
C217 C212 1.370 . S
C217 C216 1.391 . S
C218 N187 1.435 . S
C218 C219 1.358 . S
C218 C223 1.371 . S
C219 H191 0.930 . S
C219 C218 1.358 . S
C219 C220 1.405 . S
C220 H192 0.932 . S
C220 C219 1.405 . S
C220 C221 1.383 . S
C221 C220 1.383 . S
C221 C222 1.393 . S
C222 H194 0.931 . S
C222 C221 1.393 . S
C222 C223 1.382 . S
C223 H193 0.929 . S
C223 C218 1.371 . S
C223 C222 1.382 . S
C224 N187 1.423 . S
C224 C225 1.362 . S
C224 C229 1.388 . S
C225 H195 0.929 . S
C225 C224 1.362 . S
C225 C226 1.376 . S
C226 H197 0.931 . S
C226 C225 1.376 . S
C226 C227 1.396 . S
C227 C226 1.396 . S
C227 C228 1.348 . S
C227 C245 1.489 . S
C228 H198 0.929 . S
C228 C227 1.348 . S
C228 C229 1.443 . S
C229 H196 0.932 . S
C229 C224 1.388 . S
C229 C228 1.443 . S
C230 N210 1.433 . S
C230 C231 1.363 . S
C230 C235 1.370 . S
C231 H199 0.929 . S
C231 C230 1.363 . S
C231 C232 1.385 . S
C232 H200 0.930 . S
C232 C231 1.385 . S
C232 C233 1.357 . S
C233 C232 1.357 . S
C233 C234 1.406 . S
C234 H201 0.929 . S
C234 C233 1.406 . S
C234 C235 1.391 . S
C235 H202 0.931 . S
C235 C230 1.370 . S
C235 C234 1.391 . S
C236 N210 1.435 . S
C236 C237 1.358 . S
C236 C241 1.371 . S
C237 H203 0.930 . S
C237 C236 1.358 . S
C237 C238 1.405 . S
C238 H204 0.932 . S
C238 C237 1.405 . S
C238 C239 1.383 . S
C239 C238 1.383 . S
C239 C240 1.393 . S
C240 H205 0.931 . S
C240 C239 1.393 . S
C240 C241 1.382 . S
C241 H206 0.929 . S
C241 C236 1.371 . S
C241 C240 1.382 . S
C242 N210 1.423 . S
C242 C243 1.362 . S
C242 C247 1.388 . S
C243 H207 0.929 . S
C243 C242 1.362 . S
C243 C244 1.376 . S
C244 H208 0.931 1_545 S
C244 C243 1.376 . S
C244 C245 1.394 1_545 S
C245 C227 1.489 . S
C245 C244 1.394 1_565 S
C245 C246 1.332 1_565 S
C246 H209 0.929 . S
C246 C245 1.332 1_545 S
C246 C247 1.443 . S
C247 H211 0.932 . S
C247 C242 1.388 . S
C247 C246 1.443 . S
H248 C275 0.929 . S
N249 C274 1.433 . S
N249 C280 1.435 . S
N249 C286 1.423 . S
H250 C276 0.930 . S
H251 C279 0.931 . S
H252 C278 0.929 . S
H253 C281 0.930 . S
H254 C282 0.932 . S
H255 C285 0.929 . S
H256 C284 0.931 . S
H257 C287 0.929 . S
H258 C291 0.932 . S
H259 C288 0.931 . S
H260 C290 0.929 . S
H261 C293 0.929 . S
H262 C294 0.930 . S
H263 C296 0.929 . S
H264 C297 0.931 . S
H265 C299 0.930 . S
H266 C300 0.932 . S
H267 C302 0.931 . S
H268 C303 0.929 . S
H269 C305 0.929 . S
H270 C306 0.931 1_455 S
H271 C308 0.929 . S
N272 C292 1.433 . S
N272 C298 1.435 . S
N272 C304 1.423 . S
H273 C309 0.932 . S
C274 N249 1.433 . S
C274 C275 1.363 . S
C274 C279 1.370 . S
C275 H248 0.929 . S
C275 C274 1.363 . S
C275 C276 1.385 . S
C276 H250 0.930 . S
C276 C275 1.385 . S
C276 C277 1.357 . S
C277 C276 1.357 . S
C277 C278 1.406 . S
C278 H252 0.929 . S
C278 C277 1.406 . S
C278 C279 1.391 . S
C279 H251 0.931 . S
C279 C274 1.370 . S
C279 C278 1.391 . S
C280 N249 1.435 . S
C280 C281 1.358 . S
C280 C285 1.371 . S
C281 H253 0.930 . S
C281 C280 1.358 . S
C281 C282 1.405 . S
C282 H254 0.932 . S
C282 C281 1.405 . S
C282 C283 1.383 . S
C283 C282 1.383 . S
C283 C284 1.393 . S
C284 H256 0.931 . S
C284 C283 1.393 . S
C284 C285 1.382 . S
C285 H255 0.929 . S
C285 C280 1.371 . S
C285 C284 1.382 . S
C286 N249 1.423 . S
C286 C287 1.362 . S
C286 C291 1.388 . S
C287 H257 0.929 . S
C287 C286 1.362 . S
C287 C288 1.376 . S
C288 H259 0.931 . S
C288 C287 1.376 . S
C288 C289 1.396 . S
C289 C288 1.396 . S
C289 C290 1.348 . S
C289 C307 1.473 1_455 S
C290 H260 0.929 . S
C290 C289 1.348 . S
C290 C291 1.443 . S
C291 H258 0.932 . S
C291 C286 1.388 . S
C291 C290 1.443 . S
C292 N272 1.433 . S
C292 C293 1.363 . S
C292 C297 1.370 . S
C293 H261 0.929 . S
C293 C292 1.363 . S
C293 C294 1.385 . S
C294 H262 0.930 . S
C294 C293 1.385 . S
C294 C295 1.357 . S
C295 C294 1.357 . S
C295 C296 1.406 . S
C296 H263 0.929 . S
C296 C295 1.406 . S
C296 C297 1.391 . S
C297 H264 0.931 . S
C297 C292 1.370 . S
C297 C296 1.391 . S
C298 N272 1.435 . S
C298 C299 1.358 . S
C298 C303 1.371 . S
C299 H265 0.930 . S
C299 C298 1.358 . S
C299 C300 1.405 . S
C300 H266 0.932 . S
C300 C299 1.405 . S
C300 C301 1.383 . S
C301 C300 1.383 . S
C301 C302 1.393 . S
C302 H267 0.931 . S
C302 C301 1.393 . S
C302 C303 1.382 . S
C303 H268 0.929 . S
C303 C298 1.371 . S
C303 C302 1.382 . S
C304 N272 1.423 . S
C304 C305 1.362 . S
C304 C309 1.388 . S
C305 H269 0.929 . S
C305 C304 1.362 . S
C305 C306 1.376 . S
C306 H270 0.931 1_655 S
C306 C305 1.376 . S
C306 C307 1.396 . S
C307 C289 1.473 1_655 S
C307 C306 1.396 . S
C307 C308 1.347 . S
C308 H271 0.929 . S
C308 C307 1.347 . S
C308 C309 1.443 . S
C309 H273 0.932 . S
C309 C304 1.388 . S
C309 C308 1.443 . S
H310 C337 0.929 . S
N311 C336 1.433 . S
N311 C342 1.435 . S
N311 C348 1.423 . S
H312 C338 0.930 . S
H313 C341 0.931 . S
H314 C340 0.929 . S
H315 C343 0.930 . S
H316 C344 0.932 . S
H317 C347 0.929 . S
H318 C346 0.931 . S
H319 C349 0.929 . S
H320 C353 0.932 . S
H321 C350 0.931 . S
H322 C352 0.929 . S
H323 C355 0.929 . S
H324 C356 0.930 . S
H325 C358 0.929 . S
H326 C359 0.931 . S
H327 C361 0.930 . S
H328 C362 0.932 . S
H329 C364 0.931 . S
H330 C365 0.929 . S
H331 C367 0.929 . S
H332 C368 0.931 . S
H333 C370 0.929 . S
N334 C354 1.433 . S
N334 C360 1.435 . S
N334 C366 1.423 . S
H335 C371 0.932 . S
C336 N311 1.433 . S
C336 C337 1.363 . S
C336 C341 1.370 . S
C337 H310 0.929 . S
C337 C336 1.363 . S
C337 C338 1.385 . S
C338 H312 0.930 . S
C338 C337 1.385 . S
C338 C339 1.357 . S
C339 C338 1.357 . S
C339 C340 1.406 . S
C340 H314 0.929 . S
C340 C339 1.406 . S
C340 C341 1.391 . S
C341 H313 0.931 . S
C341 C336 1.370 . S
C341 C340 1.391 . S
C342 N311 1.435 . S
C342 C343 1.358 . S
C342 C347 1.371 . S
C343 H315 0.930 . S
C343 C342 1.358 . S
C343 C344 1.405 . S
C344 H316 0.932 . S
C344 C343 1.405 . S
C344 C345 1.383 . S
C345 C344 1.383 . S
C345 C346 1.393 . S
C346 H318 0.931 . S
C346 C345 1.393 . S
C346 C347 1.382 . S
C347 H317 0.929 . S
C347 C342 1.371 . S
C347 C346 1.382 . S
C348 N311 1.423 . S
C348 C349 1.362 . S
C348 C353 1.388 . S
C349 H319 0.929 . S
C349 C348 1.362 . S
C349 C350 1.376 . S
C350 H321 0.931 . S
C350 C349 1.376 . S
C350 C351 1.396 . S
C351 C350 1.396 . S
C351 C352 1.348 . S
C351 C369 1.472 . S
C352 H322 0.929 . S
C352 C351 1.348 . S
C352 C353 1.443 . S
C353 H320 0.932 . S
C353 C348 1.388 . S
C353 C352 1.443 . S
C354 N334 1.433 . S
C354 C355 1.363 . S
C354 C359 1.370 . S
C355 H323 0.929 . S
C355 C354 1.363 . S
C355 C356 1.385 . S
C356 H324 0.930 . S
C356 C355 1.385 . S
C356 C357 1.357 . S
C357 C356 1.357 . S
C357 C358 1.406 . S
C358 H325 0.929 . S
C358 C357 1.406 . S
C358 C359 1.391 . S
C359 H326 0.931 . S
C359 C354 1.370 . S
C359 C358 1.391 . S
C360 N334 1.435 . S
C360 C361 1.358 . S
C360 C365 1.371 . S
C361 H327 0.930 . S
C361 C360 1.358 . S
C361 C362 1.405 . S
C362 H328 0.932 . S
C362 C361 1.405 . S
C362 C363 1.383 . S
C363 C362 1.383 . S
C363 C364 1.393 . S
C364 H329 0.931 . S
C364 C363 1.393 . S
C364 C365 1.382 . S
C365 H330 0.929 . S
C365 C360 1.371 . S
C365 C364 1.382 . S
C366 N334 1.423 . S
C366 C367 1.362 . S
C366 C371 1.388 . S
C367 H331 0.929 . S
C367 C366 1.362 . S
C367 C368 1.376 . S
C368 H332 0.931 . S
C368 C367 1.376 . S
C368 C369 1.396 . S
C369 C351 1.472 . S
C369 C368 1.396 . S
C369 C370 1.348 . S
C370 H333 0.929 . S
C370 C369 1.348 . S
C370 C371 1.443 . S
C371 H335 0.932 . S
C371 C366 1.388 . S
C371 C370 1.443 . S
H372 C399 0.929 . S
N373 C398 1.433 . S
N373 C404 1.435 . S
N373 C410 1.423 . S
H374 C400 0.930 . S
H375 C403 0.931 . S
H376 C402 0.929 . S
H377 C405 0.930 . S
H378 C406 0.932 . S
H379 C409 0.929 . S
H380 C408 0.931 . S
H381 C411 0.929 . S
H382 C415 0.932 . S
H383 C412 0.931 . S
H384 C414 0.929 . S
H385 C417 0.929 . S
H386 C418 0.930 . S
H387 C420 0.929 . S
H388 C421 0.931 . S
H389 C423 0.930 . S
H390 C424 0.932 . S
H391 C426 0.931 . S
H392 C427 0.929 . S
H393 C429 0.929 . S
H394 C430 0.931 . S
H395 C432 0.929 . S
N396 C416 1.433 . S
N396 C422 1.435 . S
N396 C428 1.423 . S
H397 C433 0.932 . S
C398 N373 1.433 . S
C398 C399 1.363 . S
C398 C403 1.370 . S
C399 H372 0.929 . S
C399 C398 1.363 . S
C399 C400 1.385 . S
C400 H374 0.930 . S
C400 C399 1.385 . S
C400 C401 1.357 . S
C401 C400 1.357 . S
C401 C402 1.406 . S
C402 H376 0.929 . S
C402 C401 1.406 . S
C402 C403 1.391 . S
C403 H375 0.931 . S
C403 C398 1.370 . S
C403 C402 1.391 . S
C404 N373 1.435 . S
C404 C405 1.358 . S
C404 C409 1.371 . S
C405 H377 0.930 . S
C405 C404 1.358 . S
C405 C406 1.405 . S
C406 H378 0.932 . S
C406 C405 1.405 . S
C406 C407 1.383 . S
C407 C406 1.383 . S
C407 C408 1.393 . S
C408 H380 0.931 . S
C408 C407 1.393 . S
C408 C409 1.382 . S
C409 H379 0.929 . S
C409 C404 1.371 . S
C409 C408 1.382 . S
C410 N373 1.423 . S
C410 C411 1.362 . S
C410 C415 1.388 . S
C411 H381 0.929 . S
C411 C410 1.362 . S
C411 C412 1.376 1_565 S
C412 H383 0.931 . S
C412 C411 1.376 1_545 S
C412 C413 1.396 . S
C413 C412 1.396 . S
C413 C414 1.348 1_545 S
C413 C431 1.472 . S
C414 H384 0.929 . S
C414 C413 1.348 1_565 S
C414 C415 1.443 . S
C415 H382 0.932 . S
C415 C410 1.388 . S
C415 C414 1.443 . S
C416 N396 1.433 . S
C416 C417 1.363 . S
C416 C421 1.370 . S
C417 H385 0.929 . S
C417 C416 1.363 . S
C417 C418 1.385 . S
C418 H386 0.930 . S
C418 C417 1.385 . S
C418 C419 1.357 . S
C419 C418 1.357 . S
C419 C420 1.406 . S
C420 H387 0.929 . S
C420 C419 1.406 . S
C420 C421 1.391 . S
C421 H388 0.931 . S
C421 C416 1.370 . S
C421 C420 1.391 . S
C422 N396 1.435 . S
C422 C423 1.358 . S
C422 C427 1.371 . S
C423 H389 0.930 . S
C423 C422 1.358 . S
C423 C424 1.405 . S
C424 H390 0.932 . S
C424 C423 1.405 . S
C424 C425 1.383 . S
C425 C424 1.383 . S
C425 C426 1.393 . S
C426 H391 0.931 . S
C426 C425 1.393 . S
C426 C427 1.382 . S
C427 H392 0.929 . S
C427 C422 1.371 . S
C427 C426 1.382 . S
C428 N396 1.423 . S
C428 C429 1.362 . S
C428 C433 1.388 . S
C429 H393 0.929 . S
C429 C428 1.362 . S
C429 C430 1.376 . S
C430 H394 0.931 . S
C430 C429 1.376 . S
C430 C431 1.396 . S
C431 C413 1.472 . S
C431 C430 1.396 . S
C431 C432 1.348 . S
C432 H395 0.929 . S
C432 C431 1.348 . S
C432 C433 1.443 . S
C433 H397 0.932 . S
C433 C428 1.388 . S
C433 C432 1.443 . S
H434 C461 0.929 . S
N435 C460 1.433 . S
N435 C466 1.435 . S
N435 C472 1.423 . S
H436 C462 0.930 . S
H437 C465 0.931 . S
H438 C464 0.929 . S
H439 C467 0.930 . S
H440 C468 0.932 . S
H441 C471 0.929 . S
H442 C470 0.931 . S
H443 C473 0.929 . S
H444 C477 0.932 . S
H445 C474 0.931 . S
H446 C476 0.929 . S
H447 C479 0.929 . S
H448 C480 0.930 . S
H449 C482 0.929 . S
H450 C483 0.931 . S
H451 C485 0.930 . S
H452 C486 0.932 . S
H453 C488 0.931 . S
H454 C489 0.929 . S
H455 C491 0.929 . S
H456 C492 0.931 1_565 S
H457 C494 0.929 . S
N458 C478 1.433 . S
N458 C484 1.435 . S
N458 C490 1.423 . S
H459 C495 0.932 . S
C460 N435 1.433 . S
C460 C461 1.363 . S
C460 C465 1.370 . S
C461 H434 0.929 . S
C461 C460 1.363 . S
C461 C462 1.385 . S
C462 H436 0.930 . S
C462 C461 1.385 . S
C462 C463 1.357 . S
C463 C462 1.357 . S
C463 C464 1.406 . S
C464 H438 0.929 . S
C464 C463 1.406 . S
C464 C465 1.391 . S
C465 H437 0.931 . S
C465 C460 1.370 . S
C465 C464 1.391 . S
C466 N435 1.435 . S
C466 C467 1.358 . S
C466 C471 1.371 . S
C467 H439 0.930 . S
C467 C466 1.358 . S
C467 C468 1.405 . S
C468 H440 0.932 . S
C468 C467 1.405 . S
C468 C469 1.383 . S
C469 C468 1.383 . S
C469 C470 1.393 . S
C470 H442 0.931 . S
C470 C469 1.393 . S
C470 C471 1.382 . S
C471 H441 0.929 . S
C471 C466 1.371 . S
C471 C470 1.382 . S
C472 N435 1.423 . S
C472 C473 1.362 . S
C472 C477 1.388 . S
C473 H443 0.929 . S
C473 C472 1.362 . S
C473 C474 1.376 1_455 S
C474 H445 0.931 . S
C474 C473 1.376 1_655 S
C474 C475 1.396 . S
C475 C474 1.396 . S
C475 C476 1.348 1_655 S
C475 C493 1.489 . S
C476 H446 0.929 . S
C476 C475 1.348 1_455 S
C476 C477 1.443 . S
C477 H444 0.932 . S
C477 C472 1.388 . S
C477 C476 1.443 . S
C478 N458 1.433 . S
C478 C479 1.363 . S
C478 C483 1.370 . S
C479 H447 0.929 . S
C479 C478 1.363 . S
C479 C480 1.385 . S
C480 H448 0.930 . S
C480 C479 1.385 . S
C480 C481 1.357 . S
C481 C480 1.357 . S
C481 C482 1.406 . S
C482 H449 0.929 . S
C482 C481 1.406 . S
C482 C483 1.391 . S
C483 H450 0.931 . S
C483 C478 1.370 . S
C483 C482 1.391 . S
C484 N458 1.435 . S
C484 C485 1.358 . S
C484 C489 1.371 . S
C485 H451 0.930 . S
C485 C484 1.358 . S
C485 C486 1.405 . S
C486 H452 0.932 . S
C486 C485 1.405 . S
C486 C487 1.383 . S
C487 C486 1.383 . S
C487 C488 1.393 . S
C488 H453 0.931 . S
C488 C487 1.393 . S
C488 C489 1.382 . S
C489 H454 0.929 . S
C489 C484 1.371 . S
C489 C488 1.382 . S
C490 N458 1.423 . S
C490 C491 1.362 . S
C490 C495 1.388 . S
C491 H455 0.929 . S
C491 C490 1.362 . S
C491 C492 1.376 . S
C492 H456 0.931 1_545 S
C492 C491 1.376 . S
C492 C493 1.394 1_545 S
C493 C475 1.489 . S
C493 C492 1.394 1_565 S
C493 C494 1.332 1_565 S
C494 H457 0.929 . S
C494 C493 1.332 1_545 S
C494 C495 1.443 . S
C495 H459 0.932 . S
C495 C490 1.388 . S
C495 C494 1.443 . S
C496 O497 1.160 . S
C496 O503 1.185 . S
O497 C496 1.160 . S
O498 Zn499 1.899 . S
O498 C506 1.284 . S
Zn499 O498 1.899 . S
Zn499 O500 2.032 1_554 S
Zn499 O503 2.086 . S
Zn499 O508 1.977 . S
O500 Zn499 2.032 1_556 S
O500 C504 1.278 . S
C501 O502 1.203 . S
C501 O508 1.267 . S
O502 C501 1.203 . S
O503 C496 1.185 . S
O503 Zn499 2.086 . S
C504 O500 1.278 . S
C504 O505 1.211 . S
O505 C504 1.211 . S
C506 O498 1.284 . S
C506 O507 1.273 . S
O507 C506 1.273 . S
O508 Zn499 1.977 . S
O508 C501 1.267 . S
C509 O510 1.160 . S
C509 O516 1.185 . S
O510 C509 1.160 . S
O511 Zn512 1.899 . S
O511 C519 1.284 . S
Zn512 O511 1.899 . S
Zn512 O513 2.032 . S
Zn512 O516 2.086 . S
Zn512 O521 1.977 . S
O513 Zn512 2.032 . S
O513 C517 1.278 . S
C514 O515 1.203 . S
C514 O521 1.267 . S
O515 C514 1.203 . S
O516 C509 1.185 . S
O516 Zn512 2.086 . S
C517 O513 1.278 . S
C517 O518 1.211 . S
O518 C517 1.211 . S
C519 O511 1.284 . S
C519 O520 1.273 . S
O520 C519 1.273 . S
O521 Zn512 1.977 . S
O521 C514 1.267 . S
C522 O523 1.160 . S
C522 O529 1.185 . S
O523 C522 1.160 . S
O524 Zn525 1.899 . S
O524 C532 1.284 . S
Zn525 O524 1.899 . S
Zn525 O526 2.032 . S
Zn525 O529 2.086 . S
Zn525 O534 1.977 . S
O526 Zn525 2.032 . S
O526 C530 1.278 . S
C527 O528 1.203 . S
C527 O534 1.267 . S
O528 C527 1.203 . S
O529 C522 1.185 . S
O529 Zn525 2.086 . S
C530 O526 1.278 . S
C530 O531 1.211 . S
O531 C530 1.211 . S
C532 O524 1.284 . S
C532 O533 1.273 . S
O533 C532 1.273 . S
O534 Zn525 1.977 . S
O534 C527 1.267 . S
C535 O536 1.160 . S
C535 O542 1.185 . S
O536 C535 1.160 . S
O537 Zn538 1.899 . S
O537 C545 1.284 . S
Zn538 O537 1.899 . S
Zn538 O539 2.032 . S
Zn538 O542 2.086 . S
Zn538 O547 1.977 . S
O539 Zn538 2.032 . S
O539 C543 1.278 . S
C540 O541 1.203 . S
C540 O547 1.267 . S
O541 C540 1.203 . S
O542 C535 1.185 . S
O542 Zn538 2.086 . S
C543 O539 1.278 . S
C543 O544 1.211 . S
O544 C543 1.211 . S
C545 O537 1.284 . S
C545 O546 1.273 . S
O546 C545 1.273 . S
O547 Zn538 1.977 . S
O547 C540 1.267 . S
C548 O549 1.160 . S
C548 O555 1.185 . S
O549 C548 1.160 . S
O550 Zn551 1.899 . S
O550 C558 1.284 . S
Zn551 O550 1.899 . S
Zn551 O552 2.032 . S
Zn551 O555 2.086 . S
Zn551 O560 1.977 . S
O552 Zn551 2.032 . S
O552 C556 1.278 . S
C553 O554 1.203 . S
C553 O560 1.267 . S
O554 C553 1.203 . S
O555 C548 1.185 . S
O555 Zn551 2.086 . S
C556 O552 1.278 . S
C556 O557 1.211 . S
O557 C556 1.211 . S
C558 O550 1.284 . S
C558 O559 1.273 . S
O559 C558 1.273 . S
O560 Zn551 1.977 . S
O560 C553 1.267 . S
C561 O562 1.160 . S
C561 O568 1.185 . S
O562 C561 1.160 . S
O563 Zn564 1.899 . S
O563 C571 1.284 . S
Zn564 O563 1.899 . S
Zn564 O565 2.032 . S
Zn564 O568 2.086 . S
Zn564 O573 1.977 . S
O565 Zn564 2.032 . S
O565 C569 1.278 . S
C566 O567 1.203 . S
C566 O573 1.267 . S
O567 C566 1.203 . S
O568 C561 1.185 . S
O568 Zn564 2.086 . S
C569 O565 1.278 . S
C569 O570 1.211 . S
O570 C569 1.211 . S
C571 O563 1.284 . S
C571 O572 1.273 . S
O572 C571 1.273 . S
O573 Zn564 1.977 . S
O573 C566 1.267 . S
C574 O575 1.160 . S
C574 O581 1.185 . S
O575 C574 1.160 . S
O576 Zn577 1.899 . S
O576 C584 1.284 . S
Zn577 O576 1.899 . S
Zn577 O578 2.032 1_554 S
Zn577 O581 2.086 . S
Zn577 O586 1.977 . S
O578 Zn577 2.032 1_556 S
O578 C582 1.278 . S
C579 O580 1.203 . S
C579 O586 1.267 . S
O580 C579 1.203 . S
O581 C574 1.185 . S
O581 Zn577 2.086 . S
C582 O578 1.278 . S
C582 O583 1.211 . S
O583 C582 1.211 . S
C584 O576 1.284 . S
C584 O585 1.273 . S
O585 C584 1.273 . S
O586 Zn577 1.977 . S
O586 C579 1.267 . S
C587 O588 1.160 . S
C587 O594 1.185 . S
O588 C587 1.160 . S
O589 Zn590 1.899 . S
O589 C597 1.284 . S
Zn590 O589 1.899 . S
Zn590 O591 2.032 . S
Zn590 O594 2.086 . S
Zn590 O599 1.977 . S
O591 Zn590 2.032 . S
O591 C595 1.278 . S
C592 O593 1.203 . S
C592 O599 1.267 . S
O593 C592 1.203 . S
O594 C587 1.185 . S
O594 Zn590 2.086 . S
C595 O591 1.278 . S
C595 O596 1.211 . S
O596 C595 1.211 . S
C597 O589 1.284 . S
C597 O598 1.273 . S
O598 C597 1.273 . S
O599 Zn590 1.977 . S
O599 C592 1.267 . S
C600 C601 1.391 . S
C600 C602 1.394 . S
C600 H616 0.931 . S
C601 C600 1.391 . S
C601 C605 1.376 . S
C602 C600 1.394 . S
C602 C603 1.369 . S
C602 C606 1.531 . S
C603 C602 1.369 . S
C603 C604 1.410 . S
C603 C611 1.503 . S
C604 C603 1.410 . S
C604 C605 1.392 . S
C604 C607 1.511 . S
C605 C601 1.376 . S
C605 C604 1.392 . S
C605 H617 0.929 . S
C606 C602 1.531 . S
C606 H618 0.960 . S
C606 H619 0.962 . S
C606 H620 0.960 . S
C607 C604 1.511 . S
C607 H621 0.961 . S
C607 H622 0.961 . S
C607 H623 0.961 . S
C608 C609 1.370 . S
C608 C610 1.363 . S
C608 H624 0.931 . S
C609 C608 1.370 . S
C609 C613 1.408 . S
C610 C608 1.363 . S
C610 C611 1.370 . S
C610 C614 1.524 . S
C611 C603 1.503 . S
C611 C610 1.370 . S
C611 C612 1.403 . S
C612 C611 1.403 . S
C612 C613 1.404 . S
C612 C615 1.539 . S
C613 C609 1.408 . S
C613 C612 1.404 . S
C613 H625 0.930 . S
C614 C610 1.524 . S
C614 H626 0.956 . S
C614 H627 0.961 . S
C614 H628 0.961 . S
C615 C612 1.539 . S
C615 H629 0.958 . S
C615 H630 0.961 . S
C615 H631 0.960 . S
H616 C600 0.931 . S
H617 C605 0.929 . S
H618 C606 0.960 . S
H619 C606 0.962 . S
H620 C606 0.960 . S
H621 C607 0.961 . S
H622 C607 0.961 . S
H623 C607 0.961 . S
H624 C608 0.931 . S
H625 C613 0.930 . S
H626 C614 0.956 . S
H627 C614 0.961 . S
H628 C614 0.961 . S
H629 C615 0.958 . S
H630 C615 0.961 . S
H631 C615 0.960 . S
C632 C633 1.391 . S
C632 C634 1.394 . S
C632 H648 0.931 . S
C633 C632 1.391 . S
C633 C637 1.376 . S
C634 C632 1.394 . S
C634 C635 1.369 . S
C634 C638 1.531 . S
C635 C634 1.369 . S
C635 C636 1.410 . S
C635 C643 1.503 . S
C636 C635 1.410 . S
C636 C637 1.392 . S
C636 C639 1.511 . S
C637 C633 1.376 . S
C637 C636 1.392 . S
C637 H649 0.929 . S
C638 C634 1.531 . S
C638 H650 0.960 . S
C638 H651 0.962 . S
C638 H652 0.960 . S
C639 C636 1.511 . S
C639 H653 0.961 . S
C639 H654 0.961 . S
C639 H655 0.961 . S
C640 C641 1.370 . S
C640 C642 1.363 . S
C640 H656 0.931 . S
C641 C640 1.370 . S
C641 C645 1.408 . S
C642 C640 1.363 . S
C642 C643 1.370 . S
C642 C646 1.524 . S
C643 C635 1.503 . S
C643 C642 1.370 . S
C643 C644 1.403 . S
C644 C643 1.403 . S
C644 C645 1.404 . S
C644 C647 1.539 . S
C645 C641 1.408 . S
C645 C644 1.404 . S
C645 H657 0.930 . S
C646 C642 1.524 . S
C646 H658 0.956 . S
C646 H659 0.961 . S
C646 H660 0.961 . S
C647 C644 1.539 . S
C647 H661 0.958 . S
C647 H662 0.961 . S
C647 H663 0.960 . S
H648 C632 0.931 . S
H649 C637 0.929 . S
H650 C638 0.960 . S
H651 C638 0.962 . S
H652 C638 0.960 . S
H653 C639 0.961 . S
H654 C639 0.961 . S
H655 C639 0.961 . S
H656 C640 0.931 . S
H657 C645 0.930 . S
H658 C646 0.956 . S
H659 C646 0.961 . S
H660 C646 0.961 . S
H661 C647 0.958 . S
H662 C647 0.961 . S
H663 C647 0.960 . S
C664 C665 1.391 . S
C664 C666 1.394 . S
C664 H680 0.931 . S
C665 C664 1.391 . S
C665 C669 1.376 . S
C666 C664 1.394 . S
C666 C667 1.369 . S
C666 C670 1.531 . S
C667 C666 1.369 . S
C667 C668 1.410 . S
C667 C675 1.503 . S
C668 C667 1.410 . S
C668 C669 1.392 . S
C668 C671 1.511 . S
C669 C665 1.376 . S
C669 C668 1.392 . S
C669 H681 0.929 . S
C670 C666 1.531 . S
C670 H682 0.960 . S
C670 H683 0.962 . S
C670 H684 0.960 . S
C671 C668 1.511 . S
C671 H685 0.961 . S
C671 H686 0.961 . S
C671 H687 0.961 . S
C672 C673 1.370 . S
C672 C674 1.363 . S
C672 H688 0.931 . S
C673 C672 1.370 . S
C673 C677 1.408 . S
C674 C672 1.363 . S
C674 C675 1.370 . S
C674 C678 1.524 . S
C675 C667 1.503 . S
C675 C674 1.370 . S
C675 C676 1.403 . S
C676 C675 1.403 . S
C676 C677 1.404 . S
C676 C679 1.539 . S
C677 C673 1.408 . S
C677 C676 1.404 . S
C677 H689 0.930 . S
C678 C674 1.524 . S
C678 H690 0.956 . S
C678 H691 0.961 . S
C678 H692 0.961 . S
C679 C676 1.539 . S
C679 H693 0.958 . S
C679 H694 0.961 . S
C679 H695 0.960 . S
H680 C664 0.931 . S
H681 C669 0.929 . S
H682 C670 0.960 . S
H683 C670 0.962 . S
H684 C670 0.960 . S
H685 C671 0.961 . S
H686 C671 0.961 . S
H687 C671 0.961 . S
H688 C672 0.931 . S
H689 C677 0.930 . S
H690 C678 0.956 . S
H691 C678 0.961 . S
H692 C678 0.961 . S
H693 C679 0.958 . S
H694 C679 0.961 . S
H695 C679 0.960 . S
C696 C697 1.391 . S
C696 C698 1.394 . S
C696 H712 0.931 . S
C697 C696 1.391 . S
C697 C701 1.376 . S
C698 C696 1.394 . S
C698 C699 1.369 . S
C698 C702 1.531 . S
C699 C698 1.369 . S
C699 C700 1.410 . S
C699 C707 1.503 . S
C700 C699 1.410 . S
C700 C701 1.392 . S
C700 C703 1.511 1_554 S
C701 C697 1.376 . S
C701 C700 1.392 . S
C701 H713 0.929 1_554 S
C702 C698 1.531 . S
C702 H714 0.960 . S
C702 H715 0.962 . S
C702 H716 0.960 . S
C703 C700 1.511 1_556 S
C703 H717 0.961 . S
C703 H718 0.961 . S
C703 H719 0.961 . S
C704 C705 1.370 . S
C704 C706 1.363 . S
C704 H720 0.931 . S
C705 C704 1.370 . S
C705 C709 1.408 . S
C706 C704 1.363 . S
C706 C707 1.370 . S
C706 C710 1.502 1_554 S
C707 C699 1.503 . S
C707 C706 1.370 . S
C707 C708 1.403 . S
C708 C707 1.403 . S
C708 C709 1.404 . S
C708 C711 1.539 . S
C709 C705 1.408 . S
C709 C708 1.404 . S
C709 H721 0.930 . S
C710 C706 1.502 1_556 S
C710 H722 0.918 1_556 S
C710 H723 0.996 . S
C710 H724 0.989 . S
C711 C708 1.539 . S
C711 H725 0.958 . S
C711 H726 0.961 . S
C711 H727 0.960 . S
H712 C696 0.931 . S
H713 C701 0.929 1_556 S
H714 C702 0.960 . S
H715 C702 0.962 . S
H716 C702 0.960 . S
H717 C703 0.961 . S
H718 C703 0.961 . S
H719 C703 0.961 . S
H720 C704 0.931 . S
H721 C709 0.930 . S
H722 C710 0.918 1_554 S
H723 C710 0.996 . S
H724 C710 0.989 . S
H725 C711 0.958 . S
H726 C711 0.961 . S
H727 C711 0.960 . S
C728 C729 1.391 1_554 S
C728 C730 1.394 . S
C728 H744 0.931 . S
C729 C728 1.391 1_556 S
C729 C733 1.376 . S
C730 C728 1.394 . S
C730 C731 1.369 1_554 S
C730 C734 1.531 . S
C731 C730 1.369 1_556 S
C731 C732 1.410 . S
C731 C739 1.503 . S
C732 C731 1.410 . S
C732 C733 1.392 . S
C732 C735 1.511 . S
C733 C729 1.376 . S
C733 C732 1.392 . S
C733 H745 0.929 . S
C734 C730 1.531 . S
C734 H746 0.960 . S
C734 H747 0.962 . S
C734 H748 0.960 . S
C735 C732 1.511 . S
C735 H749 0.961 . S
C735 H750 0.961 . S
C735 H751 0.961 . S
C736 C737 1.370 1_554 S
C736 C738 1.363 . S
C736 H752 0.931 . S
C737 C736 1.370 1_556 S
C737 C741 1.408 . S
C738 C736 1.363 . S
C738 C739 1.370 1_554 S
C738 C742 1.524 . S
C739 C731 1.503 . S
C739 C738 1.370 1_556 S
C739 C740 1.403 . S
C740 C739 1.403 . S
C740 C741 1.404 . S
C740 C743 1.539 . S
C741 C737 1.408 . S
C741 C740 1.404 . S
C741 H753 0.930 . S
C742 C738 1.524 . S
C742 H754 0.956 . S
C742 H755 0.961 1_554 S
C742 H756 0.961 . S
C743 C740 1.539 . S
C743 H757 0.958 . S
C743 H758 0.961 . S
C743 H759 0.960 . S
H744 C728 0.931 . S
H745 C733 0.929 . S
H746 C734 0.960 . S
H747 C734 0.962 . S
H748 C734 0.960 . S
H749 C735 0.961 . S
H750 C735 0.961 . S
H751 C735 0.961 . S
H752 C736 0.931 . S
H753 C741 0.930 . S
H754 C742 0.956 . S
H755 C742 0.961 1_556 S
H756 C742 0.961 . S
H757 C743 0.958 . S
H758 C743 0.961 . S
H759 C743 0.960 . S
C760 C761 1.391 . S
C760 C762 1.394 . S
C760 H776 0.931 . S
C761 C760 1.391 . S
C761 C765 1.376 . S
C762 C760 1.394 . S
C762 C763 1.369 . S
C762 C766 1.531 . S
C763 C762 1.369 . S
C763 C764 1.410 . S
C763 C771 1.503 . S
C764 C763 1.410 . S
C764 C765 1.392 . S
C764 C767 1.511 . S
C765 C761 1.376 . S
C765 C764 1.392 . S
C765 H777 0.929 . S
C766 C762 1.531 . S
C766 H778 0.960 . S
C766 H779 0.962 . S
C766 H780 0.960 . S
C767 C764 1.511 . S
C767 H781 0.961 . S
C767 H782 0.961 . S
C767 H783 0.961 . S
C768 C769 1.370 . S
C768 C770 1.363 . S
C768 H784 0.931 . S
C769 C768 1.370 . S
C769 C773 1.408 . S
C770 C768 1.363 . S
C770 C771 1.370 . S
C770 C774 1.524 . S
C771 C763 1.503 . S
C771 C770 1.370 . S
C771 C772 1.403 . S
C772 C771 1.403 . S
C772 C773 1.404 . S
C772 C775 1.539 . S
C773 C769 1.408 . S
C773 C772 1.404 . S
C773 H785 0.930 . S
C774 C770 1.524 . S
C774 H786 0.956 . S
C774 H787 0.961 . S
C774 H788 0.961 . S
C775 C772 1.539 . S
C775 H789 0.958 . S
C775 H790 0.961 . S
C775 H791 0.960 . S
H776 C760 0.931 . S
H777 C765 0.929 . S
H778 C766 0.960 . S
H779 C766 0.962 . S
H780 C766 0.960 . S
H781 C767 0.961 . S
H782 C767 0.961 . S
H783 C767 0.961 . S
H784 C768 0.931 . S
H785 C773 0.930 . S
H786 C774 0.956 . S
H787 C774 0.961 . S
H788 C774 0.961 . S
H789 C775 0.958 . S
H790 C775 0.961 . S
H791 C775 0.960 . S
C792 C793 1.391 . S
C792 C794 1.394 . S
C792 H808 0.931 . S
C793 C792 1.391 . S
C793 C797 1.376 . S
C794 C792 1.394 . S
C794 C795 1.369 . S
C794 C798 1.531 . S
C795 C794 1.369 . S
C795 C796 1.410 . S
C795 C803 1.503 . S
C796 C795 1.410 . S
C796 C797 1.392 . S
C796 C799 1.511 . S
C797 C793 1.376 . S
C797 C796 1.392 . S
C797 H809 0.929 . S
C798 C794 1.531 . S
C798 H810 0.960 . S
C798 H811 0.962 . S
C798 H812 0.960 . S
C799 C796 1.511 . S
C799 H813 0.961 . S
C799 H814 0.961 . S
C799 H815 0.961 . S
C800 C801 1.370 . S
C800 C802 1.363 . S
C800 H816 0.931 . S
C801 C800 1.370 . S
C801 C805 1.408 . S
C802 C800 1.363 . S
C802 C803 1.370 . S
C802 C806 1.524 . S
C803 C795 1.503 . S
C803 C802 1.370 . S
C803 C804 1.403 . S
C804 C803 1.403 . S
C804 C805 1.404 . S
C804 C807 1.539 . S
C805 C801 1.408 . S
C805 C804 1.404 . S
C805 H817 0.930 . S
C806 C802 1.524 . S
C806 H818 0.956 . S
C806 H819 0.961 . S
C806 H820 0.961 . S
C807 C804 1.539 . S
C807 H821 0.958 . S
C807 H822 0.961 . S
C807 H823 0.960 . S
H808 C792 0.931 . S
H809 C797 0.929 . S
H810 C798 0.960 . S
H811 C798 0.962 . S
H812 C798 0.960 . S
H813 C799 0.961 . S
H814 C799 0.961 . S
H815 C799 0.961 . S
H816 C800 0.931 . S
H817 C805 0.930 . S
H818 C806 0.956 . S
H819 C806 0.961 . S
H820 C806 0.961 . S
H821 C807 0.958 . S
H822 C807 0.961 . S
H823 C807 0.960 . S
C824 C825 1.391 . S
C824 C826 1.394 . S
C824 H840 0.931 . S
C825 C824 1.391 . S
C825 C829 1.376 . S
C826 C824 1.394 . S
C826 C827 1.369 . S
C826 C830 1.531 . S
C827 C826 1.369 . S
C827 C828 1.410 . S
C827 C835 1.503 . S
C828 C827 1.410 . S
C828 C829 1.392 . S
C828 C831 1.511 . S
C829 C825 1.376 . S
C829 C828 1.392 . S
C829 H841 0.929 . S
C830 C826 1.531 . S
C830 H842 0.960 . S
C830 H843 0.962 . S
C830 H844 0.960 . S
C831 C828 1.511 . S
C831 H845 0.961 . S
C831 H846 0.961 . S
C831 H847 0.961 . S
C832 C833 1.370 . S
C832 C834 1.363 . S
C832 H848 0.931 . S
C833 C832 1.370 . S
C833 C837 1.408 . S
C834 C832 1.363 . S
C834 C835 1.370 . S
C834 C838 1.524 . S
C835 C827 1.503 . S
C835 C834 1.370 . S
C835 C836 1.403 . S
C836 C835 1.403 . S
C836 C837 1.404 . S
C836 C839 1.539 . S
C837 C833 1.408 . S
C837 C836 1.404 . S
C837 H849 0.930 . S
C838 C834 1.524 . S
C838 H850 0.956 . S
C838 H851 0.961 . S
C838 H852 0.961 . S
C839 C836 1.539 . S
C839 H853 0.958 . S
C839 H854 0.961 . S
C839 H855 0.960 . S
H840 C824 0.931 . S
H841 C829 0.929 . S
H842 C830 0.960 . S
H843 C830 0.962 . S
H844 C830 0.960 . S
H845 C831 0.961 . S
H846 C831 0.961 . S
H847 C831 0.961 . S
H848 C832 0.931 . S
H849 C837 0.930 . S
H850 C838 0.956 . S
H851 C838 0.961 . S
H852 C838 0.961 . S
H853 C839 0.958 . S
H854 C839 0.961 . S
H855 C839 0.960 . S
C856 C857 1.391 . S
C856 C858 1.394 . S
C856 H872 0.931 . S
C857 C856 1.391 . S
C857 C861 1.376 . S
C858 C856 1.394 . S
C858 C859 1.369 . S
C858 C862 1.531 . S
C859 C858 1.369 . S
C859 C860 1.410 . S
C859 C867 1.503 . S
C860 C859 1.410 . S
C860 C861 1.392 . S
C860 C863 1.511 . S
C861 C857 1.376 . S
C861 C860 1.392 . S
C861 H873 0.929 . S
C862 C858 1.531 . S
C862 H874 0.960 . S
C862 H875 0.962 . S
C862 H876 0.960 . S
C863 C860 1.511 . S
C863 H877 0.961 . S
C863 H878 0.961 . S
C863 H879 0.961 . S
C864 C865 1.370 . S
C864 C866 1.363 . S
C864 H880 0.931 . S
C865 C864 1.370 . S
C865 C869 1.408 . S
C866 C864 1.363 . S
C866 C867 1.370 . S
C866 C870 1.524 . S
C867 C859 1.503 . S
C867 C866 1.370 . S
C867 C868 1.403 . S
C868 C867 1.403 . S
C868 C869 1.404 . S
C868 C871 1.539 . S
C869 C865 1.408 . S
C869 C868 1.404 . S
C869 H881 0.930 . S
C870 C866 1.524 . S
C870 H882 0.956 . S
C870 H883 0.961 . S
C870 H884 0.961 . S
C871 C868 1.539 . S
C871 H885 0.958 . S
C871 H886 0.961 . S
C871 H887 0.960 . S
H872 C856 0.931 . S
H873 C861 0.929 . S
H874 C862 0.960 . S
H875 C862 0.962 . S
H876 C862 0.960 . S
H877 C863 0.961 . S
H878 C863 0.961 . S
H879 C863 0.961 . S
H880 C864 0.931 . S
H881 C869 0.930 . S
H882 C870 0.956 . S
H883 C870 0.961 . S
H884 C870 0.961 . S
H885 C871 0.958 . S
H886 C871 0.961 . S
H887 C871 0.960 . S
C888 C889 1.391 . S
C888 C890 1.394 . S
C888 H904 0.931 . S
C889 C888 1.391 . S
C889 C893 1.376 . S
C890 C888 1.394 . S
C890 C891 1.369 . S
C890 C894 1.531 . S
C891 C890 1.369 . S
C891 C892 1.410 . S
C891 C899 1.503 . S
C892 C891 1.410 . S
C892 C893 1.392 . S
C892 C895 1.511 1_554 S
C893 C889 1.376 . S
C893 C892 1.392 . S
C893 H905 0.929 1_554 S
C894 C890 1.531 . S
C894 H906 0.960 . S
C894 H907 0.962 . S
C894 H908 0.960 . S
C895 C892 1.511 1_556 S
C895 H909 0.961 . S
C895 H910 0.961 . S
C895 H911 0.961 1_556 S
C896 C897 1.370 . S
C896 C898 1.363 . S
C896 H912 0.931 1_554 S
C897 C896 1.370 . S
C897 C901 1.408 . S
C898 C896 1.363 . S
C898 C899 1.370 . S
C898 C902 1.524 1_554 S
C899 C891 1.503 . S
C899 C898 1.370 . S
C899 C900 1.403 . S
C900 C899 1.403 . S
C900 C901 1.404 . S
C900 C903 1.539 . S
C901 C897 1.408 . S
C901 C900 1.404 . S
C901 H913 0.930 . S
C902 C898 1.524 1_556 S
C902 H914 0.963 . S
C902 H915 0.961 . S
C902 H916 0.961 . S
C903 C900 1.539 . S
C903 H917 0.958 . S
C903 H918 0.961 . S
C903 H919 0.960 . S
H904 C888 0.931 . S
H905 C893 0.929 1_556 S
H906 C894 0.960 . S
H907 C894 0.962 . S
H908 C894 0.960 . S
H909 C895 0.961 . S
H910 C895 0.961 . S
H911 C895 0.961 1_554 S
H912 C896 0.931 1_556 S
H913 C901 0.930 . S
H914 C902 0.963 . S
H915 C902 0.961 . S
H916 C902 0.961 . S
H917 C903 0.958 . S
H918 C903 0.961 . S
H919 C903 0.960 . S
C920 C921 1.391 . S
C920 C922 1.394 . S
C920 H936 0.931 . S
C921 C920 1.391 . S
C921 C925 1.376 . S
C922 C920 1.394 . S
C922 C923 1.369 . S
C922 C926 1.531 . S
C923 C922 1.369 . S
C923 C924 1.410 . S
C923 C931 1.503 . S
C924 C923 1.410 . S
C924 C925 1.392 . S
C924 C927 1.511 . S
C925 C921 1.376 . S
C925 C924 1.392 . S
C925 H937 0.929 . S
C926 C922 1.531 . S
C926 H938 0.960 . S
C926 H939 0.962 . S
C926 H940 0.960 . S
C927 C924 1.511 . S
C927 H941 0.961 . S
C927 H942 0.961 . S
C927 H943 0.961 . S
C928 C929 1.370 . S
C928 C930 1.363 . S
C928 H944 0.931 . S
C929 C928 1.370 . S
C929 C933 1.408 . S
C930 C928 1.363 . S
C930 C931 1.370 . S
C930 C934 1.524 . S
C931 C923 1.503 . S
C931 C930 1.370 . S
C931 C932 1.403 . S
C932 C931 1.403 . S
C932 C933 1.404 . S
C932 C935 1.539 . S
C933 C929 1.408 . S
C933 C932 1.404 . S
C933 H945 0.930 . S
C934 C930 1.524 . S
C934 H946 0.956 . S
C934 H947 0.961 . S
C934 H948 0.961 . S
C935 C932 1.539 . S
C935 H949 0.958 . S
C935 H950 0.961 . S
C935 H951 0.960 . S
H936 C920 0.931 . S
H937 C925 0.929 . S
H938 C926 0.960 . S
H939 C926 0.962 . S
H940 C926 0.960 . S
H941 C927 0.961 . S
H942 C927 0.961 . S
H943 C927 0.961 . S
H944 C928 0.931 . S
H945 C933 0.930 . S
H946 C934 0.956 . S
H947 C934 0.961 . S
H948 C934 0.961 . S
H949 C935 0.958 . S
H950 C935 0.961 . S
H951 C935 0.960 . S
C952 C953 1.391 . S
C952 C954 1.394 . S
C952 H968 0.931 . S
C953 C952 1.391 . S
C953 C957 1.376 . S
C954 C952 1.394 . S
C954 C955 1.369 . S
C954 C958 1.531 . S
C955 C954 1.369 . S
C955 C956 1.410 . S
C955 C963 1.503 . S
C956 C955 1.410 . S
C956 C957 1.392 . S
C956 C959 1.511 . S
C957 C953 1.376 . S
C957 C956 1.392 . S
C957 H969 0.929 . S
C958 C954 1.531 . S
C958 H970 0.960 . S
C958 H971 0.962 . S
C958 H972 0.960 . S
C959 C956 1.511 . S
C959 H973 0.961 . S
C959 H974 0.961 . S
C959 H975 0.961 . S
C960 C961 1.370 . S
C960 C962 1.363 . S
C960 H976 0.931 . S
C961 C960 1.370 . S
C961 C965 1.408 . S
C962 C960 1.363 . S
C962 C963 1.370 . S
C962 C966 1.524 . S
C963 C955 1.503 . S
C963 C962 1.370 . S
C963 C964 1.403 . S
C964 C963 1.403 . S
C964 C965 1.404 . S
C964 C967 1.539 . S
C965 C961 1.408 . S
C965 C964 1.404 . S
C965 H977 0.930 . S
C966 C962 1.524 . S
C966 H978 0.956 . S
C966 H979 0.961 . S
C966 H980 0.961 . S
C967 C964 1.539 . S
C967 H981 0.958 . S
C967 H982 0.961 . S
C967 H983 0.960 . S
H968 C952 0.931 . S
H969 C957 0.929 . S
H970 C958 0.960 . S
H971 C958 0.962 . S
H972 C958 0.960 . S
H973 C959 0.961 . S
H974 C959 0.961 . S
H975 C959 0.961 . S
H976 C960 0.931 . S
H977 C965 0.930 . S
H978 C966 0.956 . S
H979 C966 0.961 . S
H980 C966 0.961 . S
H981 C967 0.958 . S
H982 C967 0.961 . S
H983 C967 0.960 . S
C984 C985 1.391 . S
C984 C986 1.394 . S
C984 H1000 0.931 . S
C985 C984 1.391 . S
C985 C989 1.376 . S
C986 C984 1.394 . S
C986 C987 1.369 . S
C986 C990 1.531 . S
C987 C986 1.369 . S
C987 C988 1.410 . S
C987 C995 1.503 . S
C988 C987 1.410 . S
C988 C989 1.392 . S
C988 C991 1.511 . S
C989 C985 1.376 . S
C989 C988 1.392 . S
C989 H1001 0.929 . S
C990 C986 1.531 . S
C990 H1002 0.960 . S
C990 H1003 0.962 . S
C990 H1004 0.960 . S
C991 C988 1.511 . S
C991 H1005 0.961 . S
C991 H1006 0.961 . S
C991 H1007 0.961 . S
C992 C993 1.370 . S
C992 C994 1.363 . S
C992 H1008 0.931 . S
C993 C992 1.370 . S
C993 C997 1.408 . S
C994 C992 1.363 . S
C994 C995 1.370 . S
C994 C998 1.524 . S
C995 C987 1.503 . S
C995 C994 1.370 . S
C995 C996 1.403 . S
C996 C995 1.403 . S
C996 C997 1.404 . S
C996 C999 1.539 . S
C997 C993 1.408 . S
C997 C996 1.404 . S
C997 H1009 0.930 . S
C998 C994 1.524 . S
C998 H1010 0.956 . S
C998 H1011 0.961 . S
C998 H1012 0.961 . S
C999 C996 1.539 . S
C999 H1013 0.958 . S
C999 H1014 0.961 . S
C999 H1015 0.960 . S
H1000 C984 0.931 . S
H1001 C989 0.929 . S
H1002 C990 0.960 . S
H1003 C990 0.962 . S
H1004 C990 0.960 . S
H1005 C991 0.961 . S
H1006 C991 0.961 . S
H1007 C991 0.961 . S
H1008 C992 0.931 . S
H1009 C997 0.930 . S
H1010 C998 0.956 . S
H1011 C998 0.961 . S
H1012 C998 0.961 . S
H1013 C999 0.958 . S
H1014 C999 0.961 . S
H1015 C999 0.960 . S
C1016 C1017 1.391 . S
C1016 C1018 1.394 . S
C1016 H1032 0.931 . S
C1017 C1016 1.391 . S
C1017 C1021 1.376 . S
C1018 C1016 1.394 . S
C1018 C1019 1.369 . S
C1018 C1022 1.531 . S
C1019 C1018 1.369 . S
C1019 C1020 1.410 . S
C1019 C1027 1.503 . S
C1020 C1019 1.410 . S
C1020 C1021 1.392 . S
C1020 C1023 1.511 . S
C1021 C1017 1.376 . S
C1021 C1020 1.392 . S
C1021 H1033 0.929 . S
C1022 C1018 1.531 . S
C1022 H1034 0.960 . S
C1022 H1035 0.962 . S
C1022 H1036 0.960 . S
C1023 C1020 1.511 . S
C1023 H1037 0.961 . S
C1023 H1038 0.961 . S
C1023 H1039 0.961 . S
C1024 C1025 1.370 . S
C1024 C1026 1.363 . S
C1024 H1040 0.931 . S
C1025 C1024 1.370 . S
C1025 C1029 1.408 . S
C1026 C1024 1.363 . S
C1026 C1027 1.370 . S
C1026 C1030 1.524 . S
C1027 C1019 1.503 . S
C1027 C1026 1.370 . S
C1027 C1028 1.403 . S
C1028 C1027 1.403 . S
C1028 C1029 1.404 . S
C1028 C1031 1.539 . S
C1029 C1025 1.408 . S
C1029 C1028 1.404 . S
C1029 H1041 0.930 . S
C1030 C1026 1.524 . S
C1030 H1042 0.956 . S
C1030 H1043 0.961 . S
C1030 H1044 0.961 . S
C1031 C1028 1.539 . S
C1031 H1045 0.958 . S
C1031 H1046 0.961 . S
C1031 H1047 0.960 . S
H1032 C1016 0.931 . S
H1033 C1021 0.929 . S
H1034 C1022 0.960 . S
H1035 C1022 0.962 . S
H1036 C1022 0.960 . S
H1037 C1023 0.961 . S
H1038 C1023 0.961 . S
H1039 C1023 0.961 . S
H1040 C1024 0.931 . S
H1041 C1029 0.930 . S
H1042 C1030 0.956 . S
H1043 C1030 0.961 . S
H1044 C1030 0.961 . S
H1045 C1031 0.958 . S
H1046 C1031 0.961 . S
H1047 C1031 0.960 . S
C1048 C1049 1.391 1_554 S
C1048 C1050 1.394 . S
C1048 H1064 0.931 . S
C1049 C1048 1.391 1_556 S
C1049 C1053 1.376 . S
C1050 C1048 1.394 . S
C1050 C1051 1.363 1_554 S
C1050 C1054 1.531 . S
C1051 C1050 1.363 1_556 S
C1051 C1052 1.416 . S
C1051 C1059 1.503 . S
C1052 C1051 1.416 . S
C1052 C1053 1.392 . S
C1052 C1055 1.511 . S
C1053 C1049 1.376 . S
C1053 C1052 1.392 . S
C1053 H1065 0.929 . S
C1054 C1050 1.531 . S
C1054 H1066 0.960 . S
C1054 H1067 0.962 . S
C1054 H1068 0.960 . S
C1055 C1052 1.511 . S
C1055 H1069 0.961 . S
C1055 H1070 0.961 . S
C1055 H1071 0.961 . S
C1056 C1057 1.386 . S
C1056 C1058 1.363 . S
C1056 H1072 0.931 . S
C1057 C1056 1.386 . S
C1057 C1061 1.392 1_556 S
C1058 C1056 1.363 . S
C1058 C1059 1.378 . S
C1058 C1062 1.524 . S
C1059 C1051 1.503 . S
C1059 C1058 1.378 . S
C1059 C1060 1.395 1_556 S
C1060 C1059 1.395 1_554 S
C1060 C1061 1.404 . S
C1060 C1063 1.539 . S
C1061 C1057 1.392 1_554 S
C1061 C1060 1.404 . S
C1061 H1073 0.930 . S
C1062 C1058 1.524 . S
C1062 H1074 0.956 . S
C1062 H1075 0.961 . S
C1062 H1076 0.961 . S
C1063 C1060 1.539 . S
C1063 H1077 0.958 . S
C1063 H1078 0.961 . S
C1063 H1079 0.960 . S
H1064 C1048 0.931 . S
H1065 C1053 0.929 . S
H1066 C1054 0.960 . S
H1067 C1054 0.962 . S
H1068 C1054 0.960 . S
H1069 C1055 0.961 . S
H1070 C1055 0.961 . S
H1071 C1055 0.961 . S
H1072 C1056 0.931 . S
H1073 C1061 0.930 . S
H1074 C1062 0.956 . S
H1075 C1062 0.961 . S
H1076 C1062 0.961 . S
H1077 C1063 0.958 . S
H1078 C1063 0.961 . S
H1079 C1063 0.960 . S
C1080 C1081 1.391 . S
C1080 C1082 1.394 . S
C1080 H1096 0.931 . S
C1081 C1080 1.391 . S
C1081 C1085 1.376 . S
C1082 C1080 1.394 . S
C1082 C1083 1.369 . S
C1082 C1086 1.531 . S
C1083 C1082 1.369 . S
C1083 C1084 1.410 . S
C1083 C1091 1.503 . S
C1084 C1083 1.410 . S
C1084 C1085 1.392 . S
C1084 C1087 1.511 . S
C1085 C1081 1.376 . S
C1085 C1084 1.392 . S
C1085 H1097 0.929 . S
C1086 C1082 1.531 . S
C1086 H1098 0.960 . S
C1086 H1099 0.962 . S
C1086 H1100 0.960 . S
C1087 C1084 1.511 . S
C1087 H1101 0.961 . S
C1087 H1102 0.961 . S
C1087 H1103 0.961 . S
C1088 C1089 1.370 . S
C1088 C1090 1.363 . S
C1088 H1104 0.931 . S
C1089 C1088 1.370 . S
C1089 C1093 1.408 . S
C1090 C1088 1.363 . S
C1090 C1091 1.370 . S
C1090 C1094 1.524 . S
C1091 C1083 1.503 . S
C1091 C1090 1.370 . S
C1091 C1092 1.403 . S
C1092 C1091 1.403 . S
C1092 C1093 1.404 . S
C1092 C1095 1.539 . S
C1093 C1089 1.408 . S
C1093 C1092 1.404 . S
C1093 H1105 0.930 . S
C1094 C1090 1.524 . S
C1094 H1106 0.956 . S
C1094 H1107 0.961 . S
C1094 H1108 0.961 . S
C1095 C1092 1.539 . S
C1095 H1109 0.958 . S
C1095 H1110 0.961 . S
C1095 H1111 0.960 . S
H1096 C1080 0.931 . S
H1097 C1085 0.929 . S
H1098 C1086 0.960 . S
H1099 C1086 0.962 . S
H1100 C1086 0.960 . S
H1101 C1087 0.961 . S
H1102 C1087 0.961 . S
H1103 C1087 0.961 . S
H1104 C1088 0.931 . S
H1105 C1093 0.930 . S
H1106 C1094 0.956 . S
H1107 C1094 0.961 . S
H1108 C1094 0.961 . S
H1109 C1095 0.958 . S
H1110 C1095 0.961 . S
H1111 C1095 0.960 . S
C1112 C1113 1.391 . S
C1112 C1114 1.394 . S
C1112 H1128 0.931 . S
C1113 C1112 1.391 . S
C1113 C1117 1.376 . S
C1114 C1112 1.394 . S
C1114 C1115 1.369 . S
C1114 C1118 1.531 . S
C1115 C1114 1.369 . S
C1115 C1116 1.410 . S
C1115 C1123 1.503 . S
C1116 C1115 1.410 . S
C1116 C1117 1.392 . S
C1116 C1119 1.511 . S
C1117 C1113 1.376 . S
C1117 C1116 1.392 . S
C1117 H1129 0.929 . S
C1118 C1114 1.531 . S
C1118 H1130 0.960 . S
C1118 H1131 0.962 . S
C1118 H1132 0.960 . S
C1119 C1116 1.511 . S
C1119 H1133 0.961 . S
C1119 H1134 0.961 . S
C1119 H1135 0.961 . S
C1120 C1121 1.370 . S
C1120 C1122 1.363 . S
C1120 H1136 0.931 . S
C1121 C1120 1.370 . S
C1121 C1125 1.408 . S
C1122 C1120 1.363 . S
C1122 C1123 1.370 . S
C1122 C1126 1.524 . S
C1123 C1115 1.503 . S
C1123 C1122 1.370 . S
C1123 C1124 1.403 . S
C1124 C1123 1.403 . S
C1124 C1125 1.404 . S
C1124 C1127 1.539 . S
C1125 C1121 1.408 . S
C1125 C1124 1.404 . S
C1125 H1137 0.930 . S
C1126 C1122 1.524 . S
C1126 H1138 0.956 . S
C1126 H1139 0.961 . S
C1126 H1140 0.961 . S
C1127 C1124 1.539 . S
C1127 H1141 0.958 . S
C1127 H1142 0.961 . S
C1127 H1143 0.960 . S
H1128 C1112 0.931 . S
H1129 C1117 0.929 . S
H1130 C1118 0.960 . S
H1131 C1118 0.962 . S
H1132 C1118 0.960 . S
H1133 C1119 0.961 . S
H1134 C1119 0.961 . S
H1135 C1119 0.961 . S
H1136 C1120 0.931 . S
H1137 C1125 0.930 . S
H1138 C1126 0.956 . S
H1139 C1126 0.961 . S
H1140 C1126 0.961 . S
H1141 C1127 0.958 . S
H1142 C1127 0.961 . S
H1143 C1127 0.960 . S
C1144 C1145 1.391 . S
C1144 C1146 1.394 . S
C1144 H1160 0.931 . S
C1145 C1144 1.391 . S
C1145 C1149 1.376 . S
C1146 C1144 1.394 . S
C1146 C1147 1.369 . S
C1146 C1150 1.531 . S
C1147 C1146 1.369 . S
C1147 C1148 1.410 . S
C1147 C1155 1.503 . S
C1148 C1147 1.410 . S
C1148 C1149 1.392 . S
C1148 C1151 1.511 . S
C1149 C1145 1.376 . S
C1149 C1148 1.392 . S
C1149 H1161 0.929 . S
C1150 C1146 1.531 . S
C1150 H1162 0.960 . S
C1150 H1163 0.962 . S
C1150 H1164 0.960 . S
C1151 C1148 1.511 . S
C1151 H1165 0.961 . S
C1151 H1166 0.961 . S
C1151 H1167 0.961 . S
C1152 C1153 1.370 . S
C1152 C1154 1.363 . S
C1152 H1168 0.931 . S
C1153 C1152 1.370 . S
C1153 C1157 1.408 . S
C1154 C1152 1.363 . S
C1154 C1155 1.370 . S
C1154 C1158 1.524 . S
C1155 C1147 1.503 . S
C1155 C1154 1.370 . S
C1155 C1156 1.403 . S
C1156 C1155 1.403 . S
C1156 C1157 1.404 . S
C1156 C1159 1.539 . S
C1157 C1153 1.408 . S
C1157 C1156 1.404 . S
C1157 H1169 0.930 . S
C1158 C1154 1.524 . S
C1158 H1170 0.956 . S
C1158 H1171 0.961 . S
C1158 H1172 0.961 . S
C1159 C1156 1.539 . S
C1159 H1173 0.958 . S
C1159 H1174 0.961 . S
C1159 H1175 0.960 . S
H1160 C1144 0.931 . S
H1161 C1149 0.929 . S
H1162 C1150 0.960 . S
H1163 C1150 0.962 . S
H1164 C1150 0.960 . S
H1165 C1151 0.961 . S
H1166 C1151 0.961 . S
H1167 C1151 0.961 . S
H1168 C1152 0.931 . S
H1169 C1157 0.930 . S
H1170 C1158 0.956 . S
H1171 C1158 0.961 . S
H1172 C1158 0.961 . S
H1173 C1159 0.958 . S
H1174 C1159 0.961 . S
H1175 C1159 0.960 . S
C1176 C1177 1.391 . S
C1176 C1178 1.394 . S
C1176 H1192 0.931 . S
C1177 C1176 1.391 . S
C1177 C1181 1.376 . S
C1178 C1176 1.394 . S
C1178 C1179 1.369 . S
C1178 C1182 1.531 . S
C1179 C1178 1.369 . S
C1179 C1180 1.410 . S
C1179 C1187 1.503 . S
C1180 C1179 1.410 . S
C1180 C1181 1.392 . S
C1180 C1183 1.511 . S
C1181 C1177 1.376 . S
C1181 C1180 1.392 . S
C1181 H1193 0.929 . S
C1182 C1178 1.531 . S
C1182 H1194 0.960 . S
C1182 H1195 0.962 . S
C1182 H1196 0.960 . S
C1183 C1180 1.511 . S
C1183 H1197 0.961 . S
C1183 H1198 0.961 . S
C1183 H1199 0.961 . S
C1184 C1185 1.370 . S
C1184 C1186 1.363 . S
C1184 H1200 0.931 . S
C1185 C1184 1.370 . S
C1185 C1189 1.408 . S
C1186 C1184 1.363 . S
C1186 C1187 1.370 . S
C1186 C1190 1.524 . S
C1187 C1179 1.503 . S
C1187 C1186 1.370 . S
C1187 C1188 1.403 . S
C1188 C1187 1.403 . S
C1188 C1189 1.404 . S
C1188 C1191 1.539 . S
C1189 C1185 1.408 . S
C1189 C1188 1.404 . S
C1189 H1201 0.930 . S
C1190 C1186 1.524 . S
C1190 H1202 0.956 . S
C1190 H1203 0.961 . S
C1190 H1204 0.961 . S
C1191 C1188 1.539 . S
C1191 H1205 0.958 . S
C1191 H1206 0.961 . S
C1191 H1207 0.960 . S
H1192 C1176 0.931 . S
H1193 C1181 0.929 . S
H1194 C1182 0.960 . S
H1195 C1182 0.962 . S
H1196 C1182 0.960 . S
H1197 C1183 0.961 . S
H1198 C1183 0.961 . S
H1199 C1183 0.961 . S
H1200 C1184 0.931 . S
H1201 C1189 0.930 . S
H1202 C1190 0.956 . S
H1203 C1190 0.961 . S
H1204 C1190 0.961 . S
H1205 C1191 0.958 . S
H1206 C1191 0.961 . S
H1207 C1191 0.960 . S
C1208 C1209 1.391 . S
C1208 C1210 1.394 . S
C1208 H1224 0.931 . S
C1209 C1208 1.391 . S
C1209 C1213 1.376 . S
C1210 C1208 1.394 . S
C1210 C1211 1.369 . S
C1210 C1214 1.531 . S
C1211 C1210 1.369 . S
C1211 C1212 1.410 . S
C1211 C1219 1.503 . S
C1212 C1211 1.410 . S
C1212 C1213 1.392 . S
C1212 C1215 1.511 . S
C1213 C1209 1.376 . S
C1213 C1212 1.392 . S
C1213 H1225 0.929 . S
C1214 C1210 1.531 . S
C1214 H1226 0.960 . S
C1214 H1227 0.962 . S
C1214 H1228 0.960 . S
C1215 C1212 1.511 . S
C1215 H1229 0.961 . S
C1215 H1230 0.961 . S
C1215 H1231 0.961 . S
C1216 C1217 1.370 . S
C1216 C1218 1.363 . S
C1216 H1232 0.931 . S
C1217 C1216 1.370 . S
C1217 C1221 1.408 . S
C1218 C1216 1.363 . S
C1218 C1219 1.370 . S
C1218 C1222 1.524 . S
C1219 C1211 1.503 . S
C1219 C1218 1.370 . S
C1219 C1220 1.403 . S
C1220 C1219 1.403 . S
C1220 C1221 1.404 . S
C1220 C1223 1.539 . S
C1221 C1217 1.408 . S
C1221 C1220 1.404 . S
C1221 H1233 0.930 . S
C1222 C1218 1.524 . S
C1222 H1234 0.956 . S
C1222 H1235 0.961 . S
C1222 H1236 0.961 . S
C1223 C1220 1.539 . S
C1223 H1237 0.958 . S
C1223 H1238 0.961 . S
C1223 H1239 0.960 . S
H1224 C1208 0.931 . S
H1225 C1213 0.929 . S
H1226 C1214 0.960 . S
H1227 C1214 0.962 . S
H1228 C1214 0.960 . S
H1229 C1215 0.961 . S
H1230 C1215 0.961 . S
H1231 C1215 0.961 . S
H1232 C1216 0.931 . S
H1233 C1221 0.930 . S
H1234 C1222 0.956 . S
H1235 C1222 0.961 . S
H1236 C1222 0.961 . S
H1237 C1223 0.958 . S
H1238 C1223 0.961 . S
H1239 C1223 0.960 . S
C1240 C1241 1.391 . S
C1240 C1242 1.394 . S
C1240 H1256 0.931 . S
C1241 C1240 1.391 . S
C1241 C1245 1.376 . S
C1242 C1240 1.394 . S
C1242 C1243 1.369 . S
C1242 C1246 1.531 . S
C1243 C1242 1.369 . S
C1243 C1244 1.410 . S
C1243 C1251 1.503 . S
C1244 C1243 1.410 . S
C1244 C1245 1.392 . S
C1244 C1247 1.511 . S
C1245 C1241 1.376 . S
C1245 C1244 1.392 . S
C1245 H1257 0.929 . S
C1246 C1242 1.531 . S
C1246 H1258 0.960 . S
C1246 H1259 0.962 . S
C1246 H1260 0.960 . S
C1247 C1244 1.511 . S
C1247 H1261 0.961 . S
C1247 H1262 0.961 . S
C1247 H1263 0.961 . S
C1248 C1249 1.370 . S
C1248 C1250 1.363 . S
C1248 H1264 0.931 . S
C1249 C1248 1.370 . S
C1249 C1253 1.408 . S
C1250 C1248 1.363 . S
C1250 C1251 1.370 . S
C1250 C1254 1.524 . S
C1251 C1243 1.503 . S
C1251 C1250 1.370 . S
C1251 C1252 1.403 . S
C1252 C1251 1.403 . S
C1252 C1253 1.404 . S
C1252 C1255 1.539 . S
C1253 C1249 1.408 . S
C1253 C1252 1.404 . S
C1253 H1265 0.930 . S
C1254 C1250 1.524 . S
C1254 H1266 0.956 . S
C1254 H1267 0.961 . S
C1254 H1268 0.961 . S
C1255 C1252 1.539 . S
C1255 H1269 0.958 . S
C1255 H1270 0.961 . S
C1255 H1271 0.960 . S
H1256 C1240 0.931 . S
H1257 C1245 0.929 . S
H1258 C1246 0.960 . S
H1259 C1246 0.962 . S
H1260 C1246 0.960 . S
H1261 C1247 0.961 . S
H1262 C1247 0.961 . S
H1263 C1247 0.961 . S
H1264 C1248 0.931 . S
H1265 C1253 0.930 . S
H1266 C1254 0.956 . S
H1267 C1254 0.961 . S
H1268 C1254 0.961 . S
H1269 C1255 0.958 . S
H1270 C1255 0.961 . S
H1271 C1255 0.960 . S
C1272 C1273 1.391 . S
C1272 C1274 1.394 . S
C1272 H1288 0.931 . S
C1273 C1272 1.391 . S
C1273 C1277 1.376 . S
C1274 C1272 1.394 . S
C1274 C1275 1.369 . S
C1274 C1278 1.531 . S
C1275 C1274 1.369 . S
C1275 C1276 1.410 . S
C1275 C1283 1.503 . S
C1276 C1275 1.410 . S
C1276 C1277 1.392 . S
C1276 C1279 1.511 . S
C1277 C1273 1.376 . S
C1277 C1276 1.392 . S
C1277 H1289 0.929 . S
C1278 C1274 1.531 . S
C1278 H1290 0.960 . S
C1278 H1291 0.962 . S
C1278 H1292 0.960 . S
C1279 C1276 1.511 . S
C1279 H1293 0.961 . S
C1279 H1294 0.961 . S
C1279 H1295 0.961 . S
C1280 C1281 1.370 . S
C1280 C1282 1.363 . S
C1280 H1296 0.931 . S
C1281 C1280 1.370 . S
C1281 C1285 1.408 . S
C1282 C1280 1.363 . S
C1282 C1283 1.370 . S
C1282 C1286 1.524 . S
C1283 C1275 1.503 . S
C1283 C1282 1.370 . S
C1283 C1284 1.403 . S
C1284 C1283 1.403 . S
C1284 C1285 1.404 . S
C1284 C1287 1.539 . S
C1285 C1281 1.408 . S
C1285 C1284 1.404 . S
C1285 H1297 0.930 . S
C1286 C1282 1.524 . S
C1286 H1298 0.956 . S
C1286 H1299 0.961 . S
C1286 H1300 0.961 . S
C1287 C1284 1.539 . S
C1287 H1301 0.958 . S
C1287 H1302 0.961 . S
C1287 H1303 0.960 . S
H1288 C1272 0.931 . S
H1289 C1277 0.929 . S
H1290 C1278 0.960 . S
H1291 C1278 0.962 . S
H1292 C1278 0.960 . S
H1293 C1279 0.961 . S
H1294 C1279 0.961 . S
H1295 C1279 0.961 . S
H1296 C1280 0.931 . S
H1297 C1285 0.930 . S
H1298 C1286 0.956 . S
H1299 C1286 0.961 . S
H1300 C1286 0.961 . S
H1301 C1287 0.958 . S
H1302 C1287 0.961 . S
H1303 C1287 0.960 . S
C1304 C1305 1.391 . S
C1304 C1306 1.394 . S
C1304 H1320 0.931 . S
C1305 C1304 1.391 . S
C1305 C1309 1.376 . S
C1306 C1304 1.394 . S
C1306 C1307 1.369 . S
C1306 C1310 1.531 . S
C1307 C1306 1.369 . S
C1307 C1308 1.410 . S
C1307 C1315 1.503 . S
C1308 C1307 1.410 . S
C1308 C1309 1.392 . S
C1308 C1311 1.511 . S
C1309 C1305 1.376 . S
C1309 C1308 1.392 . S
C1309 H1321 0.929 . S
C1310 C1306 1.531 . S
C1310 H1322 0.960 . S
C1310 H1323 0.962 . S
C1310 H1324 0.960 . S
C1311 C1308 1.511 . S
C1311 H1325 0.961 . S
C1311 H1326 0.961 . S
C1311 H1327 0.961 . S
C1312 C1313 1.370 . S
C1312 C1314 1.363 . S
C1312 H1328 0.931 . S
C1313 C1312 1.370 . S
C1313 C1317 1.408 . S
C1314 C1312 1.363 . S
C1314 C1315 1.370 . S
C1314 C1318 1.524 . S
C1315 C1307 1.503 . S
C1315 C1314 1.370 . S
C1315 C1316 1.403 . S
C1316 C1315 1.403 . S
C1316 C1317 1.404 . S
C1316 C1319 1.539 . S
C1317 C1313 1.408 . S
C1317 C1316 1.404 . S
C1317 H1329 0.930 . S
C1318 C1314 1.524 . S
C1318 H1330 0.956 . S
C1318 H1331 0.961 . S
C1318 H1332 0.961 . S
C1319 C1316 1.539 . S
C1319 H1333 0.958 . S
C1319 H1334 0.961 . S
C1319 H1335 0.960 . S
H1320 C1304 0.931 . S
H1321 C1309 0.929 . S
H1322 C1310 0.960 . S
H1323 C1310 0.962 . S
H1324 C1310 0.960 . S
H1325 C1311 0.961 . S
H1326 C1311 0.961 . S
H1327 C1311 0.961 . S
H1328 C1312 0.931 . S
H1329 C1317 0.930 . S
H1330 C1318 0.956 . S
H1331 C1318 0.961 . S
H1332 C1318 0.961 . S
H1333 C1319 0.958 . S
H1334 C1319 0.961 . S
H1335 C1319 0.960 . S
C1336 C1337 1.391 . S
C1336 C1338 1.394 . S
C1336 H1352 0.931 . S
C1337 C1336 1.391 . S
C1337 C1341 1.376 . S
C1338 C1336 1.394 . S
C1338 C1339 1.369 . S
C1338 C1342 1.531 . S
C1339 C1338 1.369 . S
C1339 C1340 1.410 . S
C1339 C1347 1.503 . S
C1340 C1339 1.410 . S
C1340 C1341 1.392 . S
C1340 C1343 1.511 . S
C1341 C1337 1.376 . S
C1341 C1340 1.392 . S
C1341 H1353 0.929 . S
C1342 C1338 1.531 . S
C1342 H1354 0.960 . S
C1342 H1355 0.962 . S
C1342 H1356 0.960 . S
C1343 C1340 1.511 . S
C1343 H1357 0.961 . S
C1343 H1358 0.961 . S
C1343 H1359 0.961 . S
C1344 C1345 1.370 . S
C1344 C1346 1.363 . S
C1344 H1360 0.931 . S
C1345 C1344 1.370 . S
C1345 C1349 1.408 . S
C1346 C1344 1.363 . S
C1346 C1347 1.370 . S
C1346 C1350 1.524 . S
C1347 C1339 1.503 . S
C1347 C1346 1.370 . S
C1347 C1348 1.403 . S
C1348 C1347 1.403 . S
C1348 C1349 1.404 . S
C1348 C1351 1.539 . S
C1349 C1345 1.408 . S
C1349 C1348 1.404 . S
C1349 H1361 0.930 . S
C1350 C1346 1.524 . S
C1350 H1362 0.956 . S
C1350 H1363 0.961 . S
C1350 H1364 0.961 . S
C1351 C1348 1.539 . S
C1351 H1365 0.958 . S
C1351 H1366 0.961 . S
C1351 H1367 0.960 . S
H1352 C1336 0.931 . S
H1353 C1341 0.929 . S
H1354 C1342 0.960 . S
H1355 C1342 0.962 . S
H1356 C1342 0.960 . S
H1357 C1343 0.961 . S
H1358 C1343 0.961 . S
H1359 C1343 0.961 . S
H1360 C1344 0.931 . S
H1361 C1349 0.930 . S
H1362 C1350 0.956 . S
H1363 C1350 0.961 . S
H1364 C1350 0.961 . S
H1365 C1351 0.958 . S
H1366 C1351 0.961 . S
H1367 C1351 0.960 . S
C1368 C1369 1.391 . S
C1368 C1370 1.394 . S
C1368 H1384 0.931 . S
C1369 C1368 1.391 . S
C1369 C1373 1.376 . S
C1370 C1368 1.394 . S
C1370 C1371 1.369 . S
C1370 C1374 1.531 . S
C1371 C1370 1.369 . S
C1371 C1372 1.410 . S
C1371 C1379 1.503 . S
C1372 C1371 1.410 . S
C1372 C1373 1.392 . S
C1372 C1375 1.511 . S
C1373 C1369 1.376 . S
C1373 C1372 1.392 . S
C1373 H1385 0.929 . S
C1374 C1370 1.531 . S
C1374 H1386 0.960 . S
C1374 H1387 0.962 . S
C1374 H1388 0.960 . S
C1375 C1372 1.511 . S
C1375 H1389 0.961 . S
C1375 H1390 0.961 . S
C1375 H1391 0.961 . S
C1376 C1377 1.370 . S
C1376 C1378 1.363 . S
C1376 H1392 0.931 . S
C1377 C1376 1.370 . S
C1377 C1381 1.408 . S
C1378 C1376 1.363 . S
C1378 C1379 1.370 . S
C1378 C1382 1.524 . S
C1379 C1371 1.503 . S
C1379 C1378 1.370 . S
C1379 C1380 1.403 . S
C1380 C1379 1.403 . S
C1380 C1381 1.404 . S
C1380 C1383 1.539 . S
C1381 C1377 1.408 . S
C1381 C1380 1.404 . S
C1381 H1393 0.930 . S
C1382 C1378 1.524 . S
C1382 H1394 0.956 . S
C1382 H1395 0.961 . S
C1382 H1396 0.961 . S
C1383 C1380 1.539 . S
C1383 H1397 0.958 . S
C1383 H1398 0.961 . S
C1383 H1399 0.960 . S
H1384 C1368 0.931 . S
H1385 C1373 0.929 . S
H1386 C1374 0.960 . S
H1387 C1374 0.962 . S
H1388 C1374 0.960 . S
H1389 C1375 0.961 . S
H1390 C1375 0.961 . S
H1391 C1375 0.961 . S
H1392 C1376 0.931 . S
H1393 C1381 0.930 . S
H1394 C1382 0.956 . S
H1395 C1382 0.961 . S
H1396 C1382 0.961 . S
H1397 C1383 0.958 . S
H1398 C1383 0.961 . S
H1399 C1383 0.960 . S
C1400 C1401 1.391 . S
C1400 C1402 1.394 . S
C1400 H1416 0.931 . S
C1401 C1400 1.391 . S
C1401 C1405 1.376 . S
C1402 C1400 1.394 . S
C1402 C1403 1.369 . S
C1402 C1406 1.531 . S
C1403 C1402 1.369 . S
C1403 C1404 1.410 . S
C1403 C1411 1.503 . S
C1404 C1403 1.410 . S
C1404 C1405 1.392 . S
C1404 C1407 1.511 . S
C1405 C1401 1.376 . S
C1405 C1404 1.392 . S
C1405 H1417 0.929 . S
C1406 C1402 1.531 . S
C1406 H1418 0.960 . S
C1406 H1419 0.962 . S
C1406 H1420 0.960 . S
C1407 C1404 1.511 . S
C1407 H1421 0.961 . S
C1407 H1422 0.961 . S
C1407 H1423 0.961 . S
C1408 C1409 1.370 . S
C1408 C1410 1.363 . S
C1408 H1424 0.931 . S
C1409 C1408 1.370 . S
C1409 C1413 1.408 . S
C1410 C1408 1.363 . S
C1410 C1411 1.370 . S
C1410 C1414 1.524 . S
C1411 C1403 1.503 . S
C1411 C1410 1.370 . S
C1411 C1412 1.403 . S
C1412 C1411 1.403 . S
C1412 C1413 1.404 . S
C1412 C1415 1.539 . S
C1413 C1409 1.408 . S
C1413 C1412 1.404 . S
C1413 H1425 0.930 . S
C1414 C1410 1.524 . S
C1414 H1426 0.956 . S
C1414 H1427 0.961 . S
C1414 H1428 0.961 . S
C1415 C1412 1.539 . S
C1415 H1429 0.958 . S
C1415 H1430 0.961 . S
C1415 H1431 0.960 . S
H1416 C1400 0.931 . S
H1417 C1405 0.929 . S
H1418 C1406 0.960 . S
H1419 C1406 0.962 . S
H1420 C1406 0.960 . S
H1421 C1407 0.961 . S
H1422 C1407 0.961 . S
H1423 C1407 0.961 . S
H1424 C1408 0.931 . S
H1425 C1413 0.930 . S
H1426 C1414 0.956 . S
H1427 C1414 0.961 . S
H1428 C1414 0.961 . S
H1429 C1415 0.958 . S
H1430 C1415 0.961 . S
H1431 C1415 0.960 . S
C1432 C1433 1.391 . S
C1432 C1434 1.394 . S
C1432 H1448 0.931 . S
C1433 C1432 1.391 . S
C1433 C1437 1.376 . S
C1434 C1432 1.394 . S
C1434 C1435 1.369 . S
C1434 C1438 1.531 . S
C1435 C1434 1.369 . S
C1435 C1436 1.410 . S
C1435 C1443 1.503 . S
C1436 C1435 1.410 . S
C1436 C1437 1.392 . S
C1436 C1439 1.511 . S
C1437 C1433 1.376 . S
C1437 C1436 1.392 . S
C1437 H1449 0.929 . S
C1438 C1434 1.531 . S
C1438 H1450 0.960 . S
C1438 H1451 0.962 . S
C1438 H1452 0.960 . S
C1439 C1436 1.511 . S
C1439 H1453 0.961 . S
C1439 H1454 0.961 . S
C1439 H1455 0.961 . S
C1440 C1441 1.370 . S
C1440 C1442 1.363 . S
C1440 H1456 0.931 . S
C1441 C1440 1.370 . S
C1441 C1445 1.408 . S
C1442 C1440 1.363 . S
C1442 C1443 1.370 . S
C1442 C1446 1.524 . S
C1443 C1435 1.503 . S
C1443 C1442 1.370 . S
C1443 C1444 1.403 . S
C1444 C1443 1.403 . S
C1444 C1445 1.404 . S
C1444 C1447 1.539 . S
C1445 C1441 1.408 . S
C1445 C1444 1.404 . S
C1445 H1457 0.930 . S
C1446 C1442 1.524 . S
C1446 H1458 0.956 . S
C1446 H1459 0.961 . S
C1446 H1460 0.961 . S
C1447 C1444 1.539 . S
C1447 H1461 0.958 . S
C1447 H1462 0.961 . S
C1447 H1463 0.960 . S
H1448 C1432 0.931 . S
H1449 C1437 0.929 . S
H1450 C1438 0.960 . S
H1451 C1438 0.962 . S
H1452 C1438 0.960 . S
H1453 C1439 0.961 . S
H1454 C1439 0.961 . S
H1455 C1439 0.961 . S
H1456 C1440 0.931 . S
H1457 C1445 0.930 . S
H1458 C1446 0.956 . S
H1459 C1446 0.961 . S
H1460 C1446 0.961 . S
H1461 C1447 0.958 . S
H1462 C1447 0.961 . S
H1463 C1447 0.960 . S
C1464 C1465 1.391 . S
C1464 C1466 1.394 . S
C1464 H1480 0.931 . S
C1465 C1464 1.391 . S
C1465 C1469 1.376 . S
C1466 C1464 1.394 . S
C1466 C1467 1.369 . S
C1466 C1470 1.531 . S
C1467 C1466 1.369 . S
C1467 C1468 1.410 . S
C1467 C1475 1.503 . S
C1468 C1467 1.410 . S
C1468 C1469 1.392 . S
C1468 C1471 1.511 . S
C1469 C1465 1.376 . S
C1469 C1468 1.392 . S
C1469 H1481 0.929 . S
C1470 C1466 1.531 . S
C1470 H1482 0.960 . S
C1470 H1483 0.962 . S
C1470 H1484 0.960 . S
C1471 C1468 1.511 . S
C1471 H1485 0.961 . S
C1471 H1486 0.961 . S
C1471 H1487 0.961 . S
C1472 C1473 1.370 . S
C1472 C1474 1.363 . S
C1472 H1488 0.931 . S
C1473 C1472 1.370 . S
C1473 C1477 1.408 . S
C1474 C1472 1.363 . S
C1474 C1475 1.370 . S
C1474 C1478 1.524 . S
C1475 C1467 1.503 . S
C1475 C1474 1.370 . S
C1475 C1476 1.403 . S
C1476 C1475 1.403 . S
C1476 C1477 1.404 . S
C1476 C1479 1.539 . S
C1477 C1473 1.408 . S
C1477 C1476 1.404 . S
C1477 H1489 0.930 . S
C1478 C1474 1.524 . S
C1478 H1490 0.956 . S
C1478 H1491 0.961 . S
C1478 H1492 0.961 . S
C1479 C1476 1.539 . S
C1479 H1493 0.958 . S
C1479 H1494 0.961 . S
C1479 H1495 0.960 . S
H1480 C1464 0.931 . S
H1481 C1469 0.929 . S
H1482 C1470 0.960 . S
H1483 C1470 0.962 . S
H1484 C1470 0.960 . S
H1485 C1471 0.961 . S
H1486 C1471 0.961 . S
H1487 C1471 0.961 . S
H1488 C1472 0.931 . S
H1489 C1477 0.930 . S
H1490 C1478 0.956 . S
H1491 C1478 0.961 . S
H1492 C1478 0.961 . S
H1493 C1479 0.958 . S
H1494 C1479 0.961 . S
H1495 C1479 0.960 . S
C1496 C1497 1.391 . S
C1496 C1498 1.394 . S
C1496 H1512 0.931 . S
C1497 C1496 1.391 . S
C1497 C1501 1.376 . S
C1498 C1496 1.394 . S
C1498 C1499 1.369 . S
C1498 C1502 1.531 . S
C1499 C1498 1.369 . S
C1499 C1500 1.410 . S
C1499 C1507 1.503 . S
C1500 C1499 1.410 . S
C1500 C1501 1.392 . S
C1500 C1503 1.511 . S
C1501 C1497 1.376 . S
C1501 C1500 1.392 . S
C1501 H1513 0.929 . S
C1502 C1498 1.531 . S
C1502 H1514 0.960 . S
C1502 H1515 0.962 . S
C1502 H1516 0.960 . S
C1503 C1500 1.511 . S
C1503 H1517 0.961 . S
C1503 H1518 0.961 . S
C1503 H1519 0.961 . S
C1504 C1505 1.370 . S
C1504 C1506 1.363 . S
C1504 H1520 0.931 . S
C1505 C1504 1.370 . S
C1505 C1509 1.408 . S
C1506 C1504 1.363 . S
C1506 C1507 1.370 . S
C1506 C1510 1.524 . S
C1507 C1499 1.503 . S
C1507 C1506 1.370 . S
C1507 C1508 1.403 . S
C1508 C1507 1.403 . S
C1508 C1509 1.404 . S
C1508 C1511 1.539 . S
C1509 C1505 1.408 . S
C1509 C1508 1.404 . S
C1509 H1521 0.930 . S
C1510 C1506 1.524 . S
C1510 H1522 0.956 . S
C1510 H1523 0.961 . S
C1510 H1524 0.961 . S
C1511 C1508 1.539 . S
C1511 H1525 0.958 . S
C1511 H1526 0.961 . S
C1511 H1527 0.960 . S
H1512 C1496 0.931 . S
H1513 C1501 0.929 . S
H1514 C1502 0.960 . S
H1515 C1502 0.962 . S
H1516 C1502 0.960 . S
H1517 C1503 0.961 . S
H1518 C1503 0.961 . S
H1519 C1503 0.961 . S
H1520 C1504 0.931 . S
H1521 C1509 0.930 . S
H1522 C1510 0.956 . S
H1523 C1510 0.961 . S
H1524 C1510 0.961 . S
H1525 C1511 0.958 . S
H1526 C1511 0.961 . S
H1527 C1511 0.960 . S
C1528 C1529 1.391 . S
C1528 C1530 1.394 . S
C1528 H1544 0.931 . S
C1529 C1528 1.391 . S
C1529 C1533 1.376 . S
C1530 C1528 1.394 . S
C1530 C1531 1.369 . S
C1530 C1534 1.531 . S
C1531 C1530 1.369 . S
C1531 C1532 1.410 . S
C1531 C1539 1.503 . S
C1532 C1531 1.410 . S
C1532 C1533 1.392 . S
C1532 C1535 1.511 . S
C1533 C1529 1.376 . S
C1533 C1532 1.392 . S
C1533 H1545 0.929 . S
C1534 C1530 1.531 . S
C1534 H1546 0.960 . S
C1534 H1547 0.962 . S
C1534 H1548 0.960 . S
C1535 C1532 1.511 . S
C1535 H1549 0.961 . S
C1535 H1550 0.961 . S
C1535 H1551 0.961 . S
C1536 C1537 1.370 . S
C1536 C1538 1.363 . S
C1536 H1552 0.931 . S
C1537 C1536 1.370 . S
C1537 C1541 1.408 . S
C1538 C1536 1.363 . S
C1538 C1539 1.370 . S
C1538 C1542 1.524 . S
C1539 C1531 1.503 . S
C1539 C1538 1.370 . S
C1539 C1540 1.403 . S
C1540 C1539 1.403 . S
C1540 C1541 1.404 . S
C1540 C1543 1.539 . S
C1541 C1537 1.408 . S
C1541 C1540 1.404 . S
C1541 H1553 0.930 . S
C1542 C1538 1.524 . S
C1542 H1554 0.956 . S
C1542 H1555 0.961 . S
C1542 H1556 0.961 . S
C1543 C1540 1.539 . S
C1543 H1557 0.958 . S
C1543 H1558 0.961 . S
C1543 H1559 0.960 . S
H1544 C1528 0.931 . S
H1545 C1533 0.929 . S
H1546 C1534 0.960 . S
H1547 C1534 0.962 . S
H1548 C1534 0.960 . S
H1549 C1535 0.961 . S
H1550 C1535 0.961 . S
H1551 C1535 0.961 . S
H1552 C1536 0.931 . S
H1553 C1541 0.930 . S
H1554 C1542 0.956 . S
H1555 C1542 0.961 . S
H1556 C1542 0.961 . S
H1557 C1543 0.958 . S
H1558 C1543 0.961 . S
H1559 C1543 0.960 . S
C1560 C1561 1.391 . S
C1560 C1562 1.394 . S
C1560 H1576 0.931 . S
C1561 C1560 1.391 . S
C1561 C1565 1.376 . S
C1562 C1560 1.394 . S
C1562 C1563 1.369 . S
C1562 C1566 1.531 . S
C1563 C1562 1.369 . S
C1563 C1564 1.410 . S
C1563 C1571 1.503 . S
C1564 C1563 1.410 . S
C1564 C1565 1.392 . S
C1564 C1567 1.511 . S
C1565 C1561 1.376 . S
C1565 C1564 1.392 . S
C1565 H1577 0.929 . S
C1566 C1562 1.531 . S
C1566 H1578 0.960 . S
C1566 H1579 0.962 . S
C1566 H1580 0.960 . S
C1567 C1564 1.511 . S
C1567 H1581 0.961 . S
C1567 H1582 0.961 . S
C1567 H1583 0.961 . S
C1568 C1569 1.370 . S
C1568 C1570 1.363 . S
C1568 H1584 0.931 . S
C1569 C1568 1.370 . S
C1569 C1573 1.408 . S
C1570 C1568 1.363 . S
C1570 C1571 1.370 . S
C1570 C1574 1.524 . S
C1571 C1563 1.503 . S
C1571 C1570 1.370 . S
C1571 C1572 1.403 . S
C1572 C1571 1.403 . S
C1572 C1573 1.404 . S
C1572 C1575 1.539 . S
C1573 C1569 1.408 . S
C1573 C1572 1.404 . S
C1573 H1585 0.930 . S
C1574 C1570 1.524 . S
C1574 H1586 0.956 . S
C1574 H1587 0.961 . S
C1574 H1588 0.961 . S
C1575 C1572 1.539 . S
C1575 H1589 0.958 . S
C1575 H1590 0.961 . S
C1575 H1591 0.960 . S
H1576 C1560 0.931 . S
H1577 C1565 0.929 . S
H1578 C1566 0.960 . S
H1579 C1566 0.962 . S
H1580 C1566 0.960 . S
H1581 C1567 0.961 . S
H1582 C1567 0.961 . S
H1583 C1567 0.961 . S
H1584 C1568 0.931 . S
H1585 C1573 0.930 . S
H1586 C1574 0.956 . S
H1587 C1574 0.961 . S
H1588 C1574 0.961 . S
H1589 C1575 0.958 . S
H1590 C1575 0.961 . S
H1591 C1575 0.960 . S
C1592 C1593 1.391 . S
C1592 C1594 1.394 . S
C1592 H1608 0.931 . S
C1593 C1592 1.391 . S
C1593 C1597 1.376 . S
C1594 C1592 1.394 . S
C1594 C1595 1.369 . S
C1594 C1598 1.531 . S
C1595 C1594 1.369 . S
C1595 C1596 1.410 . S
C1595 C1603 1.503 . S
C1596 C1595 1.410 . S
C1596 C1597 1.392 . S
C1596 C1599 1.511 . S
C1597 C1593 1.376 . S
C1597 C1596 1.392 . S
C1597 H1609 0.929 . S
C1598 C1594 1.531 . S
C1598 H1610 0.960 . S
C1598 H1611 0.962 . S
C1598 H1612 0.960 . S
C1599 C1596 1.511 . S
C1599 H1613 0.961 . S
C1599 H1614 0.961 . S
C1599 H1615 0.961 . S
C1600 C1601 1.370 . S
C1600 C1602 1.363 . S
C1600 H1616 0.931 . S
C1601 C1600 1.370 . S
C1601 C1605 1.408 . S
C1602 C1600 1.363 . S
C1602 C1603 1.370 . S
C1602 C1606 1.524 . S
C1603 C1595 1.503 . S
C1603 C1602 1.370 . S
C1603 C1604 1.403 . S
C1604 C1603 1.403 . S
C1604 C1605 1.404 . S
C1604 C1607 1.539 . S
C1605 C1601 1.408 . S
C1605 C1604 1.404 . S
C1605 H1617 0.930 . S
C1606 C1602 1.524 . S
C1606 H1618 0.956 . S
C1606 H1619 0.961 . S
C1606 H1620 0.961 . S
C1607 C1604 1.539 . S
C1607 H1621 0.958 . S
C1607 H1622 0.961 . S
C1607 H1623 0.960 . S
H1608 C1592 0.931 . S
H1609 C1597 0.929 . S
H1610 C1598 0.960 . S
H1611 C1598 0.962 . S
H1612 C1598 0.960 . S
H1613 C1599 0.961 . S
H1614 C1599 0.961 . S
H1615 C1599 0.961 . S
H1616 C1600 0.931 . S
H1617 C1605 0.930 . S
H1618 C1606 0.956 . S
H1619 C1606 0.961 . S
H1620 C1606 0.961 . S
H1621 C1607 0.958 . S
H1622 C1607 0.961 . S
H1623 C1607 0.960 . S
C609 C509 1.436 . S
C601 C35 1.299 . S
C641 C527 1.466 . S
C633 C115 1.327 . S
C673 C535 1.414 . S
C665 C177 1.344 . S
C697 C221 1.333 . S
C705 C501 1.472 . S
C729 C283 1.319 . S
C737 C496 1.411 1_556 S
C761 C363 1.318 . S
C769 C514 1.463 . S
C801 C522 1.419 . S
C793 C407 1.311 . S
C833 C540 1.447 . S
C825 C469 1.392 . S
C857 C159 1.291 . S
C865 C561 1.433 . S
C897 C579 1.464 . S
C889 C239 1.317 . S
C921 C53 1.306 . S
C929 C587 1.441 . S
C961 C553 1.463 . S
C953 C97 1.399 . S
C985 C425 1.393 . S
C993 C548 1.414 . S
C1017 C487 1.410 . S
C1025 C566 1.448 . S
C1057 C574 1.400 1_556 S
C1049 C301 1.396 . S
C1081 C345 1.382 . S
C1089 C592 1.444 . S
C1121 C530 1.672 . S
C1113 C29 1.623 . S
C1153 C545 1.640 . S
C1145 C109 1.597 . S
C1177 C171 1.594 . S
C1185 C504 1.673 . S
C1209 C215 1.662 . S
C1217 C519 1.636 . S
C1241 C277 1.627 . S
C1249 C543 1.668 . S
C1281 C506 1.640 . S
C1273 C357 1.605 . S
C1313 C517 1.667 . S
C1305 C401 1.655 . S
C1345 C532 1.628 . S
C1337 C463 1.654 . S
C1377 C582 1.668 . S
C1369 C153 1.661 . S
C1409 C597 1.642 . S
C1401 C233 1.597 . S
C1433 C47 1.588 . S
C1441 C556 1.670 . S
C1473 C571 1.645 . S
C1465 C91 1.627 . S
C1505 C595 1.671 . S
C1497 C419 1.583 . S
C1529 C481 1.631 . S
C1537 C558 1.630 . S
C1569 C569 1.670 . S
C1561 C295 1.636 . S
C1601 C584 1.645 . S
C1593 C339 1.641 . S
