# Generated by pormake.
# Topology anh, (6,3)-cn, num edge types: 1
# Building blocks:
#     Node 0, Type 0, BuildingBlock: PAMTOO_clean_sbu_0, # of connection points: 6
#     Node 1, Type 0, BuildingBlock: PAMTOO_clean_sbu_0, # of connection points: 6
#     Node 2, Type 0, BuildingBlock: PAMTOO_clean_sbu_0, # of connection points: 6
#     Node 3, Type 1, BuildingBlock: ESEHIV_clean_linker_0, # of connection points: 3
#     Node 4, Type 1, BuildingBlock: ESEHIV_clean_linker_0, # of connection points: 3
#     Node 5, Type 1, BuildingBlock: ESEHIV_clean_linker_0, # of connection points: 3
#     Node 6, Type 1, BuildingBlock: ESEHIV_clean_linker_0, # of connection points: 3
#     Node 7, Type 1, BuildingBlock: ESEHIV_clean_linker_0, # of connection points: 3
#     Node 8, Type 1, BuildingBlock: ESEHIV_clean_linker_0, # of connection points: 3
#     Edge 9, Type (0, 1), BuildingBlock: ZUJKAS_clean_linker_0, # of connection points: 2
#     Edge 10, Type (0, 1), BuildingBlock: ZUJKAS_clean_linker_0, # of connection points: 2
#     Edge 11, Type (0, 1), BuildingBlock: ZUJKAS_clean_linker_0, # of connection points: 2
#     Edge 12, Type (0, 1), BuildingBlock: ZUJKAS_clean_linker_0, # of connection points: 2
#     Edge 13, Type (0, 1), BuildingBlock: ZUJKAS_clean_linker_0, # of connection points: 2
#     Edge 14, Type (0, 1), BuildingBlock: ZUJKAS_clean_linker_0, # of connection points: 2
#     Edge 15, Type (0, 1), BuildingBlock: ZUJKAS_clean_linker_0, # of connection points: 2
#     Edge 16, Type (0, 1), BuildingBlock: ZUJKAS_clean_linker_0, # of connection points: 2
#     Edge 17, Type (0, 1), BuildingBlock: ZUJKAS_clean_linker_0, # of connection points: 2
#     Edge 18, Type (0, 1), BuildingBlock: ZUJKAS_clean_linker_0, # of connection points: 2
#     Edge 19, Type (0, 1), BuildingBlock: ZUJKAS_clean_linker_0, # of connection points: 2
#     Edge 20, Type (0, 1), BuildingBlock: ZUJKAS_clean_linker_0, # of connection points: 2
#     Edge 21, Type (0, 1), BuildingBlock: ZUJKAS_clean_linker_0, # of connection points: 2
#     Edge 22, Type (0, 1), BuildingBlock: ZUJKAS_clean_linker_0, # of connection points: 2
#     Edge 23, Type (0, 1), BuildingBlock: ZUJKAS_clean_linker_0, # of connection points: 2
#     Edge 24, Type (0, 1), BuildingBlock: ZUJKAS_clean_linker_0, # of connection points: 2
#     Edge 25, Type (0, 1), BuildingBlock: ZUJKAS_clean_linker_0, # of connection points: 2
#     Edge 26, Type (0, 1), BuildingBlock: ZUJKAS_clean_linker_0, # of connection points: 2
# Relax obj value: 0.179
# Max RMSD: 0.195
# Mean RMSD: 0.155
data_MOF--net-anh--node1-PAMTOO_clean_sbu_0--node2-ESEHIV_clean_linker_0--edge1-ZUJKAS_clean_linker_0
_symmetry_space_group_name_H-M    P1
_symmetry_Int_Tables_number       1
_symmetry_cell_setting            triclinic
loop_
_symmetry_equiv_pos_as_xyz
'x, y, z'
_cell_length_a     36.584098
_cell_length_b     35.812924
_cell_length_c     67.627301
_cell_angle_alpha  90.397186
_cell_angle_beta   94.735573
_cell_angle_gamma 105.17287
loop_
_atom_site_label
_atom_site_type_symbol
_atom_site_fract_x
_atom_site_fract_y
_atom_site_fract_z
_atom_type_partial_charge
Dy0 Dy 0.073 0.59923 0.15345 0.0
Dy1 Dy 1.04481 0.5059 0.14128 0.0
C2 C 0.07035 0.56995 0.10844 0.0
O3 O 1.0107 0.58793 0.1435 0.0
O4 O 0.99282 0.52287 0.14917 0.0
O5 O 0.08057 0.65959 0.14657 0.0
O6 O 0.09802 0.64344 0.17596 0.0
O7 O 1.05804 0.51066 0.17419 0.0
O8 O 1.04624 0.56931 0.1794 0.0
O9 O 0.10741 0.52217 0.13784 0.0
O10 O 0.12503 0.57675 0.15818 0.0
O11 O 1.04864 0.44718 0.14521 0.0
O12 O 1.00592 0.45906 0.12389 0.0
C13 C 0.98413 0.55583 0.14592 0.0
O14 O 0.08776 0.59546 0.12243 0.0
O15 O 1.048 0.53615 0.11239 0.0
C16 C 0.13562 0.70031 0.16359 0.0
C17 C 0.20762 0.75417 0.16634 0.0
C18 C 0.20352 0.7155 0.1603 0.0
C19 C 0.16779 0.68883 0.15889 0.0
C20 C 0.13935 0.73895 0.16914 0.0
C21 C 0.17503 0.76573 0.17045 0.0
C22 C 0.09866 0.6717 0.16382 0.0
C23 C 1.0505 0.53631 0.18603 0.0
C24 C 0.13374 0.54899 0.14819 0.0
C25 C 0.98834 0.40195 0.14159 0.0
C26 C 0.92772 0.34573 0.15609 0.0
C27 C 0.94907 0.37716 0.16834 0.0
C28 C 0.97893 0.40509 0.16113 0.0
C29 C 0.96758 0.37049 0.1294 0.0
C30 C 0.93754 0.34263 0.13655 0.0
C31 C 1.01802 0.43252 0.13344 0.0
H32 H 0.22799 0.70581 0.15682 0.0
H33 H 0.16535 0.65907 0.15449 0.0
H34 H 0.11479 0.74823 0.17289 0.0
H35 H 0.1773 0.79518 0.17534 0.0
H36 H 0.94274 0.38023 0.18353 0.0
H37 H 0.9944 0.42939 0.17076 0.0
H38 H 0.97416 0.36784 0.1142 0.0
H39 H 0.92142 0.31922 0.12659 0.0
Dy40 Dy 0.55106 0.01769 0.51734 0.0
Dy41 Dy 0.6447 0.04096 0.52308 0.0
C42 C 0.59574 0.02784 0.55961 0.0
O43 O 0.56825 0.08119 0.51209 0.0
O44 O 0.62865 0.09628 0.52782 0.0
O45 O 0.49771 0.99682 0.53012 0.0
O46 O 0.49821 0.01297 0.49932 0.0
O47 O 0.62744 0.05329 0.49193 0.0
O48 O 0.57182 0.00576 0.48845 0.0
O49 O 0.62824 0.97706 0.51688 0.0
O50 O 0.56554 0.96187 0.52379 0.0
O51 O 0.6987 0.04065 0.51252 0.0
O52 O 0.69672 0.06844 0.54084 0.0
C53 C 0.59893 0.10667 0.51985 0.0
O54 O 0.57007 0.03957 0.54848 0.0
O55 O 0.62325 0.01772 0.5516 0.0
C56 C 0.44861 0.96048 0.50771 0.0
C57 C 0.39249 0.89101 0.49747 0.0
C58 C 0.42944 0.89029 0.50479 0.0
C59 C 0.45726 0.92471 0.50978 0.0
C60 C 0.41198 0.96147 0.50036 0.0
C61 C 0.38414 0.92705 0.49524 0.0
C62 C 0.47751 0.99674 0.5133 0.0
C63 C 0.60007 0.02981 0.48061 0.0
C64 C 0.59653 0.95161 0.52045 0.0
C65 C 0.74611 0.09771 0.52153 0.0
C66 C 0.79976 0.16459 0.51071 0.0
C67 C 0.76098 0.15843 0.5044 0.0
C68 C 0.73437 0.1253 0.5098 0.0
C69 C 0.78462 0.10375 0.52799 0.0
C70 C 0.8113 0.13699 0.52265 0.0
C71 C 0.71813 0.06296 0.5272 0.0
H72 H 0.43678 0.86311 0.50694 0.0
H73 H 0.48547 0.92341 0.51541 0.0
H74 H 0.40491 0.98887 0.49856 0.0
H75 H 0.35622 0.92873 0.48932 0.0
H76 H 0.75115 0.1794 0.49542 0.0
H77 H 0.7046 0.12118 0.50484 0.0
H78 H 0.79407 0.08272 0.53711 0.0
H79 H 0.841 0.14077 0.52758 0.0
Dy80 Dy 0.58186 0.48508 0.84715 0.0
Dy81 Dy 0.48987 0.46681 0.8379 0.0
C82 C 0.54512 0.4791 0.80379 0.0
O83 O 0.57123 0.5425 0.84003 0.0
O84 O 0.50838 0.52994 0.84591 0.0
O85 O 0.63803 0.5157 0.84039 0.0
O86 O 0.63073 0.47647 0.86497 0.0
O87 O 0.50067 0.45492 0.87003 0.0
O88 O 0.55843 0.49924 0.87467 0.0
O89 O 0.50175 0.40932 0.83403 0.0
O90 O 0.5606 0.4215 0.85127 0.0
O91 O 0.43398 0.46729 0.84567 0.0
O92 O 0.4412 0.44566 0.81666 0.0
C93 C 0.54092 0.55436 0.84287 0.0
O94 O 0.56808 0.465 0.81555 0.0
O95 O 0.51811 0.49136 0.81107 0.0
C96 C 0.68381 0.48109 0.84673 0.0
C97 C 0.74458 0.45888 0.83166 0.0
C98 C 0.70907 0.45112 0.82055 0.0
C99 C 0.67879 0.46206 0.82807 0.0
C100 C 0.71831 0.48669 0.85832 0.0
C101 C 0.74843 0.47567 0.85089 0.0
C102 C 0.65457 0.4979 0.85368 0.0
C103 C 0.52798 0.47758 0.88182 0.0
C104 C 0.52997 0.39734 0.84262 0.0
C105 C 0.40016 0.48558 0.81832 0.0
C106 C 0.36496 0.54272 0.80462 0.0
C107 C 0.40466 0.55159 0.8086 0.0
C108 C 0.42206 0.52321 0.81525 0.0
C109 C 0.3609 0.47584 0.81334 0.0
C110 C 0.3434 0.50416 0.80638 0.0
C111 C 0.41863 0.45767 0.82763 0.0
H112 H 0.7052 0.43811 0.80576 0.0
H113 H 0.65205 0.45718 0.819 0.0
H114 H 0.72255 0.50127 0.87275 0.0
H115 H 0.77552 0.48281 0.85974 0.0
H116 H 0.4222 0.58091 0.8077 0.0
H117 H 0.45256 0.53106 0.81877 0.0
H118 H 0.3437 0.44675 0.81538 0.0
H119 H 0.31285 0.49615 0.80305 0.0
H120 H 0.54169 0.99899 0.26435 0.0
H121 H 0.64475 0.09077 0.26656 0.0
H122 H 0.58492 0.04698 0.21016 0.0
C123 C 0.56333 0.0189 0.25677 0.0
C124 C 0.55986 0.01954 0.23594 0.0
C125 C 0.59364 0.04469 0.26795 0.0
C126 C 0.6208 0.07137 0.25804 0.0
C127 C 0.61804 0.07232 0.23719 0.0
C128 C 0.58739 0.04632 0.22623 0.0
H129 H 0.59974 0.58513 0.59589 0.0
H130 H 0.60131 0.46593 0.59203 0.0
H131 H 0.60856 0.53333 0.53934 0.0
C132 C 0.60128 0.56026 0.58708 0.0
C133 C 0.60458 0.56369 0.56656 0.0
C134 C 0.60012 0.52517 0.59638 0.0
C135 C 0.60267 0.49331 0.58498 0.0
C136 C 0.60569 0.49589 0.56444 0.0
C137 C 0.60597 0.53105 0.55516 0.0
H138 H 1.06061 0.63639 0.89869 0.0
H139 H 0.17359 0.71211 0.90745 0.0
H140 H 0.12128 0.68003 0.84837 0.0
C141 C 0.08537 0.6547 0.89258 0.0
C142 C 0.08699 0.6561 0.87191 0.0
C143 C 0.11637 0.67488 0.90549 0.0
C144 C 0.14899 0.6976 0.8976 0.0
C145 C 0.15028 0.70064 0.87695 0.0
C146 C 0.11911 0.68 0.86427 0.0
H147 H 1.03139 0.4608 0.40151 0.0
H148 H 0.11339 0.57049 0.39834 0.0
H149 H 0.08809 0.52196 0.4552 0.0
C150 C 1.05199 0.48535 0.40888 0.0
C151 C 1.05758 0.48745 0.42973 0.0
C152 C 0.07179 0.51526 0.39747 0.0
C153 C 0.09733 0.54769 0.4071 0.0
C154 C 0.10335 0.55038 0.42789 0.0
C155 C 0.08346 0.52008 0.43914 0.0
H156 H 0.54237 0.04011 0.77141 0.0
H157 H 0.56164 0.92693 0.76995 0.0
H158 H 0.53977 0.97542 0.82488 0.0
C159 C 0.54437 0.01393 0.77889 0.0
C160 C 0.53983 0.0112 0.79927 0.0
C161 C 0.5526 0.9839 0.76822 0.0
C162 C 0.55626 0.95072 0.77821 0.0
C163 C 0.55147 0.94721 0.7986 0.0
C164 C 0.54337 0.97773 0.80915 0.0
H165 H 0.48556 0.52384 0.09557 0.0
H166 H 0.60442 0.53048 0.09554 0.0
H167 H 0.55791 0.54837 0.15029 0.0
C168 C 0.51333 0.52794 0.10357 0.0
C169 C 0.51756 0.5357 0.12414 0.0
C170 C 0.54441 0.5264 0.0931 0.0
C171 C 0.58034 0.53238 0.10347 0.0
C172 C 0.58568 0.54027 0.12401 0.0
C173 C 0.55417 0.54244 0.13442 0.0
H174 H 0.16281 0.49266 0.1328 0.0
H175 H 0.22941 0.4919 0.13265 0.0
H176 H 0.2642 0.60332 0.16313 0.0
H177 H 0.19759 0.60382 0.16383 0.0
H178 H 0.28607 0.53878 0.11546 0.0
H179 H 0.32675 0.54661 0.19647 0.0
H180 H 0.27791 0.53694 0.18631 0.0
H181 H 0.30789 0.5857 0.18797 0.0
C182 C 0.18453 0.51692 0.13964 0.0
C183 C 0.17452 0.54822 0.14841 0.0
C184 C 0.22278 0.51646 0.13953 0.0
C185 C 0.25219 0.54722 0.14818 0.0
C186 C 0.24229 0.57865 0.15684 0.0
H187 H 0.50085 0.59636 0.14345 0.0
H188 H 0.43717 0.60033 0.15111 0.0
C189 C 0.204 0.57903 0.15708 0.0
C190 C 0.29301 0.54696 0.14725 0.0
H191 H 0.37692 0.55304 0.17543 0.0
C192 C 0.30577 0.54178 0.12863 0.0
C193 C 0.31917 0.55109 0.16436 0.0
C194 C 0.30723 0.55503 0.18493 0.0
C195 C 0.34349 0.54067 0.12662 0.0
C196 C 0.36948 0.54441 0.14371 0.0
C197 C 0.35709 0.55021 0.16233 0.0
C198 C 0.40907 0.54085 0.14232 0.0
C199 C 0.35536 0.53576 0.10612 0.0
C200 C 0.41487 0.50572 0.13578 0.0
C201 C 0.45106 0.50339 0.13158 0.0
C202 C 0.48253 0.53606 0.13393 0.0
C203 C 0.47732 0.57058 0.14181 0.0
C204 C 0.44087 0.57292 0.14601 0.0
H205 H 0.33525 0.54258 0.09436 0.0
H206 H 0.38428 0.5546 0.10449 0.0
H207 H 0.35602 0.50526 0.10373 0.0
H208 H 0.391 0.48043 0.13307 0.0
H209 H 0.45413 0.47649 0.1254 0.0
H210 H 0.8039 0.19589 0.47401 0.0
H211 H 0.85063 0.253 0.46376 0.0
H212 H 0.90618 0.2693 0.52315 0.0
H213 H 0.8595 0.21199 0.53354 0.0
H214 H 0.86725 0.32876 0.47788 0.0
H215 H 0.9935 0.26983 0.48902 0.0
H216 H 0.94547 0.23964 0.48872 0.0
H217 H 0.96722 0.2689 0.51039 0.0
C218 C 0.82594 0.21174 0.48493 0.0
C219 C 0.82809 0.1994 0.50457 0.0
C220 C 0.85268 0.24428 0.47903 0.0
C221 C 0.88213 0.26507 0.49263 0.0
C222 C 0.88415 0.25317 0.51232 0.0
H223 H 1.02254 0.49362 0.46345 0.0
H224 H 0.98218 0.44116 0.4811 0.0
C225 C 0.85746 0.22047 0.51823 0.0
C226 C 0.91036 0.29939 0.48606 0.0
H227 H 1.00439 0.33458 0.47902 0.0
C228 C 0.89729 0.33019 0.47823 0.0
C229 C 0.94945 0.30092 0.48641 0.0
C230 C 0.96485 0.26797 0.49392 0.0
C231 C 0.92215 0.3623 0.47043 0.0
C232 C 0.96126 0.36391 0.47083 0.0
C233 C 0.97444 0.33337 0.47892 0.0
C234 C 0.98834 0.39559 0.4615 0.0
C235 C 0.90608 0.39346 0.46112 0.0
C236 C 1.00638 0.38716 0.44516 0.0
C237 C 1.02975 0.41693 0.43523 0.0
C238 C 1.03559 0.45575 0.44146 0.0
C239 C 1.01871 0.46402 0.45834 0.0
C240 C 0.99533 0.43414 0.4683 0.0
H241 H 0.87464 0.38382 0.45821 0.0
H242 H 0.91323 0.41922 0.47132 0.0
H243 H 0.91854 0.40239 0.44691 0.0
H244 H 1.00156 0.35756 0.43977 0.0
H245 H 1.04291 0.40958 0.42251 0.0
H246 H 0.6014 0.6134 0.8341 0.0
H247 H 0.60334 0.6817 0.83016 0.0
H248 H 0.48716 0.6587 0.84467 0.0
H249 H 0.48476 0.59025 0.84862 0.0
H250 H 0.54985 0.70818 0.80223 0.0
H251 H 0.54743 0.75572 0.88054 0.0
H252 H 0.56272 0.71343 0.87415 0.0
H253 H 0.51311 0.71171 0.87176 0.0
C254 C 0.57633 0.62283 0.83668 0.0
C255 C 0.54294 0.59623 0.84171 0.0
C256 C 0.57753 0.6619 0.83441 0.0
C257 C 0.54555 0.67528 0.83734 0.0
C258 C 0.51234 0.64905 0.84266 0.0
H259 H 0.49939 0.90089 0.82079 0.0
H260 H 0.49806 0.83514 0.83149 0.0
C261 C 0.51102 0.60988 0.84483 0.0
C262 C 0.54626 0.71615 0.83349 0.0
H263 H 0.54501 0.80164 0.85585 0.0
C264 C 0.5489 0.72867 0.81395 0.0
C265 C 0.54449 0.74258 0.84879 0.0
C266 C 0.542 0.73047 0.87005 0.0
C267 C 0.54974 0.76695 0.80922 0.0
C268 C 0.54909 0.79382 0.82458 0.0
C269 C 0.54584 0.78113 0.84413 0.0
C270 C 0.55196 0.83515 0.82047 0.0
C271 C 0.5505 0.77797 0.78772 0.0
C272 C 0.58344 0.85755 0.81157 0.0
C273 C 0.5841 0.8948 0.80536 0.0
C274 C 0.55358 0.91068 0.80825 0.0
C275 C 0.52332 0.88936 0.81845 0.0
C276 C 0.52248 0.8518 0.82449 0.0
H277 H 0.5397 0.75222 0.77756 0.0
H278 H 0.53317 0.79872 0.78428 0.0
H279 H 0.58024 0.79189 0.78463 0.0
H280 H 0.607 0.84572 0.80883 0.0
H281 H 0.60797 0.91084 0.79774 0.0
H282 H 0.95367 0.61854 0.14197 0.0
H283 H 0.88678 0.61915 0.14197 0.0
H284 H 0.85501 0.49555 0.14873 0.0
H285 H 0.92156 0.49475 0.14911 0.0
H286 H 0.82512 0.58442 0.11703 0.0
H287 H 0.80067 0.52889 0.19227 0.0
H288 H 0.84766 0.54517 0.1839 0.0
H289 H 0.81827 0.49738 0.17709 0.0
C290 C 0.93251 0.59148 0.14356 0.0
C291 C 0.94334 0.55664 0.14566 0.0
C292 C 0.89415 0.59187 0.14356 0.0
C293 C 0.86561 0.55752 0.14577 0.0
C294 C 0.87634 0.52267 0.14758 0.0
H295 H 0.61936 0.48361 0.13514 0.0
H296 H 0.68771 0.49025 0.14216 0.0
C297 C 0.9146 0.52224 0.14762 0.0
C298 C 0.82459 0.55781 0.14546 0.0
H299 H 0.74524 0.52939 0.17102 0.0
C300 C 0.80783 0.57279 0.12896 0.0
C301 C 0.80169 0.5426 0.16098 0.0
C302 C 0.81805 0.52795 0.17965 0.0
C303 C 0.76888 0.57182 0.12724 0.0
C304 C 0.74586 0.55606 0.14261 0.0
C305 C 0.7627 0.54153 0.15923 0.0
C306 C 0.70399 0.55276 0.14117 0.0
C307 C 0.75241 0.58639 0.10857 0.0
C308 C 0.6899 0.58569 0.13919 0.0
C309 C 0.65069 0.58189 0.1354 0.0
C310 C 0.62473 0.5451 0.13375 0.0
C311 C 0.63863 0.51234 0.13683 0.0
C312 C 0.67776 0.51613 0.14066 0.0
H313 H 0.77145 0.58906 0.09638 0.0
H314 H 0.72429 0.56681 0.10337 0.0
H315 H 0.7484 0.61544 0.11171 0.0
H316 H 0.70936 0.61433 0.13984 0.0
H317 H 0.64087 0.60755 0.13262 0.0
H318 H 0.31671 0.87315 0.50356 0.0
H319 H 0.26789 0.8137 0.49363 0.0
H320 H 0.35242 0.76584 0.47002 0.0
H321 H 0.4011 0.82587 0.47899 0.0
H322 H 0.29036 0.7561 0.44443 0.0
H323 H 0.24662 0.70889 0.51874 0.0
H324 H 0.2437 0.75718 0.51365 0.0
H325 H 0.28924 0.74649 0.5154 0.0
C326 C 0.32493 0.85008 0.49615 0.0
C327 C 0.36289 0.85435 0.49208 0.0
C328 C 0.29705 0.81586 0.49076 0.0
C329 C 0.30663 0.78504 0.48143 0.0
C330 C 0.34447 0.78913 0.47738 0.0
H331 H 0.15918 0.55196 0.45768 0.0
H332 H 0.20855 0.60864 0.47138 0.0
C333 C 0.37232 0.8234 0.48265 0.0
C334 C 0.2769 0.74938 0.47483 0.0
H335 H 0.20607 0.67642 0.49084 0.0
C336 C 0.2721 0.73856 0.45461 0.0
C337 C 0.25342 0.72621 0.48817 0.0
C338 C 0.2587 0.73501 0.51023 0.0
C339 C 0.24396 0.70569 0.44727 0.0
C340 C 0.21932 0.68356 0.46044 0.0
C341 C 0.22466 0.69378 0.48074 0.0
C342 C 0.18791 0.64972 0.4533 0.0
C343 C 0.24124 0.69472 0.42549 0.0
C344 C 0.15934 0.65426 0.43909 0.0
C345 C 0.13131 0.62205 0.43123 0.0
C346 C 0.13106 0.58472 0.43761 0.0
C347 C 0.15863 0.5804 0.45255 0.0
C348 C 0.18686 0.61269 0.46032 0.0
H349 H 0.26828 0.7077 0.41881 0.0
H350 H 0.234 0.66281 0.42316 0.0
H351 H 0.21858 0.70558 0.41747 0.0
H352 H 0.15906 0.6827 0.43385 0.0
H353 H 0.10999 0.62628 0.42 0.0
H354 H 0.47445 0.33879 0.82346 0.0
H355 H 0.47318 0.27039 0.8206 0.0
H356 H 0.57934 0.29224 0.85707 0.0
H357 H 0.58093 0.36076 0.8601 0.0
H358 H 0.53231 0.24408 0.80425 0.0
H359 H 0.51049 0.19466 0.88122 0.0
H360 H 0.49907 0.23796 0.87212 0.0
H361 H 0.54766 0.23813 0.87867 0.0
C362 C 0.49734 0.32908 0.83109 0.0
C363 C 0.52784 0.35539 0.84198 0.0
C364 C 0.49652 0.28993 0.82945 0.0
C365 C 0.52592 0.2762 0.83881 0.0
C366 C 0.55602 0.30213 0.85002 0.0
H367 H 0.58313 0.0554 0.83011 0.0
H368 H 0.57843 0.11914 0.84167 0.0
C369 C 0.55698 0.34136 0.85161 0.0
C370 C 0.52659 0.23546 0.83541 0.0
H371 H 0.52261 0.14984 0.8583 0.0
C372 C 0.53 0.22342 0.81605 0.0
C373 C 0.52411 0.2088 0.8509 0.0
C374 C 0.51986 0.22028 0.87191 0.0
C375 C 0.53117 0.18544 0.8117 0.0
C376 C 0.52777 0.15839 0.82707 0.0
C377 C 0.52488 0.17053 0.84654 0.0
C378 C 0.52709 0.11747 0.82293 0.0
C379 C 0.53681 0.17487 0.79072 0.0
C380 C 0.49876 0.09471 0.80938 0.0
C381 C 0.50156 0.05867 0.80272 0.0
C382 C 0.53235 0.04444 0.80978 0.0
C383 C 0.55899 0.06571 0.82459 0.0
C384 C 0.5564 0.1021 0.83111 0.0
H385 H 0.54925 0.20091 0.78223 0.0
H386 H 0.5557 0.15514 0.79058 0.0
H387 H 0.50888 0.15986 0.78292 0.0
H388 H 0.47548 0.10568 0.8032 0.0
H389 H 0.48064 0.04268 0.79133 0.0
H390 H 0.53632 0.88992 0.52661 0.0
H391 H 0.53672 0.82231 0.53067 0.0
H392 H 0.65591 0.8512 0.52134 0.0
H393 H 0.65576 0.91889 0.51693 0.0
H394 H 0.61326 0.78112 0.50184 0.0
H395 H 0.58581 0.78652 0.58126 0.0
H396 H 0.5514 0.80013 0.56432 0.0
H397 H 0.59967 0.82953 0.56697 0.0
C398 C 0.56262 0.88198 0.52527 0.0
C399 C 0.59611 0.91007 0.52162 0.0
C400 C 0.56279 0.84326 0.52767 0.0
C401 C 0.59648 0.83182 0.52663 0.0
C402 C 0.62962 0.85943 0.52227 0.0
H403 H 0.65068 0.63342 0.57965 0.0
H404 H 0.64933 0.69742 0.56794 0.0
C405 C 0.62948 0.89817 0.51981 0.0
C406 C 0.59762 0.79152 0.53097 0.0
H407 H 0.58668 0.72582 0.56781 0.0
C408 C 0.6074 0.76892 0.51624 0.0
C409 C 0.59039 0.77587 0.54985 0.0
C410 C 0.58156 0.7993 0.56659 0.0
C411 C 0.61 0.731 0.51989 0.0
C412 C 0.60224 0.71522 0.53868 0.0
C413 C 0.59243 0.73787 0.55336 0.0
C414 C 0.60567 0.67599 0.54397 0.0
C415 C 0.62199 0.70853 0.5038 0.0
C416 C 0.58213 0.64249 0.53412 0.0
C417 C 0.58298 0.60567 0.54078 0.0
C418 C 0.60704 0.6019 0.55754 0.0
C419 C 0.63154 0.63546 0.56684 0.0
C420 C 0.63082 0.67204 0.56015 0.0
H421 H 0.63523 0.72764 0.49203 0.0
H422 H 0.64245 0.69272 0.51007 0.0
H423 H 0.59662 0.68691 0.4968 0.0
H424 H 0.56205 0.64481 0.5218 0.0
H425 H 0.5636 0.5803 0.53344 0.0
H426 H 0.80426 0.43377 0.84843 0.0
H427 H 0.86919 0.456 0.83922 0.0
H428 H 0.8287 0.49861 0.78446 0.0
H429 H 0.76381 0.47855 0.79412 0.0
H430 H 0.91967 0.46138 0.80916 0.0
H431 H 0.87328 0.59676 0.81868 0.0
H432 H 0.84305 0.55013 0.82382 0.0
H433 H 0.84993 0.56389 0.7986 0.0
C434 C 0.80902 0.44674 0.83412 0.0
C435 C 0.77922 0.45606 0.82246 0.0
C436 C 0.84615 0.45909 0.82876 0.0
C437 C 0.85377 0.48038 0.81155 0.0
C438 C 0.82337 0.48317 0.79809 0.0
H439 H 1.05635 0.67182 0.83546 0.0
H440 H 1.00659 0.62817 0.81354 0.0
C441 C 0.78618 0.4714 0.8036 0.0
C442 C 0.89192 0.5073 0.81087 0.0
H443 H 0.9375 0.60155 0.82282 0.0
C444 C 0.92375 0.49223 0.81156 0.0
C445 C 0.89721 0.54766 0.81391 0.0
C446 C 0.86419 0.56575 0.81383 0.0
C447 C 0.96046 0.516 0.81678 0.0
C448 C 0.96511 0.5555 0.82178 0.0
C449 C 0.93383 0.5712 0.81911 0.0
C450 C 0.9999 0.57953 0.83299 0.0
C451 C 0.99358 0.49818 0.81773 0.0
C452 C 1.01268 0.56673 0.8512 0.0
C453 C 1.04114 0.59147 0.86367 0.0
C454 C 1.05702 0.62984 0.85839 0.0
C455 C 1.04478 0.64241 0.83995 0.0
C456 C 1.01646 0.61748 0.82738 0.0
H457 H 0.98896 0.47482 0.80617 0.0
H458 H 1.02071 0.52004 0.81574 0.0
H459 H 0.99609 0.48486 0.83238 0.0
H460 H 0.99958 0.53805 0.85619 0.0
H461 H 1.05048 0.58053 0.87755 0.0
H462 H 0.22893 0.8299 0.15548 0.0
H463 H 0.29116 0.87639 0.16241 0.0
H464 H 0.33444 0.78786 0.19141 0.0
H465 H 0.27261 0.7413 0.18437 0.0
H466 H 0.32739 0.90105 0.19818 0.0
H467 H 0.4183 0.83297 0.15661 0.0
H468 H 0.36706 0.8182 0.15286 0.0
H469 H 0.39152 0.8002 0.17333 0.0
C470 C 0.25183 0.82031 0.16319 0.0
C471 C 0.24589 0.78188 0.1693 0.0
C472 C 0.28739 0.84684 0.16707 0.0
C473 C 0.3177 0.83547 0.17712 0.0
C474 C 0.31188 0.79705 0.18311 0.0
H475 H 0.5312 0.94218 0.24112 0.0
H476 H 0.47313 0.89922 0.22466 0.0
C477 C 0.27644 0.77047 0.17913 0.0
C478 C 0.35449 0.86436 0.1827 0.0
H479 H 0.45065 0.8811 0.18159 0.0
C480 C 0.35429 0.89701 0.19428 0.0
C481 C 0.38962 0.85908 0.1776 0.0
C482 C 0.39168 0.82591 0.16424 0.0
C483 C 0.38829 0.92363 0.20157 0.0
C484 C 0.42337 0.91759 0.19703 0.0
C485 C 0.42364 0.88554 0.18506 0.0
C486 C 0.46002 0.94308 0.20561 0.0
C487 C 0.38655 0.95722 0.21473 0.0
C488 C 0.47225 0.98171 0.2 0.0
C489 C 0.50546 0.00633 0.20937 0.0
C490 C 0.5268 0.9927 0.22457 0.0
C491 C 0.51508 0.95361 0.22964 0.0
C492 C 0.48207 0.929 0.22019 0.0
H493 H 0.3575 0.95442 0.2193 0.0
H494 H 0.40651 0.95961 0.22826 0.0
H495 H 0.3953 0.9845 0.2066 0.0
H496 H 0.45571 0.99297 0.18865 0.0
H497 H 0.51369 0.03634 0.20522 0.0
H498 H 0.54505 0.14067 0.50323 0.0
H499 H 0.54636 0.20932 0.50424 0.0
H500 H 0.65553 0.23562 0.53819 0.0
H501 H 0.65494 0.16741 0.53687 0.0
H502 H 0.54793 0.25501 0.53605 0.0
H503 H 0.67571 0.31669 0.49669 0.0
H504 H 0.653 0.26542 0.49625 0.0
H505 H 0.6857 0.28786 0.51697 0.0
C506 C 0.56954 0.16108 0.51076 0.0
C507 C 0.59992 0.14841 0.51995 0.0
C508 C 0.57024 0.20036 0.51129 0.0
C509 C 0.60136 0.22782 0.52096 0.0
C510 C 0.63169 0.21523 0.53015 0.0
H511 H 0.65599 0.45305 0.57242 0.0
H512 H 0.65388 0.38953 0.5581 0.0
C513 C 0.63112 0.17605 0.52954 0.0
C514 C 0.60107 0.26919 0.52267 0.0
H515 H 0.65496 0.36149 0.51702 0.0
C516 C 0.57096 0.27828 0.53153 0.0
C517 C 0.63106 0.29961 0.51671 0.0
C518 C 0.66297 0.29191 0.50593 0.0
C519 C 0.57106 0.31684 0.53558 0.0
C520 C 0.60192 0.34714 0.53046 0.0
C521 C 0.63133 0.33818 0.52093 0.0
C522 C 0.60594 0.38784 0.53682 0.0
C523 C 0.53913 0.32488 0.54623 0.0
C524 C 0.58053 0.40858 0.52908 0.0
C525 C 0.58187 0.44514 0.53718 0.0
C526 C 0.60845 0.46117 0.5532 0.0
C527 C 0.63511 0.44121 0.56013 0.0
C528 C 0.63396 0.40499 0.55196 0.0
H529 H 0.52004 0.29803 0.55151 0.0
H530 H 0.55073 0.34498 0.55916 0.0
H531 H 0.5219 0.339 0.536 0.0
H532 H 0.5589 0.39593 0.51727 0.0
H533 H 0.56091 0.45988 0.53166 0.0
H534 H 0.38821 0.60939 0.78351 0.0
H535 H 0.36289 0.66645 0.78423 0.0
H536 H 0.27425 0.60481 0.81927 0.0
H537 H 0.29948 0.54875 0.81913 0.0
H538 H 0.25113 0.65192 0.78817 0.0
H539 H 0.3776 0.73088 0.83765 0.0
H540 H 0.38284 0.71152 0.81368 0.0
H541 H 0.36846 0.67933 0.83347 0.0
C542 C 0.36306 0.60792 0.79118 0.0
C543 C 0.34607 0.57448 0.8014 0.0
C544 C 0.34864 0.64049 0.7915 0.0
C545 C 0.31697 0.63986 0.80194 0.0
C546 C 0.29864 0.60577 0.81102 0.0
H547 H 0.21866 0.68637 0.88582 0.0
H548 H 0.26838 0.69411 0.86333 0.0
C549 C 0.31302 0.57351 0.8108 0.0
C550 C 0.30415 0.67491 0.80559 0.0
H551 H 0.31934 0.74426 0.8423 0.0
C552 C 0.26632 0.67345 0.7994 0.0
C553 C 0.32451 0.70323 0.81995 0.0
C554 C 0.36566 0.70668 0.82666 0.0
C555 C 0.24632 0.69486 0.80955 0.0
C556 C 0.26533 0.71911 0.82598 0.0
C557 C 0.3048 0.72533 0.82989 0.0
C558 C 0.24361 0.7278 0.84219 0.0
C559 C 0.204 0.68706 0.80427 0.0
C560 C 0.21496 0.74706 0.83872 0.0
C561 C 0.18599 0.74201 0.8515 0.0
C562 C 0.18611 0.71857 0.86811 0.0
C563 C 0.21791 0.70458 0.87314 0.0
C564 C 0.24639 0.70901 0.86022 0.0
H565 H 0.19364 0.66558 0.79178 0.0
H566 H 0.18827 0.67592 0.81729 0.0
H567 H 0.19698 0.71429 0.79984 0.0
H568 H 0.21295 0.76275 0.82522 0.0
H569 H 0.16184 0.75344 0.84748 0.0
H570 H 0.90559 0.26707 0.14886 0.0
H571 H 0.85074 0.22013 0.16045 0.0
H572 H 0.82182 0.31138 0.19253 0.0
H573 H 0.87531 0.35874 0.18022 0.0
H574 H 0.83475 0.19978 0.19774 0.0
H575 H 0.72121 0.25991 0.16253 0.0
H576 H 0.76967 0.27504 0.15608 0.0
H577 H 0.75606 0.29497 0.17797 0.0
C578 C 0.88722 0.2773 0.15811 0.0
C579 C 0.89486 0.31682 0.16349 0.0
C580 C 0.85602 0.25035 0.16484 0.0
C581 C 0.83173 0.2623 0.17706 0.0
C582 C 0.83959 0.30157 0.18273 0.0
H583 H 0.64865 0.14925 0.2462 0.0
H584 H 0.70003 0.19431 0.23065 0.0
C585 C 0.87062 0.32857 0.17591 0.0
C586 C 0.79893 0.23354 0.18442 0.0
H587 H 0.70284 0.21273 0.18719 0.0
C588 C 0.80587 0.2024 0.19526 0.0
C589 C 0.76119 0.23691 0.18113 0.0
C590 C 0.75147 0.26828 0.16862 0.0
C591 C 0.77629 0.17522 0.20335 0.0
C592 C 0.73881 0.17918 0.20044 0.0
C593 C 0.7317 0.20995 0.18943 0.0
C594 C 0.70678 0.15211 0.20918 0.0
C595 C 0.78535 0.14298 0.2154 0.0
C596 C 0.69322 0.11369 0.20201 0.0
C597 C 0.66381 0.08792 0.21081 0.0
C598 C 0.64763 0.10014 0.22701 0.0
C599 C 0.66086 0.1389 0.23389 0.0
C600 C 0.69004 0.16468 0.22498 0.0
H601 H 0.81644 0.1474 0.21884 0.0
H602 H 0.77159 0.14056 0.22955 0.0
H603 H 0.77393 0.11511 0.20695 0.0
H604 H 0.70565 0.10358 0.18971 0.0
H605 H 0.65438 0.05819 0.20528 0.0
H606 H 1.061 0.52056 0.07621 0.0
H607 H 0.07294 0.53772 0.04189 0.0
H608 H 0.10346 0.65888 0.05919 0.0
H609 H 0.09328 0.64192 0.09353 0.0
H610 H 1.04084 0.57544 0.01618 0.0
H611 H 0.19183 0.65653 0.02929 0.0
H612 H 0.1665 0.62802 0.04818 0.0
H613 H 0.16286 0.67666 0.04408 0.0
C614 C 0.07048 0.55083 0.07268 0.0
C615 C 0.07654 0.57988 0.08758 0.0
C616 C 0.07733 0.56062 0.05308 0.0
C617 C 0.09 0.59961 0.048 0.0
C618 C 0.09506 0.6286 0.06281 0.0
H619 H 0.06268 0.68401 0.92933 0.0
H620 H 1.05755 0.66627 0.96411 0.0
C621 C 0.0889 0.61885 0.08244 0.0
C622 C 0.09642 0.61012 0.02711 0.0
H623 H 0.15981 0.66674 -0.00184 0.0
C624 C 0.06701 0.59511 0.01222 0.0
C625 C 0.13086 0.63517 0.02182 0.0
C626 C 0.16492 0.64964 0.03667 0.0
C627 C 0.07063 0.60529 0.99234 0.0
C628 C 0.10402 0.63247 0.9873 0.0
C629 C 0.1339 0.64655 0.00207 0.0
C630 C 0.10869 0.64626 0.96675 0.0
C631 C 1.03884 0.58615 0.97694 0.0
C632 C 0.14035 0.64322 0.95705 0.0
C633 C 0.14384 0.65439 0.93738 0.0
C634 C 0.11558 0.66853 0.92705 0.0
C635 C 0.08467 0.67293 0.93698 0.0
C636 C 0.08154 0.66239 0.95674 0.0
H637 H 1.02202 0.55783 0.98196 0.0
H638 H 1.01923 0.60495 0.97443 0.0
H639 H 1.04991 0.58136 0.96261 0.0
H640 H 0.16182 0.63114 0.9645 0.0
H641 H 0.16776 0.65041 0.92996 0.0
H642 H 0.65603 0.0725 0.4593 0.0
H643 H 0.65612 0.07595 0.42319 0.0
H644 H 0.5459 0.99384 0.41632 0.0
H645 H 0.54538 0.99024 0.45241 0.0
H646 H 0.64876 0.01391 0.39467 0.0
H647 H 0.53297 0.08776 0.38327 0.0
H648 H 0.55827 0.08631 0.40722 0.0
H649 H 0.52192 0.04468 0.39753 0.0
C650 C 0.63176 0.05516 0.45014 0.0
C651 C 0.6006 0.03121 0.45876 0.0
C652 C 0.63192 0.05716 0.42951 0.0
C653 C 0.60083 0.03553 0.41714 0.0
C654 C 0.56991 0.01121 0.42565 0.0
H655 H 0.58333 0.98123 0.2912 0.0
H656 H 0.58645 0.97976 0.32747 0.0
C657 C 0.56977 0.00906 0.44628 0.0
C658 C 0.60089 0.03818 0.39531 0.0
H659 H 0.55461 0.06582 0.35436 0.0
C660 C 0.62827 0.02533 0.38583 0.0
C661 C 0.57438 0.05354 0.3839 0.0
C662 C 0.54538 0.0692 0.39345 0.0
C663 C 0.62934 0.02671 0.36514 0.0
C664 C 0.60214 0.04104 0.35368 0.0
C665 C 0.57525 0.05461 0.3632 0.0
C666 C 0.60096 0.042 0.33176 0.0
C667 C 0.65976 0.01319 0.3557 0.0
C668 C 0.60753 0.07747 0.32219 0.0
C669 C 0.60562 0.07841 0.30147 0.0
C670 C 0.59668 0.04383 0.28997 0.0
C671 C 0.59002 0.00834 0.29964 0.0
C672 C 0.59212 0.00745 0.32035 0.0
H673 H 0.68352 0.01163 0.36674 0.0
H674 H 0.64722 0.98383 0.34893 0.0
H675 H 0.67139 0.03278 0.34376 0.0
H676 H 0.61414 0.10443 0.33076 0.0
H677 H 0.61043 0.10616 0.29444 0.0
H678 H 0.59816 0.45695 0.78355 0.0
H679 H 0.60859 0.46573 0.74839 0.0
H680 H 0.51597 0.51947 0.74066 0.0
H681 H 0.50537 0.51103 0.77575 0.0
H682 H 0.55488 0.4377 0.7146 0.0
H683 H 0.60651 0.59819 0.71836 0.0
H684 H 0.60488 0.5691 0.74014 0.0
H685 H 0.56214 0.5785 0.72882 0.0
C686 C 0.58 0.47065 0.77438 0.0
C687 C 0.55102 0.48342 0.78246 0.0
C688 C 0.58602 0.47564 0.75431 0.0
C689 C 0.5634 0.49373 0.74205 0.0
C690 C 0.53416 0.50605 0.74999 0.0
H691 H 0.55169 0.55182 0.61799 0.0
H692 H 0.54328 0.54385 0.65341 0.0
C693 C 0.52803 0.501 0.77002 0.0
C694 C 0.56988 0.49909 0.72083 0.0
H695 H 0.59503 0.5681 0.6863 0.0
C696 C 0.56386 0.46617 0.7084 0.0
C697 C 0.58143 0.53631 0.71285 0.0
C698 C 0.58946 0.57261 0.72572 0.0
C699 C 0.56836 0.46944 0.68802 0.0
C700 C 0.58 0.50668 0.68002 0.0
C701 C 0.58611 0.53961 0.69249 0.0
C702 C 0.5858 0.51208 0.6587 0.0
C703 C 0.55963 0.43304 0.67517 0.0
C704 C 0.613 0.49751 0.65005 0.0
C705 C 0.61786 0.50202 0.62986 0.0
C706 C 0.59586 0.52154 0.61798 0.0
C707 C 0.56926 0.53691 0.62679 0.0
C708 C 0.56431 0.53224 0.64698 0.0
H709 H 0.54159 0.40792 0.68242 0.0
H710 H 0.54493 0.43692 0.66059 0.0
H711 H 0.58663 0.42605 0.67243 0.0
H712 H 0.63054 0.48271 0.65894 0.0
H713 H 0.63905 0.49046 0.62355 0.0
H714 H 0.54257 0.04617 0.58127 0.0
H715 H 0.53705 0.03937 0.61693 0.0
H716 H 0.63632 0.99536 0.62257 0.0
H717 H 0.64243 0.0025 0.58699 0.0
H718 H 0.52728 0.97122 0.63813 0.0
H719 H 0.65991 0.08021 0.66622 0.0
H720 H 0.63991 0.07832 0.6408 0.0
H721 H 0.66663 0.04483 0.64891 0.0
C722 C 0.56345 0.03535 0.5901 0.0
C723 C 0.59303 0.02501 0.58128 0.0
C724 C 0.5602 0.03144 0.61047 0.0
C725 C 0.58655 0.01734 0.62241 0.0
C726 C 0.61613 0.00703 0.61368 0.0
H727 H 0.60671 0.96461 0.74759 0.0
H728 H 0.61436 0.97111 0.71201 0.0
C729 C 0.61944 0.01095 0.59332 0.0
C730 C 0.58213 0.01196 0.64385 0.0
H731 H 0.62613 0.04007 0.69009 0.0
C732 C 0.5488 0.98637 0.6495 0.0
C733 C 0.61037 0.03166 0.65862 0.0
C734 C 0.64609 0.06056 0.6534 0.0
C735 C 0.5431 0.97962 0.66957 0.0
C736 C 0.57124 0.99946 0.68433 0.0
C737 C 0.60468 0.02487 0.67869 0.0
C738 C 0.56614 0.99483 0.70574 0.0
C739 C 0.5073 0.95084 0.67479 0.0
C740 C 0.53666 0.00627 0.71395 0.0
C741 C 0.53212 0.00244 0.7342 0.0
C742 C 0.55712 0.98727 0.74663 0.0
C743 C 0.58671 0.97592 0.73835 0.0
C744 C 0.59127 0.97984 0.71808 0.0
H745 H 0.49358 0.93103 0.66203 0.0
H746 H 0.51336 0.93327 0.6875 0.0
H747 H 0.48674 0.96669 0.67913 0.0
H748 H 0.51733 0.01847 0.70472 0.0
H749 H 0.50887 0.01116 0.7401 0.0
H750 H 0.57818 0.5238 0.90948 0.0
H751 H 0.57376 0.52802 0.94509 0.0
H752 H 0.46628 0.44136 0.93914 0.0
H753 H 0.4705 0.4366 0.9032 0.0
H754 H 0.51461 0.54723 0.96466 0.0
H755 H 0.53144 0.40098 0.98316 0.0
H756 H 0.54413 0.42321 0.95993 0.0
H757 H 0.49506 0.40326 0.96395 0.0
C758 C 0.55356 0.50546 0.91565 0.0
C759 C 0.52471 0.47972 0.90345 0.0
C760 C 0.5511 0.50801 0.93604 0.0
C761 C 0.5199 0.48479 0.94474 0.0
C762 C 0.49086 0.45915 0.9327 0.0
H763 H 0.48703 0.47314 0.07166 0.0
H764 H 0.47761 0.46264 0.03556 0.0
C765 C 0.49324 0.45659 0.91218 0.0
C766 C 0.5181 0.48825 0.96644 0.0
H767 H 0.52563 0.44126 0.00973 0.0
C768 C 0.51671 0.52399 0.97452 0.0
C769 C 0.52074 0.4578 0.97921 0.0
C770 C 0.52319 0.41915 0.97124 0.0
C771 C 0.51856 0.53035 0.9951 0.0
C772 C 0.52262 0.50038 0.00792 0.0
C773 C 0.5227 0.4642 -0.00017 0.0
C774 C 0.52835 0.50659 0.02974 0.0
C775 C 0.51622 0.56913 0.00295 0.0
C776 C 0.56033 0.53433 0.03841 0.0
C777 C 0.56571 0.54053 0.05897 0.0
C778 C 0.53927 0.51893 0.07128 0.0
C779 C 0.5076 0.49065 0.06256 0.0
C780 C 0.50227 0.48445 0.04197 0.0
H781 H 0.50243 0.58449 0.99159 0.0
H782 H 0.50011 0.56588 0.01633 0.0
H783 H 0.54538 0.58751 0.00713 0.0
H784 H 0.58117 0.55122 0.02924 0.0
H785 H 0.59024 0.56269 0.06521 0.0
H786 H 1.05568 0.47067 0.20548 0.0
H787 H 1.05345 0.45951 0.24112 0.0
H788 H 1.03741 0.57322 0.2504 0.0
H789 H 1.03906 0.58447 0.21496 0.0
H790 H 0.10223 0.50208 0.27147 0.0
H791 H 0.95417 0.50567 0.28058 0.0
H792 H 0.97075 0.49997 0.2566 0.0
H793 H 0.98015 0.54724 0.26828 0.0
C794 C 1.0513 0.49315 0.21509 0.0
C795 C 1.0475 0.52845 0.20736 0.0
C796 C 1.05002 0.4867 0.23542 0.0
C797 C 1.04465 0.51529 0.24833 0.0
C798 C 1.04065 0.5504 0.24064 0.0
H799 H 0.06278 0.57194 0.37216 0.0
H800 H 1.05512 0.5682 0.33584 0.0
C801 C 1.04187 0.55687 0.22036 0.0
C802 C 1.04562 0.50969 0.27001 0.0
H803 H 0.99644 0.51422 0.31033 0.0
C804 C 0.0789 0.5041 0.27996 0.0
C805 C 1.0151 0.51235 0.28102 0.0
C806 C 0.97788 0.51625 0.27105 0.0
C807 C 0.08316 0.50287 0.30074 0.0
C808 C 1.05315 0.50691 0.31176 0.0
C809 C 1.01944 0.51134 0.30179 0.0
C810 C 1.05692 0.50842 0.33369 0.0
C811 C 0.12026 0.49887 0.31081 0.0
C812 C 1.06 0.47587 0.34443 0.0
C813 C 0.06449 0.47795 0.36517 0.0
C814 C 0.06596 0.51264 0.37548 0.0
C815 C 0.06228 0.545 0.36463 0.0
C816 C 1.05765 0.54284 0.34392 0.0
H817 H 0.14288 0.50307 0.30041 0.0
H818 H 0.13021 0.52017 0.3234 0.0
H819 H 0.11595 0.46946 0.31686 0.0
H820 H 1.05906 0.44893 0.33677 0.0
H821 H 0.06748 0.45262 0.37313 0.0
loop_
_geom_bond_atom_site_label_1
_geom_bond_atom_site_label_2
_geom_bond_distance
_geom_bond_site_symmetry_2
_ccdc_geom_bond_type
Dy0 O3 2.307 1_455 S
Dy0 O5 2.395 . S
Dy0 O6 2.379 . S
Dy0 O8 2.339 . S
Dy0 O10 2.298 . S
Dy0 O14 2.275 . S
Dy0 C22 2.738 . S
Dy1 O4 2.298 . S
Dy1 O7 2.275 1_655 S
Dy1 O9 2.307 1_655 S
Dy1 O11 2.395 . S
Dy1 O12 2.379 . S
Dy1 O15 2.339 . S
Dy1 C31 2.738 . S
C2 O14 1.254 . S
C2 O15 1.257 1_455 S
O3 Dy0 2.307 1_655 S
O3 C13 1.266 . S
O4 Dy1 2.298 . S
O4 C13 1.236 . S
O5 Dy0 2.395 . S
O5 C22 1.255 . S
O6 Dy0 2.379 . S
O6 C22 1.249 . S
O7 Dy1 2.275 1_455 S
O7 C23 1.254 . S
O8 Dy0 2.339 . S
O8 C23 1.257 . S
O9 Dy1 2.307 1_455 S
O9 C24 1.266 . S
O10 Dy0 2.298 . S
O10 C24 1.236 . S
O11 Dy1 2.395 . S
O11 C31 1.255 . S
O12 Dy1 2.379 . S
O12 C31 1.249 . S
C13 O3 1.266 . S
C13 O4 1.236 . S
O14 Dy0 2.275 . S
O14 C2 1.254 . S
O15 Dy1 2.339 . S
O15 C2 1.257 1_655 S
C16 C19 1.344 . S
C16 C20 1.328 . S
C16 C22 1.516 . S
C17 C18 1.304 . S
C17 C21 1.323 . S
C18 C17 1.304 . S
C18 C19 1.371 . S
C18 H32 0.930 . S
C19 C16 1.344 . S
C19 C18 1.371 . S
C19 H33 0.931 . S
C20 C16 1.328 . S
C20 C21 1.433 . S
C20 H34 0.931 . S
C21 C17 1.323 . S
C21 C20 1.433 . S
C21 H35 0.933 . S
C22 Dy0 2.738 . S
C22 O5 1.255 . S
C22 O6 1.249 . S
C22 C16 1.516 . S
C23 O7 1.254 . S
C23 O8 1.257 . S
C24 O9 1.266 . S
C24 O10 1.236 . S
C25 C28 1.344 . S
C25 C29 1.328 . S
C25 C31 1.516 . S
C26 C27 1.304 . S
C26 C30 1.323 . S
C27 C26 1.304 . S
C27 C28 1.371 . S
C27 H36 0.930 . S
C28 C25 1.344 . S
C28 C27 1.371 . S
C28 H37 0.931 . S
C29 C25 1.328 . S
C29 C30 1.433 . S
C29 H38 0.931 . S
C30 C26 1.323 . S
C30 C29 1.433 . S
C30 H39 0.933 . S
C31 Dy1 2.738 . S
C31 O11 1.255 . S
C31 O12 1.249 . S
C31 C25 1.516 . S
H32 C18 0.930 . S
H33 C19 0.931 . S
H34 C20 0.931 . S
H35 C21 0.933 . S
H36 C27 0.930 . S
H37 C28 0.931 . S
H38 C29 0.931 . S
H39 C30 0.933 . S
Dy40 O43 2.307 . S
Dy40 O45 2.395 1_545 S
Dy40 O46 2.379 1_545 S
Dy40 O48 2.339 . S
Dy40 O50 2.298 1_545 S
Dy40 O54 2.275 . S
Dy40 C62 2.738 1_545 S
Dy41 O44 2.298 . S
Dy41 O47 2.275 . S
Dy41 O49 2.307 1_545 S
Dy41 O51 2.395 . S
Dy41 O52 2.379 . S
Dy41 O55 2.339 . S
Dy41 C71 2.738 . S
C42 O54 1.254 . S
C42 O55 1.257 . S
O43 Dy40 2.307 . S
O43 C53 1.266 . S
O44 Dy41 2.298 . S
O44 C53 1.236 . S
O45 Dy40 2.395 1_565 S
O45 C62 1.255 . S
O46 Dy40 2.379 1_565 S
O46 C62 1.249 . S
O47 Dy41 2.275 . S
O47 C63 1.254 . S
O48 Dy40 2.339 . S
O48 C63 1.257 . S
O49 Dy41 2.307 1_565 S
O49 C64 1.266 . S
O50 Dy40 2.298 1_565 S
O50 C64 1.236 . S
O51 Dy41 2.395 . S
O51 C71 1.255 . S
O52 Dy41 2.379 . S
O52 C71 1.249 . S
C53 O43 1.266 . S
C53 O44 1.236 . S
O54 Dy40 2.275 . S
O54 C42 1.254 . S
O55 Dy41 2.339 . S
O55 C42 1.257 . S
C56 C59 1.344 . S
C56 C60 1.328 . S
C56 C62 1.516 . S
C57 C58 1.304 . S
C57 C61 1.323 . S
C58 C57 1.304 . S
C58 C59 1.371 . S
C58 H72 0.930 . S
C59 C56 1.344 . S
C59 C58 1.371 . S
C59 H73 0.931 . S
C60 C56 1.328 . S
C60 C61 1.433 . S
C60 H74 0.931 . S
C61 C57 1.323 . S
C61 C60 1.433 . S
C61 H75 0.933 . S
C62 Dy40 2.738 1_565 S
C62 O45 1.255 . S
C62 O46 1.249 . S
C62 C56 1.516 . S
C63 O47 1.254 . S
C63 O48 1.257 . S
C64 O49 1.266 . S
C64 O50 1.236 . S
C65 C68 1.344 . S
C65 C69 1.328 . S
C65 C71 1.516 . S
C66 C67 1.304 . S
C66 C70 1.323 . S
C67 C66 1.304 . S
C67 C68 1.371 . S
C67 H76 0.930 . S
C68 C65 1.344 . S
C68 C67 1.371 . S
C68 H77 0.931 . S
C69 C65 1.328 . S
C69 C70 1.433 . S
C69 H78 0.931 . S
C70 C66 1.323 . S
C70 C69 1.433 . S
C70 H79 0.933 . S
C71 Dy41 2.738 . S
C71 O51 1.255 . S
C71 O52 1.249 . S
C71 C65 1.516 . S
H72 C58 0.930 . S
H73 C59 0.931 . S
H74 C60 0.931 . S
H75 C61 0.933 . S
H76 C67 0.930 . S
H77 C68 0.931 . S
H78 C69 0.931 . S
H79 C70 0.933 . S
Dy80 O83 2.307 . S
Dy80 O85 2.395 . S
Dy80 O86 2.379 . S
Dy80 O88 2.339 . S
Dy80 O90 2.298 . S
Dy80 O94 2.275 . S
Dy80 C102 2.738 . S
Dy81 O84 2.298 . S
Dy81 O87 2.275 . S
Dy81 O89 2.307 . S
Dy81 O91 2.395 . S
Dy81 O92 2.379 . S
Dy81 O95 2.339 . S
Dy81 C111 2.738 . S
C82 O94 1.254 . S
C82 O95 1.257 . S
O83 Dy80 2.307 . S
O83 C93 1.266 . S
O84 Dy81 2.298 . S
O84 C93 1.236 . S
O85 Dy80 2.395 . S
O85 C102 1.255 . S
O86 Dy80 2.379 . S
O86 C102 1.249 . S
O87 Dy81 2.275 . S
O87 C103 1.254 . S
O88 Dy80 2.339 . S
O88 C103 1.257 . S
O89 Dy81 2.307 . S
O89 C104 1.266 . S
O90 Dy80 2.298 . S
O90 C104 1.236 . S
O91 Dy81 2.395 . S
O91 C111 1.255 . S
O92 Dy81 2.379 . S
O92 C111 1.249 . S
C93 O83 1.266 . S
C93 O84 1.236 . S
O94 Dy80 2.275 . S
O94 C82 1.254 . S
O95 Dy81 2.339 . S
O95 C82 1.257 . S
C96 C99 1.344 . S
C96 C100 1.328 . S
C96 C102 1.516 . S
C97 C98 1.304 . S
C97 C101 1.323 . S
C98 C97 1.304 . S
C98 C99 1.371 . S
C98 H112 0.930 . S
C99 C96 1.344 . S
C99 C98 1.371 . S
C99 H113 0.931 . S
C100 C96 1.328 . S
C100 C101 1.433 . S
C100 H114 0.931 . S
C101 C97 1.323 . S
C101 C100 1.433 . S
C101 H115 0.933 . S
C102 Dy80 2.738 . S
C102 O85 1.255 . S
C102 O86 1.249 . S
C102 C96 1.516 . S
C103 O87 1.254 . S
C103 O88 1.257 . S
C104 O89 1.266 . S
C104 O90 1.236 . S
C105 C108 1.344 . S
C105 C109 1.328 . S
C105 C111 1.516 . S
C106 C107 1.304 . S
C106 C110 1.323 . S
C107 C106 1.304 . S
C107 C108 1.371 . S
C107 H116 0.930 . S
C108 C105 1.344 . S
C108 C107 1.371 . S
C108 H117 0.931 . S
C109 C105 1.328 . S
C109 C110 1.433 . S
C109 H118 0.931 . S
C110 C106 1.323 . S
C110 C109 1.433 . S
C110 H119 0.933 . S
C111 Dy81 2.738 . S
C111 O91 1.255 . S
C111 O92 1.249 . S
C111 C105 1.516 . S
H112 C98 0.930 . S
H113 C99 0.931 . S
H114 C100 0.931 . S
H115 C101 0.933 . S
H116 C107 0.930 . S
H117 C108 0.931 . S
H118 C109 0.931 . S
H119 C110 0.933 . S
H120 C123 0.931 . S
H121 C126 0.928 . S
H122 C128 0.930 . S
C123 H120 0.931 . S
C123 C124 1.413 . S
C123 C125 1.360 . S
C124 C123 1.413 . S
C124 C128 1.429 . S
C125 C123 1.360 . S
C125 C126 1.372 . S
C126 H121 0.928 . S
C126 C125 1.372 . S
C126 C127 1.404 . S
C127 C126 1.404 . S
C127 C128 1.391 . S
C128 H122 0.930 . S
C128 C124 1.429 . S
C128 C127 1.391 . S
H129 C132 0.931 . S
H130 C135 0.928 . S
H131 C137 0.930 . S
C132 H129 0.931 . S
C132 C133 1.413 . S
C132 C134 1.360 . S
C133 C132 1.413 . S
C133 C137 1.429 . S
C134 C132 1.360 . S
C134 C135 1.372 . S
C135 H130 0.928 . S
C135 C134 1.372 . S
C135 C136 1.404 . S
C136 C135 1.404 . S
C136 C137 1.391 . S
C137 H131 0.930 . S
C137 C133 1.429 . S
C137 C136 1.391 . S
H138 C141 0.931 . S
H139 C144 0.928 . S
H140 C146 0.930 . S
C141 H138 0.931 . S
C141 C142 1.413 . S
C141 C143 1.360 1_655 S
C142 C141 1.413 . S
C142 C146 1.429 1_655 S
C143 C141 1.360 1_455 S
C143 C144 1.372 . S
C144 H139 0.928 . S
C144 C143 1.372 . S
C144 C145 1.404 . S
C145 C144 1.404 . S
C145 C146 1.391 . S
C146 H140 0.930 . S
C146 C142 1.429 1_455 S
C146 C145 1.391 . S
H147 C150 0.931 . S
H148 C153 0.928 . S
H149 C155 0.930 . S
C150 H147 0.931 . S
C150 C151 1.413 . S
C150 C152 1.360 1_655 S
C151 C150 1.413 . S
C151 C155 1.429 1_655 S
C152 C150 1.360 1_455 S
C152 C153 1.372 . S
C153 H148 0.928 . S
C153 C152 1.372 . S
C153 C154 1.404 . S
C154 C153 1.404 . S
C154 C155 1.391 . S
C155 H149 0.930 . S
C155 C151 1.429 1_455 S
C155 C154 1.391 . S
H156 C159 0.931 . S
H157 C162 0.928 . S
H158 C164 0.930 . S
C159 H156 0.931 . S
C159 C160 1.413 . S
C159 C161 1.360 . S
C160 C159 1.413 . S
C160 C164 1.429 . S
C161 C159 1.360 . S
C161 C162 1.372 1_545 S
C162 H157 0.928 . S
C162 C161 1.372 1_565 S
C162 C163 1.404 . S
C163 C162 1.404 . S
C163 C164 1.391 1_565 S
C164 H158 0.930 . S
C164 C160 1.429 . S
C164 C163 1.391 1_545 S
H165 C168 0.931 . S
H166 C171 0.928 . S
H167 C173 0.930 . S
C168 H165 0.931 . S
C168 C169 1.413 . S
C168 C170 1.360 . S
C169 C168 1.413 . S
C169 C173 1.429 . S
C170 C168 1.360 . S
C170 C171 1.372 . S
C171 H166 0.928 . S
C171 C170 1.372 . S
C171 C172 1.404 . S
C172 C171 1.404 . S
C172 C173 1.391 . S
C173 H167 0.930 . S
C173 C169 1.429 . S
C173 C172 1.391 . S
H174 C182 0.929 . S
H175 C184 0.930 . S
H176 C186 0.930 . S
H177 C189 0.929 . S
H178 C192 0.930 . S
H179 C194 0.960 . S
H180 C194 0.960 . S
H181 C194 0.960 . S
C182 H174 0.929 . S
C182 C183 1.377 . S
C182 C184 1.384 . S
C183 C182 1.377 . S
C183 C189 1.390 . S
C184 H175 0.930 . S
C184 C182 1.384 . S
C184 C185 1.372 . S
C185 C184 1.372 . S
C185 C186 1.400 . S
C185 C190 1.490 . S
C186 H176 0.930 . S
C186 C185 1.400 . S
C186 C189 1.386 . S
H187 C203 0.930 . S
H188 C204 0.931 . S
C189 H177 0.929 . S
C189 C183 1.390 . S
C189 C186 1.386 . S
C190 C185 1.490 . S
C190 C192 1.395 . S
C190 C193 1.403 . S
H191 C197 0.930 . S
C192 H178 0.930 . S
C192 C190 1.395 . S
C192 C195 1.403 . S
C193 C190 1.403 . S
C193 C194 1.524 . S
C193 C197 1.400 . S
C194 H179 0.960 . S
C194 H180 0.960 . S
C194 H181 0.960 . S
C194 C193 1.524 . S
C195 C192 1.403 . S
C195 C196 1.392 . S
C195 C199 1.495 . S
C196 C195 1.392 . S
C196 C197 1.385 . S
C196 C198 1.478 . S
C197 H191 0.930 . S
C197 C193 1.400 . S
C197 C196 1.385 . S
C198 C196 1.478 . S
C198 C200 1.381 . S
C198 C204 1.383 . S
C199 C195 1.495 . S
C199 H205 0.959 . S
C199 H206 0.961 . S
C199 H207 0.960 . S
C200 C198 1.381 . S
C200 C201 1.394 . S
C200 H208 0.930 . S
C201 C200 1.394 . S
C201 C202 1.383 . S
C201 H209 0.929 . S
C202 C201 1.383 . S
C202 C203 1.377 . S
C203 H187 0.930 . S
C203 C202 1.377 . S
C203 C204 1.379 . S
C204 H188 0.931 . S
C204 C198 1.383 . S
C204 C203 1.379 . S
H205 C199 0.959 . S
H206 C199 0.961 . S
H207 C199 0.960 . S
H208 C200 0.930 . S
H209 C201 0.929 . S
H210 C218 0.929 . S
H211 C220 0.930 . S
H212 C222 0.930 . S
H213 C225 0.929 . S
H214 C228 0.930 . S
H215 C230 0.960 . S
H216 C230 0.960 . S
H217 C230 0.960 . S
C218 H210 0.929 . S
C218 C219 1.377 . S
C218 C220 1.384 . S
C219 C218 1.377 . S
C219 C225 1.390 . S
C220 H211 0.930 . S
C220 C218 1.384 . S
C220 C221 1.372 . S
C221 C220 1.372 . S
C221 C222 1.400 . S
C221 C226 1.490 . S
C222 H212 0.930 . S
C222 C221 1.400 . S
C222 C225 1.386 . S
H223 C239 0.930 . S
H224 C240 0.931 . S
C225 H213 0.929 . S
C225 C219 1.390 . S
C225 C222 1.386 . S
C226 C221 1.490 . S
C226 C228 1.395 . S
C226 C229 1.403 . S
H227 C233 0.930 . S
C228 H214 0.930 . S
C228 C226 1.395 . S
C228 C231 1.403 . S
C229 C226 1.403 . S
C229 C230 1.524 . S
C229 C233 1.400 . S
C230 H215 0.960 . S
C230 H216 0.960 . S
C230 H217 0.960 . S
C230 C229 1.524 . S
C231 C228 1.403 . S
C231 C232 1.392 . S
C231 C235 1.495 . S
C232 C231 1.392 . S
C232 C233 1.385 . S
C232 C234 1.478 . S
C233 H227 0.930 . S
C233 C229 1.400 . S
C233 C232 1.385 . S
C234 C232 1.478 . S
C234 C236 1.381 . S
C234 C240 1.383 . S
C235 C231 1.495 . S
C235 H241 0.959 . S
C235 H242 0.961 . S
C235 H243 0.960 . S
C236 C234 1.381 . S
C236 C237 1.394 . S
C236 H244 0.930 . S
C237 C236 1.394 . S
C237 C238 1.383 . S
C237 H245 0.929 . S
C238 C237 1.383 . S
C238 C239 1.377 . S
C239 H223 0.930 . S
C239 C238 1.377 . S
C239 C240 1.379 . S
C240 H224 0.931 . S
C240 C234 1.383 . S
C240 C239 1.379 . S
H241 C235 0.959 . S
H242 C235 0.961 . S
H243 C235 0.960 . S
H244 C236 0.930 . S
H245 C237 0.929 . S
H246 C254 0.929 . S
H247 C256 0.930 . S
H248 C258 0.930 . S
H249 C261 0.929 . S
H250 C264 0.930 . S
H251 C266 0.960 . S
H252 C266 0.960 . S
H253 C266 0.960 . S
C254 H246 0.929 . S
C254 C255 1.377 . S
C254 C256 1.384 . S
C255 C254 1.377 . S
C255 C261 1.390 . S
C256 H247 0.930 . S
C256 C254 1.384 . S
C256 C257 1.372 . S
C257 C256 1.372 . S
C257 C258 1.400 . S
C257 C262 1.490 . S
C258 H248 0.930 . S
C258 C257 1.400 . S
C258 C261 1.386 . S
H259 C275 0.930 . S
H260 C276 0.931 . S
C261 H249 0.929 . S
C261 C255 1.390 . S
C261 C258 1.386 . S
C262 C257 1.490 . S
C262 C264 1.395 . S
C262 C265 1.403 . S
H263 C269 0.930 . S
C264 H250 0.930 . S
C264 C262 1.395 . S
C264 C267 1.403 . S
C265 C262 1.403 . S
C265 C266 1.524 . S
C265 C269 1.400 . S
C266 H251 0.960 . S
C266 H252 0.960 . S
C266 H253 0.960 . S
C266 C265 1.524 . S
C267 C264 1.403 . S
C267 C268 1.392 . S
C267 C271 1.495 . S
C268 C267 1.392 . S
C268 C269 1.385 . S
C268 C270 1.478 . S
C269 H263 0.930 . S
C269 C265 1.400 . S
C269 C268 1.385 . S
C270 C268 1.478 . S
C270 C272 1.381 . S
C270 C276 1.383 . S
C271 C267 1.495 . S
C271 H277 0.959 . S
C271 H278 0.961 . S
C271 H279 0.960 . S
C272 C270 1.381 . S
C272 C273 1.394 . S
C272 H280 0.930 . S
C273 C272 1.394 . S
C273 C274 1.383 . S
C273 H281 0.929 . S
C274 C273 1.383 . S
C274 C275 1.377 . S
C275 H259 0.930 . S
C275 C274 1.377 . S
C275 C276 1.379 . S
C276 H260 0.931 . S
C276 C270 1.383 . S
C276 C275 1.379 . S
H277 C271 0.959 . S
H278 C271 0.961 . S
H279 C271 0.960 . S
H280 C272 0.930 . S
H281 C273 0.929 . S
H282 C290 0.929 . S
H283 C292 0.930 . S
H284 C294 0.930 . S
H285 C297 0.929 . S
H286 C300 0.930 . S
H287 C302 0.960 . S
H288 C302 0.960 . S
H289 C302 0.960 . S
C290 H282 0.929 . S
C290 C291 1.377 . S
C290 C292 1.384 . S
C291 C290 1.377 . S
C291 C297 1.390 . S
C292 H283 0.930 . S
C292 C290 1.384 . S
C292 C293 1.372 . S
C293 C292 1.372 . S
C293 C294 1.400 . S
C293 C298 1.490 . S
C294 H284 0.930 . S
C294 C293 1.400 . S
C294 C297 1.386 . S
H295 C311 0.930 . S
H296 C312 0.931 . S
C297 H285 0.929 . S
C297 C291 1.390 . S
C297 C294 1.386 . S
C298 C293 1.490 . S
C298 C300 1.395 . S
C298 C301 1.403 . S
H299 C305 0.930 . S
C300 H286 0.930 . S
C300 C298 1.395 . S
C300 C303 1.403 . S
C301 C298 1.403 . S
C301 C302 1.524 . S
C301 C305 1.400 . S
C302 H287 0.960 . S
C302 H288 0.960 . S
C302 H289 0.960 . S
C302 C301 1.524 . S
C303 C300 1.403 . S
C303 C304 1.392 . S
C303 C307 1.495 . S
C304 C303 1.392 . S
C304 C305 1.385 . S
C304 C306 1.478 . S
C305 H299 0.930 . S
C305 C301 1.400 . S
C305 C304 1.385 . S
C306 C304 1.478 . S
C306 C308 1.381 . S
C306 C312 1.383 . S
C307 C303 1.495 . S
C307 H313 0.959 . S
C307 H314 0.961 . S
C307 H315 0.960 . S
C308 C306 1.381 . S
C308 C309 1.394 . S
C308 H316 0.930 . S
C309 C308 1.394 . S
C309 C310 1.383 . S
C309 H317 0.929 . S
C310 C309 1.383 . S
C310 C311 1.377 . S
C311 H295 0.930 . S
C311 C310 1.377 . S
C311 C312 1.379 . S
C312 H296 0.931 . S
C312 C306 1.383 . S
C312 C311 1.379 . S
H313 C307 0.959 . S
H314 C307 0.961 . S
H315 C307 0.960 . S
H316 C308 0.930 . S
H317 C309 0.929 . S
H318 C326 0.929 . S
H319 C328 0.930 . S
H320 C330 0.930 . S
H321 C333 0.929 . S
H322 C336 0.930 . S
H323 C338 0.960 . S
H324 C338 0.960 . S
H325 C338 0.960 . S
C326 H318 0.929 . S
C326 C327 1.377 . S
C326 C328 1.384 . S
C327 C326 1.377 . S
C327 C333 1.390 . S
C328 H319 0.930 . S
C328 C326 1.384 . S
C328 C329 1.372 . S
C329 C328 1.372 . S
C329 C330 1.400 . S
C329 C334 1.490 . S
C330 H320 0.930 . S
C330 C329 1.400 . S
C330 C333 1.386 . S
H331 C347 0.930 . S
H332 C348 0.931 . S
C333 H321 0.929 . S
C333 C327 1.390 . S
C333 C330 1.386 . S
C334 C329 1.490 . S
C334 C336 1.395 . S
C334 C337 1.403 . S
H335 C341 0.930 . S
C336 H322 0.930 . S
C336 C334 1.395 . S
C336 C339 1.403 . S
C337 C334 1.403 . S
C337 C338 1.524 . S
C337 C341 1.400 . S
C338 H323 0.960 . S
C338 H324 0.960 . S
C338 H325 0.960 . S
C338 C337 1.524 . S
C339 C336 1.403 . S
C339 C340 1.392 . S
C339 C343 1.495 . S
C340 C339 1.392 . S
C340 C341 1.385 . S
C340 C342 1.478 . S
C341 H335 0.930 . S
C341 C337 1.400 . S
C341 C340 1.385 . S
C342 C340 1.478 . S
C342 C344 1.381 . S
C342 C348 1.383 . S
C343 C339 1.495 . S
C343 H349 0.959 . S
C343 H350 0.961 . S
C343 H351 0.960 . S
C344 C342 1.381 . S
C344 C345 1.394 . S
C344 H352 0.930 . S
C345 C344 1.394 . S
C345 C346 1.383 . S
C345 H353 0.929 . S
C346 C345 1.383 . S
C346 C347 1.377 . S
C347 H331 0.930 . S
C347 C346 1.377 . S
C347 C348 1.379 . S
C348 H332 0.931 . S
C348 C342 1.383 . S
C348 C347 1.379 . S
H349 C343 0.959 . S
H350 C343 0.961 . S
H351 C343 0.960 . S
H352 C344 0.930 . S
H353 C345 0.929 . S
H354 C362 0.929 . S
H355 C364 0.930 . S
H356 C366 0.930 . S
H357 C369 0.929 . S
H358 C372 0.930 . S
H359 C374 0.960 . S
H360 C374 0.960 . S
H361 C374 0.960 . S
C362 H354 0.929 . S
C362 C363 1.377 . S
C362 C364 1.384 . S
C363 C362 1.377 . S
C363 C369 1.390 . S
C364 H355 0.930 . S
C364 C362 1.384 . S
C364 C365 1.372 . S
C365 C364 1.372 . S
C365 C366 1.400 . S
C365 C370 1.490 . S
C366 H356 0.930 . S
C366 C365 1.400 . S
C366 C369 1.386 . S
H367 C383 0.930 . S
H368 C384 0.931 . S
C369 H357 0.929 . S
C369 C363 1.390 . S
C369 C366 1.386 . S
C370 C365 1.490 . S
C370 C372 1.395 . S
C370 C373 1.403 . S
H371 C377 0.930 . S
C372 H358 0.930 . S
C372 C370 1.395 . S
C372 C375 1.403 . S
C373 C370 1.403 . S
C373 C374 1.524 . S
C373 C377 1.400 . S
C374 H359 0.960 . S
C374 H360 0.960 . S
C374 H361 0.960 . S
C374 C373 1.524 . S
C375 C372 1.403 . S
C375 C376 1.392 . S
C375 C379 1.495 . S
C376 C375 1.392 . S
C376 C377 1.385 . S
C376 C378 1.478 . S
C377 H371 0.930 . S
C377 C373 1.400 . S
C377 C376 1.385 . S
C378 C376 1.478 . S
C378 C380 1.381 . S
C378 C384 1.383 . S
C379 C375 1.495 . S
C379 H385 0.959 . S
C379 H386 0.961 . S
C379 H387 0.960 . S
C380 C378 1.381 . S
C380 C381 1.394 . S
C380 H388 0.930 . S
C381 C380 1.394 . S
C381 C382 1.383 . S
C381 H389 0.929 . S
C382 C381 1.383 . S
C382 C383 1.377 . S
C383 H367 0.930 . S
C383 C382 1.377 . S
C383 C384 1.379 . S
C384 H368 0.931 . S
C384 C378 1.383 . S
C384 C383 1.379 . S
H385 C379 0.959 . S
H386 C379 0.961 . S
H387 C379 0.960 . S
H388 C380 0.930 . S
H389 C381 0.929 . S
H390 C398 0.929 . S
H391 C400 0.930 . S
H392 C402 0.930 . S
H393 C405 0.929 . S
H394 C408 0.930 . S
H395 C410 0.960 . S
H396 C410 0.960 . S
H397 C410 0.960 . S
C398 H390 0.929 . S
C398 C399 1.377 . S
C398 C400 1.384 . S
C399 C398 1.377 . S
C399 C405 1.390 . S
C400 H391 0.930 . S
C400 C398 1.384 . S
C400 C401 1.372 . S
C401 C400 1.372 . S
C401 C402 1.400 . S
C401 C406 1.490 . S
C402 H392 0.930 . S
C402 C401 1.400 . S
C402 C405 1.386 . S
H403 C419 0.930 . S
H404 C420 0.931 . S
C405 H393 0.929 . S
C405 C399 1.390 . S
C405 C402 1.386 . S
C406 C401 1.490 . S
C406 C408 1.395 . S
C406 C409 1.403 . S
H407 C413 0.930 . S
C408 H394 0.930 . S
C408 C406 1.395 . S
C408 C411 1.403 . S
C409 C406 1.403 . S
C409 C410 1.524 . S
C409 C413 1.400 . S
C410 H395 0.960 . S
C410 H396 0.960 . S
C410 H397 0.960 . S
C410 C409 1.524 . S
C411 C408 1.403 . S
C411 C412 1.392 . S
C411 C415 1.495 . S
C412 C411 1.392 . S
C412 C413 1.385 . S
C412 C414 1.478 . S
C413 H407 0.930 . S
C413 C409 1.400 . S
C413 C412 1.385 . S
C414 C412 1.478 . S
C414 C416 1.381 . S
C414 C420 1.383 . S
C415 C411 1.495 . S
C415 H421 0.959 . S
C415 H422 0.961 . S
C415 H423 0.960 . S
C416 C414 1.381 . S
C416 C417 1.394 . S
C416 H424 0.930 . S
C417 C416 1.394 . S
C417 C418 1.383 . S
C417 H425 0.929 . S
C418 C417 1.383 . S
C418 C419 1.377 . S
C419 H403 0.930 . S
C419 C418 1.377 . S
C419 C420 1.379 . S
C420 H404 0.931 . S
C420 C414 1.383 . S
C420 C419 1.379 . S
H421 C415 0.959 . S
H422 C415 0.961 . S
H423 C415 0.960 . S
H424 C416 0.930 . S
H425 C417 0.929 . S
H426 C434 0.929 . S
H427 C436 0.930 . S
H428 C438 0.930 . S
H429 C441 0.929 . S
H430 C444 0.930 . S
H431 C446 0.960 . S
H432 C446 0.960 . S
H433 C446 0.960 . S
C434 H426 0.929 . S
C434 C435 1.377 . S
C434 C436 1.384 . S
C435 C434 1.377 . S
C435 C441 1.390 . S
C436 H427 0.930 . S
C436 C434 1.384 . S
C436 C437 1.372 . S
C437 C436 1.372 . S
C437 C438 1.400 . S
C437 C442 1.490 . S
C438 H428 0.930 . S
C438 C437 1.400 . S
C438 C441 1.386 . S
H439 C455 0.930 . S
H440 C456 0.931 . S
C441 H429 0.929 . S
C441 C435 1.390 . S
C441 C438 1.386 . S
C442 C437 1.490 . S
C442 C444 1.395 . S
C442 C445 1.403 . S
H443 C449 0.930 . S
C444 H430 0.930 . S
C444 C442 1.395 . S
C444 C447 1.403 . S
C445 C442 1.403 . S
C445 C446 1.524 . S
C445 C449 1.400 . S
C446 H431 0.960 . S
C446 H432 0.960 . S
C446 H433 0.960 . S
C446 C445 1.524 . S
C447 C444 1.403 . S
C447 C448 1.392 . S
C447 C451 1.495 . S
C448 C447 1.392 . S
C448 C449 1.385 . S
C448 C450 1.478 . S
C449 H443 0.930 . S
C449 C445 1.400 . S
C449 C448 1.385 . S
C450 C448 1.478 . S
C450 C452 1.381 . S
C450 C456 1.383 . S
C451 C447 1.495 . S
C451 H457 0.959 . S
C451 H458 0.961 . S
C451 H459 0.960 . S
C452 C450 1.381 . S
C452 C453 1.394 . S
C452 H460 0.930 . S
C453 C452 1.394 . S
C453 C454 1.383 . S
C453 H461 0.929 . S
C454 C453 1.383 . S
C454 C455 1.377 . S
C455 H439 0.930 . S
C455 C454 1.377 . S
C455 C456 1.379 . S
C456 H440 0.931 . S
C456 C450 1.383 . S
C456 C455 1.379 . S
H457 C451 0.959 . S
H458 C451 0.961 . S
H459 C451 0.960 . S
H460 C452 0.930 . S
H461 C453 0.929 . S
H462 C470 0.929 . S
H463 C472 0.930 . S
H464 C474 0.930 . S
H465 C477 0.929 . S
H466 C480 0.930 . S
H467 C482 0.960 . S
H468 C482 0.960 . S
H469 C482 0.960 . S
C470 H462 0.929 . S
C470 C471 1.377 . S
C470 C472 1.384 . S
C471 C470 1.377 . S
C471 C477 1.390 . S
C472 H463 0.930 . S
C472 C470 1.384 . S
C472 C473 1.372 . S
C473 C472 1.372 . S
C473 C474 1.400 . S
C473 C478 1.490 . S
C474 H464 0.930 . S
C474 C473 1.400 . S
C474 C477 1.386 . S
H475 C491 0.930 . S
H476 C492 0.931 . S
C477 H465 0.929 . S
C477 C471 1.390 . S
C477 C474 1.386 . S
C478 C473 1.490 . S
C478 C480 1.395 . S
C478 C481 1.403 . S
H479 C485 0.930 . S
C480 H466 0.930 . S
C480 C478 1.395 . S
C480 C483 1.403 . S
C481 C478 1.403 . S
C481 C482 1.524 . S
C481 C485 1.400 . S
C482 H467 0.960 . S
C482 H468 0.960 . S
C482 H469 0.960 . S
C482 C481 1.524 . S
C483 C480 1.403 . S
C483 C484 1.392 . S
C483 C487 1.495 . S
C484 C483 1.392 . S
C484 C485 1.385 . S
C484 C486 1.478 . S
C485 H479 0.930 . S
C485 C481 1.400 . S
C485 C484 1.385 . S
C486 C484 1.478 . S
C486 C488 1.381 . S
C486 C492 1.383 . S
C487 C483 1.495 . S
C487 H493 0.959 . S
C487 H494 0.961 . S
C487 H495 0.960 . S
C488 C486 1.381 . S
C488 C489 1.394 1_565 S
C488 H496 0.911 1_565 S
C489 C488 1.394 1_545 S
C489 C490 1.383 . S
C489 H497 0.929 . S
C490 C489 1.383 . S
C490 C491 1.377 1_545 S
C491 H475 0.930 . S
C491 C490 1.377 1_565 S
C491 C492 1.379 . S
C492 H476 0.931 . S
C492 C486 1.383 . S
C492 C491 1.379 . S
H493 C487 0.959 . S
H494 C487 0.961 . S
H495 C487 0.960 . S
H496 C488 0.911 1_545 S
H497 C489 0.929 . S
H498 C506 0.929 . S
H499 C508 0.930 . S
H500 C510 0.930 . S
H501 C513 0.929 . S
H502 C516 0.930 . S
H503 C518 0.960 . S
H504 C518 0.960 . S
H505 C518 0.960 . S
C506 H498 0.929 . S
C506 C507 1.377 . S
C506 C508 1.384 . S
C507 C506 1.377 . S
C507 C513 1.390 . S
C508 H499 0.930 . S
C508 C506 1.384 . S
C508 C509 1.372 . S
C509 C508 1.372 . S
C509 C510 1.400 . S
C509 C514 1.490 . S
C510 H500 0.930 . S
C510 C509 1.400 . S
C510 C513 1.386 . S
H511 C527 0.930 . S
H512 C528 0.931 . S
C513 H501 0.929 . S
C513 C507 1.390 . S
C513 C510 1.386 . S
C514 C509 1.490 . S
C514 C516 1.395 . S
C514 C517 1.403 . S
H515 C521 0.930 . S
C516 H502 0.930 . S
C516 C514 1.395 . S
C516 C519 1.403 . S
C517 C514 1.403 . S
C517 C518 1.524 . S
C517 C521 1.400 . S
C518 H503 0.960 . S
C518 H504 0.960 . S
C518 H505 0.960 . S
C518 C517 1.524 . S
C519 C516 1.403 . S
C519 C520 1.392 . S
C519 C523 1.495 . S
C520 C519 1.392 . S
C520 C521 1.385 . S
C520 C522 1.478 . S
C521 H515 0.930 . S
C521 C517 1.400 . S
C521 C520 1.385 . S
C522 C520 1.478 . S
C522 C524 1.381 . S
C522 C528 1.383 . S
C523 C519 1.495 . S
C523 H529 0.959 . S
C523 H530 0.961 . S
C523 H531 0.960 . S
C524 C522 1.381 . S
C524 C525 1.394 . S
C524 H532 0.930 . S
C525 C524 1.394 . S
C525 C526 1.383 . S
C525 H533 0.929 . S
C526 C525 1.383 . S
C526 C527 1.377 . S
C527 H511 0.930 . S
C527 C526 1.377 . S
C527 C528 1.379 . S
C528 H512 0.931 . S
C528 C522 1.383 . S
C528 C527 1.379 . S
H529 C523 0.959 . S
H530 C523 0.961 . S
H531 C523 0.960 . S
H532 C524 0.930 . S
H533 C525 0.929 . S
H534 C542 0.929 . S
H535 C544 0.930 . S
H536 C546 0.930 . S
H537 C549 0.929 . S
H538 C552 0.930 . S
H539 C554 0.960 . S
H540 C554 0.960 . S
H541 C554 0.960 . S
C542 H534 0.929 . S
C542 C543 1.377 . S
C542 C544 1.384 . S
C543 C542 1.377 . S
C543 C549 1.390 . S
C544 H535 0.930 . S
C544 C542 1.384 . S
C544 C545 1.372 . S
C545 C544 1.372 . S
C545 C546 1.400 . S
C545 C550 1.490 . S
C546 H536 0.930 . S
C546 C545 1.400 . S
C546 C549 1.386 . S
H547 C563 0.930 . S
H548 C564 0.931 . S
C549 H537 0.929 . S
C549 C543 1.390 . S
C549 C546 1.386 . S
C550 C545 1.490 . S
C550 C552 1.395 . S
C550 C553 1.403 . S
H551 C557 0.930 . S
C552 H538 0.930 . S
C552 C550 1.395 . S
C552 C555 1.403 . S
C553 C550 1.403 . S
C553 C554 1.524 . S
C553 C557 1.400 . S
C554 H539 0.960 . S
C554 H540 0.960 . S
C554 H541 0.960 . S
C554 C553 1.524 . S
C555 C552 1.403 . S
C555 C556 1.392 . S
C555 C559 1.495 . S
C556 C555 1.392 . S
C556 C557 1.385 . S
C556 C558 1.478 . S
C557 H551 0.930 . S
C557 C553 1.400 . S
C557 C556 1.385 . S
C558 C556 1.478 . S
C558 C560 1.381 . S
C558 C564 1.383 . S
C559 C555 1.495 . S
C559 H565 0.959 . S
C559 H566 0.961 . S
C559 H567 0.960 . S
C560 C558 1.381 . S
C560 C561 1.394 . S
C560 H568 0.930 . S
C561 C560 1.394 . S
C561 C562 1.383 . S
C561 H569 0.929 . S
C562 C561 1.383 . S
C562 C563 1.377 . S
C563 H547 0.930 . S
C563 C562 1.377 . S
C563 C564 1.379 . S
C564 H548 0.931 . S
C564 C558 1.383 . S
C564 C563 1.379 . S
H565 C559 0.959 . S
H566 C559 0.961 . S
H567 C559 0.960 . S
H568 C560 0.930 . S
H569 C561 0.929 . S
H570 C578 0.929 . S
H571 C580 0.930 . S
H572 C582 0.930 . S
H573 C585 0.929 . S
H574 C588 0.930 . S
H575 C590 0.960 . S
H576 C590 0.960 . S
H577 C590 0.960 . S
C578 H570 0.929 . S
C578 C579 1.377 . S
C578 C580 1.384 . S
C579 C578 1.377 . S
C579 C585 1.390 . S
C580 H571 0.930 . S
C580 C578 1.384 . S
C580 C581 1.372 . S
C581 C580 1.372 . S
C581 C582 1.400 . S
C581 C586 1.490 . S
C582 H572 0.930 . S
C582 C581 1.400 . S
C582 C585 1.386 . S
H583 C599 0.930 . S
H584 C600 0.931 . S
C585 H573 0.929 . S
C585 C579 1.390 . S
C585 C582 1.386 . S
C586 C581 1.490 . S
C586 C588 1.395 . S
C586 C589 1.403 . S
H587 C593 0.930 . S
C588 H574 0.930 . S
C588 C586 1.395 . S
C588 C591 1.403 . S
C589 C586 1.403 . S
C589 C590 1.524 . S
C589 C593 1.400 . S
C590 H575 0.960 . S
C590 H576 0.960 . S
C590 H577 0.960 . S
C590 C589 1.524 . S
C591 C588 1.403 . S
C591 C592 1.392 . S
C591 C595 1.495 . S
C592 C591 1.392 . S
C592 C593 1.385 . S
C592 C594 1.478 . S
C593 H587 0.930 . S
C593 C589 1.400 . S
C593 C592 1.385 . S
C594 C592 1.478 . S
C594 C596 1.381 . S
C594 C600 1.383 . S
C595 C591 1.495 . S
C595 H601 0.959 . S
C595 H602 0.961 . S
C595 H603 0.960 . S
C596 C594 1.381 . S
C596 C597 1.394 . S
C596 H604 0.930 . S
C597 C596 1.394 . S
C597 C598 1.383 . S
C597 H605 0.929 . S
C598 C597 1.383 . S
C598 C599 1.377 . S
C599 H583 0.930 . S
C599 C598 1.377 . S
C599 C600 1.379 . S
C600 H584 0.931 . S
C600 C594 1.383 . S
C600 C599 1.379 . S
H601 C595 0.959 . S
H602 C595 0.961 . S
H603 C595 0.960 . S
H604 C596 0.930 . S
H605 C597 0.929 . S
H606 C614 0.929 . S
H607 C616 0.930 . S
H608 C618 0.930 . S
H609 C621 0.929 . S
H610 C624 0.930 . S
H611 C626 0.960 . S
H612 C626 0.960 . S
H613 C626 0.960 . S
C614 H606 0.929 . S
C614 C615 1.377 . S
C614 C616 1.384 . S
C615 C614 1.377 . S
C615 C621 1.390 . S
C616 H607 0.930 . S
C616 C614 1.384 . S
C616 C617 1.372 . S
C617 C616 1.372 . S
C617 C618 1.400 . S
C617 C622 1.490 . S
C618 H608 0.930 . S
C618 C617 1.400 . S
C618 C621 1.386 . S
H619 C635 0.930 . S
H620 C636 0.931 . S
C621 H609 0.929 . S
C621 C615 1.390 . S
C621 C618 1.386 . S
C622 C617 1.490 . S
C622 C624 1.395 1_455 S
C622 C625 1.403 . S
H623 C629 0.930 . S
C624 H610 0.930 . S
C624 C622 1.395 1_655 S
C624 C627 1.403 . S
C625 C622 1.403 . S
C625 C626 1.524 . S
C625 C629 1.400 . S
C626 H611 0.960 . S
C626 H612 0.960 . S
C626 H613 0.960 . S
C626 C625 1.524 . S
C627 C624 1.403 . S
C627 C628 1.392 1_655 S
C627 C631 1.495 . S
C628 C627 1.392 1_455 S
C628 C629 1.385 . S
C628 C630 1.478 1_554 S
C629 H623 0.930 . S
C629 C625 1.400 . S
C629 C628 1.385 . S
C630 C628 1.478 1_556 S
C630 C632 1.381 . S
C630 C636 1.383 . S
C631 C627 1.495 . S
C631 H637 0.959 . S
C631 H638 0.961 1_554 S
C631 H639 0.960 1_554 S
C632 C630 1.381 . S
C632 C633 1.394 . S
C632 H640 0.930 . S
C633 C632 1.394 . S
C633 C634 1.383 . S
C633 H641 0.929 . S
C634 C633 1.383 . S
C634 C635 1.377 . S
C635 H619 0.930 . S
C635 C634 1.377 . S
C635 C636 1.379 . S
C636 H620 0.931 . S
C636 C630 1.383 . S
C636 C635 1.379 . S
H637 C631 0.959 . S
H638 C631 0.961 1_556 S
H639 C631 0.960 1_556 S
H640 C632 0.930 . S
H641 C633 0.929 . S
H642 C650 0.929 . S
H643 C652 0.930 . S
H644 C654 0.930 1_565 S
H645 C657 0.929 1_565 S
H646 C660 0.930 . S
H647 C662 0.960 . S
H648 C662 0.960 . S
H649 C662 0.960 . S
C650 H642 0.929 . S
C650 C651 1.377 . S
C650 C652 1.384 . S
C651 C650 1.377 . S
C651 C657 1.390 . S
C652 H643 0.930 . S
C652 C650 1.384 . S
C652 C653 1.372 . S
C653 C652 1.372 . S
C653 C654 1.400 . S
C653 C658 1.490 . S
C654 H644 0.930 1_545 S
C654 C653 1.400 . S
C654 C657 1.386 . S
H655 C671 0.930 . S
H656 C672 0.931 . S
C657 H645 0.929 1_545 S
C657 C651 1.390 . S
C657 C654 1.386 . S
C658 C653 1.490 . S
C658 C660 1.395 . S
C658 C661 1.403 . S
H659 C665 0.930 . S
C660 H646 0.930 . S
C660 C658 1.395 . S
C660 C663 1.403 . S
C661 C658 1.403 . S
C661 C662 1.524 1_545 S
C661 C665 1.400 . S
C662 H647 0.960 . S
C662 H648 0.960 . S
C662 H649 0.960 . S
C662 C661 1.524 1_565 S
C663 C660 1.403 . S
C663 C664 1.392 . S
C663 C667 1.495 . S
C664 C663 1.392 . S
C664 C665 1.385 . S
C664 C666 1.478 . S
C665 H659 0.930 . S
C665 C661 1.400 . S
C665 C664 1.385 . S
C666 C664 1.478 . S
C666 C668 1.381 . S
C666 C672 1.383 . S
C667 C663 1.495 . S
C667 H673 0.959 . S
C667 H674 0.961 . S
C667 H675 0.960 . S
C668 C666 1.381 . S
C668 C669 1.394 . S
C668 H676 0.930 . S
C669 C668 1.394 . S
C669 C670 1.383 . S
C669 H677 0.929 . S
C670 C669 1.383 . S
C670 C671 1.377 . S
C671 H655 0.930 . S
C671 C670 1.377 . S
C671 C672 1.379 . S
C672 H656 0.931 . S
C672 C666 1.383 . S
C672 C671 1.379 . S
H673 C667 0.959 . S
H674 C667 0.961 . S
H675 C667 0.960 . S
H676 C668 0.930 . S
H677 C669 0.929 . S
H678 C686 0.929 . S
H679 C688 0.930 . S
H680 C690 0.930 . S
H681 C693 0.929 . S
H682 C696 0.930 . S
H683 C698 0.960 . S
H684 C698 0.960 . S
H685 C698 0.960 . S
C686 H678 0.929 . S
C686 C687 1.377 . S
C686 C688 1.384 . S
C687 C686 1.377 . S
C687 C693 1.390 . S
C688 H679 0.930 . S
C688 C686 1.384 . S
C688 C689 1.372 . S
C689 C688 1.372 . S
C689 C690 1.400 . S
C689 C694 1.490 . S
C690 H680 0.930 . S
C690 C689 1.400 . S
C690 C693 1.386 . S
H691 C707 0.930 . S
H692 C708 0.931 . S
C693 H681 0.929 . S
C693 C687 1.390 . S
C693 C690 1.386 . S
C694 C689 1.490 . S
C694 C696 1.395 . S
C694 C697 1.403 . S
H695 C701 0.930 . S
C696 H682 0.930 . S
C696 C694 1.395 . S
C696 C699 1.403 . S
C697 C694 1.403 . S
C697 C698 1.524 . S
C697 C701 1.400 . S
C698 H683 0.960 . S
C698 H684 0.960 . S
C698 H685 0.960 . S
C698 C697 1.524 . S
C699 C696 1.403 . S
C699 C700 1.392 . S
C699 C703 1.495 . S
C700 C699 1.392 . S
C700 C701 1.385 . S
C700 C702 1.478 . S
C701 H695 0.930 . S
C701 C697 1.400 . S
C701 C700 1.385 . S
C702 C700 1.478 . S
C702 C704 1.381 . S
C702 C708 1.383 . S
C703 C699 1.495 . S
C703 H709 0.959 . S
C703 H710 0.961 . S
C703 H711 0.960 . S
C704 C702 1.381 . S
C704 C705 1.394 . S
C704 H712 0.930 . S
C705 C704 1.394 . S
C705 C706 1.383 . S
C705 H713 0.929 . S
C706 C705 1.383 . S
C706 C707 1.377 . S
C707 H691 0.930 . S
C707 C706 1.377 . S
C707 C708 1.379 . S
C708 H692 0.931 . S
C708 C702 1.383 . S
C708 C707 1.379 . S
H709 C703 0.959 . S
H710 C703 0.961 . S
H711 C703 0.960 . S
H712 C704 0.930 . S
H713 C705 0.929 . S
H714 C722 0.929 . S
H715 C724 0.930 . S
H716 C726 0.930 . S
H717 C729 0.929 . S
H718 C732 0.930 . S
H719 C734 0.960 . S
H720 C734 0.960 . S
H721 C734 0.960 1_565 S
C722 H714 0.929 . S
C722 C723 1.377 . S
C722 C724 1.384 . S
C723 C722 1.377 . S
C723 C729 1.390 1_545 S
C724 H715 0.930 . S
C724 C722 1.384 . S
C724 C725 1.372 . S
C725 C724 1.372 . S
C725 C726 1.400 1_545 S
C725 C730 1.490 . S
C726 H716 0.930 . S
C726 C725 1.400 1_565 S
C726 C729 1.386 . S
H727 C743 0.930 . S
H728 C744 0.931 . S
C729 H717 0.929 . S
C729 C723 1.390 1_565 S
C729 C726 1.386 . S
C730 C725 1.490 . S
C730 C732 1.395 . S
C730 C733 1.403 . S
H731 C737 0.930 . S
C732 H718 0.930 . S
C732 C730 1.395 . S
C732 C735 1.403 . S
C733 C730 1.403 . S
C733 C734 1.524 . S
C733 C737 1.400 . S
C734 H719 0.960 . S
C734 H720 0.960 . S
C734 H721 0.960 1_545 S
C734 C733 1.524 . S
C735 C732 1.403 . S
C735 C736 1.392 . S
C735 C739 1.495 . S
C736 C735 1.392 . S
C736 C737 1.385 . S
C736 C738 1.478 . S
C737 H731 0.930 . S
C737 C733 1.400 . S
C737 C736 1.385 . S
C738 C736 1.478 . S
C738 C740 1.381 . S
C738 C744 1.383 1_545 S
C739 C735 1.495 . S
C739 H745 0.959 . S
C739 H746 0.961 1_545 S
C739 H747 0.960 . S
C740 C738 1.381 . S
C740 C741 1.394 . S
C740 H748 0.930 . S
C741 C740 1.394 . S
C741 C742 1.383 . S
C741 H749 0.929 . S
C742 C741 1.383 . S
C742 C743 1.377 1_545 S
C743 H727 0.930 . S
C743 C742 1.377 1_565 S
C743 C744 1.379 . S
C744 H728 0.931 . S
C744 C738 1.383 1_565 S
C744 C743 1.379 . S
H745 C739 0.959 . S
H746 C739 0.961 1_565 S
H747 C739 0.960 . S
H748 C740 0.930 . S
H749 C741 0.929 . S
H750 C758 0.929 . S
H751 C760 0.930 . S
H752 C762 0.930 . S
H753 C765 0.929 . S
H754 C768 0.930 . S
H755 C770 0.960 . S
H756 C770 0.960 . S
H757 C770 0.960 . S
C758 H750 0.929 . S
C758 C759 1.377 . S
C758 C760 1.384 . S
C759 C758 1.377 . S
C759 C765 1.390 . S
C760 H751 0.930 . S
C760 C758 1.384 . S
C760 C761 1.372 . S
C761 C760 1.372 . S
C761 C762 1.400 . S
C761 C766 1.490 . S
C762 H752 0.930 . S
C762 C761 1.400 . S
C762 C765 1.386 . S
H763 C779 0.930 . S
H764 C780 0.931 . S
C765 H753 0.929 . S
C765 C759 1.390 . S
C765 C762 1.386 . S
C766 C761 1.490 . S
C766 C768 1.395 . S
C766 C769 1.403 . S
H767 C773 0.930 . S
C768 H754 0.930 . S
C768 C766 1.395 . S
C768 C771 1.403 . S
C769 C766 1.403 . S
C769 C770 1.524 . S
C769 C773 1.400 . S
C770 H755 0.960 . S
C770 H756 0.960 . S
C770 H757 0.960 . S
C770 C769 1.524 . S
C771 C768 1.403 . S
C771 C772 1.392 . S
C771 C775 1.495 . S
C772 C771 1.392 . S
C772 C773 1.385 . S
C772 C774 1.478 1_556 S
C773 H767 0.930 . S
C773 C769 1.400 . S
C773 C772 1.385 . S
C774 C772 1.478 1_554 S
C774 C776 1.381 . S
C774 C780 1.383 . S
C775 C771 1.495 . S
C775 H781 0.959 . S
C775 H782 0.951 1_556 S
C775 H783 0.960 1_556 S
C776 C774 1.381 . S
C776 C777 1.394 . S
C776 H784 0.930 . S
C777 C776 1.394 . S
C777 C778 1.383 . S
C777 H785 0.929 . S
C778 C777 1.383 . S
C778 C779 1.377 . S
C779 H763 0.930 . S
C779 C778 1.377 . S
C779 C780 1.379 . S
C780 H764 0.931 . S
C780 C774 1.383 . S
C780 C779 1.379 . S
H781 C775 0.959 . S
H782 C775 0.951 1_554 S
H783 C775 0.960 1_554 S
H784 C776 0.930 . S
H785 C777 0.929 . S
H786 C794 0.929 . S
H787 C796 0.930 . S
H788 C798 0.930 . S
H789 C801 0.929 . S
H790 C804 0.930 . S
H791 C806 0.960 . S
H792 C806 0.960 . S
H793 C806 0.960 . S
C794 H786 0.929 . S
C794 C795 1.377 . S
C794 C796 1.384 . S
C795 C794 1.377 . S
C795 C801 1.390 1_455 S
C796 H787 0.930 . S
C796 C794 1.384 . S
C796 C797 1.372 . S
C797 C796 1.372 . S
C797 C798 1.400 1_455 S
C797 C802 1.490 . S
C798 H788 0.930 . S
C798 C797 1.400 1_655 S
C798 C801 1.386 . S
H799 C815 0.918 1_655 S
H800 C816 0.931 . S
C801 H789 0.929 . S
C801 C795 1.390 1_655 S
C801 C798 1.386 . S
C802 C797 1.490 . S
C802 C804 1.395 . S
C802 C805 1.403 1_455 S
H803 C809 0.930 . S
C804 H790 0.930 . S
C804 C802 1.395 . S
C804 C807 1.403 . S
C805 C802 1.403 1_655 S
C805 C806 1.524 . S
C805 C809 1.400 . S
C806 H791 0.960 . S
C806 H792 0.960 . S
C806 H793 0.960 . S
C806 C805 1.524 . S
C807 C804 1.403 . S
C807 C808 1.392 . S
C807 C811 1.495 . S
C808 C807 1.392 . S
C808 C809 1.385 1_455 S
C808 C810 1.478 . S
C809 H803 0.930 . S
C809 C805 1.400 . S
C809 C808 1.385 1_655 S
C810 C808 1.478 . S
C810 C812 1.381 . S
C810 C816 1.383 . S
C811 C807 1.495 . S
C811 H817 0.959 . S
C811 H818 0.961 . S
C811 H819 0.960 . S
C812 C810 1.381 . S
C812 C813 1.394 . S
C812 H820 0.930 . S
C813 C812 1.394 . S
C813 C814 1.383 . S
C813 H821 0.929 . S
C814 C813 1.383 . S
C814 C815 1.377 . S
C815 H799 0.918 1_455 S
C815 C814 1.377 . S
C815 C816 1.379 . S
C816 H800 0.931 . S
C816 C810 1.383 . S
C816 C815 1.379 . S
H817 C811 0.959 . S
H818 C811 0.961 . S
H819 C811 0.960 . S
H820 C812 0.930 . S
H821 C813 0.929 . S
C183 C24 2.808 . S
C202 C169 2.775 . S
C219 C66 1.107 . S
C238 C151 1.131 . S
C255 C93 1.629 . S
C274 C163 1.606 . S
C291 C13 2.864 . S
C310 C172 2.836 . S
C346 C154 1.213 . S
C327 C57 1.224 . S
C382 C160 1.739 . S
C363 C104 1.780 . S
C399 C64 1.766 . S
C418 C133 1.751 . S
C435 C97 0.427 . S
C454 C142 0.381 . S
C471 C17 1.255 . S
C490 C124 1.259 . S
C526 C136 1.628 . S
C507 C53 1.642 . S
C562 C145 0.187 . S
C543 C106 0.382 . S
C579 C26 1.101 . S
C598 C127 1.111 . S
C634 C143 1.053 . S
C615 C2 1.041 . S
C651 C63 1.448 . S
C670 C125 1.498 . S
C687 C82 1.367 . S
C706 C134 1.380 . S
C742 C161 1.401 . S
C723 C42 1.376 . S
C778 C170 1.784 . S
C759 C103 1.730 . S
C795 C23 1.465 . S
C814 C152 1.487 . S
