# Generated by pormake.
# Topology pyr, (3,6)-cn, num edge types: 1
# Building blocks:
#     Node 0, Type 0, BuildingBlock: CUQRIR_clean_linker_1, # of connection points: 3
#     Node 1, Type 0, BuildingBlock: CUQRIR_clean_linker_1, # of connection points: 3
#     Node 2, Type 0, BuildingBlock: CUQRIR_clean_linker_1, # of connection points: 3
#     Node 3, Type 0, BuildingBlock: CUQRIR_clean_linker_1, # of connection points: 3
#     Node 4, Type 0, BuildingBlock: CUQRIR_clean_linker_1, # of connection points: 3
#     Node 5, Type 0, BuildingBlock: CUQRIR_clean_linker_1, # of connection points: 3
#     Node 6, Type 0, BuildingBlock: CUQRIR_clean_linker_1, # of connection points: 3
#     Node 7, Type 0, BuildingBlock: CUQRIR_clean_linker_1, # of connection points: 3
#     Node 8, Type 1, BuildingBlock: JUFBIX_clean_sbu_0, # of connection points: 6
#     Node 9, Type 1, BuildingBlock: JUFBIX_clean_sbu_0, # of connection points: 6
#     Node 10, Type 1, BuildingBlock: JUFBIX_clean_sbu_0, # of connection points: 6
#     Node 11, Type 1, BuildingBlock: JUFBIX_clean_sbu_0, # of connection points: 6
#     Edge 12, Type (0, 1), BuildingBlock: CIFDUS_clean_linker_0, # of connection points: 2
#     Edge 13, Type (0, 1), BuildingBlock: CIFDUS_clean_linker_0, # of connection points: 2
#     Edge 14, Type (0, 1), BuildingBlock: CIFDUS_clean_linker_0, # of connection points: 2
#     Edge 15, Type (0, 1), BuildingBlock: CIFDUS_clean_linker_0, # of connection points: 2
#     Edge 16, Type (0, 1), BuildingBlock: CIFDUS_clean_linker_0, # of connection points: 2
#     Edge 17, Type (0, 1), BuildingBlock: CIFDUS_clean_linker_0, # of connection points: 2
#     Edge 18, Type (0, 1), BuildingBlock: CIFDUS_clean_linker_0, # of connection points: 2
#     Edge 19, Type (0, 1), BuildingBlock: CIFDUS_clean_linker_0, # of connection points: 2
#     Edge 20, Type (0, 1), BuildingBlock: CIFDUS_clean_linker_0, # of connection points: 2
#     Edge 21, Type (0, 1), BuildingBlock: CIFDUS_clean_linker_0, # of connection points: 2
#     Edge 22, Type (0, 1), BuildingBlock: CIFDUS_clean_linker_0, # of connection points: 2
#     Edge 23, Type (0, 1), BuildingBlock: CIFDUS_clean_linker_0, # of connection points: 2
#     Edge 24, Type (0, 1), BuildingBlock: CIFDUS_clean_linker_0, # of connection points: 2
#     Edge 25, Type (0, 1), BuildingBlock: CIFDUS_clean_linker_0, # of connection points: 2
#     Edge 26, Type (0, 1), BuildingBlock: CIFDUS_clean_linker_0, # of connection points: 2
#     Edge 27, Type (0, 1), BuildingBlock: CIFDUS_clean_linker_0, # of connection points: 2
#     Edge 28, Type (0, 1), BuildingBlock: CIFDUS_clean_linker_0, # of connection points: 2
#     Edge 29, Type (0, 1), BuildingBlock: CIFDUS_clean_linker_0, # of connection points: 2
#     Edge 30, Type (0, 1), BuildingBlock: CIFDUS_clean_linker_0, # of connection points: 2
#     Edge 31, Type (0, 1), BuildingBlock: CIFDUS_clean_linker_0, # of connection points: 2
#     Edge 32, Type (0, 1), BuildingBlock: CIFDUS_clean_linker_0, # of connection points: 2
#     Edge 33, Type (0, 1), BuildingBlock: CIFDUS_clean_linker_0, # of connection points: 2
#     Edge 34, Type (0, 1), BuildingBlock: CIFDUS_clean_linker_0, # of connection points: 2
#     Edge 35, Type (0, 1), BuildingBlock: CIFDUS_clean_linker_0, # of connection points: 2
# Relax obj value: 0.158
# Max RMSD: 0.226
# Mean RMSD: 0.153
data_MOF--net-pry--node1-JUFBIX_clean_sbu_0--node2-CUQRIR_clean_linker_1--edge1-CIFDUS_clean_linker_0
_symmetry_space_group_name_H-M    P1
_symmetry_Int_Tables_number       1
_symmetry_cell_setting            triclinic
loop_
_symmetry_equiv_pos_as_xyz
'x, y, z'
_cell_length_a     29.599122
_cell_length_b     28.587932
_cell_length_c     28.895482
_cell_angle_alpha  78.167642
_cell_angle_beta   89.373278
_cell_angle_gamma 94.092486
loop_
_atom_site_label
_atom_site_type_symbol
_atom_site_fract_x
_atom_site_fract_y
_atom_site_fract_z
_atom_type_partial_charge
C0 C 0.23122 0.21771 0.20771 0.0
N1 N 0.26147 0.1843 0.22165 0.0
N2 N 0.24572 0.24867 0.16734 0.0
C3 C 0.18595 0.21763 0.23248 0.0
C4 C 0.28595 0.23231 0.15702 0.0
N5 N 0.29588 0.1932 0.19003 0.0
C6 C 0.31651 0.25581 0.11563 0.0
H7 H 0.1647 0.18485 0.22969 0.0
H8 H 0.16637 0.24832 0.21737 0.0
H9 H 0.19107 0.21682 0.27063 0.0
H10 H 0.31155 0.29463 0.1052 0.0
H11 H 0.3083 0.23891 0.08515 0.0
H12 H 0.35257 0.25102 0.12418 0.0
C13 C 0.38432 0.75252 0.74607 0.0
N14 N 0.37915 0.78986 0.76733 0.0
N15 N 0.42616 0.73644 0.75363 0.0
C16 C 0.35183 0.73726 0.71102 0.0
C17 C 0.4462 0.76538 0.78023 0.0
N18 N 0.4178 0.79788 0.78823 0.0
C19 C 0.49426 0.76371 0.79638 0.0
H20 H 0.33679 0.70051 0.72579 0.0
H21 H 0.37024 0.73645 0.67756 0.0
H22 H 0.3238 0.76107 0.70285 0.0
H23 H 0.51609 0.79134 0.77187 0.0
H24 H 0.50692 0.72799 0.79693 0.0
H25 H 0.49655 0.77208 0.83218 0.0
C26 C 0.66817 0.39386 0.91591 0.0
N27 N 0.70229 0.38073 0.94563 0.0
N28 N 0.68191 0.43164 0.88126 0.0
C29 C 0.62271 0.3661 0.91731 0.0
C30 C 0.72574 0.44171 0.89109 0.0
N31 N 0.73828 0.41088 0.9304 0.0
C32 C 0.7559 0.48201 0.86242 0.0
H33 H 0.62249 0.34427 0.88966 0.0
H34 H 0.59539 0.39093 0.9096 0.0
H35 H 0.61533 0.34208 0.95231 0.0
H36 H 0.7357 0.50836 0.83952 0.0
H37 H 0.77908 0.46716 0.83964 0.0
H38 H 0.77679 0.50037 0.886 0.0
C39 C 0.95816 0.6404 0.42845 0.0
N40 N 1.00107 0.66018 0.41957 0.0
N41 N 0.94007 0.65267 0.46689 0.0
C42 C 0.93214 0.61286 0.39687 0.0
C43 C 0.97364 0.68031 0.48153 0.0
N44 N 1.01128 0.68438 0.45329 0.0
C45 C 0.96751 0.70864 0.51943 0.0
H46 H 0.91845 0.63862 0.36724 0.0
H47 H 0.90339 0.59004 0.41653 0.0
H48 H 0.95459 0.59003 0.38174 0.0
H49 H 0.93473 0.69804 0.53906 0.0
H50 H 0.96897 0.7474 0.50304 0.0
H51 H 0.99544 0.70303 0.54478 0.0
C52 C 0.86992 0.8683 0.92226 0.0
N53 N 0.90571 0.86184 0.89503 0.0
N54 N 0.84674 0.90549 0.9005 0.0
C55 C 0.85567 0.83587 0.96886 0.0
C56 C 0.8696 0.92108 0.8584 0.0
N57 N 0.90537 0.89431 0.85464 0.0
C58 C 0.8595 0.96537 0.8231 0.0
H59 H 0.86552 0.7989 0.97013 0.0
H60 H 0.8185 0.83461 0.97498 0.0
H61 H 0.87279 0.84971 0.99783 0.0
H62 H 0.89098 0.98357 0.80457 0.0
H63 H 0.84284 0.99087 0.84068 0.0
H64 H 0.83622 0.95507 0.79644 0.0
C65 C 0.66927 0.15615 0.52746 0.0
N66 N 0.67734 0.12123 0.50376 0.0
N67 N 0.6289 0.17376 0.5156 0.0
C68 C 0.70021 0.173 0.56261 0.0
C69 C 0.61228 0.14809 0.48434 0.0
N70 N 0.64153 0.11583 0.47738 0.0
C71 C 0.57093 0.16002 0.45541 0.0
H72 H 0.72179 0.14428 0.57919 0.0
H73 H 0.68007 0.18438 0.59044 0.0
H74 H 0.72236 0.20447 0.54441 0.0
H75 H 0.5709 0.19938 0.44266 0.0
H76 H 0.54019 0.14806 0.47826 0.0
H77 H 0.56874 0.14264 0.42452 0.0
C78 C 0.35375 0.64209 0.21992 0.0
N79 N 0.38713 0.66816 0.23758 0.0
N80 N 0.34078 0.66593 0.17732 0.0
C81 C 0.33068 0.59517 0.24567 0.0
C82 C 0.36662 0.70778 0.16967 0.0
N83 N 0.39471 0.70937 0.20611 0.0
C84 C 0.36592 0.74662 0.12578 0.0
H85 H 0.29476 0.59177 0.23542 0.0
H86 H 0.33191 0.5919 0.28455 0.0
H87 H 0.34788 0.56526 0.2358 0.0
H88 H 0.36464 0.78201 0.13574 0.0
H89 H 0.33692 0.7408 0.10319 0.0
H90 H 0.39772 0.74757 0.10482 0.0
C91 C 0.05946 0.37247 0.62419 0.0
N92 N 0.08692 0.35869 0.59258 0.0
N93 N 0.07467 0.41585 0.63209 0.0
C94 C 1.02046 0.34169 0.65066 0.0
C95 C 0.11254 0.42765 0.60417 0.0
N96 N 0.12031 0.39273 0.58033 0.0
C97 C 0.14703 0.4681 0.60792 0.0
H98 H 0.99679 0.36385 0.66512 0.0
H99 H 0.03375 0.31581 0.68046 0.0
H100 H 1.00214 0.32098 0.62717 0.0
H101 H 0.13114 0.498 0.6192 0.0
H102 H 0.16505 0.48219 0.57352 0.0
H103 H 0.17237 0.45441 0.63438 0.0
Co104 Co 0.05122 0.02016 0.5074 0.0
C105 C 0.08272 0.93088 0.50143 0.0
Co106 Co 0.11392 0.00282 0.54517 0.0
C107 C 0.96212 0.0523 0.49267 0.0
C108 C 0.97955 0.01106 0.44197 0.0
N109 N 0.99607 0.02889 0.47874 0.0
N110 N 0.92517 0.04936 0.46647 0.0
C111 C 0.93562 0.02327 0.43463 0.0
H112 H 0.96389 0.07002 0.52239 0.0
H113 H 0.99797 0.99 0.42218 0.0
C114 C 0.08268 0.09323 0.5488 0.0
N115 N 0.16962 0.99751 0.57323 0.0
C116 C 0.1888 0.96149 0.60217 0.0
C117 C 0.20145 0.03472 0.56639 0.0
N118 N 0.23141 0.97513 0.61309 0.0
C119 C 0.23921 0.02117 0.59074 0.0
C120 C 0.12521 0.04803 0.44769 0.0
O121 O 0.05192 0.08231 0.5219 0.0
O122 O 0.11179 0.06346 0.56304 0.0
O123 O 0.14547 0.0328 0.48581 0.0
O124 O 0.0822 0.04653 0.44879 0.0
O125 O 0.11542 0.94138 0.5268 0.0
H126 H 0.19757 0.06973 0.54465 0.0
H127 H 0.17239 0.92587 0.61395 0.0
O128 O 0.05138 0.95923 0.49224 0.0
O129 O 1.01996 0.99258 0.5666 0.0
O130 O 0.08192 0.97273 0.60422 0.0
C131 C 0.03884 0.97347 0.60461 0.0
H132 H 0.91319 0.01402 0.408 0.0
H133 H 0.27017 0.04345 0.59182 0.0
Co134 Co 0.55997 0.02899 0.03974 0.0
C135 C 0.54467 0.94727 0.11332 0.0
Co136 Co 0.59313 0.03362 0.10681 0.0
C137 C 0.50875 0.98419 0.97488 0.0
C138 C 0.51319 0.06049 0.95243 0.0
N139 N 0.52613 0.0248 0.98692 0.0
N140 N 0.48563 0.99305 0.93467 0.0
C141 C 0.48859 0.04092 0.91985 0.0
H142 H 0.51361 0.94846 0.99451 0.0
H143 H 0.521 0.0983 0.95095 0.0
C144 C 0.61072 0.1146 1.03417 0.0
N145 N 0.62921 0.03871 0.15806 0.0
C146 C 0.61906 0.0443 0.20223 0.0
C147 C 0.67499 0.04369 0.15489 0.0
N148 N 0.65683 0.05272 0.22608 0.0
C149 C 0.6919 0.05187 0.19647 0.0
C150 C 0.64345 0.99532 1.03814 0.0
O151 O 0.58503 0.09161 1.0102 0.0
O152 O 0.61762 0.09593 0.07694 0.0
O153 O 0.64268 0.00516 0.07921 0.0
O154 O 0.60879 0.00262 1.01309 0.0
O155 O 0.56899 0.9712 0.13755 0.0
H156 H 0.69531 0.0443 0.12347 0.0
H157 H 0.58488 0.0452 0.21555 0.0
O158 O 0.53669 0.96584 0.07062 0.0
O159 O 0.51029 0.05563 0.06566 0.0
O160 O 0.54204 0.06178 0.1325 0.0
C161 C 0.5078 0.06743 0.10578 0.0
H162 H 0.47373 0.06016 0.88814 0.0
H163 H 0.7273 0.0588 0.20368 0.0
Co164 Co 0.55731 0.52325 0.54227 0.0
C165 C 0.49028 0.52978 0.4754 0.0
Co166 Co 0.49713 0.47407 0.56579 0.0
C167 C 0.64996 0.55898 0.527 0.0
C168 C 0.60531 0.61533 0.50987 0.0
N169 N 0.6058 0.56751 0.52447 0.0
N170 N 0.67738 0.59961 0.51496 0.0
C171 C 0.64925 0.63519 0.50401 0.0
H172 H 0.66151 0.52343 0.53784 0.0
H173 H 0.57498 0.63457 0.50488 0.0
C174 C 0.56584 0.46986 0.63209 0.0
N175 N 0.44961 0.42801 0.58435 0.0
C176 C 0.40505 0.42963 0.57523 0.0
C177 C 0.45395 0.38293 0.60848 0.0
N178 N 0.3815 0.3873 0.59284 0.0
C179 C 0.41225 0.35794 0.61386 0.0
C180 C 0.56441 0.43576 0.52041 0.0
O181 O 0.58628 0.49979 0.59885 0.0
O182 O 0.52551 0.45377 0.62634 0.0
O183 O 0.52624 0.42972 0.54149 0.0
O184 O 0.58583 0.47693 0.51346 0.0
O185 O 0.47004 0.49546 0.50531 0.0
H186 H 0.48565 0.36885 0.62072 0.0
H187 H 0.39018 0.46136 0.55642 0.0
O188 O 0.52861 0.54765 0.485 0.0
O189 O 0.52838 0.56748 0.5729 0.0
O190 O 0.46764 0.518 0.591 0.0
C191 C 0.48914 0.5575 0.59262 0.0
H192 H 0.65941 0.67304 0.49364 0.0
H193 H 0.40523 0.32082 0.63137 0.0
Co194 Co 0.07176 0.53839 0.99329 0.0
C195 C 0.98332 0.49212 1.00888 0.0
Co196 Co 0.03804 0.54412 0.06032 0.0
C197 C 0.08792 0.49955 0.9109 0.0
C198 C 0.11464 0.57255 0.90214 0.0
N199 N 0.09499 0.53557 0.93437 0.0
N200 N 0.10128 0.51304 0.86509 0.0
C201 C 0.11827 0.55887 0.85936 0.0
H202 H 0.07024 0.46528 0.92614 0.0
H203 H 0.12305 0.60808 0.90856 0.0
C204 C 0.12512 0.59059 0.04438 0.0
N205 N 1.01573 0.54802 0.11991 0.0
C206 C 1.02116 0.5861 0.14109 0.0
C207 C 1.00125 0.51092 0.15497 0.0
N208 N 1.01191 0.57383 0.18804 0.0
C209 C 0.99917 0.52663 0.19692 0.0
C210 C 0.0934 0.46543 0.06543 0.0
O211 O 0.1256 0.57486 1.00629 0.0
O212 O 0.0903 0.58147 0.07145 0.0
O213 O 0.06743 0.4868 0.08847 0.0
O214 O 0.09902 0.48102 1.02113 0.0
O215 O 0.98419 0.50614 0.04808 0.0
H216 H 0.9956 0.47419 0.15091 0.0
H217 H 0.035 0.62132 0.12317 0.0
O218 O 1.01805 0.50212 0.98134 0.0
O219 O 0.04449 0.59612 0.96523 0.0
O220 O 1.0106 0.60171 1.03158 0.0
C221 C 1.01902 0.61824 0.98771 0.0
H222 H 0.13075 0.58133 0.82622 0.0
H223 H 0.9904 0.5048 0.23153 0.0
H224 H 0.20042 0.10915 0.23667 0.0
H225 H 0.30514 0.18122 0.30345 0.0
H226 H 0.27486 0.14007 0.38162 0.0
H227 H 0.21024 0.0945 0.43083 0.0
H228 H 0.09802 0.03577 0.36149 0.0
H229 H 0.13793 0.06166 0.28511 0.0
C230 C 0.21749 0.11422 0.26849 0.0
C231 C 0.25563 0.14733 0.26416 0.0
C232 C 0.19692 0.09443 0.31309 0.0
C233 C 0.27687 0.15464 0.30561 0.0
C234 C 0.25863 0.13212 0.3504 0.0
C235 C 0.19478 0.08713 0.39898 0.0
C236 C 0.15093 0.06363 0.40186 0.0
C237 C 0.21737 0.10376 0.35458 0.0
C238 C 0.13132 0.05445 0.36023 0.0
C239 C 0.15432 0.0689 0.31652 0.0
H240 H 0.39317 0.81316 0.87225 0.0
H241 H 0.47044 0.87485 0.74492 0.0
H242 H 0.49467 0.94525 0.77741 0.0
H243 H 0.49772 0.98615 0.84475 0.0
H244 H 0.42688 0.92016 0.97516 0.0
H245 H 0.39569 0.85445 0.93945 0.0
C246 C 0.41497 0.84244 0.8519 0.0
C247 C 0.43009 0.83972 0.80662 0.0
C248 C 0.42977 0.88165 0.87151 0.0
C249 C 0.45863 0.87701 0.77997 0.0
C250 C 0.47238 0.91694 0.79852 0.0
C251 C 0.47482 0.95767 0.86475 0.0
C252 C 0.46407 0.95767 0.91207 0.0
C253 C 0.45867 0.91932 0.84453 0.0
C254 C 0.43524 0.92042 0.93852 0.0
C255 C 0.41762 0.88301 0.9182 0.0
H256 H 0.70249 0.41413 0.79654 0.0
H257 H 0.60748 0.48101 0.87064 0.0
H258 H 0.56 0.49552 0.80063 0.0
H259 H 0.54513 0.48751 0.71823 0.0
H260 H 0.64217 0.42328 0.64342 0.0
H261 H 0.68901 0.40841 0.71356 0.0
C262 C 0.67183 0.43273 0.79668 0.0
C263 C 0.65847 0.44709 0.83805 0.0
C264 C 0.64466 0.44022 0.75658 0.0
C265 C 0.61835 0.4703 0.83869 0.0
C266 C 0.59114 0.47809 0.79894 0.0
C267 C 0.57609 0.46942 0.71787 0.0
C268 C 0.58977 0.45517 0.67649 0.0
C269 C 0.6036 0.46258 0.75785 0.0
C270 C 0.6307 0.43343 0.67547 0.0
C271 C 0.65763 0.42541 0.71533 0.0
H272 H 0.99254 0.70805 0.33097 0.0
H273 H 0.06511 0.59931 0.41763 0.0
H274 H 0.07918 0.5633 0.34937 0.0
H275 H 0.05593 0.55333 0.2697 0.0
H276 H 0.98207 0.66144 0.18303 0.0
H277 H 0.98279 0.7073 0.24619 0.0
C278 C 1.01371 0.67819 0.33397 0.0
C279 C 1.02801 0.65634 0.37903 0.0
C280 C 1.01948 0.65647 0.29498 0.0
C281 C 0.05454 0.61705 0.3831 0.0
C282 C 0.06151 0.59582 0.34429 0.0
C283 C 0.04068 0.58733 0.26458 0.0
C284 C 1.01805 0.60366 0.22241 0.0
C285 C 0.04168 0.61354 0.30088 0.0
C286 C 0.99923 0.64817 0.21546 0.0
C287 C 0.9997 0.67428 0.25153 0.0
H288 H 0.31375 0.1466 0.12123 0.0
H289 H 0.36593 0.17804 0.25047 0.0
H290 H 0.43602 0.14041 0.23806 0.0
H291 H 0.4853 0.10276 0.18643 0.0
H292 H 0.43103 0.07561 0.05539 0.0
H293 H 0.36042 0.10734 0.07212 0.0
C294 C 0.3402 0.14439 0.14709 0.0
C295 C 0.33401 0.16425 0.18725 0.0
C296 C 0.38091 0.12403 0.13882 0.0
C297 C 0.36898 0.16179 0.22005 0.0
C298 C 0.4095 0.14086 0.21246 0.0
C299 C 0.45799 0.10362 0.16166 0.0
C300 C 0.46443 0.08672 0.11937 0.0
C301 C 0.41635 0.12247 0.17142 0.0
C302 C 0.42803 0.08832 0.08804 0.0
C303 C 0.38713 0.10649 0.09758 0.0
H304 H 0.39614 0.86822 0.70209 0.0
H305 H 0.29191 0.78767 0.79601 0.0
H306 H 0.23486 0.83969 0.75647 0.0
H307 H 0.21491 0.90459 0.69033 0.0
H308 H 0.32113 0.98208 0.59562 0.0
H309 H 0.37757 0.93522 0.64026 0.0
C310 C 0.36116 0.86348 0.71476 0.0
C311 C 0.34787 0.82547 0.75211 0.0
C312 C 0.32908 0.89236 0.69112 0.0
C313 C 0.30244 0.81771 0.76769 0.0
C314 C 0.27004 0.84695 0.74476 0.0
C315 C 0.25041 0.91094 0.67965 0.0
C316 C 0.26391 0.94663 0.63984 0.0
C317 C 0.28286 0.88367 0.70556 0.0
C318 C 0.31003 0.95513 0.62646 0.0
C319 C 0.34232 0.92833 0.65186 0.0
H320 H 0.82359 0.40962 0.89738 0.0
H321 H 0.74601 0.42494 1.01924 0.0
H322 H 0.81552 0.44795 0.05725 0.0
H323 H 0.89814 0.47203 0.0519 0.0
H324 H 0.97468 0.45744 0.9282 0.0
H325 H 0.90655 0.42635 0.8951 0.0
C326 C 0.8222 0.41722 0.93258 0.0
C327 C 0.77983 0.41538 0.95564 0.0
C328 C 0.86228 0.43141 0.95366 0.0
C329 C 0.77833 0.42527 1.00126 0.0
C330 C 0.81806 0.43905 1.02267 0.0
C331 C 0.90004 0.46142 1.01804 0.0
C332 C 0.9418 0.46771 0.99261 0.0
C333 C 0.86025 0.44347 0.99872 0.0
C334 C 0.94327 0.45354 0.9487 0.0
C335 C 0.90416 0.43566 0.92953 0.0
H336 H 0.88795 0.58228 0.52137 0.0
H337 H 0.88697 0.72249 0.43247 0.0
H338 H 0.80414 0.71948 0.44064 0.0
H339 H 0.73252 0.67437 0.46875 0.0
H340 H 0.73339 0.53439 0.56015 0.0
H341 H 0.81567 0.53942 0.55496 0.0
C342 C 0.86924 0.6122 0.50464 0.0
C343 C 0.8926 0.65259 0.47667 0.0
C344 C 0.82187 0.60989 0.50933 0.0
C345 C 0.86891 0.69137 0.45443 0.0
C346 C 0.82184 0.68945 0.45891 0.0
C347 C 0.75047 0.64519 0.48821 0.0
C348 C 0.72629 0.60382 0.51423 0.0
C349 C 0.79793 0.64853 0.48569 0.0
C350 C 0.75066 0.56627 0.5388 0.0
C351 C 0.79792 0.5692 0.53624 0.0
H352 H 0.21271 0.3217 0.20005 0.0
H353 H 0.2257 0.26437 0.07443 0.0
H354 H 0.18082 0.32717 1.03074 0.0
H355 H 0.13455 0.39668 1.02944 0.0
H356 H 0.11452 0.44702 0.15857 0.0
H357 H 0.16364 0.38795 0.19999 0.0
C358 C 0.20538 0.32284 0.16318 0.0
C359 C 0.22226 0.2881 0.14066 0.0
C360 C 0.17743 0.35739 0.13913 0.0
C361 C 0.21336 0.29072 0.09255 0.0
C362 C 0.18726 0.32636 0.06773 0.0
C363 C 0.14071 0.3945 0.06672 0.0
C364 C 0.12055 0.42637 0.09077 0.0
C365 C 0.16849 0.35953 0.09082 0.0
C366 C 0.12902 0.42283 0.13915 0.0
C367 C 0.15747 0.3892 0.16287 0.0
H368 H 0.70638 0.30325 0.90977 0.0
H369 H 0.69538 0.351 0.04073 0.0
H370 H 0.66957 0.26932 0.0819 0.0
H371 H 0.63868 0.18754 0.07722 0.0
H372 H 0.63719 0.14562 0.94203 0.0
H373 H 0.67784 0.22185 0.90526 0.0
C374 C 0.69997 0.295 0.94772 0.0
C375 C 0.70354 0.33254 0.97251 0.0
C376 C 0.68093 0.24946 0.96971 0.0
C377 C 0.69397 0.32236 1.02131 0.0
C378 C 0.6782 0.27593 0.04447 0.0
C379 C 0.64749 0.19513 0.03976 0.0
C380 C 0.63461 0.16123 1.01221 0.0
C381 C 0.66957 0.23977 1.01853 0.0
C382 C 0.64608 0.17145 0.96374 0.0
C383 C 0.6697 0.21481 0.94283 0.0
H384 H 1.02053 0.76932 0.39499 0.0
H385 H 0.07957 0.68163 0.51405 0.0
H386 H 0.11454 0.7531 0.53794 0.0
H387 H 0.11288 0.84086 0.53438 0.0
H388 H 0.04909 0.92677 0.41626 0.0
H389 H 1.03168 0.85667 0.38258 0.0
C390 C 0.04327 0.76605 0.42448 0.0
C391 C 0.04769 0.72061 0.45267 0.0
C392 C 0.06084 0.80737 0.43934 0.0
C393 C 0.07633 0.71646 0.49155 0.0
C394 C 0.0954 0.7574 0.50578 0.0
C395 C 0.09616 0.84423 0.50079 0.0
C396 C 0.08103 0.88872 0.4787 0.0
C397 C 0.08549 0.80317 0.48159 0.0
C398 C 0.05978 0.89265 0.43486 0.0
C399 C 0.05003 0.85259 0.41526 0.0
H400 H 0.39673 0.64829 0.74638 0.0
H401 H 0.50208 0.76001 0.69866 0.0
H402 H 0.53193 0.71418 0.64388 0.0
H403 H 0.52493 0.644 0.60645 0.0
H404 H 0.41329 0.53714 0.64884 0.0
H405 H 0.38771 0.58039 0.70706 0.0
C406 C 0.4263 0.66224 0.72401 0.0
C407 C 0.44759 0.70679 0.72679 0.0
C408 C 0.44131 0.63725 0.69072 0.0
C409 C 0.486 0.72498 0.69796 0.0
C410 C 0.5025 0.69924 0.66607 0.0
C411 C 0.49477 0.63049 0.62811 0.0
C412 C 0.47112 0.58751 0.6232 0.0
C413 C 0.47987 0.6557 0.66152 0.0
C414 C 0.43209 0.57035 0.65161 0.0
C415 C 0.41755 0.59477 0.68529 0.0
H416 H 0.88486 0.90135 0.76316 0.0
H417 H 0.99759 0.9031 0.85555 0.0
H418 H 0.05016 0.92457 0.78669 0.0
H419 H 0.06335 0.94934 0.69891 0.0
H420 H 0.94798 0.95157 0.60851 0.0
H421 H 0.89772 0.92316 0.67713 0.0
C422 C 0.92098 0.90633 0.76819 0.0
C423 C 0.93714 0.90082 0.81455 0.0
C424 C 0.9507 0.92014 0.7284 0.0
C425 C 0.98418 0.90662 0.82041 0.0
C426 C 1.01421 0.91943 0.78089 0.0
C427 C 1.02728 0.9432 0.69423 0.0
C428 C 1.0098 0.95299 0.64807 0.0
C429 C 0.99784 0.92725 0.73451 0.0
C430 C 0.96274 0.94486 0.64317 0.0
C431 C 0.93374 0.92843 0.68257 0.0
H432 H 0.69626 0.14264 0.40237 0.0
H433 H 0.5854 0.04247 0.46201 0.0
H434 H 0.57958 0.01283 0.38788 0.0
H435 H 0.60491 0.01885 0.30451 0.0
H436 H 0.71607 0.12057 0.24667 0.0
H437 H 0.72345 0.14627 0.3216 0.0
C438 C 0.67163 0.11359 0.39913 0.0
C439 C 0.64166 0.09407 0.43693 0.0
C440 C 0.6684 0.09756 0.35673 0.0
C441 C 0.60897 0.05727 0.4329 0.0
C442 C 0.60554 0.04076 0.39065 0.0
C443 C 0.63054 0.04664 0.3086 0.0
C444 C 0.66 0.06766 0.27043 0.0
C445 C 0.63471 0.06121 0.35201 0.0
C446 C 0.69345 0.10343 0.27587 0.0
C447 C 0.69761 0.11828 0.31858 0.0
H448 H 0.42151 0.58273 0.26667 0.0
H449 H 0.40424 0.71678 0.30815 0.0
H450 H 0.43767 0.68695 0.38423 0.0
H451 H 0.46738 0.62018 0.44169 0.0
H452 H 0.47073 0.48159 0.40556 0.0
H453 H 0.44499 0.51443 0.32581 0.0
C454 C 0.42475 0.60532 0.29249 0.0
C455 C 0.41098 0.65245 0.28098 0.0
C456 C 0.44039 0.58638 0.33778 0.0
C457 C 0.41612 0.68135 0.31474 0.0
C458 C 0.43434 0.66376 0.35892 0.0
C459 C 0.46202 0.59725 0.41632 0.0
C460 C 0.47061 0.54858 0.42921 0.0
C461 C 0.44588 0.61607 0.37114 0.0
C462 C 0.46372 0.51901 0.39637 0.0
C463 C 0.44941 0.53789 0.35077 0.0
H464 H 0.09073 0.37584 0.72157 0.0
H465 H 0.0411 0.50036 0.63295 0.0
H466 H 0.04342 0.54217 0.69921 0.0
H467 H 0.06744 0.54554 0.77995 0.0
H468 H 0.11585 0.42048 0.86928 0.0
H469 H 0.10617 0.37596 0.80546 0.0
C470 C 0.07906 0.41152 0.71755 0.0
C471 C 0.06555 0.43526 0.67299 0.0
C472 C 0.08129 0.43527 0.75552 0.0
C473 C 0.05116 0.48169 0.66734 0.0
C474 C 0.05302 0.50558 0.70495 0.0
C475 C 0.07573 0.50852 0.78524 0.0
C476 C 0.09317 0.48635 0.8286 0.0
C477 C 0.06943 0.48324 0.74872 0.0
C478 C 0.10274 0.43807 0.83587 0.0
C479 C 0.09718 0.41277 0.79949 0.0
H480 H 0.8347 0.92838 0.98589 0.0
H481 H 0.76814 0.9225 0.85531 0.0
H482 H 0.69924 0.94973 0.88595 0.0
H483 H 0.65728 0.97399 0.95073 0.0
H484 H 0.72363 0.97727 0.08241 0.0
H485 H 0.79247 0.95148 0.05107 0.0
C486 C 0.80498 0.93283 0.96431 0.0
C487 C 0.80666 0.92346 0.91826 0.0
C488 C 0.76518 0.9477 0.98261 0.0
C489 C 0.768 0.93003 0.89053 0.0
C490 C 0.72847 0.94525 0.90825 0.0
C491 C 0.6867 0.96892 0.97272 0.0
C492 C 0.68488 0.97766 1.01911 0.0
C493 C 0.72652 0.954 0.95437 0.0
C494 C 0.72367 0.97089 0.04674 0.0
C495 C 0.76326 0.95618 1.02876 0.0
H496 H 0.75995 0.16759 0.48913 0.0
H497 H 0.68895 0.0281 0.5068 0.0
H498 H 0.76011 0.99295 0.49384 0.0
H499 H 0.84302 0.00261 0.47798 0.0
H500 H 0.91417 0.14094 0.46864 0.0
H501 H 0.84261 0.17632 0.47905 0.0
C502 C 0.76033 0.1293 0.49168 0.0
C503 C 0.71964 0.10017 0.49988 0.0
C504 C 0.80129 0.10948 0.48546 0.0
C505 C 0.72014 0.05094 0.50081 0.0
C506 C 0.76067 0.03098 0.4934 0.0
C507 C 0.84243 0.04046 0.47811 0.0
C508 C 0.88314 0.06954 0.47217 0.0
C509 C 0.80145 0.05997 0.4856 0.0
C510 C 0.88282 0.11833 0.47311 0.0
C511 C 0.8421 0.13837 0.47903 0.0
H512 H 0.26217 0.70353 0.15327 0.0
H513 H 0.34559 0.59153 0.13438 0.0
H514 H 0.28809 0.56141 0.08476 0.0
H515 H 0.21138 0.56409 0.05149 0.0
H516 H 0.12605 0.67295 0.07607 0.0
H517 H 0.18694 0.7082 0.11754 0.0
C518 C 0.26763 0.67291 0.13767 0.0
C519 C 0.3077 0.64971 0.14688 0.0
C520 C 0.23422 0.65568 0.10992 0.0
C521 C 0.31473 0.60967 0.12739 0.0
C522 C 0.28201 0.59267 0.09906 0.0
C523 C 0.20682 0.59632 0.06479 0.0
C524 C 0.16483 0.61659 0.0601 0.0
C525 C 0.24135 0.61508 0.09046 0.0
C526 C 0.15848 0.65735 0.07878 0.0
C527 C 0.19308 0.6772 0.10282 0.0
H528 H 0.17451 0.33427 0.63149 0.0
H529 H 0.16678 0.4357 0.50029 0.0
H530 H 0.24968 0.44062 0.48996 0.0
H531 H 0.32431 0.42423 0.52501 0.0
H532 H 0.33022 0.3249 0.65877 0.0
H533 H 0.24814 0.31015 0.66133 0.0
C534 C 0.19105 0.3556 0.59964 0.0
C535 C 0.16515 0.38412 0.56635 0.0
C536 C 0.23836 0.35942 0.59519 0.0
C537 C 0.18648 0.41301 0.52582 0.0
C538 C 0.23373 0.41629 0.52044 0.0
C539 C 0.30756 0.39924 0.55453 0.0
C540 C 0.33333 0.37617 0.59192 0.0
C541 C 0.2601 0.39119 0.556 0.0
C542 C 0.31128 0.34303 0.62949 0.0
C543 C 0.26429 0.33466 0.63108 0.0
H544 H 0.91966 0.7846 0.85769 0.0
H545 H 0.96176 0.85845 0.96721 0.0
H546 H 1.00035 0.78892 1.007 0.0
H547 H 1.01606 0.70395 1.01458 0.0
H548 H 0.97855 0.63113 0.90263 0.0
H549 H 0.94405 0.70249 0.8601 0.0
C550 C 0.93865 0.78578 0.88934 0.0
C551 C 0.93817 0.82655 0.9095 0.0
C552 C 0.9605 0.74524 0.91228 0.0
C553 C 0.96219 0.82751 0.95101 0.0
C554 C 0.98371 0.78756 0.97403 0.0
C555 C 1.00031 0.70387 0.98087 0.0
C556 C 0.99899 0.66211 0.96219 0.0
C557 C 0.98191 0.74564 0.95582 0.0
C558 C 0.97953 0.66277 0.91791 0.0
C559 C 0.95993 0.70362 0.89351 0.0
H560 H 0.4727 0.72978 0.15706 0.0
H561 H 0.38492 0.78096 0.25186 0.0
H562 H 0.42909 0.85849 0.23718 0.0
H563 H 0.48597 0.91562 0.18796 0.0
H564 H 0.56366 0.86819 0.08176 0.0
H565 H 0.53049 0.786 0.10916 0.0
C566 C 0.46471 0.75746 0.17583 0.0
C567 C 0.4274 0.74883 0.20768 0.0
C568 C 0.48777 0.80324 0.16374 0.0
C569 C 0.41531 0.78575 0.22971 0.0
C570 C 0.43987 0.8305 0.22027 0.0
C571 C 0.49607 0.88694 0.17158 0.0
C572 C 0.52735 0.89748 0.13327 0.0
C573 C 0.47525 0.84021 0.18614 0.0
C574 C 0.53966 0.86056 0.11142 0.0
C575 C 0.52074 0.81367 0.12709 0.0
H576 H 0.10642 0.27369 0.64368 0.0
H577 H 0.06006 0.34372 0.50848 0.0
H578 H 0.05198 0.26671 0.48288 0.0
H579 H 0.05881 0.1792 0.49946 0.0
H580 H 0.11213 0.11078 0.63254 0.0
H581 H 0.11698 0.18697 0.6588 0.0
C582 C 0.09476 0.27168 0.60866 0.0
C583 C 0.08362 0.31359 0.5778 0.0
C584 C 0.09143 0.22764 0.59405 0.0
C585 C 0.0687 0.31141 0.53242 0.0
C586 C 0.06406 0.26756 0.51798 0.0
C587 C 0.07126 0.18109 0.53425 0.0
C588 C 0.08476 0.1395 0.56419 0.0
C589 C 0.07531 0.22537 0.54853 0.0
C590 C 0.10155 0.14241 0.6089 0.0
C591 C 0.10431 0.18591 0.62395 0.0
H592 H 0.67339 0.26078 0.49203 0.0
H593 H 0.5486 0.18523 0.55259 0.0
H594 H 0.51644 0.26129 0.55463 0.0
H595 H 0.52351 0.34721 0.53824 0.0
H596 H 0.64939 0.42599 0.48346 0.0
H597 H 0.68174 0.35002 0.47876 0.0
C598 C 0.63962 0.26135 0.50668 0.0
C599 C 0.6132 0.21799 0.52278 0.0
C600 C 0.6216 0.30526 0.50765 0.0
C601 C 0.56916 0.21849 0.54052 0.0
C602 C 0.55089 0.26176 0.54129 0.0
C603 C 0.55813 0.34835 0.52508 0.0
C604 C 0.58404 0.39241 0.51108 0.0
C605 C 0.57668 0.30514 0.52454 0.0
C606 C 0.62866 0.39262 0.49405 0.0
C607 C 0.64719 0.34924 0.49186 0.0
loop_
_geom_bond_atom_site_label_1
_geom_bond_atom_site_label_2
_geom_bond_distance
_geom_bond_site_symmetry_2
_ccdc_geom_bond_type
C0 N1 1.317 . S
C0 N2 1.348 . S
C0 C3 1.485 . S
N1 C0 1.317 . S
N1 N5 1.370 . S
N2 C0 1.348 . S
N2 C4 1.346 . S
C3 C0 1.485 . S
C3 H7 0.960 . S
C3 H8 0.961 . S
C3 H9 0.960 . S
C4 N2 1.346 . S
C4 N5 1.307 . S
C4 C6 1.486 . S
N5 N1 1.370 . S
N5 C4 1.307 . S
C6 C4 1.486 . S
C6 H10 0.960 . S
C6 H11 0.960 . S
C6 H12 0.959 . S
H7 C3 0.960 . S
H8 C3 0.961 . S
H9 C3 0.960 . S
H10 C6 0.960 . S
H11 C6 0.960 . S
H12 C6 0.959 . S
C13 N14 1.317 . S
C13 N15 1.348 . S
C13 C16 1.485 . S
N14 C13 1.317 . S
N14 N18 1.370 . S
N15 C13 1.348 . S
N15 C17 1.346 . S
C16 C13 1.485 . S
C16 H20 0.960 . S
C16 H21 0.961 . S
C16 H22 0.960 . S
C17 N15 1.346 . S
C17 N18 1.307 . S
C17 C19 1.486 . S
N18 N14 1.370 . S
N18 C17 1.307 . S
C19 C17 1.486 . S
C19 H23 0.960 . S
C19 H24 0.960 . S
C19 H25 0.959 . S
H20 C16 0.960 . S
H21 C16 0.961 . S
H22 C16 0.960 . S
H23 C19 0.960 . S
H24 C19 0.960 . S
H25 C19 0.959 . S
C26 N27 1.317 . S
C26 N28 1.348 . S
C26 C29 1.485 . S
N27 C26 1.317 . S
N27 N31 1.370 . S
N28 C26 1.348 . S
N28 C30 1.346 . S
C29 C26 1.485 . S
C29 H33 0.960 . S
C29 H34 0.961 . S
C29 H35 0.960 . S
C30 N28 1.346 . S
C30 N31 1.307 . S
C30 C32 1.486 . S
N31 N27 1.370 . S
N31 C30 1.307 . S
C32 C30 1.486 . S
C32 H36 0.960 . S
C32 H37 0.960 . S
C32 H38 0.959 . S
H33 C29 0.960 . S
H34 C29 0.961 . S
H35 C29 0.960 . S
H36 C32 0.960 . S
H37 C32 0.960 . S
H38 C32 0.959 . S
C39 N40 1.317 . S
C39 N41 1.348 . S
C39 C42 1.485 . S
N40 C39 1.317 . S
N40 N44 1.370 . S
N41 C39 1.348 . S
N41 C43 1.346 . S
C42 C39 1.485 . S
C42 H46 0.960 . S
C42 H47 0.961 . S
C42 H48 0.960 . S
C43 N41 1.346 . S
C43 N44 1.307 . S
C43 C45 1.486 . S
N44 N40 1.370 . S
N44 C43 1.307 . S
C45 C43 1.486 . S
C45 H49 0.960 . S
C45 H50 0.960 . S
C45 H51 0.959 . S
H46 C42 0.960 . S
H47 C42 0.961 . S
H48 C42 0.960 . S
H49 C45 0.960 . S
H50 C45 0.960 . S
H51 C45 0.959 . S
C52 N53 1.317 . S
C52 N54 1.348 . S
C52 C55 1.485 . S
N53 C52 1.317 . S
N53 N57 1.370 . S
N54 C52 1.348 . S
N54 C56 1.346 . S
C55 C52 1.485 . S
C55 H59 0.960 . S
C55 H60 0.961 . S
C55 H61 0.960 . S
C56 N54 1.346 . S
C56 N57 1.307 . S
C56 C58 1.486 . S
N57 N53 1.370 . S
N57 C56 1.307 . S
C58 C56 1.486 . S
C58 H62 0.960 1_565 S
C58 H63 0.960 . S
C58 H64 0.959 . S
H59 C55 0.960 . S
H60 C55 0.961 . S
H61 C55 0.960 . S
H62 C58 0.960 1_545 S
H63 C58 0.960 . S
H64 C58 0.959 . S
C65 N66 1.317 . S
C65 N67 1.348 . S
C65 C68 1.485 . S
N66 C65 1.317 . S
N66 N70 1.370 . S
N67 C65 1.348 . S
N67 C69 1.346 . S
C68 C65 1.485 . S
C68 H72 0.960 . S
C68 H73 0.961 . S
C68 H74 0.960 . S
C69 N67 1.346 . S
C69 N70 1.307 . S
C69 C71 1.486 . S
N70 N66 1.370 . S
N70 C69 1.307 . S
C71 C69 1.486 . S
C71 H75 0.960 . S
C71 H76 0.960 . S
C71 H77 0.959 . S
H72 C68 0.960 . S
H73 C68 0.961 . S
H74 C68 0.960 . S
H75 C71 0.960 . S
H76 C71 0.960 . S
H77 C71 0.959 . S
C78 N79 1.317 . S
C78 N80 1.348 . S
C78 C81 1.485 . S
N79 C78 1.317 . S
N79 N83 1.370 . S
N80 C78 1.348 . S
N80 C82 1.346 . S
C81 C78 1.485 . S
C81 H85 0.960 . S
C81 H86 0.961 . S
C81 H87 0.960 . S
C82 N80 1.346 . S
C82 N83 1.307 . S
C82 C84 1.486 . S
N83 N79 1.370 . S
N83 C82 1.307 . S
C84 C82 1.486 . S
C84 H88 0.960 . S
C84 H89 0.960 . S
C84 H90 0.959 . S
H85 C81 0.960 . S
H86 C81 0.961 . S
H87 C81 0.960 . S
H88 C84 0.960 . S
H89 C84 0.960 . S
H90 C84 0.959 . S
C91 N92 1.317 . S
C91 N93 1.348 . S
C91 C94 1.485 . S
N92 C91 1.317 . S
N92 N96 1.370 . S
N93 C91 1.348 . S
N93 C95 1.346 . S
C94 C91 1.485 . S
C94 H98 0.960 . S
C94 H99 0.961 . S
C94 H100 0.960 . S
C95 N93 1.346 . S
C95 N96 1.307 . S
C95 C97 1.486 . S
N96 N92 1.370 . S
N96 C95 1.307 . S
C97 C95 1.486 . S
C97 H101 0.960 . S
C97 H102 0.960 . S
C97 H103 0.959 . S
H98 C94 0.960 . S
H99 C94 0.961 . S
H100 C94 0.960 . S
H101 C97 0.960 . S
H102 C97 0.960 . S
H103 C97 0.959 . S
Co104 N109 2.057 1_455 S
Co104 O121 2.021 . S
Co104 O124 2.062 . S
Co104 O128 2.117 1_545 S
Co104 O129 2.020 . S
C105 O125 1.259 . S
C105 O128 1.258 . S
Co106 N115 2.057 . S
Co106 O122 2.117 1_565 S
Co106 O123 2.020 1_565 S
Co106 O125 2.021 . S
Co106 O130 2.062 . S
C107 N109 1.316 . S
C107 N110 1.347 . S
C107 H112 0.931 . S
C108 N109 1.378 . S
C108 C111 1.352 . S
C108 H113 0.925 1_545 S
N109 Co104 2.057 1_655 S
N109 C107 1.316 . S
N109 C108 1.378 . S
N110 C107 1.347 . S
N110 C111 1.373 . S
C111 C108 1.352 . S
C111 N110 1.373 . S
C111 H132 0.931 . S
H112 C107 0.931 . S
H113 C108 0.925 1_565 S
C114 O121 1.259 . S
C114 O122 1.258 . S
N115 Co106 2.057 . S
N115 C116 1.316 . S
N115 C117 1.375 1_565 S
C116 N115 1.316 . S
C116 N118 1.347 . S
C116 H127 0.931 . S
C117 N115 1.375 1_545 S
C117 C119 1.350 . S
C117 H126 0.930 . S
N118 C116 1.347 . S
N118 C119 1.373 1_565 S
C119 C117 1.350 . S
C119 N118 1.373 1_545 S
C119 H133 0.931 . S
C120 O123 1.256 . S
C120 O124 1.255 . S
O121 Co104 2.021 . S
O121 C114 1.259 . S
O122 Co106 2.117 1_545 S
O122 C114 1.258 . S
O123 Co106 2.020 1_545 S
O123 C120 1.256 . S
O124 Co104 2.062 . S
O124 C120 1.255 . S
O125 C105 1.259 . S
O125 Co106 2.021 . S
H126 C117 0.930 . S
H127 C116 0.931 . S
O128 Co104 2.117 1_565 S
O128 C105 1.258 . S
O129 Co104 2.020 . S
O129 C131 1.259 1_545 S
O130 Co106 2.062 . S
O130 C131 1.255 . S
C131 O129 1.259 1_565 S
C131 O130 1.255 . S
H132 C111 0.931 . S
H133 C119 0.931 . S
Co134 N139 2.057 1_545 S
Co134 O151 2.021 . S
Co134 O154 2.062 1_545 S
Co134 O158 2.117 1_546 S
Co134 O159 2.020 1_556 S
C135 O155 1.259 . S
C135 O158 1.258 . S
Co136 N145 2.057 . S
Co136 O152 2.117 . S
Co136 O153 2.020 . S
Co136 O155 2.021 1_545 S
Co136 O160 2.062 . S
C137 N139 1.316 . S
C137 N140 1.347 . S
C137 H142 0.931 1_565 S
C138 N139 1.375 . S
C138 C141 1.350 . S
C138 H143 0.930 . S
N139 Co134 2.057 1_565 S
N139 C137 1.316 . S
N139 C138 1.375 . S
N140 C137 1.347 . S
N140 C141 1.373 . S
C141 C138 1.350 . S
C141 N140 1.373 . S
C141 H162 0.931 . S
H142 C137 0.931 1_545 S
H143 C138 0.930 . S
C144 O151 1.259 . S
C144 O152 1.258 1_556 S
N145 Co136 2.057 . S
N145 C146 1.316 . S
N145 C147 1.375 . S
C146 N145 1.316 . S
C146 N148 1.347 . S
C146 H157 0.931 . S
C147 N145 1.375 . S
C147 C149 1.350 . S
C147 H156 0.930 . S
N148 C146 1.347 . S
N148 C149 1.373 . S
C149 C147 1.350 . S
C149 N148 1.373 . S
C149 H163 0.931 . S
C150 O153 1.256 1_565 S
C150 O154 1.255 1_554 S
O151 Co134 2.021 . S
O151 C144 1.259 . S
O152 Co136 2.117 . S
O152 C144 1.258 1_554 S
O153 Co136 2.020 . S
O153 C150 1.256 1_545 S
O154 Co134 2.062 1_565 S
O154 C150 1.255 1_556 S
O155 C135 1.259 . S
O155 Co136 2.021 1_565 S
H156 C147 0.930 . S
H157 C146 0.931 . S
O158 Co134 2.117 1_564 S
O158 C135 1.258 . S
O159 Co134 2.020 1_554 S
O159 C161 1.256 . S
O160 Co136 2.062 . S
O160 C161 1.255 . S
C161 O159 1.256 . S
C161 O160 1.255 . S
H162 C141 0.931 . S
H163 C149 0.931 . S
Co164 N169 2.057 . S
Co164 O181 2.021 . S
Co164 O184 2.062 . S
Co164 O188 2.117 . S
Co164 O189 2.020 . S
C165 O185 1.259 . S
C165 O188 1.258 . S
Co166 N175 2.057 . S
Co166 O182 2.117 . S
Co166 O183 2.020 . S
Co166 O185 2.021 . S
Co166 O190 2.062 . S
C167 N169 1.316 . S
C167 N170 1.347 . S
C167 H172 0.931 . S
C168 N169 1.375 . S
C168 C171 1.350 . S
C168 H173 0.930 . S
N169 Co164 2.057 . S
N169 C167 1.316 . S
N169 C168 1.375 . S
N170 C167 1.347 . S
N170 C171 1.373 . S
C171 C168 1.350 . S
C171 N170 1.373 . S
C171 H192 0.931 . S
H172 C167 0.931 . S
H173 C168 0.930 . S
C174 O181 1.259 . S
C174 O182 1.258 . S
N175 Co166 2.057 . S
N175 C176 1.316 . S
N175 C177 1.375 . S
C176 N175 1.316 . S
C176 N178 1.347 . S
C176 H187 0.931 . S
C177 N175 1.375 . S
C177 C179 1.350 . S
C177 H186 0.930 . S
N178 C176 1.347 . S
N178 C179 1.373 . S
C179 C177 1.350 . S
C179 N178 1.373 . S
C179 H193 0.931 . S
C180 O183 1.256 . S
C180 O184 1.255 . S
O181 Co164 2.021 . S
O181 C174 1.259 . S
O182 Co166 2.117 . S
O182 C174 1.258 . S
O183 Co166 2.020 . S
O183 C180 1.256 . S
O184 Co164 2.062 . S
O184 C180 1.255 . S
O185 C165 1.259 . S
O185 Co166 2.021 . S
H186 C177 0.930 . S
H187 C176 0.931 . S
O188 Co164 2.117 . S
O188 C165 1.258 . S
O189 Co164 2.020 . S
O189 C191 1.256 . S
O190 Co166 2.062 . S
O190 C191 1.255 . S
C191 O189 1.256 . S
C191 O190 1.255 . S
H192 C171 0.931 . S
H193 C179 0.931 . S
Co194 N199 2.057 . S
Co194 O211 2.021 . S
Co194 O214 2.062 . S
Co194 O218 2.117 1_455 S
Co194 O219 2.020 . S
C195 O215 1.259 1_556 S
C195 O218 1.258 . S
Co196 N205 2.057 . S
Co196 O212 2.117 1_655 S
Co196 O213 2.020 1_655 S
Co196 O215 2.021 . S
Co196 O220 2.062 . S
C197 N199 1.316 . S
C197 N200 1.347 . S
C197 H202 0.931 . S
C198 N199 1.375 1_655 S
C198 C201 1.350 1_655 S
C198 H203 0.930 . S
N199 Co194 2.057 . S
N199 C197 1.316 . S
N199 C198 1.375 1_455 S
N200 C197 1.347 . S
N200 C201 1.373 . S
C201 C198 1.350 1_455 S
C201 N200 1.373 . S
C201 H222 0.931 1_455 S
H202 C197 0.931 . S
H203 C198 0.930 . S
C204 O211 1.259 1_554 S
C204 O212 1.258 . S
N205 Co196 2.057 . S
N205 C206 1.316 . S
N205 C207 1.375 1_655 S
C206 N205 1.316 . S
C206 N208 1.347 . S
C206 H217 0.931 . S
C207 N205 1.375 1_455 S
C207 C209 1.350 . S
C207 H216 0.930 . S
N208 C206 1.347 . S
N208 C209 1.373 1_655 S
C209 C207 1.350 . S
C209 N208 1.373 1_455 S
C209 H223 0.931 . S
C210 O213 1.256 . S
C210 O214 1.255 1_554 S
O211 Co194 2.021 . S
O211 C204 1.259 1_556 S
O212 Co196 2.117 1_455 S
O212 C204 1.258 . S
O213 Co196 2.020 1_455 S
O213 C210 1.256 . S
O214 Co194 2.062 . S
O214 C210 1.255 1_556 S
O215 C195 1.259 1_554 S
O215 Co196 2.021 . S
H216 C207 0.930 . S
H217 C206 0.931 . S
O218 Co194 2.117 1_655 S
O218 C195 1.258 . S
O219 Co194 2.020 . S
O219 C221 1.256 1_455 S
O220 Co196 2.062 . S
O220 C221 1.255 1_554 S
C221 O219 1.256 1_655 S
C221 O220 1.255 1_556 S
H222 C201 0.931 1_655 S
H223 C209 0.931 . S
H224 C230 0.930 . S
H225 C233 0.930 . S
H226 C234 0.930 . S
H227 C235 0.930 . S
H228 C238 0.930 . S
H229 C239 0.930 . S
C230 H224 0.930 . S
C230 C231 1.355 . S
C230 C232 1.415 . S
C231 C230 1.355 . S
C231 C233 1.419 . S
C232 C230 1.415 . S
C232 C237 1.425 . S
C232 C239 1.409 . S
C233 H225 0.930 . S
C233 C231 1.419 . S
C233 C234 1.362 . S
C234 H226 0.930 . S
C234 C233 1.362 . S
C234 C237 1.409 . S
C235 H227 0.930 . S
C235 C236 1.355 . S
C235 C237 1.415 . S
C236 C235 1.355 . S
C236 C238 1.419 . S
C237 C232 1.425 . S
C237 C234 1.409 . S
C237 C235 1.415 . S
C238 H228 0.930 . S
C238 C236 1.419 . S
C238 C239 1.362 . S
C239 H229 0.930 . S
C239 C232 1.409 . S
C239 C238 1.362 . S
H240 C246 0.930 . S
H241 C249 0.930 . S
H242 C250 0.930 . S
H243 C251 0.930 . S
H244 C254 0.930 . S
H245 C255 0.930 . S
C246 H240 0.930 . S
C246 C247 1.355 . S
C246 C248 1.415 . S
C247 C246 1.355 . S
C247 C249 1.419 . S
C248 C246 1.415 . S
C248 C253 1.425 . S
C248 C255 1.409 . S
C249 H241 0.930 . S
C249 C247 1.419 . S
C249 C250 1.362 . S
C250 H242 0.930 . S
C250 C249 1.362 . S
C250 C253 1.409 . S
C251 H243 0.930 . S
C251 C252 1.355 . S
C251 C253 1.415 . S
C252 C251 1.355 . S
C252 C254 1.419 . S
C253 C248 1.425 . S
C253 C250 1.409 . S
C253 C251 1.415 . S
C254 H244 0.930 . S
C254 C252 1.419 . S
C254 C255 1.362 . S
C255 H245 0.930 . S
C255 C248 1.409 . S
C255 C254 1.362 . S
H256 C262 0.930 . S
H257 C265 0.930 . S
H258 C266 0.930 . S
H259 C267 0.930 . S
H260 C270 0.930 . S
H261 C271 0.930 . S
C262 H256 0.930 . S
C262 C263 1.355 . S
C262 C264 1.415 . S
C263 C262 1.355 . S
C263 C265 1.419 . S
C264 C262 1.415 . S
C264 C269 1.425 . S
C264 C271 1.409 . S
C265 H257 0.930 . S
C265 C263 1.419 . S
C265 C266 1.362 . S
C266 H258 0.930 . S
C266 C265 1.362 . S
C266 C269 1.409 . S
C267 H259 0.930 . S
C267 C268 1.355 . S
C267 C269 1.415 . S
C268 C267 1.355 . S
C268 C270 1.419 . S
C269 C264 1.425 . S
C269 C266 1.409 . S
C269 C267 1.415 . S
C270 H260 0.930 . S
C270 C268 1.419 . S
C270 C271 1.362 . S
C271 H261 0.930 . S
C271 C264 1.409 . S
C271 C270 1.362 . S
H272 C278 0.930 . S
H273 C281 0.930 1_455 S
H274 C282 0.930 . S
H275 C283 0.930 1_455 S
H276 C286 0.930 . S
H277 C287 0.930 . S
C278 H272 0.930 . S
C278 C279 1.355 . S
C278 C280 1.415 . S
C279 C278 1.355 . S
C279 C281 1.419 . S
C280 C278 1.415 . S
C280 C285 1.425 . S
C280 C287 1.409 . S
C281 H273 0.930 1_655 S
C281 C279 1.419 . S
C281 C282 1.362 1_655 S
C282 H274 0.930 . S
C282 C281 1.362 1_455 S
C282 C285 1.409 1_455 S
C283 H275 0.930 1_655 S
C283 C284 1.355 . S
C283 C285 1.415 . S
C284 C283 1.355 . S
C284 C286 1.419 . S
C285 C280 1.425 . S
C285 C282 1.409 1_655 S
C285 C283 1.415 . S
C286 H276 0.930 . S
C286 C284 1.419 . S
C286 C287 1.362 . S
C287 H277 0.930 . S
C287 C280 1.409 . S
C287 C286 1.362 . S
H288 C294 0.930 . S
H289 C297 0.930 . S
H290 C298 0.930 . S
H291 C299 0.930 . S
H292 C302 0.930 . S
H293 C303 0.930 . S
C294 H288 0.930 . S
C294 C295 1.355 . S
C294 C296 1.415 . S
C295 C294 1.355 . S
C295 C297 1.419 . S
C296 C294 1.415 . S
C296 C301 1.425 . S
C296 C303 1.409 . S
C297 H289 0.930 . S
C297 C295 1.419 . S
C297 C298 1.362 . S
C298 H290 0.930 . S
C298 C297 1.362 . S
C298 C301 1.409 . S
C299 H291 0.930 . S
C299 C300 1.355 . S
C299 C301 1.415 . S
C300 C299 1.355 . S
C300 C302 1.419 . S
C301 C296 1.425 . S
C301 C298 1.409 . S
C301 C299 1.415 . S
C302 H292 0.930 . S
C302 C300 1.419 . S
C302 C303 1.362 . S
C303 H293 0.930 . S
C303 C296 1.409 . S
C303 C302 1.362 . S
H304 C310 0.930 . S
H305 C313 0.930 . S
H306 C314 0.930 . S
H307 C315 0.930 . S
H308 C318 0.930 1_545 S
H309 C319 0.942 . S
C310 H304 0.930 . S
C310 C311 1.355 . S
C310 C312 1.415 . S
C311 C310 1.355 . S
C311 C313 1.419 . S
C312 C310 1.415 . S
C312 C317 1.425 . S
C312 C319 1.409 . S
C313 H305 0.930 . S
C313 C311 1.419 . S
C313 C314 1.362 . S
C314 H306 0.930 . S
C314 C313 1.362 . S
C314 C317 1.409 . S
C315 H307 0.930 . S
C315 C316 1.355 . S
C315 C317 1.415 . S
C316 C315 1.355 . S
C316 C318 1.419 . S
C317 C312 1.425 . S
C317 C314 1.409 . S
C317 C315 1.415 . S
C318 H308 0.930 1_565 S
C318 C316 1.419 . S
C318 C319 1.362 . S
C319 H309 0.942 . S
C319 C312 1.409 . S
C319 C318 1.362 . S
H320 C326 0.930 . S
H321 C329 0.930 . S
H322 C330 0.930 . S
H323 C331 0.930 . S
H324 C334 0.930 . S
H325 C335 0.930 . S
C326 H320 0.930 . S
C326 C327 1.355 . S
C326 C328 1.415 . S
C327 C326 1.355 . S
C327 C329 1.419 . S
C328 C326 1.415 . S
C328 C333 1.425 . S
C328 C335 1.409 . S
C329 H321 0.930 . S
C329 C327 1.419 . S
C329 C330 1.362 . S
C330 H322 0.930 . S
C330 C329 1.362 . S
C330 C333 1.409 . S
C331 H323 0.930 . S
C331 C332 1.355 . S
C331 C333 1.415 . S
C332 C331 1.355 . S
C332 C334 1.419 . S
C333 C328 1.425 . S
C333 C330 1.409 . S
C333 C331 1.415 . S
C334 H324 0.930 . S
C334 C332 1.419 . S
C334 C335 1.362 . S
C335 H325 0.930 . S
C335 C328 1.409 . S
C335 C334 1.362 . S
H336 C342 0.930 . S
H337 C345 0.930 . S
H338 C346 0.930 . S
H339 C347 0.930 . S
H340 C350 0.930 . S
H341 C351 0.930 . S
C342 H336 0.930 . S
C342 C343 1.355 . S
C342 C344 1.415 . S
C343 C342 1.355 . S
C343 C345 1.419 . S
C344 C342 1.415 . S
C344 C349 1.425 . S
C344 C351 1.409 . S
C345 H337 0.930 . S
C345 C343 1.419 . S
C345 C346 1.362 . S
C346 H338 0.930 . S
C346 C345 1.362 . S
C346 C349 1.409 . S
C347 H339 0.930 . S
C347 C348 1.355 . S
C347 C349 1.415 . S
C348 C347 1.355 . S
C348 C350 1.419 . S
C349 C344 1.425 . S
C349 C346 1.409 . S
C349 C347 1.415 . S
C350 H340 0.930 . S
C350 C348 1.419 . S
C350 C351 1.362 . S
C351 H341 0.930 . S
C351 C344 1.409 . S
C351 C350 1.362 . S
H352 C358 0.930 . S
H353 C361 0.930 . S
H354 C362 0.930 . S
H355 C363 0.930 . S
H356 C366 0.930 . S
H357 C367 0.930 . S
C358 H352 0.930 . S
C358 C359 1.355 . S
C358 C360 1.415 . S
C359 C358 1.355 . S
C359 C361 1.419 . S
C360 C358 1.415 . S
C360 C365 1.425 . S
C360 C367 1.409 . S
C361 H353 0.930 . S
C361 C359 1.419 . S
C361 C362 1.362 . S
C362 H354 0.930 . S
C362 C361 1.362 . S
C362 C365 1.409 . S
C363 H355 0.930 . S
C363 C364 1.355 . S
C363 C365 1.415 . S
C364 C363 1.355 . S
C364 C366 1.419 . S
C365 C360 1.425 . S
C365 C362 1.409 . S
C365 C363 1.415 . S
C366 H356 0.930 . S
C366 C364 1.419 . S
C366 C367 1.362 . S
C367 H357 0.930 . S
C367 C360 1.409 . S
C367 C366 1.362 . S
H368 C374 0.930 . S
H369 C377 0.930 . S
H370 C378 0.930 1_554 S
H371 C379 0.930 1_554 S
H372 C382 0.930 . S
H373 C383 0.930 . S
C374 H368 0.930 . S
C374 C375 1.355 . S
C374 C376 1.415 . S
C375 C374 1.355 . S
C375 C377 1.419 . S
C376 C374 1.415 . S
C376 C381 1.425 . S
C376 C383 1.409 . S
C377 H369 0.930 . S
C377 C375 1.419 . S
C377 C378 1.362 . S
C378 H370 0.930 1_556 S
C378 C377 1.362 . S
C378 C381 1.409 . S
C379 H371 0.930 1_556 S
C379 C380 1.355 . S
C379 C381 1.415 . S
C380 C379 1.355 . S
C380 C382 1.419 . S
C381 C376 1.425 . S
C381 C378 1.409 . S
C381 C379 1.415 . S
C382 H372 0.930 . S
C382 C380 1.419 . S
C382 C383 1.362 . S
C383 H373 0.930 . S
C383 C376 1.409 . S
C383 C382 1.362 . S
H384 C390 0.930 . S
H385 C393 0.930 . S
H386 C394 0.930 . S
H387 C395 0.930 . S
H388 C398 0.930 . S
H389 C399 0.930 . S
C390 H384 0.930 . S
C390 C391 1.355 . S
C390 C392 1.415 . S
C391 C390 1.355 . S
C391 C393 1.419 1_655 S
C392 C390 1.415 . S
C392 C397 1.425 1_655 S
C392 C399 1.409 . S
C393 H385 0.930 . S
C393 C391 1.419 1_455 S
C393 C394 1.362 . S
C394 H386 0.930 . S
C394 C393 1.362 . S
C394 C397 1.409 . S
C395 H387 0.930 . S
C395 C396 1.355 . S
C395 C397 1.415 . S
C396 C395 1.355 . S
C396 C398 1.419 1_455 S
C397 C392 1.425 1_455 S
C397 C394 1.409 . S
C397 C395 1.415 . S
C398 H388 0.930 . S
C398 C396 1.419 1_655 S
C398 C399 1.362 . S
C399 H389 0.930 . S
C399 C392 1.409 . S
C399 C398 1.362 . S
H400 C406 0.930 . S
H401 C409 0.930 . S
H402 C410 0.930 . S
H403 C411 0.930 . S
H404 C414 0.930 . S
H405 C415 0.930 . S
C406 H400 0.930 . S
C406 C407 1.355 . S
C406 C408 1.415 . S
C407 C406 1.355 . S
C407 C409 1.419 . S
C408 C406 1.415 . S
C408 C413 1.425 . S
C408 C415 1.409 . S
C409 H401 0.930 . S
C409 C407 1.419 . S
C409 C410 1.362 . S
C410 H402 0.930 . S
C410 C409 1.362 . S
C410 C413 1.409 . S
C411 H403 0.930 . S
C411 C412 1.355 . S
C411 C413 1.415 . S
C412 C411 1.355 . S
C412 C414 1.419 . S
C413 C408 1.425 . S
C413 C410 1.409 . S
C413 C411 1.415 . S
C414 H404 0.930 . S
C414 C412 1.419 . S
C414 C415 1.362 . S
C415 H405 0.930 . S
C415 C408 1.409 . S
C415 C414 1.362 . S
H416 C422 0.930 . S
H417 C425 0.930 1_455 S
H418 C426 0.930 . S
H419 C427 0.930 . S
H420 C430 0.930 . S
H421 C431 0.930 . S
C422 H416 0.930 . S
C422 C423 1.355 . S
C422 C424 1.415 . S
C423 C422 1.355 . S
C423 C425 1.419 . S
C424 C422 1.415 . S
C424 C429 1.425 . S
C424 C431 1.409 . S
C425 H417 0.930 1_655 S
C425 C423 1.419 . S
C425 C426 1.362 1_655 S
C426 H418 0.930 . S
C426 C425 1.362 1_455 S
C426 C429 1.409 1_455 S
C427 H419 0.930 . S
C427 C428 1.355 . S
C427 C429 1.415 1_455 S
C428 C427 1.355 . S
C428 C430 1.419 1_455 S
C429 C424 1.425 . S
C429 C426 1.409 1_655 S
C429 C427 1.415 1_655 S
C430 H420 0.930 . S
C430 C428 1.419 1_655 S
C430 C431 1.362 . S
C431 H421 0.930 . S
C431 C424 1.409 . S
C431 C430 1.362 . S
H432 C438 0.930 . S
H433 C441 0.930 . S
H434 C442 0.930 . S
H435 C443 0.930 . S
H436 C446 0.930 . S
H437 C447 0.930 . S
C438 H432 0.930 . S
C438 C439 1.355 . S
C438 C440 1.415 . S
C439 C438 1.355 . S
C439 C441 1.419 . S
C440 C438 1.415 . S
C440 C445 1.425 . S
C440 C447 1.409 . S
C441 H433 0.930 . S
C441 C439 1.419 . S
C441 C442 1.362 . S
C442 H434 0.930 . S
C442 C441 1.362 . S
C442 C445 1.409 . S
C443 H435 0.930 . S
C443 C444 1.355 . S
C443 C445 1.415 . S
C444 C443 1.355 . S
C444 C446 1.419 . S
C445 C440 1.425 . S
C445 C442 1.409 . S
C445 C443 1.415 . S
C446 H436 0.930 . S
C446 C444 1.419 . S
C446 C447 1.362 . S
C447 H437 0.930 . S
C447 C440 1.409 . S
C447 C446 1.362 . S
H448 C454 0.930 . S
H449 C457 0.930 . S
H450 C458 0.930 . S
H451 C459 0.930 . S
H452 C462 0.930 . S
H453 C463 0.930 . S
C454 H448 0.930 . S
C454 C455 1.355 . S
C454 C456 1.415 . S
C455 C454 1.355 . S
C455 C457 1.419 . S
C456 C454 1.415 . S
C456 C461 1.425 . S
C456 C463 1.409 . S
C457 H449 0.930 . S
C457 C455 1.419 . S
C457 C458 1.362 . S
C458 H450 0.930 . S
C458 C457 1.362 . S
C458 C461 1.409 . S
C459 H451 0.930 . S
C459 C460 1.355 . S
C459 C461 1.415 . S
C460 C459 1.355 . S
C460 C462 1.419 . S
C461 C456 1.425 . S
C461 C458 1.409 . S
C461 C459 1.415 . S
C462 H452 0.930 . S
C462 C460 1.419 . S
C462 C463 1.362 . S
C463 H453 0.930 . S
C463 C456 1.409 . S
C463 C462 1.362 . S
H464 C470 0.930 . S
H465 C473 0.930 . S
H466 C474 0.930 . S
H467 C475 0.930 . S
H468 C478 0.930 . S
H469 C479 0.930 . S
C470 H464 0.930 . S
C470 C471 1.355 . S
C470 C472 1.415 . S
C471 C470 1.355 . S
C471 C473 1.419 . S
C472 C470 1.415 . S
C472 C477 1.425 . S
C472 C479 1.409 . S
C473 H465 0.930 . S
C473 C471 1.419 . S
C473 C474 1.362 . S
C474 H466 0.930 . S
C474 C473 1.362 . S
C474 C477 1.409 . S
C475 H467 0.930 . S
C475 C476 1.355 . S
C475 C477 1.415 . S
C476 C475 1.355 . S
C476 C478 1.419 . S
C477 C472 1.425 . S
C477 C474 1.409 . S
C477 C475 1.415 . S
C478 H468 0.930 . S
C478 C476 1.419 . S
C478 C479 1.362 . S
C479 H469 0.930 . S
C479 C472 1.409 . S
C479 C478 1.362 . S
H480 C486 0.930 1_545 S
H481 C489 0.930 . S
H482 C490 0.930 . S
H483 C491 0.930 . S
H484 C494 0.930 . S
H485 C495 0.930 . S
C486 H480 0.930 1_565 S
C486 C487 1.355 . S
C486 C488 1.415 . S
C487 C486 1.355 . S
C487 C489 1.419 . S
C488 C486 1.415 . S
C488 C493 1.425 . S
C488 C495 1.409 1_565 S
C489 H481 0.930 . S
C489 C487 1.419 . S
C489 C490 1.362 . S
C490 H482 0.930 . S
C490 C489 1.362 . S
C490 C493 1.409 . S
C491 H483 0.930 . S
C491 C492 1.355 . S
C491 C493 1.415 . S
C492 C491 1.355 . S
C492 C494 1.419 1_565 S
C493 C488 1.425 . S
C493 C490 1.409 . S
C493 C491 1.415 . S
C494 H484 0.930 . S
C494 C492 1.419 1_545 S
C494 C495 1.362 . S
C495 H485 0.930 . S
C495 C488 1.409 1_545 S
C495 C494 1.362 . S
H496 C502 0.930 . S
H497 C505 0.930 . S
H498 C506 0.930 . S
H499 C507 0.930 . S
H500 C510 0.930 . S
H501 C511 0.930 . S
C502 H496 0.930 . S
C502 C503 1.355 . S
C502 C504 1.415 . S
C503 C502 1.355 . S
C503 C505 1.419 . S
C504 C502 1.415 . S
C504 C509 1.425 . S
C504 C511 1.409 . S
C505 H497 0.930 . S
C505 C503 1.419 . S
C505 C506 1.362 . S
C506 H498 0.930 . S
C506 C505 1.362 . S
C506 C509 1.409 . S
C507 H499 0.930 . S
C507 C508 1.355 . S
C507 C509 1.415 . S
C508 C507 1.355 . S
C508 C510 1.419 . S
C509 C504 1.425 . S
C509 C506 1.409 . S
C509 C507 1.415 . S
C510 H500 0.930 . S
C510 C508 1.419 . S
C510 C511 1.362 . S
C511 H501 0.930 . S
C511 C504 1.409 . S
C511 C510 1.362 . S
H512 C518 0.930 . S
H513 C521 0.930 . S
H514 C522 0.930 . S
H515 C523 0.930 . S
H516 C526 0.930 . S
H517 C527 0.930 . S
C518 H512 0.930 . S
C518 C519 1.355 . S
C518 C520 1.415 . S
C519 C518 1.355 . S
C519 C521 1.419 . S
C520 C518 1.415 . S
C520 C525 1.425 . S
C520 C527 1.409 . S
C521 H513 0.930 . S
C521 C519 1.419 . S
C521 C522 1.362 . S
C522 H514 0.930 . S
C522 C521 1.362 . S
C522 C525 1.409 . S
C523 H515 0.930 . S
C523 C524 1.355 . S
C523 C525 1.415 . S
C524 C523 1.355 . S
C524 C526 1.419 . S
C525 C520 1.425 . S
C525 C522 1.409 . S
C525 C523 1.415 . S
C526 H516 0.930 . S
C526 C524 1.419 . S
C526 C527 1.362 . S
C527 H517 0.930 . S
C527 C520 1.409 . S
C527 C526 1.362 . S
H528 C534 0.930 . S
H529 C537 0.930 . S
H530 C538 0.930 . S
H531 C539 0.930 . S
H532 C542 0.930 . S
H533 C543 0.930 . S
C534 H528 0.930 . S
C534 C535 1.355 . S
C534 C536 1.415 . S
C535 C534 1.355 . S
C535 C537 1.419 . S
C536 C534 1.415 . S
C536 C541 1.425 . S
C536 C543 1.409 . S
C537 H529 0.930 . S
C537 C535 1.419 . S
C537 C538 1.362 . S
C538 H530 0.930 . S
C538 C537 1.362 . S
C538 C541 1.409 . S
C539 H531 0.930 . S
C539 C540 1.355 . S
C539 C541 1.415 . S
C540 C539 1.355 . S
C540 C542 1.419 . S
C541 C536 1.425 . S
C541 C538 1.409 . S
C541 C539 1.415 . S
C542 H532 0.930 . S
C542 C540 1.419 . S
C542 C543 1.362 . S
C543 H533 0.930 . S
C543 C536 1.409 . S
C543 C542 1.362 . S
H544 C550 0.930 . S
H545 C553 0.930 . S
H546 C554 0.930 1_455 S
H547 C555 0.930 1_455 S
H548 C558 0.930 . S
H549 C559 0.930 1_554 S
C550 H544 0.930 . S
C550 C551 1.355 . S
C550 C552 1.415 . S
C551 C550 1.355 . S
C551 C553 1.419 . S
C552 C550 1.415 . S
C552 C557 1.425 . S
C552 C559 1.409 . S
C553 H545 0.930 . S
C553 C551 1.419 . S
C553 C554 1.362 . S
C554 H546 0.930 1_655 S
C554 C553 1.362 . S
C554 C557 1.409 . S
C555 H547 0.930 1_655 S
C555 C556 1.355 . S
C555 C557 1.415 . S
C556 C555 1.355 . S
C556 C558 1.419 1_556 S
C557 C552 1.425 . S
C557 C554 1.409 . S
C557 C555 1.415 . S
C558 H548 0.930 . S
C558 C556 1.419 1_554 S
C558 C559 1.362 1_554 S
C559 H549 0.930 1_556 S
C559 C552 1.409 . S
C559 C558 1.362 1_556 S
H560 C566 0.930 . S
H561 C569 0.930 . S
H562 C570 0.930 . S
H563 C571 0.930 . S
H564 C574 0.930 . S
H565 C575 0.930 . S
C566 H560 0.930 . S
C566 C567 1.355 . S
C566 C568 1.415 . S
C567 C566 1.355 . S
C567 C569 1.419 . S
C568 C566 1.415 . S
C568 C573 1.425 . S
C568 C575 1.409 . S
C569 H561 0.930 . S
C569 C567 1.419 . S
C569 C570 1.362 . S
C570 H562 0.930 . S
C570 C569 1.362 . S
C570 C573 1.409 . S
C571 H563 0.930 . S
C571 C572 1.355 . S
C571 C573 1.415 . S
C572 C571 1.355 . S
C572 C574 1.419 . S
C573 C568 1.425 . S
C573 C570 1.409 . S
C573 C571 1.415 . S
C574 H564 0.930 . S
C574 C572 1.419 . S
C574 C575 1.362 . S
C575 H565 0.930 . S
C575 C568 1.409 . S
C575 C574 1.362 . S
H576 C582 0.930 . S
H577 C585 0.930 . S
H578 C586 0.930 . S
H579 C587 0.930 . S
H580 C590 0.930 . S
H581 C591 0.930 . S
C582 H576 0.930 . S
C582 C583 1.355 . S
C582 C584 1.415 . S
C583 C582 1.355 . S
C583 C585 1.419 . S
C584 C582 1.415 . S
C584 C589 1.425 . S
C584 C591 1.409 . S
C585 H577 0.930 . S
C585 C583 1.419 . S
C585 C586 1.362 . S
C586 H578 0.930 . S
C586 C585 1.362 . S
C586 C589 1.409 . S
C587 H579 0.930 . S
C587 C588 1.355 . S
C587 C589 1.415 . S
C588 C587 1.355 . S
C588 C590 1.419 . S
C589 C584 1.425 . S
C589 C586 1.409 . S
C589 C587 1.415 . S
C590 H580 0.930 . S
C590 C588 1.419 . S
C590 C591 1.362 . S
C591 H581 0.930 . S
C591 C584 1.409 . S
C591 C590 1.362 . S
H592 C598 0.930 . S
H593 C601 0.930 . S
H594 C602 0.930 . S
H595 C603 0.930 . S
H596 C606 0.930 . S
H597 C607 0.930 . S
C598 H592 0.930 . S
C598 C599 1.355 . S
C598 C600 1.415 . S
C599 C598 1.355 . S
C599 C601 1.419 . S
C600 C598 1.415 . S
C600 C605 1.425 . S
C600 C607 1.409 . S
C601 H593 0.930 . S
C601 C599 1.419 . S
C601 C602 1.362 . S
C602 H594 0.930 . S
C602 C601 1.362 . S
C602 C605 1.409 . S
C603 H595 0.930 . S
C603 C604 1.355 . S
C603 C605 1.415 . S
C604 C603 1.355 . S
C604 C606 1.419 . S
C605 C600 1.425 . S
C605 C602 1.409 . S
C605 C603 1.415 . S
C606 H596 0.930 . S
C606 C604 1.419 . S
C606 C607 1.362 . S
C607 H597 0.930 . S
C607 C600 1.409 . S
C607 C606 1.362 . S
C231 N1 2.038 . S
C236 C120 2.106 . S
C247 N18 1.369 . S
C252 N140 1.306 . S
C268 C174 1.560 . S
C263 N28 1.569 . S
C279 N40 1.389 . S
C284 N208 1.385 . S
C300 C161 2.563 . S
C295 N5 2.519 . S
C316 N118 1.114 . S
C311 N14 1.155 . S
C332 C195 1.958 . S
C327 N31 1.930 . S
C348 N170 0.788 . S
C343 N41 0.725 . S
C359 N2 1.712 . S
C364 C210 1.711 . S
C380 C144 1.740 . S
C375 N27 1.707 . S
C391 N44 1.514 . S
C396 C105 1.543 . S
C407 N15 1.230 . S
C412 C191 1.234 . S
C428 C131 2.371 . S
C423 N57 2.378 . S
C439 N70 0.981 . S
C444 N148 1.002 . S
C455 N79 1.761 . S
C460 C165 1.846 . S
C471 N93 1.160 . S
C476 N200 1.132 . S
C487 N54 2.203 . S
C492 C150 2.207 1_556 S
C508 N110 1.510 . S
C503 N66 1.534 . S
C524 C204 1.526 . S
C519 N80 1.525 . S
C540 N178 0.959 . S
C535 N96 1.019 . S
C551 N53 1.755 . S
C556 C221 1.763 . S
C572 C135 1.641 . S
C567 N83 1.630 . S
C588 C114 1.520 . S
C583 N92 1.533 . S
C599 N67 1.234 . S
C604 C180 1.226 . S
