# Generated by pormake.
# Topology pto, (3,4)-cn, num edge types: 1
# Building blocks:
#     Node 0, Type 0, BuildingBlock: OLANEW_clean_sbu_2, # of connection points: 3
#     Node 1, Type 0, BuildingBlock: OLANEW_clean_sbu_2, # of connection points: 3
#     Node 2, Type 0, BuildingBlock: OLANEW_clean_sbu_2, # of connection points: 3
#     Node 3, Type 0, BuildingBlock: OLANEW_clean_sbu_2, # of connection points: 3
#     Node 4, Type 0, BuildingBlock: OLANEW_clean_sbu_2, # of connection points: 3
#     Node 5, Type 0, BuildingBlock: OLANEW_clean_sbu_2, # of connection points: 3
#     Node 6, Type 0, BuildingBlock: OLANEW_clean_sbu_2, # of connection points: 3
#     Node 7, Type 0, BuildingBlock: OLANEW_clean_sbu_2, # of connection points: 3
#     Node 8, Type 1, BuildingBlock: MUDLON_clean_linker_0, # of connection points: 4
#     Node 9, Type 1, BuildingBlock: MUDLON_clean_linker_0, # of connection points: 4
#     Node 10, Type 1, BuildingBlock: MUDLON_clean_linker_0, # of connection points: 4
#     Node 11, Type 1, BuildingBlock: MUDLON_clean_linker_0, # of connection points: 4
#     Node 12, Type 1, BuildingBlock: MUDLON_clean_linker_0, # of connection points: 4
#     Node 13, Type 1, BuildingBlock: MUDLON_clean_linker_0, # of connection points: 4
#     Edge 14, Type (0, 1), BuildingBlock: ZUJKAS_clean_linker_0, # of connection points: 2
#     Edge 15, Type (0, 1), BuildingBlock: ZUJKAS_clean_linker_0, # of connection points: 2
#     Edge 16, Type (0, 1), BuildingBlock: ZUJKAS_clean_linker_0, # of connection points: 2
#     Edge 17, Type (0, 1), BuildingBlock: ZUJKAS_clean_linker_0, # of connection points: 2
#     Edge 18, Type (0, 1), BuildingBlock: ZUJKAS_clean_linker_0, # of connection points: 2
#     Edge 19, Type (0, 1), BuildingBlock: ZUJKAS_clean_linker_0, # of connection points: 2
#     Edge 20, Type (0, 1), BuildingBlock: ZUJKAS_clean_linker_0, # of connection points: 2
#     Edge 21, Type (0, 1), BuildingBlock: ZUJKAS_clean_linker_0, # of connection points: 2
#     Edge 22, Type (0, 1), BuildingBlock: ZUJKAS_clean_linker_0, # of connection points: 2
#     Edge 23, Type (0, 1), BuildingBlock: ZUJKAS_clean_linker_0, # of connection points: 2
#     Edge 24, Type (0, 1), BuildingBlock: ZUJKAS_clean_linker_0, # of connection points: 2
#     Edge 25, Type (0, 1), BuildingBlock: ZUJKAS_clean_linker_0, # of connection points: 2
#     Edge 26, Type (0, 1), BuildingBlock: ZUJKAS_clean_linker_0, # of connection points: 2
#     Edge 27, Type (0, 1), BuildingBlock: ZUJKAS_clean_linker_0, # of connection points: 2
#     Edge 28, Type (0, 1), BuildingBlock: ZUJKAS_clean_linker_0, # of connection points: 2
#     Edge 29, Type (0, 1), BuildingBlock: ZUJKAS_clean_linker_0, # of connection points: 2
#     Edge 30, Type (0, 1), BuildingBlock: ZUJKAS_clean_linker_0, # of connection points: 2
#     Edge 31, Type (0, 1), BuildingBlock: ZUJKAS_clean_linker_0, # of connection points: 2
#     Edge 32, Type (0, 1), BuildingBlock: ZUJKAS_clean_linker_0, # of connection points: 2
#     Edge 33, Type (0, 1), BuildingBlock: ZUJKAS_clean_linker_0, # of connection points: 2
#     Edge 34, Type (0, 1), BuildingBlock: ZUJKAS_clean_linker_0, # of connection points: 2
#     Edge 35, Type (0, 1), BuildingBlock: ZUJKAS_clean_linker_0, # of connection points: 2
#     Edge 36, Type (0, 1), BuildingBlock: ZUJKAS_clean_linker_0, # of connection points: 2
#     Edge 37, Type (0, 1), BuildingBlock: ZUJKAS_clean_linker_0, # of connection points: 2
# Relax obj value: 0.009
# Max RMSD: 0.129
# Mean RMSD: 0.067
data_MOF--net-pto--node1-OLANEW_clean_sbu_2--node2-MUDLON_clean_linker_0--edge1-ZUJKAS_clean_linker_0
_symmetry_space_group_name_H-M    P1
_symmetry_Int_Tables_number       1
_symmetry_cell_setting            triclinic
loop_
_symmetry_equiv_pos_as_xyz
'x, y, z'
_cell_length_a     49.170194
_cell_length_b     86.691437
_cell_length_c     69.933808
_cell_angle_alpha  92.430074
_cell_angle_beta   89.328879
_cell_angle_gamma 105.49779
loop_
_atom_site_label
_atom_site_type_symbol
_atom_site_fract_x
_atom_site_fract_y
_atom_site_fract_z
_atom_type_partial_charge
O0 O 0.33128 0.32593 0.29903 0.0
Cd1 Cd 0.31075 0.32561 0.33104 0.0
O2 O 0.36379 0.34856 0.30478 0.0
Cd3 Cd 0.34302 0.35431 0.33081 0.0
O4 O 0.31527 0.36777 0.34367 0.0
C5 C 0.2976 0.37066 0.33215 0.0
O6 O 0.29697 0.36495 0.3144 0.0
C7 C 0.35307 0.33648 0.29374 0.0
C8 C 0.32438 0.30212 0.35226 0.0
O9 O 0.30215 0.29884 0.34182 0.0
O10 O 0.34005 0.31656 0.35281 0.0
O11 O 0.26512 0.84663 0.72807 0.0
Cd12 Cd 0.23694 0.84334 0.69894 0.0
O13 O 0.28995 0.83052 0.71696 0.0
Cd14 Cd 0.26229 0.82087 0.69264 0.0
O15 O 0.23451 0.80082 0.67639 0.0
C16 C 0.21618 0.79099 0.68602 0.0
O17 O 0.21431 0.79392 0.70451 0.0
C18 C 0.2854 0.84028 0.7299 0.0
C19 C 0.25522 0.87071 0.67758 0.0
O20 O 0.23542 0.8695 0.68997 0.0
O21 O 0.26609 0.85888 0.6751 0.0
O22 O 0.78318 0.77135 0.32013 0.0
Cd23 Cd 0.77181 0.74738 0.29873 0.0
O24 O 0.76703 0.78492 0.29916 0.0
Cd25 Cd 0.75487 0.7659 0.27699 0.0
O26 O 0.73592 0.75766 0.24909 0.0
C27 C 0.74944 0.76362 0.23437 0.0
O28 O 0.77494 0.77325 0.2366 0.0
C29 C 0.77806 0.78429 0.31536 0.0
C30 C 0.80172 0.72523 0.30679 0.0
O31 O 0.81165 0.7365 0.29528 0.0
O32 O 0.77775 0.72453 0.31463 0.0
O33 O 0.75866 0.27891 0.65251 0.0
Cd34 Cd 0.73337 0.25315 0.66543 0.0
O35 O 0.72816 0.29087 0.66527 0.0
Cd36 Cd 0.70521 0.27114 0.68251 0.0
O37 O 0.68501 0.26573 0.71031 0.0
C38 C 0.69552 0.27603 0.72355 0.0
O39 O 0.71747 0.28791 0.71955 0.0
C40 C 0.74979 0.29136 0.65493 0.0
C41 C 0.74394 0.22698 0.64494 0.0
O42 O 0.72447 0.23322 0.63973 0.0
O43 O 0.75849 0.23314 0.65979 0.0
O44 O 0.73335 0.77667 0.64515 0.0
Cd45 Cd 0.71876 0.75305 0.66468 0.0
O46 O 0.76352 0.79053 0.66658 0.0
Cd47 Cd 0.74989 0.7731 0.68874 0.0
O48 O 0.73041 0.76655 0.71649 0.0
C49 C 0.70368 0.76305 0.7179 0.0
O50 O 0.6886 0.76228 0.70233 0.0
C51 C 0.75215 0.78936 0.65016 0.0
C52 C 0.74749 0.73004 0.65491 0.0
O53 O 0.72459 0.7301 0.64639 0.0
O54 O 0.75686 0.74089 0.66803 0.0
O55 O 0.80281 0.27392 0.30867 0.0
Cd56 Cd 0.77532 0.2477 0.29596 0.0
O57 O 0.79372 0.28561 0.28309 0.0
Cd58 Cd 0.76782 0.26466 0.26737 0.0
O59 O 0.742 0.25828 0.24162 0.0
C60 C 0.75325 0.26508 0.22663 0.0
O61 O 0.77942 0.27403 0.22759 0.0
C62 C 0.80542 0.28652 0.29937 0.0
C63 C 0.78162 0.22219 0.317 0.0
O64 O 0.79783 0.22717 0.30279 0.0
O65 O 0.7626 0.22937 0.32135 0.0
O66 O 0.24369 0.34143 0.73381 0.0
Cd67 Cd 0.22177 0.33325 0.70249 0.0
O68 O 0.28629 0.34364 0.72223 0.0
Cd69 Cd 0.27262 0.33224 0.69432 0.0
O70 O 0.2756 0.31356 0.6731 0.0
C71 C 0.26966 0.29925 0.67861 0.0
O72 O 0.26035 0.2964 0.69615 0.0
C73 C 0.27029 0.34519 0.73618 0.0
C74 C 0.19716 0.35629 0.68919 0.0
O75 O 0.18309 0.34487 0.69933 0.0
O76 O 0.2229 0.35678 0.68527 0.0
O77 O 0.37256 0.84215 0.29988 0.0
Cd78 Cd 0.35447 0.83714 0.33235 0.0
O79 O 0.33404 0.82667 0.28648 0.0
Cd80 Cd 0.31418 0.81692 0.31301 0.0
O81 O 0.28962 0.79694 0.32925 0.0
C82 C 0.29707 0.78397 0.32785 0.0
O83 O 0.31969 0.78367 0.3178 0.0
C84 C 0.35838 0.83635 0.28493 0.0
C85 C 0.36043 0.8659 0.35347 0.0
O86 O 0.37955 0.85836 0.35388 0.0
O87 O 0.33849 0.85978 0.34318 0.0
H88 H 0.00794 0.45941 0.40435 0.0
N89 N 0.03445 0.48351 0.38323 0.0
H90 H 0.97205 0.43519 0.39393 0.0
H91 H 0.0079 0.4784 0.34843 0.0
H92 H 0.97164 0.4543 0.33787 0.0
H93 H 0.057 0.47637 0.34904 0.0
H94 H 0.09854 0.46635 0.34492 0.0
H95 H 0.07212 0.48272 0.40981 0.0
H96 H 0.11432 0.47294 0.40578 0.0
H97 H 0.00982 0.49987 0.40732 0.0
H98 H 0.05371 0.50328 0.35332 0.0
H99 H 0.00597 0.52721 0.40487 0.0
H100 H 0.05135 0.53089 0.35117 0.0
H101 H 0.97946 0.60212 0.39451 0.0
H102 H 0.94411 0.6139 0.38135 0.0
H103 H 0.98175 0.61276 0.32531 0.0
H104 H 0.01741 0.60153 0.33874 0.0
H105 H 0.06417 0.60113 0.34841 0.0
H106 H 0.10464 0.62452 0.34519 0.0
H107 H 0.0845 0.64367 0.40002 0.0
H108 H 0.04357 0.6205 0.40271 0.0
H109 H 0.03187 0.58126 0.40682 0.0
H110 H 0.03462 0.55362 0.40772 0.0
H111 H 0.02176 0.54809 0.34646 0.0
N112 N 0.02442 0.59708 0.37675 0.0
H113 H 0.02048 0.576 0.34568 0.0
C114 C 0.01054 0.47064 0.37724 0.0
C115 C -0.00035 0.45846 0.38994 0.0
C116 C 0.9791 0.44467 0.38396 0.0
C117 C 0.96905 0.44278 0.36503 0.0
C118 C 0.97922 0.45531 0.35247 0.0
C119 C -0.0002 0.46914 0.35851 0.0
C120 C 0.06141 0.48028 0.37983 0.0
C121 C 0.06967 0.47602 0.36146 0.0
C122 C 0.09357 0.47032 0.35911 0.0
C123 C 0.10964 0.46871 0.37505 0.0
C124 C 0.10216 0.47381 0.39325 0.0
C125 C 0.07826 0.47953 0.39557 0.0
C126 C 0.03238 0.49958 0.38076 0.0
C127 C 0.01881 0.5066 0.395 0.0
C128 C 0.01686 0.52227 0.39362 0.0
C129 C 0.02876 0.53142 0.37796 0.0
C130 C 0.04181 0.52422 0.36339 0.0
C131 C 0.04343 0.50841 0.3647 0.0
C132 C 0.00098 0.60088 0.3677 0.0
C133 C 0.97956 0.60404 0.37931 0.0
C134 C 0.95936 0.61075 0.37172 0.0
C135 C 0.96022 0.61442 0.35228 0.0
C136 C 0.98074 0.61033 0.34041 0.0
C137 C 0.00101 0.60369 0.34804 0.0
C138 C 0.05078 0.60922 0.37576 0.0
C139 C 0.0687 0.61028 0.3598 0.0
C140 C 0.09193 0.62362 0.35805 0.0
C141 C 0.09759 0.63607 0.37224 0.0
C142 C 0.08041 0.63447 0.38865 0.0
C143 C 0.05721 0.6212 0.39032 0.0
C144 C 0.02559 0.58065 0.37633 0.0
C145 C 0.02965 0.57404 0.39362 0.0
C146 C 0.03099 0.55819 0.39408 0.0
C147 C 0.02801 0.54847 0.37718 0.0
C148 C 0.02431 0.55521 0.35974 0.0
C149 C 0.02329 0.57119 0.35929 0.0
H150 H 0.94972 0.48083 0.62481 0.0
N151 N 0.99127 0.48593 0.59763 0.0
H152 H 0.91185 0.45618 0.62789 0.0
H153 H 0.97537 0.46226 0.57151 0.0
H154 H 0.93688 0.43781 0.57398 0.0
H155 H 0.03787 0.4816 0.58137 0.0
H156 H 0.07229 0.46969 0.59563 0.0
H157 H -0.00395 0.48139 0.6359 0.0
H158 H 0.03077 0.47015 0.65038 0.0
H159 H -0.00566 0.50675 0.62904 0.0
H160 H 0.98148 0.5016 0.568 0.0
H161 H 0.99144 0.53432 0.62869 0.0
H162 H 0.97698 0.52894 0.56759 0.0
H163 H 0.96126 0.6071 0.62994 0.0
H164 H 0.92267 0.61912 0.63675 0.0
H165 H 0.89868 0.61262 0.57706 0.0
H166 H 0.93836 0.60114 0.57027 0.0
H167 H 0.00409 0.62442 0.57403 0.0
H168 H 0.04145 0.6479 0.58462 0.0
H169 H 0.04705 0.62567 0.63808 0.0
H170 H 0.00924 0.60237 0.62745 0.0
H171 H 0.95969 0.57908 0.62371 0.0
H172 H 0.96157 0.55131 0.62489 0.0
H173 H 0.00454 0.5555 0.57027 0.0
N174 N 0.97883 0.59943 0.5943 0.0
H175 H 0.00115 0.58299 0.56881 0.0
C176 C 0.96551 0.47324 0.59799 0.0
C177 C 0.94675 0.47159 0.61355 0.0
C178 C 0.925 0.4575 0.61522 0.0
C179 C 0.92159 0.44489 0.60132 0.0
C180 C 0.93929 0.44712 0.58516 0.0
C181 C 0.96106 0.46113 0.58358 0.0
C182 C 0.01448 0.48251 0.60746 0.0
C183 C 0.03676 0.47955 0.59656 0.0
C184 C 0.05641 0.47275 0.60476 0.0
C185 C 0.0541 0.46878 0.62413 0.0
C186 C 0.03287 0.47279 0.63535 0.0
C187 C 0.01315 0.47947 0.6271 0.0
C188 C 0.98866 0.50213 0.59839 0.0
C189 C 0.99079 0.51146 0.61554 0.0
C190 C 0.98881 0.52728 0.61534 0.0
C191 C 0.98424 0.53401 0.59808 0.0
C192 C 0.98126 0.52439 0.5811 0.0
C193 C 0.98359 0.5087 0.58129 0.0
C194 C 0.95288 0.60333 0.59947 0.0
C195 C 0.94743 0.60795 0.61836 0.0
C196 C 0.92515 0.61478 0.62226 0.0
C197 C 0.90771 0.61706 0.60741 0.0
C198 C 0.91204 0.61137 0.58878 0.0
C199 C 0.93447 0.60463 0.58488 0.0
C200 C 0.0039 0.6117 0.59988 0.0
C201 C 0.01386 0.62451 0.58785 0.0
C202 C 0.03526 0.63788 0.59393 0.0
C203 C 0.04715 0.63871 0.61226 0.0
C204 C 0.03805 0.6255 0.62399 0.0
C205 C 0.0166 0.6121 0.61787 0.0
C206 C 0.97988 0.58307 0.59592 0.0
C207 C 0.96925 0.574 0.6119 0.0
C208 C 0.97061 0.5581 0.61264 0.0
C209 C 0.98299 0.55101 0.59759 0.0
C210 C -0.00582 0.56032 0.58191 0.0
C211 C -0.00751 0.5761 0.58108 0.0
H212 H 0.3387 0.1607 0.51809 0.0
N213 N 0.39225 0.15663 0.51671 0.0
H214 H 0.32 0.17595 0.54222 0.0
H215 H 0.41706 0.17021 0.54918 0.0
H216 H 0.39876 0.18628 0.57324 0.0
H217 H 0.42952 0.18238 0.50426 0.0
H218 H 0.42426 0.19826 0.47715 0.0
H219 H 0.35234 0.14717 0.48828 0.0
H220 H 0.34718 0.16279 0.46104 0.0
H221 H 0.34074 0.13464 0.5222 0.0
H222 H 0.4288 0.13928 0.5103 0.0
H223 H 0.3316 0.10585 0.5216 0.0
H224 H 0.41943 0.11002 0.50885 0.0
H225 H 0.30036 0.02555 0.53402 0.0
H226 H 0.29466 0.00814 0.56121 0.0
H227 H 0.38445 0.0129 0.56084 0.0
H228 H 0.38972 0.02997 0.5334 0.0
H229 H 0.39913 0.03671 0.50018 0.0
H230 H 0.40928 0.01881 0.47455 0.0
H231 H 0.3197 -0.00107 0.46539 0.0
H232 H 0.31 0.0169 0.49082 0.0
H233 H 0.31661 0.0547 0.49983 0.0
H234 H 0.32826 0.0839 0.49971 0.0
H235 H 0.40728 0.08673 0.52802 0.0
N236 N 0.34682 0.03675 0.51377 0.0
H237 H 0.3958 0.05745 0.52726 0.0
C238 C 0.37941 0.16416 0.53186 0.0
C239 C 0.35186 0.16589 0.53023 0.0
C240 C 0.34124 0.17484 0.54399 0.0
C241 C 0.35798 0.18254 0.55957 0.0
C242 C 0.38518 0.1804 0.56153 0.0
C243 C 0.39572 0.17126 0.54779 0.0
C244 C 0.39142 0.16364 0.49842 0.0
C245 C 0.41194 0.17784 0.49454 0.0
C246 C 0.40888 0.18688 0.47903 0.0
C247 C 0.38511 0.18188 0.46706 0.0
C248 C 0.36549 0.16709 0.47019 0.0
C249 C 0.36858 0.15806 0.48571 0.0
C250 C 0.38574 0.13934 0.51646 0.0
C251 C 0.35826 0.12958 0.51944 0.0
C252 C 0.35291 0.11293 0.51888 0.0
C253 C 0.37472 0.10553 0.51507 0.0
C254 C 0.40217 0.11528 0.51206 0.0
C255 C 0.40755 0.13199 0.51277 0.0
C256 C 0.34532 0.02904 0.53171 0.0
C257 C 0.31885 0.02312 0.54015 0.0
C258 C 0.31569 0.01321 0.55571 0.0
C259 C 0.3391 0.00902 0.56315 0.0
C260 C 0.36595 0.01571 0.55529 0.0
C261 C 0.36904 0.02561 0.53969 0.0
C262 C 0.35374 0.02803 0.49733 0.0
C263 C 0.38178 0.02864 0.49243 0.0
C264 C 0.38752 0.01837 0.47785 0.0
C265 C 0.36531 0.00743 0.46792 0.0
C266 C 0.33734 0.00736 0.47249 0.0
C267 C 0.33169 0.01755 0.48705 0.0
C268 C 0.35507 0.05395 0.51374 0.0
C269 C 0.33647 0.06168 0.50593 0.0
C270 C 0.34311 0.07836 0.50602 0.0
C271 C 0.36856 0.08773 0.51412 0.0
C272 C 0.38757 0.07991 0.52158 0.0
C273 C 0.38095 0.06315 0.52132 0.0
H274 H 0.53704 0.80824 0.07206 0.0
N275 N 0.55608 0.83924 0.06103 0.0
H276 H 0.56455 0.79307 0.08815 0.0
H277 H 0.61166 0.84734 0.066 0.0
H278 H 0.6397 0.83202 0.08168 0.0
H279 H 0.5631 0.86176 0.08869 0.0
H280 H 0.52986 0.86431 0.11409 0.0
H281 H 0.50092 0.82177 0.06294 0.0
H282 H 0.46718 0.8243 0.0882 0.0
H283 H 0.54437 0.81226 0.03678 0.0
H284 H 0.55121 0.86295 0.03982 0.0
H285 H 0.5375 0.81158 0.00245 0.0
H286 H 0.54207 0.86216 0.00556 0.0
H287 H 0.51037 0.80584 0.9068 0.0
H288 H 0.53254 0.78915 0.88616 0.0
H289 H 0.61013 0.82712 0.887 0.0
H290 H 0.5877 0.84373 0.90756 0.0
H291 H 0.53679 0.86044 0.89542 0.0
H292 H 0.49841 0.86502 0.87648 0.0
H293 H 0.43983 0.82531 0.90292 0.0
H294 H 0.47837 0.82061 0.92137 0.0
H295 H 0.50804 0.81235 0.94162 0.0
H296 H 0.50925 0.81271 0.97651 0.0
H297 H 0.56524 0.86068 0.97699 0.0
N298 N 0.53439 0.83693 0.91889 0.0
H299 H 0.56193 0.86052 0.94224 0.0
C300 C 0.57234 0.82905 0.06799 0.0
C301 C 0.55946 0.81346 0.07389 0.0
C302 C 0.57531 0.80472 0.08296 0.0
C303 C 0.60429 0.81138 0.08634 0.0
C304 C 0.61733 0.82665 0.07955 0.0
C305 C 0.60145 0.83537 0.07049 0.0
C306 C 0.53452 0.84161 0.07405 0.0
C307 C 0.54199 0.85377 0.08834 0.0
C308 C 0.52291 0.85523 0.10277 0.0
C309 C 0.49586 0.84448 0.1032 0.0
C310 C 0.48796 0.83265 0.08837 0.0
C311 C 0.50713 0.83124 0.07389 0.0
C312 C 0.54904 0.83783 0.04093 0.0
C313 C 0.54408 0.82325 0.03017 0.0
C314 C 0.53977 0.82283 0.0104 0.0
C315 C 0.5396 0.83686 0.00101 0.0
C316 C 0.54295 0.8512 0.01208 0.0
C317 C 0.54789 0.85167 0.03172 0.0
C318 C 0.54743 0.82612 0.90853 0.0
C319 C 0.53221 0.8105 0.90272 0.0
C320 C 0.54488 0.80099 0.89089 0.0
C321 C 0.57304 0.80684 0.88492 0.0
C322 C 0.58851 0.82219 0.89152 0.0
C323 C 0.57575 0.83172 0.90317 0.0
C324 C 0.51057 0.84025 0.90979 0.0
C325 C 0.51555 0.85291 0.8973 0.0
C326 C 0.49356 0.85554 0.88658 0.0
C327 C 0.46602 0.84551 0.88815 0.0
C328 C 0.46086 0.83313 0.9012 0.0
C329 C 0.48293 0.8305 0.9119 0.0
C330 C 0.53448 0.8366 0.93941 0.0
C331 C 0.52 0.82306 0.94929 0.0
C332 C 0.52109 0.82322 0.96929 0.0
C333 C 0.53723 0.83677 0.97975 0.0
C334 C 0.55194 0.85018 0.96963 0.0
C335 C 0.55034 0.8501 0.94973 0.0
H336 H 0.78017 0.06581 0.50271 0.0
N337 N 0.82915 0.07223 0.48205 0.0
H338 H 0.76781 0.08358 0.52769 0.0
H339 H 0.86339 0.09799 0.49871 0.0
H340 H 0.85147 0.11568 0.52373 0.0
H341 H 0.86558 0.08703 0.45614 0.0
H342 H 0.85568 0.10178 0.42922 0.0
H343 H 0.77668 0.07091 0.46841 0.0
H344 H 0.76638 0.08514 0.4412 0.0
H345 H 0.78532 0.04581 0.47307 0.0
H346 H 0.87051 0.06111 0.49445 0.0
H347 H 0.78655 0.01783 0.47387 0.0
H348 H 0.87157 0.03324 0.49628 0.0
H349 H 0.78631 0.9402 0.49545 0.0
H350 H 0.77353 0.92102 0.5206 0.0
H351 H 0.85759 0.9383 0.54421 0.0
H352 H 0.87046 0.95712 0.51839 0.0
H353 H 0.87833 0.94492 0.47482 0.0
H354 H 0.87284 0.92419 0.44924 0.0
H355 H 0.78932 0.9288 0.43754 0.0
H356 H 0.79541 0.94986 0.46288 0.0
H357 H 0.79135 0.96861 0.49448 0.0
H358 H 0.78747 0.9961 0.49353 0.0
H359 H 0.87473 0.0117 0.47574 0.0
N360 N 0.83955 0.95873 0.48803 0.0
H361 H 0.87866 0.98436 0.47772 0.0
C362 C 0.82272 0.08069 0.49888 0.0
C363 C 0.79594 0.07652 0.50752 0.0
C364 C 0.78894 0.08666 0.52179 0.0
C365 C 0.80857 0.10113 0.52745 0.0
C366 C 0.83577 0.10476 0.51943 0.0
C367 C 0.84271 0.09463 0.5053 0.0
C368 C 0.82199 0.07784 0.4642 0.0
C369 C 0.84386 0.08625 0.45258 0.0
C370 C 0.8381 0.09465 0.4372 0.0
C371 C 0.81021 0.09477 0.43312 0.0
C372 C 0.78813 0.08551 0.44412 0.0
C373 C 0.79396 0.07718 0.45957 0.0
C374 C 0.82813 0.05557 0.48339 0.0
C375 C 0.80424 0.04316 0.47804 0.0
C376 C 0.80491 0.02712 0.47867 0.0
C377 C 0.82932 0.0232 0.48487 0.0
C378 C 0.85269 0.03573 0.49089 0.0
C379 C 0.85209 0.05168 0.49004 0.0
C380 C 0.82952 0.95005 0.50497 0.0
C381 C 0.80182 0.94015 0.50625 0.0
C382 C 0.7945 0.92917 0.52075 0.0
C383 C 0.81466 0.92792 0.5343 0.0
C384 C 0.84172 0.93869 0.53377 0.0
C385 C 0.84904 0.94959 0.51919 0.0
C386 C 0.83733 0.94884 0.47076 0.0
C387 C 0.85915 0.94171 0.46638 0.0
C388 C 0.85583 0.92976 0.45193 0.0
C389 C 0.83044 0.92465 0.44158 0.0
C390 C 0.80915 0.93249 0.44521 0.0
C391 C 0.81256 0.94451 0.45971 0.0
C392 C 0.83558 0.97451 0.48651 0.0
C393 C 0.80966 0.97795 0.49048 0.0
C394 C 0.80741 0.99371 0.48977 0.0
C395 C 0.83091 0.00624 0.48484 0.0
C396 C 0.8564 0.00251 0.48015 0.0
C397 C 0.85868 0.98687 0.48109 0.0
H398 H 0.52559 0.31022 0.07272 0.0
N399 N 0.54017 0.34207 0.06457 0.0
H400 H 0.55567 0.29605 0.08767 0.0
H401 H 0.5955 0.35247 0.07011 0.0
H402 H 0.62626 0.33814 0.08459 0.0
H403 H 0.543 0.36319 0.09343 0.0
H404 H 0.50904 0.36214 0.11946 0.0
H405 H 0.48692 0.32169 0.06561 0.0
H406 H 0.45274 0.3205 0.09163 0.0
H407 H 0.52109 0.3159 0.03994 0.0
H408 H 0.5448 0.36751 0.04395 0.0
H409 H 0.51377 0.31645 0.00558 0.0
H410 H 0.53633 0.36824 0.00968 0.0
H411 H 0.50822 0.31326 0.9217 0.0
H412 H 0.53117 0.2991 0.89834 0.0
H413 H 0.57587 0.3444 0.87525 0.0
H414 H 0.55177 0.35831 0.89813 0.0
H415 H 0.4992 0.37198 0.91469 0.0
H416 H 0.45692 0.37398 0.89789 0.0
H417 H 0.42373 0.32254 0.89864 0.0
H418 H 0.46621 0.32066 0.91479 0.0
H419 H 0.47945 0.32342 0.94694 0.0
H420 H 0.48447 0.32247 0.98148 0.0
H421 H 0.5576 0.36334 0.98023 0.0
N422 N 0.51273 0.34549 0.92345 0.0
H423 H 0.5516 0.36456 0.94575 0.0
C424 C 0.5583 0.33254 0.07044 0.0
C425 C 0.54759 0.31637 0.07494 0.0
C426 C 0.56494 0.3082 0.08342 0.0
C427 C 0.59334 0.316 0.08753 0.0
C428 C 0.60435 0.33187 0.08195 0.0
C429 C 0.58694 0.34004 0.07354 0.0
C430 C 0.51761 0.34254 0.0777 0.0
C431 C 0.52302 0.3541 0.09275 0.0
C432 C 0.50356 0.35348 0.10756 0.0
C433 C 0.47827 0.34117 0.10764 0.0
C434 C 0.4722 0.33002 0.09204 0.0
C435 C 0.49166 0.33073 0.07713 0.0
C436 C 0.53397 0.34174 0.04447 0.0
C437 C 0.52456 0.32736 0.03348 0.0
C438 C 0.52013 0.3277 0.01379 0.0
C439 C 0.52472 0.3424 0.00478 0.0
C440 C 0.53323 0.35671 0.01602 0.0
C441 C 0.53787 0.35634 0.03561 0.0
C442 C 0.52812 0.33686 0.91144 0.0
C443 C 0.52298 0.32012 0.91164 0.0
C444 C 0.53632 0.31205 0.89835 0.0
C445 C 0.55512 0.32058 0.88473 0.0
C446 C 0.56102 0.3374 0.8852 0.0
C447 C 0.54753 0.3454 0.89836 0.0
C448 C 0.48597 0.34625 0.91599 0.0
C449 C 0.48252 0.3612 0.91148 0.0
C450 C 0.45831 0.36231 0.90198 0.0
C451 C 0.43701 0.3484 0.8968 0.0
C452 C 0.43993 0.33346 0.90216 0.0
C453 C 0.46419 0.33238 0.91158 0.0
C454 C 0.51504 0.34426 0.94379 0.0
C455 C 0.49642 0.33225 0.95407 0.0
C456 C 0.49947 0.33163 0.97387 0.0
C457 C 0.52133 0.34289 0.98371 0.0
C458 C 0.54014 0.35469 0.97324 0.0
C459 C 0.53691 0.35536 0.95353 0.0
H460 H 0.25705 0.37807 0.31092 0.0
H461 H 0.22734 0.39564 0.32016 0.0
H462 H 0.26581 0.40389 0.37607 0.0
H463 H 0.29594 0.38637 0.3669 0.0
H464 H 0.18859 0.39259 0.35065 0.0
H465 H 0.27387 0.4495 0.35699 0.0
H466 H 0.27882 0.43166 0.34482 0.0
H467 H 0.27901 0.43331 0.3705 0.0
C468 C 0.25926 0.38361 0.3252 0.0
C469 C 0.27896 0.38086 0.33815 0.0
C470 C 0.24224 0.39365 0.33044 0.0
C471 C 0.24466 0.40123 0.34869 0.0
C472 C 0.26399 0.39837 0.3618 0.0
H473 H 0.12061 0.44646 0.39814 0.0
H474 H 0.15481 0.4308 0.39289 0.0
C475 C 0.28103 0.38827 0.35657 0.0
C476 C 0.22647 0.41188 0.35396 0.0
H477 H 0.22775 0.45075 0.36553 0.0
C478 C 0.19713 0.40529 0.35398 0.0
C479 C 0.23773 0.42847 0.35805 0.0
C480 C 0.26906 0.43625 0.35747 0.0
C481 C 0.17868 0.41486 0.35803 0.0
C482 C 0.18993 0.4314 0.36242 0.0
C483 C 0.21927 0.43803 0.36232 0.0
C484 C 0.17135 0.44203 0.36663 0.0
C485 C 0.14727 0.40725 0.35714 0.0
C486 C 0.17012 0.45395 0.35397 0.0
C487 C 0.15075 0.46305 0.35701 0.0
C488 C 0.13241 0.46043 0.37285 0.0
C489 C 0.13459 0.44891 0.38592 0.0
C490 C 0.15392 0.43983 0.38285 0.0
H491 H 0.14211 0.39531 0.34954 0.0
H492 H 0.13877 0.40565 0.37191 0.0
H493 H 0.13638 0.41504 0.34981 0.0
H494 H 0.18355 0.45588 0.34142 0.0
H495 H 0.14982 0.47195 0.34681 0.0
H496 H 0.17444 0.7682 0.70268 0.0
H497 H 0.14718 0.74261 0.68845 0.0
H498 H 0.19042 0.75396 0.63477 0.0
H499 H 0.21806 0.77963 0.64893 0.0
H500 H 0.11141 0.73669 0.6557 0.0
H501 H 0.20172 0.70968 0.64677 0.0
H502 H 0.20351 0.72725 0.66204 0.0
H503 H 0.20614 0.72887 0.63653 0.0
C504 C 0.17816 0.76531 0.68783 0.0
C505 C 0.19856 0.77593 0.67697 0.0
C506 C 0.16254 0.75067 0.67973 0.0
C507 C 0.1671 0.7463 0.66067 0.0
C508 C 0.18696 0.757 0.64962 0.0
H509 H 0.09068 0.65874 0.59305 0.0
H510 H 0.12008 0.685 0.60424 0.0
C511 C 0.20259 0.7717 0.6577 0.0
C512 C 0.15087 0.73054 0.65247 0.0
H513 H 0.15736 0.69418 0.63543 0.0
C514 C 0.12143 0.72739 0.65124 0.0
C515 C 0.16407 0.71849 0.6466 0.0
C516 C 0.19558 0.72112 0.64814 0.0
C517 C 0.10477 0.71248 0.64429 0.0
C518 C 0.11789 0.7003 0.63882 0.0
C519 C 0.14739 0.70353 0.63971 0.0
C520 C 0.10122 0.68404 0.63241 0.0
C521 C 0.07329 0.70998 0.64266 0.0
C522 C 0.08148 0.67463 0.64474 0.0
C523 C 0.06456 0.65969 0.63837 0.0
C524 C 0.06721 0.65381 0.61958 0.0
C525 C 0.08783 0.66302 0.60751 0.0
C526 C 0.10473 0.67798 0.6139 0.0
H527 H 0.06763 0.72154 0.64235 0.0
H528 H 0.06486 0.70266 0.62956 0.0
H529 H 0.06278 0.70354 0.65525 0.0
H530 H 0.07883 0.67896 0.65921 0.0
H531 H 0.04875 0.65301 0.64799 0.0
H532 H 0.78544 0.69943 0.32955 0.0
H533 H 0.81146 0.67977 0.33607 0.0
H534 H 0.87902 0.70415 0.2994 0.0
H535 H 0.85332 0.72393 0.29289 0.0
H536 H 0.83148 0.65924 0.30943 0.0
H537 H 0.91863 0.70124 0.35035 0.0
H538 H 0.88567 0.70581 0.34561 0.0
H539 H 0.91206 0.70775 0.32722 0.0
C540 C 0.80588 0.70065 0.32291 0.0
C541 C 0.81739 0.71331 0.31079 0.0
C542 C 0.82066 0.68938 0.32662 0.0
C543 C 0.84728 0.69063 0.31839 0.0
C544 C 0.8587 0.70313 0.30613 0.0
H545 H 0.97428 0.63903 0.32771 0.0
H546 H 0.94544 0.65629 0.31806 0.0
C547 C 0.84392 0.71439 0.30238 0.0
C548 C 0.86308 0.67882 0.32259 0.0
H549 H 0.92379 0.6753 0.34289 0.0
C550 C 0.85162 0.6627 0.3168 0.0
C551 C 0.88933 0.68342 0.33219 0.0
C552 C 0.90211 0.70046 0.33937 0.0
C553 C 0.86604 0.65108 0.32004 0.0
C554 C 0.89232 0.65569 0.32963 0.0
C555 C 0.90369 0.67181 0.33546 0.0
C556 C 0.90849 0.64405 0.33392 0.0
C557 C 0.85333 0.63406 0.31279 0.0
C558 C 0.89717 0.63128 0.34587 0.0
C559 C 0.91353 0.62123 0.35126 0.0
C560 C 0.94161 0.62385 0.34492 0.0
C561 C 0.95261 0.63645 0.33259 0.0
C562 C 0.93623 0.64644 0.32719 0.0
H563 H 0.83741 0.63338 0.30142 0.0
H564 H 0.86987 0.62857 0.30703 0.0
H565 H 0.84262 0.62685 0.32479 0.0
H566 H 0.87598 0.62939 0.35151 0.0
H567 H 0.90435 0.61159 0.36066 0.0
H568 H 0.79962 0.29806 0.63479 0.0
H569 H 0.82669 0.3242 0.62375 0.0
H570 H 0.76194 0.34546 0.64524 0.0
H571 H 0.73493 0.31957 0.65646 0.0
H572 H 0.81191 0.34588 0.59854 0.0
H573 H 0.83411 0.37223 0.67237 0.0
H574 H 0.82116 0.35093 0.66736 0.0
H575 H 0.79739 0.36348 0.66721 0.0
C576 C 0.79106 0.30827 0.63706 0.0
C577 C 0.76524 0.30674 0.64669 0.0
C578 C 0.80654 0.32319 0.63074 0.0
C579 C 0.79653 0.3368 0.63401 0.0
C580 C 0.77029 0.33517 0.64293 0.0
H581 H 0.86779 0.43858 0.61607 0.0
H582 H 0.83604 0.41234 0.62284 0.0
C583 C 0.75485 0.32032 0.64926 0.0
C584 C 0.81374 0.35278 0.62853 0.0
H585 H 0.84792 0.3899 0.64703 0.0
C586 C 0.81985 0.35551 0.60912 0.0
C587 C 0.82401 0.36531 0.64238 0.0
C588 C 0.81909 0.36286 0.66352 0.0
C589 C 0.83571 0.37054 0.60316 0.0
C590 C 0.84604 0.38304 0.61703 0.0
C591 C 0.8398 0.38032 0.63642 0.0
C592 C 0.86445 0.39884 0.61188 0.0
C593 C 0.84094 0.37297 0.58206 0.0
C594 C 0.89097 0.39993 0.60362 0.0
C595 C 0.90917 0.41485 0.59986 0.0
C596 C 0.90128 0.42905 0.60435 0.0
C597 C 0.87458 0.42791 0.61254 0.0
C598 C 0.85637 0.41294 0.61633 0.0
H599 H 0.8254 0.36392 0.57318 0.0
H600 H 0.83996 0.38512 0.57825 0.0
H601 H 0.86232 0.37176 0.57841 0.0
H602 H 0.89792 0.38923 0.60054 0.0
H603 H 0.92982 0.41526 0.59399 0.0
H604 H 0.2972 0.27017 0.35215 0.0
H605 H 0.30918 0.24951 0.37055 0.0
H606 H 0.38018 0.28485 0.39547 0.0
H607 H 0.36835 0.30564 0.37718 0.0
H608 H 0.36187 0.24036 0.37089 0.0
H609 H 0.33349 0.26312 0.44186 0.0
H610 H 0.3218 0.26904 0.41961 0.0
H611 H 0.35742 0.27756 0.42762 0.0
C612 C 0.31535 0.27357 0.36156 0.0
C613 C 0.33173 0.28958 0.36328 0.0
C614 C 0.32221 0.26174 0.37201 0.0
C615 C 0.34539 0.2657 0.38447 0.0
C616 C 0.36199 0.28161 0.38609 0.0
H617 H 0.4225 0.20065 0.44244 0.0
H618 H 0.41349 0.22068 0.42142 0.0
C619 C 0.35523 0.29345 0.37559 0.0
C620 C 0.35199 0.25317 0.39592 0.0
H621 H 0.35369 0.24127 0.44169 0.0
C622 C 0.36015 0.24054 0.38637 0.0
C623 C 0.34947 0.25342 0.41608 0.0
C624 C 0.33986 0.26642 0.42697 0.0
C625 C 0.36601 0.22815 0.39652 0.0
C626 C 0.36376 0.2285 0.4167 0.0
C627 C 0.35552 0.2411 0.42621 0.0
C628 C 0.36904 0.21568 0.42827 0.0
C629 C 0.37399 0.21462 0.38561 0.0
C630 C 0.34706 0.20628 0.43908 0.0
C631 C 0.35214 0.19491 0.45111 0.0
C632 C 0.3794 0.19279 0.4527 0.0
C633 C 0.40131 0.20204 0.44158 0.0
C634 C 0.39616 0.21339 0.42946 0.0
H635 H 0.36924 0.21444 0.37009 0.0
H636 H 0.39697 0.21607 0.38722 0.0
H637 H 0.36265 0.2029 0.39138 0.0
H638 H 0.32602 0.20794 0.43843 0.0
H639 H 0.3349 0.18822 0.45973 0.0
H640 H 0.27876 0.85803 0.7622 0.0
H641 H 0.30757 0.86282 0.79133 0.0
H642 H 0.36082 0.83518 0.76613 0.0
H643 H 0.33241 0.83039 0.73704 0.0
H644 H 0.31776 0.83912 0.81513 0.0
H645 H 0.41705 0.87713 0.7856 0.0
H646 H 0.38342 0.87374 0.77371 0.0
H647 H 0.40298 0.85894 0.77161 0.0
C648 C 0.29676 0.85309 0.76279 0.0
C649 C 0.30332 0.84385 0.74727 0.0
C650 C 0.31314 0.85583 0.77945 0.0
C651 C 0.3365 0.84953 0.78075 0.0
C652 C 0.34318 0.84039 0.76527 0.0
H653 H 0.42614 0.82169 0.86958 0.0
H654 H 0.39209 0.82447 0.84579 0.0
C655 C 0.3268 0.8376 0.74868 0.0
C656 C 0.35331 0.85179 0.79856 0.0
H657 H 0.4208 0.86494 0.81525 0.0
C658 C 0.34021 0.84498 0.81528 0.0
C659 C 0.38247 0.85964 0.79877 0.0
C660 C 0.39729 0.86793 0.78151 0.0
C661 C 0.35589 0.84505 0.83195 0.0
C662 C 0.38541 0.85193 0.83173 0.0
C663 C 0.39819 0.85953 0.81534 0.0
C664 C 0.40379 0.85039 0.84776 0.0
C665 C 0.3408 0.83754 0.84953 0.0
C666 C 0.42177 0.86405 0.85674 0.0
C667 C 0.4413 0.8625 0.87041 0.0
C668 C 0.44335 0.84725 0.87522 0.0
C669 C 0.42478 0.8336 0.86651 0.0
C670 C 0.40527 0.83517 0.85289 0.0
H671 H 0.31816 0.83745 0.84943 0.0
H672 H 0.3419 0.82493 0.84985 0.0
H673 H 0.35072 0.84399 0.86281 0.0
H674 H 0.42104 0.87591 0.8529 0.0
H675 H 0.45509 0.87325 0.87699 0.0
H676 H 0.76808 0.81322 0.30949 0.0
H677 H 0.77802 0.83689 0.33106 0.0
H678 H 0.81203 0.81181 0.37267 0.0
H679 H 0.80236 0.78796 0.35106 0.0
H680 H 0.75719 0.83931 0.36862 0.0
H681 H 0.87437 0.85408 0.36678 0.0
H682 H 0.85247 0.8406 0.34927 0.0
H683 H 0.85676 0.83388 0.3727 0.0
C684 C 0.77781 0.81269 0.32319 0.0
C685 C 0.78451 0.79867 0.32852 0.0
C686 C 0.78342 0.82626 0.3355 0.0
C687 C 0.79602 0.82616 0.35334 0.0
C688 C 0.80271 0.81221 0.3588 0.0
H689 H 0.84397 0.89659 0.4468 0.0
H690 H 0.83526 0.87292 0.42521 0.0
C691 C 0.79705 0.79857 0.34648 0.0
C692 C 0.80143 0.8406 0.36634 0.0
H693 H 0.85398 0.86964 0.38825 0.0
C694 C 0.77834 0.84598 0.3729 0.0
C695 C 0.82905 0.84923 0.37186 0.0
C696 C 0.85466 0.84428 0.3647 0.0
C697 C 0.78209 0.85967 0.38509 0.0
C698 C 0.80973 0.86838 0.39053 0.0
C699 C 0.83282 0.86296 0.384 0.0
C700 C 0.81515 0.88294 0.40335 0.0
C701 C 0.75639 0.86446 0.39239 0.0
C702 C 0.80705 0.89654 0.39811 0.0
C703 C 0.81207 0.91015 0.41043 0.0
C704 C 0.82558 0.91045 0.42811 0.0
C705 C 0.83394 0.89686 0.43316 0.0
C706 C 0.82884 0.88328 0.42089 0.0
H707 H 0.73694 0.8544 0.39093 0.0
H708 H 0.75897 0.86864 0.40766 0.0
H709 H 0.75341 0.87444 0.38395 0.0
H710 H 0.79698 0.89665 0.38445 0.0
H711 H 0.80565 0.92049 0.40605 0.0
H712 H 0.70979 0.29833 0.75288 0.0
H713 H 0.68445 0.2997 0.78268 0.0
H714 H 0.62497 0.25454 0.76744 0.0
H715 H 0.64989 0.25332 0.73708 0.0
H716 H 0.59824 0.27592 0.7782 0.0
H717 H 0.67974 0.27825 0.83239 0.0
H718 H 0.69297 0.29329 0.81533 0.0
H719 H 0.68391 0.27241 0.80767 0.0
C720 C 0.69159 0.28853 0.75594 0.0
C721 C 0.68181 0.27574 0.74255 0.0
C722 C 0.67725 0.28926 0.77314 0.0
C723 C 0.65309 0.27707 0.77753 0.0
C724 C 0.6437 0.26402 0.76444 0.0
H725 H 0.57513 0.29401 0.88791 0.0
H726 H 0.59567 0.2802 0.8626 0.0
C727 C 0.65795 0.26334 0.7471 0.0
C728 C 0.63618 0.27901 0.79476 0.0
H729 H 0.64271 0.29097 0.84201 0.0
C730 C 0.60782 0.27886 0.79224 0.0
C731 C 0.64835 0.2825 0.81322 0.0
C732 C 0.67783 0.28144 0.81733 0.0
C733 C 0.59201 0.28327 0.80732 0.0
C734 C 0.60515 0.2884 0.82523 0.0
C735 C 0.6328 0.28737 0.82816 0.0
C736 C 0.59149 0.29613 0.84048 0.0
C737 C 0.56153 0.28266 0.80375 0.0
C738 C 0.58261 0.30976 0.83651 0.0
C739 C 0.57063 0.31753 0.85082 0.0
C740 C 0.56769 0.31205 0.86958 0.0
C741 C 0.57677 0.29844 0.87358 0.0
C742 C 0.58865 0.29058 0.85916 0.0
H743 H 0.55214 0.27329 0.7926 0.0
H744 H 0.54871 0.2802 0.817 0.0
H745 H 0.5603 0.29435 0.79847 0.0
H746 H 0.58525 0.31453 0.82234 0.0
H747 H 0.56354 0.32782 0.84712 0.0
H748 H 0.23598 0.89758 0.67933 0.0
H749 H 0.25284 0.92179 0.66109 0.0
H750 H 0.31473 0.90149 0.63318 0.0
H751 H 0.2978 0.87717 0.65116 0.0
H752 H 0.30733 0.94315 0.6596 0.0
H753 H 0.27312 0.91405 0.5884 0.0
H754 H 0.26071 0.90457 0.61052 0.0
H755 H 0.29517 0.90472 0.60151 0.0
C756 C 0.25311 0.89823 0.66927 0.0
C757 C 0.2654 0.88539 0.66659 0.0
C758 C 0.26277 0.91209 0.6589 0.0
C759 C 0.28477 0.91334 0.64562 0.0
C760 C 0.29737 0.90065 0.64311 0.0
H761 H 0.36412 0.98447 0.56442 0.0
H762 H 0.3534 0.96224 0.58602 0.0
C763 C 0.28772 0.88678 0.65345 0.0
C764 C 0.29454 0.92792 0.63438 0.0
H765 H 0.30068 0.94098 0.58877 0.0
C766 C 0.30585 0.94271 0.64412 0.0
C767 C 0.29256 0.92728 0.61419 0.0
C768 C 0.27951 0.91184 0.603 0.0
C769 C 0.31563 0.95688 0.63416 0.0
C770 C 0.31361 0.95623 0.61397 0.0
C771 C 0.30234 0.94143 0.60425 0.0
C772 C 0.32244 0.97075 0.60252 0.0
C773 C 0.32848 0.97236 0.64528 0.0
C774 C 0.30889 0.98305 0.60481 0.0
C775 C 0.31516 0.99588 0.59257 0.0
C776 C 0.33496 0.99659 0.57772 0.0
C777 C 0.3491 0.98447 0.57587 0.0
C778 C 0.34284 0.97167 0.58811 0.0
H779 H 0.33547 0.97019 0.65974 0.0
H780 H 0.34682 0.97986 0.63755 0.0
H781 H 0.31247 0.97922 0.64713 0.0
H782 H 0.29273 0.98245 0.61562 0.0
H783 H 0.30404 0.00507 0.59447 0.0
H784 H 0.69585 0.74593 0.22517 0.0
H785 H 0.66946 0.7474 0.19619 0.0
H786 H 0.74337 0.7799 0.17276 0.0
H787 H 0.77 0.77822 0.20139 0.0
H788 H 0.65923 0.77473 0.18671 0.0
H789 H 0.71268 0.75259 0.12578 0.0
H790 H 0.71851 0.74842 0.15027 0.0
H791 H 0.73738 0.76715 0.1404 0.0
C792 C 0.7067 0.75305 0.21363 0.0
C793 C 0.73496 0.76209 0.21567 0.0
C794 C 0.69158 0.75386 0.19706 0.0
C795 C 0.70446 0.76366 0.18222 0.0
C796 C 0.73311 0.77197 0.18379 0.0
H797 H 0.64205 0.82467 0.11458 0.0
H798 H 0.66504 0.81097 0.13648 0.0
C799 C 0.74827 0.77111 0.20029 0.0
C800 C 0.68718 0.7672 0.1666 0.0
H801 H 0.68565 0.77131 0.11828 0.0
C802 C 0.66467 0.77365 0.17172 0.0
C803 C 0.69408 0.76569 0.14702 0.0
C804 C 0.71681 0.75792 0.14054 0.0
C805 C 0.65 0.77951 0.15794 0.0
C806 C 0.65833 0.77912 0.13856 0.0
C807 C 0.67964 0.7718 0.13322 0.0
C808 C 0.6463 0.78729 0.12402 0.0
C809 C 0.62616 0.78646 0.16428 0.0
C810 C 0.62892 0.77852 0.10937 0.0
C811 C 0.61583 0.78636 0.09668 0.0
C812 C 0.62018 0.80308 0.09839 0.0
C813 C 0.63851 0.81183 0.11269 0.0
C814 C 0.65146 0.804 0.12534 0.0
H815 H 0.61762 0.78211 0.17843 0.0
H816 H 0.63407 0.79971 0.16558 0.0
H817 H 0.60872 0.78339 0.15366 0.0
H818 H 0.62485 0.76561 0.10811 0.0
H819 H 0.60206 0.77932 0.0857 0.0
H820 H 0.77762 0.20821 0.65528 0.0
H821 H 0.78713 0.18548 0.6371 0.0
H822 H 0.73292 0.19184 0.59172 0.0
H823 H 0.72263 0.21426 0.61007 0.0
H824 H 0.72424 0.16052 0.59924 0.0
H825 H 0.83895 0.18891 0.59148 0.0
H826 H 0.82732 0.18732 0.61591 0.0
H827 H 0.8147 0.1999 0.60033 0.0
C828 C 0.76773 0.20477 0.64142 0.0
C829 C 0.74953 0.21312 0.63405 0.0
C830 C 0.7733 0.19183 0.631 0.0
C831 C 0.76117 0.18714 0.61288 0.0
C832 C 0.74261 0.19527 0.60565 0.0
H833 H 0.8187 0.13314 0.5229 0.0
H834 H 0.806 0.15305 0.54432 0.0
C835 C 0.7368 0.20812 0.61613 0.0
C836 C 0.76792 0.17386 0.60135 0.0
H837 H 0.8224 0.16186 0.58049 0.0
C838 C 0.7457 0.16079 0.59513 0.0
C839 C 0.79591 0.17432 0.59583 0.0
C840 C 0.82057 0.18842 0.60106 0.0
C841 C 0.75068 0.14821 0.58349 0.0
C842 C 0.77872 0.14854 0.57829 0.0
C843 C 0.80093 0.16155 0.58463 0.0
C844 C 0.78553 0.13609 0.56529 0.0
C845 C 0.72579 0.13499 0.57634 0.0
C846 C 0.77827 0.11987 0.56994 0.0
C847 C 0.78541 0.1084 0.5576 0.0
C848 C 0.80036 0.11302 0.5406 0.0
C849 C 0.80757 0.12925 0.53604 0.0
C850 C 0.80024 0.14064 0.54824 0.0
H851 H 0.70574 0.13856 0.57758 0.0
H852 H 0.72876 0.13149 0.56116 0.0
H853 H 0.72369 0.12432 0.58504 0.0
H854 H 0.76745 0.11613 0.58321 0.0
H855 H 0.77977 0.09599 0.56152 0.0
H856 H 0.40114 0.35584 0.27874 0.0
H857 H 0.41917 0.35479 0.24612 0.0
H858 H 0.35031 0.31336 0.23224 0.0
H859 H 0.33199 0.3143 0.26486 0.0
H860 H 0.43428 0.32834 0.22578 0.0
H861 H 0.34707 0.34678 0.19131 0.0
H862 H 0.35437 0.34993 0.21664 0.0
H863 H 0.33689 0.3303 0.20704 0.0
C864 C 0.38986 0.34645 0.2688 0.0
C865 C 0.36504 0.3352 0.27439 0.0
C866 C 0.4002 0.34588 0.25018 0.0
C867 C 0.38583 0.33414 0.23677 0.0
C868 C 0.36144 0.32265 0.24236 0.0
H869 H 0.45381 0.31356 0.1257 0.0
H870 H 0.42878 0.31088 0.15636 0.0
C871 C 0.35112 0.32316 0.26102 0.0
C872 C 0.39646 0.33401 0.21691 0.0
H873 H 0.38175 0.34074 0.17087 0.0
C874 C 0.42277 0.33095 0.21374 0.0
C875 C 0.38141 0.33759 0.20133 0.0
C876 C 0.35345 0.34146 0.20414 0.0
C877 C 0.43452 0.33139 0.19534 0.0
C878 C 0.41941 0.33487 0.17974 0.0
C879 C 0.39309 0.33793 0.18289 0.0
C880 C 0.43141 0.33612 0.16021 0.0
C881 C 0.46334 0.32854 0.19277 0.0
C882 C 0.44014 0.35111 0.15195 0.0
C883 C 0.45432 0.35268 0.13441 0.0
C884 C 0.4598 0.33925 0.12479 0.0
C885 C 0.44969 0.32411 0.13267 0.0
C886 C 0.43563 0.32257 0.15025 0.0
H887 H 0.4743 0.3289 0.20665 0.0
H888 H 0.46108 0.31658 0.18566 0.0
H889 H 0.47676 0.33764 0.1835 0.0
H890 H 0.43692 0.36168 0.15942 0.0
H891 H 0.46159 0.36446 0.12859 0.0
H892 H 0.79416 0.72538 0.67215 0.0
H893 H 0.81919 0.70521 0.66354 0.0
H894 H 0.76057 0.68698 0.61733 0.0
H895 H 0.73504 0.70691 0.62608 0.0
H896 H 0.77109 0.66292 0.63792 0.0
H897 H 0.8715 0.70613 0.618 0.0
H898 H 0.85997 0.70969 0.64183 0.0
H899 H 0.83914 0.71192 0.62167 0.0
C900 C 0.7866 0.7171 0.66013 0.0
C901 C 0.76269 0.71782 0.64973 0.0
C902 C 0.80103 0.70563 0.65517 0.0
C903 C 0.79204 0.69476 0.63959 0.0
C904 C 0.76795 0.6953 0.62935 0.0
H905 H 0.89562 0.63917 0.58448 0.0
H906 H 0.86515 0.65671 0.59157 0.0
C907 C 0.75342 0.70672 0.63435 0.0
C908 C 0.80763 0.68277 0.63405 0.0
H909 H 0.87246 0.67902 0.6203 0.0
C910 C 0.79323 0.66642 0.63399 0.0
C911 C 0.8364 0.68737 0.62865 0.0
C912 C 0.85262 0.70473 0.62734 0.0
C913 C 0.80696 0.65454 0.62898 0.0
C914 C 0.836 0.65914 0.62427 0.0
C915 C 0.85025 0.67549 0.62406 0.0
C916 C 0.85214 0.64728 0.61936 0.0
C917 C 0.79012 0.6372 0.62847 0.0
C918 C 0.85471 0.63596 0.63252 0.0
C919 C 0.87183 0.62568 0.62838 0.0
C920 C 0.88699 0.62665 0.61107 0.0
C921 C 0.88389 0.63782 0.59779 0.0
C922 C 0.86667 0.648 0.6019 0.0
H923 H 0.76715 0.63597 0.62699 0.0
H924 H 0.79696 0.63032 0.61647 0.0
H925 H 0.79339 0.63179 0.64206 0.0
H926 H 0.84413 0.63536 0.64624 0.0
H927 H 0.87354 0.61716 0.63888 0.0
H928 H 0.81356 0.31541 0.28303 0.0
H929 H 0.84032 0.34163 0.29564 0.0
H930 H 0.86078 0.32018 0.34615 0.0
H931 H 0.83412 0.29368 0.33354 0.0
H932 H 0.83212 0.35783 0.32988 0.0
H933 H 0.93812 0.34635 0.32648 0.0
H934 H 0.90783 0.33353 0.31417 0.0
H935 H 0.91173 0.33223 0.33951 0.0
C936 C 0.82378 0.31619 0.29682 0.0
C937 C 0.82179 0.30239 0.30725 0.0
C938 C 0.83902 0.33122 0.304 0.0
C939 C 0.85273 0.33282 0.32172 0.0
C940 C 0.85067 0.31915 0.3323 0.0
H941 H 0.92353 0.4241 0.38379 0.0
H942 H 0.89447 0.39747 0.37372 0.0
C943 C 0.83536 0.30403 0.32511 0.0
C944 C 0.86902 0.34891 0.32895 0.0
H945 H 0.93571 0.37149 0.33966 0.0
C946 C 0.85476 0.36083 0.33211 0.0
C947 C 0.89857 0.35279 0.33158 0.0
C948 C 0.9151 0.34063 0.32763 0.0
C949 C 0.8693 0.37657 0.3378 0.0
C950 C 0.89881 0.3804 0.34065 0.0
C951 C 0.91306 0.36847 0.33754 0.0
C952 C 0.9155 0.3968 0.34646 0.0
C953 C 0.85309 0.38905 0.34022 0.0
C954 C 0.93708 0.40519 0.33454 0.0
C955 C 0.95387 0.42033 0.34032 0.0
C956 C 0.94951 0.42735 0.35821 0.0
C957 C 0.92755 0.41899 0.36999 0.0
C958 C 0.91076 0.40384 0.36419 0.0
H959 H 0.83217 0.38515 0.33307 0.0
H960 H 0.84953 0.39118 0.35569 0.0
H961 H 0.86514 0.40058 0.33432 0.0
H962 H 0.94114 0.39993 0.32084 0.0
H963 H 0.97087 0.42631 0.33104 0.0
H964 H 0.14331 0.35845 0.69542 0.0
H965 H 0.1216 0.37859 0.68392 0.0
H966 H 0.19926 0.40191 0.65573 0.0
H967 H 0.22135 0.38189 0.66737 0.0
H968 H 0.17438 0.42313 0.6768 0.0
H969 H 0.09684 0.38157 0.6287 0.0
H970 H 0.09602 0.37512 0.6528 0.0
H971 H 0.12698 0.37639 0.63836 0.0
C972 C 0.1558 0.36783 0.68674 0.0
C973 C 0.18403 0.36851 0.68223 0.0
C974 C 0.1433 0.37929 0.6801 0.0
C975 C 0.15869 0.39158 0.66873 0.0
C976 C 0.18698 0.39245 0.66441 0.0
H977 H 0.1105 0.47128 0.61787 0.0
H978 H 0.13765 0.45329 0.62857 0.0
C979 C 0.19953 0.38099 0.67104 0.0
C980 C 0.14526 0.40362 0.66157 0.0
H981 H 0.08994 0.40746 0.63489 0.0
C982 C 0.15607 0.41976 0.6675 0.0
C983 C 0.12145 0.39917 0.64938 0.0
C984 C 0.10976 0.38215 0.64177 0.0
C985 C 0.14302 0.43151 0.66213 0.0
C986 C 0.11882 0.42697 0.6503 0.0
C987 C 0.10841 0.41088 0.64405 0.0
C988 C 0.10327 0.43854 0.64468 0.0
C989 C 0.15464 0.44855 0.66964 0.0
C990 C 0.07494 0.43614 0.65006 0.0
C991 C 0.05934 0.44626 0.64384 0.0
C992 C 0.07172 0.45901 0.63203 0.0
C993 C 0.1003 0.46155 0.62689 0.0
C994 C 0.11592 0.45138 0.63314 0.0
H995 H 0.16934 0.44938 0.68182 0.0
H996 H 0.16639 0.45586 0.65804 0.0
H997 H 0.1373 0.45382 0.67437 0.0
H998 H 0.06473 0.42624 0.65886 0.0
H999 H 0.03726 0.44371 0.64775 0.0
H1000 H 0.24693 0.77984 0.34708 0.0
H1001 H 0.21523 0.75461 0.3571 0.0
H1002 H 0.27425 0.72908 0.33578 0.0
H1003 H 0.30621 0.75422 0.32593 0.0
H1004 H 0.19142 0.72872 0.33214 0.0
H1005 H 0.25383 0.71063 0.38856 0.0
H1006 H 0.26195 0.73081 0.3803 0.0
H1007 H 0.27236 0.71543 0.36639 0.0
C1008 C 0.25339 0.7689 0.34479 0.0
C1009 C 0.27909 0.76904 0.33567 0.0
C1010 C 0.23523 0.7545 0.35051 0.0
C1011 C 0.24252 0.74001 0.34735 0.0
C1012 C 0.26845 0.74016 0.33869 0.0
H1013 H 0.15093 0.63968 0.3575 0.0
H1014 H 0.18651 0.66485 0.35143 0.0
C1015 C 0.28662 0.75455 0.33296 0.0
C1016 C 0.22204 0.72462 0.35169 0.0
H1017 H 0.21258 0.69106 0.37761 0.0
C1018 C 0.19596 0.72053 0.34218 0.0
C1019 C 0.22817 0.71391 0.36465 0.0
C1020 C 0.25549 0.71793 0.37571 0.0
C1021 C 0.17593 0.70593 0.34511 0.0
C1022 C 0.18195 0.69526 0.35816 0.0
C1023 C 0.20808 0.69928 0.36761 0.0
C1024 C 0.16101 0.68005 0.36246 0.0
C1025 C 0.14867 0.70192 0.33395 0.0
C1026 C 0.13518 0.68032 0.37096 0.0
C1027 C 0.11484 0.66603 0.37433 0.0
C1028 C 0.12 0.65116 0.36941 0.0
C1029 C 0.1462 0.65093 0.36126 0.0
C1030 C 0.16659 0.66527 0.35789 0.0
H1031 H 0.15037 0.70927 0.32114 0.0
H1032 H 0.14232 0.68906 0.32926 0.0
H1033 H 0.1317 0.70434 0.34323 0.0
H1034 H 0.13063 0.6916 0.37482 0.0
H1035 H 0.09478 0.66668 0.38039 0.0
H1036 H 0.7929 0.81761 0.65582 0.0
H1037 H 0.80282 0.84108 0.63612 0.0
H1038 H 0.73791 0.81611 0.5964 0.0
H1039 H 0.72813 0.79243 0.61584 0.0
H1040 H 0.78604 0.8326 0.57831 0.0
H1041 H 0.75338 0.87184 0.63354 0.0
H1042 H 0.78009 0.86305 0.6417 0.0
H1043 H 0.7457 0.85041 0.63546 0.0
C1044 C 0.78078 0.81706 0.64285 0.0
C1045 C 0.75957 0.80316 0.63748 0.0
C1046 C 0.78635 0.83054 0.63169 0.0
C1047 C 0.77065 0.83047 0.61504 0.0
C1048 C 0.7501 0.81647 0.6093 0.0
H1049 H 0.76529 0.91524 0.55375 0.0
H1050 H 0.75387 0.89142 0.57304 0.0
C1051 C 0.74457 0.80293 0.62041 0.0
C1052 C 0.77582 0.84499 0.60358 0.0
H1053 H 0.77716 0.88463 0.60623 0.0
C1054 C 0.78398 0.84396 0.58438 0.0
C1055 C 0.77262 0.85973 0.61143 0.0
C1056 C 0.76219 0.86134 0.63161 0.0
C1057 C 0.78974 0.85738 0.57294 0.0
C1058 C 0.78784 0.8723 0.58106 0.0
C1059 C 0.77896 0.87323 0.60011 0.0
C1060 C 0.79508 0.88707 0.57 0.0
C1061 C 0.79744 0.85539 0.5522 0.0
C1062 C 0.82223 0.89277 0.56234 0.0
C1063 C 0.82873 0.90626 0.5512 0.0
C1064 C 0.80831 0.91449 0.54766 0.0
C1065 C 0.7814 0.90908 0.55596 0.0
C1066 C 0.77488 0.89552 0.56706 0.0
H1067 H 0.79011 0.84269 0.54693 0.0
H1068 H 0.78821 0.86282 0.54299 0.0
H1069 H 0.82073 0.85926 0.55066 0.0
H1070 H 0.83833 0.88664 0.56477 0.0
H1071 H 0.84955 0.90992 0.54487 0.0
H1072 H 0.69762 0.24927 0.22034 0.0
H1073 H 0.66817 0.25233 0.19353 0.0
H1074 H 0.74046 0.28423 0.16754 0.0
H1075 H 0.77005 0.28094 0.1939 0.0
H1076 H 0.65786 0.2799 0.18549 0.0
H1077 H 0.7047 0.25774 0.1214 0.0
H1078 H 0.71275 0.2533 0.14535 0.0
H1079 H 0.73106 0.27201 0.13519 0.0
C1080 C 0.70737 0.25663 0.20868 0.0
C1081 C 0.73616 0.26493 0.20931 0.0
C1082 C 0.69051 0.25837 0.19338 0.0
C1083 C 0.70215 0.26836 0.1784 0.0
C1084 C 0.73111 0.27613 0.17865 0.0
H1085 H 0.62994 0.32955 0.1164 0.0
H1086 H 0.65511 0.31632 0.13735 0.0
C1087 C 0.74798 0.27435 0.19387 0.0
C1088 C 0.68367 0.27234 0.16384 0.0
H1089 H 0.67766 0.27681 0.11591 0.0
C1090 C 0.66189 0.27894 0.17026 0.0
C1091 C 0.68864 0.27093 0.14395 0.0
C1092 C 0.71038 0.26294 0.13608 0.0
C1093 C 0.646 0.28497 0.15742 0.0
C1094 C 0.65247 0.2847 0.13768 0.0
C1095 C 0.67311 0.27727 0.13111 0.0
C1096 C 0.63887 0.29276 0.12387 0.0
C1097 C 0.62267 0.29177 0.16517 0.0
C1098 C 0.6224 0.28401 0.10878 0.0
C1099 C 0.60826 0.29162 0.09653 0.0
C1100 C 0.61052 0.30811 0.09911 0.0
C1101 C 0.62795 0.31689 0.11383 0.0
C1102 C 0.64207 0.3093 0.126 0.0
H1103 H 0.61489 0.28681 0.17921 0.0
H1104 H 0.63086 0.30496 0.16731 0.0
H1105 H 0.60461 0.28926 0.15507 0.0
H1106 H 0.61994 0.27125 0.10679 0.0
H1107 H 0.59531 0.28455 0.08518 0.0
H1108 H 0.25806 0.26741 0.68582 0.0
H1109 H 0.27194 0.24644 0.66673 0.0
H1110 H 0.30924 0.28071 0.62458 0.0
H1111 H 0.29554 0.3018 0.64356 0.0
H1112 H 0.25904 0.23576 0.62724 0.0
H1113 H 0.3738 0.26096 0.64083 0.0
H1114 H 0.34707 0.26668 0.65523 0.0
H1115 H 0.35598 0.27486 0.6321 0.0
C1116 C 0.26907 0.27048 0.67244 0.0
C1117 C 0.27586 0.2863 0.66627 0.0
C1118 C 0.27697 0.25848 0.66156 0.0
C1119 C 0.29199 0.26211 0.64444 0.0
C1120 C 0.29805 0.27775 0.63794 0.0
H1121 H 0.32772 0.20357 0.55092 0.0
H1122 H 0.31065 0.22161 0.57271 0.0
C1123 C 0.29005 0.28976 0.64875 0.0
C1124 C 0.30156 0.24957 0.63345 0.0
H1125 H 0.36074 0.23951 0.61758 0.0
C1126 C 0.28125 0.23651 0.62519 0.0
C1127 C 0.33055 0.25049 0.63109 0.0
C1128 C 0.35318 0.26392 0.6404 0.0
C1129 C 0.28923 0.22458 0.61406 0.0
C1130 C 0.31822 0.22586 0.61106 0.0
C1131 C 0.33852 0.23864 0.61984 0.0
C1132 C 0.3279 0.21445 0.59812 0.0
C1133 C 0.26661 0.21072 0.60555 0.0
C1134 C 0.34366 0.20462 0.60519 0.0
C1135 C 0.3533 0.19413 0.59276 0.0
C1136 C 0.34751 0.19343 0.57303 0.0
C1137 C 0.33196 0.20348 0.56606 0.0
C1138 C 0.32224 0.21385 0.57848 0.0
H1139 H 0.24605 0.20937 0.61295 0.0
H1140 H 0.26369 0.21282 0.59026 0.0
H1141 H 0.27279 0.19933 0.6063 0.0
H1142 H 0.34837 0.20501 0.62033 0.0
H1143 H 0.36505 0.1865 0.59862 0.0
H1144 H 0.41071 0.85537 0.27597 0.0
H1145 H 0.43205 0.85962 0.24418 0.0
H1146 H 0.35551 0.82979 0.21867 0.0
H1147 H 0.33388 0.82564 0.25026 0.0
H1148 H 0.44103 0.83569 0.21995 0.0
H1149 H 0.37399 0.86825 0.18453 0.0
H1150 H 0.37442 0.86647 0.21016 0.0
H1151 H 0.35416 0.85017 0.19516 0.0
C1152 C 0.39826 0.84991 0.26358 0.0
C1153 C 0.37061 0.84013 0.26568 0.0
C1154 C 0.41048 0.85236 0.24543 0.0
C1155 C 0.39524 0.84518 0.22905 0.0
C1156 C 0.36744 0.83573 0.23106 0.0
H1157 H 0.46379 0.81902 0.12225 0.0
H1158 H 0.43785 0.81972 0.15215 0.0
C1159 C 0.3552 0.83327 0.24918 0.0
C1160 C 0.40918 0.84636 0.21008 0.0
H1161 H 0.40364 0.85692 0.16407 0.0
C1162 C 0.433 0.84046 0.20777 0.0
C1163 C 0.39877 0.85269 0.19426 0.0
C1164 C 0.37409 0.8599 0.19614 0.0
C1165 C 0.44629 0.84034 0.18995 0.0
C1166 C 0.43516 0.84602 0.17395 0.0
C1167 C 0.41183 0.85235 0.17633 0.0
C1168 C 0.44782 0.84558 0.1547 0.0
C1169 C 0.47226 0.83421 0.18844 0.0
C1170 C 0.46084 0.85988 0.1458 0.0
C1171 C 0.47542 0.85953 0.12858 0.0
C1172 C 0.47713 0.84485 0.11994 0.0
C1173 C 0.46274 0.83052 0.12842 0.0
C1174 C 0.44816 0.8309 0.14562 0.0
H1175 H 0.48202 0.83407 0.20266 0.0
H1176 H 0.46632 0.82177 0.18226 0.0
H1177 H 0.48827 0.84167 0.17892 0.0
H1178 H 0.46059 0.87133 0.15253 0.0
H1179 H 0.48593 0.87076 0.12226 0.0
H1180 H 0.7519 0.20972 0.34863 0.0
H1181 H 0.75668 0.18698 0.36658 0.0
H1182 H 0.82209 0.18059 0.32788 0.0
H1183 H 0.81781 0.20349 0.31003 0.0
H1184 H 0.74949 0.15532 0.35412 0.0
H1185 H 0.85892 0.18219 0.38009 0.0
H1186 H 0.83794 0.19393 0.36981 0.0
H1187 H 0.85497 0.18209 0.3546 0.0
C1188 C 0.76741 0.20353 0.34398 0.0
C1189 C 0.78459 0.20848 0.32796 0.0
C1190 C 0.77007 0.19052 0.35424 0.0
C1191 C 0.79 0.18223 0.34873 0.0
C1192 C 0.80698 0.18702 0.33263 0.0
H1193 H 0.83555 0.10169 0.39809 0.0
H1194 H 0.82959 0.12191 0.37626 0.0
C1195 C 0.80441 0.20007 0.32239 0.0
C1196 C 0.79265 0.16842 0.35969 0.0
H1197 H 0.83857 0.15493 0.38644 0.0
C1198 C 0.76896 0.15523 0.3612 0.0
C1199 C 0.81809 0.16833 0.36887 0.0
C1200 C 0.84388 0.18244 0.36845 0.0
C1201 C 0.77005 0.1419 0.3716 0.0
C1202 C 0.79541 0.14188 0.38091 0.0
C1203 C 0.8192 0.15496 0.37919 0.0
C1204 C 0.79739 0.12876 0.39329 0.0
C1205 C 0.74415 0.12791 0.37244 0.0
C1206 C 0.78121 0.12591 0.41005 0.0
C1207 C 0.78469 0.11448 0.42261 0.0
C1208 C 0.80453 0.10568 0.4187 0.0
C1209 C 0.82029 0.10834 0.40164 0.0
C1210 C 0.81684 0.11983 0.38911 0.0
H1211 H 0.72926 0.12787 0.36059 0.0
H1212 H 0.74995 0.11637 0.37174 0.0
H1213 H 0.73298 0.12873 0.38616 0.0
H1214 H 0.76653 0.13292 0.41376 0.0
H1215 H 0.77265 0.11303 0.43578 0.0
H1216 H 0.24276 0.34645 0.77039 0.0
H1217 H 0.26385 0.35141 0.80241 0.0
H1218 H 0.34678 0.35934 0.77737 0.0
H1219 H 0.32611 0.35473 0.74554 0.0
H1220 H 0.29378 0.3333 0.81808 0.0
H1221 H 0.36018 0.39555 0.81715 0.0
H1222 H 0.33253 0.38752 0.79981 0.0
H1223 H 0.36702 0.38429 0.79641 0.0
C1224 C 0.26552 0.3496 0.7717 0.0
C1225 C 0.28274 0.35014 0.7554 0.0
C1226 C 0.27752 0.35242 0.79001 0.0
C1227 C 0.30691 0.35598 0.79229 0.0
C1228 C 0.32412 0.35704 0.77599 0.0
H1229 H 0.41455 0.32858 0.86639 0.0
H1230 H 0.37816 0.33111 0.84441 0.0
C1231 C 0.3122 0.35424 0.75775 0.0
C1232 C 0.3197 0.35675 0.81151 0.0
H1233 H 0.37589 0.37797 0.8383 0.0
C1234 C 0.3113 0.34324 0.82274 0.0
C1235 C 0.34219 0.36982 0.81784 0.0
C1236 C 0.35077 0.38517 0.80724 0.0
C1237 C 0.32628 0.34192 0.83926 0.0
C1238 C 0.35058 0.35428 0.84444 0.0
C1239 C 0.35754 0.36836 0.83414 0.0
C1240 C 0.37073 0.35213 0.85903 0.0
C1241 C 0.31642 0.32706 0.85067 0.0
C1242 C 0.37904 0.36326 0.87444 0.0
C1243 C 0.4 0.36184 0.8871 0.0
C1244 C 0.41312 0.34932 0.88448 0.0
C1245 C 0.40444 0.33812 0.86914 0.0
C1246 C 0.38358 0.33955 0.85653 0.0
H1247 H 0.29326 0.32186 0.84927 0.0
H1248 H 0.32684 0.31789 0.8451 0.0
H1249 H 0.32174 0.32962 0.86608 0.0
H1250 H 0.36955 0.37314 0.87651 0.0
H1251 H 0.40612 0.37062 0.89883 0.0
H1252 H 0.40137 0.88031 0.37961 0.0
H1253 H 0.40548 0.90529 0.39847 0.0
H1254 H 0.33129 0.91131 0.37077 0.0
H1255 H 0.32663 0.88622 0.35224 0.0
H1256 H 0.41204 0.93627 0.38768 0.0
H1257 H 0.31132 0.9146 0.42687 0.0
H1258 H 0.32721 0.90129 0.41297 0.0
H1259 H 0.30687 0.91265 0.40138 0.0
C1260 C 0.38589 0.88694 0.37757 0.0
C1261 C 0.36349 0.8812 0.36457 0.0
C1262 C 0.38831 0.90122 0.38833 0.0
C1263 C 0.3684 0.91 0.38628 0.0
C1264 C 0.34649 0.90452 0.37293 0.0
H1265 H 0.33885 0.99731 0.43365 0.0
H1266 H 0.34255 0.97442 0.41311 0.0
C1267 C 0.34393 0.8902 0.36228 0.0
C1268 C 0.3704 0.92488 0.39809 0.0
H1269 H 0.33318 0.94265 0.42943 0.0
C1270 C 0.39491 0.93765 0.39692 0.0
C1271 C 0.3481 0.92659 0.41026 0.0
C1272 C 0.32202 0.913 0.41313 0.0
C1273 C 0.39729 0.95225 0.40717 0.0
C1274 C 0.37463 0.95406 0.41886 0.0
C1275 C 0.35037 0.94124 0.42026 0.0
C1276 C 0.3754 0.96912 0.42985 0.0
C1277 C 0.42366 0.96578 0.40515 0.0
C1278 C 0.39303 0.97387 0.44586 0.0
C1279 C 0.3908 0.98687 0.45774 0.0
C1280 C 0.3708 0.99529 0.45382 0.0
C1281 C 0.35416 0.99094 0.43722 0.0
C1282 C 0.35633 0.97792 0.42542 0.0
H1283 H 0.43722 0.96339 0.39318 0.0
H1284 H 0.41813 0.97716 0.40274 0.0
H1285 H 0.43604 0.96744 0.41861 0.0
H1286 H 0.40759 0.96707 0.44965 0.0
H1287 H 0.40367 0.98977 0.47053 0.0
H1288 H 0.72915 0.76708 0.75305 0.0
H1289 H 0.70725 0.76959 0.78419 0.0
H1290 H 0.62582 0.76021 0.75709 0.0
H1291 H 0.64742 0.75751 0.72595 0.0
H1292 H 0.67953 0.79304 0.79201 0.0
H1293 H 0.60803 0.73302 0.80438 0.0
H1294 H 0.63654 0.73618 0.78721 0.0
H1295 H 0.60384 0.74039 0.78129 0.0
C1296 C 0.70649 0.7652 0.75375 0.0
C1297 C 0.69006 0.7622 0.73698 0.0
C1298 C 0.69402 0.76663 0.77157 0.0
C1299 C 0.66489 0.76494 0.77298 0.0
C1300 C 0.64825 0.76124 0.75639 0.0
H1301 H 0.54912 0.79113 0.85209 0.0
H1302 H 0.57228 0.77932 0.82643 0.0
C1303 C 0.66069 0.75982 0.73856 0.0
C1304 C 0.65247 0.76898 0.79131 0.0
H1305 H 0.6001 0.7549 0.8237 0.0
C1306 C 0.66245 0.78464 0.79912 0.0
C1307 C 0.63003 0.75803 0.80042 0.0
C1308 C 0.61912 0.74091 0.79301 0.0
C1309 C 0.64997 0.78984 0.81541 0.0
C1310 C 0.62726 0.77896 0.8244 0.0
C1311 C 0.61758 0.76319 0.81681 0.0
C1312 C 0.61239 0.78409 0.84104 0.0
C1313 C 0.6604 0.80715 0.8223 0.0
C1314 C 0.62697 0.79013 0.85806 0.0
C1315 C 0.61383 0.79695 0.87271 0.0
C1316 C 0.58576 0.79764 0.87069 0.0
C1317 C 0.5707 0.79067 0.85413 0.0
C1318 C 0.58392 0.78396 0.83943 0.0
H1319 H 0.67324 0.81471 0.81126 0.0
H1320 H 0.64249 0.81216 0.82635 0.0
H1321 H 0.67387 0.80796 0.83512 0.0
H1322 H 0.64878 0.79002 0.85976 0.0
H1323 H 0.62581 0.802 0.88544 0.0
loop_
_geom_bond_atom_site_label_1
_geom_bond_atom_site_label_2
_geom_bond_distance
_geom_bond_site_symmetry_2
_ccdc_geom_bond_type
O0 Cd1 2.300 . S
O0 C7 1.275 . S
Cd1 O0 2.300 . S
Cd1 O9 2.381 . S
Cd1 O10 2.378 . S
O2 Cd3 2.385 . S
O2 C7 1.255 . S
Cd3 O2 2.385 . S
Cd3 O4 2.317 . S
O4 Cd3 2.317 . S
O4 C5 1.232 . S
C5 O4 1.232 . S
C5 O6 1.218 . S
O6 C5 1.218 . S
C7 O0 1.275 . S
C7 O2 1.255 . S
C8 O9 1.258 . S
C8 O10 1.256 . S
O9 Cd1 2.381 . S
O9 C8 1.258 . S
O10 Cd1 2.378 . S
O10 C8 1.256 . S
O11 Cd12 2.300 . S
O11 C18 1.275 . S
Cd12 O11 2.300 . S
Cd12 O20 2.381 . S
Cd12 O21 2.378 . S
O13 Cd14 2.385 . S
O13 C18 1.255 . S
Cd14 O13 2.385 . S
Cd14 O15 2.317 . S
O15 Cd14 2.317 . S
O15 C16 1.232 . S
C16 O15 1.232 . S
C16 O17 1.218 . S
O17 C16 1.218 . S
C18 O11 1.275 . S
C18 O13 1.255 . S
C19 O20 1.258 . S
C19 O21 1.256 . S
O20 Cd12 2.381 . S
O20 C19 1.258 . S
O21 Cd12 2.378 . S
O21 C19 1.256 . S
O22 Cd23 2.300 . S
O22 C29 1.275 . S
Cd23 O22 2.300 . S
Cd23 O31 2.381 . S
Cd23 O32 2.378 . S
O24 Cd25 2.385 . S
O24 C29 1.255 . S
Cd25 O24 2.385 . S
Cd25 O26 2.317 . S
O26 Cd25 2.317 . S
O26 C27 1.232 . S
C27 O26 1.232 . S
C27 O28 1.218 . S
O28 C27 1.218 . S
C29 O22 1.275 . S
C29 O24 1.255 . S
C30 O31 1.258 . S
C30 O32 1.256 . S
O31 Cd23 2.381 . S
O31 C30 1.258 . S
O32 Cd23 2.378 . S
O32 C30 1.256 . S
O33 Cd34 2.300 . S
O33 C40 1.275 . S
Cd34 O33 2.300 . S
Cd34 O42 2.381 . S
Cd34 O43 2.378 . S
O35 Cd36 2.385 . S
O35 C40 1.255 . S
Cd36 O35 2.385 . S
Cd36 O37 2.317 . S
O37 Cd36 2.317 . S
O37 C38 1.232 . S
C38 O37 1.232 . S
C38 O39 1.218 . S
O39 C38 1.218 . S
C40 O33 1.275 . S
C40 O35 1.255 . S
C41 O42 1.258 . S
C41 O43 1.256 . S
O42 Cd34 2.381 . S
O42 C41 1.258 . S
O43 Cd34 2.378 . S
O43 C41 1.256 . S
O44 Cd45 2.300 . S
O44 C51 1.275 . S
Cd45 O44 2.300 . S
Cd45 O53 2.381 . S
Cd45 O54 2.378 . S
O46 Cd47 2.385 . S
O46 C51 1.255 . S
Cd47 O46 2.385 . S
Cd47 O48 2.317 . S
O48 Cd47 2.317 . S
O48 C49 1.232 . S
C49 O48 1.232 . S
C49 O50 1.218 . S
O50 C49 1.218 . S
C51 O44 1.275 . S
C51 O46 1.255 . S
C52 O53 1.258 . S
C52 O54 1.256 . S
O53 Cd45 2.381 . S
O53 C52 1.258 . S
O54 Cd45 2.378 . S
O54 C52 1.256 . S
O55 Cd56 2.300 . S
O55 C62 1.275 . S
Cd56 O55 2.300 . S
Cd56 O64 2.381 . S
Cd56 O65 2.378 . S
O57 Cd58 2.385 . S
O57 C62 1.255 . S
Cd58 O57 2.385 . S
Cd58 O59 2.317 . S
O59 Cd58 2.317 . S
O59 C60 1.232 . S
C60 O59 1.232 . S
C60 O61 1.218 . S
O61 C60 1.218 . S
C62 O55 1.275 . S
C62 O57 1.255 . S
C63 O64 1.258 . S
C63 O65 1.256 . S
O64 Cd56 2.381 . S
O64 C63 1.258 . S
O65 Cd56 2.378 . S
O65 C63 1.256 . S
O66 Cd67 2.300 . S
O66 C73 1.275 . S
Cd67 O66 2.300 . S
Cd67 O75 2.381 . S
Cd67 O76 2.378 . S
O68 Cd69 2.385 . S
O68 C73 1.255 . S
Cd69 O68 2.385 . S
Cd69 O70 2.317 . S
O70 Cd69 2.317 . S
O70 C71 1.232 . S
C71 O70 1.232 . S
C71 O72 1.218 . S
O72 C71 1.218 . S
C73 O66 1.275 . S
C73 O68 1.255 . S
C74 O75 1.258 . S
C74 O76 1.256 . S
O75 Cd67 2.381 . S
O75 C74 1.258 . S
O76 Cd67 2.378 . S
O76 C74 1.256 . S
O77 Cd78 2.300 . S
O77 C84 1.275 . S
Cd78 O77 2.300 . S
Cd78 O86 2.381 . S
Cd78 O87 2.378 . S
O79 Cd80 2.385 . S
O79 C84 1.255 . S
Cd80 O79 2.385 . S
Cd80 O81 2.317 . S
O81 Cd80 2.317 . S
O81 C82 1.232 . S
C82 O81 1.232 . S
C82 O83 1.218 . S
O83 C82 1.218 . S
C84 O77 1.275 . S
C84 O79 1.255 . S
C85 O86 1.258 . S
C85 O87 1.256 . S
O86 Cd78 2.381 . S
O86 C85 1.258 . S
O87 Cd78 2.378 . S
O87 C85 1.256 . S
H88 C115 0.929 . S
N89 C114 1.433 . S
N89 C120 1.435 . S
N89 C126 1.423 . S
H90 C116 0.930 . S
H91 C119 0.931 . S
H92 C118 0.929 . S
H93 C121 0.930 . S
H94 C122 0.932 . S
H95 C125 0.929 . S
H96 C124 0.931 . S
H97 C127 0.929 . S
H98 C131 0.932 . S
H99 C128 0.931 . S
H100 C130 0.929 . S
H101 C133 0.929 . S
H102 C134 0.930 . S
H103 C136 0.929 . S
H104 C137 0.931 . S
H105 C139 0.930 . S
H106 C140 0.932 . S
H107 C142 0.931 . S
H108 C143 0.929 . S
H109 C145 0.929 . S
H110 C146 0.931 . S
H111 C148 0.929 . S
N112 C132 1.433 . S
N112 C138 1.435 . S
N112 C144 1.423 . S
H113 C149 0.932 . S
C114 N89 1.433 . S
C114 C115 1.363 . S
C114 C119 1.370 . S
C115 H88 0.929 . S
C115 C114 1.363 . S
C115 C116 1.385 1_455 S
C116 H90 0.930 . S
C116 C115 1.385 1_655 S
C116 C117 1.357 . S
C117 C116 1.357 . S
C117 C118 1.406 . S
C118 H92 0.929 . S
C118 C117 1.406 . S
C118 C119 1.391 1_655 S
C119 H91 0.931 . S
C119 C114 1.370 . S
C119 C118 1.391 1_455 S
C120 N89 1.435 . S
C120 C121 1.358 . S
C120 C125 1.371 . S
C121 H93 0.930 . S
C121 C120 1.358 . S
C121 C122 1.405 . S
C122 H94 0.932 . S
C122 C121 1.405 . S
C122 C123 1.383 . S
C123 C122 1.383 . S
C123 C124 1.393 . S
C124 H96 0.931 . S
C124 C123 1.393 . S
C124 C125 1.382 . S
C125 H95 0.929 . S
C125 C120 1.371 . S
C125 C124 1.382 . S
C126 N89 1.423 . S
C126 C127 1.362 . S
C126 C131 1.388 . S
C127 H97 0.929 . S
C127 C126 1.362 . S
C127 C128 1.376 . S
C128 H99 0.931 . S
C128 C127 1.376 . S
C128 C129 1.396 . S
C129 C128 1.396 . S
C129 C130 1.348 . S
C129 C147 1.472 . S
C130 H100 0.929 . S
C130 C129 1.348 . S
C130 C131 1.443 . S
C131 H98 0.932 . S
C131 C126 1.388 . S
C131 C130 1.443 . S
C132 N112 1.433 . S
C132 C133 1.363 . S
C132 C137 1.370 . S
C133 H101 0.929 . S
C133 C132 1.363 . S
C133 C134 1.385 1_455 S
C134 H102 0.930 . S
C134 C133 1.385 1_655 S
C134 C135 1.357 . S
C135 C134 1.357 . S
C135 C136 1.406 . S
C136 H103 0.929 . S
C136 C135 1.406 . S
C136 C137 1.391 1_655 S
C137 H104 0.931 . S
C137 C132 1.370 . S
C137 C136 1.391 1_455 S
C138 N112 1.435 . S
C138 C139 1.358 . S
C138 C143 1.371 . S
C139 H105 0.930 . S
C139 C138 1.358 . S
C139 C140 1.405 . S
C140 H106 0.932 . S
C140 C139 1.405 . S
C140 C141 1.383 . S
C141 C140 1.383 . S
C141 C142 1.393 . S
C142 H107 0.931 . S
C142 C141 1.393 . S
C142 C143 1.382 . S
C143 H108 0.929 . S
C143 C138 1.371 . S
C143 C142 1.382 . S
C144 N112 1.423 . S
C144 C145 1.362 . S
C144 C149 1.388 . S
C145 H109 0.929 . S
C145 C144 1.362 . S
C145 C146 1.376 . S
C146 H110 0.931 . S
C146 C145 1.376 . S
C146 C147 1.396 . S
C147 C129 1.472 . S
C147 C146 1.396 . S
C147 C148 1.348 . S
C148 H111 0.929 . S
C148 C147 1.348 . S
C148 C149 1.443 . S
C149 H113 0.932 . S
C149 C144 1.388 . S
C149 C148 1.443 . S
H150 C177 0.929 . S
N151 C176 1.433 1_455 S
N151 C182 1.435 . S
N151 C188 1.423 . S
H152 C178 0.930 . S
H153 C181 0.931 . S
H154 C180 0.929 . S
H155 C183 0.930 . S
H156 C184 0.932 . S
H157 C187 0.929 . S
H158 C186 0.931 . S
H159 C189 0.929 . S
H160 C193 0.932 . S
H161 C190 0.931 . S
H162 C192 0.929 . S
H163 C195 0.929 . S
H164 C196 0.930 . S
H165 C198 0.929 . S
H166 C199 0.931 . S
H167 C201 0.930 . S
H168 C202 0.932 . S
H169 C204 0.931 . S
H170 C205 0.929 . S
H171 C207 0.929 . S
H172 C208 0.931 . S
H173 C210 0.929 . S
N174 C194 1.433 1_455 S
N174 C200 1.435 . S
N174 C206 1.423 . S
H175 C211 0.932 . S
C176 N151 1.433 1_655 S
C176 C177 1.363 . S
C176 C181 1.370 . S
C177 H150 0.929 . S
C177 C176 1.363 . S
C177 C178 1.385 . S
C178 H152 0.930 . S
C178 C177 1.385 . S
C178 C179 1.357 . S
C179 C178 1.357 . S
C179 C180 1.406 . S
C180 H154 0.929 . S
C180 C179 1.406 . S
C180 C181 1.391 . S
C181 H153 0.931 . S
C181 C176 1.370 . S
C181 C180 1.391 . S
C182 N151 1.435 . S
C182 C183 1.358 . S
C182 C187 1.371 . S
C183 H155 0.930 . S
C183 C182 1.358 . S
C183 C184 1.405 . S
C184 H156 0.932 . S
C184 C183 1.405 . S
C184 C185 1.383 . S
C185 C184 1.383 . S
C185 C186 1.393 . S
C186 H158 0.931 . S
C186 C185 1.393 . S
C186 C187 1.382 . S
C187 H157 0.929 . S
C187 C182 1.371 . S
C187 C186 1.382 . S
C188 N151 1.423 . S
C188 C189 1.362 1_455 S
C188 C193 1.388 . S
C189 H159 0.929 . S
C189 C188 1.362 1_655 S
C189 C190 1.376 . S
C190 H161 0.931 . S
C190 C189 1.376 . S
C190 C191 1.396 1_655 S
C191 C190 1.396 1_455 S
C191 C192 1.348 . S
C191 C209 1.472 . S
C192 H162 0.929 . S
C192 C191 1.348 . S
C192 C193 1.443 . S
C193 H160 0.932 . S
C193 C188 1.388 . S
C193 C192 1.443 . S
C194 N174 1.433 1_655 S
C194 C195 1.363 . S
C194 C199 1.370 . S
C195 H163 0.929 . S
C195 C194 1.363 . S
C195 C196 1.385 . S
C196 H164 0.930 . S
C196 C195 1.385 . S
C196 C197 1.357 . S
C197 C196 1.357 . S
C197 C198 1.406 . S
C198 H165 0.929 . S
C198 C197 1.406 . S
C198 C199 1.391 . S
C199 H166 0.931 . S
C199 C194 1.370 . S
C199 C198 1.391 . S
C200 N174 1.435 . S
C200 C201 1.358 . S
C200 C205 1.371 . S
C201 H167 0.930 . S
C201 C200 1.358 . S
C201 C202 1.405 . S
C202 H168 0.932 . S
C202 C201 1.405 . S
C202 C203 1.383 . S
C203 C202 1.383 . S
C203 C204 1.393 . S
C204 H169 0.931 . S
C204 C203 1.393 . S
C204 C205 1.382 . S
C205 H170 0.929 . S
C205 C200 1.371 . S
C205 C204 1.382 . S
C206 N174 1.423 . S
C206 C207 1.362 1_455 S
C206 C211 1.388 . S
C207 H171 0.929 . S
C207 C206 1.362 1_655 S
C207 C208 1.376 . S
C208 H172 0.931 . S
C208 C207 1.376 . S
C208 C209 1.396 1_655 S
C209 C191 1.472 . S
C209 C208 1.396 1_455 S
C209 C210 1.348 . S
C210 H173 0.929 . S
C210 C209 1.348 . S
C210 C211 1.443 . S
C211 H175 0.932 . S
C211 C206 1.388 . S
C211 C210 1.443 . S
H212 C239 0.929 . S
N213 C238 1.433 . S
N213 C244 1.435 . S
N213 C250 1.423 . S
H214 C240 0.930 . S
H215 C243 0.931 . S
H216 C242 0.929 . S
H217 C245 0.930 . S
H218 C246 0.932 . S
H219 C249 0.929 . S
H220 C248 0.931 . S
H221 C251 0.929 . S
H222 C255 0.932 . S
H223 C252 0.931 . S
H224 C254 0.929 . S
H225 C257 0.929 . S
H226 C258 0.930 . S
H227 C260 0.929 . S
H228 C261 0.931 . S
H229 C263 0.930 . S
H230 C264 0.932 . S
H231 C266 0.931 . S
H232 C267 0.929 . S
H233 C269 0.929 . S
H234 C270 0.931 . S
H235 C272 0.929 . S
N236 C256 1.433 . S
N236 C262 1.435 . S
N236 C268 1.423 . S
H237 C273 0.932 . S
C238 N213 1.433 . S
C238 C239 1.363 . S
C238 C243 1.370 . S
C239 H212 0.929 . S
C239 C238 1.363 . S
C239 C240 1.385 . S
C240 H214 0.930 . S
C240 C239 1.385 . S
C240 C241 1.357 . S
C241 C240 1.357 . S
C241 C242 1.406 . S
C242 H216 0.929 . S
C242 C241 1.406 . S
C242 C243 1.391 . S
C243 H215 0.931 . S
C243 C238 1.370 . S
C243 C242 1.391 . S
C244 N213 1.435 . S
C244 C245 1.358 . S
C244 C249 1.371 . S
C245 H217 0.930 . S
C245 C244 1.358 . S
C245 C246 1.405 . S
C246 H218 0.932 . S
C246 C245 1.405 . S
C246 C247 1.383 . S
C247 C246 1.383 . S
C247 C248 1.393 . S
C248 H220 0.931 . S
C248 C247 1.393 . S
C248 C249 1.382 . S
C249 H219 0.929 . S
C249 C244 1.371 . S
C249 C248 1.382 . S
C250 N213 1.423 . S
C250 C251 1.362 . S
C250 C255 1.388 . S
C251 H221 0.929 . S
C251 C250 1.362 . S
C251 C252 1.376 . S
C252 H223 0.931 . S
C252 C251 1.376 . S
C252 C253 1.396 . S
C253 C252 1.396 . S
C253 C254 1.348 . S
C253 C271 1.472 . S
C254 H224 0.929 . S
C254 C253 1.348 . S
C254 C255 1.443 . S
C255 H222 0.932 . S
C255 C250 1.388 . S
C255 C254 1.443 . S
C256 N236 1.433 . S
C256 C257 1.363 . S
C256 C261 1.370 . S
C257 H225 0.929 . S
C257 C256 1.363 . S
C257 C258 1.385 . S
C258 H226 0.930 . S
C258 C257 1.385 . S
C258 C259 1.357 . S
C259 C258 1.357 . S
C259 C260 1.406 . S
C260 H227 0.929 . S
C260 C259 1.406 . S
C260 C261 1.391 . S
C261 H228 0.931 . S
C261 C256 1.370 . S
C261 C260 1.391 . S
C262 N236 1.435 . S
C262 C263 1.358 . S
C262 C267 1.371 . S
C263 H229 0.930 . S
C263 C262 1.358 . S
C263 C264 1.405 . S
C264 H230 0.932 . S
C264 C263 1.405 . S
C264 C265 1.383 . S
C265 C264 1.383 . S
C265 C266 1.393 . S
C266 H231 0.931 . S
C266 C265 1.393 . S
C266 C267 1.382 . S
C267 H232 0.929 . S
C267 C262 1.371 . S
C267 C266 1.382 . S
C268 N236 1.423 . S
C268 C269 1.362 . S
C268 C273 1.388 . S
C269 H233 0.929 . S
C269 C268 1.362 . S
C269 C270 1.376 . S
C270 H234 0.931 . S
C270 C269 1.376 . S
C270 C271 1.396 . S
C271 C253 1.472 . S
C271 C270 1.396 . S
C271 C272 1.348 . S
C272 H235 0.929 . S
C272 C271 1.348 . S
C272 C273 1.443 . S
C273 H237 0.932 . S
C273 C268 1.388 . S
C273 C272 1.443 . S
H274 C301 0.929 . S
N275 C300 1.433 . S
N275 C306 1.435 . S
N275 C312 1.423 . S
H276 C302 0.930 . S
H277 C305 0.931 . S
H278 C304 0.929 . S
H279 C307 0.930 . S
H280 C308 0.932 . S
H281 C311 0.929 . S
H282 C310 0.931 . S
H283 C313 0.929 . S
H284 C317 0.932 . S
H285 C314 0.931 . S
H286 C316 0.929 . S
H287 C319 0.929 . S
H288 C320 0.930 . S
H289 C322 0.929 . S
H290 C323 0.931 . S
H291 C325 0.930 . S
H292 C326 0.932 . S
H293 C328 0.931 . S
H294 C329 0.929 . S
H295 C331 0.929 . S
H296 C332 0.931 . S
H297 C334 0.942 . S
N298 C318 1.433 . S
N298 C324 1.435 . S
N298 C330 1.423 . S
H299 C335 0.932 . S
C300 N275 1.433 . S
C300 C301 1.363 . S
C300 C305 1.370 . S
C301 H274 0.929 . S
C301 C300 1.363 . S
C301 C302 1.385 . S
C302 H276 0.930 . S
C302 C301 1.385 . S
C302 C303 1.357 . S
C303 C302 1.357 . S
C303 C304 1.406 . S
C304 H278 0.929 . S
C304 C303 1.406 . S
C304 C305 1.391 . S
C305 H277 0.931 . S
C305 C300 1.370 . S
C305 C304 1.391 . S
C306 N275 1.435 . S
C306 C307 1.358 . S
C306 C311 1.371 . S
C307 H279 0.930 . S
C307 C306 1.358 . S
C307 C308 1.405 . S
C308 H280 0.932 . S
C308 C307 1.405 . S
C308 C309 1.383 . S
C309 C308 1.383 . S
C309 C310 1.393 . S
C310 H282 0.931 . S
C310 C309 1.393 . S
C310 C311 1.382 . S
C311 H281 0.929 . S
C311 C306 1.371 . S
C311 C310 1.382 . S
C312 N275 1.423 . S
C312 C313 1.362 . S
C312 C317 1.388 . S
C313 H283 0.929 . S
C313 C312 1.362 . S
C313 C314 1.376 . S
C314 H285 0.931 . S
C314 C313 1.376 . S
C314 C315 1.396 . S
C315 C314 1.396 . S
C315 C316 1.348 . S
C315 C333 1.494 . S
C316 H286 0.929 . S
C316 C315 1.348 . S
C316 C317 1.443 . S
C317 H284 0.932 . S
C317 C312 1.388 . S
C317 C316 1.443 . S
C318 N298 1.433 . S
C318 C319 1.363 . S
C318 C323 1.370 . S
C319 H287 0.929 . S
C319 C318 1.363 . S
C319 C320 1.385 . S
C320 H288 0.930 . S
C320 C319 1.385 . S
C320 C321 1.357 . S
C321 C320 1.357 . S
C321 C322 1.406 . S
C322 H289 0.929 . S
C322 C321 1.406 . S
C322 C323 1.391 . S
C323 H290 0.931 . S
C323 C318 1.370 . S
C323 C322 1.391 . S
C324 N298 1.435 . S
C324 C325 1.358 . S
C324 C329 1.371 . S
C325 H291 0.930 . S
C325 C324 1.358 . S
C325 C326 1.405 . S
C326 H292 0.932 . S
C326 C325 1.405 . S
C326 C327 1.383 . S
C327 C326 1.383 . S
C327 C328 1.393 . S
C328 H293 0.931 . S
C328 C327 1.393 . S
C328 C329 1.382 . S
C329 H294 0.929 . S
C329 C324 1.371 . S
C329 C328 1.382 . S
C330 N298 1.423 . S
C330 C331 1.362 . S
C330 C335 1.388 . S
C331 H295 0.929 . S
C331 C330 1.362 . S
C331 C332 1.376 . S
C332 H296 0.931 . S
C332 C331 1.376 . S
C332 C333 1.383 1_556 S
C333 C315 1.494 . S
C333 C332 1.383 1_554 S
C333 C334 1.337 1_554 S
C334 H297 0.942 . S
C334 C333 1.337 1_556 S
C334 C335 1.443 . S
C335 H299 0.932 . S
C335 C330 1.388 . S
C335 C334 1.443 . S
H336 C363 0.929 . S
N337 C362 1.433 . S
N337 C368 1.435 . S
N337 C374 1.423 . S
H338 C364 0.930 . S
H339 C367 0.931 . S
H340 C366 0.929 . S
H341 C369 0.930 . S
H342 C370 0.932 . S
H343 C373 0.929 . S
H344 C372 0.931 . S
H345 C375 0.929 . S
H346 C379 0.932 . S
H347 C376 0.931 . S
H348 C378 0.929 . S
H349 C381 0.929 . S
H350 C382 0.930 . S
H351 C384 0.929 . S
H352 C385 0.931 . S
H353 C387 0.930 . S
H354 C388 0.932 . S
H355 C390 0.931 . S
H356 C391 0.929 . S
H357 C393 0.929 . S
H358 C394 0.931 . S
H359 C396 0.929 1_545 S
N360 C380 1.433 . S
N360 C386 1.435 . S
N360 C392 1.423 . S
H361 C397 0.932 . S
C362 N337 1.433 . S
C362 C363 1.363 . S
C362 C367 1.370 . S
C363 H336 0.929 . S
C363 C362 1.363 . S
C363 C364 1.385 . S
C364 H338 0.930 . S
C364 C363 1.385 . S
C364 C365 1.357 . S
C365 C364 1.357 . S
C365 C366 1.406 . S
C366 H340 0.929 . S
C366 C365 1.406 . S
C366 C367 1.391 . S
C367 H339 0.931 . S
C367 C362 1.370 . S
C367 C366 1.391 . S
C368 N337 1.435 . S
C368 C369 1.358 . S
C368 C373 1.371 . S
C369 H341 0.930 . S
C369 C368 1.358 . S
C369 C370 1.405 . S
C370 H342 0.932 . S
C370 C369 1.405 . S
C370 C371 1.383 . S
C371 C370 1.383 . S
C371 C372 1.393 . S
C372 H344 0.931 . S
C372 C371 1.393 . S
C372 C373 1.382 . S
C373 H343 0.929 . S
C373 C368 1.371 . S
C373 C372 1.382 . S
C374 N337 1.423 . S
C374 C375 1.362 . S
C374 C379 1.388 . S
C375 H345 0.929 . S
C375 C374 1.362 . S
C375 C376 1.376 . S
C376 H347 0.931 . S
C376 C375 1.376 . S
C376 C377 1.396 . S
C377 C376 1.396 . S
C377 C378 1.348 . S
C377 C395 1.472 . S
C378 H348 0.929 . S
C378 C377 1.348 . S
C378 C379 1.443 . S
C379 H346 0.932 . S
C379 C374 1.388 . S
C379 C378 1.443 . S
C380 N360 1.433 . S
C380 C381 1.363 . S
C380 C385 1.370 . S
C381 H349 0.929 . S
C381 C380 1.363 . S
C381 C382 1.385 . S
C382 H350 0.930 . S
C382 C381 1.385 . S
C382 C383 1.357 . S
C383 C382 1.357 . S
C383 C384 1.406 . S
C384 H351 0.929 . S
C384 C383 1.406 . S
C384 C385 1.391 . S
C385 H352 0.931 . S
C385 C380 1.370 . S
C385 C384 1.391 . S
C386 N360 1.435 . S
C386 C387 1.358 . S
C386 C391 1.371 . S
C387 H353 0.930 . S
C387 C386 1.358 . S
C387 C388 1.405 . S
C388 H354 0.932 . S
C388 C387 1.405 . S
C388 C389 1.383 . S
C389 C388 1.383 . S
C389 C390 1.393 . S
C390 H355 0.931 . S
C390 C389 1.393 . S
C390 C391 1.382 . S
C391 H356 0.929 . S
C391 C386 1.371 . S
C391 C390 1.382 . S
C392 N360 1.423 . S
C392 C393 1.362 . S
C392 C397 1.388 . S
C393 H357 0.929 . S
C393 C392 1.362 . S
C393 C394 1.376 . S
C394 H358 0.931 . S
C394 C393 1.376 . S
C394 C395 1.396 1_565 S
C395 C377 1.472 . S
C395 C394 1.396 1_545 S
C395 C396 1.348 1_545 S
C396 H359 0.929 1_565 S
C396 C395 1.348 1_565 S
C396 C397 1.443 . S
C397 H361 0.932 . S
C397 C392 1.388 . S
C397 C396 1.443 . S
H398 C425 0.929 . S
N399 C424 1.433 . S
N399 C430 1.435 . S
N399 C436 1.423 . S
H400 C426 0.930 . S
H401 C429 0.931 . S
H402 C428 0.929 . S
H403 C431 0.930 . S
H404 C432 0.932 . S
H405 C435 0.929 . S
H406 C434 0.931 . S
H407 C437 0.929 . S
H408 C441 0.932 . S
H409 C438 0.931 . S
H410 C440 0.929 . S
H411 C443 0.929 . S
H412 C444 0.930 . S
H413 C446 0.929 . S
H414 C447 0.931 . S
H415 C449 0.930 . S
H416 C450 0.932 . S
H417 C452 0.931 . S
H418 C453 0.929 . S
H419 C455 0.929 . S
H420 C456 0.931 . S
H421 C458 0.961 . S
N422 C442 1.433 . S
N422 C448 1.435 . S
N422 C454 1.423 . S
H423 C459 0.932 . S
C424 N399 1.433 . S
C424 C425 1.363 . S
C424 C429 1.370 . S
C425 H398 0.929 . S
C425 C424 1.363 . S
C425 C426 1.385 . S
C426 H400 0.930 . S
C426 C425 1.385 . S
C426 C427 1.357 . S
C427 C426 1.357 . S
C427 C428 1.406 . S
C428 H402 0.929 . S
C428 C427 1.406 . S
C428 C429 1.391 . S
C429 H401 0.931 . S
C429 C424 1.370 . S
C429 C428 1.391 . S
C430 N399 1.435 . S
C430 C431 1.358 . S
C430 C435 1.371 . S
C431 H403 0.930 . S
C431 C430 1.358 . S
C431 C432 1.405 . S
C432 H404 0.932 . S
C432 C431 1.405 . S
C432 C433 1.383 . S
C433 C432 1.383 . S
C433 C434 1.393 . S
C434 H406 0.931 . S
C434 C433 1.393 . S
C434 C435 1.382 . S
C435 H405 0.929 . S
C435 C430 1.371 . S
C435 C434 1.382 . S
C436 N399 1.423 . S
C436 C437 1.362 . S
C436 C441 1.388 . S
C437 H407 0.929 . S
C437 C436 1.362 . S
C437 C438 1.376 . S
C438 H409 0.931 . S
C438 C437 1.376 . S
C438 C439 1.396 . S
C439 C438 1.396 . S
C439 C440 1.348 . S
C439 C457 1.502 . S
C440 H410 0.929 . S
C440 C439 1.348 . S
C440 C441 1.443 . S
C441 H408 0.932 . S
C441 C436 1.388 . S
C441 C440 1.443 . S
C442 N422 1.433 . S
C442 C443 1.363 . S
C442 C447 1.370 . S
C443 H411 0.929 . S
C443 C442 1.363 . S
C443 C444 1.385 . S
C444 H412 0.930 . S
C444 C443 1.385 . S
C444 C445 1.357 . S
C445 C444 1.357 . S
C445 C446 1.406 . S
C446 H413 0.929 . S
C446 C445 1.406 . S
C446 C447 1.391 . S
C447 H414 0.931 . S
C447 C442 1.370 . S
C447 C446 1.391 . S
C448 N422 1.435 . S
C448 C449 1.358 . S
C448 C453 1.371 . S
C449 H415 0.930 . S
C449 C448 1.358 . S
C449 C450 1.405 . S
C450 H416 0.932 . S
C450 C449 1.405 . S
C450 C451 1.383 . S
C451 C450 1.383 . S
C451 C452 1.393 . S
C452 H417 0.931 . S
C452 C451 1.393 . S
C452 C453 1.382 . S
C453 H418 0.929 . S
C453 C448 1.371 . S
C453 C452 1.382 . S
C454 N422 1.423 . S
C454 C455 1.362 . S
C454 C459 1.388 . S
C455 H419 0.929 . S
C455 C454 1.362 . S
C455 C456 1.376 . S
C456 H420 0.931 . S
C456 C455 1.376 . S
C456 C457 1.379 1_556 S
C457 C439 1.502 . S
C457 C456 1.379 1_554 S
C457 C458 1.333 1_554 S
C458 H421 0.961 . S
C458 C457 1.333 1_556 S
C458 C459 1.443 . S
C459 H423 0.932 . S
C459 C454 1.388 . S
C459 C458 1.443 . S
H460 C468 0.929 . S
H461 C470 0.930 . S
H462 C472 0.930 . S
H463 C475 0.929 . S
H464 C478 0.930 . S
H465 C480 0.960 . S
H466 C480 0.960 . S
H467 C480 0.960 . S
C468 H460 0.929 . S
C468 C469 1.377 . S
C468 C470 1.384 . S
C469 C468 1.377 . S
C469 C475 1.390 . S
C470 H461 0.930 . S
C470 C468 1.384 . S
C470 C471 1.372 . S
C471 C470 1.372 . S
C471 C472 1.400 . S
C471 C476 1.490 . S
C472 H462 0.930 . S
C472 C471 1.400 . S
C472 C475 1.386 . S
H473 C489 0.930 . S
H474 C490 0.931 . S
C475 H463 0.929 . S
C475 C469 1.390 . S
C475 C472 1.386 . S
C476 C471 1.490 . S
C476 C478 1.395 . S
C476 C479 1.403 . S
H477 C483 0.930 . S
C478 H464 0.930 . S
C478 C476 1.395 . S
C478 C481 1.403 . S
C479 C476 1.403 . S
C479 C480 1.524 . S
C479 C483 1.400 . S
C480 H465 0.960 . S
C480 H466 0.960 . S
C480 H467 0.960 . S
C480 C479 1.524 . S
C481 C478 1.403 . S
C481 C482 1.392 . S
C481 C485 1.495 . S
C482 C481 1.392 . S
C482 C483 1.385 . S
C482 C484 1.478 . S
C483 H477 0.930 . S
C483 C479 1.400 . S
C483 C482 1.385 . S
C484 C482 1.478 . S
C484 C486 1.381 . S
C484 C490 1.383 . S
C485 C481 1.495 . S
C485 H491 0.959 . S
C485 H492 0.961 . S
C485 H493 0.960 . S
C486 C484 1.381 . S
C486 C487 1.394 . S
C486 H494 0.930 . S
C487 C486 1.394 . S
C487 C488 1.383 . S
C487 H495 0.929 . S
C488 C487 1.383 . S
C488 C489 1.377 . S
C489 H473 0.930 . S
C489 C488 1.377 . S
C489 C490 1.379 . S
C490 H474 0.931 . S
C490 C484 1.383 . S
C490 C489 1.379 . S
H491 C485 0.959 . S
H492 C485 0.961 . S
H493 C485 0.960 . S
H494 C486 0.930 . S
H495 C487 0.929 . S
H496 C504 0.929 . S
H497 C506 0.930 . S
H498 C508 0.930 . S
H499 C511 0.929 . S
H500 C514 0.930 . S
H501 C516 0.960 . S
H502 C516 0.960 . S
H503 C516 0.960 . S
C504 H496 0.929 . S
C504 C505 1.377 . S
C504 C506 1.384 . S
C505 C504 1.377 . S
C505 C511 1.390 . S
C506 H497 0.930 . S
C506 C504 1.384 . S
C506 C507 1.372 . S
C507 C506 1.372 . S
C507 C508 1.400 . S
C507 C512 1.490 . S
C508 H498 0.930 . S
C508 C507 1.400 . S
C508 C511 1.386 . S
H509 C525 0.930 . S
H510 C526 0.931 . S
C511 H499 0.929 . S
C511 C505 1.390 . S
C511 C508 1.386 . S
C512 C507 1.490 . S
C512 C514 1.395 . S
C512 C515 1.403 . S
H513 C519 0.930 . S
C514 H500 0.930 . S
C514 C512 1.395 . S
C514 C517 1.403 . S
C515 C512 1.403 . S
C515 C516 1.524 . S
C515 C519 1.400 . S
C516 H501 0.960 . S
C516 H502 0.960 . S
C516 H503 0.960 . S
C516 C515 1.524 . S
C517 C514 1.403 . S
C517 C518 1.392 . S
C517 C521 1.495 . S
C518 C517 1.392 . S
C518 C519 1.385 . S
C518 C520 1.478 . S
C519 H513 0.930 . S
C519 C515 1.400 . S
C519 C518 1.385 . S
C520 C518 1.478 . S
C520 C522 1.381 . S
C520 C526 1.383 . S
C521 C517 1.495 . S
C521 H527 0.959 . S
C521 H528 0.961 . S
C521 H529 0.960 . S
C522 C520 1.381 . S
C522 C523 1.394 . S
C522 H530 0.930 . S
C523 C522 1.394 . S
C523 C524 1.383 . S
C523 H531 0.929 . S
C524 C523 1.383 . S
C524 C525 1.377 . S
C525 H509 0.930 . S
C525 C524 1.377 . S
C525 C526 1.379 . S
C526 H510 0.931 . S
C526 C520 1.383 . S
C526 C525 1.379 . S
H527 C521 0.959 . S
H528 C521 0.961 . S
H529 C521 0.960 . S
H530 C522 0.930 . S
H531 C523 0.929 . S
H532 C540 0.929 . S
H533 C542 0.930 . S
H534 C544 0.930 . S
H535 C547 0.929 . S
H536 C550 0.930 . S
H537 C552 0.960 . S
H538 C552 0.960 . S
H539 C552 0.960 . S
C540 H532 0.929 . S
C540 C541 1.377 . S
C540 C542 1.384 . S
C541 C540 1.377 . S
C541 C547 1.390 . S
C542 H533 0.930 . S
C542 C540 1.384 . S
C542 C543 1.372 . S
C543 C542 1.372 . S
C543 C544 1.400 . S
C543 C548 1.490 . S
C544 H534 0.930 . S
C544 C543 1.400 . S
C544 C547 1.386 . S
H545 C561 0.930 . S
H546 C562 0.931 . S
C547 H535 0.929 . S
C547 C541 1.390 . S
C547 C544 1.386 . S
C548 C543 1.490 . S
C548 C550 1.395 . S
C548 C551 1.403 . S
H549 C555 0.930 . S
C550 H536 0.930 . S
C550 C548 1.395 . S
C550 C553 1.403 . S
C551 C548 1.403 . S
C551 C552 1.524 . S
C551 C555 1.400 . S
C552 H537 0.960 . S
C552 H538 0.960 . S
C552 H539 0.960 . S
C552 C551 1.524 . S
C553 C550 1.403 . S
C553 C554 1.392 . S
C553 C557 1.495 . S
C554 C553 1.392 . S
C554 C555 1.385 . S
C554 C556 1.478 . S
C555 H549 0.930 . S
C555 C551 1.400 . S
C555 C554 1.385 . S
C556 C554 1.478 . S
C556 C558 1.381 . S
C556 C562 1.383 . S
C557 C553 1.495 . S
C557 H563 0.959 . S
C557 H564 0.961 . S
C557 H565 0.960 . S
C558 C556 1.381 . S
C558 C559 1.394 . S
C558 H566 0.930 . S
C559 C558 1.394 . S
C559 C560 1.383 . S
C559 H567 0.929 . S
C560 C559 1.383 . S
C560 C561 1.377 . S
C561 H545 0.930 . S
C561 C560 1.377 . S
C561 C562 1.379 . S
C562 H546 0.931 . S
C562 C556 1.383 . S
C562 C561 1.379 . S
H563 C557 0.959 . S
H564 C557 0.961 . S
H565 C557 0.960 . S
H566 C558 0.930 . S
H567 C559 0.929 . S
H568 C576 0.929 . S
H569 C578 0.930 . S
H570 C580 0.930 . S
H571 C583 0.929 . S
H572 C586 0.930 . S
H573 C588 0.960 . S
H574 C588 0.960 . S
H575 C588 0.960 . S
C576 H568 0.929 . S
C576 C577 1.377 . S
C576 C578 1.384 . S
C577 C576 1.377 . S
C577 C583 1.390 . S
C578 H569 0.930 . S
C578 C576 1.384 . S
C578 C579 1.372 . S
C579 C578 1.372 . S
C579 C580 1.400 . S
C579 C584 1.490 . S
C580 H570 0.930 . S
C580 C579 1.400 . S
C580 C583 1.386 . S
H581 C597 0.930 . S
H582 C598 0.931 . S
C583 H571 0.929 . S
C583 C577 1.390 . S
C583 C580 1.386 . S
C584 C579 1.490 . S
C584 C586 1.395 . S
C584 C587 1.403 . S
H585 C591 0.930 . S
C586 H572 0.930 . S
C586 C584 1.395 . S
C586 C589 1.403 . S
C587 C584 1.403 . S
C587 C588 1.524 . S
C587 C591 1.400 . S
C588 H573 0.960 . S
C588 H574 0.960 . S
C588 H575 0.960 . S
C588 C587 1.524 . S
C589 C586 1.403 . S
C589 C590 1.392 . S
C589 C593 1.495 . S
C590 C589 1.392 . S
C590 C591 1.385 . S
C590 C592 1.478 . S
C591 H585 0.930 . S
C591 C587 1.400 . S
C591 C590 1.385 . S
C592 C590 1.478 . S
C592 C594 1.381 . S
C592 C598 1.383 . S
C593 C589 1.495 . S
C593 H599 0.959 . S
C593 H600 0.961 . S
C593 H601 0.960 . S
C594 C592 1.381 . S
C594 C595 1.394 . S
C594 H602 0.930 . S
C595 C594 1.394 . S
C595 C596 1.383 . S
C595 H603 0.929 . S
C596 C595 1.383 . S
C596 C597 1.377 . S
C597 H581 0.930 . S
C597 C596 1.377 . S
C597 C598 1.379 . S
C598 H582 0.931 . S
C598 C592 1.383 . S
C598 C597 1.379 . S
H599 C593 0.959 . S
H600 C593 0.961 . S
H601 C593 0.960 . S
H602 C594 0.930 . S
H603 C595 0.929 . S
H604 C612 0.929 . S
H605 C614 0.930 . S
H606 C616 0.930 . S
H607 C619 0.929 . S
H608 C622 0.930 . S
H609 C624 0.960 . S
H610 C624 0.960 . S
H611 C624 0.960 . S
C612 H604 0.929 . S
C612 C613 1.377 . S
C612 C614 1.384 . S
C613 C612 1.377 . S
C613 C619 1.390 . S
C614 H605 0.930 . S
C614 C612 1.384 . S
C614 C615 1.372 . S
C615 C614 1.372 . S
C615 C616 1.400 . S
C615 C620 1.490 . S
C616 H606 0.930 . S
C616 C615 1.400 . S
C616 C619 1.386 . S
H617 C633 0.930 . S
H618 C634 0.931 . S
C619 H607 0.929 . S
C619 C613 1.390 . S
C619 C616 1.386 . S
C620 C615 1.490 . S
C620 C622 1.395 . S
C620 C623 1.403 . S
H621 C627 0.930 . S
C622 H608 0.930 . S
C622 C620 1.395 . S
C622 C625 1.403 . S
C623 C620 1.403 . S
C623 C624 1.524 . S
C623 C627 1.400 . S
C624 H609 0.960 . S
C624 H610 0.960 . S
C624 H611 0.960 . S
C624 C623 1.524 . S
C625 C622 1.403 . S
C625 C626 1.392 . S
C625 C629 1.495 . S
C626 C625 1.392 . S
C626 C627 1.385 . S
C626 C628 1.478 . S
C627 H621 0.930 . S
C627 C623 1.400 . S
C627 C626 1.385 . S
C628 C626 1.478 . S
C628 C630 1.381 . S
C628 C634 1.383 . S
C629 C625 1.495 . S
C629 H635 0.959 . S
C629 H636 0.961 . S
C629 H637 0.960 . S
C630 C628 1.381 . S
C630 C631 1.394 . S
C630 H638 0.930 . S
C631 C630 1.394 . S
C631 C632 1.383 . S
C631 H639 0.929 . S
C632 C631 1.383 . S
C632 C633 1.377 . S
C633 H617 0.930 . S
C633 C632 1.377 . S
C633 C634 1.379 . S
C634 H618 0.931 . S
C634 C628 1.383 . S
C634 C633 1.379 . S
H635 C629 0.959 . S
H636 C629 0.961 . S
H637 C629 0.960 . S
H638 C630 0.930 . S
H639 C631 0.929 . S
H640 C648 0.929 . S
H641 C650 0.930 . S
H642 C652 0.930 . S
H643 C655 0.929 . S
H644 C658 0.930 . S
H645 C660 0.960 . S
H646 C660 0.960 . S
H647 C660 0.960 . S
C648 H640 0.929 . S
C648 C649 1.377 . S
C648 C650 1.384 . S
C649 C648 1.377 . S
C649 C655 1.390 . S
C650 H641 0.930 . S
C650 C648 1.384 . S
C650 C651 1.372 . S
C651 C650 1.372 . S
C651 C652 1.400 . S
C651 C656 1.490 . S
C652 H642 0.930 . S
C652 C651 1.400 . S
C652 C655 1.386 . S
H653 C669 0.930 . S
H654 C670 0.931 . S
C655 H643 0.929 . S
C655 C649 1.390 . S
C655 C652 1.386 . S
C656 C651 1.490 . S
C656 C658 1.395 . S
C656 C659 1.403 . S
H657 C663 0.930 . S
C658 H644 0.930 . S
C658 C656 1.395 . S
C658 C661 1.403 . S
C659 C656 1.403 . S
C659 C660 1.524 . S
C659 C663 1.400 . S
C660 H645 0.960 . S
C660 H646 0.960 . S
C660 H647 0.960 . S
C660 C659 1.524 . S
C661 C658 1.403 . S
C661 C662 1.392 . S
C661 C665 1.495 . S
C662 C661 1.392 . S
C662 C663 1.385 . S
C662 C664 1.478 . S
C663 H657 0.930 . S
C663 C659 1.400 . S
C663 C662 1.385 . S
C664 C662 1.478 . S
C664 C666 1.381 . S
C664 C670 1.383 . S
C665 C661 1.495 . S
C665 H671 0.959 . S
C665 H672 0.961 . S
C665 H673 0.960 . S
C666 C664 1.381 . S
C666 C667 1.394 . S
C666 H674 0.930 . S
C667 C666 1.394 . S
C667 C668 1.383 . S
C667 H675 0.929 . S
C668 C667 1.383 . S
C668 C669 1.377 . S
C669 H653 0.930 . S
C669 C668 1.377 . S
C669 C670 1.379 . S
C670 H654 0.931 . S
C670 C664 1.383 . S
C670 C669 1.379 . S
H671 C665 0.959 . S
H672 C665 0.961 . S
H673 C665 0.960 . S
H674 C666 0.930 . S
H675 C667 0.929 . S
H676 C684 0.929 . S
H677 C686 0.930 . S
H678 C688 0.930 . S
H679 C691 0.929 . S
H680 C694 0.930 . S
H681 C696 0.960 . S
H682 C696 0.960 . S
H683 C696 0.960 . S
C684 H676 0.929 . S
C684 C685 1.377 . S
C684 C686 1.384 . S
C685 C684 1.377 . S
C685 C691 1.390 . S
C686 H677 0.930 . S
C686 C684 1.384 . S
C686 C687 1.372 . S
C687 C686 1.372 . S
C687 C688 1.400 . S
C687 C692 1.490 . S
C688 H678 0.930 . S
C688 C687 1.400 . S
C688 C691 1.386 . S
H689 C705 0.930 . S
H690 C706 0.931 . S
C691 H679 0.929 . S
C691 C685 1.390 . S
C691 C688 1.386 . S
C692 C687 1.490 . S
C692 C694 1.395 . S
C692 C695 1.403 . S
H693 C699 0.930 . S
C694 H680 0.930 . S
C694 C692 1.395 . S
C694 C697 1.403 . S
C695 C692 1.403 . S
C695 C696 1.524 . S
C695 C699 1.400 . S
C696 H681 0.960 . S
C696 H682 0.960 . S
C696 H683 0.960 . S
C696 C695 1.524 . S
C697 C694 1.403 . S
C697 C698 1.392 . S
C697 C701 1.495 . S
C698 C697 1.392 . S
C698 C699 1.385 . S
C698 C700 1.478 . S
C699 H693 0.930 . S
C699 C695 1.400 . S
C699 C698 1.385 . S
C700 C698 1.478 . S
C700 C702 1.381 . S
C700 C706 1.383 . S
C701 C697 1.495 . S
C701 H707 0.959 . S
C701 H708 0.961 . S
C701 H709 0.960 . S
C702 C700 1.381 . S
C702 C703 1.394 . S
C702 H710 0.930 . S
C703 C702 1.394 . S
C703 C704 1.383 . S
C703 H711 0.929 . S
C704 C703 1.383 . S
C704 C705 1.377 . S
C705 H689 0.930 . S
C705 C704 1.377 . S
C705 C706 1.379 . S
C706 H690 0.931 . S
C706 C700 1.383 . S
C706 C705 1.379 . S
H707 C701 0.959 . S
H708 C701 0.961 . S
H709 C701 0.960 . S
H710 C702 0.930 . S
H711 C703 0.929 . S
H712 C720 0.929 . S
H713 C722 0.930 . S
H714 C724 0.930 . S
H715 C727 0.929 . S
H716 C730 0.930 . S
H717 C732 0.960 . S
H718 C732 0.960 . S
H719 C732 0.960 . S
C720 H712 0.929 . S
C720 C721 1.377 . S
C720 C722 1.384 . S
C721 C720 1.377 . S
C721 C727 1.390 . S
C722 H713 0.930 . S
C722 C720 1.384 . S
C722 C723 1.372 . S
C723 C722 1.372 . S
C723 C724 1.400 . S
C723 C728 1.490 . S
C724 H714 0.930 . S
C724 C723 1.400 . S
C724 C727 1.386 . S
H725 C741 0.930 . S
H726 C742 0.931 . S
C727 H715 0.929 . S
C727 C721 1.390 . S
C727 C724 1.386 . S
C728 C723 1.490 . S
C728 C730 1.395 . S
C728 C731 1.403 . S
H729 C735 0.930 . S
C730 H716 0.930 . S
C730 C728 1.395 . S
C730 C733 1.403 . S
C731 C728 1.403 . S
C731 C732 1.524 . S
C731 C735 1.400 . S
C732 H717 0.960 . S
C732 H718 0.960 . S
C732 H719 0.960 . S
C732 C731 1.524 . S
C733 C730 1.403 . S
C733 C734 1.392 . S
C733 C737 1.495 . S
C734 C733 1.392 . S
C734 C735 1.385 . S
C734 C736 1.478 . S
C735 H729 0.930 . S
C735 C731 1.400 . S
C735 C734 1.385 . S
C736 C734 1.478 . S
C736 C738 1.381 . S
C736 C742 1.383 . S
C737 C733 1.495 . S
C737 H743 0.959 . S
C737 H744 0.961 . S
C737 H745 0.960 . S
C738 C736 1.381 . S
C738 C739 1.394 . S
C738 H746 0.930 . S
C739 C738 1.394 . S
C739 C740 1.383 . S
C739 H747 0.929 . S
C740 C739 1.383 . S
C740 C741 1.377 . S
C741 H725 0.930 . S
C741 C740 1.377 . S
C741 C742 1.379 . S
C742 H726 0.931 . S
C742 C736 1.383 . S
C742 C741 1.379 . S
H743 C737 0.959 . S
H744 C737 0.961 . S
H745 C737 0.960 . S
H746 C738 0.930 . S
H747 C739 0.929 . S
H748 C756 0.929 . S
H749 C758 0.930 . S
H750 C760 0.930 . S
H751 C763 0.929 . S
H752 C766 0.930 . S
H753 C768 0.960 . S
H754 C768 0.960 . S
H755 C768 0.960 . S
C756 H748 0.929 . S
C756 C757 1.377 . S
C756 C758 1.384 . S
C757 C756 1.377 . S
C757 C763 1.390 . S
C758 H749 0.930 . S
C758 C756 1.384 . S
C758 C759 1.372 . S
C759 C758 1.372 . S
C759 C760 1.400 . S
C759 C764 1.490 . S
C760 H750 0.930 . S
C760 C759 1.400 . S
C760 C763 1.386 . S
H761 C777 0.930 . S
H762 C778 0.931 . S
C763 H751 0.929 . S
C763 C757 1.390 . S
C763 C760 1.386 . S
C764 C759 1.490 . S
C764 C766 1.395 . S
C764 C767 1.403 . S
H765 C771 0.930 . S
C766 H752 0.930 . S
C766 C764 1.395 . S
C766 C769 1.403 . S
C767 C764 1.403 . S
C767 C768 1.524 . S
C767 C771 1.400 . S
C768 H753 0.960 . S
C768 H754 0.960 . S
C768 H755 0.960 . S
C768 C767 1.524 . S
C769 C766 1.403 . S
C769 C770 1.392 . S
C769 C773 1.495 . S
C770 C769 1.392 . S
C770 C771 1.385 . S
C770 C772 1.478 . S
C771 H765 0.930 . S
C771 C767 1.400 . S
C771 C770 1.385 . S
C772 C770 1.478 . S
C772 C774 1.381 . S
C772 C778 1.382 . S
C773 C769 1.495 . S
C773 H779 0.959 . S
C773 H780 0.961 . S
C773 H781 0.960 . S
C774 C772 1.381 . S
C774 C775 1.394 1_565 S
C774 H782 0.930 . S
C775 C774 1.394 1_545 S
C775 C776 1.383 . S
C775 H783 0.929 . S
C776 C775 1.383 . S
C776 C777 1.377 . S
C777 H761 0.930 . S
C777 C776 1.377 . S
C777 C778 1.380 1_545 S
C778 H762 0.931 . S
C778 C772 1.382 . S
C778 C777 1.380 1_565 S
H779 C773 0.959 . S
H780 C773 0.961 . S
H781 C773 0.960 . S
H782 C774 0.930 . S
H783 C775 0.929 . S
H784 C792 0.929 . S
H785 C794 0.930 . S
H786 C796 0.930 . S
H787 C799 0.929 . S
H788 C802 0.930 . S
H789 C804 0.960 . S
H790 C804 0.960 . S
H791 C804 0.960 . S
C792 H784 0.929 . S
C792 C793 1.377 . S
C792 C794 1.384 . S
C793 C792 1.377 . S
C793 C799 1.390 . S
C794 H785 0.930 . S
C794 C792 1.384 . S
C794 C795 1.372 . S
C795 C794 1.372 . S
C795 C796 1.400 . S
C795 C800 1.490 . S
C796 H786 0.930 . S
C796 C795 1.400 . S
C796 C799 1.386 . S
H797 C813 0.930 . S
H798 C814 0.931 . S
C799 H787 0.929 . S
C799 C793 1.390 . S
C799 C796 1.386 . S
C800 C795 1.490 . S
C800 C802 1.395 . S
C800 C803 1.403 . S
H801 C807 0.930 . S
C802 H788 0.930 . S
C802 C800 1.395 . S
C802 C805 1.403 . S
C803 C800 1.403 . S
C803 C804 1.524 . S
C803 C807 1.400 . S
C804 H789 0.960 . S
C804 H790 0.960 . S
C804 H791 0.960 . S
C804 C803 1.524 . S
C805 C802 1.403 . S
C805 C806 1.392 . S
C805 C809 1.495 . S
C806 C805 1.392 . S
C806 C807 1.385 . S
C806 C808 1.478 . S
C807 H801 0.930 . S
C807 C803 1.400 . S
C807 C806 1.385 . S
C808 C806 1.478 . S
C808 C810 1.381 . S
C808 C814 1.383 . S
C809 C805 1.495 . S
C809 H815 0.959 . S
C809 H816 0.961 . S
C809 H817 0.960 . S
C810 C808 1.381 . S
C810 C811 1.394 . S
C810 H818 0.930 . S
C811 C810 1.394 . S
C811 C812 1.383 . S
C811 H819 0.929 . S
C812 C811 1.383 . S
C812 C813 1.377 . S
C813 H797 0.930 . S
C813 C812 1.377 . S
C813 C814 1.379 . S
C814 H798 0.931 . S
C814 C808 1.383 . S
C814 C813 1.379 . S
H815 C809 0.959 . S
H816 C809 0.961 . S
H817 C809 0.960 . S
H818 C810 0.930 . S
H819 C811 0.929 . S
H820 C828 0.929 . S
H821 C830 0.930 . S
H822 C832 0.930 . S
H823 C835 0.929 . S
H824 C838 0.930 . S
H825 C840 0.960 . S
H826 C840 0.960 . S
H827 C840 0.960 . S
C828 H820 0.929 . S
C828 C829 1.377 . S
C828 C830 1.384 . S
C829 C828 1.377 . S
C829 C835 1.390 . S
C830 H821 0.930 . S
C830 C828 1.384 . S
C830 C831 1.372 . S
C831 C830 1.372 . S
C831 C832 1.400 . S
C831 C836 1.490 . S
C832 H822 0.930 . S
C832 C831 1.400 . S
C832 C835 1.386 . S
H833 C849 0.930 . S
H834 C850 0.931 . S
C835 H823 0.929 . S
C835 C829 1.390 . S
C835 C832 1.386 . S
C836 C831 1.490 . S
C836 C838 1.395 . S
C836 C839 1.403 . S
H837 C843 0.930 . S
C838 H824 0.930 . S
C838 C836 1.395 . S
C838 C841 1.403 . S
C839 C836 1.403 . S
C839 C840 1.524 . S
C839 C843 1.400 . S
C840 H825 0.960 . S
C840 H826 0.960 . S
C840 H827 0.960 . S
C840 C839 1.524 . S
C841 C838 1.403 . S
C841 C842 1.392 . S
C841 C845 1.495 . S
C842 C841 1.392 . S
C842 C843 1.385 . S
C842 C844 1.478 . S
C843 H837 0.930 . S
C843 C839 1.400 . S
C843 C842 1.385 . S
C844 C842 1.478 . S
C844 C846 1.381 . S
C844 C850 1.383 . S
C845 C841 1.495 . S
C845 H851 0.959 . S
C845 H852 0.961 . S
C845 H853 0.960 . S
C846 C844 1.381 . S
C846 C847 1.394 . S
C846 H854 0.930 . S
C847 C846 1.394 . S
C847 C848 1.383 . S
C847 H855 0.929 . S
C848 C847 1.383 . S
C848 C849 1.377 . S
C849 H833 0.930 . S
C849 C848 1.377 . S
C849 C850 1.379 . S
C850 H834 0.931 . S
C850 C844 1.383 . S
C850 C849 1.379 . S
H851 C845 0.959 . S
H852 C845 0.961 . S
H853 C845 0.960 . S
H854 C846 0.930 . S
H855 C847 0.929 . S
H856 C864 0.929 . S
H857 C866 0.930 . S
H858 C868 0.930 . S
H859 C871 0.929 . S
H860 C874 0.930 . S
H861 C876 0.960 . S
H862 C876 0.960 . S
H863 C876 0.960 . S
C864 H856 0.929 . S
C864 C865 1.377 . S
C864 C866 1.384 . S
C865 C864 1.377 . S
C865 C871 1.390 . S
C866 H857 0.930 . S
C866 C864 1.384 . S
C866 C867 1.372 . S
C867 C866 1.372 . S
C867 C868 1.400 . S
C867 C872 1.490 . S
C868 H858 0.930 . S
C868 C867 1.400 . S
C868 C871 1.386 . S
H869 C885 0.930 . S
H870 C886 0.931 . S
C871 H859 0.929 . S
C871 C865 1.390 . S
C871 C868 1.386 . S
C872 C867 1.490 . S
C872 C874 1.395 . S
C872 C875 1.403 . S
H873 C879 0.930 . S
C874 H860 0.930 . S
C874 C872 1.395 . S
C874 C877 1.403 . S
C875 C872 1.403 . S
C875 C876 1.524 . S
C875 C879 1.400 . S
C876 H861 0.960 . S
C876 H862 0.960 . S
C876 H863 0.960 . S
C876 C875 1.524 . S
C877 C874 1.403 . S
C877 C878 1.392 . S
C877 C881 1.495 . S
C878 C877 1.392 . S
C878 C879 1.385 . S
C878 C880 1.478 . S
C879 H873 0.930 . S
C879 C875 1.400 . S
C879 C878 1.385 . S
C880 C878 1.478 . S
C880 C882 1.381 . S
C880 C886 1.383 . S
C881 C877 1.495 . S
C881 H887 0.959 . S
C881 H888 0.961 . S
C881 H889 0.960 . S
C882 C880 1.381 . S
C882 C883 1.394 . S
C882 H890 0.930 . S
C883 C882 1.394 . S
C883 C884 1.383 . S
C883 H891 0.929 . S
C884 C883 1.383 . S
C884 C885 1.377 . S
C885 H869 0.930 . S
C885 C884 1.377 . S
C885 C886 1.379 . S
C886 H870 0.931 . S
C886 C880 1.383 . S
C886 C885 1.379 . S
H887 C881 0.959 . S
H888 C881 0.961 . S
H889 C881 0.960 . S
H890 C882 0.930 . S
H891 C883 0.929 . S
H892 C900 0.929 . S
H893 C902 0.930 . S
H894 C904 0.930 . S
H895 C907 0.929 . S
H896 C910 0.930 . S
H897 C912 0.960 . S
H898 C912 0.960 . S
H899 C912 0.960 . S
C900 H892 0.929 . S
C900 C901 1.377 . S
C900 C902 1.384 . S
C901 C900 1.377 . S
C901 C907 1.390 . S
C902 H893 0.930 . S
C902 C900 1.384 . S
C902 C903 1.372 . S
C903 C902 1.372 . S
C903 C904 1.400 . S
C903 C908 1.490 . S
C904 H894 0.930 . S
C904 C903 1.400 . S
C904 C907 1.386 . S
H905 C921 0.930 . S
H906 C922 0.931 . S
C907 H895 0.929 . S
C907 C901 1.390 . S
C907 C904 1.386 . S
C908 C903 1.490 . S
C908 C910 1.395 . S
C908 C911 1.403 . S
H909 C915 0.930 . S
C910 H896 0.930 . S
C910 C908 1.395 . S
C910 C913 1.403 . S
C911 C908 1.403 . S
C911 C912 1.524 . S
C911 C915 1.400 . S
C912 H897 0.960 . S
C912 H898 0.960 . S
C912 H899 0.960 . S
C912 C911 1.524 . S
C913 C910 1.403 . S
C913 C914 1.392 . S
C913 C917 1.495 . S
C914 C913 1.392 . S
C914 C915 1.385 . S
C914 C916 1.478 . S
C915 H909 0.930 . S
C915 C911 1.400 . S
C915 C914 1.385 . S
C916 C914 1.478 . S
C916 C918 1.381 . S
C916 C922 1.383 . S
C917 C913 1.495 . S
C917 H923 0.959 . S
C917 H924 0.961 . S
C917 H925 0.960 . S
C918 C916 1.381 . S
C918 C919 1.394 . S
C918 H926 0.930 . S
C919 C918 1.394 . S
C919 C920 1.383 . S
C919 H927 0.929 . S
C920 C919 1.383 . S
C920 C921 1.377 . S
C921 H905 0.930 . S
C921 C920 1.377 . S
C921 C922 1.379 . S
C922 H906 0.931 . S
C922 C916 1.383 . S
C922 C921 1.379 . S
H923 C917 0.959 . S
H924 C917 0.961 . S
H925 C917 0.960 . S
H926 C918 0.930 . S
H927 C919 0.929 . S
H928 C936 0.929 . S
H929 C938 0.930 . S
H930 C940 0.930 . S
H931 C943 0.929 . S
H932 C946 0.930 . S
H933 C948 0.960 . S
H934 C948 0.960 . S
H935 C948 0.960 . S
C936 H928 0.929 . S
C936 C937 1.377 . S
C936 C938 1.384 . S
C937 C936 1.377 . S
C937 C943 1.390 . S
C938 H929 0.930 . S
C938 C936 1.384 . S
C938 C939 1.372 . S
C939 C938 1.372 . S
C939 C940 1.400 . S
C939 C944 1.490 . S
C940 H930 0.930 . S
C940 C939 1.400 . S
C940 C943 1.386 . S
H941 C957 0.930 . S
H942 C958 0.931 . S
C943 H931 0.929 . S
C943 C937 1.390 . S
C943 C940 1.386 . S
C944 C939 1.490 . S
C944 C946 1.395 . S
C944 C947 1.403 . S
H945 C951 0.930 . S
C946 H932 0.930 . S
C946 C944 1.395 . S
C946 C949 1.403 . S
C947 C944 1.403 . S
C947 C948 1.524 . S
C947 C951 1.400 . S
C948 H933 0.960 . S
C948 H934 0.960 . S
C948 H935 0.960 . S
C948 C947 1.524 . S
C949 C946 1.403 . S
C949 C950 1.392 . S
C949 C953 1.495 . S
C950 C949 1.392 . S
C950 C951 1.385 . S
C950 C952 1.478 . S
C951 H945 0.930 . S
C951 C947 1.400 . S
C951 C950 1.385 . S
C952 C950 1.478 . S
C952 C954 1.381 . S
C952 C958 1.383 . S
C953 C949 1.495 . S
C953 H959 0.959 . S
C953 H960 0.961 . S
C953 H961 0.960 . S
C954 C952 1.381 . S
C954 C955 1.394 . S
C954 H962 0.930 . S
C955 C954 1.394 . S
C955 C956 1.383 . S
C955 H963 0.929 . S
C956 C955 1.383 . S
C956 C957 1.377 . S
C957 H941 0.930 . S
C957 C956 1.377 . S
C957 C958 1.379 . S
C958 H942 0.931 . S
C958 C952 1.383 . S
C958 C957 1.379 . S
H959 C953 0.959 . S
H960 C953 0.961 . S
H961 C953 0.960 . S
H962 C954 0.930 . S
H963 C955 0.929 . S
H964 C972 0.929 . S
H965 C974 0.930 . S
H966 C976 0.930 . S
H967 C979 0.929 . S
H968 C982 0.930 . S
H969 C984 0.960 . S
H970 C984 0.960 . S
H971 C984 0.960 . S
C972 H964 0.929 . S
C972 C973 1.377 . S
C972 C974 1.384 . S
C973 C972 1.377 . S
C973 C979 1.390 . S
C974 H965 0.930 . S
C974 C972 1.384 . S
C974 C975 1.372 . S
C975 C974 1.372 . S
C975 C976 1.400 . S
C975 C980 1.490 . S
C976 H966 0.930 . S
C976 C975 1.400 . S
C976 C979 1.386 . S
H977 C993 0.930 . S
H978 C994 0.931 . S
C979 H967 0.929 . S
C979 C973 1.390 . S
C979 C976 1.386 . S
C980 C975 1.490 . S
C980 C982 1.395 . S
C980 C983 1.403 . S
H981 C987 0.930 . S
C982 H968 0.930 . S
C982 C980 1.395 . S
C982 C985 1.403 . S
C983 C980 1.403 . S
C983 C984 1.524 . S
C983 C987 1.400 . S
C984 H969 0.960 . S
C984 H970 0.960 . S
C984 H971 0.960 . S
C984 C983 1.524 . S
C985 C982 1.403 . S
C985 C986 1.392 . S
C985 C989 1.495 . S
C986 C985 1.392 . S
C986 C987 1.385 . S
C986 C988 1.478 . S
C987 H981 0.930 . S
C987 C983 1.400 . S
C987 C986 1.385 . S
C988 C986 1.478 . S
C988 C990 1.381 . S
C988 C994 1.383 . S
C989 C985 1.495 . S
C989 H995 0.959 . S
C989 H996 0.961 . S
C989 H997 0.960 . S
C990 C988 1.381 . S
C990 C991 1.394 . S
C990 H998 0.930 . S
C991 C990 1.394 . S
C991 C992 1.383 . S
C991 H999 0.929 . S
C992 C991 1.383 . S
C992 C993 1.377 . S
C993 H977 0.930 . S
C993 C992 1.377 . S
C993 C994 1.379 . S
C994 H978 0.931 . S
C994 C988 1.383 . S
C994 C993 1.379 . S
H995 C989 0.959 . S
H996 C989 0.961 . S
H997 C989 0.960 . S
H998 C990 0.930 . S
H999 C991 0.929 . S
H1000 C1008 0.929 . S
H1001 C1010 0.930 . S
H1002 C1012 0.930 . S
H1003 C1015 0.929 . S
H1004 C1018 0.930 . S
H1005 C1020 0.960 . S
H1006 C1020 0.960 . S
H1007 C1020 0.960 . S
C1008 H1000 0.929 . S
C1008 C1009 1.377 . S
C1008 C1010 1.384 . S
C1009 C1008 1.377 . S
C1009 C1015 1.390 . S
C1010 H1001 0.930 . S
C1010 C1008 1.384 . S
C1010 C1011 1.372 . S
C1011 C1010 1.372 . S
C1011 C1012 1.400 . S
C1011 C1016 1.490 . S
C1012 H1002 0.930 . S
C1012 C1011 1.400 . S
C1012 C1015 1.386 . S
H1013 C1029 0.930 . S
H1014 C1030 0.931 . S
C1015 H1003 0.929 . S
C1015 C1009 1.390 . S
C1015 C1012 1.386 . S
C1016 C1011 1.490 . S
C1016 C1018 1.395 . S
C1016 C1019 1.403 . S
H1017 C1023 0.930 . S
C1018 H1004 0.930 . S
C1018 C1016 1.395 . S
C1018 C1021 1.403 . S
C1019 C1016 1.403 . S
C1019 C1020 1.524 . S
C1019 C1023 1.400 . S
C1020 H1005 0.960 . S
C1020 H1006 0.960 . S
C1020 H1007 0.960 . S
C1020 C1019 1.524 . S
C1021 C1018 1.403 . S
C1021 C1022 1.392 . S
C1021 C1025 1.495 . S
C1022 C1021 1.392 . S
C1022 C1023 1.385 . S
C1022 C1024 1.478 . S
C1023 H1017 0.930 . S
C1023 C1019 1.400 . S
C1023 C1022 1.385 . S
C1024 C1022 1.478 . S
C1024 C1026 1.381 . S
C1024 C1030 1.383 . S
C1025 C1021 1.495 . S
C1025 H1031 0.959 . S
C1025 H1032 0.961 . S
C1025 H1033 0.960 . S
C1026 C1024 1.381 . S
C1026 C1027 1.394 . S
C1026 H1034 0.930 . S
C1027 C1026 1.394 . S
C1027 C1028 1.383 . S
C1027 H1035 0.929 . S
C1028 C1027 1.383 . S
C1028 C1029 1.377 . S
C1029 H1013 0.930 . S
C1029 C1028 1.377 . S
C1029 C1030 1.379 . S
C1030 H1014 0.931 . S
C1030 C1024 1.383 . S
C1030 C1029 1.379 . S
H1031 C1025 0.959 . S
H1032 C1025 0.961 . S
H1033 C1025 0.960 . S
H1034 C1026 0.930 . S
H1035 C1027 0.929 . S
H1036 C1044 0.929 . S
H1037 C1046 0.930 . S
H1038 C1048 0.930 . S
H1039 C1051 0.929 . S
H1040 C1054 0.930 . S
H1041 C1056 0.960 . S
H1042 C1056 0.960 . S
H1043 C1056 0.960 . S
C1044 H1036 0.929 . S
C1044 C1045 1.377 . S
C1044 C1046 1.384 . S
C1045 C1044 1.377 . S
C1045 C1051 1.390 . S
C1046 H1037 0.930 . S
C1046 C1044 1.384 . S
C1046 C1047 1.372 . S
C1047 C1046 1.372 . S
C1047 C1048 1.400 . S
C1047 C1052 1.490 . S
C1048 H1038 0.930 . S
C1048 C1047 1.400 . S
C1048 C1051 1.386 . S
H1049 C1065 0.930 . S
H1050 C1066 0.931 . S
C1051 H1039 0.929 . S
C1051 C1045 1.390 . S
C1051 C1048 1.386 . S
C1052 C1047 1.490 . S
C1052 C1054 1.395 . S
C1052 C1055 1.403 . S
H1053 C1059 0.930 . S
C1054 H1040 0.930 . S
C1054 C1052 1.395 . S
C1054 C1057 1.403 . S
C1055 C1052 1.403 . S
C1055 C1056 1.524 . S
C1055 C1059 1.400 . S
C1056 H1041 0.960 . S
C1056 H1042 0.960 . S
C1056 H1043 0.960 . S
C1056 C1055 1.524 . S
C1057 C1054 1.403 . S
C1057 C1058 1.392 . S
C1057 C1061 1.495 . S
C1058 C1057 1.392 . S
C1058 C1059 1.385 . S
C1058 C1060 1.478 . S
C1059 H1053 0.930 . S
C1059 C1055 1.400 . S
C1059 C1058 1.385 . S
C1060 C1058 1.478 . S
C1060 C1062 1.381 . S
C1060 C1066 1.383 . S
C1061 C1057 1.495 . S
C1061 H1067 0.959 . S
C1061 H1068 0.961 . S
C1061 H1069 0.960 . S
C1062 C1060 1.381 . S
C1062 C1063 1.394 . S
C1062 H1070 0.930 . S
C1063 C1062 1.394 . S
C1063 C1064 1.383 . S
C1063 H1071 0.929 . S
C1064 C1063 1.383 . S
C1064 C1065 1.377 . S
C1065 H1049 0.930 . S
C1065 C1064 1.377 . S
C1065 C1066 1.379 . S
C1066 H1050 0.931 . S
C1066 C1060 1.383 . S
C1066 C1065 1.379 . S
H1067 C1061 0.959 . S
H1068 C1061 0.961 . S
H1069 C1061 0.960 . S
H1070 C1062 0.930 . S
H1071 C1063 0.929 . S
H1072 C1080 0.929 . S
H1073 C1082 0.930 . S
H1074 C1084 0.930 . S
H1075 C1087 0.929 . S
H1076 C1090 0.930 . S
H1077 C1092 0.960 . S
H1078 C1092 0.960 . S
H1079 C1092 0.960 . S
C1080 H1072 0.929 . S
C1080 C1081 1.377 . S
C1080 C1082 1.384 . S
C1081 C1080 1.377 . S
C1081 C1087 1.390 . S
C1082 H1073 0.930 . S
C1082 C1080 1.384 . S
C1082 C1083 1.372 . S
C1083 C1082 1.372 . S
C1083 C1084 1.400 . S
C1083 C1088 1.490 . S
C1084 H1074 0.930 . S
C1084 C1083 1.400 . S
C1084 C1087 1.386 . S
H1085 C1101 0.930 . S
H1086 C1102 0.931 . S
C1087 H1075 0.929 . S
C1087 C1081 1.390 . S
C1087 C1084 1.386 . S
C1088 C1083 1.490 . S
C1088 C1090 1.395 . S
C1088 C1091 1.403 . S
H1089 C1095 0.930 . S
C1090 H1076 0.930 . S
C1090 C1088 1.395 . S
C1090 C1093 1.403 . S
C1091 C1088 1.403 . S
C1091 C1092 1.524 . S
C1091 C1095 1.400 . S
C1092 H1077 0.960 . S
C1092 H1078 0.960 . S
C1092 H1079 0.960 . S
C1092 C1091 1.524 . S
C1093 C1090 1.403 . S
C1093 C1094 1.392 . S
C1093 C1097 1.495 . S
C1094 C1093 1.392 . S
C1094 C1095 1.385 . S
C1094 C1096 1.478 . S
C1095 H1089 0.930 . S
C1095 C1091 1.400 . S
C1095 C1094 1.385 . S
C1096 C1094 1.478 . S
C1096 C1098 1.381 . S
C1096 C1102 1.383 . S
C1097 C1093 1.495 . S
C1097 H1103 0.959 . S
C1097 H1104 0.961 . S
C1097 H1105 0.960 . S
C1098 C1096 1.381 . S
C1098 C1099 1.394 . S
C1098 H1106 0.930 . S
C1099 C1098 1.394 . S
C1099 C1100 1.383 . S
C1099 H1107 0.929 . S
C1100 C1099 1.383 . S
C1100 C1101 1.377 . S
C1101 H1085 0.930 . S
C1101 C1100 1.377 . S
C1101 C1102 1.379 . S
C1102 H1086 0.931 . S
C1102 C1096 1.383 . S
C1102 C1101 1.379 . S
H1103 C1097 0.959 . S
H1104 C1097 0.961 . S
H1105 C1097 0.960 . S
H1106 C1098 0.930 . S
H1107 C1099 0.929 . S
H1108 C1116 0.929 . S
H1109 C1118 0.930 . S
H1110 C1120 0.930 . S
H1111 C1123 0.929 . S
H1112 C1126 0.930 . S
H1113 C1128 0.960 . S
H1114 C1128 0.960 . S
H1115 C1128 0.960 . S
C1116 H1108 0.929 . S
C1116 C1117 1.377 . S
C1116 C1118 1.384 . S
C1117 C1116 1.377 . S
C1117 C1123 1.390 . S
C1118 H1109 0.930 . S
C1118 C1116 1.384 . S
C1118 C1119 1.372 . S
C1119 C1118 1.372 . S
C1119 C1120 1.400 . S
C1119 C1124 1.490 . S
C1120 H1110 0.930 . S
C1120 C1119 1.400 . S
C1120 C1123 1.386 . S
H1121 C1137 0.930 . S
H1122 C1138 0.931 . S
C1123 H1111 0.929 . S
C1123 C1117 1.390 . S
C1123 C1120 1.386 . S
C1124 C1119 1.490 . S
C1124 C1126 1.395 . S
C1124 C1127 1.403 . S
H1125 C1131 0.930 . S
C1126 H1112 0.930 . S
C1126 C1124 1.395 . S
C1126 C1129 1.403 . S
C1127 C1124 1.403 . S
C1127 C1128 1.524 . S
C1127 C1131 1.400 . S
C1128 H1113 0.960 . S
C1128 H1114 0.960 . S
C1128 H1115 0.960 . S
C1128 C1127 1.524 . S
C1129 C1126 1.403 . S
C1129 C1130 1.392 . S
C1129 C1133 1.495 . S
C1130 C1129 1.392 . S
C1130 C1131 1.385 . S
C1130 C1132 1.478 . S
C1131 H1125 0.930 . S
C1131 C1127 1.400 . S
C1131 C1130 1.385 . S
C1132 C1130 1.478 . S
C1132 C1134 1.381 . S
C1132 C1138 1.383 . S
C1133 C1129 1.495 . S
C1133 H1139 0.959 . S
C1133 H1140 0.961 . S
C1133 H1141 0.960 . S
C1134 C1132 1.381 . S
C1134 C1135 1.394 . S
C1134 H1142 0.930 . S
C1135 C1134 1.394 . S
C1135 C1136 1.383 . S
C1135 H1143 0.929 . S
C1136 C1135 1.383 . S
C1136 C1137 1.377 . S
C1137 H1121 0.930 . S
C1137 C1136 1.377 . S
C1137 C1138 1.379 . S
C1138 H1122 0.931 . S
C1138 C1132 1.383 . S
C1138 C1137 1.379 . S
H1139 C1133 0.959 . S
H1140 C1133 0.961 . S
H1141 C1133 0.960 . S
H1142 C1134 0.930 . S
H1143 C1135 0.929 . S
H1144 C1152 0.929 . S
H1145 C1154 0.930 . S
H1146 C1156 0.930 . S
H1147 C1159 0.929 . S
H1148 C1162 0.930 . S
H1149 C1164 0.960 . S
H1150 C1164 0.960 . S
H1151 C1164 0.960 . S
C1152 H1144 0.929 . S
C1152 C1153 1.377 . S
C1152 C1154 1.384 . S
C1153 C1152 1.377 . S
C1153 C1159 1.390 . S
C1154 H1145 0.930 . S
C1154 C1152 1.384 . S
C1154 C1155 1.372 . S
C1155 C1154 1.372 . S
C1155 C1156 1.400 . S
C1155 C1160 1.490 . S
C1156 H1146 0.930 . S
C1156 C1155 1.400 . S
C1156 C1159 1.386 . S
H1157 C1173 0.930 . S
H1158 C1174 0.931 . S
C1159 H1147 0.929 . S
C1159 C1153 1.390 . S
C1159 C1156 1.386 . S
C1160 C1155 1.490 . S
C1160 C1162 1.395 . S
C1160 C1163 1.403 . S
H1161 C1167 0.930 . S
C1162 H1148 0.930 . S
C1162 C1160 1.395 . S
C1162 C1165 1.403 . S
C1163 C1160 1.403 . S
C1163 C1164 1.524 . S
C1163 C1167 1.400 . S
C1164 H1149 0.960 . S
C1164 H1150 0.960 . S
C1164 H1151 0.960 . S
C1164 C1163 1.524 . S
C1165 C1162 1.403 . S
C1165 C1166 1.392 . S
C1165 C1169 1.495 . S
C1166 C1165 1.392 . S
C1166 C1167 1.385 . S
C1166 C1168 1.478 . S
C1167 H1161 0.930 . S
C1167 C1163 1.400 . S
C1167 C1166 1.385 . S
C1168 C1166 1.478 . S
C1168 C1170 1.381 . S
C1168 C1174 1.383 . S
C1169 C1165 1.495 . S
C1169 H1175 0.959 . S
C1169 H1176 0.961 . S
C1169 H1177 0.960 . S
C1170 C1168 1.381 . S
C1170 C1171 1.394 . S
C1170 H1178 0.930 . S
C1171 C1170 1.394 . S
C1171 C1172 1.383 . S
C1171 H1179 0.929 . S
C1172 C1171 1.383 . S
C1172 C1173 1.377 . S
C1173 H1157 0.930 . S
C1173 C1172 1.377 . S
C1173 C1174 1.379 . S
C1174 H1158 0.931 . S
C1174 C1168 1.383 . S
C1174 C1173 1.379 . S
H1175 C1169 0.959 . S
H1176 C1169 0.961 . S
H1177 C1169 0.960 . S
H1178 C1170 0.930 . S
H1179 C1171 0.929 . S
H1180 C1188 0.929 . S
H1181 C1190 0.930 . S
H1182 C1192 0.930 . S
H1183 C1195 0.929 . S
H1184 C1198 0.930 . S
H1185 C1200 0.960 . S
H1186 C1200 0.960 . S
H1187 C1200 0.960 . S
C1188 H1180 0.929 . S
C1188 C1189 1.377 . S
C1188 C1190 1.384 . S
C1189 C1188 1.377 . S
C1189 C1195 1.390 . S
C1190 H1181 0.930 . S
C1190 C1188 1.384 . S
C1190 C1191 1.372 . S
C1191 C1190 1.372 . S
C1191 C1192 1.400 . S
C1191 C1196 1.490 . S
C1192 H1182 0.930 . S
C1192 C1191 1.400 . S
C1192 C1195 1.386 . S
H1193 C1209 0.930 . S
H1194 C1210 0.931 . S
C1195 H1183 0.929 . S
C1195 C1189 1.390 . S
C1195 C1192 1.386 . S
C1196 C1191 1.490 . S
C1196 C1198 1.395 . S
C1196 C1199 1.403 . S
H1197 C1203 0.930 . S
C1198 H1184 0.930 . S
C1198 C1196 1.395 . S
C1198 C1201 1.403 . S
C1199 C1196 1.403 . S
C1199 C1200 1.524 . S
C1199 C1203 1.400 . S
C1200 H1185 0.960 . S
C1200 H1186 0.960 . S
C1200 H1187 0.960 . S
C1200 C1199 1.524 . S
C1201 C1198 1.403 . S
C1201 C1202 1.392 . S
C1201 C1205 1.495 . S
C1202 C1201 1.392 . S
C1202 C1203 1.385 . S
C1202 C1204 1.478 . S
C1203 H1197 0.930 . S
C1203 C1199 1.400 . S
C1203 C1202 1.385 . S
C1204 C1202 1.478 . S
C1204 C1206 1.381 . S
C1204 C1210 1.383 . S
C1205 C1201 1.495 . S
C1205 H1211 0.959 . S
C1205 H1212 0.961 . S
C1205 H1213 0.960 . S
C1206 C1204 1.381 . S
C1206 C1207 1.394 . S
C1206 H1214 0.930 . S
C1207 C1206 1.394 . S
C1207 C1208 1.383 . S
C1207 H1215 0.929 . S
C1208 C1207 1.383 . S
C1208 C1209 1.377 . S
C1209 H1193 0.930 . S
C1209 C1208 1.377 . S
C1209 C1210 1.379 . S
C1210 H1194 0.931 . S
C1210 C1204 1.383 . S
C1210 C1209 1.379 . S
H1211 C1205 0.959 . S
H1212 C1205 0.961 . S
H1213 C1205 0.960 . S
H1214 C1206 0.930 . S
H1215 C1207 0.929 . S
H1216 C1224 0.929 . S
H1217 C1226 0.930 . S
H1218 C1228 0.930 . S
H1219 C1231 0.929 . S
H1220 C1234 0.930 . S
H1221 C1236 0.960 . S
H1222 C1236 0.960 . S
H1223 C1236 0.960 . S
C1224 H1216 0.929 . S
C1224 C1225 1.377 . S
C1224 C1226 1.384 . S
C1225 C1224 1.377 . S
C1225 C1231 1.390 . S
C1226 H1217 0.930 . S
C1226 C1224 1.384 . S
C1226 C1227 1.372 . S
C1227 C1226 1.372 . S
C1227 C1228 1.400 . S
C1227 C1232 1.490 . S
C1228 H1218 0.930 . S
C1228 C1227 1.400 . S
C1228 C1231 1.386 . S
H1229 C1245 0.930 . S
H1230 C1246 0.931 . S
C1231 H1219 0.929 . S
C1231 C1225 1.390 . S
C1231 C1228 1.386 . S
C1232 C1227 1.490 . S
C1232 C1234 1.395 . S
C1232 C1235 1.403 . S
H1233 C1239 0.930 . S
C1234 H1220 0.930 . S
C1234 C1232 1.395 . S
C1234 C1237 1.403 . S
C1235 C1232 1.403 . S
C1235 C1236 1.524 . S
C1235 C1239 1.400 . S
C1236 H1221 0.960 . S
C1236 H1222 0.960 . S
C1236 H1223 0.960 . S
C1236 C1235 1.524 . S
C1237 C1234 1.403 . S
C1237 C1238 1.392 . S
C1237 C1241 1.495 . S
C1238 C1237 1.392 . S
C1238 C1239 1.385 . S
C1238 C1240 1.478 . S
C1239 H1233 0.930 . S
C1239 C1235 1.400 . S
C1239 C1238 1.385 . S
C1240 C1238 1.478 . S
C1240 C1242 1.381 . S
C1240 C1246 1.383 . S
C1241 C1237 1.495 . S
C1241 H1247 0.959 . S
C1241 H1248 0.961 . S
C1241 H1249 0.960 . S
C1242 C1240 1.381 . S
C1242 C1243 1.394 . S
C1242 H1250 0.930 . S
C1243 C1242 1.394 . S
C1243 C1244 1.383 . S
C1243 H1251 0.929 . S
C1244 C1243 1.383 . S
C1244 C1245 1.377 . S
C1245 H1229 0.930 . S
C1245 C1244 1.377 . S
C1245 C1246 1.379 . S
C1246 H1230 0.931 . S
C1246 C1240 1.383 . S
C1246 C1245 1.379 . S
H1247 C1241 0.959 . S
H1248 C1241 0.961 . S
H1249 C1241 0.960 . S
H1250 C1242 0.930 . S
H1251 C1243 0.929 . S
H1252 C1260 0.929 . S
H1253 C1262 0.930 . S
H1254 C1264 0.930 . S
H1255 C1267 0.929 . S
H1256 C1270 0.930 . S
H1257 C1272 0.960 . S
H1258 C1272 0.960 . S
H1259 C1272 0.960 . S
C1260 H1252 0.929 . S
C1260 C1261 1.377 . S
C1260 C1262 1.384 . S
C1261 C1260 1.377 . S
C1261 C1267 1.390 . S
C1262 H1253 0.930 . S
C1262 C1260 1.384 . S
C1262 C1263 1.372 . S
C1263 C1262 1.372 . S
C1263 C1264 1.400 . S
C1263 C1268 1.490 . S
C1264 H1254 0.930 . S
C1264 C1263 1.400 . S
C1264 C1267 1.386 . S
H1265 C1281 0.930 . S
H1266 C1282 0.931 . S
C1267 H1255 0.929 . S
C1267 C1261 1.390 . S
C1267 C1264 1.386 . S
C1268 C1263 1.490 . S
C1268 C1270 1.395 . S
C1268 C1271 1.403 . S
H1269 C1275 0.930 . S
C1270 H1256 0.930 . S
C1270 C1268 1.395 . S
C1270 C1273 1.403 . S
C1271 C1268 1.403 . S
C1271 C1272 1.524 . S
C1271 C1275 1.400 . S
C1272 H1257 0.960 . S
C1272 H1258 0.960 . S
C1272 H1259 0.960 . S
C1272 C1271 1.524 . S
C1273 C1270 1.403 . S
C1273 C1274 1.392 . S
C1273 C1277 1.495 . S
C1274 C1273 1.392 . S
C1274 C1275 1.385 . S
C1274 C1276 1.478 . S
C1275 H1269 0.930 . S
C1275 C1271 1.400 . S
C1275 C1274 1.385 . S
C1276 C1274 1.478 . S
C1276 C1278 1.381 . S
C1276 C1282 1.383 . S
C1277 C1273 1.495 . S
C1277 H1283 0.959 . S
C1277 H1284 0.961 . S
C1277 H1285 0.960 . S
C1278 C1276 1.381 . S
C1278 C1279 1.394 . S
C1278 H1286 0.930 . S
C1279 C1278 1.394 . S
C1279 C1280 1.383 1_565 S
C1279 H1287 0.929 . S
C1280 C1279 1.383 1_545 S
C1280 C1281 1.377 . S
C1281 H1265 0.930 . S
C1281 C1280 1.377 . S
C1281 C1282 1.379 1_545 S
C1282 H1266 0.931 . S
C1282 C1276 1.383 . S
C1282 C1281 1.379 1_565 S
H1283 C1277 0.959 . S
H1284 C1277 0.961 . S
H1285 C1277 0.960 . S
H1286 C1278 0.930 . S
H1287 C1279 0.929 . S
H1288 C1296 0.929 . S
H1289 C1298 0.930 . S
H1290 C1300 0.930 . S
H1291 C1303 0.929 . S
H1292 C1306 0.930 . S
H1293 C1308 0.960 . S
H1294 C1308 0.960 . S
H1295 C1308 0.960 . S
C1296 H1288 0.929 . S
C1296 C1297 1.377 . S
C1296 C1298 1.384 . S
C1297 C1296 1.377 . S
C1297 C1303 1.390 . S
C1298 H1289 0.930 . S
C1298 C1296 1.384 . S
C1298 C1299 1.372 . S
C1299 C1298 1.372 . S
C1299 C1300 1.400 . S
C1299 C1304 1.490 . S
C1300 H1290 0.930 . S
C1300 C1299 1.400 . S
C1300 C1303 1.386 . S
H1301 C1317 0.930 . S
H1302 C1318 0.931 . S
C1303 H1291 0.929 . S
C1303 C1297 1.390 . S
C1303 C1300 1.386 . S
C1304 C1299 1.490 . S
C1304 C1306 1.395 . S
C1304 C1307 1.403 . S
H1305 C1311 0.930 . S
C1306 H1292 0.930 . S
C1306 C1304 1.395 . S
C1306 C1309 1.403 . S
C1307 C1304 1.403 . S
C1307 C1308 1.524 . S
C1307 C1311 1.400 . S
C1308 H1293 0.960 . S
C1308 H1294 0.960 . S
C1308 H1295 0.960 . S
C1308 C1307 1.524 . S
C1309 C1306 1.403 . S
C1309 C1310 1.392 . S
C1309 C1313 1.495 . S
C1310 C1309 1.392 . S
C1310 C1311 1.385 . S
C1310 C1312 1.478 . S
C1311 H1305 0.930 . S
C1311 C1307 1.400 . S
C1311 C1310 1.385 . S
C1312 C1310 1.478 . S
C1312 C1314 1.381 . S
C1312 C1318 1.383 . S
C1313 C1309 1.495 . S
C1313 H1319 0.959 . S
C1313 H1320 0.961 . S
C1313 H1321 0.960 . S
C1314 C1312 1.381 . S
C1314 C1315 1.394 . S
C1314 H1322 0.930 . S
C1315 C1314 1.394 . S
C1315 C1316 1.383 . S
C1315 H1323 0.929 . S
C1316 C1315 1.383 . S
C1316 C1317 1.377 . S
C1317 H1301 0.930 . S
C1317 C1316 1.377 . S
C1317 C1318 1.379 . S
C1318 H1302 0.931 . S
C1318 C1312 1.383 . S
C1318 C1317 1.379 . S
H1319 C1313 0.959 . S
H1320 C1313 0.961 . S
H1321 C1313 0.960 . S
H1322 C1314 0.930 . S
H1323 C1315 0.929 . S
C488 C123 1.353 . S
C469 C5 1.248 . S
C524 C203 1.585 . S
C505 C16 1.414 . S
C560 C135 1.719 . S
C541 C30 1.805 . S
C596 C179 1.877 . S
C577 C40 1.981 . S
C632 C247 1.205 . S
C613 C8 1.213 . S
C668 C327 1.433 . S
C649 C18 1.378 . S
C685 C29 1.876 . S
C704 C389 1.850 . S
C740 C445 1.564 . S
C721 C38 1.420 . S
C776 C259 1.257 . S
C757 C19 1.359 . S
C793 C27 1.534 . S
C812 C303 1.556 . S
C848 C365 1.777 . S
C829 C41 1.942 . S
C884 C433 1.398 . S
C865 C7 1.437 . S
C901 C52 1.922 . S
C920 C197 1.803 . S
C956 C117 1.577 . S
C937 C62 1.614 . S
C973 C74 1.484 . S
C992 C185 1.456 . S
C1009 C82 1.075 . S
C1028 C141 1.216 . S
C1064 C383 2.028 . S
C1045 C51 2.104 . S
C1100 C427 1.552 . S
C1081 C60 1.480 . S
C1136 C241 1.311 . S
C1117 C71 1.185 . S
C1153 C84 1.367 . S
C1172 C309 1.346 . S
C1208 C371 1.818 . S
C1189 C63 1.857 . S
C1244 C451 1.430 . S
C1225 C73 1.404 . S
C1280 C265 1.295 . S
C1261 C85 1.326 . S
C1297 C49 1.460 . S
C1316 C321 1.653 . S
