# Generated by pormake.
# Topology zzz, (3,6)-cn, num edge types: 1
# Building blocks:
#     Node 0, Type 0, BuildingBlock: PAMTOO_clean_linker_0, # of connection points: 3
#     Node 1, Type 0, BuildingBlock: PAMTOO_clean_linker_0, # of connection points: 3
#     Node 2, Type 0, BuildingBlock: PAMTOO_clean_linker_0, # of connection points: 3
#     Node 3, Type 0, BuildingBlock: PAMTOO_clean_linker_0, # of connection points: 3
#     Node 4, Type 0, BuildingBlock: PAMTOO_clean_linker_0, # of connection points: 3
#     Node 5, Type 0, BuildingBlock: PAMTOO_clean_linker_0, # of connection points: 3
#     Node 6, Type 0, BuildingBlock: PAMTOO_clean_linker_0, # of connection points: 3
#     Node 7, Type 0, BuildingBlock: PAMTOO_clean_linker_0, # of connection points: 3
#     Node 8, Type 1, BuildingBlock: FUNLAD_clean_sbu_0, # of connection points: 6
#     Node 9, Type 1, BuildingBlock: FUNLAD_clean_sbu_0, # of connection points: 6
#     Node 10, Type 1, BuildingBlock: FUNLAD_clean_sbu_0, # of connection points: 6
#     Node 11, Type 1, BuildingBlock: FUNLAD_clean_sbu_0, # of connection points: 6
#     Edge 12, Type (0, 1), BuildingBlock: XUDNAN_clean_linker_2, # of connection points: 2
#     Edge 13, Type (0, 1), BuildingBlock: XUDNAN_clean_linker_2, # of connection points: 2
#     Edge 14, Type (0, 1), BuildingBlock: XUDNAN_clean_linker_2, # of connection points: 2
#     Edge 15, Type (0, 1), BuildingBlock: XUDNAN_clean_linker_2, # of connection points: 2
#     Edge 16, Type (0, 1), BuildingBlock: XUDNAN_clean_linker_2, # of connection points: 2
#     Edge 17, Type (0, 1), BuildingBlock: XUDNAN_clean_linker_2, # of connection points: 2
#     Edge 18, Type (0, 1), BuildingBlock: XUDNAN_clean_linker_2, # of connection points: 2
#     Edge 19, Type (0, 1), BuildingBlock: XUDNAN_clean_linker_2, # of connection points: 2
#     Edge 20, Type (0, 1), BuildingBlock: XUDNAN_clean_linker_2, # of connection points: 2
#     Edge 21, Type (0, 1), BuildingBlock: XUDNAN_clean_linker_2, # of connection points: 2
#     Edge 22, Type (0, 1), BuildingBlock: XUDNAN_clean_linker_2, # of connection points: 2
#     Edge 23, Type (0, 1), BuildingBlock: XUDNAN_clean_linker_2, # of connection points: 2
#     Edge 24, Type (0, 1), BuildingBlock: XUDNAN_clean_linker_2, # of connection points: 2
#     Edge 25, Type (0, 1), BuildingBlock: XUDNAN_clean_linker_2, # of connection points: 2
#     Edge 26, Type (0, 1), BuildingBlock: XUDNAN_clean_linker_2, # of connection points: 2
#     Edge 27, Type (0, 1), BuildingBlock: XUDNAN_clean_linker_2, # of connection points: 2
#     Edge 28, Type (0, 1), BuildingBlock: XUDNAN_clean_linker_2, # of connection points: 2
#     Edge 29, Type (0, 1), BuildingBlock: XUDNAN_clean_linker_2, # of connection points: 2
#     Edge 30, Type (0, 1), BuildingBlock: XUDNAN_clean_linker_2, # of connection points: 2
#     Edge 31, Type (0, 1), BuildingBlock: XUDNAN_clean_linker_2, # of connection points: 2
#     Edge 32, Type (0, 1), BuildingBlock: XUDNAN_clean_linker_2, # of connection points: 2
#     Edge 33, Type (0, 1), BuildingBlock: XUDNAN_clean_linker_2, # of connection points: 2
#     Edge 34, Type (0, 1), BuildingBlock: XUDNAN_clean_linker_2, # of connection points: 2
#     Edge 35, Type (0, 1), BuildingBlock: XUDNAN_clean_linker_2, # of connection points: 2
# Relax obj value: 0.116
# Max RMSD: 0.175
# Mean RMSD: 0.089
data_MOF--net-zzz--node1-FUNLAD_clean_sbu_0--node2-PAMTOO_clean_linker_0--edge1-XUDNAN_clean_linker_2
_symmetry_space_group_name_H-M    P1
_symmetry_Int_Tables_number       1
_symmetry_cell_setting            triclinic
loop_
_symmetry_equiv_pos_as_xyz
'x, y, z'
_cell_length_a     51.006287
_cell_length_b     56.97977
_cell_length_c     17.379106
_cell_angle_alpha  85.109636
_cell_angle_beta   84.506083
_cell_angle_gamma 89.978178
loop_
_atom_site_label
_atom_site_type_symbol
_atom_site_fract_x
_atom_site_fract_y
_atom_site_fract_z
_atom_type_partial_charge
H0 H 0.87248 0.50831 0.26776 0.0
H1 H 0.80078 0.50529 0.15635 0.0
H2 H 0.79832 0.52335 0.39185 0.0
H3 H 0.73864 0.50447 0.34126 0.0
C4 C 0.75196 0.50068 0.28945 0.0
O5 O 0.77043 0.5186 0.27366 0.0
H6 H 0.76139 0.48343 0.30423 0.0
C7 C 0.85127 0.50996 0.26905 0.0
C8 C 0.83707 0.51635 0.33689 0.0
C9 C 0.83848 0.50523 0.20403 0.0
C10 C 0.8111 0.50839 0.20617 0.0
C11 C 0.79668 0.5151 0.2734 0.0
C12 C 0.80958 0.51863 0.33943 0.0
H13 H 0.97759 0.83599 0.21478 0.0
H14 H 0.98266 0.80174 0.00293 0.0
H15 H 0.98812 0.76128 0.22144 0.0
H16 H 0.02961 0.76028 0.07114 0.0
C17 C 0.01404 0.75494 0.03511 0.0
O18 O 0.98933 0.75957 0.07008 0.0
H19 H 0.01717 0.76552 0.97815 0.0
C20 C 0.97804 0.82003 0.18485 0.0
C21 C 0.98086 0.79847 0.22803 0.0
C22 C 0.97908 0.82172 0.10382 0.0
C23 C 0.98164 0.80095 0.06564 0.0
C24 C 0.98466 0.77913 0.10807 0.0
C25 C 0.98462 0.77793 0.18927 0.0
H26 H 0.69036 0.00519 0.15244 0.0
H27 H 0.76276 0.00566 0.00357 0.0
H28 H 0.76377 0.99202 0.25072 0.0
H29 H 0.81872 0.01598 0.15948 0.0
C30 C 0.81138 0.01307 0.10284 0.0
O31 O 0.79276 0.99508 0.11481 0.0
H32 H 0.80248 0.02979 0.08009 0.0
C33 C 0.71164 0.00366 0.14507 0.0
C34 C 0.72522 0.99814 0.21045 0.0
C35 C 0.72485 0.00678 0.07046 0.0
C36 C 0.75228 0.00389 0.06104 0.0
C37 C 0.76643 0.99882 0.12578 0.0
C38 C 0.75291 0.99625 0.20083 0.0
H39 H 0.50515 0.6452 0.20132 0.0
H40 H 0.51223 0.70781 0.04591 0.0
H41 H 0.542 0.70736 0.26917 0.0
H42 H 0.51679 0.75818 0.21042 0.0
C43 C 0.51556 0.75206 0.15181 0.0
O44 O 0.53293 0.73364 0.14235 0.0
H45 H 0.49494 0.74622 0.14776 0.0
C46 C 0.51123 0.66351 0.19016 0.0
C47 C 0.5251 0.67424 0.24383 0.0
C48 C 0.50752 0.67503 0.11785 0.0
C49 C 0.51447 0.69882 0.10239 0.0
C50 C 0.52568 0.71077 0.15877 0.0
C51 C 0.53147 0.69841 0.22889 0.0
H52 H 0.18571 0.51529 0.19465 0.0
H53 H 0.25996 0.52123 0.28905 0.0
H54 H 0.25777 0.50378 0.05323 0.0
H55 H 0.31671 0.48872 0.12603 0.0
C56 C 0.30237 0.49114 0.17698 0.0
O57 O 0.28859 0.51164 0.16208 0.0
H58 H 0.28911 0.47539 0.18373 0.0
C59 C 0.20708 0.51486 0.18693 0.0
C60 C 0.21986 0.50947 0.11583 0.0
C61 C 0.22128 0.519 0.24932 0.0
C62 C 0.24882 0.51811 0.24082 0.0
C63 C 0.26198 0.51257 0.17006 0.0
C64 C 0.24751 0.50812 0.10762 0.0
H65 H 0.01615 0.16733 0.22434 0.0
H66 H 1.00466 0.21184 0.41192 0.0
H67 H 0.04678 0.23812 0.19487 0.0
H68 H 0.99113 0.2608 0.35799 0.0
C69 C 0.01059 0.26676 0.32831 0.0
O70 O 0.0285 0.24872 0.33454 0.0
H71 H 1.00804 0.27166 0.26611 0.0
C72 C 0.01809 0.18443 0.24658 0.0
C73 C 0.03265 0.20219 0.20094 0.0
C74 C 1.00808 0.18754 0.32256 0.0
C75 C 0.01168 0.20933 0.35238 0.0
C76 C 0.02489 0.22783 0.30541 0.0
C77 C 0.03557 0.2242 0.22968 0.0
H78 H 0.37017 0.98624 0.25626 0.0
H79 H 0.29779 0.99036 0.40255 0.0
H80 H 0.29774 1.00143 0.15466 0.0
H81 H 0.25735 0.96564 0.32555 0.0
C82 C 0.24906 0.98259 0.3024 0.0
O83 O 0.26835 0.99999 0.28952 0.0
H84 H 0.24146 0.97977 0.24603 0.0
C85 C 0.34889 0.98777 0.26254 0.0
C86 C 0.33569 0.99309 0.1962 0.0
C87 C 0.33558 0.98686 0.33707 0.0
C88 C 0.3083 0.99061 0.34527 0.0
C89 C 0.29449 0.99531 0.27974 0.0
C90 C 0.30824 0.99683 0.20505 0.0
H91 H 0.52353 0.36866 0.27083 0.0
H92 H 0.53736 0.30428 0.41012 0.0
H93 H 0.50099 0.3023 0.19779 0.0
H94 H 0.47508 0.27151 0.34089 0.0
C95 C 0.49341 0.26773 0.36954 0.0
O96 O 0.51481 0.27724 0.32247 0.0
H97 H 0.49144 0.27603 0.42553 0.0
C98 C 0.52308 0.34964 0.28065 0.0
C99 C 0.51264 0.33688 0.22519 0.0
C100 C 0.53255 0.33839 0.34748 0.0
C101 C 0.53015 0.3137 0.35973 0.0
C102 C 0.51803 0.30081 0.30732 0.0
C103 C 0.50948 0.31238 0.23949 0.0
C104 C 0.04078 0.96883 0.82538 0.0
N105 N 0.01859 0.95731 0.60794 0.0
C106 C 0.03692 0.94037 0.62008 0.0
C107 C 0.0342 0.91808 0.5952 0.0
C108 C 0.0131 0.91298 0.55297 0.0
C109 C 0.99472 0.93105 0.53878 0.0
C110 C 0.99767 0.9531 0.56784 0.0
Zn111 Zn 0.02494 0.9872 0.66314 0.0
C112 C 0.97878 1.00058 0.76921 0.0
N113 N 0.04579 0.04212 0.79709 0.0
C114 C 0.03667 0.04513 0.87172 0.0
C115 C 0.05972 0.05946 0.75195 0.0
C116 C 0.06385 0.0812 0.77997 0.0
C117 C 0.05418 0.08496 0.85591 0.0
C118 C 0.04092 0.06652 0.90279 0.0
Zn119 Zn 0.03675 0.01293 0.74351 0.0
O120 O 0.03429 0.9644 0.75946 0.0
C121 C 0.08294 0.99938 0.63721 0.0
O122 O 0.04446 0.99002 0.83921 0.0
H123 H 0.06702 0.05673 0.69296 0.0
H124 H 0.05365 0.94384 0.65119 0.0
H125 H 0.02551 0.03119 0.9064 0.0
O126 O 0.06486 0.98773 0.61185 0.0
O127 O 0.07706 0.01134 0.69489 0.0
H128 H 0.98323 0.96672 0.55883 0.0
O129 O 0.0278 0.03555 0.64904 0.0
O130 O 0.01447 0.01109 0.56961 0.0
O131 O 0.99632 0.01375 0.79137 0.0
O132 O 0.98517 0.98733 0.71498 0.0
C133 C 0.01884 0.03208 0.58538 0.0
H134 H 0.04854 0.90494 0.61053 0.0
H135 H 0.97828 0.92835 0.50549 0.0
H136 H 0.07429 0.09501 0.74247 0.0
H137 H 0.03307 0.06895 0.9617 0.0
C138 C 0.49047 0.99563 0.61232 0.0
N139 N 0.52933 0.05809 0.64282 0.0
C140 C 0.53158 0.06141 0.56397 0.0
C141 C 0.52809 0.08361 0.52639 0.0
C142 C 0.52161 0.10283 0.56978 0.0
C143 C 0.5202 0.09919 0.65126 0.0
C144 C 0.52413 0.07653 0.6868 0.0
Zn145 Zn 0.5307 0.02342 0.68839 0.0
C146 C 0.49037 0.01085 0.81616 0.0
N147 N 0.53129 0.94938 0.75748 0.0
C148 C 0.52928 0.93144 0.7114 0.0
C149 C 0.53338 0.94492 0.83484 0.0
C150 C 0.53364 0.92181 0.86865 0.0
C151 C 0.53139 0.90284 0.82294 0.0
C152 C 0.5292 0.90797 0.74307 0.0
Zn153 Zn 0.53056 0.98419 0.71403 0.0
O154 O 0.50077 0.01562 0.61816 0.0
C155 C 0.57146 0.99712 0.5879 0.0
O156 O 0.50009 0.97723 0.6449 0.0
H157 H 0.53482 0.95937 0.87074 0.0
H158 H 0.53527 0.04661 0.52959 0.0
H159 H 0.52752 0.93533 0.6501 0.0
O160 O 0.56186 0.01699 0.60274 0.0
O161 O 0.56084 0.97841 0.62265 0.0
H162 H 0.52216 0.07357 0.7494 0.0
O163 O 0.56132 0.99197 0.78086 0.0
O164 O 0.56045 0.03062 0.76018 0.0
O165 O 0.50031 0.99074 0.80516 0.0
O166 O 0.50014 0.02899 0.77581 0.0
C167 C 0.57096 0.01207 0.78917 0.0
H168 H 0.52998 0.08553 0.46357 0.0
H169 H 0.5151 0.11344 0.68722 0.0
H170 H 0.53587 0.91891 0.93005 0.0
H171 H 0.52705 0.89405 0.70542 0.0
C172 C 0.55024 0.47102 0.63843 0.0
N173 N 0.47561 0.50304 0.64328 0.0
C174 C 0.47858 0.50114 0.56541 0.0
C175 C 0.45659 0.49985 0.52377 0.0
C176 C 0.43109 0.50083 0.56212 0.0
C177 C 0.42866 0.50306 0.64257 0.0
C178 C 0.45123 0.50403 0.68217 0.0
Zn179 Zn 0.50897 0.50446 0.70081 0.0
C180 C 0.51005 0.46853 0.8326 0.0
N181 N 0.58058 0.50691 0.81076 0.0
C182 C 0.60519 0.50764 0.77266 0.0
C183 C 0.57705 0.50585 0.88964 0.0
C184 C 0.59865 0.50509 0.93336 0.0
C185 C 0.62432 0.50541 0.89588 0.0
C186 C 0.62743 0.50689 0.81427 0.0
Zn187 Zn 0.54753 0.5059 0.75181 0.0
O188 O 0.52667 0.47794 0.63455 0.0
C189 C 0.54664 0.5418 0.62051 0.0
O190 O 0.56489 0.48055 0.68215 0.0
H191 H 0.55736 0.50513 0.91903 0.0
H192 H 0.49809 0.50048 0.53534 0.0
H193 H 0.60759 0.50849 0.70997 0.0
O194 O 0.52458 0.53169 0.61739 0.0
O195 O 0.56154 0.53446 0.67194 0.0
H196 H 0.44927 0.5056 0.74403 0.0
O197 O 0.52976 0.53066 0.82088 0.0
O198 O 0.49215 0.53121 0.76924 0.0
O199 O 0.53276 0.47785 0.83035 0.0
O200 O 0.49398 0.47692 0.78586 0.0
C201 C 0.50694 0.53921 0.81601 0.0
H202 H 0.45965 0.49771 0.46228 0.0
H203 H 0.40952 0.50425 0.67474 0.0
H204 H 0.59522 0.50359 0.99605 0.0
H205 H 0.64683 0.50744 0.78282 0.0
C206 C 0.06726 0.51675 0.61773 0.0
N207 N 0.03269 0.44975 0.67563 0.0
C208 C 0.05699 0.44113 0.65485 0.0
C209 C 0.05963 0.42023 0.6182 0.0
C210 C 0.03704 0.40807 0.60232 0.0
C211 C 0.01222 0.41698 0.62693 0.0
C212 C 0.01049 0.43789 0.66365 0.0
Zn213 Zn 0.02944 0.48255 0.71641 0.0
C214 C 0.06743 0.49167 0.82514 0.0
N215 N 0.0232 0.5528 0.78523 0.0
C216 C 0.0246 0.57343 0.73923 0.0
C217 C 0.02105 0.55272 0.8639 0.0
C218 C 0.02056 0.57374 0.89928 0.0
C219 C 0.02275 0.59534 0.85372 0.0
C220 C 0.0244 0.59503 0.77247 0.0
Zn221 Zn 0.02616 0.52025 0.74242 0.0
O222 O 0.05912 0.49551 0.62924 0.0
C223 C 0.98799 0.51054 0.63422 0.0
O224 O 0.05601 0.53238 0.65685 0.0
H225 H 0.02017 0.53622 0.89973 0.0
H226 H 0.07443 0.45081 0.66473 0.0
H227 H 0.02642 0.57313 0.67679 0.0
O228 O 0.99935 0.4908 0.64365 0.0
O229 O 0.99607 0.52811 0.6663 0.0
H230 H 0.99134 0.44505 0.68023 0.0
O231 O 0.996 0.50767 0.82653 0.0
O232 O 0.99942 0.4704 0.80407 0.0
O233 O 0.05625 0.51159 0.81744 0.0
O234 O 0.05934 0.47474 0.79036 0.0
C235 C 0.98791 0.48655 0.84024 0.0
H236 H 0.07918 0.41388 0.60149 0.0
H237 H 0.99423 0.40844 0.61521 0.0
H238 H 0.01866 0.573 0.96204 0.0
H239 H 0.02631 0.61124 0.73495 0.0
H240 H 0.19676 0.97034 0.30877 0.0
H241 H 0.25129 0.0084 0.43009 0.0
H242 H 0.21496 0.01699 0.52834 0.0
H243 H 0.14038 0.00817 0.34274 0.0
H244 H 0.11703 0.98409 0.35639 0.0
H245 H 0.14719 0.98171 0.29464 0.0
H246 H 0.15841 0.94334 0.37552 0.0
H247 H 0.12836 0.94568 0.43775 0.0
H248 H 0.1595 0.9436 0.47883 0.0
H249 H 0.17218 0.02135 0.61405 0.0
H250 H 0.12705 0.02052 0.68058 0.0
H251 H 0.10079 0.97864 0.50487 0.0
C252 C 0.20094 0.98079 0.35543 0.0
C253 C 0.22672 0.98932 0.36033 0.0
C254 C 0.2316 1.00223 0.4238 0.0
C255 C 0.21108 0.00711 0.48012 0.0
C256 C 0.18583 0.99864 0.47302 0.0
C257 C 0.18073 0.98569 0.41232 0.0
C258 C 0.15204 0.97808 0.41901 0.0
C259 C 0.13836 0.98865 0.34904 0.0
C260 C 0.14943 0.95107 0.42835 0.0
C261 C 0.14174 0.9888 0.49284 0.0
C262 C 0.1615 1.00064 0.52311 0.0
C263 C 0.1566 0.01209 0.59082 0.0
C264 C 0.13087 0.01151 0.6283 0.0
C265 C 0.11029 0.99946 0.59834 0.0
C266 C 0.11601 0.98793 0.5297 0.0
H267 H 0.51807 0.24384 0.48696 0.0
H268 H 0.47623 0.23281 0.28727 0.0
H269 H 0.47915 0.18965 0.31667 0.0
H270 H 0.56266 0.19402 0.46832 0.0
H271 H 0.56204 0.18699 0.57159 0.0
H272 H 0.55737 0.21694 0.53338 0.0
H273 H 0.51317 0.21831 0.61964 0.0
H274 H 0.5176 0.18831 0.65767 0.0
H275 H 0.48809 0.19648 0.61289 0.0
H276 H 0.48443 0.14814 0.37137 0.0
H277 H 0.49402 0.11045 0.44254 0.0
H278 H 0.5339 0.14783 0.60591 0.0
C279 C 0.50968 0.23225 0.4494 0.0
C280 C 0.4966 0.24151 0.38543 0.0
C281 C 0.48607 0.22596 0.3369 0.0
C282 C 0.48763 0.20148 0.35323 0.0
C283 C 0.50004 0.19288 0.41784 0.0
C284 C 0.51111 0.20773 0.46484 0.0
C285 C 0.52321 0.19382 0.53089 0.0
C286 C 0.5531 0.1982 0.5257 0.0
C287 C 0.5097 0.19958 0.60994 0.0
C288 C 0.51699 0.16883 0.51406 0.0
C289 C 0.5036 0.16877 0.4486 0.0
C290 C 0.49523 0.14795 0.42207 0.0
C291 C 0.50095 0.12658 0.46281 0.0
C292 C 0.51514 0.126 0.52935 0.0
C293 C 0.52302 0.14756 0.55548 0.0
H294 H 0.35033 0.51198 0.18774 0.0
H295 H 0.28658 0.47359 0.32629 0.0
H296 H 0.31147 0.47357 0.44201 0.0
H297 H 0.40265 0.48246 0.27235 0.0
H298 H 0.42339 0.50817 0.26967 0.0
H299 H 0.39983 0.50658 0.19948 0.0
H300 H 0.37904 0.54574 0.23972 0.0
H301 H 0.40266 0.54753 0.30979 0.0
H302 H 0.36791 0.5485 0.34015 0.0
H303 H 0.34503 0.47497 0.53948 0.0
H304 H 0.38359 0.47902 0.61278 0.0
H305 H 0.42473 0.51827 0.41173 0.0
C306 C 0.3416 0.50378 0.24275 0.0
C307 C 0.31678 0.49248 0.24831 0.0
C308 C 0.30574 0.48208 0.32104 0.0
C309 C 0.3197 0.48203 0.38689 0.0
C310 C 0.3445 0.49277 0.37912 0.0
C311 C 0.35524 0.50367 0.30905 0.0
C312 C 0.38249 0.51342 0.31574 0.0
C313 C 0.40331 0.50196 0.26107 0.0
C314 C 0.38305 0.5404 0.30046 0.0
C315 C 0.38567 0.50584 0.40002 0.0
C316 C 0.36352 0.49404 0.43566 0.0
C317 C 0.36232 0.48451 0.51249 0.0
C318 C 0.38434 0.48705 0.55387 0.0
C319 C 0.40735 0.49909 0.51862 0.0
C320 C 0.4077 0.50875 0.44065 0.0
H321 H 0.99042 0.28607 0.46169 0.0
H322 H 0.05263 0.29513 0.27334 0.0
H323 H 0.06797 0.33111 0.32696 0.0
H324 H 0.97468 0.34638 0.46824 0.0
H325 H 0.96829 0.34502 0.57234 0.0
H326 H 0.96345 0.31923 0.52219 0.0
H327 H 0.99515 0.29577 0.60749 0.0
H328 H 1.00004 0.32151 0.65809 0.0
H329 H 0.02797 0.30694 0.61221 0.0
H330 H 0.07473 0.36721 0.39711 0.0
H331 H 0.07252 0.40087 0.47762 0.0
H332 H 1.0062 0.36782 0.62208 0.0
C333 C 1.0074 0.29555 0.43226 0.0
C334 C 0.02039 0.28799 0.36334 0.0
C335 C 0.0425 0.30078 0.32617 0.0
C336 C 0.05132 0.32114 0.35626 0.0
C337 C 0.03786 0.32835 0.42379 0.0
C338 C 0.01643 0.31591 0.46149 0.0
C339 C 1.00485 0.32787 0.53148 0.0
C340 C 0.97612 0.33505 0.52301 0.0
C341 C 1.00715 0.31208 0.60677 0.0
C342 C 0.0228 0.34923 0.52648 0.0
C343 C 0.04183 0.34909 0.46433 0.0
C344 C 0.06011 0.36736 0.4465 0.0
C345 C 0.05879 0.38636 0.493 0.0
C346 C 0.03929 0.38703 0.55672 0.0
C347 C 0.02126 0.368 0.57369 0.0
H348 H 0.86336 0.02658 0.09789 0.0
H349 H 0.81035 0.98778 0.97372 0.0
H350 H 0.84716 0.9803 0.87571 0.0
H351 H 0.90035 0.05463 0.9292 0.0
H352 H 0.93143 0.05309 0.9707 0.0
H353 H 0.90119 0.05459 0.03269 0.0
H354 H 0.91331 0.01625 0.11222 0.0
H355 H 0.94365 0.01471 0.05069 0.0
H356 H 0.92097 0.99013 0.06301 0.0
H357 H 0.89015 0.97698 0.79095 0.0
H358 H 0.93532 0.97882 0.72501 0.0
H359 H 0.96018 0.02089 0.90217 0.0
C360 C 0.85962 0.01622 0.05063 0.0
C361 C 0.83412 0.00713 0.04489 0.0
C362 C 0.82982 0.99435 0.98067 0.0
C363 C 0.85062 0.99011 0.92447 0.0
C364 C 0.87558 0.99909 0.9324 0.0
C365 C 0.88014 0.01195 0.99378 0.0
C366 C 0.90864 0.02017 0.98775 0.0
C367 C 0.9105 0.04723 0.97959 0.0
C368 C 0.92245 0.00968 0.05756 0.0
C369 C 0.91943 0.00992 0.91348 0.0
C370 C 0.90007 0.99775 0.88257 0.0
C371 C 0.90542 0.98652 0.81462 0.0
C372 C 0.93118 0.98768 0.7775 0.0
C373 C 0.95138 1.0001 0.80794 0.0
C374 C 0.94523 0.01141 0.87686 0.0
H375 H 0.50299 0.79849 0.16026 0.0
H376 H 0.54052 0.75083 0.00264 0.0
H377 H 0.54877 0.78402 0.90196 0.0
H378 H 0.4703 0.83319 0.0161 0.0
H379 H 0.47435 0.86054 0.0588 0.0
H380 H 0.47225 0.83317 0.11914 0.0
H381 H 0.51688 0.84242 0.17025 0.0
H382 H 0.51909 0.86983 0.11012 0.0
H383 H 0.54542 0.84882 0.10213 0.0
H384 H 0.55345 0.82287 0.81878 0.0
H385 H 0.55303 0.86371 0.75893 0.0
H386 H 0.50995 0.88543 0.96863 0.0
C387 C 0.51324 0.79514 0.10483 0.0
C388 C 0.52188 0.77223 0.09028 0.0
C389 C 0.53442 0.76834 0.01608 0.0
C390 C 0.53908 0.78708 0.95834 0.0
C391 C 0.53064 0.80953 0.97507 0.0
C392 C 0.51783 0.81359 0.04639 0.0
C393 C 0.51006 0.8392 0.04897 0.0
C394 C 0.47995 0.84166 0.06147 0.0
C395 C 0.52368 0.85074 0.11158 0.0
C396 C 0.52068 0.84898 0.9682 0.0
C397 C 0.53252 0.83162 0.92647 0.0
C398 C 0.54405 0.83656 0.8508 0.0
C399 C 0.54352 0.85985 0.81703 0.0
C400 C 0.53141 0.87799 0.85861 0.0
C401 C 0.51974 0.87223 0.93521 0.0
H402 H 0.70544 0.52267 0.25969 0.0
H403 H 0.76393 0.47531 0.16371 0.0
H404 H 0.73883 0.47271 0.04948 0.0
H405 H 0.64927 0.49351 0.20191 0.0
H406 H 0.63165 0.52032 0.18015 0.0
H407 H 0.65482 0.51918 0.25225 0.0
H408 H 0.67997 0.55506 0.17823 0.0
H409 H 0.65687 0.55627 0.10584 0.0
H410 H 0.69163 0.55391 0.07736 0.0
H411 H 0.70655 0.47448 0.94772 0.0
H412 H 0.66923 0.47969 0.86742 0.0
H413 H 0.63175 0.52606 0.02998 0.0
C414 C 0.71289 0.51177 0.21448 0.0
C415 C 0.73646 0.49901 0.22043 0.0
C416 C 0.74582 0.48509 0.16009 0.0
C417 C 0.73172 0.48355 0.09515 0.0
C418 C 0.70835 0.49612 0.09138 0.0
C419 C 0.69897 0.50995 0.14949 0.0
C420 C 0.67301 0.52121 0.13233 0.0
C421 C 0.65088 0.51306 0.1954 0.0
C422 C 0.67553 0.54822 0.12286 0.0
C423 C 0.66911 0.5114 0.05585 0.0
C424 C 0.68978 0.49709 0.03296 0.0
C425 C 0.69034 0.48577 0.96483 0.0
C426 C 0.66911 0.48897 0.91929 0.0
C427 C 0.64751 0.50334 0.94206 0.0
C428 C 0.64779 0.51481 0.01111 0.0
H429 H 0.99515 0.73128 0.92002 0.0
H430 H 0.03833 0.7208 0.12309 0.0
H431 H 0.04503 0.67897 0.0987 0.0
H432 H 0.96243 0.67363 0.94413 0.0
H433 H 0.96454 0.67053 0.84137 0.0
H434 H 0.96245 0.69941 0.87634 0.0
H435 H 1.00536 0.71181 0.79044 0.0
H436 H 1.0077 0.68291 0.75575 0.0
H437 H 0.03477 0.69469 0.80027 0.0
H438 H 0.04932 0.63932 0.0482 0.0
H439 H 0.04836 0.60316 0.98073 0.0
H440 H 1.00075 0.63849 0.81224 0.0
C441 C 1.00584 0.72005 0.95944 0.0
C442 C 0.01654 0.72918 0.02285 0.0
C443 C 0.03024 0.71408 0.07383 0.0
C444 C 0.03413 0.69036 0.06038 0.0
C445 C 0.02392 0.68201 0.99623 0.0
C446 C 1.00981 0.69627 0.947 0.0
C447 C 1.00104 0.68281 0.88216 0.0
C448 C 0.97082 0.68152 0.88628 0.0
C449 C 0.01293 0.69371 0.80245 0.0
C450 C 0.01271 0.65883 0.90214 0.0
C451 C 0.02585 0.65883 0.96809 0.0
C452 C 0.03877 0.63899 0.99717 0.0
C453 C 0.03796 0.61846 0.95853 0.0
C454 C 0.02412 0.61775 0.89167 0.0
C455 C 0.01154 0.63838 0.86295 0.0
H456 H 0.02838 0.16819 0.45114 0.0
H457 H 0.96813 0.15809 0.29757 0.0
H458 H 0.96276 0.11651 0.35085 0.0
H459 H 0.05963 0.1169 0.42433 0.0
H460 H 0.06825 0.11044 0.52206 0.0
H461 H 0.06353 0.14046 0.48542 0.0
H462 H 0.02802 0.14633 0.59904 0.0
H463 H 0.03334 0.11655 0.63778 0.0
H464 H 1.00068 0.12596 0.61861 0.0
H465 H 0.96937 0.07425 0.40677 0.0
H466 H 0.9832 0.03665 0.47432 0.0
H467 H 0.04018 0.07539 0.5851 0.0
C468 C 0.01303 0.15757 0.43207 0.0
C469 C 0.99826 0.16635 0.37168 0.0
C470 C 0.9792 0.15168 0.34515 0.0
C471 C 0.97622 0.12802 0.37451 0.0
C472 C 0.99239 0.11941 0.43052 0.0
C473 C 1.01001 0.13392 0.46028 0.0
C474 C 0.02689 0.12005 0.51447 0.0
C475 C 0.0563 0.12209 0.48473 0.0
C476 C 0.02192 0.12767 0.59739 0.0
C477 C 0.01645 0.0955 0.50925 0.0
C478 C 0.99653 0.0953 0.46092 0.0
C479 C 0.98471 0.07425 0.44568 0.0
C480 C 0.99288 0.05297 0.4833 0.0
C481 C 0.01265 0.05313 0.53503 0.0
C482 C 0.02481 0.07467 0.54644 0.0
H483 H 0.37656 0.95721 0.3657 0.0
H484 H 0.33131 0.01488 0.45697 0.0
H485 H 0.36452 0.02018 0.54811 0.0
H486 H 0.40442 0.93536 0.55445 0.0
H487 H 0.43559 0.9288 0.50307 0.0
H488 H 0.40553 0.92605 0.45762 0.0
H489 H 0.42501 0.95412 0.34116 0.0
H490 H 0.45481 0.95748 0.38679 0.0
H491 H 0.43618 0.98309 0.35796 0.0
H492 H 0.40609 0.02519 0.60602 0.0
H493 H 0.45127 0.02577 0.64435 0.0
H494 H 0.47024 0.96406 0.52044 0.0
C495 C 0.3732 0.97034 0.40704 0.0
C496 C 0.35132 0.98558 0.40465 0.0
C497 C 0.34764 1.00275 0.45877 0.0
C498 C 0.36652 0.006 0.51035 0.0
C499 C 0.38869 0.99168 0.50778 0.0
C500 C 0.39186 0.97377 0.45902 0.0
C501 C 0.41869 0.9624 0.46261 0.0
C502 C 0.41588 0.93662 0.49648 0.0
C503 C 0.43459 0.96441 0.38237 0.0
C504 C 0.4306 0.97754 0.518 0.0
C505 C 0.41284 0.99425 0.54336 0.0
C506 C 0.41994 0.01183 0.58828 0.0
C507 C 0.44573 0.01219 0.6088 0.0
C508 C 0.46411 0.99498 0.58503 0.0
C509 C 0.4564 0.97725 0.53981 0.0
H510 H 0.55853 0.38132 0.31901 0.0
H511 H 0.53144 0.32902 0.50683 0.0
H512 H 0.54364 0.35584 0.60114 0.0
H513 H 0.60908 0.41232 0.41527 0.0
H514 H 0.59868 0.4407 0.3756 0.0
H515 H 0.59604 0.41517 0.32212 0.0
H516 H 0.5463 0.42321 0.31455 0.0
H517 H 0.54879 0.44866 0.3677 0.0
H518 H 0.52526 0.42571 0.40289 0.0
H519 H 0.55206 0.39006 0.67576 0.0
H520 H 0.5505 0.42966 0.72388 0.0
H521 H 0.564 0.46153 0.4882 0.0
C522 C 0.55517 0.37522 0.37981 0.0
C523 C 0.54375 0.35284 0.40465 0.0
C524 C 0.54059 0.34572 0.48526 0.0
C525 C 0.54741 0.36094 0.53966 0.0
C526 C 0.55707 0.38336 0.51289 0.0
C527 C 0.56066 0.39055 0.43472 0.0
C528 C 0.56624 0.41677 0.42088 0.0
C529 C 0.59418 0.42151 0.38113 0.0
C530 C 0.5454 0.42931 0.37379 0.0
C531 C 0.564 0.42345 0.50361 0.0
C532 C 0.55987 0.40375 0.55585 0.0
C533 C 0.55571 0.40553 0.63552 0.0
C534 C 0.55492 0.42803 0.6623 0.0
C535 C 0.55759 0.44834 0.60943 0.0
C536 C 0.56259 0.4461 0.52938 0.0
H537 H 0.19344 0.48635 0.34336 0.0
H538 H 0.21302 0.56062 0.31423 0.0
H539 H 0.17663 0.56839 0.41403 0.0
H540 H 0.12783 0.49293 0.34854 0.0
H541 H 0.11849 0.4687 0.41947 0.0
H542 H 0.14935 0.46804 0.36043 0.0
H543 H 0.17478 0.46256 0.48281 0.0
H544 H 0.14388 0.46237 0.54258 0.0
H545 H 0.16952 0.48288 0.55673 0.0
H546 H 0.1338 0.56834 0.50164 0.0
H547 H 0.09083 0.56013 0.57829 0.0
H548 H 0.09921 0.48586 0.54313 0.0
C549 C 0.19084 0.50403 0.36122 0.0
C550 C 0.20622 0.52285 0.32341 0.0
C551 C 0.20178 0.54599 0.34482 0.0
C552 C 0.18105 0.55052 0.40073 0.0
C553 C 0.16521 0.53166 0.43415 0.0
C554 C 0.17023 0.50879 0.41613 0.0
C555 C 0.14889 0.49195 0.4532 0.0
C556 C 0.13535 0.47971 0.39172 0.0
C557 C 0.15993 0.47388 0.51236 0.0
C558 C 0.13057 0.50895 0.49283 0.0
C559 C 0.14034 0.53173 0.48209 0.0
C560 C 0.12617 0.5505 0.51129 0.0
C561 C 0.10169 0.54571 0.55409 0.0
C562 C 0.0916 0.52237 0.56639 0.0
C563 C 0.10626 0.50391 0.5346 0.0
H564 H 0.01197 0.83561 0.97261 0.0
H565 H 0.95309 0.86206 0.14057 0.0
H566 H 0.96755 0.90268 0.09768 0.0
H567 H 0.06214 0.87577 0.98326 0.0
H568 H 0.07218 0.88003 0.88071 0.0
H569 H 0.057 0.85265 0.92149 0.0
H570 H 0.02063 0.85727 0.82683 0.0
H571 H 0.03641 0.88411 0.78345 0.0
H572 H 1.00216 0.88424 0.82022 0.0
H573 H 0.99202 0.93983 0.04876 0.0
H574 H 0.01466 0.97264 0.96665 0.0
H575 H 0.05402 0.92267 0.82098 0.0
C576 C 1.00145 0.84991 -0.00135 0.0
C577 C 0.9819 0.84554 0.06165 0.0
C578 C 0.96868 0.8649 0.09381 0.0
C579 C 0.97682 0.88805 0.07017 0.0
C580 C 0.99754 0.89161 0.01227 0.0
C581 C 1.00879 0.87322 0.97418 0.0
C582 C 0.02962 0.88213 0.91038 0.0
C583 C 0.05684 0.87203 0.92489 0.0
C584 C 0.02173 0.87662 0.8305 0.0
C585 C 0.02862 0.9083 0.91986 0.0
C586 C 0.01044 0.9133 0.98027 0.0
C587 C 1.00614 0.9362 0.00078 0.0
C588 C 0.01947 0.95469 0.9548 0.0
C589 C 0.03627 0.95006 0.88836 0.0
C590 C 0.04164 0.92656 0.87246 0.0
H591 H 0.6836 0.03714 0.05661 0.0
H592 H 0.72969 0.98525 0.93522 0.0
H593 H 0.6974 0.98579 0.83818 0.0
H594 H 0.62436 0.0121 0.04611 0.0
H595 H 0.6057 0.03873 0.03199 0.0
H596 H 0.63515 0.03904 0.08102 0.0
H597 H 0.65487 0.07255 0.98245 0.0
H598 H 0.6252 0.07272 0.93367 0.0
H599 H 0.65673 0.06894 0.88002 0.0
H600 H 0.65668 0.98523 0.77326 0.0
H601 H 0.61144 0.98636 0.73519 0.0
H602 H 0.59069 0.03897 0.89627 0.0
C603 C 0.68729 0.02645 0.00814 0.0
C604 C 0.70916 0.01116 0.00325 0.0
C605 C 0.71333 0.99735 0.93939 0.0
C606 C 0.69501 0.99747 0.88423 0.0
C607 C 0.67287 0.01171 0.89338 0.0
C608 C 0.66914 0.0263 0.95288 0.0
C609 C 0.64225 0.03779 0.95482 0.0
C610 C 0.62592 0.03152 0.03311 0.0
C611 C 0.64493 0.06459 0.93663 0.0
C612 C 0.63087 0.02639 0.88966 0.0
C613 C 0.64907 0.01162 0.85463 0.0
C614 C 0.64251 0.99717 0.79878 0.0
C615 C 0.61672 0.99776 0.77822 0.0
C616 C 0.59779 0.01279 0.81289 0.0
C617 C 0.60501 0.02763 0.86829 0.0
H618 H 0.5405 0.64299 0.06293 0.0
H619 H 0.4632 0.67233 0.03826 0.0
H620 H 0.45363 0.64062 0.95415 0.0
H621 H 0.55355 0.62156 0.87084 0.0
H622 H 0.56949 0.59558 0.91001 0.0
H623 H 0.57055 0.6225 0.95685 0.0
H624 H 0.55081 0.6002 0.08597 0.0
H625 H 0.54904 0.57339 0.03905 0.0
H626 H 0.51979 0.58488 0.08875 0.0
H627 H 0.45272 0.60298 0.87833 0.0
H628 H 0.46093 0.56534 0.81759 0.0
H629 H 0.5375 0.56105 0.9073 0.0
C630 C 0.52183 0.64312 0.03782 0.0
C631 C 0.50269 0.6601 0.05548 0.0
C632 C 0.47822 0.65959 0.02367 0.0
C633 C 0.47264 0.64158 0.97662 0.0
C634 C 0.49172 0.62437 0.9631 0.0
C635 C 0.51588 0.62524 0.99277 0.0
C636 C 0.53248 0.60407 0.97631 0.0
C637 C 0.55801 0.61137 0.92545 0.0
C638 C 0.53835 0.5898 0.052 0.0
C639 C 0.51401 0.59092 0.93249 0.0
C640 C 0.49064 0.60275 0.92446 0.0
C641 C 0.47098 0.59363 0.88448 0.0
C642 C 0.47571 0.5722 0.85065 0.0
C643 C 0.49977 0.56015 0.85804 0.0
C644 C 0.51878 0.56962 0.90071 0.0
H645 H 0.8813 0.47586 0.1992 0.0
H646 H 0.83173 0.51758 0.05098 0.0
H647 H 0.86145 0.50921 0.93683 0.0
H648 H 0.93886 0.4992 0.11352 0.0
H649 H 0.95821 0.47279 0.12237 0.0
H650 H 0.92983 0.47637 0.1898 0.0
H651 H 0.91023 0.43711 0.15509 0.0
H652 H 0.93871 0.43334 0.08745 0.0
H653 H 0.90616 0.43292 0.05525 0.0
H654 H 0.8999 0.50424 0.84522 0.0
H655 H 0.94483 0.50301 0.78109 0.0
H656 H 0.97138 0.46502 0.9852 0.0
C657 C 0.8764 0.48294 0.14261 0.0
C658 C 0.85411 0.49745 0.13427 0.0
C659 C 0.84836 0.50611 0.05905 0.0
C660 C 0.86518 0.50146 0.99374 0.0
C661 C 0.88761 0.48804 0.00454 0.0
C662 C 0.89323 0.47879 0.07705 0.0
C663 C 0.9205 0.46804 0.07432 0.0
C664 C 0.93786 0.47981 0.12815 0.0
C665 C 0.91879 0.44126 0.09419 0.0
C666 C 0.92999 0.47399 0.98966 0.0
C667 C 0.91034 0.48498 0.95031 0.0
C668 C 0.91509 0.49486 0.87437 0.0
C669 C 0.94062 0.49395 0.83818 0.0
C670 C 0.96104 0.48301 0.8772 0.0
C671 C 0.9557 0.47253 0.95341 0.0
H672 H 0.06893 0.16864 0.18406 0.0
H673 H 0.02386 0.21946 0.05368 0.0
H674 H 0.03336 0.19772 0.93677 0.0
H675 H 0.11643 0.14882 0.01557 0.0
H676 H 0.11341 0.11883 0.05789 0.0
H677 H 0.11212 0.14279 0.11955 0.0
H678 H 0.06737 0.12674 0.18615 0.0
H679 H 0.06791 0.10328 0.12358 0.0
H680 H 0.0404 0.12316 0.12813 0.0
H681 H 0.03838 0.16571 0.84599 0.0
H682 H 0.03826 0.12711 0.79049 0.0
H683 H 0.07549 0.09524 0.98703 0.0
C684 C 0.06253 0.17592 0.12935 0.0
C685 C 0.04616 0.19585 0.1268 0.0
C686 C 0.03703 0.20455 0.05578 0.0
C687 C 0.04221 0.19217 0.98943 0.0
C688 C 0.05647 0.17123 0.99572 0.0
C689 C 0.06679 0.16333 0.06402 0.0
C690 C 0.07631 0.13819 0.06228 0.0
C691 C 0.10636 0.13711 0.06388 0.0
C692 C 0.06214 0.12192 0.12892 0.0
C693 C 0.06831 0.13259 0.98443 0.0
C694 C 0.05778 0.15207 0.94558 0.0
C695 C 0.04713 0.15054 0.87516 0.0
C696 C 0.04704 0.12858 0.84425 0.0
C697 C 0.05688 0.10838 0.88483 0.0
C698 C 0.06798 0.11053 0.95501 0.0
H699 H 0.37387 0.96477 0.13349 0.0
H700 H 0.33591 0.03212 0.09262 0.0
H701 H 0.37097 0.04383 0.98769 0.0
H702 H 0.43752 0.98587 0.1155 0.0
H703 H 0.45243 0.9617 0.06735 0.0
H704 H 0.42245 0.95703 0.13032 0.0
H705 H 0.39923 0.94086 0.01935 0.0
H706 H 0.42937 0.94489 0.95645 0.0
H707 H 0.39938 0.95819 0.92753 0.0
H708 H 0.4137 0.05013 0.90036 0.0
H709 H 0.45715 0.04856 0.82491 0.0
H710 H 0.46709 0.97686 0.92317 0.0
C711 C 0.37246 0.98166 0.10053 0.0
C712 C 0.35201 0.99747 0.12061 0.0
C713 C 0.35106 0.01957 0.07717 0.0
C714 C 0.37108 0.02645 0.0181 0.0
C715 C 0.39174 0.01091 0.00273 0.0
C716 C 0.39222 0.98875 0.04157 0.0
C717 C 0.41725 0.97581 0.01728 0.0
C718 C 0.43335 0.96976 0.08675 0.0
C719 C 0.41093 0.95362 0.97778 0.0
C720 C 0.43112 0.99433 0.95988 0.0
C721 C 0.41613 0.01447 0.95236 0.0
C722 C 0.42539 0.03431 0.90508 0.0
C723 C 0.45026 0.03333 0.86298 0.0
C724 C 0.46564 0.01261 0.86806 0.0
C725 C 0.45587 0.99296 0.9178 0.0
H726 H 0.54712 0.36273 0.12627 0.0
H727 H 0.46492 0.34217 0.16317 0.0
H728 H 0.45475 0.37231 0.05812 0.0
H729 H 0.53664 0.42186 0.10884 0.0
H730 H 0.56382 0.42916 0.03661 0.0
H731 H 0.5652 0.40323 0.10261 0.0
H732 H 0.57313 0.37718 0.98735 0.0
H733 H 0.57241 0.40315 0.92073 0.0
H734 H 0.55062 0.37873 0.91319 0.0
H735 H 0.45368 0.4087 0.95762 0.0
H736 H 0.46203 0.44559 0.87148 0.0
H737 H 0.54473 0.44207 0.9107 0.0
C738 C 0.52713 0.36401 0.11016 0.0
C739 C 0.50683 0.35002 0.15161 0.0
C740 C 0.48078 0.35246 0.13069 0.0
C741 C 0.47486 0.36964 0.07163 0.0
C742 C 0.49528 0.38404 0.03436 0.0
C743 C 0.52097 0.38107 0.05253 0.0
C744 C 0.53913 0.39989 0.01055 0.0
C745 C 0.55193 0.41438 0.06809 0.0
C746 C 0.56005 0.38909 0.95463 0.0
C747 C 0.51968 0.41437 0.96701 0.0
C748 C 0.49452 0.40498 0.98019 0.0
C749 C 0.47338 0.41602 0.94664 0.0
C750 C 0.47825 0.43702 0.89814 0.0
C751 C 0.50397 0.44687 0.88485 0.0
C752 C 0.52476 0.43522 0.91999 0.0
H753 H 0.18092 0.53677 0.06114 0.0
H754 H 0.22043 0.47023 0.03458 0.0
H755 H 0.18587 0.45823 0.9542 0.0
H756 H 0.11755 0.51444 0.08836 0.0
H757 H 0.1025 0.53873 0.03606 0.0
H758 H 0.13212 0.54346 0.08131 0.0
H759 H 0.1557 0.56075 0.94997 0.0
H760 H 0.12591 0.55664 0.9046 0.0
H761 H 0.15631 0.54397 0.86643 0.0
H762 H 0.1438 0.45205 0.88954 0.0
H763 H 0.1009 0.45389 0.83392 0.0
H764 H 0.08919 0.52446 0.90676 0.0
C765 C 0.18268 0.51995 0.03642 0.0
C766 C 0.20337 0.50445 0.05338 0.0
C767 C 0.20496 0.48248 0.02102 0.0
C768 C 0.18528 0.47547 0.97605 0.0
C769 C 0.16438 0.49076 0.96373 0.0
C770 C 0.16329 0.51274 0.99188 0.0
C771 C 0.13823 0.52547 0.9744 0.0
C772 C 0.12163 0.53083 0.04951 0.0
C773 C 0.14441 0.54804 0.92063 0.0
C774 C 0.12503 0.50708 0.93324 0.0
C775 C 0.14036 0.48717 0.92743 0.0
C776 C 0.1318 0.46766 0.89316 0.0
C777 C 0.10728 0.46879 0.86235 0.0
C778 C 0.0916 0.48929 0.86611 0.0
C779 C 0.10062 0.5085 0.90295 0.0
H780 H 0.94705 0.81565 0.33889 0.0
H781 H 0.02508 0.787 0.29697 0.0
H782 H 0.04007 0.80876 0.40122 0.0
H783 H 0.96459 0.86858 0.34198 0.0
H784 H 0.94171 0.87859 0.41767 0.0
H785 H 0.93314 0.85403 0.3669 0.0
H786 H 0.92545 0.82722 0.49468 0.0
H787 H 0.93265 0.85201 0.54736 0.0
H788 H 0.95059 0.82495 0.56109 0.0
H789 H 0.05026 0.84352 0.46656 0.0
H790 H 0.05335 0.88254 0.51272 0.0
H791 H 0.96816 0.88914 0.52196 0.0
C792 C 0.96666 0.81256 0.35634 0.0
C793 C 0.98489 0.79958 0.31072 0.0
C794 C 0.01074 0.79647 0.33231 0.0
C795 C 0.01947 0.80907 0.39095 0.0
C796 C 1.0019 0.82419 0.42827 0.0
C797 C 0.97567 0.82532 0.41411 0.0
C798 C 0.96208 0.84587 0.45119 0.0
C799 C 0.94968 0.86274 0.3908 0.0
C800 C 0.94148 0.83698 0.51755 0.0
C801 C 0.98524 0.85733 0.4821 0.0
C802 C 1.00788 0.84434 0.46929 0.0
C803 C 0.03245 0.85318 0.48099 0.0
C804 C 0.03393 0.87558 0.50767 0.0
C805 C 0.0109 0.88907 0.52404 0.0
C806 C 0.98622 0.8795 0.51125 0.0
H807 H 0.6822 0.9696 0.25112 0.0
H808 H 0.73153 0.02087 0.34006 0.0
H809 H 0.69875 0.02309 0.45395 0.0
H810 H 0.62345 0.99633 0.2939 0.0
H811 H 0.604 0.97003 0.32169 0.0
H812 H 0.63316 0.96893 0.25519 0.0
H813 H 0.6522 0.93585 0.34463 0.0
H814 H 0.62283 0.93646 0.41097 0.0
H815 H 0.6547 0.94024 0.44519 0.0
H816 H 0.65745 0.02527 0.54303 0.0
H817 H 0.61277 0.02396 0.61115 0.0
H818 H 0.59001 0.96993 0.46877 0.0
C819 C 0.68651 0.98064 0.29616 0.0
C820 C 0.70951 0.99496 0.2873 0.0
C821 C 0.71432 0.00948 0.34648 0.0
C822 C 0.69569 0.01095 0.41097 0.0
C823 C 0.67259 0.99749 0.41586 0.0
C824 C 0.66819 0.9822 0.36091 0.0
C825 C 0.6409 0.97106 0.37647 0.0
C826 C 0.62441 0.97695 0.30773 0.0
C827 C 0.64278 0.94432 0.39547 0.0
C828 C 0.63016 0.98316 0.44718 0.0
C829 C 0.64885 0.99831 0.46881 0.0
C830 C 0.64293 0.01309 0.5277 0.0
C831 C 0.61741 0.01235 0.56557 0.0
C832 C 0.59803 0.99676 0.54542 0.0
C833 C 0.60459 0.98173 0.48607 0.0
H834 H 0.54126 0.6283 0.24371 0.0
H835 H 0.53098 0.6854 0.39404 0.0
H836 H 0.54295 0.65823 0.50414 0.0
H837 H 0.50718 0.5872 0.37474 0.0
H838 H 0.52689 0.56257 0.3462 0.0
H839 H 0.52322 0.5875 0.27758 0.0
H840 H 0.57393 0.5923 0.25519 0.0
H841 H 0.57783 0.56741 0.3243 0.0
H842 H 0.59264 0.59539 0.33672 0.0
H843 H 0.55262 0.62336 0.60014 0.0
H844 H 0.55336 0.58432 0.67466 0.0
H845 H 0.55019 0.55001 0.46286 0.0
C846 C 0.54128 0.63533 0.29963 0.0
C847 C 0.53465 0.6591 0.31 0.0
C848 C 0.53606 0.66739 0.38409 0.0
C849 C 0.54282 0.65203 0.44702 0.0
C850 C 0.54802 0.62845 0.43494 0.0
C851 C 0.54702 0.62019 0.36293 0.0
C852 C 0.54984 0.59368 0.36602 0.0
C853 C 0.52532 0.58207 0.33962 0.0
C854 C 0.57507 0.5868 0.3177 0.0
C855 C 0.55191 0.58805 0.45175 0.0
C856 C 0.55175 0.60837 0.49027 0.0
C857 C 0.55295 0.60744 0.57032 0.0
C858 C 0.55355 0.58523 0.61207 0.0
C859 C 0.5522 0.56435 0.57394 0.0
C860 C 0.55169 0.56579 0.49284 0.0
H861 H 0.87704 0.54691 0.35338 0.0
H862 H 0.83118 0.4882 0.47087 0.0
H863 H 0.86367 0.48281 0.5675 0.0
H864 H 0.93728 0.52375 0.36668 0.0
H865 H 0.95456 0.54987 0.38614 0.0
H866 H 0.92559 0.55248 0.33472 0.0
H867 H 0.90345 0.57886 0.4359 0.0
H868 H 0.93267 0.57694 0.48682 0.0
H869 H 0.90108 0.56873 0.53749 0.0
H870 H 0.90541 0.47751 0.62743 0.0
H871 H 0.94997 0.47788 0.67004 0.0
H872 H 0.96787 0.54308 0.52694 0.0
C873 C 0.87328 0.53372 0.40187 0.0
C874 C 0.8515 0.51814 0.40586 0.0
C875 C 0.84744 0.50056 0.46821 0.0
C876 C 0.86591 0.49729 0.5228 0.0
C877 C 0.88792 0.51213 0.51501 0.0
C878 C 0.89128 0.53056 0.45789 0.0
C879 C 0.91758 0.54295 0.45981 0.0
C880 C 0.93475 0.5422 0.38224 0.0
C881 C 0.91344 0.56838 0.48131 0.0
C882 C 0.92905 0.52783 0.52427 0.0
C883 C 0.91159 0.51004 0.55454 0.0
C884 C 0.91881 0.49187 0.60663 0.0
C885 C 0.94427 0.49214 0.62986 0.0
C886 C 0.96204 0.51083 0.60326 0.0
C887 C 0.95433 0.52899 0.54985 0.0
loop_
_geom_bond_atom_site_label_1
_geom_bond_atom_site_label_2
_geom_bond_distance
_geom_bond_site_symmetry_2
_ccdc_geom_bond_type
H0 C7 0.929 . S
H1 C10 0.930 . S
H2 C12 0.929 . S
H3 C4 0.969 . S
C4 H3 0.969 . S
C4 O5 1.550 . S
C4 H6 0.973 . S
O5 C4 1.550 . S
O5 C11 1.412 . S
H6 C4 0.973 . S
C7 H0 0.929 . S
C7 C8 1.400 . S
C7 C9 1.364 . S
C8 C7 1.400 . S
C8 C12 1.377 . S
C9 C7 1.364 . S
C9 C10 1.374 . S
C10 H1 0.930 . S
C10 C9 1.374 . S
C10 C11 1.383 . S
C11 O5 1.412 . S
C11 C10 1.383 . S
C11 C12 1.394 . S
C12 H2 0.929 . S
C12 C8 1.377 . S
C12 C11 1.394 . S
H13 C20 0.929 . S
H14 C23 0.930 . S
H15 C25 0.929 . S
H16 C17 0.969 . S
C17 H16 0.969 . S
C17 O18 1.550 1_556 S
C17 H19 0.973 . S
O18 C17 1.550 1_554 S
O18 C24 1.412 . S
H19 C17 0.973 . S
C20 H13 0.929 . S
C20 C21 1.400 . S
C20 C22 1.364 1_554 S
C21 C20 1.400 . S
C21 C25 1.377 . S
C22 C20 1.364 1_556 S
C22 C23 1.374 . S
C23 H14 0.930 . S
C23 C22 1.374 . S
C23 C24 1.383 1_556 S
C24 O18 1.412 . S
C24 C23 1.383 1_554 S
C24 C25 1.394 . S
C25 H15 0.929 . S
C25 C21 1.377 . S
C25 C24 1.394 . S
H26 C33 0.929 1_565 S
H27 C36 0.927 1_556 S
H28 C38 0.930 1_565 S
H29 C30 0.969 . S
C30 H29 0.969 . S
C30 O31 1.550 1_545 S
C30 H32 0.973 1_544 S
O31 C30 1.550 1_565 S
O31 C37 1.405 1_565 S
H32 C30 0.973 1_566 S
C33 H26 0.929 1_545 S
C33 C34 1.398 . S
C33 C35 1.364 . S
C34 C33 1.398 . S
C34 C38 1.377 . S
C35 C33 1.364 . S
C35 C36 1.374 1_545 S
C36 H27 0.927 1_554 S
C36 C35 1.374 1_565 S
C36 C37 1.380 1_565 S
C37 O31 1.405 1_545 S
C37 C36 1.380 1_545 S
C37 C38 1.396 . S
C38 H28 0.930 1_545 S
C38 C34 1.377 . S
C38 C37 1.396 . S
H39 C46 0.929 . S
H40 C49 0.930 1_556 S
H41 C51 0.929 . S
H42 C43 0.969 . S
C43 H42 0.969 . S
C43 O44 1.550 . S
C43 H45 0.973 1_554 S
O44 C43 1.550 . S
O44 C50 1.412 . S
H45 C43 0.973 1_556 S
C46 H39 0.929 . S
C46 C47 1.400 . S
C46 C48 1.364 . S
C47 C46 1.400 . S
C47 C51 1.377 . S
C48 C46 1.364 . S
C48 C49 1.374 . S
C49 H40 0.930 1_554 S
C49 C48 1.374 . S
C49 C50 1.383 . S
C50 O44 1.412 . S
C50 C49 1.383 . S
C50 C51 1.394 . S
C51 H41 0.929 . S
C51 C47 1.377 . S
C51 C50 1.394 . S
H52 C59 0.929 . S
H53 C62 0.930 . S
H54 C64 0.929 . S
H55 C56 0.969 . S
C56 H55 0.969 . S
C56 O57 1.550 . S
C56 H58 0.973 . S
O57 C56 1.550 . S
O57 C63 1.412 . S
H58 C56 0.973 . S
C59 H52 0.929 . S
C59 C60 1.400 . S
C59 C61 1.364 . S
C60 C59 1.400 . S
C60 C64 1.377 . S
C61 C59 1.364 . S
C61 C62 1.374 . S
C62 H53 0.930 . S
C62 C61 1.374 . S
C62 C63 1.383 . S
C63 O57 1.412 . S
C63 C62 1.383 . S
C63 C64 1.394 . S
C64 H54 0.929 . S
C64 C60 1.377 . S
C64 C63 1.394 . S
H65 C72 0.929 . S
H66 C75 0.930 . S
H67 C77 0.929 . S
H68 C69 0.969 . S
C69 H68 0.969 . S
C69 O70 1.550 . S
C69 H71 0.973 . S
O70 C69 1.550 . S
O70 C76 1.412 . S
H71 C69 0.973 . S
C72 H65 0.929 . S
C72 C73 1.400 . S
C72 C74 1.364 . S
C73 C72 1.400 . S
C73 C77 1.377 . S
C74 C72 1.364 . S
C74 C75 1.374 . S
C75 H66 0.930 . S
C75 C74 1.374 . S
C75 C76 1.383 . S
C76 O70 1.412 . S
C76 C75 1.383 . S
C76 C77 1.394 . S
C77 H67 0.929 . S
C77 C73 1.377 . S
C77 C76 1.394 . S
H78 C85 0.928 1_565 S
H79 C88 0.933 . S
H80 C90 0.927 1_565 S
H81 C82 0.969 . S
C82 H81 0.969 . S
C82 O83 1.550 1_545 S
C82 H84 0.973 1_545 S
O83 C82 1.550 1_565 S
O83 C89 1.402 1_565 S
H84 C82 0.973 1_565 S
C85 H78 0.928 1_545 S
C85 C86 1.401 . S
C85 C87 1.364 . S
C86 C85 1.401 . S
C86 C90 1.377 . S
C87 C85 1.364 . S
C87 C88 1.374 1_545 S
C88 H79 0.933 . S
C88 C87 1.374 1_565 S
C88 C89 1.384 1_565 S
C89 O83 1.402 1_545 S
C89 C88 1.384 1_545 S
C89 C90 1.392 . S
C90 H80 0.927 1_545 S
C90 C86 1.377 . S
C90 C89 1.392 . S
H91 C98 0.929 . S
H92 C101 0.930 . S
H93 C103 0.929 . S
H94 C95 0.969 . S
C95 H94 0.969 . S
C95 O96 1.550 . S
C95 H97 0.973 . S
O96 C95 1.550 . S
O96 C102 1.412 . S
H97 C95 0.973 . S
C98 H91 0.929 . S
C98 C99 1.400 . S
C98 C100 1.364 . S
C99 C98 1.400 . S
C99 C103 1.377 . S
C100 C98 1.364 . S
C100 C101 1.374 . S
C101 H92 0.930 . S
C101 C100 1.374 . S
C101 C102 1.383 . S
C102 O96 1.412 . S
C102 C101 1.383 . S
C102 C103 1.394 . S
C103 H93 0.929 . S
C103 C99 1.377 . S
C103 C102 1.394 . S
C104 O120 1.251 . S
C104 O122 1.254 . S
N105 C106 1.333 . S
N105 C110 1.307 1_455 S
N105 Zn111 2.020 . S
C106 N105 1.333 . S
C106 C107 1.379 . S
C106 H124 0.952 . S
C107 C106 1.379 . S
C107 C108 1.390 1_455 S
C107 H134 0.949 . S
C108 C107 1.390 1_655 S
C108 C109 1.357 . S
C109 C108 1.357 . S
C109 C110 1.370 . S
C109 H135 0.950 . S
C110 N105 1.307 1_655 S
C110 C109 1.370 . S
C110 H128 0.948 . S
Zn111 N105 2.020 . S
Zn111 O120 2.039 . S
Zn111 O126 2.034 . S
Zn111 O130 2.025 1_565 S
Zn111 O132 2.024 1_455 S
C112 O131 1.246 . S
C112 O132 1.249 1_545 S
N113 C114 1.307 . S
N113 C115 1.333 . S
N113 Zn119 2.020 . S
C114 N113 1.307 . S
C114 C118 1.370 1_556 S
C114 H125 0.948 . S
C115 N113 1.333 . S
C115 C116 1.379 . S
C115 H123 0.952 . S
C116 C115 1.379 . S
C116 C117 1.390 1_556 S
C116 H136 0.949 . S
C117 C116 1.390 1_554 S
C117 C118 1.357 . S
C118 C114 1.370 1_554 S
C118 C117 1.357 . S
C118 H137 0.950 . S
Zn119 N113 2.020 . S
Zn119 O122 2.025 1_545 S
Zn119 O127 2.024 . S
Zn119 O129 2.039 . S
Zn119 O131 2.034 1_455 S
O120 C104 1.251 . S
O120 Zn111 2.039 . S
C121 O126 1.246 . S
C121 O127 1.249 1_565 S
O122 C104 1.254 . S
O122 Zn119 2.025 1_565 S
H123 C115 0.952 . S
H124 C106 0.952 . S
H125 C114 0.948 . S
O126 Zn111 2.034 . S
O126 C121 1.246 . S
O127 Zn119 2.024 . S
O127 C121 1.249 1_545 S
H128 C110 0.948 . S
O129 Zn119 2.039 . S
O129 C133 1.251 . S
O130 Zn111 2.025 1_545 S
O130 C133 1.254 . S
O131 C112 1.246 . S
O131 Zn119 2.034 1_655 S
O132 Zn111 2.024 1_655 S
O132 C112 1.249 1_565 S
C133 O129 1.251 . S
C133 O130 1.254 . S
H134 C107 0.949 . S
H135 C109 0.950 . S
H136 C116 0.949 . S
H137 C118 0.950 . S
C138 O154 1.251 1_565 S
C138 O156 1.254 . S
N139 C140 1.333 . S
N139 C144 1.307 . S
N139 Zn145 2.020 . S
C140 N139 1.333 . S
C140 C141 1.379 . S
C140 H158 0.952 . S
C141 C140 1.379 . S
C141 C142 1.390 . S
C141 H168 0.949 . S
C142 C141 1.390 . S
C142 C143 1.357 . S
C143 C142 1.357 . S
C143 C144 1.370 . S
C143 H169 0.950 . S
C144 N139 1.307 . S
C144 C143 1.370 . S
C144 H162 0.948 . S
Zn145 N139 2.020 . S
Zn145 O154 2.039 . S
Zn145 O160 2.034 . S
Zn145 O164 2.025 . S
Zn145 O166 2.024 . S
C146 O165 1.246 1_545 S
C146 O166 1.249 . S
N147 C148 1.307 . S
N147 C149 1.333 . S
N147 Zn153 2.020 . S
C148 N147 1.307 . S
C148 C152 1.370 . S
C148 H159 0.948 . S
C149 N147 1.333 . S
C149 C150 1.379 . S
C149 H157 0.952 . S
C150 C149 1.379 . S
C150 C151 1.390 . S
C150 H170 0.949 . S
C151 C150 1.390 . S
C151 C152 1.357 . S
C152 C148 1.370 . S
C152 C151 1.357 . S
C152 H171 0.950 . S
Zn153 N147 2.020 . S
Zn153 O156 2.025 . S
Zn153 O161 2.024 . S
Zn153 O163 2.039 . S
Zn153 O165 2.034 . S
O154 C138 1.251 1_545 S
O154 Zn145 2.039 . S
C155 O160 1.246 1_565 S
C155 O161 1.249 . S
O156 C138 1.254 . S
O156 Zn153 2.025 . S
H157 C149 0.952 . S
H158 C140 0.952 . S
H159 C148 0.948 . S
O160 Zn145 2.034 . S
O160 C155 1.246 1_545 S
O161 Zn153 2.024 . S
O161 C155 1.249 . S
H162 C144 0.948 . S
O163 Zn153 2.039 . S
O163 C167 1.251 1_565 S
O164 Zn145 2.025 . S
O164 C167 1.254 . S
O165 C146 1.246 1_565 S
O165 Zn153 2.034 . S
O166 Zn145 2.024 . S
O166 C146 1.249 . S
C167 O163 1.251 1_545 S
C167 O164 1.254 . S
H168 C141 0.949 . S
H169 C143 0.950 . S
H170 C150 0.949 . S
H171 C152 0.950 . S
C172 O188 1.251 . S
C172 O190 1.254 . S
N173 C174 1.333 . S
N173 C178 1.307 . S
N173 Zn179 2.020 . S
C174 N173 1.333 . S
C174 C175 1.379 . S
C174 H192 0.952 . S
C175 C174 1.379 . S
C175 C176 1.390 . S
C175 H202 0.949 . S
C176 C175 1.390 . S
C176 C177 1.357 . S
C177 C176 1.357 . S
C177 C178 1.370 . S
C177 H203 0.950 . S
C178 N173 1.307 . S
C178 C177 1.370 . S
C178 H196 0.948 . S
Zn179 N173 2.020 . S
Zn179 O188 2.039 . S
Zn179 O194 2.034 . S
Zn179 O198 2.025 . S
Zn179 O200 2.024 . S
C180 O199 1.246 . S
C180 O200 1.249 . S
N181 C182 1.307 . S
N181 C183 1.333 . S
N181 Zn187 2.020 . S
C182 N181 1.307 . S
C182 C186 1.370 . S
C182 H193 0.948 . S
C183 N181 1.333 . S
C183 C184 1.379 . S
C183 H191 0.952 . S
C184 C183 1.379 . S
C184 C185 1.390 . S
C184 H204 0.949 . S
C185 C184 1.390 . S
C185 C186 1.357 . S
C186 C182 1.370 . S
C186 C185 1.357 . S
C186 H205 0.950 . S
Zn187 N181 2.020 . S
Zn187 O190 2.025 . S
Zn187 O195 2.024 . S
Zn187 O197 2.039 . S
Zn187 O199 2.034 . S
O188 C172 1.251 . S
O188 Zn179 2.039 . S
C189 O194 1.246 . S
C189 O195 1.249 . S
O190 C172 1.254 . S
O190 Zn187 2.025 . S
H191 C183 0.952 . S
H192 C174 0.952 . S
H193 C182 0.948 . S
O194 Zn179 2.034 . S
O194 C189 1.246 . S
O195 Zn187 2.024 . S
O195 C189 1.249 . S
H196 C178 0.948 . S
O197 Zn187 2.039 . S
O197 C201 1.251 . S
O198 Zn179 2.025 . S
O198 C201 1.254 . S
O199 C180 1.246 . S
O199 Zn187 2.034 . S
O200 Zn179 2.024 . S
O200 C180 1.249 . S
C201 O197 1.251 . S
C201 O198 1.254 . S
H202 C175 0.949 . S
H203 C177 0.950 . S
H204 C184 0.949 . S
H205 C186 0.950 . S
C206 O222 1.251 . S
C206 O224 1.254 . S
N207 C208 1.333 . S
N207 C212 1.307 . S
N207 Zn213 2.020 . S
C208 N207 1.333 . S
C208 C209 1.379 . S
C208 H226 0.952 . S
C209 C208 1.379 . S
C209 C210 1.390 . S
C209 H236 0.949 . S
C210 C209 1.390 . S
C210 C211 1.357 . S
C211 C210 1.357 . S
C211 C212 1.370 . S
C211 H237 0.950 . S
C212 N207 1.307 . S
C212 C211 1.370 . S
C212 H230 0.948 . S
Zn213 N207 2.020 . S
Zn213 O222 2.039 . S
Zn213 O228 2.034 1_455 S
Zn213 O232 2.025 1_455 S
Zn213 O234 2.024 . S
C214 O233 1.246 . S
C214 O234 1.249 . S
N215 C216 1.307 . S
N215 C217 1.333 1_455 S
N215 Zn221 2.020 . S
C216 N215 1.307 . S
C216 C220 1.370 . S
C216 H227 0.948 . S
C217 N215 1.333 1_655 S
C217 C218 1.379 . S
C217 H225 0.952 . S
C218 C217 1.379 . S
C218 C219 1.390 1_655 S
C218 H238 0.949 . S
C219 C218 1.390 1_455 S
C219 C220 1.357 . S
C220 C216 1.370 . S
C220 C219 1.357 . S
C220 H239 0.950 . S
Zn221 N215 2.020 . S
Zn221 O224 2.025 . S
Zn221 O229 2.024 1_455 S
Zn221 O231 2.039 1_455 S
Zn221 O233 2.034 . S
O222 C206 1.251 . S
O222 Zn213 2.039 . S
C223 O228 1.246 . S
C223 O229 1.249 . S
O224 C206 1.254 . S
O224 Zn221 2.025 . S
H225 C217 0.952 . S
H226 C208 0.952 . S
H227 C216 0.948 . S
O228 Zn213 2.034 1_655 S
O228 C223 1.246 . S
O229 Zn221 2.024 1_655 S
O229 C223 1.249 . S
H230 C212 0.948 . S
O231 Zn221 2.039 1_655 S
O231 C235 1.251 . S
O232 Zn213 2.025 1_655 S
O232 C235 1.254 . S
O233 C214 1.246 . S
O233 Zn221 2.034 . S
O234 Zn213 2.024 . S
O234 C214 1.249 . S
C235 O231 1.251 . S
C235 O232 1.254 . S
H236 C209 0.949 . S
H237 C211 0.950 . S
H238 C218 0.949 . S
H239 C220 0.950 . S
H240 C252 0.930 . S
H241 C254 0.930 . S
H242 C255 0.930 . S
H243 C259 0.959 . S
H244 C259 0.959 . S
H245 C259 0.961 . S
H246 C260 0.960 . S
H247 C260 0.961 . S
H248 C260 0.959 . S
H249 C263 0.929 . S
H250 C264 0.931 . S
H251 C266 0.930 . S
C252 H240 0.930 . S
C252 C253 1.399 1_565 S
C252 C257 1.399 . S
C253 C252 1.399 1_545 S
C253 C254 1.376 . S
C254 H241 0.930 . S
C254 C253 1.376 . S
C254 C255 1.388 . S
C255 H242 0.930 . S
C255 C254 1.388 . S
C255 C256 1.390 . S
C256 C255 1.390 . S
C256 C257 1.394 1_545 S
C256 C262 1.465 . S
C257 C252 1.399 . S
C257 C256 1.394 1_565 S
C257 C258 1.516 . S
C258 C257 1.516 . S
C258 C259 1.502 . S
C258 C260 1.561 . S
C258 C261 1.526 . S
C259 H243 0.959 . S
C259 H244 0.959 . S
C259 H245 0.961 . S
C259 C258 1.502 . S
C260 H246 0.960 . S
C260 H247 0.961 . S
C260 H248 0.959 . S
C260 C258 1.561 . S
C261 C258 1.526 . S
C261 C262 1.396 1_565 S
C261 C266 1.390 . S
C262 C256 1.465 . S
C262 C261 1.396 1_545 S
C262 C263 1.399 . S
C263 H249 0.929 . S
C263 C262 1.399 . S
C263 C264 1.385 . S
C264 H250 0.931 . S
C264 C263 1.385 . S
C264 C265 1.353 1_545 S
C265 C264 1.353 1_565 S
C265 C266 1.417 . S
C266 H251 0.930 . S
C266 C261 1.390 . S
C266 C265 1.417 . S
H267 C279 0.930 . S
H268 C281 0.930 . S
H269 C282 0.930 . S
H270 C286 0.959 . S
H271 C286 0.959 . S
H272 C286 0.961 . S
H273 C287 0.960 . S
H274 C287 0.961 . S
H275 C287 0.959 . S
H276 C290 0.929 . S
H277 C291 0.931 . S
H278 C293 0.930 . S
C279 H267 0.930 . S
C279 C280 1.399 . S
C279 C284 1.399 . S
C280 C279 1.399 . S
C280 C281 1.376 . S
C281 H268 0.930 . S
C281 C280 1.376 . S
C281 C282 1.388 . S
C282 H269 0.930 . S
C282 C281 1.388 . S
C282 C283 1.390 . S
C283 C282 1.390 . S
C283 C284 1.394 . S
C283 C289 1.465 . S
C284 C279 1.399 . S
C284 C283 1.394 . S
C284 C285 1.516 . S
C285 C284 1.516 . S
C285 C286 1.502 . S
C285 C287 1.561 . S
C285 C288 1.526 . S
C286 H270 0.959 . S
C286 H271 0.959 . S
C286 H272 0.961 . S
C286 C285 1.502 . S
C287 H273 0.960 . S
C287 H274 0.961 . S
C287 H275 0.959 . S
C287 C285 1.561 . S
C288 C285 1.526 . S
C288 C289 1.396 . S
C288 C293 1.390 . S
C289 C283 1.465 . S
C289 C288 1.396 . S
C289 C290 1.399 . S
C290 H276 0.929 . S
C290 C289 1.399 . S
C290 C291 1.385 . S
C291 H277 0.931 . S
C291 C290 1.385 . S
C291 C292 1.389 . S
C292 C291 1.389 . S
C292 C293 1.387 . S
C293 H278 0.930 . S
C293 C288 1.390 . S
C293 C292 1.387 . S
H294 C306 0.930 . S
H295 C308 0.930 . S
H296 C309 0.930 . S
H297 C313 0.959 . S
H298 C313 0.959 . S
H299 C313 0.961 . S
H300 C314 0.960 . S
H301 C314 0.961 . S
H302 C314 0.959 . S
H303 C317 0.929 . S
H304 C318 0.931 . S
H305 C320 0.930 . S
C306 H294 0.930 . S
C306 C307 1.399 . S
C306 C311 1.399 . S
C307 C306 1.399 . S
C307 C308 1.376 . S
C308 H295 0.930 . S
C308 C307 1.376 . S
C308 C309 1.388 . S
C309 H296 0.930 . S
C309 C308 1.388 . S
C309 C310 1.390 . S
C310 C309 1.390 . S
C310 C311 1.394 . S
C310 C316 1.465 . S
C311 C306 1.399 . S
C311 C310 1.394 . S
C311 C312 1.516 . S
C312 C311 1.516 . S
C312 C313 1.502 . S
C312 C314 1.561 . S
C312 C315 1.526 . S
C313 H297 0.959 . S
C313 H298 0.959 . S
C313 H299 0.961 . S
C313 C312 1.502 . S
C314 H300 0.960 . S
C314 H301 0.961 . S
C314 H302 0.959 . S
C314 C312 1.561 . S
C315 C312 1.526 . S
C315 C316 1.396 . S
C315 C320 1.390 . S
C316 C310 1.465 . S
C316 C315 1.396 . S
C316 C317 1.399 . S
C317 H303 0.929 . S
C317 C316 1.399 . S
C317 C318 1.385 . S
C318 H304 0.931 . S
C318 C317 1.385 . S
C318 C319 1.389 . S
C319 C318 1.389 . S
C319 C320 1.387 . S
C320 H305 0.930 . S
C320 C315 1.390 . S
C320 C319 1.387 . S
H321 C333 0.930 . S
H322 C335 0.930 . S
H323 C336 0.930 . S
H324 C340 0.939 1_655 S
H325 C340 0.959 . S
H326 C340 0.961 . S
H327 C341 0.960 . S
H328 C341 0.961 . S
H329 C341 0.959 . S
H330 C344 0.929 . S
H331 C345 0.931 . S
H332 C347 0.930 . S
C333 H321 0.930 . S
C333 C334 1.399 . S
C333 C338 1.399 . S
C334 C333 1.399 . S
C334 C335 1.376 . S
C335 H322 0.930 . S
C335 C334 1.376 . S
C335 C336 1.388 . S
C336 H323 0.930 . S
C336 C335 1.388 . S
C336 C337 1.390 . S
C337 C336 1.390 . S
C337 C338 1.394 . S
C337 C343 1.465 . S
C338 C333 1.399 . S
C338 C337 1.394 . S
C338 C339 1.516 . S
C339 C338 1.516 . S
C339 C340 1.502 . S
C339 C341 1.561 . S
C339 C342 1.526 . S
C340 H324 0.939 1_455 S
C340 H325 0.959 . S
C340 H326 0.961 . S
C340 C339 1.502 . S
C341 H327 0.960 . S
C341 H328 0.961 . S
C341 H329 0.959 . S
C341 C339 1.561 . S
C342 C339 1.526 . S
C342 C343 1.396 . S
C342 C347 1.390 . S
C343 C337 1.465 . S
C343 C342 1.396 . S
C343 C344 1.399 . S
C344 H330 0.929 . S
C344 C343 1.399 . S
C344 C345 1.385 . S
C345 H331 0.931 . S
C345 C344 1.385 . S
C345 C346 1.389 . S
C346 C345 1.389 . S
C346 C347 1.387 . S
C347 H332 0.930 . S
C347 C342 1.390 . S
C347 C346 1.387 . S
H348 C360 0.930 . S
H349 C362 0.930 . S
H350 C363 0.930 . S
H351 C367 0.959 . S
H352 C367 0.959 . S
H353 C367 0.961 . S
H354 C368 0.960 . S
H355 C368 0.961 . S
H356 C368 0.959 . S
H357 C371 0.929 . S
H358 C372 0.931 . S
H359 C374 0.930 . S
C360 H348 0.930 . S
C360 C361 1.398 1_545 S
C360 C365 1.399 . S
C361 C360 1.398 1_565 S
C361 C362 1.382 1_556 S
C362 H349 0.930 . S
C362 C361 1.382 1_554 S
C362 C363 1.388 . S
C363 H350 0.930 . S
C363 C362 1.388 . S
C363 C364 1.390 1_554 S
C364 C363 1.390 1_556 S
C364 C365 1.394 1_565 S
C364 C370 1.465 . S
C365 C360 1.399 . S
C365 C364 1.394 1_545 S
C365 C366 1.516 . S
C366 C365 1.516 . S
C366 C367 1.502 . S
C366 C368 1.561 . S
C366 C369 1.526 . S
C367 H351 0.959 . S
C367 H352 0.959 . S
C367 H353 0.961 . S
C367 C366 1.502 . S
C368 H354 0.960 . S
C368 H355 0.961 . S
C368 H356 0.959 . S
C368 C366 1.561 . S
C369 C366 1.526 . S
C369 C370 1.396 1_545 S
C369 C374 1.390 . S
C370 C364 1.465 . S
C370 C369 1.396 1_565 S
C370 C371 1.399 . S
C371 H357 0.929 . S
C371 C370 1.399 . S
C371 C372 1.385 . S
C372 H358 0.931 . S
C372 C371 1.385 . S
C372 C373 1.389 1_565 S
C373 C372 1.389 1_545 S
C373 C374 1.387 . S
C374 H359 0.930 . S
C374 C369 1.390 . S
C374 C373 1.387 . S
H375 C387 0.930 . S
H376 C389 0.930 . S
H377 C390 0.930 . S
H378 C394 0.959 1_556 S
H379 C394 0.959 . S
H380 C394 0.961 . S
H381 C395 0.960 . S
H382 C395 0.961 . S
H383 C395 0.959 . S
H384 C398 0.929 . S
H385 C399 0.931 . S
H386 C401 0.930 . S
C387 H375 0.930 . S
C387 C388 1.399 . S
C387 C392 1.399 1_554 S
C388 C387 1.399 . S
C388 C389 1.376 1_554 S
C389 H376 0.930 . S
C389 C388 1.376 1_556 S
C389 C390 1.388 . S
C390 H377 0.930 . S
C390 C389 1.388 . S
C390 C391 1.390 . S
C391 C390 1.390 . S
C391 C392 1.394 . S
C391 C397 1.465 . S
C392 C387 1.399 1_556 S
C392 C391 1.394 . S
C392 C393 1.516 1_556 S
C393 C392 1.516 1_554 S
C393 C394 1.502 . S
C393 C395 1.561 . S
C393 C396 1.526 1_554 S
C394 H378 0.959 1_554 S
C394 H379 0.959 . S
C394 H380 0.961 . S
C394 C393 1.502 . S
C395 H381 0.960 . S
C395 H382 0.961 . S
C395 H383 0.959 . S
C395 C393 1.561 . S
C396 C393 1.526 1_556 S
C396 C397 1.396 . S
C396 C401 1.390 . S
C397 C391 1.465 . S
C397 C396 1.396 . S
C397 C398 1.399 . S
C398 H384 0.929 . S
C398 C397 1.399 . S
C398 C399 1.385 . S
C399 H385 0.931 . S
C399 C398 1.385 . S
C399 C400 1.389 . S
C400 C399 1.389 . S
C400 C401 1.387 . S
C401 H386 0.930 . S
C401 C396 1.390 . S
C401 C400 1.387 . S
H402 C414 0.930 . S
H403 C416 0.930 . S
H404 C417 0.930 . S
H405 C421 0.959 . S
H406 C421 0.959 1_556 S
H407 C421 0.961 . S
H408 C422 0.960 . S
H409 C422 0.961 . S
H410 C422 0.959 . S
H411 C425 0.929 . S
H412 C426 0.931 . S
H413 C428 0.930 . S
C414 H402 0.930 . S
C414 C415 1.399 . S
C414 C419 1.399 1_554 S
C415 C414 1.399 . S
C415 C416 1.376 . S
C416 H403 0.930 . S
C416 C415 1.376 . S
C416 C417 1.388 1_554 S
C417 H404 0.930 . S
C417 C416 1.388 1_556 S
C417 C418 1.390 . S
C418 C417 1.390 . S
C418 C419 1.394 . S
C418 C424 1.465 . S
C419 C414 1.399 1_556 S
C419 C418 1.394 . S
C419 C420 1.516 . S
C420 C419 1.516 . S
C420 C421 1.502 1_556 S
C420 C422 1.561 . S
C420 C423 1.526 . S
C421 H405 0.959 . S
C421 H406 0.959 1_554 S
C421 H407 0.961 . S
C421 C420 1.502 1_554 S
C422 H408 0.960 . S
C422 H409 0.961 . S
C422 H410 0.959 . S
C422 C420 1.561 . S
C423 C420 1.526 . S
C423 C424 1.396 . S
C423 C428 1.390 . S
C424 C418 1.465 . S
C424 C423 1.396 . S
C424 C425 1.399 . S
C425 H411 0.929 . S
C425 C424 1.399 . S
C425 C426 1.385 . S
C426 H412 0.931 . S
C426 C425 1.385 . S
C426 C427 1.389 . S
C427 C426 1.389 . S
C427 C428 1.387 . S
C428 H413 0.930 . S
C428 C423 1.390 . S
C428 C427 1.387 . S
H429 C441 0.930 . S
H430 C443 0.930 1_554 S
H431 C444 0.936 1_554 S
H432 C448 0.959 . S
H433 C448 0.959 . S
H434 C448 0.961 . S
H435 C449 0.966 . S
H436 C449 0.960 . S
H437 C449 0.936 1_455 S
H438 C452 0.929 . S
H439 C453 0.931 . S
H440 C455 0.930 . S
C441 H429 0.930 . S
C441 C442 1.399 . S
C441 C446 1.399 . S
C442 C441 1.399 . S
C442 C443 1.376 . S
C443 H430 0.930 1_556 S
C443 C442 1.376 . S
C443 C444 1.388 . S
C444 H431 0.936 1_556 S
C444 C443 1.388 . S
C444 C445 1.390 . S
C445 C444 1.390 . S
C445 C446 1.394 . S
C445 C451 1.465 . S
C446 C441 1.399 . S
C446 C445 1.394 . S
C446 C447 1.516 . S
C447 C446 1.516 . S
C447 C448 1.502 . S
C447 C449 1.577 . S
C447 C450 1.526 . S
C448 H432 0.959 . S
C448 H433 0.959 . S
C448 H434 0.961 . S
C448 C447 1.502 . S
C449 H435 0.966 . S
C449 H436 0.960 . S
C449 H437 0.936 1_655 S
C449 C447 1.577 . S
C450 C447 1.526 . S
C450 C451 1.396 . S
C450 C455 1.390 . S
C451 C445 1.465 . S
C451 C450 1.396 . S
C451 C452 1.399 1_655 S
C452 H438 0.929 . S
C452 C451 1.399 1_455 S
C452 C453 1.385 . S
C453 H439 0.931 . S
C453 C452 1.385 . S
C453 C454 1.386 1_455 S
C454 C453 1.386 1_655 S
C454 C455 1.391 . S
C455 H440 0.930 . S
C455 C450 1.390 . S
C455 C454 1.391 . S
H456 C468 0.930 . S
H457 C470 0.930 . S
H458 C471 0.930 . S
H459 C475 0.959 . S
H460 C475 0.959 . S
H461 C475 0.961 . S
H462 C476 0.960 . S
H463 C476 0.961 . S
H464 C476 0.959 . S
H465 C479 0.929 . S
H466 C480 0.931 . S
H467 C482 0.930 . S
C468 H456 0.930 . S
C468 C469 1.399 . S
C468 C473 1.399 . S
C469 C468 1.399 . S
C469 C470 1.376 . S
C470 H457 0.930 . S
C470 C469 1.376 . S
C470 C471 1.388 . S
C471 H458 0.930 . S
C471 C470 1.388 . S
C471 C472 1.390 . S
C472 C471 1.390 . S
C472 C473 1.394 . S
C472 C478 1.465 . S
C473 C468 1.399 . S
C473 C472 1.394 . S
C473 C474 1.516 . S
C474 C473 1.516 . S
C474 C475 1.502 . S
C474 C476 1.561 . S
C474 C477 1.526 . S
C475 H459 0.959 . S
C475 H460 0.959 . S
C475 H461 0.961 . S
C475 C474 1.502 . S
C476 H462 0.960 . S
C476 H463 0.961 . S
C476 H464 0.959 . S
C476 C474 1.561 . S
C477 C474 1.526 . S
C477 C478 1.396 . S
C477 C482 1.390 . S
C478 C472 1.465 . S
C478 C477 1.396 . S
C478 C479 1.399 . S
C479 H465 0.929 . S
C479 C478 1.399 . S
C479 C480 1.385 . S
C480 H466 0.931 . S
C480 C479 1.385 . S
C480 C481 1.389 . S
C481 C480 1.389 . S
C481 C482 1.387 . S
C482 H467 0.930 . S
C482 C477 1.390 . S
C482 C481 1.387 . S
H483 C495 0.930 . S
H484 C497 0.930 . S
H485 C498 0.930 . S
H486 C502 0.959 . S
H487 C502 0.959 . S
H488 C502 0.961 . S
H489 C503 0.960 . S
H490 C503 0.961 . S
H491 C503 0.959 . S
H492 C506 0.929 . S
H493 C507 0.931 . S
H494 C509 0.930 . S
C495 H483 0.930 . S
C495 C496 1.399 1_565 S
C495 C500 1.399 . S
C496 C495 1.399 1_545 S
C496 C497 1.376 . S
C497 H484 0.930 . S
C497 C496 1.376 . S
C497 C498 1.388 . S
C498 H485 0.930 . S
C498 C497 1.388 . S
C498 C499 1.390 . S
C499 C498 1.390 . S
C499 C500 1.394 1_545 S
C499 C505 1.465 . S
C500 C495 1.399 . S
C500 C499 1.394 1_565 S
C500 C501 1.516 . S
C501 C500 1.516 . S
C501 C502 1.502 . S
C501 C503 1.561 . S
C501 C504 1.526 . S
C502 H486 0.959 . S
C502 H487 0.959 . S
C502 H488 0.961 . S
C502 C501 1.502 . S
C503 H489 0.960 . S
C503 H490 0.961 . S
C503 H491 0.959 . S
C503 C501 1.561 . S
C504 C501 1.526 . S
C504 C505 1.396 1_565 S
C504 C509 1.390 . S
C505 C499 1.465 . S
C505 C504 1.396 1_545 S
C505 C506 1.399 . S
C506 H492 0.929 . S
C506 C505 1.399 . S
C506 C507 1.385 . S
C507 H493 0.931 . S
C507 C506 1.385 . S
C507 C508 1.389 1_545 S
C508 C507 1.389 1_565 S
C508 C509 1.387 . S
C509 H494 0.930 . S
C509 C504 1.390 . S
C509 C508 1.387 . S
H510 C522 0.930 . S
H511 C524 0.930 . S
H512 C525 0.930 . S
H513 C529 0.959 . S
H514 C529 0.959 . S
H515 C529 0.961 . S
H516 C530 0.960 . S
H517 C530 0.961 . S
H518 C530 0.959 . S
H519 C533 0.929 . S
H520 C534 0.931 . S
H521 C536 0.930 . S
C522 H510 0.930 . S
C522 C523 1.399 . S
C522 C527 1.399 . S
C523 C522 1.399 . S
C523 C524 1.376 . S
C524 H511 0.930 . S
C524 C523 1.376 . S
C524 C525 1.388 . S
C525 H512 0.930 . S
C525 C524 1.388 . S
C525 C526 1.390 . S
C526 C525 1.390 . S
C526 C527 1.394 . S
C526 C532 1.465 . S
C527 C522 1.399 . S
C527 C526 1.394 . S
C527 C528 1.516 . S
C528 C527 1.516 . S
C528 C529 1.502 . S
C528 C530 1.561 . S
C528 C531 1.526 . S
C529 H513 0.959 . S
C529 H514 0.959 . S
C529 H515 0.961 . S
C529 C528 1.502 . S
C530 H516 0.960 . S
C530 H517 0.961 . S
C530 H518 0.959 . S
C530 C528 1.561 . S
C531 C528 1.526 . S
C531 C532 1.396 . S
C531 C536 1.390 . S
C532 C526 1.465 . S
C532 C531 1.396 . S
C532 C533 1.399 . S
C533 H519 0.929 . S
C533 C532 1.399 . S
C533 C534 1.385 . S
C534 H520 0.931 . S
C534 C533 1.385 . S
C534 C535 1.389 . S
C535 C534 1.389 . S
C535 C536 1.387 . S
C536 H521 0.930 . S
C536 C531 1.390 . S
C536 C535 1.387 . S
H537 C549 0.930 . S
H538 C551 0.930 . S
H539 C552 0.930 . S
H540 C556 0.959 . S
H541 C556 0.959 . S
H542 C556 0.961 . S
H543 C557 0.960 . S
H544 C557 0.961 . S
H545 C557 0.959 . S
H546 C560 0.929 . S
H547 C561 0.931 . S
H548 C563 0.930 . S
C549 H537 0.930 . S
C549 C550 1.399 . S
C549 C554 1.399 . S
C550 C549 1.399 . S
C550 C551 1.376 . S
C551 H538 0.930 . S
C551 C550 1.376 . S
C551 C552 1.388 . S
C552 H539 0.930 . S
C552 C551 1.388 . S
C552 C553 1.390 . S
C553 C552 1.390 . S
C553 C554 1.394 . S
C553 C559 1.465 . S
C554 C549 1.399 . S
C554 C553 1.394 . S
C554 C555 1.516 . S
C555 C554 1.516 . S
C555 C556 1.502 . S
C555 C557 1.561 . S
C555 C558 1.526 . S
C556 H540 0.959 . S
C556 H541 0.959 . S
C556 H542 0.961 . S
C556 C555 1.502 . S
C557 H543 0.960 . S
C557 H544 0.961 . S
C557 H545 0.959 . S
C557 C555 1.561 . S
C558 C555 1.526 . S
C558 C559 1.396 . S
C558 C563 1.390 . S
C559 C553 1.465 . S
C559 C558 1.396 . S
C559 C560 1.399 . S
C560 H546 0.929 . S
C560 C559 1.399 . S
C560 C561 1.385 . S
C561 H547 0.931 . S
C561 C560 1.385 . S
C561 C562 1.389 . S
C562 C561 1.389 . S
C562 C563 1.387 . S
C563 H548 0.930 . S
C563 C558 1.390 . S
C563 C562 1.387 . S
H564 C576 0.930 . S
H565 C578 0.930 . S
H566 C579 0.930 . S
H567 C583 0.959 . S
H568 C583 0.959 . S
H569 C583 0.961 . S
H570 C584 0.960 . S
H571 C584 0.961 . S
H572 C584 0.959 1_655 S
H573 C587 0.929 . S
H574 C588 0.931 . S
H575 C590 0.930 . S
C576 H564 0.930 . S
C576 C577 1.399 . S
C576 C581 1.399 . S
C577 C576 1.399 . S
C577 C578 1.376 . S
C578 H565 0.930 . S
C578 C577 1.376 . S
C578 C579 1.388 . S
C579 H566 0.930 . S
C579 C578 1.388 . S
C579 C580 1.390 . S
C580 C579 1.390 . S
C580 C581 1.394 . S
C580 C586 1.465 . S
C581 C576 1.399 . S
C581 C580 1.394 . S
C581 C582 1.516 1_655 S
C582 C581 1.516 1_455 S
C582 C583 1.502 . S
C582 C584 1.561 . S
C582 C585 1.526 . S
C583 H567 0.959 . S
C583 H568 0.959 . S
C583 H569 0.961 . S
C583 C582 1.502 . S
C584 H570 0.960 . S
C584 H571 0.961 . S
C584 H572 0.959 1_455 S
C584 C582 1.561 . S
C585 C582 1.526 . S
C585 C586 1.396 1_455 S
C585 C590 1.390 . S
C586 C580 1.465 . S
C586 C585 1.396 1_655 S
C586 C587 1.399 . S
C587 H573 0.929 . S
C587 C586 1.399 . S
C587 C588 1.385 . S
C588 H574 0.931 . S
C588 C587 1.385 . S
C588 C589 1.389 1_655 S
C589 C588 1.389 1_455 S
C589 C590 1.387 . S
C590 H575 0.930 . S
C590 C585 1.390 . S
C590 C589 1.387 . S
H591 C603 0.930 1_554 S
H592 C605 0.930 . S
H593 C606 0.930 . S
H594 C610 0.959 . S
H595 C610 0.959 1_556 S
H596 C610 0.961 . S
H597 C611 0.960 . S
H598 C611 0.961 . S
H599 C611 0.959 . S
H600 C614 0.929 . S
H601 C615 0.931 . S
H602 C617 0.930 . S
C603 H591 0.930 1_556 S
C603 C604 1.399 1_545 S
C603 C608 1.399 . S
C604 C603 1.399 1_565 S
C604 C605 1.376 . S
C605 H592 0.930 . S
C605 C604 1.376 . S
C605 C606 1.388 . S
C606 H593 0.930 . S
C606 C605 1.388 . S
C606 C607 1.390 . S
C607 C606 1.390 . S
C607 C608 1.394 1_565 S
C607 C613 1.465 . S
C608 C603 1.399 . S
C608 C607 1.394 1_545 S
C608 C609 1.516 . S
C609 C608 1.516 . S
C609 C610 1.502 1_556 S
C609 C611 1.561 . S
C609 C612 1.526 . S
C610 H594 0.959 . S
C610 H595 0.959 1_554 S
C610 H596 0.961 . S
C610 C609 1.502 1_554 S
C611 H597 0.960 . S
C611 H598 0.961 . S
C611 H599 0.959 . S
C611 C609 1.561 . S
C612 C609 1.526 . S
C612 C613 1.396 1_545 S
C612 C617 1.390 . S
C613 C607 1.465 . S
C613 C612 1.396 1_565 S
C613 C614 1.399 . S
C614 H600 0.929 . S
C614 C613 1.399 . S
C614 C615 1.385 . S
C615 H601 0.931 . S
C615 C614 1.385 . S
C615 C616 1.389 1_565 S
C616 C615 1.389 1_545 S
C616 C617 1.387 . S
C617 H602 0.930 . S
C617 C612 1.390 . S
C617 C616 1.387 . S
H618 C630 0.930 . S
H619 C632 0.930 . S
H620 C633 0.930 . S
H621 C637 0.959 . S
H622 C637 0.959 . S
H623 C637 0.961 . S
H624 C638 0.960 . S
H625 C638 0.961 . S
H626 C638 0.959 . S
H627 C641 0.929 . S
H628 C642 0.931 . S
H629 C644 0.930 . S
C630 H618 0.930 . S
C630 C631 1.399 1_556 S
C630 C635 1.399 . S
C631 C630 1.399 1_554 S
C631 C632 1.376 . S
C632 H619 0.930 . S
C632 C631 1.376 . S
C632 C633 1.388 . S
C633 H620 0.930 . S
C633 C632 1.388 . S
C633 C634 1.390 1_554 S
C634 C633 1.390 1_556 S
C634 C635 1.394 . S
C634 C640 1.465 . S
C635 C630 1.399 . S
C635 C634 1.394 . S
C635 C636 1.516 . S
C636 C635 1.516 . S
C636 C637 1.502 . S
C636 C638 1.561 . S
C636 C639 1.526 . S
C637 H621 0.959 . S
C637 H622 0.959 . S
C637 H623 0.961 . S
C637 C636 1.502 . S
C638 H624 0.960 . S
C638 H625 0.961 . S
C638 H626 0.959 . S
C638 C636 1.561 . S
C639 C636 1.526 . S
C639 C640 1.396 . S
C639 C644 1.390 . S
C640 C634 1.465 . S
C640 C639 1.396 . S
C640 C641 1.399 . S
C641 H627 0.929 . S
C641 C640 1.399 . S
C641 C642 1.385 . S
C642 H628 0.931 . S
C642 C641 1.385 . S
C642 C643 1.389 . S
C643 C642 1.389 . S
C643 C644 1.387 . S
C644 H629 0.930 . S
C644 C639 1.390 . S
C644 C643 1.387 . S
H645 C657 0.930 . S
H646 C659 0.930 . S
H647 C660 0.930 . S
H648 C664 0.959 . S
H649 C664 0.959 1_556 S
H650 C664 0.961 . S
H651 C665 0.960 . S
H652 C665 0.961 . S
H653 C665 0.959 . S
H654 C668 0.929 . S
H655 C669 0.931 . S
H656 C671 0.930 . S
C657 H645 0.930 . S
C657 C658 1.399 . S
C657 C662 1.399 1_554 S
C658 C657 1.399 . S
C658 C659 1.376 . S
C659 H646 0.930 . S
C659 C658 1.376 . S
C659 C660 1.388 1_554 S
C660 H647 0.930 . S
C660 C659 1.388 1_556 S
C660 C661 1.390 . S
C661 C660 1.390 . S
C661 C662 1.394 . S
C661 C667 1.465 . S
C662 C657 1.399 1_556 S
C662 C661 1.394 . S
C662 C663 1.516 . S
C663 C662 1.516 . S
C663 C664 1.502 1_556 S
C663 C665 1.561 . S
C663 C666 1.526 . S
C664 H648 0.959 . S
C664 H649 0.959 1_554 S
C664 H650 0.961 . S
C664 C663 1.502 1_554 S
C665 H651 0.960 . S
C665 H652 0.961 . S
C665 H653 0.959 . S
C665 C663 1.561 . S
C666 C663 1.526 . S
C666 C667 1.396 . S
C666 C671 1.390 . S
C667 C661 1.465 . S
C667 C666 1.396 . S
C667 C668 1.399 . S
C668 H654 0.929 . S
C668 C667 1.399 . S
C668 C669 1.385 . S
C669 H655 0.931 . S
C669 C668 1.385 . S
C669 C670 1.389 . S
C670 C669 1.389 . S
C670 C671 1.387 . S
C671 H656 0.930 . S
C671 C666 1.390 . S
C671 C670 1.387 . S
H672 C684 0.930 . S
H673 C686 0.930 . S
H674 C687 0.930 . S
H675 C691 0.959 . S
H676 C691 0.959 . S
H677 C691 0.961 . S
H678 C692 0.960 . S
H679 C692 0.961 . S
H680 C692 0.959 . S
H681 C695 0.929 . S
H682 C696 0.931 1_556 S
H683 C698 0.930 . S
C684 H672 0.930 . S
C684 C685 1.399 . S
C684 C689 1.399 . S
C685 C684 1.399 . S
C685 C686 1.376 . S
C686 H673 0.930 . S
C686 C685 1.376 . S
C686 C687 1.388 . S
C687 H674 0.930 . S
C687 C686 1.388 . S
C687 C688 1.390 . S
C688 C687 1.390 . S
C688 C689 1.394 . S
C688 C694 1.465 . S
C689 C684 1.399 . S
C689 C688 1.394 . S
C689 C690 1.516 . S
C690 C689 1.516 . S
C690 C691 1.502 . S
C690 C692 1.561 . S
C690 C693 1.526 . S
C691 H675 0.959 . S
C691 H676 0.959 . S
C691 H677 0.961 . S
C691 C690 1.502 . S
C692 H678 0.960 . S
C692 H679 0.961 . S
C692 H680 0.959 . S
C692 C690 1.561 . S
C693 C690 1.526 . S
C693 C694 1.396 . S
C693 C698 1.390 . S
C694 C688 1.465 . S
C694 C693 1.396 . S
C694 C695 1.399 . S
C695 H681 0.929 . S
C695 C694 1.399 . S
C695 C696 1.385 . S
C696 H682 0.931 1_554 S
C696 C695 1.385 . S
C696 C697 1.389 . S
C697 C696 1.389 . S
C697 C698 1.387 . S
C698 H683 0.930 . S
C698 C693 1.390 . S
C698 C697 1.387 . S
H699 C711 0.930 . S
H700 C713 0.930 . S
H701 C714 0.930 . S
H702 C718 0.959 . S
H703 C718 0.959 . S
H704 C718 0.961 . S
H705 C719 0.960 . S
H706 C719 0.961 . S
H707 C719 0.959 . S
H708 C722 0.929 . S
H709 C723 0.931 . S
H710 C725 0.930 . S
C711 H699 0.930 . S
C711 C712 1.399 1_565 S
C711 C716 1.399 . S
C712 C711 1.399 1_545 S
C712 C713 1.376 . S
C713 H700 0.930 . S
C713 C712 1.376 . S
C713 C714 1.388 . S
C714 H701 0.930 . S
C714 C713 1.388 . S
C714 C715 1.390 . S
C715 C714 1.390 . S
C715 C716 1.394 1_545 S
C715 C721 1.465 1_554 S
C716 C711 1.399 . S
C716 C715 1.394 1_565 S
C716 C717 1.516 . S
C717 C716 1.516 . S
C717 C718 1.502 . S
C717 C719 1.561 . S
C717 C720 1.526 . S
C718 H702 0.959 . S
C718 H703 0.959 . S
C718 H704 0.961 . S
C718 C717 1.502 . S
C719 H705 0.960 . S
C719 H706 0.961 . S
C719 H707 0.959 . S
C719 C717 1.561 . S
C720 C717 1.526 . S
C720 C721 1.396 1_564 S
C720 C725 1.390 1_554 S
C721 C715 1.465 1_556 S
C721 C720 1.396 1_546 S
C721 C722 1.399 . S
C722 H708 0.929 . S
C722 C721 1.399 . S
C722 C723 1.385 . S
C723 H709 0.931 . S
C723 C722 1.385 . S
C723 C724 1.389 . S
C724 C723 1.389 . S
C724 C725 1.387 1_545 S
C725 H710 0.930 . S
C725 C720 1.390 1_556 S
C725 C724 1.387 1_565 S
H726 C738 0.930 . S
H727 C740 0.930 . S
H728 C741 0.930 . S
H729 C745 0.959 . S
H730 C745 0.959 . S
H731 C745 0.961 . S
H732 C746 0.960 . S
H733 C746 0.961 1_556 S
H734 C746 0.959 1_556 S
H735 C749 0.929 . S
H736 C750 0.931 . S
H737 C752 0.930 . S
C738 H726 0.930 . S
C738 C739 1.399 . S
C738 C743 1.399 . S
C739 C738 1.399 . S
C739 C740 1.376 . S
C740 H727 0.930 . S
C740 C739 1.376 . S
C740 C741 1.388 . S
C741 H728 0.930 . S
C741 C740 1.388 . S
C741 C742 1.390 . S
C742 C741 1.390 . S
C742 C743 1.394 . S
C742 C748 1.463 1_554 S
C743 C738 1.399 . S
C743 C742 1.394 . S
C743 C744 1.516 . S
C744 C743 1.516 . S
C744 C745 1.502 . S
C744 C746 1.561 . S
C744 C747 1.526 1_554 S
C745 H729 0.959 . S
C745 H730 0.959 . S
C745 H731 0.961 . S
C745 C744 1.502 . S
C746 H732 0.960 . S
C746 H733 0.961 1_554 S
C746 H734 0.959 1_554 S
C746 C744 1.561 . S
C747 C744 1.526 1_556 S
C747 C748 1.396 . S
C747 C752 1.390 . S
C748 C742 1.463 1_556 S
C748 C747 1.396 . S
C748 C749 1.401 . S
C749 H735 0.929 . S
C749 C748 1.401 . S
C749 C750 1.385 . S
C750 H736 0.931 . S
C750 C749 1.385 . S
C750 C751 1.389 . S
C751 C750 1.389 . S
C751 C752 1.387 . S
C752 H737 0.930 . S
C752 C747 1.390 . S
C752 C751 1.387 . S
H753 C765 0.930 . S
H754 C767 0.930 . S
H755 C768 0.930 . S
H756 C772 0.959 . S
H757 C772 0.959 . S
H758 C772 0.961 . S
H759 C773 0.960 . S
H760 C773 0.961 . S
H761 C773 0.959 . S
H762 C776 0.929 . S
H763 C777 0.931 . S
H764 C779 0.930 . S
C765 H753 0.930 . S
C765 C766 1.399 . S
C765 C770 1.399 . S
C766 C765 1.399 . S
C766 C767 1.376 . S
C767 H754 0.930 . S
C767 C766 1.376 . S
C767 C768 1.388 . S
C768 H755 0.930 . S
C768 C767 1.388 . S
C768 C769 1.390 . S
C769 C768 1.390 . S
C769 C770 1.394 . S
C769 C775 1.465 1_554 S
C770 C765 1.399 . S
C770 C769 1.394 . S
C770 C771 1.516 1_554 S
C771 C770 1.516 1_556 S
C771 C772 1.502 1_556 S
C771 C773 1.561 . S
C771 C774 1.526 . S
C772 H756 0.959 . S
C772 H757 0.959 . S
C772 H758 0.961 . S
C772 C771 1.502 1_554 S
C773 H759 0.960 . S
C773 H760 0.961 . S
C773 H761 0.959 . S
C773 C771 1.561 . S
C774 C771 1.526 . S
C774 C775 1.396 . S
C774 C779 1.390 . S
C775 C769 1.465 1_556 S
C775 C774 1.396 . S
C775 C776 1.399 . S
C776 H762 0.929 . S
C776 C775 1.399 . S
C776 C777 1.385 . S
C777 H763 0.931 . S
C777 C776 1.385 . S
C777 C778 1.389 . S
C778 C777 1.389 . S
C778 C779 1.387 . S
C779 H764 0.930 . S
C779 C774 1.390 . S
C779 C778 1.387 . S
H780 C792 0.930 . S
H781 C794 0.930 . S
H782 C795 0.930 1_455 S
H783 C799 0.959 . S
H784 C799 0.959 . S
H785 C799 0.961 . S
H786 C800 0.960 . S
H787 C800 0.961 . S
H788 C800 0.959 . S
H789 C803 0.929 . S
H790 C804 0.931 . S
H791 C806 0.930 . S
C792 H780 0.930 . S
C792 C793 1.399 . S
C792 C797 1.399 . S
C793 C792 1.399 . S
C793 C794 1.376 . S
C794 H781 0.930 . S
C794 C793 1.376 . S
C794 C795 1.388 . S
C795 H782 0.930 1_655 S
C795 C794 1.388 . S
C795 C796 1.390 . S
C796 C795 1.390 . S
C796 C797 1.394 . S
C796 C802 1.465 . S
C797 C792 1.399 . S
C797 C796 1.394 . S
C797 C798 1.516 . S
C798 C797 1.516 . S
C798 C799 1.502 . S
C798 C800 1.561 . S
C798 C801 1.526 . S
C799 H783 0.959 . S
C799 H784 0.959 . S
C799 H785 0.961 . S
C799 C798 1.502 . S
C800 H786 0.960 . S
C800 H787 0.961 . S
C800 H788 0.959 . S
C800 C798 1.561 . S
C801 C798 1.526 . S
C801 C802 1.396 . S
C801 C806 1.390 . S
C802 C796 1.465 . S
C802 C801 1.396 . S
C802 C803 1.399 1_655 S
C803 H789 0.929 . S
C803 C802 1.399 1_455 S
C803 C804 1.385 . S
C804 H790 0.931 . S
C804 C803 1.385 . S
C804 C805 1.389 1_455 S
C805 C804 1.389 1_655 S
C805 C806 1.387 . S
C806 H791 0.930 . S
C806 C801 1.390 . S
C806 C805 1.387 . S
H807 C819 0.930 . S
H808 C821 0.930 . S
H809 C822 0.930 . S
H810 C826 0.959 . S
H811 C826 0.959 . S
H812 C826 0.961 . S
H813 C827 0.960 . S
H814 C827 0.961 . S
H815 C827 0.959 . S
H816 C830 0.929 . S
H817 C831 0.931 . S
H818 C833 0.930 . S
C819 H807 0.930 . S
C819 C820 1.399 1_565 S
C819 C824 1.399 . S
C820 C819 1.399 1_545 S
C820 C821 1.376 . S
C821 H808 0.930 . S
C821 C820 1.376 . S
C821 C822 1.388 . S
C822 H809 0.930 . S
C822 C821 1.388 . S
C822 C823 1.390 . S
C823 C822 1.390 . S
C823 C824 1.394 1_545 S
C823 C829 1.465 . S
C824 C819 1.399 . S
C824 C823 1.394 1_565 S
C824 C825 1.516 . S
C825 C824 1.516 . S
C825 C826 1.502 . S
C825 C827 1.561 . S
C825 C828 1.526 . S
C826 H810 0.959 . S
C826 H811 0.959 . S
C826 H812 0.961 . S
C826 C825 1.502 . S
C827 H813 0.960 . S
C827 H814 0.961 . S
C827 H815 0.959 . S
C827 C825 1.561 . S
C828 C825 1.526 . S
C828 C829 1.396 1_565 S
C828 C833 1.390 . S
C829 C823 1.465 . S
C829 C828 1.396 1_545 S
C829 C830 1.399 . S
C830 H816 0.929 . S
C830 C829 1.399 . S
C830 C831 1.385 . S
C831 H817 0.931 . S
C831 C830 1.385 . S
C831 C832 1.389 1_545 S
C832 C831 1.389 1_565 S
C832 C833 1.387 . S
C833 H818 0.930 . S
C833 C828 1.390 . S
C833 C832 1.387 . S
H834 C846 0.930 . S
H835 C848 0.930 . S
H836 C849 0.930 . S
H837 C853 0.959 . S
H838 C853 0.959 . S
H839 C853 0.961 . S
H840 C854 0.960 . S
H841 C854 0.961 . S
H842 C854 0.959 . S
H843 C857 0.929 . S
H844 C858 0.931 . S
H845 C860 0.930 . S
C846 H834 0.930 . S
C846 C847 1.399 . S
C846 C851 1.399 . S
C847 C846 1.399 . S
C847 C848 1.376 . S
C848 H835 0.930 . S
C848 C847 1.376 . S
C848 C849 1.388 . S
C849 H836 0.930 . S
C849 C848 1.388 . S
C849 C850 1.390 . S
C850 C849 1.390 . S
C850 C851 1.394 . S
C850 C856 1.465 . S
C851 C846 1.399 . S
C851 C850 1.394 . S
C851 C852 1.516 . S
C852 C851 1.516 . S
C852 C853 1.502 . S
C852 C854 1.561 . S
C852 C855 1.526 . S
C853 H837 0.959 . S
C853 H838 0.959 . S
C853 H839 0.961 . S
C853 C852 1.502 . S
C854 H840 0.960 . S
C854 H841 0.961 . S
C854 H842 0.959 . S
C854 C852 1.561 . S
C855 C852 1.526 . S
C855 C856 1.396 . S
C855 C860 1.390 . S
C856 C850 1.465 . S
C856 C855 1.396 . S
C856 C857 1.399 . S
C857 H843 0.929 . S
C857 C856 1.399 . S
C857 C858 1.385 . S
C858 H844 0.931 . S
C858 C857 1.385 . S
C858 C859 1.389 . S
C859 C858 1.389 . S
C859 C860 1.387 . S
C860 H845 0.930 . S
C860 C855 1.390 . S
C860 C859 1.387 . S
H861 C873 0.930 . S
H862 C875 0.930 . S
H863 C876 0.930 . S
H864 C880 0.959 . S
H865 C880 0.959 . S
H866 C880 0.961 . S
H867 C881 0.960 . S
H868 C881 0.961 . S
H869 C881 0.959 . S
H870 C884 0.929 . S
H871 C885 0.931 . S
H872 C887 0.930 . S
C873 H861 0.930 . S
C873 C874 1.399 . S
C873 C878 1.399 . S
C874 C873 1.399 . S
C874 C875 1.376 . S
C875 H862 0.930 . S
C875 C874 1.376 . S
C875 C876 1.388 . S
C876 H863 0.930 . S
C876 C875 1.388 . S
C876 C877 1.390 . S
C877 C876 1.390 . S
C877 C878 1.394 . S
C877 C883 1.465 . S
C878 C873 1.399 . S
C878 C877 1.394 . S
C878 C879 1.516 . S
C879 C878 1.516 . S
C879 C880 1.502 . S
C879 C881 1.561 . S
C879 C882 1.526 . S
C880 H864 0.959 . S
C880 H865 0.959 . S
C880 H866 0.961 . S
C880 C879 1.502 . S
C881 H867 0.960 . S
C881 H868 0.961 . S
C881 H869 0.959 . S
C881 C879 1.561 . S
C882 C879 1.526 . S
C882 C883 1.396 . S
C882 C887 1.390 . S
C883 C877 1.465 . S
C883 C882 1.396 . S
C883 C884 1.399 . S
C884 H870 0.929 . S
C884 C883 1.399 . S
C884 C885 1.385 . S
C885 H871 0.931 . S
C885 C884 1.385 . S
C885 C886 1.389 . S
C886 C885 1.389 . S
C886 C887 1.387 . S
C887 H872 0.930 . S
C887 C882 1.390 . S
C887 C886 1.387 . S
C253 C82 1.725 . S
C265 C121 1.870 . S
C292 C142 1.531 . S
C280 C95 1.452 . S
C319 C176 1.394 . S
C307 C56 1.225 . S
C346 C210 1.525 . S
C334 C69 1.499 . S
C373 C112 1.861 . S
C361 C30 1.789 1_566 S
C388 C43 1.428 . S
C400 C151 1.549 . S
C415 C4 1.188 . S
C427 C185 1.380 . S
C442 C17 1.440 . S
C454 C219 1.525 1_655 S
C481 C133 0.474 . S
C469 C74 0.716 . S
C508 C138 0.980 . S
C496 C87 0.980 . S
C535 C172 0.908 . S
C523 C100 0.961 . S
C550 C61 0.485 . S
C562 C206 0.444 . S
C577 C22 0.619 . S
C589 C104 0.527 . S
C616 C167 0.979 . S
C604 C35 1.015 1_566 S
C643 C201 0.944 . S
C631 C48 0.854 . S
C658 C9 0.475 . S
C670 C235 0.378 . S
C685 C73 1.307 . S
C697 C117 1.295 . S
C712 C86 1.729 . S
C724 C146 1.750 . S
C751 C180 1.549 . S
C739 C99 1.533 . S
C778 C214 1.610 . S
C766 C60 1.571 . S
C793 C21 1.252 . S
C805 C108 1.331 . S
C832 C155 1.747 . S
C820 C34 1.733 . S
C859 C189 1.535 . S
C847 C47 1.508 . S
C874 C8 1.591 . S
C886 C223 1.602 . S
