# Generated by pormake.
# Topology ssa, (4,4)-cn, num edge types: 1
# Building blocks:
#     Node 0, Type 0, BuildingBlock: NAWXER_clean_sbu_0, # of connection points: 4
#     Node 1, Type 0, BuildingBlock: NAWXER_clean_sbu_0, # of connection points: 4
#     Node 2, Type 0, BuildingBlock: NAWXER_clean_sbu_0, # of connection points: 4
#     Node 3, Type 0, BuildingBlock: NAWXER_clean_sbu_0, # of connection points: 4
#     Node 4, Type 0, BuildingBlock: NAWXER_clean_sbu_0, # of connection points: 4
#     Node 5, Type 0, BuildingBlock: NAWXER_clean_sbu_0, # of connection points: 4
#     Node 6, Type 1, BuildingBlock: MUDLON_clean_linker_0, # of connection points: 4
#     Node 7, Type 1, BuildingBlock: MUDLON_clean_linker_0, # of connection points: 4
#     Node 8, Type 1, BuildingBlock: MUDLON_clean_linker_0, # of connection points: 4
#     Node 9, Type 1, BuildingBlock: MUDLON_clean_linker_0, # of connection points: 4
#     Node 10, Type 1, BuildingBlock: MUDLON_clean_linker_0, # of connection points: 4
#     Node 11, Type 1, BuildingBlock: MUDLON_clean_linker_0, # of connection points: 4
#     Edge 12, Type (0, 1), BuildingBlock: XUDNAN_clean_linker_2, # of connection points: 2
#     Edge 13, Type (0, 1), BuildingBlock: XUDNAN_clean_linker_2, # of connection points: 2
#     Edge 14, Type (0, 1), BuildingBlock: XUDNAN_clean_linker_2, # of connection points: 2
#     Edge 15, Type (0, 1), BuildingBlock: XUDNAN_clean_linker_2, # of connection points: 2
#     Edge 16, Type (0, 1), BuildingBlock: XUDNAN_clean_linker_2, # of connection points: 2
#     Edge 17, Type (0, 1), BuildingBlock: XUDNAN_clean_linker_2, # of connection points: 2
#     Edge 18, Type (0, 1), BuildingBlock: XUDNAN_clean_linker_2, # of connection points: 2
#     Edge 19, Type (0, 1), BuildingBlock: XUDNAN_clean_linker_2, # of connection points: 2
#     Edge 20, Type (0, 1), BuildingBlock: XUDNAN_clean_linker_2, # of connection points: 2
#     Edge 21, Type (0, 1), BuildingBlock: XUDNAN_clean_linker_2, # of connection points: 2
#     Edge 22, Type (0, 1), BuildingBlock: XUDNAN_clean_linker_2, # of connection points: 2
#     Edge 23, Type (0, 1), BuildingBlock: XUDNAN_clean_linker_2, # of connection points: 2
#     Edge 24, Type (0, 1), BuildingBlock: XUDNAN_clean_linker_2, # of connection points: 2
#     Edge 25, Type (0, 1), BuildingBlock: XUDNAN_clean_linker_2, # of connection points: 2
#     Edge 26, Type (0, 1), BuildingBlock: XUDNAN_clean_linker_2, # of connection points: 2
#     Edge 27, Type (0, 1), BuildingBlock: XUDNAN_clean_linker_2, # of connection points: 2
#     Edge 28, Type (0, 1), BuildingBlock: XUDNAN_clean_linker_2, # of connection points: 2
#     Edge 29, Type (0, 1), BuildingBlock: XUDNAN_clean_linker_2, # of connection points: 2
#     Edge 30, Type (0, 1), BuildingBlock: XUDNAN_clean_linker_2, # of connection points: 2
#     Edge 31, Type (0, 1), BuildingBlock: XUDNAN_clean_linker_2, # of connection points: 2
#     Edge 32, Type (0, 1), BuildingBlock: XUDNAN_clean_linker_2, # of connection points: 2
#     Edge 33, Type (0, 1), BuildingBlock: XUDNAN_clean_linker_2, # of connection points: 2
#     Edge 34, Type (0, 1), BuildingBlock: XUDNAN_clean_linker_2, # of connection points: 2
#     Edge 35, Type (0, 1), BuildingBlock: XUDNAN_clean_linker_2, # of connection points: 2
# Relax obj value: 0.010
# Max RMSD: 0.048
# Mean RMSD: 0.034
data_MOF--net-ssa--node1-NAWXER_clean_sbu_0--node2-MUDLON_clean_linker_0--edge1-XUDNAN_clean_linker_2
_symmetry_space_group_name_H-M    P1
_symmetry_Int_Tables_number       1
_symmetry_cell_setting            triclinic
loop_
_symmetry_equiv_pos_as_xyz
'x, y, z'
_cell_length_a     68.639546
_cell_length_b     68.709207
_cell_length_c     37.749474
_cell_angle_alpha  89.994861
_cell_angle_beta   89.905336
_cell_angle_gamma 120.02041
loop_
_atom_site_label
_atom_site_type_symbol
_atom_site_fract_x
_atom_site_fract_y
_atom_site_fract_z
_atom_type_partial_charge
C0 C 0.03367 0.5479 0.11773 0.0
C1 C 0.99583 0.47608 0.05646 0.0
O2 O 0.01717 0.52925 0.12751 0.0
Zn3 Zn 0.01457 0.51201 0.08613 0.0
O4 O 0.04218 0.54954 0.08683 0.0
Zn5 Zn 0.03564 0.52739 0.04226 0.0
O6 O 0.02662 0.54067 0.00506 0.0
O7 O 1.00081 0.52408 0.04653 0.0
O8 O 0.0113 0.49152 0.03713 0.0
O9 O 0.99222 0.48086 0.08739 0.0
O10 O 0.04523 0.51054 0.08529 0.0
O11 O 0.06393 0.52799 0.03692 0.0
C12 C 0.00709 0.53464 0.01697 0.0
C13 C 0.06248 0.51719 0.06507 0.0
C14 C 0.54096 0.06124 0.50057 0.0
C15 C 0.57317 0.02024 0.44364 0.0
O16 O 0.53998 0.04562 0.5205 0.0
Zn17 Zn 0.55048 0.02072 0.51802 0.0
O18 O 0.55026 0.0647 0.47033 0.0
Zn19 Zn 0.55786 0.04134 0.47287 0.0
O20 O 0.52515 0.01119 0.47336 0.0
O21 O 0.52221 0.99308 0.52319 0.0
O22 O 0.57227 0.03718 0.43234 0.0
O23 O 0.56573 0.01254 0.47474 0.0
O24 O 0.57223 0.02962 0.55597 0.0
O25 O 0.58383 0.05408 0.51218 0.0
C26 C 0.51374 0.99434 0.49396 0.0
C27 C 0.58722 0.04807 0.54263 0.0
C28 C 0.52549 0.47676 0.96647 0.0
C29 C 0.53598 0.54769 0.01386 0.0
O30 O 0.52019 0.49 0.95137 0.0
Zn31 Zn 0.53134 0.51307 0.98811 0.0
O32 O 0.53576 0.48231 0.99622 0.0
Zn33 Zn 0.54812 0.50914 0.03307 0.0
O34 O 0.5312 0.49346 0.075 0.0
O35 O 0.51024 0.49568 0.03256 0.0
O36 O 0.54449 0.53846 0.03323 0.0
O37 O 0.52657 0.53855 0.98469 0.0
O38 O 0.56705 0.52895 0.98334 0.0
O39 O 0.58047 0.52121 0.03117 0.0
C40 C 0.51202 0.4893 0.06372 0.0
C41 C 0.58373 0.53069 0.00112 0.0
C42 C 0.07196 0.54058 0.54286 0.0
C43 C 0.02541 0.46405 0.58666 0.0
O44 O 0.07192 0.53337 0.57389 0.0
Zn45 Zn 0.0487 0.50252 0.56562 0.0
O46 O 0.05814 0.52718 0.51963 0.0
Zn47 Zn 0.032 0.49269 0.51576 0.0
O48 O 0.00529 0.4951 0.50749 0.0
O49 O 0.01911 0.50515 0.56138 0.0
O50 O 0.02094 0.46632 0.55446 0.0
O51 O 0.04049 0.48091 0.60341 0.0
O52 O 0.06403 0.49132 0.52694 0.0
O53 O 0.04326 0.48167 0.47849 0.0
C54 C 0.00414 0.50194 0.53829 0.0
C55 C 0.06039 0.48389 0.49503 0.0
C56 C 0.52745 0.98032 0.00718 0.0
C57 C 0.49308 0.01442 0.93672 0.0
O58 O 0.52605 0.99577 0.02414 0.0
Zn59 Zn 0.51186 0.01737 0.01553 0.0
O60 O 0.51889 0.97445 0.97651 0.0
Zn61 Zn 0.50873 0.99593 0.97296 0.0
O62 O 0.54008 0.02741 0.9759 0.0
O63 O 0.53828 0.04664 0.02156 0.0
O64 O 0.49637 0.99837 0.92853 0.0
O65 O 0.49787 0.02267 0.96807 0.0
O66 O 0.48785 0.00716 0.0502 0.0
O67 O 0.48089 0.982 0.00871 0.0
C68 C 0.54916 0.04504 0.99547 0.0
C69 C 0.47498 0.98785 0.03716 0.0
C70 C 0.57619 0.51406 0.51921 0.0
C71 C 0.50734 0.48634 0.45065 0.0
O72 O 0.56291 0.52023 0.53265 0.0
Zn73 Zn 0.53033 0.51632 0.51995 0.0
O74 O 0.57059 0.50262 0.49084 0.0
Zn75 Zn 0.54211 0.50084 0.48424 0.0
O76 O 0.55103 0.53476 0.47074 0.0
O77 O 0.53634 0.54655 0.51165 0.0
O78 O 0.52402 0.48361 0.44456 0.0
O79 O 0.50786 0.49818 0.47726 0.0
O80 O 0.51177 0.50004 0.56005 0.0
O81 O 0.52262 0.48022 0.52806 0.0
C82 C 0.54761 0.55016 0.48327 0.0
C83 C 0.51182 0.48182 0.55458 0.0
H84 H 0.34346 0.45604 0.27881 0.0
N85 N 0.31378 0.41441 0.2524 0.0
H86 H 0.37353 0.46357 0.32022 0.0
H87 H 0.31394 0.38493 0.29743 0.0
H88 H 0.34409 0.39235 0.33927 0.0
H89 H 0.32001 0.38292 0.22313 0.0
H90 H 0.352 0.38943 0.18599 0.0
H91 H 0.33968 0.45292 0.21381 0.0
H92 H 0.37135 0.45945 0.17689 0.0
H93 H 0.31434 0.45484 0.24813 0.0
H94 H 0.27089 0.38299 0.25272 0.0
H95 H 0.28185 0.45981 0.24358 0.0
H96 H 0.23801 0.38778 0.25067 0.0
H97 H 0.19286 0.47317 0.27825 0.0
H98 H 0.17725 0.48113 0.33065 0.0
H99 H 0.12812 0.41069 0.34053 0.0
H100 H 0.14462 0.40252 0.28867 0.0
H101 H 0.13975 0.41097 0.20966 0.0
H102 H 0.12597 0.42749 0.16597 0.0
H103 H 0.18863 0.49042 0.17324 0.0
H104 H 0.20247 0.47348 0.21643 0.0
H105 H 0.21894 0.4623 0.27453 0.0
H106 H 0.25203 0.45828 0.27526 0.0
H107 H 0.21636 0.39692 0.21455 0.0
N108 N 0.17729 0.432 0.24688 0.0
H109 H 0.18266 0.40038 0.2161 0.0
C110 C 0.32639 0.41981 0.28487 0.0
C111 C 0.34275 0.44207 0.29304 0.0
C112 C 0.3601 0.44637 0.31671 0.0
C113 C 0.36139 0.4285 0.3324 0.0
C114 C 0.3437 0.40643 0.32708 0.0
C115 C 0.32632 0.40217 0.30359 0.0
C116 C 0.32729 0.4173 0.22145 0.0
C117 C 0.33059 0.39945 0.21181 0.0
C118 C 0.34903 0.40325 0.19102 0.0
C119 C 0.36437 0.42503 0.17911 0.0
C120 C 0.35977 0.44247 0.18563 0.0
C121 C 0.34146 0.43868 0.20676 0.0
C122 C 0.29511 0.41838 0.2501 0.0
C123 C 0.29787 0.44005 0.24803 0.0
C124 C 0.27909 0.44291 0.24594 0.0
C125 C 0.25712 0.42421 0.24658 0.0
C126 C 0.25454 0.4026 0.24918 0.0
C127 C 0.27332 0.39979 0.25069 0.0
C128 C 0.17034 0.43703 0.28008 0.0
C129 C 0.17936 0.45925 0.29232 0.0
C130 C 0.17028 0.46386 0.32211 0.0
C131 C 0.15159 0.44649 0.33954 0.0
C132 C 0.1426 0.42431 0.32751 0.0
C133 C 0.15207 0.41964 0.29819 0.0
C134 C 0.17194 0.441 0.21641 0.0
C135 C 0.1507 0.42813 0.20104 0.0
C136 C 0.14282 0.43766 0.17639 0.0
C137 C 0.15608 0.46037 0.16669 0.0
C138 C 0.17806 0.47288 0.18019 0.0
C139 C 0.18595 0.46326 0.20495 0.0
C140 C 0.19795 0.4313 0.24583 0.0
C141 C 0.218 0.44787 0.26157 0.0
C142 C 0.2372 0.44568 0.2616 0.0
C143 C 0.23698 0.42714 0.24525 0.0
C144 C 0.21711 0.41111 0.22828 0.0
C145 C 0.19785 0.41314 0.22881 0.0
H146 H 0.73982 0.13079 0.86406 0.0
N147 N 0.74621 0.15727 0.80889 0.0
H148 H 0.71046 0.11876 0.90963 0.0
H149 H 0.71761 0.17386 0.81834 0.0
H150 H 0.68865 0.16226 0.86393 0.0
H151 H 0.73716 0.18131 0.76028 0.0
H152 H 0.71445 0.16631 0.70672 0.0
H153 H 0.73022 0.11655 0.78172 0.0
H154 H 0.70774 0.10142 0.7279 0.0
H155 H 0.78568 0.15962 0.8014 0.0
H156 H 0.75556 0.20087 0.81816 0.0
H157 H 0.82311 0.19294 0.80488 0.0
H158 H 0.7927 0.23402 0.82333 0.0
H159 H 0.93825 0.30947 0.86479 0.0
H160 H 0.95075 0.33627 0.91405 0.0
H161 H 0.88628 0.33298 0.91453 0.0
H162 H 0.874 0.30655 0.86508 0.0
H163 H 0.89776 0.33008 0.80847 0.0
H164 H 0.91778 0.35492 0.75883 0.0
H165 H 0.9434 0.31134 0.72842 0.0
H166 H 0.92358 0.28661 0.77885 0.0
H167 H 0.88565 0.25158 0.85238 0.0
H168 H 0.84795 0.21882 0.84729 0.0
H169 H 0.82582 0.25942 0.79196 0.0
N170 N 0.90003 0.29296 0.829 0.0
H171 H 0.8632 0.29218 0.79868 0.0
C172 C 0.73105 0.15327 0.838 0.0
C173 C 0.729 0.13806 0.86443 0.0
C174 C 0.71223 0.13118 0.89027 0.0
C175 C 0.69733 0.13962 0.89025 0.0
C176 C 0.70011 0.15575 0.86484 0.0
C177 C 0.71671 0.16239 0.83874 0.0
C178 C 0.73544 0.14998 0.77492 0.0
C179 C 0.7311 0.16397 0.75313 0.0
C180 C 0.71813 0.15536 0.72246 0.0
C181 C 0.70916 0.13262 0.71319 0.0
C182 C 0.71412 0.11891 0.73456 0.0
C183 C 0.72712 0.12755 0.76507 0.0
C184 C 0.76781 0.17758 0.80988 0.0
C185 C 0.78718 0.17587 0.80597 0.0
C186 C 0.80854 0.19493 0.80829 0.0
C187 C 0.81101 0.21621 0.81485 0.0
C188 C 0.7915 0.21797 0.818 0.0
C189 C 0.77012 0.19889 0.81535 0.0
C190 C 0.90521 0.30583 0.86135 0.0
C191 C 0.92668 0.3142 0.87604 0.0
C192 C 0.93383 0.32959 0.90391 0.0
C193 C 0.91949 0.33673 0.91794 0.0
C194 C 0.89758 0.32759 0.90438 0.0
C195 C 0.89054 0.31241 0.87612 0.0
C196 C 0.90944 0.30656 0.79764 0.0
C197 C 0.90757 0.32574 0.79114 0.0
C198 C 0.91906 0.33998 0.76281 0.0
C199 C 0.93229 0.33513 0.7401 0.0
C200 C 0.93327 0.31541 0.74555 0.0
C201 C 0.92201 0.30132 0.77423 0.0
C202 C 0.8774 0.27424 0.82568 0.0
C203 C 0.87259 0.25335 0.83927 0.0
C204 C 0.85108 0.23463 0.83603 0.0
C205 C 0.83382 0.23636 0.81884 0.0
C206 C 0.83859 0.25745 0.8056 0.0
C207 C 0.86011 0.27623 0.80914 0.0
H208 H 0.56477 0.86358 0.27687 0.0
N209 N 0.5975 0.86871 0.22987 0.0
H210 H 0.56704 0.89281 0.31646 0.0
H211 H 0.63455 0.90583 0.24893 0.0
H212 H 0.63725 0.9349 0.28934 0.0
H213 H 0.62281 0.88564 0.17234 0.0
H214 H 0.61576 0.90404 0.12223 0.0
H215 H 0.55761 0.86727 0.2154 0.0
H216 H 0.5504 0.88513 0.16563 0.0
H217 H 0.55369 0.8336 0.22994 0.0
H218 H 0.62263 0.85067 0.2456 0.0
H219 H 0.54148 0.79405 0.23749 0.0
H220 H 0.61045 0.81097 0.25503 0.0
H221 H 0.51441 0.66936 0.29075 0.0
H222 H 0.5225 0.64904 0.33618 0.0
H223 H 0.59333 0.69803 0.32841 0.0
H224 H 0.58506 0.71809 0.28276 0.0
H225 H 0.57875 0.70119 0.22342 0.0
H226 H 0.57727 0.68019 0.17076 0.0
H227 H 0.5077 0.66156 0.15523 0.0
H228 H 0.5096 0.68346 0.20773 0.0
H229 H 0.52354 0.72532 0.27933 0.0
H230 H 0.53653 0.76561 0.27787 0.0
H231 H 0.59666 0.77732 0.2225 0.0
N232 N 0.54374 0.70424 0.25272 0.0
H233 H 0.58411 0.7375 0.22565 0.0
C234 C 0.5995 0.8827 0.25963 0.0
C235 C 0.58076 0.87887 0.28005 0.0
C236 C 0.58211 0.8956 0.30281 0.0
C237 C 0.60223 0.91636 0.30553 0.0
C238 C 0.62138 0.9193 0.28726 0.0
C239 C 0.61997 0.90264 0.2645 0.0
C240 C 0.59077 0.87484 0.19749 0.0
C241 C 0.6067 0.88488 0.17036 0.0
C242 C 0.60271 0.89548 0.14195 0.0
C243 C 0.58255 0.89606 0.1401 0.0
C244 C 0.56596 0.88468 0.16605 0.0
C245 C 0.57007 0.87434 0.19461 0.0
C246 C 0.58925 0.84521 0.2366 0.0
C247 C 0.56626 0.82896 0.23526 0.0
C248 C 0.55923 0.80619 0.24 0.0
C249 C 0.57496 0.79917 0.24666 0.0
C250 C 0.59787 0.81562 0.24919 0.0
C251 C 0.60487 0.83833 0.24409 0.0
C252 C 0.54902 0.69514 0.28329 0.0
C253 C 0.5316 0.67596 0.29949 0.0
C254 C 0.53628 0.66443 0.32551 0.0
C255 C 0.55859 0.67184 0.33581 0.0
C256 C 0.57599 0.69173 0.32075 0.0
C257 C 0.57127 0.70331 0.29476 0.0
C258 C 0.5442 0.69396 0.2196 0.0
C259 C 0.56329 0.69305 0.20843 0.0
C260 C 0.56236 0.6808 0.17835 0.0
C261 C 0.54229 0.66897 0.15894 0.0
C262 C 0.52349 0.67064 0.16934 0.0
C263 C 0.52449 0.68304 0.19938 0.0
C264 C 0.55258 0.72823 0.25232 0.0
C265 C 0.5396 0.73669 0.26714 0.0
C266 C 0.54699 0.75969 0.26602 0.0
C267 C 0.5676 0.7748 0.24978 0.0
C268 C 0.58084 0.76631 0.23559 0.0
C269 C 0.57351 0.74333 0.23704 0.0
H270 H 0.93807 0.59039 0.75778 0.0
N271 N 0.896 0.58111 0.74609 0.0
H272 H 0.95286 0.58084 0.80907 0.0
H273 H 0.87341 0.56299 0.80946 0.0
H274 H 0.88865 0.55567 0.86198 0.0
H275 H 0.8839 0.53672 0.7421 0.0
H276 H 0.89361 0.51901 0.69429 0.0
H277 H 0.91295 0.59863 0.68283 0.0
H278 H 0.92258 0.58093 0.63464 0.0
H279 H 0.8919 0.61709 0.75642 0.0
H280 H 0.85287 0.54541 0.74118 0.0
H281 H 0.85726 0.61881 0.76127 0.0
H282 H 0.81821 0.54702 0.7444 0.0
H283 H 0.7616 0.62075 0.80675 0.0
H284 H 0.7392 0.61726 0.85939 0.0
H285 H 0.69821 0.54587 0.84037 0.0
H286 H 0.72126 0.54944 0.78891 0.0
H287 H 0.73675 0.54753 0.72876 0.0
H288 H 0.70926 0.53292 0.68066 0.0
H289 H 0.71033 0.59627 0.67562 0.0
H290 H 0.73773 0.61068 0.72401 0.0
H291 H 0.79291 0.61795 0.73008 0.0
H292 H 0.82722 0.61565 0.72595 0.0
H293 H 0.79454 0.55299 0.78409 0.0
N294 N 0.75416 0.58894 0.75996 0.0
H295 H 0.76007 0.55508 0.78677 0.0
C296 C 0.90454 0.57723 0.77896 0.0
C297 C 0.92717 0.58273 0.78046 0.0
C298 C 0.9357 0.57745 0.81021 0.0
C299 C 0.92203 0.56722 0.84009 0.0
C300 C 0.89964 0.5628 0.83929 0.0
C301 C 0.89088 0.56734 0.80901 0.0
C302 C 0.89798 0.56914 0.71609 0.0
C303 C 0.8919 0.54634 0.71843 0.0
C304 C 0.89752 0.53627 0.69117 0.0
C305 C 0.909 0.54867 0.66092 0.0
C306 C 0.9136 0.57094 0.65755 0.0
C307 C 0.9082 0.58109 0.68502 0.0
C308 C 0.87508 0.5813 0.74791 0.0
C309 C 0.87583 0.60178 0.7537 0.0
C310 C 0.856 0.6027 0.75627 0.0
C311 C 0.83487 0.58307 0.75294 0.0
C312 C 0.83413 0.56245 0.7474 0.0
C313 C 0.85401 0.56154 0.74508 0.0
C314 C 0.74297 0.58552 0.79365 0.0
C315 C 0.74812 0.60431 0.81455 0.0
C316 C 0.73517 0.60227 0.84441 0.0
C317 C 0.71662 0.58134 0.85379 0.0
C318 C 0.71241 0.56223 0.83412 0.0
C319 C 0.72552 0.56427 0.80441 0.0
C320 C 0.73938 0.58032 0.72981 0.0
C321 C 0.7313 0.55837 0.71703 0.0
C322 C 0.7156 0.55004 0.68947 0.0
C323 C 0.70757 0.56342 0.67443 0.0
C324 C 0.71598 0.58546 0.68694 0.0
C325 C 0.73173 0.59378 0.71433 0.0
C326 C 0.77406 0.58691 0.75896 0.0
C327 C 0.79324 0.60376 0.74194 0.0
C328 C 0.81286 0.60246 0.73983 0.0
C329 C 0.81377 0.58421 0.75494 0.0
C330 C 0.79441 0.56718 0.77186 0.0
C331 C 0.77469 0.56845 0.77373 0.0
H332 H 0.15624 0.73116 0.39961 0.0
N333 N 0.17158 0.72945 0.33558 0.0
H334 H 0.14689 0.70403 0.44807 0.0
H335 H 0.18383 0.69714 0.33964 0.0
H336 H 0.17475 0.67034 0.38761 0.0
H337 H 0.12972 0.72016 0.32457 0.0
H338 H 0.10222 0.69178 0.28462 0.0
H339 H 0.18156 0.70911 0.2817 0.0
H340 H 0.15394 0.67969 0.24297 0.0
H341 H 0.21346 0.7334 0.33003 0.0
H342 H 0.17764 0.76981 0.32141 0.0
H343 H 0.24897 0.76805 0.32116 0.0
H344 H 0.21302 0.80449 0.31026 0.0
H345 H 0.33575 0.85038 0.33224 0.0
H346 H 0.36627 0.86589 0.3759 0.0
H347 H 0.36424 0.92772 0.37768 0.0
H348 H 0.33401 0.91219 0.33377 0.0
H349 H 0.3158 0.9024 0.25592 0.0
H350 H 0.33781 0.91778 0.20123 0.0
H351 H 0.36568 0.87417 0.21406 0.0
H352 H 0.3446 0.85967 0.26911 0.0
H353 H 0.30821 0.8315 0.27631 0.0
H354 H 0.27279 0.79649 0.28182 0.0
H355 H 0.24498 0.83101 0.3406 0.0
N356 N 0.31731 0.87323 0.30041 0.0
H357 H 0.28025 0.86635 0.33303 0.0
C358 C 0.17062 0.71623 0.36594 0.0
C359 C 0.16089 0.7183 0.39735 0.0
C360 C 0.15561 0.70283 0.42496 0.0
C361 C 0.15988 0.68495 0.42138 0.0
C362 C 0.17102 0.68381 0.39088 0.0
C363 C 0.17635 0.69927 0.36343 0.0
C364 C 0.1575 0.71646 0.30652 0.0
C365 C 0.1352 0.71184 0.306 0.0
C366 C 0.11949 0.69541 0.28347 0.0
C367 C 0.1257 0.68296 0.26127 0.0
C368 C 0.14852 0.68888 0.25975 0.0
C369 C 0.16434 0.70562 0.28207 0.0
C370 C 0.19281 0.74908 0.32711 0.0
C371 C 0.21314 0.74878 0.3259 0.0
C372 C 0.23355 0.76871 0.32044 0.0
C373 C 0.23404 0.78927 0.31541 0.0
C374 C 0.21349 0.78919 0.31503 0.0
C375 C 0.19319 0.76935 0.32102 0.0
C376 C 0.33271 0.88026 0.32975 0.0
C377 C 0.34164 0.86711 0.3425 0.0
C378 C 0.35902 0.87597 0.36751 0.0
C379 C 0.3678 0.89811 0.3799 0.0
C380 C 0.35806 0.91074 0.36823 0.0
C381 C 0.34071 0.90187 0.34342 0.0
C382 C 0.32806 0.87953 0.26619 0.0
C383 C 0.32635 0.89591 0.24651 0.0
C384 C 0.33898 0.90474 0.21555 0.0
C385 C 0.35325 0.89699 0.20348 0.0
C386 C 0.35451 0.88014 0.2226 0.0
C387 C 0.3423 0.87171 0.25395 0.0
C388 C 0.29685 0.85183 0.3038 0.0
C389 C 0.29454 0.83174 0.29004 0.0
C390 C 0.27417 0.8115 0.29356 0.0
C391 C 0.2558 0.81079 0.31143 0.0
C392 C 0.25845 0.83087 0.32584 0.0
C393 C 0.27868 0.8511 0.32186 0.0
H394 H 0.42047 0.10989 0.67804 0.0
N395 N 0.44065 0.14649 0.71783 0.0
H396 H 0.43679 0.1001 0.62818 0.0
H397 H 0.47968 0.1756 0.68303 0.0
H398 H 0.49608 0.16594 0.6332 0.0
H399 H 0.48288 0.15642 0.73879 0.0
H400 H 0.49129 0.13293 0.77717 0.0
H401 H 0.41217 0.11472 0.76196 0.0
H402 H 0.42075 0.09144 0.80128 0.0
H403 H 0.40959 0.15575 0.69605 0.0
H404 H 0.4734 0.18516 0.74987 0.0
H405 H 0.40923 0.19095 0.70212 0.0
H406 H 0.47279 0.22011 0.75745 0.0
H407 H 0.4124 0.30918 0.7529 0.0
H408 H 0.41714 0.33924 0.71381 0.0
H409 H 0.46153 0.32721 0.64741 0.0
H410 H 0.45801 0.2984 0.6884 0.0
H411 H 0.47997 0.32415 0.74837 0.0
H412 H 0.49947 0.35327 0.79313 0.0
H413 H 0.44511 0.31578 0.86672 0.0
H414 H 0.42521 0.28693 0.82132 0.0
H415 H 0.40278 0.24722 0.75413 0.0
H416 H 0.40415 0.21269 0.74568 0.0
H417 H 0.47587 0.25214 0.72724 0.0
N418 N 0.43669 0.28911 0.75351 0.0
H419 H 0.47434 0.28651 0.73708 0.0
C420 C 0.44876 0.14338 0.68424 0.0
C421 C 0.4367 0.1224 0.66767 0.0
C422 C 0.44611 0.1168 0.63947 0.0
C423 C 0.46779 0.1322 0.62712 0.0
C424 C 0.47928 0.15381 0.64206 0.0
C425 C 0.46991 0.15935 0.67055 0.0
C426 C 0.44676 0.13725 0.74732 0.0
C427 C 0.46923 0.14279 0.75314 0.0
C428 C 0.47407 0.12935 0.77502 0.0
C429 C 0.45663 0.1105 0.79195 0.0
C430 C 0.43443 0.10606 0.78862 0.0
C431 C 0.42955 0.11935 0.76635 0.0
C432 C 0.44125 0.16761 0.72283 0.0
C433 C 0.42341 0.16977 0.7095 0.0
C434 C 0.42321 0.18989 0.71319 0.0
C435 C 0.44089 0.2084 0.7306 0.0
C436 C 0.45899 0.20631 0.74362 0.0
C437 C 0.45924 0.18616 0.73964 0.0
C438 C 0.43489 0.30155 0.72404 0.0
C439 C 0.42265 0.31263 0.72933 0.0
C440 C 0.42542 0.3299 0.70673 0.0
C441 C 0.44013 0.33619 0.67752 0.0
C442 C 0.45066 0.32349 0.67024 0.0
C443 C 0.44834 0.30657 0.69349 0.0
C444 C 0.45093 0.30342 0.78149 0.0
C445 C 0.47244 0.32187 0.77435 0.0
C446 C 0.48353 0.33858 0.79981 0.0
C447 C 0.47361 0.3368 0.83307 0.0
C448 C 0.45307 0.31746 0.84121 0.0
C449 C 0.44176 0.30098 0.81548 0.0
C450 C 0.43831 0.26938 0.74607 0.0
C451 C 0.41874 0.24835 0.74804 0.0
C452 C 0.41958 0.22865 0.74302 0.0
C453 C 0.44013 0.22955 0.73562 0.0
C454 C 0.4598 0.25075 0.73334 0.0
C455 C 0.45893 0.27048 0.73865 0.0
H456 H 0.06089 0.4893 0.11781 0.0
H457 H 0.10388 0.53249 0.03354 0.0
H458 H 0.13294 0.52278 0.04987 0.0
H459 H 0.10426 0.50187 0.18125 0.0
H460 H 0.0911 0.47352 0.19801 0.0
H461 H 0.07409 0.48418 0.17961 0.0
H462 H 0.05641 0.45081 0.13549 0.0
H463 H 0.07342 0.44008 0.15369 0.0
H464 H 0.07449 0.44577 0.1069 0.0
H465 H 0.15761 0.50838 0.07684 0.0
H466 H 0.17484 0.48985 0.11068 0.0
H467 H 0.11479 0.4561 0.17579 0.0
C468 C 0.07642 0.49683 0.10278 0.0
C469 C 0.08014 0.51174 0.07448 0.0
C470 C 0.10067 0.52103 0.05536 0.0
C471 C 0.11726 0.51563 0.06446 0.0
C472 C 0.11299 0.50082 0.09256 0.0
C473 C 0.093 0.49153 0.1113 0.0
C474 C 0.09223 0.47588 0.14008 0.0
C475 C 0.09032 0.48438 0.17691 0.0
C476 C 0.073 0.4517 0.13363 0.0
C477 C 0.11495 0.47781 0.13478 0.0
C478 C 0.12679 0.4923 0.10738 0.0
C479 C 0.14841 0.49693 0.09823 0.0
C480 C 0.15809 0.48641 0.1176 0.0
C481 C 0.14604 0.47134 0.14552 0.0
C482 C 0.12424 0.46714 0.15408 0.0
H483 H 0.59896 0.04261 0.61014 0.0
H484 H 0.62285 0.08767 0.51957 0.0
H485 H 0.65707 0.11364 0.55262 0.0
H486 H 0.61805 0.08519 0.67617 0.0
H487 H 0.62609 0.07052 0.70719 0.0
H488 H 0.60387 0.05491 0.6759 0.0
H489 H 0.62498 0.03494 0.65299 0.0
H490 H 0.64727 0.05049 0.68426 0.0
H491 H 0.65362 0.05157 0.6377 0.0
H492 H 0.6881 0.13552 0.59623 0.0
H493 H 0.71397 0.1513 0.64718 0.0
H494 H 0.6698 0.09219 0.70931 0.0
C495 C 0.61147 0.05783 0.59712 0.0
C496 C 0.60819 0.06304 0.5622 0.0
C497 C 0.62494 0.08325 0.54627 0.0
C498 C 0.64447 0.09814 0.56482 0.0
C499 C 0.64708 0.09261 0.59928 0.0
C500 C 0.63108 0.07292 0.61527 0.0
C501 C 0.63776 0.07124 0.65289 0.0
C502 C 0.62041 0.07043 0.6796 0.0
C503 C 0.64111 0.05085 0.6572 0.0
C504 C 0.6599 0.09312 0.65559 0.0
C505 C 0.66499 0.1052 0.62438 0.0
C506 C 0.68434 0.12618 0.62078 0.0
C507 C 0.69886 0.13506 0.6499 0.0
C508 C 0.69398 0.12296 0.68217 0.0
C509 C 0.67422 0.10169 0.68483 0.0
H510 H 0.55661 0.57136 0.07344 0.0
H511 H 0.516 0.57022 0.98458 0.0
H512 H 0.51476 0.60283 0.01012 0.0
H513 H 0.52783 0.58312 0.13891 0.0
H514 H 0.55264 0.60095 0.16446 0.0
H515 H 0.55173 0.57891 0.13753 0.0
H516 H 0.58805 0.60799 0.10494 0.0
H517 H 0.5891 0.63015 0.13185 0.0
H518 H 0.58902 0.63211 0.08424 0.0
H519 H 0.51616 0.63432 0.04836 0.0
H520 H 0.52052 0.66174 0.09471 0.0
H521 H 0.55959 0.64079 0.15787 0.0
C522 C 0.54765 0.57806 0.05897 0.0
C523 C 0.53642 0.56824 0.02693 0.0
C524 C 0.52482 0.57754 0.00908 0.0
C525 C 0.52402 0.59604 0.02341 0.0
C526 C 0.53501 0.60506 0.05543 0.0
C527 C 0.54669 0.59638 0.07281 0.0
C528 C 0.55629 0.60826 0.10753 0.0
C529 C 0.54653 0.59183 0.13895 0.0
C530 C 0.58215 0.62035 0.10709 0.0
C531 C 0.54794 0.62484 0.10739 0.0
C532 C 0.53579 0.6229 0.07713 0.0
C533 C 0.52579 0.63606 0.072 0.0
C534 C 0.52825 0.65149 0.09855 0.0
C535 C 0.54057 0.65359 0.12983 0.0
C536 C 0.55054 0.64006 0.13397 0.0
H537 H 0.98914 0.50206 0.60475 0.0
H538 H 0.97821 0.51208 0.49474 0.0
H539 H 0.95015 0.52277 0.51353 0.0
H540 H 0.93066 0.47885 0.63381 0.0
H541 H 0.93896 0.4925 0.67633 0.0
H542 H 0.95676 0.4842 0.65362 0.0
H543 H 0.99011 0.52511 0.65735 0.0
H544 H 0.97244 0.53354 0.67997 0.0
H545 H 0.98682 0.54772 0.63986 0.0
H546 H 0.92628 0.53635 0.54583 0.0
H547 H 0.90724 0.54913 0.58806 0.0
H548 H 0.93323 0.52832 0.67587 0.0
C549 C 0.98068 0.50626 0.58451 0.0
C550 C 0.98588 0.50636 0.5483 0.0
C551 C 0.97437 0.51182 0.52263 0.0
C552 C 0.95846 0.51794 0.53308 0.0
C553 C 0.95405 0.51807 0.56919 0.0
C554 C 0.96465 0.51205 0.59441 0.0
C555 C 0.95762 0.51411 0.63153 0.0
C556 C 0.94526 0.49104 0.64989 0.0
C557 C 0.97795 0.53114 0.65344 0.0
C558 C 0.94179 0.52281 0.6235 0.0
C559 C 0.93987 0.52501 0.58745 0.0
C560 C 0.92735 0.53429 0.57405 0.0
C561 C 0.91668 0.54156 0.59815 0.0
C562 C 0.91847 0.53933 0.63513 0.0
C563 C 0.93102 0.52963 0.64773 0.0
H564 H 0.45559 0.99464 0.09642 0.0
H565 H 0.44679 0.944 0.01922 0.0
H566 H 0.41314 0.91585 0.05128 0.0
H567 H 0.44035 0.95971 0.17155 0.0
H568 H 0.42556 0.97182 0.19347 0.0
H569 H 0.44808 0.98853 0.16312 0.0
H570 H 0.4213 0.99708 0.12658 0.0
H571 H 0.39867 0.98039 0.15689 0.0
H572 H 0.39523 0.97415 0.11018 0.0
H573 H 0.38273 0.89233 0.09446 0.0
H574 H 0.35632 0.87552 0.14485 0.0
H575 H 0.38357 0.9414 0.19266 0.0
C576 C 0.44641 0.97771 0.08599 0.0
C577 C 0.45386 0.97157 0.05527 0.0
C578 C 0.44142 0.94918 0.04262 0.0
C579 C 0.42225 0.93302 0.06064 0.0
C580 C 0.41555 0.93954 0.09107 0.0
C581 C 0.42709 0.96137 0.10351 0.0
C582 C 0.4167 0.96373 0.13753 0.0
C583 C 0.43368 0.97139 0.16822 0.0
C584 C 0.40742 0.97979 0.13247 0.0
C585 C 0.39786 0.93972 0.14263 0.0
C586 C 0.39749 0.92604 0.1155 0.0
C587 C 0.38258 0.90292 0.11555 0.0
C588 C 0.36772 0.89351 0.14422 0.0
C589 C 0.36779 0.90725 0.17217 0.0
C590 C 0.38289 0.93065 0.17113 0.0
H591 H 0.52253 0.45033 0.57514 0.0
H592 H 0.47024 0.468 0.58263 0.0
H593 H 0.44536 0.43179 0.6128 0.0
H594 H 0.48799 0.39217 0.55916 0.0
H595 H 0.5039 0.38367 0.58661 0.0
H596 H 0.51766 0.41097 0.56597 0.0
H597 H 0.53166 0.43004 0.62716 0.0
H598 H 0.51834 0.40276 0.64788 0.0
H599 H 0.51165 0.42372 0.66247 0.0
H600 H 0.42524 0.39206 0.63712 0.0
H601 H 0.41343 0.35494 0.66319 0.0
H602 H 0.48073 0.36557 0.64578 0.0
C603 C 0.50592 0.44663 0.58352 0.0
C604 C 0.49819 0.4618 0.57661 0.0
C605 C 0.47646 0.45659 0.58804 0.0
C606 C 0.46219 0.43602 0.60487 0.0
C607 C 0.47015 0.42117 0.61064 0.0
C608 C 0.49172 0.4265 0.60113 0.0
C609 C 0.49653 0.40805 0.61158 0.0
C610 C 0.50183 0.39813 0.57888 0.0
C611 C 0.51567 0.41666 0.6389 0.0
C612 C 0.47417 0.39131 0.62791 0.0
C613 C 0.45907 0.39902 0.62665 0.0
C614 C 0.43709 0.38607 0.63895 0.0
C615 C 0.43058 0.36498 0.65393 0.0
C616 C 0.44614 0.35717 0.65726 0.0
C617 C 0.46815 0.37059 0.64348 0.0
H618 H 0.56618 0.97747 0.45027 0.0
H619 H 0.59944 0.03726 0.38452 0.0
H620 H 0.61257 0.01779 0.34441 0.0
H621 H 0.60774 0.95934 0.43942 0.0
H622 H 0.58669 0.92996 0.43753 0.0
H623 H 0.58145 0.94917 0.46273 0.0
H624 H 0.54485 0.9368 0.42715 0.0
H625 H 0.54998 0.91761 0.40182 0.0
H626 H 0.54613 0.93863 0.37947 0.0
H627 H 0.62064 0.99154 0.31021 0.0
H628 H 0.62188 0.95976 0.28244 0.0
H629 H 0.58281 0.91651 0.36965 0.0
C630 C 0.57653 0.98658 0.42774 0.0
C631 C 0.58196 0.00896 0.42064 0.0
C632 C 0.59513 0.02015 0.3905 0.0
C633 C 0.60273 0.00926 0.36764 0.0
C634 C 0.5969 0.98714 0.37521 0.0
C635 C 0.58403 0.97587 0.40443 0.0
C636 C 0.57896 0.95171 0.40526 0.0
C637 C 0.58933 0.9473 0.43819 0.0
C638 C 0.55347 0.93522 0.4033 0.0
C639 C 0.59078 0.95109 0.3717 0.0
C640 C 0.60122 0.97179 0.35504 0.0
C641 C 0.61274 0.97531 0.32318 0.0
C642 C 0.61347 0.95716 0.30775 0.0
C643 C 0.60266 0.93567 0.32404 0.0
C644 C 0.59127 0.93272 0.35658 0.0
H645 H 0.61554 0.51818 0.99152 0.0
H646 H 0.60208 0.57275 0.97499 0.0
H647 H 0.63786 0.59397 0.94219 0.0
H648 H 0.67866 0.55304 0.99657 0.0
H649 H 0.68235 0.53269 0.97178 0.0
H650 H 0.65797 0.52359 -0.00027 0.0
H651 H 0.63208 0.50348 0.94617 0.0
H652 H 0.6563 0.51262 0.91806 0.0
H653 H 0.63485 0.5193 0.90651 0.0
H654 H 0.67208 0.60719 0.90573 0.0
H655 H 0.70196 0.61116 0.86536 0.0
H656 H 0.6935 0.54767 0.90324 0.0
C657 C 0.62065 0.53494 0.98203 0.0
C658 C 0.60647 0.54417 0.98628 0.0
C659 C 0.613 0.56566 0.9723 0.0
C660 C 0.63328 0.57782 0.95377 0.0
C661 C 0.64671 0.56811 0.94914 0.0
C662 C 0.64071 0.54715 0.96276 0.0
C663 C 0.65677 0.53945 0.95012 0.0
C664 C 0.66971 0.53706 0.98142 0.0
C665 C 0.64425 0.51741 0.92896 0.0
C666 C 0.67224 0.55903 0.92647 0.0
C667 C 0.66635 0.57554 0.92692 0.0
C668 C 0.67717 0.59461 0.90565 0.0
C669 C 0.69426 0.59676 0.8829 0.0
C670 C 0.70036 0.57988 0.88131 0.0
C671 C 0.68933 0.56092 0.90387 0.0
H672 H 0.08426 0.55704 0.47611 0.0
H673 H 0.09567 0.57719 0.5865 0.0
H674 H 0.121 0.61672 0.56802 0.0
H675 H 0.1411 0.59503 0.4459 0.0
H676 H 0.13182 0.60003 0.404 0.0
H677 H 0.11529 0.57354 0.42637 0.0
H678 H 0.0805 0.57891 0.42458 0.0
H679 H 0.09689 0.60538 0.4022 0.0
H680 H 0.08256 0.6041 0.44294 0.0
H681 H 0.14316 0.65468 0.53619 0.0
H682 H 0.16142 0.68684 0.49436 0.0
H683 H 0.13588 0.64046 0.40596 0.0
C684 C 0.09211 0.56972 0.4965 0.0
C685 C 0.08791 0.5641 0.53274 0.0
C686 C 0.0987 0.58116 0.55856 0.0
C687 C 0.11307 0.60363 0.5483 0.0
C688 C 0.11666 0.60859 0.5122 0.0
C689 C 0.10661 0.592 0.48678 0.0
C690 C 0.11291 0.60147 0.44975 0.0
C691 C 0.12607 0.59195 0.43038 0.0
C692 C 0.09197 0.59722 0.42865 0.0
C693 C 0.12781 0.6261 0.45811 0.0
C694 C 0.12982 0.63 0.49421 0.0
C695 C 0.14193 0.65175 0.50791 0.0
C696 C 0.15217 0.66988 0.48404 0.0
C697 C 0.15035 0.66606 0.44701 0.0
C698 C 0.13807 0.64386 0.43413 0.0
H699 H 0.47994 0.04576 0.94715 0.0
H700 H 0.48923 0.00676 0.86521 0.0
H701 H 0.47981 0.02648 0.81966 0.0
H702 H 0.43253 0.04705 0.90464 0.0
H703 H 0.44169 0.07533 0.91911 0.0
H704 H 0.44801 0.0573 0.94541 0.0
H705 H 0.4904 0.0872 0.94316 0.0
H706 H 0.48426 0.10524 0.91665 0.0
H707 H 0.504 0.09718 0.90081 0.0
H708 H 0.47246 0.05239 0.78284 0.0
H709 H 0.46482 0.08107 0.75723 0.0
H710 H 0.45881 0.10235 0.86273 0.0
C711 C 0.47972 0.04115 0.91966 0.0
C712 C 0.48534 0.02469 0.90975 0.0
C713 C 0.48489 0.01921 0.87348 0.0
C714 C 0.47962 0.03037 0.84739 0.0
C715 C 0.47458 0.04677 0.85802 0.0
C716 C 0.47429 0.05197 0.89329 0.0
C717 C 0.46863 0.07054 0.89754 0.0
C718 C 0.44639 0.06204 0.91788 0.0
C719 C 0.48798 0.09126 0.9156 0.0
C720 C 0.46619 0.07527 0.85909 0.0
C721 C 0.46975 0.06138 0.83676 0.0
C722 C 0.46937 0.06316 0.80004 0.0
C723 C 0.46512 0.07948 0.78576 0.0
C724 C 0.46118 0.09366 0.80813 0.0
C725 C 0.46162 0.09151 0.84523 0.0
H726 H 0.47295 0.49555 0.44807 0.0
H727 H 0.49525 0.4516 0.40395 0.0
H728 H 0.45956 0.43112 0.37073 0.0
H729 H 0.41501 0.45421 0.45885 0.0
H730 H 0.40473 0.47274 0.44615 0.0
H731 H 0.43202 0.48404 0.46635 0.0
H732 H 0.45038 0.5108 0.41287 0.0
H733 H 0.42312 0.49976 0.39267 0.0
H734 H 0.44562 0.49929 0.36874 0.0
H735 H 0.42106 0.41476 0.34402 0.0
H736 H 0.38392 0.40585 0.32084 0.0
H737 H 0.38709 0.46105 0.38136 0.0
C738 C 0.47038 0.48166 0.43132 0.0
C739 C 0.48684 0.4751 0.42866 0.0
C740 C 0.48291 0.45696 0.40627 0.0
C741 C 0.46265 0.44516 0.38747 0.0
C742 C 0.44665 0.45187 0.39116 0.0
C743 C 0.45041 0.46988 0.41214 0.0
C744 C 0.43071 0.47401 0.4109 0.0
C745 C 0.41999 0.47107 0.44776 0.0
C746 C 0.43789 0.49735 0.39536 0.0
C747 C 0.4152 0.45543 0.386 0.0
C748 C 0.42464 0.44273 0.3752 0.0
C749 C 0.41349 0.42457 0.3523 0.0
C750 C 0.39231 0.41952 0.33956 0.0
C751 C 0.38254 0.43264 0.34957 0.0
C752 C 0.39414 0.45073 0.37331 0.0
H753 H 0.00287 0.45838 0.99589 0.0
H754 H 0.95716 0.44169 0.08506 0.0
H755 H 0.93305 0.40374 0.06028 0.0
H756 H 0.96133 0.42959 0.92997 0.0
H757 H 0.97768 0.42006 0.90586 0.0
H758 H 0.99163 0.44566 0.93115 0.0
H759 H 0.01354 0.43017 0.96589 0.0
H760 H 0.99965 0.40451 0.94066 0.0
H761 H 0.99822 0.40351 0.98836 0.0
H762 H 0.91277 0.36826 0.02389 0.0
H763 H 0.89901 0.33737 0.97999 0.0
H764 H 0.95864 0.37699 0.91606 0.0
C765 C 0.98785 0.44672 0.01033 0.0
C766 C 0.98189 0.45303 0.04239 0.0
C767 C 0.96212 0.43723 0.06049 0.0
C768 C 0.94828 0.41564 0.04661 0.0
C769 C 0.95457 0.41004 0.0148 0.0
C770 C 0.97398 0.42506 0.99705 0.0
C771 C 0.97689 0.41493 0.96325 0.0
C772 C 0.97687 0.42836 0.93064 0.0
C773 C 0.99835 0.41318 0.96464 0.0
C774 C 0.95595 0.39195 0.96455 0.0
C775 C 0.94324 0.38945 0.99442 0.0
C776 C 0.9227 0.36995 0.00058 0.0
C777 C 0.91498 0.35255 0.97553 0.0
C778 C 0.92789 0.35475 0.94495 0.0
C779 C 0.94865 0.3747 0.93958 0.0
H780 H 0.01596 0.56624 0.96502 0.0
H781 H 0.96148 0.51017 0.02098 0.0
H782 H 0.93385 0.51334 0.98344 0.0
H783 H 0.98644 0.59829 0.95497 0.0
H784 H 0.99825 0.60874 0.91174 0.0
H785 H 0.01384 0.60253 0.94374 0.0
H786 H 0.01714 0.57586 0.8987 0.0
H787 H 0.00145 0.58187 0.86668 0.0
H788 H 0.99195 0.55321 0.87944 0.0
H789 H 0.91246 0.51993 0.93621 0.0
H790 H 0.8982 0.53169 0.88599 0.0
H791 H 0.96603 0.58656 0.86478 0.0
C792 C 0.99821 0.55479 0.96952 0.0
C793 C 0.99085 0.53794 0.99586 0.0
C794 C 0.96749 0.5233 0.0011 0.0
C795 C 0.95166 0.52491 0.97985 0.0
C796 C 0.95942 0.54153 0.95389 0.0
C797 C 0.9821 0.55647 0.949 0.0
C798 C 0.98583 0.57282 0.91925 0.0
C799 C 0.99673 0.59703 0.93327 0.0
C800 C 0.99992 0.5708 0.88925 0.0
C801 C 0.96176 0.56431 0.90766 0.0
C802 C 0.94685 0.54618 0.92788 0.0
C803 C 0.9239 0.53449 0.92073 0.0
C804 C 0.91592 0.54152 0.89216 0.0
C805 C 0.93076 0.56041 0.87125 0.0
C806 C 0.95403 0.57198 0.87965 0.0
H807 H 0.48913 0.99539 0.43802 0.0
H808 H 0.48663 0.95333 0.52572 0.0
H809 H 0.44872 0.92381 0.50657 0.0
H810 H 0.43106 0.98068 0.44175 0.0
H811 H 0.42845 0.98138 0.39433 0.0
H812 H 0.45525 0.99895 0.41515 0.0
H813 H 0.47343 0.98169 0.37508 0.0
H814 H 0.44669 0.96408 0.35414 0.0
H815 H 0.46165 0.95163 0.37432 0.0
H816 H 0.4111 0.89842 0.47617 0.0
H817 H 0.37687 0.88028 0.43874 0.0
H818 H 0.40468 0.93974 0.37226 0.0
C819 C 0.48067 0.97999 0.45329 0.0
C820 C 0.49089 0.97665 0.48333 0.0
C821 C 0.47912 0.95627 0.50262 0.0
C822 C 0.45761 0.93941 0.49192 0.0
C823 C 0.44808 0.94326 0.46203 0.0
C824 C 0.45924 0.96313 0.44316 0.0
C825 C 0.44544 0.96334 0.41215 0.0
C826 C 0.43971 0.9822 0.4161 0.0
C827 C 0.45753 0.96529 0.37684 0.0
C828 C 0.42475 0.94043 0.41635 0.0
C829 C 0.42652 0.929 0.44515 0.0
C830 C 0.40952 0.90729 0.45367 0.0
C831 C 0.3902 0.89709 0.43224 0.0
C832 C 0.38804 0.9087 0.40286 0.0
C833 C 0.40563 0.93061 0.39495 0.0
H834 H 0.51266 0.46161 0.89789 0.0
H835 H 0.52393 0.44144 0.0014 0.0
H836 H 0.51301 0.40393 0.97813 0.0
H837 H 0.4645 0.40892 0.87468 0.0
H838 H 0.47229 0.41027 0.82874 0.0
H839 H 0.48118 0.4358 0.85334 0.0
H840 H 0.5227 0.4492 0.83703 0.0
H841 H 0.51392 0.42366 0.81246 0.0
H842 H 0.53442 0.43152 0.84732 0.0
H843 H 0.49902 0.368 0.94501 0.0
H844 H 0.48444 0.33632 0.90251 0.0
H845 H 0.48414 0.37995 0.81981 0.0
C846 C 0.51285 0.44929 0.91558 0.0
C847 C 0.51916 0.45448 0.95145 0.0
C848 C 0.51929 0.43793 0.97375 0.0
C849 C 0.51307 0.41653 0.96084 0.0
C850 C 0.50697 0.41193 0.92543 0.0
C851 C 0.50696 0.42784 0.90297 0.0
C852 C 0.49978 0.41844 0.86596 0.0
C853 C 0.47815 0.41835 0.85505 0.0
C854 C 0.51885 0.43148 0.83911 0.0
C855 C 0.49555 0.39477 0.87134 0.0
C856 C 0.49969 0.39134 0.9059 0.0
C857 C 0.49597 0.37052 0.91774 0.0
C858 C 0.4877 0.35266 0.89355 0.0
C859 C 0.48356 0.3559 0.85798 0.0
C860 C 0.48767 0.37725 0.84675 0.0
H861 H 0.05515 0.46081 0.43277 0.0
H862 H 0.10249 0.4955 0.51794 0.0
H863 H 0.13033 0.48824 0.48869 0.0
H864 H 0.07025 0.41736 0.42004 0.0
H865 H 0.06699 0.41675 0.37261 0.0
H866 H 0.05043 0.42419 0.4006 0.0
H867 H 0.06515 0.46167 0.36635 0.0
H868 H 0.08172 0.45434 0.33825 0.0
H869 H 0.09506 0.48047 0.36237 0.0
H870 H 0.15399 0.47959 0.44851 0.0
H871 H 0.17122 0.46833 0.40088 0.0
H872 H 0.10817 0.43755 0.34341 0.0
C873 C 0.07133 0.46677 0.44533 0.0
C874 C 0.07663 0.47874 0.47764 0.0
C875 C 0.09798 0.48621 0.49327 0.0
C876 C 0.11395 0.4822 0.47686 0.0
C877 C 0.10825 0.47045 0.445 0.0
C878 C 0.08741 0.46267 0.4295 0.0
C879 C 0.08568 0.45062 0.39501 0.0
C880 C 0.06724 0.42575 0.39721 0.0
C881 C 0.08167 0.46249 0.36365 0.0
C882 C 0.1089 0.45316 0.39334 0.0
C883 C 0.12167 0.46473 0.4224 0.0
C884 C 0.14408 0.47024 0.42587 0.0
C885 C 0.15372 0.46383 0.39879 0.0
C886 C 0.14087 0.45185 0.36898 0.0
C887 C 0.11815 0.44629 0.3664 0.0
H888 H 0.58102 0.04048 0.95991 0.0
H889 H 0.56961 0.08989 0.01301 0.0
H890 H 0.6079 0.11985 0.99555 0.0
H891 H 0.64056 0.06575 0.98336 0.0
H892 H 0.64767 0.05833 0.94145 0.0
H893 H 0.62006 0.04098 0.96019 0.0
H894 H 0.602 0.04528 0.9026 0.0
H895 H 0.6295 0.06261 0.88373 0.0
H896 H 0.6101 0.07303 0.88653 0.0
H897 H 0.64616 0.14468 0.96651 0.0
H898 H 0.68156 0.16175 0.93157 0.0
H899 H 0.66769 0.09528 0.90057 0.0
C900 C 0.58661 0.05758 0.96812 0.0
C901 C 0.57237 0.06296 0.98757 0.0
C902 C 0.58034 0.08547 0.99813 0.0
C903 C 0.60202 0.10254 0.98832 0.0
C904 C 0.61553 0.09667 0.9686 0.0
C905 C 0.60817 0.07464 0.95907 0.0
C906 C 0.62552 0.07261 0.93721 0.0
C907 C 0.63395 0.05859 0.95673 0.0
C908 C 0.61622 0.06281 0.90034 0.0
C909 C 0.64363 0.09703 0.93497 0.0
C910 C 0.63766 0.11072 0.95323 0.0
C911 C 0.65116 0.13408 0.95268 0.0
C912 C 0.67116 0.14362 0.93274 0.0
C913 C 0.67746 0.12978 0.91394 0.0
C914 C 0.66359 0.10622 0.91551 0.0
H915 H 0.5297 0.57798 0.48283 0.0
H916 H 0.58317 0.56957 0.43764 0.0
H917 H 0.59461 0.60292 0.39982 0.0
H918 H 0.5134 0.59105 0.4033 0.0
H919 H 0.50672 0.61126 0.42155 0.0
H920 H 0.50487 0.58899 0.44899 0.0
H921 H 0.53218 0.61825 0.49425 0.0
H922 H 0.53406 0.64066 0.46696 0.0
H923 H 0.55927 0.64043 0.4795 0.0
H924 H 0.59814 0.63488 0.36332 0.0
H925 H 0.59227 0.66185 0.32844 0.0
H926 H 0.53588 0.6491 0.39606 0.0
C927 C 0.5442 0.58355 0.46567 0.0
C928 C 0.55575 0.5714 0.46344 0.0
C929 C 0.57419 0.57874 0.43987 0.0
C930 C 0.58086 0.59771 0.41841 0.0
C931 C 0.56885 0.60908 0.42069 0.0
C932 C 0.55087 0.60226 0.44365 0.0
C933 C 0.53937 0.616 0.43834 0.0
C934 C 0.51463 0.60092 0.42738 0.0
C935 C 0.54134 0.62965 0.47175 0.0
C936 C 0.55334 0.63119 0.40823 0.0
C937 C 0.57051 0.6272 0.3989 0.0
C938 C 0.58497 0.63839 0.37072 0.0
C939 C 0.58157 0.65379 0.35116 0.0
C940 C 0.56371 0.65773 0.35962 0.0
C941 C 0.54968 0.64648 0.38894 0.0
H942 H 0.51341 0.05317 0.55767 0.0
H943 H 0.54638 0.10032 0.47148 0.0
H944 H 0.53049 0.12344 0.49333 0.0
H945 H 0.46233 0.05605 0.55728 0.0
H946 H 0.45925 0.0538 0.60477 0.0
H947 H 0.47309 0.04101 0.58201 0.0
H948 H 0.50831 0.06318 0.62157 0.0
H949 H 0.49458 0.07599 0.64449 0.0
H950 H 0.5216 0.09337 0.62391 0.0
H951 H 0.51217 0.1423 0.52674 0.0
H952 H 0.49176 0.15429 0.56749 0.0
H953 H 0.47023 0.09392 0.62995 0.0
C954 C 0.51731 0.06834 0.54331 0.0
C955 C 0.53121 0.07499 0.51295 0.0
C956 C 0.53575 0.09489 0.49481 0.0
C957 C 0.52682 0.10813 0.50703 0.0
C958 C 0.51323 0.10111 0.53717 0.0
C959 C 0.5084 0.08159 0.5549 0.0
C960 C 0.49338 0.07766 0.58661 0.0
C961 C 0.47067 0.05584 0.5824 0.0
C962 C 0.50518 0.07756 0.62118 0.0
C963 C 0.49067 0.09814 0.58422 0.0
C964 C 0.50227 0.11154 0.55564 0.0
C965 C 0.50286 0.13181 0.549 0.0
C966 C 0.4913 0.13852 0.57226 0.0
C967 C 0.4792 0.12487 0.60149 0.0
C968 C 0.4789 0.10443 0.60733 0.0
H969 H 0.4725 0.48904 0.05541 0.0
H970 H 0.50537 0.46255 0.12191 0.0
H971 H 0.47029 0.44152 0.15697 0.0
H972 H 0.44195 0.49717 0.12523 0.0
H973 H 0.41757 0.48968 0.09822 0.0
H974 H 0.44499 0.5019 0.07806 0.0
H975 H 0.43045 0.46779 0.03561 0.0
H976 H 0.40302 0.45538 0.05582 0.0
H977 H 0.41769 0.43979 0.05375 0.0
H978 H 0.43131 0.42308 0.18401 0.0
H979 H 0.39281 0.41141 0.20454 0.0
H980 H 0.38613 0.45103 0.12099 0.0
C981 C 0.47234 0.47875 0.07726 0.0
C982 C 0.49159 0.47726 0.08583 0.0
C983 C 0.49079 0.4639 0.11494 0.0
C984 C 0.47093 0.45183 0.13484 0.0
C985 C 0.45218 0.45353 0.1254 0.0
C986 C 0.45283 0.46687 0.09754 0.0
C987 C 0.43076 0.4666 0.0936 0.0
C988 C 0.43402 0.49024 0.09912 0.0
C989 C 0.41984 0.4568 0.05756 0.0
C990 C 0.41748 0.45098 0.12363 0.0
C991 C 0.43003 0.44342 0.14143 0.0
C992 C 0.42133 0.42886 0.17022 0.0
C993 C 0.39938 0.42217 0.18148 0.0
C994 C 0.38644 0.43019 0.16416 0.0
C995 C 0.39563 0.44463 0.13469 0.0
H996 H 0.01624 0.45555 0.65745 0.0
H997 H 0.00444 0.4229 0.55505 0.0
H998 H 0.98042 0.38601 0.58346 0.0
H999 H 0.01682 0.41131 0.71017 0.0
H1000 H 0.00201 0.41491 0.74675 0.0
H1001 H 0.01974 0.43846 0.71872 0.0
H1002 H 0.98617 0.44476 0.70626 0.0
H1003 H 0.9683 0.42115 0.73405 0.0
H1004 H 0.96038 0.42197 0.68881 0.0
H1005 H 0.95709 0.35276 0.62287 0.0
H1006 H 0.93475 0.32579 0.67029 0.0
H1007 H 0.96027 0.38043 0.74617 0.0
C1008 C 0.00891 0.44058 0.64114 0.0
C1009 C 0.01234 0.44199 0.60415 0.0
C1010 C 0.00204 0.42213 0.5835 0.0
C1011 C 0.98843 0.40112 0.59938 0.0
C1012 C 0.98511 0.40031 0.63587 0.0
C1013 C 0.99495 0.41952 0.65648 0.0
C1014 C 0.98756 0.41419 0.69476 0.0
C1015 C 0.00774 0.42006 0.71903 0.0
C1016 C 0.97485 0.42623 0.70665 0.0
C1017 C 0.97198 0.38903 0.69241 0.0
C1018 C 0.97097 0.3813 0.6583 0.0
C1019 C 0.95774 0.35861 0.64969 0.0
C1020 C 0.94517 0.34343 0.67671 0.0
C1021 C 0.94573 0.3511 0.71169 0.0
C1022 C 0.95935 0.37419 0.71952 0.0
H1023 H 0.51327 0.93602 0.0204 0.0
H1024 H 0.57048 0.00335 0.02962 0.0
H1025 H 0.59247 0.98811 0.05816 0.0
H1026 H 0.51954 0.91873 0.10529 0.0
H1027 H 0.51061 0.89013 0.09302 0.0
H1028 H 0.50052 0.90582 0.06865 0.0
H1029 H 0.51545 0.89808 0.01033 0.0
H1030 H 0.52566 0.8824 0.0346 0.0
H1031 H 0.54463 0.90571 0.00707 0.0
H1032 H 0.60744 0.96611 0.08828 0.0
H1033 H 0.61327 0.93946 0.12414 0.0
H1034 H 0.54558 0.8864 0.09925 0.0
C1035 C 0.53059 0.94738 0.02782 0.0
C1036 C 0.54046 0.97075 0.0225 0.0
C1037 C 0.56284 0.98536 0.0334 0.0
C1038 C 0.57544 0.97685 0.04939 0.0
C1039 C 0.56524 0.95372 0.0547 0.0
C1040 C 0.54324 0.93918 0.04466 0.0
C1041 C 0.53553 0.91542 0.05705 0.0
C1042 C 0.51536 0.90704 0.08252 0.0
C1043 C 0.53 0.89946 0.02537 0.0
C1044 C 0.55647 0.91897 0.07614 0.0
C1045 C 0.57356 0.9411 0.07371 0.0
C1046 C 0.59428 0.94869 0.09011 0.0
C1047 C 0.59748 0.93339 0.11024 0.0
C1048 C 0.57994 0.91084 0.11423 0.0
C1049 C 0.5593 0.90352 0.09647 0.0
H1050 H 0.59392 0.53942 0.57923 0.0
H1051 H 0.60691 0.50162 0.49972 0.0
H1052 H 0.64214 0.51041 0.53032 0.0
H1053 H 0.65163 0.58352 0.59021 0.0
H1054 H 0.64884 0.5859 0.63727 0.0
H1055 H 0.62478 0.57684 0.60882 0.0
H1056 H 0.60258 0.54065 0.64641 0.0
H1057 H 0.62656 0.54958 0.67495 0.0
H1058 H 0.61426 0.52258 0.65345 0.0
H1059 H 0.6756 0.52259 0.57054 0.0
H1060 H 0.70515 0.5381 0.61659 0.0
H1061 H 0.67016 0.56787 0.66941 0.0
C1062 C 0.60419 0.53304 0.56813 0.0
C1063 C 0.59762 0.51983 0.53704 0.0
C1064 C 0.61158 0.51181 0.52347 0.0
C1065 C 0.63163 0.51669 0.54067 0.0
C1066 C 0.63753 0.52967 0.57134 0.0
C1067 C 0.62426 0.5378 0.58488 0.0
C1068 C 0.63433 0.55126 0.61834 0.0
C1069 C 0.64025 0.57584 0.61334 0.0
C1070 C 0.61849 0.54036 0.65016 0.0
C1071 C 0.6553 0.54937 0.62158 0.0
C1072 C 0.65684 0.53683 0.59427 0.0
C1073 C 0.6746 0.53249 0.59201 0.0
C1074 C 0.69123 0.54126 0.61835 0.0
C1075 C 0.69001 0.55426 0.64649 0.0
C1076 C 0.67176 0.5583 0.64795 0.0
H1077 H 0.07351 0.58798 0.11088 0.0
H1078 H 0.01583 0.5516 0.18037 0.0
H1079 H 0.0324 0.58305 0.22278 0.0
H1080 H 0.11454 0.61051 0.17908 0.0
H1081 H 0.13176 0.63725 0.15769 0.0
H1082 H 0.11481 0.61256 0.13145 0.0
H1083 H 0.09561 0.6325 0.10139 0.0
H1084 H 0.11255 0.6573 0.1275 0.0
H1085 H 0.08231 0.64418 0.12844 0.0
H1086 H 0.05565 0.61719 0.25883 0.0
H1087 H 0.08442 0.65199 0.28706 0.0
H1088 H 0.12731 0.66703 0.19444 0.0
C1089 C 0.06424 0.58675 0.13481 0.0
C1090 C 0.0433 0.56733 0.14222 0.0
C1091 C 0.03186 0.56627 0.17408 0.0
C1092 C 0.04111 0.58408 0.19831 0.0
C1093 C 0.06183 0.60284 0.19038 0.0
C1094 C 0.07329 0.60436 0.15946 0.0
C1095 C 0.09575 0.62608 0.1582 0.0
C1096 C 0.11537 0.62131 0.15651 0.0
C1097 C 0.0966 0.64089 0.12703 0.0
C1098 C 0.09518 0.63639 0.19344 0.0
C1099 C 0.07538 0.62272 0.21139 0.0
C1100 C 0.07111 0.6282 0.24486 0.0
C1101 C 0.08754 0.64816 0.26055 0.0
C1102 C 0.10807 0.66254 0.24284 0.0
C1103 C 0.11183 0.65649 0.20871 0.0
loop_
_geom_bond_atom_site_label_1
_geom_bond_atom_site_label_2
_geom_bond_distance
_geom_bond_site_symmetry_2
_ccdc_geom_bond_type
C0 O2 1.247 . S
C0 O4 1.258 . S
C1 O8 1.247 . S
C1 O9 1.258 . S
O2 C0 1.247 . S
O2 Zn3 2.028 1_455 S
Zn3 O2 2.028 1_655 S
Zn3 O7 2.035 . S
Zn3 O9 2.035 . S
Zn3 O10 2.028 1_655 S
O4 C0 1.258 . S
O4 Zn5 2.035 . S
Zn5 O4 2.035 . S
Zn5 O6 2.028 1_455 S
Zn5 O8 2.028 1_455 S
Zn5 O11 2.035 . S
O6 Zn5 2.028 1_655 S
O6 C12 1.247 . S
O7 Zn3 2.035 . S
O7 C12 1.258 . S
O8 C1 1.247 . S
O8 Zn5 2.028 1_655 S
O9 C1 1.258 . S
O9 Zn3 2.035 . S
O10 Zn3 2.028 1_455 S
O10 C13 1.247 . S
O11 Zn5 2.035 . S
O11 C13 1.258 . S
C12 O6 1.247 . S
C12 O7 1.258 . S
C13 O10 1.247 . S
C13 O11 1.258 . S
C14 O16 1.247 . S
C14 O18 1.258 . S
C15 O22 1.247 . S
C15 O23 1.258 . S
O16 C14 1.247 . S
O16 Zn17 2.028 1_545 S
Zn17 O16 2.028 1_565 S
Zn17 O21 2.035 . S
Zn17 O23 2.035 . S
Zn17 O24 2.028 1_565 S
O18 C14 1.258 . S
O18 Zn19 2.035 . S
Zn19 O18 2.035 . S
Zn19 O20 2.028 1_545 S
Zn19 O22 2.028 1_545 S
Zn19 O25 2.035 . S
O20 Zn19 2.028 1_565 S
O20 C26 1.247 . S
O21 Zn17 2.035 . S
O21 C26 1.258 . S
O22 C15 1.247 . S
O22 Zn19 2.028 1_565 S
O23 C15 1.258 . S
O23 Zn17 2.035 . S
O24 Zn17 2.028 1_545 S
O24 C27 1.247 . S
O25 Zn19 2.035 . S
O25 C27 1.258 . S
C26 O20 1.247 . S
C26 O21 1.258 . S
C27 O24 1.247 . S
C27 O25 1.258 . S
C28 O30 1.247 . S
C28 O32 1.258 1_556 S
C29 O36 1.247 . S
C29 O37 1.258 . S
O30 C28 1.247 . S
O30 Zn31 2.028 . S
Zn31 O30 2.028 . S
Zn31 O35 2.035 1_556 S
Zn31 O37 2.035 1_556 S
Zn31 O38 2.028 . S
O32 C28 1.258 1_554 S
O32 Zn33 2.035 . S
Zn33 O32 2.035 . S
Zn33 O34 2.028 . S
Zn33 O36 2.028 . S
Zn33 O39 2.035 . S
O34 Zn33 2.028 . S
O34 C40 1.247 . S
O35 Zn31 2.035 1_554 S
O35 C40 1.258 . S
O36 C29 1.247 . S
O36 Zn33 2.028 . S
O37 C29 1.258 . S
O37 Zn31 2.035 1_554 S
O38 Zn31 2.028 . S
O38 C41 1.247 . S
O39 Zn33 2.035 . S
O39 C41 1.258 1_554 S
C40 O34 1.247 . S
C40 O35 1.258 . S
C41 O38 1.247 . S
C41 O39 1.258 1_556 S
C42 O44 1.247 . S
C42 O46 1.258 . S
C43 O50 1.247 . S
C43 O51 1.258 . S
O44 C42 1.247 . S
O44 Zn45 2.028 . S
Zn45 O44 2.028 . S
Zn45 O49 2.035 . S
Zn45 O51 2.035 . S
Zn45 O52 2.028 . S
O46 C42 1.258 . S
O46 Zn47 2.035 . S
Zn47 O46 2.035 . S
Zn47 O48 2.028 . S
Zn47 O50 2.028 . S
Zn47 O53 2.035 . S
O48 Zn47 2.028 . S
O48 C54 1.247 . S
O49 Zn45 2.035 . S
O49 C54 1.258 . S
O50 C43 1.247 . S
O50 Zn47 2.028 . S
O51 C43 1.258 . S
O51 Zn45 2.035 . S
O52 Zn45 2.028 . S
O52 C55 1.247 . S
O53 Zn47 2.035 . S
O53 C55 1.258 . S
C54 O48 1.247 . S
C54 O49 1.258 . S
C55 O52 1.247 . S
C55 O53 1.258 . S
C56 O58 1.247 1_565 S
C56 O60 1.258 . S
C57 O64 1.247 . S
C57 O65 1.258 1_556 S
O58 C56 1.247 1_545 S
O58 Zn59 2.028 . S
Zn59 O58 2.028 . S
Zn59 O63 2.035 . S
Zn59 O65 2.035 . S
Zn59 O66 2.028 . S
O60 C56 1.258 . S
O60 Zn61 2.035 1_554 S
Zn61 O60 2.035 1_556 S
Zn61 O62 2.028 1_565 S
Zn61 O64 2.028 1_565 S
Zn61 O67 2.035 1_556 S
O62 Zn61 2.028 1_545 S
O62 C68 1.247 . S
O63 Zn59 2.035 . S
O63 C68 1.258 1_554 S
O64 C57 1.247 . S
O64 Zn61 2.028 1_545 S
O65 C57 1.258 1_554 S
O65 Zn59 2.035 . S
O66 Zn59 2.028 . S
O66 C69 1.247 1_545 S
O67 Zn61 2.035 1_554 S
O67 C69 1.258 . S
C68 O62 1.247 . S
C68 O63 1.258 1_556 S
C69 O66 1.247 1_565 S
C69 O67 1.258 . S
C70 O72 1.247 . S
C70 O74 1.258 . S
C71 O78 1.247 . S
C71 O79 1.258 . S
O72 C70 1.247 . S
O72 Zn73 2.028 . S
Zn73 O72 2.028 . S
Zn73 O77 2.035 . S
Zn73 O79 2.035 . S
Zn73 O80 2.028 . S
O74 C70 1.258 . S
O74 Zn75 2.035 . S
Zn75 O74 2.035 . S
Zn75 O76 2.028 . S
Zn75 O78 2.028 . S
Zn75 O81 2.035 . S
O76 Zn75 2.028 . S
O76 C82 1.247 . S
O77 Zn73 2.035 . S
O77 C82 1.258 . S
O78 C71 1.247 . S
O78 Zn75 2.028 . S
O79 C71 1.258 . S
O79 Zn73 2.035 . S
O80 Zn73 2.028 . S
O80 C83 1.247 . S
O81 Zn75 2.035 . S
O81 C83 1.258 . S
C82 O76 1.247 . S
C82 O77 1.258 . S
C83 O80 1.247 . S
C83 O81 1.258 . S
H84 C111 0.929 . S
N85 C110 1.433 . S
N85 C116 1.435 . S
N85 C122 1.423 . S
H86 C112 0.930 . S
H87 C115 0.931 . S
H88 C114 0.929 . S
H89 C117 0.930 . S
H90 C118 0.932 . S
H91 C121 0.929 . S
H92 C120 0.931 . S
H93 C123 0.929 . S
H94 C127 0.932 . S
H95 C124 0.931 . S
H96 C126 0.929 . S
H97 C129 0.929 . S
H98 C130 0.930 . S
H99 C132 0.929 . S
H100 C133 0.931 . S
H101 C135 0.930 . S
H102 C136 0.932 . S
H103 C138 0.931 . S
H104 C139 0.929 . S
H105 C141 0.929 . S
H106 C142 0.931 . S
H107 C144 0.929 . S
N108 C128 1.433 . S
N108 C134 1.435 . S
N108 C140 1.423 . S
H109 C145 0.932 . S
C110 N85 1.433 . S
C110 C111 1.363 . S
C110 C115 1.370 . S
C111 H84 0.929 . S
C111 C110 1.363 . S
C111 C112 1.385 . S
C112 H86 0.930 . S
C112 C111 1.385 . S
C112 C113 1.357 . S
C113 C112 1.357 . S
C113 C114 1.406 . S
C114 H88 0.929 . S
C114 C113 1.406 . S
C114 C115 1.391 . S
C115 H87 0.931 . S
C115 C110 1.370 . S
C115 C114 1.391 . S
C116 N85 1.435 . S
C116 C117 1.358 . S
C116 C121 1.371 . S
C117 H89 0.930 . S
C117 C116 1.358 . S
C117 C118 1.405 . S
C118 H90 0.932 . S
C118 C117 1.405 . S
C118 C119 1.383 . S
C119 C118 1.383 . S
C119 C120 1.393 . S
C120 H92 0.931 . S
C120 C119 1.393 . S
C120 C121 1.382 . S
C121 H91 0.929 . S
C121 C116 1.371 . S
C121 C120 1.382 . S
C122 N85 1.423 . S
C122 C123 1.362 . S
C122 C127 1.388 . S
C123 H93 0.929 . S
C123 C122 1.362 . S
C123 C124 1.376 . S
C124 H95 0.931 . S
C124 C123 1.376 . S
C124 C125 1.396 . S
C125 C124 1.396 . S
C125 C126 1.348 . S
C125 C143 1.472 . S
C126 H96 0.929 . S
C126 C125 1.348 . S
C126 C127 1.443 . S
C127 H94 0.932 . S
C127 C122 1.388 . S
C127 C126 1.443 . S
C128 N108 1.433 . S
C128 C129 1.363 . S
C128 C133 1.370 . S
C129 H97 0.929 . S
C129 C128 1.363 . S
C129 C130 1.385 . S
C130 H98 0.930 . S
C130 C129 1.385 . S
C130 C131 1.357 . S
C131 C130 1.357 . S
C131 C132 1.406 . S
C132 H99 0.929 . S
C132 C131 1.406 . S
C132 C133 1.391 . S
C133 H100 0.931 . S
C133 C128 1.370 . S
C133 C132 1.391 . S
C134 N108 1.435 . S
C134 C135 1.358 . S
C134 C139 1.371 . S
C135 H101 0.930 . S
C135 C134 1.358 . S
C135 C136 1.405 . S
C136 H102 0.932 . S
C136 C135 1.405 . S
C136 C137 1.383 . S
C137 C136 1.383 . S
C137 C138 1.393 . S
C138 H103 0.931 . S
C138 C137 1.393 . S
C138 C139 1.382 . S
C139 H104 0.929 . S
C139 C134 1.371 . S
C139 C138 1.382 . S
C140 N108 1.423 . S
C140 C141 1.362 . S
C140 C145 1.388 . S
C141 H105 0.929 . S
C141 C140 1.362 . S
C141 C142 1.376 . S
C142 H106 0.931 . S
C142 C141 1.376 . S
C142 C143 1.396 . S
C143 C125 1.472 . S
C143 C142 1.396 . S
C143 C144 1.348 . S
C144 H107 0.929 . S
C144 C143 1.348 . S
C144 C145 1.443 . S
C145 H109 0.932 . S
C145 C140 1.388 . S
C145 C144 1.443 . S
H146 C173 0.929 . S
N147 C172 1.433 . S
N147 C178 1.435 . S
N147 C184 1.423 . S
H148 C174 0.930 . S
H149 C177 0.931 . S
H150 C176 0.929 . S
H151 C179 0.930 . S
H152 C180 0.932 . S
H153 C183 0.929 . S
H154 C182 0.931 . S
H155 C185 0.929 . S
H156 C189 0.932 . S
H157 C186 0.931 . S
H158 C188 0.929 . S
H159 C191 0.929 . S
H160 C192 0.930 . S
H161 C194 0.929 . S
H162 C195 0.931 . S
H163 C197 0.930 . S
H164 C198 0.932 . S
H165 C200 0.931 . S
H166 C201 0.929 . S
H167 C203 0.929 . S
H168 C204 0.931 . S
H169 C206 0.929 . S
N170 C190 1.433 . S
N170 C196 1.435 . S
N170 C202 1.423 . S
H171 C207 0.932 . S
C172 N147 1.433 . S
C172 C173 1.363 . S
C172 C177 1.370 . S
C173 H146 0.929 . S
C173 C172 1.363 . S
C173 C174 1.385 . S
C174 H148 0.930 . S
C174 C173 1.385 . S
C174 C175 1.357 . S
C175 C174 1.357 . S
C175 C176 1.406 . S
C176 H150 0.929 . S
C176 C175 1.406 . S
C176 C177 1.391 . S
C177 H149 0.931 . S
C177 C172 1.370 . S
C177 C176 1.391 . S
C178 N147 1.435 . S
C178 C179 1.358 . S
C178 C183 1.371 . S
C179 H151 0.930 . S
C179 C178 1.358 . S
C179 C180 1.405 . S
C180 H152 0.932 . S
C180 C179 1.405 . S
C180 C181 1.383 . S
C181 C180 1.383 . S
C181 C182 1.393 . S
C182 H154 0.931 . S
C182 C181 1.393 . S
C182 C183 1.382 . S
C183 H153 0.929 . S
C183 C178 1.371 . S
C183 C182 1.382 . S
C184 N147 1.423 . S
C184 C185 1.362 . S
C184 C189 1.388 . S
C185 H155 0.929 . S
C185 C184 1.362 . S
C185 C186 1.376 . S
C186 H157 0.931 . S
C186 C185 1.376 . S
C186 C187 1.396 . S
C187 C186 1.396 . S
C187 C188 1.348 . S
C187 C205 1.472 . S
C188 H158 0.929 . S
C188 C187 1.348 . S
C188 C189 1.443 . S
C189 H156 0.932 . S
C189 C184 1.388 . S
C189 C188 1.443 . S
C190 N170 1.433 . S
C190 C191 1.363 . S
C190 C195 1.370 . S
C191 H159 0.929 . S
C191 C190 1.363 . S
C191 C192 1.385 . S
C192 H160 0.930 . S
C192 C191 1.385 . S
C192 C193 1.357 . S
C193 C192 1.357 . S
C193 C194 1.406 . S
C194 H161 0.929 . S
C194 C193 1.406 . S
C194 C195 1.391 . S
C195 H162 0.931 . S
C195 C190 1.370 . S
C195 C194 1.391 . S
C196 N170 1.435 . S
C196 C197 1.358 . S
C196 C201 1.371 . S
C197 H163 0.930 . S
C197 C196 1.358 . S
C197 C198 1.405 . S
C198 H164 0.932 . S
C198 C197 1.405 . S
C198 C199 1.383 . S
C199 C198 1.383 . S
C199 C200 1.393 . S
C200 H165 0.931 . S
C200 C199 1.393 . S
C200 C201 1.382 . S
C201 H166 0.929 . S
C201 C196 1.371 . S
C201 C200 1.382 . S
C202 N170 1.423 . S
C202 C203 1.362 . S
C202 C207 1.388 . S
C203 H167 0.929 . S
C203 C202 1.362 . S
C203 C204 1.376 . S
C204 H168 0.931 . S
C204 C203 1.376 . S
C204 C205 1.396 . S
C205 C187 1.472 . S
C205 C204 1.396 . S
C205 C206 1.348 . S
C206 H169 0.929 . S
C206 C205 1.348 . S
C206 C207 1.443 . S
C207 H171 0.932 . S
C207 C202 1.388 . S
C207 C206 1.443 . S
H208 C235 0.929 . S
N209 C234 1.433 . S
N209 C240 1.435 . S
N209 C246 1.423 . S
H210 C236 0.930 . S
H211 C239 0.931 . S
H212 C238 0.929 . S
H213 C241 0.930 . S
H214 C242 0.932 . S
H215 C245 0.929 . S
H216 C244 0.931 . S
H217 C247 0.929 . S
H218 C251 0.932 . S
H219 C248 0.931 . S
H220 C250 0.929 . S
H221 C253 0.929 . S
H222 C254 0.930 . S
H223 C256 0.929 . S
H224 C257 0.931 . S
H225 C259 0.930 . S
H226 C260 0.932 . S
H227 C262 0.931 . S
H228 C263 0.929 . S
H229 C265 0.929 . S
H230 C266 0.931 . S
H231 C268 0.929 . S
N232 C252 1.433 . S
N232 C258 1.435 . S
N232 C264 1.423 . S
H233 C269 0.932 . S
C234 N209 1.433 . S
C234 C235 1.363 . S
C234 C239 1.370 . S
C235 H208 0.929 . S
C235 C234 1.363 . S
C235 C236 1.385 . S
C236 H210 0.930 . S
C236 C235 1.385 . S
C236 C237 1.357 . S
C237 C236 1.357 . S
C237 C238 1.406 . S
C238 H212 0.929 . S
C238 C237 1.406 . S
C238 C239 1.391 . S
C239 H211 0.931 . S
C239 C234 1.370 . S
C239 C238 1.391 . S
C240 N209 1.435 . S
C240 C241 1.358 . S
C240 C245 1.371 . S
C241 H213 0.930 . S
C241 C240 1.358 . S
C241 C242 1.405 . S
C242 H214 0.932 . S
C242 C241 1.405 . S
C242 C243 1.383 . S
C243 C242 1.383 . S
C243 C244 1.393 . S
C244 H216 0.931 . S
C244 C243 1.393 . S
C244 C245 1.382 . S
C245 H215 0.929 . S
C245 C240 1.371 . S
C245 C244 1.382 . S
C246 N209 1.423 . S
C246 C247 1.362 . S
C246 C251 1.388 . S
C247 H217 0.929 . S
C247 C246 1.362 . S
C247 C248 1.376 . S
C248 H219 0.931 . S
C248 C247 1.376 . S
C248 C249 1.396 . S
C249 C248 1.396 . S
C249 C250 1.348 . S
C249 C267 1.472 . S
C250 H220 0.929 . S
C250 C249 1.348 . S
C250 C251 1.443 . S
C251 H218 0.932 . S
C251 C246 1.388 . S
C251 C250 1.443 . S
C252 N232 1.433 . S
C252 C253 1.363 . S
C252 C257 1.370 . S
C253 H221 0.929 . S
C253 C252 1.363 . S
C253 C254 1.385 . S
C254 H222 0.930 . S
C254 C253 1.385 . S
C254 C255 1.357 . S
C255 C254 1.357 . S
C255 C256 1.406 . S
C256 H223 0.929 . S
C256 C255 1.406 . S
C256 C257 1.391 . S
C257 H224 0.931 . S
C257 C252 1.370 . S
C257 C256 1.391 . S
C258 N232 1.435 . S
C258 C259 1.358 . S
C258 C263 1.371 . S
C259 H225 0.930 . S
C259 C258 1.358 . S
C259 C260 1.405 . S
C260 H226 0.932 . S
C260 C259 1.405 . S
C260 C261 1.383 . S
C261 C260 1.383 . S
C261 C262 1.393 . S
C262 H227 0.931 . S
C262 C261 1.393 . S
C262 C263 1.382 . S
C263 H228 0.929 . S
C263 C258 1.371 . S
C263 C262 1.382 . S
C264 N232 1.423 . S
C264 C265 1.362 . S
C264 C269 1.388 . S
C265 H229 0.929 . S
C265 C264 1.362 . S
C265 C266 1.376 . S
C266 H230 0.931 . S
C266 C265 1.376 . S
C266 C267 1.396 . S
C267 C249 1.472 . S
C267 C266 1.396 . S
C267 C268 1.348 . S
C268 H231 0.929 . S
C268 C267 1.348 . S
C268 C269 1.443 . S
C269 H233 0.932 . S
C269 C264 1.388 . S
C269 C268 1.443 . S
H270 C297 0.929 . S
N271 C296 1.433 . S
N271 C302 1.435 . S
N271 C308 1.423 . S
H272 C298 0.930 . S
H273 C301 0.931 . S
H274 C300 0.929 . S
H275 C303 0.930 . S
H276 C304 0.932 . S
H277 C307 0.929 . S
H278 C306 0.931 . S
H279 C309 0.929 . S
H280 C313 0.932 . S
H281 C310 0.931 . S
H282 C312 0.929 . S
H283 C315 0.929 . S
H284 C316 0.930 . S
H285 C318 0.929 . S
H286 C319 0.931 . S
H287 C321 0.930 . S
H288 C322 0.932 . S
H289 C324 0.931 . S
H290 C325 0.929 . S
H291 C327 0.929 . S
H292 C328 0.931 . S
H293 C330 0.929 . S
N294 C314 1.433 . S
N294 C320 1.435 . S
N294 C326 1.423 . S
H295 C331 0.932 . S
C296 N271 1.433 . S
C296 C297 1.363 . S
C296 C301 1.370 . S
C297 H270 0.929 . S
C297 C296 1.363 . S
C297 C298 1.385 . S
C298 H272 0.930 . S
C298 C297 1.385 . S
C298 C299 1.357 . S
C299 C298 1.357 . S
C299 C300 1.406 . S
C300 H274 0.929 . S
C300 C299 1.406 . S
C300 C301 1.391 . S
C301 H273 0.931 . S
C301 C296 1.370 . S
C301 C300 1.391 . S
C302 N271 1.435 . S
C302 C303 1.358 . S
C302 C307 1.371 . S
C303 H275 0.930 . S
C303 C302 1.358 . S
C303 C304 1.405 . S
C304 H276 0.932 . S
C304 C303 1.405 . S
C304 C305 1.383 . S
C305 C304 1.383 . S
C305 C306 1.393 . S
C306 H278 0.931 . S
C306 C305 1.393 . S
C306 C307 1.382 . S
C307 H277 0.929 . S
C307 C302 1.371 . S
C307 C306 1.382 . S
C308 N271 1.423 . S
C308 C309 1.362 . S
C308 C313 1.388 . S
C309 H279 0.929 . S
C309 C308 1.362 . S
C309 C310 1.376 . S
C310 H281 0.931 . S
C310 C309 1.376 . S
C310 C311 1.396 . S
C311 C310 1.396 . S
C311 C312 1.348 . S
C311 C329 1.472 . S
C312 H282 0.929 . S
C312 C311 1.348 . S
C312 C313 1.443 . S
C313 H280 0.932 . S
C313 C308 1.388 . S
C313 C312 1.443 . S
C314 N294 1.433 . S
C314 C315 1.363 . S
C314 C319 1.370 . S
C315 H283 0.929 . S
C315 C314 1.363 . S
C315 C316 1.385 . S
C316 H284 0.930 . S
C316 C315 1.385 . S
C316 C317 1.357 . S
C317 C316 1.357 . S
C317 C318 1.406 . S
C318 H285 0.929 . S
C318 C317 1.406 . S
C318 C319 1.391 . S
C319 H286 0.931 . S
C319 C314 1.370 . S
C319 C318 1.391 . S
C320 N294 1.435 . S
C320 C321 1.358 . S
C320 C325 1.371 . S
C321 H287 0.930 . S
C321 C320 1.358 . S
C321 C322 1.405 . S
C322 H288 0.932 . S
C322 C321 1.405 . S
C322 C323 1.383 . S
C323 C322 1.383 . S
C323 C324 1.393 . S
C324 H289 0.931 . S
C324 C323 1.393 . S
C324 C325 1.382 . S
C325 H290 0.929 . S
C325 C320 1.371 . S
C325 C324 1.382 . S
C326 N294 1.423 . S
C326 C327 1.362 . S
C326 C331 1.388 . S
C327 H291 0.929 . S
C327 C326 1.362 . S
C327 C328 1.376 . S
C328 H292 0.931 . S
C328 C327 1.376 . S
C328 C329 1.396 . S
C329 C311 1.472 . S
C329 C328 1.396 . S
C329 C330 1.348 . S
C330 H293 0.929 . S
C330 C329 1.348 . S
C330 C331 1.443 . S
C331 H295 0.932 . S
C331 C326 1.388 . S
C331 C330 1.443 . S
H332 C359 0.929 . S
N333 C358 1.433 . S
N333 C364 1.435 . S
N333 C370 1.423 . S
H334 C360 0.930 . S
H335 C363 0.931 . S
H336 C362 0.929 . S
H337 C365 0.930 . S
H338 C366 0.932 . S
H339 C369 0.929 . S
H340 C368 0.931 . S
H341 C371 0.929 . S
H342 C375 0.932 . S
H343 C372 0.931 . S
H344 C374 0.929 . S
H345 C377 0.929 . S
H346 C378 0.930 . S
H347 C380 0.929 . S
H348 C381 0.931 . S
H349 C383 0.930 . S
H350 C384 0.932 . S
H351 C386 0.931 . S
H352 C387 0.929 . S
H353 C389 0.929 . S
H354 C390 0.931 . S
H355 C392 0.929 . S
N356 C376 1.433 . S
N356 C382 1.435 . S
N356 C388 1.423 . S
H357 C393 0.932 . S
C358 N333 1.433 . S
C358 C359 1.363 . S
C358 C363 1.370 . S
C359 H332 0.929 . S
C359 C358 1.363 . S
C359 C360 1.385 . S
C360 H334 0.930 . S
C360 C359 1.385 . S
C360 C361 1.357 . S
C361 C360 1.357 . S
C361 C362 1.406 . S
C362 H336 0.929 . S
C362 C361 1.406 . S
C362 C363 1.391 . S
C363 H335 0.931 . S
C363 C358 1.370 . S
C363 C362 1.391 . S
C364 N333 1.435 . S
C364 C365 1.358 . S
C364 C369 1.371 . S
C365 H337 0.930 . S
C365 C364 1.358 . S
C365 C366 1.405 . S
C366 H338 0.932 . S
C366 C365 1.405 . S
C366 C367 1.383 . S
C367 C366 1.383 . S
C367 C368 1.393 . S
C368 H340 0.931 . S
C368 C367 1.393 . S
C368 C369 1.382 . S
C369 H339 0.929 . S
C369 C364 1.371 . S
C369 C368 1.382 . S
C370 N333 1.423 . S
C370 C371 1.362 . S
C370 C375 1.388 . S
C371 H341 0.929 . S
C371 C370 1.362 . S
C371 C372 1.376 . S
C372 H343 0.931 . S
C372 C371 1.376 . S
C372 C373 1.396 . S
C373 C372 1.396 . S
C373 C374 1.348 . S
C373 C391 1.472 . S
C374 H344 0.929 . S
C374 C373 1.348 . S
C374 C375 1.443 . S
C375 H342 0.932 . S
C375 C370 1.388 . S
C375 C374 1.443 . S
C376 N356 1.433 . S
C376 C377 1.363 . S
C376 C381 1.370 . S
C377 H345 0.929 . S
C377 C376 1.363 . S
C377 C378 1.385 . S
C378 H346 0.930 . S
C378 C377 1.385 . S
C378 C379 1.357 . S
C379 C378 1.357 . S
C379 C380 1.406 . S
C380 H347 0.929 . S
C380 C379 1.406 . S
C380 C381 1.391 . S
C381 H348 0.931 . S
C381 C376 1.370 . S
C381 C380 1.391 . S
C382 N356 1.435 . S
C382 C383 1.358 . S
C382 C387 1.371 . S
C383 H349 0.930 . S
C383 C382 1.358 . S
C383 C384 1.405 . S
C384 H350 0.932 . S
C384 C383 1.405 . S
C384 C385 1.383 . S
C385 C384 1.383 . S
C385 C386 1.393 . S
C386 H351 0.931 . S
C386 C385 1.393 . S
C386 C387 1.382 . S
C387 H352 0.929 . S
C387 C382 1.371 . S
C387 C386 1.382 . S
C388 N356 1.423 . S
C388 C389 1.362 . S
C388 C393 1.388 . S
C389 H353 0.929 . S
C389 C388 1.362 . S
C389 C390 1.376 . S
C390 H354 0.931 . S
C390 C389 1.376 . S
C390 C391 1.396 . S
C391 C373 1.472 . S
C391 C390 1.396 . S
C391 C392 1.348 . S
C392 H355 0.929 . S
C392 C391 1.348 . S
C392 C393 1.443 . S
C393 H357 0.932 . S
C393 C388 1.388 . S
C393 C392 1.443 . S
H394 C421 0.929 . S
N395 C420 1.433 . S
N395 C426 1.435 . S
N395 C432 1.423 . S
H396 C422 0.930 . S
H397 C425 0.931 . S
H398 C424 0.929 . S
H399 C427 0.930 . S
H400 C428 0.932 . S
H401 C431 0.929 . S
H402 C430 0.931 . S
H403 C433 0.929 . S
H404 C437 0.932 . S
H405 C434 0.931 . S
H406 C436 0.929 . S
H407 C439 0.929 . S
H408 C440 0.930 . S
H409 C442 0.929 . S
H410 C443 0.931 . S
H411 C445 0.930 . S
H412 C446 0.932 . S
H413 C448 0.931 . S
H414 C449 0.929 . S
H415 C451 0.929 . S
H416 C452 0.931 . S
H417 C454 0.929 . S
N418 C438 1.433 . S
N418 C444 1.435 . S
N418 C450 1.423 . S
H419 C455 0.932 . S
C420 N395 1.433 . S
C420 C421 1.363 . S
C420 C425 1.370 . S
C421 H394 0.929 . S
C421 C420 1.363 . S
C421 C422 1.385 . S
C422 H396 0.930 . S
C422 C421 1.385 . S
C422 C423 1.357 . S
C423 C422 1.357 . S
C423 C424 1.406 . S
C424 H398 0.929 . S
C424 C423 1.406 . S
C424 C425 1.391 . S
C425 H397 0.931 . S
C425 C420 1.370 . S
C425 C424 1.391 . S
C426 N395 1.435 . S
C426 C427 1.358 . S
C426 C431 1.371 . S
C427 H399 0.930 . S
C427 C426 1.358 . S
C427 C428 1.405 . S
C428 H400 0.932 . S
C428 C427 1.405 . S
C428 C429 1.383 . S
C429 C428 1.383 . S
C429 C430 1.393 . S
C430 H402 0.931 . S
C430 C429 1.393 . S
C430 C431 1.382 . S
C431 H401 0.929 . S
C431 C426 1.371 . S
C431 C430 1.382 . S
C432 N395 1.423 . S
C432 C433 1.362 . S
C432 C437 1.388 . S
C433 H403 0.929 . S
C433 C432 1.362 . S
C433 C434 1.376 . S
C434 H405 0.931 . S
C434 C433 1.376 . S
C434 C435 1.396 . S
C435 C434 1.396 . S
C435 C436 1.348 . S
C435 C453 1.472 . S
C436 H406 0.929 . S
C436 C435 1.348 . S
C436 C437 1.443 . S
C437 H404 0.932 . S
C437 C432 1.388 . S
C437 C436 1.443 . S
C438 N418 1.433 . S
C438 C439 1.363 . S
C438 C443 1.370 . S
C439 H407 0.929 . S
C439 C438 1.363 . S
C439 C440 1.385 . S
C440 H408 0.930 . S
C440 C439 1.385 . S
C440 C441 1.357 . S
C441 C440 1.357 . S
C441 C442 1.406 . S
C442 H409 0.929 . S
C442 C441 1.406 . S
C442 C443 1.391 . S
C443 H410 0.931 . S
C443 C438 1.370 . S
C443 C442 1.391 . S
C444 N418 1.435 . S
C444 C445 1.358 . S
C444 C449 1.371 . S
C445 H411 0.930 . S
C445 C444 1.358 . S
C445 C446 1.405 . S
C446 H412 0.932 . S
C446 C445 1.405 . S
C446 C447 1.383 . S
C447 C446 1.383 . S
C447 C448 1.393 . S
C448 H413 0.931 . S
C448 C447 1.393 . S
C448 C449 1.382 . S
C449 H414 0.929 . S
C449 C444 1.371 . S
C449 C448 1.382 . S
C450 N418 1.423 . S
C450 C451 1.362 . S
C450 C455 1.388 . S
C451 H415 0.929 . S
C451 C450 1.362 . S
C451 C452 1.376 . S
C452 H416 0.931 . S
C452 C451 1.376 . S
C452 C453 1.396 . S
C453 C435 1.472 . S
C453 C452 1.396 . S
C453 C454 1.348 . S
C454 H417 0.929 . S
C454 C453 1.348 . S
C454 C455 1.443 . S
C455 H419 0.932 . S
C455 C450 1.388 . S
C455 C454 1.443 . S
H456 C468 0.930 . S
H457 C470 0.930 . S
H458 C471 0.930 . S
H459 C475 0.959 . S
H460 C475 0.959 . S
H461 C475 0.961 . S
H462 C476 0.960 . S
H463 C476 0.961 . S
H464 C476 0.959 . S
H465 C479 0.929 . S
H466 C480 0.931 . S
H467 C482 0.930 . S
C468 H456 0.930 . S
C468 C469 1.399 . S
C468 C473 1.399 . S
C469 C468 1.399 . S
C469 C470 1.376 . S
C470 H457 0.930 . S
C470 C469 1.376 . S
C470 C471 1.388 . S
C471 H458 0.930 . S
C471 C470 1.388 . S
C471 C472 1.390 . S
C472 C471 1.390 . S
C472 C473 1.394 . S
C472 C478 1.465 . S
C473 C468 1.399 . S
C473 C472 1.394 . S
C473 C474 1.516 . S
C474 C473 1.516 . S
C474 C475 1.502 . S
C474 C476 1.561 . S
C474 C477 1.526 . S
C475 H459 0.959 . S
C475 H460 0.959 . S
C475 H461 0.961 . S
C475 C474 1.502 . S
C476 H462 0.960 . S
C476 H463 0.961 . S
C476 H464 0.959 . S
C476 C474 1.561 . S
C477 C474 1.526 . S
C477 C478 1.396 . S
C477 C482 1.390 . S
C478 C472 1.465 . S
C478 C477 1.396 . S
C478 C479 1.399 . S
C479 H465 0.929 . S
C479 C478 1.399 . S
C479 C480 1.385 . S
C480 H466 0.931 . S
C480 C479 1.385 . S
C480 C481 1.389 . S
C481 C480 1.389 . S
C481 C482 1.387 . S
C482 H467 0.930 . S
C482 C477 1.390 . S
C482 C481 1.387 . S
H483 C495 0.930 . S
H484 C497 0.930 . S
H485 C498 0.930 . S
H486 C502 0.959 . S
H487 C502 0.959 . S
H488 C502 0.961 . S
H489 C503 0.960 . S
H490 C503 0.961 . S
H491 C503 0.959 . S
H492 C506 0.929 . S
H493 C507 0.931 . S
H494 C509 0.930 . S
C495 H483 0.930 . S
C495 C496 1.399 . S
C495 C500 1.399 . S
C496 C495 1.399 . S
C496 C497 1.376 . S
C497 H484 0.930 . S
C497 C496 1.376 . S
C497 C498 1.388 . S
C498 H485 0.930 . S
C498 C497 1.388 . S
C498 C499 1.390 . S
C499 C498 1.390 . S
C499 C500 1.394 . S
C499 C505 1.465 . S
C500 C495 1.399 . S
C500 C499 1.394 . S
C500 C501 1.516 . S
C501 C500 1.516 . S
C501 C502 1.502 . S
C501 C503 1.561 . S
C501 C504 1.526 . S
C502 H486 0.959 . S
C502 H487 0.959 . S
C502 H488 0.961 . S
C502 C501 1.502 . S
C503 H489 0.960 . S
C503 H490 0.961 . S
C503 H491 0.959 . S
C503 C501 1.561 . S
C504 C501 1.526 . S
C504 C505 1.396 . S
C504 C509 1.390 . S
C505 C499 1.465 . S
C505 C504 1.396 . S
C505 C506 1.399 . S
C506 H492 0.929 . S
C506 C505 1.399 . S
C506 C507 1.385 . S
C507 H493 0.931 . S
C507 C506 1.385 . S
C507 C508 1.389 . S
C508 C507 1.389 . S
C508 C509 1.387 . S
C509 H494 0.930 . S
C509 C504 1.390 . S
C509 C508 1.387 . S
H510 C522 0.930 . S
H511 C524 0.930 . S
H512 C525 0.930 . S
H513 C529 0.959 . S
H514 C529 0.959 . S
H515 C529 0.961 . S
H516 C530 0.960 . S
H517 C530 0.961 . S
H518 C530 0.959 . S
H519 C533 0.929 . S
H520 C534 0.931 . S
H521 C536 0.930 . S
C522 H510 0.930 . S
C522 C523 1.399 . S
C522 C527 1.399 . S
C523 C522 1.399 . S
C523 C524 1.376 . S
C524 H511 0.930 . S
C524 C523 1.376 . S
C524 C525 1.388 . S
C525 H512 0.930 . S
C525 C524 1.388 . S
C525 C526 1.390 . S
C526 C525 1.390 . S
C526 C527 1.394 . S
C526 C532 1.465 . S
C527 C522 1.399 . S
C527 C526 1.394 . S
C527 C528 1.516 . S
C528 C527 1.516 . S
C528 C529 1.502 . S
C528 C530 1.561 . S
C528 C531 1.526 . S
C529 H513 0.959 . S
C529 H514 0.959 . S
C529 H515 0.961 . S
C529 C528 1.502 . S
C530 H516 0.960 . S
C530 H517 0.961 . S
C530 H518 0.959 . S
C530 C528 1.561 . S
C531 C528 1.526 . S
C531 C532 1.396 . S
C531 C536 1.390 . S
C532 C526 1.465 . S
C532 C531 1.396 . S
C532 C533 1.399 . S
C533 H519 0.929 . S
C533 C532 1.399 . S
C533 C534 1.385 . S
C534 H520 0.931 . S
C534 C533 1.385 . S
C534 C535 1.389 . S
C535 C534 1.389 . S
C535 C536 1.387 . S
C536 H521 0.930 . S
C536 C531 1.390 . S
C536 C535 1.387 . S
H537 C549 0.930 . S
H538 C551 0.930 . S
H539 C552 0.930 . S
H540 C556 0.959 . S
H541 C556 0.959 . S
H542 C556 0.961 . S
H543 C557 1.002 . S
H544 C557 0.935 1_655 S
H545 C557 0.970 . S
H546 C560 0.929 . S
H547 C561 0.931 . S
H548 C563 0.930 . S
C549 H537 0.930 . S
C549 C550 1.399 . S
C549 C554 1.399 1_455 S
C550 C549 1.399 . S
C550 C551 1.376 . S
C551 H538 0.930 . S
C551 C550 1.376 . S
C551 C552 1.388 . S
C552 H539 0.930 . S
C552 C551 1.388 . S
C552 C553 1.390 1_455 S
C553 C552 1.390 1_655 S
C553 C554 1.394 . S
C553 C559 1.465 . S
C554 C549 1.399 1_655 S
C554 C553 1.394 . S
C554 C555 1.516 . S
C555 C554 1.516 . S
C555 C556 1.502 . S
C555 C557 1.537 1_655 S
C555 C558 1.526 . S
C556 H540 0.959 . S
C556 H541 0.959 . S
C556 H542 0.961 . S
C556 C555 1.502 . S
C557 H543 1.002 . S
C557 H544 0.935 1_455 S
C557 H545 0.970 . S
C557 C555 1.537 1_455 S
C558 C555 1.526 . S
C558 C559 1.396 . S
C558 C563 1.390 . S
C559 C553 1.465 . S
C559 C558 1.396 . S
C559 C560 1.399 . S
C560 H546 0.929 . S
C560 C559 1.399 . S
C560 C561 1.385 . S
C561 H547 0.931 . S
C561 C560 1.385 . S
C561 C562 1.389 . S
C562 C561 1.389 . S
C562 C563 1.387 . S
C563 H548 0.930 . S
C563 C558 1.390 . S
C563 C562 1.387 . S
H564 C576 0.930 . S
H565 C578 0.930 . S
H566 C579 0.930 . S
H567 C583 0.959 . S
H568 C583 0.959 . S
H569 C583 0.961 . S
H570 C584 0.960 . S
H571 C584 0.961 . S
H572 C584 0.959 . S
H573 C587 0.929 . S
H574 C588 0.931 . S
H575 C590 0.930 . S
C576 H564 0.930 . S
C576 C577 1.399 . S
C576 C581 1.399 . S
C577 C576 1.399 . S
C577 C578 1.376 . S
C578 H565 0.930 . S
C578 C577 1.376 . S
C578 C579 1.388 . S
C579 H566 0.930 . S
C579 C578 1.388 . S
C579 C580 1.390 . S
C580 C579 1.390 . S
C580 C581 1.394 . S
C580 C586 1.465 . S
C581 C576 1.399 . S
C581 C580 1.394 . S
C581 C582 1.516 . S
C582 C581 1.516 . S
C582 C583 1.502 . S
C582 C584 1.561 . S
C582 C585 1.526 . S
C583 H567 0.959 . S
C583 H568 0.959 . S
C583 H569 0.961 . S
C583 C582 1.502 . S
C584 H570 0.960 . S
C584 H571 0.961 . S
C584 H572 0.959 . S
C584 C582 1.561 . S
C585 C582 1.526 . S
C585 C586 1.396 . S
C585 C590 1.390 . S
C586 C580 1.465 . S
C586 C585 1.396 . S
C586 C587 1.399 . S
C587 H573 0.929 . S
C587 C586 1.399 . S
C587 C588 1.385 . S
C588 H574 0.931 . S
C588 C587 1.385 . S
C588 C589 1.389 . S
C589 C588 1.389 . S
C589 C590 1.387 . S
C590 H575 0.930 . S
C590 C585 1.390 . S
C590 C589 1.387 . S
H591 C603 0.930 . S
H592 C605 0.930 . S
H593 C606 0.930 . S
H594 C610 0.959 . S
H595 C610 0.959 . S
H596 C610 0.961 . S
H597 C611 0.960 . S
H598 C611 0.961 . S
H599 C611 0.959 . S
H600 C614 0.929 . S
H601 C615 0.931 . S
H602 C617 0.930 . S
C603 H591 0.930 . S
C603 C604 1.399 . S
C603 C608 1.399 . S
C604 C603 1.399 . S
C604 C605 1.376 . S
C605 H592 0.930 . S
C605 C604 1.376 . S
C605 C606 1.388 . S
C606 H593 0.930 . S
C606 C605 1.388 . S
C606 C607 1.390 . S
C607 C606 1.390 . S
C607 C608 1.394 . S
C607 C613 1.465 . S
C608 C603 1.399 . S
C608 C607 1.394 . S
C608 C609 1.516 . S
C609 C608 1.516 . S
C609 C610 1.502 . S
C609 C611 1.561 . S
C609 C612 1.526 . S
C610 H594 0.959 . S
C610 H595 0.959 . S
C610 H596 0.961 . S
C610 C609 1.502 . S
C611 H597 0.960 . S
C611 H598 0.961 . S
C611 H599 0.959 . S
C611 C609 1.561 . S
C612 C609 1.526 . S
C612 C613 1.396 . S
C612 C617 1.390 . S
C613 C607 1.465 . S
C613 C612 1.396 . S
C613 C614 1.399 . S
C614 H600 0.929 . S
C614 C613 1.399 . S
C614 C615 1.385 . S
C615 H601 0.931 . S
C615 C614 1.385 . S
C615 C616 1.389 . S
C616 C615 1.389 . S
C616 C617 1.387 . S
C617 H602 0.930 . S
C617 C612 1.390 . S
C617 C616 1.387 . S
H618 C630 0.930 . S
H619 C632 0.930 . S
H620 C633 0.930 . S
H621 C637 0.959 . S
H622 C637 0.959 . S
H623 C637 0.961 . S
H624 C638 0.960 . S
H625 C638 0.961 . S
H626 C638 0.959 . S
H627 C641 0.929 . S
H628 C642 0.931 . S
H629 C644 0.930 . S
C630 H618 0.930 . S
C630 C631 1.399 . S
C630 C635 1.399 . S
C631 C630 1.399 . S
C631 C632 1.376 . S
C632 H619 0.930 . S
C632 C631 1.376 . S
C632 C633 1.388 . S
C633 H620 0.930 . S
C633 C632 1.388 . S
C633 C634 1.390 . S
C634 C633 1.390 . S
C634 C635 1.394 . S
C634 C640 1.465 . S
C635 C630 1.399 . S
C635 C634 1.394 . S
C635 C636 1.516 . S
C636 C635 1.516 . S
C636 C637 1.502 . S
C636 C638 1.561 . S
C636 C639 1.526 . S
C637 H621 0.959 . S
C637 H622 0.959 . S
C637 H623 0.961 . S
C637 C636 1.502 . S
C638 H624 0.960 . S
C638 H625 0.961 . S
C638 H626 0.959 . S
C638 C636 1.561 . S
C639 C636 1.526 . S
C639 C640 1.396 . S
C639 C644 1.390 . S
C640 C634 1.465 . S
C640 C639 1.396 . S
C640 C641 1.399 . S
C641 H627 0.929 . S
C641 C640 1.399 . S
C641 C642 1.385 . S
C642 H628 0.931 . S
C642 C641 1.385 . S
C642 C643 1.389 . S
C643 C642 1.389 . S
C643 C644 1.387 . S
C644 H629 0.930 . S
C644 C639 1.390 . S
C644 C643 1.387 . S
H645 C657 0.930 . S
H646 C659 0.930 . S
H647 C660 0.930 . S
H648 C664 0.959 . S
H649 C664 0.959 . S
H650 C664 0.961 1_554 S
H651 C665 0.960 . S
H652 C665 0.961 . S
H653 C665 0.959 . S
H654 C668 0.929 . S
H655 C669 0.931 . S
H656 C671 0.930 . S
C657 H645 0.930 . S
C657 C658 1.399 . S
C657 C662 1.399 . S
C658 C657 1.399 . S
C658 C659 1.376 . S
C659 H646 0.930 . S
C659 C658 1.376 . S
C659 C660 1.388 . S
C660 H647 0.930 . S
C660 C659 1.388 . S
C660 C661 1.390 . S
C661 C660 1.390 . S
C661 C662 1.394 . S
C661 C667 1.465 . S
C662 C657 1.399 . S
C662 C661 1.394 . S
C662 C663 1.516 . S
C663 C662 1.516 . S
C663 C664 1.502 . S
C663 C665 1.561 . S
C663 C666 1.526 . S
C664 H648 0.959 . S
C664 H649 0.959 . S
C664 H650 0.961 1_556 S
C664 C663 1.502 . S
C665 H651 0.960 . S
C665 H652 0.961 . S
C665 H653 0.959 . S
C665 C663 1.561 . S
C666 C663 1.526 . S
C666 C667 1.396 . S
C666 C671 1.390 . S
C667 C661 1.465 . S
C667 C666 1.396 . S
C667 C668 1.399 . S
C668 H654 0.929 . S
C668 C667 1.399 . S
C668 C669 1.385 . S
C669 H655 0.931 . S
C669 C668 1.385 . S
C669 C670 1.389 . S
C670 C669 1.389 . S
C670 C671 1.387 . S
C671 H656 0.930 . S
C671 C666 1.390 . S
C671 C670 1.387 . S
H672 C684 0.930 . S
H673 C686 0.930 . S
H674 C687 0.930 . S
H675 C691 0.959 . S
H676 C691 0.959 . S
H677 C691 0.961 . S
H678 C692 0.960 . S
H679 C692 0.961 . S
H680 C692 0.959 . S
H681 C695 0.929 . S
H682 C696 0.931 . S
H683 C698 0.930 . S
C684 H672 0.930 . S
C684 C685 1.399 . S
C684 C689 1.399 . S
C685 C684 1.399 . S
C685 C686 1.376 . S
C686 H673 0.930 . S
C686 C685 1.376 . S
C686 C687 1.388 . S
C687 H674 0.930 . S
C687 C686 1.388 . S
C687 C688 1.390 . S
C688 C687 1.390 . S
C688 C689 1.394 . S
C688 C694 1.465 . S
C689 C684 1.399 . S
C689 C688 1.394 . S
C689 C690 1.516 . S
C690 C689 1.516 . S
C690 C691 1.502 . S
C690 C692 1.561 . S
C690 C693 1.526 . S
C691 H675 0.959 . S
C691 H676 0.959 . S
C691 H677 0.961 . S
C691 C690 1.502 . S
C692 H678 0.960 . S
C692 H679 0.961 . S
C692 H680 0.959 . S
C692 C690 1.561 . S
C693 C690 1.526 . S
C693 C694 1.396 . S
C693 C698 1.390 . S
C694 C688 1.465 . S
C694 C693 1.396 . S
C694 C695 1.399 . S
C695 H681 0.929 . S
C695 C694 1.399 . S
C695 C696 1.385 . S
C696 H682 0.931 . S
C696 C695 1.385 . S
C696 C697 1.389 . S
C697 C696 1.389 . S
C697 C698 1.387 . S
C698 H683 0.930 . S
C698 C693 1.390 . S
C698 C697 1.387 . S
H699 C711 0.930 . S
H700 C713 0.930 . S
H701 C714 0.930 . S
H702 C718 0.959 . S
H703 C718 0.959 . S
H704 C718 0.961 . S
H705 C719 0.960 . S
H706 C719 0.961 . S
H707 C719 0.959 . S
H708 C722 0.929 . S
H709 C723 0.931 . S
H710 C725 0.930 . S
C711 H699 0.930 . S
C711 C712 1.399 . S
C711 C716 1.399 . S
C712 C711 1.399 . S
C712 C713 1.376 . S
C713 H700 0.930 . S
C713 C712 1.376 . S
C713 C714 1.388 . S
C714 H701 0.930 . S
C714 C713 1.388 . S
C714 C715 1.390 . S
C715 C714 1.390 . S
C715 C716 1.394 . S
C715 C721 1.465 . S
C716 C711 1.399 . S
C716 C715 1.394 . S
C716 C717 1.516 . S
C717 C716 1.516 . S
C717 C718 1.502 . S
C717 C719 1.561 . S
C717 C720 1.526 . S
C718 H702 0.959 . S
C718 H703 0.959 . S
C718 H704 0.961 . S
C718 C717 1.502 . S
C719 H705 0.960 . S
C719 H706 0.961 . S
C719 H707 0.959 . S
C719 C717 1.561 . S
C720 C717 1.526 . S
C720 C721 1.396 . S
C720 C725 1.390 . S
C721 C715 1.465 . S
C721 C720 1.396 . S
C721 C722 1.399 . S
C722 H708 0.929 . S
C722 C721 1.399 . S
C722 C723 1.385 . S
C723 H709 0.931 . S
C723 C722 1.385 . S
C723 C724 1.389 . S
C724 C723 1.389 . S
C724 C725 1.387 . S
C725 H710 0.930 . S
C725 C720 1.390 . S
C725 C724 1.387 . S
H726 C738 0.930 . S
H727 C740 0.930 . S
H728 C741 0.930 . S
H729 C745 0.959 . S
H730 C745 0.959 . S
H731 C745 0.961 . S
H732 C746 0.960 . S
H733 C746 0.961 . S
H734 C746 0.959 . S
H735 C749 0.929 . S
H736 C750 0.931 . S
H737 C752 0.930 . S
C738 H726 0.930 . S
C738 C739 1.399 . S
C738 C743 1.399 . S
C739 C738 1.399 . S
C739 C740 1.376 . S
C740 H727 0.930 . S
C740 C739 1.376 . S
C740 C741 1.388 . S
C741 H728 0.930 . S
C741 C740 1.388 . S
C741 C742 1.390 . S
C742 C741 1.390 . S
C742 C743 1.394 . S
C742 C748 1.465 . S
C743 C738 1.399 . S
C743 C742 1.394 . S
C743 C744 1.516 . S
C744 C743 1.516 . S
C744 C745 1.502 . S
C744 C746 1.561 . S
C744 C747 1.526 . S
C745 H729 0.959 . S
C745 H730 0.959 . S
C745 H731 0.961 . S
C745 C744 1.502 . S
C746 H732 0.960 . S
C746 H733 0.961 . S
C746 H734 0.959 . S
C746 C744 1.561 . S
C747 C744 1.526 . S
C747 C748 1.396 . S
C747 C752 1.390 . S
C748 C742 1.465 . S
C748 C747 1.396 . S
C748 C749 1.399 . S
C749 H735 0.929 . S
C749 C748 1.399 . S
C749 C750 1.385 . S
C750 H736 0.931 . S
C750 C749 1.385 . S
C750 C751 1.389 . S
C751 C750 1.389 . S
C751 C752 1.387 . S
C752 H737 0.930 . S
C752 C747 1.390 . S
C752 C751 1.387 . S
H753 C765 0.930 . S
H754 C767 0.930 . S
H755 C768 0.930 . S
H756 C772 0.959 . S
H757 C772 0.959 . S
H758 C772 0.961 . S
H759 C773 0.960 . S
H760 C773 0.961 . S
H761 C773 0.959 . S
H762 C776 0.928 . S
H763 C777 0.931 . S
H764 C779 0.930 . S
C765 H753 0.930 . S
C765 C766 1.399 1_556 S
C765 C770 1.399 . S
C766 C765 1.399 1_554 S
C766 C767 1.376 . S
C767 H754 0.930 . S
C767 C766 1.376 . S
C767 C768 1.388 . S
C768 H755 0.930 . S
C768 C767 1.388 . S
C768 C769 1.390 1_554 S
C769 C768 1.390 1_556 S
C769 C770 1.394 . S
C769 C775 1.465 . S
C770 C765 1.399 . S
C770 C769 1.394 . S
C770 C771 1.516 . S
C771 C770 1.516 . S
C771 C772 1.502 . S
C771 C773 1.561 . S
C771 C774 1.526 . S
C772 H756 0.959 . S
C772 H757 0.959 . S
C772 H758 0.961 . S
C772 C771 1.502 . S
C773 H759 0.960 . S
C773 H760 0.961 . S
C773 H761 0.959 . S
C773 C771 1.561 . S
C774 C771 1.526 . S
C774 C775 1.396 . S
C774 C779 1.390 . S
C775 C769 1.465 . S
C775 C774 1.396 . S
C775 C776 1.399 . S
C776 H762 0.928 . S
C776 C775 1.399 . S
C776 C777 1.385 . S
C777 H763 0.931 . S
C777 C776 1.385 . S
C777 C778 1.389 . S
C778 C777 1.389 . S
C778 C779 1.387 . S
C779 H764 0.930 . S
C779 C774 1.390 . S
C779 C778 1.387 . S
H780 C792 0.930 . S
H781 C794 0.930 . S
H782 C795 0.930 . S
H783 C799 0.959 . S
H784 C799 0.959 . S
H785 C799 0.961 . S
H786 C800 0.960 1_554 S
H787 C800 0.961 . S
H788 C800 0.959 . S
H789 C803 0.929 . S
H790 C804 0.931 . S
H791 C806 0.930 . S
C792 H780 0.930 . S
C792 C793 1.400 . S
C792 C797 1.399 1_554 S
C793 C792 1.400 . S
C793 C794 1.373 1_554 S
C794 H781 0.930 . S
C794 C793 1.373 1_556 S
C794 C795 1.388 . S
C795 H782 0.930 . S
C795 C794 1.388 . S
C795 C796 1.390 . S
C796 C795 1.390 . S
C796 C797 1.394 . S
C796 C802 1.465 . S
C797 C792 1.399 1_556 S
C797 C796 1.394 . S
C797 C798 1.516 . S
C798 C797 1.516 . S
C798 C799 1.502 1_556 S
C798 C800 1.561 . S
C798 C801 1.526 . S
C799 H783 0.959 . S
C799 H784 0.959 . S
C799 H785 0.961 . S
C799 C798 1.502 1_554 S
C800 H786 0.960 1_556 S
C800 H787 0.961 . S
C800 H788 0.959 . S
C800 C798 1.561 . S
C801 C798 1.526 . S
C801 C802 1.396 . S
C801 C806 1.390 . S
C802 C796 1.465 . S
C802 C801 1.396 . S
C802 C803 1.399 . S
C803 H789 0.929 . S
C803 C802 1.399 . S
C803 C804 1.385 . S
C804 H790 0.931 . S
C804 C803 1.385 . S
C804 C805 1.389 . S
C805 C804 1.389 . S
C805 C806 1.387 . S
C806 H791 0.930 . S
C806 C801 1.390 . S
C806 C805 1.387 . S
H807 C819 0.930 . S
H808 C821 0.930 . S
H809 C822 0.930 . S
H810 C826 0.959 . S
H811 C826 0.959 . S
H812 C826 0.961 . S
H813 C827 0.960 . S
H814 C827 0.961 . S
H815 C827 0.959 . S
H816 C830 0.929 . S
H817 C831 0.931 . S
H818 C833 0.930 . S
C819 H807 0.930 . S
C819 C820 1.399 . S
C819 C824 1.399 . S
C820 C819 1.399 . S
C820 C821 1.376 . S
C821 H808 0.930 . S
C821 C820 1.376 . S
C821 C822 1.388 . S
C822 H809 0.930 . S
C822 C821 1.388 . S
C822 C823 1.390 . S
C823 C822 1.390 . S
C823 C824 1.394 . S
C823 C829 1.465 . S
C824 C819 1.399 . S
C824 C823 1.394 . S
C824 C825 1.516 . S
C825 C824 1.516 . S
C825 C826 1.502 . S
C825 C827 1.561 . S
C825 C828 1.526 . S
C826 H810 0.959 . S
C826 H811 0.959 . S
C826 H812 0.961 . S
C826 C825 1.502 . S
C827 H813 0.960 . S
C827 H814 0.961 . S
C827 H815 0.959 . S
C827 C825 1.561 . S
C828 C825 1.526 . S
C828 C829 1.396 . S
C828 C833 1.390 . S
C829 C823 1.465 . S
C829 C828 1.396 . S
C829 C830 1.399 . S
C830 H816 0.929 . S
C830 C829 1.399 . S
C830 C831 1.385 . S
C831 H817 0.931 . S
C831 C830 1.385 . S
C831 C832 1.389 . S
C832 C831 1.389 . S
C832 C833 1.387 . S
C833 H818 0.930 . S
C833 C828 1.390 . S
C833 C832 1.387 . S
H834 C846 0.930 . S
H835 C848 0.930 . S
H836 C849 0.930 . S
H837 C853 0.959 . S
H838 C853 0.959 . S
H839 C853 0.961 . S
H840 C854 0.960 . S
H841 C854 0.961 . S
H842 C854 0.959 . S
H843 C857 0.929 . S
H844 C858 0.931 . S
H845 C860 0.930 . S
C846 H834 0.930 . S
C846 C847 1.399 . S
C846 C851 1.399 . S
C847 C846 1.399 . S
C847 C848 1.376 . S
C848 H835 0.930 . S
C848 C847 1.376 . S
C848 C849 1.388 . S
C849 H836 0.930 . S
C849 C848 1.388 . S
C849 C850 1.390 . S
C850 C849 1.390 . S
C850 C851 1.394 . S
C850 C856 1.465 . S
C851 C846 1.399 . S
C851 C850 1.394 . S
C851 C852 1.516 . S
C852 C851 1.516 . S
C852 C853 1.502 . S
C852 C854 1.561 . S
C852 C855 1.526 . S
C853 H837 0.959 . S
C853 H838 0.959 . S
C853 H839 0.961 . S
C853 C852 1.502 . S
C854 H840 0.960 . S
C854 H841 0.961 . S
C854 H842 0.959 . S
C854 C852 1.561 . S
C855 C852 1.526 . S
C855 C856 1.396 . S
C855 C860 1.390 . S
C856 C850 1.465 . S
C856 C855 1.396 . S
C856 C857 1.399 . S
C857 H843 0.929 . S
C857 C856 1.399 . S
C857 C858 1.385 . S
C858 H844 0.931 . S
C858 C857 1.385 . S
C858 C859 1.389 . S
C859 C858 1.389 . S
C859 C860 1.387 . S
C860 H845 0.930 . S
C860 C855 1.390 . S
C860 C859 1.387 . S
H861 C873 0.930 . S
H862 C875 0.930 . S
H863 C876 0.930 . S
H864 C880 0.959 . S
H865 C880 0.959 . S
H866 C880 0.961 . S
H867 C881 0.960 . S
H868 C881 0.961 . S
H869 C881 0.959 . S
H870 C884 0.929 . S
H871 C885 0.931 . S
H872 C887 0.930 . S
C873 H861 0.930 . S
C873 C874 1.399 . S
C873 C878 1.399 . S
C874 C873 1.399 . S
C874 C875 1.376 . S
C875 H862 0.930 . S
C875 C874 1.376 . S
C875 C876 1.388 . S
C876 H863 0.930 . S
C876 C875 1.388 . S
C876 C877 1.390 . S
C877 C876 1.390 . S
C877 C878 1.394 . S
C877 C883 1.465 . S
C878 C873 1.399 . S
C878 C877 1.394 . S
C878 C879 1.516 . S
C879 C878 1.516 . S
C879 C880 1.502 . S
C879 C881 1.561 . S
C879 C882 1.526 . S
C880 H864 0.959 . S
C880 H865 0.959 . S
C880 H866 0.961 . S
C880 C879 1.502 . S
C881 H867 0.960 . S
C881 H868 0.961 . S
C881 H869 0.959 . S
C881 C879 1.561 . S
C882 C879 1.526 . S
C882 C883 1.396 . S
C882 C887 1.390 . S
C883 C877 1.465 . S
C883 C882 1.396 . S
C883 C884 1.399 . S
C884 H870 0.929 . S
C884 C883 1.399 . S
C884 C885 1.385 . S
C885 H871 0.931 . S
C885 C884 1.385 . S
C885 C886 1.389 . S
C886 C885 1.389 . S
C886 C887 1.387 . S
C887 H872 0.930 . S
C887 C882 1.390 . S
C887 C886 1.387 . S
H888 C900 0.930 . S
H889 C902 0.930 . S
H890 C903 0.930 . S
H891 C907 0.959 . S
H892 C907 0.959 . S
H893 C907 0.961 . S
H894 C908 0.960 . S
H895 C908 0.961 . S
H896 C908 0.959 . S
H897 C911 0.929 . S
H898 C912 0.931 . S
H899 C914 0.930 . S
C900 H888 0.930 . S
C900 C901 1.399 . S
C900 C905 1.399 . S
C901 C900 1.399 . S
C901 C902 1.376 . S
C902 H889 0.930 . S
C902 C901 1.376 . S
C902 C903 1.388 . S
C903 H890 0.930 . S
C903 C902 1.388 . S
C903 C904 1.390 . S
C904 C903 1.390 . S
C904 C905 1.394 . S
C904 C910 1.465 . S
C905 C900 1.399 . S
C905 C904 1.394 . S
C905 C906 1.516 . S
C906 C905 1.516 . S
C906 C907 1.502 . S
C906 C908 1.561 . S
C906 C909 1.526 . S
C907 H891 0.959 . S
C907 H892 0.959 . S
C907 H893 0.961 . S
C907 C906 1.502 . S
C908 H894 0.960 . S
C908 H895 0.961 . S
C908 H896 0.959 . S
C908 C906 1.561 . S
C909 C906 1.526 . S
C909 C910 1.396 . S
C909 C914 1.390 . S
C910 C904 1.465 . S
C910 C909 1.396 . S
C910 C911 1.399 . S
C911 H897 0.929 . S
C911 C910 1.399 . S
C911 C912 1.385 . S
C912 H898 0.931 . S
C912 C911 1.385 . S
C912 C913 1.389 . S
C913 C912 1.389 . S
C913 C914 1.387 . S
C914 H899 0.930 . S
C914 C909 1.390 . S
C914 C913 1.387 . S
H915 C927 0.930 . S
H916 C929 0.930 . S
H917 C930 0.930 . S
H918 C934 0.959 . S
H919 C934 0.959 . S
H920 C934 0.961 . S
H921 C935 0.960 . S
H922 C935 0.961 . S
H923 C935 0.959 . S
H924 C938 0.929 . S
H925 C939 0.931 . S
H926 C941 0.930 . S
C927 H915 0.930 . S
C927 C928 1.399 . S
C927 C932 1.399 . S
C928 C927 1.399 . S
C928 C929 1.376 . S
C929 H916 0.930 . S
C929 C928 1.376 . S
C929 C930 1.388 . S
C930 H917 0.930 . S
C930 C929 1.388 . S
C930 C931 1.390 . S
C931 C930 1.390 . S
C931 C932 1.394 . S
C931 C937 1.465 . S
C932 C927 1.399 . S
C932 C931 1.394 . S
C932 C933 1.516 . S
C933 C932 1.516 . S
C933 C934 1.502 . S
C933 C935 1.561 . S
C933 C936 1.526 . S
C934 H918 0.959 . S
C934 H919 0.959 . S
C934 H920 0.961 . S
C934 C933 1.502 . S
C935 H921 0.960 . S
C935 H922 0.961 . S
C935 H923 0.959 . S
C935 C933 1.561 . S
C936 C933 1.526 . S
C936 C937 1.396 . S
C936 C941 1.390 . S
C937 C931 1.465 . S
C937 C936 1.396 . S
C937 C938 1.399 . S
C938 H924 0.929 . S
C938 C937 1.399 . S
C938 C939 1.385 . S
C939 H925 0.931 . S
C939 C938 1.385 . S
C939 C940 1.389 . S
C940 C939 1.389 . S
C940 C941 1.387 . S
C941 H926 0.930 . S
C941 C936 1.390 . S
C941 C940 1.387 . S
H942 C954 0.930 . S
H943 C956 0.930 . S
H944 C957 0.930 . S
H945 C961 0.959 . S
H946 C961 0.959 . S
H947 C961 0.961 . S
H948 C962 0.960 . S
H949 C962 0.961 . S
H950 C962 0.959 . S
H951 C965 0.929 . S
H952 C966 0.931 . S
H953 C968 0.930 . S
C954 H942 0.930 . S
C954 C955 1.399 . S
C954 C959 1.399 . S
C955 C954 1.399 . S
C955 C956 1.376 . S
C956 H943 0.930 . S
C956 C955 1.376 . S
C956 C957 1.388 . S
C957 H944 0.930 . S
C957 C956 1.388 . S
C957 C958 1.390 . S
C958 C957 1.390 . S
C958 C959 1.394 . S
C958 C964 1.465 . S
C959 C954 1.399 . S
C959 C958 1.394 . S
C959 C960 1.516 . S
C960 C959 1.516 . S
C960 C961 1.502 . S
C960 C962 1.561 . S
C960 C963 1.526 . S
C961 H945 0.959 . S
C961 H946 0.959 . S
C961 H947 0.961 . S
C961 C960 1.502 . S
C962 H948 0.960 . S
C962 H949 0.961 . S
C962 H950 0.959 . S
C962 C960 1.561 . S
C963 C960 1.526 . S
C963 C964 1.396 . S
C963 C968 1.390 . S
C964 C958 1.465 . S
C964 C963 1.396 . S
C964 C965 1.399 . S
C965 H951 0.929 . S
C965 C964 1.399 . S
C965 C966 1.385 . S
C966 H952 0.931 . S
C966 C965 1.385 . S
C966 C967 1.389 . S
C967 C966 1.389 . S
C967 C968 1.387 . S
C968 H953 0.930 . S
C968 C963 1.390 . S
C968 C967 1.387 . S
H969 C981 0.930 . S
H970 C983 0.930 . S
H971 C984 0.930 . S
H972 C988 0.959 . S
H973 C988 0.959 . S
H974 C988 0.961 . S
H975 C989 0.960 . S
H976 C989 0.961 . S
H977 C989 0.959 . S
H978 C992 0.929 . S
H979 C993 0.931 . S
H980 C995 0.930 . S
C981 H969 0.930 . S
C981 C982 1.399 . S
C981 C986 1.399 . S
C982 C981 1.399 . S
C982 C983 1.376 . S
C983 H970 0.930 . S
C983 C982 1.376 . S
C983 C984 1.388 . S
C984 H971 0.930 . S
C984 C983 1.388 . S
C984 C985 1.390 . S
C985 C984 1.390 . S
C985 C986 1.394 . S
C985 C991 1.465 . S
C986 C981 1.399 . S
C986 C985 1.394 . S
C986 C987 1.516 . S
C987 C986 1.516 . S
C987 C988 1.502 . S
C987 C989 1.561 . S
C987 C990 1.526 . S
C988 H972 0.959 . S
C988 H973 0.959 . S
C988 H974 0.961 . S
C988 C987 1.502 . S
C989 H975 0.960 . S
C989 H976 0.961 . S
C989 H977 0.959 . S
C989 C987 1.561 . S
C990 C987 1.526 . S
C990 C991 1.396 . S
C990 C995 1.390 . S
C991 C985 1.465 . S
C991 C990 1.396 . S
C991 C992 1.399 . S
C992 H978 0.929 . S
C992 C991 1.399 . S
C992 C993 1.385 . S
C993 H979 0.931 . S
C993 C992 1.385 . S
C993 C994 1.389 . S
C994 C993 1.389 . S
C994 C995 1.387 . S
C995 H980 0.930 . S
C995 C990 1.390 . S
C995 C994 1.387 . S
H996 C1008 0.930 . S
H997 C1010 0.930 . S
H998 C1011 0.930 . S
H999 C1015 0.959 . S
H1000 C1015 0.959 . S
H1001 C1015 0.961 . S
H1002 C1016 0.960 1_455 S
H1003 C1016 0.961 . S
H1004 C1016 0.959 . S
H1005 C1019 0.929 . S
H1006 C1020 0.931 . S
H1007 C1022 0.930 . S
C1008 H996 0.930 . S
C1008 C1009 1.399 . S
C1008 C1013 1.402 . S
C1009 C1008 1.399 . S
C1009 C1010 1.376 1_455 S
C1010 H997 0.930 . S
C1010 C1009 1.376 1_655 S
C1010 C1011 1.388 . S
C1011 H998 0.930 . S
C1011 C1010 1.388 . S
C1011 C1012 1.390 . S
C1012 C1011 1.390 . S
C1012 C1013 1.385 1_655 S
C1012 C1018 1.465 . S
C1013 C1008 1.402 . S
C1013 C1012 1.385 1_455 S
C1013 C1014 1.520 . S
C1014 C1013 1.520 . S
C1014 C1015 1.502 . S
C1014 C1016 1.561 1_455 S
C1014 C1017 1.526 1_455 S
C1015 H999 0.959 . S
C1015 H1000 0.959 . S
C1015 H1001 0.961 . S
C1015 C1014 1.502 . S
C1016 H1002 0.960 1_655 S
C1016 H1003 0.961 . S
C1016 H1004 0.959 . S
C1016 C1014 1.561 1_655 S
C1017 C1014 1.526 1_655 S
C1017 C1018 1.396 . S
C1017 C1022 1.390 . S
C1018 C1012 1.465 . S
C1018 C1017 1.396 . S
C1018 C1019 1.399 . S
C1019 H1005 0.929 . S
C1019 C1018 1.399 . S
C1019 C1020 1.385 . S
C1020 H1006 0.931 . S
C1020 C1019 1.385 . S
C1020 C1021 1.389 . S
C1021 C1020 1.389 . S
C1021 C1022 1.387 . S
C1022 H1007 0.930 . S
C1022 C1017 1.390 . S
C1022 C1021 1.387 . S
H1023 C1035 0.930 . S
H1024 C1037 0.930 1_545 S
H1025 C1038 0.930 . S
H1026 C1042 0.959 . S
H1027 C1042 0.959 . S
H1028 C1042 0.961 . S
H1029 C1043 0.960 . S
H1030 C1043 0.961 . S
H1031 C1043 0.959 . S
H1032 C1046 0.929 . S
H1033 C1047 0.931 . S
H1034 C1049 0.930 . S
C1035 H1023 0.930 . S
C1035 C1036 1.399 . S
C1035 C1040 1.399 . S
C1036 C1035 1.399 . S
C1036 C1037 1.376 . S
C1037 H1024 0.930 1_565 S
C1037 C1036 1.376 . S
C1037 C1038 1.388 . S
C1038 H1025 0.930 . S
C1038 C1037 1.388 . S
C1038 C1039 1.390 . S
C1039 C1038 1.390 . S
C1039 C1040 1.394 . S
C1039 C1045 1.465 . S
C1040 C1035 1.399 . S
C1040 C1039 1.394 . S
C1040 C1041 1.516 . S
C1041 C1040 1.516 . S
C1041 C1042 1.502 . S
C1041 C1043 1.561 . S
C1041 C1044 1.526 . S
C1042 H1026 0.959 . S
C1042 H1027 0.959 . S
C1042 H1028 0.961 . S
C1042 C1041 1.502 . S
C1043 H1029 0.960 . S
C1043 H1030 0.961 . S
C1043 H1031 0.959 . S
C1043 C1041 1.561 . S
C1044 C1041 1.526 . S
C1044 C1045 1.396 . S
C1044 C1049 1.390 . S
C1045 C1039 1.465 . S
C1045 C1044 1.396 . S
C1045 C1046 1.399 . S
C1046 H1032 0.929 . S
C1046 C1045 1.399 . S
C1046 C1047 1.385 . S
C1047 H1033 0.931 . S
C1047 C1046 1.385 . S
C1047 C1048 1.389 . S
C1048 C1047 1.389 . S
C1048 C1049 1.387 . S
C1049 H1034 0.930 . S
C1049 C1044 1.390 . S
C1049 C1048 1.387 . S
H1050 C1062 0.930 . S
H1051 C1064 0.930 . S
H1052 C1065 0.930 . S
H1053 C1069 0.959 . S
H1054 C1069 0.959 . S
H1055 C1069 0.961 . S
H1056 C1070 0.960 . S
H1057 C1070 0.961 . S
H1058 C1070 0.959 . S
H1059 C1073 0.929 . S
H1060 C1074 0.931 . S
H1061 C1076 0.930 . S
C1062 H1050 0.930 . S
C1062 C1063 1.399 . S
C1062 C1067 1.399 . S
C1063 C1062 1.399 . S
C1063 C1064 1.376 . S
C1064 H1051 0.930 . S
C1064 C1063 1.376 . S
C1064 C1065 1.388 . S
C1065 H1052 0.930 . S
C1065 C1064 1.388 . S
C1065 C1066 1.390 . S
C1066 C1065 1.390 . S
C1066 C1067 1.394 . S
C1066 C1072 1.465 . S
C1067 C1062 1.399 . S
C1067 C1066 1.394 . S
C1067 C1068 1.516 . S
C1068 C1067 1.516 . S
C1068 C1069 1.502 . S
C1068 C1070 1.561 . S
C1068 C1071 1.526 . S
C1069 H1053 0.959 . S
C1069 H1054 0.959 . S
C1069 H1055 0.961 . S
C1069 C1068 1.502 . S
C1070 H1056 0.960 . S
C1070 H1057 0.961 . S
C1070 H1058 0.959 . S
C1070 C1068 1.561 . S
C1071 C1068 1.526 . S
C1071 C1072 1.396 . S
C1071 C1076 1.390 . S
C1072 C1066 1.465 . S
C1072 C1071 1.396 . S
C1072 C1073 1.399 . S
C1073 H1059 0.929 . S
C1073 C1072 1.399 . S
C1073 C1074 1.385 . S
C1074 H1060 0.931 . S
C1074 C1073 1.385 . S
C1074 C1075 1.389 . S
C1075 C1074 1.389 . S
C1075 C1076 1.387 . S
C1076 H1061 0.930 . S
C1076 C1071 1.390 . S
C1076 C1075 1.387 . S
H1077 C1089 0.930 . S
H1078 C1091 0.930 . S
H1079 C1092 0.930 . S
H1080 C1096 0.959 . S
H1081 C1096 0.959 . S
H1082 C1096 0.961 . S
H1083 C1097 0.960 . S
H1084 C1097 0.961 . S
H1085 C1097 0.959 . S
H1086 C1100 0.929 . S
H1087 C1101 0.931 . S
H1088 C1103 0.930 . S
C1089 H1077 0.930 . S
C1089 C1090 1.399 . S
C1089 C1094 1.399 . S
C1090 C1089 1.399 . S
C1090 C1091 1.376 . S
C1091 H1078 0.930 . S
C1091 C1090 1.376 . S
C1091 C1092 1.388 . S
C1092 H1079 0.930 . S
C1092 C1091 1.388 . S
C1092 C1093 1.390 . S
C1093 C1092 1.390 . S
C1093 C1094 1.394 . S
C1093 C1099 1.465 . S
C1094 C1089 1.399 . S
C1094 C1093 1.394 . S
C1094 C1095 1.516 . S
C1095 C1094 1.516 . S
C1095 C1096 1.502 . S
C1095 C1097 1.561 . S
C1095 C1098 1.526 . S
C1096 H1080 0.959 . S
C1096 H1081 0.959 . S
C1096 H1082 0.961 . S
C1096 C1095 1.502 . S
C1097 H1083 0.960 . S
C1097 H1084 0.961 . S
C1097 H1085 0.959 . S
C1097 C1095 1.561 . S
C1098 C1095 1.526 . S
C1098 C1099 1.396 . S
C1098 C1103 1.390 . S
C1099 C1093 1.465 . S
C1099 C1098 1.396 . S
C1099 C1100 1.399 . S
C1100 H1086 0.929 . S
C1100 C1099 1.399 . S
C1100 C1101 1.385 . S
C1101 H1087 0.931 . S
C1101 C1100 1.385 . S
C1101 C1102 1.389 . S
C1102 C1101 1.389 . S
C1102 C1103 1.387 . S
C1103 H1088 0.930 . S
C1103 C1098 1.390 . S
C1103 C1102 1.387 . S
C469 C13 1.703 . S
C481 C137 1.657 . S
C496 C27 1.851 . S
C508 C181 1.800 . S
C535 C261 1.605 . S
C523 C29 1.628 . S
C562 C305 1.686 . S
C550 C54 1.694 . S
C589 C385 1.753 . S
C577 C69 1.808 . S
C616 C441 1.816 . S
C604 C83 1.917 . S
C631 C15 1.969 . S
C643 C237 1.709 . S
C658 C41 1.738 . S
C670 C317 1.572 . S
C697 C361 1.790 . S
C685 C42 1.910 . S
C724 C429 1.613 . S
C712 C57 1.692 . S
C739 C71 1.755 . S
C751 C113 1.577 . S
C778 C193 1.863 . S
C766 C1 1.916 . S
C805 C299 1.788 . S
C793 C12 1.925 . S
C820 C26 1.778 . S
C832 C379 1.556 . S
C859 C447 1.659 . S
C847 C28 1.694 . S
C874 C55 1.942 . S
C886 C131 1.729 . S
C901 C68 1.743 . S
C913 C175 1.630 . S
C928 C82 1.964 . S
C940 C255 1.695 . S
C955 C14 1.918 . S
C967 C423 1.769 . S
C994 C119 1.679 . S
C982 C40 1.817 . S
C1009 C43 1.717 . S
C1021 C199 1.661 . S
C1036 C56 1.624 . S
C1048 C243 1.585 . S
C1063 C70 1.848 . S
C1075 C323 1.817 . S
C1090 C0 1.731 . S
C1102 C367 1.575 . S
