# Generated by pormake.
# Topology rtl, (3,6)-cn, num edge types: 1
# Building blocks:
#     Node 0, Type 0, BuildingBlock: BETDIP_clean_linker_0, # of connection points: 3
#     Node 1, Type 0, BuildingBlock: BETDIP_clean_linker_0, # of connection points: 3
#     Node 2, Type 0, BuildingBlock: BETDIP_clean_linker_0, # of connection points: 3
#     Node 3, Type 0, BuildingBlock: BETDIP_clean_linker_0, # of connection points: 3
#     Node 4, Type 1, BuildingBlock: VOLQOD_clean_sbu_1, # of connection points: 6
#     Node 5, Type 1, BuildingBlock: VOLQOD_clean_sbu_1, # of connection points: 6
#     Edge 6, Type (0, 1), BuildingBlock: FUNLAD_clean_linker_0, # of connection points: 2
#     Edge 7, Type (0, 1), BuildingBlock: FUNLAD_clean_linker_0, # of connection points: 2
#     Edge 8, Type (0, 1), BuildingBlock: FUNLAD_clean_linker_0, # of connection points: 2
#     Edge 9, Type (0, 1), BuildingBlock: FUNLAD_clean_linker_0, # of connection points: 2
#     Edge 10, Type (0, 1), BuildingBlock: FUNLAD_clean_linker_0, # of connection points: 2
#     Edge 11, Type (0, 1), BuildingBlock: FUNLAD_clean_linker_0, # of connection points: 2
#     Edge 12, Type (0, 1), BuildingBlock: FUNLAD_clean_linker_0, # of connection points: 2
#     Edge 13, Type (0, 1), BuildingBlock: FUNLAD_clean_linker_0, # of connection points: 2
#     Edge 14, Type (0, 1), BuildingBlock: FUNLAD_clean_linker_0, # of connection points: 2
#     Edge 15, Type (0, 1), BuildingBlock: FUNLAD_clean_linker_0, # of connection points: 2
#     Edge 16, Type (0, 1), BuildingBlock: FUNLAD_clean_linker_0, # of connection points: 2
#     Edge 17, Type (0, 1), BuildingBlock: FUNLAD_clean_linker_0, # of connection points: 2
# Relax obj value: 0.041
# Max RMSD: 0.143
# Mean RMSD: 0.097
data_MOF--net-rtl--node1-VOLQOD_clean_sbu_1--node2-BETDIP_clean_linker_0--edge1-FUNLAD_clean_linker_0
_symmetry_space_group_name_H-M    P1
_symmetry_Int_Tables_number       1
_symmetry_cell_setting            triclinic
loop_
_symmetry_equiv_pos_as_xyz
'x, y, z'
_cell_length_a     43.894966
_cell_length_b     44.373229
_cell_length_c     25.427583
_cell_angle_alpha  90.975956
_cell_angle_beta   91.251539
_cell_angle_gamma 89.938885
loop_
_atom_site_label
_atom_site_type_symbol
_atom_site_fract_x
_atom_site_fract_y
_atom_site_fract_z
_atom_type_partial_charge
H0 H 0.21988 0.80212 0.9009 0.0
H1 H 0.22183 0.80725 0.07032 0.0
H2 H 0.17578 0.87547 0.98142 0.0
H3 H 0.23232 0.75838 0.06433 0.0
C4 C 0.24472 0.75492 0.02827 0.0
C5 C 0.21382 0.81362 0.93716 0.0
C6 C 0.19724 0.84061 0.93542 0.0
C7 C 0.22256 0.80115 0.98541 0.0
C8 C 0.21478 0.81609 0.03261 0.0
C9 C 0.19817 0.84313 0.03129 0.0
C10 C 0.18963 0.85523 0.9826 0.0
N11 N 0.23965 0.77398 0.98463 0.0
H12 H 0.70421 0.70774 0.64431 0.0
H13 H 0.69856 0.69956 0.4753 0.0
H14 H 0.64007 0.64658 0.56996 0.0
H15 H 0.74676 0.71567 0.48088 0.0
C16 C 0.74639 0.7324 0.51253 0.0
C17 C 0.69424 0.69748 0.60898 0.0
C18 C 0.67049 0.67655 0.61278 0.0
C19 C 0.70495 0.70556 0.55963 0.0
C20 C 0.69153 0.69263 0.51374 0.0
C21 C 0.66805 0.67136 0.51711 0.0
C22 C 0.65774 0.66348 0.56682 0.0
N23 N 0.72828 0.72766 0.5573 0.0
H24 H 0.79996 0.2206 0.89876 0.0
H25 H 0.80548 0.20369 0.06521 0.0
H26 H 0.86115 0.15326 0.95849 0.0
H27 H 0.76191 0.22841 0.06779 0.0
C28 C 0.76167 0.24437 0.03594 0.0
C29 C 0.80954 0.20828 0.93166 0.0
C30 C 0.83165 0.18611 0.92293 0.0
C31 C 0.79995 0.21494 0.98279 0.0
C32 C 0.81246 0.19882 0.02549 0.0
C33 C 0.83422 0.17608 0.01693 0.0
C34 C 0.84394 0.17032 0.96558 0.0
N35 N 0.77833 0.23847 0.98959 0.0
H36 H 0.26664 0.30323 0.44242 0.0
H37 H 0.27632 0.30685 0.6115 0.0
H38 H 0.32137 0.3721 0.51847 0.0
H39 H 0.2494 0.26624 0.6115 0.0
C40 C 0.24049 0.26037 0.5726 0.0
C41 C 0.27594 0.3138 0.47801 0.0
C42 C 0.29441 0.3394 0.47474 0.0
C43 C 0.26906 0.30179 0.52694 0.0
C44 C 0.28128 0.31547 0.57319 0.0
C45 C 0.29999 0.341 0.57029 0.0
C46 C 0.30624 0.3529 0.521 0.0
N47 N 0.24959 0.27624 0.52749 0.0
O48 O 0.92935 0.96151 0.47878 0.0
Zn49 Zn 0.9532 0.00058 0.48284 0.0
O50 O -0.00279 0.99297 0.48393 0.0
Zn51 Zn 0.01515 0.00908 0.5492 0.0
Zn52 Zn 0.00473 0.94966 0.48013 0.0
Zn53 Zn 0.01614 0.01236 0.42426 0.0
O54 O 0.0469 0.04011 0.5354 0.0
O55 O 0.04631 0.04412 0.4486 0.0
O56 O 0.94042 0.02449 0.54693 0.0
O57 O 0.9837 0.02955 0.59293 0.0
O58 O 0.03531 0.97685 0.59182 0.0
O59 O 0.0272 0.93506 0.54457 0.0
O60 O 0.03103 0.9387 0.41923 0.0
O61 O 0.94131 0.02551 0.42039 0.0
O62 O 0.03975 0.98234 0.38097 0.0
O63 O 0.9845 0.03259 0.3783 0.0
C64 C 0.93758 0.93405 0.47414 0.0
C65 C 0.05658 0.05212 0.49391 0.0
C66 C 0.03826 0.94852 0.58522 0.0
C67 C 0.95525 0.03437 0.58722 0.0
C68 C 0.04364 0.95396 0.38382 0.0
C69 C 0.95587 0.03645 0.38238 0.0
O70 O 0.96561 0.92672 0.47313 0.0
O71 O 0.56412 0.46266 0.0516 0.0
Zn72 Zn 0.53866 0.50066 0.0491 0.0
O73 O 0.49506 0.49093 0.0444 0.0
Zn74 Zn 0.47679 0.50909 0.98192 0.0
Zn75 Zn 0.48951 0.44723 0.04036 0.0
Zn76 Zn 0.4747 0.50674 0.10642 0.0
O77 O 0.44316 0.53812 1e-05 0.0
O78 O 0.44224 0.53654 0.08703 0.0
O79 O 0.55152 0.52556 0.98739 0.0
O80 O 0.50808 0.53184 0.94254 0.0
O81 O 0.45887 0.47756 0.93299 0.0
O82 O 0.46928 0.43426 0.9719 0.0
O83 O 0.46256 0.43263 0.09762 0.0
O84 O 0.54834 0.52511 0.11501 0.0
O85 O 0.45351 0.47405 0.14477 0.0
O86 O 0.50414 0.52802 0.15562 0.0
C87 C 0.55727 0.43474 0.0513 0.0
C88 C 0.43204 0.54667 0.04361 0.0
C89 C 0.4578 0.4489 0.93367 0.0
C90 C 0.53656 0.53647 0.94862 0.0
C91 C 0.45007 0.4459 0.13633 0.0
C92 C 0.53244 0.53403 0.15362 0.0
O93 O 0.52968 0.42599 0.0475 0.0
C94 C 0.20662 0.22639 0.51758 0.0
C95 C 0.2184 0.2354 0.56718 0.0
C96 C 0.18552 0.20293 0.513 0.0
C97 C 0.17591 0.18787 0.55801 0.0
C98 C 0.18748 0.19718 0.60757 0.0
C99 C 0.20864 0.22063 0.61211 0.0
C100 C 0.15309 0.16319 0.55509 0.0
C101 C 0.14809 0.1458 0.5118 0.0
C102 C 0.12481 0.12155 0.5085 0.0
C103 C 0.11336 0.11245 0.45875 0.0
C104 C 0.09122 0.08993 0.45385 0.0
C105 C 0.08021 0.07583 0.49872 0.0
H106 H 0.12321 0.11248 0.59227 0.0
C107 C 0.0921 0.08453 0.54847 0.0
C108 C 0.11423 0.10702 0.55334 0.0
H109 H 0.08443 0.07389 0.58384 0.0
H110 H 0.21348 0.23754 0.48219 0.0
H111 H 0.1764 0.19724 0.47425 0.0
H112 H 0.18024 0.18619 0.64292 0.0
H113 H 0.21729 0.2273 0.65082 0.0
H114 H 0.14022 0.15935 0.59029 0.0
H115 H 0.16102 0.14966 0.47666 0.0
H116 H 0.12133 0.12304 0.42352 0.0
H117 H 0.0827 0.08366 0.41489 0.0
C118 C 0.27182 0.71147 0.06856 0.0
C119 C 0.26634 0.72951 0.02464 0.0
C120 C 0.2928 0.68782 0.06627 0.0
C121 C 0.30855 0.68159 0.01958 0.0
C122 C 0.30293 0.69973 0.97571 0.0
C123 C 0.28201 0.7234 0.97809 0.0
C124 C 0.33195 0.65748 0.01551 0.0
C125 C 0.33441 0.63427 0.0488 0.0
C126 C 0.35907 0.61147 0.04581 0.0
C127 C 0.36868 0.59726 0.09213 0.0
C128 C 0.39237 0.57627 0.0914 0.0
C129 C 0.40673 0.56871 0.04406 0.0
H130 H 0.36547 0.61318 0.96132 0.0
C131 C 0.39657 0.58235 -0.00264 0.0
C132 C 0.37296 0.60349 -0.00183 0.0
H133 H 0.4069 0.57679 0.96013 0.0
H134 H 0.26017 0.71594 0.10502 0.0
H135 H 0.297 0.67515 0.10162 0.0
H136 H 0.31485 0.69563 0.9394 0.0
H137 H 0.27833 0.73696 0.94352 0.0
H138 H 0.34801 0.6593 0.98384 0.0
H139 H 0.3187 0.63227 0.08088 0.0
H140 H 0.35817 0.60279 0.12924 0.0
H141 H 0.39941 0.566 0.12806 0.0
C142 C 0.78295 0.76336 0.46345 0.0
C143 C 0.76574 0.75942 0.50863 0.0
C144 C 0.80149 0.78868 0.45878 0.0
C145 C 0.80339 0.81048 0.49962 0.0
C146 C 0.78558 0.80682 0.54427 0.0
C147 C 0.76699 0.78148 0.54889 0.0
C148 C 0.82358 0.83723 0.49689 0.0
C149 C 0.8492 0.83732 0.46867 0.0
C150 C 0.87094 0.86292 0.46896 0.0
C151 C 0.90155 0.8569 0.45817 0.0
C152 C 0.92305 0.88003 0.45944 0.0
C153 C 0.91434 0.90989 0.4709 0.0
H154 H 0.83838 0.89853 0.48606 0.0
C155 C 0.88348 0.91614 0.48013 0.0
C156 C 0.86196 0.89288 0.47919 0.0
H157 H 0.87597 0.93893 0.48864 0.0
H158 H 0.782 0.74686 0.43156 0.0
H159 H 0.81397 0.79116 0.42289 0.0
H160 H 0.78638 0.8234 0.57605 0.0
H161 H 0.75376 0.77917 0.58404 0.0
H162 H 0.81833 0.85649 0.52203 0.0
H163 H 0.85595 0.81698 0.44764 0.0
H164 H 0.90903 0.83408 0.44963 0.0
H165 H 0.94656 0.87441 0.45166 0.0
C166 C 0.72219 0.27432 0.08247 0.0
C167 C 0.74134 0.27084 0.03935 0.0
C168 C 0.70207 0.29868 0.08541 0.0
C169 C 0.70073 0.32002 0.04506 0.0
C170 C 0.72068 0.31705 0.00291 0.0
C171 C 0.74068 0.29261 -0.00015 0.0
C172 C 0.67876 0.34546 0.04549 0.0
C173 C 0.65132 0.34364 0.06789 0.0
C174 C 0.62791 0.3677 0.06414 0.0
C175 C 0.59713 0.3596 0.06694 0.0
C176 C 0.57428 0.38134 0.06256 0.0
C177 C 0.58171 0.41184 0.05599 0.0
H178 H 0.65901 0.40549 0.05761 0.0
C179 C 0.61259 0.42011 0.05435 0.0
C180 C 0.63549 0.39827 0.05838 0.0
H181 H 0.61911 0.44344 0.0498 0.0
H182 H 0.72259 0.25802 0.11374 0.0
H183 H 0.68776 0.30077 0.11941 0.0
H184 H 0.72034 0.33334 0.97164 0.0
H185 H 0.75544 0.29073 0.96637 0.0
H186 H 0.68433 0.36513 0.02276 0.0
H187 H 0.64465 0.32274 0.08606 0.0
H188 H 0.59068 0.33626 0.07181 0.0
H189 H 0.55075 0.37417 0.06446 0.0
C190 C 0.17286 0.84142 0.11839 0.0
C191 C 0.18773 0.85807 0.08018 0.0
C192 C 0.15838 0.85611 0.16001 0.0
C193 C 0.1588 0.88783 0.16443 0.0
C194 C 0.17514 0.90422 0.12766 0.0
C195 C 0.18947 0.88954 0.08604 0.0
C196 C 0.14032 0.90492 0.20316 0.0
C197 C 0.12787 0.89278 0.24589 0.0
C198 C 0.10657 0.90935 0.28081 0.0
C199 C 0.08769 0.8926 0.31322 0.0
C200 C 0.06693 0.90702 0.34605 0.0
C201 C 0.0646 0.93862 0.34726 0.0
H202 H 0.11924 0.95505 0.25985 0.0
C203 C 0.08361 0.95545 0.31515 0.0
C204 C 0.10452 0.94105 0.28259 0.0
H205 H 0.08278 0.97985 0.31582 0.0
H206 H 0.17087 0.81715 0.11441 0.0
H207 H 0.14566 0.84246 0.1866 0.0
H208 H 0.17597 0.92862 0.13008 0.0
H209 H 0.20105 0.9029 0.05735 0.0
H210 H 0.13592 0.92834 0.19419 0.0
H211 H 0.13224 0.86936 0.25492 0.0
H212 H 0.08883 0.8682 0.31294 0.0
H213 H 0.05275 0.89335 0.37053 0.0
C214 C 0.62714 0.66813 0.67222 0.0
C215 C 0.65866 0.66772 0.66426 0.0
C216 C 0.61512 0.65557 0.7171 0.0
C217 C 0.63438 0.6418 0.7546 0.0
C218 C 0.66607 0.64337 0.74851 0.0
C219 C 0.67817 0.65622 0.70356 0.0
C220 C 0.62183 0.62471 0.79897 0.0
C221 C 0.59518 0.60974 0.79397 0.0
C222 C 0.58122 0.59149 0.83554 0.0
C223 C 0.55038 0.5837 0.82906 0.0
C224 C 0.53603 0.56593 0.86575 0.0
C225 C 0.55224 0.55523 0.90989 0.0
H226 H 0.62157 0.58566 0.88565 0.0
C227 C 0.58321 0.56284 0.91648 0.0
C228 C 0.59761 0.5808 0.87967 0.0
H229 H 0.59638 0.55489 0.95 0.0
H230 H 0.61171 0.67748 0.6429 0.0
H231 H 0.59067 0.65617 0.72169 0.0
H232 H 0.68141 0.63338 0.77729 0.0
H233 H 0.70259 0.65575 0.69826 0.0
H234 H 0.63549 0.62344 0.83491 0.0
H235 H 0.58251 0.61068 0.75685 0.0
H236 H 0.5372 0.59145 0.79537 0.0
H237 H 0.51217 0.56053 0.85924 0.0
C238 C 0.85539 0.17167 0.10939 0.0
C239 C 0.84703 0.15803 0.06089 0.0
C240 C 0.86958 0.15476 0.14895 0.0
C241 C 0.87569 0.12393 0.14057 0.0
C242 C 0.86685 0.11027 0.09258 0.0
C243 C 0.85238 0.127 0.05344 0.0
C244 C 0.89272 0.10569 0.17959 0.0
C245 C 0.89136 0.11052 0.2318 0.0
C246 C 0.90819 0.09136 0.26975 0.0
C247 C 0.89511 0.08502 0.31811 0.0
C248 C 0.91035 0.06672 0.35431 0.0
C249 C 0.93933 0.05496 0.34325 0.0
H250 H 0.94826 0.08486 0.22224 0.0
C251 C 0.95267 0.06179 0.29517 0.0
C252 C 0.93722 0.07973 0.25868 0.0
H253 H 0.97505 0.05326 0.28563 0.0
H254 H 0.85197 0.19558 0.11612 0.0
H255 H 0.87671 0.16612 0.18516 0.0
H256 H 0.87124 0.08655 0.08524 0.0
H257 H 0.84566 0.11562 0.017 0.0
H258 H 0.90558 0.08653 0.1647 0.0
H259 H 0.87608 0.12761 0.24731 0.0
H260 H 0.87287 0.09394 0.32765 0.0
H261 H 0.89959 0.06216 0.39126 0.0
C262 C 0.32896 0.33693 0.65591 0.0
C263 C 0.31412 0.35487 0.61825 0.0
C264 C 0.34484 0.35029 0.69845 0.0
C265 C 0.34614 0.3819 0.70401 0.0
C266 C 0.33012 0.39967 0.66761 0.0
C267 C 0.31442 0.38634 0.625 0.0
C268 C 0.36396 0.39733 0.74674 0.0
C269 C 0.38838 0.38505 0.77123 0.0
C270 C 0.40692 0.40175 0.81152 0.0
C271 C 0.42214 0.38567 0.85122 0.0
C272 C 0.43914 0.40087 0.89049 0.0
C273 C 0.44154 0.43248 0.8904 0.0
H274 H 0.39989 0.44633 0.77915 0.0
C275 C 0.42724 0.44843 0.84944 0.0
C276 C 0.4102 0.43326 0.81036 0.0
H277 H 0.42891 0.47275 0.84772 0.0
H278 H 0.32907 0.3126 0.65161 0.0
H279 H 0.35602 0.33576 0.72663 0.0
H280 H 0.3304 0.42403 0.67133 0.0
H281 H 0.3028 0.40068 0.59691 0.0
H282 H 0.35729 0.42026 0.75671 0.0
H283 H 0.3951 0.36204 0.7621 0.0
H284 H 0.42036 0.36134 0.85249 0.0
H285 H 0.45004 0.38785 0.92126 0.0
C286 C 0.62277 0.65211 0.46508 0.0
C287 C 0.65435 0.65701 0.46904 0.0
C288 C 0.60997 0.63682 0.4216 0.0
C289 C 0.62847 0.62636 0.38056 0.0
C290 C 0.66 0.63164 0.38424 0.0
C291 C 0.67282 0.64689 0.42788 0.0
C292 C 0.61609 0.60846 0.33495 0.0
C293 C 0.58646 0.60852 0.3199 0.0
C294 C 0.57361 0.58906 0.27682 0.0
C295 C 0.54246 0.58207 0.27728 0.0
C296 C 0.52922 0.56391 0.23773 0.0
C297 C 0.54682 0.55252 0.19635 0.0
H298 H 0.61516 0.58341 0.2325 0.0
C299 C 0.578 0.5597 0.19554 0.0
C300 C 0.59127 0.57783 0.23527 0.0
H301 H 0.59216 0.55156 0.16396 0.0
H302 H 0.60789 0.65983 0.49598 0.0
H303 H 0.58573 0.63259 0.42149 0.0
H304 H 0.67485 0.62363 0.3535 0.0
H305 H 0.69729 0.64999 0.43008 0.0
H306 H 0.63213 0.59442 0.31381 0.0
H307 H 0.5704 0.62262 0.34082 0.0
H308 H 0.52828 0.59055 0.30862 0.0
H309 H 0.5051 0.559 0.23951 0.0
C310 C 0.8731 0.17785 0.85937 0.0
C311 C 0.84184 0.17822 0.86956 0.0
C312 C 0.88373 0.16412 0.81365 0.0
C313 C 0.86327 0.15005 0.77768 0.0
C314 C 0.83182 0.15286 0.78553 0.0
C315 C 0.82113 0.16681 0.83138 0.0
C316 C 0.87445 0.13065 0.73411 0.0
C317 C 0.89938 0.11325 0.74088 0.0
C318 C 0.91226 0.09257 0.70058 0.0
C319 C 0.9418 0.08144 0.70974 0.0
C320 C 0.95543 0.06214 0.67344 0.0
C321 C 0.93974 0.05325 0.62702 0.0
H322 H 0.87313 0.09066 0.64651 0.0
C323 C 0.90984 0.06374 0.61821 0.0
C324 C 0.89619 0.08325 0.65461 0.0
H325 H 0.8971 0.05725 0.58285 0.0
H326 H 0.88941 0.18693 0.88803 0.0
H327 H 0.90806 0.16354 0.80756 0.0
H328 H 0.81562 0.14261 0.7579 0.0
H329 H 0.7969 0.16688 0.8386 0.0
H330 H 0.86107 0.12962 0.69779 0.0
H331 H 0.91144 0.11414 0.77867 0.0
H332 H 0.95465 0.08799 0.74498 0.0
H333 H 0.97843 0.05442 0.68168 0.0
C334 C 0.31518 0.33267 0.38443 0.0
C335 C 0.30282 0.35159 0.42332 0.0
C336 C 0.32761 0.34496 0.33941 0.0
C337 C 0.32775 0.37638 0.33267 0.0
C338 C 0.31331 0.39496 0.36974 0.0
C339 C 0.30117 0.38273 0.41486 0.0
C340 C 0.34431 0.39096 0.28979 0.0
C341 C 0.36954 0.37911 0.26843 0.0
C342 C 0.38952 0.39658 0.23394 0.0
C343 C 0.40712 0.38133 0.19653 0.0
C344 C 0.42697 0.39724 0.16489 0.0
C345 C 0.42994 0.42869 0.17075 0.0
H346 H 0.38059 0.44038 0.27014 0.0
C347 C 0.41275 0.44381 0.209 0.0
C348 C 0.39282 0.42797 0.24027 0.0
H349 H 0.41458 0.46799 0.21481 0.0
H350 H 0.31657 0.30856 0.39002 0.0
H351 H 0.33763 0.32986 0.31073 0.0
H352 H 0.31277 0.41919 0.36514 0.0
H353 H 0.29136 0.39772 0.444 0.0
H354 H 0.33718 0.41358 0.27935 0.0
H355 H 0.37678 0.35643 0.27804 0.0
H356 H 0.40536 0.35709 0.19155 0.0
H357 H 0.43997 0.38488 0.13592 0.0
C358 C 0.17061 0.8344 0.84787 0.0
C359 C 0.18604 0.85296 0.88492 0.0
C360 C 0.15611 0.84693 0.8039 0.0
C361 C 0.15683 0.87828 0.79639 0.0
C362 C 0.17398 0.89645 0.83167 0.0
C363 C 0.18829 0.88396 0.87568 0.0
C364 C 0.13914 0.89324 0.7539 0.0
C365 C 0.11348 0.88167 0.73171 0.0
C366 C 0.09397 0.89904 0.69485 0.0
C367 C 0.07718 0.88374 0.65518 0.0
C368 C 0.05872 0.8997 0.61984 0.0
C369 C 0.05634 0.93126 0.62416 0.0
H370 H 0.10259 0.94291 0.73151 0.0
C371 C 0.07236 0.94641 0.66508 0.0
C372 C 0.09094 0.93049 0.70006 0.0
H373 H 0.07086 0.97066 0.66988 0.0
H374 H 0.1686 0.81039 0.85406 0.0
H375 H 0.14404 0.83203 0.77657 0.0
H376 H 0.17527 0.92059 0.82642 0.0
H377 H 0.20043 0.89869 0.90332 0.0
H378 H 0.14639 0.9157 0.7433 0.0
H379 H 0.10601 0.85913 0.74115 0.0
H380 H 0.07875 0.85945 0.65098 0.0
H381 H 0.0465 0.88731 0.58897 0.0
loop_
_geom_bond_atom_site_label_1
_geom_bond_atom_site_label_2
_geom_bond_distance
_geom_bond_site_symmetry_2
_ccdc_geom_bond_type
H0 C5 0.930 . S
H1 C8 0.930 . S
H2 C10 0.930 . S
H3 C4 1.016 . S
C4 H3 1.016 . S
C4 N11 1.286 . S
C5 H0 0.930 . S
C5 C6 1.397 . S
C5 C7 1.361 1_556 S
C6 C5 1.397 . S
C6 C10 1.390 1_556 S
C7 C5 1.361 1_554 S
C7 C8 1.393 . S
C7 N11 1.413 . S
C8 H1 0.930 . S
C8 C7 1.393 . S
C8 C9 1.399 . S
C9 C8 1.399 . S
C9 C10 1.381 . S
C10 H2 0.930 . S
C10 C6 1.390 1_554 S
C10 C9 1.381 . S
N11 C4 1.286 . S
N11 C7 1.413 . S
H12 C17 0.930 . S
H13 C20 0.930 . S
H14 C22 0.930 . S
H15 C16 1.016 . S
C16 H15 1.016 . S
C16 N23 1.286 . S
C17 H12 0.930 . S
C17 C18 1.397 . S
C17 C19 1.361 . S
C18 C17 1.397 . S
C18 C22 1.390 . S
C19 C17 1.361 . S
C19 C20 1.393 . S
C19 N23 1.413 . S
C20 H13 0.930 . S
C20 C19 1.393 . S
C20 C21 1.399 . S
C21 C20 1.399 . S
C21 C22 1.381 . S
C22 H14 0.930 . S
C22 C18 1.390 . S
C22 C21 1.381 . S
N23 C16 1.286 . S
N23 C19 1.413 . S
H24 C29 0.930 . S
H25 C32 0.930 . S
H26 C34 0.930 . S
H27 C28 1.016 . S
C28 H27 1.016 . S
C28 N35 1.281 1_554 S
C29 H24 0.930 . S
C29 C30 1.397 . S
C29 C31 1.361 1_556 S
C30 C29 1.397 . S
C30 C34 1.390 1_556 S
C31 C29 1.361 1_554 S
C31 C32 1.393 . S
C31 N35 1.412 1_554 S
C32 H25 0.930 . S
C32 C31 1.393 . S
C32 C33 1.399 . S
C33 C32 1.399 . S
C33 C34 1.381 . S
C34 H26 0.930 . S
C34 C30 1.390 1_554 S
C34 C33 1.381 . S
N35 C28 1.281 1_556 S
N35 C31 1.412 1_556 S
H36 C41 0.930 . S
H37 C44 0.930 . S
H38 C46 0.930 . S
H39 C40 1.016 . S
C40 H39 1.016 . S
C40 N47 1.286 . S
C41 H36 0.930 . S
C41 C42 1.397 . S
C41 C43 1.361 . S
C42 C41 1.397 . S
C42 C46 1.390 . S
C43 C41 1.361 . S
C43 C44 1.393 . S
C43 N47 1.413 . S
C44 H37 0.930 . S
C44 C43 1.393 . S
C44 C45 1.399 . S
C45 C44 1.399 . S
C45 C46 1.381 . S
C46 H38 0.930 . S
C46 C42 1.390 . S
C46 C45 1.381 . S
N47 C40 1.286 . S
N47 C43 1.413 . S
O48 Zn49 1.953 1_565 S
O48 C64 1.225 . S
Zn49 O48 1.953 1_545 S
Zn49 O50 1.949 1_655 S
Zn49 O56 1.919 . S
Zn49 O61 1.924 . S
O50 Zn49 1.949 1_455 S
O50 Zn51 1.923 . S
O50 Zn52 1.950 1_545 S
O50 Zn53 1.945 . S
Zn51 O50 1.923 . S
Zn51 O54 1.933 . S
Zn51 O57 1.956 . S
Zn51 O58 1.965 1_545 S
Zn52 O50 1.950 1_565 S
Zn52 O59 1.938 . S
Zn52 O60 1.906 . S
Zn52 O70 1.953 1_455 S
Zn53 O50 1.945 . S
Zn53 O55 1.932 . S
Zn53 O62 1.977 1_545 S
Zn53 O63 1.910 1_455 S
O54 Zn51 1.933 . S
O54 C65 1.226 . S
O55 Zn53 1.932 . S
O55 C65 1.307 . S
O56 Zn49 1.919 . S
O56 C67 1.253 . S
O57 Zn51 1.956 . S
O57 C67 1.262 1_455 S
O58 Zn51 1.965 1_565 S
O58 C66 1.303 . S
O59 Zn52 1.938 . S
O59 C66 1.247 . S
O60 Zn52 1.906 . S
O60 C68 1.304 . S
O61 Zn49 1.924 . S
O61 C69 1.311 . S
O62 Zn53 1.977 1_565 S
O62 C68 1.272 . S
O63 Zn53 1.910 1_655 S
O63 C69 1.231 . S
C64 O48 1.225 . S
C64 O70 1.298 . S
C65 O54 1.226 . S
C65 O55 1.307 . S
C66 O58 1.303 . S
C66 O59 1.247 . S
C67 O56 1.253 . S
C67 O57 1.262 1_655 S
C68 O60 1.304 . S
C68 O62 1.272 . S
C69 O61 1.311 . S
C69 O63 1.231 . S
O70 Zn52 1.953 1_655 S
O70 C64 1.298 . S
O71 Zn72 1.953 . S
O71 C87 1.225 . S
Zn72 O71 1.953 . S
Zn72 O73 1.949 . S
Zn72 O79 1.919 1_554 S
Zn72 O84 1.924 . S
O73 Zn72 1.949 . S
O73 Zn74 1.923 1_554 S
O73 Zn75 1.950 . S
O73 Zn76 1.945 . S
Zn74 O73 1.923 1_556 S
Zn74 O77 1.933 . S
Zn74 O80 1.941 . S
Zn74 O81 1.965 . S
Zn75 O73 1.950 . S
Zn75 O82 1.938 1_554 S
Zn75 O83 1.906 . S
Zn75 O93 1.953 . S
Zn76 O73 1.945 . S
Zn76 O78 1.932 . S
Zn76 O85 1.977 . S
Zn76 O86 1.910 . S
O77 Zn74 1.933 . S
O77 C88 1.226 1_556 S
O78 Zn76 1.932 . S
O78 C88 1.307 . S
O79 Zn72 1.919 1_556 S
O79 C90 1.253 . S
O80 Zn74 1.941 . S
O80 C90 1.283 . S
O81 Zn74 1.965 . S
O81 C89 1.303 . S
O82 Zn75 1.938 1_556 S
O82 C89 1.247 . S
O83 Zn75 1.906 . S
O83 C91 1.304 . S
O84 Zn72 1.924 . S
O84 C92 1.311 . S
O85 Zn76 1.977 . S
O85 C91 1.272 . S
O86 Zn76 1.910 . S
O86 C92 1.231 . S
C87 O71 1.225 . S
C87 O93 1.298 . S
C88 O77 1.226 1_554 S
C88 O78 1.307 . S
C89 O81 1.303 . S
C89 O82 1.247 . S
C90 O79 1.253 . S
C90 O80 1.283 . S
C91 O83 1.304 . S
C91 O85 1.272 . S
C92 O84 1.311 . S
C92 O86 1.231 . S
O93 Zn75 1.953 . S
O93 C87 1.298 . S
C94 C95 1.386 . S
C94 C96 1.383 . S
C94 H110 0.951 . S
C95 C94 1.386 . S
C95 C99 1.383 . S
C96 C94 1.383 . S
C96 C97 1.402 . S
C96 H111 0.951 . S
C97 C96 1.402 . S
C97 C98 1.375 . S
C97 C100 1.481 . S
C98 C97 1.375 . S
C98 C99 1.367 . S
C98 H112 0.951 . S
C99 C95 1.383 . S
C99 C98 1.367 . S
C99 H113 0.950 . S
C100 C97 1.481 . S
C100 C101 1.297 . S
C100 H114 0.950 . S
C101 C100 1.297 . S
C101 C102 1.479 . S
C101 H115 0.950 . S
C102 C101 1.479 . S
C102 C103 1.375 . S
C102 C108 1.404 . S
C103 C102 1.375 . S
C103 C104 1.369 . S
C103 H116 0.950 . S
C104 C103 1.369 . S
C104 C105 1.392 . S
C104 H117 0.951 . S
C105 C104 1.392 . S
C105 C107 1.384 . S
H106 C108 0.949 . S
C107 C105 1.384 . S
C107 C108 1.385 . S
C107 H109 0.950 . S
C108 C102 1.404 . S
C108 H106 0.949 . S
C108 C107 1.385 . S
H109 C107 0.950 . S
H110 C94 0.951 . S
H111 C96 0.951 . S
H112 C98 0.951 . S
H113 C99 0.950 . S
H114 C100 0.950 . S
H115 C101 0.950 . S
H116 C103 0.950 . S
H117 C104 0.951 . S
C118 C119 1.386 . S
C118 C120 1.383 . S
C118 H134 0.951 . S
C119 C118 1.386 . S
C119 C123 1.383 1_554 S
C120 C118 1.383 . S
C120 C121 1.402 . S
C120 H135 0.951 . S
C121 C120 1.402 . S
C121 C122 1.375 1_554 S
C121 C124 1.481 . S
C122 C121 1.375 1_556 S
C122 C123 1.367 . S
C122 H136 0.951 . S
C123 C119 1.383 1_556 S
C123 C122 1.367 . S
C123 H137 0.950 . S
C124 C121 1.481 . S
C124 C125 1.297 . S
C124 H138 0.950 1_554 S
C125 C124 1.297 . S
C125 C126 1.479 . S
C125 H139 0.950 . S
C126 C125 1.479 . S
C126 C127 1.375 . S
C126 C132 1.404 1_554 S
C127 C126 1.375 . S
C127 C128 1.369 . S
C127 H140 0.950 . S
C128 C127 1.369 . S
C128 C129 1.392 . S
C128 H141 0.951 . S
C129 C128 1.392 . S
C129 C131 1.384 1_554 S
H130 C132 0.949 . S
C131 C129 1.384 1_556 S
C131 C132 1.385 . S
C131 H133 0.950 . S
C132 C126 1.404 1_556 S
C132 H130 0.949 . S
C132 C131 1.385 . S
H133 C131 0.950 . S
H134 C118 0.951 . S
H135 C120 0.951 . S
H136 C122 0.951 . S
H137 C123 0.950 . S
H138 C124 0.950 1_556 S
H139 C125 0.950 . S
H140 C127 0.950 . S
H141 C128 0.951 . S
C142 C143 1.386 . S
C142 C144 1.383 . S
C142 H158 0.951 . S
C143 C142 1.386 . S
C143 C147 1.383 . S
C144 C142 1.383 . S
C144 C145 1.402 . S
C144 H159 0.951 . S
C145 C144 1.402 . S
C145 C146 1.375 . S
C145 C148 1.481 . S
C146 C145 1.375 . S
C146 C147 1.367 . S
C146 H160 0.951 . S
C147 C143 1.383 . S
C147 C146 1.367 . S
C147 H161 0.950 . S
C148 C145 1.481 . S
C148 C149 1.297 . S
C148 H162 0.950 . S
C149 C148 1.297 . S
C149 C150 1.479 . S
C149 H163 0.950 . S
C150 C149 1.479 . S
C150 C151 1.375 . S
C150 C156 1.404 . S
C151 C150 1.375 . S
C151 C152 1.369 . S
C151 H164 0.950 . S
C152 C151 1.369 . S
C152 C153 1.392 . S
C152 H165 0.951 . S
C153 C152 1.392 . S
C153 C155 1.384 . S
H154 C156 0.949 . S
C155 C153 1.384 . S
C155 C156 1.385 . S
C155 H157 0.950 . S
C156 C150 1.404 . S
C156 H154 0.949 . S
C156 C155 1.385 . S
H157 C155 0.950 . S
H158 C142 0.951 . S
H159 C144 0.951 . S
H160 C146 0.951 . S
H161 C147 0.950 . S
H162 C148 0.950 . S
H163 C149 0.950 . S
H164 C151 0.950 . S
H165 C152 0.951 . S
C166 C167 1.386 . S
C166 C168 1.383 . S
C166 H182 0.951 . S
C167 C166 1.386 . S
C167 C171 1.383 . S
C168 C166 1.383 . S
C168 C169 1.402 . S
C168 H183 0.951 . S
C169 C168 1.402 . S
C169 C170 1.375 . S
C169 C172 1.481 . S
C170 C169 1.375 . S
C170 C171 1.367 . S
C170 H184 0.951 1_554 S
C171 C167 1.383 . S
C171 C170 1.367 . S
C171 H185 0.950 1_554 S
C172 C169 1.481 . S
C172 C173 1.297 . S
C172 H186 0.950 . S
C173 C172 1.297 . S
C173 C174 1.479 . S
C173 H187 0.950 . S
C174 C173 1.479 . S
C174 C175 1.375 . S
C174 C180 1.404 . S
C175 C174 1.375 . S
C175 C176 1.369 . S
C175 H188 0.950 . S
C176 C175 1.369 . S
C176 C177 1.392 . S
C176 H189 0.951 . S
C177 C176 1.392 . S
C177 C179 1.384 . S
H178 C180 0.949 . S
C179 C177 1.384 . S
C179 C180 1.385 . S
C179 H181 0.950 . S
C180 C174 1.404 . S
C180 H178 0.949 . S
C180 C179 1.385 . S
H181 C179 0.950 . S
H182 C166 0.951 . S
H183 C168 0.951 . S
H184 C170 0.951 1_556 S
H185 C171 0.950 1_556 S
H186 C172 0.950 . S
H187 C173 0.950 . S
H188 C175 0.950 . S
H189 C176 0.951 . S
C190 C191 1.386 . S
C190 C192 1.383 . S
C190 H206 0.951 . S
C191 C190 1.386 . S
C191 C195 1.383 . S
C192 C190 1.383 . S
C192 C193 1.402 . S
C192 H207 0.951 . S
C193 C192 1.402 . S
C193 C194 1.375 . S
C193 C196 1.481 . S
C194 C193 1.375 . S
C194 C195 1.367 . S
C194 H208 0.951 . S
C195 C191 1.383 . S
C195 C194 1.367 . S
C195 H209 0.950 . S
C196 C193 1.481 . S
C196 C197 1.297 . S
C196 H210 0.950 . S
C197 C196 1.297 . S
C197 C198 1.479 . S
C197 H211 0.950 . S
C198 C197 1.479 . S
C198 C199 1.375 . S
C198 C204 1.404 . S
C199 C198 1.375 . S
C199 C200 1.369 . S
C199 H212 0.950 . S
C200 C199 1.369 . S
C200 C201 1.392 . S
C200 H213 0.951 . S
C201 C200 1.392 . S
C201 C203 1.384 . S
H202 C204 0.949 . S
C203 C201 1.384 . S
C203 C204 1.385 . S
C203 H205 0.950 . S
C204 C198 1.404 . S
C204 H202 0.949 . S
C204 C203 1.385 . S
H205 C203 0.950 . S
H206 C190 0.951 . S
H207 C192 0.951 . S
H208 C194 0.951 . S
H209 C195 0.950 . S
H210 C196 0.950 . S
H211 C197 0.950 . S
H212 C199 0.950 . S
H213 C200 0.951 . S
C214 C215 1.386 . S
C214 C216 1.383 . S
C214 H230 0.951 . S
C215 C214 1.386 . S
C215 C219 1.383 . S
C216 C214 1.383 . S
C216 C217 1.402 . S
C216 H231 0.951 . S
C217 C216 1.402 . S
C217 C218 1.375 . S
C217 C220 1.481 . S
C218 C217 1.375 . S
C218 C219 1.367 . S
C218 H232 0.951 . S
C219 C215 1.383 . S
C219 C218 1.367 . S
C219 H233 0.950 . S
C220 C217 1.481 . S
C220 C221 1.297 . S
C220 H234 0.950 . S
C221 C220 1.297 . S
C221 C222 1.479 . S
C221 H235 0.950 . S
C222 C221 1.479 . S
C222 C223 1.375 . S
C222 C228 1.404 . S
C223 C222 1.375 . S
C223 C224 1.369 . S
C223 H236 0.950 . S
C224 C223 1.369 . S
C224 C225 1.392 . S
C224 H237 0.951 . S
C225 C224 1.392 . S
C225 C227 1.384 . S
H226 C228 0.949 . S
C227 C225 1.384 . S
C227 C228 1.385 . S
C227 H229 0.950 . S
C228 C222 1.404 . S
C228 H226 0.949 . S
C228 C227 1.385 . S
H229 C227 0.950 . S
H230 C214 0.951 . S
H231 C216 0.951 . S
H232 C218 0.951 . S
H233 C219 0.950 . S
H234 C220 0.950 . S
H235 C221 0.950 . S
H236 C223 0.950 . S
H237 C224 0.951 . S
C238 C239 1.386 . S
C238 C240 1.383 . S
C238 H254 0.951 . S
C239 C238 1.386 . S
C239 C243 1.383 . S
C240 C238 1.383 . S
C240 C241 1.402 . S
C240 H255 0.951 . S
C241 C240 1.402 . S
C241 C242 1.375 . S
C241 C244 1.481 . S
C242 C241 1.375 . S
C242 C243 1.367 . S
C242 H256 0.951 . S
C243 C239 1.383 . S
C243 C242 1.367 . S
C243 H257 0.950 . S
C244 C241 1.481 . S
C244 C245 1.297 . S
C244 H258 0.950 . S
C245 C244 1.297 . S
C245 C246 1.479 . S
C245 H259 0.950 . S
C246 C245 1.479 . S
C246 C247 1.375 . S
C246 C252 1.404 . S
C247 C246 1.375 . S
C247 C248 1.369 . S
C247 H260 0.950 . S
C248 C247 1.369 . S
C248 C249 1.392 . S
C248 H261 0.951 . S
C249 C248 1.392 . S
C249 C251 1.384 . S
H250 C252 0.949 . S
C251 C249 1.384 . S
C251 C252 1.385 . S
C251 H253 0.950 . S
C252 C246 1.404 . S
C252 H250 0.949 . S
C252 C251 1.385 . S
H253 C251 0.950 . S
H254 C238 0.951 . S
H255 C240 0.951 . S
H256 C242 0.951 . S
H257 C243 0.950 . S
H258 C244 0.950 . S
H259 C245 0.950 . S
H260 C247 0.950 . S
H261 C248 0.951 . S
C262 C263 1.386 . S
C262 C264 1.383 . S
C262 H278 0.951 . S
C263 C262 1.386 . S
C263 C267 1.383 . S
C264 C262 1.383 . S
C264 C265 1.402 . S
C264 H279 0.951 . S
C265 C264 1.402 . S
C265 C266 1.375 . S
C265 C268 1.481 . S
C266 C265 1.375 . S
C266 C267 1.367 . S
C266 H280 0.951 . S
C267 C263 1.383 . S
C267 C266 1.367 . S
C267 H281 0.950 . S
C268 C265 1.481 . S
C268 C269 1.297 . S
C268 H282 0.950 . S
C269 C268 1.297 . S
C269 C270 1.479 . S
C269 H283 0.950 . S
C270 C269 1.479 . S
C270 C271 1.375 . S
C270 C276 1.404 . S
C271 C270 1.375 . S
C271 C272 1.369 . S
C271 H284 0.950 . S
C272 C271 1.369 . S
C272 C273 1.392 . S
C272 H285 0.951 . S
C273 C272 1.392 . S
C273 C275 1.384 . S
H274 C276 0.949 . S
C275 C273 1.384 . S
C275 C276 1.385 . S
C275 H277 0.950 . S
C276 C270 1.404 . S
C276 H274 0.949 . S
C276 C275 1.385 . S
H277 C275 0.950 . S
H278 C262 0.951 . S
H279 C264 0.951 . S
H280 C266 0.951 . S
H281 C267 0.950 . S
H282 C268 0.950 . S
H283 C269 0.950 . S
H284 C271 0.950 . S
H285 C272 0.951 . S
C286 C287 1.386 . S
C286 C288 1.383 . S
C286 H302 0.951 . S
C287 C286 1.386 . S
C287 C291 1.383 . S
C288 C286 1.383 . S
C288 C289 1.402 . S
C288 H303 0.951 . S
C289 C288 1.402 . S
C289 C290 1.375 . S
C289 C292 1.481 . S
C290 C289 1.375 . S
C290 C291 1.367 . S
C290 H304 0.951 . S
C291 C287 1.383 . S
C291 C290 1.367 . S
C291 H305 0.950 . S
C292 C289 1.481 . S
C292 C293 1.297 . S
C292 H306 0.950 . S
C293 C292 1.297 . S
C293 C294 1.479 . S
C293 H307 0.950 . S
C294 C293 1.479 . S
C294 C295 1.375 . S
C294 C300 1.404 . S
C295 C294 1.375 . S
C295 C296 1.369 . S
C295 H308 0.950 . S
C296 C295 1.369 . S
C296 C297 1.392 . S
C296 H309 0.951 . S
C297 C296 1.392 . S
C297 C299 1.384 . S
H298 C300 0.949 . S
C299 C297 1.384 . S
C299 C300 1.385 . S
C299 H301 0.950 . S
C300 C294 1.404 . S
C300 H298 0.949 . S
C300 C299 1.385 . S
H301 C299 0.950 . S
H302 C286 0.951 . S
H303 C288 0.951 . S
H304 C290 0.951 . S
H305 C291 0.950 . S
H306 C292 0.950 . S
H307 C293 0.950 . S
H308 C295 0.950 . S
H309 C296 0.951 . S
C310 C311 1.386 . S
C310 C312 1.383 . S
C310 H326 0.951 . S
C311 C310 1.386 . S
C311 C315 1.383 . S
C312 C310 1.383 . S
C312 C313 1.402 . S
C312 H327 0.951 . S
C313 C312 1.402 . S
C313 C314 1.375 . S
C313 C316 1.481 . S
C314 C313 1.375 . S
C314 C315 1.367 . S
C314 H328 0.951 . S
C315 C311 1.383 . S
C315 C314 1.367 . S
C315 H329 0.950 . S
C316 C313 1.481 . S
C316 C317 1.297 . S
C316 H330 0.950 . S
C317 C316 1.297 . S
C317 C318 1.479 . S
C317 H331 0.950 . S
C318 C317 1.479 . S
C318 C319 1.375 . S
C318 C324 1.404 . S
C319 C318 1.375 . S
C319 C320 1.369 . S
C319 H332 0.950 . S
C320 C319 1.369 . S
C320 C321 1.392 . S
C320 H333 0.951 . S
C321 C320 1.392 . S
C321 C323 1.384 . S
H322 C324 0.949 . S
C323 C321 1.384 . S
C323 C324 1.385 . S
C323 H325 0.950 . S
C324 C318 1.404 . S
C324 H322 0.949 . S
C324 C323 1.385 . S
H325 C323 0.950 . S
H326 C310 0.951 . S
H327 C312 0.951 . S
H328 C314 0.951 . S
H329 C315 0.950 . S
H330 C316 0.950 . S
H331 C317 0.950 . S
H332 C319 0.950 . S
H333 C320 0.951 . S
C334 C335 1.386 . S
C334 C336 1.383 . S
C334 H350 0.951 . S
C335 C334 1.386 . S
C335 C339 1.383 . S
C336 C334 1.383 . S
C336 C337 1.402 . S
C336 H351 0.951 . S
C337 C336 1.402 . S
C337 C338 1.375 . S
C337 C340 1.481 . S
C338 C337 1.375 . S
C338 C339 1.367 . S
C338 H352 0.951 . S
C339 C335 1.383 . S
C339 C338 1.367 . S
C339 H353 0.950 . S
C340 C337 1.481 . S
C340 C341 1.297 . S
C340 H354 0.950 . S
C341 C340 1.297 . S
C341 C342 1.479 . S
C341 H355 0.950 . S
C342 C341 1.479 . S
C342 C343 1.375 . S
C342 C348 1.404 . S
C343 C342 1.375 . S
C343 C344 1.369 . S
C343 H356 0.950 . S
C344 C343 1.369 . S
C344 C345 1.392 . S
C344 H357 0.951 . S
C345 C344 1.392 . S
C345 C347 1.384 . S
H346 C348 0.949 . S
C347 C345 1.384 . S
C347 C348 1.385 . S
C347 H349 0.950 . S
C348 C342 1.404 . S
C348 H346 0.949 . S
C348 C347 1.385 . S
H349 C347 0.950 . S
H350 C334 0.951 . S
H351 C336 0.951 . S
H352 C338 0.951 . S
H353 C339 0.950 . S
H354 C340 0.950 . S
H355 C341 0.950 . S
H356 C343 0.950 . S
H357 C344 0.951 . S
C358 C359 1.386 . S
C358 C360 1.383 . S
C358 H374 0.951 . S
C359 C358 1.386 . S
C359 C363 1.383 . S
C360 C358 1.383 . S
C360 C361 1.402 . S
C360 H375 0.951 . S
C361 C360 1.402 . S
C361 C362 1.375 . S
C361 C364 1.481 . S
C362 C361 1.375 . S
C362 C363 1.367 . S
C362 H376 0.951 . S
C363 C359 1.383 . S
C363 C362 1.367 . S
C363 H377 0.950 . S
C364 C361 1.481 . S
C364 C365 1.297 . S
C364 H378 0.950 . S
C365 C364 1.297 . S
C365 C366 1.479 . S
C365 H379 0.950 . S
C366 C365 1.479 . S
C366 C367 1.375 . S
C366 C372 1.404 . S
C367 C366 1.375 . S
C367 C368 1.369 . S
C367 H380 0.950 . S
C368 C367 1.369 . S
C368 C369 1.392 . S
C368 H381 0.951 . S
C369 C368 1.392 . S
C369 C371 1.384 . S
H370 C372 0.949 . S
C371 C369 1.384 . S
C371 C372 1.385 . S
C371 H373 0.950 . S
C372 C366 1.404 . S
C372 H370 0.949 . S
C372 C371 1.385 . S
H373 C371 0.950 . S
H374 C358 0.951 . S
H375 C360 0.951 . S
H376 C362 0.951 . S
H377 C363 0.950 . S
H378 C364 0.950 . S
H379 C365 0.950 . S
H380 C367 0.950 . S
H381 C368 0.951 . S
C105 C65 1.468 . S
C95 C40 1.469 . S
C119 C4 1.488 . S
C129 C88 1.468 . S
C143 C16 1.509 . S
C153 C64 1.516 . S
C167 C28 1.515 . S
C177 C87 1.511 . S
C201 C68 1.496 . S
C191 C9 1.476 . S
C225 C90 1.434 . S
C215 C18 1.545 . S
C239 C33 1.490 . S
C249 C69 1.495 . S
C263 C45 1.502 . S
C273 C89 1.514 . S
C297 C92 1.347 . S
C287 C21 1.439 . S
C321 C67 1.362 . S
C311 C30 1.480 . S
C345 C91 1.432 . S
C335 C42 1.415 . S
C359 C6 1.441 . S
C369 C66 1.448 . S
