# Generated by pormake.
# Topology eea, (3,6)-cn, num edge types: 1
# Building blocks:
#     Node 0, Type 0, BuildingBlock: BELTOD_clean_linker_0, # of connection points: 3
#     Node 1, Type 0, BuildingBlock: BELTOD_clean_linker_0, # of connection points: 3
#     Node 2, Type 0, BuildingBlock: BELTOD_clean_linker_0, # of connection points: 3
#     Node 3, Type 0, BuildingBlock: BELTOD_clean_linker_0, # of connection points: 3
#     Node 4, Type 0, BuildingBlock: BELTOD_clean_linker_0, # of connection points: 3
#     Node 5, Type 0, BuildingBlock: BELTOD_clean_linker_0, # of connection points: 3
#     Node 6, Type 0, BuildingBlock: BELTOD_clean_linker_0, # of connection points: 3
#     Node 7, Type 0, BuildingBlock: BELTOD_clean_linker_0, # of connection points: 3
#     Node 8, Type 0, BuildingBlock: BELTOD_clean_linker_0, # of connection points: 3
#     Node 9, Type 0, BuildingBlock: BELTOD_clean_linker_0, # of connection points: 3
#     Node 10, Type 0, BuildingBlock: BELTOD_clean_linker_0, # of connection points: 3
#     Node 11, Type 0, BuildingBlock: BELTOD_clean_linker_0, # of connection points: 3
#     Node 12, Type 0, BuildingBlock: BELTOD_clean_linker_0, # of connection points: 3
#     Node 13, Type 0, BuildingBlock: BELTOD_clean_linker_0, # of connection points: 3
#     Node 14, Type 0, BuildingBlock: BELTOD_clean_linker_0, # of connection points: 3
#     Node 15, Type 0, BuildingBlock: BELTOD_clean_linker_0, # of connection points: 3
#     Node 16, Type 0, BuildingBlock: BELTOD_clean_linker_0, # of connection points: 3
#     Node 17, Type 0, BuildingBlock: BELTOD_clean_linker_0, # of connection points: 3
#     Node 18, Type 1, BuildingBlock: CUKXOW_clean_sbu_0, # of connection points: 6
#     Node 19, Type 1, BuildingBlock: CUKXOW_clean_sbu_0, # of connection points: 6
#     Node 20, Type 1, BuildingBlock: CUKXOW_clean_sbu_0, # of connection points: 6
#     Node 21, Type 1, BuildingBlock: CUKXOW_clean_sbu_0, # of connection points: 6
#     Node 22, Type 1, BuildingBlock: CUKXOW_clean_sbu_0, # of connection points: 6
#     Node 23, Type 1, BuildingBlock: CUKXOW_clean_sbu_0, # of connection points: 6
#     Node 24, Type 1, BuildingBlock: CUKXOW_clean_sbu_0, # of connection points: 6
#     Node 25, Type 1, BuildingBlock: CUKXOW_clean_sbu_0, # of connection points: 6
#     Node 26, Type 1, BuildingBlock: CUKXOW_clean_sbu_0, # of connection points: 6
#     Edge 27, Type (0, 1), BuildingBlock: CIFDUS_clean_linker_0, # of connection points: 2
#     Edge 28, Type (0, 1), BuildingBlock: CIFDUS_clean_linker_0, # of connection points: 2
#     Edge 29, Type (0, 1), BuildingBlock: CIFDUS_clean_linker_0, # of connection points: 2
#     Edge 30, Type (0, 1), BuildingBlock: CIFDUS_clean_linker_0, # of connection points: 2
#     Edge 31, Type (0, 1), BuildingBlock: CIFDUS_clean_linker_0, # of connection points: 2
#     Edge 32, Type (0, 1), BuildingBlock: CIFDUS_clean_linker_0, # of connection points: 2
#     Edge 33, Type (0, 1), BuildingBlock: CIFDUS_clean_linker_0, # of connection points: 2
#     Edge 34, Type (0, 1), BuildingBlock: CIFDUS_clean_linker_0, # of connection points: 2
#     Edge 35, Type (0, 1), BuildingBlock: CIFDUS_clean_linker_0, # of connection points: 2
#     Edge 36, Type (0, 1), BuildingBlock: CIFDUS_clean_linker_0, # of connection points: 2
#     Edge 37, Type (0, 1), BuildingBlock: CIFDUS_clean_linker_0, # of connection points: 2
#     Edge 38, Type (0, 1), BuildingBlock: CIFDUS_clean_linker_0, # of connection points: 2
#     Edge 39, Type (0, 1), BuildingBlock: CIFDUS_clean_linker_0, # of connection points: 2
#     Edge 40, Type (0, 1), BuildingBlock: CIFDUS_clean_linker_0, # of connection points: 2
#     Edge 41, Type (0, 1), BuildingBlock: CIFDUS_clean_linker_0, # of connection points: 2
#     Edge 42, Type (0, 1), BuildingBlock: CIFDUS_clean_linker_0, # of connection points: 2
#     Edge 43, Type (0, 1), BuildingBlock: CIFDUS_clean_linker_0, # of connection points: 2
#     Edge 44, Type (0, 1), BuildingBlock: CIFDUS_clean_linker_0, # of connection points: 2
#     Edge 45, Type (0, 1), BuildingBlock: CIFDUS_clean_linker_0, # of connection points: 2
#     Edge 46, Type (0, 1), BuildingBlock: CIFDUS_clean_linker_0, # of connection points: 2
#     Edge 47, Type (0, 1), BuildingBlock: CIFDUS_clean_linker_0, # of connection points: 2
#     Edge 48, Type (0, 1), BuildingBlock: CIFDUS_clean_linker_0, # of connection points: 2
#     Edge 49, Type (0, 1), BuildingBlock: CIFDUS_clean_linker_0, # of connection points: 2
#     Edge 50, Type (0, 1), BuildingBlock: CIFDUS_clean_linker_0, # of connection points: 2
#     Edge 51, Type (0, 1), BuildingBlock: CIFDUS_clean_linker_0, # of connection points: 2
#     Edge 52, Type (0, 1), BuildingBlock: CIFDUS_clean_linker_0, # of connection points: 2
#     Edge 53, Type (0, 1), BuildingBlock: CIFDUS_clean_linker_0, # of connection points: 2
#     Edge 54, Type (0, 1), BuildingBlock: CIFDUS_clean_linker_0, # of connection points: 2
#     Edge 55, Type (0, 1), BuildingBlock: CIFDUS_clean_linker_0, # of connection points: 2
#     Edge 56, Type (0, 1), BuildingBlock: CIFDUS_clean_linker_0, # of connection points: 2
#     Edge 57, Type (0, 1), BuildingBlock: CIFDUS_clean_linker_0, # of connection points: 2
#     Edge 58, Type (0, 1), BuildingBlock: CIFDUS_clean_linker_0, # of connection points: 2
#     Edge 59, Type (0, 1), BuildingBlock: CIFDUS_clean_linker_0, # of connection points: 2
#     Edge 60, Type (0, 1), BuildingBlock: CIFDUS_clean_linker_0, # of connection points: 2
#     Edge 61, Type (0, 1), BuildingBlock: CIFDUS_clean_linker_0, # of connection points: 2
#     Edge 62, Type (0, 1), BuildingBlock: CIFDUS_clean_linker_0, # of connection points: 2
#     Edge 63, Type (0, 1), BuildingBlock: CIFDUS_clean_linker_0, # of connection points: 2
#     Edge 64, Type (0, 1), BuildingBlock: CIFDUS_clean_linker_0, # of connection points: 2
#     Edge 65, Type (0, 1), BuildingBlock: CIFDUS_clean_linker_0, # of connection points: 2
#     Edge 66, Type (0, 1), BuildingBlock: CIFDUS_clean_linker_0, # of connection points: 2
#     Edge 67, Type (0, 1), BuildingBlock: CIFDUS_clean_linker_0, # of connection points: 2
#     Edge 68, Type (0, 1), BuildingBlock: CIFDUS_clean_linker_0, # of connection points: 2
#     Edge 69, Type (0, 1), BuildingBlock: CIFDUS_clean_linker_0, # of connection points: 2
#     Edge 70, Type (0, 1), BuildingBlock: CIFDUS_clean_linker_0, # of connection points: 2
#     Edge 71, Type (0, 1), BuildingBlock: CIFDUS_clean_linker_0, # of connection points: 2
#     Edge 72, Type (0, 1), BuildingBlock: CIFDUS_clean_linker_0, # of connection points: 2
#     Edge 73, Type (0, 1), BuildingBlock: CIFDUS_clean_linker_0, # of connection points: 2
#     Edge 74, Type (0, 1), BuildingBlock: CIFDUS_clean_linker_0, # of connection points: 2
#     Edge 75, Type (0, 1), BuildingBlock: CIFDUS_clean_linker_0, # of connection points: 2
#     Edge 76, Type (0, 1), BuildingBlock: CIFDUS_clean_linker_0, # of connection points: 2
#     Edge 77, Type (0, 1), BuildingBlock: CIFDUS_clean_linker_0, # of connection points: 2
#     Edge 78, Type (0, 1), BuildingBlock: CIFDUS_clean_linker_0, # of connection points: 2
#     Edge 79, Type (0, 1), BuildingBlock: CIFDUS_clean_linker_0, # of connection points: 2
#     Edge 80, Type (0, 1), BuildingBlock: CIFDUS_clean_linker_0, # of connection points: 2
# Relax obj value: 0.016
# Max RMSD: 0.122
# Mean RMSD: 0.052
data_MOF--net-eea--node1-CUKXOW_clean_sbu_0--node2-BELTOD_clean_linker_0--edge1-CIFDUS_clean_linker_0
_symmetry_space_group_name_H-M    P1
_symmetry_Int_Tables_number       1
_symmetry_cell_setting            triclinic
loop_
_symmetry_equiv_pos_as_xyz
'x, y, z'
_cell_length_a     56.926911
_cell_length_b     53.611457
_cell_length_c     59.207228
_cell_angle_alpha  93.710602
_cell_angle_beta   93.237873
_cell_angle_gamma 119.99525
loop_
_atom_site_label
_atom_site_type_symbol
_atom_site_fract_x
_atom_site_fract_y
_atom_site_fract_z
_atom_type_partial_charge
P0 P 0.28197 0.14194 0.41743 0.0
H1 H 0.25602 0.11246 0.37254 0.0
H2 H 0.22512 0.06148 0.35861 0.0
H3 H 0.22089 0.0394 0.4278 0.0
H4 H 0.25077 0.09027 0.44156 0.0
H5 H 0.30705 0.19398 0.39376 0.0
H6 H 0.2902 0.22429 0.37947 0.0
H7 H 0.21451 0.17338 0.40877 0.0
H8 H 0.23116 0.14216 0.42197 0.0
H9 H 0.31545 0.12552 0.44373 0.0
H10 H 0.26819 0.16638 0.45749 0.0
O11 O 0.30947 0.14885 0.40431 0.0
H12 H 0.32521 0.12613 0.48451 0.0
H13 H 0.27779 0.1669 0.49842 0.0
C14 C 0.25608 0.10511 0.408 0.0
C15 C 0.24803 0.09665 0.3847 0.0
C16 C 0.23047 0.0675 0.37677 0.0
C17 C 0.22082 0.04627 0.39207 0.0
C18 C 0.22776 0.05514 0.41554 0.0
C19 C 0.24519 0.08432 0.42344 0.0
C20 C 0.2703 0.1658 0.40886 0.0
C21 C 0.28684 0.18936 0.39715 0.0
C22 C 0.27721 0.20684 0.3891 0.0
C23 C 0.25092 0.20134 0.39289 0.0
C24 C 0.23464 0.17799 0.40514 0.0
C25 C 0.24421 0.16028 0.41292 0.0
C26 C 0.29138 0.14618 0.44757 0.0
C27 C 0.30749 0.135 0.45555 0.0
C28 C 0.31283 0.1351 0.47884 0.0
C29 C 0.30212 0.14641 0.49464 0.0
C30 C 0.28646 0.15824 0.48662 0.0
C31 C 0.28094 0.15791 0.46322 0.0
P32 P 0.87594 0.09546 0.45393 0.0
H33 H 0.85879 0.03554 0.43936 0.0
H34 H 0.82151 0.99822 0.41323 0.0
H35 H 0.79487 0.05855 0.39806 0.0
H36 H 0.83245 0.09609 0.42497 0.0
H37 H 0.9227 0.09484 0.43724 0.0
H38 H 0.96109 0.12958 0.41849 0.0
H39 H 0.92578 0.18455 0.41646 0.0
H40 H 0.88735 0.14958 0.43551 0.0
H41 H 0.82388 0.08114 0.4718 0.0
H42 H 0.90786 0.15013 0.48231 0.0
O43 O 0.88839 0.07891 0.46937 0.0
H44 H 0.81431 0.10119 0.50614 0.0
H45 H 0.89836 0.17003 0.5165 0.0
C46 C 0.84806 0.06841 0.43441 0.0
C47 C 0.84494 0.04084 0.43053 0.0
C48 C 0.82373 0.01954 0.41532 0.0
C49 C 0.80528 0.02543 0.40338 0.0
C50 C 0.80863 0.05329 0.40709 0.0
C51 C 0.83004 0.07472 0.42241 0.0
C52 C 0.90261 0.12005 0.43822 0.0
C53 C 0.92316 0.11432 0.4327 0.0
C54 C 0.94501 0.13411 0.42183 0.0
C55 C 0.94658 0.15992 0.41616 0.0
C56 C 0.92534 0.16507 0.42097 0.0
C57 C 0.90337 0.14511 0.43176 0.0
C58 C 0.86647 0.11447 0.47421 0.0
C59 C 0.83996 0.10126 0.48087 0.0
C60 C 0.83448 0.11272 0.50047 0.0
C61 C 0.85562 0.13715 0.51385 0.0
C62 C 0.88171 0.15128 0.50636 0.0
C63 C 0.8871 0.13996 0.48676 0.0
P64 P 0.85914 0.70161 0.43125 0.0
H65 H 0.80254 0.67677 0.4123 0.0
H66 H 0.77723 0.69795 0.39544 0.0
H67 H 0.85076 0.78183 0.40335 0.0
H68 H 0.87596 0.76059 0.42048 0.0
H69 H 0.87864 0.68551 0.39199 0.0
H70 H 0.92256 0.70762 0.37636 0.0
H71 H 0.95685 0.7752 0.43259 0.0
H72 H 0.91251 0.75299 0.44811 0.0
H73 H 0.81812 0.70129 0.45841 0.0
H74 H 0.89696 0.70901 0.47088 0.0
O75 O 0.84265 0.66602 0.4233 0.0
H76 H 0.81315 0.70088 0.49865 0.0
H77 H 0.893 0.71058 0.5118 0.0
C78 C 0.84121 0.717 0.41729 0.0
C79 C 0.8133 0.69965 0.41019 0.0
C80 C 0.79882 0.7118 0.40072 0.0
C81 C 0.81208 0.74151 0.39808 0.0
C82 C 0.84014 0.75881 0.40497 0.0
C83 C 0.85453 0.74668 0.41474 0.0
C84 C 0.89255 0.71709 0.42157 0.0
C85 C 0.89568 0.70485 0.40116 0.0
C86 C 0.92071 0.71767 0.39211 0.0
C87 C 0.94311 0.74311 0.40328 0.0
C88 C 0.93999 0.75538 0.4238 0.0
C89 C 0.91475 0.74264 0.43273 0.0
C90 C 0.85832 0.7062 0.46157 0.0
C91 C 0.83487 0.70393 0.46989 0.0
C92 C 0.8321 0.70385 0.49312 0.0
C93 C 0.85283 0.70614 0.50877 0.0
C94 C 0.87652 0.70865 0.50036 0.0
C95 C 0.87904 0.70823 0.47693 0.0
P96 P 0.14221 0.31265 0.57739 0.0
H97 H 0.12642 0.31775 0.62237 0.0
H98 H 0.08283 0.29426 0.63857 0.0
H99 H 0.04239 0.24791 0.57275 0.0
H100 H 0.08619 0.27181 0.5566 0.0
H101 H 0.19965 0.32952 0.58265 0.0
H102 H 0.22366 0.30545 0.59664 0.0
H103 H 0.14646 0.23012 0.60536 0.0
H104 H 0.12265 0.25431 0.59146 0.0
H105 H 0.13533 0.35016 0.54749 0.0
H106 H 0.1429 0.27402 0.54021 0.0
O107 O 0.16065 0.34709 0.58874 0.0
H108 H 0.13393 0.35144 0.50619 0.0
H109 H 0.14221 0.27551 0.49908 0.0
C110 C 0.10943 0.29696 0.58823 0.0
C111 C 0.10811 0.30283 0.61137 0.0
C112 C 0.08322 0.28915 0.62065 0.0
C113 C 0.05914 0.26917 0.60696 0.0
C114 C 0.06052 0.26346 0.58368 0.0
C115 C 0.08553 0.27711 0.57442 0.0
C116 C 0.15945 0.29399 0.5865 0.0
C117 C 0.18793 0.30781 0.58756 0.0
C118 C 0.20159 0.29396 0.59541 0.0
C119 C 0.18696 0.26596 0.6023 0.0
C120 C 0.15833 0.25187 0.60057 0.0
C121 C 0.14469 0.2657 0.59259 0.0
C122 C 0.13969 0.31231 0.54691 0.0
C123 C 0.13675 0.33376 0.53698 0.0
C124 C 0.13609 0.33455 0.51339 0.0
C125 C 0.13817 0.31372 0.49929 0.0
C126 C 0.14032 0.29175 0.50936 0.0
C127 C 0.14094 0.29099 0.53294 0.0
P128 P 0.76376 0.88094 0.56644 0.0
H129 H 0.78492 0.90256 0.61362 0.0
H130 H 0.78652 0.94151 0.63865 0.0
H131 H 0.73453 0.95059 0.58786 0.0
H132 H 0.73244 0.91109 0.56314 0.0
H133 H 0.78941 0.84728 0.55574 0.0
H134 H 0.79394 0.81088 0.57516 0.0
H135 H 0.73976 0.81085 0.6234 0.0
H136 H 0.73502 0.8472 0.60358 0.0
H137 H 0.76696 0.9118 0.52742 0.0
H138 H 0.7134 0.82696 0.5473 0.0
O139 O 0.79574 0.90144 0.56019 0.0
H140 H 0.74268 0.89668 0.48929 0.0
H141 H 0.68872 0.81168 0.50883 0.0
C142 C 0.75834 0.90368 0.58662 0.0
C143 C 0.77307 0.91223 0.60819 0.0
C144 C 0.77419 0.93469 0.6224 0.0
C145 C 0.76088 0.94933 0.61515 0.0
C146 C 0.74479 0.93957 0.59405 0.0
C147 C 0.74365 0.917 0.57983 0.0
C148 C 0.7625 0.85046 0.57862 0.0
C149 C 0.77826 0.83922 0.57034 0.0
C150 C 0.78093 0.81853 0.58152 0.0
C151 C 0.76771 0.80854 0.60111 0.0
C152 C 0.75031 0.81829 0.60842 0.0
C153 C 0.74768 0.83913 0.59718 0.0
C154 C 0.74232 0.87033 0.53999 0.0
C155 C 0.74973 0.89 0.52364 0.0
C156 C 0.73586 0.88136 0.50188 0.0
C157 C 0.7141 0.85292 0.4961 0.0
C158 C 0.70546 0.83371 0.51292 0.0
C159 C 0.71959 0.84238 0.5348 0.0
P160 P 0.14627 0.85953 0.58448 0.0
H161 H 0.1698 0.88133 0.63142 0.0
H162 H 0.19561 0.93014 0.65141 0.0
H163 H 0.18459 0.96509 0.59048 0.0
H164 H 0.15762 0.91607 0.5711 0.0
H165 H 0.11839 0.81948 0.61747 0.0
H166 H 0.07148 0.79527 0.6272 0.0
H167 H 0.04991 0.83499 0.57498 0.0
H168 H 0.0974 0.85992 0.56559 0.0
H169 H 0.19462 0.89377 0.56208 0.0
H170 H 0.11083 0.82835 0.54164 0.0
O171 O 0.16128 0.84209 0.5947 0.0
H172 H 0.2042 0.89567 0.52249 0.0
H173 H 0.11989 0.83104 0.50177 0.0
C174 C 0.16268 0.89525 0.59959 0.0
C175 C 0.17277 0.89953 0.62247 0.0
C176 C 0.18764 0.92748 0.63383 0.0
C177 C 0.19274 0.9517 0.62244 0.0
C178 C 0.18108 0.94704 0.59985 0.0
C179 C 0.16591 0.91901 0.58861 0.0
C180 C 0.11116 0.84074 0.5903 0.0
C181 C 0.10359 0.82283 0.60792 0.0
C182 C 0.07682 0.80916 0.6136 0.0
C183 C 0.05709 0.81315 0.60175 0.0
C184 C 0.0647 0.83129 0.58417 0.0
C185 C 0.09172 0.84541 0.57875 0.0
C186 C 0.15179 0.86172 0.55481 0.0
C187 C 0.17809 0.88029 0.54899 0.0
C188 C 0.18352 0.88144 0.52628 0.0
C189 C 0.16275 0.86381 0.50881 0.0
C190 C 0.13641 0.84489 0.51475 0.0
C191 C 0.13107 0.84363 0.53758 0.0
P192 P 0.94904 0.48778 0.75519 0.0
H193 H 0.96507 0.44698 0.73826 0.0
H194 H 0.93961 0.39548 0.72503 0.0
H195 H 0.86427 0.39303 0.73683 0.0
H196 H 0.89019 0.4448 0.7506 0.0
H197 H 0.9544 0.54168 0.7754 0.0
H198 H 0.93771 0.5728 0.76227 0.0
H199 H 0.89244 0.51037 0.704 0.0
H200 H 0.90973 0.47948 0.71688 0.0
H201 H 0.99688 0.52935 0.78575 0.0
H202 H 0.91765 0.45577 0.79163 0.0
O203 O 0.97838 0.50222 0.74338 0.0
H204 H 0.00781 0.53509 0.8269 0.0
H205 H 0.92875 0.46059 0.83267 0.0
C206 C 0.92946 0.44987 0.74481 0.0
C207 C 0.94306 0.43548 0.73779 0.0
C208 C 0.92843 0.406 0.73014 0.0
C209 C 0.89984 0.3902 0.7295 0.0
C210 C 0.88627 0.40458 0.73707 0.0
C211 C 0.90101 0.43418 0.74475 0.0
C212 C 0.93269 0.5078 0.74751 0.0
C213 C 0.94042 0.53429 0.76007 0.0
C214 C 0.93103 0.55218 0.75249 0.0
C215 C 0.91372 0.54387 0.7322 0.0
C216 C 0.90545 0.51703 0.71988 0.0
C217 C 0.91523 0.49933 0.7273 0.0
C218 C 0.9567 0.49175 0.78558 0.0
C219 C 0.98193 0.51423 0.79589 0.0
C220 C 0.98818 0.51742 0.81943 0.0
C221 C 0.96929 0.49813 0.83314 0.0
C222 C 0.94373 0.476 0.82271 0.0
C223 C 0.93744 0.473 0.79916 0.0
P224 P 0.57193 0.44471 0.79159 0.0
H225 H 0.55384 0.3855 0.77276 0.0
H226 H 0.5138 0.34951 0.74818 0.0
H227 H 0.48633 0.41113 0.74283 0.0
H228 H 0.52638 0.44697 0.7683 0.0
H229 H 0.61957 0.49909 0.81045 0.0
H230 H 0.65437 0.53966 0.79281 0.0
H231 H 0.60784 0.50164 0.72714 0.0
H232 H 0.57392 0.46068 0.74474 0.0
H233 H 0.55406 0.41398 0.83132 0.0
H234 H 0.55935 0.48999 0.80587 0.0
O235 O 0.59053 0.42994 0.79926 0.0
H236 H 0.53306 0.42076 0.86419 0.0
H237 H 0.53795 0.49681 0.83873 0.0
C238 C 0.54313 0.41893 0.77222 0.0
C239 C 0.53935 0.3914 0.76622 0.0
C240 C 0.51646 0.37086 0.75196 0.0
C241 C 0.49693 0.37749 0.74328 0.0
C242 C 0.50088 0.40525 0.7493 0.0
C243 C 0.52379 0.42578 0.76373 0.0
C244 C 0.59405 0.47701 0.77899 0.0
C245 C 0.61666 0.49982 0.79232 0.0
C246 C 0.63649 0.52307 0.78219 0.0
C247 C 0.63403 0.52386 0.75849 0.0
C248 C 0.61063 0.50151 0.74537 0.0
C249 C 0.59098 0.47816 0.7555 0.0
C250 C 0.5588 0.45187 0.81651 0.0
C251 C 0.55098 0.43236 0.83298 0.0
C252 C 0.53871 0.43608 0.85163 0.0
C253 C 0.53381 0.45929 0.85402 0.0
C254 C 0.54178 0.47893 0.83747 0.0
C255 C 0.55401 0.47509 0.81873 0.0
P256 P 0.52702 0.04409 0.76563 0.0
H257 H 0.49144 0.03492 0.72454 0.0
H258 H 0.46402 0.05641 0.71346 0.0
H259 H 0.49308 0.112 0.77695 0.0
H260 H 0.52049 0.09034 0.78795 0.0
H261 H 0.5786 0.04974 0.78457 0.0
H262 H 0.62485 0.07527 0.77334 0.0
H263 H 0.59695 0.10676 0.71849 0.0
H264 H 0.55156 0.08295 0.73086 0.0
H265 H 0.48213 0.00082 0.78706 0.0
H266 H 0.56084 0.07593 0.80897 0.0
O267 O 0.51372 0.01174 0.75061 0.0
H268 H 0.47281 0.99439 0.82675 0.0
H269 H 0.55195 0.06884 0.84884 0.0
C270 C 0.5076 0.06069 0.75722 0.0
C271 C 0.4919 0.0517 0.73609 0.0
C272 C 0.47636 0.06413 0.72972 0.0
C273 C 0.47629 0.08579 0.7444 0.0
C274 C 0.49242 0.09506 0.76544 0.0
C275 C 0.50813 0.08276 0.77171 0.0
C276 C 0.56181 0.06538 0.75919 0.0
C277 C 0.58271 0.06296 0.77062 0.0
C278 C 0.60911 0.07719 0.76386 0.0
C279 C 0.61493 0.09335 0.74499 0.0
C280 C 0.59369 0.09534 0.73348 0.0
C281 C 0.56751 0.08156 0.74052 0.0
C282 C 0.52254 0.03823 0.79507 0.0
C283 C 0.49767 0.01553 0.80043 0.0
C284 C 0.49226 0.01199 0.82305 0.0
C285 C 0.51175 0.03102 0.84075 0.0
C286 C 0.53678 0.05368 0.83544 0.0
C287 C 0.54196 0.05758 0.8127 0.0
P288 P 0.81178 0.63137 0.91284 0.0
H289 H 0.79269 0.60754 0.95521 0.0
H290 H 0.74898 0.58852 0.97081 0.0
H291 H 0.71388 0.60006 0.9085 0.0
H292 H 0.75765 0.61814 0.89265 0.0
H293 H 0.86981 0.65486 0.92574 0.0
H294 H 0.8962 0.63317 0.93922 0.0
H295 H 0.82265 0.54926 0.93224 0.0
H296 H 0.79636 0.57121 0.91886 0.0
H297 H 0.80909 0.67185 0.88364 0.0
H298 H 0.81346 0.59383 0.87517 0.0
O299 O 0.82787 0.66538 0.92526 0.0
H300 H 0.81546 0.67824 0.84349 0.0
H301 H 0.81963 0.59995 0.83496 0.0
C302 C 0.77831 0.61363 0.92257 0.0
C303 C 0.77544 0.60532 0.94466 0.0
C304 C 0.75046 0.59479 0.95369 0.0
C305 C 0.72789 0.59292 0.94099 0.0
C306 C 0.73071 0.60085 0.91865 0.0
C307 C 0.75577 0.61125 0.90957 0.0
C308 C 0.83104 0.61478 0.92192 0.0
C309 C 0.85936 0.63181 0.92716 0.0
C310 C 0.87446 0.61934 0.93469 0.0
C311 C 0.86148 0.58952 0.937 0.0
C312 C 0.83316 0.57237 0.93104 0.0
C313 C 0.81811 0.58487 0.92339 0.0
C314 C 0.81144 0.63276 0.8825 0.0
C315 C 0.81101 0.65586 0.87305 0.0
C316 C 0.81448 0.65938 0.85004 0.0
C317 C 0.81843 0.63981 0.83609 0.0
C318 C 0.81716 0.61569 0.84536 0.0
C319 C 0.81355 0.61213 0.86835 0.0
P320 P 0.47264 0.22925 0.88496 0.0
H321 H 0.49262 0.28792 0.87399 0.0
H322 H 0.4988 0.33164 0.89535 0.0
H323 H 0.46263 0.28279 0.9515 0.0
H324 H 0.45625 0.23889 0.92987 0.0
H325 H 0.51441 0.21907 0.90517 0.0
H326 H 0.51324 0.18389 0.92953 0.0
H327 H 0.42643 0.14796 0.93148 0.0
H328 H 0.42771 0.18278 0.90588 0.0
H329 H 0.42448 0.2351 0.87437 0.0
H330 H 0.46049 0.18757 0.84591 0.0
O331 O 0.50137 0.24129 0.8724 0.0
H332 H 0.39161 0.21834 0.84059 0.0
H333 H 0.42806 0.17117 0.81185 0.0
C334 C 0.47458 0.26034 0.90053 0.0
C335 C 0.48594 0.28657 0.89087 0.0
C336 C 0.48952 0.31155 0.90312 0.0
C337 C 0.48162 0.31075 0.92527 0.0
C338 C 0.46895 0.28407 0.9345 0.0
C339 C 0.46546 0.25901 0.9222 0.0
C340 C 0.47108 0.20324 0.90346 0.0
C341 C 0.49507 0.20356 0.91071 0.0
C342 C 0.4944 0.18357 0.92496 0.0
C343 C 0.46976 0.16311 0.93272 0.0
C344 C 0.44572 0.16316 0.92566 0.0
C345 C 0.4464 0.18308 0.91111 0.0
C346 C 0.44515 0.2129 0.86245 0.0
C347 C 0.42514 0.2208 0.86097 0.0
C348 C 0.40643 0.21131 0.84157 0.0
C349 C 0.40747 0.19378 0.82333 0.0
C350 C 0.42657 0.18451 0.82558 0.0
C351 C 0.44521 0.19398 0.845 0.0
P352 P 0.82387 0.18265 0.9184 0.0
H353 H 0.87554 0.21263 0.94759 0.0
H354 H 0.90413 0.2625 0.96432 0.0
H355 H 0.84599 0.28364 0.93426 0.0
H356 H 0.81874 0.23405 0.91607 0.0
H357 H 0.77685 0.12534 0.90576 0.0
H358 H 0.7299 0.10159 0.91556 0.0
H359 H 0.74802 0.17998 0.95669 0.0
H360 H 0.79499 0.20267 0.94808 0.0
H361 H 0.86563 0.18978 0.88934 0.0
H362 H 0.78433 0.17659 0.88094 0.0
O363 O 0.83711 0.163 0.92742 0.0
H364 H 0.86756 0.18956 0.84827 0.0
H365 H 0.7855 0.17491 0.83973 0.0
C366 C 0.84474 0.21954 0.93099 0.0
C367 C 0.86898 0.22802 0.94457 0.0
C368 C 0.88522 0.25663 0.95436 0.0
C369 C 0.87734 0.27731 0.95104 0.0
C370 C 0.85306 0.26863 0.93709 0.0
C371 C 0.83721 0.24015 0.92684 0.0
C372 C 0.78936 0.16593 0.92581 0.0
C373 C 0.77064 0.13733 0.91692 0.0
C374 C 0.74373 0.12389 0.92238 0.0
C375 C 0.73504 0.13891 0.93682 0.0
C376 C 0.75399 0.1676 0.94573 0.0
C377 C 0.78095 0.18084 0.9405 0.0
C378 C 0.82462 0.18244 0.8881 0.0
C379 C 0.84806 0.18646 0.87859 0.0
C380 C 0.84903 0.18614 0.85508 0.0
C381 C 0.82649 0.18171 0.8406 0.0
C382 C 0.80324 0.17843 0.85033 0.0
C383 C 0.80242 0.17906 0.87392 0.0
P384 P 0.6148 0.8227 0.08947 0.0
H385 H 0.61438 0.80047 0.04329 0.0
H386 H 0.59518 0.75142 0.0243 0.0
H387 H 0.56051 0.71635 0.08586 0.0
H388 H 0.57891 0.76539 0.10435 0.0
H389 H 0.63293 0.88007 0.07532 0.0
H390 H 0.60853 0.90389 0.06218 0.0
H391 H 0.53187 0.82804 0.07118 0.0
H392 H 0.55661 0.80413 0.0844 0.0
H393 H 0.64406 0.80403 0.11875 0.0
H394 H 0.59216 0.84051 0.12696 0.0
O395 O 0.64635 0.84077 0.08172 0.0
H396 H 0.64916 0.80318 0.15986 0.0
H397 H 0.59679 0.83927 0.16815 0.0
C398 C 0.59863 0.78651 0.07535 0.0
C399 C 0.60248 0.78217 0.0526 0.0
C400 C 0.5916 0.75413 0.04182 0.0
C401 C 0.57661 0.72992 0.05364 0.0
C402 C 0.57181 0.73446 0.07619 0.0
C403 C 0.58259 0.76254 0.0869 0.0
C404 C 0.59651 0.8402 0.08045 0.0
C405 C 0.61088 0.86846 0.07439 0.0
C406 C 0.59691 0.88202 0.06682 0.0
C407 C 0.56829 0.86765 0.06537 0.0
C408 C 0.55393 0.83957 0.0721 0.0
C409 C 0.56799 0.82589 0.07953 0.0
C410 C 0.6178 0.82233 0.11983 0.0
C411 C 0.63369 0.81176 0.12944 0.0
C412 C 0.63639 0.81108 0.15291 0.0
C413 C 0.62322 0.82099 0.16726 0.0
C414 C 0.60732 0.83167 0.15756 0.0
C415 C 0.60457 0.83227 0.13398 0.0
P416 P 0.23264 0.7866 0.11793 0.0
H417 H 0.23333 0.75261 0.07847 0.0
H418 H 0.19793 0.7165 0.05018 0.0
H419 H 0.13853 0.73277 0.07993 0.0
H420 H 0.17483 0.77119 0.10652 0.0
H421 H 0.29129 0.8213 0.13019 0.0
H422 H 0.32833 0.85758 0.11106 0.0
H423 H 0.26945 0.8546 0.05995 0.0
H424 H 0.23241 0.81824 0.07924 0.0
H425 H 0.18393 0.75577 0.14149 0.0
H426 H 0.25674 0.83996 0.14943 0.0
O427 O 0.24597 0.76732 0.12762 0.0
H428 H 0.16919 0.76825 0.17574 0.0
H429 H 0.24396 0.8515 0.18544 0.0
C430 C 0.20644 0.76338 0.09543 0.0
C431 C 0.21273 0.74867 0.07868 0.0
C432 C 0.19235 0.72782 0.0626 0.0
C433 C 0.165 0.72063 0.06334 0.0
C434 C 0.15921 0.73731 0.07895 0.0
C435 C 0.17992 0.75893 0.0946 0.0
C436 C 0.2592 0.81674 0.10588 0.0
C437 C 0.28634 0.82875 0.11504 0.0
C438 C 0.30748 0.84958 0.10415 0.0
C439 C 0.30178 0.85869 0.08386 0.0
C440 C 0.27444 0.84763 0.07536 0.0
C441 C 0.25328 0.82695 0.08641 0.0
C442 C 0.22074 0.79744 0.14215 0.0
C443 C 0.19656 0.77724 0.15039 0.0
C444 C 0.18854 0.78419 0.17055 0.0
C445 C 0.20541 0.81092 0.18383 0.0
C446 C 0.22997 0.83098 0.17563 0.0
C447 C 0.23745 0.82435 0.15495 0.0
P448 P 0.19544 0.36126 0.09873 0.0
H449 H 0.14027 0.33427 0.07605 0.0
H450 H 0.11088 0.35332 0.06453 0.0
H451 H 0.17412 0.43942 0.09171 0.0
H452 H 0.20329 0.42005 0.10395 0.0
H453 H 0.24326 0.35809 0.11354 0.0
H454 H 0.29023 0.38303 0.10415 0.0
H455 H 0.27218 0.43602 0.0626 0.0
H456 H 0.22492 0.40966 0.07094 0.0
H457 H 0.15241 0.31669 0.1211 0.0
H458 H 0.22996 0.39418 0.14132 0.0
O459 O 0.18339 0.32899 0.08389 0.0
H460 H 0.14651 0.30813 0.16097 0.0
H461 H 0.22433 0.38543 0.18137 0.0
C462 C 0.17436 0.37594 0.09007 0.0
C463 C 0.14793 0.35728 0.07946 0.0
C464 C 0.13105 0.36811 0.07304 0.0
C465 C 0.14037 0.39785 0.07705 0.0
C466 C 0.16664 0.41646 0.08817 0.0
C467 C 0.18332 0.40546 0.09503 0.0
C468 C 0.23073 0.38263 0.09361 0.0
C469 C 0.24955 0.3754 0.10268 0.0
C470 C 0.27651 0.38982 0.09735 0.0
C471 C 0.28523 0.4118 0.08272 0.0
C472 C 0.26625 0.41908 0.07377 0.0
C473 C 0.23918 0.40432 0.07887 0.0
C474 C 0.19189 0.35563 0.12825 0.0
C475 C 0.16826 0.33175 0.13413 0.0
C476 C 0.16485 0.32697 0.15691 0.0
C477 C 0.18505 0.34605 0.17423 0.0
C478 C 0.20864 0.3702 0.16832 0.0
C479 C 0.21186 0.37517 0.14546 0.0
P480 P 0.47274 0.96782 0.24416 0.0
H481 H 0.44697 0.97533 0.28291 0.0
H482 H 0.40045 0.94939 0.29337 0.0
H483 H 0.3762 0.88926 0.23278 0.0
H484 H 0.42315 0.91544 0.22239 0.0
H485 H 0.52098 0.99094 0.27712 0.0
H486 H 0.54667 0.96983 0.29295 0.0
H487 H 0.49196 0.8886 0.25234 0.0
H488 H 0.46661 0.91026 0.23612 0.0
H489 H 0.4355 0.96637 0.20694 0.0
H490 H 0.51567 0.97665 0.21558 0.0
O491 O 0.4866 0.00185 0.25616 0.0
H492 H 0.4408 0.97489 0.16709 0.0
H493 H 0.52192 0.98698 0.17629 0.0
C494 C 0.43831 0.94779 0.25157 0.0
C495 C 0.43167 0.95663 0.27181 0.0
C496 C 0.4051 0.94163 0.27787 0.0
C497 C 0.38464 0.91736 0.26383 0.0
C498 C 0.39148 0.90812 0.24375 0.0
C499 C 0.41824 0.92304 0.23782 0.0
C500 C 0.4918 0.9521 0.25553 0.0
C501 C 0.51448 0.9686 0.27157 0.0
C502 C 0.52909 0.95642 0.28073 0.0
C503 C 0.52129 0.92743 0.27405 0.0
C504 C 0.49867 0.91104 0.25772 0.0
C505 C 0.48405 0.92331 0.24854 0.0
C506 C 0.4748 0.96982 0.21404 0.0
C507 C 0.45403 0.96985 0.20014 0.0
C508 C 0.45731 0.97524 0.17739 0.0
C509 C 0.48179 0.9816 0.16828 0.0
C510 C 0.50249 0.98144 0.18238 0.0
C511 C 0.499 0.97561 0.20498 0.0
P512 P 0.10682 0.53985 0.23622 0.0
H513 H 0.13589 0.57035 0.27995 0.0
H514 H 0.13684 0.60949 0.30404 0.0
H515 H 0.0721 0.60458 0.25868 0.0
H516 H 0.07034 0.56427 0.23522 0.0
H517 H 0.09536 0.48503 0.21294 0.0
H518 H 0.0949 0.4431 0.22678 0.0
H519 H 0.10093 0.47835 0.29599 0.0
H520 H 0.09963 0.51941 0.28196 0.0
H521 H 0.12471 0.57332 0.19771 0.0
H522 H 0.05217 0.49745 0.21341 0.0
O523 O 0.14012 0.5553 0.23356 0.0
H524 H 0.10534 0.56503 0.15831 0.0
H525 H 0.0327 0.48863 0.17363 0.0
C526 C 0.1031 0.56443 0.2558 0.0
C527 C 0.12134 0.5771 0.27554 0.0
C528 C 0.12205 0.5997 0.28918 0.0
C529 C 0.10489 0.61053 0.28307 0.0
C530 C 0.0855 0.59666 0.26394 0.0
C531 C 0.08459 0.57371 0.25041 0.0
C532 C 0.09742 0.50543 0.24634 0.0
C533 C 0.09534 0.48319 0.23105 0.0
C534 C 0.09546 0.45935 0.23902 0.0
C535 C 0.09852 0.4577 0.26252 0.0
C536 C 0.09849 0.47889 0.27778 0.0
C537 C 0.09795 0.5026 0.26973 0.0
C538 C 0.09021 0.5355 0.20825 0.0
C539 C 0.10454 0.55488 0.19267 0.0
C540 C 0.0935 0.55003 0.17012 0.0
C541 C 0.06778 0.52576 0.16274 0.0
C542 C 0.05263 0.5074 0.17879 0.0
C543 C 0.06376 0.51234 0.20146 0.0
P544 P 0.46399 0.50485 0.24434 0.0
H545 H 0.47219 0.53354 0.28975 0.0
H546 H 0.49385 0.58448 0.30501 0.0
H547 H 0.50746 0.60951 0.23688 0.0
H548 H 0.48517 0.55862 0.22176 0.0
H549 H 0.43623 0.44827 0.26145 0.0
H550 H 0.39221 0.4211 0.27649 0.0
H551 H 0.37277 0.48643 0.25984 0.0
H552 H 0.41705 0.51361 0.24474 0.0
H553 H 0.50947 0.51548 0.21904 0.0
H554 H 0.42398 0.48541 0.20349 0.0
O555 O 0.48386 0.4945 0.2576 0.0
H556 H 0.51458 0.51174 0.17858 0.0
H557 H 0.42901 0.48185 0.16262 0.0
C558 C 0.47723 0.54228 0.25468 0.0
C559 C 0.47955 0.55002 0.2781 0.0
C560 C 0.49209 0.57915 0.2868 0.0
C561 C 0.50263 0.60113 0.2722 0.0
C562 C 0.49937 0.59316 0.2486 0.0
C563 C 0.48677 0.56399 0.23992 0.0
C564 C 0.43003 0.48316 0.25233 0.0
C565 C 0.42245 0.45668 0.26087 0.0
C566 C 0.39733 0.44122 0.26956 0.0
C567 C 0.3792 0.45184 0.26964 0.0
C568 C 0.38631 0.4777 0.25999 0.0
C569 C 0.41159 0.49327 0.25142 0.0
C570 C 0.46632 0.50039 0.21427 0.0
C571 C 0.49173 0.50787 0.20687 0.0
C572 C 0.49466 0.50595 0.18371 0.0
C573 C 0.47222 0.49663 0.16737 0.0
C574 C 0.44661 0.48887 0.17482 0.0
C575 C 0.44373 0.49096 0.19814 0.0
Tb576 Tb 0.54487 0.03701 0.00548 0.0
C577 C 0.52422 0.97279 0.01364 0.0
Tb578 Tb 0.48446 0.99881 0.01368 0.0
O579 O 0.55729 0.03371 0.04013 0.0
O580 O 0.52042 0.03236 0.03234 0.0
O581 O 0.54213 0.99516 0.00367 0.0
C582 C 0.43966 0.96875 0.03438 0.0
O583 O 0.50174 0.97105 0.02084 0.0
C584 C 0.49409 0.00346 0.97104 0.0
C585 C 0.50453 0.06205 0.00178 0.0
O586 O 0.4433 0.96152 0.01405 0.0
O587 O 0.46111 0.99279 0.04287 0.0
O588 O 0.4709 0.99802 0.97809 0.0
O589 O 0.50903 0.00282 0.98721 0.0
O590 O 0.485 0.03927 0.01025 0.0
O591 O 0.52828 0.06468 0.99748 0.0
C592 C 0.59335 0.07046 0.99084 0.0
O593 O 0.58675 0.07342 0.01103 0.0
O594 O 0.57255 0.04882 0.97877 0.0
C595 C 0.53495 0.0298 0.04786 0.0
Tb596 Tb 0.99348 0.51473 0.99476 0.0
C597 C 0.0565 0.55979 0.00952 0.0
Tb598 Tb 0.03354 0.49256 0.002 0.0
O599 O 0.97798 0.50215 0.02786 0.0
O600 O 0.01735 0.51273 0.02245 0.0
O601 O 0.03293 0.55592 1.00007 0.0
C602 C 0.06347 0.47073 0.01823 0.0
O603 O 0.05939 0.53778 0.015 0.0
C604 C 0.02746 0.50523 0.96066 0.0
C605 C 0.97107 0.44735 0.98753 0.0
O606 O 0.06944 0.48767 0.0022 0.0
O607 O 0.0403 0.46562 0.02499 0.0
O608 O 0.04907 0.50533 0.969 0.0
O609 O 0.00972 0.49467 0.97428 0.0
O610 O 0.99443 0.45179 0.99777 0.0
O611 O 0.96772 0.46901 0.98161 0.0
C612 C 0.96532 0.53802 0.97759 0.0
O613 O 0.95847 0.52135 0.99386 0.0
O614 O 0.98822 0.54185 0.97114 0.0
C615 C 0.99971 0.5024 0.03619 0.0
Tb616 Tb 0.47263 0.49315 0.00893 0.0
C617 C 0.49207 0.44967 0.99414 0.0
Tb618 Tb 0.53285 0.51841 0.00058 0.0
O619 O 0.4608 0.47836 0.97263 0.0
O620 O 0.4979 0.51558 0.98376 0.0
O621 O 0.47269 0.45252 0.00345 0.0
C622 C 0.57876 0.53337 0.98103 0.0
O623 O 0.51615 0.47218 0.99113 0.0
C624 C 0.52308 0.51339 0.04322 0.0
C625 C 0.51323 0.56138 0.01452 0.0
O626 O 0.5542 0.51774 0.97104 0.0
O627 O 0.5775 0.54053 0.00209 0.0
O628 O 0.54637 0.53194 0.03671 0.0
O629 O 0.50779 0.4964 0.0262 0.0
O630 O 0.53019 0.55749 0.00223 0.0
O631 O 0.49101 0.53928 0.02108 0.0
C632 C 0.42467 0.47745 0.0248 0.0
O633 O 0.43151 0.48689 0.00522 0.0
O634 O 0.44488 0.47691 0.03555 0.0
C635 C 0.48355 0.49859 0.96651 0.0
Tb636 Tb 0.18398 0.3398 0.33053 0.0
C637 C 0.17316 0.27863 0.34325 0.0
Tb638 Tb 0.12528 0.29292 0.33823 0.0
O639 O 0.18704 0.36627 0.36191 0.0
O640 O 0.16203 0.32168 0.35839 0.0
O641 O 0.19038 0.30364 0.3357 0.0
C642 C 0.08001 0.25484 0.3549 0.0
O643 O 0.14746 0.27061 0.34636 0.0
C644 C 0.13442 0.29997 0.29558 0.0
C645 C 0.1363 0.35309 0.32512 0.0
O646 O 0.09093 0.24898 0.33818 0.0
O647 O 0.09467 0.28218 0.36232 0.0
O648 O 0.11056 0.29015 0.30277 0.0
O649 O 0.15108 0.30243 0.31175 0.0
O650 O 0.12167 0.33164 0.3374 0.0
O651 O 0.15978 0.35786 0.31818 0.0
C652 C 0.23075 0.37122 0.31252 0.0
O653 O 0.2066 0.36298 0.30291 0.0
O654 O 0.22866 0.36199 0.33251 0.0
C655 C 0.16849 0.34432 0.37099 0.0
Tb656 Tb 0.63268 0.82758 0.32915 0.0
C657 C 0.69637 0.8734 0.33886 0.0
Tb658 Tb 0.67328 0.8057 0.33784 0.0
O659 O 0.6167 0.81415 0.36221 0.0
O660 O 0.65638 0.82603 0.3569 0.0
O661 O 0.67149 0.86886 0.3328 0.0
C662 C 0.70698 0.79096 0.35779 0.0
O663 O 0.70155 0.85224 0.34232 0.0
C664 C 0.65505 0.80067 0.29525 0.0
C665 C 0.61065 0.76094 0.32835 0.0
O666 O 0.71122 0.80438 0.33958 0.0
O667 O 0.6839 0.78598 0.36465 0.0
O668 O 0.66341 0.78409 0.30315 0.0
O669 O 0.65994 0.8206 0.3105 0.0
O670 O 0.63385 0.76725 0.34006 0.0
O671 O 0.6068 0.78104 0.31976 0.0
C672 C 0.60372 0.8493 0.3108 0.0
O673 O 0.6149 0.85559 0.33168 0.0
O674 O 0.60881 0.83076 0.30033 0.0
C675 C 0.63908 0.81595 0.37089 0.0
Tb676 Tb 0.13778 0.81751 0.34524 0.0
C677 C 0.15674 0.77287 0.33381 0.0
Tb678 Tb 0.19791 0.84113 0.33696 0.0
O679 O 0.12431 0.79805 0.31001 0.0
O680 O 0.16237 0.83546 0.31867 0.0
O681 O 0.138 0.77689 0.34312 0.0
C682 C 0.24554 0.85465 0.32134 0.0
O683 O 0.18022 0.79453 0.32866 0.0
C684 C 0.18721 0.8411 0.3794 0.0
C685 C 0.17867 0.88572 0.3451 0.0
O686 O 0.23977 0.84983 0.34206 0.0
O687 O 0.22442 0.85185 0.30929 0.0
O688 O 0.20981 0.86063 0.37249 0.0
O689 O 0.17299 0.82217 0.36314 0.0
O690 O 0.19656 0.88055 0.33558 0.0
O691 O 0.15581 0.86486 0.35206 0.0
C692 C 0.09259 0.80417 0.36509 0.0
O693 O 0.11488 0.80722 0.37503 0.0
O694 O 0.09568 0.80863 0.34387 0.0
C695 C 0.14725 0.81632 0.3027 0.0
Tb696 Tb 0.86856 0.69793 0.67173 0.0
C697 C 0.85065 0.63581 0.6841 0.0
Tb698 Tb 0.8075 0.65673 0.67528 0.0
O699 O 0.87774 0.6982 0.70811 0.0
O700 O 0.8402 0.69252 0.69539 0.0
O701 O 0.86939 0.65835 0.67484 0.0
C702 C 0.75946 0.62108 0.6897 0.0
O703 O 0.82636 0.63235 0.68763 0.0
C704 C 0.82255 0.662 0.63421 0.0
C705 C 0.82542 0.71884 0.66211 0.0
O706 O 0.76881 0.61561 0.6717 0.0
O707 O 0.77708 0.64672 0.69949 0.0
O708 O 0.7984 0.65624 0.63883 0.0
O709 O 0.83587 0.66188 0.65186 0.0
O710 O 0.80591 0.6957 0.67027 0.0
O711 O 0.85027 0.72296 0.66018 0.0
C712 C 0.91712 0.73282 0.65762 0.0
O713 O 0.9101 0.73507 0.67779 0.0
O714 O 0.89678 0.7109 0.64534 0.0
C715 C 0.85366 0.69234 0.71296 0.0
Tb716 Tb 0.31671 0.18962 0.66222 0.0
C717 C 0.37923 0.23188 0.67597 0.0
Tb718 Tb 0.3532 0.16339 0.67157 0.0
O719 O 0.32365 0.20807 0.69751 0.0
O720 O 0.32551 0.1706 0.68928 0.0
O721 O 0.3563 0.22945 0.66664 0.0
C722 C 0.38817 0.14745 0.68714 0.0
O723 O 0.38169 0.20941 0.68078 0.0
C724 C 0.33977 0.1643 0.62874 0.0
C725 C 0.29101 0.12088 0.65977 0.0
O726 O 0.38692 0.15558 0.66718 0.0
O727 O 0.36967 0.14829 0.69848 0.0
O728 O 0.34407 0.1445 0.6361 0.0
O729 O 0.34506 0.18337 0.64489 0.0
O730 O 0.31375 0.12459 0.67062 0.0
O731 O 0.28868 0.14287 0.65303 0.0
C732 C 0.28476 0.2067 0.64203 0.0
O733 O 0.28107 0.19534 0.66117 0.0
O734 O 0.3063 0.20831 0.63434 0.0
C735 C 0.3299 0.18973 0.70519 0.0
Tb736 Tb 0.80513 0.16106 0.67827 0.0
C737 C 0.82133 0.11248 0.6671 0.0
Tb738 Tb 0.86397 0.17902 0.66836 0.0
O739 O 0.7948 0.16745 0.64325 0.0
O740 O 0.82496 0.15766 0.65049 0.0
O741 O 0.80368 0.119 0.67581 0.0
C742 C 0.91005 0.20037 0.64817 0.0
O743 O 0.84471 0.13237 0.66024 0.0
C744 C 0.85389 0.17161 0.71068 0.0
C745 C 0.84831 0.22751 0.67975 0.0
O746 O 0.90626 0.18896 0.66729 0.0
O747 O 0.88801 0.19987 0.64056 0.0
O748 O 0.87298 0.16893 0.7018 0.0
O749 O 0.84414 0.18172 0.69683 0.0
O750 O 0.865 0.22046 0.67008 0.0
O751 O 0.82541 0.20792 0.68744 0.0
C752 C 0.75916 0.14084 0.69846 0.0
O753 O 0.76579 0.158 0.68251 0.0
O754 O 0.77834 0.13497 0.70297 0.0
C755 C 0.81463 0.16536 0.63525 0.0
H756 H 0.34902 0.9077 0.10042 0.0
H757 H 0.30528 0.85293 0.03829 0.0
H758 H 0.34388 0.88247 0.01728 0.0
H759 H 0.39098 0.92263 0.01689 0.0
H760 H 0.43449 0.97755 0.07898 0.0
H761 H 0.39528 0.94907 0.09974 0.0
C762 C 0.34796 0.90229 0.08227 0.0
C763 C 0.32437 0.87816 0.07094 0.0
C764 C 0.37027 0.91926 0.07033 0.0
C765 C 0.32311 0.8716 0.04736 0.0
C766 C 0.34525 0.88834 0.03537 0.0
C767 C 0.39176 0.92834 0.03494 0.0
C768 C 0.41552 0.95197 0.04646 0.0
C769 C 0.36905 0.91201 0.04672 0.0
C770 C 0.41635 0.95938 0.06979 0.0
C771 C 0.39396 0.94311 0.08166 0.0
H772 H 0.15347 0.44117 0.0504 0.0
H773 H 0.08792 0.37968 0.08546 0.0
H774 H 0.05827 0.39721 0.07086 0.0
H775 H 0.0508 0.42956 0.04736 0.0
H776 H 0.11582 0.489 0.01063 0.0
H777 H 0.14586 0.47287 0.02658 0.0
C778 C 0.13276 0.43186 0.05498 0.0
C779 C 0.12288 0.40936 0.06906 0.0
C780 C 0.11572 0.44159 0.04611 0.0
C781 C 0.09589 0.39704 0.07461 0.0
C782 C 0.07898 0.40705 0.06627 0.0
C783 C 0.07155 0.43892 0.0429 0.0
C784 C 0.08113 0.46039 0.02786 0.0
C785 C 0.08861 0.42919 0.05187 0.0
C786 C 0.10799 0.47233 0.02211 0.0
C787 C 0.1252 0.46318 0.03126 0.0
H788 H 0.52823 0.68037 0.05658 0.0
H789 H 0.60439 0.71252 0.02686 0.0
H790 H 0.59064 0.66358 0.0109 0.0
H791 H 0.55832 0.6115 0.00712 0.0
H792 H 0.48289 0.5787 0.03811 0.0
H793 H 0.49522 0.62803 0.05198 0.0
C794 C 0.54186 0.67667 0.04667 0.0
C795 C 0.56731 0.70017 0.04295 0.0
C796 C 0.53405 0.64833 0.03785 0.0
C797 C 0.58452 0.69497 0.02974 0.0
C798 C 0.57677 0.66692 0.02074 0.0
C799 C 0.54441 0.61506 0.01675 0.0
C800 C 0.51973 0.59134 0.02158 0.0
C801 C 0.55174 0.64342 0.0249 0.0
C802 C 0.50205 0.5965 0.03414 0.0
C803 C 0.50909 0.62473 0.04213 0.0
H804 H 0.88522 0.32718 0.93434 0.0
H805 H 0.90824 0.29641 0.99252 0.0
H806 H 0.93889 0.3461 0.00898 0.0
H807 H 0.96045 0.39848 0.00637 0.0
H808 H 0.93444 0.42904 0.94996 0.0
H809 H 0.9029 0.37915 0.93378 0.0
C810 C 0.8964 0.33112 0.95085 0.0
C811 C 0.89457 0.30777 0.96186 0.0
C812 C 0.91341 0.3598 0.96066 0.0
C813 C 0.90973 0.31375 0.98316 0.0
C814 C 0.92712 0.34224 0.99278 0.0
C815 C 0.94767 0.39415 0.99065 0.0
C816 C 0.94984 0.41733 0.97931 0.0
C817 C 0.92938 0.36543 0.98155 0.0
C818 C 0.93301 0.41152 0.95907 0.0
C819 C 0.9151 0.38301 0.94973 0.0
H820 H 0.67535 0.55817 0.92146 0.0
H821 H 0.72237 0.60836 0.98435 0.0
H822 H 0.68061 0.59395 0.00226 0.0
H823 H 0.63068 0.5674 1.00022 0.0
H824 H 0.58321 0.51826 0.93732 0.0
H825 H 0.62508 0.5322 0.91921 0.0
C826 C 0.67645 0.56613 0.93903 0.0
C827 C 0.70207 0.58413 0.95155 0.0
C828 C 0.65225 0.55799 0.94924 0.0
C829 C 0.70303 0.59401 0.97439 0.0
C830 C 0.67913 0.58596 0.98464 0.0
C831 C 0.62954 0.55975 0.98256 0.0
C832 C 0.604 0.54181 0.97013 0.0
C833 C 0.65364 0.56794 0.97227 0.0
C834 C 0.60272 0.53208 0.94724 0.0
C835 C 0.62664 0.54005 0.93688 0.0
H836 H 0.50819 0.17148 0.96664 0.0
H837 H 0.4305 0.10572 0.93201 0.0
H838 H 0.43258 0.06918 0.95321 0.0
H839 H 0.45904 0.05489 0.97827 0.0
H840 H 0.53899 0.11998 0.00905 0.0
H841 H 0.53365 0.15774 0.99255 0.0
C842 C 0.49171 0.14915 0.96361 0.0
C843 C 0.4694 0.14142 0.94747 0.0
C844 C 0.49355 0.12806 0.97515 0.0
C845 C 0.44787 0.11246 0.94438 0.0
C846 C 0.44915 0.09144 0.95638 0.0
C847 C 0.47494 0.07746 0.98176 0.0
C848 C 0.49926 0.08485 0.99497 0.0
C849 C 0.47219 0.09886 0.97138 0.0
C850 C 0.52007 0.11396 0.99898 0.0
C851 C 0.51706 0.13548 0.98949 0.0
H852 H 0.7178 0.14431 0.97785 0.0
H853 H 0.688 0.10107 0.90962 0.0
H854 H 0.64143 0.07639 0.9202 0.0
H855 H 0.60919 0.06651 0.94908 0.0
H856 H 0.63911 0.1115 0.01667 0.0
H857 H 0.6856 0.13677 0.00586 0.0
C858 C 0.70114 0.12991 0.96512 0.0
C859 C 0.70653 0.12455 0.94298 0.0
C860 C 0.67439 0.1162 0.97118 0.0
C861 C 0.68459 0.10526 0.92691 0.0
C862 C 0.6579 0.09129 0.93288 0.0
C863 C 0.62591 0.08202 0.96134 0.0
C864 C 0.62088 0.08714 0.98362 0.0
C865 C 0.65258 0.09648 0.955 0.0
C866 C 0.64258 0.10727 0.9994 0.0
C867 C 0.66914 0.12164 0.99326 0.0
H868 H 0.91116 0.59925 0.92628 0.0
H869 H 0.84742 0.55081 0.96855 0.0
H870 H 0.87384 0.53057 0.98476 0.0
H871 H 0.91547 0.52732 0.98751 0.0
H872 H 0.97911 0.57536 0.94513 0.0
H873 H 0.95251 0.59534 0.92856 0.0
C874 C 0.90312 0.58437 0.93912 0.0
C875 C 0.87735 0.57659 0.9462 0.0
C876 C 0.91847 0.57286 0.94842 0.0
C877 C 0.86705 0.55692 0.9626 0.0
C878 C 0.88222 0.54548 0.97199 0.0
C879 C 0.92349 0.5422 0.97467 0.0
C880 C 0.94924 0.55003 0.96763 0.0
C881 C 0.908 0.55339 0.96511 0.0
C882 C 0.95936 0.56913 0.95087 0.0
C883 C 0.94416 0.58052 0.94139 0.0
H884 H 0.44843 0.3208 0.95154 0.0
H885 H 0.5293 0.36201 0.92965 0.0
H886 H 0.54 0.40787 0.9502 0.0
H887 H 0.52611 0.4367 0.97284 0.0
H888 H 0.44513 0.39695 0.99456 0.0
H889 H 0.43496 0.34998 0.97596 0.0
C890 C 0.46845 0.33979 0.95149 0.0
C891 C 0.48793 0.33806 0.93885 0.0
C892 C 0.47449 0.36631 0.96333 0.0
C893 C 0.51377 0.36287 0.93886 0.0
C894 C 0.51997 0.38908 0.95072 0.0
C895 C 0.50626 0.4178 0.97379 0.0
C896 C 0.48644 0.42048 0.98515 0.0
C897 C 0.50042 0.39112 0.96277 0.0
C898 C 0.46085 0.39559 0.98602 0.0
C899 C 0.45497 0.36872 0.9753 0.0
H900 H 0.16393 0.67014 0.05296 0.0
H901 H 0.11519 0.71043 0.04365 0.0
H902 H 0.07735 0.6645 0.02499 0.0
H903 H 0.05739 0.61182 0.01323 0.0
H904 H 0.10845 0.57399 0.02198 0.0
H905 H 0.14632 0.62042 0.03819 0.0
C906 C 0.14544 0.6694 0.04629 0.0
C907 C 0.14265 0.69396 0.04974 0.0
C908 C 0.12402 0.64321 0.03545 0.0
C909 C 0.11794 0.69187 0.04155 0.0
C910 C 0.09629 0.66561 0.03076 0.0
C911 C 0.07691 0.61389 0.01841 0.0
C912 C 0.07984 0.58926 0.01667 0.0
C913 C 0.09895 0.64095 0.02792 0.0
C914 C 0.10535 0.59237 0.0234 0.0
C915 C 0.12714 0.61898 0.0327 0.0
H916 H 0.30182 0.42883 0.04125 0.0
H917 H 0.33267 0.42653 0.10895 0.0
H918 H 0.37849 0.44653 0.09707 0.0
H919 H 0.40975 0.4637 0.06709 0.0
H920 H 0.37899 0.46842 1.0002 0.0
H921 H 0.3333 0.44909 0.01231 0.0
C922 C 0.31856 0.4332 0.05361 0.0
C923 C 0.31357 0.42594 0.07596 0.0
C924 C 0.34495 0.44517 0.0468 0.0
C925 C 0.33567 0.43133 0.09151 0.0
C926 C 0.36197 0.44296 0.08478 0.0
C927 C 0.39301 0.46059 0.05525 0.0
C928 C 0.39759 0.46726 0.03277 0.0
C929 C 0.36681 0.4497 0.0624 0.0
C930 C 0.37589 0.46338 0.01759 0.0
C931 C 0.34977 0.45229 0.02449 0.0
H932 H 0.57702 0.89575 0.02777 0.0
H933 H 0.52711 0.87203 0.08354 0.0
H934 H 0.50668 0.9003 0.07102 0.0
H935 H 0.50623 0.93533 0.04609 0.0
H936 H 0.55769 0.95983 0.99121 0.0
H937 H 0.57421 0.92762 0.00146 0.0
C938 C 0.5616 0.89672 0.03714 0.0
C939 C 0.55382 0.88219 0.05668 0.0
C940 C 0.55028 0.91321 0.03002 0.0
C941 C 0.53341 0.88305 0.06841 0.0
C942 C 0.52184 0.89931 0.06132 0.0
C943 C 0.52065 0.93316 0.03613 0.0
C944 C 0.53084 0.95007 0.018 0.0
C945 C 0.53051 0.91495 0.04239 0.0
C946 C 0.54971 0.94725 0.00537 0.0
C947 C 0.5592 0.92885 0.01122 0.0
H948 H 0.97225 0.15016 0.38233 0.0
H949 H 0.97539 0.21856 0.42738 0.0
H950 H 0.01696 0.25411 0.41232 0.0
H951 H 0.05326 0.26552 0.38714 0.0
H952 H 0.04998 0.19697 0.34223 0.0
H953 H 0.00785 0.16162 0.35669 0.0
C954 C 0.98208 0.17285 0.38889 0.0
C955 C 0.97079 0.18169 0.40598 0.0
C956 C 0.00605 0.19309 0.38031 0.0
C957 C 0.98351 0.21123 0.41405 0.0
C958 C 0.00739 0.23154 0.40558 0.0
C959 C 0.04327 0.24283 0.38056 0.0
C960 C 0.05465 0.23375 0.36374 0.0
C961 C 0.01897 0.22268 0.38884 0.0
C962 C 0.04155 0.20439 0.35523 0.0
C963 C 0.01747 0.1842 0.36346 0.0
H964 H 0.76445 0.73458 0.41074 0.0
H965 H 0.82487 0.77759 0.36454 0.0
H966 H 0.79803 0.79749 0.34819 0.0
H967 H 0.75644 0.80124 0.3463 0.0
H968 H 0.69677 0.75882 0.39328 0.0
H969 H 0.72419 0.74007 0.41006 0.0
C970 C 0.77165 0.74823 0.39703 0.0
C971 C 0.7964 0.75441 0.38868 0.0
C972 C 0.75624 0.75966 0.38786 0.0
C973 C 0.80585 0.77259 0.37124 0.0
C974 C 0.79049 0.78388 0.36186 0.0
C975 C 0.74957 0.78799 0.36027 0.0
C976 C 0.72458 0.78121 0.36846 0.0
C977 C 0.76554 0.77737 0.36992 0.0
C978 C 0.71591 0.76421 0.38664 0.0
C979 C 0.73155 0.75345 0.39623 0.0
H980 H 0.23184 0.02081 0.35652 0.0
H981 H 0.17734 0.00122 0.40895 0.0
H982 H 0.15766 0.94934 0.3978 0.0
H983 H 0.15873 0.90963 0.37508 0.0
H984 H 0.21411 0.93042 0.32317 0.0
H985 H 0.23014 0.98171 0.33188 0.0
C986 C 0.21517 0.00528 0.36517 0.0
C987 C 0.20615 0.01495 0.38358 0.0
C988 C 0.20416 0.97563 0.35882 0.0
C989 C 0.18491 0.99438 0.39488 0.0
C990 C 0.17359 0.9647 0.38848 0.0
C991 C 0.17395 0.92537 0.36543 0.0
C992 C 0.18536 0.91621 0.34865 0.0
C993 C 0.18348 0.95506 0.37078 0.0
C994 C 0.20519 0.93688 0.33636 0.0
C995 C 0.21439 0.96626 0.34131 0.0
H996 H 0.53989 0.62513 0.30943 0.0
H997 H 0.50109 0.64709 0.25585 0.0
H998 H 0.52971 0.69848 0.26958 0.0
H999 H 0.56764 0.7373 0.29544 0.0
H1000 H 0.60661 0.71489 0.34863 0.0
H1001 H 0.57556 0.66354 0.3367 0.0
C1002 C 0.53727 0.64107 0.301 0.0
C1003 C 0.51838 0.6322 0.28159 0.0
C1004 C 0.55385 0.67055 0.30891 0.0
C1005 C 0.5157 0.6533 0.27064 0.0
C1006 C 0.53198 0.6827 0.27855 0.0
C1007 C 0.56905 0.7212 0.30468 0.0
C1008 C 0.5895 0.73 0.32288 0.0
C1009 C 0.5514 0.69161 0.29747 0.0
C1010 C 0.59117 0.70879 0.33449 0.0
C1011 C 0.57344 0.67937 0.32766 0.0
H1012 H 0.3683 0.90132 0.30523 0.0
H1013 H 0.3374 0.89963 0.23662 0.0
H1014 H 0.29112 0.87875 0.24802 0.0
H1015 H 0.25991 0.86379 0.27824 0.0
H1016 H 0.29146 0.86584 0.34675 0.0
H1017 H 0.337 0.88392 0.33471 0.0
C1018 C 0.35141 0.89635 0.29278 0.0
C1019 C 0.35628 0.90225 0.27018 0.0
C1020 C 0.32501 0.8846 0.29949 0.0
C1021 C 0.33415 0.89517 0.25411 0.0
C1022 C 0.30773 0.88342 0.26065 0.0
C1023 C 0.27677 0.86806 0.29045 0.0
C1024 C 0.27246 0.86373 0.31337 0.0
C1025 C 0.30298 0.87846 0.28339 0.0
C1026 C 0.29435 0.86912 0.32903 0.0
C1027 C 0.32039 0.87948 0.32217 0.0
H1028 H 0.08115 0.4262 0.29913 0.0
H1029 H 0.13337 0.44282 0.24506 0.0
H1030 H 0.14881 0.4116 0.25952 0.0
H1031 H 0.14918 0.38136 0.28792 0.0
H1032 H 0.0979 0.36374 0.34262 0.0
H1033 H 0.08055 0.39381 0.3276 0.0
C1034 C 0.09584 0.42288 0.29052 0.0
C1035 C 0.10583 0.43667 0.27087 0.0
C1036 C 0.10503 0.40503 0.29914 0.0
C1037 C 0.12479 0.43203 0.25986 0.0
C1038 C 0.13391 0.4144 0.26826 0.0
C1039 C 0.13436 0.38422 0.29675 0.0
C1040 C 0.1252 0.3708 0.31659 0.0
C1041 C 0.12443 0.40112 0.28797 0.0
C1042 C 0.10542 0.37408 0.3274 0.0
C1043 C 0.09552 0.39124 0.31881 0.0
H1044 H 0.32814 0.43897 0.25343 0.0
H1045 H 0.37295 0.43058 0.31079 0.0
H1046 H 0.33117 0.40537 0.32933 0.0
H1047 H 0.28176 0.38544 0.32925 0.0
H1048 H 0.23663 0.39278 0.27161 0.0
H1049 H 0.27856 0.41878 0.25327 0.0
C1050 C 0.32873 0.43175 0.27004 0.0
C1051 C 0.35358 0.43655 0.28068 0.0
C1052 C 0.30457 0.41711 0.28058 0.0
C1053 C 0.35401 0.42681 0.30211 0.0
C1054 C 0.33016 0.41253 0.31278 0.0
C1055 C 0.28118 0.39286 0.31272 0.0
C1056 C 0.25626 0.3874 0.30184 0.0
C1057 C 0.30531 0.4075 0.30218 0.0
C1058 C 0.25567 0.39689 0.28036 0.0
C1059 C 0.27961 0.41171 0.26985 0.0
H1060 H 0.53608 0.89132 0.25283 0.0
H1061 H 0.5409 0.93433 0.31858 0.0
H1062 H 0.56708 0.91438 0.33561 0.0
H1063 H 0.58872 0.88472 0.33196 0.0
H1064 H 0.58326 0.84083 0.26653 0.0
H1065 H 0.55702 0.86083 0.24931 0.0
C1066 C 0.54261 0.89609 0.27093 0.0
C1067 C 0.53661 0.91445 0.28435 0.0
C1068 C 0.55757 0.88437 0.28069 0.0
C1069 C 0.54558 0.92067 0.30774 0.0
C1070 C 0.56044 0.90913 0.31755 0.0
C1071 C 0.58176 0.87955 0.31394 0.0
C1072 C 0.58785 0.86136 0.30052 0.0
C1073 C 0.56663 0.89105 0.30419 0.0
C1074 C 0.57872 0.85476 0.27721 0.0
C1075 C 0.56374 0.8662 0.26735 0.0
H1076 H 0.15335 0.65862 0.29707 0.0
H1077 H 0.06665 0.62457 0.29544 0.0
H1078 H 0.07499 0.67147 0.31266 0.0
H1079 H 0.10721 0.723 0.32629 0.0
H1080 H 0.19375 0.75611 0.32693 0.0
H1081 H 0.18511 0.70843 0.31249 0.0
C1082 C 0.13621 0.66115 0.30093 0.0
C1083 C 0.10941 0.63803 0.29509 0.0
C1084 C 0.14114 0.68805 0.31066 0.0
C1085 C 0.08749 0.64207 0.29964 0.0
C1086 C 0.09225 0.66884 0.30955 0.0
C1087 C 0.12415 0.71961 0.32363 0.0
C1088 C 0.15108 0.74309 0.32766 0.0
C1089 C 0.11903 0.69212 0.31489 0.0
C1090 C 0.17282 0.73847 0.32385 0.0
C1091 C 0.16792 0.7112 0.31557 0.0
H1092 H 0.80685 0.98602 0.37328 0.0
H1093 H 0.75186 0.01191 0.39874 0.0
H1094 H 0.71306 0.96875 0.37775 0.0
H1095 H 0.69444 0.9204 0.35651 0.0
H1096 H 0.74977 0.89321 0.33415 0.0
H1097 H 0.78869 0.94 0.34957 0.0
C1098 C 0.78638 0.9823 0.37417 0.0
C1099 C 0.78224 0.00192 0.38787 0.0
C1100 C 0.76418 0.95703 0.36273 0.0
C1101 C 0.75566 0.99719 0.38831 0.0
C1102 C 0.73342 0.97238 0.37646 0.0
C1103 C 0.71503 0.92504 0.35455 0.0
C1104 C 0.71928 0.90339 0.34431 0.0
C1105 C 0.73737 0.95168 0.3642 0.0
C1106 C 0.74603 0.9095 0.3421 0.0
C1107 C 0.76828 0.93621 0.35097 0.0
H1108 H 0.9937 0.76238 0.42461 0.0
H1109 H 0.95142 0.75411 0.3593 0.0
H1110 H 0.9942 0.77353 0.34186 0.0
H1111 H 0.04332 0.79094 0.34483 0.0
H1112 H 0.08553 0.79792 0.40982 0.0
H1113 H 0.04324 0.78123 0.4278 0.0
C1114 C 0.99397 0.76518 0.40663 0.0
C1115 C 0.96947 0.75672 0.39323 0.0
C1116 C 0.0186 0.77603 0.39665 0.0
C1117 C 0.97001 0.76017 0.3699 0.0
C1118 C 0.99445 0.77133 0.35993 0.0
C1119 C 0.04324 0.78897 0.36295 0.0
C1120 C 0.06737 0.79554 0.376 0.0
C1121 C 0.01881 0.77899 0.37308 0.0
C1122 C 0.06709 0.79287 0.39944 0.0
C1123 C 0.04294 0.78333 0.40972 0.0
H1124 H 0.19914 0.1842 0.37501 0.0
H1125 H 0.27931 0.25993 0.39035 0.0
H1126 H 0.26275 0.28983 0.37461 0.0
H1127 H 0.22532 0.29492 0.35759 0.0
H1128 H 0.14436 0.22016 0.34509 0.0
H1129 H 0.16139 0.18951 0.3589 0.0
C1130 C 0.21296 0.2073 0.37522 0.0
C1131 C 0.24051 0.21966 0.38383 0.0
C1132 C 0.20317 0.22457 0.36661 0.0
C1133 C 0.25814 0.24962 0.3835 0.0
C1134 C 0.24866 0.26683 0.37462 0.0
C1135 C 0.21146 0.27185 0.35764 0.0
C1136 C 0.18368 0.25976 0.35016 0.0
C1137 C 0.22123 0.25455 0.36615 0.0
C1138 C 0.16586 0.22996 0.35074 0.0
C1139 C 0.17557 0.21244 0.35865 0.0
H1140 H 0.653 0.51693 0.71885 0.0
H1141 H 0.66659 0.58175 0.77328 0.0
H1142 H 0.70632 0.61782 0.75648 0.0
H1143 H 0.73824 0.63041 0.72704 0.0
H1144 H 0.72368 0.56561 0.67234 0.0
H1145 H 0.68286 0.53017 0.68831 0.0
C1146 C 0.66423 0.53908 0.72683 0.0
C1147 C 0.65676 0.54654 0.74734 0.0
C1148 C 0.68692 0.5597 0.71704 0.0
C1149 C 0.67205 0.57527 0.75765 0.0
C1150 C 0.69472 0.59595 0.74801 0.0
C1151 C 0.72596 0.60858 0.71855 0.0
C1152 C 0.7339 0.60052 0.69861 0.0
C1153 C 0.70253 0.58831 0.72785 0.0
C1154 C 0.71791 0.57225 0.68773 0.0
C1155 C 0.69462 0.55198 0.69687 0.0
H1156 H 0.47114 0.10366 0.70356 0.0
H1157 H 0.44342 0.0965 0.7704 0.0
H1158 H 0.41407 0.11567 0.75889 0.0
H1159 H 0.39508 0.13295 0.72921 0.0
H1160 H 0.42334 0.14014 0.66254 0.0
H1161 H 0.45348 0.12227 0.6745 0.0
C1162 C 0.45857 0.10617 0.71556 0.0
C1163 C 0.45931 0.0985 0.73773 0.0
C1164 C 0.44176 0.11711 0.70882 0.0
C1165 C 0.44332 0.10241 0.75326 0.0
C1166 C 0.42643 0.11322 0.74666 0.0
C1167 C 0.40792 0.13064 0.71738 0.0
C1168 C 0.40695 0.13767 0.69502 0.0
C1169 C 0.42532 0.12043 0.72441 0.0
C1170 C 0.42374 0.1348 0.67985 0.0
C1171 C 0.44095 0.12456 0.68665 0.0
H1172 H 0.9085 0.36362 0.69303 0.0
H1173 H 0.85683 0.34618 0.74744 0.0
H1174 H 0.83438 0.29417 0.73552 0.0
H1175 H 0.83204 0.25347 0.71144 0.0
H1176 H 0.88562 0.27161 0.65835 0.0
H1177 H 0.90479 0.32345 0.66807 0.0
C1178 C 0.89237 0.34845 0.70234 0.0
C1179 C 0.88458 0.35879 0.72124 0.0
C1180 C 0.87997 0.31865 0.69569 0.0
C1181 C 0.86316 0.33885 0.73275 0.0
C1182 C 0.85043 0.30908 0.72604 0.0
C1183 C 0.84763 0.26877 0.70181 0.0
C1184 C 0.85749 0.25867 0.68429 0.0
C1185 C 0.85899 0.2987 0.70776 0.0
C1186 C 0.87783 0.27879 0.67205 0.0
C1187 C 0.88882 0.30847 0.67758 0.0
H1188 H 0.18924 0.00063 0.61936 0.0
H1189 H 0.23975 0.9703 0.65001 0.0
H1190 H 0.27304 0.01945 0.6659 0.0
H1191 H 0.28961 0.07121 0.66885 0.0
H1192 H 0.241 0.10272 0.6366 0.0
H1193 H 0.20537 0.05296 0.62348 0.0
C1194 C 0.20754 0.00475 0.62948 0.0
C1195 C 0.21183 0.98161 0.63344 0.0
C1196 C 0.22709 0.03333 0.63818 0.0
C1197 C 0.23553 0.98744 0.64694 0.0
C1198 C 0.25479 0.01565 0.6559 0.0
C1199 C 0.27115 0.06732 0.65912 0.0
C1200 C 0.26813 0.09079 0.65364 0.0
C1201 C 0.25099 0.03878 0.65133 0.0
C1202 C 0.24396 0.08513 0.64105 0.0
C1203 C 0.22358 0.05666 0.63348 0.0
H1204 H 0.00947 0.25924 0.58961 0.0
H1205 H 0.04983 0.24537 0.64722 0.0
H1206 H 0.00722 0.22236 0.66486 0.0
H1207 H 0.9586 0.20705 0.66436 0.0
H1208 H 0.91819 0.22097 0.60688 0.0
H1209 H 0.96053 0.24272 0.58862 0.0
C1210 C 0.00885 0.2509 0.6059 0.0
C1211 C 0.03285 0.25418 0.61712 0.0
C1212 C 0.98426 0.23772 0.61599 0.0
C1213 C 0.03176 0.24353 0.63837 0.0
C1214 C 0.00737 0.23024 0.64843 0.0
C1215 C 0.9591 0.21477 0.6478 0.0
C1216 C 0.93545 0.21258 0.637 0.0
C1217 C 0.98354 0.22741 0.63749 0.0
C1218 C 0.93626 0.2226 0.61556 0.0
C1219 C 0.96043 0.23501 0.60511 0.0
H1220 H 0.81718 0.81549 0.61335 0.0
H1221 H 0.73161 0.75931 0.61929 0.0
H1222 H 0.742 0.72741 0.64025 0.0
H1223 H 0.77544 0.71435 0.65504 0.0
H1224 H 0.86096 0.77107 0.64831 0.0
H1225 H 0.85047 0.80381 0.62947 0.0
C1226 C 0.80077 0.79616 0.61912 0.0
C1227 C 0.77365 0.78952 0.61451 0.0
C1228 C 0.80689 0.77803 0.63102 0.0
C1229 C 0.75266 0.76484 0.62261 0.0
C1230 C 0.7586 0.74658 0.63452 0.0
C1231 C 0.79182 0.73405 0.64972 0.0
C1232 C 0.81896 0.74009 0.65307 0.0
C1233 C 0.78565 0.75282 0.63863 0.0
C1234 C 0.83988 0.76571 0.64593 0.0
C1235 C 0.83392 0.78449 0.63509 0.0
H1236 H 0.04088 0.8134 0.64376 0.0
H1237 H 0.01001 0.7799 0.57371 0.0
H1238 H 0.96353 0.75228 0.58467 0.0
H1239 H 0.93207 0.73592 0.61464 0.0
H1240 H 0.96323 0.771 0.68446 0.0
H1241 H 0.00923 0.79971 0.67321 0.0
C1242 C 0.02391 0.8001 0.63092 0.0
C1243 C 0.02876 0.79842 0.60803 0.0
C1244 C 0.99739 0.78449 0.63734 0.0
C1245 C 0.00666 0.78153 0.59145 0.0
C1246 C 0.98017 0.76565 0.59772 0.0
C1247 C 0.94897 0.74998 0.62732 0.0
C1248 C 0.94442 0.75124 0.65035 0.0
C1249 C 0.97533 0.76668 0.62067 0.0
C1250 C 0.96632 0.76968 0.66663 0.0
C1251 C 0.9926 0.78605 0.66022 0.0
H1252 H 0.22998 0.26398 0.58633 0.0
H1253 H 0.17666 0.23634 0.63976 0.0
H1254 H 0.20156 0.21465 0.6564 0.0
H1255 H 0.2396 0.20501 0.65655 0.0
H1256 H 0.29293 0.23284 0.60316 0.0
H1257 H 0.26708 0.2531 0.58582 0.0
C1258 C 0.22389 0.2533 0.60166 0.0
C1259 C 0.20155 0.25186 0.61181 0.0
C1260 C 0.23836 0.24097 0.61119 0.0
C1261 C 0.19362 0.23751 0.63147 0.0
C1262 C 0.20795 0.22525 0.64108 0.0
C1263 C 0.24544 0.21541 0.64107 0.0
C1264 C 0.26816 0.21758 0.63118 0.0
C1265 C 0.23047 0.22702 0.63118 0.0
C1266 C 0.27552 0.23099 0.6111 0.0
C1267 C 0.26077 0.2426 0.60119 0.0
H1268 H 0.80992 0.99314 0.63388 0.0
H1269 H 0.72486 0.9676 0.62475 0.0
H1270 H 0.73572 0.01528 0.6424 0.0
H1271 H 0.7701 0.06557 0.65757 0.0
H1272 H 0.85523 0.0909 0.66457 0.0
H1273 H 0.84357 0.04172 0.6511 0.0
C1274 C 0.79363 0.99771 0.63622 0.0
C1275 C 0.76661 0.97681 0.62809 0.0
C1276 C 0.80009 0.0252 0.64595 0.0
C1277 C 0.74585 0.98339 0.63076 0.0
C1278 C 0.75205 0.01062 0.64088 0.0
C1279 C 0.786 0.06012 0.65655 0.0
C1280 C 0.81349 0.08181 0.66201 0.0
C1281 C 0.7792 0.0319 0.64813 0.0
C1282 C 0.83394 0.0746 0.66033 0.0
C1283 C 0.8273 0.0465 0.6526 0.0
H1284 H 0.49393 0.33841 0.70999 0.0
H1285 H 0.4442 0.36583 0.74389 0.0
H1286 H 0.40309 0.32514 0.72311 0.0
H1287 H 0.38101 0.27839 0.69874 0.0
H1288 H 0.43112 0.24897 0.66835 0.0
H1289 H 0.47231 0.29363 0.68434 0.0
C1290 C 0.47411 0.33552 0.71287 0.0
C1291 C 0.47219 0.35496 0.72872 0.0
C1292 C 0.45058 0.31157 0.70152 0.0
C1293 C 0.44635 0.3513 0.73173 0.0
C1294 C 0.42278 0.32789 0.71998 0.0
C1295 C 0.40099 0.28223 0.69523 0.0
C1296 C 0.40324 0.26073 0.68234 0.0
C1297 C 0.4246 0.30746 0.70527 0.0
C1298 C 0.42909 0.26541 0.67822 0.0
C1299 C 0.45258 0.29084 0.68741 0.0
H1300 H 0.65098 0.07347 0.7454 0.0
H1301 H 0.64156 0.1445 0.72578 0.0
H1302 H 0.68474 0.16486 0.70921 0.0
H1303 H 0.72492 0.16213 0.69947 0.0
H1304 H 0.73637 0.09373 0.722 0.0
H1305 H 0.69296 0.0731 0.7387 0.0
C1306 C 0.6585 0.09371 0.73795 0.0
C1307 C 0.64257 0.10708 0.73666 0.0
C1308 C 0.68379 0.10581 0.72891 0.0
C1309 C 0.65281 0.13315 0.72655 0.0
C1310 C 0.67768 0.14502 0.71719 0.0
C1311 C 0.71788 0.14275 0.70809 0.0
C1312 C 0.73357 0.12926 0.70934 0.0
C1313 C 0.6932 0.13137 0.71804 0.0
C1314 C 0.72453 0.10441 0.7208 0.0
C1315 C 0.69971 0.09261 0.73032 0.0
H1316 H 0.86274 0.53318 0.71861 0.0
H1317 H 0.94755 0.59989 0.72557 0.0
H1318 H 0.93556 0.63384 0.71041 0.0
H1319 H 0.90109 0.64475 0.69564 0.0
H1320 H 0.81589 0.57928 0.69053 0.0
H1321 H 0.82783 0.54459 0.70444 0.0
C1322 C 0.8785 0.55514 0.7167 0.0
C1323 C 0.90595 0.56412 0.72317 0.0
C1324 C 0.87141 0.57469 0.70831 0.0
C1325 C 0.92627 0.59265 0.72086 0.0
C1326 C 0.91944 0.61201 0.71213 0.0
C1327 C 0.88513 0.62281 0.69737 0.0
C1328 C 0.85768 0.61448 0.69184 0.0
C1329 C 0.8921 0.60328 0.70583 0.0
C1330 C 0.8372 0.58617 0.69462 0.0
C1331 C 0.84401 0.56634 0.70257 0.0
H1332 H 0.50993 0.96921 0.13799 0.0
H1333 H 0.46446 0.01346 0.14541 0.0
H1334 H 0.47518 0.03051 0.10812 0.0
H1335 H 0.50048 0.03606 0.07447 0.0
H1336 H 0.54871 0.99492 0.06878 0.0
H1337 H 0.53454 0.97414 0.10449 0.0
C1338 C 0.5025 0.98277 0.1316 0.0
C1339 C 0.48652 0.99009 0.14472 0.0
C1340 C 0.50954 0.9934 0.11049 0.0
C1341 C 0.47651 0.00706 0.13571 0.0
C1342 C 0.48288 0.01715 0.11443 0.0
C1343 C 0.50763 0.02234 0.08105 0.0
C1344 C 0.52554 0.01697 0.06914 0.0
C1345 C 0.49977 0.01088 0.10184 0.0
C1346 C 0.53503 0.99949 0.07782 0.0
C1347 C 0.52687 0.98753 0.09818 0.0
H1348 H 0.01656 0.50865 0.14311 0.0
H1349 H 0.09655 0.52767 0.12719 0.0
H1350 H 0.08182 0.52005 0.08665 0.0
H1351 H 0.04735 0.51096 0.05584 0.0
H1352 H 0.96725 0.49221 0.07088 0.0
H1353 H 0.9807 0.49625 0.11164 0.0
C1354 C 0.03062 0.5108 0.13074 0.0
C1355 C 0.05774 0.51918 0.13817 0.0
C1356 C 0.02203 0.50646 0.10733 0.0
C1357 C 0.07576 0.5219 0.12193 0.0
C1358 C 0.06733 0.51738 0.09874 0.0
C1359 C 0.03271 0.50741 0.06801 0.0
C1360 C 0.00642 0.50146 0.06044 0.0
C1361 C 0.04069 0.51014 0.09127 0.0
C1362 C 0.98765 0.49688 0.07636 0.0
C1363 C 0.99537 0.49929 0.09965 0.0
H1364 H 0.51291 0.53766 0.14653 0.0
H1365 H 0.44006 0.45375 0.13291 0.0
H1366 H 0.44883 0.45135 0.09295 0.0
H1367 H 0.4792 0.47216 0.06242 0.0
H1368 H 0.55141 0.55656 0.07691 0.0
H1369 H 0.54142 0.55927 0.11612 0.0
C1370 C 0.49898 0.51877 0.13485 0.0
C1371 C 0.47608 0.49577 0.14275 0.0
C1372 C 0.50426 0.51747 0.1121 0.0
C1373 C 0.45785 0.47177 0.12725 0.0
C1374 C 0.46296 0.47031 0.10445 0.0
C1375 C 0.49237 0.49131 0.07409 0.0
C1376 C 0.51587 0.51421 0.06673 0.0
C1377 C 0.48634 0.49289 0.09673 0.0
C1378 C 0.53323 0.5386 0.08217 0.0
C1379 C 0.52751 0.54024 0.1046 0.0
H1380 H 0.01815 0.51136 0.85502 0.0
H1381 H 0.93654 0.49029 0.86741 0.0
H1382 H 0.94762 0.49154 0.90807 0.0
H1383 H 0.97997 0.49675 0.93988 0.0
H1384 H 0.06189 0.51924 0.9276 0.0
H1385 H 0.05133 0.51985 0.88709 0.0
C1386 C 0.00288 0.50753 0.86661 0.0
C1387 C 0.97648 0.50056 0.85807 0.0
C1388 C 0.00944 0.50852 0.88999 0.0
C1389 C 0.95687 0.49519 0.87341 0.0
C1390 C 0.96323 0.49607 0.89669 0.0
C1391 C 0.99559 0.50212 0.92837 0.0
C1392 C 0.02164 0.50787 0.93664 0.0
C1393 C 0.98936 0.50239 0.90513 0.0
C1394 C 0.04167 0.51469 0.92157 0.0
C1395 C 0.03563 0.51498 0.89843 0.0
H1396 H 0.5473 0.50874 0.88087 0.0
H1397 H 0.48933 0.41693 0.87109 0.0
H1398 H 0.4678 0.42133 0.90441 0.0
H1399 H 0.46643 0.45085 0.93711 0.0
H1400 H 0.52442 0.54249 0.94744 0.0
H1401 H 0.54473 0.53874 0.91288 0.0
C1402 C 0.52973 0.4898 0.88587 0.0
C1403 C 0.52003 0.46254 0.8736 0.0
C1404 C 0.51744 0.49247 0.90508 0.0
C1405 C 0.49745 0.4381 0.88045 0.0
C1406 C 0.48502 0.4406 0.89942 0.0
C1407 C 0.48325 0.47005 0.93157 0.0
C1408 C 0.49403 0.49689 0.94467 0.0
C1409 C 0.49497 0.46761 0.91196 0.0
C1410 C 0.51591 0.5216 0.93752 0.0
C1411 C 0.52753 0.51944 0.91784 0.0
H1412 H 0.54061 0.02423 0.87539 0.0
H1413 H 0.46855 0.02947 0.85922 0.0
H1414 H 0.45693 0.02202 0.89835 0.0
H1415 H 0.46694 0.01323 0.93702 0.0
H1416 H 0.537 0.00412 0.95241 0.0
H1417 H 0.54998 0.01413 0.91392 0.0
C1418 C 0.5225 0.02392 0.88058 0.0
C1419 C 0.50548 0.02747 0.86463 0.0
C1420 C 0.51566 0.01898 0.90294 0.0
C1421 C 0.48186 0.02669 0.87131 0.0
C1422 C 0.47523 0.02245 0.89363 0.0
C1423 C 0.48501 0.01342 0.93189 0.0
C1424 C 0.50137 0.00863 0.94761 0.0
C1425 C 0.49188 0.01837 0.90955 0.0
C1426 C 0.5246 0.00866 0.94077 0.0
C1427 C 0.53187 0.0141 0.9187 0.0
H1428 H 0.16462 0.36183 0.47682 0.0
H1429 H 0.11303 0.26881 0.46541 0.0
H1430 H 0.11686 0.27046 0.42464 0.0
H1431 H 0.13708 0.2978 0.39265 0.0
H1432 H 0.18788 0.39079 0.40336 0.0
H1433 H 0.18191 0.38973 0.44405 0.0
C1434 C 0.15384 0.34196 0.46539 0.0
C1435 C 0.13879 0.31519 0.47427 0.0
C1436 C 0.15607 0.34305 0.44189 0.0
C1437 C 0.1252 0.28964 0.45916 0.0
C1438 C 0.12726 0.29057 0.43581 0.0
C1439 C 0.14643 0.31791 0.40379 0.0
C1440 C 0.16284 0.34435 0.39504 0.0
C1441 C 0.14298 0.31707 0.42705 0.0
C1442 C 0.17513 0.37018 0.40973 0.0
C1443 C 0.17178 0.36955 0.43298 0.0
H1444 H 0.66068 0.82764 0.4782 0.0
H1445 H 0.74205 0.85646 0.46011 0.0
H1446 H 0.72531 0.84507 0.41985 0.0
H1447 H 0.68881 0.83112 0.38998 0.0
H1448 H 0.6071 0.80325 0.40649 0.0
H1449 H 0.62259 0.81007 0.44723 0.0
C1450 C 0.67454 0.83103 0.46536 0.0
C1451 C 0.70258 0.84314 0.47201 0.0
C1452 C 0.66479 0.82486 0.44207 0.0
C1453 C 0.72046 0.84753 0.45532 0.0
C1454 C 0.71091 0.841 0.43233 0.0
C1455 C 0.67418 0.82592 0.40241 0.0
C1456 C 0.64683 0.81658 0.39526 0.0
C1457 C 0.68329 0.83026 0.42554 0.0
C1458 C 0.62827 0.81042 0.41162 0.0
C1459 C 0.63716 0.81441 0.43488 0.0
H1460 H 0.1433 0.8184 0.47561 0.0
H1461 H 0.19633 0.91118 0.4876 0.0
H1462 H 0.20903 0.91228 0.44886 0.0
H1463 H 0.20566 0.88679 0.4116 0.0
H1464 H 0.15115 0.79448 0.39918 0.0
H1465 H 0.13804 0.79336 0.4379 0.0
C1466 C 0.15728 0.83896 0.4697 0.0
C1467 C 0.16896 0.86462 0.48467 0.0
C1468 C 0.16428 0.83952 0.44728 0.0
C1469 C 0.18739 0.89098 0.47666 0.0
C1470 C 0.19459 0.89168 0.45444 0.0
C1471 C 0.19097 0.86648 0.41746 0.0
C1472 C 0.17939 0.84076 0.40271 0.0
C1473 C 0.18337 0.86606 0.43967 0.0
C1474 C 0.1602 0.81457 0.4103 0.0
C1475 C 0.15275 0.81391 0.43242 0.0
H1476 H 0.62176 0.77775 0.18968 0.0
H1477 H 0.63213 0.86315 0.20097 0.0
H1478 H 0.64111 0.86369 0.24194 0.0
H1479 H 0.64958 0.84135 0.27419 0.0
H1480 H 0.64001 0.75636 0.26251 0.0
H1481 H 0.62765 0.7544 0.22197 0.0
C1482 C 0.62607 0.79652 0.2011 0.0
C1483 C 0.62656 0.82048 0.19226 0.0
C1484 C 0.63161 0.79686 0.22452 0.0
C1485 C 0.63151 0.84436 0.20733 0.0
C1486 C 0.63684 0.84478 0.23074 0.0
C1487 C 0.64437 0.82225 0.26279 0.0
C1488 C 0.64571 0.79904 0.27122 0.0
C1489 C 0.63741 0.82135 0.23948 0.0
C1490 C 0.63924 0.77455 0.25631 0.0
C1491 C 0.63216 0.7734 0.23316 0.0
H1492 H 0.1761 0.77242 0.21358 0.0
H1493 H 0.2176 0.86389 0.20549 0.0
H1494 H 0.20526 0.8738 0.24233 0.0
H1495 H 0.18084 0.85627 0.27636 0.0
H1496 H 0.1342 0.7644 0.28117 0.0
H1497 H 0.14965 0.75481 0.2457 0.0
C1498 C 0.182 0.79454 0.21939 0.0
C1499 C 0.19774 0.81725 0.20637 0.0
C1500 C 0.1737 0.80002 0.24006 0.0
C1501 C 0.2059 0.84583 0.21506 0.0
C1502 C 0.19861 0.85158 0.23612 0.0
C1503 C 0.17412 0.83422 0.26952 0.0
C1504 C 0.15649 0.81104 0.28118 0.0
C1505 C 0.18232 0.82882 0.24868 0.0
C1506 C 0.14766 0.78251 0.27228 0.0
C1507 C 0.15654 0.77705 0.25208 0.0
H1508 H 0.14037 0.3339 0.19548 0.0
H1509 H 0.22109 0.34616 0.20693 0.0
H1510 H 0.21289 0.33321 0.24586 0.0
H1511 H 0.18132 0.31525 0.27576 0.0
H1512 H 0.10141 0.30524 0.26417 0.0
H1513 H 0.11041 0.31965 0.22596 0.0
C1514 C 0.15615 0.33372 0.20652 0.0
C1515 C 0.18113 0.3406 0.19833 0.0
C1516 C 0.15128 0.32628 0.22872 0.0
C1517 C 0.20166 0.34092 0.21291 0.0
C1518 C 0.19692 0.33334 0.23508 0.0
C1519 C 0.16614 0.31675 0.26497 0.0
C1520 C 0.14081 0.30931 0.27275 0.0
C1521 C 0.17163 0.32556 0.24306 0.0
C1522 C 0.12103 0.3107 0.25848 0.0
C1523 C 0.12617 0.31904 0.23667 0.0
H1524 H 0.7966 0.65854 0.80352 0.0
H1525 H 0.85835 0.63543 0.8162 0.0
H1526 H 0.87419 0.64907 0.77911 0.0
H1527 H 0.87206 0.66968 0.74382 0.0
H1528 H 0.81064 0.69293 0.73062 0.0
H1529 H 0.79313 0.67724 0.76714 0.0
C1530 C 0.81348 0.65646 0.79812 0.0
C1531 C 0.82625 0.64597 0.81266 0.0
C1532 C 0.82266 0.66455 0.77675 0.0
C1533 C 0.8479 0.64306 0.80528 0.0
C1534 C 0.85716 0.6511 0.78414 0.0
C1535 C 0.85487 0.67135 0.749 0.0
C1536 C 0.84267 0.68252 0.7347 0.0
C1537 C 0.84494 0.66222 0.76988 0.0
C1538 C 0.82021 0.68423 0.74137 0.0
C1539 C 0.81029 0.67537 0.76225 0.0
H1540 H 0.39639 0.23041 0.80187 0.0
H1541 H 0.38075 0.14265 0.79512 0.0
H1542 H 0.3551 0.13334 0.75793 0.0
H1543 H 0.33715 0.15045 0.72718 0.0
H1544 H 0.3538 0.23854 0.73443 0.0
H1545 H 0.3783 0.24713 0.77184 0.0
C1546 C 0.38696 0.20905 0.7925 0.0
C1547 C 0.39034 0.18722 0.8014 0.0
C1548 C 0.37234 0.20389 0.7712 0.0
C1549 C 0.37857 0.15991 0.78865 0.0
C1550 C 0.36383 0.15454 0.76741 0.0
C1551 C 0.3464 0.17154 0.73692 0.0
C1552 C 0.34393 0.19389 0.72802 0.0
C1553 C 0.3607 0.17643 0.75845 0.0
C1554 C 0.35539 0.22096 0.74097 0.0
C1555 C 0.36948 0.22594 0.76234 0.0
H1556 H 0.84862 0.15643 0.81494 0.0
H1557 H 0.80608 0.20396 0.8097 0.0
H1558 H 0.80885 0.20301 0.76867 0.0
H1559 H 0.82568 0.191 0.73452 0.0
H1560 H 0.87073 0.14629 0.74057 0.0
H1561 H 0.86495 0.14413 0.7811 0.0
C1562 C 0.84018 0.16687 0.80491 0.0
C1563 C 0.82735 0.18043 0.8155 0.0
C1564 C 0.84239 0.16683 0.78145 0.0
C1565 C 0.81588 0.19313 0.80204 0.0
C1566 C 0.81761 0.19277 0.77857 0.0
C1567 C 0.83405 0.18064 0.74474 0.0
C1568 C 0.8487 0.16892 0.73471 0.0
C1569 C 0.83109 0.17997 0.76813 0.0
C1570 C 0.8595 0.15558 0.74803 0.0
C1571 C 0.85621 0.15435 0.77117 0.0
H1572 H 0.31752 0.18918 0.52937 0.0
H1573 H 0.29692 0.1002 0.51515 0.0
H1574 H 0.30609 0.09775 0.55547 0.0
H1575 H 0.32099 0.12113 0.59463 0.0
H1576 H 0.34317 0.2105 0.60902 0.0
H1577 H 0.33189 0.21248 0.56892 0.0
C1578 C 0.31481 0.16921 0.53518 0.0
C1579 C 0.30673 0.14497 0.51931 0.0
C1580 C 0.3203 0.16801 0.55841 0.0
C1581 C 0.30351 0.11929 0.52701 0.0
C1582 C 0.30864 0.11782 0.55005 0.0
C1583 C 0.32327 0.141 0.58896 0.0
C1584 C 0.3325 0.16551 0.60472 0.0
C1585 C 0.31727 0.1421 0.56586 0.0
C1586 C 0.33548 0.19116 0.59723 0.0
C1587 C 0.32927 0.19237 0.57428 0.0
H1588 H 0.81822 0.15097 0.52858 0.0
H1589 H 0.88475 0.13894 0.55181 0.0
H1590 H 0.87786 0.14687 0.59124 0.0
H1591 H 0.85138 0.15387 0.61878 0.0
H1592 H 0.78733 0.1705 0.59749 0.0
H1593 H 0.79419 0.16335 0.55743 0.0
C1594 C 0.83125 0.15038 0.54237 0.0
C1595 C 0.85199 0.14446 0.5374 0.0
C1596 C 0.82742 0.15541 0.56516 0.0
C1597 C 0.86886 0.14375 0.55528 0.0
C1598 C 0.86484 0.1481 0.5778 0.0
C1599 C 0.83944 0.15688 0.6055 0.0
C1600 C 0.81922 0.1632 0.61109 0.0
C1601 C 0.84404 0.15361 0.58289 0.0
C1602 C 0.80319 0.16585 0.59356 0.0
C1603 C 0.80711 0.16174 0.57071 0.0
H1604 H 0.87008 0.68089 0.53948 0.0
H1605 H 0.82635 0.72728 0.53399 0.0
H1606 H 0.81323 0.71764 0.57226 0.0
H1607 H 0.81143 0.69322 0.60634 0.0
H1608 H 0.85865 0.65117 0.61376 0.0
H1609 H 0.87373 0.66255 0.57581 0.0
C1610 C 0.85823 0.68954 0.54673 0.0
C1611 C 0.84865 0.70414 0.53342 0.0
C1612 C 0.85123 0.68453 0.56907 0.0
C1613 C 0.83324 0.71505 0.54338 0.0
C1614 C 0.82584 0.70974 0.56538 0.0
C1615 C 0.82511 0.68668 0.59961 0.0
C1616 C 0.83354 0.67091 0.6124 0.0
C1617 C 0.83412 0.69388 0.57814 0.0
C1618 C 0.85178 0.66313 0.60395 0.0
C1619 C 0.86034 0.6696 0.58231 0.0
loop_
_geom_bond_atom_site_label_1
_geom_bond_atom_site_label_2
_geom_bond_distance
_geom_bond_site_symmetry_2
_ccdc_geom_bond_type
P0 O11 1.490 . S
P0 C14 1.812 . S
P0 C20 1.803 . S
P0 C26 1.819 . S
H1 C15 0.941 . S
H2 C16 0.939 . S
H3 C18 0.940 . S
H4 C19 0.940 . S
H5 C21 0.939 . S
H6 C22 0.942 . S
H7 C24 0.940 . S
H8 C25 0.939 . S
H9 C27 0.941 . S
H10 C31 0.939 . S
O11 P0 1.490 . S
H12 C28 0.939 . S
H13 C30 0.940 . S
C14 P0 1.812 . S
C14 C15 1.389 . S
C14 C19 1.391 . S
C15 H1 0.941 . S
C15 C14 1.389 . S
C15 C16 1.397 . S
C16 H2 0.939 . S
C16 C15 1.397 . S
C16 C17 1.378 . S
C17 C16 1.378 . S
C17 C18 1.378 . S
C18 H3 0.940 . S
C18 C17 1.378 . S
C18 C19 1.396 . S
C19 H4 0.940 . S
C19 C14 1.391 . S
C19 C18 1.396 . S
C20 P0 1.803 . S
C20 C21 1.378 . S
C20 C25 1.400 . S
C21 H5 0.939 . S
C21 C20 1.378 . S
C21 C22 1.361 . S
C22 H6 0.942 . S
C22 C21 1.361 . S
C22 C23 1.369 . S
C23 C22 1.369 . S
C23 C24 1.404 . S
C24 H7 0.940 . S
C24 C23 1.404 . S
C24 C25 1.389 . S
C25 H8 0.939 . S
C25 C20 1.400 . S
C25 C24 1.389 . S
C26 P0 1.819 . S
C26 C27 1.391 . S
C26 C31 1.391 . S
C27 H9 0.941 . S
C27 C26 1.391 . S
C27 C28 1.396 . S
C28 H12 0.939 . S
C28 C27 1.396 . S
C28 C29 1.397 . S
C29 C28 1.397 . S
C29 C30 1.385 . S
C30 H13 0.940 . S
C30 C29 1.385 . S
C30 C31 1.388 . S
C31 H10 0.939 . S
C31 C26 1.391 . S
C31 C30 1.388 . S
P32 O43 1.490 . S
P32 C46 1.812 . S
P32 C52 1.803 . S
P32 C58 1.819 . S
H33 C47 0.941 . S
H34 C48 0.939 . S
H35 C50 0.940 . S
H36 C51 0.940 . S
H37 C53 0.939 . S
H38 C54 0.942 . S
H39 C56 0.940 . S
H40 C57 0.939 . S
H41 C59 0.941 . S
H42 C63 0.939 . S
O43 P32 1.490 . S
H44 C60 0.939 . S
H45 C62 0.940 . S
C46 P32 1.812 . S
C46 C47 1.389 . S
C46 C51 1.391 . S
C47 H33 0.941 . S
C47 C46 1.389 . S
C47 C48 1.397 . S
C48 H34 0.939 . S
C48 C47 1.397 . S
C48 C49 1.378 . S
C49 C48 1.378 . S
C49 C50 1.378 . S
C50 H35 0.940 . S
C50 C49 1.378 . S
C50 C51 1.396 . S
C51 H36 0.940 . S
C51 C46 1.391 . S
C51 C50 1.396 . S
C52 P32 1.803 . S
C52 C53 1.378 . S
C52 C57 1.400 . S
C53 H37 0.939 . S
C53 C52 1.378 . S
C53 C54 1.361 . S
C54 H38 0.942 . S
C54 C53 1.361 . S
C54 C55 1.369 . S
C55 C54 1.369 . S
C55 C56 1.404 . S
C56 H39 0.940 . S
C56 C55 1.404 . S
C56 C57 1.389 . S
C57 H40 0.939 . S
C57 C52 1.400 . S
C57 C56 1.389 . S
C58 P32 1.819 . S
C58 C59 1.391 . S
C58 C63 1.391 . S
C59 H41 0.941 . S
C59 C58 1.391 . S
C59 C60 1.396 . S
C60 H44 0.939 . S
C60 C59 1.396 . S
C60 C61 1.397 . S
C61 C60 1.397 . S
C61 C62 1.385 . S
C62 H45 0.940 . S
C62 C61 1.385 . S
C62 C63 1.388 . S
C63 H42 0.939 . S
C63 C58 1.391 . S
C63 C62 1.388 . S
P64 O75 1.490 . S
P64 C78 1.812 . S
P64 C84 1.803 . S
P64 C90 1.819 . S
H65 C79 0.941 . S
H66 C80 0.939 . S
H67 C82 0.940 . S
H68 C83 0.940 . S
H69 C85 0.939 . S
H70 C86 0.942 . S
H71 C88 0.940 . S
H72 C89 0.939 . S
H73 C91 0.941 . S
H74 C95 0.939 . S
O75 P64 1.490 . S
H76 C92 0.939 . S
H77 C94 0.940 . S
C78 P64 1.812 . S
C78 C79 1.389 . S
C78 C83 1.391 . S
C79 H65 0.941 . S
C79 C78 1.389 . S
C79 C80 1.397 . S
C80 H66 0.939 . S
C80 C79 1.397 . S
C80 C81 1.378 . S
C81 C80 1.378 . S
C81 C82 1.378 . S
C82 H67 0.940 . S
C82 C81 1.378 . S
C82 C83 1.396 . S
C83 H68 0.940 . S
C83 C78 1.391 . S
C83 C82 1.396 . S
C84 P64 1.803 . S
C84 C85 1.378 . S
C84 C89 1.400 . S
C85 H69 0.939 . S
C85 C84 1.378 . S
C85 C86 1.361 . S
C86 H70 0.942 . S
C86 C85 1.361 . S
C86 C87 1.369 . S
C87 C86 1.369 . S
C87 C88 1.404 . S
C88 H71 0.940 . S
C88 C87 1.404 . S
C88 C89 1.389 . S
C89 H72 0.939 . S
C89 C84 1.400 . S
C89 C88 1.389 . S
C90 P64 1.819 . S
C90 C91 1.391 . S
C90 C95 1.391 . S
C91 H73 0.941 . S
C91 C90 1.391 . S
C91 C92 1.396 . S
C92 H76 0.939 . S
C92 C91 1.396 . S
C92 C93 1.397 . S
C93 C92 1.397 . S
C93 C94 1.385 . S
C94 H77 0.940 . S
C94 C93 1.385 . S
C94 C95 1.388 . S
C95 H74 0.939 . S
C95 C90 1.391 . S
C95 C94 1.388 . S
P96 O107 1.490 . S
P96 C110 1.812 . S
P96 C116 1.803 . S
P96 C122 1.819 . S
H97 C111 0.941 . S
H98 C112 0.939 . S
H99 C114 0.940 . S
H100 C115 0.940 . S
H101 C117 0.939 . S
H102 C118 0.942 . S
H103 C120 0.940 . S
H104 C121 0.939 . S
H105 C123 0.941 . S
H106 C127 0.939 . S
O107 P96 1.490 . S
H108 C124 0.939 . S
H109 C126 0.940 . S
C110 P96 1.812 . S
C110 C111 1.389 . S
C110 C115 1.391 . S
C111 H97 0.941 . S
C111 C110 1.389 . S
C111 C112 1.397 . S
C112 H98 0.939 . S
C112 C111 1.397 . S
C112 C113 1.378 . S
C113 C112 1.378 . S
C113 C114 1.378 . S
C114 H99 0.940 . S
C114 C113 1.378 . S
C114 C115 1.396 . S
C115 H100 0.940 . S
C115 C110 1.391 . S
C115 C114 1.396 . S
C116 P96 1.803 . S
C116 C117 1.378 . S
C116 C121 1.400 . S
C117 H101 0.939 . S
C117 C116 1.378 . S
C117 C118 1.361 . S
C118 H102 0.942 . S
C118 C117 1.361 . S
C118 C119 1.369 . S
C119 C118 1.369 . S
C119 C120 1.404 . S
C120 H103 0.940 . S
C120 C119 1.404 . S
C120 C121 1.389 . S
C121 H104 0.939 . S
C121 C116 1.400 . S
C121 C120 1.389 . S
C122 P96 1.819 . S
C122 C123 1.391 . S
C122 C127 1.391 . S
C123 H105 0.941 . S
C123 C122 1.391 . S
C123 C124 1.396 . S
C124 H108 0.939 . S
C124 C123 1.396 . S
C124 C125 1.397 . S
C125 C124 1.397 . S
C125 C126 1.385 . S
C126 H109 0.940 . S
C126 C125 1.385 . S
C126 C127 1.388 . S
C127 H106 0.939 . S
C127 C122 1.391 . S
C127 C126 1.388 . S
P128 O139 1.490 . S
P128 C142 1.812 . S
P128 C148 1.803 . S
P128 C154 1.819 . S
H129 C143 0.941 . S
H130 C144 0.939 . S
H131 C146 0.940 . S
H132 C147 0.940 . S
H133 C149 0.939 . S
H134 C150 0.942 . S
H135 C152 0.940 . S
H136 C153 0.939 . S
H137 C155 0.941 . S
H138 C159 0.939 . S
O139 P128 1.490 . S
H140 C156 0.939 . S
H141 C158 0.940 . S
C142 P128 1.812 . S
C142 C143 1.389 . S
C142 C147 1.391 . S
C143 H129 0.941 . S
C143 C142 1.389 . S
C143 C144 1.397 . S
C144 H130 0.939 . S
C144 C143 1.397 . S
C144 C145 1.378 . S
C145 C144 1.378 . S
C145 C146 1.378 . S
C146 H131 0.940 . S
C146 C145 1.378 . S
C146 C147 1.396 . S
C147 H132 0.940 . S
C147 C142 1.391 . S
C147 C146 1.396 . S
C148 P128 1.803 . S
C148 C149 1.378 . S
C148 C153 1.400 . S
C149 H133 0.939 . S
C149 C148 1.378 . S
C149 C150 1.361 . S
C150 H134 0.942 . S
C150 C149 1.361 . S
C150 C151 1.369 . S
C151 C150 1.369 . S
C151 C152 1.404 . S
C152 H135 0.940 . S
C152 C151 1.404 . S
C152 C153 1.389 . S
C153 H136 0.939 . S
C153 C148 1.400 . S
C153 C152 1.389 . S
C154 P128 1.819 . S
C154 C155 1.391 . S
C154 C159 1.391 . S
C155 H137 0.941 . S
C155 C154 1.391 . S
C155 C156 1.396 . S
C156 H140 0.939 . S
C156 C155 1.396 . S
C156 C157 1.397 . S
C157 C156 1.397 . S
C157 C158 1.385 . S
C158 H141 0.940 . S
C158 C157 1.385 . S
C158 C159 1.388 . S
C159 H138 0.939 . S
C159 C154 1.391 . S
C159 C158 1.388 . S
P160 O171 1.490 . S
P160 C174 1.812 . S
P160 C180 1.803 . S
P160 C186 1.819 . S
H161 C175 0.941 . S
H162 C176 0.939 . S
H163 C178 0.940 . S
H164 C179 0.940 . S
H165 C181 0.939 . S
H166 C182 0.942 . S
H167 C184 0.940 . S
H168 C185 0.939 . S
H169 C187 0.941 . S
H170 C191 0.939 . S
O171 P160 1.490 . S
H172 C188 0.939 . S
H173 C190 0.940 . S
C174 P160 1.812 . S
C174 C175 1.389 . S
C174 C179 1.391 . S
C175 H161 0.941 . S
C175 C174 1.389 . S
C175 C176 1.397 . S
C176 H162 0.939 . S
C176 C175 1.397 . S
C176 C177 1.378 . S
C177 C176 1.378 . S
C177 C178 1.378 . S
C178 H163 0.940 . S
C178 C177 1.378 . S
C178 C179 1.396 . S
C179 H164 0.940 . S
C179 C174 1.391 . S
C179 C178 1.396 . S
C180 P160 1.803 . S
C180 C181 1.378 . S
C180 C185 1.400 . S
C181 H165 0.939 . S
C181 C180 1.378 . S
C181 C182 1.361 . S
C182 H166 0.942 . S
C182 C181 1.361 . S
C182 C183 1.369 . S
C183 C182 1.369 . S
C183 C184 1.404 . S
C184 H167 0.940 . S
C184 C183 1.404 . S
C184 C185 1.389 . S
C185 H168 0.939 . S
C185 C180 1.400 . S
C185 C184 1.389 . S
C186 P160 1.819 . S
C186 C187 1.391 . S
C186 C191 1.391 . S
C187 H169 0.941 . S
C187 C186 1.391 . S
C187 C188 1.396 . S
C188 H172 0.939 . S
C188 C187 1.396 . S
C188 C189 1.397 . S
C189 C188 1.397 . S
C189 C190 1.385 . S
C190 H173 0.940 . S
C190 C189 1.385 . S
C190 C191 1.388 . S
C191 H170 0.939 . S
C191 C186 1.391 . S
C191 C190 1.388 . S
P192 O203 1.490 . S
P192 C206 1.812 . S
P192 C212 1.803 . S
P192 C218 1.819 . S
H193 C207 0.941 . S
H194 C208 0.939 . S
H195 C210 0.940 . S
H196 C211 0.940 . S
H197 C213 0.939 . S
H198 C214 0.942 . S
H199 C216 0.940 . S
H200 C217 0.939 . S
H201 C219 0.941 . S
H202 C223 0.939 . S
O203 P192 1.490 . S
H204 C220 0.939 . S
H205 C222 0.940 . S
C206 P192 1.812 . S
C206 C207 1.389 . S
C206 C211 1.391 . S
C207 H193 0.941 . S
C207 C206 1.389 . S
C207 C208 1.397 . S
C208 H194 0.939 . S
C208 C207 1.397 . S
C208 C209 1.378 . S
C209 C208 1.378 . S
C209 C210 1.378 . S
C210 H195 0.940 . S
C210 C209 1.378 . S
C210 C211 1.396 . S
C211 H196 0.940 . S
C211 C206 1.391 . S
C211 C210 1.396 . S
C212 P192 1.803 . S
C212 C213 1.378 . S
C212 C217 1.400 . S
C213 H197 0.939 . S
C213 C212 1.378 . S
C213 C214 1.361 . S
C214 H198 0.942 . S
C214 C213 1.361 . S
C214 C215 1.369 . S
C215 C214 1.369 . S
C215 C216 1.404 . S
C216 H199 0.940 . S
C216 C215 1.404 . S
C216 C217 1.389 . S
C217 H200 0.939 . S
C217 C212 1.400 . S
C217 C216 1.389 . S
C218 P192 1.819 . S
C218 C219 1.391 . S
C218 C223 1.391 . S
C219 H201 0.941 . S
C219 C218 1.391 . S
C219 C220 1.396 . S
C220 H204 0.939 . S
C220 C219 1.396 . S
C220 C221 1.397 . S
C221 C220 1.397 . S
C221 C222 1.385 . S
C222 H205 0.940 . S
C222 C221 1.385 . S
C222 C223 1.388 . S
C223 H202 0.939 . S
C223 C218 1.391 . S
C223 C222 1.388 . S
P224 O235 1.490 . S
P224 C238 1.812 . S
P224 C244 1.803 . S
P224 C250 1.819 . S
H225 C239 0.941 . S
H226 C240 0.939 . S
H227 C242 0.940 . S
H228 C243 0.940 . S
H229 C245 0.939 . S
H230 C246 0.942 . S
H231 C248 0.940 . S
H232 C249 0.939 . S
H233 C251 0.941 . S
H234 C255 0.939 . S
O235 P224 1.490 . S
H236 C252 0.939 . S
H237 C254 0.940 . S
C238 P224 1.812 . S
C238 C239 1.389 . S
C238 C243 1.391 . S
C239 H225 0.941 . S
C239 C238 1.389 . S
C239 C240 1.397 . S
C240 H226 0.939 . S
C240 C239 1.397 . S
C240 C241 1.378 . S
C241 C240 1.378 . S
C241 C242 1.378 . S
C242 H227 0.940 . S
C242 C241 1.378 . S
C242 C243 1.396 . S
C243 H228 0.940 . S
C243 C238 1.391 . S
C243 C242 1.396 . S
C244 P224 1.803 . S
C244 C245 1.378 . S
C244 C249 1.400 . S
C245 H229 0.939 . S
C245 C244 1.378 . S
C245 C246 1.361 . S
C246 H230 0.942 . S
C246 C245 1.361 . S
C246 C247 1.369 . S
C247 C246 1.369 . S
C247 C248 1.404 . S
C248 H231 0.940 . S
C248 C247 1.404 . S
C248 C249 1.389 . S
C249 H232 0.939 . S
C249 C244 1.400 . S
C249 C248 1.389 . S
C250 P224 1.819 . S
C250 C251 1.391 . S
C250 C255 1.391 . S
C251 H233 0.941 . S
C251 C250 1.391 . S
C251 C252 1.396 . S
C252 H236 0.939 . S
C252 C251 1.396 . S
C252 C253 1.397 . S
C253 C252 1.397 . S
C253 C254 1.385 . S
C254 H237 0.940 . S
C254 C253 1.385 . S
C254 C255 1.388 . S
C255 H234 0.939 . S
C255 C250 1.391 . S
C255 C254 1.388 . S
P256 O267 1.490 . S
P256 C270 1.812 . S
P256 C276 1.803 . S
P256 C282 1.819 . S
H257 C271 0.941 . S
H258 C272 0.939 . S
H259 C274 0.940 . S
H260 C275 0.940 . S
H261 C277 0.939 . S
H262 C278 0.942 . S
H263 C280 0.940 . S
H264 C281 0.939 . S
H265 C283 0.941 . S
H266 C287 0.939 . S
O267 P256 1.490 . S
H268 C284 0.939 . S
H269 C286 0.940 . S
C270 P256 1.812 . S
C270 C271 1.389 . S
C270 C275 1.391 . S
C271 H257 0.941 . S
C271 C270 1.389 . S
C271 C272 1.397 . S
C272 H258 0.939 . S
C272 C271 1.397 . S
C272 C273 1.378 . S
C273 C272 1.378 . S
C273 C274 1.378 . S
C274 H259 0.940 . S
C274 C273 1.378 . S
C274 C275 1.396 . S
C275 H260 0.940 . S
C275 C270 1.391 . S
C275 C274 1.396 . S
C276 P256 1.803 . S
C276 C277 1.378 . S
C276 C281 1.400 . S
C277 H261 0.939 . S
C277 C276 1.378 . S
C277 C278 1.361 . S
C278 H262 0.942 . S
C278 C277 1.361 . S
C278 C279 1.369 . S
C279 C278 1.369 . S
C279 C280 1.404 . S
C280 H263 0.940 . S
C280 C279 1.404 . S
C280 C281 1.389 . S
C281 H264 0.939 . S
C281 C276 1.400 . S
C281 C280 1.389 . S
C282 P256 1.819 . S
C282 C283 1.391 . S
C282 C287 1.391 . S
C283 H265 0.941 . S
C283 C282 1.391 . S
C283 C284 1.396 . S
C284 H268 0.939 . S
C284 C283 1.396 . S
C284 C285 1.397 . S
C285 C284 1.397 . S
C285 C286 1.385 . S
C286 H269 0.940 . S
C286 C285 1.385 . S
C286 C287 1.388 . S
C287 H266 0.939 . S
C287 C282 1.391 . S
C287 C286 1.388 . S
P288 O299 1.490 . S
P288 C302 1.812 . S
P288 C308 1.803 . S
P288 C314 1.819 . S
H289 C303 0.941 . S
H290 C304 0.939 . S
H291 C306 0.940 . S
H292 C307 0.940 . S
H293 C309 0.939 . S
H294 C310 0.942 . S
H295 C312 0.940 . S
H296 C313 0.939 . S
H297 C315 0.941 . S
H298 C319 0.939 . S
O299 P288 1.490 . S
H300 C316 0.939 . S
H301 C318 0.940 . S
C302 P288 1.812 . S
C302 C303 1.389 . S
C302 C307 1.391 . S
C303 H289 0.941 . S
C303 C302 1.389 . S
C303 C304 1.397 . S
C304 H290 0.939 . S
C304 C303 1.397 . S
C304 C305 1.378 . S
C305 C304 1.378 . S
C305 C306 1.378 . S
C306 H291 0.940 . S
C306 C305 1.378 . S
C306 C307 1.396 . S
C307 H292 0.940 . S
C307 C302 1.391 . S
C307 C306 1.396 . S
C308 P288 1.803 . S
C308 C309 1.378 . S
C308 C313 1.400 . S
C309 H293 0.939 . S
C309 C308 1.378 . S
C309 C310 1.361 . S
C310 H294 0.942 . S
C310 C309 1.361 . S
C310 C311 1.369 . S
C311 C310 1.369 . S
C311 C312 1.404 . S
C312 H295 0.940 . S
C312 C311 1.404 . S
C312 C313 1.389 . S
C313 H296 0.939 . S
C313 C308 1.400 . S
C313 C312 1.389 . S
C314 P288 1.819 . S
C314 C315 1.391 . S
C314 C319 1.391 . S
C315 H297 0.941 . S
C315 C314 1.391 . S
C315 C316 1.396 . S
C316 H300 0.939 . S
C316 C315 1.396 . S
C316 C317 1.397 . S
C317 C316 1.397 . S
C317 C318 1.385 . S
C318 H301 0.940 . S
C318 C317 1.385 . S
C318 C319 1.388 . S
C319 H298 0.939 . S
C319 C314 1.391 . S
C319 C318 1.388 . S
P320 O331 1.490 . S
P320 C334 1.812 . S
P320 C340 1.803 . S
P320 C346 1.819 . S
H321 C335 0.941 . S
H322 C336 0.939 . S
H323 C338 0.940 . S
H324 C339 0.940 . S
H325 C341 0.939 . S
H326 C342 0.942 . S
H327 C344 0.940 . S
H328 C345 0.939 . S
H329 C347 0.941 . S
H330 C351 0.939 . S
O331 P320 1.490 . S
H332 C348 0.939 . S
H333 C350 0.940 . S
C334 P320 1.812 . S
C334 C335 1.389 . S
C334 C339 1.391 . S
C335 H321 0.941 . S
C335 C334 1.389 . S
C335 C336 1.397 . S
C336 H322 0.939 . S
C336 C335 1.397 . S
C336 C337 1.378 . S
C337 C336 1.378 . S
C337 C338 1.378 . S
C338 H323 0.940 . S
C338 C337 1.378 . S
C338 C339 1.396 . S
C339 H324 0.940 . S
C339 C334 1.391 . S
C339 C338 1.396 . S
C340 P320 1.803 . S
C340 C341 1.378 . S
C340 C345 1.400 . S
C341 H325 0.939 . S
C341 C340 1.378 . S
C341 C342 1.361 . S
C342 H326 0.942 . S
C342 C341 1.361 . S
C342 C343 1.369 . S
C343 C342 1.369 . S
C343 C344 1.404 . S
C344 H327 0.940 . S
C344 C343 1.404 . S
C344 C345 1.389 . S
C345 H328 0.939 . S
C345 C340 1.400 . S
C345 C344 1.389 . S
C346 P320 1.819 . S
C346 C347 1.391 . S
C346 C351 1.391 . S
C347 H329 0.941 . S
C347 C346 1.391 . S
C347 C348 1.396 . S
C348 H332 0.939 . S
C348 C347 1.396 . S
C348 C349 1.397 . S
C349 C348 1.397 . S
C349 C350 1.385 . S
C350 H333 0.940 . S
C350 C349 1.385 . S
C350 C351 1.388 . S
C351 H330 0.939 . S
C351 C346 1.391 . S
C351 C350 1.388 . S
P352 O363 1.490 . S
P352 C366 1.812 . S
P352 C372 1.803 . S
P352 C378 1.819 . S
H353 C367 0.941 . S
H354 C368 0.939 . S
H355 C370 0.940 . S
H356 C371 0.940 . S
H357 C373 0.939 . S
H358 C374 0.942 . S
H359 C376 0.940 . S
H360 C377 0.939 . S
H361 C379 0.941 . S
H362 C383 0.939 . S
O363 P352 1.490 . S
H364 C380 0.939 . S
H365 C382 0.940 . S
C366 P352 1.812 . S
C366 C367 1.389 . S
C366 C371 1.391 . S
C367 H353 0.941 . S
C367 C366 1.389 . S
C367 C368 1.397 . S
C368 H354 0.939 . S
C368 C367 1.397 . S
C368 C369 1.378 . S
C369 C368 1.378 . S
C369 C370 1.378 . S
C370 H355 0.940 . S
C370 C369 1.378 . S
C370 C371 1.396 . S
C371 H356 0.940 . S
C371 C366 1.391 . S
C371 C370 1.396 . S
C372 P352 1.803 . S
C372 C373 1.378 . S
C372 C377 1.400 . S
C373 H357 0.939 . S
C373 C372 1.378 . S
C373 C374 1.361 . S
C374 H358 0.942 . S
C374 C373 1.361 . S
C374 C375 1.369 . S
C375 C374 1.369 . S
C375 C376 1.404 . S
C376 H359 0.940 . S
C376 C375 1.404 . S
C376 C377 1.389 . S
C377 H360 0.939 . S
C377 C372 1.400 . S
C377 C376 1.389 . S
C378 P352 1.819 . S
C378 C379 1.391 . S
C378 C383 1.391 . S
C379 H361 0.941 . S
C379 C378 1.391 . S
C379 C380 1.396 . S
C380 H364 0.939 . S
C380 C379 1.396 . S
C380 C381 1.397 . S
C381 C380 1.397 . S
C381 C382 1.385 . S
C382 H365 0.940 . S
C382 C381 1.385 . S
C382 C383 1.388 . S
C383 H362 0.939 . S
C383 C378 1.391 . S
C383 C382 1.388 . S
P384 O395 1.490 . S
P384 C398 1.812 . S
P384 C404 1.803 . S
P384 C410 1.819 . S
H385 C399 0.941 . S
H386 C400 0.939 . S
H387 C402 0.940 . S
H388 C403 0.940 . S
H389 C405 0.939 . S
H390 C406 0.942 . S
H391 C408 0.940 . S
H392 C409 0.939 . S
H393 C411 0.941 . S
H394 C415 0.939 . S
O395 P384 1.490 . S
H396 C412 0.939 . S
H397 C414 0.940 . S
C398 P384 1.812 . S
C398 C399 1.389 . S
C398 C403 1.391 . S
C399 H385 0.941 . S
C399 C398 1.389 . S
C399 C400 1.397 . S
C400 H386 0.939 . S
C400 C399 1.397 . S
C400 C401 1.378 . S
C401 C400 1.378 . S
C401 C402 1.378 . S
C402 H387 0.940 . S
C402 C401 1.378 . S
C402 C403 1.396 . S
C403 H388 0.940 . S
C403 C398 1.391 . S
C403 C402 1.396 . S
C404 P384 1.803 . S
C404 C405 1.378 . S
C404 C409 1.400 . S
C405 H389 0.939 . S
C405 C404 1.378 . S
C405 C406 1.361 . S
C406 H390 0.942 . S
C406 C405 1.361 . S
C406 C407 1.369 . S
C407 C406 1.369 . S
C407 C408 1.404 . S
C408 H391 0.940 . S
C408 C407 1.404 . S
C408 C409 1.389 . S
C409 H392 0.939 . S
C409 C404 1.400 . S
C409 C408 1.389 . S
C410 P384 1.819 . S
C410 C411 1.391 . S
C410 C415 1.391 . S
C411 H393 0.941 . S
C411 C410 1.391 . S
C411 C412 1.396 . S
C412 H396 0.939 . S
C412 C411 1.396 . S
C412 C413 1.397 . S
C413 C412 1.397 . S
C413 C414 1.385 . S
C414 H397 0.940 . S
C414 C413 1.385 . S
C414 C415 1.388 . S
C415 H394 0.939 . S
C415 C410 1.391 . S
C415 C414 1.388 . S
P416 O427 1.490 . S
P416 C430 1.812 . S
P416 C436 1.803 . S
P416 C442 1.819 . S
H417 C431 0.941 . S
H418 C432 0.939 . S
H419 C434 0.940 . S
H420 C435 0.940 . S
H421 C437 0.939 . S
H422 C438 0.942 . S
H423 C440 0.940 . S
H424 C441 0.939 . S
H425 C443 0.941 . S
H426 C447 0.939 . S
O427 P416 1.490 . S
H428 C444 0.939 . S
H429 C446 0.940 . S
C430 P416 1.812 . S
C430 C431 1.389 . S
C430 C435 1.391 . S
C431 H417 0.941 . S
C431 C430 1.389 . S
C431 C432 1.397 . S
C432 H418 0.939 . S
C432 C431 1.397 . S
C432 C433 1.378 . S
C433 C432 1.378 . S
C433 C434 1.378 . S
C434 H419 0.940 . S
C434 C433 1.378 . S
C434 C435 1.396 . S
C435 H420 0.940 . S
C435 C430 1.391 . S
C435 C434 1.396 . S
C436 P416 1.803 . S
C436 C437 1.378 . S
C436 C441 1.400 . S
C437 H421 0.939 . S
C437 C436 1.378 . S
C437 C438 1.361 . S
C438 H422 0.942 . S
C438 C437 1.361 . S
C438 C439 1.369 . S
C439 C438 1.369 . S
C439 C440 1.404 . S
C440 H423 0.940 . S
C440 C439 1.404 . S
C440 C441 1.389 . S
C441 H424 0.939 . S
C441 C436 1.400 . S
C441 C440 1.389 . S
C442 P416 1.819 . S
C442 C443 1.391 . S
C442 C447 1.391 . S
C443 H425 0.941 . S
C443 C442 1.391 . S
C443 C444 1.396 . S
C444 H428 0.939 . S
C444 C443 1.396 . S
C444 C445 1.397 . S
C445 C444 1.397 . S
C445 C446 1.385 . S
C446 H429 0.940 . S
C446 C445 1.385 . S
C446 C447 1.388 . S
C447 H426 0.939 . S
C447 C442 1.391 . S
C447 C446 1.388 . S
P448 O459 1.490 . S
P448 C462 1.812 . S
P448 C468 1.803 . S
P448 C474 1.819 . S
H449 C463 0.941 . S
H450 C464 0.939 . S
H451 C466 0.940 . S
H452 C467 0.940 . S
H453 C469 0.939 . S
H454 C470 0.942 . S
H455 C472 0.940 . S
H456 C473 0.939 . S
H457 C475 0.941 . S
H458 C479 0.939 . S
O459 P448 1.490 . S
H460 C476 0.939 . S
H461 C478 0.940 . S
C462 P448 1.812 . S
C462 C463 1.389 . S
C462 C467 1.391 . S
C463 H449 0.941 . S
C463 C462 1.389 . S
C463 C464 1.397 . S
C464 H450 0.939 . S
C464 C463 1.397 . S
C464 C465 1.378 . S
C465 C464 1.378 . S
C465 C466 1.378 . S
C466 H451 0.940 . S
C466 C465 1.378 . S
C466 C467 1.396 . S
C467 H452 0.940 . S
C467 C462 1.391 . S
C467 C466 1.396 . S
C468 P448 1.803 . S
C468 C469 1.378 . S
C468 C473 1.400 . S
C469 H453 0.939 . S
C469 C468 1.378 . S
C469 C470 1.361 . S
C470 H454 0.942 . S
C470 C469 1.361 . S
C470 C471 1.369 . S
C471 C470 1.369 . S
C471 C472 1.404 . S
C472 H455 0.940 . S
C472 C471 1.404 . S
C472 C473 1.389 . S
C473 H456 0.939 . S
C473 C468 1.400 . S
C473 C472 1.389 . S
C474 P448 1.819 . S
C474 C475 1.391 . S
C474 C479 1.391 . S
C475 H457 0.941 . S
C475 C474 1.391 . S
C475 C476 1.396 . S
C476 H460 0.939 . S
C476 C475 1.396 . S
C476 C477 1.397 . S
C477 C476 1.397 . S
C477 C478 1.385 . S
C478 H461 0.940 . S
C478 C477 1.385 . S
C478 C479 1.388 . S
C479 H458 0.939 . S
C479 C474 1.391 . S
C479 C478 1.388 . S
P480 O491 1.490 . S
P480 C494 1.812 . S
P480 C500 1.803 . S
P480 C506 1.819 . S
H481 C495 0.941 . S
H482 C496 0.939 . S
H483 C498 0.940 . S
H484 C499 0.940 . S
H485 C501 0.939 . S
H486 C502 0.942 . S
H487 C504 0.940 . S
H488 C505 0.939 . S
H489 C507 0.941 . S
H490 C511 0.939 . S
O491 P480 1.490 . S
H492 C508 0.939 . S
H493 C510 0.940 . S
C494 P480 1.812 . S
C494 C495 1.389 . S
C494 C499 1.391 . S
C495 H481 0.941 . S
C495 C494 1.389 . S
C495 C496 1.397 . S
C496 H482 0.939 . S
C496 C495 1.397 . S
C496 C497 1.378 . S
C497 C496 1.378 . S
C497 C498 1.378 . S
C498 H483 0.940 . S
C498 C497 1.378 . S
C498 C499 1.396 . S
C499 H484 0.940 . S
C499 C494 1.391 . S
C499 C498 1.396 . S
C500 P480 1.803 . S
C500 C501 1.378 . S
C500 C505 1.400 . S
C501 H485 0.939 . S
C501 C500 1.378 . S
C501 C502 1.361 . S
C502 H486 0.942 . S
C502 C501 1.361 . S
C502 C503 1.369 . S
C503 C502 1.369 . S
C503 C504 1.404 . S
C504 H487 0.940 . S
C504 C503 1.404 . S
C504 C505 1.389 . S
C505 H488 0.939 . S
C505 C500 1.400 . S
C505 C504 1.389 . S
C506 P480 1.819 . S
C506 C507 1.391 . S
C506 C511 1.391 . S
C507 H489 0.941 . S
C507 C506 1.391 . S
C507 C508 1.396 . S
C508 H492 0.939 . S
C508 C507 1.396 . S
C508 C509 1.397 . S
C509 C508 1.397 . S
C509 C510 1.385 . S
C510 H493 0.940 . S
C510 C509 1.385 . S
C510 C511 1.388 . S
C511 H490 0.939 . S
C511 C506 1.391 . S
C511 C510 1.388 . S
P512 O523 1.490 . S
P512 C526 1.812 . S
P512 C532 1.803 . S
P512 C538 1.819 . S
H513 C527 0.941 . S
H514 C528 0.939 . S
H515 C530 0.940 . S
H516 C531 0.940 . S
H517 C533 0.939 . S
H518 C534 0.942 . S
H519 C536 0.940 . S
H520 C537 0.939 . S
H521 C539 0.941 . S
H522 C543 0.939 . S
O523 P512 1.490 . S
H524 C540 0.939 . S
H525 C542 0.940 . S
C526 P512 1.812 . S
C526 C527 1.389 . S
C526 C531 1.391 . S
C527 H513 0.941 . S
C527 C526 1.389 . S
C527 C528 1.397 . S
C528 H514 0.939 . S
C528 C527 1.397 . S
C528 C529 1.378 . S
C529 C528 1.378 . S
C529 C530 1.378 . S
C530 H515 0.940 . S
C530 C529 1.378 . S
C530 C531 1.396 . S
C531 H516 0.940 . S
C531 C526 1.391 . S
C531 C530 1.396 . S
C532 P512 1.803 . S
C532 C533 1.378 . S
C532 C537 1.400 . S
C533 H517 0.939 . S
C533 C532 1.378 . S
C533 C534 1.361 . S
C534 H518 0.942 . S
C534 C533 1.361 . S
C534 C535 1.369 . S
C535 C534 1.369 . S
C535 C536 1.404 . S
C536 H519 0.940 . S
C536 C535 1.404 . S
C536 C537 1.389 . S
C537 H520 0.939 . S
C537 C532 1.400 . S
C537 C536 1.389 . S
C538 P512 1.819 . S
C538 C539 1.391 . S
C538 C543 1.391 . S
C539 H521 0.941 . S
C539 C538 1.391 . S
C539 C540 1.396 . S
C540 H524 0.939 . S
C540 C539 1.396 . S
C540 C541 1.397 . S
C541 C540 1.397 . S
C541 C542 1.385 . S
C542 H525 0.940 . S
C542 C541 1.385 . S
C542 C543 1.388 . S
C543 H522 0.939 . S
C543 C538 1.391 . S
C543 C542 1.388 . S
P544 O555 1.490 . S
P544 C558 1.812 . S
P544 C564 1.803 . S
P544 C570 1.819 . S
H545 C559 0.941 . S
H546 C560 0.939 . S
H547 C562 0.940 . S
H548 C563 0.940 . S
H549 C565 0.939 . S
H550 C566 0.942 . S
H551 C568 0.940 . S
H552 C569 0.939 . S
H553 C571 0.941 . S
H554 C575 0.939 . S
O555 P544 1.490 . S
H556 C572 0.939 . S
H557 C574 0.940 . S
C558 P544 1.812 . S
C558 C559 1.389 . S
C558 C563 1.391 . S
C559 H545 0.941 . S
C559 C558 1.389 . S
C559 C560 1.397 . S
C560 H546 0.939 . S
C560 C559 1.397 . S
C560 C561 1.378 . S
C561 C560 1.378 . S
C561 C562 1.378 . S
C562 H547 0.940 . S
C562 C561 1.378 . S
C562 C563 1.396 . S
C563 H548 0.940 . S
C563 C558 1.391 . S
C563 C562 1.396 . S
C564 P544 1.803 . S
C564 C565 1.378 . S
C564 C569 1.400 . S
C565 H549 0.939 . S
C565 C564 1.378 . S
C565 C566 1.361 . S
C566 H550 0.942 . S
C566 C565 1.361 . S
C566 C567 1.369 . S
C567 C566 1.369 . S
C567 C568 1.404 . S
C568 H551 0.940 . S
C568 C567 1.404 . S
C568 C569 1.389 . S
C569 H552 0.939 . S
C569 C564 1.400 . S
C569 C568 1.389 . S
C570 P544 1.819 . S
C570 C571 1.391 . S
C570 C575 1.391 . S
C571 H553 0.941 . S
C571 C570 1.391 . S
C571 C572 1.396 . S
C572 H556 0.939 . S
C572 C571 1.396 . S
C572 C573 1.397 . S
C573 C572 1.397 . S
C573 C574 1.385 . S
C574 H557 0.940 . S
C574 C573 1.385 . S
C574 C575 1.388 . S
C575 H554 0.939 . S
C575 C570 1.391 . S
C575 C574 1.388 . S
Tb576 O579 2.453 . S
Tb576 O580 2.596 1_545 S
Tb576 O581 2.374 1_545 S
Tb576 O589 2.343 1_554 S
Tb576 O591 2.353 . S
Tb576 O593 2.427 1_554 S
Tb576 O594 2.513 1_554 S
C577 O581 1.251 . S
C577 O583 1.259 1_554 S
Tb578 O580 2.343 1_556 S
Tb578 O583 2.355 . S
Tb578 O586 2.427 1_556 S
Tb578 O587 2.513 1_556 S
Tb578 O588 2.453 . S
Tb578 O589 2.596 1_565 S
Tb578 O590 2.374 1_565 S
O579 Tb576 2.453 . S
O579 C595 1.245 . S
O580 Tb576 2.596 1_565 S
O580 Tb578 2.343 1_554 S
O580 C595 1.259 1_565 S
O581 Tb576 2.374 1_565 S
O581 C577 1.251 . S
C582 O586 1.275 . S
C582 O587 1.246 . S
O583 C577 1.259 1_556 S
O583 Tb578 2.355 . S
C584 O588 1.251 . S
C584 O589 1.258 1_565 S
C585 O590 1.250 . S
C585 O591 1.263 1_556 S
O586 Tb578 2.427 1_554 S
O586 C582 1.275 . S
O587 Tb578 2.513 1_554 S
O587 C582 1.246 . S
O588 Tb578 2.453 . S
O588 C584 1.251 . S
O589 Tb576 2.343 1_556 S
O589 Tb578 2.596 1_545 S
O589 C584 1.258 1_545 S
O590 Tb578 2.374 1_545 S
O590 C585 1.250 . S
O591 Tb576 2.353 . S
O591 C585 1.263 1_554 S
C592 O593 1.275 . S
C592 O594 1.246 . S
O593 Tb576 2.427 1_556 S
O593 C592 1.275 . S
O594 Tb576 2.513 1_556 S
O594 C592 1.246 . S
C595 O579 1.245 . S
C595 O580 1.259 1_545 S
Tb596 O599 2.453 . S
Tb596 O600 2.596 1_655 S
Tb596 O601 2.374 1_655 S
Tb596 O609 2.343 1_554 S
Tb596 O611 2.353 . S
Tb596 O613 2.427 1_554 S
Tb596 O614 2.513 1_554 S
C597 O601 1.251 . S
C597 O603 1.263 . S
Tb598 O600 2.343 1_556 S
Tb598 O603 2.353 1_556 S
Tb598 O606 2.427 1_556 S
Tb598 O607 2.513 1_556 S
Tb598 O608 2.453 . S
Tb598 O609 2.596 1_455 S
Tb598 O610 2.374 1_455 S
O599 Tb596 2.453 . S
O599 C615 1.245 1_655 S
O600 Tb596 2.596 1_455 S
O600 Tb598 2.343 1_554 S
O600 C615 1.259 . S
O601 Tb596 2.374 1_455 S
O601 C597 1.251 . S
C602 O606 1.275 . S
C602 O607 1.246 . S
O603 C597 1.263 . S
O603 Tb598 2.353 1_554 S
C604 O608 1.201 1_655 S
C604 O609 1.276 . S
C605 O610 1.250 . S
C605 O611 1.263 1_556 S
O606 Tb598 2.427 1_554 S
O606 C602 1.275 . S
O607 Tb598 2.513 1_554 S
O607 C602 1.246 . S
O608 Tb598 2.453 . S
O608 C604 1.201 1_455 S
O609 Tb596 2.343 1_556 S
O609 Tb598 2.596 1_655 S
O609 C604 1.276 . S
O610 Tb598 2.374 1_655 S
O610 C605 1.250 . S
O611 Tb596 2.353 . S
O611 C605 1.263 1_554 S
C612 O613 1.275 . S
C612 O614 1.246 . S
O613 Tb596 2.427 1_556 S
O613 C612 1.275 . S
O614 Tb596 2.513 1_556 S
O614 C612 1.246 . S
C615 O599 1.245 1_455 S
C615 O600 1.259 . S
Tb616 O619 2.453 . S
Tb616 O620 2.596 . S
Tb616 O621 2.374 . S
Tb616 O629 2.343 1_556 S
Tb616 O631 2.353 1_556 S
Tb616 O633 2.427 1_556 S
Tb616 O634 2.513 1_556 S
C617 O621 1.251 . S
C617 O623 1.263 1_556 S
Tb618 O620 2.343 1_554 S
Tb618 O623 2.353 . S
Tb618 O626 2.427 1_554 S
Tb618 O627 2.513 1_554 S
Tb618 O628 2.453 . S
Tb618 O629 2.596 . S
Tb618 O630 2.374 . S
O619 Tb616 2.453 . S
O619 C635 1.245 . S
O620 Tb616 2.596 . S
O620 Tb618 2.343 1_556 S
O620 C635 1.259 . S
O621 Tb616 2.374 . S
O621 C617 1.251 . S
C622 O626 1.275 . S
C622 O627 1.246 . S
O623 C617 1.263 1_554 S
O623 Tb618 2.353 . S
C624 O628 1.245 . S
C624 O629 1.259 . S
C625 O630 1.250 . S
C625 O631 1.263 . S
O626 Tb618 2.427 1_556 S
O626 C622 1.275 . S
O627 Tb618 2.513 1_556 S
O627 C622 1.246 . S
O628 Tb618 2.453 . S
O628 C624 1.245 . S
O629 Tb616 2.343 1_554 S
O629 Tb618 2.596 . S
O629 C624 1.259 . S
O630 Tb618 2.374 . S
O630 C625 1.250 . S
O631 Tb616 2.353 1_554 S
O631 C625 1.263 . S
C632 O633 1.275 . S
C632 O634 1.246 . S
O633 Tb616 2.427 1_554 S
O633 C632 1.275 . S
O634 Tb616 2.513 1_554 S
O634 C632 1.246 . S
C635 O619 1.245 . S
C635 O620 1.259 . S
Tb636 O639 2.453 . S
Tb636 O640 2.596 . S
Tb636 O641 2.374 . S
Tb636 O649 2.343 . S
Tb636 O651 2.353 . S
Tb636 O653 2.427 . S
Tb636 O654 2.513 . S
C637 O641 1.251 . S
C637 O643 1.263 . S
Tb638 O640 2.343 . S
Tb638 O643 2.353 . S
Tb638 O646 2.427 . S
Tb638 O647 2.513 . S
Tb638 O648 2.453 . S
Tb638 O649 2.596 . S
Tb638 O650 2.374 . S
O639 Tb636 2.453 . S
O639 C655 1.245 . S
O640 Tb636 2.596 . S
O640 Tb638 2.343 . S
O640 C655 1.259 . S
O641 Tb636 2.374 . S
O641 C637 1.251 . S
C642 O646 1.275 . S
C642 O647 1.246 . S
O643 C637 1.263 . S
O643 Tb638 2.353 . S
C644 O648 1.245 . S
C644 O649 1.259 . S
C645 O650 1.250 . S
C645 O651 1.263 . S
O646 Tb638 2.427 . S
O646 C642 1.275 . S
O647 Tb638 2.513 . S
O647 C642 1.246 . S
O648 Tb638 2.453 . S
O648 C644 1.245 . S
O649 Tb636 2.343 . S
O649 Tb638 2.596 . S
O649 C644 1.259 . S
O650 Tb638 2.374 . S
O650 C645 1.250 . S
O651 Tb636 2.353 . S
O651 C645 1.263 . S
C652 O653 1.275 . S
C652 O654 1.246 . S
O653 Tb636 2.427 . S
O653 C652 1.275 . S
O654 Tb636 2.513 . S
O654 C652 1.246 . S
C655 O639 1.245 . S
C655 O640 1.259 . S
Tb656 O659 2.453 . S
Tb656 O660 2.596 . S
Tb656 O661 2.374 . S
Tb656 O669 2.343 . S
Tb656 O671 2.353 . S
Tb656 O673 2.427 . S
Tb656 O674 2.513 . S
C657 O661 1.251 . S
C657 O663 1.263 . S
Tb658 O660 2.343 . S
Tb658 O663 2.353 . S
Tb658 O666 2.427 . S
Tb658 O667 2.513 . S
Tb658 O668 2.453 . S
Tb658 O669 2.596 . S
Tb658 O670 2.374 . S
O659 Tb656 2.453 . S
O659 C675 1.245 . S
O660 Tb656 2.596 . S
O660 Tb658 2.343 . S
O660 C675 1.259 . S
O661 Tb656 2.374 . S
O661 C657 1.251 . S
C662 O666 1.275 . S
C662 O667 1.246 . S
O663 C657 1.263 . S
O663 Tb658 2.353 . S
C664 O668 1.245 . S
C664 O669 1.259 . S
C665 O670 1.250 . S
C665 O671 1.263 . S
O666 Tb658 2.427 . S
O666 C662 1.275 . S
O667 Tb658 2.513 . S
O667 C662 1.246 . S
O668 Tb658 2.453 . S
O668 C664 1.245 . S
O669 Tb656 2.343 . S
O669 Tb658 2.596 . S
O669 C664 1.259 . S
O670 Tb658 2.374 . S
O670 C665 1.250 . S
O671 Tb656 2.353 . S
O671 C665 1.263 . S
C672 O673 1.275 . S
C672 O674 1.246 . S
O673 Tb656 2.427 . S
O673 C672 1.275 . S
O674 Tb656 2.513 . S
O674 C672 1.246 . S
C675 O659 1.245 . S
C675 O660 1.259 . S
Tb676 O679 2.453 . S
Tb676 O680 2.596 . S
Tb676 O681 2.374 . S
Tb676 O689 2.343 . S
Tb676 O691 2.353 . S
Tb676 O693 2.427 . S
Tb676 O694 2.513 . S
C677 O681 1.251 . S
C677 O683 1.263 . S
Tb678 O680 2.343 . S
Tb678 O683 2.353 . S
Tb678 O686 2.427 . S
Tb678 O687 2.513 . S
Tb678 O688 2.453 . S
Tb678 O689 2.596 . S
Tb678 O690 2.374 . S
O679 Tb676 2.453 . S
O679 C695 1.245 . S
O680 Tb676 2.596 . S
O680 Tb678 2.343 . S
O680 C695 1.259 . S
O681 Tb676 2.374 . S
O681 C677 1.251 . S
C682 O686 1.275 . S
C682 O687 1.246 . S
O683 C677 1.263 . S
O683 Tb678 2.353 . S
C684 O688 1.245 . S
C684 O689 1.259 . S
C685 O690 1.250 . S
C685 O691 1.263 . S
O686 Tb678 2.427 . S
O686 C682 1.275 . S
O687 Tb678 2.513 . S
O687 C682 1.246 . S
O688 Tb678 2.453 . S
O688 C684 1.245 . S
O689 Tb676 2.343 . S
O689 Tb678 2.596 . S
O689 C684 1.259 . S
O690 Tb678 2.374 . S
O690 C685 1.250 . S
O691 Tb676 2.353 . S
O691 C685 1.263 . S
C692 O693 1.275 . S
C692 O694 1.246 . S
O693 Tb676 2.427 . S
O693 C692 1.275 . S
O694 Tb676 2.513 . S
O694 C692 1.246 . S
C695 O679 1.245 . S
C695 O680 1.259 . S
Tb696 O699 2.453 . S
Tb696 O700 2.596 . S
Tb696 O701 2.374 . S
Tb696 O709 2.343 . S
Tb696 O711 2.353 . S
Tb696 O713 2.427 . S
Tb696 O714 2.513 . S
C697 O701 1.251 . S
C697 O703 1.263 . S
Tb698 O700 2.343 . S
Tb698 O703 2.353 . S
Tb698 O706 2.427 . S
Tb698 O707 2.513 . S
Tb698 O708 2.453 . S
Tb698 O709 2.596 . S
Tb698 O710 2.374 . S
O699 Tb696 2.453 . S
O699 C715 1.245 . S
O700 Tb696 2.596 . S
O700 Tb698 2.343 . S
O700 C715 1.259 . S
O701 Tb696 2.374 . S
O701 C697 1.251 . S
C702 O706 1.275 . S
C702 O707 1.246 . S
O703 C697 1.263 . S
O703 Tb698 2.353 . S
C704 O708 1.245 . S
C704 O709 1.259 . S
C705 O710 1.250 . S
C705 O711 1.263 . S
O706 Tb698 2.427 . S
O706 C702 1.275 . S
O707 Tb698 2.513 . S
O707 C702 1.246 . S
O708 Tb698 2.453 . S
O708 C704 1.245 . S
O709 Tb696 2.343 . S
O709 Tb698 2.596 . S
O709 C704 1.259 . S
O710 Tb698 2.374 . S
O710 C705 1.250 . S
O711 Tb696 2.353 . S
O711 C705 1.263 . S
C712 O713 1.275 . S
C712 O714 1.246 . S
O713 Tb696 2.427 . S
O713 C712 1.275 . S
O714 Tb696 2.513 . S
O714 C712 1.246 . S
C715 O699 1.245 . S
C715 O700 1.259 . S
Tb716 O719 2.453 . S
Tb716 O720 2.596 . S
Tb716 O721 2.374 . S
Tb716 O729 2.343 . S
Tb716 O731 2.353 . S
Tb716 O733 2.427 . S
Tb716 O734 2.513 . S
C717 O721 1.251 . S
C717 O723 1.263 . S
Tb718 O720 2.343 . S
Tb718 O723 2.353 . S
Tb718 O726 2.427 . S
Tb718 O727 2.513 . S
Tb718 O728 2.453 . S
Tb718 O729 2.596 . S
Tb718 O730 2.374 . S
O719 Tb716 2.453 . S
O719 C735 1.245 . S
O720 Tb716 2.596 . S
O720 Tb718 2.343 . S
O720 C735 1.259 . S
O721 Tb716 2.374 . S
O721 C717 1.251 . S
C722 O726 1.275 . S
C722 O727 1.246 . S
O723 C717 1.263 . S
O723 Tb718 2.353 . S
C724 O728 1.245 . S
C724 O729 1.259 . S
C725 O730 1.250 . S
C725 O731 1.263 . S
O726 Tb718 2.427 . S
O726 C722 1.275 . S
O727 Tb718 2.513 . S
O727 C722 1.246 . S
O728 Tb718 2.453 . S
O728 C724 1.245 . S
O729 Tb716 2.343 . S
O729 Tb718 2.596 . S
O729 C724 1.259 . S
O730 Tb718 2.374 . S
O730 C725 1.250 . S
O731 Tb716 2.353 . S
O731 C725 1.263 . S
C732 O733 1.275 . S
C732 O734 1.246 . S
O733 Tb716 2.427 . S
O733 C732 1.275 . S
O734 Tb716 2.513 . S
O734 C732 1.246 . S
C735 O719 1.245 . S
C735 O720 1.259 . S
Tb736 O739 2.453 . S
Tb736 O740 2.596 . S
Tb736 O741 2.374 . S
Tb736 O749 2.343 . S
Tb736 O751 2.353 . S
Tb736 O753 2.427 . S
Tb736 O754 2.513 . S
C737 O741 1.251 . S
C737 O743 1.263 . S
Tb738 O740 2.343 . S
Tb738 O743 2.353 . S
Tb738 O746 2.427 . S
Tb738 O747 2.513 . S
Tb738 O748 2.453 . S
Tb738 O749 2.596 . S
Tb738 O750 2.374 . S
O739 Tb736 2.453 . S
O739 C755 1.245 . S
O740 Tb736 2.596 . S
O740 Tb738 2.343 . S
O740 C755 1.259 . S
O741 Tb736 2.374 . S
O741 C737 1.251 . S
C742 O746 1.275 . S
C742 O747 1.246 . S
O743 C737 1.263 . S
O743 Tb738 2.353 . S
C744 O748 1.245 . S
C744 O749 1.259 . S
C745 O750 1.250 . S
C745 O751 1.263 . S
O746 Tb738 2.427 . S
O746 C742 1.275 . S
O747 Tb738 2.513 . S
O747 C742 1.246 . S
O748 Tb738 2.453 . S
O748 C744 1.245 . S
O749 Tb736 2.343 . S
O749 Tb738 2.596 . S
O749 C744 1.259 . S
O750 Tb738 2.374 . S
O750 C745 1.250 . S
O751 Tb736 2.353 . S
O751 C745 1.263 . S
C752 O753 1.275 . S
C752 O754 1.246 . S
O753 Tb736 2.427 . S
O753 C752 1.275 . S
O754 Tb736 2.513 . S
O754 C752 1.246 . S
C755 O739 1.245 . S
C755 O740 1.259 . S
H756 C762 0.930 . S
H757 C765 0.930 . S
H758 C766 0.930 . S
H759 C767 0.930 . S
H760 C770 0.930 . S
H761 C771 0.930 . S
C762 H756 0.930 . S
C762 C763 1.355 . S
C762 C764 1.415 . S
C763 C762 1.355 . S
C763 C765 1.419 . S
C764 C762 1.415 . S
C764 C769 1.425 . S
C764 C771 1.409 . S
C765 H757 0.930 . S
C765 C763 1.419 . S
C765 C766 1.362 . S
C766 H758 0.930 . S
C766 C765 1.362 . S
C766 C769 1.409 . S
C767 H759 0.930 . S
C767 C768 1.355 . S
C767 C769 1.415 . S
C768 C767 1.355 . S
C768 C770 1.419 . S
C769 C764 1.425 . S
C769 C766 1.409 . S
C769 C767 1.415 . S
C770 H760 0.930 . S
C770 C768 1.419 . S
C770 C771 1.362 . S
C771 H761 0.930 . S
C771 C764 1.409 . S
C771 C770 1.362 . S
H772 C778 0.930 . S
H773 C781 0.930 . S
H774 C782 0.930 . S
H775 C783 0.930 . S
H776 C786 0.930 . S
H777 C787 0.930 . S
C778 H772 0.930 . S
C778 C779 1.355 . S
C778 C780 1.415 . S
C779 C778 1.355 . S
C779 C781 1.419 . S
C780 C778 1.415 . S
C780 C785 1.425 . S
C780 C787 1.409 . S
C781 H773 0.930 . S
C781 C779 1.419 . S
C781 C782 1.362 . S
C782 H774 0.930 . S
C782 C781 1.362 . S
C782 C785 1.409 . S
C783 H775 0.930 . S
C783 C784 1.355 . S
C783 C785 1.415 . S
C784 C783 1.355 . S
C784 C786 1.419 . S
C785 C780 1.425 . S
C785 C782 1.409 . S
C785 C783 1.415 . S
C786 H776 0.930 . S
C786 C784 1.419 . S
C786 C787 1.362 . S
C787 H777 0.930 . S
C787 C780 1.409 . S
C787 C786 1.362 . S
H788 C794 0.930 . S
H789 C797 0.930 . S
H790 C798 0.930 . S
H791 C799 0.930 . S
H792 C802 0.930 . S
H793 C803 0.930 . S
C794 H788 0.930 . S
C794 C795 1.355 . S
C794 C796 1.415 . S
C795 C794 1.355 . S
C795 C797 1.419 . S
C796 C794 1.415 . S
C796 C801 1.425 . S
C796 C803 1.409 . S
C797 H789 0.930 . S
C797 C795 1.419 . S
C797 C798 1.362 . S
C798 H790 0.930 . S
C798 C797 1.362 . S
C798 C801 1.409 . S
C799 H791 0.930 . S
C799 C800 1.355 . S
C799 C801 1.415 . S
C800 C799 1.355 . S
C800 C802 1.419 . S
C801 C796 1.425 . S
C801 C798 1.409 . S
C801 C799 1.415 . S
C802 H792 0.930 . S
C802 C800 1.419 . S
C802 C803 1.362 . S
C803 H793 0.930 . S
C803 C796 1.409 . S
C803 C802 1.362 . S
H804 C810 0.930 . S
H805 C813 0.930 . S
H806 C814 0.930 1_554 S
H807 C815 0.930 1_554 S
H808 C818 0.930 . S
H809 C819 0.930 . S
C810 H804 0.930 . S
C810 C811 1.355 . S
C810 C812 1.415 . S
C811 C810 1.355 . S
C811 C813 1.419 . S
C812 C810 1.415 . S
C812 C817 1.425 . S
C812 C819 1.409 . S
C813 H805 0.930 . S
C813 C811 1.419 . S
C813 C814 1.362 . S
C814 H806 0.930 1_556 S
C814 C813 1.362 . S
C814 C817 1.409 . S
C815 H807 0.930 1_556 S
C815 C816 1.355 . S
C815 C817 1.415 . S
C816 C815 1.355 . S
C816 C818 1.419 . S
C817 C812 1.425 . S
C817 C814 1.409 . S
C817 C815 1.415 . S
C818 H808 0.930 . S
C818 C816 1.419 . S
C818 C819 1.362 . S
C819 H809 0.930 . S
C819 C812 1.409 . S
C819 C818 1.362 . S
H820 C826 0.930 . S
H821 C829 0.930 . S
H822 C830 0.930 . S
H823 C831 0.930 . S
H824 C834 0.930 . S
H825 C835 0.930 . S
C826 H820 0.930 . S
C826 C827 1.355 . S
C826 C828 1.415 . S
C827 C826 1.355 . S
C827 C829 1.419 . S
C828 C826 1.415 . S
C828 C833 1.425 . S
C828 C835 1.409 . S
C829 H821 0.930 . S
C829 C827 1.419 . S
C829 C830 1.362 . S
C830 H822 0.930 . S
C830 C829 1.362 . S
C830 C833 1.409 . S
C831 H823 0.930 . S
C831 C832 1.355 . S
C831 C833 1.415 . S
C832 C831 1.355 . S
C832 C834 1.419 . S
C833 C828 1.425 . S
C833 C830 1.409 . S
C833 C831 1.415 . S
C834 H824 0.930 . S
C834 C832 1.419 . S
C834 C835 1.362 . S
C835 H825 0.930 . S
C835 C828 1.409 . S
C835 C834 1.362 . S
H836 C842 0.930 . S
H837 C845 0.930 . S
H838 C846 0.930 . S
H839 C847 0.930 . S
H840 C850 0.930 . S
H841 C851 0.930 . S
C842 H836 0.930 . S
C842 C843 1.355 . S
C842 C844 1.415 . S
C843 C842 1.355 . S
C843 C845 1.419 . S
C844 C842 1.415 . S
C844 C849 1.425 . S
C844 C851 1.409 . S
C845 H837 0.930 . S
C845 C843 1.419 . S
C845 C846 1.362 . S
C846 H838 0.930 . S
C846 C845 1.362 . S
C846 C849 1.409 . S
C847 H839 0.930 . S
C847 C848 1.355 . S
C847 C849 1.415 . S
C848 C847 1.355 . S
C848 C850 1.419 . S
C849 C844 1.425 . S
C849 C846 1.409 . S
C849 C847 1.415 . S
C850 H840 0.930 . S
C850 C848 1.419 . S
C850 C851 1.362 . S
C851 H841 0.930 . S
C851 C844 1.409 . S
C851 C850 1.362 . S
H852 C858 0.930 . S
H853 C861 0.930 . S
H854 C862 0.930 . S
H855 C863 0.930 . S
H856 C866 0.930 . S
H857 C867 0.930 . S
C858 H852 0.930 . S
C858 C859 1.355 . S
C858 C860 1.415 . S
C859 C858 1.355 . S
C859 C861 1.419 . S
C860 C858 1.415 . S
C860 C865 1.425 . S
C860 C867 1.409 . S
C861 H853 0.930 . S
C861 C859 1.419 . S
C861 C862 1.362 . S
C862 H854 0.930 . S
C862 C861 1.362 . S
C862 C865 1.409 . S
C863 H855 0.930 . S
C863 C864 1.355 . S
C863 C865 1.415 . S
C864 C863 1.355 . S
C864 C866 1.419 . S
C865 C860 1.425 . S
C865 C862 1.409 . S
C865 C863 1.415 . S
C866 H856 0.930 . S
C866 C864 1.419 . S
C866 C867 1.362 . S
C867 H857 0.930 . S
C867 C860 1.409 . S
C867 C866 1.362 . S
H868 C874 0.930 . S
H869 C877 0.930 . S
H870 C878 0.930 . S
H871 C879 0.930 . S
H872 C882 0.930 . S
H873 C883 0.930 . S
C874 H868 0.930 . S
C874 C875 1.355 . S
C874 C876 1.415 . S
C875 C874 1.355 . S
C875 C877 1.419 . S
C876 C874 1.415 . S
C876 C881 1.425 . S
C876 C883 1.409 . S
C877 H869 0.930 . S
C877 C875 1.419 . S
C877 C878 1.362 . S
C878 H870 0.930 . S
C878 C877 1.362 . S
C878 C881 1.409 . S
C879 H871 0.930 . S
C879 C880 1.355 . S
C879 C881 1.415 . S
C880 C879 1.355 . S
C880 C882 1.419 . S
C881 C876 1.425 . S
C881 C878 1.409 . S
C881 C879 1.415 . S
C882 H872 0.930 . S
C882 C880 1.419 . S
C882 C883 1.362 . S
C883 H873 0.930 . S
C883 C876 1.409 . S
C883 C882 1.362 . S
H884 C890 0.930 . S
H885 C893 0.930 . S
H886 C894 0.930 . S
H887 C895 0.930 . S
H888 C898 0.930 . S
H889 C899 0.930 . S
C890 H884 0.930 . S
C890 C891 1.355 . S
C890 C892 1.415 . S
C891 C890 1.355 . S
C891 C893 1.419 . S
C892 C890 1.415 . S
C892 C897 1.425 . S
C892 C899 1.409 . S
C893 H885 0.930 . S
C893 C891 1.419 . S
C893 C894 1.362 . S
C894 H886 0.930 . S
C894 C893 1.362 . S
C894 C897 1.409 . S
C895 H887 0.930 . S
C895 C896 1.355 . S
C895 C897 1.415 . S
C896 C895 1.355 . S
C896 C898 1.419 . S
C897 C892 1.425 . S
C897 C894 1.409 . S
C897 C895 1.415 . S
C898 H888 0.930 . S
C898 C896 1.419 . S
C898 C899 1.362 . S
C899 H889 0.930 . S
C899 C892 1.409 . S
C899 C898 1.362 . S
H900 C906 0.930 . S
H901 C909 0.930 . S
H902 C910 0.930 . S
H903 C911 0.930 . S
H904 C914 0.930 . S
H905 C915 0.930 . S
C906 H900 0.930 . S
C906 C907 1.355 . S
C906 C908 1.415 . S
C907 C906 1.355 . S
C907 C909 1.419 . S
C908 C906 1.415 . S
C908 C913 1.425 . S
C908 C915 1.409 . S
C909 H901 0.930 . S
C909 C907 1.419 . S
C909 C910 1.362 . S
C910 H902 0.930 . S
C910 C909 1.362 . S
C910 C913 1.409 . S
C911 H903 0.930 . S
C911 C912 1.355 . S
C911 C913 1.415 . S
C912 C911 1.355 . S
C912 C914 1.419 . S
C913 C908 1.425 . S
C913 C910 1.409 . S
C913 C911 1.415 . S
C914 H904 0.930 . S
C914 C912 1.419 . S
C914 C915 1.362 . S
C915 H905 0.930 . S
C915 C908 1.409 . S
C915 C914 1.362 . S
H916 C922 0.930 . S
H917 C925 0.930 . S
H918 C926 0.930 . S
H919 C927 0.930 . S
H920 C930 0.930 . S
H921 C931 0.930 . S
C922 H916 0.930 . S
C922 C923 1.355 . S
C922 C924 1.415 . S
C923 C922 1.355 . S
C923 C925 1.419 . S
C924 C922 1.415 . S
C924 C929 1.425 . S
C924 C931 1.409 . S
C925 H917 0.930 . S
C925 C923 1.419 . S
C925 C926 1.362 . S
C926 H918 0.930 . S
C926 C925 1.362 . S
C926 C929 1.409 . S
C927 H919 0.930 . S
C927 C928 1.355 . S
C927 C929 1.415 . S
C928 C927 1.355 . S
C928 C930 1.419 . S
C929 C924 1.425 . S
C929 C926 1.409 . S
C929 C927 1.415 . S
C930 H920 0.930 . S
C930 C928 1.419 . S
C930 C931 1.362 . S
C931 H921 0.930 . S
C931 C924 1.409 . S
C931 C930 1.362 . S
H932 C938 0.930 . S
H933 C941 0.930 . S
H934 C942 0.930 . S
H935 C943 0.930 . S
H936 C946 0.930 . S
H937 C947 0.930 . S
C938 H932 0.930 . S
C938 C939 1.355 . S
C938 C940 1.415 . S
C939 C938 1.355 . S
C939 C941 1.419 . S
C940 C938 1.415 . S
C940 C945 1.425 . S
C940 C947 1.409 . S
C941 H933 0.930 . S
C941 C939 1.419 . S
C941 C942 1.362 . S
C942 H934 0.930 . S
C942 C941 1.362 . S
C942 C945 1.409 . S
C943 H935 0.930 . S
C943 C944 1.355 . S
C943 C945 1.415 . S
C944 C943 1.355 . S
C944 C946 1.419 . S
C945 C940 1.425 . S
C945 C942 1.409 . S
C945 C943 1.415 . S
C946 H936 0.930 . S
C946 C944 1.419 . S
C946 C947 1.362 . S
C947 H937 0.930 . S
C947 C940 1.409 . S
C947 C946 1.362 . S
H948 C954 0.930 . S
H949 C957 0.930 . S
H950 C958 0.930 . S
H951 C959 0.930 . S
H952 C962 0.930 . S
H953 C963 0.930 . S
C954 H948 0.930 . S
C954 C955 1.355 . S
C954 C956 1.415 1_655 S
C955 C954 1.355 . S
C955 C957 1.419 . S
C956 C954 1.415 1_455 S
C956 C961 1.425 . S
C956 C963 1.409 . S
C957 H949 0.930 . S
C957 C955 1.419 . S
C957 C958 1.362 1_655 S
C958 H950 0.930 . S
C958 C957 1.362 1_455 S
C958 C961 1.409 . S
C959 H951 0.930 . S
C959 C960 1.355 . S
C959 C961 1.415 . S
C960 C959 1.355 . S
C960 C962 1.419 . S
C961 C956 1.425 . S
C961 C958 1.409 . S
C961 C959 1.415 . S
C962 H952 0.930 . S
C962 C960 1.419 . S
C962 C963 1.362 . S
C963 H953 0.930 . S
C963 C956 1.409 . S
C963 C962 1.362 . S
H964 C970 0.930 . S
H965 C973 0.930 . S
H966 C974 0.930 . S
H967 C975 0.930 . S
H968 C978 0.930 . S
H969 C979 0.930 . S
C970 H964 0.930 . S
C970 C971 1.355 . S
C970 C972 1.415 . S
C971 C970 1.355 . S
C971 C973 1.419 . S
C972 C970 1.415 . S
C972 C977 1.425 . S
C972 C979 1.409 . S
C973 H965 0.930 . S
C973 C971 1.419 . S
C973 C974 1.362 . S
C974 H966 0.930 . S
C974 C973 1.362 . S
C974 C977 1.409 . S
C975 H967 0.930 . S
C975 C976 1.355 . S
C975 C977 1.415 . S
C976 C975 1.355 . S
C976 C978 1.419 . S
C977 C972 1.425 . S
C977 C974 1.409 . S
C977 C975 1.415 . S
C978 H968 0.930 . S
C978 C976 1.419 . S
C978 C979 1.362 . S
C979 H969 0.930 . S
C979 C972 1.409 . S
C979 C978 1.362 . S
H980 C986 0.930 . S
H981 C989 0.930 . S
H982 C990 0.930 . S
H983 C991 0.930 . S
H984 C994 0.930 . S
H985 C995 0.930 . S
C986 H980 0.930 . S
C986 C987 1.355 . S
C986 C988 1.415 1_545 S
C987 C986 1.355 . S
C987 C989 1.419 . S
C988 C986 1.415 1_565 S
C988 C993 1.425 . S
C988 C995 1.409 . S
C989 H981 0.930 . S
C989 C987 1.419 . S
C989 C990 1.362 1_545 S
C990 H982 0.930 . S
C990 C989 1.362 1_565 S
C990 C993 1.409 . S
C991 H983 0.930 . S
C991 C992 1.355 . S
C991 C993 1.415 . S
C992 C991 1.355 . S
C992 C994 1.419 . S
C993 C988 1.425 . S
C993 C990 1.409 . S
C993 C991 1.415 . S
C994 H984 0.930 . S
C994 C992 1.419 . S
C994 C995 1.362 . S
C995 H985 0.930 . S
C995 C988 1.409 . S
C995 C994 1.362 . S
H996 C1002 0.930 . S
H997 C1005 0.930 . S
H998 C1006 0.930 . S
H999 C1007 0.930 . S
H1000 C1010 0.930 . S
H1001 C1011 0.930 . S
C1002 H996 0.930 . S
C1002 C1003 1.355 . S
C1002 C1004 1.415 . S
C1003 C1002 1.355 . S
C1003 C1005 1.419 . S
C1004 C1002 1.415 . S
C1004 C1009 1.425 . S
C1004 C1011 1.409 . S
C1005 H997 0.930 . S
C1005 C1003 1.419 . S
C1005 C1006 1.362 . S
C1006 H998 0.930 . S
C1006 C1005 1.362 . S
C1006 C1009 1.409 . S
C1007 H999 0.930 . S
C1007 C1008 1.355 . S
C1007 C1009 1.415 . S
C1008 C1007 1.355 . S
C1008 C1010 1.419 . S
C1009 C1004 1.425 . S
C1009 C1006 1.409 . S
C1009 C1007 1.415 . S
C1010 H1000 0.930 . S
C1010 C1008 1.419 . S
C1010 C1011 1.362 . S
C1011 H1001 0.930 . S
C1011 C1004 1.409 . S
C1011 C1010 1.362 . S
H1012 C1018 0.930 . S
H1013 C1021 0.930 . S
H1014 C1022 0.930 . S
H1015 C1023 0.930 . S
H1016 C1026 0.930 . S
H1017 C1027 0.930 . S
C1018 H1012 0.930 . S
C1018 C1019 1.355 . S
C1018 C1020 1.415 . S
C1019 C1018 1.355 . S
C1019 C1021 1.419 . S
C1020 C1018 1.415 . S
C1020 C1025 1.425 . S
C1020 C1027 1.409 . S
C1021 H1013 0.930 . S
C1021 C1019 1.419 . S
C1021 C1022 1.362 . S
C1022 H1014 0.930 . S
C1022 C1021 1.362 . S
C1022 C1025 1.409 . S
C1023 H1015 0.930 . S
C1023 C1024 1.355 . S
C1023 C1025 1.415 . S
C1024 C1023 1.355 . S
C1024 C1026 1.419 . S
C1025 C1020 1.425 . S
C1025 C1022 1.409 . S
C1025 C1023 1.415 . S
C1026 H1016 0.930 . S
C1026 C1024 1.419 . S
C1026 C1027 1.362 . S
C1027 H1017 0.930 . S
C1027 C1020 1.409 . S
C1027 C1026 1.362 . S
H1028 C1034 0.930 . S
H1029 C1037 0.930 . S
H1030 C1038 0.930 . S
H1031 C1039 0.930 . S
H1032 C1042 0.930 . S
H1033 C1043 0.930 . S
C1034 H1028 0.930 . S
C1034 C1035 1.355 . S
C1034 C1036 1.415 . S
C1035 C1034 1.355 . S
C1035 C1037 1.419 . S
C1036 C1034 1.415 . S
C1036 C1041 1.425 . S
C1036 C1043 1.409 . S
C1037 H1029 0.930 . S
C1037 C1035 1.419 . S
C1037 C1038 1.362 . S
C1038 H1030 0.930 . S
C1038 C1037 1.362 . S
C1038 C1041 1.409 . S
C1039 H1031 0.930 . S
C1039 C1040 1.355 . S
C1039 C1041 1.415 . S
C1040 C1039 1.355 . S
C1040 C1042 1.419 . S
C1041 C1036 1.425 . S
C1041 C1038 1.409 . S
C1041 C1039 1.415 . S
C1042 H1032 0.930 . S
C1042 C1040 1.419 . S
C1042 C1043 1.362 . S
C1043 H1033 0.930 . S
C1043 C1036 1.409 . S
C1043 C1042 1.362 . S
H1044 C1050 0.930 . S
H1045 C1053 0.930 . S
H1046 C1054 0.930 . S
H1047 C1055 0.930 . S
H1048 C1058 0.930 . S
H1049 C1059 0.930 . S
C1050 H1044 0.930 . S
C1050 C1051 1.355 . S
C1050 C1052 1.415 . S
C1051 C1050 1.355 . S
C1051 C1053 1.419 . S
C1052 C1050 1.415 . S
C1052 C1057 1.425 . S
C1052 C1059 1.409 . S
C1053 H1045 0.930 . S
C1053 C1051 1.419 . S
C1053 C1054 1.362 . S
C1054 H1046 0.930 . S
C1054 C1053 1.362 . S
C1054 C1057 1.409 . S
C1055 H1047 0.930 . S
C1055 C1056 1.355 . S
C1055 C1057 1.415 . S
C1056 C1055 1.355 . S
C1056 C1058 1.419 . S
C1057 C1052 1.425 . S
C1057 C1054 1.409 . S
C1057 C1055 1.415 . S
C1058 H1048 0.930 . S
C1058 C1056 1.419 . S
C1058 C1059 1.362 . S
C1059 H1049 0.930 . S
C1059 C1052 1.409 . S
C1059 C1058 1.362 . S
H1060 C1066 0.930 . S
H1061 C1069 0.930 . S
H1062 C1070 0.930 . S
H1063 C1071 0.930 . S
H1064 C1074 0.930 . S
H1065 C1075 0.930 . S
C1066 H1060 0.930 . S
C1066 C1067 1.355 . S
C1066 C1068 1.415 . S
C1067 C1066 1.355 . S
C1067 C1069 1.419 . S
C1068 C1066 1.415 . S
C1068 C1073 1.425 . S
C1068 C1075 1.409 . S
C1069 H1061 0.930 . S
C1069 C1067 1.419 . S
C1069 C1070 1.362 . S
C1070 H1062 0.930 . S
C1070 C1069 1.362 . S
C1070 C1073 1.409 . S
C1071 H1063 0.930 . S
C1071 C1072 1.355 . S
C1071 C1073 1.415 . S
C1072 C1071 1.355 . S
C1072 C1074 1.419 . S
C1073 C1068 1.425 . S
C1073 C1070 1.409 . S
C1073 C1071 1.415 . S
C1074 H1064 0.930 . S
C1074 C1072 1.419 . S
C1074 C1075 1.362 . S
C1075 H1065 0.930 . S
C1075 C1068 1.409 . S
C1075 C1074 1.362 . S
H1076 C1082 0.930 . S
H1077 C1085 0.930 . S
H1078 C1086 0.930 . S
H1079 C1087 0.930 . S
H1080 C1090 0.930 . S
H1081 C1091 0.930 . S
C1082 H1076 0.930 . S
C1082 C1083 1.355 . S
C1082 C1084 1.415 . S
C1083 C1082 1.355 . S
C1083 C1085 1.419 . S
C1084 C1082 1.415 . S
C1084 C1089 1.425 . S
C1084 C1091 1.409 . S
C1085 H1077 0.930 . S
C1085 C1083 1.419 . S
C1085 C1086 1.362 . S
C1086 H1078 0.930 . S
C1086 C1085 1.362 . S
C1086 C1089 1.409 . S
C1087 H1079 0.930 . S
C1087 C1088 1.355 . S
C1087 C1089 1.415 . S
C1088 C1087 1.355 . S
C1088 C1090 1.419 . S
C1089 C1084 1.425 . S
C1089 C1086 1.409 . S
C1089 C1087 1.415 . S
C1090 H1080 0.930 . S
C1090 C1088 1.419 . S
C1090 C1091 1.362 . S
C1091 H1081 0.930 . S
C1091 C1084 1.409 . S
C1091 C1090 1.362 . S
H1092 C1098 0.930 . S
H1093 C1101 0.930 . S
H1094 C1102 0.930 . S
H1095 C1103 0.930 . S
H1096 C1106 0.930 . S
H1097 C1107 0.930 . S
C1098 H1092 0.930 . S
C1098 C1099 1.355 . S
C1098 C1100 1.415 1_545 S
C1099 C1098 1.355 . S
C1099 C1101 1.419 . S
C1100 C1098 1.415 1_565 S
C1100 C1105 1.425 . S
C1100 C1107 1.409 . S
C1101 H1093 0.930 . S
C1101 C1099 1.419 . S
C1101 C1102 1.362 1_545 S
C1102 H1094 0.930 . S
C1102 C1101 1.362 1_565 S
C1102 C1105 1.409 . S
C1103 H1095 0.930 . S
C1103 C1104 1.355 . S
C1103 C1105 1.415 . S
C1104 C1103 1.355 . S
C1104 C1106 1.419 . S
C1105 C1100 1.425 . S
C1105 C1102 1.409 . S
C1105 C1103 1.415 . S
C1106 H1096 0.930 . S
C1106 C1104 1.419 . S
C1106 C1107 1.362 . S
C1107 H1097 0.930 . S
C1107 C1100 1.409 . S
C1107 C1106 1.362 . S
H1108 C1114 0.930 . S
H1109 C1117 0.930 . S
H1110 C1118 0.930 . S
H1111 C1119 0.930 . S
H1112 C1122 0.930 . S
H1113 C1123 0.930 . S
C1114 H1108 0.930 . S
C1114 C1115 1.355 1_455 S
C1114 C1116 1.415 . S
C1115 C1114 1.355 1_655 S
C1115 C1117 1.419 . S
C1116 C1114 1.415 . S
C1116 C1121 1.425 . S
C1116 C1123 1.409 . S
C1117 H1109 0.930 . S
C1117 C1115 1.419 . S
C1117 C1118 1.362 . S
C1118 H1110 0.930 . S
C1118 C1117 1.362 . S
C1118 C1121 1.409 1_655 S
C1119 H1111 0.930 . S
C1119 C1120 1.355 . S
C1119 C1121 1.415 . S
C1120 C1119 1.355 . S
C1120 C1122 1.419 . S
C1121 C1116 1.425 . S
C1121 C1118 1.409 1_455 S
C1121 C1119 1.415 . S
C1122 H1112 0.930 . S
C1122 C1120 1.419 . S
C1122 C1123 1.362 . S
C1123 H1113 0.930 . S
C1123 C1116 1.409 . S
C1123 C1122 1.362 . S
H1124 C1130 0.930 . S
H1125 C1133 0.930 . S
H1126 C1134 0.930 . S
H1127 C1135 0.930 . S
H1128 C1138 0.930 . S
H1129 C1139 0.930 . S
C1130 H1124 0.930 . S
C1130 C1131 1.355 . S
C1130 C1132 1.415 . S
C1131 C1130 1.355 . S
C1131 C1133 1.419 . S
C1132 C1130 1.415 . S
C1132 C1137 1.425 . S
C1132 C1139 1.409 . S
C1133 H1125 0.930 . S
C1133 C1131 1.419 . S
C1133 C1134 1.362 . S
C1134 H1126 0.930 . S
C1134 C1133 1.362 . S
C1134 C1137 1.409 . S
C1135 H1127 0.930 . S
C1135 C1136 1.355 . S
C1135 C1137 1.415 . S
C1136 C1135 1.355 . S
C1136 C1138 1.419 . S
C1137 C1132 1.425 . S
C1137 C1134 1.409 . S
C1137 C1135 1.415 . S
C1138 H1128 0.930 . S
C1138 C1136 1.419 . S
C1138 C1139 1.362 . S
C1139 H1129 0.930 . S
C1139 C1132 1.409 . S
C1139 C1138 1.362 . S
H1140 C1146 0.930 . S
H1141 C1149 0.930 . S
H1142 C1150 0.930 . S
H1143 C1151 0.930 . S
H1144 C1154 0.930 . S
H1145 C1155 0.930 . S
C1146 H1140 0.930 . S
C1146 C1147 1.355 . S
C1146 C1148 1.415 . S
C1147 C1146 1.355 . S
C1147 C1149 1.419 . S
C1148 C1146 1.415 . S
C1148 C1153 1.425 . S
C1148 C1155 1.409 . S
C1149 H1141 0.930 . S
C1149 C1147 1.419 . S
C1149 C1150 1.362 . S
C1150 H1142 0.930 . S
C1150 C1149 1.362 . S
C1150 C1153 1.409 . S
C1151 H1143 0.930 . S
C1151 C1152 1.355 . S
C1151 C1153 1.415 . S
C1152 C1151 1.355 . S
C1152 C1154 1.419 . S
C1153 C1148 1.425 . S
C1153 C1150 1.409 . S
C1153 C1151 1.415 . S
C1154 H1144 0.930 . S
C1154 C1152 1.419 . S
C1154 C1155 1.362 . S
C1155 H1145 0.930 . S
C1155 C1148 1.409 . S
C1155 C1154 1.362 . S
H1156 C1162 0.930 . S
H1157 C1165 0.930 . S
H1158 C1166 0.930 . S
H1159 C1167 0.930 . S
H1160 C1170 0.930 . S
H1161 C1171 0.930 . S
C1162 H1156 0.930 . S
C1162 C1163 1.355 . S
C1162 C1164 1.415 . S
C1163 C1162 1.355 . S
C1163 C1165 1.419 . S
C1164 C1162 1.415 . S
C1164 C1169 1.425 . S
C1164 C1171 1.409 . S
C1165 H1157 0.930 . S
C1165 C1163 1.419 . S
C1165 C1166 1.362 . S
C1166 H1158 0.930 . S
C1166 C1165 1.362 . S
C1166 C1169 1.409 . S
C1167 H1159 0.930 . S
C1167 C1168 1.355 . S
C1167 C1169 1.415 . S
C1168 C1167 1.355 . S
C1168 C1170 1.419 . S
C1169 C1164 1.425 . S
C1169 C1166 1.409 . S
C1169 C1167 1.415 . S
C1170 H1160 0.930 . S
C1170 C1168 1.419 . S
C1170 C1171 1.362 . S
C1171 H1161 0.930 . S
C1171 C1164 1.409 . S
C1171 C1170 1.362 . S
H1172 C1178 0.930 . S
H1173 C1181 0.930 . S
H1174 C1182 0.930 . S
H1175 C1183 0.930 . S
H1176 C1186 0.930 . S
H1177 C1187 0.930 . S
C1178 H1172 0.930 . S
C1178 C1179 1.355 . S
C1178 C1180 1.415 . S
C1179 C1178 1.355 . S
C1179 C1181 1.419 . S
C1180 C1178 1.415 . S
C1180 C1185 1.425 . S
C1180 C1187 1.409 . S
C1181 H1173 0.930 . S
C1181 C1179 1.419 . S
C1181 C1182 1.362 . S
C1182 H1174 0.930 . S
C1182 C1181 1.362 . S
C1182 C1185 1.409 . S
C1183 H1175 0.930 . S
C1183 C1184 1.355 . S
C1183 C1185 1.415 . S
C1184 C1183 1.355 . S
C1184 C1186 1.419 . S
C1185 C1180 1.425 . S
C1185 C1182 1.409 . S
C1185 C1183 1.415 . S
C1186 H1176 0.930 . S
C1186 C1184 1.419 . S
C1186 C1187 1.362 . S
C1187 H1177 0.930 . S
C1187 C1180 1.409 . S
C1187 C1186 1.362 . S
H1188 C1194 0.930 . S
H1189 C1197 0.930 . S
H1190 C1198 0.930 . S
H1191 C1199 0.930 . S
H1192 C1202 0.930 . S
H1193 C1203 0.930 . S
C1194 H1188 0.930 . S
C1194 C1195 1.355 . S
C1194 C1196 1.415 1_565 S
C1195 C1194 1.355 . S
C1195 C1197 1.419 . S
C1196 C1194 1.415 1_545 S
C1196 C1201 1.425 . S
C1196 C1203 1.409 . S
C1197 H1189 0.930 . S
C1197 C1195 1.419 . S
C1197 C1198 1.362 1_565 S
C1198 H1190 0.930 . S
C1198 C1197 1.362 1_545 S
C1198 C1201 1.409 . S
C1199 H1191 0.930 . S
C1199 C1200 1.355 . S
C1199 C1201 1.415 . S
C1200 C1199 1.355 . S
C1200 C1202 1.419 . S
C1201 C1196 1.425 . S
C1201 C1198 1.409 . S
C1201 C1199 1.415 . S
C1202 H1192 0.930 . S
C1202 C1200 1.419 . S
C1202 C1203 1.362 . S
C1203 H1193 0.930 . S
C1203 C1196 1.409 . S
C1203 C1202 1.362 . S
H1204 C1210 0.929 1_655 S
H1205 C1213 0.930 . S
H1206 C1214 0.930 . S
H1207 C1215 0.930 . S
H1208 C1218 0.930 . S
H1209 C1219 0.930 . S
C1210 H1204 0.929 1_455 S
C1210 C1211 1.356 . S
C1210 C1212 1.414 1_455 S
C1211 C1210 1.356 . S
C1211 C1213 1.419 . S
C1212 C1210 1.414 1_655 S
C1212 C1217 1.425 . S
C1212 C1219 1.409 . S
C1213 H1205 0.930 . S
C1213 C1211 1.419 . S
C1213 C1214 1.362 . S
C1214 H1206 0.930 . S
C1214 C1213 1.362 . S
C1214 C1217 1.409 1_455 S
C1215 H1207 0.930 . S
C1215 C1216 1.355 . S
C1215 C1217 1.415 . S
C1216 C1215 1.355 . S
C1216 C1218 1.419 . S
C1217 C1212 1.425 . S
C1217 C1214 1.409 1_655 S
C1217 C1215 1.415 . S
C1218 H1208 0.930 . S
C1218 C1216 1.419 . S
C1218 C1219 1.362 . S
C1219 H1209 0.930 . S
C1219 C1212 1.409 . S
C1219 C1218 1.362 . S
H1220 C1226 0.930 . S
H1221 C1229 0.930 . S
H1222 C1230 0.930 . S
H1223 C1231 0.930 . S
H1224 C1234 0.930 . S
H1225 C1235 0.930 . S
C1226 H1220 0.930 . S
C1226 C1227 1.355 . S
C1226 C1228 1.415 . S
C1227 C1226 1.355 . S
C1227 C1229 1.419 . S
C1228 C1226 1.415 . S
C1228 C1233 1.425 . S
C1228 C1235 1.409 . S
C1229 H1221 0.930 . S
C1229 C1227 1.419 . S
C1229 C1230 1.362 . S
C1230 H1222 0.930 . S
C1230 C1229 1.362 . S
C1230 C1233 1.409 . S
C1231 H1223 0.930 . S
C1231 C1232 1.355 . S
C1231 C1233 1.415 . S
C1232 C1231 1.355 . S
C1232 C1234 1.419 . S
C1233 C1228 1.425 . S
C1233 C1230 1.409 . S
C1233 C1231 1.415 . S
C1234 H1224 0.930 . S
C1234 C1232 1.419 . S
C1234 C1235 1.362 . S
C1235 H1225 0.930 . S
C1235 C1228 1.409 . S
C1235 C1234 1.362 . S
H1236 C1242 0.930 . S
H1237 C1245 0.930 . S
H1238 C1246 0.930 . S
H1239 C1247 0.930 . S
H1240 C1250 0.930 . S
H1241 C1251 0.930 . S
C1242 H1236 0.930 . S
C1242 C1243 1.355 . S
C1242 C1244 1.415 1_455 S
C1243 C1242 1.355 . S
C1243 C1245 1.419 . S
C1244 C1242 1.415 1_655 S
C1244 C1249 1.425 . S
C1244 C1251 1.409 . S
C1245 H1237 0.930 . S
C1245 C1243 1.419 . S
C1245 C1246 1.362 1_455 S
C1246 H1238 0.930 . S
C1246 C1245 1.362 1_655 S
C1246 C1249 1.409 . S
C1247 H1239 0.930 . S
C1247 C1248 1.355 . S
C1247 C1249 1.415 . S
C1248 C1247 1.355 . S
C1248 C1250 1.419 . S
C1249 C1244 1.425 . S
C1249 C1246 1.409 . S
C1249 C1247 1.415 . S
C1250 H1240 0.930 . S
C1250 C1248 1.419 . S
C1250 C1251 1.362 . S
C1251 H1241 0.930 . S
C1251 C1244 1.409 . S
C1251 C1250 1.362 . S
H1252 C1258 0.930 . S
H1253 C1261 0.930 . S
H1254 C1262 0.930 . S
H1255 C1263 0.930 . S
H1256 C1266 0.930 . S
H1257 C1267 0.930 . S
C1258 H1252 0.930 . S
C1258 C1259 1.355 . S
C1258 C1260 1.415 . S
C1259 C1258 1.355 . S
C1259 C1261 1.419 . S
C1260 C1258 1.415 . S
C1260 C1265 1.425 . S
C1260 C1267 1.409 . S
C1261 H1253 0.930 . S
C1261 C1259 1.419 . S
C1261 C1262 1.362 . S
C1262 H1254 0.930 . S
C1262 C1261 1.362 . S
C1262 C1265 1.409 . S
C1263 H1255 0.930 . S
C1263 C1264 1.355 . S
C1263 C1265 1.415 . S
C1264 C1263 1.355 . S
C1264 C1266 1.419 . S
C1265 C1260 1.425 . S
C1265 C1262 1.409 . S
C1265 C1263 1.415 . S
C1266 H1256 0.930 . S
C1266 C1264 1.419 . S
C1266 C1267 1.362 . S
C1267 H1257 0.930 . S
C1267 C1260 1.409 . S
C1267 C1266 1.362 . S
H1268 C1274 0.930 . S
H1269 C1277 0.930 . S
H1270 C1278 0.930 . S
H1271 C1279 0.930 . S
H1272 C1282 0.930 . S
H1273 C1283 0.930 . S
C1274 H1268 0.930 . S
C1274 C1275 1.355 . S
C1274 C1276 1.415 1_565 S
C1275 C1274 1.355 . S
C1275 C1277 1.419 . S
C1276 C1274 1.415 1_545 S
C1276 C1281 1.425 . S
C1276 C1283 1.409 . S
C1277 H1269 0.930 . S
C1277 C1275 1.419 . S
C1277 C1278 1.362 1_565 S
C1278 H1270 0.930 . S
C1278 C1277 1.362 1_545 S
C1278 C1281 1.409 . S
C1279 H1271 0.930 . S
C1279 C1280 1.355 . S
C1279 C1281 1.415 . S
C1280 C1279 1.355 . S
C1280 C1282 1.419 . S
C1281 C1276 1.425 . S
C1281 C1278 1.409 . S
C1281 C1279 1.415 . S
C1282 H1272 0.930 . S
C1282 C1280 1.419 . S
C1282 C1283 1.362 . S
C1283 H1273 0.930 . S
C1283 C1276 1.409 . S
C1283 C1282 1.362 . S
H1284 C1290 0.930 . S
H1285 C1293 0.930 . S
H1286 C1294 0.930 . S
H1287 C1295 0.930 . S
H1288 C1298 0.930 . S
H1289 C1299 0.930 . S
C1290 H1284 0.930 . S
C1290 C1291 1.355 . S
C1290 C1292 1.415 . S
C1291 C1290 1.355 . S
C1291 C1293 1.419 . S
C1292 C1290 1.415 . S
C1292 C1297 1.425 . S
C1292 C1299 1.409 . S
C1293 H1285 0.930 . S
C1293 C1291 1.419 . S
C1293 C1294 1.362 . S
C1294 H1286 0.930 . S
C1294 C1293 1.362 . S
C1294 C1297 1.409 . S
C1295 H1287 0.930 . S
C1295 C1296 1.355 . S
C1295 C1297 1.415 . S
C1296 C1295 1.355 . S
C1296 C1298 1.419 . S
C1297 C1292 1.425 . S
C1297 C1294 1.409 . S
C1297 C1295 1.415 . S
C1298 H1288 0.930 . S
C1298 C1296 1.419 . S
C1298 C1299 1.362 . S
C1299 H1289 0.930 . S
C1299 C1292 1.409 . S
C1299 C1298 1.362 . S
H1300 C1306 0.930 . S
H1301 C1309 0.930 . S
H1302 C1310 0.930 . S
H1303 C1311 0.930 . S
H1304 C1314 0.930 . S
H1305 C1315 0.930 . S
C1306 H1300 0.930 . S
C1306 C1307 1.355 . S
C1306 C1308 1.415 . S
C1307 C1306 1.355 . S
C1307 C1309 1.419 . S
C1308 C1306 1.415 . S
C1308 C1313 1.425 . S
C1308 C1315 1.409 . S
C1309 H1301 0.930 . S
C1309 C1307 1.419 . S
C1309 C1310 1.362 . S
C1310 H1302 0.930 . S
C1310 C1309 1.362 . S
C1310 C1313 1.409 . S
C1311 H1303 0.930 . S
C1311 C1312 1.355 . S
C1311 C1313 1.415 . S
C1312 C1311 1.355 . S
C1312 C1314 1.419 . S
C1313 C1308 1.425 . S
C1313 C1310 1.409 . S
C1313 C1311 1.415 . S
C1314 H1304 0.930 . S
C1314 C1312 1.419 . S
C1314 C1315 1.362 . S
C1315 H1305 0.930 . S
C1315 C1308 1.409 . S
C1315 C1314 1.362 . S
H1316 C1322 0.930 . S
H1317 C1325 0.930 . S
H1318 C1326 0.930 . S
H1319 C1327 0.930 . S
H1320 C1330 0.930 . S
H1321 C1331 0.930 . S
C1322 H1316 0.930 . S
C1322 C1323 1.355 . S
C1322 C1324 1.415 . S
C1323 C1322 1.355 . S
C1323 C1325 1.419 . S
C1324 C1322 1.415 . S
C1324 C1329 1.425 . S
C1324 C1331 1.409 . S
C1325 H1317 0.930 . S
C1325 C1323 1.419 . S
C1325 C1326 1.362 . S
C1326 H1318 0.930 . S
C1326 C1325 1.362 . S
C1326 C1329 1.409 . S
C1327 H1319 0.930 . S
C1327 C1328 1.355 . S
C1327 C1329 1.415 . S
C1328 C1327 1.355 . S
C1328 C1330 1.419 . S
C1329 C1324 1.425 . S
C1329 C1326 1.409 . S
C1329 C1327 1.415 . S
C1330 H1320 0.930 . S
C1330 C1328 1.419 . S
C1330 C1331 1.362 . S
C1331 H1321 0.930 . S
C1331 C1324 1.409 . S
C1331 C1330 1.362 . S
H1332 C1338 0.930 . S
H1333 C1341 0.930 1_545 S
H1334 C1342 0.930 . S
H1335 C1343 0.930 . S
H1336 C1346 0.930 . S
H1337 C1347 0.930 . S
C1338 H1332 0.930 . S
C1338 C1339 1.355 . S
C1338 C1340 1.415 . S
C1339 C1338 1.355 . S
C1339 C1341 1.419 . S
C1340 C1338 1.415 . S
C1340 C1345 1.425 . S
C1340 C1347 1.409 . S
C1341 H1333 0.930 1_565 S
C1341 C1339 1.419 . S
C1341 C1342 1.362 1_565 S
C1342 H1334 0.930 . S
C1342 C1341 1.362 1_545 S
C1342 C1345 1.409 1_545 S
C1343 H1335 0.930 . S
C1343 C1344 1.355 1_545 S
C1343 C1345 1.415 1_545 S
C1344 C1343 1.355 1_565 S
C1344 C1346 1.419 . S
C1345 C1340 1.425 . S
C1345 C1342 1.409 1_565 S
C1345 C1343 1.415 1_565 S
C1346 H1336 0.930 . S
C1346 C1344 1.419 . S
C1346 C1347 1.362 . S
C1347 H1337 0.930 . S
C1347 C1340 1.409 . S
C1347 C1346 1.362 . S
H1348 C1354 0.930 1_655 S
H1349 C1357 0.930 . S
H1350 C1358 0.930 . S
H1351 C1359 0.930 . S
H1352 C1362 0.930 . S
H1353 C1363 0.930 . S
C1354 H1348 0.930 1_455 S
C1354 C1355 1.355 . S
C1354 C1356 1.415 . S
C1355 C1354 1.355 . S
C1355 C1357 1.419 . S
C1356 C1354 1.415 . S
C1356 C1361 1.425 . S
C1356 C1363 1.409 1_455 S
C1357 H1349 0.930 . S
C1357 C1355 1.419 . S
C1357 C1358 1.362 . S
C1358 H1350 0.930 . S
C1358 C1357 1.362 . S
C1358 C1361 1.409 . S
C1359 H1351 0.930 . S
C1359 C1360 1.355 . S
C1359 C1361 1.415 . S
C1360 C1359 1.355 . S
C1360 C1362 1.419 1_455 S
C1361 C1356 1.425 . S
C1361 C1358 1.409 . S
C1361 C1359 1.415 . S
C1362 H1352 0.930 . S
C1362 C1360 1.419 1_655 S
C1362 C1363 1.362 . S
C1363 H1353 0.930 . S
C1363 C1356 1.409 1_655 S
C1363 C1362 1.362 . S
H1364 C1370 0.930 . S
H1365 C1373 0.930 . S
H1366 C1374 0.930 . S
H1367 C1375 0.930 . S
H1368 C1378 0.930 . S
H1369 C1379 0.930 . S
C1370 H1364 0.930 . S
C1370 C1371 1.355 . S
C1370 C1372 1.415 . S
C1371 C1370 1.355 . S
C1371 C1373 1.419 . S
C1372 C1370 1.415 . S
C1372 C1377 1.425 . S
C1372 C1379 1.409 . S
C1373 H1365 0.930 . S
C1373 C1371 1.419 . S
C1373 C1374 1.362 . S
C1374 H1366 0.930 . S
C1374 C1373 1.362 . S
C1374 C1377 1.409 . S
C1375 H1367 0.930 . S
C1375 C1376 1.355 . S
C1375 C1377 1.415 . S
C1376 C1375 1.355 . S
C1376 C1378 1.419 . S
C1377 C1372 1.425 . S
C1377 C1374 1.409 . S
C1377 C1375 1.415 . S
C1378 H1368 0.930 . S
C1378 C1376 1.419 . S
C1378 C1379 1.362 . S
C1379 H1369 0.930 . S
C1379 C1372 1.409 . S
C1379 C1378 1.362 . S
H1380 C1386 0.930 . S
H1381 C1389 0.930 . S
H1382 C1390 0.930 . S
H1383 C1391 0.930 . S
H1384 C1394 0.930 1_455 S
H1385 C1395 0.930 1_455 S
C1386 H1380 0.930 . S
C1386 C1387 1.355 . S
C1386 C1388 1.415 . S
C1387 C1386 1.355 . S
C1387 C1389 1.419 . S
C1388 C1386 1.415 . S
C1388 C1393 1.425 . S
C1388 C1395 1.409 . S
C1389 H1381 0.930 . S
C1389 C1387 1.419 . S
C1389 C1390 1.362 . S
C1390 H1382 0.930 . S
C1390 C1389 1.362 . S
C1390 C1393 1.409 . S
C1391 H1383 0.930 . S
C1391 C1392 1.355 . S
C1391 C1393 1.415 . S
C1392 C1391 1.355 . S
C1392 C1394 1.419 . S
C1393 C1388 1.425 . S
C1393 C1390 1.409 . S
C1393 C1391 1.415 . S
C1394 H1384 0.930 1_655 S
C1394 C1392 1.419 . S
C1394 C1395 1.362 . S
C1395 H1385 0.930 1_655 S
C1395 C1388 1.409 . S
C1395 C1394 1.362 . S
H1396 C1402 0.930 . S
H1397 C1405 0.930 . S
H1398 C1406 0.930 . S
H1399 C1407 0.930 . S
H1400 C1410 0.930 . S
H1401 C1411 0.930 . S
C1402 H1396 0.930 . S
C1402 C1403 1.355 . S
C1402 C1404 1.415 . S
C1403 C1402 1.355 . S
C1403 C1405 1.419 . S
C1404 C1402 1.415 . S
C1404 C1409 1.425 . S
C1404 C1411 1.409 . S
C1405 H1397 0.930 . S
C1405 C1403 1.419 . S
C1405 C1406 1.362 . S
C1406 H1398 0.930 . S
C1406 C1405 1.362 . S
C1406 C1409 1.409 . S
C1407 H1399 0.930 . S
C1407 C1408 1.355 . S
C1407 C1409 1.415 . S
C1408 C1407 1.355 . S
C1408 C1410 1.419 . S
C1409 C1404 1.425 . S
C1409 C1406 1.409 . S
C1409 C1407 1.415 . S
C1410 H1400 0.930 . S
C1410 C1408 1.419 . S
C1410 C1411 1.362 . S
C1411 H1401 0.930 . S
C1411 C1404 1.409 . S
C1411 C1410 1.362 . S
H1412 C1418 0.930 . S
H1413 C1421 0.930 . S
H1414 C1422 0.930 1_565 S
H1415 C1423 0.930 1_565 S
H1416 C1426 0.930 . S
H1417 C1427 0.930 . S
C1418 H1412 0.930 . S
C1418 C1419 1.355 . S
C1418 C1420 1.415 . S
C1419 C1418 1.355 . S
C1419 C1421 1.419 . S
C1420 C1418 1.415 . S
C1420 C1425 1.425 . S
C1420 C1427 1.409 . S
C1421 H1413 0.930 . S
C1421 C1419 1.419 . S
C1421 C1422 1.362 . S
C1422 H1414 0.930 1_545 S
C1422 C1421 1.362 . S
C1422 C1425 1.409 . S
C1423 H1415 0.930 1_545 S
C1423 C1424 1.355 . S
C1423 C1425 1.415 . S
C1424 C1423 1.355 . S
C1424 C1426 1.419 . S
C1425 C1420 1.425 . S
C1425 C1422 1.409 . S
C1425 C1423 1.415 . S
C1426 H1416 0.930 . S
C1426 C1424 1.419 . S
C1426 C1427 1.362 . S
C1427 H1417 0.930 . S
C1427 C1420 1.409 . S
C1427 C1426 1.362 . S
H1428 C1434 0.930 . S
H1429 C1437 0.930 . S
H1430 C1438 0.930 . S
H1431 C1439 0.930 . S
H1432 C1442 0.930 . S
H1433 C1443 0.930 . S
C1434 H1428 0.930 . S
C1434 C1435 1.355 . S
C1434 C1436 1.415 . S
C1435 C1434 1.355 . S
C1435 C1437 1.419 . S
C1436 C1434 1.415 . S
C1436 C1441 1.425 . S
C1436 C1443 1.409 . S
C1437 H1429 0.930 . S
C1437 C1435 1.419 . S
C1437 C1438 1.362 . S
C1438 H1430 0.930 . S
C1438 C1437 1.362 . S
C1438 C1441 1.409 . S
C1439 H1431 0.930 . S
C1439 C1440 1.355 . S
C1439 C1441 1.415 . S
C1440 C1439 1.355 . S
C1440 C1442 1.419 . S
C1441 C1436 1.425 . S
C1441 C1438 1.409 . S
C1441 C1439 1.415 . S
C1442 H1432 0.930 . S
C1442 C1440 1.419 . S
C1442 C1443 1.362 . S
C1443 H1433 0.930 . S
C1443 C1436 1.409 . S
C1443 C1442 1.362 . S
H1444 C1450 0.930 . S
H1445 C1453 0.930 . S
H1446 C1454 0.930 . S
H1447 C1455 0.930 . S
H1448 C1458 0.930 . S
H1449 C1459 0.930 . S
C1450 H1444 0.930 . S
C1450 C1451 1.355 . S
C1450 C1452 1.415 . S
C1451 C1450 1.355 . S
C1451 C1453 1.419 . S
C1452 C1450 1.415 . S
C1452 C1457 1.425 . S
C1452 C1459 1.409 . S
C1453 H1445 0.930 . S
C1453 C1451 1.419 . S
C1453 C1454 1.362 . S
C1454 H1446 0.930 . S
C1454 C1453 1.362 . S
C1454 C1457 1.409 . S
C1455 H1447 0.930 . S
C1455 C1456 1.355 . S
C1455 C1457 1.415 . S
C1456 C1455 1.355 . S
C1456 C1458 1.419 . S
C1457 C1452 1.425 . S
C1457 C1454 1.409 . S
C1457 C1455 1.415 . S
C1458 H1448 0.930 . S
C1458 C1456 1.419 . S
C1458 C1459 1.362 . S
C1459 H1449 0.930 . S
C1459 C1452 1.409 . S
C1459 C1458 1.362 . S
H1460 C1466 0.930 . S
H1461 C1469 0.930 . S
H1462 C1470 0.930 . S
H1463 C1471 0.930 . S
H1464 C1474 0.930 . S
H1465 C1475 0.930 . S
C1466 H1460 0.930 . S
C1466 C1467 1.355 . S
C1466 C1468 1.415 . S
C1467 C1466 1.355 . S
C1467 C1469 1.419 . S
C1468 C1466 1.415 . S
C1468 C1473 1.425 . S
C1468 C1475 1.409 . S
C1469 H1461 0.930 . S
C1469 C1467 1.419 . S
C1469 C1470 1.362 . S
C1470 H1462 0.930 . S
C1470 C1469 1.362 . S
C1470 C1473 1.409 . S
C1471 H1463 0.930 . S
C1471 C1472 1.355 . S
C1471 C1473 1.415 . S
C1472 C1471 1.355 . S
C1472 C1474 1.419 . S
C1473 C1468 1.425 . S
C1473 C1470 1.409 . S
C1473 C1471 1.415 . S
C1474 H1464 0.930 . S
C1474 C1472 1.419 . S
C1474 C1475 1.362 . S
C1475 H1465 0.930 . S
C1475 C1468 1.409 . S
C1475 C1474 1.362 . S
H1476 C1482 0.930 . S
H1477 C1485 0.930 . S
H1478 C1486 0.930 . S
H1479 C1487 0.930 . S
H1480 C1490 0.930 . S
H1481 C1491 0.930 . S
C1482 H1476 0.930 . S
C1482 C1483 1.355 . S
C1482 C1484 1.415 . S
C1483 C1482 1.355 . S
C1483 C1485 1.419 . S
C1484 C1482 1.415 . S
C1484 C1489 1.425 . S
C1484 C1491 1.409 . S
C1485 H1477 0.930 . S
C1485 C1483 1.419 . S
C1485 C1486 1.362 . S
C1486 H1478 0.930 . S
C1486 C1485 1.362 . S
C1486 C1489 1.409 . S
C1487 H1479 0.930 . S
C1487 C1488 1.355 . S
C1487 C1489 1.415 . S
C1488 C1487 1.355 . S
C1488 C1490 1.419 . S
C1489 C1484 1.425 . S
C1489 C1486 1.409 . S
C1489 C1487 1.415 . S
C1490 H1480 0.930 . S
C1490 C1488 1.419 . S
C1490 C1491 1.362 . S
C1491 H1481 0.930 . S
C1491 C1484 1.409 . S
C1491 C1490 1.362 . S
H1492 C1498 0.930 . S
H1493 C1501 0.930 . S
H1494 C1502 0.930 . S
H1495 C1503 0.930 . S
H1496 C1506 0.930 . S
H1497 C1507 0.930 . S
C1498 H1492 0.930 . S
C1498 C1499 1.355 . S
C1498 C1500 1.415 . S
C1499 C1498 1.355 . S
C1499 C1501 1.419 . S
C1500 C1498 1.415 . S
C1500 C1505 1.425 . S
C1500 C1507 1.409 . S
C1501 H1493 0.930 . S
C1501 C1499 1.419 . S
C1501 C1502 1.362 . S
C1502 H1494 0.930 . S
C1502 C1501 1.362 . S
C1502 C1505 1.409 . S
C1503 H1495 0.930 . S
C1503 C1504 1.355 . S
C1503 C1505 1.415 . S
C1504 C1503 1.355 . S
C1504 C1506 1.419 . S
C1505 C1500 1.425 . S
C1505 C1502 1.409 . S
C1505 C1503 1.415 . S
C1506 H1496 0.930 . S
C1506 C1504 1.419 . S
C1506 C1507 1.362 . S
C1507 H1497 0.930 . S
C1507 C1500 1.409 . S
C1507 C1506 1.362 . S
H1508 C1514 0.930 . S
H1509 C1517 0.930 . S
H1510 C1518 0.930 . S
H1511 C1519 0.930 . S
H1512 C1522 0.930 . S
H1513 C1523 0.930 . S
C1514 H1508 0.930 . S
C1514 C1515 1.355 . S
C1514 C1516 1.415 . S
C1515 C1514 1.355 . S
C1515 C1517 1.419 . S
C1516 C1514 1.415 . S
C1516 C1521 1.425 . S
C1516 C1523 1.409 . S
C1517 H1509 0.930 . S
C1517 C1515 1.419 . S
C1517 C1518 1.362 . S
C1518 H1510 0.930 . S
C1518 C1517 1.362 . S
C1518 C1521 1.409 . S
C1519 H1511 0.930 . S
C1519 C1520 1.355 . S
C1519 C1521 1.415 . S
C1520 C1519 1.355 . S
C1520 C1522 1.419 . S
C1521 C1516 1.425 . S
C1521 C1518 1.409 . S
C1521 C1519 1.415 . S
C1522 H1512 0.930 . S
C1522 C1520 1.419 . S
C1522 C1523 1.362 . S
C1523 H1513 0.930 . S
C1523 C1516 1.409 . S
C1523 C1522 1.362 . S
H1524 C1530 0.930 . S
H1525 C1533 0.930 . S
H1526 C1534 0.930 . S
H1527 C1535 0.930 . S
H1528 C1538 0.930 . S
H1529 C1539 0.930 . S
C1530 H1524 0.930 . S
C1530 C1531 1.355 . S
C1530 C1532 1.415 . S
C1531 C1530 1.355 . S
C1531 C1533 1.419 . S
C1532 C1530 1.415 . S
C1532 C1537 1.425 . S
C1532 C1539 1.409 . S
C1533 H1525 0.930 . S
C1533 C1531 1.419 . S
C1533 C1534 1.362 . S
C1534 H1526 0.930 . S
C1534 C1533 1.362 . S
C1534 C1537 1.409 . S
C1535 H1527 0.930 . S
C1535 C1536 1.355 . S
C1535 C1537 1.415 . S
C1536 C1535 1.355 . S
C1536 C1538 1.419 . S
C1537 C1532 1.425 . S
C1537 C1534 1.409 . S
C1537 C1535 1.415 . S
C1538 H1528 0.930 . S
C1538 C1536 1.419 . S
C1538 C1539 1.362 . S
C1539 H1529 0.930 . S
C1539 C1532 1.409 . S
C1539 C1538 1.362 . S
H1540 C1546 0.930 . S
H1541 C1549 0.930 . S
H1542 C1550 0.930 . S
H1543 C1551 0.930 . S
H1544 C1554 0.930 . S
H1545 C1555 0.930 . S
C1546 H1540 0.930 . S
C1546 C1547 1.355 . S
C1546 C1548 1.415 . S
C1547 C1546 1.355 . S
C1547 C1549 1.419 . S
C1548 C1546 1.415 . S
C1548 C1553 1.425 . S
C1548 C1555 1.409 . S
C1549 H1541 0.930 . S
C1549 C1547 1.419 . S
C1549 C1550 1.362 . S
C1550 H1542 0.930 . S
C1550 C1549 1.362 . S
C1550 C1553 1.409 . S
C1551 H1543 0.930 . S
C1551 C1552 1.355 . S
C1551 C1553 1.415 . S
C1552 C1551 1.355 . S
C1552 C1554 1.419 . S
C1553 C1548 1.425 . S
C1553 C1550 1.409 . S
C1553 C1551 1.415 . S
C1554 H1544 0.930 . S
C1554 C1552 1.419 . S
C1554 C1555 1.362 . S
C1555 H1545 0.930 . S
C1555 C1548 1.409 . S
C1555 C1554 1.362 . S
H1556 C1562 0.930 . S
H1557 C1565 0.930 . S
H1558 C1566 0.930 . S
H1559 C1567 0.930 . S
H1560 C1570 0.930 . S
H1561 C1571 0.930 . S
C1562 H1556 0.930 . S
C1562 C1563 1.355 . S
C1562 C1564 1.415 . S
C1563 C1562 1.355 . S
C1563 C1565 1.419 . S
C1564 C1562 1.415 . S
C1564 C1569 1.425 . S
C1564 C1571 1.409 . S
C1565 H1557 0.930 . S
C1565 C1563 1.419 . S
C1565 C1566 1.362 . S
C1566 H1558 0.930 . S
C1566 C1565 1.362 . S
C1566 C1569 1.409 . S
C1567 H1559 0.930 . S
C1567 C1568 1.355 . S
C1567 C1569 1.415 . S
C1568 C1567 1.355 . S
C1568 C1570 1.419 . S
C1569 C1564 1.425 . S
C1569 C1566 1.409 . S
C1569 C1567 1.415 . S
C1570 H1560 0.930 . S
C1570 C1568 1.419 . S
C1570 C1571 1.362 . S
C1571 H1561 0.930 . S
C1571 C1564 1.409 . S
C1571 C1570 1.362 . S
H1572 C1578 0.930 . S
H1573 C1581 0.930 . S
H1574 C1582 0.930 . S
H1575 C1583 0.930 . S
H1576 C1586 0.930 . S
H1577 C1587 0.930 . S
C1578 H1572 0.930 . S
C1578 C1579 1.355 . S
C1578 C1580 1.415 . S
C1579 C1578 1.355 . S
C1579 C1581 1.419 . S
C1580 C1578 1.415 . S
C1580 C1585 1.425 . S
C1580 C1587 1.409 . S
C1581 H1573 0.930 . S
C1581 C1579 1.419 . S
C1581 C1582 1.362 . S
C1582 H1574 0.930 . S
C1582 C1581 1.362 . S
C1582 C1585 1.409 . S
C1583 H1575 0.930 . S
C1583 C1584 1.355 . S
C1583 C1585 1.415 . S
C1584 C1583 1.355 . S
C1584 C1586 1.419 . S
C1585 C1580 1.425 . S
C1585 C1582 1.409 . S
C1585 C1583 1.415 . S
C1586 H1576 0.930 . S
C1586 C1584 1.419 . S
C1586 C1587 1.362 . S
C1587 H1577 0.930 . S
C1587 C1580 1.409 . S
C1587 C1586 1.362 . S
H1588 C1594 0.930 . S
H1589 C1597 0.930 . S
H1590 C1598 0.930 . S
H1591 C1599 0.930 . S
H1592 C1602 0.930 . S
H1593 C1603 0.930 . S
C1594 H1588 0.930 . S
C1594 C1595 1.355 . S
C1594 C1596 1.415 . S
C1595 C1594 1.355 . S
C1595 C1597 1.419 . S
C1596 C1594 1.415 . S
C1596 C1601 1.425 . S
C1596 C1603 1.409 . S
C1597 H1589 0.930 . S
C1597 C1595 1.419 . S
C1597 C1598 1.362 . S
C1598 H1590 0.930 . S
C1598 C1597 1.362 . S
C1598 C1601 1.409 . S
C1599 H1591 0.930 . S
C1599 C1600 1.355 . S
C1599 C1601 1.415 . S
C1600 C1599 1.355 . S
C1600 C1602 1.419 . S
C1601 C1596 1.425 . S
C1601 C1598 1.409 . S
C1601 C1599 1.415 . S
C1602 H1592 0.930 . S
C1602 C1600 1.419 . S
C1602 C1603 1.362 . S
C1603 H1593 0.930 . S
C1603 C1596 1.409 . S
C1603 C1602 1.362 . S
H1604 C1610 0.930 . S
H1605 C1613 0.930 . S
H1606 C1614 0.930 . S
H1607 C1615 0.930 . S
H1608 C1618 0.930 . S
H1609 C1619 0.930 . S
C1610 H1604 0.930 . S
C1610 C1611 1.355 . S
C1610 C1612 1.415 . S
C1611 C1610 1.355 . S
C1611 C1613 1.419 . S
C1612 C1610 1.415 . S
C1612 C1617 1.425 . S
C1612 C1619 1.409 . S
C1613 H1605 0.930 . S
C1613 C1611 1.419 . S
C1613 C1614 1.362 . S
C1614 H1606 0.930 . S
C1614 C1613 1.362 . S
C1614 C1617 1.409 . S
C1615 H1607 0.930 . S
C1615 C1616 1.355 . S
C1615 C1617 1.415 . S
C1616 C1615 1.355 . S
C1616 C1618 1.419 . S
C1617 C1612 1.425 . S
C1617 C1614 1.409 . S
C1617 C1615 1.415 . S
C1618 H1608 0.930 . S
C1618 C1616 1.419 . S
C1618 C1619 1.362 . S
C1619 H1609 0.930 . S
C1619 C1612 1.409 . S
C1619 C1618 1.362 . S
C763 C439 1.452 . S
C768 C582 1.518 . S
C779 C465 1.523 . S
C784 C602 1.490 . S
C795 C401 1.548 . S
C800 C625 1.551 . S
C811 C369 1.462 . S
C816 C605 1.472 . S
C832 C622 1.479 . S
C827 C305 1.473 . S
C843 C343 1.425 . S
C848 C585 1.465 . S
C864 C592 1.552 . S
C859 C375 1.558 . S
C880 C612 1.492 . S
C875 C311 1.501 . S
C891 C337 1.438 . S
C896 C617 1.513 . S
C907 C433 1.443 . S
C912 C597 1.471 . S
C923 C471 1.463 . S
C928 C632 1.424 . S
C944 C577 1.456 . S
C939 C407 1.503 . S
C960 C642 1.517 . S
C955 C55 1.494 . S
C971 C81 1.534 . S
C976 C662 1.488 . S
C987 C17 1.557 . S
C992 C685 1.521 . S
C1003 C561 1.473 . S
C1008 C665 1.440 . S
C1019 C497 1.495 . S
C1024 C682 1.444 . S
C1035 C535 1.344 . S
C1040 C645 1.427 . S
C1051 C567 1.557 . S
C1056 C652 1.554 . S
C1067 C503 1.509 . S
C1072 C672 1.471 . S
C1088 C677 1.548 . S
C1083 C529 1.516 . S
C1099 C49 1.414 . S
C1104 C657 1.447 . S
C1120 C692 1.462 . S
C1115 C87 1.436 . S
C1131 C23 1.493 . S
C1136 C637 1.500 . S
C1152 C702 1.493 . S
C1147 C247 1.469 . S
C1163 C273 1.530 . S
C1168 C722 1.476 . S
C1184 C745 1.508 . S
C1179 C209 1.556 . S
C1200 C725 1.455 . S
C1195 C177 1.465 . S
C1216 C742 1.486 . S
C1211 C113 1.460 . S
C1227 C151 1.424 . S
C1232 C705 1.464 . S
C1243 C183 1.571 . S
C1248 C712 1.502 . S
C1259 C119 1.509 . S
C1264 C732 1.474 . S
C1280 C737 1.549 . S
C1275 C145 1.517 . S
C1291 C241 1.421 . S
C1296 C717 1.450 . S
C1307 C279 1.464 . S
C1312 C752 1.417 . S
C1323 C215 1.491 . S
C1328 C697 1.495 . S
C1339 C509 1.295 . S
C1344 C595 1.336 1_565 S
C1360 C615 1.514 . S
C1355 C541 1.498 . S
C1371 C573 1.502 . S
C1376 C624 1.427 . S
C1387 C221 1.656 . S
C1392 C604 1.559 . S
C1403 C253 1.378 . S
C1408 C635 1.412 . S
C1424 C584 1.325 1_545 S
C1419 C285 1.302 . S
C1435 C125 1.343 . S
C1440 C655 1.269 . S
C1451 C157 1.497 . S
C1456 C675 1.515 . S
C1467 C189 1.501 . S
C1472 C684 1.451 . S
C1483 C413 1.650 . S
C1488 C664 1.564 . S
C1504 C695 1.453 . S
C1499 C445 1.444 . S
C1515 C477 1.318 . S
C1520 C644 1.277 . S
C1531 C317 1.309 . S
C1536 C715 1.313 . S
C1547 C349 1.577 . S
C1552 C735 1.583 . S
C1568 C744 1.439 . S
C1563 C381 1.506 . S
C1579 C29 1.651 . S
C1584 C724 1.591 . S
C1595 C61 1.391 . S
C1600 C755 1.398 . S
C1611 C93 1.315 . S
C1616 C704 1.317 . S
