# Generated by pormake.
# Topology eea, (3,6)-cn, num edge types: 1
# Building blocks:
#     Node 0, Type 0, BuildingBlock: BETDAH_clean_linker_0, # of connection points: 3
#     Node 1, Type 0, BuildingBlock: BETDAH_clean_linker_0, # of connection points: 3
#     Node 2, Type 0, BuildingBlock: BETDAH_clean_linker_0, # of connection points: 3
#     Node 3, Type 0, BuildingBlock: BETDAH_clean_linker_0, # of connection points: 3
#     Node 4, Type 0, BuildingBlock: BETDAH_clean_linker_0, # of connection points: 3
#     Node 5, Type 0, BuildingBlock: BETDAH_clean_linker_0, # of connection points: 3
#     Node 6, Type 0, BuildingBlock: BETDAH_clean_linker_0, # of connection points: 3
#     Node 7, Type 0, BuildingBlock: BETDAH_clean_linker_0, # of connection points: 3
#     Node 8, Type 0, BuildingBlock: BETDAH_clean_linker_0, # of connection points: 3
#     Node 9, Type 0, BuildingBlock: BETDAH_clean_linker_0, # of connection points: 3
#     Node 10, Type 0, BuildingBlock: BETDAH_clean_linker_0, # of connection points: 3
#     Node 11, Type 0, BuildingBlock: BETDAH_clean_linker_0, # of connection points: 3
#     Node 12, Type 0, BuildingBlock: BETDAH_clean_linker_0, # of connection points: 3
#     Node 13, Type 0, BuildingBlock: BETDAH_clean_linker_0, # of connection points: 3
#     Node 14, Type 0, BuildingBlock: BETDAH_clean_linker_0, # of connection points: 3
#     Node 15, Type 0, BuildingBlock: BETDAH_clean_linker_0, # of connection points: 3
#     Node 16, Type 0, BuildingBlock: BETDAH_clean_linker_0, # of connection points: 3
#     Node 17, Type 0, BuildingBlock: BETDAH_clean_linker_0, # of connection points: 3
#     Node 18, Type 1, BuildingBlock: HISSIN_clean_sbu_0, # of connection points: 6
#     Node 19, Type 1, BuildingBlock: HISSIN_clean_sbu_0, # of connection points: 6
#     Node 20, Type 1, BuildingBlock: HISSIN_clean_sbu_0, # of connection points: 6
#     Node 21, Type 1, BuildingBlock: HISSIN_clean_sbu_0, # of connection points: 6
#     Node 22, Type 1, BuildingBlock: HISSIN_clean_sbu_0, # of connection points: 6
#     Node 23, Type 1, BuildingBlock: HISSIN_clean_sbu_0, # of connection points: 6
#     Node 24, Type 1, BuildingBlock: HISSIN_clean_sbu_0, # of connection points: 6
#     Node 25, Type 1, BuildingBlock: HISSIN_clean_sbu_0, # of connection points: 6
#     Node 26, Type 1, BuildingBlock: HISSIN_clean_sbu_0, # of connection points: 6
#     Edge 27, Type (0, 1), None
#     Edge 28, Type (0, 1), None
#     Edge 29, Type (0, 1), None
#     Edge 30, Type (0, 1), None
#     Edge 31, Type (0, 1), None
#     Edge 32, Type (0, 1), None
#     Edge 33, Type (0, 1), None
#     Edge 34, Type (0, 1), None
#     Edge 35, Type (0, 1), None
#     Edge 36, Type (0, 1), None
#     Edge 37, Type (0, 1), None
#     Edge 38, Type (0, 1), None
#     Edge 39, Type (0, 1), None
#     Edge 40, Type (0, 1), None
#     Edge 41, Type (0, 1), None
#     Edge 42, Type (0, 1), None
#     Edge 43, Type (0, 1), None
#     Edge 44, Type (0, 1), None
#     Edge 45, Type (0, 1), None
#     Edge 46, Type (0, 1), None
#     Edge 47, Type (0, 1), None
#     Edge 48, Type (0, 1), None
#     Edge 49, Type (0, 1), None
#     Edge 50, Type (0, 1), None
#     Edge 51, Type (0, 1), None
#     Edge 52, Type (0, 1), None
#     Edge 53, Type (0, 1), None
#     Edge 54, Type (0, 1), None
#     Edge 55, Type (0, 1), None
#     Edge 56, Type (0, 1), None
#     Edge 57, Type (0, 1), None
#     Edge 58, Type (0, 1), None
#     Edge 59, Type (0, 1), None
#     Edge 60, Type (0, 1), None
#     Edge 61, Type (0, 1), None
#     Edge 62, Type (0, 1), None
#     Edge 63, Type (0, 1), None
#     Edge 64, Type (0, 1), None
#     Edge 65, Type (0, 1), None
#     Edge 66, Type (0, 1), None
#     Edge 67, Type (0, 1), None
#     Edge 68, Type (0, 1), None
#     Edge 69, Type (0, 1), None
#     Edge 70, Type (0, 1), None
#     Edge 71, Type (0, 1), None
#     Edge 72, Type (0, 1), None
#     Edge 73, Type (0, 1), None
#     Edge 74, Type (0, 1), None
#     Edge 75, Type (0, 1), None
#     Edge 76, Type (0, 1), None
#     Edge 77, Type (0, 1), None
#     Edge 78, Type (0, 1), None
#     Edge 79, Type (0, 1), None
#     Edge 80, Type (0, 1), None
# Relax obj value: 0.060
# Max RMSD: 0.271
# Mean RMSD: 0.198
data_MOF--net-eea--node1-HISSIN_clean_sbu_0--node2-BETDAH_clean_linker_0--edge1-none
_symmetry_space_group_name_H-M    P1
_symmetry_Int_Tables_number       1
_symmetry_cell_setting            triclinic
loop_
_symmetry_equiv_pos_as_xyz
'x, y, z'
_cell_length_a     24.432437
_cell_length_b     24.63489
_cell_length_c     37.522371
_cell_angle_alpha  92.445913
_cell_angle_beta   93.30863
_cell_angle_gamma 119.82628
loop_
_atom_site_label
_atom_site_type_symbol
_atom_site_fract_x
_atom_site_fract_y
_atom_site_fract_z
_atom_type_partial_charge
H0 H 0.26127 0.01859 0.46069 0.0
H1 H 0.26358 0.19309 0.45121 0.0
H2 H 0.19329 0.05467 0.36134 0.0
C3 C 0.25053 0.04861 0.44501 0.0
C4 C 0.22432 0.02887 0.40927 0.0
C5 C 0.26505 0.10768 0.46052 0.0
C6 C 0.25205 0.14705 0.43989 0.0
C7 C 0.2256 0.12708 0.40418 0.0
C8 C 0.21234 0.06861 0.38913 0.0
N9 N 0.21533 0.16577 0.38141 0.0
C10 C 0.19947 0.21024 0.39199 0.0
H11 H 0.97205 0.2615 0.45253 0.0
H12 H 0.84312 0.06352 0.45536 0.0
H13 H 0.97148 0.12918 0.37343 0.0
C14 C 0.95202 0.21382 0.44074 0.0
C15 C 0.97652 0.20186 0.41001 0.0
C16 C 0.90424 0.16431 0.45767 0.0
C17 C 0.87969 0.10231 0.44275 0.0
C18 C 0.90401 0.09011 0.41231 0.0
C19 C 0.95213 0.13968 0.39628 0.0
N20 N 0.88457 0.02827 0.39849 0.0
C21 C 0.82484 0.97677 0.40041 0.0
H22 H 0.76784 0.74995 0.46137 0.0
H23 H 0.92104 0.71247 0.45374 0.0
H24 H 0.85692 0.77398 0.3631 0.0
C25 C 0.80437 0.74986 0.4463 0.0
C26 C 0.80807 0.76541 0.41047 0.0
C27 C 0.84475 0.73094 0.46251 0.0
C28 C 0.89079 0.72902 0.44234 0.0
C29 C 0.89613 0.74603 0.40676 0.0
C30 C 0.85472 0.76412 0.39102 0.0
N31 N 0.93438 0.73376 0.38461 0.0
C32 C -0.00058 0.77309 0.38438 0.0
H33 H 0.0445 0.30224 0.63348 0.0
H34 H 0.16208 0.22095 0.61436 0.0
H35 H 0.04011 0.16091 0.699 0.0
C36 C 0.06298 0.27217 0.64124 0.0
C37 C 0.03852 0.23414 0.67004 0.0
C38 C 0.10767 0.26798 0.62065 0.0
C39 C 0.12899 0.22631 0.63009 0.0
C40 C 0.10482 0.18856 0.65861 0.0
C41 C 0.06033 0.19289 0.67833 0.0
N42 N 0.11583 0.13827 0.66404 0.0
C43 C 0.17503 0.14564 0.67324 0.0
H44 H 0.71716 0.74861 0.63456 0.0
H45 H 0.81066 0.94073 0.60862 0.0
H46 H 0.87123 0.89282 0.70576 0.0
C47 C 0.75224 0.79745 0.64163 0.0
C48 C 0.7926 0.81513 0.67379 0.0
C49 C 0.75939 0.84214 0.6174 0.0
C50 C 0.80512 0.90524 0.62649 0.0
C51 C 0.84478 0.92305 0.65833 0.0
C52 C 0.83928 0.87818 0.68155 0.0
N53 N 0.89052 0.98651 0.66736 0.0
C54 C 0.87249 0.03153 0.66914 0.0
H55 H 0.24 0.9697 0.61519 0.0
H56 H 0.0782 0.78727 0.62355 0.0
H57 H 0.15065 0.92513 0.71365 0.0
C58 C 0.20255 0.93737 0.63046 0.0
C59 C 0.2 0.95552 0.66612 0.0
C60 C 0.15889 0.8771 0.61454 0.0
C61 C 0.1112 0.83465 0.63483 0.0
C62 C 0.10782 0.85266 0.67039 0.0
C63 C 0.15228 0.91274 0.68581 0.0
N64 N 0.0677 0.80787 0.693 0.0
C65 C 0.00233 0.78185 0.69099 0.0
H66 H 0.93045 0.35225 0.79356 0.0
H67 H 0.92332 0.52213 0.78443 0.0
H68 H 0.85442 0.38257 0.69513 0.0
C69 C 0.91741 0.38083 0.778 0.0
C70 C 0.89012 0.3599 0.74255 0.0
C71 C 0.92968 0.43915 0.79348 0.0
C72 C 0.91362 0.47672 0.77306 0.0
C73 C 0.88583 0.45538 0.73762 0.0
C74 C 0.87473 0.39762 0.72266 0.0
N75 N 0.87084 0.4913 0.71502 0.0
C76 C 0.8585 0.53821 0.7258 0.0
H77 H 0.63688 0.59439 0.78553 0.0
H78 H 0.50763 0.39649 0.78834 0.0
H79 H 0.63574 0.46191 0.70628 0.0
C80 C 0.61675 0.54671 0.77372 0.0
C81 C 0.6411 0.53469 0.74293 0.0
C82 C 0.56894 0.49722 0.79066 0.0
C83 C 0.54424 0.43522 0.77572 0.0
C84 C 0.5684 0.42294 0.74524 0.0
C85 C 0.61652 0.47248 0.72918 0.0
N86 N 0.54871 0.36105 0.73136 0.0
C87 C 0.48942 0.30934 0.73405 0.0
H88 H 0.43832 0.08395 0.79675 0.0
H89 H 0.59327 0.04943 0.7871 0.0
H90 H 0.52331 0.10732 0.6972 0.0
C91 C 0.47451 0.08421 0.78121 0.0
C92 C 0.47652 0.09912 0.74532 0.0
C93 C 0.51631 0.0665 0.79692 0.0
C94 C 0.56202 0.06513 0.77609 0.0
C95 C 0.56534 0.08122 0.74031 0.0
C96 C 0.52251 0.09801 0.7252 0.0
N97 N 0.6028 0.06943 0.71719 0.0
C98 C 0.66862 0.10394 0.71893 0.0
H99 H 0.70729 0.63458 0.96562 0.0
H100 H 0.83244 0.56087 0.95035 0.0
H101 H 0.70873 0.49931 0.03421 0.0
C102 C 0.72743 0.60633 0.97427 0.0
C103 C 0.70385 0.56924 1.00352 0.0
C104 C 0.77374 0.60365 0.9545 0.0
C105 C 0.79759 0.56459 0.96525 0.0
C106 C 0.77409 0.52765 0.99418 0.0
C107 C 0.72784 0.53027 1.01297 0.0
N108 N 0.79007 0.4815 1.00231 0.0
C109 C 0.85172 0.49341 1.00771 0.0
H110 H 0.38301 0.08304 0.96925 0.0
H111 H 0.47704 0.27458 0.9422 0.0
H112 H 0.53887 0.22772 0.03929 0.0
C113 C 0.41826 0.13192 0.97608 0.0
C114 C 0.45918 0.14988 1.00802 0.0
C115 C 0.42521 0.1763 0.95167 0.0
C116 C 0.47139 0.23939 0.96033 0.0
C117 C 0.5117 0.25746 0.9919 0.0
C118 C 0.50621 0.21291 1.01538 0.0
N119 N 0.55902 0.32063 1.00002 0.0
C120 C 0.54305 0.36712 1.00243 0.0
H121 H 0.90841 0.30541 0.94824 0.0
H122 H 0.74948 0.12147 0.95655 0.0
H123 H 0.81632 0.26047 0.04591 0.0
C124 C 0.87087 0.27286 0.96338 0.0
C125 C 0.86707 0.2911 0.9988 0.0
C126 C 0.8287 0.21215 0.94759 0.0
C127 C 0.78122 0.16923 0.96771 0.0
C128 C 0.77597 0.18726 1.00287 0.0
C129 C 0.81891 0.24802 1.01826 0.0
N130 N 0.73588 0.14149 1.02506 0.0
C131 C 0.67212 0.12227 1.02654 0.0
H132 H 0.60232 0.6888 0.12452 0.0
H133 H 0.57951 0.85041 0.11875 0.0
H134 H 0.50586 0.70807 1.03062 0.0
C135 C 0.58492 0.71498 0.10985 0.0
C136 C 0.55329 0.69163 0.07539 0.0
C137 C 0.59465 0.77204 0.12582 0.0
C138 C 0.57267 0.80649 0.10669 0.0
C139 C 0.53991 0.78242 0.07238 0.0
C140 C 0.53081 0.72561 0.05708 0.0
N141 N 0.51354 0.81226 0.05218 0.0
C142 C 0.5189 0.86979 0.06121 0.0
H143 H 0.30476 0.92971 0.11855 0.0
H144 H 0.17882 0.73147 0.12289 0.0
H145 H 0.3076 0.79706 0.04113 0.0
C146 C 0.28559 0.8819 0.10717 0.0
C147 C 0.3108 0.86994 0.07676 0.0
C148 C 0.23837 0.83238 0.12438 0.0
C149 C 0.21492 0.77025 0.11003 0.0
C150 C 0.23988 0.7579 0.07995 0.0
C151 C 0.28758 0.80758 0.06365 0.0
N152 N 0.22182 0.69595 0.06696 0.0
C153 C 0.16238 0.64374 0.0687 0.0
H154 H 0.10453 0.41618 0.12875 0.0
H155 H 0.25618 0.37654 0.12002 0.0
H156 H 0.19007 0.43667 1.02953 0.0
C157 C 0.14035 0.41526 0.11338 0.0
C158 C 0.14312 0.42996 0.07744 0.0
C159 C 0.18081 0.39621 0.12934 0.0
C160 C 0.22596 0.39325 0.10878 0.0
C161 C 0.23016 0.40926 0.07299 0.0
C162 C 0.18867 0.42745 0.05755 0.0
N163 N 0.26733 0.39626 0.05034 0.0
C164 C 0.33294 0.43226 0.05132 0.0
H165 H 0.37558 0.96872 0.3005 0.0
H166 H 0.49476 0.88885 0.2826 0.0
H167 H 0.37114 0.82799 0.36652 0.0
C168 C 0.39422 0.93889 0.3085 0.0
C169 C 0.36947 0.90084 0.33725 0.0
C170 C 0.43946 0.93508 0.28824 0.0
C171 C 0.46112 0.89381 0.29802 0.0
C172 C 0.43663 0.85601 0.32651 0.0
C173 C 0.39147 0.85988 0.34583 0.0
N174 N 0.44852 0.80646 0.33264 0.0
C175 C 0.50832 0.81429 0.34023 0.0
H176 H 0.05127 0.41516 0.30169 0.0
H177 H 0.14141 0.60748 0.27637 0.0
H178 H 0.20297 0.56053 0.37359 0.0
C179 C 0.08554 0.46417 0.30897 0.0
C180 C 0.12564 0.48222 0.34124 0.0
C181 C 0.09195 0.50878 0.28488 0.0
C182 C 0.13648 0.57214 0.29421 0.0
C183 C 0.17581 0.59039 0.3262 0.0
C184 C 0.17123 0.54559 0.34928 0.0
N185 N 0.22053 0.65413 0.33545 0.0
C186 C 0.20185 0.69872 0.336 0.0
H187 H 0.57316 0.63793 0.28089 0.0
H188 H 0.41305 0.45484 0.29012 0.0
H189 H 0.48411 0.59412 0.37946 0.0
C190 C 0.53595 0.60562 0.29629 0.0
C191 C 0.53324 0.62415 0.33183 0.0
C192 C 0.49286 0.54497 0.28069 0.0
C193 C 0.44555 0.50251 0.30115 0.0
C194 C 0.44193 0.52094 0.33657 0.0
C195 C 0.48583 0.58141 0.3517 0.0
N196 N 0.40222 0.47632 0.35937 0.0
C197 C 0.3369 0.45041 0.35762 0.0
Eu198 Eu 0.46556 0.98781 1.00275 0.0
Eu199 Eu 0.50025 0.03988 0.09056 0.0
C200 C 0.45725 0.10173 1.03109 0.0
C201 C 0.46779 -0.00851 0.90003 0.0
C202 C 0.47513 0.05058 0.89375 0.0
C203 C 0.50225 0.98634 0.84069 0.0
C204 C 0.4942 0.07638 0.86103 0.0
C205 C 0.48276 0.96031 0.8734 0.0
C206 C 0.50672 0.04402 0.83373 0.0
C207 C 0.4416 0.96041 0.9331 0.0
O208 O 0.395 0.97662 0.08036 0.0
O209 O 0.38935 0.91161 1.03278 0.0
C210 C 0.36625 0.92189 0.06176 0.0
O211 O 0.52059 0.9463 1.02701 0.0
O212 O 0.47563 0.07295 0.13907 0.0
O213 O 0.55704 0.06009 0.14161 0.0
O214 O 0.49452 0.94532 0.08504 0.0
C215 C 0.51534 0.9255 0.05885 0.0
O216 O 0.56252 0.07535 1.00712 0.0
O217 O 0.59375 0.07754 0.06674 0.0
O218 O 0.50095 0.11576 0.05767 0.0
O219 O 0.47605 0.94461 0.95305 0.0
O220 O 0.41345 0.98287 0.9523 0.0
O221 O 0.42069 0.04316 1.0195 0.0
C222 C 0.49766 0.03534 0.1924 0.0
C223 C 0.48326 0.97254 0.19257 0.0
C224 C 0.47359 0.0327 0.25482 0.0
C225 C 0.46489 0.94042 0.22361 0.0
C226 C 0.49241 0.06497 0.22378 0.0
C227 C 0.45999 0.97005 0.25528 0.0
C228 C 0.51878 0.07031 0.15993 0.0
C229 C 0.60667 0.09292 0.03388 0.0
H230 H 0.46459 0.07628 0.91373 0.0
H231 H 0.51072 0.95978 0.82019 0.0
H232 H 0.49757 0.1211 0.85669 0.0
H233 H 0.47752 0.91474 0.87747 0.0
H234 H 0.48628 0.94825 0.16866 0.0
H235 H 0.47054 0.05713 0.27863 0.0
H236 H 0.45358 0.8919 0.2226 0.0
H237 H 0.50318 0.11332 0.22435 0.0
Eu238 Eu 0.03245 0.48831 0.9993 0.0
Eu239 Eu 0.97973 0.46304 0.08071 0.0
C240 C 0.91572 0.35415 1.01516 0.0
C241 C 0.03001 0.49368 0.89857 0.0
C242 C 0.97361 0.43583 0.89157 0.0
C243 C 0.01683 0.51914 0.83781 0.0
C244 C 0.93995 0.41923 0.85776 0.0
C245 C 0.05089 0.53555 0.87163 0.0
C246 C 0.96153 0.46038 0.8304 0.0
C247 C 0.06565 0.51179 0.93424 0.0
O248 O 0.04124 0.42033 0.07584 0.0
O249 O 0.10645 0.4786 0.03383 0.0
C250 C 0.09486 0.44326 0.06103 0.0
O251 O 0.07018 0.58049 1.03132 0.0
O252 O 0.94497 0.40408 0.12539 0.0
O253 O 0.96031 0.49859 0.12977 0.0
O254 O 0.07853 0.54807 0.08609 0.0
C255 C 0.09905 0.5914 0.06332 0.0
O256 O 0.93416 0.47467 0.99411 0.0
O257 O 0.93132 0.508 0.05166 0.0
O258 O 0.90597 0.37864 0.04444 0.0
O259 O 0.05588 0.54904 0.95524 0.0
O260 O 0.06695 0.46714 0.95119 0.0
O261 O 0.96732 0.3846 0.99863 0.0
C262 C 0.98499 0.46161 0.18174 0.0
C263 C 0.05109 0.50028 0.18498 0.0
C264 C 0.98881 0.44926 0.24573 0.0
C265 C 0.08559 0.5145 0.21838 0.0
C266 C 0.95412 0.43548 0.21221 0.0
C267 C 0.05481 0.4899 0.24924 0.0
C268 C 0.94857 0.4492 0.14669 0.0
C269 C 0.91032 0.49581 1.01767 0.0
H270 H 0.95578 0.40328 0.91215 0.0
H271 H 0.03484 0.55146 0.81713 0.0
H272 H 0.89721 0.37386 0.85282 0.0
H273 H 0.09386 0.58075 0.87667 0.0
H274 H 0.07598 0.52015 0.1617 0.0
H275 H 0.96389 0.42962 0.26903 0.0
H276 H 0.13652 0.54496 0.22011 0.0
H277 H 0.90315 0.4051 0.21016 0.0
Eu278 Eu 0.53889 0.50466 0.07622 0.0
Eu279 Eu 0.5082 0.53049 0.99213 0.0
C280 C 0.5436 0.63156 0.05915 0.0
C281 C 0.53517 0.49871 0.1775 0.0
C282 C 0.53147 0.55338 0.18368 0.0
C283 C 0.50309 0.47019 0.23736 0.0
C284 C 0.51514 0.56699 0.21668 0.0
C285 C 0.51984 0.45676 0.20436 0.0
C286 C 0.50168 0.52606 0.24413 0.0
C287 C 0.55386 0.48442 0.14309 0.0
O288 O 0.61403 0.58373 1.00355 0.0
O289 O 0.62486 0.52507 0.04643 0.0
C290 C 0.64724 0.56243 1.02019 0.0
O291 O 0.5076 0.41558 0.04216 0.0
O292 O 0.52976 0.5903 0.94731 0.0
O293 O 0.44984 0.49573 0.94115 0.0
O294 O 0.53549 0.45554 0.98764 0.0
C295 C 0.52428 0.41241 1.00997 0.0
O296 O 0.4418 0.49506 0.0728 0.0
O297 O 0.41507 0.46367 1.01297 0.0
O298 O 0.50579 0.60403 1.0295 0.0
O299 O 0.50769 0.4438 0.12028 0.0
O300 O 0.59638 0.53192 0.12756 0.0
O301 O 0.57297 0.60655 0.07578 0.0
C302 C 0.50823 0.53319 0.89079 0.0
C303 C 0.5203 0.48333 0.88598 0.0
C304 C 0.53654 0.56029 0.83019 0.0
C305 C 0.53955 0.47163 0.85351 0.0
C306 C 0.51678 0.57171 0.86267 0.0
C307 C 0.54773 0.50978 0.82509 0.0
C308 C 0.48687 0.54511 0.92492 0.0
C309 C 0.39919 0.46623 0.04552 0.0
H310 H 0.54197 0.58598 0.16316 0.0
H311 H 0.49365 0.43805 0.25803 0.0
H312 H 0.51389 0.6101 0.22097 0.0
H313 H 0.52177 0.41401 0.20002 0.0
H314 H 0.51484 0.45331 0.90737 0.0
H315 H 0.54222 0.59049 0.80888 0.0
H316 H 0.54893 0.43313 0.85086 0.0
H317 H 0.50799 0.61056 0.8658 0.0
Eu318 Eu 0.1286 0.31922 0.33488 0.0
Eu319 Eu 0.16695 0.3711 0.4228 0.0
C320 C 0.12369 0.43404 0.3643 0.0
C321 C 0.12925 0.32251 0.23233 0.0
C322 C 0.13872 0.38232 0.22588 0.0
C323 C 0.16382 0.31563 0.1733 0.0
C324 C 0.15885 0.40764 0.19321 0.0
C325 C 0.14325 0.29007 0.20596 0.0
C326 C 0.17033 0.37406 0.16616 0.0
C327 C 0.10195 0.2922 0.26536 0.0
O328 O 0.06173 0.30787 0.41384 0.0
O329 O 0.05388 0.24318 0.3655 0.0
C330 C 0.03213 0.25343 0.39504 0.0
O331 O 0.18378 0.27698 0.3572 0.0
O332 O 0.14348 0.40514 0.47138 0.0
O333 O 0.22445 0.39169 0.47365 0.0
O334 O 0.16571 0.27848 0.41691 0.0
C335 C 0.18369 0.25841 0.38933 0.0
O336 O 0.22707 0.40484 0.33853 0.0
O337 O 0.25936 0.40774 0.39813 0.0
O338 O 0.16843 0.44758 0.39014 0.0
O339 O 0.13381 0.27292 0.28486 0.0
O340 O 0.07719 0.31784 0.285 0.0
O341 O 0.0857 0.37546 0.35329 0.0
C342 C 0.16571 0.36779 0.52468 0.0
C343 C 0.15021 0.30468 0.52476 0.0
C344 C 0.14247 0.36572 0.58724 0.0
C345 C 0.13177 0.27268 0.55583 0.0
C346 C 0.16139 0.39788 0.55616 0.0
C347 C 0.12788 0.30276 0.58762 0.0
C348 C 0.1867 0.40246 0.49211 0.0
C349 C 0.27159 0.42163 0.36502 0.0
H350 H 0.12902 0.409 0.24566 0.0
H351 H 0.17149 0.2882 0.15296 0.0
H352 H 0.16381 0.45296 0.1887 0.0
H353 H 0.13643 0.24395 0.2102 0.0
H354 H 0.15242 0.28004 0.50076 0.0
H355 H 0.14016 0.39046 0.61115 0.0
H356 H 0.11965 0.22393 0.55475 0.0
H357 H 0.17294 0.44646 0.55678 0.0
Eu358 Eu 0.69641 0.82282 0.33195 0.0
Eu359 Eu 0.64373 0.7964 0.41364 0.0
C360 C 0.5815 0.68738 0.34795 0.0
C361 C 0.69481 0.82877 0.23111 0.0
C362 C 0.64026 0.76951 0.22377 0.0
C363 C 0.6804 0.85373 0.17034 0.0
C364 C 0.60696 0.75206 0.18983 0.0
C365 C 0.7142 0.87101 0.20429 0.0
C366 C 0.62696 0.79369 0.16265 0.0
C367 C 0.72995 0.84776 0.26701 0.0
O368 O 0.70551 0.75415 0.40823 0.0
O369 O 0.77091 0.81371 0.36665 0.0
C370 C 0.75944 0.77802 0.39373 0.0
O371 O 0.73088 0.91405 0.36436 0.0
O372 O 0.61 0.73758 0.45846 0.0
O373 O 0.62491 0.83196 0.46293 0.0
O374 O 0.74194 0.88184 0.4186 0.0
C375 C 0.76116 0.92523 0.39594 0.0
O376 O 0.59669 0.80566 0.32652 0.0
O377 O 0.59112 0.83691 0.38412 0.0
O378 O 0.57173 0.711 0.37758 0.0
O379 O 0.71807 0.88355 0.28791 0.0
O380 O 0.73308 0.80406 0.28404 0.0
O381 O 0.63215 0.71888 0.33079 0.0
C382 C 0.65072 0.79532 0.51473 0.0
C383 C 0.71681 0.83396 0.51765 0.0
C384 C 0.6556 0.78304 0.57872 0.0
C385 C 0.75184 0.84815 0.55089 0.0
C386 C 0.62038 0.76928 0.54537 0.0
C387 C 0.72163 0.82356 0.58192 0.0
C388 C 0.61372 0.78268 0.47984 0.0
C389 C 0.56997 0.82332 0.35013 0.0
H390 H 0.62353 0.73654 0.2442 0.0
H391 H 0.69705 0.88651 0.14981 0.0
H392 H 0.56559 0.70572 0.18469 0.0
H393 H 0.75571 0.91725 0.20957 0.0
H394 H 0.7413 0.85376 0.49425 0.0
H395 H 0.63105 0.76342 0.60212 0.0
H396 H 0.80277 0.87849 0.55234 0.0
H397 H 0.56943 0.73893 0.54357 0.0
Eu398 Eu 0.20383 0.83868 0.40949 0.0
Eu399 Eu 0.17605 0.86741 0.32548 0.0
C400 C 0.21223 0.96791 0.39307 0.0
C401 C 0.19951 0.83088 0.51074 0.0
C402 C 0.19747 0.88635 0.51743 0.0
C403 C 0.16719 0.80188 0.57051 0.0
C404 C 0.18181 0.90007 0.55064 0.0
C405 C 0.18327 0.78835 0.53732 0.0
C406 C 0.16737 0.85846 0.5778 0.0
C407 C 0.21746 0.81637 0.47611 0.0
O408 O 0.28169 0.91857 0.33783 0.0
O409 O 0.28935 0.85684 0.37969 0.0
C410 C 0.3133 0.89517 0.35403 0.0
O411 O 0.16741 0.7492 0.37487 0.0
O412 O 0.19998 0.9274 0.28068 0.0
O413 O 0.11851 0.83377 0.27422 0.0
O414 O 0.20032 0.79026 0.32131 0.0
C415 C 0.18496 0.74557 0.34302 0.0
O416 O 0.10823 0.8324 0.40621 0.0
O417 O 0.08153 0.8038 0.34604 0.0
O418 O 0.17592 0.94238 0.36274 0.0
O419 O 0.17076 0.77708 0.45313 0.0
O420 O 0.26098 0.86352 0.46084 0.0
O421 O 0.23913 0.94091 0.41013 0.0
C422 C 0.17781 0.87017 0.22412 0.0
C423 C 0.19049 0.82065 0.21986 0.0
C424 C 0.20479 0.89534 0.16313 0.0
C425 C 0.2095 0.80821 0.18748 0.0
C426 C 0.18531 0.9075 0.19552 0.0
C427 C 0.2168 0.84527 0.15861 0.0
C428 C 0.15668 0.88285 0.25813 0.0
C429 C 0.06574 0.80621 0.37865 0.0
H430 H 0.20869 0.91943 0.49715 0.0
H431 H 0.15698 0.76918 0.59093 0.0
H432 H 0.18177 0.94375 0.55529 0.0
H433 H 0.18395 0.745 0.53259 0.0
H434 H 0.18573 0.79149 0.24162 0.0
H435 H 0.20974 0.9247 0.14146 0.0
H436 H 0.21951 0.77008 0.18527 0.0
H437 H 0.17595 0.94603 0.19821 0.0
Eu438 Eu 0.79382 0.65139 0.66787 0.0
Eu439 Eu 0.83195 0.70342 0.75581 0.0
C440 C 0.78982 0.76682 0.69699 0.0
C441 C 0.79348 0.65522 0.56521 0.0
C442 C 0.80093 0.71432 0.55884 0.0
C443 C 0.82876 0.6501 0.50616 0.0
C444 C 0.82059 0.7402 0.52622 0.0
C445 C 0.8087 0.62399 0.53876 0.0
C446 C 0.83356 0.7079 0.49913 0.0
C447 C 0.76735 0.62437 0.59832 0.0
O448 O 0.72662 0.64063 0.74675 0.0
O449 O 0.71849 0.57574 0.69842 0.0
C450 C 0.6968 0.58618 0.72794 0.0
O451 O 0.84614 0.60649 0.69066 0.0
O452 O 0.8086 0.73798 0.80424 0.0
O453 O 0.88955 0.72445 0.80665 0.0
O454 O 0.82915 0.61005 0.75048 0.0
C455 C 0.84583 0.58845 0.72297 0.0
O456 O 0.89255 0.73665 0.67171 0.0
O457 O 0.92435 0.73864 0.73125 0.0
O458 O 0.83432 0.78003 0.72293 0.0
O459 O 0.80109 0.60705 0.6177 0.0
O460 O 0.74097 0.64812 0.61808 0.0
O461 O 0.7515 0.70832 0.68598 0.0
C462 C 0.83103 0.70134 0.85781 0.0
C463 C 0.81805 0.63908 0.85877 0.0
C464 C 0.80567 0.6997 0.91994 0.0
C465 C 0.79983 0.60777 0.89007 0.0
C466 C 0.82438 0.7312 0.88864 0.0
C467 C 0.79363 0.63766 0.92121 0.0
C468 C 0.85185 0.73545 0.82503 0.0
C469 C 0.93689 0.75284 0.69822 0.0
H470 H 0.79025 0.74006 0.5787 0.0
H471 H 0.83761 0.62359 0.48581 0.0
H472 H 0.82431 0.78504 0.52183 0.0
H473 H 0.80341 0.57843 0.54292 0.0
H474 H 0.82207 0.61458 0.83529 0.0
H475 H 0.80156 0.72428 0.94333 0.0
H476 H 0.78974 0.55966 0.88971 0.0
H477 H 0.83397 0.77912 0.88858 0.0
Eu478 Eu 0.36323 0.15415 0.66672 0.0
Eu479 Eu 0.30992 0.128 0.74812 0.0
C480 C 0.24848 0.01853 0.68247 0.0
C481 C 0.3636 0.16123 0.56617 0.0
C482 C 0.30732 0.10336 0.55884 0.0
C483 C 0.35198 0.18688 0.50529 0.0
C484 C 0.27439 0.08689 0.52482 0.0
C485 C 0.38526 0.20315 0.53931 0.0
C486 C 0.29663 0.1282 0.49756 0.0
C487 C 0.39824 0.17937 0.60212 0.0
O488 O 0.37381 0.0878 0.74412 0.0
O489 O 0.43799 0.14625 0.70174 0.0
C490 C 0.42728 0.11132 0.72911 0.0
O491 O 0.39508 0.24519 0.69866 0.0
O492 O 0.27574 0.06959 0.79304 0.0
O493 O 0.29036 0.16388 0.79702 0.0
O494 O 0.40758 0.21437 0.75299 0.0
C495 C 0.42593 0.25739 0.73012 0.0
O496 O 0.26346 0.13647 0.66051 0.0
O497 O 0.2565 0.16723 0.71799 0.0
O498 O 0.23865 0.04203 0.71213 0.0
O499 O 0.38688 0.21556 0.62299 0.0
O500 O 0.40003 0.13492 0.61903 0.0
O501 O 0.29912 0.05017 0.66535 0.0
C502 C 0.31615 0.12799 0.84911 0.0
C503 C 0.38234 0.16584 0.85184 0.0
C504 C 0.3211 0.1175 0.9133 0.0
C505 C 0.41746 0.18051 0.88507 0.0
C506 C 0.28579 0.10325 0.87994 0.0
C507 C 0.38725 0.15723 0.91627 0.0
C508 C 0.27919 0.11484 0.81417 0.0
C509 C 0.23613 0.15384 0.68386 0.0
H510 H 0.28895 0.07075 0.57937 0.0
H511 H 0.37057 0.21935 0.48472 0.0
H512 H 0.23158 0.04161 0.51971 0.0
H513 H 0.42817 0.24835 0.5446 0.0
H514 H 0.40682 0.18463 0.82828 0.0
H515 H 0.29659 0.09887 0.93686 0.0
H516 H 0.46847 0.21021 0.88636 0.0
H517 H 0.23476 0.07352 0.87829 0.0
Eu518 Eu 0.87438 0.17199 0.74329 0.0
Eu519 Eu 0.84416 0.19869 0.6593 0.0
C520 C 0.87965 0.29952 0.72645 0.0
C521 C 0.87191 0.16613 0.84454 0.0
C522 C 0.86822 0.22081 0.8507 0.0
C523 C 0.84014 0.13785 0.90447 0.0
C524 C 0.85194 0.2345 0.8837 0.0
C525 C 0.85685 0.12436 0.87149 0.0
C526 C 0.83849 0.19361 0.91117 0.0
C527 C 0.88997 0.15149 0.81002 0.0
O528 O 0.95007 0.2509 0.67082 0.0
O529 O 0.9596 0.19076 0.71311 0.0
C530 C 0.98258 0.22848 0.6871 0.0
O531 O 0.83994 0.08235 0.70912 0.0
O532 O 0.8663 0.25835 0.61439 0.0
O533 O 0.78585 0.16407 0.60831 0.0
O534 O 0.86958 0.12249 0.65489 0.0
C535 C 0.85608 0.07849 0.67688 0.0
O536 O 0.77781 0.16362 0.74048 0.0
O537 O 0.75048 0.13387 0.68044 0.0
O538 O 0.84262 0.27283 0.69648 0.0
O539 O 0.84335 0.11114 0.78735 0.0
O540 O 0.93255 0.19876 0.79437 0.0
O541 O 0.90828 0.27392 0.74327 0.0
C542 C 0.84417 0.20099 0.55786 0.0
C543 C 0.85599 0.15097 0.55309 0.0
C544 C 0.87194 0.22754 0.49713 0.0
C545 C 0.87491 0.13894 0.52057 0.0
C546 C 0.85253 0.23928 0.52965 0.0
C547 C 0.88301 0.17693 0.49208 0.0
C548 C 0.82315 0.21329 0.59203 0.0
C549 C 0.73498 0.13625 0.71314 0.0
H550 H 0.87848 0.25326 0.83012 0.0
H551 H 0.83072 0.10574 0.92516 0.0
H552 H 0.85047 0.2775 0.88793 0.0
H553 H 0.8588 0.08161 0.86716 0.0
H554 H 0.85063 0.12108 0.57454 0.0
H555 H 0.87754 0.25762 0.47577 0.0
H556 H 0.88419 0.10037 0.51795 0.0
H557 H 0.84387 0.27822 0.53274 0.0
loop_
_geom_bond_atom_site_label_1
_geom_bond_atom_site_label_2
_geom_bond_distance
_geom_bond_site_symmetry_2
_ccdc_geom_bond_type
H0 C3 0.929 . S
H1 C6 0.929 . S
H2 C8 0.930 . S
C3 H0 0.929 . S
C3 C4 1.398 . S
C3 C5 1.396 . S
C4 C3 1.398 . S
C4 C8 1.407 . S
C5 C3 1.396 . S
C5 C6 1.394 . S
C6 H1 0.929 . S
C6 C5 1.394 . S
C6 C7 1.382 . S
C7 C6 1.382 . S
C7 C8 1.392 . S
C7 N9 1.420 . S
C8 H2 0.930 . S
C8 C4 1.407 . S
C8 C7 1.392 . S
N9 C7 1.420 . S
N9 C10 1.244 . S
C10 N9 1.244 . S
H11 C14 0.929 . S
H12 C17 0.929 . S
H13 C19 0.930 . S
C14 H11 0.929 . S
C14 C15 1.398 . S
C14 C16 1.396 . S
C15 C14 1.398 . S
C15 C19 1.407 . S
C16 C14 1.396 . S
C16 C17 1.394 . S
C17 H12 0.929 . S
C17 C16 1.394 . S
C17 C18 1.382 . S
C18 C17 1.382 . S
C18 C19 1.392 . S
C18 N20 1.420 . S
C19 H13 0.930 . S
C19 C15 1.407 . S
C19 C18 1.392 . S
N20 C18 1.420 . S
N20 C21 1.244 1_545 S
C21 N20 1.244 1_565 S
H22 C25 0.929 . S
H23 C28 0.929 . S
H24 C30 0.930 . S
C25 H22 0.929 . S
C25 C26 1.398 . S
C25 C27 1.396 . S
C26 C25 1.398 . S
C26 C30 1.407 . S
C27 C25 1.396 . S
C27 C28 1.394 . S
C28 H23 0.929 . S
C28 C27 1.394 . S
C28 C29 1.382 . S
C29 C28 1.382 . S
C29 C30 1.392 . S
C29 N31 1.420 . S
C30 H24 0.930 . S
C30 C26 1.407 . S
C30 C29 1.392 . S
N31 C29 1.420 . S
N31 C32 1.244 1_655 S
C32 N31 1.244 1_455 S
H33 C36 0.929 . S
H34 C39 0.929 . S
H35 C41 0.930 . S
C36 H33 0.929 . S
C36 C37 1.398 . S
C36 C38 1.396 . S
C37 C36 1.398 . S
C37 C41 1.407 . S
C38 C36 1.396 . S
C38 C39 1.394 . S
C39 H34 0.929 . S
C39 C38 1.394 . S
C39 C40 1.382 . S
C40 C39 1.382 . S
C40 C41 1.392 . S
C40 N42 1.420 . S
C41 H35 0.930 . S
C41 C37 1.407 . S
C41 C40 1.392 . S
N42 C40 1.420 . S
N42 C43 1.244 . S
C43 N42 1.244 . S
H44 C47 0.929 . S
H45 C50 0.929 . S
H46 C52 0.930 . S
C47 H44 0.929 . S
C47 C48 1.398 . S
C47 C49 1.396 . S
C48 C47 1.398 . S
C48 C52 1.407 . S
C49 C47 1.396 . S
C49 C50 1.394 . S
C50 H45 0.929 . S
C50 C49 1.394 . S
C50 C51 1.382 . S
C51 C50 1.382 . S
C51 C52 1.392 . S
C51 N53 1.420 . S
C52 H46 0.930 . S
C52 C48 1.407 . S
C52 C51 1.392 . S
N53 C51 1.420 . S
N53 C54 1.244 1_565 S
C54 N53 1.244 1_545 S
H55 C58 0.929 . S
H56 C61 0.929 . S
H57 C63 0.930 . S
C58 H55 0.929 . S
C58 C59 1.398 . S
C58 C60 1.396 . S
C59 C58 1.398 . S
C59 C63 1.407 . S
C60 C58 1.396 . S
C60 C61 1.394 . S
C61 H56 0.929 . S
C61 C60 1.394 . S
C61 C62 1.382 . S
C62 C61 1.382 . S
C62 C63 1.392 . S
C62 N64 1.420 . S
C63 H57 0.930 . S
C63 C59 1.407 . S
C63 C62 1.392 . S
N64 C62 1.420 . S
N64 C65 1.244 . S
C65 N64 1.244 . S
H66 C69 0.929 . S
H67 C72 0.929 . S
H68 C74 0.930 . S
C69 H66 0.929 . S
C69 C70 1.398 . S
C69 C71 1.396 . S
C70 C69 1.398 . S
C70 C74 1.407 . S
C71 C69 1.396 . S
C71 C72 1.394 . S
C72 H67 0.929 . S
C72 C71 1.394 . S
C72 C73 1.382 . S
C73 C72 1.382 . S
C73 C74 1.392 . S
C73 N75 1.420 . S
C74 H68 0.930 . S
C74 C70 1.407 . S
C74 C73 1.392 . S
N75 C73 1.420 . S
N75 C76 1.244 . S
C76 N75 1.244 . S
H77 C80 0.929 . S
H78 C83 0.929 . S
H79 C85 0.930 . S
C80 H77 0.929 . S
C80 C81 1.398 . S
C80 C82 1.396 . S
C81 C80 1.398 . S
C81 C85 1.407 . S
C82 C80 1.396 . S
C82 C83 1.394 . S
C83 H78 0.929 . S
C83 C82 1.394 . S
C83 C84 1.382 . S
C84 C83 1.382 . S
C84 C85 1.392 . S
C84 N86 1.420 . S
C85 H79 0.930 . S
C85 C81 1.407 . S
C85 C84 1.392 . S
N86 C84 1.420 . S
N86 C87 1.244 . S
C87 N86 1.244 . S
H88 C91 0.929 . S
H89 C94 0.929 . S
H90 C96 0.930 . S
C91 H88 0.929 . S
C91 C92 1.398 . S
C91 C93 1.396 . S
C92 C91 1.398 . S
C92 C96 1.407 . S
C93 C91 1.396 . S
C93 C94 1.394 . S
C94 H89 0.929 . S
C94 C93 1.394 . S
C94 C95 1.382 . S
C95 C94 1.382 . S
C95 C96 1.392 . S
C95 N97 1.420 . S
C96 H90 0.930 . S
C96 C92 1.407 . S
C96 C95 1.392 . S
N97 C95 1.420 . S
N97 C98 1.244 . S
C98 N97 1.244 . S
H99 C102 0.929 . S
H100 C105 0.929 . S
H101 C107 0.930 1_554 S
C102 H99 0.929 . S
C102 C103 1.398 . S
C102 C104 1.396 . S
C103 C102 1.398 . S
C103 C107 1.407 . S
C104 C102 1.396 . S
C104 C105 1.394 . S
C105 H100 0.929 . S
C105 C104 1.394 . S
C105 C106 1.382 . S
C106 C105 1.382 . S
C106 C107 1.392 . S
C106 N108 1.420 . S
C107 H101 0.930 1_556 S
C107 C103 1.407 . S
C107 C106 1.392 . S
N108 C106 1.420 . S
N108 C109 1.244 . S
C109 N108 1.244 . S
H110 C113 0.929 . S
H111 C116 0.929 . S
H112 C118 0.930 . S
C113 H110 0.929 . S
C113 C114 1.398 . S
C113 C115 1.396 . S
C114 C113 1.398 . S
C114 C118 1.407 1_556 S
C115 C113 1.396 . S
C115 C116 1.394 . S
C116 H111 0.929 . S
C116 C115 1.394 . S
C116 C117 1.382 . S
C117 C116 1.382 . S
C117 C118 1.392 1_556 S
C117 N119 1.420 1_556 S
C118 H112 0.930 . S
C118 C114 1.407 1_554 S
C118 C117 1.392 1_554 S
N119 C117 1.420 1_554 S
N119 C120 1.244 1_554 S
C120 N119 1.244 1_556 S
H121 C124 0.929 . S
H122 C127 0.929 . S
H123 C129 0.930 1_554 S
C124 H121 0.929 . S
C124 C125 1.398 . S
C124 C126 1.396 . S
C125 C124 1.398 . S
C125 C129 1.407 . S
C126 C124 1.396 . S
C126 C127 1.394 . S
C127 H122 0.929 . S
C127 C126 1.394 . S
C127 C128 1.382 . S
C128 C127 1.382 . S
C128 C129 1.392 . S
C128 N130 1.420 . S
C129 H123 0.930 1_556 S
C129 C125 1.407 . S
C129 C128 1.392 . S
N130 C128 1.420 . S
N130 C131 1.244 . S
C131 N130 1.244 . S
H132 C135 0.929 . S
H133 C138 0.929 . S
H134 C140 0.930 1_556 S
C135 H132 0.929 . S
C135 C136 1.398 . S
C135 C137 1.396 . S
C136 C135 1.398 . S
C136 C140 1.407 . S
C137 C135 1.396 . S
C137 C138 1.394 . S
C138 H133 0.929 . S
C138 C137 1.394 . S
C138 C139 1.382 . S
C139 C138 1.382 . S
C139 C140 1.392 . S
C139 N141 1.420 . S
C140 H134 0.930 1_554 S
C140 C136 1.407 . S
C140 C139 1.392 . S
N141 C139 1.420 . S
N141 C142 1.244 . S
C142 N141 1.244 . S
H143 C146 0.929 . S
H144 C149 0.929 . S
H145 C151 0.930 1_556 S
C146 H143 0.929 . S
C146 C147 1.398 . S
C146 C148 1.396 . S
C147 C146 1.398 . S
C147 C151 1.407 . S
C148 C146 1.396 . S
C148 C149 1.394 . S
C149 H144 0.929 . S
C149 C148 1.394 . S
C149 C150 1.382 . S
C150 C149 1.382 . S
C150 C151 1.392 . S
C150 N152 1.420 . S
C151 H145 0.930 1_554 S
C151 C147 1.407 . S
C151 C150 1.392 . S
N152 C150 1.420 . S
N152 C153 1.244 . S
C153 N152 1.244 . S
H154 C157 0.929 . S
H155 C160 0.929 . S
H156 C162 0.930 . S
C157 H154 0.929 . S
C157 C158 1.398 . S
C157 C159 1.396 . S
C158 C157 1.398 . S
C158 C162 1.407 . S
C159 C157 1.396 . S
C159 C160 1.394 . S
C160 H155 0.929 . S
C160 C159 1.394 . S
C160 C161 1.382 . S
C161 C160 1.382 . S
C161 C162 1.392 . S
C161 N163 1.420 . S
C162 H156 0.930 . S
C162 C158 1.407 . S
C162 C161 1.392 . S
N163 C161 1.420 . S
N163 C164 1.244 . S
C164 N163 1.244 . S
H165 C168 0.929 . S
H166 C171 0.929 . S
H167 C173 0.930 . S
C168 H165 0.929 . S
C168 C169 1.398 . S
C168 C170 1.396 . S
C169 C168 1.398 . S
C169 C173 1.407 . S
C170 C168 1.396 . S
C170 C171 1.394 . S
C171 H166 0.929 . S
C171 C170 1.394 . S
C171 C172 1.382 . S
C172 C171 1.382 . S
C172 C173 1.392 . S
C172 N174 1.420 . S
C173 H167 0.930 . S
C173 C169 1.407 . S
C173 C172 1.392 . S
N174 C172 1.420 . S
N174 C175 1.244 . S
C175 N174 1.244 . S
H176 C179 0.929 . S
H177 C182 0.929 . S
H178 C184 0.930 . S
C179 H176 0.929 . S
C179 C180 1.398 . S
C179 C181 1.396 . S
C180 C179 1.398 . S
C180 C184 1.407 . S
C181 C179 1.396 . S
C181 C182 1.394 . S
C182 H177 0.929 . S
C182 C181 1.394 . S
C182 C183 1.382 . S
C183 C182 1.382 . S
C183 C184 1.392 . S
C183 N185 1.420 . S
C184 H178 0.930 . S
C184 C180 1.407 . S
C184 C183 1.392 . S
N185 C183 1.420 . S
N185 C186 1.244 . S
C186 N185 1.244 . S
H187 C190 0.929 . S
H188 C193 0.929 . S
H189 C195 0.930 . S
C190 H187 0.929 . S
C190 C191 1.398 . S
C190 C192 1.396 . S
C191 C190 1.398 . S
C191 C195 1.407 . S
C192 C190 1.396 . S
C192 C193 1.394 . S
C193 H188 0.929 . S
C193 C192 1.394 . S
C193 C194 1.382 . S
C194 C193 1.382 . S
C194 C195 1.392 . S
C194 N196 1.420 . S
C195 H189 0.930 . S
C195 C191 1.407 . S
C195 C194 1.392 . S
N196 C194 1.420 . S
N196 C197 1.244 . S
C197 N196 1.244 . S
Eu198 C207 2.825 1_565 S
Eu198 O209 2.392 . S
Eu198 O211 2.418 . S
Eu198 O216 2.373 1_565 S
Eu198 O219 2.488 . S
Eu198 O220 2.471 1_565 S
Eu198 O221 2.349 1_565 S
Eu199 O208 2.373 1_545 S
Eu199 O212 2.488 . S
Eu199 O213 2.471 1_545 S
Eu199 O214 2.349 1_545 S
Eu199 O217 2.392 . S
Eu199 O218 2.418 . S
Eu199 C228 2.828 . S
C200 O218 1.244 . S
C200 O221 1.265 1_554 S
C201 C202 1.379 . S
C201 C205 1.373 1_545 S
C201 C207 1.509 . S
C202 C201 1.379 . S
C202 C204 1.369 . S
C202 H230 0.930 . S
C203 C205 1.383 . S
C203 C206 1.382 1_565 S
C203 H231 0.930 . S
C204 C202 1.369 . S
C204 C206 1.392 . S
C204 H232 0.930 . S
C205 C201 1.373 1_565 S
C205 C203 1.383 . S
C205 H233 0.931 . S
C206 C203 1.382 1_545 S
C206 C204 1.392 . S
C207 Eu198 2.825 1_545 S
C207 C201 1.509 . S
C207 O219 1.233 1_545 S
C207 O220 1.258 . S
O208 Eu199 2.373 1_565 S
O208 C210 1.258 . S
O209 Eu198 2.392 . S
O209 C210 1.242 1_556 S
C210 O208 1.258 . S
C210 O209 1.242 1_554 S
O211 Eu198 2.418 . S
O211 C215 1.244 1_556 S
O212 Eu199 2.488 . S
O212 C228 1.249 . S
O213 Eu199 2.471 1_565 S
O213 C228 1.244 1_565 S
O214 Eu199 2.349 1_565 S
O214 C215 1.265 . S
C215 O211 1.244 1_554 S
C215 O214 1.265 . S
O216 Eu198 2.373 1_545 S
O216 C229 1.258 . S
O217 Eu199 2.392 . S
O217 C229 1.242 1_554 S
O218 Eu199 2.418 . S
O218 C200 1.244 . S
O219 Eu198 2.488 . S
O219 C207 1.233 1_565 S
O220 Eu198 2.471 1_545 S
O220 C207 1.258 . S
O221 Eu198 2.349 1_545 S
O221 C200 1.265 1_556 S
C222 C223 1.379 1_545 S
C222 C226 1.373 . S
C222 C228 1.505 . S
C223 C222 1.379 1_565 S
C223 C225 1.369 . S
C223 H234 0.930 . S
C224 C226 1.383 . S
C224 C227 1.382 1_545 S
C224 H235 0.930 . S
C225 C223 1.369 . S
C225 C227 1.392 . S
C225 H236 0.930 . S
C226 C222 1.373 . S
C226 C224 1.383 . S
C226 H237 0.931 . S
C227 C224 1.382 1_565 S
C227 C225 1.392 . S
C228 Eu199 2.828 . S
C228 O212 1.249 . S
C228 O213 1.244 1_545 S
C228 C222 1.505 . S
C229 O216 1.258 . S
C229 O217 1.242 1_556 S
H230 C202 0.930 . S
H231 C203 0.930 . S
H232 C204 0.930 . S
H233 C205 0.931 . S
H234 C223 0.930 . S
H235 C224 0.930 . S
H236 C225 0.930 . S
H237 C226 0.931 . S
Eu238 C247 2.828 . S
Eu238 O249 2.392 1_556 S
Eu238 O251 2.418 . S
Eu238 O256 2.373 1_455 S
Eu238 O259 2.488 . S
Eu238 O260 2.471 1_455 S
Eu238 O261 2.349 1_455 S
Eu239 O248 2.373 1_655 S
Eu239 O252 2.488 . S
Eu239 O253 2.471 1_655 S
Eu239 O254 2.349 1_655 S
Eu239 O257 2.392 . S
Eu239 O258 2.418 . S
Eu239 C268 2.828 1_655 S
C240 O258 1.244 1_556 S
C240 O261 1.265 . S
C241 C242 1.379 . S
C241 C245 1.373 1_655 S
C241 C247 1.505 1_655 S
C242 C241 1.379 . S
C242 C244 1.369 . S
C242 H270 0.930 . S
C243 C245 1.383 . S
C243 C246 1.382 1_455 S
C243 H271 0.930 . S
C244 C242 1.369 . S
C244 C246 1.392 . S
C244 H272 0.930 . S
C245 C241 1.373 1_455 S
C245 C243 1.383 . S
C245 H273 0.931 . S
C246 C243 1.382 1_655 S
C246 C244 1.392 . S
C247 Eu238 2.828 . S
C247 C241 1.505 1_455 S
C247 O259 1.249 . S
C247 O260 1.244 1_455 S
O248 Eu239 2.373 1_455 S
O248 C250 1.258 . S
O249 Eu238 2.392 1_554 S
O249 C250 1.242 . S
C250 O248 1.258 . S
C250 O249 1.242 . S
O251 Eu238 2.418 . S
O251 C255 1.244 1_556 S
O252 Eu239 2.488 . S
O252 C268 1.249 1_655 S
O253 Eu239 2.471 1_455 S
O253 C268 1.244 . S
O254 Eu239 2.349 1_455 S
O254 C255 1.265 . S
C255 O251 1.244 1_554 S
C255 O254 1.265 . S
O256 Eu238 2.373 1_655 S
O256 C269 1.258 . S
O257 Eu239 2.392 . S
O257 C269 1.242 1_554 S
O258 Eu239 2.418 . S
O258 C240 1.244 1_554 S
O259 Eu238 2.488 . S
O259 C247 1.249 . S
O260 Eu238 2.471 1_655 S
O260 C247 1.244 1_655 S
O261 Eu238 2.349 1_655 S
O261 C240 1.265 . S
C262 C263 1.379 . S
C262 C266 1.373 1_455 S
C262 C268 1.505 . S
C263 C262 1.379 . S
C263 C265 1.369 . S
C263 H274 0.930 . S
C264 C266 1.383 1_455 S
C264 C267 1.382 . S
C264 H275 0.930 1_455 S
C265 C263 1.369 . S
C265 C267 1.392 . S
C265 H276 0.930 . S
C266 C262 1.373 1_655 S
C266 C264 1.383 1_655 S
C266 H277 0.931 . S
C267 C264 1.382 . S
C267 C265 1.392 . S
C268 Eu239 2.828 1_455 S
C268 O252 1.249 1_455 S
C268 O253 1.244 . S
C268 C262 1.505 . S
C269 O256 1.258 . S
C269 O257 1.242 1_556 S
H270 C242 0.930 . S
H271 C243 0.930 . S
H272 C244 0.930 . S
H273 C245 0.931 . S
H274 C263 0.930 . S
H275 C264 0.930 1_655 S
H276 C265 0.930 . S
H277 C266 0.931 . S
Eu278 C287 2.828 . S
Eu278 O289 2.392 . S
Eu278 O291 2.418 . S
Eu278 O296 2.373 . S
Eu278 O299 2.488 . S
Eu278 O300 2.471 . S
Eu278 O301 2.349 . S
Eu279 O288 2.373 . S
Eu279 O292 2.488 . S
Eu279 O293 2.471 . S
Eu279 O294 2.349 . S
Eu279 O297 2.392 1_556 S
Eu279 O298 2.418 . S
Eu279 C308 2.828 . S
C280 O298 1.244 1_554 S
C280 O301 1.265 . S
C281 C282 1.379 . S
C281 C285 1.373 . S
C281 C287 1.505 . S
C282 C281 1.379 . S
C282 C284 1.369 . S
C282 H310 0.930 . S
C283 C285 1.383 . S
C283 C286 1.382 . S
C283 H311 0.930 . S
C284 C282 1.369 . S
C284 C286 1.392 . S
C284 H312 0.930 . S
C285 C281 1.373 . S
C285 C283 1.383 . S
C285 H313 0.931 . S
C286 C283 1.382 . S
C286 C284 1.392 . S
C287 Eu278 2.828 . S
C287 C281 1.505 . S
C287 O299 1.249 . S
C287 O300 1.244 . S
O288 Eu279 2.373 . S
O288 C290 1.258 . S
O289 Eu278 2.392 . S
O289 C290 1.242 1_554 S
C290 O288 1.258 . S
C290 O289 1.242 1_556 S
O291 Eu278 2.418 . S
O291 C295 1.244 . S
O292 Eu279 2.488 . S
O292 C308 1.249 . S
O293 Eu279 2.471 . S
O293 C308 1.244 . S
O294 Eu279 2.349 . S
O294 C295 1.265 1_556 S
C295 O291 1.244 . S
C295 O294 1.265 1_554 S
O296 Eu278 2.373 . S
O296 C309 1.258 . S
O297 Eu279 2.392 1_554 S
O297 C309 1.242 . S
O298 Eu279 2.418 . S
O298 C280 1.244 1_556 S
O299 Eu278 2.488 . S
O299 C287 1.249 . S
O300 Eu278 2.471 . S
O300 C287 1.244 . S
O301 Eu278 2.349 . S
O301 C280 1.265 . S
C302 C303 1.379 . S
C302 C306 1.373 . S
C302 C308 1.505 . S
C303 C302 1.379 . S
C303 C305 1.369 . S
C303 H314 0.930 . S
C304 C306 1.383 . S
C304 C307 1.382 . S
C304 H315 0.930 . S
C305 C303 1.369 . S
C305 C307 1.392 . S
C305 H316 0.930 . S
C306 C302 1.373 . S
C306 C304 1.383 . S
C306 H317 0.931 . S
C307 C304 1.382 . S
C307 C305 1.392 . S
C308 Eu279 2.828 . S
C308 O292 1.249 . S
C308 O293 1.244 . S
C308 C302 1.505 . S
C309 O296 1.258 . S
C309 O297 1.242 . S
H310 C282 0.930 . S
H311 C283 0.930 . S
H312 C284 0.930 . S
H313 C285 0.931 . S
H314 C303 0.930 . S
H315 C304 0.930 . S
H316 C305 0.930 . S
H317 C306 0.931 . S
Eu318 C327 2.828 . S
Eu318 O329 2.392 . S
Eu318 O331 2.418 . S
Eu318 O336 2.373 . S
Eu318 O339 2.488 . S
Eu318 O340 2.471 . S
Eu318 O341 2.349 . S
Eu319 O328 2.373 . S
Eu319 O332 2.488 . S
Eu319 O333 2.471 . S
Eu319 O334 2.349 . S
Eu319 O337 2.392 . S
Eu319 O338 2.418 . S
Eu319 C348 2.828 . S
C320 O338 1.244 . S
C320 O341 1.265 . S
C321 C322 1.379 . S
C321 C325 1.373 . S
C321 C327 1.505 . S
C322 C321 1.379 . S
C322 C324 1.369 . S
C322 H350 0.930 . S
C323 C325 1.383 . S
C323 C326 1.382 . S
C323 H351 0.930 . S
C324 C322 1.369 . S
C324 C326 1.392 . S
C324 H352 0.930 . S
C325 C321 1.373 . S
C325 C323 1.383 . S
C325 H353 0.931 . S
C326 C323 1.382 . S
C326 C324 1.392 . S
C327 Eu318 2.828 . S
C327 C321 1.505 . S
C327 O339 1.249 . S
C327 O340 1.244 . S
O328 Eu319 2.373 . S
O328 C330 1.258 . S
O329 Eu318 2.392 . S
O329 C330 1.242 . S
C330 O328 1.258 . S
C330 O329 1.242 . S
O331 Eu318 2.418 . S
O331 C335 1.244 . S
O332 Eu319 2.488 . S
O332 C348 1.249 . S
O333 Eu319 2.471 . S
O333 C348 1.244 . S
O334 Eu319 2.349 . S
O334 C335 1.265 . S
C335 O331 1.244 . S
C335 O334 1.265 . S
O336 Eu318 2.373 . S
O336 C349 1.258 . S
O337 Eu319 2.392 . S
O337 C349 1.242 . S
O338 Eu319 2.418 . S
O338 C320 1.244 . S
O339 Eu318 2.488 . S
O339 C327 1.249 . S
O340 Eu318 2.471 . S
O340 C327 1.244 . S
O341 Eu318 2.349 . S
O341 C320 1.265 . S
C342 C343 1.379 . S
C342 C346 1.373 . S
C342 C348 1.505 . S
C343 C342 1.379 . S
C343 C345 1.369 . S
C343 H354 0.930 . S
C344 C346 1.383 . S
C344 C347 1.382 . S
C344 H355 0.930 . S
C345 C343 1.369 . S
C345 C347 1.392 . S
C345 H356 0.930 . S
C346 C342 1.373 . S
C346 C344 1.383 . S
C346 H357 0.931 . S
C347 C344 1.382 . S
C347 C345 1.392 . S
C348 Eu319 2.828 . S
C348 O332 1.249 . S
C348 O333 1.244 . S
C348 C342 1.505 . S
C349 O336 1.258 . S
C349 O337 1.242 . S
H350 C322 0.930 . S
H351 C323 0.930 . S
H352 C324 0.930 . S
H353 C325 0.931 . S
H354 C343 0.930 . S
H355 C344 0.930 . S
H356 C345 0.930 . S
H357 C346 0.931 . S
Eu358 C367 2.828 . S
Eu358 O369 2.392 . S
Eu358 O371 2.418 . S
Eu358 O376 2.373 . S
Eu358 O379 2.488 . S
Eu358 O380 2.471 . S
Eu358 O381 2.349 . S
Eu359 O368 2.373 . S
Eu359 O372 2.488 . S
Eu359 O373 2.471 . S
Eu359 O374 2.349 . S
Eu359 O377 2.392 . S
Eu359 O378 2.418 . S
Eu359 C388 2.828 . S
C360 O378 1.244 . S
C360 O381 1.265 . S
C361 C362 1.379 . S
C361 C365 1.373 . S
C361 C367 1.505 . S
C362 C361 1.379 . S
C362 C364 1.369 . S
C362 H390 0.930 . S
C363 C365 1.383 . S
C363 C366 1.382 . S
C363 H391 0.930 . S
C364 C362 1.369 . S
C364 C366 1.392 . S
C364 H392 0.930 . S
C365 C361 1.373 . S
C365 C363 1.383 . S
C365 H393 0.931 . S
C366 C363 1.382 . S
C366 C364 1.392 . S
C367 Eu358 2.828 . S
C367 C361 1.505 . S
C367 O379 1.249 . S
C367 O380 1.244 . S
O368 Eu359 2.373 . S
O368 C370 1.258 . S
O369 Eu358 2.392 . S
O369 C370 1.242 . S
C370 O368 1.258 . S
C370 O369 1.242 . S
O371 Eu358 2.418 . S
O371 C375 1.244 . S
O372 Eu359 2.488 . S
O372 C388 1.249 . S
O373 Eu359 2.471 . S
O373 C388 1.244 . S
O374 Eu359 2.349 . S
O374 C375 1.265 . S
C375 O371 1.244 . S
C375 O374 1.265 . S
O376 Eu358 2.373 . S
O376 C389 1.258 . S
O377 Eu359 2.392 . S
O377 C389 1.242 . S
O378 Eu359 2.418 . S
O378 C360 1.244 . S
O379 Eu358 2.488 . S
O379 C367 1.249 . S
O380 Eu358 2.471 . S
O380 C367 1.244 . S
O381 Eu358 2.349 . S
O381 C360 1.265 . S
C382 C383 1.379 . S
C382 C386 1.373 . S
C382 C388 1.505 . S
C383 C382 1.379 . S
C383 C385 1.369 . S
C383 H394 0.930 . S
C384 C386 1.383 . S
C384 C387 1.382 . S
C384 H395 0.930 . S
C385 C383 1.369 . S
C385 C387 1.392 . S
C385 H396 0.930 . S
C386 C382 1.373 . S
C386 C384 1.383 . S
C386 H397 0.931 . S
C387 C384 1.382 . S
C387 C385 1.392 . S
C388 Eu359 2.828 . S
C388 O372 1.249 . S
C388 O373 1.244 . S
C388 C382 1.505 . S
C389 O376 1.258 . S
C389 O377 1.242 . S
H390 C362 0.930 . S
H391 C363 0.930 . S
H392 C364 0.930 . S
H393 C365 0.931 . S
H394 C383 0.930 . S
H395 C384 0.930 . S
H396 C385 0.930 . S
H397 C386 0.931 . S
Eu398 C407 2.828 . S
Eu398 O409 2.392 . S
Eu398 O411 2.418 . S
Eu398 O416 2.373 . S
Eu398 O419 2.488 . S
Eu398 O420 2.471 . S
Eu398 O421 2.349 . S
Eu399 O408 2.373 . S
Eu399 O412 2.488 . S
Eu399 O413 2.471 . S
Eu399 O414 2.349 . S
Eu399 O417 2.392 . S
Eu399 O418 2.418 1_565 S
Eu399 C428 2.828 . S
C400 O418 1.244 . S
C400 O421 1.265 1_545 S
C401 C402 1.379 . S
C401 C405 1.373 . S
C401 C407 1.505 . S
C402 C401 1.379 . S
C402 C404 1.369 . S
C402 H430 0.930 . S
C403 C405 1.383 . S
C403 C406 1.382 . S
C403 H431 0.930 . S
C404 C402 1.369 . S
C404 C406 1.392 . S
C404 H432 0.930 . S
C405 C401 1.373 . S
C405 C403 1.383 . S
C405 H433 0.931 . S
C406 C403 1.382 . S
C406 C404 1.392 . S
C407 Eu398 2.828 . S
C407 C401 1.505 . S
C407 O419 1.249 . S
C407 O420 1.244 . S
O408 Eu399 2.373 . S
O408 C410 1.258 . S
O409 Eu398 2.392 . S
O409 C410 1.242 . S
C410 O408 1.258 . S
C410 O409 1.242 . S
O411 Eu398 2.418 . S
O411 C415 1.244 . S
O412 Eu399 2.488 . S
O412 C428 1.249 . S
O413 Eu399 2.471 . S
O413 C428 1.244 . S
O414 Eu399 2.349 . S
O414 C415 1.265 . S
C415 O411 1.244 . S
C415 O414 1.265 . S
O416 Eu398 2.373 . S
O416 C429 1.258 . S
O417 Eu399 2.392 . S
O417 C429 1.242 . S
O418 Eu399 2.418 1_545 S
O418 C400 1.244 . S
O419 Eu398 2.488 . S
O419 C407 1.249 . S
O420 Eu398 2.471 . S
O420 C407 1.244 . S
O421 Eu398 2.349 . S
O421 C400 1.265 1_565 S
C422 C423 1.379 . S
C422 C426 1.373 . S
C422 C428 1.505 . S
C423 C422 1.379 . S
C423 C425 1.369 . S
C423 H434 0.930 . S
C424 C426 1.383 . S
C424 C427 1.382 . S
C424 H435 0.930 . S
C425 C423 1.369 . S
C425 C427 1.392 . S
C425 H436 0.930 . S
C426 C422 1.373 . S
C426 C424 1.383 . S
C426 H437 0.931 . S
C427 C424 1.382 . S
C427 C425 1.392 . S
C428 Eu399 2.828 . S
C428 O412 1.249 . S
C428 O413 1.244 . S
C428 C422 1.505 . S
C429 O416 1.258 . S
C429 O417 1.242 . S
H430 C402 0.930 . S
H431 C403 0.930 . S
H432 C404 0.930 . S
H433 C405 0.931 . S
H434 C423 0.930 . S
H435 C424 0.930 . S
H436 C425 0.930 . S
H437 C426 0.931 . S
Eu438 C447 2.828 . S
Eu438 O449 2.392 . S
Eu438 O451 2.418 . S
Eu438 O456 2.373 . S
Eu438 O459 2.488 . S
Eu438 O460 2.471 . S
Eu438 O461 2.349 . S
Eu439 O448 2.373 . S
Eu439 O452 2.488 . S
Eu439 O453 2.471 . S
Eu439 O454 2.349 . S
Eu439 O457 2.392 . S
Eu439 O458 2.418 . S
Eu439 C468 2.828 . S
C440 O458 1.244 . S
C440 O461 1.265 . S
C441 C442 1.379 . S
C441 C445 1.373 . S
C441 C447 1.505 . S
C442 C441 1.379 . S
C442 C444 1.369 . S
C442 H470 0.930 . S
C443 C445 1.383 . S
C443 C446 1.382 . S
C443 H471 0.930 . S
C444 C442 1.369 . S
C444 C446 1.392 . S
C444 H472 0.930 . S
C445 C441 1.373 . S
C445 C443 1.383 . S
C445 H473 0.931 . S
C446 C443 1.382 . S
C446 C444 1.392 . S
C447 Eu438 2.828 . S
C447 C441 1.505 . S
C447 O459 1.249 . S
C447 O460 1.244 . S
O448 Eu439 2.373 . S
O448 C450 1.258 . S
O449 Eu438 2.392 . S
O449 C450 1.242 . S
C450 O448 1.258 . S
C450 O449 1.242 . S
O451 Eu438 2.418 . S
O451 C455 1.244 . S
O452 Eu439 2.488 . S
O452 C468 1.249 . S
O453 Eu439 2.471 . S
O453 C468 1.244 . S
O454 Eu439 2.349 . S
O454 C455 1.265 . S
C455 O451 1.244 . S
C455 O454 1.265 . S
O456 Eu438 2.373 . S
O456 C469 1.258 . S
O457 Eu439 2.392 . S
O457 C469 1.242 . S
O458 Eu439 2.418 . S
O458 C440 1.244 . S
O459 Eu438 2.488 . S
O459 C447 1.249 . S
O460 Eu438 2.471 . S
O460 C447 1.244 . S
O461 Eu438 2.349 . S
O461 C440 1.265 . S
C462 C463 1.379 . S
C462 C466 1.373 . S
C462 C468 1.505 . S
C463 C462 1.379 . S
C463 C465 1.369 . S
C463 H474 0.930 . S
C464 C466 1.383 . S
C464 C467 1.382 . S
C464 H475 0.930 . S
C465 C463 1.369 . S
C465 C467 1.392 . S
C465 H476 0.930 . S
C466 C462 1.373 . S
C466 C464 1.383 . S
C466 H477 0.931 . S
C467 C464 1.382 . S
C467 C465 1.392 . S
C468 Eu439 2.828 . S
C468 O452 1.249 . S
C468 O453 1.244 . S
C468 C462 1.505 . S
C469 O456 1.258 . S
C469 O457 1.242 . S
H470 C442 0.930 . S
H471 C443 0.930 . S
H472 C444 0.930 . S
H473 C445 0.931 . S
H474 C463 0.930 . S
H475 C464 0.930 . S
H476 C465 0.930 . S
H477 C466 0.931 . S
Eu478 C487 2.828 . S
Eu478 O489 2.392 . S
Eu478 O491 2.418 . S
Eu478 O496 2.373 . S
Eu478 O499 2.488 . S
Eu478 O500 2.471 . S
Eu478 O501 2.349 . S
Eu479 O488 2.373 . S
Eu479 O492 2.488 . S
Eu479 O493 2.471 . S
Eu479 O494 2.349 . S
Eu479 O497 2.392 . S
Eu479 O498 2.418 . S
Eu479 C508 2.828 . S
C480 O498 1.244 . S
C480 O501 1.265 . S
C481 C482 1.379 . S
C481 C485 1.373 . S
C481 C487 1.505 . S
C482 C481 1.379 . S
C482 C484 1.369 . S
C482 H510 0.930 . S
C483 C485 1.383 . S
C483 C486 1.382 . S
C483 H511 0.930 . S
C484 C482 1.369 . S
C484 C486 1.392 . S
C484 H512 0.930 . S
C485 C481 1.373 . S
C485 C483 1.383 . S
C485 H513 0.931 . S
C486 C483 1.382 . S
C486 C484 1.392 . S
C487 Eu478 2.828 . S
C487 C481 1.505 . S
C487 O499 1.249 . S
C487 O500 1.244 . S
O488 Eu479 2.373 . S
O488 C490 1.258 . S
O489 Eu478 2.392 . S
O489 C490 1.242 . S
C490 O488 1.258 . S
C490 O489 1.242 . S
O491 Eu478 2.418 . S
O491 C495 1.244 . S
O492 Eu479 2.488 . S
O492 C508 1.249 . S
O493 Eu479 2.471 . S
O493 C508 1.244 . S
O494 Eu479 2.349 . S
O494 C495 1.265 . S
C495 O491 1.244 . S
C495 O494 1.265 . S
O496 Eu478 2.373 . S
O496 C509 1.258 . S
O497 Eu479 2.392 . S
O497 C509 1.242 . S
O498 Eu479 2.418 . S
O498 C480 1.244 . S
O499 Eu478 2.488 . S
O499 C487 1.249 . S
O500 Eu478 2.471 . S
O500 C487 1.244 . S
O501 Eu478 2.349 . S
O501 C480 1.265 . S
C502 C503 1.379 . S
C502 C506 1.373 . S
C502 C508 1.505 . S
C503 C502 1.379 . S
C503 C505 1.369 . S
C503 H514 0.930 . S
C504 C506 1.383 . S
C504 C507 1.382 . S
C504 H515 0.930 . S
C505 C503 1.369 . S
C505 C507 1.392 . S
C505 H516 0.930 . S
C506 C502 1.373 . S
C506 C504 1.383 . S
C506 H517 0.931 . S
C507 C504 1.382 . S
C507 C505 1.392 . S
C508 Eu479 2.828 . S
C508 O492 1.249 . S
C508 O493 1.244 . S
C508 C502 1.505 . S
C509 O496 1.258 . S
C509 O497 1.242 . S
H510 C482 0.930 . S
H511 C483 0.930 . S
H512 C484 0.930 . S
H513 C485 0.931 . S
H514 C503 0.930 . S
H515 C504 0.930 . S
H516 C505 0.930 . S
H517 C506 0.931 . S
Eu518 C527 2.828 . S
Eu518 O529 2.392 . S
Eu518 O531 2.418 . S
Eu518 O536 2.373 . S
Eu518 O539 2.488 . S
Eu518 O540 2.471 . S
Eu518 O541 2.349 . S
Eu519 O528 2.373 . S
Eu519 O532 2.488 . S
Eu519 O533 2.471 . S
Eu519 O534 2.349 . S
Eu519 O537 2.392 . S
Eu519 O538 2.418 . S
Eu519 C548 2.828 . S
C520 O538 1.244 . S
C520 O541 1.265 . S
C521 C522 1.379 . S
C521 C525 1.373 . S
C521 C527 1.505 . S
C522 C521 1.379 . S
C522 C524 1.369 . S
C522 H550 0.930 . S
C523 C525 1.383 . S
C523 C526 1.382 . S
C523 H551 0.930 . S
C524 C522 1.369 . S
C524 C526 1.392 . S
C524 H552 0.930 . S
C525 C521 1.373 . S
C525 C523 1.383 . S
C525 H553 0.931 . S
C526 C523 1.382 . S
C526 C524 1.392 . S
C527 Eu518 2.828 . S
C527 C521 1.505 . S
C527 O539 1.249 . S
C527 O540 1.244 . S
O528 Eu519 2.373 . S
O528 C530 1.250 1_655 S
O529 Eu518 2.392 . S
O529 C530 1.242 1_655 S
C530 O528 1.250 1_455 S
C530 O529 1.242 1_455 S
O531 Eu518 2.418 . S
O531 C535 1.244 . S
O532 Eu519 2.488 . S
O532 C548 1.249 . S
O533 Eu519 2.471 . S
O533 C548 1.244 . S
O534 Eu519 2.349 . S
O534 C535 1.265 . S
C535 O531 1.244 . S
C535 O534 1.265 . S
O536 Eu518 2.373 . S
O536 C549 1.258 . S
O537 Eu519 2.392 . S
O537 C549 1.242 . S
O538 Eu519 2.418 . S
O538 C520 1.244 . S
O539 Eu518 2.488 . S
O539 C527 1.249 . S
O540 Eu518 2.471 . S
O540 C527 1.244 . S
O541 Eu518 2.349 . S
O541 C520 1.265 . S
C542 C543 1.379 . S
C542 C546 1.373 . S
C542 C548 1.505 . S
C543 C542 1.379 . S
C543 C545 1.369 . S
C543 H554 0.930 . S
C544 C546 1.383 . S
C544 C547 1.382 . S
C544 H555 0.930 . S
C545 C543 1.369 . S
C545 C547 1.392 . S
C545 H556 0.930 . S
C546 C542 1.373 . S
C546 C544 1.383 . S
C546 H557 0.931 . S
C547 C544 1.382 . S
C547 C545 1.392 . S
C548 Eu519 2.828 . S
C548 O532 1.249 . S
C548 O533 1.244 . S
C548 C542 1.505 . S
C549 O536 1.258 . S
C549 O537 1.242 . S
H550 C522 0.930 . S
H551 C523 0.930 . S
H552 C524 0.930 . S
H553 C525 0.931 . S
H554 C543 0.930 . S
H555 C544 0.930 . S
H556 C545 0.930 . S
H557 C546 0.931 . S
C147 C210 1.790 . S
C158 C250 1.894 . S
C136 C280 1.637 . S
C125 C240 1.511 . S
C290 C103 1.608 . S
C114 C200 1.471 1_556 S
C229 C131 1.922 . S
C269 C109 1.728 . S
C120 C295 1.839 1_556 S
C153 C255 1.643 . S
C164 C309 1.611 . S
C215 C142 1.773 . S
C330 C15 1.791 1_455 S
C26 C370 1.893 . S
C4 C400 1.637 . S
C191 C360 1.511 . S
C169 C410 1.608 . S
C180 C320 1.472 . S
C197 C349 1.922 . S
C175 C389 1.729 . S
C415 C186 1.839 . S
C21 C375 1.643 . S
C429 C32 1.612 . S
C10 C335 1.772 . S
C450 C81 1.791 . S
C92 C490 1.893 . S
C520 C70 1.637 . S
C480 C59 1.511 1_545 S
C530 C37 1.615 . S
C48 C440 1.471 . S
C65 C469 1.922 1_455 S
C43 C509 1.729 . S
C535 C54 1.839 . S
C87 C495 1.642 . S
C98 C549 1.611 . S
C76 C455 1.773 . S
C170 C227 2.076 . S
C267 C181 2.346 . S
C192 C286 1.620 . S
C71 C246 1.879 . S
C82 C307 1.865 . S
C206 C93 1.382 . S
C38 C347 2.076 . S
C49 C387 2.346 . S
C60 C406 1.620 . S
C137 C366 1.879 . S
C427 C148 1.865 . S
C159 C326 1.382 . S
C104 C467 2.077 . S
C115 C507 2.346 . S
C526 C126 1.620 . S
C5 C486 1.880 . S
C16 C547 1.865 . S
C27 C446 1.382 . S
