# Generated by pormake.
# Topology zzz, (3,6)-cn, num edge types: 1
# Building blocks:
#     Node 0, Type 0, BuildingBlock: BETDAH_clean_linker_0, # of connection points: 3
#     Node 1, Type 0, BuildingBlock: BETDAH_clean_linker_0, # of connection points: 3
#     Node 2, Type 0, BuildingBlock: BETDAH_clean_linker_0, # of connection points: 3
#     Node 3, Type 0, BuildingBlock: BETDAH_clean_linker_0, # of connection points: 3
#     Node 4, Type 0, BuildingBlock: BETDAH_clean_linker_0, # of connection points: 3
#     Node 5, Type 0, BuildingBlock: BETDAH_clean_linker_0, # of connection points: 3
#     Node 6, Type 0, BuildingBlock: BETDAH_clean_linker_0, # of connection points: 3
#     Node 7, Type 0, BuildingBlock: BETDAH_clean_linker_0, # of connection points: 3
#     Node 8, Type 1, BuildingBlock: GEDQOX_clean_sbu_0, # of connection points: 6
#     Node 9, Type 1, BuildingBlock: GEDQOX_clean_sbu_0, # of connection points: 6
#     Node 10, Type 1, BuildingBlock: GEDQOX_clean_sbu_0, # of connection points: 6
#     Node 11, Type 1, BuildingBlock: GEDQOX_clean_sbu_0, # of connection points: 6
#     Edge 12, Type (0, 1), BuildingBlock: AJUNOK_clean_linker_0, # of connection points: 2
#     Edge 13, Type (0, 1), BuildingBlock: AJUNOK_clean_linker_0, # of connection points: 2
#     Edge 14, Type (0, 1), BuildingBlock: AJUNOK_clean_linker_0, # of connection points: 2
#     Edge 15, Type (0, 1), BuildingBlock: AJUNOK_clean_linker_0, # of connection points: 2
#     Edge 16, Type (0, 1), BuildingBlock: AJUNOK_clean_linker_0, # of connection points: 2
#     Edge 17, Type (0, 1), BuildingBlock: AJUNOK_clean_linker_0, # of connection points: 2
#     Edge 18, Type (0, 1), BuildingBlock: AJUNOK_clean_linker_0, # of connection points: 2
#     Edge 19, Type (0, 1), BuildingBlock: AJUNOK_clean_linker_0, # of connection points: 2
#     Edge 20, Type (0, 1), BuildingBlock: AJUNOK_clean_linker_0, # of connection points: 2
#     Edge 21, Type (0, 1), BuildingBlock: AJUNOK_clean_linker_0, # of connection points: 2
#     Edge 22, Type (0, 1), BuildingBlock: AJUNOK_clean_linker_0, # of connection points: 2
#     Edge 23, Type (0, 1), BuildingBlock: AJUNOK_clean_linker_0, # of connection points: 2
#     Edge 24, Type (0, 1), BuildingBlock: AJUNOK_clean_linker_0, # of connection points: 2
#     Edge 25, Type (0, 1), BuildingBlock: AJUNOK_clean_linker_0, # of connection points: 2
#     Edge 26, Type (0, 1), BuildingBlock: AJUNOK_clean_linker_0, # of connection points: 2
#     Edge 27, Type (0, 1), BuildingBlock: AJUNOK_clean_linker_0, # of connection points: 2
#     Edge 28, Type (0, 1), BuildingBlock: AJUNOK_clean_linker_0, # of connection points: 2
#     Edge 29, Type (0, 1), BuildingBlock: AJUNOK_clean_linker_0, # of connection points: 2
#     Edge 30, Type (0, 1), BuildingBlock: AJUNOK_clean_linker_0, # of connection points: 2
#     Edge 31, Type (0, 1), BuildingBlock: AJUNOK_clean_linker_0, # of connection points: 2
#     Edge 32, Type (0, 1), BuildingBlock: AJUNOK_clean_linker_0, # of connection points: 2
#     Edge 33, Type (0, 1), BuildingBlock: AJUNOK_clean_linker_0, # of connection points: 2
#     Edge 34, Type (0, 1), BuildingBlock: AJUNOK_clean_linker_0, # of connection points: 2
#     Edge 35, Type (0, 1), BuildingBlock: AJUNOK_clean_linker_0, # of connection points: 2
# Relax obj value: 0.143
# Max RMSD: 0.231
# Mean RMSD: 0.081
data_MOF--net-zzz--node1-GEDQOX_clean_sbu_0--node2-BETDAH_clean_linker_0--edge1-AJUNOK_clean_linker_0
_symmetry_space_group_name_H-M    P1
_symmetry_Int_Tables_number       1
_symmetry_cell_setting            triclinic
loop_
_symmetry_equiv_pos_as_xyz
'x, y, z'
_cell_length_a     40.393853
_cell_length_b     39.26154
_cell_length_c     13.883982
_cell_angle_alpha  76.87713
_cell_angle_beta   89.502665
_cell_angle_gamma 102.39193
loop_
_atom_site_label
_atom_site_type_symbol
_atom_site_fract_x
_atom_site_fract_y
_atom_site_fract_z
_atom_type_partial_charge
H0 H 0.88062 0.55331 0.26355 0.0
H1 H 0.81004 0.50667 0.07501 0.0
H2 H 0.77755 0.56623 0.27 0.0
C3 C 0.85519 0.54788 0.23753 0.0
C4 C 0.83007 0.56163 0.27578 0.0
C5 C 0.84857 0.52826 0.16504 0.0
C6 C 0.81571 0.52205 0.13085 0.0
C7 C 0.78994 0.53587 0.16684 0.0
C8 C 0.79709 0.5557 0.24058 0.0
N9 N 0.75762 0.52867 0.126 0.0
C10 C 0.72938 0.54274 0.13862 0.0
H11 H 0.05477 0.87451 0.32314 0.0
H12 H 0.05693 0.80212 0.13285 0.0
H13 H 1.01077 0.76282 0.43081 0.0
C14 C 0.05044 0.84738 0.31233 0.0
C15 C 0.03298 0.81957 0.38798 0.0
C16 C 0.05861 0.84193 0.21975 0.0
C17 C 0.05133 0.80659 0.2048 0.0
C18 C 0.03501 0.77743 0.28251 0.0
C19 C 0.02503 0.78452 0.37294 0.0
N20 N 0.0254 0.74125 0.2714 0.0
C21 C 0.03781 0.72543 0.20153 0.0
H22 H 0.70927 0.05496 0.24094 0.0
H23 H 0.77998 0.05198 0.01105 0.0
H24 H 0.78318 0.99088 0.30886 0.0
C25 C 0.73197 0.0475 0.21818 0.0
C26 C 0.74584 0.02343 0.28708 0.0
C27 C 0.74365 0.0579 0.11825 0.0
C28 C 0.77167 0.04569 0.08873 0.0
C29 C 0.78711 0.02274 0.15839 0.0
C30 C 0.77339 1.01092 0.25704 0.0
N31 N 0.81071 1.00507 0.12555 0.0
C32 C 0.84543 0.01973 0.10617 0.0
H33 H 0.52259 0.72585 0.54583 0.0
H34 H 0.53057 0.83253 0.36876 0.0
H35 H 0.58423 0.81497 0.63734 0.0
C36 C 0.53172 0.75463 0.53496 0.0
C37 C 0.55366 0.76765 0.60194 0.0
C38 C 0.52311 0.77779 0.45128 0.0
C39 C 0.53661 0.8148 0.43488 0.0
C40 C 0.55843 0.82856 0.50268 0.0
C41 C 0.56692 0.80472 0.58614 0.0
N42 N 0.57297 0.86589 0.48745 0.0
C43 C 0.56528 0.89203 0.41022 0.0
H44 H 0.21933 0.5674 0.60665 0.0
H45 H 0.28598 0.6042 0.81837 0.0
H46 H 0.32064 0.54905 0.61446 0.0
C47 C 0.24417 0.5712 0.63703 0.0
C48 C 0.26925 0.55706 0.60025 0.0
C49 C 0.24982 0.58844 0.71475 0.0
C50 C 0.28146 0.5914 0.7568 0.0
C51 C 0.30731 0.5775 0.72154 0.0
C52 C 0.30118 0.56008 0.6424 0.0
N53 N 0.3385 0.58184 0.76949 0.0
C54 C 0.36711 0.56858 0.75517 0.0
H55 H 0.03482 0.23486 0.57275 0.0
H56 H 0.04022 0.30745 0.76546 0.0
H57 H 0.08554 0.3449 0.4666 0.0
C58 C 0.04113 0.262 0.58371 0.0
C59 C 0.05983 0.28901 0.50827 0.0
C60 C 0.03453 0.26782 0.67688 0.0
C61 C 0.04427 0.3029 0.69263 0.0
C62 C 0.06147 0.33149 0.61496 0.0
C63 C 0.07032 0.32384 0.52416 0.0
N64 N 0.07393 0.36708 0.62813 0.0
C65 C 0.06007 0.38517 0.68939 0.0
H66 H 0.38911 0.0699 0.66757 0.0
H67 H 0.31115 0.06207 0.89004 0.0
H68 H 0.31397 0.13254 0.60146 0.0
C69 C 0.36565 0.07616 0.68935 0.0
C70 C 0.35259 0.10159 0.62269 0.0
C71 C 0.35149 0.06193 0.78632 0.0
C72 C 0.32181 0.0717 0.81439 0.0
C73 C 0.30754 0.09648 0.74689 0.0
C74 C 0.32338 0.1117 0.65128 0.0
N75 N 0.28241 0.11206 0.78104 0.0
C76 C 0.24798 0.09564 0.79705 0.0
H77 H 0.56843 0.38971 0.39187 0.0
H78 H 0.55222 0.28081 0.55829 0.0
H79 H 0.51182 0.30541 0.26914 0.0
C80 C 0.55803 0.36137 0.39746 0.0
C81 C 0.53994 0.35069 0.32012 0.0
C82 C 0.56262 0.33636 0.48249 0.0
C83 C 0.54876 0.29987 0.49143 0.0
C84 C 0.53047 0.28834 0.41408 0.0
C85 C 0.52575 0.31403 0.3289 0.0
N86 N 0.51691 0.2513 0.4198 0.0
C87 C 0.52429 0.22384 0.49368 0.0
Nd88 Nd 0.02974 0.04262 0.84347 0.0
Nd89 Nd 0.06324 0.06713 0.04566 0.0
C90 C 0.99208 1.00473 0.73298 0.0
C91 C 0.99579 0.97377 0.69184 0.0
C92 C 0.96921 0.94302 0.70764 0.0
C93 C 0.97275 0.91281 0.67373 0.0
C94 C 1.00298 0.91263 0.62276 0.0
C95 C 0.02971 0.94334 0.60818 0.0
C96 C 0.02622 0.97346 0.64244 0.0
C97 C 0.1005 0.06141 0.82748 0.0
C98 C 0.05995 0.98537 0.01834 0.0
C99 C 0.10095 0.10431 0.15785 0.0
C100 C 0.0975 0.13589 0.19665 0.0
C101 C 0.10863 0.13934 0.2902 0.0
C102 C 0.105 0.16898 0.32703 0.0
C103 C 0.09018 0.19598 0.27108 0.0
C104 C 0.07963 0.19268 0.17661 0.0
C105 C 0.08293 0.1629 0.1405 0.0
C106 C 0.99237 0.04886 0.06019 0.0
C107 C 0.03296 0.12404 0.87061 0.0
O108 O 0.9877 0.9978 0.82952 0.0
O109 O 1.01248 0.0361 0.69555 0.0
O110 O 0.08191 0.0531 0.75681 0.0
O111 O 0.08072 0.06082 0.89879 0.0
O112 O 0.04041 0.99161 0.94328 0.0
O113 O 0.07412 1.01035 0.06578 0.0
O114 O 0.10662 0.11031 0.06158 0.0
O115 O 0.07918 0.07386 0.19492 0.0
O116 O 1.01061 0.05899 0.1294 0.0
O117 O 1.01237 0.04836 0.99077 0.0
O118 O 0.05389 0.11838 0.94254 0.0
O119 O 0.0178 0.09868 0.82588 0.0
H120 H 0.94572 0.94223 0.7472 0.0
H121 H 0.95189 0.88946 0.68826 0.0
H122 H 0.05329 0.94432 0.56879 0.0
H123 H 0.04743 0.99644 0.63049 0.0
H124 H 0.11988 0.11893 0.33528 0.0
H125 H 0.11314 0.17035 0.40044 0.0
H126 H 0.06877 0.21312 0.13026 0.0
H127 H 0.07391 0.16096 0.06852 0.0
Nd128 Nd 0.54997 0.0351 0.88131 0.0
Nd129 Nd 0.54365 0.0816 0.019 0.0
C130 C 0.55593 0.9876 0.77775 0.0
C131 C 0.58539 0.98258 0.72295 0.0
C132 C 0.58168 0.9754 0.62867 0.0
C133 C 0.6102 0.97578 0.57 0.0
C134 C 0.64304 0.98326 0.60464 0.0
C135 C 0.64653 0.98922 0.70051 0.0
C136 C 0.61802 0.98887 0.75905 0.0
C137 C 0.55497 0.10611 0.78691 0.0
C138 C 0.61997 0.07686 0.95041 0.0
C139 C 0.5372 0.12915 0.12189 0.0
C140 C 0.50772 0.13148 0.18159 0.0
C141 C 0.50616 0.16322 0.20991 0.0
C142 C 0.4781 0.16467 0.26803 0.0
C143 C 0.45107 0.13443 0.29816 0.0
C144 C 0.45281 0.10284 0.26867 0.0
C145 C 0.48069 0.10146 0.2107 0.0
C146 C 0.53786 1.01042 0.11327 0.0
C147 C 0.47352 0.03942 0.95208 0.0
O148 O 0.55641 0.98089 0.87443 0.0
O149 O 0.54561 0.01694 0.74077 0.0
O150 O 0.57486 0.08657 0.76597 0.0
O151 O 0.53389 0.08817 0.85722 0.0
O152 O 0.60515 0.04837 0.91938 0.0
O153 O 0.60173 0.0974 0.97944 0.0
O154 O 0.53388 0.13462 0.02636 0.0
O155 O 0.55056 0.1016 0.15615 0.0
O156 O 0.51834 0.03033 0.13405 0.0
O157 O 0.55933 0.02823 0.04374 0.0
O158 O 0.48845 0.0677 0.98361 0.0
O159 O 0.49166 0.01951 0.91935 0.0
H160 H 0.55684 0.97097 0.59875 0.0
H161 H 0.60662 0.97199 0.49559 0.0
H162 H 0.67144 0.99513 0.72918 0.0
H163 H 0.62164 0.99472 0.83125 0.0
H164 H 0.52675 0.18671 0.18804 0.0
H165 H 0.47768 0.1893 0.29029 0.0
H166 H 0.43314 0.07867 0.29312 0.0
H167 H 0.48138 0.07665 0.18989 0.0
Nd168 Nd 0.52645 0.56178 0.03011 0.0
Nd169 Nd 0.5719 0.55602 0.86706 0.0
C170 C 0.48063 0.5806 0.13143 0.0
C171 C 0.48083 0.61457 0.15906 0.0
C172 C 0.45046 0.62518 0.17275 0.0
C173 C 0.45114 0.6576 0.19984 0.0
C174 C 0.48225 0.6796 0.21426 0.0
C175 C 0.51258 0.66928 0.19659 0.0
C176 C 0.51189 0.63729 0.16867 0.0
C177 C 0.59276 0.56419 0.07984 0.0
C178 C 0.56431 0.63529 0.8625 0.0
C179 C 0.61723 0.53917 0.75836 0.0
C180 C 0.62198 0.50514 0.73933 0.0
C181 C 0.62836 0.50301 0.64191 0.0
C182 C 0.62631 0.46968 0.62005 0.0
C183 C 0.61775 0.43794 0.69527 0.0
C184 C 0.61398 0.44037 0.79386 0.0
C185 C 0.61596 0.47375 0.81553 0.0
C186 C 0.50513 0.55315 0.81955 0.0
C187 C 0.53707 0.48354 0.04111 0.0
O188 O 0.47938 0.58192 0.03669 0.0
O189 O 0.50276 0.56288 0.17336 0.0
O190 O 0.56656 0.54859 0.14075 0.0
O191 O 0.5836 0.58006 0.99807 0.0
O192 O 0.53873 0.61909 0.92834 0.0
O193 O 0.5851 0.6171 0.83513 0.0
O194 O 0.62229 0.54377 0.84788 0.0
O195 O 0.59013 0.5493 0.72294 0.0
O196 O 0.53115 0.57041 0.75949 0.0
O197 O 0.51475 0.53709 0.90029 0.0
O198 O 0.56269 0.50032 0.97585 0.0
O199 O 0.51415 0.50048 0.06267 0.0
H200 H 0.42629 0.60829 0.16336 0.0
H201 H 0.42739 0.66515 0.21084 0.0
H202 H 0.53698 0.68531 0.2079 0.0
H203 H 0.53569 0.62997 0.15625 0.0
H204 H 0.63297 0.5269 0.58198 0.0
H205 H 0.6291 0.46859 0.5433 0.0
H206 H 0.60783 0.4164 0.85341 0.0
H207 H 0.61111 0.47486 0.89104 0.0
Nd208 Nd 0.03738 0.58059 0.83778 0.0
Nd209 Nd 0.06022 0.5334 0.04165 0.0
C210 C 1.0092 0.62592 0.71192 0.0
C211 C 0.9786 0.6205 0.65482 0.0
C212 C 0.96424 0.64945 0.61137 0.0
C213 C 0.9344 0.64382 0.56044 0.0
C214 C 0.91823 0.60905 0.55288 0.0
C215 C 0.93287 0.5802 0.59671 0.0
C216 C 0.96253 0.58583 0.64758 0.0
C217 C 0.03815 0.51151 0.81557 0.0
C218 C 0.97938 0.52686 0.00753 0.0
C219 C 0.08903 0.48875 0.16753 0.0
C220 C 0.12024 0.49287 0.22415 0.0
C221 C 0.15285 0.50305 0.17538 0.0
C222 C 0.18205 0.50879 0.22855 0.0
C223 C 0.17946 0.50459 0.33178 0.0
C224 C 0.14694 0.49318 0.3809 0.0
C225 C 0.11771 0.48735 0.32777 0.0
C226 C 0.0593 0.60263 0.06175 0.0
C227 C 0.11812 0.58723 0.8715 0.0
O228 O 1.00329 0.61858 0.80797 0.0
O229 O 0.03475 0.61348 0.68606 0.0
O230 O 0.03048 0.53686 0.74802 0.0
O231 O 0.0449 0.52378 0.8921 0.0
O232 O 0.98777 0.5542 0.92983 0.0
O233 O 1.00213 0.51164 0.05902 0.0
O234 O 0.09365 0.49496 0.07115 0.0
O235 O 0.06392 0.5016 0.1947 0.0
O236 O 0.0677 0.578 0.13004 0.0
O237 O 0.05252 0.58971 0.98667 0.0
O238 O 0.10991 0.55984 0.94925 0.0
O239 O 0.09526 0.60269 0.82167 0.0
H240 H 0.97608 0.67639 0.6169 0.0
H241 H 0.92397 0.66664 0.5269 0.0
H242 H 0.92185 0.55324 0.58981 0.0
H243 H 0.973 0.56304 0.6812 0.0
H244 H 0.15594 0.50715 0.09573 0.0
H245 H 0.20668 0.51691 0.1886 0.0
H246 H 0.14399 0.48988 0.46033 0.0
H247 H 0.09305 0.47924 0.36761 0.0
C248 C 0.19314 0.08616 0.89317 0.0
C249 C 0.21118 0.08416 0.80815 0.0
C250 C 0.1573 0.07845 0.90019 0.0
C251 C 0.13838 0.069 0.82177 0.0
H252 H 0.20681 0.09424 0.95404 0.0
H253 H 0.14442 0.0802 0.96689 0.0
S254 S 0.17423 0.05898 0.58455 0.0
N255 N 0.20789 0.07116 0.64583 0.0
N256 N 0.14101 0.05697 0.65746 0.0
C257 C 0.15645 0.0664 0.73711 0.0
C258 C 0.19274 0.07398 0.73061 0.0
C259 C 0.51201 0.17965 0.65507 0.0
C260 C 0.53312 0.19556 0.56869 0.0
C261 C 0.5199 0.15152 0.72717 0.0
C262 C 0.5491 0.13828 0.71489 0.0
H263 H 0.48905 0.18868 0.66645 0.0
H264 H 0.50256 0.13954 0.79184 0.0
S265 S 0.61312 0.17251 0.5021 0.0
N266 N 0.58471 0.19736 0.47545 0.0
N267 N 0.59973 0.14457 0.61013 0.0
C268 C 0.57073 0.15475 0.62928 0.0
C269 C 0.56265 0.18336 0.55624 0.0
C270 C 0.40909 0.541 0.85472 0.0
C271 C 0.40045 0.56002 0.76337 0.0
C272 C 0.44276 0.53779 0.87135 0.0
C273 C 0.46914 0.55388 0.79742 0.0
H274 H 0.38991 0.52959 0.91519 0.0
H275 H 0.44831 0.5236 0.9437 0.0
S276 S 0.45906 0.60483 0.54295 0.0
N277 N 0.42036 0.59373 0.59673 0.0
N278 N 0.48353 0.58793 0.62698 0.0
C279 C 0.46042 0.57194 0.70448 0.0
C280 C 0.42612 0.57503 0.68766 0.0
C281 C 0.03667 0.43947 0.66983 0.0
C282 C 0.0507 0.41327 0.73132 0.0
C283 C 0.03191 0.47 0.70043 0.0
C284 C 0.04103 0.47616 0.7942 0.0
H285 H 0.03029 0.43702 0.59567 0.0
H286 H 0.02167 0.48953 0.6482 0.0
S287 S 0.07679 0.41409 0.98647 0.0
N288 N 0.0725 0.39441 0.89247 0.0
N289 N 0.06289 0.45139 0.95076 0.0
C290 C 0.0539 0.44932 0.85815 0.0
C291 C 0.05897 0.41809 0.82648 0.0
C292 C 0.90256 0.05755 0.11694 0.0
C293 C 0.88212 0.02859 0.08672 0.0
C294 C 0.93824 0.06426 0.10568 0.0
C295 C 0.95469 0.04247 0.06305 0.0
H296 H 0.89098 0.07466 0.15128 0.0
H297 H 0.95311 0.08654 0.13142 0.0
S298 S 0.91228 0.96191 0.97825 0.0
N299 N 0.88062 0.97737 0.01524 0.0
N300 N 0.94746 0.98963 0.99611 0.0
C301 C 0.93438 1.0135 0.03264 0.0
C302 C 0.89812 1.00665 0.0441 0.0
C303 C 0.57874 0.93554 0.24787 0.0
C304 C 0.55695 0.91996 0.33307 0.0
C305 C 0.57173 0.96397 0.17491 0.0
C306 C 0.54279 0.97782 0.18526 0.0
H307 H 0.60161 0.92612 0.23831 0.0
H308 H 0.5896 0.97576 0.11134 0.0
S309 S 0.47718 0.94454 0.39411 0.0
N310 N 0.50498 0.91908 0.42291 0.0
N311 N 0.49155 0.97234 0.28661 0.0
C312 C 0.52042 0.96158 0.26947 0.0
C313 C 0.52761 0.9327 0.34334 0.0
C314 C 0.68927 0.57767 0.05354 0.0
C315 C 0.69608 0.55141 0.13351 0.0
C316 C 0.65591 0.58224 0.03754 0.0
C317 C 0.62818 0.56068 0.10104 0.0
H318 H 0.7097 0.594 1.00101 0.0
H319 H 0.65175 0.60233 0.97394 0.0
S320 S 0.63281 0.48725 0.3194 0.0
N321 N 0.67263 0.50319 0.2755 0.0
N322 N 0.61018 0.51175 0.2469 0.0
C323 C 0.63493 0.53465 0.18219 0.0
C324 C 0.66882 0.52998 0.19797 0.0
C325 C 0.07353 0.68326 0.17882 0.0
C326 C 0.04641 0.69964 0.14888 0.0
C327 C 0.07842 0.65332 0.14491 0.0
C328 C 0.0566 0.63842 0.07888 0.0
H329 H 0.09019 0.69253 0.23278 0.0
H330 H 0.09887 0.64083 0.17382 0.0
S331 S 0.98159 0.67145 0.97803 0.0
N332 N 0.99751 0.69902 0.04845 0.0
N333 N 1.00674 0.64297 0.98493 0.0
C334 C 0.03005 0.65539 0.04564 0.0
C335 C 0.02493 0.68585 0.08075 0.0
C336 C 0.05164 0.22596 0.81792 0.0
C337 C 0.02558 0.23475 0.75761 0.0
C338 C 0.05298 0.19008 0.85683 0.0
C339 C 0.02812 0.16144 0.8379 0.0
H340 H 0.07323 0.24677 0.82563 0.0
H341 H 0.07513 0.18499 0.89586 0.0
S342 S 0.95073 0.17049 0.7018 0.0
N343 N 0.97154 0.21224 0.69363 0.0
N344 N 0.97375 0.14469 0.76788 0.0
C345 C 1.00001 0.16991 0.78667 0.0
C346 C 0.99861 0.20655 0.74742 0.0
C347 C 0.39016 0.01945 0.83196 0.0
C348 C 0.37309 0.04407 0.85887 0.0
C349 C 0.4214 1.01485 0.87042 0.0
C350 C 0.43637 0.03432 0.93831 0.0
H351 H 0.38125 1.00677 0.77247 0.0
H352 H 0.43522 0.99862 0.83962 0.0
S353 S 0.39705 0.09375 0.05424 0.0
N354 N 0.37018 0.08235 0.97219 0.0
N355 N 0.42773 0.0724 0.04818 0.0
C356 C 0.41686 0.05446 0.97728 0.0
C357 C 0.38538 0.05953 0.93701 0.0
C358 C 0.61424 0.36962 0.5427 0.0
C359 C 0.58039 0.35028 0.56236 0.0
C360 C 0.6278 0.39557 0.59456 0.0
C361 C 0.60782 0.4031 0.66715 0.0
H362 H 0.62915 0.36719 0.48033 0.0
H363 H 0.65302 0.41201 0.57172 0.0
S364 S 0.51928 0.35571 0.75515 0.0
N365 N 0.52868 0.33679 0.66682 0.0
N366 N 0.55382 0.38587 0.76425 0.0
C367 C 0.57517 0.38108 0.69474 0.0
C368 C 0.5615 0.35452 0.64213 0.0
C369 C 0.21113 0.58493 0.85944 0.0
C370 C 0.22067 0.59868 0.75828 0.0
C371 C 0.17872 0.58448 0.89714 0.0
C372 C 0.15446 0.59754 0.83508 0.0
H373 H 0.22769 0.57172 0.90835 0.0
H374 H 0.17197 0.57154 0.97449 0.0
S375 S 0.16995 0.64373 0.56892 0.0
N376 N 0.20581 0.63161 0.60027 0.0
N377 N 0.14452 0.63003 0.67054 0.0
C378 C 0.16505 0.61496 0.7361 0.0
C379 C 0.19823 0.61563 0.69785 0.0
C380 C 0.09238 0.90447 0.15631 0.0
C381 C 0.06795 0.87516 0.139 0.0
C382 C 0.0905 0.94009 0.11451 0.0
C383 C 0.06477 0.94785 0.05119 0.0
H384 H 0.11072 0.89979 0.21152 0.0
H385 H 0.10833 0.96154 0.13587 0.0
S386 S 0.99976 0.88062 0.96327 0.0
N387 N 0.02084 0.85633 0.04211 0.0
N388 N 0.01801 0.9228 0.9593 0.0
C389 C 0.04298 0.91873 0.02318 0.0
C390 C 0.04463 0.88252 0.06731 0.0
C391 C 0.70632 0.05414 0.97769 0.0
C392 C 0.72074 0.07359 0.04611 0.0
C393 C 0.67512 0.05822 0.93867 0.0
C394 C 0.65696 0.08171 0.9671 0.0
H395 H 0.71727 0.03293 0.96214 0.0
H396 H 0.66395 0.04056 0.8923 0.0
S397 S 0.68869 0.14573 0.1229 0.0
N398 N 0.71841 0.12261 0.12389 0.0
N399 N 0.65945 0.12996 0.05205 0.0
C400 C 0.6734 0.10475 0.02477 0.0
C401 C 0.70538 0.10078 0.06378 0.0
C402 C 0.52006 0.76687 0.28182 0.0
C403 C 0.50413 0.76162 0.37597 0.0
C404 C 0.51002 0.74212 0.22334 0.0
C405 C 0.48397 0.7112 0.25765 0.0
H406 H 0.54257 0.78804 0.2576 0.0
H407 H 0.52474 0.74552 0.15484 0.0
S408 S 0.42892 0.69079 0.48828 0.0
N409 N 0.45673 0.72799 0.49168 0.0
N410 N 0.43839 0.68068 0.38375 0.0
C411 C 0.46497 0.70844 0.34566 0.0
C412 C 0.47499 0.73389 0.40446 0.0
C413 C 0.90144 0.50388 0.18274 0.0
C414 C 0.8775 0.51769 0.12091 0.0
C415 C 0.93364 0.50348 0.14455 0.0
C416 C 0.94299 0.51676 0.04303 0.0
H417 H 0.89612 0.49568 0.26227 0.0
H418 H 0.95211 0.49544 0.19596 0.0
S419 S 0.88723 0.54886 0.8472 0.0
N420 N 0.86387 0.54028 0.95159 0.0
N421 N 0.92358 0.53813 0.87921 0.0
C422 C 0.91787 0.52669 0.97921 0.0
C423 C 0.8853 0.52745 0.01823 0.0
C424 C 0.10309 0.26871 0.41919 0.0
C425 C 0.07099 0.27718 0.42099 0.0
C426 C 0.1097 0.24388 0.36645 0.0
C427 C 0.08445 0.22643 0.31344 0.0
H428 H 0.1223 0.27893 0.46575 0.0
H429 H 0.13433 0.23708 0.37104 0.0
S430 S 0.99676 0.24126 0.29004 0.0
N431 N 0.01449 0.26806 0.36026 0.0
N432 N 0.02645 0.22139 0.26232 0.0
C433 C 0.05295 0.2366 0.30949 0.0
C434 C 0.04638 0.26196 0.36275 0.0
C435 C 0.40624 0.13941 0.53375 0.0
C436 C 0.37306 0.11961 0.52882 0.0
C437 C 0.43071 0.14662 0.45526 0.0
C438 C 0.42294 0.13417 0.36894 0.0
H439 H 0.41406 0.14684 0.60203 0.0
H440 H 0.45651 0.15956 0.46575 0.0
S441 S 0.33806 0.08657 0.3133 0.0
N442 N 0.33255 0.09143 0.42708 0.0
N443 N 0.37818 0.10576 0.27785 0.0
C444 C 0.38895 0.11728 0.35972 0.0
C445 C 0.36408 0.10986 0.44003 0.0
C446 C 0.50699 0.3903 0.21202 0.0
C447 C 0.53761 0.37913 0.23118 0.0
C448 C 0.50659 0.42351 0.14704 0.0
C449 C 0.53681 0.44658 0.09927 0.0
H450 H 0.48359 0.37439 0.25218 0.0
H451 H 0.48267 0.43173 0.13704 0.0
S452 S 0.62354 0.42896 0.12554 0.0
N453 N 0.59847 0.39275 0.19509 0.0
N454 N 0.59819 0.45532 0.0773 0.0
C455 C 0.56736 0.43485 0.1157 0.0
C456 C 0.56761 0.40107 0.1804 0.0
C457 C 0.23841 0.50408 0.54432 0.0
C458 C 0.25924 0.53887 0.51905 0.0
C459 C 0.21426 0.49206 0.48014 0.0
C460 C 0.21006 0.51436 0.38815 0.0
H461 H 0.23828 0.48751 0.61834 0.0
H462 H 0.19725 0.46599 0.50548 0.0
S463 S 0.26112 0.60637 0.28341 0.0
N464 N 0.27642 0.59406 0.39264 0.0
N465 N 0.23124 0.57178 0.27174 0.0
C466 C 0.23296 0.54793 0.35839 0.0
C467 C 0.25754 0.56005 0.42382 0.0
C468 C 0.04371 0.84427 0.53777 0.0
C469 C 0.0201 0.83054 0.47443 0.0
C470 C 0.03709 0.86901 0.59052 0.0
C471 C 1.00666 0.88131 0.58159 0.0
H472 H 0.06868 0.83825 0.53982 0.0
H473 H 0.05677 0.88006 0.63448 0.0
S474 S 0.93566 0.85167 0.42997 0.0
N475 N 0.9643 0.82919 0.41083 0.0
N476 N 0.95178 0.87573 0.50869 0.0
C477 C 0.98186 0.86575 0.524 0.0
C478 C 0.98859 0.84038 0.47087 0.0
C479 C 0.72507 0.02983 0.44994 0.0
C480 C 0.72671 1.00775 0.38414 0.0
C481 C 0.69918 0.02043 0.52552 0.0
C482 C 0.67359 0.98887 0.53694 0.0
H483 H 0.74255 0.05573 0.43856 0.0
H484 H 0.69788 0.0393 0.57074 0.0
S485 S 0.66836 0.92047 0.38872 0.0
N486 N 0.70214 0.95185 0.33919 0.0
N487 N 0.65351 0.93397 0.4814 0.0
C488 C 0.67623 0.96551 0.47532 0.0
C489 C 0.7028 0.97498 0.39897 0.0
C490 C 0.58668 0.72123 0.66077 0.0
C491 C 0.56363 0.74091 0.68318 0.0
C492 C 0.58863 0.68829 0.72337 0.0
C493 C 0.56723 0.67354 0.81024 0.0
H494 H 0.60153 0.7301 0.59067 0.0
H495 H 0.60542 0.67326 0.69966 0.0
S496 S 0.50582 0.7175 0.9082 0.0
N497 N 0.52155 0.74553 0.80217 0.0
N498 N 0.52519 0.68386 0.92108 0.0
C499 C 0.54601 0.69455 0.83728 0.0
C500 C 0.54416 0.72815 0.77332 0.0
C501 C 0.86565 0.61343 0.3271 0.0
C502 C 0.84061 0.5813 0.35374 0.0
C503 C 0.88899 0.62406 0.3949 0.0
C504 C 0.88815 0.6029 0.49187 0.0
H505 H 0.86963 0.62825 0.25038 0.0
H506 H 0.90965 0.64715 0.36821 0.0
S507 S 0.82281 0.5208 0.60389 0.0
N508 N 0.81306 0.53162 0.48722 0.0
N509 N 0.85617 0.55197 0.6158 0.0
C510 C 0.86069 0.57312 0.52246 0.0
C511 C 0.83702 0.56232 0.45321 0.0
loop_
_geom_bond_atom_site_label_1
_geom_bond_atom_site_label_2
_geom_bond_distance
_geom_bond_site_symmetry_2
_ccdc_geom_bond_type
H0 C3 0.929 . S
H1 C6 0.929 . S
H2 C8 0.930 . S
C3 H0 0.929 . S
C3 C4 1.398 . S
C3 C5 1.396 1_554 S
C4 C3 1.398 . S
C4 C8 1.407 . S
C5 C3 1.396 1_556 S
C5 C6 1.394 . S
C6 H1 0.929 . S
C6 C5 1.394 . S
C6 C7 1.382 1_556 S
C7 C6 1.382 1_554 S
C7 C8 1.392 . S
C7 N9 1.420 . S
C8 H2 0.930 . S
C8 C4 1.407 . S
C8 C7 1.392 . S
N9 C7 1.420 . S
N9 C10 1.244 1_554 S
C10 N9 1.244 1_556 S
H11 C14 0.929 . S
H12 C17 0.929 1_556 S
H13 C19 0.930 . S
C14 H11 0.929 . S
C14 C15 1.398 . S
C14 C16 1.396 . S
C15 C14 1.398 . S
C15 C19 1.407 . S
C16 C14 1.396 . S
C16 C17 1.394 . S
C17 H12 0.929 1_554 S
C17 C16 1.394 . S
C17 C18 1.382 . S
C18 C17 1.382 . S
C18 C19 1.392 . S
C18 N20 1.420 . S
C19 H13 0.930 . S
C19 C15 1.407 . S
C19 C18 1.392 . S
N20 C18 1.420 . S
N20 C21 1.244 . S
C21 N20 1.244 . S
H22 C25 0.929 . S
H23 C28 0.929 . S
H24 C30 0.930 . S
C25 H22 0.929 . S
C25 C26 1.398 . S
C25 C27 1.396 . S
C26 C25 1.398 . S
C26 C30 1.407 . S
C27 C25 1.396 . S
C27 C28 1.394 1_554 S
C28 H23 0.929 . S
C28 C27 1.394 1_556 S
C28 C29 1.382 1_556 S
C29 C28 1.382 1_554 S
C29 C30 1.392 . S
C29 N31 1.420 . S
C30 H24 0.930 . S
C30 C26 1.407 . S
C30 C29 1.392 . S
N31 C29 1.420 . S
N31 C32 1.244 . S
C32 N31 1.244 . S
H33 C36 0.929 . S
H34 C39 0.929 . S
H35 C41 0.930 . S
C36 H33 0.929 . S
C36 C37 1.398 . S
C36 C38 1.396 . S
C37 C36 1.398 . S
C37 C41 1.407 . S
C38 C36 1.396 . S
C38 C39 1.394 . S
C39 H34 0.929 . S
C39 C38 1.394 . S
C39 C40 1.382 . S
C40 C39 1.382 . S
C40 C41 1.392 . S
C40 N42 1.420 . S
C41 H35 0.930 . S
C41 C37 1.407 . S
C41 C40 1.392 . S
N42 C40 1.420 . S
N42 C43 1.244 . S
C43 N42 1.244 . S
H44 C47 0.929 . S
H45 C50 0.929 1_554 S
H46 C52 0.930 . S
C47 H44 0.929 . S
C47 C48 1.398 . S
C47 C49 1.396 . S
C48 C47 1.398 . S
C48 C52 1.407 . S
C49 C47 1.396 . S
C49 C50 1.394 . S
C50 H45 0.929 1_556 S
C50 C49 1.394 . S
C50 C51 1.382 . S
C51 C50 1.382 . S
C51 C52 1.392 . S
C51 N53 1.420 . S
C52 H46 0.930 . S
C52 C48 1.407 . S
C52 C51 1.392 . S
N53 C51 1.420 . S
N53 C54 1.244 . S
C54 N53 1.244 . S
H55 C58 0.929 . S
H56 C61 0.929 . S
H57 C63 0.930 . S
C58 H55 0.929 . S
C58 C59 1.398 . S
C58 C60 1.396 . S
C59 C58 1.398 . S
C59 C63 1.407 . S
C60 C58 1.396 . S
C60 C61 1.394 . S
C61 H56 0.929 . S
C61 C60 1.394 . S
C61 C62 1.382 . S
C62 C61 1.382 . S
C62 C63 1.392 . S
C62 N64 1.420 . S
C63 H57 0.930 . S
C63 C59 1.407 . S
C63 C62 1.392 . S
N64 C62 1.420 . S
N64 C65 1.244 . S
C65 N64 1.244 . S
H66 C69 0.929 . S
H67 C72 0.929 . S
H68 C74 0.930 . S
C69 H66 0.929 . S
C69 C70 1.398 . S
C69 C71 1.396 . S
C70 C69 1.398 . S
C70 C74 1.407 . S
C71 C69 1.396 . S
C71 C72 1.394 . S
C72 H67 0.929 . S
C72 C71 1.394 . S
C72 C73 1.382 . S
C73 C72 1.382 . S
C73 C74 1.392 . S
C73 N75 1.420 . S
C74 H68 0.930 . S
C74 C70 1.407 . S
C74 C73 1.392 . S
N75 C73 1.420 . S
N75 C76 1.244 . S
C76 N75 1.244 . S
H77 C80 0.929 . S
H78 C83 0.929 . S
H79 C85 0.930 . S
C80 H77 0.929 . S
C80 C81 1.398 . S
C80 C82 1.396 . S
C81 C80 1.398 . S
C81 C85 1.407 . S
C82 C80 1.396 . S
C82 C83 1.394 . S
C83 H78 0.929 . S
C83 C82 1.394 . S
C83 C84 1.382 . S
C84 C83 1.382 . S
C84 C85 1.392 . S
C84 N86 1.420 . S
C85 H79 0.930 . S
C85 C81 1.407 . S
C85 C84 1.392 . S
N86 C84 1.420 . S
N86 C87 1.244 . S
C87 N86 1.244 . S
Nd88 C90 2.836 1_545 S
Nd88 O108 2.500 1_445 S
Nd88 O109 2.492 . S
Nd88 O110 2.487 . S
Nd88 O111 2.682 . S
Nd88 O112 2.410 1_545 S
Nd88 O117 2.414 1_455 S
Nd88 O119 2.424 . S
Nd89 C99 2.836 . S
Nd89 O111 2.414 1_554 S
Nd89 O113 2.424 1_545 S
Nd89 O114 2.500 . S
Nd89 O115 2.492 . S
Nd89 O116 2.487 1_455 S
Nd89 O117 2.682 1_454 S
Nd89 O118 2.410 1_554 S
C90 Nd88 2.836 1_565 S
C90 C91 1.498 . S
C90 O108 1.258 1_455 S
C90 O109 1.239 1_565 S
C91 C90 1.498 . S
C91 C92 1.366 1_455 S
C91 C96 1.407 . S
C92 C91 1.366 1_655 S
C92 C93 1.392 . S
C92 H120 0.930 . S
C93 C92 1.392 . S
C93 C94 1.416 . S
C93 H121 0.929 . S
C94 C93 1.416 . S
C94 C95 1.334 1_655 S
C95 C94 1.334 1_455 S
C95 C96 1.384 . S
C95 H122 0.930 . S
C96 C91 1.407 . S
C96 C95 1.384 . S
C96 H123 0.929 . S
C97 O110 1.241 . S
C97 O111 1.273 . S
C98 O112 1.251 . S
C98 O113 1.268 1_556 S
C99 Nd89 2.836 . S
C99 C100 1.498 . S
C99 O114 1.258 . S
C99 O115 1.239 . S
C100 C99 1.498 . S
C100 C101 1.366 . S
C100 C105 1.407 . S
C101 C100 1.366 . S
C101 C102 1.392 . S
C101 H124 0.930 . S
C102 C101 1.392 . S
C102 C103 1.398 . S
C102 H125 0.929 . S
C103 C102 1.398 . S
C103 C104 1.352 . S
C104 C103 1.352 . S
C104 C105 1.384 . S
C104 H126 0.930 . S
C105 C100 1.407 . S
C105 C104 1.384 . S
C105 H127 0.929 . S
C106 O116 1.241 1_556 S
C106 O117 1.273 . S
C107 O118 1.251 . S
C107 O119 1.268 . S
O108 Nd88 2.500 1_665 S
O108 C90 1.258 1_655 S
O109 Nd88 2.492 . S
O109 C90 1.239 1_545 S
O110 Nd88 2.487 . S
O110 C97 1.241 . S
O111 Nd88 2.682 . S
O111 Nd89 2.414 1_556 S
O111 C97 1.273 . S
O112 Nd88 2.410 1_565 S
O112 C98 1.251 . S
O113 Nd89 2.424 1_565 S
O113 C98 1.268 1_554 S
O114 Nd89 2.500 . S
O114 C99 1.258 . S
O115 Nd89 2.492 . S
O115 C99 1.239 . S
O116 Nd89 2.487 1_655 S
O116 C106 1.241 1_554 S
O117 Nd88 2.414 1_655 S
O117 Nd89 2.682 1_656 S
O117 C106 1.273 . S
O118 Nd89 2.410 1_556 S
O118 C107 1.251 . S
O119 Nd88 2.424 . S
O119 C107 1.268 . S
H120 C92 0.930 . S
H121 C93 0.929 . S
H122 C95 0.930 . S
H123 C96 0.929 . S
H124 C101 0.930 . S
H125 C102 0.929 . S
H126 C104 0.930 . S
H127 C105 0.929 . S
Nd128 C130 2.836 1_545 S
Nd128 O148 2.500 1_545 S
Nd128 O149 2.492 . S
Nd128 O150 2.487 . S
Nd128 O151 2.682 . S
Nd128 O152 2.410 . S
Nd128 O157 2.414 . S
Nd128 O159 2.424 . S
Nd129 C139 2.836 . S
Nd129 O151 2.414 1_554 S
Nd129 O153 2.424 . S
Nd129 O154 2.500 . S
Nd129 O155 2.492 . S
Nd129 O156 2.487 1_545 S
Nd129 O157 2.682 1_554 S
Nd129 O158 2.410 . S
C130 Nd128 2.836 1_565 S
C130 C131 1.498 . S
C130 O148 1.258 . S
C130 O149 1.239 1_565 S
C131 C130 1.498 . S
C131 C132 1.366 . S
C131 C136 1.407 1_565 S
C132 C131 1.366 . S
C132 C133 1.392 . S
C132 H160 0.930 . S
C133 C132 1.392 . S
C133 C134 1.398 . S
C133 H161 0.929 . S
C134 C133 1.398 . S
C134 C135 1.352 . S
C135 C134 1.352 . S
C135 C136 1.384 1_565 S
C135 H162 0.925 1_565 S
C136 C131 1.407 1_545 S
C136 C135 1.384 1_545 S
C136 H163 0.929 . S
C137 O150 1.241 . S
C137 O151 1.273 . S
C138 O152 1.251 . S
C138 O153 1.268 1_556 S
C139 Nd129 2.836 . S
C139 C140 1.498 . S
C139 O154 1.258 . S
C139 O155 1.239 . S
C140 C139 1.498 . S
C140 C141 1.366 . S
C140 C145 1.407 . S
C141 C140 1.366 . S
C141 C142 1.392 . S
C141 H164 0.930 . S
C142 C141 1.392 . S
C142 C143 1.398 . S
C142 H165 0.929 . S
C143 C142 1.398 . S
C143 C144 1.352 . S
C144 C143 1.352 . S
C144 C145 1.384 . S
C144 H166 0.930 . S
C145 C140 1.407 . S
C145 C144 1.384 . S
C145 H167 0.929 . S
C146 O156 1.241 . S
C146 O157 1.273 1_564 S
C147 O158 1.251 1_556 S
C147 O159 1.268 . S
O148 Nd128 2.500 1_565 S
O148 C130 1.258 . S
O149 Nd128 2.492 . S
O149 C130 1.239 1_545 S
O150 Nd128 2.487 . S
O150 C137 1.241 . S
O151 Nd128 2.682 . S
O151 Nd129 2.414 1_556 S
O151 C137 1.273 . S
O152 Nd128 2.410 . S
O152 C138 1.251 . S
O153 Nd129 2.424 . S
O153 C138 1.268 1_554 S
O154 Nd129 2.500 . S
O154 C139 1.258 . S
O155 Nd129 2.492 . S
O155 C139 1.239 . S
O156 Nd129 2.487 1_565 S
O156 C146 1.241 . S
O157 Nd128 2.414 . S
O157 Nd129 2.682 1_556 S
O157 C146 1.273 1_546 S
O158 Nd129 2.410 . S
O158 C147 1.251 1_554 S
O159 Nd128 2.424 . S
O159 C147 1.268 . S
H160 C132 0.930 . S
H161 C133 0.929 . S
H162 C135 0.925 1_545 S
H163 C136 0.929 . S
H164 C141 0.930 . S
H165 C142 0.929 . S
H166 C144 0.930 . S
H167 C145 0.929 . S
Nd168 C170 2.836 . S
Nd168 O188 2.500 . S
Nd168 O189 2.492 . S
Nd168 O190 2.487 . S
Nd168 O191 2.682 1_554 S
Nd168 O192 2.410 1_554 S
Nd168 O197 2.414 1_554 S
Nd168 O199 2.424 . S
Nd169 C179 2.836 . S
Nd169 O191 2.414 . S
Nd169 O193 2.424 . S
Nd169 O194 2.500 . S
Nd169 O195 2.492 . S
Nd169 O196 2.487 . S
Nd169 O197 2.682 . S
Nd169 O198 2.410 . S
C170 Nd168 2.836 . S
C170 C171 1.498 . S
C170 O188 1.258 . S
C170 O189 1.239 . S
C171 C170 1.498 . S
C171 C172 1.366 . S
C171 C176 1.407 . S
C172 C171 1.366 . S
C172 C173 1.392 . S
C172 H200 0.930 . S
C173 C172 1.392 . S
C173 C174 1.398 . S
C173 H201 0.929 . S
C174 C173 1.398 . S
C174 C175 1.352 . S
C175 C174 1.352 . S
C175 C176 1.384 . S
C175 H202 0.930 . S
C176 C171 1.407 . S
C176 C175 1.384 . S
C176 H203 0.929 . S
C177 O190 1.241 1_556 S
C177 O191 1.273 . S
C178 O192 1.251 . S
C178 O193 1.268 . S
C179 Nd169 2.836 . S
C179 C180 1.498 . S
C179 O194 1.258 . S
C179 O195 1.239 . S
C180 C179 1.498 . S
C180 C181 1.366 . S
C180 C185 1.407 . S
C181 C180 1.366 . S
C181 C182 1.392 . S
C181 H204 0.930 . S
C182 C181 1.392 . S
C182 C183 1.398 . S
C182 H205 0.929 . S
C183 C182 1.398 . S
C183 C184 1.352 . S
C184 C183 1.352 . S
C184 C185 1.384 . S
C184 H206 0.930 . S
C185 C180 1.407 . S
C185 C184 1.384 . S
C185 H207 0.929 . S
C186 O196 1.241 . S
C186 O197 1.273 . S
C187 O198 1.251 1_554 S
C187 O199 1.268 . S
O188 Nd168 2.500 . S
O188 C170 1.258 . S
O189 Nd168 2.492 . S
O189 C170 1.239 . S
O190 Nd168 2.487 . S
O190 C177 1.241 1_554 S
O191 Nd168 2.682 1_556 S
O191 Nd169 2.414 . S
O191 C177 1.273 . S
O192 Nd168 2.410 1_556 S
O192 C178 1.251 . S
O193 Nd169 2.424 . S
O193 C178 1.268 . S
O194 Nd169 2.500 . S
O194 C179 1.258 . S
O195 Nd169 2.492 . S
O195 C179 1.239 . S
O196 Nd169 2.487 . S
O196 C186 1.241 . S
O197 Nd168 2.414 1_556 S
O197 Nd169 2.682 . S
O197 C186 1.273 . S
O198 Nd169 2.410 . S
O198 C187 1.251 1_556 S
O199 Nd168 2.424 . S
O199 C187 1.268 . S
H200 C172 0.930 . S
H201 C173 0.929 . S
H202 C175 0.930 . S
H203 C176 0.929 . S
H204 C181 0.930 . S
H205 C182 0.929 . S
H206 C184 0.930 . S
H207 C185 0.929 . S
Nd208 C210 2.836 1_455 S
Nd208 O228 2.500 1_455 S
Nd208 O229 2.492 1_455 S
Nd208 O230 2.487 . S
Nd208 O231 2.682 . S
Nd208 O232 2.410 1_455 S
Nd208 O237 2.414 . S
Nd208 O239 2.424 . S
Nd209 C219 2.836 . S
Nd209 O231 2.414 1_554 S
Nd209 O233 2.424 1_455 S
Nd209 O234 2.500 . S
Nd209 O235 2.492 . S
Nd209 O236 2.487 . S
Nd209 O237 2.682 1_554 S
Nd209 O238 2.410 . S
C210 Nd208 2.836 1_655 S
C210 C211 1.498 . S
C210 O228 1.258 . S
C210 O229 1.239 . S
C211 C210 1.498 . S
C211 C212 1.366 . S
C211 C216 1.407 . S
C212 C211 1.366 . S
C212 C213 1.392 . S
C212 H240 0.930 . S
C213 C212 1.392 . S
C213 C214 1.398 . S
C213 H241 0.929 . S
C214 C213 1.398 . S
C214 C215 1.352 . S
C215 C214 1.352 . S
C215 C216 1.384 . S
C215 H242 0.930 . S
C216 C211 1.407 . S
C216 C215 1.384 . S
C216 H243 0.929 . S
C217 O230 1.241 . S
C217 O231 1.273 . S
C218 O232 1.251 . S
C218 O233 1.268 1_556 S
C219 Nd209 2.836 . S
C219 C220 1.498 . S
C219 O234 1.258 . S
C219 O235 1.239 . S
C220 C219 1.498 . S
C220 C221 1.366 . S
C220 C225 1.407 . S
C221 C220 1.366 . S
C221 C222 1.392 . S
C221 H244 0.930 . S
C222 C221 1.392 . S
C222 C223 1.398 . S
C222 H245 0.929 . S
C223 C222 1.398 . S
C223 C224 1.352 . S
C224 C223 1.352 . S
C224 C225 1.384 . S
C224 H246 0.930 . S
C225 C220 1.407 . S
C225 C224 1.384 . S
C225 H247 0.929 . S
C226 O236 1.241 1_556 S
C226 O237 1.273 . S
C227 O238 1.251 1_556 S
C227 O239 1.268 . S
O228 Nd208 2.500 1_655 S
O228 C210 1.258 . S
O229 Nd208 2.492 1_655 S
O229 C210 1.239 . S
O230 Nd208 2.487 . S
O230 C217 1.241 . S
O231 Nd208 2.682 . S
O231 Nd209 2.414 1_556 S
O231 C217 1.273 . S
O232 Nd208 2.410 1_655 S
O232 C218 1.251 . S
O233 Nd209 2.424 1_655 S
O233 C218 1.268 1_554 S
O234 Nd209 2.500 . S
O234 C219 1.258 . S
O235 Nd209 2.492 . S
O235 C219 1.239 . S
O236 Nd209 2.487 . S
O236 C226 1.241 1_554 S
O237 Nd208 2.414 . S
O237 Nd209 2.682 1_556 S
O237 C226 1.273 . S
O238 Nd209 2.410 . S
O238 C227 1.251 1_554 S
O239 Nd208 2.424 . S
O239 C227 1.268 . S
H240 C212 0.930 . S
H241 C213 0.929 . S
H242 C215 0.930 . S
H243 C216 0.929 . S
H244 C221 0.930 . S
H245 C222 0.929 . S
H246 C224 0.930 . S
H247 C225 0.929 . S
C248 C249 1.369 . S
C248 C250 1.419 . S
C248 H252 0.930 . S
C249 C248 1.369 . S
C249 C258 1.429 . S
C250 C248 1.419 . S
C250 C251 1.363 . S
C250 H253 0.929 . S
C251 C250 1.363 . S
C251 C257 1.428 . S
H252 C248 0.930 . S
H253 C250 0.929 . S
S254 N255 1.613 . S
S254 N256 1.610 . S
N255 S254 1.613 . S
N255 C258 1.350 . S
N256 S254 1.610 . S
N256 C257 1.351 . S
C257 C251 1.428 . S
C257 N256 1.351 . S
C257 C258 1.434 . S
C258 C249 1.429 . S
C258 N255 1.350 . S
C258 C257 1.434 . S
C259 C260 1.369 . S
C259 C261 1.419 . S
C259 H263 0.930 . S
C260 C259 1.369 . S
C260 C269 1.429 . S
C261 C259 1.419 . S
C261 C262 1.363 . S
C261 H264 0.929 . S
C262 C261 1.363 . S
C262 C268 1.428 . S
H263 C259 0.930 . S
H264 C261 0.929 . S
S265 N266 1.613 . S
S265 N267 1.610 . S
N266 S265 1.613 . S
N266 C269 1.350 . S
N267 S265 1.610 . S
N267 C268 1.351 . S
C268 C262 1.428 . S
C268 N267 1.351 . S
C268 C269 1.434 . S
C269 C260 1.429 . S
C269 N266 1.350 . S
C269 C268 1.434 . S
C270 C271 1.369 1_554 S
C270 C272 1.419 . S
C270 H274 0.930 . S
C271 C270 1.369 1_556 S
C271 C280 1.429 . S
C272 C270 1.419 . S
C272 C273 1.363 1_554 S
C272 H275 0.929 . S
C273 C272 1.363 1_556 S
C273 C279 1.428 . S
H274 C270 0.930 . S
H275 C272 0.929 . S
S276 N277 1.613 . S
S276 N278 1.610 . S
N277 S276 1.613 . S
N277 C280 1.350 . S
N278 S276 1.610 . S
N278 C279 1.351 . S
C279 C273 1.428 . S
C279 N278 1.351 . S
C279 C280 1.434 . S
C280 C271 1.429 . S
C280 N277 1.350 . S
C280 C279 1.434 . S
C281 C282 1.369 . S
C281 C283 1.419 . S
C281 H285 0.930 . S
C282 C281 1.369 . S
C282 C291 1.429 . S
C283 C281 1.419 . S
C283 C284 1.363 . S
C283 H286 0.929 . S
C284 C283 1.363 . S
C284 C290 1.428 . S
H285 C281 0.930 . S
H286 C283 0.929 . S
S287 N288 1.613 1_655 S
S287 N289 1.610 . S
N288 S287 1.613 1_455 S
N288 C291 1.350 . S
N289 S287 1.610 . S
N289 C290 1.351 1_655 S
C290 C284 1.428 . S
C290 N289 1.351 1_455 S
C290 C291 1.434 . S
C291 C282 1.429 . S
C291 N288 1.350 . S
C291 C290 1.434 . S
C292 C293 1.377 1_554 S
C292 C294 1.416 1_565 S
C292 H296 0.924 1_565 S
C293 C292 1.377 1_556 S
C293 C302 1.429 . S
C294 C292 1.416 1_545 S
C294 C295 1.363 1_554 S
C294 H297 0.929 . S
C295 C294 1.363 1_556 S
C295 C301 1.428 1_545 S
H296 C292 0.924 1_545 S
H297 C294 0.929 . S
S298 N299 1.613 . S
S298 N300 1.610 . S
N299 S298 1.613 . S
N299 C302 1.350 . S
N300 S298 1.610 . S
N300 C301 1.351 . S
C301 C295 1.428 1_565 S
C301 N300 1.351 . S
C301 C302 1.434 . S
C302 C293 1.429 . S
C302 N299 1.350 . S
C302 C301 1.434 . S
C303 C304 1.369 . S
C303 C305 1.419 . S
C303 H307 0.930 . S
C304 C303 1.369 . S
C304 C313 1.429 . S
C305 C303 1.419 . S
C305 C306 1.363 . S
C305 H308 0.929 . S
C306 C305 1.363 . S
C306 C312 1.428 . S
H307 C303 0.930 . S
H308 C305 0.929 . S
S309 N310 1.613 . S
S309 N311 1.610 . S
N310 S309 1.613 . S
N310 C313 1.350 . S
N311 S309 1.610 . S
N311 C312 1.351 . S
C312 C306 1.428 . S
C312 N311 1.351 . S
C312 C313 1.434 . S
C313 C304 1.429 . S
C313 N310 1.350 . S
C313 C312 1.434 . S
C314 C315 1.369 . S
C314 C316 1.419 . S
C314 H318 0.930 . S
C315 C314 1.369 . S
C315 C324 1.429 1_556 S
C316 C314 1.419 . S
C316 C317 1.363 . S
C316 H319 0.929 . S
C317 C316 1.363 . S
C317 C323 1.428 1_556 S
H318 C314 0.930 . S
H319 C316 0.929 . S
S320 N321 1.613 . S
S320 N322 1.610 . S
N321 S320 1.613 . S
N321 C324 1.350 . S
N322 S320 1.610 . S
N322 C323 1.351 . S
C323 C317 1.428 1_554 S
C323 N322 1.351 . S
C323 C324 1.434 . S
C324 C315 1.429 1_554 S
C324 N321 1.350 . S
C324 C323 1.434 . S
C325 C326 1.369 1_456 S
C325 C327 1.418 . S
C325 H329 0.930 . S
C326 C325 1.369 1_654 S
C326 C335 1.429 . S
C327 C325 1.418 . S
C327 C328 1.363 . S
C327 H330 0.929 . S
C328 C327 1.363 . S
C328 C334 1.428 1_456 S
H329 C325 0.930 . S
H330 C327 0.929 . S
S331 N332 1.613 . S
S331 N333 1.610 . S
N332 S331 1.613 . S
N332 C335 1.350 . S
N333 S331 1.610 . S
N333 C334 1.351 . S
C334 C328 1.428 1_654 S
C334 N333 1.351 . S
C334 C335 1.434 . S
C335 C326 1.429 . S
C335 N332 1.350 . S
C335 C334 1.434 . S
C336 C337 1.369 . S
C336 C338 1.419 . S
C336 H340 0.930 . S
C337 C336 1.369 . S
C337 C346 1.429 . S
C338 C336 1.419 . S
C338 C339 1.363 . S
C338 H341 0.929 . S
C339 C338 1.363 . S
C339 C345 1.428 . S
H340 C336 0.930 . S
H341 C338 0.929 . S
S342 N343 1.594 1_655 S
S342 N344 1.598 1_655 S
N343 S342 1.594 1_455 S
N343 C346 1.350 1_554 S
N344 S342 1.598 1_455 S
N344 C345 1.351 1_554 S
C345 C339 1.428 . S
C345 N344 1.351 1_556 S
C345 C346 1.434 . S
C346 C337 1.429 . S
C346 N343 1.350 1_556 S
C346 C345 1.434 . S
C347 C348 1.369 . S
C347 C349 1.419 . S
C347 H351 0.930 . S
C348 C347 1.369 . S
C348 C357 1.429 . S
C349 C347 1.419 . S
C349 C350 1.363 . S
C349 H352 0.929 . S
C350 C349 1.363 . S
C350 C356 1.428 1_556 S
H351 C347 0.930 . S
H352 C349 0.929 . S
S353 N354 1.613 . S
S353 N355 1.610 . S
N354 S353 1.613 . S
N354 C357 1.350 1_554 S
N355 S353 1.610 . S
N355 C356 1.351 . S
C356 C350 1.428 1_554 S
C356 N355 1.351 . S
C356 C357 1.434 1_554 S
C357 C348 1.429 . S
C357 N354 1.350 1_556 S
C357 C356 1.434 1_556 S
C358 C359 1.369 . S
C358 C360 1.419 . S
C358 H362 0.930 . S
C359 C358 1.369 . S
C359 C368 1.429 . S
C360 C358 1.419 . S
C360 C361 1.363 . S
C360 H363 0.929 . S
C361 C360 1.363 . S
C361 C367 1.428 . S
H362 C358 0.930 . S
H363 C360 0.929 . S
S364 N365 1.613 . S
S364 N366 1.610 . S
N365 S364 1.613 . S
N365 C368 1.350 . S
N366 S364 1.610 . S
N366 C367 1.351 . S
C367 C361 1.428 . S
C367 N366 1.351 . S
C367 C368 1.434 . S
C368 C359 1.429 . S
C368 N365 1.350 . S
C368 C367 1.434 . S
C369 C370 1.369 . S
C369 C371 1.419 . S
C369 H373 0.930 . S
C370 C369 1.369 . S
C370 C379 1.429 1_556 S
C371 C369 1.419 . S
C371 C372 1.363 . S
C371 H374 0.929 . S
C372 C371 1.363 . S
C372 C378 1.428 1_556 S
H373 C369 0.930 . S
H374 C371 0.929 . S
S375 N376 1.613 . S
S375 N377 1.610 . S
N376 S375 1.613 . S
N376 C379 1.350 . S
N377 S375 1.610 . S
N377 C378 1.351 . S
C378 C372 1.428 1_554 S
C378 N377 1.351 . S
C378 C379 1.434 . S
C379 C370 1.429 1_554 S
C379 N376 1.350 . S
C379 C378 1.434 . S
C380 C381 1.369 1_454 S
C380 C382 1.419 . S
C380 H384 0.930 . S
C381 C380 1.369 1_656 S
C381 C390 1.429 . S
C382 C380 1.419 . S
C382 C383 1.363 1_554 S
C382 H385 0.929 . S
C383 C382 1.363 1_556 S
C383 C389 1.428 1_455 S
H384 C380 0.930 . S
H385 C382 0.929 . S
S386 N387 1.613 . S
S386 N388 1.610 . S
N387 S386 1.613 . S
N387 C390 1.350 . S
N388 S386 1.610 . S
N388 C389 1.351 . S
C389 C383 1.428 1_655 S
C389 N388 1.351 . S
C389 C390 1.434 . S
C390 C381 1.429 . S
C390 N387 1.350 . S
C390 C389 1.434 . S
C391 C392 1.369 . S
C391 C393 1.419 . S
C391 H395 0.930 1_556 S
C392 C391 1.369 . S
C392 C401 1.429 1_565 S
C393 C391 1.419 . S
C393 C394 1.363 1_565 S
C393 H396 0.929 . S
C394 C393 1.363 1_545 S
C394 C400 1.428 . S
H395 C391 0.930 1_554 S
H396 C393 0.929 . S
S397 N398 1.613 . S
S397 N399 1.610 . S
N398 S397 1.613 . S
N398 C401 1.350 . S
N399 S397 1.610 . S
N399 C400 1.351 . S
C400 C394 1.428 . S
C400 N399 1.351 . S
C400 C401 1.434 . S
C401 C392 1.429 1_545 S
C401 N398 1.350 . S
C401 C400 1.434 . S
C402 C403 1.369 . S
C402 C404 1.419 . S
C402 H406 0.930 . S
C403 C402 1.369 . S
C403 C412 1.429 . S
C404 C402 1.419 . S
C404 C405 1.363 . S
C404 H407 0.929 . S
C405 C404 1.363 . S
C405 C411 1.428 . S
H406 C402 0.930 . S
H407 C404 0.929 . S
S408 N409 1.613 . S
S408 N410 1.610 . S
N409 S408 1.613 . S
N409 C412 1.350 . S
N410 S408 1.610 . S
N410 C411 1.351 . S
C411 C405 1.428 . S
C411 N410 1.351 . S
C411 C412 1.434 . S
C412 C403 1.429 . S
C412 N409 1.350 . S
C412 C411 1.434 . S
C413 C414 1.369 . S
C413 C415 1.419 . S
C413 H417 0.930 . S
C414 C413 1.369 . S
C414 C423 1.429 . S
C415 C413 1.419 . S
C415 C416 1.363 . S
C415 H418 0.929 . S
C416 C415 1.363 . S
C416 C422 1.428 . S
H417 C413 0.930 . S
H418 C415 0.929 . S
S419 N420 1.613 . S
S419 N421 1.610 . S
N420 S419 1.613 . S
N420 C423 1.350 1_554 S
N421 S419 1.610 . S
N421 C422 1.351 1_554 S
C422 C416 1.428 . S
C422 N421 1.351 1_556 S
C422 C423 1.434 . S
C423 C414 1.429 . S
C423 N420 1.350 1_556 S
C423 C422 1.434 . S
C424 C425 1.369 . S
C424 C426 1.419 . S
C424 H428 0.930 . S
C425 C424 1.369 . S
C425 C434 1.429 . S
C426 C424 1.419 . S
C426 C427 1.363 . S
C426 H429 0.929 . S
C427 C426 1.363 . S
C427 C433 1.428 . S
H428 C424 0.930 . S
H429 C426 0.929 . S
S430 N431 1.613 . S
S430 N432 1.610 . S
N431 S430 1.613 . S
N431 C434 1.350 . S
N432 S430 1.610 . S
N432 C433 1.351 . S
C433 C427 1.428 . S
C433 N432 1.351 . S
C433 C434 1.434 . S
C434 C425 1.429 . S
C434 N431 1.350 . S
C434 C433 1.434 . S
C435 C436 1.369 . S
C435 C437 1.419 . S
C435 H439 0.930 . S
C436 C435 1.369 . S
C436 C445 1.429 . S
C437 C435 1.419 . S
C437 C438 1.363 . S
C437 H440 0.929 . S
C438 C437 1.363 . S
C438 C444 1.428 . S
H439 C435 0.930 . S
H440 C437 0.929 . S
S441 N442 1.613 . S
S441 N443 1.610 . S
N442 S441 1.613 . S
N442 C445 1.350 . S
N443 S441 1.610 . S
N443 C444 1.351 . S
C444 C438 1.428 . S
C444 N443 1.351 . S
C444 C445 1.434 . S
C445 C436 1.429 . S
C445 N442 1.350 . S
C445 C444 1.434 . S
C446 C447 1.369 . S
C446 C448 1.419 . S
C446 H450 0.930 . S
C447 C446 1.369 . S
C447 C456 1.429 . S
C448 C446 1.419 . S
C448 C449 1.363 . S
C448 H451 0.929 . S
C449 C448 1.363 . S
C449 C455 1.428 . S
H450 C446 0.930 . S
H451 C448 0.929 . S
S452 N453 1.613 . S
S452 N454 1.610 . S
N453 S452 1.613 . S
N453 C456 1.350 . S
N454 S452 1.610 . S
N454 C455 1.351 . S
C455 C449 1.428 . S
C455 N454 1.351 . S
C455 C456 1.434 . S
C456 C447 1.429 . S
C456 N453 1.350 . S
C456 C455 1.434 . S
C457 C458 1.369 . S
C457 C459 1.419 . S
C457 H461 0.930 . S
C458 C457 1.369 . S
C458 C467 1.429 . S
C459 C457 1.419 . S
C459 C460 1.363 . S
C459 H462 0.929 . S
C460 C459 1.363 . S
C460 C466 1.428 . S
H461 C457 0.930 . S
H462 C459 0.929 . S
S463 N464 1.613 . S
S463 N465 1.610 . S
N464 S463 1.613 . S
N464 C467 1.350 . S
N465 S463 1.610 . S
N465 C466 1.351 . S
C466 C460 1.428 . S
C466 N465 1.351 . S
C466 C467 1.434 . S
C467 C458 1.429 . S
C467 N464 1.350 . S
C467 C466 1.434 . S
C468 C469 1.369 1_455 S
C468 C470 1.419 . S
C468 H472 0.930 . S
C469 C468 1.369 1_655 S
C469 C478 1.429 . S
C470 C468 1.419 . S
C470 C471 1.363 1_455 S
C470 H473 0.929 . S
C471 C470 1.363 1_655 S
C471 C477 1.428 . S
H472 C468 0.930 . S
H473 C470 0.929 . S
S474 N475 1.613 . S
S474 N476 1.610 . S
N475 S474 1.613 . S
N475 C478 1.350 . S
N476 S474 1.610 . S
N476 C477 1.351 . S
C477 C471 1.428 . S
C477 N476 1.351 . S
C477 C478 1.434 . S
C478 C469 1.429 . S
C478 N475 1.350 . S
C478 C477 1.434 . S
C479 C480 1.369 . S
C479 C481 1.419 . S
C479 H483 0.930 . S
C480 C479 1.369 . S
C480 C489 1.429 . S
C481 C479 1.419 . S
C481 C482 1.363 . S
C481 H484 0.929 . S
C482 C481 1.363 . S
C482 C488 1.428 . S
H483 C479 0.930 . S
H484 C481 0.929 . S
S485 N486 1.613 . S
S485 N487 1.610 . S
N486 S485 1.613 . S
N486 C489 1.350 . S
N487 S485 1.610 . S
N487 C488 1.351 . S
C488 C482 1.428 . S
C488 N487 1.351 . S
C488 C489 1.434 . S
C489 C480 1.429 . S
C489 N486 1.350 . S
C489 C488 1.434 . S
C490 C491 1.369 . S
C490 C492 1.419 . S
C490 H494 0.930 . S
C491 C490 1.369 . S
C491 C500 1.429 . S
C492 C490 1.419 . S
C492 C493 1.363 . S
C492 H495 0.929 . S
C493 C492 1.363 . S
C493 C499 1.428 . S
H494 C490 0.930 . S
H495 C492 0.929 . S
S496 N497 1.613 . S
S496 N498 1.610 . S
N497 S496 1.613 . S
N497 C500 1.350 . S
N498 S496 1.610 . S
N498 C499 1.351 . S
C499 C493 1.428 . S
C499 N498 1.351 . S
C499 C500 1.434 . S
C500 C491 1.429 . S
C500 N497 1.350 . S
C500 C499 1.434 . S
C501 C502 1.369 . S
C501 C503 1.419 . S
C501 H505 0.930 . S
C502 C501 1.369 . S
C502 C511 1.429 . S
C503 C501 1.419 . S
C503 C504 1.363 . S
C503 H506 0.929 . S
C504 C503 1.363 . S
C504 C510 1.428 . S
H505 C501 0.930 . S
H506 C503 0.929 . S
S507 N508 1.613 . S
S507 N509 1.610 . S
N508 S507 1.613 . S
N508 C511 1.350 . S
N509 S507 1.610 . S
N509 C510 1.351 . S
C510 C504 1.428 . S
C510 N509 1.351 . S
C510 C511 1.434 . S
C511 C502 1.429 . S
C511 N508 1.350 . S
C511 C510 1.434 . S
C249 C76 1.653 . S
C251 C97 1.659 . S
C262 C137 1.389 . S
C260 C87 1.435 . S
C273 C186 1.423 . S
C271 C54 1.449 . S
C284 C217 1.785 . S
C282 C65 1.860 . S
C295 C106 1.662 . S
C293 C32 1.672 1_556 S
C304 C43 1.440 . S
C306 C146 1.391 . S
C315 C10 1.450 . S
C317 C177 1.422 . S
C326 C21 1.877 . S
C328 C226 1.781 . S
C339 C107 1.240 . S
C337 C60 1.087 . S
C350 C147 1.702 . S
C348 C71 1.493 . S
C361 C183 0.944 . S
C359 C82 0.963 . S
C370 C49 1.263 . S
C372 C227 1.446 . S
C381 C16 1.079 1_556 S
C383 C98 1.240 . S
C394 C138 1.706 . S
C392 C27 1.463 1_556 S
C405 C174 0.944 . S
C403 C38 0.962 . S
C414 C5 1.244 . S
C416 C218 1.445 . S
C425 C59 1.624 . S
C427 C103 1.658 . S
C436 C70 1.534 . S
C438 C143 1.485 . S
C449 C187 2.032 . S
C447 C81 1.833 . S
C460 C223 1.462 . S
C458 C48 1.492 . S
C469 C15 1.621 . S
C471 C94 1.659 . S
C482 C134 1.491 . S
C480 C26 1.538 . S
C493 C178 2.032 . S
C491 C37 1.842 . S
C502 C4 1.503 . S
C504 C214 1.457 . S
