# Generated by pormake.
# Topology llk, (3,12)-cn, num edge types: 1
# Building blocks:
#     Node 0, Type 0, BuildingBlock: PAMTOO_clean_linker_0, # of connection points: 3
#     Node 1, Type 0, BuildingBlock: PAMTOO_clean_linker_0, # of connection points: 3
#     Node 2, Type 0, BuildingBlock: PAMTOO_clean_linker_0, # of connection points: 3
#     Node 3, Type 0, BuildingBlock: PAMTOO_clean_linker_0, # of connection points: 3
#     Node 4, Type 0, BuildingBlock: PAMTOO_clean_linker_0, # of connection points: 3
#     Node 5, Type 0, BuildingBlock: PAMTOO_clean_linker_0, # of connection points: 3
#     Node 6, Type 0, BuildingBlock: PAMTOO_clean_linker_0, # of connection points: 3
#     Node 7, Type 0, BuildingBlock: PAMTOO_clean_linker_0, # of connection points: 3
#     Node 8, Type 0, BuildingBlock: PAMTOO_clean_linker_0, # of connection points: 3
#     Node 9, Type 0, BuildingBlock: PAMTOO_clean_linker_0, # of connection points: 3
#     Node 10, Type 0, BuildingBlock: PAMTOO_clean_linker_0, # of connection points: 3
#     Node 11, Type 0, BuildingBlock: PAMTOO_clean_linker_0, # of connection points: 3
#     Node 12, Type 0, BuildingBlock: PAMTOO_clean_linker_0, # of connection points: 3
#     Node 13, Type 0, BuildingBlock: PAMTOO_clean_linker_0, # of connection points: 3
#     Node 14, Type 0, BuildingBlock: PAMTOO_clean_linker_0, # of connection points: 3
#     Node 15, Type 0, BuildingBlock: PAMTOO_clean_linker_0, # of connection points: 3
#     Node 16, Type 0, BuildingBlock: PAMTOO_clean_linker_0, # of connection points: 3
#     Node 17, Type 0, BuildingBlock: PAMTOO_clean_linker_0, # of connection points: 3
#     Node 18, Type 0, BuildingBlock: PAMTOO_clean_linker_0, # of connection points: 3
#     Node 19, Type 0, BuildingBlock: PAMTOO_clean_linker_0, # of connection points: 3
#     Node 20, Type 0, BuildingBlock: PAMTOO_clean_linker_0, # of connection points: 3
#     Node 21, Type 0, BuildingBlock: PAMTOO_clean_linker_0, # of connection points: 3
#     Node 22, Type 0, BuildingBlock: PAMTOO_clean_linker_0, # of connection points: 3
#     Node 23, Type 0, BuildingBlock: PAMTOO_clean_linker_0, # of connection points: 3
#     Node 24, Type 1, BuildingBlock: QEWDON_clean_sbu_0, # of connection points: 12
#     Node 25, Type 1, BuildingBlock: QEWDON_clean_sbu_0, # of connection points: 12
#     Node 26, Type 1, BuildingBlock: QEWDON_clean_sbu_0, # of connection points: 12
#     Node 27, Type 1, BuildingBlock: QEWDON_clean_sbu_0, # of connection points: 12
#     Node 28, Type 1, BuildingBlock: QEWDON_clean_sbu_0, # of connection points: 12
#     Node 29, Type 1, BuildingBlock: QEWDON_clean_sbu_0, # of connection points: 12
#     Edge 30, Type (0, 1), BuildingBlock: KIFKEQ_clean_linker_1, # of connection points: 2
#     Edge 31, Type (0, 1), BuildingBlock: KIFKEQ_clean_linker_1, # of connection points: 2
#     Edge 32, Type (0, 1), BuildingBlock: KIFKEQ_clean_linker_1, # of connection points: 2
#     Edge 33, Type (0, 1), BuildingBlock: KIFKEQ_clean_linker_1, # of connection points: 2
#     Edge 34, Type (0, 1), BuildingBlock: KIFKEQ_clean_linker_1, # of connection points: 2
#     Edge 35, Type (0, 1), BuildingBlock: KIFKEQ_clean_linker_1, # of connection points: 2
#     Edge 36, Type (0, 1), BuildingBlock: KIFKEQ_clean_linker_1, # of connection points: 2
#     Edge 37, Type (0, 1), BuildingBlock: KIFKEQ_clean_linker_1, # of connection points: 2
#     Edge 38, Type (0, 1), BuildingBlock: KIFKEQ_clean_linker_1, # of connection points: 2
#     Edge 39, Type (0, 1), BuildingBlock: KIFKEQ_clean_linker_1, # of connection points: 2
#     Edge 40, Type (0, 1), BuildingBlock: KIFKEQ_clean_linker_1, # of connection points: 2
#     Edge 41, Type (0, 1), BuildingBlock: KIFKEQ_clean_linker_1, # of connection points: 2
#     Edge 42, Type (0, 1), BuildingBlock: KIFKEQ_clean_linker_1, # of connection points: 2
#     Edge 43, Type (0, 1), BuildingBlock: KIFKEQ_clean_linker_1, # of connection points: 2
#     Edge 44, Type (0, 1), BuildingBlock: KIFKEQ_clean_linker_1, # of connection points: 2
#     Edge 45, Type (0, 1), BuildingBlock: KIFKEQ_clean_linker_1, # of connection points: 2
#     Edge 46, Type (0, 1), BuildingBlock: KIFKEQ_clean_linker_1, # of connection points: 2
#     Edge 47, Type (0, 1), BuildingBlock: KIFKEQ_clean_linker_1, # of connection points: 2
#     Edge 48, Type (0, 1), BuildingBlock: KIFKEQ_clean_linker_1, # of connection points: 2
#     Edge 49, Type (0, 1), BuildingBlock: KIFKEQ_clean_linker_1, # of connection points: 2
#     Edge 50, Type (0, 1), BuildingBlock: KIFKEQ_clean_linker_1, # of connection points: 2
#     Edge 51, Type (0, 1), BuildingBlock: KIFKEQ_clean_linker_1, # of connection points: 2
#     Edge 52, Type (0, 1), BuildingBlock: KIFKEQ_clean_linker_1, # of connection points: 2
#     Edge 53, Type (0, 1), BuildingBlock: KIFKEQ_clean_linker_1, # of connection points: 2
#     Edge 54, Type (0, 1), BuildingBlock: KIFKEQ_clean_linker_1, # of connection points: 2
#     Edge 55, Type (0, 1), BuildingBlock: KIFKEQ_clean_linker_1, # of connection points: 2
#     Edge 56, Type (0, 1), BuildingBlock: KIFKEQ_clean_linker_1, # of connection points: 2
#     Edge 57, Type (0, 1), BuildingBlock: KIFKEQ_clean_linker_1, # of connection points: 2
#     Edge 58, Type (0, 1), BuildingBlock: KIFKEQ_clean_linker_1, # of connection points: 2
#     Edge 59, Type (0, 1), BuildingBlock: KIFKEQ_clean_linker_1, # of connection points: 2
#     Edge 60, Type (0, 1), BuildingBlock: KIFKEQ_clean_linker_1, # of connection points: 2
#     Edge 61, Type (0, 1), BuildingBlock: KIFKEQ_clean_linker_1, # of connection points: 2
#     Edge 62, Type (0, 1), BuildingBlock: KIFKEQ_clean_linker_1, # of connection points: 2
#     Edge 63, Type (0, 1), BuildingBlock: KIFKEQ_clean_linker_1, # of connection points: 2
#     Edge 64, Type (0, 1), BuildingBlock: KIFKEQ_clean_linker_1, # of connection points: 2
#     Edge 65, Type (0, 1), BuildingBlock: KIFKEQ_clean_linker_1, # of connection points: 2
#     Edge 66, Type (0, 1), BuildingBlock: KIFKEQ_clean_linker_1, # of connection points: 2
#     Edge 67, Type (0, 1), BuildingBlock: KIFKEQ_clean_linker_1, # of connection points: 2
#     Edge 68, Type (0, 1), BuildingBlock: KIFKEQ_clean_linker_1, # of connection points: 2
#     Edge 69, Type (0, 1), BuildingBlock: KIFKEQ_clean_linker_1, # of connection points: 2
#     Edge 70, Type (0, 1), BuildingBlock: KIFKEQ_clean_linker_1, # of connection points: 2
#     Edge 71, Type (0, 1), BuildingBlock: KIFKEQ_clean_linker_1, # of connection points: 2
#     Edge 72, Type (0, 1), BuildingBlock: KIFKEQ_clean_linker_1, # of connection points: 2
#     Edge 73, Type (0, 1), BuildingBlock: KIFKEQ_clean_linker_1, # of connection points: 2
#     Edge 74, Type (0, 1), BuildingBlock: KIFKEQ_clean_linker_1, # of connection points: 2
#     Edge 75, Type (0, 1), BuildingBlock: KIFKEQ_clean_linker_1, # of connection points: 2
#     Edge 76, Type (0, 1), BuildingBlock: KIFKEQ_clean_linker_1, # of connection points: 2
#     Edge 77, Type (0, 1), BuildingBlock: KIFKEQ_clean_linker_1, # of connection points: 2
#     Edge 78, Type (0, 1), BuildingBlock: KIFKEQ_clean_linker_1, # of connection points: 2
#     Edge 79, Type (0, 1), BuildingBlock: KIFKEQ_clean_linker_1, # of connection points: 2
#     Edge 80, Type (0, 1), BuildingBlock: KIFKEQ_clean_linker_1, # of connection points: 2
#     Edge 81, Type (0, 1), BuildingBlock: KIFKEQ_clean_linker_1, # of connection points: 2
#     Edge 82, Type (0, 1), BuildingBlock: KIFKEQ_clean_linker_1, # of connection points: 2
#     Edge 83, Type (0, 1), BuildingBlock: KIFKEQ_clean_linker_1, # of connection points: 2
#     Edge 84, Type (0, 1), BuildingBlock: KIFKEQ_clean_linker_1, # of connection points: 2
#     Edge 85, Type (0, 1), BuildingBlock: KIFKEQ_clean_linker_1, # of connection points: 2
#     Edge 86, Type (0, 1), BuildingBlock: KIFKEQ_clean_linker_1, # of connection points: 2
#     Edge 87, Type (0, 1), BuildingBlock: KIFKEQ_clean_linker_1, # of connection points: 2
#     Edge 88, Type (0, 1), BuildingBlock: KIFKEQ_clean_linker_1, # of connection points: 2
#     Edge 89, Type (0, 1), BuildingBlock: KIFKEQ_clean_linker_1, # of connection points: 2
#     Edge 90, Type (0, 1), BuildingBlock: KIFKEQ_clean_linker_1, # of connection points: 2
#     Edge 91, Type (0, 1), BuildingBlock: KIFKEQ_clean_linker_1, # of connection points: 2
#     Edge 92, Type (0, 1), BuildingBlock: KIFKEQ_clean_linker_1, # of connection points: 2
#     Edge 93, Type (0, 1), BuildingBlock: KIFKEQ_clean_linker_1, # of connection points: 2
#     Edge 94, Type (0, 1), BuildingBlock: KIFKEQ_clean_linker_1, # of connection points: 2
#     Edge 95, Type (0, 1), BuildingBlock: KIFKEQ_clean_linker_1, # of connection points: 2
#     Edge 96, Type (0, 1), BuildingBlock: KIFKEQ_clean_linker_1, # of connection points: 2
#     Edge 97, Type (0, 1), BuildingBlock: KIFKEQ_clean_linker_1, # of connection points: 2
#     Edge 98, Type (0, 1), BuildingBlock: KIFKEQ_clean_linker_1, # of connection points: 2
#     Edge 99, Type (0, 1), BuildingBlock: KIFKEQ_clean_linker_1, # of connection points: 2
#     Edge 100, Type (0, 1), BuildingBlock: KIFKEQ_clean_linker_1, # of connection points: 2
#     Edge 101, Type (0, 1), BuildingBlock: KIFKEQ_clean_linker_1, # of connection points: 2
# Relax obj value: 0.091
# Max RMSD: 0.173
# Mean RMSD: 0.130
data_MOF--net-llk--node1-QEWDON_clean_sbu_0--node2-PAMTOO_clean_linker_0--edge1-KIFKEQ_clean_linker_1
_symmetry_space_group_name_H-M    P1
_symmetry_Int_Tables_number       1
_symmetry_cell_setting            triclinic
loop_
_symmetry_equiv_pos_as_xyz
'x, y, z'
_cell_length_a     45.984314
_cell_length_b     49.351651
_cell_length_c     47.77014
_cell_angle_alpha  89.913334
_cell_angle_beta   89.94406
_cell_angle_gamma 89.663655
loop_
_atom_site_label
_atom_site_type_symbol
_atom_site_fract_x
_atom_site_fract_y
_atom_site_fract_z
_atom_type_partial_charge
H0 H 0.04203 0.34483 0.26641 0.0
H1 H 0.04816 0.27466 0.31965 0.0
H2 H 0.04502 0.26515 0.23028 0.0
H3 H 0.01826 0.21354 0.26302 0.0
C4 C 0.02381 0.22337 0.28323 0.0
O5 O 0.04795 0.23952 0.27905 0.0
H6 H 0.00462 0.23572 0.28979 0.0
C7 C 0.04368 0.32306 0.26913 0.0
C8 C 0.04398 0.3065 0.2453 0.0
C9 C 0.04498 0.31194 0.29615 0.0
C10 C 0.0465 0.28365 0.29906 0.0
C11 C 0.04614 0.26674 0.27551 0.0
C12 C 0.04479 0.27818 0.24851 0.0
H13 H 0.75598 0.03427 0.29931 0.0
H14 H 0.71259 0.03393 0.21943 0.0
H15 H 0.80496 0.04661 0.2239 0.0
H16 H 0.77468 0.07401 0.16525 0.0
C17 C 0.75512 0.06862 0.1777 0.0
O18 O 0.75991 0.04395 0.19058 0.0
H19 H 0.75174 0.08522 0.19321 0.0
C20 C 0.75661 0.03566 0.27664 0.0
C21 C 0.78319 0.04044 0.2634 0.0
C22 C 0.73096 0.03295 0.26112 0.0
C23 C 0.73216 0.03572 0.23188 0.0
C24 C 0.75884 0.04081 0.21858 0.0
C25 C 0.78442 0.04284 0.2343 0.0
H26 H 0.034 0.76193 0.34418 0.0
H27 H 0.03913 0.7109 0.27144 0.0
H28 H 0.02833 0.79699 0.2617 0.0
H29 H -0.00127 0.7631 0.21113 0.0
C30 C 0.00653 0.74439 0.22179 0.0
O31 O 0.03242 0.75019 0.23524 0.0
H32 H 0.98948 0.73812 0.23704 0.0
C33 C 0.03471 0.75972 0.32159 0.0
C34 C 0.03154 0.78258 0.3044 0.0
C35 C 0.0378 0.73394 0.30979 0.0
C36 C 0.03762 0.73091 0.28065 0.0
C37 C 0.03412 0.75358 0.26329 0.0
C38 C 0.03137 0.7795 0.27515 0.0
H39 H 0.33406 1.00028 0.24715 0.0
H40 H 0.24938 0.99223 0.2845 0.0
H41 H 0.26044 0.97884 0.1964 0.0
H42 H 0.18711 0.991 0.21669 0.0
C43 C 0.20201 0.99843 0.23323 0.0
O44 O 0.22328 0.97899 0.23769 0.0
H45 H 0.21171 0.01768 0.22547 0.0
C46 C 0.31107 0.99596 0.24523 0.0
C47 C 0.2996 0.98942 0.21889 0.0
C48 C 0.29318 0.99725 0.26907 0.0
C49 C 0.2635 0.99136 0.26638 0.0
C50 C 0.2518 0.98492 0.24015 0.0
C51 C 0.26976 0.98403 0.2165 0.0
H52 H -0.00128 0.68403 0.75942 0.0
H53 H 0.99627 0.75675 0.70962 0.0
H54 H 0.0096 0.76181 0.79849 0.0
H55 H 0.9807 0.81969 0.76769 0.0
C56 C 0.98298 0.80757 0.74824 0.0
O57 O 0.00575 0.78944 0.75153 0.0
H58 H 0.9621 0.79672 0.74468 0.0
C59 C -0.00078 0.70597 0.75791 0.0
C60 C 0.00454 0.72136 0.78196 0.0
C61 C 0.99573 0.71856 0.73181 0.0
C62 C -0.00204 0.74681 0.7298 0.0
C63 C 0.00233 0.76239 0.7539 0.0
C64 C 0.00536 0.74972 0.78005 0.0
H65 H 0.34043 0.98761 0.78496 0.0
H66 H 0.26638 0.01101 0.73555 0.0
H67 H 0.25928 0.00629 0.82511 0.0
H68 H 0.18864 0.00973 0.78165 0.0
C69 C 0.20836 1.00232 0.77057 0.0
O70 O 0.23171 0.01793 0.7786 0.0
H71 H 0.2118 0.98078 0.77687 0.0
C72 C 0.31739 0.99218 0.78327 0.0
C73 C 0.30106 0.99521 0.80777 0.0
C74 C 0.3052 0.9979 0.75705 0.0
C75 C 0.27595 0.006 0.75558 0.0
C76 C 0.25918 0.00824 0.78003 0.0
C77 C 0.27175 1.00289 0.80617 0.0
H78 H 0.00706 0.27771 0.678 0.0
H79 H 0.02433 0.3282 0.74908 0.0
H80 H 0.0264 0.24157 0.75816 0.0
H81 H 0.01624 0.27118 0.81916 0.0
C82 C 0.0133 0.28932 0.80563 0.0
O83 O 0.03323 0.28807 0.78401 0.0
H84 H 0.99053 0.28868 0.79768 0.0
C85 C 0.01141 0.27959 0.70023 0.0
C86 C 0.01555 0.25628 0.71667 0.0
C87 C 0.01442 0.30543 0.71179 0.0
C88 C 0.02131 0.30823 0.74017 0.0
C89 C 0.02544 0.2852 0.75689 0.0
C90 C 0.02274 0.25925 0.74514 0.0
H91 H 0.79453 0.02134 0.7207 0.0
H92 H 0.7356 0.05078 0.78369 0.0
H93 H 0.8269 0.04327 0.80198 0.0
H94 H 0.78369 0.04406 0.86244 0.0
C95 C 0.76969 0.03841 0.84446 0.0
O96 O 0.7754 0.05579 0.8225 0.0
H97 H 0.7756 0.01708 0.83912 0.0
C98 C 0.79053 0.02771 0.74211 0.0
C99 C 0.81397 0.03075 0.76049 0.0
C100 C 0.76239 0.03525 0.7501 0.0
C101 C 0.75731 0.04475 0.7773 0.0
C102 C 0.78046 0.04686 0.79623 0.0
C103 C 0.80892 0.04048 0.78765 0.0
H104 H 0.24333 0.33912 0.02365 0.0
H105 H 0.29349 0.26634 0.0092 0.0
H106 H 0.20026 0.26337 0.00952 0.0
H107 H 0.23872 0.19857 0.02205 0.0
C108 C 0.25422 0.21555 0.02461 0.0
O109 O 0.24828 0.23497 0.00452 0.0
H110 H 0.25099 0.22389 0.04608 0.0
C111 C 0.24462 0.31747 0.01994 0.0
C112 C 0.21881 0.30281 0.01697 0.0
C113 C 0.27186 0.30471 0.01698 0.0
C114 C 0.27285 0.27665 0.01207 0.0
C115 C 0.24708 0.26174 0.01012 0.0
C116 C 0.22009 0.27483 0.01227 0.0
H117 H 0.23145 0.70616 0.02989 0.0
H118 H 0.281 0.77929 0.02118 0.0
H119 H 0.18783 0.78359 0.02944 0.0
H120 H 0.21469 0.83975 0.00075 0.0
C121 C 0.23483 0.82722 0.00049 0.0
O122 O 0.23592 0.81195 0.02474 0.0
H123 H 0.23372 0.81401 0.98161 0.0
C124 C 0.23226 0.72811 0.02857 0.0
C125 C 0.20651 0.74328 0.03026 0.0
C126 C 0.25903 0.74088 0.025 0.0
C127 C 0.26025 0.7692 0.02341 0.0
C128 C 0.23456 0.78461 0.02505 0.0
C129 C 0.20762 0.77163 0.02818 0.0
H130 H 0.81712 0.33757 0.00518 0.0
H131 H 0.76317 0.26668 0.00904 0.0
H132 H 0.85608 0.25828 0.00172 0.0
H133 H 0.82167 0.20739 0.97427 0.0
C134 C 0.80116 0.2177 0.98063 0.0
O135 O 0.80639 0.23215 0.00487 0.0
H136 H 0.79436 0.23138 0.96321 0.0
C137 C 0.8148 0.3157 0.00538 0.0
C138 C 0.83964 0.29936 0.0032 0.0
C139 C 0.78713 0.30424 0.00772 0.0
C140 C 0.78441 0.27593 0.00737 0.0
C141 C 0.80924 0.25938 0.00508 0.0
C142 C 0.83693 0.2711 0.00325 0.0
H143 H 0.77943 0.69313 0.98536 0.0
H144 H 0.7342 0.76922 0.99397 0.0
H145 H 0.82749 0.76773 0.98834 0.0
H146 H 0.79703 0.82828 0.01665 0.0
C147 C 0.77826 0.8143 0.01522 0.0
O148 O 0.78123 0.79892 0.99122 0.0
H149 H 0.77854 0.80123 0.03428 0.0
C150 C 0.77987 0.71507 0.98655 0.0
C151 C 0.8066 0.72863 0.98617 0.0
C152 C 0.75378 0.72953 0.98991 0.0
C153 C 0.75431 0.75784 0.99179 0.0
C154 C 0.78089 0.77157 0.99098 0.0
C155 C 0.80702 0.75697 0.98872 0.0
H156 H 0.5318 0.84492 0.74509 0.0
H157 H 0.53873 0.77641 0.80083 0.0
H158 H 0.53961 0.76444 0.71183 0.0
H159 H 0.51297 0.71319 0.74326 0.0
C160 C 0.51601 0.72396 0.76346 0.0
O161 O 0.54029 0.74025 0.76112 0.0
H162 H 0.49605 0.73627 0.76748 0.0
C163 C 0.53395 0.82331 0.74869 0.0
C164 C 0.5358 0.80603 0.72553 0.0
C165 C 0.53526 0.81308 0.77612 0.0
C166 C 0.53739 0.78487 0.77997 0.0
C167 C 0.53839 0.76733 0.75691 0.0
C168 C 0.538 0.77795 0.72962 0.0
H169 H 0.29628 0.54379 0.81442 0.0
H170 H 0.25839 0.52863 0.73385 0.0
H171 H 0.35115 0.53203 0.74196 0.0
H172 H 0.32486 0.53836 0.67145 0.0
C173 C 0.30637 0.54185 0.68601 0.0
O174 O 0.30823 0.52338 0.70767 0.0
H175 H 0.30836 0.56304 0.69382 0.0
C176 C 0.29902 0.54078 0.79209 0.0
C177 C 0.32711 0.53856 0.78047 0.0
C178 C 0.27424 0.53752 0.77535 0.0
C179 C 0.2774 0.53192 0.74679 0.0
C180 C 0.30517 0.53021 0.73487 0.0
C181 C 0.32986 0.53378 0.75154 0.0
H182 H 0.48831 0.26363 0.83194 0.0
H183 H 0.49031 0.21256 0.75938 0.0
H184 H 0.48499 0.29909 0.74937 0.0
H185 H 0.45744 0.26491 0.69553 0.0
C186 C 0.46432 0.24622 0.70678 0.0
O187 O 0.48838 0.25203 0.72301 0.0
H188 H 0.44558 0.2398 0.71998 0.0
C189 C 0.4873 0.26155 0.80936 0.0
C190 C 0.48569 0.28473 0.79231 0.0
C191 C 0.48869 0.23562 0.79767 0.0
C192 C 0.48857 0.23257 0.76856 0.0
C193 C 0.48711 0.25538 0.75113 0.0
C194 C 0.48577 0.28151 0.76296 0.0
H195 H 0.80505 0.51718 0.77379 0.0
H196 H 0.72527 0.49415 0.81445 0.0
H197 H 0.73157 0.49278 0.72465 0.0
H198 H 0.65734 0.49399 0.75238 0.0
C199 C 0.67373 0.50206 0.76722 0.0
O200 O 0.69724 0.48451 0.7679 0.0
H201 H 0.68009 0.52232 0.75898 0.0
C202 C 0.78247 0.51103 0.77269 0.0
C203 C 0.77011 0.50599 0.74648 0.0
C204 C 0.76664 0.50677 0.79742 0.0
C205 C 0.73785 0.49763 0.79561 0.0
C206 C 0.72504 0.49314 0.7694 0.0
C207 C 0.7413 0.49693 0.74483 0.0
H208 H 0.50908 0.19978 0.26743 0.0
H209 H 0.50782 0.26657 0.20974 0.0
H210 H 0.51048 0.28175 0.29837 0.0
H211 H 0.47884 0.3311 0.26088 0.0
C212 C 0.48524 0.31997 0.2416 0.0
O213 O 0.50966 0.30441 0.24761 0.0
H214 H 0.46659 0.30695 0.23554 0.0
C215 C 0.50853 0.22146 0.26356 0.0
C216 C 0.50986 0.23943 0.28618 0.0
C217 C 0.50771 0.23109 0.23602 0.0
C218 C 0.50802 0.25906 0.23103 0.0
C219 C 0.50854 0.27745 0.25329 0.0
C220 C 0.50941 0.26763 0.28107 0.0
H221 H 0.80969 0.50915 0.27898 0.0
H222 H 0.74113 0.50836 0.21741 0.0
H223 H 0.72048 0.50541 0.30505 0.0
H224 H 0.67095 0.47548 0.26894 0.0
C225 C 0.68608 0.47853 0.25108 0.0
O226 O 0.69934 0.50345 0.25398 0.0
H227 H 0.70231 0.46167 0.25178 0.0
C228 C 0.78681 0.50886 0.27354 0.0
C229 C 0.76623 0.50773 0.2951 0.0
C230 C 0.77828 0.50966 0.24533 0.0
C231 C 0.74849 0.50795 0.23894 0.0
C232 C 0.72779 0.50601 0.26043 0.0
C233 C 0.73659 0.50657 0.28853 0.0
H234 H 0.54658 0.76746 0.1916 0.0
H235 H 0.55354 0.82226 0.26147 0.0
H236 H 0.55669 0.73622 0.27504 0.0
H237 H 0.53713 0.76731 0.33086 0.0
C238 C 0.53681 0.78571 0.31741 0.0
O239 O 0.55992 0.78432 0.29895 0.0
H240 H 0.51557 0.78565 0.30616 0.0
C241 C 0.54927 0.77108 0.21383 0.0
C242 C 0.55153 0.74886 0.23196 0.0
C243 C 0.54947 0.79773 0.22411 0.0
C244 C 0.55353 0.80193 0.25294 0.0
C245 C 0.55639 0.77984 0.27122 0.0
C246 C 0.55509 0.75326 0.26078 0.0
H247 H 0.31126 0.55691 0.1896 0.0
H248 H 0.255 0.54594 0.26087 0.0
H249 H 0.34716 0.5535 0.27253 0.0
H250 H 0.30205 0.52558 0.33189 0.0
C251 C 0.2883 0.52707 0.31286 0.0
O252 O 0.29657 0.54967 0.29778 0.0
H253 H 0.29188 0.50822 0.30046 0.0
C254 C 0.30807 0.55454 0.21196 0.0
C255 C 0.33227 0.55567 0.2297 0.0
C256 C 0.28004 0.55037 0.22272 0.0
C257 C 0.2764 0.54871 0.25189 0.0
C258 C 0.30055 0.54978 0.26977 0.0
C259 C 0.32857 0.55261 0.25864 0.0
H260 H 0.77001 0.85211 0.50185 0.0
H261 H 0.82637 0.78392 0.48437 0.0
H262 H 0.73393 0.77305 0.48927 0.0
H263 H 0.7657 0.71584 0.50061 0.0
C264 C 0.78493 0.72907 0.50338 0.0
O265 O 0.78472 0.74849 0.48244 0.0
H266 H 0.78266 0.73871 0.52438 0.0
C267 C 0.77326 0.83073 0.49762 0.0
C268 C 0.74886 0.81395 0.49623 0.0
C269 C 0.80143 0.8205 0.4927 0.0
C270 C 0.80501 0.79247 0.48827 0.0
C271 C 0.78083 0.7753 0.48752 0.0
C272 C 0.75266 0.78617 0.49085 0.0
H273 H 0.77524 0.18867 0.49055 0.0
H274 H 0.82571 0.26134 0.49451 0.0
H275 H 0.73342 0.26525 0.50806 0.0
H276 H 0.76035 0.32086 0.48031 0.0
C277 C 0.7822 0.31131 0.48232 0.0
O278 O 0.78183 0.29351 0.50469 0.0
H279 H 0.78677 0.30059 0.46226 0.0
C280 C 0.77622 0.21049 0.49295 0.0
C281 C 0.75082 0.22521 0.49938 0.0
C282 C 0.80321 0.22333 0.49097 0.0
C283 C 0.80491 0.25126 0.49566 0.0
C284 C 0.77977 0.2664 0.50129 0.0
C285 C 0.75273 0.2534 0.50342 0.0
H286 H 0.27196 0.85307 0.51536 0.0
H287 H 0.22057 0.78168 0.5297 0.0
H288 H 0.31387 0.77596 0.52853 0.0
H289 H 0.28439 0.71793 0.51235 0.0
C290 C 0.26445 0.7307 0.51128 0.0
O291 O 0.2649 0.74871 0.53348 0.0
H292 H 0.26493 0.74166 0.49085 0.0
C293 C 0.27048 0.83147 0.51932 0.0
C294 C 0.29611 0.81606 0.52148 0.0
C295 C 0.24309 0.81942 0.52251 0.0
C296 C 0.2415 0.79149 0.52786 0.0
C297 C 0.26692 0.77583 0.52979 0.0
C298 C 0.29428 0.78817 0.5271 0.0
H299 H 0.27104 0.18223 0.51655 0.0
H300 H 0.21157 0.25014 0.51835 0.0
H301 H 0.30252 0.26297 0.50334 0.0
H302 H 0.26854 0.31258 0.53725 0.0
C303 C 0.24737 0.30299 0.53222 0.0
O304 O 0.25117 0.28642 0.50918 0.0
H305 H 0.2402 0.29112 0.55082 0.0
C306 C 0.26661 0.20376 0.51473 0.0
C307 C 0.28972 0.2212 0.50878 0.0
C308 C 0.23821 0.21378 0.51849 0.0
C309 C 0.23333 0.24184 0.51636 0.0
C310 C 0.25649 0.25954 0.5114 0.0
C311 C 0.28476 0.24927 0.50772 0.0
Zn312 Zn 0.96187 0.99015 0.44945 0.0
Zn313 Zn 0.9639 0.05442 0.45857 0.0
O314 O 0.9897 0.02135 0.45515 0.0
H315 H 0.00909 0.0206 0.44743 0.0
C316 C 0.94948 0.9666 0.5158 0.0
O317 O 0.94426 0.99021 0.50405 0.0
Zn318 Zn 0.07063 0.05364 0.56321 0.0
Zn319 Zn 0.06383 0.98984 0.57319 0.0
O320 O 0.04091 0.02535 0.57163 0.0
H321 H 0.02396 0.02871 0.58312 0.0
Zn322 Zn 0.98353 0.9984 0.55776 0.0
O323 O 0.99414 0.03247 0.53611 0.0
Zn324 Zn 0.98033 0.06307 0.56028 0.0
H325 H 0.00556 0.03377 0.5192 0.0
Zn326 Zn 0.0541 0.99084 0.45286 0.0
O327 O 0.05551 0.02089 0.48152 0.0
H328 H 0.05057 0.01884 0.50105 0.0
Zn329 Zn 0.06176 0.05463 0.45913 0.0
C330 C 0.07737 0.94857 0.49145 0.0
O331 O 0.06947 0.96557 0.51123 0.0
O332 O 0.92533 0.00373 0.42925 0.0
O333 O 0.92594 0.04783 0.43897 0.0
O334 O 0.10694 0.99652 0.58239 0.0
O335 O 0.10922 0.04134 0.57883 0.0
O336 O 0.96508 0.00568 0.59651 0.0
O337 O 0.95626 0.0499 0.59287 0.0
C338 C 0.00826 0.08683 0.43599 0.0
O339 O 0.07028 1.00337 0.41456 0.0
O340 O 0.08386 0.04585 0.42362 0.0
O341 O 0.0476 0.96016 0.59977 0.0
C342 C 0.91441 0.02741 0.42713 0.0
O343 O 0.97838 0.95408 0.43339 0.0
C344 C 0.03498 0.0957 0.58887 0.0
O345 O 0.96576 0.96539 0.53723 0.0
C346 C 0.12078 0.01862 0.58524 0.0
O347 O 0.07194 0.95438 0.46603 0.0
C348 C 0.95265 0.0854 0.51101 0.0
O349 O 0.98084 0.08595 0.43748 0.0
O350 O 0.02249 0.06906 0.44954 0.0
C351 C 0.95386 0.02748 0.60596 0.0
O352 O 0.06075 0.08755 0.58422 0.0
O353 O 0.01384 0.08312 0.57784 0.0
C354 C 0.08379 0.0805 0.50899 0.0
O355 O 0.95719 0.08918 0.53695 0.0
O356 O 0.9617 0.06377 0.4995 0.0
C357 C 0.08312 0.02519 0.40762 0.0
O358 O 0.08247 0.08205 0.48245 0.0
O359 O 0.07195 0.06075 0.52162 0.0
C360 C 0.02572 0.94496 0.59619 0.0
O361 O 0.0104 0.94715 0.57313 0.0
C362 C 0.99543 0.95479 0.41243 0.0
O363 O 0.00358 0.97844 0.40258 0.0
Zn364 Zn 0.47583 0.07217 0.04097 0.0
Zn365 Zn 0.47728 0.07126 0.97338 0.0
O366 O 0.48685 0.04978 0.00747 0.0
H367 H 0.49265 0.031 0.00857 0.0
C368 C 0.53847 0.10149 0.07815 0.0
O369 O 0.52117 0.10193 0.05632 0.0
Zn370 Zn 0.55817 0.96685 0.97058 0.0
Zn371 Zn 0.55576 0.97227 0.03689 0.0
O372 O 0.54268 0.99044 0.00068 0.0
H373 H 0.53527 0.00866 0.99862 0.0
Zn374 Zn 0.57884 0.07596 0.03823 0.0
O375 O 0.55048 0.07333 0.00602 0.0
Zn376 Zn 0.57613 0.06691 0.97282 0.0
H377 H 0.53228 0.08315 0.00589 0.0
Zn378 Zn 0.46262 0.96258 0.03765 0.0
O379 O 0.49235 0.96154 0.00569 0.0
H380 H 0.48085 0.9615 0.02259 0.0
Zn381 Zn 0.46806 0.96918 0.97217 0.0
C382 C 0.49915 0.94522 0.08631 0.0
O383 O 0.51821 0.96224 0.07605 0.0
O384 O 0.45209 0.10608 0.03025 0.0
O385 O 0.45211 0.10404 0.98365 0.0
O386 O 0.58549 0.94092 0.03146 0.0
O387 O 0.59071 0.94336 0.98532 0.0
O388 O 0.61827 0.0911 0.02569 0.0
O389 O 0.61638 0.08314 0.97997 0.0
C390 C 0.45141 0.0227 0.94946 0.0
O391 O 0.42145 0.952 0.02394 0.0
O392 O 0.42878 0.95099 0.97781 0.0
O393 O 0.57134 0.99893 0.06619 0.0
C394 C 0.44397 0.11518 0.00653 0.0
O395 O 0.45704 0.04977 0.07236 0.0
C396 C 0.58318 0.01385 0.94263 0.0
O397 O 0.56361 0.09089 0.07589 0.0
C398 C 0.59844 0.93391 0.00901 0.0
O399 O 0.47461 0.94278 0.0744 0.0
C400 C 0.53233 0.09043 0.93748 0.0
O401 O 0.45376 0.04827 0.94755 0.0
O402 O 0.46539 0.0098 0.96815 0.0
C403 C 0.6297 0.09216 0.00144 0.0
O404 O 0.57681 0.98895 0.93959 0.0
O405 O 0.57406 0.02652 0.96413 0.0
C406 C 0.51169 0.94349 0.93605 0.0
O407 O 0.55962 0.08718 0.93996 0.0
O408 O 0.51607 0.07992 0.95601 0.0
C409 C 0.41282 0.94666 0.99923 0.0
O410 O 0.48635 0.95387 0.93701 0.0
O411 O 0.52617 0.94146 0.95856 0.0
C412 C 0.58925 0.01546 0.05551 0.0
O413 O 0.59292 0.01537 0.02822 0.0
C414 C 0.4365 0.03436 0.06468 0.0
O415 O 0.42974 0.03322 0.03799 0.0
Zn416 Zn 0.97173 0.48959 0.96236 0.0
Zn417 Zn 0.96492 0.55462 0.96559 0.0
O418 O 0.99434 0.52448 0.96534 0.0
H419 H 0.01265 0.52533 0.97512 0.0
C420 C 0.96026 0.45686 0.03181 0.0
O421 O 0.9461 0.4791 0.02493 0.0
Zn422 Zn 0.06878 0.55745 0.04842 0.0
Zn423 Zn 0.06035 0.49721 0.07316 0.0
O424 O 0.04316 0.52446 0.04609 0.0
H425 H 0.03583 0.51845 0.02824 0.0
Zn426 Zn 0.98523 0.49587 0.06843 0.0
O427 O 0.9849 0.5271 0.04087 0.0
Zn428 Zn 0.97617 0.55832 0.06592 0.0
H429 H 0.98211 0.52456 0.02104 0.0
Zn430 Zn 0.06875 0.49813 0.93949 0.0
O431 O 0.06901 0.52732 0.96903 0.0
H432 H 0.06412 0.52423 0.98839 0.0
Zn433 Zn 0.06569 0.56134 0.94692 0.0
C434 C 0.09073 0.45741 0.97779 0.0
O435 O 0.09658 0.47964 0.99173 0.0
O436 O 0.92952 0.49623 0.94972 0.0
O437 O 0.92578 0.54119 0.95166 0.0
O438 O 0.09564 0.51133 0.09377 0.0
O439 O 0.10603 0.54952 0.07088 0.0
O440 O 0.95613 0.50283 0.10056 0.0
O441 O 0.94497 0.54624 0.09293 0.0
C442 C 0.00538 0.58664 0.9344 0.0
O443 O 0.09028 0.51166 0.90421 0.0
O444 O 0.08862 0.55646 0.91055 0.0
O445 O 0.04366 0.45971 0.08582 0.0
C446 C 0.91492 0.518 0.94627 0.0
O447 O 0.99198 0.45596 0.94466 0.0
C448 C 0.0268 0.58969 0.08355 0.0
O449 O 0.98007 0.45821 0.05027 0.0
C450 C 0.11194 0.53166 0.08951 0.0
O451 O 0.07822 0.45934 0.95413 0.0
C452 C 0.95665 0.58934 0.01808 0.0
O453 O 0.97861 0.58495 0.9407 0.0
O454 O 0.02261 0.56836 0.94337 0.0
C455 C 0.94076 0.52382 0.10562 0.0
O456 O 0.04964 0.58879 0.06852 0.0
O457 O 0.01246 0.56808 0.08771 0.0
C458 C 0.08265 0.59096 0.99615 0.0
O459 O 0.96081 0.59067 0.04433 0.0
O460 O 0.96354 0.56761 0.00547 0.0
C461 C 0.0968 0.53566 0.89653 0.0
O462 O 0.08165 0.59213 0.96957 0.0
O463 O 0.0758 0.56897 0.00832 0.0
C464 C 0.03932 0.45879 0.11209 0.0
O465 O 0.04255 0.48122 0.12654 0.0
C466 C 0.00566 0.45839 0.92166 0.0
O467 O 0.00823 0.4826 0.91045 0.0
Zn468 Zn 0.47612 0.46826 0.98589 0.0
Zn469 Zn 0.47519 0.47674 0.05095 0.0
O470 O 0.48061 0.4974 0.01521 0.0
H471 H 0.47563 0.51611 0.01157 0.0
C472 C 0.52364 0.4305 0.9304 0.0
O473 O 0.50439 0.43476 0.95024 0.0
Zn474 Zn 0.5577 0.56246 0.05786 0.0
Zn475 Zn 0.54509 0.56055 0.9927 0.0
O476 O 0.53196 0.54429 0.03009 0.0
H477 H 0.52427 0.52632 0.0327 0.0
Zn478 Zn 0.56653 0.45366 0.97182 0.0
O479 O 0.54129 0.4576 0.00686 0.0
Zn480 Zn 0.56924 0.46019 0.03949 0.0
H481 H 0.52152 0.4512 0.00791 0.0
Zn482 Zn 0.47218 0.58524 0.98435 0.0
O483 O 0.50122 0.58824 0.01691 0.0
H484 H 0.51796 0.59997 0.01702 0.0
Zn485 Zn 0.47597 0.58082 0.05026 0.0
C486 C 0.5082 0.60768 0.93711 0.0
O487 O 0.52901 0.60862 0.95586 0.0
O488 O 0.45279 0.43565 0.0008 0.0
O489 O 0.44527 0.44707 0.04539 0.0
O490 O 0.57284 0.59311 0.99619 0.0
O491 O 0.58753 0.58706 0.03997 0.0
O492 O 0.60703 0.43909 0.98241 0.0
O493 O 0.60801 0.44359 0.0288 0.0
C494 C 0.46503 0.52841 0.08027 0.0
O495 O 0.43188 0.59963 0.99632 0.0
O496 O 0.43718 0.59914 0.04263 0.0
O497 O 0.55724 0.53613 0.95926 0.0
C498 C 0.44068 0.43159 0.02444 0.0
O499 O 0.46383 0.48091 0.94608 0.0
C500 C 0.58108 0.50887 0.07429 0.0
O501 O 0.54998 0.43708 0.93461 0.0
C502 C 0.58958 0.59904 0.01641 0.0
O503 O 0.4836 0.59811 0.94404 0.0
C504 C 0.52681 0.44324 0.07722 0.0
O505 O 0.46439 0.50264 0.08156 0.0
O506 O 0.47192 0.54023 0.05748 0.0
C507 C 0.61983 0.43605 0.00588 0.0
O508 O 0.5781 0.53388 0.07991 0.0
O509 O 0.57238 0.49959 0.05092 0.0
C510 C 0.51611 0.59926 0.09686 0.0
O511 O 0.55359 0.43919 0.07251 0.0
O512 O 0.51343 0.45944 0.06089 0.0
C513 C 0.42249 0.60503 0.02077 0.0
O514 O 0.49153 0.59907 0.08467 0.0
O515 O 0.53788 0.58639 0.08691 0.0
C516 C 0.5845 0.53193 0.95768 0.0
O517 O 0.60109 0.54033 0.97827 0.0
C518 C 0.46526 0.50515 0.93716 0.0
O519 O 0.47625 0.52399 0.95336 0.0
Zn520 Zn 0.95946 0.4891 0.46866 0.0
Zn521 Zn 0.95929 0.55437 0.46823 0.0
O522 O 0.98528 0.5219 0.47255 0.0
H523 H 0.00441 0.52163 0.4809 0.0
C524 C 0.92871 0.45722 0.52336 0.0
O525 O 0.91999 0.48223 0.51873 0.0
Zn526 Zn 0.07278 0.55929 0.55263 0.0
Zn527 Zn 0.06873 0.4949 0.54871 0.0
O528 O 0.04752 0.52987 0.53774 0.0
H529 H 0.02989 0.53186 0.52693 0.0
Zn530 Zn 0.96552 0.48756 0.56009 0.0
O531 O 0.96814 0.52225 0.53762 0.0
Zn532 Zn 0.96643 0.55291 0.56545 0.0
H533 H 0.95997 0.52248 0.51906 0.0
Zn534 Zn 0.07584 0.4958 0.45648 0.0
O535 O 0.07477 0.5271 0.48466 0.0
H536 H 0.08742 0.52736 0.50079 0.0
Zn537 Zn 0.06766 0.55984 0.46083 0.0
C538 C 0.10511 0.4553 0.49289 0.0
O539 O 0.10325 0.47496 0.51125 0.0
O540 O 0.91838 0.49907 0.45473 0.0
O541 O 0.92046 0.54396 0.45055 0.0
O542 O 0.10851 0.49962 0.56879 0.0
O543 O 0.10694 0.54433 0.57397 0.0
O544 O 0.9407 0.49579 0.59444 0.0
O545 O 0.94325 0.54059 0.59993 0.0
C546 C 0.00829 0.58138 0.44183 0.0
O547 O 0.09234 0.50888 0.41889 0.0
O548 O 0.08759 0.55356 0.42325 0.0
O549 O 0.04536 0.46201 0.56303 0.0
C550 C 0.90689 0.52161 0.4476 0.0
O551 O 0.97723 0.45488 0.44996 0.0
C552 C 0.02391 0.57957 0.58605 0.0
O553 O 0.95007 0.45326 0.53976 0.0
C554 C 0.11907 0.5215 0.57837 0.0
O555 O 0.09437 0.45885 0.46865 0.0
C556 C 0.94149 0.58778 0.5226 0.0
O557 O 0.98068 0.58023 0.4435 0.0
O558 O 0.02389 0.56666 0.4579 0.0
C559 C 0.93364 0.51738 0.60738 0.0
O560 O 0.05097 0.58082 0.58101 0.0
O561 O 0.00832 0.56379 0.57142 0.0
C562 C 0.09715 0.59821 0.50157 0.0
O563 O 0.94491 0.58502 0.54881 0.0
O564 O 0.95238 0.56974 0.50674 0.0
C565 C 0.09638 0.53278 0.40967 0.0
O566 O 0.08924 0.59162 0.477 0.0
O567 O 0.089 0.58442 0.52271 0.0
C568 C 0.02742 0.46446 0.58314 0.0
O569 O 0.02168 0.48877 0.59298 0.0
C570 C 0.00319 0.45374 0.44083 0.0
O571 O 0.02034 0.47466 0.4443 0.0
Zn572 Zn 0.47847 0.99865 0.45512 0.0
Zn573 Zn 0.46329 0.06279 0.46135 0.0
O574 O 0.49634 0.03579 0.45687 0.0
H575 H 0.5132 0.03806 0.44507 0.0
C576 C 0.44677 0.9588 0.5214 0.0
O577 O 0.43572 0.98258 0.5148 0.0
Zn578 Zn 0.57843 0.06491 0.55525 0.0
Zn579 Zn 0.58472 0.99963 0.56204 0.0
O580 O 0.55546 0.03029 0.55718 0.0
H581 H 0.53472 0.02781 0.55578 0.0
Zn582 Zn 0.48401 0.99377 0.55476 0.0
O583 O 0.48371 0.02888 0.53243 0.0
Zn584 Zn 0.47763 0.05908 0.5605 0.0
H585 H 0.49298 0.03059 0.51438 0.0
Zn586 Zn 0.56542 1.00187 0.46299 0.0
O587 O 0.55399 0.03697 0.48305 0.0
H588 H 0.54314 0.03766 0.50035 0.0
Zn589 Zn 0.55894 0.06856 0.45612 0.0
C590 C 0.58699 0.95022 0.49163 0.0
O591 O 0.55944 0.94464 0.4958 0.0
O592 O 0.43805 1.00326 0.43795 0.0
O593 O 0.42716 0.04723 0.44246 0.0
O594 O 0.62267 0.01453 0.5787 0.0
O595 O 0.61686 0.05927 0.57491 0.0
O596 O 0.46408 0.99974 0.59252 0.0
O597 O 0.45775 0.04443 0.59521 0.0
C598 C 0.50102 0.10323 0.43896 0.0
O599 O 0.57637 0.00981 0.42215 0.0
O600 O 0.5763 0.05493 0.41946 0.0
O601 O 0.57162 0.96492 0.58342 0.0
C602 C 0.42095 0.02332 0.43415 0.0
O603 O 0.50272 0.96856 0.43484 0.0
C604 C 0.53068 0.09463 0.57907 0.0
O605 O 0.46931 0.95791 0.53675 0.0
C606 C 0.63134 0.03861 0.58314 0.0
O607 O 0.59382 0.97269 0.48028 0.0
C608 C 0.44849 0.08914 0.51755 0.0
O609 O 0.47424 0.09805 0.44261 0.0
O610 O 0.51958 0.08615 0.44812 0.0
C611 C 0.45419 0.0206 0.60504 0.0
O612 O 0.5581 0.09489 0.57618 0.0
O613 O 0.51703 0.07476 0.56855 0.0
C614 C 0.59094 0.09494 0.5 0.0
O615 O 0.45297 0.0885 0.54375 0.0
O616 O 0.45867 0.07001 0.50258 0.0
C617 C 0.58097 0.03163 0.40859 0.0
O618 O 0.58515 0.0961 0.474 0.0
O619 O 0.58066 0.07554 0.51441 0.0
C620 C 0.55262 0.94715 0.57764 0.0
O621 O 0.53722 0.94945 0.55461 0.0
C622 C 0.50583 0.94479 0.44473 0.0
O623 O 0.49492 0.93927 0.46951 0.0
H624 H 0.23068 0.16324 0.49644 0.0
H625 H 0.19003 0.22128 0.55216 0.0
H626 H 0.19162 0.13164 0.50536 0.0
H627 H 0.14973 0.18972 0.55966 0.0
H628 H 0.07485 0.13463 0.50991 0.0
H629 H 0.11168 0.16865 0.52087 0.0
H630 H 0.16938 0.10535 0.54999 0.0
H631 H 0.13246 0.07146 0.53917 0.0
C632 C 0.21373 0.16917 0.51097 0.0
C633 C 0.21383 0.19478 0.52384 0.0
C634 C 0.19131 0.15101 0.51603 0.0
C635 C 0.16808 0.15814 0.53361 0.0
C636 C 0.16767 0.18376 0.54627 0.0
C637 C 0.19055 0.20185 0.54167 0.0
C638 C 0.0949 0.12826 0.51993 0.0
C639 C 0.10095 0.10064 0.52398 0.0
C640 C 0.11587 0.14764 0.52623 0.0
C641 C 0.14331 0.13946 0.53602 0.0
C642 C 0.14828 0.11204 0.54251 0.0
C643 C 0.12713 0.09272 0.5366 0.0
H644 H 0.81189 0.18623 0.44949 0.0
H645 H 0.8537 0.22345 0.52039 0.0
H646 H 0.85305 0.15508 0.44429 0.0
H647 H 0.89418 0.19195 0.5161 0.0
H648 H 0.96723 0.1381 0.50646 0.0
H649 H 0.93498 0.17509 0.49236 0.0
H650 H 0.86956 0.11663 0.46907 0.0
H651 H 0.90267 0.07991 0.48175 0.0
C652 C 0.83009 0.18786 0.46376 0.0
C653 C 0.82965 0.20704 0.48546 0.0
C654 C 0.8536 0.17002 0.46086 0.0
C655 C 0.87694 0.1708 0.47984 0.0
C656 C 0.87697 0.19098 0.50069 0.0
C657 C 0.85367 0.209 0.50334 0.0
C658 C 0.94635 0.13333 0.49725 0.0
C659 C 0.93719 0.10639 0.4952 0.0
C660 C 0.92774 0.15444 0.48947 0.0
C661 C 0.89931 0.14892 0.48037 0.0
C662 C 0.89129 0.12174 0.47588 0.0
C663 C 0.91022 0.10062 0.4831 0.0
H664 H 0.80215 0.87211 0.4715 0.0
H665 H 0.85807 0.81191 0.50981 0.0
H666 H 0.84084 0.90484 0.47362 0.0
H667 H 0.89798 0.84405 0.50932 0.0
H668 H 0.94549 0.91855 0.54361 0.0
H669 H 0.91282 0.88149 0.5341 0.0
H670 H 0.88465 0.92148 0.45805 0.0
H671 H 0.91629 0.95955 0.46869 0.0
C672 C 0.82278 0.86573 0.48028 0.0
C673 C 0.82656 0.83946 0.49127 0.0
C674 C 0.84536 0.88446 0.48088 0.0
C675 C 0.87273 0.87735 0.49184 0.0
C676 C 0.87706 0.85057 0.50132 0.0
C677 C 0.85421 0.83193 0.50125 0.0
C678 C 0.93257 0.91935 0.52467 0.0
C679 C 0.93312 0.94225 0.50716 0.0
C680 C 0.9139 0.89786 0.51904 0.0
C681 C 0.89561 0.89843 0.49545 0.0
C682 C 0.89772 0.92057 0.47686 0.0
C683 C 0.91607 0.94235 0.4828 0.0
H684 H 0.19399 0.81987 0.5553 0.0
H685 H 0.23189 0.85644 0.48171 0.0
H686 H 0.15032 0.8482 0.54927 0.0
H687 H 0.18885 0.88475 0.476 0.0
H688 H 0.09897 0.91121 0.45493 0.0
H689 H 0.13656 0.87744 0.46371 0.0
H690 H 0.13734 0.89914 0.55122 0.0
H691 H 0.09939 0.93313 0.54254 0.0
C692 C 0.19291 0.83383 0.53781 0.0
C693 C 0.21633 0.836 0.51899 0.0
C694 C 0.16808 0.85012 0.53449 0.0
C695 C 0.16615 0.8685 0.51206 0.0
C696 C 0.18954 0.87049 0.49326 0.0
C697 C 0.21432 0.85447 0.49669 0.0
C698 C 0.10677 0.90858 0.47616 0.0
C699 C 0.09651 0.92518 0.49795 0.0
C700 C 0.12839 0.88928 0.48114 0.0
C701 C 0.14019 0.88601 0.50803 0.0
C702 C 0.12862 0.90126 0.53028 0.0
C703 C 0.10696 0.92076 0.52527 0.0
H704 H 0.54607 0.23065 0.193 0.0
H705 H 0.47211 0.18792 0.22656 0.0
H706 H 0.5509 0.19664 0.15612 0.0
H707 H 0.47672 0.15395 0.18915 0.0
H708 H 0.48615 0.12524 0.09111 0.0
H709 H 0.47586 0.15567 0.13049 0.0
H710 H 0.56284 0.14272 0.16173 0.0
H711 H 0.57316 0.11214 0.12294 0.0
C712 C 0.53062 0.21418 0.19217 0.0
C713 C 0.50876 0.21178 0.2125 0.0
C714 C 0.5335 0.19469 0.17128 0.0
C715 C 0.5143 0.17273 0.17011 0.0
C716 C 0.49174 0.17077 0.18978 0.0
C717 C 0.48918 0.19006 0.21108 0.0
C718 C 0.5029 0.12854 0.10665 0.0
C719 C 0.53061 0.11661 0.10373 0.0
C720 C 0.49695 0.14584 0.12913 0.0
C721 C 0.51874 0.15165 0.14872 0.0
C722 C 0.54586 0.13869 0.1466 0.0
C723 C 0.55169 0.12117 0.12444 0.0
H724 H 0.77927 0.48634 0.19286 0.0
H725 H 0.82839 0.53931 0.24709 0.0
H726 H 0.8179 0.48954 0.15758 0.0
H727 H 0.8673 0.54081 0.21259 0.0
H728 H 0.93927 0.49497 0.15414 0.0
H729 H 0.89833 0.49111 0.18692 0.0
H730 H 0.84614 0.54239 0.13349 0.0
H731 H 0.88733 0.54713 0.10115 0.0
C732 C 0.79807 0.49872 0.19727 0.0
C733 C 0.80077 0.5123 0.22305 0.0
C734 C 0.82019 0.50032 0.17719 0.0
C735 C 0.84543 0.51515 0.18278 0.0
C736 C 0.84806 0.529 0.20815 0.0
C737 C 0.82583 0.5279 0.22792 0.0
C738 C 0.91906 0.50543 0.14948 0.0
C739 C 0.91642 0.5216 0.12542 0.0
C740 C 0.89575 0.50313 0.16808 0.0
C741 C 0.86931 0.51633 0.16238 0.0
C742 C 0.86641 0.53199 0.13806 0.0
C743 C 0.88995 0.53487 0.11982 0.0
H744 H 0.50998 0.79949 0.1817 0.0
H745 H 0.57483 0.84816 0.22311 0.0
H746 H 0.49943 0.83652 0.15 0.0
H747 H 0.56297 0.88614 0.19202 0.0
H748 H 0.55326 0.93531 0.10833 0.0
H749 H 0.56643 0.9008 0.14294 0.0
H750 H 0.47579 0.87977 0.15184 0.0
H751 H 0.46279 0.9135 0.11688 0.0
C752 C 0.52212 0.81809 0.184 0.0
C753 C 0.54339 0.82077 0.20489 0.0
C754 C 0.5157 0.83954 0.16605 0.0
C755 C 0.53005 0.86444 0.16871 0.0
C756 C 0.55157 0.86718 0.18941 0.0
C757 C 0.55815 0.84554 0.20738 0.0
C758 C 0.53615 0.92349 0.11794 0.0
C759 C 0.50701 0.92688 0.10964 0.0
C760 C 0.54369 0.90379 0.13782 0.0
C761 C 0.5222 0.88725 0.1498 0.0
C762 C 0.49296 0.89169 0.14248 0.0
C763 C 0.48547 0.91116 0.12255 0.0
H764 H 0.27893 0.52512 0.1717 0.0
H765 H 0.22406 0.56919 0.22975 0.0
H766 H 0.23859 0.52249 0.13879 0.0
H767 H 0.18337 0.56513 0.19719 0.0
H768 H 0.11505 0.51635 0.14372 0.0
H769 H 0.15557 0.5218 0.17604 0.0
H770 H 0.2057 0.56012 0.11079 0.0
H771 H 0.16456 0.55534 0.07829 0.0
C772 C 0.25841 0.53446 0.1774 0.0
C773 C 0.25493 0.54771 0.20331 0.0
C774 C 0.23534 0.53282 0.15856 0.0
C775 C 0.20814 0.54387 0.16544 0.0
C776 C 0.20428 0.55651 0.19149 0.0
C777 C 0.22751 0.55862 0.21018 0.0
C778 C 0.13471 0.52596 0.13622 0.0
C779 C 0.13681 0.53533 0.10848 0.0
C780 C 0.15775 0.52921 0.15478 0.0
C781 C 0.18357 0.54137 0.14582 0.0
C782 C 0.18589 0.55064 0.11805 0.0
C783 C 0.16246 0.54798 0.09957 0.0
H784 H 0.50985 0.80557 0.82776 0.0
H785 H 0.55968 0.86363 0.77986 0.0
H786 H 0.50765 0.83759 0.86671 0.0
H787 H 0.55558 0.89597 0.8182 0.0
H788 H 0.49383 0.94884 0.88194 0.0
H789 H 0.50217 0.91705 0.8433 0.0
H790 H 0.55308 0.86581 0.89788 0.0
H791 H 0.54566 0.89785 0.93634 0.0
C792 C 0.52051 0.82495 0.8255 0.0
C793 C 0.53469 0.832 0.80041 0.0
C794 C 0.51906 0.84329 0.84776 0.0
C795 C 0.53128 0.86914 0.84516 0.0
C796 C 0.54577 0.87618 0.82044 0.0
C797 C 0.54781 0.85769 0.79844 0.0
C798 C 0.50715 0.931 0.88555 0.0
C799 C 0.51909 0.92583 0.91211 0.0
C800 C 0.51188 0.91289 0.86352 0.0
C801 C 0.52808 0.88908 0.86789 0.0
C802 C 0.54043 0.88406 0.89421 0.0
C803 C 0.53629 0.90247 0.91607 0.0
H804 H 0.24066 0.58174 0.78607 0.0
H805 H 0.24311 0.49482 0.79408 0.0
H806 H 0.1939 0.58312 0.81057 0.0
H807 H 0.19718 0.49588 0.81971 0.0
H808 H 0.10697 0.50109 0.85291 0.0
H809 H 0.14685 0.50282 0.81931 0.0
H810 H 0.17548 0.57823 0.85584 0.0
H811 H 0.13478 0.5771 0.88825 0.0
C812 C 0.23095 0.56295 0.79304 0.0
C813 C 0.24516 0.53819 0.78831 0.0
C814 C 0.20434 0.56367 0.80726 0.0
C815 C 0.19164 0.53963 0.81736 0.0
C816 C 0.20585 0.51479 0.81192 0.0
C817 C 0.23228 0.5141 0.79744 0.0
C818 C 0.12145 0.51833 0.85328 0.0
C819 C 0.11773 0.53895 0.87322 0.0
C820 C 0.14453 0.5192 0.83421 0.0
C821 C 0.1648 0.54047 0.83499 0.0
C822 C 0.16021 0.5617 0.8542 0.0
C823 C 0.13682 0.56106 0.87291 0.0
H824 H 0.4492 0.19662 0.81112 0.0
H825 H 0.5372 0.22248 0.82616 0.0
H826 H 0.45627 0.15843 0.84377 0.0
H827 H 0.54447 0.18459 0.85838 0.0
H828 H 0.56004 0.10092 0.88888 0.0
H829 H 0.54693 0.13398 0.85337 0.0
H830 H 0.46667 0.1511 0.89703 0.0
H831 H 0.47979 0.11742 0.93295 0.0
C832 C 0.47006 0.19388 0.82129 0.0
C833 C 0.49281 0.21205 0.81614 0.0
C834 C 0.47404 0.17229 0.84001 0.0
C835 C 0.50097 0.16845 0.85338 0.0
C836 C 0.52362 0.18681 0.84806 0.0
C837 C 0.51951 0.20846 0.82973 0.0
C838 C 0.53937 0.1114 0.8908 0.0
C839 C 0.52113 0.10689 0.91395 0.0
C840 C 0.53193 0.1304 0.87047 0.0
C841 C 0.50609 0.14546 0.87276 0.0
C842 C 0.48676 0.13973 0.89483 0.0
C843 C 0.49423 0.12051 0.91534 0.0
H844 H 0.76525 0.47365 0.84349 0.0
H845 H 0.80127 0.5487 0.81287 0.0
H846 H 0.79503 0.47722 0.8857 0.0
H847 H 0.83176 0.55172 0.85418 0.0
H848 H 0.87712 0.55964 0.93458 0.0
H849 H 0.83489 0.55813 0.90386 0.0
H850 H 0.84643 0.47165 0.89454 0.0
H851 H 0.88795 0.47296 0.92582 0.0
C852 C 0.7791 0.49116 0.84604 0.0
C853 C 0.78114 0.51078 0.82479 0.0
C854 C 0.79636 0.49307 0.87006 0.0
C855 C 0.81591 0.51467 0.87328 0.0
C856 C 0.81671 0.53499 0.85264 0.0
C857 C 0.79948 0.5331 0.82876 0.0
C858 C 0.87025 0.54021 0.9265 0.0
C859 C 0.88624 0.5165 0.9323 0.0
C860 C 0.84613 0.53937 0.90876 0.0
C861 C 0.83756 0.51485 0.89636 0.0
C862 C 0.85226 0.49086 0.90384 0.0
C863 C 0.87626 0.49166 0.92168 0.0
H864 H 0.72164 0.72351 0.03699 0.0
H865 H 0.72524 0.70139 0.94979 0.0
H866 H 0.67962 0.69388 0.04368 0.0
H867 H 0.68324 0.67174 0.95621 0.0
H868 H 0.59393 0.63576 0.97365 0.0
H869 H 0.63099 0.67044 0.96725 0.0
H870 H 0.67283 0.64456 0.04377 0.0
H871 H 0.63557 0.61031 0.0505 0.0
C872 C 0.71297 0.71263 0.0192 0.0
C873 C 0.72634 0.71461 0.9929 0.0
C874 C 0.68918 0.69554 0.02301 0.0
C875 C 0.67825 0.68034 0.0005 0.0
C876 C 0.69101 0.68331 0.97391 0.0
C877 C 0.71503 0.70015 0.9702 0.0
C878 C 0.61102 0.6375 0.98913 0.0
C879 C 0.61184 0.62024 0.01257 0.0
C880 C 0.63226 0.65734 0.98543 0.0
C881 C 0.65478 0.66028 0.00503 0.0
C882 C 0.65546 0.64314 0.02855 0.0
C883 C 0.63419 0.62339 0.03231 0.0
H884 H 0.29034 0.72347 0.06914 0.0
H885 H 0.28519 0.71911 0.97924 0.0
H886 H 0.3285 0.68905 0.06921 0.0
H887 H 0.32454 0.68551 0.97872 0.0
H888 H 0.37405 0.60657 0.98761 0.0
H889 H 0.33483 0.64017 0.98889 0.0
H890 H 0.37631 0.67903 0.0594 0.0
H891 H 0.41394 0.64442 0.0592 0.0
C892 C 0.29814 0.71557 0.04934 0.0
C893 C 0.28543 0.72403 0.02419 0.0
C894 C 0.32 0.69585 0.04927 0.0
C895 C 0.3297 0.68428 0.02396 0.0
C896 C 0.31734 0.69351 0.99866 0.0
C897 C 0.29522 0.71307 0.99882 0.0
C898 C 0.37426 0.62201 0.0037 0.0
C899 C 0.39675 0.62274 0.02351 0.0
C900 C 0.35208 0.64153 0.00422 0.0
C901 C 0.35242 0.66261 0.0241 0.0
C902 C 0.37483 0.66292 0.04412 0.0
C903 C 0.39649 0.64302 0.04405 0.0
H904 H 0.28081 0.35504 0.99472 0.0
H905 H 0.32447 0.2912 0.04081 0.0
H906 H 0.32382 0.38337 0.99908 0.0
H907 H 0.36809 0.3195 0.04388 0.0
H908 H 0.43985 0.38397 0.99563 0.0
H909 H 0.40064 0.35045 0.99478 0.0
H910 H 0.35298 0.39718 0.05587 0.0
H911 H 0.39238 0.43036 0.05743 0.0
C912 C 0.29948 0.34705 0.00587 0.0
C913 C 0.29893 0.32101 0.01793 0.0
C914 C 0.32411 0.36321 0.00813 0.0
C915 C 0.34887 0.35354 0.02202 0.0
C916 C 0.34903 0.32724 0.03314 0.0
C917 C 0.32417 0.3111 0.03124 0.0
C918 C 0.42124 0.38678 0.00927 0.0
C919 C 0.41908 0.40972 0.02661 0.0
C920 C 0.39898 0.36762 0.00881 0.0
C921 C 0.37408 0.37144 0.02528 0.0
C922 C 0.37221 0.3939 0.04317 0.0
C923 C 0.39472 0.41275 0.0441 0.0
H924 H 0.73632 0.30196 0.9782 0.0
H925 H 0.78052 0.34763 0.04221 0.0
H926 H 0.69663 0.33521 0.97845 0.0
H927 H 0.74141 0.38117 0.04196 0.0
H928 H 0.65044 0.41993 0.05216 0.0
H929 H 0.69021 0.38717 0.0539 0.0
H930 H 0.69046 0.38276 0.96359 0.0
H931 H 0.6504 0.41515 0.96174 0.0
C932 C 0.73733 0.31892 0.99254 0.0
C933 C 0.76149 0.32235 0.01006 0.0
C934 C 0.71487 0.33812 0.99243 0.0
C935 C 0.71613 0.36098 0.00997 0.0
C936 C 0.73978 0.36377 0.02826 0.0
C937 C 0.76222 0.34466 0.0283 0.0
C938 C 0.65923 0.4123 0.03264 0.0
C939 C 0.64705 0.42 0.00682 0.0
C940 C 0.682 0.39349 0.03366 0.0
C941 C 0.69309 0.38205 0.00889 0.0
C942 C 0.68186 0.39074 0.98304 0.0
C943 C 0.65913 0.40954 0.982 0.0
H944 H 0.95454 0.68032 0.72176 0.0
H945 H 0.03023 0.71829 0.68581 0.0
H946 H 0.95516 0.64633 0.6842 0.0
H947 H 0.03108 0.68418 0.64869 0.0
H948 H 0.0515 0.59313 0.63324 0.0
H949 H 0.03909 0.62936 0.66555 0.0
H950 H 0.95834 0.64309 0.62175 0.0
H951 H 0.97113 0.60669 0.58861 0.0
C952 C 0.97079 0.68173 0.70539 0.0
C953 C 0.99244 0.70169 0.70658 0.0
C954 C 0.97102 0.66248 0.68395 0.0
C955 C 0.99317 0.66279 0.66381 0.0
C956 C 0.01371 0.68375 0.66403 0.0
C957 C 0.01322 0.7032 0.68516 0.0
C958 C 0.03086 0.60355 0.63065 0.0
C959 C 0.01231 0.59724 0.60828 0.0
C960 C 0.02389 0.62433 0.64905 0.0
C961 C -0.00187 0.63918 0.64563 0.0
C962 C 0.97844 0.63185 0.62453 0.0
C963 C 0.98558 0.61093 0.6058 0.0
H964 H 0.34755 0.96157 0.74266 0.0
H965 H 0.30675 0.03626 0.71568 0.0
H966 H 0.38499 0.96712 0.70722 0.0
H967 H 0.34324 0.04099 0.67901 0.0
H968 H 0.43107 0.05906 0.6401 0.0
H969 H 0.39392 0.05229 0.67588 0.0
H970 H 0.39469 0.96628 0.65876 0.0
H971 H 0.43242 0.97282 0.62408 0.0
C972 C 0.34631 0.97893 0.72879 0.0
C973 C 0.32438 0.9986 0.73214 0.0
C974 C 0.36766 0.98204 0.70835 0.0
C975 C 0.36735 0.00472 0.69053 0.0
C976 C 0.34448 0.02362 0.69286 0.0
C977 C 0.32324 0.02064 0.71351 0.0
C978 C 0.4236 0.03868 0.64432 0.0
C979 C 0.4347 0.01651 0.62923 0.0
C980 C 0.40206 0.03483 0.66455 0.0
C981 C 0.39104 0.00878 0.6699 0.0
C982 C 0.40283 0.98657 0.65538 0.0
C983 C 0.42452 0.99036 0.63544 0.0
H984 H 0.05763 0.32343 0.67888 0.0
H985 H 0.9688 0.3398 0.70259 0.0
H986 H 0.05611 0.36103 0.64566 0.0
H987 H 0.96677 0.37738 0.66874 0.0
H988 H 0.99423 0.462 0.63076 0.0
H989 H 0.98795 0.42278 0.66133 0.0
H990 H 0.03313 0.37252 0.60123 0.0
H991 H 0.03991 0.41164 0.57097 0.0
C992 C 0.0378 0.33526 0.67688 0.0
C993 C 0.01342 0.32914 0.69321 0.0
C994 C 0.03675 0.35653 0.65769 0.0
C995 C 0.01118 0.37197 0.65432 0.0
C996 C 0.98679 0.36592 0.67097 0.0
C997 C 0.98791 0.34456 0.69029 0.0
C998 C 0.00238 0.44248 0.62385 0.0
C999 C 0.01813 0.44006 0.59872 0.0
C1000 C -0.00132 0.41999 0.64134 0.0
C1001 C 0.01065 0.39472 0.63397 0.0
C1002 C 0.02433 0.39191 0.60781 0.0
C1003 C 0.02802 0.41431 0.59037 0.0
H1004 H 0.7343 0.07964 0.73058 0.0
H1005 H 0.74135 0.99316 0.71992 0.0
H1006 H 0.7054 0.08295 0.68803 0.0
H1007 H 0.71074 0.99581 0.67835 0.0
H1008 H 0.68038 0.00805 0.59086 0.0
H1009 H 0.71194 0.00841 0.63187 0.0
H1010 H 0.66223 0.07557 0.66575 0.0
H1011 H 0.6326 0.0764 0.62388 0.0
C1012 C 0.72867 0.06124 0.71955 0.0
C1013 C 0.73967 0.03615 0.72846 0.0
C1014 C 0.71219 0.06305 0.69508 0.0
C1015 C 0.70594 0.03969 0.67932 0.0
C1016 C 0.71579 0.01437 0.68931 0.0
C1017 C 0.73281 0.01269 0.71342 0.0
C1018 C 0.67699 0.02339 0.60674 0.0
C1019 C 0.65435 0.04236 0.60411 0.0
C1020 C 0.69464 0.02332 0.63054 0.0
C1021 C 0.68934 0.04165 0.65261 0.0
C1022 C 0.66738 0.06135 0.64922 0.0
C1023 C 0.65037 0.06192 0.62509 0.0
H1024 H 0.01706 0.30326 0.34614 0.0
H1025 H 0.07056 0.36162 0.30282 0.0
H1026 H 0.01149 0.33461 0.385 0.0
H1027 H 0.06309 0.39373 0.34061 0.0
H1028 H 0.05722 0.4439 0.41852 0.0
H1029 H 0.07145 0.40698 0.38736 0.0
H1030 H 0.98455 0.37435 0.39292 0.0
H1031 H 0.97084 0.41037 0.42477 0.0
C1032 C 0.02788 0.32265 0.34497 0.0
C1033 C 0.0439 0.33 0.32108 0.0
C1034 C 0.02433 0.34083 0.36713 0.0
C1035 C 0.03639 0.36695 0.36582 0.0
C1036 C 0.05357 0.3738 0.34252 0.0
C1037 C 0.05745 0.35549 0.32055 0.0
C1038 C 0.04132 0.42858 0.41338 0.0
C1039 C 0.01284 0.43018 0.42399 0.0
C1040 C 0.04941 0.4075 0.39536 0.0
C1041 C 0.02913 0.38768 0.38741 0.0
C1042 C 0.00095 0.3889 0.39884 0.0
C1043 C 0.99297 0.40978 0.41699 0.0
H1044 H 0.72166 0.99726 0.30352 0.0
H1045 H 0.67812 0.05782 0.25314 0.0
H1046 H 0.67987 0.99515 0.33443 0.0
H1047 H 0.63539 0.05492 0.28367 0.0
H1048 H 0.59545 0.073 0.37296 0.0
H1049 H 0.6267 0.07008 0.33186 0.0
H1050 H 0.62949 0.9829 0.34008 0.0
H1051 H 0.59879 0.98576 0.3814 0.0
C1052 C 0.70282 0.00972 0.29873 0.0
C1053 C 0.7033 0.02802 0.27618 0.0
C1054 C 0.6787 0.0083 0.31629 0.0
C1055 C 0.65431 0.02497 0.31158 0.0
C1056 C 0.65402 0.04206 0.28798 0.0
C1057 C 0.67831 0.04352 0.27036 0.0
C1058 C 0.6023 0.05318 0.36571 0.0
C1059 C 0.59509 0.02969 0.38082 0.0
C1060 C 0.62004 0.05148 0.342 0.0
C1061 C 0.6309 0.02628 0.33295 0.0
C1062 C 0.62189 1.00266 0.34684 0.0
C1063 C 0.60417 0.00433 0.37049 0.0
H1064 H 0.0839 0.70859 0.33478 0.0
H1065 H 0.99067 0.70628 0.32596 0.0
H1066 H 0.08219 0.66851 0.36556 0.0
H1067 H 0.98864 0.66689 0.35678 0.0
H1068 H 0.99201 0.58382 0.38807 0.0
H1069 H 0.00347 0.61913 0.35432 0.0
H1070 H 0.06277 0.65511 0.41351 0.0
H1071 H 0.05141 0.61915 0.44733 0.0
C1072 C 0.06314 0.69936 0.33947 0.0
C1073 C 0.03742 0.70997 0.32799 0.0
C1074 C 0.06212 0.67664 0.35707 0.0
C1075 C 0.03535 0.66435 0.3632 0.0
C1076 C 0.00968 0.67547 0.35187 0.0
C1077 C 0.01073 0.69803 0.3344 0.0
C1078 C 0.00811 0.59886 0.39355 0.0
C1079 C 0.02089 0.59888 0.42017 0.0
C1080 C 0.01451 0.61916 0.37435 0.0
C1081 C 0.0335 0.64019 0.38153 0.0
C1082 C 0.04807 0.6391 0.40742 0.0
C1083 C 0.04176 0.61849 0.4267 0.0
H1084 H 0.28319 0.97381 0.32037 0.0
H1085 H 0.33211 0.03732 0.27985 0.0
H1086 H 0.30974 0.9822 0.36406 0.0
H1087 H 0.35892 0.04495 0.32314 0.0
H1088 H 0.42758 1.00181 0.38344 0.0
H1089 H 0.39178 0.99825 0.34613 0.0
H1090 H 0.32625 0.03301 0.40014 0.0
H1091 H 0.36288 0.03758 0.43778 0.0
C1092 C 0.29904 0.98994 0.32095 0.0
C1093 C 0.30592 0.00461 0.29655 0.0
C1094 C 0.3141 0.99473 0.34592 0.0
C1095 C 0.33615 0.01422 0.34673 0.0
C1096 C 0.34187 0.02989 0.32289 0.0
C1097 C 0.32677 0.02527 0.2981 0.0
C1098 C 0.40545 0.00842 0.38751 0.0
C1099 C 0.39779 0.01981 0.4134 0.0
C1100 C 0.38509 0.00648 0.36618 0.0
C1101 C 0.35648 0.01536 0.37045 0.0
C1102 C 0.34832 0.02606 0.39658 0.0
C1103 C 0.36911 0.0287 0.41793 0.0
H1104 H 0.01322 0.16868 0.28148 0.0
H1105 H 0.04568 0.2309 0.33627 0.0
H1106 H 0.01682 0.13568 0.31957 0.0
H1107 H 0.04964 0.19796 0.37427 0.0
H1108 H 0.00278 0.14112 0.43939 0.0
H1109 H 0.01263 0.17397 0.4024 0.0
H1110 H 0.05072 0.11052 0.35183 0.0
H1111 H 0.04109 0.07767 0.38936 0.0
C1112 C 0.02178 0.17516 0.30148 0.0
C1113 C 0.02953 0.20236 0.30573 0.0
C1114 C 0.02397 0.15623 0.32329 0.0
C1115 C 0.03366 0.16413 0.34998 0.0
C1116 C 0.04201 0.19122 0.35402 0.0
C1117 C 0.03989 0.2101 0.33219 0.0
C1118 C 0.01432 0.13447 0.42082 0.0
C1119 C 0.02173 0.10706 0.41741 0.0
C1120 C 0.01988 0.15324 0.39955 0.0
C1121 C 0.03234 0.14487 0.37406 0.0
C1122 C 0.04098 0.11758 0.37116 0.0
C1123 C 0.0359 0.09885 0.39276 0.0
H1124 H 0.79899 0.08328 0.29464 0.0
H1125 H 0.82361 1.00155 0.27304 0.0
H1126 H 0.83143 0.08181 0.33495 0.0
H1127 H 0.85688 1.00002 0.31296 0.0
H1128 H 0.87571 0.99133 0.40554 0.0
H1129 H 0.84786 0.99661 0.36244 0.0
H1130 H 0.87893 0.07877 0.3542 0.0
H1131 H 0.90553 0.07389 0.39782 0.0
C1132 C 0.8124 0.06543 0.29799 0.0
C1133 C 0.80915 0.04258 0.28096 0.0
C1134 C 0.83085 0.06448 0.32109 0.0
C1135 C 0.84618 0.04055 0.32754 0.0
C1136 C 0.84474 0.01849 0.30894 0.0
C1137 C 0.82621 0.01948 0.28584 0.0
C1138 C 0.87595 0.0107 0.39483 0.0
C1139 C 0.8926 0.03221 0.40513 0.0
C1140 C 0.8605 0.01359 0.36989 0.0
C1141 C 0.86175 0.03792 0.35455 0.0
C1142 C 0.87741 0.05981 0.36553 0.0
C1143 C 0.89247 0.05706 0.39069 0.0
H1144 H 0.07033 0.82348 0.31103 0.0
H1145 H 0.98181 0.8006 0.32823 0.0
H1146 H 0.06339 0.86525 0.33804 0.0
H1147 H 0.97425 0.84258 0.35438 0.0
H1148 H 0.97886 0.90302 0.42488 0.0
H1149 H 0.98852 0.86205 0.39806 0.0
H1150 H 0.0388 0.90848 0.33865 0.0
H1151 H 0.02978 0.94938 0.36593 0.0
C1152 C 0.04923 0.82779 0.32017 0.0
C1153 C 0.02651 0.80918 0.31754 0.0
C1154 C 0.0452 0.85162 0.33561 0.0
C1155 C 0.01832 0.8572 0.34861 0.0
C1156 C 0.99541 0.83871 0.34519 0.0
C1157 C -0.00046 0.81486 0.32997 0.0
C1158 C 0.99221 0.90447 0.40625 0.0
C1159 C 0.00338 0.92953 0.39747 0.0
C1160 C -0.00247 0.881 0.3907 0.0
C1161 C 0.0141 0.88199 0.36593 0.0
C1162 C 0.02606 0.90692 0.35766 0.0
C1163 C 0.02078 0.93041 0.37326 0.0
H1164 H 0.16248 0.0387 0.24169 0.0
H1165 H 0.20108 0.96958 0.2835 0.0
H1166 H 0.13283 0.04784 0.2835 0.0
H1167 H 0.17257 0.97954 0.32526 0.0
H1168 H 0.14114 0.03107 0.40249 0.0
H1169 H 0.1703 0.02578 0.35975 0.0
H1170 H 0.09188 0.01437 0.31174 0.0
H1171 H 0.06277 0.01855 0.35478 0.0
C1172 C 0.16486 0.02572 0.25987 0.0
C1173 C 0.1846 0.00388 0.25947 0.0
C1174 C 0.14794 0.03091 0.28362 0.0
C1175 C 0.15084 0.01454 0.30748 0.0
C1176 C 0.17038 0.99264 0.30714 0.0
C1177 C 0.18676 0.98706 0.28323 0.0
C1178 C 0.13023 0.02784 0.38269 0.0
C1179 C 0.0999 0.02536 0.38159 0.0
C1180 C 0.14682 0.0247 0.35841 0.0
C1181 C 0.13318 0.01978 0.33266 0.0
C1182 C 0.10273 0.01833 0.33142 0.0
C1183 C 0.08618 0.02068 0.35587 0.0
H1184 H 0.03522 0.81873 0.72142 0.0
H1185 H 0.94391 0.83986 0.72089 0.0
H1186 H 0.04394 0.85061 0.68371 0.0
H1187 H 0.95291 0.87277 0.68343 0.0
H1188 H 0.97826 0.91139 0.59816 0.0
H1189 H 0.96713 0.87725 0.63378 0.0
H1190 H 0.04494 0.89911 0.67884 0.0
H1191 H 0.05628 0.93259 0.64332 0.0
C1192 C 0.0169 0.83006 0.71317 0.0
C1193 C 0.98869 0.82646 0.72392 0.0
C1194 C 0.02199 0.84857 0.69165 0.0
C1195 C -0.00084 0.86437 0.68064 0.0
C1196 C 0.9709 0.86068 0.69121 0.0
C1197 C 0.96577 0.84197 0.71271 0.0
C1198 C 0.99298 0.90882 0.61567 0.0
C1199 C 0.01824 0.92461 0.61781 0.0
C1200 C 0.98652 0.88939 0.63614 0.0
C1201 C 0.00528 0.88529 0.65903 0.0
C1202 C 0.0303 0.90135 0.66123 0.0
C1203 C 0.0367 0.92073 0.64091 0.0
H1204 H 0.21889 0.04598 0.7359 0.0
H1205 H 0.18532 0.96453 0.73548 0.0
H1206 H 0.20966 0.04992 0.68602 0.0
H1207 H 0.17365 0.96906 0.68604 0.0
H1208 H 0.15679 0.9758 0.59759 0.0
H1209 H 0.18694 0.97202 0.63933 0.0
H1210 H 0.17103 0.05679 0.65707 0.0
H1211 H 0.14295 0.06083 0.61471 0.0
C1212 C 0.20963 0.02883 0.72504 0.0
C1213 C 0.20339 0.00468 0.73943 0.0
C1214 C 0.20409 0.03115 0.69641 0.0
C1215 C 0.19089 0.00984 0.68168 0.0
C1216 C 0.18459 0.98569 0.69625 0.0
C1217 C 0.19087 0.98315 0.72474 0.0
C1218 C 0.16082 0.99384 0.60986 0.0
C1219 C 0.14687 0.01842 0.60326 0.0
C1220 C 0.17773 0.9916 0.63406 0.0
C1221 C 0.18048 0.01377 0.65238 0.0
C1222 C 0.16948 0.03913 0.64377 0.0
C1223 C 0.15319 0.04149 0.61928 0.0
H1224 H 0.05428 0.21432 0.72194 0.0
H1225 H 0.9748 0.23757 0.68007 0.0
H1226 H 0.05695 0.17335 0.69341 0.0
H1227 H 0.97793 0.19721 0.65088 0.0
H1228 H 0.98347 0.11262 0.61253 0.0
H1229 H 0.9765 0.14835 0.64739 0.0
H1230 H 0.06849 0.16554 0.64481 0.0
H1231 H 0.07552 0.12969 0.61066 0.0
C1232 C 0.03708 0.2104 0.70704 0.0
C1233 C 0.0145 0.22927 0.70304 0.0
C1234 C 0.03879 0.18712 0.69042 0.0
C1235 C 0.01794 0.18223 0.66947 0.0
C1236 C 0.99434 0.20027 0.66679 0.0
C1237 C 0.99266 0.22351 0.68338 0.0
C1238 C 0.00215 0.12414 0.61934 0.0
C1239 C 0.03003 0.11836 0.60871 0.0
C1240 C -0.00183 0.14458 0.63935 0.0
C1241 C 0.02197 0.15968 0.64911 0.0
C1242 C 0.04976 0.15394 0.63829 0.0
C1243 C 0.05374 0.13354 0.61842 0.0
H1244 H 0.83726 0.98501 0.73815 0.0
H1245 H 0.85571 0.06896 0.75506 0.0
H1246 H 0.8769 0.98349 0.70425 0.0
H1247 H 0.8958 0.06752 0.72144 0.0
H1248 H 0.9178 0.06647 0.62691 0.0
H1249 H 0.89101 0.0658 0.67071 0.0
H1250 H 0.92771 0.98724 0.69035 0.0
H1251 H 0.95415 0.98759 0.64594 0.0
C1252 C 0.85076 1.00276 0.73549 0.0
C1253 C 0.84351 0.02711 0.74902 0.0
C1254 C 0.87342 1.00195 0.71604 0.0
C1255 C 0.88905 0.02558 0.7097 0.0
C1256 C 0.88373 0.04914 0.7255 0.0
C1257 C 0.86112 0.04989 0.74506 0.0
C1258 C 0.92039 0.04913 0.64063 0.0
C1259 C 0.93803 0.02705 0.6329 0.0
C1260 C 0.90525 0.04887 0.66593 0.0
C1261 C 0.90754 0.02662 0.68423 0.0
C1262 C 0.92546 0.00464 0.67667 0.0
C1263 C 0.94052 0.00483 0.65121 0.0
H1264 H 0.35402 0.96729 0.21407 0.0
H1265 H 0.28871 0.01161 0.16755 0.0
H1266 H 0.38799 0.9723 0.1751 0.0
H1267 H 0.32261 0.01652 0.1286 0.0
H1268 H 0.38464 0.00893 0.0563 0.0
H1269 H 0.35127 0.9922 0.09205 0.0
H1270 H 0.41351 0.0125 0.15626 0.0
H1271 H 0.44689 0.0291 0.12064 0.0
C1272 C 0.34686 0.9779 0.19542 0.0
C1273 C 0.31881 0.98931 0.19395 0.0
C1274 C 0.36628 0.98072 0.17314 0.0
C1275 C 0.358 0.99492 0.14891 0.0
C1276 C 0.32949 0.00516 0.14688 0.0
C1277 C 0.31008 1.00238 0.16919 0.0
C1278 C 0.39139 0.00943 0.07802 0.0
C1279 C 0.4182 0.02071 0.08574 0.0
C1280 C 0.37222 0.99995 0.09846 0.0
C1281 C 0.37967 1.00129 0.12693 0.0
C1282 C 0.40722 0.01106 0.13447 0.0
C1283 C 0.42627 0.02074 0.11408 0.0
H1284 H 0.00043 0.30938 0.20626 0.0
H1285 H 0.08779 0.33577 0.22356 0.0
H1286 H 0.9968 0.34313 0.16829 0.0
H1287 H 0.08415 0.36928 0.18598 0.0
H1288 H 0.03278 0.45147 0.16806 0.0
H1289 H 0.03363 0.40911 0.19409 0.0
H1290 H 0.03785 0.36407 0.11695 0.0
H1291 H 0.03738 0.40689 0.0903 0.0
C1292 C 0.01924 0.32152 0.20108 0.0
C1293 C 0.04447 0.31996 0.2176 0.0
C1294 C 0.01713 0.34081 0.17949 0.0
C1295 C 0.04023 0.35866 0.17435 0.0
C1296 C 0.06618 0.35557 0.18947 0.0
C1297 C 0.06829 0.33639 0.21086 0.0
C1298 C 0.03347 0.43266 0.15643 0.0
C1299 C 0.03531 0.43266 0.12705 0.0
C1300 C 0.03395 0.40841 0.17141 0.0
C1301 C 0.03596 0.38351 0.15747 0.0
C1302 C 0.03626 0.38313 0.12808 0.0
C1303 C 0.03599 0.4076 0.11292 0.0
H1304 H 0.75337 0.04619 0.12595 0.0
H1305 H 0.69865 0.08373 0.18834 0.0
H1306 H 0.71099 0.03797 0.09671 0.0
H1307 H 0.65593 0.07635 0.15867 0.0
H1308 H 0.58768 0.02145 0.11255 0.0
H1309 H 0.62664 0.03866 0.14221 0.0
H1310 H 0.67561 0.06069 0.06842 0.0
H1311 H 0.63771 0.04217 0.03904 0.0
C1312 C 0.73224 0.05325 0.13299 0.0
C1313 C 0.72921 0.06616 0.15891 0.0
C1314 C 0.70798 0.0487 0.11627 0.0
C1315 C 0.68011 0.05693 0.12516 0.0
C1316 C 0.67709 0.06982 0.15124 0.0
C1317 C 0.70147 0.07427 0.16806 0.0
C1318 C 0.60661 0.03035 0.10274 0.0
C1319 C 0.60972 0.03034 0.07347 0.0
C1320 C 0.62883 0.04038 0.11971 0.0
C1321 C 0.65443 0.05064 0.10764 0.0
C1322 C 0.65645 0.05239 0.07836 0.0
C1323 C 0.6345 0.0421 0.06149 0.0
H1324 H 0.05118 0.7062 0.21636 0.0
H1325 H 0.96914 0.73089 0.18023 0.0
H1326 H 0.05491 0.66951 0.18231 0.0
H1327 H 0.97275 0.69383 0.14628 0.0
H1328 H 0.97822 0.60382 0.11378 0.0
H1329 H 0.97299 0.64154 0.14687 0.0
H1330 H 0.06102 0.66616 0.12916 0.0
H1331 H 0.0662 0.62905 0.09602 0.0
C1332 C 0.03406 0.70401 0.20099 0.0
C1333 C 0.01012 0.7219 0.20053 0.0
C1334 C 0.0362 0.68294 0.18151 0.0
C1335 C 0.01419 0.67891 0.16154 0.0
C1336 C 0.98999 0.6964 0.16147 0.0
C1337 C 0.98803 0.71768 0.18073 0.0
C1338 C 0.99635 0.61741 0.11685 0.0
C1339 C 0.0226 0.61335 0.1023 0.0
C1340 C 0.99334 0.63902 0.13571 0.0
C1341 C 0.0167 0.65665 0.14074 0.0
C1342 C 0.04278 0.65274 0.12595 0.0
C1343 C 0.04561 0.63153 0.1068 0.0
H1344 H 0.31285 0.95362 0.84403 0.0
H1345 H 0.3272 0.03868 0.8289 0.0
H1346 H 0.35065 0.95403 0.88069 0.0
H1347 H 0.36505 0.03901 0.86466 0.0
H1348 H 0.45525 0.02122 0.89328 0.0
H1349 H 0.41582 0.01008 0.86102 0.0
H1350 H 0.3627 0.98434 0.93059 0.0
H1351 H 0.4021 0.9961 0.96294 0.0
C1352 C 0.32345 0.97248 0.84928 0.0
C1353 C 0.31707 0.99623 0.83424 0.0
C1354 C 0.34511 0.97266 0.86988 0.0
C1355 C 0.36089 0.99643 0.8749 0.0
C1356 C 0.35331 0.02041 0.86083 0.0
C1357 C 0.33149 0.02033 0.84074 0.0
C1358 C 0.43554 0.01222 0.90147 0.0
C1359 C 0.43169 0.00892 0.93033 0.0
C1360 C 0.41304 0.00599 0.88315 0.0
C1361 C 0.38634 0.99659 0.89353 0.0
C1362 C 0.38326 0.9913 0.92222 0.0
C1363 C 0.40582 0.99771 0.94061 0.0
H1364 H 0.99422 0.34036 0.79287 0.0
H1365 H 0.04236 0.2958 0.85539 0.0
H1366 H -0.00169 0.38156 0.82091 0.0
H1367 H 0.04666 0.33703 0.88359 0.0
H1368 H 0.00547 0.40565 0.93937 0.0
H1369 H 0.01233 0.36518 0.91087 0.0
H1370 H 0.03268 0.41524 0.83933 0.0
H1371 H 0.02556 0.45578 0.86775 0.0
C1372 C 0.00593 0.33954 0.81252 0.0
C1373 C 0.01755 0.31492 0.82224 0.0
C1374 C 0.00847 0.36311 0.8285 0.0
C1375 C 0.02272 0.36255 0.85456 0.0
C1376 C 0.03524 0.33804 0.86379 0.0
C1377 C 0.03283 0.31449 0.84768 0.0
C1378 C 0.01182 0.40803 0.91767 0.0
C1379 C 0.01448 0.43395 0.90572 0.0
C1380 C 0.01592 0.38481 0.90136 0.0
C1381 C 0.02265 0.38701 0.87272 0.0
C1382 C 0.02699 0.41291 0.8612 0.0
C1383 C 0.02307 0.43613 0.87755 0.0
H1384 H 0.74316 0.07895 0.87396 0.0
H1385 H 0.72548 1.00288 0.83334 0.0
H1386 H 0.69353 0.08008 0.8925 0.0
H1387 H 0.67614 1.00341 0.85238 0.0
H1388 H 0.58578 0.01111 0.88538 0.0
H1389 H 0.6277 0.02306 0.85604 0.0
H1390 H 0.67203 0.05338 0.92924 0.0
H1391 H 0.6309 0.04062 0.95796 0.0
C1392 C 0.72846 0.06262 0.86884 0.0
C1393 C 0.73821 0.04049 0.85294 0.0
C1394 C 0.70011 0.06321 0.87942 0.0
C1395 C 0.68095 0.04164 0.87429 0.0
C1396 C 0.69019 0.02044 0.85665 0.0
C1397 C 0.71854 0.01993 0.846 0.0
C1398 C 0.60419 0.0212 0.89482 0.0
C1399 C 0.60468 0.02617 0.92374 0.0
C1400 C 0.62822 0.02787 0.87814 0.0
C1401 C 0.65323 0.03932 0.89023 0.0
C1402 C 0.65293 0.04536 0.91898 0.0
C1403 C 0.62908 0.03856 0.93551 0.0
H1404 H 0.96902 0.71732 0.8271 0.0
H1405 H 0.0529 0.69271 0.79564 0.0
H1406 H 0.9752 0.68746 0.86734 0.0
H1407 H 0.06028 0.66385 0.83668 0.0
H1408 H 0.04 0.58607 0.88809 0.0
H1409 H 0.04433 0.62244 0.85373 0.0
H1410 H 0.99712 0.67628 0.9092 0.0
H1411 H 0.99128 0.63924 0.94242 0.0
C1412 C 0.98919 0.70607 0.82941 0.0
C1413 C 0.0105 0.70719 0.80854 0.0
C1414 C 0.99293 0.68901 0.85253 0.0
C1415 C 0.0183 0.67299 0.85544 0.0
C1416 C 0.04025 0.67537 0.83503 0.0
C1417 C 0.03623 0.6921 0.81168 0.0
C1418 C 0.03135 0.60594 0.89314 0.0
C1419 C 0.0152 0.60992 0.91769 0.0
C1420 C 0.03376 0.62689 0.87346 0.0
C1421 C 0.0205 0.65235 0.87829 0.0
C1422 C 0.00675 0.65681 0.90422 0.0
C1423 C 0.00375 0.63572 0.92348 0.0
H1424 H 0.18655 0.31138 0.97072 0.0
H1425 H 0.19025 0.32916 0.05891 0.0
H1426 H 0.14869 0.34551 0.9646 0.0
H1427 H 0.15097 0.36239 0.05345 0.0
H1428 H 0.0791 0.40683 0.95712 0.0
H1429 H 0.10205 0.36411 0.97081 0.0
H1430 H 0.15059 0.40615 0.03479 0.0
H1431 H 0.12678 0.44822 0.022 0.0
C1432 C 0.17823 0.32187 0.98899 0.0
C1433 C 0.19111 0.31782 0.01523 0.0
C1434 C 0.15645 0.34141 0.98558 0.0
C1435 C 0.14692 0.35708 0.00847 0.0
C1436 C 0.15823 0.35121 0.03523 0.0
C1437 C 0.18045 0.33201 0.03849 0.0
C1438 C 0.09432 0.40677 0.97442 0.0
C1439 C 0.10153 0.43097 0.98814 0.0
C1440 C 0.10757 0.38231 0.98222 0.0
C1441 C 0.12855 0.38162 0.00367 0.0
C1442 C 0.13435 0.40565 0.01842 0.0
C1443 C 0.12087 0.42996 0.01086 0.0
H1444 H 0.16358 0.73899 0.99182 0.0
H1445 H 0.18873 0.71321 0.07457 0.0
H1446 H 0.12607 0.70448 0.99083 0.0
H1447 H 0.15016 0.67936 0.07456 0.0
H1448 H 0.12299 0.5954 0.03758 0.0
H1449 H 0.14612 0.63726 0.05254 0.0
H1450 H 0.08323 0.6836 0.0047 0.0
H1451 H 0.06152 0.64152 0.98853 0.0
C1452 C 0.16007 0.72668 0.01031 0.0
C1453 C 0.17887 0.72859 0.03322 0.0
C1454 C 0.13852 0.70684 0.00988 0.0
C1455 C 0.13521 0.6887 0.03253 0.0
C1456 C 0.15246 0.69247 0.05651 0.0
C1457 C 0.17429 0.71205 0.05671 0.0
C1458 C 0.11368 0.61461 0.03105 0.0
C1459 C 0.09088 0.6154 0.01167 0.0
C1460 C 0.12684 0.63872 0.03964 0.0
C1461 C 0.11702 0.66398 0.02929 0.0
C1462 C 0.09202 0.66459 0.01236 0.0
C1463 C 0.07937 0.64052 0.00331 0.0
H1464 H 0.29085 0.19614 0.06511 0.0
H1465 H 0.28579 0.20944 0.97596 0.0
H1466 H 0.33888 0.17566 0.05937 0.0
H1467 H 0.33435 0.19059 0.97021 0.0
H1468 H 0.40253 0.12256 0.96659 0.0
H1469 H 0.35824 0.14921 0.97055 0.0
H1470 H 0.38829 0.18175 0.04936 0.0
H1471 H 0.43199 0.1537 0.04599 0.0
C1472 C 0.30033 0.19517 0.04437 0.0
C1473 C 0.2848 0.2048 0.0211 0.0
C1474 C 0.32798 0.18365 0.04103 0.0
C1475 C 0.34077 0.18153 0.01429 0.0
C1476 C 0.32521 0.19151 0.99108 0.0
C1477 C 0.29743 0.20262 0.99439 0.0
C1478 C 0.40001 0.13589 0.98443 0.0
C1479 C 0.42072 0.13598 0.006 0.0
C1480 C 0.37451 0.15127 0.98675 0.0
C1481 C 0.36936 0.16754 0.01046 0.0
C1482 C 0.39108 0.16896 0.03115 0.0
C1483 C 0.41633 0.15316 0.02908 0.0
H1484 H 0.86275 0.32491 0.95841 0.0
H1485 H 0.87809 0.30637 0.04534 0.0
H1486 H 0.89992 0.36011 0.96009 0.0
H1487 H 0.91487 0.34185 0.04742 0.0
H1488 H 0.91549 0.4472 0.99594 0.0
H1489 H 0.89424 0.40373 0.98438 0.0
H1490 H 0.9613 0.36275 0.03184 0.0
H1491 H 0.98249 0.40654 0.04389 0.0
C1492 C 0.87506 0.32765 0.97751 0.0
C1493 C 0.86797 0.31293 0.00168 0.0
C1494 C 0.89604 0.34795 0.97861 0.0
C1495 C 0.91001 0.354 0.00398 0.0
C1496 C 0.90473 0.33751 0.02749 0.0
C1497 C 0.88377 0.31714 0.02634 0.0
C1498 C 0.92609 0.42895 0.0035 0.0
C1499 C 0.95043 0.43034 0.02117 0.0
C1500 C 0.91403 0.40396 0.99667 0.0
C1501 C 0.92608 0.37978 0.00726 0.0
C1502 C 0.95142 0.38107 0.0236 0.0
C1503 C 0.96355 0.40613 0.03044 0.0
H1504 H 0.74338 0.82739 0.96961 0.0
H1505 H 0.75119 0.83951 0.0588 0.0
H1506 H 0.69947 0.85471 0.96904 0.0
H1507 H 0.70771 0.86826 0.05809 0.0
H1508 H 0.61371 0.89865 0.05101 0.0
H1509 H 0.65632 0.86888 0.05276 0.0
H1510 H 0.68433 0.89983 0.97246 0.0
H1511 H 0.64131 0.92839 0.97021 0.0
C1512 C 0.73568 0.83582 0.98919 0.0
C1513 C 0.75048 0.83081 0.01445 0.0
C1514 C 0.71058 0.85183 0.98881 0.0
C1515 C 0.69995 0.86384 0.01351 0.0
C1516 C 0.71491 0.85899 0.03874 0.0
C1517 C 0.7399 0.84267 0.03916 0.0
C1518 C 0.62894 0.8989 0.0337 0.0
C1519 C 0.62398 0.91562 0.01035 0.0
C1520 C 0.65348 0.88199 0.03477 0.0
C1521 C 0.67378 0.88176 0.01267 0.0
C1522 C 0.66889 0.89886 0.98954 0.0
C1523 C 0.64422 0.91538 0.9883 0.0
H1524 H 0.82304 0.69317 0.94546 0.0
H1525 H 0.85091 0.72793 0.02359 0.0
H1526 H 0.86512 0.66278 0.94568 0.0
H1527 H 0.89183 0.69659 0.02515 0.0
H1528 H 0.96727 0.64292 0.02475 0.0
H1529 H 0.93598 0.68042 0.01034 0.0
H1530 H 0.87984 0.6237 0.96774 0.0
H1531 H 0.91248 0.58685 0.98057 0.0
C1532 C 0.83842 0.69435 0.96257 0.0
C1533 C 0.83387 0.71275 0.98452 0.0
C1534 C 0.86241 0.6768 0.96289 0.0
C1535 C 0.88197 0.6768 0.98558 0.0
C1536 C 0.8778 0.69612 0.00699 0.0
C1537 C 0.85419 0.71405 0.00629 0.0
C1538 C 0.94873 0.63877 0.01147 0.0
C1539 C 0.94217 0.6121 0.00375 0.0
C1540 C 0.93051 0.66018 0.00352 0.0
C1541 C 0.90474 0.65522 0.9885 0.0
C1542 C 0.89948 0.62861 0.97908 0.0
C1543 C 0.91821 0.60732 0.9864 0.0
H1544 H 0.27557 0.83139 0.95861 0.0
H1545 H 0.25218 0.86468 0.03896 0.0
H1546 H 0.31677 0.86206 0.95581 0.0
H1547 H 0.29433 0.89435 0.03728 0.0
H1548 H 0.35932 0.95981 0.0199 0.0
H1549 H 0.3153 0.93235 0.01816 0.0
H1550 H 0.36258 0.87062 0.97225 0.0
H1551 H 0.40545 0.89926 0.97217 0.0
C1552 C 0.27948 0.84519 0.9758 0.0
C1553 C 0.26083 0.84564 0.99906 0.0
C1554 C 0.30326 0.86268 0.97436 0.0
C1555 C 0.30919 0.88086 0.99634 0.0
C1556 C 0.29036 0.88115 0.01964 0.0
C1557 C 0.26636 0.86391 0.02085 0.0
C1558 C 0.35988 0.94058 0.00898 0.0
C1559 C 0.38547 0.93169 0.99589 0.0
C1560 C 0.33483 0.92461 0.00826 0.0
C1561 C 0.33518 0.89895 0.99527 0.0
C1562 C 0.36099 0.89038 0.98192 0.0
C1563 C 0.38569 0.90674 0.98191 0.0
H1564 H 0.78883 0.17473 0.94741 0.0
H1565 H 0.75922 0.21473 0.02264 0.0
H1566 H 0.74972 0.14165 0.95208 0.0
H1567 H 0.72013 0.18207 0.02716 0.0
H1568 H 0.66781 0.10694 0.04241 0.0
H1569 H 0.71083 0.13506 0.03765 0.0
H1570 H 0.69746 0.13893 0.9482 0.0
H1571 H 0.6549 0.11003 0.95285 0.0
C1572 C 0.77411 0.17625 0.96507 0.0
C1573 C 0.77755 0.19693 0.98492 0.0
C1574 C 0.7516 0.15747 0.96765 0.0
C1575 C 0.73191 0.15904 0.99013 0.0
C1576 C 0.73527 0.17988 0.00992 0.0
C1577 C 0.75768 0.19871 0.00727 0.0
C1578 C 0.67425 0.11347 0.02166 0.0
C1579 C 0.65778 0.10637 0.99803 0.0
C1580 C 0.6988 0.12979 0.01897 0.0
C1581 C 0.7074 0.1396 0.9926 0.0
C1582 C 0.69161 0.13158 0.96881 0.0
C1583 C 0.66714 0.11505 0.97148 0.0
H1584 H 0.54311 0.73066 0.81462 0.0
H1585 H 0.4946 0.67255 0.76641 0.0
H1586 H 0.5433 0.69987 0.85445 0.0
H1587 H 0.49525 0.64128 0.80615 0.0
H1588 H 0.46825 0.61256 0.8949 0.0
H1589 H 0.4728 0.63833 0.85166 0.0
H1590 H 0.56177 0.65731 0.87253 0.0
H1591 H 0.55701 0.63205 0.91622 0.0
C1592 C 0.53299 0.71108 0.81233 0.0
C1593 C 0.51928 0.70385 0.78716 0.0
C1594 C 0.5332 0.69331 0.83516 0.0
C1595 C 0.51938 0.66799 0.83353 0.0
C1596 C 0.50593 0.66067 0.80823 0.0
C1597 C 0.50577 0.67846 0.78538 0.0
C1598 C 0.4889 0.622 0.89018 0.0
C1599 C 0.51215 0.62051 0.90924 0.0
C1600 C 0.49157 0.63667 0.86524 0.0
C1601 C 0.51758 0.65014 0.85868 0.0
C1602 C 0.54125 0.64762 0.87717 0.0
C1603 C 0.53857 0.63299 0.90215 0.0
H1604 H 0.33775 0.57059 0.82632 0.0
H1605 H 0.37541 0.50603 0.77686 0.0
H1606 H 0.37624 0.56484 0.86092 0.0
H1607 H 0.41457 0.50126 0.81069 0.0
H1608 H 0.44302 0.47072 0.89825 0.0
H1609 H 0.41454 0.48221 0.85716 0.0
H1610 H 0.42785 0.5674 0.87321 0.0
H1611 H 0.45605 0.55583 0.91497 0.0
C1612 C 0.35449 0.55549 0.82257 0.0
C1613 C 0.35315 0.53849 0.799 0.0
C1614 C 0.37679 0.55243 0.84225 0.0
C1615 C 0.39829 0.53233 0.83876 0.0
C1616 C 0.39805 0.51662 0.81424 0.0
C1617 C 0.37573 0.5196 0.79465 0.0
C1618 C 0.44022 0.49192 0.89289 0.0
C1619 C 0.45149 0.51236 0.91013 0.0
C1620 C 0.42406 0.49852 0.86913 0.0
C1621 C 0.41877 0.52575 0.86192 0.0
C1622 C 0.43121 0.54624 0.8784 0.0
C1623 C 0.4475 0.5396 0.90223 0.0
H1624 H 0.51903 0.32916 0.77965 0.0
H1625 H 0.45257 0.30124 0.83641 0.0
H1626 H 0.52522 0.36991 0.80817 0.0
H1627 H 0.45946 0.34094 0.86544 0.0
H1628 H 0.46898 0.41738 0.91232 0.0
H1629 H 0.45601 0.38782 0.87349 0.0
H1630 H 0.54697 0.37909 0.8522 0.0
H1631 H 0.55973 0.40939 0.89027 0.0
C1632 C 0.50531 0.33202 0.79786 0.0
C1633 C 0.48555 0.31185 0.80596 0.0
C1634 C 0.50909 0.35519 0.81445 0.0
C1635 C 0.49318 0.35866 0.83946 0.0
C1636 C 0.47201 0.33928 0.84633 0.0
C1637 C 0.46821 0.31629 0.82978 0.0
C1638 C 0.48617 0.40945 0.89909 0.0
C1639 C 0.51544 0.41539 0.90474 0.0
C1640 C 0.47875 0.39238 0.87684 0.0
C1641 C 0.50043 0.38059 0.85984 0.0
C1642 C 0.52958 0.38786 0.86457 0.0
C1643 C 0.53696 0.40512 0.88664 0.0
H1644 H 0.68486 0.54041 0.80707 0.0
H1645 H 0.63401 0.46874 0.79225 0.0
H1646 H 0.66385 0.54439 0.85396 0.0
H1647 H 0.61298 0.47247 0.8393 0.0
H1648 H 0.55727 0.51276 0.91067 0.0
H1649 H 0.57942 0.50346 0.86512 0.0
H1650 H 0.66422 0.52045 0.89943 0.0
H1651 H 0.64223 0.52984 0.94478 0.0
C1652 C 0.66911 0.52557 0.81393 0.0
C1653 C 0.6606 0.50457 0.79601 0.0
C1654 C 0.65727 0.52766 0.8408 0.0
C1655 C 0.63671 0.50874 0.85032 0.0
C1656 C 0.62849 0.48753 0.83244 0.0
C1657 C 0.6405 0.48536 0.8056 0.0
C1658 C 0.58068 0.51414 0.90857 0.0
C1659 C 0.59793 0.52232 0.93128 0.0
C1660 C 0.59337 0.50874 0.8825 0.0
C1661 C 0.62353 0.51161 0.87859 0.0
C1662 C 0.64087 0.51856 0.90165 0.0
C1663 C 0.62825 0.52373 0.92771 0.0
H1664 H 0.50906 0.30947 0.18964 0.0
H1665 H 0.47286 0.37451 0.23898 0.0
H1666 H 0.51501 0.34032 0.15014 0.0
H1667 H 0.47821 0.40543 0.19931 0.0
H1668 H 0.52498 0.45798 0.1319 0.0
H1669 H 0.51413 0.42881 0.17188 0.0
H1670 H 0.48818 0.36519 0.11525 0.0
H1671 H 0.49985 0.39446 0.07536 0.0
C1672 C 0.50254 0.33041 0.19212 0.0
C1673 C 0.49099 0.33959 0.21768 0.0
C1674 C 0.50559 0.3481 0.16931 0.0
C1675 C 0.49695 0.37548 0.17132 0.0
C1676 C 0.48542 0.38464 0.19697 0.0
C1677 C 0.48236 0.3669 0.21976 0.0
C1678 C 0.51617 0.43805 0.1281 0.0
C1679 C 0.51277 0.42864 0.10059 0.0
C1680 C 0.51 0.42122 0.15101 0.0
C1681 C 0.50054 0.39441 0.14695 0.0
C1682 C 0.49589 0.3855 0.11928 0.0
C1683 C 0.50206 0.40239 0.09638 0.0
H1684 H 0.69316 0.4442 0.20612 0.0
H1685 H 0.64097 0.51121 0.23565 0.0
H1686 H 0.66506 0.44322 0.16257 0.0
H1687 H 0.61342 0.51089 0.19206 0.0
H1688 H 0.55455 0.49848 0.12293 0.0
H1689 H 0.57847 0.48497 0.16628 0.0
H1690 H 0.65823 0.47069 0.1205 0.0
H1691 H 0.6335 0.48308 0.07688 0.0
C1692 C 0.67565 0.45871 0.20322 0.0
C1693 C 0.66912 0.4778 0.22415 0.0
C1694 C 0.65962 0.45818 0.17832 0.0
C1695 C 0.63676 0.47674 0.17391 0.0
C1696 C 0.63036 0.49582 0.19498 0.0
C1697 C 0.64629 0.49626 0.21983 0.0
C1698 C 0.57675 0.49103 0.12204 0.0
C1699 C 0.59218 0.49144 0.09673 0.0
C1700 C 0.59065 0.48382 0.14689 0.0
C1701 C 0.62051 0.47755 0.14699 0.0
C1702 C 0.63522 0.47543 0.12118 0.0
C1703 C 0.62109 0.48234 0.09616 0.0
H1704 H 0.50436 0.71615 0.23491 0.0
H1705 H 0.59077 0.72134 0.20046 0.0
H1706 H 0.49501 0.67587 0.20638 0.0
H1707 H 0.58168 0.68137 0.17177 0.0
H1708 H 0.56358 0.60153 0.13141 0.0
H1709 H 0.57241 0.63328 0.16946 0.0
H1710 H 0.48725 0.66857 0.15671 0.0
H1711 H 0.4781 0.63642 0.11917 0.0
C1712 C 0.52163 0.70806 0.22186 0.0
C1713 C 0.5484 0.72143 0.22007 0.0
C1714 C 0.5162 0.68527 0.20526 0.0
C1715 C 0.53752 0.67543 0.18662 0.0
C1716 C 0.56487 0.68811 0.18609 0.0
C1717 C 0.57016 0.71099 0.20251 0.0
C1718 C 0.54658 0.61584 0.13692 0.0
C1719 C 0.52024 0.61658 0.12196 0.0
C1720 C 0.5517 0.63412 0.1587 0.0
C1721 C 0.53068 0.65368 0.16604 0.0
C1722 C 0.50384 0.65362 0.15189 0.0
C1723 C 0.49865 0.63525 0.13018 0.0
H1724 H 0.35189 0.60035 0.20286 0.0
H1725 H 0.37632 0.5191 0.22665 0.0
H1726 H 0.3934 0.60251 0.17095 0.0
H1727 H 0.41705 0.5205 0.19407 0.0
H1728 H 0.48574 0.52192 0.13275 0.0
H1729 H 0.46177 0.53653 0.17584 0.0
H1730 H 0.39882 0.58141 0.1267 0.0
H1731 H 0.42347 0.56737 0.08406 0.0
C1732 C 0.36679 0.58329 0.20181 0.0
C1733 C 0.36114 0.55956 0.21702 0.0
C1734 C 0.39036 0.58439 0.1834 0.0
C1735 C 0.40833 0.56155 0.17951 0.0
C1736 C 0.40396 0.53863 0.19666 0.0
C1737 C 0.38059 0.53771 0.21533 0.0
C1738 C 0.46747 0.53583 0.13142 0.0
C1739 C 0.45636 0.54366 0.10527 0.0
C1740 C 0.45359 0.54401 0.15602 0.0
C1741 C 0.42797 0.55966 0.1548 0.0
C1742 C 0.41863 0.56959 0.12859 0.0
C1743 C 0.43278 0.56166 0.10402 0.0
H1744 H 0.7908 0.46542 0.71389 0.0
H1745 H 0.79272 0.55205 0.72457 0.0
H1746 H 0.83045 0.46819 0.68022 0.0
H1747 H 0.83118 0.55545 0.68948 0.0
H1748 H 0.92248 0.55008 0.6528 0.0
H1749 H 0.88068 0.54765 0.68439 0.0
H1750 H 0.84727 0.48003 0.6369 0.0
H1751 H 0.88973 0.48133 0.6071 0.0
C1752 C 0.79909 0.48517 0.70812 0.0
C1753 C 0.78873 0.50853 0.7215 0.0
C1754 C 0.82188 0.48687 0.68883 0.0
C1755 C 0.83448 0.51208 0.6822 0.0
C1756 C 0.82272 0.53562 0.69453 0.0
C1757 C 0.80032 0.5338 0.71424 0.0
C1758 C 0.90633 0.53451 0.64954 0.0
C1759 C 0.90965 0.51563 0.62787 0.0
C1760 C 0.88211 0.53329 0.66735 0.0
C1761 C 0.86033 0.51362 0.66331 0.0
C1762 C 0.86373 0.49501 0.6413 0.0
C1763 C 0.88819 0.49579 0.62409 0.0
H1764 H 0.49124 0.82156 0.69146 0.0
H1765 H 0.58467 0.82032 0.69837 0.0
H1766 H 0.49463 0.85337 0.65201 0.0
H1767 H 0.58827 0.85191 0.65908 0.0
H1768 H 0.57859 0.93911 0.62811 0.0
H1769 H 0.57405 0.90065 0.65938 0.0
H1770 H 0.51352 0.86326 0.60244 0.0
H1771 H 0.51789 0.90227 0.57075 0.0
C1772 C 0.51249 0.82734 0.68375 0.0
C1773 C 0.53773 0.81841 0.69753 0.0
C1774 C 0.51446 0.84556 0.66131 0.0
C1775 C 0.5417 0.85541 0.65275 0.0
C1776 C 0.56697 0.84493 0.66545 0.0
C1777 C 0.56499 0.82663 0.68766 0.0
C1778 C 0.56436 0.92272 0.62205 0.0
C1779 C 0.54879 0.92373 0.59676 0.0
C1780 C 0.56193 0.90054 0.63994 0.0
C1781 C 0.54386 0.87869 0.63312 0.0
C1782 C 0.52771 0.87979 0.60815 0.0
C1783 C 0.53024 0.9021 0.59005 0.0
H1784 H 0.2612 0.57785 0.67902 0.0
H1785 H 0.28842 0.49649 0.65871 0.0
H1786 H 0.21578 0.57097 0.65392 0.0
H1787 H 0.24231 0.48876 0.63477 0.0
H1788 H 0.17023 0.49492 0.5682 0.0
H1789 H 0.2155 0.49902 0.59465 0.0
H1790 H 0.17113 0.54957 0.65533 0.0
H1791 H 0.12682 0.54687 0.6277 0.0
C1792 C 0.25729 0.55842 0.66925 0.0
C1793 C 0.27826 0.53774 0.67056 0.0
C1794 C 0.2311 0.55428 0.65512 0.0
C1795 C 0.22512 0.52919 0.64232 0.0
C1796 C 0.2462 0.50846 0.64392 0.0
C1797 C 0.27254 0.51276 0.65776 0.0
C1798 C 0.17033 0.5067 0.58732 0.0
C1799 C 0.14536 0.52086 0.59583 0.0
C1800 C 0.19617 0.509 0.6026 0.0
C1801 C 0.19724 0.525 0.62703 0.0
C1802 C 0.17155 0.53784 0.6362 0.0
C1803 C 0.14605 0.53611 0.62055 0.0
H1804 H 0.48197 0.2511 0.6521 0.0
H1805 H 0.46371 0.19127 0.71547 0.0
H1806 H 0.49393 0.21507 0.61884 0.0
H1807 H 0.47616 0.15504 0.68242 0.0
H1808 H 0.47907 0.09524 0.60881 0.0
H1809 H 0.46054 0.1322 0.63849 0.0
H1810 H 0.53262 0.18221 0.61283 0.0
H1811 H 0.55071 0.14579 0.58343 0.0
C1812 C 0.48045 0.23018 0.65884 0.0
C1813 C 0.47161 0.22392 0.68622 0.0
C1814 C 0.48736 0.20952 0.63985 0.0
C1815 C 0.48583 0.18208 0.64786 0.0
C1816 C 0.47702 0.17588 0.67535 0.0
C1817 C 0.47014 0.19659 0.69435 0.0
C1818 C 0.49052 0.11433 0.60917 0.0
C1819 C 0.51638 0.11754 0.59387 0.0
C1820 C 0.48013 0.1354 0.62636 0.0
C1821 C 0.49518 0.16018 0.62819 0.0
C1822 C 0.52028 0.16361 0.61183 0.0
C1823 C 0.53076 0.1426 0.59504 0.0
H1824 H 0.75923 0.54721 0.33445 0.0
H1825 H 0.79836 0.46886 0.32018 0.0
H1826 H 0.78676 0.5515 0.37825 0.0
H1827 H 0.82597 0.47298 0.36332 0.0
H1828 H 0.86893 0.47943 0.4438 0.0
H1829 H 0.82674 0.47591 0.41356 0.0
H1830 H 0.83872 0.55883 0.38702 0.0
H1831 H 0.88042 0.56271 0.41821 0.0
C1832 C 0.77299 0.53057 0.34125 0.0
C1833 C 0.77669 0.50765 0.32425 0.0
C1834 C 0.78896 0.53311 0.36607 0.0
C1835 C 0.80868 0.51266 0.37424 0.0
C1836 C 0.81071 0.48897 0.35798 0.0
C1837 C 0.79497 0.48656 0.33321 0.0
C1838 C 0.8622 0.49716 0.4321 0.0
C1839 C 0.8784 0.52122 0.43312 0.0
C1840 C 0.83803 0.49508 0.41464 0.0
C1841 C 0.82966 0.5169 0.39747 0.0
C1842 C 0.84446 0.54165 0.40007 0.0
C1843 C 0.86854 0.54383 0.41782 0.0
H1844 H 0.56253 0.79152 0.36885 0.0
H1845 H 0.5161 0.83656 0.30555 0.0
H1846 H 0.56157 0.83118 0.39957 0.0
H1847 H 0.51442 0.87608 0.33629 0.0
H1848 H 0.52713 0.94857 0.39122 0.0
H1849 H 0.54064 0.91148 0.36 0.0
H1850 H 0.52462 0.85407 0.42654 0.0
H1851 H 0.51175 0.89109 0.45784 0.0
C1852 C 0.55225 0.81001 0.36152 0.0
C1853 C 0.53878 0.81088 0.33517 0.0
C1854 C 0.55157 0.83268 0.37911 0.0
C1855 C 0.53755 0.85676 0.37062 0.0
C1856 C 0.52555 0.85799 0.34353 0.0
C1857 C 0.52627 0.83532 0.32596 0.0
C1858 C 0.5269 0.92806 0.39931 0.0
C1859 C 0.51792 0.92279 0.42695 0.0
C1860 C 0.53449 0.90677 0.38134 0.0
C1861 C 0.53336 0.87971 0.39058 0.0
C1862 C 0.52596 0.87462 0.41869 0.0
C1863 C 0.51837 0.89589 0.43665 0.0
H1864 H 0.25177 0.48633 0.32829 0.0
H1865 H 0.25415 0.57325 0.31856 0.0
H1866 H 0.20211 0.48965 0.34595 0.0
H1867 H 0.20415 0.57658 0.3343 0.0
H1868 H 0.13333 0.57486 0.40215 0.0
H1869 H 0.17773 0.57432 0.37499 0.0
H1870 H 0.1528 0.49791 0.33805 0.0
H1871 H 0.10898 0.49778 0.3669 0.0
C1872 C 0.2414 0.50607 0.32936 0.0
C1873 C 0.25677 0.52939 0.32165 0.0
C1874 C 0.2128 0.50803 0.33921 0.0
C1875 C 0.1988 0.53343 0.3415 0.0
C1876 C 0.21415 0.5567 0.33326 0.0
C1877 C 0.24286 0.55476 0.3239 0.0
C1878 C 0.13683 0.55835 0.38758 0.0
C1879 C 0.11773 0.53627 0.38682 0.0
C1880 C 0.16248 0.55798 0.37191 0.0
C1881 C 0.16935 0.53579 0.35455 0.0
C1882 C 0.14878 0.51493 0.35181 0.0
C1883 C 0.1234 0.51503 0.368 0.0
H1884 H 0.55838 0.21828 0.31025 0.0
H1885 H 0.46697 0.23168 0.32447 0.0
H1886 H 0.56085 0.18909 0.35158 0.0
H1887 H 0.46867 0.20163 0.36494 0.0
H1888 H 0.47604 0.15289 0.442 0.0
H1889 H 0.48208 0.19085 0.41 0.0
H1890 H 0.54802 0.14551 0.36511 0.0
H1891 H 0.54306 0.10828 0.39854 0.0
C1892 C 0.53898 0.21551 0.3228 0.0
C1893 C 0.51261 0.22763 0.31461 0.0
C1894 C 0.54021 0.19838 0.34622 0.0
C1895 C 0.51493 0.19255 0.36175 0.0
C1896 C 0.48881 0.2058 0.35407 0.0
C1897 C 0.4877 0.22315 0.33083 0.0
C1898 C 0.49236 0.15139 0.42568 0.0
C1899 C 0.50906 0.12766 0.42272 0.0
C1900 C 0.49559 0.17305 0.40704 0.0
C1901 C 0.51508 0.1713 0.38434 0.0
C1902 C 0.53294 0.14796 0.38234 0.0
C1903 C 0.53015 0.12649 0.40149 0.0
H1904 H 0.71922 0.83054 0.54281 0.0
H1905 H 0.71469 0.82848 0.45274 0.0
H1906 H 0.67744 0.86196 0.54401 0.0
H1907 H 0.67354 0.86023 0.45381 0.0
H1908 H 0.64164 0.94856 0.46952 0.0
H1909 H 0.67711 0.91178 0.47211 0.0
H1910 H 0.61977 0.86679 0.52621 0.0
H1911 H 0.58355 0.90359 0.52319 0.0
C1912 C 0.70861 0.83613 0.52338 0.0
C1913 C 0.71975 0.82686 0.49769 0.0
C1914 C 0.68488 0.85416 0.52405 0.0
C1915 C 0.67248 0.86367 0.49898 0.0
C1916 C 0.68279 0.85329 0.47341 0.0
C1917 C 0.7061 0.83496 0.47279 0.0
C1918 C 0.63655 0.93099 0.48218 0.0
C1919 C 0.60964 0.92899 0.496 0.0
C1920 C 0.65682 0.90983 0.48348 0.0
C1921 C 0.651 0.88631 0.49903 0.0
C1922 C 0.62469 0.88466 0.51394 0.0
C1923 C 0.60403 0.9057 0.51219 0.0
H1924 H 0.70909 0.23081 0.54045 0.0
H1925 H 0.72977 0.18571 0.46547 0.0
H1926 H 0.66708 0.20103 0.54867 0.0
H1927 H 0.68881 0.15577 0.47436 0.0
H1928 H 0.64355 0.08824 0.52468 0.0
H1929 H 0.68063 0.12354 0.52922 0.0
H1930 H 0.61756 0.18427 0.50532 0.0
H1931 H 0.58074 0.1489 0.49994 0.0
C1932 C 0.70447 0.21486 0.52558 0.0
C1933 C 0.72298 0.21035 0.50251 0.0
C1934 C 0.6807 0.19775 0.53046 0.0
C1935 C 0.67541 0.17588 0.51247 0.0
C1936 C 0.69298 0.17221 0.4888 0.0
C1937 C 0.71635 0.18936 0.48375 0.0
C1938 C 0.63733 0.10926 0.52171 0.0
C1939 C 0.60942 0.11603 0.51212 0.0
C1940 C 0.6585 0.12938 0.52417 0.0
C1941 C 0.65174 0.15648 0.51765 0.0
C1942 C 0.62308 0.16354 0.51072 0.0
C1943 C 0.60211 0.14338 0.50769 0.0
H1944 H 0.80907 0.70236 0.45811 0.0
H1945 H 0.82075 0.71496 0.54666 0.0
H1946 H 0.85025 0.67043 0.45792 0.0
H1947 H 0.86084 0.68276 0.54689 0.0
H1948 H 0.94358 0.63892 0.54191 0.0
H1949 H 0.90923 0.67558 0.53333 0.0
H1950 H 0.86404 0.62556 0.47344 0.0
H1951 H 0.8997 0.58913 0.48129 0.0
C1952 C 0.82075 0.69858 0.47742 0.0
C1953 C 0.8121 0.71159 0.50228 0.0
C1954 C 0.84413 0.68008 0.4774 0.0
C1955 C 0.85922 0.67406 0.50233 0.0
C1956 C 0.85044 0.68728 0.52709 0.0
C1957 C 0.82729 0.70574 0.52705 0.0
C1958 C 0.92674 0.63602 0.52636 0.0
C1959 C 0.92425 0.61118 0.51232 0.0
C1960 C 0.90677 0.65694 0.52166 0.0
C1961 C 0.88324 0.65342 0.50325 0.0
C1962 C 0.88185 0.62911 0.48775 0.0
C1963 C 0.9023 0.6082 0.49216 0.0
H1964 H 0.33995 0.82276 0.55932 0.0
H1965 H 0.31499 0.84109 0.47442 0.0
H1966 H 0.38101 0.85389 0.55526 0.0
H1967 H 0.35653 0.87132 0.46971 0.0
H1968 H 0.3972 0.95408 0.49059 0.0
H1969 H 0.3654 0.91519 0.48747 0.0
H1970 H 0.42685 0.86744 0.53532 0.0
H1971 H 0.45851 0.90686 0.53908 0.0
C1972 C 0.34391 0.83279 0.5395 0.0
C1973 C 0.32433 0.82976 0.51724 0.0
C1974 C 0.36744 0.8506 0.53709 0.0
C1975 C 0.37188 0.86553 0.51227 0.0
C1976 C 0.35342 0.86073 0.48935 0.0
C1977 C 0.32978 0.84324 0.49191 0.0
C1978 C 0.40421 0.9352 0.50009 0.0
C1979 C 0.43024 0.93374 0.51538 0.0
C1980 C 0.38601 0.91273 0.49814 0.0
C1981 C 0.39338 0.88808 0.51132 0.0
C1982 C 0.42024 0.88618 0.5253 0.0
C1983 C 0.4385 0.90874 0.52727 0.0
H1984 H 0.19969 0.30064 0.49686 0.0
H1985 H 0.24255 0.35291 0.55605 0.0
H1986 H 0.16294 0.33557 0.48849 0.0
H1987 H 0.20594 0.38801 0.5476 0.0
H1988 H 0.12328 0.4376 0.54419 0.0
H1989 H 0.15535 0.39931 0.55449 0.0
H1990 H 0.15878 0.37962 0.46643 0.0
H1991 H 0.12605 0.41737 0.45626 0.0
C1992 C 0.20145 0.31974 0.50784 0.0
C1993 C 0.2246 0.32445 0.52642 0.0
C1994 C 0.18036 0.33975 0.50307 0.0
C1995 C 0.18158 0.36472 0.51718 0.0
C1996 C 0.2042 0.369 0.53647 0.0
C1997 C 0.22537 0.34904 0.5411 0.0
C1998 C 0.13068 0.42493 0.52707 0.0
C1999 C 0.12227 0.43062 0.49939 0.0
C2000 C 0.1492 0.40308 0.53295 0.0
C2001 C 0.15992 0.38654 0.51127 0.0
C2002 C 0.15072 0.39174 0.48369 0.0
C2003 C 0.13202 0.41346 0.47783 0.0
H2004 H 0.336 0.21954 0.54392 0.0
H2005 H 0.30723 0.19441 0.46226 0.0
H2006 H 0.37894 0.19069 0.53953 0.0
H2007 H 0.3509 0.16638 0.45688 0.0
H2008 H 0.40228 0.08803 0.48186 0.0
H2009 H 0.36735 0.12479 0.47454 0.0
H2010 H 0.42359 0.17937 0.51978 0.0
H2011 H 0.45734 0.14207 0.5284 0.0
C2012 C 0.33959 0.20858 0.52457 0.0
C2013 C 0.31863 0.20922 0.50336 0.0
C2014 C 0.36423 0.19203 0.5219 0.0
C2015 C 0.3685 0.17591 0.49783 0.0
C2016 C 0.34819 0.17803 0.47589 0.0
C2017 C 0.32338 0.19433 0.47877 0.0
C2018 C 0.40746 0.10812 0.48941 0.0
C2019 C 0.43225 0.11228 0.50582 0.0
C2020 C 0.38746 0.12929 0.48527 0.0
C2021 C 0.39223 0.15509 0.49712 0.0
C2022 C 0.41864 0.15967 0.51112 0.0
C2023 C 0.4382 0.13841 0.51575 0.0
H2024 H 0.77512 0.36532 0.4941 0.0
H2025 H 0.84139 0.30454 0.48053 0.0
H2026 H 0.81267 0.39939 0.50127 0.0
H2027 H 0.87916 0.33855 0.48787 0.0
H2028 H 0.93333 0.40333 0.53733 0.0
H2029 H 0.89913 0.3673 0.52575 0.0
H2030 H 0.85006 0.42337 0.47449 0.0
H2031 H 0.88368 0.45938 0.48666 0.0
C2032 C 0.79775 0.3593 0.49263 0.0
C2033 C 0.80538 0.33233 0.48679 0.0
C2034 C 0.81928 0.37879 0.49655 0.0
C2035 C 0.84893 0.37171 0.49496 0.0
C2036 C 0.85654 0.34462 0.4894 0.0
C2037 C 0.83496 0.32516 0.48521 0.0
C2038 C 0.91549 0.40784 0.52325 0.0
C2039 C 0.91105 0.4343 0.51308 0.0
C2040 C 0.89593 0.38718 0.51657 0.0
C2041 C 0.8716 0.3926 0.49956 0.0
C2042 C 0.86819 0.41868 0.48817 0.0
C2043 C 0.88762 0.43928 0.49492 0.0
H2044 H 0.21854 0.72775 0.55004 0.0
H2045 H 0.25095 0.69228 0.47348 0.0
H2046 H 0.17663 0.69745 0.54868 0.0
H2047 H 0.20933 0.66188 0.47225 0.0
H2048 H 0.11793 0.63186 0.4609 0.0
H2049 H 0.15674 0.66485 0.46452 0.0
H2050 H 0.16438 0.64818 0.55297 0.0
H2051 H 0.12513 0.61504 0.54946 0.0
C2052 C 0.21679 0.7135 0.53294 0.0
C2053 C 0.23805 0.71247 0.5117 0.0
C2054 C 0.19281 0.69604 0.53224 0.0
C2055 C 0.18949 0.67736 0.51026 0.0
C2056 C 0.21089 0.67632 0.48923 0.0
C2057 C 0.23481 0.69362 0.48998 0.0
C2058 C 0.12759 0.63533 0.48124 0.0
C2059 C 0.11843 0.62059 0.50486 0.0
C2060 C 0.15004 0.65417 0.48326 0.0
C2061 C 0.16396 0.65892 0.50895 0.0
C2062 C 0.15404 0.64507 0.53288 0.0
C2063 C 0.13156 0.62605 0.53085 0.0
loop_
_geom_bond_atom_site_label_1
_geom_bond_atom_site_label_2
_geom_bond_distance
_geom_bond_site_symmetry_2
_ccdc_geom_bond_type
H0 C7 0.929 . S
H1 C10 0.930 . S
H2 C12 0.929 . S
H3 C4 0.969 . S
C4 H3 0.969 . S
C4 O5 1.550 . S
C4 H6 0.973 . S
O5 C4 1.550 . S
O5 C11 1.412 . S
H6 C4 0.973 . S
C7 H0 0.929 . S
C7 C8 1.400 . S
C7 C9 1.364 . S
C8 C7 1.400 . S
C8 C12 1.377 . S
C9 C7 1.364 . S
C9 C10 1.374 . S
C10 H1 0.930 . S
C10 C9 1.374 . S
C10 C11 1.383 . S
C11 O5 1.412 . S
C11 C10 1.383 . S
C11 C12 1.394 . S
C12 H2 0.929 . S
C12 C8 1.377 . S
C12 C11 1.394 . S
H13 C20 0.929 . S
H14 C23 0.930 . S
H15 C25 0.929 . S
H16 C17 0.969 . S
C17 H16 0.969 . S
C17 O18 1.550 . S
C17 H19 0.973 . S
O18 C17 1.550 . S
O18 C24 1.412 . S
H19 C17 0.973 . S
C20 H13 0.929 . S
C20 C21 1.400 . S
C20 C22 1.364 . S
C21 C20 1.400 . S
C21 C25 1.377 . S
C22 C20 1.364 . S
C22 C23 1.374 . S
C23 H14 0.930 . S
C23 C22 1.374 . S
C23 C24 1.383 . S
C24 O18 1.412 . S
C24 C23 1.383 . S
C24 C25 1.394 . S
C25 H15 0.929 . S
C25 C21 1.377 . S
C25 C24 1.394 . S
H26 C33 0.929 . S
H27 C36 0.930 . S
H28 C38 0.929 . S
H29 C30 0.973 . S
C30 H29 0.973 . S
C30 O31 1.550 . S
C30 H32 0.973 . S
O31 C30 1.550 . S
O31 C37 1.412 . S
H32 C30 0.973 . S
C33 H26 0.929 . S
C33 C34 1.400 . S
C33 C35 1.364 . S
C34 C33 1.400 . S
C34 C38 1.377 . S
C35 C33 1.364 . S
C35 C36 1.374 . S
C36 H27 0.930 . S
C36 C35 1.374 . S
C36 C37 1.383 . S
C37 O31 1.412 . S
C37 C36 1.383 . S
C37 C38 1.394 . S
C38 H28 0.929 . S
C38 C34 1.377 . S
C38 C37 1.394 . S
H39 C46 0.929 . S
H40 C49 0.930 . S
H41 C51 0.929 . S
H42 C43 0.969 . S
C43 H42 0.969 . S
C43 O44 1.550 1_545 S
C43 H45 0.973 1_545 S
O44 C43 1.550 1_565 S
O44 C50 1.412 1_565 S
H45 C43 0.973 1_565 S
C46 H39 0.929 . S
C46 C47 1.400 . S
C46 C48 1.364 . S
C47 C46 1.400 . S
C47 C51 1.377 . S
C48 C46 1.364 . S
C48 C49 1.374 . S
C49 H40 0.930 . S
C49 C48 1.374 . S
C49 C50 1.383 . S
C50 O44 1.412 1_545 S
C50 C49 1.383 . S
C50 C51 1.394 . S
C51 H41 0.929 . S
C51 C47 1.377 . S
C51 C50 1.394 . S
H52 C59 0.930 . S
H53 C62 0.930 . S
H54 C64 0.928 . S
H55 C56 0.969 . S
C56 H55 0.969 . S
C56 O57 1.550 1_655 S
C56 H58 0.973 1_655 S
O57 C56 1.550 1_455 S
O57 C63 1.402 1_455 S
H58 C56 0.973 1_455 S
C59 H52 0.930 . S
C59 C60 1.400 . S
C59 C61 1.364 . S
C60 C59 1.400 . S
C60 C64 1.377 . S
C61 C59 1.364 . S
C61 C62 1.374 . S
C62 H53 0.930 . S
C62 C61 1.374 . S
C62 C63 1.382 1_455 S
C63 O57 1.402 1_655 S
C63 C62 1.382 1_655 S
C63 C64 1.393 1_655 S
C64 H54 0.928 . S
C64 C60 1.377 . S
C64 C63 1.393 1_455 S
H65 C72 0.929 . S
H66 C75 0.930 . S
H67 C77 0.929 . S
H68 C69 0.956 1_565 S
C69 H68 0.956 1_545 S
C69 O70 1.555 . S
C69 H71 0.979 . S
O70 C69 1.555 . S
O70 C76 1.412 . S
H71 C69 0.979 . S
C72 H65 0.929 . S
C72 C73 1.400 . S
C72 C74 1.364 . S
C73 C72 1.400 . S
C73 C77 1.377 . S
C74 C72 1.364 . S
C74 C75 1.374 . S
C75 H66 0.930 . S
C75 C74 1.374 . S
C75 C76 1.383 . S
C76 O70 1.412 . S
C76 C75 1.383 . S
C76 C77 1.394 . S
C77 H67 0.929 . S
C77 C73 1.377 . S
C77 C76 1.394 . S
H78 C85 0.929 . S
H79 C88 0.930 . S
H80 C90 0.929 . S
H81 C82 0.948 1_655 S
C82 H81 0.948 1_455 S
C82 O83 1.550 . S
C82 H84 0.973 . S
O83 C82 1.550 . S
O83 C89 1.412 . S
H84 C82 0.973 . S
C85 H78 0.929 . S
C85 C86 1.400 . S
C85 C87 1.364 . S
C86 C85 1.400 . S
C86 C90 1.377 . S
C87 C85 1.364 . S
C87 C88 1.374 . S
C88 H79 0.930 . S
C88 C87 1.374 . S
C88 C89 1.383 . S
C89 O83 1.412 . S
C89 C88 1.383 . S
C89 C90 1.394 . S
C90 H80 0.929 . S
C90 C86 1.377 . S
C90 C89 1.394 . S
H91 C98 0.929 . S
H92 C101 0.930 . S
H93 C103 0.929 . S
H94 C95 0.969 . S
C95 H94 0.969 . S
C95 O96 1.550 . S
C95 H97 0.973 . S
O96 C95 1.550 . S
O96 C102 1.412 . S
H97 C95 0.973 . S
C98 H91 0.929 . S
C98 C99 1.400 . S
C98 C100 1.364 . S
C99 C98 1.400 . S
C99 C103 1.377 . S
C100 C98 1.364 . S
C100 C101 1.374 . S
C101 H92 0.930 . S
C101 C100 1.374 . S
C101 C102 1.383 . S
C102 O96 1.412 . S
C102 C101 1.383 . S
C102 C103 1.394 . S
C103 H93 0.929 . S
C103 C99 1.377 . S
C103 C102 1.394 . S
H104 C111 0.929 . S
H105 C114 0.930 . S
H106 C116 0.929 . S
H107 C108 0.969 . S
C108 H107 0.969 . S
C108 O109 1.550 . S
C108 H110 0.973 . S
O109 C108 1.550 . S
O109 C115 1.412 . S
H110 C108 0.973 . S
C111 H104 0.929 . S
C111 C112 1.400 . S
C111 C113 1.364 . S
C112 C111 1.400 . S
C112 C116 1.377 . S
C113 C111 1.364 . S
C113 C114 1.374 . S
C114 H105 0.930 . S
C114 C113 1.374 . S
C114 C115 1.383 . S
C115 O109 1.412 . S
C115 C114 1.383 . S
C115 C116 1.394 . S
C116 H106 0.929 . S
C116 C112 1.377 . S
C116 C115 1.394 . S
H117 C124 0.929 . S
H118 C127 0.930 . S
H119 C129 0.929 . S
H120 C121 0.969 1_556 S
C121 H120 0.969 1_554 S
C121 O122 1.550 . S
C121 H123 0.973 . S
O122 C121 1.550 . S
O122 C128 1.412 . S
H123 C121 0.973 . S
C124 H117 0.929 . S
C124 C125 1.400 . S
C124 C126 1.364 . S
C125 C124 1.400 . S
C125 C129 1.377 . S
C126 C124 1.364 . S
C126 C127 1.374 . S
C127 H118 0.930 . S
C127 C126 1.374 . S
C127 C128 1.383 . S
C128 O122 1.412 . S
C128 C127 1.383 . S
C128 C129 1.394 . S
C129 H119 0.929 . S
C129 C125 1.377 . S
C129 C128 1.394 . S
H130 C137 0.928 . S
H131 C140 0.933 . S
H132 C142 0.928 . S
H133 C134 0.969 . S
C134 H133 0.969 . S
C134 O135 1.550 1_556 S
C134 H136 0.973 1_556 S
O135 C134 1.550 1_554 S
O135 C141 1.411 1_554 S
H136 C134 0.973 1_554 S
C137 H130 0.928 . S
C137 C138 1.399 . S
C137 C139 1.364 . S
C138 C137 1.399 . S
C138 C142 1.377 . S
C139 C137 1.364 . S
C139 C140 1.374 . S
C140 H131 0.933 . S
C140 C139 1.374 . S
C140 C141 1.382 1_554 S
C141 O135 1.411 1_556 S
C141 C140 1.382 1_556 S
C141 C142 1.394 1_556 S
C142 H132 0.928 . S
C142 C138 1.377 . S
C142 C141 1.394 1_554 S
H143 C150 0.929 . S
H144 C153 0.930 . S
H145 C155 0.929 . S
H146 C147 0.969 . S
C147 H146 0.969 . S
C147 O148 1.550 1_554 S
C147 H149 0.956 1_554 S
O148 C147 1.550 1_556 S
O148 C154 1.412 1_556 S
H149 C147 0.956 1_556 S
C150 H143 0.929 . S
C150 C151 1.400 . S
C150 C152 1.364 . S
C151 C150 1.400 . S
C151 C155 1.377 . S
C152 C150 1.364 . S
C152 C153 1.374 . S
C153 H144 0.930 . S
C153 C152 1.374 . S
C153 C154 1.383 . S
C154 O148 1.412 1_554 S
C154 C153 1.383 . S
C154 C155 1.394 . S
C155 H145 0.929 . S
C155 C151 1.377 . S
C155 C154 1.394 . S
H156 C163 0.929 . S
H157 C166 0.930 . S
H158 C168 0.929 . S
H159 C160 0.969 . S
C160 H159 0.969 . S
C160 O161 1.550 . S
C160 H162 0.973 . S
O161 C160 1.550 . S
O161 C167 1.412 . S
H162 C160 0.973 . S
C163 H156 0.929 . S
C163 C164 1.400 . S
C163 C165 1.364 . S
C164 C163 1.400 . S
C164 C168 1.377 . S
C165 C163 1.364 . S
C165 C166 1.374 . S
C166 H157 0.930 . S
C166 C165 1.374 . S
C166 C167 1.383 . S
C167 O161 1.412 . S
C167 C166 1.383 . S
C167 C168 1.394 . S
C168 H158 0.929 . S
C168 C164 1.377 . S
C168 C167 1.394 . S
H169 C176 0.929 . S
H170 C179 0.930 . S
H171 C181 0.929 . S
H172 C173 0.969 . S
C173 H172 0.969 . S
C173 O174 1.550 . S
C173 H175 0.973 . S
O174 C173 1.550 . S
O174 C180 1.412 . S
H175 C173 0.973 . S
C176 H169 0.929 . S
C176 C177 1.400 . S
C176 C178 1.364 . S
C177 C176 1.400 . S
C177 C181 1.377 . S
C178 C176 1.364 . S
C178 C179 1.374 . S
C179 H170 0.930 . S
C179 C178 1.374 . S
C179 C180 1.383 . S
C180 O174 1.412 . S
C180 C179 1.383 . S
C180 C181 1.394 . S
C181 H171 0.929 . S
C181 C177 1.377 . S
C181 C180 1.394 . S
H182 C189 0.929 . S
H183 C192 0.930 . S
H184 C194 0.929 . S
H185 C186 0.969 . S
C186 H185 0.969 . S
C186 O187 1.550 . S
C186 H188 0.973 . S
O187 C186 1.550 . S
O187 C193 1.412 . S
H188 C186 0.973 . S
C189 H182 0.929 . S
C189 C190 1.400 . S
C189 C191 1.364 . S
C190 C189 1.400 . S
C190 C194 1.377 . S
C191 C189 1.364 . S
C191 C192 1.374 . S
C192 H183 0.930 . S
C192 C191 1.374 . S
C192 C193 1.383 . S
C193 O187 1.412 . S
C193 C192 1.383 . S
C193 C194 1.394 . S
C194 H184 0.929 . S
C194 C190 1.377 . S
C194 C193 1.394 . S
H195 C202 0.929 . S
H196 C205 0.930 . S
H197 C207 0.929 . S
H198 C199 0.969 . S
C199 H198 0.969 . S
C199 O200 1.550 . S
C199 H201 0.973 . S
O200 C199 1.550 . S
O200 C206 1.412 . S
H201 C199 0.973 . S
C202 H195 0.929 . S
C202 C203 1.400 . S
C202 C204 1.364 . S
C203 C202 1.400 . S
C203 C207 1.377 . S
C204 C202 1.364 . S
C204 C205 1.374 . S
C205 H196 0.930 . S
C205 C204 1.374 . S
C205 C206 1.383 . S
C206 O200 1.412 . S
C206 C205 1.383 . S
C206 C207 1.394 . S
C207 H197 0.929 . S
C207 C203 1.377 . S
C207 C206 1.394 . S
H208 C215 0.929 . S
H209 C218 0.930 . S
H210 C220 0.929 . S
H211 C212 0.969 . S
C212 H211 0.969 . S
C212 O213 1.550 . S
C212 H214 0.973 . S
O213 C212 1.550 . S
O213 C219 1.412 . S
H214 C212 0.973 . S
C215 H208 0.929 . S
C215 C216 1.400 . S
C215 C217 1.364 . S
C216 C215 1.400 . S
C216 C220 1.377 . S
C217 C215 1.364 . S
C217 C218 1.374 . S
C218 H209 0.930 . S
C218 C217 1.374 . S
C218 C219 1.383 . S
C219 O213 1.412 . S
C219 C218 1.383 . S
C219 C220 1.394 . S
C220 H210 0.929 . S
C220 C216 1.377 . S
C220 C219 1.394 . S
H221 C228 0.929 . S
H222 C231 0.930 . S
H223 C233 0.929 . S
H224 C225 0.969 . S
C225 H224 0.969 . S
C225 O226 1.550 . S
C225 H227 0.973 . S
O226 C225 1.550 . S
O226 C232 1.412 . S
H227 C225 0.973 . S
C228 H221 0.929 . S
C228 C229 1.400 . S
C228 C230 1.364 . S
C229 C228 1.400 . S
C229 C233 1.377 . S
C230 C228 1.364 . S
C230 C231 1.374 . S
C231 H222 0.930 . S
C231 C230 1.374 . S
C231 C232 1.383 . S
C232 O226 1.412 . S
C232 C231 1.383 . S
C232 C233 1.394 . S
C233 H223 0.929 . S
C233 C229 1.377 . S
C233 C232 1.394 . S
H234 C241 0.929 . S
H235 C244 0.930 . S
H236 C246 0.929 . S
H237 C238 0.969 . S
C238 H237 0.969 . S
C238 O239 1.550 . S
C238 H240 0.973 . S
O239 C238 1.550 . S
O239 C245 1.412 . S
H240 C238 0.973 . S
C241 H234 0.929 . S
C241 C242 1.400 . S
C241 C243 1.364 . S
C242 C241 1.400 . S
C242 C246 1.377 . S
C243 C241 1.364 . S
C243 C244 1.374 . S
C244 H235 0.930 . S
C244 C243 1.374 . S
C244 C245 1.383 . S
C245 O239 1.412 . S
C245 C244 1.383 . S
C245 C246 1.394 . S
C246 H236 0.929 . S
C246 C242 1.377 . S
C246 C245 1.394 . S
H247 C254 0.929 . S
H248 C257 0.930 . S
H249 C259 0.929 . S
H250 C251 0.969 . S
C251 H250 0.969 . S
C251 O252 1.550 . S
C251 H253 0.973 . S
O252 C251 1.550 . S
O252 C258 1.412 . S
H253 C251 0.973 . S
C254 H247 0.929 . S
C254 C255 1.400 . S
C254 C256 1.364 . S
C255 C254 1.400 . S
C255 C259 1.377 . S
C256 C254 1.364 . S
C256 C257 1.374 . S
C257 H248 0.930 . S
C257 C256 1.374 . S
C257 C258 1.383 . S
C258 O252 1.412 . S
C258 C257 1.383 . S
C258 C259 1.394 . S
C259 H249 0.929 . S
C259 C255 1.377 . S
C259 C258 1.394 . S
H260 C267 0.929 . S
H261 C270 0.930 . S
H262 C272 0.929 . S
H263 C264 0.969 . S
C264 H263 0.969 . S
C264 O265 1.550 . S
C264 H266 0.973 . S
O265 C264 1.550 . S
O265 C271 1.412 . S
H266 C264 0.973 . S
C267 H260 0.929 . S
C267 C268 1.400 . S
C267 C269 1.364 . S
C268 C267 1.400 . S
C268 C272 1.377 . S
C269 C267 1.364 . S
C269 C270 1.374 . S
C270 H261 0.930 . S
C270 C269 1.374 . S
C270 C271 1.383 . S
C271 O265 1.412 . S
C271 C270 1.383 . S
C271 C272 1.394 . S
C272 H262 0.929 . S
C272 C268 1.377 . S
C272 C271 1.394 . S
H273 C280 0.929 . S
H274 C283 0.930 . S
H275 C285 0.929 . S
H276 C277 0.969 . S
C277 H276 0.969 . S
C277 O278 1.550 . S
C277 H279 0.973 . S
O278 C277 1.550 . S
O278 C284 1.412 . S
H279 C277 0.973 . S
C280 H273 0.929 . S
C280 C281 1.400 . S
C280 C282 1.364 . S
C281 C280 1.400 . S
C281 C285 1.377 . S
C282 C280 1.364 . S
C282 C283 1.374 . S
C283 H274 0.930 . S
C283 C282 1.374 . S
C283 C284 1.383 . S
C284 O278 1.412 . S
C284 C283 1.383 . S
C284 C285 1.394 . S
C285 H275 0.929 . S
C285 C281 1.377 . S
C285 C284 1.394 . S
H286 C293 0.929 . S
H287 C296 0.930 . S
H288 C298 0.929 . S
H289 C290 0.969 . S
C290 H289 0.969 . S
C290 O291 1.550 . S
C290 H292 0.973 . S
O291 C290 1.550 . S
O291 C297 1.412 . S
H292 C290 0.973 . S
C293 H286 0.929 . S
C293 C294 1.400 . S
C293 C295 1.364 . S
C294 C293 1.400 . S
C294 C298 1.377 . S
C295 C293 1.364 . S
C295 C296 1.374 . S
C296 H287 0.930 . S
C296 C295 1.374 . S
C296 C297 1.383 . S
C297 O291 1.412 . S
C297 C296 1.383 . S
C297 C298 1.394 . S
C298 H288 0.929 . S
C298 C294 1.377 . S
C298 C297 1.394 . S
H299 C306 0.929 . S
H300 C309 0.930 . S
H301 C311 0.929 . S
H302 C303 0.969 . S
C303 H302 0.969 . S
C303 O304 1.550 . S
C303 H305 0.973 . S
O304 C303 1.550 . S
O304 C310 1.412 . S
H305 C303 0.973 . S
C306 H299 0.929 . S
C306 C307 1.400 . S
C306 C308 1.364 . S
C307 C306 1.400 . S
C307 C311 1.377 . S
C308 C306 1.364 . S
C308 C309 1.374 . S
C309 H300 0.930 . S
C309 C308 1.374 . S
C309 C310 1.383 . S
C310 O304 1.412 . S
C310 C309 1.383 . S
C310 C311 1.394 . S
C311 H301 0.929 . S
C311 C307 1.377 . S
C311 C310 1.394 . S
Zn312 O314 1.933 1_565 S
Zn312 O332 1.985 . S
Zn312 O343 1.955 . S
Zn313 O314 1.911 . S
Zn313 O333 1.970 . S
Zn313 O349 1.945 . S
Zn313 O356 1.981 . S
O314 Zn312 1.933 1_545 S
O314 Zn313 1.911 . S
O314 H315 0.841 1_655 S
H315 O314 0.841 1_455 S
C316 O317 1.246 . S
C316 O345 1.276 . S
O317 C316 1.246 . S
Zn318 O320 1.911 . S
Zn318 O335 1.970 . S
Zn318 O352 1.945 . S
Zn318 O359 1.981 . S
Zn319 O320 1.933 1_565 S
Zn319 O334 1.985 . S
Zn319 O341 1.955 . S
O320 Zn318 1.911 . S
O320 Zn319 1.933 1_545 S
O320 H321 0.841 . S
H321 O320 0.841 . S
Zn322 O323 1.933 1_565 S
Zn322 O336 1.985 . S
Zn322 O345 1.955 . S
O323 Zn322 1.933 1_545 S
O323 Zn324 1.911 . S
O323 H325 0.841 . S
Zn324 O323 1.911 . S
Zn324 O337 1.970 . S
Zn324 O353 2.009 . S
Zn324 O355 1.945 . S
H325 O323 0.841 . S
Zn326 O327 1.933 1_565 S
Zn326 O339 1.985 . S
Zn326 O347 1.955 . S
O327 Zn326 1.933 1_545 S
O327 H328 0.841 . S
O327 Zn329 1.911 . S
H328 O327 0.841 . S
Zn329 O327 1.911 . S
Zn329 O340 1.970 . S
Zn329 O350 1.981 . S
Zn329 O358 1.945 . S
C330 O331 1.246 . S
C330 O347 1.276 . S
O331 C330 1.246 . S
O332 Zn312 1.985 . S
O332 C342 1.245 1_565 S
O333 Zn313 1.970 . S
O333 C342 1.263 . S
O334 Zn319 1.985 . S
O334 C346 1.245 1_565 S
O335 Zn318 1.970 . S
O335 C346 1.263 . S
O336 Zn322 1.985 . S
O336 C351 1.245 1_565 S
O337 Zn324 1.970 . S
O337 C351 1.263 . S
C338 O349 1.262 1_455 S
C338 O350 1.245 . S
O339 Zn326 1.985 . S
O339 C357 1.245 1_565 S
O340 Zn329 1.970 . S
O340 C357 1.263 . S
O341 Zn319 1.955 . S
O341 C360 1.276 . S
C342 O332 1.245 1_545 S
C342 O333 1.263 . S
O343 Zn312 1.955 . S
O343 C362 1.276 1_655 S
C344 O352 1.262 . S
C344 O353 1.226 1_455 S
O345 C316 1.276 . S
O345 Zn322 1.955 . S
C346 O334 1.245 1_545 S
C346 O335 1.263 . S
O347 Zn326 1.955 . S
O347 C330 1.276 . S
C348 O355 1.262 . S
C348 O356 1.245 . S
O349 Zn313 1.945 . S
O349 C338 1.262 1_655 S
O350 Zn329 1.981 . S
O350 C338 1.245 . S
C351 O336 1.245 1_545 S
C351 O337 1.263 . S
O352 Zn318 1.945 . S
O352 C344 1.262 . S
O353 Zn324 2.009 . S
O353 C344 1.226 1_655 S
C354 O358 1.262 . S
C354 O359 1.245 . S
O355 Zn324 1.945 . S
O355 C348 1.262 . S
O356 Zn313 1.981 . S
O356 C348 1.245 . S
C357 O339 1.245 1_545 S
C357 O340 1.263 . S
O358 Zn329 1.945 . S
O358 C354 1.262 . S
O359 Zn318 1.981 . S
O359 C354 1.245 . S
C360 O341 1.276 . S
C360 O361 1.246 1_455 S
O361 C360 1.246 1_655 S
C362 O343 1.276 1_455 S
C362 O363 1.246 . S
O363 C362 1.246 . S
Zn364 O366 1.933 . S
Zn364 O384 1.985 . S
Zn364 O395 1.955 . S
Zn365 O366 1.911 1_556 S
Zn365 O385 1.970 . S
Zn365 O401 1.945 . S
Zn365 O408 1.981 . S
O366 Zn364 1.933 . S
O366 Zn365 1.911 1_554 S
O366 H367 0.841 . S
H367 O366 0.841 . S
C368 O369 1.246 . S
C368 O397 1.276 . S
O369 C368 1.246 . S
Zn370 O372 1.911 1_556 S
Zn370 O387 1.970 . S
Zn370 O404 1.945 . S
Zn370 O411 1.981 . S
Zn371 O372 1.933 . S
Zn371 O386 1.985 . S
Zn371 O393 1.955 . S
O372 Zn370 1.911 1_554 S
O372 Zn371 1.933 . S
O372 H373 0.841 1_565 S
H373 O372 0.841 1_545 S
Zn374 O375 1.933 . S
Zn374 O388 1.985 . S
Zn374 O397 1.955 . S
O375 Zn374 1.933 . S
O375 Zn376 1.911 1_554 S
O375 H377 0.841 . S
Zn376 O375 1.911 1_556 S
Zn376 O389 1.970 . S
Zn376 O405 1.981 . S
Zn376 O407 1.945 . S
H377 O375 0.841 . S
Zn378 O379 1.933 . S
Zn378 O391 1.985 . S
Zn378 O399 1.955 . S
O379 Zn378 1.933 . S
O379 H380 0.841 . S
O379 Zn381 1.911 1_554 S
H380 O379 0.841 . S
Zn381 O379 1.911 1_556 S
Zn381 O392 1.970 . S
Zn381 O402 1.981 1_565 S
Zn381 O410 1.945 . S
C382 O383 1.246 . S
C382 O399 1.276 . S
O383 C382 1.246 . S
O384 Zn364 1.985 . S
O384 C394 1.245 . S
O385 Zn365 1.970 . S
O385 C394 1.263 1_556 S
O386 Zn371 1.985 . S
O386 C398 1.245 . S
O387 Zn370 1.970 . S
O387 C398 1.263 1_556 S
O388 Zn374 1.985 . S
O388 C403 1.245 . S
O389 Zn376 1.970 . S
O389 C403 1.263 1_556 S
C390 O401 1.262 . S
C390 O402 1.245 . S
O391 Zn378 1.985 . S
O391 C409 1.245 . S
O392 Zn381 1.970 . S
O392 C409 1.263 1_556 S
O393 Zn371 1.955 . S
O393 C412 1.276 1_565 S
C394 O384 1.245 . S
C394 O385 1.263 1_554 S
O395 Zn364 1.955 . S
O395 C414 1.276 . S
C396 O404 1.262 1_545 S
C396 O405 1.245 . S
O397 C368 1.276 . S
O397 Zn374 1.955 . S
C398 O386 1.245 . S
C398 O387 1.263 1_554 S
O399 Zn378 1.955 . S
O399 C382 1.276 . S
C400 O407 1.262 . S
C400 O408 1.245 . S
O401 Zn365 1.945 . S
O401 C390 1.262 . S
O402 Zn381 1.981 1_545 S
O402 C390 1.245 . S
C403 O388 1.245 . S
C403 O389 1.263 1_554 S
O404 Zn370 1.945 . S
O404 C396 1.262 1_565 S
O405 Zn376 1.981 . S
O405 C396 1.245 . S
C406 O410 1.262 . S
C406 O411 1.245 . S
O407 Zn376 1.945 . S
O407 C400 1.262 . S
O408 Zn365 1.981 . S
O408 C400 1.245 . S
C409 O391 1.245 . S
C409 O392 1.263 1_554 S
O410 Zn381 1.945 . S
O410 C406 1.262 . S
O411 Zn370 1.981 . S
O411 C406 1.245 . S
C412 O393 1.276 1_545 S
C412 O413 1.246 . S
O413 C412 1.246 . S
C414 O395 1.276 . S
C414 O415 1.262 . S
O415 C414 1.262 . S
Zn416 O418 1.933 1_655 S
Zn416 O436 1.985 . S
Zn416 O447 1.955 1_655 S
Zn417 O418 1.911 1_655 S
Zn417 O437 1.970 . S
Zn417 O453 1.945 . S
Zn417 O460 1.981 . S
O418 Zn416 1.933 1_455 S
O418 Zn417 1.911 1_455 S
O418 H419 0.841 . S
H419 O418 0.841 . S
C420 O421 1.246 1_554 S
C420 O449 1.276 . S
O421 C420 1.246 1_556 S
Zn422 O424 1.911 . S
Zn422 O439 1.970 . S
Zn422 O456 1.945 . S
Zn422 O463 1.981 . S
Zn423 O424 1.933 . S
Zn423 O438 1.985 . S
Zn423 O445 1.955 . S
O424 Zn422 1.911 . S
O424 Zn423 1.933 . S
O424 H425 0.841 . S
H425 O424 0.841 . S
Zn426 O427 1.933 . S
Zn426 O440 1.985 . S
Zn426 O449 1.955 . S
O427 Zn426 1.933 . S
O427 Zn428 1.911 . S
O427 H429 0.841 . S
Zn428 O427 1.911 . S
Zn428 O441 1.970 . S
Zn428 O457 1.981 1_655 S
Zn428 O459 1.945 . S
H429 O427 0.841 . S
Zn430 O431 1.933 . S
Zn430 O443 1.985 . S
Zn430 O451 1.955 . S
O431 Zn430 1.933 . S
O431 H432 0.841 1_556 S
O431 Zn433 1.911 . S
H432 O431 0.841 1_554 S
Zn433 O431 1.911 . S
Zn433 O444 1.970 . S
Zn433 O454 1.981 . S
Zn433 O462 1.945 . S
C434 O435 1.246 . S
C434 O451 1.276 1_554 S
O435 C434 1.246 . S
O436 Zn416 1.985 . S
O436 C446 1.245 . S
O437 Zn417 1.970 . S
O437 C446 1.263 . S
O438 Zn423 1.985 . S
O438 C450 1.245 . S
O439 Zn422 1.970 . S
O439 C450 1.263 . S
O440 Zn426 1.985 . S
O440 C455 1.245 . S
O441 Zn428 1.970 . S
O441 C455 1.263 . S
C442 O453 1.262 1_455 S
C442 O454 1.245 . S
O443 Zn430 1.985 . S
O443 C461 1.245 . S
O444 Zn433 1.970 . S
O444 C461 1.263 . S
O445 Zn423 1.955 . S
O445 C464 1.276 . S
C446 O436 1.245 . S
C446 O437 1.263 . S
O447 Zn416 1.955 1_455 S
O447 C466 1.276 . S
C448 O456 1.262 . S
C448 O457 1.245 . S
O449 C420 1.276 . S
O449 Zn426 1.955 . S
C450 O438 1.245 . S
C450 O439 1.263 . S
O451 Zn430 1.955 . S
O451 C434 1.276 1_556 S
C452 O459 1.262 . S
C452 O460 1.245 1_554 S
O453 Zn417 1.945 . S
O453 C442 1.262 1_655 S
O454 Zn433 1.981 . S
O454 C442 1.245 . S
C455 O440 1.245 . S
C455 O441 1.263 . S
O456 Zn422 1.945 . S
O456 C448 1.262 . S
O457 Zn428 1.981 1_455 S
O457 C448 1.245 . S
C458 O462 1.262 1_554 S
C458 O463 1.245 . S
O459 Zn428 1.945 . S
O459 C452 1.262 . S
O460 Zn417 1.981 . S
O460 C452 1.245 1_556 S
C461 O443 1.245 . S
C461 O444 1.263 . S
O462 Zn433 1.945 . S
O462 C458 1.262 1_556 S
O463 Zn422 1.981 . S
O463 C458 1.245 . S
C464 O445 1.276 . S
C464 O465 1.246 . S
O465 C464 1.246 . S
C466 O447 1.276 . S
C466 O467 1.246 . S
O467 C466 1.246 . S
Zn468 O470 1.933 1_556 S
Zn468 O488 1.985 . S
Zn468 O499 1.955 . S
Zn469 O470 1.911 . S
Zn469 O489 1.970 . S
Zn469 O505 1.945 . S
Zn469 O512 1.981 . S
O470 Zn468 1.933 1_554 S
O470 Zn469 1.911 . S
O470 H471 0.841 . S
H471 O470 0.841 . S
C472 O473 1.246 . S
C472 O501 1.276 . S
O473 C472 1.246 . S
Zn474 O476 1.911 . S
Zn474 O491 1.970 . S
Zn474 O508 1.945 . S
Zn474 O515 1.981 . S
Zn475 O476 1.933 1_556 S
Zn475 O490 1.985 . S
Zn475 O497 1.955 . S
O476 Zn474 1.911 . S
O476 Zn475 1.933 1_554 S
O476 H477 0.841 . S
H477 O476 0.841 . S
Zn478 O479 1.933 1_556 S
Zn478 O492 1.985 . S
Zn478 O501 1.955 . S
O479 Zn478 1.933 1_554 S
O479 Zn480 1.911 . S
O479 H481 0.841 . S
Zn480 O479 1.911 . S
Zn480 O493 1.970 . S
Zn480 O509 1.981 . S
Zn480 O511 1.945 . S
H481 O479 0.841 . S
Zn482 O483 1.933 1_556 S
Zn482 O495 1.985 . S
Zn482 O503 1.955 . S
O483 Zn482 1.933 1_554 S
O483 H484 0.841 . S
O483 Zn485 1.911 . S
H484 O483 0.841 . S
Zn485 O483 1.911 . S
Zn485 O496 1.970 . S
Zn485 O506 1.981 . S
Zn485 O514 1.945 . S
C486 O487 1.246 . S
C486 O503 1.276 . S
O487 C486 1.246 . S
O488 Zn468 1.985 . S
O488 C498 1.245 1_556 S
O489 Zn469 1.970 . S
O489 C498 1.263 . S
O490 Zn475 1.985 . S
O490 C502 1.245 1_556 S
O491 Zn474 1.970 . S
O491 C502 1.263 . S
O492 Zn478 1.985 . S
O492 C507 1.245 1_556 S
O493 Zn480 1.970 . S
O493 C507 1.263 . S
C494 O505 1.262 . S
C494 O506 1.245 . S
O495 Zn482 1.985 . S
O495 C513 1.245 1_556 S
O496 Zn485 1.970 . S
O496 C513 1.263 . S
O497 Zn475 1.955 . S
O497 C516 1.276 . S
C498 O488 1.245 1_554 S
C498 O489 1.263 . S
O499 Zn468 1.955 . S
O499 C518 1.276 . S
C500 O508 1.262 . S
C500 O509 1.245 . S
O501 C472 1.276 . S
O501 Zn478 1.955 . S
C502 O490 1.245 1_554 S
C502 O491 1.263 . S
O503 Zn482 1.955 . S
O503 C486 1.276 . S
C504 O511 1.262 . S
C504 O512 1.245 . S
O505 Zn469 1.945 . S
O505 C494 1.262 . S
O506 Zn485 1.981 . S
O506 C494 1.245 . S
C507 O492 1.245 1_554 S
C507 O493 1.263 . S
O508 Zn474 1.945 . S
O508 C500 1.262 . S
O509 Zn480 1.981 . S
O509 C500 1.245 . S
C510 O514 1.262 . S
C510 O515 1.245 . S
O511 Zn480 1.945 . S
O511 C504 1.262 . S
O512 Zn469 1.981 . S
O512 C504 1.245 . S
C513 O495 1.245 1_554 S
C513 O496 1.263 . S
O514 Zn485 1.945 . S
O514 C510 1.262 . S
O515 Zn474 1.981 . S
O515 C510 1.245 . S
C516 O497 1.276 . S
C516 O517 1.246 . S
O517 C516 1.246 . S
C518 O499 1.276 . S
C518 O519 1.246 . S
O519 C518 1.246 . S
Zn520 O522 1.933 . S
Zn520 O540 1.985 . S
Zn520 O551 1.955 1_655 S
Zn521 O522 1.911 . S
Zn521 O541 1.970 . S
Zn521 O557 1.945 . S
Zn521 O564 1.981 . S
O522 Zn520 1.933 . S
O522 Zn521 1.911 . S
O522 H523 0.841 1_655 S
H523 O522 0.841 1_455 S
C524 O525 1.246 . S
C524 O553 1.276 . S
O525 C524 1.246 . S
Zn526 O528 1.911 . S
Zn526 O543 1.970 . S
Zn526 O560 1.945 . S
Zn526 O567 1.981 . S
Zn527 O528 1.933 . S
Zn527 O542 1.985 . S
Zn527 O549 1.955 . S
O528 Zn526 1.911 . S
O528 Zn527 1.933 . S
O528 H529 0.841 . S
H529 O528 0.841 . S
Zn530 O531 1.933 . S
Zn530 O544 1.985 . S
Zn530 O553 1.955 . S
O531 Zn530 1.933 . S
O531 Zn532 1.911 . S
O531 H533 0.841 . S
Zn532 O531 1.911 . S
Zn532 O545 1.970 . S
Zn532 O561 1.981 1_655 S
Zn532 O563 1.945 . S
H533 O531 0.841 . S
Zn534 O535 1.933 . S
Zn534 O547 1.985 . S
Zn534 O555 1.955 . S
O535 Zn534 1.933 . S
O535 H536 0.841 . S
O535 Zn537 1.911 . S
H536 O535 0.841 . S
Zn537 O535 1.911 . S
Zn537 O548 1.970 . S
Zn537 O558 1.981 . S
Zn537 O566 1.945 . S
C538 O539 1.246 . S
C538 O555 1.276 . S
O539 C538 1.246 . S
O540 Zn520 1.985 . S
O540 C550 1.245 . S
O541 Zn521 1.970 . S
O541 C550 1.263 . S
O542 Zn527 1.985 . S
O542 C554 1.245 . S
O543 Zn526 1.970 . S
O543 C554 1.263 . S
O544 Zn530 1.985 . S
O544 C559 1.245 . S
O545 Zn532 1.970 . S
O545 C559 1.263 . S
C546 O557 1.262 1_455 S
C546 O558 1.245 . S
O547 Zn534 1.985 . S
O547 C565 1.245 . S
O548 Zn537 1.970 . S
O548 C565 1.263 . S
O549 Zn527 1.955 . S
O549 C568 1.276 . S
C550 O540 1.245 . S
C550 O541 1.263 . S
O551 Zn520 1.955 1_455 S
O551 C570 1.274 . S
C552 O560 1.262 . S
C552 O561 1.245 . S
O553 C524 1.276 . S
O553 Zn530 1.955 . S
C554 O542 1.245 . S
C554 O543 1.263 . S
O555 Zn534 1.955 . S
O555 C538 1.276 . S
C556 O563 1.262 . S
C556 O564 1.245 . S
O557 Zn521 1.945 . S
O557 C546 1.262 1_655 S
O558 Zn537 1.981 . S
O558 C546 1.245 . S
C559 O544 1.245 . S
C559 O545 1.263 . S
O560 Zn526 1.945 . S
O560 C552 1.262 . S
O561 Zn532 1.981 1_455 S
O561 C552 1.245 . S
C562 O566 1.262 . S
C562 O567 1.245 . S
O563 Zn532 1.945 . S
O563 C556 1.262 . S
O564 Zn521 1.981 . S
O564 C556 1.245 . S
C565 O547 1.245 . S
C565 O548 1.263 . S
O566 Zn537 1.945 . S
O566 C562 1.262 . S
O567 Zn526 1.981 . S
O567 C562 1.245 . S
C568 O549 1.276 . S
C568 O569 1.246 . S
O569 C568 1.246 . S
C570 O551 1.274 . S
C570 O571 1.246 . S
O571 C570 1.246 . S
Zn572 O574 1.933 1_565 S
Zn572 O592 1.985 . S
Zn572 O603 1.955 . S
Zn573 O574 1.911 . S
Zn573 O593 1.970 . S
Zn573 O609 1.945 . S
Zn573 O616 1.981 . S
O574 Zn572 1.933 1_545 S
O574 Zn573 1.911 . S
O574 H575 0.841 . S
H575 O574 0.841 . S
C576 O577 1.246 . S
C576 O605 1.276 . S
O577 C576 1.246 . S
Zn578 O580 1.911 . S
Zn578 O595 1.970 . S
Zn578 O612 1.945 . S
Zn578 O619 1.981 . S
Zn579 O580 1.933 1_565 S
Zn579 O594 1.985 . S
Zn579 O601 1.955 . S
O580 Zn578 1.911 . S
O580 Zn579 1.933 1_545 S
O580 H581 0.841 . S
H581 O580 0.841 . S
Zn582 O583 1.933 1_565 S
Zn582 O596 1.985 . S
Zn582 O605 1.955 . S
O583 Zn582 1.933 1_545 S
O583 Zn584 1.911 . S
O583 H585 0.841 . S
Zn584 O583 1.911 . S
Zn584 O597 1.970 . S
Zn584 O613 1.981 . S
Zn584 O615 1.945 . S
H585 O583 0.841 . S
Zn586 O587 1.933 1_565 S
Zn586 O599 1.985 . S
Zn586 O607 1.955 . S
O587 Zn586 1.933 1_545 S
O587 H588 0.841 . S
O587 Zn589 1.911 . S
H588 O587 0.841 . S
Zn589 O587 1.911 . S
Zn589 O600 1.970 . S
Zn589 O610 1.981 . S
Zn589 O618 1.945 . S
C590 O591 1.246 . S
C590 O607 1.276 . S
O591 C590 1.246 . S
O592 Zn572 1.985 . S
O592 C602 1.245 1_565 S
O593 Zn573 1.970 . S
O593 C602 1.263 . S
O594 Zn579 1.985 . S
O594 C606 1.245 1_565 S
O595 Zn578 1.970 . S
O595 C606 1.263 . S
O596 Zn582 1.985 . S
O596 C611 1.245 1_565 S
O597 Zn584 1.970 . S
O597 C611 1.263 . S
C598 O609 1.262 . S
C598 O610 1.245 . S
O599 Zn586 1.985 . S
O599 C617 1.245 1_565 S
O600 Zn589 1.970 . S
O600 C617 1.263 . S
O601 Zn579 1.955 . S
O601 C620 1.276 . S
C602 O592 1.245 1_545 S
C602 O593 1.263 . S
O603 Zn572 1.955 . S
O603 C622 1.276 . S
C604 O612 1.262 . S
C604 O613 1.245 . S
O605 C576 1.276 . S
O605 Zn582 1.955 . S
C606 O594 1.245 1_545 S
C606 O595 1.263 . S
O607 Zn586 1.955 . S
O607 C590 1.276 . S
C608 O615 1.262 . S
C608 O616 1.245 . S
O609 Zn573 1.945 . S
O609 C598 1.262 . S
O610 Zn589 1.981 . S
O610 C598 1.245 . S
C611 O596 1.245 1_545 S
C611 O597 1.263 . S
O612 Zn578 1.945 . S
O612 C604 1.262 . S
O613 Zn584 1.981 . S
O613 C604 1.245 . S
C614 O618 1.262 . S
C614 O619 1.245 . S
O615 Zn584 1.945 . S
O615 C608 1.262 . S
O616 Zn573 1.981 . S
O616 C608 1.245 . S
C617 O599 1.245 1_545 S
C617 O600 1.263 . S
O618 Zn589 1.945 . S
O618 C614 1.262 . S
O619 Zn578 1.981 . S
O619 C614 1.245 . S
C620 O601 1.276 . S
C620 O621 1.246 . S
O621 C620 1.246 . S
C622 O603 1.276 . S
C622 O623 1.246 . S
O623 C622 1.246 . S
H624 C632 0.950 . S
H625 C637 0.950 . S
H626 C634 0.950 . S
H627 C636 0.950 . S
H628 C638 0.950 . S
H629 C640 0.950 . S
H630 C642 0.950 . S
H631 C643 0.950 . S
C632 H624 0.950 . S
C632 C633 1.386 . S
C632 C634 1.391 . S
C633 C632 1.386 . S
C633 C637 1.393 . S
C634 H626 0.950 . S
C634 C632 1.391 . S
C634 C635 1.400 . S
C635 C634 1.400 . S
C635 C636 1.398 . S
C635 C641 1.491 . S
C636 H627 0.950 . S
C636 C635 1.398 . S
C636 C637 1.391 . S
C637 H625 0.950 . S
C637 C633 1.393 . S
C637 C636 1.391 . S
C638 H628 0.950 . S
C638 C639 1.386 . S
C638 C640 1.391 . S
C639 C638 1.386 . S
C639 C643 1.393 . S
C640 H629 0.950 . S
C640 C638 1.391 . S
C640 C641 1.400 . S
C641 C635 1.491 . S
C641 C640 1.400 . S
C641 C642 1.398 . S
C642 H630 0.950 . S
C642 C641 1.398 . S
C642 C643 1.391 . S
C643 H631 0.950 . S
C643 C639 1.393 . S
C643 C642 1.391 . S
H644 C652 0.950 . S
H645 C657 0.950 . S
H646 C654 0.950 . S
H647 C656 0.950 . S
H648 C658 0.950 . S
H649 C660 0.950 . S
H650 C662 0.950 . S
H651 C663 0.950 . S
C652 H644 0.950 . S
C652 C653 1.386 . S
C652 C654 1.391 . S
C653 C652 1.386 . S
C653 C657 1.393 . S
C654 H646 0.950 . S
C654 C652 1.391 . S
C654 C655 1.400 . S
C655 C654 1.400 . S
C655 C656 1.398 . S
C655 C661 1.491 . S
C656 H647 0.950 . S
C656 C655 1.398 . S
C656 C657 1.391 . S
C657 H645 0.950 . S
C657 C653 1.393 . S
C657 C656 1.391 . S
C658 H648 0.950 . S
C658 C659 1.386 . S
C658 C660 1.391 . S
C659 C658 1.386 . S
C659 C663 1.393 . S
C660 H649 0.950 . S
C660 C658 1.391 . S
C660 C661 1.400 . S
C661 C655 1.491 . S
C661 C660 1.400 . S
C661 C662 1.398 . S
C662 H650 0.950 . S
C662 C661 1.398 . S
C662 C663 1.391 . S
C663 H651 0.950 . S
C663 C659 1.393 . S
C663 C662 1.391 . S
H664 C672 0.950 . S
H665 C677 0.950 . S
H666 C674 0.950 . S
H667 C676 0.950 . S
H668 C678 0.950 . S
H669 C680 0.950 . S
H670 C682 0.950 . S
H671 C683 0.950 . S
C672 H664 0.950 . S
C672 C673 1.386 . S
C672 C674 1.391 . S
C673 C672 1.386 . S
C673 C677 1.393 . S
C674 H666 0.950 . S
C674 C672 1.391 . S
C674 C675 1.400 . S
C675 C674 1.400 . S
C675 C676 1.398 . S
C675 C681 1.491 . S
C676 H667 0.950 . S
C676 C675 1.398 . S
C676 C677 1.391 . S
C677 H665 0.950 . S
C677 C673 1.393 . S
C677 C676 1.391 . S
C678 H668 0.950 . S
C678 C679 1.386 . S
C678 C680 1.391 . S
C679 C678 1.386 . S
C679 C683 1.393 . S
C680 H669 0.950 . S
C680 C678 1.391 . S
C680 C681 1.400 . S
C681 C675 1.491 . S
C681 C680 1.400 . S
C681 C682 1.398 . S
C682 H670 0.950 . S
C682 C681 1.398 . S
C682 C683 1.391 . S
C683 H671 0.950 . S
C683 C679 1.393 . S
C683 C682 1.391 . S
H684 C692 0.950 . S
H685 C697 0.950 . S
H686 C694 0.950 . S
H687 C696 0.950 . S
H688 C698 0.950 . S
H689 C700 0.950 . S
H690 C702 0.950 . S
H691 C703 0.950 . S
C692 H684 0.950 . S
C692 C693 1.386 . S
C692 C694 1.391 . S
C693 C692 1.386 . S
C693 C697 1.393 . S
C694 H686 0.950 . S
C694 C692 1.391 . S
C694 C695 1.400 . S
C695 C694 1.400 . S
C695 C696 1.398 . S
C695 C701 1.491 . S
C696 H687 0.950 . S
C696 C695 1.398 . S
C696 C697 1.391 . S
C697 H685 0.950 . S
C697 C693 1.393 . S
C697 C696 1.391 . S
C698 H688 0.950 . S
C698 C699 1.386 . S
C698 C700 1.391 . S
C699 C698 1.386 . S
C699 C703 1.393 . S
C700 H689 0.950 . S
C700 C698 1.391 . S
C700 C701 1.400 . S
C701 C695 1.491 . S
C701 C700 1.400 . S
C701 C702 1.398 . S
C702 H690 0.950 . S
C702 C701 1.398 . S
C702 C703 1.391 . S
C703 H691 0.950 . S
C703 C699 1.393 . S
C703 C702 1.391 . S
H704 C712 0.950 . S
H705 C717 0.950 . S
H706 C714 0.950 . S
H707 C716 0.950 . S
H708 C718 0.950 . S
H709 C720 0.950 . S
H710 C722 0.950 . S
H711 C723 0.950 . S
C712 H704 0.950 . S
C712 C713 1.386 . S
C712 C714 1.391 . S
C713 C712 1.386 . S
C713 C717 1.393 . S
C714 H706 0.950 . S
C714 C712 1.391 . S
C714 C715 1.400 . S
C715 C714 1.400 . S
C715 C716 1.398 . S
C715 C721 1.491 . S
C716 H707 0.950 . S
C716 C715 1.398 . S
C716 C717 1.391 . S
C717 H705 0.950 . S
C717 C713 1.393 . S
C717 C716 1.391 . S
C718 H708 0.950 . S
C718 C719 1.386 . S
C718 C720 1.391 . S
C719 C718 1.386 . S
C719 C723 1.393 . S
C720 H709 0.950 . S
C720 C718 1.391 . S
C720 C721 1.400 . S
C721 C715 1.491 . S
C721 C720 1.400 . S
C721 C722 1.398 . S
C722 H710 0.950 . S
C722 C721 1.398 . S
C722 C723 1.391 . S
C723 H711 0.950 . S
C723 C719 1.393 . S
C723 C722 1.391 . S
H724 C732 0.950 . S
H725 C737 0.950 . S
H726 C734 0.950 . S
H727 C736 0.950 . S
H728 C738 0.950 . S
H729 C740 0.950 . S
H730 C742 0.950 . S
H731 C743 0.950 . S
C732 H724 0.950 . S
C732 C733 1.386 . S
C732 C734 1.391 . S
C733 C732 1.386 . S
C733 C737 1.393 . S
C734 H726 0.950 . S
C734 C732 1.391 . S
C734 C735 1.400 . S
C735 C734 1.400 . S
C735 C736 1.398 . S
C735 C741 1.491 . S
C736 H727 0.950 . S
C736 C735 1.398 . S
C736 C737 1.391 . S
C737 H725 0.950 . S
C737 C733 1.393 . S
C737 C736 1.391 . S
C738 H728 0.950 . S
C738 C739 1.386 . S
C738 C740 1.391 . S
C739 C738 1.386 . S
C739 C743 1.393 . S
C740 H729 0.950 . S
C740 C738 1.391 . S
C740 C741 1.400 . S
C741 C735 1.491 . S
C741 C740 1.400 . S
C741 C742 1.398 . S
C742 H730 0.950 . S
C742 C741 1.398 . S
C742 C743 1.391 . S
C743 H731 0.950 . S
C743 C739 1.393 . S
C743 C742 1.391 . S
H744 C752 0.950 . S
H745 C757 0.950 . S
H746 C754 0.950 . S
H747 C756 0.950 . S
H748 C758 0.950 . S
H749 C760 0.950 . S
H750 C762 0.950 . S
H751 C763 0.950 . S
C752 H744 0.950 . S
C752 C753 1.386 . S
C752 C754 1.391 . S
C753 C752 1.386 . S
C753 C757 1.393 . S
C754 H746 0.950 . S
C754 C752 1.391 . S
C754 C755 1.400 . S
C755 C754 1.400 . S
C755 C756 1.398 . S
C755 C761 1.491 . S
C756 H747 0.950 . S
C756 C755 1.398 . S
C756 C757 1.391 . S
C757 H745 0.950 . S
C757 C753 1.393 . S
C757 C756 1.391 . S
C758 H748 0.950 . S
C758 C759 1.386 . S
C758 C760 1.391 . S
C759 C758 1.386 . S
C759 C763 1.393 . S
C760 H749 0.950 . S
C760 C758 1.391 . S
C760 C761 1.400 . S
C761 C755 1.491 . S
C761 C760 1.400 . S
C761 C762 1.398 . S
C762 H750 0.950 . S
C762 C761 1.398 . S
C762 C763 1.391 . S
C763 H751 0.950 . S
C763 C759 1.393 . S
C763 C762 1.391 . S
H764 C772 0.950 . S
H765 C777 0.950 . S
H766 C774 0.950 . S
H767 C776 0.950 . S
H768 C778 0.950 . S
H769 C780 0.950 . S
H770 C782 0.950 . S
H771 C783 0.950 . S
C772 H764 0.950 . S
C772 C773 1.386 . S
C772 C774 1.391 . S
C773 C772 1.386 . S
C773 C777 1.393 . S
C774 H766 0.950 . S
C774 C772 1.391 . S
C774 C775 1.400 . S
C775 C774 1.400 . S
C775 C776 1.398 . S
C775 C781 1.491 . S
C776 H767 0.950 . S
C776 C775 1.398 . S
C776 C777 1.391 . S
C777 H765 0.950 . S
C777 C773 1.393 . S
C777 C776 1.391 . S
C778 H768 0.950 . S
C778 C779 1.386 . S
C778 C780 1.391 . S
C779 C778 1.386 . S
C779 C783 1.393 . S
C780 H769 0.950 . S
C780 C778 1.391 . S
C780 C781 1.400 . S
C781 C775 1.491 . S
C781 C780 1.400 . S
C781 C782 1.398 . S
C782 H770 0.950 . S
C782 C781 1.398 . S
C782 C783 1.391 . S
C783 H771 0.950 . S
C783 C779 1.393 . S
C783 C782 1.391 . S
H784 C792 0.950 . S
H785 C797 0.950 . S
H786 C794 0.950 . S
H787 C796 0.950 . S
H788 C798 0.950 . S
H789 C800 0.950 . S
H790 C802 0.950 . S
H791 C803 0.950 . S
C792 H784 0.950 . S
C792 C793 1.386 . S
C792 C794 1.391 . S
C793 C792 1.386 . S
C793 C797 1.393 . S
C794 H786 0.950 . S
C794 C792 1.391 . S
C794 C795 1.400 . S
C795 C794 1.400 . S
C795 C796 1.398 . S
C795 C801 1.491 . S
C796 H787 0.950 . S
C796 C795 1.398 . S
C796 C797 1.391 . S
C797 H785 0.950 . S
C797 C793 1.393 . S
C797 C796 1.391 . S
C798 H788 0.950 . S
C798 C799 1.386 . S
C798 C800 1.391 . S
C799 C798 1.386 . S
C799 C803 1.393 . S
C800 H789 0.950 . S
C800 C798 1.391 . S
C800 C801 1.400 . S
C801 C795 1.491 . S
C801 C800 1.400 . S
C801 C802 1.398 . S
C802 H790 0.950 . S
C802 C801 1.398 . S
C802 C803 1.391 . S
C803 H791 0.950 . S
C803 C799 1.393 . S
C803 C802 1.391 . S
H804 C812 0.950 . S
H805 C817 0.950 . S
H806 C814 0.950 . S
H807 C816 0.950 . S
H808 C818 0.950 . S
H809 C820 0.950 . S
H810 C822 0.950 . S
H811 C823 0.950 . S
C812 H804 0.950 . S
C812 C813 1.386 . S
C812 C814 1.391 . S
C813 C812 1.386 . S
C813 C817 1.393 . S
C814 H806 0.950 . S
C814 C812 1.391 . S
C814 C815 1.400 . S
C815 C814 1.400 . S
C815 C816 1.398 . S
C815 C821 1.491 . S
C816 H807 0.950 . S
C816 C815 1.398 . S
C816 C817 1.391 . S
C817 H805 0.950 . S
C817 C813 1.393 . S
C817 C816 1.391 . S
C818 H808 0.950 . S
C818 C819 1.386 . S
C818 C820 1.391 . S
C819 C818 1.386 . S
C819 C823 1.393 . S
C820 H809 0.950 . S
C820 C818 1.391 . S
C820 C821 1.400 . S
C821 C815 1.491 . S
C821 C820 1.400 . S
C821 C822 1.398 . S
C822 H810 0.950 . S
C822 C821 1.398 . S
C822 C823 1.391 . S
C823 H811 0.950 . S
C823 C819 1.393 . S
C823 C822 1.391 . S
H824 C832 0.950 . S
H825 C837 0.950 . S
H826 C834 0.950 . S
H827 C836 0.950 . S
H828 C838 0.950 . S
H829 C840 0.950 . S
H830 C842 0.950 . S
H831 C843 0.950 . S
C832 H824 0.950 . S
C832 C833 1.386 . S
C832 C834 1.391 . S
C833 C832 1.386 . S
C833 C837 1.393 . S
C834 H826 0.950 . S
C834 C832 1.391 . S
C834 C835 1.400 . S
C835 C834 1.400 . S
C835 C836 1.398 . S
C835 C841 1.491 . S
C836 H827 0.950 . S
C836 C835 1.398 . S
C836 C837 1.391 . S
C837 H825 0.950 . S
C837 C833 1.393 . S
C837 C836 1.391 . S
C838 H828 0.950 . S
C838 C839 1.386 . S
C838 C840 1.391 . S
C839 C838 1.386 . S
C839 C843 1.393 . S
C840 H829 0.950 . S
C840 C838 1.391 . S
C840 C841 1.400 . S
C841 C835 1.491 . S
C841 C840 1.400 . S
C841 C842 1.398 . S
C842 H830 0.950 . S
C842 C841 1.398 . S
C842 C843 1.391 . S
C843 H831 0.950 . S
C843 C839 1.393 . S
C843 C842 1.391 . S
H844 C852 0.950 . S
H845 C857 0.950 . S
H846 C854 0.950 . S
H847 C856 0.950 . S
H848 C858 0.950 . S
H849 C860 0.950 . S
H850 C862 0.950 . S
H851 C863 0.950 . S
C852 H844 0.950 . S
C852 C853 1.386 . S
C852 C854 1.391 . S
C853 C852 1.386 . S
C853 C857 1.393 . S
C854 H846 0.950 . S
C854 C852 1.391 . S
C854 C855 1.400 . S
C855 C854 1.400 . S
C855 C856 1.398 . S
C855 C861 1.491 . S
C856 H847 0.950 . S
C856 C855 1.398 . S
C856 C857 1.391 . S
C857 H845 0.950 . S
C857 C853 1.393 . S
C857 C856 1.391 . S
C858 H848 0.950 . S
C858 C859 1.386 . S
C858 C860 1.391 . S
C859 C858 1.386 . S
C859 C863 1.393 . S
C860 H849 0.950 . S
C860 C858 1.391 . S
C860 C861 1.400 . S
C861 C855 1.491 . S
C861 C860 1.400 . S
C861 C862 1.398 . S
C862 H850 0.950 . S
C862 C861 1.398 . S
C862 C863 1.391 . S
C863 H851 0.950 . S
C863 C859 1.393 . S
C863 C862 1.391 . S
H864 C872 0.950 . S
H865 C877 0.950 . S
H866 C874 0.950 . S
H867 C876 0.950 . S
H868 C878 0.950 . S
H869 C880 0.950 . S
H870 C882 0.950 . S
H871 C883 0.950 . S
C872 H864 0.950 . S
C872 C873 1.386 . S
C872 C874 1.391 . S
C873 C872 1.386 . S
C873 C877 1.393 1_554 S
C874 H866 0.950 . S
C874 C872 1.391 . S
C874 C875 1.400 . S
C875 C874 1.400 . S
C875 C876 1.398 1_554 S
C875 C881 1.491 . S
C876 H867 0.950 . S
C876 C875 1.398 1_556 S
C876 C877 1.391 . S
C877 H865 0.950 . S
C877 C873 1.393 1_556 S
C877 C876 1.391 . S
C878 H868 0.950 . S
C878 C879 1.386 1_556 S
C878 C880 1.391 . S
C879 C878 1.386 1_554 S
C879 C883 1.393 . S
C880 H869 0.950 . S
C880 C878 1.391 . S
C880 C881 1.400 1_556 S
C881 C875 1.491 . S
C881 C880 1.400 1_554 S
C881 C882 1.398 . S
C882 H870 0.950 . S
C882 C881 1.398 . S
C882 C883 1.391 . S
C883 H871 0.950 . S
C883 C879 1.393 . S
C883 C882 1.391 . S
H884 C892 0.950 . S
H885 C897 0.950 . S
H886 C894 0.950 . S
H887 C896 0.950 . S
H888 C898 0.950 . S
H889 C900 0.950 . S
H890 C902 0.950 . S
H891 C903 0.950 . S
C892 H884 0.950 . S
C892 C893 1.386 . S
C892 C894 1.391 . S
C893 C892 1.386 . S
C893 C897 1.393 1_554 S
C894 H886 0.950 . S
C894 C892 1.391 . S
C894 C895 1.400 . S
C895 C894 1.400 . S
C895 C896 1.398 1_554 S
C895 C901 1.491 . S
C896 H887 0.950 . S
C896 C895 1.398 1_556 S
C896 C897 1.391 . S
C897 H885 0.950 . S
C897 C893 1.393 1_556 S
C897 C896 1.391 . S
C898 H888 0.950 . S
C898 C899 1.386 1_556 S
C898 C900 1.391 . S
C899 C898 1.386 1_554 S
C899 C903 1.393 . S
C900 H889 0.950 . S
C900 C898 1.391 . S
C900 C901 1.400 1_556 S
C901 C895 1.491 . S
C901 C900 1.400 1_554 S
C901 C902 1.398 . S
C902 H890 0.950 . S
C902 C901 1.398 . S
C902 C903 1.391 . S
C903 H891 0.950 . S
C903 C899 1.393 . S
C903 C902 1.391 . S
H904 C912 0.950 . S
H905 C917 0.950 . S
H906 C914 0.950 . S
H907 C916 0.950 . S
H908 C918 0.950 . S
H909 C920 0.950 . S
H910 C922 0.950 . S
H911 C923 0.950 . S
C912 H904 0.950 . S
C912 C913 1.386 . S
C912 C914 1.391 . S
C913 C912 1.386 . S
C913 C917 1.393 . S
C914 H906 0.950 . S
C914 C912 1.391 . S
C914 C915 1.400 . S
C915 C914 1.400 . S
C915 C916 1.398 . S
C915 C921 1.491 . S
C916 H907 0.950 . S
C916 C915 1.398 . S
C916 C917 1.391 . S
C917 H905 0.950 . S
C917 C913 1.393 . S
C917 C916 1.391 . S
C918 H908 0.950 . S
C918 C919 1.386 . S
C918 C920 1.391 . S
C919 C918 1.386 . S
C919 C923 1.393 . S
C920 H909 0.950 . S
C920 C918 1.391 . S
C920 C921 1.400 . S
C921 C915 1.491 . S
C921 C920 1.400 . S
C921 C922 1.398 . S
C922 H910 0.950 . S
C922 C921 1.398 . S
C922 C923 1.391 . S
C923 H911 0.950 . S
C923 C919 1.393 . S
C923 C922 1.391 . S
H924 C932 0.950 . S
H925 C937 0.950 . S
H926 C934 0.950 . S
H927 C936 0.950 . S
H928 C938 0.950 . S
H929 C940 0.950 . S
H930 C942 0.950 . S
H931 C943 0.950 . S
C932 H924 0.950 . S
C932 C933 1.386 1_556 S
C932 C934 1.391 . S
C933 C932 1.386 1_554 S
C933 C937 1.393 . S
C934 H926 0.950 . S
C934 C932 1.391 . S
C934 C935 1.400 1_556 S
C935 C934 1.400 1_554 S
C935 C936 1.398 . S
C935 C941 1.491 . S
C936 H927 0.950 . S
C936 C935 1.398 . S
C936 C937 1.391 . S
C937 H925 0.950 . S
C937 C933 1.393 . S
C937 C936 1.391 . S
C938 H928 0.950 . S
C938 C939 1.386 . S
C938 C940 1.391 . S
C939 C938 1.386 . S
C939 C943 1.393 1_554 S
C940 H929 0.950 . S
C940 C938 1.391 . S
C940 C941 1.400 . S
C941 C935 1.491 . S
C941 C940 1.400 . S
C941 C942 1.398 1_554 S
C942 H930 0.950 . S
C942 C941 1.398 1_556 S
C942 C943 1.391 . S
C943 H931 0.950 . S
C943 C939 1.393 1_556 S
C943 C942 1.391 . S
H944 C952 0.950 . S
H945 C957 0.950 . S
H946 C954 0.950 . S
H947 C956 0.950 . S
H948 C958 0.950 . S
H949 C960 0.950 . S
H950 C962 0.950 . S
H951 C963 0.950 . S
C952 H944 0.950 . S
C952 C953 1.386 1_655 S
C952 C954 1.391 . S
C953 C952 1.386 1_455 S
C953 C957 1.393 . S
C954 H946 0.950 . S
C954 C952 1.391 . S
C954 C955 1.400 1_655 S
C955 C954 1.400 1_455 S
C955 C956 1.398 . S
C955 C961 1.491 . S
C956 H947 0.950 . S
C956 C955 1.398 . S
C956 C957 1.391 . S
C957 H945 0.950 . S
C957 C953 1.393 . S
C957 C956 1.391 . S
C958 H948 0.950 . S
C958 C959 1.386 . S
C958 C960 1.391 . S
C959 C958 1.386 . S
C959 C963 1.393 1_455 S
C960 H949 0.950 . S
C960 C958 1.391 . S
C960 C961 1.400 . S
C961 C955 1.491 . S
C961 C960 1.400 . S
C961 C962 1.398 1_455 S
C962 H950 0.950 . S
C962 C961 1.398 1_655 S
C962 C963 1.391 . S
C963 H951 0.950 . S
C963 C959 1.393 1_655 S
C963 C962 1.391 . S
H964 C972 0.950 . S
H965 C977 0.950 . S
H966 C974 0.950 . S
H967 C976 0.950 . S
H968 C978 0.950 . S
H969 C980 0.950 . S
H970 C982 0.950 . S
H971 C983 0.950 . S
C972 H964 0.950 . S
C972 C973 1.386 1_565 S
C972 C974 1.391 . S
C973 C972 1.386 1_545 S
C973 C977 1.393 . S
C974 H966 0.950 . S
C974 C972 1.391 . S
C974 C975 1.400 1_565 S
C975 C974 1.400 1_545 S
C975 C976 1.398 . S
C975 C981 1.491 . S
C976 H967 0.950 . S
C976 C975 1.398 . S
C976 C977 1.391 . S
C977 H965 0.950 . S
C977 C973 1.393 . S
C977 C976 1.391 . S
C978 H968 0.950 . S
C978 C979 1.386 . S
C978 C980 1.391 . S
C979 C978 1.386 . S
C979 C983 1.393 1_545 S
C980 H969 0.950 . S
C980 C978 1.391 . S
C980 C981 1.400 . S
C981 C975 1.491 . S
C981 C980 1.400 . S
C981 C982 1.398 1_545 S
C982 H970 0.950 . S
C982 C981 1.398 1_565 S
C982 C983 1.391 . S
C983 H971 0.950 . S
C983 C979 1.393 1_565 S
C983 C982 1.391 . S
H984 C992 0.950 . S
H985 C997 0.950 . S
H986 C994 0.950 . S
H987 C996 0.950 . S
H988 C998 0.950 . S
H989 C1000 0.950 . S
H990 C1002 0.950 . S
H991 C1003 0.950 . S
C992 H984 0.950 . S
C992 C993 1.386 . S
C992 C994 1.391 . S
C993 C992 1.386 . S
C993 C997 1.393 1_455 S
C994 H986 0.950 . S
C994 C992 1.391 . S
C994 C995 1.400 . S
C995 C994 1.400 . S
C995 C996 1.398 1_455 S
C995 C1001 1.491 . S
C996 H987 0.950 . S
C996 C995 1.398 1_655 S
C996 C997 1.391 . S
C997 H985 0.950 . S
C997 C993 1.393 1_655 S
C997 C996 1.391 . S
C998 H988 0.950 . S
C998 C999 1.386 1_655 S
C998 C1000 1.391 . S
C999 C998 1.386 1_455 S
C999 C1003 1.393 . S
C1000 H989 0.950 . S
C1000 C998 1.391 . S
C1000 C1001 1.400 1_655 S
C1001 C995 1.491 . S
C1001 C1000 1.400 1_455 S
C1001 C1002 1.398 . S
C1002 H990 0.950 . S
C1002 C1001 1.398 . S
C1002 C1003 1.391 . S
C1003 H991 0.950 . S
C1003 C999 1.393 . S
C1003 C1002 1.391 . S
H1004 C1012 0.950 . S
H1005 C1017 0.950 . S
H1006 C1014 0.950 . S
H1007 C1016 0.950 . S
H1008 C1018 0.950 1_565 S
H1009 C1020 0.950 1_565 S
H1010 C1022 0.950 . S
H1011 C1023 0.950 . S
C1012 H1004 0.950 . S
C1012 C1013 1.386 . S
C1012 C1014 1.391 . S
C1013 C1012 1.386 . S
C1013 C1017 1.393 . S
C1014 H1006 0.950 . S
C1014 C1012 1.391 . S
C1014 C1015 1.400 . S
C1015 C1014 1.400 . S
C1015 C1016 1.398 . S
C1015 C1021 1.491 . S
C1016 H1007 0.950 . S
C1016 C1015 1.398 . S
C1016 C1017 1.391 . S
C1017 H1005 0.950 . S
C1017 C1013 1.393 . S
C1017 C1016 1.391 . S
C1018 H1008 0.950 1_545 S
C1018 C1019 1.386 . S
C1018 C1020 1.391 . S
C1019 C1018 1.386 . S
C1019 C1023 1.393 . S
C1020 H1009 0.950 1_545 S
C1020 C1018 1.391 . S
C1020 C1021 1.400 . S
C1021 C1015 1.491 . S
C1021 C1020 1.400 . S
C1021 C1022 1.398 . S
C1022 H1010 0.950 . S
C1022 C1021 1.398 . S
C1022 C1023 1.391 . S
C1023 H1011 0.950 . S
C1023 C1019 1.393 . S
C1023 C1022 1.391 . S
H1024 C1032 0.950 . S
H1025 C1037 0.950 . S
H1026 C1034 0.950 . S
H1027 C1036 0.950 . S
H1028 C1038 0.950 . S
H1029 C1040 0.950 . S
H1030 C1042 0.950 . S
H1031 C1043 0.950 . S
C1032 H1024 0.950 . S
C1032 C1033 1.386 . S
C1032 C1034 1.391 . S
C1033 C1032 1.386 . S
C1033 C1037 1.393 . S
C1034 H1026 0.950 . S
C1034 C1032 1.391 . S
C1034 C1035 1.400 . S
C1035 C1034 1.400 . S
C1035 C1036 1.398 . S
C1035 C1041 1.491 . S
C1036 H1027 0.950 . S
C1036 C1035 1.398 . S
C1036 C1037 1.391 . S
C1037 H1025 0.950 . S
C1037 C1033 1.393 . S
C1037 C1036 1.391 . S
C1038 H1028 0.950 . S
C1038 C1039 1.386 . S
C1038 C1040 1.391 . S
C1039 C1038 1.386 . S
C1039 C1043 1.393 . S
C1040 H1029 0.950 . S
C1040 C1038 1.391 . S
C1040 C1041 1.400 . S
C1041 C1035 1.491 . S
C1041 C1040 1.400 . S
C1041 C1042 1.398 . S
C1042 H1030 0.950 . S
C1042 C1041 1.398 . S
C1042 C1043 1.391 . S
C1043 H1031 0.950 . S
C1043 C1039 1.393 . S
C1043 C1042 1.391 . S
H1044 C1052 0.950 . S
H1045 C1057 0.950 . S
H1046 C1054 0.950 . S
H1047 C1056 0.950 . S
H1048 C1058 0.950 . S
H1049 C1060 0.950 . S
H1050 C1062 0.950 . S
H1051 C1063 0.950 . S
C1052 H1044 0.950 . S
C1052 C1053 1.386 . S
C1052 C1054 1.391 . S
C1053 C1052 1.386 . S
C1053 C1057 1.393 . S
C1054 H1046 0.950 . S
C1054 C1052 1.391 . S
C1054 C1055 1.400 . S
C1055 C1054 1.400 . S
C1055 C1056 1.398 . S
C1055 C1061 1.491 . S
C1056 H1047 0.950 . S
C1056 C1055 1.398 . S
C1056 C1057 1.391 . S
C1057 H1045 0.950 . S
C1057 C1053 1.393 . S
C1057 C1056 1.391 . S
C1058 H1048 0.950 . S
C1058 C1059 1.386 . S
C1058 C1060 1.391 . S
C1059 C1058 1.386 . S
C1059 C1063 1.393 . S
C1060 H1049 0.950 . S
C1060 C1058 1.391 . S
C1060 C1061 1.400 . S
C1061 C1055 1.491 . S
C1061 C1060 1.400 . S
C1061 C1062 1.398 . S
C1062 H1050 0.950 . S
C1062 C1061 1.398 . S
C1062 C1063 1.391 . S
C1063 H1051 0.950 . S
C1063 C1059 1.393 . S
C1063 C1062 1.391 . S
H1064 C1072 0.950 . S
H1065 C1077 0.966 . S
H1066 C1074 0.950 . S
H1067 C1076 0.948 1_655 S
H1068 C1078 0.950 1_655 S
H1069 C1080 0.950 1_655 S
H1070 C1082 0.950 . S
H1071 C1083 0.950 . S
C1072 H1064 0.950 . S
C1072 C1073 1.386 . S
C1072 C1074 1.391 . S
C1073 C1072 1.386 . S
C1073 C1077 1.377 1_455 S
C1074 H1066 0.950 . S
C1074 C1072 1.391 . S
C1074 C1075 1.400 . S
C1075 C1074 1.400 . S
C1075 C1076 1.401 . S
C1075 C1081 1.491 . S
C1076 H1067 0.948 1_455 S
C1076 C1075 1.401 . S
C1076 C1077 1.390 1_455 S
C1077 H1065 0.966 . S
C1077 C1073 1.377 1_655 S
C1077 C1076 1.390 1_655 S
C1078 H1068 0.950 1_455 S
C1078 C1079 1.386 . S
C1078 C1080 1.391 . S
C1079 C1078 1.386 . S
C1079 C1083 1.393 . S
C1080 H1069 0.950 1_455 S
C1080 C1078 1.391 . S
C1080 C1081 1.400 . S
C1081 C1075 1.491 . S
C1081 C1080 1.400 . S
C1081 C1082 1.398 . S
C1082 H1070 0.950 . S
C1082 C1081 1.398 . S
C1082 C1083 1.391 . S
C1083 H1071 0.950 . S
C1083 C1079 1.393 . S
C1083 C1082 1.391 . S
H1084 C1092 0.950 . S
H1085 C1097 0.950 . S
H1086 C1094 0.950 . S
H1087 C1096 0.950 . S
H1088 C1098 0.950 . S
H1089 C1100 0.950 . S
H1090 C1102 0.938 1_565 S
H1091 C1103 0.950 . S
C1092 H1084 0.950 . S
C1092 C1093 1.386 1_565 S
C1092 C1094 1.391 . S
C1093 C1092 1.386 1_545 S
C1093 C1097 1.393 . S
C1094 H1086 0.950 . S
C1094 C1092 1.391 . S
C1094 C1095 1.400 1_565 S
C1095 C1094 1.400 1_545 S
C1095 C1096 1.398 . S
C1095 C1101 1.491 . S
C1096 H1087 0.950 . S
C1096 C1095 1.398 . S
C1096 C1097 1.391 . S
C1097 H1085 0.950 . S
C1097 C1093 1.393 . S
C1097 C1096 1.391 . S
C1098 H1088 0.950 . S
C1098 C1099 1.386 . S
C1098 C1100 1.391 . S
C1099 C1098 1.386 . S
C1099 C1103 1.393 . S
C1100 H1089 0.950 . S
C1100 C1098 1.391 . S
C1100 C1101 1.400 . S
C1101 C1095 1.491 . S
C1101 C1100 1.400 . S
C1101 C1102 1.398 . S
C1102 H1090 0.938 1_545 S
C1102 C1101 1.398 . S
C1102 C1103 1.391 . S
C1103 H1091 0.950 . S
C1103 C1099 1.393 . S
C1103 C1102 1.391 . S
H1104 C1112 0.950 . S
H1105 C1117 0.950 . S
H1106 C1114 0.950 . S
H1107 C1116 0.950 . S
H1108 C1118 0.950 . S
H1109 C1120 0.950 . S
H1110 C1122 0.950 . S
H1111 C1123 0.950 . S
C1112 H1104 0.950 . S
C1112 C1113 1.386 . S
C1112 C1114 1.391 . S
C1113 C1112 1.386 . S
C1113 C1117 1.393 . S
C1114 H1106 0.950 . S
C1114 C1112 1.391 . S
C1114 C1115 1.400 . S
C1115 C1114 1.400 . S
C1115 C1116 1.398 . S
C1115 C1121 1.491 . S
C1116 H1107 0.950 . S
C1116 C1115 1.398 . S
C1116 C1117 1.391 . S
C1117 H1105 0.950 . S
C1117 C1113 1.393 . S
C1117 C1116 1.391 . S
C1118 H1108 0.950 . S
C1118 C1119 1.386 . S
C1118 C1120 1.391 . S
C1119 C1118 1.386 . S
C1119 C1123 1.393 . S
C1120 H1109 0.950 . S
C1120 C1118 1.391 . S
C1120 C1121 1.400 . S
C1121 C1115 1.491 . S
C1121 C1120 1.400 . S
C1121 C1122 1.398 . S
C1122 H1110 0.950 . S
C1122 C1121 1.398 . S
C1122 C1123 1.391 . S
C1123 H1111 0.950 . S
C1123 C1119 1.393 . S
C1123 C1122 1.391 . S
H1124 C1132 0.950 . S
H1125 C1137 0.950 . S
H1126 C1134 0.950 . S
H1127 C1136 0.950 . S
H1128 C1138 0.950 1_565 S
H1129 C1140 0.950 1_565 S
H1130 C1142 0.950 . S
H1131 C1143 0.950 . S
C1132 H1124 0.950 . S
C1132 C1133 1.386 . S
C1132 C1134 1.391 . S
C1133 C1132 1.386 . S
C1133 C1137 1.393 . S
C1134 H1126 0.950 . S
C1134 C1132 1.391 . S
C1134 C1135 1.400 . S
C1135 C1134 1.400 . S
C1135 C1136 1.398 . S
C1135 C1141 1.491 . S
C1136 H1127 0.950 . S
C1136 C1135 1.398 . S
C1136 C1137 1.391 . S
C1137 H1125 0.950 . S
C1137 C1133 1.393 . S
C1137 C1136 1.391 . S
C1138 H1128 0.950 1_545 S
C1138 C1139 1.386 . S
C1138 C1140 1.391 . S
C1139 C1138 1.386 . S
C1139 C1143 1.393 . S
C1140 H1129 0.950 1_545 S
C1140 C1138 1.391 . S
C1140 C1141 1.400 . S
C1141 C1135 1.491 . S
C1141 C1140 1.400 . S
C1141 C1142 1.398 . S
C1142 H1130 0.950 . S
C1142 C1141 1.398 . S
C1142 C1143 1.391 . S
C1143 H1131 0.950 . S
C1143 C1139 1.393 . S
C1143 C1142 1.391 . S
H1144 C1152 0.950 . S
H1145 C1157 0.947 . S
H1146 C1154 0.950 . S
H1147 C1156 0.952 . S
H1148 C1158 0.921 1_655 S
H1149 C1160 0.924 1_655 S
H1150 C1162 0.950 . S
H1151 C1163 0.950 . S
C1152 H1144 0.950 . S
C1152 C1153 1.386 . S
C1152 C1154 1.391 . S
C1153 C1152 1.386 . S
C1153 C1157 1.396 1_455 S
C1154 H1146 0.950 . S
C1154 C1152 1.391 . S
C1154 C1155 1.400 . S
C1155 C1154 1.400 . S
C1155 C1156 1.396 1_455 S
C1155 C1161 1.491 . S
C1156 H1147 0.952 . S
C1156 C1155 1.396 1_655 S
C1156 C1157 1.391 . S
C1157 H1145 0.947 . S
C1157 C1153 1.396 1_655 S
C1157 C1156 1.391 . S
C1158 H1148 0.921 1_455 S
C1158 C1159 1.415 . S
C1158 C1160 1.391 . S
C1159 C1158 1.415 . S
C1159 C1163 1.393 . S
C1160 H1149 0.924 1_455 S
C1160 C1158 1.391 . S
C1160 C1161 1.426 . S
C1161 C1155 1.491 . S
C1161 C1160 1.426 . S
C1161 C1162 1.398 . S
C1162 H1150 0.950 . S
C1162 C1161 1.398 . S
C1162 C1163 1.391 . S
C1163 H1151 0.950 . S
C1163 C1159 1.393 . S
C1163 C1162 1.391 . S
H1164 C1172 0.950 . S
H1165 C1177 0.950 . S
H1166 C1174 0.950 . S
H1167 C1176 0.950 . S
H1168 C1178 0.950 . S
H1169 C1180 0.948 1_565 S
H1170 C1182 0.950 . S
H1171 C1183 0.950 . S
C1172 H1164 0.950 . S
C1172 C1173 1.386 . S
C1172 C1174 1.391 . S
C1173 C1172 1.386 . S
C1173 C1177 1.393 1_545 S
C1174 H1166 0.950 . S
C1174 C1172 1.391 . S
C1174 C1175 1.400 . S
C1175 C1174 1.400 . S
C1175 C1176 1.398 1_545 S
C1175 C1181 1.491 . S
C1176 H1167 0.950 . S
C1176 C1175 1.398 1_565 S
C1176 C1177 1.391 . S
C1177 H1165 0.950 . S
C1177 C1173 1.393 1_565 S
C1177 C1176 1.391 . S
C1178 H1168 0.950 . S
C1178 C1179 1.386 . S
C1178 C1180 1.391 . S
C1179 C1178 1.386 . S
C1179 C1183 1.393 . S
C1180 H1169 0.948 1_545 S
C1180 C1178 1.391 . S
C1180 C1181 1.400 . S
C1181 C1175 1.491 . S
C1181 C1180 1.400 . S
C1181 C1182 1.398 . S
C1182 H1170 0.950 . S
C1182 C1181 1.398 . S
C1182 C1183 1.391 . S
C1183 H1171 0.950 . S
C1183 C1179 1.393 . S
C1183 C1182 1.391 . S
H1184 C1192 0.950 . S
H1185 C1197 0.950 . S
H1186 C1194 0.950 . S
H1187 C1196 0.950 . S
H1188 C1198 0.950 . S
H1189 C1200 0.950 . S
H1190 C1202 0.950 . S
H1191 C1203 0.950 . S
C1192 H1184 0.950 . S
C1192 C1193 1.357 1_455 S
C1192 C1194 1.391 . S
C1193 C1192 1.357 1_655 S
C1193 C1197 1.421 . S
C1194 H1186 0.950 . S
C1194 C1192 1.391 . S
C1194 C1195 1.393 1_455 S
C1195 C1194 1.393 1_655 S
C1195 C1196 1.406 . S
C1195 C1201 1.491 . S
C1196 H1187 0.950 . S
C1196 C1195 1.406 . S
C1196 C1197 1.391 . S
C1197 H1185 0.950 . S
C1197 C1193 1.421 . S
C1197 C1196 1.391 . S
C1198 H1188 0.950 . S
C1198 C1199 1.378 1_655 S
C1198 C1200 1.391 . S
C1199 C1198 1.378 1_455 S
C1199 C1203 1.400 . S
C1200 H1189 0.950 . S
C1200 C1198 1.391 . S
C1200 C1201 1.407 . S
C1201 C1195 1.491 . S
C1201 C1200 1.407 . S
C1201 C1202 1.392 1_655 S
C1202 H1190 0.950 . S
C1202 C1201 1.392 1_455 S
C1202 C1203 1.391 . S
C1203 H1191 0.950 . S
C1203 C1199 1.400 . S
C1203 C1202 1.391 . S
H1204 C1212 0.950 . S
H1205 C1217 0.950 . S
H1206 C1214 0.950 . S
H1207 C1216 0.950 . S
H1208 C1218 0.950 . S
H1209 C1220 0.950 . S
H1210 C1222 0.950 . S
H1211 C1223 0.950 . S
C1212 H1204 0.950 . S
C1212 C1213 1.386 . S
C1212 C1214 1.391 . S
C1213 C1212 1.386 . S
C1213 C1217 1.393 1_545 S
C1214 H1206 0.950 . S
C1214 C1212 1.391 . S
C1214 C1215 1.400 . S
C1215 C1214 1.400 . S
C1215 C1216 1.398 1_545 S
C1215 C1221 1.491 . S
C1216 H1207 0.950 . S
C1216 C1215 1.398 1_565 S
C1216 C1217 1.391 . S
C1217 H1205 0.950 . S
C1217 C1213 1.393 1_565 S
C1217 C1216 1.391 . S
C1218 H1208 0.950 . S
C1218 C1219 1.386 1_565 S
C1218 C1220 1.391 . S
C1219 C1218 1.386 1_545 S
C1219 C1223 1.393 . S
C1220 H1209 0.950 . S
C1220 C1218 1.391 . S
C1220 C1221 1.400 1_565 S
C1221 C1215 1.491 . S
C1221 C1220 1.400 1_545 S
C1221 C1222 1.398 . S
C1222 H1210 0.950 . S
C1222 C1221 1.398 . S
C1222 C1223 1.391 . S
C1223 H1211 0.950 . S
C1223 C1219 1.393 . S
C1223 C1222 1.391 . S
H1224 C1232 0.950 . S
H1225 C1237 0.950 . S
H1226 C1234 0.950 . S
H1227 C1236 0.950 . S
H1228 C1238 0.950 . S
H1229 C1240 0.950 . S
H1230 C1242 0.950 . S
H1231 C1243 0.950 . S
C1232 H1224 0.950 . S
C1232 C1233 1.386 . S
C1232 C1234 1.391 . S
C1233 C1232 1.386 . S
C1233 C1237 1.393 1_455 S
C1234 H1226 0.950 . S
C1234 C1232 1.391 . S
C1234 C1235 1.400 . S
C1235 C1234 1.400 . S
C1235 C1236 1.398 1_455 S
C1235 C1241 1.491 . S
C1236 H1227 0.950 . S
C1236 C1235 1.398 1_655 S
C1236 C1237 1.391 . S
C1237 H1225 0.950 . S
C1237 C1233 1.393 1_655 S
C1237 C1236 1.391 . S
C1238 H1228 0.950 . S
C1238 C1239 1.386 1_655 S
C1238 C1240 1.391 . S
C1239 C1238 1.386 1_455 S
C1239 C1243 1.393 . S
C1240 H1229 0.950 . S
C1240 C1238 1.391 . S
C1240 C1241 1.400 1_655 S
C1241 C1235 1.491 . S
C1241 C1240 1.400 1_455 S
C1241 C1242 1.398 . S
C1242 H1230 0.950 . S
C1242 C1241 1.398 . S
C1242 C1243 1.391 . S
C1243 H1231 0.950 . S
C1243 C1239 1.393 . S
C1243 C1242 1.391 . S
H1244 C1252 0.950 . S
H1245 C1257 0.950 . S
H1246 C1254 0.950 1_565 S
H1247 C1256 0.950 . S
H1248 C1258 0.950 . S
H1249 C1260 0.950 . S
H1250 C1262 0.950 1_565 S
H1251 C1263 0.950 1_565 S
C1252 H1244 0.950 . S
C1252 C1253 1.386 . S
C1252 C1254 1.391 . S
C1253 C1252 1.386 . S
C1253 C1257 1.393 . S
C1254 H1246 0.950 1_545 S
C1254 C1252 1.391 . S
C1254 C1255 1.400 . S
C1255 C1254 1.400 . S
C1255 C1256 1.398 . S
C1255 C1261 1.491 . S
C1256 H1247 0.950 . S
C1256 C1255 1.398 . S
C1256 C1257 1.391 . S
C1257 H1245 0.950 . S
C1257 C1253 1.393 . S
C1257 C1256 1.391 . S
C1258 H1248 0.950 . S
C1258 C1259 1.386 . S
C1258 C1260 1.391 . S
C1259 C1258 1.386 . S
C1259 C1263 1.393 . S
C1260 H1249 0.950 . S
C1260 C1258 1.391 . S
C1260 C1261 1.400 . S
C1261 C1255 1.491 . S
C1261 C1260 1.400 . S
C1261 C1262 1.398 . S
C1262 H1250 0.950 1_545 S
C1262 C1261 1.398 . S
C1262 C1263 1.391 . S
C1263 H1251 0.950 1_545 S
C1263 C1259 1.393 . S
C1263 C1262 1.391 . S
H1264 C1272 0.950 . S
H1265 C1277 0.950 . S
H1266 C1274 0.950 . S
H1267 C1276 0.950 . S
H1268 C1278 0.950 . S
H1269 C1280 0.950 . S
H1270 C1282 0.950 . S
H1271 C1283 0.950 . S
C1272 H1264 0.950 . S
C1272 C1273 1.386 1_565 S
C1272 C1274 1.391 . S
C1273 C1272 1.386 1_545 S
C1273 C1277 1.393 . S
C1274 H1266 0.950 . S
C1274 C1272 1.391 . S
C1274 C1275 1.400 1_565 S
C1275 C1274 1.400 1_545 S
C1275 C1276 1.398 . S
C1275 C1281 1.491 . S
C1276 H1267 0.950 . S
C1276 C1275 1.398 . S
C1276 C1277 1.391 . S
C1277 H1265 0.950 . S
C1277 C1273 1.393 . S
C1277 C1276 1.391 . S
C1278 H1268 0.950 . S
C1278 C1279 1.386 . S
C1278 C1280 1.391 . S
C1279 C1278 1.386 . S
C1279 C1283 1.393 1_545 S
C1280 H1269 0.950 . S
C1280 C1278 1.391 . S
C1280 C1281 1.400 . S
C1281 C1275 1.491 . S
C1281 C1280 1.400 . S
C1281 C1282 1.398 1_545 S
C1282 H1270 0.950 . S
C1282 C1281 1.398 1_565 S
C1282 C1283 1.391 . S
C1283 H1271 0.950 . S
C1283 C1279 1.393 1_565 S
C1283 C1282 1.391 . S
H1284 C1292 0.950 . S
H1285 C1297 0.950 . S
H1286 C1294 0.950 . S
H1287 C1296 0.950 . S
H1288 C1298 0.950 . S
H1289 C1300 0.950 . S
H1290 C1302 0.950 . S
H1291 C1303 0.950 . S
C1292 H1284 0.950 . S
C1292 C1293 1.386 . S
C1292 C1294 1.391 . S
C1293 C1292 1.386 . S
C1293 C1297 1.393 . S
C1294 H1286 0.950 . S
C1294 C1292 1.391 . S
C1294 C1295 1.400 . S
C1295 C1294 1.400 . S
C1295 C1296 1.398 . S
C1295 C1301 1.491 . S
C1296 H1287 0.950 . S
C1296 C1295 1.398 . S
C1296 C1297 1.391 . S
C1297 H1285 0.950 . S
C1297 C1293 1.393 . S
C1297 C1296 1.391 . S
C1298 H1288 0.950 . S
C1298 C1299 1.386 . S
C1298 C1300 1.391 . S
C1299 C1298 1.386 . S
C1299 C1303 1.393 . S
C1300 H1289 0.950 . S
C1300 C1298 1.391 . S
C1300 C1301 1.400 . S
C1301 C1295 1.491 . S
C1301 C1300 1.400 . S
C1301 C1302 1.398 . S
C1302 H1290 0.950 . S
C1302 C1301 1.398 . S
C1302 C1303 1.391 . S
C1303 H1291 0.950 . S
C1303 C1299 1.393 . S
C1303 C1302 1.391 . S
H1304 C1312 0.950 . S
H1305 C1317 0.950 . S
H1306 C1314 0.950 . S
H1307 C1316 0.950 . S
H1308 C1318 0.950 . S
H1309 C1320 0.950 . S
H1310 C1322 0.950 . S
H1311 C1323 0.950 . S
C1312 H1304 0.950 . S
C1312 C1313 1.386 . S
C1312 C1314 1.391 . S
C1313 C1312 1.386 . S
C1313 C1317 1.393 . S
C1314 H1306 0.950 . S
C1314 C1312 1.391 . S
C1314 C1315 1.400 . S
C1315 C1314 1.400 . S
C1315 C1316 1.398 . S
C1315 C1321 1.491 . S
C1316 H1307 0.950 . S
C1316 C1315 1.398 . S
C1316 C1317 1.391 . S
C1317 H1305 0.950 . S
C1317 C1313 1.393 . S
C1317 C1316 1.391 . S
C1318 H1308 0.950 . S
C1318 C1319 1.386 . S
C1318 C1320 1.391 . S
C1319 C1318 1.386 . S
C1319 C1323 1.393 . S
C1320 H1309 0.950 . S
C1320 C1318 1.391 . S
C1320 C1321 1.400 . S
C1321 C1315 1.491 . S
C1321 C1320 1.400 . S
C1321 C1322 1.398 . S
C1322 H1310 0.950 . S
C1322 C1321 1.398 . S
C1322 C1323 1.391 . S
C1323 H1311 0.950 . S
C1323 C1319 1.393 . S
C1323 C1322 1.391 . S
H1324 C1332 0.950 . S
H1325 C1337 0.972 . S
H1326 C1334 0.950 . S
H1327 C1336 0.950 . S
H1328 C1338 0.950 . S
H1329 C1340 0.950 . S
H1330 C1342 0.950 . S
H1331 C1343 0.950 . S
C1332 H1324 0.950 . S
C1332 C1333 1.386 . S
C1332 C1334 1.391 . S
C1333 C1332 1.386 . S
C1333 C1337 1.370 1_455 S
C1334 H1326 0.950 . S
C1334 C1332 1.391 . S
C1334 C1335 1.400 . S
C1335 C1334 1.400 . S
C1335 C1336 1.398 1_455 S
C1335 C1341 1.491 . S
C1336 H1327 0.950 . S
C1336 C1335 1.398 1_655 S
C1336 C1337 1.392 . S
C1337 H1325 0.972 . S
C1337 C1333 1.370 1_655 S
C1337 C1336 1.392 . S
C1338 H1328 0.950 . S
C1338 C1339 1.386 1_655 S
C1338 C1340 1.391 . S
C1339 C1338 1.386 1_455 S
C1339 C1343 1.393 . S
C1340 H1329 0.950 . S
C1340 C1338 1.391 . S
C1340 C1341 1.400 1_655 S
C1341 C1335 1.491 . S
C1341 C1340 1.400 1_455 S
C1341 C1342 1.398 . S
C1342 H1330 0.950 . S
C1342 C1341 1.398 . S
C1342 C1343 1.391 . S
C1343 H1331 0.950 . S
C1343 C1339 1.393 . S
C1343 C1342 1.391 . S
H1344 C1352 0.950 . S
H1345 C1357 0.950 . S
H1346 C1354 0.950 . S
H1347 C1356 0.950 . S
H1348 C1358 0.950 . S
H1349 C1360 0.950 . S
H1350 C1362 0.950 . S
H1351 C1363 0.950 . S
C1352 H1344 0.950 . S
C1352 C1353 1.386 1_565 S
C1352 C1354 1.391 . S
C1353 C1352 1.386 1_545 S
C1353 C1357 1.393 . S
C1354 H1346 0.950 . S
C1354 C1352 1.391 . S
C1354 C1355 1.400 1_565 S
C1355 C1354 1.400 1_545 S
C1355 C1356 1.398 . S
C1355 C1361 1.491 . S
C1356 H1347 0.950 . S
C1356 C1355 1.398 . S
C1356 C1357 1.391 . S
C1357 H1345 0.950 . S
C1357 C1353 1.393 . S
C1357 C1356 1.391 . S
C1358 H1348 0.950 . S
C1358 C1359 1.386 . S
C1358 C1360 1.391 . S
C1359 C1358 1.386 . S
C1359 C1363 1.393 1_545 S
C1360 H1349 0.950 . S
C1360 C1358 1.391 . S
C1360 C1361 1.400 . S
C1361 C1355 1.491 . S
C1361 C1360 1.400 . S
C1361 C1362 1.398 1_545 S
C1362 H1350 0.950 . S
C1362 C1361 1.398 1_565 S
C1362 C1363 1.391 . S
C1363 H1351 0.950 . S
C1363 C1359 1.393 1_565 S
C1363 C1362 1.391 . S
H1364 C1372 0.950 . S
H1365 C1377 0.950 . S
H1366 C1374 0.950 . S
H1367 C1376 0.950 . S
H1368 C1378 0.950 . S
H1369 C1380 0.950 . S
H1370 C1382 0.950 . S
H1371 C1383 0.950 . S
C1372 H1364 0.950 . S
C1372 C1373 1.386 . S
C1372 C1374 1.391 . S
C1373 C1372 1.386 . S
C1373 C1377 1.393 . S
C1374 H1366 0.950 . S
C1374 C1372 1.391 . S
C1374 C1375 1.400 . S
C1375 C1374 1.400 . S
C1375 C1376 1.398 . S
C1375 C1381 1.491 . S
C1376 H1367 0.950 . S
C1376 C1375 1.398 . S
C1376 C1377 1.391 . S
C1377 H1365 0.950 . S
C1377 C1373 1.393 . S
C1377 C1376 1.391 . S
C1378 H1368 0.950 . S
C1378 C1379 1.386 . S
C1378 C1380 1.391 . S
C1379 C1378 1.386 . S
C1379 C1383 1.393 . S
C1380 H1369 0.950 . S
C1380 C1378 1.391 . S
C1380 C1381 1.400 . S
C1381 C1375 1.491 . S
C1381 C1380 1.400 . S
C1381 C1382 1.398 . S
C1382 H1370 0.950 . S
C1382 C1381 1.398 . S
C1382 C1383 1.391 . S
C1383 H1371 0.950 . S
C1383 C1379 1.393 . S
C1383 C1382 1.391 . S
H1384 C1392 0.950 . S
H1385 C1397 0.950 . S
H1386 C1394 0.950 . S
H1387 C1396 0.950 . S
H1388 C1398 0.950 . S
H1389 C1400 0.950 . S
H1390 C1402 0.950 . S
H1391 C1403 0.950 . S
C1392 H1384 0.950 . S
C1392 C1393 1.386 . S
C1392 C1394 1.391 . S
C1393 C1392 1.386 . S
C1393 C1397 1.393 . S
C1394 H1386 0.950 . S
C1394 C1392 1.391 . S
C1394 C1395 1.400 . S
C1395 C1394 1.400 . S
C1395 C1396 1.398 . S
C1395 C1401 1.491 . S
C1396 H1387 0.950 . S
C1396 C1395 1.398 . S
C1396 C1397 1.391 . S
C1397 H1385 0.950 . S
C1397 C1393 1.393 . S
C1397 C1396 1.391 . S
C1398 H1388 0.950 . S
C1398 C1399 1.386 . S
C1398 C1400 1.391 . S
C1399 C1398 1.386 . S
C1399 C1403 1.393 . S
C1400 H1389 0.950 . S
C1400 C1398 1.391 . S
C1400 C1401 1.400 . S
C1401 C1395 1.491 . S
C1401 C1400 1.400 . S
C1401 C1402 1.398 . S
C1402 H1390 0.950 . S
C1402 C1401 1.398 . S
C1402 C1403 1.391 . S
C1403 H1391 0.950 . S
C1403 C1399 1.393 . S
C1403 C1402 1.391 . S
H1404 C1412 0.950 . S
H1405 C1417 0.950 . S
H1406 C1414 0.950 . S
H1407 C1416 0.950 . S
H1408 C1418 0.950 . S
H1409 C1420 0.950 . S
H1410 C1422 0.950 1_655 S
H1411 C1423 0.950 . S
C1412 H1404 0.950 . S
C1412 C1413 1.386 1_655 S
C1412 C1414 1.391 . S
C1413 C1412 1.386 1_455 S
C1413 C1417 1.393 . S
C1414 H1406 0.950 . S
C1414 C1412 1.391 . S
C1414 C1415 1.400 1_655 S
C1415 C1414 1.400 1_455 S
C1415 C1416 1.398 . S
C1415 C1421 1.491 . S
C1416 H1407 0.950 . S
C1416 C1415 1.398 . S
C1416 C1417 1.391 . S
C1417 H1405 0.950 . S
C1417 C1413 1.393 . S
C1417 C1416 1.391 . S
C1418 H1408 0.950 . S
C1418 C1419 1.386 . S
C1418 C1420 1.391 . S
C1419 C1418 1.386 . S
C1419 C1423 1.393 . S
C1420 H1409 0.950 . S
C1420 C1418 1.391 . S
C1420 C1421 1.400 . S
C1421 C1415 1.491 . S
C1421 C1420 1.400 . S
C1421 C1422 1.398 . S
C1422 H1410 0.950 1_455 S
C1422 C1421 1.398 . S
C1422 C1423 1.391 . S
C1423 H1411 0.950 . S
C1423 C1419 1.393 . S
C1423 C1422 1.391 . S
H1424 C1432 0.950 . S
H1425 C1437 0.950 . S
H1426 C1434 0.950 . S
H1427 C1436 0.950 . S
H1428 C1438 0.950 . S
H1429 C1440 0.950 . S
H1430 C1442 0.950 . S
H1431 C1443 0.950 . S
C1432 H1424 0.950 . S
C1432 C1433 1.386 . S
C1432 C1434 1.391 . S
C1433 C1432 1.386 . S
C1433 C1437 1.393 . S
C1434 H1426 0.950 . S
C1434 C1432 1.391 . S
C1434 C1435 1.400 . S
C1435 C1434 1.400 . S
C1435 C1436 1.398 . S
C1435 C1441 1.491 . S
C1436 H1427 0.950 . S
C1436 C1435 1.398 . S
C1436 C1437 1.391 . S
C1437 H1425 0.950 . S
C1437 C1433 1.393 . S
C1437 C1436 1.391 . S
C1438 H1428 0.950 . S
C1438 C1439 1.386 . S
C1438 C1440 1.391 . S
C1439 C1438 1.386 . S
C1439 C1443 1.393 . S
C1440 H1429 0.950 . S
C1440 C1438 1.391 . S
C1440 C1441 1.400 . S
C1441 C1435 1.491 . S
C1441 C1440 1.400 . S
C1441 C1442 1.398 . S
C1442 H1430 0.950 . S
C1442 C1441 1.398 . S
C1442 C1443 1.391 . S
C1443 H1431 0.950 . S
C1443 C1439 1.393 . S
C1443 C1442 1.391 . S
H1444 C1452 0.968 . S
H1445 C1457 0.950 . S
H1446 C1454 0.961 . S
H1447 C1456 0.950 . S
H1448 C1458 0.950 . S
H1449 C1460 0.950 . S
H1450 C1462 0.950 1_556 S
H1451 C1463 0.930 1_556 S
C1452 H1444 0.968 . S
C1452 C1453 1.369 1_556 S
C1452 C1454 1.391 . S
C1453 C1452 1.369 1_554 S
C1453 C1457 1.393 . S
C1454 H1446 0.961 . S
C1454 C1452 1.391 . S
C1454 C1455 1.389 1_556 S
C1455 C1454 1.389 1_554 S
C1455 C1456 1.398 . S
C1455 C1461 1.491 . S
C1456 H1447 0.950 . S
C1456 C1455 1.398 . S
C1456 C1457 1.391 . S
C1457 H1445 0.950 . S
C1457 C1453 1.393 . S
C1457 C1456 1.391 . S
C1458 H1448 0.950 . S
C1458 C1459 1.386 . S
C1458 C1460 1.391 . S
C1459 C1458 1.386 . S
C1459 C1463 1.414 . S
C1460 H1449 0.950 . S
C1460 C1458 1.391 . S
C1460 C1461 1.400 . S
C1461 C1455 1.491 . S
C1461 C1460 1.400 . S
C1461 C1462 1.398 . S
C1462 H1450 0.950 1_554 S
C1462 C1461 1.398 . S
C1462 C1463 1.392 . S
C1463 H1451 0.930 1_554 S
C1463 C1459 1.414 . S
C1463 C1462 1.392 . S
H1464 C1472 0.950 . S
H1465 C1477 0.950 . S
H1466 C1474 0.950 . S
H1467 C1476 0.950 . S
H1468 C1478 0.950 . S
H1469 C1480 0.950 . S
H1470 C1482 0.950 . S
H1471 C1483 0.950 . S
C1472 H1464 0.950 . S
C1472 C1473 1.386 . S
C1472 C1474 1.391 . S
C1473 C1472 1.386 . S
C1473 C1477 1.393 1_554 S
C1474 H1466 0.950 . S
C1474 C1472 1.391 . S
C1474 C1475 1.400 . S
C1475 C1474 1.400 . S
C1475 C1476 1.398 1_554 S
C1475 C1481 1.491 . S
C1476 H1467 0.950 . S
C1476 C1475 1.398 1_556 S
C1476 C1477 1.391 . S
C1477 H1465 0.950 . S
C1477 C1473 1.393 1_556 S
C1477 C1476 1.391 . S
C1478 H1468 0.950 . S
C1478 C1479 1.386 1_556 S
C1478 C1480 1.391 . S
C1479 C1478 1.386 1_554 S
C1479 C1483 1.393 . S
C1480 H1469 0.950 . S
C1480 C1478 1.391 . S
C1480 C1481 1.400 1_556 S
C1481 C1475 1.491 . S
C1481 C1480 1.400 1_554 S
C1481 C1482 1.398 . S
C1482 H1470 0.950 . S
C1482 C1481 1.398 . S
C1482 C1483 1.391 . S
C1483 H1471 0.950 . S
C1483 C1479 1.393 . S
C1483 C1482 1.391 . S
H1484 C1492 0.950 . S
H1485 C1497 0.950 . S
H1486 C1494 0.950 . S
H1487 C1496 0.950 . S
H1488 C1498 0.950 . S
H1489 C1500 0.950 . S
H1490 C1502 0.950 . S
H1491 C1503 0.950 . S
C1492 H1484 0.950 . S
C1492 C1493 1.389 . S
C1492 C1494 1.391 . S
C1493 C1492 1.389 . S
C1493 C1497 1.390 1_556 S
C1494 H1486 0.950 . S
C1494 C1492 1.391 . S
C1494 C1495 1.404 . S
C1495 C1494 1.404 . S
C1495 C1496 1.394 1_556 S
C1495 C1501 1.490 1_556 S
C1496 H1487 0.950 . S
C1496 C1495 1.394 1_554 S
C1496 C1497 1.391 . S
C1497 H1485 0.950 . S
C1497 C1493 1.390 1_554 S
C1497 C1496 1.391 . S
C1498 H1488 0.950 . S
C1498 C1499 1.390 . S
C1498 C1500 1.391 . S
C1499 C1498 1.390 . S
C1499 C1503 1.388 1_554 S
C1500 H1489 0.950 . S
C1500 C1498 1.391 . S
C1500 C1501 1.406 . S
C1501 C1495 1.490 1_554 S
C1501 C1500 1.406 . S
C1501 C1502 1.393 1_554 S
C1502 H1490 0.950 . S
C1502 C1501 1.393 1_556 S
C1502 C1503 1.391 . S
C1503 H1491 0.950 . S
C1503 C1499 1.388 1_556 S
C1503 C1502 1.391 . S
H1504 C1512 0.950 . S
H1505 C1517 0.950 . S
H1506 C1514 0.950 . S
H1507 C1516 0.950 . S
H1508 C1518 0.950 . S
H1509 C1520 0.950 . S
H1510 C1522 0.950 . S
H1511 C1523 0.950 . S
C1512 H1504 0.950 . S
C1512 C1513 1.386 1_556 S
C1512 C1514 1.391 . S
C1513 C1512 1.386 1_554 S
C1513 C1517 1.393 . S
C1514 H1506 0.950 . S
C1514 C1512 1.391 . S
C1514 C1515 1.400 1_556 S
C1515 C1514 1.400 1_554 S
C1515 C1516 1.398 . S
C1515 C1521 1.491 . S
C1516 H1507 0.950 . S
C1516 C1515 1.398 . S
C1516 C1517 1.391 . S
C1517 H1505 0.950 . S
C1517 C1513 1.393 . S
C1517 C1516 1.391 . S
C1518 H1508 0.950 . S
C1518 C1519 1.386 . S
C1518 C1520 1.391 . S
C1519 C1518 1.386 . S
C1519 C1523 1.393 1_554 S
C1520 H1509 0.950 . S
C1520 C1518 1.391 . S
C1520 C1521 1.400 . S
C1521 C1515 1.491 . S
C1521 C1520 1.400 . S
C1521 C1522 1.398 1_554 S
C1522 H1510 0.950 . S
C1522 C1521 1.398 1_556 S
C1522 C1523 1.391 . S
C1523 H1511 0.950 . S
C1523 C1519 1.393 1_556 S
C1523 C1522 1.391 . S
H1524 C1532 0.950 . S
H1525 C1537 0.950 . S
H1526 C1534 0.950 . S
H1527 C1536 0.950 . S
H1528 C1538 0.950 . S
H1529 C1540 0.950 . S
H1530 C1542 0.950 . S
H1531 C1543 0.950 . S
C1532 H1524 0.950 . S
C1532 C1533 1.386 1_556 S
C1532 C1534 1.391 . S
C1533 C1532 1.386 1_554 S
C1533 C1537 1.393 . S
C1534 H1526 0.950 . S
C1534 C1532 1.391 . S
C1534 C1535 1.400 1_556 S
C1535 C1534 1.400 1_554 S
C1535 C1536 1.398 . S
C1535 C1541 1.491 . S
C1536 H1527 0.950 . S
C1536 C1535 1.398 . S
C1536 C1537 1.391 . S
C1537 H1525 0.950 . S
C1537 C1533 1.393 . S
C1537 C1536 1.391 . S
C1538 H1528 0.950 . S
C1538 C1539 1.386 . S
C1538 C1540 1.391 . S
C1539 C1538 1.386 . S
C1539 C1543 1.393 1_554 S
C1540 H1529 0.950 . S
C1540 C1538 1.391 . S
C1540 C1541 1.400 . S
C1541 C1535 1.491 . S
C1541 C1540 1.400 . S
C1541 C1542 1.398 1_554 S
C1542 H1530 0.950 . S
C1542 C1541 1.398 1_556 S
C1542 C1543 1.391 . S
C1543 H1531 0.950 . S
C1543 C1539 1.393 1_556 S
C1543 C1542 1.391 . S
H1544 C1552 0.950 1_556 S
H1545 C1557 0.950 . S
H1546 C1554 0.950 1_556 S
H1547 C1556 0.950 . S
H1548 C1558 0.950 . S
H1549 C1560 0.950 . S
H1550 C1562 0.950 1_556 S
H1551 C1563 0.950 1_556 S
C1552 H1544 0.950 1_554 S
C1552 C1553 1.386 . S
C1552 C1554 1.391 . S
C1553 C1552 1.386 . S
C1553 C1557 1.393 . S
C1554 H1546 0.950 1_554 S
C1554 C1552 1.391 . S
C1554 C1555 1.400 . S
C1555 C1554 1.400 . S
C1555 C1556 1.398 . S
C1555 C1561 1.491 . S
C1556 H1547 0.950 . S
C1556 C1555 1.398 . S
C1556 C1557 1.391 . S
C1557 H1545 0.950 . S
C1557 C1553 1.393 . S
C1557 C1556 1.391 . S
C1558 H1548 0.950 . S
C1558 C1559 1.386 . S
C1558 C1560 1.391 . S
C1559 C1558 1.386 . S
C1559 C1563 1.393 . S
C1560 H1549 0.950 . S
C1560 C1558 1.391 . S
C1560 C1561 1.400 . S
C1561 C1555 1.491 . S
C1561 C1560 1.400 . S
C1561 C1562 1.398 . S
C1562 H1550 0.950 1_554 S
C1562 C1561 1.398 . S
C1562 C1563 1.391 . S
C1563 H1551 0.950 1_554 S
C1563 C1559 1.393 . S
C1563 C1562 1.391 . S
H1564 C1572 0.950 . S
H1565 C1577 0.950 . S
H1566 C1574 0.950 . S
H1567 C1576 0.950 . S
H1568 C1578 0.950 . S
H1569 C1580 0.950 . S
H1570 C1582 0.950 . S
H1571 C1583 0.950 . S
C1572 H1564 0.950 . S
C1572 C1573 1.360 1_556 S
C1572 C1574 1.391 . S
C1573 C1572 1.360 1_554 S
C1573 C1577 1.420 . S
C1574 H1566 0.950 . S
C1574 C1572 1.391 . S
C1574 C1575 1.400 1_556 S
C1575 C1574 1.400 1_554 S
C1575 C1576 1.398 . S
C1575 C1581 1.491 . S
C1576 H1567 0.950 . S
C1576 C1575 1.398 . S
C1576 C1577 1.391 . S
C1577 H1565 0.950 . S
C1577 C1573 1.420 . S
C1577 C1576 1.391 . S
C1578 H1568 0.950 . S
C1578 C1579 1.386 . S
C1578 C1580 1.391 . S
C1579 C1578 1.386 . S
C1579 C1583 1.393 1_554 S
C1580 H1569 0.950 . S
C1580 C1578 1.391 . S
C1580 C1581 1.400 . S
C1581 C1575 1.491 . S
C1581 C1580 1.400 . S
C1581 C1582 1.398 1_554 S
C1582 H1570 0.950 . S
C1582 C1581 1.398 1_556 S
C1582 C1583 1.391 . S
C1583 H1571 0.950 . S
C1583 C1579 1.393 1_556 S
C1583 C1582 1.391 . S
H1584 C1592 0.950 . S
H1585 C1597 0.950 . S
H1586 C1594 0.950 . S
H1587 C1596 0.950 . S
H1588 C1598 0.950 . S
H1589 C1600 0.950 . S
H1590 C1602 0.950 . S
H1591 C1603 0.950 . S
C1592 H1584 0.950 . S
C1592 C1593 1.386 . S
C1592 C1594 1.391 . S
C1593 C1592 1.386 . S
C1593 C1597 1.393 . S
C1594 H1586 0.950 . S
C1594 C1592 1.391 . S
C1594 C1595 1.400 . S
C1595 C1594 1.400 . S
C1595 C1596 1.398 . S
C1595 C1601 1.491 . S
C1596 H1587 0.950 . S
C1596 C1595 1.398 . S
C1596 C1597 1.391 . S
C1597 H1585 0.950 . S
C1597 C1593 1.393 . S
C1597 C1596 1.391 . S
C1598 H1588 0.950 . S
C1598 C1599 1.386 . S
C1598 C1600 1.391 . S
C1599 C1598 1.386 . S
C1599 C1603 1.393 . S
C1600 H1589 0.950 . S
C1600 C1598 1.391 . S
C1600 C1601 1.400 . S
C1601 C1595 1.491 . S
C1601 C1600 1.400 . S
C1601 C1602 1.398 . S
C1602 H1590 0.950 . S
C1602 C1601 1.398 . S
C1602 C1603 1.391 . S
C1603 H1591 0.950 . S
C1603 C1599 1.393 . S
C1603 C1602 1.391 . S
H1604 C1612 0.950 . S
H1605 C1617 0.950 . S
H1606 C1614 0.950 . S
H1607 C1616 0.950 . S
H1608 C1618 0.950 . S
H1609 C1620 0.950 . S
H1610 C1622 0.950 . S
H1611 C1623 0.950 . S
C1612 H1604 0.950 . S
C1612 C1613 1.386 . S
C1612 C1614 1.391 . S
C1613 C1612 1.386 . S
C1613 C1617 1.393 . S
C1614 H1606 0.950 . S
C1614 C1612 1.391 . S
C1614 C1615 1.400 . S
C1615 C1614 1.400 . S
C1615 C1616 1.398 . S
C1615 C1621 1.491 . S
C1616 H1607 0.950 . S
C1616 C1615 1.398 . S
C1616 C1617 1.391 . S
C1617 H1605 0.950 . S
C1617 C1613 1.393 . S
C1617 C1616 1.391 . S
C1618 H1608 0.950 . S
C1618 C1619 1.386 . S
C1618 C1620 1.391 . S
C1619 C1618 1.386 . S
C1619 C1623 1.393 . S
C1620 H1609 0.950 . S
C1620 C1618 1.391 . S
C1620 C1621 1.400 . S
C1621 C1615 1.491 . S
C1621 C1620 1.400 . S
C1621 C1622 1.398 . S
C1622 H1610 0.950 . S
C1622 C1621 1.398 . S
C1622 C1623 1.391 . S
C1623 H1611 0.950 . S
C1623 C1619 1.393 . S
C1623 C1622 1.391 . S
H1624 C1632 0.950 . S
H1625 C1637 0.950 . S
H1626 C1634 0.950 . S
H1627 C1636 0.950 . S
H1628 C1638 0.950 . S
H1629 C1640 0.950 . S
H1630 C1642 0.950 . S
H1631 C1643 0.950 . S
C1632 H1624 0.950 . S
C1632 C1633 1.386 . S
C1632 C1634 1.391 . S
C1633 C1632 1.386 . S
C1633 C1637 1.393 . S
C1634 H1626 0.950 . S
C1634 C1632 1.391 . S
C1634 C1635 1.400 . S
C1635 C1634 1.400 . S
C1635 C1636 1.398 . S
C1635 C1641 1.491 . S
C1636 H1627 0.950 . S
C1636 C1635 1.398 . S
C1636 C1637 1.391 . S
C1637 H1625 0.950 . S
C1637 C1633 1.393 . S
C1637 C1636 1.391 . S
C1638 H1628 0.950 . S
C1638 C1639 1.386 . S
C1638 C1640 1.391 . S
C1639 C1638 1.386 . S
C1639 C1643 1.393 . S
C1640 H1629 0.950 . S
C1640 C1638 1.391 . S
C1640 C1641 1.400 . S
C1641 C1635 1.491 . S
C1641 C1640 1.400 . S
C1641 C1642 1.398 . S
C1642 H1630 0.950 . S
C1642 C1641 1.398 . S
C1642 C1643 1.391 . S
C1643 H1631 0.950 . S
C1643 C1639 1.393 . S
C1643 C1642 1.391 . S
H1644 C1652 0.950 . S
H1645 C1657 0.950 . S
H1646 C1654 0.950 . S
H1647 C1656 0.950 . S
H1648 C1658 0.950 . S
H1649 C1660 0.950 . S
H1650 C1662 0.950 . S
H1651 C1663 0.950 . S
C1652 H1644 0.950 . S
C1652 C1653 1.386 . S
C1652 C1654 1.391 . S
C1653 C1652 1.386 . S
C1653 C1657 1.393 . S
C1654 H1646 0.950 . S
C1654 C1652 1.391 . S
C1654 C1655 1.400 . S
C1655 C1654 1.400 . S
C1655 C1656 1.398 . S
C1655 C1661 1.491 . S
C1656 H1647 0.950 . S
C1656 C1655 1.398 . S
C1656 C1657 1.391 . S
C1657 H1645 0.950 . S
C1657 C1653 1.393 . S
C1657 C1656 1.391 . S
C1658 H1648 0.950 . S
C1658 C1659 1.386 . S
C1658 C1660 1.391 . S
C1659 C1658 1.386 . S
C1659 C1663 1.393 . S
C1660 H1649 0.950 . S
C1660 C1658 1.391 . S
C1660 C1661 1.400 . S
C1661 C1655 1.491 . S
C1661 C1660 1.400 . S
C1661 C1662 1.398 . S
C1662 H1650 0.950 . S
C1662 C1661 1.398 . S
C1662 C1663 1.391 . S
C1663 H1651 0.950 . S
C1663 C1659 1.393 . S
C1663 C1662 1.391 . S
H1664 C1672 0.950 . S
H1665 C1677 0.950 . S
H1666 C1674 0.950 . S
H1667 C1676 0.950 . S
H1668 C1678 0.950 . S
H1669 C1680 0.950 . S
H1670 C1682 0.950 . S
H1671 C1683 0.950 . S
C1672 H1664 0.950 . S
C1672 C1673 1.386 . S
C1672 C1674 1.391 . S
C1673 C1672 1.386 . S
C1673 C1677 1.393 . S
C1674 H1666 0.950 . S
C1674 C1672 1.391 . S
C1674 C1675 1.400 . S
C1675 C1674 1.400 . S
C1675 C1676 1.398 . S
C1675 C1681 1.491 . S
C1676 H1667 0.950 . S
C1676 C1675 1.398 . S
C1676 C1677 1.391 . S
C1677 H1665 0.950 . S
C1677 C1673 1.393 . S
C1677 C1676 1.391 . S
C1678 H1668 0.950 . S
C1678 C1679 1.386 . S
C1678 C1680 1.391 . S
C1679 C1678 1.386 . S
C1679 C1683 1.393 . S
C1680 H1669 0.950 . S
C1680 C1678 1.391 . S
C1680 C1681 1.400 . S
C1681 C1675 1.491 . S
C1681 C1680 1.400 . S
C1681 C1682 1.398 . S
C1682 H1670 0.950 . S
C1682 C1681 1.398 . S
C1682 C1683 1.391 . S
C1683 H1671 0.950 . S
C1683 C1679 1.393 . S
C1683 C1682 1.391 . S
H1684 C1692 0.950 . S
H1685 C1697 0.950 . S
H1686 C1694 0.950 . S
H1687 C1696 0.950 . S
H1688 C1698 0.950 . S
H1689 C1700 0.950 . S
H1690 C1702 0.950 . S
H1691 C1703 0.950 . S
C1692 H1684 0.950 . S
C1692 C1693 1.386 . S
C1692 C1694 1.391 . S
C1693 C1692 1.386 . S
C1693 C1697 1.393 . S
C1694 H1686 0.950 . S
C1694 C1692 1.391 . S
C1694 C1695 1.400 . S
C1695 C1694 1.400 . S
C1695 C1696 1.398 . S
C1695 C1701 1.491 . S
C1696 H1687 0.950 . S
C1696 C1695 1.398 . S
C1696 C1697 1.391 . S
C1697 H1685 0.950 . S
C1697 C1693 1.393 . S
C1697 C1696 1.391 . S
C1698 H1688 0.950 . S
C1698 C1699 1.386 . S
C1698 C1700 1.391 . S
C1699 C1698 1.386 . S
C1699 C1703 1.393 . S
C1700 H1689 0.950 . S
C1700 C1698 1.391 . S
C1700 C1701 1.400 . S
C1701 C1695 1.491 . S
C1701 C1700 1.400 . S
C1701 C1702 1.398 . S
C1702 H1690 0.950 . S
C1702 C1701 1.398 . S
C1702 C1703 1.391 . S
C1703 H1691 0.950 . S
C1703 C1699 1.393 . S
C1703 C1702 1.391 . S
H1704 C1712 0.950 . S
H1705 C1717 0.950 . S
H1706 C1714 0.950 . S
H1707 C1716 0.950 . S
H1708 C1718 0.950 . S
H1709 C1720 0.950 . S
H1710 C1722 0.950 . S
H1711 C1723 0.950 . S
C1712 H1704 0.950 . S
C1712 C1713 1.386 . S
C1712 C1714 1.391 . S
C1713 C1712 1.386 . S
C1713 C1717 1.393 . S
C1714 H1706 0.950 . S
C1714 C1712 1.391 . S
C1714 C1715 1.400 . S
C1715 C1714 1.400 . S
C1715 C1716 1.398 . S
C1715 C1721 1.491 . S
C1716 H1707 0.950 . S
C1716 C1715 1.398 . S
C1716 C1717 1.391 . S
C1717 H1705 0.950 . S
C1717 C1713 1.393 . S
C1717 C1716 1.391 . S
C1718 H1708 0.950 . S
C1718 C1719 1.386 . S
C1718 C1720 1.391 . S
C1719 C1718 1.386 . S
C1719 C1723 1.393 . S
C1720 H1709 0.950 . S
C1720 C1718 1.391 . S
C1720 C1721 1.400 . S
C1721 C1715 1.491 . S
C1721 C1720 1.400 . S
C1721 C1722 1.398 . S
C1722 H1710 0.950 . S
C1722 C1721 1.398 . S
C1722 C1723 1.391 . S
C1723 H1711 0.950 . S
C1723 C1719 1.393 . S
C1723 C1722 1.391 . S
H1724 C1732 0.950 . S
H1725 C1737 0.950 . S
H1726 C1734 0.950 . S
H1727 C1736 0.950 . S
H1728 C1738 0.950 . S
H1729 C1740 0.950 . S
H1730 C1742 0.950 . S
H1731 C1743 0.950 . S
C1732 H1724 0.950 . S
C1732 C1733 1.386 . S
C1732 C1734 1.391 . S
C1733 C1732 1.386 . S
C1733 C1737 1.393 . S
C1734 H1726 0.950 . S
C1734 C1732 1.391 . S
C1734 C1735 1.400 . S
C1735 C1734 1.400 . S
C1735 C1736 1.398 . S
C1735 C1741 1.491 . S
C1736 H1727 0.950 . S
C1736 C1735 1.398 . S
C1736 C1737 1.391 . S
C1737 H1725 0.950 . S
C1737 C1733 1.393 . S
C1737 C1736 1.391 . S
C1738 H1728 0.950 . S
C1738 C1739 1.386 . S
C1738 C1740 1.391 . S
C1739 C1738 1.386 . S
C1739 C1743 1.393 . S
C1740 H1729 0.950 . S
C1740 C1738 1.391 . S
C1740 C1741 1.400 . S
C1741 C1735 1.491 . S
C1741 C1740 1.400 . S
C1741 C1742 1.398 . S
C1742 H1730 0.950 . S
C1742 C1741 1.398 . S
C1742 C1743 1.391 . S
C1743 H1731 0.950 . S
C1743 C1739 1.393 . S
C1743 C1742 1.391 . S
H1744 C1752 0.950 . S
H1745 C1757 0.950 . S
H1746 C1754 0.950 . S
H1747 C1756 0.950 . S
H1748 C1758 0.950 . S
H1749 C1760 0.950 . S
H1750 C1762 0.950 . S
H1751 C1763 0.950 . S
C1752 H1744 0.950 . S
C1752 C1753 1.386 . S
C1752 C1754 1.391 . S
C1753 C1752 1.386 . S
C1753 C1757 1.393 . S
C1754 H1746 0.950 . S
C1754 C1752 1.391 . S
C1754 C1755 1.400 . S
C1755 C1754 1.400 . S
C1755 C1756 1.398 . S
C1755 C1761 1.491 . S
C1756 H1747 0.950 . S
C1756 C1755 1.398 . S
C1756 C1757 1.391 . S
C1757 H1745 0.950 . S
C1757 C1753 1.393 . S
C1757 C1756 1.391 . S
C1758 H1748 0.950 . S
C1758 C1759 1.386 . S
C1758 C1760 1.391 . S
C1759 C1758 1.386 . S
C1759 C1763 1.393 . S
C1760 H1749 0.950 . S
C1760 C1758 1.391 . S
C1760 C1761 1.400 . S
C1761 C1755 1.491 . S
C1761 C1760 1.400 . S
C1761 C1762 1.398 . S
C1762 H1750 0.950 . S
C1762 C1761 1.398 . S
C1762 C1763 1.391 . S
C1763 H1751 0.950 . S
C1763 C1759 1.393 . S
C1763 C1762 1.391 . S
H1764 C1772 0.950 . S
H1765 C1777 0.950 . S
H1766 C1774 0.950 . S
H1767 C1776 0.950 . S
H1768 C1778 0.950 . S
H1769 C1780 0.950 . S
H1770 C1782 0.950 . S
H1771 C1783 0.950 . S
C1772 H1764 0.950 . S
C1772 C1773 1.386 . S
C1772 C1774 1.391 . S
C1773 C1772 1.386 . S
C1773 C1777 1.393 . S
C1774 H1766 0.950 . S
C1774 C1772 1.391 . S
C1774 C1775 1.400 . S
C1775 C1774 1.400 . S
C1775 C1776 1.398 . S
C1775 C1781 1.491 . S
C1776 H1767 0.950 . S
C1776 C1775 1.398 . S
C1776 C1777 1.391 . S
C1777 H1765 0.950 . S
C1777 C1773 1.393 . S
C1777 C1776 1.391 . S
C1778 H1768 0.950 . S
C1778 C1779 1.386 . S
C1778 C1780 1.391 . S
C1779 C1778 1.386 . S
C1779 C1783 1.393 . S
C1780 H1769 0.950 . S
C1780 C1778 1.391 . S
C1780 C1781 1.400 . S
C1781 C1775 1.491 . S
C1781 C1780 1.400 . S
C1781 C1782 1.398 . S
C1782 H1770 0.950 . S
C1782 C1781 1.398 . S
C1782 C1783 1.391 . S
C1783 H1771 0.950 . S
C1783 C1779 1.393 . S
C1783 C1782 1.391 . S
H1784 C1792 0.950 . S
H1785 C1797 0.950 . S
H1786 C1794 0.950 . S
H1787 C1796 0.950 . S
H1788 C1798 0.950 . S
H1789 C1800 0.950 . S
H1790 C1802 0.950 . S
H1791 C1803 0.950 . S
C1792 H1784 0.950 . S
C1792 C1793 1.386 . S
C1792 C1794 1.391 . S
C1793 C1792 1.386 . S
C1793 C1797 1.393 . S
C1794 H1786 0.950 . S
C1794 C1792 1.391 . S
C1794 C1795 1.400 . S
C1795 C1794 1.400 . S
C1795 C1796 1.398 . S
C1795 C1801 1.491 . S
C1796 H1787 0.950 . S
C1796 C1795 1.398 . S
C1796 C1797 1.391 . S
C1797 H1785 0.950 . S
C1797 C1793 1.393 . S
C1797 C1796 1.391 . S
C1798 H1788 0.950 . S
C1798 C1799 1.386 . S
C1798 C1800 1.391 . S
C1799 C1798 1.386 . S
C1799 C1803 1.393 . S
C1800 H1789 0.950 . S
C1800 C1798 1.391 . S
C1800 C1801 1.400 . S
C1801 C1795 1.491 . S
C1801 C1800 1.400 . S
C1801 C1802 1.398 . S
C1802 H1790 0.950 . S
C1802 C1801 1.398 . S
C1802 C1803 1.391 . S
C1803 H1791 0.950 . S
C1803 C1799 1.393 . S
C1803 C1802 1.391 . S
H1804 C1812 0.950 . S
H1805 C1817 0.950 . S
H1806 C1814 0.950 . S
H1807 C1816 0.950 . S
H1808 C1818 0.950 . S
H1809 C1820 0.950 . S
H1810 C1822 0.950 . S
H1811 C1823 0.950 . S
C1812 H1804 0.950 . S
C1812 C1813 1.386 . S
C1812 C1814 1.391 . S
C1813 C1812 1.386 . S
C1813 C1817 1.393 . S
C1814 H1806 0.950 . S
C1814 C1812 1.391 . S
C1814 C1815 1.400 . S
C1815 C1814 1.400 . S
C1815 C1816 1.398 . S
C1815 C1821 1.491 . S
C1816 H1807 0.950 . S
C1816 C1815 1.398 . S
C1816 C1817 1.391 . S
C1817 H1805 0.950 . S
C1817 C1813 1.393 . S
C1817 C1816 1.391 . S
C1818 H1808 0.950 . S
C1818 C1819 1.386 . S
C1818 C1820 1.391 . S
C1819 C1818 1.386 . S
C1819 C1823 1.393 . S
C1820 H1809 0.950 . S
C1820 C1818 1.391 . S
C1820 C1821 1.400 . S
C1821 C1815 1.491 . S
C1821 C1820 1.400 . S
C1821 C1822 1.398 . S
C1822 H1810 0.950 . S
C1822 C1821 1.398 . S
C1822 C1823 1.391 . S
C1823 H1811 0.950 . S
C1823 C1819 1.393 . S
C1823 C1822 1.391 . S
H1824 C1832 0.950 . S
H1825 C1837 0.950 . S
H1826 C1834 0.950 . S
H1827 C1836 0.950 . S
H1828 C1838 0.950 . S
H1829 C1840 0.950 . S
H1830 C1842 0.950 . S
H1831 C1843 0.950 . S
C1832 H1824 0.950 . S
C1832 C1833 1.386 . S
C1832 C1834 1.391 . S
C1833 C1832 1.386 . S
C1833 C1837 1.393 . S
C1834 H1826 0.950 . S
C1834 C1832 1.391 . S
C1834 C1835 1.400 . S
C1835 C1834 1.400 . S
C1835 C1836 1.398 . S
C1835 C1841 1.491 . S
C1836 H1827 0.950 . S
C1836 C1835 1.398 . S
C1836 C1837 1.391 . S
C1837 H1825 0.950 . S
C1837 C1833 1.393 . S
C1837 C1836 1.391 . S
C1838 H1828 0.950 . S
C1838 C1839 1.386 . S
C1838 C1840 1.391 . S
C1839 C1838 1.386 . S
C1839 C1843 1.393 . S
C1840 H1829 0.950 . S
C1840 C1838 1.391 . S
C1840 C1841 1.400 . S
C1841 C1835 1.491 . S
C1841 C1840 1.400 . S
C1841 C1842 1.398 . S
C1842 H1830 0.950 . S
C1842 C1841 1.398 . S
C1842 C1843 1.391 . S
C1843 H1831 0.950 . S
C1843 C1839 1.393 . S
C1843 C1842 1.391 . S
H1844 C1852 0.950 . S
H1845 C1857 0.950 . S
H1846 C1854 0.950 . S
H1847 C1856 0.950 . S
H1848 C1858 0.950 . S
H1849 C1860 0.950 . S
H1850 C1862 0.950 . S
H1851 C1863 0.950 . S
C1852 H1844 0.950 . S
C1852 C1853 1.386 . S
C1852 C1854 1.391 . S
C1853 C1852 1.386 . S
C1853 C1857 1.393 . S
C1854 H1846 0.950 . S
C1854 C1852 1.391 . S
C1854 C1855 1.400 . S
C1855 C1854 1.400 . S
C1855 C1856 1.398 . S
C1855 C1861 1.491 . S
C1856 H1847 0.950 . S
C1856 C1855 1.398 . S
C1856 C1857 1.391 . S
C1857 H1845 0.950 . S
C1857 C1853 1.393 . S
C1857 C1856 1.391 . S
C1858 H1848 0.950 . S
C1858 C1859 1.386 . S
C1858 C1860 1.391 . S
C1859 C1858 1.386 . S
C1859 C1863 1.393 . S
C1860 H1849 0.950 . S
C1860 C1858 1.391 . S
C1860 C1861 1.400 . S
C1861 C1855 1.491 . S
C1861 C1860 1.400 . S
C1861 C1862 1.398 . S
C1862 H1850 0.950 . S
C1862 C1861 1.398 . S
C1862 C1863 1.391 . S
C1863 H1851 0.950 . S
C1863 C1859 1.393 . S
C1863 C1862 1.391 . S
H1864 C1872 0.950 . S
H1865 C1877 0.950 . S
H1866 C1874 0.950 . S
H1867 C1876 0.950 . S
H1868 C1878 0.950 . S
H1869 C1880 0.950 . S
H1870 C1882 0.950 . S
H1871 C1883 0.950 . S
C1872 H1864 0.950 . S
C1872 C1873 1.386 . S
C1872 C1874 1.391 . S
C1873 C1872 1.386 . S
C1873 C1877 1.393 . S
C1874 H1866 0.950 . S
C1874 C1872 1.391 . S
C1874 C1875 1.400 . S
C1875 C1874 1.400 . S
C1875 C1876 1.398 . S
C1875 C1881 1.491 . S
C1876 H1867 0.950 . S
C1876 C1875 1.398 . S
C1876 C1877 1.391 . S
C1877 H1865 0.950 . S
C1877 C1873 1.393 . S
C1877 C1876 1.391 . S
C1878 H1868 0.950 . S
C1878 C1879 1.386 . S
C1878 C1880 1.391 . S
C1879 C1878 1.386 . S
C1879 C1883 1.393 . S
C1880 H1869 0.950 . S
C1880 C1878 1.391 . S
C1880 C1881 1.400 . S
C1881 C1875 1.491 . S
C1881 C1880 1.400 . S
C1881 C1882 1.398 . S
C1882 H1870 0.950 . S
C1882 C1881 1.398 . S
C1882 C1883 1.391 . S
C1883 H1871 0.950 . S
C1883 C1879 1.393 . S
C1883 C1882 1.391 . S
H1884 C1892 0.950 . S
H1885 C1897 0.950 . S
H1886 C1894 0.950 . S
H1887 C1896 0.950 . S
H1888 C1898 0.950 . S
H1889 C1900 0.950 . S
H1890 C1902 0.950 . S
H1891 C1903 0.950 . S
C1892 H1884 0.950 . S
C1892 C1893 1.386 . S
C1892 C1894 1.391 . S
C1893 C1892 1.386 . S
C1893 C1897 1.393 . S
C1894 H1886 0.950 . S
C1894 C1892 1.391 . S
C1894 C1895 1.400 . S
C1895 C1894 1.400 . S
C1895 C1896 1.398 . S
C1895 C1901 1.491 . S
C1896 H1887 0.950 . S
C1896 C1895 1.398 . S
C1896 C1897 1.391 . S
C1897 H1885 0.950 . S
C1897 C1893 1.393 . S
C1897 C1896 1.391 . S
C1898 H1888 0.950 . S
C1898 C1899 1.386 . S
C1898 C1900 1.391 . S
C1899 C1898 1.386 . S
C1899 C1903 1.393 . S
C1900 H1889 0.950 . S
C1900 C1898 1.391 . S
C1900 C1901 1.400 . S
C1901 C1895 1.491 . S
C1901 C1900 1.400 . S
C1901 C1902 1.398 . S
C1902 H1890 0.950 . S
C1902 C1901 1.398 . S
C1902 C1903 1.391 . S
C1903 H1891 0.950 . S
C1903 C1899 1.393 . S
C1903 C1902 1.391 . S
H1904 C1912 0.950 . S
H1905 C1917 0.950 . S
H1906 C1914 0.950 . S
H1907 C1916 0.950 . S
H1908 C1918 0.950 . S
H1909 C1920 0.950 . S
H1910 C1922 0.950 . S
H1911 C1923 0.950 . S
C1912 H1904 0.950 . S
C1912 C1913 1.386 . S
C1912 C1914 1.391 . S
C1913 C1912 1.386 . S
C1913 C1917 1.393 . S
C1914 H1906 0.950 . S
C1914 C1912 1.391 . S
C1914 C1915 1.400 . S
C1915 C1914 1.400 . S
C1915 C1916 1.398 . S
C1915 C1921 1.491 . S
C1916 H1907 0.950 . S
C1916 C1915 1.398 . S
C1916 C1917 1.391 . S
C1917 H1905 0.950 . S
C1917 C1913 1.393 . S
C1917 C1916 1.391 . S
C1918 H1908 0.950 . S
C1918 C1919 1.386 . S
C1918 C1920 1.391 . S
C1919 C1918 1.386 . S
C1919 C1923 1.393 . S
C1920 H1909 0.950 . S
C1920 C1918 1.391 . S
C1920 C1921 1.400 . S
C1921 C1915 1.491 . S
C1921 C1920 1.400 . S
C1921 C1922 1.398 . S
C1922 H1910 0.950 . S
C1922 C1921 1.398 . S
C1922 C1923 1.391 . S
C1923 H1911 0.950 . S
C1923 C1919 1.393 . S
C1923 C1922 1.391 . S
H1924 C1932 0.950 . S
H1925 C1937 0.950 . S
H1926 C1934 0.950 . S
H1927 C1936 0.950 . S
H1928 C1938 0.950 . S
H1929 C1940 0.950 . S
H1930 C1942 0.950 . S
H1931 C1943 0.950 . S
C1932 H1924 0.950 . S
C1932 C1933 1.386 . S
C1932 C1934 1.391 . S
C1933 C1932 1.386 . S
C1933 C1937 1.393 . S
C1934 H1926 0.950 . S
C1934 C1932 1.391 . S
C1934 C1935 1.400 . S
C1935 C1934 1.400 . S
C1935 C1936 1.398 . S
C1935 C1941 1.491 . S
C1936 H1927 0.950 . S
C1936 C1935 1.398 . S
C1936 C1937 1.391 . S
C1937 H1925 0.950 . S
C1937 C1933 1.393 . S
C1937 C1936 1.391 . S
C1938 H1928 0.950 . S
C1938 C1939 1.386 . S
C1938 C1940 1.391 . S
C1939 C1938 1.386 . S
C1939 C1943 1.393 . S
C1940 H1929 0.950 . S
C1940 C1938 1.391 . S
C1940 C1941 1.400 . S
C1941 C1935 1.491 . S
C1941 C1940 1.400 . S
C1941 C1942 1.398 . S
C1942 H1930 0.950 . S
C1942 C1941 1.398 . S
C1942 C1943 1.391 . S
C1943 H1931 0.950 . S
C1943 C1939 1.393 . S
C1943 C1942 1.391 . S
H1944 C1952 0.950 . S
H1945 C1957 0.950 . S
H1946 C1954 0.950 . S
H1947 C1956 0.950 . S
H1948 C1958 0.950 . S
H1949 C1960 0.950 . S
H1950 C1962 0.950 . S
H1951 C1963 0.950 . S
C1952 H1944 0.950 . S
C1952 C1953 1.386 . S
C1952 C1954 1.391 . S
C1953 C1952 1.386 . S
C1953 C1957 1.393 . S
C1954 H1946 0.950 . S
C1954 C1952 1.391 . S
C1954 C1955 1.400 . S
C1955 C1954 1.400 . S
C1955 C1956 1.398 . S
C1955 C1961 1.491 . S
C1956 H1947 0.950 . S
C1956 C1955 1.398 . S
C1956 C1957 1.391 . S
C1957 H1945 0.950 . S
C1957 C1953 1.393 . S
C1957 C1956 1.391 . S
C1958 H1948 0.950 . S
C1958 C1959 1.386 . S
C1958 C1960 1.391 . S
C1959 C1958 1.386 . S
C1959 C1963 1.393 . S
C1960 H1949 0.950 . S
C1960 C1958 1.391 . S
C1960 C1961 1.400 . S
C1961 C1955 1.491 . S
C1961 C1960 1.400 . S
C1961 C1962 1.398 . S
C1962 H1950 0.950 . S
C1962 C1961 1.398 . S
C1962 C1963 1.391 . S
C1963 H1951 0.950 . S
C1963 C1959 1.393 . S
C1963 C1962 1.391 . S
H1964 C1972 0.950 . S
H1965 C1977 0.950 . S
H1966 C1974 0.950 . S
H1967 C1976 0.950 . S
H1968 C1978 0.950 . S
H1969 C1980 0.950 . S
H1970 C1982 0.950 . S
H1971 C1983 0.950 . S
C1972 H1964 0.950 . S
C1972 C1973 1.386 . S
C1972 C1974 1.391 . S
C1973 C1972 1.386 . S
C1973 C1977 1.393 . S
C1974 H1966 0.950 . S
C1974 C1972 1.391 . S
C1974 C1975 1.400 . S
C1975 C1974 1.400 . S
C1975 C1976 1.398 . S
C1975 C1981 1.491 . S
C1976 H1967 0.950 . S
C1976 C1975 1.398 . S
C1976 C1977 1.391 . S
C1977 H1965 0.950 . S
C1977 C1973 1.393 . S
C1977 C1976 1.391 . S
C1978 H1968 0.950 . S
C1978 C1979 1.386 . S
C1978 C1980 1.391 . S
C1979 C1978 1.386 . S
C1979 C1983 1.393 . S
C1980 H1969 0.950 . S
C1980 C1978 1.391 . S
C1980 C1981 1.400 . S
C1981 C1975 1.491 . S
C1981 C1980 1.400 . S
C1981 C1982 1.398 . S
C1982 H1970 0.950 . S
C1982 C1981 1.398 . S
C1982 C1983 1.391 . S
C1983 H1971 0.950 . S
C1983 C1979 1.393 . S
C1983 C1982 1.391 . S
H1984 C1992 0.950 . S
H1985 C1997 0.950 . S
H1986 C1994 0.950 . S
H1987 C1996 0.950 . S
H1988 C1998 0.950 . S
H1989 C2000 0.950 . S
H1990 C2002 0.950 . S
H1991 C2003 0.950 . S
C1992 H1984 0.950 . S
C1992 C1993 1.386 . S
C1992 C1994 1.391 . S
C1993 C1992 1.386 . S
C1993 C1997 1.393 . S
C1994 H1986 0.950 . S
C1994 C1992 1.391 . S
C1994 C1995 1.400 . S
C1995 C1994 1.400 . S
C1995 C1996 1.398 . S
C1995 C2001 1.491 . S
C1996 H1987 0.950 . S
C1996 C1995 1.398 . S
C1996 C1997 1.391 . S
C1997 H1985 0.950 . S
C1997 C1993 1.393 . S
C1997 C1996 1.391 . S
C1998 H1988 0.950 . S
C1998 C1999 1.386 . S
C1998 C2000 1.391 . S
C1999 C1998 1.386 . S
C1999 C2003 1.393 . S
C2000 H1989 0.950 . S
C2000 C1998 1.391 . S
C2000 C2001 1.400 . S
C2001 C1995 1.491 . S
C2001 C2000 1.400 . S
C2001 C2002 1.398 . S
C2002 H1990 0.950 . S
C2002 C2001 1.398 . S
C2002 C2003 1.391 . S
C2003 H1991 0.950 . S
C2003 C1999 1.393 . S
C2003 C2002 1.391 . S
H2004 C2012 0.950 . S
H2005 C2017 0.950 . S
H2006 C2014 0.950 . S
H2007 C2016 0.950 . S
H2008 C2018 0.950 . S
H2009 C2020 0.950 . S
H2010 C2022 0.950 . S
H2011 C2023 0.950 . S
C2012 H2004 0.950 . S
C2012 C2013 1.386 . S
C2012 C2014 1.391 . S
C2013 C2012 1.386 . S
C2013 C2017 1.393 . S
C2014 H2006 0.950 . S
C2014 C2012 1.391 . S
C2014 C2015 1.400 . S
C2015 C2014 1.400 . S
C2015 C2016 1.398 . S
C2015 C2021 1.491 . S
C2016 H2007 0.950 . S
C2016 C2015 1.398 . S
C2016 C2017 1.391 . S
C2017 H2005 0.950 . S
C2017 C2013 1.393 . S
C2017 C2016 1.391 . S
C2018 H2008 0.950 . S
C2018 C2019 1.386 . S
C2018 C2020 1.391 . S
C2019 C2018 1.386 . S
C2019 C2023 1.393 . S
C2020 H2009 0.950 . S
C2020 C2018 1.391 . S
C2020 C2021 1.400 . S
C2021 C2015 1.491 . S
C2021 C2020 1.400 . S
C2021 C2022 1.398 . S
C2022 H2010 0.950 . S
C2022 C2021 1.398 . S
C2022 C2023 1.391 . S
C2023 H2011 0.950 . S
C2023 C2019 1.393 . S
C2023 C2022 1.391 . S
H2024 C2032 0.950 . S
H2025 C2037 0.950 . S
H2026 C2034 0.950 . S
H2027 C2036 0.950 . S
H2028 C2038 0.950 . S
H2029 C2040 0.950 . S
H2030 C2042 0.950 . S
H2031 C2043 0.950 . S
C2032 H2024 0.950 . S
C2032 C2033 1.386 . S
C2032 C2034 1.391 . S
C2033 C2032 1.386 . S
C2033 C2037 1.393 . S
C2034 H2026 0.950 . S
C2034 C2032 1.391 . S
C2034 C2035 1.400 . S
C2035 C2034 1.400 . S
C2035 C2036 1.398 . S
C2035 C2041 1.491 . S
C2036 H2027 0.950 . S
C2036 C2035 1.398 . S
C2036 C2037 1.391 . S
C2037 H2025 0.950 . S
C2037 C2033 1.393 . S
C2037 C2036 1.391 . S
C2038 H2028 0.950 . S
C2038 C2039 1.386 . S
C2038 C2040 1.391 . S
C2039 C2038 1.386 . S
C2039 C2043 1.393 . S
C2040 H2029 0.950 . S
C2040 C2038 1.391 . S
C2040 C2041 1.400 . S
C2041 C2035 1.491 . S
C2041 C2040 1.400 . S
C2041 C2042 1.398 . S
C2042 H2030 0.950 . S
C2042 C2041 1.398 . S
C2042 C2043 1.391 . S
C2043 H2031 0.950 . S
C2043 C2039 1.393 . S
C2043 C2042 1.391 . S
H2044 C2052 0.950 . S
H2045 C2057 0.950 . S
H2046 C2054 0.950 . S
H2047 C2056 0.950 . S
H2048 C2058 0.950 . S
H2049 C2060 0.950 . S
H2050 C2062 0.950 . S
H2051 C2063 0.950 . S
C2052 H2044 0.950 . S
C2052 C2053 1.386 . S
C2052 C2054 1.391 . S
C2053 C2052 1.386 . S
C2053 C2057 1.393 . S
C2054 H2046 0.950 . S
C2054 C2052 1.391 . S
C2054 C2055 1.400 . S
C2055 C2054 1.400 . S
C2055 C2056 1.398 . S
C2055 C2061 1.491 . S
C2056 H2047 0.950 . S
C2056 C2055 1.398 . S
C2056 C2057 1.391 . S
C2057 H2045 0.950 . S
C2057 C2053 1.393 . S
C2057 C2056 1.391 . S
C2058 H2048 0.950 . S
C2058 C2059 1.386 . S
C2058 C2060 1.391 . S
C2059 C2058 1.386 . S
C2059 C2063 1.393 . S
C2060 H2049 0.950 . S
C2060 C2058 1.391 . S
C2060 C2061 1.400 . S
C2061 C2055 1.491 . S
C2061 C2060 1.400 . S
C2061 C2062 1.398 . S
C2062 H2050 0.950 . S
C2062 C2061 1.398 . S
C2062 C2063 1.391 . S
C2063 H2051 0.950 . S
C2063 C2059 1.393 . S
C2063 C2062 1.391 . S
C639 C354 1.463 . S
C633 C308 1.544 . S
C653 C282 1.353 . S
C659 C348 1.273 . S
C679 C316 1.421 . S
C673 C269 1.491 . S
C693 C295 1.731 . S
C699 C330 1.614 . S
C719 C368 1.935 . S
C713 C217 2.043 . S
C739 C455 1.532 . S
C733 C230 1.566 . S
C753 C243 2.110 . S
C759 C382 1.993 . S
C779 C450 1.010 . S
C773 C256 1.021 . S
C793 C165 2.093 . S
C799 C406 1.994 . S
C819 C461 1.377 . S
C813 C178 1.429 . S
C833 C191 2.058 . S
C839 C400 1.946 . S
C853 C204 1.293 . S
C859 C446 1.275 . S
C879 C502 1.279 . S
C873 C152 1.322 . S
C893 C126 1.480 . S
C899 C513 1.450 . S
C913 C113 1.176 . S
C919 C498 1.152 . S
C939 C507 1.708 . S
C933 C139 1.726 . S
C953 C61 1.611 . S
C959 C552 1.522 . S
C973 C74 0.853 . S
C979 C611 0.860 . S
C993 C87 1.764 . S
C999 C568 1.655 . S
C1013 C100 1.017 . S
C1019 C606 0.987 . S
C1039 C570 1.654 . S
C1033 C9 1.782 . S
C1059 C617 0.613 . S
C1053 C22 0.605 . S
C1073 C35 1.614 . S
C1079 C546 1.540 . S
C1099 C602 1.170 . S
C1093 C48 1.205 . S
C1119 C338 1.500 . S
C1113 C4 1.373 . S
C1133 C21 1.225 . S
C1139 C342 1.235 . S
C1153 C34 1.828 . S
C1159 C362 1.776 . S
C1173 C43 0.844 . S
C1179 C357 0.883 . S
C1193 C56 1.395 . S
C1199 C360 1.513 . S
C1219 C346 1.079 . S
C1213 C69 0.956 . S
C1233 C86 1.787 . S
C1239 C344 1.729 . S
C1259 C351 0.962 . S
C1253 C99 0.924 . S
C1279 C414 1.599 . S
C1273 C47 1.663 . S
C1293 C8 1.999 . S
C1299 C464 1.917 . S
C1319 C412 1.005 . S
C1313 C17 0.936 . S
C1339 C448 1.615 . S
C1333 C30 1.444 . S
C1353 C73 1.347 . S
C1359 C390 1.304 . S
C1379 C466 1.676 . S
C1373 C82 1.563 . S
C1399 C396 1.208 . S
C1393 C95 1.103 . S
C1419 C442 1.871 . S
C1413 C60 1.943 . S
C1439 C434 1.437 . S
C1433 C112 1.445 . S
C1453 C125 1.253 . S
C1459 C458 1.292 . S
C1479 C394 1.132 . S
C1473 C108 1.020 . S
C1499 C420 1.491 . S
C1493 C138 1.514 1_556 S
C1513 C147 0.945 . S
C1519 C398 1.076 . S
C1533 C151 1.610 . S
C1539 C452 1.566 . S
C1559 C409 1.357 . S
C1553 C121 1.178 . S
C1579 C403 1.397 . S
C1573 C134 1.234 1_554 S
C1599 C486 1.832 . S
C1593 C160 1.627 . S
C1619 C518 1.411 . S
C1613 C177 1.388 . S
C1633 C190 2.092 . S
C1639 C472 2.004 . S
C1659 C516 1.048 . S
C1653 C199 0.986 . S
C1679 C504 1.761 . S
C1673 C212 1.605 . S
C1693 C225 1.121 . S
C1699 C500 1.256 . S
C1713 C242 2.109 . S
C1719 C510 2.083 . S
C1739 C494 1.068 . S
C1733 C255 1.108 . S
C1759 C559 1.489 . S
C1753 C203 1.476 . S
C1773 C164 1.728 . S
C1779 C620 1.695 . S
C1799 C554 0.927 . S
C1793 C173 0.855 . S
C1819 C604 1.517 . S
C1813 C186 1.306 . S
C1839 C550 1.196 . S
C1833 C229 1.209 . S
C1853 C238 1.268 . S
C1859 C622 1.440 . S
C1879 C565 1.128 . S
C1873 C251 0.999 . S
C1899 C598 1.576 . S
C1893 C216 1.646 . S
C1919 C590 1.558 . S
C1913 C268 1.586 . S
C1933 C281 1.678 . S
C1939 C614 1.626 . S
C1959 C556 1.321 . S
C1953 C264 1.203 . S
C1973 C294 1.995 . S
C1979 C576 1.871 . S
C1999 C538 1.379 . S
C1993 C303 1.262 . S
C2019 C608 1.710 . S
C2013 C307 1.754 . S
C2039 C524 1.363 . S
C2033 C277 1.262 . S
C2053 C290 1.195 . S
C2059 C562 1.323 . S
