# Generated by pormake.
# Topology pto, (3,4)-cn, num edge types: 1
# Building blocks:
#     Node 0, Type 0, BuildingBlock: WUSLED_clean_sbu_0, # of connection points: 3
#     Node 1, Type 0, BuildingBlock: WUSLED_clean_sbu_0, # of connection points: 3
#     Node 2, Type 0, BuildingBlock: WUSLED_clean_sbu_0, # of connection points: 3
#     Node 3, Type 0, BuildingBlock: WUSLED_clean_sbu_0, # of connection points: 3
#     Node 4, Type 0, BuildingBlock: WUSLED_clean_sbu_0, # of connection points: 3
#     Node 5, Type 0, BuildingBlock: WUSLED_clean_sbu_0, # of connection points: 3
#     Node 6, Type 0, BuildingBlock: WUSLED_clean_sbu_0, # of connection points: 3
#     Node 7, Type 0, BuildingBlock: WUSLED_clean_sbu_0, # of connection points: 3
#     Node 8, Type 1, BuildingBlock: GIZVER_clean_linker_0, # of connection points: 4
#     Node 9, Type 1, BuildingBlock: GIZVER_clean_linker_0, # of connection points: 4
#     Node 10, Type 1, BuildingBlock: GIZVER_clean_linker_0, # of connection points: 4
#     Node 11, Type 1, BuildingBlock: GIZVER_clean_linker_0, # of connection points: 4
#     Node 12, Type 1, BuildingBlock: GIZVER_clean_linker_0, # of connection points: 4
#     Node 13, Type 1, BuildingBlock: GIZVER_clean_linker_0, # of connection points: 4
#     Edge 14, Type (0, 1), BuildingBlock: XIVTED_clean_linker_0, # of connection points: 2
#     Edge 15, Type (0, 1), BuildingBlock: XIVTED_clean_linker_0, # of connection points: 2
#     Edge 16, Type (0, 1), BuildingBlock: XIVTED_clean_linker_0, # of connection points: 2
#     Edge 17, Type (0, 1), BuildingBlock: XIVTED_clean_linker_0, # of connection points: 2
#     Edge 18, Type (0, 1), BuildingBlock: XIVTED_clean_linker_0, # of connection points: 2
#     Edge 19, Type (0, 1), BuildingBlock: XIVTED_clean_linker_0, # of connection points: 2
#     Edge 20, Type (0, 1), BuildingBlock: XIVTED_clean_linker_0, # of connection points: 2
#     Edge 21, Type (0, 1), BuildingBlock: XIVTED_clean_linker_0, # of connection points: 2
#     Edge 22, Type (0, 1), BuildingBlock: XIVTED_clean_linker_0, # of connection points: 2
#     Edge 23, Type (0, 1), BuildingBlock: XIVTED_clean_linker_0, # of connection points: 2
#     Edge 24, Type (0, 1), BuildingBlock: XIVTED_clean_linker_0, # of connection points: 2
#     Edge 25, Type (0, 1), BuildingBlock: XIVTED_clean_linker_0, # of connection points: 2
#     Edge 26, Type (0, 1), BuildingBlock: XIVTED_clean_linker_0, # of connection points: 2
#     Edge 27, Type (0, 1), BuildingBlock: XIVTED_clean_linker_0, # of connection points: 2
#     Edge 28, Type (0, 1), BuildingBlock: XIVTED_clean_linker_0, # of connection points: 2
#     Edge 29, Type (0, 1), BuildingBlock: XIVTED_clean_linker_0, # of connection points: 2
#     Edge 30, Type (0, 1), BuildingBlock: XIVTED_clean_linker_0, # of connection points: 2
#     Edge 31, Type (0, 1), BuildingBlock: XIVTED_clean_linker_0, # of connection points: 2
#     Edge 32, Type (0, 1), BuildingBlock: XIVTED_clean_linker_0, # of connection points: 2
#     Edge 33, Type (0, 1), BuildingBlock: XIVTED_clean_linker_0, # of connection points: 2
#     Edge 34, Type (0, 1), BuildingBlock: XIVTED_clean_linker_0, # of connection points: 2
#     Edge 35, Type (0, 1), BuildingBlock: XIVTED_clean_linker_0, # of connection points: 2
#     Edge 36, Type (0, 1), BuildingBlock: XIVTED_clean_linker_0, # of connection points: 2
#     Edge 37, Type (0, 1), BuildingBlock: XIVTED_clean_linker_0, # of connection points: 2
# Relax obj value: 0.003
# Max RMSD: 0.031
# Mean RMSD: 0.021
data_MOF--net-pto--node1-WUSLED_clean_sbu_0--node2-GIZVER_clean_linker_0--edge1-XIVTED_clean_linker_0
_symmetry_space_group_name_H-M    P1
_symmetry_Int_Tables_number       1
_symmetry_cell_setting            triclinic
loop_
_symmetry_equiv_pos_as_xyz
'x, y, z'
_cell_length_a     66.236964
_cell_length_b     53.861194
_cell_length_c     39.671419
_cell_angle_alpha  89.42242
_cell_angle_beta   90.360614
_cell_angle_gamma 90.139647
loop_
_atom_site_label
_atom_site_type_symbol
_atom_site_fract_x
_atom_site_fract_y
_atom_site_fract_z
_atom_type_partial_charge
C0 C 0.2481 0.25166 0.25791 0.0
C1 C 0.23133 0.23592 0.26076 0.0
C2 C 0.25192 0.20479 0.28973 0.0
C3 C 0.23321 0.21267 0.27645 0.0
C4 C 0.26883 0.22045 0.28593 0.0
C5 C 0.26695 0.24364 0.27007 0.0
U6 U 0.27024 0.30974 0.21688 0.0
O7 O 0.2583 0.33355 0.17602 0.0
O8 O 0.26379 0.34915 0.22619 0.0
C9 C 0.25567 0.35252 0.19617 0.0
C10 C 0.24566 0.27659 0.24305 0.0
C11 C 0.23541 0.36403 0.19601 0.0
C12 C 0.19906 0.36216 0.18634 0.0
C13 C 0.21814 0.351 0.18524 0.0
C14 C 0.2142 0.39935 0.20929 0.0
C15 C 0.19687 0.3864 0.19865 0.0
C16 C 0.23325 0.38831 0.20787 0.0
C17 C 0.32816 0.30942 0.20173 0.0
C18 C 0.34782 0.33546 0.16367 0.0
C19 C 0.36478 0.30702 0.20207 0.0
C20 C 0.34612 0.29946 0.21483 0.0
C21 C 0.36586 0.32473 0.17584 0.0
C22 C 0.32909 0.32783 0.17648 0.0
C23 C 0.30883 0.29892 0.21331 0.0
O24 O 0.25375 0.29477 0.26044 0.0
O25 O 0.24914 0.27842 0.21054 0.0
O26 O 0.29562 0.2933 0.1897 0.0
O27 O 0.30066 0.30925 0.2398 0.0
H28 H 0.21671 0.24176 0.25125 0.0
H29 H 0.21995 0.20095 0.2784 0.0
H30 H 0.28341 0.21518 0.29618 0.0
H31 H 0.28011 0.25553 0.26794 0.0
H32 H 0.18598 0.35165 0.1782 0.0
H33 H 0.21931 0.33214 0.17627 0.0
H34 H 0.21306 0.41816 0.21848 0.0
H35 H 0.24634 0.3987 0.21631 0.0
H36 H 0.34811 0.349 0.14332 0.0
H37 H 0.37836 0.29868 0.21238 0.0
H38 H 0.34569 0.28529 0.23441 0.0
H39 H 0.31537 0.33575 0.16604 0.0
C40 C 0.24724 0.77917 0.71946 0.0
C41 C 0.26635 0.78691 0.70841 0.0
C42 C 0.25195 0.82552 0.68662 0.0
C43 C 0.26868 0.80986 0.69207 0.0
C44 C 0.23295 0.8179 0.6987 0.0
C45 C 0.23064 0.79491 0.71491 0.0
U46 U 0.26801 0.72091 0.76253 0.0
O47 O 0.25544 0.69858 0.80427 0.0
O48 O 0.26022 0.68167 0.75491 0.0
C49 C 0.25198 0.67933 0.78486 0.0
C50 C 0.24433 0.75457 0.73504 0.0
C51 C 0.23126 0.66865 0.78569 0.0
C52 C 0.19918 0.66202 0.81435 0.0
C53 C 0.21857 0.67243 0.81348 0.0
C54 C 0.20474 0.64366 0.7598 0.0
C55 C 0.19202 0.64749 0.78751 0.0
C56 C 0.22412 0.65401 0.75895 0.0
C57 C 0.32575 0.71822 0.77871 0.0
C58 C 0.34435 0.69357 0.82011 0.0
C59 C 0.36237 0.71604 0.77644 0.0
C60 C 0.34403 0.72467 0.76328 0.0
C61 C 0.3628 0.7008 0.80544 0.0
C62 C 0.32597 0.70221 0.80685 0.0
C63 C 0.30698 0.72982 0.76626 0.0
O64 O 0.25186 0.73585 0.71827 0.0
O65 O 0.24795 0.7532 0.7676 0.0
O66 O 0.29404 0.73678 0.78932 0.0
O67 O 0.29833 0.71949 0.73997 0.0
H68 H 0.27937 0.77499 0.71186 0.0
H69 H 0.28347 0.81496 0.68278 0.0
H70 H 0.21981 0.82963 0.69545 0.0
H71 H 0.21581 0.78929 0.72354 0.0
H72 H 0.18976 0.66545 0.83601 0.0
H73 H 0.22362 0.68339 0.83467 0.0
H74 H 0.19991 0.63215 0.739 0.0
H75 H 0.23355 0.65035 0.73737 0.0
H76 H 0.3441 0.68205 0.84263 0.0
H77 H 0.37623 0.72162 0.76416 0.0
H78 H 0.34416 0.73693 0.74145 0.0
H79 H 0.31201 0.69697 0.81913 0.0
C80 C 0.72822 0.71436 0.20755 0.0
C81 C 0.72781 0.69979 0.17841 0.0
C82 C 0.69105 0.69707 0.1813 0.0
C83 C 0.70938 0.69122 0.16539 0.0
C84 C 0.69171 0.71078 0.21128 0.0
C85 C 0.7101 0.71935 0.2242 0.0
U86 U 0.78603 0.71825 0.2236 0.0
O87 O 0.8056 0.75121 0.21816 0.0
O88 O 0.80206 0.73312 0.26762 0.0
C89 C 0.80902 0.75244 0.25078 0.0
C90 C 0.74695 0.72619 0.21975 0.0
C91 C 0.80583 0.77696 0.26618 0.0
C92 C 0.78942 0.80341 0.30706 0.0
C93 C 0.7914 0.78037 0.29153 0.0
C94 C 0.81567 0.82029 0.27129 0.0
C95 C 0.80167 0.82363 0.29741 0.0
C96 C 0.81777 0.79717 0.25597 0.0
C97 C 0.82307 0.66685 0.20168 0.0
C98 C 0.84554 0.63202 0.21265 0.0
C99 C 0.85934 0.67133 0.19347 0.0
C100 C 0.83987 0.68146 0.19268 0.0
C101 C 0.8624 0.64653 0.2037 0.0
C102 C 0.8261 0.64206 0.21154 0.0
C103 C 0.8024 0.67712 0.202 0.0
O104 O 0.75571 0.71589 0.24619 0.0
O105 O 0.75979 0.73362 0.19657 0.0
O106 O 0.7989 0.69648 0.18233 0.0
O107 O 0.79433 0.67912 0.23203 0.0
H108 H 0.74163 0.69568 0.16515 0.0
H109 H 0.70945 0.6809 0.14211 0.0
H110 H 0.67796 0.71527 0.2245 0.0
H111 H 0.71011 0.7305 0.24679 0.0
H112 H 0.77869 0.80508 0.32738 0.0
H113 H 0.78188 0.76515 0.29983 0.0
H114 H 0.82512 0.83551 0.26275 0.0
H115 H 0.8289 0.79501 0.23632 0.0
H116 H 0.84734 0.61277 0.22019 0.0
H117 H 0.87204 0.68302 0.18667 0.0
H118 H 0.83799 0.70073 0.18529 0.0
H119 H 0.81339 0.63047 0.2186 0.0
C120 C 0.76277 0.24532 0.732 0.0
C121 C 0.77835 0.22914 0.74203 0.0
C122 C 0.76922 0.20055 0.69707 0.0
C123 C 0.7815 0.20693 0.72478 0.0
C124 C 0.75369 0.21692 0.68716 0.0
C125 C 0.75047 0.23896 0.70452 0.0
U126 U 0.77914 0.30798 0.76929 0.0
O127 O 0.76326 0.34379 0.76672 0.0
O128 O 0.76917 0.32609 0.81579 0.0
C129 C 0.75958 0.34378 0.79924 0.0
C130 C 0.75879 0.26875 0.74974 0.0
C131 C 0.73822 0.34676 0.8083 0.0
C132 C 0.70368 0.33136 0.80806 0.0
C133 C 0.72386 0.32904 0.79838 0.0
C134 C 0.71193 0.36936 0.83732 0.0
C135 C 0.69748 0.35144 0.82793 0.0
C136 C 0.73212 0.36701 0.8276 0.0
C137 C 0.83547 0.32798 0.76296 0.0
C138 C 0.86048 0.35623 0.73902 0.0
C139 C 0.86308 0.34381 0.79765 0.0
C140 C 0.84566 0.32925 0.79413 0.0
C141 C 0.87081 0.35734 0.77006 0.0
C142 C 0.84311 0.34166 0.73549 0.0
C143 C 0.81814 0.31084 0.75786 0.0
O144 O 0.76651 0.27098 0.78019 0.0
O145 O 0.76039 0.28908 0.73136 0.0
O146 O 0.80434 0.31785 0.73578 0.0
O147 O 0.81044 0.30011 0.78482 0.0
H148 H 0.78809 0.23357 0.76317 0.0
H149 H 0.79346 0.1947 0.73336 0.0
H150 H 0.74419 0.21297 0.66555 0.0
H151 H 0.73838 0.25118 0.69632 0.0
H152 H 0.69295 0.31739 0.80001 0.0
H153 H 0.7283 0.31328 0.7834 0.0
H154 H 0.70778 0.38485 0.85301 0.0
H155 H 0.74303 0.38081 0.83556 0.0
H156 H 0.86579 0.36668 0.71734 0.0
H157 H 0.87076 0.34395 0.82183 0.0
H158 H 0.84043 0.31864 0.81572 0.0
H159 H 0.8358 0.34083 0.71101 0.0
C160 C 0.82343 0.6617 0.7975 0.0
C161 C 0.83456 0.6599 0.82768 0.0
C162 C 0.86258 0.6405 0.79832 0.0
C163 C 0.85392 0.64953 0.82809 0.0
C164 C 0.85143 0.64238 0.7681 0.0
C165 C 0.83212 0.65286 0.76767 0.0
U166 U 0.78645 0.7132 0.77317 0.0
O167 O 0.75515 0.71184 0.75442 0.0
O168 O 0.76216 0.73119 0.80161 0.0
C169 C 0.74804 0.72383 0.7805 0.0
C170 C 0.80281 0.67249 0.79765 0.0
C171 C 0.72923 0.71438 0.79566 0.0
C172 C 0.70495 0.68146 0.80751 0.0
C173 C 0.7236 0.68922 0.79449 0.0
C174 C 0.69758 0.72378 0.8233 0.0
C175 C 0.69162 0.69872 0.8218 0.0
C176 C 0.71612 0.73148 0.81032 0.0
C177 C 0.80599 0.76954 0.72382 0.0
C178 C 0.78966 0.79561 0.68132 0.0
C179 C 0.81501 0.8132 0.71833 0.0
C180 C 0.81741 0.7901 0.73421 0.0
C181 C 0.80124 0.81621 0.69144 0.0
C182 C 0.79195 0.77256 0.69739 0.0
C183 C 0.80917 0.74521 0.74057 0.0
O184 O 0.80055 0.69273 0.81552 0.0
O185 O 0.79321 0.67345 0.76852 0.0
O186 O 0.80077 0.72582 0.72619 0.0
O187 O 0.80739 0.74502 0.77355 0.0
H188 H 0.82825 0.6665 0.85107 0.0
H189 H 0.86211 0.64868 0.85177 0.0
H190 H 0.85741 0.63524 0.74479 0.0
H191 H 0.82398 0.6538 0.74393 0.0
H192 H 0.70082 0.66204 0.80584 0.0
H193 H 0.73348 0.67567 0.78323 0.0
H194 H 0.68797 0.73751 0.8348 0.0
H195 H 0.72017 0.75096 0.8115 0.0
H196 H 0.77915 0.79707 0.66039 0.0
H197 H 0.82396 0.8287 0.72717 0.0
H198 H 0.82828 0.78826 0.7546 0.0
H199 H 0.78287 0.75709 0.6888 0.0
C200 C 0.72916 0.3087 0.19126 0.0
C201 C 0.71874 0.32945 0.20355 0.0
C202 C 0.69059 0.32138 0.16518 0.0
C203 C 0.69968 0.33577 0.19055 0.0
C204 C 0.7013 0.30104 0.15243 0.0
C205 C 0.72027 0.29474 0.16541 0.0
U206 U 0.7865 0.31094 0.21451 0.0
O207 O 0.80103 0.29905 0.262 0.0
O208 O 0.80792 0.27984 0.21497 0.0
C209 C 0.81008 0.28015 0.2479 0.0
C210 C 0.74812 0.29963 0.20705 0.0
C211 C 0.80734 0.2561 0.26498 0.0
C212 C 0.78619 0.22111 0.28116 0.0
C213 C 0.78857 0.244 0.26464 0.0
C214 C 0.82137 0.22225 0.29829 0.0
C215 C 0.80258 0.20997 0.29823 0.0
C216 C 0.82371 0.2451 0.28179 0.0
C217 C 0.82282 0.3621 0.18955 0.0
C218 C 0.85668 0.36357 0.21357 0.0
C219 C 0.84778 0.3907 0.16675 0.0
C220 C 0.82827 0.38067 0.16634 0.0
C221 C 0.8622 0.38238 0.19052 0.0
C222 C 0.8372 0.35345 0.21299 0.0
C223 C 0.80224 0.35168 0.18903 0.0
O224 O 0.76227 0.29203 0.18648 0.0
O225 O 0.75528 0.31187 0.23308 0.0
O226 O 0.79309 0.35085 0.21835 0.0
O227 O 0.80007 0.33116 0.17172 0.0
H228 H 0.72506 0.34047 0.22373 0.0
H229 H 0.69181 0.35146 0.20108 0.0
H230 H 0.69499 0.28984 0.13243 0.0
H231 H 0.72784 0.27853 0.15565 0.0
H232 H 0.77158 0.21206 0.28037 0.0
H233 H 0.77577 0.25228 0.25165 0.0
H234 H 0.83421 0.21445 0.31167 0.0
H235 H 0.83829 0.25426 0.28233 0.0
H236 H 0.86747 0.35655 0.23193 0.0
H237 H 0.85145 0.40536 0.14892 0.0
H238 H 0.81738 0.38752 0.14801 0.0
H239 H 0.83334 0.33892 0.23092 0.0
C240 C 0.24834 0.25106 0.72283 0.0
C241 C 0.26418 0.23504 0.73202 0.0
C242 C 0.25333 0.20546 0.68941 0.0
C243 C 0.26659 0.21239 0.71557 0.0
C244 C 0.23749 0.22167 0.68039 0.0
C245 C 0.23501 0.2442 0.69701 0.0
U246 U 0.2701 0.30695 0.76865 0.0
O247 O 0.26295 0.34664 0.76326 0.0
O248 O 0.25815 0.32763 0.81172 0.0
C249 C 0.25516 0.34787 0.7936 0.0
C250 C 0.24578 0.27518 0.73931 0.0
C251 C 0.23461 0.35814 0.79495 0.0
C252 C 0.19901 0.35618 0.77978 0.0
C253 C 0.21845 0.34606 0.77891 0.0
C254 C 0.21166 0.3904 0.81305 0.0
C255 C 0.19537 0.37852 0.79681 0.0
C256 C 0.23109 0.38029 0.81209 0.0
C257 C 0.32801 0.30654 0.78451 0.0
C258 C 0.34721 0.33367 0.82144 0.0
C259 C 0.36454 0.30337 0.78748 0.0
C260 C 0.34606 0.29565 0.77402 0.0
C261 C 0.36535 0.32219 0.81178 0.0
C262 C 0.32866 0.32587 0.80795 0.0
C263 C 0.30881 0.29646 0.77169 0.0
O264 O 0.24909 0.2754 0.77201 0.0
O265 O 0.25383 0.29425 0.72339 0.0
O266 O 0.30044 0.30845 0.74623 0.0
O267 O 0.29575 0.28911 0.79455 0.0
H268 H 0.27472 0.24007 0.75181 0.0
H269 H 0.27882 0.20031 0.72345 0.0
H270 H 0.22723 0.21725 0.65995 0.0
H271 H 0.2228 0.25643 0.68941 0.0
H272 H 0.1868 0.34641 0.76731 0.0
H273 H 0.2209 0.32886 0.76563 0.0
H274 H 0.2095 0.4078 0.82594 0.0
H275 H 0.24341 0.38989 0.82453 0.0
H276 H 0.34728 0.34807 0.8403 0.0
H277 H 0.37821 0.29441 0.77909 0.0
H278 H 0.34584 0.28077 0.75583 0.0
H279 H 0.31483 0.33449 0.81633 0.0
C280 C 0.21628 0.70184 0.22732 0.0
C281 C 0.21466 0.68501 0.20064 0.0
C282 C 0.18198 0.67083 0.22154 0.0
C283 C 0.19762 0.6697 0.1977 0.0
C284 C 0.18379 0.68765 0.24829 0.0
C285 C 0.20074 0.70301 0.25108 0.0
U286 U 0.2725 0.71958 0.21717 0.0
O287 O 0.28567 0.75579 0.2035 0.0
O288 O 0.29238 0.739 0.25294 0.0
C289 C 0.29416 0.75864 0.23326 0.0
C290 C 0.23373 0.71868 0.23081 0.0
C291 C 0.29068 0.78258 0.24964 0.0
C292 C 0.26835 0.81551 0.2678 0.0
C293 C 0.27133 0.79302 0.25117 0.0
C294 C 0.30403 0.81724 0.28147 0.0
C295 C 0.28466 0.82783 0.28338 0.0
C296 C 0.30698 0.79487 0.26471 0.0
C297 C 0.31179 0.67807 0.17854 0.0
C298 C 0.34748 0.68832 0.18321 0.0
C299 C 0.33622 0.65799 0.14249 0.0
C300 C 0.31627 0.66118 0.15307 0.0
C301 C 0.35209 0.67163 0.15728 0.0
C302 C 0.32753 0.69158 0.19361 0.0
C303 C 0.29066 0.68222 0.18836 0.0
O304 O 0.24772 0.71167 0.25251 0.0
O305 O 0.24114 0.72805 0.20274 0.0
O306 O 0.28124 0.69976 0.17123 0.0
O307 O 0.28741 0.68323 0.22099 0.0
H308 H 0.22654 0.68371 0.1821 0.0
H309 H 0.19682 0.65672 0.17707 0.0
H310 H 0.17196 0.68919 0.26686 0.0
H311 H 0.20169 0.71594 0.27179 0.0
H312 H 0.25327 0.82321 0.26847 0.0
H313 H 0.25852 0.78372 0.23972 0.0
H314 H 0.31687 0.82586 0.2937 0.0
H315 H 0.322 0.78697 0.26395 0.0
H316 H 0.35928 0.69891 0.19548 0.0
H317 H 0.33909 0.64531 0.12207 0.0
H318 H 0.30431 0.65073 0.14096 0.0
H319 H 0.32436 0.70483 0.21325 0.0
H320 H 1.00711 0.47666 0.16518 0.0
H321 H 1.00737 0.55653 0.17181 0.0
H322 H 0.95792 0.51431 0.2124 0.0
H323 H 0.02941 0.50148 0.1296 0.0
H324 H 0.02856 0.5345 0.13026 0.0
H325 H 0.05212 0.47831 0.16745 0.0
H326 H 0.10009 0.51999 0.21364 0.0
H327 H 0.04915 0.55823 0.17068 0.0
C328 C 1.0004 0.49367 0.17419 0.0
C329 C 0.98167 0.49275 0.19062 0.0
C330 C 1.01005 0.51662 0.16798 0.0
C331 C 1.00054 0.53875 0.17793 0.0
C332 C 0.98183 0.53798 0.19445 0.0
C333 C 0.97283 0.51491 0.20126 0.0
C334 C 0.02895 0.51768 0.14676 0.0
C335 C 0.04805 0.51815 0.1679 0.0
C336 C 0.05836 0.4959 0.17558 0.0
C337 C 0.07711 0.49642 0.19244 0.0
C338 C 0.0852 0.51936 0.20215 0.0
C339 C 0.07535 0.54171 0.19435 0.0
C340 C 0.05666 0.541 0.17742 0.0
H341 H 0.04946 0.5498 0.76056 0.0
H342 H 0.05047 0.46974 0.76245 0.0
H343 H 0.09908 0.51111 0.80712 0.0
H344 H 0.02781 0.5261 0.72261 0.0
H345 H 0.0291 0.4931 0.7216 0.0
H346 H 1.00591 0.54735 0.76371 0.0
H347 H 0.95671 0.50378 0.80241 0.0
H348 H 1.00726 0.46751 0.75698 0.0
C349 C 0.05641 0.53255 0.76877 0.0
C350 C 0.07506 0.53314 0.78586 0.0
C351 C 0.04716 0.5097 0.76089 0.0
C352 C 0.05698 0.48737 0.76985 0.0
C353 C 0.07562 0.4878 0.787 0.0
C354 C 0.08422 0.51072 0.79547 0.0
C355 C 0.0284 0.50919 0.73894 0.0
C356 C 1.00918 0.50756 0.75931 0.0
C357 C 0.99928 0.52939 0.76937 0.0
C358 C 0.98043 0.52807 0.78541 0.0
C359 C 0.97173 0.50474 0.79172 0.0
C360 C 0.98113 0.48281 0.78145 0.0
C361 C 1.00002 0.48432 0.76556 0.0
H362 H 0.28891 0.04235 0.43744 0.0
H363 H 0.2909 0.04289 0.546 0.0
H364 H 0.25801 0.09932 0.49189 0.0
H365 H 0.31538 0.01913 0.46994 0.0
H366 H 0.31438 0.01728 0.51488 0.0
H367 H 0.29525 0.99148 0.43527 0.0
H368 H 0.26569 0.92998 0.48439 0.0
H369 H 0.28876 0.99035 0.54323 0.0
C370 C 0.2843 0.0504 0.4611 0.0
C371 C 0.27221 0.0718 0.46096 0.0
C372 C 0.29089 0.03968 0.49173 0.0
C373 C 0.28543 0.05067 0.52236 0.0
C374 C 0.27332 0.07201 0.52251 0.0
C375 C 0.26657 0.08218 0.4918 0.0
C376 C 0.30487 0.01762 0.49165 0.0
C377 C 0.2931 0.99367 0.48944 0.0
C378 C 0.28969 0.98252 0.45798 0.0
C379 C 0.27965 0.95956 0.45586 0.0
C380 C 0.27261 0.94822 0.48556 0.0
C381 C 0.27578 0.95911 0.51713 0.0
C382 C 0.28601 0.98192 0.51892 0.0
H383 H 0.50467 0.6911 0.94065 0.0
H384 H 0.50208 0.68586 0.04893 0.0
H385 H 0.45271 0.65913 0.98882 0.0
H386 H 0.52544 0.71802 0.9761 0.0
H387 H 0.52423 0.71607 0.02076 0.0
H388 H 0.5468 0.68894 0.94384 0.0
H389 H 0.59864 0.66277 -0.00092 0.0
H390 H 0.54702 0.68956 0.05238 0.0
C391 C 0.49716 0.68456 0.96326 0.0
C392 C 0.47788 0.67368 0.96077 0.0
C393 C 0.50617 0.68867 -0.005 0.0
C394 C 0.49573 0.68158 0.02441 0.0
C395 C 0.47654 0.6705 0.02224 0.0
C396 C 0.46804 0.66615 0.99039 0.0
C397 C 0.52495 0.7046 -0.00239 0.0
C398 C 0.54429 0.68971 -0.00192 0.0
C399 C 0.55403 0.68414 0.96761 0.0
C400 C 0.57362 0.67408 0.96777 0.0
C401 C 0.58307 0.66892 -0.00119 0.0
C402 C 0.57374 0.67448 0.02947 0.0
C403 C 0.55415 0.68451 0.02892 0.0
H404 H 0.8146 0.04247 0.44362 0.0
H405 H 0.81022 0.0402 0.55181 0.0
H406 H 0.78271 0.09986 0.49574 0.0
H407 H 0.83766 0.01682 0.47707 0.0
H408 H 0.83662 0.01667 0.52199 0.0
H409 H 0.81465 0.99035 0.44365 0.0
H410 H 0.78963 0.92732 0.496 0.0
H411 H 0.81447 0.98814 0.55214 0.0
C412 C 0.80881 0.05017 0.46676 0.0
C413 C 0.79768 0.07236 0.46574 0.0
C414 C 0.81327 0.03838 0.4977 0.0
C415 C 0.80632 0.04881 0.52782 0.0
C416 C 0.79494 0.07076 0.52712 0.0
C417 C 0.79049 0.08218 0.49603 0.0
C418 C 0.82711 0.0162 0.49878 0.0
C419 C 0.81531 0.99222 0.49799 0.0
C420 C 0.81042 0.98117 0.46701 0.0
C421 C 0.8009 0.95785 0.46614 0.0
C422 C 0.79593 0.94591 0.49658 0.0
C423 C 0.80092 0.95651 0.52773 0.0
C424 C 0.81033 0.97991 0.52824 0.0
H425 H 0.50503 0.37938 0.93878 0.0
H426 H 0.50492 0.38104 0.04758 0.0
H427 H 0.45788 0.3427 -0.00589 0.0
H428 H 0.52618 0.40949 0.97003 0.0
H429 H 0.52654 0.40959 0.01502 0.0
H430 H 0.54926 0.38329 0.93873 0.0
H431 H 0.59603 0.34525 -0.00605 0.0
H432 H 0.54714 0.37871 0.0474 0.0
C433 C 0.4985 0.37375 0.96266 0.0
C434 C 0.48061 0.3597 0.96301 0.0
C435 C 0.50772 0.381 -0.00682 0.0
C436 C 0.49844 0.37469 0.02402 0.0
C437 C 0.48055 0.36064 0.0244 0.0
C438 C 0.47206 0.35284 -0.00611 0.0
C439 C 0.5264 0.3972 -0.00725 0.0
C440 C 0.54551 0.38186 -0.00705 0.0
C441 C 0.55541 0.37653 0.96247 0.0
C442 C 0.57358 0.36311 0.96275 0.0
C443 C 0.5816 0.35476 -0.00645 0.0
C444 C 0.57233 0.36047 0.02408 0.0
C445 C 0.5542 0.37394 0.02378 0.0
H446 H 0.18118 0.41308 0.25057 0.0
H447 H 0.08567 0.46098 0.14542 0.0
H448 H 0.16649 0.38673 0.15105 0.0
H449 H 0.09822 0.48114 0.24837 0.0
H450 H 0.11262 0.42994 0.14889 0.0
H451 H 0.14901 0.43504 0.25183 0.0
C452 C 0.17114 0.41189 0.22897 0.0
C453 C 0.17665 0.39828 0.2005 0.0
C454 C 0.10925 0.44085 0.17091 0.0
C455 C 0.13963 0.4234 0.20175 0.0
C456 C 0.09372 0.45841 0.16904 0.0
C457 C 0.08983 0.47385 0.19655 0.0
C458 C 0.121 0.43882 0.20045 0.0
C459 C 0.10091 0.46988 0.2264 0.0
C460 C 0.15269 0.42431 0.22977 0.0
C461 C 0.16285 0.39699 0.17352 0.0
N462 N 0.11613 0.45303 0.22741 0.0
N463 N 0.14508 0.40963 0.17464 0.0
H464 H 0.16422 0.64243 0.73624 0.0
H465 H 0.09408 0.5503 0.8424 0.0
H466 H 0.17344 0.62526 0.8417 0.0
H467 H 0.08373 0.56813 0.73756 0.0
H468 H 0.12006 0.58257 0.84467 0.0
H469 H 0.13229 0.61959 0.73783 0.0
C470 C 0.15951 0.63394 0.75978 0.0
C471 C 0.1717 0.63558 0.7888 0.0
C472 C 0.11189 0.57978 0.82129 0.0
C473 C 0.13498 0.60951 0.79086 0.0
C474 C 0.09698 0.56145 0.82006 0.0
C475 C 0.08683 0.55646 0.78971 0.0
C476 C 0.1169 0.59306 0.79183 0.0
C477 C 0.09113 0.57145 0.76151 0.0
C478 C 0.14119 0.62103 0.76072 0.0
C479 C 0.16456 0.62462 0.81873 0.0
N480 N 0.10607 0.58881 0.76309 0.0
N481 N 0.14681 0.61188 0.81889 0.0
H482 H 0.89278 0.65087 0.15705 0.0
H483 H 0.96252 0.55104 0.25223 0.0
H484 H 0.879 0.61736 0.25344 0.0
H485 H 0.97296 0.57584 0.15016 0.0
H486 H 0.9359 0.58208 0.25733 0.0
H487 H 0.92558 0.62982 0.158 0.0
C488 C 0.89676 0.63934 0.17861 0.0
C489 C 0.88301 0.63562 0.20502 0.0
C490 C 0.94422 0.58107 0.23397 0.0
C491 C 0.92049 0.61149 0.20626 0.0
C492 C 0.95951 0.56347 0.23115 0.0
C493 C 0.96983 0.56074 0.20064 0.0
C494 C 0.93905 0.59599 0.20599 0.0
C495 C 0.9654 0.57738 0.17416 0.0
C496 C 0.91545 0.62727 0.17908 0.0
C497 C 0.88894 0.62038 0.23223 0.0
N498 N 0.95011 0.59404 0.17724 0.0
N499 N 0.90715 0.60881 0.23205 0.0
H500 H 0.90164 0.3633 0.72448 0.0
H501 H 0.96003 0.46432 0.83529 0.0
H502 H 0.88299 0.38593 0.8236 0.0
H503 H 0.97523 0.44802 0.73232 0.0
H504 H 0.93519 0.4307 0.83452 0.0
H505 H 0.9314 0.38994 0.72952 0.0
C506 C 0.90375 0.37388 0.7473 0.0
C507 C 0.88958 0.37251 0.77351 0.0
C508 C 0.94413 0.43421 0.81222 0.0
C509 C 0.92392 0.40283 0.77963 0.0
C510 C 0.95838 0.45334 0.8127 0.0
C511 C 0.96959 0.45913 0.78372 0.0
C512 C 0.94095 0.42077 0.78249 0.0
C513 C 0.96698 0.44415 0.75526 0.0
C514 C 0.92086 0.38896 0.75025 0.0
C515 C 0.89348 0.38622 0.8028 0.0
N516 N 0.95274 0.42587 0.7552 0.0
N517 N 0.91018 0.40089 0.80496 0.0
H518 H 0.28312 0.17099 0.29042 0.0
H519 H 0.23584 0.09169 0.44217 0.0
H520 H 0.22456 0.18446 0.33376 0.0
H521 H 0.29708 0.08309 0.40796 0.0
H522 H 0.22946 0.12059 0.3955 0.0
H523 H 0.28668 0.13434 0.32688 0.0
C524 C 0.27097 0.16622 0.30746 0.0
C525 C 0.25358 0.18106 0.30916 0.0
C526 C 0.24423 0.11216 0.39789 0.0
C527 C 0.25749 0.1389 0.3507 0.0
C528 C 0.24786 0.09562 0.42449 0.0
C529 C 0.26708 0.08521 0.42917 0.0
C530 C 0.25998 0.11849 0.37583 0.0
C531 C 0.28203 0.09067 0.40526 0.0
C532 C 0.27297 0.14519 0.32812 0.0
C533 C 0.23817 0.17358 0.33125 0.0
N534 N 0.27825 0.10721 0.37987 0.0
N535 N 0.24056 0.15318 0.35128 0.0
H536 H 0.37371 0.6562 0.83484 0.0
H537 H 0.47502 0.71143 0.91417 0.0
H538 H 0.39664 0.72968 0.81317 0.0
H539 H 0.45322 0.63733 0.93494 0.0
H540 H 0.4495 0.71579 0.86988 0.0
H541 H 0.40495 0.64681 0.8656 0.0
C542 C 0.38533 0.67032 0.83638 0.0
C543 C 0.38241 0.69385 0.82157 0.0
C544 C 0.45049 0.6984 0.88371 0.0
C545 C 0.41833 0.68316 0.85661 0.0
C546 C 0.46526 0.69579 0.90879 0.0
C547 C 0.46614 0.67408 0.92863 0.0
C548 C 0.43638 0.67925 0.87854 0.0
C549 C 0.45286 0.65457 0.92066 0.0
C550 C 0.40324 0.66489 0.85377 0.0
C551 C 0.39821 0.71124 0.8239 0.0
N552 N 0.43834 0.65775 0.89664 0.0
N553 N 0.41535 0.70563 0.84135 0.0
H554 H 0.83274 0.85523 0.31409 0.0
H555 H 0.76783 0.93227 0.4433 0.0
H556 H 0.76812 0.84682 0.32308 0.0
H557 H 0.82907 0.95126 0.41704 0.0
H558 H 0.76678 0.90302 0.3965 0.0
H559 H 0.83109 0.89232 0.34854 0.0
C560 C 0.81813 0.86135 0.32278 0.0
C561 C 0.80056 0.8476 0.31579 0.0
C562 C 0.78033 0.9139 0.40057 0.0
C563 C 0.79867 0.88998 0.35611 0.0
C564 C 0.78092 0.93059 0.42725 0.0
C565 C 0.7986 0.94408 0.43414 0.0
C566 C 0.79766 0.91037 0.38095 0.0
C567 C 0.81511 0.94132 0.41251 0.0
C568 C 0.81723 0.88253 0.34267 0.0
C569 C 0.78214 0.8564 0.3284 0.0
N570 N 0.81435 0.92449 0.38722 0.0
N571 N 0.78172 0.87683 0.34823 0.0
H572 H 0.67356 0.39293 0.83388 0.0
H573 H 0.58882 0.32025 0.93744 0.0
H574 H 0.67302 0.31358 0.8502 0.0
H575 H 0.58769 0.39934 0.92028 0.0
H576 H 0.6166 0.31682 0.89752 0.0
H577 H 0.63988 0.39527 0.85867 0.0
C578 C 0.66635 0.37598 0.84253 0.0
C579 C 0.67629 0.35304 0.84018 0.0
C580 C 0.61006 0.33491 0.90188 0.0
C581 C 0.63759 0.35557 0.86835 0.0
C582 C 0.59409 0.33681 0.92446 0.0
C583 C 0.58602 0.36011 0.93215 0.0
C584 C 0.61827 0.35652 0.88724 0.0
C585 C 0.59344 0.38102 0.91485 0.0
C586 C 0.64704 0.37731 0.85646 0.0
C587 C 0.66598 0.33166 0.85122 0.0
N588 N 0.6094 0.37881 0.89363 0.0
N589 N 0.64733 0.33349 0.86507 0.0
H590 H 0.28311 0.8595 0.68795 0.0
H591 H 0.23977 0.9363 0.53005 0.0
H592 H 0.22573 0.84502 0.63971 0.0
H593 H 0.29856 0.94948 0.57369 0.0
H594 H 0.23243 0.90698 0.57571 0.0
H595 H 0.28739 0.89599 0.65139 0.0
C596 C 0.27138 0.86402 0.66979 0.0
C597 C 0.25409 0.84899 0.6668 0.0
C598 C 0.24686 0.91648 0.57563 0.0
C599 C 0.25882 0.8909 0.62509 0.0
C600 C 0.25102 0.93325 0.54959 0.0
C601 C 0.26987 0.94513 0.54794 0.0
C602 C 0.26171 0.91132 0.60012 0.0
C603 C 0.28383 0.94074 0.57408 0.0
C604 C 0.27378 0.88495 0.64908 0.0
C605 C 0.23922 0.85609 0.64324 0.0
N606 N 0.27958 0.92392 0.59887 0.0
N607 N 0.242 0.87637 0.62318 0.0
H608 H 0.68036 0.6538 0.14921 0.0
H609 H 0.57689 0.70986 0.07841 0.0
H610 H 0.65671 0.72529 0.17699 0.0
H611 H 0.59962 0.63783 0.05127 0.0
H612 H 0.60315 0.71277 0.12166 0.0
H613 H 0.64882 0.64513 0.11908 0.0
C614 C 0.66852 0.66763 0.14914 0.0
C615 C 0.67132 0.6904 0.1655 0.0
C616 C 0.60221 0.69612 0.10665 0.0
C617 C 0.63505 0.68053 0.13117 0.0
C618 C 0.58703 0.69433 0.08216 0.0
C619 C 0.58616 0.67368 0.06088 0.0
C620 C 0.61673 0.67722 0.10977 0.0
C621 C 0.59994 0.65427 0.06674 0.0
C622 C 0.65044 0.6626 0.1321 0.0
C623 C 0.65524 0.7074 0.16502 0.0
N624 N 0.61482 0.65668 0.09024 0.0
N625 N 0.63793 0.70222 0.14789 0.0
H626 H 0.80551 0.17873 0.68167 0.0
H627 H 0.75821 0.08906 0.54532 0.0
H628 H 0.74118 0.16931 0.66844 0.0
H629 H 0.81995 0.083 0.5794 0.0
H630 H 0.75132 0.1172 0.5919 0.0
H631 H 0.81105 0.14265 0.64618 0.0
C632 C 0.79251 0.16892 0.67176 0.0
C633 C 0.77282 0.17736 0.67784 0.0
C634 C 0.7663 0.1094 0.58959 0.0
C635 C 0.77914 0.13622 0.63655 0.0
C636 C 0.7702 0.09334 0.56305 0.0
C637 C 0.78967 0.08379 0.55855 0.0
C638 C 0.78207 0.11634 0.6114 0.0
C639 C 0.8047 0.08987 0.58215 0.0
C640 C 0.79571 0.14833 0.65135 0.0
C641 C 0.75664 0.16395 0.66382 0.0
N642 N 0.80068 0.10609 0.60728 0.0
N643 N 0.76016 0.14426 0.64356 0.0
H644 H 0.396 0.29243 0.15962 0.0
H645 H 0.46459 0.39469 0.06712 0.0
H646 H 0.38067 0.37023 0.155 0.0
H647 H 0.46933 0.31595 0.05098 0.0
H648 H 0.43864 0.38666 0.10994 0.0
H649 H 0.42736 0.30156 0.13005 0.0
C650 C 0.39935 0.31152 0.15283 0.0
C651 C 0.38559 0.33058 0.15976 0.0
C652 C 0.44566 0.37113 0.0975 0.0
C653 C 0.42153 0.34113 0.12546 0.0
C654 C 0.46061 0.37569 0.07343 0.0
C655 C 0.46908 0.35591 0.05571 0.0
C656 C 0.43929 0.34663 0.10392 0.0
C657 C 0.46316 0.33166 0.06423 0.0
C658 C 0.41723 0.31668 0.13575 0.0
C659 C 0.39069 0.35491 0.14981 0.0
N660 N 0.44854 0.3277 0.08755 0.0
N661 N 0.40822 0.35948 0.13305 0.0
H662 H 0.89272 0.64319 0.75075 0.0
H663 H 0.96039 0.53985 0.84303 0.0
H664 H 0.87872 0.60981 0.84724 0.0
H665 H 0.97179 0.56669 0.74218 0.0
H666 H 0.934 0.57112 0.84885 0.0
H667 H 0.92457 0.6203 0.75045 0.0
C668 C 0.89632 0.63112 0.77192 0.0
C669 C 0.88281 0.62831 0.79892 0.0
C670 C 0.94246 0.57048 0.8256 0.0
C671 C 0.9195 0.60229 0.79892 0.0
C672 C 0.9576 0.55272 0.82236 0.0
C673 C 0.96817 0.55056 0.79199 0.0
C674 C 0.93769 0.58614 0.79817 0.0
C675 C 0.96404 0.56777 0.76606 0.0
C676 C 0.9146 0.61819 0.77182 0.0
C677 C 0.88861 0.6128 0.82598 0.0
N678 N 0.94891 0.58461 0.76955 0.0
N679 N 0.9064 0.60029 0.82515 0.0
H680 H 0.88406 0.39592 0.24637 0.0
H681 H 0.97224 0.46079 0.13975 0.0
H682 H 0.88702 0.39504 0.13776 0.0
H683 H 0.96247 0.47307 0.2456 0.0
H684 H 0.94546 0.42928 0.14041 0.0
H685 H 0.91666 0.41727 0.24795 0.0
C686 C 0.89168 0.39992 0.22285 0.0
C687 C 0.88267 0.39385 0.19186 0.0
C688 C 0.94943 0.43854 0.16363 0.0
C689 C 0.92002 0.41846 0.1935 0.0
C690 C 0.96488 0.4563 0.16335 0.0
C691 C 0.96949 0.46961 0.19264 0.0
C692 C 0.93858 0.43405 0.19344 0.0
C693 C 0.95927 0.46332 0.22243 0.0
C694 C 0.91026 0.41222 0.22377 0.0
C695 C 0.89321 0.39974 0.16219 0.0
N696 N 0.94416 0.4462 0.222 0.0
N697 N 0.91126 0.41182 0.16374 0.0
H698 H 0.16769 0.38142 0.74492 0.0
H699 H 0.09465 0.47219 0.84469 0.0
H700 H 0.17612 0.40136 0.84917 0.0
H701 H 0.08552 0.45264 0.74061 0.0
H702 H 0.12146 0.44121 0.84907 0.0
H703 H 0.13508 0.4026 0.74483 0.0
C704 C 0.16259 0.38996 0.76794 0.0
C705 C 0.17483 0.38979 0.79702 0.0
C706 C 0.11339 0.44333 0.8254 0.0
C707 C 0.13749 0.41432 0.79697 0.0
C708 C 0.098 0.46092 0.82297 0.0
C709 C 0.08794 0.46506 0.7922 0.0
C710 C 0.11897 0.42993 0.79672 0.0
C711 C 0.09284 0.44994 0.76484 0.0
C712 C 0.14397 0.40215 0.76782 0.0
C713 C 0.16744 0.40142 0.82596 0.0
N714 N 0.10824 0.43332 0.76758 0.0
N715 N 0.14937 0.41333 0.82512 0.0
H716 H 0.16275 0.64536 0.27223 0.0
H717 H 0.0828 0.57954 0.14952 0.0
H718 H 0.16011 0.65875 0.16486 0.0
H719 H 0.09348 0.55698 0.25266 0.0
H720 H 0.10681 0.61385 0.15692 0.0
H721 H 0.13363 0.61769 0.26734 0.0
C722 C 0.15594 0.64266 0.24764 0.0
C723 C 0.16398 0.65434 0.21888 0.0
C724 C 0.10367 0.60161 0.17807 0.0
C725 C 0.13059 0.62251 0.21309 0.0
C726 C 0.0898 0.58222 0.17397 0.0
C727 C 0.08622 0.56539 0.2005 0.0
C728 C 0.11394 0.6042 0.20897 0.0
C729 C 0.09593 0.56948 0.23152 0.0
C730 C 0.13935 0.62677 0.24486 0.0
C731 C 0.15462 0.64987 0.18763 0.0
N732 N 0.10944 0.58833 0.23482 0.0
N733 N 0.13846 0.63429 0.18556 0.0
H734 H 0.76717 0.83838 0.6648 0.0
H735 H 0.82886 0.94942 0.57788 0.0
H736 H 0.83148 0.84933 0.67591 0.0
H737 H 0.76851 0.92837 0.548 0.0
H738 H 0.82765 0.91847 0.62329 0.0
H739 H 0.76544 0.87622 0.63036 0.0
C740 C 0.78093 0.84872 0.66012 0.0
C741 C 0.79955 0.84039 0.67305 0.0
C742 C 0.81456 0.92086 0.60709 0.0
C743 C 0.79756 0.88402 0.6341 0.0
C744 C 0.81516 0.93871 0.58138 0.0
C745 C 0.79881 0.94135 0.55897 0.0
C746 C 0.79748 0.90555 0.61048 0.0
C747 C 0.78155 0.9267 0.56447 0.0
C748 C 0.77989 0.87042 0.64063 0.0
C749 C 0.81676 0.85501 0.66679 0.0
N750 N 0.7814 0.90927 0.58948 0.0
N751 N 0.81536 0.87598 0.64761 0.0
H752 H 0.66027 0.28872 0.14925 0.0
H753 H 0.5878 0.39289 0.06986 0.0
H754 H 0.67363 0.36717 0.15172 0.0
H755 H 0.58341 0.31491 0.04786 0.0
H756 H 0.61431 0.38361 0.1117 0.0
H757 H 0.62772 0.29805 0.12306 0.0
C758 C 0.65638 0.30794 0.1443 0.0
C759 C 0.66996 0.32715 0.15211 0.0
C760 C 0.60721 0.36847 0.09829 0.0
C761 C 0.6324 0.33799 0.12254 0.0
C762 C 0.59192 0.37373 0.07479 0.0
C763 C 0.58345 0.35459 0.05559 0.0
C764 C 0.61394 0.3439 0.10257 0.0
C765 C 0.58957 0.33013 0.06231 0.0
C766 C 0.63769 0.31325 0.12956 0.0
C767 C 0.66371 0.35174 0.14608 0.0
N768 N 0.60458 0.32551 0.08499 0.0
N769 N 0.64548 0.35644 0.13134 0.0
H770 H 0.28909 0.1836 0.6712 0.0
H771 H 0.23719 0.08916 0.54539 0.0
H772 H 0.22448 0.17347 0.66475 0.0
H773 H 0.3006 0.08669 0.57031 0.0
H774 H 0.23195 0.11831 0.59139 0.0
H775 H 0.29358 0.14674 0.63684 0.0
C776 C 0.27583 0.17347 0.66303 0.0
C777 C 0.25635 0.18191 0.67071 0.0
C778 C 0.24696 0.1111 0.58722 0.0
C779 C 0.26144 0.13982 0.63068 0.0
C780 C 0.24993 0.09445 0.56101 0.0
C781 C 0.26935 0.08563 0.55404 0.0
C782 C 0.26361 0.11933 0.60623 0.0
C783 C 0.28537 0.09298 0.57501 0.0
C784 C 0.27842 0.15243 0.64324 0.0
C785 C 0.23978 0.16808 0.65886 0.0
N786 N 0.2822 0.10972 0.59984 0.0
N787 N 0.2427 0.14791 0.63919 0.0
H788 H 0.37169 0.62955 0.13612 0.0
H789 H 0.46862 0.70448 0.0711 0.0
H790 H 0.38075 0.70827 0.14951 0.0
H791 H 0.4538 0.63004 0.04039 0.0
H792 H 0.4406 0.7031 0.11102 0.0
H793 H 0.40516 0.62692 0.11081 0.0
C794 C 0.38069 0.64629 0.13386 0.0
C795 C 0.37317 0.66923 0.14466 0.0
C796 C 0.4437 0.68688 0.09602 0.0
C797 C 0.41175 0.66623 0.11614 0.0
C798 C 0.45987 0.68755 0.07353 0.0
C799 C 0.46345 0.66739 0.05227 0.0
C800 C 0.43106 0.66589 0.09725 0.0
C801 C 0.45142 0.64605 0.05615 0.0
C802 C 0.39988 0.64472 0.11961 0.0
C803 C 0.38585 0.69013 0.14182 0.0
N804 N 0.43562 0.64597 0.07785 0.0
N805 N 0.4044 0.68815 0.12761 0.0
H806 H 0.8289 0.17073 0.30209 0.0
H807 H 0.76475 0.09838 0.44226 0.0
H808 H 0.77054 0.19465 0.33689 0.0
H809 H 0.82645 0.08091 0.41761 0.0
H810 H 0.7642 0.12897 0.39631 0.0
H811 H 0.82591 0.13342 0.33722 0.0
C812 C 0.81542 0.16812 0.31704 0.0
C813 C 0.80007 0.18607 0.31685 0.0
C814 C 0.77777 0.1182 0.40066 0.0
C815 C 0.79646 0.14319 0.35692 0.0
C816 C 0.7781 0.10073 0.42689 0.0
C817 C 0.79576 0.08725 0.43411 0.0
C818 C 0.79524 0.12228 0.38149 0.0
C819 C 0.81247 0.09076 0.41296 0.0
C820 C 0.81368 0.14673 0.33695 0.0
C821 C 0.78273 0.18133 0.33612 0.0
N822 N 0.81187 0.10814 0.3879 0.0
N823 N 0.78149 0.16048 0.3556 0.0
H824 H 0.38007 0.36846 0.82812 0.0
H825 H 0.47048 0.31423 0.93895 0.0
H826 H 0.39513 0.29061 0.8334 0.0
H827 H 0.46354 0.39243 0.91841 0.0
H828 H 0.44458 0.30533 0.89651 0.0
H829 H 0.41148 0.37802 0.85841 0.0
C830 C 0.39 0.3534 0.83552 0.0
C831 C 0.38489 0.32869 0.82829 0.0
C832 C 0.44896 0.32444 0.90068 0.0
C833 C 0.42088 0.33948 0.86284 0.0
C834 C 0.46385 0.32947 0.92471 0.0
C835 C 0.46917 0.35405 0.93189 0.0
C836 C 0.43898 0.34418 0.88425 0.0
C837 C 0.45996 0.37321 0.91323 0.0
C838 C 0.40801 0.35888 0.85257 0.0
C839 C 0.39849 0.30995 0.83811 0.0
N840 N 0.44505 0.3679 0.89062 0.0
N841 N 0.41571 0.31571 0.85511 0.0
H842 H 0.25271 0.83959 0.32403 0.0
H843 H 0.30852 0.95469 0.40705 0.0
H844 H 0.30938 0.86885 0.28766 0.0
H845 H 0.24758 0.93274 0.43138 0.0
H846 H 0.30789 0.92614 0.35958 0.0
H847 H 0.24932 0.87575 0.35997 0.0
C848 C 0.26431 0.85377 0.32314 0.0
C849 C 0.28147 0.85094 0.30294 0.0
C850 C 0.29455 0.92782 0.37501 0.0
C851 C 0.27785 0.89232 0.34474 0.0
C852 C 0.29484 0.94429 0.40199 0.0
C853 C 0.27817 0.94589 0.42355 0.0
C854 C 0.27753 0.9127 0.36968 0.0
C855 C 0.26094 0.93172 0.41587 0.0
C856 C 0.26241 0.87441 0.34387 0.0
C857 C 0.29611 0.86989 0.30336 0.0
N858 N 0.26116 0.91549 0.38989 0.0
N859 N 0.29407 0.88961 0.32417 0.0
H860 H 0.6824 0.65645 0.85821 0.0
H861 H 0.57631 0.70858 0.91666 0.0
H862 H 0.65534 0.72312 0.81722 0.0
H863 H 0.59974 0.63738 0.94847 0.0
H864 H 0.60264 0.71124 0.87401 0.0
H865 H 0.65048 0.64642 0.88583 0.0
C866 C 0.66969 0.66881 0.85457 0.0
C867 C 0.67173 0.6909 0.83578 0.0
C868 C 0.60183 0.6948 0.88989 0.0
C869 C 0.63512 0.67966 0.86775 0.0
C870 C 0.58661 0.69315 0.91406 0.0
C871 C 0.58595 0.67288 0.93655 0.0
C872 C 0.61662 0.67617 0.88837 0.0
C873 C 0.59992 0.65359 0.9321 0.0
C874 C 0.65145 0.66311 0.87048 0.0
C875 C 0.65468 0.70623 0.83219 0.0
N876 N 0.61488 0.65591 0.90897 0.0
N877 N 0.63722 0.70048 0.84832 0.0
loop_
_geom_bond_atom_site_label_1
_geom_bond_atom_site_label_2
_geom_bond_distance
_geom_bond_site_symmetry_2
_ccdc_geom_bond_type
C0 C1 1.264 . S
C0 C5 1.479 . S
C0 C10 1.465 . S
C1 C0 1.264 . S
C1 C3 1.339 . S
C1 H28 0.931 . S
C2 C3 1.395 . S
C2 C4 1.320 . S
C3 C1 1.339 . S
C3 C2 1.395 . S
C3 H29 0.929 . S
C4 C2 1.320 . S
C4 C5 1.405 . S
C4 H30 0.930 . S
C5 C0 1.479 . S
C5 C4 1.405 . S
C5 H31 0.931 . S
U6 O7 2.454 . S
U6 O8 2.458 . S
U6 C9 2.984 . S
U6 C10 2.847 . S
U6 C23 2.882 . S
U6 O24 2.441 . S
U6 O25 2.420 . S
U6 O26 2.455 . S
U6 O27 2.449 . S
O7 U6 2.454 . S
O7 C9 1.353 . S
O8 U6 2.458 . S
O8 C9 1.286 . S
C9 U6 2.984 . S
C9 O7 1.353 . S
C9 O8 1.286 . S
C9 C11 1.363 . S
C10 C0 1.465 . S
C10 U6 2.847 . S
C10 O24 1.249 . S
C10 O25 1.202 . S
C11 C9 1.363 . S
C11 C13 1.408 . S
C11 C16 1.342 . S
C12 C13 1.310 . S
C12 C15 1.461 . S
C12 H32 0.932 . S
C13 C11 1.408 . S
C13 C12 1.310 . S
C13 H33 0.930 . S
C14 C15 1.474 . S
C14 C16 1.285 . S
C14 H34 0.929 . S
C15 C12 1.461 . S
C15 C14 1.474 . S
C16 C11 1.342 . S
C16 C14 1.285 . S
C16 H35 0.930 . S
C17 C20 1.424 . S
C17 C22 1.245 . S
C17 C23 1.428 . S
C18 C21 1.260 . S
C18 C22 1.477 . S
C18 H36 0.932 . S
C19 C20 1.384 . S
C19 C21 1.479 . S
C19 H37 0.929 . S
C20 C17 1.424 . S
C20 C19 1.384 . S
C20 H38 0.928 . S
C21 C18 1.260 . S
C21 C19 1.479 . S
C22 C17 1.245 . S
C22 C18 1.477 . S
C22 H39 0.932 . S
C23 U6 2.882 . S
C23 C17 1.428 . S
C23 O26 1.301 . S
C23 O27 1.282 . S
O24 U6 2.441 . S
O24 C10 1.249 . S
O25 U6 2.420 . S
O25 C10 1.202 . S
O26 U6 2.455 . S
O26 C23 1.301 . S
O27 U6 2.449 . S
O27 C23 1.282 . S
H28 C1 0.931 . S
H29 C3 0.929 . S
H30 C4 0.930 . S
H31 C5 0.931 . S
H32 C12 0.932 . S
H33 C13 0.930 . S
H34 C14 0.929 . S
H35 C16 0.930 . S
H36 C18 0.932 . S
H37 C19 0.929 . S
H38 C20 0.928 . S
H39 C22 0.932 . S
C40 C41 1.264 . S
C40 C45 1.479 . S
C40 C50 1.465 . S
C41 C40 1.264 . S
C41 C43 1.339 . S
C41 H68 0.931 . S
C42 C43 1.395 . S
C42 C44 1.320 . S
C43 C41 1.339 . S
C43 C42 1.395 . S
C43 H69 0.929 . S
C44 C42 1.320 . S
C44 C45 1.405 . S
C44 H70 0.930 . S
C45 C40 1.479 . S
C45 C44 1.405 . S
C45 H71 0.931 . S
U46 O47 2.454 . S
U46 O48 2.458 . S
U46 C49 2.984 . S
U46 C50 2.847 . S
U46 C63 2.882 . S
U46 O64 2.441 . S
U46 O65 2.420 . S
U46 O66 2.455 . S
U46 O67 2.449 . S
O47 U46 2.454 . S
O47 C49 1.353 . S
O48 U46 2.458 . S
O48 C49 1.286 . S
C49 U46 2.984 . S
C49 O47 1.353 . S
C49 O48 1.286 . S
C49 C51 1.363 . S
C50 C40 1.465 . S
C50 U46 2.847 . S
C50 O64 1.249 . S
C50 O65 1.202 . S
C51 C49 1.363 . S
C51 C53 1.408 . S
C51 C56 1.342 . S
C52 C53 1.310 . S
C52 C55 1.461 . S
C52 H72 0.932 . S
C53 C51 1.408 . S
C53 C52 1.310 . S
C53 H73 0.930 . S
C54 C55 1.474 . S
C54 C56 1.285 . S
C54 H74 0.929 . S
C55 C52 1.461 . S
C55 C54 1.474 . S
C56 C51 1.342 . S
C56 C54 1.285 . S
C56 H75 0.930 . S
C57 C60 1.424 . S
C57 C62 1.245 . S
C57 C63 1.428 . S
C58 C61 1.260 . S
C58 C62 1.477 . S
C58 H76 0.932 . S
C59 C60 1.384 . S
C59 C61 1.479 . S
C59 H77 0.929 . S
C60 C57 1.424 . S
C60 C59 1.384 . S
C60 H78 0.928 . S
C61 C58 1.260 . S
C61 C59 1.479 . S
C62 C57 1.245 . S
C62 C58 1.477 . S
C62 H79 0.932 . S
C63 U46 2.882 . S
C63 C57 1.428 . S
C63 O66 1.301 . S
C63 O67 1.282 . S
O64 U46 2.441 . S
O64 C50 1.249 . S
O65 U46 2.420 . S
O65 C50 1.202 . S
O66 U46 2.455 . S
O66 C63 1.301 . S
O67 U46 2.449 . S
O67 C63 1.282 . S
H68 C41 0.931 . S
H69 C43 0.929 . S
H70 C44 0.930 . S
H71 C45 0.931 . S
H72 C52 0.932 . S
H73 C53 0.930 . S
H74 C54 0.929 . S
H75 C56 0.930 . S
H76 C58 0.932 . S
H77 C59 0.929 . S
H78 C60 0.928 . S
H79 C62 0.932 . S
C80 C81 1.264 . S
C80 C85 1.479 . S
C80 C90 1.465 . S
C81 C80 1.264 . S
C81 C83 1.339 . S
C81 H108 0.931 . S
C82 C83 1.395 . S
C82 C84 1.320 . S
C83 C81 1.339 . S
C83 C82 1.395 . S
C83 H109 0.929 . S
C84 C82 1.320 . S
C84 C85 1.405 . S
C84 H110 0.930 . S
C85 C80 1.479 . S
C85 C84 1.405 . S
C85 H111 0.931 . S
U86 O87 2.454 . S
U86 O88 2.458 . S
U86 C89 2.984 . S
U86 C90 2.847 . S
U86 C103 2.882 . S
U86 O104 2.441 . S
U86 O105 2.420 . S
U86 O106 2.455 . S
U86 O107 2.449 . S
O87 U86 2.454 . S
O87 C89 1.353 . S
O88 U86 2.458 . S
O88 C89 1.286 . S
C89 U86 2.984 . S
C89 O87 1.353 . S
C89 O88 1.286 . S
C89 C91 1.363 . S
C90 C80 1.465 . S
C90 U86 2.847 . S
C90 O104 1.249 . S
C90 O105 1.202 . S
C91 C89 1.363 . S
C91 C93 1.408 . S
C91 C96 1.342 . S
C92 C93 1.310 . S
C92 C95 1.461 . S
C92 H112 0.932 . S
C93 C91 1.408 . S
C93 C92 1.310 . S
C93 H113 0.930 . S
C94 C95 1.474 . S
C94 C96 1.285 . S
C94 H114 0.929 . S
C95 C92 1.461 . S
C95 C94 1.474 . S
C96 C91 1.342 . S
C96 C94 1.285 . S
C96 H115 0.930 . S
C97 C100 1.424 . S
C97 C102 1.245 . S
C97 C103 1.428 . S
C98 C101 1.260 . S
C98 C102 1.477 . S
C98 H116 0.932 . S
C99 C100 1.384 . S
C99 C101 1.479 . S
C99 H117 0.929 . S
C100 C97 1.424 . S
C100 C99 1.384 . S
C100 H118 0.928 . S
C101 C98 1.260 . S
C101 C99 1.479 . S
C102 C97 1.245 . S
C102 C98 1.477 . S
C102 H119 0.932 . S
C103 U86 2.882 . S
C103 C97 1.428 . S
C103 O106 1.301 . S
C103 O107 1.282 . S
O104 U86 2.441 . S
O104 C90 1.249 . S
O105 U86 2.420 . S
O105 C90 1.202 . S
O106 U86 2.455 . S
O106 C103 1.301 . S
O107 U86 2.449 . S
O107 C103 1.282 . S
H108 C81 0.931 . S
H109 C83 0.929 . S
H110 C84 0.930 . S
H111 C85 0.931 . S
H112 C92 0.932 . S
H113 C93 0.930 . S
H114 C94 0.929 . S
H115 C96 0.930 . S
H116 C98 0.932 . S
H117 C99 0.929 . S
H118 C100 0.928 . S
H119 C102 0.932 . S
C120 C121 1.264 . S
C120 C125 1.479 . S
C120 C130 1.465 . S
C121 C120 1.264 . S
C121 C123 1.339 . S
C121 H148 0.931 . S
C122 C123 1.395 . S
C122 C124 1.320 . S
C123 C121 1.339 . S
C123 C122 1.395 . S
C123 H149 0.929 . S
C124 C122 1.320 . S
C124 C125 1.405 . S
C124 H150 0.930 . S
C125 C120 1.479 . S
C125 C124 1.405 . S
C125 H151 0.931 . S
U126 O127 2.454 . S
U126 O128 2.458 . S
U126 C129 2.984 . S
U126 C130 2.847 . S
U126 C143 2.882 . S
U126 O144 2.441 . S
U126 O145 2.420 . S
U126 O146 2.455 . S
U126 O147 2.449 . S
O127 U126 2.454 . S
O127 C129 1.353 . S
O128 U126 2.458 . S
O128 C129 1.286 . S
C129 U126 2.984 . S
C129 O127 1.353 . S
C129 O128 1.286 . S
C129 C131 1.363 . S
C130 C120 1.465 . S
C130 U126 2.847 . S
C130 O144 1.249 . S
C130 O145 1.202 . S
C131 C129 1.363 . S
C131 C133 1.408 . S
C131 C136 1.342 . S
C132 C133 1.310 . S
C132 C135 1.461 . S
C132 H152 0.932 . S
C133 C131 1.408 . S
C133 C132 1.310 . S
C133 H153 0.930 . S
C134 C135 1.474 . S
C134 C136 1.285 . S
C134 H154 0.929 . S
C135 C132 1.461 . S
C135 C134 1.474 . S
C136 C131 1.342 . S
C136 C134 1.285 . S
C136 H155 0.930 . S
C137 C140 1.424 . S
C137 C142 1.245 . S
C137 C143 1.428 . S
C138 C141 1.260 . S
C138 C142 1.477 . S
C138 H156 0.932 . S
C139 C140 1.384 . S
C139 C141 1.479 . S
C139 H157 0.929 . S
C140 C137 1.424 . S
C140 C139 1.384 . S
C140 H158 0.928 . S
C141 C138 1.260 . S
C141 C139 1.479 . S
C142 C137 1.245 . S
C142 C138 1.477 . S
C142 H159 0.932 . S
C143 U126 2.882 . S
C143 C137 1.428 . S
C143 O146 1.301 . S
C143 O147 1.282 . S
O144 U126 2.441 . S
O144 C130 1.249 . S
O145 U126 2.420 . S
O145 C130 1.202 . S
O146 U126 2.455 . S
O146 C143 1.301 . S
O147 U126 2.449 . S
O147 C143 1.282 . S
H148 C121 0.931 . S
H149 C123 0.929 . S
H150 C124 0.930 . S
H151 C125 0.931 . S
H152 C132 0.932 . S
H153 C133 0.930 . S
H154 C134 0.929 . S
H155 C136 0.930 . S
H156 C138 0.932 . S
H157 C139 0.929 . S
H158 C140 0.928 . S
H159 C142 0.932 . S
C160 C161 1.264 . S
C160 C165 1.479 . S
C160 C170 1.465 . S
C161 C160 1.264 . S
C161 C163 1.339 . S
C161 H188 0.931 . S
C162 C163 1.395 . S
C162 C164 1.320 . S
C163 C161 1.339 . S
C163 C162 1.395 . S
C163 H189 0.929 . S
C164 C162 1.320 . S
C164 C165 1.405 . S
C164 H190 0.930 . S
C165 C160 1.479 . S
C165 C164 1.405 . S
C165 H191 0.931 . S
U166 O167 2.454 . S
U166 O168 2.458 . S
U166 C169 2.984 . S
U166 C170 2.847 . S
U166 C183 2.882 . S
U166 O184 2.441 . S
U166 O185 2.420 . S
U166 O186 2.455 . S
U166 O187 2.449 . S
O167 U166 2.454 . S
O167 C169 1.353 . S
O168 U166 2.458 . S
O168 C169 1.286 . S
C169 U166 2.984 . S
C169 O167 1.353 . S
C169 O168 1.286 . S
C169 C171 1.363 . S
C170 C160 1.465 . S
C170 U166 2.847 . S
C170 O184 1.249 . S
C170 O185 1.202 . S
C171 C169 1.363 . S
C171 C173 1.408 . S
C171 C176 1.342 . S
C172 C173 1.310 . S
C172 C175 1.461 . S
C172 H192 0.932 . S
C173 C171 1.408 . S
C173 C172 1.310 . S
C173 H193 0.930 . S
C174 C175 1.474 . S
C174 C176 1.285 . S
C174 H194 0.929 . S
C175 C172 1.461 . S
C175 C174 1.474 . S
C176 C171 1.342 . S
C176 C174 1.285 . S
C176 H195 0.930 . S
C177 C180 1.424 . S
C177 C182 1.245 . S
C177 C183 1.428 . S
C178 C181 1.260 . S
C178 C182 1.477 . S
C178 H196 0.932 . S
C179 C180 1.384 . S
C179 C181 1.479 . S
C179 H197 0.929 . S
C180 C177 1.424 . S
C180 C179 1.384 . S
C180 H198 0.928 . S
C181 C178 1.260 . S
C181 C179 1.479 . S
C182 C177 1.245 . S
C182 C178 1.477 . S
C182 H199 0.932 . S
C183 U166 2.882 . S
C183 C177 1.428 . S
C183 O186 1.301 . S
C183 O187 1.282 . S
O184 U166 2.441 . S
O184 C170 1.249 . S
O185 U166 2.420 . S
O185 C170 1.202 . S
O186 U166 2.455 . S
O186 C183 1.301 . S
O187 U166 2.449 . S
O187 C183 1.282 . S
H188 C161 0.931 . S
H189 C163 0.929 . S
H190 C164 0.930 . S
H191 C165 0.931 . S
H192 C172 0.932 . S
H193 C173 0.930 . S
H194 C174 0.929 . S
H195 C176 0.930 . S
H196 C178 0.932 . S
H197 C179 0.929 . S
H198 C180 0.928 . S
H199 C182 0.932 . S
C200 C201 1.264 . S
C200 C205 1.479 . S
C200 C210 1.465 . S
C201 C200 1.264 . S
C201 C203 1.339 . S
C201 H228 0.931 . S
C202 C203 1.395 . S
C202 C204 1.320 . S
C203 C201 1.339 . S
C203 C202 1.395 . S
C203 H229 0.929 . S
C204 C202 1.320 . S
C204 C205 1.405 . S
C204 H230 0.930 . S
C205 C200 1.479 . S
C205 C204 1.405 . S
C205 H231 0.931 . S
U206 O207 2.454 . S
U206 O208 2.458 . S
U206 C209 2.984 . S
U206 C210 2.847 . S
U206 C223 2.882 . S
U206 O224 2.441 . S
U206 O225 2.420 . S
U206 O226 2.455 . S
U206 O227 2.449 . S
O207 U206 2.454 . S
O207 C209 1.353 . S
O208 U206 2.458 . S
O208 C209 1.286 . S
C209 U206 2.984 . S
C209 O207 1.353 . S
C209 O208 1.286 . S
C209 C211 1.363 . S
C210 C200 1.465 . S
C210 U206 2.847 . S
C210 O224 1.249 . S
C210 O225 1.202 . S
C211 C209 1.363 . S
C211 C213 1.408 . S
C211 C216 1.342 . S
C212 C213 1.310 . S
C212 C215 1.461 . S
C212 H232 0.932 . S
C213 C211 1.408 . S
C213 C212 1.310 . S
C213 H233 0.930 . S
C214 C215 1.474 . S
C214 C216 1.285 . S
C214 H234 0.929 . S
C215 C212 1.461 . S
C215 C214 1.474 . S
C216 C211 1.342 . S
C216 C214 1.285 . S
C216 H235 0.930 . S
C217 C220 1.424 . S
C217 C222 1.245 . S
C217 C223 1.428 . S
C218 C221 1.260 . S
C218 C222 1.477 . S
C218 H236 0.932 . S
C219 C220 1.384 . S
C219 C221 1.479 . S
C219 H237 0.929 . S
C220 C217 1.424 . S
C220 C219 1.384 . S
C220 H238 0.928 . S
C221 C218 1.260 . S
C221 C219 1.479 . S
C222 C217 1.245 . S
C222 C218 1.477 . S
C222 H239 0.932 . S
C223 U206 2.882 . S
C223 C217 1.428 . S
C223 O226 1.301 . S
C223 O227 1.282 . S
O224 U206 2.441 . S
O224 C210 1.249 . S
O225 U206 2.420 . S
O225 C210 1.202 . S
O226 U206 2.455 . S
O226 C223 1.301 . S
O227 U206 2.449 . S
O227 C223 1.282 . S
H228 C201 0.931 . S
H229 C203 0.929 . S
H230 C204 0.930 . S
H231 C205 0.931 . S
H232 C212 0.932 . S
H233 C213 0.930 . S
H234 C214 0.929 . S
H235 C216 0.930 . S
H236 C218 0.932 . S
H237 C219 0.929 . S
H238 C220 0.928 . S
H239 C222 0.932 . S
C240 C241 1.264 . S
C240 C245 1.479 . S
C240 C250 1.465 . S
C241 C240 1.264 . S
C241 C243 1.339 . S
C241 H268 0.931 . S
C242 C243 1.395 . S
C242 C244 1.320 . S
C243 C241 1.339 . S
C243 C242 1.395 . S
C243 H269 0.929 . S
C244 C242 1.320 . S
C244 C245 1.405 . S
C244 H270 0.930 . S
C245 C240 1.479 . S
C245 C244 1.405 . S
C245 H271 0.931 . S
U246 O247 2.454 . S
U246 O248 2.458 . S
U246 C249 2.984 . S
U246 C250 2.847 . S
U246 C263 2.882 . S
U246 O264 2.441 . S
U246 O265 2.420 . S
U246 O266 2.455 . S
U246 O267 2.449 . S
O247 U246 2.454 . S
O247 C249 1.353 . S
O248 U246 2.458 . S
O248 C249 1.286 . S
C249 U246 2.984 . S
C249 O247 1.353 . S
C249 O248 1.286 . S
C249 C251 1.363 . S
C250 C240 1.465 . S
C250 U246 2.847 . S
C250 O264 1.249 . S
C250 O265 1.202 . S
C251 C249 1.363 . S
C251 C253 1.408 . S
C251 C256 1.342 . S
C252 C253 1.310 . S
C252 C255 1.461 . S
C252 H272 0.932 . S
C253 C251 1.408 . S
C253 C252 1.310 . S
C253 H273 0.930 . S
C254 C255 1.474 . S
C254 C256 1.285 . S
C254 H274 0.929 . S
C255 C252 1.461 . S
C255 C254 1.474 . S
C256 C251 1.342 . S
C256 C254 1.285 . S
C256 H275 0.930 . S
C257 C260 1.424 . S
C257 C262 1.245 . S
C257 C263 1.428 . S
C258 C261 1.260 . S
C258 C262 1.477 . S
C258 H276 0.932 . S
C259 C260 1.384 . S
C259 C261 1.479 . S
C259 H277 0.929 . S
C260 C257 1.424 . S
C260 C259 1.384 . S
C260 H278 0.928 . S
C261 C258 1.260 . S
C261 C259 1.479 . S
C262 C257 1.245 . S
C262 C258 1.477 . S
C262 H279 0.932 . S
C263 U246 2.882 . S
C263 C257 1.428 . S
C263 O266 1.301 . S
C263 O267 1.282 . S
O264 U246 2.441 . S
O264 C250 1.249 . S
O265 U246 2.420 . S
O265 C250 1.202 . S
O266 U246 2.455 . S
O266 C263 1.301 . S
O267 U246 2.449 . S
O267 C263 1.282 . S
H268 C241 0.931 . S
H269 C243 0.929 . S
H270 C244 0.930 . S
H271 C245 0.931 . S
H272 C252 0.932 . S
H273 C253 0.930 . S
H274 C254 0.929 . S
H275 C256 0.930 . S
H276 C258 0.932 . S
H277 C259 0.929 . S
H278 C260 0.928 . S
H279 C262 0.932 . S
C280 C281 1.264 . S
C280 C285 1.479 . S
C280 C290 1.465 . S
C281 C280 1.264 . S
C281 C283 1.339 . S
C281 H308 0.931 . S
C282 C283 1.395 . S
C282 C284 1.320 . S
C283 C281 1.339 . S
C283 C282 1.395 . S
C283 H309 0.929 . S
C284 C282 1.320 . S
C284 C285 1.405 . S
C284 H310 0.930 . S
C285 C280 1.479 . S
C285 C284 1.405 . S
C285 H311 0.931 . S
U286 O287 2.454 . S
U286 O288 2.458 . S
U286 C289 2.984 . S
U286 C290 2.847 . S
U286 C303 2.882 . S
U286 O304 2.441 . S
U286 O305 2.420 . S
U286 O306 2.455 . S
U286 O307 2.449 . S
O287 U286 2.454 . S
O287 C289 1.353 . S
O288 U286 2.458 . S
O288 C289 1.286 . S
C289 U286 2.984 . S
C289 O287 1.353 . S
C289 O288 1.286 . S
C289 C291 1.363 . S
C290 C280 1.465 . S
C290 U286 2.847 . S
C290 O304 1.249 . S
C290 O305 1.202 . S
C291 C289 1.363 . S
C291 C293 1.408 . S
C291 C296 1.342 . S
C292 C293 1.310 . S
C292 C295 1.461 . S
C292 H312 0.932 . S
C293 C291 1.408 . S
C293 C292 1.310 . S
C293 H313 0.930 . S
C294 C295 1.474 . S
C294 C296 1.285 . S
C294 H314 0.929 . S
C295 C292 1.461 . S
C295 C294 1.474 . S
C296 C291 1.342 . S
C296 C294 1.285 . S
C296 H315 0.930 . S
C297 C300 1.424 . S
C297 C302 1.245 . S
C297 C303 1.428 . S
C298 C301 1.260 . S
C298 C302 1.477 . S
C298 H316 0.932 . S
C299 C300 1.384 . S
C299 C301 1.479 . S
C299 H317 0.929 . S
C300 C297 1.424 . S
C300 C299 1.384 . S
C300 H318 0.928 . S
C301 C298 1.260 . S
C301 C299 1.479 . S
C302 C297 1.245 . S
C302 C298 1.477 . S
C302 H319 0.932 . S
C303 U286 2.882 . S
C303 C297 1.428 . S
C303 O306 1.301 . S
C303 O307 1.282 . S
O304 U286 2.441 . S
O304 C290 1.249 . S
O305 U286 2.420 . S
O305 C290 1.202 . S
O306 U286 2.455 . S
O306 C303 1.301 . S
O307 U286 2.449 . S
O307 C303 1.282 . S
H308 C281 0.931 . S
H309 C283 0.929 . S
H310 C284 0.930 . S
H311 C285 0.931 . S
H312 C292 0.932 . S
H313 C293 0.930 . S
H314 C294 0.929 . S
H315 C296 0.930 . S
H316 C298 0.932 . S
H317 C299 0.929 . S
H318 C300 0.928 . S
H319 C302 0.932 . S
H320 C328 0.930 . S
H321 C331 0.930 . S
H322 C333 0.930 . S
H323 C334 0.970 . S
H324 C334 0.970 . S
H325 C336 0.930 . S
H326 C338 0.930 . S
H327 C340 0.930 . S
C328 H320 0.930 . S
C328 C329 1.382 . S
C328 C330 1.426 . S
C329 C328 1.382 . S
C329 C333 1.389 . S
C330 C328 1.426 . S
C330 C331 1.375 . S
C330 C334 1.532 1_655 S
C331 H321 0.930 . S
C331 C330 1.375 . S
C331 C332 1.416 . S
C332 C331 1.416 . S
C332 C333 1.371 . S
C333 H322 0.930 . S
C333 C329 1.389 . S
C333 C332 1.371 . S
C334 H323 0.970 . S
C334 H324 0.970 . S
C334 C330 1.532 1_455 S
C334 C335 1.499 . S
C335 C334 1.499 . S
C335 C336 1.370 . S
C335 C340 1.415 . S
C336 H325 0.930 . S
C336 C335 1.370 . S
C336 C337 1.407 . S
C337 C336 1.407 . S
C337 C338 1.365 . S
C338 H326 0.930 . S
C338 C337 1.365 . S
C338 C339 1.393 . S
C339 C338 1.393 . S
C339 C340 1.387 . S
C340 H327 0.930 . S
C340 C335 1.415 . S
C340 C339 1.387 . S
H341 C349 0.930 . S
H342 C352 0.930 . S
H343 C354 0.930 . S
H344 C355 0.970 . S
H345 C355 0.970 . S
H346 C357 0.930 . S
H347 C359 0.930 . S
H348 C361 0.930 . S
C349 H341 0.930 . S
C349 C350 1.382 . S
C349 C351 1.426 . S
C350 C349 1.382 . S
C350 C354 1.389 . S
C351 C349 1.426 . S
C351 C352 1.375 . S
C351 C355 1.532 . S
C352 H342 0.930 . S
C352 C351 1.375 . S
C352 C353 1.416 . S
C353 C352 1.416 . S
C353 C354 1.371 . S
C354 H343 0.930 . S
C354 C350 1.389 . S
C354 C353 1.371 . S
C355 H344 0.970 . S
C355 H345 0.970 . S
C355 C351 1.532 . S
C355 C356 1.499 1_455 S
C356 C355 1.499 1_655 S
C356 C357 1.370 . S
C356 C361 1.415 . S
C357 H346 0.930 . S
C357 C356 1.370 . S
C357 C358 1.407 . S
C358 C357 1.407 . S
C358 C359 1.365 . S
C359 H347 0.930 . S
C359 C358 1.365 . S
C359 C360 1.393 . S
C360 C359 1.393 . S
C360 C361 1.387 . S
C361 H348 0.930 . S
C361 C356 1.415 . S
C361 C360 1.387 . S
H362 C370 0.930 . S
H363 C373 0.930 . S
H364 C375 0.930 . S
H365 C376 0.970 . S
H366 C376 0.970 . S
H367 C378 0.930 . S
H368 C380 0.930 . S
H369 C382 0.930 . S
C370 H362 0.930 . S
C370 C371 1.382 . S
C370 C372 1.426 . S
C371 C370 1.382 . S
C371 C375 1.389 . S
C372 C370 1.426 . S
C372 C373 1.375 . S
C372 C376 1.532 . S
C373 H363 0.930 . S
C373 C372 1.375 . S
C373 C374 1.416 . S
C374 C373 1.416 . S
C374 C375 1.371 . S
C375 H364 0.930 . S
C375 C371 1.389 . S
C375 C374 1.371 . S
C376 H365 0.970 . S
C376 H366 0.970 . S
C376 C372 1.532 . S
C376 C377 1.499 1_545 S
C377 C376 1.499 1_565 S
C377 C378 1.370 . S
C377 C382 1.415 . S
C378 H367 0.930 . S
C378 C377 1.370 . S
C378 C379 1.407 . S
C379 C378 1.407 . S
C379 C380 1.365 . S
C380 H368 0.930 . S
C380 C379 1.365 . S
C380 C381 1.393 . S
C381 C380 1.393 . S
C381 C382 1.387 . S
C382 H369 0.930 . S
C382 C377 1.415 . S
C382 C381 1.387 . S
H383 C391 0.930 . S
H384 C394 0.930 . S
H385 C396 0.930 . S
H386 C397 0.970 1_556 S
H387 C397 0.970 . S
H388 C399 0.930 . S
H389 C401 0.930 . S
H390 C403 0.930 . S
C391 H383 0.930 . S
C391 C392 1.382 . S
C391 C393 1.426 1_556 S
C392 C391 1.382 . S
C392 C396 1.389 1_556 S
C393 C391 1.426 1_554 S
C393 C394 1.375 . S
C393 C397 1.532 . S
C394 H384 0.930 . S
C394 C393 1.375 . S
C394 C395 1.416 . S
C395 C394 1.416 . S
C395 C396 1.371 . S
C396 H385 0.930 . S
C396 C392 1.389 1_554 S
C396 C395 1.371 . S
C397 H386 0.970 1_554 S
C397 H387 0.970 . S
C397 C393 1.532 . S
C397 C398 1.499 . S
C398 C397 1.499 . S
C398 C399 1.370 1_554 S
C398 C403 1.415 . S
C399 H388 0.930 . S
C399 C398 1.370 1_556 S
C399 C400 1.407 . S
C400 C399 1.407 . S
C400 C401 1.365 1_556 S
C401 H389 0.930 . S
C401 C400 1.365 1_554 S
C401 C402 1.393 . S
C402 C401 1.393 . S
C402 C403 1.387 . S
C403 H390 0.930 . S
C403 C398 1.415 . S
C403 C402 1.387 . S
H404 C412 0.930 . S
H405 C415 0.930 . S
H406 C417 0.930 . S
H407 C418 0.970 . S
H408 C418 0.970 . S
H409 C420 0.930 . S
H410 C422 0.930 . S
H411 C424 0.930 . S
C412 H404 0.930 . S
C412 C413 1.382 . S
C412 C414 1.426 . S
C413 C412 1.382 . S
C413 C417 1.389 . S
C414 C412 1.426 . S
C414 C415 1.375 . S
C414 C418 1.532 . S
C415 H405 0.930 . S
C415 C414 1.375 . S
C415 C416 1.416 . S
C416 C415 1.416 . S
C416 C417 1.371 . S
C417 H406 0.930 . S
C417 C413 1.389 . S
C417 C416 1.371 . S
C418 H407 0.970 . S
C418 H408 0.970 . S
C418 C414 1.532 . S
C418 C419 1.499 1_545 S
C419 C418 1.499 1_565 S
C419 C420 1.370 . S
C419 C424 1.415 . S
C420 H409 0.930 . S
C420 C419 1.370 . S
C420 C421 1.407 . S
C421 C420 1.407 . S
C421 C422 1.365 . S
C422 H410 0.930 . S
C422 C421 1.365 . S
C422 C423 1.393 . S
C423 C422 1.393 . S
C423 C424 1.387 . S
C424 H411 0.930 . S
C424 C419 1.415 . S
C424 C423 1.387 . S
H425 C433 0.930 . S
H426 C436 0.930 . S
H427 C438 0.930 . S
H428 C439 0.970 . S
H429 C439 0.970 1_554 S
H430 C441 0.930 . S
H431 C443 0.930 . S
H432 C445 0.930 . S
C433 H425 0.930 . S
C433 C434 1.382 . S
C433 C435 1.426 . S
C434 C433 1.382 . S
C434 C438 1.389 . S
C435 C433 1.426 . S
C435 C436 1.375 1_556 S
C435 C439 1.532 . S
C436 H426 0.930 . S
C436 C435 1.375 1_554 S
C436 C437 1.416 . S
C437 C436 1.416 . S
C437 C438 1.371 1_554 S
C438 H427 0.930 . S
C438 C434 1.389 . S
C438 C437 1.371 1_556 S
C439 H428 0.970 . S
C439 H429 0.970 1_556 S
C439 C435 1.532 . S
C439 C440 1.499 1_556 S
C440 C439 1.499 1_554 S
C440 C441 1.369 1_554 S
C440 C445 1.417 . S
C441 H430 0.930 . S
C441 C440 1.369 1_556 S
C441 C442 1.407 . S
C442 C441 1.407 . S
C442 C443 1.365 1_556 S
C443 H431 0.930 . S
C443 C442 1.365 1_554 S
C443 C444 1.393 . S
C444 C443 1.393 . S
C444 C445 1.387 . S
C445 H432 0.930 . S
C445 C440 1.417 . S
C445 C444 1.387 . S
H446 C452 0.930 . S
H447 C456 0.930 . S
H448 C461 0.929 . S
H449 C459 0.929 . S
H450 C454 0.929 . S
H451 C460 0.929 . S
C452 H446 0.930 . S
C452 C453 1.367 . S
C452 C460 1.378 . S
C453 C452 1.367 . S
C453 C461 1.433 . S
C454 H450 0.929 . S
C454 C456 1.378 . S
C454 C458 1.350 . S
C455 C458 1.463 . S
C455 C460 1.350 . S
C455 N463 1.427 . S
C456 H447 0.930 . S
C456 C454 1.378 . S
C456 C457 1.367 . S
C457 C456 1.367 . S
C457 C459 1.433 . S
C458 C454 1.350 . S
C458 C455 1.463 . S
C458 N462 1.427 . S
C459 H449 0.929 . S
C459 C457 1.433 . S
C459 N462 1.384 . S
C460 H451 0.929 . S
C460 C452 1.378 . S
C460 C455 1.350 . S
C461 H448 0.929 . S
C461 C453 1.433 . S
C461 N463 1.384 . S
N462 C458 1.427 . S
N462 C459 1.384 . S
N463 C455 1.427 . S
N463 C461 1.384 . S
H464 C470 0.930 . S
H465 C474 0.930 . S
H466 C479 0.929 . S
H467 C477 0.929 . S
H468 C472 0.929 . S
H469 C478 0.929 . S
C470 H464 0.930 . S
C470 C471 1.367 . S
C470 C478 1.378 . S
C471 C470 1.367 . S
C471 C479 1.433 . S
C472 H468 0.929 . S
C472 C474 1.378 . S
C472 C476 1.350 . S
C473 C476 1.463 . S
C473 C478 1.350 . S
C473 N481 1.427 . S
C474 H465 0.930 . S
C474 C472 1.378 . S
C474 C475 1.367 . S
C475 C474 1.367 . S
C475 C477 1.433 . S
C476 C472 1.350 . S
C476 C473 1.463 . S
C476 N480 1.427 . S
C477 H467 0.929 . S
C477 C475 1.433 . S
C477 N480 1.384 . S
C478 H469 0.929 . S
C478 C470 1.378 . S
C478 C473 1.350 . S
C479 H466 0.929 . S
C479 C471 1.433 . S
C479 N481 1.384 . S
N480 C476 1.427 . S
N480 C477 1.384 . S
N481 C473 1.427 . S
N481 C479 1.384 . S
H482 C488 0.930 . S
H483 C492 0.930 . S
H484 C497 0.929 . S
H485 C495 0.929 . S
H486 C490 0.929 . S
H487 C496 0.929 . S
C488 H482 0.930 . S
C488 C489 1.367 . S
C488 C496 1.378 . S
C489 C488 1.367 . S
C489 C497 1.433 . S
C490 H486 0.929 . S
C490 C492 1.378 . S
C490 C494 1.350 . S
C491 C494 1.463 . S
C491 C496 1.350 . S
C491 N499 1.427 . S
C492 H483 0.930 . S
C492 C490 1.378 . S
C492 C493 1.367 . S
C493 C492 1.367 . S
C493 C495 1.433 . S
C494 C490 1.350 . S
C494 C491 1.463 . S
C494 N498 1.427 . S
C495 H485 0.929 . S
C495 C493 1.433 . S
C495 N498 1.384 . S
C496 H487 0.929 . S
C496 C488 1.378 . S
C496 C491 1.350 . S
C497 H484 0.929 . S
C497 C489 1.433 . S
C497 N499 1.384 . S
N498 C494 1.427 . S
N498 C495 1.384 . S
N499 C491 1.427 . S
N499 C497 1.384 . S
H500 C506 0.930 . S
H501 C510 0.930 . S
H502 C515 0.929 . S
H503 C513 0.929 . S
H504 C508 0.929 . S
H505 C514 0.929 . S
C506 H500 0.930 . S
C506 C507 1.367 . S
C506 C514 1.378 . S
C507 C506 1.367 . S
C507 C515 1.433 . S
C508 H504 0.929 . S
C508 C510 1.378 . S
C508 C512 1.350 . S
C509 C512 1.463 . S
C509 C514 1.350 . S
C509 N517 1.427 . S
C510 H501 0.930 . S
C510 C508 1.378 . S
C510 C511 1.367 . S
C511 C510 1.367 . S
C511 C513 1.433 . S
C512 C508 1.350 . S
C512 C509 1.463 . S
C512 N516 1.427 . S
C513 H503 0.929 . S
C513 C511 1.433 . S
C513 N516 1.384 . S
C514 H505 0.929 . S
C514 C506 1.378 . S
C514 C509 1.350 . S
C515 H502 0.929 . S
C515 C507 1.433 . S
C515 N517 1.384 . S
N516 C512 1.427 . S
N516 C513 1.384 . S
N517 C509 1.427 . S
N517 C515 1.384 . S
H518 C524 0.930 . S
H519 C528 0.930 . S
H520 C533 0.929 . S
H521 C531 0.929 . S
H522 C526 0.929 . S
H523 C532 0.929 . S
C524 H518 0.930 . S
C524 C525 1.367 . S
C524 C532 1.378 . S
C525 C524 1.367 . S
C525 C533 1.433 . S
C526 H522 0.929 . S
C526 C528 1.378 . S
C526 C530 1.350 . S
C527 C530 1.463 . S
C527 C532 1.350 . S
C527 N535 1.427 . S
C528 H519 0.930 . S
C528 C526 1.378 . S
C528 C529 1.367 . S
C529 C528 1.367 . S
C529 C531 1.433 . S
C530 C526 1.350 . S
C530 C527 1.463 . S
C530 N534 1.427 . S
C531 H521 0.929 . S
C531 C529 1.433 . S
C531 N534 1.384 . S
C532 H523 0.929 . S
C532 C524 1.378 . S
C532 C527 1.350 . S
C533 H520 0.929 . S
C533 C525 1.433 . S
C533 N535 1.384 . S
N534 C530 1.427 . S
N534 C531 1.384 . S
N535 C527 1.427 . S
N535 C533 1.384 . S
H536 C542 0.930 . S
H537 C546 0.930 . S
H538 C551 0.929 . S
H539 C549 0.929 . S
H540 C544 0.929 . S
H541 C550 0.929 . S
C542 H536 0.930 . S
C542 C543 1.367 . S
C542 C550 1.378 . S
C543 C542 1.367 . S
C543 C551 1.433 . S
C544 H540 0.929 . S
C544 C546 1.378 . S
C544 C548 1.350 . S
C545 C548 1.463 . S
C545 C550 1.350 . S
C545 N553 1.427 . S
C546 H537 0.930 . S
C546 C544 1.378 . S
C546 C547 1.367 . S
C547 C546 1.367 . S
C547 C549 1.433 . S
C548 C544 1.350 . S
C548 C545 1.463 . S
C548 N552 1.427 . S
C549 H539 0.929 . S
C549 C547 1.433 . S
C549 N552 1.384 . S
C550 H541 0.929 . S
C550 C542 1.378 . S
C550 C545 1.350 . S
C551 H538 0.929 . S
C551 C543 1.433 . S
C551 N553 1.384 . S
N552 C548 1.427 . S
N552 C549 1.384 . S
N553 C545 1.427 . S
N553 C551 1.384 . S
H554 C560 0.930 . S
H555 C564 0.930 . S
H556 C569 0.929 . S
H557 C567 0.929 . S
H558 C562 0.929 . S
H559 C568 0.929 . S
C560 H554 0.930 . S
C560 C561 1.367 . S
C560 C568 1.378 . S
C561 C560 1.367 . S
C561 C569 1.433 . S
C562 H558 0.929 . S
C562 C564 1.378 . S
C562 C566 1.350 . S
C563 C566 1.463 . S
C563 C568 1.350 . S
C563 N571 1.427 . S
C564 H555 0.930 . S
C564 C562 1.378 . S
C564 C565 1.367 . S
C565 C564 1.367 . S
C565 C567 1.433 . S
C566 C562 1.350 . S
C566 C563 1.463 . S
C566 N570 1.427 . S
C567 H557 0.929 . S
C567 C565 1.433 . S
C567 N570 1.384 . S
C568 H559 0.929 . S
C568 C560 1.378 . S
C568 C563 1.350 . S
C569 H556 0.929 . S
C569 C561 1.433 . S
C569 N571 1.384 . S
N570 C566 1.427 . S
N570 C567 1.384 . S
N571 C563 1.427 . S
N571 C569 1.384 . S
H572 C578 0.930 . S
H573 C582 0.930 . S
H574 C587 0.929 . S
H575 C585 0.929 . S
H576 C580 0.929 . S
H577 C586 0.929 . S
C578 H572 0.930 . S
C578 C579 1.367 . S
C578 C586 1.378 . S
C579 C578 1.367 . S
C579 C587 1.433 . S
C580 H576 0.929 . S
C580 C582 1.378 . S
C580 C584 1.350 . S
C581 C584 1.463 . S
C581 C586 1.350 . S
C581 N589 1.427 . S
C582 H573 0.930 . S
C582 C580 1.378 . S
C582 C583 1.367 . S
C583 C582 1.367 . S
C583 C585 1.433 . S
C584 C580 1.350 . S
C584 C581 1.463 . S
C584 N588 1.427 . S
C585 H575 0.929 . S
C585 C583 1.433 . S
C585 N588 1.384 . S
C586 H577 0.929 . S
C586 C578 1.378 . S
C586 C581 1.350 . S
C587 H574 0.929 . S
C587 C579 1.433 . S
C587 N589 1.384 . S
N588 C584 1.427 . S
N588 C585 1.384 . S
N589 C581 1.427 . S
N589 C587 1.384 . S
H590 C596 0.930 . S
H591 C600 0.930 . S
H592 C605 0.929 . S
H593 C603 0.929 . S
H594 C598 0.929 . S
H595 C604 0.929 . S
C596 H590 0.930 . S
C596 C597 1.367 . S
C596 C604 1.378 . S
C597 C596 1.367 . S
C597 C605 1.433 . S
C598 H594 0.929 . S
C598 C600 1.378 . S
C598 C602 1.350 . S
C599 C602 1.463 . S
C599 C604 1.350 . S
C599 N607 1.427 . S
C600 H591 0.930 . S
C600 C598 1.378 . S
C600 C601 1.367 . S
C601 C600 1.367 . S
C601 C603 1.433 . S
C602 C598 1.350 . S
C602 C599 1.463 . S
C602 N606 1.427 . S
C603 H593 0.929 . S
C603 C601 1.433 . S
C603 N606 1.384 . S
C604 H595 0.929 . S
C604 C596 1.378 . S
C604 C599 1.350 . S
C605 H592 0.929 . S
C605 C597 1.433 . S
C605 N607 1.384 . S
N606 C602 1.427 . S
N606 C603 1.384 . S
N607 C599 1.427 . S
N607 C605 1.384 . S
H608 C614 0.930 . S
H609 C618 0.930 . S
H610 C623 0.929 . S
H611 C621 0.929 . S
H612 C616 0.929 . S
H613 C622 0.929 . S
C614 H608 0.930 . S
C614 C615 1.367 . S
C614 C622 1.378 . S
C615 C614 1.367 . S
C615 C623 1.433 . S
C616 H612 0.929 . S
C616 C618 1.378 . S
C616 C620 1.350 . S
C617 C620 1.463 . S
C617 C622 1.350 . S
C617 N625 1.427 . S
C618 H609 0.930 . S
C618 C616 1.378 . S
C618 C619 1.367 . S
C619 C618 1.367 . S
C619 C621 1.433 . S
C620 C616 1.350 . S
C620 C617 1.463 . S
C620 N624 1.427 . S
C621 H611 0.929 . S
C621 C619 1.433 . S
C621 N624 1.384 . S
C622 H613 0.929 . S
C622 C614 1.378 . S
C622 C617 1.350 . S
C623 H610 0.929 . S
C623 C615 1.433 . S
C623 N625 1.384 . S
N624 C620 1.427 . S
N624 C621 1.384 . S
N625 C617 1.427 . S
N625 C623 1.384 . S
H626 C632 0.930 . S
H627 C636 0.930 . S
H628 C641 0.929 . S
H629 C639 0.929 . S
H630 C634 0.929 . S
H631 C640 0.929 . S
C632 H626 0.930 . S
C632 C633 1.367 . S
C632 C640 1.378 . S
C633 C632 1.367 . S
C633 C641 1.433 . S
C634 H630 0.929 . S
C634 C636 1.378 . S
C634 C638 1.350 . S
C635 C638 1.463 . S
C635 C640 1.350 . S
C635 N643 1.427 . S
C636 H627 0.930 . S
C636 C634 1.378 . S
C636 C637 1.367 . S
C637 C636 1.367 . S
C637 C639 1.433 . S
C638 C634 1.350 . S
C638 C635 1.463 . S
C638 N642 1.427 . S
C639 H629 0.929 . S
C639 C637 1.433 . S
C639 N642 1.384 . S
C640 H631 0.929 . S
C640 C632 1.378 . S
C640 C635 1.350 . S
C641 H628 0.929 . S
C641 C633 1.433 . S
C641 N643 1.384 . S
N642 C638 1.427 . S
N642 C639 1.384 . S
N643 C635 1.427 . S
N643 C641 1.384 . S
H644 C650 0.930 . S
H645 C654 0.930 . S
H646 C659 0.929 . S
H647 C657 0.929 . S
H648 C652 0.929 . S
H649 C658 0.929 . S
C650 H644 0.930 . S
C650 C651 1.367 . S
C650 C658 1.378 . S
C651 C650 1.367 . S
C651 C659 1.433 . S
C652 H648 0.929 . S
C652 C654 1.378 . S
C652 C656 1.350 . S
C653 C656 1.463 . S
C653 C658 1.350 . S
C653 N661 1.427 . S
C654 H645 0.930 . S
C654 C652 1.378 . S
C654 C655 1.367 . S
C655 C654 1.367 . S
C655 C657 1.433 . S
C656 C652 1.350 . S
C656 C653 1.463 . S
C656 N660 1.427 . S
C657 H647 0.929 . S
C657 C655 1.433 . S
C657 N660 1.384 . S
C658 H649 0.929 . S
C658 C650 1.378 . S
C658 C653 1.350 . S
C659 H646 0.929 . S
C659 C651 1.433 . S
C659 N661 1.384 . S
N660 C656 1.427 . S
N660 C657 1.384 . S
N661 C653 1.427 . S
N661 C659 1.384 . S
H662 C668 0.930 . S
H663 C672 0.930 . S
H664 C677 0.929 . S
H665 C675 0.929 . S
H666 C670 0.929 . S
H667 C676 0.929 . S
C668 H662 0.930 . S
C668 C669 1.367 . S
C668 C676 1.378 . S
C669 C668 1.367 . S
C669 C677 1.433 . S
C670 H666 0.929 . S
C670 C672 1.378 . S
C670 C674 1.350 . S
C671 C674 1.463 . S
C671 C676 1.350 . S
C671 N679 1.427 . S
C672 H663 0.930 . S
C672 C670 1.378 . S
C672 C673 1.367 . S
C673 C672 1.367 . S
C673 C675 1.433 . S
C674 C670 1.350 . S
C674 C671 1.463 . S
C674 N678 1.427 . S
C675 H665 0.929 . S
C675 C673 1.433 . S
C675 N678 1.384 . S
C676 H667 0.929 . S
C676 C668 1.378 . S
C676 C671 1.350 . S
C677 H664 0.929 . S
C677 C669 1.433 . S
C677 N679 1.384 . S
N678 C674 1.427 . S
N678 C675 1.384 . S
N679 C671 1.427 . S
N679 C677 1.384 . S
H680 C686 0.930 . S
H681 C690 0.930 . S
H682 C695 0.929 . S
H683 C693 0.929 . S
H684 C688 0.929 . S
H685 C694 0.929 . S
C686 H680 0.930 . S
C686 C687 1.367 . S
C686 C694 1.378 . S
C687 C686 1.367 . S
C687 C695 1.433 . S
C688 H684 0.929 . S
C688 C690 1.378 . S
C688 C692 1.350 . S
C689 C692 1.463 . S
C689 C694 1.350 . S
C689 N697 1.427 . S
C690 H681 0.930 . S
C690 C688 1.378 . S
C690 C691 1.367 . S
C691 C690 1.367 . S
C691 C693 1.433 . S
C692 C688 1.350 . S
C692 C689 1.463 . S
C692 N696 1.427 . S
C693 H683 0.929 . S
C693 C691 1.433 . S
C693 N696 1.384 . S
C694 H685 0.929 . S
C694 C686 1.378 . S
C694 C689 1.350 . S
C695 H682 0.929 . S
C695 C687 1.433 . S
C695 N697 1.384 . S
N696 C692 1.427 . S
N696 C693 1.384 . S
N697 C689 1.427 . S
N697 C695 1.384 . S
H698 C704 0.930 . S
H699 C708 0.930 . S
H700 C713 0.929 . S
H701 C711 0.929 . S
H702 C706 0.929 . S
H703 C712 0.929 . S
C704 H698 0.930 . S
C704 C705 1.367 . S
C704 C712 1.378 . S
C705 C704 1.367 . S
C705 C713 1.433 . S
C706 H702 0.929 . S
C706 C708 1.378 . S
C706 C710 1.350 . S
C707 C710 1.463 . S
C707 C712 1.350 . S
C707 N715 1.427 . S
C708 H699 0.930 . S
C708 C706 1.378 . S
C708 C709 1.367 . S
C709 C708 1.367 . S
C709 C711 1.433 . S
C710 C706 1.350 . S
C710 C707 1.463 . S
C710 N714 1.427 . S
C711 H701 0.929 . S
C711 C709 1.433 . S
C711 N714 1.384 . S
C712 H703 0.929 . S
C712 C704 1.378 . S
C712 C707 1.350 . S
C713 H700 0.929 . S
C713 C705 1.433 . S
C713 N715 1.384 . S
N714 C710 1.427 . S
N714 C711 1.384 . S
N715 C707 1.427 . S
N715 C713 1.384 . S
H716 C722 0.930 . S
H717 C726 0.930 . S
H718 C731 0.929 . S
H719 C729 0.929 . S
H720 C724 0.929 . S
H721 C730 0.929 . S
C722 H716 0.930 . S
C722 C723 1.367 . S
C722 C730 1.378 . S
C723 C722 1.367 . S
C723 C731 1.433 . S
C724 H720 0.929 . S
C724 C726 1.378 . S
C724 C728 1.350 . S
C725 C728 1.463 . S
C725 C730 1.350 . S
C725 N733 1.427 . S
C726 H717 0.930 . S
C726 C724 1.378 . S
C726 C727 1.367 . S
C727 C726 1.367 . S
C727 C729 1.433 . S
C728 C724 1.350 . S
C728 C725 1.463 . S
C728 N732 1.427 . S
C729 H719 0.929 . S
C729 C727 1.433 . S
C729 N732 1.384 . S
C730 H721 0.929 . S
C730 C722 1.378 . S
C730 C725 1.350 . S
C731 H718 0.929 . S
C731 C723 1.433 . S
C731 N733 1.384 . S
N732 C728 1.427 . S
N732 C729 1.384 . S
N733 C725 1.427 . S
N733 C731 1.384 . S
H734 C740 0.930 . S
H735 C744 0.930 . S
H736 C749 0.929 . S
H737 C747 0.929 . S
H738 C742 0.929 . S
H739 C748 0.929 . S
C740 H734 0.930 . S
C740 C741 1.367 . S
C740 C748 1.378 . S
C741 C740 1.367 . S
C741 C749 1.433 . S
C742 H738 0.929 . S
C742 C744 1.378 . S
C742 C746 1.350 . S
C743 C746 1.463 . S
C743 C748 1.350 . S
C743 N751 1.427 . S
C744 H735 0.930 . S
C744 C742 1.378 . S
C744 C745 1.367 . S
C745 C744 1.367 . S
C745 C747 1.433 . S
C746 C742 1.350 . S
C746 C743 1.463 . S
C746 N750 1.427 . S
C747 H737 0.929 . S
C747 C745 1.433 . S
C747 N750 1.384 . S
C748 H739 0.929 . S
C748 C740 1.378 . S
C748 C743 1.350 . S
C749 H736 0.929 . S
C749 C741 1.433 . S
C749 N751 1.384 . S
N750 C746 1.427 . S
N750 C747 1.384 . S
N751 C743 1.427 . S
N751 C749 1.384 . S
H752 C758 0.930 . S
H753 C762 0.930 . S
H754 C767 0.929 . S
H755 C765 0.929 . S
H756 C760 0.929 . S
H757 C766 0.929 . S
C758 H752 0.930 . S
C758 C759 1.367 . S
C758 C766 1.378 . S
C759 C758 1.367 . S
C759 C767 1.433 . S
C760 H756 0.929 . S
C760 C762 1.378 . S
C760 C764 1.350 . S
C761 C764 1.463 . S
C761 C766 1.350 . S
C761 N769 1.427 . S
C762 H753 0.930 . S
C762 C760 1.378 . S
C762 C763 1.367 . S
C763 C762 1.367 . S
C763 C765 1.433 . S
C764 C760 1.350 . S
C764 C761 1.463 . S
C764 N768 1.427 . S
C765 H755 0.929 . S
C765 C763 1.433 . S
C765 N768 1.384 . S
C766 H757 0.929 . S
C766 C758 1.378 . S
C766 C761 1.350 . S
C767 H754 0.929 . S
C767 C759 1.433 . S
C767 N769 1.384 . S
N768 C764 1.427 . S
N768 C765 1.384 . S
N769 C761 1.427 . S
N769 C767 1.384 . S
H770 C776 0.930 . S
H771 C780 0.930 . S
H772 C785 0.929 . S
H773 C783 0.929 . S
H774 C778 0.929 . S
H775 C784 0.929 . S
C776 H770 0.930 . S
C776 C777 1.367 . S
C776 C784 1.378 . S
C777 C776 1.367 . S
C777 C785 1.433 . S
C778 H774 0.929 . S
C778 C780 1.378 . S
C778 C782 1.350 . S
C779 C782 1.463 . S
C779 C784 1.350 . S
C779 N787 1.427 . S
C780 H771 0.930 . S
C780 C778 1.378 . S
C780 C781 1.367 . S
C781 C780 1.367 . S
C781 C783 1.433 . S
C782 C778 1.350 . S
C782 C779 1.463 . S
C782 N786 1.427 . S
C783 H773 0.929 . S
C783 C781 1.433 . S
C783 N786 1.384 . S
C784 H775 0.929 . S
C784 C776 1.378 . S
C784 C779 1.350 . S
C785 H772 0.929 . S
C785 C777 1.433 . S
C785 N787 1.384 . S
N786 C782 1.427 . S
N786 C783 1.384 . S
N787 C779 1.427 . S
N787 C785 1.384 . S
H788 C794 0.930 . S
H789 C798 0.930 . S
H790 C803 0.929 . S
H791 C801 0.929 . S
H792 C796 0.929 . S
H793 C802 0.929 . S
C794 H788 0.930 . S
C794 C795 1.367 . S
C794 C802 1.378 . S
C795 C794 1.367 . S
C795 C803 1.433 . S
C796 H792 0.929 . S
C796 C798 1.378 . S
C796 C800 1.350 . S
C797 C800 1.463 . S
C797 C802 1.350 . S
C797 N805 1.427 . S
C798 H789 0.930 . S
C798 C796 1.378 . S
C798 C799 1.367 . S
C799 C798 1.367 . S
C799 C801 1.433 . S
C800 C796 1.350 . S
C800 C797 1.463 . S
C800 N804 1.427 . S
C801 H791 0.929 . S
C801 C799 1.433 . S
C801 N804 1.384 . S
C802 H793 0.929 . S
C802 C794 1.378 . S
C802 C797 1.350 . S
C803 H790 0.929 . S
C803 C795 1.433 . S
C803 N805 1.384 . S
N804 C800 1.427 . S
N804 C801 1.384 . S
N805 C797 1.427 . S
N805 C803 1.384 . S
H806 C812 0.930 . S
H807 C816 0.930 . S
H808 C821 0.929 . S
H809 C819 0.929 . S
H810 C814 0.929 . S
H811 C820 0.929 . S
C812 H806 0.930 . S
C812 C813 1.367 . S
C812 C820 1.378 . S
C813 C812 1.367 . S
C813 C821 1.433 . S
C814 H810 0.929 . S
C814 C816 1.378 . S
C814 C818 1.350 . S
C815 C818 1.463 . S
C815 C820 1.350 . S
C815 N823 1.427 . S
C816 H807 0.930 . S
C816 C814 1.378 . S
C816 C817 1.367 . S
C817 C816 1.367 . S
C817 C819 1.433 . S
C818 C814 1.350 . S
C818 C815 1.463 . S
C818 N822 1.427 . S
C819 H809 0.929 . S
C819 C817 1.433 . S
C819 N822 1.384 . S
C820 H811 0.929 . S
C820 C812 1.378 . S
C820 C815 1.350 . S
C821 H808 0.929 . S
C821 C813 1.433 . S
C821 N823 1.384 . S
N822 C818 1.427 . S
N822 C819 1.384 . S
N823 C815 1.427 . S
N823 C821 1.384 . S
H824 C830 0.930 . S
H825 C834 0.930 . S
H826 C839 0.929 . S
H827 C837 0.929 . S
H828 C832 0.929 . S
H829 C838 0.929 . S
C830 H824 0.930 . S
C830 C831 1.367 . S
C830 C838 1.378 . S
C831 C830 1.367 . S
C831 C839 1.433 . S
C832 H828 0.929 . S
C832 C834 1.378 . S
C832 C836 1.350 . S
C833 C836 1.463 . S
C833 C838 1.350 . S
C833 N841 1.427 . S
C834 H825 0.930 . S
C834 C832 1.378 . S
C834 C835 1.367 . S
C835 C834 1.367 . S
C835 C837 1.433 . S
C836 C832 1.350 . S
C836 C833 1.463 . S
C836 N840 1.427 . S
C837 H827 0.929 . S
C837 C835 1.433 . S
C837 N840 1.384 . S
C838 H829 0.929 . S
C838 C830 1.378 . S
C838 C833 1.350 . S
C839 H826 0.929 . S
C839 C831 1.433 . S
C839 N841 1.384 . S
N840 C836 1.427 . S
N840 C837 1.384 . S
N841 C833 1.427 . S
N841 C839 1.384 . S
H842 C848 0.930 . S
H843 C852 0.930 . S
H844 C857 0.929 . S
H845 C855 0.929 . S
H846 C850 0.929 . S
H847 C856 0.929 . S
C848 H842 0.930 . S
C848 C849 1.367 . S
C848 C856 1.378 . S
C849 C848 1.367 . S
C849 C857 1.433 . S
C850 H846 0.929 . S
C850 C852 1.378 . S
C850 C854 1.350 . S
C851 C854 1.463 . S
C851 C856 1.350 . S
C851 N859 1.427 . S
C852 H843 0.930 . S
C852 C850 1.378 . S
C852 C853 1.367 . S
C853 C852 1.367 . S
C853 C855 1.433 . S
C854 C850 1.350 . S
C854 C851 1.463 . S
C854 N858 1.427 . S
C855 H845 0.929 . S
C855 C853 1.433 . S
C855 N858 1.384 . S
C856 H847 0.929 . S
C856 C848 1.378 . S
C856 C851 1.350 . S
C857 H844 0.929 . S
C857 C849 1.433 . S
C857 N859 1.384 . S
N858 C854 1.427 . S
N858 C855 1.384 . S
N859 C851 1.427 . S
N859 C857 1.384 . S
H860 C866 0.930 . S
H861 C870 0.930 . S
H862 C875 0.929 . S
H863 C873 0.929 . S
H864 C868 0.929 . S
H865 C874 0.929 . S
C866 H860 0.930 . S
C866 C867 1.367 . S
C866 C874 1.378 . S
C867 C866 1.367 . S
C867 C875 1.433 . S
C868 H864 0.929 . S
C868 C870 1.378 . S
C868 C872 1.350 . S
C869 C872 1.463 . S
C869 C874 1.350 . S
C869 N877 1.427 . S
C870 H861 0.930 . S
C870 C868 1.378 . S
C870 C871 1.367 . S
C871 C870 1.367 . S
C871 C873 1.433 . S
C872 C868 1.350 . S
C872 C869 1.463 . S
C872 N876 1.427 . S
C873 H863 0.929 . S
C873 C871 1.433 . S
C873 N876 1.384 . S
C874 H865 0.929 . S
C874 C866 1.378 . S
C874 C869 1.350 . S
C875 H862 0.929 . S
C875 C867 1.433 . S
C875 N877 1.384 . S
N876 C872 1.427 . S
N876 C873 1.384 . S
N877 C869 1.427 . S
N877 C875 1.384 . S
C457 C337 1.578 . S
C453 C15 1.659 . S
C475 C350 1.466 . S
C471 C55 1.608 . S
C493 C332 1.614 . S
C489 C101 1.654 . S
C511 C360 1.511 . S
C507 C141 1.635 . S
C529 C371 1.452 . S
C525 C2 1.525 . S
C547 C392 1.499 . S
C543 C61 1.601 . S
C561 C95 1.578 . S
C565 C421 1.483 . S
C583 C442 1.553 . S
C579 C135 1.627 . S
C601 C381 1.446 . S
C597 C42 1.514 . S
C615 C82 1.636 . S
C619 C402 1.551 . S
C637 C416 1.467 . S
C633 C122 1.567 . S
C655 C437 1.582 . S
C651 C21 1.627 . S
C669 C162 1.656 . S
C673 C358 1.491 . S
C691 C329 1.634 . S
C687 C221 1.726 . S
C705 C255 1.652 . S
C709 C353 1.457 . S
C723 C282 1.657 . S
C727 C339 1.619 . S
C745 C423 1.497 . S
C741 C181 1.589 . S
C763 C444 1.620 . S
C759 C202 1.672 . S
C781 C374 1.432 . S
C777 C242 1.556 . S
C795 C301 1.662 . S
C799 C395 1.512 . S
C817 C413 1.499 . S
C813 C215 1.591 . S
C835 C434 1.603 . S
C831 C261 1.660 . S
C853 C379 1.433 . S
C849 C295 1.548 . S
C867 C175 1.641 . S
C871 C400 1.503 . S
