# Generated by pormake.
# Topology pyr, (3,6)-cn, num edge types: 1
# Building blocks:
#     Node 0, Type 0, BuildingBlock: BETDIP_clean_linker_0, # of connection points: 3
#     Node 1, Type 0, BuildingBlock: BETDIP_clean_linker_0, # of connection points: 3
#     Node 2, Type 0, BuildingBlock: BETDIP_clean_linker_0, # of connection points: 3
#     Node 3, Type 0, BuildingBlock: BETDIP_clean_linker_0, # of connection points: 3
#     Node 4, Type 0, BuildingBlock: BETDIP_clean_linker_0, # of connection points: 3
#     Node 5, Type 0, BuildingBlock: BETDIP_clean_linker_0, # of connection points: 3
#     Node 6, Type 0, BuildingBlock: BETDIP_clean_linker_0, # of connection points: 3
#     Node 7, Type 0, BuildingBlock: BETDIP_clean_linker_0, # of connection points: 3
#     Node 8, Type 1, BuildingBlock: INOVEN_clean_sbu_0, # of connection points: 6
#     Node 9, Type 1, BuildingBlock: INOVEN_clean_sbu_0, # of connection points: 6
#     Node 10, Type 1, BuildingBlock: INOVEN_clean_sbu_0, # of connection points: 6
#     Node 11, Type 1, BuildingBlock: INOVEN_clean_sbu_0, # of connection points: 6
#     Edge 12, Type (0, 1), BuildingBlock: OJICUG_clean_linker_0, # of connection points: 2
#     Edge 13, Type (0, 1), BuildingBlock: OJICUG_clean_linker_0, # of connection points: 2
#     Edge 14, Type (0, 1), BuildingBlock: OJICUG_clean_linker_0, # of connection points: 2
#     Edge 15, Type (0, 1), BuildingBlock: OJICUG_clean_linker_0, # of connection points: 2
#     Edge 16, Type (0, 1), BuildingBlock: OJICUG_clean_linker_0, # of connection points: 2
#     Edge 17, Type (0, 1), BuildingBlock: OJICUG_clean_linker_0, # of connection points: 2
#     Edge 18, Type (0, 1), BuildingBlock: OJICUG_clean_linker_0, # of connection points: 2
#     Edge 19, Type (0, 1), BuildingBlock: OJICUG_clean_linker_0, # of connection points: 2
#     Edge 20, Type (0, 1), BuildingBlock: OJICUG_clean_linker_0, # of connection points: 2
#     Edge 21, Type (0, 1), BuildingBlock: OJICUG_clean_linker_0, # of connection points: 2
#     Edge 22, Type (0, 1), BuildingBlock: OJICUG_clean_linker_0, # of connection points: 2
#     Edge 23, Type (0, 1), BuildingBlock: OJICUG_clean_linker_0, # of connection points: 2
#     Edge 24, Type (0, 1), BuildingBlock: OJICUG_clean_linker_0, # of connection points: 2
#     Edge 25, Type (0, 1), BuildingBlock: OJICUG_clean_linker_0, # of connection points: 2
#     Edge 26, Type (0, 1), BuildingBlock: OJICUG_clean_linker_0, # of connection points: 2
#     Edge 27, Type (0, 1), BuildingBlock: OJICUG_clean_linker_0, # of connection points: 2
#     Edge 28, Type (0, 1), BuildingBlock: OJICUG_clean_linker_0, # of connection points: 2
#     Edge 29, Type (0, 1), BuildingBlock: OJICUG_clean_linker_0, # of connection points: 2
#     Edge 30, Type (0, 1), BuildingBlock: OJICUG_clean_linker_0, # of connection points: 2
#     Edge 31, Type (0, 1), BuildingBlock: OJICUG_clean_linker_0, # of connection points: 2
#     Edge 32, Type (0, 1), BuildingBlock: OJICUG_clean_linker_0, # of connection points: 2
#     Edge 33, Type (0, 1), BuildingBlock: OJICUG_clean_linker_0, # of connection points: 2
#     Edge 34, Type (0, 1), BuildingBlock: OJICUG_clean_linker_0, # of connection points: 2
#     Edge 35, Type (0, 1), BuildingBlock: OJICUG_clean_linker_0, # of connection points: 2
# Relax obj value: 0.185
# Max RMSD: 0.178
# Mean RMSD: 0.139
data_MOF--net-pyr--node1-INOVEN_clean_sbu_0--node2-BETDIP_clean_linker_0--edge1-OJICUG_clean_linker_0
_symmetry_space_group_name_H-M    P1
_symmetry_Int_Tables_number       1
_symmetry_cell_setting            triclinic
loop_
_symmetry_equiv_pos_as_xyz
'x, y, z'
_cell_length_a     28.242879
_cell_length_b     28.349777
_cell_length_c     26.600131
_cell_angle_alpha  89.620972
_cell_angle_beta   86.028765
_cell_angle_gamma 108.68985
loop_
_atom_site_label
_atom_site_type_symbol
_atom_site_fract_x
_atom_site_fract_y
_atom_site_fract_z
_atom_type_partial_charge
H0 H 0.35034 0.40211 0.24395 0.0
H1 H 0.4665 0.35244 0.17195 0.0
H2 H 0.3493 0.2529 0.27093 0.0
H3 H 0.43885 0.50602 0.16972 0.0
C4 C 0.4125 0.46841 0.17239 0.0
C5 C 0.36748 0.37348 0.23706 0.0
C6 C 0.34414 0.32597 0.25895 0.0
C7 C 0.4108 0.38264 0.20414 0.0
C8 C 0.43321 0.3452 0.19751 0.0
C9 C 0.41174 0.29811 0.22181 0.0
C10 C 0.36709 0.28911 0.25251 0.0
N11 N 0.43301 0.42881 0.17702 0.0
H12 H 0.14047 0.89993 0.74506 0.0
H13 H 0.19275 0.82707 0.62176 0.0
H14 H 0.25944 0.83887 0.76305 0.0
H15 H 0.15559 0.86985 0.57284 0.0
C16 C 0.14032 0.89215 0.59812 0.0
C17 C 0.16402 0.87875 0.73053 0.0
C18 C 0.19938 0.8701 0.76051 0.0
C19 C 0.16149 0.86371 0.68047 0.0
C20 C 0.19363 0.83832 0.66057 0.0
C21 C 0.22839 0.82889 0.69086 0.0
C22 C 0.23084 0.8444 0.74065 0.0
N23 N 0.12992 0.87968 0.6503 0.0
H24 H 0.74386 0.4774 0.89792 0.0
H25 H 0.61683 0.34571 0.88676 0.0
H26 H 0.72464 0.34923 0.99471 0.0
H27 H 0.62866 0.37827 0.80141 0.0
C28 C 0.63431 0.41743 0.80793 0.0
C29 C 0.72283 0.43971 0.91083 0.0
C30 C 0.74048 0.41657 0.94934 0.0
C31 C 0.67905 0.41428 0.88716 0.0
C32 C 0.65151 0.3648 0.90337 0.0
C33 C 0.66726 0.34093 0.94285 0.0
C34 C 0.71202 0.36727 0.96484 0.0
N35 N 0.66286 0.44029 0.84878 0.0
H36 H 0.79498 0.64977 0.39691 0.0
H37 H 0.92393 0.782 0.37187 0.0
H38 H 0.81275 0.77464 0.49301 0.0
H39 H 0.94234 0.74362 0.30308 0.0
C40 C 0.91943 0.70474 0.30315 0.0
C41 C 0.81588 0.68731 0.40692 0.0
C42 C 0.79814 0.70903 0.44837 0.0
C43 C 0.861 0.7127 0.37872 0.0
C44 C 0.88875 0.76171 0.39228 0.0
C45 C 0.87152 0.784 0.43414 0.0
C46 C 0.82635 0.75726 0.46148 0.0
N47 N 0.87701 0.68634 0.33867 0.0
H48 H 0.58695 0.80627 1.0151 0.0
H49 H 0.69563 0.75834 0.92664 0.0
H50 H 0.69664 0.90912 0.91195 0.0
H51 H 0.61132 0.6515 0.99854 0.0
C52 C 0.63816 0.68885 0.99747 0.0
C53 C 0.61843 0.8144 0.98706 0.0
C54 C 0.63836 0.86234 0.96424 0.0
C55 C 0.63959 0.77692 0.97494 0.0
C56 C 0.67996 0.78707 0.93808 0.0
C57 C 0.70179 0.83523 0.91709 0.0
C58 C 0.68046 0.87236 0.92965 0.0
N59 N 0.6185 0.72935 0.99975 0.0
H60 H 0.94238 0.29412 0.39095 0.0
H61 H 0.86982 0.33962 0.5201 0.0
H62 H 0.83659 0.37269 0.37263 0.0
H63 H 0.90549 0.29446 0.56598 0.0
C64 C 0.91267 0.26844 0.53913 0.0
C65 C 0.9182 0.31427 0.40629 0.0
C66 C 0.89024 0.33279 0.37423 0.0
C67 C 0.91 0.31495 0.45874 0.0
C68 C 0.87773 0.33966 0.47973 0.0
C69 C 0.85347 0.36277 0.44819 0.0
C70 C 0.86 0.35939 0.3958 0.0
N71 N 0.92824 0.28341 0.48799 0.0
H72 H 0.30409 0.65985 0.25192 0.0
H73 H 0.42726 0.79061 0.27631 0.0
H74 H 0.3223 0.79744 0.16958 0.0
H75 H 0.41028 0.75405 0.35931 0.0
C76 C 0.40598 0.71545 0.35114 0.0
C77 C 0.32333 0.69899 0.24362 0.0
C78 C 0.30602 0.72527 0.20725 0.0
C79 C 0.36568 0.72254 0.2702 0.0
C80 C 0.39349 0.77268 0.25768 0.0
C81 C 0.3786 0.79959 0.22036 0.0
C82 C 0.33417 0.77596 0.19682 0.0
N83 N 0.38032 0.69442 0.30789 0.0
H84 H 0.1001 0.34859 0.76776 0.0
H85 H 0.23926 0.47079 0.76193 0.0
H86 H 0.21382 0.36058 0.64828 0.0
H87 H 0.20911 0.49826 0.82672 0.0
C88 C 0.17057 0.47715 0.83829 0.0
C89 C 0.13689 0.36815 0.74978 0.0
C90 C 0.15404 0.34905 0.70585 0.0
C91 C 0.16643 0.41304 0.77003 0.0
C92 C 0.21492 0.4375 0.7465 0.0
C93 C 0.23302 0.41849 0.70294 0.0
C94 C 0.20142 0.37502 0.68255 0.0
N95 N 0.14586 0.43237 0.81318 0.0
Gd96 Gd 1.01494 0.09706 0.51272 0.0
Gd97 Gd 1.00554 1.04394 0.61566 0.0
C98 C 0.05844 0.16084 0.61181 0.0
C99 C 1.01759 0.15744 0.43858 0.0
C100 C 0.05917 0.19771 0.41365 0.0
C101 C 0.10216 0.2204 0.43924 0.0
C102 C 0.05903 0.20877 0.36232 0.0
C103 C 0.14684 0.25947 0.36075 0.0
C104 C 0.10261 0.23954 0.33598 0.0
C105 C 0.14562 0.25131 0.41302 0.0
C106 C 0.09072 1.06134 0.53039 0.0
C107 C 0.96363 0.97959 0.51688 0.0
C108 C 1.00587 0.98532 0.69033 0.0
C109 C 0.96568 0.94864 0.72104 0.0
C110 C 0.91851 0.92742 0.70223 0.0
C111 C 0.97217 0.94017 0.77161 0.0
C112 C 0.88317 0.89473 0.786 0.0
C113 C 0.93116 0.91334 0.80394 0.0
C114 C 0.87755 0.90038 0.73447 0.0
C115 C 0.93018 0.08107 0.59927 0.0
O116 O 0.03996 0.16067 0.56726 0.0
O117 O 0.05816 0.11889 0.63408 0.0
O118 O 0.02084 0.11287 0.43234 0.0
O119 O 1.00453 0.16483 0.48517 0.0
O120 O 0.07604 0.06517 0.486 0.0
O121 O 0.06828 0.08145 0.56134 0.0
O122 O 0.98297 0.98079 0.56103 0.0
O123 O 0.9631 1.02113 0.49403 0.0
O124 O 1.00676 1.03134 0.69573 0.0
O125 O 1.01241 0.97447 0.6432 0.0
O126 O 0.94392 0.07442 0.64346 0.0
O127 O 0.95209 1.06086 0.56767 0.0
H128 H 0.10312 0.21188 0.47885 0.0
H129 H 0.02616 0.19142 0.34206 0.0
H130 H 0.10252 0.24562 0.29574 0.0
H131 H 0.17924 0.26566 0.43296 0.0
H132 H 0.91274 0.93411 0.66332 0.0
H133 H 1.00834 0.95653 0.78666 0.0
H134 H 0.93649 0.9091 0.84346 0.0
H135 H 0.84093 0.88691 0.71977 0.0
Gd136 Gd 0.57048 0.09019 0.11953 0.0
Gd137 Gd 0.47449 0.06331 0.07035 0.0
C138 C 0.48917 0.1403 0.16055 0.0
C139 C 0.65654 0.12349 0.15618 0.0
C140 C 0.69572 0.16285 0.17939 0.0
C141 C 0.70535 0.15435 0.22897 0.0
C142 C 0.72777 0.20482 0.1517 0.0
C143 C 0.77995 0.22719 0.22244 0.0
C144 C 0.76951 0.23713 0.17334 0.0
C145 C 0.74676 0.18617 0.25029 0.0
C146 C 0.5062 0.99766 0.14747 0.0
C147 C 0.5569 1.01724 1.02871 0.0
C148 C 0.38171 1.03326 1.04926 0.0
C149 C 0.34855 1.01317 1.00917 0.0
C150 C 0.3619 1.02968 0.95879 0.0
C151 C 0.30269 0.97597 1.02191 0.0
C152 C 0.28438 0.97023 0.934 0.0
C153 C 0.27087 0.9545 0.98461 0.0
C154 C 0.32988 1.00846 0.92145 0.0
C155 C 0.54941 0.14132 1.02331 0.0
O156 O 0.53726 0.14458 0.15778 0.0
O157 O 0.45708 0.10622 0.13539 0.0
O158 O 0.61488 0.10113 0.18378 0.0
O159 O 0.65046 0.12756 0.10805 0.0
O160 O 0.55412 1.00867 0.13968 0.0
O161 O 0.4943 1.03655 0.1416 0.0
O162 O 0.50813 1.00725 1.03784 0.0
O163 O 0.58848 1.05734 1.04696 0.0
O164 O 0.41042 0.07979 1.04437 0.0
O165 O 0.40414 1.00377 0.06741 0.0
O166 O 0.51738 0.10695 0.99948 0.0
O167 O 0.53916 0.1329 0.06992 0.0
H168 H 0.68164 0.12204 0.25095 0.0
H169 H 0.72141 0.21195 0.1131 0.0
H170 H 0.79426 0.26887 0.15139 0.0
H171 H 0.75299 0.17837 0.28877 0.0
H172 H 0.39731 1.05825 0.94823 0.0
H173 H 0.29182 0.96298 1.06073 0.0
H174 H 0.23598 0.92522 0.99521 0.0
H175 H 0.34152 1.02067 0.88256 0.0
Gd176 Gd 0.51847 0.5252 0.54511 0.0
Gd177 Gd 0.51826 0.60492 0.61526 0.0
C178 C 0.56136 0.52356 0.65698 0.0
C179 C 0.54695 0.46257 0.49144 0.0
C180 C 0.59272 0.44879 0.492 0.0
C181 C 0.5923 0.40105 0.47846 0.0
C182 C 0.637 0.48321 0.50727 0.0
C183 C 0.68084 0.42307 0.49285 0.0
C184 C 0.68082 0.47058 0.5073 0.0
C185 C 0.63607 0.38818 0.47901 0.0
C186 C 0.42751 0.51097 0.59458 0.0
C187 C 0.4764 0.60725 0.5025 0.0
C188 C 0.49316 0.66928 0.66974 0.0
C189 C 0.45572 0.69437 0.66486 0.0
C190 C 0.45888 0.73734 0.69173 0.0
C191 C 0.41655 0.67544 0.63331 0.0
C192 C 0.38276 0.74143 0.65692 0.0
C193 C 0.38033 0.69878 0.62936 0.0
C194 C 0.42262 0.76073 0.68787 0.0
C195 C 0.60889 0.61836 0.56578 0.0
O196 O 0.56237 0.51046 0.60925 0.0
O197 O 0.5414 0.55803 0.67097 0.0
O198 O 0.51596 0.44904 0.53167 0.0
O199 O 0.55365 0.5083 0.47598 0.0
O200 O 0.43415 0.49755 0.54882 0.0
O201 O 0.46935 0.52716 0.61335 0.0
O202 O 0.47772 0.6224 0.5496 0.0
O203 O 0.49386 0.57084 0.48925 0.0
O204 O 0.53072 0.68169 0.63537 0.0
O205 O 0.47504 0.62122 0.67901 0.0
O206 O 0.60263 0.62897 0.61265 0.0
O207 O 0.56703 0.60317 0.54695 0.0
H208 H 0.55831 0.37395 0.46707 0.0
H209 H 0.63783 0.52004 0.51877 0.0
H210 H 0.71473 0.49797 0.51843 0.0
H211 H 0.6353 0.35146 0.46721 0.0
H212 H 0.48895 0.75238 0.71618 0.0
H213 H 0.41356 0.64228 0.61219 0.0
H214 H 0.35031 0.68332 0.60497 0.0
H215 H 0.42502 0.7931 0.71022 0.0
Gd216 Gd 0.0258 0.52609 0.09707 0.0
Gd217 Gd 0.02594 0.62212 1.04734 0.0
C218 C 0.12184 0.62901 0.1066 0.0
C219 C 0.05729 0.45313 0.12071 0.0
C220 C 0.10846 0.45176 0.12667 0.0
C221 C 0.11643 0.41413 0.15614 0.0
C222 C 0.15003 0.48887 0.10316 0.0
C223 C 0.20693 0.4523 0.14036 0.0
C224 C 0.19868 0.48943 0.11035 0.0
C225 C 0.16537 0.41414 0.16262 0.0
C226 C 0.97927 0.5797 0.15435 0.0
C227 C 0.92889 0.51932 1.04037 0.0
C228 C 0.99638 0.69549 1.0212 0.0
C229 C 0.94615 0.69983 1.01433 0.0
C230 C 0.91976 0.68009 0.97224 0.0
C231 C 0.92296 0.72173 1.05162 0.0
C232 C 0.84695 0.70132 1.00655 0.0
C233 C 0.87396 0.72231 1.04791 0.0
C234 C 0.87085 0.68092 0.96839 0.0
C235 C 0.07672 0.57181 0.99167 0.0
O236 O 0.10292 0.57983 0.11067 0.0
O237 O 0.09775 0.65594 0.08516 0.0
O238 O 0.03958 0.47783 0.15437 0.0
O239 O 0.04838 0.46273 0.07482 0.0
O240 O 0.96406 0.53108 0.15479 0.0
O241 O 0.01897 0.59626 0.12597 0.0
O242 O 0.94695 0.56873 1.03778 0.0
O243 O 0.95437 0.49267 1.0596 0.0
O244 O 1.01368 0.6695 0.98853 0.0
O245 O 1.005 0.68698 0.06754 0.0
O246 O 0.09029 0.62018 0.99319 0.0
O247 O 0.03546 0.55278 1.01755 0.0
H248 H 0.0849 0.38503 0.1744 0.0
H249 H 0.145 0.51762 0.0792 0.0
H250 H 0.23 0.51889 0.09223 0.0
H251 H 0.17079 0.38516 0.18603 0.0
H252 H 0.93646 0.66319 0.94259 0.0
H253 H 0.94231 0.73738 0.08446 0.0
H254 H 0.85678 0.73788 0.07832 0.0
H255 H 0.85169 0.66529 0.93548 0.0
C256 C 0.28083 0.33933 0.32355 0.0
C257 C 0.29287 0.31246 0.28329 0.0
H258 H 0.22431 0.34362 0.37999 0.0
C259 C 0.25552 0.27146 0.2659 0.0
H260 H 0.30912 0.37133 0.33721 0.0
C261 C 0.20737 0.25615 0.28958 0.0
C262 C 0.1956 0.28135 0.33141 0.0
H263 H 0.26384 0.25069 0.23434 0.0
H264 H 0.18 0.2231 0.27651 0.0
C265 C 0.23253 0.32355 0.34782 0.0
C266 C 0.21628 0.8671 0.851 0.0
C267 C 0.20973 0.89427 0.80926 0.0
H268 H 0.24502 0.87018 0.9236 0.0
C269 C 0.22177 0.94621 0.8116 0.0
H270 H 0.20732 0.827 0.84986 0.0
C271 C 0.24376 0.97099 0.85349 0.0
C272 C 0.25347 0.94407 0.8938 0.0
H273 H 0.21752 0.96797 0.7796 0.0
H274 H 0.25511 1.0113 0.85347 0.0
C275 C 0.23775 0.8918 0.89309 0.0
C276 C 0.60568 0.42623 0.72201 0.0
C277 C 0.6178 0.44661 0.76937 0.0
H278 H 0.57971 0.43452 0.64957 0.0
C279 C 0.61244 0.49346 0.7792 0.0
H280 H 0.60933 0.39025 0.71315 0.0
C281 C 0.59434 0.5186 0.74289 0.0
C282 C 0.58219 0.49807 0.69541 0.0
H283 H 0.62118 0.51022 0.8153 0.0
H284 H 0.58989 0.55418 0.75204 0.0
C285 C 0.58875 0.45176 0.68542 0.0
C286 C 0.90599 0.62057 0.26272 0.0
C287 C 0.93284 0.67183 0.26464 0.0
H288 H 0.89928 0.55119 0.22643 0.0
C289 C 0.97391 0.69219 0.22932 0.0
H290 H 0.87413 0.60351 0.28932 0.0
C291 C 0.98818 0.66232 0.19341 0.0
C292 C 0.96181 0.61104 0.1916 0.0
H293 H 0.99542 0.73142 0.22967 0.0
H294 H 0.02055 0.67945 0.16744 0.0
C295 C 0.92036 0.59052 0.22663 0.0
C296 C 0.48485 0.26532 0.20642 0.0
C297 C 0.43278 0.25681 0.21168 0.0
H298 H 0.54395 0.2347 0.18717 0.0
C299 C 0.40026 0.20829 0.20545 0.0
H300 H 0.51095 0.3021 0.21156 0.0
C301 C 0.41904 0.16981 0.19257 0.0
C302 C 0.47091 0.17868 0.18493 0.0
H303 H 0.36 0.20022 0.20831 0.0
H304 H 0.3926 0.13344 0.18637 0.0
C305 C 0.50377 0.22656 0.19324 0.0
C306 C 0.12754 0.94461 0.52778 0.0
C307 C 0.13269 0.93788 0.57913 0.0
H308 H 0.11009 0.98981 0.47157 0.0
C309 C 0.13011 0.97511 0.6128 0.0
H310 H 0.13007 0.91661 0.50115 0.0
C311 C 0.11989 1.01711 0.5959 0.0
C312 C 0.11124 1.02229 0.54527 0.0
H313 H 0.13515 0.97155 0.65248 0.0
H314 H 0.11645 1.04442 0.62301 0.0
C315 C 0.11653 0.98652 0.51092 0.0
C316 C 0.81992 0.41706 0.98938 0.0
C317 C 0.78857 0.44334 0.97331 0.0
H318 H 0.88744 0.41966 1.02314 0.0
C319 C 0.8038 0.49521 0.98058 0.0
H320 H 0.8107 0.37746 0.98371 0.0
C321 C 0.84875 0.51975 1.00274 0.0
C322 C 0.8798 0.49322 1.01882 0.0
H323 H 0.78079 0.51703 0.96962 0.0
H324 H 0.85911 0.55964 1.00727 0.0
C325 C 0.86447 0.44146 1.01195 0.0
C326 C 0.74708 0.68393 0.53138 0.0
C327 C 0.75032 0.68172 0.47846 0.0
H328 H 0.70023 0.66523 0.60023 0.0
C329 C 0.70706 0.65507 0.45473 0.0
H330 H 0.7798 0.70323 0.55103 0.0
C331 C 0.66128 0.6331 0.48311 0.0
C332 C 0.65787 0.63712 0.5358 0.0
H333 H 0.70814 0.65271 0.41407 0.0
H334 H 0.62832 0.61406 0.46368 0.0
C335 C 0.70149 0.66187 0.55965 0.0
C336 C 0.32599 0.41787 0.14703 0.0
C337 C 0.35918 0.46215 0.16444 0.0
H338 H 0.25107 0.37956 0.12711 0.0
C339 C 0.34192 0.50283 0.1732 0.0
H340 H 0.33853 0.3864 0.13818 0.0
C341 C 0.29249 0.49932 0.16565 0.0
C342 C 0.25895 0.45486 0.1494 0.0
H343 H 0.3668 0.53756 0.18606 0.0
H344 H 0.28032 0.53138 0.17285 0.0
C345 C 0.27602 0.414 0.14043 0.0
C346 C 0.61144 0.25148 0.93038 0.0
C347 C 0.63683 0.28916 0.96258 0.0
H348 H 0.5645 0.17533 0.92377 0.0
C349 C 0.63335 0.27681 1.01447 0.0
H350 H 0.6134 0.25906 0.89021 0.0
C351 C 0.60601 0.22879 1.03343 0.0
C352 C 0.58061 0.1913 1.00139 0.0
H353 H 0.65114 0.30456 1.04098 0.0
H354 H 0.60422 0.22126 0.07363 0.0
C355 C 0.58371 0.20322 0.94953 0.0
C356 C 0.90925 0.87796 0.42246 0.0
C357 C 0.90033 0.83425 0.45215 0.0
H358 H 0.93537 0.95826 0.41953 0.0
C359 C 0.9136 0.83899 0.50228 0.0
H360 H 0.89879 0.87551 0.38391 0.0
C361 C 0.93442 0.88594 0.5226 0.0
C362 C 0.94206 0.92992 0.4937 0.0
H363 H 0.90689 0.80609 0.52623 0.0
H364 H 0.94357 0.8876 0.56157 0.0
C365 C 0.92964 0.92532 0.4431 0.0
C366 C 0.25374 0.75536 0.66725 0.0
C367 C 0.26597 0.80709 0.67049 0.0
H368 H 0.28167 0.69372 0.6607 0.0
C369 C 0.31612 0.83747 0.66323 0.0
H370 H 0.21517 0.73148 0.6736 0.0
C371 C 0.3541 0.81618 0.65582 0.0
C372 C 0.34241 0.76415 0.65604 0.0
H373 H 0.32604 0.87754 0.66603 0.0
H374 H 0.3927 0.84035 0.65199 0.0
C375 C 0.29178 0.73395 0.65999 0.0
C376 C 0.78941 0.88961 0.89547 0.0
C377 C 0.74893 0.84802 0.88458 0.0
H378 H 0.86367 0.93655 0.87297 0.0
C379 C 0.75394 0.8194 0.84288 0.0
H380 H 0.78664 0.91182 0.92786 0.0
C381 C 0.79824 0.8335 0.81138 0.0
C382 C 0.83832 0.87588 0.82172 0.0
H383 H 0.72318 0.78706 0.83392 0.0
H384 H 0.80096 0.81174 0.77863 0.0
C385 C 0.83369 0.90331 0.86447 0.0
C386 C 0.8789 0.2634 0.31368 0.0
C387 C 0.88107 0.31298 0.32256 0.0
H388 H 0.84608 0.19771 0.27311 0.0
C389 C 0.86207 0.33773 0.2867 0.0
H390 H 0.89334 0.24249 0.33926 0.0
C391 C 0.8329 0.31085 0.24947 0.0
C392 C 0.82396 0.25938 0.24672 0.0
H393 H 0.8652 0.37658 0.29051 0.0
H394 H 0.81343 0.32924 0.2265 0.0
C395 C 0.85099 0.2371 0.27584 0.0
C396 C 0.4274 0.63881 0.37939 0.0
C397 C 0.42166 0.68544 0.38958 0.0
H398 H 0.44959 0.57779 0.40643 0.0
C399 C 0.43278 0.70509 0.43743 0.0
H400 H 0.4194 0.62258 0.34293 0.0
C401 C 0.44925 0.67923 0.47404 0.0
C402 C 0.45618 0.63311 0.46377 0.0
H403 H 0.42882 0.74088 0.44664 0.0
H404 H 0.45753 0.69605 0.51021 0.0
C405 C 0.44487 0.6132 0.41585 0.0
C406 C 0.09709 0.47366 0.90174 0.0
C407 C 0.14527 0.49886 0.87898 0.0
H408 H 0.03768 0.47646 0.95603 0.0
C409 C 0.17074 0.54683 0.89527 0.0
H410 H 0.0765 0.43658 0.89034 0.0
C411 C 0.14853 0.56966 0.93221 0.0
C412 C 0.1003 0.54505 0.95467 0.0
H413 H 0.20794 0.56724 0.87879 0.0
H414 H 0.16922 0.60696 0.94303 0.0
C415 C 0.07496 0.49643 0.93952 0.0
C416 C 0.5647 0.89289 0.98414 0.0
C417 C 0.61684 0.90263 0.97764 0.0
H418 H 0.50467 0.92168 1.00424 0.0
C419 C 0.64866 0.95142 0.98418 0.0
H420 H 0.53914 0.8559 0.97872 0.0
C421 C 0.62898 0.98919 0.99807 0.0
C422 C 0.57694 0.97921 1.00602 0.0
H423 H 0.68901 0.96024 0.98008 0.0
H424 H 0.6548 1.0259 1.00417 0.0
C425 C 0.54495 0.93079 0.99809 0.0
C426 C 0.90287 0.17941 0.52197 0.0
C427 C 0.90994 0.21804 0.55638 0.0
H428 H 0.90196 0.10452 0.50939 0.0
C429 C 0.9157 0.2085 0.60695 0.0
H430 H 0.89708 0.18545 0.48293 0.0
C431 C 0.9187 0.16224 0.62197 0.0
C432 C 0.91548 0.12485 0.58662 0.0
H433 H 0.92044 0.23755 0.63423 0.0
H434 H 0.92639 0.15686 0.66054 0.0
C435 C 0.90513 0.13298 0.53714 0.0
C436 C 0.22111 0.65777 0.20191 0.0
C437 C 0.25893 0.70018 0.1804 0.0
H438 H 0.1497 0.60207 0.19525 0.0
C439 C 0.25056 0.71847 0.13319 0.0
H440 H 0.22418 0.6425 0.23841 0.0
C441 C 0.20601 0.69622 0.10951 0.0
C442 C 0.16916 0.65374 0.1311 0.0
H443 H 0.27846 0.74977 0.11367 0.0
H444 H 0.20091 0.71161 0.07368 0.0
C445 C 0.1776 0.63455 0.17728 0.0
C446 C 0.30763 0.49531 0.67683 0.0
C447 C 0.28484 0.44308 0.67829 0.0
H448 H 0.3712 0.55776 0.64982 0.0
C449 C 0.31155 0.41404 0.6543 0.0
H450 H 0.2885 0.5192 0.69434 0.0
C451 C 0.35788 0.43635 0.62754 0.0
C452 C 0.37979 0.48824 0.62531 0.0
H453 H 0.29666 0.37377 0.65583 0.0
H454 H 0.37675 0.41291 0.60857 0.0
C455 C 0.3549 0.51759 0.65102 0.0
C456 C 0.70841 0.65429 0.9833 0.0
C457 C 0.69196 0.69364 1.00002 0.0
H458 H 0.7695 0.62544 0.97265 0.0
C459 C 0.72652 0.73545 1.0199 0.0
H460 H 0.68236 0.62128 0.96855 0.0
C461 C 0.7769 0.73836 1.02145 0.0
C462 C 0.79361 0.69914 1.00403 0.0
H463 H 0.71476 0.76584 1.03438 0.0
H464 H 0.80276 0.77152 1.03605 0.0
C465 C 0.75852 0.65695 0.98521 0.0
C466 C 0.38994 0.8893 0.1937 0.0
C467 C 0.41083 0.85144 0.20374 0.0
H468 H 0.40333 0.96525 0.16861 0.0
C469 C 0.46306 0.86279 0.19541 0.0
H470 H 0.34992 0.88213 0.19988 0.0
C471 C 0.49338 0.9101 0.17719 0.0
C472 C 0.47263 0.94786 0.1671 0.0
H473 H 0.48054 0.83462 0.20179 0.0
H474 H 0.53336 0.91699 0.17077 0.0
C475 C 0.42051 0.93701 0.17583 0.0
C476 C 0.11005 0.25623 0.71176 0.0
C477 C 0.12405 0.30142 0.68373 0.0
H478 H 0.07929 0.17645 0.711 0.0
C479 C 0.11468 0.30007 0.63238 0.0
H480 H 0.11738 0.25603 0.75118 0.0
C481 C 0.09266 0.25468 0.60937 0.0
C482 C 0.08034 0.20923 0.63683 0.0
H483 H 0.12529 0.33428 0.60975 0.0
H484 H 0.08649 0.2552 0.56966 0.0
C485 C 0.0888 0.21064 0.6885 0.0
C486 C 0.77235 0.35111 0.49807 0.0
C487 C 0.81391 0.38244 0.46873 0.0
H488 H 0.69711 0.33952 0.52866 0.0
C489 C 0.81337 0.42932 0.45209 0.0
H490 H 0.77173 0.31448 0.51068 0.0
C491 C 0.7709 0.44363 0.46239 0.0
C492 C 0.72806 0.41094 0.48886 0.0
H493 H 0.84493 0.45383 0.42906 0.0
H494 H 0.77056 0.47904 0.44713 0.0
C495 C 0.72958 0.36514 0.5078 0.0
loop_
_geom_bond_atom_site_label_1
_geom_bond_atom_site_label_2
_geom_bond_distance
_geom_bond_site_symmetry_2
_ccdc_geom_bond_type
H0 C5 0.930 . S
H1 C8 0.930 . S
H2 C10 0.930 . S
H3 C4 1.016 . S
C4 H3 1.016 . S
C4 N11 1.286 . S
C5 H0 0.930 . S
C5 C6 1.397 . S
C5 C7 1.361 . S
C6 C5 1.397 . S
C6 C10 1.390 . S
C7 C5 1.361 . S
C7 C8 1.393 . S
C7 N11 1.413 . S
C8 H1 0.930 . S
C8 C7 1.393 . S
C8 C9 1.399 . S
C9 C8 1.399 . S
C9 C10 1.381 . S
C10 H2 0.930 . S
C10 C6 1.390 . S
C10 C9 1.381 . S
N11 C4 1.286 . S
N11 C7 1.413 . S
H12 C17 0.930 . S
H13 C20 0.930 . S
H14 C22 0.930 . S
H15 C16 1.016 . S
C16 H15 1.016 . S
C16 N23 1.286 . S
C17 H12 0.930 . S
C17 C18 1.397 . S
C17 C19 1.361 . S
C18 C17 1.397 . S
C18 C22 1.390 . S
C19 C17 1.361 . S
C19 C20 1.393 . S
C19 N23 1.413 . S
C20 H13 0.930 . S
C20 C19 1.393 . S
C20 C21 1.399 . S
C21 C20 1.399 . S
C21 C22 1.381 . S
C22 H14 0.930 . S
C22 C18 1.390 . S
C22 C21 1.381 . S
N23 C16 1.286 . S
N23 C19 1.413 . S
H24 C29 0.930 . S
H25 C32 0.930 . S
H26 C34 0.930 . S
H27 C28 1.016 . S
C28 H27 1.016 . S
C28 N35 1.286 . S
C29 H24 0.930 . S
C29 C30 1.397 . S
C29 C31 1.361 . S
C30 C29 1.397 . S
C30 C34 1.390 . S
C31 C29 1.361 . S
C31 C32 1.393 . S
C31 N35 1.413 . S
C32 H25 0.930 . S
C32 C31 1.393 . S
C32 C33 1.399 . S
C33 C32 1.399 . S
C33 C34 1.381 . S
C34 H26 0.930 . S
C34 C30 1.390 . S
C34 C33 1.381 . S
N35 C28 1.286 . S
N35 C31 1.413 . S
H36 C41 0.930 . S
H37 C44 0.930 . S
H38 C46 0.930 . S
H39 C40 1.016 . S
C40 H39 1.016 . S
C40 N47 1.286 . S
C41 H36 0.930 . S
C41 C42 1.397 . S
C41 C43 1.361 . S
C42 C41 1.397 . S
C42 C46 1.390 . S
C43 C41 1.361 . S
C43 C44 1.393 . S
C43 N47 1.413 . S
C44 H37 0.930 . S
C44 C43 1.393 . S
C44 C45 1.399 . S
C45 C44 1.399 . S
C45 C46 1.381 . S
C46 H38 0.930 . S
C46 C42 1.390 . S
C46 C45 1.381 . S
N47 C40 1.286 . S
N47 C43 1.413 . S
H48 C53 0.930 . S
H49 C56 0.930 . S
H50 C58 0.930 . S
H51 C52 1.016 . S
C52 H51 1.016 . S
C52 N59 1.286 . S
C53 H48 0.930 . S
C53 C54 1.397 . S
C53 C55 1.361 . S
C54 C53 1.397 . S
C54 C58 1.390 . S
C55 C53 1.361 . S
C55 C56 1.393 . S
C55 N59 1.413 . S
C56 H49 0.930 . S
C56 C55 1.393 . S
C56 C57 1.399 . S
C57 C56 1.399 . S
C57 C58 1.381 . S
C58 H50 0.930 . S
C58 C54 1.390 . S
C58 C57 1.381 . S
N59 C52 1.286 . S
N59 C55 1.413 . S
H60 C65 0.930 . S
H61 C68 0.930 . S
H62 C70 0.930 . S
H63 C64 1.016 . S
C64 H63 1.016 . S
C64 N71 1.286 . S
C65 H60 0.930 . S
C65 C66 1.397 . S
C65 C67 1.361 . S
C66 C65 1.397 . S
C66 C70 1.390 . S
C67 C65 1.361 . S
C67 C68 1.393 . S
C67 N71 1.413 . S
C68 H61 0.930 . S
C68 C67 1.393 . S
C68 C69 1.399 . S
C69 C68 1.399 . S
C69 C70 1.381 . S
C70 H62 0.930 . S
C70 C66 1.390 . S
C70 C69 1.381 . S
N71 C64 1.286 . S
N71 C67 1.413 . S
H72 C77 0.930 . S
H73 C80 0.930 . S
H74 C82 0.930 . S
H75 C76 1.016 . S
C76 H75 1.016 . S
C76 N83 1.286 . S
C77 H72 0.930 . S
C77 C78 1.397 . S
C77 C79 1.361 . S
C78 C77 1.397 . S
C78 C82 1.390 . S
C79 C77 1.361 . S
C79 C80 1.393 . S
C79 N83 1.413 . S
C80 H73 0.930 . S
C80 C79 1.393 . S
C80 C81 1.399 . S
C81 C80 1.399 . S
C81 C82 1.381 . S
C82 H74 0.930 . S
C82 C78 1.390 . S
C82 C81 1.381 . S
N83 C76 1.286 . S
N83 C79 1.413 . S
H84 C89 0.930 . S
H85 C92 0.930 . S
H86 C94 0.930 . S
H87 C88 1.016 . S
C88 H87 1.016 . S
C88 N95 1.286 . S
C89 H84 0.930 . S
C89 C90 1.397 . S
C89 C91 1.361 . S
C90 C89 1.397 . S
C90 C94 1.390 . S
C91 C89 1.361 . S
C91 C92 1.393 . S
C91 N95 1.413 . S
C92 H85 0.930 . S
C92 C91 1.393 . S
C92 C93 1.399 . S
C93 C92 1.399 . S
C93 C94 1.381 . S
C94 H86 0.930 . S
C94 C90 1.390 . S
C94 C93 1.381 . S
N95 C88 1.286 . S
N95 C91 1.413 . S
Gd96 C99 2.818 . S
Gd96 O116 2.377 . S
Gd96 O118 2.448 . S
Gd96 O119 2.506 . S
Gd96 O120 2.435 1_545 S
Gd96 O121 2.717 1_545 S
Gd96 O123 2.395 1_445 S
Gd96 O127 2.327 1_455 S
Gd97 C108 2.818 1_545 S
Gd97 O117 2.395 1_655 S
Gd97 O121 2.327 1_645 S
Gd97 O122 2.377 1_545 S
Gd97 O124 2.448 1_545 S
Gd97 O125 2.506 1_545 S
Gd97 O126 2.435 . S
Gd97 O127 2.717 . S
C98 O116 1.240 . S
C98 O117 1.240 . S
C99 Gd96 2.818 . S
C99 C100 1.510 . S
C99 O118 1.249 . S
C99 O119 1.252 . S
C100 C99 1.510 . S
C100 C101 1.404 . S
C100 C102 1.352 . S
C101 C100 1.404 . S
C101 C105 1.389 . S
C101 H128 0.930 . S
C102 C100 1.352 . S
C102 C104 1.374 . S
C102 H129 0.931 . S
C103 C104 1.359 . S
C103 C105 1.364 . S
C104 C102 1.374 . S
C104 C103 1.359 . S
C104 H130 0.931 . S
C105 C101 1.389 . S
C105 C103 1.364 . S
C105 H131 0.931 . S
C106 O120 1.256 . S
C106 O121 1.257 . S
C107 O122 1.240 . S
C107 O123 1.240 . S
C108 Gd97 2.818 1_565 S
C108 C109 1.510 . S
C108 O124 1.249 . S
C108 O125 1.252 . S
C109 C108 1.510 . S
C109 C110 1.404 . S
C109 C111 1.352 . S
C110 C109 1.404 . S
C110 C114 1.389 . S
C110 H132 0.930 . S
C111 C109 1.352 . S
C111 C113 1.374 . S
C111 H133 0.931 . S
C112 C113 1.359 . S
C112 C114 1.364 . S
C113 C111 1.374 . S
C113 C112 1.359 . S
C113 H134 0.931 . S
C114 C110 1.389 . S
C114 C112 1.364 . S
C114 H135 0.931 . S
C115 O126 1.256 . S
C115 O127 1.257 . S
O116 Gd96 2.377 . S
O116 C98 1.240 . S
O117 Gd97 2.395 1_455 S
O117 C98 1.240 . S
O118 Gd96 2.448 . S
O118 C99 1.249 . S
O119 Gd96 2.506 . S
O119 C99 1.252 . S
O120 Gd96 2.435 1_565 S
O120 C106 1.256 . S
O121 Gd96 2.717 1_565 S
O121 Gd97 2.327 1_465 S
O121 C106 1.257 . S
O122 Gd97 2.377 1_565 S
O122 C107 1.240 . S
O123 Gd96 2.395 1_665 S
O123 C107 1.240 . S
O124 Gd97 2.448 1_565 S
O124 C108 1.249 . S
O125 Gd97 2.506 1_565 S
O125 C108 1.252 . S
O126 Gd97 2.435 . S
O126 C115 1.256 . S
O127 Gd96 2.327 1_655 S
O127 Gd97 2.717 . S
O127 C115 1.257 . S
H128 C101 0.930 . S
H129 C102 0.931 . S
H130 C104 0.931 . S
H131 C105 0.931 . S
H132 C110 0.930 . S
H133 C111 0.931 . S
H134 C113 0.931 . S
H135 C114 0.931 . S
Gd136 C139 2.818 . S
Gd136 O156 2.377 . S
Gd136 O158 2.448 . S
Gd136 O159 2.506 . S
Gd136 O160 2.435 1_545 S
Gd136 O161 2.717 1_545 S
Gd136 O163 2.395 1_544 S
Gd136 O167 2.327 1_554 S
Gd137 C148 2.818 1_545 S
Gd137 O157 2.395 1_556 S
Gd137 O161 2.327 1_546 S
Gd137 O162 2.377 1_545 S
Gd137 O164 2.448 1_545 S
Gd137 O165 2.506 1_545 S
Gd137 O166 2.435 . S
Gd137 O167 2.717 . S
C138 O156 1.240 . S
C138 O157 1.240 . S
C139 Gd136 2.818 . S
C139 C140 1.510 . S
C139 O158 1.249 . S
C139 O159 1.252 . S
C140 C139 1.510 . S
C140 C141 1.404 . S
C140 C142 1.352 . S
C141 C140 1.404 . S
C141 C145 1.389 . S
C141 H168 0.930 . S
C142 C140 1.352 . S
C142 C144 1.374 . S
C142 H169 0.931 . S
C143 C144 1.359 . S
C143 C145 1.364 . S
C144 C142 1.374 . S
C144 C143 1.359 . S
C144 H170 0.931 . S
C145 C141 1.389 . S
C145 C143 1.364 . S
C145 H171 0.931 . S
C146 O160 1.256 . S
C146 O161 1.257 . S
C147 O162 1.240 . S
C147 O163 1.240 . S
C148 Gd137 2.818 1_565 S
C148 C149 1.510 . S
C148 O164 1.249 . S
C148 O165 1.252 . S
C149 C148 1.510 . S
C149 C150 1.404 . S
C149 C151 1.352 . S
C150 C149 1.404 . S
C150 C154 1.389 . S
C150 H172 0.930 . S
C151 C149 1.352 . S
C151 C153 1.374 . S
C151 H173 0.931 . S
C152 C153 1.359 . S
C152 C154 1.364 . S
C153 C151 1.374 . S
C153 C152 1.359 . S
C153 H174 0.931 . S
C154 C150 1.389 . S
C154 C152 1.364 . S
C154 H175 0.931 . S
C155 O166 1.256 . S
C155 O167 1.257 . S
O156 Gd136 2.377 . S
O156 C138 1.240 . S
O157 Gd137 2.395 1_554 S
O157 C138 1.240 . S
O158 Gd136 2.448 . S
O158 C139 1.249 . S
O159 Gd136 2.506 . S
O159 C139 1.252 . S
O160 Gd136 2.435 1_565 S
O160 C146 1.256 . S
O161 Gd136 2.717 1_565 S
O161 Gd137 2.327 1_564 S
O161 C146 1.257 . S
O162 Gd137 2.377 1_565 S
O162 C147 1.240 . S
O163 Gd136 2.395 1_566 S
O163 C147 1.240 . S
O164 Gd137 2.448 1_565 S
O164 C148 1.249 . S
O165 Gd137 2.506 1_565 S
O165 C148 1.252 . S
O166 Gd137 2.435 . S
O166 C155 1.256 . S
O167 Gd136 2.327 1_556 S
O167 Gd137 2.717 . S
O167 C155 1.257 . S
H168 C141 0.930 . S
H169 C142 0.931 . S
H170 C144 0.931 . S
H171 C145 0.931 . S
H172 C150 0.930 . S
H173 C151 0.931 . S
H174 C153 0.931 . S
H175 C154 0.931 . S
Gd176 C179 2.818 . S
Gd176 O196 2.377 . S
Gd176 O198 2.448 . S
Gd176 O199 2.506 . S
Gd176 O200 2.435 . S
Gd176 O201 2.717 . S
Gd176 O203 2.395 . S
Gd176 O207 2.327 . S
Gd177 C188 2.818 . S
Gd177 O197 2.395 . S
Gd177 O201 2.327 . S
Gd177 O202 2.377 . S
Gd177 O204 2.448 . S
Gd177 O205 2.506 . S
Gd177 O206 2.435 . S
Gd177 O207 2.717 . S
C178 O196 1.240 . S
C178 O197 1.240 . S
C179 Gd176 2.818 . S
C179 C180 1.510 . S
C179 O198 1.249 . S
C179 O199 1.252 . S
C180 C179 1.510 . S
C180 C181 1.404 . S
C180 C182 1.352 . S
C181 C180 1.404 . S
C181 C185 1.389 . S
C181 H208 0.930 . S
C182 C180 1.352 . S
C182 C184 1.374 . S
C182 H209 0.931 . S
C183 C184 1.359 . S
C183 C185 1.364 . S
C184 C182 1.374 . S
C184 C183 1.359 . S
C184 H210 0.931 . S
C185 C181 1.389 . S
C185 C183 1.364 . S
C185 H211 0.931 . S
C186 O200 1.256 . S
C186 O201 1.257 . S
C187 O202 1.240 . S
C187 O203 1.240 . S
C188 Gd177 2.818 . S
C188 C189 1.510 . S
C188 O204 1.249 . S
C188 O205 1.252 . S
C189 C188 1.510 . S
C189 C190 1.404 . S
C189 C191 1.352 . S
C190 C189 1.404 . S
C190 C194 1.389 . S
C190 H212 0.930 . S
C191 C189 1.352 . S
C191 C193 1.374 . S
C191 H213 0.931 . S
C192 C193 1.359 . S
C192 C194 1.364 . S
C193 C191 1.374 . S
C193 C192 1.359 . S
C193 H214 0.931 . S
C194 C190 1.389 . S
C194 C192 1.364 . S
C194 H215 0.931 . S
C195 O206 1.256 . S
C195 O207 1.257 . S
O196 Gd176 2.377 . S
O196 C178 1.240 . S
O197 Gd177 2.395 . S
O197 C178 1.240 . S
O198 Gd176 2.448 . S
O198 C179 1.249 . S
O199 Gd176 2.506 . S
O199 C179 1.252 . S
O200 Gd176 2.435 . S
O200 C186 1.256 . S
O201 Gd176 2.717 . S
O201 Gd177 2.327 . S
O201 C186 1.257 . S
O202 Gd177 2.377 . S
O202 C187 1.240 . S
O203 Gd176 2.395 . S
O203 C187 1.240 . S
O204 Gd177 2.448 . S
O204 C188 1.249 . S
O205 Gd177 2.506 . S
O205 C188 1.252 . S
O206 Gd177 2.435 . S
O206 C195 1.256 . S
O207 Gd176 2.327 . S
O207 Gd177 2.717 . S
O207 C195 1.257 . S
H208 C181 0.930 . S
H209 C182 0.931 . S
H210 C184 0.931 . S
H211 C185 0.931 . S
H212 C190 0.930 . S
H213 C191 0.931 . S
H214 C193 0.931 . S
H215 C194 0.931 . S
Gd216 C219 2.818 . S
Gd216 O236 2.377 . S
Gd216 O238 2.448 . S
Gd216 O239 2.506 . S
Gd216 O240 2.435 1_455 S
Gd216 O241 2.717 1_455 S
Gd216 O243 2.386 1_454 S
Gd216 O247 2.327 1_554 S
Gd217 C228 2.818 1_455 S
Gd217 O237 2.395 1_556 S
Gd217 O241 2.327 1_456 S
Gd217 O242 2.377 1_455 S
Gd217 O244 2.448 1_455 S
Gd217 O245 2.506 1_455 S
Gd217 O246 2.435 . S
Gd217 O247 2.717 . S
C218 O236 1.240 . S
C218 O237 1.240 . S
C219 Gd216 2.818 . S
C219 C220 1.510 . S
C219 O238 1.249 . S
C219 O239 1.252 . S
C220 C219 1.510 . S
C220 C221 1.404 . S
C220 C222 1.352 . S
C221 C220 1.404 . S
C221 C225 1.389 . S
C221 H248 0.930 . S
C222 C220 1.352 . S
C222 C224 1.374 . S
C222 H249 0.931 . S
C223 C224 1.359 . S
C223 C225 1.364 . S
C224 C222 1.374 . S
C224 C223 1.359 . S
C224 H250 0.931 . S
C225 C221 1.389 . S
C225 C223 1.364 . S
C225 H251 0.931 . S
C226 O240 1.256 . S
C226 O241 1.257 . S
C227 O242 1.240 . S
C227 O243 1.254 . S
C228 Gd217 2.818 1_655 S
C228 C229 1.510 . S
C228 O244 1.249 . S
C228 O245 1.252 . S
C229 C228 1.510 . S
C229 C230 1.404 . S
C229 C231 1.352 . S
C230 C229 1.404 . S
C230 C234 1.389 . S
C230 H252 0.930 . S
C231 C229 1.352 . S
C231 C233 1.374 . S
C231 H253 0.931 . S
C232 C233 1.359 . S
C232 C234 1.364 . S
C233 C231 1.374 . S
C233 C232 1.359 . S
C233 H254 0.931 . S
C234 C230 1.389 . S
C234 C232 1.364 . S
C234 H255 0.931 . S
C235 O246 1.256 . S
C235 O247 1.257 . S
O236 Gd216 2.377 . S
O236 C218 1.240 . S
O237 Gd217 2.395 1_554 S
O237 C218 1.240 . S
O238 Gd216 2.448 . S
O238 C219 1.249 . S
O239 Gd216 2.506 . S
O239 C219 1.252 . S
O240 Gd216 2.435 1_655 S
O240 C226 1.256 . S
O241 Gd216 2.717 1_655 S
O241 Gd217 2.327 1_654 S
O241 C226 1.257 . S
O242 Gd217 2.377 1_655 S
O242 C227 1.240 . S
O243 Gd216 2.386 1_656 S
O243 C227 1.254 . S
O244 Gd217 2.448 1_655 S
O244 C228 1.249 . S
O245 Gd217 2.506 1_655 S
O245 C228 1.252 . S
O246 Gd217 2.435 . S
O246 C235 1.256 . S
O247 Gd216 2.327 1_556 S
O247 Gd217 2.717 . S
O247 C235 1.257 . S
H248 C221 0.930 . S
H249 C222 0.931 . S
H250 C224 0.931 . S
H251 C225 0.931 . S
H252 C230 0.930 . S
H253 C231 0.931 . S
H254 C233 0.931 . S
H255 C234 0.931 . S
C256 C257 1.387 . S
C256 H260 0.950 . S
C256 C265 1.390 . S
C257 C256 1.387 . S
C257 C259 1.387 . S
H258 C265 0.950 . S
C259 C257 1.387 . S
C259 C261 1.390 . S
C259 H263 0.950 . S
H260 C256 0.950 . S
C261 C259 1.390 . S
C261 C262 1.387 . S
C261 H264 0.950 . S
C262 C261 1.387 . S
C262 C265 1.387 . S
H263 C259 0.950 . S
H264 C261 0.950 . S
C265 C256 1.390 . S
C265 H258 0.950 . S
C265 C262 1.387 . S
C266 C267 1.387 . S
C266 H270 0.950 . S
C266 C275 1.390 . S
C267 C266 1.387 . S
C267 C269 1.387 . S
H268 C275 0.950 . S
C269 C267 1.387 . S
C269 C271 1.390 . S
C269 H273 0.950 . S
H270 C266 0.950 . S
C271 C269 1.390 . S
C271 C272 1.387 . S
C271 H274 0.950 . S
C272 C271 1.387 . S
C272 C275 1.387 . S
H273 C269 0.950 . S
H274 C271 0.950 . S
C275 C266 1.390 . S
C275 H268 0.950 . S
C275 C272 1.387 . S
C276 C277 1.387 . S
C276 H280 0.950 . S
C276 C285 1.390 . S
C277 C276 1.387 . S
C277 C279 1.387 . S
H278 C285 0.950 . S
C279 C277 1.387 . S
C279 C281 1.390 . S
C279 H283 0.950 . S
H280 C276 0.950 . S
C281 C279 1.390 . S
C281 C282 1.387 . S
C281 H284 0.950 . S
C282 C281 1.387 . S
C282 C285 1.387 . S
H283 C279 0.950 . S
H284 C281 0.950 . S
C285 C276 1.390 . S
C285 H278 0.950 . S
C285 C282 1.387 . S
C286 C287 1.387 . S
C286 H290 0.950 . S
C286 C295 1.390 . S
C287 C286 1.387 . S
C287 C289 1.387 . S
H288 C295 0.950 . S
C289 C287 1.387 . S
C289 C291 1.390 . S
C289 H293 0.950 . S
H290 C286 0.950 . S
C291 C289 1.390 . S
C291 C292 1.387 . S
C291 H294 0.950 . S
C292 C291 1.387 . S
C292 C295 1.387 . S
H293 C289 0.950 . S
H294 C291 0.950 . S
C295 C286 1.390 . S
C295 H288 0.950 . S
C295 C292 1.387 . S
C296 C297 1.387 . S
C296 H300 0.950 . S
C296 C305 1.390 . S
C297 C296 1.387 . S
C297 C299 1.387 . S
H298 C305 0.950 . S
C299 C297 1.387 . S
C299 C301 1.390 . S
C299 H303 0.950 . S
H300 C296 0.950 . S
C301 C299 1.390 . S
C301 C302 1.387 . S
C301 H304 0.950 . S
C302 C301 1.387 . S
C302 C305 1.387 . S
H303 C299 0.950 . S
H304 C301 0.950 . S
C305 C296 1.390 . S
C305 H298 0.950 . S
C305 C302 1.387 . S
C306 C307 1.387 . S
C306 H310 0.950 . S
C306 C315 1.390 . S
C307 C306 1.387 . S
C307 C309 1.387 . S
H308 C315 0.950 . S
C309 C307 1.387 . S
C309 C311 1.390 . S
C309 H313 0.950 . S
H310 C306 0.950 . S
C311 C309 1.390 . S
C311 C312 1.387 . S
C311 H314 0.950 . S
C312 C311 1.387 . S
C312 C315 1.387 . S
H313 C309 0.950 . S
H314 C311 0.950 . S
C315 C306 1.390 . S
C315 H308 0.950 . S
C315 C312 1.387 . S
C316 C317 1.387 . S
C316 H320 0.950 . S
C316 C325 1.390 . S
C317 C316 1.387 . S
C317 C319 1.387 . S
H318 C325 0.950 . S
C319 C317 1.387 . S
C319 C321 1.390 . S
C319 H323 0.950 . S
H320 C316 0.950 . S
C321 C319 1.390 . S
C321 C322 1.387 . S
C321 H324 0.950 . S
C322 C321 1.387 . S
C322 C325 1.387 . S
H323 C319 0.950 . S
H324 C321 0.950 . S
C325 C316 1.390 . S
C325 H318 0.950 . S
C325 C322 1.387 . S
C326 C327 1.387 . S
C326 H330 0.950 . S
C326 C335 1.390 . S
C327 C326 1.387 . S
C327 C329 1.387 . S
H328 C335 0.950 . S
C329 C327 1.387 . S
C329 C331 1.390 . S
C329 H333 0.950 . S
H330 C326 0.950 . S
C331 C329 1.390 . S
C331 C332 1.387 . S
C331 H334 0.950 . S
C332 C331 1.387 . S
C332 C335 1.387 . S
H333 C329 0.950 . S
H334 C331 0.950 . S
C335 C326 1.390 . S
C335 H328 0.950 . S
C335 C332 1.387 . S
C336 C337 1.387 . S
C336 H340 0.950 . S
C336 C345 1.390 . S
C337 C336 1.387 . S
C337 C339 1.387 . S
H338 C345 0.950 . S
C339 C337 1.387 . S
C339 C341 1.390 . S
C339 H343 0.950 . S
H340 C336 0.950 . S
C341 C339 1.390 . S
C341 C342 1.387 . S
C341 H344 0.950 . S
C342 C341 1.387 . S
C342 C345 1.387 . S
H343 C339 0.950 . S
H344 C341 0.950 . S
C345 C336 1.390 . S
C345 H338 0.950 . S
C345 C342 1.387 . S
C346 C347 1.387 . S
C346 H350 0.950 . S
C346 C355 1.390 . S
C347 C346 1.387 . S
C347 C349 1.387 . S
H348 C355 0.950 . S
C349 C347 1.387 . S
C349 C351 1.390 . S
C349 H353 0.950 . S
H350 C346 0.950 . S
C351 C349 1.390 . S
C351 C352 1.387 . S
C351 H354 0.950 . S
C352 C351 1.387 . S
C352 C355 1.387 . S
H353 C349 0.950 . S
H354 C351 0.950 . S
C355 C346 1.390 . S
C355 H348 0.950 . S
C355 C352 1.387 . S
C356 C357 1.387 . S
C356 H360 0.950 . S
C356 C365 1.390 . S
C357 C356 1.387 . S
C357 C359 1.387 . S
H358 C365 0.950 . S
C359 C357 1.387 . S
C359 C361 1.390 . S
C359 H363 0.950 . S
H360 C356 0.950 . S
C361 C359 1.390 . S
C361 C362 1.387 . S
C361 H364 0.950 . S
C362 C361 1.387 . S
C362 C365 1.387 . S
H363 C359 0.950 . S
H364 C361 0.950 . S
C365 C356 1.390 . S
C365 H358 0.950 . S
C365 C362 1.387 . S
C366 C367 1.387 . S
C366 H370 0.950 . S
C366 C375 1.390 . S
C367 C366 1.387 . S
C367 C369 1.387 . S
H368 C375 0.950 . S
C369 C367 1.387 . S
C369 C371 1.390 . S
C369 H373 0.950 . S
H370 C366 0.950 . S
C371 C369 1.390 . S
C371 C372 1.387 . S
C371 H374 0.950 . S
C372 C371 1.387 . S
C372 C375 1.387 . S
H373 C369 0.950 . S
H374 C371 0.950 . S
C375 C366 1.390 . S
C375 H368 0.950 . S
C375 C372 1.387 . S
C376 C377 1.387 . S
C376 H380 0.950 . S
C376 C385 1.390 . S
C377 C376 1.387 . S
C377 C379 1.387 . S
H378 C385 0.950 . S
C379 C377 1.387 . S
C379 C381 1.390 . S
C379 H383 0.950 . S
H380 C376 0.950 . S
C381 C379 1.390 . S
C381 C382 1.387 . S
C381 H384 0.950 . S
C382 C381 1.387 . S
C382 C385 1.387 . S
H383 C379 0.950 . S
H384 C381 0.950 . S
C385 C376 1.390 . S
C385 H378 0.950 . S
C385 C382 1.387 . S
C386 C387 1.387 . S
C386 H390 0.950 . S
C386 C395 1.390 . S
C387 C386 1.387 . S
C387 C389 1.387 . S
H388 C395 0.950 . S
C389 C387 1.387 . S
C389 C391 1.390 . S
C389 H393 0.950 . S
H390 C386 0.950 . S
C391 C389 1.390 . S
C391 C392 1.387 . S
C391 H394 0.950 . S
C392 C391 1.387 . S
C392 C395 1.387 . S
H393 C389 0.950 . S
H394 C391 0.950 . S
C395 C386 1.390 . S
C395 H388 0.950 . S
C395 C392 1.387 . S
C396 C397 1.387 . S
C396 H400 0.950 . S
C396 C405 1.390 . S
C397 C396 1.387 . S
C397 C399 1.387 . S
H398 C405 0.950 . S
C399 C397 1.387 . S
C399 C401 1.390 . S
C399 H403 0.950 . S
H400 C396 0.950 . S
C401 C399 1.390 . S
C401 C402 1.387 . S
C401 H404 0.950 . S
C402 C401 1.387 . S
C402 C405 1.387 . S
H403 C399 0.950 . S
H404 C401 0.950 . S
C405 C396 1.390 . S
C405 H398 0.950 . S
C405 C402 1.387 . S
C406 C407 1.387 . S
C406 H410 0.950 . S
C406 C415 1.390 . S
C407 C406 1.387 . S
C407 C409 1.387 . S
H408 C415 0.950 . S
C409 C407 1.387 . S
C409 C411 1.390 . S
C409 H413 0.950 . S
H410 C406 0.950 . S
C411 C409 1.390 . S
C411 C412 1.387 . S
C411 H414 0.950 . S
C412 C411 1.387 . S
C412 C415 1.387 . S
H413 C409 0.950 . S
H414 C411 0.950 . S
C415 C406 1.390 . S
C415 H408 0.950 . S
C415 C412 1.387 . S
C416 C417 1.387 . S
C416 H420 0.950 . S
C416 C425 1.390 . S
C417 C416 1.387 . S
C417 C419 1.387 . S
H418 C425 0.950 . S
C419 C417 1.387 . S
C419 C421 1.390 . S
C419 H423 0.950 . S
H420 C416 0.950 . S
C421 C419 1.390 . S
C421 C422 1.387 . S
C421 H424 0.950 . S
C422 C421 1.387 . S
C422 C425 1.387 . S
H423 C419 0.950 . S
H424 C421 0.950 . S
C425 C416 1.390 . S
C425 H418 0.950 . S
C425 C422 1.387 . S
C426 C427 1.387 . S
C426 H430 0.950 . S
C426 C435 1.390 . S
C427 C426 1.387 . S
C427 C429 1.387 . S
H428 C435 0.950 . S
C429 C427 1.387 . S
C429 C431 1.390 . S
C429 H433 0.950 . S
H430 C426 0.950 . S
C431 C429 1.390 . S
C431 C432 1.387 . S
C431 H434 0.950 . S
C432 C431 1.387 . S
C432 C435 1.387 . S
H433 C429 0.950 . S
H434 C431 0.950 . S
C435 C426 1.390 . S
C435 H428 0.950 . S
C435 C432 1.387 . S
C436 C437 1.387 . S
C436 H440 0.950 . S
C436 C445 1.390 . S
C437 C436 1.387 . S
C437 C439 1.387 . S
H438 C445 0.950 . S
C439 C437 1.387 . S
C439 C441 1.390 . S
C439 H443 0.950 . S
H440 C436 0.950 . S
C441 C439 1.390 . S
C441 C442 1.387 . S
C441 H444 0.950 . S
C442 C441 1.387 . S
C442 C445 1.387 . S
H443 C439 0.950 . S
H444 C441 0.950 . S
C445 C436 1.390 . S
C445 H438 0.950 . S
C445 C442 1.387 . S
C446 C447 1.387 . S
C446 H450 0.950 . S
C446 C455 1.390 . S
C447 C446 1.387 . S
C447 C449 1.387 . S
H448 C455 0.950 . S
C449 C447 1.387 . S
C449 C451 1.390 . S
C449 H453 0.950 . S
H450 C446 0.950 . S
C451 C449 1.390 . S
C451 C452 1.387 . S
C451 H454 0.950 . S
C452 C451 1.387 . S
C452 C455 1.387 . S
H453 C449 0.950 . S
H454 C451 0.950 . S
C455 C446 1.390 . S
C455 H448 0.950 . S
C455 C452 1.387 . S
C456 C457 1.387 . S
C456 H460 0.950 . S
C456 C465 1.390 . S
C457 C456 1.387 . S
C457 C459 1.387 . S
H458 C465 0.950 . S
C459 C457 1.387 . S
C459 C461 1.390 . S
C459 H463 0.950 . S
H460 C456 0.950 . S
C461 C459 1.390 . S
C461 C462 1.387 . S
C461 H464 0.950 . S
C462 C461 1.387 . S
C462 C465 1.387 . S
H463 C459 0.950 . S
H464 C461 0.950 . S
C465 C456 1.390 . S
C465 H458 0.950 . S
C465 C462 1.387 . S
C466 C467 1.387 . S
C466 H470 0.950 . S
C466 C475 1.390 . S
C467 C466 1.387 . S
C467 C469 1.387 . S
H468 C475 0.950 . S
C469 C467 1.387 . S
C469 C471 1.390 . S
C469 H473 0.950 . S
H470 C466 0.950 . S
C471 C469 1.390 . S
C471 C472 1.387 . S
C471 H474 0.950 . S
C472 C471 1.387 . S
C472 C475 1.387 . S
H473 C469 0.950 . S
H474 C471 0.950 . S
C475 C466 1.390 . S
C475 H468 0.950 . S
C475 C472 1.387 . S
C476 C477 1.387 . S
C476 H480 0.950 . S
C476 C485 1.390 . S
C477 C476 1.387 . S
C477 C479 1.387 . S
H478 C485 0.950 . S
C479 C477 1.387 . S
C479 C481 1.390 . S
C479 H483 0.950 . S
H480 C476 0.950 . S
C481 C479 1.390 . S
C481 C482 1.387 . S
C481 H484 0.950 . S
C482 C481 1.387 . S
C482 C485 1.387 . S
H483 C479 0.950 . S
H484 C481 0.950 . S
C485 C476 1.390 . S
C485 H478 0.950 . S
C485 C482 1.387 . S
C486 C487 1.387 . S
C486 H490 0.950 . S
C486 C495 1.390 . S
C487 C486 1.387 . S
C487 C489 1.387 . S
H488 C495 0.950 . S
C489 C487 1.387 . S
C489 C491 1.390 . S
C489 H493 0.950 . S
H490 C486 0.950 . S
C491 C489 1.390 . S
C491 C492 1.387 . S
C491 H494 0.950 . S
C492 C491 1.387 . S
C492 C495 1.387 . S
H493 C489 0.950 . S
H494 C491 0.950 . S
C495 C486 1.390 . S
C495 H488 0.950 . S
C495 C492 1.387 . S
C257 C6 1.061 . S
C262 C103 1.093 . S
C267 C18 1.287 . S
C272 C152 1.275 . S
C282 C178 2.576 . S
C277 C28 2.630 . S
C287 C40 1.966 . S
C292 C226 1.922 . S
C302 C138 2.224 . S
C297 C9 2.054 . S
C312 C106 1.013 . S
C307 C16 1.006 . S
C322 C227 1.936 . S
C317 C30 1.961 . S
C332 C195 1.456 . S
C327 C42 1.483 . S
C337 C4 1.511 . S
C342 C223 1.558 . S
C352 C155 2.517 . S
C347 C33 2.590 . S
C357 C45 2.110 . S
C362 C107 2.106 . S
C367 C21 1.244 . S
C372 C192 1.285 . S
C382 C112 1.101 . S
C377 C57 1.090 . S
C387 C66 1.329 . S
C392 C143 1.309 . S
C397 C76 2.680 . S
C402 C187 2.617 . S
C407 C88 1.905 . S
C412 C235 1.876 . S
C417 C54 2.050 . S
C422 C147 2.221 . S
C432 C115 1.120 . S
C427 C64 1.132 . S
C442 C218 1.862 . S
C437 C78 1.905 . S
C452 C186 1.501 . S
C447 C93 1.526 . S
C457 C52 1.469 . S
C462 C232 1.592 . S
C472 C146 2.503 . S
C467 C81 2.580 . S
C482 C98 2.091 . S
C477 C90 2.091 . S
C487 C69 1.220 . S
C492 C183 1.286 . S
