# Generated by pormake.
# Topology ssa, (4,4)-cn, num edge types: 1
# Building blocks:
#     Node 0, Type 0, BuildingBlock: KOZSID_clean_sbu_0, # of connection points: 4
#     Node 1, Type 0, BuildingBlock: KOZSID_clean_sbu_0, # of connection points: 4
#     Node 2, Type 0, BuildingBlock: KOZSID_clean_sbu_0, # of connection points: 4
#     Node 3, Type 0, BuildingBlock: KOZSID_clean_sbu_0, # of connection points: 4
#     Node 4, Type 0, BuildingBlock: KOZSID_clean_sbu_0, # of connection points: 4
#     Node 5, Type 0, BuildingBlock: KOZSID_clean_sbu_0, # of connection points: 4
#     Node 6, Type 1, BuildingBlock: AZAVOO_clean_linker_0, # of connection points: 4
#     Node 7, Type 1, BuildingBlock: AZAVOO_clean_linker_0, # of connection points: 4
#     Node 8, Type 1, BuildingBlock: AZAVOO_clean_linker_0, # of connection points: 4
#     Node 9, Type 1, BuildingBlock: AZAVOO_clean_linker_0, # of connection points: 4
#     Node 10, Type 1, BuildingBlock: AZAVOO_clean_linker_0, # of connection points: 4
#     Node 11, Type 1, BuildingBlock: AZAVOO_clean_linker_0, # of connection points: 4
#     Edge 12, Type (0, 1), None
#     Edge 13, Type (0, 1), None
#     Edge 14, Type (0, 1), None
#     Edge 15, Type (0, 1), None
#     Edge 16, Type (0, 1), None
#     Edge 17, Type (0, 1), None
#     Edge 18, Type (0, 1), None
#     Edge 19, Type (0, 1), None
#     Edge 20, Type (0, 1), None
#     Edge 21, Type (0, 1), None
#     Edge 22, Type (0, 1), None
#     Edge 23, Type (0, 1), None
#     Edge 24, Type (0, 1), None
#     Edge 25, Type (0, 1), None
#     Edge 26, Type (0, 1), None
#     Edge 27, Type (0, 1), None
#     Edge 28, Type (0, 1), None
#     Edge 29, Type (0, 1), None
#     Edge 30, Type (0, 1), None
#     Edge 31, Type (0, 1), None
#     Edge 32, Type (0, 1), None
#     Edge 33, Type (0, 1), None
#     Edge 34, Type (0, 1), None
#     Edge 35, Type (0, 1), None
# Relax obj value: 0.105
# Max RMSD: 0.238
# Mean RMSD: 0.128
data_MOF--net-ssa--node1-KOZSID_clean_sbu_0--node2-AZAVOO_clean_linker_0--edge1-none
_symmetry_space_group_name_H-M    P1
_symmetry_Int_Tables_number       1
_symmetry_cell_setting            triclinic
loop_
_symmetry_equiv_pos_as_xyz
'x, y, z'
_cell_length_a     30.73904
_cell_length_b     32.152968
_cell_length_c     29.437511
_cell_angle_alpha  85.548875
_cell_angle_beta   93.893588
_cell_angle_gamma 124.56993
loop_
_atom_site_label
_atom_site_type_symbol
_atom_site_fract_x
_atom_site_fract_y
_atom_site_fract_z
_atom_type_partial_charge
C0 C 0.05284 0.5376 0.99455 0.0
C1 C 1.00101 0.49932 0.98257 0.0
C2 C 0.99115 0.45529 0.00312 0.0
C3 C 0.03818 0.46845 0.02395 0.0
N4 N 0.07716 0.51782 0.01739 0.0
Co5 Co 0.15243 0.54269 0.01611 0.0
N6 N 0.14119 0.48838 0.06093 0.0
C7 C 0.09434 0.4453 0.07099 0.0
C8 C 0.0985 0.41486 0.10357 0.0
C9 C 0.15138 0.44031 0.11451 0.0
C10 C 0.17683 0.48468 0.08714 0.0
N11 N 0.22668 0.56463 0.01301 0.0
C12 C 0.25524 0.55348 0.04194 0.0
C13 C 0.30585 0.57603 0.0263 0.0
C14 C 0.30869 0.60212 0.98605 0.0
C15 C 0.25973 0.59392 0.97934 0.0
N16 N 0.16359 0.59866 0.97326 0.0
C17 C 0.20388 0.62533 0.9445 0.0
C18 C 0.19996 0.65927 0.91678 0.0
C19 C 0.15419 0.65323 0.92861 0.0
C20 C 0.13269 0.61655 0.96416 0.0
N21 N 0.17148 0.58732 0.06576 0.0
C22 C 0.20267 0.65296 0.13617 0.0
C23 C 0.23412 0.66749 0.0984 0.0
C24 C 0.21762 0.63447 0.06349 0.0
C25 C 0.15443 0.60531 0.13766 0.0
C26 C 0.1397 0.5727 0.10214 0.0
N27 N 0.13348 0.4983 0.96525 0.0
C28 C 0.08263 0.46642 0.89571 0.0
C29 C 0.07345 0.41922 0.90674 0.0
C30 C 0.10345 0.41535 0.94273 0.0
C31 C 0.13519 0.45649 0.97056 0.0
C32 C 0.11076 0.50466 0.92613 0.0
H33 H 0.15706 0.45236 0.99864 0.0
H34 H 0.10943 0.5371 0.91926 0.0
H35 H 0.24265 0.64726 0.03468 0.0
H36 H 0.10309 0.53562 0.10413 0.0
C37 C 0.04758 0.43601 0.05015 0.0
C38 C 0.07892 0.59209 0.98289 0.0
C39 C 0.23449 0.51957 0.0828 0.0
C40 C 0.24654 0.62029 0.94758 0.0
H41 H 0.97308 0.50242 0.96084 0.0
H42 H 0.95461 0.41804 1.0019 0.0
H43 H 0.06695 0.37869 0.11794 0.0
H44 H 0.16861 0.4265 0.13902 0.0
H45 H 0.33727 0.57379 0.04228 0.0
H46 H 0.34304 0.62595 0.96532 0.0
H47 H 0.22663 0.68483 0.89044 0.0
H48 H 0.13763 0.67138 0.90985 0.0
H49 H 0.27137 0.70422 0.09587 0.0
H50 H 0.12918 0.59298 0.16658 0.0
H51 H 0.06306 0.47177 0.86624 0.0
H52 H 0.09935 0.38001 0.95163 0.0
C53 C 0.65285 0.02578 0.64769 0.0
C54 C 0.643 0.00239 0.69108 0.0
C55 C 0.59293 0.9597 0.68958 0.0
C56 C 0.57475 0.95967 0.64585 0.0
N57 N 0.61056 0.99924 0.61893 0.0
Co58 Co 0.59817 0.01683 0.55477 0.0
N59 N 0.5248 0.95372 0.55236 0.0
C60 C 0.50065 0.91706 0.58571 0.0
C61 C 0.45197 0.87631 0.57288 0.0
C62 C 0.44491 0.88721 0.5284 0.0
C63 C 0.48987 0.93413 0.51669 0.0
N64 N 0.58483 0.0358 0.4914 0.0
C65 C 0.54233 0.01003 0.46271 0.0
C66 C 0.54819 0.03778 0.42234 0.0
C67 C 0.59664 0.08243 0.4253 0.0
C68 C 0.61742 0.07936 0.46713 0.0
N69 N 0.6727 0.07834 0.55567 0.0
C70 C 0.6976 0.11327 0.5212 0.0
C71 C 0.7493 0.15039 0.53141 0.0
C72 C 0.75781 0.13873 0.57519 0.0
C73 C 0.71039 0.09528 0.58926 0.0
N74 N 0.62372 0.97873 0.53076 0.0
C75 C 0.65575 0.92171 0.4953 0.0
C76 C 0.67019 0.96839 0.47464 0.0
C77 C 0.65349 0.99594 0.49259 0.0
C78 C 0.62635 0.90478 0.53461 0.0
C79 C 0.61131 0.93387 0.55186 0.0
N80 N 0.57255 0.05478 0.57995 0.0
C81 C 0.58807 0.13436 0.59834 0.0
C82 C 0.54628 0.10955 0.6284 0.0
C83 C 0.51593 0.05689 0.63166 0.0
C84 C 0.52954 0.03051 0.60734 0.0
C85 C 0.59995 0.10641 0.57408 0.0
H86 H 0.50529 0.99056 0.61255 0.0
H87 H 0.63221 0.12759 0.55162 0.0
H88 H 0.66422 0.03058 0.47469 0.0
H89 H 0.58887 0.91878 0.58195 0.0
C90 C 0.52481 0.92238 0.62874 0.0
C91 C 0.70182 0.07425 0.63592 0.0
C92 C 0.49774 0.95809 0.47106 0.0
C93 C 0.66966 0.11317 0.48178 0.0
H94 H 0.66872 0.01496 0.72111 0.0
H95 H 0.57206 0.93219 0.71722 0.0
H96 H 0.42533 0.84246 0.59325 0.0
H97 H 0.41095 0.86326 0.50666 0.0
H98 H 0.52115 0.02613 0.39311 0.0
H99 H 0.61557 0.11241 0.3991 0.0
H100 H 0.77687 0.1831 0.51022 0.0
H101 H 0.79414 0.16072 0.59516 0.0
H102 H 0.69255 0.98273 0.44375 0.0
H103 H 0.61446 0.86891 0.55174 0.0
H104 H 0.61186 0.17522 0.59388 0.0
H105 H 0.48301 0.03599 0.65441 0.0
C106 C 0.71349 0.59625 0.01019 0.0
C107 C 0.72892 0.63317 0.97519 0.0
C108 C 0.6914 0.64336 0.97073 0.0
C109 C 0.65498 0.61201 0.00272 0.0
N110 N 0.6672 0.58278 0.02799 0.0
Co111 Co 0.62161 0.52842 0.07503 0.0
N112 N 0.56678 0.54401 0.06825 0.0
C113 C 0.56662 0.57804 0.03843 0.0
C114 C 0.52565 0.58277 0.04366 0.0
C115 C 0.49918 0.55134 0.08024 0.0
C116 C 0.52568 0.52918 0.09517 0.0
N117 N 0.57526 0.47356 0.12141 0.0
C118 C 0.53315 0.46525 0.1433 0.0
C119 C 0.51549 0.42622 0.17634 0.0
C120 C 0.54805 0.41003 0.17589 0.0
C121 C 0.58388 0.44001 0.14289 0.0
N122 N 0.67743 0.51415 0.0831 0.0
C123 C 0.67647 0.47916 0.1125 0.0
C124 C 0.72017 0.47791 0.11071 0.0
C125 C 0.75066 0.51393 0.07796 0.0
C126 C 0.72355 0.53496 0.06123 0.0
N127 N 0.65639 0.57691 0.12432 0.0
C128 C 0.6852 0.63771 0.19894 0.0
C129 C 0.67698 0.59047 0.20484 0.0
C130 C 0.6642 0.56147 0.16707 0.0
C131 C 0.683 0.65589 0.15478 0.0
C132 C 0.668 0.62481 0.11809 0.0
N133 N 0.58636 0.47897 0.0256 0.0
C134 C 0.56803 0.40357 0.9928 0.0
C135 C 0.55016 0.41452 0.9519 0.0
C136 C 0.54767 0.45666 0.94914 0.0
C137 C 0.566 0.48829 0.98615 0.0
C138 C 0.58502 0.43548 0.02895 0.0
H139 H 0.56435 0.52053 0.98153 0.0
H140 H 0.59809 0.42453 0.05881 0.0
H141 H 0.65859 0.52576 0.1737 0.0
H142 H 0.66389 0.63932 0.08535 0.0
C143 C 0.60835 0.6084 0.00909 0.0
C144 C 0.74244 0.57313 0.02333 0.0
C145 C 0.51206 0.49643 0.13647 0.0
C146 C 0.63188 0.44521 0.1384 0.0
H147 H 0.76293 0.65026 0.954 0.0
H148 H 0.69017 0.66963 0.94627 0.0
H149 H 0.5175 0.6079 0.02458 0.0
H150 H 0.46533 0.54655 0.09524 0.0
H151 H 0.48429 0.41267 0.20011 0.0
H152 H 0.54824 0.38255 0.19945 0.0
H153 H 0.72822 0.45281 0.13001 0.0
H154 H 0.7881 0.52299 0.06689 0.0
H155 H 0.67922 0.57553 0.23854 0.0
H156 H 0.69009 0.69284 0.14897 0.0
H157 H 0.56969 0.37068 0.99669 0.0
H158 H 0.53368 0.4663 0.91803 0.0
C159 C 0.97365 0.34728 0.60975 0.0
C160 C 0.92319 0.30818 0.59639 0.0
C161 C 0.91128 0.32455 0.55633 0.0
C162 C 0.95505 0.37248 0.54763 0.0
N163 N 0.9948 0.38712 0.57899 0.0
Co164 Co 0.06355 0.45523 0.58246 0.0
N165 N 0.04134 0.48363 0.53016 0.0
C166 C 0.99507 0.45877 0.50594 0.0
C167 C 0.99215 0.48757 0.47062 0.0
C168 C 0.03965 0.53334 0.47194 0.0
C169 C 0.06887 0.52981 0.50824 0.0
N170 N 0.13237 0.52319 0.58631 0.0
C171 C 0.151 0.56559 0.55916 0.0
C172 C 0.20155 0.60444 0.57289 0.0
C173 C 0.21587 0.58547 0.60946 0.0
C174 C 0.17338 0.53642 0.616 0.0
N175 N 0.08506 0.42657 0.63527 0.0
C176 C 0.13216 0.45022 0.65826 0.0
C177 C 0.13323 0.42247 0.69561 0.0
C178 C 0.08343 0.37917 0.69738 0.0
C179 C 0.05484 0.38298 0.66078 0.0
N180 N 0.0957 0.43656 0.53814 0.0
C181 C 0.15232 0.43856 0.46538 0.0
C182 C 0.17627 0.45379 0.5084 0.0
C183 C 0.14712 0.45125 0.54428 0.0
C184 C 0.09823 0.41747 0.46052 0.0
C185 C 0.07079 0.41671 0.49718 0.0
N186 N 0.03257 0.47549 0.62563 0.0
C187 C 0.04277 0.52143 0.69125 0.0
C188 C 0.99261 0.51147 0.68306 0.0
C189 C 0.96182 0.48178 0.64675 0.0
C190 C 0.98262 0.46458 0.61833 0.0
C191 C 0.06153 0.50257 0.66274 0.0
H192 H 0.95793 0.44298 0.59042 0.0
H193 H 0.09975 0.51071 0.6712 0.0
H194 H 0.16778 0.46343 0.57612 0.0
H195 H 0.03008 0.40184 0.49088 0.0
C196 C 0.95682 0.40735 0.51499 0.0
C197 C 0.99802 0.34675 0.65379 0.0
C198 C 0.12388 0.5698 0.51839 0.0
C199 C 0.1715 0.50118 0.64833 0.0
H200 H 0.89689 0.27261 0.61491 0.0
H201 H 0.87386 0.30517 0.53751 0.0
H202 H 0.96007 0.47607 0.44584 0.0
H203 H 0.05195 0.56512 0.44798 0.0
H204 H 0.226 0.64214 0.55726 0.0
H205 H 0.25329 0.60473 0.62826 0.0
H206 H 0.16529 0.43386 0.7204 0.0
H207 H 0.06914 0.34938 0.72384 0.0
H208 H 0.21776 0.46865 0.51411 0.0
H209 H 0.07777 0.404 0.42799 0.0
H210 H 0.0673 0.5435 0.71976 0.0
H211 H 0.9224 0.47288 0.63975 0.0
C212 C 0.47227 0.00384 0.17639 0.0
C213 C 0.47972 0.02676 0.21684 0.0
C214 C 0.52529 0.07409 0.21275 0.0
C215 C 0.54296 0.07731 0.17019 0.0
N216 N 0.51052 0.03542 0.14632 0.0
Co217 Co 0.52406 0.0204 0.08598 0.0
N218 N 0.59763 0.08357 0.08519 0.0
C219 C 0.62019 0.11999 0.11599 0.0
C220 C 0.6708 0.15938 0.10596 0.0
C221 C 0.68116 0.14752 0.06634 0.0
C222 C 0.63609 0.10133 0.05447 0.0
N223 N 0.5378 0.00413 0.02644 0.0
C224 C 0.58283 0.02791 0.00267 0.0
C225 C 0.57665 0.00162 0.96484 0.0
C226 C 0.52556 0.96035 0.96413 0.0
C227 C 0.5036 0.96357 1.00154 0.0
N228 N 0.45041 0.95732 0.08703 0.0
C229 C 0.4249 0.92414 0.0536 0.0
C230 C 0.37646 0.88232 0.06589 0.0
C231 C 0.37141 0.88842 0.11019 0.0
C232 C 0.41721 0.93389 0.12238 0.0
N233 N 0.4982 0.05927 0.0524 0.0
C234 C 0.48468 0.12417 0.99235 0.0
C235 C 0.46109 0.0737 0.98264 0.0
C236 C 0.46804 0.04212 0.01301 0.0
C237 C 0.5108 0.14026 0.03447 0.0
C238 C 0.51596 0.10705 0.06419 0.0
N239 N 0.55066 0.98272 0.11837 0.0
C240 C 0.55222 0.9084 0.12832 0.0
C241 C 0.5902 0.93022 0.16348 0.0
C242 C 0.60779 0.97852 0.17596 0.0
C243 C 0.58751 0.00387 0.1532 0.0
C244 C 0.53315 0.9352 0.10628 0.0
H245 H 0.60192 0.04043 0.16444 0.0
H246 H 0.50422 0.91679 0.07964 0.0
H247 H 0.4505 0.00472 0.00274 0.0
H248 H 0.53619 0.12174 0.09567 0.0
C249 C 0.59336 0.11526 0.15472 0.0
C250 C 0.43009 0.95109 0.1689 0.0
C251 C 0.63161 0.07616 0.01353 0.0
C252 C 0.45164 0.92824 0.0151 0.0
H253 H 0.45586 0.01012 0.24681 0.0
H254 H 0.545 0.10154 0.23885 0.0
H255 H 0.69715 0.19262 0.1253 0.0
H256 H 0.71776 0.17023 0.04822 0.0
H257 H 0.60598 0.01154 0.94008 0.0
H258 H 0.50682 0.93122 0.9395 0.0
H259 H 0.3499 0.84938 0.04626 0.0
H260 H 0.33906 0.86113 0.13174 0.0
H261 H 0.43999 0.05933 0.95048 0.0
H262 H 0.52846 0.17874 0.04395 0.0
H263 H 0.53752 0.87096 0.11764 0.0
H264 H 0.63634 0.99635 0.2038 0.0
C265 C 0.64114 0.66946 0.55773 0.0
C266 C 0.63138 0.70598 0.5623 0.0
C267 C 0.59693 0.68868 0.59739 0.0
C268 C 0.58772 0.64271 0.61207 0.0
N269 N 0.61487 0.63059 0.58875 0.0
Co270 Co 0.61054 0.56656 0.59481 0.0
N271 N 0.54178 0.53055 0.62658 0.0
C272 C 0.52058 0.55275 0.64378 0.0
C273 C 0.47515 0.51924 0.66695 0.0
C274 C 0.4679 0.47321 0.66537 0.0
C275 C 0.50946 0.48123 0.64124 0.0
N276 N 0.60758 0.5032 0.60113 0.0
C277 C 0.56819 0.45636 0.61582 0.0
C278 C 0.58143 0.4221 0.61269 0.0
C279 C 0.63189 0.44875 0.59752 0.0
C280 C 0.64648 0.49779 0.5919 0.0
N281 N 0.67788 0.60228 0.56155 0.0
C282 C 0.71064 0.58743 0.55906 0.0
C283 C 0.75152 0.61843 0.53012 0.0
C284 C 0.74354 0.65457 0.51296 0.0
C285 C 0.6982 0.64351 0.5326 0.0
N286 N 0.64979 0.58704 0.65398 0.0
C287 C 0.70979 0.60639 0.73587 0.0
C288 C 0.73162 0.63867 0.69679 0.0
C289 C 0.70053 0.62914 0.65671 0.0
C290 C 0.65604 0.56775 0.73402 0.0
C291 C 0.62752 0.55807 0.69304 0.0
N292 N 0.57192 0.54636 0.5361 0.0
C293 C 0.56101 0.5163 0.46078 0.0
C294 C 0.52422 0.52796 0.44897 0.0
C295 C 0.51035 0.54717 0.48198 0.0
C296 C 0.53393 0.55534 0.52539 0.0
C297 C 0.58485 0.52632 0.5044 0.0
H298 H 0.52249 0.57043 0.54978 0.0
H299 H 0.61461 0.5189 0.51185 0.0
H300 H 0.71848 0.65495 0.6276 0.0
H301 H 0.58787 0.5258 0.69386 0.0
C302 C 0.54465 0.60506 0.63766 0.0
C303 C 0.67423 0.67165 0.523 0.0
C304 C 0.52419 0.44501 0.64286 0.0
C305 C 0.6942 0.53853 0.57425 0.0
H306 H 0.64616 0.74043 0.54142 0.0
H307 H 0.5776 0.70563 0.6082 0.0
H308 H 0.45111 0.52753 0.68424 0.0
H309 H 0.43765 0.43843 0.68268 0.0
H310 H 0.55786 0.38265 0.62346 0.0
H311 H 0.655 0.43406 0.59152 0.0
H312 H 0.78108 0.61314 0.5197 0.0
H313 H 0.76732 0.68441 0.48785 0.0
H314 H 0.77293 0.66967 0.69611 0.0
H315 H 0.63616 0.54312 0.76354 0.0
H316 H 0.57236 0.50101 0.43615 0.0
H317 H 0.482 0.55661 0.47408 0.0
H318 H 0.39946 0.49895 0.5912 0.0
H319 H 0.01763 0.41238 0.18649 0.0
H320 H 0.46198 0.57987 0.32703 0.0
H321 H 0.52434 0.59752 0.39071 0.0
H322 H 0.46611 0.43967 0.40477 0.0
H323 H 0.40309 0.42197 0.34093 0.0
H324 H 0.38077 0.55153 0.39974 0.0
H325 H 0.39287 0.54381 0.48221 0.0
H326 H 0.32501 0.38448 0.47234 0.0
H327 H 0.31111 0.3924 0.39002 0.0
H328 H 0.29389 0.54276 0.37063 0.0
H329 H 0.23653 0.52808 0.43263 0.0
H330 H 0.14058 0.36853 0.40894 0.0
H331 H 0.19959 0.38319 0.34791 0.0
H332 H 0.26959 0.55502 0.25928 0.0
H333 H 0.18992 0.54836 0.22859 0.0
H334 H 0.10903 0.38628 0.22467 0.0
H335 H 0.19003 0.39394 0.25262 0.0
H336 H 0.34844 0.57986 0.20818 0.0
H337 H 0.30643 0.59213 0.13946 0.0
H338 H 0.24498 0.44076 0.10206 0.0
H339 H 0.28234 0.42676 0.17313 0.0
H340 H 0.47039 0.57113 0.24013 0.0
H341 H 0.53099 0.57223 0.18864 0.0
H342 H 0.41134 0.41749 0.15782 0.0
H343 H 0.35157 0.41592 0.21029 0.0
O344 O 0.393 0.50079 0.55872 0.0
O345 O 0.35714 0.41887 0.55209 0.0
O346 O 0.09318 0.49962 0.20075 0.0
O347 O 0.04985 0.41619 0.19816 0.0
C348 C 0.37682 0.48733 0.30889 0.0
C349 C 0.33745 0.47732 0.33907 0.0
C350 C 0.29094 0.47254 0.32221 0.0
C351 C 0.28431 0.47911 0.27502 0.0
C352 C 0.32363 0.4893 0.24452 0.0
C353 C 0.36914 0.49124 0.26118 0.0
C354 C 0.42796 0.49963 0.32934 0.0
C355 C 0.46478 0.54954 0.34191 0.0
C356 C 0.49986 0.55949 0.37873 0.0
C357 C 0.49911 0.51976 0.40296 0.0
C358 C 0.4673 0.47086 0.3865 0.0
C359 C 0.43174 0.4608 0.34975 0.0
C360 C 0.34525 0.47255 0.38906 0.0
C361 C 0.36825 0.51495 0.41555 0.0
C362 C 0.37516 0.51042 0.46261 0.0
C363 C 0.36043 0.46364 0.48382 0.0
C364 C 0.33709 0.42113 0.45706 0.0
C365 C 0.3292 0.42552 0.41009 0.0
C366 C 0.25115 0.46405 0.35485 0.0
C367 C 0.26029 0.50468 0.37853 0.0
C368 C 0.22769 0.49623 0.41401 0.0
C369 C 0.1845 0.4471 0.4258 0.0
C370 C 0.17368 0.40671 0.40053 0.0
C371 C 0.20714 0.41506 0.36563 0.0
C372 C 0.23564 0.47502 0.25758 0.0
C373 C 0.23474 0.51819 0.25136 0.0
C374 C 0.18907 0.51422 0.23419 0.0
C375 C 0.1429 0.46668 0.2246 0.0
C376 C 0.1438 0.42341 0.23184 0.0
C377 C 0.18996 0.42764 0.24776 0.0
C378 C 0.31784 0.50217 0.196 0.0
C379 C 0.32734 0.54984 0.18443 0.0
C380 C 0.30322 0.5568 0.14536 0.0
C381 C 0.27077 0.5166 0.11683 0.0
C382 C 0.26834 0.47164 0.12468 0.0
C383 C 0.29046 0.46388 0.16478 0.0
C384 C 0.40624 0.49346 0.22909 0.0
C385 C 0.45734 0.5373 0.22265 0.0
C386 C 0.49193 0.53787 0.19331 0.0
C387 C 0.47615 0.49459 0.16989 0.0
C388 C 0.42492 0.45099 0.1761 0.0
C389 C 0.39056 0.45032 0.20563 0.0
C390 C 0.36992 0.45951 0.53357 0.0
C391 C 0.09398 0.46205 0.20707 0.0
H392 H 0.92286 0.35338 0.10157 0.0
H393 H 0.50933 0.91038 0.80157 0.0
H394 H 0.8975 0.32963 0.86014 0.0
H395 H 0.97843 0.40472 0.88655 0.0
H396 H 0.05954 0.33041 0.88342 0.0
H397 H 0.97597 0.25345 0.85833 0.0
H398 H 0.81289 0.26447 0.92945 0.0
H399 H 0.84766 0.30493 0.0024 0.0
H400 H 0.94866 0.25072 0.01635 0.0
H401 H 0.91324 0.21012 0.94352 0.0
H402 H 0.7062 0.17819 0.88284 0.0
H403 H 0.63826 0.13653 0.94096 0.0
H404 H 0.71916 0.07468 0.01012 0.0
H405 H 0.78698 0.11584 0.95148 0.0
H406 H 0.6955 0.15826 0.78869 0.0
H407 H 0.6055 0.08694 0.7708 0.0
H408 H 0.64097 0.98413 0.83686 0.0
H409 H 0.7314 0.05586 0.8536 0.0
H410 H 0.7699 0.20992 0.72768 0.0
H411 H 0.72005 0.16254 0.66016 0.0
H412 H 0.76494 0.05843 0.69354 0.0
H413 H 0.81271 0.10455 0.76231 0.0
H414 H 0.87675 0.30788 0.76336 0.0
H415 H 0.93439 0.36071 0.70003 0.0
H416 H 0.98445 0.26031 0.69384 0.0
H417 H 0.92663 0.20733 0.75753 0.0
O418 O 0.90809 0.33544 0.07372 0.0
O419 O 0.95748 0.30477 0.08023 0.0
O420 O 0.5311 0.99289 0.76859 0.0
O421 O 0.54483 0.93923 0.80793 0.0
C422 C 0.87904 0.23914 0.84881 0.0
C423 C 0.84327 0.21417 0.88498 0.0
C424 C 0.79082 0.17306 0.87611 0.0
C425 C 0.7752 0.15552 0.83152 0.0
C426 C 0.81155 0.17989 0.7958 0.0
C427 C 0.86294 0.22279 0.80396 0.0
C428 C 0.93108 0.28641 0.85744 0.0
C429 C 0.93294 0.32986 0.86427 0.0
C430 C 0.97963 0.37295 0.87903 0.0
C431 C 0.02605 0.37401 0.88651 0.0
C432 C 0.02457 0.33078 0.87799 0.0
C433 C 0.97719 0.28712 0.86336 0.0
C434 C 0.86026 0.23405 0.93141 0.0
C435 C 0.84183 0.26063 0.94872 0.0
C436 C 0.86205 0.28402 0.99023 0.0
C437 C 0.9011 0.28123 0.01514 0.0
C438 C 0.91865 0.25364 0.99804 0.0
C439 C 0.89838 0.23027 0.95655 0.0
C440 C 0.75138 0.14978 0.91276 0.0
C441 C 0.70935 0.15568 0.91049 0.0
C442 C 0.6708 0.13215 0.9436 0.0
C443 C 0.67394 0.1027 0.97963 0.0
C444 C 0.71634 0.09742 0.9825 0.0
C445 C 0.75489 0.12084 0.94921 0.0
C446 C 0.72013 0.1121 0.82185 0.0
C447 C 0.68392 0.12026 0.79883 0.0
C448 C 0.6325 0.07947 0.78877 0.0
C449 C 0.61614 0.02978 0.80219 0.0
C450 C 0.65235 0.02188 0.82594 0.0
C451 C 0.70396 0.06273 0.8356 0.0
C452 C 0.7944 0.16027 0.74974 0.0
C453 C 0.77006 0.17767 0.71973 0.0
C454 C 0.74156 0.15059 0.68153 0.0
C455 C 0.73814 0.10654 0.67264 0.0
C456 C 0.76662 0.09193 0.70042 0.0
C457 C 0.79414 0.11837 0.73921 0.0
C458 C 0.89762 0.25385 0.76514 0.0
C459 C 0.9002 0.29728 0.74843 0.0
C460 C 0.93303 0.32736 0.71241 0.0
C461 C 0.964 0.31464 0.69259 0.0
C462 C 0.96122 0.27099 0.70903 0.0
C463 C 0.92821 0.24076 0.74513 0.0
C464 C 0.92395 0.30767 0.05837 0.0
C465 C 0.56146 0.98635 0.7918 0.0
H466 H 0.60287 0.6956 0.03663 0.0
H467 H 0.65816 0.06821 0.36663 0.0
H468 H 0.60917 0.66476 0.31206 0.0
H469 H 0.61137 0.60907 0.26155 0.0
H470 H 0.76935 0.73014 0.22354 0.0
H471 H 0.76806 0.7851 0.27577 0.0
H472 H 0.58707 0.70963 0.2313 0.0
H473 H 0.57946 0.68948 0.15136 0.0
H474 H 0.73428 0.82652 0.12806 0.0
H475 H 0.74147 0.84591 0.20808 0.0
H476 H 0.56341 0.78896 0.2455 0.0
H477 H 0.53228 0.83194 0.19542 0.0
H478 H 0.69221 0.96549 0.18851 0.0
H479 H 0.72287 0.9221 0.23881 0.0
H480 H 0.57159 0.82749 0.34513 0.0
H481 H 0.55328 0.89019 0.35917 0.0
H482 H 0.71877 0.00935 0.34297 0.0
H483 H 0.73642 0.94619 0.32914 0.0
H484 H 0.59673 0.77551 0.42334 0.0
H485 H 0.58659 0.82187 0.47881 0.0
H486 H 0.74889 0.94763 0.46086 0.0
H487 H 0.75885 0.90058 0.40577 0.0
H488 H 0.59972 0.68944 0.3873 0.0
H489 H 0.59628 0.64446 0.45944 0.0
H490 H 0.76112 0.7583 0.48649 0.0
H491 H 0.76467 0.80339 0.4137 0.0
O492 O 0.60674 0.70354 0.06831 0.0
O493 O 0.68807 0.77235 0.05917 0.0
O494 O 0.57875 0.9803 0.36573 0.0
O495 O 0.66413 0.04245 0.36173 0.0
C496 C 0.67928 0.76713 0.30979 0.0
C497 C 0.66894 0.79228 0.27343 0.0
C498 C 0.66159 0.83004 0.28247 0.0
C499 C 0.66596 0.84419 0.32731 0.0
C500 C 0.67639 0.81953 0.36375 0.0
C501 C 0.68136 0.77971 0.35536 0.0
C502 C 0.68865 0.72893 0.29802 0.0
C503 C 0.64564 0.67825 0.29549 0.0
C504 C 0.64665 0.64671 0.26605 0.0
C505 C 0.69035 0.66583 0.23849 0.0
C506 C 0.73535 0.71479 0.24455 0.0
C507 C 0.73484 0.74587 0.27482 0.0
C508 C 0.66499 0.77897 0.22543 0.0
C509 C 0.61941 0.73499 0.2089 0.0
C510 C 0.61504 0.72378 0.1632 0.0
C511 C 0.65615 0.75658 0.13325 0.0
C512 C 0.70186 0.80054 0.15015 0.0
C513 C 0.70614 0.81166 0.19581 0.0
C514 C 0.64522 0.85263 0.24559 0.0
C515 C 0.59179 0.82702 0.23212 0.0
C516 C 0.57416 0.85159 0.20364 0.0
C517 C 0.60984 0.90215 0.18855 0.0
C518 C 0.66386 0.92673 0.20024 0.0
C519 C 0.68147 0.90201 0.22853 0.0
C520 C 0.65531 0.88243 0.33634 0.0
C521 C 0.60377 0.86717 0.34475 0.0
C522 C 0.59345 0.90303 0.35268 0.0
C523 C 0.6346 0.9548 0.35213 0.0
C524 C 0.68621 0.96983 0.34361 0.0
C525 C 0.69644 0.9339 0.33573 0.0
C526 C 0.6784 0.83484 0.41039 0.0
C527 C 0.63102 0.8117 0.43351 0.0
C528 C 0.62516 0.83857 0.46481 0.0
C529 C 0.66662 0.88886 0.47309 0.0
C530 C 0.7161 0.90926 0.4544 0.0
C531 C 0.7221 0.8821 0.42357 0.0
C532 C 0.68284 0.74875 0.39455 0.0
C533 C 0.6356 0.70368 0.4079 0.0
C534 C 0.63349 0.67835 0.44925 0.0
C535 C 0.67856 0.69752 0.47792 0.0
C536 C 0.72617 0.74228 0.46436 0.0
C537 C 0.72828 0.76783 0.42288 0.0
C538 C 0.65149 0.74479 0.08469 0.0
C539 C 0.62392 0.9931 0.36034 0.0
H540 H 0.80265 0.55531 0.55903 0.0
H541 H 0.16482 0.56143 0.81409 0.0
H542 H 0.868 0.68714 0.81972 0.0
H543 H 0.80202 0.68948 0.77073 0.0
H544 H 0.69482 0.52705 0.79214 0.0
H545 H 0.75943 0.52623 0.84255 0.0
H546 H 0.90226 0.65314 0.73021 0.0
H547 H 0.86463 0.6277 0.65324 0.0
H548 H 0.76011 0.47325 0.70524 0.0
H549 H 0.79831 0.49922 0.78184 0.0
H550 H 1.00069 0.64475 0.74393 0.0
H551 H 0.02936 0.61003 0.69068 0.0
H552 H 0.91241 0.45899 0.74233 0.0
H553 H 0.88559 0.4939 0.79704 0.0
H554 H 0.05418 0.68866 0.82341 0.0
H555 H 0.12959 0.68713 0.80478 0.0
H556 H 0.04844 0.53264 0.85856 0.0
H557 H 0.97388 0.5348 0.87736 0.0
H558 H 0.0392 0.70077 0.9116 0.0
H559 H 0.10382 0.69164 0.95598 0.0
H560 H 0.97833 0.5535 0.01805 0.0
H561 H 0.91332 0.55858 0.97078 0.0
H562 H 0.9031 0.67746 0.94826 0.0
H563 H 0.84033 0.66154 0.00642 0.0
H564 H 0.74039 0.50495 0.97262 0.0
H565 H 0.80368 0.52032 0.91644 0.0
O566 O 0.8131 0.56559 0.59011 0.0
O567 O 0.75766 0.48744 0.61889 0.0
O568 O 0.17732 0.64399 0.79734 0.0
O569 O 0.13659 0.56385 0.82292 0.0
C570 C 0.86372 0.60208 0.84336 0.0
C571 C 0.88204 0.59171 0.80598 0.0
C572 C 0.92793 0.59242 0.81077 0.0
C573 C 0.9588 0.60859 0.85136 0.0
C574 C 0.93976 0.61686 0.89024 0.0
C575 C 0.88925 0.60938 0.88693 0.0
C576 C 0.81851 0.60648 0.83463 0.0
C577 C 0.8289 0.65267 0.81598 0.0
C578 C 0.79154 0.65369 0.78695 0.0
C579 C 0.74345 0.60835 0.77586 0.0
C580 C 0.73092 0.5631 0.79959 0.0
C581 C 0.76792 0.56237 0.8291 0.0
C582 C 0.85263 0.57809 0.7615 0.0
C583 C 0.8704 0.61408 0.72498 0.0
C584 C 0.84909 0.59936 0.68107 0.0
C585 C 0.8099 0.54832 0.67304 0.0
C586 C 0.79046 0.51281 0.71021 0.0
C587 C 0.81189 0.52757 0.75404 0.0
C588 C 0.94145 0.57186 0.77461 0.0
C589 C 0.98119 0.60421 0.74364 0.0
C590 C 0.99738 0.58443 0.71332 0.0
C591 C 0.9729 0.53199 0.71267 0.0
C592 C 0.93154 0.49952 0.74221 0.0
C593 C 0.91625 0.51937 0.77327 0.0
C594 C 0.00907 0.61213 0.85248 0.0
C595 C 0.05374 0.65516 0.83266 0.0
C596 C 0.09632 0.65386 0.82132 0.0
C597 C 0.095 0.60951 0.82989 0.0
C598 C 0.0511 0.56737 0.85172 0.0
C599 C 0.00861 0.56871 0.8631 0.0
C600 C 0.97146 0.62743 0.93376 0.0
C601 C 0.0253 0.6678 0.93444 0.0
C602 C 0.06258 0.66123 0.95777 0.0
C603 C 0.04577 0.61411 0.97959 0.0
C604 C 0.99243 0.58441 0.99283 0.0
C605 C 0.95476 0.58872 0.9676 0.0
C606 C 0.85799 0.60019 0.92772 0.0
C607 C 0.86845 0.6395 0.9543 0.0
C608 C 0.83243 0.6304 0.98724 0.0
C609 C 0.78506 0.58211 0.99349 0.0
C610 C 0.77633 0.54248 0.96851 0.0
C611 C 0.81248 0.55136 0.93631 0.0
C612 C 0.79152 0.53185 0.62584 0.0
C613 C 0.13888 0.60703 0.81572 0.0
H614 H 0.29853 0.80741 0.64622 0.0
H615 H 0.02345 0.44598 0.29454 0.0
H616 H 0.34452 0.90128 0.38364 0.0
H617 H 0.4182 0.96396 0.43216 0.0
H618 H 0.4923 0.88384 0.42811 0.0
H619 H 0.41856 0.82104 0.38027 0.0
H620 H 0.27607 0.82917 0.44847 0.0
H621 H 0.28175 0.83047 0.53173 0.0
H622 H 0.33996 0.73524 0.53735 0.0
H623 H 0.33514 0.7352 0.454 0.0
H624 H 0.17573 0.72095 0.43838 0.0
H625 H 0.12303 0.65338 0.49652 0.0
H626 H 0.1947 0.57732 0.46284 0.0
H627 H 0.2478 0.64502 0.40541 0.0
H628 H 0.13165 0.6871 0.33775 0.0
H629 H 0.05276 0.60226 0.32497 0.0
H630 H 0.15208 0.55218 0.29762 0.0
H631 H 0.23071 0.63759 0.3092 0.0
H632 H 0.18084 0.7332 0.24823 0.0
H633 H 0.15117 0.68499 0.17891 0.0
H634 H 0.29803 0.69621 0.1803 0.0
H635 H 0.32654 0.74248 0.25026 0.0
H636 H 0.28149 0.85232 0.25808 0.0
H637 H 0.33095 0.91512 0.19604 0.0
H638 H 0.46411 0.90602 0.22933 0.0
H639 H 0.41448 0.84272 0.29116 0.0
O640 O 0.29849 0.80798 0.6133 0.0
O641 O 0.32256 0.75444 0.61424 0.0
O642 O 0.00442 0.50954 0.30549 0.0
O643 O 0.0539 0.48024 0.29832 0.0
C644 C 0.32617 0.8115 0.36237 0.0
C645 C 0.2931 0.77432 0.39582 0.0
C646 C 0.24741 0.7281 0.38268 0.0
C647 C 0.23423 0.71861 0.33629 0.0
C648 C 0.26672 0.75563 0.30252 0.0
C649 C 0.31255 0.8028 0.31538 0.0
C650 C 0.37659 0.85704 0.378 0.0
C651 C 0.37781 0.8986 0.3915 0.0
C652 C 0.41958 0.93409 0.41929 0.0
C653 C 0.46051 0.92837 0.43349 0.0
C654 C 0.46123 0.889 0.41709 0.0
C655 C 0.41944 0.85346 0.3896 0.0
C656 C 0.30576 0.78259 0.44527 0.0
C657 C 0.29138 0.80977 0.46772 0.0
C658 C 0.29404 0.8099 0.5153 0.0
C659 C 0.31069 0.78244 0.54122 0.0
C660 C 0.3266 0.75647 0.51844 0.0
C661 C 0.32441 0.75681 0.47086 0.0
C662 C 0.21529 0.68761 0.41771 0.0
C663 C 0.18 0.68971 0.44366 0.0
C664 C 0.15004 0.65134 0.47655 0.0
C665 C 0.155 0.61054 0.48352 0.0
C666 C 0.19038 0.60856 0.45766 0.0
C667 C 0.22043 0.64693 0.42499 0.0
C668 C 0.18674 0.66853 0.32387 0.0
C669 C 0.1362 0.65795 0.32812 0.0
C670 C 0.09127 0.60945 0.32099 0.0
C671 C 0.09618 0.57048 0.31008 0.0
C672 C 0.14698 0.58144 0.30548 0.0
C673 C 0.19191 0.63017 0.31199 0.0
C674 C 0.25578 0.74116 0.25437 0.0
C675 C 0.2071 0.72631 0.23287 0.0
C676 C 0.18996 0.69836 0.19374 0.0
C677 C 0.22205 0.68637 0.1749 0.0
C678 C 0.27259 0.705 0.19428 0.0
C679 C 0.28919 0.73194 0.23389 0.0
C680 C 0.34437 0.84306 0.27962 0.0
C681 C 0.32148 0.86408 0.2523 0.0
C682 C 0.34962 0.89987 0.21695 0.0
C683 C 0.40111 0.91513 0.20808 0.0
C684 C 0.42446 0.89484 0.23576 0.0
C685 C 0.39626 0.85895 0.27115 0.0
C686 C 0.31102 0.78065 0.59176 0.0
C687 C 0.04863 0.51838 0.3044 0.0
H688 H 0.57753 0.32621 0.48694 0.0
H689 H 0.47427 0.96161 0.87346 0.0
H690 H 0.58143 0.38607 0.76381 0.0
H691 H 0.59157 0.45378 0.71232 0.0
H692 H 0.43058 0.35477 0.6628 0.0
H693 H 0.41976 0.28715 0.71641 0.0
H694 H 0.59336 0.31218 0.68587 0.0
H695 H 0.60275 0.32476 0.60314 0.0
H696 H 0.4328 0.24149 0.5853 0.0
H697 H 0.42396 0.22692 0.66806 0.0
H698 H 0.60045 0.23473 0.73049 0.0
H699 H 0.61798 0.19028 0.67843 0.0
H700 H 0.45081 0.09238 0.64594 0.0
H701 H 0.43372 0.13722 0.69823 0.0
H702 H 0.59079 0.20889 0.82844 0.0
H703 H 0.59671 0.13867 0.85713 0.0
H704 H 0.42864 0.03411 0.83148 0.0
H705 H 0.42345 0.10478 0.8027 0.0
H706 H 0.57838 0.26287 0.89269 0.0
H707 H 0.57138 0.21438 0.96326 0.0
H708 H 0.40279 0.11442 0.93968 0.0
H709 H 0.40987 0.16416 0.86971 0.0
H710 H 0.59532 0.34073 0.85296 0.0
H711 H 0.61593 0.39811 0.91313 0.0
H712 H 0.45703 0.36095 0.90134 0.0
H713 H 0.43588 0.30176 0.84141 0.0
O714 O 0.57285 0.3201 0.51952 0.0
O715 O 0.48522 0.27573 0.51207 0.0
O716 O 0.5585 0.04595 0.87812 0.0
O717 O 0.47283 0.99016 0.86331 0.0
C718 C 0.4997 0.28726 0.76309 0.0
C719 C 0.50266 0.25684 0.73261 0.0
C720 C 0.50599 0.21654 0.74954 0.0
C721 C 0.50338 0.20446 0.79653 0.0
C722 C 0.5003 0.23427 0.82728 0.0
C723 C 0.50168 0.27766 0.81086 0.0
C724 C 0.49998 0.33154 0.74383 0.0
C725 C 0.54737 0.37965 0.74387 0.0
C726 C 0.55306 0.41838 0.71425 0.0
C727 C 0.51177 0.40947 0.68343 0.0
C728 C 0.46276 0.36273 0.68638 0.0
C729 C 0.45673 0.32414 0.71685 0.0
C730 C 0.50805 0.26973 0.68289 0.0
C731 C 0.55827 0.2971 0.66399 0.0
C732 C 0.56347 0.30382 0.61674 0.0
C733 C 0.51853 0.2845 0.5876 0.0
C734 C 0.46823 0.25728 0.60678 0.0
C735 C 0.46306 0.24943 0.65402 0.0
C736 C 0.51585 0.18897 0.71811 0.0
C737 C 0.5677 0.20374 0.712 0.0
C738 C 0.57765 0.17868 0.682 0.0
C739 C 0.53578 0.1381 0.65793 0.0
C740 C 0.48379 0.12342 0.66418 0.0
C741 C 0.47394 0.14886 0.69393 0.0
C742 C 0.50666 0.16173 0.81379 0.0
C743 C 0.55534 0.17076 0.82916 0.0
C744 C 0.55857 0.13064 0.84555 0.0
C745 C 0.51305 0.08081 0.84672 0.0
C746 C 0.46438 0.07202 0.83107 0.0
C747 C 0.46126 0.11221 0.81461 0.0
C748 C 0.49451 0.21782 0.87638 0.0
C749 C 0.53954 0.23254 0.90411 0.0
C750 C 0.53552 0.20435 0.94423 0.0
C751 C 0.48655 0.16042 0.95672 0.0
C752 C 0.44099 0.14803 0.93076 0.0
C753 C 0.44492 0.17679 0.89113 0.0
C754 C 0.51379 0.31619 0.8435 0.0
C755 C 0.56481 0.34481 0.86329 0.0
C756 C 0.57661 0.3777 0.89748 0.0
C757 C 0.53791 0.3835 0.91211 0.0
C758 C 0.48749 0.35703 0.89059 0.0
C759 C 0.47538 0.32327 0.85656 0.0
C760 C 0.5243 0.29301 0.53746 0.0
C761 C 0.51633 0.03808 0.86382 0.0
loop_
_geom_bond_atom_site_label_1
_geom_bond_atom_site_label_2
_geom_bond_distance
_geom_bond_site_symmetry_2
_ccdc_geom_bond_type
C0 C1 1.443 . S
C0 N4 1.376 1_556 S
C0 C38 1.389 . S
C1 C0 1.443 . S
C1 C2 1.340 1_556 S
C1 H41 0.951 . S
C2 C1 1.340 1_554 S
C2 C3 1.439 . S
C2 H42 0.950 1_455 S
C3 C2 1.439 . S
C3 N4 1.374 . S
C3 C37 1.395 . S
N4 C0 1.376 1_554 S
N4 C3 1.374 . S
N4 Co5 2.008 . S
Co5 N4 2.008 . S
Co5 N6 1.997 . S
Co5 N11 2.007 1_554 S
Co5 N16 1.992 1_554 S
Co5 N21 2.285 . S
Co5 N27 2.280 1_554 S
N6 Co5 1.997 . S
N6 C7 1.376 . S
N6 C10 1.383 . S
C7 N6 1.376 . S
C7 C8 1.446 . S
C7 C37 1.391 . S
C8 C7 1.446 . S
C8 C9 1.339 . S
C8 H43 0.949 . S
C9 C8 1.339 . S
C9 C10 1.439 . S
C9 H44 0.950 . S
C10 N6 1.383 . S
C10 C9 1.439 . S
C10 C39 1.392 . S
N11 Co5 2.007 1_556 S
N11 C12 1.365 1_556 S
N11 C15 1.385 . S
C12 N11 1.365 1_554 S
C12 C13 1.443 . S
C12 C39 1.389 . S
C13 C12 1.443 . S
C13 C14 1.340 1_554 S
C13 H45 0.951 . S
C14 C13 1.340 1_556 S
C14 C15 1.439 . S
C14 H46 0.950 . S
C15 N11 1.385 . S
C15 C14 1.439 . S
C15 C40 1.395 . S
N16 Co5 1.992 1_556 S
N16 C17 1.376 . S
N16 C20 1.383 . S
C17 N16 1.376 . S
C17 C18 1.446 . S
C17 C40 1.391 . S
C18 C17 1.446 . S
C18 C19 1.339 . S
C18 H47 0.949 . S
C19 C18 1.339 . S
C19 C20 1.439 . S
C19 H48 0.950 . S
C20 N16 1.383 . S
C20 C19 1.439 . S
C20 C38 1.392 . S
N21 Co5 2.285 . S
N21 C24 1.332 . S
N21 C26 1.332 . S
C22 C23 1.386 . S
C22 C25 1.388 . S
C23 C22 1.386 . S
C23 C24 1.382 . S
C23 H49 0.950 . S
C24 N21 1.332 . S
C24 C23 1.382 . S
C24 H35 0.952 . S
C25 C22 1.388 . S
C25 C26 1.382 . S
C25 H50 0.950 . S
C26 N21 1.332 . S
C26 C25 1.382 . S
C26 H36 0.948 . S
N27 Co5 2.280 1_556 S
N27 C31 1.332 . S
N27 C32 1.332 . S
C28 C29 1.388 . S
C28 C32 1.382 . S
C28 H51 0.950 . S
C29 C28 1.388 . S
C29 C30 1.386 . S
C30 C29 1.386 . S
C30 C31 1.382 . S
C30 H52 0.950 . S
C31 N27 1.332 . S
C31 C30 1.382 . S
C31 H33 0.952 . S
C32 N27 1.332 . S
C32 C28 1.382 . S
C32 H34 0.948 . S
H33 C31 0.952 . S
H34 C32 0.948 . S
H35 C24 0.952 . S
H36 C26 0.948 . S
C37 C3 1.395 . S
C37 C7 1.391 . S
C38 C0 1.389 . S
C38 C20 1.392 . S
C39 C10 1.392 . S
C39 C12 1.389 . S
C40 C15 1.395 . S
C40 C17 1.391 . S
H41 C1 0.951 . S
H42 C2 0.950 1_655 S
H43 C8 0.949 . S
H44 C9 0.950 . S
H45 C13 0.951 . S
H46 C14 0.950 . S
H47 C18 0.949 . S
H48 C19 0.950 . S
H49 C23 0.950 . S
H50 C25 0.950 . S
H51 C28 0.950 . S
H52 C30 0.950 . S
C53 C54 1.443 . S
C53 N57 1.376 1_545 S
C53 C91 1.389 . S
C54 C53 1.443 . S
C54 C55 1.340 1_545 S
C54 H94 0.951 . S
C55 C54 1.340 1_565 S
C55 C56 1.439 . S
C55 H95 0.950 . S
C56 C55 1.439 . S
C56 N57 1.374 . S
C56 C90 1.395 . S
N57 C53 1.376 1_565 S
N57 C56 1.374 . S
N57 Co58 2.008 1_565 S
Co58 N57 2.008 1_545 S
Co58 N59 1.995 1_545 S
Co58 N64 2.008 . S
Co58 N69 1.995 . S
Co58 N74 2.282 1_545 S
Co58 N80 2.282 . S
N59 Co58 1.995 1_565 S
N59 C60 1.376 . S
N59 C63 1.383 . S
C60 N59 1.376 . S
C60 C61 1.446 . S
C60 C90 1.391 . S
C61 C60 1.446 . S
C61 C62 1.339 . S
C61 H96 0.949 . S
C62 C61 1.339 . S
C62 C63 1.439 . S
C62 H97 0.950 . S
C63 N59 1.383 . S
C63 C62 1.439 . S
C63 C92 1.392 . S
N64 Co58 2.008 . S
N64 C65 1.376 1_545 S
N64 C68 1.374 . S
C65 N64 1.376 1_565 S
C65 C66 1.443 1_565 S
C65 C92 1.389 . S
C66 C65 1.443 1_545 S
C66 C67 1.340 . S
C66 H98 0.948 1_545 S
C67 C66 1.340 . S
C67 C68 1.439 . S
C67 H99 0.950 . S
C68 N64 1.374 . S
C68 C67 1.439 . S
C68 C93 1.395 . S
N69 Co58 1.995 . S
N69 C70 1.376 . S
N69 C73 1.383 . S
C70 N69 1.376 . S
C70 C71 1.446 . S
C70 C93 1.391 . S
C71 C70 1.446 . S
C71 C72 1.339 . S
C71 H100 0.949 . S
C72 C71 1.339 . S
C72 C73 1.439 . S
C72 H101 0.950 . S
C73 N69 1.383 . S
C73 C72 1.439 . S
C73 C91 1.392 . S
N74 Co58 2.282 1_565 S
N74 C77 1.332 . S
N74 C79 1.332 . S
C75 C76 1.386 . S
C75 C78 1.388 . S
C76 C75 1.386 . S
C76 C77 1.382 . S
C76 H102 0.950 . S
C77 N74 1.332 . S
C77 C76 1.382 . S
C77 H88 0.952 1_565 S
C78 C75 1.388 . S
C78 C79 1.382 . S
C78 H103 0.950 . S
C79 N74 1.332 . S
C79 C78 1.382 . S
C79 H89 0.948 . S
N80 Co58 2.282 . S
N80 C84 1.332 . S
N80 C85 1.332 . S
C81 C82 1.388 . S
C81 C85 1.382 . S
C81 H104 0.950 . S
C82 C81 1.388 . S
C82 C83 1.386 . S
C83 C82 1.386 . S
C83 C84 1.382 . S
C83 H105 0.950 . S
C84 N80 1.332 . S
C84 C83 1.382 . S
C84 H86 0.952 1_545 S
C85 N80 1.332 . S
C85 C81 1.382 . S
C85 H87 0.948 . S
H86 C84 0.952 1_565 S
H87 C85 0.948 . S
H88 C77 0.952 1_545 S
H89 C79 0.948 . S
C90 C56 1.395 . S
C90 C60 1.391 . S
C91 C53 1.389 . S
C91 C73 1.392 . S
C92 C63 1.392 . S
C92 C65 1.389 . S
C93 C68 1.395 . S
C93 C70 1.391 . S
H94 C54 0.951 . S
H95 C55 0.950 . S
H96 C61 0.949 . S
H97 C62 0.950 . S
H98 C66 0.948 1_565 S
H99 C67 0.950 . S
H100 C71 0.949 . S
H101 C72 0.950 . S
H102 C76 0.950 . S
H103 C78 0.950 . S
H104 C81 0.950 . S
H105 C83 0.950 . S
C106 C107 1.443 1_554 S
C106 N110 1.376 . S
C106 C144 1.389 . S
C107 C106 1.443 1_556 S
C107 C108 1.340 . S
C107 H147 0.951 . S
C108 C107 1.340 . S
C108 C109 1.439 1_556 S
C108 H148 0.950 . S
C109 C108 1.439 1_554 S
C109 N110 1.374 . S
C109 C143 1.395 . S
N110 C106 1.376 . S
N110 C109 1.374 . S
N110 Co111 2.008 . S
Co111 N110 2.008 . S
Co111 N112 1.995 . S
Co111 N117 2.008 . S
Co111 N122 1.995 . S
Co111 N127 2.282 . S
Co111 N133 2.282 . S
N112 Co111 1.995 . S
N112 C113 1.376 . S
N112 C116 1.383 . S
C113 N112 1.376 . S
C113 C114 1.446 . S
C113 C143 1.391 . S
C114 C113 1.446 . S
C114 C115 1.339 . S
C114 H149 0.949 . S
C115 C114 1.339 . S
C115 C116 1.439 . S
C115 H150 0.950 . S
C116 N112 1.383 . S
C116 C115 1.439 . S
C116 C145 1.392 . S
N117 Co111 2.008 . S
N117 C118 1.376 . S
N117 C121 1.374 . S
C118 N117 1.376 . S
C118 C119 1.443 . S
C118 C145 1.389 . S
C119 C118 1.443 . S
C119 C120 1.340 . S
C119 H151 0.951 . S
C120 C119 1.340 . S
C120 C121 1.439 . S
C120 H152 0.950 . S
C121 N117 1.374 . S
C121 C120 1.439 . S
C121 C146 1.395 . S
N122 Co111 1.995 . S
N122 C123 1.376 . S
N122 C126 1.383 . S
C123 N122 1.376 . S
C123 C124 1.446 . S
C123 C146 1.391 . S
C124 C123 1.446 . S
C124 C125 1.339 . S
C124 H153 0.949 . S
C125 C124 1.339 . S
C125 C126 1.439 . S
C125 H154 0.950 . S
C126 N122 1.383 . S
C126 C125 1.439 . S
C126 C144 1.392 . S
N127 Co111 2.282 . S
N127 C130 1.332 . S
N127 C132 1.332 . S
C128 C129 1.386 . S
C128 C131 1.388 . S
C129 C128 1.386 . S
C129 C130 1.382 . S
C129 H155 0.950 . S
C130 N127 1.332 . S
C130 C129 1.382 . S
C130 H141 0.952 . S
C131 C128 1.388 . S
C131 C132 1.382 . S
C131 H156 0.950 . S
C132 N127 1.332 . S
C132 C131 1.382 . S
C132 H142 0.948 . S
N133 Co111 2.282 . S
N133 C137 1.332 . S
N133 C138 1.332 . S
C134 C135 1.388 1_554 S
C134 C138 1.382 . S
C134 H157 0.950 . S
C135 C134 1.388 1_556 S
C135 C136 1.386 . S
C136 C135 1.386 . S
C136 C137 1.382 1_556 S
C136 H158 0.950 . S
C137 N133 1.332 . S
C137 C136 1.382 1_554 S
C137 H139 0.952 . S
C138 N133 1.332 . S
C138 C134 1.382 . S
C138 H140 0.948 . S
H139 C137 0.952 . S
H140 C138 0.948 . S
H141 C130 0.952 . S
H142 C132 0.948 . S
C143 C109 1.395 . S
C143 C113 1.391 . S
C144 C106 1.389 . S
C144 C126 1.392 . S
C145 C116 1.392 . S
C145 C118 1.389 . S
C146 C121 1.395 . S
C146 C123 1.391 . S
H147 C107 0.951 . S
H148 C108 0.950 . S
H149 C114 0.949 . S
H150 C115 0.950 . S
H151 C119 0.951 . S
H152 C120 0.950 . S
H153 C124 0.949 . S
H154 C125 0.950 . S
H155 C129 0.950 . S
H156 C131 0.950 . S
H157 C134 0.950 . S
H158 C136 0.950 . S
C159 C160 1.443 . S
C159 N163 1.376 . S
C159 C197 1.389 . S
C160 C159 1.443 . S
C160 C161 1.340 . S
C160 H200 0.951 . S
C161 C160 1.340 . S
C161 C162 1.439 . S
C161 H201 0.950 . S
C162 C161 1.439 . S
C162 N163 1.374 . S
C162 C196 1.395 . S
N163 C159 1.376 . S
N163 C162 1.374 . S
N163 Co164 2.008 1_655 S
Co164 N163 2.008 1_455 S
Co164 N165 1.995 1_455 S
Co164 N170 2.008 . S
Co164 N175 1.995 . S
Co164 N180 2.282 . S
Co164 N186 2.282 1_455 S
N165 Co164 1.995 1_655 S
N165 C166 1.376 . S
N165 C169 1.383 1_655 S
C166 N165 1.376 . S
C166 C167 1.446 . S
C166 C196 1.391 . S
C167 C166 1.446 . S
C167 C168 1.339 . S
C167 H202 0.949 . S
C168 C167 1.339 . S
C168 C169 1.439 1_655 S
C168 H203 0.950 1_655 S
C169 N165 1.383 1_455 S
C169 C168 1.439 1_455 S
C169 C198 1.392 . S
N170 Co164 2.008 . S
N170 C171 1.376 . S
N170 C174 1.374 . S
C171 N170 1.376 . S
C171 C172 1.443 . S
C171 C198 1.389 . S
C172 C171 1.443 . S
C172 C173 1.340 . S
C172 H204 0.951 . S
C173 C172 1.340 . S
C173 C174 1.439 . S
C173 H205 0.950 . S
C174 N170 1.374 . S
C174 C173 1.439 . S
C174 C199 1.395 . S
N175 Co164 1.995 . S
N175 C176 1.376 . S
N175 C179 1.383 1_455 S
C176 N175 1.376 . S
C176 C177 1.446 . S
C176 C199 1.391 . S
C177 C176 1.446 . S
C177 C178 1.339 . S
C177 H206 0.949 . S
C178 C177 1.339 . S
C178 C179 1.439 1_455 S
C178 H207 0.950 . S
C179 N175 1.383 1_655 S
C179 C178 1.439 1_655 S
C179 C197 1.392 . S
N180 Co164 2.282 . S
N180 C183 1.332 . S
N180 C185 1.332 . S
C181 C182 1.386 . S
C181 C184 1.388 . S
C182 C181 1.386 . S
C182 C183 1.382 . S
C182 H208 0.950 . S
C183 N180 1.332 . S
C183 C182 1.382 . S
C183 H194 0.952 . S
C184 C181 1.388 . S
C184 C185 1.382 . S
C184 H209 0.950 . S
C185 N180 1.332 . S
C185 C184 1.382 . S
C185 H195 0.948 1_455 S
N186 Co164 2.282 1_655 S
N186 C190 1.332 . S
N186 C191 1.332 . S
C187 C188 1.388 . S
C187 C191 1.382 . S
C187 H210 0.950 . S
C188 C187 1.388 . S
C188 C189 1.386 . S
C189 C188 1.386 . S
C189 C190 1.382 . S
C189 H211 0.950 . S
C190 N186 1.332 . S
C190 C189 1.382 . S
C190 H192 0.952 . S
C191 N186 1.332 . S
C191 C187 1.382 . S
C191 H193 0.948 1_655 S
H192 C190 0.952 . S
H193 C191 0.948 1_455 S
H194 C183 0.952 . S
H195 C185 0.948 1_655 S
C196 C162 1.395 . S
C196 C166 1.391 . S
C197 C159 1.389 . S
C197 C179 1.392 . S
C198 C169 1.392 . S
C198 C171 1.389 . S
C199 C174 1.395 . S
C199 C176 1.391 . S
H200 C160 0.951 . S
H201 C161 0.950 . S
H202 C167 0.949 . S
H203 C168 0.950 1_455 S
H204 C172 0.951 . S
H205 C173 0.950 . S
H206 C177 0.949 . S
H207 C178 0.950 . S
H208 C182 0.950 . S
H209 C184 0.950 . S
H210 C187 0.950 . S
H211 C189 0.950 . S
C212 C213 1.443 . S
C212 N216 1.376 . S
C212 C250 1.395 . S
C213 C212 1.443 . S
C213 C214 1.340 . S
C213 H253 0.951 . S
C214 C213 1.340 . S
C214 C215 1.439 . S
C214 H254 0.950 . S
C215 C214 1.439 . S
C215 N216 1.374 . S
C215 C249 1.395 . S
N216 C212 1.376 . S
N216 C215 1.374 . S
N216 Co217 2.008 . S
Co217 N216 2.008 . S
Co217 N218 1.995 . S
Co217 N223 2.008 . S
Co217 N228 1.995 1_545 S
Co217 N233 2.282 . S
Co217 N239 2.282 . S
N218 Co217 1.995 . S
N218 C219 1.376 . S
N218 C222 1.383 . S
C219 N218 1.376 . S
C219 C220 1.446 . S
C219 C249 1.391 . S
C220 C219 1.446 . S
C220 C221 1.339 . S
C220 H255 0.949 . S
C221 C220 1.339 . S
C221 C222 1.439 . S
C221 H256 0.950 . S
C222 N218 1.383 . S
C222 C221 1.439 . S
C222 C251 1.392 . S
N223 Co217 2.008 . S
N223 C224 1.376 . S
N223 C227 1.362 1_545 S
C224 N223 1.376 . S
C224 C225 1.443 1_554 S
C224 C251 1.389 . S
C225 C224 1.443 1_556 S
C225 C226 1.340 . S
C225 H257 0.951 . S
C226 C225 1.340 . S
C226 C227 1.443 1_546 S
C226 H258 0.950 1_545 S
C227 N223 1.362 1_565 S
C227 C226 1.443 1_564 S
C227 C252 1.402 . S
N228 Co217 1.995 1_565 S
N228 C229 1.376 . S
N228 C232 1.383 . S
C229 N228 1.376 . S
C229 C230 1.446 . S
C229 C252 1.391 . S
C230 C229 1.446 . S
C230 C231 1.339 . S
C230 H259 0.949 . S
C231 C230 1.339 . S
C231 C232 1.439 . S
C231 H260 0.950 . S
C232 N228 1.383 . S
C232 C231 1.439 . S
C232 C250 1.387 1_565 S
N233 Co217 2.282 . S
N233 C236 1.332 . S
N233 C238 1.332 . S
C234 C235 1.386 . S
C234 C237 1.388 1_556 S
C235 C234 1.386 . S
C235 C236 1.382 1_556 S
C235 H261 0.950 . S
C236 N233 1.332 . S
C236 C235 1.382 1_554 S
C236 H247 0.952 . S
C237 C234 1.388 1_554 S
C237 C238 1.382 . S
C237 H262 0.950 . S
C238 N233 1.332 . S
C238 C237 1.382 . S
C238 H248 0.948 . S
N239 Co217 2.282 . S
N239 C243 1.332 . S
N239 C244 1.332 1_545 S
C240 C241 1.388 . S
C240 C244 1.382 . S
C240 H263 0.950 . S
C241 C240 1.388 . S
C241 C242 1.386 1_565 S
C242 C241 1.386 1_545 S
C242 C243 1.382 . S
C242 H264 0.950 . S
C243 N239 1.332 . S
C243 C242 1.382 . S
C243 H245 0.952 . S
C244 N239 1.332 1_565 S
C244 C240 1.382 . S
C244 H246 0.948 . S
H245 C243 0.952 . S
H246 C244 0.948 . S
H247 C236 0.952 . S
H248 C238 0.948 . S
C249 C215 1.395 . S
C249 C219 1.391 . S
C250 C212 1.395 . S
C250 C232 1.387 1_545 S
C251 C222 1.392 . S
C251 C224 1.389 . S
C252 C227 1.402 . S
C252 C229 1.391 . S
H253 C213 0.951 . S
H254 C214 0.950 . S
H255 C220 0.949 . S
H256 C221 0.950 . S
H257 C225 0.951 . S
H258 C226 0.950 1_565 S
H259 C230 0.949 . S
H260 C231 0.950 . S
H261 C235 0.950 . S
H262 C237 0.950 . S
H263 C240 0.950 . S
H264 C242 0.950 . S
C265 C266 1.443 . S
C265 N269 1.376 . S
C265 C303 1.389 . S
C266 C265 1.443 . S
C266 C267 1.340 . S
C266 H306 0.951 . S
C267 C266 1.340 . S
C267 C268 1.439 . S
C267 H307 0.950 . S
C268 C267 1.439 . S
C268 N269 1.374 . S
C268 C302 1.395 . S
N269 C265 1.376 . S
N269 C268 1.374 . S
N269 Co270 2.008 . S
Co270 N269 2.008 . S
Co270 N271 1.995 . S
Co270 N276 2.008 . S
Co270 N281 1.995 . S
Co270 N286 2.282 . S
Co270 N292 2.282 . S
N271 Co270 1.995 . S
N271 C272 1.376 . S
N271 C275 1.383 . S
C272 N271 1.376 . S
C272 C273 1.446 . S
C272 C302 1.391 . S
C273 C272 1.446 . S
C273 C274 1.339 . S
C273 H308 0.949 . S
C274 C273 1.339 . S
C274 C275 1.439 . S
C274 H309 0.950 . S
C275 N271 1.383 . S
C275 C274 1.439 . S
C275 C304 1.392 . S
N276 Co270 2.008 . S
N276 C277 1.376 . S
N276 C280 1.374 . S
C277 N276 1.376 . S
C277 C278 1.443 . S
C277 C304 1.389 . S
C278 C277 1.443 . S
C278 C279 1.340 . S
C278 H310 0.951 . S
C279 C278 1.340 . S
C279 C280 1.439 . S
C279 H311 0.950 . S
C280 N276 1.374 . S
C280 C279 1.439 . S
C280 C305 1.395 . S
N281 Co270 1.995 . S
N281 C282 1.376 . S
N281 C285 1.383 . S
C282 N281 1.376 . S
C282 C283 1.446 . S
C282 C305 1.391 . S
C283 C282 1.446 . S
C283 C284 1.339 . S
C283 H312 0.949 . S
C284 C283 1.339 . S
C284 C285 1.439 . S
C284 H313 0.950 . S
C285 N281 1.383 . S
C285 C284 1.439 . S
C285 C303 1.392 . S
N286 Co270 2.282 . S
N286 C289 1.332 . S
N286 C291 1.332 . S
C287 C288 1.386 . S
C287 C290 1.388 . S
C288 C287 1.386 . S
C288 C289 1.382 . S
C288 H314 0.950 . S
C289 N286 1.332 . S
C289 C288 1.382 . S
C289 H300 0.952 . S
C290 C287 1.388 . S
C290 C291 1.382 . S
C290 H315 0.950 . S
C291 N286 1.332 . S
C291 C290 1.382 . S
C291 H301 0.948 . S
N292 Co270 2.282 . S
N292 C296 1.332 . S
N292 C297 1.332 . S
C293 C294 1.388 . S
C293 C297 1.382 . S
C293 H316 0.950 . S
C294 C293 1.388 . S
C294 C295 1.386 . S
C295 C294 1.386 . S
C295 C296 1.382 . S
C295 H317 0.950 . S
C296 N292 1.332 . S
C296 C295 1.382 . S
C296 H298 0.952 . S
C297 N292 1.332 . S
C297 C293 1.382 . S
C297 H299 0.948 . S
H298 C296 0.952 . S
H299 C297 0.948 . S
H300 C289 0.952 . S
H301 C291 0.948 . S
C302 C268 1.395 . S
C302 C272 1.391 . S
C303 C265 1.389 . S
C303 C285 1.392 . S
C304 C275 1.392 . S
C304 C277 1.389 . S
C305 C280 1.395 . S
C305 C282 1.391 . S
H306 C266 0.951 . S
H307 C267 0.950 . S
H308 C273 0.949 . S
H309 C274 0.950 . S
H310 C278 0.951 . S
H311 C279 0.950 . S
H312 C283 0.949 . S
H313 C284 0.950 . S
H314 C288 0.950 . S
H315 C290 0.950 . S
H316 C293 0.950 . S
H317 C295 0.950 . S
H318 O344 0.856 . S
H319 O347 0.854 . S
H320 C355 0.930 . S
H321 C356 0.930 . S
H322 C358 0.930 . S
H323 C359 0.930 . S
H324 C361 0.931 . S
H325 C362 0.930 . S
H326 C364 0.930 . S
H327 C365 0.929 . S
H328 C367 0.930 . S
H329 C368 0.931 . S
H330 C370 0.930 . S
H331 C371 0.929 . S
H332 C373 0.931 . S
H333 C374 0.930 . S
H334 C376 0.930 . S
H335 C377 0.932 . S
H336 C379 0.930 . S
H337 C380 0.929 . S
H338 C382 0.931 . S
H339 C383 0.930 . S
H340 C385 0.929 . S
H341 C386 0.931 . S
H342 C388 0.930 . S
H343 C389 0.929 . S
O344 H318 0.856 . S
O344 C390 1.300 . S
O345 C390 1.209 . S
O346 C391 1.199 . S
O347 H319 0.854 . S
O347 C391 1.297 1_655 S
C348 C349 1.404 . S
C348 C353 1.397 . S
C348 C354 1.492 . S
C349 C348 1.404 . S
C349 C350 1.396 . S
C349 C360 1.492 . S
C350 C349 1.396 . S
C350 C351 1.397 . S
C350 C366 1.509 . S
C351 C350 1.397 . S
C351 C352 1.412 . S
C351 C372 1.485 . S
C352 C351 1.412 . S
C352 C353 1.388 . S
C352 C378 1.490 . S
C353 C348 1.397 . S
C353 C352 1.388 . S
C353 C384 1.519 . S
C354 C348 1.492 . S
C354 C355 1.363 . S
C354 C359 1.390 . S
C355 H320 0.930 . S
C355 C354 1.363 . S
C355 C356 1.372 . S
C356 H321 0.930 . S
C356 C355 1.372 . S
C356 C357 1.383 . S
C357 C356 1.383 . S
C357 C358 1.395 . S
C358 H322 0.930 . S
C358 C357 1.395 . S
C358 C359 1.362 . S
C359 H323 0.930 . S
C359 C354 1.390 . S
C359 C358 1.362 . S
C360 C349 1.492 . S
C360 C361 1.377 . S
C360 C365 1.397 . S
C361 H324 0.931 . S
C361 C360 1.377 . S
C361 C362 1.376 . S
C362 H325 0.930 . S
C362 C361 1.376 . S
C362 C363 1.376 . S
C363 C362 1.376 . S
C363 C364 1.378 . S
C363 C390 1.486 . S
C364 H326 0.930 . S
C364 C363 1.378 . S
C364 C365 1.376 . S
C365 H327 0.929 . S
C365 C360 1.397 . S
C365 C364 1.376 . S
C366 C350 1.509 . S
C366 C367 1.391 . S
C366 C371 1.386 . S
C367 H328 0.930 . S
C367 C366 1.391 . S
C367 C368 1.375 . S
C368 H329 0.931 . S
C368 C367 1.375 . S
C368 C369 1.375 . S
C369 C368 1.375 . S
C369 C370 1.361 . S
C370 H330 0.930 . S
C370 C369 1.361 . S
C370 C371 1.399 . S
C371 H331 0.929 . S
C371 C366 1.386 . S
C371 C370 1.399 . S
C372 C351 1.485 . S
C372 C373 1.394 . S
C372 C377 1.360 . S
C373 H332 0.931 . S
C373 C372 1.394 . S
C373 C374 1.372 . S
C374 H333 0.930 . S
C374 C373 1.372 . S
C374 C375 1.397 . S
C375 C374 1.397 . S
C375 C376 1.390 . S
C375 C391 1.476 . S
C376 H334 0.930 . S
C376 C375 1.390 . S
C376 C377 1.366 . S
C377 H335 0.932 . S
C377 C372 1.360 . S
C377 C376 1.366 . S
C378 C352 1.490 . S
C378 C379 1.380 . S
C378 C383 1.386 . S
C379 H336 0.930 . S
C379 C378 1.380 . S
C379 C380 1.381 . S
C380 H337 0.929 . S
C380 C379 1.381 . S
C380 C381 1.371 . S
C381 C380 1.371 . S
C381 C382 1.380 . S
C382 H338 0.931 . S
C382 C381 1.380 . S
C382 C383 1.387 . S
C383 H339 0.930 . S
C383 C378 1.386 . S
C383 C382 1.387 . S
C384 C353 1.519 . S
C384 C385 1.377 . S
C384 C389 1.361 . S
C385 H340 0.929 . S
C385 C384 1.377 . S
C385 C386 1.386 . S
C386 H341 0.931 . S
C386 C385 1.386 . S
C386 C387 1.363 . S
C387 C386 1.363 . S
C387 C388 1.385 . S
C388 H342 0.930 . S
C388 C387 1.385 . S
C388 C389 1.396 . S
C389 H343 0.929 . S
C389 C384 1.361 . S
C389 C388 1.396 . S
C390 O344 1.300 . S
C390 O345 1.209 . S
C390 C363 1.486 . S
C391 O346 1.199 . S
C391 O347 1.297 1_455 S
C391 C375 1.476 . S
H392 O418 0.856 . S
H393 O421 0.854 . S
H394 C429 0.930 . S
H395 C430 0.930 . S
H396 C432 0.930 . S
H397 C433 0.930 . S
H398 C435 0.931 . S
H399 C436 0.930 1_554 S
H400 C438 0.930 . S
H401 C439 0.929 . S
H402 C441 0.930 . S
H403 C442 0.931 . S
H404 C444 0.930 1_554 S
H405 C445 0.929 . S
H406 C447 0.931 . S
H407 C448 0.930 . S
H408 C450 0.930 1_565 S
H409 C451 0.932 . S
H410 C453 0.930 . S
H411 C454 0.929 . S
H412 C456 0.931 . S
H413 C457 0.930 . S
H414 C459 0.929 . S
H415 C460 0.931 . S
H416 C462 0.930 . S
H417 C463 0.929 . S
O418 H392 0.856 . S
O418 C464 1.300 . S
O419 C464 1.209 . S
O420 C465 1.199 . S
O421 H393 0.854 . S
O421 C465 1.297 . S
C422 C423 1.404 . S
C422 C427 1.397 . S
C422 C428 1.492 . S
C423 C422 1.404 . S
C423 C424 1.396 . S
C423 C434 1.492 . S
C424 C423 1.396 . S
C424 C425 1.397 . S
C424 C440 1.509 . S
C425 C424 1.397 . S
C425 C426 1.412 . S
C425 C446 1.485 . S
C426 C425 1.412 . S
C426 C427 1.388 . S
C426 C452 1.490 . S
C427 C422 1.397 . S
C427 C426 1.388 . S
C427 C458 1.519 . S
C428 C422 1.492 . S
C428 C429 1.363 . S
C428 C433 1.390 . S
C429 H394 0.930 . S
C429 C428 1.363 . S
C429 C430 1.372 . S
C430 H395 0.930 . S
C430 C429 1.372 . S
C430 C431 1.383 1_655 S
C431 C430 1.383 1_455 S
C431 C432 1.395 . S
C432 H396 0.930 . S
C432 C431 1.395 . S
C432 C433 1.362 1_455 S
C433 H397 0.930 . S
C433 C428 1.390 . S
C433 C432 1.362 1_655 S
C434 C423 1.492 . S
C434 C435 1.377 . S
C434 C439 1.397 . S
C435 H398 0.931 . S
C435 C434 1.377 . S
C435 C436 1.376 . S
C436 H399 0.930 1_556 S
C436 C435 1.376 . S
C436 C437 1.376 1_556 S
C437 C436 1.376 1_554 S
C437 C438 1.378 1_554 S
C437 C464 1.486 . S
C438 H400 0.930 . S
C438 C437 1.378 1_556 S
C438 C439 1.376 . S
C439 H401 0.929 . S
C439 C434 1.397 . S
C439 C438 1.376 . S
C440 C424 1.509 . S
C440 C441 1.391 . S
C440 C445 1.386 . S
C441 H402 0.930 . S
C441 C440 1.391 . S
C441 C442 1.375 . S
C442 H403 0.931 . S
C442 C441 1.375 . S
C442 C443 1.375 . S
C443 C442 1.375 . S
C443 C444 1.361 . S
C444 H404 0.930 1_556 S
C444 C443 1.361 . S
C444 C445 1.399 . S
C445 H405 0.929 . S
C445 C440 1.386 . S
C445 C444 1.399 . S
C446 C425 1.485 . S
C446 C447 1.394 . S
C446 C451 1.360 . S
C447 H406 0.931 . S
C447 C446 1.394 . S
C447 C448 1.372 . S
C448 H407 0.930 . S
C448 C447 1.372 . S
C448 C449 1.397 1_545 S
C449 C448 1.397 1_565 S
C449 C450 1.390 1_565 S
C449 C465 1.476 . S
C450 H408 0.930 1_545 S
C450 C449 1.390 1_545 S
C450 C451 1.366 . S
C451 H409 0.932 . S
C451 C446 1.360 . S
C451 C450 1.366 . S
C452 C426 1.490 . S
C452 C453 1.380 . S
C452 C457 1.386 . S
C453 H410 0.930 . S
C453 C452 1.380 . S
C453 C454 1.381 . S
C454 H411 0.929 . S
C454 C453 1.381 . S
C454 C455 1.371 . S
C455 C454 1.371 . S
C455 C456 1.380 . S
C456 H412 0.931 . S
C456 C455 1.380 . S
C456 C457 1.387 . S
C457 H413 0.930 . S
C457 C452 1.386 . S
C457 C456 1.387 . S
C458 C427 1.519 . S
C458 C459 1.377 . S
C458 C463 1.361 . S
C459 H414 0.929 . S
C459 C458 1.377 . S
C459 C460 1.386 . S
C460 H415 0.931 . S
C460 C459 1.386 . S
C460 C461 1.363 . S
C461 C460 1.363 . S
C461 C462 1.385 . S
C462 H416 0.930 . S
C462 C461 1.385 . S
C462 C463 1.396 . S
C463 H417 0.929 . S
C463 C458 1.361 . S
C463 C462 1.396 . S
C464 O418 1.300 . S
C464 O419 1.209 . S
C464 C437 1.486 . S
C465 O420 1.199 . S
C465 O421 1.297 . S
C465 C449 1.476 . S
H466 O492 0.856 . S
H467 O495 0.854 . S
H468 C503 0.930 . S
H469 C504 0.930 . S
H470 C506 0.930 . S
H471 C507 0.930 . S
H472 C509 0.931 . S
H473 C510 0.930 . S
H474 C512 0.930 . S
H475 C513 0.929 . S
H476 C515 0.930 . S
H477 C516 0.931 . S
H478 C518 0.930 1_545 S
H479 C519 0.929 . S
H480 C521 0.931 . S
H481 C522 0.930 . S
H482 C524 0.930 . S
H483 C525 0.932 . S
H484 C527 0.930 . S
H485 C528 0.929 . S
H486 C530 0.931 . S
H487 C531 0.930 . S
H488 C533 0.929 . S
H489 C534 0.931 . S
H490 C536 0.930 . S
H491 C537 0.929 . S
O492 H466 0.856 . S
O492 C538 1.300 . S
O493 C538 1.209 . S
O494 C539 1.199 . S
O495 H467 0.854 . S
O495 C539 1.297 . S
C496 C497 1.404 . S
C496 C501 1.397 . S
C496 C502 1.492 . S
C497 C496 1.404 . S
C497 C498 1.396 . S
C497 C508 1.492 . S
C498 C497 1.396 . S
C498 C499 1.397 . S
C498 C514 1.509 . S
C499 C498 1.397 . S
C499 C500 1.412 . S
C499 C520 1.485 . S
C500 C499 1.412 . S
C500 C501 1.388 . S
C500 C526 1.490 . S
C501 C496 1.397 . S
C501 C500 1.388 . S
C501 C532 1.519 . S
C502 C496 1.492 . S
C502 C503 1.363 . S
C502 C507 1.390 . S
C503 H468 0.930 . S
C503 C502 1.363 . S
C503 C504 1.372 . S
C504 H469 0.930 . S
C504 C503 1.372 . S
C504 C505 1.383 . S
C505 C504 1.383 . S
C505 C506 1.395 . S
C506 H470 0.930 . S
C506 C505 1.395 . S
C506 C507 1.362 . S
C507 H471 0.930 . S
C507 C502 1.390 . S
C507 C506 1.362 . S
C508 C497 1.492 . S
C508 C509 1.377 . S
C508 C513 1.397 . S
C509 H472 0.931 . S
C509 C508 1.377 . S
C509 C510 1.376 . S
C510 H473 0.930 . S
C510 C509 1.376 . S
C510 C511 1.376 . S
C511 C510 1.376 . S
C511 C512 1.378 . S
C511 C538 1.486 . S
C512 H474 0.930 . S
C512 C511 1.378 . S
C512 C513 1.376 . S
C513 H475 0.929 . S
C513 C508 1.397 . S
C513 C512 1.376 . S
C514 C498 1.509 . S
C514 C515 1.391 . S
C514 C519 1.386 . S
C515 H476 0.930 . S
C515 C514 1.391 . S
C515 C516 1.375 . S
C516 H477 0.931 . S
C516 C515 1.375 . S
C516 C517 1.375 . S
C517 C516 1.375 . S
C517 C518 1.361 . S
C518 H478 0.930 1_565 S
C518 C517 1.361 . S
C518 C519 1.399 . S
C519 H479 0.929 . S
C519 C514 1.386 . S
C519 C518 1.399 . S
C520 C499 1.485 . S
C520 C521 1.394 . S
C520 C525 1.360 . S
C521 H480 0.931 . S
C521 C520 1.394 . S
C521 C522 1.372 . S
C522 H481 0.930 . S
C522 C521 1.372 . S
C522 C523 1.397 1_565 S
C523 C522 1.397 1_545 S
C523 C524 1.390 . S
C523 C539 1.476 . S
C524 H482 0.930 . S
C524 C523 1.390 . S
C524 C525 1.366 1_545 S
C525 H483 0.932 . S
C525 C520 1.360 . S
C525 C524 1.366 1_565 S
C526 C500 1.490 . S
C526 C527 1.380 . S
C526 C531 1.386 . S
C527 H484 0.930 . S
C527 C526 1.380 . S
C527 C528 1.381 . S
C528 H485 0.929 . S
C528 C527 1.381 . S
C528 C529 1.371 . S
C529 C528 1.371 . S
C529 C530 1.380 . S
C530 H486 0.931 . S
C530 C529 1.380 . S
C530 C531 1.387 . S
C531 H487 0.930 . S
C531 C526 1.386 . S
C531 C530 1.387 . S
C532 C501 1.519 . S
C532 C533 1.377 . S
C532 C537 1.361 . S
C533 H488 0.929 . S
C533 C532 1.377 . S
C533 C534 1.386 . S
C534 H489 0.931 . S
C534 C533 1.386 . S
C534 C535 1.363 . S
C535 C534 1.363 . S
C535 C536 1.385 . S
C536 H490 0.930 . S
C536 C535 1.385 . S
C536 C537 1.396 . S
C537 H491 0.929 . S
C537 C532 1.361 . S
C537 C536 1.396 . S
C538 O492 1.300 . S
C538 O493 1.209 . S
C538 C511 1.486 . S
C539 O494 1.199 . S
C539 O495 1.297 . S
C539 C523 1.476 . S
H540 O566 0.856 . S
H541 O569 0.854 . S
H542 C577 0.930 . S
H543 C578 0.930 . S
H544 C580 0.930 . S
H545 C581 0.930 . S
H546 C583 0.931 . S
H547 C584 0.930 . S
H548 C586 0.930 . S
H549 C587 0.929 . S
H550 C589 0.930 . S
H551 C590 0.931 . S
H552 C592 0.930 . S
H553 C593 0.929 . S
H554 C595 0.931 . S
H555 C596 0.930 . S
H556 C598 0.930 . S
H557 C599 0.932 1_655 S
H558 C601 0.930 . S
H559 C602 0.929 . S
H560 C604 0.938 . S
H561 C605 0.930 . S
H562 C607 0.929 . S
H563 C608 0.931 . S
H564 C610 0.930 . S
H565 C611 0.929 . S
O566 H540 0.856 . S
O566 C612 1.300 . S
O567 C612 1.209 . S
O568 C613 1.199 . S
O569 H541 0.854 . S
O569 C613 1.297 . S
C570 C571 1.404 . S
C570 C575 1.397 . S
C570 C576 1.492 . S
C571 C570 1.404 . S
C571 C572 1.396 . S
C571 C582 1.492 . S
C572 C571 1.396 . S
C572 C573 1.397 . S
C572 C588 1.509 . S
C573 C572 1.397 . S
C573 C574 1.412 . S
C573 C594 1.485 1_655 S
C574 C573 1.412 . S
C574 C575 1.388 . S
C574 C600 1.490 . S
C575 C570 1.397 . S
C575 C574 1.388 . S
C575 C606 1.519 . S
C576 C570 1.492 . S
C576 C577 1.363 . S
C576 C581 1.390 . S
C577 H542 0.930 . S
C577 C576 1.363 . S
C577 C578 1.372 . S
C578 H543 0.930 . S
C578 C577 1.372 . S
C578 C579 1.383 . S
C579 C578 1.383 . S
C579 C580 1.395 . S
C580 H544 0.930 . S
C580 C579 1.395 . S
C580 C581 1.362 . S
C581 H545 0.930 . S
C581 C576 1.390 . S
C581 C580 1.362 . S
C582 C571 1.492 . S
C582 C583 1.377 . S
C582 C587 1.397 . S
C583 H546 0.931 . S
C583 C582 1.377 . S
C583 C584 1.376 . S
C584 H547 0.930 . S
C584 C583 1.376 . S
C584 C585 1.376 . S
C585 C584 1.376 . S
C585 C586 1.378 . S
C585 C612 1.486 . S
C586 H548 0.930 . S
C586 C585 1.378 . S
C586 C587 1.376 . S
C587 H549 0.929 . S
C587 C582 1.397 . S
C587 C586 1.376 . S
C588 C572 1.509 . S
C588 C589 1.390 1_655 S
C588 C593 1.386 . S
C589 H550 0.930 . S
C589 C588 1.390 1_455 S
C589 C590 1.376 . S
C590 H551 0.931 . S
C590 C589 1.376 . S
C590 C591 1.375 1_455 S
C591 C590 1.375 1_655 S
C591 C592 1.361 . S
C592 H552 0.930 . S
C592 C591 1.361 . S
C592 C593 1.399 . S
C593 H553 0.929 . S
C593 C588 1.386 . S
C593 C592 1.399 . S
C594 C573 1.485 1_455 S
C594 C595 1.394 . S
C594 C599 1.360 . S
C595 H554 0.931 . S
C595 C594 1.394 . S
C595 C596 1.372 . S
C596 H555 0.930 . S
C596 C595 1.372 . S
C596 C597 1.397 . S
C597 C596 1.397 . S
C597 C598 1.390 . S
C597 C613 1.476 . S
C598 H556 0.930 . S
C598 C597 1.390 . S
C598 C599 1.366 . S
C599 H557 0.932 1_455 S
C599 C594 1.360 . S
C599 C598 1.366 . S
C600 C574 1.490 . S
C600 C601 1.380 . S
C600 C605 1.386 . S
C601 H558 0.930 . S
C601 C600 1.380 . S
C601 C602 1.381 1_655 S
C602 H559 0.929 . S
C602 C601 1.381 1_455 S
C602 C603 1.371 . S
C603 C602 1.371 . S
C603 C604 1.380 1_455 S
C604 H560 0.938 . S
C604 C603 1.380 1_655 S
C604 C605 1.387 . S
C605 H561 0.930 . S
C605 C600 1.386 . S
C605 C604 1.387 . S
C606 C575 1.519 . S
C606 C607 1.377 . S
C606 C611 1.361 . S
C607 H562 0.929 . S
C607 C606 1.377 . S
C607 C608 1.386 . S
C608 H563 0.931 . S
C608 C607 1.386 . S
C608 C609 1.363 . S
C609 C608 1.363 . S
C609 C610 1.385 . S
C610 H564 0.930 . S
C610 C609 1.385 . S
C610 C611 1.396 . S
C611 H565 0.929 . S
C611 C606 1.361 . S
C611 C610 1.396 . S
C612 O566 1.300 . S
C612 O567 1.209 . S
C612 C585 1.486 . S
C613 O568 1.199 . S
C613 O569 1.297 . S
C613 C597 1.476 . S
H614 O640 0.856 . S
H615 O643 0.854 . S
H616 C651 0.930 . S
H617 C652 0.930 . S
H618 C654 0.930 . S
H619 C655 0.930 . S
H620 C657 0.931 . S
H621 C658 0.930 . S
H622 C660 0.930 . S
H623 C661 0.929 . S
H624 C663 0.930 . S
H625 C664 0.931 . S
H626 C666 0.930 . S
H627 C667 0.929 . S
H628 C669 0.931 . S
H629 C670 0.930 . S
H630 C672 0.930 . S
H631 C673 0.932 . S
H632 C675 0.930 . S
H633 C676 0.929 . S
H634 C678 0.931 . S
H635 C679 0.930 . S
H636 C681 0.929 . S
H637 C682 0.931 . S
H638 C684 0.930 . S
H639 C685 0.929 . S
O640 H614 0.856 . S
O640 C686 1.300 . S
O641 C686 1.209 . S
O642 C687 1.199 . S
O643 H615 0.854 . S
O643 C687 1.297 . S
C644 C645 1.404 . S
C644 C649 1.397 . S
C644 C650 1.492 . S
C645 C644 1.404 . S
C645 C646 1.396 . S
C645 C656 1.492 . S
C646 C645 1.396 . S
C646 C647 1.397 . S
C646 C662 1.509 . S
C647 C646 1.397 . S
C647 C648 1.412 . S
C647 C668 1.485 . S
C648 C647 1.412 . S
C648 C649 1.388 . S
C648 C674 1.490 . S
C649 C644 1.397 . S
C649 C648 1.388 . S
C649 C680 1.519 . S
C650 C644 1.492 . S
C650 C651 1.363 . S
C650 C655 1.390 . S
C651 H616 0.930 . S
C651 C650 1.363 . S
C651 C652 1.372 . S
C652 H617 0.930 . S
C652 C651 1.372 . S
C652 C653 1.383 . S
C653 C652 1.383 . S
C653 C654 1.395 . S
C654 H618 0.930 . S
C654 C653 1.395 . S
C654 C655 1.362 . S
C655 H619 0.930 . S
C655 C650 1.390 . S
C655 C654 1.362 . S
C656 C645 1.492 . S
C656 C657 1.377 . S
C656 C661 1.397 . S
C657 H620 0.931 . S
C657 C656 1.377 . S
C657 C658 1.376 . S
C658 H621 0.930 . S
C658 C657 1.376 . S
C658 C659 1.376 . S
C659 C658 1.376 . S
C659 C660 1.378 . S
C659 C686 1.486 . S
C660 H622 0.930 . S
C660 C659 1.378 . S
C660 C661 1.376 . S
C661 H623 0.929 . S
C661 C656 1.397 . S
C661 C660 1.376 . S
C662 C646 1.509 . S
C662 C663 1.391 . S
C662 C667 1.386 . S
C663 H624 0.930 . S
C663 C662 1.391 . S
C663 C664 1.375 . S
C664 H625 0.931 . S
C664 C663 1.375 . S
C664 C665 1.375 . S
C665 C664 1.375 . S
C665 C666 1.361 . S
C666 H626 0.930 . S
C666 C665 1.361 . S
C666 C667 1.399 . S
C667 H627 0.929 . S
C667 C662 1.386 . S
C667 C666 1.399 . S
C668 C647 1.485 . S
C668 C669 1.394 . S
C668 C673 1.360 . S
C669 H628 0.931 . S
C669 C668 1.394 . S
C669 C670 1.372 . S
C670 H629 0.930 . S
C670 C669 1.372 . S
C670 C671 1.397 . S
C671 C670 1.397 . S
C671 C672 1.390 . S
C671 C687 1.476 . S
C672 H630 0.930 . S
C672 C671 1.390 . S
C672 C673 1.366 . S
C673 H631 0.932 . S
C673 C668 1.360 . S
C673 C672 1.366 . S
C674 C648 1.490 . S
C674 C675 1.380 . S
C674 C679 1.386 . S
C675 H632 0.930 . S
C675 C674 1.380 . S
C675 C676 1.381 . S
C676 H633 0.929 . S
C676 C675 1.381 . S
C676 C677 1.371 . S
C677 C676 1.371 . S
C677 C678 1.380 . S
C678 H634 0.931 . S
C678 C677 1.380 . S
C678 C679 1.387 . S
C679 H635 0.930 . S
C679 C674 1.386 . S
C679 C678 1.387 . S
C680 C649 1.519 . S
C680 C681 1.377 . S
C680 C685 1.361 . S
C681 H636 0.929 . S
C681 C680 1.377 . S
C681 C682 1.386 . S
C682 H637 0.931 . S
C682 C681 1.386 . S
C682 C683 1.363 . S
C683 C682 1.363 . S
C683 C684 1.385 . S
C684 H638 0.930 . S
C684 C683 1.385 . S
C684 C685 1.396 . S
C685 H639 0.929 . S
C685 C680 1.361 . S
C685 C684 1.396 . S
C686 O640 1.300 . S
C686 O641 1.209 . S
C686 C659 1.486 . S
C687 O642 1.199 . S
C687 O643 1.297 . S
C687 C671 1.476 . S
H688 O714 0.856 . S
H689 O717 0.854 . S
H690 C725 0.930 . S
H691 C726 0.930 . S
H692 C728 0.930 . S
H693 C729 0.930 . S
H694 C731 0.931 . S
H695 C732 0.930 . S
H696 C734 0.930 . S
H697 C735 0.929 . S
H698 C737 0.930 . S
H699 C738 0.931 . S
H700 C740 0.930 . S
H701 C741 0.929 . S
H702 C743 0.931 . S
H703 C744 0.930 . S
H704 C746 0.930 1_565 S
H705 C747 0.932 . S
H706 C749 0.930 . S
H707 C750 0.929 . S
H708 C752 0.931 . S
H709 C753 0.930 . S
H710 C755 0.929 . S
H711 C756 0.931 . S
H712 C758 0.930 . S
H713 C759 0.929 . S
O714 H688 0.856 . S
O714 C760 1.300 . S
O715 C760 1.209 . S
O716 C761 1.199 . S
O717 H689 0.854 . S
O717 C761 1.297 . S
C718 C719 1.404 . S
C718 C723 1.397 . S
C718 C724 1.492 . S
C719 C718 1.404 . S
C719 C720 1.396 . S
C719 C730 1.492 . S
C720 C719 1.396 . S
C720 C721 1.397 . S
C720 C736 1.509 . S
C721 C720 1.397 . S
C721 C722 1.412 . S
C721 C742 1.485 . S
C722 C721 1.412 . S
C722 C723 1.388 . S
C722 C748 1.490 . S
C723 C718 1.397 . S
C723 C722 1.388 . S
C723 C754 1.519 . S
C724 C718 1.492 . S
C724 C725 1.363 . S
C724 C729 1.390 . S
C725 H690 0.930 . S
C725 C724 1.363 . S
C725 C726 1.372 . S
C726 H691 0.930 . S
C726 C725 1.372 . S
C726 C727 1.383 . S
C727 C726 1.383 . S
C727 C728 1.395 . S
C728 H692 0.930 . S
C728 C727 1.395 . S
C728 C729 1.362 . S
C729 H693 0.930 . S
C729 C724 1.390 . S
C729 C728 1.362 . S
C730 C719 1.492 . S
C730 C731 1.377 . S
C730 C735 1.397 . S
C731 H694 0.931 . S
C731 C730 1.377 . S
C731 C732 1.376 . S
C732 H695 0.930 . S
C732 C731 1.376 . S
C732 C733 1.376 . S
C733 C732 1.376 . S
C733 C734 1.378 . S
C733 C760 1.486 . S
C734 H696 0.930 . S
C734 C733 1.378 . S
C734 C735 1.376 . S
C735 H697 0.929 . S
C735 C730 1.397 . S
C735 C734 1.376 . S
C736 C720 1.509 . S
C736 C737 1.391 . S
C736 C741 1.386 . S
C737 H698 0.930 . S
C737 C736 1.391 . S
C737 C738 1.375 . S
C738 H699 0.931 . S
C738 C737 1.375 . S
C738 C739 1.375 . S
C739 C738 1.375 . S
C739 C740 1.361 . S
C740 H700 0.930 . S
C740 C739 1.361 . S
C740 C741 1.399 . S
C741 H701 0.929 . S
C741 C736 1.386 . S
C741 C740 1.399 . S
C742 C721 1.485 . S
C742 C743 1.394 . S
C742 C747 1.360 . S
C743 H702 0.931 . S
C743 C742 1.394 . S
C743 C744 1.372 . S
C744 H703 0.930 . S
C744 C743 1.372 . S
C744 C745 1.397 . S
C745 C744 1.397 . S
C745 C746 1.390 . S
C745 C761 1.476 1_545 S
C746 H704 0.930 1_545 S
C746 C745 1.390 . S
C746 C747 1.366 . S
C747 H705 0.932 . S
C747 C742 1.360 . S
C747 C746 1.366 . S
C748 C722 1.490 . S
C748 C749 1.380 . S
C748 C753 1.386 . S
C749 H706 0.930 . S
C749 C748 1.380 . S
C749 C750 1.381 . S
C750 H707 0.929 . S
C750 C749 1.381 . S
C750 C751 1.371 . S
C751 C750 1.371 . S
C751 C752 1.380 . S
C752 H708 0.931 . S
C752 C751 1.380 . S
C752 C753 1.387 . S
C753 H709 0.930 . S
C753 C748 1.386 . S
C753 C752 1.387 . S
C754 C723 1.519 . S
C754 C755 1.377 . S
C754 C759 1.361 . S
C755 H710 0.929 . S
C755 C754 1.377 . S
C755 C756 1.386 . S
C756 H711 0.931 . S
C756 C755 1.386 . S
C756 C757 1.363 . S
C757 C756 1.363 . S
C757 C758 1.385 . S
C758 H712 0.930 . S
C758 C757 1.385 . S
C758 C759 1.396 . S
C759 H713 0.929 . S
C759 C754 1.361 . S
C759 C758 1.396 . S
C760 O714 1.300 . S
C760 O715 1.209 . S
C760 C733 1.486 . S
C761 O716 1.199 . S
C761 O717 1.297 . S
C761 C745 1.476 1_565 S
C39 C381 3.410 . S
C91 C455 1.580 . S
C505 C128 2.038 . S
C591 C188 1.989 . S
C683 C250 2.225 1_565 S
C727 C304 2.209 . S
C75 C529 2.215 . S
C144 C609 3.272 1_554 S
C665 C198 1.706 . S
C751 C234 1.294 . S
C294 C357 3.439 . S
C431 C29 2.010 . S
C603 C38 4.234 . S
C92 C653 3.377 . S
C757 C135 3.354 . S
C181 C369 1.355 . S
C251 C443 3.318 1_554 S
C303 C535 3.514 . S
C82 C739 3.097 . S
C387 C145 2.768 . S
C197 C461 3.408 . S
C241 C517 3.390 . S
C287 C579 2.127 . S
C22 C677 2.997 . S
