# Generated by pormake.
# Topology zzz, (3,6)-cn, num edge types: 1
# Building blocks:
#     Node 0, Type 0, BuildingBlock: BETDAH_clean_linker_0, # of connection points: 3
#     Node 1, Type 0, BuildingBlock: BETDAH_clean_linker_0, # of connection points: 3
#     Node 2, Type 0, BuildingBlock: BETDAH_clean_linker_0, # of connection points: 3
#     Node 3, Type 0, BuildingBlock: BETDAH_clean_linker_0, # of connection points: 3
#     Node 4, Type 0, BuildingBlock: BETDAH_clean_linker_0, # of connection points: 3
#     Node 5, Type 0, BuildingBlock: BETDAH_clean_linker_0, # of connection points: 3
#     Node 6, Type 0, BuildingBlock: BETDAH_clean_linker_0, # of connection points: 3
#     Node 7, Type 0, BuildingBlock: BETDAH_clean_linker_0, # of connection points: 3
#     Node 8, Type 1, BuildingBlock: INOVEN_clean_sbu_0, # of connection points: 6
#     Node 9, Type 1, BuildingBlock: INOVEN_clean_sbu_0, # of connection points: 6
#     Node 10, Type 1, BuildingBlock: INOVEN_clean_sbu_0, # of connection points: 6
#     Node 11, Type 1, BuildingBlock: INOVEN_clean_sbu_0, # of connection points: 6
#     Edge 12, Type (0, 1), BuildingBlock: UVAHIK_clean_linker_0, # of connection points: 2
#     Edge 13, Type (0, 1), BuildingBlock: UVAHIK_clean_linker_0, # of connection points: 2
#     Edge 14, Type (0, 1), BuildingBlock: UVAHIK_clean_linker_0, # of connection points: 2
#     Edge 15, Type (0, 1), BuildingBlock: UVAHIK_clean_linker_0, # of connection points: 2
#     Edge 16, Type (0, 1), BuildingBlock: UVAHIK_clean_linker_0, # of connection points: 2
#     Edge 17, Type (0, 1), BuildingBlock: UVAHIK_clean_linker_0, # of connection points: 2
#     Edge 18, Type (0, 1), BuildingBlock: UVAHIK_clean_linker_0, # of connection points: 2
#     Edge 19, Type (0, 1), BuildingBlock: UVAHIK_clean_linker_0, # of connection points: 2
#     Edge 20, Type (0, 1), BuildingBlock: UVAHIK_clean_linker_0, # of connection points: 2
#     Edge 21, Type (0, 1), BuildingBlock: UVAHIK_clean_linker_0, # of connection points: 2
#     Edge 22, Type (0, 1), BuildingBlock: UVAHIK_clean_linker_0, # of connection points: 2
#     Edge 23, Type (0, 1), BuildingBlock: UVAHIK_clean_linker_0, # of connection points: 2
#     Edge 24, Type (0, 1), BuildingBlock: UVAHIK_clean_linker_0, # of connection points: 2
#     Edge 25, Type (0, 1), BuildingBlock: UVAHIK_clean_linker_0, # of connection points: 2
#     Edge 26, Type (0, 1), BuildingBlock: UVAHIK_clean_linker_0, # of connection points: 2
#     Edge 27, Type (0, 1), BuildingBlock: UVAHIK_clean_linker_0, # of connection points: 2
#     Edge 28, Type (0, 1), BuildingBlock: UVAHIK_clean_linker_0, # of connection points: 2
#     Edge 29, Type (0, 1), BuildingBlock: UVAHIK_clean_linker_0, # of connection points: 2
#     Edge 30, Type (0, 1), BuildingBlock: UVAHIK_clean_linker_0, # of connection points: 2
#     Edge 31, Type (0, 1), BuildingBlock: UVAHIK_clean_linker_0, # of connection points: 2
#     Edge 32, Type (0, 1), BuildingBlock: UVAHIK_clean_linker_0, # of connection points: 2
#     Edge 33, Type (0, 1), BuildingBlock: UVAHIK_clean_linker_0, # of connection points: 2
#     Edge 34, Type (0, 1), BuildingBlock: UVAHIK_clean_linker_0, # of connection points: 2
#     Edge 35, Type (0, 1), BuildingBlock: UVAHIK_clean_linker_0, # of connection points: 2
# Relax obj value: 0.220
# Max RMSD: 0.171
# Mean RMSD: 0.158
data_MOF--net-zzz--node1-INOVEN_clean_sbu_0--node2-BETDAH_clean_linker_0--edge1-UVAHIK_clean_linker_0
_symmetry_space_group_name_H-M    P1
_symmetry_Int_Tables_number       1
_symmetry_cell_setting            triclinic
loop_
_symmetry_equiv_pos_as_xyz
'x, y, z'
_cell_length_a     67.711541
_cell_length_b     67.672805
_cell_length_c     17.292515
_cell_angle_alpha  89.974695
_cell_angle_beta   90.023277
_cell_angle_gamma 89.968966
loop_
_atom_site_label
_atom_site_type_symbol
_atom_site_fract_x
_atom_site_fract_y
_atom_site_fract_z
_atom_type_partial_charge
H0 H 0.79777 0.51663 0.24789 0.0
H1 H 0.7359 0.52258 0.20255 0.0
H2 H 0.75923 0.53754 0.42783 0.0
C3 C 0.78308 0.52037 0.26821 0.0
C4 C 0.78057 0.52742 0.34367 0.0
C5 C 0.76703 0.51853 0.21772 0.0
C6 C 0.74812 0.52381 0.24267 0.0
C7 C 0.7451 0.53047 0.31907 0.0
C8 C 0.76141 0.5321 0.36954 0.0
N9 N 0.72598 0.53593 0.34586 0.0
C10 C 0.70931 0.53603 0.29846 0.0
H11 H 0.04417 0.79085 0.28888 0.0
H12 H 0.02907 0.73365 0.20146 0.0
H13 H 1.00358 0.75427 0.41571 0.0
C14 C 0.0366 0.77686 0.29668 0.0
C15 C 0.02399 0.7743 0.36009 0.0
C16 C 0.03832 0.76234 0.23951 0.0
C17 C 0.02782 0.74463 0.24671 0.0
C18 C 0.01553 0.74141 0.31135 0.0
C19 C 0.01344 0.75647 0.36712 0.0
N20 N 1.00481 0.72348 0.32082 0.0
C21 C 1.00614 0.70753 0.27008 0.0
H22 H 0.73546 0.98029 0.29289 0.0
H23 H 0.79319 0.99457 0.20949 0.0
H24 H 0.77415 0.01576 0.43274 0.0
C25 C 0.74988 0.98679 0.30303 0.0
C26 C 0.75309 0.9978 0.37035 0.0
C27 C 0.76423 0.98574 0.24496 0.0
C28 C 0.78247 0.99506 0.25565 0.0
C29 C 0.78644 1.00542 0.3246 0.0
C30 C 0.77149 1.00712 0.38102 0.0
N31 N 0.80501 0.01474 0.33764 0.0
C32 C 0.82104 0.0134 0.28722 0.0
H33 H 0.49058 0.74162 0.26206 0.0
H34 H 0.50523 0.79949 0.18065 0.0
H35 H 0.53017 0.77798 0.39484 0.0
C36 C 0.49802 0.75562 0.27153 0.0
C37 C 0.51026 0.758 0.33616 0.0
C38 C 0.49631 0.77047 0.21568 0.0
C39 C 0.50651 0.78827 0.22498 0.0
C40 C 0.51855 0.79125 0.29053 0.0
C41 C 0.52058 0.77592 0.3453 0.0
N42 N 0.52905 0.80924 0.30197 0.0
C43 C 0.52789 0.82533 0.25176 0.0
H44 H 0.23746 0.5345 0.11723 0.0
H45 H 0.29702 0.5233 0.18689 0.0
H46 H 0.27702 0.50486 0.96082 0.0
C47 C 0.25205 0.52888 0.10335 0.0
C48 C 0.25537 0.51977 0.03187 0.0
C49 C 0.26701 0.5301 0.1588 0.0
C50 C 0.28575 0.52251 0.14274 0.0
C51 C 0.28963 0.51359 0.07064 0.0
C52 C 0.27423 0.51197 0.01587 0.0
N53 N 0.30869 0.50604 0.05208 0.0
C54 C 0.32512 0.50783 0.10036 0.0
H55 H 0.01471 0.23022 0.11721 0.0
H56 H 0.02141 0.29099 0.18168 0.0
H57 H 0.03197 0.27281 0.94559 0.0
C58 C 0.01822 0.24533 0.10127 0.0
C59 C 0.02316 0.24971 0.02463 0.0
C60 C 0.01777 0.26011 0.15779 0.0
C61 C 0.022 0.27967 0.13749 0.0
C62 C 0.02729 0.28439 0.06072 0.0
C63 C 0.02799 0.26927 0.00468 0.0
N64 N 0.03192 0.30409 0.03834 0.0
C65 C 0.03166 0.32007 0.08914 0.0
H66 H 0.29576 1.00422 0.11453 0.0
H67 H 0.23386 1.00061 0.16274 0.0
H68 H 0.25424 0.02973 0.95484 0.0
C69 C 0.28064 1.00752 0.09795 0.0
C70 C 0.27695 0.01767 0.02901 0.0
C71 C 0.26519 1.00135 0.1457 0.0
C72 C 0.24565 1.00549 0.12512 0.0
C73 C 0.24155 0.01603 0.05649 0.0
C74 C 0.25729 0.02171 0.00776 0.0
N75 N 0.22188 0.02137 0.03595 0.0
C76 C 0.20579 0.01943 0.08574 0.0
H77 H 0.52664 0.29873 0.12143 0.0
H78 H 0.51108 0.23896 0.17388 0.0
H79 H 0.50286 0.26157 0.94232 0.0
C80 C 0.52146 0.2844 0.10187 0.0
C81 C 0.51536 0.28207 0.02494 0.0
C82 C 0.51989 0.26896 0.1554 0.0
C83 C 0.51233 0.25073 0.13173 0.0
C84 C 0.50639 0.24782 0.0544 0.0
C85 C 0.50768 0.26366 0.00151 0.0
N86 N 0.49899 0.22923 0.02888 0.0
C87 C 0.49795 0.21268 0.07683 0.0
Gd88 Gd 0.0243 1.00667 0.77122 0.0
Gd89 Gd 1.00354 0.01795 0.6143 0.0
C90 C 0.013 0.97283 0.64271 0.0
C91 C 0.02932 0.99057 0.90371 0.0
C92 C 0.03859 0.9714 0.92147 0.0
C93 C 0.05639 0.96583 0.88553 0.0
C94 C 0.02799 0.95732 0.96399 0.0
C95 C 0.05191 0.93201 0.92895 0.0
C96 C 0.03456 0.93777 0.96754 0.0
C97 C 0.06305 0.94632 0.88975 0.0
C98 C 0.05129 1.00722 0.65418 0.0
C99 C 0.01865 0.05275 0.73531 0.0
C100 C 0.99242 0.03614 0.49131 0.0
C101 C 0.98487 0.05643 0.48517 0.0
C102 C 0.97561 0.06526 0.54915 0.0
C103 C 0.98885 0.06779 0.41941 0.0
C104 C 0.97536 0.09696 0.4833 0.0
C105 C 0.98411 0.0879 0.41837 0.0
C106 C 0.97085 0.08532 0.54815 0.0
C107 C 0.97962 1.00964 0.73522 0.0
O108 O 0.01521 0.97758 0.71664 0.0
O109 O 1.01108 0.98642 0.58806 0.0
O110 O 0.04101 1.00459 0.87772 0.0
O111 O 0.01266 0.98919 0.86525 0.0
O112 O 0.0558 1.0037 0.72577 0.0
O113 O 0.03305 1.01039 0.65112 0.0
O114 O 0.01148 0.04767 0.66665 0.0
O115 O 0.0235 0.03952 0.78856 0.0
O116 O 0.98103 0.02368 0.52825 0.0
O117 O 1.01099 0.03481 0.5118 0.0
O118 O 0.97569 1.0048 0.66426 0.0
O119 O 0.99552 0.01928 0.73798 0.0
H120 H 0.06472 0.97629 0.85116 0.0
H121 H 0.01414 0.96123 0.99136 0.0
H122 H 0.02584 0.92705 -0.00087 0.0
H123 H 0.07643 0.94225 0.85929 0.0
H124 H 0.97264 0.05679 0.60106 0.0
H125 H 0.99626 0.0613 0.37007 0.0
H126 H 0.98809 0.09652 0.36796 0.0
H127 H 0.964 0.09178 0.59876 0.0
Gd128 Gd 0.5201 0.03079 0.75274 0.0
Gd129 Gd 0.50659 0.01278 0.59104 0.0
C130 C 0.55268 0.01524 0.62526 0.0
C131 C 0.53935 0.03602 0.87884 0.0
C132 C 0.55741 0.02574 0.90312 0.0
C133 C 0.57163 0.03545 0.94795 0.0
C134 C 0.56155 1.00689 0.87324 0.0
C135 C 0.59435 1.00794 0.92927 0.0
C136 C 0.57985 0.99808 0.88612 0.0
C137 C 0.58997 0.02655 0.96136 0.0
C138 C 0.50995 0.05692 0.6417 0.0
C139 C 0.47406 0.0236 0.72705 0.0
C140 C 0.48957 1.00941 0.45947 0.0
C141 C 0.46991 1.00097 0.44278 0.0
C142 C 0.46793 0.98478 0.39258 0.0
C143 C 0.45325 1.00763 0.48372 0.0
C144 C 0.43331 0.98143 0.42836 0.0
C145 C 0.43521 0.99793 0.47687 0.0
C146 C 0.44972 0.97515 0.38498 0.0
C147 C 0.50994 0.98391 0.70063 0.0
O148 O 0.54791 0.01825 0.6987 0.0
O149 O 0.53924 0.01474 0.56954 0.0
O150 O 0.54155 0.04753 0.8185 0.0
O151 O 0.52342 0.02504 0.87513 0.0
O152 O 0.50703 0.05997 0.7151 0.0
O153 O 0.5192 0.04095 0.6317 0.0
O154 O 0.4779 0.02011 0.65297 0.0
O155 O 0.48809 0.02646 0.7792 0.0
O156 O 0.50294 0.99673 0.48337 0.0
O157 O 0.48963 0.02601 0.49885 0.0
O158 O 0.50526 0.98043 0.62916 0.0
O159 O 0.51258 1.00216 0.70695 0.0
H160 H 0.56878 0.05011 0.97048 0.0
H161 H 0.55088 0.99922 0.8376 0.0
H162 H 0.58276 0.98365 0.86149 0.0
H163 H 0.60096 0.03451 0.99453 0.0
H164 H 0.48058 0.97929 0.3608 0.0
H165 H 0.45416 0.02012 0.52263 0.0
H166 H 0.42269 1.00339 0.50952 0.0
H167 H 0.44856 0.96252 0.34676 0.0
Gd168 Gd 0.50919 0.5278 0.77155 0.0
Gd169 Gd 0.53026 0.51487 0.61591 0.0
C170 C 0.52089 0.56046 0.63728 0.0
C171 C 0.50384 0.54476 0.90233 0.0
C172 C 0.49571 0.56463 0.91796 0.0
C173 C 0.47783 0.56684 0.95827 0.0
C174 C 0.50467 0.58143 0.88539 0.0
C175 C 0.4774 0.60196 0.92785 0.0
C176 C 0.49553 0.59983 0.88969 0.0
C177 C 0.4688 0.58542 0.96372 0.0
C178 C 0.48232 0.52461 0.65482 0.0
C179 C 0.51481 0.48148 0.74199 0.0
C180 C 0.54075 0.49495 0.49652 0.0
C181 C 0.54032 0.47325 0.4857 0.0
C182 C 0.55752 0.46209 0.49871 0.0
C183 C 0.5224 0.46329 0.47283 0.0
C184 C 0.53856 0.43159 0.49394 0.0
C185 C 0.52154 0.44269 0.47678 0.0
C186 C 0.55663 0.44152 0.50333 0.0
C187 C 0.55378 0.52603 0.73392 0.0
O188 O 0.51748 0.55647 0.71137 0.0
O189 O 0.52406 0.54642 0.5853 0.0
O190 O 0.49128 0.5318 0.87444 0.0
O191 O 0.52107 0.54431 0.86754 0.0
O192 O 0.47772 0.52976 0.72478 0.0
O193 O 0.5006 0.52163 0.65299 0.0
O194 O 0.52102 0.48591 0.67128 0.0
O195 O 0.51059 0.49518 0.79417 0.0
O196 O 0.5534 0.5013 0.54815 0.0
O197 O 0.52364 0.50396 0.50091 0.0
O198 O 0.55747 0.53008 0.66183 0.0
O199 O 0.53827 0.5158 0.73934 0.0
H200 H 0.47061 0.55413 0.98377 0.0
H201 H 0.51857 0.58035 0.85476 0.0
H202 H 0.50269 0.61245 0.86321 0.0
H203 H 0.45489 0.58679 0.99413 0.0
H204 H 0.57156 0.46932 0.50883 0.0
H205 H 0.50886 0.47138 0.46232 0.0
H206 H 0.50748 0.43548 0.46728 0.0
H207 H 0.57001 0.43348 0.51699 0.0
Gd208 Gd 0.01213 0.50279 0.75925 0.0
Gd209 Gd 0.02474 0.52239 0.60039 0.0
C210 C 0.97856 0.51766 0.63193 0.0
C211 C 0.99201 0.49392 0.88009 0.0
C212 C 0.97025 0.4939 0.88895 0.0
C213 C 0.95955 0.47634 0.87772 0.0
C214 C 0.95983 0.51173 0.89832 0.0
C215 C 0.92863 0.49468 0.87768 0.0
C216 C 0.93926 0.5121 0.89274 0.0
C217 C 0.93898 0.47674 0.87174 0.0
C218 C 0.02243 0.47805 0.64419 0.0
C219 C 0.0577 0.5116 0.73517 0.0
C220 C 0.04209 0.52606 0.46965 0.0
C221 C 0.06237 0.53324 0.45493 0.0
C222 C 0.06552 0.55184 0.4209 0.0
C223 C 0.07869 0.52268 0.48388 0.0
C224 C 0.10049 0.54991 0.45222 0.0
C225 C 0.09749 0.53098 0.48293 0.0
C226 C 0.08448 0.56008 0.41917 0.0
C227 C 0.02214 0.55031 0.71331 0.0
O228 O 0.9831 0.51139 0.7025 0.0
O229 O 0.99212 0.52174 0.57908 0.0
O230 O 0.99912 0.48051 0.83311 0.0
O231 O 1.00044 0.51121 0.87111 0.0
O232 O 0.02663 0.4749 0.71655 0.0
O233 O 0.01247 0.49373 0.63684 0.0
O234 O 0.05349 0.51462 0.66101 0.0
O235 O 0.04382 0.50877 0.7881 0.0
O236 O 0.02953 0.53931 0.49544 0.0
O237 O 0.04075 0.50907 0.50598 0.0
O238 O 0.02644 0.55432 0.64189 0.0
O239 O 0.01937 0.53201 0.71817 0.0
H240 H 0.96712 0.46237 0.87029 0.0
H241 H 0.96756 0.52554 0.90743 0.0
H242 H 0.9317 0.5261 0.89961 0.0
H243 H 0.93127 0.46306 0.85989 0.0
H244 H 0.05322 0.56029 0.39819 0.0
H245 H 0.07692 0.50826 0.51013 0.0
H246 H 0.1097 0.52264 0.50698 0.0
H247 H 0.08653 0.57464 0.39434 0.0
C248 C 0.16984 0.01862 0.11119 0.0
C249 C 0.18931 0.01772 0.1386 0.0
C250 C 0.15392 0.01703 0.16266 0.0
C251 C 0.14123 0.99843 0.35763 0.0
H252 H 0.09625 0.03375 0.34286 0.0
C253 C 0.08592 1.00617 0.60693 0.0
C254 C 0.06574 1.00827 0.59017 0.0
C255 C 0.1 1.00682 0.5481 0.0
C256 C 0.10855 0.02357 0.34714 0.0
H257 H 0.20765 0.0148 0.24042 0.0
H258 H 0.17997 0.01187 0.33039 0.0
H259 H 0.12275 0.03581 0.24708 0.0
H260 H 0.04442 0.01259 0.49846 0.0
H261 H 0.06914 0.01367 0.3946 0.0
H262 H 0.12719 0.98616 0.45738 0.0
C263 C 0.17686 0.01357 0.26931 0.0
C264 C 0.12377 0.02478 0.29228 0.0
C265 C 0.19273 0.0153 0.21792 0.0
C266 C 0.0599 1.01109 0.51302 0.0
C267 C 0.07407 0.01174 0.4537 0.0
C268 C 0.12604 0.99717 0.41211 0.0
C269 C 0.15725 0.01437 0.24238 0.0
C270 C 0.14044 0.01242 0.29763 0.0
C271 C 0.09432 1.00949 0.47057 0.0
C272 C 0.10965 1.00994 0.4085 0.0
H273 H 0.16694 0.02054 0.05002 0.0
H274 H 0.13902 0.01757 0.13994 0.0
H275 H 0.15363 0.98839 0.36253 0.0
H276 H 0.0909 1.00405 0.6659 0.0
H277 H 0.11544 1.00544 0.56369 0.0
C278 C 0.48908 0.19882 0.20394 0.0
C279 C 0.49745 0.19631 0.13055 0.0
C280 C 0.48936 0.18334 0.25764 0.0
C281 C 0.49581 0.12898 0.27545 0.0
H282 H 0.50771 0.1415 0.48919 0.0
C283 C 0.51361 0.06892 0.50519 0.0
C284 C 0.50658 0.07191 0.58072 0.0
C285 C 0.5115 0.08368 0.44894 0.0
C286 C 0.50409 0.13773 0.43 0.0
H287 H 0.51261 0.17598 0.05461 0.0
H288 H 0.51326 0.14881 0.14847 0.0
H289 H 0.50594 0.16792 0.39392 0.0
H290 H 0.49137 0.09244 0.65609 0.0
H291 H 0.48746 0.11809 0.55797 0.0
H292 H 0.49407 0.09873 0.31169 0.0
C293 C 0.50623 0.16258 0.16461 0.0
C294 C 0.50309 0.15292 0.37524 0.0
C295 C 0.50595 0.17811 0.11097 0.0
C296 C 0.49703 0.08976 0.59845 0.0
C297 C 0.49491 0.10451 0.54229 0.0
C298 C 0.49681 0.11376 0.33032 0.0
C299 C 0.49806 0.16504 0.23892 0.0
C300 C 0.49894 0.14877 0.2972 0.0
C301 C 0.50233 0.10178 0.46699 0.0
C302 C 0.50097 0.11794 0.40837 0.0
H303 H 0.48247 0.21281 0.22004 0.0
H304 H 0.48269 0.18569 0.3138 0.0
H305 H 0.49233 0.12524 0.21611 0.0
H306 H 0.52112 0.05534 0.48993 0.0
H307 H 0.51757 0.08111 0.3919 0.0
C308 C 0.35901 0.4981 0.13798 0.0
C309 C 0.34218 0.50975 0.15035 0.0
C310 C 0.37548 0.4999 0.18665 0.0
C311 C 0.39809 0.53375 0.3325 0.0
H312 H 0.42736 0.48705 0.39413 0.0
C313 C 0.44975 0.5328 0.59667 0.0
C314 C 0.4681 0.52329 0.59005 0.0
C315 C 0.43575 0.53146 0.53758 0.0
C316 C 0.4195 0.50026 0.37665 0.0
H317 H 0.32922 0.53248 0.22216 0.0
H318 H 0.35753 0.53526 0.30849 0.0
H319 H 0.40015 0.48401 0.30212 0.0
H320 H 0.48602 0.50451 0.51724 0.0
H321 H 0.46143 0.50204 0.41319 0.0
H322 H 0.41708 0.54987 0.40879 0.0
C323 C 0.35837 0.52498 0.26064 0.0
C324 C 0.40389 0.49855 0.32377 0.0
C325 C 0.342 0.52325 0.21168 0.0
C326 C 0.47216 0.51227 0.52313 0.0
C327 C 0.458 0.51071 0.46408 0.0
C328 C 0.41355 0.53542 0.38572 0.0
C329 C 0.37539 0.51336 0.24884 0.0
C330 C 0.39278 0.51524 0.30173 0.0
C331 C 0.43964 0.52036 0.47064 0.0
C332 C 0.42428 0.51868 0.40924 0.0
H333 H 0.35945 0.48764 0.0906 0.0
H334 H 0.38836 0.4909 0.17496 0.0
H335 H 0.39026 0.54703 0.31563 0.0
H336 H 0.44617 0.54133 0.6478 0.0
H337 H 0.42168 0.53883 0.54505 0.0
C338 C 0.04025 0.33482 0.21515 0.0
C339 C 0.03139 0.33655 0.14227 0.0
C340 C 0.03999 0.35076 0.26677 0.0
C341 C 0.01335 0.39733 0.30978 0.0
H342 H 0.05961 0.40891 0.43392 0.0
C343 C 0.0171 0.46608 0.50846 0.0
C344 C 0.0253 0.46324 0.58226 0.0
C345 C 0.01867 0.45136 0.45184 0.0
C346 C 0.04649 0.40579 0.40021 0.0
H347 H 0.01535 0.35591 0.06512 0.0
H348 H 0.01494 0.38393 0.15489 0.0
H349 H 0.06052 0.3817 0.34158 0.0
H350 H 0.04191 0.44296 0.65422 0.0
H351 H 0.04453 0.41724 0.55602 0.0
H352 H 0.99926 0.4213 0.36885 0.0
C353 C 0.02193 0.37028 0.17293 0.0
C354 C 0.04701 0.39015 0.34725 0.0
C355 C 0.02224 0.35433 0.12136 0.0
C356 C 0.03547 0.44559 0.59778 0.0
C357 C 0.03706 0.43088 0.54127 0.0
C358 C 0.01282 0.41296 0.36279 0.0
C359 C 0.03082 0.36871 0.24636 0.0
C360 C 0.03041 0.38565 0.30161 0.0
C361 C 0.0285 0.43347 0.46778 0.0
C362 C 0.02935 0.41733 0.40905 0.0
H363 H 0.04732 0.32113 0.23232 0.0
H364 H 0.04672 0.34891 0.32313 0.0
H365 H 1.00019 0.39413 0.27644 0.0
H366 H 1.00917 0.47955 0.49484 0.0
H367 H 0.01215 0.45399 0.39559 0.0
C368 C 0.83752 1.00022 0.17046 0.0
C369 C 0.83797 0.01229 0.23622 0.0
C370 C 0.85384 0.99928 0.12093 0.0
C371 C 0.89943 0.0265 0.06601 0.0
H372 H 0.91299 0.97687 0.96736 0.0
C373 C 0.96841 0.01799 0.86969 0.0
C374 C 0.96523 1.0081 0.79934 0.0
C375 C 0.95394 0.01776 0.92764 0.0
C376 C 0.90933 0.99087 0.99411 0.0
H377 H 0.85564 0.0327 0.303 0.0
H378 H 0.88439 0.03089 0.21735 0.0
H379 H 0.88578 0.97803 0.05951 0.0
H380 H 0.94475 0.98976 0.7353 0.0
H381 H 0.91959 0.98926 0.83623 0.0
H382 H 0.92303 0.03929 0.00037 0.0
C383 C 0.87138 0.02237 0.20289 0.0
C384 C 0.89368 0.99157 0.04685 0.0
C385 C 0.85499 0.02334 0.25224 0.0
C386 C 0.9476 0.99752 0.78895 0.0
C387 C 0.93322 0.99716 0.84697 0.0
C388 C 0.91516 0.02577 0.01353 0.0
C389 C 0.87102 1.01034 0.1364 0.0
C390 C 0.88834 1.00944 0.0829 0.0
C391 C 0.93608 1.00748 0.91668 0.0
C392 C 0.92017 1.00799 0.97626 0.0
H393 H 0.82458 0.99151 0.15691 0.0
H394 H 0.85285 0.9901 0.06982 0.0
H395 H 0.89562 0.04058 0.09169 0.0
H396 H 0.98189 0.02625 0.87931 0.0
H397 H 0.9567 0.02567 0.98097 0.0
C398 C 0.52482 0.83848 0.11929 0.0
C399 C 0.52648 0.84184 0.19892 0.0
C400 C 0.52311 0.85439 0.06798 0.0
C401 C 0.53219 0.9082 0.04905 0.0
H402 H 0.49524 0.90377 0.87869 0.0
C403 C 0.5147 0.97343 0.83927 0.0
C404 C 0.51248 0.96857 0.76085 0.0
C405 C 0.51652 0.95852 0.89528 0.0
C406 C 0.5058 0.9052 0.9254 0.0
H407 H 0.52782 0.86414 0.28829 0.0
H408 H 0.52477 0.89211 0.19871 0.0
H409 H 0.49829 0.87678 0.9709 0.0
H410 H 0.51056 0.94435 0.67932 0.0
H411 H 0.51394 0.91846 0.77605 0.0
H412 H 0.53976 0.93663 0.00296 0.0
C413 C 0.52493 0.87725 0.17552 0.0
C414 C 0.50755 0.88969 0.97837 0.0
C415 C 0.52658 0.86128 0.22682 0.0
C416 C 0.51219 0.94857 0.73942 0.0
C417 C 0.514 0.93371 0.79504 0.0
C418 C 0.53047 0.92374 0.99581 0.0
C419 C 0.52306 0.874 0.09541 0.0
C420 C 0.52088 0.89088 0.04051 0.0
C421 C 0.51603 0.93843 0.87384 0.0
C422 C 0.51739 0.92236 0.9328 0.0
H423 H 0.52484 0.82356 0.09664 0.0
H424 H 0.522 0.85134 0.00667 0.0
H425 H 0.54274 0.90955 0.09585 0.0
H426 H 0.51465 0.98869 0.85747 0.0
H427 H 0.51786 0.96272 0.95547 0.0
C428 C 0.6944 0.54504 0.17333 0.0
C429 C 0.69268 0.5361 0.24606 0.0
C430 C 0.67849 0.54485 0.12162 0.0
C431 C 0.63218 0.51805 0.07715 0.0
H432 H 0.62091 0.56417 0.95154 0.0
C433 C 0.56473 0.52106 0.87123 0.0
C434 C 0.56805 0.52919 0.79761 0.0
C435 C 0.57899 0.52284 0.92954 0.0
C436 C 0.62394 0.5511 0.98568 0.0
H437 H 0.67333 0.51996 0.32282 0.0
H438 H 0.64532 0.5197 0.23283 0.0
H439 H 0.64763 0.56531 0.04598 0.0
H440 H 0.58868 0.54589 0.72772 0.0
H441 H 0.6136 0.54888 0.82885 0.0
H442 H 0.60864 0.50376 0.01629 0.0
C443 C 0.65895 0.52672 0.21507 0.0
C444 C 0.63929 0.55175 0.03987 0.0
C445 C 0.67489 0.52696 0.26678 0.0
C446 C 0.58569 0.53951 0.78398 0.0
C447 C 0.59994 0.54131 0.84217 0.0
C448 C 0.61683 0.51739 0.0229 0.0
C449 C 0.66055 0.53566 0.14172 0.0
C450 C 0.64372 0.53518 0.08593 0.0
C451 C 0.59689 0.53282 0.91551 0.0
C452 C 0.6126 0.53385 0.976 0.0
H453 H 0.70811 0.55205 0.15622 0.0
H454 H 0.68037 0.5516 0.06532 0.0
H455 H 0.63533 0.50492 0.11082 0.0
H456 H 0.55125 0.51302 0.88341 0.0
H457 H 0.57602 0.51635 0.98559 0.0
C458 C 1.00969 0.69447 0.1377 0.0
C459 C 1.00764 0.69106 0.21716 0.0
C460 C 0.01141 0.67858 0.08637 0.0
C461 C 1.00166 0.62489 0.06654 0.0
H462 H 0.0389 0.62912 0.89717 0.0
C463 C 0.01816 0.56007 0.85327 0.0
C464 C 0.0201 0.5653 0.77507 0.0
C465 C 0.01677 0.57475 0.91044 0.0
C466 C 0.02828 0.62774 0.94368 0.0
H467 H 1.00562 0.66872 0.3062 0.0
H468 H 1.00872 0.64078 0.21661 0.0
H469 H 0.03613 0.65597 0.99007 0.0
H470 H 0.02201 0.58993 0.69525 0.0
H471 H 0.01941 0.61535 0.79395 0.0
H472 H 0.99376 0.59664 0.0195 0.0
C473 C 1.00884 0.65566 0.19354 0.0
C474 C 0.02669 0.64317 0.99701 0.0
C475 C 1.00717 0.6716 0.24487 0.0
C476 C 0.02058 0.58541 0.75511 0.0
C477 C 0.01922 0.60001 0.81185 0.0
C478 C 1.00325 0.60941 0.01299 0.0
C479 C 1.01109 0.65895 0.1136 0.0
C480 C 0.01321 0.64208 0.05867 0.0
C481 C 0.01743 0.59492 0.89036 0.0
C482 C 0.01642 0.61076 0.95029 0.0
H483 H 1.00996 0.70941 0.11521 0.0
H484 H 0.0128 0.68167 0.02516 0.0
H485 H 0.99101 0.62361 0.11296 0.0
H486 H 0.01811 0.54471 0.87037 0.0
H487 H 0.01561 0.57029 0.97043 0.0
C488 C 0.02451 0.24052 0.27568 0.0
C489 C 0.01269 0.25445 0.23758 0.0
C490 C 0.01728 0.23043 0.3399 0.0
C491 C 0.9994 0.20873 0.47326 0.0
H492 H 0.94918 0.1877 0.40417 0.0
C493 C 0.97719 0.12972 0.55132 0.0
C494 C 0.9723 0.11869 0.48502 0.0
C495 C 0.977 0.15038 0.54932 0.0
C496 C 0.96311 0.19349 0.42495 0.0
H497 H 0.985 0.27036 0.24014 0.0
H498 H 0.97223 0.25276 0.35359 0.0
H499 H 0.96058 0.2192 0.35431 0.0
H500 H 0.96175 0.12066 0.36697 0.0
H501 H 0.96191 0.15648 0.3625 0.0
H502 H 1.00286 0.182 0.5375 0.0
C503 C 0.98702 0.24948 0.33351 0.0
C504 C 0.96956 0.21176 0.3972 0.0
C505 C 0.99434 0.25966 0.26909 0.0
C506 C 0.96595 0.12873 0.4185 0.0
C507 C 0.96574 0.14932 0.41647 0.0
C508 C 0.99304 0.19035 0.50039 0.0
C509 C 0.998 0.23399 0.36692 0.0
C510 C 0.98838 0.21894 0.41704 0.0
C511 C 0.97184 0.16042 0.48105 0.0
C512 C 0.97542 0.18198 0.47246 0.0
H513 H 0.0387 0.23629 0.25193 0.0
H514 H 0.02615 0.21852 0.36327 0.0
H515 H 0.01375 0.2141 0.49121 0.0
H516 H 0.98211 0.12244 0.60363 0.0
H517 H 0.9816 0.15847 0.60027 0.0
C518 C 0.27963 1.00155 0.27651 0.0
C519 C 0.27033 0.9909 0.21748 0.0
C520 C 0.29164 0.99185 0.32984 0.0
C521 C 0.32464 0.94974 0.31717 0.0
H522 H 0.34543 0.97503 0.50075 0.0
C523 C 0.40561 0.96793 0.3489 0.0
C524 C 0.41392 0.97148 0.4218 0.0
C525 C 0.38599 0.96181 0.34256 0.0
C526 C 0.3398 0.96727 0.45064 0.0
H527 H 0.26417 0.96178 0.17232 0.0
H528 H 0.28474 0.94454 0.26729 0.0
H529 H 0.31093 0.97938 0.46717 0.0
H530 H 0.40901 0.96959 0.54542 0.0
H531 H 0.37483 0.95846 0.53454 0.0
H532 H 0.35359 0.93795 0.29983 0.0
C533 C 0.28314 0.96042 0.27174 0.0
C534 C 0.31997 0.96997 0.43092 0.0
C535 C 0.27117 0.97021 0.21797 0.0
C536 C 0.40278 0.96728 0.4884 0.0
C537 C 0.38322 0.96094 0.48213 0.0
C538 C 0.34437 0.94677 0.33758 0.0
C539 C 0.29463 0.97128 0.32471 0.0
C540 C 0.31256 0.96247 0.36087 0.0
C541 C 0.37432 0.95888 0.40909 0.0
C542 C 0.35253 0.95668 0.40142 0.0
H543 H 0.27929 0.01757 0.27638 0.0
H544 H 0.30024 1.00084 0.36915 0.0
H545 H 0.31955 0.94355 0.26299 0.0
H546 H 0.41384 0.97115 0.29668 0.0
H547 H 0.37966 0.9607 0.28523 0.0
C548 C 0.54257 0.28223 0.25578 0.0
C549 C 0.52467 0.27296 0.23721 0.0
C550 C 0.5448 0.2918 0.32653 0.0
C551 C 0.51192 0.32065 0.44295 0.0
H552 H 0.56162 0.33831 0.52991 0.0
C553 C 0.52107 0.4008 0.53815 0.0
C554 C 0.53745 0.40977 0.50247 0.0
C555 C 0.51966 0.38024 0.54289 0.0
C556 C 0.54755 0.33344 0.50701 0.0
H557 H 0.49607 0.26408 0.28095 0.0
H558 H 0.49996 0.28084 0.4054 0.0
H559 H 0.55919 0.30522 0.47433 0.0
H560 H 0.56537 0.40406 0.44511 0.0
H561 H 0.56275 0.36837 0.45186 0.0
H562 H 0.50067 0.34927 0.46974 0.0
C563 C 0.51218 0.28091 0.365 0.0
C564 C 0.54614 0.31448 0.47548 0.0
C565 C 0.50998 0.27124 0.29405 0.0
C566 C 0.55267 0.3977 0.47391 0.0
C567 C 0.55123 0.37718 0.47834 0.0
C568 C 0.51333 0.33955 0.47448 0.0
C569 C 0.5291 0.29239 0.37975 0.0
C570 C 0.52869 0.30843 0.43833 0.0
C571 C 0.53453 0.36819 0.51144 0.0
C572 C 0.53152 0.3466 0.50209 0.0
H573 H 0.55415 0.28355 0.21288 0.0
H574 H 0.55803 0.3005 0.33551 0.0
H575 H 0.49824 0.31657 0.41471 0.0
H576 H 0.50923 0.40967 0.56203 0.0
H577 H 0.50668 0.37376 0.5693 0.0
C578 C 0.25209 0.52583 0.28758 0.0
C579 C 0.26194 0.5381 0.23517 0.0
C580 C 0.24081 0.53403 0.34682 0.0
C581 C 0.21108 0.57867 0.36532 0.0
H582 H 0.18851 0.54668 0.52852 0.0
C583 C 0.12913 0.5656 0.38549 0.0
C584 C 0.12051 0.55857 0.45375 0.0
C585 C 0.14912 0.5706 0.38397 0.0
C586 C 0.19468 0.55627 0.48465 0.0
H587 H 0.26975 0.56822 0.20723 0.0
H588 H 0.25066 0.58273 0.31314 0.0
H589 H 0.22253 0.54148 0.49058 0.0
H590 H 0.12531 0.55302 0.57573 0.0
H591 H 0.16014 0.56232 0.57392 0.0
H592 H 0.18322 0.5934 0.35915 0.0
C593 C 0.25115 0.5668 0.30769 0.0
C594 C 0.21422 0.55308 0.46212 0.0
C595 C 0.26227 0.55855 0.24766 0.0
C596 C 0.13178 0.55811 0.52199 0.0
C597 C 0.15172 0.56339 0.52083 0.0
C598 C 0.1917 0.58217 0.38904 0.0
C599 C 0.23918 0.5547 0.35458 0.0
C600 C 0.22211 0.56311 0.39796 0.0
C601 C 0.16086 0.56892 0.45106 0.0
C602 C 0.18278 0.56996 0.4447 0.0
H603 H 0.25153 0.51001 0.27806 0.0
H604 H 0.23179 0.5241 0.38085 0.0
H605 H 0.21656 0.58694 0.31624 0.0
H606 H 0.12076 0.566 0.33211 0.0
H607 H 0.15557 0.57445 0.32873 0.0
C608 C 0.06893 0.77268 0.17134 0.0
C609 C 0.04889 0.76755 0.16794 0.0
C610 C 0.07717 0.78471 0.11417 0.0
C611 C 0.06381 0.81493 0.93833 0.0
H612 H 0.08766 0.85654 0.06079 0.0
C613 C 0.04379 0.8963 0.91101 0.0
C614 C 0.05786 0.91096 0.92726 0.0
C615 C 0.04888 0.87635 0.91474 0.0
C616 C 0.0815 0.84502 0.02463 0.0
H617 H 0.0223 0.76887 0.09905 0.0
H618 H 0.03623 0.79038 0.00102 0.0
H619 H 0.08655 0.82337 0.1114 0.0
H620 H 0.08855 0.91635 0.95573 0.0
H621 H 0.09745 0.88133 0.9633 0.0
H622 H 0.05731 0.83737 0.85447 0.0
C623 C 0.04593 0.78494 0.046 0.0
C624 C 0.08091 0.82581 0.0536 0.0
C625 C 0.03784 0.77257 0.10233 0.0
C626 C 0.0774 0.90532 0.94339 0.0
C627 C 0.08248 0.88532 0.94773 0.0
C628 C 0.06424 0.83426 0.90963 0.0
C629 C 0.06529 0.7923 0.05425 0.0
C630 C 0.07113 0.8107 0.01273 0.0
C631 C 0.06814 0.87063 0.93521 0.0
C632 C 0.07223 0.84965 0.95436 0.0
H633 H 0.07769 0.76889 0.22166 0.0
H634 H 0.09232 0.78954 0.121 0.0
H635 H 0.05661 0.80359 0.90434 0.0
H636 H 0.0287 0.90027 0.89692 0.0
H637 H 0.03743 0.86543 0.90567 0.0
C638 C 0.75466 0.99124 0.10888 0.0
C639 C 0.75823 0.97785 0.16914 0.0
C640 C 0.7411 0.98654 0.05095 0.0
C641 C 0.69551 0.95871 0.05721 0.0
H642 H 0.6849 0.98938 0.87245 0.0
C643 C 0.62298 0.99862 0.01265 0.0
C644 C 0.61409 0.99896 0.93945 0.0
C645 C 0.64161 0.99023 0.02242 0.0
C646 C 0.68767 0.98037 0.92311 0.0
H647 H 0.75334 0.94805 0.20991 0.0
H648 H 0.73047 0.93934 0.10627 0.0
H649 H 0.71905 0.98266 0.91017 0.0
H650 H 0.6177 0.99097 0.8188 0.0
H651 H 0.6506 0.97646 0.83593 0.0
H652 H 0.66423 0.95713 0.07192 0.0
C653 C 0.73739 0.95376 0.10515 0.0
C654 C 0.70722 0.97662 0.945 0.0
C655 C 0.75064 0.95862 0.16402 0.0
C656 C 0.62421 0.99075 0.87603 0.0
C657 C 0.64301 0.98254 0.88566 0.0
C658 C 0.67608 0.96241 0.03526 0.0
C659 C 0.73108 0.96831 0.05237 0.0
C660 C 0.71136 0.9667 0.01476 0.0
C661 C 0.65183 0.98212 0.9591 0.0
C662 C 0.67199 0.9742 0.97054 0.0
H663 H 0.76034 1.00619 0.11198 0.0
H664 H 0.73678 0.99815 0.01129 0.0
H665 H 0.69792 0.95112 0.11151 0.0
H666 H 0.61546 1.00474 0.06248 0.0
H667 H 0.64821 0.99044 0.0795 0.0
C668 C 0.49682 0.7577 0.08244 0.0
C669 C 0.48587 0.76562 0.14361 0.0
C670 C 0.48767 0.74561 0.02788 0.0
C671 C 0.44596 0.71105 0.03485 0.0
H672 H 0.47396 0.6909 0.8564 0.0
C673 C 0.46286 0.62974 0.00354 0.0
C674 C 0.46805 0.62167 0.93184 0.0
C675 C 0.4572 0.64952 0.00898 0.0
C676 C 0.46547 0.69633 0.90497 0.0
H677 H 0.45662 0.76955 0.19104 0.0
H678 H 0.44022 0.74955 0.09256 0.0
H679 H 0.47749 0.72531 0.89175 0.0
H680 H 0.46977 0.62721 0.80865 0.0
H681 H 0.45916 0.66162 0.81747 0.0
H682 H 0.43375 0.68215 0.04748 0.0
C683 C 0.45601 0.75181 0.08817 0.0
C684 C 0.46776 0.71613 0.92605 0.0
C685 C 0.46528 0.76354 0.14393 0.0
C686 C 0.46608 0.63325 0.86484 0.0
C687 C 0.46009 0.65297 0.87003 0.0
C688 C 0.44326 0.69142 0.01259 0.0
C689 C 0.46732 0.74138 0.03326 0.0
C690 C 0.45929 0.72333 0.99478 0.0
C691 C 0.4563 0.6616 0.94255 0.0
C692 C 0.45415 0.68342 0.95095 0.0
H693 H 0.51278 0.75899 0.08188 0.0
H694 H 0.49708 0.73796 0.98714 0.0
H695 H 0.43893 0.71585 0.08776 0.0
H696 H 0.4644 0.62113 0.05604 0.0
H697 H 0.45478 0.65557 0.06613 0.0
C698 C 0.78053 0.49419 0.12463 0.0
C699 C 0.77085 0.51219 0.13763 0.0
C700 C 0.78995 0.49067 0.05437 0.0
C701 C 0.81789 0.52132 0.9265 0.0
H702 H 0.83539 0.47022 0.85212 0.0
C703 C 0.89501 0.48029 0.90042 0.0
C704 C 0.90682 0.49526 0.86846 0.0
C705 C 0.87446 0.48151 0.89663 0.0
C706 C 0.83058 0.48466 0.87152 0.0
H707 H 0.76133 0.53967 0.08569 0.0
H708 H 0.77792 0.53359 0.96206 0.0
H709 H 0.80262 0.47353 0.90968 0.0
H710 H 0.9063 0.52263 0.80303 0.0
H711 H 0.87037 0.52473 0.79638 0.0
H712 H 0.84628 0.53218 0.89462 0.0
C713 C 0.77831 0.52222 0.00616 0.0
C714 C 0.81179 0.48656 0.9041 0.0
C715 C 0.76874 0.52568 0.07658 0.0
C716 C 0.89761 0.51103 0.82951 0.0
C717 C 0.87703 0.51218 0.82526 0.0
C718 C 0.83664 0.51942 0.89407 0.0
C719 C 0.79004 0.50523 0.99624 0.0
C720 C 0.8058 0.50463 0.93666 0.0
C721 C 0.86522 0.4977 0.86062 0.0
C722 C 0.84366 0.50079 0.87095 0.0
H723 H 0.78227 0.48361 0.17119 0.0
H724 H 0.79891 0.47748 0.0492 0.0
H725 H 0.81384 0.53546 0.95116 0.0
H726 H 0.90158 0.46807 0.93162 0.0
H727 H 0.86586 0.4703 0.92599 0.0
C728 C 1.0059 0.22209 0.95738 0.0
C729 C 0.02312 0.23336 0.96756 0.0
C730 C 1.00645 0.20426 0.91674 0.0
C731 C 0.04065 0.16387 0.87531 0.0
H732 H 0.99765 0.14431 0.74847 0.0
C733 C 0.02697 0.08047 0.8268 0.0
C734 C 0.02063 0.07416 0.75339 0.0
C735 C 0.02854 0.10064 0.8439 0.0
C736 C 1.0099 0.14956 0.78312 0.0
H737 H 0.05426 0.23527 0.94092 0.0
H738 H 0.05532 0.20391 0.86943 0.0
H739 H 0.9981 0.17894 0.78795 0.0
H740 H 0.01132 0.08433 0.6399 0.0
H741 H 0.01431 0.1194 0.66968 0.0
H742 H 0.05232 0.13445 0.87148 0.0
C743 C 0.04137 0.20892 0.89298 0.0
C744 C 1.01008 0.1694 0.80617 0.0
C745 C 0.04075 0.22694 0.93305 0.0
C746 C 0.0161 0.08857 0.6973 0.0
C747 C 0.01771 0.10873 0.71442 0.0
C748 C 0.04041 0.144 0.85269 0.0
C749 C 0.02431 0.19712 0.88607 0.0
C750 C 0.0253 0.17673 0.8536 0.0
C751 C 0.02384 0.11503 0.78806 0.0
C752 C 0.02486 0.13651 0.80739 0.0
H753 H 0.99216 0.22667 0.98407 0.0
H754 H 0.99308 0.19551 0.9133 0.0
H755 H 0.0525 0.16895 0.9124 0.0
H756 H 0.03055 0.06984 0.87151 0.0
H757 H 0.03307 0.10494 0.90155 0.0
C758 C 0.2978 0.01566 0.90897 0.0
C759 C 0.2942 0.02393 0.9821 0.0
C760 C 0.31643 0.01766 0.87405 0.0
C761 C 0.36821 0.02424 0.93371 0.0
H762 H 0.37906 0.0318 0.71571 0.0
C763 C 0.44798 0.03322 0.82326 0.0
C764 C 0.45308 0.0245 0.7523 0.0
C765 C 0.42825 0.03408 0.8472 0.0
C766 C 0.37629 0.02945 0.77668 0.0
H767 H 0.30661 0.04189 0.07352 0.0
H768 H 0.33881 0.04577 0.0123 0.0
H769 H 0.34491 0.03247 0.76205 0.0
H770 H 0.44134 1.00954 0.65146 0.0
H771 H 0.407 1.01074 0.69358 0.0
H772 H 0.39933 0.02079 0.9488 0.0
C773 C 0.32753 0.03739 0.98237 0.0
C774 C 0.3567 0.0299 0.80319 0.0
C775 C 0.30902 0.03537 0.01708 0.0
C776 C 0.43793 0.01663 0.7059 0.0
C777 C 0.41819 0.01736 0.73006 0.0
C778 C 0.3877 0.02368 0.90729 0.0
C779 C 0.33175 0.02792 0.91193 0.0
C780 C 0.35244 0.02747 0.88222 0.0
C781 C 0.41306 0.02605 0.80125 0.0
C782 C 0.39209 0.02641 0.82852 0.0
H783 H 0.28669 1.00656 0.88136 0.0
H784 H 0.3192 1.01016 0.81981 0.0
H785 H 0.36547 0.0218 0.99468 0.0
H786 H 0.45921 0.03959 0.86022 0.0
H787 H 0.42491 0.04122 0.90167 0.0
C788 C 0.4997 0.30589 0.93063 0.0
C789 C 0.51635 0.29954 0.97254 0.0
C790 C 0.49947 0.32463 0.89553 0.0
C791 C 0.52117 0.37344 0.92659 0.0
H792 H 0.50091 0.3871 0.72378 0.0
C793 C 0.50666 0.45449 0.83733 0.0
C794 C 0.51345 0.46022 0.7638 0.0
C795 C 0.50623 0.43451 0.85861 0.0
C796 C 0.50663 0.38349 0.78058 0.0
H797 H 0.54638 0.30708 0.00438 0.0
H798 H 0.54593 0.33959 0.94376 0.0
H799 H 0.50231 0.3523 0.7637 0.0
H800 H 0.52503 0.44919 0.65489 0.0
H801 H 0.52458 0.4145 0.69297 0.0
H802 H 0.52548 0.40445 0.94399 0.0
C803 C 0.53294 0.33033 0.93914 0.0
C804 C 0.50732 0.36359 0.8035 0.0
C805 C 0.53321 0.31167 0.97358 0.0
C806 C 0.51956 0.4454 0.71182 0.0
C807 C 0.51916 0.42545 0.73325 0.0
C808 C 0.52024 0.39326 0.90418 0.0
C809 C 0.51585 0.33734 0.90212 0.0
C810 C 0.51476 0.35835 0.87661 0.0
C811 C 0.51257 0.41975 0.80696 0.0
C812 C 0.51303 0.39857 0.83086 0.0
H813 H 0.48646 0.29694 0.92918 0.0
H814 H 0.48609 0.32962 0.86727 0.0
H815 H 0.52677 0.36992 0.98366 0.0
H816 H 0.5018 0.46544 0.87884 0.0
H817 H 0.50092 0.43061 0.91569 0.0
C818 C 0.22713 0.53489 0.95996 0.0
C819 C 0.23848 0.51807 0.97728 0.0
C820 C 0.20893 0.53314 0.92247 0.0
C821 C 0.16831 0.49762 0.89794 0.0
H822 H 0.14814 0.53726 0.75649 0.0
C823 C 0.0846 0.50663 0.83458 0.0
C824 C 0.07888 0.51133 0.75855 0.0
C825 C 0.10461 0.50644 0.85563 0.0
C826 C 0.15354 0.52592 0.79536 0.0
H827 H 0.24008 0.48628 0.96582 0.0
H828 H 0.20822 0.48314 0.89917 0.0
H829 H 0.18266 0.53827 0.79607 0.0
H830 H 0.08995 0.51961 0.64542 0.0
H831 H 0.1246 0.51905 0.68154 0.0
H832 H 0.13918 0.48526 0.89713 0.0
C833 C 0.21337 0.49771 0.91534 0.0
C834 C 0.17334 0.52661 0.8186 0.0
C835 C 0.23172 0.4995 0.95251 0.0
C836 C 0.09372 0.51584 0.70434 0.0
C837 C 0.11367 0.51567 0.7253 0.0
C838 C 0.14848 0.49695 0.87483 0.0
C839 C 0.20151 0.51448 0.90161 0.0
C840 C 0.18095 0.51261 0.87093 0.0
C841 C 0.11943 0.511 0.80128 0.0
C842 C 0.14075 0.51122 0.82386 0.0
H843 H 0.23196 0.54939 0.9787 0.0
H844 H 0.2002 0.54637 0.91361 0.0
H845 H 0.17357 0.48671 0.93893 0.0
H846 H 0.07363 0.50312 0.878 0.0
H847 H 0.10845 0.50304 0.91497 0.0
C848 C 1.00206 0.79872 0.42828 0.0
C849 C 0.02106 0.79123 0.41382 0.0
C850 C 0.99964 0.81709 0.46468 0.0
C851 C 0.02629 0.85624 0.57584 0.0
H852 H 0.98908 0.89151 0.47564 0.0
C853 C 0.01482 0.93689 0.67896 0.0
C854 C 0.01264 0.95151 0.62159 0.0
C855 C 0.01459 0.91681 0.65964 0.0
C856 C 0.99962 0.8819 0.50408 0.0
H857 H 0.05232 0.79642 0.43076 0.0
H858 H 0.04817 0.82828 0.494 0.0
H859 H 0.99082 0.857 0.43594 0.0
H860 H 1.00851 0.95629 0.49863 0.0
H861 H 1.00836 0.92131 0.46482 0.0
H862 H 0.03561 0.8813 0.64195 0.0
C863 C 0.03509 0.8201 0.47761 0.0
C864 C 1.00041 0.862 0.4821 0.0
C865 C 0.03749 0.80185 0.44104 0.0
C866 C 1.01017 0.94549 0.54439 0.0
C867 C 1.00994 0.92538 0.52505 0.0
C868 C 0.02549 0.87614 0.59786 0.0
C869 C 0.01616 0.82828 0.48783 0.0
C870 C 0.01395 0.84895 0.51692 0.0
C871 C 0.01217 0.91075 0.5824 0.0
C872 C 0.01233 0.88932 0.56156 0.0
H873 H 0.98913 0.79095 0.40741 0.0
H874 H 0.98483 0.82279 0.47268 0.0
H875 H 0.03677 0.84661 0.60448 0.0
H876 H 0.01674 0.94091 0.73913 0.0
H877 H 0.01612 0.90602 0.70553 0.0
C878 C 0.72536 0.98445 0.45029 0.0
C879 C 0.73612 1.00083 0.4235 0.0
C880 C 0.70671 0.98692 0.48375 0.0
C881 C 0.6644 0.02049 0.47269 0.0
H882 H 0.64378 0.98892 0.6415 0.0
C883 C 0.58041 0.01201 0.52854 0.0
C884 C 0.574 0.01305 0.6058 0.0
C885 C 0.60061 1.01098 0.51095 0.0
C886 C 0.64931 0.99794 0.5945 0.0
H887 H 0.73621 0.03271 0.41383 0.0
H888 H 0.70357 0.03711 0.47278 0.0
H889 H 0.6789 0.98722 0.60942 0.0
H890 H 0.58405 0.01364 0.72509 0.0
H891 H 0.61904 0.01178 0.69434 0.0
H892 H 0.63483 0.03109 0.45724 0.0
C893 C 0.70955 0.02233 0.46767 0.0
C894 C 0.66943 0.99688 0.57589 0.0
C895 C 0.72835 0.01985 0.43493 0.0
C896 C 0.58833 0.01275 0.66491 0.0
C897 C 0.60847 0.01161 0.64734 0.0
C898 C 0.64427 0.02141 0.49082 0.0
C899 C 0.69827 1.00583 0.49034 0.0
C900 C 0.67722 1.00806 0.51446 0.0
C901 C 0.6149 1.01084 0.57015 0.0
C902 C 0.63642 1.01005 0.55162 0.0
H903 H 0.73094 0.96961 0.44147 0.0
H904 H 0.69842 0.97389 0.50007 0.0
H905 H 0.66983 0.02912 0.42441 0.0
H906 H 0.56985 0.01223 0.48149 0.0
H907 H 0.60503 1.01017 0.45085 0.0
C908 C 0.49628 0.73011 0.41398 0.0
C909 C 0.51287 0.74091 0.3895 0.0
C910 C 0.49848 0.71185 0.45074 0.0
C911 C 0.53362 0.67029 0.46397 0.0
H912 H 0.49657 0.65126 0.6177 0.0
C913 C 0.52497 0.58691 0.53543 0.0
C914 C 0.52124 0.58157 0.61269 0.0
C915 C 0.52509 0.60684 0.51302 0.0
C916 C 0.50721 0.65633 0.5754 0.0
H917 H 0.54483 0.74148 0.38807 0.0
H918 H 0.54876 0.70964 0.45398 0.0
H919 H 0.49542 0.68567 0.57726 0.0
H920 H 0.51479 0.59325 0.72668 0.0
H921 H 0.51534 0.62771 0.68832 0.0
H922 H 0.54554 0.64095 0.46276 0.0
C923 C 0.534 0.71519 0.4435 0.0
C924 C 0.50641 0.67608 0.55157 0.0
C925 C 0.53178 0.73356 0.40676 0.0
C926 C 0.51773 0.59669 0.66679 0.0
C927 C 0.5179 0.61656 0.64454 0.0
C928 C 0.53445 0.65051 0.48792 0.0
C929 C 0.51735 0.70385 0.46415 0.0
C930 C 0.51944 0.6833 0.49482 0.0
C931 C 0.52149 0.62195 0.56728 0.0
C932 C 0.52112 0.64319 0.54341 0.0
H933 H 0.48151 0.73542 0.40161 0.0
H934 H 0.4853 0.70356 0.46506 0.0
H935 H 0.54375 0.67521 0.41954 0.0
H936 H 0.52768 0.57571 0.492 0.0
H937 H 0.52764 0.61037 0.45277 0.0
C938 C 0.81448 0.54105 0.36173 0.0
C939 C 0.79845 0.53042 0.39221 0.0
C940 C 0.83264 0.54139 0.39986 0.0
C941 C 0.86262 0.51179 0.53468 0.0
H942 H 0.8975 0.55714 0.52365 0.0
C943 C 0.94264 0.51087 0.6576 0.0
C944 C 0.95732 0.51976 0.61162 0.0
C945 C 0.92263 0.51273 0.63843 0.0
C946 C 0.88801 0.54428 0.52672 0.0
H947 H 0.7886 0.51251 0.48839 0.0
H948 H 0.8205 0.51325 0.55629 0.0
H949 H 0.86329 0.56031 0.48174 0.0
H950 H 0.96233 0.53767 0.50953 0.0
H951 H 0.92745 0.54117 0.47684 0.0
H952 H 0.88748 0.49571 0.57882 0.0
C953 C 0.81901 0.52116 0.50215 0.0
C954 C 0.86835 0.54611 0.50285 0.0
C955 C 0.80069 0.52091 0.46388 0.0
C956 C 0.95145 0.53064 0.54626 0.0
C957 C 0.93141 0.53277 0.52787 0.0
C958 C 0.88231 0.50998 0.55884 0.0
C959 C 0.83534 0.53109 0.46972 0.0
C960 C 0.85548 0.52978 0.50482 0.0
C961 C 0.91672 0.52388 0.57378 0.0
C962 C 0.89538 0.5261 0.55357 0.0
H963 H 0.81315 0.54853 0.30656 0.0
H964 H 0.84484 0.549 0.37245 0.0
H965 H 0.85325 0.49883 0.5363 0.0
H966 H 0.94659 0.50227 0.70813 0.0
H967 H 0.91176 0.50558 0.67471 0.0
loop_
_geom_bond_atom_site_label_1
_geom_bond_atom_site_label_2
_geom_bond_distance
_geom_bond_site_symmetry_2
_ccdc_geom_bond_type
H0 C3 0.929 . S
H1 C6 0.929 . S
H2 C8 0.930 . S
C3 H0 0.929 . S
C3 C4 1.398 . S
C3 C5 1.396 . S
C4 C3 1.398 . S
C4 C8 1.407 . S
C5 C3 1.396 . S
C5 C6 1.394 . S
C6 H1 0.929 . S
C6 C5 1.394 . S
C6 C7 1.382 . S
C7 C6 1.382 . S
C7 C8 1.392 . S
C7 N9 1.420 . S
C8 H2 0.930 . S
C8 C4 1.407 . S
C8 C7 1.392 . S
N9 C7 1.420 . S
N9 C10 1.244 . S
C10 N9 1.244 . S
H11 C14 0.929 . S
H12 C17 0.929 . S
H13 C19 0.930 . S
C14 H11 0.929 . S
C14 C15 1.398 . S
C14 C16 1.396 . S
C15 C14 1.398 . S
C15 C19 1.407 1_655 S
C16 C14 1.396 . S
C16 C17 1.394 1_655 S
C17 H12 0.929 . S
C17 C16 1.394 1_455 S
C17 C18 1.382 . S
C18 C17 1.382 . S
C18 C19 1.392 . S
C18 N20 1.420 . S
C19 H13 0.930 . S
C19 C15 1.407 1_455 S
C19 C18 1.392 . S
N20 C18 1.420 . S
N20 C21 1.244 1_455 S
C21 N20 1.244 1_655 S
H22 C25 0.929 . S
H23 C28 0.935 . S
H24 C30 0.930 . S
C25 H22 0.929 . S
C25 C26 1.398 . S
C25 C27 1.396 . S
C26 C25 1.398 . S
C26 C30 1.407 1_565 S
C27 C25 1.396 . S
C27 C28 1.387 1_565 S
C28 H23 0.935 . S
C28 C27 1.387 1_545 S
C28 C29 1.386 . S
C29 C28 1.386 . S
C29 C30 1.392 . S
C29 N31 1.420 . S
C30 H24 0.930 . S
C30 C26 1.407 1_545 S
C30 C29 1.392 . S
N31 C29 1.420 . S
N31 C32 1.244 1_545 S
C32 N31 1.244 1_565 S
H33 C36 0.929 . S
H34 C39 0.929 . S
H35 C41 0.930 . S
C36 H33 0.929 . S
C36 C37 1.398 . S
C36 C38 1.396 . S
C37 C36 1.398 . S
C37 C41 1.407 . S
C38 C36 1.396 . S
C38 C39 1.394 . S
C39 H34 0.929 . S
C39 C38 1.394 . S
C39 C40 1.382 . S
C40 C39 1.382 . S
C40 C41 1.392 . S
C40 N42 1.420 . S
C41 H35 0.930 . S
C41 C37 1.407 . S
C41 C40 1.392 . S
N42 C40 1.420 . S
N42 C43 1.244 . S
C43 N42 1.244 . S
H44 C47 0.929 1_556 S
H45 C50 0.929 . S
H46 C52 0.930 . S
C47 H44 0.929 1_554 S
C47 C48 1.398 1_554 S
C47 C49 1.396 . S
C48 C47 1.398 1_556 S
C48 C52 1.407 . S
C49 C47 1.396 . S
C49 C50 1.394 . S
C50 H45 0.929 . S
C50 C49 1.394 . S
C50 C51 1.382 . S
C51 C50 1.382 . S
C51 C52 1.392 1_554 S
C51 N53 1.420 . S
C52 H46 0.930 . S
C52 C48 1.407 . S
C52 C51 1.392 1_556 S
N53 C51 1.420 . S
N53 C54 1.244 . S
C54 N53 1.244 . S
H55 C58 0.929 1_556 S
H56 C61 0.929 . S
H57 C63 0.930 . S
C58 H55 0.929 1_554 S
C58 C59 1.398 1_554 S
C58 C60 1.396 . S
C59 C58 1.398 1_556 S
C59 C63 1.407 . S
C60 C58 1.396 . S
C60 C61 1.394 . S
C61 H56 0.929 . S
C61 C60 1.394 . S
C61 C62 1.382 . S
C62 C61 1.382 . S
C62 C63 1.392 1_554 S
C62 N64 1.420 . S
C63 H57 0.930 . S
C63 C59 1.407 . S
C63 C62 1.392 1_556 S
N64 C62 1.420 . S
N64 C65 1.244 . S
C65 N64 1.244 . S
H66 C69 0.929 1_556 S
H67 C72 0.929 . S
H68 C74 0.930 . S
C69 H66 0.929 1_554 S
C69 C70 1.398 1_554 S
C69 C71 1.396 . S
C70 C69 1.398 1_556 S
C70 C74 1.407 . S
C71 C69 1.396 . S
C71 C72 1.394 . S
C72 H67 0.929 . S
C72 C71 1.394 . S
C72 C73 1.382 . S
C73 C72 1.382 . S
C73 C74 1.392 1_554 S
C73 N75 1.420 . S
C74 H68 0.930 . S
C74 C70 1.407 . S
C74 C73 1.392 1_556 S
N75 C73 1.420 . S
N75 C76 1.244 . S
C76 N75 1.244 . S
H77 C80 0.929 1_556 S
H78 C83 0.929 . S
H79 C85 0.930 . S
C80 H77 0.929 1_554 S
C80 C81 1.398 1_554 S
C80 C82 1.396 . S
C81 C80 1.398 1_556 S
C81 C85 1.407 . S
C82 C80 1.396 . S
C82 C83 1.394 . S
C83 H78 0.929 . S
C83 C82 1.394 . S
C83 C84 1.382 . S
C84 C83 1.382 . S
C84 C85 1.392 1_554 S
C84 N86 1.420 . S
C85 H79 0.930 . S
C85 C81 1.407 . S
C85 C84 1.392 1_556 S
N86 C84 1.420 . S
N86 C87 1.244 . S
C87 N86 1.244 . S
Gd88 C91 2.818 . S
Gd88 O108 2.377 . S
Gd88 O110 2.448 . S
Gd88 O111 2.506 . S
Gd88 O112 2.435 . S
Gd88 O113 2.717 1_565 S
Gd88 O115 2.395 1_565 S
Gd88 O119 2.327 1_455 S
Gd89 C100 2.818 . S
Gd89 O109 2.395 1_545 S
Gd89 O113 2.327 1_655 S
Gd89 O114 2.377 . S
Gd89 O116 2.448 . S
Gd89 O117 2.506 1_655 S
Gd89 O118 2.435 . S
Gd89 O119 2.717 1_545 S
C90 O108 1.240 1_655 S
C90 O109 1.240 . S
C91 Gd88 2.818 . S
C91 C92 1.510 . S
C91 O110 1.249 . S
C91 O111 1.252 . S
C92 C91 1.510 . S
C92 C93 1.404 . S
C92 C94 1.352 . S
C93 C92 1.404 . S
C93 C97 1.389 . S
C93 H120 0.930 . S
C94 C92 1.352 . S
C94 C96 1.374 . S
C94 H121 0.931 1_455 S
C95 C96 1.359 . S
C95 C97 1.364 . S
C96 C94 1.374 . S
C96 C95 1.359 . S
C96 H122 0.931 1_455 S
C97 C93 1.389 . S
C97 C95 1.364 . S
C97 H123 0.931 . S
C98 O112 1.256 1_545 S
C98 O113 1.257 . S
C99 O114 1.240 1_455 S
C99 O115 1.240 . S
C100 Gd89 2.818 . S
C100 C101 1.510 . S
C100 O116 1.249 . S
C100 O117 1.252 1_655 S
C101 C100 1.510 . S
C101 C102 1.404 . S
C101 C103 1.352 1_655 S
C102 C101 1.404 . S
C102 C106 1.389 . S
C102 H124 0.930 . S
C103 C101 1.352 1_455 S
C103 C105 1.374 . S
C103 H125 0.931 . S
C104 C105 1.359 1_655 S
C104 C106 1.364 . S
C105 C103 1.374 . S
C105 C104 1.359 1_455 S
C105 H126 0.931 . S
C106 C102 1.389 . S
C106 C104 1.364 . S
C106 H127 0.931 . S
C107 O118 1.256 . S
C107 O119 1.257 1_545 S
O108 Gd88 2.377 . S
O108 C90 1.240 1_455 S
O109 Gd89 2.395 1_565 S
O109 C90 1.240 . S
O110 Gd88 2.448 . S
O110 C91 1.249 . S
O111 Gd88 2.506 . S
O111 C91 1.252 . S
O112 Gd88 2.435 . S
O112 C98 1.256 1_565 S
O113 Gd88 2.717 1_545 S
O113 Gd89 2.327 1_455 S
O113 C98 1.257 . S
O114 Gd89 2.377 . S
O114 C99 1.240 1_655 S
O115 Gd88 2.395 1_545 S
O115 C99 1.240 . S
O116 Gd89 2.448 . S
O116 C100 1.249 . S
O117 Gd89 2.506 1_455 S
O117 C100 1.252 1_455 S
O118 Gd89 2.435 . S
O118 C107 1.256 . S
O119 Gd88 2.327 1_655 S
O119 Gd89 2.717 1_565 S
O119 C107 1.257 1_565 S
H120 C93 0.930 . S
H121 C94 0.931 1_655 S
H122 C96 0.931 1_655 S
H123 C97 0.931 . S
H124 C102 0.930 . S
H125 C103 0.931 . S
H126 C105 0.931 . S
H127 C106 0.931 . S
Gd128 C131 2.818 . S
Gd128 O148 2.377 . S
Gd128 O150 2.448 . S
Gd128 O151 2.506 . S
Gd128 O152 2.435 . S
Gd128 O153 2.717 . S
Gd128 O155 2.395 . S
Gd128 O159 2.327 1_545 S
Gd129 C140 2.818 . S
Gd129 O149 2.395 . S
Gd129 O153 2.327 1_565 S
Gd129 O154 2.377 . S
Gd129 O156 2.448 . S
Gd129 O157 2.506 1_565 S
Gd129 O158 2.435 . S
Gd129 O159 2.717 . S
C130 O148 1.240 1_565 S
C130 O149 1.240 . S
C131 Gd128 2.818 . S
C131 C132 1.510 . S
C131 O150 1.249 . S
C131 O151 1.252 . S
C132 C131 1.510 . S
C132 C133 1.404 . S
C132 C134 1.352 . S
C133 C132 1.404 . S
C133 C137 1.389 . S
C133 H160 0.930 . S
C134 C132 1.352 . S
C134 C136 1.374 . S
C134 H161 0.931 1_545 S
C135 C136 1.359 . S
C135 C137 1.364 . S
C136 C134 1.374 . S
C136 C135 1.359 . S
C136 H162 0.931 1_545 S
C137 C133 1.389 . S
C137 C135 1.364 . S
C137 H163 0.931 . S
C138 O152 1.256 . S
C138 O153 1.257 . S
C139 O154 1.240 1_545 S
C139 O155 1.240 . S
C140 Gd129 2.818 . S
C140 C141 1.510 . S
C140 O156 1.249 . S
C140 O157 1.252 1_565 S
C141 C140 1.510 . S
C141 C142 1.404 . S
C141 C143 1.352 1_565 S
C142 C141 1.404 . S
C142 C146 1.389 . S
C142 H164 0.930 . S
C143 C141 1.352 1_545 S
C143 C145 1.378 . S
C143 H165 0.931 . S
C144 C145 1.307 1_565 S
C144 C146 1.364 . S
C145 C143 1.378 . S
C145 C144 1.307 1_545 S
C145 H166 0.979 . S
C146 C142 1.389 . S
C146 C144 1.364 . S
C146 H167 0.931 . S
C147 O158 1.256 . S
C147 O159 1.257 . S
O148 Gd128 2.377 . S
O148 C130 1.240 1_545 S
O149 Gd129 2.395 . S
O149 C130 1.240 . S
O150 Gd128 2.448 . S
O150 C131 1.249 . S
O151 Gd128 2.506 . S
O151 C131 1.252 . S
O152 Gd128 2.435 . S
O152 C138 1.256 . S
O153 Gd128 2.717 . S
O153 Gd129 2.327 1_545 S
O153 C138 1.257 . S
O154 Gd129 2.377 . S
O154 C139 1.240 1_565 S
O155 Gd128 2.395 . S
O155 C139 1.240 . S
O156 Gd129 2.448 . S
O156 C140 1.249 . S
O157 Gd129 2.506 1_545 S
O157 C140 1.252 1_545 S
O158 Gd129 2.435 . S
O158 C147 1.256 . S
O159 Gd128 2.327 1_565 S
O159 Gd129 2.717 . S
O159 C147 1.257 . S
H160 C133 0.930 . S
H161 C134 0.931 1_565 S
H162 C136 0.931 1_565 S
H163 C137 0.931 . S
H164 C142 0.930 . S
H165 C143 0.931 . S
H166 C145 0.979 . S
H167 C146 0.931 . S
Gd168 C171 2.818 . S
Gd168 O188 2.377 . S
Gd168 O190 2.448 . S
Gd168 O191 2.506 . S
Gd168 O192 2.435 . S
Gd168 O193 2.717 . S
Gd168 O195 2.395 . S
Gd168 O199 2.327 . S
Gd169 C180 2.818 . S
Gd169 O189 2.395 . S
Gd169 O193 2.327 . S
Gd169 O194 2.377 . S
Gd169 O196 2.448 . S
Gd169 O197 2.506 . S
Gd169 O198 2.435 . S
Gd169 O199 2.717 . S
C170 O188 1.240 . S
C170 O189 1.240 . S
C171 Gd168 2.818 . S
C171 C172 1.510 . S
C171 O190 1.249 . S
C171 O191 1.252 . S
C172 C171 1.510 . S
C172 C173 1.404 . S
C172 C174 1.352 . S
C173 C172 1.404 . S
C173 C177 1.389 . S
C173 H200 0.930 . S
C174 C172 1.352 . S
C174 C176 1.374 . S
C174 H201 0.931 . S
C175 C176 1.359 . S
C175 C177 1.364 . S
C176 C174 1.374 . S
C176 C175 1.359 . S
C176 H202 0.931 . S
C177 C173 1.389 . S
C177 C175 1.364 . S
C177 H203 0.931 . S
C178 O192 1.256 . S
C178 O193 1.257 . S
C179 O194 1.240 . S
C179 O195 1.240 . S
C180 Gd169 2.818 . S
C180 C181 1.510 . S
C180 O196 1.249 . S
C180 O197 1.252 . S
C181 C180 1.510 . S
C181 C182 1.404 . S
C181 C183 1.352 . S
C182 C181 1.404 . S
C182 C186 1.389 . S
C182 H204 0.930 . S
C183 C181 1.352 . S
C183 C185 1.374 . S
C183 H205 0.931 . S
C184 C185 1.359 . S
C184 C186 1.364 . S
C185 C183 1.374 . S
C185 C184 1.359 . S
C185 H206 0.931 . S
C186 C182 1.389 . S
C186 C184 1.364 . S
C186 H207 0.931 . S
C187 O198 1.256 . S
C187 O199 1.257 . S
O188 Gd168 2.377 . S
O188 C170 1.240 . S
O189 Gd169 2.395 . S
O189 C170 1.240 . S
O190 Gd168 2.448 . S
O190 C171 1.249 . S
O191 Gd168 2.506 . S
O191 C171 1.252 . S
O192 Gd168 2.435 . S
O192 C178 1.256 . S
O193 Gd168 2.717 . S
O193 Gd169 2.327 . S
O193 C178 1.257 . S
O194 Gd169 2.377 . S
O194 C179 1.240 . S
O195 Gd168 2.395 . S
O195 C179 1.240 . S
O196 Gd169 2.448 . S
O196 C180 1.249 . S
O197 Gd169 2.506 . S
O197 C180 1.252 . S
O198 Gd169 2.435 . S
O198 C187 1.256 . S
O199 Gd168 2.327 . S
O199 Gd169 2.717 . S
O199 C187 1.257 . S
H200 C173 0.930 . S
H201 C174 0.931 . S
H202 C176 0.931 . S
H203 C177 0.931 . S
H204 C182 0.930 . S
H205 C183 0.931 . S
H206 C185 0.931 . S
H207 C186 0.931 . S
Gd208 C211 2.818 . S
Gd208 O228 2.377 . S
Gd208 O230 2.448 . S
Gd208 O231 2.506 . S
Gd208 O232 2.435 . S
Gd208 O233 2.717 1_655 S
Gd208 O235 2.395 1_655 S
Gd208 O239 2.331 . S
Gd209 C220 2.818 . S
Gd209 O229 2.395 1_455 S
Gd209 O233 2.327 . S
Gd209 O234 2.377 . S
Gd209 O236 2.448 . S
Gd209 O237 2.506 . S
Gd209 O238 2.435 . S
Gd209 O239 2.710 1_455 S
C210 O228 1.240 . S
C210 O229 1.240 . S
C211 Gd208 2.818 . S
C211 C212 1.510 . S
C211 O230 1.249 . S
C211 O231 1.252 . S
C212 C211 1.510 . S
C212 C213 1.404 . S
C212 C214 1.352 . S
C213 C212 1.404 . S
C213 C217 1.389 . S
C213 H240 0.930 . S
C214 C212 1.352 . S
C214 C216 1.374 . S
C214 H241 0.931 . S
C215 C216 1.359 . S
C215 C217 1.364 . S
C216 C214 1.374 . S
C216 C215 1.359 . S
C216 H242 0.931 . S
C217 C213 1.389 . S
C217 C215 1.364 . S
C217 H243 0.931 . S
C218 O232 1.256 1_455 S
C218 O233 1.257 . S
C219 O234 1.240 . S
C219 O235 1.240 . S
C220 Gd209 2.818 . S
C220 C221 1.510 . S
C220 O236 1.249 . S
C220 O237 1.252 . S
C221 C220 1.510 . S
C221 C222 1.404 . S
C221 C223 1.352 . S
C222 C221 1.404 . S
C222 C226 1.389 . S
C222 H244 0.930 . S
C223 C221 1.352 . S
C223 C225 1.374 . S
C223 H245 0.931 . S
C224 C225 1.359 . S
C224 C226 1.364 . S
C225 C223 1.374 . S
C225 C224 1.359 . S
C225 H246 0.931 . S
C226 C222 1.389 . S
C226 C224 1.364 . S
C226 H247 0.931 . S
C227 O238 1.256 . S
C227 O239 1.252 1_455 S
O228 Gd208 2.377 . S
O228 C210 1.240 . S
O229 Gd209 2.395 1_655 S
O229 C210 1.240 . S
O230 Gd208 2.448 . S
O230 C211 1.249 . S
O231 Gd208 2.506 . S
O231 C211 1.252 . S
O232 Gd208 2.435 . S
O232 C218 1.256 1_655 S
O233 Gd208 2.717 1_455 S
O233 Gd209 2.327 . S
O233 C218 1.257 . S
O234 Gd209 2.377 . S
O234 C219 1.240 . S
O235 Gd208 2.395 1_455 S
O235 C219 1.240 . S
O236 Gd209 2.448 . S
O236 C220 1.249 . S
O237 Gd209 2.506 . S
O237 C220 1.252 . S
O238 Gd209 2.435 . S
O238 C227 1.256 . S
O239 Gd208 2.331 . S
O239 Gd209 2.710 1_655 S
O239 C227 1.252 1_655 S
H240 C213 0.930 . S
H241 C214 0.931 . S
H242 C216 0.931 . S
H243 C217 0.931 . S
H244 C222 0.930 . S
H245 C223 0.931 . S
H246 C225 0.931 . S
H247 C226 0.931 . S
C248 C249 1.349 . S
C248 C250 1.327 . S
C248 H273 0.950 . S
C249 C248 1.349 . S
C249 C265 1.349 1_545 S
C250 C248 1.327 . S
C250 C269 1.429 . S
C250 H274 0.950 . S
C251 C268 1.574 . S
C251 C270 1.368 1_565 S
C251 H275 0.949 . S
H252 C256 0.949 . S
C253 C254 1.349 1_565 S
C253 C255 1.327 . S
C253 H276 0.950 . S
C254 C253 1.349 1_545 S
C254 C266 1.349 . S
C255 C253 1.327 . S
C255 C271 1.429 1_565 S
C255 H277 0.950 . S
C256 H252 0.949 . S
C256 C264 1.574 . S
C256 C272 1.368 . S
H257 C265 0.950 . S
H258 C263 0.950 . S
H259 C264 0.949 . S
H260 C266 0.950 . S
H261 C267 0.950 . S
H262 C268 0.949 . S
C263 H258 0.950 . S
C263 C265 1.327 . S
C263 C269 1.429 1_565 S
C264 C256 1.574 . S
C264 H259 0.949 . S
C264 C270 1.368 . S
C265 C249 1.349 1_565 S
C265 H257 0.950 . S
C265 C263 1.327 . S
C266 C254 1.349 . S
C266 H260 0.950 . S
C266 C267 1.327 . S
C267 H261 0.950 . S
C267 C266 1.327 . S
C267 C271 1.429 . S
C268 C251 1.574 . S
C268 H262 0.949 . S
C268 C272 1.368 1_565 S
C269 C250 1.429 . S
C269 C263 1.429 1_545 S
C269 C270 1.523 . S
C270 C251 1.368 1_545 S
C270 C264 1.368 . S
C270 C269 1.523 . S
C271 C255 1.429 1_545 S
C271 C267 1.429 . S
C271 C272 1.523 . S
C272 C256 1.368 . S
C272 C268 1.368 1_545 S
C272 C271 1.523 . S
H273 C248 0.950 . S
H274 C250 0.950 . S
H275 C251 0.949 . S
H276 C253 0.950 . S
H277 C255 0.950 . S
C278 C279 1.349 . S
C278 C280 1.327 . S
C278 H303 0.950 . S
C279 C278 1.349 . S
C279 C295 1.349 . S
C280 C278 1.327 . S
C280 C299 1.429 . S
C280 H304 0.950 . S
C281 C298 1.574 . S
C281 C300 1.368 . S
C281 H305 0.949 . S
H282 C286 0.949 . S
C283 C284 1.349 . S
C283 C285 1.327 . S
C283 H306 0.950 . S
C284 C283 1.349 . S
C284 C296 1.349 . S
C285 C283 1.327 . S
C285 C301 1.429 . S
C285 H307 0.950 . S
C286 H282 0.949 . S
C286 C294 1.574 . S
C286 C302 1.368 . S
H287 C295 0.950 . S
H288 C293 0.950 . S
H289 C294 0.949 . S
H290 C296 0.950 . S
H291 C297 0.950 . S
H292 C298 0.949 . S
C293 H288 0.950 . S
C293 C295 1.327 . S
C293 C299 1.429 . S
C294 C286 1.574 . S
C294 H289 0.949 . S
C294 C300 1.368 . S
C295 C279 1.349 . S
C295 H287 0.950 . S
C295 C293 1.327 . S
C296 C284 1.349 . S
C296 H290 0.950 . S
C296 C297 1.327 . S
C297 H291 0.950 . S
C297 C296 1.327 . S
C297 C301 1.429 . S
C298 C281 1.574 . S
C298 H292 0.949 . S
C298 C302 1.368 . S
C299 C280 1.429 . S
C299 C293 1.429 . S
C299 C300 1.523 . S
C300 C281 1.368 . S
C300 C294 1.368 . S
C300 C299 1.523 . S
C301 C285 1.429 . S
C301 C297 1.429 . S
C301 C302 1.523 . S
C302 C286 1.368 . S
C302 C298 1.368 . S
C302 C301 1.523 . S
H303 C278 0.950 . S
H304 C280 0.950 . S
H305 C281 0.949 . S
H306 C283 0.950 . S
H307 C285 0.950 . S
C308 C309 1.349 . S
C308 C310 1.327 . S
C308 H333 0.950 . S
C309 C308 1.349 . S
C309 C325 1.349 . S
C310 C308 1.327 . S
C310 C329 1.429 . S
C310 H334 0.950 . S
C311 C328 1.574 . S
C311 C330 1.368 . S
C311 H335 0.949 . S
H312 C316 0.949 . S
C313 C314 1.349 . S
C313 C315 1.327 . S
C313 H336 0.950 . S
C314 C313 1.349 . S
C314 C326 1.349 . S
C315 C313 1.327 . S
C315 C331 1.429 . S
C315 H337 0.950 . S
C316 H312 0.949 . S
C316 C324 1.574 . S
C316 C332 1.368 . S
H317 C325 0.950 . S
H318 C323 0.950 . S
H319 C324 0.949 . S
H320 C326 0.950 . S
H321 C327 0.950 . S
H322 C328 0.949 . S
C323 H318 0.950 . S
C323 C325 1.327 . S
C323 C329 1.429 . S
C324 C316 1.574 . S
C324 H319 0.949 . S
C324 C330 1.368 . S
C325 C309 1.349 . S
C325 H317 0.950 . S
C325 C323 1.327 . S
C326 C314 1.349 . S
C326 H320 0.950 . S
C326 C327 1.327 . S
C327 H321 0.950 . S
C327 C326 1.327 . S
C327 C331 1.429 . S
C328 C311 1.574 . S
C328 H322 0.949 . S
C328 C332 1.368 . S
C329 C310 1.429 . S
C329 C323 1.429 . S
C329 C330 1.523 . S
C330 C311 1.368 . S
C330 C324 1.368 . S
C330 C329 1.523 . S
C331 C315 1.429 . S
C331 C327 1.429 . S
C331 C332 1.523 . S
C332 C316 1.368 . S
C332 C328 1.368 . S
C332 C331 1.523 . S
H333 C308 0.950 . S
H334 C310 0.950 . S
H335 C311 0.949 . S
H336 C313 0.950 . S
H337 C315 0.950 . S
C338 C339 1.349 . S
C338 C340 1.327 . S
C338 H363 0.950 . S
C339 C338 1.349 . S
C339 C355 1.349 1_455 S
C340 C338 1.327 . S
C340 C359 1.429 . S
C340 H364 0.950 . S
C341 C358 1.574 . S
C341 C360 1.368 1_655 S
C341 H365 0.949 . S
H342 C346 0.949 . S
C343 C344 1.349 1_655 S
C343 C345 1.327 . S
C343 H366 0.950 . S
C344 C343 1.349 1_455 S
C344 C356 1.349 . S
C345 C343 1.327 . S
C345 C361 1.429 1_655 S
C345 H367 0.950 . S
C346 H342 0.949 . S
C346 C354 1.574 . S
C346 C362 1.368 . S
H347 C355 0.950 . S
H348 C353 0.950 . S
H349 C354 0.949 . S
H350 C356 0.950 . S
H351 C357 0.950 . S
H352 C358 0.949 . S
C353 H348 0.950 . S
C353 C355 1.327 . S
C353 C359 1.429 1_655 S
C354 C346 1.574 . S
C354 H349 0.949 . S
C354 C360 1.368 . S
C355 C339 1.349 1_655 S
C355 H347 0.950 . S
C355 C353 1.327 . S
C356 C344 1.349 . S
C356 H350 0.950 . S
C356 C357 1.327 . S
C357 H351 0.950 . S
C357 C356 1.327 . S
C357 C361 1.429 . S
C358 C341 1.574 . S
C358 H352 0.949 . S
C358 C362 1.368 1_655 S
C359 C340 1.429 . S
C359 C353 1.429 1_455 S
C359 C360 1.523 . S
C360 C341 1.368 1_455 S
C360 C354 1.368 . S
C360 C359 1.523 . S
C361 C345 1.429 1_455 S
C361 C357 1.429 . S
C361 C362 1.523 . S
C362 C346 1.368 . S
C362 C358 1.368 1_455 S
C362 C361 1.523 . S
H363 C338 0.950 . S
H364 C340 0.950 . S
H365 C341 0.949 . S
H366 C343 0.950 . S
H367 C345 0.950 . S
C368 C369 1.349 . S
C368 C370 1.327 . S
C368 H393 0.950 . S
C369 C368 1.349 . S
C369 C385 1.349 1_565 S
C370 C368 1.327 . S
C370 C389 1.429 . S
C370 H394 0.950 . S
C371 C388 1.574 . S
C371 C390 1.368 1_545 S
C371 H395 0.949 . S
H372 C376 0.949 . S
C373 C374 1.384 . S
C373 C375 1.327 . S
C373 H396 0.950 . S
C374 C373 1.384 . S
C374 C386 1.314 1_545 S
C375 C373 1.327 . S
C375 C391 1.427 . S
C375 H397 0.950 . S
C376 H372 0.949 . S
C376 C384 1.574 1_556 S
C376 C392 1.382 . S
H377 C385 0.950 . S
H378 C383 0.950 . S
H379 C384 0.949 . S
H380 C386 0.950 . S
H381 C387 0.950 . S
H382 C388 0.949 . S
C383 H378 0.950 . S
C383 C385 1.327 . S
C383 C389 1.429 1_545 S
C384 C376 1.574 1_554 S
C384 H379 0.949 . S
C384 C390 1.368 . S
C385 C369 1.349 1_545 S
C385 H377 0.950 . S
C385 C383 1.327 . S
C386 C374 1.314 1_565 S
C386 H380 0.950 . S
C386 C387 1.327 . S
C387 H381 0.950 . S
C387 C386 1.327 . S
C387 C391 1.430 1_565 S
C388 C371 1.574 . S
C388 H382 0.949 . S
C388 C392 1.355 1_544 S
C389 C370 1.429 . S
C389 C383 1.429 1_565 S
C389 C390 1.523 . S
C390 C371 1.368 1_565 S
C390 C384 1.368 . S
C390 C389 1.523 . S
C391 C375 1.427 . S
C391 C387 1.430 1_545 S
C391 C392 1.523 1_545 S
C392 C376 1.382 . S
C392 C388 1.355 1_566 S
C392 C391 1.523 1_565 S
H393 C368 0.950 . S
H394 C370 0.950 . S
H395 C371 0.949 . S
H396 C373 0.950 . S
H397 C375 0.950 . S
C398 C399 1.349 . S
C398 C400 1.327 . S
C398 H423 0.950 . S
C399 C398 1.349 . S
C399 C415 1.349 . S
C400 C398 1.327 . S
C400 C419 1.429 . S
C400 H424 0.950 . S
C401 C418 1.574 . S
C401 C420 1.368 . S
C401 H425 0.949 . S
H402 C406 0.949 . S
C403 C404 1.349 . S
C403 C405 1.327 . S
C403 H426 0.950 . S
C404 C403 1.349 . S
C404 C416 1.349 . S
C405 C403 1.327 . S
C405 C421 1.429 . S
C405 H427 0.950 . S
C406 H402 0.949 . S
C406 C414 1.574 1_556 S
C406 C422 1.368 . S
H407 C415 0.950 . S
H408 C413 0.950 . S
H409 C414 0.949 . S
H410 C416 0.950 . S
H411 C417 0.950 . S
H412 C418 0.949 . S
C413 H408 0.950 . S
C413 C415 1.327 . S
C413 C419 1.429 . S
C414 C406 1.574 1_554 S
C414 H409 0.949 . S
C414 C420 1.368 . S
C415 C399 1.349 . S
C415 H407 0.950 . S
C415 C413 1.327 . S
C416 C404 1.349 . S
C416 H410 0.950 . S
C416 C417 1.327 . S
C417 H411 0.950 . S
C417 C416 1.327 . S
C417 C421 1.429 . S
C418 C401 1.574 . S
C418 H412 0.949 . S
C418 C422 1.368 1_554 S
C419 C400 1.429 . S
C419 C413 1.429 . S
C419 C420 1.523 . S
C420 C401 1.368 . S
C420 C414 1.368 . S
C420 C419 1.523 . S
C421 C405 1.429 . S
C421 C417 1.429 . S
C421 C422 1.523 . S
C422 C406 1.368 . S
C422 C418 1.368 1_556 S
C422 C421 1.523 . S
H423 C398 0.950 . S
H424 C400 0.950 . S
H425 C401 0.949 . S
H426 C403 0.950 . S
H427 C405 0.950 . S
C428 C429 1.349 . S
C428 C430 1.327 . S
C428 H453 0.950 . S
C429 C428 1.349 . S
C429 C445 1.349 . S
C430 C428 1.327 . S
C430 C449 1.429 . S
C430 H454 0.950 . S
C431 C448 1.574 . S
C431 C450 1.368 . S
C431 H455 0.949 . S
H432 C436 0.949 . S
C433 C434 1.349 . S
C433 C435 1.327 . S
C433 H456 0.950 . S
C434 C433 1.349 . S
C434 C446 1.349 . S
C435 C433 1.327 . S
C435 C451 1.429 . S
C435 H457 0.950 . S
C436 H432 0.949 . S
C436 C444 1.574 1_556 S
C436 C452 1.368 . S
H437 C445 0.950 . S
H438 C443 0.950 . S
H439 C444 0.949 . S
H440 C446 0.950 . S
H441 C447 0.950 . S
H442 C448 0.949 . S
C443 H438 0.950 . S
C443 C445 1.327 . S
C443 C449 1.429 . S
C444 C436 1.574 1_554 S
C444 H439 0.949 . S
C444 C450 1.368 . S
C445 C429 1.349 . S
C445 H437 0.950 . S
C445 C443 1.327 . S
C446 C434 1.349 . S
C446 H440 0.950 . S
C446 C447 1.327 . S
C447 H441 0.950 . S
C447 C446 1.327 . S
C447 C451 1.429 . S
C448 C431 1.574 . S
C448 H442 0.949 . S
C448 C452 1.368 1_554 S
C449 C430 1.429 . S
C449 C443 1.429 . S
C449 C450 1.523 . S
C450 C431 1.368 . S
C450 C444 1.368 . S
C450 C449 1.523 . S
C451 C435 1.429 . S
C451 C447 1.429 . S
C451 C452 1.523 . S
C452 C436 1.368 . S
C452 C448 1.368 1_556 S
C452 C451 1.523 . S
H453 C428 0.950 . S
H454 C430 0.950 . S
H455 C431 0.949 . S
H456 C433 0.950 . S
H457 C435 0.950 . S
C458 C459 1.349 1_455 S
C458 C460 1.327 . S
C458 H483 0.950 . S
C459 C458 1.349 1_655 S
C459 C475 1.349 . S
C460 C458 1.327 . S
C460 C479 1.396 1_455 S
C460 H484 0.950 . S
C461 C478 1.574 . S
C461 C480 1.380 . S
C461 H485 0.949 . S
H462 C466 0.949 . S
C463 C464 1.349 1_655 S
C463 C465 1.327 . S
C463 H486 0.950 . S
C464 C463 1.349 1_455 S
C464 C476 1.349 . S
C465 C463 1.327 . S
C465 C481 1.387 1_655 S
C465 H487 0.950 . S
C466 H462 0.949 . S
C466 C474 1.574 1_556 S
C466 C482 1.390 . S
H467 C475 0.950 . S
H468 C473 0.950 . S
H469 C474 0.949 . S
H470 C476 0.950 . S
H471 C477 0.950 . S
H472 C478 0.949 . S
C473 H468 0.950 . S
C473 C475 1.327 . S
C473 C479 1.463 . S
C474 C466 1.574 1_554 S
C474 H469 0.949 . S
C474 C480 1.357 1_455 S
C475 C459 1.349 . S
C475 H467 0.950 . S
C475 C473 1.327 . S
C476 C464 1.349 . S
C476 H470 0.950 . S
C476 C477 1.327 . S
C477 H471 0.950 . S
C477 C476 1.327 . S
C477 C481 1.473 . S
C478 C461 1.574 . S
C478 H472 0.949 . S
C478 C482 1.347 1_654 S
C479 C460 1.396 1_655 S
C479 C473 1.463 . S
C479 C480 1.523 . S
C480 C461 1.380 . S
C480 C474 1.357 1_655 S
C480 C479 1.523 . S
C481 C465 1.387 1_455 S
C481 C477 1.473 . S
C481 C482 1.523 . S
C482 C466 1.390 . S
C482 C478 1.347 1_456 S
C482 C481 1.523 . S
H483 C458 0.950 . S
H484 C460 0.950 . S
H485 C461 0.949 . S
H486 C463 0.950 . S
H487 C465 0.950 . S
C488 C489 1.349 . S
C488 C490 1.327 . S
C488 H513 0.950 . S
C489 C488 1.349 . S
C489 C505 1.349 . S
C490 C488 1.327 . S
C490 C509 1.429 . S
C490 H514 0.950 . S
C491 C508 1.574 . S
C491 C510 1.368 . S
C491 H515 0.948 1_655 S
H492 C496 0.949 . S
C493 C494 1.349 . S
C493 C495 1.327 . S
C493 H516 0.950 . S
C494 C493 1.349 . S
C494 C506 1.349 . S
C495 C493 1.327 . S
C495 C511 1.429 . S
C495 H517 0.950 . S
C496 H492 0.949 . S
C496 C504 1.574 . S
C496 C512 1.368 . S
H497 C505 0.950 . S
H498 C503 0.950 . S
H499 C504 0.952 . S
H500 C506 0.950 . S
H501 C507 0.950 . S
H502 C508 0.949 . S
C503 H498 0.950 . S
C503 C505 1.327 . S
C503 C509 1.429 . S
C504 C496 1.574 . S
C504 H499 0.952 . S
C504 C510 1.369 . S
C505 C489 1.349 . S
C505 H497 0.950 . S
C505 C503 1.327 . S
C506 C494 1.349 . S
C506 H500 0.950 . S
C506 C507 1.327 . S
C507 H501 0.950 . S
C507 C506 1.327 . S
C507 C511 1.429 . S
C508 C491 1.574 . S
C508 H502 0.949 . S
C508 C512 1.368 . S
C509 C490 1.429 . S
C509 C503 1.429 . S
C509 C510 1.522 1_455 S
C510 C491 1.368 . S
C510 C504 1.369 . S
C510 C509 1.522 1_655 S
C511 C495 1.429 . S
C511 C507 1.429 . S
C511 C512 1.523 . S
C512 C496 1.368 . S
C512 C508 1.368 . S
C512 C511 1.523 . S
H513 C488 0.950 . S
H514 C490 0.950 . S
H515 C491 0.948 1_455 S
H516 C493 0.950 . S
H517 C495 0.950 . S
C518 C519 1.349 . S
C518 C520 1.327 . S
C518 H543 0.950 . S
C519 C518 1.349 . S
C519 C535 1.349 1_545 S
C520 C518 1.327 . S
C520 C539 1.429 . S
C520 H544 0.950 . S
C521 C538 1.574 . S
C521 C540 1.368 . S
C521 H545 0.949 . S
H522 C526 0.949 . S
C523 C524 1.349 . S
C523 C525 1.327 . S
C523 H546 0.950 . S
C524 C523 1.349 . S
C524 C536 1.349 . S
C525 C523 1.327 . S
C525 C541 1.429 . S
C525 H547 0.950 . S
C526 H522 0.949 . S
C526 C534 1.574 . S
C526 C542 1.368 1_545 S
H527 C535 0.950 . S
H528 C533 0.950 . S
H529 C534 0.949 . S
H530 C536 0.950 1_545 S
H531 C537 0.950 1_545 S
H532 C538 0.949 . S
C533 H528 0.950 . S
C533 C535 1.327 . S
C533 C539 1.429 1_565 S
C534 C526 1.574 . S
C534 H529 0.949 . S
C534 C540 1.368 1_545 S
C535 C519 1.349 1_565 S
C535 H527 0.950 . S
C535 C533 1.327 . S
C536 C524 1.349 . S
C536 H530 0.950 1_565 S
C536 C537 1.327 . S
C537 H531 0.950 1_565 S
C537 C536 1.327 . S
C537 C541 1.429 . S
C538 C521 1.574 . S
C538 H532 0.949 . S
C538 C542 1.368 . S
C539 C520 1.429 . S
C539 C533 1.429 1_545 S
C539 C540 1.523 1_545 S
C540 C521 1.368 . S
C540 C534 1.368 1_565 S
C540 C539 1.523 1_565 S
C541 C525 1.429 . S
C541 C537 1.429 . S
C541 C542 1.523 . S
C542 C526 1.368 1_565 S
C542 C538 1.368 . S
C542 C541 1.523 . S
H543 C518 0.950 . S
H544 C520 0.950 . S
H545 C521 0.949 . S
H546 C523 0.950 . S
H547 C525 0.950 . S
C548 C549 1.349 . S
C548 C550 1.327 . S
C548 H573 0.950 . S
C549 C548 1.349 . S
C549 C565 1.349 . S
C550 C548 1.327 . S
C550 C569 1.429 . S
C550 H574 0.950 . S
C551 C568 1.574 . S
C551 C570 1.368 . S
C551 H575 0.949 . S
H552 C556 0.949 . S
C553 C554 1.349 . S
C553 C555 1.327 . S
C553 H576 0.950 . S
C554 C553 1.349 . S
C554 C566 1.349 . S
C555 C553 1.327 . S
C555 C571 1.429 . S
C555 H577 0.950 . S
C556 H552 0.949 . S
C556 C564 1.574 . S
C556 C572 1.368 . S
H557 C565 0.950 . S
H558 C563 0.950 . S
H559 C564 0.949 . S
H560 C566 0.950 . S
H561 C567 0.950 . S
H562 C568 0.949 . S
C563 H558 0.950 . S
C563 C565 1.327 . S
C563 C569 1.429 . S
C564 C556 1.574 . S
C564 H559 0.949 . S
C564 C570 1.368 . S
C565 C549 1.349 . S
C565 H557 0.950 . S
C565 C563 1.327 . S
C566 C554 1.349 . S
C566 H560 0.950 . S
C566 C567 1.327 . S
C567 H561 0.950 . S
C567 C566 1.327 . S
C567 C571 1.429 . S
C568 C551 1.574 . S
C568 H562 0.949 . S
C568 C572 1.368 . S
C569 C550 1.429 . S
C569 C563 1.429 . S
C569 C570 1.523 . S
C570 C551 1.368 . S
C570 C564 1.368 . S
C570 C569 1.523 . S
C571 C555 1.429 . S
C571 C567 1.429 . S
C571 C572 1.523 . S
C572 C556 1.368 . S
C572 C568 1.368 . S
C572 C571 1.523 . S
H573 C548 0.950 . S
H574 C550 0.950 . S
H575 C551 0.949 . S
H576 C553 0.950 . S
H577 C555 0.950 . S
C578 C579 1.349 . S
C578 C580 1.327 . S
C578 H603 0.950 . S
C579 C578 1.349 . S
C579 C595 1.349 . S
C580 C578 1.327 . S
C580 C599 1.429 . S
C580 H604 0.950 . S
C581 C598 1.574 . S
C581 C600 1.368 . S
C581 H605 0.949 . S
H582 C586 0.949 . S
C583 C584 1.349 . S
C583 C585 1.327 . S
C583 H606 0.950 . S
C584 C583 1.349 . S
C584 C596 1.349 . S
C585 C583 1.327 . S
C585 C601 1.429 . S
C585 H607 0.950 . S
C586 H582 0.949 . S
C586 C594 1.574 . S
C586 C602 1.368 . S
H587 C595 0.950 . S
H588 C593 0.950 . S
H589 C594 0.949 . S
H590 C596 0.950 . S
H591 C597 0.950 . S
H592 C598 0.949 . S
C593 H588 0.950 . S
C593 C595 1.327 . S
C593 C599 1.429 . S
C594 C586 1.574 . S
C594 H589 0.949 . S
C594 C600 1.368 . S
C595 C579 1.349 . S
C595 H587 0.950 . S
C595 C593 1.327 . S
C596 C584 1.349 . S
C596 H590 0.950 . S
C596 C597 1.327 . S
C597 H591 0.950 . S
C597 C596 1.327 . S
C597 C601 1.429 . S
C598 C581 1.574 . S
C598 H592 0.949 . S
C598 C602 1.368 . S
C599 C580 1.429 . S
C599 C593 1.429 . S
C599 C600 1.523 . S
C600 C581 1.368 . S
C600 C594 1.368 . S
C600 C599 1.523 . S
C601 C585 1.429 . S
C601 C597 1.429 . S
C601 C602 1.523 . S
C602 C586 1.368 . S
C602 C598 1.368 . S
C602 C601 1.523 . S
H603 C578 0.950 . S
H604 C580 0.950 . S
H605 C581 0.949 . S
H606 C583 0.950 . S
H607 C585 0.950 . S
C608 C609 1.349 1_455 S
C608 C610 1.327 . S
C608 H633 0.950 . S
C609 C608 1.349 1_655 S
C609 C625 1.349 . S
C610 C608 1.327 . S
C610 C629 1.429 . S
C610 H634 0.950 . S
C611 C628 1.574 . S
C611 C630 1.368 . S
C611 H635 0.949 1_455 S
H612 C616 0.949 . S
C613 C614 1.349 . S
C613 C615 1.327 . S
C613 H636 0.950 . S
C614 C613 1.349 . S
C614 C626 1.349 1_556 S
C615 C613 1.327 . S
C615 C631 1.429 1_556 S
C615 H637 0.950 . S
C616 H612 0.949 . S
C616 C624 1.574 . S
C616 C632 1.368 . S
H617 C625 0.950 . S
H618 C623 0.950 . S
H619 C624 0.949 . S
H620 C626 0.950 . S
H621 C627 0.950 . S
H622 C628 0.949 1_556 S
C623 H618 0.950 . S
C623 C625 1.327 . S
C623 C629 1.429 1_655 S
C624 C616 1.574 . S
C624 H619 0.949 . S
C624 C630 1.368 . S
C625 C609 1.349 . S
C625 H617 0.950 . S
C625 C623 1.327 . S
C626 C614 1.349 1_554 S
C626 H620 0.950 . S
C626 C627 1.327 . S
C627 H621 0.950 . S
C627 C626 1.327 . S
C627 C631 1.429 . S
C628 C611 1.574 . S
C628 H622 0.949 1_554 S
C628 C632 1.368 . S
C629 C610 1.429 . S
C629 C623 1.429 1_455 S
C629 C630 1.523 . S
C630 C611 1.368 . S
C630 C624 1.368 . S
C630 C629 1.523 . S
C631 C615 1.429 1_554 S
C631 C627 1.429 . S
C631 C632 1.523 . S
C632 C616 1.368 . S
C632 C628 1.368 . S
C632 C631 1.523 . S
H633 C608 0.950 . S
H634 C610 0.950 . S
H635 C611 0.949 1_655 S
H636 C613 0.950 . S
H637 C615 0.950 . S
C638 C639 1.349 1_545 S
C638 C640 1.327 . S
C638 H663 0.950 . S
C639 C638 1.349 1_565 S
C639 C655 1.349 . S
C640 C638 1.327 . S
C640 C659 1.429 . S
C640 H664 0.950 . S
C641 C658 1.574 . S
C641 C660 1.368 1_565 S
C641 H665 0.949 . S
H642 C646 0.949 . S
C643 C644 1.349 1_554 S
C643 C645 1.327 . S
C643 H666 0.950 . S
C644 C643 1.349 1_556 S
C644 C656 1.349 . S
C645 C643 1.327 . S
C645 C661 1.429 . S
C645 H667 0.950 1_545 S
C646 H642 0.949 . S
C646 C654 1.574 . S
C646 C662 1.368 . S
H647 C655 0.950 . S
H648 C653 0.950 . S
H649 C654 0.949 . S
H650 C656 0.950 . S
H651 C657 0.950 . S
H652 C658 0.949 . S
C653 H648 0.950 . S
C653 C655 1.327 . S
C653 C659 1.429 1_565 S
C654 C646 1.574 . S
C654 H649 0.949 . S
C654 C660 1.368 . S
C655 C639 1.349 . S
C655 H647 0.950 . S
C655 C653 1.327 . S
C656 C644 1.349 . S
C656 H650 0.950 . S
C656 C657 1.327 . S
C657 H651 0.950 . S
C657 C656 1.327 . S
C657 C661 1.429 1_556 S
C658 C641 1.574 . S
C658 H652 0.949 . S
C658 C662 1.368 1_565 S
C659 C640 1.429 . S
C659 C653 1.429 1_545 S
C659 C660 1.523 . S
C660 C641 1.368 1_545 S
C660 C654 1.368 . S
C660 C659 1.523 . S
C661 C645 1.429 . S
C661 C657 1.429 1_554 S
C661 C662 1.523 . S
C662 C646 1.368 . S
C662 C658 1.368 1_545 S
C662 C661 1.523 . S
H663 C638 0.950 . S
H664 C640 0.950 . S
H665 C641 0.949 . S
H666 C643 0.950 . S
H667 C645 0.950 1_565 S
C668 C669 1.349 . S
C668 C670 1.327 . S
C668 H693 0.950 . S
C669 C668 1.349 . S
C669 C685 1.349 . S
C670 C668 1.327 . S
C670 C689 1.429 . S
C670 H694 0.950 . S
C671 C688 1.574 . S
C671 C690 1.368 . S
C671 H695 0.949 . S
H672 C676 0.949 1_556 S
C673 C674 1.349 1_554 S
C673 C675 1.327 . S
C673 H696 0.950 . S
C674 C673 1.349 1_556 S
C674 C686 1.349 . S
C675 C673 1.327 . S
C675 C691 1.429 . S
C675 H697 0.950 . S
C676 H672 0.949 1_554 S
C676 C684 1.574 . S
C676 C692 1.368 . S
H677 C685 0.950 . S
H678 C683 0.950 . S
H679 C684 0.949 . S
H680 C686 0.950 . S
H681 C687 0.950 . S
H682 C688 0.949 . S
C683 H678 0.950 . S
C683 C685 1.327 . S
C683 C689 1.429 . S
C684 C676 1.574 . S
C684 H679 0.949 . S
C684 C690 1.368 . S
C685 C669 1.349 . S
C685 H677 0.950 . S
C685 C683 1.327 . S
C686 C674 1.349 . S
C686 H680 0.950 . S
C686 C687 1.327 . S
C687 H681 0.950 . S
C687 C686 1.327 . S
C687 C691 1.429 1_556 S
C688 C671 1.574 . S
C688 H682 0.949 . S
C688 C692 1.368 . S
C689 C670 1.429 . S
C689 C683 1.429 . S
C689 C690 1.523 . S
C690 C671 1.368 . S
C690 C684 1.368 . S
C690 C689 1.523 . S
C691 C675 1.429 . S
C691 C687 1.429 1_554 S
C691 C692 1.523 . S
C692 C676 1.368 . S
C692 C688 1.368 . S
C692 C691 1.523 . S
H693 C668 0.950 . S
H694 C670 0.950 . S
H695 C671 0.949 . S
H696 C673 0.950 . S
H697 C675 0.950 . S
C698 C699 1.349 . S
C698 C700 1.327 . S
C698 H723 0.950 . S
C699 C698 1.349 . S
C699 C715 1.349 . S
C700 C698 1.327 . S
C700 C719 1.429 . S
C700 H724 0.950 . S
C701 C718 1.574 . S
C701 C720 1.368 . S
C701 H725 0.949 . S
H702 C706 0.949 . S
C703 C704 1.349 1_554 S
C703 C705 1.327 . S
C703 H726 0.950 . S
C704 C703 1.349 1_556 S
C704 C716 1.349 . S
C705 C703 1.327 . S
C705 C721 1.429 . S
C705 H727 0.950 . S
C706 H702 0.949 . S
C706 C714 1.574 . S
C706 C722 1.368 . S
H707 C715 0.950 . S
H708 C713 0.950 . S
H709 C714 0.949 . S
H710 C716 0.950 . S
H711 C717 0.950 . S
H712 C718 0.949 . S
C713 H708 0.950 . S
C713 C715 1.327 . S
C713 C719 1.429 . S
C714 C706 1.574 . S
C714 H709 0.949 . S
C714 C720 1.368 . S
C715 C699 1.349 . S
C715 H707 0.950 . S
C715 C713 1.327 . S
C716 C704 1.349 . S
C716 H710 0.950 . S
C716 C717 1.327 . S
C717 H711 0.950 . S
C717 C716 1.327 . S
C717 C721 1.429 1_556 S
C718 C701 1.574 . S
C718 H712 0.949 . S
C718 C722 1.368 . S
C719 C700 1.429 . S
C719 C713 1.429 . S
C719 C720 1.523 . S
C720 C701 1.368 . S
C720 C714 1.368 . S
C720 C719 1.523 . S
C721 C705 1.429 . S
C721 C717 1.429 1_554 S
C721 C722 1.523 . S
C722 C706 1.368 . S
C722 C718 1.368 . S
C722 C721 1.523 . S
H723 C698 0.950 . S
H724 C700 0.950 . S
H725 C701 0.949 . S
H726 C703 0.950 . S
H727 C705 0.950 . S
C728 C729 1.349 1_655 S
C728 C730 1.327 . S
C728 H753 0.950 . S
C729 C728 1.349 1_455 S
C729 C745 1.349 . S
C730 C728 1.327 . S
C730 C749 1.429 1_655 S
C730 H754 0.950 . S
C731 C748 1.574 . S
C731 C750 1.368 . S
C731 H755 0.949 . S
H732 C736 0.949 . S
C733 C734 1.349 . S
C733 C735 1.327 . S
C733 H756 0.950 . S
C734 C733 1.349 . S
C734 C746 1.349 . S
C735 C733 1.327 . S
C735 C751 1.429 . S
C735 H757 0.950 . S
C736 H732 0.949 . S
C736 C744 1.574 . S
C736 C752 1.368 1_655 S
H737 C745 0.950 . S
H738 C743 0.950 . S
H739 C744 0.949 . S
H740 C746 0.950 1_655 S
H741 C747 0.937 1_655 S
H742 C748 0.949 . S
C743 H738 0.950 . S
C743 C745 1.327 . S
C743 C749 1.429 . S
C744 C736 1.574 . S
C744 H739 0.949 . S
C744 C750 1.368 1_655 S
C745 C729 1.349 . S
C745 H737 0.950 . S
C745 C743 1.327 . S
C746 C734 1.349 . S
C746 H740 0.950 1_455 S
C746 C747 1.328 . S
C747 H741 0.937 1_455 S
C747 C746 1.328 . S
C747 C751 1.440 . S
C748 C731 1.574 . S
C748 H742 0.949 . S
C748 C752 1.368 . S
C749 C730 1.429 1_455 S
C749 C743 1.429 . S
C749 C750 1.523 . S
C750 C731 1.368 . S
C750 C744 1.368 1_455 S
C750 C749 1.523 . S
C751 C735 1.429 . S
C751 C747 1.440 . S
C751 C752 1.523 . S
C752 C736 1.368 1_455 S
C752 C748 1.368 . S
C752 C751 1.523 . S
H753 C728 0.950 . S
H754 C730 0.950 . S
H755 C731 0.949 . S
H756 C733 0.950 . S
H757 C735 0.950 . S
C758 C759 1.349 . S
C758 C760 1.327 . S
C758 H783 0.950 1_545 S
C759 C758 1.349 . S
C759 C775 1.349 . S
C760 C758 1.327 . S
C760 C779 1.429 . S
C760 H784 0.950 1_545 S
C761 C778 1.574 . S
C761 C780 1.368 . S
C761 H785 0.949 . S
H762 C766 0.949 1_565 S
C763 C764 1.349 . S
C763 C765 1.327 . S
C763 H786 0.950 . S
C764 C763 1.349 . S
C764 C776 1.349 . S
C765 C763 1.327 . S
C765 C781 1.429 . S
C765 H787 0.950 . S
C766 H762 0.949 1_545 S
C766 C774 1.574 . S
C766 C782 1.368 . S
H767 C775 0.950 . S
H768 C773 0.950 . S
H769 C774 0.949 1_565 S
H770 C776 0.939 1_565 S
H771 C777 0.950 1_565 S
H772 C778 0.949 . S
C773 H768 0.950 . S
C773 C775 1.327 . S
C773 C779 1.429 . S
C774 C766 1.574 . S
C774 H769 0.949 1_545 S
C774 C780 1.368 . S
C775 C759 1.349 . S
C775 H767 0.950 . S
C775 C773 1.327 . S
C776 C764 1.349 . S
C776 H770 0.939 1_545 S
C776 C777 1.327 . S
C777 H771 0.950 1_545 S
C777 C776 1.327 . S
C777 C781 1.429 . S
C778 C761 1.574 . S
C778 H772 0.949 . S
C778 C782 1.368 . S
C779 C760 1.429 . S
C779 C773 1.429 . S
C779 C780 1.523 . S
C780 C761 1.368 . S
C780 C774 1.368 . S
C780 C779 1.523 . S
C781 C765 1.429 . S
C781 C777 1.429 . S
C781 C782 1.523 . S
C782 C766 1.368 . S
C782 C778 1.368 . S
C782 C781 1.523 . S
H783 C758 0.950 1_565 S
H784 C760 0.950 1_565 S
H785 C761 0.949 . S
H786 C763 0.950 . S
H787 C765 0.950 . S
C788 C789 1.349 . S
C788 C790 1.327 . S
C788 H813 0.950 . S
C789 C788 1.349 . S
C789 C805 1.349 . S
C790 C788 1.327 . S
C790 C809 1.429 . S
C790 H814 0.950 . S
C791 C808 1.574 . S
C791 C810 1.368 . S
C791 H815 0.949 . S
H792 C796 0.949 . S
C793 C794 1.349 . S
C793 C795 1.327 . S
C793 H816 0.950 . S
C794 C793 1.349 . S
C794 C806 1.349 . S
C795 C793 1.327 . S
C795 C811 1.429 . S
C795 H817 0.950 . S
C796 H792 0.949 . S
C796 C804 1.574 . S
C796 C812 1.368 . S
H797 C805 0.950 . S
H798 C803 0.950 . S
H799 C804 0.949 . S
H800 C806 0.950 . S
H801 C807 0.950 . S
H802 C808 0.949 . S
C803 H798 0.950 . S
C803 C805 1.327 . S
C803 C809 1.429 . S
C804 C796 1.574 . S
C804 H799 0.949 . S
C804 C810 1.368 . S
C805 C789 1.349 . S
C805 H797 0.950 . S
C805 C803 1.327 . S
C806 C794 1.349 . S
C806 H800 0.950 . S
C806 C807 1.327 . S
C807 H801 0.950 . S
C807 C806 1.327 . S
C807 C811 1.429 . S
C808 C791 1.574 . S
C808 H802 0.949 . S
C808 C812 1.368 . S
C809 C790 1.429 . S
C809 C803 1.429 . S
C809 C810 1.523 . S
C810 C791 1.368 . S
C810 C804 1.368 . S
C810 C809 1.523 . S
C811 C795 1.429 . S
C811 C807 1.429 . S
C811 C812 1.523 . S
C812 C796 1.368 . S
C812 C808 1.368 . S
C812 C811 1.523 . S
H813 C788 0.950 . S
H814 C790 0.950 . S
H815 C791 0.949 . S
H816 C793 0.950 . S
H817 C795 0.950 . S
C818 C819 1.349 . S
C818 C820 1.327 . S
C818 H843 0.950 . S
C819 C818 1.349 . S
C819 C835 1.349 . S
C820 C818 1.327 . S
C820 C839 1.429 . S
C820 H844 0.950 . S
C821 C838 1.574 . S
C821 C840 1.368 . S
C821 H845 0.949 . S
H822 C826 0.949 . S
C823 C824 1.349 . S
C823 C825 1.327 . S
C823 H846 0.950 . S
C824 C823 1.349 . S
C824 C836 1.349 . S
C825 C823 1.327 . S
C825 C841 1.429 . S
C825 H847 0.950 . S
C826 H822 0.949 . S
C826 C834 1.574 . S
C826 C842 1.368 . S
H827 C835 0.950 . S
H828 C833 0.950 . S
H829 C834 0.949 . S
H830 C836 0.950 . S
H831 C837 0.950 . S
H832 C838 0.949 . S
C833 H828 0.950 . S
C833 C835 1.327 . S
C833 C839 1.429 . S
C834 C826 1.574 . S
C834 H829 0.949 . S
C834 C840 1.368 . S
C835 C819 1.349 . S
C835 H827 0.950 . S
C835 C833 1.327 . S
C836 C824 1.349 . S
C836 H830 0.950 . S
C836 C837 1.327 . S
C837 H831 0.950 . S
C837 C836 1.327 . S
C837 C841 1.429 . S
C838 C821 1.574 . S
C838 H832 0.949 . S
C838 C842 1.368 . S
C839 C820 1.429 . S
C839 C833 1.429 . S
C839 C840 1.523 . S
C840 C821 1.368 . S
C840 C834 1.368 . S
C840 C839 1.523 . S
C841 C825 1.429 . S
C841 C837 1.429 . S
C841 C842 1.523 . S
C842 C826 1.368 . S
C842 C838 1.368 . S
C842 C841 1.523 . S
H843 C818 0.950 . S
H844 C820 0.950 . S
H845 C821 0.949 . S
H846 C823 0.950 . S
H847 C825 0.950 . S
C848 C849 1.349 . S
C848 C850 1.327 . S
C848 H873 0.950 . S
C849 C848 1.349 . S
C849 C865 1.349 1_655 S
C850 C848 1.327 . S
C850 C869 1.429 . S
C850 H874 0.950 . S
C851 C868 1.574 . S
C851 C870 1.368 1_455 S
C851 H875 0.949 . S
H852 C856 0.949 . S
C853 C854 1.349 1_455 S
C853 C855 1.327 . S
C853 H876 0.950 . S
C854 C853 1.349 1_655 S
C854 C866 1.349 . S
C855 C853 1.327 . S
C855 C871 1.429 1_455 S
C855 H877 0.950 . S
C856 H852 0.949 . S
C856 C864 1.574 . S
C856 C872 1.368 . S
H857 C865 0.950 . S
H858 C863 0.950 . S
H859 C864 0.949 . S
H860 C866 0.950 . S
H861 C867 0.950 . S
H862 C868 0.949 . S
C863 H858 0.950 . S
C863 C865 1.327 . S
C863 C869 1.429 1_455 S
C864 C856 1.574 . S
C864 H859 0.949 . S
C864 C870 1.368 . S
C865 C849 1.349 1_455 S
C865 H857 0.950 . S
C865 C863 1.327 . S
C866 C854 1.349 . S
C866 H860 0.950 . S
C866 C867 1.327 . S
C867 H861 0.950 . S
C867 C866 1.327 . S
C867 C871 1.429 . S
C868 C851 1.574 . S
C868 H862 0.949 . S
C868 C872 1.368 1_455 S
C869 C850 1.429 . S
C869 C863 1.429 1_655 S
C869 C870 1.523 . S
C870 C851 1.368 1_655 S
C870 C864 1.368 . S
C870 C869 1.523 . S
C871 C855 1.429 1_655 S
C871 C867 1.429 . S
C871 C872 1.523 . S
C872 C856 1.368 . S
C872 C868 1.368 1_655 S
C872 C871 1.523 . S
H873 C848 0.950 . S
H874 C850 0.950 . S
H875 C851 0.949 . S
H876 C853 0.950 . S
H877 C855 0.950 . S
C878 C879 1.349 . S
C878 C880 1.327 . S
C878 H903 0.950 . S
C879 C878 1.349 . S
C879 C895 1.349 1_565 S
C880 C878 1.327 . S
C880 C899 1.429 . S
C880 H904 0.950 . S
C881 C898 1.574 . S
C881 C900 1.368 1_545 S
C881 H905 0.949 . S
H882 C886 0.949 . S
C883 C884 1.349 1_545 S
C883 C885 1.327 . S
C883 H906 0.950 . S
C884 C883 1.349 1_565 S
C884 C896 1.349 . S
C885 C883 1.327 . S
C885 C901 1.429 1_545 S
C885 H907 0.950 . S
C886 H882 0.949 . S
C886 C894 1.574 . S
C886 C902 1.368 . S
H887 C895 0.950 . S
H888 C893 0.950 . S
H889 C894 0.949 . S
H890 C896 0.950 . S
H891 C897 0.950 . S
H892 C898 0.949 . S
C893 H888 0.950 . S
C893 C895 1.327 . S
C893 C899 1.429 1_545 S
C894 C886 1.574 . S
C894 H889 0.949 . S
C894 C900 1.368 . S
C895 C879 1.349 1_545 S
C895 H887 0.950 . S
C895 C893 1.327 . S
C896 C884 1.349 . S
C896 H890 0.950 . S
C896 C897 1.327 . S
C897 H891 0.950 . S
C897 C896 1.327 . S
C897 C901 1.429 . S
C898 C881 1.574 . S
C898 H892 0.949 . S
C898 C902 1.368 1_545 S
C899 C880 1.429 . S
C899 C893 1.429 1_565 S
C899 C900 1.523 . S
C900 C881 1.368 1_565 S
C900 C894 1.368 . S
C900 C899 1.523 . S
C901 C885 1.429 1_565 S
C901 C897 1.429 . S
C901 C902 1.523 . S
C902 C886 1.368 . S
C902 C898 1.368 1_565 S
C902 C901 1.523 . S
H903 C878 0.950 . S
H904 C880 0.950 . S
H905 C881 0.949 . S
H906 C883 0.950 . S
H907 C885 0.950 . S
C908 C909 1.349 . S
C908 C910 1.327 . S
C908 H933 0.950 . S
C909 C908 1.349 . S
C909 C925 1.349 . S
C910 C908 1.327 . S
C910 C929 1.429 . S
C910 H934 0.950 . S
C911 C928 1.574 . S
C911 C930 1.368 . S
C911 H935 0.949 . S
H912 C916 0.949 . S
C913 C914 1.349 . S
C913 C915 1.327 . S
C913 H936 0.950 . S
C914 C913 1.349 . S
C914 C926 1.349 . S
C915 C913 1.327 . S
C915 C931 1.429 . S
C915 H937 0.950 . S
C916 H912 0.949 . S
C916 C924 1.574 . S
C916 C932 1.368 . S
H917 C925 0.950 . S
H918 C923 0.950 . S
H919 C924 0.949 . S
H920 C926 0.950 . S
H921 C927 0.950 . S
H922 C928 0.949 . S
C923 H918 0.950 . S
C923 C925 1.327 . S
C923 C929 1.429 . S
C924 C916 1.574 . S
C924 H919 0.949 . S
C924 C930 1.368 . S
C925 C909 1.349 . S
C925 H917 0.950 . S
C925 C923 1.327 . S
C926 C914 1.349 . S
C926 H920 0.950 . S
C926 C927 1.327 . S
C927 H921 0.950 . S
C927 C926 1.327 . S
C927 C931 1.429 . S
C928 C911 1.574 . S
C928 H922 0.949 . S
C928 C932 1.368 . S
C929 C910 1.429 . S
C929 C923 1.429 . S
C929 C930 1.523 . S
C930 C911 1.368 . S
C930 C924 1.368 . S
C930 C929 1.523 . S
C931 C915 1.429 . S
C931 C927 1.429 . S
C931 C932 1.523 . S
C932 C916 1.368 . S
C932 C928 1.368 . S
C932 C931 1.523 . S
H933 C908 0.950 . S
H934 C910 0.950 . S
H935 C911 0.949 . S
H936 C913 0.950 . S
H937 C915 0.950 . S
C938 C939 1.349 . S
C938 C940 1.327 . S
C938 H963 0.950 . S
C939 C938 1.349 . S
C939 C955 1.349 . S
C940 C938 1.327 . S
C940 C959 1.429 . S
C940 H964 0.950 . S
C941 C958 1.574 . S
C941 C960 1.368 . S
C941 H965 0.949 . S
H942 C946 0.949 . S
C943 C944 1.349 . S
C943 C945 1.327 . S
C943 H966 0.950 . S
C944 C943 1.349 . S
C944 C956 1.349 . S
C945 C943 1.327 . S
C945 C961 1.429 . S
C945 H967 0.950 . S
C946 H942 0.949 . S
C946 C954 1.574 . S
C946 C962 1.368 . S
H947 C955 0.950 . S
H948 C953 0.950 . S
H949 C954 0.949 . S
H950 C956 0.950 . S
H951 C957 0.950 . S
H952 C958 0.949 . S
C953 H948 0.950 . S
C953 C955 1.327 . S
C953 C959 1.429 . S
C954 C946 1.574 . S
C954 H949 0.949 . S
C954 C960 1.368 . S
C955 C939 1.349 . S
C955 H947 0.950 . S
C955 C953 1.327 . S
C956 C944 1.349 . S
C956 H950 0.950 . S
C956 C957 1.327 . S
C957 H951 0.950 . S
C957 C956 1.327 . S
C957 C961 1.429 . S
C958 C941 1.574 . S
C958 H952 0.949 . S
C958 C962 1.368 . S
C959 C940 1.429 . S
C959 C953 1.429 . S
C959 C960 1.523 . S
C960 C941 1.368 . S
C960 C954 1.368 . S
C960 C959 1.523 . S
C961 C945 1.429 . S
C961 C957 1.429 . S
C961 C962 1.523 . S
C962 C946 1.368 . S
C962 C958 1.368 . S
C962 C961 1.523 . S
H963 C938 0.950 . S
H964 C940 0.950 . S
H965 C941 0.949 . S
H966 C943 0.950 . S
H967 C945 0.950 . S
C249 C76 1.736 . S
C254 C98 1.819 . S
C284 C138 1.820 . S
C279 C87 1.736 . S
C314 C178 1.819 . S
C309 C54 1.736 . S
C344 C218 1.819 . S
C339 C65 1.736 . S
C374 C107 1.826 . S
C369 C32 1.737 . S
C399 C43 1.736 . S
C404 C147 1.819 . S
C429 C10 1.737 . S
C434 C187 1.819 . S
C459 C21 1.737 . S
C464 C227 1.819 . S
C494 C104 0.359 . S
C489 C60 0.399 . S
C524 C144 0.359 . S
C519 C71 0.399 . S
C554 C184 0.359 . S
C549 C82 0.399 . S
C579 C49 0.399 . S
C584 C224 0.359 . S
C609 C16 0.409 . S
C614 C95 0.359 . S
C644 C135 0.359 . S
C639 C27 0.410 . S
C674 C175 0.359 . S
C669 C38 0.410 . S
C699 C5 0.409 . S
C704 C215 0.359 . S
C729 C59 1.861 . S
C734 C99 2.062 . S
C759 C70 1.861 . S
C764 C139 2.061 . S
C794 C179 2.063 . S
C789 C81 1.862 . S
C824 C219 2.062 . S
C819 C48 1.861 . S
C849 C15 1.862 . S
C854 C90 2.062 . S
C884 C130 2.062 . S
C879 C26 1.862 . S
C914 C170 2.061 . S
C909 C37 1.862 . S
C939 C4 1.862 . S
C944 C210 2.062 . S
